# Generated by pormake.
# Topology pyr, (3,6)-cn, num edge types: 1
# Building blocks:
#     Node 0, Type 0, BuildingBlock: WUSLED_clean_sbu_0, # of connection points: 3
#     Node 1, Type 0, BuildingBlock: WUSLED_clean_sbu_0, # of connection points: 3
#     Node 2, Type 0, BuildingBlock: WUSLED_clean_sbu_0, # of connection points: 3
#     Node 3, Type 0, BuildingBlock: WUSLED_clean_sbu_0, # of connection points: 3
#     Node 4, Type 0, BuildingBlock: WUSLED_clean_sbu_0, # of connection points: 3
#     Node 5, Type 0, BuildingBlock: WUSLED_clean_sbu_0, # of connection points: 3
#     Node 6, Type 0, BuildingBlock: WUSLED_clean_sbu_0, # of connection points: 3
#     Node 7, Type 0, BuildingBlock: WUSLED_clean_sbu_0, # of connection points: 3
#     Node 8, Type 1, BuildingBlock: BETDIP_clean_sbu_0, # of connection points: 6
#     Node 9, Type 1, BuildingBlock: BETDIP_clean_sbu_0, # of connection points: 6
#     Node 10, Type 1, BuildingBlock: BETDIP_clean_sbu_0, # of connection points: 6
#     Node 11, Type 1, BuildingBlock: BETDIP_clean_sbu_0, # of connection points: 6
#     Edge 12, Type (0, 1), BuildingBlock: ZUJKAS_clean_linker_0, # of connection points: 2
#     Edge 13, Type (0, 1), BuildingBlock: ZUJKAS_clean_linker_0, # of connection points: 2
#     Edge 14, Type (0, 1), BuildingBlock: ZUJKAS_clean_linker_0, # of connection points: 2
#     Edge 15, Type (0, 1), BuildingBlock: ZUJKAS_clean_linker_0, # of connection points: 2
#     Edge 16, Type (0, 1), BuildingBlock: ZUJKAS_clean_linker_0, # of connection points: 2
#     Edge 17, Type (0, 1), BuildingBlock: ZUJKAS_clean_linker_0, # of connection points: 2
#     Edge 18, Type (0, 1), BuildingBlock: ZUJKAS_clean_linker_0, # of connection points: 2
#     Edge 19, Type (0, 1), BuildingBlock: ZUJKAS_clean_linker_0, # of connection points: 2
#     Edge 20, Type (0, 1), BuildingBlock: ZUJKAS_clean_linker_0, # of connection points: 2
#     Edge 21, Type (0, 1), BuildingBlock: ZUJKAS_clean_linker_0, # of connection points: 2
#     Edge 22, Type (0, 1), BuildingBlock: ZUJKAS_clean_linker_0, # of connection points: 2
#     Edge 23, Type (0, 1), BuildingBlock: ZUJKAS_clean_linker_0, # of connection points: 2
#     Edge 24, Type (0, 1), BuildingBlock: ZUJKAS_clean_linker_0, # of connection points: 2
#     Edge 25, Type (0, 1), BuildingBlock: ZUJKAS_clean_linker_0, # of connection points: 2
#     Edge 26, Type (0, 1), BuildingBlock: ZUJKAS_clean_linker_0, # of connection points: 2
#     Edge 27, Type (0, 1), BuildingBlock: ZUJKAS_clean_linker_0, # of connection points: 2
#     Edge 28, Type (0, 1), BuildingBlock: ZUJKAS_clean_linker_0, # of connection points: 2
#     Edge 29, Type (0, 1), BuildingBlock: ZUJKAS_clean_linker_0, # of connection points: 2
#     Edge 30, Type (0, 1), BuildingBlock: ZUJKAS_clean_linker_0, # of connection points: 2
#     Edge 31, Type (0, 1), BuildingBlock: ZUJKAS_clean_linker_0, # of connection points: 2
#     Edge 32, Type (0, 1), BuildingBlock: ZUJKAS_clean_linker_0, # of connection points: 2
#     Edge 33, Type (0, 1), BuildingBlock: ZUJKAS_clean_linker_0, # of connection points: 2
#     Edge 34, Type (0, 1), BuildingBlock: ZUJKAS_clean_linker_0, # of connection points: 2
#     Edge 35, Type (0, 1), BuildingBlock: ZUJKAS_clean_linker_0, # of connection points: 2
# Relax obj value: 0.090
# Max RMSD: 0.180
# Mean RMSD: 0.077
data_MOF--net-pyr--node1-WUSLED_clean_sbu_0--node2-BETDIP_clean_sbu_0--edge1-ZUJKAS_clean_linker_0
_symmetry_space_group_name_H-M    P1
_symmetry_Int_Tables_number       1
_symmetry_cell_setting            triclinic
loop_
_symmetry_equiv_pos_as_xyz
'x, y, z'
_cell_length_a     56.823684
_cell_length_b     61.409259
_cell_length_c     61.045988
_cell_angle_alpha  88.252793
_cell_angle_beta   93.390101
_cell_angle_gamma 101.16129
loop_
_atom_site_label
_atom_site_type_symbol
_atom_site_fract_x
_atom_site_fract_y
_atom_site_fract_z
_atom_type_partial_charge
C0 C 0.29108 0.29078 0.16721 0.0
C1 C 0.27063 0.29044 0.17917 0.0
C2 C 0.26069 0.32073 0.15654 0.0
C3 C 0.2554 0.30529 0.17376 0.0
C4 C 0.28172 0.3218 0.14531 0.0
C5 C 0.29687 0.30682 0.15062 0.0
U6 U 0.30237 0.24262 0.2018 0.0
O7 O 0.30974 0.21003 0.19426 0.0
O8 O 0.33555 0.23289 0.21528 0.0
C9 C 0.33117 0.21429 0.20439 0.0
C10 C 0.30554 0.2737 0.17141 0.0
C11 C 0.35056 0.21084 0.1913 0.0
C12 C 0.37104 0.21608 0.15739 0.0
C13 C 0.35351 0.22088 0.17042 0.0
C14 C 0.38337 0.19214 0.18654 0.0
C15 C 0.38575 0.20136 0.16527 0.0
C16 C 0.36579 0.19687 0.19949 0.0
C17 C 0.26257 0.22703 0.24969 0.0
C18 C 0.26535 0.19601 0.27467 0.0
C19 C 0.23858 0.22123 0.2813 0.0
C20 C 0.24564 0.23335 0.2625 0.0
C21 C 0.24844 0.20257 0.28765 0.0
C22 C 0.27255 0.20834 0.25573 0.0
C23 C 0.26979 0.24068 0.23045 0.0
O24 O 0.31883 0.27587 0.18985 0.0
O25 O 0.29373 0.25332 0.16815 0.0
O26 O 0.26549 0.23059 0.21154 0.0
O27 O 0.29109 0.25356 0.23263 0.0
H28 H 0.26601 0.27816 0.19213 0.0
H29 H 0.23907 0.30419 0.18239 0.0
H30 H 0.28577 0.33352 0.13179 0.0
H31 H 0.31263 0.30726 0.14133 0.0
H32 H 0.37261 0.2232 0.14096 0.0
H33 H 0.34182 0.23186 0.16402 0.0
H34 H 0.3942 0.18034 0.19271 0.0
H35 H 0.36359 0.18908 0.21559 0.0
H36 H 0.273 0.18155 0.27921 0.0
H37 H 0.225 0.22625 0.29068 0.0
H38 H 0.23782 0.2477 0.25791 0.0
H39 H 0.28578 0.20336 0.24588 0.0
C40 C 0.15212 0.79328 0.69435 0.0
C41 C 0.15392 0.81267 0.70655 0.0
C42 C 0.12583 0.82644 0.68015 0.0
C43 C 0.1409 0.82914 0.69947 0.0
C44 C 0.12326 0.80648 0.66875 0.0
C45 C 0.13628 0.79017 0.67575 0.0
U46 U 0.19928 0.76842 0.73019 0.0
O47 O 0.20546 0.73394 0.7337 0.0
O48 O 0.23335 0.76049 0.72066 0.0
C49 C 0.22736 0.73955 0.7268 0.0
C50 C 0.16824 0.77721 0.69905 0.0
C51 C 0.23842 0.72311 0.71612 0.0
C52 C 0.24243 0.69868 0.68638 0.0
C53 C 0.22944 0.71276 0.69629 0.0
C54 C 0.27283 0.705 0.71624 0.0
C55 C 0.26451 0.69515 0.69614 0.0
C56 C 0.25989 0.71872 0.72612 0.0
C57 C 0.22098 0.79576 0.78599 0.0
C58 C 0.25922 0.79517 0.80595 0.0
C59 C 0.23347 0.81956 0.8171 0.0
C60 C 0.21641 0.81135 0.80059 0.0
C61 C 0.25542 0.81227 0.81933 0.0
C62 C 0.24209 0.78702 0.78918 0.0
C63 C 0.20526 0.79193 0.76596 0.0
O64 O 0.19134 0.78563 0.69938 0.0
O65 O 0.16248 0.76223 0.71469 0.0
O66 O 0.19027 0.77278 0.76429 0.0
O67 O 0.21565 0.79868 0.74767 0.0
H68 H 0.16599 0.81543 0.72104 0.0
H69 H 0.14307 0.84419 0.70879 0.0
H70 H 0.1121 0.8039 0.65369 0.0
H71 H 0.13471 0.77543 0.66603 0.0
H72 H 0.23576 0.69128 0.67079 0.0
H73 H 0.21288 0.71595 0.68829 0.0
H74 H 0.28975 0.70249 0.72406 0.0
H75 H 0.26708 0.72649 0.74144 0.0
H76 H 0.27609 0.78936 0.80739 0.0
H77 H 0.23012 0.83264 0.82733 0.0
H78 H 0.20028 0.81829 0.79833 0.0
H79 H 0.24592 0.77496 0.77798 0.0
C80 C 0.6476 0.36718 0.77863 0.0
C81 C 0.65915 0.38957 0.77667 0.0
C82 C 0.63492 0.39419 0.74267 0.0
C83 C 0.6529 0.40294 0.75881 0.0
C84 C 0.62421 0.37158 0.74458 0.0
C85 C 0.63037 0.35841 0.76227 0.0
U86 U 0.68117 0.34676 0.83161 0.0
O87 O 0.66481 0.32968 0.861 0.0
O88 O 0.68514 0.31232 0.83998 0.0
C89 C 0.67323 0.3116 0.85789 0.0
C90 C 0.65192 0.35235 0.79757 0.0
C91 C 0.66008 0.28996 0.86617 0.0
C92 C 0.62795 0.2571 0.86492 0.0
C93 C 0.63947 0.2774 0.85549 0.0
C94 C 0.6576 0.26187 0.89539 0.0
C95 C 0.63677 0.24933 0.8852 0.0
C96 C 0.66905 0.28182 0.886 0.0
C97 C 0.74144 0.384 0.85456 0.0
C98 C 0.76675 0.38 0.88755 0.0
C99 C 0.77779 0.41131 0.86266 0.0
C100 C 0.75746 0.40351 0.84909 0.0
C101 C 0.78256 0.39974 0.882 0.0
C102 C 0.74623 0.37211 0.87386 0.0
C103 C 0.71985 0.37735 0.83978 0.0
O104 O 0.6697 0.34159 0.79664 0.0
O105 O 0.64952 0.35915 0.81739 0.0
O106 O 0.69894 0.37774 0.8477 0.0
O107 O 0.71941 0.3605 0.82691 0.0
H108 H 0.67264 0.39677 0.78903 0.0
H109 H 0.66165 0.42023 0.75803 0.0
H110 H 0.61089 0.36387 0.73234 0.0
H111 H 0.62131 0.3412 0.76329 0.0
H112 H 0.61189 0.24778 0.85669 0.0
H113 H 0.63223 0.2833 0.84012 0.0
H114 H 0.66508 0.25624 0.91078 0.0
H115 H 0.68502 0.29109 0.89443 0.0
H116 H 0.77013 0.37093 0.90254 0.0
H117 H 0.78966 0.42663 0.8582 0.0
H118 H 0.75406 0.41294 0.83435 0.0
H119 H 0.73407 0.35701 0.87842 0.0
C120 C 0.78224 0.67591 0.34212 0.0
C121 C 0.77966 0.68617 0.3619 0.0
C122 C 0.74268 0.65894 0.36868 0.0
C123 C 0.76006 0.6778 0.375 0.0
C124 C 0.74528 0.64921 0.34857 0.0
C125 C 0.76472 0.65751 0.33563 0.0
U126 U 0.84221 0.71019 0.31563 0.0
O127 O 0.86985 0.69396 0.30236 0.0
O128 O 0.84758 0.71109 0.27982 0.0
C129 C 0.86536 0.70018 0.28201 0.0
C130 C 0.803 0.68286 0.3279 0.0
C131 C 0.87124 0.68717 0.26334 0.0
C132 C 0.86338 0.65662 0.23716 0.0
C133 C 0.85612 0.66805 0.25469 0.0
C134 C 0.90069 0.6832 0.23672 0.0
C135 C 0.886 0.6639 0.22809 0.0
C136 C 0.89341 0.69458 0.25391 0.0
C137 C 0.86956 0.76848 0.34822 0.0
C138 C 0.90188 0.80056 0.35565 0.0
C139 C 0.86578 0.79583 0.37553 0.0
C140 C 0.85641 0.77618 0.36404 0.0
C141 C 0.88895 0.80855 0.37187 0.0
C142 C 0.89233 0.78099 0.34404 0.0
C143 C 0.85966 0.74737 0.33641 0.0
O144 O 0.80261 0.6992 0.31355 0.0
O145 O 0.82475 0.68183 0.33594 0.0
O146 O 0.86611 0.72843 0.34197 0.0
O147 O 0.84352 0.74625 0.31993 0.0
H148 H 0.79288 0.7004 0.36735 0.0
H149 H 0.75893 0.68579 0.39037 0.0
H150 H 0.73223 0.63509 0.34265 0.0
H151 H 0.76618 0.64929 0.32045 0.0
H152 H 0.85155 0.6418 0.23106 0.0
H153 H 0.83888 0.66188 0.26153 0.0
H154 H 0.91798 0.68963 0.23008 0.0
H155 H 0.90537 0.70934 0.26002 0.0
H156 H 0.91972 0.80898 0.35191 0.0
H157 H 0.85438 0.80083 0.38715 0.0
H158 H 0.83877 0.76691 0.36762 0.0
H159 H 0.90291 0.77555 0.33185 0.0
C160 C 0.73198 0.76003 0.88827 0.0
C161 C 0.74957 0.75659 0.87419 0.0
C162 C 0.76478 0.73295 0.90198 0.0
C163 C 0.76583 0.74297 0.88098 0.0
C164 C 0.74639 0.73558 0.91548 0.0
C165 C 0.7301 0.74902 0.90865 0.0
U166 U 0.71791 0.80698 0.85176 0.0
O167 O 0.68426 0.81809 0.84213 0.0
O168 O 0.71358 0.84035 0.86021 0.0
C169 C 0.69126 0.8371 0.85213 0.0
C170 C 0.71753 0.77703 0.88316 0.0
C171 C 0.6742 0.84295 0.86661 0.0
C172 C 0.6531 0.83779 0.90024 0.0
C173 C 0.66896 0.83121 0.88637 0.0
C174 C 0.64778 0.86763 0.87446 0.0
C175 C 0.6424 0.85603 0.89427 0.0
C176 C 0.66357 0.86108 0.86071 0.0
C177 C 0.75471 0.82199 0.80136 0.0
C178 C 0.75852 0.85717 0.78131 0.0
C179 C 0.78263 0.83026 0.7727 0.0
C180 C 0.77167 0.81572 0.78851 0.0
C181 C 0.77677 0.85132 0.76954 0.0
C182 C 0.74751 0.84249 0.79736 0.0
C183 C 0.74722 0.80788 0.8203 0.0
O184 O 0.72967 0.79746 0.88489 0.0
O185 O 0.70304 0.77394 0.86545 0.0
O186 O 0.72511 0.79644 0.81913 0.0
O187 O 0.75382 0.81707 0.8394 0.0
H188 H 0.75136 0.7652 0.85844 0.0
H189 H 0.77999 0.74127 0.87038 0.0
H190 H 0.74519 0.72786 0.93168 0.0
H191 H 0.7167 0.7516 0.91969 0.0
H192 H 0.64929 0.82882 0.91559 0.0
H193 H 0.67731 0.81721 0.89111 0.0
H194 H 0.64029 0.88217 0.86987 0.0
H195 H 0.66777 0.87039 0.84561 0.0
H196 H 0.75387 0.87342 0.779 0.0
H197 H 0.79662 0.82551 0.76364 0.0
H198 H 0.77736 0.79998 0.79149 0.0
H199 H 0.73436 0.84751 0.80728 0.0
C200 C 0.79256 0.27825 0.27599 0.0
C201 C 0.8006 0.25837 0.27291 0.0
C202 C 0.77053 0.24939 0.24295 0.0
C203 C 0.78949 0.2439 0.25644 0.0
C204 C 0.76373 0.2699 0.24514 0.0
C205 C 0.77465 0.28421 0.26161 0.0
U206 U 0.82695 0.29321 0.33204 0.0
O207 O 0.83743 0.32667 0.34608 0.0
O208 O 0.8107 0.30128 0.36176 0.0
C209 C 0.82152 0.32222 0.3612 0.0
C210 C 0.79948 0.29138 0.29578 0.0
C211 C 0.80595 0.33861 0.36392 0.0
C212 C 0.76864 0.35236 0.3563 0.0
C213 C 0.78454 0.33855 0.35105 0.0
C214 C 0.79605 0.36723 0.38641 0.0
C215 C 0.77385 0.36637 0.37458 0.0
C216 C 0.81177 0.35348 0.38121 0.0
C217 C 0.87345 0.25514 0.35278 0.0
C218 C 0.89457 0.25038 0.38806 0.0
C219 C 0.8957 0.22512 0.35863 0.0
C220 C 0.88166 0.23683 0.345 0.0
C221 C 0.90191 0.23149 0.38037 0.0
C222 C 0.88039 0.26219 0.37432 0.0
C223 C 0.85614 0.26478 0.33829 0.0
O224 O 0.79258 0.28114 0.31416 0.0
O225 O 0.82129 0.30343 0.29742 0.0
O226 O 0.86292 0.28485 0.32989 0.0
O227 O 0.83356 0.26049 0.34347 0.0
H228 H 0.81434 0.25349 0.284 0.0
H229 H 0.79471 0.22796 0.25502 0.0
H230 H 0.74877 0.27412 0.23515 0.0
H231 H 0.76804 0.29934 0.26399 0.0
H232 H 0.75182 0.35126 0.34671 0.0
H233 H 0.77971 0.32728 0.33748 0.0
H234 H 0.80114 0.37821 0.40014 0.0
H235 H 0.82823 0.35393 0.39124 0.0
H236 H 0.89905 0.25546 0.40487 0.0
H237 H 0.90089 0.21048 0.35244 0.0
H238 H 0.87643 0.23103 0.32851 0.0
H239 H 0.87423 0.27626 0.38068 0.0
C240 C 0.28405 0.67851 0.21718 0.0
C241 C 0.2776 0.69268 0.20028 0.0
C242 C 0.24399 0.66355 0.18792 0.0
C243 C 0.25767 0.68523 0.18573 0.0
C244 C 0.25087 0.64962 0.20482 0.0
C245 C 0.27049 0.65705 0.21925 0.0
U246 U 0.34358 0.71518 0.24148 0.0
O247 O 0.35531 0.71911 0.27658 0.0
O248 O 0.37592 0.70328 0.25459 0.0
C249 C 0.3737 0.70928 0.27472 0.0
C250 C 0.30494 0.68477 0.23283 0.0
C251 C 0.37996 0.69438 0.29292 0.0
C252 C 0.3714 0.66309 0.31897 0.0
C253 C 0.36388 0.67611 0.30135 0.0
C254 C 0.41109 0.68597 0.31917 0.0
C255 C 0.39524 0.66791 0.32838 0.0
C256 C 0.40349 0.69902 0.30205 0.0
C257 C 0.36532 0.77116 0.2061 0.0
C258 C 0.39924 0.8024 0.20554 0.0
C259 C 0.3685 0.79821 0.17598 0.0
C260 C 0.35626 0.77914 0.18626 0.0
C261 C 0.39038 0.80994 0.18515 0.0
C262 C 0.38684 0.78303 0.21592 0.0
C263 C 0.35171 0.75004 0.21492 0.0
O264 O 0.32608 0.68406 0.22562 0.0
O265 O 0.30516 0.70166 0.24562 0.0
O266 O 0.34042 0.74988 0.23314 0.0
O267 O 0.3594 0.73161 0.21171 0.0
H268 H 0.28792 0.70934 0.19833 0.0
H269 H 0.25287 0.69645 0.17293 0.0
H270 H 0.24135 0.63267 0.20675 0.0
H271 H 0.27528 0.6458 0.23203 0.0
H272 H 0.35836 0.6495 0.32531 0.0
H273 H 0.34559 0.67202 0.29449 0.0
H274 H 0.42976 0.69013 0.32481 0.0
H275 H 0.4163 0.71288 0.29576 0.0
H276 H 0.41603 0.81108 0.2131 0.0
H277 H 0.36076 0.80372 0.16065 0.0
H278 H 0.33964 0.77034 0.17846 0.0
H279 H 0.39416 0.7772 0.23129 0.0
C280 C 0.15801 0.28963 0.71778 0.0
C281 C 0.16811 0.28696 0.69781 0.0
C282 C 0.14055 0.25093 0.69187 0.0
C283 C 0.15953 0.26788 0.68505 0.0
C284 C 0.13093 0.25376 0.71218 0.0
C285 C 0.13944 0.27275 0.72478 0.0
U286 U 0.18864 0.34806 0.74758 0.0
O287 O 0.16497 0.36848 0.76116 0.0
O288 O 0.18658 0.35046 0.78374 0.0
C289 C 0.17037 0.36313 0.78159 0.0
C290 C 0.16539 0.30983 0.73156 0.0
C291 C 0.16427 0.37582 0.80033 0.0
C292 C 0.13869 0.37672 0.83109 0.0
C293 C 0.14608 0.36541 0.81386 0.0
C294 C 0.16783 0.40939 0.82204 0.0
C295 C 0.14928 0.39898 0.83553 0.0
C296 C 0.17522 0.39797 0.80467 0.0
C297 C 0.24952 0.3805 0.719 0.0
C298 C 0.28435 0.41028 0.71427 0.0
C299 C 0.27575 0.38009 0.68876 0.0
C300 C 0.25555 0.37025 0.70043 0.0
C301 C 0.29048 0.4004 0.69539 0.0
C302 C 0.26418 0.40052 0.72577 0.0
C303 C 0.22803 0.37134 0.73162 0.0
O304 O 0.1831 0.31123 0.74663 0.0
O305 O 0.16143 0.32921 0.72421 0.0
O306 O 0.20637 0.3735 0.72423 0.0
O307 O 0.22841 0.35561 0.74667 0.0
H308 H 0.18243 0.29969 0.69194 0.0
H309 H 0.1675 0.26677 0.66957 0.0
H310 H 0.11682 0.24122 0.71861 0.0
H311 H 0.13127 0.2743 0.74011 0.0
H312 H 0.12414 0.36807 0.84061 0.0
H313 H 0.13717 0.34842 0.81085 0.0
H314 H 0.17674 0.42638 0.82495 0.0
H315 H 0.18936 0.40647 0.79459 0.0
H316 H 0.2952 0.42555 0.72041 0.0
H317 H 0.27942 0.37194 0.67422 0.0
H318 H 0.24455 0.3548 0.69482 0.0
H319 H 0.25996 0.40876 0.74007 0.0
Tb320 Tb 0.99128 1.02438 0.54408 0.0
Tb321 Tb 0.03869 0.03637 0.51891 0.0
C322 C 0.95352 1.00326 0.55872 0.0
C323 C 0.94918 0.98994 0.57897 0.0
C324 C 0.94312 0.96678 0.57741 0.0
C325 C 0.93721 0.9537 0.59595 0.0
C326 C 0.93703 0.9636 0.61627 0.0
C327 C 0.94502 0.98655 0.61834 0.0
C328 C 0.95114 0.99973 0.59972 0.0
C329 C 0.02337 0.05629 0.56529 0.0
C330 C 0.03532 1.00014 0.5568 0.0
C331 C 0.07682 0.05772 0.50527 0.0
C332 C 0.0822 0.06968 0.48455 0.0
C333 C 0.09414 0.09178 0.48535 0.0
C334 C 0.09986 0.10372 0.4661 0.0
C335 C 0.0936 0.09377 0.44557 0.0
C336 C 0.0801 0.072 0.44479 0.0
C337 C 0.07447 0.05999 0.46417 0.0
C338 C 1.00692 1.00441 0.49756 0.0
C339 C 0.99438 0.06022 0.50562 0.0
O340 O 0.96584 0.9951 0.54466 0.0
O341 O 0.96008 1.02484 0.56063 0.0
O342 O 0.02548 0.04581 0.54816 0.0
O343 O 1.00206 0.04775 0.57138 0.0
O344 O 1.0122 1.00053 0.55802 0.0
O345 O 0.04981 1.01435 0.54451 0.0
O346 O 0.06288 0.06643 0.51734 0.0
O347 O 0.07118 0.03597 0.50461 0.0
O348 O 1.0046 1.01457 0.51489 0.0
O349 O 0.0282 1.01319 0.4915 0.0
O350 O 0.01738 0.05945 0.50412 0.0
O351 O 0.98009 0.04664 0.51866 0.0
H352 H 0.94198 0.95883 0.56168 0.0
H353 H 0.93103 0.93597 0.59416 0.0
H354 H 0.94477 0.99441 0.63396 0.0
H355 H 0.95637 1.01754 0.60147 0.0
H356 H 0.09956 0.09968 0.50097 0.0
H357 H 0.11042 0.12034 0.46751 0.0
H358 H 0.07447 0.06402 0.42926 0.0
H359 H 0.06443 0.04311 0.46318 0.0
Tb360 Tb 0.53751 0.03548 0.04722 0.0
Tb361 Tb 0.49395 1.01947 1.01849 0.0
C362 C 0.57572 0.05441 0.06598 0.0
C363 C 0.5801 0.07007 0.08422 0.0
C364 C 0.57642 0.09198 0.08119 0.0
C365 C 0.5833 0.10726 0.09786 0.0
C366 C 0.5941 0.1009 0.11768 0.0
C367 C 0.59534 0.0785 0.12156 0.0
C368 C 0.58847 0.0632 0.10487 0.0
C369 C 0.50644 1.00287 0.06437 0.0
C370 C 0.49208 0.05301 0.05545 0.0
C371 C 0.45524 1.0004 1.00046 0.0
C372 C 0.44979 0.9849 0.98206 0.0
C373 C 0.44305 0.96206 0.98641 0.0
C374 C 0.43604 0.94734 0.9693 0.0
C375 C 0.43567 0.9551 0.94737 0.0
C376 C 0.44419 0.97779 0.94298 0.0
C377 C 0.45098 0.99258 0.96016 0.0
C378 C 0.52511 0.05225 1.00153 0.0
C379 C 0.53975 1.00276 1.0097 0.0
O380 O 0.56711 0.06164 0.04735 0.0
O381 O 0.56539 0.03405 0.07094 0.0
O382 O 0.51219 1.00462 0.04466 0.0
O383 O 0.51918 1.01913 0.07534 0.0
O384 O 0.51563 0.05742 0.05696 0.0
O385 O 0.47959 0.03735 0.04291 0.0
O386 O 0.46491 0.99277 1.01837 0.0
O387 O 0.4652 1.02095 0.99574 0.0
O388 O 0.51918 0.05025 1.02116 0.0
O389 O 0.51223 0.03622 0.99032 0.0
O390 O 0.51622 0.99843 1.0075 0.0
O391 O 0.55211 1.01768 1.02307 0.0
H392 H 0.56929 0.09766 0.06566 0.0
H393 H 0.58177 0.1244 0.0947 0.0
H394 H 0.60353 0.07316 0.13675 0.0
H395 H 0.59086 0.04625 0.10777 0.0
H396 H 0.44232 0.9556 1.00313 0.0
H397 H 0.42947 0.93008 0.97354 0.0
H398 H 0.44481 0.98432 0.9263 0.0
H399 H 0.45657 1.01007 0.95623 0.0
Tb400 Tb 0.51654 0.55174 0.54672 0.0
Tb401 Tb 0.5194 0.51123 0.52249 0.0
C402 C 0.49979 0.58267 0.56245 0.0
C403 C 0.47953 0.58512 0.57601 0.0
C404 C 0.45642 0.58506 0.56621 0.0
C405 C 0.43814 0.59007 0.57844 0.0
C406 C 0.44258 0.59542 0.60066 0.0
C407 C 0.4653 0.5948 0.61073 0.0
C408 C 0.48358 0.58962 0.59854 0.0
C409 C 0.5432 0.52557 0.56718 0.0
C410 C 0.47678 0.50691 0.55308 0.0
C411 C 0.53663 0.48048 0.50692 0.0
C412 C 0.55773 0.47821 0.49431 0.0
C413 C 0.58093 0.48049 0.50453 0.0
C414 C 0.60006 0.47568 0.49326 0.0
C415 C 0.59657 0.46821 0.47147 0.0
C416 C 0.57354 0.46688 0.46101 0.0
C417 C 0.55444 0.47182 0.47226 0.0
C418 C 0.49241 0.53716 0.50213 0.0
C419 C 0.5587 0.55623 0.51576 0.0
O420 O 0.49422 0.57515 0.54261 0.0
O421 O 0.51753 0.57451 0.57203 0.0
O422 O 0.52362 0.51971 0.55622 0.0
O423 O 0.54805 0.54711 0.56774 0.0
O424 O 0.48289 0.52883 0.55427 0.0
O425 O 0.48999 0.49543 0.54261 0.0
O426 O 0.54097 0.48722 0.52715 0.0
O427 O 0.51966 0.48922 0.49671 0.0
O428 O 0.51207 0.54317 0.51296 0.0
O429 O 0.48778 0.5156 0.50159 0.0
O430 O 0.55301 0.53427 0.5151 0.0
O431 O 0.54533 0.56766 0.52605 0.0
H432 H 0.45261 0.58186 0.54888 0.0
H433 H 0.42078 0.59068 0.57033 0.0
H434 H 0.46909 0.59895 0.62786 0.0
H435 H 0.50113 0.58989 0.6066 0.0
H436 H 0.58427 0.48549 0.52147 0.0
H437 H 0.61754 0.47755 0.50182 0.0
H438 H 0.56985 0.46109 0.44437 0.0
H439 H 0.53684 0.46987 0.46389 0.0
Tb440 Tb 0.0147 0.54935 1.01453 0.0
Tb441 Tb 0.01916 0.51417 0.04753 0.0
C442 C 0.99768 0.57606 0.98953 0.0
C443 C 0.9803 0.59069 0.99182 0.0
C444 C 0.95581 0.58184 0.99415 0.0
C445 C 0.93912 0.59577 0.99298 0.0
C446 C 0.94662 0.6187 0.98958 0.0
C447 C 0.97122 0.62778 0.98932 0.0
C448 C 0.98797 0.61382 0.99031 0.0
C449 C 0.05483 0.55666 0.03886 0.0
C450 C 0.99184 0.55021 0.06198 0.0
C451 C 0.03539 0.48691 0.07246 0.0
C452 C 0.05219 0.47181 0.06996 0.0
C453 C 0.07635 0.48013 0.06568 0.0
C454 C 0.0928 0.46599 0.0666 0.0
C455 C 0.08539 0.44337 0.07175 0.0
C456 C 0.0609 0.4347 0.07399 0.0
C457 C 0.0444 0.44889 0.07318 0.0
C458 C 0.97927 0.50739 1.02265 0.0
C459 C 0.04271 0.51351 1.00032 0.0
O460 O 0.98918 0.55464 0.98993 0.0
O461 O 0.01824 0.58142 1.00073 0.0
O462 O 0.03427 0.54842 0.04518 0.0
O463 O 0.0532 0.56238 1.01828 0.0
O464 O 0.99146 0.55621 0.04083 0.0
O465 O 1.00406 0.53491 0.06925 0.0
O466 O 0.04457 0.50817 0.07184 0.0
O467 O 0.01461 0.48206 0.06153 0.0
O468 O 1.00006 0.51505 1.01673 0.0
O469 O 0.98031 0.50218 0.04339 0.0
O470 O 0.04184 0.50666 1.02122 0.0
O471 O 0.03147 0.52956 0.99311 0.0
H472 H 0.94935 0.56411 0.9958 0.0
H473 H 0.92018 0.5885 0.99344 0.0
H474 H 0.97735 0.64545 0.98669 0.0
H475 H 1.00679 0.62102 0.98881 0.0
H476 H 0.08284 0.49767 0.06263 0.0
H477 H 0.11157 0.47294 0.06442 0.0
H478 H 0.05477 0.41728 0.07791 0.0
H479 H 0.02578 0.44211 0.07614 0.0
H480 H 0.23293 0.15776 0.29116 0.0
H481 H 0.20756 0.13846 0.31965 0.0
H482 H 0.21734 0.19917 0.35569 0.0
H483 H 0.24304 0.21842 0.32763 0.0
H484 H 0.21351 0.13662 0.3698 0.0
H485 H 0.14341 0.18167 0.33441 0.0
H486 H 0.16914 0.1787 0.31955 0.0
H487 H 0.17253 0.19804 0.3415 0.0
C488 C 0.23039 0.16673 0.30557 0.0
C489 C 0.23944 0.18961 0.3071 0.0
C490 C 0.2158 0.15578 0.32167 0.0
C491 C 0.21027 0.16769 0.33926 0.0
C492 C 0.22123 0.18994 0.34193 0.0
H493 H 0.10247 0.13841 0.43518 0.0
H494 H 0.13076 0.15677 0.40876 0.0
C495 C 0.23587 0.20083 0.32598 0.0
C496 C 0.1913 0.15753 0.35364 0.0
H497 H 0.13346 0.15818 0.36502 0.0
C498 C 0.19597 0.14121 0.36882 0.0
C499 C 0.16867 0.16396 0.35225 0.0
C500 C 0.16295 0.18146 0.33598 0.0
C501 C 0.17844 0.13107 0.38295 0.0
C502 C 0.1555 0.13699 0.38113 0.0
C503 C 0.15099 0.15357 0.36611 0.0
C504 C 0.13601 0.12618 0.39483 0.0
C505 C 0.18488 0.11458 0.40002 0.0
C506 C 0.12856 0.10309 0.39466 0.0
C507 C 0.11308 0.0925 0.41017 0.0
C508 C 0.10434 0.10496 0.42571 0.0
C509 C 0.10959 0.12829 0.42398 0.0
C510 C 0.1256 0.13884 0.40882 0.0
H511 H 0.20464 0.11668 0.40322 0.0
H512 H 0.17658 0.11627 0.41574 0.0
H513 H 0.17821 0.09749 0.39405 0.0
H514 H 0.13575 0.09317 0.38332 0.0
H515 H 0.10948 0.07454 0.41087 0.0
H516 H 0.27167 0.85637 0.8169 0.0
H517 H 0.30436 0.8787 0.83869 0.0
H518 H 0.31665 0.81993 0.87458 0.0
H519 H 0.28398 0.79721 0.85216 0.0
H520 H 0.30885 0.88461 0.88285 0.0
H521 H 0.38335 0.84722 0.85494 0.0
H522 H 0.35374 0.84203 0.84144 0.0
H523 H 0.35932 0.8282 0.86705 0.0
C524 C 0.28131 0.8482 0.82948 0.0
C525 C 0.27533 0.82514 0.83297 0.0
C526 C 0.29998 0.86096 0.84187 0.0
C527 C 0.31305 0.85094 0.85806 0.0
C528 C 0.30704 0.82788 0.86182 0.0
H529 H 0.43382 0.91021 0.9435 0.0
H530 H 0.40412 0.88488 0.92143 0.0
C531 C 0.28841 0.81497 0.84914 0.0
C532 C 0.3328 0.86504 0.87086 0.0
H533 H 0.3936 0.87575 0.8806 0.0
C534 C 0.3274 0.88265 0.88247 0.0
C535 C 0.3569 0.86238 0.87027 0.0
C536 C 0.3638 0.84406 0.85763 0.0
C537 C 0.34547 0.89775 0.89355 0.0
C538 C 0.36971 0.89542 0.8925 0.0
C539 C 0.37504 0.87758 0.8812 0.0
C540 C 0.38969 0.91086 0.90367 0.0
C541 C 0.33823 0.91574 0.90652 0.0
C542 C 0.3925 0.93383 0.9 0.0
C543 C 0.40878 0.94839 0.91321 0.0
C544 C 0.42313 0.94017 0.92987 0.0
C545 C 0.42236 0.91713 0.93152 0.0
C546 C 0.40553 0.9026 0.91876 0.0
H547 H 0.31915 0.91124 0.91085 0.0
H548 H 0.34965 0.91912 0.92189 0.0
H549 H 0.34018 0.93126 0.89642 0.0
H550 H 0.38124 0.94056 0.88767 0.0
H551 H 0.4088 0.96596 0.91123 0.0
H552 H 0.5892 0.39148 0.72412 0.0
H553 H 0.57547 0.41231 0.6931 0.0
H554 H 0.64687 0.45127 0.6889 0.0
H555 H 0.66125 0.42936 0.7193 0.0
H556 H 0.57239 0.45359 0.688 0.0
H557 H 0.63289 0.43608 0.6257 0.0
H558 H 0.62997 0.42122 0.65165 0.0
H559 H 0.64888 0.4483 0.64991 0.0
C560 C 0.60228 0.40411 0.7164 0.0
C561 C 0.62658 0.40826 0.7242 0.0
C562 C 0.59424 0.41626 0.69867 0.0
C563 C 0.6101 0.43319 0.68813 0.0
C564 C 0.63428 0.4379 0.69619 0.0
H565 H 0.58702 0.53409 0.58955 0.0
H566 H 0.60309 0.51091 0.618 0.0
C567 C 0.64244 0.42554 0.7139 0.0
C568 C 0.60085 0.44623 0.66939 0.0
H569 H 0.60968 0.46366 0.61606 0.0
C570 C 0.58054 0.45564 0.67226 0.0
C571 C 0.61117 0.44887 0.64862 0.0
C572 C 0.63176 0.4379 0.64364 0.0
C573 C 0.5707 0.46783 0.65533 0.0
C574 C 0.58137 0.47089 0.63482 0.0
C575 C 0.60158 0.46146 0.63182 0.0
C576 C 0.57204 0.48424 0.61654 0.0
C577 C 0.54914 0.47773 0.65963 0.0
C578 C 0.54942 0.4768 0.60584 0.0
C579 C 0.54036 0.48991 0.58935 0.0
C580 C 0.5536 0.51087 0.58337 0.0
C581 C 0.57638 0.51809 0.59383 0.0
C582 C 0.58558 0.50483 0.61008 0.0
H583 H 0.54541 0.47701 0.67732 0.0
H584 H 0.55184 0.4953 0.65379 0.0
H585 H 0.53308 0.46841 0.65044 0.0
H586 H 0.53868 0.46092 0.61037 0.0
H587 H 0.52271 0.48386 0.58168 0.0
H588 H 0.86227 0.64646 0.18946 0.0
H589 H 0.87826 0.62751 0.16024 0.0
H590 H 0.94628 0.63447 0.19695 0.0
H591 H 0.93057 0.65335 0.22593 0.0
H592 H 0.92182 0.64287 0.13438 0.0
H593 H 0.92783 0.56686 0.18414 0.0
H594 H 0.90878 0.58582 0.19083 0.0
H595 H 0.94058 0.59266 0.19717 0.0
C596 C 0.88057 0.64379 0.1914 0.0
C597 C 0.89501 0.65145 0.21027 0.0
C598 C 0.88979 0.63305 0.17456 0.0
C599 C 0.91353 0.62923 0.1763 0.0
C600 C 0.92788 0.63688 0.19512 0.0
H601 H 1.00412 0.55768 0.10568 0.0
H602 H 0.9851 0.57729 0.13181 0.0
C603 C 0.91884 0.64783 0.21173 0.0
C604 C 0.92346 0.61718 0.15878 0.0
H605 H 0.94612 0.57046 0.15019 0.0
C606 C 0.92698 0.62695 0.13778 0.0
C607 C 0.93047 0.59645 0.16303 0.0
C608 C 0.9266 0.58465 0.18493 0.0
C609 C 0.93789 0.61704 0.12135 0.0
C610 C 0.94494 0.59619 0.12558 0.0
C611 C 0.94102 0.58636 0.14658 0.0
C612 C 0.95683 0.58445 0.10892 0.0
C613 C 0.94262 0.62969 0.09998 0.0
C614 C 0.94761 0.58142 0.08698 0.0
C615 C 0.959 0.57064 0.07173 0.0
C616 C 0.97949 0.56173 0.07808 0.0
C617 C 0.98832 0.56416 0.10012 0.0
C618 C 0.97734 0.57545 0.11518 0.0
H619 H 0.94363 0.64778 0.10197 0.0
H620 H 0.95965 0.62722 0.09331 0.0
H621 H 0.92761 0.62385 0.08782 0.0
H622 H 0.93135 0.58714 0.08156 0.0
H623 H 0.95146 0.5689 0.05502 0.0
H624 H 0.37269 0.1857 0.12466 0.0
H625 H 0.39376 0.16284 0.10399 0.0
H626 H 0.45328 0.17383 0.15224 0.0
H627 H 0.43214 0.19672 0.17324 0.0
H628 H 0.43999 0.16912 0.08679 0.0
H629 H 0.42579 0.10635 0.15513 0.0
H630 H 0.41111 0.12995 0.15332 0.0
H631 H 0.44221 0.13336 0.16258 0.0
C632 C 0.39064 0.18394 0.13042 0.0
C633 C 0.4009 0.19279 0.15048 0.0
C634 C 0.40252 0.17083 0.11871 0.0
C635 C 0.42469 0.16661 0.12698 0.0
C636 C 0.43594 0.17688 0.14599 0.0
H637 H 0.50993 0.07718 0.09054 0.0
H638 H 0.49262 0.10575 0.10658 0.0
C639 C 0.42399 0.18992 0.15781 0.0
C640 C 0.43471 0.14973 0.11674 0.0
H641 H 0.44545 0.09749 0.12484 0.0
C642 C 0.4413 0.15345 0.09502 0.0
C643 C 0.43591 0.12937 0.12776 0.0
C644 C 0.42821 0.12436 0.15092 0.0
C645 C 0.44952 0.13718 0.08392 0.0
C646 C 0.45069 0.11696 0.095 0.0
C647 C 0.44412 0.11319 0.11665 0.0
C648 C 0.46046 0.09994 0.08506 0.0
C649 C 0.45729 0.14172 0.06073 0.0
C650 C 0.44745 0.08722 0.06818 0.0
C651 C 0.45723 0.07087 0.05897 0.0
C652 C 0.47996 0.06748 0.06674 0.0
C653 C 0.49243 0.07976 0.08422 0.0
C654 C 0.48271 0.09603 0.09331 0.0
H655 H 0.45797 0.15934 0.05558 0.0
H656 H 0.47529 0.13759 0.05916 0.0
H657 H 0.44444 0.13104 0.04932 0.0
H658 H 0.43 0.09012 0.06209 0.0
H659 H 0.44751 0.06153 0.04538 0.0
H660 H 0.14615 0.87053 0.67638 0.0
H661 H 0.12964 0.8998 0.6563 0.0
H662 H 0.06388 0.85333 0.64119 0.0
H663 H 0.08014 0.82403 0.66153 0.0
H664 H 0.11439 0.89795 0.61082 0.0
H665 H 0.0401 0.9078 0.66269 0.0
H666 H 0.06425 0.89425 0.67277 0.0
H667 H 0.04049 0.87994 0.65477 0.0
C668 C 0.12795 0.86664 0.66927 0.0
C669 C 0.1145 0.84489 0.6706 0.0
C670 C 0.11861 0.88336 0.65762 0.0
C671 C 0.09548 0.87883 0.6473 0.0
C672 C 0.08166 0.85733 0.64921 0.0
H673 H 1.01037 0.95991 0.5698 0.0
H674 H 0.0255 0.93018 0.59003 0.0
C675 C 0.09105 0.84055 0.66074 0.0
C676 C 0.08649 0.89625 0.63351 0.0
H677 H 0.04315 0.92791 0.62917 0.0
C678 C 0.09886 0.90458 0.61485 0.0
C679 C 0.06599 0.90461 0.63854 0.0
C680 C 0.05197 0.89635 0.65836 0.0
C681 C 0.09121 0.92091 0.601 0.0
C682 C 0.0711 0.92982 0.6064 0.0
C683 C 0.05864 0.92128 0.625 0.0
C684 C 0.06241 0.94779 0.59302 0.0
C685 C 0.10438 0.92782 0.5804 0.0
C686 C 0.07801 0.9678 0.5878 0.0
C687 C 0.06942 0.98475 0.57575 0.0
C688 C 0.04491 0.98232 0.56928 0.0
C689 C 0.02932 0.96243 0.57472 0.0
C690 C 0.03798 0.94536 0.58629 0.0
H691 H 0.11351 0.91461 0.57501 0.0
H692 H 0.09201 0.93177 0.56674 0.0
H693 H 0.11842 0.94279 0.58373 0.0
H694 H 0.09677 0.97051 0.59333 0.0
H695 H 0.08185 0.99992 0.57194 0.0
H696 H 0.78335 0.42883 0.91452 0.0
H697 H 0.81841 0.44771 0.93669 0.0
H698 H 0.86376 0.41169 0.90395 0.0
H699 H 0.82861 0.39301 0.88151 0.0
H700 H 0.8486 0.42785 0.96515 0.0
H701 H 0.90005 0.47632 0.89914 0.0
H702 H 0.86859 0.46399 0.89524 0.0
H703 H 0.89099 0.44703 0.89475 0.0
C704 C 0.8008 0.42485 0.91226 0.0
C705 C 0.80337 0.4093 0.89666 0.0
C706 C 0.8208 0.43571 0.92476 0.0
C707 C 0.84374 0.43134 0.92175 0.0
C708 C 0.84631 0.41563 0.90624 0.0
H709 H 0.98287 0.48207 0.98798 0.0
H710 H 0.95014 0.46326 0.96326 0.0
C711 C 0.82625 0.40476 0.89369 0.0
C712 C 0.86459 0.44245 0.93575 0.0
H713 H 0.91864 0.4783 0.93484 0.0
C714 C 0.8639 0.43892 0.95853 0.0
C715 C 0.88464 0.45669 0.92703 0.0
C716 C 0.88617 0.46144 0.90272 0.0
C717 C 0.88268 0.44915 0.97288 0.0
C718 C 0.90244 0.46387 0.96426 0.0
C719 C 0.90337 0.46716 0.94143 0.0
C720 C 0.92231 0.4759 0.97873 0.0
C721 C 0.88138 0.44367 0.99711 0.0
C722 C 0.9176 0.48952 0.99541 0.0
C723 C 0.93616 0.49974 1.00987 0.0
C724 C 0.95976 0.49711 1.00733 0.0
C725 C 0.9647 0.4843 0.99013 0.0
C726 C 0.94607 0.47361 0.97603 0.0
H727 H 0.86899 0.42765 1.00019 0.0
H728 H 0.89937 0.44269 1.00476 0.0
H729 H 0.87446 0.45684 1.00532 0.0
H730 H 0.89954 0.49212 0.99733 0.0
H731 H 0.93215 0.50987 1.02287 0.0
H732 H 0.71688 0.68008 0.39577 0.0
H733 H 0.68483 0.66324 0.41971 0.0
H734 H 0.68896 0.59839 0.39714 0.0
H735 H 0.72163 0.61476 0.37417 0.0
H736 H 0.63926 0.63639 0.41214 0.0
H737 H 0.69816 0.58981 0.46257 0.0
H738 H 0.70998 0.61135 0.4432 0.0
H739 H 0.69635 0.58406 0.43383 0.0
C740 C 0.71126 0.66221 0.39605 0.0
C741 C 0.72232 0.64894 0.38298 0.0
C742 C 0.69265 0.65259 0.40963 0.0
C743 C 0.68465 0.62944 0.41066 0.0
C744 C 0.69505 0.61623 0.39712 0.0
H745 H 0.58523 0.53737 0.48852 0.0
H746 H 0.61432 0.55568 0.4629 0.0
C747 C 0.71368 0.62576 0.38368 0.0
C748 C 0.66612 0.61903 0.42636 0.0
H749 H 0.65703 0.58238 0.46985 0.0
C750 C 0.64322 0.6247 0.42486 0.0
C751 C 0.67101 0.60352 0.44288 0.0
C752 C 0.69526 0.59693 0.44591 0.0
C753 C 0.62516 0.61512 0.43913 0.0
C754 C 0.63027 0.59989 0.45584 0.0
C755 C 0.65308 0.59417 0.45723 0.0
C756 C 0.61213 0.58908 0.47164 0.0
C757 C 0.60049 0.62075 0.4357 0.0
C758 C 0.6013 0.60163 0.4856 0.0
C759 C 0.58441 0.59112 0.5004 0.0
C760 C 0.57819 0.5678 0.50176 0.0
C761 C 0.58955 0.55534 0.48814 0.0
C762 C 0.60622 0.56582 0.47332 0.0
H763 H 0.59775 0.62821 0.41916 0.0
H764 H 0.58629 0.60572 0.43773 0.0
H765 H 0.59825 0.63294 0.44809 0.0
H766 H 0.60596 0.61958 0.48513 0.0
H767 H 0.57608 0.60127 0.5106 0.0
H768 H 0.22222 0.30549 0.12998 0.0
H769 H 0.19238 0.32619 0.11405 0.0
H770 H 0.22852 0.38458 0.14868 0.0
H771 H 0.25888 0.36388 0.16419 0.0
H772 H 0.16158 0.34695 0.13539 0.0
H773 H 0.2233 0.40716 0.08517 0.0
H774 H 0.2314 0.38209 0.09688 0.0
H775 H 0.23241 0.40576 0.11377 0.0
C776 C 0.22368 0.32275 0.13411 0.0
C777 C 0.2426 0.33329 0.1481 0.0
C778 C 0.20674 0.33451 0.12507 0.0
C779 C 0.20851 0.35692 0.12998 0.0
C780 C 0.22722 0.3674 0.14437 0.0
H781 H 0.12403 0.45489 0.09972 0.0
H782 H 0.15316 0.43242 0.11262 0.0
C783 C 0.24435 0.35563 0.1533 0.0
C784 C 0.19043 0.36907 0.12015 0.0
H785 H 0.1834 0.41289 0.08648 0.0
C786 C 0.16627 0.36129 0.12459 0.0
C787 C 0.19676 0.38765 0.106 0.0
C788 C 0.22234 0.3961 0.09997 0.0
C789 C 0.1482 0.37202 0.11563 0.0
C790 C 0.15459 0.39076 0.10172 0.0
C791 C 0.1787 0.39838 0.09708 0.0
C792 C 0.13686 0.40392 0.09333 0.0
C793 C 0.12259 0.36373 0.12163 0.0
C794 C 0.11817 0.39523 0.0781 0.0
C795 C 0.10143 0.4081 0.07064 0.0
C796 C 0.1035 0.42982 0.07816 0.0
C797 C 0.12238 0.4384 0.09326 0.0
C798 C 0.13891 0.42556 0.10075 0.0
H799 H 0.12127 0.35109 0.13515 0.0
H800 H 0.11448 0.37773 0.12668 0.0
H801 H 0.11185 0.35608 0.10709 0.0
H802 H 0.11656 0.37858 0.07206 0.0
H803 H 0.08696 0.40117 0.05903 0.0
H804 H 0.62151 0.20731 0.86855 0.0
H805 H 0.60413 0.17319 0.88885 0.0
H806 H 0.60732 0.21085 0.94773 0.0
H807 H 0.62452 0.24471 0.92771 0.0
H808 H 0.6254 0.1546 0.92965 0.0
H809 H 0.53644 0.17635 0.94101 0.0
H810 H 0.5555 0.18854 0.91942 0.0
H811 H 0.56211 0.19789 0.94709 0.0
C812 C 0.61817 0.20831 0.88574 0.0
C813 C 0.62434 0.22874 0.89651 0.0
C814 C 0.60844 0.1888 0.89736 0.0
C815 C 0.60429 0.18949 0.9198 0.0
C816 C 0.61014 0.20991 0.93042 0.0
H817 H 0.54304 0.09292 1.01986 0.0
H818 H 0.56488 0.12628 1.00126 0.0
C819 C 0.62004 0.22926 0.91895 0.0
C820 C 0.59407 0.16901 0.93241 0.0
H821 H 0.54534 0.14514 0.96097 0.0
C822 C 0.60784 0.15245 0.93637 0.0
C823 C 0.57125 0.16628 0.94138 0.0
C824 C 0.5553 0.18308 0.93694 0.0
C825 C 0.59944 0.13338 0.94924 0.0
C826 C 0.57661 0.13072 0.9582 0.0
C827 C 0.56293 0.14731 0.9543 0.0
C828 C 0.56578 0.11017 0.97034 0.0
C829 C 0.61515 0.11635 0.9535 0.0
C830 C 0.55917 0.09007 0.95922 0.0
C831 C 0.54656 0.07118 0.96969 0.0
C832 C 0.54032 0.07194 0.99155 0.0
C833 C 0.54763 0.09186 1.003 0.0
C834 C 0.56008 0.11089 0.9924 0.0
H835 H 0.63405 0.12297 0.94951 0.0
H836 H 0.61481 0.11067 0.97095 0.0
H837 H 0.6082 0.10169 0.94318 0.0
H838 H 0.56304 0.08918 0.94215 0.0
H839 H 0.54123 0.05605 0.96049 0.0
H840 H 0.92905 0.84245 0.36391 0.0
H841 H 0.94638 0.87448 0.38579 0.0
H842 H 0.89003 0.85709 0.43081 0.0
H843 H 0.87348 0.82412 0.41044 0.0
H844 H 0.93036 0.91126 0.39693 0.0
H845 H 0.94664 0.86519 0.47397 0.0
H846 H 0.93986 0.85174 0.44786 0.0
H847 H 0.91618 0.85864 0.46301 0.0
C848 C 0.92029 0.84474 0.37864 0.0
C849 C 0.89952 0.82954 0.38495 0.0
C850 C 0.93032 0.8636 0.39117 0.0
C851 C 0.92004 0.86829 0.41049 0.0
C852 C 0.899 0.85377 0.41648 0.0
H853 H 0.96156 0.97802 0.50741 0.0
H854 H 0.93917 0.94555 0.48709 0.0
C855 C 0.88916 0.83474 0.40423 0.0
C856 C 0.93105 0.88833 0.42419 0.0
H857 H 0.95256 0.90434 0.47629 0.0
C858 C 0.9352 0.90963 0.41427 0.0
C859 C 0.9375 0.88662 0.44696 0.0
C860 C 0.93507 0.86433 0.45859 0.0
C861 C 0.94519 0.92894 0.4263 0.0
C862 C 0.95176 0.92726 0.44905 0.0
C863 C 0.9474 0.90598 0.45903 0.0
C864 C 0.96497 0.94708 0.46207 0.0
C865 C 0.94828 0.95116 0.41448 0.0
C866 C 0.98717 0.95881 0.45536 0.0
C867 C 0.99992 0.9772 0.46696 0.0
C868 C 0.99127 0.98477 0.48599 0.0
C869 C 0.96903 0.97296 0.49299 0.0
C870 C 0.95615 0.95427 0.48127 0.0
H871 H 0.93629 0.95054 0.39937 0.0
H872 H 0.94453 0.96418 0.42527 0.0
H873 H 0.96709 0.95604 0.40954 0.0
H874 H 0.99494 0.95359 0.4411 0.0
H875 H 0.01696 0.98548 0.46092 0.0
H876 H 0.30737 0.71256 0.67994 0.0
H877 H 0.33612 0.69298 0.66476 0.0
H878 H 0.28722 0.63063 0.67388 0.0
H879 H 0.25796 0.65051 0.68838 0.0
H880 H 0.3591 0.66312 0.68394 0.0
H881 H 0.30427 0.62475 0.6118 0.0
H882 H 0.29546 0.64603 0.62741 0.0
H883 H 0.29067 0.61778 0.63752 0.0
C884 C 0.3026 0.69471 0.67825 0.0
C885 C 0.28035 0.68305 0.68492 0.0
C886 C 0.31909 0.6835 0.66974 0.0
C887 C 0.31382 0.66031 0.66786 0.0
C888 C 0.2915 0.64856 0.67457 0.0
H889 H 0.40199 0.57155 0.61807 0.0
H890 H 0.37084 0.5862 0.63618 0.0
C891 C 0.2748 0.65988 0.68287 0.0
C892 C 0.33215 0.6487 0.65948 0.0
H893 H 0.3423 0.615 0.61889 0.0
C894 C 0.35537 0.65258 0.66972 0.0
C895 C 0.32737 0.63485 0.64097 0.0
C896 C 0.30317 0.63072 0.62863 0.0
C897 C 0.37389 0.64319 0.66192 0.0
C898 C 0.36921 0.62967 0.6432 0.0
C899 C 0.34588 0.62534 0.63326 0.0
C900 C 0.38849 0.62063 0.63313 0.0
C901 C 0.39828 0.64771 0.67393 0.0
C902 C 0.4087 0.63506 0.62536 0.0
C903 C 0.42653 0.6267 0.61534 0.0
C904 C 0.42431 0.60379 0.61258 0.0
C905 C 0.40408 0.58928 0.62017 0.0
C906 C 0.38632 0.59764 0.63043 0.0
H907 H 0.3972 0.653 0.69103 0.0
H908 H 0.40665 0.63279 0.67438 0.0
H909 H 0.4102 0.66132 0.66529 0.0
H910 H 0.4105 0.65286 0.62666 0.0
H911 H 0.44183 0.63818 0.60928 0.0
H912 H 0.8239 0.86626 0.77709 0.0
H913 H 0.85185 0.88723 0.75174 0.0
H914 H 0.7926 0.89291 0.7057 0.0
H915 H 0.76433 0.87191 0.73139 0.0
H916 H 0.85623 0.87175 0.70973 0.0
H917 H 0.83392 0.95618 0.70785 0.0
H918 H 0.82476 0.93599 0.72935 0.0
H919 H 0.80904 0.93358 0.70287 0.0
C920 C 0.81685 0.87247 0.76176 0.0
C921 C 0.79217 0.86757 0.75598 0.0
C922 C 0.83276 0.8843 0.74733 0.0
C923 C 0.82421 0.89147 0.72696 0.0
C924 C 0.79939 0.88762 0.72152 0.0
H925 H 0.89053 0.94552 0.6119 0.0
H926 H 0.86476 0.92674 0.63998 0.0
C927 C 0.78334 0.87575 0.7361 0.0
C928 C 0.84166 0.9016 0.71105 0.0
H929 H 0.86222 0.94964 0.6831 0.0
C930 C 0.85768 0.88882 0.70397 0.0
C931 C 0.84337 0.92382 0.70374 0.0
C932 C 0.82701 0.93832 0.71143 0.0
C933 C 0.87533 0.89774 0.68945 0.0
C934 C 0.87689 0.9199 0.68211 0.0
C935 C 0.86095 0.93268 0.68916 0.0
C936 C 0.89333 0.92956 0.66534 0.0
C937 C 0.8918 0.88344 0.68157 0.0
C938 C 0.91788 0.93714 0.67058 0.0
C939 C 0.93268 0.94806 0.65455 0.0
C940 C 0.92288 0.95102 0.63329 0.0
C941 C 0.89842 0.94299 0.62816 0.0
C942 C 0.88373 0.93239 0.6441 0.0
H943 H 0.88702 0.86598 0.68762 0.0
H944 H 0.89114 0.88358 0.66335 0.0
H945 H 0.91058 0.89034 0.68734 0.0
H946 H 0.92535 0.93508 0.68709 0.0
H947 H 0.95153 0.95432 0.6587 0.0
H948 H 0.7667 0.24618 0.19832 0.0
H949 H 0.73541 0.2209 0.17676 0.0
H950 H 0.70652 0.19092 0.23673 0.0
H951 H 0.73785 0.21578 0.25815 0.0
H952 H 0.72353 0.1715 0.17984 0.0
H953 H 0.64952 0.21317 0.20115 0.0
H954 H 0.68073 0.22675 0.20306 0.0
H955 H 0.66894 0.207 0.22387 0.0
C956 C 0.7539 0.23384 0.20672 0.0
C957 C 0.75467 0.23248 0.22972 0.0
C958 C 0.73605 0.21963 0.19452 0.0
C959 C 0.7186 0.20442 0.2053 0.0
C960 C 0.71976 0.20277 0.22824 0.0
H961 H 0.59701 0.10248 0.16276 0.0
H962 H 0.62727 0.12765 0.18534 0.0
C963 C 0.73772 0.2167 0.24039 0.0
C964 C 0.69913 0.19003 0.19274 0.0
H965 H 0.63828 0.1788 0.18318 0.0
C966 C 0.7049 0.17311 0.18045 0.0
C967 C 0.67493 0.1923 0.19374 0.0
C968 C 0.66806 0.21089 0.20601 0.0
C969 C 0.68688 0.15803 0.16931 0.0
C970 C 0.66269 0.16023 0.17046 0.0
C971 C 0.6569 0.17715 0.1827 0.0
C972 C 0.64339 0.14618 0.15751 0.0
C973 C 0.69374 0.13977 0.15651 0.0
C974 C 0.64217 0.14906 0.13472 0.0
C975 C 0.62501 0.13506 0.12197 0.0
C976 C 0.60875 0.11793 0.13184 0.0
C977 C 0.60934 0.11562 0.15483 0.0
C978 C 0.62655 0.12984 0.16765 0.0
H979 H 0.71249 0.13776 0.16079 0.0
H980 H 0.68141 0.12373 0.15957 0.0
H981 H 0.6922 0.1438 0.1387 0.0
H982 H 0.65499 0.16178 0.12675 0.0
H983 H 0.62534 0.13692 0.10428 0.0
H984 H 0.37798 0.62397 0.34185 0.0
H985 H 0.3933 0.603 0.37231 0.0
H986 H 0.4492 0.6594 0.38766 0.0
H987 H 0.43266 0.68118 0.35944 0.0
H988 H 0.43451 0.58967 0.37973 0.0
H989 H 0.42842 0.64595 0.4474 0.0
H990 H 0.41451 0.64915 0.42049 0.0
H991 H 0.4461 0.65983 0.42598 0.0
C992 C 0.39314 0.63227 0.35197 0.0
C993 C 0.40395 0.65458 0.34751 0.0
C994 C 0.40212 0.62004 0.36937 0.0
C995 C 0.42229 0.62959 0.38277 0.0
C996 C 0.43322 0.65164 0.37822 0.0
H997 H 0.51043 0.58035 0.48972 0.0
H998 H 0.49403 0.60278 0.46078 0.0
C999 C 0.42392 0.66403 0.36136 0.0
C1000 C 0.43242 0.61648 0.401 0.0
H1001 H 0.45136 0.61784 0.45546 0.0
C1002 C 0.43792 0.59579 0.39632 0.0
C1003 C 0.43735 0.62442 0.42275 0.0
C1004 C 0.43108 0.64595 0.42951 0.0
C1005 C 0.44833 0.5831 0.41247 0.0
C1006 C 0.453 0.59095 0.43421 0.0
C1007 C 0.44778 0.61171 0.43888 0.0
C1008 C 0.46275 0.57761 0.45237 0.0
C1009 C 0.45488 0.56163 0.40591 0.0
C1010 C 0.45046 0.55616 0.45782 0.0
C1011 C 0.45989 0.54328 0.47424 0.0
C1012 C 0.48167 0.55162 0.48592 0.0
C1013 C 0.49358 0.57341 0.48106 0.0
C1014 C 0.48423 0.58625 0.46447 0.0
H1015 H 0.4567 0.56113 0.38792 0.0
H1016 H 0.472 0.55917 0.41446 0.0
H1017 H 0.44049 0.54756 0.41046 0.0
H1018 H 0.43353 0.54928 0.44929 0.0
H1019 H 0.45016 0.52667 0.47771 0.0
H1020 H 0.13385 0.38284 0.87622 0.0
H1021 H 0.11699 0.40184 0.90446 0.0
H1022 H 0.12788 0.46191 0.86504 0.0
H1023 H 0.14437 0.44298 0.83651 0.0
H1024 H 0.13684 0.44157 0.92898 0.0
H1025 H 0.05564 0.45209 0.87782 0.0
H1026 H 0.07361 0.43199 0.87181 0.0
H1027 H 0.08374 0.46082 0.86507 0.0
C1028 C 0.13258 0.40007 0.87337 0.0
C1029 C 0.14041 0.41116 0.85369 0.0
C1030 C 0.12301 0.41101 0.88973 0.0
C1031 C 0.12067 0.43333 0.88693 0.0
C1032 C 0.12901 0.44461 0.86761 0.0
H1033 H 0.05533 0.52663 0.95824 0.0
H1034 H 0.0748 0.50736 0.9321 0.0
C1035 C 0.13874 0.43375 0.8513 0.0
C1036 C 0.10936 0.44474 0.904 0.0
H1037 H 0.06171 0.4699 0.91191 0.0
C1038 C 0.12037 0.4477 0.92525 0.0
C1039 C 0.08779 0.45278 0.89939 0.0
C1040 C 0.07429 0.44916 0.87737 0.0
C1041 C 0.11093 0.45898 0.9416 0.0
C1042 C 0.08934 0.46718 0.93696 0.0
C1043 C 0.07825 0.46392 0.91572 0.0
C1044 C 0.07802 0.47928 0.95361 0.0
C1045 C 0.12478 0.46262 0.96345 0.0
C1046 C 0.07291 0.47019 0.9747 0.0
C1047 C 0.06203 0.48144 0.9899 0.0
C1048 C 0.05537 0.50199 0.98442 0.0
C1049 C 0.06018 0.51093 0.96323 0.0
C1050 C 0.07134 0.49982 0.94815 0.0
H1051 H 0.14395 0.46156 0.96218 0.0
H1052 H 0.12393 0.47905 0.97011 0.0
H1053 H 0.11696 0.44953 0.9753 0.0
H1054 H 0.0769 0.4541 0.97937 0.0
H1055 H 0.05836 0.47373 1.00585 0.0
H1056 H 0.59965 0.86813 0.88392 0.0
H1057 H 0.58013 0.89122 0.90602 0.0
H1058 H 0.63123 0.88589 0.96015 0.0
H1059 H 0.65149 0.8635 0.93786 0.0
H1060 H 0.56071 0.88694 0.94788 0.0
H1061 H 0.64286 0.95259 0.94204 0.0
H1062 H 0.63702 0.92826 0.92525 0.0
H1063 H 0.64829 0.92654 0.95328 0.0
C1064 C 0.60636 0.87151 0.9007 0.0
C1065 C 0.62718 0.86444 0.90918 0.0
C1066 C 0.5952 0.88455 0.91323 0.0
C1067 C 0.60471 0.89036 0.93434 0.0
C1068 C 0.62405 0.88161 0.94366 0.0
H1069 H 0.57591 0.9834 1.02553 0.0
H1070 H 0.59144 0.95465 1.00701 0.0
C1071 C 0.63537 0.8687 0.93105 0.0
C1072 C 0.59593 0.90736 0.94567 0.0
H1073 H 0.6128 0.96008 0.964 0.0
C1074 C 0.57201 0.90292 0.95153 0.0
C1075 C 0.61084 0.92824 0.94971 0.0
C1076 C 0.63611 0.93435 0.94206 0.0
C1077 C 0.56267 0.91889 0.96205 0.0
C1078 C 0.57786 0.93943 0.96658 0.0
C1079 C 0.60162 0.94398 0.96057 0.0
C1080 C 0.56931 0.9568 0.97718 0.0
C1081 C 0.53685 0.91376 0.96838 0.0
C1082 C 0.55264 0.96756 0.96586 0.0
C1083 C 0.54388 0.98371 0.97627 0.0
C1084 C 0.55214 0.98922 0.9978 0.0
C1085 C 0.56979 0.97934 1.00873 0.0
C1086 C 0.57834 0.96294 0.99838 0.0
H1087 H 0.52886 0.89582 0.967 0.0
H1088 H 0.53548 0.91895 0.98546 0.0
H1089 H 0.52603 0.92321 0.95737 0.0
H1090 H 0.54612 0.96312 0.94924 0.0
H1091 H 0.53022 0.99146 0.96782 0.0
H1092 H 0.879 0.19673 0.40379 0.0
H1093 H 0.89644 0.16886 0.42529 0.0
H1094 H 0.96754 0.20348 0.41073 0.0
H1095 H 0.94991 0.23166 0.3894 0.0
H1096 H 0.92284 0.14084 0.41116 0.0
H1097 H 0.9763 0.19321 0.47608 0.0
H1098 H 0.95442 0.20325 0.45784 0.0
H1099 H 0.98358 0.20198 0.44858 0.0
C1100 C 0.89837 0.19862 0.40564 0.0
C1101 C 0.91314 0.2165 0.39538 0.0
C1102 C 0.90834 0.18263 0.41778 0.0
C1103 C 0.93335 0.18412 0.41996 0.0
C1104 C 0.94823 0.20216 0.40978 0.0
H1105 H 0.01962 0.09371 0.48103 0.0
H1106 H 1.0048 0.12318 0.46014 0.0
C1107 C 0.93819 0.21824 0.39758 0.0
C1108 C 0.9434 0.16614 0.43203 0.0
H1109 H 0.9802 0.15551 0.47585 0.0
C1110 C 0.93531 0.14409 0.42537 0.0
C1111 C 0.95989 0.17029 0.45045 0.0
C1112 C 0.96894 0.19343 0.45882 0.0
C1113 C 0.94307 0.1262 0.43661 0.0
C1114 C 0.95914 0.13033 0.45525 0.0
C1115 C 0.96767 0.15235 0.46168 0.0
C1116 C 0.96775 0.11205 0.46798 0.0
C1117 C 0.93441 0.10301 0.42822 0.0
C1118 C 0.95185 0.09596 0.47954 0.0
C1119 C 0.96029 0.07895 0.49167 0.0
C1120 C 0.98481 0.0777 0.49241 0.0
C1121 C 1.00059 0.09393 0.48078 0.0
C1122 C 0.99218 0.11092 0.46884 0.0
H1123 H 0.92596 0.10306 0.41134 0.0
H1124 H 0.94952 0.09393 0.42823 0.0
H1125 H 0.92086 0.09378 0.43919 0.0
H1126 H 0.93295 0.09669 0.47938 0.0
H1127 H 0.94763 0.06688 0.5005 0.0
H1128 H 0.23846 0.67087 0.14322 0.0
H1129 H 0.20557 0.65307 0.11812 0.0
H1130 H 0.17004 0.61751 0.17269 0.0
H1131 H 0.20177 0.63614 0.1979 0.0
H1132 H 0.19226 0.60868 0.1108 0.0
H1133 H 0.11489 0.6393 0.14161 0.0
H1134 H 0.1456 0.65176 0.14928 0.0
H1135 H 0.13135 0.62642 0.1625 0.0
C1136 C 0.22334 0.65974 0.14996 0.0
C1137 C 0.22297 0.65486 0.17264 0.0
C1138 C 0.20465 0.64942 0.13556 0.0
C1139 C 0.18521 0.6341 0.14354 0.0
C1140 C 0.18454 0.62959 0.16615 0.0
H1141 H 0.05931 0.54935 0.08301 0.0
H1142 H 0.09227 0.56609 0.10841 0.0
C1143 C 0.20298 0.64005 0.18054 0.0
C1144 C 0.16636 0.62184 0.12819 0.0
H1145 H 0.1058 0.60981 0.11647 0.0
C1146 C 0.17337 0.60908 0.11191 0.0
C1147 C 0.14166 0.62203 0.12991 0.0
C1148 C 0.13291 0.63577 0.14665 0.0
C1149 C 0.15637 0.59644 0.09741 0.0
C1150 C 0.13176 0.59695 0.09894 0.0
C1151 C 0.12471 0.60947 0.11534 0.0
C1152 C 0.113 0.58522 0.08329 0.0
C1153 C 0.16486 0.58225 0.08092 0.0
C1154 C 0.11377 0.59033 0.06074 0.0
C1155 C 0.09524 0.58038 0.04615 0.0
C1156 C 0.07539 0.56552 0.05394 0.0
C1157 C 0.07462 0.56041 0.0765 0.0
C1158 C 0.09334 0.57009 0.09104 0.0
H1159 H 0.18289 0.57874 0.08593 0.0
H1160 H 0.15207 0.56624 0.07874 0.0
H1161 H 0.1662 0.59117 0.06483 0.0
H1162 H 0.12838 0.60249 0.05448 0.0
H1163 H 0.09608 0.58488 1.02888 0.0
H1164 H 0.32047 0.38088 0.6713 0.0
H1165 H 0.353 0.39895 0.6487 0.0
H1166 H 0.34264 0.46306 0.66819 0.0
H1167 H 0.30938 0.44537 0.69006 0.0
H1168 H 0.34711 0.43065 0.61306 0.0
H1169 H 0.41727 0.46667 0.67626 0.0
H1170 H 0.39362 0.44336 0.68219 0.0
H1171 H 0.38721 0.47084 0.67963 0.0
C1172 C 0.3248 0.39883 0.67076 0.0
C1173 C 0.31173 0.41144 0.68258 0.0
C1174 C 0.34372 0.40916 0.65793 0.0
C1175 C 0.35049 0.43239 0.65681 0.0
C1176 C 0.33808 0.4451 0.66901 0.0
H1177 H 0.44834 0.5258 0.57849 0.0
H1178 H 0.41808 0.50742 0.60317 0.0
C1179 C 0.31895 0.43482 0.68164 0.0
C1180 C 0.36912 0.44323 0.6415 0.0
H1181 H 0.42508 0.47602 0.63922 0.0
C1182 C 0.36423 0.44043 0.61881 0.0
C1183 C 0.39139 0.45624 0.64893 0.0
C1184 C 0.39792 0.45944 0.67307 0.0
C1185 C 0.38077 0.45038 0.60343 0.0
C1186 C 0.40311 0.46318 0.61083 0.0
C1187 C 0.40802 0.4661 0.63352 0.0
C1188 C 0.42129 0.47411 0.59522 0.0
C1189 C 0.37396 0.44773 0.57928 0.0
C1190 C 0.43322 0.46154 0.58229 0.0
C1191 C 0.45073 0.47203 0.56806 0.0
C1192 C 0.45664 0.49536 0.56641 0.0
C1193 C 0.44431 0.50782 0.57915 0.0
C1194 C 0.42701 0.49734 0.59344 0.0
H1195 H 0.35461 0.44044 0.57618 0.0
H1196 H 0.37801 0.46404 0.57054 0.0
H1197 H 0.3847 0.43664 0.57222 0.0
H1198 H 0.42929 0.44358 0.5835 0.0
H1199 H 0.45994 0.46187 0.5587 0.0
H1200 H 0.78211 0.69911 0.88415 0.0
H1201 H 0.81404 0.68064 0.90029 0.0
H1202 H 0.82352 0.72444 0.95541 0.0
H1203 H 0.79145 0.74236 0.93974 0.0
H1204 H 0.86174 0.69862 0.91133 0.0
H1205 H 0.81506 0.66413 0.98577 0.0
H1206 H 0.79954 0.67423 0.96209 0.0
H1207 H 0.81643 0.69338 0.9816 0.0
C1208 C 0.79102 0.70463 0.89975 0.0
C1209 C 0.78416 0.72184 0.91095 0.0
C1210 C 0.80915 0.69413 0.90893 0.0
C1211 C 0.82069 0.70088 0.92929 0.0
C1212 C 0.8143 0.71852 0.94006 0.0
H1213 H 0.94001 0.65806 1.00623 0.0
H1214 H 0.91057 0.68055 0.99212 0.0
C1215 C 0.79608 0.72878 0.93107 0.0
C1216 C 0.83991 0.69001 0.93914 0.0
H1217 H 0.8563 0.66225 0.9851 0.0
C1218 C 0.86054 0.69063 0.92742 0.0
C1219 C 0.83829 0.67972 0.96021 0.0
C1220 C 0.81606 0.6776 0.97309 0.0
C1221 C 0.87968 0.68125 0.93629 0.0
C1222 C 0.87798 0.67093 0.95727 0.0
C1223 C 0.85755 0.67053 0.96913 0.0
C1224 C 0.89588 0.65807 0.96595 0.0
C1225 C 0.90158 0.68228 0.92319 0.0
C1226 C 0.89684 0.63805 0.95604 0.0
C1227 C 0.91314 0.62523 0.96416 0.0
C1228 C 0.9288 0.63223 0.98231 0.0
C1229 C 0.92796 0.65236 0.99227 0.0
C1230 C 0.91131 0.66514 0.98425 0.0
H1231 H 0.90241 0.69488 0.90965 0.0
H1232 H 0.91824 0.68622 0.93394 0.0
H1233 H 0.90102 0.66585 0.91588 0.0
H1234 H 0.8849 0.63232 0.94202 0.0
H1235 H 0.9138 0.60996 0.95598 0.0
H1236 H 0.41445 0.85045 0.20099 0.0
H1237 H 0.4332 0.8831 0.1795 0.0
H1238 H 0.41526 0.84612 0.11996 0.0
H1239 H 0.3968 0.81366 0.14111 0.0
H1240 H 0.4707 0.88887 0.15077 0.0
H1241 H 0.38641 0.90096 0.10557 0.0
H1242 H 0.38658 0.88353 0.12992 0.0
H1243 H 0.39246 0.87346 0.10383 0.0
C1244 C 0.41467 0.84924 0.18335 0.0
C1245 C 0.4037 0.82948 0.17279 0.0
C1246 C 0.42527 0.86795 0.17106 0.0
C1247 C 0.42503 0.86728 0.14801 0.0
C1248 C 0.41498 0.84733 0.13761 0.0
H1249 H 0.48509 0.96291 0.04583 0.0
H1250 H 0.4642 0.9295 0.06512 0.0
C1251 C 0.40446 0.82872 0.14979 0.0
C1252 C 0.43565 0.88718 0.13475 0.0
H1253 H 0.42273 0.92253 0.09323 0.0
C1254 C 0.46016 0.89628 0.13829 0.0
C1255 C 0.42197 0.89677 0.11827 0.0
C1256 C 0.39535 0.88834 0.11425 0.0
C1257 C 0.47139 0.9145 0.12572 0.0
C1258 C 0.45769 0.92419 0.10939 0.0
C1259 C 0.43323 0.91502 0.10567 0.0
C1260 C 0.46835 0.94464 0.09704 0.0
C1261 C 0.49797 0.92309 0.12979 0.0
C1262 C 0.47684 0.96436 0.1084 0.0
C1263 C 0.48861 0.9833 0.0975 0.0
C1264 C 0.49208 0.98304 0.07492 0.0
C1265 C 0.48271 0.96357 0.06325 0.0
C1266 C 0.47082 0.94451 0.07425 0.0
H1267 H 0.50696 0.91066 0.13874 0.0
H1268 H 0.50678 0.92768 0.11409 0.0
H1269 H 0.50073 0.93818 0.13991 0.0
H1270 H 0.47473 0.96499 0.12588 0.0
H1271 H 0.49541 0.99809 0.1069 0.0
H1272 H 0.09419 0.22578 0.6891 0.0
H1273 H 0.07823 0.1931 0.6674 0.0
H1274 H 0.14697 0.19753 0.63964 0.0
H1275 H 0.16365 0.22943 0.66243 0.0
H1276 H 0.07127 0.18752 0.62514 0.0
H1277 H 0.13415 0.13274 0.65356 0.0
H1278 H 0.13221 0.15765 0.66769 0.0
H1279 H 0.14897 0.15926 0.64339 0.0
C1280 C 0.1063 0.21967 0.67886 0.0
C1281 C 0.13055 0.23063 0.67801 0.0
C1282 C 0.09692 0.20088 0.66613 0.0
C1283 C 0.11128 0.1922 0.6519 0.0
C1284 C 0.13541 0.20319 0.65078 0.0
H1285 H 0.07048 0.07984 0.55721 0.0
H1286 H 0.09296 0.11302 0.57655 0.0
C1287 C 0.1449 0.22192 0.66368 0.0
C1288 C 0.10059 0.17242 0.63771 0.0
H1289 H 0.10726 0.12024 0.62334 0.0
C1290 C 0.07927 0.17288 0.62485 0.0
C1291 C 0.11071 0.153 0.637 0.0
C1292 C 0.13262 0.15044 0.65129 0.0
C1293 C 0.06804 0.15494 0.6115 0.0
C1294 C 0.07804 0.13548 0.61084 0.0
C1295 C 0.09956 0.13507 0.62344 0.0
C1296 C 0.06513 0.11491 0.59879 0.0
C1297 C 0.04545 0.15709 0.59804 0.0
C1298 C 0.04217 0.10441 0.60481 0.0
C1299 C 0.0294 0.08566 0.59378 0.0
C1300 C 0.03893 0.07634 0.57623 0.0
C1301 C 0.06222 0.08651 0.57032 0.0
C1302 C 0.07519 0.10551 0.58153 0.0
H1303 H 0.04382 0.17474 0.59546 0.0
H1304 H 0.04498 0.14933 0.58179 0.0
H1305 H 0.0296 0.14853 0.60681 0.0
H1306 H 0.03399 0.1107 0.61824 0.0
H1307 H 1.01171 0.07844 0.59915 0.0
H1308 H 0.76449 0.3731 0.41705 0.0
H1309 H 0.73555 0.39319 0.4306 0.0
H1310 H 0.71229 0.40756 0.36419 0.0
H1311 H 0.74188 0.38778 0.35027 0.0
H1312 H 0.73068 0.43836 0.42282 0.0
H1313 H 0.64953 0.3779 0.39408 0.0
H1314 H 0.67915 0.37117 0.39625 0.0
H1315 H 0.67085 0.38815 0.37376 0.0
C1316 C 0.75359 0.3808 0.40518 0.0
C1317 C 0.75584 0.37888 0.38248 0.0
C1318 C 0.73687 0.3922 0.41303 0.0
C1319 C 0.7216 0.40179 0.39848 0.0
C1320 C 0.72368 0.40005 0.37577 0.0
H1321 H 0.60575 0.47101 0.42729 0.0
H1322 H 0.63625 0.45618 0.40898 0.0
C1323 C 0.74059 0.38868 0.36783 0.0
C1324 C 0.70349 0.41333 0.40737 0.0
H1325 H 0.6431 0.40941 0.41219 0.0
C1326 C 0.71153 0.4321 0.42038 0.0
C1327 C 0.67849 0.40509 0.40437 0.0
C1328 C 0.66884 0.38437 0.39151 0.0
C1329 C 0.69528 0.4428 0.4304 0.0
C1330 C 0.6703 0.43444 0.42753 0.0
C1331 C 0.66224 0.41589 0.41428 0.0
C1332 C 0.65229 0.44419 0.4388 0.0
C1333 C 0.70489 0.46302 0.44397 0.0
C1334 C 0.65102 0.44228 0.46168 0.0
C1335 C 0.63328 0.45035 0.47223 0.0
C1336 C 0.61638 0.46071 0.46019 0.0
C1337 C 0.61804 0.46288 0.43722 0.0
C1338 C 0.63563 0.45454 0.42667 0.0
H1339 H 0.72405 0.46993 0.4411 0.0
H1340 H 0.69418 0.47613 0.44022 0.0
H1341 H 0.70346 0.45845 0.46164 0.0
H1342 H 0.66341 0.43403 0.47137 0.0
H1343 H 0.63246 0.44781 0.48981 0.0
loop_
_geom_bond_atom_site_label_1
_geom_bond_atom_site_label_2
_geom_bond_distance
_geom_bond_site_symmetry_2
_ccdc_geom_bond_type
C0 C1 1.264 . S
C0 C5 1.479 . S
C0 C10 1.465 . S
C1 C0 1.264 . S
C1 C3 1.339 . S
C1 H28 0.931 . S
C2 C3 1.395 . S
C2 C4 1.320 . S
C3 C1 1.339 . S
C3 C2 1.395 . S
C3 H29 0.929 . S
C4 C2 1.320 . S
C4 C5 1.405 . S
C4 H30 0.930 . S
C5 C0 1.479 . S
C5 C4 1.405 . S
C5 H31 0.931 . S
U6 O7 2.454 . S
U6 O8 2.458 . S
U6 C9 2.984 . S
U6 C10 2.847 . S
U6 C23 2.882 . S
U6 O24 2.441 . S
U6 O25 2.420 . S
U6 O26 2.455 . S
U6 O27 2.449 . S
O7 U6 2.454 . S
O7 C9 1.353 . S
O8 U6 2.458 . S
O8 C9 1.286 . S
C9 U6 2.984 . S
C9 O7 1.353 . S
C9 O8 1.286 . S
C9 C11 1.363 . S
C10 C0 1.465 . S
C10 U6 2.847 . S
C10 O24 1.249 . S
C10 O25 1.202 . S
C11 C9 1.363 . S
C11 C13 1.408 . S
C11 C16 1.342 . S
C12 C13 1.310 . S
C12 C15 1.461 . S
C12 H32 0.932 . S
C13 C11 1.408 . S
C13 C12 1.310 . S
C13 H33 0.930 . S
C14 C15 1.474 . S
C14 C16 1.285 . S
C14 H34 0.929 . S
C15 C12 1.461 . S
C15 C14 1.474 . S
C16 C11 1.342 . S
C16 C14 1.285 . S
C16 H35 0.930 . S
C17 C20 1.424 . S
C17 C22 1.245 . S
C17 C23 1.428 . S
C18 C21 1.260 . S
C18 C22 1.477 . S
C18 H36 0.932 . S
C19 C20 1.384 . S
C19 C21 1.479 . S
C19 H37 0.929 . S
C20 C17 1.424 . S
C20 C19 1.384 . S
C20 H38 0.928 . S
C21 C18 1.260 . S
C21 C19 1.479 . S
C22 C17 1.245 . S
C22 C18 1.477 . S
C22 H39 0.932 . S
C23 U6 2.882 . S
C23 C17 1.428 . S
C23 O26 1.301 . S
C23 O27 1.282 . S
O24 U6 2.441 . S
O24 C10 1.249 . S
O25 U6 2.420 . S
O25 C10 1.202 . S
O26 U6 2.455 . S
O26 C23 1.301 . S
O27 U6 2.449 . S
O27 C23 1.282 . S
H28 C1 0.931 . S
H29 C3 0.929 . S
H30 C4 0.930 . S
H31 C5 0.931 . S
H32 C12 0.932 . S
H33 C13 0.930 . S
H34 C14 0.929 . S
H35 C16 0.930 . S
H36 C18 0.932 . S
H37 C19 0.929 . S
H38 C20 0.928 . S
H39 C22 0.932 . S
C40 C41 1.264 . S
C40 C45 1.479 . S
C40 C50 1.465 . S
C41 C40 1.264 . S
C41 C43 1.339 . S
C41 H68 0.931 . S
C42 C43 1.395 . S
C42 C44 1.320 . S
C43 C41 1.339 . S
C43 C42 1.395 . S
C43 H69 0.929 . S
C44 C42 1.320 . S
C44 C45 1.405 . S
C44 H70 0.930 . S
C45 C40 1.479 . S
C45 C44 1.405 . S
C45 H71 0.931 . S
U46 O47 2.454 . S
U46 O48 2.458 . S
U46 C49 2.984 . S
U46 C50 2.847 . S
U46 C63 2.882 . S
U46 O64 2.441 . S
U46 O65 2.420 . S
U46 O66 2.455 . S
U46 O67 2.449 . S
O47 U46 2.454 . S
O47 C49 1.353 . S
O48 U46 2.458 . S
O48 C49 1.286 . S
C49 U46 2.984 . S
C49 O47 1.353 . S
C49 O48 1.286 . S
C49 C51 1.363 . S
C50 C40 1.465 . S
C50 U46 2.847 . S
C50 O64 1.249 . S
C50 O65 1.202 . S
C51 C49 1.363 . S
C51 C53 1.408 . S
C51 C56 1.342 . S
C52 C53 1.310 . S
C52 C55 1.461 . S
C52 H72 0.932 . S
C53 C51 1.408 . S
C53 C52 1.310 . S
C53 H73 0.930 . S
C54 C55 1.474 . S
C54 C56 1.285 . S
C54 H74 0.929 . S
C55 C52 1.461 . S
C55 C54 1.474 . S
C56 C51 1.342 . S
C56 C54 1.285 . S
C56 H75 0.930 . S
C57 C60 1.424 . S
C57 C62 1.245 . S
C57 C63 1.428 . S
C58 C61 1.260 . S
C58 C62 1.477 . S
C58 H76 0.932 . S
C59 C60 1.384 . S
C59 C61 1.479 . S
C59 H77 0.929 . S
C60 C57 1.424 . S
C60 C59 1.384 . S
C60 H78 0.928 . S
C61 C58 1.260 . S
C61 C59 1.479 . S
C62 C57 1.245 . S
C62 C58 1.477 . S
C62 H79 0.932 . S
C63 U46 2.882 . S
C63 C57 1.428 . S
C63 O66 1.301 . S
C63 O67 1.282 . S
O64 U46 2.441 . S
O64 C50 1.249 . S
O65 U46 2.420 . S
O65 C50 1.202 . S
O66 U46 2.455 . S
O66 C63 1.301 . S
O67 U46 2.449 . S
O67 C63 1.282 . S
H68 C41 0.931 . S
H69 C43 0.929 . S
H70 C44 0.930 . S
H71 C45 0.931 . S
H72 C52 0.932 . S
H73 C53 0.930 . S
H74 C54 0.929 . S
H75 C56 0.930 . S
H76 C58 0.932 . S
H77 C59 0.929 . S
H78 C60 0.928 . S
H79 C62 0.932 . S
C80 C81 1.264 . S
C80 C85 1.479 . S
C80 C90 1.465 . S
C81 C80 1.264 . S
C81 C83 1.339 . S
C81 H108 0.931 . S
C82 C83 1.395 . S
C82 C84 1.320 . S
C83 C81 1.339 . S
C83 C82 1.395 . S
C83 H109 0.929 . S
C84 C82 1.320 . S
C84 C85 1.405 . S
C84 H110 0.930 . S
C85 C80 1.479 . S
C85 C84 1.405 . S
C85 H111 0.931 . S
U86 O87 2.454 . S
U86 O88 2.458 . S
U86 C89 2.984 . S
U86 C90 2.847 . S
U86 C103 2.882 . S
U86 O104 2.441 . S
U86 O105 2.420 . S
U86 O106 2.455 . S
U86 O107 2.449 . S
O87 U86 2.454 . S
O87 C89 1.353 . S
O88 U86 2.458 . S
O88 C89 1.286 . S
C89 U86 2.984 . S
C89 O87 1.353 . S
C89 O88 1.286 . S
C89 C91 1.363 . S
C90 C80 1.465 . S
C90 U86 2.847 . S
C90 O104 1.249 . S
C90 O105 1.202 . S
C91 C89 1.363 . S
C91 C93 1.408 . S
C91 C96 1.342 . S
C92 C93 1.310 . S
C92 C95 1.461 . S
C92 H112 0.932 . S
C93 C91 1.408 . S
C93 C92 1.310 . S
C93 H113 0.930 . S
C94 C95 1.474 . S
C94 C96 1.285 . S
C94 H114 0.929 . S
C95 C92 1.461 . S
C95 C94 1.474 . S
C96 C91 1.342 . S
C96 C94 1.285 . S
C96 H115 0.930 . S
C97 C100 1.424 . S
C97 C102 1.245 . S
C97 C103 1.428 . S
C98 C101 1.260 . S
C98 C102 1.477 . S
C98 H116 0.932 . S
C99 C100 1.384 . S
C99 C101 1.479 . S
C99 H117 0.929 . S
C100 C97 1.424 . S
C100 C99 1.384 . S
C100 H118 0.928 . S
C101 C98 1.260 . S
C101 C99 1.479 . S
C102 C97 1.245 . S
C102 C98 1.477 . S
C102 H119 0.932 . S
C103 U86 2.882 . S
C103 C97 1.428 . S
C103 O106 1.301 . S
C103 O107 1.282 . S
O104 U86 2.441 . S
O104 C90 1.249 . S
O105 U86 2.420 . S
O105 C90 1.202 . S
O106 U86 2.455 . S
O106 C103 1.301 . S
O107 U86 2.449 . S
O107 C103 1.282 . S
H108 C81 0.931 . S
H109 C83 0.929 . S
H110 C84 0.930 . S
H111 C85 0.931 . S
H112 C92 0.932 . S
H113 C93 0.930 . S
H114 C94 0.929 . S
H115 C96 0.930 . S
H116 C98 0.932 . S
H117 C99 0.929 . S
H118 C100 0.928 . S
H119 C102 0.932 . S
C120 C121 1.264 . S
C120 C125 1.479 . S
C120 C130 1.465 . S
C121 C120 1.264 . S
C121 C123 1.339 . S
C121 H148 0.931 . S
C122 C123 1.395 . S
C122 C124 1.320 . S
C123 C121 1.339 . S
C123 C122 1.395 . S
C123 H149 0.929 . S
C124 C122 1.320 . S
C124 C125 1.405 . S
C124 H150 0.930 . S
C125 C120 1.479 . S
C125 C124 1.405 . S
C125 H151 0.931 . S
U126 O127 2.454 . S
U126 O128 2.458 . S
U126 C129 2.984 . S
U126 C130 2.847 . S
U126 C143 2.882 . S
U126 O144 2.441 . S
U126 O145 2.420 . S
U126 O146 2.455 . S
U126 O147 2.449 . S
O127 U126 2.454 . S
O127 C129 1.353 . S
O128 U126 2.458 . S
O128 C129 1.286 . S
C129 U126 2.984 . S
C129 O127 1.353 . S
C129 O128 1.286 . S
C129 C131 1.363 . S
C130 C120 1.465 . S
C130 U126 2.847 . S
C130 O144 1.249 . S
C130 O145 1.202 . S
C131 C129 1.363 . S
C131 C133 1.408 . S
C131 C136 1.342 . S
C132 C133 1.310 . S
C132 C135 1.461 . S
C132 H152 0.932 . S
C133 C131 1.408 . S
C133 C132 1.310 . S
C133 H153 0.930 . S
C134 C135 1.474 . S
C134 C136 1.285 . S
C134 H154 0.929 . S
C135 C132 1.461 . S
C135 C134 1.474 . S
C136 C131 1.342 . S
C136 C134 1.285 . S
C136 H155 0.930 . S
C137 C140 1.424 . S
C137 C142 1.245 . S
C137 C143 1.428 . S
C138 C141 1.260 . S
C138 C142 1.477 . S
C138 H156 0.932 . S
C139 C140 1.384 . S
C139 C141 1.479 . S
C139 H157 0.929 . S
C140 C137 1.424 . S
C140 C139 1.384 . S
C140 H158 0.928 . S
C141 C138 1.260 . S
C141 C139 1.479 . S
C142 C137 1.245 . S
C142 C138 1.477 . S
C142 H159 0.932 . S
C143 U126 2.882 . S
C143 C137 1.428 . S
C143 O146 1.301 . S
C143 O147 1.282 . S
O144 U126 2.441 . S
O144 C130 1.249 . S
O145 U126 2.420 . S
O145 C130 1.202 . S
O146 U126 2.455 . S
O146 C143 1.301 . S
O147 U126 2.449 . S
O147 C143 1.282 . S
H148 C121 0.931 . S
H149 C123 0.929 . S
H150 C124 0.930 . S
H151 C125 0.931 . S
H152 C132 0.932 . S
H153 C133 0.930 . S
H154 C134 0.929 . S
H155 C136 0.930 . S
H156 C138 0.932 . S
H157 C139 0.929 . S
H158 C140 0.928 . S
H159 C142 0.932 . S
C160 C161 1.264 . S
C160 C165 1.479 . S
C160 C170 1.465 . S
C161 C160 1.264 . S
C161 C163 1.339 . S
C161 H188 0.931 . S
C162 C163 1.395 . S
C162 C164 1.320 . S
C163 C161 1.339 . S
C163 C162 1.395 . S
C163 H189 0.929 . S
C164 C162 1.320 . S
C164 C165 1.405 . S
C164 H190 0.930 . S
C165 C160 1.479 . S
C165 C164 1.405 . S
C165 H191 0.931 . S
U166 O167 2.454 . S
U166 O168 2.458 . S
U166 C169 2.984 . S
U166 C170 2.847 . S
U166 C183 2.882 . S
U166 O184 2.441 . S
U166 O185 2.420 . S
U166 O186 2.455 . S
U166 O187 2.449 . S
O167 U166 2.454 . S
O167 C169 1.353 . S
O168 U166 2.458 . S
O168 C169 1.286 . S
C169 U166 2.984 . S
C169 O167 1.353 . S
C169 O168 1.286 . S
C169 C171 1.363 . S
C170 C160 1.465 . S
C170 U166 2.847 . S
C170 O184 1.249 . S
C170 O185 1.202 . S
C171 C169 1.363 . S
C171 C173 1.408 . S
C171 C176 1.342 . S
C172 C173 1.310 . S
C172 C175 1.461 . S
C172 H192 0.932 . S
C173 C171 1.408 . S
C173 C172 1.310 . S
C173 H193 0.930 . S
C174 C175 1.474 . S
C174 C176 1.285 . S
C174 H194 0.929 . S
C175 C172 1.461 . S
C175 C174 1.474 . S
C176 C171 1.342 . S
C176 C174 1.285 . S
C176 H195 0.930 . S
C177 C180 1.424 . S
C177 C182 1.245 . S
C177 C183 1.428 . S
C178 C181 1.260 . S
C178 C182 1.477 . S
C178 H196 0.932 . S
C179 C180 1.384 . S
C179 C181 1.479 . S
C179 H197 0.929 . S
C180 C177 1.424 . S
C180 C179 1.384 . S
C180 H198 0.928 . S
C181 C178 1.260 . S
C181 C179 1.479 . S
C182 C177 1.245 . S
C182 C178 1.477 . S
C182 H199 0.932 . S
C183 U166 2.882 . S
C183 C177 1.428 . S
C183 O186 1.301 . S
C183 O187 1.282 . S
O184 U166 2.441 . S
O184 C170 1.249 . S
O185 U166 2.420 . S
O185 C170 1.202 . S
O186 U166 2.455 . S
O186 C183 1.301 . S
O187 U166 2.449 . S
O187 C183 1.282 . S
H188 C161 0.931 . S
H189 C163 0.929 . S
H190 C164 0.930 . S
H191 C165 0.931 . S
H192 C172 0.932 . S
H193 C173 0.930 . S
H194 C174 0.929 . S
H195 C176 0.930 . S
H196 C178 0.932 . S
H197 C179 0.929 . S
H198 C180 0.928 . S
H199 C182 0.932 . S
C200 C201 1.264 . S
C200 C205 1.479 . S
C200 C210 1.465 . S
C201 C200 1.264 . S
C201 C203 1.339 . S
C201 H228 0.931 . S
C202 C203 1.395 . S
C202 C204 1.320 . S
C203 C201 1.339 . S
C203 C202 1.395 . S
C203 H229 0.929 . S
C204 C202 1.320 . S
C204 C205 1.405 . S
C204 H230 0.930 . S
C205 C200 1.479 . S
C205 C204 1.405 . S
C205 H231 0.931 . S
U206 O207 2.454 . S
U206 O208 2.458 . S
U206 C209 2.984 . S
U206 C210 2.847 . S
U206 C223 2.882 . S
U206 O224 2.441 . S
U206 O225 2.420 . S
U206 O226 2.455 . S
U206 O227 2.449 . S
O207 U206 2.454 . S
O207 C209 1.353 . S
O208 U206 2.458 . S
O208 C209 1.286 . S
C209 U206 2.984 . S
C209 O207 1.353 . S
C209 O208 1.286 . S
C209 C211 1.363 . S
C210 C200 1.465 . S
C210 U206 2.847 . S
C210 O224 1.249 . S
C210 O225 1.202 . S
C211 C209 1.363 . S
C211 C213 1.408 . S
C211 C216 1.342 . S
C212 C213 1.310 . S
C212 C215 1.461 . S
C212 H232 0.932 . S
C213 C211 1.408 . S
C213 C212 1.310 . S
C213 H233 0.930 . S
C214 C215 1.474 . S
C214 C216 1.285 . S
C214 H234 0.929 . S
C215 C212 1.461 . S
C215 C214 1.474 . S
C216 C211 1.342 . S
C216 C214 1.285 . S
C216 H235 0.930 . S
C217 C220 1.424 . S
C217 C222 1.245 . S
C217 C223 1.428 . S
C218 C221 1.260 . S
C218 C222 1.477 . S
C218 H236 0.932 . S
C219 C220 1.384 . S
C219 C221 1.479 . S
C219 H237 0.929 . S
C220 C217 1.424 . S
C220 C219 1.384 . S
C220 H238 0.928 . S
C221 C218 1.260 . S
C221 C219 1.479 . S
C222 C217 1.245 . S
C222 C218 1.477 . S
C222 H239 0.932 . S
C223 U206 2.882 . S
C223 C217 1.428 . S
C223 O226 1.301 . S
C223 O227 1.282 . S
O224 U206 2.441 . S
O224 C210 1.249 . S
O225 U206 2.420 . S
O225 C210 1.202 . S
O226 U206 2.455 . S
O226 C223 1.301 . S
O227 U206 2.449 . S
O227 C223 1.282 . S
H228 C201 0.931 . S
H229 C203 0.929 . S
H230 C204 0.930 . S
H231 C205 0.931 . S
H232 C212 0.932 . S
H233 C213 0.930 . S
H234 C214 0.929 . S
H235 C216 0.930 . S
H236 C218 0.932 . S
H237 C219 0.929 . S
H238 C220 0.928 . S
H239 C222 0.932 . S
C240 C241 1.264 . S
C240 C245 1.479 . S
C240 C250 1.465 . S
C241 C240 1.264 . S
C241 C243 1.339 . S
C241 H268 0.931 . S
C242 C243 1.395 . S
C242 C244 1.320 . S
C243 C241 1.339 . S
C243 C242 1.395 . S
C243 H269 0.929 . S
C244 C242 1.320 . S
C244 C245 1.405 . S
C244 H270 0.930 . S
C245 C240 1.479 . S
C245 C244 1.405 . S
C245 H271 0.931 . S
U246 O247 2.454 . S
U246 O248 2.458 . S
U246 C249 2.984 . S
U246 C250 2.847 . S
U246 C263 2.882 . S
U246 O264 2.441 . S
U246 O265 2.420 . S
U246 O266 2.455 . S
U246 O267 2.449 . S
O247 U246 2.454 . S
O247 C249 1.353 . S
O248 U246 2.458 . S
O248 C249 1.286 . S
C249 U246 2.984 . S
C249 O247 1.353 . S
C249 O248 1.286 . S
C249 C251 1.363 . S
C250 C240 1.465 . S
C250 U246 2.847 . S
C250 O264 1.249 . S
C250 O265 1.202 . S
C251 C249 1.363 . S
C251 C253 1.408 . S
C251 C256 1.342 . S
C252 C253 1.310 . S
C252 C255 1.461 . S
C252 H272 0.932 . S
C253 C251 1.408 . S
C253 C252 1.310 . S
C253 H273 0.930 . S
C254 C255 1.474 . S
C254 C256 1.285 . S
C254 H274 0.929 . S
C255 C252 1.461 . S
C255 C254 1.474 . S
C256 C251 1.342 . S
C256 C254 1.285 . S
C256 H275 0.930 . S
C257 C260 1.424 . S
C257 C262 1.245 . S
C257 C263 1.428 . S
C258 C261 1.260 . S
C258 C262 1.477 . S
C258 H276 0.932 . S
C259 C260 1.384 . S
C259 C261 1.479 . S
C259 H277 0.929 . S
C260 C257 1.424 . S
C260 C259 1.384 . S
C260 H278 0.928 . S
C261 C258 1.260 . S
C261 C259 1.479 . S
C262 C257 1.245 . S
C262 C258 1.477 . S
C262 H279 0.932 . S
C263 U246 2.882 . S
C263 C257 1.428 . S
C263 O266 1.301 . S
C263 O267 1.282 . S
O264 U246 2.441 . S
O264 C250 1.249 . S
O265 U246 2.420 . S
O265 C250 1.202 . S
O266 U246 2.455 . S
O266 C263 1.301 . S
O267 U246 2.449 . S
O267 C263 1.282 . S
H268 C241 0.931 . S
H269 C243 0.929 . S
H270 C244 0.930 . S
H271 C245 0.931 . S
H272 C252 0.932 . S
H273 C253 0.930 . S
H274 C254 0.929 . S
H275 C256 0.930 . S
H276 C258 0.932 . S
H277 C259 0.929 . S
H278 C260 0.928 . S
H279 C262 0.932 . S
C280 C281 1.264 . S
C280 C285 1.479 . S
C280 C290 1.465 . S
C281 C280 1.264 . S
C281 C283 1.339 . S
C281 H308 0.931 . S
C282 C283 1.395 . S
C282 C284 1.320 . S
C283 C281 1.339 . S
C283 C282 1.395 . S
C283 H309 0.929 . S
C284 C282 1.320 . S
C284 C285 1.405 . S
C284 H310 0.930 . S
C285 C280 1.479 . S
C285 C284 1.405 . S
C285 H311 0.931 . S
U286 O287 2.454 . S
U286 O288 2.458 . S
U286 C289 2.984 . S
U286 C290 2.847 . S
U286 C303 2.882 . S
U286 O304 2.441 . S
U286 O305 2.420 . S
U286 O306 2.455 . S
U286 O307 2.449 . S
O287 U286 2.454 . S
O287 C289 1.353 . S
O288 U286 2.458 . S
O288 C289 1.286 . S
C289 U286 2.984 . S
C289 O287 1.353 . S
C289 O288 1.286 . S
C289 C291 1.363 . S
C290 C280 1.465 . S
C290 U286 2.847 . S
C290 O304 1.249 . S
C290 O305 1.202 . S
C291 C289 1.363 . S
C291 C293 1.408 . S
C291 C296 1.342 . S
C292 C293 1.310 . S
C292 C295 1.461 . S
C292 H312 0.932 . S
C293 C291 1.408 . S
C293 C292 1.310 . S
C293 H313 0.930 . S
C294 C295 1.474 . S
C294 C296 1.285 . S
C294 H314 0.929 . S
C295 C292 1.461 . S
C295 C294 1.474 . S
C296 C291 1.342 . S
C296 C294 1.285 . S
C296 H315 0.930 . S
C297 C300 1.424 . S
C297 C302 1.245 . S
C297 C303 1.428 . S
C298 C301 1.260 . S
C298 C302 1.477 . S
C298 H316 0.932 . S
C299 C300 1.384 . S
C299 C301 1.479 . S
C299 H317 0.929 . S
C300 C297 1.424 . S
C300 C299 1.384 . S
C300 H318 0.928 . S
C301 C298 1.260 . S
C301 C299 1.479 . S
C302 C297 1.245 . S
C302 C298 1.477 . S
C302 H319 0.932 . S
C303 U286 2.882 . S
C303 C297 1.428 . S
C303 O306 1.301 . S
C303 O307 1.282 . S
O304 U286 2.441 . S
O304 C290 1.249 . S
O305 U286 2.420 . S
O305 C290 1.202 . S
O306 U286 2.455 . S
O306 C303 1.301 . S
O307 U286 2.449 . S
O307 C303 1.282 . S
H308 C281 0.931 . S
H309 C283 0.929 . S
H310 C284 0.930 . S
H311 C285 0.931 . S
H312 C292 0.932 . S
H313 C293 0.930 . S
H314 C294 0.929 . S
H315 C296 0.930 . S
H316 C298 0.932 . S
H317 C299 0.929 . S
H318 C300 0.928 . S
H319 C302 0.932 . S
Tb320 C322 2.809 1_545 S
Tb320 O340 2.484 1_545 S
Tb320 O341 2.440 1_545 S
Tb320 O342 2.658 1_655 S
Tb320 O343 2.398 1_655 S
Tb320 O344 2.378 1_645 S
Tb320 O348 2.325 1_545 S
Tb320 O351 2.341 . S
Tb321 C331 2.809 . S
Tb321 O342 2.325 . S
Tb321 O345 2.341 1_545 S
Tb321 O346 2.484 . S
Tb321 O347 2.440 . S
Tb321 O348 2.658 1_445 S
Tb321 O349 2.409 1_545 S
Tb321 O350 2.378 1_455 S
C322 Tb320 2.809 1_565 S
C322 C323 1.514 . S
C322 O340 1.248 . S
C322 O341 1.266 . S
C323 C322 1.514 . S
C323 C324 1.359 . S
C323 C328 1.348 . S
C324 C323 1.359 . S
C324 C325 1.380 . S
C324 H352 0.929 . S
C325 C324 1.380 . S
C325 C326 1.347 . S
C325 H353 0.931 . S
C326 C325 1.347 . S
C326 C327 1.369 . S
C327 C326 1.369 . S
C327 C328 1.408 . S
C327 H354 0.930 . S
C328 C323 1.348 . S
C328 C327 1.408 . S
C328 H355 0.930 . S
C329 O342 1.281 . S
C329 O343 1.273 . S
C330 O344 1.236 . S
C330 O345 1.266 . S
C331 Tb321 2.809 . S
C331 C332 1.514 . S
C331 O346 1.248 . S
C331 O347 1.266 . S
C332 C331 1.514 . S
C332 C333 1.359 . S
C332 C337 1.348 . S
C333 C332 1.359 . S
C333 C334 1.380 . S
C333 H356 0.929 . S
C334 C333 1.380 . S
C334 C335 1.347 . S
C334 H357 0.931 . S
C335 C334 1.347 . S
C335 C336 1.369 . S
C336 C335 1.369 . S
C336 C337 1.408 . S
C336 H358 0.930 . S
C337 C332 1.348 . S
C337 C336 1.408 . S
C337 H359 0.930 . S
C338 O348 1.281 . S
C338 O349 1.254 1_655 S
C339 O350 1.236 . S
C339 O351 1.266 . S
O340 Tb320 2.484 1_565 S
O340 C322 1.248 . S
O341 Tb320 2.440 1_565 S
O341 C322 1.266 . S
O342 Tb320 2.658 1_455 S
O342 Tb321 2.325 . S
O342 C329 1.281 . S
O343 Tb320 2.398 1_455 S
O343 C329 1.273 . S
O344 Tb320 2.378 1_465 S
O344 C330 1.236 . S
O345 Tb321 2.341 1_565 S
O345 C330 1.266 . S
O346 Tb321 2.484 . S
O346 C331 1.248 . S
O347 Tb321 2.440 . S
O347 C331 1.266 . S
O348 Tb320 2.325 1_565 S
O348 Tb321 2.658 1_665 S
O348 C338 1.281 . S
O349 Tb321 2.409 1_565 S
O349 C338 1.254 1_455 S
O350 Tb321 2.378 1_655 S
O350 C339 1.236 . S
O351 Tb320 2.341 . S
O351 C339 1.266 . S
H352 C324 0.929 . S
H353 C325 0.931 . S
H354 C327 0.930 . S
H355 C328 0.930 . S
H356 C333 0.929 . S
H357 C334 0.931 . S
H358 C336 0.930 . S
H359 C337 0.930 . S
Tb360 C362 2.809 . S
Tb360 O380 2.484 . S
Tb360 O381 2.440 . S
Tb360 O382 2.658 1_545 S
Tb360 O383 2.409 1_545 S
Tb360 O384 2.378 . S
Tb360 O388 2.325 1_554 S
Tb360 O391 2.341 1_544 S
Tb361 C371 2.809 . S
Tb361 O382 2.325 1_556 S
Tb361 O385 2.341 1_566 S
Tb361 O386 2.484 . S
Tb361 O387 2.440 . S
Tb361 O388 2.658 1_565 S
Tb361 O389 2.409 1_565 S
Tb361 O390 2.378 . S
C362 Tb360 2.809 . S
C362 C363 1.514 . S
C362 O380 1.248 . S
C362 O381 1.266 . S
C363 C362 1.514 . S
C363 C364 1.359 . S
C363 C368 1.348 . S
C364 C363 1.359 . S
C364 C365 1.380 . S
C364 H392 0.929 . S
C365 C364 1.380 . S
C365 C366 1.347 . S
C365 H393 0.931 . S
C366 C365 1.347 . S
C366 C367 1.369 . S
C367 C366 1.369 . S
C367 C368 1.408 . S
C367 H394 0.930 . S
C368 C363 1.348 . S
C368 C367 1.408 . S
C368 H395 0.930 . S
C369 O382 1.281 . S
C369 O383 1.254 . S
C370 O384 1.236 . S
C370 O385 1.266 . S
C371 Tb361 2.809 . S
C371 C372 1.514 . S
C371 O386 1.248 . S
C371 O387 1.266 . S
C372 C371 1.514 . S
C372 C373 1.359 . S
C372 C377 1.348 . S
C373 C372 1.359 . S
C373 C374 1.380 . S
C373 H396 0.929 . S
C374 C373 1.380 . S
C374 C375 1.347 . S
C374 H397 0.931 . S
C375 C374 1.347 . S
C375 C376 1.369 . S
C376 C375 1.369 . S
C376 C377 1.408 . S
C376 H398 0.930 . S
C377 C372 1.348 . S
C377 C376 1.408 . S
C377 H399 0.930 . S
C378 O388 1.281 . S
C378 O389 1.254 . S
C379 O390 1.236 . S
C379 O391 1.266 . S
O380 Tb360 2.484 . S
O380 C362 1.248 . S
O381 Tb360 2.440 . S
O381 C362 1.266 . S
O382 Tb360 2.658 1_565 S
O382 Tb361 2.325 1_554 S
O382 C369 1.281 . S
O383 Tb360 2.409 1_565 S
O383 C369 1.254 . S
O384 Tb360 2.378 . S
O384 C370 1.236 . S
O385 Tb361 2.341 1_544 S
O385 C370 1.266 . S
O386 Tb361 2.484 . S
O386 C371 1.248 . S
O387 Tb361 2.440 . S
O387 C371 1.266 . S
O388 Tb360 2.325 1_556 S
O388 Tb361 2.658 1_545 S
O388 C378 1.281 . S
O389 Tb361 2.409 1_545 S
O389 C378 1.254 . S
O390 Tb361 2.378 . S
O390 C379 1.236 . S
O391 Tb360 2.341 1_566 S
O391 C379 1.266 . S
H392 C364 0.929 . S
H393 C365 0.931 . S
H394 C367 0.930 . S
H395 C368 0.930 . S
H396 C373 0.929 . S
H397 C374 0.931 . S
H398 C376 0.930 . S
H399 C377 0.930 . S
Tb400 C402 2.809 . S
Tb400 O420 2.484 . S
Tb400 O421 2.440 . S
Tb400 O422 2.658 . S
Tb400 O423 2.409 . S
Tb400 O424 2.378 . S
Tb400 O428 2.325 . S
Tb400 O431 2.341 . S
Tb401 C411 2.809 . S
Tb401 O422 2.325 . S
Tb401 O425 2.341 . S
Tb401 O426 2.484 . S
Tb401 O427 2.440 . S
Tb401 O428 2.658 . S
Tb401 O429 2.409 . S
Tb401 O430 2.378 . S
C402 Tb400 2.809 . S
C402 C403 1.514 . S
C402 O420 1.248 . S
C402 O421 1.266 . S
C403 C402 1.514 . S
C403 C404 1.359 . S
C403 C408 1.348 . S
C404 C403 1.359 . S
C404 C405 1.380 . S
C404 H432 0.929 . S
C405 C404 1.380 . S
C405 C406 1.347 . S
C405 H433 0.931 . S
C406 C405 1.347 . S
C406 C407 1.369 . S
C407 C406 1.369 . S
C407 C408 1.408 . S
C407 H434 0.930 . S
C408 C403 1.348 . S
C408 C407 1.408 . S
C408 H435 0.930 . S
C409 O422 1.281 . S
C409 O423 1.254 . S
C410 O424 1.236 . S
C410 O425 1.266 . S
C411 Tb401 2.809 . S
C411 C412 1.514 . S
C411 O426 1.248 . S
C411 O427 1.266 . S
C412 C411 1.514 . S
C412 C413 1.359 . S
C412 C417 1.348 . S
C413 C412 1.359 . S
C413 C414 1.380 . S
C413 H436 0.929 . S
C414 C413 1.380 . S
C414 C415 1.347 . S
C414 H437 0.931 . S
C415 C414 1.347 . S
C415 C416 1.369 . S
C416 C415 1.369 . S
C416 C417 1.408 . S
C416 H438 0.930 . S
C417 C412 1.348 . S
C417 C416 1.408 . S
C417 H439 0.930 . S
C418 O428 1.281 . S
C418 O429 1.254 . S
C419 O430 1.236 . S
C419 O431 1.266 . S
O420 Tb400 2.484 . S
O420 C402 1.248 . S
O421 Tb400 2.440 . S
O421 C402 1.266 . S
O422 Tb400 2.658 . S
O422 Tb401 2.325 . S
O422 C409 1.281 . S
O423 Tb400 2.409 . S
O423 C409 1.254 . S
O424 Tb400 2.378 . S
O424 C410 1.236 . S
O425 Tb401 2.341 . S
O425 C410 1.266 . S
O426 Tb401 2.484 . S
O426 C411 1.248 . S
O427 Tb401 2.440 . S
O427 C411 1.266 . S
O428 Tb400 2.325 . S
O428 Tb401 2.658 . S
O428 C418 1.281 . S
O429 Tb401 2.409 . S
O429 C418 1.254 . S
O430 Tb401 2.378 . S
O430 C419 1.236 . S
O431 Tb400 2.341 . S
O431 C419 1.266 . S
H432 C404 0.929 . S
H433 C405 0.931 . S
H434 C407 0.930 . S
H435 C408 0.930 . S
H436 C413 0.929 . S
H437 C414 0.931 . S
H438 C416 0.930 . S
H439 C417 0.930 . S
Tb440 C442 2.809 1_455 S
Tb440 O460 2.484 1_455 S
Tb440 O461 2.440 1_455 S
Tb440 O462 2.658 1_556 S
Tb440 O463 2.381 1_556 S
Tb440 O464 2.378 1_456 S
Tb440 O468 2.325 1_455 S
Tb440 O471 2.341 . S
Tb441 C451 2.809 . S
Tb441 O462 2.325 . S
Tb441 O465 2.341 1_455 S
Tb441 O466 2.484 . S
Tb441 O467 2.440 . S
Tb441 O468 2.658 1_454 S
Tb441 O469 2.409 1_455 S
Tb441 O470 2.378 1_554 S
C442 Tb440 2.809 1_655 S
C442 C443 1.514 . S
C442 O460 1.248 . S
C442 O461 1.266 . S
C443 C442 1.514 . S
C443 C444 1.359 . S
C443 C448 1.348 . S
C444 C443 1.359 . S
C444 C445 1.380 . S
C444 H472 0.929 . S
C445 C444 1.380 . S
C445 C446 1.347 . S
C445 H473 0.931 . S
C446 C445 1.347 . S
C446 C447 1.369 . S
C447 C446 1.369 . S
C447 C448 1.408 . S
C447 H474 0.930 . S
C448 C443 1.348 . S
C448 C447 1.408 . S
C448 H475 0.930 . S
C449 O462 1.281 . S
C449 O463 1.286 . S
C450 O464 1.236 . S
C450 O465 1.266 . S
C451 Tb441 2.809 . S
C451 C452 1.514 . S
C451 O466 1.248 . S
C451 O467 1.266 . S
C452 C451 1.514 . S
C452 C453 1.359 . S
C452 C457 1.348 . S
C453 C452 1.359 . S
C453 C454 1.380 . S
C453 H476 0.929 . S
C454 C453 1.380 . S
C454 C455 1.347 . S
C454 H477 0.931 . S
C455 C454 1.347 . S
C455 C456 1.369 . S
C456 C455 1.369 . S
C456 C457 1.408 . S
C456 H478 0.930 . S
C457 C452 1.348 . S
C457 C456 1.408 . S
C457 H479 0.930 . S
C458 O468 1.281 . S
C458 O469 1.254 1_556 S
C459 O470 1.236 . S
C459 O471 1.266 . S
O460 Tb440 2.484 1_655 S
O460 C442 1.248 . S
O461 Tb440 2.440 1_655 S
O461 C442 1.266 . S
O462 Tb440 2.658 1_554 S
O462 Tb441 2.325 . S
O462 C449 1.281 . S
O463 Tb440 2.381 1_554 S
O463 C449 1.286 . S
O464 Tb440 2.378 1_654 S
O464 C450 1.236 . S
O465 Tb441 2.341 1_655 S
O465 C450 1.266 . S
O466 Tb441 2.484 . S
O466 C451 1.248 . S
O467 Tb441 2.440 . S
O467 C451 1.266 . S
O468 Tb440 2.325 1_655 S
O468 Tb441 2.658 1_656 S
O468 C458 1.281 . S
O469 Tb441 2.409 1_655 S
O469 C458 1.254 1_554 S
O470 Tb441 2.378 1_556 S
O470 C459 1.236 . S
O471 Tb440 2.341 . S
O471 C459 1.266 . S
H472 C444 0.929 . S
H473 C445 0.931 . S
H474 C447 0.930 . S
H475 C448 0.930 . S
H476 C453 0.929 . S
H477 C454 0.931 . S
H478 C456 0.930 . S
H479 C457 0.930 . S
H480 C488 0.929 . S
H481 C490 0.930 . S
H482 C492 0.930 . S
H483 C495 0.929 . S
H484 C498 0.930 . S
H485 C500 0.960 . S
H486 C500 0.960 . S
H487 C500 0.960 . S
C488 H480 0.929 . S
C488 C489 1.377 . S
C488 C490 1.384 . S
C489 C488 1.377 . S
C489 C495 1.390 . S
C490 H481 0.930 . S
C490 C488 1.384 . S
C490 C491 1.372 . S
C491 C490 1.372 . S
C491 C492 1.400 . S
C491 C496 1.490 . S
C492 H482 0.930 . S
C492 C491 1.400 . S
C492 C495 1.386 . S
H493 C509 0.930 . S
H494 C510 0.931 . S
C495 H483 0.929 . S
C495 C489 1.390 . S
C495 C492 1.386 . S
C496 C491 1.490 . S
C496 C498 1.395 . S
C496 C499 1.403 . S
H497 C503 0.930 . S
C498 H484 0.930 . S
C498 C496 1.395 . S
C498 C501 1.403 . S
C499 C496 1.403 . S
C499 C500 1.524 . S
C499 C503 1.400 . S
C500 H485 0.960 . S
C500 H486 0.960 . S
C500 H487 0.960 . S
C500 C499 1.524 . S
C501 C498 1.403 . S
C501 C502 1.392 . S
C501 C505 1.495 . S
C502 C501 1.392 . S
C502 C503 1.385 . S
C502 C504 1.478 . S
C503 H497 0.930 . S
C503 C499 1.400 . S
C503 C502 1.385 . S
C504 C502 1.478 . S
C504 C506 1.381 . S
C504 C510 1.383 . S
C505 C501 1.495 . S
C505 H511 0.959 . S
C505 H512 0.961 . S
C505 H513 0.960 . S
C506 C504 1.381 . S
C506 C507 1.394 . S
C506 H514 0.930 . S
C507 C506 1.394 . S
C507 C508 1.383 . S
C507 H515 0.929 . S
C508 C507 1.383 . S
C508 C509 1.377 . S
C509 H493 0.930 . S
C509 C508 1.377 . S
C509 C510 1.379 . S
C510 H494 0.931 . S
C510 C504 1.383 . S
C510 C509 1.379 . S
H511 C505 0.959 . S
H512 C505 0.961 . S
H513 C505 0.960 . S
H514 C506 0.930 . S
H515 C507 0.929 . S
H516 C524 0.929 . S
H517 C526 0.930 . S
H518 C528 0.930 . S
H519 C531 0.929 . S
H520 C534 0.930 . S
H521 C536 0.960 . S
H522 C536 0.960 . S
H523 C536 0.960 . S
C524 H516 0.929 . S
C524 C525 1.377 . S
C524 C526 1.384 . S
C525 C524 1.377 . S
C525 C531 1.390 . S
C526 H517 0.930 . S
C526 C524 1.384 . S
C526 C527 1.372 . S
C527 C526 1.372 . S
C527 C528 1.400 . S
C527 C532 1.490 . S
C528 H518 0.930 . S
C528 C527 1.400 . S
C528 C531 1.386 . S
H529 C545 0.930 . S
H530 C546 0.931 . S
C531 H519 0.929 . S
C531 C525 1.390 . S
C531 C528 1.386 . S
C532 C527 1.490 . S
C532 C534 1.395 . S
C532 C535 1.403 . S
H533 C539 0.930 . S
C534 H520 0.930 . S
C534 C532 1.395 . S
C534 C537 1.403 . S
C535 C532 1.403 . S
C535 C536 1.524 . S
C535 C539 1.400 . S
C536 H521 0.960 . S
C536 H522 0.960 . S
C536 H523 0.960 . S
C536 C535 1.524 . S
C537 C534 1.403 . S
C537 C538 1.392 . S
C537 C541 1.495 . S
C538 C537 1.392 . S
C538 C539 1.385 . S
C538 C540 1.478 . S
C539 H533 0.930 . S
C539 C535 1.400 . S
C539 C538 1.385 . S
C540 C538 1.478 . S
C540 C542 1.381 . S
C540 C546 1.383 . S
C541 C537 1.495 . S
C541 H547 0.959 . S
C541 H548 0.961 . S
C541 H549 0.960 . S
C542 C540 1.381 . S
C542 C543 1.394 . S
C542 H550 0.930 . S
C543 C542 1.394 . S
C543 C544 1.383 . S
C543 H551 0.929 . S
C544 C543 1.383 . S
C544 C545 1.377 . S
C545 H529 0.930 . S
C545 C544 1.377 . S
C545 C546 1.379 . S
C546 H530 0.931 . S
C546 C540 1.383 . S
C546 C545 1.379 . S
H547 C541 0.959 . S
H548 C541 0.961 . S
H549 C541 0.960 . S
H550 C542 0.930 . S
H551 C543 0.929 . S
H552 C560 0.929 . S
H553 C562 0.930 . S
H554 C564 0.930 . S
H555 C567 0.929 . S
H556 C570 0.930 . S
H557 C572 0.960 . S
H558 C572 0.960 . S
H559 C572 0.960 . S
C560 H552 0.929 . S
C560 C561 1.377 . S
C560 C562 1.384 . S
C561 C560 1.377 . S
C561 C567 1.390 . S
C562 H553 0.930 . S
C562 C560 1.384 . S
C562 C563 1.372 . S
C563 C562 1.372 . S
C563 C564 1.400 . S
C563 C568 1.490 . S
C564 H554 0.930 . S
C564 C563 1.400 . S
C564 C567 1.386 . S
H565 C581 0.930 . S
H566 C582 0.931 . S
C567 H555 0.929 . S
C567 C561 1.390 . S
C567 C564 1.386 . S
C568 C563 1.490 . S
C568 C570 1.395 . S
C568 C571 1.403 . S
H569 C575 0.930 . S
C570 H556 0.930 . S
C570 C568 1.395 . S
C570 C573 1.403 . S
C571 C568 1.403 . S
C571 C572 1.524 . S
C571 C575 1.400 . S
C572 H557 0.960 . S
C572 H558 0.960 . S
C572 H559 0.960 . S
C572 C571 1.524 . S
C573 C570 1.403 . S
C573 C574 1.392 . S
C573 C577 1.495 . S
C574 C573 1.392 . S
C574 C575 1.385 . S
C574 C576 1.478 . S
C575 H569 0.930 . S
C575 C571 1.400 . S
C575 C574 1.385 . S
C576 C574 1.478 . S
C576 C578 1.381 . S
C576 C582 1.383 . S
C577 C573 1.495 . S
C577 H583 0.959 . S
C577 H584 0.961 . S
C577 H585 0.960 . S
C578 C576 1.381 . S
C578 C579 1.394 . S
C578 H586 0.930 . S
C579 C578 1.394 . S
C579 C580 1.383 . S
C579 H587 0.929 . S
C580 C579 1.383 . S
C580 C581 1.377 . S
C581 H565 0.930 . S
C581 C580 1.377 . S
C581 C582 1.379 . S
C582 H566 0.931 . S
C582 C576 1.383 . S
C582 C581 1.379 . S
H583 C577 0.959 . S
H584 C577 0.961 . S
H585 C577 0.960 . S
H586 C578 0.930 . S
H587 C579 0.929 . S
H588 C596 0.929 . S
H589 C598 0.930 . S
H590 C600 0.930 . S
H591 C603 0.929 . S
H592 C606 0.930 . S
H593 C608 0.960 . S
H594 C608 0.960 . S
H595 C608 0.960 . S
C596 H588 0.929 . S
C596 C597 1.377 . S
C596 C598 1.384 . S
C597 C596 1.377 . S
C597 C603 1.390 . S
C598 H589 0.930 . S
C598 C596 1.384 . S
C598 C599 1.372 . S
C599 C598 1.372 . S
C599 C600 1.400 . S
C599 C604 1.490 . S
C600 H590 0.930 . S
C600 C599 1.400 . S
C600 C603 1.386 . S
H601 C617 0.930 . S
H602 C618 0.931 . S
C603 H591 0.929 . S
C603 C597 1.390 . S
C603 C600 1.386 . S
C604 C599 1.490 . S
C604 C606 1.395 . S
C604 C607 1.403 . S
H605 C611 0.930 . S
C606 H592 0.930 . S
C606 C604 1.395 . S
C606 C609 1.403 . S
C607 C604 1.403 . S
C607 C608 1.524 . S
C607 C611 1.400 . S
C608 H593 0.960 . S
C608 H594 0.960 . S
C608 H595 0.960 . S
C608 C607 1.524 . S
C609 C606 1.403 . S
C609 C610 1.392 . S
C609 C613 1.495 . S
C610 C609 1.392 . S
C610 C611 1.385 . S
C610 C612 1.478 . S
C611 H605 0.930 . S
C611 C607 1.400 . S
C611 C610 1.385 . S
C612 C610 1.478 . S
C612 C614 1.381 . S
C612 C618 1.383 . S
C613 C609 1.495 . S
C613 H619 0.959 . S
C613 H620 0.961 . S
C613 H621 0.960 . S
C614 C612 1.381 . S
C614 C615 1.394 . S
C614 H622 0.930 . S
C615 C614 1.394 . S
C615 C616 1.383 . S
C615 H623 0.929 . S
C616 C615 1.383 . S
C616 C617 1.377 . S
C617 H601 0.930 . S
C617 C616 1.377 . S
C617 C618 1.379 . S
C618 H602 0.931 . S
C618 C612 1.383 . S
C618 C617 1.379 . S
H619 C613 0.959 . S
H620 C613 0.961 . S
H621 C613 0.960 . S
H622 C614 0.930 . S
H623 C615 0.929 . S
H624 C632 0.929 . S
H625 C634 0.930 . S
H626 C636 0.930 . S
H627 C639 0.929 . S
H628 C642 0.930 . S
H629 C644 0.960 . S
H630 C644 0.960 . S
H631 C644 0.960 . S
C632 H624 0.929 . S
C632 C633 1.377 . S
C632 C634 1.384 . S
C633 C632 1.377 . S
C633 C639 1.390 . S
C634 H625 0.930 . S
C634 C632 1.384 . S
C634 C635 1.372 . S
C635 C634 1.372 . S
C635 C636 1.400 . S
C635 C640 1.490 . S
C636 H626 0.930 . S
C636 C635 1.400 . S
C636 C639 1.386 . S
H637 C653 0.930 . S
H638 C654 0.931 . S
C639 H627 0.929 . S
C639 C633 1.390 . S
C639 C636 1.386 . S
C640 C635 1.490 . S
C640 C642 1.395 . S
C640 C643 1.403 . S
H641 C647 0.930 . S
C642 H628 0.930 . S
C642 C640 1.395 . S
C642 C645 1.403 . S
C643 C640 1.403 . S
C643 C644 1.524 . S
C643 C647 1.400 . S
C644 H629 0.960 . S
C644 H630 0.960 . S
C644 H631 0.960 . S
C644 C643 1.524 . S
C645 C642 1.403 . S
C645 C646 1.392 . S
C645 C649 1.495 . S
C646 C645 1.392 . S
C646 C647 1.385 . S
C646 C648 1.478 . S
C647 H641 0.930 . S
C647 C643 1.400 . S
C647 C646 1.385 . S
C648 C646 1.478 . S
C648 C650 1.381 . S
C648 C654 1.383 . S
C649 C645 1.495 . S
C649 H655 0.959 . S
C649 H656 0.961 . S
C649 H657 0.960 . S
C650 C648 1.381 . S
C650 C651 1.394 . S
C650 H658 0.930 . S
C651 C650 1.394 . S
C651 C652 1.383 . S
C651 H659 0.929 . S
C652 C651 1.383 . S
C652 C653 1.377 . S
C653 H637 0.930 . S
C653 C652 1.377 . S
C653 C654 1.379 . S
C654 H638 0.931 . S
C654 C648 1.383 . S
C654 C653 1.379 . S
H655 C649 0.959 . S
H656 C649 0.961 . S
H657 C649 0.960 . S
H658 C650 0.930 . S
H659 C651 0.929 . S
H660 C668 0.929 . S
H661 C670 0.930 . S
H662 C672 0.930 . S
H663 C675 0.929 . S
H664 C678 0.930 . S
H665 C680 0.960 . S
H666 C680 0.960 . S
H667 C680 0.960 . S
C668 H660 0.929 . S
C668 C669 1.377 . S
C668 C670 1.384 . S
C669 C668 1.377 . S
C669 C675 1.390 . S
C670 H661 0.930 . S
C670 C668 1.384 . S
C670 C671 1.372 . S
C671 C670 1.372 . S
C671 C672 1.400 . S
C671 C676 1.490 . S
C672 H662 0.930 . S
C672 C671 1.400 . S
C672 C675 1.386 . S
H673 C689 0.930 . S
H674 C690 0.931 . S
C675 H663 0.929 . S
C675 C669 1.390 . S
C675 C672 1.386 . S
C676 C671 1.490 . S
C676 C678 1.395 . S
C676 C679 1.403 . S
H677 C683 0.930 . S
C678 H664 0.930 . S
C678 C676 1.395 . S
C678 C681 1.403 . S
C679 C676 1.403 . S
C679 C680 1.524 . S
C679 C683 1.400 . S
C680 H665 0.960 . S
C680 H666 0.960 . S
C680 H667 0.960 . S
C680 C679 1.524 . S
C681 C678 1.403 . S
C681 C682 1.392 . S
C681 C685 1.495 . S
C682 C681 1.392 . S
C682 C683 1.385 . S
C682 C684 1.478 . S
C683 H677 0.930 . S
C683 C679 1.400 . S
C683 C682 1.385 . S
C684 C682 1.478 . S
C684 C686 1.381 . S
C684 C690 1.383 . S
C685 C681 1.495 . S
C685 H691 0.959 . S
C685 H692 0.961 . S
C685 H693 0.960 . S
C686 C684 1.381 . S
C686 C687 1.394 . S
C686 H694 0.930 . S
C687 C686 1.394 . S
C687 C688 1.383 . S
C687 H695 0.929 . S
C688 C687 1.383 . S
C688 C689 1.377 . S
C689 H673 0.930 . S
C689 C688 1.377 . S
C689 C690 1.379 . S
C690 H674 0.931 . S
C690 C684 1.383 . S
C690 C689 1.379 . S
H691 C685 0.959 . S
H692 C685 0.961 . S
H693 C685 0.960 . S
H694 C686 0.930 . S
H695 C687 0.929 . S
H696 C704 0.929 . S
H697 C706 0.930 . S
H698 C708 0.930 . S
H699 C711 0.929 . S
H700 C714 0.930 . S
H701 C716 0.960 . S
H702 C716 0.960 . S
H703 C716 0.960 . S
C704 H696 0.929 . S
C704 C705 1.377 . S
C704 C706 1.384 . S
C705 C704 1.377 . S
C705 C711 1.390 . S
C706 H697 0.930 . S
C706 C704 1.384 . S
C706 C707 1.372 . S
C707 C706 1.372 . S
C707 C708 1.400 . S
C707 C712 1.490 . S
C708 H698 0.930 . S
C708 C707 1.400 . S
C708 C711 1.386 . S
H709 C725 0.930 . S
H710 C726 0.931 . S
C711 H699 0.929 . S
C711 C705 1.390 . S
C711 C708 1.386 . S
C712 C707 1.490 . S
C712 C714 1.395 . S
C712 C715 1.403 . S
H713 C719 0.930 . S
C714 H700 0.930 . S
C714 C712 1.395 . S
C714 C717 1.403 . S
C715 C712 1.403 . S
C715 C716 1.524 . S
C715 C719 1.400 . S
C716 H701 0.960 . S
C716 H702 0.960 . S
C716 H703 0.960 . S
C716 C715 1.524 . S
C717 C714 1.403 . S
C717 C718 1.392 . S
C717 C721 1.495 . S
C718 C717 1.392 . S
C718 C719 1.385 . S
C718 C720 1.478 . S
C719 H713 0.930 . S
C719 C715 1.400 . S
C719 C718 1.385 . S
C720 C718 1.478 . S
C720 C722 1.381 . S
C720 C726 1.383 . S
C721 C717 1.495 . S
C721 H727 0.959 . S
C721 H728 0.961 . S
C721 H729 0.960 . S
C722 C720 1.381 . S
C722 C723 1.394 . S
C722 H730 0.930 . S
C723 C722 1.394 . S
C723 C724 1.383 . S
C723 H731 0.929 . S
C724 C723 1.383 . S
C724 C725 1.377 . S
C725 H709 0.930 . S
C725 C724 1.377 . S
C725 C726 1.379 . S
C726 H710 0.931 . S
C726 C720 1.383 . S
C726 C725 1.379 . S
H727 C721 0.959 . S
H728 C721 0.961 . S
H729 C721 0.960 . S
H730 C722 0.930 . S
H731 C723 0.929 . S
H732 C740 0.929 . S
H733 C742 0.930 . S
H734 C744 0.930 . S
H735 C747 0.929 . S
H736 C750 0.930 . S
H737 C752 0.960 . S
H738 C752 0.960 . S
H739 C752 0.960 . S
C740 H732 0.929 . S
C740 C741 1.377 . S
C740 C742 1.384 . S
C741 C740 1.377 . S
C741 C747 1.390 . S
C742 H733 0.930 . S
C742 C740 1.384 . S
C742 C743 1.372 . S
C743 C742 1.372 . S
C743 C744 1.400 . S
C743 C748 1.490 . S
C744 H734 0.930 . S
C744 C743 1.400 . S
C744 C747 1.386 . S
H745 C761 0.930 . S
H746 C762 0.931 . S
C747 H735 0.929 . S
C747 C741 1.390 . S
C747 C744 1.386 . S
C748 C743 1.490 . S
C748 C750 1.395 . S
C748 C751 1.403 . S
H749 C755 0.930 . S
C750 H736 0.930 . S
C750 C748 1.395 . S
C750 C753 1.403 . S
C751 C748 1.403 . S
C751 C752 1.524 . S
C751 C755 1.400 . S
C752 H737 0.960 . S
C752 H738 0.960 . S
C752 H739 0.960 . S
C752 C751 1.524 . S
C753 C750 1.403 . S
C753 C754 1.392 . S
C753 C757 1.495 . S
C754 C753 1.392 . S
C754 C755 1.385 . S
C754 C756 1.478 . S
C755 H749 0.930 . S
C755 C751 1.400 . S
C755 C754 1.385 . S
C756 C754 1.478 . S
C756 C758 1.381 . S
C756 C762 1.383 . S
C757 C753 1.495 . S
C757 H763 0.959 . S
C757 H764 0.961 . S
C757 H765 0.960 . S
C758 C756 1.381 . S
C758 C759 1.394 . S
C758 H766 0.930 . S
C759 C758 1.394 . S
C759 C760 1.383 . S
C759 H767 0.929 . S
C760 C759 1.383 . S
C760 C761 1.377 . S
C761 H745 0.930 . S
C761 C760 1.377 . S
C761 C762 1.379 . S
C762 H746 0.931 . S
C762 C756 1.383 . S
C762 C761 1.379 . S
H763 C757 0.959 . S
H764 C757 0.961 . S
H765 C757 0.960 . S
H766 C758 0.930 . S
H767 C759 0.929 . S
H768 C776 0.929 . S
H769 C778 0.930 . S
H770 C780 0.930 . S
H771 C783 0.929 . S
H772 C786 0.930 . S
H773 C788 0.960 . S
H774 C788 0.960 . S
H775 C788 0.960 . S
C776 H768 0.929 . S
C776 C777 1.377 . S
C776 C778 1.384 . S
C777 C776 1.377 . S
C777 C783 1.390 . S
C778 H769 0.930 . S
C778 C776 1.384 . S
C778 C779 1.372 . S
C779 C778 1.372 . S
C779 C780 1.400 . S
C779 C784 1.490 . S
C780 H770 0.930 . S
C780 C779 1.400 . S
C780 C783 1.386 . S
H781 C797 0.930 . S
H782 C798 0.931 . S
C783 H771 0.929 . S
C783 C777 1.390 . S
C783 C780 1.386 . S
C784 C779 1.490 . S
C784 C786 1.395 . S
C784 C787 1.403 . S
H785 C791 0.930 . S
C786 H772 0.930 . S
C786 C784 1.395 . S
C786 C789 1.403 . S
C787 C784 1.403 . S
C787 C788 1.524 . S
C787 C791 1.400 . S
C788 H773 0.960 . S
C788 H774 0.960 . S
C788 H775 0.960 . S
C788 C787 1.524 . S
C789 C786 1.403 . S
C789 C790 1.392 . S
C789 C793 1.495 . S
C790 C789 1.392 . S
C790 C791 1.385 . S
C790 C792 1.478 . S
C791 H785 0.930 . S
C791 C787 1.400 . S
C791 C790 1.385 . S
C792 C790 1.478 . S
C792 C794 1.381 . S
C792 C798 1.383 . S
C793 C789 1.495 . S
C793 H799 0.959 . S
C793 H800 0.961 . S
C793 H801 0.960 . S
C794 C792 1.381 . S
C794 C795 1.394 . S
C794 H802 0.930 . S
C795 C794 1.394 . S
C795 C796 1.383 . S
C795 H803 0.929 . S
C796 C795 1.383 . S
C796 C797 1.377 . S
C797 H781 0.930 . S
C797 C796 1.377 . S
C797 C798 1.379 . S
C798 H782 0.931 . S
C798 C792 1.383 . S
C798 C797 1.379 . S
H799 C793 0.959 . S
H800 C793 0.961 . S
H801 C793 0.960 . S
H802 C794 0.930 . S
H803 C795 0.929 . S
H804 C812 0.929 . S
H805 C814 0.930 . S
H806 C816 0.930 . S
H807 C819 0.929 . S
H808 C822 0.930 . S
H809 C824 0.960 . S
H810 C824 0.960 . S
H811 C824 0.960 . S
C812 H804 0.929 . S
C812 C813 1.377 . S
C812 C814 1.384 . S
C813 C812 1.377 . S
C813 C819 1.390 . S
C814 H805 0.930 . S
C814 C812 1.384 . S
C814 C815 1.372 . S
C815 C814 1.372 . S
C815 C816 1.400 . S
C815 C820 1.490 . S
C816 H806 0.930 . S
C816 C815 1.400 . S
C816 C819 1.386 . S
H817 C833 0.930 . S
H818 C834 0.931 . S
C819 H807 0.929 . S
C819 C813 1.390 . S
C819 C816 1.386 . S
C820 C815 1.490 . S
C820 C822 1.395 . S
C820 C823 1.403 . S
H821 C827 0.930 . S
C822 H808 0.930 . S
C822 C820 1.395 . S
C822 C825 1.403 . S
C823 C820 1.403 . S
C823 C824 1.524 . S
C823 C827 1.400 . S
C824 H809 0.960 . S
C824 H810 0.960 . S
C824 H811 0.960 . S
C824 C823 1.524 . S
C825 C822 1.403 . S
C825 C826 1.392 . S
C825 C829 1.495 . S
C826 C825 1.392 . S
C826 C827 1.385 . S
C826 C828 1.478 . S
C827 H821 0.930 . S
C827 C823 1.400 . S
C827 C826 1.385 . S
C828 C826 1.478 . S
C828 C830 1.381 . S
C828 C834 1.383 . S
C829 C825 1.495 . S
C829 H835 0.959 . S
C829 H836 0.961 . S
C829 H837 0.960 . S
C830 C828 1.381 . S
C830 C831 1.394 . S
C830 H838 0.930 . S
C831 C830 1.394 . S
C831 C832 1.383 . S
C831 H839 0.929 . S
C832 C831 1.383 . S
C832 C833 1.377 . S
C833 H817 0.930 . S
C833 C832 1.377 . S
C833 C834 1.379 . S
C834 H818 0.931 . S
C834 C828 1.383 . S
C834 C833 1.379 . S
H835 C829 0.959 . S
H836 C829 0.961 . S
H837 C829 0.960 . S
H838 C830 0.930 . S
H839 C831 0.929 . S
H840 C848 0.929 . S
H841 C850 0.930 . S
H842 C852 0.930 . S
H843 C855 0.929 . S
H844 C858 0.930 . S
H845 C860 0.960 . S
H846 C860 0.960 . S
H847 C860 0.960 . S
C848 H840 0.929 . S
C848 C849 1.377 . S
C848 C850 1.384 . S
C849 C848 1.377 . S
C849 C855 1.390 . S
C850 H841 0.930 . S
C850 C848 1.384 . S
C850 C851 1.372 . S
C851 C850 1.372 . S
C851 C852 1.400 . S
C851 C856 1.490 . S
C852 H842 0.930 . S
C852 C851 1.400 . S
C852 C855 1.386 . S
H853 C869 0.930 . S
H854 C870 0.931 . S
C855 H843 0.929 . S
C855 C849 1.390 . S
C855 C852 1.386 . S
C856 C851 1.490 . S
C856 C858 1.395 . S
C856 C859 1.403 . S
H857 C863 0.930 . S
C858 H844 0.930 . S
C858 C856 1.395 . S
C858 C861 1.403 . S
C859 C856 1.403 . S
C859 C860 1.524 . S
C859 C863 1.400 . S
C860 H845 0.960 . S
C860 H846 0.960 . S
C860 H847 0.960 . S
C860 C859 1.524 . S
C861 C858 1.403 . S
C861 C862 1.392 . S
C861 C865 1.495 . S
C862 C861 1.392 . S
C862 C863 1.385 . S
C862 C864 1.478 . S
C863 H857 0.930 . S
C863 C859 1.400 . S
C863 C862 1.385 . S
C864 C862 1.478 . S
C864 C866 1.381 . S
C864 C870 1.383 . S
C865 C861 1.495 . S
C865 H871 0.959 . S
C865 H872 0.961 . S
C865 H873 0.960 . S
C866 C864 1.381 . S
C866 C867 1.394 . S
C866 H874 0.930 . S
C867 C866 1.394 . S
C867 C868 1.383 . S
C867 H875 0.929 . S
C868 C867 1.383 . S
C868 C869 1.377 . S
C869 H853 0.930 . S
C869 C868 1.377 . S
C869 C870 1.379 . S
C870 H854 0.931 . S
C870 C864 1.383 . S
C870 C869 1.379 . S
H871 C865 0.959 . S
H872 C865 0.961 . S
H873 C865 0.960 . S
H874 C866 0.930 . S
H875 C867 0.929 . S
H876 C884 0.929 . S
H877 C886 0.930 . S
H878 C888 0.930 . S
H879 C891 0.929 . S
H880 C894 0.930 . S
H881 C896 0.960 . S
H882 C896 0.960 . S
H883 C896 0.960 . S
C884 H876 0.929 . S
C884 C885 1.377 . S
C884 C886 1.384 . S
C885 C884 1.377 . S
C885 C891 1.390 . S
C886 H877 0.930 . S
C886 C884 1.384 . S
C886 C887 1.372 . S
C887 C886 1.372 . S
C887 C888 1.400 . S
C887 C892 1.490 . S
C888 H878 0.930 . S
C888 C887 1.400 . S
C888 C891 1.386 . S
H889 C905 0.930 . S
H890 C906 0.931 . S
C891 H879 0.929 . S
C891 C885 1.390 . S
C891 C888 1.386 . S
C892 C887 1.490 . S
C892 C894 1.395 . S
C892 C895 1.403 . S
H893 C899 0.930 . S
C894 H880 0.930 . S
C894 C892 1.395 . S
C894 C897 1.403 . S
C895 C892 1.403 . S
C895 C896 1.524 . S
C895 C899 1.400 . S
C896 H881 0.960 . S
C896 H882 0.960 . S
C896 H883 0.960 . S
C896 C895 1.524 . S
C897 C894 1.403 . S
C897 C898 1.392 . S
C897 C901 1.495 . S
C898 C897 1.392 . S
C898 C899 1.385 . S
C898 C900 1.478 . S
C899 H893 0.930 . S
C899 C895 1.400 . S
C899 C898 1.385 . S
C900 C898 1.478 . S
C900 C902 1.381 . S
C900 C906 1.383 . S
C901 C897 1.495 . S
C901 H907 0.959 . S
C901 H908 0.961 . S
C901 H909 0.960 . S
C902 C900 1.381 . S
C902 C903 1.394 . S
C902 H910 0.930 . S
C903 C902 1.394 . S
C903 C904 1.383 . S
C903 H911 0.929 . S
C904 C903 1.383 . S
C904 C905 1.377 . S
C905 H889 0.930 . S
C905 C904 1.377 . S
C905 C906 1.379 . S
C906 H890 0.931 . S
C906 C900 1.383 . S
C906 C905 1.379 . S
H907 C901 0.959 . S
H908 C901 0.961 . S
H909 C901 0.960 . S
H910 C902 0.930 . S
H911 C903 0.929 . S
H912 C920 0.929 . S
H913 C922 0.930 . S
H914 C924 0.930 . S
H915 C927 0.929 . S
H916 C930 0.930 . S
H917 C932 0.960 . S
H918 C932 0.960 . S
H919 C932 0.960 . S
C920 H912 0.929 . S
C920 C921 1.377 . S
C920 C922 1.384 . S
C921 C920 1.377 . S
C921 C927 1.390 . S
C922 H913 0.930 . S
C922 C920 1.384 . S
C922 C923 1.372 . S
C923 C922 1.372 . S
C923 C924 1.400 . S
C923 C928 1.490 . S
C924 H914 0.930 . S
C924 C923 1.400 . S
C924 C927 1.386 . S
H925 C941 0.930 . S
H926 C942 0.931 . S
C927 H915 0.929 . S
C927 C921 1.390 . S
C927 C924 1.386 . S
C928 C923 1.490 . S
C928 C930 1.395 . S
C928 C931 1.403 . S
H929 C935 0.930 . S
C930 H916 0.930 . S
C930 C928 1.395 . S
C930 C933 1.403 . S
C931 C928 1.403 . S
C931 C932 1.524 . S
C931 C935 1.400 . S
C932 H917 0.960 . S
C932 H918 0.960 . S
C932 H919 0.960 . S
C932 C931 1.524 . S
C933 C930 1.403 . S
C933 C934 1.392 . S
C933 C937 1.495 . S
C934 C933 1.392 . S
C934 C935 1.385 . S
C934 C936 1.478 . S
C935 H929 0.930 . S
C935 C931 1.400 . S
C935 C934 1.385 . S
C936 C934 1.478 . S
C936 C938 1.381 . S
C936 C942 1.383 . S
C937 C933 1.495 . S
C937 H943 0.959 . S
C937 H944 0.961 . S
C937 H945 0.960 . S
C938 C936 1.381 . S
C938 C939 1.394 . S
C938 H946 0.930 . S
C939 C938 1.394 . S
C939 C940 1.383 . S
C939 H947 0.929 . S
C940 C939 1.383 . S
C940 C941 1.377 . S
C941 H925 0.930 . S
C941 C940 1.377 . S
C941 C942 1.379 . S
C942 H926 0.931 . S
C942 C936 1.383 . S
C942 C941 1.379 . S
H943 C937 0.959 . S
H944 C937 0.961 . S
H945 C937 0.960 . S
H946 C938 0.930 . S
H947 C939 0.929 . S
H948 C956 0.929 . S
H949 C958 0.930 . S
H950 C960 0.930 . S
H951 C963 0.929 . S
H952 C966 0.930 . S
H953 C968 0.960 . S
H954 C968 0.960 . S
H955 C968 0.960 . S
C956 H948 0.929 . S
C956 C957 1.377 . S
C956 C958 1.384 . S
C957 C956 1.377 . S
C957 C963 1.390 . S
C958 H949 0.930 . S
C958 C956 1.384 . S
C958 C959 1.372 . S
C959 C958 1.372 . S
C959 C960 1.400 . S
C959 C964 1.490 . S
C960 H950 0.930 . S
C960 C959 1.400 . S
C960 C963 1.386 . S
H961 C977 0.930 . S
H962 C978 0.931 . S
C963 H951 0.929 . S
C963 C957 1.390 . S
C963 C960 1.386 . S
C964 C959 1.490 . S
C964 C966 1.395 . S
C964 C967 1.403 . S
H965 C971 0.930 . S
C966 H952 0.930 . S
C966 C964 1.395 . S
C966 C969 1.403 . S
C967 C964 1.403 . S
C967 C968 1.524 . S
C967 C971 1.400 . S
C968 H953 0.960 . S
C968 H954 0.960 . S
C968 H955 0.960 . S
C968 C967 1.524 . S
C969 C966 1.403 . S
C969 C970 1.392 . S
C969 C973 1.495 . S
C970 C969 1.392 . S
C970 C971 1.385 . S
C970 C972 1.478 . S
C971 H965 0.930 . S
C971 C967 1.400 . S
C971 C970 1.385 . S
C972 C970 1.478 . S
C972 C974 1.381 . S
C972 C978 1.383 . S
C973 C969 1.495 . S
C973 H979 0.959 . S
C973 H980 0.961 . S
C973 H981 0.960 . S
C974 C972 1.381 . S
C974 C975 1.394 . S
C974 H982 0.930 . S
C975 C974 1.394 . S
C975 C976 1.383 . S
C975 H983 0.929 . S
C976 C975 1.383 . S
C976 C977 1.377 . S
C977 H961 0.930 . S
C977 C976 1.377 . S
C977 C978 1.379 . S
C978 H962 0.931 . S
C978 C972 1.383 . S
C978 C977 1.379 . S
H979 C973 0.959 . S
H980 C973 0.961 . S
H981 C973 0.960 . S
H982 C974 0.930 . S
H983 C975 0.929 . S
H984 C992 0.929 . S
H985 C994 0.930 . S
H986 C996 0.930 . S
H987 C999 0.929 . S
H988 C1002 0.930 . S
H989 C1004 0.960 . S
H990 C1004 0.960 . S
H991 C1004 0.960 . S
C992 H984 0.929 . S
C992 C993 1.377 . S
C992 C994 1.384 . S
C993 C992 1.377 . S
C993 C999 1.390 . S
C994 H985 0.930 . S
C994 C992 1.384 . S
C994 C995 1.372 . S
C995 C994 1.372 . S
C995 C996 1.400 . S
C995 C1000 1.490 . S
C996 H986 0.930 . S
C996 C995 1.400 . S
C996 C999 1.386 . S
H997 C1013 0.930 . S
H998 C1014 0.931 . S
C999 H987 0.929 . S
C999 C993 1.390 . S
C999 C996 1.386 . S
C1000 C995 1.490 . S
C1000 C1002 1.395 . S
C1000 C1003 1.403 . S
H1001 C1007 0.930 . S
C1002 H988 0.930 . S
C1002 C1000 1.395 . S
C1002 C1005 1.403 . S
C1003 C1000 1.403 . S
C1003 C1004 1.524 . S
C1003 C1007 1.400 . S
C1004 H989 0.960 . S
C1004 H990 0.960 . S
C1004 H991 0.960 . S
C1004 C1003 1.524 . S
C1005 C1002 1.403 . S
C1005 C1006 1.392 . S
C1005 C1009 1.495 . S
C1006 C1005 1.392 . S
C1006 C1007 1.385 . S
C1006 C1008 1.478 . S
C1007 H1001 0.930 . S
C1007 C1003 1.400 . S
C1007 C1006 1.385 . S
C1008 C1006 1.478 . S
C1008 C1010 1.381 . S
C1008 C1014 1.383 . S
C1009 C1005 1.495 . S
C1009 H1015 0.959 . S
C1009 H1016 0.961 . S
C1009 H1017 0.960 . S
C1010 C1008 1.381 . S
C1010 C1011 1.394 . S
C1010 H1018 0.930 . S
C1011 C1010 1.394 . S
C1011 C1012 1.383 . S
C1011 H1019 0.929 . S
C1012 C1011 1.383 . S
C1012 C1013 1.377 . S
C1013 H997 0.930 . S
C1013 C1012 1.377 . S
C1013 C1014 1.379 . S
C1014 H998 0.931 . S
C1014 C1008 1.383 . S
C1014 C1013 1.379 . S
H1015 C1009 0.959 . S
H1016 C1009 0.961 . S
H1017 C1009 0.960 . S
H1018 C1010 0.930 . S
H1019 C1011 0.929 . S
H1020 C1028 0.929 . S
H1021 C1030 0.930 . S
H1022 C1032 0.930 . S
H1023 C1035 0.929 . S
H1024 C1038 0.930 . S
H1025 C1040 0.960 . S
H1026 C1040 0.960 . S
H1027 C1040 0.960 . S
C1028 H1020 0.929 . S
C1028 C1029 1.377 . S
C1028 C1030 1.384 . S
C1029 C1028 1.377 . S
C1029 C1035 1.390 . S
C1030 H1021 0.930 . S
C1030 C1028 1.384 . S
C1030 C1031 1.372 . S
C1031 C1030 1.372 . S
C1031 C1032 1.400 . S
C1031 C1036 1.490 . S
C1032 H1022 0.930 . S
C1032 C1031 1.400 . S
C1032 C1035 1.386 . S
H1033 C1049 0.930 . S
H1034 C1050 0.931 . S
C1035 H1023 0.929 . S
C1035 C1029 1.390 . S
C1035 C1032 1.386 . S
C1036 C1031 1.490 . S
C1036 C1038 1.395 . S
C1036 C1039 1.403 . S
H1037 C1043 0.930 . S
C1038 H1024 0.930 . S
C1038 C1036 1.395 . S
C1038 C1041 1.403 . S
C1039 C1036 1.403 . S
C1039 C1040 1.524 . S
C1039 C1043 1.400 . S
C1040 H1025 0.960 . S
C1040 H1026 0.960 . S
C1040 H1027 0.960 . S
C1040 C1039 1.524 . S
C1041 C1038 1.403 . S
C1041 C1042 1.392 . S
C1041 C1045 1.495 . S
C1042 C1041 1.392 . S
C1042 C1043 1.385 . S
C1042 C1044 1.478 . S
C1043 H1037 0.930 . S
C1043 C1039 1.400 . S
C1043 C1042 1.385 . S
C1044 C1042 1.478 . S
C1044 C1046 1.381 . S
C1044 C1050 1.383 . S
C1045 C1041 1.495 . S
C1045 H1051 0.959 . S
C1045 H1052 0.961 . S
C1045 H1053 0.960 . S
C1046 C1044 1.381 . S
C1046 C1047 1.394 . S
C1046 H1054 0.930 . S
C1047 C1046 1.394 . S
C1047 C1048 1.383 . S
C1047 H1055 0.929 . S
C1048 C1047 1.383 . S
C1048 C1049 1.377 . S
C1049 H1033 0.930 . S
C1049 C1048 1.377 . S
C1049 C1050 1.379 . S
C1050 H1034 0.931 . S
C1050 C1044 1.383 . S
C1050 C1049 1.379 . S
H1051 C1045 0.959 . S
H1052 C1045 0.961 . S
H1053 C1045 0.960 . S
H1054 C1046 0.930 . S
H1055 C1047 0.929 . S
H1056 C1064 0.929 . S
H1057 C1066 0.930 . S
H1058 C1068 0.930 . S
H1059 C1071 0.929 . S
H1060 C1074 0.930 . S
H1061 C1076 0.960 . S
H1062 C1076 0.960 . S
H1063 C1076 0.960 . S
C1064 H1056 0.929 . S
C1064 C1065 1.377 . S
C1064 C1066 1.384 . S
C1065 C1064 1.377 . S
C1065 C1071 1.390 . S
C1066 H1057 0.930 . S
C1066 C1064 1.384 . S
C1066 C1067 1.372 . S
C1067 C1066 1.372 . S
C1067 C1068 1.400 . S
C1067 C1072 1.490 . S
C1068 H1058 0.930 . S
C1068 C1067 1.400 . S
C1068 C1071 1.386 . S
H1069 C1085 0.930 . S
H1070 C1086 0.931 . S
C1071 H1059 0.929 . S
C1071 C1065 1.390 . S
C1071 C1068 1.386 . S
C1072 C1067 1.490 . S
C1072 C1074 1.395 . S
C1072 C1075 1.403 . S
H1073 C1079 0.930 . S
C1074 H1060 0.930 . S
C1074 C1072 1.395 . S
C1074 C1077 1.403 . S
C1075 C1072 1.403 . S
C1075 C1076 1.524 . S
C1075 C1079 1.400 . S
C1076 H1061 0.960 . S
C1076 H1062 0.960 . S
C1076 H1063 0.960 . S
C1076 C1075 1.524 . S
C1077 C1074 1.403 . S
C1077 C1078 1.392 . S
C1077 C1081 1.495 . S
C1078 C1077 1.392 . S
C1078 C1079 1.385 . S
C1078 C1080 1.478 . S
C1079 H1073 0.930 . S
C1079 C1075 1.400 . S
C1079 C1078 1.385 . S
C1080 C1078 1.478 . S
C1080 C1082 1.381 . S
C1080 C1086 1.383 . S
C1081 C1077 1.495 . S
C1081 H1087 0.959 . S
C1081 H1088 0.961 . S
C1081 H1089 0.960 . S
C1082 C1080 1.381 . S
C1082 C1083 1.394 . S
C1082 H1090 0.930 . S
C1083 C1082 1.394 . S
C1083 C1084 1.383 . S
C1083 H1091 0.929 . S
C1084 C1083 1.383 . S
C1084 C1085 1.377 . S
C1085 H1069 0.930 . S
C1085 C1084 1.377 . S
C1085 C1086 1.379 . S
C1086 H1070 0.931 . S
C1086 C1080 1.383 . S
C1086 C1085 1.379 . S
H1087 C1081 0.959 . S
H1088 C1081 0.961 . S
H1089 C1081 0.960 . S
H1090 C1082 0.930 . S
H1091 C1083 0.929 . S
H1092 C1100 0.929 . S
H1093 C1102 0.930 . S
H1094 C1104 0.930 . S
H1095 C1107 0.929 . S
H1096 C1110 0.930 . S
H1097 C1112 0.960 . S
H1098 C1112 0.960 . S
H1099 C1112 0.960 . S
C1100 H1092 0.929 . S
C1100 C1101 1.377 . S
C1100 C1102 1.384 . S
C1101 C1100 1.377 . S
C1101 C1107 1.390 . S
C1102 H1093 0.930 . S
C1102 C1100 1.384 . S
C1102 C1103 1.372 . S
C1103 C1102 1.372 . S
C1103 C1104 1.400 . S
C1103 C1108 1.490 . S
C1104 H1094 0.930 . S
C1104 C1103 1.400 . S
C1104 C1107 1.386 . S
H1105 C1121 0.930 1_455 S
H1106 C1122 0.931 . S
C1107 H1095 0.929 . S
C1107 C1101 1.390 . S
C1107 C1104 1.386 . S
C1108 C1103 1.490 . S
C1108 C1110 1.395 . S
C1108 C1111 1.403 . S
H1109 C1115 0.930 . S
C1110 H1096 0.930 . S
C1110 C1108 1.395 . S
C1110 C1113 1.403 . S
C1111 C1108 1.403 . S
C1111 C1112 1.524 . S
C1111 C1115 1.400 . S
C1112 H1097 0.960 . S
C1112 H1098 0.960 . S
C1112 H1099 0.960 . S
C1112 C1111 1.524 . S
C1113 C1110 1.403 . S
C1113 C1114 1.392 . S
C1113 C1117 1.495 . S
C1114 C1113 1.392 . S
C1114 C1115 1.385 . S
C1114 C1116 1.478 . S
C1115 H1109 0.930 . S
C1115 C1111 1.400 . S
C1115 C1114 1.385 . S
C1116 C1114 1.478 . S
C1116 C1118 1.381 . S
C1116 C1122 1.383 . S
C1117 C1113 1.495 . S
C1117 H1123 0.959 . S
C1117 H1124 0.961 . S
C1117 H1125 0.960 . S
C1118 C1116 1.381 . S
C1118 C1119 1.394 . S
C1118 H1126 0.930 . S
C1119 C1118 1.394 . S
C1119 C1120 1.383 . S
C1119 H1127 0.929 . S
C1120 C1119 1.383 . S
C1120 C1121 1.377 . S
C1121 H1105 0.930 1_655 S
C1121 C1120 1.377 . S
C1121 C1122 1.379 . S
C1122 H1106 0.931 . S
C1122 C1116 1.383 . S
C1122 C1121 1.379 . S
H1123 C1117 0.959 . S
H1124 C1117 0.961 . S
H1125 C1117 0.960 . S
H1126 C1118 0.930 . S
H1127 C1119 0.929 . S
H1128 C1136 0.929 . S
H1129 C1138 0.930 . S
H1130 C1140 0.930 . S
H1131 C1143 0.929 . S
H1132 C1146 0.930 . S
H1133 C1148 0.960 . S
H1134 C1148 0.960 . S
H1135 C1148 0.960 . S
C1136 H1128 0.929 . S
C1136 C1137 1.377 . S
C1136 C1138 1.384 . S
C1137 C1136 1.377 . S
C1137 C1143 1.390 . S
C1138 H1129 0.930 . S
C1138 C1136 1.384 . S
C1138 C1139 1.372 . S
C1139 C1138 1.372 . S
C1139 C1140 1.400 . S
C1139 C1144 1.490 . S
C1140 H1130 0.930 . S
C1140 C1139 1.400 . S
C1140 C1143 1.386 . S
H1141 C1157 0.930 . S
H1142 C1158 0.931 . S
C1143 H1131 0.929 . S
C1143 C1137 1.390 . S
C1143 C1140 1.386 . S
C1144 C1139 1.490 . S
C1144 C1146 1.395 . S
C1144 C1147 1.403 . S
H1145 C1151 0.930 . S
C1146 H1132 0.930 . S
C1146 C1144 1.395 . S
C1146 C1149 1.403 . S
C1147 C1144 1.403 . S
C1147 C1148 1.524 . S
C1147 C1151 1.400 . S
C1148 H1133 0.960 . S
C1148 H1134 0.960 . S
C1148 H1135 0.960 . S
C1148 C1147 1.524 . S
C1149 C1146 1.403 . S
C1149 C1150 1.392 . S
C1149 C1153 1.495 . S
C1150 C1149 1.392 . S
C1150 C1151 1.385 . S
C1150 C1152 1.478 . S
C1151 H1145 0.930 . S
C1151 C1147 1.400 . S
C1151 C1150 1.385 . S
C1152 C1150 1.478 . S
C1152 C1154 1.381 . S
C1152 C1158 1.383 . S
C1153 C1149 1.495 . S
C1153 H1159 0.959 . S
C1153 H1160 0.961 . S
C1153 H1161 0.960 . S
C1154 C1152 1.381 . S
C1154 C1155 1.394 . S
C1154 H1162 0.930 . S
C1155 C1154 1.394 . S
C1155 C1156 1.383 . S
C1155 H1163 0.929 . S
C1156 C1155 1.383 . S
C1156 C1157 1.377 . S
C1157 H1141 0.930 . S
C1157 C1156 1.377 . S
C1157 C1158 1.379 . S
C1158 H1142 0.931 . S
C1158 C1152 1.383 . S
C1158 C1157 1.379 . S
H1159 C1153 0.959 . S
H1160 C1153 0.961 . S
H1161 C1153 0.960 . S
H1162 C1154 0.930 . S
H1163 C1155 0.929 . S
H1164 C1172 0.929 . S
H1165 C1174 0.930 . S
H1166 C1176 0.930 . S
H1167 C1179 0.929 . S
H1168 C1182 0.930 . S
H1169 C1184 0.960 . S
H1170 C1184 0.960 . S
H1171 C1184 0.960 . S
C1172 H1164 0.929 . S
C1172 C1173 1.377 . S
C1172 C1174 1.384 . S
C1173 C1172 1.377 . S
C1173 C1179 1.390 . S
C1174 H1165 0.930 . S
C1174 C1172 1.384 . S
C1174 C1175 1.372 . S
C1175 C1174 1.372 . S
C1175 C1176 1.400 . S
C1175 C1180 1.490 . S
C1176 H1166 0.930 . S
C1176 C1175 1.400 . S
C1176 C1179 1.386 . S
H1177 C1193 0.930 . S
H1178 C1194 0.931 . S
C1179 H1167 0.929 . S
C1179 C1173 1.390 . S
C1179 C1176 1.386 . S
C1180 C1175 1.490 . S
C1180 C1182 1.395 . S
C1180 C1183 1.403 . S
H1181 C1187 0.930 . S
C1182 H1168 0.930 . S
C1182 C1180 1.395 . S
C1182 C1185 1.403 . S
C1183 C1180 1.403 . S
C1183 C1184 1.524 . S
C1183 C1187 1.400 . S
C1184 H1169 0.960 . S
C1184 H1170 0.960 . S
C1184 H1171 0.960 . S
C1184 C1183 1.524 . S
C1185 C1182 1.403 . S
C1185 C1186 1.392 . S
C1185 C1189 1.495 . S
C1186 C1185 1.392 . S
C1186 C1187 1.385 . S
C1186 C1188 1.478 . S
C1187 H1181 0.930 . S
C1187 C1183 1.400 . S
C1187 C1186 1.385 . S
C1188 C1186 1.478 . S
C1188 C1190 1.381 . S
C1188 C1194 1.383 . S
C1189 C1185 1.495 . S
C1189 H1195 0.959 . S
C1189 H1196 0.961 . S
C1189 H1197 0.960 . S
C1190 C1188 1.381 . S
C1190 C1191 1.394 . S
C1190 H1198 0.930 . S
C1191 C1190 1.394 . S
C1191 C1192 1.383 . S
C1191 H1199 0.929 . S
C1192 C1191 1.383 . S
C1192 C1193 1.377 . S
C1193 H1177 0.930 . S
C1193 C1192 1.377 . S
C1193 C1194 1.379 . S
C1194 H1178 0.931 . S
C1194 C1188 1.383 . S
C1194 C1193 1.379 . S
H1195 C1189 0.959 . S
H1196 C1189 0.961 . S
H1197 C1189 0.960 . S
H1198 C1190 0.930 . S
H1199 C1191 0.929 . S
H1200 C1208 0.929 . S
H1201 C1210 0.930 . S
H1202 C1212 0.930 . S
H1203 C1215 0.929 . S
H1204 C1218 0.930 . S
H1205 C1220 0.960 . S
H1206 C1220 0.960 . S
H1207 C1220 0.960 . S
C1208 H1200 0.929 . S
C1208 C1209 1.377 . S
C1208 C1210 1.384 . S
C1209 C1208 1.377 . S
C1209 C1215 1.390 . S
C1210 H1201 0.930 . S
C1210 C1208 1.384 . S
C1210 C1211 1.372 . S
C1211 C1210 1.372 . S
C1211 C1212 1.400 . S
C1211 C1216 1.490 . S
C1212 H1202 0.930 . S
C1212 C1211 1.400 . S
C1212 C1215 1.386 . S
H1213 C1229 0.930 . S
H1214 C1230 0.931 . S
C1215 H1203 0.929 . S
C1215 C1209 1.390 . S
C1215 C1212 1.386 . S
C1216 C1211 1.490 . S
C1216 C1218 1.395 . S
C1216 C1219 1.403 . S
H1217 C1223 0.930 . S
C1218 H1204 0.930 . S
C1218 C1216 1.395 . S
C1218 C1221 1.403 . S
C1219 C1216 1.403 . S
C1219 C1220 1.524 . S
C1219 C1223 1.400 . S
C1220 H1205 0.960 . S
C1220 H1206 0.960 . S
C1220 H1207 0.960 . S
C1220 C1219 1.524 . S
C1221 C1218 1.403 . S
C1221 C1222 1.392 . S
C1221 C1225 1.495 . S
C1222 C1221 1.392 . S
C1222 C1223 1.385 . S
C1222 C1224 1.478 . S
C1223 H1217 0.930 . S
C1223 C1219 1.400 . S
C1223 C1222 1.385 . S
C1224 C1222 1.478 . S
C1224 C1226 1.381 . S
C1224 C1230 1.383 . S
C1225 C1221 1.495 . S
C1225 H1231 0.959 . S
C1225 H1232 0.961 . S
C1225 H1233 0.960 . S
C1226 C1224 1.381 . S
C1226 C1227 1.394 . S
C1226 H1234 0.930 . S
C1227 C1226 1.394 . S
C1227 C1228 1.383 . S
C1227 H1235 0.929 . S
C1228 C1227 1.383 . S
C1228 C1229 1.377 . S
C1229 H1213 0.930 . S
C1229 C1228 1.377 . S
C1229 C1230 1.379 . S
C1230 H1214 0.931 . S
C1230 C1224 1.383 . S
C1230 C1229 1.379 . S
H1231 C1225 0.959 . S
H1232 C1225 0.961 . S
H1233 C1225 0.960 . S
H1234 C1226 0.930 . S
H1235 C1227 0.929 . S
H1236 C1244 0.929 . S
H1237 C1246 0.930 . S
H1238 C1248 0.930 . S
H1239 C1251 0.929 . S
H1240 C1254 0.930 . S
H1241 C1256 0.960 . S
H1242 C1256 0.960 . S
H1243 C1256 0.960 . S
C1244 H1236 0.929 . S
C1244 C1245 1.377 . S
C1244 C1246 1.384 . S
C1245 C1244 1.377 . S
C1245 C1251 1.390 . S
C1246 H1237 0.930 . S
C1246 C1244 1.384 . S
C1246 C1247 1.372 . S
C1247 C1246 1.372 . S
C1247 C1248 1.400 . S
C1247 C1252 1.490 . S
C1248 H1238 0.930 . S
C1248 C1247 1.400 . S
C1248 C1251 1.386 . S
H1249 C1265 0.930 . S
H1250 C1266 0.931 . S
C1251 H1239 0.929 . S
C1251 C1245 1.390 . S
C1251 C1248 1.386 . S
C1252 C1247 1.490 . S
C1252 C1254 1.395 . S
C1252 C1255 1.403 . S
H1253 C1259 0.930 . S
C1254 H1240 0.930 . S
C1254 C1252 1.395 . S
C1254 C1257 1.403 . S
C1255 C1252 1.403 . S
C1255 C1256 1.524 . S
C1255 C1259 1.400 . S
C1256 H1241 0.960 . S
C1256 H1242 0.960 . S
C1256 H1243 0.960 . S
C1256 C1255 1.524 . S
C1257 C1254 1.403 . S
C1257 C1258 1.392 . S
C1257 C1261 1.495 . S
C1258 C1257 1.392 . S
C1258 C1259 1.385 . S
C1258 C1260 1.478 . S
C1259 H1253 0.930 . S
C1259 C1255 1.400 . S
C1259 C1258 1.385 . S
C1260 C1258 1.478 . S
C1260 C1262 1.381 . S
C1260 C1266 1.383 . S
C1261 C1257 1.495 . S
C1261 H1267 0.959 . S
C1261 H1268 0.961 . S
C1261 H1269 0.960 . S
C1262 C1260 1.381 . S
C1262 C1263 1.394 . S
C1262 H1270 0.930 . S
C1263 C1262 1.394 . S
C1263 C1264 1.383 . S
C1263 H1271 0.929 . S
C1264 C1263 1.383 . S
C1264 C1265 1.377 . S
C1265 H1249 0.930 . S
C1265 C1264 1.377 . S
C1265 C1266 1.379 . S
C1266 H1250 0.931 . S
C1266 C1260 1.383 . S
C1266 C1265 1.379 . S
H1267 C1261 0.959 . S
H1268 C1261 0.961 . S
H1269 C1261 0.960 . S
H1270 C1262 0.930 . S
H1271 C1263 0.929 . S
H1272 C1280 0.929 . S
H1273 C1282 0.930 . S
H1274 C1284 0.930 . S
H1275 C1287 0.929 . S
H1276 C1290 0.930 . S
H1277 C1292 0.960 . S
H1278 C1292 0.960 . S
H1279 C1292 0.960 . S
C1280 H1272 0.929 . S
C1280 C1281 1.377 . S
C1280 C1282 1.384 . S
C1281 C1280 1.377 . S
C1281 C1287 1.390 . S
C1282 H1273 0.930 . S
C1282 C1280 1.384 . S
C1282 C1283 1.372 . S
C1283 C1282 1.372 . S
C1283 C1284 1.400 . S
C1283 C1288 1.490 . S
C1284 H1274 0.930 . S
C1284 C1283 1.400 . S
C1284 C1287 1.386 . S
H1285 C1301 0.930 . S
H1286 C1302 0.931 . S
C1287 H1275 0.929 . S
C1287 C1281 1.390 . S
C1287 C1284 1.386 . S
C1288 C1283 1.490 . S
C1288 C1290 1.395 . S
C1288 C1291 1.403 . S
H1289 C1295 0.930 . S
C1290 H1276 0.930 . S
C1290 C1288 1.395 . S
C1290 C1293 1.403 . S
C1291 C1288 1.403 . S
C1291 C1292 1.524 . S
C1291 C1295 1.400 . S
C1292 H1277 0.960 . S
C1292 H1278 0.960 . S
C1292 H1279 0.960 . S
C1292 C1291 1.524 . S
C1293 C1290 1.403 . S
C1293 C1294 1.392 . S
C1293 C1297 1.495 . S
C1294 C1293 1.392 . S
C1294 C1295 1.385 . S
C1294 C1296 1.478 . S
C1295 H1289 0.930 . S
C1295 C1291 1.400 . S
C1295 C1294 1.385 . S
C1296 C1294 1.478 . S
C1296 C1298 1.381 . S
C1296 C1302 1.383 . S
C1297 C1293 1.495 . S
C1297 H1303 0.959 . S
C1297 H1304 0.961 . S
C1297 H1305 0.960 . S
C1298 C1296 1.381 . S
C1298 C1299 1.394 . S
C1298 H1306 0.930 . S
C1299 C1298 1.394 . S
C1299 C1300 1.383 . S
C1299 H1307 0.929 . S
C1300 C1299 1.383 . S
C1300 C1301 1.377 . S
C1301 H1285 0.930 . S
C1301 C1300 1.377 . S
C1301 C1302 1.379 . S
C1302 H1286 0.931 . S
C1302 C1296 1.383 . S
C1302 C1301 1.379 . S
H1303 C1297 0.959 . S
H1304 C1297 0.961 . S
H1305 C1297 0.960 . S
H1306 C1298 0.930 . S
H1307 C1299 0.929 . S
H1308 C1316 0.929 . S
H1309 C1318 0.930 . S
H1310 C1320 0.930 . S
H1311 C1323 0.929 . S
H1312 C1326 0.930 . S
H1313 C1328 0.960 . S
H1314 C1328 0.960 . S
H1315 C1328 0.960 . S
C1316 H1308 0.929 . S
C1316 C1317 1.377 . S
C1316 C1318 1.384 . S
C1317 C1316 1.377 . S
C1317 C1323 1.390 . S
C1318 H1309 0.930 . S
C1318 C1316 1.384 . S
C1318 C1319 1.372 . S
C1319 C1318 1.372 . S
C1319 C1320 1.400 . S
C1319 C1324 1.490 . S
C1320 H1310 0.930 . S
C1320 C1319 1.400 . S
C1320 C1323 1.386 . S
H1321 C1337 0.930 . S
H1322 C1338 0.931 . S
C1323 H1311 0.929 . S
C1323 C1317 1.390 . S
C1323 C1320 1.386 . S
C1324 C1319 1.490 . S
C1324 C1326 1.395 . S
C1324 C1327 1.403 . S
H1325 C1331 0.930 . S
C1326 H1312 0.930 . S
C1326 C1324 1.395 . S
C1326 C1329 1.403 . S
C1327 C1324 1.403 . S
C1327 C1328 1.524 . S
C1327 C1331 1.400 . S
C1328 H1313 0.960 . S
C1328 H1314 0.960 . S
C1328 H1315 0.960 . S
C1328 C1327 1.524 . S
C1329 C1326 1.403 . S
C1329 C1330 1.392 . S
C1329 C1333 1.495 . S
C1330 C1329 1.392 . S
C1330 C1331 1.385 . S
C1330 C1332 1.478 . S
C1331 H1325 0.930 . S
C1331 C1327 1.400 . S
C1331 C1330 1.385 . S
C1332 C1330 1.478 . S
C1332 C1334 1.381 . S
C1332 C1338 1.383 . S
C1333 C1329 1.495 . S
C1333 H1339 0.959 . S
C1333 H1340 0.961 . S
C1333 H1341 0.960 . S
C1334 C1332 1.381 . S
C1334 C1335 1.394 . S
C1334 H1342 0.930 . S
C1335 C1334 1.394 . S
C1335 C1336 1.383 . S
C1335 H1343 0.929 . S
C1336 C1335 1.383 . S
C1336 C1337 1.377 . S
C1337 H1321 0.930 . S
C1337 C1336 1.377 . S
C1337 C1338 1.379 . S
C1338 H1322 0.931 . S
C1338 C1332 1.383 . S
C1338 C1337 1.379 . S
H1339 C1333 0.959 . S
H1340 C1333 0.961 . S
H1341 C1333 0.960 . S
H1342 C1334 0.930 . S
H1343 C1335 0.929 . S
C489 C21 1.341 . S
C508 C335 1.371 . S
C525 C61 1.359 . S
C544 C375 1.324 . S
C580 C409 2.044 . S
C561 C82 2.057 . S
C597 C135 2.671 . S
C616 C450 2.623 . S
C652 C370 1.491 . S
C633 C15 1.459 . S
C688 C330 2.328 . S
C669 C42 2.308 . S
C724 C458 1.411 . S
C705 C101 1.410 . S
C760 C419 1.711 . S
C741 C122 1.758 . S
C777 C2 1.191 . S
C796 C455 1.244 . S
C832 C378 1.847 . S
C813 C95 1.881 . S
C849 C141 2.501 . S
C868 C338 2.462 . S
C885 C55 1.616 . S
C904 C406 1.663 . S
C940 C326 1.414 . S
C921 C181 1.413 . S
C957 C202 1.335 . S
C976 C366 1.305 . S
C993 C255 2.110 . S
C1012 C418 2.070 . S
C1029 C295 2.635 . S
C1048 C459 2.599 . S
C1065 C175 1.442 . S
C1084 C379 1.469 . S
C1120 C339 2.329 . S
C1101 C221 2.301 . S
C1156 C449 1.359 . S
C1137 C242 1.372 . S
C1192 C410 1.815 . S
C1173 C301 1.808 . S
C1209 C162 1.248 . S
C1228 C446 1.221 . S
C1264 C369 1.861 . S
C1245 C261 1.929 . S
C1300 C329 2.426 . S
C1281 C282 2.489 . S
C1317 C215 1.628 . S
C1336 C415 1.662 . S
