# Generated by pormake.
# Topology anh, (6,3)-cn, num edge types: 1
# Building blocks:
#     Node 0, Type 0, BuildingBlock: INOVEN_clean_sbu_0, # of connection points: 6
#     Node 1, Type 0, BuildingBlock: INOVEN_clean_sbu_0, # of connection points: 6
#     Node 2, Type 0, BuildingBlock: INOVEN_clean_sbu_0, # of connection points: 6
#     Node 3, Type 1, BuildingBlock: OLANEW_clean_sbu_2, # of connection points: 3
#     Node 4, Type 1, BuildingBlock: OLANEW_clean_sbu_2, # of connection points: 3
#     Node 5, Type 1, BuildingBlock: OLANEW_clean_sbu_2, # of connection points: 3
#     Node 6, Type 1, BuildingBlock: OLANEW_clean_sbu_2, # of connection points: 3
#     Node 7, Type 1, BuildingBlock: OLANEW_clean_sbu_2, # of connection points: 3
#     Node 8, Type 1, BuildingBlock: OLANEW_clean_sbu_2, # of connection points: 3
#     Edge 9, Type (0, 1), BuildingBlock: TEMPAE_clean_linker_10, # of connection points: 2
#     Edge 10, Type (0, 1), BuildingBlock: TEMPAE_clean_linker_10, # of connection points: 2
#     Edge 11, Type (0, 1), BuildingBlock: TEMPAE_clean_linker_10, # of connection points: 2
#     Edge 12, Type (0, 1), BuildingBlock: TEMPAE_clean_linker_10, # of connection points: 2
#     Edge 13, Type (0, 1), BuildingBlock: TEMPAE_clean_linker_10, # of connection points: 2
#     Edge 14, Type (0, 1), BuildingBlock: TEMPAE_clean_linker_10, # of connection points: 2
#     Edge 15, Type (0, 1), BuildingBlock: TEMPAE_clean_linker_10, # of connection points: 2
#     Edge 16, Type (0, 1), BuildingBlock: TEMPAE_clean_linker_10, # of connection points: 2
#     Edge 17, Type (0, 1), BuildingBlock: TEMPAE_clean_linker_10, # of connection points: 2
#     Edge 18, Type (0, 1), BuildingBlock: TEMPAE_clean_linker_10, # of connection points: 2
#     Edge 19, Type (0, 1), BuildingBlock: TEMPAE_clean_linker_10, # of connection points: 2
#     Edge 20, Type (0, 1), BuildingBlock: TEMPAE_clean_linker_10, # of connection points: 2
#     Edge 21, Type (0, 1), BuildingBlock: TEMPAE_clean_linker_10, # of connection points: 2
#     Edge 22, Type (0, 1), BuildingBlock: TEMPAE_clean_linker_10, # of connection points: 2
#     Edge 23, Type (0, 1), BuildingBlock: TEMPAE_clean_linker_10, # of connection points: 2
#     Edge 24, Type (0, 1), BuildingBlock: TEMPAE_clean_linker_10, # of connection points: 2
#     Edge 25, Type (0, 1), BuildingBlock: TEMPAE_clean_linker_10, # of connection points: 2
#     Edge 26, Type (0, 1), BuildingBlock: TEMPAE_clean_linker_10, # of connection points: 2
# Relax obj value: 0.138
# Max RMSD: 0.172
# Mean RMSD: 0.115
data_MOF--net-anh--node1-INOVEN_clean_sbu_0--node2-OLANEW_clean_sbu_2--edge1-TEMPAE_clean_linker_10
_symmetry_space_group_name_H-M    P1
_symmetry_Int_Tables_number       1
_symmetry_cell_setting            triclinic
loop_
_symmetry_equiv_pos_as_xyz
'x, y, z'
_cell_length_a     37.270933
_cell_length_b     41.399938
_cell_length_c     51.316278
_cell_angle_alpha  92.833958
_cell_angle_beta   89.421862
_cell_angle_gamma 129.8286
loop_
_atom_site_label
_atom_site_type_symbol
_atom_site_fract_x
_atom_site_fract_y
_atom_site_fract_z
_atom_type_partial_charge
Gd0 Gd 0.03626 0.50822 0.11864 0.0
Gd1 Gd 1.00069 0.55122 0.14254 0.0
C2 C 0.10825 0.61085 0.13033 0.0
C3 C 0.07487 0.48463 0.09109 0.0
C4 C 0.11605 0.48843 0.09611 0.0
C5 C 0.13429 0.49726 0.12168 0.0
C6 C 0.13594 0.4813 0.07579 0.0
C7 C 0.1897 0.48843 0.10693 0.0
C8 C 0.17278 0.48149 0.08114 0.0
C9 C 0.17066 0.49698 0.12708 0.0
C10 C 0.03774 0.51254 0.17134 0.0
C11 C 0.92967 0.44999 0.13126 0.0
C12 C 0.96202 0.57395 0.17121 0.0
C13 C 0.91529 0.55232 0.18158 0.0
C14 C 0.89817 0.57401 0.18469 0.0
C15 C 0.88602 0.50922 0.18611 0.0
C16 C 0.82114 0.5086 0.1935 0.0
C17 C 0.83923 0.48746 0.19201 0.0
C18 C 0.85148 0.55237 0.19073 0.0
C19 C 1.00322 0.54825 0.08973 0.0
O20 O 0.09911 0.57808 0.11674 0.0
O21 O 0.07644 0.60703 0.14487 0.0
O22 O 0.04008 0.45994 0.10646 0.0
O23 O 0.08292 0.51988 0.08775 0.0
O24 O 0.03098 0.48204 0.15745 0.0
O25 O 0.0476 0.54068 0.15687 0.0
O26 O 0.94118 0.4817 0.14708 0.0
O27 O 0.95897 0.45557 0.11363 0.0
O28 O 0.96454 0.57629 0.14585 0.0
O29 O 0.9861 0.56411 0.18079 0.0
O30 O 1.0132 0.58032 0.10357 0.0
O31 O 0.99036 0.51925 0.1043 0.0
H32 H 0.11952 0.50324 0.13757 0.0
H33 H 0.12225 0.47456 0.05596 0.0
H34 H 0.1868 0.47459 0.06532 0.0
H35 H 0.18347 0.50283 0.14705 0.0
H36 H 0.9204 0.60734 0.18139 0.0
H37 H 0.89879 0.49204 0.18403 0.0
H38 H 0.81667 0.45373 0.19385 0.0
H39 H 0.83858 0.56955 0.19214 0.0
Gd40 Gd 0.56545 0.02422 0.47791 0.0
Gd41 Gd 0.50459 0.04715 0.46735 0.0
C42 C 0.45295 0.94999 0.46659 0.0
C43 C 0.60239 0.99425 0.49666 0.0
C44 C 0.59052 0.95317 0.49855 0.0
C45 C 0.62431 0.95153 0.50811 0.0
C46 C 0.5459 0.91562 0.49116 0.0
C47 C 0.56865 0.8749 0.50373 0.0
C48 C 0.53501 0.87674 0.49373 0.0
C49 C 0.61355 0.91277 0.51066 0.0
C50 C 0.56017 0.03657 0.42759 0.0
C51 C 0.61769 0.12151 0.47637 0.0
C52 C 0.46924 0.07983 0.45105 0.0
C53 C 0.47984 0.12076 0.4554 0.0
C54 C 0.44727 0.12216 0.46806 0.0
C55 C 0.52259 0.15863 0.44816 0.0
C56 C 0.50089 0.1986 0.46761 0.0
C57 C 0.53295 0.1972 0.45416 0.0
C58 C 0.45773 0.16066 0.4742 0.0
C59 C 0.51239 0.03659 0.51788 0.0
O60 O 0.49205 0.96083 0.47677 0.0
O61 O 0.45068 0.97806 0.45779 0.0
O62 O 0.61035 0.00825 0.47324 0.0
O63 O 0.57724 1.00038 0.5104 0.0
O64 O 0.59747 0.04673 0.43878 0.0
O65 O 0.52647 0.01774 0.44294 0.0
O66 O 0.57792 0.10993 0.46674 0.0
O67 O 0.6203 0.0939 0.48572 0.0
O68 O 0.45396 0.05659 0.47126 0.0
O69 O 0.49894 0.07926 0.43764 0.0
O70 O 0.47448 0.02584 0.50729 0.0
O71 O 0.5448 0.05484 0.50185 0.0
H72 H 0.65902 0.98027 0.51375 0.0
H73 H 0.51941 0.91634 0.48367 0.0
H74 H 0.50003 0.84815 0.48842 0.0
H75 H 0.64044 0.91244 0.51802 0.0
H76 H 0.41395 0.09341 0.47366 0.0
H77 H 0.54839 0.15861 0.43829 0.0
H78 H 0.56657 0.226 0.44896 0.0
H79 H 0.43211 0.16078 0.48424 0.0
Gd80 Gd 0.60814 0.57866 0.85077 0.0
Gd81 Gd 0.54086 0.48747 0.86523 0.0
C82 C 0.498 0.53241 0.85982 0.0
C83 C 0.64828 0.65028 0.83067 0.0
C84 C 0.63536 0.67623 0.82474 0.0
C85 C 0.66605 0.71925 0.8324 0.0
C86 C 0.59259 0.6587 0.81213 0.0
C87 C 0.61167 0.72713 0.81501 0.0
C88 C 0.58097 0.68401 0.80719 0.0
C89 C 0.6543 0.74444 0.82766 0.0
C90 C 0.60297 0.56565 0.90204 0.0
C91 C 0.65287 0.53556 0.85803 0.0
C92 C 0.5015 0.41632 0.88584 0.0
C93 C 0.50783 0.38483 0.88234 0.0
C94 C 0.5422 0.39213 0.86573 0.0
C95 C 0.47833 0.3466 0.89456 0.0
C96 C 0.51599 0.3222 0.87247 0.0
C97 C 0.48237 0.31548 0.88968 0.0
C98 C 0.5464 0.36121 0.86093 0.0
C99 C 0.54625 0.49849 0.81356 0.0
O100 O 0.53631 0.56068 0.84699 0.0
O101 O 0.49454 0.50379 0.87286 0.0
O102 O 0.65218 0.64666 0.85544 0.0
O103 O 0.62763 0.61493 0.81664 0.0
O104 O 0.64201 0.59384 0.89085 0.0
O105 O 0.56924 0.54703 0.88594 0.0
O106 O 0.61219 0.50426 0.86778 0.0
O107 O 0.6587 0.56668 0.84684 0.0
O108 O 0.48398 0.42025 0.86548 0.0
O109 O 0.53674 0.45264 0.89698 0.0
O110 O 0.50817 0.46868 0.82476 0.0
O111 O 0.58006 0.5189 0.82978 0.0
H112 H 0.69915 0.73337 0.84216 0.0
H113 H 0.56806 0.62548 0.80621 0.0
H114 H 0.54771 0.66978 0.79761 0.0
H115 H 0.67884 0.77764 0.83364 0.0
H116 H 0.5652 0.42144 0.85605 0.0
H117 H 0.45153 0.34046 0.90739 0.0
H118 H 0.45817 0.28566 0.89869 0.0
H119 H 0.57313 0.36767 0.84791 0.0
O120 O 0.54995 0.0684 0.22028 0.0
Cd121 Cd 0.55545 0.07348 0.17285 0.0
O122 O 0.51273 1.00022 0.21991 0.0
Cd123 Cd 0.49494 0.98224 0.17837 0.0
O124 O 0.43995 0.92441 0.15541 0.0
C125 C 0.42669 0.89075 0.16516 0.0
O126 O 0.44857 0.89398 0.18634 0.0
C127 C 0.53274 0.03543 0.23244 0.0
C128 C 0.6343 0.15468 0.16049 0.0
O129 O 0.59391 0.14469 0.16166 0.0
O130 O 0.63728 0.12624 0.16484 0.0
O131 O 0.57761 0.52752 0.60471 0.0
Cd132 Cd 0.58218 0.53542 0.55759 0.0
O133 O 0.54858 0.55943 0.61232 0.0
Cd134 Cd 0.54845 0.57414 0.57213 0.0
O135 O 0.54704 0.61311 0.54584 0.0
C136 C 0.51315 0.61328 0.54785 0.0
O137 O 0.47963 0.58781 0.56389 0.0
C138 C 0.56253 0.54063 0.62064 0.0
C139 C 0.56862 0.46728 0.53178 0.0
O140 O 0.6094 0.50008 0.53995 0.0
O141 O 0.53436 0.46702 0.53545 0.0
O142 O 0.12751 0.55077 0.90054 0.0
Cd143 Cd 0.16663 0.55532 0.85986 0.0
O144 O 0.07128 0.54749 0.88312 0.0
Cd145 Cd 1.01086 0.54648 0.88096 0.0
O146 O 0.94849 0.54104 0.87345 0.0
C147 C 0.93254 0.55188 0.89063 0.0
O148 O 0.95374 0.56679 0.91368 0.0
C149 C 0.09191 0.54859 0.9033 0.0
C150 C 0.23705 0.54821 0.86355 0.0
O151 O 0.24586 0.5832 0.86932 0.0
O152 O 0.19486 0.51629 0.85675 0.0
O153 O 0.07076 0.55029 0.38194 0.0
Cd154 Cd 0.07501 0.56636 0.42882 0.0
O155 O 0.99399 0.50929 0.37864 0.0
Cd156 Cd 0.97855 0.4968 0.41988 0.0
O157 O 0.92612 0.44229 0.44235 0.0
C158 C 0.90648 0.4073 0.42963 0.0
O159 O 0.92052 0.40781 0.40594 0.0
C160 C 0.03342 0.52924 0.36794 0.0
C161 C 0.15791 0.64837 0.44031 0.0
O162 O 0.15437 0.61661 0.44586 0.0
O163 O 0.12232 0.64149 0.42993 0.0
O164 O 0.54056 0.99384 0.72112 0.0
Cd165 Cd 0.5464 0.98953 0.76807 0.0
O166 O 0.55369 0.05386 0.72537 0.0
Cd167 Cd 0.55693 0.06224 0.7679 0.0
O168 O 0.55675 0.09999 0.79921 0.0
C169 C 0.51842 0.09232 0.80381 0.0
O170 O 0.48023 0.05986 0.79129 0.0
C171 C 0.54608 0.02408 0.7109 0.0
C172 C 0.55726 0.93041 0.77824 0.0
O173 O 0.51664 0.92001 0.77751 0.0
O174 O 0.59262 0.96872 0.77427 0.0
O175 O 0.48944 0.40806 0.07706 0.0
Cd176 Cd 0.44068 0.36462 0.11347 0.0
O177 O 0.54335 0.46914 0.09827 0.0
Cd178 Cd 0.50329 0.452 0.13325 0.0
O179 O 0.44823 0.45376 0.1441 0.0
C180 C 0.41559 0.43604 0.12691 0.0
O181 O 0.41659 0.41631 0.10642 0.0
C182 C 0.52739 0.44608 0.07721 0.0
C183 C 0.4958 0.36458 0.14962 0.0
O184 O 0.48426 0.38756 0.15373 0.0
O185 O 0.47916 0.33987 0.12902 0.0
C186 C 0.26574 0.50454 0.0987 0.0
C187 C 0.22495 0.48399 0.11303 0.0
C188 C 0.29787 0.49829 0.1033 0.0
C189 C 0.28837 0.47025 0.12235 0.0
C190 C 0.24774 0.45022 0.1373 0.0
C191 C 0.21659 0.45754 0.13255 0.0
C192 C 0.34128 0.52072 0.08727 0.0
C193 C 0.23618 0.41973 0.15753 0.0
C194 C 0.34189 0.41831 0.11056 0.0
C195 C 0.38061 0.44206 0.1279 0.0
C196 C 0.31091 0.4265 0.1091 0.0
C197 C 0.31915 0.45952 0.12521 0.0
C198 C 0.3574 0.48286 0.14332 0.0
C199 C 0.38761 0.47366 0.14456 0.0
C200 C 0.27007 0.40055 0.0898 0.0
C201 C 0.36734 0.51846 0.16067 0.0
H202 H 0.27231 0.52529 0.08378 0.0
H203 H 0.18475 0.44134 0.14346 0.0
H204 H 0.37279 0.53729 0.10024 0.0
H205 H 0.33976 0.49741 0.07453 0.0
H206 H 0.34534 0.544 0.07479 0.0
H207 H 0.20486 0.40899 0.16868 0.0
H208 H 0.22956 0.39174 0.14783 0.0
H209 H 0.26614 0.4345 0.17146 0.0
H210 H 0.33618 0.39369 0.09775 0.0
H211 H 0.41764 0.49226 0.15792 0.0
H212 H 0.27392 0.42098 0.07485 0.0
H213 H 0.23696 0.38681 0.09987 0.0
H214 H 0.26718 0.37456 0.07972 0.0
H215 H 0.37568 0.5438 0.14848 0.0
H216 H 0.39706 0.53209 0.17463 0.0
H217 H 0.33599 0.50732 0.17186 0.0
C218 C 0.65876 0.19534 0.46408 0.0
C219 C 0.66065 0.16619 0.47527 0.0
C220 C 0.69964 0.2363 0.45975 0.0
C221 C 0.74361 0.2486 0.46691 0.0
C222 C 0.74565 0.2202 0.47962 0.0
C223 C 0.70415 0.17927 0.4836 0.0
C224 C 0.69583 0.26557 0.44616 0.0
C225 C 0.79181 0.23226 0.4878 0.0
C226 C 0.84445 0.32911 0.42492 0.0
C227 C 0.86666 0.36671 0.44025 0.0
C228 C 0.805 0.2905 0.43365 0.0
C229 C 0.78726 0.28925 0.45844 0.0
C230 C 0.81014 0.32686 0.47436 0.0
C231 C 0.84956 0.36523 0.46505 0.0
C232 C 0.78162 0.25115 0.41602 0.0
C233 C 0.79242 0.32666 0.50098 0.0
H234 H 0.62538 0.18576 0.45777 0.0
H235 H 0.70603 0.15714 0.49244 0.0
H236 H 0.71669 0.29675 0.45696 0.0
H237 H 0.71024 0.2707 0.42635 0.0
H238 H 0.65908 0.25279 0.44422 0.0
H239 H 0.78724 0.2088 0.50034 0.0
H240 H 0.81081 0.23474 0.4702 0.0
H241 H 0.81409 0.26353 0.49854 0.0
H242 H 0.8574 0.32982 0.40577 0.0
H243 H 0.86656 0.3941 0.47705 0.0
H244 H 0.74535 0.23765 0.411 0.0
H245 H 0.77944 0.22698 0.42624 0.0
H246 H 0.80054 0.25731 0.39761 0.0
H247 H 0.75713 0.31713 0.49894 0.0
H248 H 0.81582 0.35802 0.51163 0.0
H249 H 0.789 0.30323 0.51291 0.0
C250 C 0.5833 0.75309 0.78508 0.0
C251 C 0.59971 0.75427 0.80986 0.0
C252 C 0.57447 0.78039 0.77959 0.0
C253 C 0.58174 0.80919 0.79947 0.0
C254 C 0.59707 0.80967 0.82473 0.0
C255 C 0.60611 0.78237 0.82958 0.0
C256 C 0.55856 0.77918 0.75236 0.0
C257 C 0.60462 0.83948 0.84654 0.0
C258 C 0.60688 0.9094 0.78048 0.0
C259 C 0.56323 0.89916 0.78346 0.0
C260 C 0.61318 0.88023 0.78534 0.0
C261 C 0.57504 0.83993 0.79363 0.0
C262 C 0.53088 0.82937 0.7967 0.0
C263 C 0.52543 0.85903 0.79144 0.0
C264 C 0.66074 0.89257 0.78163 0.0
C265 C 0.4895 0.78687 0.80575 0.0
H266 H 0.57867 0.73164 0.76974 0.0
H267 H 0.61821 0.78296 0.84886 0.0
H268 H 0.52547 0.77402 0.75301 0.0
H269 H 0.58505 0.80993 0.74367 0.0
H270 H 0.55303 0.75397 0.73936 0.0
H271 H 0.61446 0.8345 0.86537 0.0
H272 H 0.63271 0.87252 0.84145 0.0
H273 H 0.57238 0.83541 0.84921 0.0
H274 H 0.63621 0.94025 0.77421 0.0
H275 H 0.49161 0.85089 0.79385 0.0
H276 H 0.65798 0.86989 0.76747 0.0
H277 H 0.6743 0.89135 0.80038 0.0
H278 H 0.68649 0.92475 0.77448 0.0
H279 H 0.48214 0.76148 0.79213 0.0
H280 H 0.45748 0.78349 0.80707 0.0
H281 H 0.49761 0.78208 0.82522 0.0
C282 C 0.74883 0.49297 0.17691 0.0
C283 C 0.77002 0.48436 0.19438 0.0
C284 C 0.70027 0.46796 0.17503 0.0
C285 C 0.67198 0.43343 0.19113 0.0
C286 C 0.69306 0.42539 0.20955 0.0
C287 C 0.74201 0.45081 0.2108 0.0
C288 C 0.67927 0.47765 0.15501 0.0
C289 C 0.66412 0.38926 0.22728 0.0
C290 C 0.55175 0.39982 0.18781 0.0
C291 C 0.533 0.37158 0.16581 0.0
C292 C 0.59526 0.41656 0.19874 0.0
C293 C 0.62051 0.40507 0.18714 0.0
C294 C 0.59895 0.37251 0.16719 0.0
C295 C 0.55519 0.35595 0.1568 0.0
C296 C 0.61642 0.45008 0.22068 0.0
C297 C 0.62444 0.35889 0.15455 0.0
H298 H 0.77022 0.51832 0.16382 0.0
H299 H 0.75835 0.44416 0.22439 0.0
H300 H 0.6575 0.4506 0.14051 0.0
H301 H 0.6562 0.48259 0.16461 0.0
H302 H 0.70631 0.50618 0.14441 0.0
H303 H 0.68527 0.393 0.2441 0.0
H304 H 0.63417 0.38632 0.23478 0.0
H305 H 0.64972 0.3594 0.21612 0.0
H306 H 0.53424 0.41133 0.19527 0.0
H307 H 0.5405 0.33356 0.14008 0.0
H308 H 0.64126 0.48159 0.21256 0.0
H309 H 0.6362 0.44691 0.23482 0.0
H310 H 0.58929 0.44867 0.23122 0.0
H311 H 0.65119 0.38342 0.14147 0.0
H312 H 0.60036 0.32868 0.14275 0.0
H313 H 0.64282 0.35529 0.16945 0.0
C314 C 0.41422 0.87441 0.45611 0.0
C315 C 0.41091 0.90516 0.46431 0.0
C316 C 0.37394 0.83186 0.45257 0.0
C317 C 0.32966 0.81978 0.45835 0.0
C318 C 0.32655 0.85069 0.46765 0.0
C319 C 0.36715 0.89315 0.47 0.0
C320 C 0.37862 0.80016 0.44176 0.0
C321 C 0.28031 0.83897 0.47499 0.0
C322 C 0.21818 0.72116 0.42598 0.0
C323 C 0.20215 0.69177 0.44495 0.0
C324 C 0.26047 0.76251 0.42975 0.0
C325 C 0.28628 0.77522 0.45357 0.0
C326 C 0.26984 0.74567 0.47295 0.0
C327 C 0.22839 0.70395 0.46816 0.0
C328 C 0.2776 0.79254 0.4082 0.0
C329 C 0.29533 0.7584 0.49898 0.0
H330 H 0.44815 0.88386 0.45154 0.0
H331 H 0.36478 0.917 0.47664 0.0
H332 H 0.36282 0.77406 0.45504 0.0
H333 H 0.35932 0.78616 0.42272 0.0
H334 H 0.41566 0.8145 0.43888 0.0
H335 H 0.2845 0.86612 0.48417 0.0
H336 H 0.25725 0.82708 0.45735 0.0
H337 H 0.26232 0.81326 0.48875 0.0
H338 H 0.19803 0.7115 0.40792 0.0
H339 H 0.21572 0.68115 0.48287 0.0
H340 H 0.31397 0.80665 0.40342 0.0
H341 H 0.27803 0.81872 0.41475 0.0
H342 H 0.25531 0.7768 0.39016 0.0
H343 H 0.33158 0.77065 0.49613 0.0
H344 H 0.27768 0.73176 0.51206 0.0
H345 H 0.29771 0.78421 0.50883 0.0
C346 C 0.52312 0.2804 0.83927 0.0
C347 C 0.5178 0.288 0.86539 0.0
C348 C 0.52381 0.24776 0.8319 0.0
C349 C 0.51894 0.22185 0.85109 0.0
C350 C 0.51387 0.22943 0.87754 0.0
C351 C 0.51328 0.26241 0.88438 0.0
C352 C 0.52909 0.24064 0.80345 0.0
C353 C 0.50876 0.20256 0.89853 0.0
C354 C 0.47582 0.1155 0.82321 0.0
C355 C 0.51792 0.12294 0.81971 0.0
C356 C 0.47539 0.14669 0.83477 0.0
C357 C 0.51809 0.18631 0.84305 0.0
C358 C 0.56039 0.19313 0.84103 0.0
C359 C 0.55981 0.16135 0.82939 0.0
C360 C 0.42949 0.13804 0.83673 0.0
C361 C 0.60661 0.23487 0.84975 0.0
H362 H 0.52579 0.29952 0.82441 0.0
H363 H 0.50957 0.26835 0.90463 0.0
H364 H 0.55981 0.24223 0.80111 0.0
H365 H 0.49784 0.20872 0.79616 0.0
H366 H 0.5335 0.26416 0.79105 0.0
H367 H 0.50617 0.21313 0.91826 0.0
H368 H 0.477 0.16928 0.89442 0.0
H369 H 0.53907 0.20334 0.89861 0.0
H370 H 0.44322 0.08582 0.816 0.0
H371 H 0.59249 0.16734 0.82692 0.0
H372 H 0.42874 0.15744 0.82294 0.0
H373 H 0.42567 0.14702 0.85664 0.0
H374 H 0.39906 0.10438 0.83205 0.0
H375 H 0.61559 0.2593 0.83644 0.0
H376 H 0.63542 0.2335 0.84973 0.0
H377 H 0.60428 0.24504 0.86965 0.0
C378 C 0.53098 0.80044 0.48858 0.0
C379 C 0.55689 0.83378 0.50761 0.0
C380 C 0.52041 0.76173 0.4921 0.0
C381 C 0.53612 0.75634 0.51519 0.0
C382 C 0.56192 0.78978 0.53453 0.0
C383 C 0.57189 0.82799 0.53053 0.0
C384 C 0.49282 0.72675 0.47108 0.0
C385 C 0.57906 0.78521 0.55952 0.0
C386 C 0.4809 0.64988 0.54114 0.0
C387 C 0.51503 0.64604 0.53568 0.0
C388 C 0.48592 0.68451 0.53322 0.0
C389 C 0.52595 0.71596 0.51944 0.0
C390 C 0.55891 0.71083 0.51234 0.0
C391 C 0.55309 0.67593 0.52057 0.0
C392 C 0.44987 0.68874 0.54105 0.0
C393 C 0.60185 0.74351 0.49745 0.0
H394 H 0.51961 0.80486 0.47074 0.0
H395 H 0.59116 0.85334 0.54552 0.0
H396 H 0.51389 0.71818 0.46352 0.0
H397 H 0.46085 0.6982 0.47931 0.0
H398 H 0.4824 0.73571 0.4545 0.0
H399 H 0.59863 0.81425 0.5726 0.0
H400 H 0.54902 0.75873 0.57021 0.0
H401 H 0.60225 0.7777 0.55499 0.0
H402 H 0.45116 0.62677 0.55262 0.0
H403 H 0.57942 0.67303 0.51606 0.0
H404 H 0.43928 0.69694 0.52416 0.0
H405 H 0.46522 0.71468 0.55629 0.0
H406 H 0.41818 0.65938 0.54889 0.0
H407 H 0.59221 0.75195 0.48022 0.0
H408 H 0.62102 0.73248 0.49074 0.0
H409 H 0.62582 0.77262 0.51016 0.0
C410 C 0.68702 0.50219 0.87097 0.0
C411 C 0.69308 0.53608 0.86049 0.0
C412 C 0.72507 0.5032 0.87482 0.0
C413 C 0.77058 0.5391 0.86825 0.0
C414 C 0.77682 0.57307 0.85721 0.0
C415 C 0.73808 0.57111 0.85341 0.0
C416 C 0.71665 0.46613 0.88645 0.0
C417 C 0.82466 0.61199 0.84998 0.0
C418 C 0.87494 0.56199 0.90355 0.0
C419 C 0.89084 0.54818 0.88479 0.0
C420 C 0.83594 0.55913 0.89841 0.0
C421 C 0.81189 0.54191 0.87392 0.0
C422 C 0.82755 0.52769 0.85492 0.0
C423 C 0.86681 0.53105 0.86055 0.0
C424 C 0.82058 0.57476 0.91923 0.0
C425 C 0.80283 0.50893 0.82862 0.0
H426 H 0.65251 0.47489 0.8765 0.0
H427 H 0.74332 0.59752 0.84535 0.0
H428 H 0.73135 0.45478 0.87386 0.0
H429 H 0.73482 0.47603 0.90581 0.0
H430 H 0.67889 0.43952 0.88893 0.0
H431 H 0.82347 0.63495 0.84065 0.0
H432 H 0.84772 0.62768 0.86772 0.0
H433 H 0.84087 0.60322 0.83638 0.0
H434 H 0.89311 0.57528 0.92233 0.0
H435 H 0.87864 0.5202 0.8459 0.0
H436 H 0.78391 0.54881 0.92434 0.0
H437 H 0.82166 0.60005 0.91173 0.0
H438 H 0.84291 0.58726 0.93727 0.0
H439 H 0.76559 0.48123 0.83118 0.0
H440 H 0.81896 0.49891 0.81607 0.0
H441 H 0.80352 0.53227 0.81834 0.0
C442 C 0.19216 0.65809 0.11686 0.0
C443 C 0.15607 0.65237 0.13086 0.0
C444 C 0.23812 0.69675 0.11887 0.0
C445 C 0.24816 0.73026 0.13536 0.0
C446 C 0.21159 0.72501 0.14889 0.0
C447 C 0.16611 0.68628 0.14641 0.0
C448 C 0.27613 0.70132 0.10396 0.0
C449 C 0.22074 0.75984 0.16677 0.0
C450 C 0.36696 0.8128 0.16839 0.0
C451 C 0.38409 0.84878 0.15504 0.0
C452 C 0.32379 0.77354 0.1613 0.0
C453 C 0.29713 0.76995 0.14016 0.0
C454 C 0.31543 0.80556 0.1256 0.0
C455 C 0.35864 0.84464 0.13329 0.0
C456 C 0.30551 0.73644 0.17744 0.0
C457 C 0.28833 0.80285 0.10271 0.0
H458 H 0.18476 0.63218 0.1047 0.0
H459 H 0.13856 0.68241 0.15723 0.0
H460 H 0.29637 0.73039 0.09297 0.0
H461 H 0.30088 0.70434 0.11783 0.0
H462 H 0.26194 0.67392 0.09006 0.0
H463 H 0.18813 0.75135 0.17497 0.0
H464 H 0.24447 0.76714 0.1832 0.0
H465 H 0.23839 0.78899 0.1561 0.0
H466 H 0.38644 0.81553 0.18512 0.0
H467 H 0.37175 0.87218 0.12272 0.0
H468 H 0.29399 0.70875 0.16465 0.0
H469 H 0.27459 0.7275 0.18822 0.0
H470 H 0.33211 0.74348 0.1918 0.0
H471 H 0.27522 0.77511 0.08945 0.0
H472 H 0.3098 0.83162 0.0914 0.0
H473 H 0.25745 0.79866 0.10985 0.0
C474 C 0.50485 0.2467 0.50112 0.0
C475 C 0.51278 0.23946 0.47556 0.0
C476 C 0.51543 0.2849 0.5091 0.0
C477 C 0.53403 0.31655 0.49099 0.0
C478 C 0.54231 0.30952 0.46515 0.0
C479 C 0.53183 0.27109 0.45778 0.0
C480 C 0.50666 0.29137 0.53692 0.0
C481 C 0.56169 0.34238 0.44525 0.0
C482 C 0.51741 0.39644 0.50792 0.0
C483 C 0.56098 0.43014 0.51942 0.0
C484 C 0.50873 0.35988 0.49767 0.0
C485 C 0.54432 0.35676 0.49923 0.0
C486 C 0.58876 0.39109 0.51019 0.0
C487 C 0.59663 0.42746 0.52004 0.0
C488 C 0.46106 0.3241 0.48586 0.0
C489 C 0.62746 0.38882 0.51238 0.0
H490 H 0.49077 0.22253 0.51502 0.0
H491 H 0.53771 0.26543 0.43795 0.0
H492 H 0.53955 0.31975 0.54641 0.0
H493 H 0.48114 0.29683 0.53717 0.0
H494 H 0.49293 0.26393 0.54869 0.0
H495 H 0.5665 0.33218 0.42605 0.0
H496 H 0.53775 0.34929 0.44248 0.0
H497 H 0.59586 0.37222 0.45237 0.0
H498 H 0.48978 0.39838 0.50721 0.0
H499 H 0.63039 0.45336 0.5289 0.0
H500 H 0.44341 0.29643 0.498 0.0
H501 H 0.46447 0.31432 0.4661 0.0
H502 H 0.43842 0.33271 0.48433 0.0
H503 H 0.61704 0.36387 0.52564 0.0
H504 H 0.66079 0.41909 0.52001 0.0
H505 H 0.63362 0.38017 0.49304 0.0
C506 C 0.45706 0.55724 0.84235 0.0
C507 C 0.45938 0.53425 0.86046 0.0
C508 C 0.42086 0.55939 0.84277 0.0
C509 C 0.38641 0.53865 0.86205 0.0
C510 C 0.38885 0.51573 0.88054 0.0
C511 C 0.42497 0.51349 0.87938 0.0
C512 C 0.41932 0.58364 0.82243 0.0
C513 C 0.35348 0.49385 0.90173 0.0
C514 C 0.31759 0.57642 0.87705 0.0
C515 C 0.27475 0.54514 0.86387 0.0
C516 C 0.35391 0.57441 0.87693 0.0
C517 C 0.34776 0.54078 0.86282 0.0
C518 C 0.30463 0.50921 0.84938 0.0
C519 C 0.26856 0.51153 0.8503 0.0
C520 C 0.39891 0.60829 0.89194 0.0
C521 C 0.29682 0.47325 0.8337 0.0
H522 H 0.48333 0.57325 0.82759 0.0
H523 H 0.42663 0.49594 0.8936 0.0
H524 H 0.3857 0.56248 0.81114 0.0
H525 H 0.42116 0.60929 0.83201 0.0
H526 H 0.44845 0.59769 0.80863 0.0
H527 H 0.36084 0.4782 0.915 0.0
H528 H 0.35326 0.51696 0.91347 0.0
H529 H 0.31792 0.46979 0.8929 0.0
H530 H 0.32267 0.60244 0.88765 0.0
H531 H 0.23575 0.48739 0.83988 0.0
H532 H 0.42845 0.62525 0.8784 0.0
H533 H 0.4064 0.59385 0.9062 0.0
H534 H 0.39769 0.63156 0.90261 0.0
H535 H 0.3235 0.4858 0.81848 0.0
H536 H 0.26157 0.45155 0.82407 0.0
H537 H 0.30091 0.45494 0.84652 0.0
C538 C 0.85908 0.39805 0.15699 0.0
C539 C 0.88394 0.40749 0.13395 0.0
C540 C 0.81728 0.35726 0.1607 0.0
C541 C 0.79957 0.32513 0.14077 0.0
C542 C 0.82376 0.33476 0.11714 0.0
C543 C 0.86587 0.37574 0.1141 0.0
C544 C 0.79293 0.34827 0.18631 0.0
C545 C 0.80556 0.30157 0.09524 0.0
C546 C 0.72114 0.21153 0.16026 0.0
C547 C 0.67642 0.19796 0.15479 0.0
C548 C 0.76142 0.25282 0.15581 0.0
C549 C 0.75698 0.28106 0.14517 0.0
C550 C 0.71194 0.26736 0.1392 0.0
C551 C 0.67218 0.22609 0.14431 0.0
C552 C 0.80875 0.2664 0.16288 0.0
C553 C 0.70578 0.29633 0.12748 0.0
H554 H 0.87302 0.42222 0.17255 0.0
H555 H 0.88474 0.38285 0.09619 0.0
H556 H 0.75598 0.33398 0.18282 0.0
H557 H 0.79275 0.32518 0.19656 0.0
H558 H 0.81012 0.37713 0.19935 0.0
H559 H 0.82672 0.31478 0.07747 0.0
H560 H 0.80589 0.27657 0.10167 0.0
H561 H 0.76879 0.2864 0.09007 0.0
H562 H 0.72471 0.19008 0.16851 0.0
H563 H 0.63773 0.21576 0.13993 0.0
H564 H 0.82715 0.2936 0.1774 0.0
H565 H 0.8306 0.27693 0.14536 0.0
H566 H 0.80621 0.24072 0.17114 0.0
H567 H 0.72024 0.324 0.14113 0.0
H568 H 0.6685 0.28038 0.12306 0.0
H569 H 0.72548 0.30839 0.1092 0.0
C570 C 1.00659 0.51335 0.04997 0.0
C571 C 1.0121 0.54767 0.06166 0.0
C572 C 0.01759 0.51311 0.02378 0.0
C573 C 0.03385 0.54777 0.00878 0.0
C574 C 0.03816 0.58199 0.02029 0.0
C575 C 0.02749 0.58165 0.0467 0.0
C576 C 1.0131 0.47627 0.0124 0.0
C577 C 0.05496 0.61931 0.00486 0.0
C578 C 0.1088 0.56683 0.95113 0.0
C579 C 0.07654 0.54893 0.93005 0.0
C580 C 0.09544 0.56705 0.97675 0.0
C581 C 0.04864 0.54909 0.9815 0.0
C582 C 1.01588 0.53111 0.96035 0.0
C583 C 0.03011 0.53081 0.93491 0.0
C584 C 0.13135 0.58607 -0.0012 0.0
C585 C 0.96564 0.51163 0.96463 0.0
H586 H 0.99463 0.48697 0.06147 0.0
H587 H 0.03164 0.60815 0.05569 0.0
H588 H 0.99037 0.46252 0.99452 0.0
H589 H 0.04795 0.4872 0.00667 0.0
H590 H 0.99836 0.45113 0.0264 0.0
H591 H 0.05369 0.64213 0.01618 0.0
H592 H 0.09148 0.63586 -0.00102 0.0
H593 H 0.0333 0.60855 0.98671 0.0
H594 H 0.14475 0.58079 0.9476 0.0
H595 H 1.00447 0.51528 0.91903 0.0
H596 H 0.12012 0.56181 0.01286 0.0
H597 H 0.13432 0.61161 0.0096 0.0
H598 H 0.16643 0.5992 0.99178 0.0
H599 H 0.94885 0.48428 0.97698 0.0
H600 H 0.94509 0.50084 0.946 0.0
H601 H 0.96409 0.53474 0.97519 0.0
C602 C 0.59434 0.05603 0.38354 0.0
C603 C 0.55613 0.04019 0.39951 0.0
C604 C 0.59067 0.05749 0.35654 0.0
C605 C 0.54785 0.04316 0.34528 0.0
C606 C 0.5096 0.02848 0.36147 0.0
C607 C 0.51412 0.02695 0.38844 0.0
C608 C 0.63216 0.07306 0.33995 0.0
C609 C 0.46357 0.0134 0.35022 0.0
C610 C 0.55122 0.07404 0.27611 0.0
C611 C 0.53593 0.03757 0.26137 0.0
C612 C 0.55434 0.07607 0.30352 0.0
C613 C 0.54238 0.041 0.31641 0.0
C614 C 0.52673 0.00409 0.30165 0.0
C615 C 0.5235 1.00276 0.27437 0.0
C616 C 0.57075 0.11582 0.31866 0.0
C617 C 0.51411 0.96616 0.31465 0.0
H618 H 0.62695 0.06646 0.39208 0.0
H619 H 0.4846 0.01488 0.40079 0.0
H620 H 0.62335 0.04708 0.32633 0.0
H621 H 0.64091 0.0987 0.32794 0.0
H622 H 0.66358 0.08496 0.35187 0.0
H623 H 0.43863 0.00627 0.36564 0.0
H624 H 0.46924 0.03754 0.33792 0.0
H625 H 0.4474 0.98448 0.33748 0.0
H626 H 0.56064 0.101 0.26626 0.0
H627 H 0.51172 0.97445 0.26319 0.0
H628 H 0.60379 0.12994 0.32956 0.0
H629 H 0.54455 0.10834 0.33325 0.0
H630 H 0.57677 0.13961 0.3058 0.0
H631 H 0.54497 0.97495 0.32567 0.0
H632 H 0.50182 0.93963 0.30039 0.0
H633 H 0.48624 0.95507 0.32889 0.0
C634 C 0.5102 0.47823 0.76889 0.0
C635 C 0.55005 0.50445 0.78528 0.0
C636 C 0.51286 0.48351 0.74196 0.0
C637 C 0.55637 0.5161 0.73126 0.0
C638 C 0.59681 0.54258 0.74774 0.0
C639 C 0.59321 0.53622 0.77458 0.0
C640 C 0.46903 0.45443 0.72499 0.0
C641 C 0.64371 0.5779 0.73707 0.0
C642 C 0.5701 0.50866 0.65823 0.0
C643 C 0.56157 0.53457 0.64895 0.0
C644 C 0.5688 0.50252 0.68501 0.0
C645 C 0.55917 0.52309 0.70292 0.0
C646 C 0.55109 0.54965 0.69371 0.0
C647 C 0.55216 0.5549 0.66685 0.0
C648 C 0.57718 0.47366 0.69413 0.0
C649 C 0.54108 0.57238 0.71223 0.0
H650 H 0.47679 0.45354 0.77712 0.0
H651 H 0.62415 0.55626 0.78721 0.0
H652 H 0.46102 0.47286 0.71567 0.0
H653 H 0.47441 0.43886 0.7091 0.0
H654 H 0.4383 0.42973 0.73623 0.0
H655 H 0.67181 0.59544 0.75247 0.0
H656 H 0.6535 0.56518 0.72173 0.0
H657 H 0.64165 0.60036 0.72783 0.0
H658 H 0.57733 0.49279 0.64455 0.0
H659 H 0.5458 0.57518 0.65989 0.0
H660 H 0.54596 0.44721 0.70419 0.0
H661 H 0.60693 0.49097 0.70846 0.0
H662 H 0.5848 0.46045 0.67776 0.0
H663 H 0.50856 0.54919 0.72277 0.0
H664 H 0.53699 0.59293 0.702 0.0
H665 H 0.56982 0.59204 0.72711 0.0
C666 C 0.56172 0.04887 0.556 0.0
C667 C 0.5179 0.03206 0.54556 0.0
C668 C 0.56752 0.04591 0.58253 0.0
C669 C 0.5286 0.02589 0.59896 0.0
C670 C 0.48409 0.00812 0.58834 0.0
C671 C 0.47929 0.0114 0.56174 0.0
C672 C 0.61549 0.06512 0.59311 0.0
C673 C 0.44176 0.98659 0.60521 0.0
C674 C 0.53321 0.99184 0.66554 0.0
C675 C 0.54303 0.02477 0.68214 0.0
C676 C 0.52907 0.992 0.63835 0.0
C677 C 0.53485 0.02585 0.62755 0.0
C678 C 0.54537 0.05941 0.64416 0.0
C679 C 0.54934 0.05846 0.67119 0.0
C680 C 0.51792 0.95572 0.62121 0.0
C681 C 0.55181 0.0961 0.6334 0.0
H682 H 0.59165 0.0649 0.5435 0.0
H683 H 0.44532 0.99822 0.55366 0.0
H684 H 0.62802 0.09175 0.60728 0.0
H685 H 0.61398 0.04159 0.60372 0.0
H686 H 0.64138 0.07694 0.57745 0.0
H687 H 0.40923 0.97253 0.5937 0.0
H688 H 0.43704 0.96137 0.61572 0.0
H689 H 0.44698 0.00966 0.62017 0.0
H690 H 0.52835 0.96572 0.67379 0.0
H691 H 0.55706 0.08415 0.68378 0.0
H692 H 0.54481 0.96764 0.60619 0.0
H693 H 0.48389 0.93924 0.61075 0.0
H694 H 0.51612 0.93256 0.63253 0.0
H695 H 0.57983 0.11138 0.61888 0.0
H696 H 0.56097 0.12018 0.6489 0.0
H697 H 0.51917 0.08468 0.62316 0.0
C698 C 0.63455 0.55408 0.93977 0.0
C699 C 0.59867 0.55136 0.92837 0.0
C700 C 0.62866 0.53719 0.96407 0.0
C701 C 0.58651 0.51847 0.97739 0.0
C702 C 0.55065 0.51655 0.96603 0.0
C703 C 0.55693 0.53243 0.94144 0.0
C704 C 0.66698 0.53858 0.9752 0.0
C705 C 0.50558 0.49771 0.97983 0.0
C706 C 0.53911 0.43979 0.02967 0.0
C707 C 0.54973 0.46519 0.05229 0.0
C708 C 0.55418 0.45731 0.0052 0.0
C709 C 0.57937 0.50104 0.00333 0.0
C710 C 0.59242 0.52713 0.02627 0.0
C711 C 0.5779 0.50894 0.05051 0.0
C712 C 0.54076 0.42867 0.98121 0.0
C713 C 0.6185 0.57375 0.02507 0.0
H714 H 0.66652 0.56812 0.92932 0.0
H715 H 0.52921 0.53031 0.93246 0.0
H716 H 0.67938 0.55624 0.99447 0.0
H717 H 0.65316 0.50613 0.97841 0.0
H718 H 0.69726 0.55362 0.96217 0.0
H719 H 0.48215 0.50033 0.96876 0.0
H720 H 0.48665 0.46393 0.98271 0.0
H721 H 0.51322 0.51376 -0.00057 0.0
H722 H 0.51778 0.40602 0.03096 0.0
H723 H 0.58618 0.5288 0.0679 0.0
H724 H 0.57101 0.44277 0.96829 0.0
H725 H 0.51272 0.42455 0.96992 0.0
H726 H 0.52786 0.39708 0.98626 0.0
H727 H 0.64944 0.58857 0.01267 0.0
H728 H 0.63025 0.59031 0.04472 0.0
H729 H 0.59534 0.57851 0.01607 0.0
C730 C 0.02788 0.48284 0.21442 0.0
C731 C 0.03914 0.51605 0.2001 0.0
C732 C 0.02834 0.48542 0.2418 0.0
C733 C 0.03991 0.52194 0.25509 0.0
C734 C 0.05162 0.5557 0.24068 0.0
C735 C 0.05146 0.55247 0.21333 0.0
C736 C 1.01603 0.44892 0.2565 0.0
C737 C 0.06374 0.59498 0.25413 0.0
C738 C 0.99535 0.51053 0.32365 0.0
C739 C 0.03548 0.52785 0.33907 0.0
C740 C 0.99647 0.50879 0.29632 0.0
C741 C 0.03861 0.52435 0.28405 0.0
C742 C 0.07926 0.54185 0.29945 0.0
C743 C 0.07728 0.5436 0.32678 0.0
C744 C 0.95252 0.49029 0.28055 0.0
C745 C 0.12472 0.55842 0.28703 0.0
H746 H 0.01849 0.4547 0.20421 0.0
H747 H 0.06081 0.57843 0.20228 0.0
H748 H 0.04473 0.45998 0.27057 0.0
H749 H 0.98426 0.43551 0.26794 0.0
H750 H 1.00952 0.42347 0.24328 0.0
H751 H 0.0723 0.61846 0.24007 0.0
H752 H 0.03394 0.58665 0.26586 0.0
H753 H 0.09406 0.60984 0.2678 0.0
H754 H 0.96294 0.49847 0.33294 0.0
H755 H 0.1084 0.55692 0.33853 0.0
H756 H 0.94218 0.46256 0.26826 0.0
H757 H 0.95904 0.51373 0.26719 0.0
H758 H 0.92284 0.48032 0.29307 0.0
H759 H 0.11978 0.53289 0.27482 0.0
H760 H 0.15316 0.57106 0.30174 0.0
H761 H 0.1359 0.58379 0.27395 0.0
loop_
_geom_bond_atom_site_label_1
_geom_bond_atom_site_label_2
_geom_bond_distance
_geom_bond_site_symmetry_2
_ccdc_geom_bond_type
Gd0 C3 2.818 . S
Gd0 O20 2.377 . S
Gd0 O22 2.448 . S
Gd0 O23 2.506 . S
Gd0 O24 2.435 . S
Gd0 O25 2.717 . S
Gd0 O27 2.395 1_455 S
Gd0 O31 2.327 . S
Gd1 C12 2.821 . S
Gd1 O21 2.393 1_655 S
Gd1 O25 2.325 1_655 S
Gd1 O26 2.377 . S
Gd1 O28 2.451 . S
Gd1 O29 2.508 . S
Gd1 O30 2.435 1_655 S
Gd1 O31 2.715 1_655 S
C2 O20 1.240 . S
C2 O21 1.240 . S
C3 Gd0 2.818 . S
C3 C4 1.510 . S
C3 O22 1.249 . S
C3 O23 1.252 . S
C4 C3 1.510 . S
C4 C5 1.404 . S
C4 C6 1.352 . S
C5 C4 1.404 . S
C5 C9 1.389 . S
C5 H32 0.930 . S
C6 C4 1.352 . S
C6 C8 1.374 . S
C6 H33 0.931 . S
C7 C8 1.359 . S
C7 C9 1.364 . S
C8 C6 1.374 . S
C8 C7 1.359 . S
C8 H34 0.931 . S
C9 C5 1.389 . S
C9 C7 1.364 . S
C9 H35 0.931 . S
C10 O24 1.256 . S
C10 O25 1.257 . S
C11 O26 1.240 . S
C11 O27 1.240 . S
C12 Gd1 2.821 . S
C12 C13 1.510 . S
C12 O28 1.249 . S
C12 O29 1.252 . S
C13 C12 1.510 . S
C13 C14 1.404 . S
C13 C15 1.352 . S
C14 C13 1.404 . S
C14 C18 1.389 . S
C14 H36 0.930 . S
C15 C13 1.352 . S
C15 C17 1.374 . S
C15 H37 0.931 . S
C16 C17 1.359 . S
C16 C18 1.364 . S
C17 C15 1.374 . S
C17 C16 1.359 . S
C17 H38 0.931 . S
C18 C14 1.389 . S
C18 C16 1.364 . S
C18 H39 0.931 . S
C19 O30 1.256 . S
C19 O31 1.257 . S
O20 Gd0 2.377 . S
O20 C2 1.240 . S
O21 Gd1 2.393 1_455 S
O21 C2 1.240 . S
O22 Gd0 2.448 . S
O22 C3 1.249 . S
O23 Gd0 2.506 . S
O23 C3 1.252 . S
O24 Gd0 2.435 . S
O24 C10 1.256 . S
O25 Gd0 2.717 . S
O25 Gd1 2.325 1_455 S
O25 C10 1.257 . S
O26 Gd1 2.377 . S
O26 C11 1.240 . S
O27 Gd0 2.395 1_655 S
O27 C11 1.240 . S
O28 Gd1 2.451 . S
O28 C12 1.249 . S
O29 Gd1 2.508 . S
O29 C12 1.252 . S
O30 Gd1 2.435 1_455 S
O30 C19 1.256 . S
O31 Gd0 2.327 . S
O31 Gd1 2.715 1_455 S
O31 C19 1.257 . S
H32 C5 0.930 . S
H33 C6 0.931 . S
H34 C8 0.931 . S
H35 C9 0.931 . S
H36 C14 0.930 . S
H37 C15 0.931 . S
H38 C17 0.931 . S
H39 C18 0.931 . S
Gd40 C43 2.818 . S
Gd40 O60 2.377 . S
Gd40 O62 2.448 . S
Gd40 O63 2.506 . S
Gd40 O64 2.435 . S
Gd40 O65 2.717 1_565 S
Gd40 O67 2.395 1_565 S
Gd40 O71 2.327 1_565 S
Gd41 C52 2.818 . S
Gd41 O61 2.395 1_545 S
Gd41 O65 2.327 . S
Gd41 O66 2.377 . S
Gd41 O68 2.448 . S
Gd41 O69 2.506 . S
Gd41 O70 2.435 . S
Gd41 O71 2.717 . S
C42 O60 1.240 . S
C42 O61 1.240 . S
C43 Gd40 2.818 . S
C43 C44 1.510 . S
C43 O62 1.249 . S
C43 O63 1.252 . S
C44 C43 1.510 . S
C44 C45 1.404 . S
C44 C46 1.352 . S
C45 C44 1.404 . S
C45 C49 1.389 . S
C45 H72 0.930 . S
C46 C44 1.352 . S
C46 C48 1.374 . S
C46 H73 0.931 . S
C47 C48 1.359 . S
C47 C49 1.364 . S
C48 C46 1.374 . S
C48 C47 1.359 . S
C48 H74 0.931 . S
C49 C45 1.389 . S
C49 C47 1.364 . S
C49 H75 0.931 . S
C50 O64 1.256 1_545 S
C50 O65 1.257 . S
C51 O66 1.240 . S
C51 O67 1.240 . S
C52 Gd41 2.818 . S
C52 C53 1.510 . S
C52 O68 1.249 . S
C52 O69 1.252 . S
C53 C52 1.510 . S
C53 C54 1.404 . S
C53 C55 1.352 . S
C54 C53 1.404 . S
C54 C58 1.389 . S
C54 H76 0.930 . S
C55 C53 1.352 . S
C55 C57 1.374 . S
C55 H77 0.931 . S
C56 C57 1.359 . S
C56 C58 1.364 . S
C57 C55 1.374 . S
C57 C56 1.359 . S
C57 H78 0.931 . S
C58 C54 1.389 . S
C58 C56 1.364 . S
C58 H79 0.931 . S
C59 O70 1.256 . S
C59 O71 1.257 . S
O60 Gd40 2.377 . S
O60 C42 1.240 . S
O61 Gd41 2.395 1_565 S
O61 C42 1.240 . S
O62 Gd40 2.448 . S
O62 C43 1.249 . S
O63 Gd40 2.506 . S
O63 C43 1.252 . S
O64 Gd40 2.435 . S
O64 C50 1.256 1_565 S
O65 Gd40 2.717 1_545 S
O65 Gd41 2.327 . S
O65 C50 1.257 . S
O66 Gd41 2.377 . S
O66 C51 1.240 . S
O67 Gd40 2.395 1_545 S
O67 C51 1.240 . S
O68 Gd41 2.448 . S
O68 C52 1.249 . S
O69 Gd41 2.506 . S
O69 C52 1.252 . S
O70 Gd41 2.435 . S
O70 C59 1.256 . S
O71 Gd40 2.327 1_545 S
O71 Gd41 2.717 . S
O71 C59 1.257 . S
H72 C45 0.930 . S
H73 C46 0.931 . S
H74 C48 0.931 . S
H75 C49 0.931 . S
H76 C54 0.930 . S
H77 C55 0.931 . S
H78 C57 0.931 . S
H79 C58 0.931 . S
Gd80 C83 2.818 . S
Gd80 O100 2.377 . S
Gd80 O102 2.448 . S
Gd80 O103 2.506 . S
Gd80 O104 2.435 . S
Gd80 O105 2.717 . S
Gd80 O107 2.395 . S
Gd80 O111 2.327 . S
Gd81 C92 2.818 . S
Gd81 O101 2.395 . S
Gd81 O105 2.327 . S
Gd81 O106 2.377 . S
Gd81 O108 2.448 . S
Gd81 O109 2.506 . S
Gd81 O110 2.435 . S
Gd81 O111 2.717 . S
C82 O100 1.240 . S
C82 O101 1.240 . S
C83 Gd80 2.818 . S
C83 C84 1.510 . S
C83 O102 1.249 . S
C83 O103 1.252 . S
C84 C83 1.510 . S
C84 C85 1.404 . S
C84 C86 1.352 . S
C85 C84 1.404 . S
C85 C89 1.389 . S
C85 H112 0.930 . S
C86 C84 1.352 . S
C86 C88 1.374 . S
C86 H113 0.931 . S
C87 C88 1.359 . S
C87 C89 1.364 . S
C88 C86 1.374 . S
C88 C87 1.359 . S
C88 H114 0.931 . S
C89 C85 1.389 . S
C89 C87 1.364 . S
C89 H115 0.931 . S
C90 O104 1.256 . S
C90 O105 1.257 . S
C91 O106 1.240 . S
C91 O107 1.240 . S
C92 Gd81 2.818 . S
C92 C93 1.510 . S
C92 O108 1.249 . S
C92 O109 1.252 . S
C93 C92 1.510 . S
C93 C94 1.404 . S
C93 C95 1.352 . S
C94 C93 1.404 . S
C94 C98 1.389 . S
C94 H116 0.930 . S
C95 C93 1.352 . S
C95 C97 1.374 . S
C95 H117 0.931 . S
C96 C97 1.359 . S
C96 C98 1.364 . S
C97 C95 1.374 . S
C97 C96 1.359 . S
C97 H118 0.931 . S
C98 C94 1.389 . S
C98 C96 1.364 . S
C98 H119 0.931 . S
C99 O110 1.256 . S
C99 O111 1.257 . S
O100 Gd80 2.377 . S
O100 C82 1.240 . S
O101 Gd81 2.395 . S
O101 C82 1.240 . S
O102 Gd80 2.448 . S
O102 C83 1.249 . S
O103 Gd80 2.506 . S
O103 C83 1.252 . S
O104 Gd80 2.435 . S
O104 C90 1.256 . S
O105 Gd80 2.717 . S
O105 Gd81 2.327 . S
O105 C90 1.257 . S
O106 Gd81 2.377 . S
O106 C91 1.240 . S
O107 Gd80 2.395 . S
O107 C91 1.240 . S
O108 Gd81 2.448 . S
O108 C92 1.249 . S
O109 Gd81 2.506 . S
O109 C92 1.252 . S
O110 Gd81 2.435 . S
O110 C99 1.256 . S
O111 Gd80 2.327 . S
O111 Gd81 2.717 . S
O111 C99 1.257 . S
H112 C85 0.930 . S
H113 C86 0.931 . S
H114 C88 0.931 . S
H115 C89 0.931 . S
H116 C94 0.930 . S
H117 C95 0.931 . S
H118 C97 0.931 . S
H119 C98 0.931 . S
O120 Cd121 2.300 . S
O120 C127 1.275 . S
Cd121 O120 2.300 . S
Cd121 O129 2.381 . S
Cd121 O130 2.378 . S
O122 Cd123 2.385 . S
O122 C127 1.255 1_565 S
Cd123 O122 2.385 . S
Cd123 O124 2.317 . S
O124 Cd123 2.317 . S
O124 C125 1.232 . S
C125 O124 1.232 . S
C125 O126 1.218 . S
O126 C125 1.218 . S
C127 O120 1.275 . S
C127 O122 1.255 1_545 S
C128 O129 1.258 . S
C128 O130 1.256 . S
O129 Cd121 2.381 . S
O129 C128 1.258 . S
O130 Cd121 2.378 . S
O130 C128 1.256 . S
O131 Cd132 2.300 . S
O131 C138 1.275 . S
Cd132 O131 2.300 . S
Cd132 O140 2.381 . S
Cd132 O141 2.378 . S
O133 Cd134 2.385 . S
O133 C138 1.255 . S
Cd134 O133 2.385 . S
Cd134 O135 2.317 . S
O135 Cd134 2.317 . S
O135 C136 1.232 . S
C136 O135 1.232 . S
C136 O137 1.218 . S
O137 C136 1.218 . S
C138 O131 1.275 . S
C138 O133 1.255 . S
C139 O140 1.258 . S
C139 O141 1.256 . S
O140 Cd132 2.381 . S
O140 C139 1.258 . S
O141 Cd132 2.378 . S
O141 C139 1.256 . S
O142 Cd143 2.300 . S
O142 C149 1.275 . S
Cd143 O142 2.300 . S
Cd143 O151 2.381 . S
Cd143 O152 2.378 . S
O144 Cd145 2.385 1_455 S
O144 C149 1.255 . S
Cd145 O144 2.385 1_655 S
Cd145 O146 2.317 . S
O146 Cd145 2.317 . S
O146 C147 1.232 . S
C147 O146 1.232 . S
C147 O148 1.218 . S
O148 C147 1.218 . S
C149 O142 1.275 . S
C149 O144 1.255 . S
C150 O151 1.258 . S
C150 O152 1.256 . S
O151 Cd143 2.381 . S
O151 C150 1.258 . S
O152 Cd143 2.378 . S
O152 C150 1.256 . S
O153 Cd154 2.300 . S
O153 C160 1.275 1_455 S
Cd154 O153 2.300 . S
Cd154 O162 2.381 . S
Cd154 O163 2.378 . S
O155 Cd156 2.385 . S
O155 C160 1.255 . S
Cd156 O155 2.385 . S
Cd156 O157 2.317 . S
O157 Cd156 2.317 . S
O157 C158 1.232 . S
C158 O157 1.232 . S
C158 O159 1.218 . S
O159 C158 1.218 . S
C160 O153 1.275 1_655 S
C160 O155 1.255 . S
C161 O162 1.258 . S
C161 O163 1.256 . S
O162 Cd154 2.381 . S
O162 C161 1.258 . S
O163 Cd154 2.378 . S
O163 C161 1.256 . S
O164 Cd165 2.300 . S
O164 C171 1.275 1_565 S
Cd165 O164 2.300 . S
Cd165 O173 2.381 . S
Cd165 O174 2.378 . S
O166 Cd167 2.385 . S
O166 C171 1.255 . S
Cd167 O166 2.385 . S
Cd167 O168 2.317 . S
O168 Cd167 2.317 . S
O168 C169 1.232 . S
C169 O168 1.232 . S
C169 O170 1.218 . S
O170 C169 1.218 . S
C171 O164 1.275 1_545 S
C171 O166 1.255 . S
C172 O173 1.258 . S
C172 O174 1.256 . S
O173 Cd165 2.381 . S
O173 C172 1.258 . S
O174 Cd165 2.378 . S
O174 C172 1.256 . S
O175 Cd176 2.300 . S
O175 C182 1.275 . S
Cd176 O175 2.300 . S
Cd176 O184 2.381 . S
Cd176 O185 2.378 . S
O177 Cd178 2.385 . S
O177 C182 1.255 . S
Cd178 O177 2.385 . S
Cd178 O179 2.317 . S
O179 Cd178 2.317 . S
O179 C180 1.232 . S
C180 O179 1.232 . S
C180 O181 1.218 . S
O181 C180 1.218 . S
C182 O175 1.275 . S
C182 O177 1.255 . S
C183 O184 1.258 . S
C183 O185 1.256 . S
O184 Cd176 2.381 . S
O184 C183 1.258 . S
O185 Cd176 2.378 . S
O185 C183 1.256 . S
C186 C187 1.391 . S
C186 C188 1.394 . S
C186 H202 0.931 . S
C187 C186 1.391 . S
C187 C191 1.376 . S
C188 C186 1.394 . S
C188 C189 1.369 . S
C188 C192 1.531 . S
C189 C188 1.369 . S
C189 C190 1.410 . S
C189 C197 1.503 . S
C190 C189 1.410 . S
C190 C191 1.392 . S
C190 C193 1.511 . S
C191 C187 1.376 . S
C191 C190 1.392 . S
C191 H203 0.929 . S
C192 C188 1.531 . S
C192 H204 0.960 . S
C192 H205 0.962 . S
C192 H206 0.960 . S
C193 C190 1.511 . S
C193 H207 0.961 . S
C193 H208 0.961 . S
C193 H209 0.961 . S
C194 C195 1.370 . S
C194 C196 1.363 . S
C194 H210 0.931 . S
C195 C194 1.370 . S
C195 C199 1.408 . S
C196 C194 1.363 . S
C196 C197 1.370 . S
C196 C200 1.524 . S
C197 C189 1.503 . S
C197 C196 1.370 . S
C197 C198 1.403 . S
C198 C197 1.403 . S
C198 C199 1.404 . S
C198 C201 1.539 . S
C199 C195 1.408 . S
C199 C198 1.404 . S
C199 H211 0.930 . S
C200 C196 1.524 . S
C200 H212 0.956 . S
C200 H213 0.961 . S
C200 H214 0.961 . S
C201 C198 1.539 . S
C201 H215 0.958 . S
C201 H216 0.961 . S
C201 H217 0.960 . S
H202 C186 0.931 . S
H203 C191 0.929 . S
H204 C192 0.960 . S
H205 C192 0.962 . S
H206 C192 0.960 . S
H207 C193 0.961 . S
H208 C193 0.961 . S
H209 C193 0.961 . S
H210 C194 0.931 . S
H211 C199 0.930 . S
H212 C200 0.956 . S
H213 C200 0.961 . S
H214 C200 0.961 . S
H215 C201 0.958 . S
H216 C201 0.961 . S
H217 C201 0.960 . S
C218 C219 1.391 . S
C218 C220 1.394 . S
C218 H234 0.931 . S
C219 C218 1.391 . S
C219 C223 1.376 . S
C220 C218 1.394 . S
C220 C221 1.369 . S
C220 C224 1.531 . S
C221 C220 1.369 . S
C221 C222 1.410 . S
C221 C229 1.503 . S
C222 C221 1.410 . S
C222 C223 1.392 . S
C222 C225 1.511 . S
C223 C219 1.376 . S
C223 C222 1.392 . S
C223 H235 0.929 . S
C224 C220 1.531 . S
C224 H236 0.960 . S
C224 H237 0.962 . S
C224 H238 0.960 . S
C225 C222 1.511 . S
C225 H239 0.961 . S
C225 H240 0.961 . S
C225 H241 0.961 . S
C226 C227 1.370 . S
C226 C228 1.363 . S
C226 H242 0.931 . S
C227 C226 1.370 . S
C227 C231 1.408 . S
C228 C226 1.363 . S
C228 C229 1.370 . S
C228 C232 1.524 . S
C229 C221 1.503 . S
C229 C228 1.370 . S
C229 C230 1.403 . S
C230 C229 1.403 . S
C230 C231 1.404 . S
C230 C233 1.539 . S
C231 C227 1.408 . S
C231 C230 1.404 . S
C231 H243 0.930 . S
C232 C228 1.524 . S
C232 H244 0.956 . S
C232 H245 0.961 . S
C232 H246 0.961 . S
C233 C230 1.539 . S
C233 H247 0.958 . S
C233 H248 0.961 . S
C233 H249 0.960 . S
H234 C218 0.931 . S
H235 C223 0.929 . S
H236 C224 0.960 . S
H237 C224 0.962 . S
H238 C224 0.960 . S
H239 C225 0.961 . S
H240 C225 0.961 . S
H241 C225 0.961 . S
H242 C226 0.931 . S
H243 C231 0.930 . S
H244 C232 0.956 . S
H245 C232 0.961 . S
H246 C232 0.961 . S
H247 C233 0.958 . S
H248 C233 0.961 . S
H249 C233 0.960 . S
C250 C251 1.391 . S
C250 C252 1.394 . S
C250 H266 0.931 . S
C251 C250 1.391 . S
C251 C255 1.376 . S
C252 C250 1.394 . S
C252 C253 1.369 . S
C252 C256 1.531 . S
C253 C252 1.369 . S
C253 C254 1.410 . S
C253 C261 1.503 . S
C254 C253 1.410 . S
C254 C255 1.392 . S
C254 C257 1.511 . S
C255 C251 1.376 . S
C255 C254 1.392 . S
C255 H267 0.929 . S
C256 C252 1.531 . S
C256 H268 0.960 . S
C256 H269 0.962 . S
C256 H270 0.960 . S
C257 C254 1.511 . S
C257 H271 0.961 . S
C257 H272 0.961 . S
C257 H273 0.961 . S
C258 C259 1.370 . S
C258 C260 1.363 . S
C258 H274 0.931 . S
C259 C258 1.370 . S
C259 C263 1.408 . S
C260 C258 1.363 . S
C260 C261 1.370 . S
C260 C264 1.524 . S
C261 C253 1.503 . S
C261 C260 1.370 . S
C261 C262 1.403 . S
C262 C261 1.403 . S
C262 C263 1.404 . S
C262 C265 1.539 . S
C263 C259 1.408 . S
C263 C262 1.404 . S
C263 H275 0.930 . S
C264 C260 1.524 . S
C264 H276 0.956 . S
C264 H277 0.961 . S
C264 H278 0.961 . S
C265 C262 1.539 . S
C265 H279 0.958 . S
C265 H280 0.961 . S
C265 H281 0.960 . S
H266 C250 0.931 . S
H267 C255 0.929 . S
H268 C256 0.960 . S
H269 C256 0.962 . S
H270 C256 0.960 . S
H271 C257 0.961 . S
H272 C257 0.961 . S
H273 C257 0.961 . S
H274 C258 0.931 . S
H275 C263 0.930 . S
H276 C264 0.956 . S
H277 C264 0.961 . S
H278 C264 0.961 . S
H279 C265 0.958 . S
H280 C265 0.961 . S
H281 C265 0.960 . S
C282 C283 1.391 . S
C282 C284 1.394 . S
C282 H298 0.931 . S
C283 C282 1.391 . S
C283 C287 1.376 . S
C284 C282 1.394 . S
C284 C285 1.369 . S
C284 C288 1.531 . S
C285 C284 1.369 . S
C285 C286 1.410 . S
C285 C293 1.503 . S
C286 C285 1.410 . S
C286 C287 1.392 . S
C286 C289 1.511 . S
C287 C283 1.376 . S
C287 C286 1.392 . S
C287 H299 0.929 . S
C288 C284 1.531 . S
C288 H300 0.960 . S
C288 H301 0.962 . S
C288 H302 0.960 . S
C289 C286 1.511 . S
C289 H303 0.961 . S
C289 H304 0.961 . S
C289 H305 0.961 . S
C290 C291 1.370 . S
C290 C292 1.363 . S
C290 H306 0.931 . S
C291 C290 1.370 . S
C291 C295 1.408 . S
C292 C290 1.363 . S
C292 C293 1.370 . S
C292 C296 1.524 . S
C293 C285 1.503 . S
C293 C292 1.370 . S
C293 C294 1.403 . S
C294 C293 1.403 . S
C294 C295 1.404 . S
C294 C297 1.539 . S
C295 C291 1.408 . S
C295 C294 1.404 . S
C295 H307 0.930 . S
C296 C292 1.524 . S
C296 H308 0.956 . S
C296 H309 0.961 . S
C296 H310 0.961 . S
C297 C294 1.539 . S
C297 H311 0.958 . S
C297 H312 0.961 . S
C297 H313 0.960 . S
H298 C282 0.931 . S
H299 C287 0.929 . S
H300 C288 0.960 . S
H301 C288 0.962 . S
H302 C288 0.960 . S
H303 C289 0.961 . S
H304 C289 0.961 . S
H305 C289 0.961 . S
H306 C290 0.931 . S
H307 C295 0.930 . S
H308 C296 0.956 . S
H309 C296 0.961 . S
H310 C296 0.961 . S
H311 C297 0.958 . S
H312 C297 0.961 . S
H313 C297 0.960 . S
C314 C315 1.391 . S
C314 C316 1.394 . S
C314 H330 0.931 . S
C315 C314 1.391 . S
C315 C319 1.376 . S
C316 C314 1.394 . S
C316 C317 1.369 . S
C316 C320 1.531 . S
C317 C316 1.369 . S
C317 C318 1.410 . S
C317 C325 1.503 . S
C318 C317 1.410 . S
C318 C319 1.392 . S
C318 C321 1.511 . S
C319 C315 1.376 . S
C319 C318 1.392 . S
C319 H331 0.929 . S
C320 C316 1.531 . S
C320 H332 0.960 . S
C320 H333 0.962 . S
C320 H334 0.960 . S
C321 C318 1.511 . S
C321 H335 0.961 . S
C321 H336 0.961 . S
C321 H337 0.961 . S
C322 C323 1.370 . S
C322 C324 1.363 . S
C322 H338 0.931 . S
C323 C322 1.370 . S
C323 C327 1.408 . S
C324 C322 1.363 . S
C324 C325 1.370 . S
C324 C328 1.524 . S
C325 C317 1.503 . S
C325 C324 1.370 . S
C325 C326 1.403 . S
C326 C325 1.403 . S
C326 C327 1.404 . S
C326 C329 1.539 . S
C327 C323 1.408 . S
C327 C326 1.404 . S
C327 H339 0.930 . S
C328 C324 1.524 . S
C328 H340 0.956 . S
C328 H341 0.961 . S
C328 H342 0.961 . S
C329 C326 1.539 . S
C329 H343 0.958 . S
C329 H344 0.961 . S
C329 H345 0.960 . S
H330 C314 0.931 . S
H331 C319 0.929 . S
H332 C320 0.960 . S
H333 C320 0.962 . S
H334 C320 0.960 . S
H335 C321 0.961 . S
H336 C321 0.961 . S
H337 C321 0.961 . S
H338 C322 0.931 . S
H339 C327 0.930 . S
H340 C328 0.956 . S
H341 C328 0.961 . S
H342 C328 0.961 . S
H343 C329 0.958 . S
H344 C329 0.961 . S
H345 C329 0.960 . S
C346 C347 1.391 . S
C346 C348 1.394 . S
C346 H362 0.931 . S
C347 C346 1.391 . S
C347 C351 1.376 . S
C348 C346 1.394 . S
C348 C349 1.369 . S
C348 C352 1.531 . S
C349 C348 1.369 . S
C349 C350 1.410 . S
C349 C357 1.503 . S
C350 C349 1.410 . S
C350 C351 1.392 . S
C350 C353 1.511 . S
C351 C347 1.376 . S
C351 C350 1.392 . S
C351 H363 0.929 . S
C352 C348 1.531 . S
C352 H364 0.960 . S
C352 H365 0.962 . S
C352 H366 0.960 . S
C353 C350 1.511 . S
C353 H367 0.961 . S
C353 H368 0.961 . S
C353 H369 0.961 . S
C354 C355 1.370 . S
C354 C356 1.363 . S
C354 H370 0.931 . S
C355 C354 1.370 . S
C355 C359 1.408 . S
C356 C354 1.363 . S
C356 C357 1.370 . S
C356 C360 1.524 . S
C357 C349 1.503 . S
C357 C356 1.370 . S
C357 C358 1.403 . S
C358 C357 1.403 . S
C358 C359 1.404 . S
C358 C361 1.539 . S
C359 C355 1.408 . S
C359 C358 1.404 . S
C359 H371 0.930 . S
C360 C356 1.524 . S
C360 H372 0.956 . S
C360 H373 0.961 . S
C360 H374 0.961 . S
C361 C358 1.539 . S
C361 H375 0.958 . S
C361 H376 0.961 . S
C361 H377 0.960 . S
H362 C346 0.931 . S
H363 C351 0.929 . S
H364 C352 0.960 . S
H365 C352 0.962 . S
H366 C352 0.960 . S
H367 C353 0.961 . S
H368 C353 0.961 . S
H369 C353 0.961 . S
H370 C354 0.931 . S
H371 C359 0.930 . S
H372 C360 0.956 . S
H373 C360 0.961 . S
H374 C360 0.961 . S
H375 C361 0.958 . S
H376 C361 0.961 . S
H377 C361 0.960 . S
C378 C379 1.391 . S
C378 C380 1.394 . S
C378 H394 0.931 . S
C379 C378 1.391 . S
C379 C383 1.376 . S
C380 C378 1.394 . S
C380 C381 1.369 . S
C380 C384 1.531 . S
C381 C380 1.369 . S
C381 C382 1.410 . S
C381 C389 1.503 . S
C382 C381 1.410 . S
C382 C383 1.392 . S
C382 C385 1.511 . S
C383 C379 1.376 . S
C383 C382 1.392 . S
C383 H395 0.929 . S
C384 C380 1.531 . S
C384 H396 0.960 . S
C384 H397 0.962 . S
C384 H398 0.960 . S
C385 C382 1.511 . S
C385 H399 0.961 . S
C385 H400 0.961 . S
C385 H401 0.961 . S
C386 C387 1.370 . S
C386 C388 1.363 . S
C386 H402 0.931 . S
C387 C386 1.370 . S
C387 C391 1.408 . S
C388 C386 1.363 . S
C388 C389 1.370 . S
C388 C392 1.524 . S
C389 C381 1.503 . S
C389 C388 1.370 . S
C389 C390 1.403 . S
C390 C389 1.403 . S
C390 C391 1.404 . S
C390 C393 1.539 . S
C391 C387 1.408 . S
C391 C390 1.404 . S
C391 H403 0.930 . S
C392 C388 1.524 . S
C392 H404 0.956 . S
C392 H405 0.961 . S
C392 H406 0.961 . S
C393 C390 1.539 . S
C393 H407 0.958 . S
C393 H408 0.961 . S
C393 H409 0.960 . S
H394 C378 0.931 . S
H395 C383 0.929 . S
H396 C384 0.960 . S
H397 C384 0.962 . S
H398 C384 0.960 . S
H399 C385 0.961 . S
H400 C385 0.961 . S
H401 C385 0.961 . S
H402 C386 0.931 . S
H403 C391 0.930 . S
H404 C392 0.956 . S
H405 C392 0.961 . S
H406 C392 0.961 . S
H407 C393 0.958 . S
H408 C393 0.961 . S
H409 C393 0.960 . S
C410 C411 1.391 . S
C410 C412 1.394 . S
C410 H426 0.931 . S
C411 C410 1.391 . S
C411 C415 1.376 . S
C412 C410 1.394 . S
C412 C413 1.369 . S
C412 C416 1.531 . S
C413 C412 1.369 . S
C413 C414 1.410 . S
C413 C421 1.503 . S
C414 C413 1.410 . S
C414 C415 1.392 . S
C414 C417 1.511 . S
C415 C411 1.376 . S
C415 C414 1.392 . S
C415 H427 0.929 . S
C416 C412 1.531 . S
C416 H428 0.960 . S
C416 H429 0.962 . S
C416 H430 0.960 . S
C417 C414 1.511 . S
C417 H431 0.961 . S
C417 H432 0.961 . S
C417 H433 0.961 . S
C418 C419 1.370 . S
C418 C420 1.363 . S
C418 H434 0.931 . S
C419 C418 1.370 . S
C419 C423 1.408 . S
C420 C418 1.363 . S
C420 C421 1.370 . S
C420 C424 1.524 . S
C421 C413 1.503 . S
C421 C420 1.370 . S
C421 C422 1.403 . S
C422 C421 1.403 . S
C422 C423 1.404 . S
C422 C425 1.539 . S
C423 C419 1.408 . S
C423 C422 1.404 . S
C423 H435 0.930 . S
C424 C420 1.524 . S
C424 H436 0.956 . S
C424 H437 0.961 . S
C424 H438 0.961 . S
C425 C422 1.539 . S
C425 H439 0.958 . S
C425 H440 0.961 . S
C425 H441 0.960 . S
H426 C410 0.931 . S
H427 C415 0.929 . S
H428 C416 0.960 . S
H429 C416 0.962 . S
H430 C416 0.960 . S
H431 C417 0.961 . S
H432 C417 0.961 . S
H433 C417 0.961 . S
H434 C418 0.931 . S
H435 C423 0.930 . S
H436 C424 0.956 . S
H437 C424 0.961 . S
H438 C424 0.961 . S
H439 C425 0.958 . S
H440 C425 0.961 . S
H441 C425 0.960 . S
C442 C443 1.391 . S
C442 C444 1.394 . S
C442 H458 0.931 . S
C443 C442 1.391 . S
C443 C447 1.376 . S
C444 C442 1.394 . S
C444 C445 1.369 . S
C444 C448 1.531 . S
C445 C444 1.369 . S
C445 C446 1.410 . S
C445 C453 1.503 . S
C446 C445 1.410 . S
C446 C447 1.392 . S
C446 C449 1.511 . S
C447 C443 1.376 . S
C447 C446 1.392 . S
C447 H459 0.929 . S
C448 C444 1.531 . S
C448 H460 0.960 . S
C448 H461 0.962 . S
C448 H462 0.960 . S
C449 C446 1.511 . S
C449 H463 0.961 . S
C449 H464 0.961 . S
C449 H465 0.961 . S
C450 C451 1.370 . S
C450 C452 1.363 . S
C450 H466 0.931 . S
C451 C450 1.370 . S
C451 C455 1.408 . S
C452 C450 1.363 . S
C452 C453 1.370 . S
C452 C456 1.524 . S
C453 C445 1.503 . S
C453 C452 1.370 . S
C453 C454 1.403 . S
C454 C453 1.403 . S
C454 C455 1.404 . S
C454 C457 1.539 . S
C455 C451 1.408 . S
C455 C454 1.404 . S
C455 H467 0.930 . S
C456 C452 1.524 . S
C456 H468 0.956 . S
C456 H469 0.961 . S
C456 H470 0.961 . S
C457 C454 1.539 . S
C457 H471 0.958 . S
C457 H472 0.961 . S
C457 H473 0.960 . S
H458 C442 0.931 . S
H459 C447 0.929 . S
H460 C448 0.960 . S
H461 C448 0.962 . S
H462 C448 0.960 . S
H463 C449 0.961 . S
H464 C449 0.961 . S
H465 C449 0.961 . S
H466 C450 0.931 . S
H467 C455 0.930 . S
H468 C456 0.956 . S
H469 C456 0.961 . S
H470 C456 0.961 . S
H471 C457 0.958 . S
H472 C457 0.961 . S
H473 C457 0.960 . S
C474 C475 1.391 . S
C474 C476 1.394 . S
C474 H490 0.931 . S
C475 C474 1.391 . S
C475 C479 1.376 . S
C476 C474 1.394 . S
C476 C477 1.369 . S
C476 C480 1.531 . S
C477 C476 1.369 . S
C477 C478 1.410 . S
C477 C485 1.503 . S
C478 C477 1.410 . S
C478 C479 1.392 . S
C478 C481 1.511 . S
C479 C475 1.376 . S
C479 C478 1.392 . S
C479 H491 0.929 . S
C480 C476 1.531 . S
C480 H492 0.960 . S
C480 H493 0.962 . S
C480 H494 0.960 . S
C481 C478 1.511 . S
C481 H495 0.961 . S
C481 H496 0.961 . S
C481 H497 0.961 . S
C482 C483 1.370 . S
C482 C484 1.363 . S
C482 H498 0.931 . S
C483 C482 1.370 . S
C483 C487 1.408 . S
C484 C482 1.363 . S
C484 C485 1.370 . S
C484 C488 1.524 . S
C485 C477 1.503 . S
C485 C484 1.370 . S
C485 C486 1.403 . S
C486 C485 1.403 . S
C486 C487 1.404 . S
C486 C489 1.539 . S
C487 C483 1.408 . S
C487 C486 1.404 . S
C487 H499 0.930 . S
C488 C484 1.524 . S
C488 H500 0.956 . S
C488 H501 0.961 . S
C488 H502 0.961 . S
C489 C486 1.539 . S
C489 H503 0.958 . S
C489 H504 0.961 . S
C489 H505 0.960 . S
H490 C474 0.931 . S
H491 C479 0.929 . S
H492 C480 0.960 . S
H493 C480 0.962 . S
H494 C480 0.960 . S
H495 C481 0.961 . S
H496 C481 0.961 . S
H497 C481 0.961 . S
H498 C482 0.931 . S
H499 C487 0.930 . S
H500 C488 0.956 . S
H501 C488 0.961 . S
H502 C488 0.961 . S
H503 C489 0.958 . S
H504 C489 0.961 . S
H505 C489 0.960 . S
C506 C507 1.391 . S
C506 C508 1.394 . S
C506 H522 0.931 . S
C507 C506 1.391 . S
C507 C511 1.376 . S
C508 C506 1.394 . S
C508 C509 1.369 . S
C508 C512 1.531 . S
C509 C508 1.369 . S
C509 C510 1.410 . S
C509 C517 1.503 . S
C510 C509 1.410 . S
C510 C511 1.392 . S
C510 C513 1.511 . S
C511 C507 1.376 . S
C511 C510 1.392 . S
C511 H523 0.929 . S
C512 C508 1.531 . S
C512 H524 0.960 . S
C512 H525 0.962 . S
C512 H526 0.960 . S
C513 C510 1.511 . S
C513 H527 0.961 . S
C513 H528 0.961 . S
C513 H529 0.961 . S
C514 C515 1.370 . S
C514 C516 1.363 . S
C514 H530 0.931 . S
C515 C514 1.370 . S
C515 C519 1.408 . S
C516 C514 1.363 . S
C516 C517 1.370 . S
C516 C520 1.524 . S
C517 C509 1.503 . S
C517 C516 1.370 . S
C517 C518 1.403 . S
C518 C517 1.403 . S
C518 C519 1.404 . S
C518 C521 1.539 . S
C519 C515 1.408 . S
C519 C518 1.404 . S
C519 H531 0.930 . S
C520 C516 1.524 . S
C520 H532 0.956 . S
C520 H533 0.961 . S
C520 H534 0.961 . S
C521 C518 1.539 . S
C521 H535 0.958 . S
C521 H536 0.961 . S
C521 H537 0.960 . S
H522 C506 0.931 . S
H523 C511 0.929 . S
H524 C512 0.960 . S
H525 C512 0.962 . S
H526 C512 0.960 . S
H527 C513 0.961 . S
H528 C513 0.961 . S
H529 C513 0.961 . S
H530 C514 0.931 . S
H531 C519 0.930 . S
H532 C520 0.956 . S
H533 C520 0.961 . S
H534 C520 0.961 . S
H535 C521 0.958 . S
H536 C521 0.961 . S
H537 C521 0.960 . S
C538 C539 1.391 . S
C538 C540 1.394 . S
C538 H554 0.931 . S
C539 C538 1.391 . S
C539 C543 1.376 . S
C540 C538 1.394 . S
C540 C541 1.369 . S
C540 C544 1.531 . S
C541 C540 1.369 . S
C541 C542 1.410 . S
C541 C549 1.503 . S
C542 C541 1.410 . S
C542 C543 1.392 . S
C542 C545 1.511 . S
C543 C539 1.376 . S
C543 C542 1.392 . S
C543 H555 0.929 . S
C544 C540 1.531 . S
C544 H556 0.960 . S
C544 H557 0.962 . S
C544 H558 0.960 . S
C545 C542 1.511 . S
C545 H559 0.961 . S
C545 H560 0.961 . S
C545 H561 0.961 . S
C546 C547 1.370 . S
C546 C548 1.363 . S
C546 H562 0.931 . S
C547 C546 1.370 . S
C547 C551 1.408 . S
C548 C546 1.363 . S
C548 C549 1.370 . S
C548 C552 1.524 . S
C549 C541 1.503 . S
C549 C548 1.370 . S
C549 C550 1.403 . S
C550 C549 1.403 . S
C550 C551 1.404 . S
C550 C553 1.539 . S
C551 C547 1.408 . S
C551 C550 1.404 . S
C551 H563 0.930 . S
C552 C548 1.524 . S
C552 H564 0.956 . S
C552 H565 0.961 . S
C552 H566 0.961 . S
C553 C550 1.539 . S
C553 H567 0.958 . S
C553 H568 0.961 . S
C553 H569 0.960 . S
H554 C538 0.931 . S
H555 C543 0.929 . S
H556 C544 0.960 . S
H557 C544 0.962 . S
H558 C544 0.960 . S
H559 C545 0.961 . S
H560 C545 0.961 . S
H561 C545 0.961 . S
H562 C546 0.931 . S
H563 C551 0.930 . S
H564 C552 0.956 . S
H565 C552 0.961 . S
H566 C552 0.961 . S
H567 C553 0.958 . S
H568 C553 0.961 . S
H569 C553 0.960 . S
C570 C571 1.391 . S
C570 C572 1.394 . S
C570 H586 0.931 . S
C571 C570 1.391 . S
C571 C575 1.376 . S
C572 C570 1.394 . S
C572 C573 1.369 . S
C572 C576 1.531 . S
C573 C572 1.369 . S
C573 C574 1.410 . S
C573 C581 1.503 . S
C574 C573 1.410 . S
C574 C575 1.392 . S
C574 C577 1.511 1_455 S
C575 C571 1.376 . S
C575 C574 1.392 . S
C575 H587 0.929 1_455 S
C576 C572 1.531 . S
C576 H588 0.960 . S
C576 H589 0.962 . S
C576 H590 0.960 . S
C577 C574 1.511 1_655 S
C577 H591 0.961 . S
C577 H592 0.961 . S
C577 H593 0.961 . S
C578 C579 1.370 . S
C578 C580 1.363 . S
C578 H594 0.931 . S
C579 C578 1.370 . S
C579 C583 1.408 . S
C580 C578 1.363 . S
C580 C581 1.370 1_556 S
C580 C584 1.524 1_556 S
C581 C573 1.503 . S
C581 C580 1.370 1_554 S
C581 C582 1.408 1_554 S
C582 C581 1.408 1_556 S
C582 C583 1.402 . S
C582 C585 1.534 1_455 S
C583 C579 1.408 . S
C583 C582 1.402 . S
C583 H595 0.930 1_455 S
C584 C580 1.524 1_554 S
C584 H596 0.956 . S
C584 H597 0.961 . S
C584 H598 0.961 . S
C585 C582 1.534 1_655 S
C585 H599 0.958 . S
C585 H600 0.961 . S
C585 H601 0.960 1_556 S
H586 C570 0.931 . S
H587 C575 0.929 1_655 S
H588 C576 0.960 . S
H589 C576 0.962 . S
H590 C576 0.960 . S
H591 C577 0.961 . S
H592 C577 0.961 . S
H593 C577 0.961 . S
H594 C578 0.931 . S
H595 C583 0.930 1_655 S
H596 C584 0.956 . S
H597 C584 0.961 . S
H598 C584 0.961 . S
H599 C585 0.958 . S
H600 C585 0.961 . S
H601 C585 0.960 1_554 S
C602 C603 1.391 1_565 S
C602 C604 1.394 . S
C602 H618 0.931 . S
C603 C602 1.391 1_545 S
C603 C607 1.376 . S
C604 C602 1.394 . S
C604 C605 1.369 1_565 S
C604 C608 1.531 . S
C605 C604 1.369 1_545 S
C605 C606 1.410 . S
C605 C613 1.503 . S
C606 C605 1.410 . S
C606 C607 1.392 . S
C606 C609 1.511 . S
C607 C603 1.376 . S
C607 C606 1.392 . S
C607 H619 0.929 . S
C608 C604 1.531 . S
C608 H620 0.960 . S
C608 H621 0.962 . S
C608 H622 0.960 . S
C609 C606 1.511 . S
C609 H623 0.961 . S
C609 H624 0.961 . S
C609 H625 0.961 . S
C610 C611 1.370 . S
C610 C612 1.363 . S
C610 H626 0.931 . S
C611 C610 1.370 . S
C611 C615 1.408 1_545 S
C612 C610 1.363 . S
C612 C613 1.370 . S
C612 C616 1.524 . S
C613 C605 1.503 . S
C613 C612 1.370 . S
C613 C614 1.403 1_545 S
C614 C613 1.403 1_565 S
C614 C615 1.404 . S
C614 C617 1.539 . S
C615 C611 1.408 1_565 S
C615 C614 1.404 . S
C615 H627 0.930 . S
C616 C612 1.524 . S
C616 H628 0.956 . S
C616 H629 0.961 . S
C616 H630 0.961 . S
C617 C614 1.539 . S
C617 H631 0.958 . S
C617 H632 0.961 . S
C617 H633 0.960 . S
H618 C602 0.931 . S
H619 C607 0.929 . S
H620 C608 0.960 . S
H621 C608 0.962 . S
H622 C608 0.960 . S
H623 C609 0.961 . S
H624 C609 0.961 . S
H625 C609 0.961 . S
H626 C610 0.931 . S
H627 C615 0.930 . S
H628 C616 0.956 . S
H629 C616 0.961 . S
H630 C616 0.961 . S
H631 C617 0.958 . S
H632 C617 0.961 . S
H633 C617 0.960 . S
C634 C635 1.391 . S
C634 C636 1.394 . S
C634 H650 0.931 . S
C635 C634 1.391 . S
C635 C639 1.376 . S
C636 C634 1.394 . S
C636 C637 1.369 . S
C636 C640 1.531 . S
C637 C636 1.369 . S
C637 C638 1.410 . S
C637 C645 1.503 . S
C638 C637 1.410 . S
C638 C639 1.392 . S
C638 C641 1.511 . S
C639 C635 1.376 . S
C639 C638 1.392 . S
C639 H651 0.929 . S
C640 C636 1.531 . S
C640 H652 0.960 . S
C640 H653 0.962 . S
C640 H654 0.960 . S
C641 C638 1.511 . S
C641 H655 0.961 . S
C641 H656 0.961 . S
C641 H657 0.961 . S
C642 C643 1.370 . S
C642 C644 1.363 . S
C642 H658 0.931 . S
C643 C642 1.370 . S
C643 C647 1.408 . S
C644 C642 1.363 . S
C644 C645 1.370 . S
C644 C648 1.524 . S
C645 C637 1.503 . S
C645 C644 1.370 . S
C645 C646 1.403 . S
C646 C645 1.403 . S
C646 C647 1.404 . S
C646 C649 1.539 . S
C647 C643 1.408 . S
C647 C646 1.404 . S
C647 H659 0.930 . S
C648 C644 1.524 . S
C648 H660 0.956 . S
C648 H661 0.961 . S
C648 H662 0.961 . S
C649 C646 1.539 . S
C649 H663 0.958 . S
C649 H664 0.961 . S
C649 H665 0.960 . S
H650 C634 0.931 . S
H651 C639 0.929 . S
H652 C640 0.960 . S
H653 C640 0.962 . S
H654 C640 0.960 . S
H655 C641 0.961 . S
H656 C641 0.961 . S
H657 C641 0.961 . S
H658 C642 0.931 . S
H659 C647 0.930 . S
H660 C648 0.956 . S
H661 C648 0.961 . S
H662 C648 0.961 . S
H663 C649 0.958 . S
H664 C649 0.961 . S
H665 C649 0.960 . S
C666 C667 1.391 . S
C666 C668 1.394 . S
C666 H682 0.931 . S
C667 C666 1.391 . S
C667 C671 1.376 1_545 S
C668 C666 1.394 . S
C668 C669 1.369 . S
C668 C672 1.531 . S
C669 C668 1.369 . S
C669 C670 1.410 1_545 S
C669 C677 1.503 . S
C670 C669 1.410 1_565 S
C670 C671 1.392 . S
C670 C673 1.511 . S
C671 C667 1.376 1_565 S
C671 C670 1.392 . S
C671 H683 0.929 . S
C672 C668 1.531 . S
C672 H684 0.960 . S
C672 H685 0.962 . S
C672 H686 0.960 . S
C673 C670 1.511 . S
C673 H687 0.961 . S
C673 H688 0.961 . S
C673 H689 0.961 . S
C674 C675 1.370 1_565 S
C674 C676 1.363 . S
C674 H690 0.931 . S
C675 C674 1.370 1_545 S
C675 C679 1.408 . S
C676 C674 1.363 . S
C676 C677 1.370 1_565 S
C676 C680 1.524 . S
C677 C669 1.503 . S
C677 C676 1.370 1_545 S
C677 C678 1.403 . S
C678 C677 1.403 . S
C678 C679 1.404 . S
C678 C681 1.539 . S
C679 C675 1.408 . S
C679 C678 1.404 . S
C679 H691 0.930 . S
C680 C676 1.524 . S
C680 H692 0.956 . S
C680 H693 0.961 . S
C680 H694 0.961 . S
C681 C678 1.539 . S
C681 H695 0.958 . S
C681 H696 0.961 . S
C681 H697 0.960 . S
H682 C666 0.931 . S
H683 C671 0.929 . S
H684 C672 0.960 . S
H685 C672 0.962 . S
H686 C672 0.960 . S
H687 C673 0.961 . S
H688 C673 0.961 . S
H689 C673 0.961 . S
H690 C674 0.931 . S
H691 C679 0.930 . S
H692 C680 0.956 . S
H693 C680 0.961 . S
H694 C680 0.961 . S
H695 C681 0.958 . S
H696 C681 0.961 . S
H697 C681 0.960 . S
C698 C699 1.391 . S
C698 C700 1.394 . S
C698 H714 0.931 . S
C699 C698 1.391 . S
C699 C703 1.376 . S
C700 C698 1.394 . S
C700 C701 1.369 . S
C700 C704 1.531 . S
C701 C700 1.369 . S
C701 C702 1.410 . S
C701 C709 1.503 . S
C702 C701 1.410 . S
C702 C703 1.392 . S
C702 C705 1.511 . S
C703 C699 1.376 . S
C703 C702 1.392 . S
C703 H715 0.929 . S
C704 C700 1.531 . S
C704 H716 0.960 . S
C704 H717 0.962 . S
C704 H718 0.960 . S
C705 C702 1.511 . S
C705 H719 0.961 . S
C705 H720 0.961 . S
C705 H721 0.961 . S
C706 C707 1.370 . S
C706 C708 1.363 1_554 S
C706 H722 0.931 . S
C707 C706 1.370 . S
C707 C711 1.408 . S
C708 C706 1.363 1_556 S
C708 C709 1.370 . S
C708 C712 1.524 . S
C709 C701 1.503 . S
C709 C708 1.370 . S
C709 C710 1.403 1_556 S
C710 C709 1.403 1_554 S
C710 C711 1.404 . S
C710 C713 1.543 . S
C711 C707 1.408 . S
C711 C710 1.404 . S
C711 H723 0.930 . S
C712 C708 1.524 . S
C712 H724 0.956 . S
C712 H725 0.961 . S
C712 H726 0.961 . S
C713 C710 1.543 . S
C713 H727 0.958 . S
C713 H728 0.968 . S
C713 H729 0.950 1_554 S
H714 C698 0.931 . S
H715 C703 0.929 . S
H716 C704 0.960 . S
H717 C704 0.962 . S
H718 C704 0.960 . S
H719 C705 0.961 . S
H720 C705 0.961 . S
H721 C705 0.961 . S
H722 C706 0.931 . S
H723 C711 0.930 . S
H724 C712 0.956 . S
H725 C712 0.961 . S
H726 C712 0.961 . S
H727 C713 0.958 . S
H728 C713 0.968 . S
H729 C713 0.950 1_556 S
C730 C731 1.391 . S
C730 C732 1.394 . S
C730 H746 0.931 . S
C731 C730 1.391 . S
C731 C735 1.376 1_455 S
C732 C730 1.394 . S
C732 C733 1.369 . S
C732 C736 1.531 . S
C733 C732 1.369 . S
C733 C734 1.410 1_455 S
C733 C741 1.503 . S
C734 C733 1.410 1_655 S
C734 C735 1.392 . S
C734 C737 1.511 . S
C735 C731 1.376 1_655 S
C735 C734 1.392 . S
C735 H747 0.929 . S
C736 C732 1.531 . S
C736 H748 0.960 . S
C736 H749 0.962 . S
C736 H750 0.960 . S
C737 C734 1.511 . S
C737 H751 0.961 . S
C737 H752 0.961 . S
C737 H753 0.961 . S
C738 C739 1.370 . S
C738 C740 1.363 . S
C738 H754 0.931 . S
C739 C738 1.370 . S
C739 C743 1.408 1_655 S
C740 C738 1.363 . S
C740 C741 1.370 1_655 S
C740 C744 1.524 . S
C741 C733 1.503 . S
C741 C740 1.370 1_455 S
C741 C742 1.403 . S
C742 C741 1.403 . S
C742 C743 1.404 . S
C742 C745 1.539 . S
C743 C739 1.408 1_455 S
C743 C742 1.404 . S
C743 H755 0.930 . S
C744 C740 1.524 . S
C744 H756 0.956 . S
C744 H757 0.961 . S
C744 H758 0.961 . S
C745 C742 1.539 . S
C745 H759 0.958 . S
C745 H760 0.961 . S
C745 H761 0.960 . S
H746 C730 0.931 . S
H747 C735 0.929 . S
H748 C736 0.960 . S
H749 C736 0.962 . S
H750 C736 0.960 . S
H751 C737 0.961 . S
H752 C737 0.961 . S
H753 C737 0.961 . S
H754 C738 0.931 . S
H755 C743 0.930 . S
H756 C744 0.956 . S
H757 C744 0.961 . S
H758 C744 0.961 . S
H759 C745 0.958 . S
H760 C745 0.961 . S
H761 C745 0.960 . S
C187 C7 0.749 . S
C195 C180 0.754 . S
C219 C51 2.034 . S
C227 C158 1.761 . S
C251 C87 1.040 . S
C259 C172 1.049 . S
C283 C16 0.385 . S
C291 C183 0.240 . S
C323 C161 1.828 . S
C315 C42 1.880 . S
C355 C169 1.190 . S
C347 C96 1.407 . S
C379 C47 1.347 . S
C387 C136 1.173 . S
C411 C91 3.266 . S
C419 C147 2.923 . S
C443 C2 2.154 . S
C451 C125 1.807 . S
C483 C139 1.105 . S
C475 C56 1.117 . S
C515 C150 2.808 . S
C507 C82 2.873 . S
C539 C11 1.769 . S
C547 C128 1.743 . S
C579 C149 1.646 . S
C571 C19 1.660 . S
C603 C50 1.409 . S
C611 C127 1.408 . S
C635 C99 1.494 . S
C643 C138 1.474 . S
C675 C171 1.457 . S
C667 C59 1.427 . S
C707 C182 1.197 . S
C699 C90 1.217 . S
C731 C10 1.433 . S
C739 C160 1.379 . S
