# Generated by pormake.
# Topology gar, (4,6)-cn, num edge types: 1
# Building blocks:
#     Node 0, Type 0, BuildingBlock: UXUYUI_clean_sbu_0, # of connection points: 4
#     Node 1, Type 0, BuildingBlock: UXUYUI_clean_sbu_0, # of connection points: 4
#     Node 2, Type 0, BuildingBlock: UXUYUI_clean_sbu_0, # of connection points: 4
#     Node 3, Type 0, BuildingBlock: UXUYUI_clean_sbu_0, # of connection points: 4
#     Node 4, Type 0, BuildingBlock: UXUYUI_clean_sbu_0, # of connection points: 4
#     Node 5, Type 0, BuildingBlock: UXUYUI_clean_sbu_0, # of connection points: 4
#     Node 6, Type 0, BuildingBlock: UXUYUI_clean_sbu_0, # of connection points: 4
#     Node 7, Type 0, BuildingBlock: UXUYUI_clean_sbu_0, # of connection points: 4
#     Node 8, Type 0, BuildingBlock: UXUYUI_clean_sbu_0, # of connection points: 4
#     Node 9, Type 0, BuildingBlock: UXUYUI_clean_sbu_0, # of connection points: 4
#     Node 10, Type 0, BuildingBlock: UXUYUI_clean_sbu_0, # of connection points: 4
#     Node 11, Type 0, BuildingBlock: UXUYUI_clean_sbu_0, # of connection points: 4
#     Node 12, Type 0, BuildingBlock: UXUYUI_clean_sbu_0, # of connection points: 4
#     Node 13, Type 0, BuildingBlock: UXUYUI_clean_sbu_0, # of connection points: 4
#     Node 14, Type 0, BuildingBlock: UXUYUI_clean_sbu_0, # of connection points: 4
#     Node 15, Type 0, BuildingBlock: UXUYUI_clean_sbu_0, # of connection points: 4
#     Node 16, Type 0, BuildingBlock: UXUYUI_clean_sbu_0, # of connection points: 4
#     Node 17, Type 0, BuildingBlock: UXUYUI_clean_sbu_0, # of connection points: 4
#     Node 18, Type 0, BuildingBlock: UXUYUI_clean_sbu_0, # of connection points: 4
#     Node 19, Type 0, BuildingBlock: UXUYUI_clean_sbu_0, # of connection points: 4
#     Node 20, Type 0, BuildingBlock: UXUYUI_clean_sbu_0, # of connection points: 4
#     Node 21, Type 0, BuildingBlock: UXUYUI_clean_sbu_0, # of connection points: 4
#     Node 22, Type 0, BuildingBlock: UXUYUI_clean_sbu_0, # of connection points: 4
#     Node 23, Type 0, BuildingBlock: UXUYUI_clean_sbu_0, # of connection points: 4
#     Node 24, Type 1, BuildingBlock: BETGAK_clean_sbu_0, # of connection points: 6
#     Node 25, Type 1, BuildingBlock: BETGAK_clean_sbu_0, # of connection points: 6
#     Node 26, Type 1, BuildingBlock: BETGAK_clean_sbu_0, # of connection points: 6
#     Node 27, Type 1, BuildingBlock: BETGAK_clean_sbu_0, # of connection points: 6
#     Node 28, Type 1, BuildingBlock: BETGAK_clean_sbu_0, # of connection points: 6
#     Node 29, Type 1, BuildingBlock: BETGAK_clean_sbu_0, # of connection points: 6
#     Node 30, Type 1, BuildingBlock: BETGAK_clean_sbu_0, # of connection points: 6
#     Node 31, Type 1, BuildingBlock: BETGAK_clean_sbu_0, # of connection points: 6
#     Node 32, Type 1, BuildingBlock: BETGAK_clean_sbu_0, # of connection points: 6
#     Node 33, Type 1, BuildingBlock: BETGAK_clean_sbu_0, # of connection points: 6
#     Node 34, Type 1, BuildingBlock: BETGAK_clean_sbu_0, # of connection points: 6
#     Node 35, Type 1, BuildingBlock: BETGAK_clean_sbu_0, # of connection points: 6
#     Node 36, Type 1, BuildingBlock: BETGAK_clean_sbu_0, # of connection points: 6
#     Node 37, Type 1, BuildingBlock: BETGAK_clean_sbu_0, # of connection points: 6
#     Node 38, Type 1, BuildingBlock: BETGAK_clean_sbu_0, # of connection points: 6
#     Node 39, Type 1, BuildingBlock: BETGAK_clean_sbu_0, # of connection points: 6
#     Edge 40, Type (0, 1), BuildingBlock: XIVTED_clean_linker_0, # of connection points: 2
#     Edge 41, Type (0, 1), BuildingBlock: XIVTED_clean_linker_0, # of connection points: 2
#     Edge 42, Type (0, 1), BuildingBlock: XIVTED_clean_linker_0, # of connection points: 2
#     Edge 43, Type (0, 1), BuildingBlock: XIVTED_clean_linker_0, # of connection points: 2
#     Edge 44, Type (0, 1), BuildingBlock: XIVTED_clean_linker_0, # of connection points: 2
#     Edge 45, Type (0, 1), BuildingBlock: XIVTED_clean_linker_0, # of connection points: 2
#     Edge 46, Type (0, 1), BuildingBlock: XIVTED_clean_linker_0, # of connection points: 2
#     Edge 47, Type (0, 1), BuildingBlock: XIVTED_clean_linker_0, # of connection points: 2
#     Edge 48, Type (0, 1), BuildingBlock: XIVTED_clean_linker_0, # of connection points: 2
#     Edge 49, Type (0, 1), BuildingBlock: XIVTED_clean_linker_0, # of connection points: 2
#     Edge 50, Type (0, 1), BuildingBlock: XIVTED_clean_linker_0, # of connection points: 2
#     Edge 51, Type (0, 1), BuildingBlock: XIVTED_clean_linker_0, # of connection points: 2
#     Edge 52, Type (0, 1), BuildingBlock: XIVTED_clean_linker_0, # of connection points: 2
#     Edge 53, Type (0, 1), BuildingBlock: XIVTED_clean_linker_0, # of connection points: 2
#     Edge 54, Type (0, 1), BuildingBlock: XIVTED_clean_linker_0, # of connection points: 2
#     Edge 55, Type (0, 1), BuildingBlock: XIVTED_clean_linker_0, # of connection points: 2
#     Edge 56, Type (0, 1), BuildingBlock: XIVTED_clean_linker_0, # of connection points: 2
#     Edge 57, Type (0, 1), BuildingBlock: XIVTED_clean_linker_0, # of connection points: 2
#     Edge 58, Type (0, 1), BuildingBlock: XIVTED_clean_linker_0, # of connection points: 2
#     Edge 59, Type (0, 1), BuildingBlock: XIVTED_clean_linker_0, # of connection points: 2
#     Edge 60, Type (0, 1), BuildingBlock: XIVTED_clean_linker_0, # of connection points: 2
#     Edge 61, Type (0, 1), BuildingBlock: XIVTED_clean_linker_0, # of connection points: 2
#     Edge 62, Type (0, 1), BuildingBlock: XIVTED_clean_linker_0, # of connection points: 2
#     Edge 63, Type (0, 1), BuildingBlock: XIVTED_clean_linker_0, # of connection points: 2
#     Edge 64, Type (0, 1), BuildingBlock: XIVTED_clean_linker_0, # of connection points: 2
#     Edge 65, Type (0, 1), BuildingBlock: XIVTED_clean_linker_0, # of connection points: 2
#     Edge 66, Type (0, 1), BuildingBlock: XIVTED_clean_linker_0, # of connection points: 2
#     Edge 67, Type (0, 1), BuildingBlock: XIVTED_clean_linker_0, # of connection points: 2
#     Edge 68, Type (0, 1), BuildingBlock: XIVTED_clean_linker_0, # of connection points: 2
#     Edge 69, Type (0, 1), BuildingBlock: XIVTED_clean_linker_0, # of connection points: 2
#     Edge 70, Type (0, 1), BuildingBlock: XIVTED_clean_linker_0, # of connection points: 2
#     Edge 71, Type (0, 1), BuildingBlock: XIVTED_clean_linker_0, # of connection points: 2
#     Edge 72, Type (0, 1), BuildingBlock: XIVTED_clean_linker_0, # of connection points: 2
#     Edge 73, Type (0, 1), BuildingBlock: XIVTED_clean_linker_0, # of connection points: 2
#     Edge 74, Type (0, 1), BuildingBlock: XIVTED_clean_linker_0, # of connection points: 2
#     Edge 75, Type (0, 1), BuildingBlock: XIVTED_clean_linker_0, # of connection points: 2
#     Edge 76, Type (0, 1), BuildingBlock: XIVTED_clean_linker_0, # of connection points: 2
#     Edge 77, Type (0, 1), BuildingBlock: XIVTED_clean_linker_0, # of connection points: 2
#     Edge 78, Type (0, 1), BuildingBlock: XIVTED_clean_linker_0, # of connection points: 2
#     Edge 79, Type (0, 1), BuildingBlock: XIVTED_clean_linker_0, # of connection points: 2
#     Edge 80, Type (0, 1), BuildingBlock: XIVTED_clean_linker_0, # of connection points: 2
#     Edge 81, Type (0, 1), BuildingBlock: XIVTED_clean_linker_0, # of connection points: 2
#     Edge 82, Type (0, 1), BuildingBlock: XIVTED_clean_linker_0, # of connection points: 2
#     Edge 83, Type (0, 1), BuildingBlock: XIVTED_clean_linker_0, # of connection points: 2
#     Edge 84, Type (0, 1), BuildingBlock: XIVTED_clean_linker_0, # of connection points: 2
#     Edge 85, Type (0, 1), BuildingBlock: XIVTED_clean_linker_0, # of connection points: 2
#     Edge 86, Type (0, 1), BuildingBlock: XIVTED_clean_linker_0, # of connection points: 2
#     Edge 87, Type (0, 1), BuildingBlock: XIVTED_clean_linker_0, # of connection points: 2
#     Edge 88, Type (0, 1), BuildingBlock: XIVTED_clean_linker_0, # of connection points: 2
#     Edge 89, Type (0, 1), BuildingBlock: XIVTED_clean_linker_0, # of connection points: 2
#     Edge 90, Type (0, 1), BuildingBlock: XIVTED_clean_linker_0, # of connection points: 2
#     Edge 91, Type (0, 1), BuildingBlock: XIVTED_clean_linker_0, # of connection points: 2
#     Edge 92, Type (0, 1), BuildingBlock: XIVTED_clean_linker_0, # of connection points: 2
#     Edge 93, Type (0, 1), BuildingBlock: XIVTED_clean_linker_0, # of connection points: 2
#     Edge 94, Type (0, 1), BuildingBlock: XIVTED_clean_linker_0, # of connection points: 2
#     Edge 95, Type (0, 1), BuildingBlock: XIVTED_clean_linker_0, # of connection points: 2
#     Edge 96, Type (0, 1), BuildingBlock: XIVTED_clean_linker_0, # of connection points: 2
#     Edge 97, Type (0, 1), BuildingBlock: XIVTED_clean_linker_0, # of connection points: 2
#     Edge 98, Type (0, 1), BuildingBlock: XIVTED_clean_linker_0, # of connection points: 2
#     Edge 99, Type (0, 1), BuildingBlock: XIVTED_clean_linker_0, # of connection points: 2
#     Edge 100, Type (0, 1), BuildingBlock: XIVTED_clean_linker_0, # of connection points: 2
#     Edge 101, Type (0, 1), BuildingBlock: XIVTED_clean_linker_0, # of connection points: 2
#     Edge 102, Type (0, 1), BuildingBlock: XIVTED_clean_linker_0, # of connection points: 2
#     Edge 103, Type (0, 1), BuildingBlock: XIVTED_clean_linker_0, # of connection points: 2
#     Edge 104, Type (0, 1), BuildingBlock: XIVTED_clean_linker_0, # of connection points: 2
#     Edge 105, Type (0, 1), BuildingBlock: XIVTED_clean_linker_0, # of connection points: 2
#     Edge 106, Type (0, 1), BuildingBlock: XIVTED_clean_linker_0, # of connection points: 2
#     Edge 107, Type (0, 1), BuildingBlock: XIVTED_clean_linker_0, # of connection points: 2
#     Edge 108, Type (0, 1), BuildingBlock: XIVTED_clean_linker_0, # of connection points: 2
#     Edge 109, Type (0, 1), BuildingBlock: XIVTED_clean_linker_0, # of connection points: 2
#     Edge 110, Type (0, 1), BuildingBlock: XIVTED_clean_linker_0, # of connection points: 2
#     Edge 111, Type (0, 1), BuildingBlock: XIVTED_clean_linker_0, # of connection points: 2
#     Edge 112, Type (0, 1), BuildingBlock: XIVTED_clean_linker_0, # of connection points: 2
#     Edge 113, Type (0, 1), BuildingBlock: XIVTED_clean_linker_0, # of connection points: 2
#     Edge 114, Type (0, 1), BuildingBlock: XIVTED_clean_linker_0, # of connection points: 2
#     Edge 115, Type (0, 1), BuildingBlock: XIVTED_clean_linker_0, # of connection points: 2
#     Edge 116, Type (0, 1), BuildingBlock: XIVTED_clean_linker_0, # of connection points: 2
#     Edge 117, Type (0, 1), BuildingBlock: XIVTED_clean_linker_0, # of connection points: 2
#     Edge 118, Type (0, 1), BuildingBlock: XIVTED_clean_linker_0, # of connection points: 2
#     Edge 119, Type (0, 1), BuildingBlock: XIVTED_clean_linker_0, # of connection points: 2
#     Edge 120, Type (0, 1), BuildingBlock: XIVTED_clean_linker_0, # of connection points: 2
#     Edge 121, Type (0, 1), BuildingBlock: XIVTED_clean_linker_0, # of connection points: 2
#     Edge 122, Type (0, 1), BuildingBlock: XIVTED_clean_linker_0, # of connection points: 2
#     Edge 123, Type (0, 1), BuildingBlock: XIVTED_clean_linker_0, # of connection points: 2
#     Edge 124, Type (0, 1), BuildingBlock: XIVTED_clean_linker_0, # of connection points: 2
#     Edge 125, Type (0, 1), BuildingBlock: XIVTED_clean_linker_0, # of connection points: 2
#     Edge 126, Type (0, 1), BuildingBlock: XIVTED_clean_linker_0, # of connection points: 2
#     Edge 127, Type (0, 1), BuildingBlock: XIVTED_clean_linker_0, # of connection points: 2
#     Edge 128, Type (0, 1), BuildingBlock: XIVTED_clean_linker_0, # of connection points: 2
#     Edge 129, Type (0, 1), BuildingBlock: XIVTED_clean_linker_0, # of connection points: 2
#     Edge 130, Type (0, 1), BuildingBlock: XIVTED_clean_linker_0, # of connection points: 2
#     Edge 131, Type (0, 1), BuildingBlock: XIVTED_clean_linker_0, # of connection points: 2
#     Edge 132, Type (0, 1), BuildingBlock: XIVTED_clean_linker_0, # of connection points: 2
#     Edge 133, Type (0, 1), BuildingBlock: XIVTED_clean_linker_0, # of connection points: 2
#     Edge 134, Type (0, 1), BuildingBlock: XIVTED_clean_linker_0, # of connection points: 2
#     Edge 135, Type (0, 1), BuildingBlock: XIVTED_clean_linker_0, # of connection points: 2
# Relax obj value: 0.203
# Max RMSD: 0.288
# Mean RMSD: 0.198
data_MOF--net-gar--node1-UXUYUI_clean_sbu_0--node2-BETGAK_clean_sbu_0--edge1-XIVTED_clean_linker_0
_symmetry_space_group_name_H-M    P1
_symmetry_Int_Tables_number       1
_symmetry_cell_setting            triclinic
loop_
_symmetry_equiv_pos_as_xyz
'x, y, z'
_cell_length_a     74.746658
_cell_length_b     69.215703
_cell_length_c     69.423008
_cell_angle_alpha  98.186577
_cell_angle_beta   94.912209
_cell_angle_gamma 102.07795
loop_
_atom_site_label
_atom_site_type_symbol
_atom_site_fract_x
_atom_site_fract_y
_atom_site_fract_z
_atom_type_partial_charge
Li0 Li 0.07484 0.32978 0.36124 0.0
Li1 Li 0.09015 0.35143 0.3901 0.0
Li2 Li 0.10785 0.33381 0.36699 0.0
Li3 Li 0.0869 0.31627 0.38842 0.0
C4 C 0.08952 0.3631 0.34685 0.0
N5 N 0.08011 0.37993 0.31473 0.0
C6 C 0.0736 0.37068 0.34569 0.0
C7 C 0.1007 0.36417 0.33172 0.0
C8 C 0.06906 0.37908 0.32931 0.0
C9 C 0.0957 0.37273 0.3156 0.0
C10 C 0.05701 0.34134 0.39902 0.0
C11 C 0.05068 0.35558 0.43084 0.0
N12 N 0.038 0.36406 0.42205 0.0
C13 C 0.04392 0.35023 0.39031 0.0
C14 C 0.06039 0.34403 0.41946 0.0
C15 C 0.03445 0.36162 0.4022 0.0
C16 C 0.03812 0.31533 0.34519 0.0
N17 N 0.05501 0.32344 0.34046 0.0
C18 C 0.04278 0.32048 0.30693 0.0
C19 C 0.05769 0.32549 0.32164 0.0
C20 C 0.02507 0.3128 0.3116 0.0
C21 C 0.02288 0.30995 0.33096 0.0
H22 H 0.03649 0.31302 0.36007 0.0
H23 H 0.07139 0.33088 0.31797 0.0
C24 C 0.10192 0.37883 0.42533 0.0
N25 N 0.09152 0.37561 0.40764 0.0
C26 C 0.1008 0.39462 0.43976 0.0
C27 C 0.07909 0.40412 0.41709 0.0
C28 C 0.08075 0.38827 0.40307 0.0
C29 C 0.08883 0.4071 0.43586 0.0
H30 H 0.11053 0.36869 0.4285 0.0
H31 H 0.07273 0.38548 0.3889 0.0
C32 C 0.07843 0.2935 0.34691 0.0
N33 N 0.05561 0.26393 0.3193 0.0
C34 C 0.06366 0.28035 0.35253 0.0
C35 C 0.0816 0.2916 0.32725 0.0
C36 C 0.05228 0.2655 0.33835 0.0
C37 C 0.06991 0.27655 0.31351 0.0
C38 C 0.11922 0.32865 0.40927 0.0
C39 C 0.13374 0.32009 0.40371 0.0
C40 C 0.11377 0.32765 0.42795 0.0
C41 C 0.14246 0.3105 0.41688 0.0
C42 C 0.12281 0.31788 0.44067 0.0
N43 N 0.13685 0.30958 0.43491 0.0
C44 C 0.14349 0.35116 0.35792 0.0
C45 C 0.13157 0.31662 0.34572 0.0
C46 C 0.15997 0.35045 0.35001 0.0
N47 N 0.12982 0.33432 0.35568 0.0
C48 C 0.14764 0.31526 0.3375 0.0
C49 C 0.16225 0.33222 0.33986 0.0
H50 H 0.14167 0.36499 0.36609 0.0
H51 H 0.12059 0.30344 0.34448 0.0
C52 C 0.07126 0.29228 0.41527 0.0
N53 N 0.08375 0.2942 0.40217 0.0
C54 C 0.06956 0.27659 0.42604 0.0
C55 C 0.09301 0.26463 0.40895 0.0
C56 C 0.09437 0.28066 0.39863 0.0
C57 C 0.08062 0.26261 0.42302 0.0
H58 H 0.06264 0.30292 0.4174 0.0
H59 H 0.10405 0.28249 0.38794 0.0
O60 O 0.09433 0.35492 0.36281 0.0
O61 O 0.06667 0.3304 0.38761 0.0
O62 O 0.08939 0.3085 0.3605 0.0
O63 O 0.11023 0.33772 0.39641 0.0
H64 H 0.06461 0.36966 0.35705 0.0
H65 H 0.11307 0.3584 0.33236 0.0
H66 H 0.05669 0.38483 0.32814 0.0
H67 H 0.10421 0.37361 0.30376 0.0
H68 H 0.05331 0.35793 0.44666 0.0
H69 H 0.04129 0.34867 0.37456 0.0
H70 H 0.07073 0.33769 0.42651 0.0
H71 H 0.02436 0.36864 0.39565 0.0
H72 H 0.04507 0.32254 0.29209 0.0
H73 H 1.00944 0.30415 0.33521 0.0
H74 H 0.10853 0.39645 0.45408 0.0
H75 H 0.06992 0.41364 0.41346 0.0
H76 H 0.06082 0.28177 0.36762 0.0
H77 H 0.09277 0.30186 0.32257 0.0
H78 H 0.04074 0.25529 0.34248 0.0
H79 H 0.07213 0.27499 0.29823 0.0
H80 H 0.13818 0.32069 0.38936 0.0
H81 H 0.10245 0.334 0.43246 0.0
H82 H 0.15367 0.30374 0.41273 0.0
H83 H 0.11861 0.31683 0.45508 0.0
H84 H 0.17095 0.36382 0.35226 0.0
H85 H 0.14864 0.30099 0.32948 0.0
H86 H 0.05959 0.27531 0.4365 0.0
H87 H 0.10182 0.25418 0.40626 0.0
Li88 Li 1.00332 0.77493 0.64539 0.0
Li89 Li 0.02061 0.76395 0.66997 0.0
Li90 Li 1.00171 0.73961 0.64468 0.0
Li91 Li 0.98836 0.75867 0.67033 0.0
C92 C 0.02663 0.75827 0.62265 0.0
N93 N 0.03317 0.75335 0.58387 0.0
C94 C 0.04464 0.76024 0.6179 0.0
C95 C 1.01192 0.75374 0.60765 0.0
C96 C 0.04767 0.75771 0.59822 0.0
C97 C 0.01552 0.75132 0.58815 0.0
C98 C 0.01728 0.80353 0.67789 0.0
C99 C 0.02333 0.83798 0.69373 0.0
N100 N 0.03935 0.84178 0.68557 0.0
C101 C 0.03381 0.80778 0.66967 0.0
C102 C 1.01199 0.81874 0.69001 0.0
C103 C 0.04477 0.82721 0.67373 0.0
C104 C 0.98641 0.80212 0.62881 0.0
N105 N 1.00225 0.79541 0.63018 0.0
C106 C 0.01584 0.81809 0.60988 0.0
C107 C 0.01695 0.80329 0.62128 0.0
C108 C 0.99964 0.8252 0.60812 0.0
C109 C 0.98485 0.81728 0.61789 0.0
H110 H 0.97503 0.7957 0.63626 0.0
H111 H 0.02959 0.79817 0.62306 0.0
C112 C 0.05562 0.75849 0.6803 0.0
N113 N 0.04304 0.7688 0.6865 0.0
C114 C 0.07143 0.75906 0.6927 0.0
C115 C 0.06143 0.78159 0.71732 0.0
C116 C 0.04566 0.7804 0.70449 0.0
C117 C 0.07432 0.77048 0.71156 0.0
H118 H 0.053 0.74925 0.66597 0.0
H119 H 0.0352 0.78812 0.70913 0.0
C120 C 0.96397 0.74009 0.63688 0.0
N121 N 0.92994 0.71378 0.62824 0.0
C122 C 0.95967 0.72388 0.6469 0.0
C123 C 0.95094 0.74295 0.62252 0.0
C124 C 0.9424 0.71075 0.64231 0.0
C125 C 0.93383 0.72946 0.61833 0.0
C126 C 1.01205 0.73355 0.68881 0.0
C127 C 0.02269 0.71922 0.68619 0.0
C128 C 1.01096 0.74303 0.7077 0.0
C129 C 0.03229 0.7148 0.70257 0.0
C130 C 0.02074 0.73816 0.7237 0.0
N131 N 0.03114 0.72429 0.72082 0.0
C132 C 0.01843 0.71079 0.62866 0.0
C133 C 0.98688 0.70337 0.616 0.0
C134 C 0.02129 0.69434 0.61627 0.0
N135 N 1.0015 0.71506 0.62827 0.0
C136 C 0.98901 0.68638 0.60369 0.0
C137 C 1.00647 0.68173 0.60355 0.0
H138 H 0.0299 0.72059 0.63826 0.0
H139 H 0.97365 0.70727 0.61543 0.0
C140 C 0.96284 0.77585 0.68822 0.0
N141 N 0.96937 0.75889 0.68629 0.0
C142 C 0.94945 0.77807 0.70058 0.0
C143 C 0.94952 0.74512 0.70846 0.0
C144 C 0.96304 0.74359 0.696 0.0
C145 C 0.94273 0.76265 0.71099 0.0
H146 H 0.9682 0.78771 0.68024 0.0
H147 H 0.96865 0.73033 0.69425 0.0
O148 O 0.02357 0.7605 0.64192 0.0
O149 O 1.00617 0.78467 0.67409 0.0
O150 O 0.98061 0.75346 0.64134 0.0
O151 O 1.00301 0.73855 0.67293 0.0
H152 H 0.05616 0.76366 0.62935 0.0
H153 H 0.99787 0.75208 0.61097 0.0
H154 H 0.06155 0.75921 0.59434 0.0
H155 H 1.00428 0.74783 0.57641 0.0
H156 H 0.0194 0.84989 0.70309 0.0
H157 H 0.0382 0.79625 0.66028 0.0
H158 H 0.99922 0.81569 0.69648 0.0
H159 H 0.05759 0.8307 0.66747 0.0
H160 H 0.02761 0.82418 0.60277 0.0
H161 H 0.9722 0.82255 0.61686 0.0
H162 H 0.08121 0.75048 0.68769 0.0
H163 H 0.06318 0.79045 0.73181 0.0
H164 H 0.9696 0.72131 0.65794 0.0
H165 H 0.95404 0.75549 0.61471 0.0
H166 H 0.93891 0.69812 0.64991 0.0
H167 H 0.92362 0.73148 0.60723 0.0
H168 H 0.02366 0.71173 0.67167 0.0
H169 H 1.00293 0.75431 0.70996 0.0
H170 H 0.0407 0.70385 0.70076 0.0
H171 H 0.02016 0.74551 0.73839 0.0
H172 H 0.03514 0.69193 0.61641 0.0
H173 H 0.97706 0.67709 0.59438 0.0
H174 H 0.94432 0.79166 0.70187 0.0
H175 H 0.94471 0.73295 0.71631 0.0
Li176 Li 0.58015 0.81843 0.87308 0.0
Li177 Li 0.59681 0.8462 0.89744 0.0
Li178 Li 0.61278 0.83312 0.87152 0.0
Li179 Li 0.60402 0.81485 0.89757 0.0
C180 C 0.59641 0.86447 0.86418 0.0
N181 N 0.60668 0.90251 0.85505 0.0
C182 C 0.6133 0.87701 0.87252 0.0
C183 C 0.5847 0.87133 0.85129 0.0
C184 C 0.61825 0.89617 0.86769 0.0
C185 C 0.59016 0.8906 0.84683 0.0
C186 C 0.56934 0.82879 0.91461 0.0
C187 C 0.56585 0.84519 0.94673 0.0
N188 N 0.54813 0.84516 0.94035 0.0
C189 C 0.55109 0.82897 0.9084 0.0
C190 C 0.57678 0.83697 0.93396 0.0
C191 C 0.54059 0.83728 0.92163 0.0
C192 C 0.54488 0.7923 0.86373 0.0
N193 N 0.55759 0.8064 0.85749 0.0
C194 C 0.53663 0.80721 0.82988 0.0
C195 C 0.55404 0.81342 0.84061 0.0
C196 C 0.52281 0.79357 0.8366 0.0
C197 C 0.52731 0.78555 0.85339 0.0
H198 H 0.54805 0.78705 0.87728 0.0
H199 H 0.56451 0.82453 0.83598 0.0
C200 C 0.60675 0.88103 0.92685 0.0
N201 N 0.59367 0.87022 0.91233 0.0
C202 C 0.60322 0.8973 0.93906 0.0
C203 C 0.57313 0.89142 0.92055 0.0
C204 C 0.57737 0.87549 0.90855 0.0
C205 C 0.58601 0.90238 0.93631 0.0
H206 H 0.61979 0.8768 0.92917 0.0
H207 H 0.56735 0.86675 0.89667 0.0
C208 C 0.59394 0.7845 0.86346 0.0
N209 N 0.58049 0.7437 0.85247 0.0
C210 C 0.58221 0.77381 0.87484 0.0
C211 C 0.59883 0.77445 0.84649 0.0
C212 C 0.57557 0.7532 0.86904 0.0
C213 C 0.59188 0.75381 0.84117 0.0
C214 C 0.63537 0.83643 0.91169 0.0
C215 C 0.64852 0.82722 0.90347 0.0
C216 C 0.63556 0.83992 0.93205 0.0
C217 C 0.66173 0.82176 0.91577 0.0
C218 C 0.64898 0.8342 0.94386 0.0
N219 N 0.66168 0.82532 0.93554 0.0
C220 C 0.64709 0.84965 0.85932 0.0
C221 C 0.62439 0.82928 0.8346 0.0
C222 C 0.66025 0.85086 0.84621 0.0
N223 N 0.62977 0.83843 0.85345 0.0
C224 C 0.63705 0.8302 0.82095 0.0
C225 C 0.65544 0.84048 0.82689 0.0
H226 H 0.6509 0.85686 0.87443 0.0
H227 H 0.61043 0.8206 0.8304 0.0
C228 C 0.60405 0.79547 0.93055 0.0
N229 N 0.61061 0.79607 0.91295 0.0
C230 C 0.6067 0.78064 0.94138 0.0
C231 C 0.62299 0.76731 0.91586 0.0
C232 C 0.6203 0.78267 0.90566 0.0
C233 C 0.61589 0.76606 0.93383 0.0
H234 H 0.59619 0.80604 0.93589 0.0
H235 H 0.62534 0.78347 0.89158 0.0
O236 O 0.59112 0.84568 0.86879 0.0
O237 O 0.57991 0.82087 0.90178 0.0
O238 O 0.60072 0.80469 0.86883 0.0
O239 O 0.62204 0.84142 0.89985 0.0
H240 H 0.62247 0.87211 0.88269 0.0
H241 H 0.57151 0.8619 0.84484 0.0
H242 H 0.63128 0.90602 0.87403 0.0
H243 H 0.58124 0.89609 0.83686 0.0
H244 H 0.57151 0.85175 0.96166 0.0
H245 H 0.54513 0.82307 0.89346 0.0
H246 H 0.591 0.83755 0.93896 0.0
H247 H 0.52648 0.83757 0.91697 0.0
H248 H 0.53375 0.81397 0.81716 0.0
H249 H 0.51715 0.77483 0.85895 0.0
H250 H 0.61379 0.90566 0.95062 0.0
H251 H 0.55963 0.89459 0.91788 0.0
H252 H 0.57832 0.78133 0.88804 0.0
H253 H 0.60792 0.78251 0.83753 0.0
H254 H 0.5665 0.74474 0.87773 0.0
H255 H 0.59555 0.74584 0.82807 0.0
H256 H 0.64834 0.82396 0.88774 0.0
H257 H 0.62529 0.84667 0.93869 0.0
H258 H 0.67194 0.81454 0.9096 0.0
H259 H 0.64923 0.83673 0.95963 0.0
H260 H 0.67428 0.85878 0.85151 0.0
H261 H 0.63266 0.82227 0.80613 0.0
H262 H 0.60075 0.77997 0.95503 0.0
H263 H 0.63014 0.75629 0.90959 0.0
Li264 Li 0.51889 0.26946 0.14562 0.0
Li265 Li 0.52926 0.25525 0.17328 0.0
Li266 Li 0.51455 0.23395 0.14301 0.0
Li267 Li 0.49713 0.25108 0.16381 0.0
C268 C 0.54741 0.2519 0.13133 0.0
N269 N 0.5658 0.24665 0.09878 0.0
C270 C 0.5653 0.24879 0.13338 0.0
C271 C 0.53885 0.25232 0.11272 0.0
C272 C 0.57437 0.24618 0.11674 0.0
C273 C 0.54838 0.24964 0.09646 0.0
C274 C 0.52641 0.29513 0.18088 0.0
C275 C 0.5307 0.3286 0.19881 0.0
N276 N 0.54874 0.33237 0.19572 0.0
C277 C 0.545 0.29933 0.1779 0.0
C278 C 0.5192 0.30987 0.19143 0.0
C279 C 0.55606 0.31824 0.18551 0.0
C280 C 0.50898 0.2973 0.12381 0.0
N281 N 0.52372 0.29125 0.13167 0.0
C282 C 0.54438 0.31498 0.11753 0.0
C283 C 0.54122 0.29989 0.12899 0.0
C284 C 0.52939 0.32132 0.10887 0.0
C285 C 0.5115 0.31243 0.11234 0.0
H286 H 0.49523 0.29019 0.12629 0.0
H287 H 0.55271 0.29478 0.1354 0.0
C288 C 0.55983 0.24587 0.1916 0.0
N289 N 0.54771 0.25781 0.19445 0.0
C290 C 0.57401 0.24663 0.20626 0.0
C291 C 0.56282 0.27182 0.22665 0.0
C292 C 0.54874 0.27044 0.21162 0.0
C293 C 0.57571 0.25985 0.224 0.0
H294 H 0.55848 0.23582 0.17785 0.0
H295 H 0.53867 0.27948 0.21366 0.0
C296 C 0.47995 0.23613 0.1265 0.0
N297 N 0.44728 0.21021 0.10957 0.0
C298 C 0.47438 0.21763 0.13263 0.0
C299 C 0.4689 0.24142 0.11176 0.0
C300 C 0.45782 0.20475 0.12389 0.0
C301 C 0.45244 0.22811 0.10337 0.0
C302 C 0.50708 0.22547 0.18824 0.0
C303 C 0.50545 0.20583 0.19173 0.0
C304 C 0.50566 0.24047 0.20344 0.0
C305 C 0.5024 0.20149 0.21038 0.0
C306 C 0.50261 0.23553 0.22189 0.0
N307 N 0.50105 0.21631 0.22495 0.0
C308 C 0.5267 0.1989 0.13184 0.0
C309 C 0.50975 0.20898 0.1061 0.0
C310 C 0.53146 0.18418 0.11859 0.0
N311 N 0.51627 0.21107 0.12534 0.0
C312 C 0.51418 0.19452 0.09237 0.0
C313 C 0.5255 0.18215 0.09849 0.0
H314 H 0.53199 0.20122 0.14719 0.0
H315 H 0.50198 0.21928 0.10123 0.0
C316 C 0.46963 0.26877 0.1767 0.0
N317 N 0.47436 0.25078 0.17387 0.0
C318 C 0.45445 0.27102 0.18638 0.0
C319 C 0.44882 0.23593 0.18937 0.0
C320 C 0.46412 0.23433 0.17951 0.0
C321 C 0.4441 0.2546 0.19332 0.0
H322 H 0.47799 0.28151 0.17188 0.0
H323 H 0.46819 0.22017 0.17703 0.0
O324 O 0.53822 0.25402 0.14745 0.0
O325 O 0.51519 0.27677 0.17353 0.0
O326 O 0.49605 0.24914 0.13484 0.0
O327 O 0.51012 0.22984 0.17002 0.0
H328 H 0.57209 0.24836 0.14767 0.0
H329 H 0.52493 0.2545 0.11083 0.0
H330 H 0.58823 0.24375 0.11811 0.0
H331 H 0.5419 0.24987 0.08197 0.0
H332 H 0.5253 0.34014 0.207 0.0
H333 H 0.55091 0.28813 0.16991 0.0
H334 H 0.50485 0.30686 0.1939 0.0
H335 H 0.57046 0.32168 0.18333 0.0
H336 H 0.55838 0.32123 0.1151 0.0
H337 H 0.49957 0.3171 0.10629 0.0
H338 H 0.58382 0.23733 0.20354 0.0
H339 H 0.5636 0.28206 0.24019 0.0
H340 H 0.48273 0.2132 0.14395 0.0
H341 H 0.47302 0.25569 0.10684 0.0
H342 H 0.45336 0.1904 0.1285 0.0
H343 H 0.44375 0.23202 0.09195 0.0
H344 H 0.50653 0.19406 0.18011 0.0
H345 H 0.50682 0.25575 0.20106 0.0
H346 H 0.5011 0.18634 0.21328 0.0
H347 H 0.50146 0.24699 0.23377 0.0
H348 H 0.54003 0.17481 0.12398 0.0
H349 H 0.50955 0.19376 0.07701 0.0
H350 H 0.45104 0.28557 0.18867 0.0
H351 H 0.44125 0.2229 0.19451 0.0
Li352 Li 0.0829 0.83416 0.12006 0.0
Li353 Li 0.10168 0.81767 0.14396 0.0
Li354 Li 0.07911 0.79775 0.11732 0.0
Li355 Li 0.06826 0.81531 0.14428 0.0
C356 C 0.10915 0.80807 0.10026 0.0
N357 N 0.12279 0.78686 0.07032 0.0
C358 C 0.12204 0.79683 0.10457 0.0
C359 C 0.10342 0.80878 0.08074 0.0
C360 C 0.12871 0.78614 0.08923 0.0
C361 C 0.11042 0.79789 0.0658 0.0
C362 C 0.08356 0.84886 0.16655 0.0
C363 C 0.08349 0.85235 0.20159 0.0
N364 N 0.07164 0.86475 0.2006 0.0
C365 C 0.07144 0.86169 0.16587 0.0
C366 C 0.08969 0.84416 0.18452 0.0
C367 C 0.06555 0.86955 0.18326 0.0
C368 C 0.06665 0.86396 0.10733 0.0
N369 N 0.08234 0.85697 0.10717 0.0
C370 C 0.09541 0.88203 0.08867 0.0
C371 C 0.09664 0.86562 0.0981 0.0
C372 C 0.07927 0.88951 0.08846 0.0
C373 C 0.06481 0.88021 0.09805 0.0
H374 H 0.05547 0.8568 0.11462 0.0
H375 H 0.10895 0.85973 0.09809 0.0
C376 C 0.12787 0.80012 0.1617 0.0
N377 N 0.12491 0.81818 0.15847 0.0
C378 C 0.14455 0.79871 0.17152 0.0
C379 C 0.15503 0.83458 0.17455 0.0
C380 C 0.13805 0.83529 0.16468 0.0
C381 C 0.15852 0.81606 0.17806 0.0
H382 H 0.11729 0.7867 0.15641 0.0
H383 H 0.13543 0.84947 0.16179 0.0
C384 C 0.04712 0.80815 0.10016 0.0
N385 N 0.02127 0.79751 0.06734 0.0
C386 C 0.02956 0.79663 0.10115 0.0
C387 C 0.05142 0.81449 0.08254 0.0
C388 C 0.01672 0.79132 0.08437 0.0
C389 C 0.03819 0.8089 0.0661 0.0
C390 C 0.07116 0.77719 0.14936 0.0
C391 C 0.05391 0.76912 0.13855 0.0
C392 C 0.07702 0.768 0.16466 0.0
C393 C 0.04279 0.75193 0.14317 0.0
C394 C 0.06549 0.75083 0.16885 0.0
N395 N 0.04876 0.74321 0.1581 0.0
C396 C 0.08637 0.76035 0.10732 0.0
C397 C 0.06312 0.76514 0.08427 0.0
C398 C 0.08468 0.74076 0.09795 0.0
N399 N 0.07561 0.77211 0.10053 0.0
C400 C 0.06088 0.74547 0.07447 0.0
C401 C 0.07168 0.73295 0.08138 0.0
H402 H 0.09608 0.76613 0.12036 0.0
H403 H 0.05467 0.77457 0.07901 0.0
C404 C 0.03359 0.82091 0.15371 0.0
N405 N 0.04847 0.81429 0.16037 0.0
C406 C 0.01809 0.81924 0.16381 0.0
C407 C 0.03361 0.8043 0.18773 0.0
C408 C 0.04887 0.80639 0.17721 0.0
C409 C 0.01779 0.81054 0.18095 0.0
H410 H 0.03369 0.82732 0.14038 0.0
H411 H 0.06092 0.80138 0.18233 0.0
O412 O 0.10214 0.81823 0.11509 0.0
O413 O 0.08896 0.84041 0.14965 0.0
O414 O 0.05978 0.81367 0.11652 0.0
O415 O 0.08224 0.79412 0.14519 0.0
H416 H 0.12668 0.79617 0.1196 0.0
H417 H 0.09369 0.81763 0.07713 0.0
H418 H 0.13857 0.77724 0.09236 0.0
H419 H 0.10602 0.79821 0.05062 0.0
H420 H 0.08804 0.84877 0.2156 0.0
H421 H 0.06649 0.86535 0.15204 0.0
H422 H 0.09896 0.83411 0.18523 0.0
H423 H 0.05609 0.87942 0.18296 0.0
H424 H 0.10685 0.88854 0.08133 0.0
H425 H 0.05222 0.88556 0.09858 0.0
H426 H 0.14637 0.78414 0.17409 0.0
H427 H 0.16539 0.84835 0.17906 0.0
H428 H 0.02585 0.79187 0.11474 0.0
H429 H 0.0648 0.82363 0.08154 0.0
H430 H 1.00312 0.78234 0.08492 0.0
H431 H 0.04137 0.81365 0.05235 0.0
H432 H 0.04919 0.77602 0.12668 0.0
H433 H 0.09027 0.77414 0.1733 0.0
H434 H 0.02942 0.74552 0.13488 0.0
H435 H 0.06984 0.74357 0.18066 0.0
H436 H 0.09312 0.73162 0.10402 0.0
H437 H 0.0508 0.74013 0.06164 0.0
H438 H 1.00647 0.82471 0.15821 0.0
H439 H 0.03406 0.79738 0.20074 0.0
Li440 Li 0.51633 0.79206 0.42675 0.0
Li441 Li 0.49494 0.77006 0.40068 0.0
Li442 Li 0.51364 0.75551 0.42554 0.0
Li443 Li 0.52808 0.77341 0.39977 0.0
C444 C 0.48709 0.77569 0.44673 0.0
N445 N 0.47257 0.78445 0.48137 0.0
C446 C 0.47255 0.78551 0.44713 0.0
C447 C 0.49414 0.77016 0.46392 0.0
C448 C 0.46543 0.78986 0.4648 0.0
C449 C 0.48664 0.77476 0.48129 0.0
C450 C 0.50543 0.80324 0.38549 0.0
C451 C 0.49224 0.80339 0.35256 0.0
N452 N 0.48707 0.82069 0.3589 0.0
C453 C 0.49997 0.82102 0.39168 0.0
C454 C 0.50155 0.79436 0.36576 0.0
C455 C 0.49073 0.82961 0.37801 0.0
C456 C 0.53294 0.83266 0.43494 0.0
N457 N 0.52177 0.81841 0.44278 0.0
C458 C 0.51929 0.84305 0.46981 0.0
C459 C 0.51522 0.82319 0.46012 0.0
C460 C 0.53044 0.85811 0.46175 0.0
C461 C 0.53751 0.85261 0.44421 0.0
H462 H 0.53808 0.82854 0.4212 0.0
H463 H 0.50677 0.81177 0.46649 0.0
C464 C 0.46363 0.75148 0.37145 0.0
N465 N 0.47117 0.76742 0.38573 0.0
C466 C 0.44694 0.7508 0.36016 0.0
C467 C 0.44607 0.78286 0.37849 0.0
C468 C 0.46254 0.78275 0.38959 0.0
C469 C 0.43796 0.76678 0.3634 0.0
H470 H 0.47063 0.73936 0.3687 0.0
H471 H 0.46874 0.79526 0.40101 0.0
C472 C 0.54936 0.79056 0.44108 0.0
N473 N 0.57473 0.81961 0.46684 0.0
C474 C 0.56357 0.80322 0.43405 0.0
C475 C 0.54806 0.79269 0.4612 0.0
C476 C 0.57627 0.8178 0.44732 0.0
C477 C 0.56101 0.80747 0.47399 0.0
C478 C 0.5158 0.73627 0.38285 0.0
C479 C 0.52765 0.7248 0.38944 0.0
C480 C 0.5121 0.73625 0.36277 0.0
C481 C 0.53574 0.71358 0.37578 0.0
C482 C 0.52047 0.72484 0.34958 0.0
N483 N 0.53202 0.71384 0.35631 0.0
C484 C 0.50188 0.71587 0.43487 0.0
C485 C 0.52988 0.73511 0.45261 0.0
C486 C 0.50382 0.69926 0.44367 0.0
N487 N 0.5149 0.73332 0.43936 0.0
C488 C 0.53228 0.719 0.46187 0.0
C489 C 0.51932 0.70056 0.45727 0.0
H490 H 0.49023 0.71468 0.42404 0.0
H491 H 0.54021 0.74898 0.45577 0.0
C492 C 0.54933 0.78365 0.36841 0.0
N493 N 0.54832 0.77422 0.38431 0.0
C494 C 0.56498 0.78539 0.35849 0.0
C495 C 0.57829 0.76771 0.38147 0.0
C496 C 0.56234 0.76616 0.39082 0.0
C497 C 0.5799 0.77759 0.36512 0.0
H498 H 0.5382 0.79021 0.36363 0.0
H499 H 0.56134 0.75901 0.40369 0.0
O500 O 0.49409 0.77109 0.42953 0.0
O501 O 0.51422 0.79438 0.39871 0.0
O502 O 0.53646 0.77659 0.42827 0.0
O503 O 0.50819 0.74781 0.39602 0.0
H504 H 0.46683 0.78978 0.43397 0.0
H505 H 0.50531 0.76248 0.46389 0.0
H506 H 0.45423 0.79752 0.46534 0.0
H507 H 0.49201 0.77064 0.49471 0.0
H508 H 0.48905 0.7966 0.33729 0.0
H509 H 0.50257 0.82797 0.40691 0.0
H510 H 0.5054 0.78045 0.36076 0.0
H511 H 0.48636 0.84332 0.38262 0.0
H512 H 0.51377 0.84658 0.48347 0.0
H513 H 0.54602 0.86371 0.43735 0.0
H514 H 0.44119 0.73783 0.34904 0.0
H515 H 0.44009 0.79577 0.38147 0.0
H516 H 0.56464 0.80203 0.41852 0.0
H517 H 0.537 0.78325 0.46689 0.0
H518 H 0.58729 0.82775 0.44208 0.0
H519 H 0.5601 0.80935 0.48958 0.0
H520 H 0.53078 0.72477 0.40493 0.0
H521 H 0.50294 0.74501 0.35742 0.0
H522 H 0.54503 0.70472 0.38068 0.0
H523 H 0.5178 0.72474 0.334 0.0
H524 H 0.49355 0.68538 0.43936 0.0
H525 H 0.54429 0.72102 0.47247 0.0
H526 H 0.56537 0.79288 0.34582 0.0
H527 H 0.58946 0.76175 0.38744 0.0
Li528 Li 0.58683 0.33543 0.62044 0.0
Li529 Li 0.60444 0.31906 0.64536 0.0
Li530 Li 0.58287 0.29936 0.61897 0.0
Li531 Li 0.57049 0.31687 0.64531 0.0
C532 C 0.61088 0.30943 0.60033 0.0
N533 N 0.61961 0.28809 0.5671 0.0
C534 C 0.62265 0.29635 0.602 0.0
C535 C 0.60366 0.3118 0.5818 0.0
C536 C 0.62685 0.28564 0.58501 0.0
C537 C 0.60822 0.30085 0.56516 0.0
C538 C 0.59063 0.3586 0.66232 0.0
C539 C 0.60031 0.38155 0.69281 0.0
N540 N 0.58972 0.39369 0.6865 0.0
C541 C 0.57994 0.37138 0.65611 0.0
C542 C 0.60099 0.36378 0.6808 0.0
C543 C 0.57961 0.38901 0.66855 0.0
C544 C 0.57009 0.36195 0.60194 0.0
N545 N 0.5868 0.35801 0.60691 0.0
C546 C 0.60181 0.38634 0.59344 0.0
C547 C 0.60256 0.36979 0.60284 0.0
C548 C 0.58468 0.3908 0.58815 0.0
C549 C 0.56871 0.37826 0.59259 0.0
H550 H 0.55777 0.35256 0.60557 0.0
H551 H 0.61571 0.36639 0.60694 0.0
C552 C 0.63006 0.30041 0.66158 0.0
N553 N 0.62711 0.31902 0.66074 0.0
C554 C 0.64551 0.29789 0.67288 0.0
C555 C 0.65529 0.33385 0.68167 0.0
C556 C 0.63945 0.33568 0.67029 0.0
C557 C 0.65833 0.31471 0.68328 0.0
H558 H 0.62029 0.28741 0.65351 0.0
H559 H 0.63698 0.35035 0.66918 0.0
C560 C 0.54989 0.30371 0.60286 0.0
N561 N 0.52251 0.28067 0.57463 0.0
C562 C 0.53803 0.28684 0.60719 0.0
C563 C 0.54782 0.3089 0.58419 0.0
C564 C 0.52429 0.27536 0.5927 0.0
C565 C 0.53387 0.29707 0.57012 0.0
C566 C 0.58497 0.2907 0.66505 0.0
C567 C 0.58205 0.27065 0.6676 0.0
C568 C 0.5884 0.30576 0.68147 0.0
C569 C 0.58276 0.26604 0.68656 0.0
C570 C 0.589 0.30055 0.70018 0.0
N571 N 0.5862 0.28096 0.70233 0.0
C572 C 0.58746 0.26058 0.61166 0.0
C573 C 0.57132 0.26793 0.58378 0.0
C574 C 0.58633 0.24108 0.60232 0.0
N575 N 0.57978 0.27351 0.60252 0.0
C576 C 0.56968 0.2484 0.57389 0.0
C577 C 0.57721 0.23466 0.58324 0.0
H578 H 0.59462 0.26546 0.62629 0.0
H579 H 0.56593 0.27856 0.5764 0.0
C580 C 0.54416 0.33177 0.66812 0.0
N581 N 0.55014 0.31526 0.66081 0.0
C582 C 0.52886 0.32995 0.67856 0.0
C583 C 0.52598 0.29415 0.67372 0.0
C584 C 0.54135 0.29667 0.66342 0.0
C585 C 0.51947 0.31092 0.68141 0.0
H586 H 0.55099 0.34633 0.66559 0.0
H587 H 0.54613 0.28369 0.6573 0.0
O588 O 0.6061 0.31953 0.61676 0.0
O589 O 0.59145 0.34146 0.65016 0.0
O590 O 0.56334 0.31521 0.61689 0.0
O591 O 0.58432 0.29543 0.64653 0.0
H592 H 0.62828 0.29431 0.61627 0.0
H593 H 0.59445 0.32181 0.58032 0.0
H594 H 0.63583 0.27534 0.58605 0.0
H595 H 0.60265 0.30243 0.55071 0.0
H596 H 0.60823 0.3857 0.70715 0.0
H597 H 0.5717 0.36757 0.64199 0.0
H598 H 0.60952 0.35424 0.68584 0.0
H599 H 0.57128 0.39895 0.66395 0.0
H600 H 0.6145 0.39542 0.59021 0.0
H601 H 0.55522 0.38121 0.58924 0.0
H602 H 0.64745 0.28289 0.67334 0.0
H603 H 0.66484 0.34723 0.68945 0.0
H604 H 0.53952 0.28255 0.62151 0.0
H605 H 0.557 0.32178 0.58052 0.0
H606 H 0.51505 0.26221 0.59581 0.0
H607 H 0.53214 0.30087 0.5556 0.0
H608 H 0.57919 0.25875 0.65508 0.0
H609 H 0.59046 0.32128 0.67979 0.0
H610 H 0.58054 0.25059 0.68874 0.0
H611 H 0.59166 0.31209 0.713 0.0
H612 H 0.59228 0.23103 0.61014 0.0
H613 H 0.56282 0.24416 0.55904 0.0
H614 H 0.52418 0.34328 0.68393 0.0
H615 H 0.51932 0.27921 0.67568 0.0
Li616 Li 0.01784 0.2911 0.92403 0.0
Li617 Li 0.99653 0.26825 0.89806 0.0
Li618 Li 0.0152 0.25419 0.92238 0.0
Li619 Li 0.02914 0.27166 0.8968 0.0
C620 C 0.99148 0.27099 0.94589 0.0
N621 N 0.98275 0.27225 0.98384 0.0
C622 C 0.9735 0.27119 0.94983 0.0
C623 C 1.00501 0.27137 0.96121 0.0
C624 C 0.96936 0.27186 0.96913 0.0
C625 C 1.00033 0.27201 0.98031 0.0
C626 C 1.0055 0.30224 0.88418 0.0
C627 C 0.99118 0.30494 0.85247 0.0
N628 N 0.98474 0.3207 0.86089 0.0
C629 C 0.99877 0.31851 0.8925 0.0
C630 C 1.00174 0.29545 0.86399 0.0
C631 C 0.98831 0.32763 0.88048 0.0
C632 C 0.03515 0.33174 0.93374 0.0
N633 N 0.02274 0.31734 0.94004 0.0
C634 C 0.01673 0.34181 0.96526 0.0
C635 C 0.01354 0.32205 0.95551 0.0
C636 C 0.02944 0.35698 0.959 0.0
C637 C 0.03883 0.35165 0.9431 0.0
H638 H 0.04172 0.32792 0.92091 0.0
H639 H 1.00333 0.3107 0.96007 0.0
C640 C 0.96609 0.25117 0.8675 0.0
N641 N 0.97265 0.26548 0.88352 0.0
C642 C 0.9493 0.25073 0.85656 0.0
C643 C 0.94631 0.27968 0.87884 0.0
C644 C 0.9629 0.27928 0.88955 0.0
C645 C 0.93921 0.26534 0.86194 0.0
H646 H 0.97395 0.24018 0.86309 0.0
H647 H 0.96832 0.2904 0.90245 0.0
C648 C 0.05373 0.28734 0.93496 0.0
N649 N 0.08642 0.3111 0.95456 0.0
C650 C 0.06455 0.30152 0.92582 0.0
C651 C 0.05963 0.28512 0.95401 0.0
C652 C 0.081 0.31343 0.93599 0.0
C653 C 0.07617 0.2973 0.96369 0.0
C654 C 0.01687 0.23512 0.87914 0.0
C655 C 0.02728 0.22168 0.88436 0.0
C656 C 0.0144 0.23779 0.85959 0.0
C657 C 0.03523 0.21127 0.86993 0.0
C658 C 0.0226 0.22712 0.8456 0.0
N659 N 0.03276 0.2142 0.85101 0.0
C660 C 1.00214 0.22118 0.94273 0.0
C661 C 0.03426 0.22967 0.94104 0.0
C662 C 1.00417 0.20545 0.95283 0.0
N663 N 0.0171 0.23287 0.93702 0.0
C664 C 0.03691 0.2141 0.95099 0.0
C665 C 0.02176 0.20162 0.95704 0.0
H666 H 0.98861 0.22402 0.93938 0.0
H667 H 0.04592 0.23903 0.93616 0.0
C668 C 0.05066 0.28251 0.86596 0.0
N669 N 0.04929 0.27232 0.88132 0.0
C670 C 0.06624 0.28404 0.85594 0.0
C671 C 0.07868 0.26457 0.87773 0.0
C672 C 0.06284 0.26331 0.88723 0.0
C673 C 0.08066 0.27518 0.86191 0.0
H674 H 0.03984 0.28977 0.8617 0.0
H675 H 0.06152 0.25556 0.89968 0.0
O676 O 0.99567 0.2701 0.92704 0.0
O677 O 0.01549 0.29286 0.89576 0.0
O678 O 0.03759 0.27547 0.92524 0.0
O679 O 1.00945 0.24591 0.89316 0.0
H680 H 0.96286 0.27084 0.93809 0.0
H681 H 0.01898 0.27125 0.9584 0.0
H682 H 0.95551 0.27206 0.97241 0.0
H683 H 1.01067 0.27233 0.99232 0.0
H684 H 0.98806 0.29973 0.83686 0.0
H685 H 1.00134 0.32387 0.9081 0.0
H686 H 1.00669 0.28281 0.8573 0.0
H687 H 0.98294 0.34016 0.88675 0.0
H688 H 1.00919 0.34521 0.97748 0.0
H689 H 0.04841 0.36286 0.93743 0.0
H690 H 0.94436 0.23901 0.84402 0.0
H691 H 0.93946 0.29151 0.8836 0.0
H692 H 0.06024 0.30346 0.91109 0.0
H693 H 0.05157 0.27405 0.96126 0.0
H694 H 0.08945 0.32453 0.92912 0.0
H695 H 0.08087 0.29577 0.97846 0.0
H696 H 0.02932 0.21941 0.8994 0.0
H697 H 1.00641 0.24813 0.8553 0.0
H698 H 0.0434 0.20089 0.87378 0.0
H699 H 0.0209 0.22914 0.83043 0.0
H700 H 0.99208 0.19647 0.95738 0.0
H701 H 0.05069 0.21162 0.95348 0.0
H702 H 0.06697 0.29215 0.84369 0.0
H703 H 0.08948 0.25778 0.88315 0.0
Li704 Li 0.44667 0.05599 0.30736 0.0
Li705 Li 0.42607 0.03184 0.28215 0.0
Li706 Li 0.45642 0.0486 0.27612 0.0
Li707 Li 0.43239 0.06656 0.27959 0.0
C708 C 0.46567 0.02551 0.30311 0.0
N709 N 0.49676 0.01674 0.32104 0.0
C710 C 0.46534 1.00613 0.30679 0.0
C711 C 0.48182 0.04044 0.3085 0.0
C712 C 0.48121 1.00199 0.31587 0.0
C713 C 0.49738 0.03571 0.31758 0.0
C714 C 0.41024 0.04713 0.31504 0.0
C715 C 0.38976 0.05157 0.33957 0.0
N716 N 0.39095 0.03356 0.34459 0.0
C717 C 0.41123 0.02867 0.32048 0.0
C718 C 0.39939 0.05868 0.32467 0.0
C719 C 0.40139 0.02206 0.33542 0.0
C720 C 0.46818 0.07923 0.34178 0.0
N721 N 0.45617 0.06159 0.33428 0.0
C722 C 0.46277 0.04798 0.36302 0.0
C723 C 0.4532 0.0462 0.34461 0.0
C724 C 0.47626 0.06542 0.37061 0.0
C725 C 0.47851 0.08149 0.36007 0.0
H726 H 0.4706 0.09104 0.33305 0.0
H727 H 0.44442 0.03197 0.33807 0.0
C728 C 0.41568 0.99223 0.26496 0.0
N729 N 0.409 1.00689 0.27505 0.0
C730 C 0.40478 0.97291 0.25974 0.0
C731 C 0.38022 0.98424 0.27525 0.0
C732 C 0.3914 1.00351 0.27955 0.0
C733 C 0.38696 0.96845 0.26547 0.0
H734 H 0.42961 0.99556 0.26116 0.0
H735 H 0.38619 1.01561 0.28697 0.0
C736 C 0.46713 0.09038 0.28179 0.0
N737 N 0.48425 0.11988 0.26221 0.0
C738 C 0.46565 0.08713 0.26131 0.0
C739 C 0.47731 0.10869 0.29228 0.0
C740 C 0.4744 0.1022 0.25169 0.0
C741 C 0.48587 0.1234 0.28213 0.0
C742 C 0.41778 0.03995 0.24531 0.0
C743 C 0.41954 0.03472 0.22549 0.0
C744 C 0.40053 0.04125 0.25103 0.0
C745 C 0.40398 0.03092 0.21166 0.0
C746 C 0.38531 0.03736 0.23676 0.0
N747 N 0.38733 0.03232 0.21754 0.0
C748 C 0.47287 0.02547 0.25069 0.0
C749 C 0.4927 0.0568 0.26414 0.0
C750 C 0.48588 0.02071 0.23871 0.0
N751 N 0.47626 0.04349 0.26259 0.0
C752 C 0.50588 0.05295 0.25199 0.0
C753 C 0.50235 0.03492 0.23857 0.0
H754 H 0.45982 1.01499 0.25019 0.0
H755 H 0.49534 0.07074 0.27426 0.0
C756 C 0.4106 0.09457 0.28249 0.0
N757 N 0.42109 0.08605 0.27032 0.0
C758 C 0.39919 0.10623 0.27555 0.0
C759 C 0.41057 0.10129 0.24404 0.0
C760 C 0.42154 0.08942 0.2515 0.0
C761 C 0.39886 0.10931 0.25601 0.0
H762 H 0.41057 0.09163 0.29734 0.0
H763 H 0.42968 0.08213 0.24196 0.0
O764 O 0.4501 0.02979 0.29453 0.0
O765 O 0.41968 0.05394 0.30036 0.0
O766 O 0.45859 0.07594 0.29165 0.0
O767 O 0.43297 0.04379 0.25894 0.0
H768 H 0.45292 0.99443 0.30274 0.0
H769 H 0.4823 0.05555 0.30586 0.0
H770 H 0.48115 0.98705 0.31885 0.0
H771 H 0.50995 0.04712 0.32189 0.0
H772 H 0.38133 0.06038 0.34713 0.0
H773 H 0.41955 0.01949 0.31328 0.0
H774 H 0.39838 0.073 0.32073 0.0
H775 H 0.40208 1.0078 0.33974 0.0
H776 H 0.46026 0.03534 0.37077 0.0
H777 H 0.48887 0.09515 0.36527 0.0
H778 H 0.41046 0.9616 0.25153 0.0
H779 H 0.36672 0.98178 0.28019 0.0
H780 H 0.45799 0.07306 0.25287 0.0
H781 H 0.47858 0.11154 0.30813 0.0
H782 H 0.47339 0.09983 0.23586 0.0
H783 H 0.49378 0.13763 0.29009 0.0
H784 H 0.43282 0.03364 0.22085 0.0
H785 H 0.39888 0.04532 0.26629 0.0
H786 H 0.40514 0.02688 0.19626 0.0
H787 H 0.37189 0.03836 0.24097 0.0
H788 H 0.48273 1.00632 0.22921 0.0
H789 H 0.51823 0.0645 0.2525 0.0
H790 H 0.39039 0.11238 0.2852 0.0
H791 H 0.4105 0.10329 0.22884 0.0
Li792 Li 0.28797 0.20299 0.52206 0.0
Li793 Li 0.30067 0.17652 0.50354 0.0
Li794 Li 0.28751 0.20275 0.4863 0.0
Li795 Li 0.2676 0.17662 0.50087 0.0
C796 C 0.32063 0.22267 0.51821 0.0
N797 N 0.34195 0.25531 0.54355 0.0
C798 C 0.33252 0.21984 0.53369 0.0
C799 C 0.31963 0.24205 0.51552 0.0
C800 C 0.34317 0.23655 0.54637 0.0
C801 C 0.33052 0.25837 0.52851 0.0
C802 C 0.27404 0.16033 0.53277 0.0
C803 C 0.26655 0.12674 0.54005 0.0
N804 N 0.25303 0.13163 0.55041 0.0
C805 C 0.2602 0.16509 0.54364 0.0
C806 C 0.27736 0.14106 0.53106 0.0
C807 C 0.24967 0.15035 0.55238 0.0
C808 C 0.28995 0.23791 0.55298 0.0
N809 N 0.29183 0.21869 0.5484 0.0
C810 C 0.2986 0.21717 0.58248 0.0
C811 C 0.29647 0.2085 0.56275 0.0
C812 C 0.29592 0.23661 0.58771 0.0
C813 C 0.29168 0.2471 0.57264 0.0
H814 H 0.287 0.24616 0.54149 0.0
H815 H 0.29842 0.19346 0.55893 0.0
C816 C 0.32669 0.15628 0.48702 0.0
N817 N 0.31997 0.1622 0.50393 0.0
C818 C 0.34172 0.14714 0.48742 0.0
C819 C 0.34253 0.15021 0.5226 0.0
C820 C 0.32748 0.15927 0.52152 0.0
C821 C 0.35 0.14414 0.50542 0.0
H822 H 0.32058 0.15901 0.47325 0.0
H823 H 0.32193 0.16425 0.53476 0.0
C824 C 0.26134 0.22153 0.51072 0.0
N825 N 0.24873 0.25424 0.52696 0.0
C826 C 0.24962 0.21975 0.52533 0.0
C827 C 0.26656 0.2399 0.50428 0.0
C828 C 0.24343 0.23648 0.53339 0.0
C829 C 0.26005 0.25627 0.51269 0.0
C830 C 0.27183 0.15728 0.46659 0.0
C831 C 0.25743 0.161 0.4545 0.0
C832 C 0.27414 0.13771 0.4661 0.0
C833 C 0.24542 0.14495 0.44217 0.0
C834 C 0.26185 0.12208 0.45354 0.0
N835 N 0.24786 0.12599 0.44195 0.0
C836 C 0.3077 0.2205 0.45822 0.0
C837 C 0.2759 0.22015 0.45336 0.0
C838 C 0.31059 0.22863 0.4411 0.0
N839 N 0.29056 0.21636 0.46398 0.0
C840 C 0.27818 0.22838 0.43615 0.0
C841 C 0.29572 0.23261 0.42963 0.0
H842 H 0.31908 0.21703 0.46673 0.0
H843 H 0.26235 0.21653 0.4581 0.0
C844 C 0.24021 0.13942 0.49724 0.0
N845 N 0.24298 0.15957 0.49781 0.0
C846 C 0.22245 0.12775 0.49702 0.0
C847 C 0.21052 0.15757 0.4972 0.0
C848 C 0.2285 0.16865 0.49741 0.0
C849 C 0.20728 0.13684 0.49729 0.0
H850 H 0.25183 0.1324 0.49742 0.0
H851 H 0.23091 0.1846 0.4975 0.0
O852 O 0.30959 0.20652 0.50609 0.0
O853 O 0.28438 0.1745 0.52397 0.0
O854 O 0.26732 0.20526 0.50243 0.0
O855 O 0.28348 0.17271 0.47903 0.0
H856 H 0.33332 0.20489 0.53601 0.0
H857 H 0.31042 0.24444 0.50364 0.0
H858 H 0.35235 0.23461 0.5585 0.0
H859 H 0.32984 0.27347 0.52668 0.0
H860 H 0.26887 0.11173 0.53875 0.0
H861 H 0.25757 0.17999 0.54519 0.0
H862 H 0.28803 0.13716 0.52269 0.0
H863 H 0.23883 0.15377 0.56072 0.0
H864 H 0.30187 0.2085 0.59356 0.0
H865 H 0.28985 0.26228 0.576 0.0
H866 H 0.3471 0.14298 0.47382 0.0
H867 H 0.34823 0.14799 0.53677 0.0
H868 H 0.2454 0.20563 0.53045 0.0
H869 H 0.27561 0.24154 0.49298 0.0
H870 H 0.23442 0.23535 0.54477 0.0
H871 H 0.26403 0.2706 0.50789 0.0
H872 H 0.25545 0.17608 0.4548 0.0
H873 H 0.28519 0.13461 0.47546 0.0
H874 H 0.23414 0.14757 0.4328 0.0
H875 H 0.2634 0.10683 0.45306 0.0
H876 H 0.3243 0.23123 0.43664 0.0
H877 H 0.2663 0.23137 0.42805 0.0
H878 H 0.22074 0.11186 0.49723 0.0
H879 H 0.19927 0.16521 0.49698 0.0
Li880 Li 0.18904 0.04859 0.78299 0.0
Li881 Li 0.16212 0.02778 0.80101 0.0
Li882 Li 0.18613 1.00851 0.78041 0.0
Li883 Li 0.16203 0.02452 0.7616 0.0
C884 C 0.20629 0.04165 0.81654 0.0
N885 N 0.23797 0.06415 0.83918 0.0
C886 C 0.20536 0.05769 0.83081 0.0
C887 C 0.22332 0.03709 0.81368 0.0
C888 C 0.22153 0.06888 0.84214 0.0
C889 C 0.23918 0.04863 0.82531 0.0
C890 C 0.14984 0.05747 0.7738 0.0
C891 C 0.11859 0.05908 0.76367 0.0
N892 N 0.12504 0.0744 0.75401 0.0
C893 C 0.15618 0.07322 0.76379 0.0
C894 C 0.13092 0.05032 0.77377 0.0
C895 C 0.14341 0.08159 0.75388 0.0
C896 C 0.21583 0.08062 0.76873 0.0
N897 N 0.20543 0.077 0.78364 0.0
C898 C 0.21432 0.11264 0.79689 0.0
C899 C 0.20462 0.0928 0.79759 0.0
C900 C 0.22522 0.11688 0.78165 0.0
C901 C 0.22579 0.10018 0.76754 0.0
H902 H 0.21609 0.06839 0.75729 0.0
H903 H 0.1961 0.09019 0.8092 0.0
C904 C 0.15805 0.03211 0.84528 0.0
N905 N 0.14818 0.02886 0.82706 0.0
C906 C 0.14947 0.03335 0.86293 0.0
C907 C 0.12031 0.02756 0.84359 0.0
C908 C 0.12943 0.02663 0.82629 0.0
C909 C 0.13013 0.03104 0.86265 0.0
H910 H 0.17282 0.03375 0.84636 0.0
H911 H 0.12127 0.02417 0.81218 0.0
C912 C 0.19586 0.01809 0.74418 0.0
N913 N 0.20942 0.99898 0.71284 0.0
C914 C 0.18427 1.00233 0.73111 0.0
C915 C 0.21436 0.0241 0.74137 0.0
C916 C 0.19138 0.99288 0.71533 0.0
C917 C 0.22096 1.01426 0.72542 0.0
C918 C 0.14344 0.9875 0.76982 0.0
C919 C 0.14696 0.97182 0.75673 0.0
C920 C 0.12532 0.98785 0.77308 0.0
C921 C 0.13221 0.95676 0.74697 0.0
C922 C 0.11094 0.97249 0.76306 0.0
N923 N 0.11465 0.95741 0.75031 0.0
C924 C 0.19162 0.96605 0.78486 0.0
C925 C 0.21701 0.98513 0.77342 0.0
C926 C 0.20028 0.9494 0.78423 0.0
N927 N 0.19987 0.98382 0.77951 0.0
C928 C 0.22612 0.96883 0.77257 0.0
C929 C 0.21802 0.95021 0.77802 0.0
H930 H 0.17811 0.96457 0.78973 0.0
H931 H 0.22388 0.99893 0.7691 0.0
C932 C 0.15506 0.03822 0.72336 0.0
N933 N 0.14715 0.02436 0.73416 0.0
C934 C 0.14659 0.03995 0.70474 0.0
C935 C 0.12173 1.0129 0.70768 0.0
C936 C 0.13062 1.01177 0.7264 0.0
C937 C 0.12952 0.02723 0.69625 0.0
H938 H 0.16818 0.04817 0.7292 0.0
H939 H 0.12411 1.00071 0.73465 0.0
O940 O 0.19071 0.03085 0.80495 0.0
O941 O 0.16208 0.04858 0.78296 0.0
O942 O 0.1892 0.02732 0.75987 0.0
O943 O 0.15768 1.00245 0.77939 0.0
H944 H 0.1923 0.0616 0.83297 0.0
H945 H 0.22426 0.02482 0.80253 0.0
H946 H 0.22104 0.08138 0.85322 0.0
H947 H 0.25246 0.04527 0.82328 0.0
H948 H 0.1039 0.05364 0.76345 0.0
H949 H 0.17078 0.07878 0.7635 0.0
H950 H 0.12581 0.03797 0.78126 0.0
H951 H 0.14811 0.09374 0.746 0.0
H952 H 0.21327 0.12455 0.80835 0.0
H953 H 0.23347 0.10216 0.75517 0.0
H954 H 0.1581 0.03581 0.87677 0.0
H955 H 0.10551 0.02585 0.84188 0.0
H956 H 0.16994 0.99745 0.73311 0.0
H957 H 0.2236 0.03604 0.75155 0.0
H958 H 0.18255 0.98067 0.70509 0.0
H959 H 0.23526 0.0187 0.72309 0.0
H960 H 0.16094 0.97129 0.75414 0.0
H961 H 0.1224 0.99991 0.78315 0.0
H962 H 0.13471 0.94455 0.73676 0.0
H963 H 0.09683 0.97259 0.76539 0.0
H964 H 0.19299 0.936 0.78894 0.0
H965 H 0.23949 0.97097 0.76733 0.0
H966 H 0.15369 0.05112 0.69694 0.0
H967 H 0.10861 1.00268 0.7024 0.0
Li968 Li 0.30969 0.9674 1.00504 0.0
Li969 Li 0.32631 0.9474 0.02337 0.0
Li970 Li 0.34226 0.97518 1.01032 0.0
Li971 Li 0.32715 0.94549 0.98873 0.0
C972 C 0.33171 0.99478 0.04066 0.0
N973 N 0.34578 0.03337 0.06029 0.0
C974 C 0.34168 0.99805 0.05924 0.0
C975 C 0.32882 1.01115 0.0321 0.0
C976 C 0.3487 0.01766 0.06892 0.0
C977 C 0.33606 0.03053 0.04225 0.0
C978 C 0.2889 0.93086 1.00962 0.0
C979 C 0.25926 0.908 1.00687 0.0
N980 N 0.25636 0.9172 0.02461 0.0
C981 C 0.28562 0.94007 0.02785 0.0
C982 C 0.27562 0.91469 0.99904 0.0
C983 C 0.26909 0.93295 0.03516 0.0
C984 C 0.27882 0.97559 0.98464 0.0
N985 N 0.28849 0.97783 1.00261 0.0
C986 C 0.26838 0.99655 0.01727 0.0
C987 C 0.28345 0.98776 0.01884 0.0
C988 C 0.25827 0.99474 0.99888 0.0
C989 C 0.26341 0.98387 0.98243 0.0
H990 H 0.28319 0.96751 0.97204 0.0
H991 H 0.29124 0.989 0.03299 0.0
C992 C 0.34061 0.9392 0.05926 0.0
N993 N 0.32718 0.93211 0.04391 0.0
C994 C 0.34283 0.92769 0.07389 0.0
C995 C 0.31757 0.90168 0.05636 0.0
C996 C 0.31585 0.91366 0.04214 0.0
C997 C 0.33127 0.90861 0.07244 0.0
H998 H 0.34994 0.95353 0.05983 0.0
H999 H 0.3058 0.90792 0.02942 0.0
C1000 C 0.33659 0.9784 0.9704 0.0
N1001 N 0.35656 0.98841 0.94015 0.0
C1002 C 0.35457 0.97558 0.97025 0.0
C1003 C 0.32878 0.9863 0.95516 0.0
C1004 C 0.36443 0.98074 0.95483 0.0
C1005 C 0.33909 0.99127 0.93999 0.0
C1006 C 0.35382 0.93109 1.00886 0.0
C1007 C 0.37251 0.93141 0.0131 0.0
C1008 C 0.34102 0.91272 1.00436 0.0
C1009 C 0.37808 0.91333 0.0128 0.0
C1010 C 0.34714 0.89498 1.00422 0.0
N1011 N 0.36539 0.89564 1.00841 0.0
C1012 C 0.37756 0.99364 0.02778 0.0
C1013 C 0.36463 1.01322 1.00742 0.0
C1014 C 0.39421 1.00777 0.0313 0.0
N1015 N 0.3634 0.99639 0.01568 0.0
C1016 C 0.38107 0.02776 1.01051 0.0
C1017 C 0.39626 0.02487 0.02221 0.0
H1018 H 0.37605 0.98012 0.03421 0.0
H1019 H 0.353 1.01509 0.99805 0.0
C1020 C 0.3114 0.91633 0.9562 0.0
N1021 N 0.32774 0.92763 0.96552 0.0
C1022 C 0.31101 0.90172 0.94003 0.0
C1023 C 0.3443 0.91111 0.94295 0.0
C1024 C 0.34405 0.92534 0.95926 0.0
C1025 C 0.32763 0.89895 0.93331 0.0
H1026 H 0.29868 0.91852 0.96152 0.0
H1027 H 0.35688 0.93425 0.96715 0.0
O1028 O 0.32501 0.9757 0.03075 0.0
O1029 O 0.30493 0.93759 1.00199 0.0
O1030 O 0.32656 0.97349 0.98529 0.0
O1031 O 0.34826 0.94875 1.00921 0.0
H1032 H 0.34397 0.9856 0.06615 0.0
H1033 H 0.32136 1.00892 0.01761 0.0
H1034 H 0.35649 0.02041 0.08329 0.0
H1035 H 0.33403 0.04333 0.03574 0.0
H1036 H 0.24888 0.89549 0.99884 0.0
H1037 H 0.29571 0.95249 0.03637 0.0
H1038 H 0.27792 0.90732 0.98495 0.0
H1039 H 0.26639 0.93993 0.04924 0.0
H1040 H 0.26457 1.00454 0.0303 0.0
H1041 H 0.25584 0.98218 0.96805 0.0
H1042 H 0.35378 0.93342 0.08587 0.0
H1043 H 0.30829 0.88711 0.05473 0.0
H1044 H 0.36088 0.96952 0.9819 0.0
H1045 H 0.31487 0.98856 0.95507 0.0
H1046 H 0.37836 0.97865 0.95455 0.0
H1047 H 0.33321 0.99739 0.9281 0.0
H1048 H 0.38259 0.9455 0.0166 0.0
H1049 H 0.32651 0.91212 1.00099 0.0
H1050 H 0.39251 0.91337 0.01607 0.0
H1051 H 0.33738 0.88067 1.00078 0.0
H1052 H 0.40564 1.00477 0.04017 0.0
H1053 H 0.38205 0.04082 1.00337 0.0
H1054 H 0.29788 0.89275 0.93278 0.0
H1055 H 0.35737 0.90928 0.93824 0.0
Li1056 Li 0.30306 0.41534 0.04263 0.0
Li1057 Li 0.31653 0.3928 0.05879 0.0
Li1058 Li 0.33694 0.41987 0.04366 0.0
Li1059 Li 0.31499 0.38987 0.02295 0.0
C1060 C 0.31816 0.43956 0.07599 0.0
N1061 N 0.31009 0.47359 0.0959 0.0
C1062 C 0.30342 0.43796 0.08721 0.0
C1063 C 0.3289 0.45845 0.07502 0.0
C1064 C 0.29952 0.45535 0.09712 0.0
C1065 C 0.32458 0.47548 0.08518 0.0
C1066 C 0.28316 0.3719 0.04725 0.0
C1067 C 0.26995 0.33748 0.04946 0.0
N1068 N 0.2615 0.34376 0.065 0.0
C1069 C 0.27427 0.378 0.0632 0.0
C1070 C 0.28097 0.35147 0.04029 0.0
C1071 C 0.26342 0.36355 0.07199 0.0
C1072 C 0.26566 0.4179 0.0377 0.0
N1073 N 0.28312 0.42935 0.04174 0.0
C1074 C 0.27154 0.45924 0.04294 0.0
C1075 C 0.28626 0.44969 0.04412 0.0
C1076 C 0.25333 0.44777 0.03908 0.0
C1077 C 0.25055 0.4268 0.03639 0.0
H1078 H 0.26343 0.40178 0.03518 0.0
H1079 H 0.30021 0.45857 0.04675 0.0
C1080 C 0.31833 0.39138 0.09952 0.0
N1081 N 0.316 0.37946 0.08171 0.0
C1082 C 0.31713 0.38304 0.11672 0.0
C1083 C 0.31137 0.35017 0.09712 0.0
C1084 C 0.31296 0.35918 0.08029 0.0
C1085 C 0.31336 0.36214 0.11567 0.0
H1086 H 0.32098 0.40745 0.10043 0.0
H1087 H 0.31151 0.34993 0.0661 0.0
C1088 C 0.31032 0.42911 1.00952 0.0
N1089 N 0.29198 0.45044 0.98707 0.0
C1090 C 0.29447 0.4193 0.99686 0.0
C1091 C 0.31691 0.44973 1.01072 0.0
C1092 C 0.28537 0.43036 0.98565 0.0
C1093 C 0.30743 0.46026 0.99924 0.0
C1094 C 0.34502 0.37701 0.03231 0.0
C1095 C 0.36171 0.38341 0.025 0.0
C1096 C 0.3364 0.35667 0.02891 0.0
C1097 C 0.36946 0.3693 0.01422 0.0
C1098 C 0.34458 0.34304 0.01804 0.0
N1099 N 0.3608 0.34958 1.01097 0.0
C1100 C 0.37273 0.442 0.06128 0.0
C1101 C 0.36569 0.44319 0.0276 0.0
C1102 C 0.39056 0.45351 0.06136 0.0
N1103 N 0.36076 0.43707 0.04453 0.0
C1104 C 0.38334 0.45469 0.02702 0.0
C1105 C 0.39616 0.4599 0.04401 0.0
H1106 H 0.36852 0.43673 0.07449 0.0
H1107 H 0.35598 0.43886 0.01443 0.0
C1108 C 0.29732 0.36048 0.98889 0.0
N1109 N 0.31276 0.37443 0.99704 0.0
C1110 C 0.29569 0.35138 0.96924 0.0
C1111 C 0.32577 0.37125 0.96669 0.0
C1112 C 0.32681 0.37995 0.98631 0.0
C1113 C 0.30999 0.35683 0.95776 0.0
H1114 H 0.28601 0.35684 0.99741 0.0
H1115 H 0.33864 0.39163 0.99287 0.0
O1116 O 0.3222 0.42272 0.06615 0.0
O1117 O 0.29406 0.38586 0.03865 0.0
O1118 O 0.31911 0.41864 0.02099 0.0
O1119 O 0.33702 0.39063 0.04254 0.0
H1120 H 0.29503 0.42346 0.08821 0.0
H1121 H 0.34032 0.45998 0.06637 0.0
H1122 H 0.2881 0.45434 0.10577 0.0
H1123 H 0.33271 0.49021 0.08449 0.0
H1124 H 0.26822 0.32162 0.0443 0.0
H1125 H 0.27584 0.39373 0.06878 0.0
H1126 H 0.28794 0.34644 0.02818 0.0
H1127 H 0.25654 0.36807 0.0844 0.0
H1128 H 0.27442 0.47544 0.04517 0.0
H1129 H 0.23683 0.41729 0.03291 0.0
H1130 H 0.31868 0.39286 0.13066 0.0
H1131 H 0.30871 0.33401 0.09562 0.0
H1132 H 0.28912 0.40336 0.9959 0.0
H1133 H 0.32908 0.45756 0.02059 0.0
H1134 H 0.27302 0.42299 0.97587 0.0
H1135 H 0.31231 0.47625 1.00008 0.0
H1136 H 0.36854 0.39911 0.0275 0.0
H1137 H 0.32341 0.35152 0.03436 0.0
H1138 H 0.38234 0.37404 1.00839 0.0
H1139 H 0.33801 0.32726 0.01517 0.0
H1140 H 0.39998 0.45691 0.07475 0.0
H1141 H 0.38687 0.45947 0.01337 0.0
H1142 H 0.28326 0.34032 0.96308 0.0
H1143 H 0.33698 0.37636 0.95842 0.0
Li1144 Li 0.78105 0.16073 0.05264 0.0
Li1145 Li 0.80384 0.14879 0.03165 0.0
Li1146 Li 0.77878 0.16118 0.01832 0.0
Li1147 Li 0.77255 0.1299 0.02843 0.0
C1148 C 0.80404 0.19372 0.03176 0.0
N1149 N 0.81167 0.22912 0.01693 0.0
C1150 C 0.81396 0.19506 0.01565 0.0
C1151 C 0.79819 0.21042 0.0405 0.0
C1152 C 0.81761 0.21308 1.00831 0.0
C1153 C 0.80215 0.22818 0.03275 0.0
C1154 C 0.787 0.12245 0.06468 0.0
C1155 C 0.79267 0.09368 0.07812 0.0
N1156 N 0.77949 0.09533 0.09021 0.0
C1157 C 0.77368 0.12399 0.07743 0.0
C1158 C 0.79673 0.10728 0.06519 0.0
C1159 C 0.77001 0.11009 0.09014 0.0
C1160 C 0.76424 0.18508 0.0771 0.0
N1161 N 0.77779 0.17471 0.07684 0.0
C1162 C 0.78706 0.18599 0.11101 0.0
C1163 C 0.78915 0.17492 0.09325 0.0
C1164 C 0.77333 0.19709 0.11172 0.0
C1165 C 0.76177 0.19649 0.0945 0.0
H1166 H 0.75556 0.18472 0.0637 0.0
H1167 H 0.79992 0.16664 0.09246 0.0
C1168 C 0.83668 0.14562 0.01525 0.0
N1169 N 0.82837 0.14611 0.03191 0.0
C1170 C 0.85279 0.1385 0.01443 0.0
C1171 C 0.852 0.13399 0.04831 0.0
C1172 C 0.836 0.14126 0.0485 0.0
C1173 C 0.86016 0.13183 0.03089 0.0
H1174 H 0.83012 0.14937 1.00223 0.0
H1175 H 0.82901 0.14184 0.06151 0.0
C1176 C 0.74212 0.14592 0.02248 0.0
N1177 N 0.70802 0.13409 1.00031 0.0
C1178 C 0.74055 0.13688 1.00288 0.0
C1179 C 0.72635 0.14894 0.03079 0.0
C1180 C 0.72319 0.131 0.99193 0.0
C1181 C 0.70923 0.14287 0.01934 0.0
C1182 C 0.7932 0.12139 0.99765 0.0
C1183 C 0.79313 0.11829 0.9773 0.0
C1184 C 0.79965 0.10827 1.0086 0.0
C1185 C 0.79951 0.1021 0.96826 0.0
C1186 C 0.80596 0.09229 0.99905 0.0
N1187 N 0.80576 0.08955 0.97923 0.0
C1188 C 0.77502 0.17367 0.98142 0.0
C1189 C 0.76223 0.19105 1.00681 0.0
C1190 C 0.77004 0.18573 0.96837 0.0
N1191 N 0.77122 0.17671 1.00025 0.0
C1192 C 0.75729 0.20368 0.99437 0.0
C1193 C 0.76131 0.20112 0.97493 0.0
H1194 H 0.78221 0.16215 0.97669 0.0
H1195 H 0.75929 0.19293 0.02187 0.0
C1196 C 0.74414 0.10167 0.03749 0.0
N1197 N 0.75602 0.10413 0.02385 0.0
C1198 C 0.72973 0.08487 0.03492 0.0
C1199 C 0.73975 0.07322 1.00407 0.0
C1200 C 0.75413 0.09027 1.00733 0.0
C1201 C 0.72714 0.07058 0.01783 0.0
H1202 H 0.74506 0.11345 0.04974 0.0
H1203 H 0.76299 0.09282 0.99608 0.0
O1204 O 0.79983 0.17603 0.03876 0.0
O1205 O 0.79098 0.13614 0.05231 0.0
O1206 O 0.75891 0.15149 0.0337 0.0
O1207 O 0.78739 0.13749 1.00669 0.0
H1208 H 0.81851 0.18222 1.0087 0.0
H1209 H 0.79049 0.20958 0.05299 0.0
H1210 H 0.82512 0.2143 0.99573 0.0
H1211 H 0.7976 0.24119 0.03926 0.0
H1212 H 0.80006 0.08185 0.0786 0.0
H1213 H 0.76598 0.13557 0.07731 0.0
H1214 H 0.80743 0.10605 0.05586 0.0
H1215 H 0.7596 0.11102 0.09992 0.0
H1216 H 0.79644 0.18633 0.1239 0.0
H1217 H 0.75099 0.2048 0.09448 0.0
H1218 H 0.85863 0.13691 1.00069 0.0
H1219 H 0.85746 0.12924 0.06137 0.0
H1220 H 0.75256 0.1343 0.99619 0.0
H1221 H 0.72732 0.15582 0.04597 0.0
H1222 H 0.72177 0.12395 0.97676 0.0
H1223 H 0.6969 0.14509 0.02559 0.0
H1224 H 0.78823 0.12831 0.96857 0.0
H1225 H 0.79973 0.11041 0.02427 0.0
H1226 H 0.79953 0.09953 0.95253 0.0
H1227 H 0.81101 0.08206 1.00739 0.0
H1228 H 0.77354 0.18351 0.95352 0.0
H1229 H 0.75053 0.21538 0.99987 0.0
H1230 H 0.71991 0.08392 0.04554 0.0
H1231 H 0.73801 0.06273 0.99053 0.0
Li1232 Li 0.16978 0.55033 0.26648 0.0
Li1233 Li 0.14116 0.53211 0.27157 0.0
Li1234 Li 0.16667 0.51528 0.26875 0.0
Li1235 Li 0.15042 0.52631 0.23926 0.0
C1236 C 0.17529 0.54952 0.30477 0.0
N1237 N 0.1975 0.57517 0.33592 0.0
C1238 C 0.17092 0.56761 0.31214 0.0
C1239 C 0.19091 0.54442 0.31336 0.0
C1240 C 0.18234 0.5804 0.32785 0.0
C1241 C 0.20196 0.5576 0.32908 0.0
C1242 C 0.13145 0.56018 0.25301 0.0
C1243 C 0.10192 0.56322 0.23843 0.0
N1244 N 0.10209 0.57866 0.253 0.0
C1245 C 0.13142 0.5762 0.26773 0.0
C1246 C 0.11667 0.55372 0.23814 0.0
C1247 C 0.11641 0.5853 0.26752 0.0
C1248 C 0.1811 0.58892 0.25916 0.0
N1249 N 0.18634 0.57604 0.27037 0.0
C1250 C 0.21426 0.60002 0.28333 0.0
C1251 C 0.20265 0.58116 0.28223 0.0
C1252 C 0.20916 0.61349 0.27179 0.0
C1253 C 0.19231 0.60779 0.25966 0.0
H1254 H 0.16831 0.58441 0.2495 0.0
H1255 H 0.20693 0.57052 0.29049 0.0
C1256 C 0.12293 0.53802 0.30475 0.0
N1257 N 0.11999 0.53314 0.28491 0.0
C1258 C 0.10815 0.5384 0.31559 0.0
C1259 C 0.08741 0.52828 0.28545 0.0
C1260 C 0.10267 0.52854 0.27513 0.0
C1261 C 0.09015 0.53328 0.30592 0.0
H1262 H 0.13673 0.54117 0.31224 0.0
H1263 H 0.10065 0.52462 0.25935 0.0
C1264 C 0.19525 0.53837 0.24654 0.0
N1265 N 0.23131 0.55708 0.24423 0.0
C1266 C 0.19961 0.54838 0.23085 0.0
C1267 C 0.20926 0.53781 0.261 0.0
C1268 C 0.21791 0.55779 0.22997 0.0
C1269 C 0.2274 0.54734 0.25957 0.0
C1270 C 0.12566 0.49364 0.26087 0.0
C1271 C 0.1267 0.48818 0.27948 0.0
C1272 C 0.10906 0.48744 0.24845 0.0
C1273 C 0.1111 0.47668 0.28542 0.0
C1274 C 0.09376 0.47592 0.25492 0.0
N1275 N 0.09509 0.47084 0.27312 0.0
C1276 C 0.17846 0.49075 0.29451 0.0
C1277 C 0.18968 0.48872 0.26349 0.0
C1278 C 0.18985 0.47867 0.30078 0.0
N1279 N 0.17894 0.49585 0.27632 0.0
C1280 C 0.20147 0.47691 0.26924 0.0
C1281 C 0.2019 0.47216 0.28823 0.0
H1282 H 0.16995 0.49687 0.3045 0.0
H1283 H 0.1897 0.493 0.24911 0.0
C1284 C 0.14911 0.53846 0.20339 0.0
N1285 N 0.1432 0.5223 0.21207 0.0
C1286 C 0.1424 0.53862 0.1841 0.0
C1287 C 0.12363 0.50538 0.18297 0.0
C1288 C 0.13117 0.50565 0.20217 0.0
C1289 C 0.12885 0.52228 0.17384 0.0
H1290 H 0.15842 0.55163 0.21179 0.0
H1291 H 0.1268 0.49297 0.20943 0.0
O1292 O 0.16414 0.53669 0.28952 0.0
O1293 O 0.14602 0.55109 0.25299 0.0
O1294 O 0.17736 0.52936 0.24786 0.0
O1295 O 0.14073 0.50529 0.25503 0.0
H1296 H 0.15885 0.57176 0.30576 0.0
H1297 H 0.19463 0.53059 0.30783 0.0
H1298 H 0.17915 0.59449 0.33362 0.0
H1299 H 0.21414 0.55388 0.33578 0.0
H1300 H 0.09032 0.5583 0.22709 0.0
H1301 H 0.14289 0.58158 0.27916 0.0
H1302 H 0.11646 0.54135 0.22662 0.0
H1303 H 0.11617 0.59766 0.27887 0.0
H1304 H 0.22731 0.6038 0.29262 0.0
H1305 H 0.18787 0.61782 0.25059 0.0
H1306 H 0.11072 0.54194 0.33143 0.0
H1307 H 0.07365 0.52412 0.27758 0.0
H1308 H 0.189 0.54893 0.21949 0.0
H1309 H 0.20614 0.53041 0.27341 0.0
H1310 H 0.22146 0.56566 0.21795 0.0
H1311 H 0.23835 0.54712 0.27073 0.0
H1312 H 0.13933 0.49309 0.28937 0.0
H1313 H 0.10784 0.49182 0.23416 0.0
H1314 H 0.11169 0.47248 0.29985 0.0
H1315 H 0.0808 0.47114 0.24551 0.0
H1316 H 0.18993 0.47533 0.31556 0.0
H1317 H 0.2105 0.47195 0.25915 0.0
H1318 H 0.14733 0.55177 0.17763 0.0
H1319 H 0.11317 0.49247 0.17583 0.0
Li1320 Li 0.80691 0.91378 0.54665 0.0
Li1321 Li 0.82053 0.8888 0.56366 0.0
Li1322 Li 0.84094 0.91599 0.54774 0.0
Li1323 Li 0.81874 0.88836 0.52781 0.0
C1324 C 0.82589 0.93345 0.58568 0.0
N1325 N 0.82574 0.9624 0.61748 0.0
C1326 C 0.81542 0.9287 0.60079 0.0
C1327 C 0.83651 0.95288 0.5869 0.0
C1328 C 0.81545 0.94355 0.6167 0.0
C1329 C 0.83618 0.96732 0.60305 0.0
C1330 C 0.78747 0.86751 0.53306 0.0
C1331 C 0.78007 0.83172 0.52282 0.0
N1332 N 0.76729 0.83366 0.50848 0.0
C1333 C 0.77424 0.86919 0.51829 0.0
C1334 C 0.79042 0.84866 0.53542 0.0
C1335 C 0.76418 0.85188 0.50598 0.0
C1336 C 0.78007 0.93087 0.5287 0.0
N1337 N 0.78709 0.92778 0.54644 0.0
C1338 C 0.76446 0.9422 0.56206 0.0
C1339 C 0.77955 0.93315 0.56297 0.0
C1340 C 0.75689 0.94559 0.54391 0.0
C1341 C 0.76503 0.93987 0.5271 0.0
H1342 H 0.78603 0.92612 0.51568 0.0
H1343 H 0.78493 0.93003 0.57683 0.0
C1344 C 0.83419 0.86995 0.59457 0.0
N1345 N 0.81916 0.8753 0.58629 0.0
C1346 C 0.83338 0.86146 0.61176 0.0
C1347 C 0.80178 0.86441 0.61181 0.0
C1348 C 0.80306 0.87243 0.59441 0.0
C1349 C 0.81708 0.85885 0.62077 0.0
H1350 H 0.8469 0.87255 0.588 0.0
H1351 H 0.7913 0.87683 0.5876 0.0
C1352 C 0.82615 0.93553 0.52002 0.0
N1353 N 0.83305 0.97311 0.5093 0.0
C1354 C 0.83019 0.9378 0.50106 0.0
C1355 C 0.82551 0.95236 0.53346 0.0
C1356 C 0.83368 0.95693 0.49594 0.0
C1357 C 0.82905 0.97122 0.52778 0.0
C1358 C 0.84915 0.87353 0.53712 0.0
C1359 C 0.85986 0.87888 0.52235 0.0
C1360 C 0.84764 0.85456 0.5424 0.0
C1361 C 0.8688 0.86504 0.51298 0.0
C1362 C 0.85684 0.84117 0.53271 0.0
N1363 N 0.86712 0.84664 0.51832 0.0
C1364 C 0.87628 0.93932 0.56662 0.0
C1365 C 0.87163 0.93656 0.5321 0.0
C1366 C 0.89432 0.95056 0.56713 0.0
N1367 N 0.86533 0.93264 0.54925 0.0
C1368 C 0.88945 0.94777 0.53193 0.0
C1369 C 0.9012 0.95486 0.54958 0.0
H1370 H 0.87112 0.9357 0.58006 0.0
H1371 H 0.86291 0.93068 0.51842 0.0
C1372 C 0.80756 0.88174 0.48758 0.0
N1373 N 0.81453 0.87246 0.50153 0.0
C1374 C 0.80535 0.87334 0.46776 0.0
C1375 C 0.81697 0.84546 0.47674 0.0
C1376 C 0.81874 0.85432 0.49651 0.0
C1377 C 0.81039 0.85512 0.46201 0.0
H1378 H 0.80393 0.89592 0.49184 0.0
H1379 H 0.82368 0.84677 0.50772 0.0
O1380 O 0.82626 0.91899 0.57013 0.0
O1381 O 0.79792 0.88429 0.54478 0.0
O1382 O 0.82279 0.91688 0.52525 0.0
O1383 O 0.84036 0.88686 0.54652 0.0
H1384 H 0.80717 0.91376 0.60016 0.0
H1385 H 0.84498 0.9568 0.57556 0.0
H1386 H 0.80729 0.94009 0.62842 0.0
H1387 H 0.84429 0.98243 0.60413 0.0
H1388 H 0.78225 0.81703 0.52439 0.0
H1389 H 0.77192 0.88372 0.51623 0.0
H1390 H 0.80074 0.84719 0.54672 0.0
H1391 H 0.75396 0.85293 0.49441 0.0
H1392 H 0.75849 0.94598 0.57537 0.0
H1393 H 0.75986 0.94233 0.51281 0.0
H1394 H 0.84552 0.85745 0.61822 0.0
H1395 H 0.78889 0.86247 0.61813 0.0
H1396 H 0.83079 0.92494 0.49047 0.0
H1397 H 0.82207 0.95085 0.54802 0.0
H1398 H 0.83691 0.95891 0.48135 0.0
H1399 H 0.82857 0.98436 0.53805 0.0
H1400 H 0.86108 0.89346 0.51804 0.0
H1401 H 0.83935 0.85018 0.55376 0.0
H1402 H 0.87706 0.86893 0.50145 0.0
H1403 H 0.85575 0.82641 0.5366 0.0
H1404 H 0.90288 0.95543 0.58108 0.0
H1405 H 0.89391 0.95085 0.51803 0.0
H1406 H 0.80026 0.88138 0.45699 0.0
H1407 H 0.82069 0.8312 0.47304 0.0
Li1408 Li 0.94405 0.06828 0.2833 0.0
Li1409 Li 0.91653 0.04377 0.26245 0.0
Li1410 Li 0.94228 0.06606 0.2451 0.0
Li1411 Li 0.9201 0.08587 0.26421 0.0
C1412 C 0.95785 0.03711 0.26905 0.0
N1413 N 0.98698 0.02296 0.28444 0.0
C1414 C 0.95457 0.01906 0.27638 0.0
C1415 C 0.97593 0.04797 0.26958 0.0
C1416 C 0.96949 1.01216 0.28409 0.0
C1417 C 0.99048 0.04057 0.2774 0.0
C1418 C 0.91532 0.07007 0.30443 0.0
C1419 C 0.91856 0.09316 0.33464 0.0
N1420 N 0.91417 0.07743 0.3444 0.0
C1421 C 0.91078 0.05412 0.31471 0.0
C1422 C 0.9192 0.08975 0.31441 0.0
C1423 C 0.9103 0.05816 0.33493 0.0
C1424 C 0.97199 0.08421 0.32099 0.0
N1425 N 0.959 0.0683 0.31069 0.0
C1426 C 0.96373 0.04967 0.33733 0.0
C1427 C 0.95491 0.05125 0.31885 0.0
C1428 C 0.97723 0.06576 0.34842 0.0
C1429 C 0.98113 0.08327 0.33966 0.0
H1430 H 0.97537 0.09785 0.31484 0.0
H1431 H 0.94447 0.03865 0.31111 0.0
C1432 C 0.90519 0.99907 0.2534 0.0
N1433 N 0.89989 1.01563 0.26213 0.0
C1434 C 0.89546 0.97939 0.25451 0.0
C1435 C 0.87433 0.99351 0.27305 0.0
C1436 C 0.88456 1.01296 0.27176 0.0
C1437 C 0.8797 0.97608 0.26456 0.0
H1438 H 0.91731 1.00104 0.24577 0.0
H1439 H 0.88035 0.02595 0.27888 0.0
C1440 C 0.96094 0.10407 0.25893 0.0
N1441 N 0.98624 0.12905 0.24164 0.0
C1442 C 0.95493 0.11409 0.24441 0.0
C1443 C 0.97978 0.10674 0.26472 0.0
C1444 C 0.96795 0.12665 0.23582 0.0
C1445 C 0.99237 0.11946 0.25579 0.0
C1446 C 0.90851 0.05851 0.22153 0.0
C1447 C 0.90313 0.07345 0.21238 0.0
C1448 C 0.90872 0.0401 0.21041 0.0
C1449 C 0.8981 0.06972 0.19211 0.0
C1450 C 0.90363 0.03696 0.19018 0.0
N1451 N 0.89847 0.05171 0.18153 0.0
C1452 C 0.96949 0.05444 0.21653 0.0
C1453 C 0.95121 0.07434 0.20366 0.0
C1454 C 0.97841 0.05305 0.19913 0.0
N1455 N 0.95601 0.06503 0.21888 0.0
C1456 C 0.95955 0.07298 0.18585 0.0
C1457 C 0.97358 0.06225 0.18304 0.0
H1458 H 0.97343 0.04673 0.22812 0.0
H1459 H 0.94076 0.08294 0.20511 0.0
C1460 C 0.91633 0.12993 0.2714 0.0
N1461 N 0.90648 0.11061 0.26527 0.0
C1462 C 0.90786 0.14672 0.27224 0.0
C1463 C 0.87891 0.12425 0.26059 0.0
C1464 C 0.88791 0.10786 0.2599 0.0
C1465 C 0.88867 0.14445 0.26683 0.0
H1466 H 0.93099 0.13255 0.27577 0.0
H1467 H 0.87981 0.09279 0.25493 0.0
O1468 O 0.94346 0.04446 0.26195 0.0
O1469 O 0.91638 0.06647 0.28474 0.0
O1470 O 0.94841 0.09127 0.26705 0.0
O1471 O 0.9138 0.062 0.24126 0.0
H1472 H 0.94066 1.01063 0.27641 0.0
H1473 H 0.97868 0.06205 0.26412 0.0
H1474 H 0.96715 0.99825 0.28989 0.0
H1475 H 1.00455 0.04884 0.27793 0.0
H1476 H 0.9216 0.10831 0.34259 0.0
H1477 H 0.90791 0.0388 0.3072 0.0
H1478 H 0.92282 0.10224 0.30663 0.0
H1479 H 0.90691 0.04597 0.34312 0.0
H1480 H 0.95958 0.03585 0.343 0.0
H1481 H 0.99139 0.09625 0.34702 0.0
H1482 H 0.9003 0.96684 0.24737 0.0
H1483 H 0.86253 0.99225 0.28117 0.0
H1484 H 0.94037 0.112 0.23968 0.0
H1485 H 0.98461 0.09907 0.27596 0.0
H1486 H 0.96352 0.13445 0.2245 0.0
H1487 H 1.007 0.12167 0.26009 0.0
H1488 H 0.90298 0.08782 0.22083 0.0
H1489 H 0.91293 0.02843 0.21733 0.0
H1490 H 0.89396 0.08115 0.1848 0.0
H1491 H 0.9038 0.02282 0.18135 0.0
H1492 H 0.98886 0.04435 0.19821 0.0
H1493 H 0.95512 0.08069 0.17444 0.0
H1494 H 0.91651 0.16147 0.27746 0.0
H1495 H 0.86426 0.12092 0.25591 0.0
Li1496 Li 0.27923 0.64917 0.56199 0.0
Li1497 Li 0.29885 0.62748 0.5453 0.0
Li1498 Li 0.28378 0.64886 0.52776 0.0
Li1499 Li 0.26635 0.62001 0.53729 0.0
C1500 C 0.31183 0.67533 0.54684 0.0
N1501 N 0.32895 0.71138 0.53693 0.0
C1502 C 0.3276 0.67662 0.5372 0.0
C1503 C 0.30481 0.6924 0.55151 0.0
C1504 C 0.33604 0.69498 0.53229 0.0
C1505 C 0.31366 0.71047 0.54637 0.0
C1506 C 0.26862 0.60577 0.57048 0.0
C1507 C 0.25633 0.57068 0.57065 0.0
N1508 N 0.24517 0.57562 0.58412 0.0
C1509 C 0.25717 0.6105 0.58448 0.0
C1510 C 0.26834 0.5857 0.56365 0.0
C1511 C 0.24536 0.59505 0.59113 0.0
C1512 C 0.2597 0.66747 0.58962 0.0
N1513 N 0.27668 0.66586 0.58496 0.0
C1514 C 0.29126 0.69147 0.61168 0.0
C1515 C 0.29232 0.67725 0.59573 0.0
C1516 C 0.27393 0.69368 0.6167 0.0
C1517 C 0.25799 0.68127 0.60573 0.0
H1518 H 0.24753 0.65825 0.58065 0.0
H1519 H 0.30562 0.67564 0.59157 0.0
C1520 C 0.332 0.62024 0.53477 0.0
N1521 N 0.32014 0.61752 0.5484 0.0
C1522 C 0.34788 0.61277 0.53594 0.0
C1523 C 0.3388 0.59948 0.56495 0.0
C1524 C 0.32315 0.60743 0.56334 0.0
C1525 C 0.35139 0.60221 0.55115 0.0
H1526 H 0.32893 0.62795 0.52283 0.0
H1527 H 0.31331 0.6054 0.57383 0.0
C1528 C 0.24602 0.64714 0.52656 0.0
N1529 N 0.21561 0.64594 0.50042 0.0
C1530 C 0.24473 0.63769 0.50714 0.0
C1531 C 0.23187 0.65602 0.53267 0.0
C1532 C 0.22924 0.63723 0.49416 0.0
C1533 C 0.2166 0.65526 0.51923 0.0
C1534 C 0.28505 0.60449 0.50589 0.0
C1535 C 0.28007 0.60399 0.48591 0.0
C1536 C 0.29005 0.58787 0.51224 0.0
C1537 C 0.27996 0.58676 0.47265 0.0
C1538 C 0.2898 0.57093 0.49852 0.0
N1539 N 0.28479 0.57072 0.47918 0.0
C1540 C 0.29601 0.6609 0.49326 0.0
C1541 C 0.27776 0.6809 0.50932 0.0
C1542 C 0.29737 0.67237 0.47827 0.0
N1543 N 0.28619 0.66526 0.50823 0.0
C1544 C 0.27881 0.69281 0.49471 0.0
C1545 C 0.28859 0.68849 0.47886 0.0
H1546 H 0.30271 0.64846 0.49297 0.0
H1547 H 0.27013 0.68404 0.52149 0.0
C1548 C 0.23014 0.6052 0.53987 0.0
N1549 N 0.24383 0.60048 0.52976 0.0
C1550 C 0.21184 0.59672 0.53274 0.0
C1551 C 0.22193 0.57707 0.50587 0.0
C1552 C 0.24017 0.58612 0.51347 0.0
C1553 C 0.20762 0.58316 0.5151 0.0
H1554 H 0.2334 0.6169 0.55256 0.0
H1555 H 0.25114 0.58259 0.50555 0.0
O1556 O 0.30302 0.65737 0.55122 0.0
O1557 O 0.28016 0.62072 0.56369 0.0
O1558 O 0.2607 0.64709 0.53979 0.0
O1559 O 0.28537 0.62136 0.51898 0.0
H1560 H 0.3332 0.66358 0.53343 0.0
H1561 H 0.29244 0.69161 0.55866 0.0
H1562 H 0.34821 0.69617 0.52476 0.0
H1563 H 0.30829 0.72376 0.54977 0.0
H1564 H 0.2559 0.55509 0.5654 0.0
H1565 H 0.25733 0.62593 0.59008 0.0
H1566 H 0.27725 0.58173 0.55302 0.0
H1567 H 0.23634 0.59851 0.60188 0.0
H1568 H 0.30383 0.70066 0.61999 0.0
H1569 H 0.24442 0.68264 0.60925 0.0
H1570 H 0.3571 0.61483 0.52481 0.0
H1571 H 0.3411 0.59141 0.57687 0.0
H1572 H 0.25545 0.6306 0.50218 0.0
H1573 H 0.2326 0.6633 0.54767 0.0
H1574 H 0.22804 0.62988 0.47912 0.0
H1575 H 0.20551 0.66201 0.52378 0.0
H1576 H 0.27626 0.61674 0.48069 0.0
H1577 H 0.29411 0.588 0.52755 0.0
H1578 H 0.27607 0.58614 0.45717 0.0
H1579 H 0.29361 0.55796 0.50326 0.0
H1580 H 0.30524 0.66875 0.46641 0.0
H1581 H 0.27172 0.70499 0.4956 0.0
H1582 H 0.20107 0.60155 0.54035 0.0
H1583 H 0.21907 0.56656 0.49225 0.0
Li1584 Li 0.41614 0.54481 0.76298 0.0
Li1585 Li 0.44311 0.5674 0.78411 0.0
Li1586 Li 0.41814 0.58448 0.76591 0.0
Li1587 Li 0.44211 0.56485 0.74456 0.0
C1588 C 0.40588 0.55724 0.79952 0.0
N1589 N 0.3847 0.53875 0.82528 0.0
C1590 C 0.4116 0.54247 0.80867 0.0
C1591 C 0.38944 0.56268 0.80353 0.0
C1592 C 0.40069 0.53328 0.82163 0.0
C1593 C 0.37891 0.55314 0.81659 0.0
C1594 C 0.45542 0.53352 0.76678 0.0
C1595 C 0.48515 0.52582 0.76367 0.0
N1596 N 0.48142 0.51212 0.77585 0.0
C1597 C 0.45185 0.51933 0.77922 0.0
C1598 C 0.47217 0.53679 0.75889 0.0
C1599 C 0.46519 0.50868 0.78365 0.0
C1600 C 0.40637 0.50011 0.75537 0.0
N1601 N 0.39947 0.51637 0.76177 0.0
C1602 C 0.3724 0.49358 0.76922 0.0
C1603 C 0.38255 0.5132 0.76839 0.0
C1604 C 0.37942 0.47647 0.76324 0.0
C1605 C 0.39674 0.48029 0.75605 0.0
H1606 H 0.41964 0.50241 0.7499 0.0
H1607 H 0.3769 0.52591 0.77344 0.0
C1608 C 0.45269 0.57554 0.82837 0.0
N1609 N 0.45893 0.56857 0.81131 0.0
C1610 C 0.4615 0.57452 0.84711 0.0
C1611 C 0.48344 0.55935 0.83116 0.0
C1612 C 0.47441 0.56095 0.81273 0.0
C1613 C 0.47708 0.56599 0.84902 0.0
H1614 H 0.44046 0.58157 0.82758 0.0
H1615 H 0.47981 0.55569 0.79953 0.0
C1616 C 0.39839 0.54968 0.73028 0.0
N1617 N 0.36771 0.52296 0.70976 0.0
C1618 C 0.40041 0.5349 0.71521 0.0
C1619 C 0.3808 0.55084 0.735 0.0
C1620 C 0.38472 0.52154 0.70497 0.0
C1621 C 0.36545 0.5372 0.72442 0.0
C1622 C 0.46245 0.60252 0.77691 0.0
C1623 C 0.46093 0.61749 0.79206 0.0
C1624 C 0.47983 0.59977 0.77292 0.0
C1625 C 0.47695 0.62961 0.80295 0.0
C1626 C 0.49551 0.6122 0.78415 0.0
N1627 N 0.49375 0.62673 0.79881 0.0
C1628 C 0.38632 0.60726 0.76955 0.0
C1629 C 0.41418 0.62825 0.76548 0.0
C1630 C 0.37734 0.62368 0.77048 0.0
N1631 N 0.40463 0.60944 0.76712 0.0
C1632 C 0.40569 0.64504 0.76625 0.0
C1633 C 0.38678 0.64337 0.76884 0.0
H1634 H 0.37837 0.59264 0.77083 0.0
H1635 H 0.42862 0.63045 0.76347 0.0
C1636 C 0.45529 0.54576 0.70701 0.0
N1637 N 0.45606 0.56374 0.71867 0.0
C1638 C 0.46401 0.5444 0.68946 0.0
C1639 C 0.47472 0.57995 0.69558 0.0
C1640 C 0.46574 0.58068 0.71298 0.0
C1641 C 0.47411 0.56161 0.6831 0.0
H1642 H 0.44785 0.53215 0.71123 0.0
H1643 H 0.46653 0.59506 0.72189 0.0
O1644 O 0.41623 0.56615 0.78655 0.0
O1645 O 0.44261 0.54416 0.76225 0.0
O1646 O 0.41359 0.56232 0.74104 0.0
O1647 O 0.44697 0.59008 0.76652 0.0
H1648 H 0.4243 0.53812 0.80573 0.0
H1649 H 0.38484 0.5741 0.79659 0.0
H1650 H 0.40493 0.52178 0.82877 0.0
H1651 H 0.36613 0.55716 0.81979 0.0
H1652 H 0.49819 0.52822 0.75771 0.0
H1653 H 0.43895 0.51658 0.78542 0.0
H1654 H 0.47515 0.54775 0.74927 0.0
H1655 H 0.46264 0.49768 0.7933 0.0
H1656 H 0.3593 0.49199 0.77504 0.0
H1657 H 0.40291 0.46802 0.7508 0.0
H1658 H 0.4557 0.57987 0.86005 0.0
H1659 H 0.49549 0.55298 0.83132 0.0
H1660 H 0.41396 0.53367 0.71157 0.0
H1661 H 0.37906 0.56201 0.74684 0.0
H1662 H 0.38606 0.51 0.69328 0.0
H1663 H 0.35175 0.53788 0.72794 0.0
H1664 H 0.44753 0.61962 0.79543 0.0
H1665 H 0.48118 0.58809 0.76134 0.0
H1666 H 0.47601 0.64126 0.81474 0.0
H1667 H 0.50907 0.61025 0.78126 0.0
H1668 H 0.36296 0.62071 0.77273 0.0
H1669 H 0.41414 0.65926 0.76455 0.0
H1670 H 0.46297 0.52969 0.68112 0.0
H1671 H 0.48188 0.59396 0.69188 0.0
Li1672 Li 0.62921 0.03665 0.76509 0.0
Li1673 Li 0.65963 0.05753 0.76354 0.0
Li1674 Li 0.64451 0.03116 0.73637 0.0
Li1675 Li 0.65707 0.02343 0.76718 0.0
C1676 C 0.62944 0.06212 0.73102 0.0
N1677 N 0.61656 0.07448 0.69738 0.0
C1678 C 0.63958 0.07895 0.72472 0.0
C1679 C 0.6127 0.05165 0.72025 0.0
C1680 C 0.63283 0.08496 0.70768 0.0
C1681 C 0.60646 0.05809 0.70326 0.0
C1682 C 0.65573 0.06062 0.80044 0.0
C1683 C 0.6791 0.08434 0.82312 0.0
N1684 N 0.66623 0.09464 0.8286 0.0
C1685 C 0.64274 0.07142 0.80631 0.0
C1686 C 0.67406 0.06708 0.80894 0.0
C1687 C 0.64832 0.08858 0.82057 0.0
C1688 C 0.60128 0.02375 0.78763 0.0
N1689 N 0.60582 0.03562 0.77402 0.0
C1690 C 0.57663 0.04467 0.77332 0.0
C1691 C 0.59403 0.0462 0.76696 0.0
C1692 C 0.57139 0.03196 0.78686 0.0
C1693 C 0.58396 0.02146 0.79408 0.0
H1694 H 0.61116 0.01606 0.79348 0.0
H1695 H 0.59818 0.05597 0.75655 0.0
C1696 C 0.69305 0.08653 0.76992 0.0
N1697 N 0.67451 0.08391 0.7697 0.0
C1698 C 0.7043 0.10574 0.77334 0.0
C1699 C 0.67714 0.11927 0.77621 0.0
C1700 C 0.66642 0.09974 0.77303 0.0
C1701 C 0.69631 0.12239 0.77621 0.0
H1702 H 0.69907 0.07372 0.767 0.0
H1703 H 0.65161 0.09716 0.77272 0.0
C1704 C 0.61795 0.99702 0.75358 0.0
N1705 N 0.58681 0.96978 0.75909 0.0
C1706 C 0.61887 0.98468 0.76775 0.0
C1707 C 0.60122 0.9954 0.74213 0.0
C1708 C 0.60297 0.97101 0.77032 0.0
C1709 C 0.58563 0.98158 0.74518 0.0
C1710 C 0.68411 0.02782 0.74472 0.0
C1711 C 0.68216 1.0133 0.72799 0.0
C1712 C 0.69975 0.03131 0.75844 0.0
C1713 C 0.69583 1.00248 0.72533 0.0
C1714 C 0.71309 0.02014 0.75526 0.0
N1715 N 0.71088 1.00609 0.7389 0.0
C1716 C 0.64723 0.0371 0.69746 0.0
C1717 C 0.62891 1.00576 0.70105 0.0
C1718 C 0.64098 0.0338 0.67753 0.0
N1719 N 0.64027 0.02367 0.70888 0.0
C1720 C 0.62263 1.00159 0.68109 0.0
C1721 C 0.62787 0.01618 0.66923 0.0
H1722 H 0.65666 0.051 0.70408 0.0
H1723 H 0.62409 0.99507 0.71043 0.0
C1724 C 0.68113 1.01019 0.79385 0.0
N1725 N 0.66922 1.00499 0.77708 0.0
C1726 C 0.69349 0.99828 0.79789 0.0
C1727 C 0.67983 0.9752 0.76823 0.0
C1728 C 0.66786 0.98755 0.76473 0.0
C1729 C 0.6934 0.981 0.78451 0.0
H1730 H 0.68196 0.02424 0.8033 0.0
H1731 H 0.65832 0.98395 0.75143 0.0
O1732 O 0.63597 0.05581 0.7475 0.0
O1733 O 0.65063 0.04407 0.78616 0.0
O1734 O 0.63332 1.01067 0.751 0.0
O1735 O 0.67067 0.03829 0.74779 0.0
H1736 H 0.65264 0.08714 0.73273 0.0
H1737 H 0.60474 0.03853 0.72483 0.0
H1738 H 0.64058 0.09789 0.70258 0.0
H1739 H 0.59361 0.05003 0.69471 0.0
H1740 H 0.69326 0.08961 0.8297 0.0
H1741 H 0.62852 0.06673 0.79981 0.0
H1742 H 0.68437 0.05912 0.80434 0.0
H1743 H 0.63842 0.09713 0.8252 0.0
H1744 H 0.56738 0.05328 0.76775 0.0
H1745 H 0.58062 1.01202 0.80503 0.0
H1746 H 0.71901 0.10758 0.77296 0.0
H1747 H 0.67052 0.13179 0.77841 0.0
H1748 H 0.63163 0.98581 0.77688 0.0
H1749 H 0.60023 1.00483 0.73112 0.0
H1750 H 0.60346 0.96145 0.78131 0.0
H1751 H 0.57257 0.98027 0.7365 0.0
H1752 H 0.67016 1.01024 0.71725 0.0
H1753 H 0.70135 0.0421 0.77171 0.0
H1754 H 0.69444 0.99116 0.71249 0.0
H1755 H 0.72513 0.02253 0.76588 0.0
H1756 H 0.64545 0.04559 0.66915 0.0
H1757 H 0.61309 0.98749 0.67526 0.0
H1758 H 0.70379 1.0033 0.81056 0.0
H1759 H 0.67912 0.96179 0.75775 0.0
Li1760 Li 0.78644 0.70228 0.02598 0.0
Li1761 Li 0.79872 0.67687 1.00687 0.0
Li1762 Li 0.78432 0.69983 0.98935 0.0
Li1763 Li 0.76589 0.67318 1.00483 0.0
C1764 C 0.81538 0.72645 1.01137 0.0
N1765 N 0.83241 0.76651 0.01518 0.0
C1766 C 0.83447 0.73267 0.01614 0.0
C1767 C 0.80496 0.74058 1.00845 0.0
C1768 C 0.84282 0.753 0.01804 0.0
C1769 C 0.81382 0.76077 1.01045 0.0
C1770 C 0.79284 0.66352 0.03899 0.0
C1771 C 0.80209 0.63307 0.04405 0.0
N1772 N 0.81409 0.64342 0.05977 0.0
C1773 C 0.8053 0.67386 0.05518 0.0
C1774 C 0.79122 0.64295 0.03337 0.0
C1775 C 0.81589 0.66342 0.06551 0.0
C1776 C 0.77681 0.70981 0.06379 0.0
N1777 N 0.78837 0.71843 0.05174 0.0
C1778 C 0.80227 0.74526 0.07805 0.0
C1779 C 0.80099 0.73589 0.05852 0.0
C1780 C 0.79048 0.7366 0.09079 0.0
C1781 C 0.77753 0.71868 0.0833 0.0
H1782 H 0.76738 0.69557 0.05841 0.0
H1783 H 0.8104 0.7424 0.04904 0.0
C1784 C 0.81818 0.64627 0.99506 0.0
N1785 N 0.8191 0.66387 1.00706 0.0
C1786 C 0.83308 0.63695 0.99563 0.0
C1787 C 0.84967 0.66411 0.02075 0.0
C1788 C 0.83447 0.6729 0.01968 0.0
C1789 C 0.84914 0.64585 1.00864 0.0
H1790 H 0.80585 0.63941 0.9851 0.0
H1791 H 0.83487 0.68694 0.029 0.0
C1792 C 0.75226 0.71077 0.01558 0.0
N1793 N 0.72723 0.72871 0.03417 0.0
C1794 C 0.74146 0.70093 0.02826 0.0
C1795 C 0.75022 0.72967 1.01222 0.0
C1796 C 0.72892 0.71027 0.03756 0.0
C1797 C 0.73752 0.73851 0.0218 0.0
C1798 C 0.76835 0.65593 0.96998 0.0
C1799 C 0.75817 0.66145 0.95467 0.0
C1800 C 0.76492 0.63593 0.97272 0.0
C1801 C 0.74464 0.64683 0.94238 0.0
C1802 C 0.75125 0.62177 0.96014 0.0
N1803 N 0.74148 0.62747 0.94536 0.0
C1804 C 0.80178 0.7144 0.95832 0.0
C1805 C 0.77202 0.721 0.95929 0.0
C1806 C 0.80399 0.7231 0.94143 0.0
N1807 N 0.786 0.71347 0.96688 0.0
C1808 C 0.77364 0.72981 0.94232 0.0
C1809 C 0.78981 0.73095 0.93308 0.0
H1810 H 0.81262 0.70813 0.96453 0.0
H1811 H 0.75953 0.71995 0.96626 0.0
C1812 C 0.74003 0.64066 0.01456 0.0
N1813 N 0.74207 0.65515 1.00308 0.0
C1814 C 0.72279 0.62811 0.0147 0.0
C1815 C 0.70985 0.64571 0.99136 0.0
C1816 C 0.72742 0.65784 0.99155 0.0
C1817 C 0.70734 0.6306 1.0031 0.0
H1818 H 0.75172 0.63912 0.02398 0.0
H1819 H 0.72934 0.66965 0.98275 0.0
O1820 O 0.80706 0.70658 1.00925 0.0
O1821 O 0.7827 0.67357 0.02835 0.0
O1822 O 0.76465 0.7019 1.00632 0.0
O1823 O 0.78131 0.67012 0.98248 0.0
H1824 H 0.84275 0.72189 0.01835 0.0
H1825 H 0.79021 0.73604 1.00474 0.0
H1826 H 0.85758 0.75803 0.02177 0.0
H1827 H 0.80591 0.77186 1.00826 0.0
H1828 H 0.80106 0.61719 0.03978 0.0
H1829 H 0.80702 0.68982 0.05958 0.0
H1830 H 0.78195 0.63476 0.02065 0.0
H1831 H 0.82562 0.67126 0.07801 0.0
H1832 H 0.81244 0.75908 0.08313 0.0
H1833 H 0.76845 0.71116 0.0926 0.0
H1834 H 0.83192 0.62278 0.98617 0.0
H1835 H 0.86179 0.67172 0.03079 0.0
H1836 H 0.74283 0.68631 0.03105 0.0
H1837 H 0.7583 0.73744 1.00229 0.0
H1838 H 0.72055 0.70285 0.04749 0.0
H1839 H 0.73582 0.75315 0.01936 0.0
H1840 H 0.76058 0.67686 0.95238 0.0
H1841 H 0.77252 0.63144 0.98464 0.0
H1842 H 0.73662 0.6509 0.93051 0.0
H1843 H 0.74836 0.60626 0.96219 0.0
H1844 H 0.81659 0.72327 0.93476 0.0
H1845 H 0.76239 0.7358 0.9366 0.0
H1846 H 0.72148 0.61693 0.02424 0.0
H1847 H 0.69836 0.6481 0.98211 0.0
Li1848 Li 0.9275 0.53395 0.78704 0.0
Li1849 Li 0.94382 0.5582 0.8139 0.0
Li1850 Li 0.93116 0.56908 0.78504 0.0
Li1851 Li 0.95757 0.55344 0.78435 0.0
C1852 C 0.90666 0.54839 0.81731 0.0
N1853 N 0.8846 0.53693 0.84553 0.0
C1854 C 0.90696 0.53049 0.82433 0.0
C1855 C 0.89515 0.56046 0.82464 0.0
C1856 C 0.89571 0.52496 0.8386 0.0
C1857 C 0.8841 0.55441 0.83891 0.0
C1858 C 0.96685 0.53115 0.81174 0.0
C1859 C 0.9965 0.54495 0.83076 0.0
N1860 N 0.99857 0.5261 0.832 0.0
C1861 C 0.96927 0.51191 0.81322 0.0
C1862 C 0.98058 0.54782 0.82058 0.0
C1863 C 0.98541 0.50967 0.82352 0.0
C1864 C 0.91868 0.49229 0.77517 0.0
N1865 N 0.91133 0.50851 0.77955 0.0
C1866 C 0.88097 0.48788 0.77539 0.0
C1867 C 0.89286 0.50673 0.77937 0.0
C1868 C 0.8882 0.47076 0.7715 0.0
C1869 C 0.90727 0.47311 0.77102 0.0
H1870 H 0.93344 0.49425 0.77539 0.0
H1871 H 0.88741 0.51995 0.78274 0.0
C1872 C 0.9561 0.58268 0.851 0.0
N1873 N 0.94914 0.56364 0.84153 0.0
C1874 C 0.96319 0.58614 0.87079 0.0
C1875 C 0.95484 0.55043 0.87076 0.0
C1876 C 0.94803 0.54768 0.85106 0.0
C1877 C 0.96302 0.5698 0.88076 0.0
H1878 H 0.95694 0.59505 0.84296 0.0
H1879 H 0.9429 0.53267 0.84306 0.0
C1880 C 0.92211 0.53784 0.74971 0.0
N1881 N 0.89515 0.51725 0.71978 0.0
C1882 C 0.92663 0.5256 0.73391 0.0
C1883 C 0.90384 0.53957 0.75027 0.0
C1884 C 0.91282 0.51532 0.71893 0.0
C1885 C 0.89043 0.52907 0.73501 0.0
C1886 C 0.96502 0.59531 0.79211 0.0
C1887 C 0.96428 0.59406 0.77175 0.0
C1888 C 0.97502 0.61275 0.80427 0.0
C1889 C 0.97358 0.61028 0.76393 0.0
C1890 C 0.98414 0.62865 0.79588 0.0
N1891 N 0.98323 0.6271 0.77605 0.0
C1892 C 0.91404 0.60126 0.78923 0.0
C1893 C 0.9171 0.589 0.75625 0.0
C1894 C 0.90408 0.61467 0.78313 0.0
N1895 N 0.91995 0.58853 0.77577 0.0
C1896 C 0.90687 0.60188 0.74948 0.0
C1897 C 0.90004 0.61468 0.76302 0.0
H1898 H 0.91669 0.60059 0.80466 0.0
H1899 H 0.92232 0.57899 0.7459 0.0
C1900 C 0.99564 0.56748 0.78149 0.0
N1901 N 0.98019 0.55327 0.77393 0.0
C1902 C 1.01166 0.56862 0.77239 0.0
C1903 C 0.99594 0.53967 0.7487 0.0
C1904 C 0.98025 0.53906 0.75832 0.0
C1905 C 1.01175 0.55497 0.75539 0.0
H1906 H 0.99541 0.57832 0.79425 0.0
H1907 H 0.96792 0.52763 0.75301 0.0
O1908 O 0.91756 0.55416 0.80334 0.0
O1909 O 0.95101 0.53347 0.80183 0.0
O1910 O 0.93534 0.5477 0.76478 0.0
O1911 O 0.9561 0.57965 0.80024 0.0
H1912 H 0.91583 0.521 0.81889 0.0
H1913 H 0.89474 0.57434 0.81934 0.0
H1914 H 0.89582 0.51116 0.84417 0.0
H1915 H 0.87511 0.5636 0.84471 0.0
H1916 H 1.0072 0.55773 0.8377 0.0
H1917 H 0.95875 0.49885 0.80652 0.0
H1918 H 0.97893 0.56283 0.81973 0.0
H1919 H 0.98745 0.49486 0.82478 0.0
H1920 H 0.86631 0.48668 0.77565 0.0
H1921 H 0.91338 0.46026 0.76826 0.0
H1922 H 0.96931 0.60131 0.878 0.0
H1923 H 0.95479 0.53735 0.87768 0.0
H1924 H 0.94064 0.52404 0.73315 0.0
H1925 H 0.9 0.5487 0.76253 0.0
H1926 H 0.91614 0.5058 0.70662 0.0
H1927 H 0.87624 0.53022 0.73532 0.0
H1928 H 0.95673 0.5807 0.76205 0.0
H1929 H 0.97578 0.61397 0.82005 0.0
H1930 H 0.97315 0.60949 0.74822 0.0
H1931 H 0.99194 0.64223 0.80513 0.0
H1932 H 0.89892 0.62431 0.79396 0.0
H1933 H 0.9041 0.60167 0.73386 0.0
H1934 H 0.02365 0.58042 0.77826 0.0
H1935 H 0.99531 0.52889 0.73559 0.0
Li1936 Li 0.80465 0.43506 0.51945 0.0
Li1937 Li 0.80372 0.46746 0.50802 0.0
Li1938 Li 0.81569 0.44012 0.4889 0.0
Li1939 Li 0.83263 0.45921 0.51871 0.0
C1940 C 0.77366 0.42792 0.49868 0.0
N1941 N 0.74103 0.40455 0.50625 0.0
C1942 C 0.76086 0.43682 0.50803 0.0
C1943 C 0.76992 0.40707 0.49341 0.0
C1944 C 0.74442 0.42477 0.51164 0.0
C1945 C 0.75334 0.39554 0.49732 0.0
C1946 C 0.82128 0.46864 0.55293 0.0
C1947 C 0.83795 0.49464 0.57909 0.0
N1948 N 0.84128 0.48044 0.58971 0.0
C1949 C 0.825 0.45432 0.5641 0.0
C1950 C 0.8279 0.48898 0.5605 0.0
C1951 C 0.83506 0.46057 0.58266 0.0
C1952 C 0.79765 0.39829 0.53345 0.0
N1953 N 0.79292 0.41628 0.5345 0.0
C1954 C 0.77562 0.40965 0.56113 0.0
C1955 C 0.78182 0.42199 0.5477 0.0
C1956 C 0.78092 0.39131 0.56085 0.0
C1957 C 0.79163 0.38542 0.54642 0.0
H1958 H 0.8069 0.39436 0.52325 0.0
H1959 H 0.77857 0.43657 0.54843 0.0
C1960 C 0.77516 0.4833 0.49231 0.0
N1961 N 0.79013 0.48747 0.50602 0.0
C1962 C 0.76343 0.49652 0.4919 0.0
C1963 C 0.78369 0.5189 0.51857 0.0
C1964 C 0.79485 0.50509 0.51865 0.0
C1965 C 0.76738 0.5144 0.50552 0.0
H1966 H 0.77188 0.46925 0.48227 0.0
H1967 H 0.80711 0.50831 0.52897 0.0
C1968 C 0.83633 0.41719 0.4999 0.0
N1969 N 0.85331 0.39193 0.4771 0.0
C1970 C 0.85511 0.42297 0.49807 0.0
C1971 C 0.82621 0.39851 0.49009 0.0
C1972 C 0.86344 0.40998 0.48651 0.0
C1973 C 0.83503 0.38599 0.47862 0.0
C1974 C 0.84048 0.48464 0.49233 0.0
C1975 C 0.85762 0.4806 0.48898 0.0
C1976 C 0.83811 0.50426 0.49345 0.0
C1977 C 0.87214 0.49629 0.487 0.0
C1978 C 0.85296 0.51954 0.49137 0.0
N1979 N 0.86953 0.51528 0.48823 0.0
C1980 C 0.80217 0.41374 0.45335 0.0
C1981 C 0.83353 0.43042 0.45532 0.0
C1982 C 0.8036 0.40142 0.43609 0.0
N1983 N 0.8172 0.42736 0.46296 0.0
C1984 C 0.83553 0.41859 0.43795 0.0
C1985 C 0.82057 0.40347 0.42849 0.0
H1986 H 0.78924 0.41194 0.45941 0.0
H1987 H 0.84527 0.44132 0.46317 0.0
C1988 C 0.8631 0.45634 0.54283 0.0
N1989 N 0.85621 0.46977 0.53367 0.0
C1990 C 0.88045 0.46192 0.55364 0.0
C1991 C 0.88297 0.49543 0.54637 0.0
C1992 C 0.86534 0.48928 0.53605 0.0
C1993 C 0.89098 0.48149 0.55486 0.0
H1994 H 0.85517 0.44114 0.54148 0.0
H1995 H 0.85916 0.49999 0.52962 0.0
O1996 O 0.79004 0.43947 0.4954 0.0
O1997 O 0.81186 0.46278 0.53446 0.0
O1998 O 0.82782 0.42988 0.51084 0.0
O1999 O 0.82598 0.4695 0.49413 0.0
H2000 H 0.76369 0.45282 0.51285 0.0
H2001 H 0.77986 0.39978 0.4868 0.0
H2002 H 0.73442 0.43149 0.51888 0.0
H2003 H 0.75033 0.3794 0.49339 0.0
H2004 H 0.84321 0.51033 0.58503 0.0
H2005 H 0.82061 0.43852 0.5584 0.0
H2006 H 0.82566 0.50033 0.55201 0.0
H2007 H 0.83807 0.44962 0.59138 0.0
H2008 H 0.76738 0.41471 0.57207 0.0
H2009 H 0.79634 0.37161 0.54598 0.0
H2010 H 0.75097 0.49225 0.48166 0.0
H2011 H 0.78759 0.53273 0.52897 0.0
H2012 H 0.86318 0.43741 0.50524 0.0
H2013 H 0.81159 0.39393 0.49085 0.0
H2014 H 0.87793 0.41433 0.48493 0.0
H2015 H 0.8273 0.37161 0.47081 0.0
H2016 H 0.85985 0.46564 0.48845 0.0
H2017 H 0.82491 0.50765 0.49579 0.0
H2018 H 0.88551 0.49339 0.48459 0.0
H2019 H 0.85131 0.53479 0.49224 0.0
H2020 H 0.79165 0.39017 0.42894 0.0
H2021 H 0.84884 0.42059 0.43251 0.0
H2022 H 0.88573 0.45081 0.56049 0.0
H2023 H 0.89049 0.51071 0.54691 0.0
Li2024 Li 0.66287 0.52778 0.30107 0.0
Li2025 Li 0.68984 0.54848 0.28324 0.0
Li2026 Li 0.66267 0.52459 0.26171 0.0
Li2027 Li 0.68675 0.50862 0.28041 0.0
C2028 C 0.6507 0.55742 0.27368 0.0
N2029 N 0.62611 0.57395 0.25309 0.0
C2030 C 0.65716 0.57351 0.26413 0.0
C2031 C 0.63176 0.5497 0.27274 0.0
C2032 C 0.6445 0.58168 0.25381 0.0
C2033 C 0.61954 0.55827 0.26226 0.0
C2034 C 0.70584 0.54269 0.31762 0.0
C2035 C 0.73839 0.55287 0.32863 0.0
N2036 N 0.73518 0.56765 0.34213 0.0
C2037 C 0.70285 0.55801 0.33154 0.0
C2038 C 0.72373 0.54012 0.31607 0.0
C2039 C 0.71787 0.57046 0.34382 0.0
C2040 C 0.65855 0.52949 0.34508 0.0
N2041 N 0.64908 0.5289 0.32709 0.0
C2042 C 0.62173 0.53052 0.34383 0.0
C2043 C 0.63081 0.52944 0.32654 0.0
C2044 C 0.63114 0.53126 0.36268 0.0
C2045 C 0.65002 0.53076 0.36275 0.0
H2046 H 0.67295 0.52897 0.34595 0.0
H2047 H 0.62302 0.5291 0.3126 0.0
C2048 C 0.71774 0.5804 0.27015 0.0
N2049 N 0.70632 0.5768 0.28422 0.0
C2050 C 0.72776 0.60001 0.26923 0.0
C2051 C 0.71431 0.6125 0.29717 0.0
C2052 C 0.70457 0.59263 0.29761 0.0
C2053 C 0.7262 0.61675 0.28277 0.0
H2054 H 0.71881 0.5681 0.25915 0.0
H2055 H 0.69527 0.58999 0.30854 0.0
C2056 C 0.64359 0.48832 0.26954 0.0
N2057 N 0.61387 0.45993 0.2493 0.0
C2058 C 0.64625 0.47414 0.25424 0.0
C2059 C 0.62586 0.4881 0.27457 0.0
C2060 C 0.63103 0.4599 0.24417 0.0
C2061 C 0.611 0.47361 0.26416 0.0
C2062 C 0.69831 0.51857 0.24566 0.0
C2063 C 0.68795 0.5041 0.23046 0.0
C2064 C 0.7175 0.52355 0.24653 0.0
C2065 C 0.69699 0.49488 0.21626 0.0
C2066 C 0.72603 0.51398 0.23206 0.0
N2067 N 0.71569 0.49996 0.21735 0.0
C2068 C 0.65578 0.53809 0.22339 0.0
C2069 C 0.63073 0.51255 0.22699 0.0
C2070 C 0.64718 0.54004 0.20491 0.0
N2071 N 0.64764 0.52456 0.23439 0.0
C2072 C 0.62172 0.51389 0.20839 0.0
C2073 C 0.62975 0.5279 0.19678 0.0
H2074 H 0.66915 0.54764 0.22898 0.0
H2075 H 0.62398 0.50187 0.23547 0.0
C2076 C 0.71904 0.48656 0.27848 0.0
N2077 N 0.70043 0.4839 0.27932 0.0
C2078 C 0.72819 0.4703 0.27774 0.0
C2079 C 0.69931 0.44806 0.27853 0.0
C2080 C 0.69071 0.46475 0.27937 0.0
C2081 C 0.71857 0.45024 0.27771 0.0
H2082 H 0.72711 0.50146 0.27841 0.0
H2083 H 0.67601 0.46216 0.28002 0.0
O2084 O 0.66288 0.54868 0.28315 0.0
O2085 O 0.69138 0.53074 0.3051 0.0
O2086 O 0.65827 0.50248 0.27944 0.0
O2087 O 0.68975 0.52744 0.25993 0.0
H2088 H 0.67179 0.57948 0.26449 0.0
H2089 H 0.62658 0.53701 0.27975 0.0
H2090 H 0.64929 0.59409 0.24629 0.0
H2091 H 0.60485 0.55239 0.26132 0.0
H2092 H 0.75232 0.55106 0.3276 0.0
H2093 H 0.6891 0.5604 0.33269 0.0
H2094 H 0.72627 0.52846 0.30522 0.0
H2095 H 0.71577 0.58241 0.35464 0.0
H2096 H 0.60734 0.5311 0.3423 0.0
H2097 H 0.65827 0.53101 0.37641 0.0
H2098 H 0.73628 0.60199 0.25751 0.0
H2099 H 0.71248 0.62443 0.30819 0.0
H2100 H 0.65991 0.47415 0.25017 0.0
H2101 H 0.62361 0.49903 0.28636 0.0
H2102 H 0.63286 0.44884 0.23227 0.0
H2103 H 0.59718 0.47325 0.26787 0.0
H2104 H 0.67309 0.49998 0.22965 0.0
H2105 H 0.72572 0.53451 0.25839 0.0
H2106 H 0.68915 0.48365 0.2044 0.0
H2107 H 0.74088 0.51763 0.23257 0.0
H2108 H 0.65445 0.55095 0.19694 0.0
H2109 H 0.60831 0.50415 0.20337 0.0
H2110 H 0.74293 0.47378 0.27743 0.0
H2111 H 0.6906 0.43343 0.27832 0.0
La2112 La 0.03259 0.03387 1.01189 0.0
La2113 La 0.06995 0.05731 0.03309 0.0
C2114 C 0.99842 0.01971 1.00537 0.0
C2115 C 0.98324 0.02907 1.01042 0.0
C2116 C 0.96506 0.02006 1.00243 0.0
C2117 C 0.95105 0.03037 1.00543 0.0
C2118 C 0.95518 0.04987 0.01626 0.0
C2119 C 0.97334 0.05852 0.02473 0.0
C2120 C 0.98723 0.04819 0.02184 0.0
C2121 C 0.05786 0.03381 0.98551 0.0
C2122 C 0.04362 0.08106 0.01375 0.0
C2123 C 0.10391 0.07269 0.03949 0.0
C2124 C 0.11961 0.06675 0.03113 0.0
C2125 C 0.13759 0.07667 0.0389 0.0
C2126 C 0.15254 0.07017 0.03157 0.0
C2127 C 0.14967 0.05374 0.01623 0.0
C2128 C 0.1315 0.0442 1.00821 0.0
C2129 C 0.11662 0.0505 0.01579 0.0
C2130 C 0.04486 0.05721 0.05965 0.0
C2131 C 0.05894 1.00986 0.03037 0.0
O2132 O 1.00817 0.02807 0.99277 0.0
O2133 O 1.00883 0.01647 0.02019 0.0
O2134 O 0.04066 0.02455 0.98259 0.0
O2135 O 0.06034 0.04183 1.00366 0.0
O2136 O 0.03033 0.06469 1.01112 0.0
O2137 O 0.06058 0.08135 0.02108 0.0
O2138 O 0.09528 0.06022 0.04994 0.0
O2139 O 0.0925 0.07845 0.02731 0.0
O2140 O 0.06219 0.06591 0.06266 0.0
O2141 O 0.04229 0.04942 0.04143 0.0
O2142 O 0.07236 0.0262 0.03279 0.0
O2143 O 0.0419 1.0097 0.02343 0.0
H2144 H 0.96182 1.00536 0.99342 0.0
H2145 H 0.93715 0.02343 0.99869 0.0
H2146 H 0.97684 0.0734 0.03338 0.0
H2147 H 1.00119 0.05539 0.02811 0.0
H2148 H 0.14007 0.08912 0.0509 0.0
H2149 H 0.16629 0.07763 0.03837 0.0
H2150 H 0.12874 0.03173 0.99623 0.0
H2151 H 0.10274 0.0425 1.00986 0.0
La2152 La 0.30335 0.783 0.24806 0.0
La2153 La 0.29546 0.79805 0.2877 0.0
C2154 C 0.30703 0.77741 0.21214 0.0
C2155 C 0.31191 0.79089 0.198 0.0
C2156 C 0.32187 0.7853 0.18277 0.0
C2157 C 0.32707 0.79827 0.16954 0.0
C2158 C 0.32236 0.81704 0.17137 0.0
C2159 C 0.31246 0.8226 0.18679 0.0
C2160 C 0.30732 0.80966 0.20001 0.0
C2161 C 0.3257 0.77625 0.27672 0.0
C2162 C 0.31722 0.82928 0.26592 0.0
C2163 C 0.29192 0.80396 0.32364 0.0
C2164 C 0.29122 0.79165 0.33913 0.0
C2165 C 0.28337 0.7972 0.35606 0.0
C2166 C 0.28267 0.78561 0.37097 0.0
C2167 C 0.28984 0.76828 0.36914 0.0
C2168 C 0.29757 0.7627 0.352 0.0
C2169 C 0.29823 0.77429 0.3371 0.0
C2170 C 0.27322 0.80499 0.25907 0.0
C2171 C 0.28151 0.75192 0.26953 0.0
O2172 O 0.32018 0.778 0.22602 0.0
O2173 O 0.29119 0.77729 0.21888 0.0
O2174 O 0.31997 0.7642 0.26029 0.0
O2175 O 0.31964 0.79192 0.2763 0.0
O2176 O 0.31318 0.81536 0.25013 0.0
O2177 O 0.31319 0.82553 0.2833 0.0
O2178 O 0.27799 0.79866 0.3098 0.0
O2179 O 0.30774 0.80804 0.31664 0.0
O2180 O 0.2788 0.81684 0.27561 0.0
O2181 O 0.27915 0.78926 0.25953 0.0
O2182 O 0.28721 0.76533 0.28564 0.0
O2183 O 0.28421 0.75647 0.25208 0.0
H2184 H 0.32569 0.77095 0.18117 0.0
H2185 H 0.33488 0.79366 0.15798 0.0
H2186 H 0.30836 0.8368 0.18843 0.0
H2187 H 0.29971 0.81431 0.21175 0.0
H2188 H 0.27778 0.81051 0.35774 0.0
H2189 H 0.27639 0.79012 0.38387 0.0
H2190 H 0.3034 0.74957 0.35025 0.0
H2191 H 0.30434 0.76979 0.32407 0.0
La2192 La 0.57602 0.04972 0.52042 0.0
La2193 La 0.53416 0.04387 0.52168 0.0
C2194 C 0.60967 0.04842 0.52456 0.0
C2195 C 0.62195 0.03434 0.5268 0.0
C2196 C 0.63105 0.02804 0.51097 0.0
C2197 C 0.64433 0.01675 0.51337 0.0
C2198 C 0.64901 1.01158 0.53173 0.0
C2199 C 0.6396 0.0175 0.54748 0.0
C2200 C 0.62625 0.02876 0.54506 0.0
C2201 C 0.55667 0.05588 0.48955 0.0
C2202 C 0.54935 1.00568 0.51063 0.0
C2203 C 0.50052 0.04485 0.51618 0.0
C2204 C 0.48793 0.05879 0.515 0.0
C2205 C 0.48031 0.06586 0.53171 0.0
C2206 C 0.46656 0.07672 0.53021 0.0
C2207 C 0.45993 0.08068 0.51192 0.0
C2208 C 0.46792 0.07407 0.49527 0.0
C2209 C 0.4817 0.06323 0.49678 0.0
C2210 C 0.55312 0.03718 0.55257 0.0
C2211 C 0.56083 0.08788 0.53212 0.0
O2212 O 0.5999 0.04644 0.50751 0.0
O2213 O 0.60041 0.05282 0.53912 0.0
O2214 O 0.57332 0.06597 0.49573 0.0
O2215 O 0.55208 0.04252 0.49975 0.0
O2216 O 0.56619 0.01687 0.51672 0.0
O2217 O 0.53469 1.01353 0.50906 0.0
O2218 O 0.5093 0.04488 0.53336 0.0
O2219 O 0.51082 0.04271 0.50201 0.0
O2220 O 0.53628 0.02768 0.54636 0.0
O2221 O 0.55809 0.05061 0.54249 0.0
O2222 O 0.54397 0.07668 0.5263 0.0
O2223 O 0.57558 0.0801 0.53316 0.0
H2224 H 0.62829 0.03237 0.49681 0.0
H2225 H 0.65145 1.01273 0.50098 0.0
H2226 H 0.64268 1.0136 0.56177 0.0
H2227 H 0.61964 0.03347 0.55764 0.0
H2228 H 0.48453 0.06244 0.54592 0.0
H2229 H 0.46059 0.08131 0.5433 0.0
H2230 H 0.46335 0.07706 0.48099 0.0
H2231 H 0.48711 0.05784 0.48356 0.0
La2232 La 0.27994 0.29883 0.76981 0.0
La2233 La 0.32211 0.29544 0.77478 0.0
C2234 C 0.24526 0.28922 0.76782 0.0
C2235 C 0.23006 0.29216 0.77943 0.0
C2236 C 0.21432 0.29666 0.77027 0.0
C2237 C 0.19874 0.2969 0.78008 0.0
C2238 C 0.19855 0.29245 0.79922 0.0
C2239 C 0.21459 0.28866 0.80864 0.0
C2240 C 0.23021 0.28859 0.79888 0.0
C2241 C 0.30344 0.3348 0.77035 0.0
C2242 C 0.30251 0.30885 0.81225 0.0
C2243 C 0.35668 0.30541 0.77656 0.0
C2244 C 0.37243 0.30031 0.76717 0.0
C2245 C 0.38958 0.30389 0.77852 0.0
C2246 C 0.40544 0.30242 0.76962 0.0
C2247 C 0.4045 0.2974 0.74913 0.0
C2248 C 0.3871 0.29282 0.73787 0.0
C2249 C 0.37122 0.29427 0.74681 0.0
C2250 C 0.29864 0.25949 0.77416 0.0
C2251 C 0.29954 0.28578 0.73223 0.0
O2252 O 0.2541 0.30456 0.76073 0.0
O2253 O 0.25634 0.27869 0.77443 0.0
O2254 O 0.28554 0.33145 0.7685 0.0
O2255 O 0.30683 0.31781 0.77205 0.0
O2256 O 0.28611 0.3048 0.80165 0.0
O2257 O 0.31804 0.30774 0.80455 0.0
O2258 O 0.34817 0.29299 0.78721 0.0
O2259 O 0.34527 0.31279 0.76589 0.0
O2260 O 0.31651 0.26254 0.77519 0.0
O2261 O 0.29535 0.27663 0.77306 0.0
O2262 O 0.31574 0.28901 0.74303 0.0
O2263 O 0.28404 0.28763 0.73967 0.0
H2264 H 0.21383 0.29932 0.75524 0.0
H2265 H 0.18658 0.29973 0.77235 0.0
H2266 H 0.21497 0.28547 0.82348 0.0
H2267 H 0.24219 0.28515 0.80638 0.0
H2268 H 0.39083 0.30859 0.79424 0.0
H2269 H 0.41853 0.30565 0.77879 0.0
H2270 H 0.38585 0.28903 0.72206 0.0
H2271 H 0.35812 0.29147 0.73772 0.0
La2272 La 0.05274 0.06768 0.531 0.0
La2273 La 0.05335 0.02406 0.51394 0.0
C2274 C 0.05652 0.10503 0.53779 0.0
C2275 C 0.05995 0.12113 0.52606 0.0
C2276 C 0.0547 0.13908 0.5321 0.0
C2277 C 0.05765 0.15448 0.52097 0.0
C2278 C 0.06599 0.15221 0.5036 0.0
C2279 C 0.07119 0.13408 0.49759 0.0
C2280 C 0.06812 0.11864 0.50868 0.0
C2281 C 0.02598 0.03951 0.53927 0.0
C2282 C 0.03873 0.0505 0.48429 0.0
C2283 C 0.04406 0.98649 0.50523 0.0
C2284 C 0.03491 0.9702 0.51475 0.0
C2285 C 0.0357 0.95051 0.5076 0.0
C2286 C 0.02794 0.93492 0.51713 0.0
C2287 C 0.01905 0.93873 0.5339 0.0
C2288 C 0.018 0.95858 0.54076 0.0
C2289 C 0.02606 0.9742 0.53138 0.0
C2290 C 0.08403 0.04909 0.50812 0.0
C2291 C 0.06945 0.0421 0.55955 0.0
O2292 O 0.04048 0.09242 0.53331 0.0
O2293 O 0.07004 0.09599 0.54064 0.0
O2294 O 0.03293 0.05641 0.55072 0.0
O2295 O 0.0332 0.03971 0.52358 0.0
O2296 O 0.04328 0.0661 0.49902 0.0
O2297 O 0.0412 0.03248 0.48697 0.0
O2298 O 0.06035 0.99626 0.51381 0.0
O2299 O 0.03388 0.99849 0.49984 0.0
O2300 O 0.08005 0.02999 0.50184 0.0
O2301 O 0.07066 0.05278 0.51656 0.0
O2302 O 0.06126 0.02595 0.54629 0.0
O2303 O 0.0698 0.06042 0.55548 0.0
H2304 H 0.04822 0.14114 0.54539 0.0
H2305 H 0.05315 0.16807 0.52584 0.0
H2306 H 0.07781 0.13189 0.48443 0.0
H2307 H 0.07215 0.10478 0.50373 0.0
H2308 H 0.04268 0.94724 0.49488 0.0
H2309 H 0.02945 0.91997 0.51166 0.0
H2310 H 1.01111 0.9621 0.55347 0.0
H2311 H 0.02564 0.98941 0.53728 0.0
La2312 La 0.31854 0.80996 0.77019 0.0
La2313 La 0.28486 0.78267 0.7781 0.0
C2314 C 0.35109 0.83005 0.77293 0.0
C2315 C 0.36913 0.82484 0.77481 0.0
C2316 C 0.37171 0.8065 0.76522 0.0
C2317 C 0.3881 0.80047 0.76957 0.0
C2318 C 0.40194 0.81257 0.78375 0.0
C2319 C 0.39958 0.83124 0.79272 0.0
C2320 C 0.38331 0.83734 0.78824 0.0
C2321 C 0.29642 0.79092 0.73888 0.0
C2322 C 0.31992 0.76333 0.77455 0.0
C2323 C 0.25258 0.76196 0.77609 0.0
C2324 C 0.23404 0.76575 0.77685 0.0
C2325 C 0.22099 0.75298 0.78529 0.0
C2326 C 0.20282 0.75524 0.78459 0.0
C2327 C 0.19745 0.7703 0.77538 0.0
C2328 C 0.21082 0.78366 0.76776 0.0
C2329 C 0.22896 0.7814 0.76849 0.0
C2330 C 0.30691 0.80216 0.80948 0.0
C2331 C 0.28344 0.82931 0.77343 0.0
O2332 O 0.34064 0.82327 0.75621 0.0
O2333 O 0.34191 0.82768 0.78797 0.0
O2334 O 0.30604 0.80912 0.74041 0.0
O2335 O 0.30031 0.78388 0.75404 0.0
O2336 O 0.32915 0.7822 0.7746 0.0
O2337 O 0.30166 0.75964 0.77427 0.0
O2338 O 0.26381 0.76758 0.79237 0.0
O2339 O 0.26066 0.76646 0.76078 0.0
O2340 O 0.29743 0.78393 0.80803 0.0
O2341 O 0.30295 0.80883 0.79415 0.0
O2342 O 0.2743 0.81057 0.77418 0.0
O2343 O 0.30165 0.83298 0.77307 0.0
H2344 H 0.36082 0.79649 0.75496 0.0
H2345 H 0.38959 0.78596 0.76257 0.0
H2346 H 0.41017 0.84091 0.80357 0.0
H2347 H 0.3815 0.85147 0.79585 0.0
H2348 H 0.22473 0.74091 0.79195 0.0
H2349 H 0.19288 0.74487 0.79081 0.0
H2350 H 0.20711 0.79525 0.76033 0.0
H2351 H 0.23883 0.79144 0.76187 0.0
La2352 La 0.56903 0.05765 0.03401 0.0
La2353 La 0.55758 0.04375 0.98997 0.0
C2354 C 0.57735 0.0757 0.06878 0.0
C2355 C 0.57227 0.07047 0.08762 0.0
C2356 C 0.58582 0.07452 0.10381 0.0
C2357 C 0.58167 0.06775 0.12128 0.0
C2358 C 0.56387 0.05683 0.12279 0.0
C2359 C 0.55026 0.05317 0.10658 0.0
C2360 C 0.55445 0.05979 0.08912 0.0
C2361 C 0.55969 0.01825 0.02314 0.0
C2362 C 0.52777 0.05507 0.01559 0.0
C2363 C 0.54976 0.02644 0.95501 0.0
C2364 C 0.53885 0.02893 0.93718 0.0
C2365 C 0.52401 1.01342 0.9281 0.0
C2366 C 0.51506 1.01436 0.90984 0.0
C2367 C 0.52099 0.0307 0.9002 0.0
C2368 C 0.53499 0.04685 0.91006 0.0
C2369 C 0.54378 0.046 0.92836 0.0
C2370 C 0.56522 0.08302 1.00191 0.0
C2371 C 0.59764 0.04595 1.0085 0.0
O2372 O 0.5872 0.06444 0.05999 0.0
O2373 O 0.56423 0.07881 0.05667 0.0
O2374 O 0.57045 0.02727 0.03881 0.0
O2375 O 0.55306 0.03116 0.01586 0.0
O2376 O 0.5407 0.06162 0.03079 0.0
O2377 O 0.53084 0.04568 0.99864 0.0
O2378 O 0.54048 0.02088 0.9692 0.0
O2379 O 0.56484 0.04021 0.96146 0.0
O2380 O 0.55398 0.07372 0.98659 0.0
O2381 O 0.57312 0.07049 1.00832 0.0
O2382 O 0.58386 0.03534 0.99562 0.0
O2383 O 0.59514 0.05997 0.02235 0.0
H2384 H 0.59972 0.0825 0.10278 0.0
H2385 H 0.59249 0.07069 0.13343 0.0
H2386 H 0.53629 0.04522 0.10736 0.0
H2387 H 0.54382 0.05629 0.07671 0.0
H2388 H 0.51982 1.00019 0.93474 0.0
H2389 H 0.50412 1.00181 0.90286 0.0
H2390 H 0.54018 0.0596 0.90311 0.0
H2391 H 0.55504 0.05833 0.9351 0.0
La2392 La 0.31672 0.31453 0.27958 0.0
La2393 La 0.29497 0.27451 0.26263 0.0
C2394 C 0.32825 0.35184 0.28873 0.0
C2395 C 0.31914 0.36736 0.29713 0.0
C2396 C 0.3061 0.36315 0.31025 0.0
C2397 C 0.2952 0.37666 0.31558 0.0
C2398 C 0.297 0.39449 0.3077 0.0
C2399 C 0.31072 0.39905 0.29531 0.0
C2400 C 0.3217 0.38558 0.29009 0.0
C2401 C 0.31461 0.28849 0.30423 0.0
C2402 C 0.27321 0.30414 0.28087 0.0
C2403 C 0.28251 0.23732 0.25345 0.0
C2404 C 0.2903 0.22112 0.24414 0.0
C2405 C 0.3028 0.22461 0.23035 0.0
C2406 C 0.31254 0.21019 0.22411 0.0
C2407 C 0.31008 0.19219 0.23175 0.0
C2408 C 0.29679 0.18839 0.24475 0.0
C2409 C 0.28698 0.20274 0.25086 0.0
C2410 C 0.29691 0.30072 0.23816 0.0
C2411 C 0.33856 0.28468 0.26159 0.0
O2412 O 0.33158 0.33914 0.30006 0.0
O2413 O 0.32116 0.34288 0.27102 0.0
O2414 O 0.32909 0.30224 0.30338 0.0
O2415 O 0.30179 0.29017 0.29198 0.0
O2416 O 0.28823 0.31824 0.28099 0.0
O2417 O 0.27338 0.28504 0.27654 0.0
O2418 O 0.27903 0.25027 0.24248 0.0
O2419 O 0.29082 0.24603 0.27081 0.0
O2420 O 0.28246 0.28696 0.23904 0.0
O2421 O 0.30981 0.2989 0.25023 0.0
O2422 O 0.32329 0.27072 0.26081 0.0
O2423 O 0.33877 0.30385 0.26649 0.0
H2424 H 0.30376 0.34905 0.31573 0.0
H2425 H 0.28493 0.37281 0.32533 0.0
H2426 H 0.31231 0.41249 0.28873 0.0
H2427 H 0.33154 0.38895 0.27978 0.0
H2428 H 0.30566 0.2388 0.22507 0.0
H2429 H 0.32251 0.21349 0.21392 0.0
H2430 H 0.29474 0.17485 0.2512 0.0
H2431 H 0.2775 0.19991 0.26164 0.0
La2432 La 0.55233 0.56853 0.03162 0.0
La2433 La 0.54934 0.52321 0.01558 0.0
C2434 C 0.5607 0.60619 0.03768 0.0
C2435 C 0.56767 0.62157 0.02602 0.0
C2436 C 0.57127 0.6418 0.0344 0.0
C2437 C 0.57877 0.65656 0.02376 0.0
C2438 C 0.58296 0.65129 1.00459 0.0
C2439 C 0.57918 0.63089 0.99623 0.0
C2440 C 0.57149 0.61618 1.00682 0.0
C2441 C 0.52287 0.54313 0.03825 0.0
C2442 C 0.53717 0.55075 0.98539 0.0
C2443 C 0.53636 0.48607 1.00876 0.0
C2444 C 0.54076 0.46832 0.01557 0.0
C2445 C 0.53327 0.44935 1.0045 0.0
C2446 C 0.53505 0.43213 1.01213 0.0
C2447 C 0.54421 0.43364 0.03105 0.0
C2448 C 0.55255 0.45278 0.04164 0.0
C2449 C 0.5509 0.46996 0.03391 0.0
C2450 C 0.58249 0.54542 0.01289 0.0
C2451 C 0.56733 0.54154 0.06076 0.0
O2452 O 0.54387 0.59565 0.03202 0.0
O2453 O 0.57215 0.59502 0.04195 0.0
O2454 O 0.53045 0.55976 0.04994 0.0
O2455 O 0.53108 0.54219 0.02317 0.0
O2456 O 0.5439 0.56671 0.99942 0.0
O2457 O 0.53702 0.53222 0.98889 0.0
O2458 O 0.54784 0.49537 0.998 0.0
O2459 O 0.53112 0.49846 0.02209 0.0
O2460 O 0.57797 0.52606 1.00786 0.0
O2461 O 0.56862 0.55045 0.01905 0.0
O2462 O 0.5599 0.52536 0.04723 0.0
O2463 O 0.56711 0.55994 0.05713 0.0
H2464 H 0.56834 0.64618 0.04921 0.0
H2465 H 0.58112 0.67211 0.03052 0.0
H2466 H 0.5824 0.62624 0.98162 0.0
H2467 H 0.56878 0.6006 1.0001 0.0
H2468 H 0.52547 0.44784 0.99027 0.0
H2469 H 0.5288 0.41765 1.00341 0.0
H2470 H 0.55954 0.45457 0.05631 0.0
H2471 H 0.55683 0.48451 0.04265 0.0
La2472 La 0.81906 0.31028 0.267 0.0
La2473 La 0.78732 0.28386 0.2788 0.0
C2474 C 0.85068 0.33098 0.26527 0.0
C2475 C 0.8684 0.32663 0.26099 0.0
C2476 C 0.8696 0.30722 0.25296 0.0
C2477 C 0.8868 0.30286 0.25071 0.0
C2478 C 0.903 0.31788 0.25639 0.0
C2479 C 0.90159 0.33748 0.26368 0.0
C2480 C 0.88441 0.34179 0.26599 0.0
C2481 C 0.79518 0.28915 0.23773 0.0
C2482 C 0.82203 0.26441 0.2728 0.0
C2483 C 0.75587 0.26284 0.2806 0.0
C2484 C 0.73733 0.26599 0.28309 0.0
C2485 C 0.72611 0.25386 0.29388 0.0
C2486 C 0.70783 0.25525 0.2949 0.0
C2487 C 0.70047 0.26873 0.28501 0.0
C2488 C 0.71209 0.28159 0.27503 0.0
C2489 C 0.73038 0.28026 0.27412 0.0
C2490 C 0.81124 0.30513 0.30813 0.0
C2491 C 0.78425 0.32956 0.27284 0.0
O2492 O 0.83752 0.32612 0.25061 0.0
O2493 O 0.84498 0.32571 0.28148 0.0
O2494 O 0.80421 0.30731 0.23785 0.0
O2495 O 0.80052 0.28328 0.25308 0.0
O2496 O 0.83069 0.28296 0.27085 0.0
O2497 O 0.8041 0.26087 0.27463 0.0
O2498 O 0.76834 0.26955 0.29579 0.0
O2499 O 0.7622 0.26658 0.26416 0.0
O2500 O 0.80248 0.28679 0.30775 0.0
O2501 O 0.80583 0.31093 0.29276 0.0
O2502 O 0.77557 0.31092 0.2745 0.0
O2503 O 0.80228 0.33326 0.27146 0.0
H2504 H 0.8573 0.29537 0.24886 0.0
H2505 H 0.88745 0.28767 0.24493 0.0
H2506 H 0.91381 0.34931 0.26851 0.0
H2507 H 0.88367 0.35682 0.27225 0.0
H2508 H 0.73133 0.2429 0.30106 0.0
H2509 H 0.69934 0.24537 0.30296 0.0
H2510 H 0.70685 0.29198 0.26705 0.0
H2511 H 0.73885 0.28988 0.26581 0.0
La2512 La 0.0595 0.55038 0.54661 0.0
La2513 La 0.03634 0.52576 0.51006 0.0
C2514 C 0.07269 0.57394 0.5781 0.0
C2515 C 0.07313 0.57197 0.59881 0.0
C2516 C 0.08338 0.58755 0.61315 0.0
C2517 C 0.0833 0.58595 0.63298 0.0
C2518 C 0.07292 0.56872 0.6387 0.0
C2519 C 0.06306 0.55294 0.62414 0.0
C2520 C 0.0632 0.55454 0.60436 0.0
C2521 C 0.06589 0.51437 0.53645 0.0
C2522 C 0.02042 0.52259 0.5493 0.0
C2523 C 0.02324 0.50349 0.47782 0.0
C2524 C 0.02365 0.50712 0.45758 0.0
C2525 C 0.01313 0.49308 0.44207 0.0
C2526 C 0.01394 0.49654 0.42275 0.0
C2527 C 0.02535 0.51409 0.41874 0.0
C2528 C 0.03557 0.52826 0.43451 0.0
C2529 C 0.03465 0.52485 0.45372 0.0
C2530 C 0.03062 0.56216 0.52008 0.0
C2531 C 0.07611 0.55185 0.50771 0.0
O2532 O 0.08209 0.56313 0.56792 0.0
O2533 O 0.05637 0.57282 0.56894 0.0
O2534 O 0.0782 0.52976 0.54533 0.0
O2535 O 0.05061 0.51912 0.53517 0.0
O2536 O 0.03269 0.5393 0.55686 0.0
O2537 O 0.02169 0.51221 0.53213 0.0
O2538 O 0.01382 0.51392 0.48839 0.0
O2539 O 0.03923 0.50369 0.4872 0.0
O2540 O 0.018 0.54686 0.51169 0.0
O2541 O 0.04572 0.55706 0.52126 0.0
O2542 O 0.06352 0.53539 0.50033 0.0
O2543 O 0.07453 0.56304 0.5243 0.0
H2544 H 0.09124 0.60103 0.60902 0.0
H2545 H 0.09118 0.59827 0.64384 0.0
H2546 H 0.05465 0.53962 0.628 0.0
H2547 H 0.05528 0.54233 0.59339 0.0
H2548 H 1.00444 0.4794 0.44488 0.0
H2549 H 1.00576 0.48542 0.41098 0.0
H2550 H 0.0448 0.54174 0.43202 0.0
H2551 H 0.04278 0.53592 0.46558 0.0
La2552 La 0.78005 0.79931 0.27403 0.0
La2553 La 0.82232 0.79619 0.2781 0.0
C2554 C 0.74546 0.78969 0.27315 0.0
C2555 C 0.73029 0.79367 0.28438 0.0
C2556 C 0.71396 0.79595 0.27432 0.0
C2557 C 0.69832 0.79644 0.28399 0.0
C2558 C 0.69866 0.79444 0.30389 0.0
C2559 C 0.71529 0.79306 0.31416 0.0
C2560 C 0.73097 0.79276 0.30454 0.0
C2561 C 0.80336 0.8354 0.27438 0.0
C2562 C 0.8032 0.80919 0.31618 0.0
C2563 C 0.85685 0.80672 0.27929 0.0
C2564 C 0.87272 0.80188 0.27002 0.0
C2565 C 0.89049 0.81151 0.27891 0.0
C2566 C 0.90588 0.80963 0.26932 0.0
C2567 C 0.90385 0.798 0.25056 0.0
C2568 C 0.88597 0.78776 0.24198 0.0
C2569 C 0.87053 0.78973 0.2516 0.0
C2570 C 0.79918 0.75999 0.2772 0.0
C2571 C 0.79882 0.78609 0.236 0.0
O2572 O 0.75387 0.80375 0.26412 0.0
O2573 O 0.75692 0.78044 0.28128 0.0
O2574 O 0.78546 0.83199 0.27278 0.0
O2575 O 0.80681 0.81844 0.27599 0.0
O2576 O 0.78677 0.80536 0.30572 0.0
O2577 O 0.81865 0.80801 0.3083 0.0
O2578 O 0.84868 0.79443 0.29028 0.0
O2579 O 0.8451 0.81328 0.26826 0.0
O2580 O 0.81706 0.76324 0.27803 0.0
O2581 O 0.79567 0.7771 0.27649 0.0
O2582 O 0.81535 0.7901 0.24633 0.0
O2583 O 0.78345 0.78727 0.24398 0.0
H2584 H 0.71306 0.79652 0.25876 0.0
H2585 H 0.68571 0.7974 0.27563 0.0
H2586 H 0.71608 0.7918 0.32957 0.0
H2587 H 0.74339 0.79106 0.31273 0.0
H2588 H 0.89244 0.82115 0.29302 0.0
H2589 H 0.9193 0.81802 0.27632 0.0
H2590 H 0.88386 0.77845 0.2277 0.0
H2591 H 0.85688 0.78226 0.24444 0.0
La2592 La 0.8029 0.28507 0.75082 0.0
La2593 La 0.79733 0.29833 0.79229 0.0
C2594 C 0.80217 0.27932 0.71414 0.0
C2595 C 0.7992 0.29136 0.69896 0.0
C2596 C 0.79968 0.28377 0.67927 0.0
C2597 C 0.79584 0.29479 0.66466 0.0
C2598 C 0.79131 0.31349 0.66956 0.0
C2599 C 0.79098 0.32102 0.68942 0.0
C2600 C 0.79501 0.3101 0.70397 0.0
C2601 C 0.82631 0.27625 0.7773 0.0
C2602 C 0.81793 0.33064 0.76912 0.0
C2603 C 0.79876 0.31036 0.82842 0.0
C2604 C 0.78823 0.30288 0.84372 0.0
C2605 C 0.7882 0.31552 0.86134 0.0
C2606 C 0.77957 0.30787 0.87662 0.0
C2607 C 0.77101 0.2874 0.87452 0.0
C2608 C 0.77039 0.27506 0.85639 0.0
C2609 C 0.77881 0.28276 0.84111 0.0
C2610 C 0.76848 0.29521 0.76611 0.0
C2611 C 0.78137 0.25408 0.7739 0.0
O2612 O 0.81739 0.28598 0.72623 0.0
O2613 O 0.7878 0.27377 0.72329 0.0
O2614 O 0.82012 0.26534 0.76038 0.0
O2615 O 0.82027 0.29199 0.77833 0.0
O2616 O 0.81448 0.31701 0.7531 0.0
O2617 O 0.81319 0.32641 0.78619 0.0
O2618 O 0.78967 0.31729 0.81502 0.0
O2619 O 0.80894 0.29864 0.82084 0.0
O2620 O 0.76743 0.29056 0.78345 0.0
O2621 O 0.78513 0.30186 0.76426 0.0
O2622 O 0.78963 0.26597 0.7902 0.0
O2623 O 0.78235 0.25996 0.75666 0.0
H2624 H 0.80291 0.2693 0.67518 0.0
H2625 H 0.79657 0.28871 0.64956 0.0
H2626 H 0.78732 0.33522 0.69375 0.0
H2627 H 0.79463 0.31617 0.71913 0.0
H2628 H 0.79525 0.33116 0.86347 0.0
H2629 H 0.78002 0.31789 0.89022 0.0
H2630 H 0.76423 0.25918 0.85423 0.0
H2631 H 0.77856 0.2728 0.82751 0.0
La2632 La 0.81133 0.8202 0.78657 0.0
La2633 La 0.79036 0.776 0.77138 0.0
C2634 C 0.82208 0.85764 0.79344 0.0
C2635 C 0.81262 0.87379 0.79087 0.0
C2636 C 0.8169 0.89148 0.80464 0.0
C2637 C 0.80627 0.9058 0.80383 0.0
C2638 C 0.7913 0.9026 0.78917 0.0
C2639 C 0.7874 0.8851 0.7751 0.0
C2640 C 0.7979 0.87078 0.77601 0.0
C2641 C 0.8086 0.79557 0.8125 0.0
C2642 C 0.76724 0.80831 0.77914 0.0
C2643 C 0.77865 0.73922 0.77019 0.0
C2644 C 0.78576 0.72286 0.76013 0.0
C2645 C 0.79769 0.72686 0.74592 0.0
C2646 C 0.80833 0.71339 0.73977 0.0
C2647 C 0.80723 0.69573 0.74777 0.0
C2648 C 0.79422 0.69101 0.76085 0.0
C2649 C 0.78361 0.70459 0.7671 0.0
C2650 C 0.79811 0.79562 0.74153 0.0
C2651 C 0.83407 0.78901 0.77283 0.0
O2652 O 0.816 0.84691 0.80659 0.0
O2653 O 0.82457 0.84655 0.77735 0.0
O2654 O 0.82278 0.80994 0.81225 0.0
O2655 O 0.79631 0.79585 0.79894 0.0
O2656 O 0.78261 0.82243 0.78113 0.0
O2657 O 0.76712 0.789 0.77721 0.0
O2658 O 0.771 0.74965 0.75885 0.0
O2659 O 0.79036 0.75065 0.78456 0.0
O2660 O 0.78994 0.77687 0.7395 0.0
O2661 O 0.80132 0.80176 0.75964 0.0
O2662 O 0.81937 0.77449 0.77293 0.0
O2663 O 0.8337 0.80823 0.77578 0.0
H2664 H 0.82809 0.89391 0.81635 0.0
H2665 H 0.80959 0.91921 0.8148 0.0
H2666 H 0.77573 0.88208 0.76386 0.0
H2667 H 0.79407 0.85704 0.76551 0.0
H2668 H 0.79973 0.74101 0.74055 0.0
H2669 H 0.81819 0.71731 0.72961 0.0
H2670 H 0.79325 0.67757 0.76738 0.0
H2671 H 0.77466 0.70143 0.77828 0.0
La2672 La 0.53563 0.53427 0.51318 0.0
La2673 La 0.57229 0.55901 0.53444 0.0
C2674 C 0.50197 0.51757 0.5076 0.0
C2675 C 0.48662 0.52379 0.51652 0.0
C2676 C 0.46838 0.51392 0.50967 0.0
C2677 C 0.45388 0.52122 0.51722 0.0
C2678 C 0.45753 0.53848 0.53167 0.0
C2679 C 0.47589 0.5478 0.53896 0.0
C2680 C 0.4903 0.54059 0.53133 0.0
C2681 C 0.56079 0.535 0.48675 0.0
C2682 C 0.54512 0.58098 0.51385 0.0
C2683 C 0.60557 0.57736 0.54219 0.0
C2684 C 0.62294 0.5752 0.53489 0.0
C2685 C 0.63888 0.59023 0.54129 0.0
C2686 C 0.6558 0.58777 0.53546 0.0
C2687 C 0.65696 0.57023 0.52311 0.0
C2688 C 0.64078 0.5555 0.51619 0.0
C2689 C 0.62389 0.55794 0.5221 0.0
C2690 C 0.54665 0.5585 0.56056 0.0
C2691 C 0.56344 0.51189 0.53216 0.0
O2692 O 0.50995 0.52967 0.49643 0.0
O2693 O 0.51394 0.5125 0.51968 0.0
O2694 O 0.54363 0.52563 0.48379 0.0
O2695 O 0.56332 0.54315 0.50486 0.0
O2696 O 0.53187 0.56475 0.51282 0.0
O2697 O 0.56235 0.58138 0.52018 0.0
O2698 O 0.59782 0.56305 0.55125 0.0
O2699 O 0.59368 0.58231 0.52995 0.0
O2700 O 0.5637 0.56807 0.56361 0.0
O2701 O 0.54461 0.55027 0.54254 0.0
O2702 O 0.5764 0.52859 0.53445 0.0
O2703 O 0.54623 0.51112 0.52536 0.0
H2704 H 0.46538 0.50098 0.49815 0.0
H2705 H 0.43987 0.51387 0.51118 0.0
H2706 H 0.47914 0.56094 0.55026 0.0
H2707 H 0.50435 0.54845 0.53666 0.0
H2708 H 0.63831 0.60368 0.55111 0.0
H2709 H 0.66801 0.59944 0.54087 0.0
H2710 H 0.64127 0.54171 0.50687 0.0
H2711 H 0.61165 0.54616 0.5171 0.0
La2712 La 0.07004 0.54814 0.02027 0.0
La2713 La 0.02887 0.54085 0.02523 0.0
C2714 C 0.104 0.54846 0.02258 0.0
C2715 C 0.11713 0.53513 0.02323 0.0
C2716 C 0.12814 0.53324 1.00798 0.0
C2717 C 0.14217 0.52275 1.00919 0.0
C2718 C 0.14567 0.51398 0.0258 0.0
C2719 C 0.13426 0.51534 0.04084 0.0
C2720 C 0.12016 0.52583 0.03959 0.0
C2721 C 0.04845 0.55493 0.99136 0.0
C2722 C 0.04439 0.50359 1.01083 0.0
C2723 C 0.995 0.54082 0.02402 0.0
C2724 C 0.98215 0.55406 0.02124 0.0
C2725 C 0.98527 0.5736 0.03179 0.0
C2726 C 0.97204 0.5851 0.02985 0.0
C2727 C 0.95548 0.57733 0.01727 0.0
C2728 C 0.9527 0.55796 1.00638 0.0
C2729 C 0.96587 0.54648 1.00838 0.0
C2730 C 0.05076 0.53427 0.05402 0.0
C2731 C 0.05426 0.58538 0.03357 0.0
O2732 O 0.09359 0.54687 1.006 0.0
O2733 O 0.09511 0.5514 0.03782 0.0
O2734 O 0.06535 0.56484 0.99644 0.0
O2735 O 0.0448 0.54115 1.00137 0.0
O2736 O 0.06123 0.5152 0.01549 0.0
O2737 O 0.02938 0.51086 1.0115 0.0
O2738 O 1.0064 0.54506 0.04025 0.0
O2739 O 1.00283 0.53503 1.00874 0.0
O2740 O 0.03394 0.52413 0.04899 0.0
O2741 O 0.0541 0.54809 0.04409 0.0
O2742 O 0.03752 0.57371 0.02832 0.0
O2743 O 0.06927 0.57807 0.03395 0.0
H2744 H 0.1262 0.54035 0.99526 0.0
H2745 H 0.15042 0.52171 0.99716 0.0
H2746 H 0.13663 0.50894 0.05392 0.0
H2747 H 0.11202 0.5271 0.0517 0.0
H2748 H 0.99776 0.57987 0.04175 0.0
H2749 H 0.97475 0.60006 0.03825 0.0
H2750 H 0.94006 0.55137 0.99675 0.0
H2751 H 0.96314 0.53144 1.00015 0.0
H2752 H 0.05069 0.19995 0.98376 0.0
H2753 H 1.01098 0.08588 0.99578 0.0
H2754 H 0.99882 0.16412 0.95374 0.0
H2755 H 0.06667 0.11834 0.01703 0.0
H2756 H 1.00503 0.11552 0.98333 0.0
H2757 H 0.05552 0.17132 0.99875 0.0
C2758 C 0.0403 0.18609 0.98023 0.0
C2759 C 0.02436 0.18455 0.96725 0.0
C2760 C 0.01853 0.11618 0.99078 0.0
C2761 C 0.02975 0.15161 0.98476 0.0
C2762 C 0.02195 0.09925 0.99797 0.0
C2763 C 0.03942 0.09948 1.00743 0.0
C2764 C 0.03262 0.13361 0.9931 0.0
C2765 C 0.05302 0.11735 1.0098 0.0
C2766 C 0.04305 0.16974 0.98892 0.0
C2767 C 1.01125 0.16621 0.96375 0.0
N2768 N 0.04934 0.13363 1.00266 0.0
N2769 N 0.01426 0.15051 0.97238 0.0
H2770 H 0.17804 0.78649 0.17143 0.0
H2771 H 0.25821 0.83745 0.25921 0.0
H2772 H 0.18019 0.84261 0.2088 0.0
H2773 H 0.25304 0.77779 0.22775 0.0
H2774 H 0.23126 0.84068 0.23855 0.0
H2775 H 0.20665 0.78399 0.1898 0.0
C2776 C 0.18444 0.79828 0.18352 0.0
C2777 C 0.17648 0.81476 0.18858 0.0
C2778 C 0.236 0.82688 0.23606 0.0
C2779 C 0.20958 0.81207 0.20954 0.0
C2780 C 0.25144 0.82504 0.24784 0.0
C2781 C 0.2578 0.80726 0.24529 0.0
C2782 C 0.22675 0.81084 0.2215 0.0
C2783 C 0.24855 0.79173 0.23024 0.0
C2784 C 0.20088 0.79687 0.19394 0.0
C2785 C 0.18578 0.82974 0.20414 0.0
N2786 N 0.23343 0.79384 0.21896 0.0
N2787 N 0.20174 0.82799 0.21404 0.0
H2788 H 0.56304 0.88641 0.46704 0.0
H2789 H 0.51696 0.97729 0.50342 0.0
H2790 H 0.50607 0.87872 0.47736 0.0
H2791 H 0.57582 0.98378 0.50509 0.0
H2792 H 0.51276 0.94128 0.49316 0.0
H2793 H 0.56808 0.92213 0.48024 0.0
C2794 C 0.5516 0.89222 0.47213 0.0
C2795 C 0.53409 0.87953 0.47104 0.0
C2796 C 0.52661 0.95054 0.49585 0.0
C2797 C 0.53976 0.92045 0.48612 0.0
C2798 C 0.52903 0.97117 0.50166 0.0
C2799 C 0.54678 0.98367 0.50505 0.0
C2800 C 0.54202 0.94225 0.4932 0.0
C2801 C 0.56188 0.97476 0.50263 0.0
C2802 C 0.55451 0.9126 0.47974 0.0
C2803 C 0.51984 0.88787 0.47807 0.0
N2804 N 0.55914 0.95463 0.49672 0.0
N2805 N 0.52295 0.9078 0.48515 0.0
H2806 H 0.51351 0.33467 0.71437 0.0
H2807 H 0.41079 0.272 0.71732 0.0
H2808 H 0.48739 0.28178 0.67264 0.0
H2809 H 0.43739 0.32495 0.75878 0.0
H2810 H 0.43883 0.27482 0.70108 0.0
H2811 H 0.48585 0.3309 0.73113 0.0
C2812 C 0.50194 0.3223 0.70867 0.0
C2813 C 0.50282 0.30856 0.69202 0.0
C2814 C 0.43854 0.28577 0.71379 0.0
C2815 C 0.47105 0.30402 0.71129 0.0
C2816 C 0.4225 0.28421 0.72303 0.0
C2817 C 0.42168 0.29822 0.73951 0.0
C2818 C 0.45389 0.3015 0.721 0.0
C2819 C 0.43741 0.31359 0.74634 0.0
C2820 C 0.48616 0.32008 0.71832 0.0
C2821 C 0.48746 0.29262 0.68554 0.0
N2822 N 0.45279 0.31484 0.73704 0.0
N2823 N 0.47222 0.29083 0.69514 0.0
H2824 H 1.00435 0.82434 0.56967 0.0
H2825 H 0.0191 0.94032 0.57375 0.0
H2826 H 0.99268 0.86194 0.6199 0.0
H2827 H 1.00291 0.89931 0.51897 0.0
H2828 H 1.01047 0.91232 0.59133 0.0
H2829 H 1.00533 0.85191 0.55094 0.0
C2830 C 1.00183 0.8384 0.57664 0.0
C2831 C 0.99848 0.84103 0.59627 0.0
C2832 C 1.0086 0.90955 0.57545 0.0
C2833 C 0.99986 0.87257 0.57519 0.0
C2834 C 0.01344 0.92554 0.56535 0.0
C2835 C 1.01196 0.92223 0.54476 0.0
C2836 C 1.00258 0.89005 0.56494 0.0
C2837 C 1.00481 0.90258 0.53482 0.0
C2838 C 1.0023 0.85405 0.56597 0.0
C2839 C 0.99525 0.85942 0.60473 0.0
N2840 N 1.00065 0.8872 0.545 0.0
N2841 N 0.9963 0.87467 0.59421 0.0
H2842 H 0.49208 0.79095 0.85555 0.0
H2843 H 0.42545 0.79664 0.76124 0.0
H2844 H 0.50924 0.78856 0.79757 0.0
H2845 H 0.41527 0.81177 0.82113 0.0
H2846 H 0.45362 0.78674 0.77312 0.0
H2847 H 0.46107 0.79071 0.84173 0.0
C2848 C 0.48927 0.7899 0.83983 0.0
C2849 C 0.50339 0.78996 0.82773 0.0
C2850 C 0.44511 0.79208 0.78361 0.0
C2851 C 0.46787 0.79032 0.81187 0.0
C2852 C 0.42909 0.79769 0.77685 0.0
C2853 C 0.4183 0.80532 0.79028 0.0
C2854 C 0.45011 0.79393 0.80388 0.0
C2855 C 0.42347 0.80634 0.81034 0.0
C2856 C 0.47155 0.79001 0.83197 0.0
C2857 C 0.49886 0.78893 0.80749 0.0
N2858 N 0.43904 0.8008 0.81652 0.0
N2859 N 0.48151 0.78938 0.80019 0.0
H2860 H 0.50569 0.15873 0.06514 0.0
H2861 H 0.58649 0.1055 0.03476 0.0
H2862 H 0.55971 0.17349 0.09826 0.0
H2863 H 0.53588 0.10015 0.99751 0.0
H2864 H 0.57751 0.13081 0.05819 0.0
H2865 H 0.51669 0.13684 0.04043 0.0
C2866 C 0.51989 0.15743 0.0672 0.0
C2867 C 0.53178 0.16799 0.08383 0.0
C2868 C 0.56849 0.12427 0.04476 0.0
C2869 C 0.54447 0.14279 0.05558 0.0
C2870 C 0.57366 0.10993 0.03139 0.0
C2871 C 0.56182 0.10065 0.01435 0.0
C2872 C 0.55135 0.1292 0.04099 0.0
C2873 C 0.54538 0.1069 1.01054 0.0
C2874 C 0.52617 0.1449 0.05307 0.0
C2875 C 0.54997 0.16541 0.08584 0.0
N2876 N 0.54053 0.12059 0.02388 0.0
N2877 N 0.55576 0.15305 0.07189 0.0
H2878 H 0.18509 0.3588 0.32157 0.0
H2879 H 0.24236 0.27857 0.28744 0.0
H2880 H 0.17962 0.3015 0.341 0.0
H2881 H 0.26618 0.34168 0.2909 0.0
H2882 H 0.21612 0.2869 0.30211 0.0
H2883 H 0.21278 0.35337 0.30676 0.0
C2884 C 0.18976 0.3452 0.32286 0.0
C2885 C 0.17981 0.33037 0.33218 0.0
C2886 C 0.22708 0.29896 0.29969 0.0
C2887 C 0.21099 0.32403 0.31508 0.0
C2888 C 0.24205 0.29423 0.29117 0.0
C2889 C 0.25661 0.30947 0.28811 0.0
C2890 C 0.22647 0.31909 0.30509 0.0
C2891 C 0.25531 0.32948 0.29319 0.0
C2892 C 0.20547 0.34211 0.31436 0.0
C2893 C 0.18647 0.31305 0.33343 0.0
N2894 N 0.24043 0.33377 0.3015 0.0
N2895 N 0.20149 0.31028 0.32481 0.0
H2896 H 0.95929 0.06073 0.14363 0.0
H2897 H 0.05641 0.06567 0.09881 0.0
H2898 H 1.01008 0.06027 0.17769 0.0
H2899 H 1.00533 0.04666 0.0606 0.0
H2900 H 0.03927 0.06623 0.12716 0.0
H2901 H 0.97488 0.05831 0.11366 0.0
C2902 C 0.97371 0.06022 0.14504 0.0
C2903 C 0.98307 0.06073 0.16387 0.0
C2904 C 0.03162 0.0619 0.11267 0.0
C2905 C 1.00147 0.05802 0.12861 0.0
C2906 C 0.04151 0.06156 0.09616 0.0
C2907 C 0.03267 0.05612 0.07666 0.0
C2908 C 0.01223 0.05714 0.1104 0.0
C2909 C 0.01311 0.05101 0.07497 0.0
C2910 C 0.98264 0.05869 0.12766 0.0
C2911 C 1.00185 0.05976 0.16395 0.0
N2912 N 1.00371 0.05183 0.0914 0.0
N2913 N 1.01023 0.05865 0.14698 0.0
H2914 H 0.29412 0.7292 0.48195 0.0
H2915 H 0.28197 0.72739 0.36606 0.0
H2916 H 0.28453 0.6751 0.43938 0.0
H2917 H 0.29695 0.78172 0.40866 0.0
H2918 H 0.28203 0.70788 0.39273 0.0
H2919 H 0.29423 0.74867 0.45524 0.0
C2920 C 0.292 0.72143 0.46697 0.0
C2921 C 0.28931 0.70052 0.46285 0.0
C2922 C 0.28531 0.72407 0.39623 0.0
C2923 C 0.28951 0.72267 0.43224 0.0
C2924 C 0.28536 0.73521 0.38102 0.0
C2925 C 0.28948 0.75622 0.38514 0.0
C2926 C 0.2894 0.73399 0.41572 0.0
C2927 C 0.29346 0.76556 0.40481 0.0
C2928 C 0.29215 0.73254 0.45174 0.0
C2929 C 0.28687 0.69122 0.44319 0.0
N2930 N 0.29332 0.75438 0.41937 0.0
N2931 N 0.28698 0.70237 0.4286 0.0
H2932 H 0.59165 0.99838 0.65615 0.0
H2933 H 0.58626 0.05925 0.57082 0.0
H2934 H 0.64127 0.03028 0.63679 0.0
H2935 H 0.54658 1.00399 0.57007 0.0
H2936 H 0.60618 0.05028 0.59631 0.0
H2937 H 0.57442 1.00057 0.62558 0.0
C2938 C 0.5991 1.00541 0.64535 0.0
C2939 C 0.61803 1.01436 0.6493 0.0
C2940 C 0.59324 0.03999 0.59035 0.0
C2941 C 0.59802 0.01757 0.61452 0.0
C2942 C 0.58193 0.04505 0.57579 0.0
C2943 C 0.565 0.03213 0.56813 0.0
C2944 C 0.58725 0.02217 0.59767 0.0
C2945 C 0.5596 1.01432 0.57562 0.0
C2946 C 0.58914 1.00679 0.62792 0.0
C2947 C 0.62664 0.02365 0.63472 0.0
N2948 N 0.57064 1.00992 0.59017 0.0
N2949 N 0.6165 0.02536 0.61812 0.0
H2950 H 0.27915 0.34766 0.93046 0.0
H2951 H 0.33305 0.31761 0.83973 0.0
H2952 H 0.3369 0.34666 0.93617 0.0
H2953 H 0.27451 0.31462 0.83425 0.0
H2954 H 0.33463 0.32824 0.87502 0.0
H2955 H 0.27704 0.33521 0.89538 0.0
C2956 C 0.29136 0.34464 0.92444 0.0
C2957 C 0.30825 0.3483 0.93644 0.0
C2958 C 0.32142 0.32524 0.86612 0.0
C2959 C 0.30596 0.33428 0.896 0.0
C2960 C 0.3205 0.31917 0.84589 0.0
C2961 C 0.30362 0.31521 0.83384 0.0
C2962 C 0.30537 0.32746 0.87452 0.0
C2963 C 0.28785 0.3175 0.84285 0.0
C2964 C 0.29016 0.33765 0.90432 0.0
C2965 C 0.32364 0.34439 0.92756 0.0
N2966 N 0.28912 0.3235 0.86258 0.0
N2967 N 0.32213 0.33767 0.90795 0.0
H2968 H 0.99245 0.09577 0.38102 0.0
H2969 H 0.02562 0.02184 0.45087 0.0
H2970 H 0.98456 0.03201 0.36315 0.0
H2971 H 0.0318 0.08499 0.47071 0.0
H2972 H 1.01134 0.02569 0.41886 0.0
H2973 H 1.00734 0.09258 0.41305 0.0
C2974 C 0.99383 0.08105 0.38355 0.0
C2975 C 0.98687 0.06418 0.36868 0.0
C2976 C 0.01581 0.03878 0.43013 0.0
C2977 C 1.00428 0.06038 0.40643 0.0
C2978 C 0.02409 0.0366 0.44863 0.0
C2979 C 0.03018 0.05306 0.46405 0.0
C2980 C 0.01337 0.05765 0.42641 0.0
C2981 C 0.02749 0.07172 0.45964 0.0
C2982 C 1.00235 0.07925 0.40214 0.0
C2983 C 0.9892 0.04561 0.37373 0.0
N2984 N 0.01942 0.07345 0.4415 0.0
N2985 N 0.99757 0.0443 0.39182 0.0
H2986 H 0.25451 0.68882 0.64794 0.0
H2987 H 0.29541 0.80137 0.70238 0.0
H2988 H 0.29065 0.7333 0.62305 0.0
H2989 H 0.27894 0.75151 0.73277 0.0
H2990 H 0.28574 0.77857 0.67107 0.0
H2991 H 0.25557 0.71393 0.67708 0.0
C2992 C 0.26241 0.70396 0.64852 0.0
C2993 C 0.27271 0.70903 0.63331 0.0
C2994 C 0.28399 0.77274 0.68463 0.0
C2995 C 0.27388 0.73765 0.66626 0.0
C2996 C 0.28943 0.78572 0.70245 0.0
C2997 C 0.28809 0.77823 0.72012 0.0
C2998 C 0.27702 0.75225 0.68458 0.0
C2999 C 0.28022 0.75786 0.71945 0.0
C3000 C 0.26307 0.71821 0.66511 0.0
C3001 C 0.28276 0.7288 0.63468 0.0
N3002 N 0.27509 0.74551 0.70194 0.0
N3003 N 0.28318 0.74239 0.65094 0.0
H3004 H 0.54609 0.99843 0.79045 0.0
H3005 H 0.51587 0.06098 0.87976 0.0
H3006 H 0.55676 0.0629 0.80227 0.0
H3007 H 0.51366 0.99746 0.87163 0.0
H3008 H 0.51845 0.06041 0.84484 0.0
H3009 H 0.5222 0.99684 0.81246 0.0
C3010 C 0.54302 1.01224 0.79732 0.0
C3011 C 0.5537 0.03082 0.79507 0.0
C3012 C 0.51682 0.0465 0.85063 0.0
C3013 C 0.52681 0.02918 0.82055 0.0
C3014 C 0.51543 0.04682 0.87059 0.0
C3015 C 0.51543 0.02943 0.87888 0.0
C3016 C 0.51823 0.02868 0.83898 0.0
C3017 C 0.51404 1.01137 0.86612 0.0
C3018 C 0.52939 1.01135 0.80986 0.0
C3019 C 0.54899 0.04828 0.8039 0.0
N3020 N 0.51599 1.01157 0.84691 0.0
N3021 N 0.53621 0.04706 0.81673 0.0
H3022 H 0.28694 0.33 0.12117 0.0
H3023 H 0.32751 0.32751 0.23122 0.0
H3024 H 0.3346 0.37344 0.15156 0.0
H3025 H 0.27231 0.29737 0.20582 0.0
H3026 H 0.33178 0.34282 0.20158 0.0
H3027 H 0.28295 0.31571 0.15123 0.0
C3028 C 0.29666 0.33645 0.13413 0.0
C3029 C 0.31113 0.35296 0.13379 0.0
C3030 C 0.31871 0.33293 0.20256 0.0
C3031 C 0.30661 0.33666 0.1684 0.0
C3032 C 0.31627 0.32422 0.21947 0.0
C3033 C 0.29953 0.31115 0.221 0.0
C3034 C 0.30439 0.32832 0.18695 0.0
C3035 C 0.28544 0.30735 0.20529 0.0
C3036 C 0.29429 0.32837 0.15134 0.0
C3037 C 0.32315 0.36083 0.15116 0.0
N3038 N 0.28823 0.31575 0.18892 0.0
N3039 N 0.32068 0.35257 0.1677 0.0
H3040 H 0.2233 0.97727 0.98169 0.0
H3041 H 0.18433 0.07487 1.0123 0.0
H3042 H 0.25721 0.03335 1.0122 0.0
H3043 H 0.15116 1.01454 1.00481 0.0
H3044 H 0.21093 0.06115 1.00452 0.0
H3045 H 0.19636 0.99237 0.98204 0.0
C3046 C 0.22507 0.99284 0.98818 0.0
C3047 C 0.24235 1.00409 0.99711 0.0
C3048 C 0.19774 0.05099 1.0044 0.0
C3049 C 0.21187 0.02135 0.99751 0.0
C3050 C 0.18258 0.05877 1.00896 0.0
C3051 C 0.16547 0.04586 1.00947 0.0
C3052 C 0.19575 0.03017 1.00013 0.0
C3053 C 0.16397 0.02513 1.00445 0.0
C3054 C 0.20975 1.00139 0.98847 0.0
C3055 C 0.24401 0.02416 1.00541 0.0
N3056 N 0.17894 0.01793 1.00009 0.0
N3057 N 0.22892 0.03216 1.00547 0.0
H3058 H 0.69808 0.59016 1.00346 0.0
H3059 H 0.59176 0.58629 0.01578 0.0
H3060 H 0.67418 0.64182 1.00428 0.0
H3061 H 0.61447 0.53396 1.00667 0.0
H3062 H 0.62193 0.60726 0.01304 0.0
H3063 H 0.66776 0.56963 1.00591 0.0
C3064 C 0.68645 0.59721 1.00418 0.0
C3065 C 0.68874 0.61779 1.0037 0.0
C3066 C 0.62035 0.59119 1.0117 0.0
C3067 C 0.65383 0.59428 1.00649 0.0
C3068 C 0.60314 0.57928 0.01343 0.0
C3069 C 0.60066 0.55845 1.0117 0.0
C3070 C 0.63524 0.58217 1.0083 0.0
C3071 C 0.6158 0.55 1.00818 0.0
C3072 C 0.66911 0.58545 1.0055 0.0
C3073 C 0.67307 0.626 1.00441 0.0
N3074 N 0.63244 0.56187 1.00667 0.0
N3075 N 0.65633 0.61426 1.00587 0.0
H3076 H 0.75383 0.44692 0.26705 0.0
H3077 H 0.74761 0.33032 0.2794 0.0
H3078 H 0.70643 0.41077 0.28617 0.0
H3079 H 0.79692 0.36935 0.26765 0.0
H3080 H 0.73198 0.35853 0.28061 0.0
H3081 H 0.76892 0.41875 0.26615 0.0
C3082 C 0.74637 0.43333 0.27123 0.0
C3083 C 0.72836 0.43215 0.27682 0.0
C3084 C 0.74622 0.36101 0.27774 0.0
C3085 C 0.74629 0.39839 0.27535 0.0
C3086 C 0.75527 0.3447 0.27701 0.0
C3087 C 0.77392 0.34692 0.27339 0.0
C3088 C 0.75557 0.38017 0.27473 0.0
C3089 C 0.78267 0.36641 0.2705 0.0
C3090 C 0.75519 0.4169 0.27056 0.0
C3091 C 0.72003 0.41316 0.28152 0.0
N3092 N 0.77357 0.3819 0.27118 0.0
N3093 N 0.72889 0.39744 0.28066 0.0
H3094 H 0.91193 0.51746 0.57535 0.0
H3095 H 1.00293 0.48415 0.5494 0.0
H3096 H 0.91551 0.45721 0.55222 0.0
H3097 H 1.00154 0.54517 0.57169 0.0
H3098 H 0.97243 0.47293 0.55911 0.0
H3099 H 0.94557 0.52679 0.58201 0.0
C3100 C 0.91971 0.50612 0.57193 0.0
C3101 C 0.9108 0.48661 0.5628 0.0
C3102 C 0.97885 0.48876 0.56225 0.0
C3103 C 0.94922 0.49713 0.57062 0.0
C3104 C 0.99628 0.49514 0.55673 0.0
C3105 C 1.00448 0.51559 0.55945 0.0
C3106 C 0.96936 0.50301 0.57001 0.0
C3107 C 0.99551 0.52924 0.56924 0.0
C3108 C 0.93891 0.51143 0.57588 0.0
C3109 C 0.9216 0.47242 0.55927 0.0
N3110 N 0.97815 0.52275 0.57374 0.0
N3111 N 0.9402 0.47805 0.56291 0.0
H3112 H 0.36189 0.10032 0.25665 0.0
H3113 H 0.34723 0.20227 0.22944 0.0
H3114 H 0.40535 0.14154 0.23685 0.0
H3115 H 0.30208 0.15107 0.2266 0.0
H3116 H 0.36873 0.18029 0.23032 0.0
H3117 H 0.33968 0.11864 0.24497 0.0
C3118 C 0.36669 0.11324 0.24975 0.0
C3119 C 0.38541 0.11969 0.24789 0.0
C3120 C 0.3541 0.17382 0.22912 0.0
C3121 C 0.36021 0.14069 0.23455 0.0
C3122 C 0.34176 0.18635 0.22848 0.0
C3123 C 0.32279 0.17856 0.22827 0.0
C3124 C 0.34744 0.15347 0.22988 0.0
C3125 C 0.31661 0.15781 0.22731 0.0
C3126 C 0.35403 0.12357 0.24294 0.0
C3127 C 0.39099 0.13626 0.2386 0.0
N3128 N 0.32894 0.14604 0.22852 0.0
N3129 N 0.37845 0.14645 0.23252 0.0
H3130 H 0.38045 0.15447 0.53314 0.0
H3131 H 0.43063 0.07201 0.4829 0.0
H3132 H 0.35748 0.11342 0.47974 0.0
H3133 H 0.45302 0.11222 0.53695 0.0
H3134 H 0.40431 0.08773 0.48091 0.0
H3135 H 0.40731 0.13958 0.53446 0.0
C3136 C 0.38095 0.14223 0.52174 0.0
C3137 C 0.36654 0.13517 0.50634 0.0
C3138 C 0.41499 0.09316 0.49318 0.0
C3139 C 0.39756 0.11817 0.50764 0.0
C3140 C 0.43015 0.08428 0.49426 0.0
C3141 C 0.44417 0.09076 0.51012 0.0
C3142 C 0.41375 0.1087 0.50806 0.0
C3143 C 0.44249 0.10651 0.52457 0.0
C3144 C 0.39641 0.13382 0.52245 0.0
C3145 C 0.36827 0.11953 0.4918 0.0
N3146 N 0.4276 0.1149 0.5232 0.0
N3147 N 0.38344 0.11156 0.49283 0.0
H3148 H 0.76022 0.62974 0.26939 0.0
H3149 H 0.76358 0.74894 0.28893 0.0
H3150 H 0.71667 0.65367 0.29373 0.0
H3151 H 0.80667 0.72332 0.26609 0.0
H3152 H 0.74563 0.71492 0.28986 0.0
H3153 H 0.77655 0.66377 0.26737 0.0
C3154 C 0.75387 0.64199 0.27423 0.0
C3155 C 0.7367 0.6382 0.28173 0.0
C3156 C 0.75893 0.7167 0.28444 0.0
C3157 C 0.75599 0.67828 0.27955 0.0
C3158 C 0.76915 0.7363 0.28361 0.0
C3159 C 0.78666 0.73941 0.27691 0.0
C3160 C 0.76616 0.69975 0.27859 0.0
C3161 C 0.79325 0.72199 0.2712 0.0
C3162 C 0.76341 0.66167 0.27316 0.0
C3163 C 0.72983 0.65536 0.28804 0.0
N3164 N 0.78314 0.70323 0.27213 0.0
N3165 N 0.73936 0.67437 0.28678 0.0
H3166 H 0.86121 0.45819 0.79385 0.0
H3167 H 0.83508 0.34471 0.73883 0.0
H3168 H 0.88786 0.43734 0.74476 0.0
H3169 H 0.82167 0.36391 0.79675 0.0
H3170 H 0.85095 0.37928 0.73791 0.0
H3171 H 0.84269 0.42435 0.79192 0.0
C3172 C 0.86299 0.44652 0.78249 0.0
C3173 C 0.87609 0.45055 0.76945 0.0
C3174 C 0.84449 0.37586 0.75078 0.0
C3175 C 0.85512 0.41172 0.76734 0.0
C3176 C 0.83542 0.35618 0.75132 0.0
C3177 C 0.82717 0.3514 0.76796 0.0
C3178 C 0.8451 0.39084 0.7669 0.0
C3179 C 0.82797 0.36686 0.78368 0.0
C3180 C 0.85253 0.42718 0.7815 0.0
C3181 C 0.87803 0.43479 0.75521 0.0
N3182 N 0.83677 0.38587 0.78275 0.0
N3183 N 0.86765 0.41601 0.75454 0.0
H3184 H 0.10541 0.92388 0.08718 0.0
H3185 H 0.0353 0.9731 0.02678 0.0
H3186 H 0.04875 0.89472 0.06653 0.0
H3187 H 0.09133 1.00403 0.04843 0.0
H3188 H 0.04087 0.94357 0.03949 0.0
H3189 H 0.10139 0.95249 0.07145 0.0
C3190 C 0.09217 0.92338 0.07922 0.0
C3191 C 0.07737 0.90682 0.07835 0.0
C3192 C 0.052 0.95675 0.0414 0.0
C3193 C 0.07264 0.9397 0.06037 0.0
C3194 C 0.04885 0.97369 0.03408 0.0
C3195 C 0.06283 0.99123 0.03656 0.0
C3196 C 0.06929 0.95721 0.05139 0.0
C3197 C 0.0801 0.99091 0.04616 0.0
C3198 C 0.08986 0.9398 0.07033 0.0
C3199 C 0.06049 0.90723 0.06796 0.0
N3200 N 0.08281 0.97424 0.0533 0.0
N3201 N 0.0586 0.92335 0.05946 0.0
H3202 H 0.90896 0.27887 0.87415 0.0
H3203 H 0.84636 0.24763 0.77128 0.0
H3204 H 0.92895 0.2532 0.82201 0.0
H3205 H 0.84257 0.29897 0.8126 0.0
H3206 H 0.87344 0.24425 0.79202 0.0
H3207 H 0.88142 0.28137 0.85398 0.0
C3208 C 0.90775 0.27383 0.85852 0.0
C3209 C 0.92167 0.26594 0.84993 0.0
C3210 C 0.86659 0.25618 0.79658 0.0
C3211 C 0.88954 0.26817 0.82682 0.0
C3212 C 0.85111 0.25808 0.78481 0.0
C3213 C 0.84212 0.27355 0.79028 0.0
C3214 C 0.87294 0.26959 0.81416 0.0
C3215 C 0.84893 0.2867 0.80793 0.0
C3216 C 0.89187 0.27517 0.84704 0.0
C3217 C 0.91868 0.2591 0.82954 0.0
N3218 N 0.86387 0.28436 0.81931 0.0
N3219 N 0.90297 0.2603 0.81875 0.0
H3220 H 0.60359 0.21251 0.58277 0.0
H3221 H 0.53451 0.11023 0.53044 0.0
H3222 H 0.5468 0.20885 0.56163 0.0
H3223 H 0.59254 0.11572 0.54736 0.0
H3224 H 0.53869 0.14629 0.54113 0.0
H3225 H 0.59981 0.17718 0.56917 0.0
C3226 C 0.59031 0.20426 0.57522 0.0
C3227 C 0.57545 0.21364 0.57347 0.0
C3228 C 0.55052 0.13961 0.54242 0.0
C3229 C 0.57101 0.17305 0.55779 0.0
C3230 C 0.54814 0.11898 0.53635 0.0
C3231 C 0.56318 0.10983 0.53805 0.0
C3232 C 0.56804 0.15121 0.55035 0.0
C3233 C 0.58052 0.12203 0.54578 0.0
C3234 C 0.58818 0.18408 0.56738 0.0
C3235 C 0.55866 0.20227 0.56323 0.0
N3236 N 0.58244 0.14203 0.5517 0.0
N3237 N 0.55685 0.18254 0.55592 0.0
H3238 H 0.59644 0.80972 0.34857 0.0
H3239 H 0.6859 0.76764 0.32771 0.0
H3240 H 0.60321 0.7517 0.35978 0.0
H3241 H 0.67209 0.8165 0.3018 0.0
H3242 H 0.65707 0.7636 0.34244 0.0
H3243 H 0.62514 0.81405 0.33365 0.0
C3244 C 0.6038 0.79778 0.34777 0.0
C3245 C 0.59722 0.78027 0.35551 0.0
C3246 C 0.66034 0.77523 0.33356 0.0
C3247 C 0.63049 0.78545 0.33879 0.0
C3248 C 0.67688 0.77766 0.32528 0.0
C3249 C 0.68147 0.79249 0.31354 0.0
C3250 C 0.64828 0.78781 0.33028 0.0
C3251 C 0.66906 0.8048 0.31064 0.0
C3252 C 0.6203 0.80036 0.33935 0.0
C3253 C 0.60776 0.7656 0.35437 0.0
N3254 N 0.65308 0.80224 0.319 0.0
N3255 N 0.62385 0.76856 0.34626 0.0
H3256 H 0.0789 0.22294 0.40998 0.0
H3257 H 0.0769 0.19264 0.51681 0.0
H3258 H 0.07938 0.26487 0.46245 0.0
H3259 H 0.06234 0.14933 0.46349 0.0
H3260 H 0.08103 0.21949 0.49722 0.0
H3261 H 0.07622 0.1959 0.42955 0.0
C3262 C 0.07854 0.22644 0.42564 0.0
C3263 C 0.07928 0.24612 0.43463 0.0
C3264 C 0.07693 0.20411 0.48982 0.0
C3265 C 0.07621 0.21537 0.45704 0.0
C3266 C 0.07448 0.18875 0.50099 0.0
C3267 C 0.06914 0.16865 0.49182 0.0
C3268 C 0.07416 0.19938 0.46929 0.0
C3269 C 0.06665 0.16457 0.47123 0.0
C3270 C 0.07691 0.21102 0.43677 0.0
C3271 C 0.0786 0.24985 0.45492 0.0
N3272 N 0.06917 0.1798 0.46066 0.0
N3273 N 0.07715 0.23462 0.46545 0.0
H3274 H 0.59798 0.29416 0.24509 0.0
H3275 H 0.67225 0.23547 0.27989 0.0
H3276 H 0.58931 0.22977 0.23715 0.0
H3277 H 0.6828 0.29991 0.2854 0.0
H3278 H 0.63971 0.23364 0.27102 0.0
H3279 H 0.62665 0.29691 0.26617 0.0
C3280 C 0.60193 0.2806 0.2481 0.0
C3281 C 0.59145 0.2617 0.23911 0.0
C3282 C 0.64907 0.24822 0.27444 0.0
C3283 C 0.62426 0.26473 0.26297 0.0
C3284 C 0.6677 0.24931 0.2797 0.0
C3285 C 0.68038 0.26788 0.28312 0.0
C3286 C 0.64306 0.2658 0.27237 0.0
C3287 C 0.67358 0.28524 0.28239 0.0
C3288 C 0.61833 0.28218 0.26005 0.0
C3289 C 0.59723 0.24463 0.24344 0.0
N3290 N 0.65541 0.28376 0.27681 0.0
N3291 N 0.61335 0.24656 0.25488 0.0
H3292 H 0.59616 0.91261 0.97606 0.0
H3293 H 0.53671 0.99547 0.99172 0.0
H3294 H 0.56483 0.929 0.92816 0.0
H3295 H 0.58544 0.99676 0.03026 0.0
H3296 H 0.54229 0.96624 0.9706 0.0
H3297 H 0.58822 0.93924 0.99841 0.0
C3298 C 0.58774 0.92185 0.97016 0.0
C3299 C 0.5813 0.91857 0.95008 0.0
C3300 C 0.55171 0.97292 0.98372 0.0
C3301 C 0.57169 0.94864 0.97579 0.0
C3302 C 0.5486 0.98962 0.99563 0.0
C3303 C 0.56098 0.99884 1.01227 0.0
C3304 C 0.56708 0.96522 0.98884 0.0
C3305 C 0.57567 0.99015 0.0174 0.0
C3306 C 0.58309 0.93692 0.98299 0.0
C3307 C 0.56995 0.93073 0.9435 0.0
N3308 N 0.57839 0.97385 1.00564 0.0
N3309 N 0.56549 0.9452 0.95633 0.0
H3310 H 0.94189 0.79545 0.73748 0.0
H3311 H 0.83941 0.75167 0.75924 0.0
H3312 H 0.91148 0.73517 0.71463 0.0
H3313 H 0.86818 0.81369 0.77546 0.0
H3314 H 0.86744 0.74367 0.74781 0.0
H3315 H 0.91679 0.80058 0.75643 0.0
C3316 C 0.92993 0.78326 0.73654 0.0
C3317 C 0.92858 0.76498 0.72422 0.0
C3318 C 0.86764 0.75898 0.75406 0.0
C3319 C 0.89982 0.77071 0.74589 0.0
C3320 C 0.85166 0.76357 0.76063 0.0
C3321 C 0.85137 0.78346 0.76805 0.0
C3322 C 0.88341 0.77437 0.755 0.0
C3323 C 0.86768 0.79821 0.76958 0.0
C3324 C 0.91564 0.78616 0.74741 0.0
C3325 C 0.91302 0.74951 0.72391 0.0
N3326 N 0.88298 0.79339 0.76296 0.0
N3327 N 0.8991 0.75281 0.73441 0.0
H3328 H 0.14322 0.05214 0.90106 0.0
H3329 H 0.05049 1.01031 0.94951 0.0
H3330 H 0.09428 1.01239 0.86898 0.0
H3331 H 0.09381 0.05768 0.98196 0.0
H3332 H 0.06772 1.01003 0.92123 0.0
H3333 H 0.12737 0.05335 0.93082 0.0
C3334 C 0.12921 0.04352 0.90003 0.0
C3335 C 0.12041 0.03212 0.88173 0.0
C3336 C 0.0737 0.02046 0.93447 0.0
C3337 C 0.10171 0.03355 0.91688 0.0
C3338 C 0.06377 0.02063 0.95095 0.0
C3339 C 0.07047 0.03381 0.96886 0.0
C3340 C 0.091 0.03359 0.93516 0.0
C3341 C 0.08795 0.04681 0.96901 0.0
C3342 C 0.12005 0.04437 0.91729 0.0
C3343 C 0.10198 0.02167 0.88216 0.0
N3344 N 0.09746 0.04631 0.95265 0.0
N3345 N 0.09354 0.02259 0.89909 0.0
H3346 H 0.76952 0.3506 0.55816 0.0
H3347 H 0.80079 0.35421 0.67098 0.0
H3348 H 0.78527 0.40534 0.60008 0.0
H3349 H 0.7723 0.29958 0.63281 0.0
H3350 H 0.79444 0.37312 0.64521 0.0
H3351 H 0.76937 0.33143 0.58522 0.0
C3352 C 0.77267 0.35855 0.57308 0.0
C3353 C 0.7775 0.37956 0.57691 0.0
C3354 C 0.78944 0.35701 0.64251 0.0
C3355 C 0.77759 0.35783 0.60783 0.0
C3356 C 0.79301 0.34617 0.65727 0.0
C3357 C 0.78713 0.32521 0.65409 0.0
C3358 C 0.7801 0.34685 0.6243 0.0
C3359 C 0.77742 0.31566 0.63582 0.0
C3360 C 0.77256 0.34764 0.5885 0.0
C3361 C 0.78133 0.38916 0.59648 0.0
N3362 N 0.77433 0.32654 0.62156 0.0
N3363 N 0.78154 0.37822 0.6112 0.0
H3364 H 0.49164 0.09711 0.40046 0.0
H3365 H 0.52813 0.02835 0.46869 0.0
H3366 H 0.4904 0.03463 0.38098 0.0
H3367 H 0.55872 0.08917 0.4719 0.0
H3368 H 0.50874 0.03206 0.43998 0.0
H3369 H 0.51206 0.0962 0.42994 0.0
C3370 C 0.49562 0.08326 0.40232 0.0
C3371 C 0.48891 0.0658 0.38841 0.0
C3372 C 0.5197 0.0446 0.44697 0.0
C3373 C 0.51179 0.06468 0.42197 0.0
C3374 C 0.53069 0.04253 0.46334 0.0
C3375 C 0.54503 0.05846 0.47246 0.0
C3376 C 0.52291 0.06282 0.43983 0.0
C3377 C 0.54784 0.07652 0.46502 0.0
C3378 C 0.50721 0.08279 0.4191 0.0
C3379 C 0.49457 0.04828 0.39158 0.0
N3380 N 0.53675 0.0783 0.44907 0.0
N3381 N 0.50549 0.04813 0.4081 0.0
H3382 H 0.8219 0.75379 0.1163 0.0
H3383 H 0.7676 0.77408 0.20935 0.0
H3384 H 0.76262 0.73977 0.11367 0.0
H3385 H 0.82684 0.78338 0.21315 0.0
H3386 H 0.76563 0.76322 0.17403 0.0
H3387 H 0.82406 0.76671 0.15133 0.0
C3388 C 0.80932 0.75361 0.12301 0.0
C3389 C 0.79204 0.7456 0.11193 0.0
C3390 C 0.77907 0.76766 0.18258 0.0
C3391 C 0.79444 0.76022 0.15223 0.0
C3392 C 0.78022 0.7739 0.20281 0.0
C3393 C 0.79742 0.77966 0.21439 0.0
C3394 C 0.79522 0.76719 0.17371 0.0
C3395 C 0.81326 0.77905 0.20492 0.0
C3396 C 0.81057 0.76086 0.14308 0.0
C3397 C 0.77625 0.74553 0.1216 0.0
N3398 N 0.81176 0.77294 0.1852 0.0
N3399 N 0.77783 0.75268 0.14112 0.0
H3400 H 0.10616 0.99765 0.6676 0.0
H3401 H 0.08997 0.0714 0.58963 0.0
H3402 H 0.13106 0.06083 0.67739 0.0
H3403 H 0.06937 1.00747 0.57648 0.0
H3404 H 0.10402 0.06774 0.62183 0.0
H3405 H 0.09181 1.00087 0.63532 0.0
C3406 C 0.10865 1.01228 0.66323 0.0
C3407 C 0.12018 0.02893 0.6759 0.0
C3408 C 0.09644 0.05444 0.61199 0.0
C3409 C 0.10336 0.03273 0.63787 0.0
C3410 C 0.0883 0.05652 0.59337 0.0
C3411 C 0.07825 0.03977 0.57977 0.0
C3412 C 0.09468 0.0354 0.61768 0.0
C3413 C 0.07688 0.02096 0.58608 0.0
C3414 C 0.10042 1.01407 0.64449 0.0
C3415 C 0.12269 0.04732 0.66854 0.0
N3416 N 0.08484 0.01935 0.60432 0.0
N3417 N 0.11445 0.04865 0.65039 0.0
H3418 H 0.83644 0.41176 0.39556 0.0
H3419 H 0.81337 0.29652 0.34531 0.0
H3420 H 0.81009 0.36281 0.4228 0.0
H3421 H 0.82483 0.34548 0.31277 0.0
H3422 H 0.81932 0.32067 0.37574 0.0
H3423 H 0.83875 0.38758 0.36686 0.0
C3424 C 0.83128 0.39591 0.39552 0.0
C3425 C 0.82281 0.38923 0.41136 0.0
C3426 C 0.82076 0.32612 0.36196 0.0
C3427 C 0.82557 0.36162 0.37889 0.0
C3428 C 0.81748 0.31234 0.34461 0.0
C3429 C 0.81834 0.31908 0.32654 0.0
C3430 C 0.82499 0.34672 0.36118 0.0
C3431 C 0.82383 0.33972 0.32644 0.0
C3432 C 0.83258 0.38216 0.37918 0.0
C3433 C 0.81637 0.36857 0.41068 0.0
N3434 N 0.82675 0.35287 0.34351 0.0
N3435 N 0.81784 0.3555 0.39468 0.0
H3436 H 0.4926 1.01462 0.20087 0.0
H3437 H 0.5754 0.07599 0.16065 0.0
H3438 H 0.54008 0.04905 0.24035 0.0
H3439 H 0.54183 0.0211 0.12704 0.0
H3440 H 0.56407 0.06567 0.19041 0.0
H3441 H 0.5113 1.01525 0.17416 0.0
C3442 C 0.50705 0.0219 0.20418 0.0
C3443 C 0.51458 0.03211 0.22305 0.0
C3444 C 0.55948 0.05573 0.17655 0.0
C3445 C 0.53596 0.03354 0.19199 0.0
C3446 C 0.56594 0.0616 0.15954 0.0
C3447 C 0.55922 0.04961 0.14124 0.0
C3448 C 0.54602 0.03793 0.17517 0.0
C3449 C 0.5469 0.03115 0.14074 0.0
C3450 C 0.51773 0.02236 0.18874 0.0
C3451 C 0.53342 0.04156 0.22599 0.0
N3452 N 0.54043 0.02605 0.15741 0.0
N3453 N 0.54337 0.04246 0.21052 0.0
H3454 H 0.76368 0.72859 0.90159 0.0
H3455 H 0.83405 0.7953 0.84281 0.0
H3456 H 0.82092 0.75432 0.92279 0.0
H3457 H 0.77694 0.7709 0.8205 0.0
H3458 H 0.82936 0.7793 0.87168 0.0
H3459 H 0.76795 0.74331 0.87174 0.0
C3460 C 0.77712 0.73741 0.90008 0.0
C3461 C 0.79196 0.74011 0.91486 0.0
C3462 C 0.81782 0.77733 0.86049 0.0
C3463 C 0.79699 0.75686 0.88045 0.0
C3464 C 0.82051 0.78645 0.84394 0.0
C3465 C 0.80586 0.78448 0.82922 0.0
C3466 C 0.80029 0.76611 0.8625 0.0
C3467 C 0.78862 0.77279 0.83149 0.0
C3468 C 0.77957 0.7457 0.88293 0.0
C3469 C 0.8091 0.75149 0.9118 0.0
N3470 N 0.78628 0.76412 0.84785 0.0
N3471 N 0.81111 0.75939 0.89504 0.0
H3472 H 0.89215 0.14128 0.0142 0.0
H3473 H 0.92029 0.03791 0.02589 0.0
H3474 H 0.86128 0.09657 0.04343 0.0
H3475 H 0.95765 0.0885 1.01078 0.0
H3476 H 0.89716 0.05814 0.02956 0.0
H3477 H 0.91536 0.12114 1.01024 0.0
C3478 C 0.89033 0.12728 0.01985 0.0
C3479 C 0.87491 0.12064 0.0293 0.0
C3480 C 0.91044 0.06481 0.02548 0.0
C3481 C 0.90114 0.09752 0.02469 0.0
C3482 C 0.92355 0.05324 0.02327 0.0
C3483 C 0.94088 0.06162 0.01815 0.0
C3484 C 0.91465 0.08479 0.02232 0.0
C3485 C 0.94451 0.08159 0.01502 0.0
C3486 C 0.90355 0.11583 0.01763 0.0
C3487 C 0.87315 0.1024 0.03636 0.0
N3488 N 0.93149 0.0925 0.01711 0.0
N3489 N 0.88607 0.09142 0.03383 0.0
H3490 H 0.41826 0.45675 0.01458 0.0
H3491 H 0.50325 0.54354 0.06976 0.0
H3492 H 0.4179 0.48962 0.07221 0.0
H3493 H 0.50133 0.51339 1.01058 0.0
H3494 H 0.47271 0.52286 0.07174 0.0
H3495 H 0.44925 0.47635 0.01357 0.0
C3496 C 0.42462 0.46817 0.027 0.0
C3497 C 0.41529 0.47157 0.04346 0.0
C3498 C 0.479 0.52069 0.05835 0.0
C3499 C 0.4511 0.494 0.04248 0.0
C3500 C 0.49644 0.53247 0.05724 0.0
C3501 C 0.50487 0.53008 0.04003 0.0
C3502 C 0.46991 0.50643 0.04212 0.0
C3503 C 0.49542 0.51558 0.02421 0.0
C3504 C 0.44241 0.4793 0.02645 0.0
C3505 C 0.42454 0.48631 0.05927 0.0
N3506 N 0.47847 0.50434 0.02562 0.0
N3507 N 0.44187 0.49699 0.05837 0.0
H3508 H 0.40208 0.68538 0.77572 0.0
H3509 H 0.30524 0.72214 0.77091 0.0
H3510 H 0.34879 0.64449 0.76423 0.0
H3511 H 0.35796 0.76333 0.77666 0.0
H3512 H 0.32095 0.69417 0.76952 0.0
H3513 H 0.38672 0.71346 0.77687 0.0
C3514 C 0.3872 0.68192 0.77329 0.0
C3515 C 0.37718 0.66162 0.76979 0.0
C3516 C 0.3292 0.70927 0.7711 0.0
C3517 C 0.3589 0.69516 0.7715 0.0
C3518 C 0.32014 0.72551 0.77194 0.0
C3519 C 0.32997 0.74571 0.77395 0.0
C3520 C 0.34862 0.71265 0.77235 0.0
C3521 C 0.34944 0.74837 0.77511 0.0
C3522 C 0.37832 0.69835 0.7741 0.0
C3523 C 0.35767 0.6593 0.76723 0.0
N3524 N 0.35792 0.73233 0.77435 0.0
N3525 N 0.34944 0.67551 0.76815 0.0
H3526 H 0.18663 0.54521 0.50232 0.0
H3527 H 0.0918 0.52591 0.48501 0.0
H3528 H 0.18526 0.60761 0.50667 0.0
H3529 H 0.10012 0.58794 0.51134 0.0
H3530 H 0.124 0.53202 0.47866 0.0
H3531 H 0.15338 0.53622 0.49215 0.0
C3532 C 0.17932 0.55695 0.50061 0.0
C3533 C 0.18843 0.57712 0.50574 0.0
C3534 C 0.11879 0.54434 0.48569 0.0
C3535 C 0.15064 0.56717 0.4938 0.0
C3536 C 0.10031 0.54093 0.48902 0.0
C3537 C 0.09348 0.55639 0.4991 0.0
C3538 C 0.13035 0.56332 0.49255 0.0
C3539 C 0.10499 0.57554 0.5039 0.0
C3540 C 0.16035 0.55186 0.49466 0.0
C3541 C 0.17853 0.59186 0.50328 0.0
N3542 N 0.12293 0.5784 0.5008 0.0
N3543 N 0.16012 0.5866 0.4978 0.0
H3544 H 0.70958 0.97072 0.81754 0.0
H3545 H 0.77769 0.91704 0.75781 0.0
H3546 H 0.71205 0.96764 0.75531 0.0
H3547 H 0.77672 0.91998 0.8202 0.0
H3548 H 0.75471 0.93736 0.7572 0.0
H3549 H 0.73515 0.95363 0.81946 0.0
C3550 C 0.7155 0.96645 0.80431 0.0
C3551 C 0.70852 0.97033 0.7862 0.0
C3552 C 0.75959 0.9337 0.77108 0.0
C3553 C 0.73769 0.95094 0.78827 0.0
C3554 C 0.77269 0.92209 0.7714 0.0
C3555 C 0.779 0.91676 0.78905 0.0
C3556 C 0.75264 0.93992 0.78852 0.0
C3557 C 0.77228 0.92389 0.8063 0.0
C3558 C 0.73005 0.9567 0.80541 0.0
C3559 C 0.71668 0.96451 0.7695 0.0
N3560 N 0.75931 0.93499 0.80559 0.0
N3561 N 0.73078 0.95509 0.77095 0.0
H3562 H 0.72753 0.93599 0.51487 0.0
H3563 H 0.67595 0.01816 0.56303 0.0
H3564 H 0.74847 0.97577 0.56954 0.0
H3565 H 0.65694 0.98068 0.50677 0.0
H3566 H 0.70163 1.00159 0.56657 0.0
H3567 H 0.701 0.9513 0.51235 0.0
C3568 C 0.72665 0.94803 0.52631 0.0
C3569 C 0.74043 0.95463 0.5424 0.0
C3570 C 0.69181 0.99694 0.55347 0.0
C3571 C 0.70975 0.97211 0.5397 0.0
C3572 C 0.67703 1.0063 0.55149 0.0
C3573 C 0.6642 1.00087 0.53454 0.0
C3574 C 0.69384 0.98196 0.53842 0.0
C3575 C 0.66658 0.98559 0.51997 0.0
C3576 C 0.71139 0.95668 0.52491 0.0
C3577 C 0.73818 0.97001 0.55695 0.0
N3578 N 0.68108 0.97672 0.52224 0.0
N3579 N 0.7232 0.97823 0.55523 0.0
H3580 H 0.39298 0.44264 0.76942 0.0
H3581 H 0.29266 0.36824 0.76242 0.0
H3582 H 0.34143 0.46048 0.75993 0.0
H3583 H 0.34259 0.34888 0.77657 0.0
H3584 H 0.31085 0.40148 0.76085 0.0
H3585 H 0.37577 0.40864 0.77118 0.0
C3586 C 0.37808 0.43959 0.76757 0.0
C3587 C 0.36892 0.45507 0.76447 0.0
C3588 C 0.31799 0.39007 0.76424 0.0
C3589 C 0.34878 0.41529 0.76667 0.0
C3590 C 0.30752 0.37083 0.76515 0.0
C3591 C 0.31585 0.35518 0.76945 0.0
C3592 C 0.33734 0.39433 0.76763 0.0
C3593 C 0.33532 0.36004 0.77287 0.0
C3594 C 0.36821 0.41998 0.76872 0.0
C3595 C 0.34945 0.4496 0.76258 0.0
N3596 N 0.3453 0.37901 0.77187 0.0
N3597 N 0.34023 0.43046 0.76365 0.0
H3598 H 0.21882 0.63053 0.24016 0.0
H3599 H 0.27372 0.73553 0.30259 0.0
H3600 H 0.22748 0.6411 0.30337 0.0
H3601 H 0.268 0.72109 0.23941 0.0
H3602 H 0.25746 0.70112 0.30374 0.0
H3603 H 0.23756 0.6638 0.24007 0.0
C3604 C 0.22469 0.63993 0.25404 0.0
C3605 C 0.22147 0.6332 0.27179 0.0
C3606 C 0.25986 0.70553 0.28967 0.0
C3607 C 0.24302 0.67135 0.27187 0.0
C3608 C 0.26909 0.72516 0.28899 0.0
C3609 C 0.27213 0.73124 0.27086 0.0
C3610 C 0.25363 0.69201 0.2721 0.0
C3611 C 0.26592 0.71716 0.25372 0.0
C3612 C 0.23546 0.6589 0.25401 0.0
C3613 C 0.22969 0.64579 0.28937 0.0
N3614 N 0.25693 0.69828 0.25478 0.0
N3615 N 0.24 0.66439 0.28898 0.0
H3616 H 0.49353 0.67008 0.46789 0.0
H3617 H 0.56933 0.61564 0.51053 0.0
H3618 H 0.55213 0.69006 0.4668 0.0
H3619 H 0.51126 0.58781 0.501 0.0
H3620 H 0.56271 0.6445 0.49736 0.0
H3621 H 0.49922 0.64117 0.48214 0.0
C3622 C 0.50758 0.66844 0.47055 0.0
C3623 C 0.52235 0.68278 0.46614 0.0
C3624 C 0.55137 0.63212 0.49816 0.0
C3625 C 0.52895 0.64971 0.48282 0.0
C3626 C 0.55514 0.61559 0.50578 0.0
C3627 C 0.54085 0.59912 0.50689 0.0
C3628 C 0.53314 0.63243 0.49159 0.0
C3629 C 0.52274 0.60009 0.50042 0.0
C3630 C 0.5108 0.65194 0.4788 0.0
C3631 C 0.54026 0.6798 0.47026 0.0
N3632 N 0.51941 0.61644 0.49305 0.0
N3633 N 0.54301 0.66372 0.47835 0.0
H3634 H 0.65917 0.28783 0.70851 0.0
H3635 H 0.76882 0.31704 0.73618 0.0
H3636 H 0.69451 0.33537 0.68656 0.0
H3637 H 0.73202 0.27892 0.76667 0.0
H3638 H 0.74218 0.32186 0.71577 0.0
H3639 H 0.68598 0.28256 0.72804 0.0
C3640 C 0.6726 0.29714 0.70775 0.0
C3641 C 0.67457 0.31203 0.6958 0.0
C3642 C 0.73992 0.31239 0.72687 0.0
C3643 C 0.70545 0.30606 0.71823 0.0
C3644 C 0.75513 0.30949 0.73839 0.0
C3645 C 0.75261 0.29746 0.75302 0.0
C3646 C 0.72203 0.3031 0.72995 0.0
C3647 C 0.73456 0.28833 0.75555 0.0
C3648 C 0.6879 0.29417 0.71899 0.0
C3649 C 0.69231 0.32382 0.69566 0.0
N3650 N 0.71997 0.2913 0.74412 0.0
N3651 N 0.70706 0.32051 0.70661 0.0
H3652 H 0.06185 0.38562 0.96787 0.0
H3653 H 0.0124 0.47455 1.00252 0.0
H3654 H 1.00338 0.37718 0.97101 0.0
H3655 H 0.07144 0.48269 1.00438 0.0
H3656 H 1.00899 0.43884 0.99116 0.0
H3657 H 0.06578 0.4211 0.98134 0.0
C3658 C 0.04983 0.39121 0.9714 0.0
C3659 C 0.03224 0.37835 0.96825 0.0
C3660 C 0.0227 0.4484 0.9941 0.0
C3661 C 0.03666 0.41902 0.98375 0.0
C3662 C 0.02468 0.46886 1.00057 0.0
C3663 C 0.04225 0.48175 1.00437 0.0
C3664 C 0.03839 0.44066 0.99127 0.0
C3665 C 0.05761 0.47338 1.00162 0.0
C3666 C 0.0521 0.41147 0.97918 0.0
C3667 C 0.01722 0.38643 0.97337 0.0
N3668 N 0.05532 0.4534 0.99517 0.0
N3669 N 0.01977 0.40622 0.98075 0.0
H3670 H 0.01574 0.81373 0.22073 0.0
H3671 H 0.90604 0.79759 0.21111 0.0
H3672 H 0.98135 0.8008 0.16515 0.0
H3673 H 0.93931 0.79782 0.26519 0.0
H3674 H 0.93346 0.79942 0.1941 0.0
H3675 H 0.98803 0.80896 0.23739 0.0
C3676 C 1.00241 0.80977 0.21198 0.0
C3677 C 1.00101 0.80774 0.19143 0.0
C3678 C 0.93474 0.79896 0.20967 0.0
C3679 C 0.96909 0.80252 0.21055 0.0
C3680 C 0.91902 0.79775 0.21941 0.0
C3681 C 0.92025 0.7976 0.23971 0.0
C3682 C 0.95193 0.80019 0.22027 0.0
C3683 C 0.93765 0.79826 0.24963 0.0
C3684 C 0.98656 0.80712 0.22154 0.0
C3685 C 0.98323 0.80292 0.181 0.0
N3686 N 0.95277 0.79964 0.23986 0.0
N3687 N 0.96803 0.80054 0.19065 0.0
H3688 H 0.50836 0.32289 0.07501 0.0
H3689 H 0.57135 0.42526 0.05584 0.0
H3690 H 0.55728 0.35514 0.11332 0.0
H3691 H 0.51567 0.40086 0.02801 0.0
H3692 H 0.56862 0.39707 0.07384 0.0
H3693 H 0.51297 0.34899 0.05458 0.0
C3694 C 0.52002 0.3355 0.07921 0.0
C3695 C 0.53234 0.33688 0.09605 0.0
C3696 C 0.55707 0.39786 0.06368 0.0
C3697 C 0.5379 0.36665 0.07245 0.0
C3698 C 0.55859 0.41396 0.05343 0.0
C3699 C 0.54368 0.41555 0.04044 0.0
C3700 C 0.54057 0.38317 0.06085 0.0
C3701 C 0.52762 0.40021 0.03764 0.0
C3702 C 0.52271 0.35033 0.06744 0.0
C3703 C 0.5475 0.35334 0.10041 0.0
N3704 N 0.52647 0.38473 0.04782 0.0
N3705 N 0.54982 0.36761 0.08871 0.0
H3706 H 0.99555 0.28071 0.30478 0.0
H3707 H 0.93486 0.33928 0.24585 0.0
H3708 H 0.01729 0.33635 0.28504 0.0
H3709 H 0.91296 0.28527 0.26834 0.0
H3710 H 0.96595 0.33424 0.25326 0.0
H3711 H 0.96631 0.27797 0.28481 0.0
C3712 C 0.99422 0.29221 0.29603 0.0
C3713 C 1.0087 0.30899 0.29685 0.0
C3714 C 0.95432 0.32329 0.25624 0.0
C3715 C 0.97533 0.30602 0.27406 0.0
C3716 C 0.93659 0.32619 0.25207 0.0
C3717 C 0.92134 0.31289 0.25684 0.0
C3718 C 0.95682 0.30706 0.26542 0.0
C3719 C 0.92431 0.29595 0.26446 0.0
C3720 C 0.97756 0.29062 0.28458 0.0
C3721 C 1.00644 0.32322 0.28489 0.0
N3722 N 0.94173 0.29371 0.26883 0.0
N3723 N 0.98993 0.32159 0.27424 0.0
H3724 H 0.98835 0.66481 0.56664 0.0
H3725 H 0.05609 0.59444 0.53997 0.0
H3726 H 0.03136 0.65826 0.60944 0.0
H3727 H 0.9977 0.57308 0.52221 0.0
H3728 H 0.04998 0.6241 0.55978 0.0
H3729 H 0.99396 0.63623 0.54484 0.0
C3730 C 0.99886 0.65741 0.57161 0.0
C3731 C 1.0094 0.66417 0.59006 0.0
C3732 C 0.03856 0.61293 0.55142 0.0
C3733 C 0.01631 0.63208 0.5647 0.0
C3734 C 0.042 0.59606 0.54018 0.0
C3735 C 0.02732 0.58113 0.52993 0.0
C3736 C 0.02037 0.61513 0.55184 0.0
C3737 C 1.00936 0.58419 0.53018 0.0
C3738 C 1.00213 0.64123 0.55903 0.0
C3739 C 0.02315 0.65411 0.59527 0.0
N3740 N 1.00635 0.60091 0.54102 0.0
N3741 N 0.02631 0.63871 0.58259 0.0
H3742 H 0.68616 0.86864 0.82233 0.0
H3743 H 0.73249 0.78461 0.77082 0.0
H3744 H 0.65807 0.80689 0.80239 0.0
H3745 H 0.7617 0.84604 0.79044 0.0
H3746 H 0.70374 0.79417 0.7771 0.0
H3747 H 0.71247 0.86233 0.80573 0.0
C3748 C 0.68541 0.85384 0.81425 0.0
C3749 C 0.66996 0.83821 0.814 0.0
C3750 C 0.71639 0.80563 0.77985 0.0
C3751 C 0.69996 0.83091 0.795 0.0
C3752 C 0.73285 0.80016 0.7763 0.0
C3753 C 0.74958 0.81446 0.78047 0.0
C3754 C 0.71665 0.82552 0.78785 0.0
C3755 C 0.74914 0.83446 0.78723 0.0
C3756 C 0.7004 0.85028 0.80473 0.0
C3757 C 0.66959 0.81945 0.80296 0.0
N3758 N 0.73296 0.83935 0.791 0.0
N3759 N 0.68446 0.81628 0.79415 0.0
H3760 H 0.46641 0.53245 0.64851 0.0
H3761 H 0.55096 0.5857 0.59402 0.0
H3762 H 0.50466 0.58811 0.67281 0.0
H3763 H 0.51303 0.53138 0.56574 0.0
H3764 H 0.53352 0.5862 0.62219 0.0
H3765 H 0.48222 0.53116 0.6188 0.0
C3766 C 0.47812 0.54445 0.64792 0.0
C3767 C 0.48382 0.56048 0.66398 0.0
C3768 C 0.52876 0.57416 0.60988 0.0
C3769 C 0.50242 0.55901 0.62875 0.0
C3770 C 0.5388 0.57385 0.59349 0.0
C3771 C 0.53366 0.55863 0.57681 0.0
C3772 C 0.51306 0.55896 0.61043 0.0
C3773 C 0.51763 0.54375 0.57775 0.0
C3774 C 0.48717 0.54369 0.63059 0.0
C3775 C 0.49916 0.57547 0.66129 0.0
N3776 N 0.5081 0.54427 0.59408 0.0
N3777 N 0.5077 0.57429 0.64443 0.0
H3778 H 0.74391 0.19223 0.93749 0.0
H3779 H 0.78629 0.29745 0.91298 0.0
H3780 H 0.77054 0.24189 0.98263 0.0
H3781 H 0.74125 0.25638 0.87512 0.0
H3782 H 0.77931 0.27845 0.93932 0.0
H3783 H 0.74158 0.21576 0.91469 0.0
C3784 C 0.74904 0.20814 0.94262 0.0
C3785 C 0.75756 0.2152 0.96184 0.0
C3786 C 0.77074 0.27381 0.92535 0.0
C3787 C 0.75515 0.24209 0.93593 0.0
C3788 C 0.77464 0.28475 0.91027 0.0
C3789 C 0.76458 0.27834 0.89159 0.0
C3790 C 0.75693 0.25611 0.92166 0.0
C3791 C 0.74978 0.26154 0.88906 0.0
C3792 C 0.74762 0.22155 0.92968 0.0
C3793 C 0.76386 0.23591 0.9679 0.0
N3794 N 0.74664 0.25076 0.9038 0.0
N3795 N 0.76283 0.24864 0.95487 0.0
H3796 H 0.1212 0.55584 0.16118 0.0
H3797 H 0.04958 0.50067 0.07069 0.0
H3798 H 0.1137 0.49202 0.14252 0.0
H3799 H 0.08083 0.56112 0.07357 0.0
H3800 H 0.07046 0.49682 0.09856 0.0
H3801 H 0.10417 0.55796 0.13056 0.0
C3802 C 0.11633 0.54227 0.15058 0.0
C3803 C 0.11917 0.5237 0.15457 0.0
C3804 C 0.07281 0.51082 0.09291 0.0
C3805 C 0.09881 0.52609 0.11959 0.0
C3806 C 0.06088 0.51306 0.07717 0.0
C3807 C 0.06353 0.53125 0.07 0.0
C3808 C 0.08712 0.52707 0.10169 0.0
C3809 C 0.07839 0.54685 0.0787 0.0
C3810 C 0.10643 0.54353 0.1331 0.0
C3811 C 0.11171 0.50662 0.14033 0.0
N3812 N 0.08951 0.54449 0.09427 0.0
N3813 N 0.10169 0.50819 0.12354 0.0
H3814 H 0.83547 0.8382 0.4427 0.0
H3815 H 0.7757 0.81803 0.33726 0.0
H3816 H 0.78253 0.85297 0.43275 0.0
H3817 H 0.83277 0.81435 0.34466 0.0
H3818 H 0.77724 0.82805 0.37257 0.0
H3819 H 0.83385 0.82638 0.4074 0.0
C3820 C 0.82342 0.83878 0.43314 0.0
C3821 C 0.80914 0.84667 0.44076 0.0
C3822 C 0.78945 0.82507 0.36651 0.0
C3823 C 0.80725 0.83326 0.40026 0.0
C3824 C 0.78859 0.81929 0.34627 0.0
C3825 C 0.80416 0.81535 0.33781 0.0
C3826 C 0.80595 0.82683 0.37861 0.0
C3827 C 0.82043 0.8173 0.35043 0.0
C3828 C 0.82258 0.83217 0.41296 0.0
C3829 C 0.79397 0.84725 0.42757 0.0
N3830 N 0.82089 0.82285 0.37016 0.0
N3831 N 0.79343 0.84064 0.40806 0.0
H3832 H 0.4938 0.53567 0.85936 0.0
H3833 H 0.52826 0.58486 0.97332 0.0
H3834 H 0.48187 0.5911 0.8856 0.0
H3835 H 0.52667 0.52323 0.95054 0.0
H3836 H 0.514 0.58865 0.94111 0.0
H3837 H 0.50824 0.53223 0.8915 0.0
C3838 C 0.49425 0.54728 0.87172 0.0
C3839 C 0.48635 0.56378 0.86918 0.0
C3840 C 0.51677 0.57428 0.94308 0.0
C3841 C 0.50338 0.55982 0.90698 0.0
C3842 C 0.52505 0.57207 0.96163 0.0
C3843 C 0.52888 0.55362 0.96516 0.0
C3844 C 0.51233 0.55804 0.92735 0.0
C3845 C 0.52413 0.53779 0.94896 0.0
C3846 C 0.5025 0.54519 0.8903 0.0
C3847 C 0.48744 0.57798 0.88638 0.0
N3848 N 0.51632 0.54038 0.93105 0.0
N3849 N 0.49577 0.57574 0.9042 0.0
H3850 H 0.76878 0.23561 0.11648 0.0
H3851 H 0.78274 0.2487 0.23336 0.0
H3852 H 0.7744 0.18795 0.14881 0.0
H3853 H 0.78797 0.29818 0.20124 0.0
H3854 H 0.77294 0.22544 0.20252 0.0
H3855 H 0.76926 0.25773 0.14739 0.0
C3856 C 0.76982 0.22971 0.13008 0.0
C3857 C 0.77174 0.20998 0.13013 0.0
C3858 C 0.77602 0.24139 0.20223 0.0
C3859 C 0.77245 0.23522 0.16548 0.0
C3860 C 0.78154 0.25466 0.21982 0.0
C3861 C 0.78642 0.27534 0.21974 0.0
C3862 C 0.77538 0.24887 0.18448 0.0
C3863 C 0.78451 0.2823 0.20185 0.0
C3864 C 0.7702 0.24238 0.1477 0.0
C3865 C 0.77321 0.20317 0.14816 0.0
N3866 N 0.77932 0.26907 0.18487 0.0
N3867 N 0.77365 0.21581 0.16513 0.0
H3868 H 0.0619 0.50097 0.30482 0.0
H3869 H 0.02956 0.54913 0.40356 0.0
H3870 H 0.08334 0.56187 0.33377 0.0
H3871 H 0.02704 0.48593 0.38723 0.0
H3872 H 0.04005 0.55468 0.372 0.0
H3873 H 0.03984 0.49647 0.32896 0.0
C3874 C 0.06157 0.51353 0.31594 0.0
C3875 C 0.07448 0.53174 0.31756 0.0
C3876 C 0.03686 0.53957 0.37524 0.0
C3877 C 0.04954 0.52673 0.34502 0.0
C3878 C 0.03097 0.53638 0.39327 0.0
C3879 C 0.02788 0.51709 0.3983 0.0
C3880 C 0.03951 0.52336 0.36208 0.0
C3881 C 0.02933 0.50107 0.38408 0.0
C3882 C 0.04911 0.51094 0.32973 0.0
C3883 C 0.07368 0.54755 0.33225 0.0
N3884 N 0.0353 0.5046 0.36671 0.0
N3885 N 0.06153 0.54463 0.34557 0.0
H3886 H 0.82781 0.82522 0.62943 0.0
H3887 H 0.80485 0.83627 0.74056 0.0
H3888 H 0.80389 0.87312 0.65447 0.0
H3889 H 0.80272 0.77936 0.70498 0.0
H3890 H 0.81067 0.85272 0.71168 0.0
H3891 H 0.82494 0.81083 0.65965 0.0
C3892 C 0.8221 0.8328 0.64135 0.0
C3893 C 0.81599 0.85034 0.63936 0.0
C3894 C 0.80905 0.83665 0.7103 0.0
C3895 C 0.81284 0.83407 0.67412 0.0
C3896 C 0.80585 0.82732 0.72678 0.0
C3897 C 0.80327 0.80646 0.72514 0.0
C3898 C 0.81009 0.82504 0.69222 0.0
C3899 C 0.80456 0.79548 0.70687 0.0
C3900 C 0.82039 0.82454 0.65856 0.0
C3901 C 0.80859 0.85946 0.6553 0.0
N3902 N 0.80795 0.80487 0.6912 0.0
N3903 N 0.80729 0.85128 0.67203 0.0
H3904 H 0.75885 0.5348 0.53902 0.0
H3905 H 0.66679 0.55427 0.48811 0.0
H3906 H 0.74447 0.52304 0.47617 0.0
H3907 H 0.68836 0.57728 0.54859 0.0
H3908 H 0.69582 0.5444 0.48276 0.0
H3909 H 0.73418 0.55249 0.54222 0.0
C3910 C 0.75078 0.53625 0.52581 0.0
C3911 C 0.75376 0.52724 0.50727 0.0
C3912 C 0.69428 0.55188 0.49712 0.0
C3913 C 0.72495 0.54709 0.51096 0.0
C3914 C 0.6777 0.55741 0.5002 0.0
C3915 C 0.67512 0.56647 0.51885 0.0
C3916 C 0.70825 0.55521 0.51288 0.0
C3917 C 0.68978 0.57045 0.53394 0.0
C3918 C 0.73654 0.54627 0.52769 0.0
C3919 C 0.74247 0.52935 0.49079 0.0
N3920 N 0.70562 0.56457 0.53068 0.0
N3921 N 0.72841 0.53884 0.49304 0.0
H3922 H 0.18001 0.14757 0.51796 0.0
H3923 H 0.11028 0.0405 0.486 0.0
H3924 H 0.19115 0.09866 0.47836 0.0
H3925 H 0.09704 0.08921 0.5238 0.0
H3926 H 0.13953 0.06225 0.48239 0.0
H3927 H 0.14931 0.12727 0.51958 0.0
C3928 C 0.17599 0.13264 0.50946 0.0
C3929 C 0.18831 0.12485 0.49803 0.0
C3930 C 0.13024 0.06831 0.49141 0.0
C3931 C 0.15314 0.10139 0.50004 0.0
C3932 C 0.11348 0.05588 0.49348 0.0
C3933 C 0.10116 0.06306 0.50524 0.0
C3934 C 0.13489 0.08817 0.50128 0.0
C3935 C 0.10607 0.0831 0.51455 0.0
C3936 C 0.15846 0.12101 0.51049 0.0
C3937 C 0.18232 0.10526 0.48761 0.0
N3938 N 0.1226 0.09496 0.51246 0.0
N3939 N 0.16524 0.09425 0.4889 0.0
H3940 H 0.25582 0.94945 0.77795 0.0
H3941 H 0.24576 0.82923 0.77455 0.0
H3942 H 0.2034 0.9085 0.77641 0.0
H3943 H 0.29745 0.87028 0.77348 0.0
H3944 H 0.23023 0.85746 0.77555 0.0
H3945 H 0.27083 0.92111 0.77653 0.0
C3946 C 0.2472 0.93467 0.77719 0.0
C3947 C 0.22784 0.93218 0.77727 0.0
C3948 C 0.24497 0.86039 0.77508 0.0
C3949 C 0.24579 0.89846 0.77588 0.0
C3950 C 0.25399 0.84407 0.77447 0.0
C3951 C 0.27326 0.84681 0.77384 0.0
C3952 C 0.25502 0.88018 0.77514 0.0
C3953 C 0.2827 0.8669 0.77389 0.0
C3954 C 0.25602 0.91823 0.7765 0.0
C3955 C 0.2182 0.91198 0.77664 0.0
N3956 N 0.27365 0.88244 0.77453 0.0
N3957 N 0.22712 0.8963 0.77598 0.0
H3958 H 0.41194 0.04047 0.99207 0.0
H3959 H 0.5128 0.06394 0.04957 0.0
H3960 H 0.42292 0.03868 0.05379 0.0
H3961 H 0.5 0.05239 0.98658 0.0
H3962 H 0.48044 0.06419 0.05259 0.0
H3963 H 0.44443 0.05515 0.99157 0.0
C3964 C 0.42108 0.04367 1.00566 0.0
C3965 C 0.41478 0.03797 0.02293 0.0
C3966 C 0.48481 0.06187 0.03813 0.0
C3967 C 0.45209 0.05428 0.0223 0.0
C3968 C 0.50324 0.06171 0.03639 0.0
C3969 C 0.50895 0.05762 0.0178 0.0
C3970 C 0.47213 0.05808 0.02116 0.0
C3971 C 0.49608 0.05509 1.00121 0.0
C3972 C 0.43969 0.05189 1.00531 0.0
C3973 C 0.42732 0.04239 0.04005 0.0
N3974 N 0.47823 0.05516 1.00329 0.0
N3975 N 0.44548 0.04997 0.03924 0.0
H3976 H 0.86865 0.60235 0.73741 0.0
H3977 H 0.84426 0.70992 0.75065 0.0
H3978 H 0.90328 0.65482 0.77376 0.0
H3979 H 0.80251 0.65488 0.73899 0.0
H3980 H 0.86804 0.6905 0.75035 0.0
H3981 H 0.84632 0.62234 0.72946 0.0
C3982 C 0.87167 0.61817 0.7434 0.0
C3983 C 0.88769 0.62703 0.75631 0.0
C3984 C 0.85367 0.68269 0.74759 0.0
C3985 C 0.86246 0.6498 0.74728 0.0
C3986 C 0.84011 0.69373 0.74758 0.0
C3987 C 0.82142 0.68394 0.74486 0.0
C3988 C 0.84851 0.66173 0.74471 0.0
C3989 C 0.81679 0.66294 0.74129 0.0
C3990 C 0.85893 0.62948 0.73897 0.0
C3991 C 0.89097 0.64749 0.76387 0.0
N3992 N 0.83029 0.65248 0.74139 0.0
N3993 N 0.87842 0.65821 0.75925 0.0
H3994 H 0.863 0.62587 0.97825 0.0
H3995 H 0.94395 0.60059 0.04709 0.0
H3996 H 0.87213 0.64381 0.04109 0.0
H3997 H 0.93333 0.58041 0.98459 0.0
H3998 H 0.9187 0.61794 0.04495 0.0
H3999 H 0.88928 0.61005 0.98014 0.0
C4000 C 0.87044 0.62641 0.99247 0.0
C4001 C 0.86523 0.63621 1.00954 0.0
C4002 C 0.92192 0.60976 0.03169 0.0
C4003 C 0.89562 0.61826 1.01178 0.0
C4004 C 0.93646 0.59997 0.03287 0.0
C4005 C 0.94081 0.58894 0.016 0.0
C4006 C 0.9116 0.6086 0.01349 0.0
C4007 C 0.93035 0.58846 0.99804 0.0
C4008 C 0.88555 0.61747 0.99353 0.0
C4009 C 0.8757 0.63669 0.0275 0.0
N4010 N 0.91626 0.5981 0.99727 0.0
N4011 N 0.89033 0.62784 0.02814 0.0
H4012 H 0.25819 0.12944 0.76611 0.0
H4013 H 0.26365 0.2491 0.78744 0.0
H4014 H 0.21676 0.15412 0.79414 0.0
H4015 H 0.30514 0.22256 0.76205 0.0
H4016 H 0.24552 0.21523 0.78888 0.0
H4017 H 0.27451 0.16334 0.76362 0.0
C4018 C 0.2523 0.14183 0.77167 0.0
C4019 C 0.23573 0.13827 0.78033 0.0
C4020 C 0.25849 0.21678 0.78277 0.0
C4021 C 0.25502 0.17823 0.7776 0.0
C4022 C 0.26878 0.23628 0.78163 0.0
C4023 C 0.2859 0.23907 0.77405 0.0
C4024 C 0.26525 0.19962 0.77635 0.0
C4025 C 0.29202 0.22146 0.76781 0.0
C4026 C 0.26184 0.16144 0.77032 0.0
C4027 C 0.22945 0.15562 0.78752 0.0
N4028 N 0.28184 0.20282 0.76904 0.0
N4029 N 0.23896 0.17456 0.78595 0.0
H4030 H 0.39961 0.9336 0.2636 0.0
H4031 H 0.31214 0.86419 0.28569 0.0
H4032 H 0.34902 0.95473 0.2604 0.0
H4033 H 0.34272 0.84058 0.24156 0.0
H4034 H 0.32802 0.89829 0.28261 0.0
H4035 H 0.3815 0.89956 0.26066 0.0
C4036 C 0.38476 0.93125 0.26196 0.0
C4037 C 0.37596 0.94739 0.26231 0.0
C4038 C 0.3311 0.88558 0.27355 0.0
C4039 C 0.35533 0.90834 0.25992 0.0
C4040 C 0.32222 0.86623 0.2754 0.0
C4041 C 0.3263 0.84971 0.26394 0.0
C4042 C 0.34448 0.88824 0.26063 0.0
C4043 C 0.33928 0.85303 0.25065 0.0
C4044 C 0.37448 0.91174 0.26044 0.0
C4045 C 0.35657 0.94304 0.26076 0.0
N4046 N 0.34822 0.87199 0.24959 0.0
N4047 N 0.34691 0.92395 0.25999 0.0
H4048 H 0.60793 0.42845 0.59448 0.0
H4049 H 0.54213 0.47371 0.52467 0.0
H4050 H 0.55821 0.39357 0.55924 0.0
H4051 H 0.59495 0.50798 0.55368 0.0
H4052 H 0.54838 0.44418 0.53685 0.0
H4053 H 0.60415 0.45748 0.57935 0.0
C4054 C 0.59632 0.42678 0.58344 0.0
C4055 C 0.58329 0.40844 0.57831 0.0
C4056 C 0.5587 0.45809 0.54049 0.0
C4057 C 0.57876 0.44184 0.56107 0.0
C4058 C 0.55513 0.47504 0.53351 0.0
C4059 C 0.56799 0.49348 0.53818 0.0
C4060 C 0.57522 0.45947 0.55243 0.0
C4061 C 0.58462 0.49411 0.54966 0.0
C4062 C 0.59412 0.44344 0.57488 0.0
C4063 C 0.56842 0.4074 0.56404 0.0
N4064 N 0.58768 0.47742 0.55651 0.0
N4065 N 0.56654 0.42382 0.55605 0.0
H4066 H 0.42693 0.75043 0.32437 0.0
H4067 H 0.34077 0.80032 0.31186 0.0
H4068 H 0.40897 0.78382 0.37365 0.0
H4069 H 0.3461 0.74788 0.27308 0.0
H4070 H 0.36737 0.79723 0.33366 0.0
H4071 H 0.399 0.75182 0.30423 0.0
C4072 C 0.41713 0.75789 0.33112 0.0
C4073 C 0.42057 0.76702 0.35093 0.0
C4074 C 0.36262 0.78635 0.32042 0.0
C4075 C 0.38858 0.76915 0.3275 0.0
C4076 C 0.34745 0.7881 0.308 0.0
C4077 C 0.34118 0.77432 0.29065 0.0
C4078 C 0.37182 0.77094 0.31525 0.0
C4079 C 0.35045 0.75884 0.2863 0.0
C4080 C 0.40118 0.75878 0.31949 0.0
C4081 C 0.40731 0.77689 0.35844 0.0
N4082 N 0.36537 0.75768 0.29839 0.0
N4083 N 0.39204 0.77781 0.34672 0.0
H4084 H 0.09831 0.71194 0.07405 0.0
H4085 H 0.0271 0.6068 0.03528 0.0
H4086 H 0.03932 0.7054 0.06736 0.0
H4087 H 0.08617 0.61414 0.04449 0.0
H4088 H 0.03109 0.64299 0.04517 0.0
H4089 H 0.09394 0.67636 0.06128 0.0
C4090 C 0.08442 0.70302 0.06987 0.0
C4091 C 0.06916 0.71169 0.07195 0.0
C4092 C 0.04317 0.63666 0.04497 0.0
C4093 C 0.06402 0.67077 0.05718 0.0
C4094 C 0.0409 0.61598 0.03935 0.0
C4095 C 0.05631 0.60732 0.03914 0.0
C4096 C 0.06097 0.64881 0.05041 0.0
C4097 C 0.07386 0.62004 0.04448 0.0
C4098 C 0.08192 0.68268 0.06251 0.0
C4099 C 0.05149 0.69942 0.06591 0.0
N4100 N 0.07568 0.64008 0.04992 0.0
N4101 N 0.0494 0.67956 0.05893 0.0
H4102 H 0.10207 0.2477 0.85437 0.0
H4103 H 0.17418 0.31725 0.80027 0.0
H4104 H 0.0987 0.30784 0.84714 0.0
H4105 H 0.18362 0.26343 0.81989 0.0
H4106 H 0.14534 0.31308 0.81517 0.0
H4107 H 0.13083 0.25223 0.83963 0.0
C4108 C 0.10737 0.2619 0.84979 0.0
C4109 C 0.09786 0.27743 0.85214 0.0
C4110 C 0.15376 0.30224 0.81628 0.0
C4111 C 0.13081 0.28258 0.83488 0.0
C4112 C 0.17019 0.30457 0.80772 0.0
C4113 C 0.18138 0.29071 0.80888 0.0
C4114 C 0.14834 0.28579 0.82589 0.0
C4115 C 0.17557 0.27463 0.81885 0.0
C4116 C 0.1238 0.26444 0.84127 0.0
C4117 C 0.10532 0.29531 0.84543 0.0
N4118 N 0.15944 0.27257 0.82687 0.0
N4119 N 0.12131 0.29739 0.83712 0.0
H4120 H 0.62539 0.76597 0.97273 0.0
H4121 H 0.57564 0.652 0.96527 0.0
H4122 H 0.60637 0.72655 0.91757 0.0
H4123 H 0.60849 0.6865 0.01803 0.0
H4124 H 0.58764 0.67878 0.94738 0.0
H4125 H 0.62044 0.73691 0.9896 0.0
C4126 C 0.62045 0.75114 0.96418 0.0
C4127 C 0.61617 0.74861 0.94378 0.0
C4128 C 0.59236 0.68041 0.96283 0.0
C4129 C 0.6102 0.7154 0.96291 0.0
C4130 C 0.58556 0.66507 0.97308 0.0
C4131 C 0.59092 0.66701 0.99328 0.0
C4132 C 0.60445 0.69796 0.97287 0.0
C4133 C 0.60361 0.68451 1.00259 0.0
C4134 C 0.61764 0.73457 0.97378 0.0
C4135 C 0.60991 0.72911 0.93332 0.0
N4136 N 0.6098 0.69938 0.99236 0.0
N4137 N 0.60684 0.71325 0.94303 0.0
H4138 H 0.08676 0.73802 0.71987 0.0
H4139 H 0.18186 0.80308 0.77744 0.0
H4140 H 0.09856 0.80246 0.73428 0.0
H4141 H 0.16813 0.73847 0.76441 0.0
H4142 H 0.15007 0.80326 0.76575 0.0
H4143 H 0.1151 0.73791 0.74002 0.0
C4144 C 0.09535 0.75215 0.72736 0.0
C4145 C 0.09055 0.7703 0.72518 0.0
C4146 C 0.15397 0.78905 0.76575 0.0
C4147 C 0.12299 0.77034 0.74828 0.0
C4148 C 0.17211 0.78894 0.77235 0.0
C4149 C 0.17772 0.77074 0.77168 0.0
C4150 C 0.14142 0.77084 0.7583 0.0
C4151 C 0.16445 0.75285 0.76529 0.0
C4152 C 0.11147 0.75209 0.73895 0.0
C4153 C 0.10187 0.78817 0.73554 0.0
N4154 N 0.14699 0.75337 0.75863 0.0
N4155 N 0.11774 0.78777 0.74646 0.0
H4156 H 0.05587 0.41425 0.44505 0.0
H4157 H 0.09947 0.50931 0.52702 0.0
H4158 H 0.11441 0.4342 0.46262 0.0
H4159 H 0.04171 0.48039 0.51813 0.0
H4160 H 0.1055 0.48227 0.50344 0.0
H4161 H 0.05052 0.43919 0.47119 0.0
C4162 C 0.0676 0.424 0.45436 0.0
C4163 C 0.08561 0.42232 0.4516 0.0
C4164 C 0.09154 0.48172 0.50681 0.0
C4165 C 0.0796 0.45072 0.48169 0.0
C4166 C 0.08811 0.49708 0.5203 0.0
C4167 C 0.07005 0.49706 0.52432 0.0
C4168 C 0.07676 0.46634 0.49728 0.0
C4169 C 0.0558 0.48098 0.51523 0.0
C4170 C 0.06454 0.4381 0.4694 0.0
C4171 C 0.10031 0.43502 0.46432 0.0
N4172 N 0.05944 0.46634 0.50196 0.0
N4173 N 0.09699 0.4488 0.47876 0.0
H4174 H 0.41024 0.22917 0.19236 0.0
H4175 H 0.37312 0.3083 0.26425 0.0
H4176 H 0.44369 0.28607 0.22174 0.0
H4177 H 0.34177 0.24799 0.24308 0.0
H4178 H 0.39947 0.29971 0.24962 0.0
H4179 H 0.38527 0.23495 0.21153 0.0
C4180 C 0.41238 0.2428 0.20292 0.0
C4181 C 0.42899 0.2573 0.20523 0.0
C4182 C 0.38689 0.28827 0.24828 0.0
C4183 C 0.40049 0.26406 0.22706 0.0
C4184 C 0.37181 0.29319 0.25664 0.0
C4185 C 0.35514 0.27891 0.25469 0.0
C4186 C 0.38526 0.26899 0.23771 0.0
C4187 C 0.35431 0.25951 0.24481 0.0
C4188 C 0.39812 0.24611 0.21382 0.0
C4189 C 0.43097 0.27471 0.21908 0.0
N4190 N 0.36912 0.25517 0.23648 0.0
N4191 N 0.41687 0.27765 0.22935 0.0
H4192 H 0.59406 0.51688 0.36766 0.0
H4193 H 0.59861 0.5547 0.48537 0.0
H4194 H 0.64532 0.54789 0.40225 0.0
H4195 H 0.5514 0.51674 0.44867 0.0
H4196 H 0.61612 0.55407 0.45641 0.0
H4197 H 0.57871 0.51857 0.39738 0.0
C4198 C 0.60226 0.52424 0.38135 0.0
C4199 C 0.62137 0.53228 0.3817 0.0
C4200 C 0.60192 0.54584 0.45471 0.0
C4201 C 0.60318 0.53421 0.41711 0.0
C4202 C 0.59185 0.54615 0.47144 0.0
C4203 C 0.57323 0.53563 0.46999 0.0
C4204 C 0.59344 0.53511 0.43603 0.0
C4205 C 0.56557 0.52511 0.45102 0.0
C4206 C 0.59334 0.52508 0.39862 0.0
C4207 C 0.63072 0.54121 0.40066 0.0
N4208 N 0.57547 0.5252 0.43522 0.0
N4209 N 0.62167 0.54198 0.41726 0.0
H4210 H 0.33793 0.91968 0.11237 0.0
H4211 H 0.32103 0.8068 0.13162 0.0
H4212 H 0.32967 0.86835 0.06659 0.0
H4213 H 0.33437 0.85797 0.17805 0.0
H4214 H 0.32652 0.82931 0.10774 0.0
H4215 H 0.33902 0.89764 0.13682 0.0
C4216 C 0.33656 0.90381 0.10747 0.0
C4217 C 0.33344 0.89579 0.08743 0.0
C4218 C 0.32839 0.83564 0.12316 0.0
C4219 C 0.33448 0.8705 0.11526 0.0
C4220 C 0.32537 0.82276 0.13683 0.0
C4221 C 0.32709 0.8305 0.15688 0.0
C4222 C 0.33306 0.85644 0.12954 0.0
C4223 C 0.3325 0.85136 0.16272 0.0
C4224 C 0.33711 0.89123 0.12142 0.0
C4225 C 0.33166 0.87511 0.0819 0.0
N4226 N 0.33516 0.86362 0.14909 0.0
N4227 N 0.33206 0.86316 0.09573 0.0
H4228 H 0.95288 0.55063 0.91139 0.0
H4229 H 0.0519 0.58865 0.97451 0.0
H4230 H 0.99668 0.59436 0.89502 0.0
H4231 H 0.01504 0.53189 0.97532 0.0
H4232 H 0.02936 0.596 0.95031 0.0
H4233 H 0.97284 0.54951 0.9408 0.0
C4234 C 0.96659 0.56021 0.91413 0.0
C4235 C 0.97324 0.57233 0.90055 0.0
C4236 C 0.02616 0.58206 0.956 0.0
C4237 C 0.99608 0.57111 0.93411 0.0
C4238 C 0.039 0.57783 0.96969 0.0
C4239 C 0.03515 0.55974 0.977 0.0
C4240 C 1.00939 0.56811 0.94977 0.0
C4241 C 0.0183 0.54621 0.97037 0.0
C4242 C 0.97797 0.55954 0.93088 0.0
C4243 C 0.99098 0.58479 0.90507 0.0
N4244 N 1.00602 0.55067 0.95713 0.0
N4245 N 1.0019 0.58368 0.92137 0.0
H4246 H 0.32228 0.23617 0.6175 0.0
H4247 H 0.27099 0.28278 0.7032 0.0
H4248 H 0.27265 0.25719 0.60602 0.0
H4249 H 0.32656 0.27433 0.71195 0.0
H4250 H 0.27043 0.27208 0.66788 0.0
H4251 H 0.32326 0.24877 0.65239 0.0
C4252 C 0.31159 0.24348 0.62233 0.0
C4253 C 0.29733 0.24556 0.60879 0.0
C4254 C 0.28275 0.27265 0.67755 0.0
C4255 C 0.29831 0.26001 0.64889 0.0
C4256 C 0.28307 0.27869 0.69775 0.0
C4257 C 0.29884 0.27947 0.71069 0.0
C4258 C 0.29823 0.26713 0.67019 0.0
C4259 C 0.31408 0.27404 0.70266 0.0
C4260 C 0.31219 0.25074 0.64227 0.0
C4261 C 0.28397 0.25538 0.61591 0.0
N4262 N 0.31335 0.26803 0.68302 0.0
N4263 N 0.28469 0.26209 0.63547 0.0
H4264 H 0.63164 0.5618 0.17851 0.0
H4265 H 0.5678 0.50665 0.07682 0.0
H4266 H 0.60567 0.4989 0.16812 0.0
H4267 H 0.58775 0.5706 0.09134 0.0
H4268 H 0.5823 0.5032 0.10903 0.0
H4269 H 0.61693 0.56482 0.14645 0.0
C4270 C 0.62299 0.54848 0.1696 0.0
C4271 C 0.62025 0.52997 0.17665 0.0
C4272 C 0.58354 0.51802 0.10524 0.0
C4273 C 0.60281 0.53353 0.13886 0.0
C4274 C 0.57521 0.52005 0.08664 0.0
C4275 C 0.57631 0.53902 0.08084 0.0
C4276 C 0.59341 0.53504 0.11858 0.0
C4277 C 0.58627 0.55561 0.09475 0.0
C4278 C 0.6144 0.55031 0.1511 0.0
C4279 C 0.60835 0.5136 0.1639 0.0
N4280 N 0.59434 0.55324 0.11262 0.0
N4281 N 0.6003 0.51574 0.1459 0.0
H4282 H 0.30911 0.85976 0.92681 0.0
H4283 H 0.32356 0.84177 0.81526 0.0
H4284 H 0.34581 0.90305 0.90114 0.0
H4285 H 0.30637 0.79266 0.84639 0.0
H4286 H 0.33189 0.86452 0.84645 0.0
H4287 H 0.30745 0.83492 0.89744 0.0
C4288 C 0.31686 0.86397 0.91499 0.0
C4289 C 0.32749 0.88347 0.91625 0.0
C4290 C 0.3266 0.84871 0.8465 0.0
C4291 C 0.32563 0.85527 0.88272 0.0
C4292 C 0.32191 0.8357 0.8287 0.0
C4293 C 0.31432 0.81531 0.82828 0.0
C4294 C 0.32327 0.84135 0.86398 0.0
C4295 C 0.31218 0.8083 0.84611 0.0
C4296 C 0.31604 0.84978 0.89834 0.0
C4297 C 0.33748 0.88815 0.90069 0.0
N4298 N 0.31637 0.82138 0.86328 0.0
N4299 N 0.33612 0.87421 0.88443 0.0
H4300 H 0.03161 0.59041 0.74782 0.0
H4301 H 0.07175 0.53651 0.65797 0.0
H4302 H 0.02705 0.52653 0.73524 0.0
H4303 H 0.06923 0.59886 0.66714 0.0
H4304 H 0.06252 0.53395 0.69062 0.0
H4305 H 0.05285 0.59492 0.72334 0.0
C4306 C 0.03541 0.57733 0.74027 0.0
C4307 C 0.02727 0.558 0.74338 0.0
C4308 C 0.06431 0.54827 0.6856 0.0
C4309 C 0.05127 0.56308 0.71489 0.0
C4310 C 0.06949 0.54972 0.66694 0.0
C4311 C 0.0709 0.56782 0.65964 0.0
C4312 C 0.06048 0.56502 0.697 0.0
C4313 C 0.0683 0.58459 0.6721 0.0
C4314 C 0.04745 0.57993 0.72614 0.0
C4315 C 0.03264 0.54166 0.73296 0.0
N4316 N 0.06295 0.5827 0.69005 0.0
N4317 N 0.04409 0.54454 0.71895 0.0
H4318 H 0.32567 0.25955 0.42128 0.0
H4319 H 0.28308 0.264 0.31231 0.0
H4320 H 0.27217 0.22442 0.39502 0.0
H4321 H 0.3395 0.2906 0.33607 0.0
H4322 H 0.27828 0.24996 0.34254 0.0
H4323 H 0.33039 0.27184 0.39047 0.0
C4324 C 0.31492 0.25427 0.40905 0.0
C4325 C 0.2985 0.24077 0.41093 0.0
C4326 C 0.29173 0.25878 0.34109 0.0
C4327 C 0.30378 0.25519 0.37537 0.0
C4328 C 0.29449 0.26676 0.32382 0.0
C4329 C 0.31172 0.27852 0.32167 0.0
C4330 C 0.30628 0.2627 0.3564 0.0
C4331 C 0.32599 0.28165 0.33708 0.0
C4332 C 0.31761 0.26142 0.39141 0.0
C4333 C 0.28497 0.23498 0.39451 0.0
N4334 N 0.32293 0.27391 0.35378 0.0
N4335 N 0.2879 0.2422 0.37749 0.0
H4336 H 0.38661 0.62068 0.54765 0.0
H4337 H 0.42349 0.52003 0.54013 0.0
H4338 H 0.35356 0.56436 0.55661 0.0
H4339 H 0.45711 0.57814 0.53712 0.0
H4340 H 0.39809 0.53596 0.54805 0.0
H4341 H 0.41318 0.60548 0.54587 0.0
C4342 C 0.38502 0.60511 0.54935 0.0
C4343 C 0.36789 0.59368 0.5521 0.0
C4344 C 0.4111 0.54522 0.54586 0.0
C4345 C 0.39816 0.57611 0.55001 0.0
C4346 C 0.42554 0.53613 0.54124 0.0
C4347 C 0.44241 0.54778 0.53794 0.0
C4348 C 0.41355 0.56605 0.54699 0.0
C4349 C 0.44443 0.56859 0.53978 0.0
C4350 C 0.40018 0.59644 0.5484 0.0
C4351 C 0.36658 0.57367 0.55451 0.0
N4352 N 0.43014 0.57703 0.54404 0.0
N4353 N 0.3815 0.56542 0.55319 0.0
H4354 H 0.92152 0.98679 0.57658 0.0
H4355 H 1.00472 1.00918 0.51203 0.0
H4356 H 0.92511 0.94935 0.52235 0.0
H4357 H 1.00736 0.03867 0.57157 0.0
H4358 H 0.97532 0.98744 0.5155 0.0
H4359 H 0.95263 1.00622 0.57515 0.0
C4360 C 0.92884 0.98251 0.56445 0.0
C4361 C 0.92047 0.96644 0.54947 0.0
C4362 C 0.98236 0.99855 0.52789 0.0
C4363 C 0.95611 0.9889 0.54762 0.0
C4364 C 0.99921 1.01092 0.52593 0.0
C4365 C 1.00861 0.02562 0.54159 0.0
C4366 C 0.97458 1.0011 0.54555 0.0
C4367 C 1.0006 0.02747 0.55914 0.0
C4368 C 0.94661 0.99369 0.56361 0.0
C4369 C 0.9307 0.96185 0.53403 0.0
N4370 N 0.984 1.01544 0.56062 0.0
N4371 N 0.94786 0.97306 0.53346 0.0
H4372 H 0.90344 0.18544 0.26554 0.0
H4373 H 0.80817 0.22409 0.27481 0.0
H4374 H 0.85146 0.14633 0.2701 0.0
H4375 H 0.85939 0.26368 0.26894 0.0
H4376 H 0.82384 0.19611 0.27337 0.0
H4377 H 0.88818 0.2137 0.26713 0.0
C4378 C 0.88888 0.1825 0.26699 0.0
C4379 C 0.87913 0.16267 0.26768 0.0
C4380 C 0.83177 0.21086 0.2724 0.0
C4381 C 0.86098 0.19624 0.26937 0.0
C4382 C 0.82274 0.22711 0.27325 0.0
C4383 C 0.83216 0.24686 0.27205 0.0
C4384 C 0.85076 0.21377 0.27033 0.0
C4385 C 0.8512 0.24907 0.26997 0.0
C4386 C 0.88004 0.19896 0.26779 0.0
C4387 C 0.85999 0.16079 0.26923 0.0
N4388 N 0.85968 0.23302 0.26921 0.0
N4389 N 0.8518 0.17701 0.27004 0.0
H4390 H 0.70935 0.04722 0.04216 0.0
H4391 H 0.61343 0.03271 0.9765 0.0
H4392 H 0.70463 0.05992 0.98308 0.0
H4393 H 0.6232 0.04894 0.03945 0.0
H4394 H 0.64541 0.02877 0.97628 0.0
H4395 H 0.67628 0.03239 0.03789 0.0
C4396 C 0.70146 0.04629 0.02808 0.0
C4397 C 0.70957 0.05539 0.01318 0.0
C4398 C 0.64035 0.0328 0.99012 0.0
C4399 C 0.67197 0.03858 1.00827 0.0
C4400 C 0.62224 0.03514 0.99025 0.0
C4401 C 0.616 0.04168 1.00798 0.0
C4402 C 0.65195 0.03658 1.00788 0.0
C4403 C 0.62773 0.04441 0.02544 0.0
C4404 C 0.68264 0.03787 0.02568 0.0
C4405 C 0.69887 0.05333 0.99506 0.0
N4406 N 0.6452 0.04196 0.02495 0.0
N4407 N 0.68045 0.04557 0.99325 0.0
H4408 H 0.19654 0.43829 0.30514 0.0
H4409 H 0.30334 0.43553 0.31297 0.0
H4410 H 0.2388 0.48256 0.28734 0.0
H4411 H 0.25977 0.38258 0.30883 0.0
H4412 H 0.28016 0.4557 0.31215 0.0
H4413 H 0.22014 0.42031 0.31473 0.0
C4414 C 0.21081 0.44427 0.30345 0.0
C4415 C 0.21581 0.46168 0.29521 0.0
C4416 C 0.27574 0.43968 0.31167 0.0
C4417 C 0.24267 0.44159 0.30631 0.0
C4418 C 0.28893 0.42816 0.31208 0.0
C4419 C 0.2835 0.40729 0.31064 0.0
C4420 C 0.25698 0.43029 0.3099 0.0
C4421 C 0.26464 0.39862 0.31004 0.0
C4422 C 0.22421 0.43405 0.30887 0.0
C4423 C 0.23442 0.46896 0.29334 0.0
N4424 N 0.25203 0.41015 0.30947 0.0
N4425 N 0.24719 0.45885 0.29881 0.0
H4426 H 0.2195 0.43675 0.0521 0.0
H4427 H 0.1802 0.52595 0.01488 0.0
H4428 H 0.25057 0.48107 0.02257 0.0
H4429 H 0.14773 0.47981 0.04128 0.0
H4430 H 0.20618 0.50994 0.01808 0.0
H4431 H 0.19328 0.45253 0.04884 0.0
C4432 C 0.22082 0.44974 0.04485 0.0
C4433 C 0.23734 0.45753 0.03758 0.0
C4434 C 0.19338 0.50328 0.02315 0.0
C4435 C 0.20731 0.47586 0.03398 0.0
C4436 C 0.17844 0.51234 0.0212 0.0
C4437 C 0.16161 0.50419 0.02769 0.0
C4438 C 0.19162 0.48588 0.03171 0.0
C4439 C 0.16042 0.48677 0.03621 0.0
C4440 C 0.20584 0.45882 0.04309 0.0
C4441 C 0.23825 0.47465 0.02864 0.0
N4442 N 0.17519 0.47821 0.03794 0.0
N4443 N 0.22348 0.48318 0.02708 0.0
H4444 H 0.89274 0.94119 0.26694 0.0
H4445 H 0.79255 0.86937 0.26809 0.0
H4446 H 0.84207 0.96163 0.26601 0.0
H4447 H 0.8425 0.84886 0.27846 0.0
H4448 H 0.81082 0.90245 0.26595 0.0
H4449 H 0.87538 0.90746 0.26951 0.0
C4450 C 0.87799 0.93875 0.26715 0.0
C4451 C 0.86912 0.95485 0.26621 0.0
C4452 C 0.81793 0.89081 0.26863 0.0
C4453 C 0.84881 0.91542 0.26927 0.0
C4454 C 0.80742 0.87167 0.26986 0.0
C4455 C 0.81574 0.85574 0.27326 0.0
C4456 C 0.8373 0.89464 0.2707 0.0
C4457 C 0.83522 0.86022 0.27546 0.0
C4458 C 0.86804 0.91931 0.26877 0.0
C4459 C 0.84986 0.95019 0.2669 0.0
N4460 N 0.84523 0.87906 0.27408 0.0
N4461 N 0.84054 0.93119 0.26828 0.0
H4462 H 0.69016 0.15169 0.75588 0.0
H4463 H 0.78071 0.23286 0.80443 0.0
H4464 H 0.72888 0.13916 0.79953 0.0
H4465 H 0.75427 0.23123 0.74625 0.0
H4466 H 0.75937 0.20117 0.80632 0.0
H4467 H 0.71082 0.18422 0.75609 0.0
C4468 C 0.7029 0.15594 0.76571 0.0
C4469 C 0.70788 0.14279 0.77769 0.0
C4470 C 0.75834 0.20778 0.79315 0.0
C4471 C 0.73156 0.17979 0.77791 0.0
C4472 C 0.77048 0.22581 0.79205 0.0
C4473 C 0.76932 0.23459 0.7751 0.0
C4474 C 0.74479 0.19876 0.77734 0.0
C4475 C 0.75577 0.22489 0.75952 0.0
C4476 C 0.71474 0.17438 0.76569 0.0
C4477 C 0.72465 0.14888 0.78999 0.0
N4478 N 0.74395 0.20756 0.76107 0.0
N4479 N 0.73592 0.167 0.78981 0.0
loop_
_geom_bond_atom_site_label_1
_geom_bond_atom_site_label_2
_geom_bond_distance
_geom_bond_site_symmetry_2
_ccdc_geom_bond_type
Li0 N17 1.990 . S
Li0 O60 1.956 . S
Li0 O61 1.970 . S
Li0 O62 1.961 . S
Li1 N25 1.990 . S
Li1 O60 1.970 . S
Li1 O61 1.956 . S
Li1 O63 1.961 . S
Li2 N47 1.990 . S
Li2 O60 1.961 . S
Li2 O62 1.956 . S
Li2 O63 1.970 . S
Li3 N53 1.990 . S
Li3 O61 1.961 . S
Li3 O62 1.970 . S
Li3 O63 1.956 . S
C4 C6 1.348 . S
C4 C7 1.356 . S
C4 O60 1.325 . S
N5 C8 1.314 . S
N5 C9 1.279 . S
C6 C4 1.348 . S
C6 C8 1.353 . S
C6 H64 0.929 . S
C7 C4 1.356 . S
C7 C9 1.358 . S
C7 H65 0.930 . S
C8 N5 1.314 . S
C8 C6 1.353 . S
C8 H66 0.930 . S
C9 N5 1.279 . S
C9 C7 1.358 . S
C9 H67 0.930 . S
C10 C13 1.348 . S
C10 C14 1.356 . S
C10 O61 1.325 . S
C11 N12 1.279 . S
C11 C14 1.358 . S
C11 H68 0.930 . S
N12 C11 1.279 . S
N12 C15 1.314 . S
C13 C10 1.348 . S
C13 C15 1.353 . S
C13 H69 0.929 . S
C14 C10 1.356 . S
C14 C11 1.358 . S
C14 H70 0.930 . S
C15 N12 1.314 . S
C15 C13 1.353 . S
C15 H71 0.930 . S
C16 N17 1.314 . S
C16 C21 1.353 . S
C16 H22 0.930 . S
N17 Li0 1.990 . S
N17 C16 1.314 . S
N17 C19 1.279 . S
C18 C19 1.358 . S
C18 C20 1.356 . S
C18 H72 0.930 . S
C19 N17 1.279 . S
C19 C18 1.358 . S
C19 H23 0.930 . S
C20 C18 1.356 . S
C20 C21 1.348 . S
C21 C16 1.353 . S
C21 C20 1.348 . S
C21 H73 0.952 . S
H22 C16 0.930 . S
H23 C19 0.930 . S
C24 N25 1.314 . S
C24 C26 1.353 . S
C24 H30 0.930 . S
N25 Li1 1.990 . S
N25 C24 1.314 . S
N25 C28 1.279 . S
C26 C24 1.353 . S
C26 C29 1.348 . S
C26 H74 0.929 . S
C27 C28 1.358 . S
C27 C29 1.356 . S
C27 H75 0.930 . S
C28 N25 1.279 . S
C28 C27 1.358 . S
C28 H31 0.930 . S
C29 C26 1.348 . S
C29 C27 1.356 . S
H30 C24 0.930 . S
H31 C28 0.930 . S
C32 C34 1.348 . S
C32 C35 1.356 . S
C32 O62 1.325 . S
N33 C36 1.314 . S
N33 C37 1.279 . S
C34 C32 1.348 . S
C34 C36 1.353 . S
C34 H76 0.929 . S
C35 C32 1.356 . S
C35 C37 1.358 . S
C35 H77 0.930 . S
C36 N33 1.314 . S
C36 C34 1.353 . S
C36 H78 0.930 . S
C37 N33 1.279 . S
C37 C35 1.358 . S
C37 H79 0.930 . S
C38 C39 1.348 . S
C38 C40 1.356 . S
C38 O63 1.325 . S
C39 C38 1.348 . S
C39 C41 1.353 . S
C39 H80 0.929 . S
C40 C38 1.356 . S
C40 C42 1.358 . S
C40 H81 0.930 . S
C41 C39 1.353 . S
C41 N43 1.314 . S
C41 H82 0.930 . S
C42 C40 1.358 . S
C42 N43 1.279 . S
C42 H83 0.930 . S
N43 C41 1.314 . S
N43 C42 1.279 . S
C44 C46 1.353 . S
C44 N47 1.314 . S
C44 H50 0.930 . S
C45 N47 1.279 . S
C45 C48 1.358 . S
C45 H51 0.930 . S
C46 C44 1.353 . S
C46 C49 1.348 . S
C46 H84 0.929 . S
N47 Li2 1.990 . S
N47 C44 1.314 . S
N47 C45 1.279 . S
C48 C45 1.358 . S
C48 C49 1.356 . S
C48 H85 0.930 . S
C49 C46 1.348 . S
C49 C48 1.356 . S
H50 C44 0.930 . S
H51 C45 0.930 . S
C52 N53 1.314 . S
C52 C54 1.353 . S
C52 H58 0.930 . S
N53 Li3 1.990 . S
N53 C52 1.314 . S
N53 C56 1.279 . S
C54 C52 1.353 . S
C54 C57 1.348 . S
C54 H86 0.929 . S
C55 C56 1.358 . S
C55 C57 1.356 . S
C55 H87 0.930 . S
C56 N53 1.279 . S
C56 C55 1.358 . S
C56 H59 0.930 . S
C57 C54 1.348 . S
C57 C55 1.356 . S
H58 C52 0.930 . S
H59 C56 0.930 . S
O60 Li0 1.956 . S
O60 Li1 1.970 . S
O60 Li2 1.961 . S
O60 C4 1.325 . S
O61 Li0 1.970 . S
O61 Li1 1.956 . S
O61 Li3 1.961 . S
O61 C10 1.325 . S
O62 Li0 1.961 . S
O62 Li2 1.956 . S
O62 Li3 1.970 . S
O62 C32 1.325 . S
O63 Li1 1.961 . S
O63 Li2 1.970 . S
O63 Li3 1.956 . S
O63 C38 1.325 . S
H64 C6 0.929 . S
H65 C7 0.930 . S
H66 C8 0.930 . S
H67 C9 0.930 . S
H68 C11 0.930 . S
H69 C13 0.929 . S
H70 C14 0.930 . S
H71 C15 0.930 . S
H72 C18 0.930 . S
H73 C21 0.952 . S
H74 C26 0.929 . S
H75 C27 0.930 . S
H76 C34 0.929 . S
H77 C35 0.930 . S
H78 C36 0.930 . S
H79 C37 0.930 . S
H80 C39 0.929 . S
H81 C40 0.930 . S
H82 C41 0.930 . S
H83 C42 0.930 . S
H84 C46 0.929 . S
H85 C48 0.930 . S
H86 C54 0.929 . S
H87 C55 0.930 . S
Li88 N105 1.990 . S
Li88 O148 1.956 . S
Li88 O149 1.970 . S
Li88 O150 1.961 1_455 S
Li89 N113 1.990 . S
Li89 O148 1.970 . S
Li89 O149 1.956 . S
Li89 O151 1.932 1_455 S
Li90 N135 1.990 . S
Li90 O148 1.961 1_655 S
Li90 O150 1.956 . S
Li90 O151 1.971 . S
Li91 N141 1.990 . S
Li91 O149 1.961 1_655 S
Li91 O150 1.970 . S
Li91 O151 1.997 . S
C92 C94 1.348 . S
C92 C95 1.356 . S
C92 O148 1.325 . S
N93 C96 1.314 . S
N93 C97 1.279 . S
C94 C92 1.348 . S
C94 C96 1.353 . S
C94 H152 0.929 . S
C95 C92 1.356 . S
C95 C97 1.358 . S
C95 H153 0.930 . S
C96 N93 1.314 . S
C96 C94 1.353 . S
C96 H154 0.930 . S
C97 N93 1.279 . S
C97 C95 1.358 . S
C97 H155 0.930 . S
C98 C101 1.348 . S
C98 C102 1.356 . S
C98 O149 1.325 . S
C99 N100 1.279 . S
C99 C102 1.358 . S
C99 H156 0.930 . S
N100 C99 1.279 . S
N100 C103 1.314 . S
C101 C98 1.348 . S
C101 C103 1.353 . S
C101 H157 0.929 . S
C102 C98 1.356 . S
C102 C99 1.358 . S
C102 H158 0.934 . S
C103 N100 1.314 . S
C103 C101 1.353 . S
C103 H159 0.930 . S
C104 N105 1.314 1_655 S
C104 C109 1.353 . S
C104 H110 0.930 . S
N105 Li88 1.990 . S
N105 C104 1.314 1_455 S
N105 C107 1.279 . S
C106 C107 1.358 . S
C106 C108 1.356 . S
C106 H160 0.930 . S
C107 N105 1.279 . S
C107 C106 1.358 . S
C107 H111 0.930 . S
C108 C106 1.356 . S
C108 C109 1.348 1_455 S
C109 C104 1.353 . S
C109 C108 1.348 1_655 S
C109 H161 0.929 . S
H110 C104 0.930 . S
H111 C107 0.930 . S
C112 N113 1.314 . S
C112 C114 1.353 . S
C112 H118 0.930 . S
N113 Li89 1.990 . S
N113 C112 1.314 . S
N113 C116 1.279 . S
C114 C112 1.353 . S
C114 C117 1.348 . S
C114 H162 0.929 . S
C115 C116 1.358 . S
C115 C117 1.356 . S
C115 H163 0.930 . S
C116 N113 1.279 . S
C116 C115 1.358 . S
C116 H119 0.930 . S
C117 C114 1.348 . S
C117 C115 1.356 . S
H118 C112 0.930 . S
H119 C116 0.930 . S
C120 C122 1.348 . S
C120 C123 1.356 . S
C120 O150 1.325 . S
N121 C124 1.314 . S
N121 C125 1.279 . S
C122 C120 1.348 . S
C122 C124 1.353 . S
C122 H164 0.929 . S
C123 C120 1.356 . S
C123 C125 1.358 . S
C123 H165 0.930 . S
C124 N121 1.314 . S
C124 C122 1.353 . S
C124 H166 0.930 . S
C125 N121 1.279 . S
C125 C123 1.358 . S
C125 H167 0.930 . S
C126 C127 1.348 . S
C126 C128 1.356 1_655 S
C126 O151 1.324 . S
C127 C126 1.348 . S
C127 C129 1.353 . S
C127 H168 0.929 . S
C128 C126 1.356 1_455 S
C128 C130 1.357 . S
C128 H169 0.930 . S
C129 C127 1.353 . S
C129 N131 1.314 . S
C129 H170 0.930 . S
C130 C128 1.357 . S
C130 N131 1.273 1_455 S
C130 H171 0.944 . S
N131 C129 1.314 . S
N131 C130 1.273 1_655 S
C132 C134 1.353 . S
C132 N135 1.314 1_455 S
C132 H138 0.930 . S
C133 N135 1.279 . S
C133 C136 1.358 . S
C133 H139 0.930 . S
C134 C132 1.353 . S
C134 C137 1.348 1_455 S
C134 H172 0.929 . S
N135 Li90 1.990 . S
N135 C132 1.314 1_655 S
N135 C133 1.279 . S
C136 C133 1.358 . S
C136 C137 1.356 . S
C136 H173 0.930 . S
C137 C134 1.348 1_655 S
C137 C136 1.356 . S
H138 C132 0.930 . S
H139 C133 0.930 . S
C140 N141 1.314 . S
C140 C142 1.353 . S
C140 H146 0.930 . S
N141 Li91 1.990 . S
N141 C140 1.314 . S
N141 C144 1.279 . S
C142 C140 1.353 . S
C142 C145 1.348 . S
C142 H174 0.929 . S
C143 C144 1.358 . S
C143 C145 1.356 . S
C143 H175 0.930 . S
C144 N141 1.279 . S
C144 C143 1.358 . S
C144 H147 0.930 . S
C145 C142 1.348 . S
C145 C143 1.356 . S
H146 C140 0.930 . S
H147 C144 0.930 . S
O148 Li88 1.956 . S
O148 Li89 1.970 . S
O148 Li90 1.961 1_455 S
O148 C92 1.325 . S
O149 Li88 1.970 . S
O149 Li89 1.956 . S
O149 Li91 1.961 1_455 S
O149 C98 1.325 . S
O150 Li88 1.961 1_655 S
O150 Li90 1.956 . S
O150 Li91 1.970 . S
O150 C120 1.325 . S
O151 Li89 1.932 1_655 S
O151 Li90 1.971 . S
O151 Li91 1.997 . S
O151 C126 1.324 . S
H152 C94 0.929 . S
H153 C95 0.930 . S
H154 C96 0.930 . S
H155 C97 0.930 . S
H156 C99 0.930 . S
H157 C101 0.929 . S
H158 C102 0.934 . S
H159 C103 0.930 . S
H160 C106 0.930 . S
H161 C109 0.929 . S
H162 C114 0.929 . S
H163 C115 0.930 . S
H164 C122 0.929 . S
H165 C123 0.930 . S
H166 C124 0.930 . S
H167 C125 0.930 . S
H168 C127 0.929 . S
H169 C128 0.930 . S
H170 C129 0.930 . S
H171 C130 0.944 . S
H172 C134 0.929 . S
H173 C136 0.930 . S
H174 C142 0.929 . S
H175 C143 0.930 . S
Li176 N193 1.990 . S
Li176 O236 1.956 . S
Li176 O237 1.970 . S
Li176 O238 1.961 . S
Li177 N201 1.990 . S
Li177 O236 1.970 . S
Li177 O237 1.956 . S
Li177 O239 1.961 . S
Li178 N223 1.990 . S
Li178 O236 1.961 . S
Li178 O238 1.956 . S
Li178 O239 1.970 . S
Li179 N229 1.990 . S
Li179 O237 1.961 . S
Li179 O238 1.970 . S
Li179 O239 1.956 . S
C180 C182 1.348 . S
C180 C183 1.356 . S
C180 O236 1.325 . S
N181 C184 1.314 . S
N181 C185 1.279 . S
C182 C180 1.348 . S
C182 C184 1.353 . S
C182 H240 0.929 . S
C183 C180 1.356 . S
C183 C185 1.358 . S
C183 H241 0.930 . S
C184 N181 1.314 . S
C184 C182 1.353 . S
C184 H242 0.930 . S
C185 N181 1.279 . S
C185 C183 1.358 . S
C185 H243 0.930 . S
C186 C189 1.348 . S
C186 C190 1.356 . S
C186 O237 1.325 . S
C187 N188 1.279 . S
C187 C190 1.358 . S
C187 H244 0.930 . S
N188 C187 1.279 . S
N188 C191 1.314 . S
C189 C186 1.348 . S
C189 C191 1.353 . S
C189 H245 0.929 . S
C190 C186 1.356 . S
C190 C187 1.358 . S
C190 H246 0.930 . S
C191 N188 1.314 . S
C191 C189 1.353 . S
C191 H247 0.930 . S
C192 N193 1.314 . S
C192 C197 1.353 . S
C192 H198 0.930 . S
N193 Li176 1.990 . S
N193 C192 1.314 . S
N193 C195 1.279 . S
C194 C195 1.358 . S
C194 C196 1.356 . S
C194 H248 0.930 . S
C195 N193 1.279 . S
C195 C194 1.358 . S
C195 H199 0.930 . S
C196 C194 1.356 . S
C196 C197 1.348 . S
C197 C192 1.353 . S
C197 C196 1.348 . S
C197 H249 0.929 . S
H198 C192 0.930 . S
H199 C195 0.930 . S
C200 N201 1.314 . S
C200 C202 1.353 . S
C200 H206 0.930 . S
N201 Li177 1.990 . S
N201 C200 1.314 . S
N201 C204 1.279 . S
C202 C200 1.353 . S
C202 C205 1.348 . S
C202 H250 0.929 . S
C203 C204 1.358 . S
C203 C205 1.356 . S
C203 H251 0.930 . S
C204 N201 1.279 . S
C204 C203 1.358 . S
C204 H207 0.930 . S
C205 C202 1.348 . S
C205 C203 1.356 . S
H206 C200 0.930 . S
H207 C204 0.930 . S
C208 C210 1.348 . S
C208 C211 1.356 . S
C208 O238 1.325 . S
N209 C212 1.314 . S
N209 C213 1.279 . S
C210 C208 1.348 . S
C210 C212 1.353 . S
C210 H252 0.929 . S
C211 C208 1.356 . S
C211 C213 1.358 . S
C211 H253 0.930 . S
C212 N209 1.314 . S
C212 C210 1.353 . S
C212 H254 0.930 . S
C213 N209 1.279 . S
C213 C211 1.358 . S
C213 H255 0.930 . S
C214 C215 1.348 . S
C214 C216 1.356 . S
C214 O239 1.325 . S
C215 C214 1.348 . S
C215 C217 1.353 . S
C215 H256 0.929 . S
C216 C214 1.356 . S
C216 C218 1.358 . S
C216 H257 0.930 . S
C217 C215 1.353 . S
C217 N219 1.314 . S
C217 H258 0.930 . S
C218 C216 1.358 . S
C218 N219 1.279 . S
C218 H259 0.930 . S
N219 C217 1.314 . S
N219 C218 1.279 . S
C220 C222 1.353 . S
C220 N223 1.314 . S
C220 H226 0.930 . S
C221 N223 1.279 . S
C221 C224 1.358 . S
C221 H227 0.930 . S
C222 C220 1.353 . S
C222 C225 1.348 . S
C222 H260 0.929 . S
N223 Li178 1.990 . S
N223 C220 1.314 . S
N223 C221 1.279 . S
C224 C221 1.358 . S
C224 C225 1.356 . S
C224 H261 0.930 . S
C225 C222 1.348 . S
C225 C224 1.356 . S
H226 C220 0.930 . S
H227 C221 0.930 . S
C228 N229 1.314 . S
C228 C230 1.353 . S
C228 H234 0.930 . S
N229 Li179 1.990 . S
N229 C228 1.314 . S
N229 C232 1.279 . S
C230 C228 1.353 . S
C230 C233 1.348 . S
C230 H262 0.929 . S
C231 C232 1.358 . S
C231 C233 1.356 . S
C231 H263 0.930 . S
C232 N229 1.279 . S
C232 C231 1.358 . S
C232 H235 0.930 . S
C233 C230 1.348 . S
C233 C231 1.356 . S
H234 C228 0.930 . S
H235 C232 0.930 . S
O236 Li176 1.956 . S
O236 Li177 1.970 . S
O236 Li178 1.961 . S
O236 C180 1.325 . S
O237 Li176 1.970 . S
O237 Li177 1.956 . S
O237 Li179 1.961 . S
O237 C186 1.325 . S
O238 Li176 1.961 . S
O238 Li178 1.956 . S
O238 Li179 1.970 . S
O238 C208 1.325 . S
O239 Li177 1.961 . S
O239 Li178 1.970 . S
O239 Li179 1.956 . S
O239 C214 1.325 . S
H240 C182 0.929 . S
H241 C183 0.930 . S
H242 C184 0.930 . S
H243 C185 0.930 . S
H244 C187 0.930 . S
H245 C189 0.929 . S
H246 C190 0.930 . S
H247 C191 0.930 . S
H248 C194 0.930 . S
H249 C197 0.929 . S
H250 C202 0.929 . S
H251 C203 0.930 . S
H252 C210 0.929 . S
H253 C211 0.930 . S
H254 C212 0.930 . S
H255 C213 0.930 . S
H256 C215 0.929 . S
H257 C216 0.930 . S
H258 C217 0.930 . S
H259 C218 0.930 . S
H260 C222 0.929 . S
H261 C224 0.930 . S
H262 C230 0.929 . S
H263 C231 0.930 . S
Li264 N281 1.990 . S
Li264 O324 1.956 . S
Li264 O325 1.970 . S
Li264 O326 1.961 . S
Li265 N289 1.990 . S
Li265 O324 1.970 . S
Li265 O325 1.956 . S
Li265 O327 1.961 . S
Li266 N311 1.990 . S
Li266 O324 1.961 . S
Li266 O326 1.956 . S
Li266 O327 1.970 . S
Li267 N317 1.990 . S
Li267 O325 1.961 . S
Li267 O326 1.970 . S
Li267 O327 1.956 . S
C268 C270 1.348 . S
C268 C271 1.356 . S
C268 O324 1.325 . S
N269 C272 1.314 . S
N269 C273 1.279 . S
C270 C268 1.348 . S
C270 C272 1.353 . S
C270 H328 0.929 . S
C271 C268 1.356 . S
C271 C273 1.358 . S
C271 H329 0.930 . S
C272 N269 1.314 . S
C272 C270 1.353 . S
C272 H330 0.930 . S
C273 N269 1.279 . S
C273 C271 1.358 . S
C273 H331 0.930 . S
C274 C277 1.348 . S
C274 C278 1.356 . S
C274 O325 1.325 . S
C275 N276 1.279 . S
C275 C278 1.358 . S
C275 H332 0.930 . S
N276 C275 1.279 . S
N276 C279 1.314 . S
C277 C274 1.348 . S
C277 C279 1.353 . S
C277 H333 0.929 . S
C278 C274 1.356 . S
C278 C275 1.358 . S
C278 H334 0.930 . S
C279 N276 1.314 . S
C279 C277 1.353 . S
C279 H335 0.930 . S
C280 N281 1.314 . S
C280 C285 1.353 . S
C280 H286 0.930 . S
N281 Li264 1.990 . S
N281 C280 1.314 . S
N281 C283 1.279 . S
C282 C283 1.358 . S
C282 C284 1.356 . S
C282 H336 0.930 . S
C283 N281 1.279 . S
C283 C282 1.358 . S
C283 H287 0.930 . S
C284 C282 1.356 . S
C284 C285 1.348 . S
C285 C280 1.353 . S
C285 C284 1.348 . S
C285 H337 0.929 . S
H286 C280 0.930 . S
H287 C283 0.930 . S
C288 N289 1.314 . S
C288 C290 1.353 . S
C288 H294 0.930 . S
N289 Li265 1.990 . S
N289 C288 1.314 . S
N289 C292 1.279 . S
C290 C288 1.353 . S
C290 C293 1.348 . S
C290 H338 0.929 . S
C291 C292 1.358 . S
C291 C293 1.356 . S
C291 H339 0.930 . S
C292 N289 1.279 . S
C292 C291 1.358 . S
C292 H295 0.930 . S
C293 C290 1.348 . S
C293 C291 1.356 . S
H294 C288 0.930 . S
H295 C292 0.930 . S
C296 C298 1.348 . S
C296 C299 1.356 . S
C296 O326 1.325 . S
N297 C300 1.314 . S
N297 C301 1.279 . S
C298 C296 1.348 . S
C298 C300 1.353 . S
C298 H340 0.929 . S
C299 C296 1.356 . S
C299 C301 1.358 . S
C299 H341 0.930 . S
C300 N297 1.314 . S
C300 C298 1.353 . S
C300 H342 0.930 . S
C301 N297 1.279 . S
C301 C299 1.358 . S
C301 H343 0.930 . S
C302 C303 1.348 . S
C302 C304 1.356 . S
C302 O327 1.325 . S
C303 C302 1.348 . S
C303 C305 1.353 . S
C303 H344 0.929 . S
C304 C302 1.356 . S
C304 C306 1.358 . S
C304 H345 0.930 . S
C305 C303 1.353 . S
C305 N307 1.314 . S
C305 H346 0.930 . S
C306 C304 1.358 . S
C306 N307 1.279 . S
C306 H347 0.930 . S
N307 C305 1.314 . S
N307 C306 1.279 . S
C308 C310 1.353 . S
C308 N311 1.314 . S
C308 H314 0.930 . S
C309 N311 1.279 . S
C309 C312 1.358 . S
C309 H315 0.930 . S
C310 C308 1.353 . S
C310 C313 1.348 . S
C310 H348 0.929 . S
N311 Li266 1.990 . S
N311 C308 1.314 . S
N311 C309 1.279 . S
C312 C309 1.358 . S
C312 C313 1.356 . S
C312 H349 0.930 . S
C313 C310 1.348 . S
C313 C312 1.356 . S
H314 C308 0.930 . S
H315 C309 0.930 . S
C316 N317 1.314 . S
C316 C318 1.353 . S
C316 H322 0.930 . S
N317 Li267 1.990 . S
N317 C316 1.314 . S
N317 C320 1.279 . S
C318 C316 1.353 . S
C318 C321 1.348 . S
C318 H350 0.929 . S
C319 C320 1.358 . S
C319 C321 1.356 . S
C319 H351 0.930 . S
C320 N317 1.279 . S
C320 C319 1.358 . S
C320 H323 0.930 . S
C321 C318 1.348 . S
C321 C319 1.356 . S
H322 C316 0.930 . S
H323 C320 0.930 . S
O324 Li264 1.956 . S
O324 Li265 1.970 . S
O324 Li266 1.961 . S
O324 C268 1.325 . S
O325 Li264 1.970 . S
O325 Li265 1.956 . S
O325 Li267 1.961 . S
O325 C274 1.325 . S
O326 Li264 1.961 . S
O326 Li266 1.956 . S
O326 Li267 1.970 . S
O326 C296 1.325 . S
O327 Li265 1.961 . S
O327 Li266 1.970 . S
O327 Li267 1.956 . S
O327 C302 1.325 . S
H328 C270 0.929 . S
H329 C271 0.930 . S
H330 C272 0.930 . S
H331 C273 0.930 . S
H332 C275 0.930 . S
H333 C277 0.929 . S
H334 C278 0.930 . S
H335 C279 0.930 . S
H336 C282 0.930 . S
H337 C285 0.929 . S
H338 C290 0.929 . S
H339 C291 0.930 . S
H340 C298 0.929 . S
H341 C299 0.930 . S
H342 C300 0.930 . S
H343 C301 0.930 . S
H344 C303 0.929 . S
H345 C304 0.930 . S
H346 C305 0.930 . S
H347 C306 0.930 . S
H348 C310 0.929 . S
H349 C312 0.930 . S
H350 C318 0.929 . S
H351 C319 0.930 . S
Li352 N369 1.990 . S
Li352 O412 1.956 . S
Li352 O413 1.970 . S
Li352 O414 1.961 . S
Li353 N377 1.990 . S
Li353 O412 1.970 . S
Li353 O413 1.956 . S
Li353 O415 1.961 . S
Li354 N399 1.990 . S
Li354 O412 1.961 . S
Li354 O414 1.956 . S
Li354 O415 1.970 . S
Li355 N405 1.990 . S
Li355 O413 1.961 . S
Li355 O414 1.970 . S
Li355 O415 1.956 . S
C356 C358 1.348 . S
C356 C359 1.356 . S
C356 O412 1.325 . S
N357 C360 1.314 . S
N357 C361 1.279 . S
C358 C356 1.348 . S
C358 C360 1.353 . S
C358 H416 0.929 . S
C359 C356 1.356 . S
C359 C361 1.358 . S
C359 H417 0.930 . S
C360 N357 1.314 . S
C360 C358 1.353 . S
C360 H418 0.930 . S
C361 N357 1.279 . S
C361 C359 1.358 . S
C361 H419 0.930 . S
C362 C365 1.348 . S
C362 C366 1.356 . S
C362 O413 1.325 . S
C363 N364 1.279 . S
C363 C366 1.358 . S
C363 H420 0.930 . S
N364 C363 1.279 . S
N364 C367 1.314 . S
C365 C362 1.348 . S
C365 C367 1.353 . S
C365 H421 0.929 . S
C366 C362 1.356 . S
C366 C363 1.358 . S
C366 H422 0.930 . S
C367 N364 1.314 . S
C367 C365 1.353 . S
C367 H423 0.930 . S
C368 N369 1.314 . S
C368 C373 1.353 . S
C368 H374 0.930 . S
N369 Li352 1.990 . S
N369 C368 1.314 . S
N369 C371 1.279 . S
C370 C371 1.358 . S
C370 C372 1.356 . S
C370 H424 0.930 . S
C371 N369 1.279 . S
C371 C370 1.358 . S
C371 H375 0.930 . S
C372 C370 1.356 . S
C372 C373 1.348 . S
C373 C368 1.353 . S
C373 C372 1.348 . S
C373 H425 0.929 . S
H374 C368 0.930 . S
H375 C371 0.930 . S
C376 N377 1.314 . S
C376 C378 1.353 . S
C376 H382 0.930 . S
N377 Li353 1.990 . S
N377 C376 1.314 . S
N377 C380 1.279 . S
C378 C376 1.353 . S
C378 C381 1.348 . S
C378 H426 0.929 . S
C379 C380 1.358 . S
C379 C381 1.356 . S
C379 H427 0.930 . S
C380 N377 1.279 . S
C380 C379 1.358 . S
C380 H383 0.930 . S
C381 C378 1.348 . S
C381 C379 1.356 . S
H382 C376 0.930 . S
H383 C380 0.930 . S
C384 C386 1.348 . S
C384 C387 1.356 . S
C384 O414 1.325 . S
N385 C388 1.314 . S
N385 C389 1.279 1_655 S
C386 C384 1.348 . S
C386 C388 1.353 1_455 S
C386 H428 0.929 . S
C387 C384 1.356 . S
C387 C389 1.358 . S
C387 H429 0.930 . S
C388 N385 1.314 . S
C388 C386 1.353 1_655 S
C388 H430 0.930 . S
C389 N385 1.279 1_455 S
C389 C387 1.358 . S
C389 H431 0.930 . S
C390 C391 1.348 . S
C390 C392 1.356 . S
C390 O415 1.325 . S
C391 C390 1.348 . S
C391 C393 1.353 . S
C391 H432 0.929 . S
C392 C390 1.356 . S
C392 C394 1.358 . S
C392 H433 0.930 . S
C393 C391 1.353 . S
C393 N395 1.314 . S
C393 H434 0.930 . S
C394 C392 1.358 . S
C394 N395 1.279 . S
C394 H435 0.930 . S
N395 C393 1.314 . S
N395 C394 1.279 . S
C396 C398 1.353 . S
C396 N399 1.314 . S
C396 H402 0.930 . S
C397 N399 1.279 . S
C397 C400 1.358 . S
C397 H403 0.930 . S
C398 C396 1.353 . S
C398 C401 1.348 . S
C398 H436 0.929 . S
N399 Li354 1.990 . S
N399 C396 1.314 . S
N399 C397 1.279 . S
C400 C397 1.358 . S
C400 C401 1.356 . S
C400 H437 0.930 . S
C401 C398 1.348 . S
C401 C400 1.356 . S
H402 C396 0.930 . S
H403 C397 0.930 . S
C404 N405 1.314 . S
C404 C406 1.353 . S
C404 H410 0.930 . S
N405 Li355 1.990 . S
N405 C404 1.314 . S
N405 C408 1.279 . S
C406 C404 1.353 . S
C406 C409 1.348 1_455 S
C406 H438 0.915 1_455 S
C407 C408 1.358 . S
C407 C409 1.356 1_455 S
C407 H439 0.936 . S
C408 N405 1.279 . S
C408 C407 1.358 . S
C408 H411 0.930 . S
C409 C406 1.348 1_655 S
C409 C407 1.356 1_655 S
H410 C404 0.930 . S
H411 C408 0.930 . S
O412 Li352 1.956 . S
O412 Li353 1.970 . S
O412 Li354 1.961 . S
O412 C356 1.325 . S
O413 Li352 1.970 . S
O413 Li353 1.956 . S
O413 Li355 1.961 . S
O413 C362 1.325 . S
O414 Li352 1.961 . S
O414 Li354 1.956 . S
O414 Li355 1.970 . S
O414 C384 1.325 . S
O415 Li353 1.961 . S
O415 Li354 1.970 . S
O415 Li355 1.956 . S
O415 C390 1.325 . S
H416 C358 0.929 . S
H417 C359 0.930 . S
H418 C360 0.930 . S
H419 C361 0.930 . S
H420 C363 0.930 . S
H421 C365 0.929 . S
H422 C366 0.930 . S
H423 C367 0.930 . S
H424 C370 0.930 . S
H425 C373 0.929 . S
H426 C378 0.929 . S
H427 C379 0.930 . S
H428 C386 0.929 . S
H429 C387 0.930 . S
H430 C388 0.930 . S
H431 C389 0.930 . S
H432 C391 0.929 . S
H433 C392 0.930 . S
H434 C393 0.930 . S
H435 C394 0.930 . S
H436 C398 0.929 . S
H437 C400 0.930 . S
H438 C406 0.915 1_655 S
H439 C407 0.936 . S
Li440 N457 1.990 . S
Li440 O500 1.956 . S
Li440 O501 1.970 . S
Li440 O502 1.961 . S
Li441 N465 1.990 . S
Li441 O500 1.970 . S
Li441 O501 1.956 . S
Li441 O503 1.961 . S
Li442 N487 1.990 . S
Li442 O500 1.961 . S
Li442 O502 1.956 . S
Li442 O503 1.970 . S
Li443 N493 1.990 . S
Li443 O501 1.961 . S
Li443 O502 1.970 . S
Li443 O503 1.956 . S
C444 C446 1.348 . S
C444 C447 1.356 . S
C444 O500 1.325 . S
N445 C448 1.314 . S
N445 C449 1.279 . S
C446 C444 1.348 . S
C446 C448 1.353 . S
C446 H504 0.929 . S
C447 C444 1.356 . S
C447 C449 1.358 . S
C447 H505 0.930 . S
C448 N445 1.314 . S
C448 C446 1.353 . S
C448 H506 0.930 . S
C449 N445 1.279 . S
C449 C447 1.358 . S
C449 H507 0.930 . S
C450 C453 1.348 . S
C450 C454 1.356 . S
C450 O501 1.325 . S
C451 N452 1.279 . S
C451 C454 1.358 . S
C451 H508 0.930 . S
N452 C451 1.279 . S
N452 C455 1.314 . S
C453 C450 1.348 . S
C453 C455 1.353 . S
C453 H509 0.929 . S
C454 C450 1.356 . S
C454 C451 1.358 . S
C454 H510 0.930 . S
C455 N452 1.314 . S
C455 C453 1.353 . S
C455 H511 0.930 . S
C456 N457 1.314 . S
C456 C461 1.353 . S
C456 H462 0.930 . S
N457 Li440 1.990 . S
N457 C456 1.314 . S
N457 C459 1.279 . S
C458 C459 1.358 . S
C458 C460 1.356 . S
C458 H512 0.930 . S
C459 N457 1.279 . S
C459 C458 1.358 . S
C459 H463 0.930 . S
C460 C458 1.356 . S
C460 C461 1.348 . S
C461 C456 1.353 . S
C461 C460 1.348 . S
C461 H513 0.929 . S
H462 C456 0.930 . S
H463 C459 0.930 . S
C464 N465 1.314 . S
C464 C466 1.353 . S
C464 H470 0.930 . S
N465 Li441 1.990 . S
N465 C464 1.314 . S
N465 C468 1.279 . S
C466 C464 1.353 . S
C466 C469 1.348 . S
C466 H514 0.929 . S
C467 C468 1.358 . S
C467 C469 1.356 . S
C467 H515 0.930 . S
C468 N465 1.279 . S
C468 C467 1.358 . S
C468 H471 0.930 . S
C469 C466 1.348 . S
C469 C467 1.356 . S
H470 C464 0.930 . S
H471 C468 0.930 . S
C472 C474 1.348 . S
C472 C475 1.356 . S
C472 O502 1.325 . S
N473 C476 1.314 . S
N473 C477 1.279 . S
C474 C472 1.348 . S
C474 C476 1.353 . S
C474 H516 0.929 . S
C475 C472 1.356 . S
C475 C477 1.358 . S
C475 H517 0.930 . S
C476 N473 1.314 . S
C476 C474 1.353 . S
C476 H518 0.930 . S
C477 N473 1.279 . S
C477 C475 1.358 . S
C477 H519 0.930 . S
C478 C479 1.348 . S
C478 C480 1.356 . S
C478 O503 1.325 . S
C479 C478 1.348 . S
C479 C481 1.353 . S
C479 H520 0.929 . S
C480 C478 1.356 . S
C480 C482 1.358 . S
C480 H521 0.930 . S
C481 C479 1.353 . S
C481 N483 1.314 . S
C481 H522 0.930 . S
C482 C480 1.358 . S
C482 N483 1.279 . S
C482 H523 0.930 . S
N483 C481 1.314 . S
N483 C482 1.279 . S
C484 C486 1.353 . S
C484 N487 1.314 . S
C484 H490 0.930 . S
C485 N487 1.279 . S
C485 C488 1.358 . S
C485 H491 0.930 . S
C486 C484 1.353 . S
C486 C489 1.348 . S
C486 H524 0.929 . S
N487 Li442 1.990 . S
N487 C484 1.314 . S
N487 C485 1.279 . S
C488 C485 1.358 . S
C488 C489 1.356 . S
C488 H525 0.930 . S
C489 C486 1.348 . S
C489 C488 1.356 . S
H490 C484 0.930 . S
H491 C485 0.930 . S
C492 N493 1.314 . S
C492 C494 1.353 . S
C492 H498 0.930 . S
N493 Li443 1.990 . S
N493 C492 1.314 . S
N493 C496 1.279 . S
C494 C492 1.353 . S
C494 C497 1.348 . S
C494 H526 0.929 . S
C495 C496 1.358 . S
C495 C497 1.356 . S
C495 H527 0.930 . S
C496 N493 1.279 . S
C496 C495 1.358 . S
C496 H499 0.930 . S
C497 C494 1.348 . S
C497 C495 1.356 . S
H498 C492 0.930 . S
H499 C496 0.930 . S
O500 Li440 1.956 . S
O500 Li441 1.970 . S
O500 Li442 1.961 . S
O500 C444 1.325 . S
O501 Li440 1.970 . S
O501 Li441 1.956 . S
O501 Li443 1.961 . S
O501 C450 1.325 . S
O502 Li440 1.961 . S
O502 Li442 1.956 . S
O502 Li443 1.970 . S
O502 C472 1.325 . S
O503 Li441 1.961 . S
O503 Li442 1.970 . S
O503 Li443 1.956 . S
O503 C478 1.325 . S
H504 C446 0.929 . S
H505 C447 0.930 . S
H506 C448 0.930 . S
H507 C449 0.930 . S
H508 C451 0.930 . S
H509 C453 0.929 . S
H510 C454 0.930 . S
H511 C455 0.930 . S
H512 C458 0.930 . S
H513 C461 0.929 . S
H514 C466 0.929 . S
H515 C467 0.930 . S
H516 C474 0.929 . S
H517 C475 0.930 . S
H518 C476 0.930 . S
H519 C477 0.930 . S
H520 C479 0.929 . S
H521 C480 0.930 . S
H522 C481 0.930 . S
H523 C482 0.930 . S
H524 C486 0.929 . S
H525 C488 0.930 . S
H526 C494 0.929 . S
H527 C495 0.930 . S
Li528 N545 1.990 . S
Li528 O588 1.956 . S
Li528 O589 1.970 . S
Li528 O590 1.961 . S
Li529 N553 1.990 . S
Li529 O588 1.970 . S
Li529 O589 1.956 . S
Li529 O591 1.961 . S
Li530 N575 1.990 . S
Li530 O588 1.961 . S
Li530 O590 1.956 . S
Li530 O591 1.970 . S
Li531 N581 1.990 . S
Li531 O589 1.961 . S
Li531 O590 1.970 . S
Li531 O591 1.956 . S
C532 C534 1.348 . S
C532 C535 1.356 . S
C532 O588 1.325 . S
N533 C536 1.314 . S
N533 C537 1.279 . S
C534 C532 1.348 . S
C534 C536 1.353 . S
C534 H592 0.929 . S
C535 C532 1.356 . S
C535 C537 1.358 . S
C535 H593 0.930 . S
C536 N533 1.314 . S
C536 C534 1.353 . S
C536 H594 0.930 . S
C537 N533 1.279 . S
C537 C535 1.358 . S
C537 H595 0.930 . S
C538 C541 1.348 . S
C538 C542 1.356 . S
C538 O589 1.325 . S
C539 N540 1.279 . S
C539 C542 1.358 . S
C539 H596 0.930 . S
N540 C539 1.279 . S
N540 C543 1.314 . S
C541 C538 1.348 . S
C541 C543 1.353 . S
C541 H597 0.929 . S
C542 C538 1.356 . S
C542 C539 1.358 . S
C542 H598 0.930 . S
C543 N540 1.314 . S
C543 C541 1.353 . S
C543 H599 0.930 . S
C544 N545 1.314 . S
C544 C549 1.353 . S
C544 H550 0.930 . S
N545 Li528 1.990 . S
N545 C544 1.314 . S
N545 C547 1.279 . S
C546 C547 1.358 . S
C546 C548 1.356 . S
C546 H600 0.930 . S
C547 N545 1.279 . S
C547 C546 1.358 . S
C547 H551 0.930 . S
C548 C546 1.356 . S
C548 C549 1.348 . S
C549 C544 1.353 . S
C549 C548 1.348 . S
C549 H601 0.929 . S
H550 C544 0.930 . S
H551 C547 0.930 . S
C552 N553 1.314 . S
C552 C554 1.353 . S
C552 H558 0.930 . S
N553 Li529 1.990 . S
N553 C552 1.314 . S
N553 C556 1.279 . S
C554 C552 1.353 . S
C554 C557 1.348 . S
C554 H602 0.929 . S
C555 C556 1.358 . S
C555 C557 1.356 . S
C555 H603 0.930 . S
C556 N553 1.279 . S
C556 C555 1.358 . S
C556 H559 0.930 . S
C557 C554 1.348 . S
C557 C555 1.356 . S
H558 C552 0.930 . S
H559 C556 0.930 . S
C560 C562 1.348 . S
C560 C563 1.356 . S
C560 O590 1.325 . S
N561 C564 1.314 . S
N561 C565 1.279 . S
C562 C560 1.348 . S
C562 C564 1.353 . S
C562 H604 0.929 . S
C563 C560 1.356 . S
C563 C565 1.358 . S
C563 H605 0.930 . S
C564 N561 1.314 . S
C564 C562 1.353 . S
C564 H606 0.930 . S
C565 N561 1.279 . S
C565 C563 1.358 . S
C565 H607 0.930 . S
C566 C567 1.348 . S
C566 C568 1.356 . S
C566 O591 1.325 . S
C567 C566 1.348 . S
C567 C569 1.353 . S
C567 H608 0.929 . S
C568 C566 1.356 . S
C568 C570 1.358 . S
C568 H609 0.930 . S
C569 C567 1.353 . S
C569 N571 1.314 . S
C569 H610 0.930 . S
C570 C568 1.358 . S
C570 N571 1.279 . S
C570 H611 0.930 . S
N571 C569 1.314 . S
N571 C570 1.279 . S
C572 C574 1.353 . S
C572 N575 1.314 . S
C572 H578 0.930 . S
C573 N575 1.279 . S
C573 C576 1.358 . S
C573 H579 0.930 . S
C574 C572 1.353 . S
C574 C577 1.348 . S
C574 H612 0.929 . S
N575 Li530 1.990 . S
N575 C572 1.314 . S
N575 C573 1.279 . S
C576 C573 1.358 . S
C576 C577 1.356 . S
C576 H613 0.930 . S
C577 C574 1.348 . S
C577 C576 1.356 . S
H578 C572 0.930 . S
H579 C573 0.930 . S
C580 N581 1.314 . S
C580 C582 1.353 . S
C580 H586 0.930 . S
N581 Li531 1.990 . S
N581 C580 1.314 . S
N581 C584 1.279 . S
C582 C580 1.353 . S
C582 C585 1.348 . S
C582 H614 0.929 . S
C583 C584 1.358 . S
C583 C585 1.356 . S
C583 H615 0.930 . S
C584 N581 1.279 . S
C584 C583 1.358 . S
C584 H587 0.930 . S
C585 C582 1.348 . S
C585 C583 1.356 . S
H586 C580 0.930 . S
H587 C584 0.930 . S
O588 Li528 1.956 . S
O588 Li529 1.970 . S
O588 Li530 1.961 . S
O588 C532 1.325 . S
O589 Li528 1.970 . S
O589 Li529 1.956 . S
O589 Li531 1.961 . S
O589 C538 1.325 . S
O590 Li528 1.961 . S
O590 Li530 1.956 . S
O590 Li531 1.970 . S
O590 C560 1.325 . S
O591 Li529 1.961 . S
O591 Li530 1.970 . S
O591 Li531 1.956 . S
O591 C566 1.325 . S
H592 C534 0.929 . S
H593 C535 0.930 . S
H594 C536 0.930 . S
H595 C537 0.930 . S
H596 C539 0.930 . S
H597 C541 0.929 . S
H598 C542 0.930 . S
H599 C543 0.930 . S
H600 C546 0.930 . S
H601 C549 0.929 . S
H602 C554 0.929 . S
H603 C555 0.930 . S
H604 C562 0.929 . S
H605 C563 0.930 . S
H606 C564 0.930 . S
H607 C565 0.930 . S
H608 C567 0.929 . S
H609 C568 0.930 . S
H610 C569 0.930 . S
H611 C570 0.930 . S
H612 C574 0.929 . S
H613 C576 0.930 . S
H614 C582 0.929 . S
H615 C583 0.930 . S
Li616 N633 1.990 . S
Li616 O676 1.956 1_455 S
Li616 O677 1.970 . S
Li616 O678 1.961 . S
Li617 N641 1.990 . S
Li617 O676 1.970 . S
Li617 O677 1.956 1_655 S
Li617 O679 1.961 1_655 S
Li618 N663 1.990 . S
Li618 O676 1.961 1_455 S
Li618 O678 1.956 . S
Li618 O679 1.970 . S
Li619 N669 1.990 . S
Li619 O677 1.961 . S
Li619 O678 1.970 . S
Li619 O679 1.956 . S
C620 C622 1.348 . S
C620 C623 1.356 . S
C620 O676 1.325 . S
N621 C624 1.314 . S
N621 C625 1.279 . S
C622 C620 1.348 . S
C622 C624 1.353 . S
C622 H680 0.929 . S
C623 C620 1.356 . S
C623 C625 1.358 . S
C623 H681 0.930 . S
C624 N621 1.314 . S
C624 C622 1.353 . S
C624 H682 0.930 . S
C625 N621 1.279 . S
C625 C623 1.358 . S
C625 H683 0.930 . S
C626 C629 1.348 . S
C626 C630 1.356 . S
C626 O677 1.325 . S
C627 N628 1.279 . S
C627 C630 1.358 . S
C627 H684 0.930 . S
N628 C627 1.279 . S
N628 C631 1.314 . S
C629 C626 1.348 . S
C629 C631 1.353 . S
C629 H685 0.929 . S
C630 C626 1.356 . S
C630 C627 1.358 . S
C630 H686 0.930 . S
C631 N628 1.314 . S
C631 C629 1.353 . S
C631 H687 0.930 . S
C632 N633 1.314 . S
C632 C637 1.353 . S
C632 H638 0.930 . S
N633 Li616 1.990 . S
N633 C632 1.314 . S
N633 C635 1.279 . S
C634 C635 1.358 . S
C634 C636 1.356 . S
C634 H688 0.988 . S
C635 N633 1.279 . S
C635 C634 1.358 . S
C635 H639 0.930 1_455 S
C636 C634 1.356 . S
C636 C637 1.348 . S
C637 C632 1.353 . S
C637 C636 1.348 . S
C637 H689 0.929 . S
H638 C632 0.930 . S
H639 C635 0.930 1_655 S
C640 N641 1.314 . S
C640 C642 1.353 . S
C640 H646 0.930 . S
N641 Li617 1.990 . S
N641 C640 1.314 . S
N641 C644 1.279 . S
C642 C640 1.353 . S
C642 C645 1.348 . S
C642 H690 0.929 . S
C643 C644 1.358 . S
C643 C645 1.356 . S
C643 H691 0.930 . S
C644 N641 1.279 . S
C644 C643 1.358 . S
C644 H647 0.930 . S
C645 C642 1.348 . S
C645 C643 1.356 . S
H646 C640 0.930 . S
H647 C644 0.930 . S
C648 C650 1.348 . S
C648 C651 1.356 . S
C648 O678 1.325 . S
N649 C652 1.314 . S
N649 C653 1.279 . S
C650 C648 1.348 . S
C650 C652 1.353 . S
C650 H692 0.929 . S
C651 C648 1.356 . S
C651 C653 1.358 . S
C651 H693 0.930 . S
C652 N649 1.314 . S
C652 C650 1.353 . S
C652 H694 0.930 . S
C653 N649 1.279 . S
C653 C651 1.358 . S
C653 H695 0.930 . S
C654 C655 1.348 . S
C654 C656 1.356 . S
C654 O679 1.325 . S
C655 C654 1.348 . S
C655 C657 1.353 . S
C655 H696 0.929 . S
C656 C654 1.356 . S
C656 C658 1.358 . S
C656 H697 0.930 . S
C657 C655 1.353 . S
C657 N659 1.314 . S
C657 H698 0.930 . S
C658 C656 1.358 . S
C658 N659 1.279 . S
C658 H699 0.930 1_455 S
N659 C657 1.314 . S
N659 C658 1.279 . S
C660 C662 1.353 . S
C660 N663 1.314 1_655 S
C660 H666 0.930 . S
C661 N663 1.279 . S
C661 C664 1.358 . S
C661 H667 0.930 . S
C662 C660 1.353 . S
C662 C665 1.348 1_655 S
C662 H700 0.929 . S
N663 Li618 1.990 . S
N663 C660 1.314 1_455 S
N663 C661 1.279 . S
C664 C661 1.358 . S
C664 C665 1.356 . S
C664 H701 0.930 . S
C665 C662 1.348 1_455 S
C665 C664 1.356 . S
H666 C660 0.930 . S
H667 C661 0.930 . S
C668 N669 1.314 . S
C668 C670 1.353 . S
C668 H674 0.930 . S
N669 Li619 1.990 . S
N669 C668 1.314 . S
N669 C672 1.279 . S
C670 C668 1.353 . S
C670 C673 1.348 . S
C670 H702 0.929 . S
C671 C672 1.358 . S
C671 C673 1.356 . S
C671 H703 0.930 . S
C672 N669 1.279 . S
C672 C671 1.358 . S
C672 H675 0.930 . S
C673 C670 1.348 . S
C673 C671 1.356 . S
H674 C668 0.930 . S
H675 C672 0.930 . S
O676 Li616 1.956 1_655 S
O676 Li617 1.970 . S
O676 Li618 1.961 1_655 S
O676 C620 1.325 . S
O677 Li616 1.970 . S
O677 Li617 1.956 1_455 S
O677 Li619 1.961 . S
O677 C626 1.325 . S
O678 Li616 1.961 . S
O678 Li618 1.956 . S
O678 Li619 1.970 . S
O678 C648 1.325 . S
O679 Li617 1.961 1_455 S
O679 Li618 1.970 . S
O679 Li619 1.956 . S
O679 C654 1.325 . S
H680 C622 0.929 . S
H681 C623 0.930 . S
H682 C624 0.930 . S
H683 C625 0.930 . S
H684 C627 0.930 . S
H685 C629 0.929 . S
H686 C630 0.930 . S
H687 C631 0.930 . S
H688 C634 0.988 . S
H689 C637 0.929 . S
H690 C642 0.929 . S
H691 C643 0.930 . S
H692 C650 0.929 . S
H693 C651 0.930 . S
H694 C652 0.930 . S
H695 C653 0.930 . S
H696 C655 0.929 . S
H697 C656 0.930 . S
H698 C657 0.930 . S
H699 C658 0.930 1_655 S
H700 C662 0.929 . S
H701 C664 0.930 . S
H702 C670 0.929 . S
H703 C671 0.930 . S
Li704 N721 1.990 . S
Li704 O764 1.956 1_545 S
Li704 O765 1.970 . S
Li704 O766 1.961 . S
Li705 N729 1.990 . S
Li705 O764 1.970 . S
Li705 O765 1.956 1_565 S
Li705 O767 1.961 . S
Li706 N751 1.990 . S
Li706 O764 1.961 1_545 S
Li706 O766 1.956 . S
Li706 O767 1.970 1_545 S
Li707 N757 1.990 . S
Li707 O765 1.961 . S
Li707 O766 1.970 . S
Li707 O767 1.956 1_545 S
C708 C710 1.348 . S
C708 C711 1.356 . S
C708 O764 1.325 . S
N709 C712 1.314 . S
N709 C713 1.279 . S
C710 C708 1.348 . S
C710 C712 1.353 . S
C710 H768 0.929 . S
C711 C708 1.356 . S
C711 C713 1.358 . S
C711 H769 0.930 . S
C712 N709 1.314 . S
C712 C710 1.353 . S
C712 H770 0.930 . S
C713 N709 1.279 . S
C713 C711 1.358 . S
C713 H771 0.930 . S
C714 C717 1.330 1_545 S
C714 C718 1.356 . S
C714 O765 1.325 . S
C715 N716 1.281 1_545 S
C715 C718 1.358 . S
C715 H772 0.930 . S
N716 C715 1.281 1_565 S
N716 C719 1.313 . S
C717 C714 1.330 1_565 S
C717 C719 1.354 . S
C717 H773 0.948 . S
C718 C714 1.356 . S
C718 C715 1.358 . S
C718 H774 0.930 . S
C719 N716 1.313 . S
C719 C717 1.354 . S
C719 H775 0.930 . S
C720 N721 1.314 . S
C720 C725 1.353 . S
C720 H726 0.930 . S
N721 Li704 1.990 . S
N721 C720 1.314 . S
N721 C723 1.279 1_545 S
C722 C723 1.365 1_545 S
C722 C724 1.388 . S
C722 H776 0.891 1_545 S
C723 N721 1.279 1_565 S
C723 C722 1.365 1_565 S
C723 H727 0.930 . S
C724 C722 1.388 . S
C724 C725 1.348 . S
C725 C720 1.353 . S
C725 C724 1.348 . S
C725 H777 0.929 . S
H726 C720 0.930 . S
H727 C723 0.930 . S
C728 N729 1.314 . S
C728 C730 1.353 . S
C728 H734 0.930 . S
N729 Li705 1.990 . S
N729 C728 1.314 . S
N729 C732 1.279 . S
C730 C728 1.353 . S
C730 C733 1.348 . S
C730 H778 0.929 . S
C731 C732 1.358 . S
C731 C733 1.356 . S
C731 H779 0.930 . S
C732 N729 1.279 . S
C732 C731 1.358 . S
C732 H735 0.930 . S
C733 C730 1.348 . S
C733 C731 1.356 . S
H734 C728 0.930 . S
H735 C732 0.930 . S
C736 C738 1.348 . S
C736 C739 1.356 . S
C736 O766 1.325 . S
N737 C740 1.314 . S
N737 C741 1.279 . S
C738 C736 1.348 . S
C738 C740 1.353 . S
C738 H780 0.929 . S
C739 C736 1.356 . S
C739 C741 1.358 . S
C739 H781 0.930 . S
C740 N737 1.314 . S
C740 C738 1.353 . S
C740 H782 0.930 . S
C741 N737 1.279 . S
C741 C739 1.358 . S
C741 H783 0.930 . S
C742 C743 1.334 1_565 S
C742 C744 1.356 . S
C742 O767 1.325 . S
C743 C742 1.334 1_545 S
C743 C745 1.359 1_545 S
C743 H784 0.939 . S
C744 C742 1.356 . S
C744 C746 1.358 . S
C744 H785 0.930 . S
C745 C743 1.359 1_565 S
C745 N747 1.314 . S
C745 H786 0.923 1_565 S
C746 C744 1.358 . S
C746 N747 1.279 . S
C746 H787 0.930 . S
N747 C745 1.314 . S
N747 C746 1.279 . S
C748 C750 1.353 . S
C748 N751 1.314 1_565 S
C748 H754 0.930 . S
C749 N751 1.279 . S
C749 C752 1.358 . S
C749 H755 0.930 . S
C750 C748 1.353 . S
C750 C753 1.348 1_565 S
C750 H788 0.929 . S
N751 Li706 1.990 . S
N751 C748 1.314 1_545 S
N751 C749 1.279 . S
C752 C749 1.358 . S
C752 C753 1.356 . S
C752 H789 0.930 . S
C753 C750 1.348 1_545 S
C753 C752 1.356 . S
H754 C748 0.930 . S
H755 C749 0.930 . S
C756 N757 1.314 . S
C756 C758 1.353 . S
C756 H762 0.930 . S
N757 Li707 1.990 . S
N757 C756 1.314 . S
N757 C760 1.279 . S
C758 C756 1.353 . S
C758 C761 1.348 . S
C758 H790 0.929 . S
C759 C760 1.358 . S
C759 C761 1.356 . S
C759 H791 0.930 . S
C760 N757 1.279 . S
C760 C759 1.358 . S
C760 H763 0.930 . S
C761 C758 1.348 . S
C761 C759 1.356 . S
H762 C756 0.930 . S
H763 C760 0.930 . S
O764 Li704 1.956 1_565 S
O764 Li705 1.970 . S
O764 Li706 1.961 1_565 S
O764 C708 1.325 . S
O765 Li704 1.970 . S
O765 Li705 1.956 1_545 S
O765 Li707 1.961 . S
O765 C714 1.325 . S
O766 Li704 1.961 . S
O766 Li706 1.956 . S
O766 Li707 1.970 . S
O766 C736 1.325 . S
O767 Li705 1.961 . S
O767 Li706 1.970 1_565 S
O767 Li707 1.956 1_565 S
O767 C742 1.325 . S
H768 C710 0.929 . S
H769 C711 0.930 . S
H770 C712 0.930 . S
H771 C713 0.930 . S
H772 C715 0.930 . S
H773 C717 0.948 . S
H774 C718 0.930 . S
H775 C719 0.930 . S
H776 C722 0.891 1_565 S
H777 C725 0.929 . S
H778 C730 0.929 . S
H779 C731 0.930 . S
H780 C738 0.929 . S
H781 C739 0.930 . S
H782 C740 0.930 . S
H783 C741 0.930 . S
H784 C743 0.939 . S
H785 C744 0.930 . S
H786 C745 0.923 1_545 S
H787 C746 0.930 . S
H788 C750 0.929 . S
H789 C752 0.930 . S
H790 C758 0.929 . S
H791 C759 0.930 . S
Li792 N809 1.990 . S
Li792 O852 1.956 . S
Li792 O853 1.970 . S
Li792 O854 1.961 . S
Li793 N817 1.990 . S
Li793 O852 1.970 . S
Li793 O853 1.956 . S
Li793 O855 1.961 . S
Li794 N839 1.990 . S
Li794 O852 1.961 . S
Li794 O854 1.956 . S
Li794 O855 1.970 . S
Li795 N845 1.990 . S
Li795 O853 1.961 . S
Li795 O854 1.970 . S
Li795 O855 1.956 . S
C796 C798 1.348 . S
C796 C799 1.356 . S
C796 O852 1.325 . S
N797 C800 1.314 . S
N797 C801 1.279 . S
C798 C796 1.348 . S
C798 C800 1.353 . S
C798 H856 0.929 . S
C799 C796 1.356 . S
C799 C801 1.358 . S
C799 H857 0.930 . S
C800 N797 1.314 . S
C800 C798 1.353 . S
C800 H858 0.930 . S
C801 N797 1.279 . S
C801 C799 1.358 . S
C801 H859 0.930 . S
C802 C805 1.348 . S
C802 C806 1.356 . S
C802 O853 1.325 . S
C803 N804 1.279 . S
C803 C806 1.358 . S
C803 H860 0.930 . S
N804 C803 1.279 . S
N804 C807 1.314 . S
C805 C802 1.348 . S
C805 C807 1.353 . S
C805 H861 0.929 . S
C806 C802 1.356 . S
C806 C803 1.358 . S
C806 H862 0.930 . S
C807 N804 1.314 . S
C807 C805 1.353 . S
C807 H863 0.930 . S
C808 N809 1.314 . S
C808 C813 1.353 . S
C808 H814 0.930 . S
N809 Li792 1.990 . S
N809 C808 1.314 . S
N809 C811 1.279 . S
C810 C811 1.358 . S
C810 C812 1.356 . S
C810 H864 0.930 . S
C811 N809 1.279 . S
C811 C810 1.358 . S
C811 H815 0.930 . S
C812 C810 1.356 . S
C812 C813 1.348 . S
C813 C808 1.353 . S
C813 C812 1.348 . S
C813 H865 0.929 . S
H814 C808 0.930 . S
H815 C811 0.930 . S
C816 N817 1.314 . S
C816 C818 1.353 . S
C816 H822 0.930 . S
N817 Li793 1.990 . S
N817 C816 1.314 . S
N817 C820 1.279 . S
C818 C816 1.353 . S
C818 C821 1.348 . S
C818 H866 0.929 . S
C819 C820 1.358 . S
C819 C821 1.356 . S
C819 H867 0.930 . S
C820 N817 1.279 . S
C820 C819 1.358 . S
C820 H823 0.930 . S
C821 C818 1.348 . S
C821 C819 1.356 . S
H822 C816 0.930 . S
H823 C820 0.930 . S
C824 C826 1.348 . S
C824 C827 1.356 . S
C824 O854 1.325 . S
N825 C828 1.314 . S
N825 C829 1.279 . S
C826 C824 1.348 . S
C826 C828 1.353 . S
C826 H868 0.929 . S
C827 C824 1.356 . S
C827 C829 1.358 . S
C827 H869 0.930 . S
C828 N825 1.314 . S
C828 C826 1.353 . S
C828 H870 0.930 . S
C829 N825 1.279 . S
C829 C827 1.358 . S
C829 H871 0.930 . S
C830 C831 1.348 . S
C830 C832 1.356 . S
C830 O855 1.325 . S
C831 C830 1.348 . S
C831 C833 1.353 . S
C831 H872 0.929 . S
C832 C830 1.356 . S
C832 C834 1.358 . S
C832 H873 0.930 . S
C833 C831 1.353 . S
C833 N835 1.314 . S
C833 H874 0.930 . S
C834 C832 1.358 . S
C834 N835 1.279 . S
C834 H875 0.930 . S
N835 C833 1.314 . S
N835 C834 1.279 . S
C836 C838 1.353 . S
C836 N839 1.314 . S
C836 H842 0.930 . S
C837 N839 1.279 . S
C837 C840 1.358 . S
C837 H843 0.930 . S
C838 C836 1.353 . S
C838 C841 1.348 . S
C838 H876 0.929 . S
N839 Li794 1.990 . S
N839 C836 1.314 . S
N839 C837 1.279 . S
C840 C837 1.358 . S
C840 C841 1.356 . S
C840 H877 0.930 . S
C841 C838 1.348 . S
C841 C840 1.356 . S
H842 C836 0.930 . S
H843 C837 0.930 . S
C844 N845 1.314 . S
C844 C846 1.353 . S
C844 H850 0.930 . S
N845 Li795 1.990 . S
N845 C844 1.314 . S
N845 C848 1.279 . S
C846 C844 1.353 . S
C846 C849 1.348 . S
C846 H878 0.929 . S
C847 C848 1.358 . S
C847 C849 1.356 . S
C847 H879 0.930 . S
C848 N845 1.279 . S
C848 C847 1.358 . S
C848 H851 0.930 . S
C849 C846 1.348 . S
C849 C847 1.356 . S
H850 C844 0.930 . S
H851 C848 0.930 . S
O852 Li792 1.956 . S
O852 Li793 1.970 . S
O852 Li794 1.961 . S
O852 C796 1.325 . S
O853 Li792 1.970 . S
O853 Li793 1.956 . S
O853 Li795 1.961 . S
O853 C802 1.325 . S
O854 Li792 1.961 . S
O854 Li794 1.956 . S
O854 Li795 1.970 . S
O854 C824 1.325 . S
O855 Li793 1.961 . S
O855 Li794 1.970 . S
O855 Li795 1.956 . S
O855 C830 1.325 . S
H856 C798 0.929 . S
H857 C799 0.930 . S
H858 C800 0.930 . S
H859 C801 0.930 . S
H860 C803 0.930 . S
H861 C805 0.929 . S
H862 C806 0.930 . S
H863 C807 0.930 . S
H864 C810 0.930 . S
H865 C813 0.929 . S
H866 C818 0.929 . S
H867 C819 0.930 . S
H868 C826 0.929 . S
H869 C827 0.930 . S
H870 C828 0.930 . S
H871 C829 0.930 . S
H872 C831 0.929 . S
H873 C832 0.930 . S
H874 C833 0.930 . S
H875 C834 0.930 . S
H876 C838 0.929 . S
H877 C840 0.930 . S
H878 C846 0.929 . S
H879 C847 0.930 . S
Li880 N897 1.990 . S
Li880 O940 1.956 . S
Li880 O941 1.970 . S
Li880 O942 1.961 . S
Li881 N905 1.991 . S
Li881 O940 1.970 . S
Li881 O941 1.956 . S
Li881 O943 1.961 1_545 S
Li882 N927 1.990 . S
Li882 O940 1.961 1_565 S
Li882 O942 1.956 1_565 S
Li882 O943 1.970 . S
Li883 N933 1.990 . S
Li883 O941 1.961 1_565 S
Li883 O942 1.970 1_565 S
Li883 O943 1.956 . S
C884 C886 1.348 . S
C884 C887 1.356 . S
C884 O940 1.325 . S
N885 C888 1.314 . S
N885 C889 1.279 . S
C886 C884 1.348 . S
C886 C888 1.353 . S
C886 H944 0.929 . S
C887 C884 1.356 . S
C887 C889 1.358 . S
C887 H945 0.930 . S
C888 N885 1.314 . S
C888 C886 1.353 . S
C888 H946 0.930 . S
C889 N885 1.279 . S
C889 C887 1.358 . S
C889 H947 0.930 . S
C890 C893 1.348 . S
C890 C894 1.356 . S
C890 O941 1.325 . S
C891 N892 1.279 . S
C891 C894 1.358 . S
C891 H948 0.930 . S
N892 C891 1.279 . S
N892 C895 1.314 . S
C893 C890 1.348 . S
C893 C895 1.353 . S
C893 H949 0.929 . S
C894 C890 1.356 . S
C894 C891 1.358 . S
C894 H950 0.930 . S
C895 N892 1.314 . S
C895 C893 1.353 . S
C895 H951 0.930 . S
C896 N897 1.314 . S
C896 C901 1.353 . S
C896 H902 0.930 . S
N897 Li880 1.990 . S
N897 C896 1.314 . S
N897 C899 1.279 . S
C898 C899 1.358 . S
C898 C900 1.356 . S
C898 H952 0.930 . S
C899 N897 1.279 . S
C899 C898 1.358 . S
C899 H903 0.930 . S
C900 C898 1.356 . S
C900 C901 1.348 . S
C901 C896 1.353 . S
C901 C900 1.348 . S
C901 H953 0.929 . S
H902 C896 0.930 . S
H903 C899 0.930 . S
C904 N905 1.267 1_565 S
C904 C906 1.353 . S
C904 H910 0.930 . S
N905 Li881 1.991 . S
N905 C904 1.267 1_545 S
N905 C908 1.325 . S
C906 C904 1.353 . S
C906 C909 1.348 . S
C906 H954 0.929 . S
C907 C908 1.358 . S
C907 C909 1.356 1_545 S
C907 H955 0.930 . S
C908 N905 1.325 . S
C908 C907 1.358 . S
C908 H911 0.930 . S
C909 C906 1.348 . S
C909 C907 1.356 1_565 S
H910 C904 0.930 . S
H911 C908 0.930 . S
C912 C914 1.348 1_545 S
C912 C915 1.356 . S
C912 O942 1.325 . S
N913 C916 1.314 1_545 S
N913 C917 1.279 . S
C914 C912 1.348 1_565 S
C914 C916 1.353 . S
C914 H956 0.929 . S
C915 C912 1.356 . S
C915 C917 1.358 . S
C915 H957 0.930 . S
C916 N913 1.314 1_565 S
C916 C914 1.353 . S
C916 H958 0.930 . S
C917 N913 1.279 . S
C917 C915 1.358 . S
C917 H959 0.930 . S
C918 C919 1.348 . S
C918 C920 1.356 . S
C918 O943 1.325 . S
C919 C918 1.348 . S
C919 C921 1.353 . S
C919 H960 0.929 . S
C920 C918 1.356 . S
C920 C922 1.358 . S
C920 H961 0.930 . S
C921 C919 1.353 . S
C921 N923 1.314 . S
C921 H962 0.930 . S
C922 C920 1.358 . S
C922 N923 1.279 . S
C922 H963 0.930 . S
N923 C921 1.314 . S
N923 C922 1.279 . S
C924 C926 1.353 . S
C924 N927 1.314 . S
C924 H930 0.930 . S
C925 N927 1.279 . S
C925 C928 1.358 . S
C925 H931 0.930 . S
C926 C924 1.353 . S
C926 C929 1.348 . S
C926 H964 0.929 . S
N927 Li882 1.990 . S
N927 C924 1.314 . S
N927 C925 1.279 . S
C928 C925 1.358 . S
C928 C929 1.356 . S
C928 H965 0.930 . S
C929 C926 1.348 . S
C929 C928 1.356 . S
H930 C924 0.930 . S
H931 C925 0.930 . S
C932 N933 1.314 1_545 S
C932 C934 1.353 . S
C932 H938 0.930 . S
N933 Li883 1.990 . S
N933 C932 1.314 1_565 S
N933 C936 1.279 . S
C934 C932 1.353 . S
C934 C937 1.348 1_545 S
C934 H966 0.929 . S
C935 C936 1.358 . S
C935 C937 1.356 . S
C935 H967 0.930 . S
C936 N933 1.279 . S
C936 C935 1.358 . S
C936 H939 0.930 . S
C937 C934 1.348 1_565 S
C937 C935 1.356 . S
H938 C932 0.930 . S
H939 C936 0.930 . S
O940 Li880 1.956 . S
O940 Li881 1.970 . S
O940 Li882 1.961 1_545 S
O940 C884 1.325 . S
O941 Li880 1.970 . S
O941 Li881 1.956 . S
O941 Li883 1.961 1_545 S
O941 C890 1.325 . S
O942 Li880 1.961 . S
O942 Li882 1.956 1_545 S
O942 Li883 1.970 1_545 S
O942 C912 1.325 . S
O943 Li881 1.961 1_565 S
O943 Li882 1.970 . S
O943 Li883 1.956 . S
O943 C918 1.325 . S
H944 C886 0.929 . S
H945 C887 0.930 . S
H946 C888 0.930 . S
H947 C889 0.930 . S
H948 C891 0.930 . S
H949 C893 0.929 . S
H950 C894 0.930 . S
H951 C895 0.930 . S
H952 C898 0.930 . S
H953 C901 0.929 . S
H954 C906 0.929 . S
H955 C907 0.930 . S
H956 C914 0.929 . S
H957 C915 0.930 . S
H958 C916 0.930 . S
H959 C917 0.930 . S
H960 C919 0.929 . S
H961 C920 0.930 . S
H962 C921 0.930 . S
H963 C922 0.930 . S
H964 C926 0.929 . S
H965 C928 0.930 . S
H966 C934 0.929 . S
H967 C935 0.930 . S
Li968 N985 1.990 . S
Li968 O1028 1.956 . S
Li968 O1029 1.970 . S
Li968 O1030 1.961 1_554 S
Li969 N993 1.990 . S
Li969 O1028 1.970 . S
Li969 O1029 1.956 . S
Li969 O1031 1.961 . S
Li970 N1015 1.990 . S
Li970 O1028 1.961 . S
Li970 O1030 1.956 1_554 S
Li970 O1031 1.970 . S
Li971 N1021 1.990 . S
Li971 O1029 1.961 1_556 S
Li971 O1030 1.970 . S
Li971 O1031 1.956 1_556 S
C972 C974 1.348 . S
C972 C975 1.356 . S
C972 O1028 1.325 . S
N973 C976 1.314 . S
N973 C977 1.279 . S
C974 C972 1.348 . S
C974 C976 1.353 . S
C974 H1032 0.929 . S
C975 C972 1.356 . S
C975 C977 1.358 . S
C975 H1033 0.930 . S
C976 N973 1.314 . S
C976 C974 1.353 . S
C976 H1034 0.930 . S
C977 N973 1.279 . S
C977 C975 1.358 . S
C977 H1035 0.930 . S
C978 C981 1.348 . S
C978 C982 1.356 1_554 S
C978 O1029 1.325 . S
C979 N980 1.269 1_556 S
C979 C982 1.358 . S
C979 H1036 0.930 . S
N980 C979 1.269 1_554 S
N980 C983 1.321 . S
C981 C978 1.348 . S
C981 C983 1.353 . S
C981 H1037 0.929 . S
C982 C978 1.356 1_556 S
C982 C979 1.358 . S
C982 H1038 0.930 . S
C983 N980 1.321 . S
C983 C981 1.353 . S
C983 H1039 0.930 . S
C984 N985 1.314 1_556 S
C984 C989 1.353 . S
C984 H990 0.930 . S
N985 Li968 1.990 . S
N985 C984 1.314 1_554 S
N985 C987 1.279 . S
C986 C987 1.358 . S
C986 C988 1.356 . S
C986 H1040 0.930 . S
C987 N985 1.279 . S
C987 C986 1.358 . S
C987 H991 0.930 . S
C988 C986 1.356 . S
C988 C989 1.348 1_554 S
C989 C984 1.353 . S
C989 C988 1.348 1_556 S
C989 H1041 0.929 . S
H990 C984 0.930 . S
H991 C987 0.930 . S
C992 N993 1.314 . S
C992 C994 1.353 . S
C992 H998 0.930 . S
N993 Li969 1.990 . S
N993 C992 1.314 . S
N993 C996 1.279 . S
C994 C992 1.353 . S
C994 C997 1.348 . S
C994 H1042 0.929 . S
C995 C996 1.358 . S
C995 C997 1.356 . S
C995 H1043 0.930 . S
C996 N993 1.279 . S
C996 C995 1.358 . S
C996 H999 0.930 . S
C997 C994 1.348 . S
C997 C995 1.356 . S
H998 C992 0.930 . S
H999 C996 0.930 . S
C1000 C1002 1.348 . S
C1000 C1003 1.356 . S
C1000 O1030 1.325 . S
N1001 C1004 1.314 . S
N1001 C1005 1.279 . S
C1002 C1000 1.348 . S
C1002 C1004 1.353 . S
C1002 H1044 0.929 . S
C1003 C1000 1.356 . S
C1003 C1005 1.358 . S
C1003 H1045 0.930 . S
C1004 N1001 1.314 . S
C1004 C1002 1.353 . S
C1004 H1046 0.930 . S
C1005 N1001 1.279 . S
C1005 C1003 1.358 . S
C1005 H1047 0.930 . S
C1006 C1007 1.348 . S
C1006 C1008 1.356 . S
C1006 O1031 1.325 . S
C1007 C1006 1.348 . S
C1007 C1009 1.353 . S
C1007 H1048 0.929 . S
C1008 C1006 1.356 . S
C1008 C1010 1.358 . S
C1008 H1049 0.930 . S
C1009 C1007 1.353 . S
C1009 N1011 1.314 . S
C1009 H1050 0.930 . S
C1010 C1008 1.358 . S
C1010 N1011 1.279 . S
C1010 H1051 0.930 . S
N1011 C1009 1.314 . S
N1011 C1010 1.279 . S
C1012 C1014 1.353 . S
C1012 N1015 1.314 . S
C1012 H1018 0.930 . S
C1013 N1015 1.279 . S
C1013 C1016 1.358 . S
C1013 H1019 0.930 1_554 S
C1014 C1012 1.353 . S
C1014 C1017 1.348 . S
C1014 H1052 0.929 . S
N1015 Li970 1.990 . S
N1015 C1012 1.314 . S
N1015 C1013 1.279 . S
C1016 C1013 1.358 . S
C1016 C1017 1.356 . S
C1016 H1053 0.930 1_554 S
C1017 C1014 1.348 . S
C1017 C1016 1.356 . S
H1018 C1012 0.930 . S
H1019 C1013 0.930 1_556 S
C1020 N1021 1.314 . S
C1020 C1022 1.353 . S
C1020 H1026 0.930 . S
N1021 Li971 1.990 . S
N1021 C1020 1.314 . S
N1021 C1024 1.279 . S
C1022 C1020 1.353 . S
C1022 C1025 1.348 . S
C1022 H1054 0.929 . S
C1023 C1024 1.358 . S
C1023 C1025 1.356 . S
C1023 H1055 0.930 . S
C1024 N1021 1.279 . S
C1024 C1023 1.358 . S
C1024 H1027 0.930 . S
C1025 C1022 1.348 . S
C1025 C1023 1.356 . S
H1026 C1020 0.930 . S
H1027 C1024 0.930 . S
O1028 Li968 1.956 . S
O1028 Li969 1.970 . S
O1028 Li970 1.961 . S
O1028 C972 1.325 . S
O1029 Li968 1.970 . S
O1029 Li969 1.956 . S
O1029 Li971 1.961 1_554 S
O1029 C978 1.325 . S
O1030 Li968 1.961 1_556 S
O1030 Li970 1.956 1_556 S
O1030 Li971 1.970 . S
O1030 C1000 1.325 . S
O1031 Li969 1.961 . S
O1031 Li970 1.970 . S
O1031 Li971 1.956 1_554 S
O1031 C1006 1.325 . S
H1032 C974 0.929 . S
H1033 C975 0.930 . S
H1034 C976 0.930 . S
H1035 C977 0.930 . S
H1036 C979 0.930 . S
H1037 C981 0.929 . S
H1038 C982 0.930 . S
H1039 C983 0.930 . S
H1040 C986 0.930 . S
H1041 C989 0.929 . S
H1042 C994 0.929 . S
H1043 C995 0.930 . S
H1044 C1002 0.929 . S
H1045 C1003 0.930 . S
H1046 C1004 0.930 . S
H1047 C1005 0.930 . S
H1048 C1007 0.929 . S
H1049 C1008 0.930 . S
H1050 C1009 0.930 . S
H1051 C1010 0.930 . S
H1052 C1014 0.929 . S
H1053 C1016 0.930 1_556 S
H1054 C1022 0.929 . S
H1055 C1023 0.930 . S
Li1056 N1073 1.990 . S
Li1056 O1116 1.956 . S
Li1056 O1117 1.970 . S
Li1056 O1118 1.961 1_554 S
Li1057 N1081 1.990 . S
Li1057 O1116 1.970 . S
Li1057 O1117 1.956 . S
Li1057 O1119 1.961 . S
Li1058 N1103 1.990 . S
Li1058 O1116 1.961 . S
Li1058 O1118 1.956 1_554 S
Li1058 O1119 1.970 . S
Li1059 N1109 1.990 . S
Li1059 O1117 1.961 1_556 S
Li1059 O1118 1.970 . S
Li1059 O1119 1.956 1_556 S
C1060 C1062 1.348 . S
C1060 C1063 1.356 . S
C1060 O1116 1.325 . S
N1061 C1064 1.314 . S
N1061 C1065 1.279 . S
C1062 C1060 1.348 . S
C1062 C1064 1.353 . S
C1062 H1120 0.929 . S
C1063 C1060 1.356 . S
C1063 C1065 1.358 . S
C1063 H1121 0.930 . S
C1064 N1061 1.314 . S
C1064 C1062 1.353 . S
C1064 H1122 0.930 . S
C1065 N1061 1.279 . S
C1065 C1063 1.358 . S
C1065 H1123 0.930 . S
C1066 C1069 1.348 . S
C1066 C1070 1.356 . S
C1066 O1117 1.325 . S
C1067 N1068 1.279 . S
C1067 C1070 1.358 . S
C1067 H1124 0.930 1_554 S
N1068 C1067 1.279 . S
N1068 C1071 1.314 . S
C1069 C1066 1.348 . S
C1069 C1071 1.353 . S
C1069 H1125 0.929 . S
C1070 C1066 1.356 . S
C1070 C1067 1.358 . S
C1070 H1126 0.935 . S
C1071 N1068 1.314 . S
C1071 C1069 1.353 . S
C1071 H1127 0.930 . S
C1072 N1073 1.333 . S
C1072 C1077 1.350 1_554 S
C1072 H1078 0.910 1_554 S
N1073 Li1056 1.990 . S
N1073 C1072 1.333 . S
N1073 C1075 1.279 . S
C1074 C1075 1.358 . S
C1074 C1076 1.356 . S
C1074 H1128 0.930 . S
C1075 N1073 1.279 . S
C1075 C1074 1.358 . S
C1075 H1079 0.930 . S
C1076 C1074 1.356 . S
C1076 C1077 1.317 1_554 S
C1077 C1072 1.350 1_556 S
C1077 C1076 1.317 1_556 S
C1077 H1129 0.963 . S
H1078 C1072 0.910 1_556 S
H1079 C1075 0.930 . S
C1080 N1081 1.314 . S
C1080 C1082 1.353 . S
C1080 H1086 0.930 . S
N1081 Li1057 1.990 . S
N1081 C1080 1.314 . S
N1081 C1084 1.279 . S
C1082 C1080 1.353 . S
C1082 C1085 1.348 . S
C1082 H1130 0.929 . S
C1083 C1084 1.358 . S
C1083 C1085 1.356 . S
C1083 H1131 0.930 . S
C1084 N1081 1.279 . S
C1084 C1083 1.358 . S
C1084 H1087 0.930 . S
C1085 C1082 1.348 . S
C1085 C1083 1.356 . S
H1086 C1080 0.930 . S
H1087 C1084 0.930 . S
C1088 C1090 1.348 . S
C1088 C1091 1.356 . S
C1088 O1118 1.325 . S
N1089 C1092 1.314 . S
N1089 C1093 1.279 . S
C1090 C1088 1.348 . S
C1090 C1092 1.353 . S
C1090 H1132 0.929 . S
C1091 C1088 1.356 . S
C1091 C1093 1.358 . S
C1091 H1133 0.930 . S
C1092 N1089 1.314 . S
C1092 C1090 1.353 . S
C1092 H1134 0.930 . S
C1093 N1089 1.279 . S
C1093 C1091 1.358 . S
C1093 H1135 0.930 . S
C1094 C1095 1.348 . S
C1094 C1096 1.356 . S
C1094 O1119 1.325 . S
C1095 C1094 1.348 . S
C1095 C1097 1.353 . S
C1095 H1136 0.929 . S
C1096 C1094 1.356 . S
C1096 C1098 1.358 . S
C1096 H1137 0.930 . S
C1097 C1095 1.353 . S
C1097 N1099 1.314 . S
C1097 H1138 0.930 . S
C1098 C1096 1.358 . S
C1098 N1099 1.279 . S
C1098 H1139 0.930 . S
N1099 C1097 1.314 . S
N1099 C1098 1.279 . S
C1100 C1102 1.353 . S
C1100 N1103 1.314 . S
C1100 H1106 0.930 . S
C1101 N1103 1.279 . S
C1101 C1104 1.358 . S
C1101 H1107 0.930 1_554 S
C1102 C1100 1.353 . S
C1102 C1105 1.348 . S
C1102 H1140 0.929 . S
N1103 Li1058 1.990 . S
N1103 C1100 1.314 . S
N1103 C1101 1.279 . S
C1104 C1101 1.358 . S
C1104 C1105 1.356 . S
C1104 H1141 0.930 1_554 S
C1105 C1102 1.348 . S
C1105 C1104 1.356 . S
H1106 C1100 0.930 . S
H1107 C1101 0.930 1_556 S
C1108 N1109 1.314 . S
C1108 C1110 1.353 . S
C1108 H1114 0.930 . S
N1109 Li1059 1.990 . S
N1109 C1108 1.314 . S
N1109 C1112 1.279 . S
C1110 C1108 1.353 . S
C1110 C1113 1.348 . S
C1110 H1142 0.929 . S
C1111 C1112 1.358 . S
C1111 C1113 1.356 . S
C1111 H1143 0.930 . S
C1112 N1109 1.279 . S
C1112 C1111 1.358 . S
C1112 H1115 0.930 . S
C1113 C1110 1.348 . S
C1113 C1111 1.356 . S
H1114 C1108 0.930 . S
H1115 C1112 0.930 . S
O1116 Li1056 1.956 . S
O1116 Li1057 1.970 . S
O1116 Li1058 1.961 . S
O1116 C1060 1.325 . S
O1117 Li1056 1.970 . S
O1117 Li1057 1.956 . S
O1117 Li1059 1.961 1_554 S
O1117 C1066 1.325 . S
O1118 Li1056 1.961 1_556 S
O1118 Li1058 1.956 1_556 S
O1118 Li1059 1.970 . S
O1118 C1088 1.325 . S
O1119 Li1057 1.961 . S
O1119 Li1058 1.970 . S
O1119 Li1059 1.956 1_554 S
O1119 C1094 1.325 . S
H1120 C1062 0.929 . S
H1121 C1063 0.930 . S
H1122 C1064 0.930 . S
H1123 C1065 0.930 . S
H1124 C1067 0.930 1_556 S
H1125 C1069 0.929 . S
H1126 C1070 0.935 . S
H1127 C1071 0.930 . S
H1128 C1074 0.930 . S
H1129 C1077 0.963 . S
H1130 C1082 0.929 . S
H1131 C1083 0.930 . S
H1132 C1090 0.929 . S
H1133 C1091 0.930 . S
H1134 C1092 0.930 . S
H1135 C1093 0.930 . S
H1136 C1095 0.929 . S
H1137 C1096 0.930 . S
H1138 C1097 0.930 . S
H1139 C1098 0.930 . S
H1140 C1102 0.929 . S
H1141 C1104 0.930 1_556 S
H1142 C1110 0.929 . S
H1143 C1111 0.930 . S
Li1144 N1161 1.990 . S
Li1144 O1204 1.956 . S
Li1144 O1205 1.970 . S
Li1144 O1206 1.961 . S
Li1145 N1169 1.990 . S
Li1145 O1204 1.970 . S
Li1145 O1205 1.956 . S
Li1145 O1207 1.961 1_554 S
Li1146 N1191 1.990 . S
Li1146 O1204 1.961 1_556 S
Li1146 O1206 1.956 1_556 S
Li1146 O1207 1.970 . S
Li1147 N1197 1.990 . S
Li1147 O1205 1.961 . S
Li1147 O1206 1.970 . S
Li1147 O1207 1.956 1_554 S
C1148 C1150 1.348 . S
C1148 C1151 1.356 . S
C1148 O1204 1.325 . S
N1149 C1152 1.314 . S
N1149 C1153 1.279 . S
C1150 C1148 1.348 . S
C1150 C1152 1.353 . S
C1150 H1208 0.929 . S
C1151 C1148 1.356 . S
C1151 C1153 1.358 . S
C1151 H1209 0.930 . S
C1152 N1149 1.314 . S
C1152 C1150 1.353 . S
C1152 H1210 0.930 . S
C1153 N1149 1.279 . S
C1153 C1151 1.358 . S
C1153 H1211 0.930 . S
C1154 C1157 1.348 . S
C1154 C1158 1.356 . S
C1154 O1205 1.325 . S
C1155 N1156 1.279 . S
C1155 C1158 1.358 . S
C1155 H1212 0.930 . S
N1156 C1155 1.279 . S
N1156 C1159 1.314 . S
C1157 C1154 1.348 . S
C1157 C1159 1.353 . S
C1157 H1213 0.929 . S
C1158 C1154 1.356 . S
C1158 C1155 1.358 . S
C1158 H1214 0.930 . S
C1159 N1156 1.314 . S
C1159 C1157 1.353 . S
C1159 H1215 0.930 . S
C1160 N1161 1.314 . S
C1160 C1165 1.353 . S
C1160 H1166 0.930 . S
N1161 Li1144 1.990 . S
N1161 C1160 1.314 . S
N1161 C1163 1.279 . S
C1162 C1163 1.358 . S
C1162 C1164 1.356 . S
C1162 H1216 0.930 . S
C1163 N1161 1.279 . S
C1163 C1162 1.358 . S
C1163 H1167 0.930 . S
C1164 C1162 1.356 . S
C1164 C1165 1.348 . S
C1165 C1160 1.353 . S
C1165 C1164 1.348 . S
C1165 H1217 0.929 . S
H1166 C1160 0.930 . S
H1167 C1163 0.930 . S
C1168 N1169 1.314 1_556 S
C1168 C1170 1.353 . S
C1168 H1174 0.930 . S
N1169 Li1145 1.990 . S
N1169 C1168 1.314 1_554 S
N1169 C1172 1.279 . S
C1170 C1168 1.353 . S
C1170 C1173 1.348 1_556 S
C1170 H1218 0.929 . S
C1171 C1172 1.358 . S
C1171 C1173 1.356 . S
C1171 H1219 0.930 . S
C1172 N1169 1.279 . S
C1172 C1171 1.358 . S
C1172 H1175 0.930 . S
C1173 C1170 1.348 1_554 S
C1173 C1171 1.356 . S
H1174 C1168 0.930 . S
H1175 C1172 0.930 . S
C1176 C1178 1.348 . S
C1176 C1179 1.356 . S
C1176 O1206 1.325 . S
N1177 C1180 1.314 . S
N1177 C1181 1.279 . S
C1178 C1176 1.348 . S
C1178 C1180 1.353 . S
C1178 H1220 0.929 1_554 S
C1179 C1176 1.356 . S
C1179 C1181 1.358 . S
C1179 H1221 0.930 . S
C1180 N1177 1.314 . S
C1180 C1178 1.353 . S
C1180 H1222 0.929 . S
C1181 N1177 1.279 . S
C1181 C1179 1.358 . S
C1181 H1223 0.930 . S
C1182 C1183 1.348 . S
C1182 C1184 1.356 . S
C1182 O1207 1.325 . S
C1183 C1182 1.348 . S
C1183 C1185 1.353 . S
C1183 H1224 0.929 . S
C1184 C1182 1.356 . S
C1184 C1186 1.358 . S
C1184 H1225 0.930 . S
C1185 C1183 1.353 . S
C1185 N1187 1.314 . S
C1185 H1226 0.930 . S
C1186 C1184 1.358 . S
C1186 N1187 1.279 . S
C1186 H1227 0.930 . S
N1187 C1185 1.314 . S
N1187 C1186 1.279 . S
C1188 C1190 1.353 . S
C1188 N1191 1.314 . S
C1188 H1194 0.930 . S
C1189 N1191 1.279 . S
C1189 C1192 1.358 . S
C1189 H1195 0.930 . S
C1190 C1188 1.353 . S
C1190 C1193 1.348 . S
C1190 H1228 0.929 . S
N1191 Li1146 1.990 . S
N1191 C1188 1.314 . S
N1191 C1189 1.279 . S
C1192 C1189 1.358 . S
C1192 C1193 1.356 . S
C1192 H1229 0.930 . S
C1193 C1190 1.348 . S
C1193 C1192 1.356 . S
H1194 C1188 0.930 . S
H1195 C1189 0.930 . S
C1196 N1197 1.314 . S
C1196 C1198 1.353 . S
C1196 H1202 0.930 . S
N1197 Li1147 1.990 . S
N1197 C1196 1.314 . S
N1197 C1200 1.279 1_554 S
C1198 C1196 1.353 . S
C1198 C1201 1.342 1_554 S
C1198 H1230 0.929 . S
C1199 C1200 1.358 . S
C1199 C1201 1.362 . S
C1199 H1231 0.930 . S
C1200 N1197 1.279 1_556 S
C1200 C1199 1.358 . S
C1200 H1203 0.930 . S
C1201 C1198 1.342 1_556 S
C1201 C1199 1.362 . S
H1202 C1196 0.930 . S
H1203 C1200 0.930 . S
O1204 Li1144 1.956 . S
O1204 Li1145 1.970 . S
O1204 Li1146 1.961 1_554 S
O1204 C1148 1.325 . S
O1205 Li1144 1.970 . S
O1205 Li1145 1.956 . S
O1205 Li1147 1.961 . S
O1205 C1154 1.325 . S
O1206 Li1144 1.961 . S
O1206 Li1146 1.956 1_554 S
O1206 Li1147 1.970 . S
O1206 C1176 1.325 . S
O1207 Li1145 1.961 1_556 S
O1207 Li1146 1.970 . S
O1207 Li1147 1.956 1_556 S
O1207 C1182 1.325 . S
H1208 C1150 0.929 . S
H1209 C1151 0.930 . S
H1210 C1152 0.930 . S
H1211 C1153 0.930 . S
H1212 C1155 0.930 . S
H1213 C1157 0.929 . S
H1214 C1158 0.930 . S
H1215 C1159 0.930 . S
H1216 C1162 0.930 . S
H1217 C1165 0.929 . S
H1218 C1170 0.929 . S
H1219 C1171 0.930 . S
H1220 C1178 0.929 1_556 S
H1221 C1179 0.930 . S
H1222 C1180 0.929 . S
H1223 C1181 0.930 . S
H1224 C1183 0.929 . S
H1225 C1184 0.930 . S
H1226 C1185 0.930 . S
H1227 C1186 0.930 . S
H1228 C1190 0.929 . S
H1229 C1192 0.930 . S
H1230 C1198 0.929 . S
H1231 C1199 0.930 . S
Li1232 N1249 1.990 . S
Li1232 O1292 1.956 . S
Li1232 O1293 1.970 . S
Li1232 O1294 1.961 . S
Li1233 N1257 1.990 . S
Li1233 O1292 1.970 . S
Li1233 O1293 1.956 . S
Li1233 O1295 1.961 . S
Li1234 N1279 1.990 . S
Li1234 O1292 1.961 . S
Li1234 O1294 1.956 . S
Li1234 O1295 1.970 . S
Li1235 N1285 1.990 . S
Li1235 O1293 1.961 . S
Li1235 O1294 1.970 . S
Li1235 O1295 1.956 . S
C1236 C1238 1.348 . S
C1236 C1239 1.356 . S
C1236 O1292 1.325 . S
N1237 C1240 1.314 . S
N1237 C1241 1.279 . S
C1238 C1236 1.348 . S
C1238 C1240 1.353 . S
C1238 H1296 0.929 . S
C1239 C1236 1.356 . S
C1239 C1241 1.358 . S
C1239 H1297 0.930 . S
C1240 N1237 1.314 . S
C1240 C1238 1.353 . S
C1240 H1298 0.930 . S
C1241 N1237 1.279 . S
C1241 C1239 1.358 . S
C1241 H1299 0.930 . S
C1242 C1245 1.348 . S
C1242 C1246 1.356 . S
C1242 O1293 1.325 . S
C1243 N1244 1.279 . S
C1243 C1246 1.358 . S
C1243 H1300 0.930 . S
N1244 C1243 1.279 . S
N1244 C1247 1.314 . S
C1245 C1242 1.348 . S
C1245 C1247 1.353 . S
C1245 H1301 0.929 . S
C1246 C1242 1.356 . S
C1246 C1243 1.358 . S
C1246 H1302 0.930 . S
C1247 N1244 1.314 . S
C1247 C1245 1.353 . S
C1247 H1303 0.930 . S
C1248 N1249 1.314 . S
C1248 C1253 1.353 . S
C1248 H1254 0.930 . S
N1249 Li1232 1.990 . S
N1249 C1248 1.314 . S
N1249 C1251 1.279 . S
C1250 C1251 1.358 . S
C1250 C1252 1.356 . S
C1250 H1304 0.930 . S
C1251 N1249 1.279 . S
C1251 C1250 1.358 . S
C1251 H1255 0.930 . S
C1252 C1250 1.356 . S
C1252 C1253 1.348 . S
C1253 C1248 1.353 . S
C1253 C1252 1.348 . S
C1253 H1305 0.929 . S
H1254 C1248 0.930 . S
H1255 C1251 0.930 . S
C1256 N1257 1.314 . S
C1256 C1258 1.353 . S
C1256 H1262 0.930 . S
N1257 Li1233 1.990 . S
N1257 C1256 1.314 . S
N1257 C1260 1.279 . S
C1258 C1256 1.353 . S
C1258 C1261 1.348 . S
C1258 H1306 0.929 . S
C1259 C1260 1.358 . S
C1259 C1261 1.356 . S
C1259 H1307 0.930 . S
C1260 N1257 1.279 . S
C1260 C1259 1.358 . S
C1260 H1263 0.930 . S
C1261 C1258 1.348 . S
C1261 C1259 1.356 . S
H1262 C1256 0.930 . S
H1263 C1260 0.930 . S
C1264 C1266 1.348 . S
C1264 C1267 1.356 . S
C1264 O1294 1.325 . S
N1265 C1268 1.314 . S
N1265 C1269 1.279 . S
C1266 C1264 1.348 . S
C1266 C1268 1.353 . S
C1266 H1308 0.929 . S
C1267 C1264 1.356 . S
C1267 C1269 1.358 . S
C1267 H1309 0.930 . S
C1268 N1265 1.314 . S
C1268 C1266 1.353 . S
C1268 H1310 0.930 . S
C1269 N1265 1.279 . S
C1269 C1267 1.358 . S
C1269 H1311 0.930 . S
C1270 C1271 1.348 . S
C1270 C1272 1.356 . S
C1270 O1295 1.325 . S
C1271 C1270 1.348 . S
C1271 C1273 1.353 . S
C1271 H1312 0.929 . S
C1272 C1270 1.356 . S
C1272 C1274 1.358 . S
C1272 H1313 0.930 . S
C1273 C1271 1.353 . S
C1273 N1275 1.314 . S
C1273 H1314 0.930 . S
C1274 C1272 1.358 . S
C1274 N1275 1.279 . S
C1274 H1315 0.930 . S
N1275 C1273 1.314 . S
N1275 C1274 1.279 . S
C1276 C1278 1.353 . S
C1276 N1279 1.314 . S
C1276 H1282 0.930 . S
C1277 N1279 1.279 . S
C1277 C1280 1.358 . S
C1277 H1283 0.930 . S
C1278 C1276 1.353 . S
C1278 C1281 1.348 . S
C1278 H1316 0.929 . S
N1279 Li1234 1.990 . S
N1279 C1276 1.314 . S
N1279 C1277 1.279 . S
C1280 C1277 1.358 . S
C1280 C1281 1.356 . S
C1280 H1317 0.930 . S
C1281 C1278 1.348 . S
C1281 C1280 1.356 . S
H1282 C1276 0.930 . S
H1283 C1277 0.930 . S
C1284 N1285 1.314 . S
C1284 C1286 1.353 . S
C1284 H1290 0.930 . S
N1285 Li1235 1.990 . S
N1285 C1284 1.314 . S
N1285 C1288 1.279 . S
C1286 C1284 1.353 . S
C1286 C1289 1.348 . S
C1286 H1318 0.929 . S
C1287 C1288 1.358 . S
C1287 C1289 1.356 . S
C1287 H1319 0.930 . S
C1288 N1285 1.279 . S
C1288 C1287 1.358 . S
C1288 H1291 0.930 . S
C1289 C1286 1.348 . S
C1289 C1287 1.356 . S
H1290 C1284 0.930 . S
H1291 C1288 0.930 . S
O1292 Li1232 1.956 . S
O1292 Li1233 1.970 . S
O1292 Li1234 1.961 . S
O1292 C1236 1.325 . S
O1293 Li1232 1.970 . S
O1293 Li1233 1.956 . S
O1293 Li1235 1.961 . S
O1293 C1242 1.325 . S
O1294 Li1232 1.961 . S
O1294 Li1234 1.956 . S
O1294 Li1235 1.970 . S
O1294 C1264 1.325 . S
O1295 Li1233 1.961 . S
O1295 Li1234 1.970 . S
O1295 Li1235 1.956 . S
O1295 C1270 1.325 . S
H1296 C1238 0.929 . S
H1297 C1239 0.930 . S
H1298 C1240 0.930 . S
H1299 C1241 0.930 . S
H1300 C1243 0.930 . S
H1301 C1245 0.929 . S
H1302 C1246 0.930 . S
H1303 C1247 0.930 . S
H1304 C1250 0.930 . S
H1305 C1253 0.929 . S
H1306 C1258 0.929 . S
H1307 C1259 0.930 . S
H1308 C1266 0.929 . S
H1309 C1267 0.930 . S
H1310 C1268 0.930 . S
H1311 C1269 0.930 . S
H1312 C1271 0.929 . S
H1313 C1272 0.930 . S
H1314 C1273 0.930 . S
H1315 C1274 0.930 . S
H1316 C1278 0.929 . S
H1317 C1280 0.930 . S
H1318 C1286 0.929 . S
H1319 C1287 0.930 . S
Li1320 N1337 1.990 . S
Li1320 O1380 1.956 . S
Li1320 O1381 1.970 . S
Li1320 O1382 1.961 . S
Li1321 N1345 1.990 . S
Li1321 O1380 1.970 . S
Li1321 O1381 1.956 . S
Li1321 O1383 1.961 . S
Li1322 N1367 1.990 . S
Li1322 O1380 1.961 . S
Li1322 O1382 1.956 . S
Li1322 O1383 1.970 . S
Li1323 N1373 1.990 . S
Li1323 O1381 1.961 . S
Li1323 O1382 1.970 . S
Li1323 O1383 1.956 . S
C1324 C1326 1.348 . S
C1324 C1327 1.356 . S
C1324 O1380 1.325 . S
N1325 C1328 1.314 . S
N1325 C1329 1.279 . S
C1326 C1324 1.348 . S
C1326 C1328 1.353 . S
C1326 H1384 0.929 . S
C1327 C1324 1.356 . S
C1327 C1329 1.358 . S
C1327 H1385 0.930 . S
C1328 N1325 1.314 . S
C1328 C1326 1.353 . S
C1328 H1386 0.930 . S
C1329 N1325 1.279 . S
C1329 C1327 1.358 . S
C1329 H1387 0.930 . S
C1330 C1333 1.348 . S
C1330 C1334 1.356 . S
C1330 O1381 1.325 . S
C1331 N1332 1.279 . S
C1331 C1334 1.358 . S
C1331 H1388 0.930 . S
N1332 C1331 1.279 . S
N1332 C1335 1.314 . S
C1333 C1330 1.348 . S
C1333 C1335 1.353 . S
C1333 H1389 0.929 . S
C1334 C1330 1.356 . S
C1334 C1331 1.358 . S
C1334 H1390 0.930 . S
C1335 N1332 1.314 . S
C1335 C1333 1.353 . S
C1335 H1391 0.930 . S
C1336 N1337 1.314 . S
C1336 C1341 1.353 . S
C1336 H1342 0.930 . S
N1337 Li1320 1.990 . S
N1337 C1336 1.314 . S
N1337 C1339 1.279 . S
C1338 C1339 1.358 . S
C1338 C1340 1.356 . S
C1338 H1392 0.930 . S
C1339 N1337 1.279 . S
C1339 C1338 1.358 . S
C1339 H1343 0.930 . S
C1340 C1338 1.356 . S
C1340 C1341 1.348 . S
C1341 C1336 1.353 . S
C1341 C1340 1.348 . S
C1341 H1393 0.929 . S
H1342 C1336 0.930 . S
H1343 C1339 0.930 . S
C1344 N1345 1.314 . S
C1344 C1346 1.353 . S
C1344 H1350 0.930 . S
N1345 Li1321 1.990 . S
N1345 C1344 1.314 . S
N1345 C1348 1.279 . S
C1346 C1344 1.353 . S
C1346 C1349 1.348 . S
C1346 H1394 0.929 . S
C1347 C1348 1.358 . S
C1347 C1349 1.356 . S
C1347 H1395 0.930 . S
C1348 N1345 1.279 . S
C1348 C1347 1.358 . S
C1348 H1351 0.930 . S
C1349 C1346 1.348 . S
C1349 C1347 1.356 . S
H1350 C1344 0.930 . S
H1351 C1348 0.930 . S
C1352 C1354 1.348 . S
C1352 C1355 1.356 . S
C1352 O1382 1.325 . S
N1353 C1356 1.314 . S
N1353 C1357 1.279 . S
C1354 C1352 1.348 . S
C1354 C1356 1.353 . S
C1354 H1396 0.929 . S
C1355 C1352 1.356 . S
C1355 C1357 1.358 . S
C1355 H1397 0.930 . S
C1356 N1353 1.314 . S
C1356 C1354 1.353 . S
C1356 H1398 0.930 . S
C1357 N1353 1.279 . S
C1357 C1355 1.358 . S
C1357 H1399 0.930 . S
C1358 C1359 1.348 . S
C1358 C1360 1.356 . S
C1358 O1383 1.325 . S
C1359 C1358 1.348 . S
C1359 C1361 1.353 . S
C1359 H1400 0.929 . S
C1360 C1358 1.356 . S
C1360 C1362 1.358 . S
C1360 H1401 0.930 . S
C1361 C1359 1.353 . S
C1361 N1363 1.314 . S
C1361 H1402 0.930 . S
C1362 C1360 1.358 . S
C1362 N1363 1.279 . S
C1362 H1403 0.930 . S
N1363 C1361 1.314 . S
N1363 C1362 1.279 . S
C1364 C1366 1.353 . S
C1364 N1367 1.314 . S
C1364 H1370 0.930 . S
C1365 N1367 1.279 . S
C1365 C1368 1.358 . S
C1365 H1371 0.930 . S
C1366 C1364 1.353 . S
C1366 C1369 1.348 . S
C1366 H1404 0.929 . S
N1367 Li1322 1.990 . S
N1367 C1364 1.314 . S
N1367 C1365 1.279 . S
C1368 C1365 1.358 . S
C1368 C1369 1.356 . S
C1368 H1405 0.930 . S
C1369 C1366 1.348 . S
C1369 C1368 1.356 . S
H1370 C1364 0.930 . S
H1371 C1365 0.930 . S
C1372 N1373 1.314 . S
C1372 C1374 1.353 . S
C1372 H1378 0.930 . S
N1373 Li1323 1.990 . S
N1373 C1372 1.314 . S
N1373 C1376 1.279 . S
C1374 C1372 1.353 . S
C1374 C1377 1.348 . S
C1374 H1406 0.929 . S
C1375 C1376 1.358 . S
C1375 C1377 1.356 . S
C1375 H1407 0.930 . S
C1376 N1373 1.279 . S
C1376 C1375 1.358 . S
C1376 H1379 0.930 . S
C1377 C1374 1.348 . S
C1377 C1375 1.356 . S
H1378 C1372 0.930 . S
H1379 C1376 0.930 . S
O1380 Li1320 1.956 . S
O1380 Li1321 1.970 . S
O1380 Li1322 1.961 . S
O1380 C1324 1.325 . S
O1381 Li1320 1.970 . S
O1381 Li1321 1.956 . S
O1381 Li1323 1.961 . S
O1381 C1330 1.325 . S
O1382 Li1320 1.961 . S
O1382 Li1322 1.956 . S
O1382 Li1323 1.970 . S
O1382 C1352 1.325 . S
O1383 Li1321 1.961 . S
O1383 Li1322 1.970 . S
O1383 Li1323 1.956 . S
O1383 C1358 1.325 . S
H1384 C1326 0.929 . S
H1385 C1327 0.930 . S
H1386 C1328 0.930 . S
H1387 C1329 0.930 . S
H1388 C1331 0.930 . S
H1389 C1333 0.929 . S
H1390 C1334 0.930 . S
H1391 C1335 0.930 . S
H1392 C1338 0.930 . S
H1393 C1341 0.929 . S
H1394 C1346 0.929 . S
H1395 C1347 0.930 . S
H1396 C1354 0.929 . S
H1397 C1355 0.930 . S
H1398 C1356 0.930 . S
H1399 C1357 0.930 . S
H1400 C1359 0.929 . S
H1401 C1360 0.930 . S
H1402 C1361 0.930 . S
H1403 C1362 0.930 . S
H1404 C1366 0.929 . S
H1405 C1368 0.930 . S
H1406 C1374 0.929 . S
H1407 C1375 0.930 . S
Li1408 N1425 1.990 . S
Li1408 O1468 1.956 . S
Li1408 O1469 1.970 . S
Li1408 O1470 1.961 . S
Li1409 N1433 1.990 . S
Li1409 O1468 1.970 . S
Li1409 O1469 1.956 . S
Li1409 O1471 1.961 . S
Li1410 N1455 1.990 . S
Li1410 O1468 1.961 . S
Li1410 O1470 1.956 . S
Li1410 O1471 1.970 . S
Li1411 N1461 1.990 . S
Li1411 O1469 1.961 . S
Li1411 O1470 1.970 . S
Li1411 O1471 1.956 . S
C1412 C1414 1.348 . S
C1412 C1415 1.356 . S
C1412 O1468 1.325 . S
N1413 C1416 1.314 . S
N1413 C1417 1.279 1_565 S
C1414 C1412 1.348 . S
C1414 C1416 1.353 1_545 S
C1414 H1472 0.929 . S
C1415 C1412 1.356 . S
C1415 C1417 1.358 . S
C1415 H1473 0.930 . S
C1416 N1413 1.314 . S
C1416 C1414 1.353 1_565 S
C1416 H1474 0.930 . S
C1417 N1413 1.279 1_545 S
C1417 C1415 1.358 . S
C1417 H1475 0.930 . S
C1418 C1421 1.348 . S
C1418 C1422 1.356 . S
C1418 O1469 1.325 . S
C1419 N1420 1.279 . S
C1419 C1422 1.358 . S
C1419 H1476 0.930 . S
N1420 C1419 1.279 . S
N1420 C1423 1.314 . S
C1421 C1418 1.348 . S
C1421 C1423 1.353 . S
C1421 H1477 0.929 . S
C1422 C1418 1.356 . S
C1422 C1419 1.358 . S
C1422 H1478 0.930 . S
C1423 N1420 1.314 . S
C1423 C1421 1.353 . S
C1423 H1479 0.930 . S
C1424 N1425 1.314 . S
C1424 C1429 1.353 . S
C1424 H1430 0.930 . S
N1425 Li1408 1.990 . S
N1425 C1424 1.314 . S
N1425 C1427 1.279 . S
C1426 C1427 1.358 . S
C1426 C1428 1.356 . S
C1426 H1480 0.930 . S
C1427 N1425 1.279 . S
C1427 C1426 1.358 . S
C1427 H1431 0.930 . S
C1428 C1426 1.356 . S
C1428 C1429 1.348 . S
C1429 C1424 1.353 . S
C1429 C1428 1.348 . S
C1429 H1481 0.929 . S
H1430 C1424 0.930 . S
H1431 C1427 0.930 . S
C1432 N1433 1.314 1_565 S
C1432 C1434 1.353 . S
C1432 H1438 0.930 1_565 S
N1433 Li1409 1.990 . S
N1433 C1432 1.314 1_545 S
N1433 C1436 1.279 . S
C1434 C1432 1.353 . S
C1434 C1437 1.348 . S
C1434 H1482 0.929 . S
C1435 C1436 1.358 1_565 S
C1435 C1437 1.356 . S
C1435 H1483 0.930 . S
C1436 N1433 1.279 . S
C1436 C1435 1.358 1_545 S
C1436 H1439 0.930 . S
C1437 C1434 1.348 . S
C1437 C1435 1.356 . S
H1438 C1432 0.930 1_545 S
H1439 C1436 0.930 . S
C1440 C1442 1.348 . S
C1440 C1443 1.356 . S
C1440 O1470 1.325 . S
N1441 C1444 1.314 . S
N1441 C1445 1.279 . S
C1442 C1440 1.348 . S
C1442 C1444 1.353 . S
C1442 H1484 0.929 . S
C1443 C1440 1.356 . S
C1443 C1445 1.358 . S
C1443 H1485 0.930 . S
C1444 N1441 1.314 . S
C1444 C1442 1.353 . S
C1444 H1486 0.930 . S
C1445 N1441 1.279 . S
C1445 C1443 1.358 . S
C1445 H1487 0.889 1_655 S
C1446 C1447 1.348 . S
C1446 C1448 1.356 . S
C1446 O1471 1.325 . S
C1447 C1446 1.348 . S
C1447 C1449 1.353 . S
C1447 H1488 0.929 . S
C1448 C1446 1.356 . S
C1448 C1450 1.358 . S
C1448 H1489 0.930 . S
C1449 C1447 1.353 . S
C1449 N1451 1.314 . S
C1449 H1490 0.930 . S
C1450 C1448 1.358 . S
C1450 N1451 1.279 . S
C1450 H1491 0.930 . S
N1451 C1449 1.314 . S
N1451 C1450 1.279 . S
C1452 C1454 1.353 . S
C1452 N1455 1.314 . S
C1452 H1458 0.930 . S
C1453 N1455 1.279 . S
C1453 C1456 1.358 . S
C1453 H1459 0.930 . S
C1454 C1452 1.353 . S
C1454 C1457 1.348 . S
C1454 H1492 0.929 . S
N1455 Li1410 1.990 . S
N1455 C1452 1.314 . S
N1455 C1453 1.279 . S
C1456 C1453 1.358 . S
C1456 C1457 1.356 . S
C1456 H1493 0.930 . S
C1457 C1454 1.348 . S
C1457 C1456 1.356 . S
H1458 C1452 0.930 . S
H1459 C1453 0.930 . S
C1460 N1461 1.314 . S
C1460 C1462 1.353 . S
C1460 H1466 0.930 . S
N1461 Li1411 1.990 . S
N1461 C1460 1.314 . S
N1461 C1464 1.279 . S
C1462 C1460 1.353 . S
C1462 C1465 1.348 . S
C1462 H1494 0.929 . S
C1463 C1464 1.358 . S
C1463 C1465 1.356 . S
C1463 H1495 0.930 . S
C1464 N1461 1.279 . S
C1464 C1463 1.358 . S
C1464 H1467 0.930 . S
C1465 C1462 1.348 . S
C1465 C1463 1.356 . S
H1466 C1460 0.930 . S
H1467 C1464 0.930 . S
O1468 Li1408 1.956 . S
O1468 Li1409 1.970 . S
O1468 Li1410 1.961 . S
O1468 C1412 1.325 . S
O1469 Li1408 1.970 . S
O1469 Li1409 1.956 . S
O1469 Li1411 1.961 . S
O1469 C1418 1.325 . S
O1470 Li1408 1.961 . S
O1470 Li1410 1.956 . S
O1470 Li1411 1.970 . S
O1470 C1440 1.325 . S
O1471 Li1409 1.961 . S
O1471 Li1410 1.970 . S
O1471 Li1411 1.956 . S
O1471 C1446 1.325 . S
H1472 C1414 0.929 . S
H1473 C1415 0.930 . S
H1474 C1416 0.930 . S
H1475 C1417 0.930 . S
H1476 C1419 0.930 . S
H1477 C1421 0.929 . S
H1478 C1422 0.930 . S
H1479 C1423 0.930 . S
H1480 C1426 0.930 . S
H1481 C1429 0.929 . S
H1482 C1434 0.929 . S
H1483 C1435 0.930 . S
H1484 C1442 0.929 . S
H1485 C1443 0.930 . S
H1486 C1444 0.930 . S
H1487 C1445 0.889 1_455 S
H1488 C1447 0.929 . S
H1489 C1448 0.930 . S
H1490 C1449 0.930 . S
H1491 C1450 0.930 . S
H1492 C1454 0.929 . S
H1493 C1456 0.930 . S
H1494 C1462 0.929 . S
H1495 C1463 0.930 . S
Li1496 N1513 1.990 . S
Li1496 O1556 1.956 . S
Li1496 O1557 1.970 . S
Li1496 O1558 1.961 . S
Li1497 N1521 1.990 . S
Li1497 O1556 1.970 . S
Li1497 O1557 1.956 . S
Li1497 O1559 1.961 . S
Li1498 N1543 1.990 . S
Li1498 O1556 1.961 . S
Li1498 O1558 1.956 . S
Li1498 O1559 1.970 . S
Li1499 N1549 1.990 . S
Li1499 O1557 1.961 . S
Li1499 O1558 1.970 . S
Li1499 O1559 1.956 . S
C1500 C1502 1.348 . S
C1500 C1503 1.356 . S
C1500 O1556 1.325 . S
N1501 C1504 1.314 . S
N1501 C1505 1.279 . S
C1502 C1500 1.348 . S
C1502 C1504 1.353 . S
C1502 H1560 0.929 . S
C1503 C1500 1.356 . S
C1503 C1505 1.358 . S
C1503 H1561 0.930 . S
C1504 N1501 1.314 . S
C1504 C1502 1.353 . S
C1504 H1562 0.930 . S
C1505 N1501 1.279 . S
C1505 C1503 1.358 . S
C1505 H1563 0.930 . S
C1506 C1509 1.348 . S
C1506 C1510 1.356 . S
C1506 O1557 1.325 . S
C1507 N1508 1.279 . S
C1507 C1510 1.358 . S
C1507 H1564 0.930 . S
N1508 C1507 1.279 . S
N1508 C1511 1.314 . S
C1509 C1506 1.348 . S
C1509 C1511 1.353 . S
C1509 H1565 0.929 . S
C1510 C1506 1.356 . S
C1510 C1507 1.358 . S
C1510 H1566 0.930 . S
C1511 N1508 1.314 . S
C1511 C1509 1.353 . S
C1511 H1567 0.930 . S
C1512 N1513 1.314 . S
C1512 C1517 1.353 . S
C1512 H1518 0.930 . S
N1513 Li1496 1.990 . S
N1513 C1512 1.314 . S
N1513 C1515 1.279 . S
C1514 C1515 1.358 . S
C1514 C1516 1.356 . S
C1514 H1568 0.930 . S
C1515 N1513 1.279 . S
C1515 C1514 1.358 . S
C1515 H1519 0.930 . S
C1516 C1514 1.356 . S
C1516 C1517 1.348 . S
C1517 C1512 1.353 . S
C1517 C1516 1.348 . S
C1517 H1569 0.929 . S
H1518 C1512 0.930 . S
H1519 C1515 0.930 . S
C1520 N1521 1.314 . S
C1520 C1522 1.353 . S
C1520 H1526 0.930 . S
N1521 Li1497 1.990 . S
N1521 C1520 1.314 . S
N1521 C1524 1.279 . S
C1522 C1520 1.353 . S
C1522 C1525 1.348 . S
C1522 H1570 0.929 . S
C1523 C1524 1.358 . S
C1523 C1525 1.356 . S
C1523 H1571 0.930 . S
C1524 N1521 1.279 . S
C1524 C1523 1.358 . S
C1524 H1527 0.930 . S
C1525 C1522 1.348 . S
C1525 C1523 1.356 . S
H1526 C1520 0.930 . S
H1527 C1524 0.930 . S
C1528 C1530 1.348 . S
C1528 C1531 1.356 . S
C1528 O1558 1.325 . S
N1529 C1532 1.314 . S
N1529 C1533 1.279 . S
C1530 C1528 1.348 . S
C1530 C1532 1.353 . S
C1530 H1572 0.929 . S
C1531 C1528 1.356 . S
C1531 C1533 1.358 . S
C1531 H1573 0.930 . S
C1532 N1529 1.314 . S
C1532 C1530 1.353 . S
C1532 H1574 0.930 . S
C1533 N1529 1.279 . S
C1533 C1531 1.358 . S
C1533 H1575 0.930 . S
C1534 C1535 1.348 . S
C1534 C1536 1.356 . S
C1534 O1559 1.325 . S
C1535 C1534 1.348 . S
C1535 C1537 1.353 . S
C1535 H1576 0.929 . S
C1536 C1534 1.356 . S
C1536 C1538 1.358 . S
C1536 H1577 0.930 . S
C1537 C1535 1.353 . S
C1537 N1539 1.314 . S
C1537 H1578 0.930 . S
C1538 C1536 1.358 . S
C1538 N1539 1.279 . S
C1538 H1579 0.930 . S
N1539 C1537 1.314 . S
N1539 C1538 1.279 . S
C1540 C1542 1.353 . S
C1540 N1543 1.314 . S
C1540 H1546 0.930 . S
C1541 N1543 1.279 . S
C1541 C1544 1.358 . S
C1541 H1547 0.930 . S
C1542 C1540 1.353 . S
C1542 C1545 1.348 . S
C1542 H1580 0.929 . S
N1543 Li1498 1.990 . S
N1543 C1540 1.314 . S
N1543 C1541 1.279 . S
C1544 C1541 1.358 . S
C1544 C1545 1.356 . S
C1544 H1581 0.930 . S
C1545 C1542 1.348 . S
C1545 C1544 1.356 . S
H1546 C1540 0.930 . S
H1547 C1541 0.930 . S
C1548 N1549 1.314 . S
C1548 C1550 1.353 . S
C1548 H1554 0.930 . S
N1549 Li1499 1.990 . S
N1549 C1548 1.314 . S
N1549 C1552 1.279 . S
C1550 C1548 1.353 . S
C1550 C1553 1.348 . S
C1550 H1582 0.929 . S
C1551 C1552 1.358 . S
C1551 C1553 1.356 . S
C1551 H1583 0.930 . S
C1552 N1549 1.279 . S
C1552 C1551 1.358 . S
C1552 H1555 0.930 . S
C1553 C1550 1.348 . S
C1553 C1551 1.356 . S
H1554 C1548 0.930 . S
H1555 C1552 0.930 . S
O1556 Li1496 1.956 . S
O1556 Li1497 1.970 . S
O1556 Li1498 1.961 . S
O1556 C1500 1.325 . S
O1557 Li1496 1.970 . S
O1557 Li1497 1.956 . S
O1557 Li1499 1.961 . S
O1557 C1506 1.325 . S
O1558 Li1496 1.961 . S
O1558 Li1498 1.956 . S
O1558 Li1499 1.970 . S
O1558 C1528 1.325 . S
O1559 Li1497 1.961 . S
O1559 Li1498 1.970 . S
O1559 Li1499 1.956 . S
O1559 C1534 1.325 . S
H1560 C1502 0.929 . S
H1561 C1503 0.930 . S
H1562 C1504 0.930 . S
H1563 C1505 0.930 . S
H1564 C1507 0.930 . S
H1565 C1509 0.929 . S
H1566 C1510 0.930 . S
H1567 C1511 0.930 . S
H1568 C1514 0.930 . S
H1569 C1517 0.929 . S
H1570 C1522 0.929 . S
H1571 C1523 0.930 . S
H1572 C1530 0.929 . S
H1573 C1531 0.930 . S
H1574 C1532 0.930 . S
H1575 C1533 0.930 . S
H1576 C1535 0.929 . S
H1577 C1536 0.930 . S
H1578 C1537 0.930 . S
H1579 C1538 0.930 . S
H1580 C1542 0.929 . S
H1581 C1544 0.930 . S
H1582 C1550 0.929 . S
H1583 C1551 0.930 . S
Li1584 N1601 1.990 . S
Li1584 O1644 1.956 . S
Li1584 O1645 1.970 . S
Li1584 O1646 1.961 . S
Li1585 N1609 1.990 . S
Li1585 O1644 1.970 . S
Li1585 O1645 1.956 . S
Li1585 O1647 1.961 . S
Li1586 N1631 1.990 . S
Li1586 O1644 1.961 . S
Li1586 O1646 1.956 . S
Li1586 O1647 1.970 . S
Li1587 N1637 1.990 . S
Li1587 O1645 1.961 . S
Li1587 O1646 1.970 . S
Li1587 O1647 1.956 . S
C1588 C1590 1.348 . S
C1588 C1591 1.356 . S
C1588 O1644 1.325 . S
N1589 C1592 1.314 . S
N1589 C1593 1.279 . S
C1590 C1588 1.348 . S
C1590 C1592 1.353 . S
C1590 H1648 0.929 . S
C1591 C1588 1.356 . S
C1591 C1593 1.358 . S
C1591 H1649 0.930 . S
C1592 N1589 1.314 . S
C1592 C1590 1.353 . S
C1592 H1650 0.930 . S
C1593 N1589 1.279 . S
C1593 C1591 1.358 . S
C1593 H1651 0.930 . S
C1594 C1597 1.348 . S
C1594 C1598 1.356 . S
C1594 O1645 1.325 . S
C1595 N1596 1.279 . S
C1595 C1598 1.358 . S
C1595 H1652 0.930 . S
N1596 C1595 1.279 . S
N1596 C1599 1.314 . S
C1597 C1594 1.348 . S
C1597 C1599 1.353 . S
C1597 H1653 0.929 . S
C1598 C1594 1.356 . S
C1598 C1595 1.358 . S
C1598 H1654 0.930 . S
C1599 N1596 1.314 . S
C1599 C1597 1.353 . S
C1599 H1655 0.930 . S
C1600 N1601 1.314 . S
C1600 C1605 1.353 . S
C1600 H1606 0.930 . S
N1601 Li1584 1.990 . S
N1601 C1600 1.314 . S
N1601 C1603 1.279 . S
C1602 C1603 1.358 . S
C1602 C1604 1.356 . S
C1602 H1656 0.930 . S
C1603 N1601 1.279 . S
C1603 C1602 1.358 . S
C1603 H1607 0.930 . S
C1604 C1602 1.356 . S
C1604 C1605 1.348 . S
C1605 C1600 1.353 . S
C1605 C1604 1.348 . S
C1605 H1657 0.929 . S
H1606 C1600 0.930 . S
H1607 C1603 0.930 . S
C1608 N1609 1.314 . S
C1608 C1610 1.353 . S
C1608 H1614 0.930 . S
N1609 Li1585 1.990 . S
N1609 C1608 1.314 . S
N1609 C1612 1.279 . S
C1610 C1608 1.353 . S
C1610 C1613 1.348 . S
C1610 H1658 0.929 . S
C1611 C1612 1.358 . S
C1611 C1613 1.356 . S
C1611 H1659 0.930 . S
C1612 N1609 1.279 . S
C1612 C1611 1.358 . S
C1612 H1615 0.930 . S
C1613 C1610 1.348 . S
C1613 C1611 1.356 . S
H1614 C1608 0.930 . S
H1615 C1612 0.930 . S
C1616 C1618 1.348 . S
C1616 C1619 1.356 . S
C1616 O1646 1.325 . S
N1617 C1620 1.314 . S
N1617 C1621 1.279 . S
C1618 C1616 1.348 . S
C1618 C1620 1.353 . S
C1618 H1660 0.929 . S
C1619 C1616 1.356 . S
C1619 C1621 1.358 . S
C1619 H1661 0.930 . S
C1620 N1617 1.314 . S
C1620 C1618 1.353 . S
C1620 H1662 0.930 . S
C1621 N1617 1.279 . S
C1621 C1619 1.358 . S
C1621 H1663 0.930 . S
C1622 C1623 1.348 . S
C1622 C1624 1.356 . S
C1622 O1647 1.325 . S
C1623 C1622 1.348 . S
C1623 C1625 1.353 . S
C1623 H1664 0.929 . S
C1624 C1622 1.356 . S
C1624 C1626 1.358 . S
C1624 H1665 0.930 . S
C1625 C1623 1.353 . S
C1625 N1627 1.314 . S
C1625 H1666 0.930 . S
C1626 C1624 1.358 . S
C1626 N1627 1.279 . S
C1626 H1667 0.930 . S
N1627 C1625 1.314 . S
N1627 C1626 1.279 . S
C1628 C1630 1.353 . S
C1628 N1631 1.314 . S
C1628 H1634 0.930 . S
C1629 N1631 1.279 . S
C1629 C1632 1.358 . S
C1629 H1635 0.930 . S
C1630 C1628 1.353 . S
C1630 C1633 1.348 . S
C1630 H1668 0.929 . S
N1631 Li1586 1.990 . S
N1631 C1628 1.314 . S
N1631 C1629 1.279 . S
C1632 C1629 1.358 . S
C1632 C1633 1.356 . S
C1632 H1669 0.930 . S
C1633 C1630 1.348 . S
C1633 C1632 1.356 . S
H1634 C1628 0.930 . S
H1635 C1629 0.930 . S
C1636 N1637 1.314 . S
C1636 C1638 1.353 . S
C1636 H1642 0.930 . S
N1637 Li1587 1.990 . S
N1637 C1636 1.314 . S
N1637 C1640 1.279 . S
C1638 C1636 1.353 . S
C1638 C1641 1.348 . S
C1638 H1670 0.929 . S
C1639 C1640 1.358 . S
C1639 C1641 1.356 . S
C1639 H1671 0.930 . S
C1640 N1637 1.279 . S
C1640 C1639 1.358 . S
C1640 H1643 0.930 . S
C1641 C1638 1.348 . S
C1641 C1639 1.356 . S
H1642 C1636 0.930 . S
H1643 C1640 0.930 . S
O1644 Li1584 1.956 . S
O1644 Li1585 1.970 . S
O1644 Li1586 1.961 . S
O1644 C1588 1.325 . S
O1645 Li1584 1.970 . S
O1645 Li1585 1.956 . S
O1645 Li1587 1.961 . S
O1645 C1594 1.325 . S
O1646 Li1584 1.961 . S
O1646 Li1586 1.956 . S
O1646 Li1587 1.970 . S
O1646 C1616 1.325 . S
O1647 Li1585 1.961 . S
O1647 Li1586 1.970 . S
O1647 Li1587 1.956 . S
O1647 C1622 1.325 . S
H1648 C1590 0.929 . S
H1649 C1591 0.930 . S
H1650 C1592 0.930 . S
H1651 C1593 0.930 . S
H1652 C1595 0.930 . S
H1653 C1597 0.929 . S
H1654 C1598 0.930 . S
H1655 C1599 0.930 . S
H1656 C1602 0.930 . S
H1657 C1605 0.929 . S
H1658 C1610 0.929 . S
H1659 C1611 0.930 . S
H1660 C1618 0.929 . S
H1661 C1619 0.930 . S
H1662 C1620 0.930 . S
H1663 C1621 0.930 . S
H1664 C1623 0.929 . S
H1665 C1624 0.930 . S
H1666 C1625 0.930 . S
H1667 C1626 0.930 . S
H1668 C1630 0.929 . S
H1669 C1632 0.930 . S
H1670 C1638 0.929 . S
H1671 C1639 0.930 . S
Li1672 N1689 1.990 . S
Li1672 O1732 1.956 . S
Li1672 O1733 1.970 . S
Li1672 O1734 1.961 . S
Li1673 N1697 1.990 . S
Li1673 O1732 1.970 . S
Li1673 O1733 1.956 . S
Li1673 O1735 1.961 . S
Li1674 N1719 1.990 . S
Li1674 O1732 1.961 . S
Li1674 O1734 1.956 . S
Li1674 O1735 1.970 . S
Li1675 N1725 1.990 . S
Li1675 O1733 1.961 . S
Li1675 O1734 1.970 . S
Li1675 O1735 1.956 . S
C1676 C1678 1.348 . S
C1676 C1679 1.356 . S
C1676 O1732 1.325 . S
N1677 C1680 1.314 . S
N1677 C1681 1.279 . S
C1678 C1676 1.348 . S
C1678 C1680 1.353 . S
C1678 H1736 0.929 . S
C1679 C1676 1.356 . S
C1679 C1681 1.358 . S
C1679 H1737 0.930 . S
C1680 N1677 1.314 . S
C1680 C1678 1.353 . S
C1680 H1738 0.930 . S
C1681 N1677 1.279 . S
C1681 C1679 1.358 . S
C1681 H1739 0.930 . S
C1682 C1685 1.348 . S
C1682 C1686 1.356 . S
C1682 O1733 1.325 . S
C1683 N1684 1.279 . S
C1683 C1686 1.358 . S
C1683 H1740 0.930 . S
N1684 C1683 1.279 . S
N1684 C1687 1.314 . S
C1685 C1682 1.348 . S
C1685 C1687 1.353 . S
C1685 H1741 0.929 . S
C1686 C1682 1.356 . S
C1686 C1683 1.358 . S
C1686 H1742 0.930 . S
C1687 N1684 1.314 . S
C1687 C1685 1.353 . S
C1687 H1743 0.930 . S
C1688 N1689 1.314 . S
C1688 C1693 1.353 . S
C1688 H1694 0.930 . S
N1689 Li1672 1.990 . S
N1689 C1688 1.314 . S
N1689 C1691 1.279 . S
C1690 C1691 1.358 . S
C1690 C1692 1.356 . S
C1690 H1744 0.930 . S
C1691 N1689 1.279 . S
C1691 C1690 1.358 . S
C1691 H1695 0.930 . S
C1692 C1690 1.356 . S
C1692 C1693 1.348 . S
C1693 C1688 1.353 . S
C1693 C1692 1.348 . S
C1693 H1745 0.929 . S
H1694 C1688 0.930 . S
H1695 C1691 0.930 . S
C1696 N1697 1.314 . S
C1696 C1698 1.353 . S
C1696 H1702 0.930 . S
N1697 Li1673 1.990 . S
N1697 C1696 1.314 . S
N1697 C1700 1.279 . S
C1698 C1696 1.353 . S
C1698 C1701 1.348 . S
C1698 H1746 0.929 . S
C1699 C1700 1.358 . S
C1699 C1701 1.356 . S
C1699 H1747 0.930 . S
C1700 N1697 1.279 . S
C1700 C1699 1.358 . S
C1700 H1703 0.930 . S
C1701 C1698 1.348 . S
C1701 C1699 1.356 . S
H1702 C1696 0.930 . S
H1703 C1700 0.930 . S
C1704 C1706 1.348 1_545 S
C1704 C1707 1.356 . S
C1704 O1734 1.325 . S
N1705 C1708 1.314 . S
N1705 C1709 1.279 . S
C1706 C1704 1.348 1_565 S
C1706 C1708 1.353 . S
C1706 H1748 0.929 . S
C1707 C1704 1.356 . S
C1707 C1709 1.358 1_545 S
C1707 H1749 0.930 . S
C1708 N1705 1.314 . S
C1708 C1706 1.353 . S
C1708 H1750 0.930 . S
C1709 N1705 1.279 . S
C1709 C1707 1.358 1_565 S
C1709 H1751 0.930 . S
C1710 C1711 1.348 . S
C1710 C1712 1.356 . S
C1710 O1735 1.325 . S
C1711 C1710 1.348 . S
C1711 C1713 1.353 . S
C1711 H1752 0.929 . S
C1712 C1710 1.356 . S
C1712 C1714 1.358 . S
C1712 H1753 0.930 . S
C1713 C1711 1.353 . S
C1713 N1715 1.314 . S
C1713 H1754 0.930 . S
C1714 C1712 1.358 . S
C1714 N1715 1.279 . S
C1714 H1755 0.930 . S
N1715 C1713 1.314 . S
N1715 C1714 1.279 . S
C1716 C1718 1.353 . S
C1716 N1719 1.314 . S
C1716 H1722 0.930 . S
C1717 N1719 1.279 . S
C1717 C1720 1.358 . S
C1717 H1723 0.930 . S
C1718 C1716 1.353 . S
C1718 C1721 1.348 . S
C1718 H1756 0.929 . S
N1719 Li1674 1.990 . S
N1719 C1716 1.314 . S
N1719 C1717 1.279 . S
C1720 C1717 1.358 . S
C1720 C1721 1.356 . S
C1720 H1757 0.930 . S
C1721 C1718 1.348 . S
C1721 C1720 1.356 . S
H1722 C1716 0.930 . S
H1723 C1717 0.930 . S
C1724 N1725 1.314 . S
C1724 C1726 1.353 1_545 S
C1724 H1730 0.930 . S
N1725 Li1675 1.990 . S
N1725 C1724 1.314 . S
N1725 C1728 1.279 . S
C1726 C1724 1.353 1_565 S
C1726 C1729 1.348 . S
C1726 H1758 0.929 . S
C1727 C1728 1.358 1_565 S
C1727 C1729 1.356 . S
C1727 H1759 0.930 . S
C1728 N1725 1.279 . S
C1728 C1727 1.358 1_545 S
C1728 H1731 0.930 . S
C1729 C1726 1.348 . S
C1729 C1727 1.356 . S
H1730 C1724 0.930 . S
H1731 C1728 0.930 . S
O1732 Li1672 1.956 . S
O1732 Li1673 1.970 . S
O1732 Li1674 1.961 . S
O1732 C1676 1.325 . S
O1733 Li1672 1.970 . S
O1733 Li1673 1.956 . S
O1733 Li1675 1.961 . S
O1733 C1682 1.325 . S
O1734 Li1672 1.961 . S
O1734 Li1674 1.956 . S
O1734 Li1675 1.970 . S
O1734 C1704 1.325 . S
O1735 Li1673 1.961 . S
O1735 Li1674 1.970 . S
O1735 Li1675 1.956 . S
O1735 C1710 1.325 . S
H1736 C1678 0.929 . S
H1737 C1679 0.930 . S
H1738 C1680 0.930 . S
H1739 C1681 0.930 . S
H1740 C1683 0.930 . S
H1741 C1685 0.929 . S
H1742 C1686 0.930 . S
H1743 C1687 0.930 . S
H1744 C1690 0.930 . S
H1745 C1693 0.929 . S
H1746 C1698 0.929 . S
H1747 C1699 0.930 . S
H1748 C1706 0.929 . S
H1749 C1707 0.930 . S
H1750 C1708 0.930 . S
H1751 C1709 0.930 . S
H1752 C1711 0.929 . S
H1753 C1712 0.930 . S
H1754 C1713 0.930 . S
H1755 C1714 0.930 . S
H1756 C1718 0.929 . S
H1757 C1720 0.930 . S
H1758 C1726 0.929 . S
H1759 C1727 0.930 . S
Li1760 N1777 1.990 . S
Li1760 O1820 1.956 . S
Li1760 O1821 1.970 . S
Li1760 O1822 1.961 . S
Li1761 N1785 1.990 . S
Li1761 O1820 1.970 . S
Li1761 O1821 1.956 . S
Li1761 O1823 1.961 1_554 S
Li1762 N1807 1.990 . S
Li1762 O1820 1.961 1_556 S
Li1762 O1822 1.956 1_556 S
Li1762 O1823 1.970 . S
Li1763 N1813 1.990 1_554 S
Li1763 O1821 1.961 . S
Li1763 O1822 1.970 . S
Li1763 O1823 1.956 1_554 S
C1764 C1766 1.348 . S
C1764 C1767 1.356 . S
C1764 O1820 1.325 . S
N1765 C1768 1.314 . S
N1765 C1769 1.279 . S
C1766 C1764 1.348 . S
C1766 C1768 1.353 . S
C1766 H1824 0.929 . S
C1767 C1764 1.356 . S
C1767 C1769 1.358 . S
C1767 H1825 0.930 . S
C1768 N1765 1.314 . S
C1768 C1766 1.353 . S
C1768 H1826 0.930 . S
C1769 N1765 1.279 . S
C1769 C1767 1.358 . S
C1769 H1827 0.930 . S
C1770 C1773 1.348 . S
C1770 C1774 1.356 . S
C1770 O1821 1.325 . S
C1771 N1772 1.279 . S
C1771 C1774 1.358 . S
C1771 H1828 0.930 . S
N1772 C1771 1.279 . S
N1772 C1775 1.314 . S
C1773 C1770 1.348 . S
C1773 C1775 1.353 . S
C1773 H1829 0.929 . S
C1774 C1770 1.356 . S
C1774 C1771 1.358 . S
C1774 H1830 0.930 . S
C1775 N1772 1.314 . S
C1775 C1773 1.353 . S
C1775 H1831 0.930 . S
C1776 N1777 1.314 . S
C1776 C1781 1.353 . S
C1776 H1782 0.930 . S
N1777 Li1760 1.990 . S
N1777 C1776 1.314 . S
N1777 C1779 1.279 . S
C1778 C1779 1.358 . S
C1778 C1780 1.356 . S
C1778 H1832 0.930 . S
C1779 N1777 1.279 . S
C1779 C1778 1.358 . S
C1779 H1783 0.930 . S
C1780 C1778 1.356 . S
C1780 C1781 1.348 . S
C1781 C1776 1.353 . S
C1781 C1780 1.348 . S
C1781 H1833 0.929 . S
H1782 C1776 0.930 . S
H1783 C1779 0.930 . S
C1784 N1785 1.314 1_556 S
C1784 C1786 1.353 . S
C1784 H1790 0.930 . S
N1785 Li1761 1.990 . S
N1785 C1784 1.314 1_554 S
N1785 C1788 1.279 . S
C1786 C1784 1.353 . S
C1786 C1789 1.348 1_556 S
C1786 H1834 0.929 . S
C1787 C1788 1.358 . S
C1787 C1789 1.356 . S
C1787 H1835 0.930 . S
C1788 N1785 1.279 . S
C1788 C1787 1.358 . S
C1788 H1791 0.930 . S
C1789 C1786 1.348 1_554 S
C1789 C1787 1.356 . S
H1790 C1784 0.930 . S
H1791 C1788 0.930 . S
C1792 C1794 1.338 1_554 S
C1792 C1795 1.356 . S
C1792 O1822 1.325 . S
N1793 C1796 1.314 1_554 S
N1793 C1797 1.279 . S
C1794 C1792 1.338 1_556 S
C1794 C1796 1.354 . S
C1794 H1836 0.940 . S
C1795 C1792 1.356 . S
C1795 C1797 1.358 . S
C1795 H1837 0.930 . S
C1796 N1793 1.314 1_556 S
C1796 C1794 1.354 . S
C1796 H1838 0.930 . S
C1797 N1793 1.279 . S
C1797 C1795 1.358 . S
C1797 H1839 0.930 . S
C1798 C1799 1.348 . S
C1798 C1800 1.356 . S
C1798 O1823 1.325 . S
C1799 C1798 1.348 . S
C1799 C1801 1.353 . S
C1799 H1840 0.929 . S
C1800 C1798 1.356 . S
C1800 C1802 1.358 . S
C1800 H1841 0.930 . S
C1801 C1799 1.353 . S
C1801 N1803 1.314 . S
C1801 H1842 0.930 . S
C1802 C1800 1.358 . S
C1802 N1803 1.279 . S
C1802 H1843 0.930 . S
N1803 C1801 1.314 . S
N1803 C1802 1.279 . S
C1804 C1806 1.353 . S
C1804 N1807 1.314 . S
C1804 H1810 0.930 . S
C1805 N1807 1.279 . S
C1805 C1808 1.358 . S
C1805 H1811 0.930 . S
C1806 C1804 1.353 . S
C1806 C1809 1.348 . S
C1806 H1844 0.929 . S
N1807 Li1762 1.990 . S
N1807 C1804 1.314 . S
N1807 C1805 1.279 . S
C1808 C1805 1.358 . S
C1808 C1809 1.356 . S
C1808 H1845 0.930 . S
C1809 C1806 1.348 . S
C1809 C1808 1.356 . S
H1810 C1804 0.930 . S
H1811 C1805 0.930 . S
C1812 N1813 1.314 1_554 S
C1812 C1814 1.353 . S
C1812 H1818 0.930 . S
N1813 Li1763 1.990 1_556 S
N1813 C1812 1.314 1_556 S
N1813 C1816 1.279 . S
C1814 C1812 1.353 . S
C1814 C1817 1.348 1_554 S
C1814 H1846 0.929 . S
C1815 C1816 1.358 . S
C1815 C1817 1.356 . S
C1815 H1847 0.930 . S
C1816 N1813 1.279 . S
C1816 C1815 1.358 . S
C1816 H1819 0.930 . S
C1817 C1814 1.348 1_556 S
C1817 C1815 1.356 . S
H1818 C1812 0.930 . S
H1819 C1816 0.930 . S
O1820 Li1760 1.956 . S
O1820 Li1761 1.970 . S
O1820 Li1762 1.961 1_554 S
O1820 C1764 1.325 . S
O1821 Li1760 1.970 . S
O1821 Li1761 1.956 . S
O1821 Li1763 1.961 . S
O1821 C1770 1.325 . S
O1822 Li1760 1.961 . S
O1822 Li1762 1.956 1_554 S
O1822 Li1763 1.970 . S
O1822 C1792 1.325 . S
O1823 Li1761 1.961 1_556 S
O1823 Li1762 1.970 . S
O1823 Li1763 1.956 1_556 S
O1823 C1798 1.325 . S
H1824 C1766 0.929 . S
H1825 C1767 0.930 . S
H1826 C1768 0.930 . S
H1827 C1769 0.930 . S
H1828 C1771 0.930 . S
H1829 C1773 0.929 . S
H1830 C1774 0.930 . S
H1831 C1775 0.930 . S
H1832 C1778 0.930 . S
H1833 C1781 0.929 . S
H1834 C1786 0.929 . S
H1835 C1787 0.930 . S
H1836 C1794 0.940 . S
H1837 C1795 0.930 . S
H1838 C1796 0.930 . S
H1839 C1797 0.930 . S
H1840 C1799 0.929 . S
H1841 C1800 0.930 . S
H1842 C1801 0.930 . S
H1843 C1802 0.930 . S
H1844 C1806 0.929 . S
H1845 C1808 0.930 . S
H1846 C1814 0.929 . S
H1847 C1815 0.930 . S
Li1848 N1865 1.990 . S
Li1848 O1908 1.956 . S
Li1848 O1909 1.970 . S
Li1848 O1910 1.961 . S
Li1849 N1873 1.990 . S
Li1849 O1908 1.970 . S
Li1849 O1909 1.956 . S
Li1849 O1911 1.961 . S
Li1850 N1895 1.990 . S
Li1850 O1908 1.961 . S
Li1850 O1910 1.956 . S
Li1850 O1911 1.970 . S
Li1851 N1901 1.990 . S
Li1851 O1909 1.961 . S
Li1851 O1910 1.970 . S
Li1851 O1911 1.956 . S
C1852 C1854 1.348 . S
C1852 C1855 1.356 . S
C1852 O1908 1.325 . S
N1853 C1856 1.314 . S
N1853 C1857 1.279 . S
C1854 C1852 1.348 . S
C1854 C1856 1.353 . S
C1854 H1912 0.929 . S
C1855 C1852 1.356 . S
C1855 C1857 1.358 . S
C1855 H1913 0.930 . S
C1856 N1853 1.314 . S
C1856 C1854 1.353 . S
C1856 H1914 0.930 . S
C1857 N1853 1.279 . S
C1857 C1855 1.358 . S
C1857 H1915 0.930 . S
C1858 C1861 1.348 . S
C1858 C1862 1.356 . S
C1858 O1909 1.325 . S
C1859 N1860 1.279 . S
C1859 C1862 1.358 . S
C1859 H1916 0.930 . S
N1860 C1859 1.279 . S
N1860 C1863 1.314 . S
C1861 C1858 1.348 . S
C1861 C1863 1.353 . S
C1861 H1917 0.929 . S
C1862 C1858 1.356 . S
C1862 C1859 1.358 . S
C1862 H1918 0.930 . S
C1863 N1860 1.314 . S
C1863 C1861 1.353 . S
C1863 H1919 0.930 . S
C1864 N1865 1.314 . S
C1864 C1869 1.353 . S
C1864 H1870 0.930 . S
N1865 Li1848 1.990 . S
N1865 C1864 1.314 . S
N1865 C1867 1.279 . S
C1866 C1867 1.358 . S
C1866 C1868 1.356 . S
C1866 H1920 0.930 . S
C1867 N1865 1.279 . S
C1867 C1866 1.358 . S
C1867 H1871 0.930 . S
C1868 C1866 1.356 . S
C1868 C1869 1.348 . S
C1869 C1864 1.353 . S
C1869 C1868 1.348 . S
C1869 H1921 0.929 . S
H1870 C1864 0.930 . S
H1871 C1867 0.930 . S
C1872 N1873 1.314 . S
C1872 C1874 1.353 . S
C1872 H1878 0.930 . S
N1873 Li1849 1.990 . S
N1873 C1872 1.314 . S
N1873 C1876 1.279 . S
C1874 C1872 1.353 . S
C1874 C1877 1.348 . S
C1874 H1922 0.929 . S
C1875 C1876 1.358 . S
C1875 C1877 1.356 . S
C1875 H1923 0.930 . S
C1876 N1873 1.279 . S
C1876 C1875 1.358 . S
C1876 H1879 0.930 . S
C1877 C1874 1.348 . S
C1877 C1875 1.356 . S
H1878 C1872 0.930 . S
H1879 C1876 0.930 . S
C1880 C1882 1.348 . S
C1880 C1883 1.356 . S
C1880 O1910 1.325 . S
N1881 C1884 1.314 . S
N1881 C1885 1.279 . S
C1882 C1880 1.348 . S
C1882 C1884 1.353 . S
C1882 H1924 0.929 . S
C1883 C1880 1.356 . S
C1883 C1885 1.358 . S
C1883 H1925 0.930 . S
C1884 N1881 1.314 . S
C1884 C1882 1.353 . S
C1884 H1926 0.930 . S
C1885 N1881 1.279 . S
C1885 C1883 1.358 . S
C1885 H1927 0.930 . S
C1886 C1887 1.348 . S
C1886 C1888 1.356 . S
C1886 O1911 1.325 . S
C1887 C1886 1.348 . S
C1887 C1889 1.353 . S
C1887 H1928 0.929 . S
C1888 C1886 1.356 . S
C1888 C1890 1.358 . S
C1888 H1929 0.930 . S
C1889 C1887 1.353 . S
C1889 N1891 1.314 . S
C1889 H1930 0.930 . S
C1890 C1888 1.358 . S
C1890 N1891 1.279 . S
C1890 H1931 0.930 . S
N1891 C1889 1.314 . S
N1891 C1890 1.279 . S
C1892 C1894 1.353 . S
C1892 N1895 1.314 . S
C1892 H1898 0.930 . S
C1893 N1895 1.279 . S
C1893 C1896 1.358 . S
C1893 H1899 0.930 . S
C1894 C1892 1.353 . S
C1894 C1897 1.348 . S
C1894 H1932 0.929 . S
N1895 Li1850 1.990 . S
N1895 C1892 1.314 . S
N1895 C1893 1.279 . S
C1896 C1893 1.358 . S
C1896 C1897 1.356 . S
C1896 H1933 0.930 . S
C1897 C1894 1.348 . S
C1897 C1896 1.356 . S
H1898 C1892 0.930 . S
H1899 C1893 0.930 . S
C1900 N1901 1.314 . S
C1900 C1902 1.353 . S
C1900 H1906 0.930 . S
N1901 Li1851 1.990 . S
N1901 C1900 1.314 . S
N1901 C1904 1.279 . S
C1902 C1900 1.353 . S
C1902 C1905 1.348 . S
C1902 H1934 0.929 . S
C1903 C1904 1.358 . S
C1903 C1905 1.356 . S
C1903 H1935 0.930 . S
C1904 N1901 1.279 . S
C1904 C1903 1.358 . S
C1904 H1907 0.930 . S
C1905 C1902 1.348 . S
C1905 C1903 1.356 . S
H1906 C1900 0.930 . S
H1907 C1904 0.930 . S
O1908 Li1848 1.956 . S
O1908 Li1849 1.970 . S
O1908 Li1850 1.961 . S
O1908 C1852 1.325 . S
O1909 Li1848 1.970 . S
O1909 Li1849 1.956 . S
O1909 Li1851 1.961 . S
O1909 C1858 1.325 . S
O1910 Li1848 1.961 . S
O1910 Li1850 1.956 . S
O1910 Li1851 1.970 . S
O1910 C1880 1.325 . S
O1911 Li1849 1.961 . S
O1911 Li1850 1.970 . S
O1911 Li1851 1.956 . S
O1911 C1886 1.325 . S
H1912 C1854 0.929 . S
H1913 C1855 0.930 . S
H1914 C1856 0.930 . S
H1915 C1857 0.930 . S
H1916 C1859 0.930 . S
H1917 C1861 0.929 . S
H1918 C1862 0.930 . S
H1919 C1863 0.930 . S
H1920 C1866 0.930 . S
H1921 C1869 0.929 . S
H1922 C1874 0.929 . S
H1923 C1875 0.930 . S
H1924 C1882 0.929 . S
H1925 C1883 0.930 . S
H1926 C1884 0.930 . S
H1927 C1885 0.930 . S
H1928 C1887 0.929 . S
H1929 C1888 0.930 . S
H1930 C1889 0.930 . S
H1931 C1890 0.930 . S
H1932 C1894 0.929 . S
H1933 C1896 0.930 . S
H1934 C1902 0.929 . S
H1935 C1903 0.930 . S
Li1936 N1953 1.990 . S
Li1936 O1996 1.956 . S
Li1936 O1997 1.970 . S
Li1936 O1998 1.961 . S
Li1937 N1961 1.990 . S
Li1937 O1996 1.970 . S
Li1937 O1997 1.956 . S
Li1937 O1999 1.961 . S
Li1938 N1983 1.990 . S
Li1938 O1996 1.961 . S
Li1938 O1998 1.956 . S
Li1938 O1999 1.970 . S
Li1939 N1989 1.990 . S
Li1939 O1997 1.961 . S
Li1939 O1998 1.970 . S
Li1939 O1999 1.956 . S
C1940 C1942 1.348 . S
C1940 C1943 1.356 . S
C1940 O1996 1.325 . S
N1941 C1944 1.314 . S
N1941 C1945 1.279 . S
C1942 C1940 1.348 . S
C1942 C1944 1.353 . S
C1942 H2000 0.929 . S
C1943 C1940 1.356 . S
C1943 C1945 1.358 . S
C1943 H2001 0.930 . S
C1944 N1941 1.314 . S
C1944 C1942 1.353 . S
C1944 H2002 0.930 . S
C1945 N1941 1.279 . S
C1945 C1943 1.358 . S
C1945 H2003 0.930 . S
C1946 C1949 1.348 . S
C1946 C1950 1.356 . S
C1946 O1997 1.325 . S
C1947 N1948 1.279 . S
C1947 C1950 1.358 . S
C1947 H2004 0.930 . S
N1948 C1947 1.279 . S
N1948 C1951 1.314 . S
C1949 C1946 1.348 . S
C1949 C1951 1.353 . S
C1949 H2005 0.929 . S
C1950 C1946 1.356 . S
C1950 C1947 1.358 . S
C1950 H2006 0.930 . S
C1951 N1948 1.314 . S
C1951 C1949 1.353 . S
C1951 H2007 0.930 . S
C1952 N1953 1.314 . S
C1952 C1957 1.353 . S
C1952 H1958 0.930 . S
N1953 Li1936 1.990 . S
N1953 C1952 1.314 . S
N1953 C1955 1.279 . S
C1954 C1955 1.358 . S
C1954 C1956 1.356 . S
C1954 H2008 0.930 . S
C1955 N1953 1.279 . S
C1955 C1954 1.358 . S
C1955 H1959 0.930 . S
C1956 C1954 1.356 . S
C1956 C1957 1.348 . S
C1957 C1952 1.353 . S
C1957 C1956 1.348 . S
C1957 H2009 0.929 . S
H1958 C1952 0.930 . S
H1959 C1955 0.930 . S
C1960 N1961 1.314 . S
C1960 C1962 1.353 . S
C1960 H1966 0.930 . S
N1961 Li1937 1.990 . S
N1961 C1960 1.314 . S
N1961 C1964 1.279 . S
C1962 C1960 1.353 . S
C1962 C1965 1.348 . S
C1962 H2010 0.929 . S
C1963 C1964 1.358 . S
C1963 C1965 1.356 . S
C1963 H2011 0.930 . S
C1964 N1961 1.279 . S
C1964 C1963 1.358 . S
C1964 H1967 0.930 . S
C1965 C1962 1.348 . S
C1965 C1963 1.356 . S
H1966 C1960 0.930 . S
H1967 C1964 0.930 . S
C1968 C1970 1.348 . S
C1968 C1971 1.356 . S
C1968 O1998 1.325 . S
N1969 C1972 1.314 . S
N1969 C1973 1.279 . S
C1970 C1968 1.348 . S
C1970 C1972 1.353 . S
C1970 H2012 0.929 . S
C1971 C1968 1.356 . S
C1971 C1973 1.358 . S
C1971 H2013 0.930 . S
C1972 N1969 1.314 . S
C1972 C1970 1.353 . S
C1972 H2014 0.930 . S
C1973 N1969 1.279 . S
C1973 C1971 1.358 . S
C1973 H2015 0.930 . S
C1974 C1975 1.348 . S
C1974 C1976 1.356 . S
C1974 O1999 1.325 . S
C1975 C1974 1.348 . S
C1975 C1977 1.353 . S
C1975 H2016 0.929 . S
C1976 C1974 1.356 . S
C1976 C1978 1.358 . S
C1976 H2017 0.930 . S
C1977 C1975 1.353 . S
C1977 N1979 1.314 . S
C1977 H2018 0.930 . S
C1978 C1976 1.358 . S
C1978 N1979 1.279 . S
C1978 H2019 0.930 . S
N1979 C1977 1.314 . S
N1979 C1978 1.279 . S
C1980 C1982 1.353 . S
C1980 N1983 1.314 . S
C1980 H1986 0.930 . S
C1981 N1983 1.279 . S
C1981 C1984 1.358 . S
C1981 H1987 0.930 . S
C1982 C1980 1.353 . S
C1982 C1985 1.348 . S
C1982 H2020 0.929 . S
N1983 Li1938 1.990 . S
N1983 C1980 1.314 . S
N1983 C1981 1.279 . S
C1984 C1981 1.358 . S
C1984 C1985 1.356 . S
C1984 H2021 0.930 . S
C1985 C1982 1.348 . S
C1985 C1984 1.356 . S
H1986 C1980 0.930 . S
H1987 C1981 0.930 . S
C1988 N1989 1.314 . S
C1988 C1990 1.353 . S
C1988 H1994 0.930 . S
N1989 Li1939 1.990 . S
N1989 C1988 1.314 . S
N1989 C1992 1.279 . S
C1990 C1988 1.353 . S
C1990 C1993 1.348 . S
C1990 H2022 0.929 . S
C1991 C1992 1.358 . S
C1991 C1993 1.356 . S
C1991 H2023 0.930 . S
C1992 N1989 1.279 . S
C1992 C1991 1.358 . S
C1992 H1995 0.930 . S
C1993 C1990 1.348 . S
C1993 C1991 1.356 . S
H1994 C1988 0.930 . S
H1995 C1992 0.930 . S
O1996 Li1936 1.956 . S
O1996 Li1937 1.970 . S
O1996 Li1938 1.961 . S
O1996 C1940 1.325 . S
O1997 Li1936 1.970 . S
O1997 Li1937 1.956 . S
O1997 Li1939 1.961 . S
O1997 C1946 1.325 . S
O1998 Li1936 1.961 . S
O1998 Li1938 1.956 . S
O1998 Li1939 1.970 . S
O1998 C1968 1.325 . S
O1999 Li1937 1.961 . S
O1999 Li1938 1.970 . S
O1999 Li1939 1.956 . S
O1999 C1974 1.325 . S
H2000 C1942 0.929 . S
H2001 C1943 0.930 . S
H2002 C1944 0.930 . S
H2003 C1945 0.930 . S
H2004 C1947 0.930 . S
H2005 C1949 0.929 . S
H2006 C1950 0.930 . S
H2007 C1951 0.930 . S
H2008 C1954 0.930 . S
H2009 C1957 0.929 . S
H2010 C1962 0.929 . S
H2011 C1963 0.930 . S
H2012 C1970 0.929 . S
H2013 C1971 0.930 . S
H2014 C1972 0.930 . S
H2015 C1973 0.930 . S
H2016 C1975 0.929 . S
H2017 C1976 0.930 . S
H2018 C1977 0.930 . S
H2019 C1978 0.930 . S
H2020 C1982 0.929 . S
H2021 C1984 0.930 . S
H2022 C1990 0.929 . S
H2023 C1991 0.930 . S
Li2024 N2041 1.990 . S
Li2024 O2084 1.956 . S
Li2024 O2085 1.970 . S
Li2024 O2086 1.961 . S
Li2025 N2049 1.990 . S
Li2025 O2084 1.970 . S
Li2025 O2085 1.956 . S
Li2025 O2087 1.961 . S
Li2026 N2071 1.990 . S
Li2026 O2084 1.961 . S
Li2026 O2086 1.956 . S
Li2026 O2087 1.970 . S
Li2027 N2077 1.990 . S
Li2027 O2085 1.961 . S
Li2027 O2086 1.970 . S
Li2027 O2087 1.956 . S
C2028 C2030 1.348 . S
C2028 C2031 1.356 . S
C2028 O2084 1.325 . S
N2029 C2032 1.314 . S
N2029 C2033 1.279 . S
C2030 C2028 1.348 . S
C2030 C2032 1.353 . S
C2030 H2088 0.929 . S
C2031 C2028 1.356 . S
C2031 C2033 1.358 . S
C2031 H2089 0.930 . S
C2032 N2029 1.314 . S
C2032 C2030 1.353 . S
C2032 H2090 0.930 . S
C2033 N2029 1.279 . S
C2033 C2031 1.358 . S
C2033 H2091 0.930 . S
C2034 C2037 1.348 . S
C2034 C2038 1.356 . S
C2034 O2085 1.325 . S
C2035 N2036 1.279 . S
C2035 C2038 1.358 . S
C2035 H2092 0.930 . S
N2036 C2035 1.279 . S
N2036 C2039 1.314 . S
C2037 C2034 1.348 . S
C2037 C2039 1.353 . S
C2037 H2093 0.929 . S
C2038 C2034 1.356 . S
C2038 C2035 1.358 . S
C2038 H2094 0.930 . S
C2039 N2036 1.314 . S
C2039 C2037 1.353 . S
C2039 H2095 0.930 . S
C2040 N2041 1.314 . S
C2040 C2045 1.353 . S
C2040 H2046 0.930 . S
N2041 Li2024 1.990 . S
N2041 C2040 1.314 . S
N2041 C2043 1.279 . S
C2042 C2043 1.358 . S
C2042 C2044 1.356 . S
C2042 H2096 0.930 . S
C2043 N2041 1.279 . S
C2043 C2042 1.358 . S
C2043 H2047 0.930 . S
C2044 C2042 1.356 . S
C2044 C2045 1.348 . S
C2045 C2040 1.353 . S
C2045 C2044 1.348 . S
C2045 H2097 0.929 . S
H2046 C2040 0.930 . S
H2047 C2043 0.930 . S
C2048 N2049 1.314 . S
C2048 C2050 1.353 . S
C2048 H2054 0.930 . S
N2049 Li2025 1.990 . S
N2049 C2048 1.314 . S
N2049 C2052 1.279 . S
C2050 C2048 1.353 . S
C2050 C2053 1.348 . S
C2050 H2098 0.929 . S
C2051 C2052 1.358 . S
C2051 C2053 1.356 . S
C2051 H2099 0.930 . S
C2052 N2049 1.279 . S
C2052 C2051 1.358 . S
C2052 H2055 0.930 . S
C2053 C2050 1.348 . S
C2053 C2051 1.356 . S
H2054 C2048 0.930 . S
H2055 C2052 0.930 . S
C2056 C2058 1.348 . S
C2056 C2059 1.356 . S
C2056 O2086 1.325 . S
N2057 C2060 1.314 . S
N2057 C2061 1.279 . S
C2058 C2056 1.348 . S
C2058 C2060 1.353 . S
C2058 H2100 0.929 . S
C2059 C2056 1.356 . S
C2059 C2061 1.358 . S
C2059 H2101 0.930 . S
C2060 N2057 1.314 . S
C2060 C2058 1.353 . S
C2060 H2102 0.930 . S
C2061 N2057 1.279 . S
C2061 C2059 1.358 . S
C2061 H2103 0.930 . S
C2062 C2063 1.348 . S
C2062 C2064 1.356 . S
C2062 O2087 1.325 . S
C2063 C2062 1.348 . S
C2063 C2065 1.353 . S
C2063 H2104 0.929 . S
C2064 C2062 1.356 . S
C2064 C2066 1.358 . S
C2064 H2105 0.930 . S
C2065 C2063 1.353 . S
C2065 N2067 1.314 . S
C2065 H2106 0.930 . S
C2066 C2064 1.358 . S
C2066 N2067 1.279 . S
C2066 H2107 0.930 . S
N2067 C2065 1.314 . S
N2067 C2066 1.279 . S
C2068 C2070 1.353 . S
C2068 N2071 1.314 . S
C2068 H2074 0.930 . S
C2069 N2071 1.279 . S
C2069 C2072 1.358 . S
C2069 H2075 0.930 . S
C2070 C2068 1.353 . S
C2070 C2073 1.348 . S
C2070 H2108 0.929 . S
N2071 Li2026 1.990 . S
N2071 C2068 1.314 . S
N2071 C2069 1.279 . S
C2072 C2069 1.358 . S
C2072 C2073 1.356 . S
C2072 H2109 0.930 . S
C2073 C2070 1.348 . S
C2073 C2072 1.356 . S
H2074 C2068 0.930 . S
H2075 C2069 0.930 . S
C2076 N2077 1.314 . S
C2076 C2078 1.353 . S
C2076 H2082 0.930 . S
N2077 Li2027 1.990 . S
N2077 C2076 1.314 . S
N2077 C2080 1.279 . S
C2078 C2076 1.353 . S
C2078 C2081 1.348 . S
C2078 H2110 0.929 . S
C2079 C2080 1.358 . S
C2079 C2081 1.356 . S
C2079 H2111 0.930 . S
C2080 N2077 1.279 . S
C2080 C2079 1.358 . S
C2080 H2083 0.930 . S
C2081 C2078 1.348 . S
C2081 C2079 1.356 . S
H2082 C2076 0.930 . S
H2083 C2080 0.930 . S
O2084 Li2024 1.956 . S
O2084 Li2025 1.970 . S
O2084 Li2026 1.961 . S
O2084 C2028 1.325 . S
O2085 Li2024 1.970 . S
O2085 Li2025 1.956 . S
O2085 Li2027 1.961 . S
O2085 C2034 1.325 . S
O2086 Li2024 1.961 . S
O2086 Li2026 1.956 . S
O2086 Li2027 1.970 . S
O2086 C2056 1.325 . S
O2087 Li2025 1.961 . S
O2087 Li2026 1.970 . S
O2087 Li2027 1.956 . S
O2087 C2062 1.325 . S
H2088 C2030 0.929 . S
H2089 C2031 0.930 . S
H2090 C2032 0.930 . S
H2091 C2033 0.930 . S
H2092 C2035 0.930 . S
H2093 C2037 0.929 . S
H2094 C2038 0.930 . S
H2095 C2039 0.930 . S
H2096 C2042 0.930 . S
H2097 C2045 0.929 . S
H2098 C2050 0.929 . S
H2099 C2051 0.930 . S
H2100 C2058 0.929 . S
H2101 C2059 0.930 . S
H2102 C2060 0.930 . S
H2103 C2061 0.930 . S
H2104 C2063 0.929 . S
H2105 C2064 0.930 . S
H2106 C2065 0.930 . S
H2107 C2066 0.930 . S
H2108 C2070 0.929 . S
H2109 C2072 0.930 . S
H2110 C2078 0.929 . S
H2111 C2079 0.930 . S
La2112 C2114 2.928 1_455 S
La2112 O2132 2.521 1_455 S
La2112 O2133 2.628 1_456 S
La2112 O2134 2.554 . S
La2112 O2135 2.757 . S
La2112 O2136 2.470 . S
La2112 O2141 2.482 1_556 S
La2112 O2143 2.503 1_546 S
La2113 C2123 2.928 . S
La2113 O2135 2.482 1_554 S
La2113 O2137 2.503 . S
La2113 O2138 2.521 . S
La2113 O2139 2.628 . S
La2113 O2140 2.554 . S
La2113 O2141 2.757 . S
La2113 O2142 2.470 . S
C2114 La2112 2.928 1_655 S
C2114 C2115 1.503 . S
C2114 O2132 1.261 . S
C2114 O2133 1.243 1_556 S
C2115 C2114 1.503 . S
C2115 C2116 1.394 . S
C2115 C2120 1.382 . S
C2116 C2115 1.394 . S
C2116 C2117 1.380 . S
C2116 H2144 0.930 . S
C2117 C2116 1.380 . S
C2117 C2118 1.376 . S
C2117 H2145 0.930 . S
C2118 C2117 1.376 . S
C2118 C2119 1.370 . S
C2119 C2118 1.370 . S
C2119 C2120 1.399 . S
C2119 H2146 0.929 1_556 S
C2120 C2115 1.382 . S
C2120 C2119 1.399 . S
C2120 H2147 0.918 1_556 S
C2121 O2134 1.240 . S
C2121 O2135 1.289 . S
C2122 O2136 1.258 1_554 S
C2122 O2137 1.256 . S
C2123 La2113 2.928 . S
C2123 C2124 1.503 . S
C2123 O2138 1.261 . S
C2123 O2139 1.243 . S
C2124 C2123 1.503 . S
C2124 C2125 1.394 . S
C2124 C2129 1.373 . S
C2125 C2124 1.394 . S
C2125 C2126 1.380 . S
C2125 H2148 0.930 . S
C2126 C2125 1.380 . S
C2126 C2127 1.376 . S
C2126 H2149 0.930 . S
C2127 C2126 1.376 . S
C2127 C2128 1.370 1_545 S
C2128 C2127 1.370 1_565 S
C2128 C2129 1.396 1_565 S
C2128 H2150 0.929 . S
C2129 C2124 1.373 . S
C2129 C2128 1.396 1_545 S
C2129 H2151 0.929 1_545 S
C2130 O2140 1.240 . S
C2130 O2141 1.289 . S
C2131 O2142 1.258 1_565 S
C2131 O2143 1.256 . S
O2132 La2112 2.521 1_655 S
O2132 C2114 1.261 . S
O2133 La2112 2.628 1_654 S
O2133 C2114 1.243 1_554 S
O2134 La2112 2.554 . S
O2134 C2121 1.240 . S
O2135 La2112 2.757 . S
O2135 La2113 2.482 1_556 S
O2135 C2121 1.289 . S
O2136 La2112 2.470 . S
O2136 C2122 1.258 1_556 S
O2137 La2113 2.503 . S
O2137 C2122 1.256 . S
O2138 La2113 2.521 . S
O2138 C2123 1.261 . S
O2139 La2113 2.628 . S
O2139 C2123 1.243 . S
O2140 La2113 2.554 . S
O2140 C2130 1.240 . S
O2141 La2112 2.482 1_554 S
O2141 La2113 2.757 . S
O2141 C2130 1.289 . S
O2142 La2113 2.470 . S
O2142 C2131 1.258 1_545 S
O2143 La2112 2.503 1_564 S
O2143 C2131 1.256 . S
H2144 C2116 0.930 . S
H2145 C2117 0.930 . S
H2146 C2119 0.929 1_554 S
H2147 C2120 0.918 1_554 S
H2148 C2125 0.930 . S
H2149 C2126 0.930 . S
H2150 C2128 0.929 . S
H2151 C2129 0.929 1_565 S
La2152 C2154 2.928 . S
La2152 O2172 2.521 . S
La2152 O2173 2.628 . S
La2152 O2174 2.554 . S
La2152 O2175 2.757 . S
La2152 O2176 2.470 . S
La2152 O2181 2.482 . S
La2152 O2183 2.503 . S
La2153 C2163 2.928 . S
La2153 O2175 2.482 . S
La2153 O2177 2.503 . S
La2153 O2178 2.521 . S
La2153 O2179 2.628 . S
La2153 O2180 2.554 . S
La2153 O2181 2.757 . S
La2153 O2182 2.470 . S
C2154 La2152 2.928 . S
C2154 C2155 1.503 . S
C2154 O2172 1.261 . S
C2154 O2173 1.243 . S
C2155 C2154 1.503 . S
C2155 C2156 1.394 . S
C2155 C2160 1.373 . S
C2156 C2155 1.394 . S
C2156 C2157 1.380 . S
C2156 H2184 0.930 . S
C2157 C2156 1.380 . S
C2157 C2158 1.376 . S
C2157 H2185 0.930 . S
C2158 C2157 1.376 . S
C2158 C2159 1.370 . S
C2159 C2158 1.370 . S
C2159 C2160 1.396 . S
C2159 H2186 0.929 . S
C2160 C2155 1.373 . S
C2160 C2159 1.396 . S
C2160 H2187 0.929 . S
C2161 O2174 1.240 . S
C2161 O2175 1.289 . S
C2162 O2176 1.258 . S
C2162 O2177 1.256 . S
C2163 La2153 2.928 . S
C2163 C2164 1.503 . S
C2163 O2178 1.261 . S
C2163 O2179 1.243 . S
C2164 C2163 1.503 . S
C2164 C2165 1.394 . S
C2164 C2169 1.373 . S
C2165 C2164 1.394 . S
C2165 C2166 1.380 . S
C2165 H2188 0.930 . S
C2166 C2165 1.380 . S
C2166 C2167 1.376 . S
C2166 H2189 0.930 . S
C2167 C2166 1.376 . S
C2167 C2168 1.370 . S
C2168 C2167 1.370 . S
C2168 C2169 1.396 . S
C2168 H2190 0.929 . S
C2169 C2164 1.373 . S
C2169 C2168 1.396 . S
C2169 H2191 0.929 . S
C2170 O2180 1.240 . S
C2170 O2181 1.289 . S
C2171 O2182 1.258 . S
C2171 O2183 1.256 . S
O2172 La2152 2.521 . S
O2172 C2154 1.261 . S
O2173 La2152 2.628 . S
O2173 C2154 1.243 . S
O2174 La2152 2.554 . S
O2174 C2161 1.240 . S
O2175 La2152 2.757 . S
O2175 La2153 2.482 . S
O2175 C2161 1.289 . S
O2176 La2152 2.470 . S
O2176 C2162 1.258 . S
O2177 La2153 2.503 . S
O2177 C2162 1.256 . S
O2178 La2153 2.521 . S
O2178 C2163 1.261 . S
O2179 La2153 2.628 . S
O2179 C2163 1.243 . S
O2180 La2153 2.554 . S
O2180 C2170 1.240 . S
O2181 La2152 2.482 . S
O2181 La2153 2.757 . S
O2181 C2170 1.289 . S
O2182 La2153 2.470 . S
O2182 C2171 1.258 . S
O2183 La2152 2.503 . S
O2183 C2171 1.256 . S
H2184 C2156 0.930 . S
H2185 C2157 0.930 . S
H2186 C2159 0.929 . S
H2187 C2160 0.929 . S
H2188 C2165 0.930 . S
H2189 C2166 0.930 . S
H2190 C2168 0.929 . S
H2191 C2169 0.929 . S
La2192 C2194 2.928 . S
La2192 O2212 2.521 . S
La2192 O2213 2.628 . S
La2192 O2214 2.554 . S
La2192 O2215 2.757 . S
La2192 O2216 2.450 1_545 S
La2192 O2221 2.482 . S
La2192 O2223 2.503 . S
La2193 C2203 2.928 . S
La2193 O2215 2.482 . S
La2193 O2217 2.503 1_545 S
La2193 O2218 2.521 . S
La2193 O2219 2.628 . S
La2193 O2220 2.554 . S
La2193 O2221 2.757 . S
La2193 O2222 2.470 . S
C2194 La2192 2.928 . S
C2194 C2195 1.503 1_545 S
C2194 O2212 1.261 . S
C2194 O2213 1.243 . S
C2195 C2194 1.503 1_565 S
C2195 C2196 1.394 . S
C2195 C2200 1.373 . S
C2196 C2195 1.394 . S
C2196 C2197 1.380 . S
C2196 H2224 0.930 1_565 S
C2197 C2196 1.380 . S
C2197 C2198 1.376 . S
C2197 H2225 0.930 . S
C2198 C2197 1.376 . S
C2198 C2199 1.370 . S
C2199 C2198 1.370 . S
C2199 C2200 1.396 . S
C2199 H2226 0.929 . S
C2200 C2195 1.373 . S
C2200 C2199 1.396 . S
C2200 H2227 0.929 . S
C2201 O2214 1.240 . S
C2201 O2215 1.289 . S
C2202 O2216 1.271 . S
C2202 O2217 1.256 . S
C2203 La2193 2.928 . S
C2203 C2204 1.503 . S
C2203 O2218 1.261 . S
C2203 O2219 1.243 . S
C2204 C2203 1.503 . S
C2204 C2205 1.394 . S
C2204 C2209 1.373 . S
C2205 C2204 1.394 . S
C2205 C2206 1.380 . S
C2205 H2228 0.930 . S
C2206 C2205 1.380 . S
C2206 C2207 1.376 . S
C2206 H2229 0.930 . S
C2207 C2206 1.376 . S
C2207 C2208 1.370 . S
C2208 C2207 1.370 . S
C2208 C2209 1.396 . S
C2208 H2230 0.929 . S
C2209 C2204 1.373 . S
C2209 C2208 1.396 . S
C2209 H2231 0.929 . S
C2210 O2220 1.240 . S
C2210 O2221 1.289 . S
C2211 O2222 1.258 . S
C2211 O2223 1.256 . S
O2212 La2192 2.521 . S
O2212 C2194 1.261 . S
O2213 La2192 2.628 . S
O2213 C2194 1.243 . S
O2214 La2192 2.554 . S
O2214 C2201 1.240 . S
O2215 La2192 2.757 . S
O2215 La2193 2.482 . S
O2215 C2201 1.289 . S
O2216 La2192 2.450 1_565 S
O2216 C2202 1.271 . S
O2217 La2193 2.503 1_565 S
O2217 C2202 1.256 . S
O2218 La2193 2.521 . S
O2218 C2203 1.261 . S
O2219 La2193 2.628 . S
O2219 C2203 1.243 . S
O2220 La2193 2.554 . S
O2220 C2210 1.240 . S
O2221 La2192 2.482 . S
O2221 La2193 2.757 . S
O2221 C2210 1.289 . S
O2222 La2193 2.470 . S
O2222 C2211 1.258 . S
O2223 La2192 2.503 . S
O2223 C2211 1.256 . S
H2224 C2196 0.930 1_545 S
H2225 C2197 0.930 . S
H2226 C2199 0.929 . S
H2227 C2200 0.929 . S
H2228 C2205 0.930 . S
H2229 C2206 0.930 . S
H2230 C2208 0.929 . S
H2231 C2209 0.929 . S
La2232 C2234 2.928 . S
La2232 O2252 2.521 . S
La2232 O2253 2.628 . S
La2232 O2254 2.554 . S
La2232 O2255 2.757 . S
La2232 O2256 2.470 . S
La2232 O2261 2.482 . S
La2232 O2263 2.503 . S
La2233 C2243 2.928 . S
La2233 O2255 2.482 . S
La2233 O2257 2.503 . S
La2233 O2258 2.521 . S
La2233 O2259 2.628 . S
La2233 O2260 2.554 . S
La2233 O2261 2.757 . S
La2233 O2262 2.470 . S
C2234 La2232 2.928 . S
C2234 C2235 1.503 . S
C2234 O2252 1.261 . S
C2234 O2253 1.243 . S
C2235 C2234 1.503 . S
C2235 C2236 1.394 . S
C2235 C2240 1.373 . S
C2236 C2235 1.394 . S
C2236 C2237 1.380 . S
C2236 H2264 0.930 . S
C2237 C2236 1.380 . S
C2237 C2238 1.376 . S
C2237 H2265 0.930 . S
C2238 C2237 1.376 . S
C2238 C2239 1.370 . S
C2239 C2238 1.370 . S
C2239 C2240 1.396 . S
C2239 H2266 0.929 . S
C2240 C2235 1.373 . S
C2240 C2239 1.396 . S
C2240 H2267 0.929 . S
C2241 O2254 1.240 . S
C2241 O2255 1.289 . S
C2242 O2256 1.258 . S
C2242 O2257 1.256 . S
C2243 La2233 2.928 . S
C2243 C2244 1.503 . S
C2243 O2258 1.261 . S
C2243 O2259 1.243 . S
C2244 C2243 1.503 . S
C2244 C2245 1.394 . S
C2244 C2249 1.373 . S
C2245 C2244 1.394 . S
C2245 C2246 1.380 . S
C2245 H2268 0.930 . S
C2246 C2245 1.380 . S
C2246 C2247 1.376 . S
C2246 H2269 0.930 . S
C2247 C2246 1.376 . S
C2247 C2248 1.370 . S
C2248 C2247 1.370 . S
C2248 C2249 1.396 . S
C2248 H2270 0.929 . S
C2249 C2244 1.373 . S
C2249 C2248 1.396 . S
C2249 H2271 0.929 . S
C2250 O2260 1.240 . S
C2250 O2261 1.289 . S
C2251 O2262 1.258 . S
C2251 O2263 1.256 . S
O2252 La2232 2.521 . S
O2252 C2234 1.261 . S
O2253 La2232 2.628 . S
O2253 C2234 1.243 . S
O2254 La2232 2.554 . S
O2254 C2241 1.240 . S
O2255 La2232 2.757 . S
O2255 La2233 2.482 . S
O2255 C2241 1.289 . S
O2256 La2232 2.470 . S
O2256 C2242 1.258 . S
O2257 La2233 2.503 . S
O2257 C2242 1.256 . S
O2258 La2233 2.521 . S
O2258 C2243 1.261 . S
O2259 La2233 2.628 . S
O2259 C2243 1.243 . S
O2260 La2233 2.554 . S
O2260 C2250 1.240 . S
O2261 La2232 2.482 . S
O2261 La2233 2.757 . S
O2261 C2250 1.289 . S
O2262 La2233 2.470 . S
O2262 C2251 1.258 . S
O2263 La2232 2.503 . S
O2263 C2251 1.256 . S
H2264 C2236 0.930 . S
H2265 C2237 0.930 . S
H2266 C2239 0.929 . S
H2267 C2240 0.929 . S
H2268 C2245 0.930 . S
H2269 C2246 0.930 . S
H2270 C2248 0.929 . S
H2271 C2249 0.929 . S
La2272 C2274 2.928 . S
La2272 O2292 2.521 . S
La2272 O2293 2.628 . S
La2272 O2294 2.554 . S
La2272 O2295 2.757 . S
La2272 O2296 2.470 . S
La2272 O2301 2.482 . S
La2272 O2303 2.503 . S
La2273 C2283 2.928 1_545 S
La2273 O2295 2.482 . S
La2273 O2297 2.503 . S
La2273 O2298 2.521 1_545 S
La2273 O2299 2.628 1_545 S
La2273 O2300 2.554 . S
La2273 O2301 2.757 . S
La2273 O2302 2.470 . S
C2274 La2272 2.928 . S
C2274 C2275 1.503 . S
C2274 O2292 1.261 . S
C2274 O2293 1.243 . S
C2275 C2274 1.503 . S
C2275 C2276 1.394 . S
C2275 C2280 1.373 . S
C2276 C2275 1.394 . S
C2276 C2277 1.380 . S
C2276 H2304 0.930 . S
C2277 C2276 1.380 . S
C2277 C2278 1.376 . S
C2277 H2305 0.888 1_455 S
C2278 C2277 1.376 . S
C2278 C2279 1.370 . S
C2279 C2278 1.370 . S
C2279 C2280 1.396 . S
C2279 H2306 0.929 . S
C2280 C2275 1.373 . S
C2280 C2279 1.396 . S
C2280 H2307 0.929 . S
C2281 O2294 1.240 . S
C2281 O2295 1.289 . S
C2282 O2296 1.258 . S
C2282 O2297 1.256 . S
C2283 La2273 2.928 1_565 S
C2283 C2284 1.503 . S
C2283 O2298 1.261 . S
C2283 O2299 1.243 . S
C2284 C2283 1.503 . S
C2284 C2285 1.394 . S
C2284 C2289 1.373 . S
C2285 C2284 1.394 . S
C2285 C2286 1.380 . S
C2285 H2308 0.930 . S
C2286 C2285 1.380 . S
C2286 C2287 1.376 . S
C2286 H2309 0.930 . S
C2287 C2286 1.376 . S
C2287 C2288 1.370 . S
C2288 C2287 1.370 . S
C2288 C2289 1.396 . S
C2288 H2310 0.929 . S
C2289 C2284 1.373 . S
C2289 C2288 1.396 . S
C2289 H2311 0.929 . S
C2290 O2300 1.240 . S
C2290 O2301 1.289 . S
C2291 O2302 1.258 . S
C2291 O2303 1.256 . S
O2292 La2272 2.521 . S
O2292 C2274 1.261 . S
O2293 La2272 2.628 . S
O2293 C2274 1.243 . S
O2294 La2272 2.554 . S
O2294 C2281 1.240 . S
O2295 La2272 2.757 . S
O2295 La2273 2.482 . S
O2295 C2281 1.289 . S
O2296 La2272 2.470 . S
O2296 C2282 1.258 . S
O2297 La2273 2.503 . S
O2297 C2282 1.256 . S
O2298 La2273 2.521 1_565 S
O2298 C2283 1.261 . S
O2299 La2273 2.628 1_565 S
O2299 C2283 1.243 . S
O2300 La2273 2.554 . S
O2300 C2290 1.240 . S
O2301 La2272 2.482 . S
O2301 La2273 2.757 . S
O2301 C2290 1.289 . S
O2302 La2273 2.470 . S
O2302 C2291 1.258 . S
O2303 La2272 2.503 . S
O2303 C2291 1.256 . S
H2304 C2276 0.930 . S
H2305 C2277 0.888 1_655 S
H2306 C2279 0.929 . S
H2307 C2280 0.929 . S
H2308 C2285 0.930 . S
H2309 C2286 0.930 . S
H2310 C2288 0.929 . S
H2311 C2289 0.929 . S
La2312 C2314 2.928 . S
La2312 O2332 2.521 . S
La2312 O2333 2.628 . S
La2312 O2334 2.554 . S
La2312 O2335 2.757 . S
La2312 O2336 2.470 . S
La2312 O2341 2.482 . S
La2312 O2343 2.503 . S
La2313 C2323 2.928 . S
La2313 O2335 2.482 . S
La2313 O2337 2.503 . S
La2313 O2338 2.521 . S
La2313 O2339 2.628 . S
La2313 O2340 2.554 . S
La2313 O2341 2.757 . S
La2313 O2342 2.470 . S
C2314 La2312 2.928 . S
C2314 C2315 1.503 . S
C2314 O2332 1.261 . S
C2314 O2333 1.243 . S
C2315 C2314 1.503 . S
C2315 C2316 1.394 . S
C2315 C2320 1.373 . S
C2316 C2315 1.394 . S
C2316 C2317 1.380 . S
C2316 H2344 0.930 . S
C2317 C2316 1.380 . S
C2317 C2318 1.376 . S
C2317 H2345 0.930 . S
C2318 C2317 1.376 . S
C2318 C2319 1.370 . S
C2319 C2318 1.370 . S
C2319 C2320 1.396 . S
C2319 H2346 0.929 . S
C2320 C2315 1.373 . S
C2320 C2319 1.396 . S
C2320 H2347 0.929 . S
C2321 O2334 1.240 . S
C2321 O2335 1.289 . S
C2322 O2336 1.258 . S
C2322 O2337 1.256 . S
C2323 La2313 2.928 . S
C2323 C2324 1.503 . S
C2323 O2338 1.261 . S
C2323 O2339 1.243 . S
C2324 C2323 1.503 . S
C2324 C2325 1.394 . S
C2324 C2329 1.373 . S
C2325 C2324 1.394 . S
C2325 C2326 1.380 . S
C2325 H2348 0.930 . S
C2326 C2325 1.380 . S
C2326 C2327 1.376 . S
C2326 H2349 0.930 . S
C2327 C2326 1.376 . S
C2327 C2328 1.370 . S
C2328 C2327 1.370 . S
C2328 C2329 1.396 . S
C2328 H2350 0.929 . S
C2329 C2324 1.373 . S
C2329 C2328 1.396 . S
C2329 H2351 0.929 . S
C2330 O2340 1.240 . S
C2330 O2341 1.289 . S
C2331 O2342 1.258 . S
C2331 O2343 1.256 . S
O2332 La2312 2.521 . S
O2332 C2314 1.261 . S
O2333 La2312 2.628 . S
O2333 C2314 1.243 . S
O2334 La2312 2.554 . S
O2334 C2321 1.240 . S
O2335 La2312 2.757 . S
O2335 La2313 2.482 . S
O2335 C2321 1.289 . S
O2336 La2312 2.470 . S
O2336 C2322 1.258 . S
O2337 La2313 2.503 . S
O2337 C2322 1.256 . S
O2338 La2313 2.521 . S
O2338 C2323 1.261 . S
O2339 La2313 2.628 . S
O2339 C2323 1.243 . S
O2340 La2313 2.554 . S
O2340 C2330 1.240 . S
O2341 La2312 2.482 . S
O2341 La2313 2.757 . S
O2341 C2330 1.289 . S
O2342 La2313 2.470 . S
O2342 C2331 1.258 . S
O2343 La2312 2.503 . S
O2343 C2331 1.256 . S
H2344 C2316 0.930 . S
H2345 C2317 0.930 . S
H2346 C2319 0.929 . S
H2347 C2320 0.929 . S
H2348 C2325 0.930 . S
H2349 C2326 0.930 . S
H2350 C2328 0.929 . S
H2351 C2329 0.929 . S
La2352 C2354 2.928 . S
La2352 O2372 2.521 . S
La2352 O2373 2.628 . S
La2352 O2374 2.554 1_545 S
La2352 O2375 2.757 1_554 S
La2352 O2376 2.470 . S
La2352 O2381 2.482 . S
La2352 O2383 2.503 . S
La2353 C2363 2.928 . S
La2353 O2375 2.482 . S
La2353 O2377 2.503 . S
La2353 O2378 2.521 . S
La2353 O2379 2.628 . S
La2353 O2380 2.554 1_556 S
La2353 O2381 2.757 1_556 S
La2353 O2382 2.471 . S
C2354 La2352 2.928 . S
C2354 C2355 1.503 . S
C2354 O2372 1.261 . S
C2354 O2373 1.243 . S
C2355 C2354 1.503 . S
C2355 C2356 1.394 1_545 S
C2355 C2360 1.373 . S
C2356 C2355 1.394 1_565 S
C2356 C2357 1.380 . S
C2356 H2384 0.930 . S
C2357 C2356 1.380 . S
C2357 C2358 1.376 . S
C2357 H2385 0.930 . S
C2358 C2357 1.376 . S
C2358 C2359 1.370 1_565 S
C2359 C2358 1.370 1_545 S
C2359 C2360 1.396 . S
C2359 H2386 0.929 . S
C2360 C2355 1.373 . S
C2360 C2359 1.396 . S
C2360 H2387 0.929 . S
C2361 O2374 1.258 . S
C2361 O2375 1.284 1_564 S
C2362 O2376 1.258 . S
C2362 O2377 1.256 1_554 S
C2363 La2353 2.928 . S
C2363 C2364 1.503 . S
C2363 O2378 1.261 . S
C2363 O2379 1.243 . S
C2364 C2363 1.503 . S
C2364 C2365 1.394 . S
C2364 C2369 1.373 . S
C2365 C2364 1.394 . S
C2365 C2366 1.380 . S
C2365 H2388 0.930 . S
C2366 C2365 1.380 . S
C2366 C2367 1.376 . S
C2366 H2389 0.930 . S
C2367 C2366 1.376 . S
C2367 C2368 1.370 . S
C2368 C2367 1.370 . S
C2368 C2369 1.396 . S
C2368 H2390 0.929 . S
C2369 C2364 1.373 . S
C2369 C2368 1.396 . S
C2369 H2391 0.929 . S
C2370 O2380 1.240 . S
C2370 O2381 1.289 . S
C2371 O2382 1.256 1_554 S
C2371 O2383 1.256 . S
O2372 La2352 2.521 . S
O2372 C2354 1.261 . S
O2373 La2352 2.628 . S
O2373 C2354 1.243 . S
O2374 La2352 2.554 1_565 S
O2374 C2361 1.258 . S
O2375 La2352 2.757 1_556 S
O2375 La2353 2.482 . S
O2375 C2361 1.284 1_546 S
O2376 La2352 2.470 . S
O2376 C2362 1.258 . S
O2377 La2353 2.503 . S
O2377 C2362 1.256 1_556 S
O2378 La2353 2.521 . S
O2378 C2363 1.261 . S
O2379 La2353 2.628 . S
O2379 C2363 1.243 . S
O2380 La2353 2.554 1_554 S
O2380 C2370 1.240 . S
O2381 La2352 2.482 . S
O2381 La2353 2.757 1_554 S
O2381 C2370 1.289 . S
O2382 La2353 2.471 . S
O2382 C2371 1.256 1_556 S
O2383 La2352 2.503 . S
O2383 C2371 1.256 . S
H2384 C2356 0.930 . S
H2385 C2357 0.930 . S
H2386 C2359 0.929 . S
H2387 C2360 0.929 . S
H2388 C2365 0.930 . S
H2389 C2366 0.930 . S
H2390 C2368 0.929 . S
H2391 C2369 0.929 . S
La2392 C2394 2.928 . S
La2392 O2412 2.521 . S
La2392 O2413 2.628 . S
La2392 O2414 2.554 . S
La2392 O2415 2.757 . S
La2392 O2416 2.470 . S
La2392 O2421 2.482 . S
La2392 O2423 2.503 . S
La2393 C2403 2.928 . S
La2393 O2415 2.482 . S
La2393 O2417 2.503 . S
La2393 O2418 2.521 . S
La2393 O2419 2.628 . S
La2393 O2420 2.554 . S
La2393 O2421 2.757 . S
La2393 O2422 2.470 . S
C2394 La2392 2.928 . S
C2394 C2395 1.503 . S
C2394 O2412 1.261 . S
C2394 O2413 1.243 . S
C2395 C2394 1.503 . S
C2395 C2396 1.394 . S
C2395 C2400 1.373 . S
C2396 C2395 1.394 . S
C2396 C2397 1.380 . S
C2396 H2424 0.930 . S
C2397 C2396 1.380 . S
C2397 C2398 1.376 . S
C2397 H2425 0.930 . S
C2398 C2397 1.376 . S
C2398 C2399 1.370 . S
C2399 C2398 1.370 . S
C2399 C2400 1.396 . S
C2399 H2426 0.929 . S
C2400 C2395 1.373 . S
C2400 C2399 1.396 . S
C2400 H2427 0.929 . S
C2401 O2414 1.240 . S
C2401 O2415 1.289 . S
C2402 O2416 1.258 . S
C2402 O2417 1.256 . S
C2403 La2393 2.928 . S
C2403 C2404 1.503 . S
C2403 O2418 1.261 . S
C2403 O2419 1.243 . S
C2404 C2403 1.503 . S
C2404 C2405 1.394 . S
C2404 C2409 1.373 . S
C2405 C2404 1.394 . S
C2405 C2406 1.380 . S
C2405 H2428 0.930 . S
C2406 C2405 1.380 . S
C2406 C2407 1.376 . S
C2406 H2429 0.930 . S
C2407 C2406 1.376 . S
C2407 C2408 1.370 . S
C2408 C2407 1.370 . S
C2408 C2409 1.396 . S
C2408 H2430 0.929 . S
C2409 C2404 1.373 . S
C2409 C2408 1.396 . S
C2409 H2431 0.929 . S
C2410 O2420 1.240 . S
C2410 O2421 1.289 . S
C2411 O2422 1.258 . S
C2411 O2423 1.256 . S
O2412 La2392 2.521 . S
O2412 C2394 1.261 . S
O2413 La2392 2.628 . S
O2413 C2394 1.243 . S
O2414 La2392 2.554 . S
O2414 C2401 1.240 . S
O2415 La2392 2.757 . S
O2415 La2393 2.482 . S
O2415 C2401 1.289 . S
O2416 La2392 2.470 . S
O2416 C2402 1.258 . S
O2417 La2393 2.503 . S
O2417 C2402 1.256 . S
O2418 La2393 2.521 . S
O2418 C2403 1.261 . S
O2419 La2393 2.628 . S
O2419 C2403 1.243 . S
O2420 La2393 2.554 . S
O2420 C2410 1.240 . S
O2421 La2392 2.482 . S
O2421 La2393 2.757 . S
O2421 C2410 1.289 . S
O2422 La2393 2.470 . S
O2422 C2411 1.258 . S
O2423 La2392 2.503 . S
O2423 C2411 1.256 . S
H2424 C2396 0.930 . S
H2425 C2397 0.930 . S
H2426 C2399 0.929 . S
H2427 C2400 0.929 . S
H2428 C2405 0.930 . S
H2429 C2406 0.930 . S
H2430 C2408 0.929 . S
H2431 C2409 0.929 . S
La2432 C2434 2.928 1_554 S
La2432 O2452 2.521 . S
La2432 O2453 2.628 1_554 S
La2432 O2454 2.554 . S
La2432 O2455 2.757 . S
La2432 O2456 2.470 1_554 S
La2432 O2461 2.482 . S
La2432 O2463 2.503 . S
La2433 C2443 2.928 . S
La2433 O2455 2.482 . S
La2433 O2457 2.503 1_554 S
La2433 O2458 2.521 . S
La2433 O2459 2.628 . S
La2433 O2460 2.554 . S
La2433 O2461 2.757 . S
La2433 O2462 2.470 . S
C2434 La2432 2.928 1_556 S
C2434 C2435 1.503 . S
C2434 O2452 1.261 1_556 S
C2434 O2453 1.243 . S
C2435 C2434 1.503 . S
C2435 C2436 1.394 . S
C2435 C2440 1.373 . S
C2436 C2435 1.394 . S
C2436 C2437 1.380 . S
C2436 H2464 0.902 1_556 S
C2437 C2436 1.380 . S
C2437 C2438 1.376 . S
C2437 H2465 0.930 . S
C2438 C2437 1.376 . S
C2438 C2439 1.370 . S
C2439 C2438 1.370 . S
C2439 C2440 1.396 . S
C2439 H2466 0.929 . S
C2440 C2435 1.373 . S
C2440 C2439 1.396 . S
C2440 H2467 0.929 . S
C2441 O2454 1.240 . S
C2441 O2455 1.289 . S
C2442 O2456 1.258 . S
C2442 O2457 1.256 . S
C2443 La2433 2.928 . S
C2443 C2444 1.503 . S
C2443 O2458 1.261 . S
C2443 O2459 1.243 . S
C2444 C2443 1.503 . S
C2444 C2445 1.394 . S
C2444 C2449 1.373 . S
C2445 C2444 1.394 . S
C2445 C2446 1.380 . S
C2445 H2468 0.930 . S
C2446 C2445 1.380 . S
C2446 C2447 1.376 . S
C2446 H2469 0.930 . S
C2447 C2446 1.376 . S
C2447 C2448 1.370 . S
C2448 C2447 1.370 . S
C2448 C2449 1.396 . S
C2448 H2470 0.929 . S
C2449 C2444 1.373 . S
C2449 C2448 1.396 . S
C2449 H2471 0.929 . S
C2450 O2460 1.240 . S
C2450 O2461 1.289 . S
C2451 O2462 1.258 . S
C2451 O2463 1.256 . S
O2452 La2432 2.521 . S
O2452 C2434 1.261 1_554 S
O2453 La2432 2.628 1_556 S
O2453 C2434 1.243 . S
O2454 La2432 2.554 . S
O2454 C2441 1.240 . S
O2455 La2432 2.757 . S
O2455 La2433 2.482 . S
O2455 C2441 1.289 . S
O2456 La2432 2.470 1_556 S
O2456 C2442 1.258 . S
O2457 La2433 2.503 1_556 S
O2457 C2442 1.256 . S
O2458 La2433 2.521 . S
O2458 C2443 1.261 . S
O2459 La2433 2.628 . S
O2459 C2443 1.243 . S
O2460 La2433 2.554 . S
O2460 C2450 1.240 . S
O2461 La2432 2.482 . S
O2461 La2433 2.757 . S
O2461 C2450 1.289 . S
O2462 La2433 2.470 . S
O2462 C2451 1.258 . S
O2463 La2432 2.503 . S
O2463 C2451 1.256 . S
H2464 C2436 0.902 1_554 S
H2465 C2437 0.930 . S
H2466 C2439 0.929 . S
H2467 C2440 0.929 . S
H2468 C2445 0.930 . S
H2469 C2446 0.930 . S
H2470 C2448 0.929 . S
H2471 C2449 0.929 . S
La2472 C2474 2.928 . S
La2472 O2492 2.521 . S
La2472 O2493 2.628 . S
La2472 O2494 2.554 . S
La2472 O2495 2.757 . S
La2472 O2496 2.470 . S
La2472 O2501 2.482 . S
La2472 O2503 2.503 . S
La2473 C2483 2.928 . S
La2473 O2495 2.482 . S
La2473 O2497 2.503 . S
La2473 O2498 2.521 . S
La2473 O2499 2.628 . S
La2473 O2500 2.554 . S
La2473 O2501 2.757 . S
La2473 O2502 2.470 . S
C2474 La2472 2.928 . S
C2474 C2475 1.503 . S
C2474 O2492 1.261 . S
C2474 O2493 1.243 . S
C2475 C2474 1.503 . S
C2475 C2476 1.394 . S
C2475 C2480 1.373 . S
C2476 C2475 1.394 . S
C2476 C2477 1.380 . S
C2476 H2504 0.930 . S
C2477 C2476 1.380 . S
C2477 C2478 1.376 . S
C2477 H2505 0.930 . S
C2478 C2477 1.376 . S
C2478 C2479 1.370 . S
C2479 C2478 1.370 . S
C2479 C2480 1.396 . S
C2479 H2506 0.929 . S
C2480 C2475 1.373 . S
C2480 C2479 1.396 . S
C2480 H2507 0.929 . S
C2481 O2494 1.240 . S
C2481 O2495 1.289 . S
C2482 O2496 1.258 . S
C2482 O2497 1.256 . S
C2483 La2473 2.928 . S
C2483 C2484 1.503 . S
C2483 O2498 1.261 . S
C2483 O2499 1.243 . S
C2484 C2483 1.503 . S
C2484 C2485 1.394 . S
C2484 C2489 1.373 . S
C2485 C2484 1.394 . S
C2485 C2486 1.380 . S
C2485 H2508 0.930 . S
C2486 C2485 1.380 . S
C2486 C2487 1.376 . S
C2486 H2509 0.930 . S
C2487 C2486 1.376 . S
C2487 C2488 1.370 . S
C2488 C2487 1.370 . S
C2488 C2489 1.396 . S
C2488 H2510 0.929 . S
C2489 C2484 1.373 . S
C2489 C2488 1.396 . S
C2489 H2511 0.929 . S
C2490 O2500 1.240 . S
C2490 O2501 1.289 . S
C2491 O2502 1.258 . S
C2491 O2503 1.256 . S
O2492 La2472 2.521 . S
O2492 C2474 1.261 . S
O2493 La2472 2.628 . S
O2493 C2474 1.243 . S
O2494 La2472 2.554 . S
O2494 C2481 1.240 . S
O2495 La2472 2.757 . S
O2495 La2473 2.482 . S
O2495 C2481 1.289 . S
O2496 La2472 2.470 . S
O2496 C2482 1.258 . S
O2497 La2473 2.503 . S
O2497 C2482 1.256 . S
O2498 La2473 2.521 . S
O2498 C2483 1.261 . S
O2499 La2473 2.628 . S
O2499 C2483 1.243 . S
O2500 La2473 2.554 . S
O2500 C2490 1.240 . S
O2501 La2472 2.482 . S
O2501 La2473 2.757 . S
O2501 C2490 1.289 . S
O2502 La2473 2.470 . S
O2502 C2491 1.258 . S
O2503 La2472 2.503 . S
O2503 C2491 1.256 . S
H2504 C2476 0.930 . S
H2505 C2477 0.930 . S
H2506 C2479 0.929 . S
H2507 C2480 0.929 . S
H2508 C2485 0.930 . S
H2509 C2486 0.930 . S
H2510 C2488 0.929 . S
H2511 C2489 0.929 . S
La2512 C2514 2.928 . S
La2512 O2532 2.521 . S
La2512 O2533 2.628 . S
La2512 O2534 2.554 . S
La2512 O2535 2.757 . S
La2512 O2536 2.470 . S
La2512 O2541 2.482 . S
La2512 O2543 2.503 . S
La2513 C2523 2.928 . S
La2513 O2535 2.482 . S
La2513 O2537 2.503 . S
La2513 O2538 2.521 . S
La2513 O2539 2.628 . S
La2513 O2540 2.554 . S
La2513 O2541 2.757 . S
La2513 O2542 2.470 . S
C2514 La2512 2.928 . S
C2514 C2515 1.503 . S
C2514 O2532 1.261 . S
C2514 O2533 1.243 . S
C2515 C2514 1.503 . S
C2515 C2516 1.394 . S
C2515 C2520 1.340 1_455 S
C2516 C2515 1.394 . S
C2516 C2517 1.380 . S
C2516 H2544 0.930 . S
C2517 C2516 1.380 . S
C2517 C2518 1.376 1_455 S
C2517 H2545 0.930 . S
C2518 C2517 1.376 1_655 S
C2518 C2519 1.370 . S
C2519 C2518 1.370 . S
C2519 C2520 1.418 . S
C2519 H2546 0.929 . S
C2520 C2515 1.340 1_655 S
C2520 C2519 1.418 . S
C2520 H2547 0.942 . S
C2521 O2534 1.240 . S
C2521 O2535 1.289 . S
C2522 O2536 1.258 . S
C2522 O2537 1.256 . S
C2523 La2513 2.928 . S
C2523 C2524 1.503 . S
C2523 O2538 1.261 . S
C2523 O2539 1.243 . S
C2524 C2523 1.503 . S
C2524 C2525 1.394 . S
C2524 C2529 1.373 . S
C2525 C2524 1.394 . S
C2525 C2526 1.380 . S
C2525 H2548 0.930 . S
C2526 C2525 1.380 . S
C2526 C2527 1.376 . S
C2526 H2549 0.930 . S
C2527 C2526 1.376 . S
C2527 C2528 1.370 . S
C2528 C2527 1.370 . S
C2528 C2529 1.396 . S
C2528 H2550 0.929 . S
C2529 C2524 1.373 . S
C2529 C2528 1.396 . S
C2529 H2551 0.929 . S
C2530 O2540 1.240 . S
C2530 O2541 1.289 . S
C2531 O2542 1.258 . S
C2531 O2543 1.256 . S
O2532 La2512 2.521 . S
O2532 C2514 1.261 . S
O2533 La2512 2.628 . S
O2533 C2514 1.243 . S
O2534 La2512 2.554 . S
O2534 C2521 1.240 . S
O2535 La2512 2.757 . S
O2535 La2513 2.482 . S
O2535 C2521 1.289 . S
O2536 La2512 2.470 . S
O2536 C2522 1.258 . S
O2537 La2513 2.503 . S
O2537 C2522 1.256 . S
O2538 La2513 2.521 . S
O2538 C2523 1.261 . S
O2539 La2513 2.628 . S
O2539 C2523 1.243 . S
O2540 La2513 2.554 . S
O2540 C2530 1.240 . S
O2541 La2512 2.482 . S
O2541 La2513 2.757 . S
O2541 C2530 1.289 . S
O2542 La2513 2.470 . S
O2542 C2531 1.258 . S
O2543 La2512 2.503 . S
O2543 C2531 1.256 . S
H2544 C2516 0.930 . S
H2545 C2517 0.930 . S
H2546 C2519 0.929 . S
H2547 C2520 0.942 . S
H2548 C2525 0.930 . S
H2549 C2526 0.930 . S
H2550 C2528 0.929 . S
H2551 C2529 0.929 . S
La2552 C2554 2.928 . S
La2552 O2572 2.521 . S
La2552 O2573 2.628 . S
La2552 O2574 2.554 . S
La2552 O2575 2.757 . S
La2552 O2576 2.470 . S
La2552 O2581 2.482 . S
La2552 O2583 2.503 . S
La2553 C2563 2.928 . S
La2553 O2575 2.482 . S
La2553 O2577 2.503 . S
La2553 O2578 2.521 . S
La2553 O2579 2.628 . S
La2553 O2580 2.554 . S
La2553 O2581 2.757 . S
La2553 O2582 2.470 . S
C2554 La2552 2.928 . S
C2554 C2555 1.503 . S
C2554 O2572 1.261 . S
C2554 O2573 1.243 . S
C2555 C2554 1.503 . S
C2555 C2556 1.394 . S
C2555 C2560 1.373 . S
C2556 C2555 1.394 . S
C2556 C2557 1.380 . S
C2556 H2584 0.930 . S
C2557 C2556 1.380 . S
C2557 C2558 1.376 . S
C2557 H2585 0.930 . S
C2558 C2557 1.376 . S
C2558 C2559 1.370 . S
C2559 C2558 1.370 . S
C2559 C2560 1.396 . S
C2559 H2586 0.929 . S
C2560 C2555 1.373 . S
C2560 C2559 1.396 . S
C2560 H2587 0.929 . S
C2561 O2574 1.240 . S
C2561 O2575 1.289 . S
C2562 O2576 1.258 . S
C2562 O2577 1.256 . S
C2563 La2553 2.928 . S
C2563 C2564 1.503 . S
C2563 O2578 1.261 . S
C2563 O2579 1.243 . S
C2564 C2563 1.503 . S
C2564 C2565 1.394 . S
C2564 C2569 1.373 . S
C2565 C2564 1.394 . S
C2565 C2566 1.380 . S
C2565 H2588 0.930 . S
C2566 C2565 1.380 . S
C2566 C2567 1.376 . S
C2566 H2589 0.930 . S
C2567 C2566 1.376 . S
C2567 C2568 1.370 . S
C2568 C2567 1.370 . S
C2568 C2569 1.396 . S
C2568 H2590 0.929 . S
C2569 C2564 1.373 . S
C2569 C2568 1.396 . S
C2569 H2591 0.929 . S
C2570 O2580 1.240 . S
C2570 O2581 1.289 . S
C2571 O2582 1.258 . S
C2571 O2583 1.256 . S
O2572 La2552 2.521 . S
O2572 C2554 1.261 . S
O2573 La2552 2.628 . S
O2573 C2554 1.243 . S
O2574 La2552 2.554 . S
O2574 C2561 1.240 . S
O2575 La2552 2.757 . S
O2575 La2553 2.482 . S
O2575 C2561 1.289 . S
O2576 La2552 2.470 . S
O2576 C2562 1.258 . S
O2577 La2553 2.503 . S
O2577 C2562 1.256 . S
O2578 La2553 2.521 . S
O2578 C2563 1.261 . S
O2579 La2553 2.628 . S
O2579 C2563 1.243 . S
O2580 La2553 2.554 . S
O2580 C2570 1.240 . S
O2581 La2552 2.482 . S
O2581 La2553 2.757 . S
O2581 C2570 1.289 . S
O2582 La2553 2.470 . S
O2582 C2571 1.258 . S
O2583 La2552 2.503 . S
O2583 C2571 1.256 . S
H2584 C2556 0.930 . S
H2585 C2557 0.930 . S
H2586 C2559 0.929 . S
H2587 C2560 0.929 . S
H2588 C2565 0.930 . S
H2589 C2566 0.930 . S
H2590 C2568 0.929 . S
H2591 C2569 0.929 . S
La2592 C2594 2.928 . S
La2592 O2612 2.521 . S
La2592 O2613 2.628 . S
La2592 O2614 2.554 . S
La2592 O2615 2.757 . S
La2592 O2616 2.470 . S
La2592 O2621 2.482 . S
La2592 O2623 2.503 . S
La2593 C2603 2.928 . S
La2593 O2615 2.482 . S
La2593 O2617 2.503 . S
La2593 O2618 2.521 . S
La2593 O2619 2.628 . S
La2593 O2620 2.554 . S
La2593 O2621 2.757 . S
La2593 O2622 2.470 . S
C2594 La2592 2.928 . S
C2594 C2595 1.503 . S
C2594 O2612 1.261 . S
C2594 O2613 1.243 . S
C2595 C2594 1.503 . S
C2595 C2596 1.394 . S
C2595 C2600 1.373 . S
C2596 C2595 1.394 . S
C2596 C2597 1.380 . S
C2596 H2624 0.930 . S
C2597 C2596 1.380 . S
C2597 C2598 1.376 . S
C2597 H2625 0.930 . S
C2598 C2597 1.376 . S
C2598 C2599 1.370 . S
C2599 C2598 1.370 . S
C2599 C2600 1.396 . S
C2599 H2626 0.929 . S
C2600 C2595 1.373 . S
C2600 C2599 1.396 . S
C2600 H2627 0.929 . S
C2601 O2614 1.240 . S
C2601 O2615 1.289 . S
C2602 O2616 1.258 . S
C2602 O2617 1.256 . S
C2603 La2593 2.928 . S
C2603 C2604 1.503 . S
C2603 O2618 1.261 . S
C2603 O2619 1.243 . S
C2604 C2603 1.503 . S
C2604 C2605 1.394 . S
C2604 C2609 1.373 . S
C2605 C2604 1.394 . S
C2605 C2606 1.380 . S
C2605 H2628 0.930 . S
C2606 C2605 1.380 . S
C2606 C2607 1.376 . S
C2606 H2629 0.930 . S
C2607 C2606 1.376 . S
C2607 C2608 1.370 . S
C2608 C2607 1.370 . S
C2608 C2609 1.396 . S
C2608 H2630 0.929 . S
C2609 C2604 1.373 . S
C2609 C2608 1.396 . S
C2609 H2631 0.929 . S
C2610 O2620 1.240 . S
C2610 O2621 1.289 . S
C2611 O2622 1.258 . S
C2611 O2623 1.256 . S
O2612 La2592 2.521 . S
O2612 C2594 1.261 . S
O2613 La2592 2.628 . S
O2613 C2594 1.243 . S
O2614 La2592 2.554 . S
O2614 C2601 1.240 . S
O2615 La2592 2.757 . S
O2615 La2593 2.482 . S
O2615 C2601 1.289 . S
O2616 La2592 2.470 . S
O2616 C2602 1.258 . S
O2617 La2593 2.503 . S
O2617 C2602 1.256 . S
O2618 La2593 2.521 . S
O2618 C2603 1.261 . S
O2619 La2593 2.628 . S
O2619 C2603 1.243 . S
O2620 La2593 2.554 . S
O2620 C2610 1.240 . S
O2621 La2592 2.482 . S
O2621 La2593 2.757 . S
O2621 C2610 1.289 . S
O2622 La2593 2.470 . S
O2622 C2611 1.258 . S
O2623 La2592 2.503 . S
O2623 C2611 1.256 . S
H2624 C2596 0.930 . S
H2625 C2597 0.930 . S
H2626 C2599 0.929 . S
H2627 C2600 0.929 . S
H2628 C2605 0.930 . S
H2629 C2606 0.930 . S
H2630 C2608 0.929 . S
H2631 C2609 0.929 . S
La2632 C2634 2.928 . S
La2632 O2652 2.521 . S
La2632 O2653 2.628 . S
La2632 O2654 2.554 . S
La2632 O2655 2.757 . S
La2632 O2656 2.470 . S
La2632 O2661 2.482 . S
La2632 O2663 2.503 . S
La2633 C2643 2.928 . S
La2633 O2655 2.482 . S
La2633 O2657 2.503 . S
La2633 O2658 2.521 . S
La2633 O2659 2.628 . S
La2633 O2660 2.554 . S
La2633 O2661 2.757 . S
La2633 O2662 2.470 . S
C2634 La2632 2.928 . S
C2634 C2635 1.503 . S
C2634 O2652 1.261 . S
C2634 O2653 1.243 . S
C2635 C2634 1.503 . S
C2635 C2636 1.394 . S
C2635 C2640 1.373 . S
C2636 C2635 1.394 . S
C2636 C2637 1.380 . S
C2636 H2664 0.930 . S
C2637 C2636 1.380 . S
C2637 C2638 1.376 . S
C2637 H2665 0.930 . S
C2638 C2637 1.376 . S
C2638 C2639 1.370 . S
C2639 C2638 1.370 . S
C2639 C2640 1.396 . S
C2639 H2666 0.929 . S
C2640 C2635 1.373 . S
C2640 C2639 1.396 . S
C2640 H2667 0.929 . S
C2641 O2654 1.240 . S
C2641 O2655 1.289 . S
C2642 O2656 1.258 . S
C2642 O2657 1.256 . S
C2643 La2633 2.928 . S
C2643 C2644 1.503 . S
C2643 O2658 1.261 . S
C2643 O2659 1.243 . S
C2644 C2643 1.503 . S
C2644 C2645 1.394 . S
C2644 C2649 1.373 . S
C2645 C2644 1.394 . S
C2645 C2646 1.380 . S
C2645 H2668 0.930 . S
C2646 C2645 1.380 . S
C2646 C2647 1.376 . S
C2646 H2669 0.930 . S
C2647 C2646 1.376 . S
C2647 C2648 1.370 . S
C2648 C2647 1.370 . S
C2648 C2649 1.396 . S
C2648 H2670 0.929 . S
C2649 C2644 1.373 . S
C2649 C2648 1.396 . S
C2649 H2671 0.929 . S
C2650 O2660 1.240 . S
C2650 O2661 1.289 . S
C2651 O2662 1.258 . S
C2651 O2663 1.256 . S
O2652 La2632 2.521 . S
O2652 C2634 1.261 . S
O2653 La2632 2.628 . S
O2653 C2634 1.243 . S
O2654 La2632 2.554 . S
O2654 C2641 1.240 . S
O2655 La2632 2.757 . S
O2655 La2633 2.482 . S
O2655 C2641 1.289 . S
O2656 La2632 2.470 . S
O2656 C2642 1.258 . S
O2657 La2633 2.503 . S
O2657 C2642 1.256 . S
O2658 La2633 2.521 . S
O2658 C2643 1.261 . S
O2659 La2633 2.628 . S
O2659 C2643 1.243 . S
O2660 La2633 2.554 . S
O2660 C2650 1.240 . S
O2661 La2632 2.482 . S
O2661 La2633 2.757 . S
O2661 C2650 1.289 . S
O2662 La2633 2.470 . S
O2662 C2651 1.258 . S
O2663 La2632 2.503 . S
O2663 C2651 1.256 . S
H2664 C2636 0.930 . S
H2665 C2637 0.930 . S
H2666 C2639 0.929 . S
H2667 C2640 0.929 . S
H2668 C2645 0.930 . S
H2669 C2646 0.930 . S
H2670 C2648 0.929 . S
H2671 C2649 0.929 . S
La2672 C2674 2.928 . S
La2672 O2692 2.521 . S
La2672 O2693 2.628 . S
La2672 O2694 2.554 . S
La2672 O2695 2.757 . S
La2672 O2696 2.470 . S
La2672 O2701 2.482 . S
La2672 O2703 2.503 . S
La2673 C2683 2.928 . S
La2673 O2695 2.482 . S
La2673 O2697 2.503 . S
La2673 O2698 2.521 . S
La2673 O2699 2.628 . S
La2673 O2700 2.554 . S
La2673 O2701 2.757 . S
La2673 O2702 2.470 . S
C2674 La2672 2.928 . S
C2674 C2675 1.503 . S
C2674 O2692 1.261 . S
C2674 O2693 1.243 . S
C2675 C2674 1.503 . S
C2675 C2676 1.394 . S
C2675 C2680 1.373 . S
C2676 C2675 1.394 . S
C2676 C2677 1.380 . S
C2676 H2704 0.930 . S
C2677 C2676 1.380 . S
C2677 C2678 1.376 . S
C2677 H2705 0.930 . S
C2678 C2677 1.376 . S
C2678 C2679 1.370 . S
C2679 C2678 1.370 . S
C2679 C2680 1.396 . S
C2679 H2706 0.929 . S
C2680 C2675 1.373 . S
C2680 C2679 1.396 . S
C2680 H2707 0.929 . S
C2681 O2694 1.240 . S
C2681 O2695 1.289 . S
C2682 O2696 1.258 . S
C2682 O2697 1.256 . S
C2683 La2673 2.928 . S
C2683 C2684 1.503 . S
C2683 O2698 1.261 . S
C2683 O2699 1.243 . S
C2684 C2683 1.503 . S
C2684 C2685 1.394 . S
C2684 C2689 1.373 . S
C2685 C2684 1.394 . S
C2685 C2686 1.380 . S
C2685 H2708 0.930 . S
C2686 C2685 1.380 . S
C2686 C2687 1.376 . S
C2686 H2709 0.930 . S
C2687 C2686 1.376 . S
C2687 C2688 1.370 . S
C2688 C2687 1.370 . S
C2688 C2689 1.396 . S
C2688 H2710 0.929 . S
C2689 C2684 1.373 . S
C2689 C2688 1.396 . S
C2689 H2711 0.929 . S
C2690 O2700 1.240 . S
C2690 O2701 1.289 . S
C2691 O2702 1.258 . S
C2691 O2703 1.256 . S
O2692 La2672 2.521 . S
O2692 C2674 1.261 . S
O2693 La2672 2.628 . S
O2693 C2674 1.243 . S
O2694 La2672 2.554 . S
O2694 C2681 1.240 . S
O2695 La2672 2.757 . S
O2695 La2673 2.482 . S
O2695 C2681 1.289 . S
O2696 La2672 2.470 . S
O2696 C2682 1.258 . S
O2697 La2673 2.503 . S
O2697 C2682 1.256 . S
O2698 La2673 2.521 . S
O2698 C2683 1.261 . S
O2699 La2673 2.628 . S
O2699 C2683 1.243 . S
O2700 La2673 2.554 . S
O2700 C2690 1.240 . S
O2701 La2672 2.482 . S
O2701 La2673 2.757 . S
O2701 C2690 1.289 . S
O2702 La2673 2.470 . S
O2702 C2691 1.258 . S
O2703 La2672 2.503 . S
O2703 C2691 1.256 . S
H2704 C2676 0.930 . S
H2705 C2677 0.930 . S
H2706 C2679 0.929 . S
H2707 C2680 0.929 . S
H2708 C2685 0.930 . S
H2709 C2686 0.930 . S
H2710 C2688 0.929 . S
H2711 C2689 0.929 . S
La2712 C2714 2.928 1_554 S
La2712 O2732 2.521 1_554 S
La2712 O2733 2.628 . S
La2712 O2734 2.554 1_554 S
La2712 O2735 2.757 1_554 S
La2712 O2736 2.470 1_554 S
La2712 O2741 2.482 . S
La2712 O2743 2.503 . S
La2713 C2723 2.928 1_455 S
La2713 O2735 2.482 1_554 S
La2713 O2737 2.503 . S
La2713 O2738 2.521 1_455 S
La2713 O2739 2.628 1_455 S
La2713 O2740 2.554 . S
La2713 O2741 2.757 . S
La2713 O2742 2.470 . S
C2714 La2712 2.928 1_556 S
C2714 C2715 1.503 . S
C2714 O2732 1.261 . S
C2714 O2733 1.243 1_556 S
C2715 C2714 1.503 . S
C2715 C2716 1.394 . S
C2715 C2720 1.373 1_556 S
C2716 C2715 1.394 . S
C2716 C2717 1.380 . S
C2716 H2744 0.930 . S
C2717 C2716 1.380 . S
C2717 C2718 1.376 . S
C2717 H2745 0.930 . S
C2718 C2717 1.376 . S
C2718 C2719 1.354 1_556 S
C2719 C2718 1.354 1_554 S
C2719 C2720 1.398 . S
C2719 H2746 0.942 . S
C2720 C2715 1.373 1_554 S
C2720 C2719 1.398 . S
C2720 H2747 0.929 . S
C2721 O2734 1.240 . S
C2721 O2735 1.289 . S
C2722 O2736 1.247 1_554 S
C2722 O2737 1.264 . S
C2723 La2713 2.928 1_655 S
C2723 C2724 1.503 . S
C2723 O2738 1.261 . S
C2723 O2739 1.243 . S
C2724 C2723 1.503 . S
C2724 C2725 1.394 . S
C2724 C2729 1.373 . S
C2725 C2724 1.394 . S
C2725 C2726 1.380 . S
C2725 H2748 0.930 . S
C2726 C2725 1.380 . S
C2726 C2727 1.376 . S
C2726 H2749 0.930 . S
C2727 C2726 1.376 . S
C2727 C2728 1.370 . S
C2728 C2727 1.370 . S
C2728 C2729 1.396 . S
C2728 H2750 0.929 . S
C2729 C2724 1.373 . S
C2729 C2728 1.396 . S
C2729 H2751 0.929 . S
C2730 O2740 1.240 . S
C2730 O2741 1.289 . S
C2731 O2742 1.258 . S
C2731 O2743 1.256 . S
O2732 La2712 2.521 1_556 S
O2732 C2714 1.261 . S
O2733 La2712 2.628 . S
O2733 C2714 1.243 1_554 S
O2734 La2712 2.554 1_556 S
O2734 C2721 1.240 . S
O2735 La2712 2.757 1_556 S
O2735 La2713 2.482 1_556 S
O2735 C2721 1.289 . S
O2736 La2712 2.470 1_556 S
O2736 C2722 1.247 1_556 S
O2737 La2713 2.503 . S
O2737 C2722 1.264 . S
O2738 La2713 2.521 1_655 S
O2738 C2723 1.261 . S
O2739 La2713 2.628 1_655 S
O2739 C2723 1.243 . S
O2740 La2713 2.554 . S
O2740 C2730 1.240 . S
O2741 La2712 2.482 . S
O2741 La2713 2.757 . S
O2741 C2730 1.289 . S
O2742 La2713 2.470 . S
O2742 C2731 1.258 . S
O2743 La2712 2.503 . S
O2743 C2731 1.256 . S
H2744 C2716 0.930 . S
H2745 C2717 0.930 . S
H2746 C2719 0.942 . S
H2747 C2720 0.929 . S
H2748 C2725 0.930 . S
H2749 C2726 0.930 . S
H2750 C2728 0.929 . S
H2751 C2729 0.929 . S
H2752 C2758 0.930 1_554 S
H2753 C2762 0.930 . S
H2754 C2767 0.929 1_655 S
H2755 C2765 0.929 . S
H2756 C2760 0.929 . S
H2757 C2766 0.929 1_554 S
C2758 H2752 0.930 1_556 S
C2758 C2759 1.367 . S
C2758 C2766 1.378 . S
C2759 C2758 1.367 . S
C2759 C2767 1.433 . S
C2760 H2756 0.929 . S
C2760 C2762 1.378 . S
C2760 C2764 1.350 . S
C2761 C2764 1.463 . S
C2761 C2766 1.350 . S
C2761 N2769 1.427 . S
C2762 H2753 0.930 . S
C2762 C2760 1.378 . S
C2762 C2763 1.367 . S
C2763 C2762 1.367 . S
C2763 C2765 1.433 1_556 S
C2764 C2760 1.350 . S
C2764 C2761 1.463 . S
C2764 N2768 1.427 1_556 S
C2765 H2755 0.929 . S
C2765 C2763 1.433 1_554 S
C2765 N2768 1.384 . S
C2766 H2757 0.929 1_556 S
C2766 C2758 1.378 . S
C2766 C2761 1.350 . S
C2767 H2754 0.929 1_455 S
C2767 C2759 1.433 . S
C2767 N2769 1.384 . S
N2768 C2764 1.427 1_554 S
N2768 C2765 1.384 . S
N2769 C2761 1.427 . S
N2769 C2767 1.384 . S
H2770 C2776 0.930 . S
H2771 C2780 0.930 . S
H2772 C2785 0.929 . S
H2773 C2783 0.929 . S
H2774 C2778 0.929 . S
H2775 C2784 0.929 . S
C2776 H2770 0.930 . S
C2776 C2777 1.367 . S
C2776 C2784 1.378 . S
C2777 C2776 1.367 . S
C2777 C2785 1.433 . S
C2778 H2774 0.929 . S
C2778 C2780 1.378 . S
C2778 C2782 1.350 . S
C2779 C2782 1.463 . S
C2779 C2784 1.350 . S
C2779 N2787 1.427 . S
C2780 H2771 0.930 . S
C2780 C2778 1.378 . S
C2780 C2781 1.367 . S
C2781 C2780 1.367 . S
C2781 C2783 1.433 . S
C2782 C2778 1.350 . S
C2782 C2779 1.463 . S
C2782 N2786 1.427 . S
C2783 H2773 0.929 . S
C2783 C2781 1.433 . S
C2783 N2786 1.384 . S
C2784 H2775 0.929 . S
C2784 C2776 1.378 . S
C2784 C2779 1.350 . S
C2785 H2772 0.929 . S
C2785 C2777 1.433 . S
C2785 N2787 1.384 . S
N2786 C2782 1.427 . S
N2786 C2783 1.384 . S
N2787 C2779 1.427 . S
N2787 C2785 1.384 . S
H2788 C2794 0.930 . S
H2789 C2798 0.930 . S
H2790 C2803 0.929 . S
H2791 C2801 0.929 . S
H2792 C2796 0.929 . S
H2793 C2802 0.929 . S
C2794 H2788 0.930 . S
C2794 C2795 1.367 . S
C2794 C2802 1.378 . S
C2795 C2794 1.367 . S
C2795 C2803 1.433 . S
C2796 H2792 0.929 . S
C2796 C2798 1.378 . S
C2796 C2800 1.350 . S
C2797 C2800 1.463 . S
C2797 C2802 1.350 . S
C2797 N2805 1.427 . S
C2798 H2789 0.930 . S
C2798 C2796 1.378 . S
C2798 C2799 1.367 . S
C2799 C2798 1.367 . S
C2799 C2801 1.433 . S
C2800 C2796 1.350 . S
C2800 C2797 1.463 . S
C2800 N2804 1.427 . S
C2801 H2791 0.929 . S
C2801 C2799 1.433 . S
C2801 N2804 1.384 . S
C2802 H2793 0.929 . S
C2802 C2794 1.378 . S
C2802 C2797 1.350 . S
C2803 H2790 0.929 . S
C2803 C2795 1.433 . S
C2803 N2805 1.384 . S
N2804 C2800 1.427 . S
N2804 C2801 1.384 . S
N2805 C2797 1.427 . S
N2805 C2803 1.384 . S
H2806 C2812 0.930 . S
H2807 C2816 0.930 . S
H2808 C2821 0.929 . S
H2809 C2819 0.929 . S
H2810 C2814 0.929 . S
H2811 C2820 0.929 . S
C2812 H2806 0.930 . S
C2812 C2813 1.367 . S
C2812 C2820 1.378 . S
C2813 C2812 1.367 . S
C2813 C2821 1.433 . S
C2814 H2810 0.929 . S
C2814 C2816 1.378 . S
C2814 C2818 1.350 . S
C2815 C2818 1.463 . S
C2815 C2820 1.350 . S
C2815 N2823 1.427 . S
C2816 H2807 0.930 . S
C2816 C2814 1.378 . S
C2816 C2817 1.367 . S
C2817 C2816 1.367 . S
C2817 C2819 1.433 . S
C2818 C2814 1.350 . S
C2818 C2815 1.463 . S
C2818 N2822 1.427 . S
C2819 H2809 0.929 . S
C2819 C2817 1.433 . S
C2819 N2822 1.384 . S
C2820 H2811 0.929 . S
C2820 C2812 1.378 . S
C2820 C2815 1.350 . S
C2821 H2808 0.929 . S
C2821 C2813 1.433 . S
C2821 N2823 1.384 . S
N2822 C2818 1.427 . S
N2822 C2819 1.384 . S
N2823 C2815 1.427 . S
N2823 C2821 1.384 . S
H2824 C2830 0.930 . S
H2825 C2834 0.930 . S
H2826 C2839 0.929 . S
H2827 C2837 0.929 . S
H2828 C2832 0.929 . S
H2829 C2838 0.929 . S
C2830 H2824 0.930 . S
C2830 C2831 1.367 . S
C2830 C2838 1.378 . S
C2831 C2830 1.367 . S
C2831 C2839 1.433 . S
C2832 H2828 0.929 . S
C2832 C2834 1.378 . S
C2832 C2836 1.350 . S
C2833 C2836 1.463 . S
C2833 C2838 1.350 . S
C2833 N2841 1.427 . S
C2834 H2825 0.930 . S
C2834 C2832 1.378 . S
C2834 C2835 1.367 . S
C2835 C2834 1.367 . S
C2835 C2837 1.433 . S
C2836 C2832 1.350 . S
C2836 C2833 1.463 . S
C2836 N2840 1.427 . S
C2837 H2827 0.929 . S
C2837 C2835 1.433 . S
C2837 N2840 1.384 . S
C2838 H2829 0.929 . S
C2838 C2830 1.378 . S
C2838 C2833 1.350 . S
C2839 H2826 0.929 . S
C2839 C2831 1.433 . S
C2839 N2841 1.384 . S
N2840 C2836 1.427 . S
N2840 C2837 1.384 . S
N2841 C2833 1.427 . S
N2841 C2839 1.384 . S
H2842 C2848 0.930 . S
H2843 C2852 0.930 . S
H2844 C2857 0.929 . S
H2845 C2855 0.929 . S
H2846 C2850 0.929 . S
H2847 C2856 0.929 . S
C2848 H2842 0.930 . S
C2848 C2849 1.367 . S
C2848 C2856 1.378 . S
C2849 C2848 1.367 . S
C2849 C2857 1.433 . S
C2850 H2846 0.929 . S
C2850 C2852 1.378 . S
C2850 C2854 1.350 . S
C2851 C2854 1.463 . S
C2851 C2856 1.350 . S
C2851 N2859 1.427 . S
C2852 H2843 0.930 . S
C2852 C2850 1.378 . S
C2852 C2853 1.367 . S
C2853 C2852 1.367 . S
C2853 C2855 1.433 . S
C2854 C2850 1.350 . S
C2854 C2851 1.463 . S
C2854 N2858 1.427 . S
C2855 H2845 0.929 . S
C2855 C2853 1.433 . S
C2855 N2858 1.384 . S
C2856 H2847 0.929 . S
C2856 C2848 1.378 . S
C2856 C2851 1.350 . S
C2857 H2844 0.929 . S
C2857 C2849 1.433 . S
C2857 N2859 1.384 . S
N2858 C2854 1.427 . S
N2858 C2855 1.384 . S
N2859 C2851 1.427 . S
N2859 C2857 1.384 . S
H2860 C2866 0.930 . S
H2861 C2870 0.930 . S
H2862 C2875 0.929 . S
H2863 C2873 0.929 . S
H2864 C2868 0.929 . S
H2865 C2874 0.929 . S
C2866 H2860 0.930 . S
C2866 C2867 1.367 . S
C2866 C2874 1.378 . S
C2867 C2866 1.367 . S
C2867 C2875 1.433 . S
C2868 H2864 0.929 . S
C2868 C2870 1.378 . S
C2868 C2872 1.350 . S
C2869 C2872 1.463 . S
C2869 C2874 1.350 . S
C2869 N2877 1.427 . S
C2870 H2861 0.930 . S
C2870 C2868 1.378 . S
C2870 C2871 1.367 . S
C2871 C2870 1.367 . S
C2871 C2873 1.433 . S
C2872 C2868 1.350 . S
C2872 C2869 1.463 . S
C2872 N2876 1.427 . S
C2873 H2863 0.929 . S
C2873 C2871 1.433 . S
C2873 N2876 1.384 . S
C2874 H2865 0.929 . S
C2874 C2866 1.378 . S
C2874 C2869 1.350 . S
C2875 H2862 0.929 . S
C2875 C2867 1.433 . S
C2875 N2877 1.384 . S
N2876 C2872 1.427 . S
N2876 C2873 1.384 . S
N2877 C2869 1.427 . S
N2877 C2875 1.384 . S
H2878 C2884 0.930 . S
H2879 C2888 0.930 . S
H2880 C2893 0.929 . S
H2881 C2891 0.929 . S
H2882 C2886 0.929 . S
H2883 C2892 0.929 . S
C2884 H2878 0.930 . S
C2884 C2885 1.367 . S
C2884 C2892 1.378 . S
C2885 C2884 1.367 . S
C2885 C2893 1.433 . S
C2886 H2882 0.929 . S
C2886 C2888 1.378 . S
C2886 C2890 1.350 . S
C2887 C2890 1.463 . S
C2887 C2892 1.350 . S
C2887 N2895 1.427 . S
C2888 H2879 0.930 . S
C2888 C2886 1.378 . S
C2888 C2889 1.367 . S
C2889 C2888 1.367 . S
C2889 C2891 1.433 . S
C2890 C2886 1.350 . S
C2890 C2887 1.463 . S
C2890 N2894 1.427 . S
C2891 H2881 0.929 . S
C2891 C2889 1.433 . S
C2891 N2894 1.384 . S
C2892 H2883 0.929 . S
C2892 C2884 1.378 . S
C2892 C2887 1.350 . S
C2893 H2880 0.929 . S
C2893 C2885 1.433 . S
C2893 N2895 1.384 . S
N2894 C2890 1.427 . S
N2894 C2891 1.384 . S
N2895 C2887 1.427 . S
N2895 C2893 1.384 . S
H2896 C2902 0.930 . S
H2897 C2906 0.930 . S
H2898 C2911 0.929 . S
H2899 C2909 0.929 . S
H2900 C2904 0.929 . S
H2901 C2910 0.929 . S
C2902 H2896 0.930 . S
C2902 C2903 1.367 . S
C2902 C2910 1.378 . S
C2903 C2902 1.367 . S
C2903 C2911 1.433 1_655 S
C2904 H2900 0.929 . S
C2904 C2906 1.378 . S
C2904 C2908 1.350 . S
C2905 C2908 1.463 . S
C2905 C2910 1.350 1_455 S
C2905 N2913 1.427 . S
C2906 H2897 0.930 . S
C2906 C2904 1.378 . S
C2906 C2907 1.367 . S
C2907 C2906 1.367 . S
C2907 C2909 1.433 . S
C2908 C2904 1.350 . S
C2908 C2905 1.463 . S
C2908 N2912 1.427 . S
C2909 H2899 0.929 . S
C2909 C2907 1.433 . S
C2909 N2912 1.384 . S
C2910 H2901 0.929 . S
C2910 C2902 1.378 . S
C2910 C2905 1.350 1_655 S
C2911 H2898 0.929 . S
C2911 C2903 1.433 1_455 S
C2911 N2913 1.384 . S
N2912 C2908 1.427 . S
N2912 C2909 1.384 . S
N2913 C2905 1.427 . S
N2913 C2911 1.384 . S
H2914 C2920 0.930 . S
H2915 C2924 0.930 . S
H2916 C2929 0.929 . S
H2917 C2927 0.929 . S
H2918 C2922 0.929 . S
H2919 C2928 0.929 . S
C2920 H2914 0.930 . S
C2920 C2921 1.367 . S
C2920 C2928 1.378 . S
C2921 C2920 1.367 . S
C2921 C2929 1.433 . S
C2922 H2918 0.929 . S
C2922 C2924 1.378 . S
C2922 C2926 1.350 . S
C2923 C2926 1.463 . S
C2923 C2928 1.350 . S
C2923 N2931 1.427 . S
C2924 H2915 0.930 . S
C2924 C2922 1.378 . S
C2924 C2925 1.367 . S
C2925 C2924 1.367 . S
C2925 C2927 1.433 . S
C2926 C2922 1.350 . S
C2926 C2923 1.463 . S
C2926 N2930 1.427 . S
C2927 H2917 0.929 . S
C2927 C2925 1.433 . S
C2927 N2930 1.384 . S
C2928 H2919 0.929 . S
C2928 C2920 1.378 . S
C2928 C2923 1.350 . S
C2929 H2916 0.929 . S
C2929 C2921 1.433 . S
C2929 N2931 1.384 . S
N2930 C2926 1.427 . S
N2930 C2927 1.384 . S
N2931 C2923 1.427 . S
N2931 C2929 1.384 . S
H2932 C2938 0.930 . S
H2933 C2942 0.930 . S
H2934 C2947 0.929 . S
H2935 C2945 0.929 . S
H2936 C2940 0.929 . S
H2937 C2946 0.929 . S
C2938 H2932 0.930 . S
C2938 C2939 1.367 . S
C2938 C2946 1.378 . S
C2939 C2938 1.367 . S
C2939 C2947 1.433 . S
C2940 H2936 0.929 . S
C2940 C2942 1.378 . S
C2940 C2944 1.350 . S
C2941 C2944 1.463 . S
C2941 C2946 1.350 . S
C2941 N2949 1.427 . S
C2942 H2933 0.930 . S
C2942 C2940 1.378 . S
C2942 C2943 1.367 . S
C2943 C2942 1.367 . S
C2943 C2945 1.433 . S
C2944 C2940 1.350 . S
C2944 C2941 1.463 . S
C2944 N2948 1.427 . S
C2945 H2935 0.929 . S
C2945 C2943 1.433 . S
C2945 N2948 1.384 . S
C2946 H2937 0.929 . S
C2946 C2938 1.378 . S
C2946 C2941 1.350 . S
C2947 H2934 0.929 . S
C2947 C2939 1.433 . S
C2947 N2949 1.384 . S
N2948 C2944 1.427 . S
N2948 C2945 1.384 . S
N2949 C2941 1.427 . S
N2949 C2947 1.384 . S
H2950 C2956 0.930 . S
H2951 C2960 0.930 . S
H2952 C2965 0.929 . S
H2953 C2963 0.929 . S
H2954 C2958 0.929 . S
H2955 C2964 0.929 . S
C2956 H2950 0.930 . S
C2956 C2957 1.367 . S
C2956 C2964 1.378 . S
C2957 C2956 1.367 . S
C2957 C2965 1.433 . S
C2958 H2954 0.929 . S
C2958 C2960 1.378 . S
C2958 C2962 1.350 . S
C2959 C2962 1.463 . S
C2959 C2964 1.350 . S
C2959 N2967 1.427 . S
C2960 H2951 0.930 . S
C2960 C2958 1.378 . S
C2960 C2961 1.367 . S
C2961 C2960 1.367 . S
C2961 C2963 1.433 . S
C2962 C2958 1.350 . S
C2962 C2959 1.463 . S
C2962 N2966 1.427 . S
C2963 H2953 0.929 . S
C2963 C2961 1.433 . S
C2963 N2966 1.384 . S
C2964 H2955 0.929 . S
C2964 C2956 1.378 . S
C2964 C2959 1.350 . S
C2965 H2952 0.929 . S
C2965 C2957 1.433 . S
C2965 N2967 1.384 . S
N2966 C2962 1.427 . S
N2966 C2963 1.384 . S
N2967 C2959 1.427 . S
N2967 C2965 1.384 . S
H2968 C2974 0.930 . S
H2969 C2978 0.930 . S
H2970 C2983 0.929 . S
H2971 C2981 0.929 1_655 S
H2972 C2976 0.929 . S
H2973 C2982 0.929 . S
C2974 H2968 0.930 . S
C2974 C2975 1.367 . S
C2974 C2982 1.378 . S
C2975 C2974 1.367 . S
C2975 C2983 1.433 1_655 S
C2976 H2972 0.929 . S
C2976 C2978 1.378 . S
C2976 C2980 1.350 . S
C2977 C2980 1.463 . S
C2977 C2982 1.350 1_455 S
C2977 N2985 1.427 . S
C2978 H2969 0.930 . S
C2978 C2976 1.378 . S
C2978 C2979 1.367 . S
C2979 C2978 1.367 . S
C2979 C2981 1.433 . S
C2980 C2976 1.350 . S
C2980 C2977 1.463 . S
C2980 N2984 1.466 . S
C2981 H2971 0.929 1_455 S
C2981 C2979 1.433 . S
C2981 N2984 1.400 . S
C2982 H2973 0.929 . S
C2982 C2974 1.378 . S
C2982 C2977 1.350 1_655 S
C2983 H2970 0.929 . S
C2983 C2975 1.433 1_455 S
C2983 N2985 1.384 . S
N2984 C2980 1.466 . S
N2984 C2981 1.400 . S
N2985 C2977 1.427 . S
N2985 C2983 1.384 . S
H2986 C2992 0.930 . S
H2987 C2996 0.930 . S
H2988 C3001 0.929 . S
H2989 C2999 0.929 . S
H2990 C2994 0.929 . S
H2991 C3000 0.929 . S
C2992 H2986 0.930 . S
C2992 C2993 1.367 . S
C2992 C3000 1.378 . S
C2993 C2992 1.367 . S
C2993 C3001 1.433 . S
C2994 H2990 0.929 . S
C2994 C2996 1.378 . S
C2994 C2998 1.350 . S
C2995 C2998 1.463 . S
C2995 C3000 1.350 . S
C2995 N3003 1.427 . S
C2996 H2987 0.930 . S
C2996 C2994 1.378 . S
C2996 C2997 1.367 . S
C2997 C2996 1.367 . S
C2997 C2999 1.433 . S
C2998 C2994 1.350 . S
C2998 C2995 1.463 . S
C2998 N3002 1.427 . S
C2999 H2989 0.929 . S
C2999 C2997 1.433 . S
C2999 N3002 1.384 . S
C3000 H2991 0.929 . S
C3000 C2992 1.378 . S
C3000 C2995 1.350 . S
C3001 H2988 0.929 . S
C3001 C2993 1.433 . S
C3001 N3003 1.384 . S
N3002 C2998 1.427 . S
N3002 C2999 1.384 . S
N3003 C2995 1.427 . S
N3003 C3001 1.384 . S
H3004 C3010 0.930 . S
H3005 C3014 0.930 . S
H3006 C3019 0.929 . S
H3007 C3017 0.929 . S
H3008 C3012 0.929 . S
H3009 C3018 0.929 . S
C3010 H3004 0.930 . S
C3010 C3011 1.367 . S
C3010 C3018 1.378 . S
C3011 C3010 1.367 . S
C3011 C3019 1.433 . S
C3012 H3008 0.929 . S
C3012 C3014 1.378 . S
C3012 C3016 1.350 . S
C3013 C3016 1.463 . S
C3013 C3018 1.350 . S
C3013 N3021 1.427 . S
C3014 H3005 0.930 . S
C3014 C3012 1.378 . S
C3014 C3015 1.367 . S
C3015 C3014 1.367 . S
C3015 C3017 1.433 . S
C3016 C3012 1.350 . S
C3016 C3013 1.463 . S
C3016 N3020 1.427 . S
C3017 H3007 0.929 . S
C3017 C3015 1.433 . S
C3017 N3020 1.384 . S
C3018 H3009 0.929 . S
C3018 C3010 1.378 . S
C3018 C3013 1.350 . S
C3019 H3006 0.929 . S
C3019 C3011 1.433 . S
C3019 N3021 1.384 . S
N3020 C3016 1.427 . S
N3020 C3017 1.384 . S
N3021 C3013 1.427 . S
N3021 C3019 1.384 . S
H3022 C3028 0.930 . S
H3023 C3032 0.930 . S
H3024 C3037 0.929 . S
H3025 C3035 0.929 . S
H3026 C3030 0.929 . S
H3027 C3036 0.929 . S
C3028 H3022 0.930 . S
C3028 C3029 1.367 . S
C3028 C3036 1.378 . S
C3029 C3028 1.367 . S
C3029 C3037 1.433 . S
C3030 H3026 0.929 . S
C3030 C3032 1.378 . S
C3030 C3034 1.350 . S
C3031 C3034 1.463 . S
C3031 C3036 1.350 . S
C3031 N3039 1.427 . S
C3032 H3023 0.930 . S
C3032 C3030 1.378 . S
C3032 C3033 1.367 . S
C3033 C3032 1.367 . S
C3033 C3035 1.433 . S
C3034 C3030 1.350 . S
C3034 C3031 1.463 . S
C3034 N3038 1.427 . S
C3035 H3025 0.929 . S
C3035 C3033 1.433 . S
C3035 N3038 1.384 . S
C3036 H3027 0.929 . S
C3036 C3028 1.378 . S
C3036 C3031 1.350 . S
C3037 H3024 0.929 . S
C3037 C3029 1.433 . S
C3037 N3039 1.384 . S
N3038 C3034 1.427 . S
N3038 C3035 1.384 . S
N3039 C3031 1.427 . S
N3039 C3037 1.384 . S
H3040 C3046 0.930 . S
H3041 C3050 0.930 . S
H3042 C3055 0.929 1_545 S
H3043 C3053 0.929 . S
H3044 C3048 0.929 . S
H3045 C3054 0.929 . S
C3046 H3040 0.930 . S
C3046 C3047 1.367 . S
C3046 C3054 1.378 . S
C3047 C3046 1.367 . S
C3047 C3055 1.433 . S
C3048 H3044 0.929 . S
C3048 C3050 1.378 . S
C3048 C3052 1.350 1_545 S
C3049 C3052 1.463 . S
C3049 C3054 1.350 . S
C3049 N3057 1.427 . S
C3050 H3041 0.930 . S
C3050 C3048 1.378 . S
C3050 C3051 1.367 1_545 S
C3051 C3050 1.367 1_565 S
C3051 C3053 1.433 . S
C3052 C3048 1.350 1_565 S
C3052 C3049 1.463 . S
C3052 N3056 1.427 . S
C3053 H3043 0.929 . S
C3053 C3051 1.433 . S
C3053 N3056 1.384 . S
C3054 H3045 0.929 . S
C3054 C3046 1.378 . S
C3054 C3049 1.350 . S
C3055 H3042 0.929 1_565 S
C3055 C3047 1.433 . S
C3055 N3057 1.384 . S
N3056 C3052 1.427 . S
N3056 C3053 1.384 . S
N3057 C3049 1.427 . S
N3057 C3055 1.384 . S
H3058 C3064 0.930 . S
H3059 C3068 0.930 . S
H3060 C3073 0.929 . S
H3061 C3071 0.929 . S
H3062 C3066 0.929 . S
H3063 C3072 0.929 . S
C3064 H3058 0.930 . S
C3064 C3065 1.367 1_554 S
C3064 C3072 1.378 . S
C3065 C3064 1.367 1_556 S
C3065 C3073 1.433 . S
C3066 H3062 0.929 . S
C3066 C3068 1.378 . S
C3066 C3070 1.356 . S
C3067 C3070 1.467 . S
C3067 C3072 1.350 1_556 S
C3067 N3075 1.427 . S
C3068 H3059 0.930 . S
C3068 C3066 1.378 . S
C3068 C3069 1.367 1_556 S
C3069 C3068 1.367 1_554 S
C3069 C3071 1.433 . S
C3070 C3066 1.356 . S
C3070 C3067 1.467 . S
C3070 N3074 1.417 1_556 S
C3071 H3061 0.929 . S
C3071 C3069 1.433 . S
C3071 N3074 1.384 . S
C3072 H3063 0.929 . S
C3072 C3064 1.378 . S
C3072 C3067 1.350 1_554 S
C3073 H3060 0.929 . S
C3073 C3065 1.433 . S
C3073 N3075 1.384 . S
N3074 C3070 1.417 1_554 S
N3074 C3071 1.384 . S
N3075 C3067 1.427 . S
N3075 C3073 1.384 . S
H3076 C3082 0.930 . S
H3077 C3086 0.930 . S
H3078 C3091 0.929 . S
H3079 C3089 0.929 . S
H3080 C3084 0.929 . S
H3081 C3090 0.929 . S
C3082 H3076 0.930 . S
C3082 C3083 1.367 . S
C3082 C3090 1.378 . S
C3083 C3082 1.367 . S
C3083 C3091 1.433 . S
C3084 H3080 0.929 . S
C3084 C3086 1.378 . S
C3084 C3088 1.350 . S
C3085 C3088 1.463 . S
C3085 C3090 1.350 . S
C3085 N3093 1.427 . S
C3086 H3077 0.930 . S
C3086 C3084 1.378 . S
C3086 C3087 1.367 . S
C3087 C3086 1.367 . S
C3087 C3089 1.433 . S
C3088 C3084 1.350 . S
C3088 C3085 1.463 . S
C3088 N3092 1.427 . S
C3089 H3079 0.929 . S
C3089 C3087 1.433 . S
C3089 N3092 1.384 . S
C3090 H3081 0.929 . S
C3090 C3082 1.378 . S
C3090 C3085 1.350 . S
C3091 H3078 0.929 . S
C3091 C3083 1.433 . S
C3091 N3093 1.384 . S
N3092 C3088 1.427 . S
N3092 C3089 1.384 . S
N3093 C3085 1.427 . S
N3093 C3091 1.384 . S
H3094 C3100 0.930 . S
H3095 C3104 0.930 . S
H3096 C3109 0.929 . S
H3097 C3107 0.929 . S
H3098 C3102 0.929 . S
H3099 C3108 0.929 . S
C3100 H3094 0.930 . S
C3100 C3101 1.367 . S
C3100 C3108 1.378 . S
C3101 C3100 1.367 . S
C3101 C3109 1.433 . S
C3102 H3098 0.929 . S
C3102 C3104 1.378 . S
C3102 C3106 1.350 . S
C3103 C3106 1.463 . S
C3103 C3108 1.350 . S
C3103 N3111 1.427 . S
C3104 H3095 0.930 . S
C3104 C3102 1.378 . S
C3104 C3105 1.367 . S
C3105 C3104 1.367 . S
C3105 C3107 1.433 . S
C3106 C3102 1.350 . S
C3106 C3103 1.463 . S
C3106 N3110 1.427 . S
C3107 H3097 0.929 . S
C3107 C3105 1.433 . S
C3107 N3110 1.384 . S
C3108 H3099 0.929 . S
C3108 C3100 1.378 . S
C3108 C3103 1.350 . S
C3109 H3096 0.929 . S
C3109 C3101 1.433 . S
C3109 N3111 1.384 . S
N3110 C3106 1.427 . S
N3110 C3107 1.384 . S
N3111 C3103 1.427 . S
N3111 C3109 1.384 . S
H3112 C3118 0.930 . S
H3113 C3122 0.930 . S
H3114 C3127 0.929 . S
H3115 C3125 0.929 . S
H3116 C3120 0.929 . S
H3117 C3126 0.929 . S
C3118 H3112 0.930 . S
C3118 C3119 1.367 . S
C3118 C3126 1.378 . S
C3119 C3118 1.367 . S
C3119 C3127 1.433 . S
C3120 H3116 0.929 . S
C3120 C3122 1.378 . S
C3120 C3124 1.350 . S
C3121 C3124 1.463 . S
C3121 C3126 1.350 . S
C3121 N3129 1.427 . S
C3122 H3113 0.930 . S
C3122 C3120 1.378 . S
C3122 C3123 1.367 . S
C3123 C3122 1.367 . S
C3123 C3125 1.433 . S
C3124 C3120 1.350 . S
C3124 C3121 1.463 . S
C3124 N3128 1.427 . S
C3125 H3115 0.929 . S
C3125 C3123 1.433 . S
C3125 N3128 1.384 . S
C3126 H3117 0.929 . S
C3126 C3118 1.378 . S
C3126 C3121 1.350 . S
C3127 H3114 0.929 . S
C3127 C3119 1.433 . S
C3127 N3129 1.384 . S
N3128 C3124 1.427 . S
N3128 C3125 1.384 . S
N3129 C3121 1.427 . S
N3129 C3127 1.384 . S
H3130 C3136 0.930 . S
H3131 C3140 0.930 . S
H3132 C3145 0.929 . S
H3133 C3143 0.929 . S
H3134 C3138 0.929 . S
H3135 C3144 0.929 . S
C3136 H3130 0.930 . S
C3136 C3137 1.367 . S
C3136 C3144 1.378 . S
C3137 C3136 1.367 . S
C3137 C3145 1.433 . S
C3138 H3134 0.929 . S
C3138 C3140 1.378 . S
C3138 C3142 1.350 . S
C3139 C3142 1.463 . S
C3139 C3144 1.350 . S
C3139 N3147 1.427 . S
C3140 H3131 0.930 . S
C3140 C3138 1.378 . S
C3140 C3141 1.367 . S
C3141 C3140 1.367 . S
C3141 C3143 1.433 . S
C3142 C3138 1.350 . S
C3142 C3139 1.463 . S
C3142 N3146 1.427 . S
C3143 H3133 0.929 . S
C3143 C3141 1.433 . S
C3143 N3146 1.384 . S
C3144 H3135 0.929 . S
C3144 C3136 1.378 . S
C3144 C3139 1.350 . S
C3145 H3132 0.929 . S
C3145 C3137 1.433 . S
C3145 N3147 1.384 . S
N3146 C3142 1.427 . S
N3146 C3143 1.384 . S
N3147 C3139 1.427 . S
N3147 C3145 1.384 . S
H3148 C3154 0.930 . S
H3149 C3158 0.930 . S
H3150 C3163 0.929 . S
H3151 C3161 0.929 . S
H3152 C3156 0.929 . S
H3153 C3162 0.929 . S
C3154 H3148 0.930 . S
C3154 C3155 1.367 . S
C3154 C3162 1.378 . S
C3155 C3154 1.367 . S
C3155 C3163 1.433 . S
C3156 H3152 0.929 . S
C3156 C3158 1.378 . S
C3156 C3160 1.350 . S
C3157 C3160 1.463 . S
C3157 C3162 1.350 . S
C3157 N3165 1.427 . S
C3158 H3149 0.930 . S
C3158 C3156 1.378 . S
C3158 C3159 1.367 . S
C3159 C3158 1.367 . S
C3159 C3161 1.433 . S
C3160 C3156 1.350 . S
C3160 C3157 1.463 . S
C3160 N3164 1.427 . S
C3161 H3151 0.929 . S
C3161 C3159 1.433 . S
C3161 N3164 1.384 . S
C3162 H3153 0.929 . S
C3162 C3154 1.378 . S
C3162 C3157 1.350 . S
C3163 H3150 0.929 . S
C3163 C3155 1.433 . S
C3163 N3165 1.384 . S
N3164 C3160 1.427 . S
N3164 C3161 1.384 . S
N3165 C3157 1.427 . S
N3165 C3163 1.384 . S
H3166 C3172 0.930 . S
H3167 C3176 0.930 . S
H3168 C3181 0.929 . S
H3169 C3179 0.929 . S
H3170 C3174 0.929 . S
H3171 C3180 0.929 . S
C3172 H3166 0.930 . S
C3172 C3173 1.367 . S
C3172 C3180 1.378 . S
C3173 C3172 1.367 . S
C3173 C3181 1.433 . S
C3174 H3170 0.929 . S
C3174 C3176 1.378 . S
C3174 C3178 1.350 . S
C3175 C3178 1.463 . S
C3175 C3180 1.350 . S
C3175 N3183 1.427 . S
C3176 H3167 0.930 . S
C3176 C3174 1.378 . S
C3176 C3177 1.367 . S
C3177 C3176 1.367 . S
C3177 C3179 1.433 . S
C3178 C3174 1.350 . S
C3178 C3175 1.463 . S
C3178 N3182 1.427 . S
C3179 H3169 0.929 . S
C3179 C3177 1.433 . S
C3179 N3182 1.384 . S
C3180 H3171 0.929 . S
C3180 C3172 1.378 . S
C3180 C3175 1.350 . S
C3181 H3168 0.929 . S
C3181 C3173 1.433 . S
C3181 N3183 1.384 . S
N3182 C3178 1.427 . S
N3182 C3179 1.384 . S
N3183 C3175 1.427 . S
N3183 C3181 1.384 . S
H3184 C3190 0.930 . S
H3185 C3194 0.930 1_556 S
H3186 C3199 0.929 . S
H3187 C3197 0.929 . S
H3188 C3192 0.929 . S
H3189 C3198 0.929 . S
C3190 H3184 0.930 . S
C3190 C3191 1.367 . S
C3190 C3198 1.378 . S
C3191 C3190 1.367 . S
C3191 C3199 1.433 . S
C3192 H3188 0.929 . S
C3192 C3194 1.378 . S
C3192 C3196 1.350 . S
C3193 C3196 1.463 . S
C3193 C3198 1.350 . S
C3193 N3201 1.427 . S
C3194 H3185 0.930 1_554 S
C3194 C3192 1.378 . S
C3194 C3195 1.367 . S
C3195 C3194 1.367 . S
C3195 C3197 1.433 . S
C3196 C3192 1.350 . S
C3196 C3193 1.463 . S
C3196 N3200 1.427 . S
C3197 H3187 0.929 . S
C3197 C3195 1.433 . S
C3197 N3200 1.384 . S
C3198 H3189 0.929 . S
C3198 C3190 1.378 . S
C3198 C3193 1.350 . S
C3199 H3186 0.929 . S
C3199 C3191 1.433 . S
C3199 N3201 1.384 . S
N3200 C3196 1.427 . S
N3200 C3197 1.384 . S
N3201 C3193 1.427 . S
N3201 C3199 1.384 . S
H3202 C3208 0.930 . S
H3203 C3212 0.930 . S
H3204 C3217 0.929 . S
H3205 C3215 0.929 . S
H3206 C3210 0.929 . S
H3207 C3216 0.929 . S
C3208 H3202 0.930 . S
C3208 C3209 1.367 . S
C3208 C3216 1.378 . S
C3209 C3208 1.367 . S
C3209 C3217 1.433 . S
C3210 H3206 0.929 . S
C3210 C3212 1.378 . S
C3210 C3214 1.350 . S
C3211 C3214 1.463 . S
C3211 C3216 1.350 . S
C3211 N3219 1.427 . S
C3212 H3203 0.930 . S
C3212 C3210 1.378 . S
C3212 C3213 1.367 . S
C3213 C3212 1.367 . S
C3213 C3215 1.433 . S
C3214 C3210 1.350 . S
C3214 C3211 1.463 . S
C3214 N3218 1.427 . S
C3215 H3205 0.929 . S
C3215 C3213 1.433 . S
C3215 N3218 1.384 . S
C3216 H3207 0.929 . S
C3216 C3208 1.378 . S
C3216 C3211 1.350 . S
C3217 H3204 0.929 . S
C3217 C3209 1.433 . S
C3217 N3219 1.384 . S
N3218 C3214 1.427 . S
N3218 C3215 1.384 . S
N3219 C3211 1.427 . S
N3219 C3217 1.384 . S
H3220 C3226 0.930 . S
H3221 C3230 0.930 . S
H3222 C3235 0.929 . S
H3223 C3233 0.929 . S
H3224 C3228 0.929 . S
H3225 C3234 0.929 . S
C3226 H3220 0.930 . S
C3226 C3227 1.367 . S
C3226 C3234 1.378 . S
C3227 C3226 1.367 . S
C3227 C3235 1.433 . S
C3228 H3224 0.929 . S
C3228 C3230 1.378 . S
C3228 C3232 1.350 . S
C3229 C3232 1.463 . S
C3229 C3234 1.350 . S
C3229 N3237 1.427 . S
C3230 H3221 0.930 . S
C3230 C3228 1.378 . S
C3230 C3231 1.367 . S
C3231 C3230 1.367 . S
C3231 C3233 1.433 . S
C3232 C3228 1.350 . S
C3232 C3229 1.463 . S
C3232 N3236 1.427 . S
C3233 H3223 0.929 . S
C3233 C3231 1.433 . S
C3233 N3236 1.384 . S
C3234 H3225 0.929 . S
C3234 C3226 1.378 . S
C3234 C3229 1.350 . S
C3235 H3222 0.929 . S
C3235 C3227 1.433 . S
C3235 N3237 1.384 . S
N3236 C3232 1.427 . S
N3236 C3233 1.384 . S
N3237 C3229 1.427 . S
N3237 C3235 1.384 . S
H3238 C3244 0.930 . S
H3239 C3248 0.930 . S
H3240 C3253 0.929 . S
H3241 C3251 0.929 . S
H3242 C3246 0.929 . S
H3243 C3252 0.929 . S
C3244 H3238 0.930 . S
C3244 C3245 1.367 . S
C3244 C3252 1.378 . S
C3245 C3244 1.367 . S
C3245 C3253 1.433 . S
C3246 H3242 0.929 . S
C3246 C3248 1.378 . S
C3246 C3250 1.350 . S
C3247 C3250 1.463 . S
C3247 C3252 1.350 . S
C3247 N3255 1.427 . S
C3248 H3239 0.930 . S
C3248 C3246 1.378 . S
C3248 C3249 1.367 . S
C3249 C3248 1.367 . S
C3249 C3251 1.433 . S
C3250 C3246 1.350 . S
C3250 C3247 1.463 . S
C3250 N3254 1.427 . S
C3251 H3241 0.929 . S
C3251 C3249 1.433 . S
C3251 N3254 1.384 . S
C3252 H3243 0.929 . S
C3252 C3244 1.378 . S
C3252 C3247 1.350 . S
C3253 H3240 0.929 . S
C3253 C3245 1.433 . S
C3253 N3255 1.384 . S
N3254 C3250 1.427 . S
N3254 C3251 1.384 . S
N3255 C3247 1.427 . S
N3255 C3253 1.384 . S
H3256 C3262 0.930 . S
H3257 C3266 0.930 . S
H3258 C3271 0.929 . S
H3259 C3269 0.929 . S
H3260 C3264 0.929 . S
H3261 C3270 0.929 . S
C3262 H3256 0.930 . S
C3262 C3263 1.367 . S
C3262 C3270 1.378 . S
C3263 C3262 1.367 . S
C3263 C3271 1.433 . S
C3264 H3260 0.929 . S
C3264 C3266 1.378 . S
C3264 C3268 1.350 . S
C3265 C3268 1.463 . S
C3265 C3270 1.350 . S
C3265 N3273 1.427 . S
C3266 H3257 0.930 . S
C3266 C3264 1.378 . S
C3266 C3267 1.367 . S
C3267 C3266 1.367 . S
C3267 C3269 1.433 . S
C3268 C3264 1.350 . S
C3268 C3265 1.463 . S
C3268 N3272 1.427 . S
C3269 H3259 0.929 . S
C3269 C3267 1.433 . S
C3269 N3272 1.384 . S
C3270 H3261 0.929 . S
C3270 C3262 1.378 . S
C3270 C3265 1.350 . S
C3271 H3258 0.929 . S
C3271 C3263 1.433 . S
C3271 N3273 1.384 . S
N3272 C3268 1.427 . S
N3272 C3269 1.384 . S
N3273 C3265 1.427 . S
N3273 C3271 1.384 . S
H3274 C3280 0.930 . S
H3275 C3284 0.930 . S
H3276 C3289 0.929 . S
H3277 C3287 0.929 . S
H3278 C3282 0.929 . S
H3279 C3288 0.929 . S
C3280 H3274 0.930 . S
C3280 C3281 1.367 . S
C3280 C3288 1.378 . S
C3281 C3280 1.367 . S
C3281 C3289 1.433 . S
C3282 H3278 0.929 . S
C3282 C3284 1.378 . S
C3282 C3286 1.350 . S
C3283 C3286 1.463 . S
C3283 C3288 1.350 . S
C3283 N3291 1.427 . S
C3284 H3275 0.930 . S
C3284 C3282 1.378 . S
C3284 C3285 1.367 . S
C3285 C3284 1.367 . S
C3285 C3287 1.433 . S
C3286 C3282 1.350 . S
C3286 C3283 1.463 . S
C3286 N3290 1.427 . S
C3287 H3277 0.929 . S
C3287 C3285 1.433 . S
C3287 N3290 1.384 . S
C3288 H3279 0.929 . S
C3288 C3280 1.378 . S
C3288 C3283 1.350 . S
C3289 H3276 0.929 . S
C3289 C3281 1.433 . S
C3289 N3291 1.384 . S
N3290 C3286 1.427 . S
N3290 C3287 1.384 . S
N3291 C3283 1.427 . S
N3291 C3289 1.384 . S
H3292 C3298 0.930 . S
H3293 C3302 0.930 . S
H3294 C3307 0.929 . S
H3295 C3305 0.929 1_554 S
H3296 C3300 0.929 . S
H3297 C3306 0.929 . S
C3298 H3292 0.930 . S
C3298 C3299 1.367 . S
C3298 C3306 1.378 . S
C3299 C3298 1.367 . S
C3299 C3307 1.433 . S
C3300 H3296 0.929 . S
C3300 C3302 1.378 . S
C3300 C3304 1.350 . S
C3301 C3304 1.463 . S
C3301 C3306 1.350 . S
C3301 N3309 1.427 . S
C3302 H3293 0.930 . S
C3302 C3300 1.378 . S
C3302 C3303 1.367 . S
C3303 C3302 1.367 . S
C3303 C3305 1.433 . S
C3304 C3300 1.350 . S
C3304 C3301 1.463 . S
C3304 N3308 1.427 . S
C3305 H3295 0.929 1_556 S
C3305 C3303 1.433 . S
C3305 N3308 1.384 . S
C3306 H3297 0.929 . S
C3306 C3298 1.378 . S
C3306 C3301 1.350 . S
C3307 H3294 0.929 . S
C3307 C3299 1.433 . S
C3307 N3309 1.384 . S
N3308 C3304 1.427 . S
N3308 C3305 1.384 . S
N3309 C3301 1.427 . S
N3309 C3307 1.384 . S
H3310 C3316 0.930 . S
H3311 C3320 0.930 . S
H3312 C3325 0.929 . S
H3313 C3323 0.929 . S
H3314 C3318 0.929 . S
H3315 C3324 0.929 . S
C3316 H3310 0.930 . S
C3316 C3317 1.367 . S
C3316 C3324 1.378 . S
C3317 C3316 1.367 . S
C3317 C3325 1.433 . S
C3318 H3314 0.929 . S
C3318 C3320 1.378 . S
C3318 C3322 1.350 . S
C3319 C3322 1.463 . S
C3319 C3324 1.350 . S
C3319 N3327 1.427 . S
C3320 H3311 0.930 . S
C3320 C3318 1.378 . S
C3320 C3321 1.367 . S
C3321 C3320 1.367 . S
C3321 C3323 1.433 . S
C3322 C3318 1.350 . S
C3322 C3319 1.463 . S
C3322 N3326 1.427 . S
C3323 H3313 0.929 . S
C3323 C3321 1.433 . S
C3323 N3326 1.384 . S
C3324 H3315 0.929 . S
C3324 C3316 1.378 . S
C3324 C3319 1.350 . S
C3325 H3312 0.929 . S
C3325 C3317 1.433 . S
C3325 N3327 1.384 . S
N3326 C3322 1.427 . S
N3326 C3323 1.384 . S
N3327 C3319 1.427 . S
N3327 C3325 1.384 . S
H3328 C3334 0.930 . S
H3329 C3338 0.930 . S
H3330 C3343 0.929 . S
H3331 C3341 0.929 . S
H3332 C3336 0.929 . S
H3333 C3342 0.929 . S
C3334 H3328 0.930 . S
C3334 C3335 1.367 . S
C3334 C3342 1.378 . S
C3335 C3334 1.367 . S
C3335 C3343 1.434 1_545 S
C3336 H3332 0.929 . S
C3336 C3338 1.378 . S
C3336 C3340 1.350 . S
C3337 C3340 1.463 . S
C3337 C3342 1.350 . S
C3337 N3345 1.427 . S
C3338 H3329 0.930 . S
C3338 C3336 1.378 . S
C3338 C3339 1.367 . S
C3339 C3338 1.367 . S
C3339 C3341 1.433 . S
C3340 C3336 1.350 . S
C3340 C3337 1.463 . S
C3340 N3344 1.427 . S
C3341 H3331 0.929 . S
C3341 C3339 1.433 . S
C3341 N3344 1.384 . S
C3342 H3333 0.929 . S
C3342 C3334 1.378 . S
C3342 C3337 1.350 . S
C3343 H3330 0.929 . S
C3343 C3335 1.434 1_565 S
C3343 N3345 1.383 1_565 S
N3344 C3340 1.427 . S
N3344 C3341 1.384 . S
N3345 C3337 1.427 . S
N3345 C3343 1.383 1_545 S
H3346 C3352 0.930 . S
H3347 C3356 0.930 . S
H3348 C3361 0.929 . S
H3349 C3359 0.929 . S
H3350 C3354 0.929 . S
H3351 C3360 0.929 . S
C3352 H3346 0.930 . S
C3352 C3353 1.367 . S
C3352 C3360 1.378 . S
C3353 C3352 1.367 . S
C3353 C3361 1.433 . S
C3354 H3350 0.929 . S
C3354 C3356 1.378 . S
C3354 C3358 1.350 . S
C3355 C3358 1.463 . S
C3355 C3360 1.350 . S
C3355 N3363 1.427 . S
C3356 H3347 0.930 . S
C3356 C3354 1.378 . S
C3356 C3357 1.367 . S
C3357 C3356 1.367 . S
C3357 C3359 1.433 . S
C3358 C3354 1.350 . S
C3358 C3355 1.463 . S
C3358 N3362 1.427 . S
C3359 H3349 0.929 . S
C3359 C3357 1.433 . S
C3359 N3362 1.384 . S
C3360 H3351 0.929 . S
C3360 C3352 1.378 . S
C3360 C3355 1.350 . S
C3361 H3348 0.929 . S
C3361 C3353 1.433 . S
C3361 N3363 1.384 . S
N3362 C3358 1.427 . S
N3362 C3359 1.384 . S
N3363 C3355 1.427 . S
N3363 C3361 1.384 . S
H3364 C3370 0.930 . S
H3365 C3374 0.930 . S
H3366 C3379 0.929 . S
H3367 C3377 0.929 . S
H3368 C3372 0.929 . S
H3369 C3378 0.929 . S
C3370 H3364 0.930 . S
C3370 C3371 1.367 . S
C3370 C3378 1.378 . S
C3371 C3370 1.367 . S
C3371 C3379 1.433 . S
C3372 H3368 0.929 . S
C3372 C3374 1.378 . S
C3372 C3376 1.350 . S
C3373 C3376 1.463 . S
C3373 C3378 1.350 . S
C3373 N3381 1.427 . S
C3374 H3365 0.930 . S
C3374 C3372 1.378 . S
C3374 C3375 1.367 . S
C3375 C3374 1.367 . S
C3375 C3377 1.433 . S
C3376 C3372 1.350 . S
C3376 C3373 1.463 . S
C3376 N3380 1.427 . S
C3377 H3367 0.929 . S
C3377 C3375 1.433 . S
C3377 N3380 1.384 . S
C3378 H3369 0.929 . S
C3378 C3370 1.378 . S
C3378 C3373 1.350 . S
C3379 H3366 0.929 . S
C3379 C3371 1.433 . S
C3379 N3381 1.384 . S
N3380 C3376 1.427 . S
N3380 C3377 1.384 . S
N3381 C3373 1.427 . S
N3381 C3379 1.384 . S
H3382 C3388 0.930 . S
H3383 C3392 0.930 . S
H3384 C3397 0.929 . S
H3385 C3395 0.929 . S
H3386 C3390 0.929 . S
H3387 C3396 0.929 . S
C3388 H3382 0.930 . S
C3388 C3389 1.367 . S
C3388 C3396 1.378 . S
C3389 C3388 1.367 . S
C3389 C3397 1.433 . S
C3390 H3386 0.929 . S
C3390 C3392 1.378 . S
C3390 C3394 1.350 . S
C3391 C3394 1.463 . S
C3391 C3396 1.350 . S
C3391 N3399 1.427 . S
C3392 H3383 0.930 . S
C3392 C3390 1.378 . S
C3392 C3393 1.367 . S
C3393 C3392 1.367 . S
C3393 C3395 1.433 . S
C3394 C3390 1.350 . S
C3394 C3391 1.463 . S
C3394 N3398 1.427 . S
C3395 H3385 0.929 . S
C3395 C3393 1.433 . S
C3395 N3398 1.384 . S
C3396 H3387 0.929 . S
C3396 C3388 1.378 . S
C3396 C3391 1.350 . S
C3397 H3384 0.929 . S
C3397 C3389 1.433 . S
C3397 N3399 1.384 . S
N3398 C3394 1.427 . S
N3398 C3395 1.384 . S
N3399 C3391 1.427 . S
N3399 C3397 1.384 . S
H3400 C3406 0.930 . S
H3401 C3410 0.930 . S
H3402 C3415 0.929 . S
H3403 C3413 0.929 . S
H3404 C3408 0.929 . S
H3405 C3414 0.929 . S
C3406 H3400 0.930 . S
C3406 C3407 1.367 . S
C3406 C3414 1.378 . S
C3407 C3406 1.367 . S
C3407 C3415 1.433 1_565 S
C3408 H3404 0.929 . S
C3408 C3410 1.378 . S
C3408 C3412 1.350 . S
C3409 C3412 1.463 . S
C3409 C3414 1.350 1_545 S
C3409 N3417 1.427 . S
C3410 H3401 0.930 . S
C3410 C3408 1.378 . S
C3410 C3411 1.367 . S
C3411 C3410 1.367 . S
C3411 C3413 1.433 . S
C3412 C3408 1.350 . S
C3412 C3409 1.463 . S
C3412 N3416 1.432 . S
C3413 H3403 0.929 . S
C3413 C3411 1.433 . S
C3413 N3416 1.404 . S
C3414 H3405 0.929 . S
C3414 C3406 1.378 . S
C3414 C3409 1.350 1_565 S
C3415 H3402 0.929 . S
C3415 C3407 1.433 1_545 S
C3415 N3417 1.384 . S
N3416 C3412 1.432 . S
N3416 C3413 1.404 . S
N3417 C3409 1.427 . S
N3417 C3415 1.384 . S
H3418 C3424 0.930 . S
H3419 C3428 0.930 . S
H3420 C3433 0.929 . S
H3421 C3431 0.929 . S
H3422 C3426 0.929 . S
H3423 C3432 0.929 . S
C3424 H3418 0.930 . S
C3424 C3425 1.367 . S
C3424 C3432 1.378 . S
C3425 C3424 1.367 . S
C3425 C3433 1.433 . S
C3426 H3422 0.929 . S
C3426 C3428 1.378 . S
C3426 C3430 1.350 . S
C3427 C3430 1.463 . S
C3427 C3432 1.350 . S
C3427 N3435 1.427 . S
C3428 H3419 0.930 . S
C3428 C3426 1.378 . S
C3428 C3429 1.367 . S
C3429 C3428 1.367 . S
C3429 C3431 1.433 . S
C3430 C3426 1.350 . S
C3430 C3427 1.463 . S
C3430 N3434 1.427 . S
C3431 H3421 0.929 . S
C3431 C3429 1.433 . S
C3431 N3434 1.384 . S
C3432 H3423 0.929 . S
C3432 C3424 1.378 . S
C3432 C3427 1.350 . S
C3433 H3420 0.929 . S
C3433 C3425 1.433 . S
C3433 N3435 1.384 . S
N3434 C3430 1.427 . S
N3434 C3431 1.384 . S
N3435 C3427 1.427 . S
N3435 C3433 1.384 . S
H3436 C3442 0.930 . S
H3437 C3446 0.930 . S
H3438 C3451 0.929 . S
H3439 C3449 0.929 . S
H3440 C3444 0.929 . S
H3441 C3450 0.929 . S
C3442 H3436 0.930 . S
C3442 C3443 1.367 1_565 S
C3442 C3450 1.378 . S
C3443 C3442 1.367 1_545 S
C3443 C3451 1.433 . S
C3444 H3440 0.929 . S
C3444 C3446 1.378 . S
C3444 C3448 1.350 1_545 S
C3445 C3448 1.463 . S
C3445 C3450 1.350 . S
C3445 N3453 1.427 1_565 S
C3446 H3437 0.930 . S
C3446 C3444 1.378 . S
C3446 C3447 1.367 1_545 S
C3447 C3446 1.367 1_565 S
C3447 C3449 1.433 . S
C3448 C3444 1.350 1_565 S
C3448 C3445 1.463 . S
C3448 N3452 1.427 . S
C3449 H3439 0.929 . S
C3449 C3447 1.433 . S
C3449 N3452 1.384 . S
C3450 H3441 0.929 . S
C3450 C3442 1.378 . S
C3450 C3445 1.350 . S
C3451 H3438 0.929 . S
C3451 C3443 1.433 . S
C3451 N3453 1.384 . S
N3452 C3448 1.427 . S
N3452 C3449 1.384 . S
N3453 C3445 1.427 1_545 S
N3453 C3451 1.384 . S
H3454 C3460 0.930 . S
H3455 C3464 0.930 . S
H3456 C3469 0.929 . S
H3457 C3467 0.929 . S
H3458 C3462 0.929 . S
H3459 C3468 0.929 . S
C3460 H3454 0.930 . S
C3460 C3461 1.367 . S
C3460 C3468 1.378 . S
C3461 C3460 1.367 . S
C3461 C3469 1.433 . S
C3462 H3458 0.929 . S
C3462 C3464 1.378 . S
C3462 C3466 1.350 . S
C3463 C3466 1.463 . S
C3463 C3468 1.350 . S
C3463 N3471 1.427 . S
C3464 H3455 0.930 . S
C3464 C3462 1.378 . S
C3464 C3465 1.367 . S
C3465 C3464 1.367 . S
C3465 C3467 1.433 . S
C3466 C3462 1.350 . S
C3466 C3463 1.463 . S
C3466 N3470 1.427 . S
C3467 H3457 0.929 . S
C3467 C3465 1.433 . S
C3467 N3470 1.384 . S
C3468 H3459 0.929 . S
C3468 C3460 1.378 . S
C3468 C3463 1.350 . S
C3469 H3456 0.929 . S
C3469 C3461 1.433 . S
C3469 N3471 1.384 . S
N3470 C3466 1.427 . S
N3470 C3467 1.384 . S
N3471 C3463 1.427 . S
N3471 C3469 1.384 . S
H3472 C3478 0.930 . S
H3473 C3482 0.930 . S
H3474 C3487 0.929 . S
H3475 C3485 0.929 . S
H3476 C3480 0.929 . S
H3477 C3486 0.929 . S
C3478 H3472 0.930 . S
C3478 C3479 1.367 1_556 S
C3478 C3486 1.378 . S
C3479 C3478 1.367 1_554 S
C3479 C3487 1.433 . S
C3480 H3476 0.929 . S
C3480 C3482 1.378 . S
C3480 C3484 1.350 . S
C3481 C3484 1.463 . S
C3481 C3486 1.350 . S
C3481 N3489 1.427 1_556 S
C3482 H3473 0.930 . S
C3482 C3480 1.378 . S
C3482 C3483 1.367 . S
C3483 C3482 1.367 . S
C3483 C3485 1.433 . S
C3484 C3480 1.350 . S
C3484 C3481 1.463 . S
C3484 N3488 1.427 . S
C3485 H3475 0.929 . S
C3485 C3483 1.433 . S
C3485 N3488 1.384 . S
C3486 H3477 0.929 . S
C3486 C3478 1.378 . S
C3486 C3481 1.350 . S
C3487 H3474 0.929 . S
C3487 C3479 1.433 . S
C3487 N3489 1.384 . S
N3488 C3484 1.427 . S
N3488 C3485 1.384 . S
N3489 C3481 1.427 1_554 S
N3489 C3487 1.384 . S
H3490 C3496 0.930 1_556 S
H3491 C3500 0.930 . S
H3492 C3505 0.929 . S
H3493 C3503 0.921 1_556 S
H3494 C3498 0.929 . S
H3495 C3504 0.929 1_556 S
C3496 H3490 0.930 1_554 S
C3496 C3497 1.367 . S
C3496 C3504 1.378 . S
C3497 C3496 1.367 . S
C3497 C3505 1.433 . S
C3498 H3494 0.929 . S
C3498 C3500 1.378 . S
C3498 C3502 1.350 . S
C3499 C3502 1.463 . S
C3499 C3504 1.350 . S
C3499 N3507 1.427 . S
C3500 H3491 0.930 . S
C3500 C3498 1.378 . S
C3500 C3501 1.367 . S
C3501 C3500 1.367 . S
C3501 C3503 1.439 . S
C3502 C3498 1.350 . S
C3502 C3499 1.463 . S
C3502 N3506 1.427 . S
C3503 H3493 0.921 1_554 S
C3503 C3501 1.439 . S
C3503 N3506 1.386 . S
C3504 H3495 0.929 1_554 S
C3504 C3496 1.378 . S
C3504 C3499 1.350 . S
C3505 H3492 0.929 . S
C3505 C3497 1.433 . S
C3505 N3507 1.384 . S
N3506 C3502 1.427 . S
N3506 C3503 1.386 . S
N3507 C3499 1.427 . S
N3507 C3505 1.384 . S
H3508 C3514 0.930 . S
H3509 C3518 0.930 . S
H3510 C3523 0.929 . S
H3511 C3521 0.929 . S
H3512 C3516 0.929 . S
H3513 C3522 0.929 . S
C3514 H3508 0.930 . S
C3514 C3515 1.367 . S
C3514 C3522 1.378 . S
C3515 C3514 1.367 . S
C3515 C3523 1.433 . S
C3516 H3512 0.929 . S
C3516 C3518 1.378 . S
C3516 C3520 1.350 . S
C3517 C3520 1.463 . S
C3517 C3522 1.350 . S
C3517 N3525 1.427 . S
C3518 H3509 0.930 . S
C3518 C3516 1.378 . S
C3518 C3519 1.367 . S
C3519 C3518 1.367 . S
C3519 C3521 1.433 . S
C3520 C3516 1.350 . S
C3520 C3517 1.463 . S
C3520 N3524 1.427 . S
C3521 H3511 0.929 . S
C3521 C3519 1.433 . S
C3521 N3524 1.384 . S
C3522 H3513 0.929 . S
C3522 C3514 1.378 . S
C3522 C3517 1.350 . S
C3523 H3510 0.929 . S
C3523 C3515 1.433 . S
C3523 N3525 1.384 . S
N3524 C3520 1.427 . S
N3524 C3521 1.384 . S
N3525 C3517 1.427 . S
N3525 C3523 1.384 . S
H3526 C3532 0.930 . S
H3527 C3536 0.930 . S
H3528 C3541 0.929 . S
H3529 C3539 0.929 . S
H3530 C3534 0.929 . S
H3531 C3540 0.929 . S
C3532 H3526 0.930 . S
C3532 C3533 1.367 . S
C3532 C3540 1.378 . S
C3533 C3532 1.367 . S
C3533 C3541 1.433 . S
C3534 H3530 0.929 . S
C3534 C3536 1.378 . S
C3534 C3538 1.350 . S
C3535 C3538 1.463 . S
C3535 C3540 1.350 . S
C3535 N3543 1.427 . S
C3536 H3527 0.930 . S
C3536 C3534 1.378 . S
C3536 C3537 1.367 . S
C3537 C3536 1.367 . S
C3537 C3539 1.433 . S
C3538 C3534 1.350 . S
C3538 C3535 1.463 . S
C3538 N3542 1.427 . S
C3539 H3529 0.929 . S
C3539 C3537 1.433 . S
C3539 N3542 1.384 . S
C3540 H3531 0.929 . S
C3540 C3532 1.378 . S
C3540 C3535 1.350 . S
C3541 H3528 0.929 . S
C3541 C3533 1.433 . S
C3541 N3543 1.384 . S
N3542 C3538 1.427 . S
N3542 C3539 1.384 . S
N3543 C3535 1.427 . S
N3543 C3541 1.384 . S
H3544 C3550 0.930 . S
H3545 C3554 0.930 . S
H3546 C3559 0.929 . S
H3547 C3557 0.929 . S
H3548 C3552 0.929 . S
H3549 C3558 0.929 . S
C3550 H3544 0.930 . S
C3550 C3551 1.367 . S
C3550 C3558 1.378 . S
C3551 C3550 1.367 . S
C3551 C3559 1.433 . S
C3552 H3548 0.929 . S
C3552 C3554 1.378 . S
C3552 C3556 1.350 . S
C3553 C3556 1.463 . S
C3553 C3558 1.350 . S
C3553 N3561 1.427 . S
C3554 H3545 0.930 . S
C3554 C3552 1.378 . S
C3554 C3555 1.367 . S
C3555 C3554 1.367 . S
C3555 C3557 1.433 . S
C3556 C3552 1.350 . S
C3556 C3553 1.463 . S
C3556 N3560 1.427 . S
C3557 H3547 0.929 . S
C3557 C3555 1.433 . S
C3557 N3560 1.384 . S
C3558 H3549 0.929 . S
C3558 C3550 1.378 . S
C3558 C3553 1.350 . S
C3559 H3546 0.929 . S
C3559 C3551 1.433 . S
C3559 N3561 1.384 . S
N3560 C3556 1.427 . S
N3560 C3557 1.384 . S
N3561 C3553 1.427 . S
N3561 C3559 1.384 . S
H3562 C3568 0.930 . S
H3563 C3572 0.930 . S
H3564 C3577 0.929 . S
H3565 C3575 0.929 . S
H3566 C3570 0.929 . S
H3567 C3576 0.929 . S
C3568 H3562 0.930 . S
C3568 C3569 1.367 . S
C3568 C3576 1.378 . S
C3569 C3568 1.367 . S
C3569 C3577 1.433 . S
C3570 H3566 0.929 . S
C3570 C3572 1.378 . S
C3570 C3574 1.350 . S
C3571 C3574 1.463 . S
C3571 C3576 1.350 . S
C3571 N3579 1.427 . S
C3572 H3563 0.930 . S
C3572 C3570 1.378 . S
C3572 C3573 1.367 . S
C3573 C3572 1.367 . S
C3573 C3575 1.433 . S
C3574 C3570 1.350 . S
C3574 C3571 1.463 . S
C3574 N3578 1.427 . S
C3575 H3565 0.929 . S
C3575 C3573 1.433 . S
C3575 N3578 1.384 . S
C3576 H3567 0.929 . S
C3576 C3568 1.378 . S
C3576 C3571 1.350 . S
C3577 H3564 0.929 . S
C3577 C3569 1.433 . S
C3577 N3579 1.384 . S
N3578 C3574 1.427 . S
N3578 C3575 1.384 . S
N3579 C3571 1.427 . S
N3579 C3577 1.384 . S
H3580 C3586 0.930 . S
H3581 C3590 0.930 . S
H3582 C3595 0.929 . S
H3583 C3593 0.929 . S
H3584 C3588 0.929 . S
H3585 C3594 0.929 . S
C3586 H3580 0.930 . S
C3586 C3587 1.367 . S
C3586 C3594 1.378 . S
C3587 C3586 1.367 . S
C3587 C3595 1.433 . S
C3588 H3584 0.929 . S
C3588 C3590 1.378 . S
C3588 C3592 1.350 . S
C3589 C3592 1.463 . S
C3589 C3594 1.350 . S
C3589 N3597 1.427 . S
C3590 H3581 0.930 . S
C3590 C3588 1.378 . S
C3590 C3591 1.367 . S
C3591 C3590 1.367 . S
C3591 C3593 1.433 . S
C3592 C3588 1.350 . S
C3592 C3589 1.463 . S
C3592 N3596 1.427 . S
C3593 H3583 0.929 . S
C3593 C3591 1.433 . S
C3593 N3596 1.384 . S
C3594 H3585 0.929 . S
C3594 C3586 1.378 . S
C3594 C3589 1.350 . S
C3595 H3582 0.929 . S
C3595 C3587 1.433 . S
C3595 N3597 1.384 . S
N3596 C3592 1.427 . S
N3596 C3593 1.384 . S
N3597 C3589 1.427 . S
N3597 C3595 1.384 . S
H3598 C3604 0.930 . S
H3599 C3608 0.930 . S
H3600 C3613 0.929 . S
H3601 C3611 0.929 . S
H3602 C3606 0.929 . S
H3603 C3612 0.929 . S
C3604 H3598 0.930 . S
C3604 C3605 1.367 . S
C3604 C3612 1.378 . S
C3605 C3604 1.367 . S
C3605 C3613 1.433 . S
C3606 H3602 0.929 . S
C3606 C3608 1.378 . S
C3606 C3610 1.350 . S
C3607 C3610 1.463 . S
C3607 C3612 1.350 . S
C3607 N3615 1.427 . S
C3608 H3599 0.930 . S
C3608 C3606 1.378 . S
C3608 C3609 1.367 . S
C3609 C3608 1.367 . S
C3609 C3611 1.433 . S
C3610 C3606 1.350 . S
C3610 C3607 1.463 . S
C3610 N3614 1.427 . S
C3611 H3601 0.929 . S
C3611 C3609 1.433 . S
C3611 N3614 1.384 . S
C3612 H3603 0.929 . S
C3612 C3604 1.378 . S
C3612 C3607 1.350 . S
C3613 H3600 0.929 . S
C3613 C3605 1.433 . S
C3613 N3615 1.384 . S
N3614 C3610 1.427 . S
N3614 C3611 1.384 . S
N3615 C3607 1.427 . S
N3615 C3613 1.384 . S
H3616 C3622 0.930 . S
H3617 C3626 0.930 . S
H3618 C3631 0.929 . S
H3619 C3629 0.929 . S
H3620 C3624 0.929 . S
H3621 C3630 0.929 . S
C3622 H3616 0.930 . S
C3622 C3623 1.367 . S
C3622 C3630 1.378 . S
C3623 C3622 1.367 . S
C3623 C3631 1.433 . S
C3624 H3620 0.929 . S
C3624 C3626 1.378 . S
C3624 C3628 1.350 . S
C3625 C3628 1.463 . S
C3625 C3630 1.350 . S
C3625 N3633 1.427 . S
C3626 H3617 0.930 . S
C3626 C3624 1.378 . S
C3626 C3627 1.367 . S
C3627 C3626 1.367 . S
C3627 C3629 1.433 . S
C3628 C3624 1.350 . S
C3628 C3625 1.463 . S
C3628 N3632 1.427 . S
C3629 H3619 0.929 . S
C3629 C3627 1.433 . S
C3629 N3632 1.384 . S
C3630 H3621 0.929 . S
C3630 C3622 1.378 . S
C3630 C3625 1.350 . S
C3631 H3618 0.929 . S
C3631 C3623 1.433 . S
C3631 N3633 1.384 . S
N3632 C3628 1.427 . S
N3632 C3629 1.384 . S
N3633 C3625 1.427 . S
N3633 C3631 1.384 . S
H3634 C3640 0.930 . S
H3635 C3644 0.930 . S
H3636 C3649 0.929 . S
H3637 C3647 0.929 . S
H3638 C3642 0.929 . S
H3639 C3648 0.929 . S
C3640 H3634 0.930 . S
C3640 C3641 1.367 . S
C3640 C3648 1.378 . S
C3641 C3640 1.367 . S
C3641 C3649 1.433 . S
C3642 H3638 0.929 . S
C3642 C3644 1.378 . S
C3642 C3646 1.350 . S
C3643 C3646 1.463 . S
C3643 C3648 1.350 . S
C3643 N3651 1.427 . S
C3644 H3635 0.930 . S
C3644 C3642 1.378 . S
C3644 C3645 1.367 . S
C3645 C3644 1.367 . S
C3645 C3647 1.433 . S
C3646 C3642 1.350 . S
C3646 C3643 1.463 . S
C3646 N3650 1.427 . S
C3647 H3637 0.929 . S
C3647 C3645 1.433 . S
C3647 N3650 1.384 . S
C3648 H3639 0.929 . S
C3648 C3640 1.378 . S
C3648 C3643 1.350 . S
C3649 H3636 0.929 . S
C3649 C3641 1.433 . S
C3649 N3651 1.384 . S
N3650 C3646 1.427 . S
N3650 C3647 1.384 . S
N3651 C3643 1.427 . S
N3651 C3649 1.384 . S
H3652 C3658 0.930 1_554 S
H3653 C3662 0.930 . S
H3654 C3667 0.929 . S
H3655 C3665 0.929 . S
H3656 C3660 0.929 . S
H3657 C3666 0.965 . S
C3658 H3652 0.930 1_556 S
C3658 C3659 1.367 . S
C3658 C3666 1.379 1_556 S
C3659 C3658 1.367 . S
C3659 C3667 1.433 . S
C3660 H3656 0.929 . S
C3660 C3662 1.378 . S
C3660 C3664 1.350 . S
C3661 C3664 1.463 . S
C3661 C3666 1.316 1_556 S
C3661 N3669 1.427 . S
C3662 H3653 0.930 . S
C3662 C3660 1.378 . S
C3662 C3663 1.366 . S
C3663 C3662 1.366 . S
C3663 C3665 1.434 1_556 S
C3664 C3660 1.350 . S
C3664 C3661 1.463 . S
C3664 N3668 1.427 1_556 S
C3665 H3655 0.929 . S
C3665 C3663 1.434 1_554 S
C3665 N3668 1.384 . S
C3666 H3657 0.965 . S
C3666 C3658 1.379 1_554 S
C3666 C3661 1.316 1_554 S
C3667 H3654 0.929 . S
C3667 C3659 1.433 . S
C3667 N3669 1.384 . S
N3668 C3664 1.427 1_554 S
N3668 C3665 1.384 . S
N3669 C3661 1.427 . S
N3669 C3667 1.384 . S
H3670 C3676 0.930 . S
H3671 C3680 0.930 . S
H3672 C3685 0.929 . S
H3673 C3683 0.929 . S
H3674 C3678 0.929 . S
H3675 C3684 0.929 . S
C3676 H3670 0.930 . S
C3676 C3677 1.367 . S
C3676 C3684 1.378 . S
C3677 C3676 1.367 . S
C3677 C3685 1.433 . S
C3678 H3674 0.929 . S
C3678 C3680 1.378 . S
C3678 C3682 1.350 . S
C3679 C3682 1.463 . S
C3679 C3684 1.350 . S
C3679 N3687 1.427 . S
C3680 H3671 0.930 . S
C3680 C3678 1.378 . S
C3680 C3681 1.367 . S
C3681 C3680 1.367 . S
C3681 C3683 1.433 . S
C3682 C3678 1.350 . S
C3682 C3679 1.463 . S
C3682 N3686 1.427 . S
C3683 H3673 0.929 . S
C3683 C3681 1.433 . S
C3683 N3686 1.384 . S
C3684 H3675 0.929 . S
C3684 C3676 1.378 . S
C3684 C3679 1.350 . S
C3685 H3672 0.929 . S
C3685 C3677 1.433 . S
C3685 N3687 1.384 . S
N3686 C3682 1.427 . S
N3686 C3683 1.384 . S
N3687 C3679 1.427 . S
N3687 C3685 1.384 . S
H3688 C3694 0.930 . S
H3689 C3698 0.930 . S
H3690 C3703 0.929 . S
H3691 C3701 0.929 . S
H3692 C3696 0.929 . S
H3693 C3702 0.929 . S
C3694 H3688 0.930 . S
C3694 C3695 1.367 . S
C3694 C3702 1.378 . S
C3695 C3694 1.367 . S
C3695 C3703 1.433 . S
C3696 H3692 0.929 . S
C3696 C3698 1.378 . S
C3696 C3700 1.350 . S
C3697 C3700 1.463 . S
C3697 C3702 1.350 . S
C3697 N3705 1.427 . S
C3698 H3689 0.930 . S
C3698 C3696 1.378 . S
C3698 C3699 1.367 . S
C3699 C3698 1.367 . S
C3699 C3701 1.433 . S
C3700 C3696 1.350 . S
C3700 C3697 1.463 . S
C3700 N3704 1.427 . S
C3701 H3691 0.929 . S
C3701 C3699 1.433 . S
C3701 N3704 1.384 . S
C3702 H3693 0.929 . S
C3702 C3694 1.378 . S
C3702 C3697 1.350 . S
C3703 H3690 0.929 . S
C3703 C3695 1.433 . S
C3703 N3705 1.384 . S
N3704 C3700 1.427 . S
N3704 C3701 1.384 . S
N3705 C3697 1.427 . S
N3705 C3703 1.384 . S
H3706 C3712 0.930 . S
H3707 C3716 0.930 . S
H3708 C3721 0.931 . S
H3709 C3719 0.929 . S
H3710 C3714 0.929 . S
H3711 C3720 0.929 . S
C3712 H3706 0.930 . S
C3712 C3713 1.365 1_655 S
C3712 C3720 1.378 . S
C3713 C3712 1.365 1_455 S
C3713 C3721 1.431 1_455 S
C3714 H3710 0.929 . S
C3714 C3716 1.378 . S
C3714 C3718 1.350 . S
C3715 C3718 1.463 . S
C3715 C3720 1.350 . S
C3715 N3723 1.427 . S
C3716 H3707 0.930 . S
C3716 C3714 1.378 . S
C3716 C3717 1.367 . S
C3717 C3716 1.367 . S
C3717 C3719 1.433 . S
C3718 C3714 1.350 . S
C3718 C3715 1.463 . S
C3718 N3722 1.427 . S
C3719 H3709 0.929 . S
C3719 C3717 1.433 . S
C3719 N3722 1.384 . S
C3720 H3711 0.929 . S
C3720 C3712 1.378 . S
C3720 C3715 1.350 . S
C3721 H3708 0.931 . S
C3721 C3713 1.431 1_655 S
C3721 N3723 1.384 . S
N3722 C3718 1.427 . S
N3722 C3719 1.384 . S
N3723 C3715 1.427 . S
N3723 C3721 1.384 . S
H3724 C3730 0.930 . S
H3725 C3734 0.930 . S
H3726 C3739 0.929 . S
H3727 C3737 0.929 . S
H3728 C3732 0.929 . S
H3729 C3738 0.929 . S
C3730 H3724 0.930 . S
C3730 C3731 1.367 . S
C3730 C3738 1.378 . S
C3731 C3730 1.367 . S
C3731 C3739 1.433 1_655 S
C3732 H3728 0.929 . S
C3732 C3734 1.378 . S
C3732 C3736 1.350 . S
C3733 C3736 1.463 . S
C3733 C3738 1.350 1_455 S
C3733 N3741 1.427 . S
C3734 H3725 0.930 . S
C3734 C3732 1.378 . S
C3734 C3735 1.367 . S
C3735 C3734 1.367 . S
C3735 C3737 1.433 . S
C3736 C3732 1.350 . S
C3736 C3733 1.463 . S
C3736 N3740 1.427 . S
C3737 H3727 0.929 . S
C3737 C3735 1.433 . S
C3737 N3740 1.384 . S
C3738 H3729 0.929 . S
C3738 C3730 1.378 . S
C3738 C3733 1.350 1_655 S
C3739 H3726 0.929 . S
C3739 C3731 1.433 1_455 S
C3739 N3741 1.384 . S
N3740 C3736 1.427 . S
N3740 C3737 1.384 . S
N3741 C3733 1.427 . S
N3741 C3739 1.384 . S
H3742 C3748 0.930 . S
H3743 C3752 0.930 . S
H3744 C3757 0.929 . S
H3745 C3755 0.929 . S
H3746 C3750 0.929 . S
H3747 C3756 0.929 . S
C3748 H3742 0.930 . S
C3748 C3749 1.367 . S
C3748 C3756 1.378 . S
C3749 C3748 1.367 . S
C3749 C3757 1.433 . S
C3750 H3746 0.929 . S
C3750 C3752 1.378 . S
C3750 C3754 1.350 . S
C3751 C3754 1.463 . S
C3751 C3756 1.350 . S
C3751 N3759 1.427 . S
C3752 H3743 0.930 . S
C3752 C3750 1.378 . S
C3752 C3753 1.367 . S
C3753 C3752 1.367 . S
C3753 C3755 1.433 . S
C3754 C3750 1.350 . S
C3754 C3751 1.463 . S
C3754 N3758 1.427 . S
C3755 H3745 0.929 . S
C3755 C3753 1.433 . S
C3755 N3758 1.384 . S
C3756 H3747 0.929 . S
C3756 C3748 1.378 . S
C3756 C3751 1.350 . S
C3757 H3744 0.929 . S
C3757 C3749 1.433 . S
C3757 N3759 1.384 . S
N3758 C3754 1.427 . S
N3758 C3755 1.384 . S
N3759 C3751 1.427 . S
N3759 C3757 1.384 . S
H3760 C3766 0.930 . S
H3761 C3770 0.930 . S
H3762 C3775 0.929 . S
H3763 C3773 0.929 . S
H3764 C3768 0.929 . S
H3765 C3774 0.929 . S
C3766 H3760 0.930 . S
C3766 C3767 1.367 . S
C3766 C3774 1.378 . S
C3767 C3766 1.367 . S
C3767 C3775 1.433 . S
C3768 H3764 0.929 . S
C3768 C3770 1.378 . S
C3768 C3772 1.350 . S
C3769 C3772 1.463 . S
C3769 C3774 1.350 . S
C3769 N3777 1.427 . S
C3770 H3761 0.930 . S
C3770 C3768 1.378 . S
C3770 C3771 1.367 . S
C3771 C3770 1.367 . S
C3771 C3773 1.433 . S
C3772 C3768 1.350 . S
C3772 C3769 1.463 . S
C3772 N3776 1.427 . S
C3773 H3763 0.929 . S
C3773 C3771 1.433 . S
C3773 N3776 1.384 . S
C3774 H3765 0.929 . S
C3774 C3766 1.378 . S
C3774 C3769 1.350 . S
C3775 H3762 0.929 . S
C3775 C3767 1.433 . S
C3775 N3777 1.384 . S
N3776 C3772 1.427 . S
N3776 C3773 1.384 . S
N3777 C3769 1.427 . S
N3777 C3775 1.384 . S
H3778 C3784 0.930 . S
H3779 C3788 0.930 . S
H3780 C3793 0.929 . S
H3781 C3791 0.929 . S
H3782 C3786 0.929 . S
H3783 C3792 0.929 . S
C3784 H3778 0.930 . S
C3784 C3785 1.367 . S
C3784 C3792 1.378 . S
C3785 C3784 1.367 . S
C3785 C3793 1.433 . S
C3786 H3782 0.929 . S
C3786 C3788 1.378 . S
C3786 C3790 1.350 . S
C3787 C3790 1.463 . S
C3787 C3792 1.350 . S
C3787 N3795 1.427 . S
C3788 H3779 0.930 . S
C3788 C3786 1.378 . S
C3788 C3789 1.367 . S
C3789 C3788 1.367 . S
C3789 C3791 1.433 . S
C3790 C3786 1.350 . S
C3790 C3787 1.463 . S
C3790 N3794 1.427 . S
C3791 H3781 0.929 . S
C3791 C3789 1.433 . S
C3791 N3794 1.384 . S
C3792 H3783 0.929 . S
C3792 C3784 1.378 . S
C3792 C3787 1.350 . S
C3793 H3780 0.929 . S
C3793 C3785 1.433 . S
C3793 N3795 1.384 . S
N3794 C3790 1.427 . S
N3794 C3791 1.384 . S
N3795 C3787 1.427 . S
N3795 C3793 1.384 . S
H3796 C3802 0.930 . S
H3797 C3806 0.930 . S
H3798 C3811 0.929 . S
H3799 C3809 0.929 . S
H3800 C3804 0.929 . S
H3801 C3810 0.929 . S
C3802 H3796 0.930 . S
C3802 C3803 1.367 . S
C3802 C3810 1.378 . S
C3803 C3802 1.367 . S
C3803 C3811 1.433 . S
C3804 H3800 0.929 . S
C3804 C3806 1.378 . S
C3804 C3808 1.350 . S
C3805 C3808 1.463 . S
C3805 C3810 1.350 . S
C3805 N3813 1.427 . S
C3806 H3797 0.930 . S
C3806 C3804 1.378 . S
C3806 C3807 1.367 . S
C3807 C3806 1.367 . S
C3807 C3809 1.433 . S
C3808 C3804 1.350 . S
C3808 C3805 1.463 . S
C3808 N3812 1.427 . S
C3809 H3799 0.929 . S
C3809 C3807 1.433 . S
C3809 N3812 1.384 . S
C3810 H3801 0.929 . S
C3810 C3802 1.378 . S
C3810 C3805 1.350 . S
C3811 H3798 0.929 . S
C3811 C3803 1.433 . S
C3811 N3813 1.384 . S
N3812 C3808 1.427 . S
N3812 C3809 1.384 . S
N3813 C3805 1.427 . S
N3813 C3811 1.384 . S
H3814 C3820 0.930 . S
H3815 C3824 0.930 . S
H3816 C3829 0.929 . S
H3817 C3827 0.929 . S
H3818 C3822 0.929 . S
H3819 C3828 0.929 . S
C3820 H3814 0.930 . S
C3820 C3821 1.367 . S
C3820 C3828 1.378 . S
C3821 C3820 1.367 . S
C3821 C3829 1.433 . S
C3822 H3818 0.929 . S
C3822 C3824 1.378 . S
C3822 C3826 1.350 . S
C3823 C3826 1.463 . S
C3823 C3828 1.350 . S
C3823 N3831 1.427 . S
C3824 H3815 0.930 . S
C3824 C3822 1.378 . S
C3824 C3825 1.367 . S
C3825 C3824 1.367 . S
C3825 C3827 1.433 . S
C3826 C3822 1.350 . S
C3826 C3823 1.463 . S
C3826 N3830 1.427 . S
C3827 H3817 0.929 . S
C3827 C3825 1.433 . S
C3827 N3830 1.384 . S
C3828 H3819 0.929 . S
C3828 C3820 1.378 . S
C3828 C3823 1.350 . S
C3829 H3816 0.929 . S
C3829 C3821 1.433 . S
C3829 N3831 1.384 . S
N3830 C3826 1.427 . S
N3830 C3827 1.384 . S
N3831 C3823 1.427 . S
N3831 C3829 1.384 . S
H3832 C3838 0.930 . S
H3833 C3842 0.930 . S
H3834 C3847 0.929 . S
H3835 C3845 0.929 . S
H3836 C3840 0.929 . S
H3837 C3846 0.929 . S
C3838 H3832 0.930 . S
C3838 C3839 1.367 . S
C3838 C3846 1.378 . S
C3839 C3838 1.367 . S
C3839 C3847 1.433 . S
C3840 H3836 0.929 . S
C3840 C3842 1.378 . S
C3840 C3844 1.350 . S
C3841 C3844 1.463 . S
C3841 C3846 1.350 . S
C3841 N3849 1.427 . S
C3842 H3833 0.930 . S
C3842 C3840 1.378 . S
C3842 C3843 1.367 . S
C3843 C3842 1.367 . S
C3843 C3845 1.433 . S
C3844 C3840 1.350 . S
C3844 C3841 1.463 . S
C3844 N3848 1.427 . S
C3845 H3835 0.929 . S
C3845 C3843 1.433 . S
C3845 N3848 1.384 . S
C3846 H3837 0.929 . S
C3846 C3838 1.378 . S
C3846 C3841 1.350 . S
C3847 H3834 0.929 . S
C3847 C3839 1.433 . S
C3847 N3849 1.384 . S
N3848 C3844 1.427 . S
N3848 C3845 1.384 . S
N3849 C3841 1.427 . S
N3849 C3847 1.384 . S
H3850 C3856 0.930 . S
H3851 C3860 0.930 . S
H3852 C3865 0.929 . S
H3853 C3863 0.929 . S
H3854 C3858 0.929 . S
H3855 C3864 0.929 . S
C3856 H3850 0.930 . S
C3856 C3857 1.367 . S
C3856 C3864 1.378 . S
C3857 C3856 1.367 . S
C3857 C3865 1.433 . S
C3858 H3854 0.929 . S
C3858 C3860 1.378 . S
C3858 C3862 1.350 . S
C3859 C3862 1.463 . S
C3859 C3864 1.350 . S
C3859 N3867 1.427 . S
C3860 H3851 0.930 . S
C3860 C3858 1.378 . S
C3860 C3861 1.367 . S
C3861 C3860 1.367 . S
C3861 C3863 1.433 . S
C3862 C3858 1.350 . S
C3862 C3859 1.463 . S
C3862 N3866 1.427 . S
C3863 H3853 0.929 . S
C3863 C3861 1.433 . S
C3863 N3866 1.384 . S
C3864 H3855 0.929 . S
C3864 C3856 1.378 . S
C3864 C3859 1.350 . S
C3865 H3852 0.929 . S
C3865 C3857 1.433 . S
C3865 N3867 1.384 . S
N3866 C3862 1.427 . S
N3866 C3863 1.384 . S
N3867 C3859 1.427 . S
N3867 C3865 1.384 . S
H3868 C3874 0.930 . S
H3869 C3878 0.930 . S
H3870 C3883 0.929 . S
H3871 C3881 0.929 . S
H3872 C3876 0.929 . S
H3873 C3882 0.929 . S
C3874 H3868 0.930 . S
C3874 C3875 1.367 . S
C3874 C3882 1.378 . S
C3875 C3874 1.367 . S
C3875 C3883 1.433 . S
C3876 H3872 0.929 . S
C3876 C3878 1.378 . S
C3876 C3880 1.350 . S
C3877 C3880 1.463 . S
C3877 C3882 1.350 . S
C3877 N3885 1.427 . S
C3878 H3869 0.930 . S
C3878 C3876 1.378 . S
C3878 C3879 1.367 . S
C3879 C3878 1.367 . S
C3879 C3881 1.433 . S
C3880 C3876 1.350 . S
C3880 C3877 1.463 . S
C3880 N3884 1.427 . S
C3881 H3871 0.929 . S
C3881 C3879 1.433 . S
C3881 N3884 1.384 . S
C3882 H3873 0.929 . S
C3882 C3874 1.378 . S
C3882 C3877 1.350 . S
C3883 H3870 0.929 . S
C3883 C3875 1.433 . S
C3883 N3885 1.384 . S
N3884 C3880 1.427 . S
N3884 C3881 1.384 . S
N3885 C3877 1.427 . S
N3885 C3883 1.384 . S
H3886 C3892 0.930 . S
H3887 C3896 0.930 . S
H3888 C3901 0.929 . S
H3889 C3899 0.929 . S
H3890 C3894 0.929 . S
H3891 C3900 0.929 . S
C3892 H3886 0.930 . S
C3892 C3893 1.367 . S
C3892 C3900 1.378 . S
C3893 C3892 1.367 . S
C3893 C3901 1.433 . S
C3894 H3890 0.929 . S
C3894 C3896 1.378 . S
C3894 C3898 1.350 . S
C3895 C3898 1.463 . S
C3895 C3900 1.350 . S
C3895 N3903 1.427 . S
C3896 H3887 0.930 . S
C3896 C3894 1.378 . S
C3896 C3897 1.367 . S
C3897 C3896 1.367 . S
C3897 C3899 1.433 . S
C3898 C3894 1.350 . S
C3898 C3895 1.463 . S
C3898 N3902 1.427 . S
C3899 H3889 0.929 . S
C3899 C3897 1.433 . S
C3899 N3902 1.384 . S
C3900 H3891 0.929 . S
C3900 C3892 1.378 . S
C3900 C3895 1.350 . S
C3901 H3888 0.929 . S
C3901 C3893 1.433 . S
C3901 N3903 1.384 . S
N3902 C3898 1.427 . S
N3902 C3899 1.384 . S
N3903 C3895 1.427 . S
N3903 C3901 1.384 . S
H3904 C3910 0.930 . S
H3905 C3914 0.930 . S
H3906 C3919 0.929 . S
H3907 C3917 0.929 . S
H3908 C3912 0.929 . S
H3909 C3918 0.929 . S
C3910 H3904 0.930 . S
C3910 C3911 1.367 . S
C3910 C3918 1.378 . S
C3911 C3910 1.367 . S
C3911 C3919 1.433 . S
C3912 H3908 0.929 . S
C3912 C3914 1.378 . S
C3912 C3916 1.350 . S
C3913 C3916 1.463 . S
C3913 C3918 1.350 . S
C3913 N3921 1.427 . S
C3914 H3905 0.930 . S
C3914 C3912 1.378 . S
C3914 C3915 1.367 . S
C3915 C3914 1.367 . S
C3915 C3917 1.433 . S
C3916 C3912 1.350 . S
C3916 C3913 1.463 . S
C3916 N3920 1.427 . S
C3917 H3907 0.929 . S
C3917 C3915 1.433 . S
C3917 N3920 1.384 . S
C3918 H3909 0.929 . S
C3918 C3910 1.378 . S
C3918 C3913 1.350 . S
C3919 H3906 0.929 . S
C3919 C3911 1.433 . S
C3919 N3921 1.384 . S
N3920 C3916 1.427 . S
N3920 C3917 1.384 . S
N3921 C3913 1.427 . S
N3921 C3919 1.384 . S
H3922 C3928 0.930 . S
H3923 C3932 0.930 . S
H3924 C3937 0.929 . S
H3925 C3935 0.929 . S
H3926 C3930 0.929 . S
H3927 C3936 0.929 . S
C3928 H3922 0.930 . S
C3928 C3929 1.367 . S
C3928 C3936 1.378 . S
C3929 C3928 1.367 . S
C3929 C3937 1.433 . S
C3930 H3926 0.929 . S
C3930 C3932 1.378 . S
C3930 C3934 1.350 . S
C3931 C3934 1.463 . S
C3931 C3936 1.350 . S
C3931 N3939 1.427 . S
C3932 H3923 0.930 . S
C3932 C3930 1.378 . S
C3932 C3933 1.367 . S
C3933 C3932 1.367 . S
C3933 C3935 1.433 . S
C3934 C3930 1.350 . S
C3934 C3931 1.463 . S
C3934 N3938 1.427 . S
C3935 H3925 0.929 . S
C3935 C3933 1.433 . S
C3935 N3938 1.384 . S
C3936 H3927 0.929 . S
C3936 C3928 1.378 . S
C3936 C3931 1.350 . S
C3937 H3924 0.929 . S
C3937 C3929 1.433 . S
C3937 N3939 1.384 . S
N3938 C3934 1.427 . S
N3938 C3935 1.384 . S
N3939 C3931 1.427 . S
N3939 C3937 1.384 . S
H3940 C3946 0.930 . S
H3941 C3950 0.930 . S
H3942 C3955 0.929 . S
H3943 C3953 0.929 . S
H3944 C3948 0.929 . S
H3945 C3954 0.929 . S
C3946 H3940 0.930 . S
C3946 C3947 1.367 . S
C3946 C3954 1.378 . S
C3947 C3946 1.367 . S
C3947 C3955 1.433 . S
C3948 H3944 0.929 . S
C3948 C3950 1.378 . S
C3948 C3952 1.350 . S
C3949 C3952 1.463 . S
C3949 C3954 1.350 . S
C3949 N3957 1.427 . S
C3950 H3941 0.930 . S
C3950 C3948 1.378 . S
C3950 C3951 1.367 . S
C3951 C3950 1.367 . S
C3951 C3953 1.433 . S
C3952 C3948 1.350 . S
C3952 C3949 1.463 . S
C3952 N3956 1.427 . S
C3953 H3943 0.929 . S
C3953 C3951 1.433 . S
C3953 N3956 1.384 . S
C3954 H3945 0.929 . S
C3954 C3946 1.378 . S
C3954 C3949 1.350 . S
C3955 H3942 0.929 . S
C3955 C3947 1.433 . S
C3955 N3957 1.384 . S
N3956 C3952 1.427 . S
N3956 C3953 1.384 . S
N3957 C3949 1.427 . S
N3957 C3955 1.384 . S
H3958 C3964 0.930 1_556 S
H3959 C3968 0.930 . S
H3960 C3973 0.929 . S
H3961 C3971 0.929 . S
H3962 C3966 0.929 . S
H3963 C3972 0.889 1_556 S
C3964 H3958 0.930 1_554 S
C3964 C3965 1.367 . S
C3964 C3972 1.388 . S
C3965 C3964 1.367 . S
C3965 C3973 1.433 . S
C3966 H3962 0.929 . S
C3966 C3968 1.378 . S
C3966 C3970 1.354 . S
C3967 C3970 1.461 1_565 S
C3967 C3972 1.380 . S
C3967 N3975 1.427 . S
C3968 H3959 0.930 . S
C3968 C3966 1.378 . S
C3968 C3969 1.367 . S
C3969 C3968 1.367 . S
C3969 C3971 1.433 1_554 S
C3970 C3966 1.354 . S
C3970 C3967 1.461 1_545 S
C3970 N3974 1.426 1_544 S
C3971 H3961 0.929 . S
C3971 C3969 1.433 1_556 S
C3971 N3974 1.384 1_545 S
C3972 H3963 0.889 1_554 S
C3972 C3964 1.388 . S
C3972 C3967 1.380 . S
C3973 H3960 0.929 . S
C3973 C3965 1.433 . S
C3973 N3975 1.384 . S
N3974 C3970 1.426 1_566 S
N3974 C3971 1.384 1_565 S
N3975 C3967 1.427 . S
N3975 C3973 1.384 . S
H3976 C3982 0.930 . S
H3977 C3986 0.930 . S
H3978 C3991 0.929 . S
H3979 C3989 0.929 . S
H3980 C3984 0.929 . S
H3981 C3990 0.929 . S
C3982 H3976 0.930 . S
C3982 C3983 1.367 . S
C3982 C3990 1.378 . S
C3983 C3982 1.367 . S
C3983 C3991 1.433 . S
C3984 H3980 0.929 . S
C3984 C3986 1.378 . S
C3984 C3988 1.350 . S
C3985 C3988 1.463 . S
C3985 C3990 1.350 . S
C3985 N3993 1.427 . S
C3986 H3977 0.930 . S
C3986 C3984 1.378 . S
C3986 C3987 1.367 . S
C3987 C3986 1.367 . S
C3987 C3989 1.433 . S
C3988 C3984 1.350 . S
C3988 C3985 1.463 . S
C3988 N3992 1.427 . S
C3989 H3979 0.929 . S
C3989 C3987 1.433 . S
C3989 N3992 1.384 . S
C3990 H3981 0.929 . S
C3990 C3982 1.378 . S
C3990 C3985 1.350 . S
C3991 H3978 0.929 . S
C3991 C3983 1.433 . S
C3991 N3993 1.384 . S
N3992 C3988 1.427 . S
N3992 C3989 1.384 . S
N3993 C3985 1.427 . S
N3993 C3991 1.384 . S
H3994 C4000 0.930 . S
H3995 C4004 0.930 . S
H3996 C4009 0.929 1_556 S
H3997 C4007 0.929 . S
H3998 C4002 0.929 . S
H3999 C4008 0.929 . S
C4000 H3994 0.930 . S
C4000 C4001 1.367 . S
C4000 C4008 1.378 . S
C4001 C4000 1.367 . S
C4001 C4009 1.433 . S
C4002 H3998 0.929 . S
C4002 C4004 1.378 . S
C4002 C4006 1.350 . S
C4003 C4006 1.463 . S
C4003 C4008 1.350 . S
C4003 N4011 1.427 . S
C4004 H3995 0.930 . S
C4004 C4002 1.378 . S
C4004 C4005 1.367 . S
C4005 C4004 1.367 . S
C4005 C4007 1.433 . S
C4006 C4002 1.350 . S
C4006 C4003 1.463 . S
C4006 N4010 1.427 . S
C4007 H3997 0.929 . S
C4007 C4005 1.433 . S
C4007 N4010 1.384 . S
C4008 H3999 0.929 . S
C4008 C4000 1.378 . S
C4008 C4003 1.350 . S
C4009 H3996 0.929 1_554 S
C4009 C4001 1.433 . S
C4009 N4011 1.384 . S
N4010 C4006 1.427 . S
N4010 C4007 1.384 . S
N4011 C4003 1.427 . S
N4011 C4009 1.384 . S
H4012 C4018 0.930 . S
H4013 C4022 0.930 . S
H4014 C4027 0.929 . S
H4015 C4025 0.929 . S
H4016 C4020 0.929 . S
H4017 C4026 0.929 . S
C4018 H4012 0.930 . S
C4018 C4019 1.367 . S
C4018 C4026 1.378 . S
C4019 C4018 1.367 . S
C4019 C4027 1.433 . S
C4020 H4016 0.929 . S
C4020 C4022 1.378 . S
C4020 C4024 1.350 . S
C4021 C4024 1.463 . S
C4021 C4026 1.350 . S
C4021 N4029 1.427 . S
C4022 H4013 0.930 . S
C4022 C4020 1.378 . S
C4022 C4023 1.367 . S
C4023 C4022 1.367 . S
C4023 C4025 1.433 . S
C4024 C4020 1.350 . S
C4024 C4021 1.463 . S
C4024 N4028 1.427 . S
C4025 H4015 0.929 . S
C4025 C4023 1.433 . S
C4025 N4028 1.384 . S
C4026 H4017 0.929 . S
C4026 C4018 1.378 . S
C4026 C4021 1.350 . S
C4027 H4014 0.929 . S
C4027 C4019 1.433 . S
C4027 N4029 1.384 . S
N4028 C4024 1.427 . S
N4028 C4025 1.384 . S
N4029 C4021 1.427 . S
N4029 C4027 1.384 . S
H4030 C4036 0.930 . S
H4031 C4040 0.930 . S
H4032 C4045 0.929 . S
H4033 C4043 0.929 . S
H4034 C4038 0.929 . S
H4035 C4044 0.929 . S
C4036 H4030 0.930 . S
C4036 C4037 1.367 . S
C4036 C4044 1.378 . S
C4037 C4036 1.367 . S
C4037 C4045 1.433 . S
C4038 H4034 0.929 . S
C4038 C4040 1.378 . S
C4038 C4042 1.350 . S
C4039 C4042 1.463 . S
C4039 C4044 1.350 . S
C4039 N4047 1.427 . S
C4040 H4031 0.930 . S
C4040 C4038 1.378 . S
C4040 C4041 1.367 . S
C4041 C4040 1.367 . S
C4041 C4043 1.433 . S
C4042 C4038 1.350 . S
C4042 C4039 1.463 . S
C4042 N4046 1.427 . S
C4043 H4033 0.929 . S
C4043 C4041 1.433 . S
C4043 N4046 1.384 . S
C4044 H4035 0.929 . S
C4044 C4036 1.378 . S
C4044 C4039 1.350 . S
C4045 H4032 0.929 . S
C4045 C4037 1.433 . S
C4045 N4047 1.384 . S
N4046 C4042 1.427 . S
N4046 C4043 1.384 . S
N4047 C4039 1.427 . S
N4047 C4045 1.384 . S
H4048 C4054 0.930 . S
H4049 C4058 0.930 . S
H4050 C4063 0.929 . S
H4051 C4061 0.929 . S
H4052 C4056 0.929 . S
H4053 C4062 0.929 . S
C4054 H4048 0.930 . S
C4054 C4055 1.367 . S
C4054 C4062 1.378 . S
C4055 C4054 1.367 . S
C4055 C4063 1.433 . S
C4056 H4052 0.929 . S
C4056 C4058 1.378 . S
C4056 C4060 1.350 . S
C4057 C4060 1.463 . S
C4057 C4062 1.350 . S
C4057 N4065 1.427 . S
C4058 H4049 0.930 . S
C4058 C4056 1.378 . S
C4058 C4059 1.367 . S
C4059 C4058 1.367 . S
C4059 C4061 1.433 . S
C4060 C4056 1.350 . S
C4060 C4057 1.463 . S
C4060 N4064 1.427 . S
C4061 H4051 0.929 . S
C4061 C4059 1.433 . S
C4061 N4064 1.384 . S
C4062 H4053 0.929 . S
C4062 C4054 1.378 . S
C4062 C4057 1.350 . S
C4063 H4050 0.929 . S
C4063 C4055 1.433 . S
C4063 N4065 1.384 . S
N4064 C4060 1.427 . S
N4064 C4061 1.384 . S
N4065 C4057 1.427 . S
N4065 C4063 1.384 . S
H4066 C4072 0.930 . S
H4067 C4076 0.930 . S
H4068 C4081 0.929 . S
H4069 C4079 0.929 . S
H4070 C4074 0.929 . S
H4071 C4080 0.929 . S
C4072 H4066 0.930 . S
C4072 C4073 1.367 . S
C4072 C4080 1.378 . S
C4073 C4072 1.367 . S
C4073 C4081 1.433 . S
C4074 H4070 0.929 . S
C4074 C4076 1.378 . S
C4074 C4078 1.350 . S
C4075 C4078 1.463 . S
C4075 C4080 1.350 . S
C4075 N4083 1.427 . S
C4076 H4067 0.930 . S
C4076 C4074 1.378 . S
C4076 C4077 1.367 . S
C4077 C4076 1.367 . S
C4077 C4079 1.433 . S
C4078 C4074 1.350 . S
C4078 C4075 1.463 . S
C4078 N4082 1.427 . S
C4079 H4069 0.929 . S
C4079 C4077 1.433 . S
C4079 N4082 1.384 . S
C4080 H4071 0.929 . S
C4080 C4072 1.378 . S
C4080 C4075 1.350 . S
C4081 H4068 0.929 . S
C4081 C4073 1.433 . S
C4081 N4083 1.384 . S
N4082 C4078 1.427 . S
N4082 C4079 1.384 . S
N4083 C4075 1.427 . S
N4083 C4081 1.384 . S
H4084 C4090 0.930 . S
H4085 C4094 0.930 . S
H4086 C4099 0.929 . S
H4087 C4097 0.929 . S
H4088 C4092 0.929 . S
H4089 C4098 0.929 . S
C4090 H4084 0.930 . S
C4090 C4091 1.367 . S
C4090 C4098 1.378 . S
C4091 C4090 1.367 . S
C4091 C4099 1.433 . S
C4092 H4088 0.929 . S
C4092 C4094 1.378 . S
C4092 C4096 1.350 . S
C4093 C4096 1.463 . S
C4093 C4098 1.350 . S
C4093 N4101 1.427 . S
C4094 H4085 0.930 . S
C4094 C4092 1.378 . S
C4094 C4095 1.367 . S
C4095 C4094 1.367 . S
C4095 C4097 1.433 . S
C4096 C4092 1.350 . S
C4096 C4093 1.463 . S
C4096 N4100 1.427 . S
C4097 H4087 0.929 . S
C4097 C4095 1.433 . S
C4097 N4100 1.384 . S
C4098 H4089 0.929 . S
C4098 C4090 1.378 . S
C4098 C4093 1.350 . S
C4099 H4086 0.929 . S
C4099 C4091 1.433 . S
C4099 N4101 1.384 . S
N4100 C4096 1.427 . S
N4100 C4097 1.384 . S
N4101 C4093 1.427 . S
N4101 C4099 1.384 . S
H4102 C4108 0.930 . S
H4103 C4112 0.930 . S
H4104 C4117 0.929 . S
H4105 C4115 0.929 . S
H4106 C4110 0.929 . S
H4107 C4116 0.929 . S
C4108 H4102 0.930 . S
C4108 C4109 1.367 . S
C4108 C4116 1.378 . S
C4109 C4108 1.367 . S
C4109 C4117 1.433 . S
C4110 H4106 0.929 . S
C4110 C4112 1.378 . S
C4110 C4114 1.350 . S
C4111 C4114 1.463 . S
C4111 C4116 1.350 . S
C4111 N4119 1.427 . S
C4112 H4103 0.930 . S
C4112 C4110 1.378 . S
C4112 C4113 1.367 . S
C4113 C4112 1.367 . S
C4113 C4115 1.433 . S
C4114 C4110 1.350 . S
C4114 C4111 1.463 . S
C4114 N4118 1.427 . S
C4115 H4105 0.929 . S
C4115 C4113 1.433 . S
C4115 N4118 1.384 . S
C4116 H4107 0.929 . S
C4116 C4108 1.378 . S
C4116 C4111 1.350 . S
C4117 H4104 0.929 . S
C4117 C4109 1.433 . S
C4117 N4119 1.384 . S
N4118 C4114 1.427 . S
N4118 C4115 1.384 . S
N4119 C4111 1.427 . S
N4119 C4117 1.384 . S
H4120 C4126 0.930 . S
H4121 C4130 0.930 . S
H4122 C4135 0.929 . S
H4123 C4133 0.929 . S
H4124 C4128 0.929 . S
H4125 C4134 0.929 . S
C4126 H4120 0.930 . S
C4126 C4127 1.367 . S
C4126 C4134 1.378 . S
C4127 C4126 1.367 . S
C4127 C4135 1.433 . S
C4128 H4124 0.929 . S
C4128 C4130 1.378 . S
C4128 C4132 1.350 . S
C4129 C4132 1.463 . S
C4129 C4134 1.350 . S
C4129 N4137 1.427 . S
C4130 H4121 0.930 . S
C4130 C4128 1.378 . S
C4130 C4131 1.367 . S
C4131 C4130 1.367 . S
C4131 C4133 1.433 . S
C4132 C4128 1.350 . S
C4132 C4129 1.463 . S
C4132 N4136 1.427 . S
C4133 H4123 0.929 . S
C4133 C4131 1.433 . S
C4133 N4136 1.384 . S
C4134 H4125 0.929 . S
C4134 C4126 1.378 . S
C4134 C4129 1.350 . S
C4135 H4122 0.929 . S
C4135 C4127 1.433 . S
C4135 N4137 1.384 . S
N4136 C4132 1.427 . S
N4136 C4133 1.384 . S
N4137 C4129 1.427 . S
N4137 C4135 1.384 . S
H4138 C4144 0.930 . S
H4139 C4148 0.930 . S
H4140 C4153 0.929 . S
H4141 C4151 0.929 . S
H4142 C4146 0.929 . S
H4143 C4152 0.929 . S
C4144 H4138 0.930 . S
C4144 C4145 1.367 . S
C4144 C4152 1.378 . S
C4145 C4144 1.367 . S
C4145 C4153 1.433 . S
C4146 H4142 0.929 . S
C4146 C4148 1.378 . S
C4146 C4150 1.350 . S
C4147 C4150 1.463 . S
C4147 C4152 1.350 . S
C4147 N4155 1.427 . S
C4148 H4139 0.930 . S
C4148 C4146 1.378 . S
C4148 C4149 1.367 . S
C4149 C4148 1.367 . S
C4149 C4151 1.433 . S
C4150 C4146 1.350 . S
C4150 C4147 1.463 . S
C4150 N4154 1.427 . S
C4151 H4141 0.929 . S
C4151 C4149 1.433 . S
C4151 N4154 1.384 . S
C4152 H4143 0.929 . S
C4152 C4144 1.378 . S
C4152 C4147 1.350 . S
C4153 H4140 0.929 . S
C4153 C4145 1.433 . S
C4153 N4155 1.384 . S
N4154 C4150 1.427 . S
N4154 C4151 1.384 . S
N4155 C4147 1.427 . S
N4155 C4153 1.384 . S
H4156 C4162 0.930 . S
H4157 C4166 0.930 . S
H4158 C4171 0.929 . S
H4159 C4169 0.929 . S
H4160 C4164 0.929 . S
H4161 C4170 0.929 . S
C4162 H4156 0.930 . S
C4162 C4163 1.367 . S
C4162 C4170 1.378 . S
C4163 C4162 1.367 . S
C4163 C4171 1.433 . S
C4164 H4160 0.929 . S
C4164 C4166 1.378 . S
C4164 C4168 1.350 . S
C4165 C4168 1.463 . S
C4165 C4170 1.350 . S
C4165 N4173 1.427 . S
C4166 H4157 0.930 . S
C4166 C4164 1.378 . S
C4166 C4167 1.367 . S
C4167 C4166 1.367 . S
C4167 C4169 1.433 . S
C4168 C4164 1.350 . S
C4168 C4165 1.463 . S
C4168 N4172 1.427 . S
C4169 H4159 0.929 . S
C4169 C4167 1.433 . S
C4169 N4172 1.384 . S
C4170 H4161 0.929 . S
C4170 C4162 1.378 . S
C4170 C4165 1.350 . S
C4171 H4158 0.929 . S
C4171 C4163 1.433 . S
C4171 N4173 1.384 . S
N4172 C4168 1.427 . S
N4172 C4169 1.384 . S
N4173 C4165 1.427 . S
N4173 C4171 1.384 . S
H4174 C4180 0.930 . S
H4175 C4184 0.930 . S
H4176 C4189 0.929 . S
H4177 C4187 0.929 . S
H4178 C4182 0.929 . S
H4179 C4188 0.929 . S
C4180 H4174 0.930 . S
C4180 C4181 1.367 . S
C4180 C4188 1.378 . S
C4181 C4180 1.367 . S
C4181 C4189 1.433 . S
C4182 H4178 0.929 . S
C4182 C4184 1.378 . S
C4182 C4186 1.350 . S
C4183 C4186 1.463 . S
C4183 C4188 1.350 . S
C4183 N4191 1.427 . S
C4184 H4175 0.930 . S
C4184 C4182 1.378 . S
C4184 C4185 1.367 . S
C4185 C4184 1.367 . S
C4185 C4187 1.433 . S
C4186 C4182 1.350 . S
C4186 C4183 1.463 . S
C4186 N4190 1.427 . S
C4187 H4177 0.929 . S
C4187 C4185 1.433 . S
C4187 N4190 1.384 . S
C4188 H4179 0.929 . S
C4188 C4180 1.378 . S
C4188 C4183 1.350 . S
C4189 H4176 0.929 . S
C4189 C4181 1.433 . S
C4189 N4191 1.384 . S
N4190 C4186 1.427 . S
N4190 C4187 1.384 . S
N4191 C4183 1.427 . S
N4191 C4189 1.384 . S
H4192 C4198 0.930 . S
H4193 C4202 0.930 . S
H4194 C4207 0.929 . S
H4195 C4205 0.929 . S
H4196 C4200 0.929 . S
H4197 C4206 0.929 . S
C4198 H4192 0.930 . S
C4198 C4199 1.367 . S
C4198 C4206 1.378 . S
C4199 C4198 1.367 . S
C4199 C4207 1.433 . S
C4200 H4196 0.929 . S
C4200 C4202 1.378 . S
C4200 C4204 1.350 . S
C4201 C4204 1.463 . S
C4201 C4206 1.350 . S
C4201 N4209 1.427 . S
C4202 H4193 0.930 . S
C4202 C4200 1.378 . S
C4202 C4203 1.367 . S
C4203 C4202 1.367 . S
C4203 C4205 1.433 . S
C4204 C4200 1.350 . S
C4204 C4201 1.463 . S
C4204 N4208 1.427 . S
C4205 H4195 0.929 . S
C4205 C4203 1.433 . S
C4205 N4208 1.384 . S
C4206 H4197 0.929 . S
C4206 C4198 1.378 . S
C4206 C4201 1.350 . S
C4207 H4194 0.929 . S
C4207 C4199 1.433 . S
C4207 N4209 1.384 . S
N4208 C4204 1.427 . S
N4208 C4205 1.384 . S
N4209 C4201 1.427 . S
N4209 C4207 1.384 . S
H4210 C4216 0.930 . S
H4211 C4220 0.930 . S
H4212 C4225 0.929 . S
H4213 C4223 0.929 . S
H4214 C4218 0.929 . S
H4215 C4224 0.929 . S
C4216 H4210 0.930 . S
C4216 C4217 1.367 . S
C4216 C4224 1.378 . S
C4217 C4216 1.367 . S
C4217 C4225 1.433 . S
C4218 H4214 0.929 . S
C4218 C4220 1.378 . S
C4218 C4222 1.350 . S
C4219 C4222 1.463 . S
C4219 C4224 1.350 . S
C4219 N4227 1.427 . S
C4220 H4211 0.930 . S
C4220 C4218 1.378 . S
C4220 C4221 1.367 . S
C4221 C4220 1.367 . S
C4221 C4223 1.433 . S
C4222 C4218 1.350 . S
C4222 C4219 1.463 . S
C4222 N4226 1.427 . S
C4223 H4213 0.929 . S
C4223 C4221 1.433 . S
C4223 N4226 1.384 . S
C4224 H4215 0.929 . S
C4224 C4216 1.378 . S
C4224 C4219 1.350 . S
C4225 H4212 0.929 . S
C4225 C4217 1.433 . S
C4225 N4227 1.384 . S
N4226 C4222 1.427 . S
N4226 C4223 1.384 . S
N4227 C4219 1.427 . S
N4227 C4225 1.384 . S
H4228 C4234 0.930 . S
H4229 C4238 0.930 . S
H4230 C4243 0.929 1_455 S
H4231 C4241 0.929 1_655 S
H4232 C4236 0.929 . S
H4233 C4242 0.929 . S
C4234 H4228 0.930 . S
C4234 C4235 1.367 . S
C4234 C4242 1.378 . S
C4235 C4234 1.367 . S
C4235 C4243 1.433 . S
C4236 H4232 0.929 . S
C4236 C4238 1.378 . S
C4236 C4240 1.350 . S
C4237 C4240 1.463 1_655 S
C4237 C4242 1.350 . S
C4237 N4245 1.427 1_655 S
C4238 H4229 0.930 . S
C4238 C4236 1.378 . S
C4238 C4239 1.367 . S
C4239 C4238 1.367 . S
C4239 C4241 1.433 . S
C4240 C4236 1.350 . S
C4240 C4237 1.463 1_455 S
C4240 N4244 1.427 1_455 S
C4241 H4231 0.929 1_455 S
C4241 C4239 1.433 . S
C4241 N4244 1.384 1_455 S
C4242 H4233 0.929 . S
C4242 C4234 1.378 . S
C4242 C4237 1.350 . S
C4243 H4230 0.929 1_655 S
C4243 C4235 1.433 . S
C4243 N4245 1.384 1_655 S
N4244 C4240 1.427 1_655 S
N4244 C4241 1.384 1_655 S
N4245 C4237 1.427 1_455 S
N4245 C4243 1.384 1_455 S
H4246 C4252 0.930 . S
H4247 C4256 0.930 . S
H4248 C4261 0.929 . S
H4249 C4259 0.929 . S
H4250 C4254 0.929 . S
H4251 C4260 0.929 . S
C4252 H4246 0.930 . S
C4252 C4253 1.367 . S
C4252 C4260 1.378 . S
C4253 C4252 1.367 . S
C4253 C4261 1.433 . S
C4254 H4250 0.929 . S
C4254 C4256 1.378 . S
C4254 C4258 1.350 . S
C4255 C4258 1.463 . S
C4255 C4260 1.350 . S
C4255 N4263 1.427 . S
C4256 H4247 0.930 . S
C4256 C4254 1.378 . S
C4256 C4257 1.367 . S
C4257 C4256 1.367 . S
C4257 C4259 1.433 . S
C4258 C4254 1.350 . S
C4258 C4255 1.463 . S
C4258 N4262 1.427 . S
C4259 H4249 0.929 . S
C4259 C4257 1.433 . S
C4259 N4262 1.384 . S
C4260 H4251 0.929 . S
C4260 C4252 1.378 . S
C4260 C4255 1.350 . S
C4261 H4248 0.929 . S
C4261 C4253 1.433 . S
C4261 N4263 1.384 . S
N4262 C4258 1.427 . S
N4262 C4259 1.384 . S
N4263 C4255 1.427 . S
N4263 C4261 1.384 . S
H4264 C4270 0.930 . S
H4265 C4274 0.930 . S
H4266 C4279 0.929 . S
H4267 C4277 0.929 . S
H4268 C4272 0.929 . S
H4269 C4278 0.929 . S
C4270 H4264 0.930 . S
C4270 C4271 1.367 . S
C4270 C4278 1.378 . S
C4271 C4270 1.367 . S
C4271 C4279 1.433 . S
C4272 H4268 0.929 . S
C4272 C4274 1.378 . S
C4272 C4276 1.350 . S
C4273 C4276 1.463 . S
C4273 C4278 1.350 . S
C4273 N4281 1.427 . S
C4274 H4265 0.930 . S
C4274 C4272 1.378 . S
C4274 C4275 1.367 . S
C4275 C4274 1.367 . S
C4275 C4277 1.433 . S
C4276 C4272 1.350 . S
C4276 C4273 1.463 . S
C4276 N4280 1.427 . S
C4277 H4267 0.929 . S
C4277 C4275 1.433 . S
C4277 N4280 1.384 . S
C4278 H4269 0.929 . S
C4278 C4270 1.378 . S
C4278 C4273 1.350 . S
C4279 H4266 0.929 . S
C4279 C4271 1.433 . S
C4279 N4281 1.384 . S
N4280 C4276 1.427 . S
N4280 C4277 1.384 . S
N4281 C4273 1.427 . S
N4281 C4279 1.384 . S
H4282 C4288 0.930 . S
H4283 C4292 0.930 . S
H4284 C4297 0.929 . S
H4285 C4295 0.929 . S
H4286 C4290 0.929 . S
H4287 C4296 0.929 . S
C4288 H4282 0.930 . S
C4288 C4289 1.367 . S
C4288 C4296 1.378 . S
C4289 C4288 1.367 . S
C4289 C4297 1.433 . S
C4290 H4286 0.929 . S
C4290 C4292 1.378 . S
C4290 C4294 1.350 . S
C4291 C4294 1.463 . S
C4291 C4296 1.350 . S
C4291 N4299 1.427 . S
C4292 H4283 0.930 . S
C4292 C4290 1.378 . S
C4292 C4293 1.367 . S
C4293 C4292 1.367 . S
C4293 C4295 1.433 . S
C4294 C4290 1.350 . S
C4294 C4291 1.463 . S
C4294 N4298 1.427 . S
C4295 H4285 0.929 . S
C4295 C4293 1.433 . S
C4295 N4298 1.384 . S
C4296 H4287 0.929 . S
C4296 C4288 1.378 . S
C4296 C4291 1.350 . S
C4297 H4284 0.929 . S
C4297 C4289 1.433 . S
C4297 N4299 1.384 . S
N4298 C4294 1.427 . S
N4298 C4295 1.384 . S
N4299 C4291 1.427 . S
N4299 C4297 1.384 . S
H4300 C4306 0.930 . S
H4301 C4310 0.930 . S
H4302 C4315 0.929 . S
H4303 C4313 0.929 1_455 S
H4304 C4308 0.929 . S
H4305 C4314 0.929 . S
C4306 H4300 0.930 . S
C4306 C4307 1.367 . S
C4306 C4314 1.378 . S
C4307 C4306 1.367 . S
C4307 C4315 1.433 . S
C4308 H4304 0.929 . S
C4308 C4310 1.378 . S
C4308 C4312 1.350 . S
C4309 C4312 1.463 . S
C4309 C4314 1.350 . S
C4309 N4317 1.427 . S
C4310 H4301 0.930 . S
C4310 C4308 1.378 . S
C4310 C4311 1.367 . S
C4311 C4310 1.367 . S
C4311 C4313 1.433 . S
C4312 C4308 1.350 . S
C4312 C4309 1.463 . S
C4312 N4316 1.427 . S
C4313 H4303 0.929 1_655 S
C4313 C4311 1.433 . S
C4313 N4316 1.384 . S
C4314 H4305 0.929 . S
C4314 C4306 1.378 . S
C4314 C4309 1.350 . S
C4315 H4302 0.929 . S
C4315 C4307 1.433 . S
C4315 N4317 1.384 . S
N4316 C4312 1.427 . S
N4316 C4313 1.384 . S
N4317 C4309 1.427 . S
N4317 C4315 1.384 . S
H4318 C4324 0.930 . S
H4319 C4328 0.930 . S
H4320 C4333 0.929 . S
H4321 C4331 0.929 . S
H4322 C4326 0.929 . S
H4323 C4332 0.929 . S
C4324 H4318 0.930 . S
C4324 C4325 1.367 . S
C4324 C4332 1.378 . S
C4325 C4324 1.367 . S
C4325 C4333 1.433 . S
C4326 H4322 0.929 . S
C4326 C4328 1.378 . S
C4326 C4330 1.350 . S
C4327 C4330 1.463 . S
C4327 C4332 1.350 . S
C4327 N4335 1.427 . S
C4328 H4319 0.930 . S
C4328 C4326 1.378 . S
C4328 C4329 1.367 . S
C4329 C4328 1.367 . S
C4329 C4331 1.433 . S
C4330 C4326 1.350 . S
C4330 C4327 1.463 . S
C4330 N4334 1.427 . S
C4331 H4321 0.929 . S
C4331 C4329 1.433 . S
C4331 N4334 1.384 . S
C4332 H4323 0.929 . S
C4332 C4324 1.378 . S
C4332 C4327 1.350 . S
C4333 H4320 0.929 . S
C4333 C4325 1.433 . S
C4333 N4335 1.384 . S
N4334 C4330 1.427 . S
N4334 C4331 1.384 . S
N4335 C4327 1.427 . S
N4335 C4333 1.384 . S
H4336 C4342 0.930 . S
H4337 C4346 0.930 . S
H4338 C4351 0.929 . S
H4339 C4349 0.929 . S
H4340 C4344 0.929 . S
H4341 C4350 0.929 . S
C4342 H4336 0.930 . S
C4342 C4343 1.367 . S
C4342 C4350 1.378 . S
C4343 C4342 1.367 . S
C4343 C4351 1.433 . S
C4344 H4340 0.929 . S
C4344 C4346 1.378 . S
C4344 C4348 1.350 . S
C4345 C4348 1.463 . S
C4345 C4350 1.350 . S
C4345 N4353 1.427 . S
C4346 H4337 0.930 . S
C4346 C4344 1.378 . S
C4346 C4347 1.367 . S
C4347 C4346 1.367 . S
C4347 C4349 1.433 . S
C4348 C4344 1.350 . S
C4348 C4345 1.463 . S
C4348 N4352 1.427 . S
C4349 H4339 0.929 . S
C4349 C4347 1.433 . S
C4349 N4352 1.384 . S
C4350 H4341 0.929 . S
C4350 C4342 1.378 . S
C4350 C4345 1.350 . S
C4351 H4338 0.929 . S
C4351 C4343 1.433 . S
C4351 N4353 1.384 . S
N4352 C4348 1.427 . S
N4352 C4349 1.384 . S
N4353 C4345 1.427 . S
N4353 C4351 1.384 . S
H4354 C4360 0.930 . S
H4355 C4364 0.930 . S
H4356 C4369 0.929 . S
H4357 C4367 0.929 . S
H4358 C4362 0.929 . S
H4359 C4368 0.929 . S
C4360 H4354 0.930 . S
C4360 C4361 1.367 . S
C4360 C4368 1.378 . S
C4361 C4360 1.367 . S
C4361 C4369 1.433 . S
C4362 H4358 0.929 . S
C4362 C4364 1.378 . S
C4362 C4366 1.350 . S
C4363 C4366 1.463 . S
C4363 C4368 1.350 . S
C4363 N4371 1.427 . S
C4364 H4355 0.930 . S
C4364 C4362 1.378 . S
C4364 C4365 1.367 1_565 S
C4365 C4364 1.367 1_545 S
C4365 C4367 1.433 . S
C4366 C4362 1.350 . S
C4366 C4363 1.463 . S
C4366 N4370 1.427 . S
C4367 H4357 0.929 . S
C4367 C4365 1.433 . S
C4367 N4370 1.384 1_545 S
C4368 H4359 0.929 . S
C4368 C4360 1.378 . S
C4368 C4363 1.350 . S
C4369 H4356 0.929 . S
C4369 C4361 1.433 . S
C4369 N4371 1.384 . S
N4370 C4366 1.427 . S
N4370 C4367 1.384 1_565 S
N4371 C4363 1.427 . S
N4371 C4369 1.384 . S
H4372 C4378 0.930 . S
H4373 C4382 0.930 . S
H4374 C4387 0.929 . S
H4375 C4385 0.929 . S
H4376 C4380 0.929 . S
H4377 C4386 0.929 . S
C4378 H4372 0.930 . S
C4378 C4379 1.367 . S
C4378 C4386 1.378 . S
C4379 C4378 1.367 . S
C4379 C4387 1.433 . S
C4380 H4376 0.929 . S
C4380 C4382 1.378 . S
C4380 C4384 1.350 . S
C4381 C4384 1.463 . S
C4381 C4386 1.350 . S
C4381 N4389 1.427 . S
C4382 H4373 0.930 . S
C4382 C4380 1.378 . S
C4382 C4383 1.367 . S
C4383 C4382 1.367 . S
C4383 C4385 1.433 . S
C4384 C4380 1.350 . S
C4384 C4381 1.463 . S
C4384 N4388 1.427 . S
C4385 H4375 0.929 . S
C4385 C4383 1.433 . S
C4385 N4388 1.384 . S
C4386 H4377 0.929 . S
C4386 C4378 1.378 . S
C4386 C4381 1.350 . S
C4387 H4374 0.929 . S
C4387 C4379 1.433 . S
C4387 N4389 1.384 . S
N4388 C4384 1.427 . S
N4388 C4385 1.384 . S
N4389 C4381 1.427 . S
N4389 C4387 1.384 . S
H4390 C4396 0.930 . S
H4391 C4400 0.930 . S
H4392 C4405 0.929 . S
H4393 C4403 0.929 . S
H4394 C4398 0.905 1_556 S
H4395 C4404 0.929 . S
C4396 H4390 0.930 . S
C4396 C4397 1.367 1_554 S
C4396 C4404 1.378 . S
C4397 C4396 1.367 1_556 S
C4397 C4405 1.433 . S
C4398 H4394 0.905 1_554 S
C4398 C4400 1.378 . S
C4398 C4402 1.350 . S
C4399 C4402 1.463 . S
C4399 C4404 1.350 . S
C4399 N4407 1.427 1_554 S
C4400 H4391 0.930 . S
C4400 C4398 1.378 . S
C4400 C4401 1.367 . S
C4401 C4400 1.367 . S
C4401 C4403 1.433 . S
C4402 C4398 1.350 . S
C4402 C4399 1.463 . S
C4402 N4406 1.427 . S
C4403 H4393 0.929 . S
C4403 C4401 1.433 . S
C4403 N4406 1.384 . S
C4404 H4395 0.929 . S
C4404 C4396 1.378 . S
C4404 C4399 1.350 . S
C4405 H4392 0.929 . S
C4405 C4397 1.433 . S
C4405 N4407 1.384 . S
N4406 C4402 1.427 . S
N4406 C4403 1.384 . S
N4407 C4399 1.427 1_556 S
N4407 C4405 1.384 . S
H4408 C4414 0.930 . S
H4409 C4418 0.930 . S
H4410 C4423 0.929 . S
H4411 C4421 0.929 . S
H4412 C4416 0.929 . S
H4413 C4422 0.929 . S
C4414 H4408 0.930 . S
C4414 C4415 1.367 . S
C4414 C4422 1.378 . S
C4415 C4414 1.367 . S
C4415 C4423 1.433 . S
C4416 H4412 0.929 . S
C4416 C4418 1.378 . S
C4416 C4420 1.350 . S
C4417 C4420 1.463 . S
C4417 C4422 1.350 . S
C4417 N4425 1.427 . S
C4418 H4409 0.930 . S
C4418 C4416 1.378 . S
C4418 C4419 1.367 . S
C4419 C4418 1.367 . S
C4419 C4421 1.433 . S
C4420 C4416 1.350 . S
C4420 C4417 1.463 . S
C4420 N4424 1.427 . S
C4421 H4411 0.929 . S
C4421 C4419 1.433 . S
C4421 N4424 1.384 . S
C4422 H4413 0.929 . S
C4422 C4414 1.378 . S
C4422 C4417 1.350 . S
C4423 H4410 0.929 . S
C4423 C4415 1.433 . S
C4423 N4425 1.384 . S
N4424 C4420 1.427 . S
N4424 C4421 1.384 . S
N4425 C4417 1.427 . S
N4425 C4423 1.384 . S
H4426 C4432 0.930 . S
H4427 C4436 0.930 . S
H4428 C4441 0.929 . S
H4429 C4439 0.929 . S
H4430 C4434 0.929 . S
H4431 C4440 0.928 1_556 S
C4432 H4426 0.930 . S
C4432 C4433 1.367 . S
C4432 C4440 1.378 . S
C4433 C4432 1.367 . S
C4433 C4441 1.433 . S
C4434 H4430 0.929 . S
C4434 C4436 1.378 . S
C4434 C4438 1.350 . S
C4435 C4438 1.463 1_554 S
C4435 C4440 1.350 . S
C4435 N4443 1.427 . S
C4436 H4427 0.930 . S
C4436 C4434 1.378 . S
C4436 C4437 1.367 . S
C4437 C4436 1.367 . S
C4437 C4439 1.433 . S
C4438 C4434 1.350 . S
C4438 C4435 1.463 1_556 S
C4438 N4442 1.427 . S
C4439 H4429 0.929 . S
C4439 C4437 1.433 . S
C4439 N4442 1.384 . S
C4440 H4431 0.928 1_554 S
C4440 C4432 1.378 . S
C4440 C4435 1.350 . S
C4441 H4428 0.929 . S
C4441 C4433 1.433 . S
C4441 N4443 1.384 . S
N4442 C4438 1.427 . S
N4442 C4439 1.384 . S
N4443 C4435 1.427 . S
N4443 C4441 1.384 . S
H4444 C4450 0.930 . S
H4445 C4454 0.930 . S
H4446 C4459 0.929 . S
H4447 C4457 0.929 . S
H4448 C4452 0.929 . S
H4449 C4458 0.929 . S
C4450 H4444 0.930 . S
C4450 C4451 1.367 . S
C4450 C4458 1.378 . S
C4451 C4450 1.367 . S
C4451 C4459 1.433 . S
C4452 H4448 0.929 . S
C4452 C4454 1.378 . S
C4452 C4456 1.350 . S
C4453 C4456 1.463 . S
C4453 C4458 1.350 . S
C4453 N4461 1.427 . S
C4454 H4445 0.930 . S
C4454 C4452 1.378 . S
C4454 C4455 1.367 . S
C4455 C4454 1.367 . S
C4455 C4457 1.433 . S
C4456 C4452 1.350 . S
C4456 C4453 1.463 . S
C4456 N4460 1.427 . S
C4457 H4447 0.929 . S
C4457 C4455 1.433 . S
C4457 N4460 1.384 . S
C4458 H4449 0.929 . S
C4458 C4450 1.378 . S
C4458 C4453 1.350 . S
C4459 H4446 0.929 . S
C4459 C4451 1.433 . S
C4459 N4461 1.384 . S
N4460 C4456 1.427 . S
N4460 C4457 1.384 . S
N4461 C4453 1.427 . S
N4461 C4459 1.384 . S
H4462 C4468 0.930 . S
H4463 C4472 0.930 . S
H4464 C4477 0.929 . S
H4465 C4475 0.929 . S
H4466 C4470 0.929 . S
H4467 C4476 0.929 . S
C4468 H4462 0.930 . S
C4468 C4469 1.367 . S
C4468 C4476 1.378 . S
C4469 C4468 1.367 . S
C4469 C4477 1.433 . S
C4470 H4466 0.929 . S
C4470 C4472 1.378 . S
C4470 C4474 1.350 . S
C4471 C4474 1.463 . S
C4471 C4476 1.350 . S
C4471 N4479 1.427 . S
C4472 H4463 0.930 . S
C4472 C4470 1.378 . S
C4472 C4473 1.367 . S
C4473 C4472 1.367 . S
C4473 C4475 1.433 . S
C4474 C4470 1.350 . S
C4474 C4471 1.463 . S
C4474 N4478 1.427 . S
C4475 H4465 0.929 . S
C4475 C4473 1.433 . S
C4475 N4478 1.384 . S
C4476 H4467 0.929 . S
C4476 C4468 1.378 . S
C4476 C4471 1.350 . S
C4477 H4464 0.929 . S
C4477 C4469 1.433 . S
C4477 N4479 1.384 . S
N4478 C4474 1.427 . S
N4478 C4475 1.384 . S
N4479 C4471 1.427 . S
N4479 C4477 1.384 . S
C2759 C665 2.232 . S
C2763 C2122 2.237 1_556 S
C2777 C381 2.034 . S
C2781 C2170 2.029 . S
C2795 C460 1.120 . S
C2799 C2202 1.125 . S
C2817 C2247 1.368 . S
C2813 C585 1.382 . S
C2831 C108 1.263 . S
C2835 C2287 1.226 . S
C2853 C2318 0.264 . S
C2849 C196 0.322 . S
C2871 C2370 1.290 . S
C2867 C313 1.283 . S
C2885 C49 1.703 . S
C2889 C2402 1.660 . S
C2907 C2130 2.408 . S
C2903 C1457 2.435 . S
C2921 C1545 0.308 . S
C2925 C2167 0.432 . S
C2943 C2210 1.305 . S
C2939 C1721 1.325 . S
C2961 C2242 1.378 . S
C2957 C1113 1.327 . S
C2975 C1428 1.865 . S
C2979 C2282 1.902 . S
C2997 C2321 1.417 . S
C2993 C1516 1.443 . S
C3015 C2367 0.385 . S
C3011 C1692 0.256 . S
C3033 C2410 2.021 . S
C3029 C1085 2.049 . S
C3051 C2127 1.452 1_565 S
C3047 C988 1.472 . S
C3065 C1817 1.936 . S
C3069 C2450 1.925 . S
C3087 C2491 2.511 . S
C3083 C2081 2.586 . S
C3105 C2522 0.569 1_655 S
C3101 C1993 0.607 . S
C3119 C761 1.390 . S
C3123 C2407 1.362 . S
C3137 C821 1.508 . S
C3141 C2207 1.481 . S
C3155 C2053 2.278 . S
C3159 C2570 2.244 . S
C3177 C2602 0.403 . S
C3173 C1868 0.296 . S
C3195 C2131 2.237 . S
C3191 C372 2.230 . S
C3213 C2601 2.027 . S
C3209 C645 2.026 . S
C3227 C577 1.114 . S
C3231 C2211 1.122 . S
C3245 C497 1.374 . S
C3249 C2558 1.356 . S
C3267 C2278 1.235 . S
C3263 C57 1.269 . S
C3281 C293 0.326 . S
C3285 C2487 0.257 . S
C3303 C2361 1.280 1_556 S
C3299 C205 1.274 . S
C3321 C2651 1.654 . S
C3317 C145 1.708 . S
C3339 C2121 2.404 . S
C3335 C909 2.429 1_545 S
C3357 C2598 0.423 . S
C3353 C1956 0.290 . S
C3371 C724 1.317 . S
C3375 C2201 1.293 . S
C3389 C1780 1.324 . S
C3393 C2571 1.371 . S
C3407 C937 1.872 . S
C3411 C2291 1.890 . S
C3429 C2490 1.410 . S
C3425 C1985 1.441 . S
C3443 C753 0.189 . S
C3447 C2358 0.337 . S
C3461 C1809 2.046 . S
C3465 C2641 2.018 . S
C3479 C1173 1.472 . S
C3483 C2118 1.447 . S
C3497 C1105 1.928 . S
C3501 C2441 1.918 . S
C3515 C1633 2.583 . S
C3519 C2322 2.508 . S
C3533 C1553 0.581 . S
C3537 C2531 0.569 . S
C3555 C2638 1.343 . S
C3551 C1729 1.380 . S
C3569 C1340 1.510 . S
C3573 C2198 1.479 . S
C3591 C2241 2.236 . S
C3587 C1604 2.272 . S
C3609 C2171 0.385 . S
C3605 C1252 0.293 . S
C3623 C489 2.234 . S
C3627 C2682 2.236 . S
C3645 C2610 2.031 . S
C3641 C557 2.033 . S
C3659 C636 1.119 . S
C3663 C2722 1.127 1_556 S
C3677 C409 1.378 . S
C3681 C2567 1.360 . S
C3695 C284 1.266 . S
C3699 C2447 1.231 . S
C3717 C2478 0.255 . S
C3713 C20 0.348 . S
C3735 C2530 1.295 . S
C3731 C137 1.279 . S
C3753 C2642 1.664 . S
C3749 C225 1.704 . S
C3771 C2690 2.408 . S
C3767 C1641 2.434 . S
C3785 C1193 0.297 . S
C3789 C2607 0.433 . S
C3807 C2730 1.303 . S
C3803 C1289 1.323 . S
C3825 C2562 1.379 . S
C3821 C1377 1.330 . S
C3843 C2442 1.898 . S
C3839 C1613 1.862 . S
C3857 C1164 1.446 . S
C3861 C2481 1.413 . S
C3879 C2527 0.382 . S
C3875 C1261 0.255 . S
C3893 C1349 2.054 . S
C3897 C2650 2.029 . S
C3915 C2687 1.447 . S
C3911 C1965 1.471 . S
C3929 C849 1.937 . S
C3933 C2290 1.922 . S
C3951 C2331 2.505 . S
C3947 C929 2.586 . S
C3969 C2362 0.580 . S
C3965 C1017 0.584 . S
C3987 C2647 1.348 . S
C3983 C1897 1.381 . S
C4001 C1789 1.510 . S
C4005 C2727 1.484 . S
C4023 C2250 2.241 . S
C4019 C900 2.277 . S
C4041 C2162 0.399 . S
C4037 C733 0.312 . S
C4055 C548 2.230 . S
C4059 C2691 2.237 . S
C4077 C2161 2.030 . S
C4073 C469 2.032 . S
C4091 C401 1.112 . S
C4095 C2731 1.124 . S
C4109 C673 1.379 . S
C4113 C2238 1.367 . S
C4127 C233 1.262 . S
C4131 C2438 1.220 . S
C4149 C2327 0.241 . S
C4145 C117 0.317 . S
C4163 C29 1.263 . S
C4167 C2521 1.285 . S
C4181 C321 1.703 . S
C4185 C2411 1.664 . S
C4203 C2681 2.409 . S
C4199 C2044 2.431 . S
C4217 C997 0.285 . S
C4221 C2158 0.432 . S
C4239 C2721 1.294 . S
C4235 C1877 1.316 . S
C4253 C812 1.336 . S
C4257 C2251 1.367 . S
C4271 C2073 1.864 . S
C4275 C2451 1.892 . S
C4293 C2330 1.421 . S
C4289 C1025 1.444 . S
C4307 C1905 0.222 . S
C4311 C2518 0.351 . S
C4329 C2401 2.022 . S
C4325 C841 2.049 . S
C4347 C2678 1.448 . S
C4343 C1525 1.472 . S
C4365 C2281 1.921 1_655 S
C4361 C1369 1.933 . S
C4379 C1465 2.583 . S
C4383 C2482 2.503 . S
C4401 C2371 0.563 . S
C4397 C1201 0.595 . S
C4415 C1281 1.381 . S
C4419 C2398 1.345 . S
C4433 C1076 1.512 . S
C4437 C2718 1.484 . S
C4455 C2561 2.236 . S
C4451 C1437 2.272 . S
C4473 C2611 0.420 . S
C4469 C1701 0.288 . S
