# Generated by pormake.
# Topology zzz, (3,6)-cn, num edge types: 1
# Building blocks:
#     Node 0, Type 0, BuildingBlock: WUSLED_clean_sbu_0, # of connection points: 3
#     Node 1, Type 0, BuildingBlock: WUSLED_clean_sbu_0, # of connection points: 3
#     Node 2, Type 0, BuildingBlock: WUSLED_clean_sbu_0, # of connection points: 3
#     Node 3, Type 0, BuildingBlock: WUSLED_clean_sbu_0, # of connection points: 3
#     Node 4, Type 0, BuildingBlock: WUSLED_clean_sbu_0, # of connection points: 3
#     Node 5, Type 0, BuildingBlock: WUSLED_clean_sbu_0, # of connection points: 3
#     Node 6, Type 0, BuildingBlock: WUSLED_clean_sbu_0, # of connection points: 3
#     Node 7, Type 0, BuildingBlock: WUSLED_clean_sbu_0, # of connection points: 3
#     Node 8, Type 1, BuildingBlock: KUMBUR_clean_sbu_1, # of connection points: 6
#     Node 9, Type 1, BuildingBlock: KUMBUR_clean_sbu_1, # of connection points: 6
#     Node 10, Type 1, BuildingBlock: KUMBUR_clean_sbu_1, # of connection points: 6
#     Node 11, Type 1, BuildingBlock: KUMBUR_clean_sbu_1, # of connection points: 6
#     Edge 12, Type (0, 1), BuildingBlock: CIFDUS_clean_linker_0, # of connection points: 2
#     Edge 13, Type (0, 1), BuildingBlock: CIFDUS_clean_linker_0, # of connection points: 2
#     Edge 14, Type (0, 1), BuildingBlock: CIFDUS_clean_linker_0, # of connection points: 2
#     Edge 15, Type (0, 1), BuildingBlock: CIFDUS_clean_linker_0, # of connection points: 2
#     Edge 16, Type (0, 1), BuildingBlock: CIFDUS_clean_linker_0, # of connection points: 2
#     Edge 17, Type (0, 1), BuildingBlock: CIFDUS_clean_linker_0, # of connection points: 2
#     Edge 18, Type (0, 1), BuildingBlock: CIFDUS_clean_linker_0, # of connection points: 2
#     Edge 19, Type (0, 1), BuildingBlock: CIFDUS_clean_linker_0, # of connection points: 2
#     Edge 20, Type (0, 1), BuildingBlock: CIFDUS_clean_linker_0, # of connection points: 2
#     Edge 21, Type (0, 1), BuildingBlock: CIFDUS_clean_linker_0, # of connection points: 2
#     Edge 22, Type (0, 1), BuildingBlock: CIFDUS_clean_linker_0, # of connection points: 2
#     Edge 23, Type (0, 1), BuildingBlock: CIFDUS_clean_linker_0, # of connection points: 2
#     Edge 24, Type (0, 1), BuildingBlock: CIFDUS_clean_linker_0, # of connection points: 2
#     Edge 25, Type (0, 1), BuildingBlock: CIFDUS_clean_linker_0, # of connection points: 2
#     Edge 26, Type (0, 1), BuildingBlock: CIFDUS_clean_linker_0, # of connection points: 2
#     Edge 27, Type (0, 1), BuildingBlock: CIFDUS_clean_linker_0, # of connection points: 2
#     Edge 28, Type (0, 1), BuildingBlock: CIFDUS_clean_linker_0, # of connection points: 2
#     Edge 29, Type (0, 1), BuildingBlock: CIFDUS_clean_linker_0, # of connection points: 2
#     Edge 30, Type (0, 1), BuildingBlock: CIFDUS_clean_linker_0, # of connection points: 2
#     Edge 31, Type (0, 1), BuildingBlock: CIFDUS_clean_linker_0, # of connection points: 2
#     Edge 32, Type (0, 1), BuildingBlock: CIFDUS_clean_linker_0, # of connection points: 2
#     Edge 33, Type (0, 1), BuildingBlock: CIFDUS_clean_linker_0, # of connection points: 2
#     Edge 34, Type (0, 1), BuildingBlock: CIFDUS_clean_linker_0, # of connection points: 2
#     Edge 35, Type (0, 1), BuildingBlock: CIFDUS_clean_linker_0, # of connection points: 2
# Relax obj value: 0.300
# Max RMSD: 0.199
# Mean RMSD: 0.175
data_MOF--net-zzz--node1-WUSLED_clean_sbu_0--node2-KUMBUR_clean_sbu_1--edge1-CIFDUS_clean_linker_0
_symmetry_space_group_name_H-M    P1
_symmetry_Int_Tables_number       1
_symmetry_cell_setting            triclinic
loop_
_symmetry_equiv_pos_as_xyz
'x, y, z'
_cell_length_a     54.833563
_cell_length_b     54.815242
_cell_length_c     20.127829
_cell_angle_alpha  89.785257
_cell_angle_beta   90.044131
_cell_angle_gamma 90.653385
loop_
_atom_site_label
_atom_site_type_symbol
_atom_site_fract_x
_atom_site_fract_y
_atom_site_fract_z
_atom_type_partial_charge
C0 C 0.80065 0.54513 0.35929 0.0
C1 C 0.818 0.52683 0.34772 0.0
C2 C 0.84836 0.5474 0.41864 0.0
C3 C 0.8414 0.52796 0.3767 0.0
C4 C 0.83113 0.56595 0.4292 0.0
C5 C 0.80769 0.56478 0.40035 0.0
U6 U 0.74648 0.55367 0.23299 0.0
O7 O 0.71906 0.52569 0.20762 0.0
O8 O 0.7069 0.56106 0.24401 0.0
C9 C 0.7005 0.54031 0.21576 0.0
C10 C 0.77474 0.54222 0.33507 0.0
C11 C 0.68274 0.54126 0.1591 0.0
C12 C 0.64092 0.54608 0.11796 0.0
C13 C 0.65823 0.54756 0.1698 0.0
C14 C 0.67234 0.53242 0.04327 0.0
C15 C 0.64764 0.53794 0.05424 0.0
C16 C 0.68961 0.53417 0.09463 0.0
C17 C 0.79302 0.58359 0.12007 0.0
C18 C 0.8231 0.58548 0.0325 0.0
C19 C 0.83525 0.57492 0.14474 0.0
C20 C 0.81134 0.57819 0.16631 0.0
C21 C 0.84087 0.57668 0.0767 0.0
C22 C 0.79924 0.58884 0.05417 0.0
C23 C 0.76772 0.57717 0.13501 0.0
O24 O 0.76084 0.56167 0.33361 0.0
O25 O 0.77092 0.52784 0.28387 0.0
O26 O 0.76373 0.55351 0.1352 0.0
O27 O 0.75755 0.58839 0.18533 0.0
H28 H 0.81335 0.51122 0.31722 0.0
H29 H 0.85404 0.51345 0.36622 0.0
H30 H 0.83544 0.58111 0.46165 0.0
H31 H 0.79486 0.57904 0.41169 0.0
H32 H 0.62209 0.5504 0.12846 0.0
H33 H 0.65229 0.55302 0.2188 0.0
H34 H 0.67833 0.52644 0.99478 0.0
H35 H 0.70832 0.52937 0.08408 0.0
H36 H 0.82679 0.58698 0.97978 0.0
H37 H 0.84871 0.56857 0.18003 0.0
H38 H 0.80673 0.57401 0.21749 0.0
H39 H 0.78522 0.59291 1.01794 0.0
C40 C 0.0172 0.80571 0.36678 0.0
C41 C 0.99835 0.82277 0.35862 0.0
C42 C 0.01966 0.85259 0.4307 0.0
C43 C 0.99959 0.84589 0.39002 0.0
C44 C 0.0381 0.83508 0.43934 0.0
C45 C 0.03692 0.81225 0.40785 0.0
U46 U 1.00109 0.75397 0.23468 0.0
O47 O 0.99406 0.71421 0.24599 0.0
O48 O 0.02767 0.72721 0.19872 0.0
C49 C 1.01387 0.70821 0.21317 0.0
C50 C 0.01711 0.78081 0.33565 0.0
C51 C 1.0118 0.68927 0.15984 0.0
C52 C 0.02878 0.65289 0.10794 0.0
C53 C 0.0283 0.66985 0.16012 0.0
C54 C 0.99548 0.67365 0.0543 0.0
C55 C 1.01267 0.65465 0.05358 0.0
C56 C 0.99518 0.69088 0.10655 0.0
C57 C 0.96739 0.80057 0.13003 0.0
C58 C 0.95572 0.82799 0.04137 0.0
C59 C 0.98176 0.84244 0.13066 0.0
C60 C 0.97978 0.81976 0.16186 0.0
C61 C 0.97126 0.84599 0.06781 0.0
C62 C 0.95389 0.80521 0.07235 0.0
C63 C 0.97427 0.77544 0.14455 0.0
O64 O 0.99692 0.7676 0.33758 0.0
O65 O 0.02908 0.77824 0.27961 0.0
O66 O 0.99775 0.77173 0.13801 0.0
O67 O 0.96488 0.76517 0.19796 0.0
H68 H 0.98272 0.81828 0.32795 0.0
H69 H 0.98499 0.85864 0.38144 0.0
H70 H 0.05357 0.83884 0.47128 0.0
H71 H 0.05157 0.79949 0.41608 0.0
H72 H 0.04213 0.63849 0.10971 0.0
H73 H 0.04135 0.66808 0.20025 0.0
H74 H 0.98292 0.67575 1.01319 0.0
H75 H 0.98237 0.70576 0.10452 0.0
H76 H 0.94767 0.83035 0.99261 0.0
H77 H 0.99397 0.8561 0.15147 0.0
H78 H 0.99047 0.81635 0.20613 0.0
H79 H 0.94434 0.79051 0.04713 0.0
C80 C 0.74876 1.01159 0.40507 0.0
C81 C 0.74035 0.03114 0.44371 0.0
C82 C 0.70067 1.01086 0.46138 0.0
C83 C 0.71674 0.03078 0.47153 0.0
C84 C 0.70933 0.99114 0.42333 0.0
C85 C 0.73293 0.9915 0.39558 0.0
U86 U 0.79266 1.00125 0.25804 0.0
O87 O 0.82098 0.02541 0.21454 0.0
O88 O 0.83109 0.98934 0.25182 0.0
C89 C 0.8383 1.00908 0.21962 0.0
C90 C 0.77375 1.01274 0.37456 0.0
C91 C 0.85502 1.0058 0.16116 0.0
C92 C 0.8942 0.99162 0.11773 0.0
C93 C 0.87692 0.99295 0.16931 0.0
C94 C 0.86811 1.01578 0.04755 0.0
C95 C 0.8903 1.00326 0.05604 0.0
C96 C 0.85078 1.01704 0.09918 0.0
C97 C 0.75768 0.97458 0.1039 0.0
C98 C 0.75181 0.98906 0.99115 0.0
C99 C 0.72627 0.95649 0.03488 0.0
C100 C 0.73976 0.95663 0.09359 0.0
C101 C 0.73061 0.97443 0.98589 0.0
C102 C 0.76517 0.98934 0.05035 0.0
C103 C 0.76194 0.98225 0.17275 0.0
O104 O 0.78465 0.99191 0.36286 0.0
O105 O 0.7767 0.02847 0.32574 0.0
O106 O 0.7647 1.00582 0.18221 0.0
O107 O 0.77559 0.9687 0.21151 0.0
H108 H 0.75202 0.04693 0.45186 0.0
H109 H 0.71087 0.04647 0.49958 0.0
H110 H 0.69784 0.97525 0.41491 0.0
H111 H 0.7387 0.97609 0.36623 0.0
H112 H 0.91102 0.98205 0.12714 0.0
H113 H 0.881 0.98435 0.21652 0.0
H114 H 0.86406 0.02469 1.0008 0.0
H115 H 0.83422 0.02718 0.09074 0.0
H116 H 0.75621 1.00245 0.95316 0.0
H117 H 0.71037 0.94463 0.03265 0.0
H118 H 0.7339 0.9449 0.13415 0.0
H119 H 0.77935 1.00306 0.05688 0.0
C120 C 0.52553 0.74664 0.36988 0.0
C121 C 0.51105 0.7278 0.34239 0.0
C122 C 0.52123 0.6999 0.43386 0.0
C123 C 0.50896 0.70488 0.37377 0.0
C124 C 0.53649 0.7184 0.45999 0.0
C125 C 0.53846 0.74143 0.42876 0.0
U126 U 0.54078 0.79992 0.24373 0.0
O127 O 0.54807 0.83963 0.25587 0.0
O128 O 0.51442 0.82692 0.20822 0.0
C129 C 0.52877 0.84569 0.22077 0.0
C130 C 0.52463 0.77228 0.34292 0.0
C131 C 0.53248 0.86315 0.16418 0.0
C132 C 0.53812 0.90495 0.12282 0.0
C133 C 0.53632 0.88818 0.17594 0.0
C134 C 0.53231 0.87201 0.04488 0.0
C135 C 0.53597 0.8972 0.05617 0.0
C136 C 0.53075 0.85529 0.09784 0.0
C137 C 0.57521 0.75405 0.13853 0.0
C138 C 0.58531 0.727 0.04818 0.0
C139 C 0.56301 0.71154 0.1437 0.0
C140 C 0.56478 0.73441 0.17364 0.0
C141 C 0.57149 0.70831 0.07842 0.0
C142 C 0.58704 0.74987 0.0781 0.0
C143 C 0.56793 0.77894 0.15391 0.0
O144 O 0.54447 0.78598 0.34686 0.0
O145 O 0.51258 0.77578 0.28723 0.0
O146 O 0.54441 0.7824 0.14712 0.0
O147 O 0.5771 0.78894 0.20779 0.0
H148 H 0.50065 0.73093 0.29747 0.0
H149 H 0.49735 0.69111 0.35124 0.0
H150 H 0.54612 0.71547 0.50627 0.0
H151 H 0.54951 0.75549 0.45211 0.0
H152 H 0.54133 0.92399 0.13421 0.0
H153 H 0.5377 0.89484 0.22642 0.0
H154 H 0.53008 0.86508 0.99495 0.0
H155 H 0.52772 0.83618 0.08673 0.0
H156 H 0.59201 0.72502 0.99789 0.0
H157 H 0.5525 0.69727 0.16821 0.0
H158 H 0.55556 0.7374 0.22047 0.0
H159 H 0.59514 0.76491 0.05047 0.0
C160 C 0.24363 0.50333 0.93142 0.0
C161 C 0.2339 0.48161 0.90459 0.0
C162 C 0.19618 0.50224 0.87084 0.0
C163 C 0.21062 0.48108 0.87486 0.0
C164 C 0.20611 0.52398 0.89731 0.0
C165 C 0.22941 0.52453 0.92666 0.0
U166 U 0.28813 0.49448 0.079 0.0
O167 O 0.32728 0.48527 0.08551 0.0
O168 O 0.31478 0.52064 0.12148 0.0
C169 C 0.33316 0.50551 0.11699 0.0
C170 C 0.26869 0.5045 0.962 0.0
C171 C 0.35014 0.50342 0.17544 0.0
C172 C 0.38944 0.48998 0.22009 0.0
C173 C 0.37196 0.49036 0.16885 0.0
C174 C 0.3638 0.51564 0.28681 0.0
C175 C 0.38584 0.50279 0.27989 0.0
C176 C 0.34625 0.51597 0.23547 0.0
C177 C 0.25843 0.47205 0.24052 0.0
C178 C 0.26742 0.49435 0.34132 0.0
C179 C 0.22908 0.4724 0.33004 0.0
C180 C 0.2366 0.4635 0.26862 0.0
C181 C 0.24337 0.49004 0.36308 0.0
C182 C 0.27495 0.48537 0.2799 0.0
C183 C 0.25883 0.4754 0.16839 0.0
O184 O 0.27184 0.52072 1.0092 0.0
O185 O 0.2798 0.48382 0.97517 0.0
O186 O 0.27372 0.46206 0.13297 0.0
O187 O 0.2588 0.49846 0.15071 0.0
H188 H 0.24432 0.46496 0.90618 0.0
H189 H 0.20411 0.464 0.85419 0.0
H190 H 0.19576 0.54067 0.89645 0.0
H191 H 0.23628 0.54171 0.94588 0.0
H192 H 0.40617 0.48015 0.21182 0.0
H193 H 0.37582 0.48082 0.12308 0.0
H194 H 0.36001 0.52548 0.33211 0.0
H195 H 0.3298 0.52638 0.2426 0.0
H196 H 0.279 0.50746 0.36672 0.0
H197 H 0.21057 0.46844 0.34586 0.0
H198 H 0.22372 0.45304 0.23904 0.0
H199 H 0.29203 0.49196 0.25905 0.0
C200 C 0.03995 0.24764 0.95956 0.0
C201 C 0.0606 0.2327 0.96406 0.0
C202 C 0.04075 0.20075 0.89597 0.0
C203 C 0.06093 0.20956 0.93322 0.0
C204 C 0.02019 0.21596 0.89184 0.0
C205 C 0.0198 0.23885 0.92324 0.0
U206 U 0.05355 0.30037 0.08935 0.0
O207 O 0.02656 0.32742 0.1215 0.0
O208 O 0.06064 0.33995 0.07569 0.0
C209 C 0.04068 0.34623 0.10745 0.0
C210 C 0.03896 0.27285 0.98835 0.0
C211 C 0.0428 0.3651 0.16083 0.0
C212 C 0.02414 0.39854 0.22234 0.0
C213 C 0.02333 0.3811 0.17131 0.0
C214 C 0.0642 0.38473 0.25369 0.0
C215 C 0.04453 0.40066 0.26471 0.0
C216 C 0.06331 0.36712 0.20268 0.0
C217 C 0.08603 0.25475 0.20025 0.0
C218 C 0.09084 0.22683 0.2925 0.0
C219 C 0.07467 0.21221 0.18764 0.0
C220 C 0.07786 0.23544 0.16019 0.0
C221 C 0.07928 0.20837 0.25547 0.0
C222 C 0.09422 0.24999 0.26486 0.0
C223 C 0.07925 0.27971 0.18346 0.0
O224 O 0.02622 0.27569 0.04301 0.0
O225 O 0.05898 0.28633 0.98754 0.0
O226 O 0.08927 0.28959 0.13035 0.0
O227 O 0.05566 0.28322 0.18719 0.0
H228 H 0.07659 0.23895 0.9909 0.0
H229 H 0.07708 0.1986 0.93891 0.0
H230 H 1.00443 0.21056 0.86284 0.0
H231 H 1.00372 0.25 0.91796 0.0
H232 H 1.00877 0.41057 0.22812 0.0
H233 H 1.00728 0.38003 0.13997 0.0
H234 H 0.08015 0.38552 0.28539 0.0
H235 H 0.07855 0.35495 0.19641 0.0
H236 H 0.09447 0.22419 0.34495 0.0
H237 H 0.06553 0.19829 0.15836 0.0
H238 H 0.07114 0.23895 0.11055 0.0
H239 H 0.10044 0.26477 0.29647 0.0
C240 C 0.29591 0.03435 0.94296 0.0
C241 C 0.3141 0.0515 0.96062 0.0
C242 C 0.34241 0.03503 0.87711 0.0
C243 C 0.33711 0.05171 0.92851 0.0
C244 C 0.32398 0.01804 0.85984 0.0
C245 C 0.30126 0.0177 0.89224 0.0
U246 U 0.24401 0.04797 0.07577 0.0
O247 O 0.20383 0.05246 0.06672 0.0
O248 O 0.21872 0.01967 0.11271 0.0
C249 C 0.19915 0.03275 0.10239 0.0
C250 C 0.27124 0.03285 0.97532 0.0
C251 C 0.18227 0.03499 0.16084 0.0
C252 C 0.14093 0.03928 0.20602 0.0
C253 C 0.15728 0.03974 0.15177 0.0
C254 C 0.17422 0.02978 0.27989 0.0
C255 C 0.14907 0.03371 0.27078 0.0
C256 C 0.19053 0.03053 0.22606 0.0
C257 C 0.28825 0.08566 0.18176 0.0
C258 C 0.31248 0.10097 0.27334 0.0
C259 C 0.32991 0.07271 0.19477 0.0
C260 C 0.3085 0.07317 0.15768 0.0
C261 C 0.33125 0.08485 0.25629 0.0
C262 C 0.29089 0.10112 0.23654 0.0
C263 C 0.26385 0.07682 0.16464 0.0
O264 O 0.26965 0.02146 0.03277 0.0
O265 O 0.257 0.05199 0.97196 0.0
O266 O 0.25384 0.08516 0.10986 0.0
O267 O 0.26124 0.05313 0.17224 0.0
H268 H 0.31052 0.06482 0.99878 0.0
H269 H 0.35058 0.06526 0.94308 0.0
H270 H 0.32718 1.00465 0.82153 0.0
H271 H 0.28772 1.00423 0.87741 0.0
H272 H 0.12175 0.04233 0.1968 0.0
H273 H 0.15026 0.04318 0.10235 0.0
H274 H 0.18133 0.02582 0.32893 0.0
H275 H 0.20961 0.02699 0.2355 0.0
H276 H 0.31331 0.11128 0.31909 0.0
H277 H 0.34389 0.06017 0.17929 0.0
H278 H 0.30666 0.061 0.11569 0.0
H279 H 0.2754 0.11107 0.25538 0.0
C280 C 0.50985 0.30342 0.95592 0.0
C281 C 0.48868 0.31772 0.95169 0.0
C282 C 0.51172 0.35166 0.8996 0.0
C283 C 0.48965 0.34158 0.92442 0.0
C284 C 0.53254 0.33674 0.90216 0.0
C285 C 0.53162 0.31327 0.93019 0.0
U286 U 0.49431 0.24973 0.08221 0.0
O287 O 0.48975 0.20977 0.06996 0.0
O288 O 0.52204 0.22451 0.12022 0.0
C289 C 0.50924 0.20488 0.10576 0.0
C290 C 0.51032 0.27803 0.98406 0.0
C291 C 0.50656 0.18705 0.16161 0.0
C292 C 0.52386 0.15382 0.22737 0.0
C293 C 0.52451 0.16932 0.17154 0.0
C294 C 0.48689 0.17309 0.26422 0.0
C295 C 0.50518 0.15554 0.27526 0.0
C296 C 0.48764 0.1887 0.20843 0.0
C297 C 0.45774 0.29427 0.18315 0.0
C298 C 0.45832 0.3253 0.26779 0.0
C299 C 0.4645 0.33654 0.15245 0.0
C300 C 0.46098 0.31223 0.13415 0.0
C301 C 0.46549 0.34288 0.22012 0.0
C302 C 0.45439 0.30114 0.24922 0.0
C303 C 0.4656 0.26939 0.17057 0.0
O304 O 0.52192 0.27514 0.04063 0.0
O305 O 0.49064 0.26413 0.97959 0.0
O306 O 0.45724 0.25865 0.11672 0.0
O307 O 0.48918 0.26688 0.1788 0.0
H308 H 0.47141 0.31052 0.9693 0.0
H309 H 0.47313 0.35219 0.9237 0.0
H310 H 0.54977 0.34302 0.88181 0.0
H311 H 0.54815 0.30261 0.93123 0.0
H312 H 0.53856 0.14101 0.23388 0.0
H313 H 0.53948 0.16783 0.13676 0.0
H314 H 0.47193 0.17491 0.29883 0.0
H315 H 0.47366 0.20233 0.20249 0.0
H316 H 0.45874 0.32923 0.32042 0.0
H317 H 0.46907 0.34977 0.11421 0.0
H318 H 0.4635 0.30711 0.08284 0.0
H319 H 0.45192 0.28743 0.28764 0.0
Tb320 Tb 0.98987 0.03861 0.59881 0.0
C321 C 0.08342 0.05525 0.766 0.0
N322 N 0.07958 0.03972 0.71443 0.0
C323 C 0.11888 0.05042 0.66961 0.0
C324 C 0.10496 0.06946 0.77048 0.0
C325 C 0.09722 0.03674 0.66727 0.0
C326 C 0.12271 0.06699 0.72116 0.0
C327 C 0.06863 0.07314 0.86814 0.0
C328 C 0.06546 0.05711 0.81408 0.0
C329 C 0.08996 0.08747 0.87256 0.0
C330 C 0.10807 0.08564 0.82384 0.0
Tb331 Tb 0.04325 0.01863 0.71559 0.0
N332 N 0.04468 0.04351 0.80699 0.0
C333 C 0.05025 0.07428 0.9161 0.0
C334 C 0.02754 0.04339 0.85615 0.0
C335 C 0.02978 0.05908 0.91052 0.0
H336 H 0.09508 0.02327 0.62892 0.0
H337 H 0.01588 0.05914 0.94866 0.0
H338 H 0.9379 0.03955 0.68508 0.0
H339 H 1.01506 0.99165 0.37359 0.0
H340 H 1.01247 0.03078 0.85534 0.0
H341 H 0.05194 0.08639 0.95831 0.0
H342 H 0.02068 0.02077 0.46465 0.0
H343 H 0.13272 0.04798 0.63197 0.0
H344 H 0.09263 0.10001 0.9135 0.0
H345 H 0.12445 0.09679 0.82797 0.0
H346 H 0.89824 0.01811 0.68315 0.0
H347 H 0.13953 0.07754 0.72285 0.0
H348 H 0.97655 0.96796 0.36438 0.0
N349 N 0.95196 0.02081 0.60117 0.0
C350 C 0.94707 1.00475 0.5515 0.0
C351 C 0.91188 1.01403 0.64612 0.0
C352 C 0.92441 0.99242 0.5477 0.0
C353 C 0.9346 0.02586 0.64774 0.0
C354 C 0.90679 0.99715 0.59608 0.0
N355 N 0.98681 1.01238 0.51094 0.0
C356 C 1.00431 1.00996 0.46334 0.0
C357 C 0.96066 0.98406 0.45209 0.0
C358 C 0.96497 1.00059 0.50443 0.0
C359 C 0.97911 0.98051 0.4053 0.0
C360 C 1.00093 0.99373 0.41059 0.0
H361 H 0.88914 0.98806 0.5949 0.0
H362 H 0.9028 0.96612 0.49223 0.0
H363 H 0.93454 0.95882 0.40848 0.0
O364 O 0.99604 0.06532 0.52613 0.0
O365 O 0.99379 0.99885 0.61679 0.0
O366 O 0.03457 0.99248 0.63531 0.0
O367 O 0.96 0.06079 0.57132 0.0
O368 O 0.02779 0.04708 0.56741 0.0
O369 O 0.05196 1.0167 0.60917 0.0
O370 O 0.04095 0.99229 0.79122 0.0
O371 O 0.03901 0.05856 0.6977 0.0
O372 O 0.99803 0.06379 0.68108 0.0
O373 O 0.07446 0.99824 0.73791 0.0
O374 O 1.00511 1.00995 0.74956 0.0
O375 O 0.98173 0.04044 0.7046 0.0
C376 C 1.01305 0.98471 0.61455 0.0
C377 C 0.96496 0.09311 0.48846 0.0
C378 C 0.97445 0.13 0.42573 0.0
C379 C 0.94941 0.13469 0.41969 0.0
C380 C 0.93997 0.09783 0.48185 0.0
C381 C 0.93227 0.11851 0.44717 0.0
C382 C 0.98205 0.10907 0.45954 0.0
C383 C 0.0475 0.03356 0.56419 0.0
C384 C 0.97361 0.0728 0.52948 0.0
C385 C 0.92008 0.97581 0.49592 0.0
C386 C 0.93816 0.97165 0.44821 0.0
C387 C 0.01932 0.07199 0.70245 0.0
C388 C 0.06407 0.95771 0.76762 0.0
C389 C 0.05247 0.91679 0.80324 0.0
C390 C 0.06388 0.90711 0.74693 0.0
C391 C 0.07516 0.94791 0.71076 0.0
C392 C 0.05288 0.94202 0.81353 0.0
C393 C 0.0751 0.92268 0.70077 0.0
C394 C 0.98527 0.02354 0.75 0.0
C395 C 0.06269 0.98414 0.77895 0.0
H396 H 0.94316 0.15082 0.39379 0.0
H397 H 0.92647 0.08577 0.50411 0.0
H398 H 0.91299 0.12218 0.44242 0.0
H399 H 1.00139 0.10584 0.46585 0.0
H400 H 0.06377 0.88762 0.73823 0.0
H401 H 0.08365 0.95966 0.67386 0.0
H402 H 0.04433 0.9495 0.85747 0.0
H403 H 0.08359 0.91521 0.6569 0.0
Tb404 Tb 0.53464 0.06063 0.72887 0.0
C405 C 0.52985 0.95026 0.61788 0.0
N406 N 0.5334 0.97139 0.58365 0.0
C407 C 0.56068 0.95131 0.5092 0.0
C408 C 0.5421 0.92882 0.59994 0.0
C409 C 0.54796 0.97207 0.52867 0.0
C410 C 0.55796 0.92965 0.54544 0.0
C411 C 0.50803 0.92815 0.70423 0.0
C412 C 0.51298 0.94993 0.66908 0.0
C413 C 0.52078 0.90688 0.6881 0.0
C414 C 0.53776 0.90721 0.63603 0.0
Tb415 Tb 0.51338 1.00445 0.6233 0.0
N416 N 0.50117 0.97095 0.6837 0.0
C417 C 0.49023 0.92833 0.75397 0.0
C418 C 0.48293 0.97087 0.72999 0.0
C419 C 0.47744 0.94971 0.76632 0.0
H420 H 0.54936 0.98856 0.49929 0.0
H421 H 0.46333 0.94992 0.80386 0.0
H422 H 0.48843 0.0817 0.82049 0.0
H423 H 0.59107 0.10344 0.54072 0.0
H424 H 0.4727 0.98701 0.74017 0.0
H425 H 0.48595 0.91199 0.78229 0.0
H426 H 0.57814 0.07034 0.61608 0.0
H427 H 0.57241 0.95198 0.46599 0.0
H428 H 0.51737 0.89001 0.71492 0.0
H429 H 0.54713 0.89057 0.62337 0.0
H430 H 0.46426 0.11906 0.82632 0.0
H431 H 0.56772 0.91355 0.53003 0.0
H432 H 0.56901 0.14256 0.54037 0.0
N433 N 0.51104 0.09449 0.74128 0.0
C434 C 0.5172 0.11384 0.70206 0.0
C435 C 0.47895 0.11775 0.79065 0.0
C436 C 0.50411 0.13582 0.70475 0.0
C437 C 0.49248 0.09635 0.78629 0.0
C438 C 0.48468 0.13753 0.74946 0.0
N439 N 0.54836 0.08983 0.65619 0.0
C440 C 0.56811 0.08702 0.61583 0.0
C441 C 0.54356 0.13112 0.61687 0.0
C442 C 0.53668 0.11155 0.65872 0.0
C443 C 0.56321 0.12801 0.57352 0.0
C444 C 0.57563 0.10591 0.57337 0.0
H445 H 0.4742 0.15411 0.75309 0.0
H446 H 0.50094 0.17234 0.66419 0.0
H447 H 0.53545 0.1682 0.58711 0.0
O448 O 0.57019 0.06798 0.76208 0.0
O449 O 0.51473 0.06652 0.63379 0.0
O450 O 0.52926 0.03565 0.57098 0.0
O451 O 0.5393 0.07879 0.82016 0.0
O452 O 0.56358 0.03528 0.69617 0.0
O453 O 0.55073 1.01711 0.59888 0.0
O454 O 0.4838 0.01912 0.57217 0.0
O455 O 0.53029 0.99474 0.71918 0.0
O456 O 0.52618 0.02794 0.78882 0.0
O457 O 0.49861 0.98423 0.54381 0.0
O458 O 0.48371 0.02326 0.67833 0.0
O459 O 0.50045 0.04487 0.76646 0.0
C460 C 0.52013 0.05755 0.57509 0.0
C461 C 0.57262 0.06087 0.87635 0.0
C462 C 0.60625 0.03706 0.9201 0.0
C463 C 0.59059 0.02672 0.96787 0.0
C464 C 0.55722 0.05073 0.92537 0.0
C465 C 0.56626 0.03384 0.97102 0.0
C466 C 0.59733 0.05443 0.87537 0.0
C467 C 0.56836 0.02427 0.63947 0.0
C468 C 0.56267 0.07499 0.8202 0.0
C469 C 0.51083 0.15534 0.66295 0.0
C470 C 0.53051 0.153 0.61914 0.0
C471 C 0.52969 1.00447 0.77881 0.0
C472 C 0.45722 0.99206 0.51942 0.0
C473 C 0.41943 1.00009 0.46138 0.0
C474 C 0.40794 0.98118 0.49732 0.0
C475 C 0.4459 0.97309 0.5552 0.0
C476 C 0.44408 1.00519 0.47243 0.0
C477 C 0.42127 0.96757 0.54361 0.0
C478 C 0.48158 0.0352 0.73509 0.0
C479 C 0.48202 1.00047 0.53248 0.0
H480 H 0.59726 1.01334 1.00302 0.0
H481 H 0.53804 0.05516 0.92717 0.0
H482 H 0.55425 0.02585 1.00801 0.0
H483 H 0.60936 0.06196 0.83756 0.0
H484 H 0.38879 0.97702 0.48968 0.0
H485 H 0.45589 0.96293 0.59237 0.0
H486 H 0.45289 0.02026 0.44633 0.0
H487 H 0.41239 0.95302 0.57127 0.0
Tb488 Tb 0.53928 0.51656 0.62165 0.0
C489 C 0.44396 0.5022 0.77759 0.0
N490 N 0.44855 0.51842 0.72776 0.0
C491 C 0.40941 0.50949 0.67961 0.0
C492 C 0.42202 0.48857 0.77955 0.0
C493 C 0.43147 0.52254 0.67967 0.0
C494 C 0.4047 0.49233 0.72955 0.0
C495 C 0.45772 0.48201 0.87808 0.0
C496 C 0.46161 0.49895 0.82614 0.0
C497 C 0.43593 0.46832 0.88015 0.0
C498 C 0.41811 0.4716 0.83103 0.0
Tb499 Tb 0.48535 0.53832 0.73296 0.0
N500 N 0.48282 0.51199 0.82141 0.0
C501 C 0.47588 0.47935 0.92631 0.0
C502 C 0.49993 0.51043 0.8705 0.0
C503 C 0.49694 0.49383 0.92289 0.0
H504 H 0.43445 0.53635 0.64222 0.0
H505 H 0.51077 0.49245 0.96108 0.0
H506 H 0.5906 0.5116 0.70896 0.0
H507 H 0.51893 0.56567 0.39468 0.0
H508 H 0.51562 0.52226 0.87086 0.0
H509 H 0.47363 0.4665 0.96696 0.0
H510 H 0.51107 0.53614 0.48392 0.0
H511 H 0.39598 0.51281 0.64129 0.0
H512 H 0.43266 0.45517 0.91955 0.0
H513 H 0.40139 0.46091 0.83331 0.0
H514 H 0.6312 0.53131 0.71148 0.0
H515 H 0.38759 0.48224 0.72932 0.0
H516 H 0.55835 0.58798 0.38992 0.0
N517 N 0.57816 0.53209 0.62599 0.0
C518 C 0.58423 0.54843 0.57768 0.0
C519 C 0.61809 0.53646 0.67389 0.0
C520 C 0.60743 0.55977 0.5762 0.0
C521 C 0.59487 0.52564 0.67313 0.0
C522 C 0.62436 0.55372 0.62546 0.0
N523 N 0.54466 0.54288 0.5339 0.0
C524 C 0.52788 0.54629 0.48468 0.0
C525 C 0.57258 0.57055 0.47829 0.0
C526 C 0.56703 0.55379 0.52954 0.0
C527 C 0.55483 0.5752 0.43008 0.0
C528 C 0.53251 0.56277 0.43286 0.0
H529 H 0.64238 0.56203 0.62608 0.0
H530 H 0.63066 0.58567 0.52383 0.0
H531 H 0.60014 0.59509 0.43803 0.0
O532 O 0.53161 0.4895 0.55201 0.0
O533 O 0.53697 0.55638 0.63773 0.0
O534 O 0.49646 0.56486 0.6553 0.0
O535 O 0.56825 0.49326 0.59397 0.0
O536 O 0.50127 0.51103 0.58289 0.0
O537 O 0.47847 0.54203 0.62696 0.0
O538 O 0.48656 0.56212 0.81416 0.0
O539 O 0.48857 0.49877 0.70988 0.0
O540 O 0.52957 0.49221 0.70471 0.0
O541 O 0.45516 0.5608 0.7501 0.0
O542 O 0.52299 0.54704 0.76657 0.0
O543 O 0.54657 0.51555 0.72898 0.0
C544 C 0.51847 0.57143 0.63515 0.0
C545 C 0.56145 0.46087 0.51273 0.0
C546 C 0.54986 0.42786 0.43833 0.0
C547 C 0.57436 0.42067 0.43514 0.0
C548 C 0.58584 0.4535 0.50979 0.0
C549 C 0.59224 0.43349 0.47082 0.0
C550 C 0.54369 0.44809 0.47662 0.0
C551 C 0.48203 0.52542 0.58126 0.0
C552 C 0.55391 0.48156 0.55352 0.0
C553 C 0.61296 0.57671 0.5257 0.0
C554 C 0.59559 0.58207 0.47683 0.0
C555 C 0.50744 0.48449 0.71932 0.0
C556 C 0.46909 0.59946 0.7866 0.0
C557 C 0.48606 0.6378 0.82631 0.0
C558 C 0.48031 0.64901 0.7657 0.0
C559 C 0.46336 0.61079 0.7257 0.0
C560 C 0.48018 0.61323 0.83687 0.0
C561 C 0.46887 0.6355 0.71561 0.0
C562 C 0.54274 0.53356 0.7707 0.0
C563 C 0.46658 0.57293 0.79613 0.0
H564 H 0.57958 0.40499 0.40606 0.0
H565 H 0.59988 0.46315 0.53741 0.0
H566 H 0.61106 0.42781 0.4686 0.0
H567 H 0.52487 0.45391 0.47813 0.0
H568 H 0.48486 0.66804 0.75707 0.0
H569 H 0.4552 0.6005 0.6854 0.0
H570 H 0.48504 0.60461 0.88361 0.0
H571 H 0.46465 0.64406 0.66849 0.0
Tb572 Tb 0.03242 0.55208 0.60581 0.0
C573 C 0.04145 0.45808 0.78054 0.0
N574 N 0.02736 0.46205 0.72601 0.0
C575 C 0.03591 0.4218 0.6864 0.0
C576 C 0.05349 0.43573 0.78986 0.0
C577 C 0.02429 0.44423 0.67929 0.0
C578 C 0.05058 0.41752 0.74188 0.0
C579 C 0.05912 0.47348 0.88295 0.0
C580 C 0.04432 0.47679 0.82635 0.0
C581 C 0.07092 0.45115 0.89279 0.0
C582 C 0.06815 0.43235 0.84633 0.0
Tb583 Tb 1.00862 0.49901 0.72248 0.0
N584 N 0.03333 0.49851 0.81404 0.0
C585 C 0.06176 0.49279 0.92769 0.0
C586 C 0.03499 0.51695 0.85918 0.0
C587 C 0.04949 0.51455 0.91596 0.0
H588 H 1.01231 0.44687 0.63745 0.0
H589 H 0.0509 0.52938 0.95116 0.0
H590 H 0.02991 0.60372 0.69359 0.0
H591 H 0.99754 0.5288 0.36221 0.0
H592 H 0.02476 0.53329 0.8531 0.0
H593 H 0.07297 0.49098 0.97176 0.0
H594 H 0.02246 0.52297 0.46199 0.0
H595 H 0.03336 0.40773 0.64938 0.0
H596 H 0.08238 0.4483 0.93594 0.0
H597 H 0.07751 0.41529 0.85439 0.0
H598 H 1.00825 0.64267 0.68701 0.0
H599 H 0.05952 0.40009 0.74725 0.0
H600 H 0.9735 0.56639 0.34839 0.0
N601 N 1.01482 0.58976 0.60361 0.0
C602 C 1.00104 0.59472 0.54914 0.0
C603 C 1.00587 0.62925 0.64818 0.0
C604 C 0.98862 0.61699 0.54282 0.0
C605 C 0.01781 0.60689 0.65228 0.0
C606 C 0.99105 0.63426 0.59349 0.0
N607 N 1.01128 0.55587 0.5082 0.0
C608 C 1.01143 0.53897 0.45855 0.0
C609 C 0.98522 0.58168 0.44231 0.0
C610 C 0.99939 0.57731 0.49953 0.0
C611 C 0.98421 0.56376 0.39307 0.0
C612 C 0.99762 0.54246 0.4009 0.0
H613 H 0.98183 0.65161 0.59047 0.0
H614 H 0.96448 0.63827 0.48067 0.0
H615 H 0.96145 0.60732 0.39272 0.0
O616 O 0.0647 0.54576 0.55225 0.0
O617 O 0.99202 0.54747 0.60717 0.0
O618 O 0.98376 0.50766 0.64002 0.0
O619 O 0.0553 0.5824 0.58496 0.0
O620 O 0.0385 0.51395 0.57091 0.0
O621 O 1.00766 0.49017 0.61685 0.0
O622 O 0.98302 0.50219 0.79881 0.0
O623 O 0.04873 0.50193 0.70693 0.0
O624 O 0.05257 0.54289 0.69586 0.0
O625 O 0.98554 0.46846 0.74185 0.0
O626 O 0.99797 0.53687 0.74854 0.0
O627 O 0.03022 0.56023 0.71248 0.0
C628 C 0.97733 0.52826 0.6109 0.0
C629 C 0.09417 0.57812 0.52813 0.0
C630 C 0.13727 0.57111 0.50423 0.0
C631 C 0.14098 0.59661 0.50124 0.0
C632 C 0.09824 0.60337 0.52334 0.0
C633 C 0.12151 0.6125 0.50941 0.0
C634 C 0.11349 0.56213 0.51639 0.0
C635 C 0.02427 0.49426 0.57076 0.0
C636 C 0.07131 0.56861 0.55685 0.0
C637 C 0.97426 0.62132 0.48626 0.0
C638 C 0.97255 0.6037 0.43614 0.0
C639 C 0.06256 0.52168 0.70655 0.0
C640 C 0.95496 0.46966 0.82998 0.0
C641 C 0.92283 0.47601 0.91161 0.0
C642 C 0.91463 0.45188 0.90151 0.0
C643 C 0.94661 0.44565 0.82043 0.0
C644 C 0.94339 0.48445 0.87664 0.0
C645 C 0.92662 0.43678 0.85656 0.0
C646 C 1.01097 0.55723 0.75075 0.0
C647 C 0.97485 0.48006 0.78959 0.0
H648 H 0.15895 0.60449 0.49392 0.0
H649 H 0.08366 0.61606 0.53278 0.0
H650 H 0.12464 0.63202 0.50705 0.0
H651 H 0.10999 0.54268 0.51893 0.0
H652 H 0.89863 0.44485 0.92697 0.0
H653 H 0.9553 0.43387 0.78466 0.0
H654 H 0.9502 0.50282 0.885 0.0
H655 H 0.9201 0.4183 0.84873 0.0
H656 H 0.11028 0.06271 0.30759 0.0
H657 H 0.1482 0.99728 0.36373 0.0
H658 H 0.12065 0.99137 0.45772 0.0
H659 H 0.08541 1.00432 0.52445 0.0
H660 H 0.04822 0.07058 0.47177 0.0
H661 H 0.07534 0.07627 0.37658 0.0
C662 C 0.11247 0.04711 0.34024 0.0
C663 C 0.13156 0.03055 0.32814 0.0
C664 C 0.09656 0.04389 0.39533 0.0
C665 C 0.13403 1.01056 0.37177 0.0
C666 C 0.11815 1.00707 0.42565 0.0
C667 C 0.08339 0.02023 0.49288 0.0
C668 C 0.06477 0.03712 0.50658 0.0
C669 C 0.09936 0.02363 0.43822 0.0
C670 C 0.06231 0.05726 0.46338 0.0
C671 C 0.0779 0.06056 0.40858 0.0
H672 H 0.52084 0.10804 0.28999 0.0
H673 H 0.49002 0.16723 0.40194 0.0
H674 H 0.4907 0.14224 0.5024 0.0
H675 H 0.50044 0.10353 0.55998 0.0
H676 H 0.53404 0.04569 0.44909 0.0
H677 H 0.53167 0.07005 0.34785 0.0
C678 C 0.51446 0.11571 0.33627 0.0
C679 C 0.50527 0.13973 0.33714 0.0
C680 C 0.51533 0.10134 0.3948 0.0
C681 C 0.49674 0.1488 0.39833 0.0
C682 C 0.49731 0.13452 0.45641 0.0
C683 C 0.50755 0.09633 0.51397 0.0
C684 C 0.51777 0.07277 0.51319 0.0
C685 C 0.50662 0.11075 0.45544 0.0
C686 C 0.5262 0.0637 0.45207 0.0
C687 C 0.52491 0.0777 0.39377 0.0
H688 H 0.39971 0.54052 0.36248 0.0
H689 H 0.41595 0.46538 0.31987 0.0
H690 H 0.44759 0.46569 0.40545 0.0
H691 H 0.47058 0.48717 0.49558 0.0
H692 H 0.45321 0.56213 0.53761 0.0
H693 H 0.42245 0.5618 0.45053 0.0
C694 C 0.40992 0.52407 0.37213 0.0
C695 C 0.40511 0.50296 0.33394 0.0
C696 C 0.42816 0.52429 0.42202 0.0
C697 C 0.41916 0.48207 0.34724 0.0
C698 C 0.43731 0.48217 0.39674 0.0
C699 C 0.46016 0.50346 0.48541 0.0
C700 C 0.46427 0.52458 0.52419 0.0
C701 C 0.44204 0.50318 0.43472 0.0
C702 C 0.45044 0.54546 0.5097 0.0
C703 C 0.43273 0.54535 0.45956 0.0
H704 H 1.00723 0.41416 0.3474 0.0
H705 H 0.08315 0.42935 0.30764 0.0
H706 H 0.08388 0.4598 0.3964 0.0
H707 H 0.06271 0.48257 0.48673 0.0
H708 H 0.98692 0.46599 0.5256 0.0
H709 H 0.98642 0.43633 0.43611 0.0
C710 C 0.02394 0.42423 0.35751 0.0
C711 C 0.04508 0.41927 0.32001 0.0
C712 C 0.02428 0.44174 0.409 0.0
C713 C 0.0666 0.4324 0.33555 0.0
C714 C 0.067 0.45002 0.38632 0.0
C715 C 0.04609 0.47252 0.47542 0.0
C716 C 0.02491 0.47663 0.51369 0.0
C717 C 0.04593 0.45492 0.4236 0.0
C718 C 1.0036 0.46322 0.49799 0.0
C719 C 1.00324 0.44618 0.44643 0.0
H720 H 0.90331 0.03976 0.96836 0.0
H721 H 0.92102 0.96569 1.02063 0.0
H722 H 0.95228 0.96519 0.93392 0.0
H723 H 0.97461 0.9858 0.84009 0.0
H724 H 0.95552 0.05981 0.78997 0.0
H725 H 0.92519 0.06004 0.87737 0.0
C726 C 0.91373 0.02333 0.9606 0.0
C727 C 0.90943 1.00279 1.00169 0.0
C728 C 0.93173 0.02309 0.91021 0.0
C729 C 0.92382 0.98196 0.99085 0.0
C730 C 0.94175 0.9816 0.94073 0.0
C731 C 0.96385 1.00197 0.84843 0.0
C732 C 0.96742 0.02265 0.80704 0.0
C733 C 0.94594 1.00207 0.89975 0.0
C734 C 0.95321 0.04342 0.81956 0.0
C735 C 0.93572 0.04366 0.87004 0.0
H736 H 0.5206 0.94516 0.05018 0.0
H737 H 0.55486 0.88989 0.93089 0.0
H738 H 0.55563 0.91756 0.83607 0.0
H739 H 0.54688 0.95763 0.78571 0.0
H740 H 0.51381 1.01334 0.90538 0.0
H741 H 0.51317 0.98574 1.0009 0.0
C742 C 0.5286 0.93915 1.00394 0.0
C743 C 0.53742 0.91505 0.99866 0.0
C744 C 0.52945 0.95543 0.94913 0.0
C745 C 0.54734 0.9079 0.93712 0.0
C746 C 0.54803 0.92388 0.88254 0.0
C747 C 0.53951 0.96377 0.83264 0.0
C748 C 0.53045 0.98771 0.83783 0.0
C749 C 0.53908 0.94768 0.88776 0.0
C750 C 0.52116 0.99522 0.89956 0.0
C751 C 0.52065 0.97933 0.95438 0.0
H752 H 0.61013 0.56783 1.01292 0.0
H753 H 0.64301 0.49825 0.97382 0.0
H754 H 0.6137 0.49059 0.88486 0.0
H755 H 0.57847 0.50325 0.81789 0.0
H756 H 0.54641 0.57357 0.85207 0.0
H757 H 0.57502 0.58098 0.94333 0.0
C758 C 0.61082 0.55097 0.98507 0.0
C759 C 0.62902 0.53373 1.00028 0.0
C760 C 0.59391 0.54672 0.93282 0.0
C761 C 0.62957 0.51203 0.96304 0.0
C762 C 0.61267 0.50756 0.91213 0.0
C763 C 0.57798 0.52044 0.84424 0.0
C764 C 0.56044 0.53798 0.82663 0.0
C765 C 0.59483 0.52479 0.89623 0.0
C766 C 0.5597 0.55972 0.86372 0.0
C767 C 0.57614 0.56401 0.91611 0.0
H768 H 0.97724 0.62773 0.98585 0.0
H769 H 0.05451 0.64326 0.98881 0.0
H770 H 0.06061 0.61558 0.89586 0.0
H771 H 0.04449 0.58637 0.81381 0.0
H772 H 0.96786 0.5682 0.81344 0.0
H773 H 0.96107 0.59721 0.9041 0.0
C774 C 0.99538 0.62515 0.96587 0.0
C775 C 1.01539 0.63776 0.99492 0.0
C776 C 0.99892 0.60861 0.91244 0.0
C777 C 0.03877 0.63382 0.96833 0.0
C778 C 0.04229 0.61798 0.91478 0.0
C779 C 0.02623 0.58886 0.83312 0.0
C780 C 1.00667 0.5752 0.80585 0.0
C781 C 0.02257 0.60519 0.88645 0.0
C782 C 0.98327 0.57842 0.83295 0.0
C783 C 0.97939 0.59509 0.88496 0.0
H784 H 0.04502 0.21619 0.34592 0.0
H785 H 0.08041 0.15869 0.23862 0.0
H786 H 0.05106 0.1288 0.28425 0.0
H787 H 1.01359 0.12001 0.34863 0.0
H788 H 0.97685 0.17874 0.44783 0.0
H789 H 1.00837 0.20752 0.41052 0.0
C790 C 0.04666 0.19699 0.33395 0.0
C791 C 0.06504 0.18938 0.29046 0.0
C792 C 0.02918 0.18041 0.35758 0.0
C793 C 0.06658 0.1647 0.2731 0.0
C794 C 0.04971 0.14777 0.2986 0.0
C795 C 1.01259 0.13913 0.36197 0.0
C796 C 0.99293 0.14741 0.4003 0.0
C797 C 0.03063 0.15555 0.33975 0.0
C798 C 0.99164 0.17214 0.41736 0.0
C799 C 1.00973 0.1885 0.39661 0.0
H800 H 0.37816 0.06959 0.24039 0.0
H801 H 0.32199 0.07818 0.38878 0.0
H802 H 0.34453 0.05274 0.46547 0.0
H803 H 0.37769 0.02402 0.48635 0.0
H804 H 0.43199 1.01261 0.33517 0.0
H805 H 0.41204 0.04214 0.26257 0.0
C806 C 0.3709 0.06605 0.28964 0.0
C807 C 0.34822 0.07563 0.30793 0.0
C808 C 0.38315 0.05011 0.33232 0.0
C809 C 0.33951 0.07142 0.37293 0.0
C810 C 0.35214 0.05638 0.4167 0.0
C811 C 0.38487 0.0278 0.43711 0.0
C812 C 0.40592 1.01596 0.41543 0.0
C813 C 0.37343 0.04485 0.39593 0.0
C814 C 0.41558 0.02141 0.35237 0.0
C815 C 0.40433 0.03839 0.31117 0.0
H816 H 0.45811 0.37069 0.33058 0.0
H817 H 0.50549 0.36383 0.16026 0.0
H818 H 0.53513 0.39097 0.21144 0.0
H819 H 0.55048 0.41181 0.311 0.0
H820 H 0.50533 0.41427 0.48631 0.0
H821 H 0.47257 0.39293 0.42791 0.0
C822 C 0.47484 0.37523 0.30436 0.0
C823 C 0.47954 0.36475 0.24211 0.0
C824 C 0.49269 0.38949 0.33593 0.0
C825 C 0.50101 0.37163 0.20797 0.0
C826 C 0.51834 0.38684 0.23778 0.0
C827 C 0.53351 0.40753 0.33636 0.0
C828 C 0.53036 0.41445 0.40277 0.0
C829 C 0.51486 0.39493 0.30288 0.0
C830 C 0.50812 0.40922 0.43491 0.0
C831 C 0.48937 0.39705 0.40161 0.0
H832 H 0.21033 0.48383 0.46416 0.0
H833 H 0.24667 0.53881 0.3448 0.0
H834 H 0.21762 0.56907 0.38043 0.0
H835 H 0.17857 0.5782 0.43004 0.0
H836 H 0.14351 0.5251 0.55886 0.0
H837 H 0.17485 0.49567 0.53242 0.0
C838 C 0.21228 0.50262 0.44774 0.0
C839 C 0.23064 0.50896 0.40187 0.0
C840 C 0.19522 0.52008 0.46781 0.0
C841 C 0.23298 0.5334 0.38091 0.0
C842 C 0.2161 0.55072 0.40038 0.0
C843 C 0.17795 0.56056 0.45442 0.0
C844 C 0.15802 0.55396 0.49496 0.0
C845 C 0.19662 0.54401 0.44164 0.0
C846 C 0.15783 0.53062 0.52486 0.0
C847 C 0.17604 0.51376 0.51069 0.0
H848 H 0.01687 0.84404 0.02528 0.0
H849 H 0.95092 0.88535 1.00469 0.0
H850 H 0.97055 0.91118 0.91933 0.0
H851 H 1.00643 0.92097 0.84948 0.0
H852 H 0.07121 0.87747 0.86664 0.0
H853 H 0.05194 0.85297 0.95431 0.0
C854 C 1.00699 0.85901 1.00273 0.0
C855 C 0.98285 0.86342 1.02181 0.0
C856 C 0.01803 0.87292 0.95271 0.0
C857 C 0.96974 0.88215 0.99121 0.0
C858 C 0.98088 0.89668 0.94235 0.0
C859 C 0.01621 0.90607 0.87254 0.0
C860 C 0.04013 0.90089 0.85214 0.0
C861 C 1.00497 0.89206 0.92244 0.0
C862 C 0.0527 0.8815 0.88143 0.0
C863 C 0.04178 0.86769 0.93173 0.0
H864 H 0.71758 0.02095 0.95866 0.0
H865 H 0.69594 0.94621 0.92161 0.0
H866 H 0.6549 0.9596 0.89262 0.0
H867 H 0.62368 0.9918 0.89782 0.0
H868 H 0.64603 0.06617 0.93437 0.0
H869 H 0.68859 0.05362 0.94313 0.0
C870 C 0.70435 1.00753 0.94156 0.0
C871 C 0.70978 0.98247 0.94402 0.0
C872 C 0.68073 1.01527 0.92662 0.0
C873 C 0.69212 0.96556 0.92171 0.0
C874 C 0.66859 0.97318 0.90558 0.0
C875 C 0.63802 1.00519 0.90682 0.0
C876 C 0.63196 0.02972 0.91696 0.0
C877 C 0.6624 0.99783 0.91152 0.0
C878 C 0.65047 0.04715 0.92719 0.0
C879 C 0.67472 0.03998 0.93211 0.0
H880 H 0.52375 0.69867 0.06848 0.0
H881 H 0.59344 0.67768 0.98923 0.0
H882 H 0.57278 0.65334 0.90331 0.0
H883 H 0.53458 0.64066 0.8465 0.0
H884 H 0.46547 0.66399 0.92383 0.0
H885 H 0.4862 0.68511 1.01528 0.0
C886 C 0.53446 0.68817 0.0337 0.0
C887 C 0.56005 0.68954 0.03572 0.0
C888 C 0.52253 0.67521 0.98344 0.0
C889 C 0.5737 0.67656 0.98893 0.0
C890 C 0.56191 0.6629 0.93961 0.0
C891 C 0.52426 0.65052 0.88347 0.0
C892 C 0.49874 0.65131 0.87878 0.0
C893 C 0.53633 0.66261 0.93548 0.0
C894 C 0.4852 0.66366 0.92668 0.0
C895 C 0.49701 0.67551 0.97889 0.0
H896 H 0.85708 0.53244 0.11406 0.0
H897 H 0.87141 0.59123 0.97572 0.0
H898 H 0.89901 0.56509 0.91338 0.0
H899 H 0.91456 0.52433 0.89115 0.0
H900 H 0.90086 0.46576 0.031 0.0
H901 H 0.87685 0.49318 0.09954 0.0
C902 C 0.8669 0.5399 0.07171 0.0
C903 C 0.8622 0.56377 0.04949 0.0
C904 C 0.8822 0.52464 0.03548 0.0
C905 C 0.87466 0.57289 0.99356 0.0
C906 C 0.89028 0.55791 0.95774 0.0
C907 C 0.90691 0.51761 0.93748 0.0
C908 C 0.90946 0.49291 0.95565 0.0
C909 C 0.89348 0.53352 0.97706 0.0
C910 C 0.89882 0.48452 1.01509 0.0
C911 C 0.88529 0.50025 0.05464 0.0
H912 H 1.00241 0.16887 0.86893 0.0
H913 H 0.0802 0.17666 0.84123 0.0
H914 H 0.08082 0.13801 0.78151 0.0
H915 H 0.05902 0.10224 0.7321 0.0
H916 H 0.98107 0.09596 0.75735 0.0
H917 H 0.98089 0.13379 0.82007 0.0
C918 C 0.01958 0.16249 0.84931 0.0
C919 C 0.04121 0.17629 0.86032 0.0
C920 C 0.01981 0.14031 0.81333 0.0
C921 C 0.06318 0.16674 0.83521 0.0
C922 C 0.06355 0.14456 0.80012 0.0
C923 C 0.04201 0.10903 0.75168 0.0
C924 C 0.02009 0.09582 0.73977 0.0
C925 C 0.04195 0.13119 0.78829 0.0
C926 C 0.99826 0.10542 0.76508 0.0
C927 C 0.99812 0.12718 0.80143 0.0
H928 H 0.38908 0.04224 0.92713 0.0
H929 H 0.35084 0.02822 0.74367 0.0
H930 H 0.38955 0.02644 0.68417 0.0
H931 H 0.43494 0.0286 0.68316 0.0
H932 H 0.47288 0.0426 0.86723 0.0
H933 H 0.43419 0.0447 0.92605 0.0
C934 C 0.38912 0.03902 0.87404 0.0
C935 C 0.36667 0.03521 0.84067 0.0
C936 C 0.4117 0.03796 0.83954 0.0
C937 C 0.36754 0.03082 0.77161 0.0
C938 C 0.38982 0.0299 0.73715 0.0
C939 C 0.43478 0.0321 0.73614 0.0
C940 C 0.45717 0.03576 0.76996 0.0
C941 C 0.41213 0.03328 0.77048 0.0
C942 C 0.45623 0.04016 0.83894 0.0
C943 C 0.43395 0.04127 0.87306 0.0
H944 H 0.47704 0.3792 0.83134 0.0
H945 H 0.55079 0.38349 0.90658 0.0
H946 H 0.55606 0.42349 0.85648 0.0
H947 H 0.54046 0.45771 0.78992 0.0
H948 H 0.46616 0.45549 0.72026 0.0
H949 H 0.46039 0.41503 0.77046 0.0
C950 C 0.49421 0.38889 0.8376 0.0
C951 C 0.51365 0.37747 0.87192 0.0
C952 C 0.49712 0.4126 0.80946 0.0
C953 C 0.53565 0.39087 0.87882 0.0
C954 C 0.5387 0.4141 0.85053 0.0
C955 C 0.52301 0.44835 0.78533 0.0
C956 C 0.50387 0.45973 0.7505 0.0
C957 C 0.51972 0.42509 0.8151 0.0
C958 C 0.48129 0.44732 0.74645 0.0
C959 C 0.47798 0.42407 0.77522 0.0
H960 H 0.17233 0.53838 0.8004 0.0
H961 H 0.16224 0.46459 0.87209 0.0
H962 H 0.12148 0.4633 0.8238 0.0
H963 H 0.08802 0.48322 0.76236 0.0
H964 H 0.09671 0.55823 0.70064 0.0
H965 H 0.13847 0.55863 0.74244 0.0
C966 C 0.16125 0.52203 0.80639 0.0
C967 C 0.1709 0.50159 0.84023 0.0
C968 C 0.13733 0.52154 0.77973 0.0
C969 C 0.15595 0.48054 0.84556 0.0
C970 C 0.13236 0.4798 0.81825 0.0
C971 C 0.09877 0.49981 0.75907 0.0
C972 C 0.08864 0.52085 0.72966 0.0
C973 C 0.12276 0.50022 0.78542 0.0
C974 C 0.1036 0.54183 0.72383 0.0
C975 C 0.12762 0.5421 0.74787 0.0
H976 H 0.98346 0.88257 0.48211 0.0
H977 H 0.06138 0.87985 0.45287 0.0
H978 H 0.06634 0.91882 0.50885 0.0
H979 H 0.04894 0.95468 0.5654 0.0
H980 H 0.97111 0.95801 0.59343 0.0
H981 H 0.96596 0.91872 0.53814 0.0
C982 C 1.00155 0.89051 0.48725 0.0
C983 C 0.02198 0.87757 0.46325 0.0
C984 C 1.00441 0.91347 0.51941 0.0
C985 C 0.0452 0.88859 0.47164 0.0
C986 C 0.04812 0.9112 0.50348 0.0
C987 C 0.03083 0.94678 0.55991 0.0
C988 C 1.01045 0.95975 0.58355 0.0
C989 C 0.02792 0.92386 0.52784 0.0
C990 C 0.9872 0.94892 0.57531 0.0
C991 C 0.9842 0.92624 0.54368 0.0
H992 H 0.68315 0.02824 0.58166 0.0
H993 H 0.65915 0.99397 0.39989 0.0
H994 H 0.6171 0.99449 0.43881 0.0
H995 H 0.58659 1.00606 0.52196 0.0
H996 H 0.60998 0.03905 0.70573 0.0
H997 H 0.65231 0.03819 0.66785 0.0
C998 C 0.66876 0.02095 0.5503 0.0
C999 C 0.67475 1.01102 0.4875 0.0
C1000 C 0.64425 0.02124 0.5732 0.0
C1001 C 0.65554 1.00144 0.44858 0.0
C1002 C 0.63129 1.00188 0.47068 0.0
C1003 C 0.60081 1.01265 0.55459 0.0
C1004 C 0.59462 0.02237 0.61727 0.0
C1005 C 0.62535 1.01181 0.53275 0.0
C1006 C 0.6138 0.03131 0.65746 0.0
C1007 C 0.63818 0.03087 0.63569 0.0
H1008 H 0.55445 0.67102 0.50066 0.0
H1009 H 0.47805 0.67494 0.45091 0.0
H1010 H 0.47025 0.63664 0.5097 0.0
H1011 H 0.48496 0.60127 0.57458 0.0
H1012 H 0.56137 0.59703 0.62341 0.0
H1013 H 0.56913 0.63574 0.56637 0.0
C1014 C 0.53605 0.6636 0.50288 0.0
C1015 C 0.51695 0.67609 0.47051 0.0
C1016 C 0.5316 0.64127 0.53692 0.0
C1017 C 0.49329 0.66579 0.47396 0.0
C1018 C 0.48873 0.64384 0.50815 0.0
C1019 C 0.50327 0.60893 0.57342 0.0
C1020 C 0.52251 0.59603 0.60362 0.0
C1021 C 0.50772 0.63132 0.53976 0.0
C1022 C 0.54615 0.6063 0.60057 0.0
C1023 C 0.55064 0.62856 0.56786 0.0
H1024 H 0.87469 0.50919 0.47042 0.0
H1025 H 0.87835 0.58724 0.44337 0.0
H1026 H 0.91791 0.58856 0.4996 0.0
H1027 H 0.9517 0.56755 0.55865 0.0
H1028 H 0.94759 0.48932 0.58317 0.0
H1029 H 0.90847 0.4883 0.52637 0.0
C1030 C 0.88416 0.52653 0.47597 0.0
C1031 C 0.87314 0.54808 0.45216 0.0
C1032 C 0.90707 0.52721 0.50861 0.0
C1033 C 0.8859 0.57032 0.46153 0.0
C1034 C 0.90872 0.5711 0.4936 0.0
C1035 C 0.94241 0.55024 0.55109 0.0
C1036 C 0.95304 0.52855 0.57557 0.0
C1037 C 0.91953 0.54966 0.51774 0.0
C1038 C 0.94018 0.50642 0.5657 0.0
C1039 C 0.91765 0.50575 0.5328 0.0
loop_
_geom_bond_atom_site_label_1
_geom_bond_atom_site_label_2
_geom_bond_distance
_geom_bond_site_symmetry_2
_ccdc_geom_bond_type
C0 C1 1.264 . S
C0 C5 1.479 . S
C0 C10 1.465 . S
C1 C0 1.264 . S
C1 C3 1.339 . S
C1 H28 0.931 . S
C2 C3 1.395 . S
C2 C4 1.320 . S
C3 C1 1.339 . S
C3 C2 1.395 . S
C3 H29 0.929 . S
C4 C2 1.320 . S
C4 C5 1.405 . S
C4 H30 0.930 . S
C5 C0 1.479 . S
C5 C4 1.405 . S
C5 H31 0.931 . S
U6 O7 2.454 . S
U6 O8 2.458 . S
U6 C9 2.984 . S
U6 C10 2.847 . S
U6 C23 2.882 . S
U6 O24 2.441 . S
U6 O25 2.420 . S
U6 O26 2.455 . S
U6 O27 2.449 . S
O7 U6 2.454 . S
O7 C9 1.353 . S
O8 U6 2.458 . S
O8 C9 1.286 . S
C9 U6 2.984 . S
C9 O7 1.353 . S
C9 O8 1.286 . S
C9 C11 1.363 . S
C10 C0 1.465 . S
C10 U6 2.847 . S
C10 O24 1.249 . S
C10 O25 1.202 . S
C11 C9 1.363 . S
C11 C13 1.408 . S
C11 C16 1.342 . S
C12 C13 1.310 . S
C12 C15 1.461 . S
C12 H32 0.932 . S
C13 C11 1.408 . S
C13 C12 1.310 . S
C13 H33 0.930 . S
C14 C15 1.474 . S
C14 C16 1.285 . S
C14 H34 0.929 . S
C15 C12 1.461 . S
C15 C14 1.474 . S
C16 C11 1.342 . S
C16 C14 1.285 . S
C16 H35 0.930 . S
C17 C20 1.424 . S
C17 C22 1.245 . S
C17 C23 1.428 . S
C18 C21 1.260 1_556 S
C18 C22 1.477 1_556 S
C18 H36 0.932 . S
C19 C20 1.384 . S
C19 C21 1.479 . S
C19 H37 0.929 . S
C20 C17 1.424 . S
C20 C19 1.384 . S
C20 H38 0.928 . S
C21 C18 1.260 1_554 S
C21 C19 1.479 . S
C22 C17 1.245 . S
C22 C18 1.477 1_554 S
C22 H39 0.932 . S
C23 U6 2.882 . S
C23 C17 1.428 . S
C23 O26 1.301 . S
C23 O27 1.282 . S
O24 U6 2.441 . S
O24 C10 1.249 . S
O25 U6 2.420 . S
O25 C10 1.202 . S
O26 U6 2.455 . S
O26 C23 1.301 . S
O27 U6 2.449 . S
O27 C23 1.282 . S
H28 C1 0.931 . S
H29 C3 0.929 . S
H30 C4 0.930 . S
H31 C5 0.931 . S
H32 C12 0.932 . S
H33 C13 0.930 . S
H34 C14 0.929 . S
H35 C16 0.930 . S
H36 C18 0.932 . S
H37 C19 0.929 . S
H38 C20 0.928 . S
H39 C22 0.932 . S
C40 C41 1.264 . S
C40 C45 1.479 . S
C40 C50 1.465 . S
C41 C40 1.264 . S
C41 C43 1.339 . S
C41 H68 0.931 . S
C42 C43 1.395 . S
C42 C44 1.320 . S
C43 C41 1.339 . S
C43 C42 1.395 . S
C43 H69 0.929 . S
C44 C42 1.320 . S
C44 C45 1.405 . S
C44 H70 0.930 . S
C45 C40 1.479 . S
C45 C44 1.405 . S
C45 H71 0.931 . S
U46 O47 2.454 . S
U46 O48 2.458 . S
U46 C49 2.984 . S
U46 C50 2.847 . S
U46 C63 2.882 . S
U46 O64 2.441 . S
U46 O65 2.420 . S
U46 O66 2.455 . S
U46 O67 2.449 . S
O47 U46 2.454 . S
O47 C49 1.353 . S
O48 U46 2.458 . S
O48 C49 1.286 . S
C49 U46 2.984 . S
C49 O47 1.353 . S
C49 O48 1.286 . S
C49 C51 1.363 . S
C50 C40 1.465 . S
C50 U46 2.847 . S
C50 O64 1.249 . S
C50 O65 1.202 . S
C51 C49 1.363 . S
C51 C53 1.408 . S
C51 C56 1.342 . S
C52 C53 1.310 . S
C52 C55 1.461 . S
C52 H72 0.932 . S
C53 C51 1.408 . S
C53 C52 1.310 . S
C53 H73 0.930 . S
C54 C55 1.474 . S
C54 C56 1.285 . S
C54 H74 0.929 . S
C55 C52 1.461 . S
C55 C54 1.474 . S
C56 C51 1.342 . S
C56 C54 1.285 . S
C56 H75 0.930 . S
C57 C60 1.424 . S
C57 C62 1.245 . S
C57 C63 1.428 . S
C58 C61 1.260 1_556 S
C58 C62 1.477 1_556 S
C58 H76 0.932 . S
C59 C60 1.384 . S
C59 C61 1.479 . S
C59 H77 0.929 . S
C60 C57 1.424 . S
C60 C59 1.384 . S
C60 H78 0.928 . S
C61 C58 1.260 1_554 S
C61 C59 1.479 . S
C62 C57 1.245 . S
C62 C58 1.477 1_554 S
C62 H79 0.932 . S
C63 U46 2.882 . S
C63 C57 1.428 . S
C63 O66 1.301 . S
C63 O67 1.282 . S
O64 U46 2.441 . S
O64 C50 1.249 . S
O65 U46 2.420 . S
O65 C50 1.202 . S
O66 U46 2.455 . S
O66 C63 1.301 . S
O67 U46 2.449 . S
O67 C63 1.282 . S
H68 C41 0.931 . S
H69 C43 0.929 . S
H70 C44 0.930 . S
H71 C45 0.931 . S
H72 C52 0.932 . S
H73 C53 0.930 . S
H74 C54 0.929 . S
H75 C56 0.930 . S
H76 C58 0.932 . S
H77 C59 0.929 . S
H78 C60 0.928 . S
H79 C62 0.932 . S
C80 C81 1.264 . S
C80 C85 1.479 . S
C80 C90 1.465 . S
C81 C80 1.264 . S
C81 C83 1.339 . S
C81 H108 0.931 . S
C82 C83 1.395 . S
C82 C84 1.320 . S
C83 C81 1.339 . S
C83 C82 1.395 . S
C83 H109 0.929 . S
C84 C82 1.320 . S
C84 C85 1.405 . S
C84 H110 0.930 . S
C85 C80 1.479 . S
C85 C84 1.405 . S
C85 H111 0.931 . S
U86 O87 2.454 . S
U86 O88 2.458 . S
U86 C89 2.984 . S
U86 C90 2.847 . S
U86 C103 2.882 . S
U86 O104 2.441 . S
U86 O105 2.420 . S
U86 O106 2.455 . S
U86 O107 2.449 . S
O87 U86 2.454 . S
O87 C89 1.353 . S
O88 U86 2.458 . S
O88 C89 1.286 . S
C89 U86 2.984 . S
C89 O87 1.353 . S
C89 O88 1.286 . S
C89 C91 1.363 . S
C90 C80 1.465 . S
C90 U86 2.847 . S
C90 O104 1.249 . S
C90 O105 1.202 . S
C91 C89 1.363 . S
C91 C93 1.408 . S
C91 C96 1.342 . S
C92 C93 1.310 . S
C92 C95 1.461 . S
C92 H112 0.932 . S
C93 C91 1.408 . S
C93 C92 1.310 . S
C93 H113 0.930 . S
C94 C95 1.474 . S
C94 C96 1.285 . S
C94 H114 0.929 . S
C95 C92 1.461 . S
C95 C94 1.474 . S
C96 C91 1.342 . S
C96 C94 1.285 . S
C96 H115 0.930 . S
C97 C100 1.424 . S
C97 C102 1.245 . S
C97 C103 1.428 . S
C98 C101 1.260 1_556 S
C98 C102 1.477 1_556 S
C98 H116 0.932 . S
C99 C100 1.384 . S
C99 C101 1.479 . S
C99 H117 0.929 . S
C100 C97 1.424 . S
C100 C99 1.384 . S
C100 H118 0.928 . S
C101 C98 1.260 1_554 S
C101 C99 1.479 . S
C102 C97 1.245 . S
C102 C98 1.477 1_554 S
C102 H119 0.932 . S
C103 U86 2.882 . S
C103 C97 1.428 . S
C103 O106 1.301 . S
C103 O107 1.282 . S
O104 U86 2.441 . S
O104 C90 1.249 . S
O105 U86 2.420 . S
O105 C90 1.202 . S
O106 U86 2.455 . S
O106 C103 1.301 . S
O107 U86 2.449 . S
O107 C103 1.282 . S
H108 C81 0.931 . S
H109 C83 0.929 . S
H110 C84 0.930 . S
H111 C85 0.931 . S
H112 C92 0.932 . S
H113 C93 0.930 . S
H114 C94 0.929 . S
H115 C96 0.930 . S
H116 C98 0.932 . S
H117 C99 0.929 . S
H118 C100 0.928 . S
H119 C102 0.932 . S
C120 C121 1.264 . S
C120 C125 1.479 . S
C120 C130 1.465 . S
C121 C120 1.264 . S
C121 C123 1.339 . S
C121 H148 0.931 . S
C122 C123 1.395 . S
C122 C124 1.320 . S
C123 C121 1.339 . S
C123 C122 1.395 . S
C123 H149 0.929 . S
C124 C122 1.320 . S
C124 C125 1.405 . S
C124 H150 0.930 . S
C125 C120 1.479 . S
C125 C124 1.405 . S
C125 H151 0.931 . S
U126 O127 2.454 . S
U126 O128 2.458 . S
U126 C129 2.984 . S
U126 C130 2.847 . S
U126 C143 2.882 . S
U126 O144 2.441 . S
U126 O145 2.420 . S
U126 O146 2.455 . S
U126 O147 2.449 . S
O127 U126 2.454 . S
O127 C129 1.353 . S
O128 U126 2.458 . S
O128 C129 1.286 . S
C129 U126 2.984 . S
C129 O127 1.353 . S
C129 O128 1.286 . S
C129 C131 1.363 . S
C130 C120 1.465 . S
C130 U126 2.847 . S
C130 O144 1.249 . S
C130 O145 1.202 . S
C131 C129 1.363 . S
C131 C133 1.408 . S
C131 C136 1.342 . S
C132 C133 1.310 . S
C132 C135 1.461 . S
C132 H152 0.932 . S
C133 C131 1.408 . S
C133 C132 1.310 . S
C133 H153 0.930 . S
C134 C135 1.474 . S
C134 C136 1.285 . S
C134 H154 0.929 . S
C135 C132 1.461 . S
C135 C134 1.474 . S
C136 C131 1.342 . S
C136 C134 1.285 . S
C136 H155 0.930 . S
C137 C140 1.424 . S
C137 C142 1.245 . S
C137 C143 1.428 . S
C138 C141 1.260 1_556 S
C138 C142 1.477 1_556 S
C138 H156 0.932 . S
C139 C140 1.384 . S
C139 C141 1.479 . S
C139 H157 0.929 . S
C140 C137 1.424 . S
C140 C139 1.384 . S
C140 H158 0.928 . S
C141 C138 1.260 1_554 S
C141 C139 1.479 . S
C142 C137 1.245 . S
C142 C138 1.477 1_554 S
C142 H159 0.932 . S
C143 U126 2.882 . S
C143 C137 1.428 . S
C143 O146 1.301 . S
C143 O147 1.282 . S
O144 U126 2.441 . S
O144 C130 1.249 . S
O145 U126 2.420 . S
O145 C130 1.202 . S
O146 U126 2.455 . S
O146 C143 1.301 . S
O147 U126 2.449 . S
O147 C143 1.282 . S
H148 C121 0.931 . S
H149 C123 0.929 . S
H150 C124 0.930 . S
H151 C125 0.931 . S
H152 C132 0.932 . S
H153 C133 0.930 . S
H154 C134 0.929 . S
H155 C136 0.930 . S
H156 C138 0.932 . S
H157 C139 0.929 . S
H158 C140 0.928 . S
H159 C142 0.932 . S
C160 C161 1.264 . S
C160 C165 1.479 . S
C160 C170 1.465 . S
C161 C160 1.264 . S
C161 C163 1.339 . S
C161 H188 0.931 . S
C162 C163 1.395 . S
C162 C164 1.320 . S
C163 C161 1.339 . S
C163 C162 1.395 . S
C163 H189 0.929 . S
C164 C162 1.320 . S
C164 C165 1.405 . S
C164 H190 0.930 . S
C165 C160 1.479 . S
C165 C164 1.405 . S
C165 H191 0.931 . S
U166 O167 2.454 . S
U166 O168 2.458 . S
U166 C169 2.984 . S
U166 C170 2.847 1_554 S
U166 C183 2.882 . S
U166 O184 2.441 1_554 S
U166 O185 2.420 1_554 S
U166 O186 2.455 . S
U166 O187 2.449 . S
O167 U166 2.454 . S
O167 C169 1.353 . S
O168 U166 2.458 . S
O168 C169 1.286 . S
C169 U166 2.984 . S
C169 O167 1.353 . S
C169 O168 1.286 . S
C169 C171 1.363 . S
C170 C160 1.465 . S
C170 U166 2.847 1_556 S
C170 O184 1.249 . S
C170 O185 1.202 . S
C171 C169 1.363 . S
C171 C173 1.408 . S
C171 C176 1.342 . S
C172 C173 1.310 . S
C172 C175 1.461 . S
C172 H192 0.932 . S
C173 C171 1.408 . S
C173 C172 1.310 . S
C173 H193 0.924 1_554 S
C174 C175 1.474 . S
C174 C176 1.285 . S
C174 H194 0.929 . S
C175 C172 1.461 . S
C175 C174 1.474 . S
C176 C171 1.342 . S
C176 C174 1.285 . S
C176 H195 0.930 . S
C177 C180 1.424 . S
C177 C182 1.245 . S
C177 C183 1.428 . S
C178 C181 1.260 . S
C178 C182 1.477 . S
C178 H196 0.932 . S
C179 C180 1.384 . S
C179 C181 1.479 . S
C179 H197 0.929 . S
C180 C177 1.424 . S
C180 C179 1.384 . S
C180 H198 0.928 . S
C181 C178 1.260 . S
C181 C179 1.479 . S
C182 C177 1.245 . S
C182 C178 1.477 . S
C182 H199 0.932 . S
C183 U166 2.882 . S
C183 C177 1.428 . S
C183 O186 1.301 . S
C183 O187 1.282 . S
O184 U166 2.441 1_556 S
O184 C170 1.249 . S
O185 U166 2.420 1_556 S
O185 C170 1.202 . S
O186 U166 2.455 . S
O186 C183 1.301 . S
O187 U166 2.449 . S
O187 C183 1.282 . S
H188 C161 0.931 . S
H189 C163 0.929 . S
H190 C164 0.930 . S
H191 C165 0.931 . S
H192 C172 0.932 . S
H193 C173 0.924 1_556 S
H194 C174 0.929 . S
H195 C176 0.930 . S
H196 C178 0.932 . S
H197 C179 0.929 . S
H198 C180 0.928 . S
H199 C182 0.932 . S
C200 C201 1.264 . S
C200 C205 1.479 . S
C200 C210 1.465 . S
C201 C200 1.264 . S
C201 C203 1.339 . S
C201 H228 0.931 . S
C202 C203 1.395 . S
C202 C204 1.320 . S
C203 C201 1.339 . S
C203 C202 1.395 . S
C203 H229 0.929 . S
C204 C202 1.320 . S
C204 C205 1.405 . S
C204 H230 0.930 . S
C205 C200 1.479 . S
C205 C204 1.405 . S
C205 H231 0.931 . S
U206 O207 2.454 . S
U206 O208 2.458 . S
U206 C209 2.984 . S
U206 C210 2.847 1_554 S
U206 C223 2.882 . S
U206 O224 2.441 1_554 S
U206 O225 2.420 1_554 S
U206 O226 2.455 . S
U206 O227 2.449 . S
O207 U206 2.454 . S
O207 C209 1.353 . S
O208 U206 2.458 . S
O208 C209 1.286 . S
C209 U206 2.984 . S
C209 O207 1.353 . S
C209 O208 1.286 . S
C209 C211 1.363 . S
C210 C200 1.465 . S
C210 U206 2.847 1_556 S
C210 O224 1.249 . S
C210 O225 1.202 . S
C211 C209 1.363 . S
C211 C213 1.408 . S
C211 C216 1.342 . S
C212 C213 1.310 . S
C212 C215 1.461 . S
C212 H232 0.932 . S
C213 C211 1.408 . S
C213 C212 1.310 . S
C213 H233 0.930 . S
C214 C215 1.474 . S
C214 C216 1.285 . S
C214 H234 0.929 . S
C215 C212 1.461 . S
C215 C214 1.474 . S
C216 C211 1.342 . S
C216 C214 1.285 . S
C216 H235 0.930 . S
C217 C220 1.424 . S
C217 C222 1.245 . S
C217 C223 1.428 . S
C218 C221 1.260 . S
C218 C222 1.477 . S
C218 H236 0.932 . S
C219 C220 1.384 . S
C219 C221 1.479 . S
C219 H237 0.929 . S
C220 C217 1.424 . S
C220 C219 1.384 . S
C220 H238 0.928 . S
C221 C218 1.260 . S
C221 C219 1.479 . S
C222 C217 1.245 . S
C222 C218 1.477 . S
C222 H239 0.932 . S
C223 U206 2.882 . S
C223 C217 1.428 . S
C223 O226 1.301 . S
C223 O227 1.282 . S
O224 U206 2.441 1_556 S
O224 C210 1.249 . S
O225 U206 2.420 1_556 S
O225 C210 1.202 . S
O226 U206 2.455 . S
O226 C223 1.301 . S
O227 U206 2.449 . S
O227 C223 1.282 . S
H228 C201 0.931 . S
H229 C203 0.929 . S
H230 C204 0.930 . S
H231 C205 0.931 . S
H232 C212 0.932 . S
H233 C213 0.930 . S
H234 C214 0.929 . S
H235 C216 0.930 . S
H236 C218 0.932 . S
H237 C219 0.929 . S
H238 C220 0.928 . S
H239 C222 0.932 . S
C240 C241 1.264 . S
C240 C245 1.479 . S
C240 C250 1.465 . S
C241 C240 1.264 . S
C241 C243 1.339 . S
C241 H268 0.931 . S
C242 C243 1.395 . S
C242 C244 1.320 . S
C243 C241 1.339 . S
C243 C242 1.395 . S
C243 H269 0.929 . S
C244 C242 1.320 . S
C244 C245 1.405 . S
C244 H270 0.930 . S
C245 C240 1.479 . S
C245 C244 1.405 . S
C245 H271 0.931 . S
U246 O247 2.454 . S
U246 O248 2.458 . S
U246 C249 2.984 . S
U246 C250 2.847 1_554 S
U246 C263 2.882 . S
U246 O264 2.441 1_554 S
U246 O265 2.420 1_554 S
U246 O266 2.455 . S
U246 O267 2.449 . S
O247 U246 2.454 . S
O247 C249 1.353 . S
O248 U246 2.458 . S
O248 C249 1.286 . S
C249 U246 2.984 . S
C249 O247 1.353 . S
C249 O248 1.286 . S
C249 C251 1.363 . S
C250 C240 1.465 . S
C250 U246 2.847 1_556 S
C250 O264 1.249 . S
C250 O265 1.202 . S
C251 C249 1.363 . S
C251 C253 1.408 . S
C251 C256 1.342 . S
C252 C253 1.310 . S
C252 C255 1.461 . S
C252 H272 0.932 . S
C253 C251 1.408 . S
C253 C252 1.310 . S
C253 H273 0.930 . S
C254 C255 1.474 . S
C254 C256 1.285 . S
C254 H274 0.929 . S
C255 C252 1.461 . S
C255 C254 1.474 . S
C256 C251 1.342 . S
C256 C254 1.285 . S
C256 H275 0.930 . S
C257 C260 1.424 . S
C257 C262 1.245 . S
C257 C263 1.428 . S
C258 C261 1.260 . S
C258 C262 1.477 . S
C258 H276 0.932 . S
C259 C260 1.384 . S
C259 C261 1.479 . S
C259 H277 0.929 . S
C260 C257 1.424 . S
C260 C259 1.384 . S
C260 H278 0.928 . S
C261 C258 1.260 . S
C261 C259 1.479 . S
C262 C257 1.245 . S
C262 C258 1.477 . S
C262 H279 0.932 . S
C263 U246 2.882 . S
C263 C257 1.428 . S
C263 O266 1.301 . S
C263 O267 1.282 . S
O264 U246 2.441 1_556 S
O264 C250 1.249 . S
O265 U246 2.420 1_556 S
O265 C250 1.202 . S
O266 U246 2.455 . S
O266 C263 1.301 . S
O267 U246 2.449 . S
O267 C263 1.282 . S
H268 C241 0.931 . S
H269 C243 0.929 . S
H270 C244 0.930 . S
H271 C245 0.931 . S
H272 C252 0.932 . S
H273 C253 0.930 . S
H274 C254 0.929 . S
H275 C256 0.930 . S
H276 C258 0.932 . S
H277 C259 0.929 . S
H278 C260 0.928 . S
H279 C262 0.932 . S
C280 C281 1.264 . S
C280 C285 1.479 . S
C280 C290 1.465 . S
C281 C280 1.264 . S
C281 C283 1.339 . S
C281 H308 0.931 . S
C282 C283 1.395 . S
C282 C284 1.320 . S
C283 C281 1.339 . S
C283 C282 1.395 . S
C283 H309 0.929 . S
C284 C282 1.320 . S
C284 C285 1.405 . S
C284 H310 0.930 . S
C285 C280 1.479 . S
C285 C284 1.405 . S
C285 H311 0.931 . S
U286 O287 2.454 . S
U286 O288 2.458 . S
U286 C289 2.984 . S
U286 C290 2.847 1_554 S
U286 C303 2.882 . S
U286 O304 2.441 1_554 S
U286 O305 2.420 1_554 S
U286 O306 2.455 . S
U286 O307 2.449 . S
O287 U286 2.454 . S
O287 C289 1.353 . S
O288 U286 2.458 . S
O288 C289 1.286 . S
C289 U286 2.984 . S
C289 O287 1.353 . S
C289 O288 1.286 . S
C289 C291 1.363 . S
C290 C280 1.465 . S
C290 U286 2.847 1_556 S
C290 O304 1.249 . S
C290 O305 1.202 . S
C291 C289 1.363 . S
C291 C293 1.408 . S
C291 C296 1.342 . S
C292 C293 1.310 . S
C292 C295 1.461 . S
C292 H312 0.932 . S
C293 C291 1.408 . S
C293 C292 1.310 . S
C293 H313 0.930 1_554 S
C294 C295 1.474 . S
C294 C296 1.285 . S
C294 H314 0.929 . S
C295 C292 1.461 . S
C295 C294 1.474 . S
C296 C291 1.342 . S
C296 C294 1.285 . S
C296 H315 0.930 . S
C297 C300 1.424 . S
C297 C302 1.245 . S
C297 C303 1.428 . S
C298 C301 1.260 . S
C298 C302 1.477 . S
C298 H316 0.932 . S
C299 C300 1.384 . S
C299 C301 1.479 . S
C299 H317 0.929 . S
C300 C297 1.424 . S
C300 C299 1.384 . S
C300 H318 0.928 . S
C301 C298 1.260 . S
C301 C299 1.479 . S
C302 C297 1.245 . S
C302 C298 1.477 . S
C302 H319 0.932 . S
C303 U286 2.882 . S
C303 C297 1.428 . S
C303 O306 1.301 . S
C303 O307 1.282 . S
O304 U286 2.441 1_556 S
O304 C290 1.249 . S
O305 U286 2.420 1_556 S
O305 C290 1.202 . S
O306 U286 2.455 . S
O306 C303 1.301 . S
O307 U286 2.449 . S
O307 C303 1.282 . S
H308 C281 0.931 . S
H309 C283 0.929 . S
H310 C284 0.930 . S
H311 C285 0.931 . S
H312 C292 0.932 . S
H313 C293 0.930 1_556 S
H314 C294 0.929 . S
H315 C296 0.930 . S
H316 C298 0.932 . S
H317 C299 0.929 . S
H318 C300 0.928 . S
H319 C302 0.932 . S
Tb320 N349 2.617 . S
Tb320 N355 2.572 . S
Tb320 O364 2.465 . S
Tb320 O365 2.387 1_545 S
Tb320 O367 2.428 . S
Tb320 O368 2.308 1_655 S
Tb320 O372 2.349 1_655 S
Tb320 O375 2.393 . S
Tb320 C384 2.802 . S
C321 N322 1.379 . S
C321 C324 1.416 . S
C321 C328 1.424 . S
N322 C321 1.379 . S
N322 C325 1.334 1_545 S
N322 Tb331 2.617 1_545 S
C323 C325 1.389 1_545 S
C323 C326 1.339 . S
C323 H343 0.930 . S
C324 C321 1.416 . S
C324 C326 1.416 . S
C324 C330 1.448 . S
C325 N322 1.334 1_565 S
C325 C323 1.389 1_565 S
C325 H336 0.931 . S
C326 C323 1.339 . S
C326 C324 1.416 . S
C326 H347 0.930 . S
C327 C328 1.413 . S
C327 C329 1.427 . S
C327 C333 1.416 . S
C328 C321 1.424 . S
C328 C327 1.413 . S
C328 N332 1.361 . S
C329 C327 1.427 . S
C329 C330 1.328 . S
C329 H344 0.929 . S
C330 C324 1.448 . S
C330 C329 1.328 . S
C330 H345 0.930 . S
Tb331 N322 2.617 1_565 S
Tb331 N332 2.572 1_565 S
Tb331 O366 2.349 . S
Tb331 O369 2.393 . S
Tb331 O370 2.465 . S
Tb331 O371 2.387 1_565 S
Tb331 O373 2.428 . S
Tb331 O374 2.308 1_465 S
Tb331 C395 2.802 . S
N332 C328 1.361 . S
N332 Tb331 2.572 1_545 S
N332 C334 1.340 . S
C333 C327 1.416 . S
C333 C335 1.332 . S
C333 H341 0.931 . S
C334 N332 1.340 . S
C334 C335 1.407 . S
C334 H340 0.901 1_455 S
C335 C333 1.332 . S
C335 C334 1.407 . S
C335 H337 0.929 . S
H336 C325 0.931 . S
H337 C335 0.929 . S
H338 C353 0.930 . S
H339 C360 0.929 1_455 S
H340 C334 0.901 1_655 S
H341 C333 0.931 . S
H342 C356 0.930 1_455 S
H343 C323 0.930 . S
H344 C329 0.929 . S
H345 C330 0.930 . S
H346 C351 0.930 . S
H347 C326 0.930 . S
H348 C359 0.931 . S
N349 Tb320 2.617 . S
N349 C350 1.379 . S
N349 C353 1.334 . S
C350 N349 1.379 . S
C350 C352 1.416 1_545 S
C350 C358 1.424 . S
C351 H346 0.930 . S
C351 C353 1.390 . S
C351 C354 1.320 1_545 S
C352 C350 1.416 1_565 S
C352 C354 1.420 . S
C352 C385 1.448 . S
C353 H338 0.930 . S
C353 N349 1.334 . S
C353 C351 1.390 . S
C354 C351 1.320 1_565 S
C354 C352 1.420 . S
C354 H361 0.946 . S
N355 Tb320 2.572 . S
N355 C356 1.340 . S
N355 C358 1.361 . S
C356 H342 0.930 1_655 S
C356 N355 1.340 . S
C356 C360 1.407 1_545 S
C357 C358 1.413 1_565 S
C357 C359 1.416 . S
C357 C386 1.427 . S
C358 C350 1.424 . S
C358 N355 1.361 . S
C358 C357 1.413 1_545 S
C359 H348 0.931 . S
C359 C357 1.416 . S
C359 C360 1.332 . S
C360 H339 0.929 1_655 S
C360 C356 1.407 1_565 S
C360 C359 1.332 . S
H361 C354 0.946 . S
H362 C385 0.930 . S
H363 C386 0.929 . S
O364 Tb320 2.465 . S
O364 C384 1.264 . S
O365 Tb320 2.387 1_565 S
O365 C376 1.264 . S
O366 Tb331 2.349 . S
O366 C376 1.243 1_455 S
O367 Tb320 2.428 . S
O367 C384 1.256 . S
O368 Tb320 2.308 1_455 S
O368 C383 1.266 . S
O369 Tb331 2.393 . S
O369 C383 1.248 1_565 S
O370 Tb331 2.465 . S
O370 C395 1.264 . S
O371 Tb331 2.387 1_545 S
O371 C387 1.264 . S
O372 Tb320 2.349 1_455 S
O372 C387 1.243 . S
O373 Tb331 2.428 . S
O373 C395 1.256 . S
O374 Tb331 2.308 1_645 S
O374 C394 1.266 . S
O375 Tb320 2.393 . S
O375 C394 1.248 . S
C376 O365 1.264 . S
C376 O366 1.243 1_655 S
C377 C380 1.399 . S
C377 C382 1.383 . S
C377 C384 1.496 . S
C378 C379 1.399 . S
C378 C382 1.389 . S
C379 C378 1.399 . S
C379 C381 1.380 . S
C379 H396 0.929 . S
C380 C377 1.399 . S
C380 C381 1.392 . S
C380 H397 0.929 . S
C381 C379 1.380 . S
C381 C380 1.392 . S
C381 H398 0.929 . S
C382 C377 1.383 . S
C382 C378 1.389 . S
C382 H399 0.931 1_655 S
C383 O368 1.266 . S
C383 O369 1.248 1_545 S
C384 Tb320 2.802 . S
C384 O364 1.264 . S
C384 O367 1.256 . S
C384 C377 1.496 . S
C385 C352 1.448 . S
C385 H362 0.930 . S
C385 C386 1.328 . S
C386 C357 1.427 . S
C386 H363 0.929 . S
C386 C385 1.328 . S
C387 O371 1.264 . S
C387 O372 1.243 . S
C388 C391 1.399 . S
C388 C392 1.383 . S
C388 C395 1.496 . S
C389 C390 1.399 . S
C389 C392 1.389 . S
C390 C389 1.399 . S
C390 C393 1.380 . S
C390 H400 0.929 . S
C391 C388 1.399 . S
C391 C393 1.392 . S
C391 H401 0.929 . S
C392 C388 1.383 . S
C392 C389 1.389 . S
C392 H402 0.931 . S
C393 C390 1.380 . S
C393 C391 1.392 . S
C393 H403 0.929 . S
C394 O374 1.266 . S
C394 O375 1.248 . S
C395 Tb331 2.802 . S
C395 O370 1.264 . S
C395 O373 1.256 . S
C395 C388 1.496 . S
H396 C379 0.929 . S
H397 C380 0.929 . S
H398 C381 0.929 . S
H399 C382 0.931 1_455 S
H400 C390 0.929 . S
H401 C391 0.929 . S
H402 C392 0.931 . S
H403 C393 0.929 . S
Tb404 N433 2.617 . S
Tb404 N439 2.572 . S
Tb404 O448 2.465 . S
Tb404 O449 2.387 . S
Tb404 O451 2.428 . S
Tb404 O452 2.308 . S
Tb404 O456 2.349 1_545 S
Tb404 O459 2.393 . S
Tb404 C468 2.802 . S
C405 N406 1.379 . S
C405 C408 1.416 . S
C405 C412 1.424 . S
N406 C405 1.379 . S
N406 C409 1.334 . S
N406 Tb415 2.617 . S
C407 C409 1.390 . S
C407 C410 1.339 . S
C407 H427 0.930 . S
C408 C405 1.416 . S
C408 C410 1.416 . S
C408 C414 1.448 . S
C409 N406 1.334 . S
C409 C407 1.390 . S
C409 H420 0.930 . S
C410 C407 1.339 . S
C410 C408 1.416 . S
C410 H431 0.930 . S
C411 C412 1.413 . S
C411 C413 1.427 . S
C411 C417 1.416 . S
C412 C405 1.424 . S
C412 C411 1.413 . S
C412 N416 1.361 . S
C413 C411 1.427 . S
C413 C414 1.328 . S
C413 H428 0.929 . S
C414 C408 1.448 . S
C414 C413 1.328 . S
C414 H429 0.930 . S
Tb415 N406 2.617 . S
Tb415 N416 2.572 . S
Tb415 O450 2.349 1_565 S
Tb415 O453 2.393 . S
Tb415 O454 2.465 . S
Tb415 O455 2.387 . S
Tb415 O457 2.428 . S
Tb415 O458 2.308 1_565 S
Tb415 C479 2.802 . S
N416 C412 1.361 . S
N416 Tb415 2.572 . S
N416 C418 1.340 . S
C417 C411 1.416 . S
C417 C419 1.332 . S
C417 H425 0.931 . S
C418 N416 1.340 . S
C418 C419 1.407 . S
C418 H424 0.930 . S
C419 C417 1.332 . S
C419 C418 1.407 . S
C419 H421 0.929 . S
H420 C409 0.930 . S
H421 C419 0.929 . S
H422 C437 0.930 . S
H423 C444 0.929 . S
H424 C418 0.930 . S
H425 C417 0.931 . S
H426 C440 0.930 . S
H427 C407 0.930 . S
H428 C413 0.929 . S
H429 C414 0.930 . S
H430 C435 0.930 . S
H431 C410 0.930 . S
H432 C443 0.931 . S
N433 Tb404 2.617 . S
N433 C434 1.379 . S
N433 C437 1.334 . S
C434 N433 1.379 . S
C434 C436 1.416 . S
C434 C442 1.424 . S
C435 H430 0.930 . S
C435 C437 1.390 . S
C435 C438 1.339 . S
C436 C434 1.416 . S
C436 C438 1.416 . S
C436 C469 1.448 . S
C437 H422 0.930 . S
C437 N433 1.334 . S
C437 C435 1.390 . S
C438 C435 1.339 . S
C438 C436 1.416 . S
C438 H445 0.930 . S
N439 Tb404 2.572 . S
N439 C440 1.340 . S
N439 C442 1.361 . S
C440 H426 0.930 . S
C440 N439 1.340 . S
C440 C444 1.407 . S
C441 C442 1.413 . S
C441 C443 1.416 . S
C441 C470 1.427 . S
C442 C434 1.424 . S
C442 N439 1.361 . S
C442 C441 1.413 . S
C443 H432 0.931 . S
C443 C441 1.416 . S
C443 C444 1.332 . S
C444 H423 0.929 . S
C444 C440 1.407 . S
C444 C443 1.332 . S
H445 C438 0.930 . S
H446 C469 0.930 . S
H447 C470 0.929 . S
O448 Tb404 2.465 . S
O448 C468 1.264 . S
O449 Tb404 2.387 . S
O449 C460 1.264 . S
O450 Tb415 2.349 1_545 S
O450 C460 1.243 . S
O451 Tb404 2.428 . S
O451 C468 1.256 . S
O452 Tb404 2.308 . S
O452 C467 1.252 1_545 S
O453 Tb415 2.393 . S
O453 C467 1.257 . S
O454 Tb415 2.465 . S
O454 C479 1.264 . S
O455 Tb415 2.387 . S
O455 C471 1.264 . S
O456 Tb404 2.349 1_565 S
O456 C471 1.243 . S
O457 Tb415 2.428 . S
O457 C479 1.256 . S
O458 Tb415 2.308 1_545 S
O458 C478 1.266 . S
O459 Tb404 2.393 . S
O459 C478 1.248 . S
C460 O449 1.264 . S
C460 O450 1.243 . S
C461 C464 1.399 . S
C461 C466 1.383 . S
C461 C468 1.496 . S
C462 C463 1.399 . S
C462 C466 1.389 . S
C463 C462 1.399 . S
C463 C465 1.380 . S
C463 H480 0.929 . S
C464 C461 1.399 . S
C464 C465 1.392 . S
C464 H481 0.929 . S
C465 C463 1.380 . S
C465 C464 1.392 . S
C465 H482 0.929 1_556 S
C466 C461 1.383 . S
C466 C462 1.389 . S
C466 H483 0.931 . S
C467 O452 1.252 1_565 S
C467 O453 1.257 . S
C468 Tb404 2.802 . S
C468 O448 1.264 . S
C468 O451 1.256 . S
C468 C461 1.496 . S
C469 C436 1.448 . S
C469 H446 0.930 . S
C469 C470 1.328 . S
C470 C441 1.427 . S
C470 H447 0.929 . S
C470 C469 1.328 . S
C471 O455 1.264 . S
C471 O456 1.243 . S
C472 C475 1.399 . S
C472 C476 1.383 1_565 S
C472 C479 1.496 . S
C473 C474 1.399 1_545 S
C473 C476 1.389 . S
C474 C473 1.399 1_565 S
C474 C477 1.380 . S
C474 H484 0.929 . S
C475 C472 1.399 . S
C475 C477 1.392 . S
C475 H485 0.929 . S
C476 C472 1.383 1_545 S
C476 C473 1.389 . S
C476 H486 0.931 . S
C477 C474 1.380 . S
C477 C475 1.392 . S
C477 H487 0.929 . S
C478 O458 1.266 . S
C478 O459 1.248 . S
C479 Tb415 2.802 . S
C479 O454 1.264 . S
C479 O457 1.256 . S
C479 C472 1.496 . S
H480 C463 0.929 . S
H481 C464 0.929 . S
H482 C465 0.929 1_554 S
H483 C466 0.931 . S
H484 C474 0.929 . S
H485 C475 0.929 . S
H486 C476 0.931 . S
H487 C477 0.929 . S
Tb488 N517 2.617 . S
Tb488 N523 2.572 . S
Tb488 O532 2.465 . S
Tb488 O533 2.387 . S
Tb488 O535 2.428 . S
Tb488 O536 2.308 . S
Tb488 O540 2.349 . S
Tb488 O543 2.393 . S
Tb488 C552 2.802 . S
C489 N490 1.379 . S
C489 C492 1.416 . S
C489 C496 1.424 . S
N490 C489 1.379 . S
N490 C493 1.334 . S
N490 Tb499 2.617 . S
C491 C493 1.390 . S
C491 C494 1.339 . S
C491 H511 0.930 . S
C492 C489 1.416 . S
C492 C494 1.416 . S
C492 C498 1.448 . S
C493 N490 1.334 . S
C493 C491 1.390 . S
C493 H504 0.930 . S
C494 C491 1.339 . S
C494 C492 1.416 . S
C494 H515 0.930 . S
C495 C496 1.413 . S
C495 C497 1.427 . S
C495 C501 1.416 . S
C496 C489 1.424 . S
C496 C495 1.413 . S
C496 N500 1.361 . S
C497 C495 1.427 . S
C497 C498 1.328 . S
C497 H512 0.929 . S
C498 C492 1.448 . S
C498 C497 1.328 . S
C498 H513 0.930 . S
Tb499 N490 2.617 . S
Tb499 N500 2.572 . S
Tb499 O534 2.349 . S
Tb499 O537 2.393 . S
Tb499 O538 2.465 . S
Tb499 O539 2.387 . S
Tb499 O541 2.428 . S
Tb499 O542 2.308 . S
Tb499 C563 2.802 . S
N500 C496 1.361 . S
N500 Tb499 2.572 . S
N500 C502 1.340 . S
C501 C495 1.416 . S
C501 C503 1.332 . S
C501 H509 0.931 . S
C502 N500 1.340 . S
C502 C503 1.407 . S
C502 H508 0.930 . S
C503 C501 1.332 . S
C503 C502 1.407 . S
C503 H505 0.929 . S
H504 C493 0.930 . S
H505 C503 0.929 . S
H506 C521 0.930 . S
H507 C528 0.929 . S
H508 C502 0.930 . S
H509 C501 0.931 . S
H510 C524 0.930 . S
H511 C491 0.930 . S
H512 C497 0.929 . S
H513 C498 0.930 . S
H514 C519 0.930 . S
H515 C494 0.930 . S
H516 C527 0.931 . S
N517 Tb488 2.617 . S
N517 C518 1.379 . S
N517 C521 1.334 . S
C518 N517 1.379 . S
C518 C520 1.416 . S
C518 C526 1.424 . S
C519 H514 0.930 . S
C519 C521 1.390 . S
C519 C522 1.339 . S
C520 C518 1.416 . S
C520 C522 1.416 . S
C520 C553 1.448 . S
C521 H506 0.930 . S
C521 N517 1.334 . S
C521 C519 1.390 . S
C522 C519 1.339 . S
C522 C520 1.416 . S
C522 H529 0.930 . S
N523 Tb488 2.572 . S
N523 C524 1.340 . S
N523 C526 1.361 . S
C524 H510 0.930 . S
C524 N523 1.340 . S
C524 C528 1.407 . S
C525 C526 1.413 . S
C525 C527 1.416 . S
C525 C554 1.427 . S
C526 C518 1.424 . S
C526 N523 1.361 . S
C526 C525 1.413 . S
C527 H516 0.931 . S
C527 C525 1.416 . S
C527 C528 1.332 . S
C528 H507 0.929 . S
C528 C524 1.407 . S
C528 C527 1.332 . S
H529 C522 0.930 . S
H530 C553 0.930 . S
H531 C554 0.929 . S
O532 Tb488 2.465 . S
O532 C552 1.264 . S
O533 Tb488 2.387 . S
O533 C544 1.264 . S
O534 Tb499 2.349 . S
O534 C544 1.243 . S
O535 Tb488 2.428 . S
O535 C552 1.256 . S
O536 Tb488 2.308 . S
O536 C551 1.266 . S
O537 Tb499 2.393 . S
O537 C551 1.248 . S
O538 Tb499 2.465 . S
O538 C563 1.264 . S
O539 Tb499 2.387 . S
O539 C555 1.264 . S
O540 Tb488 2.349 . S
O540 C555 1.243 . S
O541 Tb499 2.428 . S
O541 C563 1.256 . S
O542 Tb499 2.308 . S
O542 C562 1.266 . S
O543 Tb488 2.393 . S
O543 C562 1.248 . S
C544 O533 1.264 . S
C544 O534 1.243 . S
C545 C548 1.399 . S
C545 C550 1.383 . S
C545 C552 1.496 . S
C546 C547 1.399 . S
C546 C550 1.389 . S
C547 C546 1.399 . S
C547 C549 1.380 . S
C547 H564 0.929 . S
C548 C545 1.399 . S
C548 C549 1.392 . S
C548 H565 0.929 . S
C549 C547 1.380 . S
C549 C548 1.392 . S
C549 H566 0.929 . S
C550 C545 1.383 . S
C550 C546 1.389 . S
C550 H567 0.931 . S
C551 O536 1.266 . S
C551 O537 1.248 . S
C552 Tb488 2.802 . S
C552 O532 1.264 . S
C552 O535 1.256 . S
C552 C545 1.496 . S
C553 C520 1.448 . S
C553 H530 0.930 . S
C553 C554 1.328 . S
C554 C525 1.427 . S
C554 H531 0.929 . S
C554 C553 1.328 . S
C555 O539 1.264 . S
C555 O540 1.243 . S
C556 C559 1.399 . S
C556 C560 1.383 . S
C556 C563 1.496 . S
C557 C558 1.399 . S
C557 C560 1.389 . S
C558 C557 1.399 . S
C558 C561 1.380 . S
C558 H568 0.929 . S
C559 C556 1.399 . S
C559 C561 1.392 . S
C559 H569 0.929 . S
C560 C556 1.383 . S
C560 C557 1.389 . S
C560 H570 0.931 . S
C561 C558 1.380 . S
C561 C559 1.392 . S
C561 H571 0.929 . S
C562 O542 1.266 . S
C562 O543 1.248 . S
C563 Tb499 2.802 . S
C563 O538 1.264 . S
C563 O541 1.256 . S
C563 C556 1.496 . S
H564 C547 0.929 . S
H565 C548 0.929 . S
H566 C549 0.929 . S
H567 C550 0.931 . S
H568 C558 0.929 . S
H569 C559 0.929 . S
H570 C560 0.931 . S
H571 C561 0.929 . S
Tb572 N601 2.617 . S
Tb572 N607 2.572 . S
Tb572 O616 2.465 . S
Tb572 O617 2.387 1_455 S
Tb572 O619 2.428 . S
Tb572 O620 2.308 . S
Tb572 O624 2.349 . S
Tb572 O627 2.393 . S
Tb572 C636 2.802 . S
C573 N574 1.379 1_455 S
C573 C576 1.416 . S
C573 C580 1.424 . S
N574 C573 1.379 1_655 S
N574 C577 1.334 . S
N574 Tb583 2.617 . S
C575 C577 1.390 1_455 S
C575 C578 1.339 . S
C575 H595 0.930 . S
C576 C573 1.416 . S
C576 C578 1.416 . S
C576 C582 1.448 . S
C577 N574 1.334 . S
C577 C575 1.390 1_655 S
C577 H588 0.930 . S
C578 C575 1.339 . S
C578 C576 1.416 . S
C578 H599 0.930 . S
C579 C580 1.413 . S
C579 C581 1.427 . S
C579 C585 1.416 . S
C580 C573 1.424 . S
C580 C579 1.413 . S
C580 N584 1.361 . S
C581 C579 1.427 . S
C581 C582 1.328 . S
C581 H596 0.929 . S
C582 C576 1.448 . S
C582 C581 1.328 . S
C582 H597 0.930 . S
Tb583 N574 2.617 . S
Tb583 N584 2.572 1_655 S
Tb583 O618 2.349 . S
Tb583 O621 2.393 . S
Tb583 O622 2.465 . S
Tb583 O623 2.387 1_655 S
Tb583 O625 2.428 . S
Tb583 O626 2.319 . S
Tb583 C647 2.802 . S
N584 C580 1.361 . S
N584 Tb583 2.572 1_455 S
N584 C586 1.340 . S
C585 C579 1.416 . S
C585 C587 1.332 . S
C585 H593 0.931 . S
C586 N584 1.340 . S
C586 C587 1.407 . S
C586 H592 0.930 1_455 S
C587 C585 1.332 . S
C587 C586 1.407 . S
C587 H589 0.929 . S
H588 C577 0.930 . S
H589 C587 0.929 . S
H590 C605 0.930 . S
H591 C612 0.929 . S
H592 C586 0.930 1_655 S
H593 C585 0.931 . S
H594 C608 0.930 . S
H595 C575 0.930 . S
H596 C581 0.929 . S
H597 C582 0.930 . S
H598 C603 0.930 . S
H599 C578 0.930 . S
H600 C611 0.931 . S
N601 Tb572 2.617 . S
N601 C602 1.379 . S
N601 C605 1.334 . S
C602 N601 1.379 . S
C602 C604 1.416 1_455 S
C602 C610 1.426 . S
C603 H598 0.930 . S
C603 C605 1.390 . S
C603 C606 1.339 1_455 S
C604 C602 1.416 1_655 S
C604 C606 1.416 . S
C604 C637 1.448 . S
C605 H590 0.930 . S
C605 N601 1.334 . S
C605 C603 1.390 . S
C606 C603 1.339 1_655 S
C606 C604 1.416 . S
C606 H613 0.930 . S
N607 Tb572 2.572 . S
N607 C608 1.340 . S
N607 C610 1.370 . S
C608 H594 0.930 . S
C608 N607 1.340 . S
C608 C612 1.407 1_455 S
C609 C610 1.402 1_655 S
C609 C611 1.416 . S
C609 C638 1.427 . S
C610 C602 1.426 . S
C610 N607 1.370 . S
C610 C609 1.402 1_455 S
C611 H600 0.931 . S
C611 C609 1.416 . S
C611 C612 1.332 . S
C612 H591 0.929 . S
C612 C608 1.407 1_655 S
C612 C611 1.332 . S
H613 C606 0.930 . S
H614 C637 0.930 . S
H615 C638 0.929 . S
O616 Tb572 2.465 . S
O616 C636 1.264 . S
O617 Tb572 2.387 1_655 S
O617 C628 1.264 . S
O618 Tb583 2.349 . S
O618 C628 1.243 . S
O619 Tb572 2.428 . S
O619 C636 1.256 . S
O620 Tb572 2.308 . S
O620 C635 1.266 . S
O621 Tb583 2.393 . S
O621 C635 1.248 1_655 S
O622 Tb583 2.465 . S
O622 C647 1.264 . S
O623 Tb583 2.387 1_455 S
O623 C639 1.264 . S
O624 Tb572 2.349 . S
O624 C639 1.243 . S
O625 Tb583 2.428 . S
O625 C647 1.256 . S
O626 Tb583 2.319 . S
O626 C646 1.258 1_655 S
O627 Tb572 2.393 . S
O627 C646 1.248 . S
C628 O617 1.264 . S
C628 O618 1.243 . S
C629 C632 1.399 . S
C629 C634 1.383 . S
C629 C636 1.496 . S
C630 C631 1.399 . S
C630 C634 1.389 . S
C631 C630 1.399 . S
C631 C633 1.380 . S
C631 H648 0.929 . S
C632 C629 1.399 . S
C632 C633 1.392 . S
C632 H649 0.929 . S
C633 C631 1.380 . S
C633 C632 1.392 . S
C633 H650 0.929 . S
C634 C629 1.383 . S
C634 C630 1.389 . S
C634 H651 0.931 . S
C635 O620 1.266 . S
C635 O621 1.248 1_455 S
C636 Tb572 2.802 . S
C636 O616 1.264 . S
C636 O619 1.256 . S
C636 C629 1.496 . S
C637 C604 1.448 . S
C637 H614 0.930 . S
C637 C638 1.328 . S
C638 C609 1.427 . S
C638 H615 0.929 . S
C638 C637 1.328 . S
C639 O623 1.264 . S
C639 O624 1.243 . S
C640 C643 1.399 . S
C640 C644 1.383 . S
C640 C647 1.496 . S
C641 C642 1.399 . S
C641 C644 1.389 . S
C642 C641 1.399 . S
C642 C645 1.380 . S
C642 H652 0.929 . S
C643 C640 1.399 . S
C643 C645 1.392 . S
C643 H653 0.929 . S
C644 C640 1.383 . S
C644 C641 1.389 . S
C644 H654 0.931 . S
C645 C642 1.380 . S
C645 C643 1.392 . S
C645 H655 0.929 . S
C646 O626 1.258 1_455 S
C646 O627 1.248 . S
C647 Tb583 2.802 . S
C647 O622 1.264 . S
C647 O625 1.256 . S
C647 C640 1.496 . S
H648 C631 0.929 . S
H649 C632 0.929 . S
H650 C633 0.929 . S
H651 C634 0.931 . S
H652 C642 0.929 . S
H653 C643 0.929 . S
H654 C644 0.931 . S
H655 C645 0.929 . S
H656 C662 0.930 . S
H657 C665 0.930 . S
H658 C666 0.930 1_565 S
H659 C667 0.934 . S
H660 C670 0.930 . S
H661 C671 0.930 . S
C662 H656 0.930 . S
C662 C663 1.355 . S
C662 C664 1.415 . S
C663 C662 1.355 . S
C663 C665 1.419 . S
C664 C662 1.415 . S
C664 C669 1.425 . S
C664 C671 1.409 . S
C665 H657 0.930 . S
C665 C663 1.419 . S
C665 C666 1.362 . S
C666 H658 0.930 1_545 S
C666 C665 1.362 . S
C666 C669 1.409 . S
C667 H659 0.934 . S
C667 C668 1.355 . S
C667 C669 1.415 . S
C668 C667 1.355 . S
C668 C670 1.419 . S
C669 C664 1.425 . S
C669 C666 1.409 . S
C669 C667 1.415 . S
C670 H660 0.930 . S
C670 C668 1.419 . S
C670 C671 1.362 . S
C671 H661 0.930 . S
C671 C664 1.409 . S
C671 C670 1.362 . S
H672 C678 0.930 . S
H673 C681 0.930 . S
H674 C682 0.930 . S
H675 C683 0.930 . S
H676 C686 0.930 . S
H677 C687 0.930 . S
C678 H672 0.930 . S
C678 C679 1.355 . S
C678 C680 1.415 . S
C679 C678 1.355 . S
C679 C681 1.419 . S
C680 C678 1.415 . S
C680 C685 1.425 . S
C680 C687 1.409 . S
C681 H673 0.930 . S
C681 C679 1.419 . S
C681 C682 1.362 . S
C682 H674 0.930 . S
C682 C681 1.362 . S
C682 C685 1.409 . S
C683 H675 0.930 . S
C683 C684 1.355 . S
C683 C685 1.415 . S
C684 C683 1.355 . S
C684 C686 1.419 . S
C685 C680 1.425 . S
C685 C682 1.409 . S
C685 C683 1.415 . S
C686 H676 0.930 . S
C686 C684 1.419 . S
C686 C687 1.362 . S
C687 H677 0.930 . S
C687 C680 1.409 . S
C687 C686 1.362 . S
H688 C694 0.930 . S
H689 C697 0.930 . S
H690 C698 0.930 . S
H691 C699 0.930 . S
H692 C702 0.930 . S
H693 C703 0.930 . S
C694 H688 0.930 . S
C694 C695 1.355 . S
C694 C696 1.415 . S
C695 C694 1.355 . S
C695 C697 1.419 . S
C696 C694 1.415 . S
C696 C701 1.425 . S
C696 C703 1.409 . S
C697 H689 0.930 . S
C697 C695 1.419 . S
C697 C698 1.362 . S
C698 H690 0.930 . S
C698 C697 1.362 . S
C698 C701 1.409 . S
C699 H691 0.930 . S
C699 C700 1.355 . S
C699 C701 1.415 . S
C700 C699 1.355 . S
C700 C702 1.419 . S
C701 C696 1.425 . S
C701 C698 1.409 . S
C701 C699 1.415 . S
C702 H692 0.930 . S
C702 C700 1.419 . S
C702 C703 1.362 . S
C703 H693 0.930 . S
C703 C696 1.409 . S
C703 C702 1.362 . S
H704 C710 0.930 . S
H705 C713 0.930 . S
H706 C714 0.930 . S
H707 C715 0.930 . S
H708 C718 0.930 . S
H709 C719 0.930 . S
C710 H704 0.930 . S
C710 C711 1.355 . S
C710 C712 1.415 . S
C711 C710 1.355 . S
C711 C713 1.419 . S
C712 C710 1.415 . S
C712 C717 1.425 . S
C712 C719 1.409 1_455 S
C713 H705 0.930 . S
C713 C711 1.419 . S
C713 C714 1.362 . S
C714 H706 0.930 . S
C714 C713 1.362 . S
C714 C717 1.409 . S
C715 H707 0.930 . S
C715 C716 1.355 . S
C715 C717 1.415 . S
C716 C715 1.355 . S
C716 C718 1.419 1_455 S
C717 C712 1.425 . S
C717 C714 1.409 . S
C717 C715 1.415 . S
C718 H708 0.930 . S
C718 C716 1.419 1_655 S
C718 C719 1.362 . S
C719 H709 0.930 . S
C719 C712 1.409 1_655 S
C719 C718 1.362 . S
H720 C726 0.930 1_545 S
H721 C729 0.930 . S
H722 C730 0.930 . S
H723 C731 0.930 . S
H724 C734 0.930 . S
H725 C735 0.930 . S
C726 H720 0.930 1_565 S
C726 C727 1.355 . S
C726 C728 1.415 1_554 S
C727 C726 1.355 . S
C727 C729 1.419 . S
C728 C726 1.415 1_556 S
C728 C733 1.425 . S
C728 C735 1.409 1_565 S
C729 H721 0.930 . S
C729 C727 1.419 . S
C729 C730 1.362 1_554 S
C730 H722 0.930 . S
C730 C729 1.362 1_556 S
C730 C733 1.409 . S
C731 H723 0.930 . S
C731 C732 1.355 . S
C731 C733 1.415 . S
C732 C731 1.355 . S
C732 C734 1.419 1_565 S
C733 C728 1.425 . S
C733 C730 1.409 . S
C733 C731 1.415 . S
C734 H724 0.930 . S
C734 C732 1.419 1_545 S
C734 C735 1.362 . S
C735 H725 0.930 . S
C735 C728 1.409 1_545 S
C735 C734 1.362 . S
H736 C742 0.930 . S
H737 C745 0.930 . S
H738 C746 0.930 . S
H739 C747 0.930 . S
H740 C750 0.930 . S
H741 C751 0.930 . S
C742 H736 0.930 . S
C742 C743 1.355 . S
C742 C744 1.415 1_554 S
C743 C742 1.355 . S
C743 C745 1.419 . S
C744 C742 1.415 1_556 S
C744 C749 1.425 . S
C744 C751 1.409 . S
C745 H737 0.930 . S
C745 C743 1.419 . S
C745 C746 1.362 1_554 S
C746 H738 0.930 . S
C746 C745 1.362 1_556 S
C746 C749 1.409 . S
C747 H739 0.930 . S
C747 C748 1.355 . S
C747 C749 1.415 . S
C748 C747 1.355 . S
C748 C750 1.419 . S
C749 C744 1.425 . S
C749 C746 1.409 . S
C749 C747 1.415 . S
C750 H740 0.930 . S
C750 C748 1.419 . S
C750 C751 1.362 . S
C751 H741 0.930 . S
C751 C744 1.409 . S
C751 C750 1.362 . S
H752 C758 0.930 . S
H753 C761 0.930 . S
H754 C762 0.930 . S
H755 C763 0.930 . S
H756 C766 0.930 . S
H757 C767 0.930 . S
C758 H752 0.930 . S
C758 C759 1.355 . S
C758 C760 1.415 1_554 S
C759 C758 1.355 . S
C759 C761 1.419 . S
C760 C758 1.415 1_556 S
C760 C765 1.425 . S
C760 C767 1.409 . S
C761 H753 0.930 . S
C761 C759 1.419 . S
C761 C762 1.362 1_554 S
C762 H754 0.930 . S
C762 C761 1.362 1_556 S
C762 C765 1.409 . S
C763 H755 0.930 . S
C763 C764 1.355 . S
C763 C765 1.415 . S
C764 C763 1.355 . S
C764 C766 1.419 . S
C765 C760 1.425 . S
C765 C762 1.409 . S
C765 C763 1.415 . S
C766 H756 0.930 . S
C766 C764 1.419 . S
C766 C767 1.362 . S
C767 H757 0.930 . S
C767 C760 1.409 . S
C767 C766 1.362 . S
H768 C774 0.930 . S
H769 C777 0.930 . S
H770 C778 0.922 1_455 S
H771 C779 0.919 1_455 S
H772 C782 0.930 . S
H773 C783 0.930 . S
C774 H768 0.930 . S
C774 C775 1.355 . S
C774 C776 1.415 1_554 S
C775 C774 1.355 . S
C775 C777 1.419 . S
C776 C774 1.415 1_556 S
C776 C781 1.425 . S
C776 C783 1.409 . S
C777 H769 0.930 . S
C777 C775 1.419 . S
C777 C778 1.366 1_554 S
C778 H770 0.922 1_655 S
C778 C777 1.366 1_556 S
C778 C781 1.413 . S
C779 H771 0.919 1_655 S
C779 C780 1.360 . S
C779 C781 1.419 . S
C780 C779 1.360 . S
C780 C782 1.419 . S
C781 C776 1.425 . S
C781 C778 1.413 . S
C781 C779 1.419 . S
C782 H772 0.930 . S
C782 C780 1.419 . S
C782 C783 1.362 . S
C783 H773 0.930 . S
C783 C776 1.409 . S
C783 C782 1.362 . S
H784 C790 0.930 . S
H785 C793 0.930 . S
H786 C794 0.930 . S
H787 C795 0.930 . S
H788 C798 0.930 . S
H789 C799 0.930 . S
C790 H784 0.930 . S
C790 C791 1.355 . S
C790 C792 1.415 . S
C791 C790 1.355 . S
C791 C793 1.419 . S
C792 C790 1.415 . S
C792 C797 1.425 . S
C792 C799 1.409 1_455 S
C793 H785 0.930 . S
C793 C791 1.419 . S
C793 C794 1.362 . S
C794 H786 0.930 . S
C794 C793 1.362 . S
C794 C797 1.409 . S
C795 H787 0.930 . S
C795 C796 1.355 1_455 S
C795 C797 1.415 . S
C796 C795 1.355 1_655 S
C796 C798 1.419 . S
C797 C792 1.425 . S
C797 C794 1.409 . S
C797 C795 1.415 . S
C798 H788 0.930 . S
C798 C796 1.419 . S
C798 C799 1.362 . S
C799 H789 0.930 . S
C799 C792 1.409 1_655 S
C799 C798 1.362 . S
H800 C806 0.930 . S
H801 C809 0.930 . S
H802 C810 0.930 . S
H803 C811 0.930 1_565 S
H804 C814 0.930 . S
H805 C815 0.930 . S
C806 H800 0.930 . S
C806 C807 1.355 . S
C806 C808 1.415 . S
C807 C806 1.355 . S
C807 C809 1.419 . S
C808 C806 1.415 . S
C808 C813 1.425 . S
C808 C815 1.409 . S
C809 H801 0.930 . S
C809 C807 1.419 . S
C809 C810 1.362 . S
C810 H802 0.930 . S
C810 C809 1.362 . S
C810 C813 1.409 . S
C811 H803 0.930 1_545 S
C811 C812 1.355 . S
C811 C813 1.415 . S
C812 C811 1.355 . S
C812 C814 1.419 . S
C813 C808 1.425 . S
C813 C810 1.409 . S
C813 C811 1.415 . S
C814 H804 0.930 . S
C814 C812 1.419 . S
C814 C815 1.362 . S
C815 H805 0.930 . S
C815 C808 1.409 . S
C815 C814 1.362 . S
H816 C822 0.930 . S
H817 C825 0.930 . S
H818 C826 0.930 . S
H819 C827 0.930 . S
H820 C830 0.930 . S
H821 C831 0.930 . S
C822 H816 0.930 . S
C822 C823 1.355 . S
C822 C824 1.415 . S
C823 C822 1.355 . S
C823 C825 1.419 . S
C824 C822 1.415 . S
C824 C829 1.425 . S
C824 C831 1.409 . S
C825 H817 0.930 . S
C825 C823 1.419 . S
C825 C826 1.362 . S
C826 H818 0.930 . S
C826 C825 1.362 . S
C826 C829 1.409 . S
C827 H819 0.930 . S
C827 C828 1.355 . S
C827 C829 1.415 . S
C828 C827 1.355 . S
C828 C830 1.419 . S
C829 C824 1.425 . S
C829 C826 1.409 . S
C829 C827 1.415 . S
C830 H820 0.930 . S
C830 C828 1.419 . S
C830 C831 1.362 . S
C831 H821 0.930 . S
C831 C824 1.409 . S
C831 C830 1.362 . S
H832 C838 0.930 . S
H833 C841 0.930 . S
H834 C842 0.930 . S
H835 C843 0.930 . S
H836 C846 0.930 . S
H837 C847 0.930 . S
C838 H832 0.930 . S
C838 C839 1.355 . S
C838 C840 1.415 . S
C839 C838 1.355 . S
C839 C841 1.419 . S
C840 C838 1.415 . S
C840 C845 1.425 . S
C840 C847 1.409 . S
C841 H833 0.930 . S
C841 C839 1.419 . S
C841 C842 1.362 . S
C842 H834 0.930 . S
C842 C841 1.362 . S
C842 C845 1.409 . S
C843 H835 0.930 . S
C843 C844 1.355 . S
C843 C845 1.415 . S
C844 C843 1.355 . S
C844 C846 1.419 . S
C845 C840 1.425 . S
C845 C842 1.409 . S
C845 C843 1.415 . S
C846 H836 0.930 . S
C846 C844 1.419 . S
C846 C847 1.362 . S
C847 H837 0.930 . S
C847 C840 1.409 . S
C847 C846 1.362 . S
H848 C854 0.930 1_554 S
H849 C857 0.930 . S
H850 C858 0.930 . S
H851 C859 0.930 . S
H852 C862 0.930 . S
H853 C863 0.930 . S
C854 H848 0.930 1_556 S
C854 C855 1.355 . S
C854 C856 1.415 . S
C855 C854 1.355 . S
C855 C857 1.419 . S
C856 C854 1.415 . S
C856 C861 1.425 . S
C856 C863 1.409 1_655 S
C857 H849 0.930 . S
C857 C855 1.419 . S
C857 C858 1.362 . S
C858 H850 0.930 . S
C858 C857 1.362 . S
C858 C861 1.409 . S
C859 H851 0.930 . S
C859 C860 1.355 1_655 S
C859 C861 1.415 . S
C860 C859 1.355 1_455 S
C860 C862 1.419 . S
C861 C856 1.425 . S
C861 C858 1.409 . S
C861 C859 1.415 . S
C862 H852 0.930 . S
C862 C860 1.419 . S
C862 C863 1.362 . S
C863 H853 0.930 . S
C863 C856 1.409 1_455 S
C863 C862 1.362 . S
H864 C870 0.926 1_554 S
H865 C873 0.930 . S
H866 C874 0.930 . S
H867 C875 0.930 . S
H868 C878 0.930 . S
H869 C879 0.930 . S
C870 H864 0.926 1_556 S
C870 C871 1.355 . S
C870 C872 1.425 . S
C871 C870 1.355 . S
C871 C873 1.419 . S
C872 C870 1.425 . S
C872 C877 1.442 . S
C872 C879 1.382 1_565 S
C873 H865 0.930 . S
C873 C871 1.419 . S
C873 C874 1.362 . S
C874 H866 0.930 . S
C874 C873 1.362 . S
C874 C877 1.409 . S
C875 H867 0.930 . S
C875 C876 1.355 1_565 S
C875 C877 1.415 . S
C876 C875 1.355 1_545 S
C876 C878 1.419 . S
C877 C872 1.442 . S
C877 C874 1.409 . S
C877 C875 1.415 . S
C878 H868 0.930 . S
C878 C876 1.419 . S
C878 C879 1.362 . S
C879 H869 0.930 . S
C879 C872 1.382 1_545 S
C879 C878 1.362 . S
H880 C886 0.930 . S
H881 C889 0.930 . S
H882 C890 0.930 . S
H883 C891 0.930 . S
H884 C894 0.930 . S
H885 C895 0.930 . S
C886 H880 0.930 . S
C886 C887 1.355 . S
C886 C888 1.415 . S
C887 C886 1.355 . S
C887 C889 1.419 . S
C888 C886 1.415 . S
C888 C893 1.425 . S
C888 C895 1.409 . S
C889 H881 0.930 . S
C889 C887 1.419 . S
C889 C890 1.362 . S
C890 H882 0.930 . S
C890 C889 1.362 . S
C890 C893 1.409 . S
C891 H883 0.930 . S
C891 C892 1.355 . S
C891 C893 1.415 . S
C892 C891 1.355 . S
C892 C894 1.419 . S
C893 C888 1.425 . S
C893 C890 1.409 . S
C893 C891 1.415 . S
C894 H884 0.930 . S
C894 C892 1.419 . S
C894 C895 1.362 . S
C895 H885 0.930 . S
C895 C888 1.409 . S
C895 C894 1.362 . S
H896 C902 0.930 . S
H897 C905 0.930 . S
H898 C906 0.930 . S
H899 C907 0.930 . S
H900 C910 0.930 . S
H901 C911 0.930 1_554 S
C902 H896 0.930 . S
C902 C903 1.355 1_554 S
C902 C904 1.415 1_554 S
C903 C902 1.355 1_556 S
C903 C905 1.419 . S
C904 C902 1.415 1_556 S
C904 C909 1.425 . S
C904 C911 1.409 . S
C905 H897 0.930 . S
C905 C903 1.419 . S
C905 C906 1.362 . S
C906 H898 0.930 . S
C906 C905 1.362 . S
C906 C909 1.409 . S
C907 H899 0.930 . S
C907 C908 1.355 . S
C907 C909 1.415 . S
C908 C907 1.355 . S
C908 C910 1.419 . S
C909 C904 1.425 . S
C909 C906 1.409 . S
C909 C907 1.415 . S
C910 H900 0.930 . S
C910 C908 1.419 . S
C910 C911 1.362 . S
C911 H901 0.930 1_556 S
C911 C904 1.409 . S
C911 C910 1.362 . S
H912 C918 0.930 . S
H913 C921 0.930 . S
H914 C922 0.930 . S
H915 C923 0.930 . S
H916 C926 0.930 1_655 S
H917 C927 0.933 . S
C918 H912 0.930 . S
C918 C919 1.355 . S
C918 C920 1.415 . S
C919 C918 1.355 . S
C919 C921 1.419 . S
C920 C918 1.415 . S
C920 C925 1.425 . S
C920 C927 1.406 1_455 S
C921 H913 0.930 . S
C921 C919 1.419 . S
C921 C922 1.362 . S
C922 H914 0.930 . S
C922 C921 1.362 . S
C922 C925 1.409 . S
C923 H915 0.930 . S
C923 C924 1.355 . S
C923 C925 1.415 . S
C924 C923 1.355 . S
C924 C926 1.419 . S
C925 C920 1.425 . S
C925 C922 1.409 . S
C925 C923 1.415 . S
C926 H916 0.930 1_455 S
C926 C924 1.419 . S
C926 C927 1.362 1_455 S
C927 H917 0.933 . S
C927 C920 1.406 1_655 S
C927 C926 1.362 1_655 S
H928 C934 0.930 . S
H929 C937 0.930 . S
H930 C938 0.930 . S
H931 C939 0.930 . S
H932 C942 0.930 . S
H933 C943 0.930 . S
C934 H928 0.930 . S
C934 C935 1.355 . S
C934 C936 1.415 . S
C935 C934 1.355 . S
C935 C937 1.419 . S
C936 C934 1.415 . S
C936 C941 1.425 . S
C936 C943 1.409 . S
C937 H929 0.930 . S
C937 C935 1.419 . S
C937 C938 1.362 . S
C938 H930 0.930 . S
C938 C937 1.362 . S
C938 C941 1.409 . S
C939 H931 0.930 . S
C939 C940 1.355 . S
C939 C941 1.415 . S
C940 C939 1.355 . S
C940 C942 1.419 . S
C941 C936 1.425 . S
C941 C938 1.409 . S
C941 C939 1.415 . S
C942 H932 0.930 . S
C942 C940 1.419 . S
C942 C943 1.362 . S
C943 H933 0.930 . S
C943 C936 1.409 . S
C943 C942 1.362 . S
H944 C950 0.930 . S
H945 C953 0.930 . S
H946 C954 0.930 . S
H947 C955 0.930 . S
H948 C958 0.930 . S
H949 C959 0.930 . S
C950 H944 0.930 . S
C950 C951 1.355 . S
C950 C952 1.415 . S
C951 C950 1.355 . S
C951 C953 1.419 . S
C952 C950 1.415 . S
C952 C957 1.425 . S
C952 C959 1.409 . S
C953 H945 0.930 . S
C953 C951 1.419 . S
C953 C954 1.362 . S
C954 H946 0.930 . S
C954 C953 1.362 . S
C954 C957 1.409 . S
C955 H947 0.930 . S
C955 C956 1.355 . S
C955 C957 1.415 . S
C956 C955 1.355 . S
C956 C958 1.419 . S
C957 C952 1.425 . S
C957 C954 1.409 . S
C957 C955 1.415 . S
C958 H948 0.930 . S
C958 C956 1.419 . S
C958 C959 1.362 . S
C959 H949 0.930 . S
C959 C952 1.409 . S
C959 C958 1.362 . S
H960 C966 0.930 . S
H961 C969 0.930 . S
H962 C970 0.930 . S
H963 C971 0.930 . S
H964 C974 0.930 . S
H965 C975 0.930 . S
C966 H960 0.930 . S
C966 C967 1.355 . S
C966 C968 1.415 . S
C967 C966 1.355 . S
C967 C969 1.419 . S
C968 C966 1.415 . S
C968 C973 1.425 . S
C968 C975 1.409 . S
C969 H961 0.930 . S
C969 C967 1.419 . S
C969 C970 1.362 . S
C970 H962 0.930 . S
C970 C969 1.362 . S
C970 C973 1.409 . S
C971 H963 0.930 . S
C971 C972 1.355 . S
C971 C973 1.415 . S
C972 C971 1.355 . S
C972 C974 1.419 . S
C973 C968 1.425 . S
C973 C970 1.409 . S
C973 C971 1.415 . S
C974 H964 0.930 . S
C974 C972 1.419 . S
C974 C975 1.362 . S
C975 H965 0.930 . S
C975 C968 1.409 . S
C975 C974 1.362 . S
H976 C982 0.930 . S
H977 C985 0.930 . S
H978 C986 0.930 . S
H979 C987 0.917 1_455 S
H980 C990 0.930 . S
H981 C991 0.930 . S
C982 H976 0.930 . S
C982 C983 1.355 . S
C982 C984 1.415 . S
C983 C982 1.355 . S
C983 C985 1.419 1_655 S
C984 C982 1.415 . S
C984 C989 1.425 . S
C984 C991 1.409 . S
C985 H977 0.930 . S
C985 C983 1.419 1_455 S
C985 C986 1.362 . S
C986 H978 0.930 . S
C986 C985 1.362 . S
C986 C989 1.409 1_455 S
C987 H979 0.917 1_655 S
C987 C988 1.363 . S
C987 C989 1.418 . S
C988 C987 1.363 . S
C988 C990 1.419 . S
C989 C984 1.425 . S
C989 C986 1.409 1_655 S
C989 C987 1.418 . S
C990 H980 0.930 . S
C990 C988 1.419 . S
C990 C991 1.362 . S
C991 H981 0.930 . S
C991 C984 1.409 . S
C991 C990 1.362 . S
H992 C998 0.930 1_545 S
H993 C1001 0.930 . S
H994 C1002 0.930 . S
H995 C1003 0.930 . S
H996 C1006 0.930 . S
H997 C1007 0.930 . S
C998 H992 0.930 1_565 S
C998 C999 1.355 . S
C998 C1000 1.415 . S
C999 C998 1.355 . S
C999 C1001 1.419 . S
C1000 C998 1.415 . S
C1000 C1005 1.425 . S
C1000 C1007 1.409 1_565 S
C1001 H993 0.930 . S
C1001 C999 1.419 . S
C1001 C1002 1.362 . S
C1002 H994 0.930 . S
C1002 C1001 1.362 . S
C1002 C1005 1.409 . S
C1003 H995 0.930 . S
C1003 C1004 1.355 . S
C1003 C1005 1.415 . S
C1004 C1003 1.355 . S
C1004 C1006 1.419 1_565 S
C1005 C1000 1.425 . S
C1005 C1002 1.409 . S
C1005 C1003 1.415 . S
C1006 H996 0.930 . S
C1006 C1004 1.419 1_545 S
C1006 C1007 1.362 . S
C1007 H997 0.930 . S
C1007 C1000 1.409 1_545 S
C1007 C1006 1.362 . S
H1008 C1014 0.930 . S
H1009 C1017 0.930 . S
H1010 C1018 0.930 . S
H1011 C1019 0.930 . S
H1012 C1022 0.930 . S
H1013 C1023 0.930 . S
C1014 H1008 0.930 . S
C1014 C1015 1.355 . S
C1014 C1016 1.415 . S
C1015 C1014 1.355 . S
C1015 C1017 1.419 . S
C1016 C1014 1.415 . S
C1016 C1021 1.425 . S
C1016 C1023 1.409 . S
C1017 H1009 0.930 . S
C1017 C1015 1.419 . S
C1017 C1018 1.362 . S
C1018 H1010 0.930 . S
C1018 C1017 1.362 . S
C1018 C1021 1.409 . S
C1019 H1011 0.930 . S
C1019 C1020 1.355 . S
C1019 C1021 1.415 . S
C1020 C1019 1.355 . S
C1020 C1022 1.419 . S
C1021 C1016 1.425 . S
C1021 C1018 1.409 . S
C1021 C1019 1.415 . S
C1022 H1012 0.930 . S
C1022 C1020 1.419 . S
C1022 C1023 1.362 . S
C1023 H1013 0.930 . S
C1023 C1016 1.409 . S
C1023 C1022 1.362 . S
H1024 C1030 0.930 . S
H1025 C1033 0.930 . S
H1026 C1034 0.930 . S
H1027 C1035 0.930 . S
H1028 C1038 0.930 . S
H1029 C1039 0.930 . S
C1030 H1024 0.930 . S
C1030 C1031 1.355 . S
C1030 C1032 1.415 . S
C1031 C1030 1.355 . S
C1031 C1033 1.419 . S
C1032 C1030 1.415 . S
C1032 C1037 1.425 . S
C1032 C1039 1.409 . S
C1033 H1025 0.930 . S
C1033 C1031 1.419 . S
C1033 C1034 1.362 . S
C1034 H1026 0.930 . S
C1034 C1033 1.362 . S
C1034 C1037 1.409 . S
C1035 H1027 0.930 . S
C1035 C1036 1.355 . S
C1035 C1037 1.415 . S
C1036 C1035 1.355 . S
C1036 C1038 1.419 . S
C1037 C1032 1.425 . S
C1037 C1034 1.409 . S
C1037 C1035 1.415 . S
C1038 H1028 0.930 . S
C1038 C1036 1.419 . S
C1038 C1039 1.362 . S
C1039 H1029 0.930 . S
C1039 C1032 1.409 . S
C1039 C1038 1.362 . S
C663 C255 2.484 . S
C668 C383 2.713 . S
C684 C460 2.704 . S
C679 C295 2.498 . S
C700 C551 2.732 . S
C695 C175 2.545 . S
C716 C635 2.692 . S
C711 C215 2.498 . S
C732 C394 2.707 1_565 S
C727 C95 2.501 . S
C743 C135 2.498 . S
C748 C471 2.708 . S
C759 C15 2.492 . S
C764 C562 2.726 . S
C775 C55 2.524 . S
C780 C646 2.723 1_655 S
C796 C378 0.525 . S
C791 C221 0.606 . S
C812 C473 0.518 . S
C807 C261 0.590 . S
C828 C546 0.620 . S
C823 C301 0.543 . S
C839 C181 0.519 . S
C844 C630 0.612 . S
C855 C61 0.743 1_556 S
C860 C389 0.540 . S
C876 C462 0.647 . S
C871 C101 0.737 1_556 S
C892 C557 0.548 . S
C887 C141 0.740 1_556 S
C903 C21 0.739 1_556 S
C908 C641 0.607 . S
C919 C202 3.025 . S
C924 C387 3.300 . S
C935 C242 3.072 . S
C940 C478 3.398 . S
C956 C555 3.338 . S
C951 C282 3.081 . S
C972 C639 3.318 . S
C967 C162 3.042 . S
C983 C42 2.989 . S
C988 C376 3.303 . S
C1004 C467 3.396 . S
C999 C82 3.020 . S
C1020 C544 3.319 . S
C1015 C122 3.000 . S
C1031 C2 3.049 . S
C1036 C628 3.339 . S
