# Generated by pormake.
# Topology zzz, (3,6)-cn, num edge types: 1
# Building blocks:
#     Node 0, Type 0, BuildingBlock: OLANEW_clean_sbu_2, # of connection points: 3
#     Node 1, Type 0, BuildingBlock: OLANEW_clean_sbu_2, # of connection points: 3
#     Node 2, Type 0, BuildingBlock: OLANEW_clean_sbu_2, # of connection points: 3
#     Node 3, Type 0, BuildingBlock: OLANEW_clean_sbu_2, # of connection points: 3
#     Node 4, Type 0, BuildingBlock: OLANEW_clean_sbu_2, # of connection points: 3
#     Node 5, Type 0, BuildingBlock: OLANEW_clean_sbu_2, # of connection points: 3
#     Node 6, Type 0, BuildingBlock: OLANEW_clean_sbu_2, # of connection points: 3
#     Node 7, Type 0, BuildingBlock: OLANEW_clean_sbu_2, # of connection points: 3
#     Node 8, Type 1, BuildingBlock: INOVEN_clean_sbu_0, # of connection points: 6
#     Node 9, Type 1, BuildingBlock: INOVEN_clean_sbu_0, # of connection points: 6
#     Node 10, Type 1, BuildingBlock: INOVEN_clean_sbu_0, # of connection points: 6
#     Node 11, Type 1, BuildingBlock: INOVEN_clean_sbu_0, # of connection points: 6
#     Edge 12, Type (0, 1), BuildingBlock: XUDNAN_clean_linker_2, # of connection points: 2
#     Edge 13, Type (0, 1), BuildingBlock: XUDNAN_clean_linker_2, # of connection points: 2
#     Edge 14, Type (0, 1), BuildingBlock: XUDNAN_clean_linker_2, # of connection points: 2
#     Edge 15, Type (0, 1), BuildingBlock: XUDNAN_clean_linker_2, # of connection points: 2
#     Edge 16, Type (0, 1), BuildingBlock: XUDNAN_clean_linker_2, # of connection points: 2
#     Edge 17, Type (0, 1), BuildingBlock: XUDNAN_clean_linker_2, # of connection points: 2
#     Edge 18, Type (0, 1), BuildingBlock: XUDNAN_clean_linker_2, # of connection points: 2
#     Edge 19, Type (0, 1), BuildingBlock: XUDNAN_clean_linker_2, # of connection points: 2
#     Edge 20, Type (0, 1), BuildingBlock: XUDNAN_clean_linker_2, # of connection points: 2
#     Edge 21, Type (0, 1), BuildingBlock: XUDNAN_clean_linker_2, # of connection points: 2
#     Edge 22, Type (0, 1), BuildingBlock: XUDNAN_clean_linker_2, # of connection points: 2
#     Edge 23, Type (0, 1), BuildingBlock: XUDNAN_clean_linker_2, # of connection points: 2
#     Edge 24, Type (0, 1), BuildingBlock: XUDNAN_clean_linker_2, # of connection points: 2
#     Edge 25, Type (0, 1), BuildingBlock: XUDNAN_clean_linker_2, # of connection points: 2
#     Edge 26, Type (0, 1), BuildingBlock: XUDNAN_clean_linker_2, # of connection points: 2
#     Edge 27, Type (0, 1), BuildingBlock: XUDNAN_clean_linker_2, # of connection points: 2
#     Edge 28, Type (0, 1), BuildingBlock: XUDNAN_clean_linker_2, # of connection points: 2
#     Edge 29, Type (0, 1), BuildingBlock: XUDNAN_clean_linker_2, # of connection points: 2
#     Edge 30, Type (0, 1), BuildingBlock: XUDNAN_clean_linker_2, # of connection points: 2
#     Edge 31, Type (0, 1), BuildingBlock: XUDNAN_clean_linker_2, # of connection points: 2
#     Edge 32, Type (0, 1), BuildingBlock: XUDNAN_clean_linker_2, # of connection points: 2
#     Edge 33, Type (0, 1), BuildingBlock: XUDNAN_clean_linker_2, # of connection points: 2
#     Edge 34, Type (0, 1), BuildingBlock: XUDNAN_clean_linker_2, # of connection points: 2
#     Edge 35, Type (0, 1), BuildingBlock: XUDNAN_clean_linker_2, # of connection points: 2
# Relax obj value: 0.239
# Max RMSD: 0.187
# Mean RMSD: 0.170
data_MOF--net-zzz--node1-OLANEW_clean_sbu_2--node2-INOVEN_clean_sbu_0--edge1-XUDNAN_clean_linker_2
_symmetry_space_group_name_H-M    P1
_symmetry_Int_Tables_number       1
_symmetry_cell_setting            triclinic
loop_
_symmetry_equiv_pos_as_xyz
'x, y, z'
_cell_length_a     56.463592
_cell_length_b     56.457167
_cell_length_c     15.141421
_cell_angle_alpha  90.048261
_cell_angle_beta   89.973004
_cell_angle_gamma 90.005113
loop_
_atom_site_label
_atom_site_type_symbol
_atom_site_fract_x
_atom_site_fract_y
_atom_site_fract_z
_atom_type_partial_charge
O0 O 0.72774 0.5817 0.15679 0.0
Cd1 Cd 0.69099 0.59811 0.21721 0.0
O2 O 0.74733 0.58581 0.28069 0.0
Cd3 Cd 0.77626 0.58398 0.37768 0.0
O4 O 0.81275 0.58204 0.42566 0.0
C5 C 0.81925 0.57172 0.49618 0.0
O6 O 0.80315 0.56248 0.54851 0.0
C7 C 0.74693 0.57934 0.19986 0.0
C8 C 0.65197 0.57219 0.15764 0.0
O9 O 0.66048 0.58927 0.11184 0.0
O10 O 0.66172 0.56755 0.23207 0.0
O11 O 0.91227 0.74207 0.11596 0.0
Cd12 Cd 0.9002 0.70271 0.16724 0.0
O13 O 0.93662 0.74743 0.22685 0.0
Cd14 Cd 0.96239 0.76522 0.31318 0.0
O15 O 0.97491 0.79549 0.39062 0.0
C16 C 0.96347 0.80088 0.46001 0.0
O17 O 0.94593 0.78716 0.48514 0.0
C18 C 0.9268 0.75534 0.15693 0.0
C19 C 0.92867 0.66559 0.10745 0.0
O20 O 0.91153 0.67338 0.06022 0.0
O21 O 0.93252 0.67557 0.18216 0.0
O22 O 0.7678 0.90116 0.04105 0.0
Cd23 Cd 0.80756 0.88879 0.08477 0.0
O24 O 0.75879 0.90824 0.17946 0.0
Cd25 Cd 0.73385 0.91671 0.28505 0.0
O26 O 0.70662 0.92535 0.38187 0.0
C27 C 0.68533 0.91935 0.36652 0.0
O28 O 0.68046 0.90754 0.29396 0.0
C29 C 0.75291 0.90812 0.09841 0.0
C30 C 0.84174 0.9201 0.02119 0.0
O31 O 0.83505 0.90224 0.97517 0.0
O32 O 0.83233 0.92305 0.09747 0.0
O33 O 0.56542 0.76718 0.18835 0.0
Cd34 Cd 0.58289 0.80394 0.24397 0.0
O35 O 0.56499 0.75074 0.31928 0.0
Cd36 Cd 0.55803 0.72393 0.42033 0.0
O37 O 0.55647 0.69137 0.49747 0.0
C38 C 0.5737 0.67717 0.48703 0.0
O39 O 0.5913 0.68352 0.4354 0.0
C40 C 0.5608 0.74937 0.23675 0.0
C41 C 0.56281 0.84334 0.16166 0.0
O42 O 0.57998 0.83202 0.1258 0.0
O43 O 0.55523 0.83617 0.23682 0.0
O44 O 0.29428 0.4897 0.09648 0.0
Cd45 Cd 0.33216 0.47293 0.04832 0.0
O46 O 0.2859 0.45406 0.14536 0.0
Cd47 Cd 0.25773 0.43034 0.18857 0.0
O48 O 0.21956 0.43065 0.16931 0.0
C49 C 0.21294 0.43758 0.09342 0.0
O50 O 0.22912 0.4417 0.03294 0.0
C51 C 0.28001 0.4756 0.13442 0.0
C52 C 0.36166 0.46473 0.19248 0.0
O53 O 0.3638 0.48359 0.14611 0.0
O54 O 0.34582 0.44964 0.16995 0.0
O55 O 0.04909 0.27233 0.15953 0.0
Cd56 Cd 0.06406 0.31258 0.13461 0.0
O57 O 0.06143 0.26332 0.02665 0.0
Cd58 Cd 0.07104 0.24098 0.91319 0.0
O59 O 0.08788 0.23369 0.78538 0.0
C60 C 0.08743 0.2157 0.73461 0.0
O61 O 0.09859 0.21704 0.65858 0.0
C62 C 0.05171 0.25701 0.09872 0.0
C63 C 0.05903 0.34219 0.28123 0.0
O64 O 0.04396 0.34283 0.21797 0.0
O65 O 0.07631 0.32756 0.27526 0.0
O66 O 0.2301 0.06294 0.1542 0.0
Cd67 Cd 0.19196 0.08271 0.13278 0.0
O68 O 0.24892 0.09703 0.1632 0.0
Cd69 Cd 0.28376 0.11385 0.15772 0.0
O70 O 0.31637 0.10343 0.09084 0.0
C71 C 0.31244 0.09419 0.01571 0.0
O72 O 0.29051 0.09331 0.98686 0.0
C73 C 0.24924 0.0745 0.1637 0.0
C74 C 0.16043 0.07374 0.2707 0.0
O75 O 0.16135 0.06001 0.20331 0.0
O76 O 0.17441 0.09163 0.27263 0.0
O77 O 0.4019 0.2206 0.23434 0.0
Cd78 Cd 0.37698 0.1853 0.21747 0.0
O79 O 0.37171 0.24537 0.23336 0.0
Cd80 Cd 0.36171 0.28269 0.2207 0.0
O81 O 0.37892 0.313 0.15802 0.0
C82 C 0.38994 0.30705 0.0883 0.0
O83 O 0.38848 0.28495 0.06145 0.0
C84 C 0.39388 0.24161 0.23862 0.0
C85 C 0.40088 0.14556 0.2817 0.0
O86 O 0.40245 0.15145 0.20018 0.0
O87 O 0.38767 0.15817 0.33204 0.0
Gd88 Gd 0.01066 0.00428 0.8094 0.0
Gd89 Gd 0.00433 0.01506 0.61053 0.0
C90 C -4e-05 0.96189 0.66769 0.0
C91 C 0.00578 0.98618 0.96452 0.0
C92 C 0.99319 0.96464 0.99395 0.0
C93 C 0.00502 0.94753 0.04466 0.0
C94 C 0.97026 0.95971 0.96331 0.0
C95 C 0.9719 0.92024 0.02673 0.0
C96 C 0.95958 0.93796 0.98074 0.0
C97 C 0.9945 0.92547 0.06076 0.0
C98 C 0.05102 0.01183 0.71878 0.0
C99 C 0.01527 0.05781 0.75315 0.0
C100 C 0.00697 0.03039 0.45001 0.0
C101 C 0.01163 0.05283 0.40371 0.0
C102 C 0.99712 0.05901 0.33244 0.0
C103 C 0.0297 0.06838 0.43036 0.0
C104 C 0.0187 0.096 0.3134 0.0
C105 C 0.0333 0.08972 0.38519 0.0
C106 C 0.0005 0.08039 0.28807 0.0
C107 C 0.96402 0.00865 0.70291 0.0
O108 O 0.99718 0.97036 0.74845 0.0
O109 O 0.00675 0.97553 0.60147 0.0
O110 O 0.02439 0.98232 0.91493 0.0
O111 O 0.99262 0.00371 0.93566 0.0
O112 O 0.04821 0.01723 0.80151 0.0
O113 O 0.03311 0.00068 0.69102 0.0
O114 O 0.01535 0.05014 0.67027 0.0
O115 O 0.01069 0.0437 0.82078 0.0
O116 O 0.98719 0.02952 0.49474 0.0
O117 O 0.02473 0.02031 0.49093 0.0
O118 O 0.96686 0.00163 0.62201 0.0
O119 O 0.98217 0.01954 0.72919 0.0
H120 H 0.02282 0.95083 0.06835 0.0
H121 H 0.9609 0.97227 0.92275 0.0
H122 H 0.9419 0.93477 0.95596 0.0
H123 H 0.00454 0.91216 0.09607 0.0
H124 H 0.98293 0.04735 0.31152 0.0
H125 H 0.04107 0.06403 0.48567 0.0
H126 H 0.04766 0.10114 0.40592 0.0
H127 H 0.98856 0.08479 0.23461 0.0
Gd128 Gd 0.50892 0.01278 0.78225 0.0
Gd129 Gd 0.48651 0.98955 0.61775 0.0
C130 C 0.54143 0.98289 0.642 0.0
C131 C 0.53485 0.01987 0.91932 0.0
C132 C 0.55613 0.00692 0.94908 0.0
C133 C 0.57767 0.01896 0.96055 0.0
C134 C 0.55584 0.98209 0.95545 0.0
C135 C 0.59846 0.98141 0.97648 0.0
C136 C 0.57672 0.96952 0.96954 0.0
C137 C 0.5987 0.00632 0.97424 0.0
C138 C 0.49945 0.04247 0.64758 0.0
C139 C 0.45405 0.01956 0.75917 0.0
C140 C 0.46301 0.98015 0.47565 0.0
C141 C 0.4422 0.98951 0.42894 0.0
C142 C 0.4279 0.974 0.38046 0.0
C143 C 0.43637 0.01364 0.43225 0.0
C144 C 0.40229 0.00675 0.33666 0.0
C145 C 0.41684 0.02226 0.38553 0.0
C146 C 0.40805 0.98245 0.33545 0.0
C147 C 0.49567 0.96002 0.75322 0.0
O148 O 0.53805 0.99012 0.72413 0.0
O149 O 0.52444 0.98378 0.58225 0.0
O150 O 0.5375 0.03188 0.84599 0.0
O151 O 0.51472 0.00827 0.92253 0.0
O152 O 0.49832 0.04862 0.73019 0.0
O153 O 0.5073 0.02167 0.64088 0.0
O154 O 0.45719 0.01194 0.67704 0.0
O155 O 0.47114 0.01887 0.81872 0.0
O156 O 0.45888 0.96971 0.55128 0.0
O157 O 0.48182 0.99374 0.47705 0.0
O158 O 0.49744 0.9538 0.67095 0.0
O159 O 0.48778 0.98079 0.75924 0.0
H160 H 0.57839 0.03808 0.95521 0.0
H161 H 0.53963 0.97224 0.94642 0.0
H162 H 0.57588 0.9504 0.97334 0.0
H163 H 0.61523 0.01596 0.97922 0.0
H164 H 0.43197 0.95525 0.37805 0.0
H165 H 0.4469 0.02581 0.471 0.0
H166 H 0.41328 0.0411 0.38769 0.0
H167 H 0.39702 0.96977 0.30106 0.0
Gd168 Gd 0.49184 0.49312 0.84459 0.0
Gd169 Gd 0.5112 0.46712 0.67951 0.0
C170 C 0.52216 0.52186 0.69309 0.0
C171 C 0.48718 0.52019 0.98088 0.0
C172 C 0.49448 0.54478 0.00203 0.0
C173 C 0.47775 0.56315 0.9974 0.0
C174 C 0.51803 0.55034 0.02468 0.0
C175 C 0.50801 0.59222 0.03372 0.0
C176 C 0.52469 0.57385 0.04079 0.0
C177 C 0.48447 0.58659 0.01243 0.0
C178 C 0.46041 0.48513 0.7147 0.0
C179 C 0.48132 0.43843 0.83099 0.0
C180 C 0.5162 0.44242 0.53712 0.0
C181 C 0.50451 0.42247 0.49185 0.0
C182 C 0.51843 0.4041 0.45756 0.0
C183 C 0.4798 0.4216 0.4812 0.0
C184 C 0.48318 0.38406 0.40247 0.0
C185 C 0.46925 0.40264 0.43652 0.0
C186 C 0.50791 0.38505 0.41365 0.0
C187 C 0.54276 0.47545 0.8094 0.0
O188 O 0.51347 0.52135 0.77436 0.0
O189 O 0.52101 0.50357 0.63904 0.0
O190 O 0.47082 0.51793 0.92014 0.0
O191 O 0.50397 0.50427 0.97391 0.0
O192 O 0.45495 0.4844 0.79799 0.0
O193 O 0.48166 0.49132 0.70441 0.0
O194 O 0.48754 0.44035 0.74684 0.0
O195 O 0.48425 0.45597 0.88794 0.0
O196 O 0.52733 0.43748 0.6108 0.0
O197 O 0.50449 0.46246 0.54027 0.0
O198 O 0.54824 0.47554 0.72611 0.0
O199 O 0.52153 0.46923 0.81901 0.0
H200 H 0.45944 0.55943 0.9811 0.0
H201 H 0.53138 0.53663 0.02907 0.0
H202 H 0.54298 0.57771 0.05697 0.0
H203 H 0.47116 0.60036 0.00792 0.0
H204 H 0.53751 0.40442 0.4652 0.0
H205 H 0.46862 0.43555 0.50717 0.0
H206 H 0.4502 0.40263 0.42831 0.0
H207 H 0.51917 0.37089 0.38993 0.0
Gd208 Gd 0.0025 0.49254 0.84744 0.0
Gd209 Gd 0.03212 0.50743 0.68581 0.0
C210 C 0.97669 0.51589 0.67559 0.0
C211 C 0.97162 0.49085 0.97247 0.0
C212 C 0.94722 0.50019 0.98174 0.0
C213 C 0.92775 0.48508 0.96861 0.0
C214 C 0.94304 0.52419 0.00165 0.0
C215 C 0.90048 0.51764 0.99517 0.0
C216 C 0.9199 0.5328 0.00857 0.0
C217 C 0.90464 0.49375 0.97465 0.0
C218 C 0.01642 0.45705 0.7412 0.0
C219 C 0.05783 0.4872 0.86541 0.0
C220 C 0.05893 0.51024 0.54749 0.0
C221 C 0.08141 0.50358 0.50414 0.0
C222 C 0.10354 0.50899 0.54149 0.0
C223 C 0.08057 0.49398 0.41866 0.0
C224 C 0.12341 0.49724 0.40511 0.0
C225 C 0.10131 0.49082 0.36966 0.0
C226 C 0.12436 0.50579 0.49246 0.0
C227 C 0.01862 0.54262 0.79538 0.0
O228 O 0.97607 0.51139 0.76108 0.0
O229 O 0.99605 0.51281 0.62804 0.0
O230 O 0.97448 0.47372 0.91502 0.0
O231 O 0.98885 0.50641 0.9707 0.0
O232 O 0.01489 0.45513 0.82646 0.0
O233 O 0.00923 0.47708 0.7158 0.0
O234 O 0.05907 0.49031 0.77835 0.0
O235 O 0.03794 0.49019 0.90996 0.0
O236 O 0.0596 0.52552 0.61267 0.0
O237 O 0.04287 0.49373 0.55791 0.0
O238 O 0.01984 0.54515 0.71029 0.0
O239 O 0.02569 0.5224 0.81722 0.0
H240 H 0.93036 0.4665 0.95358 0.0
H241 H 0.95761 0.53638 0.01181 0.0
H242 H 0.91718 0.55134 0.02392 0.0
H243 H 0.89001 0.4816 0.96517 0.0
H244 H 0.10473 0.51646 0.60727 0.0
H245 H 0.06371 0.4897 0.38839 0.0
H246 H 0.09999 0.48377 0.30328 0.0
H247 H 0.14108 0.511 0.52162 0.0
H248 H 0.12987 0.03614 0.28982 0.0
H249 H 0.15384 0.10051 0.4192 0.0
H250 H 0.12747 0.09208 0.5452 0.0
H251 H 0.06858 0.03977 0.36278 0.0
H252 H 0.06553 0.0083 0.37923 0.0
H253 H 0.08558 0.01945 0.29652 0.0
H254 H 0.12029 0.99644 0.36686 0.0
H255 H 0.10052 0.98479 0.44943 0.0
H256 H 0.12686 0.00053 0.48239 0.0
H257 H 0.10057 0.07575 0.66031 0.0
H258 H 0.07349 0.05312 0.75609 0.0
H259 H 0.06633 0.9994 0.55278 0.0
C260 C 0.12945 0.04856 0.34434 0.0
C261 C 0.14396 0.06899 0.34467 0.0
C262 C 0.14293 0.08474 0.41746 0.0
C263 C 0.12799 0.08013 0.48931 0.0
C264 C 0.11415 0.05972 0.48733 0.0
C265 C 0.11462 0.04422 0.41671 0.0
C266 C 0.09836 0.02326 0.43237 0.0
C267 C 0.07831 0.02267 0.36369 0.0
C268 C 0.11235 0.99988 0.4328 0.0
C269 C 0.08902 0.0292 0.52356 0.0
C270 C 0.09833 0.05036 0.55376 0.0
C271 C 0.09305 0.05923 0.63724 0.0
C272 C 0.0778 0.04616 0.69136 0.0
C273 C 0.06786 0.02455 0.66155 0.0
C274 C 0.07357 0.01597 0.57664 0.0
H275 H 0.40415 0.1318 0.45432 0.0
H276 H 0.43005 0.11492 0.19178 0.0
H277 H 0.45705 0.08503 0.25583 0.0
H278 H 0.45819 0.12965 0.561 0.0
H279 H 0.44731 0.11642 0.66145 0.0
H280 H 0.42789 0.1342 0.59466 0.0
H281 H 0.39793 0.09929 0.58239 0.0
H282 H 0.41712 0.08206 0.65222 0.0
H283 H 0.40831 0.0707 0.54584 0.0
H284 H 0.48373 0.05929 0.35108 0.0
H285 H 0.50637 0.03885 0.46914 0.0
H286 H 0.46336 0.07385 0.66732 0.0
C287 C 0.41515 0.12153 0.40997 0.0
C288 C 0.41503 0.12575 0.31807 0.0
C289 C 0.42986 0.11202 0.26247 0.0
C290 C 0.44525 0.09499 0.29823 0.0
C291 C 0.44548 0.09185 0.38955 0.0
C292 C 0.43059 0.10456 0.44449 0.0
C293 C 0.43509 0.09886 0.54063 0.0
C294 C 0.44257 0.12111 0.59242 0.0
C295 C 0.41331 0.08701 0.58267 0.0
C296 C 0.45537 0.08157 0.53153 0.0
C297 C 0.46097 0.07746 0.44397 0.0
C298 C 0.4794 0.0623 0.4198 0.0
C299 C 0.49217 0.05084 0.48701 0.0
C300 C 0.48666 0.05497 0.57684 0.0
C301 C 0.4681 0.07058 0.59905 0.0
H302 H 0.40394 0.48581 0.23435 0.0
H303 H 0.35172 0.43587 0.332 0.0
H304 H 0.37333 0.43318 0.47333 0.0
H305 H 0.45546 0.45708 0.34729 0.0
H306 H 0.46964 0.48509 0.36883 0.0
H307 H 0.45153 0.48142 0.27173 0.0
H308 H 0.42591 0.51736 0.31822 0.0
H309 H 0.44384 0.5213 0.41527 0.0
H310 H 0.41225 0.51763 0.42589 0.0
H311 H 0.3971 0.44037 0.61006 0.0
H312 H 0.42382 0.45408 0.729 0.0
H313 H 0.46221 0.49723 0.54037 0.0
C314 C 0.39731 0.474 0.28498 0.0
C315 C 0.37612 0.46112 0.27258 0.0
C316 C 0.36798 0.44581 0.34009 0.0
C317 C 0.38013 0.44418 0.42057 0.0
C318 C 0.40065 0.45755 0.43158 0.0
C319 C 0.40949 0.47178 0.36505 0.0
C320 C 0.4315 0.48489 0.39496 0.0
C321 C 0.45332 0.47662 0.34259 0.0
C322 C 0.42815 0.51189 0.38819 0.0
C323 C 0.43282 0.47686 0.49018 0.0
C324 C 0.41497 0.46094 0.50976 0.0
C325 C 0.41144 0.45244 0.59515 0.0
C326 C 0.42654 0.46045 0.66229 0.0
C327 C 0.44499 0.47659 0.64329 0.0
C328 C 0.44836 0.48464 0.55605 0.0
H329 H 0.03475 0.38423 0.29387 0.0
H330 H 0.07754 0.33498 0.4452 0.0
H331 H 0.0723 0.35983 0.57806 0.0
H332 H 0.05771 0.43776 0.40273 0.0
H333 H 0.0296 0.45282 0.39873 0.0
H334 H 0.03716 0.4315 0.31465 0.0
H335 H 0.99868 0.40812 0.34876 0.0
H336 H 0.99106 0.42934 0.43289 0.0
H337 H 0.99303 0.39833 0.46012 0.0
H338 H 0.06022 0.38829 0.69616 0.0
H339 H 0.04403 0.42007 0.79074 0.0
H340 H 0.01097 0.45231 0.56193 0.0
C341 C 0.04306 0.37875 0.35497 0.0
C342 C 0.05643 0.35761 0.35956 0.0
C343 C 0.06725 0.35112 0.4403 0.0
C344 C 0.06437 0.3651 0.51607 0.0
C345 C 0.05099 0.38575 0.50953 0.0
C346 C 0.04077 0.39277 0.43088 0.0
C347 C 0.02736 0.41587 0.44195 0.0
C348 C 0.03863 0.43565 0.38619 0.0
C349 C 0.00097 0.41271 0.41962 0.0
C350 C 0.03101 0.42029 0.5397 0.0
C351 C 0.04473 0.4027 0.57729 0.0
C352 C 0.04969 0.40231 0.66736 0.0
C353 C 0.04034 0.42035 0.72053 0.0
C354 C 0.02639 0.4386 0.68334 0.0
C355 C 0.02183 0.43867 0.59169 0.0
H356 H 0.86352 0.91949 0.85917 0.0
H357 H 0.86042 0.95871 0.10573 0.0
H358 H 0.89001 0.98697 0.04814 0.0
H359 H 0.92564 0.92537 0.81842 0.0
H360 H 0.92201 0.92896 0.70134 0.0
H361 H 0.9006 0.91224 0.76356 0.0
H362 H 0.86754 0.93962 0.7016 0.0
H363 H 0.88928 0.95663 0.64194 0.0
H364 H 0.86957 0.97117 0.71832 0.0
H365 H 0.92024 0.01082 0.9642 0.0
H366 H 0.95083 0.02679 0.86291 0.0
H367 H 0.93386 0.97201 0.67222 0.0
C368 C 0.86905 0.93401 0.90115 0.0
C369 C 0.85963 0.9369 0.98698 0.0
C370 C 0.86734 0.95616 0.0397 0.0
C371 C 0.88411 0.97234 0.00754 0.0
C372 C 0.89291 0.96906 0.92245 0.0
C373 C 0.88573 0.95032 0.87006 0.0
C374 C 0.89799 0.95073 0.78111 0.0
C375 C 0.91241 0.92798 0.7653 0.0
C376 C 0.88002 0.95479 0.70635 0.0
C377 C 0.91386 0.97209 0.7931 0.0
C378 C 0.91035 0.98271 0.87433 0.0
C379 C 0.92311 0.00269 0.90035 0.0
C380 C 0.94044 0.0116 0.84271 0.0
C381 C 0.94466 0.00053 0.7604 0.0
C382 C 0.9309 0.98084 0.73481 0.0
H383 H 0.56639 0.85545 0.98711 0.0
H384 H 0.53385 0.87706 0.23408 0.0
H385 H 0.51414 0.9103 0.15737 0.0
H386 H 0.57627 0.91367 0.89708 0.0
H387 H 0.56854 0.90565 0.78562 0.0
H388 H 0.58113 0.8839 0.85891 0.0
H389 H 0.54555 0.85602 0.83508 0.0
H390 H 0.53282 0.87709 0.7596 0.0
H391 H 0.51592 0.8669 0.85318 0.0
H392 H 0.49699 0.94045 0.05254 0.0
H393 H 0.48336 0.96491 0.9266 0.0
H394 H 0.52617 0.92269 0.7483 0.0
C395 C 0.55535 0.86734 0.02529 0.0
C396 C 0.55173 0.86376 0.11664 0.0
C397 C 0.53685 0.87948 0.16401 0.0
C398 C 0.52564 0.89843 0.12109 0.0
C399 C 0.52938 0.9013 0.03073 0.0
C400 C 0.54382 0.88614 0.98332 0.0
C401 C 0.54395 0.89235 0.88604 0.0
C402 C 0.56895 0.89932 0.85509 0.0
C403 C 0.53396 0.87187 0.83022 0.0
C404 C 0.52735 0.91339 0.88614 0.0
C405 C 0.51919 0.91835 0.97024 0.0
C406 C 0.50331 0.93677 0.98645 0.0
C407 C 0.49564 0.95052 0.91475 0.0
C408 C 0.50371 0.94557 0.82824 0.0
C409 C 0.5197 0.92676 0.81393 0.0
H410 H 0.63395 0.5713 0.9896 0.0
H411 H 0.6256 0.53971 0.24899 0.0
H412 H 0.59469 0.51311 0.18989 0.0
H413 H 0.57069 0.56659 0.921 0.0
H414 H 0.57861 0.55966 0.80868 0.0
H415 H 0.59758 0.57837 0.87424 0.0
H416 H 0.63284 0.55005 0.84262 0.0
H417 H 0.61381 0.53122 0.77818 0.0
H418 H 0.63014 0.51908 0.86988 0.0
H419 H 0.56615 0.48848 0.10076 0.0
H420 H 0.54331 0.46681 0.98641 0.0
H421 H 0.57238 0.51287 0.78479 0.0
C422 C 0.62528 0.55912 0.0344 0.0
C423 C 0.63211 0.55764 0.12402 0.0
C424 C 0.62064 0.54117 0.18014 0.0
C425 C 0.60299 0.52606 0.14727 0.0
C426 C 0.59703 0.52763 0.05817 0.0
C427 C 0.60778 0.5438 0.0025 0.0
C428 C 0.59948 0.54067 0.90804 0.0
C429 C 0.58578 0.56262 0.87616 0.0
C430 C 0.62031 0.5349 0.84608 0.0
C431 C 0.58314 0.51964 0.91883 0.0
C432 C 0.58149 0.51273 0.00616 0.0
C433 C 0.56731 0.49373 0.03218 0.0
C434 C 0.55452 0.48149 0.96708 0.0
C435 C 0.55645 0.48804 0.8773 0.0
C436 C 0.57092 0.50733 0.85305 0.0
H437 H 0.93027 0.6457 0.94181 0.0
H438 H 0.96066 0.64025 0.20439 0.0
H439 H 0.98579 0.60711 0.15408 0.0
H440 H 0.93068 0.58196 0.89187 0.0
H441 H 0.93845 0.58647 0.77771 0.0
H442 H 0.9214 0.60853 0.83575 0.0
H443 H 0.95268 0.64039 0.79503 0.0
H444 H 0.96978 0.61839 0.73717 0.0
H445 H 0.98329 0.6356 0.82393 0.0
H446 H 0.00768 0.5747 0.07567 0.0
H447 H 0.02687 0.54696 0.97113 0.0
H448 H 0.98415 0.57509 0.75772 0.0
C449 C 0.94207 0.6374 0.98892 0.0
C450 C 0.94348 0.64553 0.07713 0.0
C451 C 0.95931 0.63436 0.13649 0.0
C452 C 0.97357 0.61544 0.10867 0.0
C453 C 0.97187 0.60798 0.02121 0.0
C454 C 0.9566 0.61863 0.96203 0.0
C455 C 0.95906 0.60792 0.87061 0.0
C456 C 0.93603 0.59549 0.84237 0.0
C457 C 0.96666 0.6267 0.80271 0.0
C458 C 0.97858 0.5901 0.88717 0.0
C459 C 0.98533 0.59004 0.97492 0.0
C460 C 0.00265 0.57468 0.00671 0.0
C461 C 0.01346 0.55906 0.94705 0.0
C462 C 0.00721 0.55929 0.85663 0.0
C463 C 0.98954 0.57495 0.82638 0.0
H464 H 0.05085 0.23322 0.25575 0.0
H465 H 0.03529 0.22511 0.97681 0.0
H466 H 0.02441 0.18331 0.00217 0.0
H467 H 0.07693 0.17683 0.29196 0.0
H468 H 0.06372 0.17246 0.39913 0.0
H469 H 0.06947 0.202 0.35984 0.0
H470 H 0.02543 0.21292 0.38373 0.0
H471 H 0.01928 0.18339 0.4224 0.0
H472 H 0.00268 0.19544 0.33146 0.0
H473 H 0.01804 0.14187 0.05583 0.0
H474 H 0.01386 0.10404 0.13526 0.0
H475 H 0.03169 0.1395 0.38126 0.0
C476 C 0.0452 0.2226 0.2 0.0
C477 C 0.0445 0.23219 0.11383 0.0
C478 C 0.0368 0.21787 0.0427 0.0
C479 C 0.03047 0.19415 0.05656 0.0
C480 C 0.03209 0.18502 0.14181 0.0
C481 C 0.03902 0.19884 0.21255 0.0
C482 C 0.03893 0.18475 0.29774 0.0
C483 C 0.06374 0.18397 0.33959 0.0
C484 C 0.02049 0.19472 0.36266 0.0
C485 C 0.03159 0.16066 0.26328 0.0
C486 C 0.02757 0.16127 0.17333 0.0
C487 C 0.02103 0.14113 0.12631 0.0
C488 C 0.01851 0.11977 0.17236 0.0
C489 C 0.02222 0.1187 0.26499 0.0
C490 C 0.0289 0.13954 0.31058 0.0
H491 H 0.28388 0.08265 0.28454 0.0
H492 H 0.26549 0.03792 0.0623 0.0
H493 H 0.30437 0.01768 0.07429 0.0
H494 H 0.34737 0.08824 0.23502 0.0
H495 H 0.35556 0.08726 0.34991 0.0
H496 H 0.32727 0.09931 0.31786 0.0
H497 H 0.30625 0.06958 0.42309 0.0
H498 H 0.33452 0.05755 0.45448 0.0
H499 H 0.31188 0.03831 0.4108 0.0
H500 H 0.34506 0.0022 0.11274 0.0
H501 H 0.38269 0.99014 0.18132 0.0
H502 H 0.37273 0.04348 0.38527 0.0
C503 C 0.28821 0.06875 0.23792 0.0
C504 C 0.27199 0.06194 0.17182 0.0
C505 C 0.27784 0.04333 0.1132 0.0
C506 C 0.29989 0.03193 0.11911 0.0
C507 C 0.31565 0.03924 0.18466 0.0
C508 C 0.30998 0.05709 0.24349 0.0
C509 C 0.32932 0.06059 0.31146 0.0
C510 C 0.34053 0.08532 0.30303 0.0
C511 C 0.31993 0.05623 0.40549 0.0
C512 C 0.3465 0.04148 0.28321 0.0
C513 C 0.33855 0.02969 0.20895 0.0
C514 C 0.35136 0.01119 0.17134 0.0
C515 C 0.37265 0.00431 0.21155 0.0
C516 C 0.38075 0.01556 0.28987 0.0
C517 C 0.36747 0.03462 0.32499 0.0
H518 H 0.3904 0.27835 0.35384 0.0
H519 H 0.43434 0.24996 0.1444 0.0
H520 H 0.46084 0.28491 0.15614 0.0
H521 H 0.3959 0.34093 0.29631 0.0
H522 H 0.39673 0.35 0.41024 0.0
H523 H 0.38087 0.32359 0.37903 0.0
H524 H 0.40584 0.29974 0.49303 0.0
H525 H 0.42183 0.32619 0.52217 0.0
H526 H 0.4377 0.3003 0.4853 0.0
H527 H 0.48249 0.32299 0.1926 0.0
H528 H 0.49943 0.35932 0.25785 0.0
H529 H 0.44177 0.36155 0.44756 0.0
C530 C 0.40551 0.27966 0.31001 0.0
C531 C 0.41026 0.26179 0.24732 0.0
C532 C 0.43047 0.26362 0.19257 0.0
C533 C 0.44545 0.28344 0.19838 0.0
C534 C 0.44005 0.301 0.26013 0.0
C535 C 0.42068 0.29915 0.31555 0.0
C536 C 0.41948 0.31968 0.3797 0.0
C537 C 0.3969 0.33441 0.36541 0.0
C538 C 0.42133 0.31095 0.47571 0.0
C539 C 0.44132 0.33333 0.35236 0.0
C540 C 0.45281 0.32244 0.28267 0.0
C541 C 0.47367 0.33159 0.2474 0.0
C542 C 0.48324 0.35216 0.28538 0.0
C543 C 0.47204 0.3633 0.35829 0.0
C544 C 0.45063 0.35378 0.39112 0.0
H545 H 0.2593 0.47008 0.29518 0.0
H546 H 0.24714 0.49852 0.0335 0.0
H547 H 0.20547 0.5074 0.07405 0.0
H548 H 0.20386 0.44256 0.33025 0.0
H549 H 0.20201 0.45095 0.44461 0.0
H550 H 0.23053 0.44744 0.39299 0.0
H551 H 0.24123 0.49034 0.44195 0.0
H552 H 0.21237 0.49367 0.4913 0.0
H553 H 0.22234 0.51454 0.40934 0.0
H554 H 0.16436 0.50981 0.14016 0.0
H555 H 0.12814 0.51033 0.23157 0.0
H556 H 0.16789 0.4819 0.45272 0.0
C557 C 0.24787 0.47845 0.24698 0.0
C558 C 0.25618 0.48351 0.16114 0.0
C559 C 0.24099 0.49466 0.0997 0.0
C560 C 0.21734 0.49964 0.12207 0.0
C561 C 0.20948 0.49388 0.20682 0.0
C562 C 0.22444 0.48399 0.2689 0.0
C563 C 0.2118 0.47997 0.35592 0.0
C564 C 0.21208 0.45367 0.38237 0.0
C565 C 0.22258 0.49556 0.42893 0.0
C566 C 0.18711 0.48817 0.33205 0.0
C567 C 0.18613 0.49616 0.24583 0.0
C568 C 0.16502 0.50394 0.20815 0.0
C569 C 0.14448 0.50393 0.2604 0.0
C570 C 0.14516 0.49623 0.34955 0.0
C571 C 0.16683 0.4882 0.3853 0.0
H572 H 0.94453 0.79478 0.24508 0.0
H573 H 0.9184 0.77153 0.99003 0.0
H574 H 0.92531 0.81165 0.93076 0.0
H575 H 0.92467 0.85251 0.24798 0.0
H576 H 0.95115 0.86543 0.29336 0.0
H577 H 0.94384 0.8351 0.31749 0.0
H578 H 0.98456 0.82067 0.25455 0.0
H579 H 0.9923 0.85116 0.23516 0.0
H580 H 0.99342 0.83004 0.1462 0.0
H581 H 0.93494 0.85446 0.89996 0.0
H582 H 0.9491 0.89573 0.89675 0.0
H583 H 0.97271 0.88948 0.16824 0.0
C584 C 0.94132 0.79747 0.17596 0.0
C585 C 0.93171 0.77946 0.12194 0.0
C586 C 0.92595 0.78489 0.033 0.0
C587 C 0.92985 0.80763 0.99855 0.0
C588 C 0.93985 0.82472 0.05344 0.0
C589 C 0.94591 0.81978 0.13973 0.0
C590 C 0.95749 0.84091 0.1837 0.0
C591 C 0.94345 0.84895 0.26548 0.0
C592 C 0.98346 0.83539 0.20638 0.0
C593 C 0.95608 0.85887 0.10992 0.0
C594 C 0.94591 0.84915 0.03519 0.0
C595 C 0.94297 0.86221 0.9581 0.0
C596 C 0.95098 0.88569 0.95702 0.0
C597 C 0.96203 0.89588 0.03208 0.0
C598 C 0.96445 0.88222 0.10964 0.0
H599 H 0.72636 0.94534 0.16058 0.0
H600 H 0.72606 0.88791 0.97017 0.0
H601 H 0.68653 0.90052 0.91815 0.0
H602 H 0.66292 0.94549 0.21487 0.0
H603 H 0.6622 0.97724 0.22162 0.0
H604 H 0.68923 0.96167 0.24623 0.0
H605 H 0.71002 0.98805 0.12722 0.0
H606 H 0.68229 0.00211 0.10066 0.0
H607 H 0.69914 0.98756 0.0153 0.0
H608 H 0.64715 0.91895 0.88778 0.0
H609 H 0.61069 0.94286 0.87776 0.0
H610 H 0.63679 0.98914 0.08505 0.0
C611 C 0.71771 0.93516 0.10924 0.0
C612 C 0.72896 0.91536 0.07041 0.0
C613 C 0.71759 0.90302 0.001 0.0
C614 C 0.69517 0.91003 0.97119 0.0
C615 C 0.68455 0.92964 0.01061 0.0
C616 C 0.69545 0.94215 0.07778 0.0
C617 C 0.68066 0.96337 0.1053 0.0
C618 C 0.67336 0.96182 0.20289 0.0
C619 C 0.69382 0.98664 0.08594 0.0
C620 C 0.65947 0.96034 0.04503 0.0
C621 C 0.66214 0.94082 0.9908 0.0
C622 C 0.64482 0.93422 0.93016 0.0
C623 C 0.6241 0.94779 0.92547 0.0
C624 C 0.62081 0.96768 0.98134 0.0
C625 C 0.63888 0.97411 0.04124 0.0
H626 H 0.56439 0.7025 0.29083 0.0
H627 H 0.53493 0.74737 0.08583 0.0
H628 H 0.51919 0.71207 0.01016 0.0
H629 H 0.58143 0.65442 0.15581 0.0
H630 H 0.57283 0.63166 0.23288 0.0
H631 H 0.58153 0.66042 0.27278 0.0
H632 H 0.54109 0.66494 0.35529 0.0
H633 H 0.53344 0.63566 0.31805 0.0
H634 H 0.51405 0.66029 0.29522 0.0
H635 H 0.50664 0.67221 0.9562 0.0
H636 H 0.49729 0.63007 0.92935 0.0
H637 H 0.5341 0.61087 0.17035 0.0
C638 C 0.55401 0.70504 0.23178 0.0
C639 C 0.55048 0.72786 0.19551 0.0
C640 C 0.5378 0.73012 0.1152 0.0
C641 C 0.52875 0.71017 0.07168 0.0
C642 C 0.5325 0.68799 0.1092 0.0
C643 C 0.54466 0.68526 0.18772 0.0
C644 C 0.54615 0.65933 0.21356 0.0
C645 C 0.57203 0.65098 0.21904 0.0
C646 C 0.5329 0.65478 0.30067 0.0
C647 C 0.53332 0.64797 0.13648 0.0
C648 C 0.52547 0.66486 0.07738 0.0
C649 C 0.51264 0.65881 0.00211 0.0
C650 C 0.50735 0.63488 0.98757 0.0
C651 C 0.51494 0.61727 0.04782 0.0
C652 C 0.52833 0.62394 0.12268 0.0
H653 H 0.79455 0.58105 0.2479 0.0
H654 H 0.74718 0.55458 0.045 0.0
H655 H 0.78134 0.53744 0.96624 0.0
H656 H 0.84374 0.59517 0.11997 0.0
H657 H 0.86537 0.58388 0.19673 0.0
H658 H 0.83721 0.59439 0.23652 0.0
H659 H 0.82872 0.55301 0.31121 0.0
H660 H 0.85781 0.54414 0.27533 0.0
H661 H 0.83225 0.52667 0.24629 0.0
H662 H 0.82087 0.52221 0.91122 0.0
H663 H 0.86237 0.50966 0.887 0.0
H664 H 0.88307 0.5447 0.12994 0.0
C665 C 0.791 0.57102 0.18909 0.0
C666 C 0.76786 0.56879 0.15461 0.0
C667 C 0.76466 0.55655 0.07349 0.0
C668 C 0.78396 0.54667 0.02813 0.0
C669 C 0.80643 0.54895 0.06494 0.0
C670 C 0.80998 0.56056 0.14415 0.0
C671 C 0.83577 0.55976 0.17135 0.0
C672 C 0.84613 0.58479 0.18171 0.0
C673 C 0.83884 0.54505 0.25606 0.0
C674 C 0.84633 0.54691 0.09314 0.0
C675 C 0.8291 0.54046 0.03298 0.0
C676 C 0.8345 0.52724 0.95782 0.0
C677 C 0.85806 0.52014 0.94472 0.0
C678 C 0.87592 0.52641 0.00615 0.0
C679 C 0.8699 0.54013 0.0808 0.0
H680 H 0.07113 0.18212 0.62088 0.0
H681 H 0.07602 0.19872 0.90016 0.0
H682 H 0.05661 0.16061 0.93571 0.0
H683 H 0.0143 0.15331 0.62464 0.0
H684 H 0.02269 0.13093 0.54562 0.0
H685 H 0.03644 0.1597 0.54224 0.0
H686 H 0.07762 0.14023 0.55262 0.0
H687 H 0.0644 0.11125 0.55784 0.0
H688 H 0.08424 0.12082 0.64382 0.0
H689 H 0.0372 0.1201 0.94018 0.0
H690 H 0.02041 0.08032 0.91343 0.0
H691 H 0.02871 0.09086 0.63092 0.0
C692 C 0.06785 0.17794 0.68962 0.0
C693 C 0.07464 0.19367 0.75773 0.0
C694 C 0.07029 0.18736 0.84677 0.0
C695 C 0.05937 0.1657 0.86761 0.0
C696 C 0.0527 0.15072 0.79868 0.0
C697 C 0.05687 0.15656 0.71145 0.0
C698 C 0.04893 0.13703 0.64963 0.0
C699 C 0.02941 0.14577 0.58685 0.0
C700 C 0.07005 0.12674 0.59796 0.0
C701 C 0.03937 0.11938 0.71563 0.0
C702 C 0.04177 0.12748 0.80128 0.0
C703 C 0.03488 0.11376 0.87337 0.0
C704 C 0.02536 0.09117 0.85745 0.0
C705 C 0.02297 0.08248 0.77005 0.0
C706 C 0.02995 0.09699 0.69856 0.0
H707 H 0.35798 0.08345 0.068 0.0
H708 H 0.31023 0.08073 0.8434 0.0
H709 H 0.3414 0.06177 0.7542 0.0
H710 H 0.41159 0.09586 0.94341 0.0
H711 H 0.43005 0.07743 0.01195 0.0
H712 H 0.40419 0.09144 0.0581 0.0
H713 H 0.38843 0.05058 0.10934 0.0
H714 H 0.41436 0.03656 0.06379 0.0
H715 H 0.38532 0.02702 0.0296 0.0
H716 H 0.37699 0.04273 0.68959 0.0
H717 H 0.41531 0.02455 0.65264 0.0
H718 H 0.44044 0.03897 0.91872 0.0
C719 C 0.3542 0.07909 0.9998 0.0
C720 C 0.33171 0.08371 0.96246 0.0
C721 C 0.32732 0.0774 0.8734 0.0
C722 C 0.34491 0.06664 0.82209 0.0
C723 C 0.3668 0.0622 0.86084 0.0
C724 C 0.37157 0.06819 0.94754 0.0
C725 C 0.39651 0.06096 0.97316 0.0
C726 C 0.41147 0.08272 0.99809 0.0
C727 C 0.39612 0.04269 0.04845 0.0
C728 C 0.4049 0.04993 0.88722 0.0
C729 C 0.38744 0.0509 0.82346 0.0
C730 C 0.39082 0.0418 0.73893 0.0
C731 C 0.41268 0.03145 0.7187 0.0
C732 C 0.43092 0.03019 0.78282 0.0
C733 C 0.42688 0.03958 0.86823 0.0
H734 H 0.40403 0.35205 0.13828 0.0
H735 H 0.40953 0.30043 0.92629 0.0
H736 H 0.43445 0.328 0.84176 0.0
H737 H 0.40054 0.40365 0.00161 0.0
H738 H 0.41846 0.42195 0.07271 0.0
H739 H 0.40141 0.39801 0.11878 0.0
H740 H 0.43946 0.38013 0.18826 0.0
H741 H 0.4564 0.40435 0.14327 0.0
H742 H 0.46468 0.37425 0.11851 0.0
H743 H 0.45741 0.3608 0.77768 0.0
H744 H 0.47781 0.39754 0.73643 0.0
H745 H 0.4586 0.42871 0.98923 0.0
C746 C 0.41045 0.34661 0.07404 0.0
C747 C 0.4047 0.32411 0.03869 0.0
C748 C 0.41364 0.31755 0.95476 0.0
C749 C 0.42785 0.33307 0.90617 0.0
C750 C 0.43316 0.35506 0.94258 0.0
C751 C 0.42487 0.3619 0.02458 0.0
C752 C 0.43326 0.38672 0.04749 0.0
C753 C 0.41216 0.40358 0.0609 0.0
C754 C 0.4494 0.38633 0.12926 0.0
C755 C 0.44713 0.39284 0.96457 0.0
C756 C 0.44687 0.37419 0.90545 0.0
C757 C 0.45789 0.37552 0.82347 0.0
C758 C 0.46942 0.39655 0.80067 0.0
C759 C 0.4699 0.41608 0.85956 0.0
C760 C 0.45872 0.41406 0.943 0.0
H761 H 0.19372 0.45319 0.93821 0.0
H762 H 0.17554 0.43561 0.20904 0.0
H763 H 0.13415 0.44746 0.18084 0.0
H764 H 0.15607 0.50431 0.92046 0.0
H765 H 0.14811 0.49856 0.80715 0.0
H766 H 0.17639 0.4889 0.84876 0.0
H767 H 0.16702 0.44585 0.80059 0.0
H768 H 0.13878 0.45537 0.75839 0.0
H769 H 0.14019 0.43189 0.83883 0.0
H770 H 0.09496 0.46132 0.12329 0.0
H771 H 0.06012 0.47471 0.03962 0.0
H772 H 0.10368 0.48268 0.80478 0.0
C773 C 0.18103 0.45167 0.99154 0.0
C774 C 0.18786 0.44335 0.07579 0.0
C775 C 0.17071 0.44176 0.14383 0.0
C776 C 0.14717 0.44852 0.12851 0.0
C777 C 0.1411 0.45674 0.04476 0.0
C778 C 0.15748 0.45822 0.97729 0.0
C779 C 0.14632 0.46741 0.89304 0.0
C780 C 0.15738 0.49121 0.86577 0.0
C781 C 0.14818 0.44903 0.81832 0.0
C782 C 0.12097 0.47055 0.92328 0.0
C783 C 0.11842 0.46452 0.01126 0.0
C784 C 0.09672 0.46603 0.05432 0.0
C785 C 0.07703 0.47371 0.00601 0.0
C786 C 0.0791 0.47971 0.9153 0.0
C787 C 0.10146 0.47816 0.87378 0.0
H788 H 0.99005 0.83904 0.40433 0.0
H789 H 0.94761 0.81339 0.62355 0.0
H790 H 0.95341 0.8514 0.70083 0.0
H791 H 0.03218 0.87314 0.53454 0.0
H792 H 0.03396 0.89696 0.45559 0.0
H793 H 0.02757 0.86728 0.41874 0.0
H794 H 0.98975 0.88257 0.3427 0.0
H795 H 0.99527 0.91221 0.38085 0.0
H796 H 0.96757 0.89791 0.40656 0.0
H797 H 0.96243 0.89197 0.75175 0.0
H798 H 0.97433 0.93334 0.77666 0.0
H799 H 0.0103 0.93385 0.52279 0.0
C800 C 0.98218 0.84133 0.46889 0.0
C801 C 0.96842 0.82318 0.50804 0.0
C802 C 0.95822 0.827 0.5923 0.0
C803 C 0.96141 0.84852 0.63672 0.0
C804 C 0.97473 0.86613 0.59577 0.0
C805 C 0.98496 0.86287 0.5138 0.0
C806 C 0.99783 0.88508 0.48379 0.0
C807 C 0.02447 0.88033 0.47254 0.0
C808 C 0.98693 0.89502 0.39845 0.0
C809 C 0.99309 0.90133 0.56162 0.0
C810 C 0.97985 0.88991 0.62543 0.0
C811 C 0.97298 0.90112 0.70302 0.0
C812 C 0.97989 0.92463 0.71633 0.0
C813 C 0.99341 0.93686 0.65184 0.0
C814 C 2e-05 0.92499 0.57331 0.0
H815 H 0.63822 0.92363 0.32713 0.0
H816 H 0.68915 0.93373 0.53843 0.0
H817 H 0.65733 0.94926 0.63456 0.0
H818 H 0.60719 0.97715 0.36482 0.0
H819 H 0.57852 0.96518 0.33752 0.0
H820 H 0.60478 0.95277 0.28842 0.0
H821 H 0.59319 0.91122 0.3469 0.0
H822 H 0.56684 0.92349 0.39603 0.0
H823 H 0.58756 0.90721 0.46316 0.0
H824 H 0.62025 0.96458 0.70606 0.0
H825 H 0.58106 0.98053 0.74585 0.0
H826 H 0.55476 0.96243 0.48461 0.0
C827 C 0.64263 0.9288 0.39402 0.0
C828 C 0.66611 0.92733 0.42566 0.0
C829 C 0.67125 0.93467 0.51304 0.0
C830 C 0.6533 0.94345 0.56812 0.0
C831 C 0.63039 0.945 0.53441 0.0
C832 C 0.62503 0.93799 0.44925 0.0
C833 C 0.59935 0.94295 0.42711 0.0
C834 C 0.59735 0.96056 0.34992 0.0
C835 C 0.58595 0.91984 0.40715 0.0
C836 C 0.59111 0.95393 0.51309 0.0
C837 C 0.60923 0.9547 0.57441 0.0
C838 C 0.60594 0.96412 0.65855 0.0
C839 C 0.58358 0.97316 0.68043 0.0
C840 C 0.56482 0.97291 0.61812 0.0
C841 C 0.56872 0.96302 0.53358 0.0
H842 H 0.54462 0.65974 0.61784 0.0
H843 H 0.59917 0.63917 0.43065 0.0
H844 H 0.59408 0.59745 0.47365 0.0
H845 H 0.56039 0.61392 0.78846 0.0
H846 H 0.52987 0.60913 0.81821 0.0
H847 H 0.53942 0.63793 0.7812 0.0
H848 H 0.50744 0.63737 0.65866 0.0
H849 H 0.49773 0.60866 0.69524 0.0
H850 H 0.50652 0.61295 0.58188 0.0
H851 H 0.57973 0.55814 0.52043 0.0
H852 H 0.55862 0.52308 0.57674 0.0
H853 H 0.51461 0.5683 0.74068 0.0
C854 C 0.55583 0.64648 0.58742 0.0
C855 C 0.57235 0.65269 0.52108 0.0
C856 C 0.58658 0.63487 0.48218 0.0
C857 C 0.58382 0.6111 0.50614 0.0
C858 C 0.56709 0.6055 0.57037 0.0
C859 C 0.5536 0.62264 0.61182 0.0
C860 C 0.53609 0.61155 0.67572 0.0
C861 C 0.54179 0.61856 0.77156 0.0
C862 C 0.51043 0.61801 0.65135 0.0
C863 C 0.54104 0.5855 0.65998 0.0
C864 C 0.55915 0.58249 0.59952 0.0
C865 C 0.56581 0.56022 0.56899 0.0
C866 C 0.55358 0.54045 0.60074 0.0
C867 C 0.53499 0.54305 0.66274 0.0
C868 C 0.52892 0.56584 0.69389 0.0
H869 H 0.84002 0.55113 0.64176 0.0
H870 H 0.85639 0.58339 0.38863 0.0
H871 H 0.8984 0.57297 0.40776 0.0
H872 H 0.89458 0.57085 0.75096 0.0
H873 H 0.89787 0.54415 0.8149 0.0
H874 H 0.86877 0.55442 0.78459 0.0
H875 H 0.85932 0.51438 0.71034 0.0
H876 H 0.8881 0.50349 0.74139 0.0
H877 H 0.87906 0.5028 0.62722 0.0
H878 H 0.93796 0.55608 0.44786 0.0
H879 H 0.9733 0.53733 0.51372 0.0
H880 H 0.93179 0.51799 0.74431 0.0
C881 C 0.85248 0.55627 0.59087 0.0
C882 C 0.8448 0.56782 0.51312 0.0
C883 C 0.86174 0.57435 0.4484 0.0
C884 C 0.88569 0.56853 0.45864 0.0
C885 C 0.89256 0.55661 0.53487 0.0
C886 C 0.87657 0.55094 0.60071 0.0
C887 C 0.88866 0.5381 0.67615 0.0
C888 C 0.8874 0.55275 0.76172 0.0
C889 C 0.87815 0.51322 0.68949 0.0
C890 C 0.91376 0.53685 0.64102 0.0
C891 C 0.91562 0.54761 0.55943 0.0
C892 C 0.93682 0.54783 0.51222 0.0
C893 C 0.95675 0.53699 0.54988 0.0
C894 C 0.95534 0.52619 0.63407 0.0
C895 C 0.9335 0.52618 0.67996 0.0
loop_
_geom_bond_atom_site_label_1
_geom_bond_atom_site_label_2
_geom_bond_distance
_geom_bond_site_symmetry_2
_ccdc_geom_bond_type
O0 Cd1 2.300 . S
O0 C7 1.275 . S
Cd1 O0 2.300 . S
Cd1 O9 2.381 . S
Cd1 O10 2.378 . S
O2 Cd3 2.385 . S
O2 C7 1.255 . S
Cd3 O2 2.385 . S
Cd3 O4 2.317 . S
O4 Cd3 2.317 . S
O4 C5 1.232 . S
C5 O4 1.232 . S
C5 O6 1.218 . S
O6 C5 1.218 . S
C7 O0 1.275 . S
C7 O2 1.255 . S
C8 O9 1.258 . S
C8 O10 1.256 . S
O9 Cd1 2.381 . S
O9 C8 1.258 . S
O10 Cd1 2.378 . S
O10 C8 1.256 . S
O11 Cd12 2.300 1_655 S
O11 C18 1.275 1_655 S
Cd12 O11 2.300 1_455 S
Cd12 O20 2.381 1_455 S
Cd12 O21 2.378 . S
O13 Cd14 2.385 . S
O13 C18 1.255 . S
Cd14 O13 2.385 . S
Cd14 O15 2.317 . S
O15 Cd14 2.317 . S
O15 C16 1.232 . S
C16 O15 1.232 . S
C16 O17 1.218 . S
O17 C16 1.218 . S
C18 O11 1.275 1_455 S
C18 O13 1.255 . S
C19 O20 1.243 1_455 S
C19 O21 1.276 . S
O20 Cd12 2.381 1_655 S
O20 C19 1.243 1_655 S
O21 Cd12 2.378 . S
O21 C19 1.276 . S
O22 Cd23 2.300 1_565 S
O22 C29 1.275 1_565 S
Cd23 O22 2.300 1_545 S
Cd23 O31 2.381 1_545 S
Cd23 O32 2.378 . S
O24 Cd25 2.385 . S
O24 C29 1.255 . S
Cd25 O24 2.385 . S
Cd25 O26 2.317 . S
O26 Cd25 2.317 . S
O26 C27 1.232 . S
C27 O26 1.232 . S
C27 O28 1.218 . S
O28 C27 1.218 . S
C29 O22 1.275 1_545 S
C29 O24 1.255 . S
C30 O31 1.260 1_545 S
C30 O32 1.253 . S
O31 Cd23 2.381 1_565 S
O31 C30 1.260 1_565 S
O32 Cd23 2.378 . S
O32 C30 1.253 . S
O33 Cd34 2.300 . S
O33 C40 1.275 . S
Cd34 O33 2.300 . S
Cd34 O42 2.381 . S
Cd34 O43 2.378 . S
O35 Cd36 2.385 . S
O35 C40 1.255 . S
Cd36 O35 2.385 . S
Cd36 O37 2.317 . S
O37 Cd36 2.317 . S
O37 C38 1.232 . S
C38 O37 1.232 . S
C38 O39 1.218 . S
O39 C38 1.218 . S
C40 O33 1.275 . S
C40 O35 1.255 . S
C41 O42 1.258 . S
C41 O43 1.256 . S
O42 Cd34 2.381 . S
O42 C41 1.258 . S
O43 Cd34 2.378 . S
O43 C41 1.256 . S
O44 Cd45 2.300 . S
O44 C51 1.275 . S
Cd45 O44 2.300 . S
Cd45 O53 2.381 . S
Cd45 O54 2.378 . S
O46 Cd47 2.385 1_554 S
O46 C51 1.255 . S
Cd47 O46 2.385 1_556 S
Cd47 O48 2.317 . S
O48 Cd47 2.317 . S
O48 C49 1.232 . S
C49 O48 1.232 . S
C49 O50 1.218 . S
O50 C49 1.218 . S
C51 O44 1.275 . S
C51 O46 1.255 . S
C52 O53 1.258 . S
C52 O54 1.256 . S
O53 Cd45 2.381 . S
O53 C52 1.258 . S
O54 Cd45 2.378 . S
O54 C52 1.256 . S
O55 Cd56 2.300 . S
O55 C62 1.275 . S
Cd56 O55 2.300 . S
Cd56 O64 2.381 1_455 S
Cd56 O65 2.378 . S
O57 Cd58 2.385 1_554 S
O57 C62 1.255 . S
Cd58 O57 2.385 1_556 S
Cd58 O59 2.317 . S
O59 Cd58 2.317 . S
O59 C60 1.232 . S
C60 O59 1.232 . S
C60 O61 1.218 . S
O61 C60 1.218 . S
C62 O55 1.275 . S
C62 O57 1.255 . S
C63 O64 1.258 1_455 S
C63 O65 1.256 . S
O64 Cd56 2.381 1_655 S
O64 C63 1.258 1_655 S
O65 Cd56 2.378 . S
O65 C63 1.256 . S
O66 Cd67 2.321 . S
O66 C73 1.293 . S
Cd67 O66 2.321 . S
Cd67 O75 2.381 1_545 S
Cd67 O76 2.378 . S
O68 Cd69 2.385 1_554 S
O68 C73 1.255 . S
Cd69 O68 2.385 1_556 S
Cd69 O70 2.317 . S
O70 Cd69 2.317 . S
O70 C71 1.232 . S
C71 O70 1.232 . S
C71 O72 1.218 . S
O72 C71 1.218 . S
C73 O66 1.293 . S
C73 O68 1.255 . S
C74 O75 1.258 1_545 S
C74 O76 1.256 . S
O75 Cd67 2.381 1_565 S
O75 C74 1.258 1_565 S
O76 Cd67 2.378 . S
O76 C74 1.256 . S
O77 Cd78 2.300 . S
O77 C84 1.275 . S
Cd78 O77 2.300 . S
Cd78 O86 2.381 . S
Cd78 O87 2.378 . S
O79 Cd80 2.385 1_554 S
O79 C84 1.255 . S
Cd80 O79 2.385 1_556 S
Cd80 O81 2.317 . S
O81 Cd80 2.317 . S
O81 C82 1.232 . S
C82 O81 1.232 . S
C82 O83 1.218 . S
O83 C82 1.218 . S
C84 O77 1.275 . S
C84 O79 1.255 . S
C85 O86 1.258 . S
C85 O87 1.256 . S
O86 Cd78 2.381 . S
O86 C85 1.258 . S
O87 Cd78 2.378 . S
O87 C85 1.256 . S
Gd88 C91 2.818 . S
Gd88 O108 2.377 . S
Gd88 O110 2.448 . S
Gd88 O111 2.506 . S
Gd88 O112 2.435 . S
Gd88 O113 2.717 1_565 S
Gd88 O115 2.395 1_565 S
Gd88 O119 2.327 1_455 S
Gd89 C100 2.818 . S
Gd89 O109 2.395 1_545 S
Gd89 O113 2.327 1_655 S
Gd89 O114 2.377 . S
Gd89 O116 2.448 . S
Gd89 O117 2.489 1_655 S
Gd89 O118 2.435 . S
Gd89 O119 2.717 1_545 S
C90 O108 1.240 1_655 S
C90 O109 1.240 . S
C91 Gd88 2.818 . S
C91 C92 1.510 . S
C91 O110 1.249 . S
C91 O111 1.252 . S
C92 C91 1.510 . S
C92 C93 1.404 . S
C92 C94 1.352 . S
C93 C92 1.404 . S
C93 C97 1.389 . S
C93 H120 0.930 . S
C94 C92 1.352 . S
C94 C96 1.374 . S
C94 H121 0.931 1_455 S
C95 C96 1.359 1_554 S
C95 C97 1.364 1_554 S
C96 C94 1.374 . S
C96 C95 1.359 1_556 S
C96 H122 0.931 1_456 S
C97 C93 1.389 . S
C97 C95 1.364 1_556 S
C97 H123 0.931 . S
C98 O112 1.240 1_545 S
C98 O113 1.267 . S
C99 O114 1.240 1_455 S
C99 O115 1.240 . S
C100 Gd89 2.818 . S
C100 C101 1.510 . S
C100 O116 1.249 . S
C100 O117 1.211 1_655 S
C101 C100 1.510 . S
C101 C102 1.404 . S
C101 C103 1.352 . S
C102 C101 1.404 . S
C102 C106 1.389 . S
C102 H124 0.930 . S
C103 C101 1.352 . S
C103 C105 1.374 . S
C103 H125 0.931 1_655 S
C104 C105 1.359 . S
C104 C106 1.364 . S
C105 C103 1.374 . S
C105 C104 1.359 . S
C105 H126 0.931 1_655 S
C106 C102 1.389 . S
C106 C104 1.364 . S
C106 H127 0.931 . S
C107 O118 1.256 . S
C107 O119 1.257 1_545 S
O108 Gd88 2.377 . S
O108 C90 1.240 1_455 S
O109 Gd89 2.395 1_565 S
O109 C90 1.240 . S
O110 Gd88 2.448 . S
O110 C91 1.249 . S
O111 Gd88 2.506 . S
O111 C91 1.252 . S
O112 Gd88 2.435 . S
O112 C98 1.240 1_565 S
O113 Gd88 2.717 1_545 S
O113 Gd89 2.327 1_455 S
O113 C98 1.267 . S
O114 Gd89 2.377 . S
O114 C99 1.240 1_655 S
O115 Gd88 2.395 1_545 S
O115 C99 1.240 . S
O116 Gd89 2.448 . S
O116 C100 1.249 . S
O117 Gd89 2.489 1_455 S
O117 C100 1.211 1_455 S
O118 Gd89 2.435 . S
O118 C107 1.256 . S
O119 Gd88 2.327 1_655 S
O119 Gd89 2.717 1_565 S
O119 C107 1.257 1_565 S
H120 C93 0.930 . S
H121 C94 0.931 1_655 S
H122 C96 0.931 1_654 S
H123 C97 0.931 . S
H124 C102 0.930 . S
H125 C103 0.931 1_455 S
H126 C105 0.931 1_455 S
H127 C106 0.931 . S
Gd128 C131 2.818 . S
Gd128 O148 2.377 . S
Gd128 O150 2.448 . S
Gd128 O151 2.506 . S
Gd128 O152 2.435 . S
Gd128 O153 2.717 . S
Gd128 O155 2.395 . S
Gd128 O159 2.327 1_545 S
Gd129 C140 2.818 . S
Gd129 O149 2.395 . S
Gd129 O153 2.327 1_565 S
Gd129 O154 2.377 . S
Gd129 O156 2.448 . S
Gd129 O157 2.503 1_565 S
Gd129 O158 2.435 . S
Gd129 O159 2.717 . S
C130 O148 1.240 1_565 S
C130 O149 1.240 . S
C131 Gd128 2.818 . S
C131 C132 1.510 . S
C131 O150 1.249 . S
C131 O151 1.252 . S
C132 C131 1.510 . S
C132 C133 1.404 . S
C132 C134 1.352 . S
C133 C132 1.404 . S
C133 C137 1.389 . S
C133 H160 0.930 . S
C134 C132 1.352 . S
C134 C136 1.374 . S
C134 H161 0.931 1_545 S
C135 C136 1.359 1_554 S
C135 C137 1.364 1_554 S
C136 C134 1.374 . S
C136 C135 1.359 1_556 S
C136 H162 0.931 1_546 S
C137 C133 1.389 . S
C137 C135 1.364 1_556 S
C137 H163 0.931 . S
C138 O152 1.256 . S
C138 O153 1.257 . S
C139 O154 1.240 1_545 S
C139 O155 1.240 . S
C140 Gd129 2.818 . S
C140 C141 1.510 . S
C140 O156 1.249 . S
C140 O157 1.244 1_565 S
C141 C140 1.510 . S
C141 C142 1.404 . S
C141 C143 1.352 . S
C142 C141 1.404 . S
C142 C146 1.389 . S
C142 H164 0.930 . S
C143 C141 1.352 . S
C143 C145 1.374 . S
C143 H165 0.931 1_565 S
C144 C145 1.359 . S
C144 C146 1.364 . S
C145 C143 1.374 . S
C145 C144 1.359 . S
C145 H166 0.931 1_565 S
C146 C142 1.389 . S
C146 C144 1.364 . S
C146 H167 0.931 . S
C147 O158 1.256 . S
C147 O159 1.257 . S
O148 Gd128 2.377 . S
O148 C130 1.240 1_545 S
O149 Gd129 2.395 . S
O149 C130 1.240 . S
O150 Gd128 2.448 . S
O150 C131 1.249 . S
O151 Gd128 2.506 . S
O151 C131 1.252 . S
O152 Gd128 2.435 . S
O152 C138 1.256 . S
O153 Gd128 2.717 . S
O153 Gd129 2.327 1_545 S
O153 C138 1.257 . S
O154 Gd129 2.377 . S
O154 C139 1.240 1_565 S
O155 Gd128 2.395 . S
O155 C139 1.240 . S
O156 Gd129 2.448 . S
O156 C140 1.249 . S
O157 Gd129 2.503 1_545 S
O157 C140 1.244 1_545 S
O158 Gd129 2.435 . S
O158 C147 1.256 . S
O159 Gd128 2.327 1_565 S
O159 Gd129 2.717 . S
O159 C147 1.257 . S
H160 C133 0.930 . S
H161 C134 0.931 1_565 S
H162 C136 0.931 1_564 S
H163 C137 0.931 . S
H164 C142 0.930 . S
H165 C143 0.931 1_545 S
H166 C145 0.931 1_545 S
H167 C146 0.931 . S
Gd168 C171 2.818 . S
Gd168 O188 2.377 . S
Gd168 O190 2.448 . S
Gd168 O191 2.506 . S
Gd168 O192 2.435 . S
Gd168 O193 2.717 . S
Gd168 O195 2.395 . S
Gd168 O199 2.327 . S
Gd169 C180 2.818 . S
Gd169 O189 2.395 . S
Gd169 O193 2.327 . S
Gd169 O194 2.377 . S
Gd169 O196 2.448 . S
Gd169 O197 2.506 . S
Gd169 O198 2.435 . S
Gd169 O199 2.717 . S
C170 O188 1.240 . S
C170 O189 1.240 . S
C171 Gd168 2.818 . S
C171 C172 1.510 . S
C171 O190 1.249 . S
C171 O191 1.252 . S
C172 C171 1.510 . S
C172 C173 1.404 . S
C172 C174 1.352 . S
C173 C172 1.404 . S
C173 C177 1.389 . S
C173 H200 0.930 . S
C174 C172 1.352 . S
C174 C176 1.374 . S
C174 H201 0.931 . S
C175 C176 1.359 1_554 S
C175 C177 1.364 1_554 S
C176 C174 1.374 . S
C176 C175 1.359 1_556 S
C176 H202 0.931 1_556 S
C177 C173 1.389 . S
C177 C175 1.364 1_556 S
C177 H203 0.931 . S
C178 O192 1.256 . S
C178 O193 1.257 . S
C179 O194 1.240 . S
C179 O195 1.240 . S
C180 Gd169 2.818 . S
C180 C181 1.510 . S
C180 O196 1.249 . S
C180 O197 1.252 . S
C181 C180 1.510 . S
C181 C182 1.404 . S
C181 C183 1.352 . S
C182 C181 1.404 . S
C182 C186 1.389 . S
C182 H204 0.930 . S
C183 C181 1.352 . S
C183 C185 1.374 . S
C183 H205 0.931 . S
C184 C185 1.359 . S
C184 C186 1.364 . S
C185 C183 1.374 . S
C185 C184 1.359 . S
C185 H206 0.931 . S
C186 C182 1.389 . S
C186 C184 1.364 . S
C186 H207 0.931 . S
C187 O198 1.256 . S
C187 O199 1.257 . S
O188 Gd168 2.377 . S
O188 C170 1.240 . S
O189 Gd169 2.395 . S
O189 C170 1.240 . S
O190 Gd168 2.448 . S
O190 C171 1.249 . S
O191 Gd168 2.506 . S
O191 C171 1.252 . S
O192 Gd168 2.435 . S
O192 C178 1.256 . S
O193 Gd168 2.717 . S
O193 Gd169 2.327 . S
O193 C178 1.257 . S
O194 Gd169 2.377 . S
O194 C179 1.240 . S
O195 Gd168 2.395 . S
O195 C179 1.240 . S
O196 Gd169 2.448 . S
O196 C180 1.249 . S
O197 Gd169 2.506 . S
O197 C180 1.252 . S
O198 Gd169 2.435 . S
O198 C187 1.256 . S
O199 Gd168 2.327 . S
O199 Gd169 2.717 . S
O199 C187 1.257 . S
H200 C173 0.930 . S
H201 C174 0.931 . S
H202 C176 0.931 1_554 S
H203 C177 0.931 . S
H204 C182 0.930 . S
H205 C183 0.931 . S
H206 C185 0.931 . S
H207 C186 0.931 . S
Gd208 C211 2.818 . S
Gd208 O228 2.377 . S
Gd208 O230 2.448 . S
Gd208 O231 2.506 . S
Gd208 O232 2.435 . S
Gd208 O233 2.717 1_655 S
Gd208 O235 2.395 1_655 S
Gd208 O239 2.327 . S
Gd209 C220 2.818 . S
Gd209 O229 2.395 1_455 S
Gd209 O233 2.327 . S
Gd209 O234 2.377 . S
Gd209 O236 2.448 . S
Gd209 O237 2.506 . S
Gd209 O238 2.435 . S
Gd209 O239 2.717 1_455 S
C210 O228 1.240 . S
C210 O229 1.240 . S
C211 Gd208 2.818 . S
C211 C212 1.510 . S
C211 O230 1.249 . S
C211 O231 1.252 . S
C212 C211 1.510 . S
C212 C213 1.404 . S
C212 C214 1.352 . S
C213 C212 1.404 . S
C213 C217 1.389 . S
C213 H240 0.930 . S
C214 C212 1.352 . S
C214 C216 1.374 . S
C214 H241 0.931 . S
C215 C216 1.359 1_554 S
C215 C217 1.364 1_554 S
C216 C214 1.374 . S
C216 C215 1.359 1_556 S
C216 H242 0.931 1_556 S
C217 C213 1.389 . S
C217 C215 1.364 1_556 S
C217 H243 0.931 . S
C218 O232 1.256 1_455 S
C218 O233 1.257 . S
C219 O234 1.240 . S
C219 O235 1.240 . S
C220 Gd209 2.818 . S
C220 C221 1.510 . S
C220 O236 1.249 . S
C220 O237 1.252 . S
C221 C220 1.510 . S
C221 C222 1.404 . S
C221 C223 1.352 . S
C222 C221 1.404 . S
C222 C226 1.389 . S
C222 H244 0.930 . S
C223 C221 1.352 . S
C223 C225 1.374 . S
C223 H245 0.931 . S
C224 C225 1.359 . S
C224 C226 1.364 . S
C225 C223 1.374 . S
C225 C224 1.359 . S
C225 H246 0.931 . S
C226 C222 1.389 . S
C226 C224 1.364 . S
C226 H247 0.931 . S
C227 O238 1.256 . S
C227 O239 1.257 1_455 S
O228 Gd208 2.377 . S
O228 C210 1.240 . S
O229 Gd209 2.395 1_655 S
O229 C210 1.240 . S
O230 Gd208 2.448 . S
O230 C211 1.249 . S
O231 Gd208 2.506 . S
O231 C211 1.252 . S
O232 Gd208 2.435 . S
O232 C218 1.256 1_655 S
O233 Gd208 2.717 1_455 S
O233 Gd209 2.327 . S
O233 C218 1.257 . S
O234 Gd209 2.377 . S
O234 C219 1.240 . S
O235 Gd208 2.395 1_455 S
O235 C219 1.240 . S
O236 Gd209 2.448 . S
O236 C220 1.249 . S
O237 Gd209 2.506 . S
O237 C220 1.252 . S
O238 Gd209 2.435 . S
O238 C227 1.256 . S
O239 Gd208 2.327 . S
O239 Gd209 2.717 1_655 S
O239 C227 1.257 1_655 S
H240 C213 0.930 . S
H241 C214 0.931 . S
H242 C216 0.931 1_554 S
H243 C217 0.931 . S
H244 C222 0.930 . S
H245 C223 0.931 . S
H246 C225 0.931 . S
H247 C226 0.931 . S
H248 C260 0.930 . S
H249 C262 0.930 . S
H250 C263 0.930 . S
H251 C267 0.959 . S
H252 C267 0.959 . S
H253 C267 0.961 . S
H254 C268 0.960 . S
H255 C268 0.961 . S
H256 C268 0.959 . S
H257 C271 0.929 . S
H258 C272 0.931 . S
H259 C274 0.930 . S
C260 H248 0.930 . S
C260 C261 1.399 1_565 S
C260 C265 1.399 . S
C261 C260 1.399 1_545 S
C261 C262 1.376 . S
C262 H249 0.930 . S
C262 C261 1.376 . S
C262 C263 1.388 . S
C263 H250 0.930 . S
C263 C262 1.388 . S
C263 C264 1.390 . S
C264 C263 1.390 . S
C264 C265 1.394 1_545 S
C264 C270 1.465 . S
C265 C260 1.399 . S
C265 C264 1.394 1_565 S
C265 C266 1.516 . S
C266 C265 1.516 . S
C266 C267 1.502 . S
C266 C268 1.561 . S
C266 C269 1.526 . S
C267 H251 0.959 . S
C267 H252 0.959 . S
C267 H253 0.961 . S
C267 C266 1.502 . S
C268 H254 0.960 . S
C268 H255 0.961 . S
C268 H256 0.959 . S
C268 C266 1.561 . S
C269 C266 1.526 . S
C269 C270 1.396 1_565 S
C269 C274 1.390 . S
C270 C264 1.465 . S
C270 C269 1.396 1_545 S
C270 C271 1.399 . S
C271 H257 0.929 . S
C271 C270 1.399 . S
C271 C272 1.385 . S
C272 H258 0.931 . S
C272 C271 1.385 . S
C272 C273 1.389 . S
C273 C272 1.389 . S
C273 C274 1.387 1_545 S
C274 H259 0.930 . S
C274 C269 1.390 . S
C274 C273 1.387 1_565 S
H275 C287 0.930 . S
H276 C289 0.930 . S
H277 C290 0.930 . S
H278 C294 0.959 . S
H279 C294 0.959 . S
H280 C294 0.961 . S
H281 C295 0.960 . S
H282 C295 0.961 . S
H283 C295 0.959 . S
H284 C298 0.929 . S
H285 C299 0.931 . S
H286 C301 0.930 . S
C287 H275 0.930 . S
C287 C288 1.399 . S
C287 C292 1.399 . S
C288 C287 1.399 . S
C288 C289 1.376 . S
C289 H276 0.930 . S
C289 C288 1.376 . S
C289 C290 1.388 . S
C290 H277 0.930 . S
C290 C289 1.388 . S
C290 C291 1.390 . S
C291 C290 1.390 . S
C291 C292 1.394 . S
C291 C297 1.465 . S
C292 C287 1.399 . S
C292 C291 1.394 . S
C292 C293 1.516 . S
C293 C292 1.516 . S
C293 C294 1.502 . S
C293 C295 1.561 . S
C293 C296 1.526 . S
C294 H278 0.959 . S
C294 H279 0.959 . S
C294 H280 0.961 . S
C294 C293 1.502 . S
C295 H281 0.960 . S
C295 H282 0.961 . S
C295 H283 0.959 . S
C295 C293 1.561 . S
C296 C293 1.526 . S
C296 C297 1.396 . S
C296 C301 1.390 . S
C297 C291 1.465 . S
C297 C296 1.396 . S
C297 C298 1.399 . S
C298 H284 0.929 . S
C298 C297 1.399 . S
C298 C299 1.385 . S
C299 H285 0.931 . S
C299 C298 1.385 . S
C299 C300 1.389 . S
C300 C299 1.389 . S
C300 C301 1.387 . S
C301 H286 0.930 . S
C301 C296 1.390 . S
C301 C300 1.387 . S
H302 C314 0.930 . S
H303 C316 0.930 . S
H304 C317 0.930 . S
H305 C321 0.959 . S
H306 C321 0.959 . S
H307 C321 0.961 . S
H308 C322 0.960 . S
H309 C322 0.961 . S
H310 C322 0.959 . S
H311 C325 0.929 . S
H312 C326 0.931 . S
H313 C328 0.930 . S
C314 H302 0.930 . S
C314 C315 1.399 . S
C314 C319 1.399 . S
C315 C314 1.399 . S
C315 C316 1.376 . S
C316 H303 0.930 . S
C316 C315 1.376 . S
C316 C317 1.388 . S
C317 H304 0.930 . S
C317 C316 1.388 . S
C317 C318 1.390 . S
C318 C317 1.390 . S
C318 C319 1.394 . S
C318 C324 1.465 . S
C319 C314 1.399 . S
C319 C318 1.394 . S
C319 C320 1.516 . S
C320 C319 1.516 . S
C320 C321 1.502 . S
C320 C322 1.561 . S
C320 C323 1.526 . S
C321 H305 0.959 . S
C321 H306 0.959 . S
C321 H307 0.961 . S
C321 C320 1.502 . S
C322 H308 0.960 . S
C322 H309 0.961 . S
C322 H310 0.959 . S
C322 C320 1.561 . S
C323 C320 1.526 . S
C323 C324 1.396 . S
C323 C328 1.390 . S
C324 C318 1.465 . S
C324 C323 1.396 . S
C324 C325 1.399 . S
C325 H311 0.929 . S
C325 C324 1.399 . S
C325 C326 1.385 . S
C326 H312 0.931 . S
C326 C325 1.385 . S
C326 C327 1.389 . S
C327 C326 1.389 . S
C327 C328 1.387 . S
C328 H313 0.930 . S
C328 C323 1.390 . S
C328 C327 1.387 . S
H329 C341 0.930 . S
H330 C343 0.930 . S
H331 C344 0.930 . S
H332 C348 0.959 . S
H333 C348 0.959 . S
H334 C348 0.961 . S
H335 C349 0.960 . S
H336 C349 0.961 . S
H337 C349 0.959 . S
H338 C352 0.929 . S
H339 C353 0.931 . S
H340 C355 0.930 . S
C341 H329 0.930 . S
C341 C342 1.399 1_655 S
C341 C346 1.399 . S
C342 C341 1.399 1_455 S
C342 C343 1.376 . S
C343 H330 0.930 . S
C343 C342 1.376 . S
C343 C344 1.388 . S
C344 H331 0.930 . S
C344 C343 1.388 . S
C344 C345 1.390 . S
C345 C344 1.390 . S
C345 C346 1.394 1_455 S
C345 C351 1.465 . S
C346 C341 1.399 . S
C346 C345 1.394 1_655 S
C346 C347 1.516 . S
C347 C346 1.516 . S
C347 C348 1.502 . S
C347 C349 1.561 . S
C347 C350 1.526 . S
C348 H332 0.959 . S
C348 H333 0.959 . S
C348 H334 0.961 . S
C348 C347 1.502 . S
C349 H335 0.960 . S
C349 H336 0.961 . S
C349 H337 0.959 . S
C349 C347 1.561 . S
C350 C347 1.526 . S
C350 C351 1.396 1_655 S
C350 C355 1.390 . S
C351 C345 1.465 . S
C351 C350 1.396 1_455 S
C351 C352 1.399 . S
C352 H338 0.929 . S
C352 C351 1.399 . S
C352 C353 1.385 . S
C353 H339 0.931 . S
C353 C352 1.385 . S
C353 C354 1.389 . S
C354 C353 1.389 . S
C354 C355 1.387 1_455 S
C355 H340 0.930 . S
C355 C350 1.390 . S
C355 C354 1.387 1_655 S
H356 C368 0.930 . S
H357 C370 0.930 . S
H358 C371 0.930 . S
H359 C375 0.959 . S
H360 C375 0.959 . S
H361 C375 0.961 . S
H362 C376 0.960 . S
H363 C376 0.961 1_556 S
H364 C376 0.959 1_556 S
H365 C379 0.929 . S
H366 C380 0.931 . S
H367 C382 0.930 . S
C368 H356 0.930 . S
C368 C369 1.419 . S
C368 C373 1.399 . S
C369 C368 1.419 . S
C369 C370 1.352 1_565 S
C370 H357 0.930 . S
C370 C369 1.352 1_545 S
C370 C371 1.388 . S
C371 H358 0.930 . S
C371 C370 1.388 . S
C371 C372 1.390 . S
C372 C371 1.390 . S
C372 C373 1.394 1_545 S
C372 C378 1.465 1_554 S
C373 C368 1.399 . S
C373 C372 1.394 1_565 S
C373 C374 1.516 . S
C374 C373 1.516 . S
C374 C375 1.502 . S
C374 C376 1.561 . S
C374 C377 1.526 1_554 S
C375 H359 0.959 . S
C375 H360 0.959 . S
C375 H361 0.961 . S
C375 C374 1.502 . S
C376 H362 0.960 . S
C376 H363 0.961 1_554 S
C376 H364 0.959 1_554 S
C376 C374 1.561 . S
C377 C374 1.526 1_556 S
C377 C378 1.396 1_565 S
C377 C382 1.390 . S
C378 C372 1.465 1_556 S
C378 C377 1.396 1_545 S
C378 C379 1.399 . S
C379 H365 0.929 . S
C379 C378 1.399 . S
C379 C380 1.385 . S
C380 H366 0.931 . S
C380 C379 1.385 . S
C380 C381 1.389 . S
C381 C380 1.389 . S
C381 C382 1.387 1_545 S
C382 H367 0.930 . S
C382 C377 1.390 . S
C382 C381 1.387 1_565 S
H383 C395 0.930 . S
H384 C397 0.930 . S
H385 C398 0.930 . S
H386 C402 0.959 . S
H387 C402 0.959 . S
H388 C402 0.961 . S
H389 C403 0.960 . S
H390 C403 0.961 . S
H391 C403 0.959 . S
H392 C406 0.929 . S
H393 C407 0.931 . S
H394 C409 0.930 . S
C395 H383 0.930 . S
C395 C396 1.399 . S
C395 C400 1.399 . S
C396 C395 1.399 . S
C396 C397 1.376 . S
C397 H384 0.930 . S
C397 C396 1.376 . S
C397 C398 1.388 . S
C398 H385 0.930 . S
C398 C397 1.388 . S
C398 C399 1.390 . S
C399 C398 1.390 . S
C399 C400 1.394 . S
C399 C405 1.465 . S
C400 C395 1.399 . S
C400 C399 1.394 . S
C400 C401 1.516 1_554 S
C401 C400 1.516 1_556 S
C401 C402 1.502 . S
C401 C403 1.561 . S
C401 C404 1.526 . S
C402 H386 0.959 . S
C402 H387 0.959 . S
C402 H388 0.961 . S
C402 C401 1.502 . S
C403 H389 0.960 . S
C403 H390 0.961 . S
C403 H391 0.959 . S
C403 C401 1.561 . S
C404 C401 1.526 . S
C404 C405 1.396 1_556 S
C404 C409 1.390 . S
C405 C399 1.465 . S
C405 C404 1.396 1_554 S
C405 C406 1.399 . S
C406 H392 0.929 . S
C406 C405 1.399 . S
C406 C407 1.385 1_554 S
C407 H393 0.931 . S
C407 C406 1.385 1_556 S
C407 C408 1.389 . S
C408 C407 1.389 . S
C408 C409 1.387 . S
C409 H394 0.930 . S
C409 C404 1.390 . S
C409 C408 1.387 . S
H410 C422 0.930 . S
H411 C424 0.930 . S
H412 C425 0.930 . S
H413 C429 0.959 . S
H414 C429 0.959 . S
H415 C429 0.961 . S
H416 C430 0.960 1_554 S
H417 C430 0.961 . S
H418 C430 0.959 . S
H419 C433 0.929 . S
H420 C434 0.931 . S
H421 C436 0.930 . S
C422 H410 0.930 . S
C422 C423 1.399 . S
C422 C427 1.399 . S
C423 C422 1.399 . S
C423 C424 1.376 . S
C424 H411 0.930 . S
C424 C423 1.376 . S
C424 C425 1.388 . S
C425 H412 0.930 . S
C425 C424 1.388 . S
C425 C426 1.390 . S
C426 C425 1.390 . S
C426 C427 1.394 . S
C426 C432 1.465 1_554 S
C427 C422 1.399 . S
C427 C426 1.394 . S
C427 C428 1.516 . S
C428 C427 1.516 . S
C428 C429 1.502 . S
C428 C430 1.561 1_554 S
C428 C431 1.526 1_554 S
C429 H413 0.959 . S
C429 H414 0.959 . S
C429 H415 0.961 . S
C429 C428 1.502 . S
C430 H416 0.960 1_556 S
C430 H417 0.961 . S
C430 H418 0.959 . S
C430 C428 1.561 1_556 S
C431 C428 1.526 1_556 S
C431 C432 1.396 . S
C431 C436 1.390 . S
C432 C426 1.465 1_556 S
C432 C431 1.396 . S
C432 C433 1.399 . S
C433 H419 0.929 . S
C433 C432 1.399 . S
C433 C434 1.385 . S
C434 H420 0.931 . S
C434 C433 1.385 . S
C434 C435 1.389 . S
C435 C434 1.389 . S
C435 C436 1.387 . S
C436 H421 0.930 . S
C436 C431 1.390 . S
C436 C435 1.387 . S
H437 C449 0.930 . S
H438 C451 0.930 . S
H439 C452 0.930 . S
H440 C456 0.959 . S
H441 C456 0.959 . S
H442 C456 0.961 . S
H443 C457 0.960 . S
H444 C457 0.961 . S
H445 C457 0.959 . S
H446 C460 0.929 . S
H447 C461 0.931 . S
H448 C463 0.930 . S
C449 H437 0.930 . S
C449 C450 1.399 . S
C449 C454 1.399 . S
C450 C449 1.399 . S
C450 C451 1.377 1_655 S
C451 H438 0.930 . S
C451 C450 1.377 1_455 S
C451 C452 1.388 . S
C452 H439 0.930 . S
C452 C451 1.388 . S
C452 C453 1.390 . S
C453 C452 1.390 . S
C453 C454 1.394 1_455 S
C453 C459 1.465 . S
C454 C449 1.399 . S
C454 C453 1.394 1_655 S
C454 C455 1.516 1_554 S
C455 C454 1.516 1_556 S
C455 C456 1.502 . S
C455 C457 1.561 1_655 S
C455 C458 1.526 . S
C456 H440 0.959 . S
C456 H441 0.959 . S
C456 H442 0.961 . S
C456 C455 1.502 . S
C457 H443 0.960 . S
C457 H444 0.961 . S
C457 H445 0.959 . S
C457 C455 1.561 1_455 S
C458 C455 1.526 . S
C458 C459 1.396 1_656 S
C458 C463 1.390 . S
C459 C453 1.465 . S
C459 C458 1.396 1_454 S
C459 C460 1.399 . S
C460 H446 0.929 . S
C460 C459 1.399 . S
C460 C461 1.385 1_554 S
C461 H447 0.931 . S
C461 C460 1.385 1_556 S
C461 C462 1.403 . S
C462 C461 1.403 . S
C462 C463 1.378 1_455 S
C463 H448 0.930 . S
C463 C458 1.390 . S
C463 C462 1.378 1_655 S
H464 C476 0.930 . S
H465 C478 0.930 . S
H466 C479 0.930 . S
H467 C483 0.959 . S
H468 C483 0.959 . S
H469 C483 0.961 . S
H470 C484 0.960 . S
H471 C484 0.961 . S
H472 C484 0.959 . S
H473 C487 0.929 . S
H474 C488 0.931 . S
H475 C490 0.930 . S
C476 H464 0.930 . S
C476 C477 1.399 . S
C476 C481 1.399 1_455 S
C477 C476 1.399 . S
C477 C478 1.376 1_455 S
C478 H465 0.930 . S
C478 C477 1.376 1_655 S
C478 C479 1.388 . S
C479 H466 0.930 . S
C479 C478 1.388 . S
C479 C480 1.390 . S
C480 C479 1.390 . S
C480 C481 1.394 . S
C480 C486 1.465 . S
C481 C476 1.399 1_655 S
C481 C480 1.394 . S
C481 C482 1.516 . S
C482 C481 1.516 . S
C482 C483 1.502 1_655 S
C482 C484 1.561 . S
C482 C485 1.526 . S
C483 H467 0.959 . S
C483 H468 0.959 . S
C483 H469 0.961 . S
C483 C482 1.502 1_455 S
C484 H470 0.960 . S
C484 H471 0.961 . S
C484 H472 0.959 . S
C484 C482 1.561 . S
C485 C482 1.526 . S
C485 C486 1.396 . S
C485 C490 1.390 . S
C486 C480 1.465 . S
C486 C485 1.396 . S
C486 C487 1.399 . S
C487 H473 0.929 . S
C487 C486 1.399 . S
C487 C488 1.385 . S
C488 H474 0.931 . S
C488 C487 1.385 . S
C488 C489 1.389 . S
C489 C488 1.389 . S
C489 C490 1.387 . S
C490 H475 0.930 . S
C490 C485 1.390 . S
C490 C489 1.387 . S
H491 C503 0.930 . S
H492 C505 0.930 . S
H493 C506 0.930 . S
H494 C510 0.959 . S
H495 C510 0.959 . S
H496 C510 0.961 . S
H497 C511 0.960 1_545 S
H498 C511 0.961 1_545 S
H499 C511 0.959 . S
H500 C514 0.929 . S
H501 C515 0.931 . S
H502 C517 0.930 . S
C503 H491 0.930 . S
C503 C504 1.399 . S
C503 C508 1.399 . S
C504 C503 1.399 . S
C504 C505 1.376 1_545 S
C505 H492 0.930 . S
C505 C504 1.376 1_565 S
C505 C506 1.388 . S
C506 H493 0.930 . S
C506 C505 1.388 . S
C506 C507 1.390 . S
C507 C506 1.390 . S
C507 C508 1.394 1_565 S
C507 C513 1.465 . S
C508 C503 1.399 . S
C508 C507 1.394 1_545 S
C508 C509 1.516 . S
C509 C508 1.516 . S
C509 C510 1.502 . S
C509 C511 1.561 1_545 S
C509 C512 1.526 1_545 S
C510 H494 0.959 . S
C510 H495 0.959 . S
C510 H496 0.961 . S
C510 C509 1.502 . S
C511 H497 0.960 1_565 S
C511 H498 0.961 1_565 S
C511 H499 0.959 . S
C511 C509 1.561 1_565 S
C512 C509 1.526 1_565 S
C512 C513 1.396 . S
C512 C517 1.390 . S
C513 C507 1.465 . S
C513 C512 1.396 . S
C513 C514 1.399 . S
C514 H500 0.929 . S
C514 C513 1.399 . S
C514 C515 1.385 . S
C515 H501 0.931 . S
C515 C514 1.385 . S
C515 C516 1.389 . S
C516 C515 1.389 . S
C516 C517 1.387 . S
C517 H502 0.930 . S
C517 C512 1.390 . S
C517 C516 1.387 . S
H518 C530 0.930 . S
H519 C532 0.930 . S
H520 C533 0.930 . S
H521 C537 0.959 . S
H522 C537 0.959 . S
H523 C537 0.961 . S
H524 C538 0.960 . S
H525 C538 0.961 . S
H526 C538 0.959 . S
H527 C541 0.929 . S
H528 C542 0.931 . S
H529 C544 0.930 . S
C530 H518 0.930 . S
C530 C531 1.399 . S
C530 C535 1.399 . S
C531 C530 1.399 . S
C531 C532 1.376 . S
C532 H519 0.930 . S
C532 C531 1.376 . S
C532 C533 1.388 . S
C533 H520 0.930 . S
C533 C532 1.388 . S
C533 C534 1.390 . S
C534 C533 1.390 . S
C534 C535 1.394 . S
C534 C540 1.465 . S
C535 C530 1.399 . S
C535 C534 1.394 . S
C535 C536 1.516 . S
C536 C535 1.516 . S
C536 C537 1.502 . S
C536 C538 1.561 . S
C536 C539 1.526 . S
C537 H521 0.959 . S
C537 H522 0.959 . S
C537 H523 0.961 . S
C537 C536 1.502 . S
C538 H524 0.960 . S
C538 H525 0.961 . S
C538 H526 0.959 . S
C538 C536 1.561 . S
C539 C536 1.526 . S
C539 C540 1.396 . S
C539 C544 1.390 . S
C540 C534 1.465 . S
C540 C539 1.396 . S
C540 C541 1.399 . S
C541 H527 0.929 . S
C541 C540 1.399 . S
C541 C542 1.385 . S
C542 H528 0.931 . S
C542 C541 1.385 . S
C542 C543 1.389 . S
C543 C542 1.389 . S
C543 C544 1.387 . S
C544 H529 0.930 . S
C544 C539 1.390 . S
C544 C543 1.387 . S
H545 C557 0.930 . S
H546 C559 0.930 . S
H547 C560 0.930 . S
H548 C564 0.959 . S
H549 C564 0.959 . S
H550 C564 0.961 . S
H551 C565 0.960 . S
H552 C565 0.961 . S
H553 C565 0.959 . S
H554 C568 0.929 . S
H555 C569 0.931 . S
H556 C571 0.930 . S
C557 H545 0.930 . S
C557 C558 1.399 . S
C557 C562 1.399 . S
C558 C557 1.399 . S
C558 C559 1.376 . S
C559 H546 0.930 . S
C559 C558 1.376 . S
C559 C560 1.388 . S
C560 H547 0.930 . S
C560 C559 1.388 . S
C560 C561 1.390 . S
C561 C560 1.390 . S
C561 C562 1.394 . S
C561 C567 1.465 . S
C562 C557 1.399 . S
C562 C561 1.394 . S
C562 C563 1.516 . S
C563 C562 1.516 . S
C563 C564 1.502 . S
C563 C565 1.561 . S
C563 C566 1.526 . S
C564 H548 0.959 . S
C564 H549 0.959 . S
C564 H550 0.961 . S
C564 C563 1.502 . S
C565 H551 0.960 . S
C565 H552 0.961 . S
C565 H553 0.959 . S
C565 C563 1.561 . S
C566 C563 1.526 . S
C566 C567 1.396 . S
C566 C571 1.390 . S
C567 C561 1.465 . S
C567 C566 1.396 . S
C567 C568 1.399 . S
C568 H554 0.929 . S
C568 C567 1.399 . S
C568 C569 1.385 . S
C569 H555 0.931 . S
C569 C568 1.385 . S
C569 C570 1.389 . S
C570 C569 1.389 . S
C570 C571 1.387 . S
C571 H556 0.930 . S
C571 C566 1.390 . S
C571 C570 1.387 . S
H572 C584 0.930 . S
H573 C586 0.930 . S
H574 C587 0.930 . S
H575 C591 1.001 . S
H576 C591 0.959 . S
H577 C591 0.961 . S
H578 C592 0.960 . S
H579 C592 0.961 . S
H580 C592 0.959 . S
H581 C595 0.929 . S
H582 C596 0.931 . S
H583 C598 0.930 . S
C584 H572 0.930 . S
C584 C585 1.399 1_455 S
C584 C589 1.399 . S
C585 C584 1.399 1_655 S
C585 C586 1.376 . S
C586 H573 0.930 . S
C586 C585 1.376 . S
C586 C587 1.388 . S
C587 H574 0.930 . S
C587 C586 1.388 . S
C587 C588 1.390 1_655 S
C588 C587 1.390 1_455 S
C588 C589 1.394 . S
C588 C594 1.465 . S
C589 C584 1.399 . S
C589 C588 1.394 . S
C589 C590 1.516 . S
C590 C589 1.516 . S
C590 C591 1.502 . S
C590 C592 1.561 . S
C590 C593 1.526 . S
C591 H575 1.001 . S
C591 H576 0.959 . S
C591 H577 0.961 . S
C591 C590 1.502 . S
C592 H578 0.960 . S
C592 H579 0.961 . S
C592 H580 0.959 . S
C592 C590 1.561 . S
C593 C590 1.526 . S
C593 C594 1.396 . S
C593 C598 1.390 . S
C594 C588 1.465 . S
C594 C593 1.396 . S
C594 C595 1.399 1_554 S
C595 H581 0.929 . S
C595 C594 1.399 1_556 S
C595 C596 1.385 . S
C596 H582 0.931 . S
C596 C595 1.385 . S
C596 C597 1.389 1_556 S
C597 C596 1.389 1_554 S
C597 C598 1.387 . S
C598 H583 0.930 . S
C598 C593 1.390 . S
C598 C597 1.387 . S
H599 C611 0.930 . S
H600 C613 0.930 . S
H601 C614 0.930 . S
H602 C618 0.959 . S
H603 C618 0.959 . S
H604 C618 0.961 . S
H605 C619 0.960 . S
H606 C619 0.961 . S
H607 C619 0.959 . S
H608 C622 0.929 . S
H609 C623 0.931 1_566 S
H610 C625 0.930 . S
C611 H599 0.930 . S
C611 C612 1.399 1_545 S
C611 C616 1.399 . S
C612 C611 1.399 1_565 S
C612 C613 1.376 . S
C613 H600 0.930 . S
C613 C612 1.376 . S
C613 C614 1.388 . S
C614 H601 0.930 . S
C614 C613 1.388 . S
C614 C615 1.423 . S
C615 C614 1.423 . S
C615 C616 1.365 1_565 S
C615 C621 1.455 1_565 S
C616 C611 1.399 . S
C616 C615 1.365 1_545 S
C616 C617 1.516 . S
C617 C616 1.516 . S
C617 C618 1.502 . S
C617 C619 1.561 . S
C617 C620 1.526 . S
C618 H602 0.959 . S
C618 H603 0.959 . S
C618 H604 0.961 . S
C618 C617 1.502 . S
C619 H605 0.960 . S
C619 H606 0.961 . S
C619 H607 0.959 . S
C619 C617 1.561 . S
C620 C617 1.526 . S
C620 C621 1.396 . S
C620 C625 1.390 . S
C621 C615 1.455 1_545 S
C621 C620 1.396 . S
C621 C622 1.399 1_545 S
C622 H608 0.929 . S
C622 C621 1.399 1_565 S
C622 C623 1.385 1_565 S
C623 H609 0.931 1_544 S
C623 C622 1.385 1_545 S
C623 C624 1.389 . S
C624 C623 1.389 . S
C624 C625 1.387 . S
C625 H610 0.930 . S
C625 C620 1.390 . S
C625 C624 1.387 . S
H626 C638 0.930 . S
H627 C640 0.930 . S
H628 C641 0.930 . S
H629 C645 0.959 . S
H630 C645 0.959 . S
H631 C645 0.961 . S
H632 C646 0.960 . S
H633 C646 0.961 . S
H634 C646 0.959 . S
H635 C649 0.929 . S
H636 C650 0.931 . S
H637 C652 0.930 . S
C638 H626 0.930 . S
C638 C639 1.399 . S
C638 C643 1.399 . S
C639 C638 1.399 . S
C639 C640 1.376 . S
C640 H627 0.930 . S
C640 C639 1.376 . S
C640 C641 1.388 . S
C641 H628 0.930 . S
C641 C640 1.388 . S
C641 C642 1.390 . S
C642 C641 1.390 . S
C642 C643 1.394 . S
C642 C648 1.465 . S
C643 C638 1.399 . S
C643 C642 1.394 . S
C643 C644 1.516 . S
C644 C643 1.516 . S
C644 C645 1.502 . S
C644 C646 1.561 . S
C644 C647 1.526 . S
C645 H629 0.959 . S
C645 H630 0.959 . S
C645 H631 0.961 . S
C645 C644 1.502 . S
C646 H632 0.960 . S
C646 H633 0.961 . S
C646 H634 0.959 . S
C646 C644 1.561 . S
C647 C644 1.526 . S
C647 C648 1.396 . S
C647 C652 1.390 . S
C648 C642 1.465 . S
C648 C647 1.396 . S
C648 C649 1.399 1_554 S
C649 H635 0.929 . S
C649 C648 1.399 1_556 S
C649 C650 1.385 . S
C650 H636 0.931 . S
C650 C649 1.385 . S
C650 C651 1.389 1_556 S
C651 C650 1.389 1_554 S
C651 C652 1.387 . S
C652 H637 0.930 . S
C652 C647 1.390 . S
C652 C651 1.387 . S
H653 C665 0.930 . S
H654 C667 0.930 . S
H655 C668 0.930 . S
H656 C672 0.959 . S
H657 C672 0.959 . S
H658 C672 0.961 . S
H659 C673 0.960 . S
H660 C673 0.961 . S
H661 C673 0.959 . S
H662 C676 0.929 . S
H663 C677 0.931 . S
H664 C679 0.930 . S
C665 H653 0.930 . S
C665 C666 1.399 . S
C665 C670 1.399 . S
C666 C665 1.399 . S
C666 C667 1.376 . S
C667 H654 0.930 . S
C667 C666 1.376 . S
C667 C668 1.388 . S
C668 H655 0.930 . S
C668 C667 1.388 . S
C668 C669 1.390 . S
C669 C668 1.390 . S
C669 C670 1.394 . S
C669 C675 1.465 . S
C670 C665 1.399 . S
C670 C669 1.394 . S
C670 C671 1.516 . S
C671 C670 1.516 . S
C671 C672 1.502 . S
C671 C673 1.561 . S
C671 C674 1.526 . S
C672 H656 0.959 . S
C672 H657 0.959 . S
C672 H658 0.961 . S
C672 C671 1.502 . S
C673 H659 0.960 . S
C673 H660 0.961 . S
C673 H661 0.959 . S
C673 C671 1.561 . S
C674 C671 1.526 . S
C674 C675 1.396 . S
C674 C679 1.390 . S
C675 C669 1.465 . S
C675 C674 1.396 . S
C675 C676 1.399 1_554 S
C676 H662 0.929 . S
C676 C675 1.399 1_556 S
C676 C677 1.385 . S
C677 H663 0.931 . S
C677 C676 1.385 . S
C677 C678 1.389 1_556 S
C678 C677 1.389 1_554 S
C678 C679 1.387 . S
C679 H664 0.930 . S
C679 C674 1.390 . S
C679 C678 1.387 . S
H680 C692 0.930 1_655 S
H681 C694 0.930 . S
H682 C695 0.930 . S
H683 C699 0.959 . S
H684 C699 0.959 . S
H685 C699 0.961 . S
H686 C700 0.960 . S
H687 C700 0.961 . S
H688 C700 0.959 . S
H689 C703 0.929 . S
H690 C704 0.931 . S
H691 C706 0.930 . S
C692 H680 0.930 1_455 S
C692 C693 1.399 . S
C692 C697 1.399 . S
C693 C692 1.399 . S
C693 C694 1.376 . S
C694 H681 0.930 . S
C694 C693 1.376 . S
C694 C695 1.388 . S
C695 H682 0.930 . S
C695 C694 1.388 . S
C695 C696 1.390 . S
C696 C695 1.390 . S
C696 C697 1.394 . S
C696 C702 1.465 . S
C697 C692 1.399 . S
C697 C696 1.394 . S
C697 C698 1.516 . S
C698 C697 1.516 . S
C698 C699 1.502 1_455 S
C698 C700 1.561 . S
C698 C701 1.526 . S
C699 H683 0.959 . S
C699 H684 0.959 . S
C699 H685 0.961 . S
C699 C698 1.502 1_655 S
C700 H686 0.960 . S
C700 H687 0.961 . S
C700 H688 0.959 . S
C700 C698 1.561 . S
C701 C698 1.526 . S
C701 C702 1.396 . S
C701 C706 1.390 . S
C702 C696 1.465 . S
C702 C701 1.396 . S
C702 C703 1.399 . S
C703 H689 0.929 . S
C703 C702 1.399 . S
C703 C704 1.385 . S
C704 H690 0.931 . S
C704 C703 1.385 . S
C704 C705 1.389 . S
C705 C704 1.389 . S
C705 C706 1.387 . S
C706 H691 0.930 . S
C706 C701 1.390 . S
C706 C705 1.387 . S
H707 C719 0.930 . S
H708 C721 0.930 . S
H709 C722 0.930 . S
H710 C726 0.959 . S
H711 C726 0.959 . S
H712 C726 0.961 . S
H713 C727 0.960 . S
H714 C727 0.961 . S
H715 C727 0.959 . S
H716 C730 0.929 . S
H717 C731 0.931 . S
H718 C733 0.930 . S
C719 H707 0.930 . S
C719 C720 1.399 . S
C719 C724 1.399 . S
C720 C719 1.399 . S
C720 C721 1.376 1_545 S
C721 H708 0.930 . S
C721 C720 1.376 1_565 S
C721 C722 1.388 . S
C722 H709 0.930 . S
C722 C721 1.388 . S
C722 C723 1.390 . S
C723 C722 1.390 . S
C723 C724 1.394 1_565 S
C723 C729 1.468 . S
C724 C719 1.399 . S
C724 C723 1.394 1_545 S
C724 C725 1.516 . S
C725 C724 1.516 . S
C725 C726 1.502 . S
C725 C727 1.561 . S
C725 C728 1.526 . S
C726 H710 0.959 . S
C726 H711 0.959 . S
C726 H712 0.961 . S
C726 C725 1.502 . S
C727 H713 0.960 . S
C727 H714 0.961 . S
C727 H715 0.959 . S
C727 C725 1.561 . S
C728 C725 1.526 . S
C728 C729 1.349 1_545 S
C728 C733 1.390 . S
C729 C723 1.468 . S
C729 C728 1.349 1_565 S
C729 C730 1.435 . S
C730 H716 0.929 . S
C730 C729 1.435 . S
C730 C731 1.385 . S
C731 H717 0.931 . S
C731 C730 1.385 . S
C731 C732 1.389 1_565 S
C732 C731 1.389 1_545 S
C732 C733 1.387 . S
C733 H718 0.930 . S
C733 C728 1.390 . S
C733 C732 1.387 . S
H734 C746 0.930 . S
H735 C748 0.930 . S
H736 C749 0.930 . S
H737 C753 0.959 . S
H738 C753 0.959 . S
H739 C753 0.961 . S
H740 C754 0.960 1_554 S
H741 C754 0.961 1_554 S
H742 C754 0.959 . S
H743 C757 0.929 . S
H744 C758 0.931 . S
H745 C760 0.930 . S
C746 H734 0.930 . S
C746 C747 1.399 . S
C746 C751 1.399 . S
C747 C746 1.399 . S
C747 C748 1.376 . S
C748 H735 0.930 . S
C748 C747 1.376 . S
C748 C749 1.388 . S
C749 H736 0.930 . S
C749 C748 1.388 . S
C749 C750 1.390 . S
C750 C749 1.390 . S
C750 C751 1.394 . S
C750 C756 1.465 . S
C751 C746 1.399 . S
C751 C750 1.394 . S
C751 C752 1.516 . S
C752 C751 1.516 . S
C752 C753 1.502 . S
C752 C754 1.561 . S
C752 C755 1.526 . S
C753 H737 0.959 . S
C753 H738 0.959 . S
C753 H739 0.961 . S
C753 C752 1.502 . S
C754 H740 0.960 1_556 S
C754 H741 0.961 1_556 S
C754 H742 0.959 . S
C754 C752 1.561 . S
C755 C752 1.526 . S
C755 C756 1.396 . S
C755 C760 1.390 . S
C756 C750 1.465 . S
C756 C755 1.396 . S
C756 C757 1.399 . S
C757 H743 0.929 . S
C757 C756 1.399 . S
C757 C758 1.385 . S
C758 H744 0.931 . S
C758 C757 1.385 . S
C758 C759 1.389 . S
C759 C758 1.389 . S
C759 C760 1.387 . S
C760 H745 0.930 . S
C760 C755 1.390 . S
C760 C759 1.387 . S
H761 C773 0.930 . S
H762 C775 0.930 . S
H763 C776 0.930 . S
H764 C780 0.959 . S
H765 C780 0.959 . S
H766 C780 0.961 . S
H767 C781 0.960 . S
H768 C781 0.961 . S
H769 C781 0.959 . S
H770 C784 0.929 . S
H771 C785 0.931 . S
H772 C787 0.930 . S
C773 H761 0.930 . S
C773 C774 1.399 . S
C773 C778 1.399 . S
C774 C773 1.399 . S
C774 C775 1.376 . S
C775 H762 0.930 . S
C775 C774 1.376 . S
C775 C776 1.388 . S
C776 H763 0.930 . S
C776 C775 1.388 . S
C776 C777 1.390 . S
C777 C776 1.390 . S
C777 C778 1.394 . S
C777 C783 1.465 . S
C778 C773 1.399 . S
C778 C777 1.394 . S
C778 C779 1.516 . S
C779 C778 1.516 . S
C779 C780 1.502 . S
C779 C781 1.561 . S
C779 C782 1.526 . S
C780 H764 0.959 . S
C780 H765 0.959 . S
C780 H766 0.961 . S
C780 C779 1.502 . S
C781 H767 0.960 . S
C781 H768 0.961 . S
C781 H769 0.959 . S
C781 C779 1.561 . S
C782 C779 1.526 . S
C782 C783 1.396 . S
C782 C787 1.390 . S
C783 C777 1.465 . S
C783 C782 1.396 . S
C783 C784 1.399 . S
C784 H770 0.929 . S
C784 C783 1.399 . S
C784 C785 1.385 . S
C785 H771 0.931 . S
C785 C784 1.385 . S
C785 C786 1.389 . S
C786 C785 1.389 . S
C786 C787 1.387 . S
C787 H772 0.930 . S
C787 C782 1.390 . S
C787 C786 1.387 . S
H788 C800 0.917 1_455 S
H789 C802 0.930 . S
H790 C803 0.930 . S
H791 C807 0.959 . S
H792 C807 0.959 . S
H793 C807 0.961 . S
H794 C808 0.960 . S
H795 C808 0.961 . S
H796 C808 0.959 . S
H797 C811 0.929 . S
H798 C812 0.931 . S
H799 C814 0.930 . S
C800 H788 0.917 1_655 S
C800 C801 1.407 . S
C800 C805 1.406 . S
C801 C800 1.407 . S
C801 C802 1.376 . S
C802 H789 0.930 . S
C802 C801 1.376 . S
C802 C803 1.388 . S
C803 H790 0.930 . S
C803 C802 1.388 . S
C803 C804 1.390 . S
C804 C803 1.390 . S
C804 C805 1.394 . S
C804 C810 1.465 . S
C805 C800 1.406 . S
C805 C804 1.394 . S
C805 C806 1.516 . S
C806 C805 1.516 . S
C806 C807 1.502 1_655 S
C806 C808 1.561 . S
C806 C809 1.526 . S
C807 H791 0.959 . S
C807 H792 0.959 . S
C807 H793 0.961 . S
C807 C806 1.502 1_455 S
C808 H794 0.960 . S
C808 H795 0.961 . S
C808 H796 0.959 . S
C808 C806 1.561 . S
C809 C806 1.526 . S
C809 C810 1.396 . S
C809 C814 1.390 . S
C810 C804 1.465 . S
C810 C809 1.396 . S
C810 C811 1.399 . S
C811 H797 0.929 . S
C811 C810 1.399 . S
C811 C812 1.385 . S
C812 H798 0.931 . S
C812 C811 1.385 . S
C812 C813 1.389 . S
C813 C812 1.389 . S
C813 C814 1.387 . S
C814 H799 0.930 . S
C814 C809 1.390 . S
C814 C813 1.387 . S
H815 C827 0.930 . S
H816 C829 0.930 . S
H817 C830 0.930 . S
H818 C834 0.959 . S
H819 C834 0.959 . S
H820 C834 0.961 . S
H821 C835 0.960 . S
H822 C835 0.961 . S
H823 C835 0.959 . S
H824 C838 0.929 . S
H825 C839 0.931 . S
H826 C841 0.930 . S
C827 H815 0.930 . S
C827 C828 1.399 . S
C827 C832 1.399 . S
C828 C827 1.399 . S
C828 C829 1.376 1_565 S
C829 H816 0.930 . S
C829 C828 1.376 1_545 S
C829 C830 1.388 . S
C830 H817 0.930 . S
C830 C829 1.388 . S
C830 C831 1.390 . S
C831 C830 1.390 . S
C831 C832 1.394 1_545 S
C831 C837 1.465 . S
C832 C827 1.399 . S
C832 C831 1.394 1_565 S
C832 C833 1.516 . S
C833 C832 1.516 . S
C833 C834 1.502 . S
C833 C835 1.561 . S
C833 C836 1.526 . S
C834 H818 0.959 . S
C834 H819 0.959 . S
C834 H820 0.961 . S
C834 C833 1.502 . S
C835 H821 0.960 . S
C835 H822 0.961 . S
C835 H823 0.959 . S
C835 C833 1.561 . S
C836 C833 1.526 . S
C836 C837 1.396 1_565 S
C836 C841 1.390 . S
C837 C831 1.465 . S
C837 C836 1.396 1_545 S
C837 C838 1.399 . S
C838 H824 0.929 . S
C838 C837 1.399 . S
C838 C839 1.385 . S
C839 H825 0.931 . S
C839 C838 1.385 . S
C839 C840 1.389 1_545 S
C840 C839 1.389 1_565 S
C840 C841 1.387 . S
C841 H826 0.930 . S
C841 C836 1.390 . S
C841 C840 1.387 . S
H842 C854 0.930 . S
H843 C856 0.930 . S
H844 C857 0.930 . S
H845 C861 0.959 . S
H846 C861 0.959 . S
H847 C861 0.961 . S
H848 C862 0.960 . S
H849 C862 0.961 . S
H850 C862 0.959 . S
H851 C865 0.929 . S
H852 C866 0.931 . S
H853 C868 0.930 . S
C854 H842 0.930 . S
C854 C855 1.399 . S
C854 C859 1.399 . S
C855 C854 1.399 . S
C855 C856 1.376 . S
C856 H843 0.930 . S
C856 C855 1.376 . S
C856 C857 1.388 . S
C857 H844 0.930 . S
C857 C856 1.388 . S
C857 C858 1.390 . S
C858 C857 1.390 . S
C858 C859 1.394 . S
C858 C864 1.465 . S
C859 C854 1.399 . S
C859 C858 1.394 . S
C859 C860 1.516 . S
C860 C859 1.516 . S
C860 C861 1.502 . S
C860 C862 1.561 . S
C860 C863 1.526 . S
C861 H845 0.959 . S
C861 H846 0.959 . S
C861 H847 0.961 . S
C861 C860 1.502 . S
C862 H848 0.960 . S
C862 H849 0.961 . S
C862 H850 0.959 . S
C862 C860 1.561 . S
C863 C860 1.526 . S
C863 C864 1.396 . S
C863 C868 1.390 . S
C864 C858 1.465 . S
C864 C863 1.396 . S
C864 C865 1.399 . S
C865 H851 0.929 . S
C865 C864 1.399 . S
C865 C866 1.385 . S
C866 H852 0.931 . S
C866 C865 1.385 . S
C866 C867 1.389 . S
C867 C866 1.389 . S
C867 C868 1.387 . S
C868 H853 0.930 . S
C868 C863 1.390 . S
C868 C867 1.387 . S
H869 C881 0.930 . S
H870 C883 0.930 . S
H871 C884 0.930 . S
H872 C888 0.959 . S
H873 C888 0.959 . S
H874 C888 0.961 . S
H875 C889 0.960 . S
H876 C889 0.961 . S
H877 C889 0.959 . S
H878 C892 0.929 . S
H879 C893 0.931 . S
H880 C895 0.930 . S
C881 H869 0.930 . S
C881 C882 1.399 . S
C881 C886 1.399 . S
C882 C881 1.399 . S
C882 C883 1.376 . S
C883 H870 0.930 . S
C883 C882 1.376 . S
C883 C884 1.388 . S
C884 H871 0.930 . S
C884 C883 1.388 . S
C884 C885 1.390 . S
C885 C884 1.390 . S
C885 C886 1.394 . S
C885 C891 1.465 . S
C886 C881 1.399 . S
C886 C885 1.394 . S
C886 C887 1.516 . S
C887 C886 1.516 . S
C887 C888 1.502 . S
C887 C889 1.561 . S
C887 C890 1.526 . S
C888 H872 0.959 . S
C888 H873 0.959 . S
C888 H874 0.961 . S
C888 C887 1.502 . S
C889 H875 0.960 . S
C889 H876 0.961 . S
C889 H877 0.959 . S
C889 C887 1.561 . S
C890 C887 1.526 . S
C890 C891 1.396 . S
C890 C895 1.390 . S
C891 C885 1.465 . S
C891 C890 1.396 . S
C891 C892 1.399 . S
C892 H878 0.929 . S
C892 C891 1.399 . S
C892 C893 1.385 . S
C893 H879 0.931 . S
C893 C892 1.385 . S
C893 C894 1.389 . S
C894 C893 1.389 . S
C894 C895 1.387 . S
C895 H880 0.930 . S
C895 C890 1.390 . S
C895 C894 1.387 . S
C261 C74 1.741 . S
C273 C98 1.888 . S
C300 C138 1.861 . S
C288 C85 1.810 . S
C327 C178 1.886 . S
C315 C52 1.747 . S
C354 C218 1.885 . S
C342 C63 1.756 . S
C381 C107 1.860 . S
C369 C30 1.739 1_565 S
C396 C41 1.788 . S
C408 C147 1.867 . S
C423 C8 1.747 . S
C435 C187 1.859 . S
C450 C19 1.791 1_655 S
C462 C227 1.870 . S
C489 C104 0.661 . S
C477 C62 0.634 . S
C516 C144 0.687 . S
C504 C73 0.626 . S
C543 C184 0.666 . S
C531 C84 0.633 . S
C558 C51 0.638 . S
C570 C224 0.593 . S
C585 C18 0.611 1_655 S
C597 C95 0.619 . S
C624 C135 0.548 . S
C612 C29 0.715 1_565 S
C651 C175 0.668 . S
C639 C40 0.555 . S
C666 C7 0.589 . S
C678 C215 0.637 . S
C693 C60 1.643 . S
C705 C99 2.243 . S
C720 C71 1.729 . S
C732 C139 2.218 . S
C759 C179 2.222 . S
C747 C82 1.770 . S
C786 C219 2.249 . S
C774 C49 1.649 . S
C801 C16 1.817 1_655 S
C813 C90 2.236 . S
C840 C130 2.217 . S
C828 C27 1.755 1_565 S
C867 C170 2.234 . S
C855 C38 1.701 . S
C882 C5 1.698 . S
C894 C210 2.231 . S
