# Generated by pormake.
# Topology ssa, (4,4)-cn, num edge types: 1
# Building blocks:
#     Node 0, Type 0, BuildingBlock: KOZSID_clean_sbu_0, # of connection points: 4
#     Node 1, Type 0, BuildingBlock: KOZSID_clean_sbu_0, # of connection points: 4
#     Node 2, Type 0, BuildingBlock: KOZSID_clean_sbu_0, # of connection points: 4
#     Node 3, Type 0, BuildingBlock: KOZSID_clean_sbu_0, # of connection points: 4
#     Node 4, Type 0, BuildingBlock: KOZSID_clean_sbu_0, # of connection points: 4
#     Node 5, Type 0, BuildingBlock: KOZSID_clean_sbu_0, # of connection points: 4
#     Node 6, Type 1, BuildingBlock: KOZSID_clean_sbu_0, # of connection points: 4
#     Node 7, Type 1, BuildingBlock: KOZSID_clean_sbu_0, # of connection points: 4
#     Node 8, Type 1, BuildingBlock: KOZSID_clean_sbu_0, # of connection points: 4
#     Node 9, Type 1, BuildingBlock: KOZSID_clean_sbu_0, # of connection points: 4
#     Node 10, Type 1, BuildingBlock: KOZSID_clean_sbu_0, # of connection points: 4
#     Node 11, Type 1, BuildingBlock: KOZSID_clean_sbu_0, # of connection points: 4
#     Edge 12, Type (0, 1), BuildingBlock: OJICUG_clean_linker_0, # of connection points: 2
#     Edge 13, Type (0, 1), BuildingBlock: OJICUG_clean_linker_0, # of connection points: 2
#     Edge 14, Type (0, 1), BuildingBlock: OJICUG_clean_linker_0, # of connection points: 2
#     Edge 15, Type (0, 1), BuildingBlock: OJICUG_clean_linker_0, # of connection points: 2
#     Edge 16, Type (0, 1), BuildingBlock: OJICUG_clean_linker_0, # of connection points: 2
#     Edge 17, Type (0, 1), BuildingBlock: OJICUG_clean_linker_0, # of connection points: 2
#     Edge 18, Type (0, 1), BuildingBlock: OJICUG_clean_linker_0, # of connection points: 2
#     Edge 19, Type (0, 1), BuildingBlock: OJICUG_clean_linker_0, # of connection points: 2
#     Edge 20, Type (0, 1), BuildingBlock: OJICUG_clean_linker_0, # of connection points: 2
#     Edge 21, Type (0, 1), BuildingBlock: OJICUG_clean_linker_0, # of connection points: 2
#     Edge 22, Type (0, 1), BuildingBlock: OJICUG_clean_linker_0, # of connection points: 2
#     Edge 23, Type (0, 1), BuildingBlock: OJICUG_clean_linker_0, # of connection points: 2
#     Edge 24, Type (0, 1), BuildingBlock: OJICUG_clean_linker_0, # of connection points: 2
#     Edge 25, Type (0, 1), BuildingBlock: OJICUG_clean_linker_0, # of connection points: 2
#     Edge 26, Type (0, 1), BuildingBlock: OJICUG_clean_linker_0, # of connection points: 2
#     Edge 27, Type (0, 1), BuildingBlock: OJICUG_clean_linker_0, # of connection points: 2
#     Edge 28, Type (0, 1), BuildingBlock: OJICUG_clean_linker_0, # of connection points: 2
#     Edge 29, Type (0, 1), BuildingBlock: OJICUG_clean_linker_0, # of connection points: 2
#     Edge 30, Type (0, 1), BuildingBlock: OJICUG_clean_linker_0, # of connection points: 2
#     Edge 31, Type (0, 1), BuildingBlock: OJICUG_clean_linker_0, # of connection points: 2
#     Edge 32, Type (0, 1), BuildingBlock: OJICUG_clean_linker_0, # of connection points: 2
#     Edge 33, Type (0, 1), BuildingBlock: OJICUG_clean_linker_0, # of connection points: 2
#     Edge 34, Type (0, 1), BuildingBlock: OJICUG_clean_linker_0, # of connection points: 2
#     Edge 35, Type (0, 1), BuildingBlock: OJICUG_clean_linker_0, # of connection points: 2
# Relax obj value: 0.013
# Max RMSD: 0.042
# Mean RMSD: 0.021
data_MOF--net-ssa--node1-KOZSID_clean_sbu_0--node2-KOZSID_clean_sbu_0--edge1-OJICUG_clean_linker_0
_symmetry_space_group_name_H-M    P1
_symmetry_Int_Tables_number       1
_symmetry_cell_setting            triclinic
loop_
_symmetry_equiv_pos_as_xyz
'x, y, z'
_cell_length_a     45.178728
_cell_length_b     46.46644
_cell_length_c     32.465215
_cell_angle_alpha  90.562741
_cell_angle_beta   93.858822
_cell_angle_gamma 123.07505
loop_
_atom_site_label
_atom_site_type_symbol
_atom_site_fract_x
_atom_site_fract_y
_atom_site_fract_z
_atom_type_partial_charge
C0 C 0.9426 0.51134 0.99848 0.0
C1 C 0.91459 0.50402 0.02138 0.0
C2 C 0.9192 0.49189 0.05768 0.0
C3 C 0.9494 0.49205 0.05501 0.0
N4 N 0.96467 0.50394 0.01927 0.0
Co5 Co 0.00757 0.50585 1.00184 0.0
N6 N 0.01018 0.4819 0.05184 0.0
C7 C 0.98683 0.46892 0.08108 0.0
C8 C 0.99479 0.45316 0.1112 0.0
C9 C 0.0254 0.45674 0.10101 0.0
C10 C 0.03469 0.47503 0.06541 0.0
N11 N 0.05138 0.50907 0.98537 0.0
C12 C 0.07357 0.50206 0.00668 0.0
C13 C 0.1035 0.51241 0.98596 0.0
C14 C 0.10011 0.52624 0.95052 0.0
C15 C 0.06871 0.52404 0.95167 0.0
N16 N 1.00389 0.52827 0.95082 0.0
C17 C 0.02593 0.53933 0.9202 0.0
C18 C 0.0164 0.55267 0.88847 0.0
C19 C 0.98586 0.54912 0.89885 0.0
C20 C 0.97831 0.53348 0.93636 0.0
N21 N 0.03868 0.55116 0.03237 0.0
C22 C 0.08955 0.6127 0.07803 0.0
C23 C 0.08829 0.61042 0.03493 0.0
C24 C 0.06299 0.57964 0.01293 0.0
C25 C 0.06359 0.5841 0.09753 0.0
C26 C 0.03826 0.55421 0.07427 0.0
N27 N 0.97661 0.46073 0.97127 0.0
C28 C 0.95939 0.42549 0.90807 0.0
C29 C 0.92681 0.40106 0.92246 0.0
C30 C 0.92059 0.40598 0.96264 0.0
C31 C 0.94575 0.43561 0.9864 0.0
C32 C 0.98386 0.45486 0.93294 0.0
H33 H 0.93901 0.43809 0.01638 0.0
H34 H 0.00801 0.4729 0.92011 0.0
H35 H 0.06417 0.57951 0.98034 0.0
H36 H 0.01919 0.53362 0.09115 0.0
C37 C 0.96018 0.47551 0.08185 0.0
C38 C 0.94597 0.5232 0.95623 0.0
C39 C 0.06819 0.48719 0.04736 0.0
C40 C 0.05562 0.53718 0.92254 0.0
H41 H 0.89212 0.50566 0.01238 0.0
H42 H 0.90132 0.48195 0.08194 0.0
H43 H 0.98079 0.44165 0.13825 0.0
H44 H 0.03987 0.44789 0.11861 0.0
H45 H 0.1261 0.51119 0.99576 0.0
H46 H 0.11892 0.53762 0.92733 0.0
H47 H 0.02986 0.5634 0.86088 0.0
H48 H 0.97063 0.5568 0.88054 0.0
H49 H 0.10692 0.6321 0.01803 0.0
H50 H 0.0632 0.5841 0.13082 0.0
H51 H 0.9658 0.42227 0.87751 0.0
H52 H 0.89577 0.38781 0.97526 0.0
C53 C 0.57429 0.03293 0.55583 0.0
C54 C 0.58546 0.0251 0.59242 0.0
C55 C 0.55672 0.99546 0.60446 0.0
C56 C 0.52992 0.98688 0.57448 0.0
N57 N 0.5401 0.00865 0.5434 0.0
Co58 Co 0.50989 0.00693 0.49424 0.0
N59 N 0.46628 0.96609 0.51444 0.0
C60 C 0.46414 0.95025 0.54995 0.0
C61 C 0.43149 0.92105 0.55357 0.0
C62 C 0.41175 0.91754 0.51794 0.0
C63 C 0.43351 0.94519 0.4946 0.0
N64 N 0.47973 0.00539 0.44516 0.0
C65 C 0.44518 0.98187 0.4333 0.0
C66 C 0.43412 0.99025 0.39706 0.0
C67 C 0.46319 0.01937 0.38465 0.0
C68 C 0.49008 0.02721 0.41413 0.0
N69 N 0.55354 0.04771 0.47403 0.0
C70 C 0.55595 0.0631 0.43812 0.0
C71 C 0.58862 0.09235 0.43458 0.0
C72 C 0.608 0.09643 0.47077 0.0
C73 C 0.586 0.06911 0.49433 0.0
N74 N 0.51837 0.9749 0.4633 0.0
C75 C 0.52631 0.92675 0.41888 0.0
C76 C 0.52983 0.95541 0.40013 0.0
C77 C 0.52582 0.97891 0.42266 0.0
C78 C 0.51897 0.92301 0.46038 0.0
C79 C 0.51531 0.94706 0.48169 0.0
N80 N 0.50136 0.03884 0.52521 0.0
C81 C 0.50127 0.091 0.52937 0.0
C82 C 0.49299 0.08623 0.57058 0.0
C83 C 0.48857 0.05692 0.58836 0.0
C84 C 0.49282 0.03385 0.56541 0.0
C85 C 0.50523 0.06727 0.50754 0.0
H86 H 0.48937 0.0123 0.58103 0.0
H87 H 0.51197 0.07281 0.47651 0.0
H88 H 0.52858 0.99998 0.40644 0.0
H89 H 0.50944 0.94216 0.51297 0.0
C90 C 0.49435 0.96065 0.57652 0.0
C91 C 0.59552 0.0658 0.53705 0.0
C92 C 0.42314 0.9494 0.4526 0.0
C93 C 0.52574 0.05297 0.41179 0.0
H94 H 0.61118 0.04035 0.60969 0.0
H95 H 0.55509 0.98272 0.63275 0.0
H96 H 0.42359 0.90326 0.57806 0.0
H97 H 0.38494 0.8961 0.50973 0.0
H98 H 0.40811 0.97582 0.38034 0.0
H99 H 0.46487 0.03239 0.35659 0.0
H100 H 0.59661 0.10998 0.4099 0.0
H101 H 0.63465 0.11808 0.47925 0.0
H102 H 0.53591 0.95995 0.36823 0.0
H103 H 0.51524 0.9011 0.47647 0.0
H104 H 0.50553 0.1134 0.51406 0.0
H105 H 0.48162 0.05152 0.6199 0.0
C106 C 0.56867 0.5478 0.94944 0.0
C107 C 0.58169 0.5681 0.91588 0.0
C108 C 0.55452 0.56969 0.89768 0.0
C109 C 0.52664 0.55033 0.92112 0.0
N110 N 0.53469 0.53735 0.95391 0.0
Co111 Co 0.50159 0.50505 0.99373 0.0
N112 N 0.46042 0.50395 0.9645 0.0
C113 C 0.46075 0.52074 0.93058 0.0
C114 C 0.42925 0.51787 0.92039 0.0
C115 C 0.40789 0.49905 0.95037 0.0
C116 C 0.42768 0.49139 0.97701 0.0
N117 N 0.46832 0.4719 0.03274 0.0
C118 C 0.43437 0.46137 0.03732 0.0
C119 C 0.42073 0.43927 0.0692 0.0
C120 C 0.44756 0.43661 0.08629 0.0
C121 C 0.47584 0.4571 0.0638 0.0
N122 N 0.54289 0.50701 0.02389 0.0
C123 C 0.54278 0.49157 0.05903 0.0
C124 C 0.57496 0.4965 0.07121 0.0
C125 C 0.59665 0.51554 0.04159 0.0
C126 C 0.57634 0.52115 0.01299 0.0
N127 N 0.51058 0.54443 0.03014 0.0
C128 C 0.51806 0.59813 0.08183 0.0
C129 C 0.51473 0.56882 0.09831 0.0
C130 C 0.5115 0.54285 0.07231 0.0
C131 C 0.51817 0.6001 0.0388 0.0
C132 C 0.51422 0.57322 0.01384 0.0
N133 N 0.49266 0.46567 0.95725 0.0
C134 C 0.49395 0.41454 0.94719 0.0
C135 C 0.48607 0.41301 0.90448 0.0
C136 C 0.48072 0.43797 0.88892 0.0
C137 C 0.48399 0.4637 0.91554 0.0
C138 C 0.497 0.4407 0.97269 0.0
H139 H 0.47982 0.48197 0.90154 0.0
H140 H 0.50355 0.4405 0.00476 0.0
H141 H 0.50916 0.52141 0.0871 0.0
H142 H 0.51387 0.57623 0.98137 0.0
C143 C 0.49205 0.5419 0.91168 0.0
C144 C 0.58836 0.53641 0.97367 0.0
C145 C 0.41589 0.47525 0.01595 0.0
C146 C 0.51093 0.46795 0.07562 0.0
H147 H 0.6077 0.57932 0.90484 0.0
H148 H 0.55462 0.58219 0.86968 0.0
H149 H 0.4232 0.5297 0.89551 0.0
H150 H 0.38139 0.49299 0.95328 0.0
H151 H 0.39479 0.42802 0.08042 0.0
H152 H 0.44726 0.42343 0.11373 0.0
H153 H 0.58126 0.48557 0.09697 0.0
H154 H 0.62375 0.52288 0.04015 0.0
H155 H 0.51384 0.5653 0.13121 0.0
H156 H 0.52144 0.62235 0.0241 0.0
H157 H 0.4987 0.39615 0.96101 0.0
H158 H 0.47389 0.43771 0.85624 0.0
C159 C 0.93873 0.42885 0.51282 0.0
C160 C 0.90638 0.40511 0.49135 0.0
C161 C 0.90531 0.41887 0.45478 0.0
C162 C 0.93685 0.45018 0.45592 0.0
N163 N 0.95842 0.45703 0.49068 0.0
Co164 Co 0.0054 0.50115 0.50632 0.0
N165 N 1.0016 0.52324 0.45504 0.0
C166 C 0.97423 0.50901 0.42534 0.0
C167 C 0.97946 0.52965 0.39308 0.0
C168 C 0.01245 0.55857 0.40224 0.0
C169 C 0.02563 0.55381 0.4396 0.0
N170 N 0.05239 0.54527 0.52199 0.0
C171 C 0.07184 0.57371 0.50015 0.0
C172 C 0.10433 0.59729 0.52148 0.0
C173 C 0.10565 0.58324 0.55772 0.0
C174 C 0.07414 0.55191 0.55652 0.0
N175 N 0.0091 0.47905 0.55768 0.0
C176 C 0.0365 0.49317 0.58734 0.0
C177 C 0.03084 0.47282 0.62004 0.0
C178 C 0.99751 0.44426 0.61126 0.0
C179 C 0.98462 0.44891 0.57363 0.0
N180 N 0.03029 0.48436 0.47595 0.0
C181 C 0.07381 0.47513 0.42691 0.0
C182 C 0.08352 0.48497 0.46891 0.0
C183 C 0.06137 0.48906 0.49276 0.0
C184 C 0.04047 0.46696 0.41082 0.0
C185 C 0.01915 0.47141 0.43584 0.0
N186 N 0.9806 0.518 0.53665 0.0
C187 C 0.97103 0.53582 0.60179 0.0
C188 C 0.93787 0.52805 0.58581 0.0
C189 C 0.9278 0.51815 0.5439 0.0
C190 C 0.94953 0.51342 0.51997 0.0
C191 C 0.99206 0.53114 0.57665 0.0
H192 H 0.93993 0.50472 0.48858 0.0
H193 H 0.01684 0.53706 0.59074 0.0
H194 H 0.07061 0.49722 0.52431 0.0
H195 H 0.99444 0.46554 0.42155 0.0
C196 C 0.94527 0.47515 0.42708 0.0
C197 C 0.94845 0.42459 0.55526 0.0
C198 C 0.06168 0.57848 0.45815 0.0
C199 C 0.06565 0.52693 0.58541 0.0
H200 H 0.88511 0.38093 0.50164 0.0
H201 H 0.88339 0.40807 0.43109 0.0
H202 H 0.96188 0.52387 0.3655 0.0
H203 H 0.02571 0.58034 0.38305 0.0
H204 H 0.12551 0.62161 0.51139 0.0
H205 H 0.12764 0.59395 0.5813 0.0
H206 H 0.04829 0.47867 0.64777 0.0
H207 H 0.9838 0.42286 0.63088 0.0
H208 H 0.10853 0.49031 0.48316 0.0
H209 H 0.03149 0.45878 0.37855 0.0
H210 H 0.98032 0.54463 0.63388 0.0
H211 H 0.90247 0.51231 0.53011 0.0
C212 C 0.46527 0.98771 0.08899 0.0
C213 C 0.47064 1.0008 0.1294 0.0
C214 C 0.50229 0.03178 0.1327 0.0
C215 C 0.51476 0.03586 0.09449 0.0
N216 N 0.49269 0.00961 0.06657 0.0
Co217 Co 0.50307 0.00358 0.00885 0.0
N218 N 0.5518 0.04697 0.01568 0.0
C219 C 0.56703 0.06834 0.04999 0.0
C220 C 0.60003 0.09681 0.04529 0.0
C221 C 0.60601 0.09391 0.00528 0.0
C222 C 0.57609 0.06382 0.98767 0.0
N223 N 0.51349 0.99739 0.95123 0.0
C224 C 0.54129 0.01889 0.9291 0.0
C225 C 0.53636 0.00544 0.88899 0.0
C226 C 0.50447 0.97466 0.88553 0.0
C227 C 0.49154 0.97104 0.9234 0.0
N228 N 0.45429 0.96026 1.00197 0.0
C229 C 0.43883 0.93923 0.96741 0.0
C230 C 0.40566 0.91097 0.97194 0.0
C231 C 0.3998 0.91364 0.01207 0.0
C232 C 0.43001 0.94334 0.02998 0.0
N233 N 0.48436 0.03087 0.987 0.0
C234 C 0.4726 0.07728 0.94605 0.0
C235 C 0.45872 0.04423 0.92867 0.0
C236 C 0.46438 0.02144 0.94983 0.0
C237 C 0.48927 0.0853 0.98615 0.0
C238 C 0.49466 0.0618 0.00599 0.0
N239 N 0.52182 0.97636 0.03069 0.0
C240 C 0.5163 0.92168 0.03274 0.0
C241 C 0.53357 0.93058 0.07241 0.0
C242 C 0.54808 0.96382 0.08908 0.0
C243 C 0.54258 0.98644 0.06737 0.0
C244 C 0.51081 0.94495 0.01243 0.0
H245 H 0.55394 0.01133 0.0818 0.0
H246 H 0.49612 0.93632 0.98296 0.0
H247 H 0.45374 0.99696 0.93458 0.0
H248 H 0.50846 0.06983 0.03596 0.0
C249 C 0.54868 0.06211 0.08523 0.0
C250 C 0.43483 0.95351 0.07409 0.0
C251 C 0.5716 0.05314 0.94384 0.0
C252 C 0.45736 0.94517 0.93237 0.0
H253 H 0.45422 0.98878 0.15456 0.0
H254 H 0.5155 0.04852 0.1603 0.0
H255 H 0.61723 0.11773 0.06788 0.0
H256 H 0.62943 0.11231 0.99045 0.0
H257 H 0.55329 0.01712 0.86415 0.0
H258 H 0.49147 0.95774 0.85803 0.0
H259 H 0.3883 0.89025 0.94919 0.0
H260 H 0.37629 0.89526 0.02677 0.0
H261 H 0.44518 0.0364 0.8979 0.0
H262 H 0.49918 0.11001 1.00175 0.0
H263 H 0.50517 0.8962 0.01857 0.0
H264 H 0.56253 0.9719 0.1194 0.0
C265 C 0.52176 0.57699 0.52136 0.0
C266 C 0.5146 0.59609 0.547 0.0
C267 C 0.49345 0.57433 0.57538 0.0
C268 C 0.48891 0.54334 0.56532 0.0
N269 N 0.50668 0.54426 0.53292 0.0
Co270 Co 0.50525 0.5047 0.50522 0.0
N271 N 0.46995 0.47157 0.54256 0.0
C272 C 0.45466 0.4784 0.57224 0.0
C273 C 0.43334 0.45055 0.59461 0.0
C274 C 0.43603 0.42471 0.57906 0.0
C275 C 0.45894 0.43846 0.54809 0.0
N276 N 0.50383 0.46512 0.47757 0.0
C277 C 0.48948 0.43264 0.48977 0.0
C278 C 0.49664 0.41357 0.46402 0.0
C279 C 0.51703 0.4351 0.43502 0.0
C280 C 0.52121 0.46596 0.44479 0.0
N281 N 0.54066 0.53784 0.46798 0.0
C282 C 0.55566 0.53092 0.43802 0.0
C283 C 0.57758 0.55894 0.41622 0.0
C284 C 0.5757 0.58505 0.43255 0.0
C285 C 0.55268 0.57131 0.46342 0.0
N286 N 0.54442 0.51168 0.54546 0.0
C287 C 0.59737 0.51644 0.60296 0.0
C288 C 0.59789 0.51189 0.56038 0.0
C289 C 0.57164 0.50982 0.53254 0.0
C290 C 0.57 0.51915 0.616 0.0
C291 C 0.54408 0.51667 0.58709 0.0
N292 N 0.46602 0.49766 0.46487 0.0
C293 C 0.44052 0.48984 0.39418 0.0
C294 C 0.41283 0.49213 0.40691 0.0
C295 C 0.41209 0.49667 0.44946 0.0
C296 C 0.43852 0.49918 0.47754 0.0
C297 C 0.4665 0.4927 0.42326 0.0
H298 H 0.43638 0.50289 0.50935 0.0
H299 H 0.48694 0.49117 0.41118 0.0
H300 H 0.57364 0.50613 0.50069 0.0
H301 H 0.52379 0.5185 0.59922 0.0
C302 C 0.46475 0.51213 0.58207 0.0
C303 C 0.5395 0.58964 0.48379 0.0
C304 C 0.47269 0.42049 0.5281 0.0
C305 C 0.54534 0.49715 0.42797 0.0
H306 H 0.5225 0.62251 0.5442 0.0
H307 H 0.48116 0.57991 0.59894 0.0
H308 H 0.41934 0.44973 0.62082 0.0
H309 H 0.42412 0.39922 0.59057 0.0
H310 H 0.48947 0.38741 0.46708 0.0
H311 H 0.5293 0.42955 0.41139 0.0
H312 H 0.5916 0.55979 0.39003 0.0
H313 H 0.58827 0.61079 0.42166 0.0
H314 H 0.61804 0.50915 0.54831 0.0
H315 H 0.5685 0.52333 0.64845 0.0
H316 H 0.44222 0.48568 0.36179 0.0
H317 H 0.39163 0.49904 0.46128 0.0
C318 C 0.21333 0.51569 0.15606 0.0
C319 C 0.22135 0.54717 0.14219 0.0
C320 C 0.25275 0.57179 0.16292 0.0
C321 C 0.26242 0.55408 0.18773 0.0
N322 N 0.23932 0.51956 0.18384 0.0
Co323 Co 0.24465 0.48439 0.21266 0.0
N324 N 0.28885 0.52087 0.24655 0.0
C325 C 0.30387 0.55524 0.24615 0.0
C326 C 0.33316 0.57402 0.27367 0.0
C327 C 0.33717 0.55027 0.29294 0.0
C328 C 0.31022 0.51819 0.27563 0.0
N329 N 0.25077 0.44925 0.24045 0.0
C330 C 0.27656 0.45323 0.26873 0.0
C331 C 0.27163 0.42179 0.2776 0.0
C332 C 0.24164 0.39714 0.25455 0.0
C333 C 0.23011 0.41478 0.23265 0.0
N334 N 0.19954 0.44796 0.18002 0.0
C335 C 0.18343 0.41353 0.18214 0.0
C336 C 0.15114 0.39475 0.15975 0.0
C337 C 0.14597 0.41851 0.1426 0.0
C338 C 0.17581 0.45069 0.15503 0.0
N339 N 0.27347 0.48525 0.16839 0.0
C340 C 0.31811 0.48505 0.11175 0.0
C341 C 0.28642 0.45476 0.11948 0.0
C342 C 0.26464 0.45547 0.14743 0.0
C343 C 0.32624 0.51571 0.13147 0.0
C344 C 0.3037 0.51525 0.15931 0.0
N345 N 0.21588 0.48329 0.25678 0.0
C346 C 0.16966 0.45086 0.30229 0.0
C347 C 0.17136 0.48043 0.31551 0.0
C348 C 0.19648 0.5117 0.29969 0.0
C349 C 0.21838 0.51256 0.27063 0.0
C350 C 0.19199 0.45286 0.27327 0.0
H351 H 0.23678 0.53706 0.25934 0.0
H352 H 0.18915 0.42933 0.26438 0.0
H353 H 0.24119 0.4314 0.15212 0.0
H354 H 0.31168 0.53943 0.17355 0.0
C355 C 0.29115 0.56918 0.21773 0.0
C356 C 0.18005 0.48308 0.14312 0.0
C357 C 0.30643 0.4861 0.28755 0.0
C358 C 0.19905 0.39966 0.20616 0.0
H359 H 0.20579 0.55199 0.11999 0.0
H360 H 0.26639 0.59938 0.161 0.0
H361 H 0.34989 0.60172 0.27873 0.0
H362 H 0.35783 0.55601 0.31683 0.0
H363 H 0.28805 0.41707 0.29848 0.0
H364 H 0.22957 0.3696 0.25396 0.0
H365 H 0.13311 0.36705 0.15698 0.0
H366 H 0.12247 0.41258 0.12373 0.0
H367 H 0.27889 0.43026 0.1052 0.0
H368 H 0.35008 0.54003 0.1258 0.0
H369 H 0.15116 0.42616 0.3143 0.0
H370 H 0.1987 0.53533 0.30886 0.0
C371 C 0.69764 0.20451 0.66594 0.0
C372 C 0.67411 0.21177 0.64695 0.0
C373 C 0.67685 0.23774 0.67045 0.0
C374 C 0.70218 0.24523 0.70193 0.0
N375 N 0.71592 0.22571 0.69991 0.0
Co376 Co 0.75542 0.2301 0.73753 0.0
N377 N 0.75897 0.26789 0.77221 0.0
C378 C 0.73717 0.27938 0.76899 0.0
C379 C 0.74614 0.30542 0.79753 0.0
C380 C 0.77563 0.3111 0.82011 0.0
C381 C 0.78304 0.28822 0.80373 0.0
N382 N 0.79617 0.23568 0.77386 0.0
C383 C 0.81763 0.26005 0.80401 0.0
C384 C 0.84482 0.25637 0.81925 0.0
C385 C 0.84041 0.22873 0.79789 0.0
C386 C 0.81118 0.21741 0.77075 0.0
N387 N 0.75086 0.19127 0.70385 0.0
C388 C 0.76926 0.17639 0.71122 0.0
C389 C 0.75807 0.14802 0.68582 0.0
C390 C 0.73067 0.14429 0.66075 0.0
C391 C 0.72706 0.17115 0.67189 0.0
N392 N 0.79031 0.26459 0.7008 0.0
C393 C 0.84218 0.31602 0.65254 0.0
C394 C 0.84171 0.28627 0.66143 0.0
C395 C 0.81582 0.26115 0.68534 0.0
C396 C 0.81559 0.31894 0.66778 0.0
C397 C 0.79027 0.29329 0.69144 0.0
N398 N 0.72045 0.19574 0.77481 0.0
C399 C 0.70354 0.15116 0.82402 0.0
C400 C 0.67162 0.1485 0.8296 0.0
C401 C 0.66465 0.16984 0.80654 0.0
C402 C 0.68909 0.19301 0.77993 0.0
C403 C 0.72708 0.1744 0.79668 0.0
H404 H 0.68184 0.20844 0.76386 0.0
H405 H 0.75061 0.17467 0.79404 0.0
H406 H 0.81713 0.23926 0.69141 0.0
H407 H 0.77096 0.29739 0.70212 0.0
C408 C 0.71194 0.26874 0.73531 0.0
C409 C 0.70028 0.17609 0.65179 0.0
C410 C 0.81408 0.28782 0.81784 0.0
C411 C 0.79721 0.18982 0.7419 0.0
H412 H 0.65626 0.19914 0.6194 0.0
H413 H 0.66172 0.24934 0.6656 0.0
H414 H 0.73372 0.31966 0.80036 0.0
H415 H 0.79061 0.33052 0.84502 0.0
H416 H 0.86605 0.27232 0.84283 0.0
H417 H 0.85693 0.2185 0.80121 0.0
H418 H 0.76834 0.13172 0.68585 0.0
H419 H 0.71498 0.12365 0.63742 0.0
H420 H 0.86167 0.28259 0.65077 0.0
H421 H 0.814 0.34089 0.66127 0.0
H422 H 0.71089 0.1358 0.84115 0.0
H423 H 0.64018 0.16863 0.80851 0.0
C424 C 0.4946 0.69635 0.20767 0.0
C425 C 0.46157 0.66675 0.19603 0.0
C426 C 0.4387 0.66496 0.22305 0.0
C427 C 0.45881 0.69337 0.24969 0.0
N428 N 0.49287 0.71331 0.24083 0.0
Co429 Co 0.53085 0.7552 0.27415 0.0
N430 N 0.49577 0.75935 0.3029 0.0
C431 C 0.46163 0.73411 0.30564 0.0
C432 C 0.44377 0.7445 0.32756 0.0
C433 C 0.46826 0.7784 0.33937 0.0
C434 C 0.49977 0.78684 0.32379 0.0
N435 N 0.56846 0.79712 0.30759 0.0
C436 C 0.56647 0.82168 0.3278 0.0
C437 C 0.59961 0.84762 0.34555 0.0
C438 C 0.62287 0.83862 0.33664 0.0
C439 C 0.60284 0.80795 0.31372 0.0
N440 N 0.56618 0.75108 0.24576 0.0
C441 C 0.60099 0.76744 0.25814 0.0
C442 C 0.61924 0.76026 0.23234 0.0
C443 C 0.5943 0.73747 0.20226 0.0
C444 C 0.56194 0.73159 0.21167 0.0
N445 N 0.53044 0.78405 0.2313 0.0
C446 C 0.53041 0.8285 0.17432 0.0
C447 C 0.56215 0.83213 0.18883 0.0
C448 C 0.56162 0.80982 0.2176 0.0
C449 C 0.49856 0.80163 0.18782 0.0
C450 C 0.49912 0.7794 0.21595 0.0
N451 N 0.53132 0.72618 0.31707 0.0
C452 C 0.52938 0.6752 0.33516 0.0
C453 C 0.53071 0.68316 0.37713 0.0
C454 C 0.53292 0.71347 0.38866 0.0
C455 C 0.53297 0.73456 0.35807 0.0
C456 C 0.52985 0.69697 0.30583 0.0
H457 H 0.5342 0.75754 0.36753 0.0
H458 H 0.52899 0.68991 0.27398 0.0
H459 H 0.58657 0.81399 0.22944 0.0
H460 H 0.47427 0.75892 0.22597 0.0
C461 C 0.44607 0.70367 0.28096 0.0
C462 C 0.52757 0.70442 0.19054 0.0
C463 C 0.53344 0.82031 0.33186 0.0
C464 C 0.61626 0.79266 0.29064 0.0
H465 H 0.45485 0.64763 0.17161 0.0
H466 H 0.41073 0.64529 0.22319 0.0
H467 H 0.41591 0.7297 0.33277 0.0
H468 H 0.4635 0.79497 0.35743 0.0
H469 H 0.60651 0.87087 0.36264 0.0
H470 H 0.65131 0.85368 0.34398 0.0
H471 H 0.64743 0.77092 0.23455 0.0
H472 H 0.59929 0.72589 0.17683 0.0
H473 H 0.58729 0.85285 0.17925 0.0
H474 H 0.47349 0.79804 0.17698 0.0
H475 H 0.52841 0.65241 0.32494 0.0
H476 H 0.53404 0.72051 0.4209 0.0
C477 C 0.73479 0.55469 0.73765 0.0
C478 C 0.73989 0.58605 0.72788 0.0
C479 C 0.77048 0.61097 0.74973 0.0
C480 C 0.78214 0.59357 0.77189 0.0
N481 N 0.76106 0.55899 0.76534 0.0
Co482 Co 0.7669 0.52421 0.79459 0.0
N483 N 0.81242 0.56099 0.82619 0.0
C484 C 0.82886 0.59533 0.82273 0.0
C485 C 0.86162 0.6143 0.84405 0.0
C486 C 0.86678 0.59075 0.86183 0.0
C487 C 0.83644 0.5585 0.85091 0.0
N488 N 0.77194 0.48946 0.825 0.0
C489 C 0.79819 0.49367 0.85259 0.0
C490 C 0.78993 0.46248 0.86774 0.0
C491 C 0.75818 0.43764 0.84786 0.0
C492 C 0.74852 0.45497 0.82229 0.0
N493 N 0.72229 0.48733 0.76173 0.0
C494 C 0.70709 0.45298 0.76314 0.0
C495 C 0.67739 0.43387 0.73627 0.0
C496 C 0.67326 0.45737 0.71647 0.0
C497 C 0.70057 0.48965 0.73281 0.0
N498 N 0.79507 0.52372 0.75074 0.0
C499 C 0.83914 0.52433 0.69317 0.0
C500 C 0.81467 0.4939 0.71092 0.0
C501 C 0.7928 0.4941 0.73914 0.0
C502 C 0.84037 0.55417 0.70357 0.0
C503 C 0.81835 0.55333 0.7323 0.0
N504 N 0.73856 0.52487 0.83838 0.0
C505 C 0.68501 0.49571 0.87386 0.0
C506 C 0.69225 0.52698 0.89049 0.0
C507 C 0.72435 0.55694 0.88292 0.0
C508 C 0.74707 0.55525 0.85733 0.0
C509 C 0.70834 0.49524 0.84823 0.0
H510 H 0.77085 0.57904 0.85243 0.0
H511 H 0.70082 0.47063 0.83595 0.0
H512 H 0.77461 0.47009 0.7516 0.0
H513 H 0.82115 0.57712 0.73962 0.0
C514 C 0.81341 0.60892 0.79796 0.0
C515 C 0.70428 0.52159 0.72033 0.0
C516 C 0.83206 0.52624 0.86379 0.0
C517 C 0.71972 0.43944 0.79233 0.0
H518 H 0.72315 0.59057 0.70731 0.0
H519 H 0.78273 0.63852 0.74955 0.0
H520 H 0.88004 0.64194 0.84547 0.0
H521 H 0.89068 0.59689 0.87991 0.0
H522 H 0.80565 0.45795 0.89007 0.0
H523 H 0.74437 0.41013 0.8507 0.0
H524 H 0.66035 0.40613 0.73216 0.0
H525 H 0.65221 0.45134 0.69299 0.0
H526 H 0.81246 0.47003 0.70314 0.0
H527 H 0.85906 0.57836 0.69061 0.0
H528 H 0.66107 0.47161 0.87993 0.0
H529 H 0.73141 0.58186 0.89521 0.0
C530 C 0.27579 0.83751 0.33417 0.0
C531 C 0.2684 0.86127 0.3476 0.0
C532 C 0.23561 0.85088 0.32947 0.0
C533 C 0.22507 0.82189 0.30544 0.0
N534 N 0.24923 0.81339 0.3072 0.0
Co535 Co 0.24649 0.77561 0.27419 0.0
N536 N 0.20819 0.77094 0.235 0.0
C537 C 0.18896 0.78466 0.2406 0.0
C538 C 0.16575 0.77877 0.20719 0.0
C539 C 0.1701 0.75959 0.17905 0.0
C540 C 0.19547 0.75441 0.19722 0.0
N541 N 0.24394 0.73785 0.24132 0.0
C542 C 0.22675 0.72267 0.20384 0.0
C543 C 0.23077 0.69594 0.19345 0.0
C544 C 0.25055 0.69402 0.22574 0.0
C545 C 0.25753 0.7195 0.25402 0.0
N546 N 0.28452 0.78026 0.31367 0.0
C547 C 0.29262 0.75661 0.31945 0.0
C548 C 0.31949 0.76662 0.34994 0.0
C549 C 0.32884 0.79859 0.3643 0.0
C550 C 0.30717 0.80631 0.34142 0.0
N551 N 0.21053 0.74129 0.30905 0.0
C552 C 0.16177 0.68954 0.35874 0.0
C553 C 0.19083 0.72096 0.37648 0.0
C554 C 0.21479 0.74634 0.35124 0.0
C555 C 0.15729 0.68525 0.31544 0.0
C556 C 0.18165 0.71127 0.29138 0.0
N557 N 0.28249 0.80969 0.23922 0.0
C558 C 0.33658 0.83196 0.20553 0.0
C559 C 0.33288 0.85713 0.18665 0.0
C560 C 0.30321 0.85788 0.19551 0.0
C561 C 0.27885 0.83447 0.222 0.0
C562 C 0.31116 0.80851 0.23112 0.0
H563 H 0.2568 0.83632 0.22811 0.0
H564 H 0.31476 0.78932 0.24432 0.0
H565 H 0.23716 0.76983 0.366 0.0
H566 H 0.17721 0.7067 0.25836 0.0
C567 C 0.19711 0.80708 0.27458 0.0
C568 C 0.30738 0.83759 0.34844 0.0
C569 C 0.20184 0.72893 0.18072 0.0
C570 C 0.2788 0.72849 0.29122 0.0
H571 H 0.28499 0.88418 0.36759 0.0
H572 H 0.22219 0.86424 0.33141 0.0
H573 H 0.14835 0.78798 0.20335 0.0
H574 H 0.15526 0.74936 0.14917 0.0
H575 H 0.21949 0.67863 0.16618 0.0
H576 H 0.25876 0.67611 0.2283 0.0
H577 H 0.33176 0.75296 0.35951 0.0
H578 H 0.34919 0.81433 0.38885 0.0
H579 H 0.19565 0.72564 0.40973 0.0
H580 H 0.13497 0.66189 0.30001 0.0
H581 H 0.3591 0.83028 0.201 0.0
H582 H 0.29815 0.87602 0.18165 0.0
C583 C 0.4485 0.27949 0.77823 0.0
C584 C 0.41566 0.27398 0.78417 0.0
C585 C 0.39089 0.24453 0.76156 0.0
C586 C 0.40987 0.23388 0.74286 0.0
N587 N 0.44531 0.25454 0.75241 0.0
Co588 Co 0.48259 0.24957 0.72926 0.0
N589 N 0.44606 0.20587 0.69642 0.0
C590 C 0.41045 0.18952 0.69626 0.0
C591 C 0.39195 0.15885 0.67338 0.0
C592 C 0.4172 0.15506 0.65839 0.0
C593 C 0.44986 0.18392 0.67275 0.0
N594 N 0.51992 0.24543 0.70483 0.0
C595 C 0.51689 0.22064 0.67891 0.0
C596 C 0.54984 0.22855 0.66881 0.0
C597 C 0.57455 0.2589 0.68978 0.0
C598 C 0.55543 0.268 0.71109 0.0
N599 N 0.51915 0.29239 0.76339 0.0
C600 C 0.55467 0.30729 0.76594 0.0
C601 C 0.57317 0.33589 0.79252 0.0
C602 C 0.548 0.33957 0.80792 0.0
C603 C 0.51544 0.31308 0.78945 0.0
N604 N 0.48108 0.22148 0.77566 0.0
C605 C 0.47751 0.17777 0.83752 0.0
C606 C 0.50973 0.20159 0.82176 0.0
C607 C 0.51096 0.22324 0.7914 0.0
C608 C 0.44743 0.17719 0.82274 0.0
C609 C 0.44974 0.19889 0.792 0.0
N610 N 0.48381 0.27769 0.68294 0.0
C611 C 0.51505 0.33008 0.6465 0.0
C612 C 0.48339 0.32247 0.6253 0.0
C613 C 0.45235 0.29106 0.63167 0.0
C614 C 0.45321 0.26916 0.66008 0.0
C615 C 0.51469 0.30745 0.67482 0.0
H616 H 0.42853 0.24594 0.66378 0.0
H617 H 0.53958 0.31497 0.69041 0.0
H618 H 0.53629 0.24077 0.78065 0.0
H619 H 0.42563 0.19652 0.78167 0.0
C620 C 0.3952 0.20386 0.71758 0.0
C621 C 0.4819 0.30911 0.79724 0.0
C622 C 0.48367 0.18877 0.66404 0.0
C623 C 0.56999 0.29549 0.74045 0.0
H624 H 0.41013 0.28969 0.80276 0.0
H625 H 0.36242 0.23232 0.75908 0.0
H626 H 0.36347 0.14115 0.66855 0.0
H627 H 0.41207 0.13325 0.63949 0.0
H628 H 0.5555 0.21359 0.64897 0.0
H629 H 0.6031 0.2722 0.69043 0.0
H630 H 0.60163 0.35251 0.79922 0.0
H631 H 0.55312 0.35977 0.8299 0.0
H632 H 0.53385 0.203 0.83184 0.0
H633 H 0.42197 0.1599 0.83459 0.0
H634 H 0.54001 0.35365 0.64178 0.0
H635 H 0.42707 0.28385 0.6161 0.0
C636 C 0.11061 0.46751 0.05605 0.0
C637 C 0.09703 0.48601 0.07157 0.0
H638 H 0.14834 0.45315 0.06566 0.0
C639 C 0.11039 0.50285 0.11103 0.0
H640 H 0.10044 0.4538 0.02606 0.0
C641 C 0.1366 0.50117 0.13442 0.0
C642 C 0.15075 0.4833 0.11857 0.0
H643 H 0.10039 0.51723 0.12386 0.0
H644 H 0.14615 0.51418 0.16485 0.0
C645 C 0.13766 0.46675 0.07892 0.0
C646 C 0.61199 0.10492 0.59949 0.0
C647 C 0.62233 0.0964 0.56393 0.0
H648 H 0.62889 0.13627 0.65576 0.0
C649 C 0.65823 0.11533 0.55627 0.0
H650 H 0.58441 0.09053 0.60607 0.0
C651 C 0.68336 0.14259 0.58358 0.0
C652 C 0.67322 0.14997 0.62014 0.0
H653 H 0.66701 0.10852 0.52982 0.0
H654 H 0.71096 0.15695 0.57714 0.0
C655 C 0.63728 0.13112 0.62767 0.0
C656 C 0.5374 0.63317 0.14994 0.0
C657 C 0.52123 0.62614 0.10923 0.0
H658 H 0.55126 0.6626 0.20739 0.0
C659 C 0.50771 0.64584 0.09535 0.0
H660 H 0.54879 0.6193 0.16189 0.0
C661 C 0.51038 0.67167 0.12128 0.0
C662 C 0.52621 0.67819 0.16187 0.0
H663 H 0.49439 0.64097 0.06468 0.0
H664 H 0.49958 0.68621 0.10986 0.0
C665 C 0.53939 0.65846 0.17599 0.0
C666 C 0.89427 0.54317 0.60211 0.0
C667 C 0.91303 0.52792 0.61334 0.0
H668 H 0.85609 0.55406 0.61881 0.0
C669 C 0.90709 0.51129 0.65066 0.0
H670 H 0.89841 0.55613 0.57348 0.0
C671 C 0.88279 0.50983 0.67627 0.0
C672 C 0.86418 0.52525 0.66526 0.0
H673 H 0.92086 0.49891 0.65975 0.0
H674 H 0.87888 0.497 0.70498 0.0
C675 C 0.87023 0.54209 0.62804 0.0
C676 C 0.38872 0.93755 0.12523 0.0
C677 C 0.40896 0.92905 0.1033 0.0
H678 H 0.35075 0.92309 0.16958 0.0
C679 C 0.40397 0.89674 0.10867 0.0
H680 H 0.39161 0.96207 0.12143 0.0
C681 C 0.37942 0.87354 0.13524 0.0
C682 C 0.35937 0.88208 0.15796 0.0
H683 H 0.41897 0.88931 0.09197 0.0
H684 H 0.37593 0.84867 0.13729 0.0
C685 C 0.36475 0.91473 0.15252 0.0
C686 C 0.4562 0.3603 0.53893 0.0
C687 C 0.47656 0.39533 0.55137 0.0
H688 H 0.44315 0.30977 0.55183 0.0
C689 C 0.50005 0.40658 0.58713 0.0
H690 H 0.43776 0.3512 0.51152 0.0
C691 C 0.50289 0.38303 0.61054 0.0
C692 C 0.48226 0.34772 0.59856 0.0
H693 H 0.51586 0.4336 0.59723 0.0
H694 H 0.52048 0.39241 0.63868 0.0
C695 C 0.45915 0.33669 0.5622 0.0
C696 C 0.51729 0.89124 0.35364 0.0
C697 C 0.52978 0.90071 0.3957 0.0
H698 H 0.50879 0.85853 0.30067 0.0
C699 C 0.54459 0.8841 0.41595 0.0
H700 H 0.50516 0.90287 0.33705 0.0
C701 C 0.5462 0.85847 0.39517 0.0
C702 C 0.53372 0.84914 0.35332 0.0
H703 H 0.55496 0.8908 0.44806 0.0
H704 H 0.55686 0.8456 0.412 0.0
C705 C 0.51916 0.86571 0.33278 0.0
C706 C 0.65129 0.55468 0.96739 0.0
C707 C 0.61519 0.53333 0.95398 0.0
H708 H 0.70408 0.56886 0.95857 0.0
C709 C 0.60438 0.50946 0.92052 0.0
H710 H 0.66004 0.57343 0.99303 0.0
C711 C 0.62936 0.50707 0.90044 0.0
C712 C 0.66572 0.52849 0.91353 0.0
H713 H 0.57656 0.49291 0.90965 0.0
H714 H 0.6202 0.48902 0.87397 0.0
C715 C 0.67637 0.5522 0.94745 0.0
C716 C 0.09926 0.59997 0.39776 0.0
C717 C 0.08807 0.60726 0.43348 0.0
H718 H 0.13132 0.61986 0.34667 0.0
C719 C 0.10132 0.6418 0.44472 0.0
H720 H 0.08947 0.57359 0.38837 0.0
C721 C 0.12542 0.66847 0.42089 0.0
C722 C 0.13655 0.66125 0.38487 0.0
H723 H 0.09281 0.64812 0.47184 0.0
H724 H 0.13478 0.69473 0.43026 0.0
C725 C 0.12311 0.62655 0.37377 0.0
C726 C 0.44348 0.09477 0.89223 0.0
C727 C 0.4721 0.10381 0.9213 0.0
H728 H 0.42302 0.1105 0.84252 0.0
C729 C 0.50166 0.138 0.92427 0.0
H730 H 0.42007 0.06884 0.88942 0.0
C731 C 0.50299 0.16224 0.89802 0.0
C732 C 0.47498 0.15283 0.86779 0.0
H733 H 0.52444 0.14587 0.94589 0.0
H734 H 0.52624 0.18826 0.90111 0.0
C735 C 0.44499 0.11889 0.86564 0.0
C736 C 0.34981 0.47458 0.38544 0.0
C737 C 0.38531 0.49017 0.37612 0.0
H738 H 0.2973 0.46122 0.36494 0.0
C739 C 0.39433 0.5041 0.33707 0.0
H740 H 0.34154 0.4631 0.41478 0.0
C741 C 0.36873 0.50241 0.30835 0.0
C742 C 0.3335 0.48706 0.31796 0.0
H743 H 0.42136 0.51687 0.32879 0.0
H744 H 0.37652 0.5134 0.27865 0.0
C745 C 0.3243 0.47317 0.35678 0.0
C746 C 0.87687 0.33909 0.91128 0.0
C747 C 0.89872 0.37157 0.8953 0.0
H748 H 0.83245 0.28709 0.89904 0.0
C749 C 0.89236 0.37617 0.85362 0.0
H750 H 0.88127 0.33465 0.94313 0.0
C751 C 0.8647 0.34889 0.82853 0.0
C752 C 0.84301 0.31669 0.84473 0.0
H753 H 0.90827 0.40102 0.84061 0.0
H754 H 0.86015 0.35289 0.79651 0.0
C755 C 0.84909 0.31191 0.88621 0.0
C756 C 0.90105 0.50528 0.89475 0.0
C757 C 0.91659 0.52406 0.93287 0.0
H758 H 0.86325 0.49227 0.84259 0.0
C759 C 0.9046 0.54414 0.94782 0.0
H760 H 0.90979 0.48965 0.88234 0.0
C761 C 0.8769 0.54445 0.92595 0.0
C762 C 0.86175 0.52609 0.88752 0.0
H763 H 0.91649 0.55944 0.97666 0.0
H764 H 0.86742 0.55921 0.939 0.0
C765 C 0.87436 0.50668 0.8721 0.0
C766 C 0.35837 0.90352 0.43814 0.0
C767 C 0.39325 0.9198 0.42703 0.0
H768 H 0.30402 0.86298 0.42338 0.0
C769 C 0.3997 0.90899 0.39005 0.0
H770 H 0.35266 0.91193 0.46602 0.0
C771 C 0.37165 0.88269 0.36427 0.0
C772 C 0.3368 0.86629 0.37549 0.0
H773 H 0.42647 0.92125 0.3809 0.0
H774 H 0.37713 0.87503 0.33561 0.0
C775 C 0.33052 0.87618 0.41326 0.0
C776 C 0.49715 0.39394 0.83718 0.0
C777 C 0.48405 0.38602 0.87649 0.0
H778 H 0.50662 0.37584 0.7815 0.0
C779 C 0.46964 0.35222 0.88905 0.0
H780 H 0.50893 0.41971 0.82658 0.0
C781 C 0.46865 0.32726 0.86325 0.0
C782 C 0.48195 0.33542 0.82426 0.0
H783 H 0.45887 0.34493 0.91877 0.0
H784 H 0.45765 0.30157 0.87383 0.0
C785 C 0.49608 0.36894 0.81141 0.0
C786 C 0.08719 0.44963 0.36804 0.0
C787 C 0.09903 0.47536 0.39966 0.0
H788 H 0.10062 0.43125 0.31648 0.0
C789 C 0.13501 0.50243 0.40391 0.0
H790 H 0.05969 0.42835 0.3641 0.0
C791 C 0.15854 0.50397 0.37686 0.0
C792 C 0.14662 0.47845 0.34495 0.0
H793 H 0.14489 0.52294 0.42759 0.0
H794 H 0.18608 0.52514 0.38097 0.0
C795 C 0.11073 0.45115 0.34101 0.0
C796 C 0.60039 0.10868 0.90701 0.0
C797 C 0.59725 0.07743 0.91447 0.0
H798 H 0.6264 0.15568 0.87581 0.0
C799 C 0.61894 0.06978 0.89436 0.0
H800 H 0.58422 0.1154 0.92232 0.0
C801 C 0.64272 0.0925 0.86683 0.0
C802 C 0.64598 0.12393 0.85906 0.0
H803 H 0.61734 0.04602 0.89978 0.0
H804 H 0.65819 0.08507 0.85127 0.0
C805 C 0.62445 0.13163 0.8799 0.0
C806 C 0.50876 0.6014 0.42684 0.0
C807 C 0.53495 0.61411 0.45999 0.0
H808 H 0.48642 0.61351 0.3751 0.0
C809 C 0.55791 0.64971 0.46825 0.0
H810 H 0.49076 0.57392 0.42022 0.0
C811 C 0.55549 0.67247 0.44248 0.0
C812 C 0.53027 0.65974 0.40805 0.0
H813 H 0.57835 0.65982 0.49371 0.0
H814 H 0.57434 0.69988 0.44831 0.0
C815 C 0.50639 0.624 0.40112 0.0
C816 C 0.50135 0.1197 0.6372 0.0
C817 C 0.48953 0.11181 0.59484 0.0
H818 H 0.50853 0.14994 0.69205 0.0
C819 C 0.47494 0.12905 0.57579 0.0
H820 H 0.51327 0.10753 0.65295 0.0
C821 C 0.47262 0.15362 0.59826 0.0
C822 C 0.48461 0.16145 0.64038 0.0
H823 H 0.46508 0.12347 0.54348 0.0
H824 H 0.46168 0.16673 0.58265 0.0
C825 C 0.49888 0.14417 0.65964 0.0
C826 C 0.40344 0.5021 0.07326 0.0
C827 C 0.39077 0.47936 0.03825 0.0
H828 H 0.39047 0.52159 0.12406 0.0
C829 C 0.35433 0.45945 0.02627 0.0
H830 H 0.43153 0.51749 0.08307 0.0
C831 C 0.33073 0.46197 0.0494 0.0
C832 C 0.34322 0.48428 0.08508 0.0
H833 H 0.34412 0.44156 0.99948 0.0
H834 H 0.30268 0.44623 0.03952 0.0
C835 C 0.37993 0.50458 0.09645 0.0
C836 C 0.90887 0.40479 0.61387 0.0
C837 C 0.92148 0.39659 0.58027 0.0
H838 H 0.87471 0.38631 0.66314 0.0
C839 C 0.90855 0.36185 0.57098 0.0
H840 H 0.9186 0.43139 0.62192 0.0
C841 C 0.88313 0.33581 0.5944 0.0
C842 C 0.86999 0.34382 0.62785 0.0
H843 H 0.91801 0.35484 0.54539 0.0
H844 H 0.87334 0.30931 0.58576 0.0
C845 C 0.88349 0.37882 0.63729 0.0
C846 C 0.51712 0.8971 0.13535 0.0
C847 C 0.53324 0.90445 0.09803 0.0
H848 H 0.50319 0.86669 0.18842 0.0
C849 C 0.54793 0.88627 0.0853 0.0
H850 H 0.50532 0.91065 0.14544 0.0
C851 C 0.54713 0.86146 0.11014 0.0
C852 C 0.5308 0.85401 0.14736 0.0
H853 H 0.56034 0.89156 0.0565 0.0
H854 H 0.55897 0.84791 0.10021 0.0
C855 C 0.51564 0.87187 0.15965 0.0
C856 C 0.61622 0.5043 0.67249 0.0
C857 C 0.62491 0.51806 0.63331 0.0
H858 H 0.63446 0.4949 0.73056 0.0
C859 C 0.66015 0.53304 0.62328 0.0
H860 H 0.58938 0.49201 0.68129 0.0
C861 C 0.68571 0.534 0.65132 0.0
C862 C 0.6769 0.5204 0.69032 0.0
H863 H 0.66822 0.54442 0.59385 0.0
H864 H 0.71251 0.54554 0.64262 0.0
C865 C 0.64193 0.50562 0.70066 0.0
C866 C 0.1114 0.6534 0.14062 0.0
C867 C 0.11807 0.6441 0.10267 0.0
H868 H 0.13291 0.68659 0.19532 0.0
C869 C 0.15258 0.66416 0.0896 0.0
H870 H 0.08514 0.63937 0.1514 0.0
C871 C 0.17973 0.69241 0.11422 0.0
C872 C 0.17303 0.70056 0.15268 0.0
H873 H 0.159 0.65757 0.06094 0.0
H874 H 0.20613 0.70732 0.10381 0.0
C875 C 0.13868 0.68083 0.16563 0.0
loop_
_geom_bond_atom_site_label_1
_geom_bond_atom_site_label_2
_geom_bond_distance
_geom_bond_site_symmetry_2
_ccdc_geom_bond_type
C0 C1 1.443 . S
C0 N4 1.376 1_556 S
C0 C38 1.389 . S
C1 C0 1.443 . S
C1 C2 1.340 1_556 S
C1 H41 0.951 . S
C2 C1 1.340 1_554 S
C2 C3 1.439 . S
C2 H42 0.950 . S
C3 C2 1.439 . S
C3 N4 1.374 . S
C3 C37 1.395 . S
N4 C0 1.376 1_554 S
N4 C3 1.374 . S
N4 Co5 1.987 1_655 S
Co5 N4 1.987 1_455 S
Co5 N6 2.007 1_455 S
Co5 N11 2.030 1_554 S
Co5 N16 1.983 1_554 S
Co5 N21 2.290 . S
Co5 N27 2.276 1_454 S
N6 Co5 2.007 1_655 S
N6 C7 1.376 . S
N6 C10 1.383 1_655 S
C7 N6 1.376 . S
C7 C8 1.446 . S
C7 C37 1.391 . S
C8 C7 1.446 . S
C8 C9 1.339 1_655 S
C8 H43 0.949 . S
C9 C8 1.339 1_455 S
C9 C10 1.439 . S
C9 H44 0.950 . S
C10 N6 1.383 1_455 S
C10 C9 1.439 . S
C10 C39 1.392 . S
N11 Co5 2.030 1_556 S
N11 C12 1.376 1_556 S
N11 C15 1.374 . S
C12 N11 1.376 1_554 S
C12 C13 1.443 . S
C12 C39 1.389 . S
C13 C12 1.443 . S
C13 C14 1.340 1_554 S
C13 H45 0.951 . S
C14 C13 1.340 1_556 S
C14 C15 1.439 . S
C14 H46 0.950 . S
C15 N11 1.374 . S
C15 C14 1.439 . S
C15 C40 1.395 . S
N16 Co5 1.983 1_556 S
N16 C17 1.376 . S
N16 C20 1.383 1_455 S
C17 N16 1.376 . S
C17 C18 1.446 . S
C17 C40 1.391 . S
C18 C17 1.446 . S
C18 C19 1.339 1_455 S
C18 H47 0.949 . S
C19 C18 1.339 1_655 S
C19 C20 1.439 . S
C19 H48 0.950 . S
C20 N16 1.383 1_655 S
C20 C19 1.439 . S
C20 C38 1.392 . S
N21 Co5 2.290 . S
N21 C24 1.332 . S
N21 C26 1.332 . S
C22 C23 1.386 . S
C22 C25 1.388 . S
C23 C22 1.386 . S
C23 C24 1.382 . S
C23 H49 0.950 . S
C24 N21 1.332 . S
C24 C23 1.382 . S
C24 H35 0.952 . S
C25 C22 1.388 . S
C25 C26 1.382 . S
C25 H50 0.950 . S
C26 N21 1.332 . S
C26 C25 1.382 . S
C26 H36 0.948 . S
N27 Co5 2.276 1_656 S
N27 C31 1.332 . S
N27 C32 1.332 . S
C28 C29 1.388 . S
C28 C32 1.382 . S
C28 H51 0.950 . S
C29 C28 1.388 . S
C29 C30 1.386 . S
C30 C29 1.386 . S
C30 C31 1.382 . S
C30 H52 0.950 . S
C31 N27 1.332 . S
C31 C30 1.382 . S
C31 H33 0.959 . S
C32 N27 1.332 . S
C32 C28 1.382 . S
C32 H34 0.948 . S
H33 C31 0.959 . S
H34 C32 0.948 . S
H35 C24 0.952 . S
H36 C26 0.948 . S
C37 C3 1.395 . S
C37 C7 1.391 . S
C38 C0 1.389 . S
C38 C20 1.392 . S
C39 C10 1.392 . S
C39 C12 1.389 . S
C40 C15 1.395 . S
C40 C17 1.391 . S
H41 C1 0.951 . S
H42 C2 0.950 . S
H43 C8 0.949 . S
H44 C9 0.950 . S
H45 C13 0.951 . S
H46 C14 0.950 . S
H47 C18 0.949 . S
H48 C19 0.950 . S
H49 C23 0.950 . S
H50 C25 0.950 . S
H51 C28 0.950 . S
H52 C30 0.950 . S
C53 C54 1.443 . S
C53 N57 1.379 . S
C53 C91 1.389 . S
C54 C53 1.443 . S
C54 C55 1.340 1_545 S
C54 H94 0.951 . S
C55 C54 1.340 1_565 S
C55 C56 1.439 . S
C55 H95 0.950 . S
C56 C55 1.439 . S
C56 N57 1.369 1_565 S
C56 C90 1.395 . S
N57 C53 1.379 . S
N57 C56 1.369 1_545 S
N57 Co58 2.010 . S
Co58 N57 2.010 . S
Co58 N59 1.995 1_545 S
Co58 N64 2.008 . S
Co58 N69 1.995 . S
Co58 N74 2.282 1_545 S
Co58 N80 2.282 . S
N59 Co58 1.995 1_565 S
N59 C60 1.376 . S
N59 C63 1.383 . S
C60 N59 1.376 . S
C60 C61 1.446 . S
C60 C90 1.391 . S
C61 C60 1.446 . S
C61 C62 1.339 . S
C61 H96 0.949 . S
C62 C61 1.339 . S
C62 C63 1.439 . S
C62 H97 0.950 . S
C63 N59 1.383 . S
C63 C62 1.439 . S
C63 C92 1.392 . S
N64 Co58 2.008 . S
N64 C65 1.376 1_545 S
N64 C68 1.374 . S
C65 N64 1.376 1_565 S
C65 C66 1.443 . S
C65 C92 1.389 . S
C66 C65 1.443 . S
C66 C67 1.340 1_565 S
C66 H98 0.951 . S
C67 C66 1.340 1_545 S
C67 C68 1.439 . S
C67 H99 0.950 . S
C68 N64 1.374 . S
C68 C67 1.439 . S
C68 C93 1.395 . S
N69 Co58 1.995 . S
N69 C70 1.376 . S
N69 C73 1.383 . S
C70 N69 1.376 . S
C70 C71 1.446 . S
C70 C93 1.391 . S
C71 C70 1.446 . S
C71 C72 1.339 . S
C71 H100 0.949 . S
C72 C71 1.339 . S
C72 C73 1.439 . S
C72 H101 0.950 . S
C73 N69 1.383 . S
C73 C72 1.439 . S
C73 C91 1.392 . S
N74 Co58 2.282 1_565 S
N74 C77 1.332 . S
N74 C79 1.332 . S
C75 C76 1.386 . S
C75 C78 1.388 . S
C76 C75 1.386 . S
C76 C77 1.382 . S
C76 H102 0.950 . S
C77 N74 1.332 . S
C77 C76 1.382 . S
C77 H88 0.952 1_565 S
C78 C75 1.388 . S
C78 C79 1.382 . S
C78 H103 0.950 . S
C79 N74 1.332 . S
C79 C78 1.382 . S
C79 H89 0.948 . S
N80 Co58 2.282 . S
N80 C84 1.332 . S
N80 C85 1.332 . S
C81 C82 1.388 . S
C81 C85 1.382 . S
C81 H104 0.950 . S
C82 C81 1.388 . S
C82 C83 1.386 . S
C83 C82 1.386 . S
C83 C84 1.382 . S
C83 H105 0.950 . S
C84 N80 1.332 . S
C84 C83 1.382 . S
C84 H86 0.952 1_545 S
C85 N80 1.332 . S
C85 C81 1.382 . S
C85 H87 0.948 . S
H86 C84 0.952 1_565 S
H87 C85 0.948 . S
H88 C77 0.952 1_545 S
H89 C79 0.948 . S
C90 C56 1.395 . S
C90 C60 1.391 . S
C91 C53 1.389 . S
C91 C73 1.392 . S
C92 C63 1.392 . S
C92 C65 1.389 . S
C93 C68 1.395 . S
C93 C70 1.391 . S
H94 C54 0.951 . S
H95 C55 0.950 . S
H96 C61 0.949 . S
H97 C62 0.950 . S
H98 C66 0.951 . S
H99 C67 0.950 . S
H100 C71 0.949 . S
H101 C72 0.950 . S
H102 C76 0.950 . S
H103 C78 0.950 . S
H104 C81 0.950 . S
H105 C83 0.950 . S
C106 C107 1.443 . S
C106 N110 1.376 . S
C106 C144 1.389 . S
C107 C106 1.443 . S
C107 C108 1.340 . S
C107 H147 0.951 . S
C108 C107 1.340 . S
C108 C109 1.439 . S
C108 H148 0.950 . S
C109 C108 1.439 . S
C109 N110 1.374 . S
C109 C143 1.395 . S
N110 C106 1.376 . S
N110 C109 1.374 . S
N110 Co111 1.999 1_556 S
Co111 N110 1.999 1_554 S
Co111 N112 1.993 1_554 S
Co111 N117 2.017 . S
Co111 N122 1.996 . S
Co111 N127 2.287 . S
Co111 N133 2.278 1_554 S
N112 Co111 1.993 1_556 S
N112 C113 1.376 . S
N112 C116 1.383 1_556 S
C113 N112 1.376 . S
C113 C114 1.446 . S
C113 C143 1.391 . S
C114 C113 1.446 . S
C114 C115 1.339 . S
C114 H149 0.949 . S
C115 C114 1.339 . S
C115 C116 1.439 1_556 S
C115 H150 0.950 1_556 S
C116 N112 1.383 1_554 S
C116 C115 1.439 1_554 S
C116 C145 1.392 . S
N117 Co111 2.017 . S
N117 C118 1.376 . S
N117 C121 1.374 . S
C118 N117 1.376 . S
C118 C119 1.443 . S
C118 C145 1.389 . S
C119 C118 1.443 . S
C119 C120 1.340 . S
C119 H151 0.951 . S
C120 C119 1.340 . S
C120 C121 1.439 . S
C120 H152 0.950 . S
C121 N117 1.374 . S
C121 C120 1.439 . S
C121 C146 1.395 . S
N122 Co111 1.996 . S
N122 C123 1.376 . S
N122 C126 1.383 1_554 S
C123 N122 1.376 . S
C123 C124 1.446 . S
C123 C146 1.391 . S
C124 C123 1.446 . S
C124 C125 1.339 . S
C124 H153 0.949 . S
C125 C124 1.339 . S
C125 C126 1.439 1_554 S
C125 H154 0.950 1_554 S
C126 N122 1.383 1_556 S
C126 C125 1.439 1_556 S
C126 C144 1.392 . S
N127 Co111 2.287 . S
N127 C130 1.332 . S
N127 C132 1.332 . S
C128 C129 1.386 . S
C128 C131 1.388 . S
C129 C128 1.386 . S
C129 C130 1.382 . S
C129 H155 0.950 . S
C130 N127 1.332 . S
C130 C129 1.382 . S
C130 H141 0.952 . S
C131 C128 1.388 . S
C131 C132 1.382 . S
C131 H156 0.950 . S
C132 N127 1.332 . S
C132 C131 1.382 . S
C132 H142 0.948 . S
N133 Co111 2.278 1_556 S
N133 C137 1.332 . S
N133 C138 1.332 . S
C134 C135 1.388 . S
C134 C138 1.382 . S
C134 H157 0.950 . S
C135 C134 1.388 . S
C135 C136 1.386 . S
C136 C135 1.386 . S
C136 C137 1.382 . S
C136 H158 0.950 . S
C137 N133 1.332 . S
C137 C136 1.382 . S
C137 H139 0.952 . S
C138 N133 1.332 . S
C138 C134 1.382 . S
C138 H140 0.948 . S
H139 C137 0.952 . S
H140 C138 0.948 . S
H141 C130 0.952 . S
H142 C132 0.948 . S
C143 C109 1.395 . S
C143 C113 1.391 . S
C144 C106 1.389 . S
C144 C126 1.392 . S
C145 C116 1.392 . S
C145 C118 1.389 . S
C146 C121 1.395 . S
C146 C123 1.391 . S
H147 C107 0.951 . S
H148 C108 0.950 . S
H149 C114 0.949 . S
H150 C115 0.950 1_554 S
H151 C119 0.951 . S
H152 C120 0.950 . S
H153 C124 0.949 . S
H154 C125 0.950 1_556 S
H155 C129 0.950 . S
H156 C131 0.950 . S
H157 C134 0.950 . S
H158 C136 0.950 . S
C159 C160 1.443 . S
C159 N163 1.376 . S
C159 C197 1.389 . S
C160 C159 1.443 . S
C160 C161 1.340 . S
C160 H200 0.951 . S
C161 C160 1.340 . S
C161 C162 1.439 . S
C161 H201 0.950 . S
C162 C161 1.439 . S
C162 N163 1.374 . S
C162 C196 1.395 . S
N163 C159 1.376 . S
N163 C162 1.374 . S
N163 Co164 1.994 1_655 S
Co164 N163 1.994 1_455 S
Co164 N165 1.985 1_455 S
Co164 N170 2.023 . S
Co164 N175 2.004 . S
Co164 N180 2.301 . S
Co164 N186 2.264 1_455 S
N165 Co164 1.985 1_655 S
N165 C166 1.376 . S
N165 C169 1.383 1_655 S
C166 N165 1.376 . S
C166 C167 1.446 . S
C166 C196 1.391 . S
C167 C166 1.446 . S
C167 C168 1.339 1_655 S
C167 H202 0.949 . S
C168 C167 1.339 1_455 S
C168 C169 1.439 . S
C168 H203 0.950 . S
C169 N165 1.383 1_455 S
C169 C168 1.439 . S
C169 C198 1.392 . S
N170 Co164 2.023 . S
N170 C171 1.376 . S
N170 C174 1.374 . S
C171 N170 1.376 . S
C171 C172 1.443 . S
C171 C198 1.389 . S
C172 C171 1.443 . S
C172 C173 1.340 . S
C172 H204 0.951 . S
C173 C172 1.340 . S
C173 C174 1.439 . S
C173 H205 0.950 . S
C174 N170 1.374 . S
C174 C173 1.439 . S
C174 C199 1.395 . S
N175 Co164 2.004 . S
N175 C176 1.376 . S
N175 C179 1.383 1_455 S
C176 N175 1.376 . S
C176 C177 1.446 . S
C176 C199 1.391 . S
C177 C176 1.446 . S
C177 C178 1.328 1_455 S
C177 H206 0.949 . S
C178 C177 1.328 1_655 S
C178 C179 1.447 . S
C178 H207 0.952 . S
C179 N175 1.383 1_655 S
C179 C178 1.447 . S
C179 C197 1.392 . S
N180 Co164 2.301 . S
N180 C183 1.332 . S
N180 C185 1.332 . S
C181 C182 1.386 . S
C181 C184 1.388 . S
C182 C181 1.386 . S
C182 C183 1.382 . S
C182 H208 0.950 . S
C183 N180 1.332 . S
C183 C182 1.382 . S
C183 H194 0.952 . S
C184 C181 1.388 . S
C184 C185 1.382 . S
C184 H209 0.950 . S
C185 N180 1.332 . S
C185 C184 1.382 . S
C185 H195 0.948 1_455 S
N186 Co164 2.264 1_655 S
N186 C190 1.332 . S
N186 C191 1.332 . S
C187 C188 1.388 . S
C187 C191 1.382 . S
C187 H210 0.950 . S
C188 C187 1.388 . S
C188 C189 1.386 . S
C189 C188 1.386 . S
C189 C190 1.382 . S
C189 H211 0.950 . S
C190 N186 1.332 . S
C190 C189 1.382 . S
C190 H192 0.952 . S
C191 N186 1.332 . S
C191 C187 1.382 . S
C191 H193 0.948 1_655 S
H192 C190 0.952 . S
H193 C191 0.948 1_455 S
H194 C183 0.952 . S
H195 C185 0.948 1_655 S
C196 C162 1.395 . S
C196 C166 1.391 . S
C197 C159 1.389 . S
C197 C179 1.392 . S
C198 C169 1.392 . S
C198 C171 1.389 . S
C199 C174 1.395 . S
C199 C176 1.391 . S
H200 C160 0.951 . S
H201 C161 0.950 . S
H202 C167 0.949 . S
H203 C168 0.950 . S
H204 C172 0.951 . S
H205 C173 0.950 . S
H206 C177 0.949 . S
H207 C178 0.952 . S
H208 C182 0.950 . S
H209 C184 0.950 . S
H210 C187 0.950 . S
H211 C189 0.950 . S
C212 C213 1.443 . S
C212 N216 1.376 1_565 S
C212 C250 1.389 . S
C213 C212 1.443 . S
C213 C214 1.340 1_565 S
C213 H253 0.951 . S
C214 C213 1.340 1_545 S
C214 C215 1.439 . S
C214 H254 0.950 . S
C215 C214 1.439 . S
C215 N216 1.374 . S
C215 C249 1.395 . S
N216 C212 1.376 1_545 S
N216 C215 1.374 . S
N216 Co217 2.017 . S
Co217 N216 2.017 . S
Co217 N218 1.995 . S
Co217 N223 1.999 1_544 S
Co217 N228 1.994 1_544 S
Co217 N233 2.278 1_554 S
Co217 N239 2.287 1_545 S
N218 Co217 1.995 . S
N218 C219 1.376 . S
N218 C222 1.383 1_554 S
C219 N218 1.376 . S
C219 C220 1.446 . S
C219 C249 1.391 . S
C220 C219 1.446 . S
C220 C221 1.339 1_554 S
C220 H255 0.949 . S
C221 C220 1.339 1_556 S
C221 C222 1.439 . S
C221 H256 0.950 . S
C222 N218 1.383 1_556 S
C222 C221 1.439 . S
C222 C251 1.392 . S
N223 Co217 1.999 1_566 S
N223 C224 1.376 1_565 S
N223 C227 1.374 . S
C224 N223 1.376 1_545 S
C224 C225 1.443 . S
C224 C251 1.389 . S
C225 C224 1.443 . S
C225 C226 1.340 1_545 S
C225 H257 0.951 . S
C226 C225 1.340 1_565 S
C226 C227 1.439 . S
C226 H258 0.950 . S
C227 N223 1.374 . S
C227 C226 1.439 . S
C227 C252 1.395 . S
N228 Co217 1.994 1_566 S
N228 C229 1.376 . S
N228 C232 1.383 1_556 S
C229 N228 1.376 . S
C229 C230 1.446 . S
C229 C252 1.391 . S
C230 C229 1.446 . S
C230 C231 1.339 1_556 S
C230 H259 0.949 . S
C231 C230 1.339 1_554 S
C231 C232 1.439 . S
C231 H260 0.950 . S
C232 N228 1.383 1_554 S
C232 C231 1.439 . S
C232 C250 1.392 . S
N233 Co217 2.278 1_556 S
N233 C236 1.332 . S
N233 C238 1.332 . S
C234 C235 1.386 . S
C234 C237 1.388 . S
C235 C234 1.386 . S
C235 C236 1.382 . S
C235 H261 0.950 . S
C236 N233 1.332 . S
C236 C235 1.382 . S
C236 H247 0.952 1_545 S
C237 C234 1.388 . S
C237 C238 1.382 . S
C237 H262 0.950 . S
C238 N233 1.332 . S
C238 C237 1.382 . S
C238 H248 0.948 . S
N239 Co217 2.287 1_565 S
N239 C243 1.332 . S
N239 C244 1.332 . S
C240 C241 1.388 . S
C240 C244 1.382 . S
C240 H263 0.950 . S
C241 C240 1.388 . S
C241 C242 1.386 . S
C242 C241 1.386 . S
C242 C243 1.382 . S
C242 H264 0.950 . S
C243 N239 1.332 . S
C243 C242 1.382 . S
C243 H245 0.952 1_565 S
C244 N239 1.332 . S
C244 C240 1.382 . S
C244 H246 0.948 . S
H245 C243 0.952 1_545 S
H246 C244 0.948 . S
H247 C236 0.952 1_565 S
H248 C238 0.948 . S
C249 C215 1.395 . S
C249 C219 1.391 . S
C250 C212 1.389 . S
C250 C232 1.392 . S
C251 C222 1.392 . S
C251 C224 1.389 . S
C252 C227 1.395 . S
C252 C229 1.391 . S
H253 C213 0.951 . S
H254 C214 0.950 . S
H255 C220 0.949 . S
H256 C221 0.950 . S
H257 C225 0.951 . S
H258 C226 0.950 . S
H259 C230 0.949 . S
H260 C231 0.950 . S
H261 C235 0.950 . S
H262 C237 0.950 . S
H263 C240 0.950 . S
H264 C242 0.950 . S
C265 C266 1.443 . S
C265 N269 1.376 . S
C265 C303 1.389 . S
C266 C265 1.443 . S
C266 C267 1.340 . S
C266 H306 0.951 . S
C267 C266 1.340 . S
C267 C268 1.439 . S
C267 H307 0.950 . S
C268 C267 1.439 . S
C268 N269 1.374 . S
C268 C302 1.395 . S
N269 C265 1.376 . S
N269 C268 1.374 . S
N269 Co270 2.008 . S
Co270 N269 2.008 . S
Co270 N271 1.995 . S
Co270 N276 2.008 . S
Co270 N281 1.995 . S
Co270 N286 2.282 . S
Co270 N292 2.282 . S
N271 Co270 1.995 . S
N271 C272 1.376 . S
N271 C275 1.383 . S
C272 N271 1.376 . S
C272 C273 1.446 . S
C272 C302 1.391 . S
C273 C272 1.446 . S
C273 C274 1.339 . S
C273 H308 0.949 . S
C274 C273 1.339 . S
C274 C275 1.439 . S
C274 H309 0.950 . S
C275 N271 1.383 . S
C275 C274 1.439 . S
C275 C304 1.392 . S
N276 Co270 2.008 . S
N276 C277 1.376 . S
N276 C280 1.374 . S
C277 N276 1.376 . S
C277 C278 1.443 . S
C277 C304 1.389 . S
C278 C277 1.443 . S
C278 C279 1.340 . S
C278 H310 0.951 . S
C279 C278 1.340 . S
C279 C280 1.439 . S
C279 H311 0.950 . S
C280 N276 1.374 . S
C280 C279 1.439 . S
C280 C305 1.395 . S
N281 Co270 1.995 . S
N281 C282 1.376 . S
N281 C285 1.383 . S
C282 N281 1.376 . S
C282 C283 1.446 . S
C282 C305 1.391 . S
C283 C282 1.446 . S
C283 C284 1.339 . S
C283 H312 0.949 . S
C284 C283 1.339 . S
C284 C285 1.439 . S
C284 H313 0.950 . S
C285 N281 1.383 . S
C285 C284 1.439 . S
C285 C303 1.392 . S
N286 Co270 2.282 . S
N286 C289 1.332 . S
N286 C291 1.332 . S
C287 C288 1.386 . S
C287 C290 1.388 . S
C288 C287 1.386 . S
C288 C289 1.382 . S
C288 H314 0.950 . S
C289 N286 1.332 . S
C289 C288 1.382 . S
C289 H300 0.952 . S
C290 C287 1.388 . S
C290 C291 1.382 . S
C290 H315 0.950 . S
C291 N286 1.332 . S
C291 C290 1.382 . S
C291 H301 0.948 . S
N292 Co270 2.282 . S
N292 C296 1.332 . S
N292 C297 1.332 . S
C293 C294 1.388 . S
C293 C297 1.382 . S
C293 H316 0.950 . S
C294 C293 1.388 . S
C294 C295 1.386 . S
C295 C294 1.386 . S
C295 C296 1.382 . S
C295 H317 0.950 . S
C296 N292 1.332 . S
C296 C295 1.382 . S
C296 H298 0.952 . S
C297 N292 1.332 . S
C297 C293 1.382 . S
C297 H299 0.948 . S
H298 C296 0.952 . S
H299 C297 0.948 . S
H300 C289 0.952 . S
H301 C291 0.948 . S
C302 C268 1.395 . S
C302 C272 1.391 . S
C303 C265 1.389 . S
C303 C285 1.392 . S
C304 C275 1.392 . S
C304 C277 1.389 . S
C305 C280 1.395 . S
C305 C282 1.391 . S
H306 C266 0.951 . S
H307 C267 0.950 . S
H308 C273 0.949 . S
H309 C274 0.950 . S
H310 C278 0.951 . S
H311 C279 0.950 . S
H312 C283 0.949 . S
H313 C284 0.950 . S
H314 C288 0.950 . S
H315 C290 0.950 . S
H316 C293 0.950 . S
H317 C295 0.950 . S
C318 C319 1.443 . S
C318 N322 1.376 . S
C318 C356 1.389 . S
C319 C318 1.443 . S
C319 C320 1.340 . S
C319 H359 0.951 . S
C320 C319 1.340 . S
C320 C321 1.439 . S
C320 H360 0.950 . S
C321 C320 1.439 . S
C321 N322 1.374 . S
C321 C355 1.395 . S
N322 C318 1.376 . S
N322 C321 1.374 . S
N322 Co323 2.008 . S
Co323 N322 2.008 . S
Co323 N324 1.995 . S
Co323 N329 2.008 . S
Co323 N334 1.995 . S
Co323 N339 2.282 . S
Co323 N345 2.282 . S
N324 Co323 1.995 . S
N324 C325 1.376 . S
N324 C328 1.383 . S
C325 N324 1.376 . S
C325 C326 1.446 . S
C325 C355 1.391 . S
C326 C325 1.446 . S
C326 C327 1.339 . S
C326 H361 0.949 . S
C327 C326 1.339 . S
C327 C328 1.439 . S
C327 H362 0.950 . S
C328 N324 1.383 . S
C328 C327 1.439 . S
C328 C357 1.392 . S
N329 Co323 2.008 . S
N329 C330 1.376 . S
N329 C333 1.374 . S
C330 N329 1.376 . S
C330 C331 1.443 . S
C330 C357 1.389 . S
C331 C330 1.443 . S
C331 C332 1.340 . S
C331 H363 0.951 . S
C332 C331 1.340 . S
C332 C333 1.439 . S
C332 H364 0.950 . S
C333 N329 1.374 . S
C333 C332 1.439 . S
C333 C358 1.395 . S
N334 Co323 1.995 . S
N334 C335 1.376 . S
N334 C338 1.383 . S
C335 N334 1.376 . S
C335 C336 1.446 . S
C335 C358 1.391 . S
C336 C335 1.446 . S
C336 C337 1.339 . S
C336 H365 0.949 . S
C337 C336 1.339 . S
C337 C338 1.439 . S
C337 H366 0.950 . S
C338 N334 1.383 . S
C338 C337 1.439 . S
C338 C356 1.392 . S
N339 Co323 2.282 . S
N339 C342 1.332 . S
N339 C344 1.332 . S
C340 C341 1.386 . S
C340 C343 1.388 . S
C341 C340 1.386 . S
C341 C342 1.382 . S
C341 H367 0.950 . S
C342 N339 1.332 . S
C342 C341 1.382 . S
C342 H353 0.952 . S
C343 C340 1.388 . S
C343 C344 1.382 . S
C343 H368 0.950 . S
C344 N339 1.332 . S
C344 C343 1.382 . S
C344 H354 0.948 . S
N345 Co323 2.282 . S
N345 C349 1.332 . S
N345 C350 1.332 . S
C346 C347 1.388 . S
C346 C350 1.382 . S
C346 H369 0.950 . S
C347 C346 1.388 . S
C347 C348 1.386 . S
C348 C347 1.386 . S
C348 C349 1.382 . S
C348 H370 0.950 . S
C349 N345 1.332 . S
C349 C348 1.382 . S
C349 H351 0.952 . S
C350 N345 1.332 . S
C350 C346 1.382 . S
C350 H352 0.948 . S
H351 C349 0.952 . S
H352 C350 0.948 . S
H353 C342 0.952 . S
H354 C344 0.948 . S
C355 C321 1.395 . S
C355 C325 1.391 . S
C356 C318 1.389 . S
C356 C338 1.392 . S
C357 C328 1.392 . S
C357 C330 1.389 . S
C358 C333 1.395 . S
C358 C335 1.391 . S
H359 C319 0.951 . S
H360 C320 0.950 . S
H361 C326 0.949 . S
H362 C327 0.950 . S
H363 C331 0.951 . S
H364 C332 0.950 . S
H365 C336 0.949 . S
H366 C337 0.950 . S
H367 C341 0.950 . S
H368 C343 0.950 . S
H369 C346 0.950 . S
H370 C348 0.950 . S
C371 C372 1.443 . S
C371 N375 1.376 . S
C371 C409 1.389 . S
C372 C371 1.443 . S
C372 C373 1.340 . S
C372 H412 0.951 . S
C373 C372 1.340 . S
C373 C374 1.439 . S
C373 H413 0.950 . S
C374 C373 1.439 . S
C374 N375 1.374 . S
C374 C408 1.395 . S
N375 C371 1.376 . S
N375 C374 1.374 . S
N375 Co376 2.008 . S
Co376 N375 2.008 . S
Co376 N377 1.995 . S
Co376 N382 2.008 . S
Co376 N387 1.995 . S
Co376 N392 2.282 . S
Co376 N398 2.282 . S
N377 Co376 1.995 . S
N377 C378 1.376 . S
N377 C381 1.383 . S
C378 N377 1.376 . S
C378 C379 1.446 . S
C378 C408 1.391 . S
C379 C378 1.446 . S
C379 C380 1.339 . S
C379 H414 0.949 . S
C380 C379 1.339 . S
C380 C381 1.439 . S
C380 H415 0.950 . S
C381 N377 1.383 . S
C381 C380 1.439 . S
C381 C410 1.392 . S
N382 Co376 2.008 . S
N382 C383 1.376 . S
N382 C386 1.374 . S
C383 N382 1.376 . S
C383 C384 1.443 . S
C383 C410 1.389 . S
C384 C383 1.443 . S
C384 C385 1.340 . S
C384 H416 0.951 . S
C385 C384 1.340 . S
C385 C386 1.439 . S
C385 H417 0.950 . S
C386 N382 1.374 . S
C386 C385 1.439 . S
C386 C411 1.395 . S
N387 Co376 1.995 . S
N387 C388 1.376 . S
N387 C391 1.383 . S
C388 N387 1.376 . S
C388 C389 1.446 . S
C388 C411 1.391 . S
C389 C388 1.446 . S
C389 C390 1.339 . S
C389 H418 0.949 . S
C390 C389 1.339 . S
C390 C391 1.439 . S
C390 H419 0.950 . S
C391 N387 1.383 . S
C391 C390 1.439 . S
C391 C409 1.392 . S
N392 Co376 2.282 . S
N392 C395 1.332 . S
N392 C397 1.332 . S
C393 C394 1.386 . S
C393 C396 1.388 . S
C394 C393 1.386 . S
C394 C395 1.382 . S
C394 H420 0.950 . S
C395 N392 1.332 . S
C395 C394 1.382 . S
C395 H406 0.952 . S
C396 C393 1.388 . S
C396 C397 1.382 . S
C396 H421 0.950 . S
C397 N392 1.332 . S
C397 C396 1.382 . S
C397 H407 0.948 . S
N398 Co376 2.282 . S
N398 C402 1.332 . S
N398 C403 1.332 . S
C399 C400 1.388 . S
C399 C403 1.382 . S
C399 H422 0.950 . S
C400 C399 1.388 . S
C400 C401 1.386 . S
C401 C400 1.386 . S
C401 C402 1.382 . S
C401 H423 0.950 . S
C402 N398 1.332 . S
C402 C401 1.382 . S
C402 H404 0.952 . S
C403 N398 1.332 . S
C403 C399 1.382 . S
C403 H405 0.948 . S
H404 C402 0.952 . S
H405 C403 0.948 . S
H406 C395 0.952 . S
H407 C397 0.948 . S
C408 C374 1.395 . S
C408 C378 1.391 . S
C409 C371 1.389 . S
C409 C391 1.392 . S
C410 C381 1.392 . S
C410 C383 1.389 . S
C411 C386 1.395 . S
C411 C388 1.391 . S
H412 C372 0.951 . S
H413 C373 0.950 . S
H414 C379 0.949 . S
H415 C380 0.950 . S
H416 C384 0.951 . S
H417 C385 0.950 . S
H418 C389 0.949 . S
H419 C390 0.950 . S
H420 C394 0.950 . S
H421 C396 0.950 . S
H422 C399 0.950 . S
H423 C401 0.950 . S
C424 C425 1.443 . S
C424 N428 1.376 . S
C424 C462 1.389 . S
C425 C424 1.443 . S
C425 C426 1.340 . S
C425 H465 0.951 . S
C426 C425 1.340 . S
C426 C427 1.439 . S
C426 H466 0.950 . S
C427 C426 1.439 . S
C427 N428 1.374 . S
C427 C461 1.395 . S
N428 C424 1.376 . S
N428 C427 1.374 . S
N428 Co429 2.008 . S
Co429 N428 2.008 . S
Co429 N430 1.995 . S
Co429 N435 2.008 . S
Co429 N440 1.995 . S
Co429 N445 2.282 . S
Co429 N451 2.282 . S
N430 Co429 1.995 . S
N430 C431 1.376 . S
N430 C434 1.383 . S
C431 N430 1.376 . S
C431 C432 1.446 . S
C431 C461 1.391 . S
C432 C431 1.446 . S
C432 C433 1.339 . S
C432 H467 0.949 . S
C433 C432 1.339 . S
C433 C434 1.439 . S
C433 H468 0.950 . S
C434 N430 1.383 . S
C434 C433 1.439 . S
C434 C463 1.392 . S
N435 Co429 2.008 . S
N435 C436 1.376 . S
N435 C439 1.374 . S
C436 N435 1.376 . S
C436 C437 1.443 . S
C436 C463 1.389 . S
C437 C436 1.443 . S
C437 C438 1.340 . S
C437 H469 0.951 . S
C438 C437 1.340 . S
C438 C439 1.439 . S
C438 H470 0.950 . S
C439 N435 1.374 . S
C439 C438 1.439 . S
C439 C464 1.395 . S
N440 Co429 1.995 . S
N440 C441 1.376 . S
N440 C444 1.383 . S
C441 N440 1.376 . S
C441 C442 1.446 . S
C441 C464 1.391 . S
C442 C441 1.446 . S
C442 C443 1.339 . S
C442 H471 0.949 . S
C443 C442 1.339 . S
C443 C444 1.439 . S
C443 H472 0.950 . S
C444 N440 1.383 . S
C444 C443 1.439 . S
C444 C462 1.392 . S
N445 Co429 2.282 . S
N445 C448 1.332 . S
N445 C450 1.332 . S
C446 C447 1.386 . S
C446 C449 1.388 . S
C447 C446 1.386 . S
C447 C448 1.382 . S
C447 H473 0.950 . S
C448 N445 1.332 . S
C448 C447 1.382 . S
C448 H459 0.952 . S
C449 C446 1.388 . S
C449 C450 1.382 . S
C449 H474 0.950 . S
C450 N445 1.332 . S
C450 C449 1.382 . S
C450 H460 0.948 . S
N451 Co429 2.282 . S
N451 C455 1.332 . S
N451 C456 1.332 . S
C452 C453 1.388 . S
C452 C456 1.382 . S
C452 H475 0.950 . S
C453 C452 1.388 . S
C453 C454 1.386 . S
C454 C453 1.386 . S
C454 C455 1.382 . S
C454 H476 0.950 . S
C455 N451 1.332 . S
C455 C454 1.382 . S
C455 H457 0.952 . S
C456 N451 1.332 . S
C456 C452 1.382 . S
C456 H458 0.948 . S
H457 C455 0.952 . S
H458 C456 0.948 . S
H459 C448 0.952 . S
H460 C450 0.948 . S
C461 C427 1.395 . S
C461 C431 1.391 . S
C462 C424 1.389 . S
C462 C444 1.392 . S
C463 C434 1.392 . S
C463 C436 1.389 . S
C464 C439 1.395 . S
C464 C441 1.391 . S
H465 C425 0.951 . S
H466 C426 0.950 . S
H467 C432 0.949 . S
H468 C433 0.950 . S
H469 C437 0.951 . S
H470 C438 0.950 . S
H471 C442 0.949 . S
H472 C443 0.950 . S
H473 C447 0.950 . S
H474 C449 0.950 . S
H475 C452 0.950 . S
H476 C454 0.950 . S
C477 C478 1.443 . S
C477 N481 1.376 . S
C477 C515 1.389 . S
C478 C477 1.443 . S
C478 C479 1.340 . S
C478 H518 0.951 . S
C479 C478 1.340 . S
C479 C480 1.439 . S
C479 H519 0.950 . S
C480 C479 1.439 . S
C480 N481 1.374 . S
C480 C514 1.395 . S
N481 C477 1.376 . S
N481 C480 1.374 . S
N481 Co482 2.008 . S
Co482 N481 2.008 . S
Co482 N483 1.995 . S
Co482 N488 2.008 . S
Co482 N493 1.995 . S
Co482 N498 2.282 . S
Co482 N504 2.282 . S
N483 Co482 1.995 . S
N483 C484 1.376 . S
N483 C487 1.383 . S
C484 N483 1.376 . S
C484 C485 1.446 . S
C484 C514 1.391 . S
C485 C484 1.446 . S
C485 C486 1.339 . S
C485 H520 0.949 . S
C486 C485 1.339 . S
C486 C487 1.439 . S
C486 H521 0.950 . S
C487 N483 1.383 . S
C487 C486 1.439 . S
C487 C516 1.392 . S
N488 Co482 2.008 . S
N488 C489 1.376 . S
N488 C492 1.374 . S
C489 N488 1.376 . S
C489 C490 1.443 . S
C489 C516 1.389 . S
C490 C489 1.443 . S
C490 C491 1.340 . S
C490 H522 0.951 . S
C491 C490 1.340 . S
C491 C492 1.439 . S
C491 H523 0.950 . S
C492 N488 1.374 . S
C492 C491 1.439 . S
C492 C517 1.395 . S
N493 Co482 1.995 . S
N493 C494 1.376 . S
N493 C497 1.383 . S
C494 N493 1.376 . S
C494 C495 1.446 . S
C494 C517 1.391 . S
C495 C494 1.446 . S
C495 C496 1.339 . S
C495 H524 0.949 . S
C496 C495 1.339 . S
C496 C497 1.439 . S
C496 H525 0.950 . S
C497 N493 1.383 . S
C497 C496 1.439 . S
C497 C515 1.392 . S
N498 Co482 2.282 . S
N498 C501 1.332 . S
N498 C503 1.332 . S
C499 C500 1.386 . S
C499 C502 1.388 . S
C500 C499 1.386 . S
C500 C501 1.382 . S
C500 H526 0.950 . S
C501 N498 1.332 . S
C501 C500 1.382 . S
C501 H512 0.952 . S
C502 C499 1.388 . S
C502 C503 1.382 . S
C502 H527 0.950 . S
C503 N498 1.332 . S
C503 C502 1.382 . S
C503 H513 0.948 . S
N504 Co482 2.282 . S
N504 C508 1.332 . S
N504 C509 1.332 . S
C505 C506 1.388 . S
C505 C509 1.382 . S
C505 H528 0.950 . S
C506 C505 1.388 . S
C506 C507 1.386 . S
C507 C506 1.386 . S
C507 C508 1.382 . S
C507 H529 0.950 . S
C508 N504 1.332 . S
C508 C507 1.382 . S
C508 H510 0.952 . S
C509 N504 1.332 . S
C509 C505 1.382 . S
C509 H511 0.948 . S
H510 C508 0.952 . S
H511 C509 0.948 . S
H512 C501 0.952 . S
H513 C503 0.948 . S
C514 C480 1.395 . S
C514 C484 1.391 . S
C515 C477 1.389 . S
C515 C497 1.392 . S
C516 C487 1.392 . S
C516 C489 1.389 . S
C517 C492 1.395 . S
C517 C494 1.391 . S
H518 C478 0.951 . S
H519 C479 0.950 . S
H520 C485 0.949 . S
H521 C486 0.950 . S
H522 C490 0.951 . S
H523 C491 0.950 . S
H524 C495 0.949 . S
H525 C496 0.950 . S
H526 C500 0.950 . S
H527 C502 0.950 . S
H528 C505 0.950 . S
H529 C507 0.950 . S
C530 C531 1.443 . S
C530 N534 1.376 . S
C530 C568 1.389 . S
C531 C530 1.443 . S
C531 C532 1.340 . S
C531 H571 0.951 . S
C532 C531 1.340 . S
C532 C533 1.439 . S
C532 H572 0.950 . S
C533 C532 1.439 . S
C533 N534 1.374 . S
C533 C567 1.395 . S
N534 C530 1.376 . S
N534 C533 1.374 . S
N534 Co535 2.008 . S
Co535 N534 2.008 . S
Co535 N536 1.995 . S
Co535 N541 2.008 . S
Co535 N546 1.995 . S
Co535 N551 2.282 . S
Co535 N557 2.282 . S
N536 Co535 1.995 . S
N536 C537 1.376 . S
N536 C540 1.383 . S
C537 N536 1.376 . S
C537 C538 1.446 . S
C537 C567 1.391 . S
C538 C537 1.446 . S
C538 C539 1.339 . S
C538 H573 0.949 . S
C539 C538 1.339 . S
C539 C540 1.439 . S
C539 H574 0.950 . S
C540 N536 1.383 . S
C540 C539 1.439 . S
C540 C569 1.392 . S
N541 Co535 2.008 . S
N541 C542 1.376 . S
N541 C545 1.374 . S
C542 N541 1.376 . S
C542 C543 1.443 . S
C542 C569 1.389 . S
C543 C542 1.443 . S
C543 C544 1.340 . S
C543 H575 0.951 . S
C544 C543 1.340 . S
C544 C545 1.439 . S
C544 H576 0.950 . S
C545 N541 1.374 . S
C545 C544 1.439 . S
C545 C570 1.395 . S
N546 Co535 1.995 . S
N546 C547 1.376 . S
N546 C550 1.383 . S
C547 N546 1.376 . S
C547 C548 1.446 . S
C547 C570 1.391 . S
C548 C547 1.446 . S
C548 C549 1.339 . S
C548 H577 0.949 . S
C549 C548 1.339 . S
C549 C550 1.439 . S
C549 H578 0.950 . S
C550 N546 1.383 . S
C550 C549 1.439 . S
C550 C568 1.392 . S
N551 Co535 2.282 . S
N551 C554 1.332 . S
N551 C556 1.332 . S
C552 C553 1.386 . S
C552 C555 1.388 . S
C553 C552 1.386 . S
C553 C554 1.382 . S
C553 H579 0.950 . S
C554 N551 1.332 . S
C554 C553 1.382 . S
C554 H565 0.952 . S
C555 C552 1.388 . S
C555 C556 1.382 . S
C555 H580 0.950 . S
C556 N551 1.332 . S
C556 C555 1.382 . S
C556 H566 0.948 . S
N557 Co535 2.282 . S
N557 C561 1.332 . S
N557 C562 1.332 . S
C558 C559 1.388 . S
C558 C562 1.382 . S
C558 H581 0.950 . S
C559 C558 1.388 . S
C559 C560 1.386 . S
C560 C559 1.386 . S
C560 C561 1.382 . S
C560 H582 0.950 . S
C561 N557 1.332 . S
C561 C560 1.382 . S
C561 H563 0.952 . S
C562 N557 1.332 . S
C562 C558 1.382 . S
C562 H564 0.948 . S
H563 C561 0.952 . S
H564 C562 0.948 . S
H565 C554 0.952 . S
H566 C556 0.948 . S
C567 C533 1.395 . S
C567 C537 1.391 . S
C568 C530 1.389 . S
C568 C550 1.392 . S
C569 C540 1.392 . S
C569 C542 1.389 . S
C570 C545 1.395 . S
C570 C547 1.391 . S
H571 C531 0.951 . S
H572 C532 0.950 . S
H573 C538 0.949 . S
H574 C539 0.950 . S
H575 C543 0.951 . S
H576 C544 0.950 . S
H577 C548 0.949 . S
H578 C549 0.950 . S
H579 C553 0.950 . S
H580 C555 0.950 . S
H581 C558 0.950 . S
H582 C560 0.950 . S
C583 C584 1.443 . S
C583 N587 1.376 . S
C583 C621 1.389 . S
C584 C583 1.443 . S
C584 C585 1.340 . S
C584 H624 0.951 . S
C585 C584 1.340 . S
C585 C586 1.439 . S
C585 H625 0.950 . S
C586 C585 1.439 . S
C586 N587 1.374 . S
C586 C620 1.395 . S
N587 C583 1.376 . S
N587 C586 1.374 . S
N587 Co588 2.008 . S
Co588 N587 2.008 . S
Co588 N589 1.995 . S
Co588 N594 2.008 . S
Co588 N599 1.995 . S
Co588 N604 2.282 . S
Co588 N610 2.282 . S
N589 Co588 1.995 . S
N589 C590 1.376 . S
N589 C593 1.383 . S
C590 N589 1.376 . S
C590 C591 1.446 . S
C590 C620 1.391 . S
C591 C590 1.446 . S
C591 C592 1.339 . S
C591 H626 0.949 . S
C592 C591 1.339 . S
C592 C593 1.439 . S
C592 H627 0.950 . S
C593 N589 1.383 . S
C593 C592 1.439 . S
C593 C622 1.392 . S
N594 Co588 2.008 . S
N594 C595 1.376 . S
N594 C598 1.374 . S
C595 N594 1.376 . S
C595 C596 1.443 . S
C595 C622 1.389 . S
C596 C595 1.443 . S
C596 C597 1.340 . S
C596 H628 0.951 . S
C597 C596 1.340 . S
C597 C598 1.439 . S
C597 H629 0.950 . S
C598 N594 1.374 . S
C598 C597 1.439 . S
C598 C623 1.395 . S
N599 Co588 1.995 . S
N599 C600 1.376 . S
N599 C603 1.383 . S
C600 N599 1.376 . S
C600 C601 1.446 . S
C600 C623 1.391 . S
C601 C600 1.446 . S
C601 C602 1.339 . S
C601 H630 0.949 . S
C602 C601 1.339 . S
C602 C603 1.439 . S
C602 H631 0.950 . S
C603 N599 1.383 . S
C603 C602 1.439 . S
C603 C621 1.392 . S
N604 Co588 2.282 . S
N604 C607 1.332 . S
N604 C609 1.332 . S
C605 C606 1.386 . S
C605 C608 1.388 . S
C606 C605 1.386 . S
C606 C607 1.382 . S
C606 H632 0.950 . S
C607 N604 1.332 . S
C607 C606 1.382 . S
C607 H618 0.952 . S
C608 C605 1.388 . S
C608 C609 1.382 . S
C608 H633 0.950 . S
C609 N604 1.332 . S
C609 C608 1.382 . S
C609 H619 0.948 . S
N610 Co588 2.282 . S
N610 C614 1.332 . S
N610 C615 1.332 . S
C611 C612 1.388 . S
C611 C615 1.382 . S
C611 H634 0.950 . S
C612 C611 1.388 . S
C612 C613 1.386 . S
C613 C612 1.386 . S
C613 C614 1.382 . S
C613 H635 0.950 . S
C614 N610 1.332 . S
C614 C613 1.382 . S
C614 H616 0.952 . S
C615 N610 1.332 . S
C615 C611 1.382 . S
C615 H617 0.948 . S
H616 C614 0.952 . S
H617 C615 0.948 . S
H618 C607 0.952 . S
H619 C609 0.948 . S
C620 C586 1.395 . S
C620 C590 1.391 . S
C621 C583 1.389 . S
C621 C603 1.392 . S
C622 C593 1.392 . S
C622 C595 1.389 . S
C623 C598 1.395 . S
C623 C600 1.391 . S
H624 C584 0.951 . S
H625 C585 0.950 . S
H626 C591 0.949 . S
H627 C592 0.950 . S
H628 C596 0.951 . S
H629 C597 0.950 . S
H630 C601 0.949 . S
H631 C602 0.950 . S
H632 C606 0.950 . S
H633 C608 0.950 . S
H634 C611 0.950 . S
H635 C613 0.950 . S
C636 C637 1.387 . S
C636 H640 0.950 . S
C636 C645 1.390 . S
C637 C636 1.387 . S
C637 C639 1.387 . S
H638 C645 0.950 . S
C639 C637 1.387 . S
C639 C641 1.390 . S
C639 H643 0.950 . S
H640 C636 0.950 . S
C641 C639 1.390 . S
C641 C642 1.387 . S
C641 H644 0.950 . S
C642 C641 1.387 . S
C642 C645 1.387 . S
H643 C639 0.950 . S
H644 C641 0.950 . S
C645 C636 1.390 . S
C645 H638 0.950 . S
C645 C642 1.387 . S
C646 C647 1.387 . S
C646 H650 0.950 . S
C646 C655 1.390 . S
C647 C646 1.387 . S
C647 C649 1.387 . S
H648 C655 0.950 . S
C649 C647 1.387 . S
C649 C651 1.390 . S
C649 H653 0.950 . S
H650 C646 0.950 . S
C651 C649 1.390 . S
C651 C652 1.387 . S
C651 H654 0.950 . S
C652 C651 1.387 . S
C652 C655 1.387 . S
H653 C649 0.950 . S
H654 C651 0.950 . S
C655 C646 1.390 . S
C655 H648 0.950 . S
C655 C652 1.387 . S
C656 C657 1.387 . S
C656 H660 0.950 . S
C656 C665 1.390 . S
C657 C656 1.387 . S
C657 C659 1.387 . S
H658 C665 0.950 . S
C659 C657 1.387 . S
C659 C661 1.390 . S
C659 H663 0.950 . S
H660 C656 0.950 . S
C661 C659 1.390 . S
C661 C662 1.387 . S
C661 H664 0.950 . S
C662 C661 1.387 . S
C662 C665 1.387 . S
H663 C659 0.950 . S
H664 C661 0.950 . S
C665 C656 1.390 . S
C665 H658 0.950 . S
C665 C662 1.387 . S
C666 C667 1.387 . S
C666 H670 0.950 . S
C666 C675 1.390 . S
C667 C666 1.387 . S
C667 C669 1.387 . S
H668 C675 0.950 . S
C669 C667 1.387 . S
C669 C671 1.390 . S
C669 H673 0.950 . S
H670 C666 0.950 . S
C671 C669 1.390 . S
C671 C672 1.387 . S
C671 H674 0.950 . S
C672 C671 1.387 . S
C672 C675 1.387 . S
H673 C669 0.950 . S
H674 C671 0.950 . S
C675 C666 1.390 . S
C675 H668 0.950 . S
C675 C672 1.387 . S
C676 C677 1.387 . S
C676 H680 0.950 . S
C676 C685 1.390 . S
C677 C676 1.387 . S
C677 C679 1.387 . S
H678 C685 0.950 . S
C679 C677 1.387 . S
C679 C681 1.390 . S
C679 H683 0.950 . S
H680 C676 0.950 . S
C681 C679 1.390 . S
C681 C682 1.387 . S
C681 H684 0.950 . S
C682 C681 1.387 . S
C682 C685 1.387 . S
H683 C679 0.950 . S
H684 C681 0.950 . S
C685 C676 1.390 . S
C685 H678 0.950 . S
C685 C682 1.387 . S
C686 C687 1.387 . S
C686 H690 0.950 . S
C686 C695 1.390 . S
C687 C686 1.387 . S
C687 C689 1.387 . S
H688 C695 0.950 . S
C689 C687 1.387 . S
C689 C691 1.390 . S
C689 H693 0.950 . S
H690 C686 0.950 . S
C691 C689 1.390 . S
C691 C692 1.387 . S
C691 H694 0.950 . S
C692 C691 1.387 . S
C692 C695 1.387 . S
H693 C689 0.950 . S
H694 C691 0.950 . S
C695 C686 1.390 . S
C695 H688 0.950 . S
C695 C692 1.387 . S
C696 C697 1.387 . S
C696 H700 0.950 . S
C696 C705 1.390 . S
C697 C696 1.387 . S
C697 C699 1.387 . S
H698 C705 0.950 . S
C699 C697 1.387 . S
C699 C701 1.390 . S
C699 H703 0.950 . S
H700 C696 0.950 . S
C701 C699 1.390 . S
C701 C702 1.387 . S
C701 H704 0.950 . S
C702 C701 1.387 . S
C702 C705 1.387 . S
H703 C699 0.950 . S
H704 C701 0.950 . S
C705 C696 1.390 . S
C705 H698 0.950 . S
C705 C702 1.387 . S
C706 C707 1.387 . S
C706 H710 0.950 . S
C706 C715 1.390 . S
C707 C706 1.387 . S
C707 C709 1.387 . S
H708 C715 0.950 . S
C709 C707 1.387 . S
C709 C711 1.390 . S
C709 H713 0.950 . S
H710 C706 0.950 . S
C711 C709 1.390 . S
C711 C712 1.387 . S
C711 H714 0.950 . S
C712 C711 1.387 . S
C712 C715 1.387 . S
H713 C709 0.950 . S
H714 C711 0.950 . S
C715 C706 1.390 . S
C715 H708 0.950 . S
C715 C712 1.387 . S
C716 C717 1.387 . S
C716 H720 0.950 . S
C716 C725 1.390 . S
C717 C716 1.387 . S
C717 C719 1.387 . S
H718 C725 0.950 . S
C719 C717 1.387 . S
C719 C721 1.390 . S
C719 H723 0.950 . S
H720 C716 0.950 . S
C721 C719 1.390 . S
C721 C722 1.387 . S
C721 H724 0.950 . S
C722 C721 1.387 . S
C722 C725 1.387 . S
H723 C719 0.950 . S
H724 C721 0.950 . S
C725 C716 1.390 . S
C725 H718 0.950 . S
C725 C722 1.387 . S
C726 C727 1.387 . S
C726 H730 0.950 . S
C726 C735 1.390 . S
C727 C726 1.387 . S
C727 C729 1.387 . S
H728 C735 0.950 . S
C729 C727 1.387 . S
C729 C731 1.390 . S
C729 H733 0.950 . S
H730 C726 0.950 . S
C731 C729 1.390 . S
C731 C732 1.387 . S
C731 H734 0.950 . S
C732 C731 1.387 . S
C732 C735 1.387 . S
H733 C729 0.950 . S
H734 C731 0.950 . S
C735 C726 1.390 . S
C735 H728 0.950 . S
C735 C732 1.387 . S
C736 C737 1.387 . S
C736 H740 0.950 . S
C736 C745 1.390 . S
C737 C736 1.387 . S
C737 C739 1.387 . S
H738 C745 0.950 . S
C739 C737 1.387 . S
C739 C741 1.390 . S
C739 H743 0.950 . S
H740 C736 0.950 . S
C741 C739 1.390 . S
C741 C742 1.387 . S
C741 H744 0.950 . S
C742 C741 1.387 . S
C742 C745 1.387 . S
H743 C739 0.950 . S
H744 C741 0.950 . S
C745 C736 1.390 . S
C745 H738 0.950 . S
C745 C742 1.387 . S
C746 C747 1.387 . S
C746 H750 0.950 . S
C746 C755 1.390 . S
C747 C746 1.387 . S
C747 C749 1.387 . S
H748 C755 0.950 . S
C749 C747 1.387 . S
C749 C751 1.390 . S
C749 H753 0.950 . S
H750 C746 0.950 . S
C751 C749 1.390 . S
C751 C752 1.387 . S
C751 H754 0.950 . S
C752 C751 1.387 . S
C752 C755 1.387 . S
H753 C749 0.950 . S
H754 C751 0.950 . S
C755 C746 1.390 . S
C755 H748 0.950 . S
C755 C752 1.387 . S
C756 C757 1.387 . S
C756 H760 0.950 . S
C756 C765 1.390 . S
C757 C756 1.387 . S
C757 C759 1.387 . S
H758 C765 0.950 . S
C759 C757 1.387 . S
C759 C761 1.390 . S
C759 H763 0.950 . S
H760 C756 0.950 . S
C761 C759 1.390 . S
C761 C762 1.387 . S
C761 H764 0.950 . S
C762 C761 1.387 . S
C762 C765 1.387 . S
H763 C759 0.950 . S
H764 C761 0.950 . S
C765 C756 1.390 . S
C765 H758 0.950 . S
C765 C762 1.387 . S
C766 C767 1.387 . S
C766 H770 0.950 . S
C766 C775 1.390 . S
C767 C766 1.387 . S
C767 C769 1.387 . S
H768 C775 0.950 . S
C769 C767 1.387 . S
C769 C771 1.390 . S
C769 H773 0.950 . S
H770 C766 0.950 . S
C771 C769 1.390 . S
C771 C772 1.387 . S
C771 H774 0.950 . S
C772 C771 1.387 . S
C772 C775 1.387 . S
H773 C769 0.950 . S
H774 C771 0.950 . S
C775 C766 1.390 . S
C775 H768 0.950 . S
C775 C772 1.387 . S
C776 C777 1.387 . S
C776 H780 0.950 . S
C776 C785 1.390 . S
C777 C776 1.387 . S
C777 C779 1.387 . S
H778 C785 0.950 . S
C779 C777 1.387 . S
C779 C781 1.390 . S
C779 H783 0.950 . S
H780 C776 0.950 . S
C781 C779 1.390 . S
C781 C782 1.387 . S
C781 H784 0.950 . S
C782 C781 1.387 . S
C782 C785 1.387 . S
H783 C779 0.950 . S
H784 C781 0.950 . S
C785 C776 1.390 . S
C785 H778 0.950 . S
C785 C782 1.387 . S
C786 C787 1.387 . S
C786 H790 0.950 . S
C786 C795 1.390 . S
C787 C786 1.387 . S
C787 C789 1.387 . S
H788 C795 0.950 . S
C789 C787 1.387 . S
C789 C791 1.390 . S
C789 H793 0.950 . S
H790 C786 0.950 . S
C791 C789 1.390 . S
C791 C792 1.387 . S
C791 H794 0.950 . S
C792 C791 1.387 . S
C792 C795 1.387 . S
H793 C789 0.950 . S
H794 C791 0.950 . S
C795 C786 1.390 . S
C795 H788 0.950 . S
C795 C792 1.387 . S
C796 C797 1.387 . S
C796 H800 0.950 . S
C796 C805 1.390 . S
C797 C796 1.387 . S
C797 C799 1.387 . S
H798 C805 0.950 . S
C799 C797 1.387 . S
C799 C801 1.390 . S
C799 H803 0.950 . S
H800 C796 0.950 . S
C801 C799 1.390 . S
C801 C802 1.387 . S
C801 H804 0.950 . S
C802 C801 1.387 . S
C802 C805 1.387 . S
H803 C799 0.950 . S
H804 C801 0.950 . S
C805 C796 1.390 . S
C805 H798 0.950 . S
C805 C802 1.387 . S
C806 C807 1.387 . S
C806 H810 0.950 . S
C806 C815 1.390 . S
C807 C806 1.387 . S
C807 C809 1.387 . S
H808 C815 0.950 . S
C809 C807 1.387 . S
C809 C811 1.390 . S
C809 H813 0.950 . S
H810 C806 0.950 . S
C811 C809 1.390 . S
C811 C812 1.387 . S
C811 H814 0.950 . S
C812 C811 1.387 . S
C812 C815 1.387 . S
H813 C809 0.950 . S
H814 C811 0.950 . S
C815 C806 1.390 . S
C815 H808 0.950 . S
C815 C812 1.387 . S
C816 C817 1.387 . S
C816 H820 0.950 . S
C816 C825 1.390 . S
C817 C816 1.387 . S
C817 C819 1.387 . S
H818 C825 0.950 . S
C819 C817 1.387 . S
C819 C821 1.390 . S
C819 H823 0.950 . S
H820 C816 0.950 . S
C821 C819 1.390 . S
C821 C822 1.387 . S
C821 H824 0.950 . S
C822 C821 1.387 . S
C822 C825 1.387 . S
H823 C819 0.950 . S
H824 C821 0.950 . S
C825 C816 1.390 . S
C825 H818 0.950 . S
C825 C822 1.387 . S
C826 C827 1.387 . S
C826 H830 0.950 . S
C826 C835 1.390 . S
C827 C826 1.387 . S
C827 C829 1.387 . S
H828 C835 0.950 . S
C829 C827 1.387 . S
C829 C831 1.390 . S
C829 H833 0.950 . S
H830 C826 0.950 . S
C831 C829 1.390 . S
C831 C832 1.387 . S
C831 H834 0.950 . S
C832 C831 1.387 . S
C832 C835 1.387 . S
H833 C829 0.950 . S
H834 C831 0.950 . S
C835 C826 1.390 . S
C835 H828 0.950 . S
C835 C832 1.387 . S
C836 C837 1.387 . S
C836 H840 0.950 . S
C836 C845 1.390 . S
C837 C836 1.387 . S
C837 C839 1.387 . S
H838 C845 0.950 . S
C839 C837 1.387 . S
C839 C841 1.390 . S
C839 H843 0.950 . S
H840 C836 0.950 . S
C841 C839 1.390 . S
C841 C842 1.387 . S
C841 H844 0.950 . S
C842 C841 1.387 . S
C842 C845 1.387 . S
H843 C839 0.950 . S
H844 C841 0.950 . S
C845 C836 1.390 . S
C845 H838 0.950 . S
C845 C842 1.387 . S
C846 C847 1.387 . S
C846 H850 0.950 . S
C846 C855 1.390 . S
C847 C846 1.387 . S
C847 C849 1.387 . S
H848 C855 0.950 . S
C849 C847 1.387 . S
C849 C851 1.390 . S
C849 H853 0.950 . S
H850 C846 0.950 . S
C851 C849 1.390 . S
C851 C852 1.387 . S
C851 H854 0.950 . S
C852 C851 1.387 . S
C852 C855 1.387 . S
H853 C849 0.950 . S
H854 C851 0.950 . S
C855 C846 1.390 . S
C855 H848 0.950 . S
C855 C852 1.387 . S
C856 C857 1.387 . S
C856 H860 0.950 . S
C856 C865 1.390 . S
C857 C856 1.387 . S
C857 C859 1.387 . S
H858 C865 0.950 . S
C859 C857 1.387 . S
C859 C861 1.390 . S
C859 H863 0.950 . S
H860 C856 0.950 . S
C861 C859 1.390 . S
C861 C862 1.387 . S
C861 H864 0.950 . S
C862 C861 1.387 . S
C862 C865 1.387 . S
H863 C859 0.950 . S
H864 C861 0.950 . S
C865 C856 1.390 . S
C865 H858 0.950 . S
C865 C862 1.387 . S
C866 C867 1.387 . S
C866 H870 0.950 . S
C866 C875 1.390 . S
C867 C866 1.387 . S
C867 C869 1.387 . S
H868 C875 0.950 . S
C869 C867 1.387 . S
C869 C871 1.390 . S
C869 H873 0.950 . S
H870 C866 0.950 . S
C871 C869 1.390 . S
C871 C872 1.387 . S
C871 H874 0.950 . S
C872 C871 1.387 . S
C872 C875 1.387 . S
H873 C869 0.950 . S
H874 C871 0.950 . S
C875 C866 1.390 . S
C875 H868 0.950 . S
C875 C872 1.387 . S
C637 C39 1.986 . S
C642 C356 1.956 . S
C647 C91 1.645 . S
C652 C409 1.621 . S
C662 C462 1.675 . S
C657 C128 1.711 . S
C672 C499 1.329 . S
C667 C188 1.351 . S
C682 C559 1.691 . S
C677 C250 1.719 . S
C692 C612 1.574 . S
C687 C304 1.616 . S
C697 C75 1.847 . S
C702 C463 1.823 . S
C707 C144 1.622 . S
C712 C506 1.589 . S
C722 C552 1.739 . S
C717 C198 1.759 . S
C732 C605 1.347 . S
C727 C234 1.375 . S
C737 C294 1.654 . S
C742 C357 1.632 . S
C752 C410 1.474 . S
C747 C29 1.488 . S
C762 C516 1.955 . S
C757 C38 1.985 . S
C767 C92 1.645 . S
C772 C568 1.629 . S
C782 C621 1.683 . S
C777 C135 1.711 . S
C787 C181 1.351 . S
C792 C347 1.329 . S
C797 C251 1.719 . S
C802 C400 1.697 . S
C807 C303 1.617 . S
C812 C453 1.583 . S
C817 C82 1.847 . S
C822 C622 1.813 . S
C832 C340 1.589 . S
C827 C145 1.622 . S
C837 C197 1.758 . S
C842 C393 1.733 . S
C847 C241 1.373 . S
C852 C446 1.338 . S
C857 C287 1.654 . S
C862 C515 1.632 . S
C867 C22 1.489 . S
C872 C569 1.468 . S
