# Generated by pormake.
# Topology wbl, (4,4)-cn, num edge types: 1
# Building blocks:
#     Node 0, Type 0, BuildingBlock: MUDLON_clean_sbu_0, # of connection points: 4
#     Node 1, Type 0, BuildingBlock: MUDLON_clean_sbu_0, # of connection points: 4
#     Node 2, Type 0, BuildingBlock: MUDLON_clean_sbu_0, # of connection points: 4
#     Node 3, Type 0, BuildingBlock: MUDLON_clean_sbu_0, # of connection points: 4
#     Node 4, Type 0, BuildingBlock: MUDLON_clean_sbu_0, # of connection points: 4
#     Node 5, Type 0, BuildingBlock: MUDLON_clean_sbu_0, # of connection points: 4
#     Node 6, Type 0, BuildingBlock: MUDLON_clean_sbu_0, # of connection points: 4
#     Node 7, Type 0, BuildingBlock: MUDLON_clean_sbu_0, # of connection points: 4
#     Node 8, Type 1, BuildingBlock: QUQFOY_clean_sbu_3, # of connection points: 4
#     Node 9, Type 1, BuildingBlock: QUQFOY_clean_sbu_3, # of connection points: 4
#     Node 10, Type 1, BuildingBlock: QUQFOY_clean_sbu_3, # of connection points: 4
#     Node 11, Type 1, BuildingBlock: QUQFOY_clean_sbu_3, # of connection points: 4
#     Node 12, Type 1, BuildingBlock: QUQFOY_clean_sbu_3, # of connection points: 4
#     Node 13, Type 1, BuildingBlock: QUQFOY_clean_sbu_3, # of connection points: 4
#     Node 14, Type 1, BuildingBlock: QUQFOY_clean_sbu_3, # of connection points: 4
#     Node 15, Type 1, BuildingBlock: QUQFOY_clean_sbu_3, # of connection points: 4
#     Edge 16, Type (0, 1), BuildingBlock: UVAHIK_clean_linker_0, # of connection points: 2
#     Edge 17, Type (0, 1), BuildingBlock: UVAHIK_clean_linker_0, # of connection points: 2
#     Edge 18, Type (0, 1), BuildingBlock: UVAHIK_clean_linker_0, # of connection points: 2
#     Edge 19, Type (0, 1), BuildingBlock: UVAHIK_clean_linker_0, # of connection points: 2
#     Edge 20, Type (0, 1), BuildingBlock: UVAHIK_clean_linker_0, # of connection points: 2
#     Edge 21, Type (0, 1), BuildingBlock: UVAHIK_clean_linker_0, # of connection points: 2
#     Edge 22, Type (0, 1), BuildingBlock: UVAHIK_clean_linker_0, # of connection points: 2
#     Edge 23, Type (0, 1), BuildingBlock: UVAHIK_clean_linker_0, # of connection points: 2
#     Edge 24, Type (0, 1), BuildingBlock: UVAHIK_clean_linker_0, # of connection points: 2
#     Edge 25, Type (0, 1), BuildingBlock: UVAHIK_clean_linker_0, # of connection points: 2
#     Edge 26, Type (0, 1), BuildingBlock: UVAHIK_clean_linker_0, # of connection points: 2
#     Edge 27, Type (0, 1), BuildingBlock: UVAHIK_clean_linker_0, # of connection points: 2
#     Edge 28, Type (0, 1), BuildingBlock: UVAHIK_clean_linker_0, # of connection points: 2
#     Edge 29, Type (0, 1), BuildingBlock: UVAHIK_clean_linker_0, # of connection points: 2
#     Edge 30, Type (0, 1), BuildingBlock: UVAHIK_clean_linker_0, # of connection points: 2
#     Edge 31, Type (0, 1), BuildingBlock: UVAHIK_clean_linker_0, # of connection points: 2
#     Edge 32, Type (0, 1), BuildingBlock: UVAHIK_clean_linker_0, # of connection points: 2
#     Edge 33, Type (0, 1), BuildingBlock: UVAHIK_clean_linker_0, # of connection points: 2
#     Edge 34, Type (0, 1), BuildingBlock: UVAHIK_clean_linker_0, # of connection points: 2
#     Edge 35, Type (0, 1), BuildingBlock: UVAHIK_clean_linker_0, # of connection points: 2
#     Edge 36, Type (0, 1), BuildingBlock: UVAHIK_clean_linker_0, # of connection points: 2
#     Edge 37, Type (0, 1), BuildingBlock: UVAHIK_clean_linker_0, # of connection points: 2
#     Edge 38, Type (0, 1), BuildingBlock: UVAHIK_clean_linker_0, # of connection points: 2
#     Edge 39, Type (0, 1), BuildingBlock: UVAHIK_clean_linker_0, # of connection points: 2
#     Edge 40, Type (0, 1), BuildingBlock: UVAHIK_clean_linker_0, # of connection points: 2
#     Edge 41, Type (0, 1), BuildingBlock: UVAHIK_clean_linker_0, # of connection points: 2
#     Edge 42, Type (0, 1), BuildingBlock: UVAHIK_clean_linker_0, # of connection points: 2
#     Edge 43, Type (0, 1), BuildingBlock: UVAHIK_clean_linker_0, # of connection points: 2
#     Edge 44, Type (0, 1), BuildingBlock: UVAHIK_clean_linker_0, # of connection points: 2
#     Edge 45, Type (0, 1), BuildingBlock: UVAHIK_clean_linker_0, # of connection points: 2
#     Edge 46, Type (0, 1), BuildingBlock: UVAHIK_clean_linker_0, # of connection points: 2
#     Edge 47, Type (0, 1), BuildingBlock: UVAHIK_clean_linker_0, # of connection points: 2
# Relax obj value: 0.237
# Max RMSD: 0.221
# Mean RMSD: 0.172
data_MOF--net-wbl--node1-MUDLON_clean_sbu_0--node2-QUQFOY_clean_sbu_3--edge1-UVAHIK_clean_linker_0
_symmetry_space_group_name_H-M    P1
_symmetry_Int_Tables_number       1
_symmetry_cell_setting            triclinic
loop_
_symmetry_equiv_pos_as_xyz
'x, y, z'
_cell_length_a     45.88769
_cell_length_b     46.301572
_cell_length_c     100.04648
_cell_angle_alpha  90.628836
_cell_angle_beta   90.079746
_cell_angle_gamma 89.664291
loop_
_atom_site_label
_atom_site_type_symbol
_atom_site_fract_x
_atom_site_fract_y
_atom_site_fract_z
_atom_type_partial_charge
Mg0 Mg 0.01963 0.04771 0.32352 0.0
C1 C 0.03009 -0.00624 0.33851 0.0
O2 O 0.05649 -0.0003 0.33433 0.0
C3 C 0.9637 0.05206 0.30689 0.0
O4 O 0.9666 0.02384 0.30615 0.0
C5 C 0.05995 0.01848 0.3035 0.0
O6 O 0.04017 -0.00181 0.30439 0.0
O7 O 0.05682 0.04162 0.31033 0.0
O8 O 0.00883 0.00861 0.3341 0.0
O9 O 0.02987 0.07509 0.34056 0.0
C10 C 0.00783 0.0858 0.34654 0.0
O11 O 0.98205 0.08293 0.34097 0.0
O12 O 0.98268 0.06674 0.31319 0.0
Mg13 Mg 0.09164 0.51076 0.5644 0.0
C14 C 0.13925 0.4927 0.58346 0.0
O15 O 0.12333 0.46925 0.58397 0.0
C16 C 0.06613 0.46748 0.54483 0.0
O17 O 0.05453 0.49115 0.53997 0.0
C18 C 0.11483 0.5531 0.545 0.0
O19 O 0.13763 0.53636 0.54697 0.0
O20 O 0.09104 0.54711 0.55083 0.0
O21 O 0.13257 0.51214 0.57512 0.0
O22 O 0.06092 0.51554 0.58079 0.0
C23 C 0.05037 0.49264 0.58569 0.0
O24 O 0.05522 0.46791 0.57951 0.0
O25 O 0.08384 0.46947 0.55458 0.0
Mg26 Mg 0.62561 0.58088 0.8214 0.0
C27 C 0.60617 0.63565 0.83521 0.0
O28 O 0.58187 0.62899 0.82897 0.0
C29 C 0.6623 0.5542 0.79931 0.0
O30 O 0.63712 0.54255 0.79619 0.0
C31 C 0.58087 0.59518 0.80013 0.0
O32 O 0.60226 0.6114 0.79586 0.0
O33 O 0.58489 0.57964 0.81037 0.0
O34 O 0.62902 0.62092 0.83272 0.0
O35 O 0.62555 0.55003 0.83753 0.0
C36 C 0.65031 0.54207 0.8419 0.0
O37 O 0.67376 0.54981 0.83536 0.0
O38 O 0.66352 0.57214 0.80901 0.0
Mg39 Mg 0.51693 0.1264 0.06735 0.0
C40 C 0.55894 0.14118 0.08893 0.0
O41 O 0.5546 0.16653 0.08348 0.0
C42 C 0.52437 0.07768 0.0467 0.0
O43 O 0.54593 0.09384 0.04259 0.0
C44 C 0.56177 0.15961 0.05249 0.0
O45 O 0.57727 0.13791 0.05707 0.0
O46 O 0.53457 0.16046 0.05494 0.0
O47 O 0.54709 0.11905 0.08367 0.0
O48 O 0.47866 0.13897 0.07874 0.0
C49 C 0.45994 0.11972 0.08139 0.0
O50 O 0.46099 0.09511 0.07473 0.0
O51 O 0.50891 0.08628 0.05651 0.0
Mg52 Mg 0.13252 0.53025 0.92118 0.0
C53 C 0.10717 0.55269 0.89589 0.0
O54 O 0.09074 0.52999 0.89784 0.0
C55 C 0.07091 0.53826 0.93183 0.0
O56 O 0.07015 0.55821 0.9226 0.0
C57 C 0.16934 0.57084 0.93708 0.0
O58 O 0.14646 0.58712 0.93458 0.0
O59 O 0.16962 0.54489 0.93279 0.0
O60 O 0.12517 0.56016 0.90496 0.0
O61 O 0.14196 0.49168 0.90952 0.0
C62 C 0.12189 0.47338 0.90744 0.0
O63 O 0.09846 0.47452 0.91497 0.0
O64 O 0.09429 0.52395 0.93361 0.0
Mg65 Mg 0.59639 0.61025 0.17536 0.0
C66 C 0.57019 0.58588 0.15002 0.0
O67 O 0.59097 0.56668 0.15183 0.0
C68 C 0.5786 0.55603 0.19096 0.0
O69 O 0.55374 0.5591 0.18458 0.0
C70 C 0.55824 0.65549 0.18738 0.0
O71 O 0.53945 0.63527 0.18414 0.0
O72 O 0.58518 0.65082 0.18523 0.0
O73 O 0.56546 0.60473 0.15911 0.0
O74 O 0.63723 0.6121 0.16449 0.0
C75 C 0.65188 0.58881 0.16335 0.0
O76 O 0.64424 0.56652 0.17054 0.0
O77 O 0.59871 0.57433 0.18917 0.0
Mg78 Mg 0.512 0.08712 0.42216 0.0
C79 C 0.48496 0.12906 0.40376 0.0
O80 O 0.46625 0.10771 0.40307 0.0
C81 C 0.4535 0.08597 0.4369 0.0
O82 O 0.4538 0.11389 0.43469 0.0
C83 C 0.56572 0.11124 0.43553 0.0
O84 O 0.55519 0.13505 0.43033 0.0
O85 O 0.55189 0.08775 0.43386 0.0
O86 O 0.50435 0.12849 0.41284 0.0
O87 O 0.51722 0.06007 0.40454 0.0
C88 C 0.53109 0.07083 0.39481 0.0
O89 O 0.54506 0.09523 0.39669 0.0
O90 O 0.475 0.07053 0.43311 0.0
Mg91 Mg 0.03167 -0.00375 0.67938 0.0
C92 C 0.07799 0.98071 0.65892 0.0
O93 O 0.07871 0.95668 0.66577 0.0
C94 C 0.05193 0.05198 0.69252 0.0
O95 O 0.07587 0.04549 0.68593 0.0
C96 C 0.06775 0.95811 0.69657 0.0
O97 O 0.08316 0.98194 0.69646 0.0
O98 O 0.04347 0.9577 0.69042 0.0
O99 O 0.06204 0.00153 0.66301 0.0
O100 O -0.00898 -0.0062 0.66828 0.0
C101 C 0.9797 0.01819 0.66557 0.0
O102 O -0.00955 0.04137 0.67138 0.0
O103 O 0.03059 0.03465 0.69203 0.0
C104 C 0.53325 0.69126 0.0179 0.0
O105 O 0.55678 0.70045 0.01285 0.0
Cd106 Cd 0.5593 0.7263 -0.00786 0.0
O107 O 0.50906 0.69527 0.01191 0.0
Cd108 Cd 0.49164 0.71808 -0.00905 0.0
C109 C 0.51618 0.7847 -0.00042 0.0
O110 O 0.53052 0.70139 0.97573 0.0
O111 O 0.50032 0.73295 0.96795 0.0
O112 O 0.45738 0.67831 -0.01172 0.0
C113 C 0.52152 0.71586 0.96583 0.0
O114 O 0.54136 0.77509 -0.0035 0.0
C115 C 0.43479 0.69409 -0.0127 0.0
O116 O 0.49417 0.76804 -0.00053 0.0
O117 O 0.43849 0.7212 -0.01167 0.0
C118 C 0.42913 0.03173 0.21313 0.0
O119 O 0.45343 0.03406 0.21911 0.0
Cd120 Cd 0.46683 0.00677 0.23835 0.0
O121 O 0.40921 0.01555 0.21775 0.0
Cd122 Cd 0.40134 -0.01421 0.23814 0.0
C123 C 0.45205 0.9369 0.22804 0.0
O124 O 0.42909 0.0147 0.25432 0.0
O125 O 0.41623 0.97237 0.26078 0.0
O126 O 0.35454 0.00988 0.24104 0.0
C127 C 0.42774 -0.00353 0.26366 0.0
O128 O 0.47059 0.95606 0.23136 0.0
C129 C 0.33944 -0.0129 0.24182 0.0
O130 O 0.4248 0.94223 0.22878 0.0
O131 O 0.35299 0.96324 0.24041 0.0
C132 C 0.09635 0.93446 0.47135 0.0
O133 O 0.09275 0.95662 0.47877 0.0
Cd134 Cd 0.1214 0.96563 0.49844 0.0
O135 O 0.11373 0.9143 0.47484 0.0
Cd136 Cd 0.1445 0.90114 0.49445 0.0
C137 C 0.19104 0.95423 0.48601 0.0
O138 O 0.11726 0.92489 0.51261 0.0
O139 O 0.16073 0.90997 0.51735 0.0
O140 O 0.11961 0.85502 0.49492 0.0
C141 C 0.137 0.92122 0.52134 0.0
O142 O 0.17139 0.97124 0.49055 0.0
C143 C 0.14239 0.83936 0.49471 0.0
O144 O 0.18693 0.927 0.4856 0.0
O145 O 0.16663 0.8524 0.49385 0.0
C146 C 0.19824 0.58937 0.76149 0.0
O147 O 0.20597 0.56589 0.75582 0.0
Cd148 Cd 0.23172 0.56385 0.735 0.0
O149 O 0.20343 0.6135 0.756 0.0
Cd150 Cd 0.22613 0.63143 0.73511 0.0
C151 C 0.29186 0.60378 0.74365 0.0
O152 O 0.20753 0.59496 0.71955 0.0
O153 O 0.2427 0.62107 0.71217 0.0
O154 O 0.18564 0.6653 0.73314 0.0
C155 C 0.22337 0.60223 0.70979 0.0
O156 O 0.28119 0.57957 0.74007 0.0
C157 C 0.201 0.68791 0.73243 0.0
O158 O 0.27609 0.62655 0.74381 0.0
O159 O 0.22847 0.68448 0.73315 0.0
C160 C 0.9445 0.09602 0.48401 0.0
O161 O 0.93764 0.07171 0.48878 0.0
Cd162 Cd 0.90803 0.06855 0.5085 0.0
O163 O 0.93693 0.11926 0.49001 0.0
Cd164 Cd 0.91144 0.13562 0.51061 0.0
C165 C 0.84858 0.10853 0.49844 0.0
O166 O 0.92826 0.09823 0.52605 0.0
O167 O 0.89151 0.12408 0.53256 0.0
O168 O 0.95158 0.16947 0.51252 0.0
C169 C 0.91053 0.10507 0.53529 0.0
O170 O 0.85933 0.08407 0.50154 0.0
C171 C 0.93602 0.19183 0.51451 0.0
O172 O 0.8635 0.13149 0.49991 0.0
O173 O 0.90857 0.18825 0.51474 0.0
C174 C 0.02885 0.43567 0.72393 0.0
O175 O 0.05364 0.43173 0.72929 0.0
Cd176 Cd 0.05975 0.40694 0.75009 0.0
O177 O 0.00576 0.42795 0.72995 0.0
Cd178 Cd -0.00941 0.40653 0.75151 0.0
C179 C 0.02342 0.34374 0.7424 0.0
O180 O 0.02758 0.428 0.76633 0.0
O181 O 0.00162 0.39373 0.77453 0.0
O182 O 0.95388 0.44463 0.75164 0.0
C183 C 0.02095 0.4128 0.77636 0.0
O184 O 0.04709 0.35698 0.74491 0.0
C185 C 0.93247 0.42856 0.7544 0.0
O186 O -0.00106 0.35681 0.74332 0.0
O187 O 0.93785 0.40174 0.75563 0.0
C188 C 0.70802 0.51372 0.98106 0.0
O189 O 0.71423 0.53722 -0.01296 0.0
Cd190 Cd 0.73962 0.53846 0.00802 0.0
O191 O 0.71367 0.48962 -0.01347 0.0
Cd192 Cd 0.73437 0.4715 0.00779 0.0
C193 C 0.79963 0.49809 -0.00106 0.0
O194 O 0.71591 0.50774 0.02368 0.0
O195 O 0.75201 0.48158 0.03047 0.0
O196 O 0.69325 0.43881 0.00887 0.0
C197 C 0.73241 0.50014 0.03321 0.0
O198 O 0.78915 0.52235 0.00275 0.0
C199 C 0.70816 0.4159 0.01032 0.0
O200 O 0.78384 0.47552 -0.00123 0.0
O201 O 0.73572 0.4186 0.01038 0.0
C202 C 0.59827 0.18132 0.27538 0.0
O203 O 0.59998 0.15804 0.26859 0.0
Cd204 Cd 0.62577 0.15191 0.24797 0.0
O205 O 0.61038 0.20429 0.27125 0.0
Cd206 Cd 0.63963 0.21919 0.25142 0.0
C207 C 0.69429 0.17188 0.25855 0.0
O208 O 0.61352 0.19161 0.23413 0.0
O209 O 0.65393 0.21122 0.22814 0.0
O210 O 0.61048 0.26325 0.25053 0.0
C211 C 0.63131 0.19726 0.22485 0.0
O212 O 0.67697 0.1527 0.25406 0.0
C213 C 0.63175 0.28061 0.25015 0.0
O214 O 0.68607 0.1982 0.25964 0.0
O215 O 0.6571 0.26955 0.25104 0.0
C216 C 0.0927 -0.01346 0.28968 0.0
C217 C 0.08616 0.01398 0.29509 0.0
C218 C 0.11807 0.98206 0.28217 0.0
C219 C 0.17377 0.01992 0.2626 0.0
H220 H 0.22392 0.95549 0.27188 0.0
C221 C 0.2947 0.01539 0.2478 0.0
C222 C 0.308 -0.01146 0.24511 0.0
C223 C 0.26584 0.01695 0.25215 0.0
C224 C 0.20997 0.97327 0.26894 0.0
H225 H 0.10083 0.05834 0.29664 0.0
H226 H 0.14494 0.05055 0.28347 0.0
H227 H 0.17667 0.96107 0.28274 0.0
H228 H 0.30103 0.94229 0.24437 0.0
H229 H 0.25031 0.94501 0.25173 0.0
H230 H 0.20698 0.03225 0.24885 0.0
C231 C 0.13042 0.03252 0.28501 0.0
C232 C 0.1829 0.9765 0.27521 0.0
C233 C 0.10524 0.03694 0.29263 0.0
C234 C 0.29144 0.9633 0.24642 0.0
C235 C 0.26243 0.96487 0.25072 0.0
C236 C 0.20071 0.01657 0.25625 0.0
C237 C 0.13724 0.00499 0.2798 0.0
C238 C 0.16478 0.00017 0.27229 0.0
C239 C 0.24941 -0.00829 0.25385 0.0
C240 C 0.21944 -0.00647 0.25953 0.0
H241 H 0.07846 0.96839 0.29139 0.0
H242 H 0.12267 0.96066 0.2782 0.0
H243 H 0.16004 0.03812 0.25999 0.0
H244 H 0.30685 0.03527 0.24694 0.0
H245 H 0.25679 0.03797 0.25465 0.0
C246 C 0.09367 0.5981 0.53493 0.0
C247 C 0.11772 0.57975 0.53704 0.0
C248 C 0.09708 0.62425 0.52824 0.0
C249 C 0.15253 0.67878 0.52118 0.0
H250 H 0.09557 0.70777 0.49594 0.0
C251 C 0.16588 0.79046 0.49695 0.0
C252 C 0.14059 0.80767 0.49642 0.0
C253 C 0.16405 0.76106 0.49997 0.0
C254 C 0.11159 0.70008 0.50304 0.0
H255 H 0.16404 0.57414 0.5334 0.0
H256 H 0.16991 0.61969 0.52178 0.0
H257 H 0.09013 0.65935 0.50499 0.0
H258 H 0.09347 0.80727 0.49819 0.0
H259 H 0.09033 0.75642 0.50364 0.0
H260 H 0.17355 0.71967 0.5196 0.0
C261 C 0.14849 0.61398 0.5254 0.0
C262 C 0.10846 0.67232 0.50821 0.0
C263 C 0.14506 0.58779 0.532 0.0
C264 C 0.1134 0.79464 0.49849 0.0
C265 C 0.11158 0.76535 0.50155 0.0
C266 C 0.15557 0.70658 0.51608 0.0
C267 C 0.12463 0.63269 0.52359 0.0
C268 C 0.12874 0.66148 0.51745 0.0
C269 C 0.1369 0.74826 0.50255 0.0
C270 C 0.13496 0.71775 0.50706 0.0
H271 H 0.07231 0.59254 0.53867 0.0
H272 H 0.07831 0.63831 0.5271 0.0
H273 H 0.16832 0.67121 0.52842 0.0
H274 H 0.18714 0.79983 0.49535 0.0
H275 H 0.18397 0.74845 0.50044 0.0
C276 C 0.52813 0.58169 0.79919 0.0
C277 C 0.55191 0.59617 0.79358 0.0
C278 C 0.50058 0.58329 0.7933 0.0
C279 C 0.45612 0.62666 0.76984 0.0
H280 H 0.40762 0.5584 0.76945 0.0
C281 C 0.33368 0.629 0.75505 0.0
C282 C 0.32269 0.60488 0.74807 0.0
C283 C 0.36228 0.62884 0.75997 0.0
C284 C 0.42095 0.57762 0.76932 0.0
H285 H 0.56541 0.62357 0.77729 0.0
H286 H 0.51739 0.62588 0.76684 0.0
H287 H 0.4563 0.55587 0.77891 0.0
H288 H 0.3336 0.56226 0.74026 0.0
H289 H 0.38337 0.56229 0.74852 0.0
H290 H 0.42086 0.64819 0.75993 0.0
C291 C 0.51995 0.61369 0.77594 0.0
C292 C 0.44878 0.57626 0.77494 0.0
C293 C 0.54753 0.61219 0.78188 0.0
C294 C 0.34121 0.58107 0.74574 0.0
C295 C 0.36976 0.58101 0.75055 0.0
C296 C 0.42825 0.62799 0.76416 0.0
C297 C 0.49611 0.59928 0.78159 0.0
C298 C 0.46669 0.60077 0.77533 0.0
C299 C 0.38052 0.60464 0.75794 0.0
C300 C 0.41031 0.60347 0.76384 0.0
H301 H 0.53068 0.56934 0.80826 0.0
H302 H 0.48265 0.57232 0.79806 0.0
H303 H 0.46921 0.64604 0.77009 0.0
H304 H 0.31997 0.64767 0.75703 0.0
H305 H 0.36976 0.64733 0.7657 0.0
C306 C 0.53872 0.03754 0.03103 0.0
C307 C 0.51908 0.04904 0.04047 0.0
C308 C 0.53467 0.00984 0.0257 0.0
C309 C 0.49812 0.94078 0.03293 0.0
H310 H 0.52053 0.92232 -0.00355 0.0
C311 C 0.48743 0.82584 0.00971 0.0
C312 C 0.51277 0.81559 0.0033 0.0
C313 C 0.48495 0.85493 0.01354 0.0
C314 C 0.51422 0.92718 0.00667 0.0
H315 H 0.47922 0.04079 0.0514 0.0
H316 H 0.47183 -0.0073 0.04188 0.0
H317 H 0.52164 0.97238 0.00428 0.0
H318 H 0.55507 0.828 -0.00437 0.0
H319 H 0.55059 0.87857 0.00221 0.0
H320 H 0.49081 0.89544 0.03527 0.0
C321 C 0.49073 0.00484 0.03881 0.0
C322 C 0.51495 0.95582 0.01118 0.0
C323 C 0.49488 0.03249 0.04421 0.0
C324 C 0.53529 0.83513 0.00059 0.0
C325 C 0.53266 0.86417 0.00426 0.0
C326 C 0.49715 0.91214 0.02837 0.0
C327 C 0.51076 -0.00697 0.0296 0.0
C328 C 0.50747 0.96293 0.02445 0.0
C329 C 0.50758 0.87436 0.01086 0.0
C330 C 0.50573 0.905 0.01528 0.0
H331 H 0.55764 0.04967 0.02797 0.0
H332 H 0.55081 0.00133 0.0188 0.0
H333 H 0.49257 0.94535 0.04326 0.0
H334 H 0.4697 0.81133 0.01194 0.0
H335 H 0.46531 0.86226 0.01856 0.0
C336 C 0.19501 0.61229 0.94814 0.0
C337 C 0.19491 0.58309 0.94414 0.0
C338 C 0.21963 0.62436 0.95419 0.0
C339 C 0.28819 0.60609 0.97173 0.0
H340 H 0.31329 0.68075 0.95902 0.0
C341 C 0.40296 0.65159 0.98229 0.0
C342 C 0.40584 0.68149 0.98444 0.0
C343 C 0.3761 0.63982 0.97864 0.0
C344 C 0.30636 0.66012 0.96286 0.0
H345 H 0.22042 0.54349 0.94364 0.0
H346 H 0.26346 0.56463 0.95414 0.0
H347 H 0.26853 0.65968 0.95035 0.0
H348 H 0.38256 0.72237 0.98486 0.0
H349 H 0.33554 0.70178 0.97868 0.0
H350 H 0.32619 0.60645 0.98417 0.0
C351 C 0.24439 0.57813 0.95268 0.0
C352 C 0.2807 0.64801 0.95787 0.0
C353 C 0.21977 0.56606 0.9466 0.0
C354 C 0.38109 0.69927 0.98321 0.0
C355 C 0.35418 0.68748 0.97959 0.0
C356 C 0.31385 0.61825 0.97676 0.0
C357 C 0.24471 0.60751 0.95641 0.0
C358 C 0.27141 0.62077 0.96216 0.0
C359 C 0.35145 0.65765 0.97708 0.0
C360 C 0.32337 0.64532 0.97231 0.0
H361 H 0.17618 0.626 0.94646 0.0
H362 H 0.21903 0.64695 0.95711 0.0
H363 H 0.28141 0.58525 0.97537 0.0
H364 H 0.42163 0.63729 0.98313 0.0
H365 H 0.3749 0.61682 0.97663 0.0
C366 C 0.5674 0.70635 0.1953 0.0
C367 C 0.54779 0.68384 0.19254 0.0
C368 C 0.55715 0.73353 0.19945 0.0
C369 C 0.4925 0.77105 0.21379 0.0
H370 H 0.52773 0.8391 0.19857 0.0
C371 C 0.44293 0.88553 0.22075 0.0
C372 C 0.46256 0.908 0.22356 0.0
C373 C 0.45317 0.85811 0.21693 0.0
C374 C 0.51783 0.82033 0.20301 0.0
H375 H 0.50206 0.67214 0.1922 0.0
H376 H 0.48428 0.71945 0.1993 0.0
H377 H 0.54632 0.79135 0.19245 0.0
H378 H 0.50843 0.91921 0.22444 0.0
H379 H 0.52613 0.87155 0.21787 0.0
H380 H 0.46392 0.80008 0.22431 0.0
C381 C 0.50758 0.71609 0.19841 0.0
C382 C 0.52854 0.79294 0.19953 0.0
C383 C 0.5178 0.68896 0.19426 0.0
C384 C 0.49263 0.90247 0.22233 0.0
C385 C 0.50283 0.87515 0.21849 0.0
C386 C 0.48175 0.79844 0.21726 0.0
C387 C 0.52709 0.73879 0.20095 0.0
C388 C 0.51602 0.76795 0.20487 0.0
C389 C 0.48325 0.8526 0.21579 0.0
C390 C 0.49431 0.82341 0.21192 0.0
H391 H 0.59065 0.7031 0.1941 0.0
H392 H 0.57281 0.75041 0.20151 0.0
H393 H 0.48259 0.75229 0.21824 0.0
H394 H 0.41964 0.88902 0.22158 0.0
H395 H 0.4375 0.84129 0.21477 0.0
C396 C 0.40356 0.08892 0.44704 0.0
C397 C 0.42763 0.07219 0.44291 0.0
C398 C 0.37856 0.0757 0.45203 0.0
C399 C 0.35126 0.00705 0.46608 0.0
H400 H 0.27615 0.03723 0.45498 0.0
C401 C 0.2419 0.94896 0.47677 0.0
C402 C 0.21871 0.9667 0.48111 0.0
C403 C 0.26784 0.96117 0.47216 0.0
C404 C 0.29695 0.02869 0.45827 0.0
H405 H 0.44444 0.02842 0.441 0.0
H406 H 0.40078 0.00543 0.44953 0.0
H407 H 0.32057 0.06007 0.44719 0.0
H408 H 0.2048 0.01125 0.48404 0.0
H409 H 0.24979 0.03231 0.47608 0.0
H410 H 0.32745 0.97553 0.4771 0.0
C411 C 0.40131 0.02878 0.44908 0.0
C412 C 0.32244 0.04184 0.45383 0.0
C413 C 0.42632 0.04199 0.44412 0.0
C414 C 0.22211 -0.00314 0.48075 0.0
C415 C 0.24788 0.009 0.4761 0.0
C416 C 0.32572 -0.00617 0.47049 0.0
C417 C 0.37701 0.04544 0.45298 0.0
C418 C 0.34992 0.03131 0.45774 0.0
C419 C 0.27103 -0.00865 0.47172 0.0
C420 C 0.29827 0.00462 0.4667 0.0
H421 H 0.40388 0.11223 0.4463 0.0
H422 H 0.36043 0.08923 0.45516 0.0
H423 H 0.37205 -0.00143 0.46941 0.0
H424 H 0.24004 0.92565 0.47692 0.0
H425 H 0.28523 0.947 0.46876 0.0
C426 C 0.06429 0.90557 0.70241 0.0
C427 C 0.08014 0.93147 0.70244 0.0
C428 C 0.07707 0.88002 0.70703 0.0
C429 C 0.14876 0.84582 0.71135 0.0
H430 H 0.10719 0.7914 0.73335 0.0
C431 C 0.20418 0.74187 0.7306 0.0
C432 C 0.18735 0.71662 0.73046 0.0
C433 C 0.19117 0.76878 0.72827 0.0
C434 C 0.11902 0.80621 0.72709 0.0
H435 H 0.12156 0.95096 0.70773 0.0
H436 H 0.14373 0.90646 0.71574 0.0
H437 H 0.08387 0.83693 0.72728 0.0
H438 H 0.14365 0.69983 0.72786 0.0
H439 H 0.12116 0.74646 0.72352 0.0
H440 H 0.18362 0.815 0.71084 0.0
C441 C 0.12154 0.90585 0.71203 0.0
C442 C 0.10565 0.83233 0.72364 0.0
C443 C 0.10874 0.93139 0.70751 0.0
C444 C 0.15723 0.71889 0.7281 0.0
C445 C 0.14428 0.74571 0.72569 0.0
C446 C 0.16205 0.81965 0.71471 0.0
C447 C 0.106 0.87981 0.71169 0.0
C448 C 0.12034 0.85237 0.7157 0.0
C449 C 0.16107 0.77102 0.72568 0.0
C450 C 0.14732 0.79942 0.72258 0.0
H451 H 0.04222 0.90489 0.69857 0.0
H452 H 0.0646 0.86024 0.70656 0.0
H453 H 0.1605 0.86065 0.70505 0.0
H454 H 0.22742 0.74085 0.73246 0.0
H455 H 0.20473 0.78784 0.72855 0.0
C456 C 0.68816 0.52592 0.78133 0.0
C457 C 0.68938 0.54415 0.79264 0.0
C458 C 0.71372 0.51453 0.77571 0.0
C459 C 0.79448 0.52298 0.77565 0.0
H460 H 0.79356 0.44321 0.76348 0.0
C461 C 0.88132 0.42491 0.76303 0.0
C462 C 0.90306 0.44094 0.75666 0.0
C463 C 0.8544 0.43764 0.76615 0.0
C464 C 0.79428 0.46544 0.76692 0.0
H465 H 0.71849 0.5651 0.80678 0.0
H466 H 0.76285 0.54482 0.79721 0.0
H467 H 0.7488 0.46574 0.77156 0.0
H468 H 0.91317 0.48242 0.74801 0.0
H469 H 0.86605 0.50428 0.75304 0.0
H470 H 0.84018 0.52232 0.77167 0.0
C471 C 0.74226 0.53971 0.79247 0.0
C472 C 0.76846 0.47854 0.77138 0.0
C473 C 0.71675 0.55127 0.79801 0.0
C474 C 0.89696 0.46958 0.75305 0.0
C475 C 0.86998 0.48219 0.75602 0.0
C476 C 0.82031 0.50983 0.77131 0.0
C477 C 0.7411 0.52094 0.78132 0.0
C478 C 0.76826 0.50743 0.7759 0.0
C479 C 0.84851 0.46659 0.76285 0.0
C480 C 0.82063 0.48082 0.76696 0.0
H481 H 0.66741 0.52013 0.7769 0.0
H482 H 0.71197 0.5006 0.76698 0.0
H483 H 0.79514 0.54537 0.77888 0.0
H484 H 0.88543 0.40282 0.76599 0.0
H485 H 0.83859 0.42502 0.77155 0.0
C486 C 0.56095 0.2088 0.0421 0.0
C487 C 0.57646 0.1838 0.04571 0.0
C488 C 0.57553 0.23243 0.03669 0.0
C489 C 0.64834 0.2654 0.03594 0.0
H490 H 0.6156 0.31188 0.00758 0.0
C491 C 0.71036 0.36252 0.01445 0.0
C492 C 0.69383 0.38772 0.01237 0.0
C493 C 0.69658 0.33635 0.01719 0.0
C494 C 0.62494 0.29923 0.01557 0.0
H495 H 0.61926 0.16361 0.04598 0.0
H496 H 0.6445 0.20459 0.03646 0.0
H497 H 0.59014 0.26859 0.01478 0.0
H498 H 0.64988 0.40506 0.01123 0.0
H499 H 0.62597 0.35967 0.01615 0.0
H500 H 0.68283 0.2962 0.03694 0.0
C501 C 0.62119 0.20617 0.03801 0.0
C502 C 0.61034 0.27443 0.0197 0.0
C503 C 0.60666 0.1826 0.04341 0.0
C504 C 0.66327 0.38604 0.01277 0.0
C505 C 0.64952 0.35994 0.01551 0.0
C506 C 0.66289 0.29019 0.03185 0.0
C507 C 0.6059 0.23154 0.03478 0.0
C508 C 0.6218 0.25732 0.02999 0.0
C509 C 0.666 0.33482 0.0179 0.0
C510 C 0.65128 0.30754 0.02168 0.0
H511 H 0.53768 0.21043 0.04376 0.0
H512 H 0.56313 0.25174 0.0344 0.0
H513 H 0.65753 0.25298 0.04405 0.0
H514 H 0.73394 0.36308 0.01416 0.0
H515 H 0.70992 0.31732 0.01879 0.0
C516 C 0.91732 0.05086 0.29358 0.0
C517 C 0.93805 0.06668 0.30091 0.0
C518 C 0.89273 0.06459 0.28827 0.0
C519 C 0.8461 0.12909 0.29268 0.0
H520 H 0.81758 0.1076 0.25748 0.0
C521 C 0.7435 0.18218 0.26883 0.0
C522 C 0.72406 0.16282 0.26264 0.0
C523 C 0.77123 0.1728 0.2729 0.0
C524 C 0.82516 0.11374 0.26736 0.0
H525 H 0.94928 0.10944 0.30832 0.0
H526 H 0.90644 0.13333 0.29902 0.0
H527 H 0.86283 0.08646 0.26572 0.0
H528 H 0.71877 0.11846 0.25578 0.0
H529 H 0.76653 0.1023 0.26292 0.0
H530 H 0.8081 0.156 0.29439 0.0
C531 C 0.90909 0.11027 0.29746 0.0
C532 C 0.85108 0.10159 0.27209 0.0
C533 C 0.93373 0.09658 0.30273 0.0
C534 C 0.73309 0.13405 0.2605 0.0
C535 C 0.76067 0.12477 0.2645 0.0
C536 C 0.8201 0.14123 0.28795 0.0
C537 C 0.88825 0.09443 0.29021 0.0
C538 C 0.86164 0.10877 0.28488 0.0
C539 C 0.78009 0.14395 0.27077 0.0
C540 C 0.80907 0.13332 0.27532 0.0
H541 H 0.91993 0.02781 0.29201 0.0
H542 H 0.87691 0.05168 0.28287 0.0
H543 H 0.8535 0.1349 0.30263 0.0
H544 H 0.73726 0.20448 0.27063 0.0
H545 H 0.78578 0.18815 0.27763 0.0
C546 C 0.06203 0.41397 0.54768 0.0
C547 C 0.05594 0.43878 0.54018 0.0
C548 C 0.05007 0.38732 0.54405 0.0
C549 C -0.0107 0.35563 0.52433 0.0
H550 H 0.03144 0.28428 0.53061 0.0
C551 C 0.97922 0.2244 0.51372 0.0
C552 C 0.94951 0.22052 0.51651 0.0
C553 C -0.00762 0.25118 0.51584 0.0
C554 C 0.01942 0.30396 0.52862 0.0
H555 H 0.03341 0.45482 0.52268 0.0
H556 H 0.0133 0.40817 0.51608 0.0
H557 H 0.05515 0.33018 0.53496 0.0
H558 H 0.91024 0.24173 0.52369 0.0
H559 H 0.93336 0.28834 0.5278 0.0
H560 H 0.95389 0.32938 0.51758 0.0
C561 C 0.02665 0.40942 0.525 0.0
C562 C 0.03292 0.33037 0.53131 0.0
C563 C 0.03839 0.43615 0.52872 0.0
C564 C 0.93316 0.24409 0.52139 0.0
C565 C 0.94642 0.27086 0.52367 0.0
C566 C 0.97587 0.3292 0.52152 0.0
C567 C 0.03195 0.38472 0.53274 0.0
C568 C 0.01799 0.35658 0.5293 0.0
C569 C 0.97626 0.27473 0.52098 0.0
C570 C -0.00931 0.30299 0.5237 0.0
H571 H 0.07529 0.41526 0.55663 0.0
H572 H 0.05433 0.36895 0.55038 0.0
H573 H 0.97692 0.37531 0.52282 0.0
H574 H -0.00763 0.20672 0.50983 0.0
H575 H 0.01521 0.25342 0.51337 0.0
C576 C 0.60581 0.08604 0.44797 0.0
C577 C 0.59385 0.11163 0.44282 0.0
C578 C 0.63283 0.0863 0.45443 0.0
C579 C 0.6858 0.13451 0.47127 0.0
H580 H 0.7404 0.07258 0.46314 0.0
C581 C 0.8067 0.13617 0.48839 0.0
C582 C 0.81872 0.10991 0.49278 0.0
C583 C 0.77888 0.13699 0.48263 0.0
C584 C 0.7253 0.08986 0.46565 0.0
H585 H 0.60076 0.15766 0.4406 0.0
H586 H 0.64798 0.15803 0.45179 0.0
H587 H 0.69253 0.07273 0.45263 0.0
H588 H 0.81054 0.06401 0.49479 0.0
H589 H 0.76215 0.06554 0.48493 0.0
H590 H 0.7187 0.15165 0.48429 0.0
C591 C 0.63634 0.13781 0.45094 0.0
C592 C 0.69783 0.08993 0.45962 0.0
C593 C 0.60933 0.13755 0.44446 0.0
C594 C 0.8021 0.08461 0.49145 0.0
C595 C 0.77437 0.08543 0.48571 0.0
C596 C 0.71332 0.13443 0.47732 0.0
C597 C 0.64852 0.11215 0.45591 0.0
C598 C 0.67771 0.1122 0.46238 0.0
C599 C 0.7625 0.11156 0.48112 0.0
C600 C 0.73335 0.11203 0.47461 0.0
H601 H 0.59441 0.06572 0.44693 0.0
H602 H 0.6414 0.06623 0.45832 0.0
H603 H 0.67068 0.15182 0.47372 0.0
H604 H 0.8189 0.15606 0.48925 0.0
H605 H 0.77047 0.15743 0.4791 0.0
C606 C 0.02131 0.09015 0.70376 0.0
C607 C 0.04875 0.08044 0.69929 0.0
C608 C 0.01783 0.11802 0.70906 0.0
C609 C 0.05327 0.18963 0.7089 0.0
H610 H 0.00063 0.20693 0.73826 0.0
C611 C 0.05213 0.30001 0.7355 0.0
C612 C 0.02489 0.31303 0.73805 0.0
C613 C 0.05399 0.2714 0.73107 0.0
C614 C 0.01518 0.20242 0.72997 0.0
H615 H 0.09427 0.09196 0.6974 0.0
H616 H 0.08839 0.14025 0.70695 0.0
H617 H 0.00656 0.15703 0.73043 0.0
H618 H 0.97822 0.30584 0.73817 0.0
H619 H 0.98156 0.25552 0.73045 0.0
H620 H 0.06217 0.2349 0.70855 0.0
C621 C 0.06936 0.12664 0.70604 0.0
C622 C 0.01859 0.17386 0.72547 0.0
C623 C 0.0728 0.09885 0.70065 0.0
C624 C -0.00047 0.2965 0.73626 0.0
C625 C 0.00143 0.26767 0.73191 0.0
C626 C 0.05 0.21806 0.71344 0.0
C627 C 0.04175 0.13678 0.71009 0.0
C628 C 0.03784 0.16709 0.71493 0.0
C629 C 0.0287 0.25495 0.72914 0.0
C630 C 0.03109 0.22477 0.72408 0.0
H631 H 0.00229 0.07653 0.7028 0.0
H632 H -0.00379 0.12516 0.71196 0.0
H633 H 0.06771 0.18538 0.70055 0.0
H634 H 0.07216 0.31199 0.73679 0.0
H635 H 0.07533 0.26208 0.72921 0.0
C636 C 0.01715 0.54239 0.93557 0.0
C637 C 0.04441 0.53151 0.93957 0.0
C638 C -0.00808 0.53529 0.94257 0.0
C639 C 0.96561 0.51308 0.97526 0.0
H640 H 0.89616 0.49059 0.95568 0.0
C641 C 0.83935 0.47417 -0.01449 0.0
C642 C 0.82997 0.49684 -0.00605 0.0
C643 C 0.86704 0.47485 0.97966 0.0
C644 C 0.91546 0.49651 0.96129 0.0
H645 H 0.06662 0.50491 0.95417 0.0
H646 H 0.02245 0.49294 0.96655 0.0
H647 H 0.94153 0.499 0.9436 0.0
H648 H 0.84279 0.53722 0.00341 0.0
H649 H 0.8911 0.53815 -0.00664 0.0
H650 H 0.9393 0.51129 -0.00708 0.0
C651 C 0.0207 0.50684 0.95794 0.0
C652 C 0.94133 0.5016 0.95437 0.0
C653 C 0.04593 0.51363 0.95083 0.0
C654 C 0.8493 0.51949 -0.0031 0.0
C655 C 0.87706 0.51995 -0.00879 0.0
C656 C 0.93963 0.50834 0.98217 0.0
C657 C -0.00658 0.51744 0.95382 0.0
C658 C 0.96655 0.51027 0.96127 0.0
C659 C 0.886 0.49795 0.98233 0.0
C660 C 0.91422 0.50032 0.97523 0.0
H661 H 0.0152 0.55615 0.92693 0.0
H662 H 0.97121 0.54405 0.93927 0.0
H663 H -0.01529 0.51986 0.98081 0.0
H664 H 0.82495 0.45645 0.98303 0.0
H665 H 0.87349 0.45752 0.97291 0.0
C666 C 0.61211 0.52507 0.20459 0.0
C667 C 0.58408 0.53046 0.19943 0.0
C668 C 0.61788 0.5001 0.21189 0.0
C669 C 0.58301 0.44188 0.23102 0.0
H670 H 0.65198 0.39777 0.22124 0.0
C671 C 0.59877 0.3224 0.24523 0.0
C672 C 0.62706 0.31177 0.24757 0.0
C673 C 0.59433 0.35086 0.24116 0.0
C674 C 0.63293 0.41002 0.22431 0.0
H675 H 0.53995 0.51413 0.19824 0.0
H676 H 0.55002 0.47054 0.21102 0.0
H677 H 0.64255 0.44406 0.21073 0.0
H678 H 0.67279 0.32318 0.24809 0.0
H679 H 0.66502 0.37313 0.24126 0.0
H680 H 0.57328 0.4078 0.24456 0.0
C681 C 0.56751 0.48573 0.20944 0.0
C682 C 0.62747 0.43657 0.21824 0.0
C683 C 0.56178 0.51064 0.20205 0.0
C684 C 0.65073 0.33066 0.24631 0.0
C685 C 0.64628 0.35923 0.24229 0.0
C686 C 0.58856 0.4154 0.23717 0.0
C687 C 0.59572 0.48 0.2143 0.0
C688 C 0.60227 0.45263 0.22139 0.0
C689 C 0.61805 0.36953 0.23938 0.0
C690 C 0.61339 0.39891 0.23376 0.0
H691 H 0.62983 0.53989 0.20279 0.0
H692 H 0.63975 0.49648 0.21562 0.0
H693 H 0.56363 0.45395 0.2338 0.0
H694 H 0.58003 0.30843 0.24607 0.0
H695 H 0.57233 0.35781 0.23887 0.0
C696 C 0.00316 0.98155 0.35941 0.0
C697 C 0.02662 0.97625 0.35067 0.0
C698 C 0.00369 0.97073 0.3724 0.0
C699 C 0.04033 0.92033 0.39548 0.0
H700 H 0.03514 0.98407 0.42083 0.0
C701 C 0.09312 0.91591 0.44779 0.0
C702 C 0.08153 0.93295 0.45822 0.0
C703 C 0.08106 0.91702 0.43496 0.0
C704 C 0.03598 0.96573 0.41404 0.0
H705 H 0.06757 0.95324 0.34825 0.0
H706 H 0.06817 0.93388 0.37084 0.0
H707 H 0.02206 -0.00832 0.39765 0.0
H708 H 0.04704 0.96303 0.46361 0.0
H709 H 0.02518 0.96402 0.44144 0.0
H710 H 0.05441 0.89434 0.41185 0.0
C711 C 0.04955 0.9466 0.3677 0.0
C712 C 0.02851 0.97018 0.40069 0.0
C713 C 0.04924 0.95776 0.35477 0.0
C714 C 0.0567 0.94995 0.45573 0.0
C715 C 0.0443 0.95064 0.44296 0.0
C716 C 0.04739 0.91571 0.40892 0.0
C717 C 0.02742 0.95404 0.37682 0.0
C718 C 0.03121 0.94773 0.39122 0.0
C719 C 0.05679 0.93483 0.4323 0.0
C720 C 0.046 0.93855 0.41833 0.0
H721 H -0.01456 -0.00422 0.35657 0.0
H722 H -0.01376 0.97657 0.37921 0.0
H723 H 0.04246 0.90261 0.38838 0.0
H724 H 0.11234 0.90268 0.44938 0.0
H725 H 0.09163 0.90482 0.42703 0.0
C726 C 0.16836 0.52826 0.59678 0.0
C727 C 0.15977 0.49955 0.59446 0.0
C728 C 0.18243 0.53607 0.60864 0.0
C729 C 0.18885 0.5106 0.64344 0.0
H730 H 0.23538 0.5798 0.64713 0.0
C731 C 0.1954 0.57249 0.69331 0.0
C732 C 0.22071 0.58789 0.69659 0.0
C733 C 0.19253 0.55919 0.68079 0.0
C734 C 0.22284 0.56013 0.64635 0.0
H735 H 0.16174 0.45604 0.60219 0.0
H736 H 0.18757 0.46939 0.62264 0.0
H737 H 0.2258 0.5599 0.62503 0.0
H738 H 0.26318 0.60093 0.68948 0.0
H739 H 0.25871 0.57679 0.66779 0.0
H740 H 0.18667 0.51025 0.66475 0.0
C741 C 0.18232 0.48616 0.61555 0.0
C742 C 0.21695 0.54891 0.6336 0.0
C743 C 0.16777 0.47841 0.60376 0.0
C744 C 0.2433 0.58939 0.68717 0.0
C745 C 0.24065 0.57564 0.67471 0.0
C746 C 0.19518 0.5215 0.65618 0.0
C747 C 0.18876 0.51529 0.61841 0.0
C748 C 0.19909 0.52452 0.63194 0.0
C749 C 0.21512 0.56049 0.6713 0.0
C750 C 0.21146 0.54695 0.65781 0.0
H751 H 0.16253 0.54513 0.58984 0.0
H752 H 0.18666 0.55875 0.61045 0.0
H753 H 0.17481 0.49195 0.64266 0.0
H754 H 0.17753 0.57115 0.70033 0.0
H755 H 0.17224 0.5484 0.67848 0.0
C756 C 0.62743 0.65344 0.85683 0.0
C757 C 0.60506 0.65462 0.84721 0.0
C758 C 0.62347 0.66596 0.86948 0.0
C759 C 0.57733 0.7152 0.88984 0.0
H760 H 0.5892 0.65839 0.91754 0.0
C761 C 0.52107 0.72438 0.94119 0.0
C762 C 0.53515 0.71316 0.95249 0.0
C763 C 0.53331 0.72092 0.92849 0.0
C764 C 0.58631 0.67485 0.91004 0.0
H765 H 0.56219 0.67218 0.84291 0.0
H766 H 0.55548 0.69433 0.86494 0.0
H767 H 0.60536 0.64785 0.8949 0.0
H768 H 0.57363 0.69044 0.95943 0.0
H769 H 0.5955 0.68515 0.93734 0.0
H770 H 0.55813 0.74219 0.90496 0.0
C771 C 0.57595 0.68352 0.86273 0.0
C772 C 0.59557 0.66875 0.89703 0.0
C773 C 0.57976 0.67074 0.85012 0.0
C774 C 0.56211 0.69906 0.95088 0.0
C775 C 0.57457 0.69592 0.9382 0.0
C776 C 0.56837 0.72149 0.90292 0.0
C777 C 0.59727 0.68024 0.8727 0.0
C778 C 0.5907 0.68861 0.88674 0.0
C779 C 0.56014 0.70646 0.9268 0.0
C780 C 0.57219 0.70113 0.91315 0.0
H781 H 0.64725 0.64127 0.85491 0.0
H782 H 0.64042 0.66344 0.87693 0.0
H783 H 0.5735 0.73098 0.88211 0.0
H784 H 0.50021 0.73528 0.94211 0.0
H785 H 0.52125 0.72889 0.91997 0.0
C786 C 0.42525 0.09864 0.09786 0.0
C787 C 0.44384 0.12127 0.09421 0.0
C788 C 0.41631 0.09571 0.11113 0.0
C789 C 0.44749 0.10925 0.14369 0.0
H790 H 0.37454 0.0801 0.15743 0.0
C791 C 0.4402 0.07282 0.19805 0.0
C792 C 0.42441 0.04758 0.20055 0.0
C793 C 0.43763 0.08676 0.1858 0.0
C794 C 0.39514 0.08801 0.15374 0.0
H795 H 0.46498 0.16033 0.10135 0.0
H796 H 0.44944 0.15509 0.12448 0.0
H797 H 0.37723 0.09672 0.13434 0.0
H798 H 0.39284 0.01759 0.19237 0.0
H799 H 0.38935 0.04105 0.17071 0.0
H800 H 0.46611 0.09909 0.16257 0.0
C801 C 0.44212 0.13943 0.11711 0.0
C802 C 0.39657 0.09772 0.14054 0.0
C803 C 0.45088 0.14249 0.10383 0.0
C804 C 0.40524 0.03706 0.19071 0.0
C805 C 0.40312 0.05068 0.17832 0.0
C806 C 0.4462 0.09922 0.15676 0.0
C807 C 0.42591 0.11529 0.121 0.0
C808 C 0.42286 0.10819 0.13536 0.0
C809 C 0.41973 0.07543 0.1756 0.0
C810 C 0.42011 0.08815 0.16196 0.0
H811 H 0.41923 0.08205 0.09067 0.0
H812 H 0.40382 0.07688 0.11383 0.0
H813 H 0.46825 0.11657 0.13989 0.0
H814 H 0.45478 0.08171 0.20554 0.0
H815 H 0.45011 0.10621 0.18428 0.0
C816 C 0.08892 0.55701 0.87244 0.0
C817 C 0.10911 0.56508 0.88236 0.0
C818 C 0.09362 0.56412 0.85909 0.0
C819 C 0.12076 0.56024 0.8317 0.0
H820 H 0.16233 0.62829 0.82031 0.0
C821 C 0.18252 0.56268 0.78186 0.0
C822 C 0.18382 0.58862 0.77473 0.0
C823 C 0.16995 0.562 0.79455 0.0
C824 C 0.15033 0.60933 0.82324 0.0
H825 H 0.14919 0.58841 0.88613 0.0
H826 H 0.15775 0.60021 0.86286 0.0
H827 H 0.14491 0.62543 0.84323 0.0
H828 H 0.1723 0.63412 0.77525 0.0
H829 H 0.1497 0.63281 0.79729 0.0
H830 H 0.12569 0.54432 0.81171 0.0
C831 C 0.13801 0.58879 0.86536 0.0
C832 C 0.14065 0.60753 0.83646 0.0
C833 C 0.13316 0.58193 0.87875 0.0
C834 C 0.1718 0.6138 0.78051 0.0
C835 C 0.15898 0.61308 0.79318 0.0
C836 C 0.13018 0.56215 0.81848 0.0
C837 C 0.11877 0.5792 0.85531 0.0
C838 C 0.12624 0.58272 0.84093 0.0
C839 C 0.15806 0.58719 0.8004 0.0
C840 C 0.14565 0.58644 0.81414 0.0
H841 H 0.07003 0.54422 0.87492 0.0
H842 H 0.07795 0.55699 0.85167 0.0
H843 H 0.11008 0.5406 0.83477 0.0
H844 H 0.19173 0.5429 0.77775 0.0
H845 H 0.17019 0.54179 0.79989 0.0
C846 C 0.5647 0.57053 0.12606 0.0
C847 C 0.55751 0.58978 0.13652 0.0
C848 C 0.55752 0.57706 0.11283 0.0
C849 C 0.56213 0.60737 0.08632 0.0
H850 H 0.49412 0.65182 0.07591 0.0
C851 C 0.56004 0.67425 0.03823 0.0
C852 C 0.53395 0.67622 0.03091 0.0
C853 C 0.56068 0.66071 0.05064 0.0
C854 C 0.51308 0.63909 0.07858 0.0
H855 H 0.53537 0.63009 0.14136 0.0
H856 H 0.52334 0.64169 0.11837 0.0
H857 H 0.49691 0.63187 0.09832 0.0
H858 H 0.48809 0.66504 0.03087 0.0
H859 H 0.48933 0.64099 0.05244 0.0
H860 H 0.5782 0.61431 0.06658 0.0
C861 C 0.53426 0.62138 0.12033 0.0
C862 C 0.51482 0.62791 0.0915 0.0
C863 C 0.54128 0.61476 0.13355 0.0
C864 C 0.50855 0.66403 0.03626 0.0
C865 C 0.50922 0.65036 0.04867 0.0
C866 C 0.56032 0.61841 0.07341 0.0
C867 C 0.54311 0.60307 0.10975 0.0
C868 C 0.53961 0.61232 0.09561 0.0
C869 C 0.53529 0.64861 0.05604 0.0
C870 C 0.53604 0.63488 0.06944 0.0
H871 H 0.57699 0.55097 0.12799 0.0
H872 H 0.56407 0.56212 0.10498 0.0
H873 H 0.58173 0.5958 0.08915 0.0
H874 H 0.58 0.68352 0.03447 0.0
H875 H 0.58104 0.66027 0.05613 0.0
C876 C 0.51355 0.03244 0.37897 0.0
C877 C 0.52649 0.05951 0.3811 0.0
C878 C 0.50568 0.02349 0.36608 0.0
C879 C 0.51557 0.03952 0.33004 0.0
H880 H 0.43963 0.00382 0.32664 0.0
C881 C 0.45513 0.02844 0.27957 0.0
C882 C 0.44054 0.00237 0.27697 0.0
C883 C 0.46721 0.03403 0.29215 0.0
C884 C 0.46105 0.01342 0.32742 0.0
H885 H 0.54188 0.09821 0.37136 0.0
H886 H 0.52773 0.08283 0.34897 0.0
H887 H 0.45872 0.01547 0.34874 0.0
H888 H 0.42731 0.96164 0.28551 0.0
H889 H 0.44846 0.97138 0.30748 0.0
H890 H 0.51755 0.03791 0.30866 0.0
C891 C 0.52419 0.0682 0.35718 0.0
C892 C 0.47204 0.02004 0.3401 0.0
C893 C 0.53228 0.07704 0.37004 0.0
C894 C 0.43835 0.98197 0.28721 0.0
C895 C 0.45035 -0.0124 0.29981 0.0
C896 C 0.50451 0.03296 0.31735 0.0
C897 C 0.51033 0.04152 0.35507 0.0
C898 C 0.49939 0.03328 0.34157 0.0
C899 C 0.46487 0.01371 0.30243 0.0
C900 C 0.47706 0.01996 0.3159 0.0
H901 H 0.50889 0.01844 0.38729 0.0
H902 H 0.49551 0.00259 0.36478 0.0
H903 H 0.53686 0.04937 0.33082 0.0
H904 H 0.45716 0.0446 0.27188 0.0
H905 H 0.47795 0.05449 0.29391 0.0
C906 C 0.08037 0.00128 0.63594 0.0
C907 C 0.09065 0.98129 0.64535 0.0
C908 C 0.08828 -0.00136 0.6225 0.0
C909 C 0.14049 0.96635 0.59892 0.0
H910 H 0.07397 0.95981 0.57515 0.0
C911 C 0.15157 0.92006 0.5454 0.0
C912 C 0.13308 0.93065 0.53538 0.0
C913 C 0.14777 0.92869 0.55872 0.0
C914 C 0.0929 0.96216 0.58153 0.0
H915 H 0.11885 0.94413 0.64822 0.0
H916 H 0.13319 0.93996 0.62474 0.0
H917 H 0.06643 0.97229 0.59857 0.0
H918 H 0.09658 0.95914 0.53132 0.0
H919 H 0.09057 0.97512 0.55444 0.0
H920 H 0.16709 0.95666 0.58191 0.0
C921 C 0.11879 0.95745 0.62778 0.0
C922 C 0.08851 0.96922 0.59498 0.0
C923 C 0.11052 0.9598 0.6412 0.0
C924 C 0.11097 0.95039 0.53887 0.0
C925 C 0.10746 0.95942 0.55216 0.0
C926 C 0.14496 0.95975 0.5854 0.0
C927 C 0.10701 0.97629 0.61826 0.0
C928 C 0.11221 0.97106 0.60383 0.0
C929 C 0.12567 0.94852 0.56229 0.0
C930 C 0.12118 0.95717 0.57655 0.0
H931 H 0.06498 0.01807 0.6388 0.0
H932 H 0.07911 0.01358 0.61535 0.0
H933 H 0.15913 0.96782 0.60555 0.0
H934 H 0.16871 0.90468 0.543 0.0
H935 H 0.16185 0.91933 0.56622 0.0
C936 C 0.681 0.52294 0.86047 0.0
C937 C 0.65323 0.52988 0.85546 0.0
C938 C 0.68485 0.51688 0.87399 0.0
C939 C 0.64793 0.49938 0.90566 0.0
H940 H 0.71051 0.54451 0.92132 0.0
C941 C 0.68927 0.4885 0.96045 0.0
C942 C 0.69626 0.51431 0.96726 0.0
C943 C 0.68119 0.48889 0.94696 0.0
C944 C 0.69284 0.53191 0.91712 0.0
H945 H 0.60739 0.53369 0.86052 0.0
H946 H 0.61421 0.52306 0.88419 0.0
H947 H 0.70246 0.54556 0.8973 0.0
H948 H 0.69888 0.56089 0.96536 0.0
H949 H 0.68486 0.56147 0.94188 0.0
H950 H 0.6383 0.48595 0.92564 0.0
C951 C 0.63296 0.52236 0.87763 0.0
C952 C 0.68847 0.5322 0.90333 0.0
C953 C 0.62908 0.5285 0.86407 0.0
C954 C 0.69382 0.54059 0.96043 0.0
C955 C 0.68593 0.54093 0.94695 0.0
C956 C 0.6525 0.49888 0.9195 0.0
C957 C 0.66105 0.51755 0.8828 0.0
C958 C 0.66597 0.51599 0.89744 0.0
C959 C 0.68014 0.51505 0.94 0.0
C960 C 0.6749 0.51532 0.92537 0.0
H961 H 0.70003 0.52349 0.85409 0.0
H962 H 0.70668 0.51266 0.87765 0.0
H963 H 0.63044 0.48666 0.90137 0.0
H964 H 0.69082 0.46789 0.96542 0.0
H965 H 0.67695 0.4686 0.94185 0.0
C966 C 0.59173 0.16182 0.10644 0.0
C967 C 0.57318 0.13955 0.10214 0.0
C968 C 0.60169 0.16287 0.11963 0.0
C969 C 0.5775 0.14499 0.15272 0.0
H970 H 0.65648 0.16302 0.16363 0.0
C971 C 0.60634 0.16518 0.20817 0.0
C972 C 0.62666 0.18697 0.21099 0.0
C973 C 0.60193 0.15557 0.19503 0.0
C974 C 0.63424 0.15832 0.16076 0.0
H975 H 0.55138 0.10029 0.10808 0.0
H976 H 0.56838 0.10252 0.13128 0.0
H977 H 0.64599 0.15252 0.14015 0.0
H978 H 0.65821 0.2159 0.20232 0.0
H979 H 0.6497 0.20013 0.17938 0.0
H980 H 0.56521 0.15227 0.17305 0.0
C981 C 0.57533 0.11898 0.12438 0.0
C982 C 0.62834 0.15208 0.14733 0.0
C983 C 0.56579 0.11763 0.11111 0.0
C984 C 0.64251 0.19894 0.20045 0.0
C985 C 0.63779 0.18967 0.18729 0.0
C986 C 0.58327 0.15167 0.16611 0.0
C987 C 0.59288 0.14194 0.12881 0.0
C988 C 0.59986 0.14565 0.14318 0.0
C989 C 0.61741 0.16787 0.18439 0.0
C990 C 0.61167 0.15879 0.17029 0.0
H991 H 0.59778 0.17897 0.09973 0.0
H992 H 0.61504 0.18089 0.12282 0.0
H993 H 0.55525 0.14052 0.14973 0.0
H994 H 0.594 0.15536 0.21613 0.0
H995 H 0.58645 0.13839 0.19325 0.0
C996 C 0.03457 0.08945 0.36841 0.0
C997 C 0.00987 0.09576 0.36061 0.0
C998 C 0.03408 0.09401 0.38226 0.0
C999 C -0.00843 0.12909 0.40977 0.0
H1000 H 0.01799 0.06356 0.43043 0.0
C1001 C 0.96313 0.0728 0.4629 0.0
C1002 C 0.95994 0.09754 0.47103 0.0
C1003 C 0.97514 0.0748 0.45011 0.0
C1004 C 0.01049 0.08204 0.42481 0.0
H1005 H 0.96607 0.11359 0.36109 0.0
H1006 H 0.96515 0.12141 0.38511 0.0
H1007 H 0.02786 0.06492 0.40652 0.0
H1008 H 0.96843 0.14354 0.4724 0.0
H1009 H -0.01006 0.1469 0.45024 0.0
H1010 H 0.97263 0.1454 0.42783 0.0
C1011 C -0.01502 0.11307 0.38061 0.0
C1012 C 0.01652 0.08303 0.41113 0.0
C1013 C -0.01456 0.10842 0.36682 0.0
C1014 C 0.97025 0.12409 0.46633 0.0
C1015 C 0.98248 0.12606 0.45359 0.0
C1016 C -0.01458 0.12805 0.42342 0.0
C1017 C 0.00896 0.10516 0.38856 0.0
C1018 C 0.00649 0.10624 0.40338 0.0
C1019 C -0.01552 0.10156 0.44519 0.0
C1020 C -0.0058 0.10419 0.43106 0.0
H1021 H 0.05374 0.07963 0.36392 0.0
H1022 H 0.05305 0.08806 0.38809 0.0
H1023 H 0.98386 0.14746 0.40413 0.0
H1024 H 0.95538 0.05201 0.4662 0.0
H1025 H 0.97597 0.05553 0.44389 0.0
C1026 C 0.03918 0.51776 0.60749 0.0
C1027 C 0.03817 0.49276 0.5994 0.0
C1028 C 0.0325 0.5164 0.62111 0.0
C1029 C 0.04165 0.50116 0.65028 0.0
H1030 H -0.01519 0.44841 0.66476 0.0
C1031 C 0.05219 0.45379 0.703 0.0
C1032 C 0.02683 0.44813 0.71037 0.0
C1033 C 0.05033 0.46361 0.68987 0.0
C1034 C 0.00051 0.4636 0.66094 0.0
H1035 H 0.0275 0.44717 0.5991 0.0
H1036 H 0.01622 0.44474 0.62275 0.0
H1037 H -0.01519 0.45833 0.64091 0.0
H1038 H 0.97956 0.44941 0.70982 0.0
H1039 H 0.97634 0.46695 0.68697 0.0
H1040 H 0.05738 0.5064 0.6703 0.0
C1041 C 0.02194 0.46548 0.61863 0.0
C1042 C 0.00071 0.46904 0.64722 0.0
C1043 C 0.02859 0.46683 0.60504 0.0
C1044 C -0.00045 0.45336 0.70441 0.0
C1045 C -0.00231 0.46329 0.69128 0.0
C1046 C 0.04139 0.4958 0.664 0.0
C1047 C 0.02462 0.49004 0.62692 0.0
C1048 C 0.02172 0.48735 0.64168 0.0
C1049 C 0.02306 0.46816 0.68378 0.0
C1050 C 0.02126 0.47642 0.66946 0.0
H1051 H 0.04638 0.53812 0.60345 0.0
H1052 H 0.03431 0.53584 0.62717 0.0
H1053 H 0.05832 0.51518 0.64637 0.0
H1054 H 0.07357 0.44995 0.70725 0.0
H1055 H 0.07034 0.46671 0.68436 0.0
C1056 C 0.46916 0.14661 0.38132 0.0
C1057 C 0.48959 0.14703 0.3918 0.0
C1058 C 0.47648 0.15718 0.36874 0.0
C1059 C 0.5058 0.15532 0.34185 0.0
H1060 H 0.56268 0.21507 0.33531 0.0
C1061 C 0.57429 0.15502 0.29405 0.0
C1062 C 0.58257 0.18131 0.28833 0.0
C1063 C 0.56003 0.15456 0.30634 0.0
C1064 C 0.54643 0.19859 0.33688 0.0
H1065 H 0.53289 0.16112 0.39756 0.0
H1066 H 0.54589 0.17876 0.37563 0.0
H1067 H 0.54135 0.21065 0.35747 0.0
H1068 H 0.58196 0.22785 0.29101 0.0
H1069 H 0.5563 0.22711 0.3124 0.0
H1070 H 0.51039 0.14353 0.32127 0.0
C1071 C 0.52405 0.17067 0.37709 0.0
C1072 C 0.53445 0.19583 0.34966 0.0
C1073 C 0.51659 0.16046 0.38972 0.0
C1074 C 0.57599 0.20721 0.29517 0.0
C1075 C 0.5614 0.20677 0.30747 0.0
C1076 C 0.51749 0.15829 0.32907 0.0
C1077 C 0.50451 0.16809 0.3663 0.0
C1078 C 0.51445 0.17373 0.35239 0.0
C1079 C 0.55328 0.1804 0.31322 0.0
C1080 C 0.53854 0.17946 0.32648 0.0
H1081 H 0.44806 0.13668 0.38263 0.0
H1082 H 0.46056 0.1556 0.36077 0.0
H1083 H 0.49082 0.13775 0.34354 0.0
H1084 H 0.57924 0.13462 0.28913 0.0
H1085 H 0.55482 0.13379 0.31057 0.0
C1086 C 0.95388 -0.00192 0.64534 0.0
C1087 C 0.96012 0.02155 0.65389 0.0
C1088 C 0.94066 0.00268 0.63291 0.0
C1089 C 0.93727 0.02128 0.60399 0.0
H1090 H 0.88808 0.08768 0.5969 0.0
C1091 C 0.93633 0.07613 0.5527 0.0
C1092 C 0.91122 0.09083 0.54844 0.0
C1093 C 0.93745 0.06384 0.56539 0.0
C1094 C 0.90138 0.06869 0.59861 0.0
H1095 H 0.9552 0.06789 0.65655 0.0
H1096 H 0.93317 0.07596 0.63496 0.0
H1097 H 0.8951 0.07205 0.61972 0.0
H1098 H 0.86712 0.10314 0.55385 0.0
H1099 H 0.86855 0.08074 0.57575 0.0
H1100 H 0.94296 0.01746 0.58285 0.0
C1101 C 0.93797 0.05393 0.63777 0.0
C1102 C 0.90577 0.05995 0.61178 0.0
C1103 C 0.95089 0.04931 0.65019 0.0
C1104 C 0.88692 0.09223 0.55694 0.0
C1105 C 0.88783 0.07949 0.56954 0.0
C1106 C 0.93249 0.02971 0.59079 0.0
C1107 C 0.93357 0.03083 0.62875 0.0
C1108 C 0.9246 0.03677 0.6147 0.0
C1109 C 0.91328 0.06551 0.57405 0.0
C1110 C 0.91527 0.05414 0.58793 0.0
H1111 H 0.96052 0.97637 0.64794 0.0
H1112 H 0.93699 0.98427 0.62637 0.0
H1113 H 0.95206 0.00343 0.60578 0.0
H1114 H 0.95544 0.07481 0.54637 0.0
H1115 H 0.95766 0.05382 0.56854 0.0
C1116 C 0.13943 0.46601 0.88396 0.0
C1117 C 0.12067 0.45802 0.89439 0.0
C1118 C 0.13387 0.45707 0.87083 0.0
C1119 C 0.09128 0.4069 0.84959 0.0
H1120 H 0.08678 0.47164 0.82538 0.0
C1121 C 0.02562 0.4013 0.80062 0.0
C1122 C 0.03584 0.41613 0.7894 0.0
C1123 C 0.03946 0.40434 0.81298 0.0
C1124 C 0.08843 0.45316 0.83189 0.0
H1125 H 0.08292 0.43233 0.89936 0.0
H1126 H 0.07353 0.41636 0.87644 0.0
H1127 H 0.10641 0.47876 0.84777 0.0
H1128 H 0.06892 0.44544 0.78229 0.0
H1129 H 0.09352 0.45034 0.80385 0.0
H1130 H 0.0731 0.38131 0.83376 0.0
C1131 C 0.09237 0.42973 0.87842 0.0
C1132 C 0.09969 0.45726 0.84474 0.0
C1133 C 0.09774 0.43891 0.89155 0.0
C1134 C 0.0604 0.43389 0.79078 0.0
C1135 C 0.07443 0.43677 0.80315 0.0
C1136 C 0.08024 0.40272 0.83669 0.0
C1137 C 0.1097 0.43966 0.86787 0.0
C1138 C 0.10079 0.43429 0.8538 0.0
C1139 C 0.06406 0.4221 0.81443 0.0
C1140 C 0.07814 0.42593 0.82775 0.0
H1141 H 0.15732 0.48071 0.88577 0.0
H1142 H 0.14782 0.46471 0.8629 0.0
H1143 H 0.09213 0.38876 0.85633 0.0
H1144 H 0.00665 0.38755 0.79989 0.0
H1145 H 0.03047 0.39317 0.82147 0.0
C1146 C 0.68106 0.55649 0.14833 0.0
C1147 C 0.6718 0.58451 0.15186 0.0
C1148 C 0.69456 0.55112 0.13606 0.0
C1149 C 0.72836 0.54368 0.1105 0.0
H1150 H 0.69434 0.586 0.08109 0.0
C1151 C 0.75327 0.51176 0.05575 0.0
C1152 C 0.73005 0.51353 0.04664 0.0
C1153 C 0.75081 0.52404 0.06853 0.0
C1154 C 0.70392 0.57377 0.08916 0.0
H1155 H 0.67186 0.62933 0.14581 0.0
H1156 H 0.69655 0.62016 0.12459 0.0
H1157 H 0.68305 0.6004 0.10387 0.0
H1158 H 0.68606 0.52948 0.04371 0.0
H1159 H 0.68113 0.54965 0.06613 0.0
H1160 H 0.74736 0.51565 0.09581 0.0
C1161 C 0.69238 0.60211 0.13108 0.0
C1162 C 0.69788 0.58242 0.10229 0.0
C1163 C 0.67848 0.60743 0.14332 0.0
C1164 C 0.70439 0.52794 0.05051 0.0
C1165 C 0.70171 0.53975 0.06336 0.0
C1166 C 0.73399 0.53472 0.09737 0.0
C1167 C 0.69958 0.57371 0.12707 0.0
C1168 C 0.70948 0.56709 0.11316 0.0
C1169 C 0.72485 0.53791 0.07258 0.0
C1170 C 0.72131 0.54925 0.08651 0.0
H1171 H 0.6763 0.53829 0.15466 0.0
H1172 H 0.69941 0.52891 0.13334 0.0
H1173 H 0.73822 0.53169 0.11858 0.0
H1174 H 0.77345 0.50102 0.05298 0.0
H1175 H 0.76932 0.52263 0.07522 0.0
loop_
_geom_bond_atom_site_label_1
_geom_bond_atom_site_label_2
_geom_bond_distance
_geom_bond_site_symmetry_2
_ccdc_geom_bond_type
Mg0 O7 2.141 . S
Mg0 O8 2.048 1_545 S
Mg0 O9 2.048 1_455 S
Mg0 O12 2.141 1_455 S
C1 O2 1.313 . S
C1 O8 1.195 . S
O2 C1 1.313 . S
C3 O4 1.245 . S
C3 O12 1.289 . S
O4 C3 1.245 . S
C5 O6 1.245 . S
C5 O7 1.289 1_565 S
O6 C5 1.245 . S
O7 Mg0 2.141 . S
O7 C5 1.289 1_545 S
O8 Mg0 2.048 1_565 S
O8 C1 1.195 . S
O9 Mg0 2.048 1_655 S
O9 C10 1.195 . S
C10 O9 1.195 . S
C10 O11 1.313 1_545 S
O11 C10 1.313 1_565 S
O12 Mg0 2.141 1_655 S
O12 C3 1.289 . S
Mg13 O20 2.141 . S
Mg13 O21 2.048 . S
Mg13 O22 2.048 . S
Mg13 O25 2.141 . S
C14 O15 1.313 . S
C14 O21 1.195 . S
O15 C14 1.313 . S
C16 O17 1.245 . S
C16 O25 1.289 . S
O17 C16 1.245 . S
C18 O19 1.245 . S
C18 O20 1.289 . S
O19 C18 1.245 . S
O20 Mg13 2.141 . S
O20 C18 1.289 . S
O21 Mg13 2.048 . S
O21 C14 1.195 . S
O22 Mg13 2.048 . S
O22 C23 1.195 . S
C23 O22 1.195 . S
C23 O24 1.313 . S
O24 C23 1.313 . S
O25 Mg13 2.141 . S
O25 C16 1.289 . S
Mg26 O33 2.141 . S
Mg26 O34 2.048 . S
Mg26 O35 2.048 . S
Mg26 O38 2.141 . S
C27 O28 1.313 . S
C27 O34 1.195 . S
O28 C27 1.313 . S
C29 O30 1.245 . S
C29 O38 1.289 . S
O30 C29 1.245 . S
C31 O32 1.245 . S
C31 O33 1.289 . S
O32 C31 1.245 . S
O33 Mg26 2.141 . S
O33 C31 1.289 . S
O34 Mg26 2.048 . S
O34 C27 1.195 . S
O35 Mg26 2.048 . S
O35 C36 1.195 . S
C36 O35 1.195 . S
C36 O37 1.313 . S
O37 C36 1.313 . S
O38 Mg26 2.141 . S
O38 C29 1.289 . S
Mg39 O46 2.141 . S
Mg39 O47 2.048 . S
Mg39 O48 2.048 . S
Mg39 O51 2.141 . S
C40 O41 1.313 . S
C40 O47 1.195 . S
O41 C40 1.313 . S
C42 O43 1.245 . S
C42 O51 1.289 . S
O43 C42 1.245 . S
C44 O45 1.245 . S
C44 O46 1.289 . S
O45 C44 1.245 . S
O46 Mg39 2.141 . S
O46 C44 1.289 . S
O47 Mg39 2.048 . S
O47 C40 1.195 . S
O48 Mg39 2.048 . S
O48 C49 1.195 . S
C49 O48 1.195 . S
C49 O50 1.313 . S
O50 C49 1.313 . S
O51 Mg39 2.141 . S
O51 C42 1.289 . S
Mg52 O59 2.141 . S
Mg52 O60 2.048 . S
Mg52 O61 2.048 . S
Mg52 O64 2.141 . S
C53 O54 1.313 . S
C53 O60 1.195 . S
O54 C53 1.313 . S
C55 O56 1.245 . S
C55 O64 1.289 . S
O56 C55 1.245 . S
C57 O58 1.245 . S
C57 O59 1.289 . S
O58 C57 1.245 . S
O59 Mg52 2.141 . S
O59 C57 1.289 . S
O60 Mg52 2.048 . S
O60 C53 1.195 . S
O61 Mg52 2.048 . S
O61 C62 1.195 . S
C62 O61 1.195 . S
C62 O63 1.313 . S
O63 C62 1.313 . S
O64 Mg52 2.141 . S
O64 C55 1.289 . S
Mg65 O72 2.141 . S
Mg65 O73 2.048 . S
Mg65 O74 2.048 . S
Mg65 O77 2.141 . S
C66 O67 1.313 . S
C66 O73 1.195 . S
O67 C66 1.313 . S
C68 O69 1.245 . S
C68 O77 1.289 . S
O69 C68 1.245 . S
C70 O71 1.245 . S
C70 O72 1.289 . S
O71 C70 1.245 . S
O72 Mg65 2.141 . S
O72 C70 1.289 . S
O73 Mg65 2.048 . S
O73 C66 1.195 . S
O74 Mg65 2.048 . S
O74 C75 1.195 . S
C75 O74 1.195 . S
C75 O76 1.313 . S
O76 C75 1.313 . S
O77 Mg65 2.141 . S
O77 C68 1.289 . S
Mg78 O85 2.141 . S
Mg78 O86 2.048 . S
Mg78 O87 2.048 . S
Mg78 O90 2.141 . S
C79 O80 1.313 . S
C79 O86 1.195 . S
O80 C79 1.313 . S
C81 O82 1.245 . S
C81 O90 1.289 . S
O82 C81 1.245 . S
C83 O84 1.245 . S
C83 O85 1.289 . S
O84 C83 1.245 . S
O85 Mg78 2.141 . S
O85 C83 1.289 . S
O86 Mg78 2.048 . S
O86 C79 1.195 . S
O87 Mg78 2.048 . S
O87 C88 1.195 . S
C88 O87 1.195 . S
C88 O89 1.313 . S
O89 C88 1.313 . S
O90 Mg78 2.141 . S
O90 C81 1.289 . S
Mg91 O98 2.141 . S
Mg91 O99 2.048 . S
Mg91 O100 2.048 1_465 S
Mg91 O103 2.141 1_465 S
C92 O93 1.313 . S
C92 O99 1.195 . S
O93 C92 1.313 . S
C94 O95 1.245 1_655 S
C94 O103 1.289 . S
O95 C94 1.245 1_455 S
C96 O97 1.245 . S
C96 O98 1.289 . S
O97 C96 1.245 . S
O98 Mg91 2.141 . S
O98 C96 1.289 . S
O99 Mg91 2.048 . S
O99 C92 1.195 . S
O100 Mg91 2.048 1_645 S
O100 C101 1.195 . S
C101 O100 1.195 . S
C101 O102 1.313 1_655 S
O102 C101 1.313 1_455 S
O103 Mg91 2.141 1_645 S
O103 C94 1.289 . S
C104 O105 1.306 . S
C104 O107 1.160 . S
O105 C104 1.306 . S
O105 Cd106 2.228 . S
Cd106 O105 2.228 . S
Cd106 O110 2.273 1_554 S
Cd106 O114 2.277 . S
O107 C104 1.160 . S
O107 Cd108 2.203 . S
Cd108 O107 2.203 . S
Cd108 O110 2.411 1_554 S
Cd108 O111 2.333 1_554 S
Cd108 O112 2.352 1_554 S
Cd108 O116 2.277 . S
Cd108 O117 2.356 1_554 S
C109 O114 1.209 . S
C109 O116 1.226 . S
O110 Cd106 2.273 1_556 S
O110 Cd108 2.411 1_556 S
O110 C113 1.320 . S
O111 Cd108 2.333 1_556 S
O111 C113 1.214 . S
O112 Cd108 2.352 1_556 S
O112 C115 1.258 . S
C113 O110 1.320 . S
C113 O111 1.214 . S
O114 Cd106 2.277 . S
O114 C109 1.209 . S
C115 O112 1.258 . S
C115 O117 1.282 . S
O116 Cd108 2.277 . S
O116 C109 1.226 . S
O117 Cd108 2.356 1_556 S
O117 C115 1.282 . S
C118 O119 1.306 . S
C118 O121 1.160 . S
O119 C118 1.306 . S
O119 Cd120 2.228 . S
Cd120 O119 2.228 . S
Cd120 O124 2.273 . S
Cd120 O128 2.277 . S
O121 C118 1.160 . S
O121 Cd122 2.203 . S
Cd122 O121 2.203 . S
Cd122 O124 2.411 . S
Cd122 O125 2.333 . S
Cd122 O126 2.352 . S
Cd122 O130 2.277 . S
Cd122 O131 2.356 . S
C123 O128 1.209 . S
C123 O130 1.226 . S
O124 Cd120 2.273 . S
O124 Cd122 2.411 . S
O124 C127 1.320 . S
O125 Cd122 2.333 . S
O125 C127 1.214 . S
O126 Cd122 2.352 . S
O126 C129 1.258 . S
C127 O124 1.320 . S
C127 O125 1.214 . S
O128 Cd120 2.277 . S
O128 C123 1.209 . S
C129 O126 1.258 . S
C129 O131 1.282 . S
O130 Cd122 2.277 . S
O130 C123 1.226 . S
O131 Cd122 2.356 . S
O131 C129 1.282 . S
C132 O133 1.306 . S
C132 O135 1.160 . S
O133 C132 1.306 . S
O133 Cd134 2.228 . S
Cd134 O133 2.228 . S
Cd134 O138 2.273 . S
Cd134 O142 2.277 . S
O135 C132 1.160 . S
O135 Cd136 2.203 . S
Cd136 O135 2.203 . S
Cd136 O138 2.411 . S
Cd136 O139 2.333 . S
Cd136 O140 2.352 . S
Cd136 O144 2.277 . S
Cd136 O145 2.356 . S
C137 O142 1.209 . S
C137 O144 1.226 . S
O138 Cd134 2.273 . S
O138 Cd136 2.411 . S
O138 C141 1.320 . S
O139 Cd136 2.333 . S
O139 C141 1.214 . S
O140 Cd136 2.352 . S
O140 C143 1.258 . S
C141 O138 1.320 . S
C141 O139 1.214 . S
O142 Cd134 2.277 . S
O142 C137 1.209 . S
C143 O140 1.258 . S
C143 O145 1.282 . S
O144 Cd136 2.277 . S
O144 C137 1.226 . S
O145 Cd136 2.356 . S
O145 C143 1.282 . S
C146 O147 1.306 . S
C146 O149 1.160 . S
O147 C146 1.306 . S
O147 Cd148 2.228 . S
Cd148 O147 2.228 . S
Cd148 O152 2.273 . S
Cd148 O156 2.277 . S
O149 C146 1.160 . S
O149 Cd150 2.203 . S
Cd150 O149 2.203 . S
Cd150 O152 2.411 . S
Cd150 O153 2.333 . S
Cd150 O154 2.352 . S
Cd150 O158 2.277 . S
Cd150 O159 2.356 . S
C151 O156 1.209 . S
C151 O158 1.226 . S
O152 Cd148 2.273 . S
O152 Cd150 2.411 . S
O152 C155 1.320 . S
O153 Cd150 2.333 . S
O153 C155 1.214 . S
O154 Cd150 2.352 . S
O154 C157 1.258 . S
C155 O152 1.320 . S
C155 O153 1.214 . S
O156 Cd148 2.277 . S
O156 C151 1.209 . S
C157 O154 1.258 . S
C157 O159 1.282 . S
O158 Cd150 2.277 . S
O158 C151 1.226 . S
O159 Cd150 2.356 . S
O159 C157 1.282 . S
C160 O161 1.306 . S
C160 O163 1.160 . S
O161 C160 1.306 . S
O161 Cd162 2.228 . S
Cd162 O161 2.228 . S
Cd162 O166 2.273 . S
Cd162 O170 2.277 . S
O163 C160 1.160 . S
O163 Cd164 2.203 . S
Cd164 O163 2.203 . S
Cd164 O166 2.411 . S
Cd164 O167 2.333 . S
Cd164 O168 2.352 . S
Cd164 O172 2.277 . S
Cd164 O173 2.356 . S
C165 O170 1.209 . S
C165 O172 1.226 . S
O166 Cd162 2.273 . S
O166 Cd164 2.411 . S
O166 C169 1.320 . S
O167 Cd164 2.333 . S
O167 C169 1.214 . S
O168 Cd164 2.352 . S
O168 C171 1.258 . S
C169 O166 1.320 . S
C169 O167 1.214 . S
O170 Cd162 2.277 . S
O170 C165 1.209 . S
C171 O168 1.258 . S
C171 O173 1.282 . S
O172 Cd164 2.277 . S
O172 C165 1.226 . S
O173 Cd164 2.356 . S
O173 C171 1.282 . S
C174 O175 1.306 . S
C174 O177 1.160 . S
O175 C174 1.306 . S
O175 Cd176 2.228 1_655 S
Cd176 O175 2.228 1_455 S
Cd176 O180 2.273 1_455 S
Cd176 O184 2.277 1_455 S
O177 C174 1.160 . S
O177 Cd178 2.203 . S
Cd178 O177 2.203 . S
Cd178 O180 2.411 . S
Cd178 O181 2.333 . S
Cd178 O182 2.352 . S
Cd178 O186 2.277 . S
Cd178 O187 2.356 . S
C179 O184 1.209 . S
C179 O186 1.226 . S
O180 Cd176 2.273 1_655 S
O180 Cd178 2.411 . S
O180 C183 1.320 . S
O181 Cd178 2.333 . S
O181 C183 1.214 . S
O182 Cd178 2.352 . S
O182 C185 1.258 . S
C183 O180 1.320 . S
C183 O181 1.214 . S
O184 Cd176 2.277 1_655 S
O184 C179 1.209 . S
C185 O182 1.258 . S
C185 O187 1.282 . S
O186 Cd178 2.277 . S
O186 C179 1.226 . S
O187 Cd178 2.356 . S
O187 C185 1.282 . S
C188 O189 1.314 . S
C188 O191 1.160 . S
O189 C188 1.314 . S
O189 Cd190 2.216 1_556 S
Cd190 O189 2.216 1_554 S
Cd190 O194 2.273 . S
Cd190 O198 2.277 . S
O191 C188 1.160 . S
O191 Cd192 2.203 1_556 S
Cd192 O191 2.203 1_554 S
Cd192 O194 2.411 . S
Cd192 O195 2.333 . S
Cd192 O196 2.352 . S
Cd192 O200 2.277 . S
Cd192 O201 2.356 . S
C193 O198 1.209 . S
C193 O200 1.226 . S
O194 Cd190 2.273 . S
O194 Cd192 2.411 . S
O194 C197 1.320 . S
O195 Cd192 2.333 . S
O195 C197 1.214 . S
O196 Cd192 2.352 . S
O196 C199 1.258 . S
C197 O194 1.320 . S
C197 O195 1.214 . S
O198 Cd190 2.277 . S
O198 C193 1.209 . S
C199 O196 1.258 . S
C199 O201 1.282 . S
O200 Cd192 2.277 . S
O200 C193 1.226 . S
O201 Cd192 2.356 . S
O201 C199 1.282 . S
C202 O203 1.306 . S
C202 O205 1.160 . S
O203 C202 1.306 . S
O203 Cd204 2.228 . S
Cd204 O203 2.228 . S
Cd204 O208 2.273 . S
Cd204 O212 2.277 . S
O205 C202 1.160 . S
O205 Cd206 2.203 . S
Cd206 O205 2.203 . S
Cd206 O208 2.411 . S
Cd206 O209 2.333 . S
Cd206 O210 2.352 . S
Cd206 O214 2.277 . S
Cd206 O215 2.356 . S
C207 O212 1.209 . S
C207 O214 1.226 . S
O208 Cd204 2.273 . S
O208 Cd206 2.411 . S
O208 C211 1.320 . S
O209 Cd206 2.333 . S
O209 C211 1.214 . S
O210 Cd206 2.352 . S
O210 C213 1.258 . S
C211 O208 1.320 . S
C211 O209 1.214 . S
O212 Cd204 2.277 . S
O212 C207 1.209 . S
C213 O210 1.258 . S
C213 O215 1.282 . S
O214 Cd206 2.277 . S
O214 C207 1.226 . S
O215 Cd206 2.356 . S
O215 C213 1.282 . S
C216 C217 1.349 . S
C216 C218 1.327 . S
C216 H241 0.950 . S
C217 C216 1.349 . S
C217 C233 1.349 . S
C218 C216 1.327 . S
C218 C237 1.429 . S
C218 H242 0.950 . S
C219 C236 1.574 . S
C219 C238 1.368 . S
C219 H243 0.949 . S
H220 C224 0.949 . S
C221 C222 1.349 . S
C221 C223 1.327 . S
C221 H244 0.950 . S
C222 C221 1.349 . S
C222 C234 1.349 . S
C223 C221 1.327 . S
C223 C239 1.429 . S
C223 H245 0.950 . S
C224 H220 0.949 . S
C224 C232 1.574 . S
C224 C240 1.368 . S
H225 C233 0.950 . S
H226 C231 0.950 . S
H227 C232 0.949 . S
H228 C234 0.950 . S
H229 C235 0.950 . S
H230 C236 0.949 . S
C231 H226 0.950 . S
C231 C233 1.327 . S
C231 C237 1.429 . S
C232 C224 1.574 . S
C232 H227 0.949 . S
C232 C238 1.368 . S
C233 C217 1.349 . S
C233 H225 0.950 . S
C233 C231 1.327 . S
C234 C222 1.349 . S
C234 H228 0.950 . S
C234 C235 1.327 . S
C235 H229 0.950 . S
C235 C234 1.327 . S
C235 C239 1.429 . S
C236 C219 1.574 . S
C236 H230 0.949 . S
C236 C240 1.368 . S
C237 C218 1.429 . S
C237 C231 1.429 . S
C237 C238 1.523 . S
C238 C219 1.368 . S
C238 C232 1.368 . S
C238 C237 1.523 . S
C239 C223 1.429 . S
C239 C235 1.429 . S
C239 C240 1.523 . S
C240 C224 1.368 . S
C240 C236 1.368 . S
C240 C239 1.523 . S
H241 C216 0.950 . S
H242 C218 0.950 . S
H243 C219 0.949 . S
H244 C221 0.950 . S
H245 C223 0.950 . S
C246 C247 1.349 . S
C246 C248 1.327 . S
C246 H271 0.950 . S
C247 C246 1.349 . S
C247 C263 1.349 . S
C248 C246 1.327 . S
C248 C267 1.429 . S
C248 H272 0.950 . S
C249 C266 1.574 . S
C249 C268 1.368 . S
C249 H273 0.949 . S
H250 C254 0.949 . S
C251 C252 1.349 . S
C251 C253 1.327 . S
C251 H274 0.950 . S
C252 C251 1.349 . S
C252 C264 1.349 . S
C253 C251 1.327 . S
C253 C269 1.429 . S
C253 H275 0.950 . S
C254 H250 0.949 . S
C254 C262 1.574 . S
C254 C270 1.368 . S
H255 C263 0.950 . S
H256 C261 0.950 . S
H257 C262 0.949 . S
H258 C264 0.950 . S
H259 C265 0.950 . S
H260 C266 0.949 . S
C261 H256 0.950 . S
C261 C263 1.327 . S
C261 C267 1.429 . S
C262 C254 1.574 . S
C262 H257 0.949 . S
C262 C268 1.368 . S
C263 C247 1.349 . S
C263 H255 0.950 . S
C263 C261 1.327 . S
C264 C252 1.349 . S
C264 H258 0.950 . S
C264 C265 1.327 . S
C265 H259 0.950 . S
C265 C264 1.327 . S
C265 C269 1.429 . S
C266 C249 1.574 . S
C266 H260 0.949 . S
C266 C270 1.368 . S
C267 C248 1.429 . S
C267 C261 1.429 . S
C267 C268 1.523 . S
C268 C249 1.368 . S
C268 C262 1.368 . S
C268 C267 1.523 . S
C269 C253 1.429 . S
C269 C265 1.429 . S
C269 C270 1.523 . S
C270 C254 1.368 . S
C270 C266 1.368 . S
C270 C269 1.523 . S
H271 C246 0.950 . S
H272 C248 0.950 . S
H273 C249 0.949 . S
H274 C251 0.950 . S
H275 C253 0.950 . S
C276 C277 1.349 . S
C276 C278 1.327 . S
C276 H301 0.950 . S
C277 C276 1.349 . S
C277 C293 1.349 . S
C278 C276 1.327 . S
C278 C297 1.429 . S
C278 H302 0.950 . S
C279 C296 1.574 . S
C279 C298 1.368 . S
C279 H303 0.949 . S
H280 C284 0.949 . S
C281 C282 1.349 . S
C281 C283 1.327 . S
C281 H304 0.950 . S
C282 C281 1.349 . S
C282 C294 1.349 . S
C283 C281 1.327 . S
C283 C299 1.429 . S
C283 H305 0.950 . S
C284 H280 0.949 . S
C284 C292 1.574 . S
C284 C300 1.368 . S
H285 C293 0.950 . S
H286 C291 0.950 . S
H287 C292 0.949 . S
H288 C294 0.950 . S
H289 C295 0.950 . S
H290 C296 0.949 . S
C291 H286 0.950 . S
C291 C293 1.327 . S
C291 C297 1.429 . S
C292 C284 1.574 . S
C292 H287 0.949 . S
C292 C298 1.368 . S
C293 C277 1.349 . S
C293 H285 0.950 . S
C293 C291 1.327 . S
C294 C282 1.349 . S
C294 H288 0.950 . S
C294 C295 1.327 . S
C295 H289 0.950 . S
C295 C294 1.327 . S
C295 C299 1.429 . S
C296 C279 1.574 . S
C296 H290 0.949 . S
C296 C300 1.368 . S
C297 C278 1.429 . S
C297 C291 1.429 . S
C297 C298 1.523 . S
C298 C279 1.368 . S
C298 C292 1.368 . S
C298 C297 1.523 . S
C299 C283 1.429 . S
C299 C295 1.429 . S
C299 C300 1.523 . S
C300 C284 1.368 . S
C300 C296 1.368 . S
C300 C299 1.523 . S
H301 C276 0.950 . S
H302 C278 0.950 . S
H303 C279 0.949 . S
H304 C281 0.950 . S
H305 C283 0.950 . S
C306 C307 1.349 . S
C306 C308 1.327 . S
C306 H331 0.950 . S
C307 C306 1.349 . S
C307 C323 1.349 . S
C308 C306 1.327 . S
C308 C327 1.429 . S
C308 H332 0.950 . S
C309 C326 1.574 . S
C309 C328 1.368 1_565 S
C309 H333 0.949 . S
H310 C314 0.949 . S
C311 C312 1.349 . S
C311 C313 1.327 . S
C311 H334 0.950 . S
C312 C311 1.349 . S
C312 C324 1.349 . S
C313 C311 1.327 . S
C313 C329 1.429 . S
C313 H335 0.950 . S
C314 H310 0.949 . S
C314 C322 1.574 1_565 S
C314 C330 1.368 . S
H315 C323 0.950 . S
H316 C321 0.950 . S
H317 C322 0.949 . S
H318 C324 0.950 . S
H319 C325 0.950 . S
H320 C326 0.949 . S
C321 H316 0.950 . S
C321 C323 1.327 . S
C321 C327 1.429 . S
C322 C314 1.574 1_545 S
C322 H317 0.949 . S
C322 C328 1.368 . S
C323 C307 1.349 . S
C323 H315 0.950 . S
C323 C321 1.327 . S
C324 C312 1.349 . S
C324 H318 0.950 . S
C324 C325 1.327 . S
C325 H319 0.950 . S
C325 C324 1.327 . S
C325 C329 1.429 . S
C326 C309 1.574 . S
C326 H320 0.949 . S
C326 C330 1.368 . S
C327 C308 1.429 . S
C327 C321 1.429 . S
C327 C328 1.523 . S
C328 C309 1.368 1_545 S
C328 C322 1.368 . S
C328 C327 1.523 . S
C329 C313 1.429 . S
C329 C325 1.429 . S
C329 C330 1.523 . S
C330 C314 1.368 . S
C330 C326 1.368 . S
C330 C329 1.523 . S
H331 C306 0.950 . S
H332 C308 0.950 . S
H333 C309 0.949 . S
H334 C311 0.950 . S
H335 C313 0.950 . S
C336 C337 1.349 . S
C336 C338 1.327 . S
C336 H361 0.950 . S
C337 C336 1.349 . S
C337 C353 1.349 . S
C338 C336 1.327 . S
C338 C357 1.429 . S
C338 H362 0.950 . S
C339 C356 1.574 . S
C339 C358 1.368 . S
C339 H363 0.949 . S
H340 C344 0.949 . S
C341 C342 1.349 . S
C341 C343 1.327 . S
C341 H364 0.950 . S
C342 C341 1.349 . S
C342 C354 1.349 . S
C343 C341 1.327 . S
C343 C359 1.429 . S
C343 H365 0.950 . S
C344 H340 0.949 . S
C344 C352 1.574 . S
C344 C360 1.368 . S
H345 C353 0.950 . S
H346 C351 0.950 . S
H347 C352 0.949 . S
H348 C354 0.950 . S
H349 C355 0.950 . S
H350 C356 0.949 . S
C351 H346 0.950 . S
C351 C353 1.327 . S
C351 C357 1.429 . S
C352 C344 1.574 . S
C352 H347 0.949 . S
C352 C358 1.368 . S
C353 C337 1.349 . S
C353 H345 0.950 . S
C353 C351 1.327 . S
C354 C342 1.349 . S
C354 H348 0.950 . S
C354 C355 1.327 . S
C355 H349 0.950 . S
C355 C354 1.327 . S
C355 C359 1.429 . S
C356 C339 1.574 . S
C356 H350 0.949 . S
C356 C360 1.368 . S
C357 C338 1.429 . S
C357 C351 1.429 . S
C357 C358 1.523 . S
C358 C339 1.368 . S
C358 C352 1.368 . S
C358 C357 1.523 . S
C359 C343 1.429 . S
C359 C355 1.429 . S
C359 C360 1.523 . S
C360 C344 1.368 . S
C360 C356 1.368 . S
C360 C359 1.523 . S
H361 C336 0.950 . S
H362 C338 0.950 . S
H363 C339 0.949 . S
H364 C341 0.950 . S
H365 C343 0.950 . S
C366 C367 1.349 . S
C366 C368 1.327 . S
C366 H391 0.950 . S
C367 C366 1.349 . S
C367 C383 1.349 . S
C368 C366 1.327 . S
C368 C387 1.429 . S
C368 H392 0.950 . S
C369 C386 1.574 . S
C369 C388 1.368 . S
C369 H393 0.949 . S
H370 C374 0.949 . S
C371 C372 1.349 . S
C371 C373 1.327 . S
C371 H394 0.950 . S
C372 C371 1.349 . S
C372 C384 1.349 . S
C373 C371 1.327 . S
C373 C389 1.429 . S
C373 H395 0.950 . S
C374 H370 0.949 . S
C374 C382 1.574 . S
C374 C390 1.368 . S
H375 C383 0.950 . S
H376 C381 0.950 . S
H377 C382 0.949 . S
H378 C384 0.950 . S
H379 C385 0.950 . S
H380 C386 0.949 . S
C381 H376 0.950 . S
C381 C383 1.327 . S
C381 C387 1.429 . S
C382 C374 1.574 . S
C382 H377 0.949 . S
C382 C388 1.368 . S
C383 C367 1.349 . S
C383 H375 0.950 . S
C383 C381 1.327 . S
C384 C372 1.349 . S
C384 H378 0.950 . S
C384 C385 1.327 . S
C385 H379 0.950 . S
C385 C384 1.327 . S
C385 C389 1.429 . S
C386 C369 1.574 . S
C386 H380 0.949 . S
C386 C390 1.368 . S
C387 C368 1.429 . S
C387 C381 1.429 . S
C387 C388 1.523 . S
C388 C369 1.368 . S
C388 C382 1.368 . S
C388 C387 1.523 . S
C389 C373 1.429 . S
C389 C385 1.429 . S
C389 C390 1.523 . S
C390 C374 1.368 . S
C390 C386 1.368 . S
C390 C389 1.523 . S
H391 C366 0.950 . S
H392 C368 0.950 . S
H393 C369 0.949 . S
H394 C371 0.950 . S
H395 C373 0.950 . S
C396 C397 1.349 . S
C396 C398 1.327 . S
C396 H421 0.950 . S
C397 C396 1.349 . S
C397 C413 1.349 . S
C398 C396 1.327 . S
C398 C417 1.429 . S
C398 H422 0.950 . S
C399 C416 1.574 . S
C399 C418 1.368 1_565 S
C399 H423 0.949 . S
H400 C404 0.949 1_545 S
C401 C402 1.349 . S
C401 C403 1.327 . S
C401 H424 0.950 . S
C402 C401 1.349 . S
C402 C414 1.349 . S
C403 C401 1.327 . S
C403 C419 1.429 . S
C403 H425 0.950 . S
C404 H400 0.949 1_565 S
C404 C412 1.573 1_565 S
C404 C420 1.369 . S
H405 C413 0.950 . S
H406 C411 0.950 . S
H407 C412 0.949 . S
H408 C414 0.950 . S
H409 C415 0.950 . S
H410 C416 0.949 . S
C411 H406 0.950 . S
C411 C413 1.327 . S
C411 C417 1.429 . S
C412 C404 1.573 1_545 S
C412 H407 0.949 . S
C412 C418 1.368 . S
C413 C397 1.349 . S
C413 H405 0.950 . S
C413 C411 1.327 . S
C414 C402 1.349 . S
C414 H408 0.950 . S
C414 C415 1.327 . S
C415 H409 0.950 . S
C415 C414 1.327 . S
C415 C419 1.429 . S
C416 C399 1.574 . S
C416 H410 0.949 . S
C416 C420 1.368 . S
C417 C398 1.429 . S
C417 C411 1.429 . S
C417 C418 1.523 . S
C418 C399 1.368 1_545 S
C418 C412 1.368 . S
C418 C417 1.523 . S
C419 C403 1.429 . S
C419 C415 1.429 . S
C419 C420 1.523 . S
C420 C404 1.369 . S
C420 C416 1.368 . S
C420 C419 1.523 . S
H421 C396 0.950 . S
H422 C398 0.950 . S
H423 C399 0.949 . S
H424 C401 0.950 . S
H425 C403 0.950 . S
C426 C427 1.349 . S
C426 C428 1.327 . S
C426 H451 0.950 . S
C427 C426 1.349 . S
C427 C443 1.349 . S
C428 C426 1.327 . S
C428 C447 1.429 . S
C428 H452 0.950 . S
C429 C446 1.574 . S
C429 C448 1.368 . S
C429 H453 0.949 . S
H430 C434 0.949 . S
C431 C432 1.349 . S
C431 C433 1.327 . S
C431 H454 0.950 . S
C432 C431 1.349 . S
C432 C444 1.349 . S
C433 C431 1.327 . S
C433 C449 1.429 . S
C433 H455 0.950 . S
C434 H430 0.949 . S
C434 C442 1.574 . S
C434 C450 1.368 . S
H435 C443 0.950 . S
H436 C441 0.950 . S
H437 C442 0.949 . S
H438 C444 0.950 . S
H439 C445 0.950 . S
H440 C446 0.949 . S
C441 H436 0.950 . S
C441 C443 1.327 . S
C441 C447 1.429 . S
C442 C434 1.574 . S
C442 H437 0.949 . S
C442 C448 1.368 . S
C443 C427 1.349 . S
C443 H435 0.950 . S
C443 C441 1.327 . S
C444 C432 1.349 . S
C444 H438 0.950 . S
C444 C445 1.327 . S
C445 H439 0.950 . S
C445 C444 1.327 . S
C445 C449 1.429 . S
C446 C429 1.574 . S
C446 H440 0.949 . S
C446 C450 1.368 . S
C447 C428 1.429 . S
C447 C441 1.429 . S
C447 C448 1.523 . S
C448 C429 1.368 . S
C448 C442 1.368 . S
C448 C447 1.523 . S
C449 C433 1.429 . S
C449 C445 1.429 . S
C449 C450 1.523 . S
C450 C434 1.368 . S
C450 C446 1.368 . S
C450 C449 1.523 . S
H451 C426 0.950 . S
H452 C428 0.950 . S
H453 C429 0.949 . S
H454 C431 0.950 . S
H455 C433 0.950 . S
C456 C457 1.349 . S
C456 C458 1.327 . S
C456 H481 0.950 . S
C457 C456 1.349 . S
C457 C473 1.349 . S
C458 C456 1.327 . S
C458 C477 1.429 . S
C458 H482 0.950 . S
C459 C476 1.574 . S
C459 C478 1.368 . S
C459 H483 0.949 . S
H460 C464 0.949 . S
C461 C462 1.349 . S
C461 C463 1.327 . S
C461 H484 0.950 . S
C462 C461 1.349 . S
C462 C474 1.349 . S
C463 C461 1.327 . S
C463 C479 1.429 . S
C463 H485 0.950 . S
C464 H460 0.949 . S
C464 C472 1.574 . S
C464 C480 1.368 . S
H465 C473 0.950 . S
H466 C471 0.950 . S
H467 C472 0.949 . S
H468 C474 0.950 . S
H469 C475 0.950 . S
H470 C476 0.949 . S
C471 H466 0.950 . S
C471 C473 1.327 . S
C471 C477 1.429 . S
C472 C464 1.574 . S
C472 H467 0.949 . S
C472 C478 1.368 . S
C473 C457 1.349 . S
C473 H465 0.950 . S
C473 C471 1.327 . S
C474 C462 1.349 . S
C474 H468 0.950 . S
C474 C475 1.327 . S
C475 H469 0.950 . S
C475 C474 1.327 . S
C475 C479 1.429 . S
C476 C459 1.574 . S
C476 H470 0.949 . S
C476 C480 1.368 . S
C477 C458 1.429 . S
C477 C471 1.429 . S
C477 C478 1.523 . S
C478 C459 1.368 . S
C478 C472 1.368 . S
C478 C477 1.523 . S
C479 C463 1.429 . S
C479 C475 1.429 . S
C479 C480 1.523 . S
C480 C464 1.368 . S
C480 C476 1.368 . S
C480 C479 1.523 . S
H481 C456 0.950 . S
H482 C458 0.950 . S
H483 C459 0.949 . S
H484 C461 0.950 . S
H485 C463 0.950 . S
C486 C487 1.349 . S
C486 C488 1.327 . S
C486 H511 0.950 . S
C487 C486 1.349 . S
C487 C503 1.349 . S
C488 C486 1.327 . S
C488 C507 1.429 . S
C488 H512 0.950 . S
C489 C506 1.574 . S
C489 C508 1.368 . S
C489 H513 0.949 . S
H490 C494 0.949 . S
C491 C492 1.349 . S
C491 C493 1.327 . S
C491 H514 0.950 . S
C492 C491 1.349 . S
C492 C504 1.349 . S
C493 C491 1.327 . S
C493 C509 1.429 . S
C493 H515 0.950 . S
C494 H490 0.949 . S
C494 C502 1.574 . S
C494 C510 1.368 . S
H495 C503 0.950 . S
H496 C501 0.950 . S
H497 C502 0.949 . S
H498 C504 0.950 . S
H499 C505 0.950 . S
H500 C506 0.949 . S
C501 H496 0.950 . S
C501 C503 1.327 . S
C501 C507 1.429 . S
C502 C494 1.574 . S
C502 H497 0.949 . S
C502 C508 1.368 . S
C503 C487 1.349 . S
C503 H495 0.950 . S
C503 C501 1.327 . S
C504 C492 1.349 . S
C504 H498 0.950 . S
C504 C505 1.327 . S
C505 H499 0.950 . S
C505 C504 1.327 . S
C505 C509 1.429 . S
C506 C489 1.574 . S
C506 H500 0.949 . S
C506 C510 1.368 . S
C507 C488 1.429 . S
C507 C501 1.429 . S
C507 C508 1.523 . S
C508 C489 1.368 . S
C508 C502 1.368 . S
C508 C507 1.523 . S
C509 C493 1.429 . S
C509 C505 1.429 . S
C509 C510 1.523 . S
C510 C494 1.368 . S
C510 C506 1.368 . S
C510 C509 1.523 . S
H511 C486 0.950 . S
H512 C488 0.950 . S
H513 C489 0.949 . S
H514 C491 0.950 . S
H515 C493 0.950 . S
C516 C517 1.349 . S
C516 C518 1.327 . S
C516 H541 0.950 . S
C517 C516 1.349 . S
C517 C533 1.349 . S
C518 C516 1.327 . S
C518 C537 1.429 . S
C518 H542 0.950 . S
C519 C536 1.574 . S
C519 C538 1.368 . S
C519 H543 0.949 . S
H520 C524 0.949 . S
C521 C522 1.349 . S
C521 C523 1.327 . S
C521 H544 0.950 . S
C522 C521 1.349 . S
C522 C534 1.349 . S
C523 C521 1.327 . S
C523 C539 1.429 . S
C523 H545 0.950 . S
C524 H520 0.949 . S
C524 C532 1.574 . S
C524 C540 1.368 . S
H525 C533 0.950 . S
H526 C531 0.950 . S
H527 C532 0.949 . S
H528 C534 0.950 . S
H529 C535 0.950 . S
H530 C536 0.949 . S
C531 H526 0.950 . S
C531 C533 1.327 . S
C531 C537 1.429 . S
C532 C524 1.574 . S
C532 H527 0.949 . S
C532 C538 1.368 . S
C533 C517 1.349 . S
C533 H525 0.950 . S
C533 C531 1.327 . S
C534 C522 1.349 . S
C534 H528 0.950 . S
C534 C535 1.327 . S
C535 H529 0.950 . S
C535 C534 1.327 . S
C535 C539 1.429 . S
C536 C519 1.574 . S
C536 H530 0.949 . S
C536 C540 1.368 . S
C537 C518 1.429 . S
C537 C531 1.429 . S
C537 C538 1.523 . S
C538 C519 1.368 . S
C538 C532 1.368 . S
C538 C537 1.523 . S
C539 C523 1.429 . S
C539 C535 1.429 . S
C539 C540 1.523 . S
C540 C524 1.368 . S
C540 C536 1.368 . S
C540 C539 1.523 . S
H541 C516 0.950 . S
H542 C518 0.950 . S
H543 C519 0.949 . S
H544 C521 0.950 . S
H545 C523 0.950 . S
C546 C547 1.349 . S
C546 C548 1.327 . S
C546 H571 0.950 . S
C547 C546 1.349 . S
C547 C563 1.349 . S
C548 C546 1.327 . S
C548 C567 1.429 . S
C548 H572 0.950 . S
C549 C566 1.574 . S
C549 C568 1.368 . S
C549 H573 0.949 . S
H550 C554 0.949 . S
C551 C552 1.349 . S
C551 C553 1.327 . S
C551 H574 0.950 . S
C552 C551 1.349 . S
C552 C564 1.349 . S
C553 C551 1.327 . S
C553 C569 1.429 . S
C553 H575 0.950 . S
C554 H550 0.949 . S
C554 C562 1.574 1_655 S
C554 C570 1.368 . S
H555 C563 0.950 . S
H556 C561 0.950 . S
H557 C562 0.949 . S
H558 C564 0.950 . S
H559 C565 0.950 . S
H560 C566 0.949 . S
C561 H556 0.950 . S
C561 C563 1.327 . S
C561 C567 1.429 . S
C562 C554 1.574 1_455 S
C562 H557 0.949 . S
C562 C568 1.368 . S
C563 C547 1.349 . S
C563 H555 0.950 . S
C563 C561 1.327 . S
C564 C552 1.349 . S
C564 H558 0.950 . S
C564 C565 1.327 . S
C565 H559 0.950 . S
C565 C564 1.327 . S
C565 C569 1.429 . S
C566 C549 1.574 . S
C566 H560 0.949 . S
C566 C570 1.368 1_455 S
C567 C548 1.429 . S
C567 C561 1.429 . S
C567 C568 1.523 . S
C568 C549 1.368 . S
C568 C562 1.368 . S
C568 C567 1.523 . S
C569 C553 1.429 . S
C569 C565 1.429 . S
C569 C570 1.523 . S
C570 C554 1.368 . S
C570 C566 1.368 1_655 S
C570 C569 1.523 . S
H571 C546 0.950 . S
H572 C548 0.950 . S
H573 C549 0.949 . S
H574 C551 0.950 . S
H575 C553 0.950 . S
C576 C577 1.349 . S
C576 C578 1.327 . S
C576 H601 0.950 . S
C577 C576 1.349 . S
C577 C593 1.349 . S
C578 C576 1.327 . S
C578 C597 1.429 . S
C578 H602 0.950 . S
C579 C596 1.574 . S
C579 C598 1.368 . S
C579 H603 0.949 . S
H580 C584 0.949 . S
C581 C582 1.349 . S
C581 C583 1.327 . S
C581 H604 0.950 . S
C582 C581 1.349 . S
C582 C594 1.349 . S
C583 C581 1.327 . S
C583 C599 1.429 . S
C583 H605 0.950 . S
C584 H580 0.949 . S
C584 C592 1.574 . S
C584 C600 1.368 . S
H585 C593 0.950 . S
H586 C591 0.950 . S
H587 C592 0.949 . S
H588 C594 0.950 . S
H589 C595 0.950 . S
H590 C596 0.949 . S
C591 H586 0.950 . S
C591 C593 1.327 . S
C591 C597 1.429 . S
C592 C584 1.574 . S
C592 H587 0.949 . S
C592 C598 1.368 . S
C593 C577 1.349 . S
C593 H585 0.950 . S
C593 C591 1.327 . S
C594 C582 1.349 . S
C594 H588 0.950 . S
C594 C595 1.327 . S
C595 H589 0.950 . S
C595 C594 1.327 . S
C595 C599 1.429 . S
C596 C579 1.574 . S
C596 H590 0.949 . S
C596 C600 1.368 . S
C597 C578 1.429 . S
C597 C591 1.429 . S
C597 C598 1.523 . S
C598 C579 1.368 . S
C598 C592 1.368 . S
C598 C597 1.523 . S
C599 C583 1.429 . S
C599 C595 1.429 . S
C599 C600 1.523 . S
C600 C584 1.368 . S
C600 C596 1.368 . S
C600 C599 1.523 . S
H601 C576 0.950 . S
H602 C578 0.950 . S
H603 C579 0.949 . S
H604 C581 0.950 . S
H605 C583 0.950 . S
C606 C607 1.349 . S
C606 C608 1.327 . S
C606 H631 0.950 . S
C607 C606 1.349 . S
C607 C623 1.349 1_655 S
C608 C606 1.327 . S
C608 C627 1.429 . S
C608 H632 0.950 . S
C609 C626 1.577 . S
C609 C628 1.387 . S
C609 H633 0.930 1_655 S
H610 C614 0.949 . S
C611 C612 1.349 . S
C611 C613 1.327 . S
C611 H634 0.950 . S
C612 C611 1.349 . S
C612 C624 1.349 . S
C613 C611 1.327 . S
C613 C629 1.429 . S
C613 H635 0.950 1_655 S
C614 H610 0.949 . S
C614 C622 1.574 . S
C614 C630 1.368 . S
H615 C623 0.950 . S
H616 C621 0.950 . S
H617 C622 0.949 . S
H618 C624 0.950 . S
H619 C625 0.950 . S
H620 C626 0.949 1_455 S
C621 H616 0.950 . S
C621 C623 1.327 . S
C621 C627 1.429 1_455 S
C622 C614 1.574 . S
C622 H617 0.949 . S
C622 C628 1.368 . S
C623 C607 1.349 1_455 S
C623 H615 0.950 . S
C623 C621 1.327 . S
C624 C612 1.349 . S
C624 H618 0.950 . S
C624 C625 1.327 . S
C625 H619 0.950 . S
C625 C624 1.327 . S
C625 C629 1.429 . S
C626 C609 1.577 . S
C626 H620 0.949 1_655 S
C626 C630 1.368 . S
C627 C608 1.429 . S
C627 C621 1.429 1_655 S
C627 C628 1.523 . S
C628 C609 1.387 . S
C628 C622 1.368 . S
C628 C627 1.523 . S
C629 C613 1.429 . S
C629 C625 1.429 . S
C629 C630 1.523 . S
C630 C614 1.368 . S
C630 C626 1.368 . S
C630 C629 1.523 . S
H631 C606 0.950 . S
H632 C608 0.950 . S
H633 C609 0.930 1_455 S
H634 C611 0.950 . S
H635 C613 0.950 1_455 S
C636 C637 1.349 . S
C636 C638 1.327 . S
C636 H661 0.950 . S
C637 C636 1.349 . S
C637 C653 1.349 . S
C638 C636 1.327 . S
C638 C657 1.429 . S
C638 H662 0.950 . S
C639 C656 1.574 1_455 S
C639 C658 1.368 . S
C639 H663 0.949 . S
H640 C644 0.949 . S
C641 C642 1.349 . S
C641 C643 1.327 . S
C641 H664 0.950 . S
C642 C641 1.349 . S
C642 C654 1.359 . S
C643 C641 1.327 . S
C643 C659 1.429 1_554 S
C643 H665 0.950 . S
C644 H640 0.949 . S
C644 C652 1.575 . S
C644 C660 1.368 . S
H645 C653 0.950 . S
H646 C651 0.950 . S
H647 C652 0.949 1_455 S
H648 C654 0.949 1_556 S
H649 C655 0.950 . S
H650 C656 0.949 . S
C651 H646 0.950 . S
C651 C653 1.327 . S
C651 C657 1.429 . S
C652 C644 1.575 . S
C652 H647 0.949 1_655 S
C652 C658 1.367 1_655 S
C653 C637 1.349 . S
C653 H645 0.950 . S
C653 C651 1.327 . S
C654 C642 1.359 . S
C654 H648 0.949 1_554 S
C654 C655 1.318 1_554 S
C655 H649 0.950 . S
C655 C654 1.318 1_556 S
C655 C659 1.429 . S
C656 C639 1.574 1_655 S
C656 H650 0.949 . S
C656 C660 1.368 . S
C657 C638 1.429 . S
C657 C651 1.429 . S
C657 C658 1.523 . S
C658 C639 1.368 . S
C658 C652 1.367 1_455 S
C658 C657 1.523 . S
C659 C643 1.429 1_556 S
C659 C655 1.429 . S
C659 C660 1.523 . S
C660 C644 1.368 . S
C660 C656 1.368 . S
C660 C659 1.523 . S
H661 C636 0.950 . S
H662 C638 0.950 . S
H663 C639 0.949 . S
H664 C641 0.950 . S
H665 C643 0.950 . S
C666 C667 1.349 . S
C666 C668 1.327 . S
C666 H691 0.950 . S
C667 C666 1.349 . S
C667 C683 1.349 . S
C668 C666 1.327 . S
C668 C687 1.429 . S
C668 H692 0.950 . S
C669 C686 1.574 . S
C669 C688 1.368 . S
C669 H693 0.949 . S
H670 C674 0.949 . S
C671 C672 1.349 . S
C671 C673 1.327 . S
C671 H694 0.950 . S
C672 C671 1.349 . S
C672 C684 1.349 . S
C673 C671 1.327 . S
C673 C689 1.429 . S
C673 H695 0.950 . S
C674 H670 0.949 . S
C674 C682 1.574 . S
C674 C690 1.368 . S
H675 C683 0.950 . S
H676 C681 0.950 . S
H677 C682 0.949 . S
H678 C684 0.950 . S
H679 C685 0.950 . S
H680 C686 0.949 . S
C681 H676 0.950 . S
C681 C683 1.327 . S
C681 C687 1.429 . S
C682 C674 1.574 . S
C682 H677 0.949 . S
C682 C688 1.368 . S
C683 C667 1.349 . S
C683 H675 0.950 . S
C683 C681 1.327 . S
C684 C672 1.349 . S
C684 H678 0.950 . S
C684 C685 1.327 . S
C685 H679 0.950 . S
C685 C684 1.327 . S
C685 C689 1.429 . S
C686 C669 1.574 . S
C686 H680 0.949 . S
C686 C690 1.368 . S
C687 C668 1.429 . S
C687 C681 1.429 . S
C687 C688 1.523 . S
C688 C669 1.368 . S
C688 C682 1.368 . S
C688 C687 1.523 . S
C689 C673 1.429 . S
C689 C685 1.429 . S
C689 C690 1.523 . S
C690 C674 1.368 . S
C690 C686 1.368 . S
C690 C689 1.523 . S
H691 C666 0.950 . S
H692 C668 0.950 . S
H693 C669 0.949 . S
H694 C671 0.950 . S
H695 C673 0.950 . S
C696 C697 1.349 . S
C696 C698 1.327 . S
C696 H721 0.950 . S
C697 C696 1.349 . S
C697 C713 1.349 . S
C698 C696 1.327 . S
C698 C717 1.429 . S
C698 H722 0.950 . S
C699 C716 1.574 . S
C699 C718 1.368 . S
C699 H723 0.949 . S
H700 C704 0.949 . S
C701 C702 1.349 . S
C701 C703 1.327 . S
C701 H724 0.950 . S
C702 C701 1.349 . S
C702 C714 1.349 . S
C703 C701 1.327 . S
C703 C719 1.429 . S
C703 H725 0.950 . S
C704 H700 0.949 . S
C704 C712 1.574 . S
C704 C720 1.368 . S
H705 C713 0.950 . S
H706 C711 0.950 . S
H707 C712 0.949 . S
H708 C714 0.950 . S
H709 C715 0.950 . S
H710 C716 0.949 . S
C711 H706 0.950 . S
C711 C713 1.327 . S
C711 C717 1.429 . S
C712 C704 1.574 . S
C712 H707 0.949 . S
C712 C718 1.368 . S
C713 C697 1.349 . S
C713 H705 0.950 . S
C713 C711 1.327 . S
C714 C702 1.349 . S
C714 H708 0.950 . S
C714 C715 1.327 . S
C715 H709 0.950 . S
C715 C714 1.327 . S
C715 C719 1.429 . S
C716 C699 1.574 . S
C716 H710 0.949 . S
C716 C720 1.368 . S
C717 C698 1.429 . S
C717 C711 1.429 . S
C717 C718 1.523 . S
C718 C699 1.368 . S
C718 C712 1.368 . S
C718 C717 1.523 . S
C719 C703 1.429 . S
C719 C715 1.429 . S
C719 C720 1.523 . S
C720 C704 1.368 . S
C720 C716 1.368 . S
C720 C719 1.523 . S
H721 C696 0.950 . S
H722 C698 0.950 . S
H723 C699 0.949 . S
H724 C701 0.950 . S
H725 C703 0.950 . S
C726 C727 1.349 . S
C726 C728 1.327 . S
C726 H751 0.950 . S
C727 C726 1.349 . S
C727 C743 1.349 . S
C728 C726 1.327 . S
C728 C747 1.429 . S
C728 H752 0.950 . S
C729 C746 1.574 . S
C729 C748 1.368 . S
C729 H753 0.949 . S
H730 C734 0.949 . S
C731 C732 1.349 . S
C731 C733 1.327 . S
C731 H754 0.950 . S
C732 C731 1.349 . S
C732 C744 1.349 . S
C733 C731 1.327 . S
C733 C749 1.429 . S
C733 H755 0.950 . S
C734 H730 0.949 . S
C734 C742 1.574 . S
C734 C750 1.368 . S
H735 C743 0.950 . S
H736 C741 0.950 . S
H737 C742 0.949 . S
H738 C744 0.950 . S
H739 C745 0.950 . S
H740 C746 0.949 . S
C741 H736 0.950 . S
C741 C743 1.327 . S
C741 C747 1.429 . S
C742 C734 1.574 . S
C742 H737 0.949 . S
C742 C748 1.368 . S
C743 C727 1.349 . S
C743 H735 0.950 . S
C743 C741 1.327 . S
C744 C732 1.349 . S
C744 H738 0.950 . S
C744 C745 1.327 . S
C745 H739 0.950 . S
C745 C744 1.327 . S
C745 C749 1.429 . S
C746 C729 1.574 . S
C746 H740 0.949 . S
C746 C750 1.368 . S
C747 C728 1.429 . S
C747 C741 1.429 . S
C747 C748 1.523 . S
C748 C729 1.368 . S
C748 C742 1.368 . S
C748 C747 1.523 . S
C749 C733 1.429 . S
C749 C745 1.429 . S
C749 C750 1.523 . S
C750 C734 1.368 . S
C750 C746 1.368 . S
C750 C749 1.523 . S
H751 C726 0.950 . S
H752 C728 0.950 . S
H753 C729 0.949 . S
H754 C731 0.950 . S
H755 C733 0.950 . S
C756 C757 1.349 . S
C756 C758 1.327 . S
C756 H781 0.950 . S
C757 C756 1.349 . S
C757 C773 1.349 . S
C758 C756 1.327 . S
C758 C777 1.429 . S
C758 H782 0.950 . S
C759 C776 1.574 . S
C759 C778 1.368 . S
C759 H783 0.949 . S
H760 C764 0.949 . S
C761 C762 1.349 . S
C761 C763 1.327 . S
C761 H784 0.950 . S
C762 C761 1.349 . S
C762 C774 1.349 . S
C763 C761 1.327 . S
C763 C779 1.429 . S
C763 H785 0.950 . S
C764 H760 0.949 . S
C764 C772 1.574 . S
C764 C780 1.368 . S
H765 C773 0.950 . S
H766 C771 0.950 . S
H767 C772 0.949 . S
H768 C774 0.950 . S
H769 C775 0.950 . S
H770 C776 0.949 . S
C771 H766 0.950 . S
C771 C773 1.327 . S
C771 C777 1.429 . S
C772 C764 1.574 . S
C772 H767 0.949 . S
C772 C778 1.368 . S
C773 C757 1.349 . S
C773 H765 0.950 . S
C773 C771 1.327 . S
C774 C762 1.349 . S
C774 H768 0.950 . S
C774 C775 1.327 . S
C775 H769 0.950 . S
C775 C774 1.327 . S
C775 C779 1.429 . S
C776 C759 1.574 . S
C776 H770 0.949 . S
C776 C780 1.368 . S
C777 C758 1.429 . S
C777 C771 1.429 . S
C777 C778 1.523 . S
C778 C759 1.368 . S
C778 C772 1.368 . S
C778 C777 1.523 . S
C779 C763 1.429 . S
C779 C775 1.429 . S
C779 C780 1.523 . S
C780 C764 1.368 . S
C780 C776 1.368 . S
C780 C779 1.523 . S
H781 C756 0.950 . S
H782 C758 0.950 . S
H783 C759 0.949 . S
H784 C761 0.950 . S
H785 C763 0.950 . S
C786 C787 1.349 . S
C786 C788 1.327 . S
C786 H811 0.950 . S
C787 C786 1.349 . S
C787 C803 1.349 . S
C788 C786 1.327 . S
C788 C807 1.429 . S
C788 H812 0.950 . S
C789 C806 1.574 . S
C789 C808 1.368 . S
C789 H813 0.949 . S
H790 C794 0.949 1_565 S
C791 C792 1.349 . S
C791 C793 1.327 1_565 S
C791 H814 0.957 . S
C792 C791 1.349 . S
C792 C804 1.349 . S
C793 C791 1.327 1_545 S
C793 C809 1.429 . S
C793 H815 0.950 . S
C794 H790 0.949 1_545 S
C794 C802 1.574 . S
C794 C810 1.368 . S
H795 C803 0.950 . S
H796 C801 0.950 . S
H797 C802 0.949 . S
H798 C804 0.950 . S
H799 C805 0.950 . S
H800 C806 0.949 . S
C801 H796 0.950 . S
C801 C803 1.327 . S
C801 C807 1.429 . S
C802 C794 1.574 . S
C802 H797 0.949 . S
C802 C808 1.368 . S
C803 C787 1.349 . S
C803 H795 0.950 . S
C803 C801 1.327 . S
C804 C792 1.349 . S
C804 H798 0.950 . S
C804 C805 1.327 . S
C805 H799 0.950 . S
C805 C804 1.327 . S
C805 C809 1.429 1_565 S
C806 C789 1.574 . S
C806 H800 0.949 . S
C806 C810 1.368 . S
C807 C788 1.429 . S
C807 C801 1.429 . S
C807 C808 1.523 . S
C808 C789 1.368 . S
C808 C802 1.368 . S
C808 C807 1.523 . S
C809 C793 1.429 . S
C809 C805 1.429 1_545 S
C809 C810 1.523 . S
C810 C794 1.368 . S
C810 C806 1.368 . S
C810 C809 1.523 . S
H811 C786 0.950 . S
H812 C788 0.950 . S
H813 C789 0.949 . S
H814 C791 0.957 . S
H815 C793 0.950 . S
C816 C817 1.349 . S
C816 C818 1.327 . S
C816 H841 0.950 . S
C817 C816 1.349 . S
C817 C833 1.349 . S
C818 C816 1.327 . S
C818 C837 1.429 . S
C818 H842 0.950 . S
C819 C836 1.574 . S
C819 C838 1.368 . S
C819 H843 0.949 . S
H820 C824 0.949 . S
C821 C822 1.349 . S
C821 C823 1.327 . S
C821 H844 0.950 . S
C822 C821 1.349 . S
C822 C834 1.349 . S
C823 C821 1.327 . S
C823 C839 1.429 . S
C823 H845 0.950 . S
C824 H820 0.949 . S
C824 C832 1.574 . S
C824 C840 1.368 . S
H825 C833 0.950 . S
H826 C831 0.950 . S
H827 C832 0.949 . S
H828 C834 0.950 . S
H829 C835 0.950 . S
H830 C836 0.949 . S
C831 H826 0.950 . S
C831 C833 1.327 . S
C831 C837 1.429 . S
C832 C824 1.574 . S
C832 H827 0.949 . S
C832 C838 1.368 . S
C833 C817 1.349 . S
C833 H825 0.950 . S
C833 C831 1.327 . S
C834 C822 1.349 . S
C834 H828 0.950 . S
C834 C835 1.327 . S
C835 H829 0.950 . S
C835 C834 1.327 . S
C835 C839 1.429 . S
C836 C819 1.574 . S
C836 H830 0.949 . S
C836 C840 1.368 . S
C837 C818 1.429 . S
C837 C831 1.429 . S
C837 C838 1.523 . S
C838 C819 1.368 . S
C838 C832 1.368 . S
C838 C837 1.523 . S
C839 C823 1.429 . S
C839 C835 1.429 . S
C839 C840 1.523 . S
C840 C824 1.368 . S
C840 C836 1.368 . S
C840 C839 1.523 . S
H841 C816 0.950 . S
H842 C818 0.950 . S
H843 C819 0.949 . S
H844 C821 0.950 . S
H845 C823 0.950 . S
C846 C847 1.349 . S
C846 C848 1.327 . S
C846 H871 0.950 . S
C847 C846 1.349 . S
C847 C863 1.349 . S
C848 C846 1.327 . S
C848 C867 1.429 . S
C848 H872 0.950 . S
C849 C866 1.574 . S
C849 C868 1.368 . S
C849 H873 0.949 . S
H850 C854 0.949 . S
C851 C852 1.349 . S
C851 C853 1.327 . S
C851 H874 0.950 . S
C852 C851 1.349 . S
C852 C864 1.349 . S
C853 C851 1.327 . S
C853 C869 1.429 . S
C853 H875 0.950 . S
C854 H850 0.949 . S
C854 C862 1.574 . S
C854 C870 1.368 . S
H855 C863 0.950 . S
H856 C861 0.950 . S
H857 C862 0.949 . S
H858 C864 0.950 . S
H859 C865 0.950 . S
H860 C866 0.949 . S
C861 H856 0.950 . S
C861 C863 1.327 . S
C861 C867 1.429 . S
C862 C854 1.574 . S
C862 H857 0.949 . S
C862 C868 1.368 . S
C863 C847 1.349 . S
C863 H855 0.950 . S
C863 C861 1.327 . S
C864 C852 1.349 . S
C864 H858 0.950 . S
C864 C865 1.327 . S
C865 H859 0.950 . S
C865 C864 1.327 . S
C865 C869 1.429 . S
C866 C849 1.574 . S
C866 H860 0.949 . S
C866 C870 1.368 . S
C867 C848 1.429 . S
C867 C861 1.429 . S
C867 C868 1.523 . S
C868 C849 1.368 . S
C868 C862 1.368 . S
C868 C867 1.523 . S
C869 C853 1.429 . S
C869 C865 1.429 . S
C869 C870 1.523 . S
C870 C854 1.368 . S
C870 C866 1.368 . S
C870 C869 1.523 . S
H871 C846 0.950 . S
H872 C848 0.950 . S
H873 C849 0.949 . S
H874 C851 0.950 . S
H875 C853 0.950 . S
C876 C877 1.349 . S
C876 C878 1.327 . S
C876 H901 0.950 . S
C877 C876 1.349 . S
C877 C893 1.349 . S
C878 C876 1.327 . S
C878 C897 1.429 . S
C878 H902 0.950 . S
C879 C896 1.574 . S
C879 C898 1.368 . S
C879 H903 0.949 . S
H880 C884 0.949 . S
C881 C882 1.349 . S
C881 C883 1.327 1_565 S
C881 H904 0.950 . S
C882 C881 1.349 . S
C882 C894 1.349 . S
C883 C881 1.327 1_545 S
C883 C899 1.429 1_545 S
C883 H905 0.950 . S
C884 H880 0.949 . S
C884 C892 1.574 1_565 S
C884 C900 1.368 1_565 S
H885 C893 0.950 . S
H886 C891 0.950 . S
H887 C892 0.949 . S
H888 C894 0.950 . S
H889 C895 0.950 . S
H890 C896 0.949 . S
C891 H886 0.950 . S
C891 C893 1.327 . S
C891 C897 1.429 . S
C892 C884 1.574 1_545 S
C892 H887 0.949 . S
C892 C898 1.368 . S
C893 C877 1.349 . S
C893 H885 0.950 . S
C893 C891 1.327 . S
C894 C882 1.349 . S
C894 H888 0.950 . S
C894 C895 1.327 . S
C895 H889 0.950 . S
C895 C894 1.327 . S
C895 C899 1.429 . S
C896 C879 1.574 . S
C896 H890 0.949 . S
C896 C900 1.368 . S
C897 C878 1.429 . S
C897 C891 1.429 . S
C897 C898 1.523 . S
C898 C879 1.368 . S
C898 C892 1.368 . S
C898 C897 1.523 . S
C899 C883 1.429 1_565 S
C899 C895 1.429 . S
C899 C900 1.523 1_565 S
C900 C884 1.368 1_545 S
C900 C896 1.368 . S
C900 C899 1.523 1_545 S
H901 C876 0.950 . S
H902 C878 0.950 . S
H903 C879 0.949 . S
H904 C881 0.950 . S
H905 C883 0.950 . S
C906 C907 1.349 . S
C906 C908 1.327 . S
C906 H931 0.950 . S
C907 C906 1.349 . S
C907 C923 1.349 . S
C908 C906 1.327 . S
C908 C927 1.429 . S
C908 H932 0.950 . S
C909 C926 1.574 . S
C909 C928 1.368 . S
C909 H933 0.949 . S
H910 C914 0.949 . S
C911 C912 1.349 . S
C911 C913 1.327 . S
C911 H934 0.950 . S
C912 C911 1.349 . S
C912 C924 1.349 . S
C913 C911 1.327 . S
C913 C929 1.429 . S
C913 H935 0.950 . S
C914 H910 0.949 . S
C914 C922 1.574 . S
C914 C930 1.368 . S
H915 C923 0.950 . S
H916 C921 0.950 . S
H917 C922 0.949 . S
H918 C924 0.950 . S
H919 C925 0.950 . S
H920 C926 0.949 . S
C921 H916 0.950 . S
C921 C923 1.327 . S
C921 C927 1.429 . S
C922 C914 1.574 . S
C922 H917 0.949 . S
C922 C928 1.368 . S
C923 C907 1.349 . S
C923 H915 0.950 . S
C923 C921 1.327 . S
C924 C912 1.349 . S
C924 H918 0.950 . S
C924 C925 1.327 . S
C925 H919 0.950 . S
C925 C924 1.327 . S
C925 C929 1.429 . S
C926 C909 1.574 . S
C926 H920 0.949 . S
C926 C930 1.368 . S
C927 C908 1.429 . S
C927 C921 1.429 . S
C927 C928 1.523 . S
C928 C909 1.368 . S
C928 C922 1.368 . S
C928 C927 1.523 . S
C929 C913 1.429 . S
C929 C925 1.429 . S
C929 C930 1.523 . S
C930 C914 1.368 . S
C930 C926 1.368 . S
C930 C929 1.523 . S
H931 C906 0.950 . S
H932 C908 0.950 . S
H933 C909 0.949 . S
H934 C911 0.950 . S
H935 C913 0.950 . S
C936 C937 1.349 . S
C936 C938 1.327 . S
C936 H961 0.950 . S
C937 C936 1.349 . S
C937 C953 1.349 . S
C938 C936 1.327 . S
C938 C957 1.429 . S
C938 H962 0.950 . S
C939 C956 1.574 . S
C939 C958 1.368 . S
C939 H963 0.949 . S
H940 C944 0.949 . S
C941 C942 1.349 . S
C941 C943 1.327 . S
C941 H964 0.950 . S
C942 C941 1.349 . S
C942 C954 1.349 . S
C943 C941 1.327 . S
C943 C959 1.429 . S
C943 H965 0.950 . S
C944 H940 0.949 . S
C944 C952 1.574 . S
C944 C960 1.368 . S
H945 C953 0.950 . S
H946 C951 0.950 . S
H947 C952 0.949 . S
H948 C954 0.950 . S
H949 C955 0.950 . S
H950 C956 0.949 . S
C951 H946 0.950 . S
C951 C953 1.327 . S
C951 C957 1.429 . S
C952 C944 1.574 . S
C952 H947 0.949 . S
C952 C958 1.368 . S
C953 C937 1.349 . S
C953 H945 0.950 . S
C953 C951 1.327 . S
C954 C942 1.349 . S
C954 H948 0.950 . S
C954 C955 1.327 . S
C955 H949 0.950 . S
C955 C954 1.327 . S
C955 C959 1.429 . S
C956 C939 1.574 . S
C956 H950 0.949 . S
C956 C960 1.368 . S
C957 C938 1.429 . S
C957 C951 1.429 . S
C957 C958 1.523 . S
C958 C939 1.368 . S
C958 C952 1.368 . S
C958 C957 1.523 . S
C959 C943 1.429 . S
C959 C955 1.429 . S
C959 C960 1.523 . S
C960 C944 1.368 . S
C960 C956 1.368 . S
C960 C959 1.523 . S
H961 C936 0.950 . S
H962 C938 0.950 . S
H963 C939 0.949 . S
H964 C941 0.950 . S
H965 C943 0.950 . S
C966 C967 1.349 . S
C966 C968 1.327 . S
C966 H991 0.950 . S
C967 C966 1.349 . S
C967 C983 1.349 . S
C968 C966 1.327 . S
C968 C987 1.429 . S
C968 H992 0.950 . S
C969 C986 1.574 . S
C969 C988 1.368 . S
C969 H993 0.949 . S
H970 C974 0.949 . S
C971 C972 1.349 . S
C971 C973 1.327 . S
C971 H994 0.950 . S
C972 C971 1.349 . S
C972 C984 1.349 . S
C973 C971 1.327 . S
C973 C989 1.429 . S
C973 H995 0.950 . S
C974 H970 0.949 . S
C974 C982 1.574 . S
C974 C990 1.368 . S
H975 C983 0.950 . S
H976 C981 0.950 . S
H977 C982 0.949 . S
H978 C984 0.950 . S
H979 C985 0.950 . S
H980 C986 0.949 . S
C981 H976 0.950 . S
C981 C983 1.327 . S
C981 C987 1.429 . S
C982 C974 1.574 . S
C982 H977 0.949 . S
C982 C988 1.368 . S
C983 C967 1.349 . S
C983 H975 0.950 . S
C983 C981 1.327 . S
C984 C972 1.349 . S
C984 H978 0.950 . S
C984 C985 1.327 . S
C985 H979 0.950 . S
C985 C984 1.327 . S
C985 C989 1.429 . S
C986 C969 1.574 . S
C986 H980 0.949 . S
C986 C990 1.368 . S
C987 C968 1.429 . S
C987 C981 1.429 . S
C987 C988 1.523 . S
C988 C969 1.368 . S
C988 C982 1.368 . S
C988 C987 1.523 . S
C989 C973 1.429 . S
C989 C985 1.429 . S
C989 C990 1.523 . S
C990 C974 1.368 . S
C990 C986 1.368 . S
C990 C989 1.523 . S
H991 C966 0.950 . S
H992 C968 0.950 . S
H993 C969 0.949 . S
H994 C971 0.950 . S
H995 C973 0.950 . S
C996 C997 1.349 . S
C996 C998 1.327 . S
C996 H1021 0.950 . S
C997 C996 1.349 . S
C997 C1013 1.349 . S
C998 C996 1.327 . S
C998 C1017 1.429 . S
C998 H1022 0.950 . S
C999 C1016 1.574 . S
C999 C1018 1.368 . S
C999 H1023 0.949 . S
H1000 C1004 0.949 . S
C1001 C1002 1.349 . S
C1001 C1003 1.327 . S
C1001 H1024 0.950 . S
C1002 C1001 1.349 . S
C1002 C1014 1.349 . S
C1003 C1001 1.327 . S
C1003 C1019 1.429 . S
C1003 H1025 0.950 . S
C1004 H1000 0.949 . S
C1004 C1012 1.574 . S
C1004 C1020 1.368 . S
H1005 C1013 0.950 . S
H1006 C1011 0.950 . S
H1007 C1012 0.949 . S
H1008 C1014 0.950 . S
H1009 C1015 0.950 . S
H1010 C1016 0.949 . S
C1011 H1006 0.950 . S
C1011 C1013 1.327 . S
C1011 C1017 1.429 . S
C1012 C1004 1.574 . S
C1012 H1007 0.949 . S
C1012 C1018 1.368 . S
C1013 C997 1.349 . S
C1013 H1005 0.950 . S
C1013 C1011 1.327 . S
C1014 C1002 1.349 . S
C1014 H1008 0.950 . S
C1014 C1015 1.327 . S
C1015 H1009 0.950 . S
C1015 C1014 1.327 . S
C1015 C1019 1.429 . S
C1016 C999 1.574 . S
C1016 H1010 0.949 . S
C1016 C1020 1.368 . S
C1017 C998 1.429 . S
C1017 C1011 1.429 . S
C1017 C1018 1.523 . S
C1018 C999 1.368 . S
C1018 C1012 1.368 . S
C1018 C1017 1.523 . S
C1019 C1003 1.429 . S
C1019 C1015 1.429 . S
C1019 C1020 1.523 . S
C1020 C1004 1.368 . S
C1020 C1016 1.368 . S
C1020 C1019 1.523 . S
H1021 C996 0.950 . S
H1022 C998 0.950 . S
H1023 C999 0.949 . S
H1024 C1001 0.950 . S
H1025 C1003 0.950 . S
C1026 C1027 1.349 . S
C1026 C1028 1.327 . S
C1026 H1051 0.950 . S
C1027 C1026 1.349 . S
C1027 C1043 1.349 . S
C1028 C1026 1.327 . S
C1028 C1047 1.429 . S
C1028 H1052 0.950 . S
C1029 C1046 1.574 . S
C1029 C1048 1.368 . S
C1029 H1053 0.949 . S
H1030 C1034 0.949 . S
C1031 C1032 1.349 . S
C1031 C1033 1.327 1_655 S
C1031 H1054 0.950 . S
C1032 C1031 1.349 . S
C1032 C1044 1.349 . S
C1033 C1031 1.327 1_455 S
C1033 C1049 1.429 . S
C1033 H1055 0.950 . S
C1034 H1030 0.949 . S
C1034 C1042 1.574 . S
C1034 C1050 1.368 . S
H1035 C1043 0.950 . S
H1036 C1041 0.950 . S
H1037 C1042 0.949 . S
H1038 C1044 0.950 . S
H1039 C1045 0.950 . S
H1040 C1046 0.949 . S
C1041 H1036 0.950 . S
C1041 C1043 1.327 . S
C1041 C1047 1.429 . S
C1042 C1034 1.574 . S
C1042 H1037 0.949 . S
C1042 C1048 1.368 . S
C1043 C1027 1.349 . S
C1043 H1035 0.950 . S
C1043 C1041 1.327 . S
C1044 C1032 1.349 . S
C1044 H1038 0.950 . S
C1044 C1045 1.327 . S
C1045 H1039 0.950 . S
C1045 C1044 1.327 . S
C1045 C1049 1.429 1_655 S
C1046 C1029 1.574 . S
C1046 H1040 0.949 . S
C1046 C1050 1.368 . S
C1047 C1028 1.429 . S
C1047 C1041 1.429 . S
C1047 C1048 1.523 . S
C1048 C1029 1.368 . S
C1048 C1042 1.368 . S
C1048 C1047 1.523 . S
C1049 C1033 1.429 . S
C1049 C1045 1.429 1_455 S
C1049 C1050 1.523 . S
C1050 C1034 1.368 . S
C1050 C1046 1.368 . S
C1050 C1049 1.523 . S
H1051 C1026 0.950 . S
H1052 C1028 0.950 . S
H1053 C1029 0.949 . S
H1054 C1031 0.950 . S
H1055 C1033 0.950 . S
C1056 C1057 1.349 . S
C1056 C1058 1.327 . S
C1056 H1081 0.950 . S
C1057 C1056 1.349 . S
C1057 C1073 1.349 . S
C1058 C1056 1.327 . S
C1058 C1077 1.429 . S
C1058 H1082 0.950 . S
C1059 C1076 1.574 . S
C1059 C1078 1.368 . S
C1059 H1083 0.949 . S
H1060 C1064 0.949 . S
C1061 C1062 1.349 . S
C1061 C1063 1.327 . S
C1061 H1084 0.950 . S
C1062 C1061 1.349 . S
C1062 C1074 1.349 . S
C1063 C1061 1.327 . S
C1063 C1079 1.429 . S
C1063 H1085 0.950 . S
C1064 H1060 0.949 . S
C1064 C1072 1.574 . S
C1064 C1080 1.368 . S
H1065 C1073 0.950 . S
H1066 C1071 0.950 . S
H1067 C1072 0.949 . S
H1068 C1074 0.950 . S
H1069 C1075 0.950 . S
H1070 C1076 0.949 . S
C1071 H1066 0.950 . S
C1071 C1073 1.327 . S
C1071 C1077 1.429 . S
C1072 C1064 1.574 . S
C1072 H1067 0.949 . S
C1072 C1078 1.368 . S
C1073 C1057 1.349 . S
C1073 H1065 0.950 . S
C1073 C1071 1.327 . S
C1074 C1062 1.349 . S
C1074 H1068 0.950 . S
C1074 C1075 1.327 . S
C1075 H1069 0.950 . S
C1075 C1074 1.327 . S
C1075 C1079 1.429 . S
C1076 C1059 1.574 . S
C1076 H1070 0.949 . S
C1076 C1080 1.368 . S
C1077 C1058 1.429 . S
C1077 C1071 1.429 . S
C1077 C1078 1.523 . S
C1078 C1059 1.368 . S
C1078 C1072 1.368 . S
C1078 C1077 1.523 . S
C1079 C1063 1.429 . S
C1079 C1075 1.429 . S
C1079 C1080 1.523 . S
C1080 C1064 1.368 . S
C1080 C1076 1.368 . S
C1080 C1079 1.523 . S
H1081 C1056 0.950 . S
H1082 C1058 0.950 . S
H1083 C1059 0.949 . S
H1084 C1061 0.950 . S
H1085 C1063 0.950 . S
C1086 C1087 1.349 . S
C1086 C1088 1.327 . S
C1086 H1111 0.950 . S
C1087 C1086 1.349 . S
C1087 C1103 1.349 . S
C1088 C1086 1.327 . S
C1088 C1107 1.429 . S
C1088 H1112 0.950 . S
C1089 C1106 1.574 . S
C1089 C1108 1.368 . S
C1089 H1113 0.949 . S
H1090 C1094 0.949 . S
C1091 C1092 1.349 . S
C1091 C1093 1.327 . S
C1091 H1114 0.950 . S
C1092 C1091 1.349 . S
C1092 C1104 1.349 . S
C1093 C1091 1.327 . S
C1093 C1109 1.429 . S
C1093 H1115 0.950 . S
C1094 H1090 0.949 . S
C1094 C1102 1.574 . S
C1094 C1110 1.368 . S
H1095 C1103 0.950 1_455 S
H1096 C1101 0.950 . S
H1097 C1102 0.949 . S
H1098 C1104 0.950 . S
H1099 C1105 0.950 . S
H1100 C1106 0.949 . S
C1101 H1096 0.950 . S
C1101 C1103 1.327 . S
C1101 C1107 1.429 . S
C1102 C1094 1.574 . S
C1102 H1097 0.949 . S
C1102 C1108 1.368 . S
C1103 C1087 1.349 . S
C1103 H1095 0.950 1_655 S
C1103 C1101 1.327 . S
C1104 C1092 1.349 . S
C1104 H1098 0.950 . S
C1104 C1105 1.327 . S
C1105 H1099 0.950 . S
C1105 C1104 1.327 . S
C1105 C1109 1.429 . S
C1106 C1089 1.574 . S
C1106 H1100 0.949 . S
C1106 C1110 1.368 . S
C1107 C1088 1.429 . S
C1107 C1101 1.429 . S
C1107 C1108 1.523 . S
C1108 C1089 1.368 . S
C1108 C1102 1.368 . S
C1108 C1107 1.523 . S
C1109 C1093 1.429 . S
C1109 C1105 1.429 . S
C1109 C1110 1.523 . S
C1110 C1094 1.368 . S
C1110 C1106 1.368 . S
C1110 C1109 1.523 . S
H1111 C1086 0.950 . S
H1112 C1088 0.950 . S
H1113 C1089 0.949 . S
H1114 C1091 0.950 . S
H1115 C1093 0.950 . S
C1116 C1117 1.349 . S
C1116 C1118 1.327 . S
C1116 H1141 0.950 . S
C1117 C1116 1.349 . S
C1117 C1133 1.349 . S
C1118 C1116 1.327 . S
C1118 C1137 1.429 . S
C1118 H1142 0.950 . S
C1119 C1136 1.574 . S
C1119 C1138 1.368 . S
C1119 H1143 0.949 . S
H1120 C1124 0.949 . S
C1121 C1122 1.349 . S
C1121 C1123 1.324 1_655 S
C1121 H1144 0.950 . S
C1122 C1121 1.349 . S
C1122 C1134 1.349 . S
C1123 C1121 1.324 1_455 S
C1123 C1139 1.431 . S
C1123 H1145 0.949 . S
C1124 H1120 0.949 . S
C1124 C1132 1.574 . S
C1124 C1140 1.368 . S
H1125 C1133 0.950 . S
H1126 C1131 0.950 . S
H1127 C1132 0.949 . S
H1128 C1134 0.950 . S
H1129 C1135 0.950 . S
H1130 C1136 0.949 . S
C1131 H1126 0.950 . S
C1131 C1133 1.327 . S
C1131 C1137 1.429 . S
C1132 C1124 1.574 . S
C1132 H1127 0.949 . S
C1132 C1138 1.368 . S
C1133 C1117 1.349 . S
C1133 H1125 0.950 . S
C1133 C1131 1.327 . S
C1134 C1122 1.349 . S
C1134 H1128 0.950 . S
C1134 C1135 1.327 1_655 S
C1135 H1129 0.950 . S
C1135 C1134 1.327 1_455 S
C1135 C1139 1.429 . S
C1136 C1119 1.574 . S
C1136 H1130 0.949 . S
C1136 C1140 1.368 . S
C1137 C1118 1.429 . S
C1137 C1131 1.429 . S
C1137 C1138 1.523 . S
C1138 C1119 1.368 . S
C1138 C1132 1.368 . S
C1138 C1137 1.523 . S
C1139 C1123 1.431 . S
C1139 C1135 1.429 . S
C1139 C1140 1.523 . S
C1140 C1124 1.368 . S
C1140 C1136 1.368 . S
C1140 C1139 1.523 . S
H1141 C1116 0.950 . S
H1142 C1118 0.950 . S
H1143 C1119 0.949 . S
H1144 C1121 0.950 . S
H1145 C1123 0.949 . S
C1146 C1147 1.349 . S
C1146 C1148 1.327 . S
C1146 H1171 0.950 . S
C1147 C1146 1.349 . S
C1147 C1163 1.349 . S
C1148 C1146 1.327 . S
C1148 C1167 1.429 . S
C1148 H1172 0.950 . S
C1149 C1166 1.574 . S
C1149 C1168 1.368 . S
C1149 H1173 0.949 . S
H1150 C1154 0.949 . S
C1151 C1152 1.349 . S
C1151 C1153 1.327 . S
C1151 H1174 0.950 . S
C1152 C1151 1.349 . S
C1152 C1164 1.349 . S
C1153 C1151 1.327 . S
C1153 C1169 1.429 . S
C1153 H1175 0.950 . S
C1154 H1150 0.949 . S
C1154 C1162 1.574 . S
C1154 C1170 1.368 . S
H1155 C1163 0.950 . S
H1156 C1161 0.950 . S
H1157 C1162 0.949 . S
H1158 C1164 0.950 . S
H1159 C1165 0.950 . S
H1160 C1166 0.949 . S
C1161 H1156 0.950 . S
C1161 C1163 1.327 . S
C1161 C1167 1.429 . S
C1162 C1154 1.574 . S
C1162 H1157 0.949 . S
C1162 C1168 1.368 . S
C1163 C1147 1.349 . S
C1163 H1155 0.950 . S
C1163 C1161 1.327 . S
C1164 C1152 1.349 . S
C1164 H1158 0.950 . S
C1164 C1165 1.327 . S
C1165 H1159 0.950 . S
C1165 C1164 1.327 . S
C1165 C1169 1.429 . S
C1166 C1149 1.574 . S
C1166 H1160 0.949 . S
C1166 C1170 1.368 . S
C1167 C1148 1.429 . S
C1167 C1161 1.429 . S
C1167 C1168 1.523 . S
C1168 C1149 1.368 . S
C1168 C1162 1.368 . S
C1168 C1167 1.523 . S
C1169 C1153 1.429 . S
C1169 C1165 1.429 . S
C1169 C1170 1.523 . S
C1170 C1154 1.368 . S
C1170 C1166 1.368 . S
C1170 C1169 1.523 . S
H1171 C1146 0.950 . S
H1172 C1148 0.950 . S
H1173 C1149 0.949 . S
H1174 C1151 0.950 . S
H1175 C1153 0.950 . S
C222 C129 1.105 . S
C217 C5 1.111 . S
C252 C143 1.155 . S
C247 C18 1.164 . S
C282 C151 1.147 . S
C277 C31 1.154 . S
C307 C42 1.034 . S
C312 C109 1.062 . S
C337 C57 1.340 . S
C342 C115 1.364 . S
C367 C70 1.407 . S
C372 C123 1.432 . S
C402 C137 1.459 . S
C397 C81 1.461 . S
C432 C157 1.401 . S
C427 C96 1.377 . S
C457 C29 1.357 . S
C462 C185 1.356 . S
C492 C199 1.404 . S
C487 C44 1.379 . S
C517 C3 1.413 . S
C522 C207 1.409 . S
C552 C171 1.385 . S
C547 C16 1.388 . S
C577 C83 1.109 . S
C582 C165 1.101 . S
C607 C94 1.090 . S
C612 C179 1.122 . S
C642 C193 1.157 . S
C637 C55 1.120 . S
C667 C68 1.159 . S
C672 C213 1.198 . S
C702 C132 1.287 . S
C697 C1 1.324 . S
C732 C155 1.302 . S
C727 C14 1.318 . S
C757 C27 1.278 . S
C762 C113 1.261 . S
C787 C49 1.281 . S
C792 C118 1.251 . S
C817 C53 1.630 . S
C822 C146 1.650 . S
C852 C104 1.659 . S
C847 C66 1.631 . S
C882 C127 1.674 . S
C877 C88 1.686 . S
C912 C141 1.683 . S
C907 C92 1.636 . S
C942 C188 1.649 . S
C937 C36 1.688 . S
C972 C211 1.656 . S
C967 C40 1.610 . S
C997 C10 1.674 . S
C1002 C160 1.639 . S
C1032 C174 1.643 . S
C1027 C23 1.680 . S
C1062 C202 1.276 . S
C1057 C79 1.315 . S
C1087 C101 1.279 . S
C1092 C169 1.268 . S
C1122 C183 1.273 . S
C1117 C62 1.284 . S
C1152 C197 1.339 . S
C1147 C75 1.343 . S
