# Generated by pormake.
# Topology ocu, (6,8)-cn, num edge types: 1
# Building blocks:
#     Node 0, Type 0, BuildingBlock: KUMJIN_clean_sbu_1, # of connection points: 6
#     Node 1, Type 0, BuildingBlock: KUMJIN_clean_sbu_1, # of connection points: 6
#     Node 2, Type 0, BuildingBlock: KUMJIN_clean_sbu_1, # of connection points: 6
#     Node 3, Type 0, BuildingBlock: KUMJIN_clean_sbu_1, # of connection points: 6
#     Node 4, Type 0, BuildingBlock: KUMJIN_clean_sbu_1, # of connection points: 6
#     Node 5, Type 0, BuildingBlock: KUMJIN_clean_sbu_1, # of connection points: 6
#     Node 6, Type 0, BuildingBlock: KUMJIN_clean_sbu_1, # of connection points: 6
#     Node 7, Type 0, BuildingBlock: KUMJIN_clean_sbu_1, # of connection points: 6
#     Node 8, Type 1, BuildingBlock: TAGTUT_clean_sbu_1, # of connection points: 8
#     Node 9, Type 1, BuildingBlock: TAGTUT_clean_sbu_1, # of connection points: 8
#     Node 10, Type 1, BuildingBlock: TAGTUT_clean_sbu_1, # of connection points: 8
#     Node 11, Type 1, BuildingBlock: TAGTUT_clean_sbu_1, # of connection points: 8
#     Node 12, Type 1, BuildingBlock: TAGTUT_clean_sbu_1, # of connection points: 8
#     Node 13, Type 1, BuildingBlock: TAGTUT_clean_sbu_1, # of connection points: 8
#     Edge 14, Type (0, 1), BuildingBlock: MIFKUJ_clean_linker_0, # of connection points: 2
#     Edge 15, Type (0, 1), BuildingBlock: MIFKUJ_clean_linker_0, # of connection points: 2
#     Edge 16, Type (0, 1), BuildingBlock: MIFKUJ_clean_linker_0, # of connection points: 2
#     Edge 17, Type (0, 1), BuildingBlock: MIFKUJ_clean_linker_0, # of connection points: 2
#     Edge 18, Type (0, 1), BuildingBlock: MIFKUJ_clean_linker_0, # of connection points: 2
#     Edge 19, Type (0, 1), BuildingBlock: MIFKUJ_clean_linker_0, # of connection points: 2
#     Edge 20, Type (0, 1), BuildingBlock: MIFKUJ_clean_linker_0, # of connection points: 2
#     Edge 21, Type (0, 1), BuildingBlock: MIFKUJ_clean_linker_0, # of connection points: 2
#     Edge 22, Type (0, 1), BuildingBlock: MIFKUJ_clean_linker_0, # of connection points: 2
#     Edge 23, Type (0, 1), BuildingBlock: MIFKUJ_clean_linker_0, # of connection points: 2
#     Edge 24, Type (0, 1), BuildingBlock: MIFKUJ_clean_linker_0, # of connection points: 2
#     Edge 25, Type (0, 1), BuildingBlock: MIFKUJ_clean_linker_0, # of connection points: 2
#     Edge 26, Type (0, 1), BuildingBlock: MIFKUJ_clean_linker_0, # of connection points: 2
#     Edge 27, Type (0, 1), BuildingBlock: MIFKUJ_clean_linker_0, # of connection points: 2
#     Edge 28, Type (0, 1), BuildingBlock: MIFKUJ_clean_linker_0, # of connection points: 2
#     Edge 29, Type (0, 1), BuildingBlock: MIFKUJ_clean_linker_0, # of connection points: 2
#     Edge 30, Type (0, 1), BuildingBlock: MIFKUJ_clean_linker_0, # of connection points: 2
#     Edge 31, Type (0, 1), BuildingBlock: MIFKUJ_clean_linker_0, # of connection points: 2
#     Edge 32, Type (0, 1), BuildingBlock: MIFKUJ_clean_linker_0, # of connection points: 2
#     Edge 33, Type (0, 1), BuildingBlock: MIFKUJ_clean_linker_0, # of connection points: 2
#     Edge 34, Type (0, 1), BuildingBlock: MIFKUJ_clean_linker_0, # of connection points: 2
#     Edge 35, Type (0, 1), BuildingBlock: MIFKUJ_clean_linker_0, # of connection points: 2
#     Edge 36, Type (0, 1), BuildingBlock: MIFKUJ_clean_linker_0, # of connection points: 2
#     Edge 37, Type (0, 1), BuildingBlock: MIFKUJ_clean_linker_0, # of connection points: 2
#     Edge 38, Type (0, 1), BuildingBlock: MIFKUJ_clean_linker_0, # of connection points: 2
#     Edge 39, Type (0, 1), BuildingBlock: MIFKUJ_clean_linker_0, # of connection points: 2
#     Edge 40, Type (0, 1), BuildingBlock: MIFKUJ_clean_linker_0, # of connection points: 2
#     Edge 41, Type (0, 1), BuildingBlock: MIFKUJ_clean_linker_0, # of connection points: 2
#     Edge 42, Type (0, 1), BuildingBlock: MIFKUJ_clean_linker_0, # of connection points: 2
#     Edge 43, Type (0, 1), BuildingBlock: MIFKUJ_clean_linker_0, # of connection points: 2
#     Edge 44, Type (0, 1), BuildingBlock: MIFKUJ_clean_linker_0, # of connection points: 2
#     Edge 45, Type (0, 1), BuildingBlock: MIFKUJ_clean_linker_0, # of connection points: 2
#     Edge 46, Type (0, 1), BuildingBlock: MIFKUJ_clean_linker_0, # of connection points: 2
#     Edge 47, Type (0, 1), BuildingBlock: MIFKUJ_clean_linker_0, # of connection points: 2
#     Edge 48, Type (0, 1), BuildingBlock: MIFKUJ_clean_linker_0, # of connection points: 2
#     Edge 49, Type (0, 1), BuildingBlock: MIFKUJ_clean_linker_0, # of connection points: 2
#     Edge 50, Type (0, 1), BuildingBlock: MIFKUJ_clean_linker_0, # of connection points: 2
#     Edge 51, Type (0, 1), BuildingBlock: MIFKUJ_clean_linker_0, # of connection points: 2
#     Edge 52, Type (0, 1), BuildingBlock: MIFKUJ_clean_linker_0, # of connection points: 2
#     Edge 53, Type (0, 1), BuildingBlock: MIFKUJ_clean_linker_0, # of connection points: 2
#     Edge 54, Type (0, 1), BuildingBlock: MIFKUJ_clean_linker_0, # of connection points: 2
#     Edge 55, Type (0, 1), BuildingBlock: MIFKUJ_clean_linker_0, # of connection points: 2
#     Edge 56, Type (0, 1), BuildingBlock: MIFKUJ_clean_linker_0, # of connection points: 2
#     Edge 57, Type (0, 1), BuildingBlock: MIFKUJ_clean_linker_0, # of connection points: 2
#     Edge 58, Type (0, 1), BuildingBlock: MIFKUJ_clean_linker_0, # of connection points: 2
#     Edge 59, Type (0, 1), BuildingBlock: MIFKUJ_clean_linker_0, # of connection points: 2
#     Edge 60, Type (0, 1), BuildingBlock: MIFKUJ_clean_linker_0, # of connection points: 2
#     Edge 61, Type (0, 1), BuildingBlock: MIFKUJ_clean_linker_0, # of connection points: 2
# Relax obj value: 0.056
# Max RMSD: 0.172
# Mean RMSD: 0.096
data_MOF--net-ocu--node1-KUMJIN_clean_sbu_1--node2-TAGTUT_clean_sbu_1--edge1-MIFKUJ_clean_linker_0
_symmetry_space_group_name_H-M    P1
_symmetry_Int_Tables_number       1
_symmetry_cell_setting            triclinic
loop_
_symmetry_equiv_pos_as_xyz
'x, y, z'
_cell_length_a     51.237336
_cell_length_b     49.0199
_cell_length_c     54.188349
_cell_angle_alpha  98.252462
_cell_angle_beta   83.910345
_cell_angle_gamma 110.48752
loop_
_atom_site_label
_atom_site_type_symbol
_atom_site_fract_x
_atom_site_fract_y
_atom_site_fract_z
_atom_type_partial_charge
Eu0 Eu 0.22929 0.24145 0.22107 0.0
C1 C 0.3069 0.31434 0.30781 0.0
N2 N 0.3134 0.30364 0.28426 0.0
C3 C 0.3511 0.34873 0.27944 0.0
C4 C 0.32242 0.3429 0.31802 0.0
C5 C 0.33557 0.32008 0.27026 0.0
C6 C 0.34446 0.36023 0.30337 0.0
C7 C 0.2786 0.30655 0.34685 0.0
C8 C 0.28503 0.29641 0.3221 0.0
C9 C 0.29439 0.33477 0.35709 0.0
C10 C 0.31597 0.35303 0.34266 0.0
Eu11 Eu 0.28649 0.25438 0.27187 0.0
N12 N 0.27018 0.26898 0.31186 0.0
C13 C 0.25677 0.28778 0.36071 0.0
C14 C 0.24949 0.25033 0.32545 0.0
C15 C 0.24215 0.25956 0.34996 0.0
H16 H 0.34195 0.31112 0.25225 0.0
H17 H 0.22563 0.24472 0.3607 0.0
H18 H 0.17068 0.1888 0.24207 0.0
H19 H 0.28315 0.24591 0.12906 0.0
H20 H 0.23922 0.22812 0.31768 0.0
H21 H 0.25131 0.29462 0.37985 0.0
H22 H 0.27152 0.26503 0.17211 0.0
H23 H 0.36852 0.36174 0.2682 0.0
H24 H 0.2904 0.34255 0.3763 0.0
H25 H 0.32788 0.37478 0.3509 0.0
H26 H 0.14229 0.13803 0.22851 0.0
H27 H 0.35682 0.3823 0.31055 0.0
H28 H 0.25731 0.19465 0.11267 0.0
N29 N 0.19913 0.19287 0.20996 0.0
C30 C 0.20439 0.18049 0.18666 0.0
C31 C 0.15995 0.14954 0.21672 0.0
C32 C 0.188 0.15166 0.17785 0.0
C33 C 0.17652 0.17828 0.22456 0.0
C34 C 0.16591 0.13601 0.19342 0.0
N35 N 0.24162 0.22448 0.1803 0.0
C36 C 0.26109 0.24244 0.16525 0.0
C37 C 0.23116 0.18522 0.14669 0.0
C38 C 0.22576 0.19698 0.1712 0.0
C39 C 0.25247 0.2029 0.13159 0.0
C40 C 0.26724 0.23178 0.14082 0.0
H41 H 0.15286 0.1138 0.18737 0.0
H42 H 0.18153 0.11739 0.14667 0.0
H43 H 0.21927 0.14678 0.11941 0.0
O44 O 0.22686 0.27777 0.20336 0.0
O45 O 0.25971 0.21555 0.20954 0.0
O46 O 0.29675 0.2299 0.23542 0.0
O47 O 0.1901 0.23961 0.20733 0.0
O48 O 0.26715 0.2831 0.22553 0.0
O49 O 0.30395 0.27111 0.23497 0.0
O50 O 0.29312 0.22481 0.29559 0.0
O51 O 0.25988 0.2851 0.27734 0.0
O52 O 0.21735 0.25913 0.26049 0.0
O53 O 0.32844 0.2577 0.27936 0.0
O54 O 0.24974 0.21138 0.26816 0.0
O55 O 0.21293 0.22302 0.25767 0.0
C56 C 0.28381 0.21467 0.21546 0.0
C57 C 0.18331 0.28458 0.20705 0.0
C58 C 0.15822 0.31426 0.19499 0.0
C59 C 0.15207 0.32181 0.22044 0.0
C60 C 0.17678 0.29219 0.23227 0.0
C61 C 0.16119 0.3107 0.23891 0.0
C62 C 0.1738 0.29539 0.18841 0.0
C63 C 0.29317 0.28429 0.22169 0.0
C64 C 0.20025 0.26566 0.20005 0.0
C65 C 0.1938 0.13956 0.15366 0.0
C66 C 0.21526 0.15632 0.13811 0.0
C67 C 0.23281 0.28006 0.27645 0.0
C68 C 0.33566 0.24186 0.31644 0.0
C69 C 0.36266 0.22545 0.34189 0.0
C70 C 0.37057 0.2531 0.356 0.0
C71 C 0.34364 0.26929 0.33092 0.0
C72 C 0.3449 0.21978 0.32227 0.0
C73 C 0.36088 0.27478 0.35066 0.0
C74 C 0.22304 0.20795 0.26976 0.0
C75 C 0.32024 0.23683 0.29379 0.0
H76 H 0.13991 0.33608 0.22603 0.0
H77 H 0.18376 0.28384 0.24678 0.0
H78 H 0.15621 0.31649 0.25843 0.0
H79 H 0.17893 0.28956 0.16889 0.0
H80 H 0.3842 0.25785 0.37121 0.0
H81 H 0.33717 0.28671 0.32662 0.0
H82 H 0.33915 0.19863 0.31101 0.0
H83 H 0.36712 0.29606 0.36161 0.0
Eu84 Eu 0.73372 0.27869 0.25063 0.0
C85 C 0.8166 0.22311 0.19666 0.0
N86 N 0.79062 0.2092 0.20673 0.0
C87 C 0.77981 0.17627 0.16902 0.0
C88 C 0.82472 0.21478 0.17186 0.0
C89 C 0.77299 0.18486 0.19387 0.0
C90 C 0.8056 0.19162 0.15781 0.0
C91 C 0.86358 0.25762 0.20248 0.0
C92 C 0.83587 0.24436 0.21172 0.0
C93 C 0.87133 0.2503 0.17747 0.0
C94 C 0.85195 0.22896 0.1622 0.0
Eu95 Eu 0.78105 0.22681 0.24847 0.0
N96 N 0.82769 0.25157 0.23569 0.0
C97 C 0.8828 0.27739 0.21883 0.0
C98 C 0.84653 0.26962 0.25211 0.0
C99 C 0.87432 0.2831 0.24384 0.0
H100 H 0.75371 0.17165 0.20271 0.0
H101 H 0.88912 0.298 0.25667 0.0
H102 H 0.75154 0.31645 0.30676 0.0
H103 H 0.63108 0.2122 0.21696 0.0
H104 H 0.83985 0.27394 0.27144 0.0
H105 H 0.9043 0.28798 0.21244 0.0
H106 H 0.6821 0.23596 0.21329 0.0
H107 H 0.76536 0.15749 0.15869 0.0
H108 H 0.89243 0.26052 0.1699 0.0
H109 H 0.85849 0.22296 0.14314 0.0
H110 H 0.72859 0.32476 0.34794 0.0
H111 H 0.81101 0.18461 0.13868 0.0
H112 H 0.60481 0.21869 0.25707 0.0
N113 N 0.71423 0.28718 0.29094 0.0
C114 C 0.68594 0.27548 0.2938 0.0
C115 C 0.71641 0.31055 0.33299 0.0
C116 C 0.67186 0.28019 0.31694 0.0
C117 C 0.72945 0.30536 0.30973 0.0
C118 C 0.68751 0.2978 0.33666 0.0
N119 N 0.68514 0.25385 0.2515 0.0
C120 C 0.67114 0.23799 0.23119 0.0
C121 C 0.6417 0.24589 0.27626 0.0
C122 C 0.67104 0.25848 0.27358 0.0
C123 C 0.62732 0.2288 0.25571 0.0
C124 C 0.64209 0.22493 0.23307 0.0
H125 H 0.67746 0.30223 0.35462 0.0
H126 H 0.63155 0.27089 0.33726 0.0
H127 H 0.6052 0.24074 0.30179 0.0
O128 O 0.70992 0.30109 0.23583 0.0
O129 O 0.72418 0.24723 0.28049 0.0
O130 O 0.73633 0.20687 0.26312 0.0
O131 O 0.74994 0.3263 0.25071 0.0
O132 O 0.7319 0.24566 0.21665 0.0
O133 O 0.73923 0.20659 0.23082 0.0
O134 O 0.79874 0.21935 0.28074 0.0
O135 O 0.799 0.27165 0.23422 0.0
O136 O 0.76198 0.27471 0.21634 0.0
O137 O 0.79113 0.18703 0.24832 0.0
O138 O 0.77798 0.25762 0.28275 0.0
O139 O 0.7748 0.29847 0.26884 0.0
C140 C 0.72122 0.21921 0.27885 0.0
C141 C 0.73622 0.34354 0.21685 0.0
C142 C 0.72007 0.35981 0.18247 0.0
C143 C 0.74787 0.3772 0.17671 0.0
C144 C 0.76378 0.36085 0.21056 0.0
C145 C 0.76949 0.3775 0.19055 0.0
C146 C 0.71457 0.34297 0.20261 0.0
C147 C 0.72832 0.21766 0.21555 0.0
C148 C 0.72939 0.32666 0.23858 0.0
C149 C 0.64271 0.26749 0.31962 0.0
C150 C 0.62769 0.25039 0.29938 0.0
C151 C 0.78891 0.28127 0.21735 0.0
C152 C 0.79142 0.17073 0.28726 0.0
C153 C 0.80485 0.14496 0.31622 0.0
C154 C 0.77665 0.12758 0.31989 0.0
C155 C 0.76346 0.15295 0.29073 0.0
C156 C 0.812 0.16663 0.29991 0.0
C157 C 0.75613 0.13155 0.30714 0.0
C158 C 0.78488 0.28609 0.28362 0.0
C159 C 0.79986 0.19398 0.27082 0.0
H160 H 0.75298 0.39111 0.16183 0.0
H161 H 0.7809 0.36174 0.22114 0.0
H162 H 0.79074 0.391 0.18594 0.0
H163 H 0.69338 0.32928 0.20729 0.0
H164 H 0.77057 0.11059 0.33225 0.0
H165 H 0.7474 0.15569 0.28086 0.0
H166 H 0.8336 0.18053 0.29721 0.0
H167 H 0.7345 0.11792 0.3099 0.0
Eu168 Eu 0.75697 0.72383 0.27344 0.0
C169 C 0.8223 0.79131 0.19097 0.0
N170 N 0.81259 0.80079 0.21381 0.0
C171 C 0.85902 0.83303 0.22262 0.0
C172 C 0.85112 0.80105 0.1839 0.0
C173 C 0.83027 0.82325 0.22855 0.0
C174 C 0.86958 0.82133 0.20049 0.0
C175 C 0.81265 0.76491 0.14948 0.0
C176 C 0.80331 0.77338 0.1738 0.0
C177 C 0.84137 0.7734 0.14295 0.0
C178 C 0.86056 0.79131 0.16014 0.0
Eu179 Eu 0.76338 0.78024 0.2219 0.0
N180 N 0.77561 0.76437 0.18081 0.0
C181 C 0.79276 0.74847 0.13232 0.0
C182 C 0.75608 0.74919 0.16405 0.0
C183 C 0.76435 0.74103 0.13953 0.0
H184 H 0.82255 0.83455 0.24458 0.0
H185 H 0.74886 0.72898 0.12622 0.0
H186 H 0.69415 0.67284 0.25734 0.0
H187 H 0.78969 0.78497 0.36371 0.0
H188 H 0.73418 0.74353 0.16967 0.0
H189 H 0.79911 0.74177 0.11338 0.0
H190 H 0.79601 0.76792 0.31905 0.0
H191 H 0.87293 0.85014 0.23483 0.0
H192 H 0.84896 0.76672 0.12447 0.0
H193 H 0.88263 0.79832 0.15457 0.0
H194 H 0.6476 0.65145 0.27727 0.0
H195 H 0.89184 0.82927 0.19576 0.0
H196 H 0.74357 0.76547 0.38619 0.0
N197 N 0.71074 0.70184 0.28962 0.0
C198 C 0.70636 0.70911 0.31459 0.0
C199 C 0.66381 0.66796 0.28787 0.0
C200 C 0.67993 0.69676 0.32685 0.0
C201 C 0.69027 0.68073 0.27645 0.0
C202 C 0.65852 0.6762 0.31309 0.0
N203 N 0.75351 0.74156 0.31584 0.0
C204 C 0.77559 0.76055 0.32841 0.0
C205 C 0.72387 0.73784 0.35367 0.0
C206 C 0.72825 0.72942 0.32801 0.0
C207 C 0.74614 0.75842 0.36648 0.0
C208 C 0.77217 0.76964 0.35383 0.0
H209 H 0.63797 0.6662 0.32187 0.0
H210 H 0.65543 0.69598 0.36203 0.0
H211 H 0.69374 0.73196 0.38543 0.0
O212 O 0.78152 0.70912 0.29634 0.0
O213 O 0.73203 0.75549 0.2854 0.0
O214 O 0.73944 0.79039 0.25784 0.0
O215 O 0.7517 0.67748 0.27096 0.0
O216 O 0.79582 0.76298 0.26866 0.0
O217 O 0.78155 0.79949 0.25923 0.0
O218 O 0.73271 0.79039 0.20175 0.0
O219 O 0.77389 0.73809 0.20869 0.0
O220 O 0.7926 0.7313 0.24294 0.0
O221 O 0.77248 0.82377 0.21186 0.0
O222 O 0.72288 0.74316 0.22876 0.0
O223 O 0.73469 0.70479 0.23799 0.0
C224 C 0.72821 0.77877 0.2787 0.0
C225 C 0.77625 0.65735 0.29546 0.0
C226 C 0.80604 0.63834 0.31525 0.0
C227 C 0.78795 0.60971 0.30861 0.0
C228 C 0.75843 0.62849 0.28922 0.0
C229 C 0.76423 0.60488 0.29585 0.0
C230 C 0.79996 0.66228 0.30891 0.0
C231 C 0.79579 0.78992 0.27248 0.0
C232 C 0.76971 0.68179 0.28768 0.0
C233 C 0.67564 0.70519 0.35239 0.0
C234 C 0.69748 0.72568 0.36574 0.0
C235 C 0.78985 0.72698 0.21863 0.0
C236 C 0.74281 0.84063 0.19075 0.0
C237 C 0.71187 0.85827 0.17105 0.0
C238 C 0.73142 0.88676 0.17405 0.0
C239 C 0.76209 0.86941 0.19325 0.0
C240 C 0.71766 0.83502 0.17925 0.0
C241 C 0.75641 0.8922 0.18494 0.0
C242 C 0.7201 0.71523 0.22579 0.0
C243 C 0.74902 0.81762 0.20155 0.0
H244 H 0.79218 0.59101 0.31339 0.0
H245 H 0.73992 0.6241 0.27918 0.0
H246 H 0.75038 0.58273 0.29093 0.0
H247 H 0.81393 0.68441 0.31385 0.0
H248 H 0.72738 0.90484 0.16775 0.0
H249 H 0.78158 0.87452 0.20197 0.0
H250 H 0.70252 0.81304 0.17716 0.0
H251 H 0.77137 0.91424 0.18712 0.0
Eu252 Eu 0.23624 0.77381 0.24013 0.0
C253 C 0.26275 0.69036 0.29842 0.0
N254 N 0.27795 0.71881 0.29586 0.0
C255 C 0.28225 0.72949 0.34007 0.0
C256 C 0.25537 0.68069 0.32228 0.0
C257 C 0.28879 0.73813 0.31602 0.0
C258 C 0.26511 0.70076 0.34325 0.0
C259 C 0.239 0.64119 0.27912 0.0
C260 C 0.25475 0.6709 0.27705 0.0
C261 C 0.23046 0.63173 0.30289 0.0
C262 C 0.23869 0.65141 0.32441 0.0
Eu263 Eu 0.28649 0.73196 0.25487 0.0
N264 N 0.26337 0.68069 0.2543 0.0
C265 C 0.23289 0.62173 0.25723 0.0
C266 C 0.2596 0.66131 0.23311 0.0
C267 C 0.24372 0.63174 0.23416 0.0
H268 H 0.30192 0.76035 0.31349 0.0
H269 H 0.2401 0.61664 0.2172 0.0
H270 H 0.19687 0.72987 0.19403 0.0
H271 H 0.30087 0.88887 0.24157 0.0
H272 H 0.26894 0.66843 0.21531 0.0
H273 H 0.22074 0.59877 0.25801 0.0
H274 H 0.27416 0.84261 0.25948 0.0
H275 H 0.29031 0.74499 0.35612 0.0
H276 H 0.21803 0.60908 0.30483 0.0
H277 H 0.23238 0.64366 0.3426 0.0
H278 H 0.19377 0.72794 0.14873 0.0
H279 H 0.25989 0.69417 0.36191 0.0
H280 H 0.30279 0.89059 0.19594 0.0
N281 N 0.23034 0.77057 0.19684 0.0
C282 C 0.2455 0.79451 0.18521 0.0
C283 C 0.20877 0.74661 0.15866 0.0
C284 C 0.24367 0.79494 0.15948 0.0
C285 C 0.21106 0.74743 0.18427 0.0
C286 C 0.22547 0.77028 0.14611 0.0
N287 N 0.262 0.81855 0.22425 0.0
C288 C 0.27498 0.84331 0.23956 0.0
C289 C 0.27641 0.84521 0.18836 0.0
C290 C 0.26154 0.81938 0.1994 0.0
C291 C 0.29108 0.87032 0.20372 0.0
C292 C 0.29004 0.86946 0.22949 0.0
H293 H 0.22342 0.76975 0.12634 0.0
H294 H 0.25834 0.82088 0.12837 0.0
H295 H 0.28717 0.86486 0.15366 0.0
O296 O 0.21925 0.80147 0.26649 0.0
O297 O 0.28251 0.7899 0.22886 0.0
O298 O 0.29203 0.74788 0.21664 0.0
O299 O 0.19532 0.77652 0.23522 0.0
O300 O 0.25721 0.7897 0.27708 0.0
O301 O 0.29861 0.78002 0.26917 0.0
O302 O 0.31686 0.70982 0.25329 0.0
O303 O 0.25138 0.7368 0.28253 0.0
O304 O 0.21612 0.7316 0.25814 0.0
O305 O 0.3309 0.75708 0.25759 0.0
O306 O 0.26502 0.71605 0.21808 0.0
O307 O 0.2235 0.7251 0.22685 0.0
C308 C 0.29621 0.77531 0.21414 0.0
C309 C 0.17091 0.7838 0.2741 0.0
C310 C 0.15011 0.79268 0.31551 0.0
C311 C 0.12506 0.77037 0.30902 0.0
C312 C 0.14596 0.76121 0.26772 0.0
C313 C 0.12309 0.75469 0.28518 0.0
C314 C 0.17271 0.79923 0.29796 0.0
C315 C 0.28353 0.79508 0.28128 0.0
C316 C 0.19532 0.79273 0.25645 0.0
C317 C 0.2593 0.82024 0.14815 0.0
C318 C 0.27567 0.84531 0.16255 0.0
C319 C 0.22508 0.72524 0.27759 0.0
C320 C 0.35733 0.73415 0.23053 0.0
C321 C 0.36278 0.71919 0.18606 0.0
C322 C 0.39173 0.72719 0.1884 0.0
C323 C 0.38608 0.74246 0.23262 0.0
C324 C 0.3461 0.72414 0.20716 0.0
C325 C 0.40331 0.73941 0.21142 0.0
C326 C 0.23851 0.71016 0.21428 0.0
C327 C 0.33821 0.73394 0.25249 0.0
H328 H 0.107 0.76556 0.32213 0.0
H329 H 0.14396 0.749 0.2493 0.0
H330 H 0.1036 0.73794 0.28002 0.0
H331 H 0.19158 0.81747 0.30258 0.0
H332 H 0.4053 0.72274 0.17287 0.0
H333 H 0.39502 0.7506 0.2506 0.0
H334 H 0.32388 0.71839 0.20583 0.0
H335 H 0.42554 0.74533 0.21301 0.0
Eu336 Eu 0.23909 0.77364 0.74472 0.0
C337 C 0.31846 0.72044 0.69225 0.0
N338 N 0.29468 0.70517 0.70494 0.0
C339 C 0.28173 0.6699 0.66882 0.0
C340 C 0.32356 0.71228 0.66665 0.0
C341 C 0.27776 0.67879 0.69422 0.0
C342 C 0.30419 0.6873 0.65475 0.0
C343 C 0.36526 0.75634 0.69352 0.0
C344 C 0.33916 0.74219 0.70548 0.0
C345 C 0.36945 0.75005 0.66761 0.0
C346 C 0.3486 0.72809 0.65418 0.0
Eu347 Eu 0.28902 0.72403 0.74727 0.0
N348 N 0.33433 0.74832 0.73043 0.0
C349 C 0.38665 0.7756 0.70813 0.0
C350 C 0.35553 0.76549 0.74507 0.0
C351 C 0.38195 0.77966 0.73409 0.0
H352 H 0.26094 0.66453 0.7051 0.0
H353 H 0.39853 0.79397 0.74558 0.0
H354 H 0.25611 0.82423 0.79488 0.0
H355 H 0.13672 0.70072 0.7154 0.0
H356 H 0.35159 0.76899 0.76508 0.0
H357 H 0.40703 0.78682 0.69965 0.0
H358 H 0.18761 0.72599 0.71027 0.0
H359 H 0.26753 0.64958 0.66018 0.0
H360 H 0.38914 0.76118 0.65796 0.0
H361 H 0.35262 0.72249 0.6344 0.0
H362 H 0.23343 0.83819 0.83458 0.0
H363 H 0.30733 0.68026 0.63512 0.0
H364 H 0.1107 0.71144 0.75455 0.0
N365 N 0.21954 0.78969 0.78273 0.0
C366 C 0.19146 0.77693 0.78656 0.0
C367 C 0.22145 0.82065 0.82142 0.0
C368 C 0.17747 0.78476 0.80877 0.0
C369 C 0.23438 0.81226 0.79909 0.0
C370 C 0.19294 0.80657 0.82646 0.0
N371 N 0.19057 0.74904 0.74674 0.0
C372 C 0.17662 0.73 0.72772 0.0
C373 C 0.14743 0.74275 0.77159 0.0
C374 C 0.17658 0.75617 0.76807 0.0
C375 C 0.13309 0.72228 0.75252 0.0
C376 C 0.14772 0.71606 0.73043 0.0
H377 H 0.18294 0.81321 0.84375 0.0
H378 H 0.13747 0.77657 0.82951 0.0
H379 H 0.11121 0.73976 0.79708 0.0
O380 O 0.21808 0.79186 0.72163 0.0
O381 O 0.22408 0.74062 0.77342 0.0
O382 O 0.24625 0.70534 0.76657 0.0
O383 O 0.25513 0.82053 0.74114 0.0
O384 O 0.24028 0.73868 0.71335 0.0
O385 O 0.24647 0.70142 0.7309 0.0
O386 O 0.30929 0.71775 0.77849 0.0
O387 O 0.30661 0.77034 0.73639 0.0
O388 O 0.27081 0.76791 0.71432 0.0
O389 O 0.30104 0.6854 0.74629 0.0
O390 O 0.28498 0.75403 0.78215 0.0
O391 O 0.27691 0.79259 0.76773 0.0
C392 C 0.22691 0.71587 0.77749 0.0
C393 C 0.23412 0.84378 0.7159 0.0
C394 C 0.21263 0.86469 0.68887 0.0
C395 C 0.23274 0.89238 0.69506 0.0
C396 C 0.25397 0.87164 0.72175 0.0
C397 C 0.25319 0.89577 0.71141 0.0
C398 C 0.21331 0.84043 0.69954 0.0
C399 C 0.23416 0.71083 0.71549 0.0
C400 C 0.23582 0.81829 0.72629 0.0
C401 C 0.14853 0.77096 0.81248 0.0
C402 C 0.13357 0.75003 0.79397 0.0
C403 C 0.29717 0.77936 0.71876 0.0
C404 C 0.30027 0.66894 0.78498 0.0
C405 C 0.31099 0.64005 0.81276 0.0
C406 C 0.28254 0.623 0.81489 0.0
C407 C 0.2719 0.65203 0.78745 0.0
C408 C 0.31971 0.66319 0.79788 0.0
C409 C 0.26313 0.62925 0.80247 0.0
C410 C 0.28363 0.7806 0.78515 0.0
C411 C 0.31001 0.69226 0.76865 0.0
H412 H 0.23241 0.91155 0.6875 0.0
H413 H 0.27022 0.87481 0.73424 0.0
H414 H 0.26852 0.91718 0.71607 0.0
H415 H 0.19801 0.81899 0.69474 0.0
H416 H 0.27534 0.60509 0.82636 0.0
H417 H 0.25662 0.65632 0.77767 0.0
H418 H 0.34166 0.67626 0.79588 0.0
H419 H 0.24127 0.61641 0.80437 0.0
Eu420 Eu 0.25226 0.22129 0.77564 0.0
C421 C 0.31998 0.30302 0.6912 0.0
N422 N 0.30739 0.31073 0.71316 0.0
C423 C 0.34568 0.35593 0.71927 0.0
C424 C 0.34629 0.32156 0.68264 0.0
C425 C 0.31938 0.33717 0.72682 0.0
C426 C 0.35929 0.34802 0.69719 0.0
C427 C 0.31842 0.26882 0.65364 0.0
C428 C 0.30621 0.27686 0.67677 0.0
C429 C 0.3445 0.28743 0.64509 0.0
C430 C 0.35852 0.31352 0.65962 0.0
Eu431 Eu 0.26316 0.27696 0.72356 0.0
N432 N 0.28084 0.25923 0.68535 0.0
C433 C 0.30391 0.24238 0.63973 0.0
C434 C 0.26583 0.23452 0.67115 0.0
C435 C 0.27762 0.22506 0.64867 0.0
H436 H 0.30855 0.34415 0.74335 0.0
H437 H 0.26635 0.20451 0.63823 0.0
H438 H 0.20172 0.15718 0.75552 0.0
H439 H 0.258 0.29039 0.86439 0.0
H440 H 0.24516 0.22182 0.67756 0.0
H441 H 0.31256 0.23525 0.62195 0.0
H442 H 0.27537 0.27363 0.82276 0.0
H443 H 0.35527 0.37669 0.7303 0.0
H444 H 0.35385 0.28215 0.62707 0.0
H445 H 0.37862 0.3276 0.65267 0.0
H446 H 0.15374 0.12862 0.76882 0.0
H447 H 0.37955 0.36278 0.69125 0.0
H448 H 0.20992 0.264 0.88034 0.0
N449 N 0.20644 0.19066 0.78633 0.0
C450 C 0.19531 0.19897 0.80889 0.0
C451 C 0.16508 0.14853 0.78011 0.0
C452 C 0.16813 0.18259 0.81754 0.0
C453 C 0.1922 0.16519 0.7724 0.0
C454 C 0.15287 0.15742 0.80263 0.0
N455 N 0.23722 0.23959 0.81488 0.0
C456 C 0.25431 0.26254 0.82943 0.0
C457 C 0.20057 0.23213 0.84751 0.0
C458 C 0.21133 0.22358 0.8238 0.0
C459 C 0.21747 0.25671 0.86205 0.0
C460 C 0.24457 0.27178 0.85307 0.0
H461 H 0.13191 0.14432 0.80861 0.0
H462 H 0.13626 0.17925 0.84775 0.0
H463 H 0.16463 0.22253 0.87394 0.0
O464 O 0.28752 0.22119 0.79523 0.0
O465 O 0.22827 0.25447 0.78373 0.0
O466 O 0.2479 0.29489 0.76147 0.0
O467 O 0.25033 0.18279 0.7923 0.0
O468 O 0.29248 0.25809 0.76745 0.0
O469 O 0.28358 0.29808 0.75934 0.0
O470 O 0.22719 0.27431 0.70353 0.0
O471 O 0.28914 0.24564 0.71692 0.0
O472 O 0.26805 0.20403 0.73752 0.0
O473 O 0.26281 0.3142 0.70616 0.0
O474 O 0.22313 0.24003 0.7321 0.0
O475 O 0.23253 0.20025 0.73959 0.0
C476 C 0.23087 0.28135 0.77948 0.0
C477 C 0.29262 0.1749 0.79393 0.0
C478 C 0.32122 0.15041 0.80828 0.0
C479 C 0.32099 0.13458 0.78449 0.0
C480 C 0.29298 0.15928 0.77014 0.0
C481 C 0.30716 0.13925 0.76548 0.0
C482 C 0.30713 0.17078 0.81287 0.0
C483 C 0.29599 0.286 0.77214 0.0
C484 C 0.27567 0.19397 0.79961 0.0
C485 C 0.15716 0.19149 0.84092 0.0
C486 C 0.17334 0.21611 0.85587 0.0
C487 C 0.28591 0.21833 0.72032 0.0
C488 C 0.21901 0.31918 0.70628 0.0
C489 C 0.18645 0.34123 0.69526 0.0
C490 C 0.18558 0.35414 0.72015 0.0
C491 C 0.21789 0.33247 0.73086 0.0
C492 C 0.20331 0.32361 0.68844 0.0
C493 C 0.20118 0.34971 0.73779 0.0
C494 C 0.21999 0.21226 0.72691 0.0
C495 C 0.23738 0.3017 0.69926 0.0
H496 H 0.33174 0.1188 0.78057 0.0
H497 H 0.28187 0.16217 0.75534 0.0
H498 H 0.30719 0.12708 0.74716 0.0
H499 H 0.30679 0.18272 0.83131 0.0
H500 H 0.17333 0.36828 0.72591 0.0
H501 H 0.23037 0.32991 0.74457 0.0
H502 H 0.20426 0.31342 0.6694 0.0
H503 H 0.20062 0.36001 0.7568 0.0
Eu504 Eu 0.72793 0.27265 0.74413 0.0
C505 C 0.78335 0.20887 0.79941 0.0
N506 N 0.79347 0.23636 0.7922 0.0
C507 C 0.81239 0.25573 0.83225 0.0
C508 C 0.78679 0.20398 0.82372 0.0
C509 C 0.80901 0.2594 0.80781 0.0
C510 C 0.80095 0.22797 0.84035 0.0
C511 C 0.76144 0.15634 0.78857 0.0
C512 C 0.77098 0.1852 0.78201 0.0
C513 C 0.7641 0.15157 0.81295 0.0
C514 C 0.77691 0.17529 0.8304 0.0
Eu515 Eu 0.78672 0.23959 0.75025 0.0
N516 N 0.76884 0.19031 0.75845 0.0
C517 C 0.75011 0.13303 0.77023 0.0
C518 C 0.7592 0.16764 0.74018 0.0
C519 C 0.74925 0.13871 0.74587 0.0
H520 H 0.81973 0.28046 0.80133 0.0
H521 H 0.74119 0.12082 0.73141 0.0
H522 H 0.71092 0.2491 0.68506 0.0
H523 H 0.7589 0.38513 0.79115 0.0
H524 H 0.75932 0.17177 0.72116 0.0
H525 H 0.74257 0.11057 0.77455 0.0
H526 H 0.73848 0.33142 0.7889 0.0
H527 H 0.82439 0.27421 0.84464 0.0
H528 H 0.7569 0.12956 0.81833 0.0
H529 H 0.77963 0.17109 0.84888 0.0
H530 H 0.71735 0.26957 0.64467 0.0
H531 H 0.80401 0.22512 0.85917 0.0
H532 H 0.77324 0.40908 0.75234 0.0
N533 N 0.73146 0.2903 0.7053 0.0
C534 C 0.74301 0.31977 0.70509 0.0
C535 C 0.72487 0.28387 0.66148 0.0
C536 C 0.74724 0.33238 0.68256 0.0
C537 C 0.72122 0.27236 0.68426 0.0
C538 C 0.73835 0.31396 0.66054 0.0
N539 N 0.74383 0.32459 0.74918 0.0
C540 C 0.74572 0.34138 0.77179 0.0
C541 C 0.76072 0.36813 0.72806 0.0
C542 C 0.74972 0.33737 0.72762 0.0
C543 C 0.76488 0.38538 0.75121 0.0
C544 C 0.75685 0.37194 0.77316 0.0
H545 H 0.74117 0.32282 0.64286 0.0
H546 H 0.76326 0.37299 0.66566 0.0
H547 H 0.77503 0.4043 0.70548 0.0
O548 O 0.69263 0.28817 0.74853 0.0
O549 O 0.7624 0.27486 0.71355 0.0
O550 O 0.79936 0.28424 0.73685 0.0
O551 O 0.68511 0.24171 0.74518 0.0
O552 O 0.75124 0.28862 0.78011 0.0
O553 O 0.79503 0.28641 0.76802 0.0
O554 O 0.8129 0.23166 0.718 0.0
O555 O 0.74168 0.21577 0.76332 0.0
O556 O 0.72876 0.25457 0.78001 0.0
O557 O 0.82763 0.23736 0.75503 0.0
O558 O 0.76371 0.22227 0.71445 0.0
O559 O 0.7203 0.22682 0.72488 0.0
C560 C 0.7888 0.28835 0.71741 0.0
C561 C 0.65848 0.26042 0.77627 0.0
C562 C 0.65201 0.28247 0.81845 0.0
C563 C 0.63117 0.25631 0.82405 0.0
C564 C 0.63794 0.234 0.78201 0.0
C565 C 0.62438 0.23201 0.80587 0.0
C566 C 0.66553 0.28441 0.79477 0.0
C567 C 0.77836 0.29778 0.78258 0.0
C568 C 0.67463 0.26244 0.7521 0.0
C569 C 0.75952 0.3629 0.68282 0.0
C570 C 0.76627 0.38072 0.70551 0.0
C571 C 0.72693 0.22728 0.78003 0.0
C572 C 0.83786 0.20199 0.72507 0.0
C573 C 0.84073 0.16264 0.69369 0.0
C574 C 0.84767 0.14894 0.71175 0.0
C575 C 0.84442 0.18808 0.74331 0.0
C576 C 0.83613 0.1891 0.7003 0.0
C577 C 0.84936 0.16163 0.73657 0.0
C578 C 0.73684 0.21456 0.71114 0.0
C579 C 0.83139 0.22907 0.73141 0.0
H580 H 0.62029 0.25476 0.84234 0.0
H581 H 0.63268 0.21492 0.7682 0.0
H582 H 0.60858 0.21163 0.81026 0.0
H583 H 0.68148 0.30497 0.79087 0.0
H584 H 0.85168 0.12852 0.70662 0.0
H585 H 0.84558 0.19745 0.76269 0.0
H586 H 0.83129 0.19969 0.68599 0.0
H587 H 0.85449 0.15098 0.75059 0.0
Eu588 Eu 0.73062 0.73888 0.72242 0.0
C589 C 0.80632 0.81892 0.8074 0.0
N590 N 0.81237 0.80855 0.78361 0.0
C591 C 0.84606 0.85572 0.77716 0.0
C592 C 0.81971 0.84844 0.8168 0.0
C593 C 0.83255 0.82624 0.76873 0.0
C594 C 0.83953 0.86692 0.80123 0.0
C595 C 0.78013 0.81001 0.84724 0.0
C596 C 0.7865 0.79996 0.82245 0.0
C597 C 0.79338 0.83939 0.8566 0.0
C598 C 0.81302 0.85857 0.84139 0.0
Eu599 Eu 0.78867 0.75801 0.77217 0.0
N600 N 0.77322 0.77179 0.81277 0.0
C601 C 0.76068 0.79015 0.86195 0.0
C602 C 0.75471 0.75224 0.82718 0.0
C603 C 0.74774 0.76125 0.85182 0.0
H604 H 0.83901 0.81768 0.75062 0.0
H605 H 0.7328 0.74578 0.86308 0.0
H606 H 0.67325 0.68582 0.7436 0.0
H607 H 0.79353 0.73917 0.63475 0.0
H608 H 0.74608 0.72952 0.82004 0.0
H609 H 0.75605 0.79673 0.8813 0.0
H610 H 0.77849 0.76033 0.6755 0.0
H611 H 0.86175 0.86969 0.76518 0.0
H612 H 0.78855 0.84749 0.87558 0.0
H613 H 0.82307 0.88119 0.84888 0.0
H614 H 0.64603 0.63421 0.73059 0.0
H615 H 0.85021 0.88975 0.80774 0.0
H616 H 0.76848 0.6875 0.61905 0.0
N617 N 0.70216 0.68973 0.7119 0.0
C618 C 0.70899 0.67673 0.68941 0.0
C619 C 0.66381 0.64586 0.71894 0.0
C620 C 0.69362 0.64738 0.68108 0.0
C621 C 0.67956 0.67503 0.72642 0.0
C622 C 0.67096 0.63191 0.69627 0.0
N623 N 0.74675 0.7207 0.68348 0.0
C624 C 0.76804 0.73765 0.66915 0.0
C625 C 0.73913 0.67984 0.65131 0.0
C626 C 0.73156 0.69277 0.67462 0.0
C627 C 0.76195 0.69667 0.63703 0.0
C628 C 0.77627 0.72579 0.64589 0.0
H629 H 0.65868 0.60932 0.69053 0.0
H630 H 0.68979 0.61183 0.65132 0.0
H631 H 0.72958 0.64021 0.6253 0.0
O632 O 0.7256 0.77165 0.70145 0.0
O633 O 0.7584 0.70962 0.71757 0.0
O634 O 0.80046 0.73687 0.73442 0.0
O635 O 0.69068 0.73253 0.7076 0.0
O636 O 0.76665 0.78245 0.72322 0.0
O637 O 0.80418 0.77285 0.73434 0.0
O638 O 0.8006 0.72825 0.79282 0.0
O639 O 0.76037 0.78676 0.77767 0.0
O640 O 0.71827 0.75956 0.76043 0.0
O641 O 0.83121 0.769 0.78151 0.0
O642 O 0.75229 0.71444 0.77234 0.0
O643 O 0.71449 0.72337 0.76024 0.0
C644 C 0.78536 0.71503 0.71911 0.0
C645 C 0.68057 0.77535 0.70526 0.0
C646 C 0.6566 0.8065 0.69351 0.0
C647 C 0.64505 0.80819 0.71823 0.0
C648 C 0.66864 0.77736 0.72963 0.0
C649 C 0.65108 0.79376 0.73608 0.0
C650 C 0.67446 0.78985 0.68713 0.0
C651 C 0.79344 0.78645 0.72141 0.0
C652 C 0.69904 0.75779 0.69887 0.0
C653 C 0.70129 0.63439 0.65794 0.0
C654 C 0.72394 0.65057 0.6431 0.0
C655 C 0.7333 0.78111 0.77621 0.0
C656 C 0.8498 0.74128 0.80358 0.0
C657 C 0.86975 0.71202 0.82349 0.0
C658 C 0.89607 0.73388 0.8215 0.0
C659 C 0.87645 0.76295 0.80212 0.0
C660 C 0.84641 0.71577 0.81468 0.0
C661 C 0.89932 0.75922 0.81102 0.0
C662 C 0.72535 0.71024 0.77372 0.0
C663 C 0.82654 0.74582 0.79261 0.0
H664 H 0.63084 0.82024 0.72372 0.0
H665 H 0.67271 0.7659 0.74355 0.0
H666 H 0.64189 0.79506 0.75496 0.0
H667 H 0.68369 0.7883 0.66826 0.0
H668 H 0.91417 0.73139 0.82829 0.0
H669 H 0.87981 0.78286 0.79388 0.0
H670 H 0.82607 0.69888 0.81609 0.0
H671 H 0.9197 0.77601 0.80968 0.0
C672 C 0.97356 0.0633 0.53468 0.0
C673 C 0.97283 0.05485 0.4566 0.0
C674 C 0.96119 0.94499 0.47446 0.0
Mg675 Mg 0.01321 0.0688 0.50014 0.0
O676 O 0.991 0.02795 0.50738 0.0
Mg677 Mg 0.94974 0.00155 0.49689 0.0
Mg678 Mg 0.01175 5e-05 0.49851 0.0
O679 O 0.03203 0.97178 0.48951 0.0
Mg680 Mg 0.00935 0.92996 0.49463 0.0
Mg681 Mg 0.07318 0.99828 0.50075 0.0
C682 C 0.06225 0.0561 0.5203 0.0
C683 C 0.06138 0.03015 0.45655 0.0
O684 O 0.97714 0.0404 0.52194 0.0
O685 O 0.99312 0.08749 0.53202 0.0
O686 O 0.95686 0.03158 0.46589 0.0
O687 O 0.99617 0.07126 0.46556 0.0
O688 O 0.05416 0.07326 0.50971 0.0
O689 O 0.04876 0.02849 0.51963 0.0
C690 C 0.96241 0.96928 0.54032 0.0
O691 O 0.98832 0.97629 0.53295 0.0
O692 O 0.94497 0.97558 0.52903 0.0
O693 O 0.04684 0.95964 0.47601 0.0
O694 O 0.032 0.91303 0.46335 0.0
O695 O 0.06371 0.96855 0.53246 0.0
C696 C 0.05136 0.93771 0.46253 0.0
O697 O 0.02506 0.92796 0.5302 0.0
O698 O 0.96906 0.926 0.48259 0.0
C699 C 0.04722 0.94488 0.54095 0.0
O700 O 0.97494 0.97247 0.4772 0.0
O701 O 0.03551 0.02358 0.4641 0.0
O702 O 0.07881 0.02374 0.46782 0.0
C703 C 0.44481 0.06075 0.04661 0.0
C704 C 0.4706 0.05792 0.96789 0.0
C705 C 0.46285 0.94769 0.96472 0.0
Mg706 Mg 0.50201 0.0653 0.01565 0.0
O707 O 0.48901 0.02434 0.01561 0.0
Mg708 Mg 0.45034 0.00268 0.00419 0.0
Mg709 Mg 0.51034 0.99919 0.99579 0.0
O710 O 0.53162 0.97419 0.97587 0.0
Mg711 Mg 0.51844 0.93314 0.97325 0.0
Mg712 Mg 0.56976 0.99469 0.98827 0.0
C713 C 0.55842 0.05142 0.02423 0.0
C714 C 0.55555 0.0371 0.95466 0.0
O715 O 0.43374 0.03522 0.03429 0.0
O716 O 0.471 0.07539 0.04343 0.0
O717 O 0.45474 0.03347 0.975 0.0
O718 O 0.49225 0.07383 0.9796 0.0
O719 O 0.54451 0.06912 0.02529 0.0
O720 O 0.54858 0.02412 0.01603 0.0
C721 C 0.46659 0.96152 0.03773 0.0
O722 O 0.49079 0.96722 0.02609 0.0
O723 O 0.44867 0.97262 0.03305 0.0
O724 O 0.58693 0.96294 0.95764 0.0
O725 O 0.54967 0.92421 0.94568 0.0
O726 O 0.5632 0.96211 0.01703 0.0
C727 C 0.576 0.93846 0.9438 0.0
O728 O 0.52627 0.92184 0.00855 0.0
O729 O 0.47717 0.93029 0.96238 0.0
C730 C 0.54666 0.93686 0.02208 0.0
O731 O 0.47159 0.97386 0.97593 0.0
O732 O 0.53084 0.03145 0.96543 0.0
O733 O 0.57288 0.02564 0.96008 0.0
C734 C 0.94294 0.56342 0.05082 0.0
C735 C 0.97616 0.56791 0.97394 0.0
C736 C 0.95959 0.45081 0.96972 0.0
Mg737 Mg 1.00127 0.56786 0.02384 0.0
O738 O 0.98704 0.52682 0.01902 0.0
Mg739 Mg 0.94956 0.50822 0.00467 0.0
Mg740 Mg 1.00836 0.50181 -0.00061 0.0
O741 O 0.0296 0.47659 0.97979 0.0
Mg742 Mg 0.01511 0.43544 0.97823 0.0
Mg743 Mg 0.06757 0.49602 0.99349 0.0
C744 C 0.05543 0.55102 0.03366 0.0
C745 C 0.0562 0.54159 0.96132 0.0
O746 O 0.93213 0.54017 0.03547 0.0
O747 O 0.96947 0.5764 0.05096 0.0
O748 O 0.95895 0.54237 0.97711 0.0
O749 O 0.99526 0.58195 0.98907 0.0
O750 O 0.04168 0.56896 0.03573 0.0
O751 O 0.04642 0.52501 0.02192 0.0
C752 C 0.95971 0.46217 0.03705 0.0
O753 O 0.98526 0.4684 0.02823 0.0
O754 O 0.94356 0.47482 0.03113 0.0
O755 O 0.08409 0.46414 0.96199 0.0
O756 O 0.04651 0.42467 0.9517 0.0
O757 O 0.06013 0.4625 0.0213 0.0
C758 C 0.07283 0.43896 0.94912 0.0
O759 O 0.02192 0.42363 0.01364 0.0
O760 O 0.97289 0.43261 0.96915 0.0
C761 C 0.04291 0.43776 0.02667 0.0
O762 O 0.97042 0.47837 0.97714 0.0
O763 O 0.0308 0.53514 0.97045 0.0
O764 O 0.0727 0.5293 0.96707 0.0
C765 C 0.4339 0.54185 0.03254 0.0
C766 C 0.47252 0.54752 0.95913 0.0
C767 C 0.46601 0.43642 0.96953 0.0
Mg768 Mg 0.49472 0.55666 0.01125 0.0
O769 O 0.48402 0.51627 0.01099 0.0
Mg770 Mg 0.44999 0.49021 0.99382 0.0
Mg771 Mg 0.50981 0.49522 0.99803 0.0
O772 O 0.53531 0.4732 0.98578 0.0
Mg773 Mg 0.52096 0.43096 0.98641 0.0
Mg774 Mg 0.56991 0.50169 0.00318 0.0
C775 C 0.55014 0.55388 0.02997 0.0
C776 C 0.55762 0.53476 0.96014 0.0
O777 O 0.42697 0.51745 0.01837 0.0
O778 O 0.45904 0.55971 0.03365 0.0
O779 O 0.45765 0.52132 0.96331 0.0
O780 O 0.48995 0.56468 0.97449 0.0
O781 O 0.5354 0.56944 0.02676 0.0
O782 O 0.5422 0.52622 0.02347 0.0
C783 C 0.46273 0.4554 0.03523 0.0
O784 O 0.48884 0.46562 0.02893 0.0
O785 O 0.44442 0.46122 0.02466 0.0
O786 O 0.56973 0.4653 0.97431 0.0
O787 O 0.54846 0.42116 0.95655 0.0
O788 O 0.56441 0.47023 0.03238 0.0
C789 C 0.56969 0.44446 0.95773 0.0
O790 O 0.5338 0.42513 0.02207 0.0
O791 O 0.4784 0.41965 0.97514 0.0
C792 C 0.55195 0.44349 0.03644 0.0
O793 O 0.47669 0.46437 0.97301 0.0
O794 O 0.53135 0.52515 0.96636 0.0
O795 O 0.57531 0.52963 0.97203 0.0
C796 C 0.94466 0.56125 0.54892 0.0
C797 C 0.96787 0.55776 0.46981 0.0
C798 C 0.96273 0.44545 0.47414 0.0
Mg799 Mg 1.00123 0.56697 0.51711 0.0
O800 O 0.98982 0.52621 0.51661 0.0
Mg801 Mg 0.95098 0.50313 0.50673 0.0
Mg802 Mg 0.01148 0.50114 0.49721 0.0
O803 O 0.03282 0.47591 0.47769 0.0
Mg804 Mg 0.02103 0.43562 0.48064 0.0
Mg805 Mg 0.07192 0.4991 0.48718 0.0
C806 C 0.0593 0.55568 0.52441 0.0
C807 C 0.05237 0.53676 0.45265 0.0
O808 O 0.93385 0.53566 0.53663 0.0
O809 O 0.97068 0.57624 0.54549 0.0
O810 O 0.95293 0.53245 0.47601 0.0
O811 O 0.98877 0.57451 0.48208 0.0
O812 O 0.04413 0.57224 0.52635 0.0
O813 O 0.05075 0.52872 0.515 0.0
C814 C 0.97037 0.46571 0.54176 0.0
O815 O 0.99441 0.4714 0.52973 0.0
O816 O 0.95173 0.47552 0.53653 0.0
O817 O 0.08771 0.46567 0.45716 0.0
O818 O 0.05094 0.42392 0.45258 0.0
O819 O 0.07071 0.47026 0.51748 0.0
C820 C 0.0765 0.43901 0.44692 0.0
O821 O 0.03206 0.43078 0.51691 0.0
O822 O 0.9774 0.42867 0.47376 0.0
C823 C 0.05492 0.44691 0.5265 0.0
O824 O 0.97242 0.47336 0.47975 0.0
O825 O 0.02834 0.53075 0.46468 0.0
O826 O 0.07118 0.52713 0.45769 0.0
C827 C 0.44483 0.06277 0.54967 0.0
C828 C 0.47222 0.06111 0.47108 0.0
C829 C 0.45859 0.94751 0.47178 0.0
Mg830 Mg 0.5021 0.06637 0.51924 0.0
O831 O 0.48809 0.02546 0.51864 0.0
Mg832 Mg 0.44955 0.00504 0.50658 0.0
Mg833 Mg 0.50885 0.9994 0.4997 0.0
O834 O 0.52907 0.97295 0.48081 0.0
Mg835 Mg 0.51389 0.93185 0.48003 0.0
Mg836 Mg 0.56722 0.9925 0.49388 0.0
C837 C 0.55695 0.0508 0.53031 0.0
C838 C 0.55589 0.03591 0.45928 0.0
O839 O 0.43334 0.03754 0.53707 0.0
O840 O 0.4711 0.07692 0.54652 0.0
O841 O 0.4555 0.03682 0.47782 0.0
O842 O 0.49402 0.07599 0.48299 0.0
O843 O 0.54331 0.06866 0.53063 0.0
O844 O 0.54736 0.02371 0.52102 0.0
C845 C 0.46267 0.96207 0.54009 0.0
O846 O 0.48769 0.96806 0.53014 0.0
O847 O 0.44579 0.97382 0.53428 0.0
O848 O 0.58269 0.95918 0.46342 0.0
O849 O 0.5447 0.91999 0.45353 0.0
O850 O 0.55976 0.96015 0.52313 0.0
C851 C 0.57108 0.93391 0.45087 0.0
O852 O 0.52161 0.92102 0.51547 0.0
O853 O 0.47139 0.92884 0.47113 0.0
C854 C 0.54252 0.93539 0.52856 0.0
O855 O 0.46997 0.97497 0.47903 0.0
O856 O 0.53074 0.03077 0.46893 0.0
O857 O 0.57201 0.02368 0.46586 0.0
H858 H 0.22816 0.15971 0.28605 0.0
H859 H 0.19613 0.12798 0.3156 0.0
H860 H 0.14298 0.18043 0.32246 0.0
H861 H 0.17429 0.21161 0.29255 0.0
H862 H 0.1617 0.16722 0.37017 0.0
H863 H 0.11239 0.12243 0.29504 0.0
H864 H 0.1081 0.10055 0.25108 0.0
H865 H 0.14174 0.03619 0.26618 0.0
H866 H 0.14573 0.05741 0.31038 0.0
H867 H 0.04805 0.0745 0.44144 0.0
H868 H 0.07172 0.10386 0.40714 0.0
H869 H 0.12243 0.04906 0.38696 0.0
H870 H 0.09942 0.02024 0.42129 0.0
H871 H 0.10264 0.06432 0.34522 0.0
H872 H 0.14982 0.10758 0.42083 0.0
H873 H 0.1529 0.12832 0.46508 0.0
H874 H 0.12505 0.19673 0.44932 0.0
H875 H 0.12129 0.17603 0.40501 0.0
C876 C 0.20954 0.16429 0.29372 0.0
C877 C 0.20363 0.18799 0.28687 0.0
C878 C 0.1913 0.1462 0.31054 0.0
C879 C 0.16724 0.15192 0.32109 0.0
C880 C 0.16141 0.17566 0.31443 0.0
C881 C 0.17927 0.19334 0.29726 0.0
C882 C 0.14843 0.13342 0.33948 0.0
C883 C 0.14842 0.14489 0.36472 0.0
C884 C 0.13157 0.1042 0.33236 0.0
C885 C 0.12966 0.09168 0.30584 0.0
C886 C 0.11909 0.10376 0.2889 0.0
C887 C 0.11663 0.09144 0.26398 0.0
C888 C 0.12492 0.06719 0.25576 0.0
C889 C 0.13542 0.05504 0.27254 0.0
C890 C 0.13766 0.0671 0.29755 0.0
C891 C 0.06388 0.06849 0.42935 0.0
C892 C 0.0721 0.04533 0.43405 0.0
C893 C 0.07744 0.08528 0.4099 0.0
C894 C 0.09896 0.0787 0.39469 0.0
C895 C 0.10592 0.05448 0.39849 0.0
C896 C 0.09284 0.03815 0.41815 0.0
C897 C 0.11573 0.09813 0.37598 0.0
C898 C 0.1156 0.08678 0.3507 0.0
C899 C 0.13251 0.12748 0.38312 0.0
C900 C 0.13487 0.14002 0.4097 0.0
C901 C 0.14405 0.12685 0.42685 0.0
C902 C 0.14597 0.13863 0.45193 0.0
C903 C 0.13907 0.16376 0.46003 0.0
C904 C 0.13031 0.17721 0.44304 0.0
C905 C 0.12827 0.16546 0.41794 0.0
H906 H 0.14059 0.17286 0.47946 0.0
H907 H 0.12307 0.05774 0.23644 0.0
H908 H 0.80469 0.13835 0.36548 0.0
H909 H 0.84056 0.12925 0.38627 0.0
H910 H 0.89047 0.13188 0.31678 0.0
H911 H 0.85467 0.141 0.29587 0.0
H912 H 0.88254 0.08246 0.34094 0.0
H913 H 0.91346 0.18649 0.36006 0.0
H914 H 0.90912 0.23466 0.37515 0.0
H915 H 0.88186 0.20752 0.44824 0.0
H916 H 0.88593 0.15909 0.43354 0.0
H917 H 0.99853 0.08527 0.41647 0.0
H918 H 0.97628 0.10573 0.38895 0.0
H919 H 0.89793 0.07312 0.43146 0.0
H920 H 0.9193 0.05169 0.45789 0.0
H921 H 0.92832 0.14258 0.41641 0.0
H922 H 0.88311 0.03568 0.39278 0.0
H923 H 0.88624 0.98672 0.37902 0.0
H924 H 0.93879 0.01947 0.315 0.0
H925 H 0.93665 0.06895 0.32895 0.0
C926 C 0.82334 0.13706 0.35467 0.0
C927 C 0.82688 0.14032 0.32906 0.0
C928 C 0.84391 0.13215 0.3666 0.0
C929 C 0.86827 0.1302 0.3531 0.0
C930 C 0.8719 0.13353 0.32755 0.0
C931 C 0.8515 0.1388 0.31567 0.0
C932 C 0.88893 0.1227 0.36541 0.0
C933 C 0.89302 0.09598 0.35709 0.0
C934 C 0.9023 0.14007 0.38671 0.0
C935 C 0.89973 0.16908 0.39562 0.0
C936 C 0.90629 0.1907 0.37929 0.0
C937 C 0.90392 0.21807 0.38778 0.0
C938 C 0.89502 0.22409 0.41259 0.0
C939 C 0.88866 0.20281 0.429 0.0
C940 C 0.89107 0.17542 0.42062 0.0
C941 C 0.97649 0.08217 0.41957 0.0
C942 C 0.96046 0.06627 0.43882 0.0
C943 C 0.9639 0.09393 0.40403 0.0
C944 C 0.93546 0.09059 0.40817 0.0
C945 C 0.91979 0.07552 0.42782 0.0
C946 C 0.93201 0.06309 0.44273 0.0
C947 C 0.92143 0.10233 0.39205 0.0
C948 C 0.91842 0.12963 0.3998 0.0
C949 C 0.90874 0.08544 0.37042 0.0
C950 C 0.91025 0.05599 0.36216 0.0
C951 C 0.89573 0.03252 0.37602 0.0
C952 C 0.89725 0.00468 0.36816 0.0
C953 C 0.91281 -2e-05 0.3462 0.0
C954 C 0.92687 0.02316 0.33207 0.0
C955 C 0.92561 0.05112 0.34 0.0
H956 H 0.91384 0.97836 0.34006 0.0
H957 H 0.89316 0.2453 0.41912 0.0
H958 H 0.78415 0.83195 0.30497 0.0
H959 H 0.81309 0.86383 0.33801 0.0
H960 H 0.87858 0.8282 0.31208 0.0
H961 H 0.84889 0.79513 0.28002 0.0
H962 H 0.87194 0.8274 0.35796 0.0
H963 H 0.88227 0.89958 0.30608 0.0
H964 H 0.87179 0.93131 0.28009 0.0
H965 H 0.8315 0.96644 0.34382 0.0
H966 H 0.84041 0.93385 0.36996 0.0
H967 H 0.97731 0.93412 0.42724 0.0
H968 H 0.9481 0.91289 0.39174 0.0
H969 H 0.87478 0.91077 0.43975 0.0
H970 H 0.90435 0.93213 0.47575 0.0
H971 H 0.88595 0.93263 0.38358 0.0
H972 H 0.8796 0.85243 0.43321 0.0
H973 H 0.9034 0.82758 0.4548 0.0
H974 H 0.95194 0.8157 0.38712 0.0
H975 H 0.92867 0.84078 0.36525 0.0
C976 C 0.8049 0.83133 0.30624 0.0
C977 C 0.81441 0.81114 0.29031 0.0
C978 C 0.82146 0.84961 0.32497 0.0
C979 C 0.84808 0.84853 0.32749 0.0
C980 C 0.85802 0.82923 0.31066 0.0
C981 C 0.84116 0.81042 0.29238 0.0
C982 C 0.86448 0.86549 0.34896 0.0
C983 C 0.87501 0.85045 0.36331 0.0
C984 C 0.86879 0.89567 0.35604 0.0
C985 C 0.86172 0.91393 0.33997 0.0
C986 C 0.87061 0.91357 0.31447 0.0
C987 C 0.86494 0.93173 0.29969 0.0
C988 C 0.85082 0.95074 0.31025 0.0
C989 C 0.84221 0.95151 0.3356 0.0
C990 C 0.84739 0.93305 0.35037 0.0
C991 C 0.95496 0.92939 0.43009 0.0
C992 C 0.94277 0.93433 0.45392 0.0
C993 C 0.93843 0.91748 0.40989 0.0
C994 C 0.90948 0.91039 0.4133 0.0
C995 C 0.89721 0.91637 0.43696 0.0
C996 C 0.9139 0.92828 0.45738 0.0
C997 C 0.89229 0.89417 0.3924 0.0
C998 C 0.88207 0.90943 0.37815 0.0
C999 C 0.88936 0.8646 0.38462 0.0
C1000 C 0.90246 0.84854 0.39765 0.0
C1001 C 0.89541 0.84459 0.42298 0.0
C1002 C 0.9088 0.83046 0.43526 0.0
C1003 C 0.92917 0.82006 0.42235 0.0
C1004 C 0.93613 0.8237 0.3971 0.0
C1005 C 0.92281 0.83781 0.38475 0.0
H1006 H 0.93953 0.80916 0.43189 0.0
H1007 H 0.84666 0.96498 0.29884 0.0
H1008 H 0.19157 0.81065 0.34823 0.0
H1009 H 0.20133 0.854 0.37957 0.0
H1010 H 0.12431 0.86418 0.36488 0.0
H1011 H 0.11452 0.82126 0.33372 0.0
H1012 H 0.17757 0.91572 0.35996 0.0
H1013 H 0.12058 0.83933 0.41512 0.0
H1014 H 0.1136 0.7957 0.43625 0.0
H1015 H 0.19388 0.83714 0.46699 0.0
H1016 H 0.20134 0.88092 0.4458 0.0
H1017 H 0.06174 0.91299 0.4171 0.0
H1018 H 0.10699 0.91358 0.39779 0.0
H1019 H 0.14758 0.9681 0.46233 0.0
H1020 H 0.1019 0.96812 0.48152 0.0
H1021 H 0.15289 0.91087 0.4505 0.0
H1022 H 0.17766 0.99544 0.4124 0.0
H1023 H 0.17079 0.03465 0.39291 0.0
H1024 H 0.13857 0.97381 0.32899 0.0
H1025 H 0.14447 0.93404 0.34823 0.0
C1026 C 0.17641 0.82176 0.3523 0.0
C1027 C 0.15221 0.8127 0.33875 0.0
C1028 C 0.18218 0.84654 0.36989 0.0
C1029 C 0.16386 0.8624 0.37385 0.0
C1030 C 0.13887 0.85227 0.36157 0.0
C1031 C 0.13301 0.82751 0.34419 0.0
C1032 C 0.17007 0.88987 0.39054 0.0
C1033 C 0.17287 0.91529 0.37992 0.0
C1034 C 0.16572 0.88954 0.4166 0.0
C1035 C 0.16173 0.86302 0.42858 0.0
C1036 C 0.13685 0.83892 0.42615 0.0
C1037 C 0.13277 0.81425 0.43819 0.0
C1038 C 0.15335 0.81359 0.45286 0.0
C1039 C 0.17802 0.83763 0.45553 0.0
C1040 C 0.18221 0.86235 0.44348 0.0
C1041 C 0.08041 0.92557 0.42686 0.0
C1042 C 0.07869 0.94021 0.45068 0.0
C1043 C 0.10623 0.92641 0.41573 0.0
C1044 C 0.13059 0.94148 0.42853 0.0
C1045 C 0.12901 0.95705 0.45206 0.0
C1046 C 0.10304 0.9568 0.46298 0.0
C1047 C 0.1557 0.93457 0.41923 0.0
C1048 C 0.15991 0.91293 0.43101 0.0
C1049 C 0.16516 0.93782 0.39404 0.0
C1050 C 0.16209 0.96173 0.38169 0.0
C1051 C 0.16917 0.99037 0.39415 0.0
C1052 C 0.16534 0.01271 0.38316 0.0
C1053 C 0.15442 0.00677 0.35966 0.0
C1054 C 0.14722 0.97843 0.34713 0.0
C1055 C 0.15092 0.95597 0.35805 0.0
H1056 H 0.15145 0.02409 0.3512 0.0
H1057 H 0.15013 0.7945 0.46223 0.0
H1058 H 0.22006 0.88685 0.64437 0.0
H1059 H 0.18412 0.89071 0.62023 0.0
H1060 H 0.12007 0.84015 0.67014 0.0
H1061 H 0.15611 0.83621 0.69458 0.0
H1062 H 0.10984 0.83378 0.61176 0.0
H1063 H 0.1343 0.90352 0.68803 0.0
H1064 H 0.17054 0.93753 0.71511 0.0
H1065 H 0.20806 0.9883 0.65423 0.0
H1066 H 0.17232 0.95427 0.62667 0.0
H1067 H 0.0196 0.89744 0.56722 0.0
H1068 H 0.04009 0.87668 0.59551 0.0
H1069 H 0.11893 0.94646 0.5864 0.0
H1070 H 0.09842 0.96807 0.55998 0.0
H1071 H 0.11435 0.93743 0.63005 0.0
H1072 H 0.09907 0.87189 0.55282 0.0
H1073 H 0.07094 0.83776 0.51975 0.0
H1074 H 0.02396 0.78062 0.57403 0.0
H1075 H 0.05165 0.81459 0.60749 0.0
C1076 C 0.19832 0.876 0.64992 0.0
C1077 C 0.19087 0.86176 0.67165 0.0
C1078 C 0.17783 0.87795 0.63595 0.0
C1079 C 0.14951 0.86585 0.64352 0.0
C1080 C 0.14183 0.84943 0.66393 0.0
C1081 C 0.16243 0.84734 0.67793 0.0
C1082 C 0.129 0.87543 0.6331 0.0
C1083 C 0.11029 0.85624 0.61601 0.0
C1084 C 0.13021 0.90491 0.6383 0.0
C1085 C 0.15064 0.92634 0.65531 0.0
C1086 C 0.15028 0.92193 0.68043 0.0
C1087 C 0.17076 0.94118 0.69585 0.0
C1088 C 0.19158 0.96506 0.6864 0.0
C1089 C 0.19189 0.96982 0.66154 0.0
C1090 C 0.1715 0.95059 0.64603 0.0
C1091 C 0.04111 0.90866 0.57178 0.0
C1092 C 0.05731 0.93441 0.56121 0.0
C1093 C 0.05293 0.89656 0.5877 0.0
C1094 C 0.08131 0.90959 0.59278 0.0
C1095 C 0.09701 0.93588 0.58298 0.0
C1096 C 0.08513 0.94829 0.56772 0.0
C1097 C 0.09547 0.89618 0.60772 0.0
C1098 C 0.11315 0.91472 0.62595 0.0
C1099 C 0.09389 0.86638 0.60279 0.0
C1100 C 0.07722 0.84595 0.5827 0.0
C1101 C 0.08262 0.85214 0.55773 0.0
C1102 C 0.06677 0.83282 0.53891 0.0
C1103 C 0.04562 0.80708 0.5448 0.0
C1104 C 0.04032 0.80059 0.56951 0.0
C1105 C 0.05609 0.81987 0.58841 0.0
H1106 H 0.0334 0.79214 0.53021 0.0
H1107 H 0.20746 0.97989 0.69834 0.0
H1108 H 0.22249 0.16118 0.70212 0.0
H1109 H 0.19731 0.13328 0.66572 0.0
H1110 H 0.1517 0.19314 0.67057 0.0
H1111 H 0.17815 0.22239 0.70631 0.0
H1112 H 0.12355 0.11916 0.66525 0.0
H1113 H 0.18012 0.20768 0.63116 0.0
H1114 H 0.22136 0.24898 0.61946 0.0
H1115 H 0.25995 0.18878 0.58083 0.0
H1116 H 0.2194 0.14704 0.59335 0.0
H1117 H 0.0811 0.11319 0.53927 0.0
H1118 H 0.10888 0.13434 0.57515 0.0
H1119 H 0.12231 0.05272 0.57745 0.0
H1120 H 0.09266 0.03031 0.54205 0.0
H1121 H 0.16704 0.13432 0.57975 0.0
H1122 H 0.10313 0.04442 0.61854 0.0
H1123 H 0.05575 0.00905 0.62542 0.0
H1124 H 0.02529 0.0799 0.65182 0.0
H1125 H 0.07236 0.11569 0.64426 0.0
C1126 C 0.20714 0.16845 0.69545 0.0
C1127 C 0.20248 0.1941 0.70678 0.0
C1128 C 0.19286 0.15255 0.67467 0.0
C1129 C 0.17316 0.16158 0.66539 0.0
C1130 C 0.1673 0.18629 0.67738 0.0
C1131 C 0.18228 0.20283 0.69774 0.0
C1132 C 0.15873 0.14477 0.64318 0.0
C1133 C 0.13305 0.12237 0.64653 0.0
C1134 C 0.17127 0.14918 0.61892 0.0
C1135 C 0.197 0.17418 0.61385 0.0
C1136 C 0.19777 0.20319 0.62097 0.0
C1137 C 0.22092 0.22671 0.61394 0.0
C1138 C 0.24323 0.22152 0.59933 0.0
C1139 C 0.24262 0.19278 0.59208 0.0
C1140 C 0.21967 0.16919 0.59935 0.0
C1141 C 0.09018 0.09962 0.54703 0.0
C1142 C 0.08449 0.06991 0.53786 0.0
C1143 C 0.10584 0.11177 0.56773 0.0
C1144 C 0.1167 0.09474 0.57933 0.0
C1145 C 0.11305 0.06576 0.56922 0.0
C1146 C 0.0966 0.0532 0.54876 0.0
C1147 C 0.13221 0.10835 0.60175 0.0
C1148 C 0.15803 0.13048 0.59853 0.0
C1149 C 0.1194 0.10425 0.62599 0.0
C1150 C 0.09111 0.08271 0.63027 0.0
C1151 C 0.08622 0.05246 0.6253 0.0
C1152 C 0.05944 0.03233 0.62942 0.0
C1153 C 0.03748 0.04222 0.63891 0.0
C1154 C 0.04227 0.07226 0.64432 0.0
C1155 C 0.06897 0.09247 0.64005 0.0
H1156 H 0.01679 0.02662 0.64219 0.0
H1157 H 0.26104 0.23975 0.59375 0.0
H1158 H 0.79525 0.14046 0.66578 0.0
H1159 H 0.7941 0.11798 0.62199 0.0
H1160 H 0.8833 0.13754 0.61957 0.0
H1161 H 0.88428 0.15928 0.66301 0.0
H1162 H 0.85914 0.14273 0.5725 0.0
H1163 H 0.84835 0.06926 0.64059 0.0
H1164 H 0.81737 0.04924 0.67668 0.0
H1165 H 0.74548 0.03464 0.63565 0.0
H1166 H 0.77614 0.05482 0.59947 0.0
H1167 H 0.96367 0.10039 0.57281 0.0
H1168 H 0.91869 0.10554 0.58697 0.0
H1169 H 0.87732 0.03134 0.53483 0.0
H1170 H 0.92223 0.02544 0.52117 0.0
H1171 H 0.84764 0.04103 0.58606 0.0
H1172 H 0.88572 0.08661 0.51203 0.0
H1173 H 0.92678 0.11117 0.48515 0.0
H1174 H 0.95152 0.18458 0.54177 0.0
H1175 H 0.91099 0.16025 0.56921 0.0
C1176 C 0.8145 0.14005 0.65558 0.0
C1177 C 0.83977 0.15051 0.66749 0.0
C1178 C 0.81386 0.12774 0.63067 0.0
C1179 C 0.8386 0.12649 0.61766 0.0
C1180 C 0.86405 0.13879 0.62927 0.0
C1181 C 0.8646 0.15059 0.6541 0.0
C1182 C 0.83831 0.10708 0.59439 0.0
C1183 C 0.85537 0.11987 0.57424 0.0
C1184 C 0.83262 0.07713 0.59648 0.0
C1185 C 0.81437 0.0631 0.61737 0.0
C1186 C 0.82592 0.06137 0.63923 0.0
C1187 C 0.80845 0.05021 0.65973 0.0
C1188 C 0.77947 0.04057 0.65842 0.0
C1189 C 0.76791 0.04203 0.63661 0.0
C1190 C 0.7853 0.05333 0.61613 0.0
C1191 C 0.94491 0.08482 0.56479 0.0
C1192 C 0.9463 0.06301 0.54557 0.0
C1193 C 0.91935 0.08763 0.57291 0.0
C1194 C 0.89513 0.0692 0.56131 0.0
C1195 C 0.89602 0.04578 0.54367 0.0
C1196 C 0.92167 0.04258 0.53587 0.0
C1197 C 0.87027 0.07765 0.56564 0.0
C1198 C 0.84893 0.06253 0.582 0.0
C1199 C 0.87205 0.10553 0.55989 0.0
C1200 C 0.89493 0.12174 0.54254 0.0
C1201 C 0.89974 0.10813 0.51865 0.0
C1202 C 0.92305 0.12193 0.50338 0.0
C1203 C 0.94167 0.14947 0.5117 0.0
C1204 C 0.93696 0.16333 0.53528 0.0
C1205 C 0.91373 0.14958 0.55067 0.0
H1206 H 0.9598 0.16003 0.49991 0.0
H1207 H 0.76597 0.03204 0.67433 0.0
H1208 H 0.84313 0.78436 0.70006 0.0
H1209 H 0.87472 0.816 0.67091 0.0
H1210 H 0.81898 0.86539 0.67464 0.0
H1211 H 0.78653 0.83273 0.70316 0.0
H1212 H 0.836 0.85609 0.62884 0.0
H1213 H 0.88449 0.89224 0.70524 0.0
H1214 H 0.9064 0.88862 0.74252 0.0
H1215 H 0.96192 0.85204 0.69599 0.0
H1216 H 0.94055 0.85568 0.65841 0.0
H1217 H 0.9227 0.97761 0.57413 0.0
H1218 H 0.89795 0.94735 0.60691 0.0
H1219 H 0.95149 0.89521 0.58961 0.0
H1220 H 0.97692 0.92612 0.55671 0.0
H1221 H 0.93728 0.90416 0.64112 0.0
H1222 H 0.89024 0.87132 0.56462 0.0
H1223 H 0.8696 0.87752 0.52761 0.0
H1224 H 0.81075 0.90846 0.57503 0.0
H1225 H 0.83132 0.90289 0.61235 0.0
C1226 C 0.83766 0.80209 0.69481 0.0
C1227 C 0.81247 0.80627 0.70405 0.0
C1228 C 0.85587 0.82031 0.67824 0.0
C1229 C 0.84964 0.84359 0.67098 0.0
C1230 C 0.82435 0.84769 0.68008 0.0
C1231 C 0.80582 0.82907 0.69637 0.0
C1232 C 0.86895 0.86287 0.65313 0.0
C1233 C 0.85805 0.86691 0.63178 0.0
C1234 C 0.89797 0.87626 0.65644 0.0
C1235 C 0.91076 0.874 0.67904 0.0
C1236 C 0.90126 0.88327 0.70297 0.0
C1237 C 0.91359 0.88124 0.72415 0.0
C1238 C 0.93536 0.8699 0.72163 0.0
C1239 C 0.94501 0.86076 0.69792 0.0
C1240 C 0.93288 0.86292 0.67667 0.0
C1241 C 0.92952 0.95997 0.57753 0.0
C1242 C 0.95143 0.95388 0.56267 0.0
C1243 C 0.91532 0.94269 0.59624 0.0
C1244 C 0.9224 0.91859 0.60022 0.0
C1245 C 0.94558 0.9136 0.58664 0.0
C1246 C 0.96011 0.93124 0.56794 0.0
C1247 C 0.90412 0.89772 0.61728 0.0
C1248 C 0.91521 0.89326 0.63831 0.0
C1249 C 0.87522 0.88399 0.61377 0.0
C1250 C 0.86247 0.88687 0.5913 0.0
C1251 C 0.873 0.8796 0.56717 0.0
C1252 C 0.86131 0.883 0.54613 0.0
C1253 C 0.83892 0.89343 0.54897 0.0
C1254 C 0.82811 0.9004 0.57286 0.0
C1255 C 0.83976 0.89709 0.59396 0.0
H1256 H 0.82991 0.89606 0.53266 0.0
H1257 H 0.94483 0.8683 0.73806 0.0
H1258 H 0.33935 0.22069 0.21331 0.0
H1259 H 0.36473 0.19403 0.1851 0.0
H1260 H 0.28927 0.14403 0.14808 0.0
H1261 H 0.26335 0.1696 0.17749 0.0
H1262 H 0.31608 0.10869 0.15151 0.0
H1263 H 0.34655 0.20397 0.12273 0.0
H1264 H 0.36604 0.25796 0.1271 0.0
H1265 H 0.44194 0.25556 0.15198 0.0
H1266 H 0.42282 0.2015 0.14794 0.0
H1267 H 0.38727 0.04683 0.04988 0.0
H1268 H 0.35914 0.07193 0.07674 0.0
H1269 H 0.43334 0.13094 0.1114 0.0
H1270 H 0.46156 0.10702 0.08358 0.0
H1271 H 0.40572 0.16201 0.10798 0.0
H1272 H 0.37593 0.06842 0.13953 0.0
H1273 H 0.35717 0.01456 0.1373 0.0
H1274 H 0.28131 0.01364 0.10966 0.0
H1275 H 0.29979 0.0676 0.11151 0.0
C1276 C 0.32795 0.204 0.19924 0.0
C1277 C 0.29911 0.19792 0.1976 0.0
C1278 C 0.34273 0.18885 0.18277 0.0
C1279 C 0.3294 0.16725 0.16369 0.0
C1280 C 0.30045 0.16072 0.16226 0.0
C1281 C 0.28557 0.17576 0.17895 0.0
C1282 C 0.34555 0.15133 0.14568 0.0
C1283 C 0.33547 0.12047 0.14172 0.0
C1284 C 0.37142 0.16621 0.13317 0.0
C1285 C 0.38314 0.19869 0.13524 0.0
C1286 C 0.36734 0.21496 0.12925 0.0
C1287 C 0.37833 0.24558 0.13168 0.0
C1288 C 0.40515 0.2602 0.13996 0.0
C1289 C 0.42114 0.24421 0.14564 0.0
C1290 C 0.41026 0.21357 0.14323 0.0
C1291 C 0.39763 0.06501 0.06334 0.0
C1292 C 0.42689 0.07458 0.06443 0.0
C1293 C 0.38137 0.07939 0.079 0.0
C1294 C 0.39364 0.10336 0.09688 0.0
C1295 C 0.42289 0.11272 0.09801 0.0
C1296 C 0.43917 0.09877 0.08204 0.0
C1297 C 0.37649 0.11918 0.11394 0.0
C1298 C 0.38635 0.1501 0.11771 0.0
C1299 C 0.35057 0.10435 0.12649 0.0
C1300 C 0.33936 0.07198 0.1254 0.0
C1301 C 0.35532 0.05671 0.13283 0.0
C1302 C 0.34472 0.02616 0.13166 0.0
C1303 C 0.31809 0.01064 0.12327 0.0
C1304 C 0.30196 0.02568 0.11612 0.0
C1305 C 0.31247 0.05625 0.11725 0.0
H1306 H 0.30993 0.98697 0.12238 0.0
H1307 H 0.41355 0.2839 0.14197 0.0
H1308 H 0.77698 0.29688 0.17437 0.0
H1309 H 0.81011 0.32568 0.14404 0.0
H1310 H 0.87803 0.33577 0.18938 0.0
H1311 H 0.84465 0.31023 0.22091 0.0
H1312 H 0.88914 0.38271 0.1714 0.0
H1313 H 0.85847 0.28251 0.13367 0.0
H1314 H 0.82339 0.23501 0.11939 0.0
H1315 H 0.79374 0.27668 0.06958 0.0
H1316 H 0.82838 0.32448 0.08365 0.0
H1317 H 0.98541 0.44202 0.06949 0.0
H1318 H 0.96175 0.40697 0.10004 0.0
H1319 H 0.88217 0.39564 0.07247 0.0
H1320 H 0.90526 0.42966 0.04226 0.0
H1321 H 0.88346 0.34466 0.08156 0.0
H1322 H 0.91024 0.44489 0.12311 0.0
H1323 H 0.94399 0.49279 0.13823 0.0
H1324 H 0.98028 0.45043 0.18195 0.0
H1325 H 0.94738 0.40219 0.16641 0.0
C1326 C 0.79895 0.30547 0.17794 0.0
C1327 C 0.8084 0.30009 0.19954 0.0
C1328 C 0.81796 0.32162 0.16042 0.0
C1329 C 0.84683 0.33188 0.1638 0.0
C1330 C 0.85601 0.32766 0.18597 0.0
C1331 C 0.83694 0.31247 0.20381 0.0
C1332 C 0.86745 0.34721 0.14445 0.0
C1333 C 0.8882 0.37403 0.15181 0.0
C1334 C 0.8663 0.33607 0.11882 0.0
C1335 C 0.84599 0.30713 0.10979 0.0
C1336 C 0.84445 0.28156 0.11969 0.0
C1337 C 0.82462 0.25459 0.11168 0.0
C1338 C 0.80634 0.25285 0.09367 0.0
C1339 C 0.80792 0.27806 0.08353 0.0
C1340 C 0.82768 0.30509 0.09147 0.0
C1341 C 0.96293 0.43165 0.06982 0.0
C1342 C 0.94716 0.43899 0.0538 0.0
C1343 C 0.94944 0.41176 0.08728 0.0
C1344 C 0.92012 0.39893 0.0887 0.0
C1345 C 0.90474 0.40521 0.07179 0.0
C1346 C 0.91804 0.42495 0.05463 0.0
C1347 C 0.90456 0.38037 0.1085 0.0
C1348 C 0.88476 0.35288 0.10124 0.0
C1349 C 0.90664 0.39084 0.1342 0.0
C1350 C 0.92664 0.41988 0.14327 0.0
C1351 C 0.92568 0.44575 0.13566 0.0
C1352 C 0.94468 0.47297 0.14429 0.0
C1353 C 0.96445 0.47465 0.16086 0.0
C1354 C 0.96517 0.4491 0.16891 0.0
C1355 C 0.9464 0.42181 0.16015 0.0
H1356 H 0.97909 0.49574 0.16759 0.0
H1357 H 0.79098 0.23196 0.08755 0.0
H1358 H 0.69717 0.8316 0.12449 0.0
H1359 H 0.66114 0.83688 0.1009 0.0
H1360 H 0.63332 0.88254 0.16664 0.0
H1361 H 0.66946 0.87748 0.1901 0.0
H1362 H 0.58874 0.84745 0.13674 0.0
H1363 H 0.6785 0.92197 0.13015 0.0
H1364 H 0.72955 0.94157 0.12205 0.0
H1365 H 0.72108 0.90154 0.04609 0.0
H1366 H 0.66996 0.8812 0.05391 0.0
H1367 H 0.57831 0.96527 0.06153 0.0
H1368 H 0.59871 0.94385 0.08899 0.0
H1369 H 0.55425 0.85738 0.05456 0.0
H1370 H 0.53322 0.87849 0.0271 0.0
H1371 H 0.6326 0.91001 0.06888 0.0
H1372 H 0.53812 0.82444 0.08754 0.0
H1373 H 0.48796 0.81318 0.10001 0.0
H1374 H 0.50795 0.88583 0.15774 0.0
H1375 H 0.55814 0.89778 0.1452 0.0
C1376 C 0.68263 0.84171 0.13408 0.0
C1377 C 0.68584 0.85394 0.15909 0.0
C1378 C 0.6622 0.84491 0.12059 0.0
C1379 C 0.64468 0.86032 0.13196 0.0
C1380 C 0.64647 0.87045 0.15752 0.0
C1381 C 0.66707 0.86753 0.17091 0.0
C1382 C 0.62735 0.86934 0.11659 0.0
C1383 C 0.59832 0.86075 0.12167 0.0
C1384 C 0.63979 0.88755 0.09745 0.0
C1385 C 0.67048 0.8997 0.09271 0.0
C1386 C 0.68755 0.91707 0.1118 0.0
C1387 C 0.71649 0.92837 0.10725 0.0
C1388 C 0.72857 0.92272 0.08359 0.0
C1389 C 0.71171 0.90582 0.06443 0.0
C1390 C 0.68276 0.89438 0.06891 0.0
C1391 C 0.57217 0.94162 0.06024 0.0
C1392 C 0.55405 0.92359 0.0421 0.0
C1393 C 0.58387 0.92945 0.07601 0.0
C1394 C 0.57777 0.89906 0.07416 0.0
C1395 C 0.55871 0.88084 0.05686 0.0
C1396 C 0.54674 0.89297 0.04112 0.0
C1397 C 0.59392 0.88719 0.08834 0.0
C1398 C 0.62292 0.89582 0.08335 0.0
C1399 C 0.58156 0.86954 0.10777 0.0
C1400 C 0.55162 0.86215 0.11529 0.0
C1401 C 0.53171 0.83808 0.10276 0.0
C1402 C 0.50333 0.83159 0.10983 0.0
C1403 C 0.49479 0.84886 0.1296 0.0
C1404 C 0.5146 0.87258 0.14237 0.0
C1405 C 0.54296 0.87926 0.13525 0.0
H1406 H 0.47287 0.84388 0.13506 0.0
H1407 H 0.75098 0.93152 0.08009 0.0
H1408 H 0.18302 0.6801 0.21158 0.0
H1409 H 0.1597 0.64384 0.17821 0.0
H1410 H 0.2395 0.64855 0.14056 0.0
H1411 H 0.26309 0.68634 0.17356 0.0
H1412 H 0.20382 0.65157 0.10898 0.0
H1413 H 0.19836 0.58772 0.17003 0.0
H1414 H 0.18908 0.57299 0.21263 0.0
H1415 H 0.10294 0.5643 0.21093 0.0
H1416 H 0.11173 0.57947 0.16854 0.0
H1417 H 0.10748 0.54558 0.02232 0.0
H1418 H 0.14667 0.56252 0.05029 0.0
H1419 H 0.09437 0.59007 0.10901 0.0
H1420 H 0.05617 0.57433 0.08135 0.0
H1421 H 0.12635 0.56004 0.12545 0.0
H1422 H 0.13352 0.63875 0.07709 0.0
H1423 H 0.13879 0.66106 0.03806 0.0
H1424 H 0.21718 0.64733 0.01933 0.0
H1425 H 0.21209 0.62445 0.05813 0.0
C1426 C 0.19567 0.67337 0.19626 0.0
C1427 C 0.22488 0.68615 0.19511 0.0
C1428 C 0.18231 0.65235 0.17731 0.0
C1429 C 0.19785 0.64298 0.1571 0.0
C1430 C 0.22711 0.65527 0.1561 0.0
C1431 C 0.24054 0.6767 0.175 0.0
C1432 C 0.18304 0.62192 0.13636 0.0
C1433 C 0.18754 0.631 0.11237 0.0
C1434 C 0.16138 0.59538 0.14093 0.0
C1435 C 0.15573 0.58469 0.16598 0.0
C1436 C 0.17742 0.58264 0.1787 0.0
C1437 C 0.17226 0.57428 0.20286 0.0
C1438 C 0.14544 0.5677 0.21446 0.0
C1439 C 0.12369 0.56933 0.20189 0.0
C1440 C 0.12874 0.57773 0.17776 0.0
C1441 C 0.10455 0.55512 0.04126 0.0
C1442 C 0.07909 0.55911 0.04966 0.0
C1443 C 0.12677 0.56467 0.05717 0.0
C1444 C 0.12328 0.5774 0.08174 0.0
C1445 C 0.09745 0.58014 0.09023 0.0
C1446 C 0.07574 0.57141 0.07431 0.0
C1447 C 0.14661 0.59032 0.09853 0.0
C1448 C 0.14363 0.57978 0.1218 0.0
C1449 C 0.16916 0.61592 0.0936 0.0
C1450 C 0.17215 0.62935 0.0702 0.0
C1451 C 0.15168 0.64012 0.06447 0.0
C1452 C 0.15467 0.65294 0.04244 0.0
C1453 C 0.17823 0.65545 0.02614 0.0
C1454 C 0.19888 0.64522 0.0319 0.0
C1455 C 0.19593 0.63229 0.05389 0.0
H1456 H 0.18053 0.66544 0.00911 0.0
H1457 H 0.14151 0.56135 0.2332 0.0
H1458 H 0.33497 0.82121 0.78611 0.0
H1459 H 0.35649 0.85453 0.82244 0.0
H1460 H 0.28159 0.81732 0.86838 0.0
H1461 H 0.26054 0.78301 0.83222 0.0
H1462 H 0.32876 0.89531 0.85865 0.0
H1463 H 0.30422 0.79718 0.8955 0.0
H1464 H 0.30386 0.74616 0.88777 0.0
H1465 H 0.38977 0.77651 0.86042 0.0
H1466 H 0.39034 0.8276 0.86746 0.0
H1467 H 0.40941 0.9478 0.97791 0.0
H1468 H 0.3692 0.92621 0.95115 0.0
H1469 H 0.42404 0.90808 0.88993 0.0
H1470 H 0.46348 0.9288 0.91627 0.0
H1471 H 0.37609 0.85841 0.91472 0.0
H1472 H 0.4067 0.94687 0.87342 0.0
H1473 H 0.41659 0.99896 0.86899 0.0
H1474 H 0.33198 0.99051 0.89377 0.0
H1475 H 0.32177 0.93845 0.89885 0.0
C1476 C 0.3233 0.82023 0.80405 0.0
C1477 C 0.29638 0.79986 0.80679 0.0
C1478 C 0.3354 0.83924 0.8246 0.0
C1479 C 0.32048 0.83824 0.84788 0.0
C1480 C 0.29335 0.81813 0.85051 0.0
C1481 C 0.28146 0.79865 0.83005 0.0
C1482 C 0.33431 0.85725 0.86957 0.0
C1483 C 0.33838 0.88727 0.87158 0.0
C1484 C 0.34764 0.84667 0.88552 0.0
C1485 C 0.34719 0.81604 0.88173 0.0
C1486 C 0.3229 0.79289 0.8876 0.0
C1487 C 0.32268 0.76399 0.88337 0.0
C1488 C 0.34675 0.75808 0.87354 0.0
C1489 C 0.37111 0.78108 0.86796 0.0
C1490 C 0.37138 0.80998 0.87204 0.0
C1491 C 0.41268 0.93969 0.95858 0.0
C1492 C 0.43908 0.9391 0.94913 0.0
C1493 C 0.38995 0.92768 0.94336 0.0
C1494 C 0.39393 0.91582 0.91866 0.0
C1495 C 0.42072 0.91735 0.90891 0.0
C1496 C 0.44309 0.92883 0.92402 0.0
C1497 C 0.37038 0.89662 0.90418 0.0
C1498 C 0.36497 0.86642 0.90309 0.0
C1499 C 0.35694 0.90729 0.88835 0.0
C1500 C 0.36366 0.93899 0.88712 0.0
C1501 C 0.3904 0.95629 0.87854 0.0
C1502 C 0.39601 0.98575 0.87572 0.0
C1503 C 0.37493 0.99803 0.88112 0.0
C1504 C 0.3483 0.98098 0.88965 0.0
C1505 C 0.34261 0.95153 0.89257 0.0
H1506 H 0.37916 0.02069 0.87851 0.0
H1507 H 0.34655 0.7357 0.8703 0.0
H1508 H 0.18521 0.2599 0.81209 0.0
H1509 H 0.16119 0.28677 0.84156 0.0
H1510 H 0.21359 0.36755 0.81345 0.0
H1511 H 0.24042 0.34104 0.78683 0.0
H1512 H 0.20515 0.38252 0.85689 0.0
H1513 H 0.13587 0.32128 0.79991 0.0
H1514 H 0.10737 0.27448 0.77757 0.0
H1515 H 0.07313 0.24144 0.84754 0.0
H1516 H 0.10158 0.28795 0.87029 0.0
H1517 H 0.11868 0.46412 0.91725 0.0
H1518 H 0.14495 0.43936 0.88747 0.0
H1519 H 0.09462 0.35643 0.91315 0.0
H1520 H 0.06685 0.38084 0.94089 0.0
H1521 H 0.10218 0.34352 0.86947 0.0
H1522 H 0.17387 0.40689 0.92603 0.0
H1523 H 0.20332 0.45452 0.94647 0.0
H1524 H 0.23304 0.48471 0.8747 0.0
H1525 H 0.20368 0.43748 0.85395 0.0
C1526 C 0.19224 0.28346 0.81265 0.0
C1527 C 0.21509 0.29799 0.7969 0.0
C1528 C 0.17776 0.29898 0.82915 0.0
C1529 C 0.18445 0.32956 0.82958 0.0
C1530 C 0.20739 0.3441 0.81381 0.0
C1531 C 0.22262 0.3287 0.79808 0.0
C1532 C 0.16811 0.34643 0.8465 0.0
C1533 C 0.18257 0.37396 0.85928 0.0
C1534 C 0.13851 0.33574 0.85045 0.0
C1535 C 0.12097 0.30802 0.83678 0.0
C1536 C 0.12229 0.30401 0.81051 0.0
C1537 C 0.10616 0.27753 0.79779 0.0
C1538 C 0.08849 0.25499 0.81113 0.0
C1539 C 0.08683 0.25891 0.83723 0.0
C1540 C 0.1029 0.28534 0.85005 0.0
C1541 C 0.1133 0.44061 0.91655 0.0
C1542 C 0.09056 0.42463 0.93168 0.0
C1543 C 0.12868 0.42628 0.89959 0.0
C1544 C 0.12277 0.39562 0.89803 0.0
C1545 C 0.10009 0.3799 0.91344 0.0
C1546 C 0.08413 0.39402 0.9296 0.0
C1547 C 0.13924 0.3795 0.88023 0.0
C1548 C 0.12477 0.35208 0.86719 0.0
C1549 C 0.16881 0.39045 0.87584 0.0
C1550 C 0.18642 0.41877 0.88848 0.0
C1551 C 0.18662 0.42376 0.91467 0.0
C1552 C 0.20331 0.4507 0.9263 0.0
C1553 C 0.22001 0.47269 0.91192 0.0
C1554 C 0.22012 0.46775 0.88587 0.0
C1555 C 0.20348 0.4409 0.87417 0.0
H1556 H 0.2329 0.49351 0.92097 0.0
H1557 H 0.07607 0.23449 0.80125 0.0
H1558 H 0.70016 0.24578 0.8219 0.0
H1559 H 0.66709 0.21571 0.85163 0.0
H1560 H 0.67466 0.13754 0.80836 0.0
H1561 H 0.70765 0.16744 0.7785 0.0
H1562 H 0.61929 0.13242 0.82313 0.0
H1563 H 0.70781 0.16121 0.85946 0.0
H1564 H 0.75215 0.19493 0.87614 0.0
H1565 H 0.70745 0.23686 0.93084 0.0
H1566 H 0.66273 0.20352 0.91456 0.0
H1567 H 0.5795 0.02669 0.90932 0.0
H1568 H 0.60414 0.06212 0.87994 0.0
H1569 H 0.581 0.12931 0.92777 0.0
H1570 H 0.55557 0.09339 0.95717 0.0
H1571 H 0.64079 0.14371 0.91198 0.0
H1572 H 0.55112 0.10442 0.87906 0.0
H1573 H 0.50976 0.06303 0.86565 0.0
H1574 H 0.55787 0.03742 0.80276 0.0
H1575 H 0.60029 0.07707 0.8171 0.0
C1576 C 0.69482 0.22219 0.81871 0.0
C1577 C 0.70681 0.20903 0.79796 0.0
C1578 C 0.67593 0.20504 0.83574 0.0
C1579 C 0.66851 0.17438 0.8323 0.0
C1580 C 0.68009 0.16115 0.81139 0.0
C1581 C 0.69914 0.1783 0.79445 0.0
C1582 C 0.64899 0.15609 0.85068 0.0
C1583 C 0.624 0.13477 0.84253 0.0
C1584 C 0.65496 0.15957 0.8761 0.0
C1585 C 0.68188 0.18013 0.88553 0.0
C1586 C 0.7074 0.17785 0.87483 0.0
C1587 C 0.7326 0.19683 0.88424 0.0
C1588 C 0.73263 0.21812 0.90434 0.0
C1589 C 0.70741 0.22042 0.91519 0.0
C1590 C 0.68211 0.20147 0.90591 0.0
C1591 C 0.57909 0.04885 0.91325 0.0
C1592 C 0.56537 0.05729 0.93528 0.0
C1593 C 0.59331 0.06909 0.89656 0.0
C1594 C 0.5945 0.09835 0.90172 0.0
C1595 C 0.58033 0.10681 0.92349 0.0
C1596 C 0.56554 0.08628 0.94006 0.0
C1597 C 0.61121 0.11989 0.88441 0.0
C1598 C 0.63576 0.14175 0.8927 0.0
C1599 C 0.605 0.11654 0.85905 0.0
C1600 C 0.57915 0.09365 0.84943 0.0
C1601 C 0.55311 0.08973 0.8626 0.0
C1602 C 0.52945 0.06644 0.85488 0.0
C1603 C 0.53111 0.04771 0.83325 0.0
C1604 C 0.5566 0.05199 0.81951 0.0
C1605 C 0.58057 0.07471 0.82759 0.0
H1606 H 0.51266 0.02989 0.82716 0.0
H1607 H 0.7522 0.23273 0.91158 0.0
H1608 H 0.84898 0.6996 0.87038 0.0
H1609 H 0.86185 0.66806 0.89458 0.0
H1610 H 0.90186 0.63659 0.82816 0.0
H1611 H 0.88902 0.66812 0.80402 0.0
H1612 H 0.87693 0.5937 0.86459 0.0
H1613 H 0.93981 0.69505 0.85933 0.0
H1614 H 0.94907 0.74839 0.86445 0.0
H1615 H 0.92147 0.74559 0.942 0.0
H1616 H 0.91177 0.69219 0.93723 0.0
H1617 H 0.97321 0.55313 0.92339 0.0
H1618 H 0.95249 0.57358 0.89503 0.0
H1619 H 0.93821 0.63443 0.9565 0.0
H1620 H 0.96137 0.61595 0.98383 0.0
H1621 H 0.94848 0.66092 0.92081 0.0
H1622 H 0.88655 0.5625 0.92989 0.0
H1623 H 0.87216 0.50862 0.92731 0.0
H1624 H 0.89059 0.50356 0.84797 0.0
H1625 H 0.90554 0.55742 0.85013 0.0
C1626 C 0.85925 0.68482 0.86077 0.0
C1627 C 0.8679 0.68606 0.83539 0.0
C1628 C 0.8668 0.66699 0.87461 0.0
C1629 C 0.88317 0.65032 0.86322 0.0
C1630 C 0.8892 0.64921 0.8373 0.0
C1631 C 0.88179 0.66714 0.82351 0.0
C1632 C 0.89811 0.63852 0.87869 0.0
C1633 C 0.89266 0.60825 0.87688 0.0
C1634 C 0.91828 0.65751 0.89498 0.0
C1635 C 0.92487 0.68968 0.89788 0.0
C1636 C 0.93562 0.70582 0.87743 0.0
C1637 C 0.94094 0.73605 0.88027 0.0
C1638 C 0.93577 0.75035 0.90351 0.0
C1639 C 0.92542 0.73449 0.924 0.0
C1640 C 0.92005 0.70426 0.92125 0.0
C1641 C 0.96645 0.57156 0.93045 0.0
C1642 C 0.96932 0.58342 0.95558 0.0
C1643 C 0.95402 0.58284 0.91442 0.0
C1644 C 0.94277 0.60503 0.92362 0.0
C1645 C 0.94658 0.61738 0.94867 0.0
C1646 C 0.96001 0.60695 0.96434 0.0
C1647 C 0.92699 0.61558 0.90759 0.0
C1648 C 0.93255 0.64592 0.90893 0.0
C1649 C 0.90634 0.59641 0.89149 0.0
C1650 C 0.89751 0.56403 0.89023 0.0
C1651 C 0.88776 0.54991 0.91193 0.0
C1652 C 0.87947 0.51937 0.91054 0.0
C1653 C 0.88053 0.50269 0.88751 0.0
C1654 C 0.88985 0.51651 0.86581 0.0
C1655 C 0.89824 0.54704 0.86711 0.0
H1656 H 0.87406 0.47905 0.88646 0.0
H1657 H 0.93985 0.77374 0.90566 0.0
H1658 H 0.12972 0.28451 0.15377 0.0
H1659 H 0.10947 0.30419 0.1245 0.0
H1660 H 0.14503 0.39109 0.16304 0.0
H1661 H 0.16431 0.37124 0.19271 0.0
H1662 H 0.09522 0.38373 0.15637 0.0
H1663 H 0.16868 0.36762 0.10245 0.0
H1664 H 0.19846 0.3413 0.07931 0.0
H1665 H 0.12807 0.28188 0.04032 0.0
H1666 H 0.09775 0.30752 0.06361 0.0
H1667 H 0.07815 0.46504 0.06395 0.0
H1668 H 0.09608 0.44228 0.09227 0.0
H1669 H 0.04284 0.35683 0.06246 0.0
H1670 H 0.02471 0.37952 0.03385 0.0
H1671 H 0.09959 0.36186 0.06411 0.0
H1672 H 0.02786 0.38481 0.11971 0.0
H1673 H 1.00411 0.41866 0.14028 0.0
H1674 H 0.07975 0.47357 0.17436 0.0
H1675 H 0.10407 0.44031 0.15355 0.0
C1676 C 0.13345 0.30785 0.15573 0.0
C1677 C 0.14838 0.32634 0.17562 0.0
C1678 C 0.12196 0.31914 0.13894 0.0
C1679 C 0.1257 0.34924 0.1414 0.0
C1680 C 0.14154 0.36778 0.16078 0.0
C1681 C 0.15261 0.35645 0.17774 0.0
C1682 C 0.11179 0.36126 0.12493 0.0
C1683 C 0.09654 0.37909 0.13618 0.0
C1684 C 0.11294 0.35511 0.09854 0.0
C1685 C 0.13089 0.33917 0.08505 0.0
C1686 C 0.15948 0.34868 0.0892 0.0
C1687 C 0.17647 0.33395 0.076 0.0
C1688 C 0.16514 0.30985 0.05843 0.0
C1689 C 0.1368 0.30047 0.054 0.0
C1690 C 0.1197 0.31507 0.06721 0.0
C1691 C 0.06984 0.44142 0.06367 0.0
C1692 C 0.04992 0.42411 0.04663 0.0
C1693 C 0.08015 0.42844 0.07989 0.0
C1694 C 0.07081 0.39785 0.0795 0.0
C1695 C 0.05035 0.38049 0.06305 0.0
C1696 C 0.03981 0.3935 0.04689 0.0
C1697 C 0.08328 0.38416 0.09566 0.0
C1698 C 0.0982 0.3661 0.08433 0.0
C1699 C 0.08262 0.39083 0.12192 0.0
C1700 C 0.06778 0.41024 0.13496 0.0
C1701 C 0.03942 0.40418 0.13151 0.0
C1702 C 0.02587 0.42326 0.14321 0.0
C1703 C 0.04043 0.44829 0.15859 0.0
C1704 C 0.06851 0.4542 0.16242 0.0
C1705 C 0.08218 0.43524 0.15069 0.0
H1706 H 0.03 0.46317 0.16754 0.0
H1707 H 0.17835 0.29851 0.04818 0.0
H1708 H 0.23674 0.68916 0.81428 0.0
H1709 H 0.20246 0.65903 0.84318 0.0
H1710 H 0.13587 0.67007 0.80751 0.0
H1711 H 0.17037 0.70039 0.77885 0.0
H1712 H 0.1242 0.67532 0.85417 0.0
H1713 H 0.1493 0.60282 0.80021 0.0
H1714 H 0.17639 0.57413 0.77598 0.0
H1715 H 0.20971 0.56694 0.84328 0.0
H1716 H 0.18318 0.59599 0.86784 0.0
H1717 H 0.02982 0.55599 0.92568 0.0
H1718 H 0.05312 0.58711 0.8922 0.0
H1719 H 0.13221 0.60839 0.92454 0.0
H1720 H 0.10947 0.57774 0.95744 0.0
H1721 H 0.13004 0.58228 0.87449 0.0
H1722 H 0.10335 0.65921 0.92716 0.0
H1723 H 0.0678 0.67879 0.94901 0.0
H1724 H 0.03065 0.67014 0.87958 0.0
H1725 H 0.06579 0.6501 0.8574 0.0
C1726 C 0.21476 0.68506 0.81265 0.0
C1727 C 0.20612 0.69761 0.79475 0.0
C1728 C 0.19513 0.66768 0.82905 0.0
C1729 C 0.16641 0.66192 0.82746 0.0
C1730 C 0.15783 0.67429 0.80933 0.0
C1731 C 0.17753 0.69191 0.79311 0.0
C1732 C 0.14556 0.64387 0.84529 0.0
C1733 C 0.12533 0.65476 0.85828 0.0
C1734 C 0.14652 0.61684 0.85072 0.0
C1735 C 0.1644 0.60172 0.8358 0.0
C1736 C 0.16274 0.5955 0.80977 0.0
C1737 C 0.17784 0.57901 0.79601 0.0
C1738 C 0.19453 0.56846 0.80812 0.0
C1739 C 0.19658 0.57488 0.83395 0.0
C1740 C 0.18159 0.59143 0.84779 0.0
C1741 C 0.05205 0.56789 0.92585 0.0
C1742 C 0.06795 0.56404 0.94384 0.0
C1743 C 0.06532 0.58558 0.90676 0.0
C1744 C 0.09445 0.59971 0.90578 0.0
C1745 C 0.1098 0.59742 0.92479 0.0
C1746 C 0.09674 0.57983 0.94357 0.0
C1747 C 0.10998 0.6145 0.88398 0.0
C1748 C 0.12902 0.60282 0.87014 0.0
C1749 C 0.10747 0.64029 0.87748 0.0
C1750 C 0.08691 0.65289 0.89073 0.0
C1751 C 0.08746 0.66131 0.91662 0.0
C1752 C 0.06742 0.67251 0.92904 0.0
C1753 C 0.04691 0.67561 0.91571 0.0
C1754 C 0.0465 0.66767 0.88989 0.0
C1755 C 0.06647 0.65641 0.87739 0.0
H1756 H 0.03137 0.68424 0.92538 0.0
H1757 H 0.20613 0.5556 0.79743 0.0
H1758 H 0.31118 0.09925 0.82755 0.0
H1759 H 0.33835 0.08937 0.85771 0.0
H1760 H 0.39246 0.17975 0.86308 0.0
H1761 H 0.36475 0.18986 0.83337 0.0
H1762 H 0.4196 0.136 0.8504 0.0
H1763 H 0.35563 0.161 0.91177 0.0
H1764 H 0.30976 0.15954 0.9318 0.0
H1765 H 0.28874 0.06813 0.93923 0.0
H1766 H 0.33432 0.06892 0.9188 0.0
H1767 H 0.49332 0.11184 0.94954 0.0
H1768 H 0.47104 0.13213 0.92224 0.0
H1769 H 0.40275 0.05012 0.91484 0.0
H1770 H 0.4249 0.02942 0.94091 0.0
H1771 H 0.38524 0.0969 0.93167 0.0
H1772 H 0.43722 0.06825 0.85731 0.0
H1773 H 0.47823 0.06528 0.83024 0.0
H1774 H 0.5188 0.1583 0.84601 0.0
H1775 H 0.47743 0.16182 0.87244 0.0
C1776 C 0.32861 0.11705 0.83551 0.0
C1777 C 0.33601 0.14526 0.8282 0.0
C1778 C 0.34402 0.11145 0.85277 0.0
C1779 C 0.36735 0.13386 0.86266 0.0
C1780 C 0.37444 0.16222 0.85573 0.0
C1781 C 0.35865 0.16797 0.83885 0.0
C1782 C 0.38561 0.12686 0.87842 0.0
C1783 C 0.41235 0.12821 0.86851 0.0
C1784 C 0.37582 0.11572 0.90159 0.0
C1785 C 0.34824 0.11496 0.9135 0.0
C1786 C 0.34108 0.1405 0.91738 0.0
C1787 C 0.31517 0.13981 0.92888 0.0
C1788 C 0.29631 0.11374 0.93672 0.0
C1789 C 0.30335 0.0883 0.9331 0.0
C1790 C 0.32922 0.08886 0.92157 0.0
C1791 C 0.47396 0.09788 0.9415 0.0
C1792 C 0.46085 0.06908 0.94774 0.0
C1793 C 0.46123 0.10952 0.92592 0.0
C1794 C 0.43513 0.09263 0.91659 0.0
C1795 C 0.42287 0.06351 0.92173 0.0
C1796 C 0.43567 0.05176 0.93681 0.0
C1797 C 0.4191 0.10567 0.90345 0.0
C1798 C 0.39272 0.10537 0.91385 0.0
C1799 C 0.42895 0.11737 0.88058 0.0
C1800 C 0.4547 0.11519 0.86709 0.0
C1801 C 0.45509 0.08796 0.85521 0.0
C1802 C 0.4782 0.08624 0.83977 0.0
C1803 C 0.5012 0.11157 0.83653 0.0
C1804 C 0.50103 0.1387 0.84862 0.0
C1805 C 0.47771 0.1406 0.86369 0.0
H1806 H 0.51913 0.11018 0.82461 0.0
H1807 H 0.27626 0.11326 0.94565 0.0
H1808 H 0.75498 0.3053 0.82967 0.0
H1809 H 0.77952 0.33488 0.86623 0.0
H1810 H 0.85431 0.36823 0.81904 0.0
H1811 H 0.83009 0.33846 0.78278 0.0
H1812 H 0.86451 0.34572 0.8574 0.0
H1813 H 0.8156 0.41084 0.84546 0.0
H1814 H 0.7744 0.42475 0.84236 0.0
H1815 H 0.74406 0.4013 0.9161 0.0
H1816 H 0.78484 0.38663 0.91941 0.0
H1817 H 0.9361 0.47902 0.94363 0.0
H1818 H 0.89689 0.45546 0.91672 0.0
H1819 H 0.8814 0.37337 0.94574 0.0
H1820 H 0.921 0.39653 0.97201 0.0
H1821 H 0.83951 0.41978 0.91838 0.0
H1822 H 0.87924 0.32474 0.90102 0.0
H1823 H 0.92213 0.31414 0.90545 0.0
H1824 H 0.97218 0.40082 0.88857 0.0
H1825 H 0.92955 0.41185 0.88415 0.0
C1826 C 0.77644 0.31956 0.82712 0.0
C1827 C 0.79077 0.31954 0.80356 0.0
C1828 C 0.79046 0.33634 0.84797 0.0
C1829 C 0.81883 0.35357 0.84537 0.0
C1830 C 0.83253 0.35486 0.82151 0.0
C1831 C 0.81866 0.33799 0.80081 0.0
C1832 C 0.83511 0.36857 0.86747 0.0
C1833 C 0.85886 0.36181 0.87071 0.0
C1834 C 0.82786 0.38947 0.885 0.0
C1835 C 0.80315 0.39758 0.88265 0.0
C1836 C 0.8 0.4084 0.8609 0.0
C1837 C 0.77675 0.41647 0.85914 0.0
C1838 C 0.75678 0.41415 0.87915 0.0
C1839 C 0.75969 0.40327 0.90074 0.0
C1840 C 0.78282 0.39504 0.90254 0.0
C1841 C 0.92371 0.4562 0.94486 0.0
C1842 C 0.93183 0.43939 0.95945 0.0
C1843 C 0.90132 0.44278 0.92951 0.0
C1844 C 0.88669 0.41256 0.92888 0.0
C1845 C 0.89277 0.39662 0.94566 0.0
C1846 C 0.91537 0.40985 0.96063 0.0
C1847 C 0.86865 0.39685 0.90807 0.0
C1848 C 0.84478 0.40344 0.9051 0.0
C1849 C 0.87575 0.37586 0.89061 0.0
C1850 C 0.90136 0.36903 0.89222 0.0
C1851 C 0.89944 0.34138 0.89806 0.0
C1852 C 0.92367 0.33537 0.90068 0.0
C1853 C 0.94987 0.35678 0.89727 0.0
C1854 C 0.95189 0.38426 0.89122 0.0
C1855 C 0.92773 0.39042 0.8887 0.0
H1856 H 0.9686 0.35209 0.89931 0.0
H1857 H 0.739 0.42075 0.87804 0.0
H1858 H 0.75591 0.83284 0.80731 0.0
H1859 H 0.73137 0.86068 0.83588 0.0
H1860 H 0.65249 0.79884 0.81246 0.0
H1861 H 0.67672 0.76969 0.7856 0.0
H1862 H 0.65498 0.85705 0.81307 0.0
H1863 H 0.67178 0.79753 0.86661 0.0
H1864 H 0.69612 0.77571 0.89025 0.0
H1865 H 0.74051 0.86056 0.92712 0.0
H1866 H 0.7172 0.88325 0.90278 0.0
H1867 H 0.55924 0.89332 0.90605 0.0
H1868 H 0.5874 0.86995 0.87757 0.0
H1869 H 0.66198 0.92948 0.9111 0.0
H1870 H 0.63372 0.95311 0.93989 0.0
H1871 H 0.66365 0.87512 0.90473 0.0
H1872 H 0.64561 0.93466 0.85138 0.0
H1873 H 0.61737 0.95512 0.83046 0.0
H1874 H 0.57326 0.86934 0.79496 0.0
H1875 H 0.60096 0.84826 0.81598 0.0
C1876 C 0.73336 0.82477 0.80849 0.0
C1877 C 0.71856 0.79885 0.79369 0.0
C1878 C 0.71925 0.84095 0.8248 0.0
C1879 C 0.68988 0.83214 0.82645 0.0
C1880 C 0.67509 0.80646 0.81156 0.0
C1881 C 0.68913 0.78986 0.79586 0.0
C1882 C 0.67448 0.84955 0.84346 0.0
C1883 C 0.65678 0.86076 0.83314 0.0
C1884 C 0.67703 0.85524 0.8697 0.0
C1885 C 0.69299 0.84213 0.88261 0.0
C1886 C 0.68714 0.81166 0.87935 0.0
C1887 C 0.70052 0.79908 0.89313 0.0
C1888 C 0.71945 0.81663 0.91058 0.0
C1889 C 0.72565 0.84696 0.91376 0.0
C1890 C 0.71247 0.85972 0.89987 0.0
C1891 C 0.58166 0.90174 0.90738 0.0
C1892 C 0.59401 0.9254 0.92544 0.0
C1893 C 0.59787 0.88832 0.89084 0.0
C1894 C 0.6271 0.89797 0.89169 0.0
C1895 C 0.63956 0.92153 0.90976 0.0
C1896 C 0.62332 0.9352 0.92623 0.0
C1897 C 0.64431 0.88277 0.87438 0.0
C1898 C 0.66222 0.87184 0.88462 0.0
C1899 C 0.64197 0.87737 0.84808 0.0
C1900 C 0.62514 0.88985 0.83549 0.0
C1901 C 0.6297 0.92011 0.83931 0.0
C1902 C 0.61383 0.93183 0.82739 0.0
C1903 C 0.59347 0.91353 0.81146 0.0
C1904 C 0.58899 0.88347 0.80735 0.0
C1905 C 0.60479 0.87163 0.81926 0.0
H1906 H 0.58121 0.92265 0.80224 0.0
H1907 H 0.72958 0.80673 0.92141 0.0
H1908 H 0.83006 0.70585 0.23037 0.0
H1909 H 0.85458 0.67717 0.20283 0.0
H1910 H 0.80971 0.67991 0.14094 0.0
H1911 H 0.78361 0.70641 0.16872 0.0
H1912 H 0.81198 0.62617 0.13922 0.0
H1913 H 0.88014 0.72373 0.14966 0.0
H1914 H 0.90874 0.76832 0.17461 0.0
H1915 H 0.94729 0.71769 0.20651 0.0
H1916 H 0.91862 0.67269 0.18202 0.0
H1917 H 0.8933 0.57019 0.04246 0.0
H1918 H 0.86739 0.59752 0.06965 0.0
H1919 H 0.92481 0.61351 0.12724 0.0
H1920 H 0.95203 0.5887 0.09907 0.0
H1921 H 0.91519 0.658 0.13179 0.0
H1922 H 0.84632 0.56026 0.12363 0.0
H1923 H 0.81544 0.51446 0.10179 0.0
H1924 H 0.77667 0.56348 0.06804 0.0
H1925 H 0.80764 0.60957 0.08932 0.0
C1926 C 0.82522 0.70023 0.21092 0.0
C1927 C 0.80505 0.70922 0.20186 0.0
C1928 C 0.83948 0.68387 0.19503 0.0
C1929 C 0.83433 0.67622 0.16943 0.0
C1930 C 0.81403 0.68499 0.16049 0.0
C1931 C 0.79944 0.70083 0.17643 0.0
C1932 C 0.84981 0.65911 0.15198 0.0
C1933 C 0.83458 0.63343 0.1373 0.0
C1934 C 0.87936 0.66763 0.14986 0.0
C1935 C 0.8971 0.6948 0.16412 0.0
C1936 C 0.89465 0.72208 0.16206 0.0
C1937 C 0.91086 0.74743 0.17613 0.0
C1938 C 0.92979 0.74583 0.19216 0.0
C1939 C 0.93261 0.71889 0.19409 0.0
C1940 C 0.91641 0.69346 0.1801 0.0
C1941 C 0.90018 0.57924 0.06105 0.0
C1942 C 0.9247 0.5768 0.06853 0.0
C1943 C 0.8851 0.59484 0.07689 0.0
C1944 C 0.89324 0.60746 0.1013 0.0
C1945 C 0.91759 0.60443 0.10877 0.0
C1946 C 0.93318 0.58983 0.09262 0.0
C1947 C 0.87741 0.62458 0.11874 0.0
C1948 C 0.89258 0.65047 0.13348 0.0
C1949 C 0.84772 0.61604 0.12109 0.0
C1950 C 0.82942 0.58837 0.10796 0.0
C1951 C 0.83134 0.56127 0.11142 0.0
C1952 C 0.81382 0.53526 0.09913 0.0
C1953 C 0.79415 0.53606 0.0835 0.0
C1954 C 0.79194 0.56288 0.08012 0.0
C1955 C 0.80945 0.58894 0.0923 0.0
H1956 H 0.78059 0.5159 0.07404 0.0
H1957 H 0.9423 0.76547 0.20305 0.0
H1958 H 0.31782 0.75363 0.17014 0.0
H1959 H 0.35178 0.78232 0.13973 0.0
H1960 H 0.3592 0.8617 0.18908 0.0
H1961 H 0.32596 0.83335 0.21923 0.0
H1962 H 0.3487 0.86757 0.14408 0.0
H1963 H 0.41229 0.83287 0.17868 0.0
H1964 H 0.43318 0.79835 0.18987 0.0
H1965 H 0.43561 0.76189 0.11307 0.0
H1966 H 0.41448 0.79603 0.10145 0.0
H1967 H 0.45553 0.97491 0.08688 0.0
H1968 H 0.43181 0.9405 0.11737 0.0
H1969 H 0.4321 0.86808 0.06179 0.0
H1970 H 0.45731 0.90284 0.03164 0.0
H1971 H 0.43719 0.85533 0.10684 0.0
H1972 H 0.3759 0.89392 0.07275 0.0
H1973 H 0.36067 0.9333 0.06262 0.0
H1974 H 0.35504 0.96415 0.14063 0.0
H1975 H 0.37085 0.92545 0.15114 0.0
C1976 C 0.32706 0.77716 0.17453 0.0
C1977 C 0.31875 0.79137 0.19675 0.0
C1978 C 0.34646 0.79353 0.15719 0.0
C1979 C 0.35788 0.82426 0.162 0.0
C1980 C 0.35045 0.83811 0.18475 0.0
C1981 C 0.33125 0.82187 0.20193 0.0
C1982 C 0.3761 0.84261 0.14299 0.0
C1983 C 0.36818 0.86499 0.13614 0.0
C1984 C 0.40109 0.83882 0.13198 0.0
C1985 C 0.41157 0.81677 0.13925 0.0
C1986 C 0.41684 0.81715 0.16425 0.0
C1987 C 0.42888 0.79778 0.17064 0.0
C1988 C 0.43582 0.77804 0.15217 0.0
C1989 C 0.43031 0.77726 0.12733 0.0
C1990 C 0.41827 0.79658 0.12084 0.0
C1991 C 0.45129 0.95167 0.0815 0.0
C1992 C 0.45825 0.94139 0.05708 0.0
C1993 C 0.43747 0.93199 0.09879 0.0
C1994 C 0.42934 0.9016 0.09167 0.0
C1995 C 0.43794 0.89138 0.06769 0.0
C1996 C 0.4524 0.91119 0.05051 0.0
C1997 C 0.41012 0.88073 0.10853 0.0
C1998 C 0.41763 0.85773 0.11471 0.0
C1999 C 0.38472 0.88398 0.1191 0.0
C2000 C 0.37474 0.90693 0.11271 0.0
C2001 C 0.37156 0.90922 0.08772 0.0
C2002 C 0.36287 0.93146 0.0819 0.0
C2003 C 0.35699 0.9513 0.10095 0.0
C2004 C 0.3597 0.94889 0.12586 0.0
C2005 C 0.36852 0.92681 0.13176 0.0
H2006 H 0.35028 0.96851 0.0964 0.0
H2007 H 0.44552 0.76335 0.15709 0.0
H2008 H 0.74371 0.22375 0.1671 0.0
H2009 H 0.72185 0.19083 0.13096 0.0
H2010 H 0.65922 0.13721 0.18051 0.0
H2011 H 0.68271 0.16889 0.21661 0.0
H2012 H 0.67193 0.10357 0.14617 0.0
H2013 H 0.6484 0.18965 0.14706 0.0
H2014 H 0.65741 0.24259 0.14789 0.0
H2015 H 0.705 0.24318 0.07766 0.0
H2016 H 0.69658 0.19026 0.07659 0.0
H2017 H 0.55605 0.04309 0.07182 0.0
H2018 H 0.59223 0.06631 0.10129 0.0
H2019 H 0.65032 0.10379 0.04117 0.0
H2020 H 0.61307 0.08159 0.01171 0.0
H2021 H 0.64714 0.1441 0.07691 0.0
H2022 H 0.65597 0.04804 0.07779 0.0
H2023 H 0.63901 0.99535 0.08313 0.0
H2024 H 0.60597 0.01389 0.15731 0.0
H2025 H 0.6223 0.06647 0.15234 0.0
C2026 C 0.72528 0.20482 0.17005 0.0
C2027 C 0.7146 0.19852 0.19424 0.0
C2028 C 0.71277 0.18615 0.14952 0.0
C2029 C 0.68862 0.16182 0.15299 0.0
C2030 C 0.67794 0.15574 0.17737 0.0
C2031 C 0.69113 0.1738 0.19791 0.0
C2032 C 0.67415 0.14281 0.13132 0.0
C2033 C 0.66633 0.11239 0.13106 0.0
C2034 C 0.66725 0.15438 0.11147 0.0
C2035 C 0.67214 0.18611 0.11189 0.0
C2036 C 0.66093 0.20112 0.13187 0.0
C2037 C 0.66592 0.2311 0.13238 0.0
C2038 C 0.68184 0.24626 0.11288 0.0
C2039 C 0.69272 0.23142 0.09278 0.0
C2040 C 0.68785 0.20143 0.0922 0.0
C2041 C 0.57682 0.05565 0.06488 0.0
C2042 C 0.58214 0.0607 0.03976 0.0
C2043 C 0.59758 0.06865 0.08165 0.0
C2044 C 0.62422 0.08633 0.0734 0.0
C2045 C 0.62996 0.08999 0.04785 0.0
C2046 C 0.60887 0.07739 0.03108 0.0
C2047 C 0.64418 0.10465 0.092 0.0
C2048 C 0.6532 0.13515 0.09167 0.0
C2049 C 0.65071 0.09308 0.11209 0.0
C2050 C 0.64047 0.06124 0.11467 0.0
C2051 C 0.64494 0.04085 0.09516 0.0
C2052 C 0.63544 0.01099 0.09815 0.0
C2053 C 0.62154 0.00134 0.1206 0.0
C2054 C 0.61684 0.02142 0.13999 0.0
C2055 C 0.62625 0.05122 0.13711 0.0
H2056 H 0.61452 0.97834 0.12311 0.0
H2057 H 0.68568 0.26948 0.11331 0.0
H2058 H 0.67842 0.71643 0.79857 0.0
H2059 H 0.64735 0.68623 0.82932 0.0
H2060 H 0.698 0.631 0.82069 0.0
H2061 H 0.72983 0.66184 0.7904 0.0
H2062 H 0.63776 0.60037 0.81715 0.0
H2063 H 0.70312 0.66576 0.87244 0.0
H2064 H 0.73334 0.70996 0.89662 0.0
H2065 H 0.66283 0.73755 0.91992 0.0
H2066 H 0.63215 0.69341 0.89591 0.0
H2067 H 0.59839 0.52735 0.92697 0.0
H2068 H 0.62074 0.55498 0.89191 0.0
H2069 H 0.56474 0.60448 0.90694 0.0
H2070 H 0.54162 0.57612 0.9421 0.0
H2071 H 0.62412 0.63803 0.90576 0.0
H2072 H 0.55874 0.56157 0.85469 0.0
H2073 H 0.53352 0.51026 0.83873 0.0
H2074 H 0.61117 0.49834 0.81193 0.0
H2075 H 0.6369 0.54946 0.82801 0.0
C2076 C 0.68293 0.69781 0.80317 0.0
C2077 C 0.70643 0.69131 0.79191 0.0
C2078 C 0.66526 0.68071 0.82088 0.0
C2079 C 0.67035 0.65638 0.82731 0.0
C2080 C 0.6937 0.64969 0.81598 0.0
C2081 C 0.71184 0.66727 0.7987 0.0
C2082 C 0.65068 0.63749 0.84521 0.0
C2083 C 0.63486 0.60854 0.83657 0.0
C2084 C 0.64668 0.64818 0.87047 0.0
C2085 C 0.66544 0.67658 0.882 0.0
C2086 C 0.69416 0.68157 0.88227 0.0
C2087 C 0.7113 0.70638 0.89624 0.0
C2088 C 0.70002 0.72656 0.90978 0.0
C2089 C 0.67156 0.72194 0.90937 0.0
C2090 C 0.65428 0.69703 0.89559 0.0
C2091 C 0.59052 0.54385 0.92263 0.0
C2092 C 0.56844 0.54984 0.93744 0.0
C2093 C 0.6032 0.55946 0.90244 0.0
C2094 C 0.59437 0.5817 0.89672 0.0
C2095 C 0.57176 0.58724 0.91098 0.0
C2096 C 0.55857 0.57109 0.93101 0.0
C2097 C 0.61102 0.60104 0.87775 0.0
C2098 C 0.62643 0.63009 0.88619 0.0
C2099 C 0.61528 0.59006 0.85258 0.0
C2100 C 0.59978 0.55935 0.84269 0.0
C2101 C 0.57047 0.54797 0.84555 0.0
C2102 C 0.55607 0.51891 0.83645 0.0
C2103 C 0.57073 0.50105 0.82436 0.0
C2104 C 0.59983 0.51221 0.82129 0.0
C2105 C 0.61432 0.54124 0.83035 0.0
H2106 H 0.55955 0.47856 0.81734 0.0
H2107 H 0.71335 0.7458 0.92053 0.0
H2108 H 0.31886 0.58778 0.80998 0.0
H2109 H 0.35176 0.57582 0.8323 0.0
H2110 H 0.38192 0.66506 0.86741 0.0
H2111 H 0.34968 0.67732 0.84417 0.0
H2112 H 0.42397 0.64616 0.85757 0.0
H2113 H 0.33545 0.61105 0.89896 0.0
H2114 H 0.28456 0.58604 0.90305 0.0
H2115 H 0.29504 0.50361 0.87582 0.0
H2116 H 0.3461 0.52825 0.87116 0.0
H2117 H 0.48044 0.60493 0.95648 0.0
H2118 H 0.45735 0.62404 0.92972 0.0
H2119 H 0.42411 0.53798 0.88915 0.0
H2120 H 0.44595 0.51831 0.91694 0.0
H2121 H 0.38416 0.55898 0.9039 0.0
H2122 H 0.47828 0.6018 0.8651 0.0
H2123 H 0.52801 0.63228 0.86747 0.0
H2124 H 0.50511 0.70691 0.89876 0.0
H2125 H 0.45526 0.67679 0.89688 0.0
C2126 C 0.3326 0.6048 0.82242 0.0
C2127 C 0.33158 0.63331 0.82568 0.0
C2128 C 0.35136 0.59801 0.83516 0.0
C2129 C 0.36892 0.6194 0.85195 0.0
C2130 C 0.36855 0.64819 0.85461 0.0
C2131 C 0.35009 0.65514 0.84146 0.0
C2132 C 0.3866 0.61113 0.86744 0.0
C2133 C 0.41527 0.62721 0.86785 0.0
C2134 C 0.3752 0.58677 0.88124 0.0
C2135 C 0.34459 0.57155 0.8845 0.0
C2136 C 0.32691 0.58761 0.89371 0.0
C2137 C 0.29805 0.57351 0.89613 0.0
C2138 C 0.28659 0.54329 0.88964 0.0
C2139 C 0.30399 0.52704 0.88081 0.0
C2140 C 0.33291 0.54106 0.87829 0.0
C2141 C 0.46892 0.59018 0.94139 0.0
C2142 C 0.46501 0.56005 0.93883 0.0
C2143 C 0.4557 0.60122 0.92603 0.0
C2144 C 0.43908 0.58254 0.90725 0.0
C2145 C 0.43676 0.55282 0.90357 0.0
C2146 C 0.44942 0.54162 0.91932 0.0
C2147 C 0.42188 0.59308 0.89309 0.0
C2148 C 0.39303 0.57766 0.89332 0.0
C2149 C 0.43305 0.61871 0.88074 0.0
C2150 C 0.46305 0.63699 0.88094 0.0
C2151 C 0.48386 0.62469 0.87251 0.0
C2152 C 0.51207 0.64191 0.87379 0.0
C2153 C 0.51971 0.6715 0.88328 0.0
C2154 C 0.49916 0.68399 0.8914 0.0
C2155 C 0.47094 0.66687 0.89019 0.0
H2156 H 0.54155 0.68476 0.88432 0.0
H2157 H 0.26424 0.53251 0.89152 0.0
H2158 H 0.29943 0.34088 0.79302 0.0
H2159 H 0.32587 0.36903 0.82876 0.0
H2160 H 0.35965 0.30043 0.83148 0.0
H2161 H 0.33363 0.27221 0.79548 0.0
H2162 H 0.31982 0.34387 0.8776 0.0
H2163 H 0.41506 0.32766 0.83931 0.0
H2164 H 0.44443 0.32604 0.80025 0.0
H2165 H 0.42965 0.40075 0.78 0.0
H2166 H 0.39994 0.40245 0.81884 0.0
H2167 H 0.43068 0.37937 0.96625 0.0
H2168 H 0.39497 0.35612 0.93581 0.0
H2169 H 0.40782 0.44034 0.91204 0.0
H2170 H 0.44295 0.46381 0.9425 0.0
H2171 H 0.42284 0.3909 0.87657 0.0
H2172 H 0.35155 0.41768 0.92911 0.0
H2173 H 0.3215 0.41954 0.96751 0.0
H2174 H 0.28721 0.32548 0.95982 0.0
H2175 H 0.31746 0.32309 0.92157 0.0
C2176 C 0.31291 0.33203 0.8009 0.0
C2177 C 0.31444 0.30433 0.79157 0.0
C2178 C 0.32779 0.34803 0.82137 0.0
C2179 C 0.34453 0.33665 0.83257 0.0
C2180 C 0.34689 0.30951 0.82283 0.0
C2181 C 0.33198 0.29344 0.80237 0.0
C2182 C 0.35855 0.35261 0.85521 0.0
C2183 C 0.34234 0.35416 0.87751 0.0
C2184 C 0.38773 0.36601 0.85486 0.0
C2185 C 0.40542 0.36513 0.83172 0.0
C2186 C 0.41816 0.34369 0.82645 0.0
C2187 C 0.43476 0.34272 0.80438 0.0
C2188 C 0.4389 0.36328 0.78765 0.0
C2189 C 0.42638 0.38481 0.79294 0.0
C2190 C 0.4096 0.38574 0.81492 0.0
C2191 C 0.42523 0.39302 0.95511 0.0
C2192 C 0.43996 0.42331 0.95642 0.0
C2193 C 0.40478 0.37975 0.93787 0.0
C2194 C 0.39908 0.39664 0.92177 0.0
C2195 C 0.41198 0.42711 0.9245 0.0
C2196 C 0.43205 0.44043 0.94194 0.0
C2197 C 0.38416 0.38221 0.8992 0.0
C2198 C 0.4003 0.38074 0.87682 0.0
C2199 C 0.35489 0.36887 0.89964 0.0
C2200 C 0.33706 0.37022 0.92276 0.0
C2201 C 0.3379 0.3974 0.93582 0.0
C2202 C 0.32076 0.39855 0.9575 0.0
C2203 C 0.30254 0.37264 0.96617 0.0
C2204 C 0.30139 0.34553 0.95313 0.0
C2205 C 0.31853 0.34427 0.93146 0.0
H2206 H 0.28925 0.37358 0.98294 0.0
H2207 H 0.45181 0.36254 0.77059 0.0
H2208 H 0.6186 0.31398 0.83405 0.0
H2209 H 0.63182 0.36271 0.85777 0.0
H2210 H 0.71409 0.36029 0.86468 0.0
H2211 H 0.701 0.31147 0.84042 0.0
H2212 H 0.67147 0.37278 0.91122 0.0
H2213 H 0.73497 0.44296 0.84422 0.0
H2214 H 0.74714 0.44741 0.79942 0.0
H2215 H 0.66048 0.40801 0.78409 0.0
H2216 H 0.64803 0.40274 0.82889 0.0
H2217 H 0.62155 0.47914 0.96825 0.0
H2218 H 0.66426 0.47896 0.94407 0.0
H2219 H 0.61543 0.42143 0.88493 0.0
H2220 H 0.57241 0.42085 0.90943 0.0
H2221 H 0.67551 0.45958 0.87169 0.0
H2222 H 0.61238 0.37807 0.92664 0.0
H2223 H 0.58703 0.37015 0.96785 0.0
H2224 H 0.65961 0.42919 0.00405 0.0
H2225 H 0.68526 0.43764 0.96294 0.0
C2226 C 0.63931 0.32372 0.84101 0.0
C2227 C 0.65864 0.30909 0.8361 0.0
C2228 C 0.64704 0.35163 0.85398 0.0
C2229 C 0.67419 0.36518 0.86209 0.0
C2230 C 0.69337 0.35033 0.85787 0.0
C2231 C 0.68573 0.32244 0.84454 0.0
C2232 C 0.68052 0.39349 0.87736 0.0
C2233 C 0.67407 0.3926 0.90303 0.0
C2234 C 0.68363 0.41901 0.86646 0.0
C2235 C 0.69081 0.42117 0.8396 0.0
C2236 C 0.71867 0.43443 0.83119 0.0
C2237 C 0.72558 0.43736 0.80584 0.0
C2238 C 0.70464 0.42763 0.78885 0.0
C2239 C 0.67672 0.41515 0.79722 0.0
C2240 C 0.66976 0.41203 0.82256 0.0
C2241 C 0.62 0.46723 0.94968 0.0
C2242 C 0.59412 0.44871 0.94088 0.0
C2243 C 0.64439 0.46776 0.9358 0.0
C2244 C 0.64272 0.45 0.91311 0.0
C2245 C 0.61682 0.43527 0.90259 0.0
C2246 C 0.59237 0.43425 0.9167 0.0
C2247 C 0.66472 0.43789 0.90497 0.0
C2248 C 0.67632 0.44151 0.8807 0.0
C2249 C 0.6654 0.41437 0.91702 0.0
C2250 C 0.65075 0.40832 0.94184 0.0
C2251 C 0.62297 0.38913 0.94344 0.0
C2252 C 0.60851 0.38468 0.96673 0.0
C2253 C 0.62173 0.39912 0.98856 0.0
C2254 C 0.64943 0.41801 0.98712 0.0
C2255 C 0.66393 0.42266 0.96383 0.0
H2256 H 0.6105 0.3957 0.00659 0.0
H2257 H 0.71002 0.43001 0.76923 0.0
H2258 H 0.72079 0.36464 0.13242 0.0
H2259 H 0.6849 0.37181 0.11043 0.0
H2260 H 0.63015 0.36108 0.17706 0.0
H2261 H 0.6664 0.35578 0.19982 0.0
H2262 H 0.61173 0.33343 0.11464 0.0
H2263 H 0.64453 0.41816 0.18167 0.0
H2264 H 0.68397 0.45358 0.20456 0.0
H2265 H 0.72701 0.48152 0.13527 0.0
H2266 H 0.688 0.44581 0.11199 0.0
H2267 H 0.52551 0.39887 0.06587 0.0
H2268 H 0.54771 0.37945 0.09397 0.0
H2269 H 0.62795 0.44148 0.07372 0.0
H2270 H 0.60591 0.46213 0.04756 0.0
H2271 H 0.62826 0.43987 0.11825 0.0
H2272 H 0.59867 0.36132 0.05031 0.0
H2273 H 0.56398 0.32465 0.02334 0.0
H2274 H 0.51962 0.28369 0.08755 0.0
H2275 H 0.55389 0.32034 0.11495 0.0
C2276 C 0.70117 0.36379 0.14252 0.0
C2277 C 0.69686 0.36013 0.16811 0.0
C2278 C 0.6805 0.36737 0.12974 0.0
C2279 C 0.65493 0.36681 0.14214 0.0
C2280 C 0.64971 0.36124 0.16715 0.0
C2281 C 0.67055 0.35819 0.1801 0.0
C2282 C 0.63588 0.37685 0.1301 0.0
C2283 C 0.61486 0.35662 0.11563 0.0
C2284 C 0.64056 0.40707 0.13107 0.0
C2285 C 0.66348 0.42923 0.14512 0.0
C2286 C 0.66248 0.43175 0.17134 0.0
C2287 C 0.68474 0.45186 0.18437 0.0
C2288 C 0.708 0.46976 0.17137 0.0
C2289 C 0.70899 0.46763 0.14531 0.0
C2290 C 0.68682 0.44747 0.1322 0.0
C2291 C 0.54778 0.40861 0.06791 0.0
C2292 C 0.56384 0.4324 0.05495 0.0
C2293 C 0.56051 0.3973 0.08371 0.0
C2294 C 0.58959 0.40873 0.08597 0.0
C2295 C 0.60547 0.43239 0.07279 0.0
C2296 C 0.59276 0.44428 0.05779 0.0
C2297 C 0.60397 0.39659 0.10191 0.0
C2298 C 0.62442 0.41654 0.11728 0.0
C2299 C 0.59901 0.36608 0.10123 0.0
C2300 C 0.57874 0.3437 0.0847 0.0
C2301 C 0.58148 0.34454 0.05868 0.0
C2302 C 0.56188 0.32377 0.04332 0.0
C2303 C 0.53959 0.30188 0.05373 0.0
C2304 C 0.53692 0.30064 0.07952 0.0
C2305 C 0.55643 0.32139 0.09497 0.0
H2306 H 0.52441 0.28586 0.04182 0.0
H2307 H 0.72522 0.4853 0.18149 0.0
H2308 H 0.71534 0.65831 0.21 0.0
H2309 H 0.68983 0.62681 0.17513 0.0
H2310 H 0.66224 0.6964 0.16063 0.0
H2311 H 0.68664 0.72762 0.1962 0.0
H2312 H 0.62089 0.64699 0.15789 0.0
H2313 H 0.71745 0.67776 0.12506 0.0
H2314 H 0.76731 0.6826 0.12072 0.0
H2315 H 0.74505 0.58913 0.11558 0.0
H2316 H 0.6951 0.58374 0.11997 0.0
H2317 H 0.57904 0.61225 0.03868 0.0
H2318 H 0.61353 0.63564 0.06981 0.0
H2319 H 0.61358 0.55104 0.08317 0.0
H2320 H 0.57896 0.5273 0.05205 0.0
H2321 H 0.66773 0.6011 0.08774 0.0
H2322 H 0.57156 0.56998 0.1181 0.0
H2323 H 0.52211 0.56462 0.11625 0.0
H2324 H 0.54384 0.65826 0.12477 0.0
H2325 H 0.59353 0.66414 0.12617 0.0
C2326 C 0.70362 0.66686 0.19956 0.0
C2327 C 0.70312 0.69557 0.20578 0.0
C2328 C 0.6893 0.64889 0.17945 0.0
C2329 C 0.67457 0.65944 0.16502 0.0
C2330 C 0.67356 0.68785 0.17151 0.0
C2331 C 0.68752 0.70568 0.19184 0.0
C2332 C 0.65957 0.64083 0.14344 0.0
C2333 C 0.63129 0.63719 0.14254 0.0
C2334 C 0.67274 0.62699 0.1238 0.0
C2335 C 0.70265 0.63041 0.12306 0.0
C2336 C 0.72325 0.65832 0.12339 0.0
C2337 C 0.75147 0.66114 0.12083 0.0
C2338 C 0.75928 0.63621 0.1179 0.0
C2339 C 0.73894 0.60841 0.11785 0.0
C2340 C 0.71069 0.60546 0.12035 0.0
C2341 C 0.58691 0.59863 0.04773 0.0
C2342 C 0.57579 0.56795 0.04345 0.0
C2343 C 0.60669 0.61203 0.06538 0.0
C2344 C 0.6155 0.5949 0.07896 0.0
C2345 C 0.60685 0.56447 0.07281 0.0
C2346 C 0.58703 0.551 0.05508 0.0
C2347 C 0.62975 0.60848 0.10205 0.0
C2348 C 0.65752 0.61079 0.10333 0.0
C2349 C 0.61616 0.62095 0.12217 0.0
C2350 C 0.58624 0.61749 0.12212 0.0
C2351 C 0.5658 0.58942 0.11945 0.0
C2352 C 0.53774 0.58628 0.11847 0.0
C2353 C 0.52984 0.61108 0.12038 0.0
C2354 C 0.54999 0.63907 0.12331 0.0
C2355 C 0.57809 0.64231 0.12421 0.0
H2356 H 0.5081 0.60863 0.11962 0.0
H2357 H 0.78108 0.63841 0.11542 0.0
H2358 H 0.38333 0.72161 0.13702 0.0
H2359 H 0.36942 0.68138 0.10375 0.0
H2360 H 0.29681 0.63695 0.14928 0.0
H2361 H 0.31151 0.67526 0.18315 0.0
H2362 H 0.33484 0.6116 0.14515 0.0
H2363 H 0.2885 0.63965 0.08762 0.0
H2364 H 0.279 0.67169 0.06123 0.0
H2365 H 0.35721 0.6817 0.01943 0.0
H2366 H 0.36734 0.65 0.04571 0.0
H2367 H 0.37801 0.52088 0.02596 0.0
H2368 H 0.34255 0.53855 0.04983 0.0
H2369 H 0.40552 0.59837 0.09745 0.0
H2370 H 0.4408 0.58091 0.07404 0.0
H2371 H 0.3472 0.59759 0.05283 0.0
H2372 H 0.38026 0.60733 0.15345 0.0
H2373 H 0.39506 0.57883 0.17957 0.0
H2374 H 0.35018 0.49899 0.13575 0.0
H2375 H 0.3348 0.52699 0.10947 0.0
C2376 C 0.36406 0.70364 0.13978 0.0
C2377 C 0.34942 0.70126 0.16326 0.0
C2378 C 0.35569 0.68094 0.12045 0.0
C2379 C 0.33229 0.65596 0.12429 0.0
C2380 C 0.31498 0.65603 0.14604 0.0
C2381 C 0.32366 0.67824 0.16555 0.0
C2382 C 0.33202 0.6276 0.11073 0.0
C2383 C 0.3367 0.60806 0.12491 0.0
C2384 C 0.33431 0.62294 0.08441 0.0
C2385 C 0.32864 0.6424 0.06869 0.0
C2386 C 0.30376 0.64884 0.07291 0.0
C2387 C 0.29825 0.66691 0.05793 0.0
C2388 C 0.31749 0.67873 0.03867 0.0
C2389 C 0.34229 0.67249 0.03433 0.0
C2390 C 0.34789 0.65439 0.04922 0.0
C2391 C 0.38408 0.53738 0.04185 0.0
C2392 C 0.41209 0.54988 0.04807 0.0
C2393 C 0.36387 0.54732 0.05539 0.0
C2394 C 0.37152 0.56932 0.07545 0.0
C2395 C 0.39924 0.58089 0.08228 0.0
C2396 C 0.4194 0.57119 0.06872 0.0
C2397 C 0.35191 0.58349 0.08743 0.0
C2398 C 0.34374 0.60032 0.073 0.0
C2399 C 0.34731 0.58641 0.11361 0.0
C2400 C 0.35617 0.56928 0.12956 0.0
C2401 C 0.37327 0.58367 0.14951 0.0
C2402 C 0.38187 0.56761 0.1643 0.0
C2403 C 0.37353 0.53712 0.15934 0.0
C2404 C 0.35662 0.52262 0.13955 0.0
C2405 C 0.34798 0.53858 0.12468 0.0
H2406 H 0.38018 0.52472 0.17083 0.0
H2407 H 0.31318 0.69272 0.0271 0.0
H2408 H 0.30761 0.34353 0.22342 0.0
H2409 H 0.34132 0.37528 0.19505 0.0
H2410 H 0.35281 0.29886 0.15128 0.0
H2411 H 0.3221 0.26799 0.18149 0.0
H2412 H 0.39817 0.33526 0.15125 0.0
H2413 H 0.31016 0.34418 0.13668 0.0
H2414 H 0.267 0.35592 0.1477 0.0
H2415 H 0.31548 0.44484 0.1728 0.0
H2416 H 0.35885 0.43348 0.16233 0.0
H2417 H 0.43829 0.39646 0.03345 0.0
H2418 H 0.41424 0.36885 0.0686 0.0
H2419 H 0.43945 0.44863 0.11916 0.0
H2420 H 0.46409 0.47607 0.08411 0.0
H2421 H 0.37899 0.41487 0.11781 0.0
H2422 H 0.46673 0.40346 0.12867 0.0
H2423 H 0.50831 0.3898 0.11547 0.0
H2424 H 0.45624 0.30171 0.09181 0.0
H2425 H 0.41424 0.31502 0.10495 0.0
C2426 C 0.31746 0.33376 0.20765 0.0
C2427 C 0.31204 0.30345 0.20415 0.0
C2428 C 0.3365 0.35181 0.19127 0.0
C2429 C 0.34918 0.33957 0.17037 0.0
C2430 C 0.34352 0.30908 0.16712 0.0
C2431 C 0.32576 0.29135 0.18423 0.0
C2432 C 0.36888 0.35818 0.15214 0.0
C2433 C 0.39349 0.35229 0.14377 0.0
C2434 C 0.36371 0.38122 0.14264 0.0
C2435 C 0.33765 0.38789 0.14904 0.0
C2436 C 0.31155 0.36616 0.14475 0.0
C2437 C 0.28707 0.37275 0.15087 0.0
C2438 C 0.28849 0.40107 0.16103 0.0
C2439 C 0.31439 0.42289 0.16502 0.0
C2440 C 0.33891 0.41639 0.15901 0.0
C2441 C 0.43935 0.40778 0.05222 0.0
C2442 C 0.45315 0.43812 0.05637 0.0
C2443 C 0.42562 0.39212 0.07219 0.0
C2444 C 0.42514 0.40678 0.09639 0.0
C2445 C 0.43973 0.43699 0.10061 0.0
C2446 C 0.45386 0.45255 0.08071 0.0
C2447 C 0.40725 0.39104 0.11672 0.0
C2448 C 0.38323 0.39765 0.12545 0.0
C2449 C 0.41241 0.3681 0.12597 0.0
C2450 C 0.43748 0.36029 0.11754 0.0
C2451 C 0.46419 0.38127 0.12039 0.0
C2452 C 0.48783 0.37355 0.11296 0.0
C2453 C 0.48498 0.34492 0.10257 0.0
C2454 C 0.45844 0.32391 0.09974 0.0
C2455 C 0.43472 0.33151 0.10724 0.0
H2456 H 0.5033 0.33895 0.09683 0.0
H2457 H 0.26951 0.40614 0.16574 0.0
H2458 H 0.76321 0.66046 0.69192 0.0
H2459 H 0.78787 0.63327 0.66275 0.0
H2460 H 0.86601 0.70259 0.67734 0.0
H2461 H 0.84145 0.73004 0.70593 0.0
H2462 H 0.86566 0.68531 0.62933 0.0
H2463 H 0.84505 0.63465 0.70226 0.0
H2464 H 0.81495 0.60782 0.73579 0.0
H2465 H 0.76915 0.5404 0.68111 0.0
H2466 H 0.79877 0.56706 0.64723 0.0
H2467 H 0.96106 0.61438 0.57821 0.0
H2468 H 0.93284 0.63795 0.60617 0.0
H2469 H 0.85891 0.5638 0.58899 0.0
H2470 H 0.88739 0.53955 0.56114 0.0
H2471 H 0.8548 0.58222 0.63684 0.0
H2472 H 0.87635 0.63225 0.56387 0.0
H2473 H 0.90637 0.65925 0.5304 0.0
H2474 H 0.95007 0.72818 0.58506 0.0
H2475 H 0.92054 0.70138 0.6189 0.0
C2476 C 0.78561 0.67006 0.68882 0.0
C2477 C 0.80014 0.69765 0.70143 0.0
C2478 C 0.79984 0.65426 0.67221 0.0
C2479 C 0.82912 0.66546 0.66778 0.0
C2480 C 0.84354 0.69315 0.68022 0.0
C2481 C 0.82937 0.70886 0.69681 0.0
C2482 C 0.84483 0.64871 0.65023 0.0
C2483 C 0.86344 0.66287 0.63126 0.0
C2484 C 0.84172 0.61906 0.65193 0.0
C2485 C 0.82391 0.603 0.67222 0.0
C2486 C 0.82841 0.61422 0.69739 0.0
C2487 C 0.81147 0.59903 0.71645 0.0
C2488 C 0.7901 0.57247 0.71058 0.0
C2489 C 0.78568 0.56101 0.68563 0.0
C2490 C 0.80255 0.57613 0.66649 0.0
C2491 C 0.93881 0.60283 0.58028 0.0
C2492 C 0.92675 0.57487 0.56702 0.0
C2493 C 0.9225 0.6166 0.59631 0.0
C2494 C 0.89335 0.60324 0.59957 0.0
C2495 C 0.88124 0.57495 0.58689 0.0
C2496 C 0.89763 0.56102 0.57083 0.0
C2497 C 0.87584 0.61892 0.61606 0.0
C2498 C 0.85692 0.6046 0.63483 0.0
C2499 C 0.87862 0.64848 0.61418 0.0
C2500 C 0.8964 0.66468 0.59391 0.0
C2501 C 0.89249 0.65307 0.56876 0.0
C2502 C 0.9094 0.66835 0.54972 0.0
C2503 C 0.93016 0.69538 0.5556 0.0
C2504 C 0.93401 0.70722 0.58054 0.0
C2505 C 0.91717 0.69201 0.59965 0.0
H2506 H 0.94323 0.70718 0.54083 0.0
H2507 H 0.777 0.56073 0.72537 0.0
H2508 H 0.35047 0.81452 0.72775 0.0
H2509 H 0.38564 0.84176 0.69818 0.0
H2510 H 0.32246 0.82261 0.64518 0.0
H2511 H 0.28815 0.792 0.67359 0.0
H2512 H 0.36377 0.81569 0.62127 0.0
H2513 H 0.35527 0.89369 0.68364 0.0
H2514 H 0.35617 0.92034 0.72595 0.0
H2515 H 0.44191 0.92837 0.72956 0.0
H2516 H 0.44138 0.90141 0.68739 0.0
H2517 H 0.40853 0.93127 0.55023 0.0
H2518 H 0.38853 0.89773 0.58136 0.0
H2519 H 0.47092 0.9089 0.60221 0.0
H2520 H 0.49159 0.94323 0.5705 0.0
H2521 H 0.43047 0.91581 0.64297 0.0
H2522 H 0.4372 0.84561 0.57349 0.0
H2523 H 0.43251 0.82412 0.52947 0.0
H2524 H 0.34407 0.80671 0.53795 0.0
H2525 H 0.34826 0.82851 0.58189 0.0
C2526 C 0.34428 0.81557 0.70956 0.0
C2527 C 0.31692 0.80009 0.70256 0.0
C2528 C 0.36429 0.8318 0.69284 0.0
C2529 C 0.35687 0.83449 0.66934 0.0
C2530 C 0.32894 0.82058 0.66302 0.0
C2531 C 0.30921 0.80333 0.67937 0.0
C2532 C 0.37811 0.85083 0.65089 0.0
C2533 C 0.37814 0.83769 0.6261 0.0
C2534 C 0.39785 0.87909 0.65719 0.0
C2535 C 0.39817 0.89523 0.68253 0.0
C2536 C 0.37424 0.90095 0.69355 0.0
C2537 C 0.37469 0.91613 0.71749 0.0
C2538 C 0.39905 0.92595 0.73047 0.0
C2539 C 0.42304 0.92069 0.71951 0.0
C2540 C 0.42268 0.90547 0.6956 0.0
C2541 C 0.42259 0.92666 0.56129 0.0
C2542 C 0.45168 0.94015 0.55806 0.0
C2543 C 0.41106 0.90725 0.57898 0.0
C2544 C 0.42823 0.90066 0.59388 0.0
C2545 C 0.45738 0.91368 0.5907 0.0
C2546 C 0.46911 0.93314 0.57261 0.0
C2547 C 0.41481 0.88121 0.61344 0.0
C2548 C 0.4164 0.89359 0.63843 0.0
C2549 C 0.39583 0.85267 0.60724 0.0
C2550 C 0.39309 0.83874 0.581 0.0
C2551 C 0.41677 0.83728 0.56594 0.0
C2552 C 0.41419 0.82505 0.541 0.0
C2553 C 0.38802 0.81407 0.53092 0.0
C2554 C 0.36433 0.81519 0.54579 0.0
C2555 C 0.36679 0.82742 0.57074 0.0
H2556 H 0.38608 0.80467 0.51158 0.0
H2557 H 0.39936 0.9377 0.749 0.0
H2558 H 0.20341 0.35366 0.6471 0.0
H2559 H 0.17872 0.36895 0.61839 0.0
H2560 H 0.10921 0.35888 0.67289 0.0
H2561 H 0.13328 0.34259 0.70126 0.0
H2562 H 0.09146 0.34 0.62617 0.0
H2563 H 0.16028 0.42606 0.66695 0.0
H2564 H 0.20793 0.4566 0.67846 0.0
H2565 H 0.23518 0.46008 0.6009 0.0
H2566 H 0.18779 0.42925 0.58893 0.0
H2567 H 0.02781 0.42153 0.56854 0.0
H2568 H 0.04793 0.40283 0.59883 0.0
H2569 H 0.1267 0.42659 0.55534 0.0
H2570 H 0.10741 0.44734 0.52673 0.0
H2571 H 0.1385 0.43883 0.59893 0.0
H2572 H 0.07352 0.35174 0.55635 0.0
H2573 H 0.02745 0.31918 0.54236 0.0
H2574 H 0.99496 0.31469 0.61861 0.0
H2575 H 0.04077 0.34745 0.63305 0.0
C2576 C 0.18263 0.35412 0.65276 0.0
C2577 C 0.17045 0.34727 0.67661 0.0
C2578 C 0.16865 0.36314 0.63643 0.0
C2579 C 0.14235 0.36565 0.64371 0.0
C2580 C 0.12957 0.35735 0.66695 0.0
C2581 C 0.14346 0.34827 0.68322 0.0
C2582 C 0.12863 0.37821 0.62771 0.0
C2583 C 0.10162 0.36169 0.6203 0.0
C2584 C 0.14208 0.40632 0.61974 0.0
C2585 C 0.17051 0.42514 0.62705 0.0
C2586 C 0.17646 0.4332 0.65235 0.0
C2587 C 0.20343 0.45058 0.65896 0.0
C2588 C 0.22458 0.46023 0.64042 0.0
C2589 C 0.21879 0.45258 0.61524 0.0
C2590 C 0.19188 0.43518 0.60854 0.0
C2591 C 0.04948 0.42293 0.56577 0.0
C2592 C 0.06616 0.43603 0.54549 0.0
C2593 C 0.06092 0.41197 0.58288 0.0
C2594 C 0.08883 0.41271 0.57926 0.0
C2595 C 0.10525 0.42579 0.55883 0.0
C2596 C 0.09418 0.43766 0.54241 0.0
C2597 C 0.10146 0.40028 0.5965 0.0
C2598 C 0.12825 0.417 0.6045 0.0
C2599 C 0.08803 0.37206 0.60446 0.0
C2600 C 0.06051 0.35229 0.59576 0.0
C2601 C 0.05651 0.34394 0.57012 0.0
C2602 C 0.03045 0.32543 0.56211 0.0
C2603 C 1.00828 0.31494 0.57958 0.0
C2604 C 0.01214 0.32287 0.6051 0.0
C2605 C 0.03815 0.34138 0.6132 0.0
H2606 H 0.98812 0.30062 0.57334 0.0
H2607 H 0.24543 0.47367 0.64558 0.0
H2608 H 0.68157 0.18862 0.70318 0.0
H2609 H 0.66004 0.15122 0.66997 0.0
H2610 H 0.74096 0.14927 0.64025 0.0
H2611 H 0.76309 0.18744 0.67368 0.0
H2612 H 0.70667 0.15327 0.60422 0.0
H2613 H 0.69901 0.09245 0.66797 0.0
H2614 H 0.6889 0.07907 0.71099 0.0
H2615 H 0.60312 0.0709 0.70752 0.0
H2616 H 0.61278 0.08482 0.66471 0.0
H2617 H 0.60726 0.04091 0.52124 0.0
H2618 H 0.64664 0.0589 0.54902 0.0
H2619 H 0.59867 0.09889 0.60284 0.0
H2620 H 0.56039 0.08231 0.57522 0.0
H2621 H 0.62736 0.06387 0.62251 0.0
H2622 H 0.63886 0.14326 0.57231 0.0
H2623 H 0.64466 0.1632 0.53202 0.0
H2624 H 0.71862 0.14061 0.51266 0.0
H2625 H 0.71295 0.12012 0.55278 0.0
C2626 C 0.69496 0.18029 0.68974 0.0
C2627 C 0.72413 0.19108 0.69114 0.0
C2628 C 0.68253 0.15867 0.67081 0.0
C2629 C 0.69885 0.14711 0.65289 0.0
C2630 C 0.728 0.15777 0.65406 0.0
C2631 C 0.74057 0.17952 0.67316 0.0
C2632 C 0.68492 0.12509 0.63238 0.0
C2633 C 0.69004 0.13309 0.608 0.0
C2634 C 0.6628 0.09911 0.63749 0.0
C2635 C 0.65666 0.08964 0.663 0.0
C2636 C 0.67799 0.08785 0.67637 0.0
C2637 C 0.67234 0.08021 0.70076 0.0
C2638 C 0.64538 0.0741 0.71196 0.0
C2639 C 0.62399 0.07556 0.69879 0.0
C2640 C 0.62954 0.08328 0.67443 0.0
C2641 C 0.60536 0.05359 0.539 0.0
C2642 C 0.58108 0.06067 0.54598 0.0
C2643 C 0.62767 0.06368 0.55482 0.0
C2644 C 0.62534 0.07999 0.57802 0.0
C2645 C 0.60077 0.08618 0.58512 0.0
C2646 C 0.57905 0.07697 0.56918 0.0
C2647 C 0.64867 0.09264 0.59476 0.0
C2648 C 0.64509 0.08306 0.61846 0.0
C2649 C 0.67175 0.11753 0.58929 0.0
C2650 C 0.67525 0.12977 0.56527 0.0
C2651 C 0.65618 0.14227 0.55933 0.0
C2652 C 0.65947 0.15373 0.53657 0.0
C2653 C 0.68193 0.15306 0.51973 0.0
C2654 C 0.70118 0.14101 0.52568 0.0
C2655 C 0.69793 0.12946 0.54841 0.0
H2656 H 0.68447 0.16196 0.50212 0.0
H2657 H 0.64106 0.06825 0.73086 0.0
H2658 H 0.81773 0.34334 0.28404 0.0
H2659 H 0.84656 0.37399 0.31787 0.0
H2660 H 0.81832 0.30109 0.36183 0.0
H2661 H 0.79014 0.27034 0.32814 0.0
H2662 H 0.83044 0.38785 0.36993 0.0
H2663 H 0.8656 0.2951 0.38387 0.0
H2664 H 0.87566 0.25317 0.35907 0.0
H2665 H 0.90863 0.30422 0.2976 0.0
H2666 H 0.89783 0.34606 0.3218 0.0
H2667 H 0.91869 0.39521 0.4796 0.0
H2668 H 0.8847 0.3695 0.44775 0.0
H2669 H 0.92256 0.44076 0.40274 0.0
H2670 H 0.95382 0.46765 0.43533 0.0
H2671 H 0.90544 0.35672 0.39493 0.0
H2672 H 0.88725 0.45506 0.39174 0.0
H2673 H 0.88251 0.4954 0.42267 0.0
H2674 H 0.81616 0.43394 0.46257 0.0
H2675 H 0.82282 0.39297 0.43337 0.0
C2676 C 0.81772 0.33402 0.301 0.0
C2677 C 0.80199 0.30459 0.3036 0.0
C2678 C 0.83401 0.35147 0.3202 0.0
C2679 C 0.83451 0.33956 0.34206 0.0
C2680 C 0.81836 0.31038 0.34484 0.0
C2681 C 0.8024 0.29289 0.32562 0.0
C2682 C 0.85261 0.35705 0.36187 0.0
C2683 C 0.84711 0.38137 0.37513 0.0
C2684 C 0.8739 0.3482 0.3689 0.0
C2685 C 0.88106 0.32355 0.35459 0.0
C2686 C 0.87512 0.29732 0.3651 0.0
C2687 C 0.88077 0.27355 0.3511 0.0
C2688 C 0.89283 0.27604 0.32678 0.0
C2689 C 0.89913 0.30226 0.31636 0.0
C2690 C 0.89311 0.32593 0.33014 0.0
C2691 C 0.91841 0.40588 0.4635 0.0
C2692 C 0.93798 0.43357 0.46003 0.0
C2693 C 0.89947 0.39116 0.4453 0.0
C2694 C 0.90079 0.4038 0.42338 0.0
C2695 C 0.92026 0.4315 0.42014 0.0
C2696 C 0.9381 0.44677 0.43874 0.0
C2697 C 0.88332 0.38744 0.40286 0.0
C2698 C 0.88892 0.36332 0.38954 0.0
C2699 C 0.86246 0.39671 0.3956 0.0
C2700 C 0.85553 0.42112 0.41051 0.0
C2701 C 0.87174 0.4502 0.40719 0.0
C2702 C 0.86902 0.47311 0.42462 0.0
C2703 C 0.84881 0.4673 0.44442 0.0
C2704 C 0.83171 0.43845 0.44714 0.0
C2705 C 0.83527 0.41534 0.43041 0.0
H2706 H 0.84645 0.48513 0.45768 0.0
H2707 H 0.89728 0.25764 0.316 0.0
H2708 H 0.723 0.83231 0.27569 0.0
H2709 H 0.69687 0.85828 0.30386 0.0
H2710 H 0.66993 0.78798 0.35041 0.0
H2711 H 0.69503 0.76131 0.32159 0.0
H2712 H 0.62763 0.80591 0.3464 0.0
H2713 H 0.72503 0.85884 0.36476 0.0
H2714 H 0.77385 0.8857 0.35144 0.0
H2715 H 0.74788 0.9494 0.32381 0.0
H2716 H 0.69892 0.92279 0.33671 0.0
H2717 H 0.56911 0.87727 0.44814 0.0
H2718 H 0.59635 0.85207 0.4206 0.0
H2719 H 0.63825 0.93087 0.38527 0.0
H2720 H 0.61277 0.95688 0.41486 0.0
H2721 H 0.67343 0.90867 0.38243 0.0
H2722 H 0.57948 0.86028 0.35973 0.0
H2723 H 0.52887 0.834 0.36548 0.0
H2724 H 0.54496 0.76384 0.39296 0.0
H2725 H 0.59567 0.78986 0.38763 0.0
C2726 C 0.71154 0.82216 0.29188 0.0
C2727 C 0.71175 0.79453 0.2963 0.0
C2728 C 0.69667 0.83734 0.30825 0.0
C2729 C 0.68172 0.82573 0.32992 0.0
C2730 C 0.68141 0.79789 0.33413 0.0
C2731 C 0.69614 0.7826 0.31763 0.0
C2732 C 0.66619 0.84227 0.34793 0.0
C2733 C 0.63781 0.82825 0.35456 0.0
C2734 C 0.67875 0.87196 0.35795 0.0
C2735 C 0.70834 0.88871 0.35152 0.0
C2736 C 0.72977 0.87858 0.35586 0.0
C2737 C 0.75744 0.89373 0.34835 0.0
C2738 C 0.76389 0.91912 0.33667 0.0
C2739 C 0.7428 0.92969 0.3328 0.0
C2740 C 0.71512 0.91462 0.34025 0.0
C2741 C 0.58423 0.88929 0.43456 0.0
C2742 C 0.58852 0.91914 0.43373 0.0
C2743 C 0.59967 0.87464 0.41836 0.0
C2744 C 0.61899 0.88876 0.39966 0.0
C2745 C 0.62357 0.91889 0.39912 0.0
C2746 C 0.60886 0.93391 0.41609 0.0
C2747 C 0.63454 0.87237 0.38116 0.0
C2748 C 0.66302 0.88635 0.37442 0.0
C2749 C 0.62178 0.8429 0.37031 0.0
C2750 C 0.59134 0.82718 0.37355 0.0
C2751 C 0.5722 0.83934 0.36715 0.0
C2752 C 0.54351 0.82447 0.37031 0.0
C2753 C 0.53371 0.79732 0.37966 0.0
C2754 C 0.55258 0.7849 0.38577 0.0
C2755 C 0.5813 0.79969 0.38267 0.0
H2756 H 0.51148 0.78586 0.38211 0.0
H2757 H 0.78518 0.93058 0.33052 0.0
H2758 H 0.18712 0.67167 0.26399 0.0
H2759 H 0.15582 0.63697 0.29153 0.0
H2760 H 0.18702 0.69905 0.35577 0.0
H2761 H 0.21979 0.73257 0.32821 0.0
H2762 H 0.18029 0.64909 0.36704 0.0
H2763 H 0.11942 0.68399 0.32536 0.0
H2764 H 0.09959 0.69091 0.28819 0.0
H2765 H 0.07101 0.59814 0.26619 0.0
H2766 H 0.09085 0.59058 0.30315 0.0
H2767 H 0.07575 0.59566 0.45909 0.0
H2768 H 0.10209 0.62686 0.42694 0.0
H2769 H 0.07577 0.55304 0.3703 0.0
H2770 H 0.04945 0.52183 0.40257 0.0
H2771 H 0.07912 0.60478 0.35322 0.0
H2772 H 0.13558 0.568 0.39348 0.0
H2773 H 0.15518 0.5573 0.42905 0.0
H2774 H 0.19295 0.64945 0.45152 0.0
H2775 H 0.17307 0.66074 0.41632 0.0
C2776 C 0.18702 0.67784 0.28401 0.0
C2777 C 0.20538 0.70489 0.29408 0.0
C2778 C 0.16906 0.65809 0.29978 0.0
C2779 C 0.16821 0.6656 0.32586 0.0
C2780 C 0.18693 0.69265 0.33579 0.0
C2781 C 0.20553 0.71194 0.32007 0.0
C2782 C 0.14806 0.64556 0.34297 0.0
C2783 C 0.15812 0.63989 0.36416 0.0
C2784 C 0.11918 0.63217 0.33879 0.0
C2785 C 0.1068 0.63676 0.3169 0.0
C2786 C 0.10896 0.66508 0.31257 0.0
C2787 C 0.09774 0.66912 0.29153 0.0
C2788 C 0.08413 0.64504 0.2748 0.0
C2789 C 0.08158 0.61679 0.27914 0.0
C2790 C 0.09277 0.6126 0.30015 0.0
C2791 C 0.07468 0.58648 0.43964 0.0
C2792 C 0.06019 0.55661 0.43313 0.0
C2793 C 0.08999 0.60417 0.42134 0.0
C2794 C 0.09125 0.59217 0.39625 0.0
C2795 C 0.0751 0.56276 0.38951 0.0
C2796 C 0.05991 0.54502 0.40788 0.0
C2797 C 0.1113 0.60957 0.37762 0.0
C2798 C 0.10128 0.61435 0.35613 0.0
C2799 C 0.14026 0.62183 0.38131 0.0
C2800 C 0.15253 0.61521 0.40241 0.0
C2801 C 0.14784 0.586 0.40613 0.0
C2802 C 0.15903 0.57982 0.42622 0.0
C2803 C 0.17523 0.60268 0.44259 0.0
C2804 C 0.18034 0.63177 0.43885 0.0
C2805 C 0.1691 0.63807 0.41883 0.0
H2806 H 0.18389 0.59785 0.45812 0.0
H2807 H 0.07551 0.64828 0.25851 0.0
H2808 H 0.33332 0.17349 0.35986 0.0
H2809 H 0.35255 0.14053 0.37604 0.0
H2810 H 0.43575 0.19441 0.35341 0.0
H2811 H 0.41663 0.22775 0.33785 0.0
H2812 H 0.42212 0.12788 0.34554 0.0
H2813 H 0.42012 0.20987 0.40774 0.0
H2814 H 0.39571 0.24116 0.43219 0.0
H2815 H 0.33636 0.16585 0.46282 0.0
H2816 H 0.36017 0.13407 0.43811 0.0
H2817 H 0.50247 0.1091 0.44617 0.0
H2818 H 0.48442 0.13225 0.41767 0.0
H2819 H 0.40357 0.06533 0.42397 0.0
H2820 H 0.42127 0.04161 0.45141 0.0
H2821 H 0.41577 0.13656 0.43825 0.0
H2822 H 0.41288 0.0541 0.37681 0.0
H2823 H 0.43266 0.01932 0.35139 0.0
H2824 H 0.49602 0.09068 0.319 0.0
H2825 H 0.47682 0.12592 0.34469 0.0
C2826 C 0.35563 0.17783 0.35788 0.0
C2827 C 0.37358 0.20305 0.34772 0.0
C2828 C 0.36658 0.15907 0.36709 0.0
C2829 C 0.39557 0.1651 0.36591 0.0
C2830 C 0.41335 0.18931 0.35434 0.0
C2831 C 0.40245 0.20835 0.34558 0.0
C2832 C 0.40753 0.14836 0.37936 0.0
C2833 C 0.42097 0.12998 0.36579 0.0
C2834 C 0.40553 0.15055 0.40574 0.0
C2835 C 0.39169 0.16965 0.42095 0.0
C2836 C 0.40173 0.20001 0.41956 0.0
C2837 C 0.38803 0.21781 0.43346 0.0
C2838 C 0.36445 0.2055 0.44901 0.0
C2839 C 0.35459 0.17536 0.45074 0.0
C2840 C 0.36817 0.15745 0.4368 0.0
C2841 C 0.48105 0.09897 0.44103 0.0
C2842 C 0.46341 0.0735 0.45118 0.0
C2843 C 0.47078 0.11219 0.42474 0.0
C2844 C 0.44272 0.10031 0.41862 0.0
C2845 C 0.42536 0.07459 0.4282 0.0
C2846 C 0.43564 0.0611 0.44396 0.0
C2847 C 0.43059 0.11624 0.40448 0.0
C2848 C 0.41708 0.13454 0.41799 0.0
C2849 C 0.43202 0.11346 0.37811 0.0
C2850 C 0.44387 0.09259 0.36303 0.0
C2851 C 0.43134 0.06238 0.3646 0.0
C2852 C 0.44234 0.04258 0.35006 0.0
C2853 C 0.46571 0.05279 0.3337 0.0
C2854 C 0.47802 0.08282 0.33178 0.0
C2855 C 0.46711 0.10271 0.34634 0.0
H2856 H 0.47419 0.03743 0.32241 0.0
H2857 H 0.35385 0.21932 0.45976 0.0
H2858 H 0.64347 0.78607 0.64471 0.0
H2859 H 0.62538 0.80877 0.61615 0.0
H2860 H 0.63416 0.88357 0.67144 0.0
H2861 H 0.65246 0.86123 0.69984 0.0
H2862 H 0.58367 0.86453 0.65463 0.0
H2863 H 0.67601 0.88881 0.61821 0.0
H2864 H 0.71933 0.88164 0.59914 0.0
H2865 H 0.67445 0.82515 0.53803 0.0
H2866 H 0.63074 0.83155 0.55699 0.0
H2867 H 0.5715 0.96228 0.57003 0.0
H2868 H 0.59038 0.93967 0.59809 0.0
H2869 H 0.55125 0.85472 0.55798 0.0
H2870 H 0.53147 0.87699 0.53038 0.0
H2871 H 0.6167 0.87898 0.56647 0.0
H2872 H 0.52329 0.85595 0.60615 0.0
H2873 H 0.48285 0.86938 0.62497 0.0
H2874 H 0.53411 0.93008 0.68054 0.0
H2875 H 0.57497 0.91739 0.66169 0.0
C2876 C 0.64211 0.80762 0.65058 0.0
C2877 C 0.64911 0.82164 0.67472 0.0
C2878 C 0.63168 0.82057 0.63424 0.0
C2879 C 0.62821 0.84787 0.64165 0.0
C2880 C 0.6363 0.86238 0.66534 0.0
C2881 C 0.64674 0.84952 0.6816 0.0
C2882 C 0.61462 0.86056 0.62545 0.0
C2883 C 0.59115 0.86785 0.63543 0.0
C2884 C 0.62402 0.86481 0.60028 0.0
C2885 C 0.65005 0.86029 0.5892 0.0
C2886 C 0.67531 0.87452 0.60088 0.0
C2887 C 0.69995 0.87067 0.59006 0.0
C2888 C 0.69963 0.85285 0.56744 0.0
C2889 C 0.67466 0.83886 0.55559 0.0
C2890 C 0.64995 0.84257 0.56637 0.0
C2891 C 0.56637 0.9387 0.56756 0.0
C2892 C 0.5498 0.9214 0.54811 0.0
C2893 C 0.57731 0.92586 0.58349 0.0
C2894 C 0.57237 0.89558 0.57996 0.0
C2895 C 0.55532 0.87814 0.56096 0.0
C2896 C 0.5438 0.89087 0.54539 0.0
C2897 C 0.58579 0.88239 0.59565 0.0
C2898 C 0.60924 0.87527 0.58562 0.0
C2899 C 0.57672 0.87872 0.62085 0.0
C2900 C 0.55218 0.88602 0.63235 0.0
C2901 C 0.52597 0.87239 0.62222 0.0
C2902 C 0.50298 0.87982 0.63291 0.0
C2903 C 0.50593 0.90066 0.65388 0.0
C2904 C 0.53186 0.914 0.66426 0.0
C2905 C 0.55494 0.9067 0.65359 0.0
H2906 H 0.48811 0.90642 0.6621 0.0
H2907 H 0.71875 0.84996 0.55905 0.0
H2908 H 0.665 0.20558 0.28307 0.0
H2909 H 0.63159 0.17625 0.31303 0.0
H2910 H 0.69849 0.15778 0.34131 0.0
H2911 H 0.73225 0.18977 0.31288 0.0
H2912 H 0.6463 0.10687 0.32698 0.0
H2913 H 0.67978 0.20124 0.37591 0.0
H2914 H 0.68968 0.25449 0.38523 0.0
H2915 H 0.60273 0.24161 0.38207 0.0
H2916 H 0.59241 0.18829 0.37211 0.0
H2917 H 0.60958 0.05475 0.44073 0.0
H2918 H 0.63008 0.08573 0.40801 0.0
H2919 H 0.55099 0.09564 0.4007 0.0
H2920 H 0.52962 0.06388 0.43416 0.0
H2921 H 0.60133 0.14977 0.40056 0.0
H2922 H 0.56742 0.05367 0.35716 0.0
H2923 H 0.55864 0.00046 0.35036 0.0
H2924 H 0.64687 0.01641 0.34399 0.0
H2925 H 0.65619 0.06971 0.35114 0.0
C2926 C 0.67264 0.19647 0.29646 0.0
C2927 C 0.70116 0.20084 0.2964 0.0
C2928 C 0.65353 0.17911 0.31313 0.0
C2929 C 0.66265 0.16503 0.32943 0.0
C2930 C 0.6911 0.16855 0.32885 0.0
C2931 C 0.71029 0.18662 0.31261 0.0
C2932 C 0.64246 0.14657 0.34706 0.0
C2933 C 0.63645 0.1162 0.34307 0.0
C2934 C 0.62906 0.15877 0.36757 0.0
C2935 C 0.63535 0.19083 0.373 0.0
C2936 C 0.66282 0.20979 0.37684 0.0
C2937 C 0.6685 0.23997 0.38232 0.0
C2938 C 0.64682 0.25139 0.38433 0.0
C2939 C 0.61948 0.2327 0.38058 0.0
C2940 C 0.61371 0.20252 0.37497 0.0
C2941 C 0.59622 0.06331 0.43235 0.0
C2942 C 0.56771 0.05638 0.43999 0.0
C2943 C 0.60814 0.08114 0.41355 0.0
C2944 C 0.59201 0.09259 0.40168 0.0
C2945 C 0.56373 0.08678 0.40961 0.0
C2946 C 0.55157 0.06865 0.42865 0.0
C2947 C 0.60548 0.11004 0.38073 0.0
C2948 C 0.61047 0.14029 0.38408 0.0
C2949 C 0.61797 0.09774 0.35956 0.0
C2950 C 0.6125 0.0657 0.35474 0.0
C2951 C 0.58495 0.04583 0.35442 0.0
C2952 C 0.57988 0.01565 0.3505 0.0
C2953 C 0.60218 0.00506 0.34675 0.0
C2954 C 0.62961 0.02464 0.34686 0.0
C2955 C 0.63481 0.05484 0.3508 0.0
H2956 H 0.59821 0.98168 0.34375 0.0
H2957 H 0.65117 0.27471 0.38887 0.0
H2958 H 0.81881 0.6629 0.3631 0.0
H2959 H 0.85444 0.65713 0.38701 0.0
H2960 H 0.88501 0.61533 0.32038 0.0
H2961 H 0.84932 0.62069 0.29677 0.0
H2962 H 0.86723 0.58068 0.35711 0.0
H2963 H 0.92604 0.68062 0.35035 0.0
H2964 H 0.93737 0.73425 0.35526 0.0
H2965 H 0.92046 0.7343 0.43458 0.0
H2966 H 0.90859 0.68062 0.43014 0.0
H2967 H 0.95805 0.53659 0.42064 0.0
H2968 H 0.93697 0.55547 0.39148 0.0
H2969 H 0.92809 0.62228 0.44979 0.0
H2970 H 0.95194 0.60533 0.47768 0.0
H2971 H 0.93832 0.6468 0.41387 0.0
H2972 H 0.85393 0.55166 0.41488 0.0
H2973 H 0.82626 0.49905 0.40692 0.0
H2974 H 0.88133 0.48995 0.34325 0.0
H2975 H 0.90844 0.54282 0.35022 0.0
C2976 C 0.83385 0.65349 0.35348 0.0
C2977 C 0.83139 0.64216 0.32816 0.0
C2978 C 0.85422 0.65022 0.36711 0.0
C2979 C 0.87246 0.63576 0.35551 0.0
C2980 C 0.87125 0.62657 0.32975 0.0
C2981 C 0.85089 0.62965 0.31625 0.0
C2982 C 0.88916 0.62548 0.3706 0.0
C2983 C 0.88314 0.59521 0.36929 0.0
C2984 C 0.90903 0.64426 0.38724 0.0
C2985 C 0.91616 0.67653 0.38986 0.0
C2986 C 0.92447 0.69202 0.36882 0.0
C2987 C 0.93105 0.72244 0.37153 0.0
C2988 C 0.92957 0.73764 0.39521 0.0
C2989 C 0.92156 0.72248 0.41625 0.0
C2990 C 0.91493 0.69207 0.41364 0.0
C2991 C 0.952 0.55564 0.42691 0.0
C2992 C 0.95714 0.56991 0.4512 0.0
C2993 C 0.93922 0.56607 0.41041 0.0
C2994 C 0.92992 0.59003 0.41826 0.0
C2995 C 0.93507 0.60401 0.44277 0.0
C2996 C 0.94882 0.59436 0.45883 0.0
C2997 C 0.91585 0.60145 0.40111 0.0
C2998 C 0.92244 0.63207 0.40183 0.0
C2999 C 0.89557 0.58296 0.38449 0.0
C3000 C 0.88386 0.55079 0.3837 0.0
C3001 C 0.86055 0.53821 0.39963 0.0
C3002 C 0.84455 0.50855 0.3949 0.0
C3003 C 0.85207 0.49117 0.37461 0.0
C3004 C 0.87562 0.50339 0.35902 0.0
C3005 C 0.89121 0.53321 0.36327 0.0
H3006 H 0.83969 0.46819 0.37103 0.0
H3007 H 0.93469 0.76117 0.39726 0.0
H3008 H 0.2587 0.81364 0.32452 0.0
H3009 H 0.28261 0.84445 0.36092 0.0
H3010 H 0.36213 0.85729 0.31983 0.0
H3011 H 0.33853 0.82631 0.28386 0.0
H3012 H 0.36254 0.83891 0.3627 0.0
H3013 H 0.33833 0.9137 0.3344 0.0
H3014 H 0.30643 0.93477 0.31961 0.0
H3015 H 0.25824 0.92499 0.38968 0.0
H3016 H 0.28977 0.90357 0.40479 0.0
H3017 H 0.43885 0.97647 0.4434 0.0
H3018 H 0.40037 0.95424 0.41577 0.0
H3019 H 0.37713 0.87364 0.44927 0.0
H3020 H 0.41679 0.89525 0.47577 0.0
H3021 H 0.34631 0.92598 0.41134 0.0
H3022 H 0.37006 0.81854 0.4064 0.0
H3023 H 0.40827 0.80252 0.41566 0.0
H3024 H 0.4681 0.88654 0.40212 0.0
H3025 H 0.43027 0.90286 0.39251 0.0
C3026 C 0.28123 0.8236 0.32318 0.0
C3027 C 0.29683 0.81741 0.30157 0.0
C3028 C 0.29486 0.84112 0.34394 0.0
C3029 C 0.32417 0.85289 0.34313 0.0
C3030 C 0.33954 0.84809 0.32097 0.0
C3031 C 0.32602 0.83045 0.30042 0.0
C3032 C 0.33917 0.86835 0.36575 0.0
C3033 C 0.35878 0.85781 0.37339 0.0
C3034 C 0.33482 0.8934 0.37937 0.0
C3035 C 0.31625 0.90688 0.37066 0.0
C3036 C 0.32086 0.91595 0.34661 0.0
C3037 C 0.30287 0.92796 0.33817 0.0
C3038 C 0.2803 0.93119 0.35369 0.0
C3039 C 0.27575 0.9225 0.3777 0.0
C3040 C 0.2937 0.91047 0.38623 0.0
C3041 C 0.425 0.95429 0.44537 0.0
C3042 C 0.43108 0.93725 0.46118 0.0
C3043 C 0.40291 0.94165 0.42965 0.0
C3044 C 0.38638 0.91201 0.42994 0.0
C3045 C 0.3901 0.89633 0.44829 0.0
C3046 C 0.41271 0.90864 0.46342 0.0
C3047 C 0.3694 0.89625 0.40839 0.0
C3048 C 0.34959 0.90675 0.40087 0.0
C3049 C 0.37448 0.8719 0.39399 0.0
C3050 C 0.39737 0.86192 0.39895 0.0
C3051 C 0.3914 0.83348 0.40526 0.0
C3052 C 0.41297 0.82438 0.4106 0.0
C3053 C 0.44059 0.84352 0.40953 0.0
C3054 C 0.44671 0.87175 0.40299 0.0
C3055 C 0.42523 0.88093 0.39758 0.0
H3056 H 0.45725 0.83645 0.41372 0.0
H3057 H 0.26636 0.94046 0.34712 0.0
H3058 H 0.25548 0.33588 0.30147 0.0
H3059 H 0.2314 0.36497 0.3287 0.0
H3060 H 0.15377 0.29244 0.32154 0.0
H3061 H 0.17747 0.26461 0.29274 0.0
H3062 H 0.13884 0.33279 0.32244 0.0
H3063 H 0.20044 0.32759 0.38529 0.0
H3064 H 0.24434 0.336 0.40497 0.0
H3065 H 0.27503 0.4253 0.3886 0.0
H3066 H 0.23081 0.41778 0.36985 0.0
H3067 H 0.06085 0.38183 0.42482 0.0
H3068 H 0.08794 0.35738 0.39628 0.0
H3069 H 0.15801 0.43809 0.39769 0.0
H3070 H 0.13111 0.46257 0.42714 0.0
H3071 H 0.17777 0.39746 0.39832 0.0
H3072 H 0.11236 0.40446 0.34484 0.0
H3073 H 0.066 0.39822 0.33119 0.0
H3074 H 0.04187 0.30492 0.33029 0.0
H3075 H 0.08799 0.31063 0.34422 0.0
C3076 C 0.23327 0.3261 0.30577 0.0
C3077 C 0.2186 0.29771 0.29463 0.0
C3078 C 0.21935 0.34275 0.32186 0.0
C3079 C 0.19033 0.33126 0.32822 0.0
C3080 C 0.17593 0.30258 0.31729 0.0
C3081 C 0.18967 0.28635 0.30072 0.0
C3082 C 0.17451 0.34892 0.3451 0.0
C3083 C 0.14743 0.34635 0.33928 0.0
C3084 C 0.18534 0.36825 0.36674 0.0
C3085 C 0.21264 0.37198 0.37585 0.0
C3086 C 0.21671 0.34889 0.38565 0.0
C3087 C 0.24151 0.35358 0.39683 0.0
C3088 C 0.26254 0.38107 0.39782 0.0
C3089 C 0.25877 0.40401 0.38776 0.0
C3090 C 0.23378 0.39962 0.37705 0.0
C3091 C 0.08198 0.39463 0.41905 0.0
C3092 C 0.09346 0.42451 0.42846 0.0
C3093 C 0.09754 0.3805 0.40236 0.0
C3094 C 0.12516 0.3957 0.39396 0.0
C3095 C 0.13681 0.42553 0.40348 0.0
C3096 C 0.12127 0.43968 0.42039 0.0
C3097 C 0.14201 0.38032 0.37607 0.0
C3098 C 0.16924 0.38359 0.38156 0.0
C3099 C 0.13125 0.36153 0.35422 0.0
C3100 C 0.10353 0.35802 0.34582 0.0
C3101 C 0.0971 0.38263 0.3419 0.0
C3102 C 0.07088 0.37918 0.33408 0.0
C3103 C 0.05097 0.3512 0.32995 0.0
C3104 C 0.05729 0.32659 0.33354 0.0
C3105 C 0.08348 0.32992 0.34137 0.0
H3106 H 0.03068 0.34859 0.32392 0.0
H3107 H 0.28174 0.38461 0.40645 0.0
H3108 H 0.33996 0.23984 0.70073 0.0
H3109 H 0.36683 0.21375 0.67398 0.0
H3110 H 0.29398 0.13517 0.67025 0.0
H3111 H 0.26873 0.16046 0.70008 0.0
H3112 H 0.32795 0.11449 0.66682 0.0
H3113 H 0.33898 0.19005 0.60934 0.0
H3114 H 0.35382 0.23905 0.59478 0.0
H3115 H 0.43189 0.26321 0.62884 0.0
H3116 H 0.41814 0.21378 0.64227 0.0
H3117 H 0.38721 0.0439 0.56008 0.0
H3118 H 0.35979 0.06862 0.58864 0.0
H3119 H 0.43558 0.13812 0.60995 0.0
H3120 H 0.46281 0.11409 0.58115 0.0
H3121 H 0.4007 0.16205 0.60385 0.0
H3122 H 0.39183 0.0806 0.64873 0.0
H3123 H 0.37906 0.02828 0.65403 0.0
H3124 H 0.29407 0.01368 0.63978 0.0
H3125 H 0.30643 0.06586 0.6341 0.0
C3126 C 0.32975 0.21692 0.69425 0.0
C3127 C 0.30205 0.2024 0.70272 0.0
C3128 C 0.34508 0.20188 0.67818 0.0
C3129 C 0.33283 0.17208 0.66861 0.0
C3130 C 0.30478 0.15785 0.67695 0.0
C3131 C 0.28996 0.17251 0.69403 0.0
C3132 C 0.34906 0.1553 0.65109 0.0
C3133 C 0.3433 0.12515 0.65275 0.0
C3134 C 0.37033 0.16825 0.63285 0.0
C3135 C 0.37729 0.19863 0.62727 0.0
C3136 C 0.35913 0.20599 0.61398 0.0
C3137 C 0.3675 0.23365 0.60566 0.0
C3138 C 0.39361 0.25434 0.61117 0.0
C3139 C 0.41161 0.24726 0.62471 0.0
C3140 C 0.40369 0.21934 0.63243 0.0
C3141 C 0.39811 0.06435 0.57095 0.0
C3142 C 0.42747 0.07675 0.56807 0.0
C3143 C 0.38231 0.07851 0.58753 0.0
C3144 C 0.39535 0.10537 0.60204 0.0
C3145 C 0.42465 0.11756 0.59922 0.0
C3146 C 0.44036 0.10359 0.58262 0.0
C3147 C 0.37891 0.12162 0.61935 0.0
C3148 C 0.3849 0.15157 0.61776 0.0
C3149 C 0.35756 0.10832 0.63721 0.0
C3150 C 0.35012 0.07704 0.64075 0.0
C3151 C 0.37047 0.06618 0.64657 0.0
C3152 C 0.36329 0.03656 0.64966 0.0
C3153 C 0.33579 0.01765 0.64717 0.0
C3154 C 0.31538 0.02834 0.64166 0.0
C3155 C 0.32245 0.05793 0.63852 0.0
H3156 H 0.33029 0.99472 0.64956 0.0
H3157 H 0.39993 0.2758 0.60485 0.0
H3158 H 0.80407 0.26733 0.67121 0.0
H3159 H 0.83846 0.29521 0.64057 0.0
H3160 H 0.84948 0.37491 0.69035 0.0
H3161 H 0.81591 0.34689 0.72126 0.0
H3162 H 0.84157 0.37701 0.63742 0.0
H3163 H 0.89543 0.34702 0.68977 0.0
H3164 H 0.90663 0.31014 0.70899 0.0
H3165 H 0.92175 0.26854 0.63626 0.0
H3166 H 0.91001 0.30482 0.6166 0.0
H3167 H 0.9562 0.48112 0.58956 0.0
H3168 H 0.92909 0.44785 0.61977 0.0
H3169 H 0.93671 0.37418 0.56927 0.0
H3170 H 0.96472 0.40784 0.53913 0.0
H3171 H 0.9342 0.36477 0.6195 0.0
H3172 H 0.88196 0.39249 0.56637 0.0
H3173 H 0.86933 0.42679 0.54492 0.0
H3174 H 0.84874 0.46871 0.61569 0.0
H3175 H 0.86173 0.43497 0.63759 0.0
C3176 C 0.81382 0.29083 0.6754 0.0
C3177 C 0.80761 0.30517 0.69838 0.0
C3178 C 0.83342 0.30666 0.65803 0.0
C3179 C 0.84657 0.33707 0.66329 0.0
C3180 C 0.83959 0.35146 0.68599 0.0
C3181 C 0.82053 0.33554 0.70358 0.0
C3182 C 0.86797 0.35399 0.6454 0.0
C3183 C 0.8619 0.37453 0.63367 0.0
C3184 C 0.8941 0.34995 0.63986 0.0
C3185 C 0.90152 0.32842 0.65171 0.0
C3186 C 0.90086 0.32983 0.67787 0.0
C3187 C 0.90733 0.30906 0.68885 0.0
C3188 C 0.9148 0.28695 0.67386 0.0
C3189 C 0.91589 0.28563 0.64786 0.0
C3190 C 0.90932 0.30629 0.63678 0.0
C3191 C 0.95311 0.45795 0.58539 0.0
C3192 C 0.96263 0.44699 0.56217 0.0
C3193 C 0.93741 0.43892 0.60254 0.0
C3194 C 0.93029 0.40846 0.59653 0.0
C3195 C 0.94188 0.39759 0.57426 0.0
C3196 C 0.958 0.4168 0.55713 0.0
C3197 C 0.90807 0.38843 0.61203 0.0
C3198 C 0.91385 0.36719 0.62316 0.0
C3199 C 0.88136 0.39137 0.61671 0.0
C3200 C 0.87303 0.41136 0.60362 0.0
C3201 C 0.8749 0.40914 0.57736 0.0
C3202 C 0.86768 0.42848 0.56512 0.0
C3203 C 0.85829 0.44996 0.57894 0.0
C3204 C 0.85604 0.45208 0.60502 0.0
C3205 C 0.86331 0.43284 0.61736 0.0
H3206 H 0.85272 0.46493 0.56944 0.0
H3207 H 0.91983 0.2709 0.6824 0.0
H3208 H 0.24929 0.71207 0.66669 0.0
H3209 H 0.22611 0.67779 0.63206 0.0
H3210 H 0.16131 0.63107 0.68392 0.0
H3211 H 0.18692 0.66339 0.71891 0.0
H3212 H 0.16584 0.59379 0.64987 0.0
H3213 H 0.15651 0.68612 0.6481 0.0
H3214 H 0.17069 0.73964 0.64804 0.0
H3215 H 0.21816 0.73428 0.57839 0.0
H3216 H 0.20459 0.68073 0.57824 0.0
H3217 H 0.05288 0.56213 0.57378 0.0
H3218 H 0.08899 0.57922 0.60381 0.0
H3219 H 0.15229 0.58642 0.5434 0.0
H3220 H 0.11556 0.56833 0.51294 0.0
H3221 H 0.15363 0.63928 0.5778 0.0
H3222 H 0.14671 0.53872 0.58102 0.0
H3223 H 0.11998 0.48667 0.58491 0.0
H3224 H 0.08642 0.51011 0.65756 0.0
H3225 H 0.11271 0.56234 0.65404 0.0
C3226 C 0.23028 0.69415 0.67057 0.0
C3227 C 0.21976 0.68999 0.69517 0.0
C3228 C 0.2169 0.67473 0.65083 0.0
C3229 C 0.19144 0.65231 0.65521 0.0
C3230 C 0.18095 0.64811 0.67999 0.0
C3231 C 0.19535 0.6666 0.69993 0.0
C3232 C 0.17528 0.63431 0.63388 0.0
C3233 C 0.1631 0.60381 0.63419 0.0
C3234 C 0.17156 0.64725 0.61332 0.0
C3235 C 0.17982 0.67947 0.61331 0.0
C3236 C 0.17014 0.69639 0.63287 0.0
C3237 C 0.17805 0.72672 0.63286 0.0
C3238 C 0.19538 0.74036 0.61326 0.0
C3239 C 0.20479 0.72369 0.59359 0.0
C3240 C 0.197 0.69334 0.59354 0.0
C3241 C 0.07453 0.56702 0.56697 0.0
C3242 C 0.08182 0.5646 0.54129 0.0
C3243 C 0.09501 0.57635 0.58408 0.0
C3244 C 0.12314 0.58366 0.57575 0.0
C3245 C 0.13054 0.58045 0.55003 0.0
C3246 C 0.10979 0.57046 0.53276 0.0
C3247 C 0.14427 0.5991 0.59395 0.0
C3248 C 0.15716 0.62929 0.59318 0.0
C3249 C 0.14691 0.5861 0.61478 0.0
C3250 C 0.13174 0.55452 0.61723 0.0
C3251 C 0.13358 0.5328 0.5978 0.0
C3252 C 0.11849 0.50324 0.59994 0.0
C3253 C 0.1015 0.49506 0.62145 0.0
C3254 C 0.09964 0.51645 0.64092 0.0
C3255 C 0.11471 0.54604 0.63889 0.0
H3256 H 0.08979 0.47217 0.62302 0.0
H3257 H 0.20147 0.76385 0.61328 0.0
loop_
_geom_bond_atom_site_label_1
_geom_bond_atom_site_label_2
_geom_bond_distance
_geom_bond_site_symmetry_2
_ccdc_geom_bond_type
Eu0 N29 2.600 . S
Eu0 N35 2.562 . S
Eu0 O44 2.462 . S
Eu0 O45 2.373 . S
Eu0 O47 2.432 . S
Eu0 O48 2.291 . S
Eu0 O52 2.335 . S
Eu0 O55 2.372 . S
Eu0 C64 2.787 . S
C1 N2 1.365 . S
C1 C4 1.405 . S
C1 C8 1.448 . S
N2 C1 1.365 . S
N2 C5 1.319 . S
N2 Eu11 2.600 . S
C3 C5 1.397 . S
C3 C6 1.367 . S
C3 H23 0.931 . S
C4 C1 1.405 . S
C4 C6 1.403 . S
C4 C10 1.439 . S
C5 N2 1.319 . S
C5 C3 1.397 . S
C5 H16 0.930 . S
C6 C3 1.367 . S
C6 C4 1.403 . S
C6 H27 0.929 . S
C7 C8 1.430 . S
C7 C9 1.387 . S
C7 C13 1.404 . S
C8 C1 1.448 . S
C8 C7 1.430 . S
C8 N12 1.351 . S
C9 C7 1.387 . S
C9 C10 1.374 . S
C9 H24 0.931 . S
C10 C4 1.439 . S
C10 C9 1.374 . S
C10 H25 0.931 . S
Eu11 N2 2.600 . S
Eu11 N12 2.562 . S
Eu11 O46 2.335 . S
Eu11 O49 2.372 . S
Eu11 O50 2.462 . S
Eu11 O51 2.373 . S
Eu11 O53 2.432 . S
Eu11 O54 2.291 . S
Eu11 C75 2.787 . S
N12 C8 1.351 . S
N12 Eu11 2.562 . S
N12 C14 1.325 . S
C13 C7 1.404 . S
C13 C15 1.366 . S
C13 H21 0.930 . S
C14 N12 1.325 . S
C14 C15 1.416 . S
C14 H20 0.929 . S
C15 C13 1.366 . S
C15 C14 1.416 . S
C15 H17 0.930 . S
H16 C5 0.930 . S
H17 C15 0.930 . S
H18 C33 0.930 . S
H19 C40 0.930 . S
H20 C14 0.929 . S
H21 C13 0.930 . S
H22 C36 0.929 . S
H23 C3 0.931 . S
H24 C9 0.931 . S
H25 C10 0.931 . S
H26 C31 0.931 . S
H27 C6 0.929 . S
H28 C39 0.930 . S
N29 Eu0 2.600 . S
N29 C30 1.365 . S
N29 C33 1.319 . S
C30 N29 1.365 . S
C30 C32 1.405 . S
C30 C38 1.448 . S
C31 H26 0.931 . S
C31 C33 1.397 . S
C31 C34 1.367 . S
C32 C30 1.405 . S
C32 C34 1.403 . S
C32 C65 1.439 . S
C33 H18 0.930 . S
C33 N29 1.319 . S
C33 C31 1.397 . S
C34 C31 1.367 . S
C34 C32 1.403 . S
C34 H41 0.929 . S
N35 Eu0 2.562 . S
N35 C36 1.325 . S
N35 C38 1.351 . S
C36 H22 0.929 . S
C36 N35 1.325 . S
C36 C40 1.416 . S
C37 C38 1.430 . S
C37 C39 1.404 . S
C37 C66 1.387 . S
C38 C30 1.448 . S
C38 N35 1.351 . S
C38 C37 1.430 . S
C39 H28 0.930 . S
C39 C37 1.404 . S
C39 C40 1.366 . S
C40 H19 0.930 . S
C40 C36 1.416 . S
C40 C39 1.366 . S
H41 C34 0.929 . S
H42 C65 0.931 . S
H43 C66 0.931 . S
O44 Eu0 2.462 . S
O44 C64 1.252 . S
O45 Eu0 2.373 . S
O45 C56 1.249 . S
O46 Eu11 2.335 . S
O46 C56 1.264 . S
O47 Eu0 2.432 . S
O47 C64 1.268 . S
O48 Eu0 2.291 . S
O48 C63 1.255 . S
O49 Eu11 2.372 . S
O49 C63 1.257 . S
O50 Eu11 2.462 . S
O50 C75 1.252 . S
O51 Eu11 2.373 . S
O51 C67 1.249 . S
O52 Eu0 2.335 . S
O52 C67 1.264 . S
O53 Eu11 2.432 . S
O53 C75 1.268 . S
O54 Eu11 2.291 . S
O54 C74 1.255 . S
O55 Eu0 2.372 . S
O55 C74 1.257 . S
C56 O45 1.249 . S
C56 O46 1.264 . S
C57 C60 1.382 . S
C57 C62 1.390 . S
C57 C64 1.506 . S
C58 C59 1.398 . S
C58 C62 1.392 . S
C59 C58 1.398 . S
C59 C61 1.372 . S
C59 H76 0.931 . S
C60 C57 1.382 . S
C60 C61 1.390 . S
C60 H77 0.931 . S
C61 C59 1.372 . S
C61 C60 1.390 . S
C61 H78 0.929 . S
C62 C57 1.390 . S
C62 C58 1.392 . S
C62 H79 0.930 . S
C63 O48 1.255 . S
C63 O49 1.257 . S
C64 Eu0 2.787 . S
C64 O44 1.252 . S
C64 O47 1.268 . S
C64 C57 1.506 . S
C65 C32 1.439 . S
C65 H42 0.931 . S
C65 C66 1.374 . S
C66 C37 1.387 . S
C66 H43 0.931 . S
C66 C65 1.374 . S
C67 O51 1.249 . S
C67 O52 1.264 . S
C68 C71 1.382 . S
C68 C72 1.390 . S
C68 C75 1.506 . S
C69 C70 1.398 . S
C69 C72 1.392 . S
C70 C69 1.398 . S
C70 C73 1.372 . S
C70 H80 0.931 . S
C71 C68 1.382 . S
C71 C73 1.390 . S
C71 H81 0.931 . S
C72 C68 1.390 . S
C72 C69 1.392 . S
C72 H82 0.930 . S
C73 C70 1.372 . S
C73 C71 1.390 . S
C73 H83 0.929 . S
C74 O54 1.255 . S
C74 O55 1.257 . S
C75 Eu11 2.787 . S
C75 O50 1.252 . S
C75 O53 1.268 . S
C75 C68 1.506 . S
H76 C59 0.931 . S
H77 C60 0.931 . S
H78 C61 0.929 . S
H79 C62 0.930 . S
H80 C70 0.931 . S
H81 C71 0.931 . S
H82 C72 0.930 . S
H83 C73 0.929 . S
Eu84 N113 2.600 . S
Eu84 N119 2.562 . S
Eu84 O128 2.462 . S
Eu84 O129 2.373 . S
Eu84 O131 2.432 . S
Eu84 O132 2.291 . S
Eu84 O136 2.335 . S
Eu84 O139 2.372 . S
Eu84 C148 2.787 . S
C85 N86 1.365 . S
C85 C88 1.405 . S
C85 C92 1.448 . S
N86 C85 1.365 . S
N86 C89 1.319 . S
N86 Eu95 2.600 . S
C87 C89 1.397 . S
C87 C90 1.367 . S
C87 H107 0.931 . S
C88 C85 1.405 . S
C88 C90 1.403 . S
C88 C94 1.439 . S
C89 N86 1.319 . S
C89 C87 1.397 . S
C89 H100 0.930 . S
C90 C87 1.367 . S
C90 C88 1.403 . S
C90 H111 0.929 . S
C91 C92 1.430 . S
C91 C93 1.387 . S
C91 C97 1.404 . S
C92 C85 1.448 . S
C92 C91 1.430 . S
C92 N96 1.351 . S
C93 C91 1.387 . S
C93 C94 1.374 . S
C93 H108 0.931 . S
C94 C88 1.439 . S
C94 C93 1.374 . S
C94 H109 0.931 . S
Eu95 N86 2.600 . S
Eu95 N96 2.562 . S
Eu95 O130 2.335 . S
Eu95 O133 2.372 . S
Eu95 O134 2.462 . S
Eu95 O135 2.373 . S
Eu95 O137 2.432 . S
Eu95 O138 2.291 . S
Eu95 C159 2.787 . S
N96 C92 1.351 . S
N96 Eu95 2.562 . S
N96 C98 1.325 . S
C97 C91 1.404 . S
C97 C99 1.366 . S
C97 H105 0.930 . S
C98 N96 1.325 . S
C98 C99 1.416 . S
C98 H104 0.929 . S
C99 C97 1.366 . S
C99 C98 1.416 . S
C99 H101 0.930 . S
H100 C89 0.930 . S
H101 C99 0.930 . S
H102 C117 0.930 . S
H103 C124 0.930 . S
H104 C98 0.929 . S
H105 C97 0.930 . S
H106 C120 0.929 . S
H107 C87 0.931 . S
H108 C93 0.931 . S
H109 C94 0.931 . S
H110 C115 0.931 . S
H111 C90 0.929 . S
H112 C123 0.930 . S
N113 Eu84 2.600 . S
N113 C114 1.365 . S
N113 C117 1.319 . S
C114 N113 1.365 . S
C114 C116 1.405 . S
C114 C122 1.448 . S
C115 H110 0.931 . S
C115 C117 1.397 . S
C115 C118 1.367 . S
C116 C114 1.405 . S
C116 C118 1.403 . S
C116 C149 1.439 . S
C117 H102 0.930 . S
C117 N113 1.319 . S
C117 C115 1.397 . S
C118 C115 1.367 . S
C118 C116 1.403 . S
C118 H125 0.929 . S
N119 Eu84 2.562 . S
N119 C120 1.325 . S
N119 C122 1.351 . S
C120 H106 0.929 . S
C120 N119 1.325 . S
C120 C124 1.416 . S
C121 C122 1.430 . S
C121 C123 1.404 . S
C121 C150 1.387 . S
C122 C114 1.448 . S
C122 N119 1.351 . S
C122 C121 1.430 . S
C123 H112 0.930 . S
C123 C121 1.404 . S
C123 C124 1.366 . S
C124 H103 0.930 . S
C124 C120 1.416 . S
C124 C123 1.366 . S
H125 C118 0.929 . S
H126 C149 0.931 . S
H127 C150 0.931 . S
O128 Eu84 2.462 . S
O128 C148 1.252 . S
O129 Eu84 2.373 . S
O129 C140 1.249 . S
O130 Eu95 2.335 . S
O130 C140 1.264 . S
O131 Eu84 2.432 . S
O131 C148 1.268 . S
O132 Eu84 2.291 . S
O132 C147 1.255 . S
O133 Eu95 2.372 . S
O133 C147 1.257 . S
O134 Eu95 2.462 . S
O134 C159 1.252 . S
O135 Eu95 2.373 . S
O135 C151 1.249 . S
O136 Eu84 2.335 . S
O136 C151 1.264 . S
O137 Eu95 2.432 . S
O137 C159 1.268 . S
O138 Eu95 2.291 . S
O138 C158 1.255 . S
O139 Eu84 2.372 . S
O139 C158 1.257 . S
C140 O129 1.249 . S
C140 O130 1.264 . S
C141 C144 1.382 . S
C141 C146 1.390 . S
C141 C148 1.506 . S
C142 C143 1.398 . S
C142 C146 1.392 . S
C143 C142 1.398 . S
C143 C145 1.372 . S
C143 H160 0.931 . S
C144 C141 1.382 . S
C144 C145 1.390 . S
C144 H161 0.931 . S
C145 C143 1.372 . S
C145 C144 1.390 . S
C145 H162 0.929 . S
C146 C141 1.390 . S
C146 C142 1.392 . S
C146 H163 0.930 . S
C147 O132 1.255 . S
C147 O133 1.257 . S
C148 Eu84 2.787 . S
C148 O128 1.252 . S
C148 O131 1.268 . S
C148 C141 1.506 . S
C149 C116 1.439 . S
C149 H126 0.931 . S
C149 C150 1.374 . S
C150 C121 1.387 . S
C150 H127 0.931 . S
C150 C149 1.374 . S
C151 O135 1.249 . S
C151 O136 1.264 . S
C152 C155 1.382 . S
C152 C156 1.390 . S
C152 C159 1.506 . S
C153 C154 1.398 . S
C153 C156 1.392 . S
C154 C153 1.398 . S
C154 C157 1.372 . S
C154 H164 0.931 . S
C155 C152 1.382 . S
C155 C157 1.390 . S
C155 H165 0.931 . S
C156 C152 1.390 . S
C156 C153 1.392 . S
C156 H166 0.930 . S
C157 C154 1.372 . S
C157 C155 1.390 . S
C157 H167 0.929 . S
C158 O138 1.255 . S
C158 O139 1.257 . S
C159 Eu95 2.787 . S
C159 O134 1.252 . S
C159 O137 1.268 . S
C159 C152 1.506 . S
H160 C143 0.931 . S
H161 C144 0.931 . S
H162 C145 0.929 . S
H163 C146 0.930 . S
H164 C154 0.931 . S
H165 C155 0.931 . S
H166 C156 0.930 . S
H167 C157 0.929 . S
Eu168 N197 2.600 . S
Eu168 N203 2.562 . S
Eu168 O212 2.462 . S
Eu168 O213 2.373 . S
Eu168 O215 2.432 . S
Eu168 O216 2.291 . S
Eu168 O220 2.335 . S
Eu168 O223 2.372 . S
Eu168 C232 2.787 . S
C169 N170 1.365 . S
C169 C172 1.405 . S
C169 C176 1.448 . S
N170 C169 1.365 . S
N170 C173 1.319 . S
N170 Eu179 2.600 . S
C171 C173 1.397 . S
C171 C174 1.367 . S
C171 H191 0.931 . S
C172 C169 1.405 . S
C172 C174 1.403 . S
C172 C178 1.439 . S
C173 N170 1.319 . S
C173 C171 1.397 . S
C173 H184 0.930 . S
C174 C171 1.367 . S
C174 C172 1.403 . S
C174 H195 0.929 . S
C175 C176 1.430 . S
C175 C177 1.387 . S
C175 C181 1.404 . S
C176 C169 1.448 . S
C176 C175 1.430 . S
C176 N180 1.351 . S
C177 C175 1.387 . S
C177 C178 1.374 . S
C177 H192 0.931 . S
C178 C172 1.439 . S
C178 C177 1.374 . S
C178 H193 0.931 . S
Eu179 N170 2.600 . S
Eu179 N180 2.562 . S
Eu179 O214 2.335 . S
Eu179 O217 2.372 . S
Eu179 O218 2.462 . S
Eu179 O219 2.373 . S
Eu179 O221 2.432 . S
Eu179 O222 2.291 . S
Eu179 C243 2.787 . S
N180 C176 1.351 . S
N180 Eu179 2.562 . S
N180 C182 1.325 . S
C181 C175 1.404 . S
C181 C183 1.366 . S
C181 H189 0.930 . S
C182 N180 1.325 . S
C182 C183 1.416 . S
C182 H188 0.929 . S
C183 C181 1.366 . S
C183 C182 1.416 . S
C183 H185 0.930 . S
H184 C173 0.930 . S
H185 C183 0.930 . S
H186 C201 0.930 . S
H187 C208 0.930 . S
H188 C182 0.929 . S
H189 C181 0.930 . S
H190 C204 0.929 . S
H191 C171 0.931 . S
H192 C177 0.931 . S
H193 C178 0.931 . S
H194 C199 0.931 . S
H195 C174 0.929 . S
H196 C207 0.930 . S
N197 Eu168 2.600 . S
N197 C198 1.365 . S
N197 C201 1.319 . S
C198 N197 1.365 . S
C198 C200 1.405 . S
C198 C206 1.448 . S
C199 H194 0.931 . S
C199 C201 1.397 . S
C199 C202 1.367 . S
C200 C198 1.405 . S
C200 C202 1.403 . S
C200 C233 1.439 . S
C201 H186 0.930 . S
C201 N197 1.319 . S
C201 C199 1.397 . S
C202 C199 1.367 . S
C202 C200 1.403 . S
C202 H209 0.929 . S
N203 Eu168 2.562 . S
N203 C204 1.325 . S
N203 C206 1.351 . S
C204 H190 0.929 . S
C204 N203 1.325 . S
C204 C208 1.416 . S
C205 C206 1.430 . S
C205 C207 1.404 . S
C205 C234 1.387 . S
C206 C198 1.448 . S
C206 N203 1.351 . S
C206 C205 1.430 . S
C207 H196 0.930 . S
C207 C205 1.404 . S
C207 C208 1.366 . S
C208 H187 0.930 . S
C208 C204 1.416 . S
C208 C207 1.366 . S
H209 C202 0.929 . S
H210 C233 0.931 . S
H211 C234 0.931 . S
O212 Eu168 2.462 . S
O212 C232 1.252 . S
O213 Eu168 2.373 . S
O213 C224 1.249 . S
O214 Eu179 2.335 . S
O214 C224 1.264 . S
O215 Eu168 2.432 . S
O215 C232 1.268 . S
O216 Eu168 2.291 . S
O216 C231 1.255 . S
O217 Eu179 2.372 . S
O217 C231 1.257 . S
O218 Eu179 2.462 . S
O218 C243 1.252 . S
O219 Eu179 2.373 . S
O219 C235 1.249 . S
O220 Eu168 2.335 . S
O220 C235 1.264 . S
O221 Eu179 2.432 . S
O221 C243 1.268 . S
O222 Eu179 2.291 . S
O222 C242 1.255 . S
O223 Eu168 2.372 . S
O223 C242 1.257 . S
C224 O213 1.249 . S
C224 O214 1.264 . S
C225 C228 1.382 . S
C225 C230 1.390 . S
C225 C232 1.506 . S
C226 C227 1.398 . S
C226 C230 1.392 . S
C227 C226 1.398 . S
C227 C229 1.372 . S
C227 H244 0.931 . S
C228 C225 1.382 . S
C228 C229 1.390 . S
C228 H245 0.931 . S
C229 C227 1.372 . S
C229 C228 1.390 . S
C229 H246 0.929 . S
C230 C225 1.390 . S
C230 C226 1.392 . S
C230 H247 0.930 . S
C231 O216 1.255 . S
C231 O217 1.257 . S
C232 Eu168 2.787 . S
C232 O212 1.252 . S
C232 O215 1.268 . S
C232 C225 1.506 . S
C233 C200 1.439 . S
C233 H210 0.931 . S
C233 C234 1.374 . S
C234 C205 1.387 . S
C234 H211 0.931 . S
C234 C233 1.374 . S
C235 O219 1.249 . S
C235 O220 1.264 . S
C236 C239 1.382 . S
C236 C240 1.390 . S
C236 C243 1.506 . S
C237 C238 1.398 . S
C237 C240 1.392 . S
C238 C237 1.398 . S
C238 C241 1.372 . S
C238 H248 0.931 . S
C239 C236 1.382 . S
C239 C241 1.390 . S
C239 H249 0.931 . S
C240 C236 1.390 . S
C240 C237 1.392 . S
C240 H250 0.930 . S
C241 C238 1.372 . S
C241 C239 1.390 . S
C241 H251 0.929 . S
C242 O222 1.255 . S
C242 O223 1.257 . S
C243 Eu179 2.787 . S
C243 O218 1.252 . S
C243 O221 1.268 . S
C243 C236 1.506 . S
H244 C227 0.931 . S
H245 C228 0.931 . S
H246 C229 0.929 . S
H247 C230 0.930 . S
H248 C238 0.931 . S
H249 C239 0.931 . S
H250 C240 0.930 . S
H251 C241 0.929 . S
Eu252 N281 2.600 . S
Eu252 N287 2.562 . S
Eu252 O296 2.462 . S
Eu252 O297 2.373 . S
Eu252 O299 2.432 . S
Eu252 O300 2.291 . S
Eu252 O304 2.335 . S
Eu252 O307 2.372 . S
Eu252 C316 2.787 . S
C253 N254 1.365 . S
C253 C256 1.405 . S
C253 C260 1.448 . S
N254 C253 1.365 . S
N254 C257 1.319 . S
N254 Eu263 2.600 . S
C255 C257 1.397 . S
C255 C258 1.367 . S
C255 H275 0.931 . S
C256 C253 1.405 . S
C256 C258 1.403 . S
C256 C262 1.439 . S
C257 N254 1.319 . S
C257 C255 1.397 . S
C257 H268 0.930 . S
C258 C255 1.367 . S
C258 C256 1.403 . S
C258 H279 0.929 . S
C259 C260 1.430 . S
C259 C261 1.387 . S
C259 C265 1.404 . S
C260 C253 1.448 . S
C260 C259 1.430 . S
C260 N264 1.351 . S
C261 C259 1.387 . S
C261 C262 1.374 . S
C261 H276 0.931 . S
C262 C256 1.439 . S
C262 C261 1.374 . S
C262 H277 0.931 . S
Eu263 N254 2.600 . S
Eu263 N264 2.562 . S
Eu263 O298 2.335 . S
Eu263 O301 2.372 . S
Eu263 O302 2.462 . S
Eu263 O303 2.373 . S
Eu263 O305 2.432 . S
Eu263 O306 2.291 . S
Eu263 C327 2.787 . S
N264 C260 1.351 . S
N264 Eu263 2.562 . S
N264 C266 1.325 . S
C265 C259 1.404 . S
C265 C267 1.366 . S
C265 H273 0.930 . S
C266 N264 1.325 . S
C266 C267 1.416 . S
C266 H272 0.929 . S
C267 C265 1.366 . S
C267 C266 1.416 . S
C267 H269 0.930 . S
H268 C257 0.930 . S
H269 C267 0.930 . S
H270 C285 0.930 . S
H271 C292 0.930 . S
H272 C266 0.929 . S
H273 C265 0.930 . S
H274 C288 0.929 . S
H275 C255 0.931 . S
H276 C261 0.931 . S
H277 C262 0.931 . S
H278 C283 0.931 . S
H279 C258 0.929 . S
H280 C291 0.930 . S
N281 Eu252 2.600 . S
N281 C282 1.365 . S
N281 C285 1.319 . S
C282 N281 1.365 . S
C282 C284 1.405 . S
C282 C290 1.448 . S
C283 H278 0.931 . S
C283 C285 1.397 . S
C283 C286 1.367 . S
C284 C282 1.405 . S
C284 C286 1.403 . S
C284 C317 1.439 . S
C285 H270 0.930 . S
C285 N281 1.319 . S
C285 C283 1.397 . S
C286 C283 1.367 . S
C286 C284 1.403 . S
C286 H293 0.929 . S
N287 Eu252 2.562 . S
N287 C288 1.325 . S
N287 C290 1.351 . S
C288 H274 0.929 . S
C288 N287 1.325 . S
C288 C292 1.416 . S
C289 C290 1.430 . S
C289 C291 1.404 . S
C289 C318 1.387 . S
C290 C282 1.448 . S
C290 N287 1.351 . S
C290 C289 1.430 . S
C291 H280 0.930 . S
C291 C289 1.404 . S
C291 C292 1.366 . S
C292 H271 0.930 . S
C292 C288 1.416 . S
C292 C291 1.366 . S
H293 C286 0.929 . S
H294 C317 0.931 . S
H295 C318 0.931 . S
O296 Eu252 2.462 . S
O296 C316 1.252 . S
O297 Eu252 2.373 . S
O297 C308 1.249 . S
O298 Eu263 2.335 . S
O298 C308 1.264 . S
O299 Eu252 2.432 . S
O299 C316 1.268 . S
O300 Eu252 2.291 . S
O300 C315 1.255 . S
O301 Eu263 2.372 . S
O301 C315 1.257 . S
O302 Eu263 2.462 . S
O302 C327 1.252 . S
O303 Eu263 2.373 . S
O303 C319 1.249 . S
O304 Eu252 2.335 . S
O304 C319 1.264 . S
O305 Eu263 2.432 . S
O305 C327 1.268 . S
O306 Eu263 2.291 . S
O306 C326 1.255 . S
O307 Eu252 2.372 . S
O307 C326 1.257 . S
C308 O297 1.249 . S
C308 O298 1.264 . S
C309 C312 1.382 . S
C309 C314 1.390 . S
C309 C316 1.506 . S
C310 C311 1.398 . S
C310 C314 1.392 . S
C311 C310 1.398 . S
C311 C313 1.372 . S
C311 H328 0.931 . S
C312 C309 1.382 . S
C312 C313 1.390 . S
C312 H329 0.931 . S
C313 C311 1.372 . S
C313 C312 1.390 . S
C313 H330 0.929 . S
C314 C309 1.390 . S
C314 C310 1.392 . S
C314 H331 0.930 . S
C315 O300 1.255 . S
C315 O301 1.257 . S
C316 Eu252 2.787 . S
C316 O296 1.252 . S
C316 O299 1.268 . S
C316 C309 1.506 . S
C317 C284 1.439 . S
C317 H294 0.931 . S
C317 C318 1.374 . S
C318 C289 1.387 . S
C318 H295 0.931 . S
C318 C317 1.374 . S
C319 O303 1.249 . S
C319 O304 1.264 . S
C320 C323 1.382 . S
C320 C324 1.390 . S
C320 C327 1.506 . S
C321 C322 1.398 . S
C321 C324 1.392 . S
C322 C321 1.398 . S
C322 C325 1.372 . S
C322 H332 0.931 . S
C323 C320 1.382 . S
C323 C325 1.390 . S
C323 H333 0.931 . S
C324 C320 1.390 . S
C324 C321 1.392 . S
C324 H334 0.930 . S
C325 C322 1.372 . S
C325 C323 1.390 . S
C325 H335 0.929 . S
C326 O306 1.255 . S
C326 O307 1.257 . S
C327 Eu263 2.787 . S
C327 O302 1.252 . S
C327 O305 1.268 . S
C327 C320 1.506 . S
H328 C311 0.931 . S
H329 C312 0.931 . S
H330 C313 0.929 . S
H331 C314 0.930 . S
H332 C322 0.931 . S
H333 C323 0.931 . S
H334 C324 0.930 . S
H335 C325 0.929 . S
Eu336 N365 2.600 . S
Eu336 N371 2.562 . S
Eu336 O380 2.462 . S
Eu336 O381 2.373 . S
Eu336 O383 2.432 . S
Eu336 O384 2.291 . S
Eu336 O388 2.335 . S
Eu336 O391 2.372 . S
Eu336 C400 2.787 . S
C337 N338 1.365 . S
C337 C340 1.405 . S
C337 C344 1.448 . S
N338 C337 1.365 . S
N338 C341 1.319 . S
N338 Eu347 2.600 . S
C339 C341 1.397 . S
C339 C342 1.367 . S
C339 H359 0.931 . S
C340 C337 1.405 . S
C340 C342 1.403 . S
C340 C346 1.439 . S
C341 N338 1.319 . S
C341 C339 1.397 . S
C341 H352 0.930 . S
C342 C339 1.367 . S
C342 C340 1.403 . S
C342 H363 0.929 . S
C343 C344 1.430 . S
C343 C345 1.387 . S
C343 C349 1.404 . S
C344 C337 1.448 . S
C344 C343 1.430 . S
C344 N348 1.351 . S
C345 C343 1.387 . S
C345 C346 1.374 . S
C345 H360 0.931 . S
C346 C340 1.439 . S
C346 C345 1.374 . S
C346 H361 0.931 . S
Eu347 N338 2.600 . S
Eu347 N348 2.562 . S
Eu347 O382 2.335 . S
Eu347 O385 2.372 . S
Eu347 O386 2.462 . S
Eu347 O387 2.373 . S
Eu347 O389 2.432 . S
Eu347 O390 2.291 . S
Eu347 C411 2.787 . S
N348 C344 1.351 . S
N348 Eu347 2.562 . S
N348 C350 1.325 . S
C349 C343 1.404 . S
C349 C351 1.366 . S
C349 H357 0.930 . S
C350 N348 1.325 . S
C350 C351 1.416 . S
C350 H356 0.929 . S
C351 C349 1.366 . S
C351 C350 1.416 . S
C351 H353 0.930 . S
H352 C341 0.930 . S
H353 C351 0.930 . S
H354 C369 0.930 . S
H355 C376 0.930 . S
H356 C350 0.929 . S
H357 C349 0.930 . S
H358 C372 0.929 . S
H359 C339 0.931 . S
H360 C345 0.931 . S
H361 C346 0.931 . S
H362 C367 0.931 . S
H363 C342 0.929 . S
H364 C375 0.930 . S
N365 Eu336 2.600 . S
N365 C366 1.365 . S
N365 C369 1.319 . S
C366 N365 1.365 . S
C366 C368 1.405 . S
C366 C374 1.448 . S
C367 H362 0.931 . S
C367 C369 1.397 . S
C367 C370 1.367 . S
C368 C366 1.405 . S
C368 C370 1.403 . S
C368 C401 1.439 . S
C369 H354 0.930 . S
C369 N365 1.319 . S
C369 C367 1.397 . S
C370 C367 1.367 . S
C370 C368 1.403 . S
C370 H377 0.929 . S
N371 Eu336 2.562 . S
N371 C372 1.325 . S
N371 C374 1.351 . S
C372 H358 0.929 . S
C372 N371 1.325 . S
C372 C376 1.416 . S
C373 C374 1.430 . S
C373 C375 1.404 . S
C373 C402 1.387 . S
C374 C366 1.448 . S
C374 N371 1.351 . S
C374 C373 1.430 . S
C375 H364 0.930 . S
C375 C373 1.404 . S
C375 C376 1.366 . S
C376 H355 0.930 . S
C376 C372 1.416 . S
C376 C375 1.366 . S
H377 C370 0.929 . S
H378 C401 0.931 . S
H379 C402 0.931 . S
O380 Eu336 2.462 . S
O380 C400 1.252 . S
O381 Eu336 2.373 . S
O381 C392 1.249 . S
O382 Eu347 2.335 . S
O382 C392 1.264 . S
O383 Eu336 2.432 . S
O383 C400 1.268 . S
O384 Eu336 2.291 . S
O384 C399 1.255 . S
O385 Eu347 2.372 . S
O385 C399 1.257 . S
O386 Eu347 2.462 . S
O386 C411 1.252 . S
O387 Eu347 2.373 . S
O387 C403 1.249 . S
O388 Eu336 2.335 . S
O388 C403 1.264 . S
O389 Eu347 2.432 . S
O389 C411 1.268 . S
O390 Eu347 2.291 . S
O390 C410 1.255 . S
O391 Eu336 2.372 . S
O391 C410 1.257 . S
C392 O381 1.249 . S
C392 O382 1.264 . S
C393 C396 1.382 . S
C393 C398 1.390 . S
C393 C400 1.506 . S
C394 C395 1.398 . S
C394 C398 1.392 . S
C395 C394 1.398 . S
C395 C397 1.372 . S
C395 H412 0.931 . S
C396 C393 1.382 . S
C396 C397 1.390 . S
C396 H413 0.931 . S
C397 C395 1.372 . S
C397 C396 1.390 . S
C397 H414 0.929 . S
C398 C393 1.390 . S
C398 C394 1.392 . S
C398 H415 0.930 . S
C399 O384 1.255 . S
C399 O385 1.257 . S
C400 Eu336 2.787 . S
C400 O380 1.252 . S
C400 O383 1.268 . S
C400 C393 1.506 . S
C401 C368 1.439 . S
C401 H378 0.931 . S
C401 C402 1.374 . S
C402 C373 1.387 . S
C402 H379 0.931 . S
C402 C401 1.374 . S
C403 O387 1.249 . S
C403 O388 1.264 . S
C404 C407 1.382 . S
C404 C408 1.390 . S
C404 C411 1.506 . S
C405 C406 1.398 . S
C405 C408 1.392 . S
C406 C405 1.398 . S
C406 C409 1.372 . S
C406 H416 0.931 . S
C407 C404 1.382 . S
C407 C409 1.390 . S
C407 H417 0.931 . S
C408 C404 1.390 . S
C408 C405 1.392 . S
C408 H418 0.930 . S
C409 C406 1.372 . S
C409 C407 1.390 . S
C409 H419 0.929 . S
C410 O390 1.255 . S
C410 O391 1.257 . S
C411 Eu347 2.787 . S
C411 O386 1.252 . S
C411 O389 1.268 . S
C411 C404 1.506 . S
H412 C395 0.931 . S
H413 C396 0.931 . S
H414 C397 0.929 . S
H415 C398 0.930 . S
H416 C406 0.931 . S
H417 C407 0.931 . S
H418 C408 0.930 . S
H419 C409 0.929 . S
Eu420 N449 2.600 . S
Eu420 N455 2.562 . S
Eu420 O464 2.462 . S
Eu420 O465 2.373 . S
Eu420 O467 2.432 . S
Eu420 O468 2.291 . S
Eu420 O472 2.335 . S
Eu420 O475 2.372 . S
Eu420 C484 2.787 . S
C421 N422 1.365 . S
C421 C424 1.405 . S
C421 C428 1.448 . S
N422 C421 1.365 . S
N422 C425 1.319 . S
N422 Eu431 2.600 . S
C423 C425 1.397 . S
C423 C426 1.367 . S
C423 H443 0.931 . S
C424 C421 1.405 . S
C424 C426 1.403 . S
C424 C430 1.439 . S
C425 N422 1.319 . S
C425 C423 1.397 . S
C425 H436 0.930 . S
C426 C423 1.367 . S
C426 C424 1.403 . S
C426 H447 0.929 . S
C427 C428 1.430 . S
C427 C429 1.387 . S
C427 C433 1.404 . S
C428 C421 1.448 . S
C428 C427 1.430 . S
C428 N432 1.351 . S
C429 C427 1.387 . S
C429 C430 1.374 . S
C429 H444 0.931 . S
C430 C424 1.439 . S
C430 C429 1.374 . S
C430 H445 0.931 . S
Eu431 N422 2.600 . S
Eu431 N432 2.562 . S
Eu431 O466 2.335 . S
Eu431 O469 2.372 . S
Eu431 O470 2.462 . S
Eu431 O471 2.373 . S
Eu431 O473 2.432 . S
Eu431 O474 2.291 . S
Eu431 C495 2.787 . S
N432 C428 1.351 . S
N432 Eu431 2.562 . S
N432 C434 1.325 . S
C433 C427 1.404 . S
C433 C435 1.366 . S
C433 H441 0.930 . S
C434 N432 1.325 . S
C434 C435 1.416 . S
C434 H440 0.929 . S
C435 C433 1.366 . S
C435 C434 1.416 . S
C435 H437 0.930 . S
H436 C425 0.930 . S
H437 C435 0.930 . S
H438 C453 0.930 . S
H439 C460 0.930 . S
H440 C434 0.929 . S
H441 C433 0.930 . S
H442 C456 0.929 . S
H443 C423 0.931 . S
H444 C429 0.931 . S
H445 C430 0.931 . S
H446 C451 0.931 . S
H447 C426 0.929 . S
H448 C459 0.930 . S
N449 Eu420 2.600 . S
N449 C450 1.365 . S
N449 C453 1.319 . S
C450 N449 1.365 . S
C450 C452 1.405 . S
C450 C458 1.448 . S
C451 H446 0.931 . S
C451 C453 1.397 . S
C451 C454 1.367 . S
C452 C450 1.405 . S
C452 C454 1.403 . S
C452 C485 1.439 . S
C453 H438 0.930 . S
C453 N449 1.319 . S
C453 C451 1.397 . S
C454 C451 1.367 . S
C454 C452 1.403 . S
C454 H461 0.929 . S
N455 Eu420 2.562 . S
N455 C456 1.325 . S
N455 C458 1.351 . S
C456 H442 0.929 . S
C456 N455 1.325 . S
C456 C460 1.416 . S
C457 C458 1.430 . S
C457 C459 1.404 . S
C457 C486 1.387 . S
C458 C450 1.448 . S
C458 N455 1.351 . S
C458 C457 1.430 . S
C459 H448 0.930 . S
C459 C457 1.404 . S
C459 C460 1.366 . S
C460 H439 0.930 . S
C460 C456 1.416 . S
C460 C459 1.366 . S
H461 C454 0.929 . S
H462 C485 0.931 . S
H463 C486 0.931 . S
O464 Eu420 2.462 . S
O464 C484 1.252 . S
O465 Eu420 2.373 . S
O465 C476 1.249 . S
O466 Eu431 2.335 . S
O466 C476 1.264 . S
O467 Eu420 2.432 . S
O467 C484 1.268 . S
O468 Eu420 2.291 . S
O468 C483 1.255 . S
O469 Eu431 2.372 . S
O469 C483 1.257 . S
O470 Eu431 2.462 . S
O470 C495 1.252 . S
O471 Eu431 2.373 . S
O471 C487 1.249 . S
O472 Eu420 2.335 . S
O472 C487 1.264 . S
O473 Eu431 2.432 . S
O473 C495 1.268 . S
O474 Eu431 2.291 . S
O474 C494 1.255 . S
O475 Eu420 2.372 . S
O475 C494 1.257 . S
C476 O465 1.249 . S
C476 O466 1.264 . S
C477 C480 1.382 . S
C477 C482 1.390 . S
C477 C484 1.506 . S
C478 C479 1.398 . S
C478 C482 1.392 . S
C479 C478 1.398 . S
C479 C481 1.372 . S
C479 H496 0.931 . S
C480 C477 1.382 . S
C480 C481 1.390 . S
C480 H497 0.931 . S
C481 C479 1.372 . S
C481 C480 1.390 . S
C481 H498 0.929 . S
C482 C477 1.390 . S
C482 C478 1.392 . S
C482 H499 0.930 . S
C483 O468 1.255 . S
C483 O469 1.257 . S
C484 Eu420 2.787 . S
C484 O464 1.252 . S
C484 O467 1.268 . S
C484 C477 1.506 . S
C485 C452 1.439 . S
C485 H462 0.931 . S
C485 C486 1.374 . S
C486 C457 1.387 . S
C486 H463 0.931 . S
C486 C485 1.374 . S
C487 O471 1.249 . S
C487 O472 1.264 . S
C488 C491 1.382 . S
C488 C492 1.390 . S
C488 C495 1.506 . S
C489 C490 1.398 . S
C489 C492 1.392 . S
C490 C489 1.398 . S
C490 C493 1.372 . S
C490 H500 0.931 . S
C491 C488 1.382 . S
C491 C493 1.390 . S
C491 H501 0.931 . S
C492 C488 1.390 . S
C492 C489 1.392 . S
C492 H502 0.930 . S
C493 C490 1.372 . S
C493 C491 1.390 . S
C493 H503 0.929 . S
C494 O474 1.255 . S
C494 O475 1.257 . S
C495 Eu431 2.787 . S
C495 O470 1.252 . S
C495 O473 1.268 . S
C495 C488 1.506 . S
H496 C479 0.931 . S
H497 C480 0.931 . S
H498 C481 0.929 . S
H499 C482 0.930 . S
H500 C490 0.931 . S
H501 C491 0.931 . S
H502 C492 0.930 . S
H503 C493 0.929 . S
Eu504 N533 2.600 . S
Eu504 N539 2.562 . S
Eu504 O548 2.462 . S
Eu504 O549 2.373 . S
Eu504 O551 2.432 . S
Eu504 O552 2.291 . S
Eu504 O556 2.335 . S
Eu504 O559 2.372 . S
Eu504 C568 2.787 . S
C505 N506 1.365 . S
C505 C508 1.405 . S
C505 C512 1.448 . S
N506 C505 1.365 . S
N506 C509 1.319 . S
N506 Eu515 2.600 . S
C507 C509 1.397 . S
C507 C510 1.367 . S
C507 H527 0.931 . S
C508 C505 1.405 . S
C508 C510 1.403 . S
C508 C514 1.439 . S
C509 N506 1.319 . S
C509 C507 1.397 . S
C509 H520 0.930 . S
C510 C507 1.367 . S
C510 C508 1.403 . S
C510 H531 0.929 . S
C511 C512 1.430 . S
C511 C513 1.387 . S
C511 C517 1.404 . S
C512 C505 1.448 . S
C512 C511 1.430 . S
C512 N516 1.351 . S
C513 C511 1.387 . S
C513 C514 1.374 . S
C513 H528 0.931 . S
C514 C508 1.439 . S
C514 C513 1.374 . S
C514 H529 0.931 . S
Eu515 N506 2.600 . S
Eu515 N516 2.562 . S
Eu515 O550 2.335 . S
Eu515 O553 2.372 . S
Eu515 O554 2.462 . S
Eu515 O555 2.373 . S
Eu515 O557 2.432 . S
Eu515 O558 2.291 . S
Eu515 C579 2.787 . S
N516 C512 1.351 . S
N516 Eu515 2.562 . S
N516 C518 1.325 . S
C517 C511 1.404 . S
C517 C519 1.366 . S
C517 H525 0.930 . S
C518 N516 1.325 . S
C518 C519 1.416 . S
C518 H524 0.929 . S
C519 C517 1.366 . S
C519 C518 1.416 . S
C519 H521 0.930 . S
H520 C509 0.930 . S
H521 C519 0.930 . S
H522 C537 0.930 . S
H523 C544 0.930 . S
H524 C518 0.929 . S
H525 C517 0.930 . S
H526 C540 0.929 . S
H527 C507 0.931 . S
H528 C513 0.931 . S
H529 C514 0.931 . S
H530 C535 0.931 . S
H531 C510 0.929 . S
H532 C543 0.930 . S
N533 Eu504 2.600 . S
N533 C534 1.365 . S
N533 C537 1.319 . S
C534 N533 1.365 . S
C534 C536 1.405 . S
C534 C542 1.448 . S
C535 H530 0.931 . S
C535 C537 1.397 . S
C535 C538 1.367 . S
C536 C534 1.405 . S
C536 C538 1.403 . S
C536 C569 1.439 . S
C537 H522 0.930 . S
C537 N533 1.319 . S
C537 C535 1.397 . S
C538 C535 1.367 . S
C538 C536 1.403 . S
C538 H545 0.929 . S
N539 Eu504 2.562 . S
N539 C540 1.325 . S
N539 C542 1.351 . S
C540 H526 0.929 . S
C540 N539 1.325 . S
C540 C544 1.416 . S
C541 C542 1.430 . S
C541 C543 1.404 . S
C541 C570 1.387 . S
C542 C534 1.448 . S
C542 N539 1.351 . S
C542 C541 1.430 . S
C543 H532 0.930 . S
C543 C541 1.404 . S
C543 C544 1.366 . S
C544 H523 0.930 . S
C544 C540 1.416 . S
C544 C543 1.366 . S
H545 C538 0.929 . S
H546 C569 0.931 . S
H547 C570 0.931 . S
O548 Eu504 2.462 . S
O548 C568 1.252 . S
O549 Eu504 2.373 . S
O549 C560 1.249 . S
O550 Eu515 2.335 . S
O550 C560 1.264 . S
O551 Eu504 2.432 . S
O551 C568 1.268 . S
O552 Eu504 2.291 . S
O552 C567 1.255 . S
O553 Eu515 2.372 . S
O553 C567 1.257 . S
O554 Eu515 2.462 . S
O554 C579 1.252 . S
O555 Eu515 2.373 . S
O555 C571 1.249 . S
O556 Eu504 2.335 . S
O556 C571 1.264 . S
O557 Eu515 2.432 . S
O557 C579 1.268 . S
O558 Eu515 2.291 . S
O558 C578 1.255 . S
O559 Eu504 2.372 . S
O559 C578 1.257 . S
C560 O549 1.249 . S
C560 O550 1.264 . S
C561 C564 1.382 . S
C561 C566 1.390 . S
C561 C568 1.506 . S
C562 C563 1.398 . S
C562 C566 1.392 . S
C563 C562 1.398 . S
C563 C565 1.372 . S
C563 H580 0.931 . S
C564 C561 1.382 . S
C564 C565 1.390 . S
C564 H581 0.931 . S
C565 C563 1.372 . S
C565 C564 1.390 . S
C565 H582 0.929 . S
C566 C561 1.390 . S
C566 C562 1.392 . S
C566 H583 0.930 . S
C567 O552 1.255 . S
C567 O553 1.257 . S
C568 Eu504 2.787 . S
C568 O548 1.252 . S
C568 O551 1.268 . S
C568 C561 1.506 . S
C569 C536 1.439 . S
C569 H546 0.931 . S
C569 C570 1.374 . S
C570 C541 1.387 . S
C570 H547 0.931 . S
C570 C569 1.374 . S
C571 O555 1.249 . S
C571 O556 1.264 . S
C572 C575 1.382 . S
C572 C576 1.390 . S
C572 C579 1.506 . S
C573 C574 1.398 . S
C573 C576 1.392 . S
C574 C573 1.398 . S
C574 C577 1.372 . S
C574 H584 0.931 . S
C575 C572 1.382 . S
C575 C577 1.390 . S
C575 H585 0.931 . S
C576 C572 1.390 . S
C576 C573 1.392 . S
C576 H586 0.930 . S
C577 C574 1.372 . S
C577 C575 1.390 . S
C577 H587 0.929 . S
C578 O558 1.255 . S
C578 O559 1.257 . S
C579 Eu515 2.787 . S
C579 O554 1.252 . S
C579 O557 1.268 . S
C579 C572 1.506 . S
H580 C563 0.931 . S
H581 C564 0.931 . S
H582 C565 0.929 . S
H583 C566 0.930 . S
H584 C574 0.931 . S
H585 C575 0.931 . S
H586 C576 0.930 . S
H587 C577 0.929 . S
Eu588 N617 2.600 . S
Eu588 N623 2.562 . S
Eu588 O632 2.462 . S
Eu588 O633 2.373 . S
Eu588 O635 2.432 . S
Eu588 O636 2.291 . S
Eu588 O640 2.335 . S
Eu588 O643 2.372 . S
Eu588 C652 2.787 . S
C589 N590 1.365 . S
C589 C592 1.405 . S
C589 C596 1.448 . S
N590 C589 1.365 . S
N590 C593 1.319 . S
N590 Eu599 2.600 . S
C591 C593 1.397 . S
C591 C594 1.367 . S
C591 H611 0.931 . S
C592 C589 1.405 . S
C592 C594 1.403 . S
C592 C598 1.439 . S
C593 N590 1.319 . S
C593 C591 1.397 . S
C593 H604 0.930 . S
C594 C591 1.367 . S
C594 C592 1.403 . S
C594 H615 0.929 . S
C595 C596 1.430 . S
C595 C597 1.387 . S
C595 C601 1.404 . S
C596 C589 1.448 . S
C596 C595 1.430 . S
C596 N600 1.351 . S
C597 C595 1.387 . S
C597 C598 1.374 . S
C597 H612 0.931 . S
C598 C592 1.439 . S
C598 C597 1.374 . S
C598 H613 0.931 . S
Eu599 N590 2.600 . S
Eu599 N600 2.562 . S
Eu599 O634 2.335 . S
Eu599 O637 2.372 . S
Eu599 O638 2.462 . S
Eu599 O639 2.373 . S
Eu599 O641 2.432 . S
Eu599 O642 2.291 . S
Eu599 C663 2.787 . S
N600 C596 1.351 . S
N600 Eu599 2.562 . S
N600 C602 1.325 . S
C601 C595 1.404 . S
C601 C603 1.366 . S
C601 H609 0.930 . S
C602 N600 1.325 . S
C602 C603 1.416 . S
C602 H608 0.929 . S
C603 C601 1.366 . S
C603 C602 1.416 . S
C603 H605 0.930 . S
H604 C593 0.930 . S
H605 C603 0.930 . S
H606 C621 0.930 . S
H607 C628 0.930 . S
H608 C602 0.929 . S
H609 C601 0.930 . S
H610 C624 0.929 . S
H611 C591 0.931 . S
H612 C597 0.931 . S
H613 C598 0.931 . S
H614 C619 0.931 . S
H615 C594 0.929 . S
H616 C627 0.930 . S
N617 Eu588 2.600 . S
N617 C618 1.365 . S
N617 C621 1.319 . S
C618 N617 1.365 . S
C618 C620 1.405 . S
C618 C626 1.448 . S
C619 H614 0.931 . S
C619 C621 1.397 . S
C619 C622 1.367 . S
C620 C618 1.405 . S
C620 C622 1.403 . S
C620 C653 1.439 . S
C621 H606 0.930 . S
C621 N617 1.319 . S
C621 C619 1.397 . S
C622 C619 1.367 . S
C622 C620 1.403 . S
C622 H629 0.929 . S
N623 Eu588 2.562 . S
N623 C624 1.325 . S
N623 C626 1.351 . S
C624 H610 0.929 . S
C624 N623 1.325 . S
C624 C628 1.416 . S
C625 C626 1.430 . S
C625 C627 1.404 . S
C625 C654 1.387 . S
C626 C618 1.448 . S
C626 N623 1.351 . S
C626 C625 1.430 . S
C627 H616 0.930 . S
C627 C625 1.404 . S
C627 C628 1.366 . S
C628 H607 0.930 . S
C628 C624 1.416 . S
C628 C627 1.366 . S
H629 C622 0.929 . S
H630 C653 0.931 . S
H631 C654 0.931 . S
O632 Eu588 2.462 . S
O632 C652 1.252 . S
O633 Eu588 2.373 . S
O633 C644 1.249 . S
O634 Eu599 2.335 . S
O634 C644 1.264 . S
O635 Eu588 2.432 . S
O635 C652 1.268 . S
O636 Eu588 2.291 . S
O636 C651 1.255 . S
O637 Eu599 2.372 . S
O637 C651 1.257 . S
O638 Eu599 2.462 . S
O638 C663 1.252 . S
O639 Eu599 2.373 . S
O639 C655 1.249 . S
O640 Eu588 2.335 . S
O640 C655 1.264 . S
O641 Eu599 2.432 . S
O641 C663 1.268 . S
O642 Eu599 2.291 . S
O642 C662 1.255 . S
O643 Eu588 2.372 . S
O643 C662 1.257 . S
C644 O633 1.249 . S
C644 O634 1.264 . S
C645 C648 1.382 . S
C645 C650 1.390 . S
C645 C652 1.506 . S
C646 C647 1.398 . S
C646 C650 1.392 . S
C647 C646 1.398 . S
C647 C649 1.372 . S
C647 H664 0.931 . S
C648 C645 1.382 . S
C648 C649 1.390 . S
C648 H665 0.931 . S
C649 C647 1.372 . S
C649 C648 1.390 . S
C649 H666 0.929 . S
C650 C645 1.390 . S
C650 C646 1.392 . S
C650 H667 0.930 . S
C651 O636 1.255 . S
C651 O637 1.257 . S
C652 Eu588 2.787 . S
C652 O632 1.252 . S
C652 O635 1.268 . S
C652 C645 1.506 . S
C653 C620 1.439 . S
C653 H630 0.931 . S
C653 C654 1.374 . S
C654 C625 1.387 . S
C654 H631 0.931 . S
C654 C653 1.374 . S
C655 O639 1.249 . S
C655 O640 1.264 . S
C656 C659 1.382 . S
C656 C660 1.390 . S
C656 C663 1.506 . S
C657 C658 1.398 . S
C657 C660 1.392 . S
C658 C657 1.398 . S
C658 C661 1.372 . S
C658 H668 0.931 . S
C659 C656 1.382 . S
C659 C661 1.390 . S
C659 H669 0.931 . S
C660 C656 1.390 . S
C660 C657 1.392 . S
C660 H670 0.930 . S
C661 C658 1.372 . S
C661 C659 1.390 . S
C661 H671 0.929 . S
C662 O642 1.255 . S
C662 O643 1.257 . S
C663 Eu599 2.787 . S
C663 O638 1.252 . S
C663 O641 1.268 . S
C663 C656 1.506 . S
H664 C647 0.931 . S
H665 C648 0.931 . S
H666 C649 0.929 . S
H667 C650 0.930 . S
H668 C658 0.931 . S
H669 C659 0.931 . S
H670 C660 0.930 . S
H671 C661 0.929 . S
C672 O684 1.241 . S
C672 O685 1.280 . S
C673 O686 1.277 . S
C673 O687 1.245 . S
C674 O698 1.247 . S
C674 O700 1.289 . S
Mg675 O676 1.926 . S
Mg675 O685 1.984 . S
Mg675 O687 1.988 . S
Mg675 O688 2.061 1_655 S
O676 Mg675 1.926 . S
O676 Mg677 1.986 1_545 S
O676 Mg678 1.912 1_655 S
Mg677 O676 1.986 1_565 S
Mg677 O684 2.043 1_565 S
Mg677 O686 2.041 1_565 S
Mg677 O692 2.038 . S
Mg677 O700 2.238 . S
Mg678 O676 1.912 1_455 S
Mg678 O679 1.922 1_545 S
Mg678 O689 2.111 . S
Mg678 O691 2.078 1_445 S
Mg678 O700 2.102 1_445 S
Mg678 O701 2.080 . S
O679 Mg678 1.922 1_565 S
O679 Mg680 1.926 . S
O679 Mg681 1.985 1_565 S
Mg680 O679 1.926 . S
Mg680 O694 1.984 . S
Mg680 O697 1.988 . S
Mg680 O698 2.061 1_455 S
Mg681 O679 1.985 1_545 S
Mg681 O689 2.244 . S
Mg681 O693 2.036 1_545 S
Mg681 O695 2.034 1_545 S
Mg681 O702 2.045 . S
C682 O688 1.247 . S
C682 O689 1.289 . S
C683 O701 1.245 . S
C683 O702 1.274 . S
O684 C672 1.241 . S
O684 Mg677 2.043 1_545 S
O685 C672 1.280 . S
O685 Mg675 1.984 . S
O686 C673 1.277 . S
O686 Mg677 2.041 1_545 S
O687 C673 1.245 . S
O687 Mg675 1.988 . S
O688 Mg675 2.061 1_455 S
O688 C682 1.247 . S
O689 Mg678 2.111 . S
O689 Mg681 2.244 . S
O689 C682 1.289 . S
C690 O691 1.245 . S
C690 O692 1.274 . S
O691 Mg678 2.078 1_665 S
O691 C690 1.245 . S
O692 Mg677 2.038 . S
O692 C690 1.274 . S
O693 Mg681 2.036 1_565 S
O693 C696 1.241 . S
O694 Mg680 1.984 . S
O694 C696 1.280 . S
O695 Mg681 2.034 1_565 S
O695 C699 1.277 . S
C696 O693 1.241 . S
C696 O694 1.280 . S
O697 Mg680 1.988 . S
O697 C699 1.245 . S
O698 C674 1.247 . S
O698 Mg680 2.061 1_655 S
C699 O695 1.277 . S
C699 O697 1.245 . S
O700 C674 1.289 . S
O700 Mg677 2.238 . S
O700 Mg678 2.102 1_665 S
O701 Mg678 2.080 . S
O701 C683 1.245 . S
O702 Mg681 2.045 . S
O702 C683 1.274 . S
C703 O715 1.241 . S
C703 O716 1.280 . S
C704 O717 1.277 . S
C704 O718 1.245 . S
C705 O729 1.247 . S
C705 O731 1.289 . S
Mg706 O707 1.926 . S
Mg706 O716 1.984 . S
Mg706 O718 1.988 1_554 S
Mg706 O719 2.061 . S
O707 Mg706 1.926 . S
O707 Mg708 1.986 1_545 S
O707 Mg709 1.918 . S
Mg708 O707 1.986 1_565 S
Mg708 O715 2.043 1_565 S
Mg708 O717 2.041 1_564 S
Mg708 O723 2.038 . S
Mg708 O731 2.238 1_554 S
Mg709 O707 1.918 . S
Mg709 O710 1.916 1_544 S
Mg709 O720 2.108 . S
Mg709 O722 2.081 1_545 S
Mg709 O731 2.105 1_544 S
Mg709 O732 2.076 1_554 S
O710 Mg709 1.916 1_566 S
O710 Mg711 1.926 . S
O710 Mg712 1.985 1_565 S
Mg711 O710 1.926 . S
Mg711 O725 1.984 . S
Mg711 O728 1.988 1_556 S
Mg711 O729 2.061 . S
Mg712 O710 1.985 1_545 S
Mg712 O720 2.244 1_556 S
Mg712 O724 2.036 1_545 S
Mg712 O726 2.034 1_546 S
Mg712 O733 2.045 . S
C713 O719 1.247 . S
C713 O720 1.289 . S
C714 O732 1.245 . S
C714 O733 1.274 . S
O715 C703 1.241 . S
O715 Mg708 2.043 1_545 S
O716 C703 1.280 . S
O716 Mg706 1.984 . S
O717 C704 1.277 . S
O717 Mg708 2.041 1_546 S
O718 C704 1.245 . S
O718 Mg706 1.988 1_556 S
O719 Mg706 2.061 . S
O719 C713 1.247 . S
O720 Mg709 2.108 . S
O720 Mg712 2.244 1_554 S
O720 C713 1.289 . S
C721 O722 1.245 . S
C721 O723 1.274 . S
O722 Mg709 2.081 1_565 S
O722 C721 1.245 . S
O723 Mg708 2.038 . S
O723 C721 1.274 . S
O724 Mg712 2.036 1_565 S
O724 C727 1.241 . S
O725 Mg711 1.984 . S
O725 C727 1.280 . S
O726 Mg712 2.034 1_564 S
O726 C730 1.277 . S
C727 O724 1.241 . S
C727 O725 1.280 . S
O728 Mg711 1.988 1_554 S
O728 C730 1.245 . S
O729 C705 1.247 . S
O729 Mg711 2.061 . S
C730 O726 1.277 . S
C730 O728 1.245 . S
O731 C705 1.289 . S
O731 Mg708 2.238 1_556 S
O731 Mg709 2.105 1_566 S
O732 Mg709 2.076 1_556 S
O732 C714 1.245 . S
O733 Mg712 2.045 . S
O733 C714 1.274 . S
C734 O746 1.241 . S
C734 O747 1.280 . S
C735 O748 1.277 . S
C735 O749 1.245 . S
C736 O760 1.247 . S
C736 O762 1.289 . S
Mg737 O738 1.926 . S
Mg737 O747 1.984 . S
Mg737 O749 1.988 1_554 S
Mg737 O750 2.061 1_655 S
O738 Mg737 1.926 . S
O738 Mg739 1.986 . S
O738 Mg740 1.912 1_655 S
Mg739 O738 1.986 . S
Mg739 O746 2.042 . S
Mg739 O748 2.041 1_554 S
Mg739 O754 2.038 . S
Mg739 O762 2.238 1_554 S
Mg740 O738 1.912 1_455 S
Mg740 O741 1.921 1_554 S
Mg740 O751 2.113 . S
Mg740 O753 2.081 1_455 S
Mg740 O762 2.100 1_454 S
Mg740 O763 2.077 1_554 S
O741 Mg740 1.921 1_556 S
O741 Mg742 1.926 . S
O741 Mg743 1.986 . S
Mg742 O741 1.926 . S
Mg742 O756 1.984 . S
Mg742 O759 1.988 1_556 S
Mg742 O760 2.061 1_455 S
Mg743 O741 1.986 . S
Mg743 O751 2.238 1_556 S
Mg743 O755 2.042 . S
Mg743 O757 2.041 1_556 S
Mg743 O764 2.038 . S
C744 O750 1.247 . S
C744 O751 1.289 . S
C745 O763 1.245 . S
C745 O764 1.274 . S
O746 C734 1.241 . S
O746 Mg739 2.042 . S
O747 C734 1.280 . S
O747 Mg737 1.984 . S
O748 C735 1.277 . S
O748 Mg739 2.041 1_556 S
O749 C735 1.245 . S
O749 Mg737 1.988 1_556 S
O750 Mg737 2.061 1_455 S
O750 C744 1.247 . S
O751 Mg740 2.113 . S
O751 Mg743 2.238 1_554 S
O751 C744 1.289 . S
C752 O753 1.245 . S
C752 O754 1.274 . S
O753 Mg740 2.081 1_655 S
O753 C752 1.245 . S
O754 Mg739 2.038 . S
O754 C752 1.274 . S
O755 Mg743 2.042 . S
O755 C758 1.241 . S
O756 Mg742 1.984 . S
O756 C758 1.280 . S
O757 Mg743 2.041 1_554 S
O757 C761 1.277 . S
C758 O755 1.241 . S
C758 O756 1.280 . S
O759 Mg742 1.988 1_554 S
O759 C761 1.245 . S
O760 C736 1.247 . S
O760 Mg742 2.061 1_655 S
C761 O757 1.277 . S
C761 O759 1.245 . S
O762 C736 1.289 . S
O762 Mg739 2.238 1_556 S
O762 Mg740 2.100 1_656 S
O763 Mg740 2.077 1_556 S
O763 C745 1.245 . S
O764 Mg743 2.038 . S
O764 C745 1.274 . S
C765 O777 1.241 . S
C765 O778 1.280 . S
C766 O779 1.277 . S
C766 O780 1.245 . S
C767 O791 1.247 . S
C767 O793 1.289 . S
Mg768 O769 1.926 . S
Mg768 O778 1.984 . S
Mg768 O780 1.988 1_554 S
Mg768 O781 2.061 . S
O769 Mg768 1.926 . S
O769 Mg770 1.986 . S
O769 Mg771 1.918 . S
Mg770 O769 1.986 . S
Mg770 O777 2.042 . S
Mg770 O779 2.041 1_554 S
Mg770 O785 2.038 . S
Mg770 O793 2.238 1_554 S
Mg771 O769 1.918 . S
Mg771 O772 1.916 1_554 S
Mg771 O782 2.108 . S
Mg771 O784 2.081 . S
Mg771 O793 2.105 1_554 S
Mg771 O794 2.076 1_554 S
O772 Mg771 1.916 1_556 S
O772 Mg773 1.926 . S
O772 Mg774 1.986 . S
Mg773 O772 1.926 . S
Mg773 O787 1.984 . S
Mg773 O790 1.988 1_556 S
Mg773 O791 2.061 . S
Mg774 O772 1.986 . S
Mg774 O782 2.238 1_556 S
Mg774 O786 2.042 . S
Mg774 O788 2.041 1_556 S
Mg774 O795 2.038 . S
C775 O781 1.247 . S
C775 O782 1.289 . S
C776 O794 1.245 . S
C776 O795 1.274 . S
O777 C765 1.241 . S
O777 Mg770 2.042 . S
O778 C765 1.280 . S
O778 Mg768 1.984 . S
O779 C766 1.277 . S
O779 Mg770 2.041 1_556 S
O780 C766 1.245 . S
O780 Mg768 1.988 1_556 S
O781 Mg768 2.061 . S
O781 C775 1.247 . S
O782 Mg771 2.108 . S
O782 Mg774 2.238 1_554 S
O782 C775 1.289 . S
C783 O784 1.245 . S
C783 O785 1.274 . S
O784 Mg771 2.081 . S
O784 C783 1.245 . S
O785 Mg770 2.038 . S
O785 C783 1.274 . S
O786 Mg774 2.042 . S
O786 C789 1.241 . S
O787 Mg773 1.984 . S
O787 C789 1.280 . S
O788 Mg774 2.041 1_554 S
O788 C792 1.277 . S
C789 O786 1.241 . S
C789 O787 1.280 . S
O790 Mg773 1.988 1_554 S
O790 C792 1.245 . S
O791 C767 1.247 . S
O791 Mg773 2.061 . S
C792 O788 1.277 . S
C792 O790 1.245 . S
O793 C767 1.289 . S
O793 Mg770 2.238 1_556 S
O793 Mg771 2.105 1_556 S
O794 Mg771 2.076 1_556 S
O794 C776 1.245 . S
O795 Mg774 2.038 . S
O795 C776 1.274 . S
C796 O808 1.241 . S
C796 O809 1.280 . S
C797 O810 1.277 . S
C797 O811 1.245 . S
C798 O822 1.247 . S
C798 O824 1.289 . S
Mg799 O800 1.926 . S
Mg799 O809 1.984 . S
Mg799 O811 1.988 . S
Mg799 O812 2.061 1_655 S
O800 Mg799 1.926 . S
O800 Mg801 1.986 . S
O800 Mg802 1.912 1_655 S
Mg801 O800 1.986 . S
Mg801 O808 2.042 . S
Mg801 O810 2.041 . S
Mg801 O816 2.038 . S
Mg801 O824 2.238 . S
Mg802 O800 1.912 1_455 S
Mg802 O803 1.922 . S
Mg802 O813 2.111 . S
Mg802 O815 2.078 1_455 S
Mg802 O824 2.102 1_455 S
Mg802 O825 2.080 . S
O803 Mg802 1.922 . S
O803 Mg804 1.926 . S
O803 Mg805 1.986 . S
Mg804 O803 1.926 . S
Mg804 O818 1.984 . S
Mg804 O821 1.988 . S
Mg804 O822 2.061 1_455 S
Mg805 O803 1.986 . S
Mg805 O813 2.238 . S
Mg805 O817 2.042 . S
Mg805 O819 2.041 . S
Mg805 O826 2.038 . S
C806 O812 1.247 . S
C806 O813 1.289 . S
C807 O825 1.245 . S
C807 O826 1.274 . S
O808 C796 1.241 . S
O808 Mg801 2.042 . S
O809 C796 1.280 . S
O809 Mg799 1.984 . S
O810 C797 1.277 . S
O810 Mg801 2.041 . S
O811 C797 1.245 . S
O811 Mg799 1.988 . S
O812 Mg799 2.061 1_455 S
O812 C806 1.247 . S
O813 Mg802 2.111 . S
O813 Mg805 2.238 . S
O813 C806 1.289 . S
C814 O815 1.245 . S
C814 O816 1.274 . S
O815 Mg802 2.078 1_655 S
O815 C814 1.245 . S
O816 Mg801 2.038 . S
O816 C814 1.274 . S
O817 Mg805 2.042 . S
O817 C820 1.241 . S
O818 Mg804 1.984 . S
O818 C820 1.280 . S
O819 Mg805 2.041 . S
O819 C823 1.277 . S
C820 O817 1.241 . S
C820 O818 1.280 . S
O821 Mg804 1.988 . S
O821 C823 1.245 . S
O822 C798 1.247 . S
O822 Mg804 2.061 1_655 S
C823 O819 1.277 . S
C823 O821 1.245 . S
O824 C798 1.289 . S
O824 Mg801 2.238 . S
O824 Mg802 2.102 1_655 S
O825 Mg802 2.080 . S
O825 C807 1.245 . S
O826 Mg805 2.038 . S
O826 C807 1.274 . S
C827 O839 1.241 . S
C827 O840 1.280 . S
C828 O841 1.277 . S
C828 O842 1.245 . S
C829 O853 1.247 . S
C829 O855 1.289 . S
Mg830 O831 1.926 . S
Mg830 O840 1.984 . S
Mg830 O842 1.988 . S
Mg830 O843 2.061 . S
O831 Mg830 1.926 . S
O831 Mg832 1.986 1_545 S
O831 Mg833 1.917 . S
Mg832 O831 1.986 1_565 S
Mg832 O839 2.043 1_565 S
Mg832 O841 2.041 1_565 S
Mg832 O847 2.038 . S
Mg832 O855 2.238 . S
Mg833 O831 1.917 . S
Mg833 O834 1.917 1_545 S
Mg833 O844 2.106 . S
Mg833 O846 2.079 1_545 S
Mg833 O855 2.106 1_545 S
Mg833 O856 2.079 . S
O834 Mg833 1.917 1_565 S
O834 Mg835 1.926 . S
O834 Mg836 1.985 1_565 S
Mg835 O834 1.926 . S
Mg835 O849 1.984 . S
Mg835 O852 1.988 . S
Mg835 O853 2.061 . S
Mg836 O834 1.985 1_545 S
Mg836 O844 2.244 . S
Mg836 O848 2.036 1_545 S
Mg836 O850 2.034 1_545 S
Mg836 O857 2.045 . S
C837 O843 1.247 . S
C837 O844 1.289 . S
C838 O856 1.245 . S
C838 O857 1.274 . S
O839 C827 1.241 . S
O839 Mg832 2.043 1_545 S
O840 C827 1.280 . S
O840 Mg830 1.984 . S
O841 C828 1.277 . S
O841 Mg832 2.041 1_545 S
O842 C828 1.245 . S
O842 Mg830 1.988 . S
O843 Mg830 2.061 . S
O843 C837 1.247 . S
O844 Mg833 2.106 . S
O844 Mg836 2.244 . S
O844 C837 1.289 . S
C845 O846 1.245 . S
C845 O847 1.274 . S
O846 Mg833 2.079 1_565 S
O846 C845 1.245 . S
O847 Mg832 2.038 . S
O847 C845 1.274 . S
O848 Mg836 2.036 1_565 S
O848 C851 1.241 . S
O849 Mg835 1.984 . S
O849 C851 1.280 . S
O850 Mg836 2.034 1_565 S
O850 C854 1.277 . S
C851 O848 1.241 . S
C851 O849 1.280 . S
O852 Mg835 1.988 . S
O852 C854 1.245 . S
O853 C829 1.247 . S
O853 Mg835 2.061 . S
C854 O850 1.277 . S
C854 O852 1.245 . S
O855 C829 1.289 . S
O855 Mg832 2.238 . S
O855 Mg833 2.106 1_565 S
O856 Mg833 2.079 . S
O856 C838 1.245 . S
O857 Mg836 2.045 . S
O857 C838 1.274 . S
H858 C876 0.951 . S
H859 C878 0.951 . S
H860 C880 0.950 . S
H861 C881 0.950 . S
H862 C883 0.950 . S
H863 C886 0.950 . S
H864 C887 0.950 . S
H865 C889 0.950 . S
H866 C890 0.950 . S
H867 C891 0.951 . S
H868 C893 0.951 . S
H869 C895 0.950 . S
H870 C896 0.950 . S
H871 C898 0.950 . S
H872 C901 0.950 . S
H873 C902 0.950 . S
H874 C904 0.950 . S
H875 C905 0.950 . S
C876 H858 0.951 . S
C876 C877 1.366 . S
C876 C878 1.388 . S
C877 C876 1.366 . S
C877 C881 1.385 . S
C878 H859 0.951 . S
C878 C876 1.388 . S
C878 C879 1.366 . S
C879 C878 1.366 . S
C879 C880 1.414 . S
C879 C882 1.499 . S
C880 H860 0.950 . S
C880 C879 1.414 . S
C880 C881 1.374 . S
C881 H861 0.950 . S
C881 C877 1.385 . S
C881 C880 1.374 . S
C882 C879 1.499 . S
C882 C883 1.373 . S
C882 C884 1.389 . S
C883 H862 0.950 . S
C883 C882 1.373 . S
C883 C899 1.377 . S
C884 C882 1.389 . S
C884 C885 1.524 . S
C884 C898 1.377 . S
C885 C884 1.524 . S
C885 C886 1.397 . S
C885 C890 1.363 . S
C886 H863 0.950 . S
C886 C885 1.397 . S
C886 C887 1.334 . S
C887 H864 0.950 . S
C887 C886 1.334 . S
C887 C888 1.287 . S
C888 C887 1.287 . S
C888 C889 1.524 . S
C888 H907 0.913 . S
C889 H865 0.950 . S
C889 C888 1.524 . S
C889 C890 1.415 . S
C890 H866 0.950 . S
C890 C885 1.363 . S
C890 C889 1.415 . S
C891 H867 0.951 . S
C891 C892 1.366 . S
C891 C893 1.388 . S
C892 C891 1.366 . S
C892 C896 1.385 . S
C893 H868 0.951 . S
C893 C891 1.388 . S
C893 C894 1.366 . S
C894 C893 1.366 . S
C894 C895 1.414 . S
C894 C897 1.499 . S
C895 H869 0.950 . S
C895 C894 1.414 . S
C895 C896 1.374 . S
C896 H870 0.950 . S
C896 C892 1.385 . S
C896 C895 1.374 . S
C897 C894 1.499 . S
C897 C898 1.373 . S
C897 C899 1.389 . S
C898 H871 0.950 . S
C898 C884 1.377 . S
C898 C897 1.373 . S
C899 C883 1.377 . S
C899 C897 1.389 . S
C899 C900 1.524 . S
C900 C899 1.524 . S
C900 C901 1.397 . S
C900 C905 1.363 . S
C901 H872 0.950 . S
C901 C900 1.397 . S
C901 C902 1.334 . S
C902 H873 0.950 . S
C902 C901 1.334 . S
C902 C903 1.287 . S
C903 C902 1.287 . S
C903 C904 1.524 . S
C903 H906 0.999 . S
C904 H874 0.950 . S
C904 C903 1.524 . S
C904 C905 1.415 . S
C905 H875 0.950 . S
C905 C900 1.363 . S
C905 C904 1.415 . S
H906 C903 0.999 . S
H907 C888 0.913 . S
H908 C926 0.951 . S
H909 C928 0.951 . S
H910 C930 0.950 . S
H911 C931 0.950 . S
H912 C933 0.950 . S
H913 C936 0.950 . S
H914 C937 0.950 . S
H915 C939 0.950 . S
H916 C940 0.950 . S
H917 C941 0.951 . S
H918 C943 0.951 . S
H919 C945 0.950 . S
H920 C946 0.950 . S
H921 C948 0.950 . S
H922 C951 0.950 . S
H923 C952 0.950 1_565 S
H924 C954 0.950 . S
H925 C955 0.950 . S
C926 H908 0.951 . S
C926 C927 1.366 . S
C926 C928 1.388 . S
C927 C926 1.366 . S
C927 C931 1.385 . S
C928 H909 0.951 . S
C928 C926 1.388 . S
C928 C929 1.366 . S
C929 C928 1.366 . S
C929 C930 1.414 . S
C929 C932 1.499 . S
C930 H910 0.950 . S
C930 C929 1.414 . S
C930 C931 1.374 . S
C931 H911 0.950 . S
C931 C927 1.385 . S
C931 C930 1.374 . S
C932 C929 1.499 . S
C932 C933 1.373 . S
C932 C934 1.389 . S
C933 H912 0.950 . S
C933 C932 1.373 . S
C933 C949 1.377 . S
C934 C932 1.389 . S
C934 C935 1.524 . S
C934 C948 1.377 . S
C935 C934 1.524 . S
C935 C936 1.397 . S
C935 C940 1.363 . S
C936 H913 0.950 . S
C936 C935 1.397 . S
C936 C937 1.334 . S
C937 H914 0.950 . S
C937 C936 1.334 . S
C937 C938 1.287 . S
C938 C937 1.287 . S
C938 C939 1.524 . S
C938 H957 0.913 . S
C939 H915 0.950 . S
C939 C938 1.524 . S
C939 C940 1.415 . S
C940 H916 0.950 . S
C940 C935 1.363 . S
C940 C939 1.415 . S
C941 H917 0.951 . S
C941 C942 1.366 . S
C941 C943 1.388 . S
C942 C941 1.366 . S
C942 C946 1.385 . S
C943 H918 0.951 . S
C943 C941 1.388 . S
C943 C944 1.366 . S
C944 C943 1.366 . S
C944 C945 1.414 . S
C944 C947 1.499 . S
C945 H919 0.950 . S
C945 C944 1.414 . S
C945 C946 1.374 . S
C946 H920 0.950 . S
C946 C942 1.385 . S
C946 C945 1.374 . S
C947 C944 1.499 . S
C947 C948 1.373 . S
C947 C949 1.389 . S
C948 H921 0.950 . S
C948 C934 1.377 . S
C948 C947 1.373 . S
C949 C933 1.377 . S
C949 C947 1.389 . S
C949 C950 1.524 . S
C950 C949 1.524 . S
C950 C951 1.397 . S
C950 C955 1.363 . S
C951 H922 0.950 . S
C951 C950 1.397 . S
C951 C952 1.334 . S
C952 H923 0.950 1_545 S
C952 C951 1.334 . S
C952 C953 1.280 1_545 S
C953 C952 1.280 1_565 S
C953 C954 1.498 1_565 S
C953 H956 1.037 . S
C954 H924 0.950 . S
C954 C953 1.498 1_545 S
C954 C955 1.415 . S
C955 H925 0.950 . S
C955 C950 1.363 . S
C955 C954 1.415 . S
H956 C953 1.037 . S
H957 C938 0.913 . S
H958 C976 0.951 . S
H959 C978 0.951 . S
H960 C980 0.950 . S
H961 C981 0.950 . S
H962 C983 0.950 . S
H963 C986 0.950 . S
H964 C987 0.950 . S
H965 C989 0.950 . S
H966 C990 0.950 . S
H967 C991 0.951 . S
H968 C993 0.951 . S
H969 C995 0.950 . S
H970 C996 0.950 . S
H971 C998 0.950 . S
H972 C1001 0.950 . S
H973 C1002 0.950 . S
H974 C1004 0.950 . S
H975 C1005 0.950 . S
C976 H958 0.951 . S
C976 C977 1.366 . S
C976 C978 1.388 . S
C977 C976 1.366 . S
C977 C981 1.385 . S
C978 H959 0.951 . S
C978 C976 1.388 . S
C978 C979 1.366 . S
C979 C978 1.366 . S
C979 C980 1.414 . S
C979 C982 1.499 . S
C980 H960 0.950 . S
C980 C979 1.414 . S
C980 C981 1.374 . S
C981 H961 0.950 . S
C981 C977 1.385 . S
C981 C980 1.374 . S
C982 C979 1.499 . S
C982 C983 1.373 . S
C982 C984 1.389 . S
C983 H962 0.950 . S
C983 C982 1.373 . S
C983 C999 1.377 . S
C984 C982 1.389 . S
C984 C985 1.524 . S
C984 C998 1.377 . S
C985 C984 1.524 . S
C985 C986 1.397 . S
C985 C990 1.363 . S
C986 H963 0.950 . S
C986 C985 1.397 . S
C986 C987 1.334 . S
C987 H964 0.950 . S
C987 C986 1.334 . S
C987 C988 1.287 . S
C988 C987 1.287 . S
C988 C989 1.524 . S
C988 H1007 0.913 . S
C989 H965 0.950 . S
C989 C988 1.524 . S
C989 C990 1.415 . S
C990 H966 0.950 . S
C990 C985 1.363 . S
C990 C989 1.415 . S
C991 H967 0.951 . S
C991 C992 1.366 . S
C991 C993 1.388 . S
C992 C991 1.366 . S
C992 C996 1.385 . S
C993 H968 0.951 . S
C993 C991 1.388 . S
C993 C994 1.366 . S
C994 C993 1.366 . S
C994 C995 1.414 . S
C994 C997 1.499 . S
C995 H969 0.950 . S
C995 C994 1.414 . S
C995 C996 1.374 . S
C996 H970 0.950 . S
C996 C992 1.385 . S
C996 C995 1.374 . S
C997 C994 1.499 . S
C997 C998 1.373 . S
C997 C999 1.389 . S
C998 H971 0.950 . S
C998 C984 1.377 . S
C998 C997 1.373 . S
C999 C983 1.377 . S
C999 C997 1.389 . S
C999 C1000 1.524 . S
C1000 C999 1.524 . S
C1000 C1001 1.397 . S
C1000 C1005 1.363 . S
C1001 H972 0.950 . S
C1001 C1000 1.397 . S
C1001 C1002 1.334 . S
C1002 H973 0.950 . S
C1002 C1001 1.334 . S
C1002 C1003 1.287 . S
C1003 C1002 1.287 . S
C1003 C1004 1.524 . S
C1003 H1006 0.999 . S
C1004 H974 0.950 . S
C1004 C1003 1.524 . S
C1004 C1005 1.415 . S
C1005 H975 0.950 . S
C1005 C1000 1.363 . S
C1005 C1004 1.415 . S
H1006 C1003 0.999 . S
H1007 C988 0.913 . S
H1008 C1026 0.951 . S
H1009 C1028 0.951 . S
H1010 C1030 0.950 . S
H1011 C1031 0.950 . S
H1012 C1033 0.950 . S
H1013 C1036 0.950 . S
H1014 C1037 0.950 . S
H1015 C1039 0.950 . S
H1016 C1040 0.950 . S
H1017 C1041 0.951 . S
H1018 C1043 0.951 . S
H1019 C1045 0.950 . S
H1020 C1046 0.950 . S
H1021 C1048 0.950 . S
H1022 C1051 0.950 . S
H1023 C1052 0.950 1_545 S
H1024 C1054 0.950 . S
H1025 C1055 0.950 . S
C1026 H1008 0.951 . S
C1026 C1027 1.366 . S
C1026 C1028 1.388 . S
C1027 C1026 1.366 . S
C1027 C1031 1.385 . S
C1028 H1009 0.951 . S
C1028 C1026 1.388 . S
C1028 C1029 1.366 . S
C1029 C1028 1.366 . S
C1029 C1030 1.414 . S
C1029 C1032 1.499 . S
C1030 H1010 0.950 . S
C1030 C1029 1.414 . S
C1030 C1031 1.374 . S
C1031 H1011 0.950 . S
C1031 C1027 1.385 . S
C1031 C1030 1.374 . S
C1032 C1029 1.499 . S
C1032 C1033 1.373 . S
C1032 C1034 1.389 . S
C1033 H1012 0.950 . S
C1033 C1032 1.373 . S
C1033 C1049 1.377 . S
C1034 C1032 1.389 . S
C1034 C1035 1.524 . S
C1034 C1048 1.377 . S
C1035 C1034 1.524 . S
C1035 C1036 1.397 . S
C1035 C1040 1.363 . S
C1036 H1013 0.950 . S
C1036 C1035 1.397 . S
C1036 C1037 1.334 . S
C1037 H1014 0.950 . S
C1037 C1036 1.334 . S
C1037 C1038 1.287 . S
C1038 C1037 1.287 . S
C1038 C1039 1.524 . S
C1038 H1057 0.913 . S
C1039 H1015 0.950 . S
C1039 C1038 1.524 . S
C1039 C1040 1.415 . S
C1040 H1016 0.950 . S
C1040 C1035 1.363 . S
C1040 C1039 1.415 . S
C1041 H1017 0.951 . S
C1041 C1042 1.366 . S
C1041 C1043 1.388 . S
C1042 C1041 1.366 . S
C1042 C1046 1.385 . S
C1043 H1018 0.951 . S
C1043 C1041 1.388 . S
C1043 C1044 1.366 . S
C1044 C1043 1.366 . S
C1044 C1045 1.414 . S
C1044 C1047 1.499 . S
C1045 H1019 0.950 . S
C1045 C1044 1.414 . S
C1045 C1046 1.374 . S
C1046 H1020 0.950 . S
C1046 C1042 1.385 . S
C1046 C1045 1.374 . S
C1047 C1044 1.499 . S
C1047 C1048 1.373 . S
C1047 C1049 1.389 . S
C1048 H1021 0.950 . S
C1048 C1034 1.377 . S
C1048 C1047 1.373 . S
C1049 C1033 1.377 . S
C1049 C1047 1.389 . S
C1049 C1050 1.524 . S
C1050 C1049 1.524 . S
C1050 C1051 1.397 . S
C1050 C1055 1.363 . S
C1051 H1022 0.950 . S
C1051 C1050 1.397 . S
C1051 C1052 1.334 . S
C1052 H1023 0.950 1_565 S
C1052 C1051 1.334 . S
C1052 C1053 1.287 . S
C1053 C1052 1.287 . S
C1053 C1054 1.524 . S
C1053 H1056 0.999 1_565 S
C1054 H1024 0.950 . S
C1054 C1053 1.524 . S
C1054 C1055 1.415 . S
C1055 H1025 0.950 . S
C1055 C1050 1.363 . S
C1055 C1054 1.415 . S
H1056 C1053 0.999 1_545 S
H1057 C1038 0.913 . S
H1058 C1076 0.951 . S
H1059 C1078 0.951 . S
H1060 C1080 0.950 . S
H1061 C1081 0.950 . S
H1062 C1083 0.950 . S
H1063 C1086 0.950 . S
H1064 C1087 0.950 . S
H1065 C1089 0.950 . S
H1066 C1090 0.950 . S
H1067 C1091 0.951 . S
H1068 C1093 0.951 . S
H1069 C1095 0.950 . S
H1070 C1096 0.950 . S
H1071 C1098 0.950 . S
H1072 C1101 0.950 . S
H1073 C1102 0.950 . S
H1074 C1104 0.950 . S
H1075 C1105 0.950 . S
C1076 H1058 0.951 . S
C1076 C1077 1.366 . S
C1076 C1078 1.388 . S
C1077 C1076 1.366 . S
C1077 C1081 1.385 . S
C1078 H1059 0.951 . S
C1078 C1076 1.388 . S
C1078 C1079 1.366 . S
C1079 C1078 1.366 . S
C1079 C1080 1.414 . S
C1079 C1082 1.499 . S
C1080 H1060 0.950 . S
C1080 C1079 1.414 . S
C1080 C1081 1.374 . S
C1081 H1061 0.950 . S
C1081 C1077 1.385 . S
C1081 C1080 1.374 . S
C1082 C1079 1.499 . S
C1082 C1083 1.373 . S
C1082 C1084 1.389 . S
C1083 H1062 0.950 . S
C1083 C1082 1.373 . S
C1083 C1099 1.377 . S
C1084 C1082 1.389 . S
C1084 C1085 1.524 . S
C1084 C1098 1.377 . S
C1085 C1084 1.524 . S
C1085 C1086 1.397 . S
C1085 C1090 1.363 . S
C1086 H1063 0.950 . S
C1086 C1085 1.397 . S
C1086 C1087 1.334 . S
C1087 H1064 0.950 . S
C1087 C1086 1.334 . S
C1087 C1088 1.287 . S
C1088 C1087 1.287 . S
C1088 C1089 1.524 . S
C1088 H1107 0.913 . S
C1089 H1065 0.950 . S
C1089 C1088 1.524 . S
C1089 C1090 1.415 . S
C1090 H1066 0.950 . S
C1090 C1085 1.363 . S
C1090 C1089 1.415 . S
C1091 H1067 0.951 . S
C1091 C1092 1.366 . S
C1091 C1093 1.388 . S
C1092 C1091 1.366 . S
C1092 C1096 1.385 . S
C1093 H1068 0.951 . S
C1093 C1091 1.388 . S
C1093 C1094 1.366 . S
C1094 C1093 1.366 . S
C1094 C1095 1.414 . S
C1094 C1097 1.499 . S
C1095 H1069 0.950 . S
C1095 C1094 1.414 . S
C1095 C1096 1.374 . S
C1096 H1070 0.950 . S
C1096 C1092 1.385 . S
C1096 C1095 1.374 . S
C1097 C1094 1.499 . S
C1097 C1098 1.373 . S
C1097 C1099 1.389 . S
C1098 H1071 0.950 . S
C1098 C1084 1.377 . S
C1098 C1097 1.373 . S
C1099 C1083 1.377 . S
C1099 C1097 1.389 . S
C1099 C1100 1.524 . S
C1100 C1099 1.524 . S
C1100 C1101 1.397 . S
C1100 C1105 1.363 . S
C1101 H1072 0.950 . S
C1101 C1100 1.397 . S
C1101 C1102 1.334 . S
C1102 H1073 0.950 . S
C1102 C1101 1.334 . S
C1102 C1103 1.287 . S
C1103 C1102 1.287 . S
C1103 C1104 1.524 . S
C1103 H1106 0.999 . S
C1104 H1074 0.950 . S
C1104 C1103 1.524 . S
C1104 C1105 1.415 . S
C1105 H1075 0.950 . S
C1105 C1100 1.363 . S
C1105 C1104 1.415 . S
H1106 C1103 0.999 . S
H1107 C1088 0.913 . S
H1108 C1126 0.951 . S
H1109 C1128 0.951 . S
H1110 C1130 0.950 . S
H1111 C1131 0.950 . S
H1112 C1133 0.950 . S
H1113 C1136 0.950 . S
H1114 C1137 0.950 . S
H1115 C1139 0.950 . S
H1116 C1140 0.950 . S
H1117 C1141 0.951 . S
H1118 C1143 0.951 . S
H1119 C1145 0.950 . S
H1120 C1146 0.950 . S
H1121 C1148 0.950 . S
H1122 C1151 0.950 . S
H1123 C1152 0.950 . S
H1124 C1154 0.950 . S
H1125 C1155 0.950 . S
C1126 H1108 0.951 . S
C1126 C1127 1.366 . S
C1126 C1128 1.388 . S
C1127 C1126 1.366 . S
C1127 C1131 1.385 . S
C1128 H1109 0.951 . S
C1128 C1126 1.388 . S
C1128 C1129 1.366 . S
C1129 C1128 1.366 . S
C1129 C1130 1.414 . S
C1129 C1132 1.499 . S
C1130 H1110 0.950 . S
C1130 C1129 1.414 . S
C1130 C1131 1.374 . S
C1131 H1111 0.950 . S
C1131 C1127 1.385 . S
C1131 C1130 1.374 . S
C1132 C1129 1.499 . S
C1132 C1133 1.373 . S
C1132 C1134 1.389 . S
C1133 H1112 0.950 . S
C1133 C1132 1.373 . S
C1133 C1149 1.377 . S
C1134 C1132 1.389 . S
C1134 C1135 1.524 . S
C1134 C1148 1.377 . S
C1135 C1134 1.524 . S
C1135 C1136 1.397 . S
C1135 C1140 1.363 . S
C1136 H1113 0.950 . S
C1136 C1135 1.397 . S
C1136 C1137 1.334 . S
C1137 H1114 0.950 . S
C1137 C1136 1.334 . S
C1137 C1138 1.287 . S
C1138 C1137 1.287 . S
C1138 C1139 1.524 . S
C1138 H1157 0.913 . S
C1139 H1115 0.950 . S
C1139 C1138 1.524 . S
C1139 C1140 1.415 . S
C1140 H1116 0.950 . S
C1140 C1135 1.363 . S
C1140 C1139 1.415 . S
C1141 H1117 0.951 . S
C1141 C1142 1.366 . S
C1141 C1143 1.388 . S
C1142 C1141 1.366 . S
C1142 C1146 1.385 . S
C1143 H1118 0.951 . S
C1143 C1141 1.388 . S
C1143 C1144 1.366 . S
C1144 C1143 1.366 . S
C1144 C1145 1.414 . S
C1144 C1147 1.499 . S
C1145 H1119 0.950 . S
C1145 C1144 1.414 . S
C1145 C1146 1.374 . S
C1146 H1120 0.950 . S
C1146 C1142 1.385 . S
C1146 C1145 1.374 . S
C1147 C1144 1.499 . S
C1147 C1148 1.373 . S
C1147 C1149 1.389 . S
C1148 H1121 0.950 . S
C1148 C1134 1.377 . S
C1148 C1147 1.373 . S
C1149 C1133 1.377 . S
C1149 C1147 1.389 . S
C1149 C1150 1.524 . S
C1150 C1149 1.524 . S
C1150 C1151 1.397 . S
C1150 C1155 1.363 . S
C1151 H1122 0.950 . S
C1151 C1150 1.397 . S
C1151 C1152 1.334 . S
C1152 H1123 0.950 . S
C1152 C1151 1.334 . S
C1152 C1153 1.287 . S
C1153 C1152 1.287 . S
C1153 C1154 1.524 . S
C1153 H1156 0.999 . S
C1154 H1124 0.950 . S
C1154 C1153 1.524 . S
C1154 C1155 1.415 . S
C1155 H1125 0.950 . S
C1155 C1150 1.363 . S
C1155 C1154 1.415 . S
H1156 C1153 0.999 . S
H1157 C1138 0.913 . S
H1158 C1176 0.951 . S
H1159 C1178 0.951 . S
H1160 C1180 0.950 . S
H1161 C1181 0.950 . S
H1162 C1183 0.950 . S
H1163 C1186 0.950 . S
H1164 C1187 0.950 . S
H1165 C1189 0.950 . S
H1166 C1190 0.950 . S
H1167 C1191 0.951 . S
H1168 C1193 0.951 . S
H1169 C1195 0.950 . S
H1170 C1196 0.950 . S
H1171 C1198 0.950 . S
H1172 C1201 0.950 . S
H1173 C1202 0.950 . S
H1174 C1204 0.950 . S
H1175 C1205 0.950 . S
C1176 H1158 0.951 . S
C1176 C1177 1.366 . S
C1176 C1178 1.388 . S
C1177 C1176 1.366 . S
C1177 C1181 1.385 . S
C1178 H1159 0.951 . S
C1178 C1176 1.388 . S
C1178 C1179 1.366 . S
C1179 C1178 1.366 . S
C1179 C1180 1.414 . S
C1179 C1182 1.499 . S
C1180 H1160 0.950 . S
C1180 C1179 1.414 . S
C1180 C1181 1.374 . S
C1181 H1161 0.950 . S
C1181 C1177 1.385 . S
C1181 C1180 1.374 . S
C1182 C1179 1.499 . S
C1182 C1183 1.373 . S
C1182 C1184 1.389 . S
C1183 H1162 0.950 . S
C1183 C1182 1.373 . S
C1183 C1199 1.377 . S
C1184 C1182 1.389 . S
C1184 C1185 1.524 . S
C1184 C1198 1.377 . S
C1185 C1184 1.524 . S
C1185 C1186 1.397 . S
C1185 C1190 1.363 . S
C1186 H1163 0.950 . S
C1186 C1185 1.397 . S
C1186 C1187 1.334 . S
C1187 H1164 0.950 . S
C1187 C1186 1.334 . S
C1187 C1188 1.287 . S
C1188 C1187 1.287 . S
C1188 C1189 1.524 . S
C1188 H1207 0.913 . S
C1189 H1165 0.950 . S
C1189 C1188 1.524 . S
C1189 C1190 1.415 . S
C1190 H1166 0.950 . S
C1190 C1185 1.363 . S
C1190 C1189 1.415 . S
C1191 H1167 0.951 . S
C1191 C1192 1.366 . S
C1191 C1193 1.388 . S
C1192 C1191 1.366 . S
C1192 C1196 1.385 . S
C1193 H1168 0.951 . S
C1193 C1191 1.388 . S
C1193 C1194 1.366 . S
C1194 C1193 1.366 . S
C1194 C1195 1.414 . S
C1194 C1197 1.499 . S
C1195 H1169 0.950 . S
C1195 C1194 1.414 . S
C1195 C1196 1.374 . S
C1196 H1170 0.950 . S
C1196 C1192 1.385 . S
C1196 C1195 1.374 . S
C1197 C1194 1.499 . S
C1197 C1198 1.373 . S
C1197 C1199 1.389 . S
C1198 H1171 0.950 . S
C1198 C1184 1.377 . S
C1198 C1197 1.373 . S
C1199 C1183 1.377 . S
C1199 C1197 1.389 . S
C1199 C1200 1.524 . S
C1200 C1199 1.524 . S
C1200 C1201 1.397 . S
C1200 C1205 1.363 . S
C1201 H1172 0.950 . S
C1201 C1200 1.397 . S
C1201 C1202 1.334 . S
C1202 H1173 0.950 . S
C1202 C1201 1.334 . S
C1202 C1203 1.287 . S
C1203 C1202 1.287 . S
C1203 C1204 1.524 . S
C1203 H1206 0.999 . S
C1204 H1174 0.950 . S
C1204 C1203 1.524 . S
C1204 C1205 1.415 . S
C1205 H1175 0.950 . S
C1205 C1200 1.363 . S
C1205 C1204 1.415 . S
H1206 C1203 0.999 . S
H1207 C1188 0.913 . S
H1208 C1226 0.951 . S
H1209 C1228 0.951 . S
H1210 C1230 0.950 . S
H1211 C1231 0.950 . S
H1212 C1233 0.950 . S
H1213 C1236 0.950 . S
H1214 C1237 0.950 . S
H1215 C1239 0.950 . S
H1216 C1240 0.950 . S
H1217 C1241 0.951 . S
H1218 C1243 0.951 . S
H1219 C1245 0.950 . S
H1220 C1246 0.950 . S
H1221 C1248 0.950 . S
H1222 C1251 0.950 . S
H1223 C1252 0.950 . S
H1224 C1254 0.950 . S
H1225 C1255 0.950 . S
C1226 H1208 0.951 . S
C1226 C1227 1.366 . S
C1226 C1228 1.388 . S
C1227 C1226 1.366 . S
C1227 C1231 1.385 . S
C1228 H1209 0.951 . S
C1228 C1226 1.388 . S
C1228 C1229 1.366 . S
C1229 C1228 1.366 . S
C1229 C1230 1.414 . S
C1229 C1232 1.499 . S
C1230 H1210 0.950 . S
C1230 C1229 1.414 . S
C1230 C1231 1.374 . S
C1231 H1211 0.950 . S
C1231 C1227 1.385 . S
C1231 C1230 1.374 . S
C1232 C1229 1.499 . S
C1232 C1233 1.373 . S
C1232 C1234 1.389 . S
C1233 H1212 0.950 . S
C1233 C1232 1.373 . S
C1233 C1249 1.377 . S
C1234 C1232 1.389 . S
C1234 C1235 1.524 . S
C1234 C1248 1.377 . S
C1235 C1234 1.524 . S
C1235 C1236 1.397 . S
C1235 C1240 1.363 . S
C1236 H1213 0.950 . S
C1236 C1235 1.397 . S
C1236 C1237 1.334 . S
C1237 H1214 0.950 . S
C1237 C1236 1.334 . S
C1237 C1238 1.287 . S
C1238 C1237 1.287 . S
C1238 C1239 1.524 . S
C1238 H1257 0.913 . S
C1239 H1215 0.950 . S
C1239 C1238 1.524 . S
C1239 C1240 1.415 . S
C1240 H1216 0.950 . S
C1240 C1235 1.363 . S
C1240 C1239 1.415 . S
C1241 H1217 0.951 . S
C1241 C1242 1.366 . S
C1241 C1243 1.388 . S
C1242 C1241 1.366 . S
C1242 C1246 1.385 . S
C1243 H1218 0.951 . S
C1243 C1241 1.388 . S
C1243 C1244 1.366 . S
C1244 C1243 1.366 . S
C1244 C1245 1.414 . S
C1244 C1247 1.499 . S
C1245 H1219 0.950 . S
C1245 C1244 1.414 . S
C1245 C1246 1.374 . S
C1246 H1220 0.950 . S
C1246 C1242 1.385 . S
C1246 C1245 1.374 . S
C1247 C1244 1.499 . S
C1247 C1248 1.373 . S
C1247 C1249 1.389 . S
C1248 H1221 0.950 . S
C1248 C1234 1.377 . S
C1248 C1247 1.373 . S
C1249 C1233 1.377 . S
C1249 C1247 1.389 . S
C1249 C1250 1.524 . S
C1250 C1249 1.524 . S
C1250 C1251 1.397 . S
C1250 C1255 1.363 . S
C1251 H1222 0.950 . S
C1251 C1250 1.397 . S
C1251 C1252 1.334 . S
C1252 H1223 0.950 . S
C1252 C1251 1.334 . S
C1252 C1253 1.287 . S
C1253 C1252 1.287 . S
C1253 C1254 1.524 . S
C1253 H1256 0.999 . S
C1254 H1224 0.950 . S
C1254 C1253 1.524 . S
C1254 C1255 1.415 . S
C1255 H1225 0.950 . S
C1255 C1250 1.363 . S
C1255 C1254 1.415 . S
H1256 C1253 0.999 . S
H1257 C1238 0.913 . S
H1258 C1276 0.951 . S
H1259 C1278 0.951 . S
H1260 C1280 0.950 . S
H1261 C1281 0.950 . S
H1262 C1283 0.950 . S
H1263 C1286 0.950 . S
H1264 C1287 0.950 . S
H1265 C1289 0.950 . S
H1266 C1290 0.950 . S
H1267 C1291 0.951 . S
H1268 C1293 0.951 . S
H1269 C1295 0.950 . S
H1270 C1296 0.950 . S
H1271 C1298 0.950 . S
H1272 C1301 0.950 . S
H1273 C1302 0.950 . S
H1274 C1304 0.950 . S
H1275 C1305 0.950 . S
C1276 H1258 0.951 . S
C1276 C1277 1.366 . S
C1276 C1278 1.388 . S
C1277 C1276 1.366 . S
C1277 C1281 1.385 . S
C1278 H1259 0.951 . S
C1278 C1276 1.388 . S
C1278 C1279 1.366 . S
C1279 C1278 1.366 . S
C1279 C1280 1.414 . S
C1279 C1282 1.499 . S
C1280 H1260 0.950 . S
C1280 C1279 1.414 . S
C1280 C1281 1.374 . S
C1281 H1261 0.950 . S
C1281 C1277 1.385 . S
C1281 C1280 1.374 . S
C1282 C1279 1.499 . S
C1282 C1283 1.373 . S
C1282 C1284 1.389 . S
C1283 H1262 0.950 . S
C1283 C1282 1.373 . S
C1283 C1299 1.377 . S
C1284 C1282 1.389 . S
C1284 C1285 1.524 . S
C1284 C1298 1.377 . S
C1285 C1284 1.524 . S
C1285 C1286 1.397 . S
C1285 C1290 1.363 . S
C1286 H1263 0.950 . S
C1286 C1285 1.397 . S
C1286 C1287 1.334 . S
C1287 H1264 0.950 . S
C1287 C1286 1.334 . S
C1287 C1288 1.287 . S
C1288 C1287 1.287 . S
C1288 C1289 1.524 . S
C1288 H1307 0.913 . S
C1289 H1265 0.950 . S
C1289 C1288 1.524 . S
C1289 C1290 1.415 . S
C1290 H1266 0.950 . S
C1290 C1285 1.363 . S
C1290 C1289 1.415 . S
C1291 H1267 0.951 . S
C1291 C1292 1.366 . S
C1291 C1293 1.388 . S
C1292 C1291 1.366 . S
C1292 C1296 1.385 . S
C1293 H1268 0.951 . S
C1293 C1291 1.388 . S
C1293 C1294 1.366 . S
C1294 C1293 1.366 . S
C1294 C1295 1.414 . S
C1294 C1297 1.499 . S
C1295 H1269 0.950 . S
C1295 C1294 1.414 . S
C1295 C1296 1.374 . S
C1296 H1270 0.950 . S
C1296 C1292 1.385 . S
C1296 C1295 1.374 . S
C1297 C1294 1.499 . S
C1297 C1298 1.373 . S
C1297 C1299 1.389 . S
C1298 H1271 0.950 . S
C1298 C1284 1.377 . S
C1298 C1297 1.373 . S
C1299 C1283 1.377 . S
C1299 C1297 1.389 . S
C1299 C1300 1.524 . S
C1300 C1299 1.524 . S
C1300 C1301 1.397 . S
C1300 C1305 1.363 . S
C1301 H1272 0.950 . S
C1301 C1300 1.397 . S
C1301 C1302 1.334 . S
C1302 H1273 0.950 . S
C1302 C1301 1.334 . S
C1302 C1303 1.287 . S
C1303 C1302 1.287 . S
C1303 C1304 1.524 . S
C1303 H1306 0.999 1_545 S
C1304 H1274 0.950 . S
C1304 C1303 1.524 . S
C1304 C1305 1.415 . S
C1305 H1275 0.950 . S
C1305 C1300 1.363 . S
C1305 C1304 1.415 . S
H1306 C1303 0.999 1_565 S
H1307 C1288 0.913 . S
H1308 C1326 0.951 . S
H1309 C1328 0.951 . S
H1310 C1330 0.950 . S
H1311 C1331 0.950 . S
H1312 C1333 0.950 . S
H1313 C1336 0.950 . S
H1314 C1337 0.950 . S
H1315 C1339 0.950 . S
H1316 C1340 0.950 . S
H1317 C1341 0.951 . S
H1318 C1343 0.951 . S
H1319 C1345 0.950 . S
H1320 C1346 0.950 . S
H1321 C1348 0.950 . S
H1322 C1351 0.950 . S
H1323 C1352 0.950 . S
H1324 C1354 0.950 . S
H1325 C1355 0.950 . S
C1326 H1308 0.951 . S
C1326 C1327 1.366 . S
C1326 C1328 1.388 . S
C1327 C1326 1.366 . S
C1327 C1331 1.385 . S
C1328 H1309 0.951 . S
C1328 C1326 1.388 . S
C1328 C1329 1.366 . S
C1329 C1328 1.366 . S
C1329 C1330 1.414 . S
C1329 C1332 1.499 . S
C1330 H1310 0.950 . S
C1330 C1329 1.414 . S
C1330 C1331 1.374 . S
C1331 H1311 0.950 . S
C1331 C1327 1.385 . S
C1331 C1330 1.374 . S
C1332 C1329 1.499 . S
C1332 C1333 1.373 . S
C1332 C1334 1.389 . S
C1333 H1312 0.950 . S
C1333 C1332 1.373 . S
C1333 C1349 1.377 . S
C1334 C1332 1.389 . S
C1334 C1335 1.524 . S
C1334 C1348 1.377 . S
C1335 C1334 1.524 . S
C1335 C1336 1.397 . S
C1335 C1340 1.363 . S
C1336 H1313 0.950 . S
C1336 C1335 1.397 . S
C1336 C1337 1.334 . S
C1337 H1314 0.950 . S
C1337 C1336 1.334 . S
C1337 C1338 1.287 . S
C1338 C1337 1.287 . S
C1338 C1339 1.524 . S
C1338 H1357 0.913 . S
C1339 H1315 0.950 . S
C1339 C1338 1.524 . S
C1339 C1340 1.415 . S
C1340 H1316 0.950 . S
C1340 C1335 1.363 . S
C1340 C1339 1.415 . S
C1341 H1317 0.951 . S
C1341 C1342 1.366 . S
C1341 C1343 1.388 . S
C1342 C1341 1.366 . S
C1342 C1346 1.385 . S
C1343 H1318 0.951 . S
C1343 C1341 1.388 . S
C1343 C1344 1.366 . S
C1344 C1343 1.366 . S
C1344 C1345 1.414 . S
C1344 C1347 1.499 . S
C1345 H1319 0.950 . S
C1345 C1344 1.414 . S
C1345 C1346 1.374 . S
C1346 H1320 0.950 . S
C1346 C1342 1.385 . S
C1346 C1345 1.374 . S
C1347 C1344 1.499 . S
C1347 C1348 1.373 . S
C1347 C1349 1.389 . S
C1348 H1321 0.950 . S
C1348 C1334 1.377 . S
C1348 C1347 1.373 . S
C1349 C1333 1.377 . S
C1349 C1347 1.389 . S
C1349 C1350 1.524 . S
C1350 C1349 1.524 . S
C1350 C1351 1.397 . S
C1350 C1355 1.363 . S
C1351 H1322 0.950 . S
C1351 C1350 1.397 . S
C1351 C1352 1.334 . S
C1352 H1323 0.950 . S
C1352 C1351 1.334 . S
C1352 C1353 1.287 . S
C1353 C1352 1.287 . S
C1353 C1354 1.524 . S
C1353 H1356 0.999 . S
C1354 H1324 0.950 . S
C1354 C1353 1.524 . S
C1354 C1355 1.415 . S
C1355 H1325 0.950 . S
C1355 C1350 1.363 . S
C1355 C1354 1.415 . S
H1356 C1353 0.999 . S
H1357 C1338 0.913 . S
H1358 C1376 0.951 . S
H1359 C1378 0.951 . S
H1360 C1380 0.950 . S
H1361 C1381 0.950 . S
H1362 C1383 0.950 . S
H1363 C1386 0.950 . S
H1364 C1387 0.950 . S
H1365 C1389 0.950 . S
H1366 C1390 0.950 . S
H1367 C1391 0.951 . S
H1368 C1393 0.951 . S
H1369 C1395 0.950 . S
H1370 C1396 0.950 . S
H1371 C1398 0.950 . S
H1372 C1401 0.950 . S
H1373 C1402 0.950 . S
H1374 C1404 0.950 . S
H1375 C1405 0.950 . S
C1376 H1358 0.951 . S
C1376 C1377 1.366 . S
C1376 C1378 1.388 . S
C1377 C1376 1.366 . S
C1377 C1381 1.385 . S
C1378 H1359 0.951 . S
C1378 C1376 1.388 . S
C1378 C1379 1.366 . S
C1379 C1378 1.366 . S
C1379 C1380 1.414 . S
C1379 C1382 1.499 . S
C1380 H1360 0.950 . S
C1380 C1379 1.414 . S
C1380 C1381 1.374 . S
C1381 H1361 0.950 . S
C1381 C1377 1.385 . S
C1381 C1380 1.374 . S
C1382 C1379 1.499 . S
C1382 C1383 1.373 . S
C1382 C1384 1.389 . S
C1383 H1362 0.950 . S
C1383 C1382 1.373 . S
C1383 C1399 1.377 . S
C1384 C1382 1.389 . S
C1384 C1385 1.524 . S
C1384 C1398 1.377 . S
C1385 C1384 1.524 . S
C1385 C1386 1.397 . S
C1385 C1390 1.363 . S
C1386 H1363 0.950 . S
C1386 C1385 1.397 . S
C1386 C1387 1.334 . S
C1387 H1364 0.950 . S
C1387 C1386 1.334 . S
C1387 C1388 1.287 . S
C1388 C1387 1.287 . S
C1388 C1389 1.524 . S
C1388 H1407 0.913 . S
C1389 H1365 0.950 . S
C1389 C1388 1.524 . S
C1389 C1390 1.415 . S
C1390 H1366 0.950 . S
C1390 C1385 1.363 . S
C1390 C1389 1.415 . S
C1391 H1367 0.951 . S
C1391 C1392 1.366 . S
C1391 C1393 1.388 . S
C1392 C1391 1.366 . S
C1392 C1396 1.385 . S
C1393 H1368 0.951 . S
C1393 C1391 1.388 . S
C1393 C1394 1.366 . S
C1394 C1393 1.366 . S
C1394 C1395 1.414 . S
C1394 C1397 1.499 . S
C1395 H1369 0.950 . S
C1395 C1394 1.414 . S
C1395 C1396 1.374 . S
C1396 H1370 0.950 . S
C1396 C1392 1.385 . S
C1396 C1395 1.374 . S
C1397 C1394 1.499 . S
C1397 C1398 1.373 . S
C1397 C1399 1.389 . S
C1398 H1371 0.950 . S
C1398 C1384 1.377 . S
C1398 C1397 1.373 . S
C1399 C1383 1.377 . S
C1399 C1397 1.389 . S
C1399 C1400 1.524 . S
C1400 C1399 1.524 . S
C1400 C1401 1.397 . S
C1400 C1405 1.363 . S
C1401 H1372 0.950 . S
C1401 C1400 1.397 . S
C1401 C1402 1.334 . S
C1402 H1373 0.950 . S
C1402 C1401 1.334 . S
C1402 C1403 1.287 . S
C1403 C1402 1.287 . S
C1403 C1404 1.524 . S
C1403 H1406 0.999 . S
C1404 H1374 0.950 . S
C1404 C1403 1.524 . S
C1404 C1405 1.415 . S
C1405 H1375 0.950 . S
C1405 C1400 1.363 . S
C1405 C1404 1.415 . S
H1406 C1403 0.999 . S
H1407 C1388 0.913 . S
H1408 C1426 0.951 . S
H1409 C1428 0.951 . S
H1410 C1430 0.950 . S
H1411 C1431 0.950 . S
H1412 C1433 0.950 . S
H1413 C1436 0.950 . S
H1414 C1437 0.950 . S
H1415 C1439 0.950 . S
H1416 C1440 0.950 . S
H1417 C1441 0.951 . S
H1418 C1443 0.951 . S
H1419 C1445 0.950 . S
H1420 C1446 0.950 . S
H1421 C1448 0.950 . S
H1422 C1451 0.950 . S
H1423 C1452 0.950 . S
H1424 C1454 0.950 . S
H1425 C1455 0.950 . S
C1426 H1408 0.951 . S
C1426 C1427 1.366 . S
C1426 C1428 1.388 . S
C1427 C1426 1.366 . S
C1427 C1431 1.385 . S
C1428 H1409 0.951 . S
C1428 C1426 1.388 . S
C1428 C1429 1.366 . S
C1429 C1428 1.366 . S
C1429 C1430 1.414 . S
C1429 C1432 1.499 . S
C1430 H1410 0.950 . S
C1430 C1429 1.414 . S
C1430 C1431 1.374 . S
C1431 H1411 0.950 . S
C1431 C1427 1.385 . S
C1431 C1430 1.374 . S
C1432 C1429 1.499 . S
C1432 C1433 1.373 . S
C1432 C1434 1.389 . S
C1433 H1412 0.950 . S
C1433 C1432 1.373 . S
C1433 C1449 1.377 . S
C1434 C1432 1.389 . S
C1434 C1435 1.524 . S
C1434 C1448 1.377 . S
C1435 C1434 1.524 . S
C1435 C1436 1.397 . S
C1435 C1440 1.363 . S
C1436 H1413 0.950 . S
C1436 C1435 1.397 . S
C1436 C1437 1.334 . S
C1437 H1414 0.950 . S
C1437 C1436 1.334 . S
C1437 C1438 1.287 . S
C1438 C1437 1.287 . S
C1438 C1439 1.524 . S
C1438 H1457 0.913 . S
C1439 H1415 0.950 . S
C1439 C1438 1.524 . S
C1439 C1440 1.415 . S
C1440 H1416 0.950 . S
C1440 C1435 1.363 . S
C1440 C1439 1.415 . S
C1441 H1417 0.951 . S
C1441 C1442 1.366 . S
C1441 C1443 1.388 . S
C1442 C1441 1.366 . S
C1442 C1446 1.385 . S
C1443 H1418 0.951 . S
C1443 C1441 1.388 . S
C1443 C1444 1.366 . S
C1444 C1443 1.366 . S
C1444 C1445 1.414 . S
C1444 C1447 1.499 . S
C1445 H1419 0.950 . S
C1445 C1444 1.414 . S
C1445 C1446 1.374 . S
C1446 H1420 0.950 . S
C1446 C1442 1.385 . S
C1446 C1445 1.374 . S
C1447 C1444 1.499 . S
C1447 C1448 1.373 . S
C1447 C1449 1.389 . S
C1448 H1421 0.950 . S
C1448 C1434 1.377 . S
C1448 C1447 1.373 . S
C1449 C1433 1.377 . S
C1449 C1447 1.389 . S
C1449 C1450 1.524 . S
C1450 C1449 1.524 . S
C1450 C1451 1.397 . S
C1450 C1455 1.363 . S
C1451 H1422 0.950 . S
C1451 C1450 1.397 . S
C1451 C1452 1.334 . S
C1452 H1423 0.950 . S
C1452 C1451 1.334 . S
C1452 C1453 1.287 . S
C1453 C1452 1.287 . S
C1453 C1454 1.524 . S
C1453 H1456 0.999 . S
C1454 H1424 0.950 . S
C1454 C1453 1.524 . S
C1454 C1455 1.415 . S
C1455 H1425 0.950 . S
C1455 C1450 1.363 . S
C1455 C1454 1.415 . S
H1456 C1453 0.999 . S
H1457 C1438 0.913 . S
H1458 C1476 0.951 . S
H1459 C1478 0.951 . S
H1460 C1480 0.950 . S
H1461 C1481 0.950 . S
H1462 C1483 0.950 . S
H1463 C1486 0.950 . S
H1464 C1487 0.950 . S
H1465 C1489 0.950 . S
H1466 C1490 0.950 . S
H1467 C1491 0.951 . S
H1468 C1493 0.951 . S
H1469 C1495 0.950 . S
H1470 C1496 0.950 . S
H1471 C1498 0.950 . S
H1472 C1501 0.950 . S
H1473 C1502 0.950 . S
H1474 C1504 0.950 . S
H1475 C1505 0.950 . S
C1476 H1458 0.951 . S
C1476 C1477 1.366 . S
C1476 C1478 1.388 . S
C1477 C1476 1.366 . S
C1477 C1481 1.385 . S
C1478 H1459 0.951 . S
C1478 C1476 1.388 . S
C1478 C1479 1.366 . S
C1479 C1478 1.366 . S
C1479 C1480 1.414 . S
C1479 C1482 1.499 . S
C1480 H1460 0.950 . S
C1480 C1479 1.414 . S
C1480 C1481 1.374 . S
C1481 H1461 0.950 . S
C1481 C1477 1.385 . S
C1481 C1480 1.374 . S
C1482 C1479 1.499 . S
C1482 C1483 1.373 . S
C1482 C1484 1.389 . S
C1483 H1462 0.950 . S
C1483 C1482 1.373 . S
C1483 C1499 1.377 . S
C1484 C1482 1.389 . S
C1484 C1485 1.524 . S
C1484 C1498 1.377 . S
C1485 C1484 1.524 . S
C1485 C1486 1.397 . S
C1485 C1490 1.363 . S
C1486 H1463 0.950 . S
C1486 C1485 1.397 . S
C1486 C1487 1.334 . S
C1487 H1464 0.950 . S
C1487 C1486 1.334 . S
C1487 C1488 1.287 . S
C1488 C1487 1.287 . S
C1488 C1489 1.524 . S
C1488 H1507 0.913 . S
C1489 H1465 0.950 . S
C1489 C1488 1.524 . S
C1489 C1490 1.415 . S
C1490 H1466 0.950 . S
C1490 C1485 1.363 . S
C1490 C1489 1.415 . S
C1491 H1467 0.951 . S
C1491 C1492 1.366 . S
C1491 C1493 1.388 . S
C1492 C1491 1.366 . S
C1492 C1496 1.385 . S
C1493 H1468 0.951 . S
C1493 C1491 1.388 . S
C1493 C1494 1.366 . S
C1494 C1493 1.366 . S
C1494 C1495 1.414 . S
C1494 C1497 1.499 . S
C1495 H1469 0.950 . S
C1495 C1494 1.414 . S
C1495 C1496 1.374 . S
C1496 H1470 0.950 . S
C1496 C1492 1.385 . S
C1496 C1495 1.374 . S
C1497 C1494 1.499 . S
C1497 C1498 1.373 . S
C1497 C1499 1.389 . S
C1498 H1471 0.950 . S
C1498 C1484 1.377 . S
C1498 C1497 1.373 . S
C1499 C1483 1.377 . S
C1499 C1497 1.389 . S
C1499 C1500 1.524 . S
C1500 C1499 1.524 . S
C1500 C1501 1.397 . S
C1500 C1505 1.363 . S
C1501 H1472 0.950 . S
C1501 C1500 1.397 . S
C1501 C1502 1.334 . S
C1502 H1473 0.950 . S
C1502 C1501 1.334 . S
C1502 C1503 1.287 . S
C1503 C1502 1.287 . S
C1503 C1504 1.524 . S
C1503 H1506 0.999 1_565 S
C1504 H1474 0.950 . S
C1504 C1503 1.524 . S
C1504 C1505 1.415 . S
C1505 H1475 0.950 . S
C1505 C1500 1.363 . S
C1505 C1504 1.415 . S
H1506 C1503 0.999 1_545 S
H1507 C1488 0.913 . S
H1508 C1526 0.951 . S
H1509 C1528 0.951 . S
H1510 C1530 0.950 . S
H1511 C1531 0.950 . S
H1512 C1533 0.950 . S
H1513 C1536 0.950 . S
H1514 C1537 0.950 . S
H1515 C1539 0.950 . S
H1516 C1540 0.950 . S
H1517 C1541 0.951 . S
H1518 C1543 0.951 . S
H1519 C1545 0.950 . S
H1520 C1546 0.950 . S
H1521 C1548 0.950 . S
H1522 C1551 0.950 . S
H1523 C1552 0.950 . S
H1524 C1554 0.950 . S
H1525 C1555 0.950 . S
C1526 H1508 0.951 . S
C1526 C1527 1.366 . S
C1526 C1528 1.388 . S
C1527 C1526 1.366 . S
C1527 C1531 1.385 . S
C1528 H1509 0.951 . S
C1528 C1526 1.388 . S
C1528 C1529 1.366 . S
C1529 C1528 1.366 . S
C1529 C1530 1.414 . S
C1529 C1532 1.499 . S
C1530 H1510 0.950 . S
C1530 C1529 1.414 . S
C1530 C1531 1.374 . S
C1531 H1511 0.950 . S
C1531 C1527 1.385 . S
C1531 C1530 1.374 . S
C1532 C1529 1.499 . S
C1532 C1533 1.373 . S
C1532 C1534 1.389 . S
C1533 H1512 0.950 . S
C1533 C1532 1.373 . S
C1533 C1549 1.377 . S
C1534 C1532 1.389 . S
C1534 C1535 1.524 . S
C1534 C1548 1.377 . S
C1535 C1534 1.524 . S
C1535 C1536 1.397 . S
C1535 C1540 1.363 . S
C1536 H1513 0.950 . S
C1536 C1535 1.397 . S
C1536 C1537 1.334 . S
C1537 H1514 0.950 . S
C1537 C1536 1.334 . S
C1537 C1538 1.287 . S
C1538 C1537 1.287 . S
C1538 C1539 1.524 . S
C1538 H1557 0.913 . S
C1539 H1515 0.950 . S
C1539 C1538 1.524 . S
C1539 C1540 1.415 . S
C1540 H1516 0.950 . S
C1540 C1535 1.363 . S
C1540 C1539 1.415 . S
C1541 H1517 0.951 . S
C1541 C1542 1.366 . S
C1541 C1543 1.388 . S
C1542 C1541 1.366 . S
C1542 C1546 1.385 . S
C1543 H1518 0.951 . S
C1543 C1541 1.388 . S
C1543 C1544 1.366 . S
C1544 C1543 1.366 . S
C1544 C1545 1.414 . S
C1544 C1547 1.499 . S
C1545 H1519 0.950 . S
C1545 C1544 1.414 . S
C1545 C1546 1.374 . S
C1546 H1520 0.950 . S
C1546 C1542 1.385 . S
C1546 C1545 1.374 . S
C1547 C1544 1.499 . S
C1547 C1548 1.373 . S
C1547 C1549 1.389 . S
C1548 H1521 0.950 . S
C1548 C1534 1.377 . S
C1548 C1547 1.373 . S
C1549 C1533 1.377 . S
C1549 C1547 1.389 . S
C1549 C1550 1.524 . S
C1550 C1549 1.524 . S
C1550 C1551 1.397 . S
C1550 C1555 1.363 . S
C1551 H1522 0.950 . S
C1551 C1550 1.397 . S
C1551 C1552 1.334 . S
C1552 H1523 0.950 . S
C1552 C1551 1.334 . S
C1552 C1553 1.287 . S
C1553 C1552 1.287 . S
C1553 C1554 1.524 . S
C1553 H1556 0.999 . S
C1554 H1524 0.950 . S
C1554 C1553 1.524 . S
C1554 C1555 1.415 . S
C1555 H1525 0.950 . S
C1555 C1550 1.363 . S
C1555 C1554 1.415 . S
H1556 C1553 0.999 . S
H1557 C1538 0.913 . S
H1558 C1576 0.951 . S
H1559 C1578 0.951 . S
H1560 C1580 0.950 . S
H1561 C1581 0.950 . S
H1562 C1583 0.950 . S
H1563 C1586 0.950 . S
H1564 C1587 0.950 . S
H1565 C1589 0.950 . S
H1566 C1590 0.950 . S
H1567 C1591 0.951 . S
H1568 C1593 0.951 . S
H1569 C1595 0.950 . S
H1570 C1596 0.950 . S
H1571 C1598 0.950 . S
H1572 C1601 0.950 . S
H1573 C1602 0.950 . S
H1574 C1604 0.950 . S
H1575 C1605 0.950 . S
C1576 H1558 0.951 . S
C1576 C1577 1.366 . S
C1576 C1578 1.388 . S
C1577 C1576 1.366 . S
C1577 C1581 1.385 . S
C1578 H1559 0.951 . S
C1578 C1576 1.388 . S
C1578 C1579 1.366 . S
C1579 C1578 1.366 . S
C1579 C1580 1.414 . S
C1579 C1582 1.499 . S
C1580 H1560 0.950 . S
C1580 C1579 1.414 . S
C1580 C1581 1.374 . S
C1581 H1561 0.950 . S
C1581 C1577 1.385 . S
C1581 C1580 1.374 . S
C1582 C1579 1.499 . S
C1582 C1583 1.373 . S
C1582 C1584 1.389 . S
C1583 H1562 0.950 . S
C1583 C1582 1.373 . S
C1583 C1599 1.377 . S
C1584 C1582 1.389 . S
C1584 C1585 1.524 . S
C1584 C1598 1.377 . S
C1585 C1584 1.524 . S
C1585 C1586 1.397 . S
C1585 C1590 1.363 . S
C1586 H1563 0.950 . S
C1586 C1585 1.397 . S
C1586 C1587 1.334 . S
C1587 H1564 0.950 . S
C1587 C1586 1.334 . S
C1587 C1588 1.287 . S
C1588 C1587 1.287 . S
C1588 C1589 1.524 . S
C1588 H1607 0.913 . S
C1589 H1565 0.950 . S
C1589 C1588 1.524 . S
C1589 C1590 1.415 . S
C1590 H1566 0.950 . S
C1590 C1585 1.363 . S
C1590 C1589 1.415 . S
C1591 H1567 0.951 . S
C1591 C1592 1.366 . S
C1591 C1593 1.388 . S
C1592 C1591 1.366 . S
C1592 C1596 1.385 . S
C1593 H1568 0.951 . S
C1593 C1591 1.388 . S
C1593 C1594 1.366 . S
C1594 C1593 1.366 . S
C1594 C1595 1.414 . S
C1594 C1597 1.499 . S
C1595 H1569 0.950 . S
C1595 C1594 1.414 . S
C1595 C1596 1.374 . S
C1596 H1570 0.950 . S
C1596 C1592 1.385 . S
C1596 C1595 1.374 . S
C1597 C1594 1.499 . S
C1597 C1598 1.373 . S
C1597 C1599 1.389 . S
C1598 H1571 0.950 . S
C1598 C1584 1.377 . S
C1598 C1597 1.373 . S
C1599 C1583 1.377 . S
C1599 C1597 1.389 . S
C1599 C1600 1.524 . S
C1600 C1599 1.524 . S
C1600 C1601 1.397 . S
C1600 C1605 1.363 . S
C1601 H1572 0.950 . S
C1601 C1600 1.397 . S
C1601 C1602 1.334 . S
C1602 H1573 0.950 . S
C1602 C1601 1.334 . S
C1602 C1603 1.287 . S
C1603 C1602 1.287 . S
C1603 C1604 1.524 . S
C1603 H1606 0.999 . S
C1604 H1574 0.950 . S
C1604 C1603 1.524 . S
C1604 C1605 1.415 . S
C1605 H1575 0.950 . S
C1605 C1600 1.363 . S
C1605 C1604 1.415 . S
H1606 C1603 0.999 . S
H1607 C1588 0.913 . S
H1608 C1626 0.951 . S
H1609 C1628 0.951 . S
H1610 C1630 0.950 . S
H1611 C1631 0.950 . S
H1612 C1633 0.950 . S
H1613 C1636 0.950 . S
H1614 C1637 0.950 . S
H1615 C1639 0.950 . S
H1616 C1640 0.950 . S
H1617 C1641 0.951 . S
H1618 C1643 0.951 . S
H1619 C1645 0.950 . S
H1620 C1646 0.950 . S
H1621 C1648 0.950 . S
H1622 C1651 0.950 . S
H1623 C1652 0.950 . S
H1624 C1654 0.950 . S
H1625 C1655 0.950 . S
C1626 H1608 0.951 . S
C1626 C1627 1.366 . S
C1626 C1628 1.388 . S
C1627 C1626 1.366 . S
C1627 C1631 1.385 . S
C1628 H1609 0.951 . S
C1628 C1626 1.388 . S
C1628 C1629 1.366 . S
C1629 C1628 1.366 . S
C1629 C1630 1.414 . S
C1629 C1632 1.499 . S
C1630 H1610 0.950 . S
C1630 C1629 1.414 . S
C1630 C1631 1.374 . S
C1631 H1611 0.950 . S
C1631 C1627 1.385 . S
C1631 C1630 1.374 . S
C1632 C1629 1.499 . S
C1632 C1633 1.373 . S
C1632 C1634 1.389 . S
C1633 H1612 0.950 . S
C1633 C1632 1.373 . S
C1633 C1649 1.377 . S
C1634 C1632 1.389 . S
C1634 C1635 1.524 . S
C1634 C1648 1.377 . S
C1635 C1634 1.524 . S
C1635 C1636 1.397 . S
C1635 C1640 1.363 . S
C1636 H1613 0.950 . S
C1636 C1635 1.397 . S
C1636 C1637 1.334 . S
C1637 H1614 0.950 . S
C1637 C1636 1.334 . S
C1637 C1638 1.287 . S
C1638 C1637 1.287 . S
C1638 C1639 1.524 . S
C1638 H1657 0.913 . S
C1639 H1615 0.950 . S
C1639 C1638 1.524 . S
C1639 C1640 1.415 . S
C1640 H1616 0.950 . S
C1640 C1635 1.363 . S
C1640 C1639 1.415 . S
C1641 H1617 0.951 . S
C1641 C1642 1.366 . S
C1641 C1643 1.388 . S
C1642 C1641 1.366 . S
C1642 C1646 1.385 . S
C1643 H1618 0.951 . S
C1643 C1641 1.388 . S
C1643 C1644 1.366 . S
C1644 C1643 1.366 . S
C1644 C1645 1.414 . S
C1644 C1647 1.499 . S
C1645 H1619 0.950 . S
C1645 C1644 1.414 . S
C1645 C1646 1.374 . S
C1646 H1620 0.950 . S
C1646 C1642 1.385 . S
C1646 C1645 1.374 . S
C1647 C1644 1.499 . S
C1647 C1648 1.373 . S
C1647 C1649 1.389 . S
C1648 H1621 0.950 . S
C1648 C1634 1.377 . S
C1648 C1647 1.373 . S
C1649 C1633 1.377 . S
C1649 C1647 1.389 . S
C1649 C1650 1.524 . S
C1650 C1649 1.524 . S
C1650 C1651 1.397 . S
C1650 C1655 1.363 . S
C1651 H1622 0.950 . S
C1651 C1650 1.397 . S
C1651 C1652 1.334 . S
C1652 H1623 0.950 . S
C1652 C1651 1.334 . S
C1652 C1653 1.287 . S
C1653 C1652 1.287 . S
C1653 C1654 1.524 . S
C1653 H1656 0.999 . S
C1654 H1624 0.950 . S
C1654 C1653 1.524 . S
C1654 C1655 1.415 . S
C1655 H1625 0.950 . S
C1655 C1650 1.363 . S
C1655 C1654 1.415 . S
H1656 C1653 0.999 . S
H1657 C1638 0.913 . S
H1658 C1676 0.951 . S
H1659 C1678 0.951 . S
H1660 C1680 0.950 . S
H1661 C1681 0.950 . S
H1662 C1683 0.950 . S
H1663 C1686 0.950 . S
H1664 C1687 0.950 . S
H1665 C1689 0.950 . S
H1666 C1690 0.950 . S
H1667 C1691 0.951 . S
H1668 C1693 0.951 . S
H1669 C1695 0.950 . S
H1670 C1696 0.950 . S
H1671 C1698 0.950 . S
H1672 C1701 0.950 . S
H1673 C1702 0.950 . S
H1674 C1704 0.950 . S
H1675 C1705 0.950 . S
C1676 H1658 0.951 . S
C1676 C1677 1.366 . S
C1676 C1678 1.388 . S
C1677 C1676 1.366 . S
C1677 C1681 1.385 . S
C1678 H1659 0.951 . S
C1678 C1676 1.388 . S
C1678 C1679 1.366 . S
C1679 C1678 1.366 . S
C1679 C1680 1.414 . S
C1679 C1682 1.499 . S
C1680 H1660 0.950 . S
C1680 C1679 1.414 . S
C1680 C1681 1.374 . S
C1681 H1661 0.950 . S
C1681 C1677 1.385 . S
C1681 C1680 1.374 . S
C1682 C1679 1.499 . S
C1682 C1683 1.373 . S
C1682 C1684 1.389 . S
C1683 H1662 0.950 . S
C1683 C1682 1.373 . S
C1683 C1699 1.377 . S
C1684 C1682 1.389 . S
C1684 C1685 1.524 . S
C1684 C1698 1.377 . S
C1685 C1684 1.524 . S
C1685 C1686 1.397 . S
C1685 C1690 1.363 . S
C1686 H1663 0.950 . S
C1686 C1685 1.397 . S
C1686 C1687 1.334 . S
C1687 H1664 0.950 . S
C1687 C1686 1.334 . S
C1687 C1688 1.287 . S
C1688 C1687 1.287 . S
C1688 C1689 1.524 . S
C1688 H1707 0.913 . S
C1689 H1665 0.950 . S
C1689 C1688 1.524 . S
C1689 C1690 1.415 . S
C1690 H1666 0.950 . S
C1690 C1685 1.363 . S
C1690 C1689 1.415 . S
C1691 H1667 0.951 . S
C1691 C1692 1.366 . S
C1691 C1693 1.388 . S
C1692 C1691 1.366 . S
C1692 C1696 1.385 . S
C1693 H1668 0.951 . S
C1693 C1691 1.388 . S
C1693 C1694 1.366 . S
C1694 C1693 1.366 . S
C1694 C1695 1.414 . S
C1694 C1697 1.499 . S
C1695 H1669 0.950 . S
C1695 C1694 1.414 . S
C1695 C1696 1.374 . S
C1696 H1670 0.950 . S
C1696 C1692 1.385 . S
C1696 C1695 1.374 . S
C1697 C1694 1.499 . S
C1697 C1698 1.373 . S
C1697 C1699 1.389 . S
C1698 H1671 0.950 . S
C1698 C1684 1.377 . S
C1698 C1697 1.373 . S
C1699 C1683 1.377 . S
C1699 C1697 1.389 . S
C1699 C1700 1.524 . S
C1700 C1699 1.524 . S
C1700 C1701 1.397 . S
C1700 C1705 1.363 . S
C1701 H1672 0.950 . S
C1701 C1700 1.397 . S
C1701 C1702 1.334 . S
C1702 H1673 0.950 . S
C1702 C1701 1.334 . S
C1702 C1703 1.287 . S
C1703 C1702 1.287 . S
C1703 C1704 1.524 . S
C1703 H1706 0.999 . S
C1704 H1674 0.950 . S
C1704 C1703 1.524 . S
C1704 C1705 1.415 . S
C1705 H1675 0.950 . S
C1705 C1700 1.363 . S
C1705 C1704 1.415 . S
H1706 C1703 0.999 . S
H1707 C1688 0.913 . S
H1708 C1726 0.951 . S
H1709 C1728 0.951 . S
H1710 C1730 0.950 . S
H1711 C1731 0.950 . S
H1712 C1733 0.950 . S
H1713 C1736 0.950 . S
H1714 C1737 0.950 . S
H1715 C1739 0.950 . S
H1716 C1740 0.950 . S
H1717 C1741 0.951 . S
H1718 C1743 0.951 . S
H1719 C1745 0.950 . S
H1720 C1746 0.950 . S
H1721 C1748 0.950 . S
H1722 C1751 0.950 . S
H1723 C1752 0.950 . S
H1724 C1754 0.950 . S
H1725 C1755 0.950 . S
C1726 H1708 0.951 . S
C1726 C1727 1.366 . S
C1726 C1728 1.388 . S
C1727 C1726 1.366 . S
C1727 C1731 1.385 . S
C1728 H1709 0.951 . S
C1728 C1726 1.388 . S
C1728 C1729 1.366 . S
C1729 C1728 1.366 . S
C1729 C1730 1.414 . S
C1729 C1732 1.499 . S
C1730 H1710 0.950 . S
C1730 C1729 1.414 . S
C1730 C1731 1.374 . S
C1731 H1711 0.950 . S
C1731 C1727 1.385 . S
C1731 C1730 1.374 . S
C1732 C1729 1.499 . S
C1732 C1733 1.373 . S
C1732 C1734 1.389 . S
C1733 H1712 0.950 . S
C1733 C1732 1.373 . S
C1733 C1749 1.377 . S
C1734 C1732 1.389 . S
C1734 C1735 1.524 . S
C1734 C1748 1.377 . S
C1735 C1734 1.524 . S
C1735 C1736 1.397 . S
C1735 C1740 1.363 . S
C1736 H1713 0.950 . S
C1736 C1735 1.397 . S
C1736 C1737 1.334 . S
C1737 H1714 0.950 . S
C1737 C1736 1.334 . S
C1737 C1738 1.287 . S
C1738 C1737 1.287 . S
C1738 C1739 1.524 . S
C1738 H1757 0.913 . S
C1739 H1715 0.950 . S
C1739 C1738 1.524 . S
C1739 C1740 1.415 . S
C1740 H1716 0.950 . S
C1740 C1735 1.363 . S
C1740 C1739 1.415 . S
C1741 H1717 0.951 . S
C1741 C1742 1.366 . S
C1741 C1743 1.388 . S
C1742 C1741 1.366 . S
C1742 C1746 1.385 . S
C1743 H1718 0.951 . S
C1743 C1741 1.388 . S
C1743 C1744 1.366 . S
C1744 C1743 1.366 . S
C1744 C1745 1.414 . S
C1744 C1747 1.499 . S
C1745 H1719 0.950 . S
C1745 C1744 1.414 . S
C1745 C1746 1.374 . S
C1746 H1720 0.950 . S
C1746 C1742 1.385 . S
C1746 C1745 1.374 . S
C1747 C1744 1.499 . S
C1747 C1748 1.373 . S
C1747 C1749 1.389 . S
C1748 H1721 0.950 . S
C1748 C1734 1.377 . S
C1748 C1747 1.373 . S
C1749 C1733 1.377 . S
C1749 C1747 1.389 . S
C1749 C1750 1.524 . S
C1750 C1749 1.524 . S
C1750 C1751 1.397 . S
C1750 C1755 1.363 . S
C1751 H1722 0.950 . S
C1751 C1750 1.397 . S
C1751 C1752 1.334 . S
C1752 H1723 0.950 . S
C1752 C1751 1.334 . S
C1752 C1753 1.287 . S
C1753 C1752 1.287 . S
C1753 C1754 1.524 . S
C1753 H1756 0.999 . S
C1754 H1724 0.950 . S
C1754 C1753 1.524 . S
C1754 C1755 1.415 . S
C1755 H1725 0.950 . S
C1755 C1750 1.363 . S
C1755 C1754 1.415 . S
H1756 C1753 0.999 . S
H1757 C1738 0.913 . S
H1758 C1776 0.951 . S
H1759 C1778 0.951 . S
H1760 C1780 0.950 . S
H1761 C1781 0.950 . S
H1762 C1783 0.950 . S
H1763 C1786 0.950 . S
H1764 C1787 0.950 . S
H1765 C1789 0.950 . S
H1766 C1790 0.950 . S
H1767 C1791 0.951 . S
H1768 C1793 0.951 . S
H1769 C1795 0.950 . S
H1770 C1796 0.950 . S
H1771 C1798 0.950 . S
H1772 C1801 0.950 . S
H1773 C1802 0.950 . S
H1774 C1804 0.950 . S
H1775 C1805 0.950 . S
C1776 H1758 0.951 . S
C1776 C1777 1.366 . S
C1776 C1778 1.388 . S
C1777 C1776 1.366 . S
C1777 C1781 1.385 . S
C1778 H1759 0.951 . S
C1778 C1776 1.388 . S
C1778 C1779 1.366 . S
C1779 C1778 1.366 . S
C1779 C1780 1.414 . S
C1779 C1782 1.499 . S
C1780 H1760 0.950 . S
C1780 C1779 1.414 . S
C1780 C1781 1.374 . S
C1781 H1761 0.950 . S
C1781 C1777 1.385 . S
C1781 C1780 1.374 . S
C1782 C1779 1.499 . S
C1782 C1783 1.373 . S
C1782 C1784 1.389 . S
C1783 H1762 0.950 . S
C1783 C1782 1.373 . S
C1783 C1799 1.377 . S
C1784 C1782 1.389 . S
C1784 C1785 1.524 . S
C1784 C1798 1.377 . S
C1785 C1784 1.524 . S
C1785 C1786 1.397 . S
C1785 C1790 1.363 . S
C1786 H1763 0.950 . S
C1786 C1785 1.397 . S
C1786 C1787 1.334 . S
C1787 H1764 0.950 . S
C1787 C1786 1.334 . S
C1787 C1788 1.287 . S
C1788 C1787 1.287 . S
C1788 C1789 1.524 . S
C1788 H1807 0.913 . S
C1789 H1765 0.950 . S
C1789 C1788 1.524 . S
C1789 C1790 1.415 . S
C1790 H1766 0.950 . S
C1790 C1785 1.363 . S
C1790 C1789 1.415 . S
C1791 H1767 0.951 . S
C1791 C1792 1.366 . S
C1791 C1793 1.388 . S
C1792 C1791 1.366 . S
C1792 C1796 1.385 . S
C1793 H1768 0.951 . S
C1793 C1791 1.388 . S
C1793 C1794 1.366 . S
C1794 C1793 1.366 . S
C1794 C1795 1.414 . S
C1794 C1797 1.499 . S
C1795 H1769 0.950 . S
C1795 C1794 1.414 . S
C1795 C1796 1.374 . S
C1796 H1770 0.950 . S
C1796 C1792 1.385 . S
C1796 C1795 1.374 . S
C1797 C1794 1.499 . S
C1797 C1798 1.373 . S
C1797 C1799 1.389 . S
C1798 H1771 0.950 . S
C1798 C1784 1.377 . S
C1798 C1797 1.373 . S
C1799 C1783 1.377 . S
C1799 C1797 1.389 . S
C1799 C1800 1.524 . S
C1800 C1799 1.524 . S
C1800 C1801 1.397 . S
C1800 C1805 1.363 . S
C1801 H1772 0.950 . S
C1801 C1800 1.397 . S
C1801 C1802 1.334 . S
C1802 H1773 0.950 . S
C1802 C1801 1.334 . S
C1802 C1803 1.287 . S
C1803 C1802 1.287 . S
C1803 C1804 1.524 . S
C1803 H1806 0.999 . S
C1804 H1774 0.950 . S
C1804 C1803 1.524 . S
C1804 C1805 1.415 . S
C1805 H1775 0.950 . S
C1805 C1800 1.363 . S
C1805 C1804 1.415 . S
H1806 C1803 0.999 . S
H1807 C1788 0.913 . S
H1808 C1826 0.951 . S
H1809 C1828 0.951 . S
H1810 C1830 0.950 . S
H1811 C1831 0.950 . S
H1812 C1833 0.950 . S
H1813 C1836 0.950 . S
H1814 C1837 0.950 . S
H1815 C1839 0.950 . S
H1816 C1840 0.950 . S
H1817 C1841 0.951 . S
H1818 C1843 0.951 . S
H1819 C1845 0.950 . S
H1820 C1846 0.950 . S
H1821 C1848 0.950 . S
H1822 C1851 0.950 . S
H1823 C1852 0.950 . S
H1824 C1854 0.950 . S
H1825 C1855 0.950 . S
C1826 H1808 0.951 . S
C1826 C1827 1.366 . S
C1826 C1828 1.388 . S
C1827 C1826 1.366 . S
C1827 C1831 1.385 . S
C1828 H1809 0.951 . S
C1828 C1826 1.388 . S
C1828 C1829 1.366 . S
C1829 C1828 1.366 . S
C1829 C1830 1.414 . S
C1829 C1832 1.499 . S
C1830 H1810 0.950 . S
C1830 C1829 1.414 . S
C1830 C1831 1.374 . S
C1831 H1811 0.950 . S
C1831 C1827 1.385 . S
C1831 C1830 1.374 . S
C1832 C1829 1.499 . S
C1832 C1833 1.373 . S
C1832 C1834 1.389 . S
C1833 H1812 0.950 . S
C1833 C1832 1.373 . S
C1833 C1849 1.377 . S
C1834 C1832 1.389 . S
C1834 C1835 1.524 . S
C1834 C1848 1.377 . S
C1835 C1834 1.524 . S
C1835 C1836 1.397 . S
C1835 C1840 1.363 . S
C1836 H1813 0.950 . S
C1836 C1835 1.397 . S
C1836 C1837 1.334 . S
C1837 H1814 0.950 . S
C1837 C1836 1.334 . S
C1837 C1838 1.287 . S
C1838 C1837 1.287 . S
C1838 C1839 1.524 . S
C1838 H1857 0.913 . S
C1839 H1815 0.950 . S
C1839 C1838 1.524 . S
C1839 C1840 1.415 . S
C1840 H1816 0.950 . S
C1840 C1835 1.363 . S
C1840 C1839 1.415 . S
C1841 H1817 0.951 . S
C1841 C1842 1.366 . S
C1841 C1843 1.388 . S
C1842 C1841 1.366 . S
C1842 C1846 1.385 . S
C1843 H1818 0.951 . S
C1843 C1841 1.388 . S
C1843 C1844 1.366 . S
C1844 C1843 1.366 . S
C1844 C1845 1.414 . S
C1844 C1847 1.499 . S
C1845 H1819 0.950 . S
C1845 C1844 1.414 . S
C1845 C1846 1.374 . S
C1846 H1820 0.950 . S
C1846 C1842 1.385 . S
C1846 C1845 1.374 . S
C1847 C1844 1.499 . S
C1847 C1848 1.373 . S
C1847 C1849 1.389 . S
C1848 H1821 0.950 . S
C1848 C1834 1.377 . S
C1848 C1847 1.373 . S
C1849 C1833 1.377 . S
C1849 C1847 1.389 . S
C1849 C1850 1.524 . S
C1850 C1849 1.524 . S
C1850 C1851 1.397 . S
C1850 C1855 1.363 . S
C1851 H1822 0.950 . S
C1851 C1850 1.397 . S
C1851 C1852 1.334 . S
C1852 H1823 0.950 . S
C1852 C1851 1.334 . S
C1852 C1853 1.287 . S
C1853 C1852 1.287 . S
C1853 C1854 1.524 . S
C1853 H1856 0.999 . S
C1854 H1824 0.950 . S
C1854 C1853 1.524 . S
C1854 C1855 1.415 . S
C1855 H1825 0.950 . S
C1855 C1850 1.363 . S
C1855 C1854 1.415 . S
H1856 C1853 0.999 . S
H1857 C1838 0.913 . S
H1858 C1876 0.951 . S
H1859 C1878 0.951 . S
H1860 C1880 0.950 . S
H1861 C1881 0.950 . S
H1862 C1883 0.950 . S
H1863 C1886 0.950 . S
H1864 C1887 0.950 . S
H1865 C1889 0.950 . S
H1866 C1890 0.950 . S
H1867 C1891 0.951 . S
H1868 C1893 0.951 . S
H1869 C1895 0.950 . S
H1870 C1896 0.950 . S
H1871 C1898 0.950 . S
H1872 C1901 0.950 . S
H1873 C1902 0.950 . S
H1874 C1904 0.950 . S
H1875 C1905 0.950 . S
C1876 H1858 0.951 . S
C1876 C1877 1.366 . S
C1876 C1878 1.388 . S
C1877 C1876 1.366 . S
C1877 C1881 1.385 . S
C1878 H1859 0.951 . S
C1878 C1876 1.388 . S
C1878 C1879 1.366 . S
C1879 C1878 1.366 . S
C1879 C1880 1.414 . S
C1879 C1882 1.499 . S
C1880 H1860 0.950 . S
C1880 C1879 1.414 . S
C1880 C1881 1.374 . S
C1881 H1861 0.950 . S
C1881 C1877 1.385 . S
C1881 C1880 1.374 . S
C1882 C1879 1.499 . S
C1882 C1883 1.373 . S
C1882 C1884 1.389 . S
C1883 H1862 0.950 . S
C1883 C1882 1.373 . S
C1883 C1899 1.377 . S
C1884 C1882 1.389 . S
C1884 C1885 1.524 . S
C1884 C1898 1.377 . S
C1885 C1884 1.524 . S
C1885 C1886 1.397 . S
C1885 C1890 1.363 . S
C1886 H1863 0.950 . S
C1886 C1885 1.397 . S
C1886 C1887 1.334 . S
C1887 H1864 0.950 . S
C1887 C1886 1.334 . S
C1887 C1888 1.287 . S
C1888 C1887 1.287 . S
C1888 C1889 1.524 . S
C1888 H1907 0.913 . S
C1889 H1865 0.950 . S
C1889 C1888 1.524 . S
C1889 C1890 1.415 . S
C1890 H1866 0.950 . S
C1890 C1885 1.363 . S
C1890 C1889 1.415 . S
C1891 H1867 0.951 . S
C1891 C1892 1.366 . S
C1891 C1893 1.388 . S
C1892 C1891 1.366 . S
C1892 C1896 1.385 . S
C1893 H1868 0.951 . S
C1893 C1891 1.388 . S
C1893 C1894 1.366 . S
C1894 C1893 1.366 . S
C1894 C1895 1.414 . S
C1894 C1897 1.499 . S
C1895 H1869 0.950 . S
C1895 C1894 1.414 . S
C1895 C1896 1.374 . S
C1896 H1870 0.950 . S
C1896 C1892 1.385 . S
C1896 C1895 1.374 . S
C1897 C1894 1.499 . S
C1897 C1898 1.373 . S
C1897 C1899 1.389 . S
C1898 H1871 0.950 . S
C1898 C1884 1.377 . S
C1898 C1897 1.373 . S
C1899 C1883 1.377 . S
C1899 C1897 1.389 . S
C1899 C1900 1.524 . S
C1900 C1899 1.524 . S
C1900 C1901 1.397 . S
C1900 C1905 1.363 . S
C1901 H1872 0.950 . S
C1901 C1900 1.397 . S
C1901 C1902 1.334 . S
C1902 H1873 0.950 . S
C1902 C1901 1.334 . S
C1902 C1903 1.287 . S
C1903 C1902 1.287 . S
C1903 C1904 1.524 . S
C1903 H1906 0.999 . S
C1904 H1874 0.950 . S
C1904 C1903 1.524 . S
C1904 C1905 1.415 . S
C1905 H1875 0.950 . S
C1905 C1900 1.363 . S
C1905 C1904 1.415 . S
H1906 C1903 0.999 . S
H1907 C1888 0.913 . S
H1908 C1926 0.951 . S
H1909 C1928 0.951 . S
H1910 C1930 0.950 . S
H1911 C1931 0.950 . S
H1912 C1933 0.950 . S
H1913 C1936 0.950 . S
H1914 C1937 0.950 . S
H1915 C1939 0.950 . S
H1916 C1940 0.950 . S
H1917 C1941 0.951 . S
H1918 C1943 0.951 . S
H1919 C1945 0.950 . S
H1920 C1946 0.950 . S
H1921 C1948 0.950 . S
H1922 C1951 0.950 . S
H1923 C1952 0.950 . S
H1924 C1954 0.950 . S
H1925 C1955 0.950 . S
C1926 H1908 0.951 . S
C1926 C1927 1.366 . S
C1926 C1928 1.388 . S
C1927 C1926 1.366 . S
C1927 C1931 1.385 . S
C1928 H1909 0.951 . S
C1928 C1926 1.388 . S
C1928 C1929 1.366 . S
C1929 C1928 1.366 . S
C1929 C1930 1.414 . S
C1929 C1932 1.499 . S
C1930 H1910 0.950 . S
C1930 C1929 1.414 . S
C1930 C1931 1.374 . S
C1931 H1911 0.950 . S
C1931 C1927 1.385 . S
C1931 C1930 1.374 . S
C1932 C1929 1.499 . S
C1932 C1933 1.373 . S
C1932 C1934 1.389 . S
C1933 H1912 0.950 . S
C1933 C1932 1.373 . S
C1933 C1949 1.377 . S
C1934 C1932 1.389 . S
C1934 C1935 1.524 . S
C1934 C1948 1.377 . S
C1935 C1934 1.524 . S
C1935 C1936 1.397 . S
C1935 C1940 1.363 . S
C1936 H1913 0.950 . S
C1936 C1935 1.397 . S
C1936 C1937 1.334 . S
C1937 H1914 0.950 . S
C1937 C1936 1.334 . S
C1937 C1938 1.287 . S
C1938 C1937 1.287 . S
C1938 C1939 1.524 . S
C1938 H1957 0.913 . S
C1939 H1915 0.950 . S
C1939 C1938 1.524 . S
C1939 C1940 1.415 . S
C1940 H1916 0.950 . S
C1940 C1935 1.363 . S
C1940 C1939 1.415 . S
C1941 H1917 0.951 . S
C1941 C1942 1.366 . S
C1941 C1943 1.388 . S
C1942 C1941 1.366 . S
C1942 C1946 1.385 . S
C1943 H1918 0.951 . S
C1943 C1941 1.388 . S
C1943 C1944 1.366 . S
C1944 C1943 1.366 . S
C1944 C1945 1.414 . S
C1944 C1947 1.499 . S
C1945 H1919 0.950 . S
C1945 C1944 1.414 . S
C1945 C1946 1.374 . S
C1946 H1920 0.950 . S
C1946 C1942 1.385 . S
C1946 C1945 1.374 . S
C1947 C1944 1.499 . S
C1947 C1948 1.373 . S
C1947 C1949 1.389 . S
C1948 H1921 0.950 . S
C1948 C1934 1.377 . S
C1948 C1947 1.373 . S
C1949 C1933 1.377 . S
C1949 C1947 1.389 . S
C1949 C1950 1.524 . S
C1950 C1949 1.524 . S
C1950 C1951 1.397 . S
C1950 C1955 1.363 . S
C1951 H1922 0.950 . S
C1951 C1950 1.397 . S
C1951 C1952 1.334 . S
C1952 H1923 0.950 . S
C1952 C1951 1.334 . S
C1952 C1953 1.287 . S
C1953 C1952 1.287 . S
C1953 C1954 1.524 . S
C1953 H1956 0.999 . S
C1954 H1924 0.950 . S
C1954 C1953 1.524 . S
C1954 C1955 1.415 . S
C1955 H1925 0.950 . S
C1955 C1950 1.363 . S
C1955 C1954 1.415 . S
H1956 C1953 0.999 . S
H1957 C1938 0.913 . S
H1958 C1976 0.951 . S
H1959 C1978 0.951 . S
H1960 C1980 0.950 . S
H1961 C1981 0.950 . S
H1962 C1983 0.950 . S
H1963 C1986 0.950 . S
H1964 C1987 0.950 . S
H1965 C1989 0.950 . S
H1966 C1990 0.950 . S
H1967 C1991 0.951 . S
H1968 C1993 0.951 . S
H1969 C1995 0.950 . S
H1970 C1996 0.950 . S
H1971 C1998 0.950 . S
H1972 C2001 0.950 . S
H1973 C2002 0.950 . S
H1974 C2004 0.950 . S
H1975 C2005 0.950 . S
C1976 H1958 0.951 . S
C1976 C1977 1.366 . S
C1976 C1978 1.388 . S
C1977 C1976 1.366 . S
C1977 C1981 1.385 . S
C1978 H1959 0.951 . S
C1978 C1976 1.388 . S
C1978 C1979 1.366 . S
C1979 C1978 1.366 . S
C1979 C1980 1.414 . S
C1979 C1982 1.499 . S
C1980 H1960 0.950 . S
C1980 C1979 1.414 . S
C1980 C1981 1.374 . S
C1981 H1961 0.950 . S
C1981 C1977 1.385 . S
C1981 C1980 1.374 . S
C1982 C1979 1.499 . S
C1982 C1983 1.373 . S
C1982 C1984 1.389 . S
C1983 H1962 0.950 . S
C1983 C1982 1.373 . S
C1983 C1999 1.377 . S
C1984 C1982 1.389 . S
C1984 C1985 1.524 . S
C1984 C1998 1.377 . S
C1985 C1984 1.524 . S
C1985 C1986 1.397 . S
C1985 C1990 1.363 . S
C1986 H1963 0.950 . S
C1986 C1985 1.397 . S
C1986 C1987 1.334 . S
C1987 H1964 0.950 . S
C1987 C1986 1.334 . S
C1987 C1988 1.287 . S
C1988 C1987 1.287 . S
C1988 C1989 1.524 . S
C1988 H2007 0.913 . S
C1989 H1965 0.950 . S
C1989 C1988 1.524 . S
C1989 C1990 1.415 . S
C1990 H1966 0.950 . S
C1990 C1985 1.363 . S
C1990 C1989 1.415 . S
C1991 H1967 0.951 . S
C1991 C1992 1.366 . S
C1991 C1993 1.388 . S
C1992 C1991 1.366 . S
C1992 C1996 1.385 . S
C1993 H1968 0.951 . S
C1993 C1991 1.388 . S
C1993 C1994 1.366 . S
C1994 C1993 1.366 . S
C1994 C1995 1.414 . S
C1994 C1997 1.499 . S
C1995 H1969 0.950 . S
C1995 C1994 1.414 . S
C1995 C1996 1.374 . S
C1996 H1970 0.950 . S
C1996 C1992 1.385 . S
C1996 C1995 1.374 . S
C1997 C1994 1.499 . S
C1997 C1998 1.373 . S
C1997 C1999 1.389 . S
C1998 H1971 0.950 . S
C1998 C1984 1.377 . S
C1998 C1997 1.373 . S
C1999 C1983 1.377 . S
C1999 C1997 1.389 . S
C1999 C2000 1.524 . S
C2000 C1999 1.524 . S
C2000 C2001 1.397 . S
C2000 C2005 1.363 . S
C2001 H1972 0.950 . S
C2001 C2000 1.397 . S
C2001 C2002 1.334 . S
C2002 H1973 0.950 . S
C2002 C2001 1.334 . S
C2002 C2003 1.287 . S
C2003 C2002 1.287 . S
C2003 C2004 1.524 . S
C2003 H2006 0.999 . S
C2004 H1974 0.950 . S
C2004 C2003 1.524 . S
C2004 C2005 1.415 . S
C2005 H1975 0.950 . S
C2005 C2000 1.363 . S
C2005 C2004 1.415 . S
H2006 C2003 0.999 . S
H2007 C1988 0.913 . S
H2008 C2026 0.951 . S
H2009 C2028 0.951 . S
H2010 C2030 0.950 . S
H2011 C2031 0.950 . S
H2012 C2033 0.950 . S
H2013 C2036 0.950 . S
H2014 C2037 0.950 . S
H2015 C2039 0.950 . S
H2016 C2040 0.950 . S
H2017 C2041 0.951 . S
H2018 C2043 0.951 . S
H2019 C2045 0.950 . S
H2020 C2046 0.950 . S
H2021 C2048 0.950 . S
H2022 C2051 0.950 . S
H2023 C2052 0.950 . S
H2024 C2054 0.950 . S
H2025 C2055 0.950 . S
C2026 H2008 0.951 . S
C2026 C2027 1.366 . S
C2026 C2028 1.388 . S
C2027 C2026 1.366 . S
C2027 C2031 1.385 . S
C2028 H2009 0.951 . S
C2028 C2026 1.388 . S
C2028 C2029 1.366 . S
C2029 C2028 1.366 . S
C2029 C2030 1.414 . S
C2029 C2032 1.499 . S
C2030 H2010 0.950 . S
C2030 C2029 1.414 . S
C2030 C2031 1.374 . S
C2031 H2011 0.950 . S
C2031 C2027 1.385 . S
C2031 C2030 1.374 . S
C2032 C2029 1.499 . S
C2032 C2033 1.373 . S
C2032 C2034 1.389 . S
C2033 H2012 0.950 . S
C2033 C2032 1.373 . S
C2033 C2049 1.377 . S
C2034 C2032 1.389 . S
C2034 C2035 1.524 . S
C2034 C2048 1.377 . S
C2035 C2034 1.524 . S
C2035 C2036 1.397 . S
C2035 C2040 1.363 . S
C2036 H2013 0.950 . S
C2036 C2035 1.397 . S
C2036 C2037 1.334 . S
C2037 H2014 0.950 . S
C2037 C2036 1.334 . S
C2037 C2038 1.287 . S
C2038 C2037 1.287 . S
C2038 C2039 1.524 . S
C2038 H2057 0.913 . S
C2039 H2015 0.950 . S
C2039 C2038 1.524 . S
C2039 C2040 1.415 . S
C2040 H2016 0.950 . S
C2040 C2035 1.363 . S
C2040 C2039 1.415 . S
C2041 H2017 0.951 . S
C2041 C2042 1.366 . S
C2041 C2043 1.388 . S
C2042 C2041 1.366 . S
C2042 C2046 1.385 . S
C2043 H2018 0.951 . S
C2043 C2041 1.388 . S
C2043 C2044 1.366 . S
C2044 C2043 1.366 . S
C2044 C2045 1.414 . S
C2044 C2047 1.499 . S
C2045 H2019 0.950 . S
C2045 C2044 1.414 . S
C2045 C2046 1.374 . S
C2046 H2020 0.950 . S
C2046 C2042 1.385 . S
C2046 C2045 1.374 . S
C2047 C2044 1.499 . S
C2047 C2048 1.373 . S
C2047 C2049 1.389 . S
C2048 H2021 0.950 . S
C2048 C2034 1.377 . S
C2048 C2047 1.373 . S
C2049 C2033 1.377 . S
C2049 C2047 1.389 . S
C2049 C2050 1.524 . S
C2050 C2049 1.524 . S
C2050 C2051 1.397 . S
C2050 C2055 1.363 . S
C2051 H2022 0.950 . S
C2051 C2050 1.397 . S
C2051 C2052 1.334 . S
C2052 H2023 0.950 . S
C2052 C2051 1.334 . S
C2052 C2053 1.287 . S
C2053 C2052 1.287 . S
C2053 C2054 1.524 . S
C2053 H2056 0.999 1_545 S
C2054 H2024 0.950 . S
C2054 C2053 1.524 . S
C2054 C2055 1.415 . S
C2055 H2025 0.950 . S
C2055 C2050 1.363 . S
C2055 C2054 1.415 . S
H2056 C2053 0.999 1_565 S
H2057 C2038 0.913 . S
H2058 C2076 0.951 . S
H2059 C2078 0.951 . S
H2060 C2080 0.950 . S
H2061 C2081 0.950 . S
H2062 C2083 0.950 . S
H2063 C2086 0.950 . S
H2064 C2087 0.950 . S
H2065 C2089 0.950 . S
H2066 C2090 0.950 . S
H2067 C2091 0.951 . S
H2068 C2093 0.951 . S
H2069 C2095 0.950 . S
H2070 C2096 0.950 . S
H2071 C2098 0.950 . S
H2072 C2101 0.950 . S
H2073 C2102 0.950 . S
H2074 C2104 0.950 . S
H2075 C2105 0.950 . S
C2076 H2058 0.951 . S
C2076 C2077 1.366 . S
C2076 C2078 1.388 . S
C2077 C2076 1.366 . S
C2077 C2081 1.385 . S
C2078 H2059 0.951 . S
C2078 C2076 1.388 . S
C2078 C2079 1.366 . S
C2079 C2078 1.366 . S
C2079 C2080 1.414 . S
C2079 C2082 1.499 . S
C2080 H2060 0.950 . S
C2080 C2079 1.414 . S
C2080 C2081 1.374 . S
C2081 H2061 0.950 . S
C2081 C2077 1.385 . S
C2081 C2080 1.374 . S
C2082 C2079 1.499 . S
C2082 C2083 1.373 . S
C2082 C2084 1.389 . S
C2083 H2062 0.950 . S
C2083 C2082 1.373 . S
C2083 C2099 1.377 . S
C2084 C2082 1.389 . S
C2084 C2085 1.524 . S
C2084 C2098 1.377 . S
C2085 C2084 1.524 . S
C2085 C2086 1.397 . S
C2085 C2090 1.363 . S
C2086 H2063 0.950 . S
C2086 C2085 1.397 . S
C2086 C2087 1.334 . S
C2087 H2064 0.950 . S
C2087 C2086 1.334 . S
C2087 C2088 1.287 . S
C2088 C2087 1.287 . S
C2088 C2089 1.524 . S
C2088 H2107 0.913 . S
C2089 H2065 0.950 . S
C2089 C2088 1.524 . S
C2089 C2090 1.415 . S
C2090 H2066 0.950 . S
C2090 C2085 1.363 . S
C2090 C2089 1.415 . S
C2091 H2067 0.951 . S
C2091 C2092 1.366 . S
C2091 C2093 1.388 . S
C2092 C2091 1.366 . S
C2092 C2096 1.385 . S
C2093 H2068 0.951 . S
C2093 C2091 1.388 . S
C2093 C2094 1.366 . S
C2094 C2093 1.366 . S
C2094 C2095 1.414 . S
C2094 C2097 1.499 . S
C2095 H2069 0.950 . S
C2095 C2094 1.414 . S
C2095 C2096 1.374 . S
C2096 H2070 0.950 . S
C2096 C2092 1.385 . S
C2096 C2095 1.374 . S
C2097 C2094 1.499 . S
C2097 C2098 1.373 . S
C2097 C2099 1.389 . S
C2098 H2071 0.950 . S
C2098 C2084 1.377 . S
C2098 C2097 1.373 . S
C2099 C2083 1.377 . S
C2099 C2097 1.389 . S
C2099 C2100 1.524 . S
C2100 C2099 1.524 . S
C2100 C2101 1.397 . S
C2100 C2105 1.363 . S
C2101 H2072 0.950 . S
C2101 C2100 1.397 . S
C2101 C2102 1.334 . S
C2102 H2073 0.950 . S
C2102 C2101 1.334 . S
C2102 C2103 1.287 . S
C2103 C2102 1.287 . S
C2103 C2104 1.524 . S
C2103 H2106 0.999 . S
C2104 H2074 0.950 . S
C2104 C2103 1.524 . S
C2104 C2105 1.415 . S
C2105 H2075 0.950 . S
C2105 C2100 1.363 . S
C2105 C2104 1.415 . S
H2106 C2103 0.999 . S
H2107 C2088 0.913 . S
H2108 C2126 0.951 . S
H2109 C2128 0.951 . S
H2110 C2130 0.950 . S
H2111 C2131 0.950 . S
H2112 C2133 0.950 . S
H2113 C2136 0.950 . S
H2114 C2137 0.950 . S
H2115 C2139 0.950 . S
H2116 C2140 0.950 . S
H2117 C2141 0.951 . S
H2118 C2143 0.951 . S
H2119 C2145 0.950 . S
H2120 C2146 0.950 . S
H2121 C2148 0.950 . S
H2122 C2151 0.950 . S
H2123 C2152 0.950 . S
H2124 C2154 0.950 . S
H2125 C2155 0.950 . S
C2126 H2108 0.951 . S
C2126 C2127 1.366 . S
C2126 C2128 1.388 . S
C2127 C2126 1.366 . S
C2127 C2131 1.385 . S
C2128 H2109 0.951 . S
C2128 C2126 1.388 . S
C2128 C2129 1.366 . S
C2129 C2128 1.366 . S
C2129 C2130 1.414 . S
C2129 C2132 1.499 . S
C2130 H2110 0.950 . S
C2130 C2129 1.414 . S
C2130 C2131 1.374 . S
C2131 H2111 0.950 . S
C2131 C2127 1.385 . S
C2131 C2130 1.374 . S
C2132 C2129 1.499 . S
C2132 C2133 1.373 . S
C2132 C2134 1.389 . S
C2133 H2112 0.950 . S
C2133 C2132 1.373 . S
C2133 C2149 1.377 . S
C2134 C2132 1.389 . S
C2134 C2135 1.524 . S
C2134 C2148 1.377 . S
C2135 C2134 1.524 . S
C2135 C2136 1.397 . S
C2135 C2140 1.363 . S
C2136 H2113 0.950 . S
C2136 C2135 1.397 . S
C2136 C2137 1.334 . S
C2137 H2114 0.950 . S
C2137 C2136 1.334 . S
C2137 C2138 1.287 . S
C2138 C2137 1.287 . S
C2138 C2139 1.524 . S
C2138 H2157 0.913 . S
C2139 H2115 0.950 . S
C2139 C2138 1.524 . S
C2139 C2140 1.415 . S
C2140 H2116 0.950 . S
C2140 C2135 1.363 . S
C2140 C2139 1.415 . S
C2141 H2117 0.951 . S
C2141 C2142 1.366 . S
C2141 C2143 1.388 . S
C2142 C2141 1.366 . S
C2142 C2146 1.385 . S
C2143 H2118 0.951 . S
C2143 C2141 1.388 . S
C2143 C2144 1.366 . S
C2144 C2143 1.366 . S
C2144 C2145 1.414 . S
C2144 C2147 1.499 . S
C2145 H2119 0.950 . S
C2145 C2144 1.414 . S
C2145 C2146 1.374 . S
C2146 H2120 0.950 . S
C2146 C2142 1.385 . S
C2146 C2145 1.374 . S
C2147 C2144 1.499 . S
C2147 C2148 1.373 . S
C2147 C2149 1.389 . S
C2148 H2121 0.950 . S
C2148 C2134 1.377 . S
C2148 C2147 1.373 . S
C2149 C2133 1.377 . S
C2149 C2147 1.389 . S
C2149 C2150 1.524 . S
C2150 C2149 1.524 . S
C2150 C2151 1.397 . S
C2150 C2155 1.363 . S
C2151 H2122 0.950 . S
C2151 C2150 1.397 . S
C2151 C2152 1.334 . S
C2152 H2123 0.950 . S
C2152 C2151 1.334 . S
C2152 C2153 1.287 . S
C2153 C2152 1.287 . S
C2153 C2154 1.524 . S
C2153 H2156 0.999 . S
C2154 H2124 0.950 . S
C2154 C2153 1.524 . S
C2154 C2155 1.415 . S
C2155 H2125 0.950 . S
C2155 C2150 1.363 . S
C2155 C2154 1.415 . S
H2156 C2153 0.999 . S
H2157 C2138 0.913 . S
H2158 C2176 0.951 . S
H2159 C2178 0.951 . S
H2160 C2180 0.950 . S
H2161 C2181 0.950 . S
H2162 C2183 0.950 . S
H2163 C2186 0.950 . S
H2164 C2187 0.950 . S
H2165 C2189 0.950 . S
H2166 C2190 0.950 . S
H2167 C2191 0.951 . S
H2168 C2193 0.951 . S
H2169 C2195 0.950 . S
H2170 C2196 0.950 . S
H2171 C2198 0.950 . S
H2172 C2201 0.950 . S
H2173 C2202 0.950 . S
H2174 C2204 0.950 . S
H2175 C2205 0.950 . S
C2176 H2158 0.951 . S
C2176 C2177 1.366 . S
C2176 C2178 1.388 . S
C2177 C2176 1.366 . S
C2177 C2181 1.385 . S
C2178 H2159 0.951 . S
C2178 C2176 1.388 . S
C2178 C2179 1.366 . S
C2179 C2178 1.366 . S
C2179 C2180 1.414 . S
C2179 C2182 1.499 . S
C2180 H2160 0.950 . S
C2180 C2179 1.414 . S
C2180 C2181 1.374 . S
C2181 H2161 0.950 . S
C2181 C2177 1.385 . S
C2181 C2180 1.374 . S
C2182 C2179 1.499 . S
C2182 C2183 1.373 . S
C2182 C2184 1.389 . S
C2183 H2162 0.950 . S
C2183 C2182 1.373 . S
C2183 C2199 1.377 . S
C2184 C2182 1.389 . S
C2184 C2185 1.524 . S
C2184 C2198 1.377 . S
C2185 C2184 1.524 . S
C2185 C2186 1.397 . S
C2185 C2190 1.363 . S
C2186 H2163 0.950 . S
C2186 C2185 1.397 . S
C2186 C2187 1.334 . S
C2187 H2164 0.950 . S
C2187 C2186 1.334 . S
C2187 C2188 1.287 . S
C2188 C2187 1.287 . S
C2188 C2189 1.524 . S
C2188 H2207 0.913 . S
C2189 H2165 0.950 . S
C2189 C2188 1.524 . S
C2189 C2190 1.415 . S
C2190 H2166 0.950 . S
C2190 C2185 1.363 . S
C2190 C2189 1.415 . S
C2191 H2167 0.951 . S
C2191 C2192 1.366 . S
C2191 C2193 1.388 . S
C2192 C2191 1.366 . S
C2192 C2196 1.385 . S
C2193 H2168 0.951 . S
C2193 C2191 1.388 . S
C2193 C2194 1.366 . S
C2194 C2193 1.366 . S
C2194 C2195 1.414 . S
C2194 C2197 1.499 . S
C2195 H2169 0.950 . S
C2195 C2194 1.414 . S
C2195 C2196 1.374 . S
C2196 H2170 0.950 . S
C2196 C2192 1.385 . S
C2196 C2195 1.374 . S
C2197 C2194 1.499 . S
C2197 C2198 1.373 . S
C2197 C2199 1.389 . S
C2198 H2171 0.950 . S
C2198 C2184 1.377 . S
C2198 C2197 1.373 . S
C2199 C2183 1.377 . S
C2199 C2197 1.389 . S
C2199 C2200 1.524 . S
C2200 C2199 1.524 . S
C2200 C2201 1.397 . S
C2200 C2205 1.363 . S
C2201 H2172 0.950 . S
C2201 C2200 1.397 . S
C2201 C2202 1.334 . S
C2202 H2173 0.950 . S
C2202 C2201 1.334 . S
C2202 C2203 1.287 . S
C2203 C2202 1.287 . S
C2203 C2204 1.524 . S
C2203 H2206 0.999 . S
C2204 H2174 0.950 . S
C2204 C2203 1.524 . S
C2204 C2205 1.415 . S
C2205 H2175 0.950 . S
C2205 C2200 1.363 . S
C2205 C2204 1.415 . S
H2206 C2203 0.999 . S
H2207 C2188 0.913 . S
H2208 C2226 0.951 . S
H2209 C2228 0.951 . S
H2210 C2230 0.950 . S
H2211 C2231 0.950 . S
H2212 C2233 0.950 . S
H2213 C2236 0.950 . S
H2214 C2237 0.950 . S
H2215 C2239 0.950 . S
H2216 C2240 0.950 . S
H2217 C2241 0.951 . S
H2218 C2243 0.951 . S
H2219 C2245 0.950 . S
H2220 C2246 0.950 . S
H2221 C2248 0.950 . S
H2222 C2251 0.950 . S
H2223 C2252 0.950 . S
H2224 C2254 0.929 1_554 S
H2225 C2255 0.950 . S
C2226 H2208 0.951 . S
C2226 C2227 1.366 . S
C2226 C2228 1.388 . S
C2227 C2226 1.366 . S
C2227 C2231 1.385 . S
C2228 H2209 0.951 . S
C2228 C2226 1.388 . S
C2228 C2229 1.366 . S
C2229 C2228 1.366 . S
C2229 C2230 1.414 . S
C2229 C2232 1.499 . S
C2230 H2210 0.950 . S
C2230 C2229 1.414 . S
C2230 C2231 1.374 . S
C2231 H2211 0.950 . S
C2231 C2227 1.385 . S
C2231 C2230 1.374 . S
C2232 C2229 1.499 . S
C2232 C2233 1.373 . S
C2232 C2234 1.389 . S
C2233 H2212 0.950 . S
C2233 C2232 1.373 . S
C2233 C2249 1.377 . S
C2234 C2232 1.389 . S
C2234 C2235 1.524 . S
C2234 C2248 1.377 . S
C2235 C2234 1.524 . S
C2235 C2236 1.397 . S
C2235 C2240 1.363 . S
C2236 H2213 0.950 . S
C2236 C2235 1.397 . S
C2236 C2237 1.334 . S
C2237 H2214 0.950 . S
C2237 C2236 1.334 . S
C2237 C2238 1.287 . S
C2238 C2237 1.287 . S
C2238 C2239 1.524 . S
C2238 H2257 0.913 . S
C2239 H2215 0.950 . S
C2239 C2238 1.524 . S
C2239 C2240 1.415 . S
C2240 H2216 0.950 . S
C2240 C2235 1.363 . S
C2240 C2239 1.415 . S
C2241 H2217 0.951 . S
C2241 C2242 1.366 . S
C2241 C2243 1.388 . S
C2242 C2241 1.366 . S
C2242 C2246 1.385 . S
C2243 H2218 0.951 . S
C2243 C2241 1.388 . S
C2243 C2244 1.366 . S
C2244 C2243 1.366 . S
C2244 C2245 1.414 . S
C2244 C2247 1.499 . S
C2245 H2219 0.950 . S
C2245 C2244 1.414 . S
C2245 C2246 1.374 . S
C2246 H2220 0.950 . S
C2246 C2242 1.385 . S
C2246 C2245 1.374 . S
C2247 C2244 1.499 . S
C2247 C2248 1.373 . S
C2247 C2249 1.389 . S
C2248 H2221 0.950 . S
C2248 C2234 1.377 . S
C2248 C2247 1.373 . S
C2249 C2233 1.377 . S
C2249 C2247 1.389 . S
C2249 C2250 1.524 . S
C2250 C2249 1.524 . S
C2250 C2251 1.397 . S
C2250 C2255 1.363 . S
C2251 H2222 0.950 . S
C2251 C2250 1.397 . S
C2251 C2252 1.334 . S
C2252 H2223 0.950 . S
C2252 C2251 1.334 . S
C2252 C2253 1.287 . S
C2253 C2252 1.287 . S
C2253 C2254 1.524 . S
C2253 H2256 0.999 1_556 S
C2254 H2224 0.929 1_556 S
C2254 C2253 1.524 . S
C2254 C2255 1.415 . S
C2255 H2225 0.950 . S
C2255 C2250 1.363 . S
C2255 C2254 1.415 . S
H2256 C2253 0.999 1_554 S
H2257 C2238 0.913 . S
H2258 C2276 0.951 . S
H2259 C2278 0.951 . S
H2260 C2280 0.950 . S
H2261 C2281 0.950 . S
H2262 C2283 0.950 . S
H2263 C2286 0.950 . S
H2264 C2287 0.950 . S
H2265 C2289 0.950 . S
H2266 C2290 0.950 . S
H2267 C2291 0.951 . S
H2268 C2293 0.951 . S
H2269 C2295 0.950 . S
H2270 C2296 0.950 . S
H2271 C2298 0.950 . S
H2272 C2301 0.950 . S
H2273 C2302 0.950 . S
H2274 C2304 0.950 . S
H2275 C2305 0.950 . S
C2276 H2258 0.951 . S
C2276 C2277 1.366 . S
C2276 C2278 1.388 . S
C2277 C2276 1.366 . S
C2277 C2281 1.385 . S
C2278 H2259 0.951 . S
C2278 C2276 1.388 . S
C2278 C2279 1.366 . S
C2279 C2278 1.366 . S
C2279 C2280 1.414 . S
C2279 C2282 1.499 . S
C2280 H2260 0.950 . S
C2280 C2279 1.414 . S
C2280 C2281 1.374 . S
C2281 H2261 0.950 . S
C2281 C2277 1.385 . S
C2281 C2280 1.374 . S
C2282 C2279 1.499 . S
C2282 C2283 1.373 . S
C2282 C2284 1.389 . S
C2283 H2262 0.950 . S
C2283 C2282 1.373 . S
C2283 C2299 1.377 . S
C2284 C2282 1.389 . S
C2284 C2285 1.524 . S
C2284 C2298 1.377 . S
C2285 C2284 1.524 . S
C2285 C2286 1.397 . S
C2285 C2290 1.363 . S
C2286 H2263 0.950 . S
C2286 C2285 1.397 . S
C2286 C2287 1.334 . S
C2287 H2264 0.950 . S
C2287 C2286 1.334 . S
C2287 C2288 1.287 . S
C2288 C2287 1.287 . S
C2288 C2289 1.524 . S
C2288 H2307 0.913 . S
C2289 H2265 0.950 . S
C2289 C2288 1.524 . S
C2289 C2290 1.415 . S
C2290 H2266 0.950 . S
C2290 C2285 1.363 . S
C2290 C2289 1.415 . S
C2291 H2267 0.951 . S
C2291 C2292 1.366 . S
C2291 C2293 1.388 . S
C2292 C2291 1.366 . S
C2292 C2296 1.385 . S
C2293 H2268 0.951 . S
C2293 C2291 1.388 . S
C2293 C2294 1.366 . S
C2294 C2293 1.366 . S
C2294 C2295 1.414 . S
C2294 C2297 1.499 . S
C2295 H2269 0.950 . S
C2295 C2294 1.414 . S
C2295 C2296 1.374 . S
C2296 H2270 0.950 . S
C2296 C2292 1.385 . S
C2296 C2295 1.374 . S
C2297 C2294 1.499 . S
C2297 C2298 1.373 . S
C2297 C2299 1.389 . S
C2298 H2271 0.950 . S
C2298 C2284 1.377 . S
C2298 C2297 1.373 . S
C2299 C2283 1.377 . S
C2299 C2297 1.389 . S
C2299 C2300 1.524 . S
C2300 C2299 1.524 . S
C2300 C2301 1.397 . S
C2300 C2305 1.363 . S
C2301 H2272 0.950 . S
C2301 C2300 1.397 . S
C2301 C2302 1.334 . S
C2302 H2273 0.950 . S
C2302 C2301 1.334 . S
C2302 C2303 1.287 . S
C2303 C2302 1.287 . S
C2303 C2304 1.524 . S
C2303 H2306 0.999 . S
C2304 H2274 0.950 . S
C2304 C2303 1.524 . S
C2304 C2305 1.415 . S
C2305 H2275 0.950 . S
C2305 C2300 1.363 . S
C2305 C2304 1.415 . S
H2306 C2303 0.999 . S
H2307 C2288 0.913 . S
H2308 C2326 0.951 . S
H2309 C2328 0.951 . S
H2310 C2330 0.950 . S
H2311 C2331 0.950 . S
H2312 C2333 0.950 . S
H2313 C2336 0.950 . S
H2314 C2337 0.950 . S
H2315 C2339 0.950 . S
H2316 C2340 0.950 . S
H2317 C2341 0.951 . S
H2318 C2343 0.951 . S
H2319 C2345 0.950 . S
H2320 C2346 0.950 . S
H2321 C2348 0.950 . S
H2322 C2351 0.950 . S
H2323 C2352 0.950 . S
H2324 C2354 0.950 . S
H2325 C2355 0.950 . S
C2326 H2308 0.951 . S
C2326 C2327 1.366 . S
C2326 C2328 1.388 . S
C2327 C2326 1.366 . S
C2327 C2331 1.385 . S
C2328 H2309 0.951 . S
C2328 C2326 1.388 . S
C2328 C2329 1.366 . S
C2329 C2328 1.366 . S
C2329 C2330 1.414 . S
C2329 C2332 1.499 . S
C2330 H2310 0.950 . S
C2330 C2329 1.414 . S
C2330 C2331 1.374 . S
C2331 H2311 0.950 . S
C2331 C2327 1.385 . S
C2331 C2330 1.374 . S
C2332 C2329 1.499 . S
C2332 C2333 1.373 . S
C2332 C2334 1.389 . S
C2333 H2312 0.950 . S
C2333 C2332 1.373 . S
C2333 C2349 1.377 . S
C2334 C2332 1.389 . S
C2334 C2335 1.524 . S
C2334 C2348 1.377 . S
C2335 C2334 1.524 . S
C2335 C2336 1.397 . S
C2335 C2340 1.363 . S
C2336 H2313 0.950 . S
C2336 C2335 1.397 . S
C2336 C2337 1.334 . S
C2337 H2314 0.950 . S
C2337 C2336 1.334 . S
C2337 C2338 1.287 . S
C2338 C2337 1.287 . S
C2338 C2339 1.524 . S
C2338 H2357 0.913 . S
C2339 H2315 0.950 . S
C2339 C2338 1.524 . S
C2339 C2340 1.415 . S
C2340 H2316 0.950 . S
C2340 C2335 1.363 . S
C2340 C2339 1.415 . S
C2341 H2317 0.951 . S
C2341 C2342 1.366 . S
C2341 C2343 1.388 . S
C2342 C2341 1.366 . S
C2342 C2346 1.385 . S
C2343 H2318 0.951 . S
C2343 C2341 1.388 . S
C2343 C2344 1.366 . S
C2344 C2343 1.366 . S
C2344 C2345 1.414 . S
C2344 C2347 1.499 . S
C2345 H2319 0.950 . S
C2345 C2344 1.414 . S
C2345 C2346 1.374 . S
C2346 H2320 0.950 . S
C2346 C2342 1.385 . S
C2346 C2345 1.374 . S
C2347 C2344 1.499 . S
C2347 C2348 1.373 . S
C2347 C2349 1.389 . S
C2348 H2321 0.950 . S
C2348 C2334 1.377 . S
C2348 C2347 1.373 . S
C2349 C2333 1.377 . S
C2349 C2347 1.389 . S
C2349 C2350 1.524 . S
C2350 C2349 1.524 . S
C2350 C2351 1.397 . S
C2350 C2355 1.363 . S
C2351 H2322 0.950 . S
C2351 C2350 1.397 . S
C2351 C2352 1.334 . S
C2352 H2323 0.950 . S
C2352 C2351 1.334 . S
C2352 C2353 1.287 . S
C2353 C2352 1.287 . S
C2353 C2354 1.524 . S
C2353 H2356 0.999 . S
C2354 H2324 0.950 . S
C2354 C2353 1.524 . S
C2354 C2355 1.415 . S
C2355 H2325 0.950 . S
C2355 C2350 1.363 . S
C2355 C2354 1.415 . S
H2356 C2353 0.999 . S
H2357 C2338 0.913 . S
H2358 C2376 0.951 . S
H2359 C2378 0.951 . S
H2360 C2380 0.950 . S
H2361 C2381 0.950 . S
H2362 C2383 0.950 . S
H2363 C2386 0.950 . S
H2364 C2387 0.950 . S
H2365 C2389 0.950 . S
H2366 C2390 0.950 . S
H2367 C2391 0.951 . S
H2368 C2393 0.951 . S
H2369 C2395 0.950 . S
H2370 C2396 0.950 . S
H2371 C2398 0.950 . S
H2372 C2401 0.950 . S
H2373 C2402 0.950 . S
H2374 C2404 0.950 . S
H2375 C2405 0.950 . S
C2376 H2358 0.951 . S
C2376 C2377 1.366 . S
C2376 C2378 1.388 . S
C2377 C2376 1.366 . S
C2377 C2381 1.385 . S
C2378 H2359 0.951 . S
C2378 C2376 1.388 . S
C2378 C2379 1.366 . S
C2379 C2378 1.366 . S
C2379 C2380 1.414 . S
C2379 C2382 1.499 . S
C2380 H2360 0.950 . S
C2380 C2379 1.414 . S
C2380 C2381 1.374 . S
C2381 H2361 0.950 . S
C2381 C2377 1.385 . S
C2381 C2380 1.374 . S
C2382 C2379 1.499 . S
C2382 C2383 1.373 . S
C2382 C2384 1.389 . S
C2383 H2362 0.950 . S
C2383 C2382 1.373 . S
C2383 C2399 1.377 . S
C2384 C2382 1.389 . S
C2384 C2385 1.524 . S
C2384 C2398 1.377 . S
C2385 C2384 1.524 . S
C2385 C2386 1.397 . S
C2385 C2390 1.363 . S
C2386 H2363 0.950 . S
C2386 C2385 1.397 . S
C2386 C2387 1.334 . S
C2387 H2364 0.950 . S
C2387 C2386 1.334 . S
C2387 C2388 1.287 . S
C2388 C2387 1.287 . S
C2388 C2389 1.524 . S
C2388 H2407 0.913 . S
C2389 H2365 0.950 . S
C2389 C2388 1.524 . S
C2389 C2390 1.415 . S
C2390 H2366 0.950 . S
C2390 C2385 1.363 . S
C2390 C2389 1.415 . S
C2391 H2367 0.951 . S
C2391 C2392 1.366 . S
C2391 C2393 1.388 . S
C2392 C2391 1.366 . S
C2392 C2396 1.385 . S
C2393 H2368 0.951 . S
C2393 C2391 1.388 . S
C2393 C2394 1.366 . S
C2394 C2393 1.366 . S
C2394 C2395 1.414 . S
C2394 C2397 1.499 . S
C2395 H2369 0.950 . S
C2395 C2394 1.414 . S
C2395 C2396 1.374 . S
C2396 H2370 0.950 . S
C2396 C2392 1.385 . S
C2396 C2395 1.374 . S
C2397 C2394 1.499 . S
C2397 C2398 1.373 . S
C2397 C2399 1.389 . S
C2398 H2371 0.950 . S
C2398 C2384 1.377 . S
C2398 C2397 1.373 . S
C2399 C2383 1.377 . S
C2399 C2397 1.389 . S
C2399 C2400 1.524 . S
C2400 C2399 1.524 . S
C2400 C2401 1.397 . S
C2400 C2405 1.363 . S
C2401 H2372 0.950 . S
C2401 C2400 1.397 . S
C2401 C2402 1.334 . S
C2402 H2373 0.950 . S
C2402 C2401 1.334 . S
C2402 C2403 1.287 . S
C2403 C2402 1.287 . S
C2403 C2404 1.524 . S
C2403 H2406 0.999 . S
C2404 H2374 0.950 . S
C2404 C2403 1.524 . S
C2404 C2405 1.415 . S
C2405 H2375 0.950 . S
C2405 C2400 1.363 . S
C2405 C2404 1.415 . S
H2406 C2403 0.999 . S
H2407 C2388 0.913 . S
H2408 C2426 0.951 . S
H2409 C2428 0.951 . S
H2410 C2430 0.950 . S
H2411 C2431 0.950 . S
H2412 C2433 0.950 . S
H2413 C2436 0.950 . S
H2414 C2437 0.950 . S
H2415 C2439 0.950 . S
H2416 C2440 0.950 . S
H2417 C2441 0.951 . S
H2418 C2443 0.951 . S
H2419 C2445 0.950 . S
H2420 C2446 0.950 . S
H2421 C2448 0.950 . S
H2422 C2451 0.950 . S
H2423 C2452 0.950 . S
H2424 C2454 0.950 . S
H2425 C2455 0.950 . S
C2426 H2408 0.951 . S
C2426 C2427 1.366 . S
C2426 C2428 1.388 . S
C2427 C2426 1.366 . S
C2427 C2431 1.385 . S
C2428 H2409 0.951 . S
C2428 C2426 1.388 . S
C2428 C2429 1.366 . S
C2429 C2428 1.366 . S
C2429 C2430 1.414 . S
C2429 C2432 1.499 . S
C2430 H2410 0.950 . S
C2430 C2429 1.414 . S
C2430 C2431 1.374 . S
C2431 H2411 0.950 . S
C2431 C2427 1.385 . S
C2431 C2430 1.374 . S
C2432 C2429 1.499 . S
C2432 C2433 1.373 . S
C2432 C2434 1.389 . S
C2433 H2412 0.950 . S
C2433 C2432 1.373 . S
C2433 C2449 1.377 . S
C2434 C2432 1.389 . S
C2434 C2435 1.524 . S
C2434 C2448 1.377 . S
C2435 C2434 1.524 . S
C2435 C2436 1.397 . S
C2435 C2440 1.363 . S
C2436 H2413 0.950 . S
C2436 C2435 1.397 . S
C2436 C2437 1.334 . S
C2437 H2414 0.950 . S
C2437 C2436 1.334 . S
C2437 C2438 1.287 . S
C2438 C2437 1.287 . S
C2438 C2439 1.524 . S
C2438 H2457 0.913 . S
C2439 H2415 0.950 . S
C2439 C2438 1.524 . S
C2439 C2440 1.415 . S
C2440 H2416 0.950 . S
C2440 C2435 1.363 . S
C2440 C2439 1.415 . S
C2441 H2417 0.951 . S
C2441 C2442 1.366 . S
C2441 C2443 1.388 . S
C2442 C2441 1.366 . S
C2442 C2446 1.385 . S
C2443 H2418 0.951 . S
C2443 C2441 1.388 . S
C2443 C2444 1.366 . S
C2444 C2443 1.366 . S
C2444 C2445 1.414 . S
C2444 C2447 1.499 . S
C2445 H2419 0.950 . S
C2445 C2444 1.414 . S
C2445 C2446 1.374 . S
C2446 H2420 0.950 . S
C2446 C2442 1.385 . S
C2446 C2445 1.374 . S
C2447 C2444 1.499 . S
C2447 C2448 1.373 . S
C2447 C2449 1.389 . S
C2448 H2421 0.950 . S
C2448 C2434 1.377 . S
C2448 C2447 1.373 . S
C2449 C2433 1.377 . S
C2449 C2447 1.389 . S
C2449 C2450 1.524 . S
C2450 C2449 1.524 . S
C2450 C2451 1.397 . S
C2450 C2455 1.363 . S
C2451 H2422 0.950 . S
C2451 C2450 1.397 . S
C2451 C2452 1.334 . S
C2452 H2423 0.950 . S
C2452 C2451 1.334 . S
C2452 C2453 1.287 . S
C2453 C2452 1.287 . S
C2453 C2454 1.524 . S
C2453 H2456 0.999 . S
C2454 H2424 0.950 . S
C2454 C2453 1.524 . S
C2454 C2455 1.415 . S
C2455 H2425 0.950 . S
C2455 C2450 1.363 . S
C2455 C2454 1.415 . S
H2456 C2453 0.999 . S
H2457 C2438 0.913 . S
H2458 C2476 0.951 . S
H2459 C2478 0.951 . S
H2460 C2480 0.950 . S
H2461 C2481 0.950 . S
H2462 C2483 0.950 . S
H2463 C2486 0.950 . S
H2464 C2487 0.950 . S
H2465 C2489 0.950 . S
H2466 C2490 0.950 . S
H2467 C2491 0.951 . S
H2468 C2493 0.951 . S
H2469 C2495 0.950 . S
H2470 C2496 0.950 . S
H2471 C2498 0.950 . S
H2472 C2501 0.950 . S
H2473 C2502 0.950 . S
H2474 C2504 0.950 . S
H2475 C2505 0.950 . S
C2476 H2458 0.951 . S
C2476 C2477 1.366 . S
C2476 C2478 1.388 . S
C2477 C2476 1.366 . S
C2477 C2481 1.385 . S
C2478 H2459 0.951 . S
C2478 C2476 1.388 . S
C2478 C2479 1.366 . S
C2479 C2478 1.366 . S
C2479 C2480 1.414 . S
C2479 C2482 1.499 . S
C2480 H2460 0.950 . S
C2480 C2479 1.414 . S
C2480 C2481 1.374 . S
C2481 H2461 0.950 . S
C2481 C2477 1.385 . S
C2481 C2480 1.374 . S
C2482 C2479 1.499 . S
C2482 C2483 1.373 . S
C2482 C2484 1.389 . S
C2483 H2462 0.950 . S
C2483 C2482 1.373 . S
C2483 C2499 1.377 . S
C2484 C2482 1.389 . S
C2484 C2485 1.524 . S
C2484 C2498 1.377 . S
C2485 C2484 1.524 . S
C2485 C2486 1.397 . S
C2485 C2490 1.363 . S
C2486 H2463 0.950 . S
C2486 C2485 1.397 . S
C2486 C2487 1.334 . S
C2487 H2464 0.950 . S
C2487 C2486 1.334 . S
C2487 C2488 1.287 . S
C2488 C2487 1.287 . S
C2488 C2489 1.524 . S
C2488 H2507 0.913 . S
C2489 H2465 0.950 . S
C2489 C2488 1.524 . S
C2489 C2490 1.415 . S
C2490 H2466 0.950 . S
C2490 C2485 1.363 . S
C2490 C2489 1.415 . S
C2491 H2467 0.951 . S
C2491 C2492 1.366 . S
C2491 C2493 1.388 . S
C2492 C2491 1.366 . S
C2492 C2496 1.385 . S
C2493 H2468 0.951 . S
C2493 C2491 1.388 . S
C2493 C2494 1.366 . S
C2494 C2493 1.366 . S
C2494 C2495 1.414 . S
C2494 C2497 1.499 . S
C2495 H2469 0.950 . S
C2495 C2494 1.414 . S
C2495 C2496 1.374 . S
C2496 H2470 0.950 . S
C2496 C2492 1.385 . S
C2496 C2495 1.374 . S
C2497 C2494 1.499 . S
C2497 C2498 1.373 . S
C2497 C2499 1.389 . S
C2498 H2471 0.950 . S
C2498 C2484 1.377 . S
C2498 C2497 1.373 . S
C2499 C2483 1.377 . S
C2499 C2497 1.389 . S
C2499 C2500 1.524 . S
C2500 C2499 1.524 . S
C2500 C2501 1.397 . S
C2500 C2505 1.363 . S
C2501 H2472 0.950 . S
C2501 C2500 1.397 . S
C2501 C2502 1.334 . S
C2502 H2473 0.950 . S
C2502 C2501 1.334 . S
C2502 C2503 1.287 . S
C2503 C2502 1.287 . S
C2503 C2504 1.524 . S
C2503 H2506 0.999 . S
C2504 H2474 0.950 . S
C2504 C2503 1.524 . S
C2504 C2505 1.415 . S
C2505 H2475 0.950 . S
C2505 C2500 1.363 . S
C2505 C2504 1.415 . S
H2506 C2503 0.999 . S
H2507 C2488 0.913 . S
H2508 C2526 0.951 . S
H2509 C2528 0.951 . S
H2510 C2530 0.950 . S
H2511 C2531 0.950 . S
H2512 C2533 0.950 . S
H2513 C2536 0.950 . S
H2514 C2537 0.950 . S
H2515 C2539 0.950 . S
H2516 C2540 0.950 . S
H2517 C2541 0.951 . S
H2518 C2543 0.951 . S
H2519 C2545 0.950 . S
H2520 C2546 0.950 . S
H2521 C2548 0.950 . S
H2522 C2551 0.950 . S
H2523 C2552 0.950 . S
H2524 C2554 0.950 . S
H2525 C2555 0.950 . S
C2526 H2508 0.951 . S
C2526 C2527 1.366 . S
C2526 C2528 1.388 . S
C2527 C2526 1.366 . S
C2527 C2531 1.385 . S
C2528 H2509 0.951 . S
C2528 C2526 1.388 . S
C2528 C2529 1.366 . S
C2529 C2528 1.366 . S
C2529 C2530 1.414 . S
C2529 C2532 1.499 . S
C2530 H2510 0.950 . S
C2530 C2529 1.414 . S
C2530 C2531 1.374 . S
C2531 H2511 0.950 . S
C2531 C2527 1.385 . S
C2531 C2530 1.374 . S
C2532 C2529 1.499 . S
C2532 C2533 1.373 . S
C2532 C2534 1.389 . S
C2533 H2512 0.950 . S
C2533 C2532 1.373 . S
C2533 C2549 1.377 . S
C2534 C2532 1.389 . S
C2534 C2535 1.524 . S
C2534 C2548 1.377 . S
C2535 C2534 1.524 . S
C2535 C2536 1.397 . S
C2535 C2540 1.363 . S
C2536 H2513 0.950 . S
C2536 C2535 1.397 . S
C2536 C2537 1.334 . S
C2537 H2514 0.950 . S
C2537 C2536 1.334 . S
C2537 C2538 1.287 . S
C2538 C2537 1.287 . S
C2538 C2539 1.524 . S
C2538 H2557 0.913 . S
C2539 H2515 0.950 . S
C2539 C2538 1.524 . S
C2539 C2540 1.415 . S
C2540 H2516 0.950 . S
C2540 C2535 1.363 . S
C2540 C2539 1.415 . S
C2541 H2517 0.951 . S
C2541 C2542 1.366 . S
C2541 C2543 1.388 . S
C2542 C2541 1.366 . S
C2542 C2546 1.385 . S
C2543 H2518 0.951 . S
C2543 C2541 1.388 . S
C2543 C2544 1.366 . S
C2544 C2543 1.366 . S
C2544 C2545 1.414 . S
C2544 C2547 1.499 . S
C2545 H2519 0.950 . S
C2545 C2544 1.414 . S
C2545 C2546 1.374 . S
C2546 H2520 0.950 . S
C2546 C2542 1.385 . S
C2546 C2545 1.374 . S
C2547 C2544 1.499 . S
C2547 C2548 1.373 . S
C2547 C2549 1.389 . S
C2548 H2521 0.950 . S
C2548 C2534 1.377 . S
C2548 C2547 1.373 . S
C2549 C2533 1.377 . S
C2549 C2547 1.389 . S
C2549 C2550 1.524 . S
C2550 C2549 1.524 . S
C2550 C2551 1.397 . S
C2550 C2555 1.363 . S
C2551 H2522 0.950 . S
C2551 C2550 1.397 . S
C2551 C2552 1.334 . S
C2552 H2523 0.950 . S
C2552 C2551 1.334 . S
C2552 C2553 1.287 . S
C2553 C2552 1.287 . S
C2553 C2554 1.524 . S
C2553 H2556 0.999 . S
C2554 H2524 0.950 . S
C2554 C2553 1.524 . S
C2554 C2555 1.415 . S
C2555 H2525 0.950 . S
C2555 C2550 1.363 . S
C2555 C2554 1.415 . S
H2556 C2553 0.999 . S
H2557 C2538 0.913 . S
H2558 C2576 0.951 . S
H2559 C2578 0.951 . S
H2560 C2580 0.950 . S
H2561 C2581 0.950 . S
H2562 C2583 0.950 . S
H2563 C2586 0.950 . S
H2564 C2587 0.950 . S
H2565 C2589 0.950 . S
H2566 C2590 0.950 . S
H2567 C2591 0.951 . S
H2568 C2593 0.951 . S
H2569 C2595 0.950 . S
H2570 C2596 0.950 . S
H2571 C2598 0.950 . S
H2572 C2601 0.950 . S
H2573 C2602 0.950 . S
H2574 C2604 0.950 1_655 S
H2575 C2605 0.950 . S
C2576 H2558 0.951 . S
C2576 C2577 1.366 . S
C2576 C2578 1.388 . S
C2577 C2576 1.366 . S
C2577 C2581 1.385 . S
C2578 H2559 0.951 . S
C2578 C2576 1.388 . S
C2578 C2579 1.366 . S
C2579 C2578 1.366 . S
C2579 C2580 1.414 . S
C2579 C2582 1.499 . S
C2580 H2560 0.950 . S
C2580 C2579 1.414 . S
C2580 C2581 1.374 . S
C2581 H2561 0.950 . S
C2581 C2577 1.385 . S
C2581 C2580 1.374 . S
C2582 C2579 1.499 . S
C2582 C2583 1.373 . S
C2582 C2584 1.389 . S
C2583 H2562 0.950 . S
C2583 C2582 1.373 . S
C2583 C2599 1.377 . S
C2584 C2582 1.389 . S
C2584 C2585 1.524 . S
C2584 C2598 1.377 . S
C2585 C2584 1.524 . S
C2585 C2586 1.397 . S
C2585 C2590 1.363 . S
C2586 H2563 0.950 . S
C2586 C2585 1.397 . S
C2586 C2587 1.334 . S
C2587 H2564 0.950 . S
C2587 C2586 1.334 . S
C2587 C2588 1.287 . S
C2588 C2587 1.287 . S
C2588 C2589 1.524 . S
C2588 H2607 0.913 . S
C2589 H2565 0.950 . S
C2589 C2588 1.524 . S
C2589 C2590 1.415 . S
C2590 H2566 0.950 . S
C2590 C2585 1.363 . S
C2590 C2589 1.415 . S
C2591 H2567 0.951 . S
C2591 C2592 1.366 . S
C2591 C2593 1.388 . S
C2592 C2591 1.366 . S
C2592 C2596 1.385 . S
C2593 H2568 0.951 . S
C2593 C2591 1.388 . S
C2593 C2594 1.366 . S
C2594 C2593 1.366 . S
C2594 C2595 1.414 . S
C2594 C2597 1.499 . S
C2595 H2569 0.950 . S
C2595 C2594 1.414 . S
C2595 C2596 1.374 . S
C2596 H2570 0.950 . S
C2596 C2592 1.385 . S
C2596 C2595 1.374 . S
C2597 C2594 1.499 . S
C2597 C2598 1.373 . S
C2597 C2599 1.389 . S
C2598 H2571 0.950 . S
C2598 C2584 1.377 . S
C2598 C2597 1.373 . S
C2599 C2583 1.377 . S
C2599 C2597 1.389 . S
C2599 C2600 1.524 . S
C2600 C2599 1.524 . S
C2600 C2601 1.397 . S
C2600 C2605 1.363 . S
C2601 H2572 0.950 . S
C2601 C2600 1.397 . S
C2601 C2602 1.334 . S
C2602 H2573 0.950 . S
C2602 C2601 1.334 . S
C2602 C2603 1.287 . S
C2603 C2602 1.287 . S
C2603 C2604 1.524 . S
C2603 H2606 0.999 1_455 S
C2604 H2574 0.950 1_455 S
C2604 C2603 1.524 . S
C2604 C2605 1.415 . S
C2605 H2575 0.950 . S
C2605 C2600 1.363 . S
C2605 C2604 1.415 . S
H2606 C2603 0.999 1_655 S
H2607 C2588 0.913 . S
H2608 C2626 0.951 . S
H2609 C2628 0.951 . S
H2610 C2630 0.950 . S
H2611 C2631 0.950 . S
H2612 C2633 0.950 . S
H2613 C2636 0.950 . S
H2614 C2637 0.950 . S
H2615 C2639 0.950 . S
H2616 C2640 0.950 . S
H2617 C2641 0.951 . S
H2618 C2643 0.951 . S
H2619 C2645 0.950 . S
H2620 C2646 0.950 . S
H2621 C2648 0.950 . S
H2622 C2651 0.950 . S
H2623 C2652 0.950 . S
H2624 C2654 0.950 . S
H2625 C2655 0.950 . S
C2626 H2608 0.951 . S
C2626 C2627 1.366 . S
C2626 C2628 1.388 . S
C2627 C2626 1.366 . S
C2627 C2631 1.385 . S
C2628 H2609 0.951 . S
C2628 C2626 1.388 . S
C2628 C2629 1.366 . S
C2629 C2628 1.366 . S
C2629 C2630 1.414 . S
C2629 C2632 1.499 . S
C2630 H2610 0.950 . S
C2630 C2629 1.414 . S
C2630 C2631 1.374 . S
C2631 H2611 0.950 . S
C2631 C2627 1.385 . S
C2631 C2630 1.374 . S
C2632 C2629 1.499 . S
C2632 C2633 1.373 . S
C2632 C2634 1.389 . S
C2633 H2612 0.950 . S
C2633 C2632 1.373 . S
C2633 C2649 1.377 . S
C2634 C2632 1.389 . S
C2634 C2635 1.524 . S
C2634 C2648 1.377 . S
C2635 C2634 1.524 . S
C2635 C2636 1.397 . S
C2635 C2640 1.363 . S
C2636 H2613 0.950 . S
C2636 C2635 1.397 . S
C2636 C2637 1.334 . S
C2637 H2614 0.950 . S
C2637 C2636 1.334 . S
C2637 C2638 1.287 . S
C2638 C2637 1.287 . S
C2638 C2639 1.524 . S
C2638 H2657 0.913 . S
C2639 H2615 0.950 . S
C2639 C2638 1.524 . S
C2639 C2640 1.415 . S
C2640 H2616 0.950 . S
C2640 C2635 1.363 . S
C2640 C2639 1.415 . S
C2641 H2617 0.951 . S
C2641 C2642 1.366 . S
C2641 C2643 1.388 . S
C2642 C2641 1.366 . S
C2642 C2646 1.385 . S
C2643 H2618 0.951 . S
C2643 C2641 1.388 . S
C2643 C2644 1.366 . S
C2644 C2643 1.366 . S
C2644 C2645 1.414 . S
C2644 C2647 1.499 . S
C2645 H2619 0.950 . S
C2645 C2644 1.414 . S
C2645 C2646 1.374 . S
C2646 H2620 0.950 . S
C2646 C2642 1.385 . S
C2646 C2645 1.374 . S
C2647 C2644 1.499 . S
C2647 C2648 1.373 . S
C2647 C2649 1.389 . S
C2648 H2621 0.950 . S
C2648 C2634 1.377 . S
C2648 C2647 1.373 . S
C2649 C2633 1.377 . S
C2649 C2647 1.389 . S
C2649 C2650 1.524 . S
C2650 C2649 1.524 . S
C2650 C2651 1.397 . S
C2650 C2655 1.363 . S
C2651 H2622 0.950 . S
C2651 C2650 1.397 . S
C2651 C2652 1.334 . S
C2652 H2623 0.950 . S
C2652 C2651 1.334 . S
C2652 C2653 1.287 . S
C2653 C2652 1.287 . S
C2653 C2654 1.524 . S
C2653 H2656 0.999 . S
C2654 H2624 0.950 . S
C2654 C2653 1.524 . S
C2654 C2655 1.415 . S
C2655 H2625 0.950 . S
C2655 C2650 1.363 . S
C2655 C2654 1.415 . S
H2656 C2653 0.999 . S
H2657 C2638 0.913 . S
H2658 C2676 0.951 . S
H2659 C2678 0.951 . S
H2660 C2680 0.950 . S
H2661 C2681 0.950 . S
H2662 C2683 0.950 . S
H2663 C2686 0.950 . S
H2664 C2687 0.950 . S
H2665 C2689 0.950 . S
H2666 C2690 0.950 . S
H2667 C2691 0.951 . S
H2668 C2693 0.951 . S
H2669 C2695 0.950 . S
H2670 C2696 0.950 . S
H2671 C2698 0.950 . S
H2672 C2701 0.950 . S
H2673 C2702 0.950 . S
H2674 C2704 0.950 . S
H2675 C2705 0.950 . S
C2676 H2658 0.951 . S
C2676 C2677 1.366 . S
C2676 C2678 1.388 . S
C2677 C2676 1.366 . S
C2677 C2681 1.385 . S
C2678 H2659 0.951 . S
C2678 C2676 1.388 . S
C2678 C2679 1.366 . S
C2679 C2678 1.366 . S
C2679 C2680 1.414 . S
C2679 C2682 1.499 . S
C2680 H2660 0.950 . S
C2680 C2679 1.414 . S
C2680 C2681 1.374 . S
C2681 H2661 0.950 . S
C2681 C2677 1.385 . S
C2681 C2680 1.374 . S
C2682 C2679 1.499 . S
C2682 C2683 1.373 . S
C2682 C2684 1.389 . S
C2683 H2662 0.950 . S
C2683 C2682 1.373 . S
C2683 C2699 1.377 . S
C2684 C2682 1.389 . S
C2684 C2685 1.524 . S
C2684 C2698 1.377 . S
C2685 C2684 1.524 . S
C2685 C2686 1.397 . S
C2685 C2690 1.363 . S
C2686 H2663 0.950 . S
C2686 C2685 1.397 . S
C2686 C2687 1.334 . S
C2687 H2664 0.950 . S
C2687 C2686 1.334 . S
C2687 C2688 1.287 . S
C2688 C2687 1.287 . S
C2688 C2689 1.524 . S
C2688 H2707 0.913 . S
C2689 H2665 0.950 . S
C2689 C2688 1.524 . S
C2689 C2690 1.415 . S
C2690 H2666 0.950 . S
C2690 C2685 1.363 . S
C2690 C2689 1.415 . S
C2691 H2667 0.951 . S
C2691 C2692 1.366 . S
C2691 C2693 1.388 . S
C2692 C2691 1.366 . S
C2692 C2696 1.385 . S
C2693 H2668 0.951 . S
C2693 C2691 1.388 . S
C2693 C2694 1.366 . S
C2694 C2693 1.366 . S
C2694 C2695 1.414 . S
C2694 C2697 1.499 . S
C2695 H2669 0.950 . S
C2695 C2694 1.414 . S
C2695 C2696 1.374 . S
C2696 H2670 0.950 . S
C2696 C2692 1.385 . S
C2696 C2695 1.374 . S
C2697 C2694 1.499 . S
C2697 C2698 1.373 . S
C2697 C2699 1.389 . S
C2698 H2671 0.950 . S
C2698 C2684 1.377 . S
C2698 C2697 1.373 . S
C2699 C2683 1.377 . S
C2699 C2697 1.389 . S
C2699 C2700 1.524 . S
C2700 C2699 1.524 . S
C2700 C2701 1.397 . S
C2700 C2705 1.363 . S
C2701 H2672 0.950 . S
C2701 C2700 1.397 . S
C2701 C2702 1.334 . S
C2702 H2673 0.950 . S
C2702 C2701 1.334 . S
C2702 C2703 1.287 . S
C2703 C2702 1.287 . S
C2703 C2704 1.524 . S
C2703 H2706 0.999 . S
C2704 H2674 0.950 . S
C2704 C2703 1.524 . S
C2704 C2705 1.415 . S
C2705 H2675 0.950 . S
C2705 C2700 1.363 . S
C2705 C2704 1.415 . S
H2706 C2703 0.999 . S
H2707 C2688 0.913 . S
H2708 C2726 0.951 . S
H2709 C2728 0.951 . S
H2710 C2730 0.950 . S
H2711 C2731 0.950 . S
H2712 C2733 0.950 . S
H2713 C2736 0.950 . S
H2714 C2737 0.950 . S
H2715 C2739 0.950 . S
H2716 C2740 0.950 . S
H2717 C2741 0.951 . S
H2718 C2743 0.951 . S
H2719 C2745 0.950 . S
H2720 C2746 0.950 . S
H2721 C2748 0.950 . S
H2722 C2751 0.950 . S
H2723 C2752 0.950 . S
H2724 C2754 0.950 . S
H2725 C2755 0.950 . S
C2726 H2708 0.951 . S
C2726 C2727 1.366 . S
C2726 C2728 1.388 . S
C2727 C2726 1.366 . S
C2727 C2731 1.385 . S
C2728 H2709 0.951 . S
C2728 C2726 1.388 . S
C2728 C2729 1.366 . S
C2729 C2728 1.366 . S
C2729 C2730 1.414 . S
C2729 C2732 1.499 . S
C2730 H2710 0.950 . S
C2730 C2729 1.414 . S
C2730 C2731 1.374 . S
C2731 H2711 0.950 . S
C2731 C2727 1.385 . S
C2731 C2730 1.374 . S
C2732 C2729 1.499 . S
C2732 C2733 1.373 . S
C2732 C2734 1.389 . S
C2733 H2712 0.950 . S
C2733 C2732 1.373 . S
C2733 C2749 1.377 . S
C2734 C2732 1.389 . S
C2734 C2735 1.524 . S
C2734 C2748 1.377 . S
C2735 C2734 1.524 . S
C2735 C2736 1.397 . S
C2735 C2740 1.363 . S
C2736 H2713 0.950 . S
C2736 C2735 1.397 . S
C2736 C2737 1.334 . S
C2737 H2714 0.950 . S
C2737 C2736 1.334 . S
C2737 C2738 1.287 . S
C2738 C2737 1.287 . S
C2738 C2739 1.524 . S
C2738 H2757 0.913 . S
C2739 H2715 0.950 . S
C2739 C2738 1.524 . S
C2739 C2740 1.415 . S
C2740 H2716 0.950 . S
C2740 C2735 1.363 . S
C2740 C2739 1.415 . S
C2741 H2717 0.951 . S
C2741 C2742 1.366 . S
C2741 C2743 1.388 . S
C2742 C2741 1.366 . S
C2742 C2746 1.385 . S
C2743 H2718 0.951 . S
C2743 C2741 1.388 . S
C2743 C2744 1.366 . S
C2744 C2743 1.366 . S
C2744 C2745 1.414 . S
C2744 C2747 1.499 . S
C2745 H2719 0.950 . S
C2745 C2744 1.414 . S
C2745 C2746 1.374 . S
C2746 H2720 0.950 . S
C2746 C2742 1.385 . S
C2746 C2745 1.374 . S
C2747 C2744 1.499 . S
C2747 C2748 1.373 . S
C2747 C2749 1.389 . S
C2748 H2721 0.950 . S
C2748 C2734 1.377 . S
C2748 C2747 1.373 . S
C2749 C2733 1.377 . S
C2749 C2747 1.389 . S
C2749 C2750 1.524 . S
C2750 C2749 1.524 . S
C2750 C2751 1.397 . S
C2750 C2755 1.363 . S
C2751 H2722 0.950 . S
C2751 C2750 1.397 . S
C2751 C2752 1.334 . S
C2752 H2723 0.950 . S
C2752 C2751 1.334 . S
C2752 C2753 1.287 . S
C2753 C2752 1.287 . S
C2753 C2754 1.524 . S
C2753 H2756 0.999 . S
C2754 H2724 0.950 . S
C2754 C2753 1.524 . S
C2754 C2755 1.415 . S
C2755 H2725 0.950 . S
C2755 C2750 1.363 . S
C2755 C2754 1.415 . S
H2756 C2753 0.999 . S
H2757 C2738 0.913 . S
H2758 C2776 0.951 . S
H2759 C2778 0.951 . S
H2760 C2780 0.950 . S
H2761 C2781 0.950 . S
H2762 C2783 0.950 . S
H2763 C2786 0.950 . S
H2764 C2787 0.950 . S
H2765 C2789 0.950 . S
H2766 C2790 0.950 . S
H2767 C2791 0.951 . S
H2768 C2793 0.951 . S
H2769 C2795 0.950 . S
H2770 C2796 0.950 . S
H2771 C2798 0.950 . S
H2772 C2801 0.950 . S
H2773 C2802 0.950 . S
H2774 C2804 0.950 . S
H2775 C2805 0.950 . S
C2776 H2758 0.951 . S
C2776 C2777 1.366 . S
C2776 C2778 1.388 . S
C2777 C2776 1.366 . S
C2777 C2781 1.385 . S
C2778 H2759 0.951 . S
C2778 C2776 1.388 . S
C2778 C2779 1.366 . S
C2779 C2778 1.366 . S
C2779 C2780 1.414 . S
C2779 C2782 1.499 . S
C2780 H2760 0.950 . S
C2780 C2779 1.414 . S
C2780 C2781 1.374 . S
C2781 H2761 0.950 . S
C2781 C2777 1.385 . S
C2781 C2780 1.374 . S
C2782 C2779 1.499 . S
C2782 C2783 1.373 . S
C2782 C2784 1.389 . S
C2783 H2762 0.950 . S
C2783 C2782 1.373 . S
C2783 C2799 1.377 . S
C2784 C2782 1.389 . S
C2784 C2785 1.524 . S
C2784 C2798 1.377 . S
C2785 C2784 1.524 . S
C2785 C2786 1.397 . S
C2785 C2790 1.363 . S
C2786 H2763 0.950 . S
C2786 C2785 1.397 . S
C2786 C2787 1.334 . S
C2787 H2764 0.950 . S
C2787 C2786 1.334 . S
C2787 C2788 1.287 . S
C2788 C2787 1.287 . S
C2788 C2789 1.524 . S
C2788 H2807 0.913 . S
C2789 H2765 0.950 . S
C2789 C2788 1.524 . S
C2789 C2790 1.415 . S
C2790 H2766 0.950 . S
C2790 C2785 1.363 . S
C2790 C2789 1.415 . S
C2791 H2767 0.951 . S
C2791 C2792 1.366 . S
C2791 C2793 1.388 . S
C2792 C2791 1.366 . S
C2792 C2796 1.385 . S
C2793 H2768 0.951 . S
C2793 C2791 1.388 . S
C2793 C2794 1.366 . S
C2794 C2793 1.366 . S
C2794 C2795 1.414 . S
C2794 C2797 1.499 . S
C2795 H2769 0.950 . S
C2795 C2794 1.414 . S
C2795 C2796 1.374 . S
C2796 H2770 0.950 . S
C2796 C2792 1.385 . S
C2796 C2795 1.374 . S
C2797 C2794 1.499 . S
C2797 C2798 1.373 . S
C2797 C2799 1.389 . S
C2798 H2771 0.950 . S
C2798 C2784 1.377 . S
C2798 C2797 1.373 . S
C2799 C2783 1.377 . S
C2799 C2797 1.389 . S
C2799 C2800 1.524 . S
C2800 C2799 1.524 . S
C2800 C2801 1.397 . S
C2800 C2805 1.363 . S
C2801 H2772 0.950 . S
C2801 C2800 1.397 . S
C2801 C2802 1.334 . S
C2802 H2773 0.950 . S
C2802 C2801 1.334 . S
C2802 C2803 1.287 . S
C2803 C2802 1.287 . S
C2803 C2804 1.524 . S
C2803 H2806 0.999 . S
C2804 H2774 0.950 . S
C2804 C2803 1.524 . S
C2804 C2805 1.415 . S
C2805 H2775 0.950 . S
C2805 C2800 1.363 . S
C2805 C2804 1.415 . S
H2806 C2803 0.999 . S
H2807 C2788 0.913 . S
H2808 C2826 0.951 . S
H2809 C2828 0.951 . S
H2810 C2830 0.950 . S
H2811 C2831 0.950 . S
H2812 C2833 0.950 . S
H2813 C2836 0.950 . S
H2814 C2837 0.950 . S
H2815 C2839 0.950 . S
H2816 C2840 0.950 . S
H2817 C2841 0.951 . S
H2818 C2843 0.951 . S
H2819 C2845 0.950 . S
H2820 C2846 0.950 . S
H2821 C2848 0.950 . S
H2822 C2851 0.950 . S
H2823 C2852 0.950 . S
H2824 C2854 0.950 . S
H2825 C2855 0.950 . S
C2826 H2808 0.951 . S
C2826 C2827 1.366 . S
C2826 C2828 1.388 . S
C2827 C2826 1.366 . S
C2827 C2831 1.385 . S
C2828 H2809 0.951 . S
C2828 C2826 1.388 . S
C2828 C2829 1.366 . S
C2829 C2828 1.366 . S
C2829 C2830 1.414 . S
C2829 C2832 1.499 . S
C2830 H2810 0.950 . S
C2830 C2829 1.414 . S
C2830 C2831 1.374 . S
C2831 H2811 0.950 . S
C2831 C2827 1.385 . S
C2831 C2830 1.374 . S
C2832 C2829 1.499 . S
C2832 C2833 1.373 . S
C2832 C2834 1.389 . S
C2833 H2812 0.950 . S
C2833 C2832 1.373 . S
C2833 C2849 1.377 . S
C2834 C2832 1.389 . S
C2834 C2835 1.524 . S
C2834 C2848 1.377 . S
C2835 C2834 1.524 . S
C2835 C2836 1.397 . S
C2835 C2840 1.363 . S
C2836 H2813 0.950 . S
C2836 C2835 1.397 . S
C2836 C2837 1.334 . S
C2837 H2814 0.950 . S
C2837 C2836 1.334 . S
C2837 C2838 1.287 . S
C2838 C2837 1.287 . S
C2838 C2839 1.524 . S
C2838 H2857 0.913 . S
C2839 H2815 0.950 . S
C2839 C2838 1.524 . S
C2839 C2840 1.415 . S
C2840 H2816 0.950 . S
C2840 C2835 1.363 . S
C2840 C2839 1.415 . S
C2841 H2817 0.951 . S
C2841 C2842 1.366 . S
C2841 C2843 1.388 . S
C2842 C2841 1.366 . S
C2842 C2846 1.385 . S
C2843 H2818 0.951 . S
C2843 C2841 1.388 . S
C2843 C2844 1.366 . S
C2844 C2843 1.366 . S
C2844 C2845 1.414 . S
C2844 C2847 1.499 . S
C2845 H2819 0.950 . S
C2845 C2844 1.414 . S
C2845 C2846 1.374 . S
C2846 H2820 0.950 . S
C2846 C2842 1.385 . S
C2846 C2845 1.374 . S
C2847 C2844 1.499 . S
C2847 C2848 1.373 . S
C2847 C2849 1.389 . S
C2848 H2821 0.950 . S
C2848 C2834 1.377 . S
C2848 C2847 1.373 . S
C2849 C2833 1.377 . S
C2849 C2847 1.389 . S
C2849 C2850 1.524 . S
C2850 C2849 1.524 . S
C2850 C2851 1.397 . S
C2850 C2855 1.363 . S
C2851 H2822 0.950 . S
C2851 C2850 1.397 . S
C2851 C2852 1.334 . S
C2852 H2823 0.950 . S
C2852 C2851 1.334 . S
C2852 C2853 1.287 . S
C2853 C2852 1.287 . S
C2853 C2854 1.524 . S
C2853 H2856 0.999 . S
C2854 H2824 0.950 . S
C2854 C2853 1.524 . S
C2854 C2855 1.415 . S
C2855 H2825 0.950 . S
C2855 C2850 1.363 . S
C2855 C2854 1.415 . S
H2856 C2853 0.999 . S
H2857 C2838 0.913 . S
H2858 C2876 0.951 . S
H2859 C2878 0.951 . S
H2860 C2880 0.950 . S
H2861 C2881 0.950 . S
H2862 C2883 0.950 . S
H2863 C2886 0.950 . S
H2864 C2887 0.950 . S
H2865 C2889 0.950 . S
H2866 C2890 0.950 . S
H2867 C2891 0.951 . S
H2868 C2893 0.951 . S
H2869 C2895 0.950 . S
H2870 C2896 0.950 . S
H2871 C2898 0.950 . S
H2872 C2901 0.950 . S
H2873 C2902 0.950 . S
H2874 C2904 0.950 . S
H2875 C2905 0.950 . S
C2876 H2858 0.951 . S
C2876 C2877 1.366 . S
C2876 C2878 1.388 . S
C2877 C2876 1.366 . S
C2877 C2881 1.385 . S
C2878 H2859 0.951 . S
C2878 C2876 1.388 . S
C2878 C2879 1.366 . S
C2879 C2878 1.366 . S
C2879 C2880 1.414 . S
C2879 C2882 1.499 . S
C2880 H2860 0.950 . S
C2880 C2879 1.414 . S
C2880 C2881 1.374 . S
C2881 H2861 0.950 . S
C2881 C2877 1.385 . S
C2881 C2880 1.374 . S
C2882 C2879 1.499 . S
C2882 C2883 1.373 . S
C2882 C2884 1.389 . S
C2883 H2862 0.950 . S
C2883 C2882 1.373 . S
C2883 C2899 1.377 . S
C2884 C2882 1.389 . S
C2884 C2885 1.524 . S
C2884 C2898 1.377 . S
C2885 C2884 1.524 . S
C2885 C2886 1.397 . S
C2885 C2890 1.363 . S
C2886 H2863 0.950 . S
C2886 C2885 1.397 . S
C2886 C2887 1.334 . S
C2887 H2864 0.950 . S
C2887 C2886 1.334 . S
C2887 C2888 1.287 . S
C2888 C2887 1.287 . S
C2888 C2889 1.524 . S
C2888 H2907 0.913 . S
C2889 H2865 0.950 . S
C2889 C2888 1.524 . S
C2889 C2890 1.415 . S
C2890 H2866 0.950 . S
C2890 C2885 1.363 . S
C2890 C2889 1.415 . S
C2891 H2867 0.951 . S
C2891 C2892 1.366 . S
C2891 C2893 1.388 . S
C2892 C2891 1.366 . S
C2892 C2896 1.385 . S
C2893 H2868 0.951 . S
C2893 C2891 1.388 . S
C2893 C2894 1.366 . S
C2894 C2893 1.366 . S
C2894 C2895 1.414 . S
C2894 C2897 1.499 . S
C2895 H2869 0.950 . S
C2895 C2894 1.414 . S
C2895 C2896 1.374 . S
C2896 H2870 0.950 . S
C2896 C2892 1.385 . S
C2896 C2895 1.374 . S
C2897 C2894 1.499 . S
C2897 C2898 1.373 . S
C2897 C2899 1.389 . S
C2898 H2871 0.950 . S
C2898 C2884 1.377 . S
C2898 C2897 1.373 . S
C2899 C2883 1.377 . S
C2899 C2897 1.389 . S
C2899 C2900 1.524 . S
C2900 C2899 1.524 . S
C2900 C2901 1.397 . S
C2900 C2905 1.363 . S
C2901 H2872 0.950 . S
C2901 C2900 1.397 . S
C2901 C2902 1.334 . S
C2902 H2873 0.950 . S
C2902 C2901 1.334 . S
C2902 C2903 1.287 . S
C2903 C2902 1.287 . S
C2903 C2904 1.524 . S
C2903 H2906 0.999 . S
C2904 H2874 0.950 . S
C2904 C2903 1.524 . S
C2904 C2905 1.415 . S
C2905 H2875 0.950 . S
C2905 C2900 1.363 . S
C2905 C2904 1.415 . S
H2906 C2903 0.999 . S
H2907 C2888 0.913 . S
H2908 C2926 0.951 . S
H2909 C2928 0.951 . S
H2910 C2930 0.950 . S
H2911 C2931 0.950 . S
H2912 C2933 0.950 . S
H2913 C2936 0.950 . S
H2914 C2937 0.950 . S
H2915 C2939 0.950 . S
H2916 C2940 0.950 . S
H2917 C2941 0.951 . S
H2918 C2943 0.951 . S
H2919 C2945 0.950 . S
H2920 C2946 0.950 . S
H2921 C2948 0.950 . S
H2922 C2951 0.950 . S
H2923 C2952 0.950 . S
H2924 C2954 0.950 . S
H2925 C2955 0.950 . S
C2926 H2908 0.951 . S
C2926 C2927 1.366 . S
C2926 C2928 1.388 . S
C2927 C2926 1.366 . S
C2927 C2931 1.385 . S
C2928 H2909 0.951 . S
C2928 C2926 1.388 . S
C2928 C2929 1.366 . S
C2929 C2928 1.366 . S
C2929 C2930 1.414 . S
C2929 C2932 1.499 . S
C2930 H2910 0.950 . S
C2930 C2929 1.414 . S
C2930 C2931 1.374 . S
C2931 H2911 0.950 . S
C2931 C2927 1.385 . S
C2931 C2930 1.374 . S
C2932 C2929 1.499 . S
C2932 C2933 1.373 . S
C2932 C2934 1.389 . S
C2933 H2912 0.950 . S
C2933 C2932 1.373 . S
C2933 C2949 1.377 . S
C2934 C2932 1.389 . S
C2934 C2935 1.524 . S
C2934 C2948 1.377 . S
C2935 C2934 1.524 . S
C2935 C2936 1.397 . S
C2935 C2940 1.363 . S
C2936 H2913 0.950 . S
C2936 C2935 1.397 . S
C2936 C2937 1.334 . S
C2937 H2914 0.950 . S
C2937 C2936 1.334 . S
C2937 C2938 1.287 . S
C2938 C2937 1.287 . S
C2938 C2939 1.524 . S
C2938 H2957 0.913 . S
C2939 H2915 0.950 . S
C2939 C2938 1.524 . S
C2939 C2940 1.415 . S
C2940 H2916 0.950 . S
C2940 C2935 1.363 . S
C2940 C2939 1.415 . S
C2941 H2917 0.951 . S
C2941 C2942 1.366 . S
C2941 C2943 1.388 . S
C2942 C2941 1.366 . S
C2942 C2946 1.385 . S
C2943 H2918 0.951 . S
C2943 C2941 1.388 . S
C2943 C2944 1.366 . S
C2944 C2943 1.366 . S
C2944 C2945 1.414 . S
C2944 C2947 1.499 . S
C2945 H2919 0.950 . S
C2945 C2944 1.414 . S
C2945 C2946 1.374 . S
C2946 H2920 0.950 . S
C2946 C2942 1.385 . S
C2946 C2945 1.374 . S
C2947 C2944 1.499 . S
C2947 C2948 1.373 . S
C2947 C2949 1.389 . S
C2948 H2921 0.950 . S
C2948 C2934 1.377 . S
C2948 C2947 1.373 . S
C2949 C2933 1.377 . S
C2949 C2947 1.389 . S
C2949 C2950 1.524 . S
C2950 C2949 1.524 . S
C2950 C2951 1.397 . S
C2950 C2955 1.363 . S
C2951 H2922 0.950 . S
C2951 C2950 1.397 . S
C2951 C2952 1.334 . S
C2952 H2923 0.950 . S
C2952 C2951 1.334 . S
C2952 C2953 1.287 . S
C2953 C2952 1.287 . S
C2953 C2954 1.524 . S
C2953 H2956 0.999 1_545 S
C2954 H2924 0.950 . S
C2954 C2953 1.524 . S
C2954 C2955 1.415 . S
C2955 H2925 0.950 . S
C2955 C2950 1.363 . S
C2955 C2954 1.415 . S
H2956 C2953 0.999 1_565 S
H2957 C2938 0.913 . S
H2958 C2976 0.951 . S
H2959 C2978 0.951 . S
H2960 C2980 0.950 . S
H2961 C2981 0.950 . S
H2962 C2983 0.950 . S
H2963 C2986 0.950 . S
H2964 C2987 0.950 . S
H2965 C2989 0.950 . S
H2966 C2990 0.950 . S
H2967 C2991 0.951 . S
H2968 C2993 0.951 . S
H2969 C2995 0.950 . S
H2970 C2996 0.950 . S
H2971 C2998 0.950 . S
H2972 C3001 0.950 . S
H2973 C3002 0.950 . S
H2974 C3004 0.950 . S
H2975 C3005 0.950 . S
C2976 H2958 0.951 . S
C2976 C2977 1.366 . S
C2976 C2978 1.388 . S
C2977 C2976 1.366 . S
C2977 C2981 1.385 . S
C2978 H2959 0.951 . S
C2978 C2976 1.388 . S
C2978 C2979 1.366 . S
C2979 C2978 1.366 . S
C2979 C2980 1.414 . S
C2979 C2982 1.499 . S
C2980 H2960 0.950 . S
C2980 C2979 1.414 . S
C2980 C2981 1.374 . S
C2981 H2961 0.950 . S
C2981 C2977 1.385 . S
C2981 C2980 1.374 . S
C2982 C2979 1.499 . S
C2982 C2983 1.373 . S
C2982 C2984 1.389 . S
C2983 H2962 0.950 . S
C2983 C2982 1.373 . S
C2983 C2999 1.377 . S
C2984 C2982 1.389 . S
C2984 C2985 1.524 . S
C2984 C2998 1.377 . S
C2985 C2984 1.524 . S
C2985 C2986 1.397 . S
C2985 C2990 1.363 . S
C2986 H2963 0.950 . S
C2986 C2985 1.397 . S
C2986 C2987 1.334 . S
C2987 H2964 0.950 . S
C2987 C2986 1.334 . S
C2987 C2988 1.287 . S
C2988 C2987 1.287 . S
C2988 C2989 1.524 . S
C2988 H3007 0.913 . S
C2989 H2965 0.950 . S
C2989 C2988 1.524 . S
C2989 C2990 1.415 . S
C2990 H2966 0.950 . S
C2990 C2985 1.363 . S
C2990 C2989 1.415 . S
C2991 H2967 0.951 . S
C2991 C2992 1.366 . S
C2991 C2993 1.388 . S
C2992 C2991 1.366 . S
C2992 C2996 1.385 . S
C2993 H2968 0.951 . S
C2993 C2991 1.388 . S
C2993 C2994 1.366 . S
C2994 C2993 1.366 . S
C2994 C2995 1.414 . S
C2994 C2997 1.499 . S
C2995 H2969 0.950 . S
C2995 C2994 1.414 . S
C2995 C2996 1.374 . S
C2996 H2970 0.950 . S
C2996 C2992 1.385 . S
C2996 C2995 1.374 . S
C2997 C2994 1.499 . S
C2997 C2998 1.373 . S
C2997 C2999 1.389 . S
C2998 H2971 0.950 . S
C2998 C2984 1.377 . S
C2998 C2997 1.373 . S
C2999 C2983 1.377 . S
C2999 C2997 1.389 . S
C2999 C3000 1.524 . S
C3000 C2999 1.524 . S
C3000 C3001 1.397 . S
C3000 C3005 1.363 . S
C3001 H2972 0.950 . S
C3001 C3000 1.397 . S
C3001 C3002 1.334 . S
C3002 H2973 0.950 . S
C3002 C3001 1.334 . S
C3002 C3003 1.287 . S
C3003 C3002 1.287 . S
C3003 C3004 1.524 . S
C3003 H3006 0.999 . S
C3004 H2974 0.950 . S
C3004 C3003 1.524 . S
C3004 C3005 1.415 . S
C3005 H2975 0.950 . S
C3005 C3000 1.363 . S
C3005 C3004 1.415 . S
H3006 C3003 0.999 . S
H3007 C2988 0.913 . S
H3008 C3026 0.951 . S
H3009 C3028 0.951 . S
H3010 C3030 0.950 . S
H3011 C3031 0.950 . S
H3012 C3033 0.950 . S
H3013 C3036 0.950 . S
H3014 C3037 0.950 . S
H3015 C3039 0.950 . S
H3016 C3040 0.950 . S
H3017 C3041 0.951 . S
H3018 C3043 0.951 . S
H3019 C3045 0.950 . S
H3020 C3046 0.950 . S
H3021 C3048 0.950 . S
H3022 C3051 0.950 . S
H3023 C3052 0.950 . S
H3024 C3054 0.950 . S
H3025 C3055 0.950 . S
C3026 H3008 0.951 . S
C3026 C3027 1.366 . S
C3026 C3028 1.388 . S
C3027 C3026 1.366 . S
C3027 C3031 1.385 . S
C3028 H3009 0.951 . S
C3028 C3026 1.388 . S
C3028 C3029 1.366 . S
C3029 C3028 1.366 . S
C3029 C3030 1.414 . S
C3029 C3032 1.499 . S
C3030 H3010 0.950 . S
C3030 C3029 1.414 . S
C3030 C3031 1.374 . S
C3031 H3011 0.950 . S
C3031 C3027 1.385 . S
C3031 C3030 1.374 . S
C3032 C3029 1.499 . S
C3032 C3033 1.373 . S
C3032 C3034 1.389 . S
C3033 H3012 0.950 . S
C3033 C3032 1.373 . S
C3033 C3049 1.377 . S
C3034 C3032 1.389 . S
C3034 C3035 1.524 . S
C3034 C3048 1.377 . S
C3035 C3034 1.524 . S
C3035 C3036 1.397 . S
C3035 C3040 1.363 . S
C3036 H3013 0.950 . S
C3036 C3035 1.397 . S
C3036 C3037 1.334 . S
C3037 H3014 0.950 . S
C3037 C3036 1.334 . S
C3037 C3038 1.287 . S
C3038 C3037 1.287 . S
C3038 C3039 1.524 . S
C3038 H3057 0.913 . S
C3039 H3015 0.950 . S
C3039 C3038 1.524 . S
C3039 C3040 1.415 . S
C3040 H3016 0.950 . S
C3040 C3035 1.363 . S
C3040 C3039 1.415 . S
C3041 H3017 0.951 . S
C3041 C3042 1.366 . S
C3041 C3043 1.388 . S
C3042 C3041 1.366 . S
C3042 C3046 1.385 . S
C3043 H3018 0.951 . S
C3043 C3041 1.388 . S
C3043 C3044 1.366 . S
C3044 C3043 1.366 . S
C3044 C3045 1.414 . S
C3044 C3047 1.499 . S
C3045 H3019 0.950 . S
C3045 C3044 1.414 . S
C3045 C3046 1.374 . S
C3046 H3020 0.950 . S
C3046 C3042 1.385 . S
C3046 C3045 1.374 . S
C3047 C3044 1.499 . S
C3047 C3048 1.373 . S
C3047 C3049 1.389 . S
C3048 H3021 0.950 . S
C3048 C3034 1.377 . S
C3048 C3047 1.373 . S
C3049 C3033 1.377 . S
C3049 C3047 1.389 . S
C3049 C3050 1.524 . S
C3050 C3049 1.524 . S
C3050 C3051 1.397 . S
C3050 C3055 1.363 . S
C3051 H3022 0.950 . S
C3051 C3050 1.397 . S
C3051 C3052 1.334 . S
C3052 H3023 0.950 . S
C3052 C3051 1.334 . S
C3052 C3053 1.287 . S
C3053 C3052 1.287 . S
C3053 C3054 1.524 . S
C3053 H3056 0.999 . S
C3054 H3024 0.950 . S
C3054 C3053 1.524 . S
C3054 C3055 1.415 . S
C3055 H3025 0.950 . S
C3055 C3050 1.363 . S
C3055 C3054 1.415 . S
H3056 C3053 0.999 . S
H3057 C3038 0.913 . S
H3058 C3076 0.951 . S
H3059 C3078 0.951 . S
H3060 C3080 0.950 . S
H3061 C3081 0.950 . S
H3062 C3083 0.950 . S
H3063 C3086 0.950 . S
H3064 C3087 0.950 . S
H3065 C3089 0.950 . S
H3066 C3090 0.950 . S
H3067 C3091 0.951 . S
H3068 C3093 0.951 . S
H3069 C3095 0.950 . S
H3070 C3096 0.950 . S
H3071 C3098 0.950 . S
H3072 C3101 0.950 . S
H3073 C3102 0.950 . S
H3074 C3104 0.950 . S
H3075 C3105 0.950 . S
C3076 H3058 0.951 . S
C3076 C3077 1.366 . S
C3076 C3078 1.388 . S
C3077 C3076 1.366 . S
C3077 C3081 1.385 . S
C3078 H3059 0.951 . S
C3078 C3076 1.388 . S
C3078 C3079 1.366 . S
C3079 C3078 1.366 . S
C3079 C3080 1.414 . S
C3079 C3082 1.499 . S
C3080 H3060 0.950 . S
C3080 C3079 1.414 . S
C3080 C3081 1.374 . S
C3081 H3061 0.950 . S
C3081 C3077 1.385 . S
C3081 C3080 1.374 . S
C3082 C3079 1.499 . S
C3082 C3083 1.373 . S
C3082 C3084 1.389 . S
C3083 H3062 0.950 . S
C3083 C3082 1.373 . S
C3083 C3099 1.377 . S
C3084 C3082 1.389 . S
C3084 C3085 1.524 . S
C3084 C3098 1.377 . S
C3085 C3084 1.524 . S
C3085 C3086 1.397 . S
C3085 C3090 1.363 . S
C3086 H3063 0.950 . S
C3086 C3085 1.397 . S
C3086 C3087 1.334 . S
C3087 H3064 0.950 . S
C3087 C3086 1.334 . S
C3087 C3088 1.287 . S
C3088 C3087 1.287 . S
C3088 C3089 1.524 . S
C3088 H3107 0.913 . S
C3089 H3065 0.950 . S
C3089 C3088 1.524 . S
C3089 C3090 1.415 . S
C3090 H3066 0.950 . S
C3090 C3085 1.363 . S
C3090 C3089 1.415 . S
C3091 H3067 0.951 . S
C3091 C3092 1.366 . S
C3091 C3093 1.388 . S
C3092 C3091 1.366 . S
C3092 C3096 1.385 . S
C3093 H3068 0.951 . S
C3093 C3091 1.388 . S
C3093 C3094 1.366 . S
C3094 C3093 1.366 . S
C3094 C3095 1.414 . S
C3094 C3097 1.499 . S
C3095 H3069 0.950 . S
C3095 C3094 1.414 . S
C3095 C3096 1.374 . S
C3096 H3070 0.950 . S
C3096 C3092 1.385 . S
C3096 C3095 1.374 . S
C3097 C3094 1.499 . S
C3097 C3098 1.373 . S
C3097 C3099 1.389 . S
C3098 H3071 0.950 . S
C3098 C3084 1.377 . S
C3098 C3097 1.373 . S
C3099 C3083 1.377 . S
C3099 C3097 1.389 . S
C3099 C3100 1.524 . S
C3100 C3099 1.524 . S
C3100 C3101 1.397 . S
C3100 C3105 1.363 . S
C3101 H3072 0.950 . S
C3101 C3100 1.397 . S
C3101 C3102 1.334 . S
C3102 H3073 0.950 . S
C3102 C3101 1.334 . S
C3102 C3103 1.287 . S
C3103 C3102 1.287 . S
C3103 C3104 1.524 . S
C3103 H3106 0.999 . S
C3104 H3074 0.950 . S
C3104 C3103 1.524 . S
C3104 C3105 1.415 . S
C3105 H3075 0.950 . S
C3105 C3100 1.363 . S
C3105 C3104 1.415 . S
H3106 C3103 0.999 . S
H3107 C3088 0.913 . S
H3108 C3126 0.951 . S
H3109 C3128 0.951 . S
H3110 C3130 0.950 . S
H3111 C3131 0.950 . S
H3112 C3133 0.950 . S
H3113 C3136 0.950 . S
H3114 C3137 0.950 . S
H3115 C3139 0.950 . S
H3116 C3140 0.950 . S
H3117 C3141 0.951 . S
H3118 C3143 0.951 . S
H3119 C3145 0.950 . S
H3120 C3146 0.950 . S
H3121 C3148 0.950 . S
H3122 C3151 0.950 . S
H3123 C3152 0.950 . S
H3124 C3154 0.950 . S
H3125 C3155 0.950 . S
C3126 H3108 0.951 . S
C3126 C3127 1.366 . S
C3126 C3128 1.388 . S
C3127 C3126 1.366 . S
C3127 C3131 1.385 . S
C3128 H3109 0.951 . S
C3128 C3126 1.388 . S
C3128 C3129 1.366 . S
C3129 C3128 1.366 . S
C3129 C3130 1.414 . S
C3129 C3132 1.499 . S
C3130 H3110 0.950 . S
C3130 C3129 1.414 . S
C3130 C3131 1.374 . S
C3131 H3111 0.950 . S
C3131 C3127 1.385 . S
C3131 C3130 1.374 . S
C3132 C3129 1.499 . S
C3132 C3133 1.373 . S
C3132 C3134 1.389 . S
C3133 H3112 0.950 . S
C3133 C3132 1.373 . S
C3133 C3149 1.377 . S
C3134 C3132 1.389 . S
C3134 C3135 1.524 . S
C3134 C3148 1.377 . S
C3135 C3134 1.524 . S
C3135 C3136 1.397 . S
C3135 C3140 1.363 . S
C3136 H3113 0.950 . S
C3136 C3135 1.397 . S
C3136 C3137 1.334 . S
C3137 H3114 0.950 . S
C3137 C3136 1.334 . S
C3137 C3138 1.287 . S
C3138 C3137 1.287 . S
C3138 C3139 1.524 . S
C3138 H3157 0.913 . S
C3139 H3115 0.950 . S
C3139 C3138 1.524 . S
C3139 C3140 1.415 . S
C3140 H3116 0.950 . S
C3140 C3135 1.363 . S
C3140 C3139 1.415 . S
C3141 H3117 0.951 . S
C3141 C3142 1.366 . S
C3141 C3143 1.388 . S
C3142 C3141 1.366 . S
C3142 C3146 1.385 . S
C3143 H3118 0.951 . S
C3143 C3141 1.388 . S
C3143 C3144 1.366 . S
C3144 C3143 1.366 . S
C3144 C3145 1.414 . S
C3144 C3147 1.499 . S
C3145 H3119 0.950 . S
C3145 C3144 1.414 . S
C3145 C3146 1.374 . S
C3146 H3120 0.950 . S
C3146 C3142 1.385 . S
C3146 C3145 1.374 . S
C3147 C3144 1.499 . S
C3147 C3148 1.373 . S
C3147 C3149 1.389 . S
C3148 H3121 0.950 . S
C3148 C3134 1.377 . S
C3148 C3147 1.373 . S
C3149 C3133 1.377 . S
C3149 C3147 1.389 . S
C3149 C3150 1.524 . S
C3150 C3149 1.524 . S
C3150 C3151 1.397 . S
C3150 C3155 1.363 . S
C3151 H3122 0.950 . S
C3151 C3150 1.397 . S
C3151 C3152 1.334 . S
C3152 H3123 0.950 . S
C3152 C3151 1.334 . S
C3152 C3153 1.287 . S
C3153 C3152 1.287 . S
C3153 C3154 1.524 . S
C3153 H3156 0.999 1_545 S
C3154 H3124 0.950 . S
C3154 C3153 1.524 . S
C3154 C3155 1.415 . S
C3155 H3125 0.950 . S
C3155 C3150 1.363 . S
C3155 C3154 1.415 . S
H3156 C3153 0.999 1_565 S
H3157 C3138 0.913 . S
H3158 C3176 0.951 . S
H3159 C3178 0.951 . S
H3160 C3180 0.950 . S
H3161 C3181 0.950 . S
H3162 C3183 0.950 . S
H3163 C3186 0.950 . S
H3164 C3187 0.950 . S
H3165 C3189 0.950 . S
H3166 C3190 0.950 . S
H3167 C3191 0.951 . S
H3168 C3193 0.951 . S
H3169 C3195 0.950 . S
H3170 C3196 0.950 . S
H3171 C3198 0.950 . S
H3172 C3201 0.950 . S
H3173 C3202 0.950 . S
H3174 C3204 0.950 . S
H3175 C3205 0.950 . S
C3176 H3158 0.951 . S
C3176 C3177 1.366 . S
C3176 C3178 1.388 . S
C3177 C3176 1.366 . S
C3177 C3181 1.385 . S
C3178 H3159 0.951 . S
C3178 C3176 1.388 . S
C3178 C3179 1.366 . S
C3179 C3178 1.366 . S
C3179 C3180 1.414 . S
C3179 C3182 1.499 . S
C3180 H3160 0.950 . S
C3180 C3179 1.414 . S
C3180 C3181 1.374 . S
C3181 H3161 0.950 . S
C3181 C3177 1.385 . S
C3181 C3180 1.374 . S
C3182 C3179 1.499 . S
C3182 C3183 1.373 . S
C3182 C3184 1.389 . S
C3183 H3162 0.950 . S
C3183 C3182 1.373 . S
C3183 C3199 1.377 . S
C3184 C3182 1.389 . S
C3184 C3185 1.524 . S
C3184 C3198 1.377 . S
C3185 C3184 1.524 . S
C3185 C3186 1.397 . S
C3185 C3190 1.363 . S
C3186 H3163 0.950 . S
C3186 C3185 1.397 . S
C3186 C3187 1.334 . S
C3187 H3164 0.950 . S
C3187 C3186 1.334 . S
C3187 C3188 1.287 . S
C3188 C3187 1.287 . S
C3188 C3189 1.524 . S
C3188 H3207 0.913 . S
C3189 H3165 0.950 . S
C3189 C3188 1.524 . S
C3189 C3190 1.415 . S
C3190 H3166 0.950 . S
C3190 C3185 1.363 . S
C3190 C3189 1.415 . S
C3191 H3167 0.951 . S
C3191 C3192 1.366 . S
C3191 C3193 1.388 . S
C3192 C3191 1.366 . S
C3192 C3196 1.385 . S
C3193 H3168 0.951 . S
C3193 C3191 1.388 . S
C3193 C3194 1.366 . S
C3194 C3193 1.366 . S
C3194 C3195 1.414 . S
C3194 C3197 1.499 . S
C3195 H3169 0.950 . S
C3195 C3194 1.414 . S
C3195 C3196 1.374 . S
C3196 H3170 0.950 . S
C3196 C3192 1.385 . S
C3196 C3195 1.374 . S
C3197 C3194 1.499 . S
C3197 C3198 1.373 . S
C3197 C3199 1.389 . S
C3198 H3171 0.950 . S
C3198 C3184 1.377 . S
C3198 C3197 1.373 . S
C3199 C3183 1.377 . S
C3199 C3197 1.389 . S
C3199 C3200 1.524 . S
C3200 C3199 1.524 . S
C3200 C3201 1.397 . S
C3200 C3205 1.363 . S
C3201 H3172 0.950 . S
C3201 C3200 1.397 . S
C3201 C3202 1.334 . S
C3202 H3173 0.950 . S
C3202 C3201 1.334 . S
C3202 C3203 1.287 . S
C3203 C3202 1.287 . S
C3203 C3204 1.524 . S
C3203 H3206 0.999 . S
C3204 H3174 0.950 . S
C3204 C3203 1.524 . S
C3204 C3205 1.415 . S
C3205 H3175 0.950 . S
C3205 C3200 1.363 . S
C3205 C3204 1.415 . S
H3206 C3203 0.999 . S
H3207 C3188 0.913 . S
H3208 C3226 0.951 . S
H3209 C3228 0.951 . S
H3210 C3230 0.950 . S
H3211 C3231 0.950 . S
H3212 C3233 0.950 . S
H3213 C3236 0.950 . S
H3214 C3237 0.950 . S
H3215 C3239 0.950 . S
H3216 C3240 0.950 . S
H3217 C3241 0.951 . S
H3218 C3243 0.951 . S
H3219 C3245 0.950 . S
H3220 C3246 0.950 . S
H3221 C3248 0.950 . S
H3222 C3251 0.950 . S
H3223 C3252 0.950 . S
H3224 C3254 0.950 . S
H3225 C3255 0.950 . S
C3226 H3208 0.951 . S
C3226 C3227 1.366 . S
C3226 C3228 1.388 . S
C3227 C3226 1.366 . S
C3227 C3231 1.385 . S
C3228 H3209 0.951 . S
C3228 C3226 1.388 . S
C3228 C3229 1.366 . S
C3229 C3228 1.366 . S
C3229 C3230 1.414 . S
C3229 C3232 1.499 . S
C3230 H3210 0.950 . S
C3230 C3229 1.414 . S
C3230 C3231 1.374 . S
C3231 H3211 0.950 . S
C3231 C3227 1.385 . S
C3231 C3230 1.374 . S
C3232 C3229 1.499 . S
C3232 C3233 1.373 . S
C3232 C3234 1.389 . S
C3233 H3212 0.950 . S
C3233 C3232 1.373 . S
C3233 C3249 1.377 . S
C3234 C3232 1.389 . S
C3234 C3235 1.524 . S
C3234 C3248 1.377 . S
C3235 C3234 1.524 . S
C3235 C3236 1.397 . S
C3235 C3240 1.363 . S
C3236 H3213 0.950 . S
C3236 C3235 1.397 . S
C3236 C3237 1.334 . S
C3237 H3214 0.950 . S
C3237 C3236 1.334 . S
C3237 C3238 1.287 . S
C3238 C3237 1.287 . S
C3238 C3239 1.524 . S
C3238 H3257 0.913 . S
C3239 H3215 0.950 . S
C3239 C3238 1.524 . S
C3239 C3240 1.415 . S
C3240 H3216 0.950 . S
C3240 C3235 1.363 . S
C3240 C3239 1.415 . S
C3241 H3217 0.951 . S
C3241 C3242 1.366 . S
C3241 C3243 1.388 . S
C3242 C3241 1.366 . S
C3242 C3246 1.385 . S
C3243 H3218 0.951 . S
C3243 C3241 1.388 . S
C3243 C3244 1.366 . S
C3244 C3243 1.366 . S
C3244 C3245 1.414 . S
C3244 C3247 1.499 . S
C3245 H3219 0.950 . S
C3245 C3244 1.414 . S
C3245 C3246 1.374 . S
C3246 H3220 0.950 . S
C3246 C3242 1.385 . S
C3246 C3245 1.374 . S
C3247 C3244 1.499 . S
C3247 C3248 1.373 . S
C3247 C3249 1.389 . S
C3248 H3221 0.950 . S
C3248 C3234 1.377 . S
C3248 C3247 1.373 . S
C3249 C3233 1.377 . S
C3249 C3247 1.389 . S
C3249 C3250 1.524 . S
C3250 C3249 1.524 . S
C3250 C3251 1.397 . S
C3250 C3255 1.363 . S
C3251 H3222 0.950 . S
C3251 C3250 1.397 . S
C3251 C3252 1.334 . S
C3252 H3223 0.950 . S
C3252 C3251 1.334 . S
C3252 C3253 1.287 . S
C3253 C3252 1.287 . S
C3253 C3254 1.524 . S
C3253 H3256 0.999 . S
C3254 H3224 0.950 . S
C3254 C3253 1.524 . S
C3254 C3255 1.415 . S
C3255 H3225 0.950 . S
C3255 C3250 1.363 . S
C3255 C3254 1.415 . S
H3256 C3253 0.999 . S
H3257 C3238 0.913 . S
C892 C683 1.576 . S
C877 C74 1.573 . S
C942 C673 1.492 . S
C927 C153 1.407 . S
C992 C674 1.084 . S
C977 C231 1.085 . S
C1027 C310 0.723 . S
C1042 C696 0.485 . S
C1077 C394 1.409 . S
C1092 C699 1.494 . S
C1142 C682 1.083 . S
C1127 C494 1.084 . S
C1177 C573 0.723 . S
C1192 C672 0.491 . S
C1227 C651 1.574 . S
C1242 C690 1.577 . S
C1292 C703 2.489 . S
C1277 C56 2.568 . S
C1327 C151 1.536 . S
C1342 C752 1.491 . S
C1392 C730 1.507 . S
C1377 C237 1.449 . S
C1442 C744 1.068 . S
C1427 C326 1.070 . S
C1477 C410 1.070 . S
C1492 C705 1.059 . S
C1542 C758 2.483 . S
C1527 C476 2.572 . S
C1577 C571 1.537 . S
C1592 C714 1.494 . S
C1627 C657 1.416 . S
C1642 C735 1.495 . S
C1677 C58 1.415 . S
C1692 C761 1.494 . S
C1727 C392 1.536 . S
C1742 C745 1.491 . S
C1792 C704 1.507 . S
C1777 C478 1.446 . S
C1842 C736 1.068 . S
C1827 C567 1.069 . S
C1877 C655 2.569 . S
C1892 C727 2.490 . S
C1927 C235 2.572 . S
C1942 C734 2.483 . S
C1992 C721 1.496 . S
C1977 C308 1.537 . S
C2027 C147 1.071 . S
C2042 C713 1.059 . S
C2077 C662 1.574 . S
C2092 C776 1.575 . S
C2127 C405 1.409 . S
C2142 C766 1.492 . S
C2192 C767 1.083 . S
C2177 C483 1.084 . S
C2242 C789 0.490 . S
C2227 C562 0.723 . S
C2277 C142 1.409 . S
C2292 C792 1.493 . S
C2342 C775 1.083 . S
C2327 C242 1.085 . S
C2377 C321 0.721 . S
C2392 C765 0.486 . S
C2427 C63 1.573 . S
C2442 C783 1.575 . S
C2477 C644 2.569 . S
C2492 C796 2.490 . S
C2542 C845 1.491 . S
C2527 C403 1.537 . S
C2577 C489 1.448 . S
C2592 C823 1.508 . S
C2627 C578 1.070 . S
C2642 C837 1.068 . S
C2692 C798 1.059 . S
C2677 C158 1.070 . S
C2727 C224 2.572 . S
C2742 C851 2.484 . S
C2792 C807 1.496 . S
C2777 C319 1.536 . S
C2842 C828 1.494 . S
C2827 C69 1.414 . S
C2892 C854 1.495 . S
C2877 C646 1.417 . S
C2927 C140 1.536 . S
C2942 C838 1.490 . S
C2977 C226 1.446 . S
C2992 C797 1.508 . S
C3042 C829 1.068 . S
C3027 C315 1.070 . S
C3077 C67 2.569 . S
C3092 C820 2.489 . S
C3127 C487 2.572 . S
C3142 C827 2.481 . S
C3192 C814 1.496 . S
C3177 C560 1.536 . S
C3242 C806 1.059 . S
C3227 C399 1.070 . S
