# Generated by pormake.
# Topology soc, (4,6)-cn, num edge types: 1
# Building blocks:
#     Node 0, Type 0, BuildingBlock: ESEHIV_clean_sbu_0, # of connection points: 4
#     Node 1, Type 0, BuildingBlock: ESEHIV_clean_sbu_0, # of connection points: 4
#     Node 2, Type 0, BuildingBlock: ESEHIV_clean_sbu_0, # of connection points: 4
#     Node 3, Type 0, BuildingBlock: ESEHIV_clean_sbu_0, # of connection points: 4
#     Node 4, Type 0, BuildingBlock: ESEHIV_clean_sbu_0, # of connection points: 4
#     Node 5, Type 0, BuildingBlock: ESEHIV_clean_sbu_0, # of connection points: 4
#     Node 6, Type 0, BuildingBlock: ESEHIV_clean_sbu_0, # of connection points: 4
#     Node 7, Type 0, BuildingBlock: ESEHIV_clean_sbu_0, # of connection points: 4
#     Node 8, Type 0, BuildingBlock: ESEHIV_clean_sbu_0, # of connection points: 4
#     Node 9, Type 0, BuildingBlock: ESEHIV_clean_sbu_0, # of connection points: 4
#     Node 10, Type 0, BuildingBlock: ESEHIV_clean_sbu_0, # of connection points: 4
#     Node 11, Type 0, BuildingBlock: ESEHIV_clean_sbu_0, # of connection points: 4
#     Node 12, Type 1, BuildingBlock: PAMTOO_clean_sbu_0, # of connection points: 6
#     Node 13, Type 1, BuildingBlock: PAMTOO_clean_sbu_0, # of connection points: 6
#     Node 14, Type 1, BuildingBlock: PAMTOO_clean_sbu_0, # of connection points: 6
#     Node 15, Type 1, BuildingBlock: PAMTOO_clean_sbu_0, # of connection points: 6
#     Node 16, Type 1, BuildingBlock: PAMTOO_clean_sbu_0, # of connection points: 6
#     Node 17, Type 1, BuildingBlock: PAMTOO_clean_sbu_0, # of connection points: 6
#     Node 18, Type 1, BuildingBlock: PAMTOO_clean_sbu_0, # of connection points: 6
#     Node 19, Type 1, BuildingBlock: PAMTOO_clean_sbu_0, # of connection points: 6
#     Edge 20, Type (0, 1), BuildingBlock: ZUJKAS_clean_linker_0, # of connection points: 2
#     Edge 21, Type (0, 1), BuildingBlock: ZUJKAS_clean_linker_0, # of connection points: 2
#     Edge 22, Type (0, 1), BuildingBlock: ZUJKAS_clean_linker_0, # of connection points: 2
#     Edge 23, Type (0, 1), BuildingBlock: ZUJKAS_clean_linker_0, # of connection points: 2
#     Edge 24, Type (0, 1), BuildingBlock: ZUJKAS_clean_linker_0, # of connection points: 2
#     Edge 25, Type (0, 1), BuildingBlock: ZUJKAS_clean_linker_0, # of connection points: 2
#     Edge 26, Type (0, 1), BuildingBlock: ZUJKAS_clean_linker_0, # of connection points: 2
#     Edge 27, Type (0, 1), BuildingBlock: ZUJKAS_clean_linker_0, # of connection points: 2
#     Edge 28, Type (0, 1), BuildingBlock: ZUJKAS_clean_linker_0, # of connection points: 2
#     Edge 29, Type (0, 1), BuildingBlock: ZUJKAS_clean_linker_0, # of connection points: 2
#     Edge 30, Type (0, 1), BuildingBlock: ZUJKAS_clean_linker_0, # of connection points: 2
#     Edge 31, Type (0, 1), BuildingBlock: ZUJKAS_clean_linker_0, # of connection points: 2
#     Edge 32, Type (0, 1), BuildingBlock: ZUJKAS_clean_linker_0, # of connection points: 2
#     Edge 33, Type (0, 1), BuildingBlock: ZUJKAS_clean_linker_0, # of connection points: 2
#     Edge 34, Type (0, 1), BuildingBlock: ZUJKAS_clean_linker_0, # of connection points: 2
#     Edge 35, Type (0, 1), BuildingBlock: ZUJKAS_clean_linker_0, # of connection points: 2
#     Edge 36, Type (0, 1), BuildingBlock: ZUJKAS_clean_linker_0, # of connection points: 2
#     Edge 37, Type (0, 1), BuildingBlock: ZUJKAS_clean_linker_0, # of connection points: 2
#     Edge 38, Type (0, 1), BuildingBlock: ZUJKAS_clean_linker_0, # of connection points: 2
#     Edge 39, Type (0, 1), BuildingBlock: ZUJKAS_clean_linker_0, # of connection points: 2
#     Edge 40, Type (0, 1), BuildingBlock: ZUJKAS_clean_linker_0, # of connection points: 2
#     Edge 41, Type (0, 1), BuildingBlock: ZUJKAS_clean_linker_0, # of connection points: 2
#     Edge 42, Type (0, 1), BuildingBlock: ZUJKAS_clean_linker_0, # of connection points: 2
#     Edge 43, Type (0, 1), BuildingBlock: ZUJKAS_clean_linker_0, # of connection points: 2
#     Edge 44, Type (0, 1), BuildingBlock: ZUJKAS_clean_linker_0, # of connection points: 2
#     Edge 45, Type (0, 1), BuildingBlock: ZUJKAS_clean_linker_0, # of connection points: 2
#     Edge 46, Type (0, 1), BuildingBlock: ZUJKAS_clean_linker_0, # of connection points: 2
#     Edge 47, Type (0, 1), BuildingBlock: ZUJKAS_clean_linker_0, # of connection points: 2
#     Edge 48, Type (0, 1), BuildingBlock: ZUJKAS_clean_linker_0, # of connection points: 2
#     Edge 49, Type (0, 1), BuildingBlock: ZUJKAS_clean_linker_0, # of connection points: 2
#     Edge 50, Type (0, 1), BuildingBlock: ZUJKAS_clean_linker_0, # of connection points: 2
#     Edge 51, Type (0, 1), BuildingBlock: ZUJKAS_clean_linker_0, # of connection points: 2
#     Edge 52, Type (0, 1), BuildingBlock: ZUJKAS_clean_linker_0, # of connection points: 2
#     Edge 53, Type (0, 1), BuildingBlock: ZUJKAS_clean_linker_0, # of connection points: 2
#     Edge 54, Type (0, 1), BuildingBlock: ZUJKAS_clean_linker_0, # of connection points: 2
#     Edge 55, Type (0, 1), BuildingBlock: ZUJKAS_clean_linker_0, # of connection points: 2
#     Edge 56, Type (0, 1), BuildingBlock: ZUJKAS_clean_linker_0, # of connection points: 2
#     Edge 57, Type (0, 1), BuildingBlock: ZUJKAS_clean_linker_0, # of connection points: 2
#     Edge 58, Type (0, 1), BuildingBlock: ZUJKAS_clean_linker_0, # of connection points: 2
#     Edge 59, Type (0, 1), BuildingBlock: ZUJKAS_clean_linker_0, # of connection points: 2
#     Edge 60, Type (0, 1), BuildingBlock: ZUJKAS_clean_linker_0, # of connection points: 2
#     Edge 61, Type (0, 1), BuildingBlock: ZUJKAS_clean_linker_0, # of connection points: 2
#     Edge 62, Type (0, 1), BuildingBlock: ZUJKAS_clean_linker_0, # of connection points: 2
#     Edge 63, Type (0, 1), BuildingBlock: ZUJKAS_clean_linker_0, # of connection points: 2
#     Edge 64, Type (0, 1), BuildingBlock: ZUJKAS_clean_linker_0, # of connection points: 2
#     Edge 65, Type (0, 1), BuildingBlock: ZUJKAS_clean_linker_0, # of connection points: 2
#     Edge 66, Type (0, 1), BuildingBlock: ZUJKAS_clean_linker_0, # of connection points: 2
#     Edge 67, Type (0, 1), BuildingBlock: ZUJKAS_clean_linker_0, # of connection points: 2
# Relax obj value: 0.089
# Max RMSD: 0.190
# Mean RMSD: 0.137
data_MOF--net-soc--node1-ESEHIV_clean_sbu_0--node2-PAMTOO_clean_sbu_0--edge1-ZUJKAS_clean_linker_0
_symmetry_space_group_name_H-M    P1
_symmetry_Int_Tables_number       1
_symmetry_cell_setting            triclinic
loop_
_symmetry_equiv_pos_as_xyz
'x, y, z'
_cell_length_a     70.357801
_cell_length_b     57.229509
_cell_length_c     54.997431
_cell_angle_alpha  91.826405
_cell_angle_beta   91.69834
_cell_angle_gamma 74.629289
loop_
_atom_site_label
_atom_site_type_symbol
_atom_site_fract_x
_atom_site_fract_y
_atom_site_fract_z
_atom_type_partial_charge
Cu0 Cu 0.05429 0.01997 0.31417 0.0
N1 N 0.06478 0.04041 0.33458 0.0
N2 N 0.0819 0.06698 0.3454 0.0
C3 C 0.07595 0.05437 0.3269 0.0
C4 C 0.07413 0.06073 0.36556 0.0
C5 C 0.06346 0.04441 0.35881 0.0
O6 O 0.07641 0.99913 0.29607 0.0
C7 C 0.01901 0.05372 0.3092 0.0
O8 O 0.02069 0.05005 0.33273 0.0
H9 H 0.07994 0.05484 0.3081 0.0
H10 H 0.05531 0.03612 0.37071 0.0
N11 N 0.04335 0.9994 0.33171 0.0
N12 N 0.0244 0.97482 0.33969 0.0
C13 C 0.02827 0.99051 0.3239 0.0
C14 C 0.04931 0.98899 0.35319 0.0
C15 C 0.03764 0.97389 0.35819 0.0
C16 C 0.09124 0.98905 0.30957 0.0
O17 O 0.09021 0.99375 0.33309 0.0
H18 H 0.02042 0.99547 0.30683 0.0
H19 H 0.06158 0.99168 0.36419 0.0
O20 O 0.03276 0.04148 0.29565 0.0
H21 H 0.07584 0.06766 0.38381 0.0
H22 H 0.03926 0.96256 0.3739 0.0
Cu23 Cu 0.04414 0.0322 0.7199 0.0
N24 N 0.03341 0.0116 0.70015 0.0
N25 N 0.01422 0.9873 0.68959 0.0
C26 C 0.01875 1.00234 0.70686 0.0
C27 C 0.02667 0.98701 0.67128 0.0
C28 C 0.0385 1.00206 0.67785 0.0
O29 O 0.02215 0.05396 0.7372 0.0
C30 C 0.08041 1.00043 0.72751 0.0
O31 O 0.08058 1.0045 0.70415 0.0
H32 H 0.01187 1.0062 0.72441 0.0
H33 H 0.0501 1.00558 0.66726 0.0
N34 N 0.05563 0.0517 0.70178 0.0
N35 N 0.07542 0.07505 0.69343 0.0
C36 C 0.06954 0.06217 0.71047 0.0
C37 C 0.05244 0.05824 0.67843 0.0
C38 C 0.06463 0.07269 0.67322 0.0
C39 C 0.00804 0.06488 0.72313 0.0
O40 O 0.00983 0.06065 0.69957 0.0
H41 H 0.0751 0.0604 0.72907 0.0
H42 H 0.04207 0.05283 0.66605 0.0
O43 O 0.06517 0.01122 0.73951 0.0
H44 H 0.02716 0.97675 0.65433 0.0
H45 H 0.06568 0.08047 0.65579 0.0
Cu46 Cu 0.31777 0.01307 0.02555 0.0
N47 N 0.33382 0.98524 0.01127 0.0
N48 N 0.34322 0.9532 0.98602 0.0
C49 C 0.32801 0.97126 0.99408 0.0
C50 C 0.35922 0.95595 0.99876 0.0
C51 C 0.35337 0.97585 0.01426 0.0
O52 O 0.29108 0.00963 0.02784 0.0
C53 C 0.3082 0.04293 0.98413 0.0
O54 O 0.2982 0.02724 0.97769 0.0
H55 H 0.31289 0.97441 0.98764 0.0
H56 H 0.36277 0.98328 0.02641 0.0
N57 N 0.32721 0.01872 0.05651 0.0
N58 N 0.33167 0.03842 0.09098 0.0
C59 C 0.32304 0.04017 0.06862 0.0
C60 C 0.33881 1.00275 0.07169 0.0
C61 C 0.34165 0.01488 0.09298 0.0
C62 C 0.28235 0.99909 0.04238 0.0
O63 O 0.26326 1.00232 0.03917 0.0
H64 H 0.31395 0.05675 0.06102 0.0
H65 H 0.34461 0.9836 0.06767 0.0
O66 O 0.31759 0.04041 1.00453 0.0
H67 H 0.37416 0.9449 0.99652 0.0
H68 H 0.35007 1.00691 0.10884 0.0
Cu69 Cu 0.08183 0.32508 0.0198 0.0
N70 N 0.09238 0.33925 0.99521 0.0
N71 N 0.11153 0.34355 0.96484 0.0
C72 C 0.10752 0.32821 0.98092 0.0
C73 C 0.09829 0.36504 0.96922 0.0
C74 C 0.08651 0.36232 0.98796 0.0
O75 O 0.1028 0.30998 0.04329 0.0
C76 C 0.05553 0.29443 0.01378 0.0
O77 O 0.05503 0.29509 0.03767 0.0
H78 H 0.1153 0.30925 0.98225 0.0
H79 H 0.07457 0.37619 0.99584 0.0
N80 N 0.06323 0.34891 0.0368 0.0
N81 N 0.03474 0.36573 0.05518 0.0
C82 C 0.04367 0.3513 0.03669 0.0
C83 C 0.06674 0.36302 0.0555 0.0
C84 C 0.04921 0.3734 0.0669 0.0
C85 C 0.11627 0.32075 0.04814 0.0
O86 O 0.11599 0.34048 0.03642 0.0
H87 H 0.03639 0.34094 0.02467 0.0
H88 H 0.08123 0.36419 0.06158 0.0
O89 O 0.06767 0.30369 1.00342 0.0
H90 H 0.09737 0.38168 0.95988 0.0
H91 H 0.0475 0.38445 0.08344 0.0
Cu92 Cu 0.78468 0.03577 0.01794 0.0
N93 N 0.76934 0.06469 1.00572 0.0
N94 N 0.76077 0.10099 0.98897 0.0
C95 C 0.77582 0.08247 0.99635 0.0
C96 C 0.74418 0.09449 0.99362 0.0
C97 C 0.74954 0.07203 1.00402 0.0
O98 O 0.81191 0.03738 0.02294 0.0
C99 C 0.79717 0.99069 0.99024 0.0
O100 O 0.81284 0.9866 1.00469 0.0
H101 H 0.79128 0.08161 0.99466 0.0
H102 H 0.73974 0.0617 0.00988 0.0
N103 N 0.77442 0.03017 0.04726 0.0
N104 N 0.76883 0.01181 0.08042 0.0
C105 C 0.77849 1.00926 0.05923 0.0
C106 C 0.76179 0.0465 0.06126 0.0
C107 C 0.75833 0.03523 0.08176 0.0
C108 C 0.82238 0.04687 0.03766 0.0
O109 O 0.84142 0.04137 0.03378 0.0
H110 H 0.78863 0.99268 0.05274 0.0
H111 H 0.75562 0.06533 0.05695 0.0
O112 O 0.78348 0.01018 0.99343 0.0
H113 H 0.72929 0.10519 0.98981 0.0
H114 H 0.74871 0.0436 0.0964 0.0
Cu115 Cu 0.01344 0.72787 0.02671 0.0
N116 N 1.0015 0.7091 1.00597 0.0
N117 N 0.98314 0.69956 0.97526 0.0
C118 C 0.99045 0.717 0.98598 0.0
C119 C 0.99001 0.67985 0.98903 0.0
C120 C 1.00136 0.68578 0.00792 0.0
O121 O 0.99439 0.74467 0.05084 0.0
C122 C 0.03492 0.73801 0.98897 0.0
O123 O 0.03489 0.71558 0.98315 0.0
H124 H 0.9874 0.73545 0.9799 0.0
H125 H 0.00878 0.67395 0.02216 0.0
N126 N 0.03455 0.70853 0.04414 0.0
N127 N 0.06361 0.69934 0.06406 0.0
C128 C 0.05189 0.71393 0.04776 0.0
C129 C 0.03522 0.6898 0.05861 0.0
C130 C 0.05324 0.68394 0.07081 0.0
C131 C 0.976 0.75282 0.04627 0.0
O132 O 0.96955 0.75317 0.0236 0.0
H133 H 0.05548 0.72895 0.03925 0.0
H134 H 0.02309 0.68189 0.06119 0.0
O135 O 0.02519 0.74833 1.00736 0.0
H136 H 0.98705 0.66239 0.98578 0.0
H137 H 0.05782 0.67043 0.08463 0.0
Cu138 Cu 0.54463 0.53045 0.82694 0.0
N139 N 0.55772 0.55067 0.84379 0.0
N140 N 0.57725 0.57539 0.85068 0.0
C141 C 0.5697 0.56242 0.83389 0.0
C142 C 0.56961 0.57172 0.87202 0.0
C143 C 0.55751 0.55654 0.86769 0.0
O144 O 0.56437 0.50563 0.80958 0.0
C145 C 0.5095 0.56445 0.82281 0.0
O146 O 0.51335 0.5639 0.84634 0.0
H147 H 0.57304 0.56117 0.81477 0.0
H148 H 0.5491 0.55033 0.88103 0.0
N149 N 0.53406 0.51292 0.8484 0.0
N150 N 0.5153 0.48973 0.86057 0.0
C151 C 0.51815 0.50466 0.84336 0.0
C152 C 0.54168 0.50283 0.8695 0.0
C153 C 0.53008 0.48855 0.87712 0.0
C154 C 0.57579 0.50749 0.79265 0.0
O155 O 0.57308 0.52815 0.78159 0.0
H156 H 0.50954 0.50846 0.82662 0.0
H157 H 0.55518 0.50483 0.87816 0.0
O158 O 0.52218 0.55076 0.80882 0.0
H159 H 0.57239 0.57962 0.88946 0.0
H160 H 0.53265 0.47767 0.89323 0.0
Cu161 Cu 0.5545 0.51961 0.21601 0.0
N162 N 0.54093 0.5 0.19891 0.0
N163 N 0.51859 0.47913 0.19085 0.0
C164 C 0.5248 0.49425 0.20667 0.0
C165 C 0.53136 0.47537 0.17234 0.0
C166 C 0.54511 0.48825 0.17737 0.0
O167 O 0.53482 0.5452 0.23294 0.0
C168 C 0.57665 0.47729 0.24076 0.0
O169 O 0.56131 0.46882 0.2359 0.0
H170 H 0.5182 0.50053 0.22401 0.0
H171 H 0.5574 0.48883 0.16626 0.0
N172 N 0.56731 0.5349 0.1948 0.0
N173 N 0.58841 0.55505 0.18269 0.0
C174 C 0.58297 0.5433 0.20104 0.0
C175 C 0.56269 0.54143 0.17162 0.0
C176 C 0.57567 0.55396 0.16411 0.0
C177 C 0.52091 0.55693 0.21907 0.0
O178 O 0.52126 0.55084 0.19583 0.0
H179 H 0.58978 0.54154 0.21904 0.0
H180 H 0.55053 0.53776 0.16109 0.0
O181 O 0.57563 0.49926 0.23601 0.0
H182 H 0.53087 0.46415 0.15625 0.0
H183 H 0.57567 0.56175 0.14643 0.0
Cu184 Cu 0.78994 0.52609 0.50707 0.0
N185 N 0.77609 0.54787 0.48441 0.0
N186 N 0.77088 0.56968 0.45085 0.0
C187 C 0.78389 0.55288 0.46387 0.0
C188 C 0.75408 0.57525 0.46359 0.0
C189 C 0.75737 0.56171 0.4844 0.0
O190 O 0.80346 0.5429 0.5313 0.0
C191 C 0.80727 0.47639 0.49173 0.0
O192 O 0.80221 0.47083 0.51314 0.0
H193 H 0.79895 0.54447 0.45878 0.0
H194 H 0.747 0.5622 0.49866 0.0
N195 N 0.77235 0.51468 0.52466 0.0
N196 N 0.7636 0.49402 0.5541 0.0
C197 C 0.77627 0.50649 0.54732 0.0
C198 C 0.75629 0.50784 0.51687 0.0
C199 C 0.75079 0.49511 0.53512 0.0
C200 C 0.80368 0.56508 0.52962 0.0
O201 O 0.7978 0.57613 0.5091 0.0
H202 H 0.78915 0.50807 0.55779 0.0
H203 H 0.75004 0.51024 0.49863 0.0
O204 O 0.80556 0.49865 0.48724 0.0
H205 H 0.74064 0.58868 0.45866 0.0
H206 H 0.73937 0.48562 0.53367 0.0
Cu207 Cu 0.58707 0.79263 0.52426 0.0
N208 N 0.60262 0.77654 0.49851 0.0
N209 N 0.62462 0.76859 0.46862 0.0
C210 C 0.61714 0.78345 0.48765 0.0
C211 C 0.61446 0.75155 0.46779 0.0
C212 C 0.60093 0.75653 0.48615 0.0
O213 O 0.60356 0.80403 0.54826 0.0
C214 C 0.56318 0.8251 0.49006 0.0
O215 O 0.57826 0.81858 0.47556 0.0
H216 H 0.62155 0.79961 0.49312 0.0
H217 H 0.59037 0.74649 0.48996 0.0
N218 N 0.57491 0.77206 0.5399 0.0
N219 N 0.55185 0.76092 0.56049 0.0
C220 C 0.55705 0.77933 0.55005 0.0
C221 C 0.58138 0.74819 0.54402 0.0
C222 C 0.56719 0.74127 0.55672 0.0
C223 C 0.61901 0.78845 0.55552 0.0
O224 O 0.62298 0.76642 0.5459 0.0
H225 H 0.54823 0.79795 0.55011 0.0
H226 H 0.5954 0.73666 0.53826 0.0
O227 O 0.56515 0.81808 0.51193 0.0
H228 H 0.61653 0.73652 0.45483 0.0
H229 H 0.56807 0.7231 0.56249 0.0
Cu230 Cu 0.30806 0.52902 0.52066 0.0
N231 N 0.3238 0.54309 0.50159 0.0
N232 N 0.33125 0.56904 0.47588 0.0
C233 C 0.31721 0.56415 0.48971 0.0
C234 C 0.34729 0.55019 0.47922 0.0
C235 C 0.34263 0.5342 0.49487 0.0
O236 O 0.29145 0.55526 0.53952 0.0
C237 C 0.30351 0.49358 0.48833 0.0
O238 O 0.32197 0.48493 0.49543 0.0
H239 H 0.30229 0.57552 0.49103 0.0
H240 H 0.35213 0.51692 0.50024 0.0
N241 N 0.32197 0.50578 0.54311 0.0
N242 N 0.32757 0.47761 0.57212 0.0
C243 C 0.31404 0.49182 0.55701 0.0
C244 C 0.34117 0.5003 0.54968 0.0
C245 C 0.34467 0.48299 0.56736 0.0
C246 C 0.30121 0.56602 0.55365 0.0
O247 O 0.32056 0.55835 0.55391 0.0
H248 H 0.29852 0.49255 0.55632 0.0
H249 H 0.35187 0.50857 0.54246 0.0
O250 O 0.29353 0.51344 0.49783 0.0
H251 H 0.36122 0.5476 0.47028 0.0
H252 H 0.35884 0.47503 0.57594 0.0
Cu253 Cu 0.51481 0.22887 0.5187 0.0
N254 N 0.53524 0.21042 0.49964 0.0
N255 N 0.56339 0.20158 0.47931 0.0
C256 C 0.5504 0.21851 0.49243 0.0
C257 C 0.55607 0.18202 0.47817 0.0
C258 C 0.53874 0.18748 0.49085 0.0
O259 O 0.52763 0.25021 0.53785 0.0
C260 C 0.48701 0.23191 0.48119 0.0
O261 O 0.49579 0.20861 0.48038 0.0
H262 H 0.55175 0.23662 0.4966 0.0
H263 H 0.52943 0.17551 0.49353 0.0
N264 N 0.50554 0.20907 0.53921 0.0
N265 N 0.48716 0.19815 0.56706 0.0
C266 C 0.48902 0.21585 0.5523 0.0
C267 C 0.51442 0.18623 0.54564 0.0
C268 C 0.50311 0.17941 0.56271 0.0
C269 C 0.5299 0.24956 0.56095 0.0
O270 O 0.52012 0.23762 0.57346 0.0
H271 H 0.47917 0.23391 0.55184 0.0
H272 H 0.52845 0.17554 0.53902 0.0
O273 O 0.49287 0.24529 0.49715 0.0
H274 H 0.56291 0.16486 0.46919 0.0
H275 H 0.50665 0.1621 0.57149 0.0
Dy276 Dy 0.27853 0.27582 0.29608 0.0
Dy277 Dy 0.30428 0.29924 0.25806 0.0
C278 C 0.30315 0.24363 0.25388 0.0
O279 O 0.30949 0.26785 0.31152 0.0
O280 O 0.32099 0.29701 0.29342 0.0
O281 O 0.27625 0.24624 0.3181 0.0
O282 O 0.25272 0.27964 0.31787 0.0
O283 O 0.28579 0.33094 0.27907 0.0
O284 O 0.27973 0.31129 0.31259 0.0
O285 O 0.27872 0.29309 0.23604 0.0
O286 O 0.2571 0.29235 0.26636 0.0
O287 O 0.306 0.32625 0.23205 0.0
O288 O 0.33147 0.2963 0.23967 0.0
C289 C 0.3223 0.2809 0.31033 0.0
O290 O 0.28659 0.24885 0.26568 0.0
O291 O 0.31421 0.25883 0.25347 0.0
C292 C 0.24366 0.24329 0.32398 0.0
C293 C 0.21574 0.21583 0.32431 0.0
C294 C 0.23189 0.20916 0.30871 0.0
C295 C 0.24569 0.22283 0.30846 0.0
C296 C 0.22744 0.25013 0.33932 0.0
C297 C 0.21357 0.2366 0.33943 0.0
C298 C 0.25849 0.25733 0.32513 0.0
C299 C 0.28021 0.33118 0.3017 0.0
C300 C 0.26088 0.29403 0.24327 0.0
C301 C 0.33765 0.33251 0.22692 0.0
C302 C 0.36537 0.35991 0.22329 0.0
C303 C 0.3599 0.35391 0.24624 0.0
C304 C 0.34618 0.34023 0.24804 0.0
C305 C 0.34259 0.3391 0.20412 0.0
C306 C 0.3563 0.35266 0.2023 0.0
C307 C 0.3246 0.31632 0.22793 0.0
H308 H 0.23381 0.19341 0.29665 0.0
H309 H 0.258 0.21726 0.2963 0.0
H310 H 0.22563 0.26581 0.35147 0.0
H311 H 0.2014 0.24206 0.35182 0.0
H312 H 0.36671 0.3591 0.26273 0.0
H313 H 0.34256 0.33522 0.26581 0.0
H314 H 0.33613 0.33331 0.18764 0.0
H315 H 0.35992 0.35732 0.18439 0.0
Dy316 Dy 0.79324 0.2513 0.27884 0.0
Dy317 Dy 0.80993 0.28419 0.24079 0.0
C318 C 0.76455 0.29883 0.25631 0.0
O319 O 0.78718 0.23865 0.24094 0.0
O320 O 0.8113 0.24923 0.2204 0.0
O321 O 0.77237 0.23087 0.28533 0.0
O322 O 0.79463 0.23265 0.31287 0.0
O323 O 0.83713 0.25864 0.25649 0.0
O324 O 0.82357 0.22914 0.27 0.0
O325 O 0.80393 0.30655 0.27531 0.0
O326 O 0.80529 0.27688 0.30283 0.0
O327 O 0.82668 0.3098 0.23463 0.0
O328 O 0.81021 0.29828 0.20467 0.0
C329 C 0.79867 0.23609 0.22206 0.0
O330 O 0.76941 0.28573 0.27581 0.0
O331 O 0.77685 0.29673 0.2383 0.0
C332 C 0.76395 0.22831 0.32601 0.0
C333 C 0.73284 0.23042 0.35787 0.0
C334 C 0.7322 0.24976 0.34241 0.0
C335 C 0.74766 0.24874 0.32663 0.0
C336 C 0.76499 0.20945 0.34202 0.0
C337 C 0.74961 0.21049 0.35786 0.0
C338 C 0.77899 0.22528 0.30734 0.0
C339 C 0.83895 0.23655 0.26412 0.0
C340 C 0.80561 0.29912 0.29783 0.0
C341 C 0.83883 0.31062 0.1949 0.0
C342 C 0.86883 0.31711 0.16483 0.0
C343 C 0.87343 0.3077 0.18827 0.0
C344 C 0.85859 0.30444 0.20313 0.0
C345 C 0.83431 0.31909 0.17122 0.0
C346 C 0.84914 0.32221 0.15629 0.0
C347 C 0.82257 0.31085 0.21134 0.0
H348 H 0.7196 0.26549 0.34222 0.0
H349 H 0.74661 0.26353 0.31441 0.0
H350 H 0.77741 0.1935 0.34168 0.0
H351 H 0.75048 0.19519 0.36933 0.0
H352 H 0.88837 0.30378 0.19556 0.0
H353 H 0.86253 0.29789 0.22135 0.0
H354 H 0.81918 0.324 0.16449 0.0
H355 H 0.84512 0.32903 0.1382 0.0
Dy356 Dy 0.78734 0.76198 0.24047 0.0
Dy357 Dy 0.81439 0.78217 0.28284 0.0
C358 C 0.77071 0.77777 0.29387 0.0
O359 O 0.77802 0.80239 0.23938 0.0
O360 O 0.8061 0.81078 0.25516 0.0
O361 O 0.75957 0.76519 0.22148 0.0
O362 O 0.78515 0.73636 0.21135 0.0
O363 O 0.8349 0.76558 0.25275 0.0
O364 O 0.81252 0.76918 0.22094 0.0
O365 O 0.81172 0.74669 0.29547 0.0
O366 O 0.80631 0.72938 0.25866 0.0
O367 O 0.84064 0.77643 0.30565 0.0
O368 O 0.81805 0.81058 0.30793 0.0
C369 C 0.78948 0.81703 0.2426 0.0
O370 O 0.77159 0.76264 0.2752 0.0
O371 O 0.78366 0.79056 0.29729 0.0
C372 C 0.75404 0.72792 0.20787 0.0
C373 C 0.72965 0.69585 0.20531 0.0
C374 C 0.73167 0.7086 0.22711 0.0
C375 C 0.74383 0.7244 0.22843 0.0
C376 C 0.75231 0.71496 0.18622 0.0
C377 C 0.74028 0.69901 0.18495 0.0
C378 C 0.76616 0.74535 0.20851 0.0
C379 C 0.83067 0.76633 0.22926 0.0
C380 C 0.81071 0.7277 0.282 0.0
C381 C 0.85093 0.81184 0.31551 0.0
C382 C 0.8799 0.83792 0.31781 0.0
C383 C 0.87752 0.82415 0.29679 0.0
C384 C 0.86312 0.81126 0.29563 0.0
C385 C 0.85315 0.82563 0.33637 0.0
C386 C 0.86745 0.83857 0.33752 0.0
C387 C 0.8357 0.79846 0.31488 0.0
H388 H 0.72387 0.70631 0.24318 0.0
H389 H 0.74511 0.73404 0.24542 0.0
H390 H 0.76009 0.71742 0.17019 0.0
H391 H 0.73891 0.6896 0.16785 0.0
H392 H 0.88695 0.82304 0.28135 0.0
H393 H 0.86156 0.8008 0.27928 0.0
H394 H 0.84375 0.82645 0.35181 0.0
H395 H 0.86856 0.84933 0.3538 0.0
Dy396 Dy 0.32333 0.80527 0.28046 0.0
Dy397 Dy 0.30614 0.76982 0.24246 0.0
C398 C 0.35206 0.75754 0.25742 0.0
O399 O 0.3279 0.81586 0.24246 0.0
O400 O 0.30262 0.80454 0.2228 0.0
O401 O 0.344 0.82664 0.28713 0.0
O402 O 0.32174 0.82705 0.31368 0.0
O403 O 0.2792 0.79391 0.25949 0.0
O404 O 0.29201 0.82537 0.27195 0.0
O405 O 0.31451 0.74853 0.2764 0.0
O406 O 0.31528 0.77859 0.3048 0.0
O407 O 0.29084 0.74222 0.23606 0.0
O408 O 0.30416 0.75511 0.20594 0.0
C409 C 0.3153 0.81777 0.22403 0.0
O410 O 0.34794 0.77147 0.27704 0.0
O411 O 0.33906 0.75886 0.23947 0.0
C412 C 0.35197 0.83396 0.32788 0.0
C413 C 0.38301 0.83466 0.36126 0.0
C414 C 0.38079 0.81254 0.35124 0.0
C415 C 0.36539 0.8122 0.33463 0.0
C416 C 0.35373 0.85592 0.33836 0.0
C417 C 0.36909 0.8563 0.3549 0.0
C418 C 0.33712 0.83447 0.30847 0.0
C419 C 0.27684 0.81659 0.26678 0.0
C420 C 0.3149 0.75616 0.29916 0.0
C421 C 0.27611 0.74048 0.19739 0.0
C422 C 0.24235 0.735 0.17151 0.0
C423 C 0.24103 0.75457 0.18813 0.0
C424 C 0.2578 0.75728 0.20101 0.0
C425 C 0.27761 0.72152 0.18023 0.0
C426 C 0.2609 0.7188 0.16737 0.0
C427 C 0.29342 0.74113 0.21264 0.0
H428 H 0.39109 0.79552 0.35598 0.0
H429 H 0.36424 0.79507 0.32661 0.0
H430 H 0.34356 0.8729 0.33317 0.0
H431 H 0.37048 0.87367 0.36197 0.0
H432 H 0.22694 0.76725 0.19185 0.0
H433 H 0.25639 0.772 0.2143 0.0
H434 H 0.29165 0.70842 0.17723 0.0
H435 H 0.26246 0.70379 0.15441 0.0
Dy436 Dy 0.27559 0.7544 0.79155 0.0
Dy437 Dy 0.29552 0.7791 0.74843 0.0
C438 C 0.25194 0.805 0.76771 0.0
O439 O 0.27709 0.73223 0.75723 0.0
O440 O 0.27192 0.7639 0.73182 0.0
O441 O 0.25554 0.73354 0.80069 0.0
O442 O 0.27213 0.74667 0.82935 0.0
O443 O 0.31609 0.74241 0.75413 0.0
O444 O 0.30768 0.73429 0.79253 0.0
O445 O 0.30997 0.7853 0.78383 0.0
O446 O 0.28367 0.78671 0.80778 0.0
O447 O 0.30837 0.80669 0.73535 0.0
O448 O 0.30484 0.77739 0.71125 0.0
C449 C 0.27106 0.74185 0.73615 0.0
O450 O 0.25101 0.7845 0.77718 0.0
O451 O 0.26833 0.80784 0.75876 0.0
C452 C 0.23993 0.74402 0.83857 0.0
C453 C 0.20485 0.75513 0.86551 0.0
C454 C 0.20478 0.76341 0.84168 0.0
C455 C 0.22215 0.75802 0.82838 0.0
C456 C 0.24016 0.73626 0.86253 0.0
C457 C 0.22282 0.74182 0.87592 0.0
C458 C 0.25804 0.7363 0.8241 0.0
C459 C 0.32 0.7301 0.7743 0.0
C460 C 0.30039 0.79198 0.80409 0.0
C461 C 0.33179 0.79329 0.70432 0.0
C462 C 0.36916 0.78635 0.6833 0.0
C463 C 0.367 0.7736 0.7041 0.0
C464 C 0.34845 0.77698 0.71448 0.0
C465 C 0.33393 0.8063 0.6839 0.0
C466 C 0.35239 0.8029 0.67349 0.0
C467 C 0.31195 0.79618 0.71394 0.0
H468 H 0.19125 0.77397 0.83325 0.0
H469 H 0.22158 0.76442 0.80998 0.0
H470 H 0.25369 0.72541 0.87074 0.0
H471 H 0.22337 0.73499 0.89414 0.0
H472 H 0.37955 0.76058 0.71201 0.0
H473 H 0.34706 0.76664 0.73018 0.0
H474 H 0.32124 0.81896 0.6758 0.0
H475 H 0.35354 0.8133 0.65775 0.0
Dy476 Dy 0.29559 0.25143 0.75765 0.0
Dy477 Dy 0.3209 0.27655 0.79729 0.0
C478 C 0.2744 0.28354 0.80272 0.0
O479 O 0.30379 0.28072 0.73745 0.0
O480 O 0.30927 0.30511 0.76941 0.0
O481 O 0.27248 0.25477 0.73014 0.0
O482 O 0.29144 0.21941 0.73889 0.0
O483 O 0.3406 0.26452 0.76573 0.0
O484 O 0.32756 0.23402 0.75128 0.0
O485 O 0.3241 0.23858 0.8097 0.0
O486 O 0.29623 0.23126 0.79211 0.0
O487 O 0.34738 0.27391 0.8191 0.0
O488 O 0.32271 0.30595 0.82203 0.0
C489 C 0.30627 0.30149 0.74598 0.0
O490 O 0.27284 0.27773 0.77958 0.0
O491 O 0.29162 0.28055 0.8138 0.0
C492 C 0.25892 0.22131 0.72558 0.0
C493 C 0.2267 0.20062 0.72281 0.0
C494 C 0.23421 0.20647 0.74555 0.0
C495 C 0.25019 0.21679 0.74693 0.0
C496 C 0.2514 0.21571 0.70293 0.0
C497 C 0.23545 0.20548 0.70153 0.0
C498 C 0.27607 0.2314 0.72646 0.0
C499 C 0.34173 0.24505 0.75199 0.0
C500 C 0.31065 0.22635 0.80849 0.0
C501 C 0.35459 0.31085 0.82996 0.0
C502 C 0.38108 0.34015 0.83343 0.0
C503 C 0.3714 0.33738 0.81116 0.0
C504 C 0.35827 0.32277 0.80942 0.0
C505 C 0.36417 0.31356 0.85211 0.0
C506 C 0.37729 0.32807 0.85387 0.0
C507 C 0.34083 0.29554 0.82883 0.0
H508 H 0.22769 0.20319 0.76226 0.0
H509 H 0.2558 0.2211 0.7646 0.0
H510 H 0.25803 0.21903 0.68629 0.0
H511 H 0.23024 0.20088 0.68375 0.0
H512 H 0.37415 0.34627 0.79504 0.0
H513 H 0.351 0.32077 0.79213 0.0
H514 H 0.36142 0.30451 0.86814 0.0
H515 H 0.38424 0.33011 0.87135 0.0
Dy516 Dy 0.80715 0.30239 0.79259 0.0
Dy517 Dy 0.78331 0.26979 0.75705 0.0
C518 C 0.82963 0.25123 0.76824 0.0
O519 O 0.80872 0.31393 0.75436 0.0
O520 O 0.78267 0.30238 0.73612 0.0
O521 O 0.8316 0.31838 0.79689 0.0
O522 O 0.81212 0.31997 0.82695 0.0
O523 O 0.75999 0.30026 0.77344 0.0
O524 O 0.77722 0.32784 0.78652 0.0
O525 O 0.79097 0.25098 0.79221 0.0
O526 O 0.79138 0.28382 0.81692 0.0
O527 O 0.76201 0.24876 0.75387 0.0
O528 O 0.77802 0.2536 0.72215 0.0
C529 C 0.79565 0.31511 0.73655 0.0
O530 O 0.82725 0.26518 0.78793 0.0
O531 O 0.81565 0.25359 0.75135 0.0
C532 C 0.84596 0.31691 0.83663 0.0
C533 C 0.8801 0.30664 0.8674 0.0
C534 C 0.87939 0.29277 0.84594 0.0
C535 C 0.86249 0.29777 0.83078 0.0
C536 C 0.84649 0.33045 0.85824 0.0
C537 C 0.86332 0.32534 0.87351 0.0
C538 C 0.82855 0.3238 0.8199 0.0
C539 C 0.76059 0.32223 0.78078 0.0
C540 C 0.78979 0.2616 0.8138 0.0
C541 C 0.74518 0.25068 0.71565 0.0
C542 C 0.70936 0.25789 0.68837 0.0
C543 C 0.71063 0.27227 0.70932 0.0
C544 C 0.72836 0.26875 0.72277 0.0
C545 C 0.74407 0.23663 0.69455 0.0
C546 C 0.72638 0.24021 0.68103 0.0
C547 C 0.76372 0.24566 0.73034 0.0
H548 H 0.89192 0.27803 0.84084 0.0
H549 H 0.86248 0.28688 0.8143 0.0
H550 H 0.83397 0.34533 0.86312 0.0
H551 H 0.86339 0.33652 0.88975 0.0
H552 H 0.69791 0.28626 0.71534 0.0
H553 H 0.72886 0.27995 0.7389 0.0
H554 H 0.75684 0.22257 0.68874 0.0
H555 H 0.72592 0.22863 0.66518 0.0
Dy556 Dy 0.78719 0.76155 0.78067 0.0
Dy557 Dy 0.81192 0.78736 0.74457 0.0
C558 C 0.80274 0.7363 0.72974 0.0
O559 O 0.81927 0.7446 0.78792 0.0
O560 O 0.83204 0.77533 0.77642 0.0
O561 O 0.78353 0.72946 0.79728 0.0
O562 O 0.76427 0.7647 0.80693 0.0
O563 O 0.79967 0.81589 0.77337 0.0
O564 O 0.79495 0.7911 0.80332 0.0
O565 O 0.78288 0.79005 0.72595 0.0
O566 O 0.76421 0.7875 0.75872 0.0
O567 O 0.81355 0.81732 0.72252 0.0
O568 O 0.83785 0.78477 0.72358 0.0
C569 C 0.83346 0.75562 0.78865 0.0
O570 O 0.78811 0.74113 0.74504 0.0
O571 O 0.81587 0.74901 0.7304 0.0
C572 C 0.75135 0.73072 0.80997 0.0
C573 C 0.72062 0.70787 0.81357 0.0
C574 C 0.7313 0.70572 0.79198 0.0
C575 C 0.74655 0.71707 0.79019 0.0
C576 C 0.74037 0.73348 0.83119 0.0
C577 C 0.72514 0.72223 0.83299 0.0
C578 C 0.76823 0.74133 0.80956 0.0
C579 C 0.79661 0.81222 0.79631 0.0
C580 C 0.76568 0.79288 0.73593 0.0
C581 C 0.84551 0.82133 0.71527 0.0
C582 C 0.87371 0.84822 0.71387 0.0
C583 C 0.86553 0.84475 0.73612 0.0
C584 C 0.85155 0.83132 0.73682 0.0
C585 C 0.85344 0.82497 0.69311 0.0
C586 C 0.86739 0.83827 0.69238 0.0
C587 C 0.83132 0.80661 0.71531 0.0
H588 H 0.72828 0.69468 0.77675 0.0
H589 H 0.75482 0.71478 0.77358 0.0
H590 H 0.7438 0.74405 0.8466 0.0
H591 H 0.71697 0.72467 0.84968 0.0
H592 H 0.8702 0.85204 0.75299 0.0
H593 H 0.84558 0.82858 0.75412 0.0
H594 H 0.84888 0.8174 0.67631 0.0
H595 H 0.87313 0.84094 0.67492 0.0
H596 H 0.10805 0.0756 0.3794 0.0
H597 H 0.13005 0.10199 0.37571 0.0
H598 H 0.10569 0.12181 0.30405 0.0
H599 H 0.08393 0.09518 0.30753 0.0
H600 H 0.14506 0.11062 0.30424 0.0
H601 H 0.11787 0.17482 0.3809 0.0
H602 H 0.12549 0.14384 0.39002 0.0
H603 H 0.10477 0.1535 0.36934 0.0
C604 C 0.10722 0.08583 0.36301 0.0
C605 C 0.09426 0.08331 0.34376 0.0
C606 C 0.11976 0.10097 0.36093 0.0
C607 C 0.11933 0.11419 0.33974 0.0
C608 C 0.10628 0.11182 0.32058 0.0
H609 H 0.17547 0.23148 0.32536 0.0
H610 H 0.15202 0.20685 0.32814 0.0
C611 C 0.0939 0.09653 0.32256 0.0
C612 C 0.13301 0.12972 0.33703 0.0
H613 H 0.14792 0.17695 0.36334 0.0
C614 C 0.14561 0.12521 0.3171 0.0
C615 C 0.13354 0.14898 0.35361 0.0
C616 C 0.11956 0.15577 0.37453 0.0
C617 C 0.15893 0.13915 0.31349 0.0
C618 C 0.16004 0.15774 0.33063 0.0
C619 C 0.14721 0.16252 0.35035 0.0
C620 C 0.17432 0.17254 0.32841 0.0
C621 C 0.17138 0.1341 0.29108 0.0
C622 C 0.19467 0.16147 0.3278 0.0
C623 C 0.20808 0.17549 0.32605 0.0
C624 C 0.20143 0.2009 0.32526 0.0
C625 C 0.18105 0.21196 0.32608 0.0
C626 C 0.16764 0.19791 0.32763 0.0
H627 H 0.16471 0.12469 0.27653 0.0
H628 H 0.17342 0.1511 0.28373 0.0
H629 H 0.18611 0.12214 0.29585 0.0
H630 H 0.20022 0.14199 0.32904 0.0
H631 H 0.2237 0.16648 0.32591 0.0
H632 H 0.98758 0.07907 0.33495 0.0
H633 H 0.95942 0.11088 0.32136 0.0
H634 H 0.98218 0.10345 0.24879 0.0
H635 H 0.01081 0.07099 0.26237 0.0
H636 H 0.95991 0.15516 0.30134 0.0
H637 H 0.92415 0.10044 0.23864 0.0
H638 H 0.94285 0.08664 0.26083 0.0
H639 H 0.94965 0.0988 0.23374 0.0
C640 C 0.98671 0.08399 0.31601 0.0
C641 C 1.00157 0.07237 0.29975 0.0
C642 C 0.97052 0.10231 0.30829 0.0
C643 C 0.96859 0.10958 0.28406 0.0
C644 C 0.98325 0.09797 0.26755 0.0
H645 H 0.87476 0.24308 0.25126 0.0
H646 H 0.90713 0.2135 0.25308 0.0
C647 C 0.99961 0.07946 0.27533 0.0
C648 C 0.95124 0.12961 0.27681 0.0
H649 H 0.9073 0.14139 0.24517 0.0
C650 C 0.94852 0.15229 0.28877 0.0
C651 C 0.93631 0.12575 0.2606 0.0
C652 C 0.93819 0.10159 0.24776 0.0
C653 C 0.93106 0.1709 0.28564 0.0
C654 C 0.91594 0.1669 0.26981 0.0
C655 C 0.91891 0.14448 0.25723 0.0
C656 C 0.89632 0.1849 0.26771 0.0
C657 C 0.92854 0.19422 0.30031 0.0
C658 C 0.87938 0.17861 0.27486 0.0
C659 C 0.86089 0.1954 0.27379 0.0
C660 C 0.85881 0.21898 0.26544 0.0
C661 C 0.87579 0.2252 0.258 0.0
C662 C 0.89434 0.20831 0.25907 0.0
H663 H 0.93978 0.19253 0.31523 0.0
H664 H 0.93006 0.20873 0.2882 0.0
H665 H 0.91367 0.19995 0.30834 0.0
H666 H 0.8805 0.1607 0.2816 0.0
H667 H 0.84822 0.18983 0.27959 0.0
H668 H 0.00918 0.95372 0.37534 0.0
H669 H 0.9852 0.92987 0.37048 0.0
H670 H 0.98146 0.94197 0.29332 0.0
H671 H 1.00607 0.96487 0.29776 0.0
H672 H 0.94721 0.94313 0.35362 0.0
H673 H 0.99119 0.86914 0.2947 0.0
H674 H 1.00184 0.89078 0.31075 0.0
H675 H 0.98806 0.89878 0.28278 0.0
C676 C 1.00354 0.95106 0.35725 0.0
C677 C 0.0098 0.96119 0.33694 0.0
C678 C 0.98968 0.93753 0.35454 0.0
C679 C 0.98177 0.93375 0.33148 0.0
C680 C 0.98768 0.94415 0.31122 0.0
H681 H 0.89134 0.86334 0.28189 0.0
H682 H 0.91603 0.88654 0.28494 0.0
C683 C 1.00161 0.95759 0.31388 0.0
C684 C 0.96699 0.91944 0.32877 0.0
H685 H 0.95764 0.86972 0.29989 0.0
C686 C 0.94954 0.92702 0.34195 0.0
C687 C 0.97003 0.89842 0.31351 0.0
C688 C 0.98887 0.88863 0.2998 0.0
C689 C 0.93496 0.91434 0.34009 0.0
C690 C 0.93799 0.89339 0.32481 0.0
C691 C 0.95536 0.88585 0.31151 0.0
C692 C 0.92343 0.87882 0.32281 0.0
C693 C 0.91629 0.92363 0.35422 0.0
C694 C 0.91972 0.86642 0.34296 0.0
C695 C 0.90579 0.85295 0.34123 0.0
C696 C 0.89524 0.85162 0.31929 0.0
C697 C 0.89929 0.86376 0.299 0.0
C698 C 0.91331 0.87715 0.30073 0.0
H699 H 0.91429 0.9427 0.36069 0.0
H700 H 0.9032 0.92248 0.34292 0.0
H701 H 0.91695 0.91226 0.37036 0.0
H702 H 0.92766 0.8671 0.36003 0.0
H703 H 0.9034 0.84343 0.35708 0.0
H704 H 0.09764 0.96603 0.26415 0.0
H705 H 0.12734 0.93469 0.25136 0.0
H706 H 0.15523 0.9419 0.32101 0.0
H707 H 0.12609 0.97267 0.3338 0.0
H708 H 0.16879 0.93581 0.25002 0.0
H709 H 0.15746 0.86896 0.31492 0.0
H710 H 0.13806 0.89517 0.30623 0.0
H711 H 0.15632 0.89807 0.32889 0.0
C712 C 0.11018 0.96101 0.2766 0.0
C713 C 0.10934 0.97168 0.3001 0.0
C714 C 0.12711 0.94309 0.26932 0.0
C715 C 0.14335 0.93557 0.28546 0.0
C716 C 0.14275 0.94695 0.30845 0.0
H717 H 0.26629 0.86542 0.27708 0.0
H718 H 0.23319 0.89284 0.27846 0.0
C719 C 0.126 0.96467 0.3157 0.0
C720 C 0.16106 0.91578 0.2789 0.0
H721 H 0.18997 0.86177 0.29921 0.0
C722 C 0.17329 0.91943 0.26049 0.0
C723 C 0.16685 0.89424 0.29236 0.0
C724 C 0.15389 0.88871 0.31155 0.0
C725 C 0.19163 0.90274 0.2561 0.0
C726 C 0.198 0.88203 0.27072 0.0
C727 C 0.18525 0.87775 0.28819 0.0
C728 C 0.21816 0.86524 0.26906 0.0
C729 C 0.20412 0.90756 0.23601 0.0
C730 C 0.22082 0.84038 0.26395 0.0
C731 C 0.23982 0.82453 0.26325 0.0
C732 C 0.25658 0.83317 0.26796 0.0
C733 C 0.2538 0.85806 0.27333 0.0
C734 C 0.23484 0.87386 0.2739 0.0
H735 H 0.19502 0.91956 0.22214 0.0
H736 H 0.21502 0.91676 0.24386 0.0
H737 H 0.21229 0.8904 0.22688 0.0
H738 H 0.20817 0.83325 0.26039 0.0
H739 H 0.24134 0.80551 0.25905 0.0
H740 H 0.11782 0.98845 0.71155 0.0
H741 H 0.14574 0.95612 0.72545 0.0
H742 H 0.11034 0.93956 0.78174 0.0
H743 H 0.08204 0.97235 0.76788 0.0
H744 H 0.16461 0.94718 0.77491 0.0
H745 H 0.13074 0.87524 0.73831 0.0
H746 H 0.12258 0.90608 0.72819 0.0
H747 H 0.11636 0.89879 0.75787 0.0
C748 C 0.11596 0.97815 0.72709 0.0
C749 C 0.09766 0.98286 0.73853 0.0
C750 C 0.13198 0.9597 0.73503 0.0
C751 C 0.13008 0.94528 0.75444 0.0
C752 C 0.11206 0.9504 0.76659 0.0
H753 H 0.21674 0.80845 0.78966 0.0
H754 H 0.18721 0.84255 0.78946 0.0
C755 C 0.09596 0.9692 0.75878 0.0
C756 C 0.14685 0.92429 0.76078 0.0
H757 H 0.16349 0.86287 0.75267 0.0
C758 C 0.16432 0.9287 0.77037 0.0
C759 C 0.14642 0.90021 0.75485 0.0
C760 C 0.1281 0.89458 0.74413 0.0
C761 C 0.18149 0.90971 0.77378 0.0
C762 C 0.18137 0.88571 0.7667 0.0
C763 C 0.16366 0.88123 0.75795 0.0
C764 C 0.19959 0.86518 0.76731 0.0
C765 C 0.19955 0.9156 0.78497 0.0
C766 C 0.21638 0.8663 0.75463 0.0
C767 C 0.23336 0.84685 0.7548 0.0
C768 C 0.23387 0.82565 0.76736 0.0
C769 C 0.21693 0.82444 0.77975 0.0
C770 C 0.19999 0.84397 0.7797 0.0
H771 H 0.19553 0.93239 0.79652 0.0
H772 H 0.20828 0.90056 0.79622 0.0
H773 H 0.20901 0.9187 0.77026 0.0
H774 H 0.21629 0.88213 0.74432 0.0
H775 H 0.24603 0.84839 0.74489 0.0
H776 H 0.10628 0.06633 0.72569 0.0
H777 H 0.131 0.08907 0.73124 0.0
H778 H 0.10384 0.13565 0.67275 0.0
H779 H 0.0786 0.11348 0.66759 0.0
H780 H 0.15781 0.09584 0.69799 0.0
H781 H 0.10806 0.18403 0.72772 0.0
H782 H 0.10059 0.15617 0.72691 0.0
H783 H 0.10094 0.17206 0.69933 0.0
C784 C 0.10533 0.08163 0.71422 0.0
C785 C 0.09028 0.0882 0.69633 0.0
C786 C 0.11959 0.0945 0.71731 0.0
C787 C 0.11908 0.11429 0.70268 0.0
C788 C 0.10428 0.12073 0.68457 0.0
H789 H 0.19503 0.21045 0.69104 0.0
H790 H 0.16903 0.18938 0.68646 0.0
C791 C 0.08999 0.10785 0.68145 0.0
C792 C 0.13439 0.1277 0.70604 0.0
H793 H 0.14123 0.18349 0.72032 0.0
C794 C 0.1542 0.11498 0.70297 0.0
C795 C 0.12963 0.15268 0.71252 0.0
C796 C 0.10868 0.16704 0.71704 0.0
C797 C 0.16938 0.12664 0.70584 0.0
C798 C 0.16463 0.15159 0.71235 0.0
C799 C 0.14481 0.16435 0.71536 0.0
C800 C 0.18003 0.16482 0.71584 0.0
C801 C 0.19034 0.11226 0.70136 0.0
C802 C 0.1946 0.15832 0.73421 0.0
C803 C 0.20954 0.17025 0.7368 0.0
C804 C 0.21014 0.18896 0.7211 0.0
C805 C 0.19518 0.19586 0.70317 0.0
C806 C 0.18024 0.18395 0.70062 0.0
H807 H 0.19098 0.09516 0.69086 0.0
H808 H 0.19839 0.12306 0.69133 0.0
H809 H 0.19811 0.10744 0.71909 0.0
H810 H 0.1945 0.14388 0.74642 0.0
H811 H 0.22089 0.16439 0.75071 0.0
H812 H 1.00106 0.088 0.76826 0.0
H813 H 0.97088 0.11853 0.78086 0.0
H814 H 0.94389 0.11115 0.71065 0.0
H815 H 0.97355 0.08104 0.69807 0.0
H816 H 0.95271 0.16368 0.75628 0.0
H817 H 0.90198 0.10453 0.75903 0.0
H818 H 0.92848 0.09278 0.76024 0.0
H819 H 0.9158 0.1008 0.73159 0.0
C820 C 0.98858 0.09272 0.75568 0.0
C821 C 0.98974 0.08208 0.73217 0.0
C822 C 0.97139 0.11019 0.76285 0.0
C823 C 0.95503 0.1169 0.74678 0.0
C824 C 0.95615 0.106 0.72351 0.0
H825 H 0.84083 0.21818 0.73047 0.0
H826 H 0.87162 0.18605 0.72696 0.0
C827 C 0.97324 0.08884 0.71631 0.0
C828 C 0.93701 0.13614 0.7534 0.0
H829 H 0.88697 0.14713 0.75672 0.0
C830 C 0.93835 0.16006 0.7568 0.0
C831 C 0.91828 0.1314 0.75385 0.0
C832 C 0.916 0.10595 0.75121 0.0
C833 C 0.92138 0.17951 0.75956 0.0
C834 C 0.90258 0.17482 0.75939 0.0
C835 C 0.90133 0.15078 0.75668 0.0
C836 C 0.88399 0.19459 0.76155 0.0
C837 C 0.92369 0.20497 0.76156 0.0
C838 C 0.88057 0.20998 0.78224 0.0
C839 C 0.86303 0.22843 0.78426 0.0
C840 C 0.84837 0.2318 0.7657 0.0
C841 C 0.85176 0.2162 0.74507 0.0
C842 C 0.86936 0.19777 0.74306 0.0
H843 H 0.93827 0.20596 0.7551 0.0
H844 H 0.91195 0.21765 0.75091 0.0
H845 H 0.92251 0.2112 0.78091 0.0
H846 H 0.89139 0.20759 0.79701 0.0
H847 H 0.86093 0.23993 0.80051 0.0
H848 H 0.0142 0.94458 0.66661 0.0
H849 H 0.98985 0.92132 0.67045 0.0
H850 H 0.95714 0.97582 0.72037 0.0
H851 H 0.98099 0.99948 0.71608 0.0
H852 H 0.97967 0.90248 0.71318 0.0
H853 H 0.91463 0.96696 0.67138 0.0
H854 H 0.93949 0.96925 0.66779 0.0
H855 H 0.92661 0.98008 0.69539 0.0
C856 C 1.00166 0.95181 0.67809 0.0
C857 C 0.99957 0.97391 0.69104 0.0
C858 C 0.98783 0.93842 0.68039 0.0
C859 C 0.97158 0.94698 0.69548 0.0
C860 C 0.96939 0.96906 0.70832 0.0
H861 H 0.87419 0.89083 0.73785 0.0
H862 H 0.89853 0.91426 0.7346 0.0
C863 C 0.98319 0.98244 0.70605 0.0
C864 C 0.9573 0.93239 0.69858 0.0
H865 H 0.90863 0.9337 0.69172 0.0
C866 C 0.96415 0.90923 0.70837 0.0
C867 C 0.93705 0.94132 0.69241 0.0
C868 C 0.92899 0.96567 0.68095 0.0
C869 C 0.95124 0.89488 0.71249 0.0
C870 C 0.931 0.90379 0.7063 0.0
C871 C 0.92414 0.92697 0.69655 0.0
C872 C 0.91678 0.88909 0.70913 0.0
C873 C 0.95929 0.87048 0.72387 0.0
C874 C 0.91897 0.86724 0.69586 0.0
C875 C 0.90517 0.85381 0.69775 0.0
C876 C 0.88881 0.86204 0.71285 0.0
C877 C 0.88674 0.88387 0.72629 0.0
C878 C 0.90055 0.89734 0.72433 0.0
H879 H 0.97367 0.86914 0.73341 0.0
H880 H 0.9488 0.86689 0.73703 0.0
H881 H 0.96162 0.85611 0.7094 0.0
H882 H 0.93121 0.86074 0.68373 0.0
H883 H 0.90731 0.83697 0.68734 0.0
H884 H 0.35879 0.04191 0.12603 0.0
H885 H 0.35667 0.07527 0.15573 0.0
H886 H 0.29943 0.11187 0.12621 0.0
H887 H 0.30144 0.07869 0.09657 0.0
H888 H 0.32451 0.14166 0.13198 0.0
H889 H 0.32263 0.09132 0.21627 0.0
H890 H 0.34312 0.07837 0.19697 0.0
H891 H 0.31852 0.07942 0.18636 0.0
C892 C 0.34566 0.05693 0.12607 0.0
C893 C 0.3303 0.05767 0.10891 0.0
C894 C 0.34446 0.07595 0.14306 0.0
C895 C 0.3278 0.09591 0.14331 0.0
C896 C 0.31243 0.09664 0.12629 0.0
H897 H 0.28309 0.20883 0.24883 0.0
H898 H 0.29105 0.17246 0.22269 0.0
C899 C 0.31364 0.07771 0.10928 0.0
C900 C 0.32647 0.11647 0.16079 0.0
H901 H 0.32372 0.13215 0.22126 0.0
C902 C 0.32443 0.13959 0.15151 0.0
C903 C 0.32621 0.11368 0.18623 0.0
C904 C 0.32757 0.08942 0.19713 0.0
C905 C 0.32188 0.1601 0.16697 0.0
C906 C 0.32178 0.1573 0.19242 0.0
C907 C 0.32401 0.13415 0.20174 0.0
C908 C 0.318 0.17845 0.20953 0.0
C909 C 0.31862 0.18468 0.15587 0.0
C910 C 0.33079 0.19357 0.21121 0.0
C911 C 0.32624 0.21451 0.22607 0.0
C912 C 0.30888 0.22056 0.23961 0.0
C913 C 0.29653 0.20482 0.23857 0.0
C914 C 0.30106 0.18396 0.22368 0.0
H915 H 0.31476 0.18426 0.13615 0.0
H916 H 0.30667 0.19833 0.16521 0.0
H917 H 0.33235 0.19069 0.15793 0.0
H918 H 0.34413 0.18936 0.20077 0.0
H919 H 0.33615 0.22612 0.22659 0.0
H920 H 1.00256 0.36288 0.02815 0.0
H921 H 0.97133 0.35859 0.04334 0.0
H922 H 0.99208 0.36579 0.11707 0.0
H923 H 0.02311 0.37023 0.10207 0.0
H924 H 0.96687 0.32271 0.07074 0.0
H925 H 0.93721 0.40986 0.12009 0.0
H926 H 0.95714 0.40536 0.09904 0.0
H927 H 0.96195 0.39546 0.12991 0.0
C928 C 1.00031 0.36397 0.04758 0.0
C929 C 0.01534 0.36698 0.06387 0.0
C930 C 0.98246 0.36153 0.05624 0.0
C931 C 0.97924 0.36216 0.08135 0.0
C932 C 0.99398 0.36589 0.09761 0.0
H933 H 0.9075 0.29113 0.16005 0.0
H934 H 0.93327 0.30241 0.13805 0.0
C935 C 0.01177 0.36845 0.08898 0.0
C936 C 0.96131 0.35679 0.09069 0.0
H937 H 0.92404 0.37692 0.13081 0.0
C938 C 0.95734 0.33472 0.08363 0.0
C939 C 0.94872 0.37257 0.10726 0.0
C940 C 0.95134 0.39724 0.11431 0.0
C941 C 0.9416 0.32758 0.0934 0.0
C942 C 0.92979 0.34268 0.11114 0.0
C943 C 0.93327 0.36518 0.11747 0.0
C944 C 0.91399 0.33533 0.12373 0.0
C945 C 0.93778 0.30399 0.08455 0.0
C946 C 0.89465 0.35034 0.12348 0.0
C947 C 0.87996 0.34417 0.13642 0.0
C948 C 0.88428 0.32285 0.14995 0.0
C949 C 0.90366 0.30775 0.14998 0.0
C950 C 0.91837 0.31401 0.13713 0.0
H951 H 0.94373 0.29868 0.0661 0.0
H952 H 0.94523 0.28941 0.09711 0.0
H953 H 0.92176 0.30516 0.08399 0.0
H954 H 0.89097 0.36699 0.11344 0.0
H955 H 0.86533 0.3565 0.13634 0.0
H956 H 0.76365 0.01866 0.129 0.0
H957 H 0.76583 0.9874 0.15905 0.0
H958 H 0.77826 0.93231 0.10207 0.0
H959 H 0.77606 0.96344 0.07192 0.0
H960 H 0.74431 0.95286 0.16223 0.0
H961 H 0.82414 0.90966 0.15087 0.0
H962 H 0.81209 0.93915 0.1392 0.0
H963 H 0.80994 0.91217 0.12296 0.0
C964 C 0.7667 0.99992 0.12284 0.0
C965 C 0.76981 0.9935 0.09809 0.0
C966 C 0.76801 0.9821 0.14003 0.0
C967 C 0.77249 0.95758 0.13278 0.0
C968 C 0.77521 0.95112 0.10806 0.0
H969 H 0.76024 0.833 0.20837 0.0
H970 H 0.75497 0.86902 0.18375 0.0
C971 C 0.77397 0.96891 0.09088 0.0
C972 C 0.77436 0.9387 0.15108 0.0
H973 H 0.8065 0.88838 0.17409 0.0
C974 C 0.75792 0.93882 0.16498 0.0
C975 C 0.79224 0.92069 0.15482 0.0
C976 C 0.81068 0.92046 0.14136 0.0
C977 C 0.75875 0.92094 0.18215 0.0
C978 C 0.7764 0.90235 0.18514 0.0
C979 C 0.79295 0.9026 0.17164 0.0
C980 C 0.77806 0.88209 0.20179 0.0
C981 C 0.74083 0.92223 0.19705 0.0
C982 C 0.79281 0.87749 0.22007 0.0
C983 C 0.796 0.8568 0.234 0.0
C984 C 0.78452 0.84029 0.22986 0.0
C985 C 0.76927 0.84541 0.21212 0.0
C986 C 0.76616 0.86606 0.1981 0.0
H987 H 0.73083 0.94086 0.19772 0.0
H988 H 0.73248 0.90999 0.18864 0.0
H989 H 0.74509 0.91636 0.21595 0.0
H990 H 0.80218 0.88962 0.22314 0.0
H991 H 0.80782 0.85346 0.24757 0.0
H992 H 0.09325 0.66421 0.08395 0.0
H993 H 0.12418 0.66919 0.10243 0.0
H994 H 0.10683 0.74504 0.08549 0.0
H995 H 0.07591 0.74045 0.06765 0.0
H996 H 0.15409 0.68772 0.08013 0.0
H997 H 0.11989 0.74401 0.15952 0.0
H998 H 0.10723 0.72581 0.14123 0.0
H999 H 0.10908 0.75443 0.13051 0.0
C1000 C 0.09599 0.68196 0.08432 0.0
C1001 C 0.08208 0.7019 0.07431 0.0
C1002 C 0.11368 0.68475 0.09475 0.0
C1003 C 0.11762 0.70755 0.09557 0.0
C1004 C 0.10392 0.72737 0.08532 0.0
H1005 H 0.21098 0.7685 0.15133 0.0
H1006 H 0.18108 0.76122 0.13225 0.0
C1007 C 0.08633 0.72461 0.07486 0.0
C1008 C 0.13608 0.7108 0.10698 0.0
H1009 H 0.15364 0.74117 0.15309 0.0
C1010 C 0.15406 0.69924 0.09619 0.0
C1011 C 0.1359 0.72595 0.12784 0.0
C1012 C 0.11702 0.73812 0.14063 0.0
C1013 C 0.17191 0.70292 0.10539 0.0
C1014 C 0.17171 0.71819 0.12619 0.0
C1015 C 0.15372 0.72957 0.13708 0.0
C1016 C 0.19003 0.72243 0.13715 0.0
C1017 C 0.19072 0.69096 0.09238 0.0
C1018 C 0.20483 0.70308 0.14645 0.0
C1019 C 0.22187 0.70718 0.15736 0.0
C1020 C 0.22438 0.73076 0.15936 0.0
C1021 C 0.20944 0.75016 0.15019 0.0
C1022 C 0.1924 0.74602 0.13921 0.0
H1023 H 0.18776 0.68537 0.07342 0.0
H1024 H 0.20052 0.70329 0.09191 0.0
H1025 H 0.1987 0.67447 0.10221 0.0
H1026 H 0.20307 0.68484 0.14563 0.0
H1027 H 0.23289 0.69192 0.16472 0.0
H1028 H 0.36844 0.9085 0.9799 0.0
H1029 H 0.36683 0.87839 0.94778 0.0
H1030 H 0.31441 0.92714 0.91771 0.0
H1031 H 0.31633 0.95752 0.94897 0.0
H1032 H 0.33734 0.85625 0.93824 0.0
H1033 H 0.3478 0.90689 0.85799 0.0
H1034 H 0.35327 0.9158 0.88865 0.0
H1035 H 0.32835 0.92433 0.87666 0.0
C1036 C 0.35677 0.91295 0.96622 0.0
C1037 C 0.34251 0.93545 0.96705 0.0
C1038 C 0.35581 0.89569 0.94796 0.0
C1039 C 0.3407 0.90071 0.93014 0.0
C1040 C 0.32646 0.92309 0.93096 0.0
H1041 H 0.28315 0.81181 0.84643 0.0
H1042 H 0.29582 0.83578 0.87712 0.0
C1043 C 0.32741 0.94033 0.94912 0.0
C1044 C 0.339 0.8822 0.91138 0.0
H1045 H 0.33253 0.87424 0.85027 0.0
C1046 C 0.3366 0.86 0.91897 0.0
C1047 C 0.33843 0.88692 0.88624 0.0
C1048 C 0.34232 0.90968 0.87689 0.0
C1049 C 0.33249 0.84296 0.90213 0.0
C1050 C 0.33034 0.84856 0.87716 0.0
C1051 C 0.33389 0.87013 0.86946 0.0
C1052 C 0.32322 0.83307 0.85893 0.0
C1053 C 0.33029 0.81927 0.9113 0.0
C1054 C 0.33418 0.82411 0.83815 0.0
C1055 C 0.32686 0.8106 0.82035 0.0
C1056 C 0.3084 0.80592 0.823 0.0
C1057 C 0.29748 0.81492 0.84387 0.0
C1058 C 0.30478 0.82848 0.86156 0.0
H1059 H 0.33865 0.81442 0.92869 0.0
H1060 H 0.31451 0.82103 0.91476 0.0
H1061 H 0.33548 0.80426 0.89778 0.0
H1062 H 0.34838 0.82764 0.83568 0.0
H1063 H 0.33564 0.80393 0.80449 0.0
H1064 H 0.14601 0.30823 0.96653 0.0
H1065 H 0.17215 0.29961 0.93668 0.0
H1066 H 0.13837 0.35801 0.89289 0.0
H1067 H 0.11206 0.36668 0.92258 0.0
H1068 H 0.17079 0.28719 0.88707 0.0
H1069 H 0.19188 0.3736 0.90184 0.0
H1070 H 0.17659 0.36337 0.92263 0.0
H1071 H 0.16625 0.37697 0.89457 0.0
C1072 C 0.14401 0.31914 0.95049 0.0
C1073 C 0.12691 0.33824 0.94706 0.0
C1074 C 0.15903 0.31424 0.93347 0.0
C1075 C 0.15733 0.32837 0.91273 0.0
C1076 C 0.14018 0.3472 0.90902 0.0
H1077 H 0.23592 0.2876 0.7883 0.0
H1078 H 0.20661 0.29942 0.81354 0.0
C1079 C 0.12515 0.35214 0.92604 0.0
C1080 C 0.17352 0.32325 0.89501 0.0
H1081 H 0.2079 0.34732 0.87032 0.0
C1082 C 0.17887 0.30035 0.88332 0.0
C1083 C 0.18414 0.34039 0.89033 0.0
C1084 C 0.1796 0.3649 0.90312 0.0
C1085 C 0.19461 0.29408 0.86714 0.0
C1086 C 0.2051 0.31131 0.86227 0.0
C1087 C 0.1997 0.33424 0.87389 0.0
C1088 C 0.22254 0.30536 0.84642 0.0
C1089 C 0.20029 0.26882 0.85599 0.0
C1090 C 0.2411 0.30551 0.85633 0.0
C1091 C 0.25782 0.29893 0.84198 0.0
C1092 C 0.25634 0.29214 0.81731 0.0
C1093 C 0.23762 0.29266 0.80723 0.0
C1094 C 0.22086 0.29925 0.82166 0.0
H1095 H 0.19358 0.25627 0.86556 0.0
H1096 H 0.1951 0.26947 0.83671 0.0
H1097 H 0.21656 0.26131 0.85636 0.0
H1098 H 0.24271 0.31026 0.87537 0.0
H1099 H 0.27196 0.29884 0.85038 0.0
H1100 H 0.78923 0.12433 0.99646 0.0
H1101 H 0.79406 0.1578 0.97294 0.0
H1102 H 0.74102 0.15909 0.93096 0.0
H1103 H 0.73607 0.12581 0.95451 0.0
H1104 H 0.80035 0.15415 0.92487 0.0
H1105 H 0.73524 0.2307 0.94349 0.0
H1106 H 0.74232 0.20444 0.96244 0.0
H1107 H 0.72833 0.20359 0.93463 0.0
C1108 C 0.77849 0.13197 0.9824 0.0
C1109 C 0.76236 0.12238 0.97715 0.0
C1110 C 0.78119 0.15116 0.96912 0.0
C1111 C 0.76778 0.16109 0.95042 0.0
C1112 C 0.75127 0.15212 0.94573 0.0
H1113 H 0.78584 0.21547 0.8144 0.0
H1114 H 0.78155 0.19282 0.84971 0.0
C1115 C 0.7485 0.13303 0.95912 0.0
C1116 C 0.77228 0.17861 0.93383 0.0
H1117 H 0.75221 0.23239 0.90624 0.0
C1118 C 0.78997 0.17146 0.92112 0.0
C1119 C 0.75885 0.20128 0.92917 0.0
C1120 C 0.74022 0.21057 0.94336 0.0
C1121 C 0.79412 0.18579 0.90291 0.0
C1122 C 0.78002 0.20758 0.89701 0.0
C1123 C 0.76284 0.21545 0.91062 0.0
C1124 C 0.78238 0.22164 0.87584 0.0
C1125 C 0.81339 0.17728 0.88985 0.0
C1126 C 0.78373 0.24555 0.87887 0.0
C1127 C 0.7861 0.25864 0.85869 0.0
C1128 C 0.78702 0.24801 0.83518 0.0
C1129 C 0.78533 0.22415 0.83225 0.0
C1130 C 0.78297 0.21113 0.85241 0.0
H1131 H 0.82471 0.16451 0.90099 0.0
H1132 H 0.81101 0.16762 0.87268 0.0
H1133 H 0.81919 0.19281 0.88522 0.0
H1134 H 0.78316 0.25397 0.89686 0.0
H1135 H 0.78729 0.27701 0.86155 0.0
H1136 H 0.97896 0.73167 0.93893 0.0
H1137 H 0.9546 0.73808 0.90554 0.0
H1138 H 0.93305 0.67929 0.93027 0.0
H1139 H 0.9569 0.67328 0.96422 0.0
H1140 H 0.94782 0.70678 0.86777 0.0
H1141 H 0.88347 0.73629 0.92823 0.0
H1142 H 0.9084 0.73396 0.93886 0.0
H1143 H 0.89976 0.70718 0.93493 0.0
C1144 C 0.96897 0.7202 0.93742 0.0
C1145 C 0.96976 0.70215 0.95451 0.0
C1146 C 0.95515 0.72377 0.91818 0.0
C1147 C 0.94181 0.70943 0.91568 0.0
C1148 C 0.94299 0.69085 0.93214 0.0
H1149 H 0.84086 0.71652 0.8183 0.0
H1150 H 0.86817 0.70354 0.84758 0.0
C1151 C 0.95679 0.68727 0.95141 0.0
C1152 C 0.92642 0.71433 0.89612 0.0
H1153 H 0.87658 0.73216 0.88627 0.0
C1154 C 0.93224 0.71232 0.87178 0.0
C1155 C 0.90611 0.72159 0.90144 0.0
C1156 C 0.89899 0.72512 0.92726 0.0
C1157 C 0.91825 0.71718 0.85256 0.0
C1158 C 0.89796 0.72457 0.85791 0.0
C1159 C 0.89216 0.72638 0.88224 0.0
C1160 C 0.88243 0.73122 0.83865 0.0
C1161 C 0.92529 0.71408 0.82672 0.0
C1162 C 0.88144 0.75105 0.82385 0.0
C1163 C 0.86584 0.75855 0.80707 0.0
C1164 C 0.85086 0.74643 0.80489 0.0
C1165 C 0.85213 0.72626 0.81944 0.0
C1166 C 0.86773 0.71881 0.83622 0.0
H1167 H 0.94057 0.70223 0.82556 0.0
H1168 H 0.91544 0.70623 0.81477 0.0
H1169 H 0.92519 0.73207 0.81969 0.0
H1170 H 0.89241 0.76119 0.82577 0.0
H1171 H 0.8653 0.77421 0.79625 0.0
H1172 H 0.15161 0.33116 0.05304 0.0
H1173 H 0.17481 0.32349 0.08747 0.0
H1174 H 0.13793 0.28645 0.12335 0.0
H1175 H 0.11475 0.29357 0.08832 0.0
H1176 H 0.16755 0.34082 0.13273 0.0
H1177 H 0.1916 0.24027 0.13469 0.0
H1178 H 0.17839 0.25631 0.10898 0.0
H1179 H 0.16539 0.25298 0.13576 0.0
C1180 C 0.14855 0.32101 0.06806 0.0
C1181 C 0.13131 0.31297 0.0679 0.0
C1182 C 0.16184 0.31668 0.08781 0.0
C1183 C 0.15826 0.3043 0.10809 0.0
C1184 C 0.14129 0.29563 0.10778 0.0
H1185 H 0.22401 0.28697 0.24857 0.0
H1186 H 0.19814 0.28915 0.21708 0.0
C1187 C 0.12801 0.29975 0.08776 0.0
C1188 C 0.17176 0.30214 0.1299 0.0
H1189 H 0.20328 0.26166 0.16688 0.0
C1190 C 0.17531 0.32346 0.14017 0.0
C1191 C 0.18187 0.27955 0.13981 0.0
C1192 C 0.1793 0.25593 0.12916 0.0
C1193 C 0.18883 0.32281 0.15963 0.0
C1194 C 0.19918 0.30026 0.16919 0.0
C1195 C 0.19529 0.27894 0.15951 0.0
C1196 C 0.21486 0.29855 0.18833 0.0
C1197 C 0.19211 0.34627 0.16978 0.0
C1198 C 0.23285 0.30302 0.18259 0.0
C1199 C 0.24767 0.3017 0.20045 0.0
C1200 C 0.24481 0.29602 0.22456 0.0
C1201 C 0.2267 0.29158 0.23027 0.0
C1202 C 0.21193 0.29268 0.21228 0.0
H1203 H 0.1804 0.36227 0.16364 0.0
H1204 H 0.19261 0.3463 0.18998 0.0
H1205 H 0.2065 0.34812 0.1636 0.0
H1206 H 0.23546 0.30748 0.1642 0.0
H1207 H 0.26139 0.3052 0.19531 0.0
H1208 H 0.04697 0.72899 0.94248 0.0
H1209 H 0.07425 0.74013 0.92363 0.0
H1210 H 0.08221 0.78153 0.98817 0.0
H1211 H 0.05461 0.77058 1.00719 0.0
H1212 H 0.08256 0.78991 0.91758 0.0
H1213 H 0.13537 0.72452 0.97676 0.0
H1214 H 0.11045 0.72243 0.97108 0.0
H1215 H 0.1149 0.74622 0.99055 0.0
C1216 C 0.05422 0.74093 0.95248 0.0
C1217 C 0.04865 0.74891 0.97632 0.0
C1218 C 0.0698 0.74727 0.94168 0.0
C1219 C 0.08035 0.76145 0.95457 0.0
C1220 C 0.07427 0.77049 0.97795 0.0
H1221 H 0.19826 0.76912 0.91345 0.0
H1222 H 0.16779 0.77429 0.93592 0.0
C1223 C 0.05843 0.76439 0.98871 0.0
C1224 C 0.09859 0.76487 0.94406 0.0
H1225 H 0.14864 0.74202 0.94573 0.0
C1226 C 0.09705 0.77972 0.9239 0.0
C1227 C 0.11745 0.7516 0.95239 0.0
C1228 C 0.11984 0.73517 0.97382 0.0
C1229 C 0.11388 0.78134 0.91156 0.0
C1230 C 0.13272 0.76707 0.9191 0.0
C1231 C 0.13425 0.75289 0.93983 0.0
C1232 C 0.15088 0.76551 0.90508 0.0
C1233 C 0.11123 0.79838 0.89061 0.0
C1234 C 0.15167 0.7587 0.88027 0.0
C1235 C 0.16902 0.7559 0.86738 0.0
C1236 C 0.18613 0.75942 0.87907 0.0
C1237 C 0.18537 0.76616 0.90393 0.0
C1238 C 0.16793 0.7692 0.91678 0.0
H1239 H 0.09778 0.81366 0.89269 0.0
H1240 H 0.12414 0.80592 0.88904 0.0
H1241 H 0.10946 0.78841 0.87342 0.0
H1242 H 0.139 0.75491 0.87096 0.0
H1243 H 0.1692 0.75022 0.84839 0.0
H1244 H 0.33058 0.07601 0.98809 0.0
H1245 H 0.3315 0.10785 0.95949 0.0
H1246 H 0.28808 0.08648 0.91345 0.0
H1247 H 0.28704 0.05485 0.94173 0.0
H1248 H 0.34071 0.10273 0.90859 0.0
H1249 H 0.26475 0.16015 0.9228 0.0
H1250 H 0.27715 0.13717 0.94386 0.0
H1251 H 0.26626 0.1288 0.91607 0.0
C1252 C 0.32113 0.07819 0.97196 0.0
C1253 C 0.30867 0.06284 0.96736 0.0
C1254 C 0.32171 0.09638 0.95557 0.0
C1255 C 0.30966 0.09985 0.9344 0.0
C1256 C 0.29726 0.08453 0.9298 0.0
H1257 H 0.28683 0.19535 0.81057 0.0
H1258 H 0.28749 0.16476 0.84092 0.0
C1259 C 0.29677 0.06631 0.94602 0.0
C1260 C 0.31028 0.119 0.91674 0.0
H1261 H 0.28158 0.16943 0.88914 0.0
C1262 C 0.32784 0.11744 0.90449 0.0
C1263 C 0.29347 0.13816 0.9112 0.0
C1264 C 0.27437 0.14139 0.9243 0.0
C1265 C 0.32888 0.13402 0.88643 0.0
C1266 C 0.31201 0.15316 0.88079 0.0
C1267 C 0.29452 0.15482 0.89328 0.0
C1268 C 0.31208 0.17152 0.86192 0.0
C1269 C 0.34787 0.1303 0.87299 0.0
C1270 C 0.32557 0.18581 0.8635 0.0
C1271 C 0.32531 0.20326 0.84601 0.0
C1272 C 0.3114 0.20712 0.82659 0.0
C1273 C 0.29782 0.1929 0.82515 0.0
C1274 C 0.29815 0.17538 0.84258 0.0
H1275 H 0.35714 0.11134 0.87421 0.0
H1276 H 0.345 0.13472 0.85348 0.0
H1277 H 0.35645 0.14237 0.88122 0.0
H1278 H 0.33614 0.18377 0.87851 0.0
H1279 H 0.33588 0.21397 0.84796 0.0
H1280 H 0.05142 0.29164 0.96406 0.0
H1281 H 0.02177 0.28999 0.94034 0.0
H1282 H 0.992 0.28453 1.00644 0.0
H1283 H 0.02152 0.28623 0.03033 0.0
H1284 H 0.998 0.25542 0.93805 0.0
H1285 H 0.95699 0.34616 0.97392 0.0
H1286 H 0.98346 0.33508 0.97688 0.0
H1287 H 0.96786 0.32416 0.9964 0.0
C1288 C 0.03869 0.28967 0.97357 0.0
C1289 C 0.0389 0.28917 0.99917 0.0
C1290 C 0.02172 0.28878 0.95996 0.0
C1291 C 1.00454 0.28758 0.97162 0.0
C1292 C 1.00498 0.28585 0.99706 0.0
H1293 H 0.88341 0.30585 0.91731 0.0
H1294 H 0.91344 0.29963 0.9427 0.0
C1295 C 0.02197 0.28661 0.01069 0.0
C1296 C 0.98596 0.28922 0.95724 0.0
H1297 H 0.93953 0.32578 0.94732 0.0
C1298 C 0.98519 0.27078 0.94007 0.0
C1299 C 0.96922 0.30922 0.95995 0.0
C1300 C 0.96935 0.32992 0.97763 0.0
C1301 C 0.9681 0.27167 0.92573 0.0
C1302 C 0.95146 0.29193 0.92807 0.0
C1303 C 0.95221 0.31025 0.94544 0.0
C1304 C 0.93325 0.29477 0.91248 0.0
C1305 C 0.96796 0.2506 0.90858 0.0
C1306 C 0.93423 0.29434 0.88696 0.0
C1307 C 0.91707 0.29776 0.8724 0.0
C1308 C 0.89844 0.3021 0.88298 0.0
C1309 C 0.89747 0.30271 0.90853 0.0
C1310 C 0.91466 0.29908 0.92309 0.0
H1311 H 0.97881 0.23373 0.9145 0.0
H1312 H 0.95314 0.24721 0.90724 0.0
H1313 H 0.97209 0.2547 0.8902 0.0
H1314 H 0.94825 0.29183 0.87825 0.0
H1315 H 0.91835 0.29764 0.85282 0.0
H1316 H 0.82331 0.94692 0.97974 0.0
H1317 H 0.8221 0.91865 0.94588 0.0
H1318 H 0.76744 0.96615 0.92008 0.0
H1319 H 0.76836 0.99446 0.95429 0.0
H1320 H 0.76595 0.91923 0.91801 0.0
H1321 H 0.83487 0.9251 0.87578 0.0
H1322 H 0.83855 0.91655 0.90701 0.0
H1323 H 0.8231 0.94601 0.89948 0.0
C1324 C 0.811 0.95146 0.96689 0.0
C1325 C 0.79598 0.97316 0.9698 0.0
C1326 C 0.81042 0.93528 0.94734 0.0
C1327 C 0.79492 0.94038 0.92995 0.0
C1328 C 0.77967 0.96179 0.93306 0.0
H1329 H 0.79969 0.85884 0.79029 0.0
H1330 H 0.79824 0.89071 0.82166 0.0
C1331 C 0.78021 0.97801 0.95268 0.0
C1332 C 0.79447 0.92315 0.9089 0.0
H1333 H 0.82163 0.89269 0.86144 0.0
C1334 C 0.77809 0.91357 0.90557 0.0
C1335 C 0.8101 0.91594 0.89225 0.0
C1336 C 0.82755 0.92662 0.8936 0.0
C1337 C 0.7772 0.89657 0.88671 0.0
C1338 C 0.79328 0.88843 0.87084 0.0
C1339 C 0.80937 0.89859 0.87367 0.0
C1340 C 0.79387 0.86911 0.85153 0.0
C1341 C 0.75885 0.88773 0.88383 0.0
C1342 C 0.79217 0.84611 0.8577 0.0
C1343 C 0.79293 0.82789 0.8398 0.0
C1344 C 0.79559 0.832 0.81515 0.0
C1345 C 0.79752 0.85496 0.80899 0.0
C1346 C 0.79673 0.87324 0.82697 0.0
H1347 H 0.7459 0.90087 0.89194 0.0
H1348 H 0.7554 0.88458 0.86436 0.0
H1349 H 0.76118 0.87038 0.89338 0.0
H1350 H 0.79049 0.84209 0.8765 0.0
H1351 H 0.79155 0.81046 0.84542 0.0
H1352 H 0.98376 0.75026 0.09557 0.0
H1353 H 0.95997 0.7538 0.12808 0.0
H1354 H 0.91217 0.77054 0.07522 0.0
H1355 H 0.93572 0.76701 0.04265 0.0
H1356 H 0.9257 0.7929 0.14228 0.0
H1357 H 0.90595 0.70935 0.10967 0.0
H1358 H 0.92788 0.71696 0.10017 0.0
H1359 H 0.90426 0.7317 0.08691 0.0
C1360 C 0.96817 0.75501 0.09087 0.0
C1361 C 0.96169 0.75815 0.06642 0.0
C1362 C 0.9546 0.757 0.1095 0.0
C1363 C 0.93432 0.762 0.10402 0.0
C1364 C 0.92777 0.76625 0.07981 0.0
H1365 H 0.82725 0.76874 0.17964 0.0
H1366 H 0.85298 0.768 0.15063 0.0
C1367 C 0.94129 0.76435 0.06121 0.0
C1368 C 0.92002 0.76188 0.12337 0.0
H1369 H 0.88646 0.73248 0.14085 0.0
C1370 C 0.91719 0.77963 0.14211 0.0
C1371 C 0.90898 0.74449 0.12313 0.0
C1372 C 0.91198 0.72439 0.10403 0.0
C1373 C 0.90312 0.78093 0.16015 0.0
C1374 C 0.8919 0.76369 0.15973 0.0
C1375 C 0.895 0.74573 0.14117 0.0
C1376 C 0.87639 0.76432 0.17781 0.0
C1377 C 0.89994 0.80125 0.179 0.0
C1378 C 0.88096 0.76218 0.20283 0.0
C1379 C 0.86621 0.76265 0.21958 0.0
C1380 C 0.84659 0.76505 0.21162 0.0
C1381 C 0.84216 0.76685 0.18651 0.0
C1382 C 0.85688 0.76645 0.16983 0.0
H1383 H 0.90595 0.81626 0.17323 0.0
H1384 H 0.88402 0.80867 0.18272 0.0
H1385 H 0.90762 0.79419 0.19623 0.0
H1386 H 0.89598 0.75997 0.20941 0.0
H1387 H 0.87019 0.76116 0.23875 0.0
H1388 H 0.26889 0.99989 0.08783 0.0
H1389 H 0.27961 0.96931 0.11874 0.0
H1390 H 0.32792 0.93144 0.07388 0.0
H1391 H 0.31672 0.96194 0.0424 0.0
H1392 H 0.3079 0.90094 0.08926 0.0
H1393 H 0.32295 0.95442 0.16921 0.0
H1394 H 0.29886 0.9676 0.15657 0.0
H1395 H 0.32031 0.96615 0.13886 0.0
C1396 C 0.28218 0.98546 0.08484 0.0
C1397 C 0.29221 0.9837 0.06283 0.0
C1398 C 0.28835 0.96795 0.10263 0.0
C1399 C 0.3048 0.94809 0.09901 0.0
C1400 C 0.3153 0.94666 0.07732 0.0
H1401 H 0.34177 0.84472 0.21778 0.0
H1402 H 0.34105 0.87469 0.18678 0.0
C1403 C 0.30908 0.96432 0.05942 0.0
C1404 C 0.30962 0.92793 0.11682 0.0
H1405 H 0.31572 0.91657 0.1777 0.0
C1406 C 0.3099 0.90433 0.10855 0.0
C1407 C 0.3125 0.93204 0.14206 0.0
C1408 C 0.31386 0.95638 0.15215 0.0
C1409 C 0.31211 0.88514 0.12478 0.0
C1410 C 0.31362 0.88965 0.15019 0.0
C1411 C 0.31422 0.913 0.15835 0.0
C1412 C 0.31438 0.87058 0.16861 0.0
C1413 C 0.31295 0.86017 0.11441 0.0
C1414 C 0.29958 0.85819 0.16908 0.0
C1415 C 0.30005 0.84081 0.18672 0.0
C1416 C 0.31519 0.83558 0.20465 0.0
C1417 C 0.3299 0.84814 0.20428 0.0
C1418 C 0.32949 0.86539 0.18652 0.0
H1419 H 0.31818 0.85804 0.0954 0.0
H1420 H 0.32285 0.84585 0.12549 0.0
H1421 H 0.29793 0.85739 0.11415 0.0
H1422 H 0.2874 0.86225 0.15603 0.0
H1423 H 0.28833 0.83178 0.18653 0.0
H1424 H 0.78536 0.0793 0.04446 0.0
H1425 H 0.77645 0.11122 0.07615 0.0
H1426 H 0.83401 0.08516 0.10981 0.0
H1427 H 0.84271 0.05329 0.07865 0.0
H1428 H 0.80568 0.09815 0.14378 0.0
H1429 H 0.79695 0.17168 0.07738 0.0
H1430 H 0.78132 0.1517 0.07204 0.0
H1431 H 0.80754 0.1402 0.06928 0.0
C1432 C 0.79594 0.08006 0.05877 0.0
C1433 C 0.81479 0.06371 0.05867 0.0
C1434 C 0.79093 0.09857 0.07684 0.0
C1435 C 0.80473 0.10108 0.09519 0.0
C1436 C 0.8231 0.08389 0.09585 0.0
H1437 H 0.82168 0.22316 0.18167 0.0
H1438 H 0.82132 0.19107 0.15129 0.0
C1439 C 0.82806 0.06559 0.07789 0.0
C1440 C 0.80072 0.12186 0.11332 0.0
H1441 H 0.79306 0.18346 0.11871 0.0
C1442 C 0.8027 0.11683 0.13828 0.0
C1443 C 0.79717 0.14628 0.10626 0.0
C1444 C 0.79576 0.15292 0.07981 0.0
C1445 C 0.80155 0.1353 0.1562 0.0
C1446 C 0.79795 0.15973 0.14915 0.0
C1447 C 0.7957 0.16482 0.12422 0.0
C1448 C 0.79743 0.18004 0.16728 0.0
C1449 C 0.80505 0.12828 0.18251 0.0
C1450 C 0.78388 0.18505 0.18628 0.0
C1451 C 0.7841 0.20339 0.2038 0.0
C1452 C 0.79776 0.21741 0.20268 0.0
C1453 C 0.81095 0.2128 0.18324 0.0
C1454 C 0.81075 0.19441 0.16577 0.0
H1455 H 0.81249 0.10868 0.18432 0.0
H1456 H 0.8142 0.13891 0.19216 0.0
H1457 H 0.79068 0.13206 0.19167 0.0
H1458 H 0.77314 0.17469 0.18764 0.0
H1459 H 0.77361 0.20644 0.21834 0.0
H1460 H 0.58171 0.59746 0.80909 0.0
H1461 H 0.60598 0.61995 0.80168 0.0
H1462 H 0.62789 0.60866 0.87559 0.0
H1463 H 0.60399 0.58562 0.88299 0.0
H1464 H 0.61161 0.66219 0.82638 0.0
H1465 H 0.67757 0.58373 0.83419 0.0
H1466 H 0.65292 0.5802 0.83005 0.0
H1467 H 0.66134 0.58823 0.85952 0.0
C1468 C 0.59179 0.59955 0.82372 0.0
C1469 C 0.591 0.58954 0.84659 0.0
C1470 C 0.60557 0.61255 0.81948 0.0
C1471 C 0.6189 0.61565 0.83797 0.0
C1472 C 0.61793 0.60613 0.86096 0.0
H1473 H 0.71405 0.68394 0.85337 0.0
H1474 H 0.68878 0.66245 0.85828 0.0
C1475 C 0.60412 0.59318 0.86523 0.0
C1476 C 0.63379 0.62895 0.83324 0.0
H1477 H 0.68338 0.62257 0.8319 0.0
C1478 C 0.62731 0.65354 0.82743 0.0
C1479 C 0.65423 0.61755 0.83457 0.0
C1480 C 0.662 0.59092 0.83971 0.0
C1481 C 0.64077 0.66725 0.82361 0.0
C1482 C 0.66124 0.6559 0.82521 0.0
C1483 C 0.66769 0.63123 0.83073 0.0
C1484 C 0.67625 0.66942 0.82199 0.0
C1485 C 0.633 0.69391 0.81864 0.0
C1486 C 0.67772 0.6803 0.79985 0.0
C1487 C 0.69208 0.69283 0.79703 0.0
C1488 C 0.70529 0.6946 0.8163 0.0
C1489 C 0.70388 0.68337 0.83833 0.0
C1490 C 0.68954 0.67091 0.84111 0.0
H1491 H 0.61732 0.70097 0.82377 0.0
H1492 H 0.64186 0.70462 0.82872 0.0
H1493 H 0.63398 0.69677 0.79891 0.0
H1494 H 0.66785 0.67898 0.78469 0.0
H1495 H 0.69272 0.70133 0.77987 0.0
H1496 H 0.47855 0.58802 0.85018 0.0
H1497 H 0.44731 0.6148 0.83721 0.0
H1498 H 0.46529 0.60442 0.76248 0.0
H1499 H 0.49692 0.57676 0.77545 0.0
H1500 H 0.44111 0.6575 0.81465 0.0
H1501 H 0.41028 0.59356 0.75782 0.0
H1502 H 0.43134 0.58333 0.77805 0.0
H1503 H 0.43412 0.59612 0.74939 0.0
C1504 C 0.47597 0.59124 0.83091 0.0
C1505 C 0.49036 0.58022 0.81385 0.0
C1506 C 0.458 0.60664 0.82353 0.0
C1507 C 0.45379 0.6116 0.79887 0.0
C1508 C 0.46802 0.60057 0.7816 0.0
H1509 H 0.34753 0.71339 0.73913 0.0
H1510 H 0.38002 0.68465 0.74356 0.0
C1511 C 0.48614 0.58488 0.78903 0.0
C1512 C 0.4347 0.62904 0.79196 0.0
H1513 H 0.39074 0.63396 0.76147 0.0
C1514 C 0.43016 0.65234 0.80291 0.0
C1515 C 0.42037 0.6224 0.7766 0.0
C1516 C 0.42411 0.59745 0.76489 0.0
C1517 C 0.41167 0.66891 0.79938 0.0
C1518 C 0.39717 0.66204 0.78461 0.0
C1519 C 0.40185 0.63911 0.77292 0.0
C1520 C 0.37697 0.67838 0.78161 0.0
C1521 C 0.40771 0.69367 0.81156 0.0
C1522 C 0.36428 0.68408 0.80145 0.0
C1523 C 0.34562 0.70043 0.79899 0.0
C1524 C 0.33926 0.71151 0.77664 0.0
C1525 C 0.35189 0.70531 0.75666 0.0
C1526 C 0.37049 0.68883 0.75911 0.0
H1527 H 0.42155 0.69803 0.81787 0.0
H1528 H 0.39961 0.7079 0.79897 0.0
H1529 H 0.39841 0.69423 0.82763 0.0
H1530 H 0.36892 0.67604 0.81894 0.0
H1531 H 0.33634 0.70471 0.81476 0.0
H1532 H 0.51841 0.44608 0.88071 0.0
H1533 H 0.49482 0.4215 0.87637 0.0
H1534 H 0.45589 0.4772 0.8339 0.0
H1535 H 0.4793 0.50198 0.8383 0.0
H1536 H 0.45462 0.43201 0.88908 0.0
H1537 H 0.46426 0.41624 0.78946 0.0
H1538 H 0.48119 0.42778 0.80858 0.0
H1539 H 0.45792 0.44754 0.79923 0.0
C1540 C 0.50474 0.45327 0.87072 0.0
C1541 C 0.50084 0.47593 0.85965 0.0
C1542 C 0.49132 0.43912 0.86814 0.0
C1543 C 0.47382 0.44733 0.8544 0.0
C1544 C 0.46955 0.47028 0.84407 0.0
H1545 H 0.37696 0.38479 0.81398 0.0
H1546 H 0.39932 0.41101 0.81919 0.0
C1547 C 0.48294 0.48442 0.84662 0.0
C1548 C 0.46008 0.43182 0.85077 0.0
H1549 H 0.43924 0.40207 0.80712 0.0
C1550 C 0.45128 0.42539 0.87119 0.0
C1551 C 0.45575 0.42328 0.82738 0.0
C1552 C 0.46538 0.42885 0.8049 0.0
C1553 C 0.43804 0.41088 0.86881 0.0
C1554 C 0.43379 0.40224 0.84543 0.0
C1555 C 0.44252 0.40877 0.825 0.0
C1556 C 0.42052 0.38613 0.84183 0.0
C1557 C 0.42844 0.4053 0.8913 0.0
C1558 C 0.42529 0.36324 0.85236 0.0
C1559 C 0.41262 0.34821 0.84933 0.0
C1560 C 0.39497 0.35571 0.83559 0.0
C1561 C 0.3905 0.37841 0.82452 0.0
C1562 C 0.40319 0.39346 0.82759 0.0
H1563 H 0.42914 0.4183 0.90653 0.0
H1564 H 0.41275 0.40574 0.8875 0.0
H1565 H 0.43626 0.38685 0.89733 0.0
H1566 H 0.43884 0.35698 0.86289 0.0
H1567 H 0.4167 0.33064 0.85768 0.0
H1568 H 0.60187 0.50133 0.75508 0.0
H1569 H 0.63268 0.46931 0.75015 0.0
H1570 H 0.62195 0.43742 0.81667 0.0
H1571 H 0.59097 0.4684 0.82105 0.0
H1572 H 0.66509 0.45825 0.77638 0.0
H1573 H 0.63533 0.37823 0.77484 0.0
H1574 H 0.61956 0.40859 0.77266 0.0
H1575 H 0.62815 0.39617 0.80196 0.0
C1576 C 0.60592 0.48721 0.76839 0.0
C1577 C 0.59377 0.48731 0.78828 0.0
C1578 C 0.6236 0.46896 0.76562 0.0
C1579 C 0.62957 0.45054 0.78277 0.0
C1580 C 0.61748 0.45081 0.8027 0.0
H1581 H 0.75112 0.3646 0.80822 0.0
H1582 H 0.71965 0.39594 0.80828 0.0
C1583 C 0.59972 0.46872 0.80525 0.0
C1584 C 0.64879 0.43169 0.7806 0.0
H1585 H 0.66994 0.37078 0.78408 0.0
C1586 C 0.66611 0.43909 0.77778 0.0
C1587 C 0.65026 0.40658 0.78199 0.0
C1588 C 0.63229 0.39693 0.78275 0.0
C1589 C 0.68477 0.42226 0.77694 0.0
C1590 C 0.68633 0.39729 0.77996 0.0
C1591 C 0.66894 0.38988 0.78218 0.0
C1592 C 0.70565 0.37839 0.7802 0.0
C1593 C 0.7025 0.43147 0.77226 0.0
C1594 C 0.70818 0.35751 0.76518 0.0
C1595 C 0.72591 0.33927 0.76571 0.0
C1596 C 0.74171 0.34153 0.78107 0.0
C1597 C 0.73928 0.36241 0.79606 0.0
C1598 C 0.72133 0.38048 0.79591 0.0
H1599 H 0.69825 0.44886 0.76252 0.0
H1600 H 0.70949 0.43484 0.78991 0.0
H1601 H 0.71357 0.41814 0.76133 0.0
H1602 H 0.69643 0.35531 0.75288 0.0
H1603 H 0.72733 0.32356 0.75371 0.0
H1604 H 0.58395 0.42919 0.25079 0.0
H1605 H 0.61593 0.39971 0.25574 0.0
H1606 H 0.64517 0.45653 0.24952 0.0
H1607 H 0.61316 0.48629 0.24475 0.0
H1608 H 0.64518 0.38899 0.2214 0.0
H1609 H 0.67347 0.4197 0.3086 0.0
H1610 H 0.64783 0.42949 0.29923 0.0
H1611 H 0.66553 0.44296 0.28652 0.0
C1612 C 0.59713 0.43557 0.25092 0.0
C1613 C 0.59591 0.46019 0.24738 0.0
C1614 C 0.61545 0.41862 0.25367 0.0
C1615 C 0.63299 0.42586 0.25312 0.0
C1616 C 0.63185 0.45053 0.2504 0.0
H1617 H 0.74927 0.33077 0.21994 0.0
H1618 H 0.71757 0.36153 0.21895 0.0
C1619 C 0.6135 0.46754 0.24764 0.0
C1620 C 0.65239 0.40731 0.25377 0.0
H1621 H 0.69603 0.38932 0.28571 0.0
C1622 C 0.65628 0.38905 0.23549 0.0
C1623 C 0.66683 0.40724 0.27226 0.0
C1624 C 0.66321 0.42575 0.29291 0.0
C1625 C 0.67423 0.37089 0.23507 0.0
C1626 C 0.68886 0.37114 0.25323 0.0
C1627 C 0.6849 0.38925 0.27167 0.0
C1628 C 0.70818 0.35244 0.25372 0.0
C1629 C 0.67719 0.35132 0.21543 0.0
C1630 C 0.71365 0.33733 0.27376 0.0
C1631 C 0.7318 0.31975 0.27442 0.0
C1632 C 0.74498 0.31697 0.25509 0.0
C1633 C 0.73947 0.33222 0.23506 0.0
C1634 C 0.7213 0.3498 0.23442 0.0
H1635 H 0.66298 0.3502 0.20677 0.0
H1636 H 0.68651 0.35542 0.20108 0.0
H1637 H 0.68479 0.33335 0.22287 0.0
H1638 H 0.70382 0.33904 0.28889 0.0
H1639 H 0.73551 0.30844 0.2902 0.0
H1640 H 0.58902 0.5956 0.15893 0.0
H1641 H 0.61444 0.61764 0.1622 0.0
H1642 H 0.64832 0.56438 0.21148 0.0
H1643 H 0.62273 0.54257 0.20861 0.0
H1644 H 0.64612 0.60884 0.22857 0.0
H1645 H 0.66774 0.60299 0.13218 0.0
H1646 H 0.64183 0.61622 0.1357 0.0
H1647 H 0.65252 0.58517 0.14376 0.0
C1648 C 0.60202 0.58841 0.17016 0.0
C1649 C 0.60388 0.56733 0.18349 0.0
C1650 C 0.61659 0.60098 0.17197 0.0
C1651 C 0.63349 0.59248 0.18678 0.0
C1652 C 0.63545 0.57129 0.19991 0.0
H1653 H 0.73653 0.65038 0.18438 0.0
H1654 H 0.71388 0.62443 0.18079 0.0
C1655 C 0.6208 0.55887 0.1983 0.0
C1656 C 0.64864 0.60629 0.18958 0.0
H1657 H 0.67885 0.6315 0.15776 0.0
C1658 C 0.65338 0.61363 0.21309 0.0
C1659 C 0.65837 0.61225 0.16944 0.0
C1660 C 0.65502 0.60353 0.14389 0.0
C1661 C 0.66721 0.62719 0.21697 0.0
C1662 C 0.67618 0.63422 0.19672 0.0
C1663 C 0.6718 0.62639 0.17326 0.0
C1664 C 0.69005 0.64978 0.19945 0.0
C1665 C 0.67228 0.63349 0.24278 0.0
C1666 C 0.68417 0.67274 0.21095 0.0
C1667 C 0.69713 0.6875 0.21318 0.0
C1668 C 0.71614 0.67978 0.20358 0.0
C1669 C 0.72194 0.65689 0.19184 0.0
C1670 C 0.70903 0.64203 0.18981 0.0
H1671 H 0.66912 0.62068 0.25587 0.0
H1672 H 0.68807 0.63331 0.24484 0.0
H1673 H 0.66318 0.65192 0.24774 0.0
H1674 H 0.66943 0.67944 0.2179 0.0
H1675 H 0.6921 0.70522 0.22191 0.0
H1676 H 0.51691 0.58118 0.26388 0.0
H1677 H 0.48933 0.61549 0.27673 0.0
H1678 H 0.46031 0.61231 0.20705 0.0
H1679 H 0.48733 0.57852 0.19423 0.0
H1680 H 0.47401 0.66211 0.25207 0.0
H1681 H 0.41786 0.61061 0.25709 0.0
H1682 H 0.44402 0.59615 0.25793 0.0
H1683 H 0.43137 0.60481 0.22938 0.0
C1684 C 0.50456 0.58773 0.25143 0.0
C1685 C 0.50435 0.57703 0.22805 0.0
C1686 C 0.48886 0.60735 0.25875 0.0
C1687 C 0.47265 0.61626 0.24293 0.0
C1688 C 0.47249 0.60553 0.2197 0.0
H1689 H 0.36534 0.72473 0.22032 0.0
H1690 H 0.39541 0.69152 0.21961 0.0
C1691 C 0.48807 0.58621 0.21237 0.0
C1692 C 0.4559 0.63713 0.2499 0.0
H1693 H 0.40567 0.65362 0.25312 0.0
C1694 C 0.45909 0.66027 0.25282 0.0
C1695 C 0.43645 0.63468 0.25079 0.0
C1696 C 0.43219 0.61019 0.24887 0.0
C1697 C 0.4432 0.68117 0.25519 0.0
C1698 C 0.42368 0.67877 0.25492 0.0
C1699 C 0.42061 0.6555 0.2531 0.0
C1700 C 0.4061 0.70008 0.25517 0.0
C1701 C 0.44735 0.70573 0.25673 0.0
C1702 C 0.40211 0.71613 0.27536 0.0
C1703 C 0.38487 0.73527 0.27583 0.0
C1704 C 0.37121 0.73868 0.25614 0.0
C1705 C 0.37548 0.72278 0.23579 0.0
C1706 C 0.39267 0.70369 0.23537 0.0
H1707 H 0.46278 0.70477 0.25201 0.0
H1708 H 0.43719 0.71852 0.24439 0.0
H1709 H 0.44489 0.7132 0.27559 0.0
H1710 H 0.41208 0.71351 0.29102 0.0
H1711 H 0.38204 0.74704 0.29187 0.0
H1712 H 0.51318 0.43808 0.16869 0.0
H1713 H 0.48621 0.41958 0.17459 0.0
H1714 H 0.46055 0.47633 0.22657 0.0
H1715 H 0.48695 0.49559 0.22 0.0
H1716 H 0.47619 0.40168 0.21616 0.0
H1717 H 0.41335 0.47548 0.18321 0.0
H1718 H 0.43867 0.4748 0.17782 0.0
H1719 H 0.42797 0.48505 0.20684 0.0
C1720 C 0.50166 0.44695 0.18104 0.0
C1721 C 0.50234 0.46844 0.19381 0.0
C1722 C 0.48628 0.43621 0.18454 0.0
C1723 C 0.47119 0.44671 0.20079 0.0
C1724 C 0.47179 0.46813 0.21356 0.0
H1725 H 0.37065 0.39906 0.25028 0.0
H1726 H 0.3965 0.42018 0.24602 0.0
C1727 C 0.48711 0.47896 0.21001 0.0
C1728 C 0.45533 0.43465 0.20507 0.0
H1729 H 0.40537 0.4429 0.20257 0.0
C1730 C 0.46072 0.41069 0.2131 0.0
C1731 C 0.43511 0.44644 0.2012 0.0
C1732 C 0.42839 0.47178 0.19158 0.0
C1733 C 0.44648 0.39824 0.21746 0.0
C1734 C 0.42631 0.40996 0.21345 0.0
C1735 C 0.42085 0.434 0.20571 0.0
C1736 C 0.41073 0.39718 0.21624 0.0
C1737 C 0.45311 0.37269 0.22655 0.0
C1738 C 0.41009 0.37743 0.20077 0.0
C1739 C 0.3954 0.36538 0.20315 0.0
C1740 C 0.38098 0.37287 0.22102 0.0
C1741 C 0.38164 0.39272 0.2365 0.0
C1742 C 0.39632 0.40487 0.234 0.0
H1743 H 0.46834 0.36851 0.23439 0.0
H1744 H 0.44303 0.36968 0.24057 0.0
H1745 H 0.45292 0.35976 0.21113 0.0
H1746 H 0.42093 0.37139 0.18675 0.0
H1747 H 0.39547 0.35001 0.19111 0.0
H1748 H 0.80773 0.61126 0.53055 0.0
H1749 H 0.80942 0.6376 0.56584 0.0
H1750 H 0.80901 0.57945 0.61356 0.0
H1751 H 0.80748 0.55273 0.57811 0.0
H1752 H 0.78161 0.65193 0.60084 0.0
H1753 H 0.85352 0.60525 0.64365 0.0
H1754 H 0.84671 0.59841 0.61286 0.0
H1755 H 0.83695 0.58648 0.63809 0.0
C1756 C 0.80832 0.60383 0.54851 0.0
C1757 C 0.80751 0.57973 0.55135 0.0
C1758 C 0.80922 0.61903 0.56875 0.0
C1759 C 0.80944 0.61063 0.59251 0.0
C1760 C 0.8092 0.58636 0.5955 0.0
H1761 H 0.77689 0.70836 0.72005 0.0
H1762 H 0.77855 0.67736 0.68788 0.0
C1763 C 0.80831 0.57105 0.57516 0.0
C1764 C 0.80871 0.62786 0.61382 0.0
H1765 H 0.83359 0.63872 0.66565 0.0
C1766 C 0.79298 0.64897 0.61501 0.0
C1767 C 0.8236 0.62424 0.63231 0.0
C1768 C 0.84126 0.6025 0.63167 0.0
C1769 C 0.7917 0.6664 0.63402 0.0
C1770 C 0.80641 0.66263 0.65271 0.0
C1771 C 0.82221 0.64159 0.6515 0.0
C1772 C 0.80587 0.68069 0.67319 0.0
C1773 C 0.77481 0.68906 0.63357 0.0
C1774 C 0.82092 0.69257 0.67623 0.0
C1775 C 0.82003 0.71036 0.69468 0.0
C1776 C 0.80414 0.7166 0.71076 0.0
C1777 C 0.78933 0.7042 0.70804 0.0
C1778 C 0.7902 0.68649 0.68952 0.0
H1779 H 0.76752 0.69192 0.61531 0.0
H1780 H 0.76362 0.68744 0.64676 0.0
H1781 H 0.77995 0.70528 0.6389 0.0
H1782 H 0.83321 0.68843 0.66397 0.0
H1783 H 0.83176 0.71939 0.69617 0.0
H1784 H 0.54579 0.73016 0.59444 0.0
H1785 H 0.51538 0.73293 0.61612 0.0
H1786 H 0.48651 0.79754 0.57751 0.0
H1787 H 0.51667 0.79478 0.55551 0.0
H1788 H 0.48077 0.80159 0.62835 0.0
H1789 H 0.46439 0.71848 0.58836 0.0
H1790 H 0.48871 0.71424 0.60154 0.0
H1791 H 0.48168 0.7325 0.57513 0.0
C1792 C 0.53294 0.7448 0.59029 0.0
C1793 C 0.53381 0.76224 0.57314 0.0
C1794 C 0.51554 0.74637 0.60275 0.0
C1795 C 0.4986 0.76532 0.59829 0.0
C1796 C 0.4994 0.78277 0.58127 0.0
H1797 H 0.37692 0.7822 0.63462 0.0
H1798 H 0.40864 0.77689 0.61516 0.0
C1799 C 0.51675 0.78121 0.56877 0.0
C1800 C 0.4801 0.76731 0.6116 0.0
H1801 H 0.44372 0.73902 0.6198 0.0
C1802 C 0.47269 0.78788 0.62655 0.0
C1803 C 0.46948 0.74952 0.60904 0.0
C1804 C 0.47631 0.72751 0.59251 0.0
C1805 C 0.45499 0.79112 0.63905 0.0
C1806 C 0.4445 0.77318 0.63674 0.0
C1807 C 0.45187 0.75264 0.62173 0.0
C1808 C 0.42539 0.77594 0.6489 0.0
C1809 C 0.44739 0.81402 0.65413 0.0
C1810 C 0.42426 0.77684 0.67439 0.0
C1811 C 0.40609 0.77996 0.68562 0.0
C1812 C 0.38867 0.78228 0.67155 0.0
C1813 C 0.38996 0.78092 0.64602 0.0
C1814 C 0.40811 0.77771 0.63485 0.0
H1815 H 0.45484 0.82821 0.64983 0.0
H1816 H 0.43126 0.82142 0.65119 0.0
H1817 H 0.45015 0.80985 0.67369 0.0
H1818 H 0.43744 0.77515 0.68562 0.0
H1819 H 0.40564 0.78101 0.70529 0.0
H1820 H 0.29628 0.45783 0.57498 0.0
H1821 H 0.29159 0.42913 0.60477 0.0
H1822 H 0.3472 0.42944 0.6395 0.0
H1823 H 0.35194 0.45831 0.61021 0.0
H1824 H 0.34265 0.3827 0.63146 0.0
H1825 H 0.27718 0.44193 0.67687 0.0
H1826 H 0.27476 0.43926 0.64435 0.0
H1827 H 0.29258 0.45365 0.65747 0.0
C1828 C 0.30746 0.45212 0.58907 0.0
C1829 C 0.32453 0.46067 0.58991 0.0
C1830 C 0.30472 0.43561 0.60619 0.0
C1831 C 0.31893 0.42721 0.62465 0.0
C1832 C 0.33598 0.43558 0.6255 0.0
H1833 H 0.31055 0.34746 0.75574 0.0
H1834 H 0.31337 0.37782 0.72652 0.0
C1835 C 0.33871 0.45213 0.60851 0.0
C1836 C 0.31638 0.40926 0.64272 0.0
H1837 H 0.28688 0.40075 0.68829 0.0
C1838 C 0.33044 0.38668 0.64386 0.0
C1839 C 0.3006 0.41445 0.6592 0.0
C1840 C 0.28548 0.4387 0.65967 0.0
C1841 C 0.32901 0.36912 0.66064 0.0
C1842 C 0.31298 0.37408 0.67673 0.0
C1843 C 0.29908 0.39681 0.67588 0.0
C1844 C 0.31051 0.3559 0.69455 0.0
C1845 C 0.34489 0.34551 0.66128 0.0
C1846 C 0.30759 0.33356 0.68645 0.0
C1847 C 0.30587 0.31619 0.7031 0.0
C1848 C 0.30702 0.32067 0.72839 0.0
C1849 C 0.30959 0.34328 0.73648 0.0
C1850 C 0.3112 0.36071 0.71976 0.0
H1851 H 0.35844 0.34678 0.65213 0.0
H1852 H 0.34882 0.33987 0.68032 0.0
H1853 H 0.33939 0.33115 0.65171 0.0
H1854 H 0.30668 0.32949 0.66715 0.0
H1855 H 0.30387 0.29909 0.69607 0.0
H1856 H 0.53577 0.25614 0.60966 0.0
H1857 H 0.56532 0.26226 0.63039 0.0
H1858 H 0.59138 0.26564 0.56103 0.0
H1859 H 0.56164 0.26004 0.54014 0.0
H1860 H 0.60126 0.23112 0.62751 0.0
H1861 H 0.60563 0.32114 0.59765 0.0
H1862 H 0.58355 0.31092 0.59362 0.0
H1863 H 0.60356 0.30065 0.57294 0.0
C1864 C 0.54759 0.25878 0.59878 0.0
C1865 C 0.54627 0.25766 0.57322 0.0
C1866 C 0.56453 0.2622 0.61068 0.0
C1867 C 0.58062 0.26456 0.59736 0.0
C1868 C 0.57907 0.26439 0.5718 0.0
H1869 H 0.70286 0.25718 0.63883 0.0
H1870 H 0.67167 0.25944 0.6167 0.0
C1871 C 0.56202 0.26114 0.55984 0.0
C1872 C 0.59951 0.26492 0.61025 0.0
H1873 H 0.63405 0.297 0.61822 0.0
C1874 C 0.60832 0.24565 0.62558 0.0
C1875 C 0.60888 0.28374 0.60764 0.0
C1876 C 0.59985 0.30541 0.59226 0.0
C1877 C 0.6262 0.24457 0.63816 0.0
C1878 C 0.63552 0.2634 0.63563 0.0
C1879 C 0.62687 0.28259 0.62017 0.0
C1880 C 0.65423 0.26337 0.64903 0.0
C1881 C 0.63519 0.22303 0.65376 0.0
C1882 C 0.65473 0.26526 0.67454 0.0
C1883 C 0.67252 0.26395 0.68725 0.0
C1884 C 0.69023 0.26069 0.67471 0.0
C1885 C 0.68957 0.25937 0.64909 0.0
C1886 C 0.67173 0.26082 0.63639 0.0
H1887 H 0.62865 0.20766 0.64949 0.0
H1888 H 0.65137 0.21671 0.65131 0.0
H1889 H 0.63253 0.22838 0.67319 0.0
H1890 H 0.64137 0.26748 0.68467 0.0
H1891 H 0.67247 0.26484 0.70694 0.0
H1892 H 0.81016 0.48209 0.4424 0.0
H1893 H 0.81164 0.45142 0.40975 0.0
H1894 H 0.81456 0.39704 0.46318 0.0
H1895 H 0.81286 0.42747 0.49578 0.0
H1896 H 0.83853 0.40701 0.39788 0.0
H1897 H 0.76665 0.3923 0.42184 0.0
H1898 H 0.77508 0.41753 0.43403 0.0
H1899 H 0.78429 0.38794 0.44664 0.0
C1900 C 0.8114 0.46354 0.44724 0.0
C1901 C 0.81125 0.45739 0.47183 0.0
C1902 C 0.81216 0.446 0.42851 0.0
C1903 C 0.81272 0.42195 0.4339 0.0
C1904 C 0.81361 0.41554 0.45844 0.0
H1905 H 0.80802 0.29206 0.34738 0.0
H1906 H 0.8106 0.32132 0.38006 0.0
C1907 C 0.81281 0.43301 0.47712 0.0
C1908 C 0.81192 0.40368 0.414 0.0
H1909 H 0.78499 0.36536 0.39215 0.0
C1910 C 0.82678 0.39799 0.39659 0.0
C1911 C 0.7966 0.39178 0.4122 0.0
C1912 C 0.77964 0.39782 0.42951 0.0
C1913 C 0.82696 0.3805 0.37784 0.0
C1914 C 0.81164 0.3686 0.37606 0.0
C1915 C 0.79679 0.37431 0.39348 0.0
C1916 C 0.81051 0.35057 0.35604 0.0
C1917 C 0.84385 0.37454 0.36044 0.0
C1918 C 0.80933 0.35718 0.33154 0.0
C1919 C 0.80787 0.34048 0.3128 0.0
C1920 C 0.8074 0.31668 0.318 0.0
C1921 C 0.80842 0.31012 0.34258 0.0
C1922 C 0.80987 0.32689 0.36134 0.0
H1923 H 0.85696 0.37967 0.36826 0.0
H1924 H 0.84818 0.35491 0.3555 0.0
H1925 H 0.83924 0.38483 0.34354 0.0
H1926 H 0.80928 0.37543 0.32686 0.0
H1927 H 0.80698 0.34637 0.29419 0.0
H1928 H 0.65239 0.79364 0.47624 0.0
H1929 H 0.67745 0.79759 0.4479 0.0
H1930 H 0.65629 0.75277 0.39496 0.0
H1931 H 0.63103 0.74904 0.42282 0.0
H1932 H 0.69795 0.73911 0.4033 0.0
H1933 H 0.66958 0.83739 0.38488 0.0
H1934 H 0.67285 0.82938 0.41638 0.0
H1935 H 0.65454 0.82009 0.39796 0.0
C1936 C 0.65285 0.78485 0.45848 0.0
C1937 C 0.63955 0.771 0.45197 0.0
C1938 C 0.66723 0.78715 0.44227 0.0
C1939 C 0.66862 0.77569 0.41919 0.0
C1940 C 0.65548 0.7618 0.41266 0.0
H1941 H 0.74137 0.75446 0.29251 0.0
H1942 H 0.71719 0.75485 0.32347 0.0
C1943 C 0.64108 0.75956 0.42877 0.0
C1944 C 0.68413 0.7774 0.40202 0.0
H1945 H 0.69951 0.81663 0.36658 0.0
C1946 C 0.6983 0.75607 0.3953 0.0
C1947 C 0.68468 0.79957 0.39173 0.0
C1948 C 0.66955 0.82294 0.39789 0.0
C1949 C 0.71295 0.75625 0.37854 0.0
C1950 C 0.71319 0.77828 0.36769 0.0
C1951 C 0.69928 0.79974 0.3748 0.0
C1952 C 0.72741 0.77914 0.34841 0.0
C1953 C 0.72817 0.73285 0.37281 0.0
C1954 C 0.74081 0.79339 0.35164 0.0
C1955 C 0.75467 0.79337 0.33379 0.0
C1956 C 0.75531 0.77919 0.31228 0.0
C1957 C 0.74147 0.76549 0.30886 0.0
C1958 C 0.72766 0.76556 0.32666 0.0
H1959 H 0.72953 0.71957 0.3875 0.0
H1960 H 0.72367 0.72462 0.35579 0.0
H1961 H 0.74286 0.73601 0.3701 0.0
H1962 H 0.74082 0.80415 0.3682 0.0
H1963 H 0.76505 0.80417 0.33705 0.0
H1964 H 0.36037 0.58834 0.46143 0.0
H1965 H 0.35739 0.62163 0.43356 0.0
H1966 H 0.29497 0.62895 0.4254 0.0
H1967 H 0.29783 0.59586 0.4535 0.0
H1968 H 0.34679 0.6256 0.38708 0.0
H1969 H 0.29437 0.6985 0.43813 0.0
H1970 H 0.30653 0.66982 0.45143 0.0
H1971 H 0.285 0.6726 0.43207 0.0
C1972 C 0.34598 0.59703 0.45378 0.0
C1973 C 0.32934 0.58933 0.4599 0.0
C1974 C 0.34428 0.61619 0.43784 0.0
C1975 C 0.32589 0.62826 0.42754 0.0
C1976 C 0.30925 0.62055 0.43354 0.0
H1977 H 0.31002 0.71031 0.2944 0.0
H1978 H 0.3127 0.68035 0.32572 0.0
C1979 C 0.31092 0.60148 0.44963 0.0
C1980 C 0.32438 0.64808 0.40975 0.0
H1981 H 0.29971 0.70668 0.3969 0.0
C1982 C 0.33655 0.64335 0.38937 0.0
C1983 C 0.31128 0.67151 0.41273 0.0
C1984 C 0.2987 0.67854 0.4349 0.0
C1985 C 0.3357 0.66099 0.37177 0.0
C1986 C 0.32193 0.68402 0.37413 0.0
C1987 C 0.3101 0.689 0.39481 0.0
C1988 C 0.31949 0.70297 0.3552 0.0
C1989 C 0.34988 0.65484 0.35101 0.0
C1990 C 0.32158 0.72627 0.36127 0.0
C1991 C 0.31981 0.74373 0.34328 0.0
C1992 C 0.31586 0.73832 0.31878 0.0
C1993 C 0.3133 0.71517 0.31294 0.0
C1994 C 0.31496 0.69785 0.33089 0.0
H1995 H 0.36314 0.64008 0.35578 0.0
H1996 H 0.34247 0.64846 0.33502 0.0
H1997 H 0.35472 0.67088 0.34572 0.0
H1998 H 0.32493 0.73083 0.37988 0.0
H1999 H 0.32185 0.76131 0.34854 0.0
H2000 H 0.4828 0.2148 0.43555 0.0
H2001 H 0.45459 0.22664 0.40763 0.0
H2002 H 0.42494 0.28122 0.45966 0.0
H2003 H 0.45383 0.27002 0.48737 0.0
H2004 H 0.41954 0.22235 0.4133 0.0
H2005 H 0.41305 0.31964 0.39926 0.0
H2006 H 0.43433 0.30003 0.414 0.0
H2007 H 0.41214 0.31253 0.43066 0.0
C2008 C 0.47042 0.22964 0.4409 0.0
C2009 C 0.47056 0.24152 0.46365 0.0
C2010 C 0.45423 0.23637 0.42492 0.0
C2011 C 0.43753 0.25494 0.43132 0.0
C2012 C 0.43775 0.26722 0.45392 0.0
H2013 H 0.32511 0.25953 0.3547 0.0
H2014 H 0.35189 0.25444 0.38507 0.0
C2015 C 0.45424 0.26076 0.46983 0.0
C2016 C 0.41968 0.25997 0.41482 0.0
H2017 H 0.38687 0.30431 0.3833 0.0
C2018 C 0.41246 0.24031 0.40673 0.0
C2019 C 0.41042 0.28332 0.40597 0.0
C2020 C 0.41798 0.30505 0.41271 0.0
C2021 C 0.39659 0.24318 0.38995 0.0
C2022 C 0.38698 0.26662 0.3816 0.0
C2023 C 0.39406 0.28636 0.38981 0.0
C2024 C 0.37006 0.27085 0.3637 0.0
C2025 C 0.39087 0.22081 0.38068 0.0
C2026 C 0.37079 0.28273 0.3419 0.0
C2027 C 0.35527 0.28612 0.32469 0.0
C2028 C 0.33867 0.27754 0.32876 0.0
C2029 C 0.3378 0.266 0.35076 0.0
C2030 C 0.35319 0.26297 0.36813 0.0
H2031 H 0.40318 0.20419 0.38294 0.0
H2032 H 0.37829 0.2186 0.39123 0.0
H2033 H 0.38639 0.22221 0.36114 0.0
H2034 H 0.38355 0.2891 0.338 0.0
H2035 H 0.35643 0.29516 0.30801 0.0
H2036 H 0.65439 0.76008 0.5711 0.0
H2037 H 0.67506 0.76775 0.60507 0.0
H2038 H 0.63384 0.83707 0.61924 0.0
H2039 H 0.61299 0.82965 0.58475 0.0
H2040 H 0.67329 0.83875 0.6219 0.0
H2041 H 0.6626 0.76403 0.67659 0.0
H2042 H 0.67068 0.75378 0.64653 0.0
H2043 H 0.64711 0.77538 0.6505 0.0
C2044 C 0.64965 0.777 0.58136 0.0
C2045 C 0.63192 0.79416 0.57534 0.0
C2046 C 0.66146 0.78128 0.6009 0.0
C2047 C 0.65575 0.8027 0.61506 0.0
C2048 C 0.63839 0.82029 0.60869 0.0
H2049 H 0.72709 0.80032 0.74904 0.0
H2050 H 0.6979 0.80792 0.72205 0.0
C2051 C 0.62653 0.81604 0.58898 0.0
C2052 C 0.6682 0.80642 0.6363 0.0
H2053 H 0.69113 0.77829 0.68708 0.0
C2054 C 0.67695 0.82579 0.63641 0.0
C2055 C 0.67262 0.78987 0.65554 0.0
C2056 C 0.66258 0.76976 0.65747 0.0
C2057 C 0.69102 0.82807 0.65439 0.0
C2058 C 0.69674 0.81023 0.67238 0.0
C2059 C 0.68698 0.79182 0.67315 0.0
C2060 C 0.71388 0.80894 0.68923 0.0
C2061 C 0.69977 0.84941 0.6537 0.0
C2062 C 0.73255 0.80716 0.67984 0.0
C2063 C 0.7492 0.80297 0.69519 0.0
C2064 C 0.74763 0.80008 0.7203 0.0
C2065 C 0.72885 0.80246 0.72981 0.0
C2066 C 0.71214 0.80681 0.7144 0.0
H2067 H 0.6892 0.86529 0.6454 0.0
H2068 H 0.70408 0.85479 0.6722 0.0
H2069 H 0.71308 0.8445 0.64233 0.0
H2070 H 0.73441 0.80801 0.66044 0.0
H2071 H 0.76341 0.80111 0.68716 0.0
H2072 H 0.58104 0.1789 0.43867 0.0
H2073 H 0.61078 0.18436 0.42028 0.0
H2074 H 0.61604 0.23542 0.47782 0.0
H2075 H 0.5863 0.23013 0.4962 0.0
H2076 H 0.6202 0.25224 0.4331 0.0
H2077 H 0.66791 0.15872 0.44229 0.0
H2078 H 0.6449 0.15991 0.42674 0.0
H2079 H 0.64504 0.16958 0.45818 0.0
C2080 C 0.58868 0.19104 0.44756 0.0
C2081 C 0.58129 0.20409 0.46888 0.0
C2082 C 0.60569 0.19412 0.43707 0.0
C2083 C 0.61579 0.21006 0.44786 0.0
C2084 C 0.60849 0.22301 0.46919 0.0
H2085 H 0.73284 0.21604 0.40497 0.0
H2086 H 0.70452 0.21262 0.4281 0.0
C2087 C 0.59144 0.22005 0.47961 0.0
C2088 C 0.63351 0.21395 0.43644 0.0
H2089 H 0.67942 0.18464 0.41662 0.0
C2090 C 0.63321 0.23749 0.42964 0.0
C2091 C 0.65058 0.19477 0.43227 0.0
C2092 C 0.65227 0.16937 0.44047 0.0
C2093 C 0.64932 0.24227 0.41822 0.0
C2094 C 0.66602 0.22289 0.41304 0.0
C2095 C 0.66653 0.19945 0.42041 0.0
C2096 C 0.68299 0.22637 0.39957 0.0
C2097 C 0.64836 0.26806 0.41205 0.0
C2098 C 0.68028 0.23526 0.37587 0.0
C2099 C 0.69641 0.23727 0.36265 0.0
C2100 C 0.71561 0.23018 0.37277 0.0
C2101 C 0.71825 0.2215 0.39661 0.0
C2102 C 0.7021 0.21958 0.40986 0.0
H2103 H 0.6376 0.28127 0.42349 0.0
H2104 H 0.66301 0.2718 0.41448 0.0
H2105 H 0.64353 0.2711 0.39275 0.0
H2106 H 0.66575 0.24003 0.36733 0.0
H2107 H 0.6939 0.24356 0.34416 0.0
H2108 H 0.74494 0.58855 0.41458 0.0
H2109 H 0.75176 0.60884 0.37847 0.0
H2110 H 0.81248 0.5966 0.4024 0.0
H2111 H 0.80583 0.5763 0.4381 0.0
H2112 H 0.76337 0.64929 0.37845 0.0
H2113 H 0.81959 0.5775 0.33167 0.0
H2114 H 0.80458 0.57101 0.3553 0.0
H2115 H 0.8265 0.58056 0.363 0.0
C2116 C 0.75975 0.59003 0.41196 0.0
C2117 C 0.77486 0.5807 0.42909 0.0
C2118 C 0.76368 0.60144 0.39128 0.0
C2119 C 0.78276 0.6037 0.38743 0.0
C2120 C 0.79784 0.59429 0.40448 0.0
H2121 H 0.82102 0.71667 0.32926 0.0
H2122 H 0.8146 0.68362 0.35177 0.0
C2123 C 0.79397 0.58278 0.42499 0.0
C2124 C 0.78656 0.61828 0.36728 0.0
H2125 H 0.81957 0.61901 0.32313 0.0
C2126 C 0.77539 0.64248 0.36603 0.0
C2127 C 0.80213 0.60935 0.35087 0.0
C2128 C 0.81372 0.58309 0.3501 0.0
C2129 C 0.78012 0.65837 0.34986 0.0
C2130 C 0.79666 0.64994 0.33493 0.0
C2131 C 0.80712 0.62544 0.335 0.0
C2132 C 0.80375 0.66697 0.32037 0.0
C2133 C 0.76773 0.68428 0.34938 0.0
C2134 C 0.80059 0.66776 0.29511 0.0
C2135 C 0.80424 0.68667 0.28211 0.0
C2136 C 0.81108 0.705 0.2943 0.0
C2137 C 0.81561 0.70299 0.31934 0.0
C2138 C 0.81195 0.68414 0.33226 0.0
H2139 H 0.75293 0.68608 0.35691 0.0
H2140 H 0.77515 0.69586 0.36061 0.0
H2141 H 0.76587 0.69115 0.33056 0.0
H2142 H 0.79428 0.65457 0.28571 0.0
H2143 H 0.80059 0.68768 0.26284 0.0
H2144 H 0.52798 0.83376 0.5133 0.0
H2145 H 0.49524 0.84065 0.49416 0.0
H2146 H 0.51992 0.84464 0.4241 0.0
H2147 H 0.55276 0.8379 0.44301 0.0
H2148 H 0.4811 0.87846 0.43277 0.0
H2149 H 0.48556 0.78228 0.45232 0.0
H2150 H 0.48908 0.8011 0.47795 0.0
H2151 H 0.50683 0.79431 0.4542 0.0
C2152 C 0.52643 0.83671 0.4939 0.0
C2153 C 0.54307 0.8349 0.47962 0.0
C2154 C 0.5077 0.84053 0.483 0.0
C2155 C 0.50528 0.84265 0.4577 0.0
C2156 C 0.52154 0.84289 0.44367 0.0
H2157 H 0.42128 0.80803 0.35624 0.0
H2158 H 0.45006 0.8109 0.38093 0.0
C2159 C 0.5403 0.83903 0.45452 0.0
C2160 C 0.48634 0.84211 0.44555 0.0
H2161 H 0.4568 0.80454 0.43217 0.0
C2162 C 0.47566 0.86241 0.43276 0.0
C2163 C 0.47951 0.82097 0.44533 0.0
C2164 C 0.49086 0.79831 0.458 0.0
C2165 C 0.45825 0.8621 0.4197 0.0
C2166 C 0.45139 0.84098 0.41959 0.0
C2167 C 0.46206 0.82074 0.43246 0.0
C2168 C 0.43371 0.83904 0.40525 0.0
C2169 C 0.44763 0.88406 0.40551 0.0
C2170 C 0.41493 0.85356 0.4111 0.0
C2171 C 0.39838 0.85179 0.39718 0.0
C2172 C 0.40033 0.83543 0.37715 0.0
C2173 C 0.41917 0.82057 0.37171 0.0
C2174 C 0.43567 0.82231 0.38568 0.0
H2175 H 0.4568 0.89698 0.4037 0.0
H2176 H 0.44332 0.87859 0.38704 0.0
H2177 H 0.43397 0.89364 0.41504 0.0
H2178 H 0.41307 0.86624 0.42645 0.0
H2179 H 0.38406 0.86323 0.4021 0.0
H2180 H 0.27166 0.5122 0.45796 0.0
H2181 H 0.26157 0.49227 0.42141 0.0
H2182 H 0.30725 0.42721 0.43686 0.0
H2183 H 0.3176 0.447 0.47278 0.0
H2184 H 0.30793 0.44275 0.38991 0.0
H2185 H 0.23251 0.43881 0.41392 0.0
H2186 H 0.23767 0.46797 0.41595 0.0
H2187 H 0.24993 0.44472 0.43648 0.0
C2188 C 0.2793 0.49352 0.45371 0.0
C2189 C 0.29547 0.48117 0.46814 0.0
C2190 C 0.27352 0.48217 0.43286 0.0
C2191 C 0.28366 0.45826 0.42645 0.0
C2192 C 0.2993 0.44573 0.44139 0.0
H2193 H 0.27007 0.33741 0.34934 0.0
H2194 H 0.26775 0.37303 0.37539 0.0
C2195 C 0.30517 0.45705 0.46196 0.0
C2196 C 0.27899 0.44619 0.40366 0.0
H2197 H 0.24521 0.4196 0.37728 0.0
C2198 C 0.2941 0.43798 0.38688 0.0
C2199 C 0.2609 0.44014 0.39981 0.0
C2200 C 0.2443 0.44819 0.4175 0.0
C2201 C 0.2922 0.42245 0.36726 0.0
C2202 C 0.2744 0.41552 0.36393 0.0
C2203 C 0.25879 0.42504 0.37982 0.0
C2204 C 0.27297 0.39551 0.34676 0.0
C2205 C 0.30981 0.41221 0.35144 0.0
C2206 C 0.27605 0.39647 0.32172 0.0
C2207 C 0.2777 0.37583 0.30667 0.0
C2208 C 0.27604 0.35404 0.31642 0.0
C2209 C 0.27164 0.35375 0.34118 0.0
C2210 C 0.27018 0.37421 0.35615 0.0
H2211 H 0.32345 0.41609 0.3592 0.0
H2212 H 0.31252 0.39227 0.34899 0.0
H2213 H 0.30691 0.42041 0.33324 0.0
H2214 H 0.27782 0.41291 0.31398 0.0
H2215 H 0.28088 0.37675 0.28763 0.0
H2216 H 0.48922 0.16936 0.60618 0.0
H2217 H 0.46476 0.17326 0.6375 0.0
H2218 H 0.42737 0.23543 0.60192 0.0
H2219 H 0.45122 0.23096 0.56978 0.0
H2220 H 0.45184 0.20954 0.66938 0.0
H2221 H 0.38842 0.1971 0.61347 0.0
H2222 H 0.41307 0.19021 0.60189 0.0
H2223 H 0.39781 0.22094 0.60254 0.0
C2224 C 0.47566 0.18358 0.60459 0.0
C2225 C 0.47232 0.19981 0.58521 0.0
C2226 C 0.46171 0.18589 0.62272 0.0
C2227 C 0.44408 0.20444 0.62195 0.0
C2228 C 0.44064 0.22063 0.60267 0.0
H2229 H 0.36978 0.26819 0.7416 0.0
H2230 H 0.39529 0.25646 0.71113 0.0
C2231 C 0.4545 0.21823 0.58441 0.0
C2232 C 0.42977 0.20759 0.64194 0.0
H2233 H 0.38119 0.21423 0.65353 0.0
C2234 C 0.43642 0.21033 0.66593 0.0
C2235 C 0.40972 0.20822 0.63754 0.0
C2236 C 0.40187 0.2037 0.6125 0.0
C2237 C 0.42348 0.21442 0.68551 0.0
C2238 C 0.40321 0.21646 0.68092 0.0
C2239 C 0.39668 0.21295 0.65704 0.0
C2240 C 0.38842 0.22282 0.70046 0.0
C2241 C 0.43173 0.2163 0.71092 0.0
C2242 C 0.37579 0.20806 0.70439 0.0
C2243 C 0.36097 0.21488 0.72163 0.0
C2244 C 0.3585 0.23664 0.73531 0.0
C2245 C 0.3714 0.25117 0.73163 0.0
C2246 C 0.38609 0.24443 0.71426 0.0
H2247 H 0.44766 0.20665 0.71218 0.0
H2248 H 0.43021 0.23565 0.71583 0.0
H2249 H 0.42375 0.20869 0.72444 0.0
H2250 H 0.37725 0.19136 0.69389 0.0
H2251 H 0.35127 0.20329 0.72395 0.0
H2252 H 0.73535 0.47906 0.57681 0.0
H2253 H 0.74059 0.4493 0.60924 0.0
H2254 H 0.80298 0.44333 0.60957 0.0
H2255 H 0.79805 0.47223 0.5771 0.0
H2256 H 0.79219 0.39851 0.60466 0.0
H2257 H 0.75665 0.45656 0.68263 0.0
H2258 H 0.74249 0.45874 0.65461 0.0
H2259 H 0.76452 0.46893 0.65605 0.0
C2260 C 0.75013 0.4715 0.58395 0.0
C2261 C 0.76622 0.47819 0.57447 0.0
C2262 C 0.75308 0.45469 0.60254 0.0
C2263 C 0.77215 0.44438 0.61185 0.0
C2264 C 0.78815 0.45127 0.6027 0.0
H2265 H 0.81298 0.35267 0.73563 0.0
H2266 H 0.80797 0.38387 0.70481 0.0
C2267 C 0.78523 0.46801 0.58425 0.0
C2268 C 0.77584 0.42523 0.63005 0.0
H2269 H 0.76867 0.4145 0.68928 0.0
C2270 C 0.78705 0.40195 0.62317 0.0
C2271 C 0.76925 0.42999 0.65416 0.0
C2272 C 0.75767 0.45493 0.6625 0.0
C2273 C 0.79174 0.38315 0.6398 0.0
C2274 C 0.78492 0.3878 0.66381 0.0
C2275 C 0.77384 0.41111 0.67079 0.0
C2276 C 0.78871 0.36846 0.68178 0.0
C2277 C 0.80413 0.35852 0.6317 0.0
C2278 C 0.77962 0.34953 0.67879 0.0
C2279 C 0.78241 0.33177 0.69627 0.0
C2280 C 0.79436 0.33265 0.71706 0.0
C2281 C 0.80381 0.3514 0.71974 0.0
C2282 C 0.80089 0.36928 0.70227 0.0
H2283 H 0.81162 0.35926 0.61436 0.0
H2284 H 0.81545 0.35077 0.64584 0.0
H2285 H 0.79452 0.34605 0.62889 0.0
H2286 H 0.77004 0.34878 0.66316 0.0
H2287 H 0.77491 0.31758 0.69365 0.0
H2288 H 0.26148 0.58797 0.55817 0.0
H2289 H 0.2463 0.62311 0.58461 0.0
H2290 H 0.30401 0.62569 0.61121 0.0
H2291 H 0.31913 0.59124 0.58508 0.0
H2292 H 0.24939 0.62838 0.63592 0.0
H2293 H 0.27899 0.69528 0.59041 0.0
H2294 H 0.27806 0.6668 0.57595 0.0
H2295 H 0.29817 0.66832 0.59647 0.0
C2296 C 0.27087 0.59616 0.5696 0.0
C2297 C 0.29151 0.58693 0.56941 0.0
C2298 C 0.2622 0.61619 0.58464 0.0
C2299 C 0.27409 0.62728 0.59942 0.0
C2300 C 0.2946 0.6178 0.59947 0.0
H2301 H 0.27667 0.69285 0.73443 0.0
H2302 H 0.27102 0.66784 0.69978 0.0
C2303 C 0.30322 0.59795 0.58459 0.0
C2304 C 0.26553 0.6482 0.61578 0.0
H2305 H 0.27285 0.70271 0.63364 0.0
C2306 C 0.25403 0.64496 0.63515 0.0
C2307 C 0.27111 0.67009 0.61441 0.0
C2308 C 0.28208 0.67544 0.59301 0.0
C2309 C 0.24961 0.6621 0.65443 0.0
C2310 C 0.25736 0.68256 0.6545 0.0
C2311 C 0.26718 0.68685 0.63392 0.0
C2312 C 0.25775 0.69803 0.6766 0.0
C2313 C 0.23721 0.65768 0.6748 0.0
C2314 C 0.25243 0.72341 0.67515 0.0
C2315 C 0.25613 0.73778 0.69483 0.0
C2316 C 0.26512 0.72702 0.71635 0.0
C2317 C 0.2696 0.70171 0.71816 0.0
C2318 C 0.26616 0.68736 0.6984 0.0
H2319 H 0.22616 0.64825 0.66782 0.0
H2320 H 0.24684 0.64572 0.68826 0.0
H2321 H 0.22939 0.67485 0.68418 0.0
H2322 H 0.24605 0.73206 0.65848 0.0
H2323 H 0.2524 0.75726 0.69293 0.0
loop_
_geom_bond_atom_site_label_1
_geom_bond_atom_site_label_2
_geom_bond_distance
_geom_bond_site_symmetry_2
_ccdc_geom_bond_type
Cu0 N1 1.999 . S
Cu0 O6 1.974 . S
Cu0 N11 1.985 . S
Cu0 O20 1.959 . S
N1 Cu0 1.999 . S
N1 C3 1.263 . S
N1 C5 1.389 . S
N2 C3 1.358 . S
N2 C4 1.400 . S
C3 N1 1.263 . S
C3 N2 1.358 . S
C3 H9 0.930 . S
C4 N2 1.400 . S
C4 C5 1.351 . S
C4 H21 0.930 . S
C5 N1 1.389 . S
C5 C4 1.351 . S
C5 H10 0.930 . S
O6 Cu0 1.974 . S
O6 C16 1.282 1_545 S
C7 O8 1.261 . S
C7 O20 1.251 . S
O8 C7 1.261 . S
H9 C3 0.930 . S
H10 C5 0.930 . S
N11 Cu0 1.985 . S
N11 C13 1.335 . S
N11 C14 1.390 1_545 S
N12 C13 1.345 1_565 S
N12 C15 1.336 . S
C13 N11 1.335 . S
C13 N12 1.345 1_545 S
C13 H18 0.930 1_455 S
C14 N11 1.390 1_565 S
C14 C15 1.346 . S
C14 H19 0.930 . S
C15 N12 1.336 . S
C15 C14 1.346 . S
C15 H22 0.929 . S
C16 O6 1.282 1_565 S
C16 O17 1.216 1_565 S
O17 C16 1.216 1_545 S
H18 C13 0.930 1_655 S
H19 C14 0.930 . S
O20 Cu0 1.959 . S
O20 C7 1.251 . S
H21 C4 0.930 . S
H22 C15 0.929 . S
Cu23 N24 1.958 1_545 S
Cu23 O29 2.000 . S
Cu23 N34 2.026 . S
Cu23 O43 1.933 1_545 S
N24 Cu23 1.958 1_565 S
N24 C26 1.263 . S
N24 C28 1.389 . S
N25 C26 1.358 . S
N25 C27 1.400 . S
C26 N24 1.263 . S
C26 N25 1.358 . S
C26 H32 0.930 . S
C27 N25 1.400 . S
C27 C28 1.351 . S
C27 H44 0.930 . S
C28 N24 1.389 . S
C28 C27 1.351 . S
C28 H33 0.930 . S
O29 Cu23 2.000 . S
O29 C39 1.282 . S
C30 O31 1.261 . S
C30 O43 1.251 . S
O31 C30 1.261 . S
H32 C26 0.930 . S
H33 C28 0.930 . S
N34 Cu23 2.026 . S
N34 C36 1.335 . S
N34 C37 1.390 . S
N35 C36 1.345 . S
N35 C38 1.336 . S
C36 N34 1.335 . S
C36 N35 1.345 . S
C36 H41 0.930 . S
C37 N34 1.390 . S
C37 C38 1.346 . S
C37 H42 0.930 . S
C38 N35 1.336 . S
C38 C37 1.346 . S
C38 H45 0.929 . S
C39 O29 1.282 . S
C39 O40 1.216 . S
O40 C39 1.216 . S
H41 C36 0.930 . S
H42 C37 0.930 . S
O43 Cu23 1.933 1_565 S
O43 C30 1.251 . S
H44 C27 0.930 . S
H45 C38 0.929 . S
Cu46 N47 1.999 1_544 S
Cu46 O52 1.974 1_545 S
Cu46 N57 1.985 . S
Cu46 O66 1.959 1_554 S
N47 Cu46 1.999 1_566 S
N47 C49 1.263 . S
N47 C51 1.389 . S
N48 C49 1.358 . S
N48 C50 1.400 . S
C49 N47 1.263 . S
C49 N48 1.358 . S
C49 H55 0.930 . S
C50 N48 1.400 . S
C50 C51 1.351 . S
C50 H67 0.930 . S
C51 N47 1.389 . S
C51 C50 1.351 . S
C51 H56 0.930 . S
O52 Cu46 1.974 1_565 S
O52 C62 1.282 . S
C53 O54 1.261 . S
C53 O66 1.251 . S
O54 C53 1.261 . S
H55 C49 0.930 . S
H56 C51 0.930 . S
N57 Cu46 1.985 . S
N57 C59 1.335 . S
N57 C60 1.390 . S
N58 C59 1.345 . S
N58 C61 1.336 . S
C59 N57 1.335 . S
C59 N58 1.345 . S
C59 H64 0.930 . S
C60 N57 1.390 . S
C60 C61 1.346 . S
C60 H65 0.930 . S
C61 N58 1.336 . S
C61 C60 1.346 . S
C61 H68 0.929 . S
C62 O52 1.282 . S
C62 O63 1.216 . S
O63 C62 1.216 . S
H64 C59 0.930 . S
H65 C60 0.930 . S
O66 Cu46 1.959 1_556 S
O66 C53 1.251 . S
H67 C50 0.930 . S
H68 C61 0.929 . S
Cu69 N70 1.999 1_554 S
Cu69 O75 1.974 . S
Cu69 N80 1.985 . S
Cu69 O89 1.959 1_554 S
N70 Cu69 1.999 1_556 S
N70 C72 1.263 . S
N70 C74 1.389 . S
N71 C72 1.358 . S
N71 C73 1.400 . S
C72 N70 1.263 . S
C72 N71 1.358 . S
C72 H78 0.930 1_556 S
C73 N71 1.400 . S
C73 C74 1.351 . S
C73 H90 0.930 . S
C74 N70 1.389 . S
C74 C73 1.351 . S
C74 H79 0.930 . S
O75 Cu69 1.974 . S
O75 C85 1.282 . S
C76 O77 1.261 . S
C76 O89 1.251 . S
O77 C76 1.261 . S
H78 C72 0.930 1_554 S
H79 C74 0.930 . S
N80 Cu69 1.985 . S
N80 C82 1.335 . S
N80 C83 1.390 . S
N81 C82 1.345 . S
N81 C84 1.336 . S
C82 N80 1.335 . S
C82 N81 1.345 . S
C82 H87 0.930 . S
C83 N80 1.390 . S
C83 C84 1.346 . S
C83 H88 0.930 . S
C84 N81 1.336 . S
C84 C83 1.346 . S
C84 H91 0.929 . S
C85 O75 1.282 . S
C85 O86 1.216 . S
O86 C85 1.216 . S
H87 C82 0.930 . S
H88 C83 0.930 . S
O89 Cu69 1.959 1_556 S
O89 C76 1.251 . S
H90 C73 0.930 . S
H91 C84 0.929 . S
Cu92 N93 1.999 1_554 S
Cu92 O98 1.974 . S
Cu92 N103 1.985 1_545 S
Cu92 O112 1.959 1_544 S
N93 Cu92 1.999 1_556 S
N93 C95 1.263 . S
N93 C97 1.389 . S
N94 C95 1.358 . S
N94 C96 1.400 . S
C95 N93 1.263 . S
C95 N94 1.358 . S
C95 H101 0.930 . S
C96 N94 1.400 . S
C96 C97 1.351 . S
C96 H113 0.930 . S
C97 N93 1.389 . S
C97 C96 1.351 . S
C97 H102 0.930 . S
O98 Cu92 1.974 . S
O98 C108 1.282 . S
C99 O100 1.261 . S
C99 O112 1.251 . S
O100 C99 1.261 . S
H101 C95 0.930 . S
H102 C97 0.930 . S
N103 Cu92 1.985 1_565 S
N103 C105 1.335 . S
N103 C106 1.396 . S
N104 C105 1.345 . S
N104 C107 1.336 . S
C105 N103 1.335 . S
C105 N104 1.345 . S
C105 H110 0.930 . S
C106 N103 1.396 . S
C106 C107 1.372 . S
C106 H111 0.904 1_565 S
C107 N104 1.336 . S
C107 C106 1.372 . S
C107 H114 0.929 . S
C108 O98 1.282 . S
C108 O109 1.216 . S
O109 C108 1.216 . S
H110 C105 0.930 . S
H111 C106 0.904 1_545 S
O112 Cu92 1.959 1_566 S
O112 C99 1.251 . S
H113 C96 0.930 . S
H114 C107 0.929 . S
Cu115 N116 1.958 1_454 S
Cu115 O121 1.989 1_455 S
Cu115 N126 2.002 . S
Cu115 O135 1.944 1_554 S
N116 Cu115 1.958 1_656 S
N116 C118 1.297 . S
N116 C120 1.384 1_655 S
N117 C118 1.358 . S
N117 C119 1.400 . S
C118 N116 1.297 . S
C118 N117 1.358 . S
C118 H124 0.930 . S
C119 N117 1.400 . S
C119 C120 1.351 1_655 S
C119 H136 0.930 . S
C120 N116 1.384 1_455 S
C120 C119 1.351 1_455 S
C120 H125 0.930 . S
O121 Cu115 1.989 1_655 S
O121 C131 1.282 . S
C122 O123 1.261 . S
C122 O135 1.251 . S
O123 C122 1.261 . S
H124 C118 0.930 . S
H125 C120 0.930 . S
N126 Cu115 2.002 . S
N126 C128 1.335 . S
N126 C129 1.390 . S
N127 C128 1.345 . S
N127 C130 1.336 . S
C128 N126 1.335 . S
C128 N127 1.345 . S
C128 H133 0.930 . S
C129 N126 1.390 . S
C129 C130 1.346 . S
C129 H134 0.930 . S
C130 N127 1.336 . S
C130 C129 1.346 . S
C130 H137 0.929 . S
C131 O121 1.282 . S
C131 O132 1.216 . S
O132 C131 1.216 . S
H133 C128 0.930 . S
H134 C129 0.930 . S
O135 Cu115 1.944 1_556 S
O135 C122 1.251 . S
H136 C119 0.930 . S
H137 C130 0.929 . S
Cu138 N139 1.999 . S
Cu138 O144 1.974 . S
Cu138 N149 1.985 . S
Cu138 O158 1.959 . S
N139 Cu138 1.999 . S
N139 C141 1.263 . S
N139 C143 1.389 . S
N140 C141 1.358 . S
N140 C142 1.400 . S
C141 N139 1.263 . S
C141 N140 1.358 . S
C141 H147 0.930 . S
C142 N140 1.400 . S
C142 C143 1.351 . S
C142 H159 0.930 . S
C143 N139 1.389 . S
C143 C142 1.351 . S
C143 H148 0.930 . S
O144 Cu138 1.974 . S
O144 C154 1.282 . S
C145 O146 1.261 . S
C145 O158 1.251 . S
O146 C145 1.261 . S
H147 C141 0.930 . S
H148 C143 0.930 . S
N149 Cu138 1.985 . S
N149 C151 1.335 . S
N149 C152 1.390 . S
N150 C151 1.345 . S
N150 C153 1.336 . S
C151 N149 1.335 . S
C151 N150 1.345 . S
C151 H156 0.930 . S
C152 N149 1.390 . S
C152 C153 1.346 . S
C152 H157 0.930 . S
C153 N150 1.336 . S
C153 C152 1.346 . S
C153 H160 0.929 . S
C154 O144 1.282 . S
C154 O155 1.216 . S
O155 C154 1.216 . S
H156 C151 0.930 . S
H157 C152 0.930 . S
O158 Cu138 1.959 . S
O158 C145 1.251 . S
H159 C142 0.930 . S
H160 C153 0.929 . S
Cu161 N162 1.999 . S
Cu161 O167 1.974 . S
Cu161 N172 1.985 . S
Cu161 O181 1.959 . S
N162 Cu161 1.999 . S
N162 C164 1.263 . S
N162 C166 1.389 . S
N163 C164 1.358 . S
N163 C165 1.400 . S
C164 N162 1.263 . S
C164 N163 1.358 . S
C164 H170 0.930 . S
C165 N163 1.400 . S
C165 C166 1.351 . S
C165 H182 0.930 . S
C166 N162 1.389 . S
C166 C165 1.351 . S
C166 H171 0.930 . S
O167 Cu161 1.974 . S
O167 C177 1.282 . S
C168 O169 1.261 . S
C168 O181 1.251 . S
O169 C168 1.261 . S
H170 C164 0.930 . S
H171 C166 0.930 . S
N172 Cu161 1.985 . S
N172 C174 1.335 . S
N172 C175 1.390 . S
N173 C174 1.345 . S
N173 C176 1.336 . S
C174 N172 1.335 . S
C174 N173 1.345 . S
C174 H179 0.930 . S
C175 N172 1.390 . S
C175 C176 1.346 . S
C175 H180 0.930 . S
C176 N173 1.336 . S
C176 C175 1.346 . S
C176 H183 0.929 . S
C177 O167 1.282 . S
C177 O178 1.216 . S
O178 C177 1.216 . S
H179 C174 0.930 . S
H180 C175 0.930 . S
O181 Cu161 1.959 . S
O181 C168 1.251 . S
H182 C165 0.930 . S
H183 C176 0.929 . S
Cu184 N185 1.999 . S
Cu184 O190 1.974 . S
Cu184 N195 1.985 . S
Cu184 O204 1.959 . S
N185 Cu184 1.999 . S
N185 C187 1.263 . S
N185 C189 1.389 . S
N186 C187 1.358 . S
N186 C188 1.400 . S
C187 N185 1.263 . S
C187 N186 1.358 . S
C187 H193 0.930 . S
C188 N186 1.400 . S
C188 C189 1.351 . S
C188 H205 0.930 . S
C189 N185 1.389 . S
C189 C188 1.351 . S
C189 H194 0.930 . S
O190 Cu184 1.974 . S
O190 C200 1.282 . S
C191 O192 1.261 . S
C191 O204 1.251 . S
O192 C191 1.261 . S
H193 C187 0.930 . S
H194 C189 0.930 . S
N195 Cu184 1.985 . S
N195 C197 1.335 . S
N195 C198 1.390 . S
N196 C197 1.345 . S
N196 C199 1.336 . S
C197 N195 1.335 . S
C197 N196 1.345 . S
C197 H202 0.930 . S
C198 N195 1.390 . S
C198 C199 1.346 . S
C198 H203 0.930 . S
C199 N196 1.336 . S
C199 C198 1.346 . S
C199 H206 0.929 . S
C200 O190 1.282 . S
C200 O201 1.216 . S
O201 C200 1.216 . S
H202 C197 0.930 . S
H203 C198 0.930 . S
O204 Cu184 1.959 . S
O204 C191 1.251 . S
H205 C188 0.930 . S
H206 C199 0.929 . S
Cu207 N208 1.999 . S
Cu207 O213 1.974 . S
Cu207 N218 1.985 . S
Cu207 O227 1.959 . S
N208 Cu207 1.999 . S
N208 C210 1.263 . S
N208 C212 1.389 . S
N209 C210 1.358 . S
N209 C211 1.400 . S
C210 N208 1.263 . S
C210 N209 1.358 . S
C210 H216 0.930 . S
C211 N209 1.400 . S
C211 C212 1.351 . S
C211 H228 0.930 . S
C212 N208 1.389 . S
C212 C211 1.351 . S
C212 H217 0.930 . S
O213 Cu207 1.974 . S
O213 C223 1.282 . S
C214 O215 1.261 . S
C214 O227 1.251 . S
O215 C214 1.261 . S
H216 C210 0.930 . S
H217 C212 0.930 . S
N218 Cu207 1.985 . S
N218 C220 1.335 . S
N218 C221 1.390 . S
N219 C220 1.345 . S
N219 C222 1.336 . S
C220 N218 1.335 . S
C220 N219 1.345 . S
C220 H225 0.930 . S
C221 N218 1.390 . S
C221 C222 1.346 . S
C221 H226 0.930 . S
C222 N219 1.336 . S
C222 C221 1.346 . S
C222 H229 0.929 . S
C223 O213 1.282 . S
C223 O224 1.216 . S
O224 C223 1.216 . S
H225 C220 0.930 . S
H226 C221 0.930 . S
O227 Cu207 1.959 . S
O227 C214 1.251 . S
H228 C211 0.930 . S
H229 C222 0.929 . S
Cu230 N231 1.999 . S
Cu230 O236 1.974 . S
Cu230 N241 1.985 . S
Cu230 O250 1.959 . S
N231 Cu230 1.999 . S
N231 C233 1.263 . S
N231 C235 1.389 . S
N232 C233 1.358 . S
N232 C234 1.400 . S
C233 N231 1.263 . S
C233 N232 1.358 . S
C233 H239 0.930 . S
C234 N232 1.400 . S
C234 C235 1.351 . S
C234 H251 0.930 . S
C235 N231 1.389 . S
C235 C234 1.351 . S
C235 H240 0.930 . S
O236 Cu230 1.974 . S
O236 C246 1.282 . S
C237 O238 1.261 . S
C237 O250 1.251 . S
O238 C237 1.261 . S
H239 C233 0.930 . S
H240 C235 0.930 . S
N241 Cu230 1.985 . S
N241 C243 1.335 . S
N241 C244 1.390 . S
N242 C243 1.345 . S
N242 C245 1.336 . S
C243 N241 1.335 . S
C243 N242 1.345 . S
C243 H248 0.930 . S
C244 N241 1.390 . S
C244 C245 1.346 . S
C244 H249 0.930 . S
C245 N242 1.336 . S
C245 C244 1.346 . S
C245 H252 0.929 . S
C246 O236 1.282 . S
C246 O247 1.216 . S
O247 C246 1.216 . S
H248 C243 0.930 . S
H249 C244 0.930 . S
O250 Cu230 1.959 . S
O250 C237 1.251 . S
H251 C234 0.930 . S
H252 C245 0.929 . S
Cu253 N254 1.999 . S
Cu253 O259 1.974 . S
Cu253 N264 1.985 . S
Cu253 O273 1.959 . S
N254 Cu253 1.999 . S
N254 C256 1.263 . S
N254 C258 1.389 . S
N255 C256 1.358 . S
N255 C257 1.400 . S
C256 N254 1.263 . S
C256 N255 1.358 . S
C256 H262 0.930 . S
C257 N255 1.400 . S
C257 C258 1.351 . S
C257 H274 0.930 . S
C258 N254 1.389 . S
C258 C257 1.351 . S
C258 H263 0.930 . S
O259 Cu253 1.974 . S
O259 C269 1.282 . S
C260 O261 1.261 . S
C260 O273 1.251 . S
O261 C260 1.261 . S
H262 C256 0.930 . S
H263 C258 0.930 . S
N264 Cu253 1.985 . S
N264 C266 1.335 . S
N264 C267 1.390 . S
N265 C266 1.345 . S
N265 C268 1.336 . S
C266 N264 1.335 . S
C266 N265 1.345 . S
C266 H271 0.930 . S
C267 N264 1.390 . S
C267 C268 1.346 . S
C267 H272 0.930 . S
C268 N265 1.336 . S
C268 C267 1.346 . S
C268 H275 0.929 . S
C269 O259 1.282 . S
C269 O270 1.216 . S
O270 C269 1.216 . S
H271 C266 0.930 . S
H272 C267 0.930 . S
O273 Cu253 1.959 . S
O273 C260 1.251 . S
H274 C257 0.930 . S
H275 C268 0.929 . S
Dy276 O279 2.307 . S
Dy276 O281 2.395 . S
Dy276 O282 2.379 . S
Dy276 O284 2.339 . S
Dy276 O286 2.298 . S
Dy276 O290 2.275 . S
Dy276 C298 2.738 . S
Dy277 O280 2.298 . S
Dy277 O283 2.275 . S
Dy277 O285 2.307 . S
Dy277 O287 2.395 . S
Dy277 O288 2.379 . S
Dy277 O291 2.339 . S
Dy277 C307 2.738 . S
C278 O290 1.254 . S
C278 O291 1.257 . S
O279 Dy276 2.307 . S
O279 C289 1.266 . S
O280 Dy277 2.298 . S
O280 C289 1.236 . S
O281 Dy276 2.395 . S
O281 C298 1.255 . S
O282 Dy276 2.379 . S
O282 C298 1.249 . S
O283 Dy277 2.275 . S
O283 C299 1.254 . S
O284 Dy276 2.339 . S
O284 C299 1.257 . S
O285 Dy277 2.307 . S
O285 C300 1.266 . S
O286 Dy276 2.298 . S
O286 C300 1.236 . S
O287 Dy277 2.395 . S
O287 C307 1.255 . S
O288 Dy277 2.379 . S
O288 C307 1.249 . S
C289 O279 1.266 . S
C289 O280 1.236 . S
O290 Dy276 2.275 . S
O290 C278 1.254 . S
O291 Dy277 2.339 . S
O291 C278 1.257 . S
C292 C295 1.344 . S
C292 C296 1.328 . S
C292 C298 1.516 . S
C293 C294 1.304 . S
C293 C297 1.323 . S
C294 C293 1.304 . S
C294 C295 1.371 . S
C294 H308 0.930 . S
C295 C292 1.344 . S
C295 C294 1.371 . S
C295 H309 0.931 . S
C296 C292 1.328 . S
C296 C297 1.433 . S
C296 H310 0.931 . S
C297 C293 1.323 . S
C297 C296 1.433 . S
C297 H311 0.933 . S
C298 Dy276 2.738 . S
C298 O281 1.255 . S
C298 O282 1.249 . S
C298 C292 1.516 . S
C299 O283 1.254 . S
C299 O284 1.257 . S
C300 O285 1.266 . S
C300 O286 1.236 . S
C301 C304 1.344 . S
C301 C305 1.328 . S
C301 C307 1.516 . S
C302 C303 1.304 . S
C302 C306 1.323 . S
C303 C302 1.304 . S
C303 C304 1.371 . S
C303 H312 0.930 . S
C304 C301 1.344 . S
C304 C303 1.371 . S
C304 H313 0.931 . S
C305 C301 1.328 . S
C305 C306 1.433 . S
C305 H314 0.931 . S
C306 C302 1.323 . S
C306 C305 1.433 . S
C306 H315 0.933 . S
C307 Dy277 2.738 . S
C307 O287 1.255 . S
C307 O288 1.249 . S
C307 C301 1.516 . S
H308 C294 0.930 . S
H309 C295 0.931 . S
H310 C296 0.931 . S
H311 C297 0.933 . S
H312 C303 0.930 . S
H313 C304 0.931 . S
H314 C305 0.931 . S
H315 C306 0.933 . S
Dy316 O319 2.307 . S
Dy316 O321 2.395 . S
Dy316 O322 2.379 . S
Dy316 O324 2.339 . S
Dy316 O326 2.298 . S
Dy316 O330 2.275 . S
Dy316 C338 2.738 . S
Dy317 O320 2.298 . S
Dy317 O323 2.275 . S
Dy317 O325 2.307 . S
Dy317 O327 2.395 . S
Dy317 O328 2.379 . S
Dy317 O331 2.339 . S
Dy317 C347 2.738 . S
C318 O330 1.254 . S
C318 O331 1.257 . S
O319 Dy316 2.307 . S
O319 C329 1.266 . S
O320 Dy317 2.298 . S
O320 C329 1.236 . S
O321 Dy316 2.395 . S
O321 C338 1.255 . S
O322 Dy316 2.379 . S
O322 C338 1.249 . S
O323 Dy317 2.275 . S
O323 C339 1.254 . S
O324 Dy316 2.339 . S
O324 C339 1.257 . S
O325 Dy317 2.307 . S
O325 C340 1.266 . S
O326 Dy316 2.298 . S
O326 C340 1.236 . S
O327 Dy317 2.395 . S
O327 C347 1.255 . S
O328 Dy317 2.379 . S
O328 C347 1.249 . S
C329 O319 1.266 . S
C329 O320 1.236 . S
O330 Dy316 2.275 . S
O330 C318 1.254 . S
O331 Dy317 2.339 . S
O331 C318 1.257 . S
C332 C335 1.344 . S
C332 C336 1.328 . S
C332 C338 1.516 . S
C333 C334 1.304 . S
C333 C337 1.323 . S
C334 C333 1.304 . S
C334 C335 1.371 . S
C334 H348 0.930 . S
C335 C332 1.344 . S
C335 C334 1.371 . S
C335 H349 0.931 . S
C336 C332 1.328 . S
C336 C337 1.433 . S
C336 H350 0.931 . S
C337 C333 1.323 . S
C337 C336 1.433 . S
C337 H351 0.933 . S
C338 Dy316 2.738 . S
C338 O321 1.255 . S
C338 O322 1.249 . S
C338 C332 1.516 . S
C339 O323 1.254 . S
C339 O324 1.257 . S
C340 O325 1.266 . S
C340 O326 1.236 . S
C341 C344 1.344 . S
C341 C345 1.328 . S
C341 C347 1.516 . S
C342 C343 1.304 . S
C342 C346 1.323 . S
C343 C342 1.304 . S
C343 C344 1.371 . S
C343 H352 0.930 . S
C344 C341 1.344 . S
C344 C343 1.371 . S
C344 H353 0.931 . S
C345 C341 1.328 . S
C345 C346 1.433 . S
C345 H354 0.931 . S
C346 C342 1.323 . S
C346 C345 1.433 . S
C346 H355 0.933 . S
C347 Dy317 2.738 . S
C347 O327 1.255 . S
C347 O328 1.249 . S
C347 C341 1.516 . S
H348 C334 0.930 . S
H349 C335 0.931 . S
H350 C336 0.931 . S
H351 C337 0.933 . S
H352 C343 0.930 . S
H353 C344 0.931 . S
H354 C345 0.931 . S
H355 C346 0.933 . S
Dy356 O359 2.307 . S
Dy356 O361 2.395 . S
Dy356 O362 2.379 . S
Dy356 O364 2.339 . S
Dy356 O366 2.298 . S
Dy356 O370 2.275 . S
Dy356 C378 2.738 . S
Dy357 O360 2.298 . S
Dy357 O363 2.275 . S
Dy357 O365 2.307 . S
Dy357 O367 2.395 . S
Dy357 O368 2.379 . S
Dy357 O371 2.339 . S
Dy357 C387 2.738 . S
C358 O370 1.254 . S
C358 O371 1.257 . S
O359 Dy356 2.307 . S
O359 C369 1.266 . S
O360 Dy357 2.298 . S
O360 C369 1.236 . S
O361 Dy356 2.395 . S
O361 C378 1.255 . S
O362 Dy356 2.379 . S
O362 C378 1.249 . S
O363 Dy357 2.275 . S
O363 C379 1.254 . S
O364 Dy356 2.339 . S
O364 C379 1.257 . S
O365 Dy357 2.307 . S
O365 C380 1.266 . S
O366 Dy356 2.298 . S
O366 C380 1.236 . S
O367 Dy357 2.395 . S
O367 C387 1.255 . S
O368 Dy357 2.379 . S
O368 C387 1.249 . S
C369 O359 1.266 . S
C369 O360 1.236 . S
O370 Dy356 2.275 . S
O370 C358 1.254 . S
O371 Dy357 2.339 . S
O371 C358 1.257 . S
C372 C375 1.344 . S
C372 C376 1.328 . S
C372 C378 1.516 . S
C373 C374 1.304 . S
C373 C377 1.323 . S
C374 C373 1.304 . S
C374 C375 1.371 . S
C374 H388 0.930 . S
C375 C372 1.344 . S
C375 C374 1.371 . S
C375 H389 0.931 . S
C376 C372 1.328 . S
C376 C377 1.433 . S
C376 H390 0.931 . S
C377 C373 1.323 . S
C377 C376 1.433 . S
C377 H391 0.933 . S
C378 Dy356 2.738 . S
C378 O361 1.255 . S
C378 O362 1.249 . S
C378 C372 1.516 . S
C379 O363 1.254 . S
C379 O364 1.257 . S
C380 O365 1.266 . S
C380 O366 1.236 . S
C381 C384 1.344 . S
C381 C385 1.328 . S
C381 C387 1.516 . S
C382 C383 1.304 . S
C382 C386 1.323 . S
C383 C382 1.304 . S
C383 C384 1.371 . S
C383 H392 0.930 . S
C384 C381 1.344 . S
C384 C383 1.371 . S
C384 H393 0.931 . S
C385 C381 1.328 . S
C385 C386 1.433 . S
C385 H394 0.931 . S
C386 C382 1.323 . S
C386 C385 1.433 . S
C386 H395 0.933 . S
C387 Dy357 2.738 . S
C387 O367 1.255 . S
C387 O368 1.249 . S
C387 C381 1.516 . S
H388 C374 0.930 . S
H389 C375 0.931 . S
H390 C376 0.931 . S
H391 C377 0.933 . S
H392 C383 0.930 . S
H393 C384 0.931 . S
H394 C385 0.931 . S
H395 C386 0.933 . S
Dy396 O399 2.307 . S
Dy396 O401 2.395 . S
Dy396 O402 2.379 . S
Dy396 O404 2.339 . S
Dy396 O406 2.298 . S
Dy396 O410 2.275 . S
Dy396 C418 2.738 . S
Dy397 O400 2.298 . S
Dy397 O403 2.275 . S
Dy397 O405 2.307 . S
Dy397 O407 2.395 . S
Dy397 O408 2.379 . S
Dy397 O411 2.339 . S
Dy397 C427 2.738 . S
C398 O410 1.254 . S
C398 O411 1.257 . S
O399 Dy396 2.307 . S
O399 C409 1.266 . S
O400 Dy397 2.298 . S
O400 C409 1.236 . S
O401 Dy396 2.395 . S
O401 C418 1.255 . S
O402 Dy396 2.379 . S
O402 C418 1.249 . S
O403 Dy397 2.275 . S
O403 C419 1.254 . S
O404 Dy396 2.339 . S
O404 C419 1.257 . S
O405 Dy397 2.307 . S
O405 C420 1.266 . S
O406 Dy396 2.298 . S
O406 C420 1.236 . S
O407 Dy397 2.395 . S
O407 C427 1.255 . S
O408 Dy397 2.379 . S
O408 C427 1.249 . S
C409 O399 1.266 . S
C409 O400 1.236 . S
O410 Dy396 2.275 . S
O410 C398 1.254 . S
O411 Dy397 2.339 . S
O411 C398 1.257 . S
C412 C415 1.344 . S
C412 C416 1.328 . S
C412 C418 1.516 . S
C413 C414 1.304 . S
C413 C417 1.323 . S
C414 C413 1.304 . S
C414 C415 1.371 . S
C414 H428 0.930 . S
C415 C412 1.344 . S
C415 C414 1.371 . S
C415 H429 0.931 . S
C416 C412 1.328 . S
C416 C417 1.433 . S
C416 H430 0.931 . S
C417 C413 1.323 . S
C417 C416 1.433 . S
C417 H431 0.933 . S
C418 Dy396 2.738 . S
C418 O401 1.255 . S
C418 O402 1.249 . S
C418 C412 1.516 . S
C419 O403 1.254 . S
C419 O404 1.257 . S
C420 O405 1.266 . S
C420 O406 1.236 . S
C421 C424 1.344 . S
C421 C425 1.328 . S
C421 C427 1.516 . S
C422 C423 1.304 . S
C422 C426 1.323 . S
C423 C422 1.304 . S
C423 C424 1.371 . S
C423 H432 0.930 . S
C424 C421 1.344 . S
C424 C423 1.371 . S
C424 H433 0.931 . S
C425 C421 1.328 . S
C425 C426 1.433 . S
C425 H434 0.931 . S
C426 C422 1.323 . S
C426 C425 1.433 . S
C426 H435 0.933 . S
C427 Dy397 2.738 . S
C427 O407 1.255 . S
C427 O408 1.249 . S
C427 C421 1.516 . S
H428 C414 0.930 . S
H429 C415 0.931 . S
H430 C416 0.931 . S
H431 C417 0.933 . S
H432 C423 0.930 . S
H433 C424 0.931 . S
H434 C425 0.931 . S
H435 C426 0.933 . S
Dy436 O439 2.307 . S
Dy436 O441 2.395 . S
Dy436 O442 2.379 . S
Dy436 O444 2.339 . S
Dy436 O446 2.298 . S
Dy436 O450 2.275 . S
Dy436 C458 2.738 . S
Dy437 O440 2.298 . S
Dy437 O443 2.275 . S
Dy437 O445 2.307 . S
Dy437 O447 2.395 . S
Dy437 O448 2.379 . S
Dy437 O451 2.339 . S
Dy437 C467 2.738 . S
C438 O450 1.254 . S
C438 O451 1.257 . S
O439 Dy436 2.307 . S
O439 C449 1.266 . S
O440 Dy437 2.298 . S
O440 C449 1.236 . S
O441 Dy436 2.395 . S
O441 C458 1.255 . S
O442 Dy436 2.379 . S
O442 C458 1.249 . S
O443 Dy437 2.275 . S
O443 C459 1.254 . S
O444 Dy436 2.339 . S
O444 C459 1.257 . S
O445 Dy437 2.307 . S
O445 C460 1.266 . S
O446 Dy436 2.298 . S
O446 C460 1.236 . S
O447 Dy437 2.395 . S
O447 C467 1.255 . S
O448 Dy437 2.379 . S
O448 C467 1.249 . S
C449 O439 1.266 . S
C449 O440 1.236 . S
O450 Dy436 2.275 . S
O450 C438 1.254 . S
O451 Dy437 2.339 . S
O451 C438 1.257 . S
C452 C455 1.344 . S
C452 C456 1.328 . S
C452 C458 1.516 . S
C453 C454 1.304 . S
C453 C457 1.323 . S
C454 C453 1.304 . S
C454 C455 1.371 . S
C454 H468 0.930 . S
C455 C452 1.344 . S
C455 C454 1.371 . S
C455 H469 0.931 . S
C456 C452 1.328 . S
C456 C457 1.433 . S
C456 H470 0.931 . S
C457 C453 1.323 . S
C457 C456 1.433 . S
C457 H471 0.933 . S
C458 Dy436 2.738 . S
C458 O441 1.255 . S
C458 O442 1.249 . S
C458 C452 1.516 . S
C459 O443 1.254 . S
C459 O444 1.257 . S
C460 O445 1.266 . S
C460 O446 1.236 . S
C461 C464 1.344 . S
C461 C465 1.328 . S
C461 C467 1.516 . S
C462 C463 1.304 . S
C462 C466 1.323 . S
C463 C462 1.304 . S
C463 C464 1.371 . S
C463 H472 0.930 . S
C464 C461 1.344 . S
C464 C463 1.371 . S
C464 H473 0.931 . S
C465 C461 1.328 . S
C465 C466 1.433 . S
C465 H474 0.931 . S
C466 C462 1.323 . S
C466 C465 1.433 . S
C466 H475 0.933 . S
C467 Dy437 2.738 . S
C467 O447 1.255 . S
C467 O448 1.249 . S
C467 C461 1.516 . S
H468 C454 0.930 . S
H469 C455 0.931 . S
H470 C456 0.931 . S
H471 C457 0.933 . S
H472 C463 0.930 . S
H473 C464 0.931 . S
H474 C465 0.931 . S
H475 C466 0.933 . S
Dy476 O479 2.307 . S
Dy476 O481 2.395 . S
Dy476 O482 2.379 . S
Dy476 O484 2.339 . S
Dy476 O486 2.298 . S
Dy476 O490 2.275 . S
Dy476 C498 2.738 . S
Dy477 O480 2.298 . S
Dy477 O483 2.275 . S
Dy477 O485 2.307 . S
Dy477 O487 2.395 . S
Dy477 O488 2.379 . S
Dy477 O491 2.339 . S
Dy477 C507 2.738 . S
C478 O490 1.254 . S
C478 O491 1.257 . S
O479 Dy476 2.307 . S
O479 C489 1.266 . S
O480 Dy477 2.298 . S
O480 C489 1.236 . S
O481 Dy476 2.395 . S
O481 C498 1.255 . S
O482 Dy476 2.379 . S
O482 C498 1.249 . S
O483 Dy477 2.275 . S
O483 C499 1.254 . S
O484 Dy476 2.339 . S
O484 C499 1.257 . S
O485 Dy477 2.307 . S
O485 C500 1.266 . S
O486 Dy476 2.298 . S
O486 C500 1.236 . S
O487 Dy477 2.395 . S
O487 C507 1.255 . S
O488 Dy477 2.379 . S
O488 C507 1.249 . S
C489 O479 1.266 . S
C489 O480 1.236 . S
O490 Dy476 2.275 . S
O490 C478 1.254 . S
O491 Dy477 2.339 . S
O491 C478 1.257 . S
C492 C495 1.344 . S
C492 C496 1.328 . S
C492 C498 1.516 . S
C493 C494 1.304 . S
C493 C497 1.323 . S
C494 C493 1.304 . S
C494 C495 1.371 . S
C494 H508 0.930 . S
C495 C492 1.344 . S
C495 C494 1.371 . S
C495 H509 0.931 . S
C496 C492 1.328 . S
C496 C497 1.433 . S
C496 H510 0.931 . S
C497 C493 1.323 . S
C497 C496 1.433 . S
C497 H511 0.933 . S
C498 Dy476 2.738 . S
C498 O481 1.255 . S
C498 O482 1.249 . S
C498 C492 1.516 . S
C499 O483 1.254 . S
C499 O484 1.257 . S
C500 O485 1.266 . S
C500 O486 1.236 . S
C501 C504 1.344 . S
C501 C505 1.328 . S
C501 C507 1.516 . S
C502 C503 1.304 . S
C502 C506 1.323 . S
C503 C502 1.304 . S
C503 C504 1.371 . S
C503 H512 0.930 . S
C504 C501 1.344 . S
C504 C503 1.371 . S
C504 H513 0.931 . S
C505 C501 1.328 . S
C505 C506 1.433 . S
C505 H514 0.931 . S
C506 C502 1.323 . S
C506 C505 1.433 . S
C506 H515 0.933 . S
C507 Dy477 2.738 . S
C507 O487 1.255 . S
C507 O488 1.249 . S
C507 C501 1.516 . S
H508 C494 0.930 . S
H509 C495 0.931 . S
H510 C496 0.931 . S
H511 C497 0.933 . S
H512 C503 0.930 . S
H513 C504 0.931 . S
H514 C505 0.931 . S
H515 C506 0.933 . S
Dy516 O519 2.307 . S
Dy516 O521 2.395 . S
Dy516 O522 2.379 . S
Dy516 O524 2.339 . S
Dy516 O526 2.298 . S
Dy516 O530 2.275 . S
Dy516 C538 2.738 . S
Dy517 O520 2.298 . S
Dy517 O523 2.275 . S
Dy517 O525 2.307 . S
Dy517 O527 2.395 . S
Dy517 O528 2.379 . S
Dy517 O531 2.339 . S
Dy517 C547 2.738 . S
C518 O530 1.254 . S
C518 O531 1.257 . S
O519 Dy516 2.307 . S
O519 C529 1.266 . S
O520 Dy517 2.298 . S
O520 C529 1.236 . S
O521 Dy516 2.395 . S
O521 C538 1.255 . S
O522 Dy516 2.379 . S
O522 C538 1.249 . S
O523 Dy517 2.275 . S
O523 C539 1.254 . S
O524 Dy516 2.339 . S
O524 C539 1.257 . S
O525 Dy517 2.307 . S
O525 C540 1.266 . S
O526 Dy516 2.298 . S
O526 C540 1.236 . S
O527 Dy517 2.395 . S
O527 C547 1.255 . S
O528 Dy517 2.379 . S
O528 C547 1.249 . S
C529 O519 1.266 . S
C529 O520 1.236 . S
O530 Dy516 2.275 . S
O530 C518 1.254 . S
O531 Dy517 2.339 . S
O531 C518 1.257 . S
C532 C535 1.344 . S
C532 C536 1.328 . S
C532 C538 1.516 . S
C533 C534 1.304 . S
C533 C537 1.323 . S
C534 C533 1.304 . S
C534 C535 1.371 . S
C534 H548 0.930 . S
C535 C532 1.344 . S
C535 C534 1.371 . S
C535 H549 0.931 . S
C536 C532 1.328 . S
C536 C537 1.433 . S
C536 H550 0.931 . S
C537 C533 1.323 . S
C537 C536 1.433 . S
C537 H551 0.933 . S
C538 Dy516 2.738 . S
C538 O521 1.255 . S
C538 O522 1.249 . S
C538 C532 1.516 . S
C539 O523 1.254 . S
C539 O524 1.257 . S
C540 O525 1.266 . S
C540 O526 1.236 . S
C541 C544 1.344 . S
C541 C545 1.328 . S
C541 C547 1.516 . S
C542 C543 1.304 . S
C542 C546 1.323 . S
C543 C542 1.304 . S
C543 C544 1.371 . S
C543 H552 0.930 . S
C544 C541 1.344 . S
C544 C543 1.371 . S
C544 H553 0.931 . S
C545 C541 1.328 . S
C545 C546 1.433 . S
C545 H554 0.931 . S
C546 C542 1.323 . S
C546 C545 1.433 . S
C546 H555 0.933 . S
C547 Dy517 2.738 . S
C547 O527 1.255 . S
C547 O528 1.249 . S
C547 C541 1.516 . S
H548 C534 0.930 . S
H549 C535 0.931 . S
H550 C536 0.931 . S
H551 C537 0.933 . S
H552 C543 0.930 . S
H553 C544 0.931 . S
H554 C545 0.931 . S
H555 C546 0.933 . S
Dy556 O559 2.307 . S
Dy556 O561 2.395 . S
Dy556 O562 2.379 . S
Dy556 O564 2.339 . S
Dy556 O566 2.298 . S
Dy556 O570 2.275 . S
Dy556 C578 2.738 . S
Dy557 O560 2.298 . S
Dy557 O563 2.275 . S
Dy557 O565 2.307 . S
Dy557 O567 2.395 . S
Dy557 O568 2.379 . S
Dy557 O571 2.339 . S
Dy557 C587 2.738 . S
C558 O570 1.254 . S
C558 O571 1.257 . S
O559 Dy556 2.307 . S
O559 C569 1.266 . S
O560 Dy557 2.298 . S
O560 C569 1.236 . S
O561 Dy556 2.395 . S
O561 C578 1.255 . S
O562 Dy556 2.379 . S
O562 C578 1.249 . S
O563 Dy557 2.275 . S
O563 C579 1.254 . S
O564 Dy556 2.339 . S
O564 C579 1.257 . S
O565 Dy557 2.307 . S
O565 C580 1.266 . S
O566 Dy556 2.298 . S
O566 C580 1.236 . S
O567 Dy557 2.395 . S
O567 C587 1.255 . S
O568 Dy557 2.379 . S
O568 C587 1.249 . S
C569 O559 1.266 . S
C569 O560 1.236 . S
O570 Dy556 2.275 . S
O570 C558 1.254 . S
O571 Dy557 2.339 . S
O571 C558 1.257 . S
C572 C575 1.344 . S
C572 C576 1.328 . S
C572 C578 1.516 . S
C573 C574 1.304 . S
C573 C577 1.323 . S
C574 C573 1.304 . S
C574 C575 1.371 . S
C574 H588 0.930 . S
C575 C572 1.344 . S
C575 C574 1.371 . S
C575 H589 0.931 . S
C576 C572 1.328 . S
C576 C577 1.433 . S
C576 H590 0.931 . S
C577 C573 1.323 . S
C577 C576 1.433 . S
C577 H591 0.933 . S
C578 Dy556 2.738 . S
C578 O561 1.255 . S
C578 O562 1.249 . S
C578 C572 1.516 . S
C579 O563 1.254 . S
C579 O564 1.257 . S
C580 O565 1.266 . S
C580 O566 1.236 . S
C581 C584 1.344 . S
C581 C585 1.328 . S
C581 C587 1.516 . S
C582 C583 1.304 . S
C582 C586 1.323 . S
C583 C582 1.304 . S
C583 C584 1.371 . S
C583 H592 0.930 . S
C584 C581 1.344 . S
C584 C583 1.371 . S
C584 H593 0.931 . S
C585 C581 1.328 . S
C585 C586 1.433 . S
C585 H594 0.931 . S
C586 C582 1.323 . S
C586 C585 1.433 . S
C586 H595 0.933 . S
C587 Dy557 2.738 . S
C587 O567 1.255 . S
C587 O568 1.249 . S
C587 C581 1.516 . S
H588 C574 0.930 . S
H589 C575 0.931 . S
H590 C576 0.931 . S
H591 C577 0.933 . S
H592 C583 0.930 . S
H593 C584 0.931 . S
H594 C585 0.931 . S
H595 C586 0.933 . S
H596 C604 0.929 . S
H597 C606 0.930 . S
H598 C608 0.930 . S
H599 C611 0.929 . S
H600 C614 0.930 . S
H601 C616 0.960 . S
H602 C616 0.960 . S
H603 C616 0.960 . S
C604 H596 0.929 . S
C604 C605 1.377 . S
C604 C606 1.384 . S
C605 C604 1.377 . S
C605 C611 1.390 . S
C606 H597 0.930 . S
C606 C604 1.384 . S
C606 C607 1.372 . S
C607 C606 1.372 . S
C607 C608 1.400 . S
C607 C612 1.490 . S
C608 H598 0.930 . S
C608 C607 1.400 . S
C608 C611 1.386 . S
H609 C625 0.930 . S
H610 C626 0.931 . S
C611 H599 0.929 . S
C611 C605 1.390 . S
C611 C608 1.386 . S
C612 C607 1.490 . S
C612 C614 1.395 . S
C612 C615 1.403 . S
H613 C619 0.930 . S
C614 H600 0.930 . S
C614 C612 1.395 . S
C614 C617 1.403 . S
C615 C612 1.403 . S
C615 C616 1.524 . S
C615 C619 1.400 . S
C616 H601 0.960 . S
C616 H602 0.960 . S
C616 H603 0.960 . S
C616 C615 1.524 . S
C617 C614 1.403 . S
C617 C618 1.392 . S
C617 C621 1.495 . S
C618 C617 1.392 . S
C618 C619 1.385 . S
C618 C620 1.478 . S
C619 H613 0.930 . S
C619 C615 1.400 . S
C619 C618 1.385 . S
C620 C618 1.478 . S
C620 C622 1.381 . S
C620 C626 1.383 . S
C621 C617 1.495 . S
C621 H627 0.959 . S
C621 H628 0.961 . S
C621 H629 0.960 . S
C622 C620 1.381 . S
C622 C623 1.394 . S
C622 H630 0.930 . S
C623 C622 1.394 . S
C623 C624 1.383 . S
C623 H631 0.929 . S
C624 C623 1.383 . S
C624 C625 1.377 . S
C625 H609 0.930 . S
C625 C624 1.377 . S
C625 C626 1.379 . S
C626 H610 0.931 . S
C626 C620 1.383 . S
C626 C625 1.379 . S
H627 C621 0.959 . S
H628 C621 0.961 . S
H629 C621 0.960 . S
H630 C622 0.930 . S
H631 C623 0.929 . S
H632 C640 0.929 . S
H633 C642 0.930 . S
H634 C644 0.930 . S
H635 C647 0.929 . S
H636 C650 0.930 . S
H637 C652 0.960 . S
H638 C652 0.960 . S
H639 C652 0.960 . S
C640 H632 0.929 . S
C640 C641 1.377 . S
C640 C642 1.384 . S
C641 C640 1.377 . S
C641 C647 1.390 . S
C642 H633 0.930 . S
C642 C640 1.384 . S
C642 C643 1.372 . S
C643 C642 1.372 . S
C643 C644 1.400 . S
C643 C648 1.490 . S
C644 H634 0.930 . S
C644 C643 1.400 . S
C644 C647 1.386 . S
H645 C661 0.930 . S
H646 C662 0.931 . S
C647 H635 0.929 . S
C647 C641 1.390 . S
C647 C644 1.386 . S
C648 C643 1.490 . S
C648 C650 1.395 . S
C648 C651 1.403 . S
H649 C655 0.930 . S
C650 H636 0.930 . S
C650 C648 1.395 . S
C650 C653 1.403 . S
C651 C648 1.403 . S
C651 C652 1.524 . S
C651 C655 1.400 . S
C652 H637 0.960 . S
C652 H638 0.960 . S
C652 H639 0.960 . S
C652 C651 1.524 . S
C653 C650 1.403 . S
C653 C654 1.392 . S
C653 C657 1.495 . S
C654 C653 1.392 . S
C654 C655 1.385 . S
C654 C656 1.478 . S
C655 H649 0.930 . S
C655 C651 1.400 . S
C655 C654 1.385 . S
C656 C654 1.478 . S
C656 C658 1.381 . S
C656 C662 1.383 . S
C657 C653 1.495 . S
C657 H663 0.959 . S
C657 H664 0.961 . S
C657 H665 0.960 . S
C658 C656 1.381 . S
C658 C659 1.394 . S
C658 H666 0.930 . S
C659 C658 1.394 . S
C659 C660 1.383 . S
C659 H667 0.929 . S
C660 C659 1.383 . S
C660 C661 1.377 . S
C661 H645 0.930 . S
C661 C660 1.377 . S
C661 C662 1.379 . S
C662 H646 0.931 . S
C662 C656 1.383 . S
C662 C661 1.379 . S
H663 C657 0.959 . S
H664 C657 0.961 . S
H665 C657 0.960 . S
H666 C658 0.930 . S
H667 C659 0.929 . S
H668 C676 0.929 . S
H669 C678 0.930 . S
H670 C680 0.930 . S
H671 C683 0.929 . S
H672 C686 0.930 . S
H673 C688 0.960 . S
H674 C688 0.960 . S
H675 C688 0.960 . S
C676 H668 0.929 . S
C676 C677 1.377 . S
C676 C678 1.384 . S
C677 C676 1.377 . S
C677 C683 1.390 . S
C678 H669 0.930 . S
C678 C676 1.384 . S
C678 C679 1.372 . S
C679 C678 1.372 . S
C679 C680 1.400 . S
C679 C684 1.490 . S
C680 H670 0.930 . S
C680 C679 1.400 . S
C680 C683 1.386 . S
H681 C697 0.930 . S
H682 C698 0.931 . S
C683 H671 0.929 . S
C683 C677 1.390 . S
C683 C680 1.386 . S
C684 C679 1.490 . S
C684 C686 1.395 . S
C684 C687 1.403 . S
H685 C691 0.930 . S
C686 H672 0.930 . S
C686 C684 1.395 . S
C686 C689 1.403 . S
C687 C684 1.403 . S
C687 C688 1.524 . S
C687 C691 1.400 . S
C688 H673 0.960 . S
C688 H674 0.960 . S
C688 H675 0.960 . S
C688 C687 1.524 . S
C689 C686 1.403 . S
C689 C690 1.392 . S
C689 C693 1.495 . S
C690 C689 1.392 . S
C690 C691 1.385 . S
C690 C692 1.478 . S
C691 H685 0.930 . S
C691 C687 1.400 . S
C691 C690 1.385 . S
C692 C690 1.478 . S
C692 C694 1.381 . S
C692 C698 1.383 . S
C693 C689 1.495 . S
C693 H699 0.959 . S
C693 H700 0.961 . S
C693 H701 0.960 . S
C694 C692 1.381 . S
C694 C695 1.394 . S
C694 H702 0.930 . S
C695 C694 1.394 . S
C695 C696 1.383 . S
C695 H703 0.929 . S
C696 C695 1.383 . S
C696 C697 1.377 . S
C697 H681 0.930 . S
C697 C696 1.377 . S
C697 C698 1.379 . S
C698 H682 0.931 . S
C698 C692 1.383 . S
C698 C697 1.379 . S
H699 C693 0.959 . S
H700 C693 0.961 . S
H701 C693 0.960 . S
H702 C694 0.930 . S
H703 C695 0.929 . S
H704 C712 0.929 . S
H705 C714 0.930 . S
H706 C716 0.930 . S
H707 C719 0.929 . S
H708 C722 0.930 . S
H709 C724 0.960 . S
H710 C724 0.960 . S
H711 C724 0.960 . S
C712 H704 0.929 . S
C712 C713 1.377 . S
C712 C714 1.384 . S
C713 C712 1.377 . S
C713 C719 1.390 . S
C714 H705 0.930 . S
C714 C712 1.384 . S
C714 C715 1.372 . S
C715 C714 1.372 . S
C715 C716 1.400 . S
C715 C720 1.490 . S
C716 H706 0.930 . S
C716 C715 1.400 . S
C716 C719 1.386 . S
H717 C733 0.930 . S
H718 C734 0.931 . S
C719 H707 0.929 . S
C719 C713 1.390 . S
C719 C716 1.386 . S
C720 C715 1.490 . S
C720 C722 1.395 . S
C720 C723 1.403 . S
H721 C727 0.930 . S
C722 H708 0.930 . S
C722 C720 1.395 . S
C722 C725 1.403 . S
C723 C720 1.403 . S
C723 C724 1.524 . S
C723 C727 1.400 . S
C724 H709 0.960 . S
C724 H710 0.960 . S
C724 H711 0.960 . S
C724 C723 1.524 . S
C725 C722 1.403 . S
C725 C726 1.392 . S
C725 C729 1.495 . S
C726 C725 1.392 . S
C726 C727 1.385 . S
C726 C728 1.478 . S
C727 H721 0.930 . S
C727 C723 1.400 . S
C727 C726 1.385 . S
C728 C726 1.478 . S
C728 C730 1.381 . S
C728 C734 1.383 . S
C729 C725 1.495 . S
C729 H735 0.959 . S
C729 H736 0.961 . S
C729 H737 0.960 . S
C730 C728 1.381 . S
C730 C731 1.394 . S
C730 H738 0.930 . S
C731 C730 1.394 . S
C731 C732 1.383 . S
C731 H739 0.929 . S
C732 C731 1.383 . S
C732 C733 1.377 . S
C733 H717 0.930 . S
C733 C732 1.377 . S
C733 C734 1.379 . S
C734 H718 0.931 . S
C734 C728 1.383 . S
C734 C733 1.379 . S
H735 C729 0.959 . S
H736 C729 0.961 . S
H737 C729 0.960 . S
H738 C730 0.930 . S
H739 C731 0.929 . S
H740 C748 0.929 . S
H741 C750 0.930 . S
H742 C752 0.930 . S
H743 C755 0.929 . S
H744 C758 0.930 . S
H745 C760 0.960 . S
H746 C760 0.960 . S
H747 C760 0.960 . S
C748 H740 0.929 . S
C748 C749 1.377 . S
C748 C750 1.384 . S
C749 C748 1.377 . S
C749 C755 1.390 . S
C750 H741 0.930 . S
C750 C748 1.384 . S
C750 C751 1.372 . S
C751 C750 1.372 . S
C751 C752 1.400 . S
C751 C756 1.490 . S
C752 H742 0.930 . S
C752 C751 1.400 . S
C752 C755 1.386 . S
H753 C769 0.930 . S
H754 C770 0.931 . S
C755 H743 0.929 . S
C755 C749 1.390 . S
C755 C752 1.386 . S
C756 C751 1.490 . S
C756 C758 1.395 . S
C756 C759 1.403 . S
H757 C763 0.930 . S
C758 H744 0.930 . S
C758 C756 1.395 . S
C758 C761 1.403 . S
C759 C756 1.403 . S
C759 C760 1.524 . S
C759 C763 1.400 . S
C760 H745 0.960 . S
C760 H746 0.960 . S
C760 H747 0.960 . S
C760 C759 1.524 . S
C761 C758 1.403 . S
C761 C762 1.392 . S
C761 C765 1.495 . S
C762 C761 1.392 . S
C762 C763 1.385 . S
C762 C764 1.478 . S
C763 H757 0.930 . S
C763 C759 1.400 . S
C763 C762 1.385 . S
C764 C762 1.478 . S
C764 C766 1.381 . S
C764 C770 1.383 . S
C765 C761 1.495 . S
C765 H771 0.959 . S
C765 H772 0.961 . S
C765 H773 0.960 . S
C766 C764 1.381 . S
C766 C767 1.394 . S
C766 H774 0.930 . S
C767 C766 1.394 . S
C767 C768 1.383 . S
C767 H775 0.929 . S
C768 C767 1.383 . S
C768 C769 1.377 . S
C769 H753 0.930 . S
C769 C768 1.377 . S
C769 C770 1.379 . S
C770 H754 0.931 . S
C770 C764 1.383 . S
C770 C769 1.379 . S
H771 C765 0.959 . S
H772 C765 0.961 . S
H773 C765 0.960 . S
H774 C766 0.930 . S
H775 C767 0.929 . S
H776 C784 0.929 . S
H777 C786 0.930 . S
H778 C788 0.930 . S
H779 C791 0.929 . S
H780 C794 0.930 . S
H781 C796 0.960 . S
H782 C796 0.960 . S
H783 C796 0.960 . S
C784 H776 0.929 . S
C784 C785 1.377 . S
C784 C786 1.384 . S
C785 C784 1.377 . S
C785 C791 1.390 . S
C786 H777 0.930 . S
C786 C784 1.384 . S
C786 C787 1.372 . S
C787 C786 1.372 . S
C787 C788 1.400 . S
C787 C792 1.490 . S
C788 H778 0.930 . S
C788 C787 1.400 . S
C788 C791 1.386 . S
H789 C805 0.930 . S
H790 C806 0.931 . S
C791 H779 0.929 . S
C791 C785 1.390 . S
C791 C788 1.386 . S
C792 C787 1.490 . S
C792 C794 1.395 . S
C792 C795 1.403 . S
H793 C799 0.930 . S
C794 H780 0.930 . S
C794 C792 1.395 . S
C794 C797 1.403 . S
C795 C792 1.403 . S
C795 C796 1.524 . S
C795 C799 1.400 . S
C796 H781 0.960 . S
C796 H782 0.960 . S
C796 H783 0.960 . S
C796 C795 1.524 . S
C797 C794 1.403 . S
C797 C798 1.392 . S
C797 C801 1.495 . S
C798 C797 1.392 . S
C798 C799 1.385 . S
C798 C800 1.478 . S
C799 H793 0.930 . S
C799 C795 1.400 . S
C799 C798 1.385 . S
C800 C798 1.478 . S
C800 C802 1.381 . S
C800 C806 1.383 . S
C801 C797 1.495 . S
C801 H807 0.959 . S
C801 H808 0.961 . S
C801 H809 0.960 . S
C802 C800 1.381 . S
C802 C803 1.394 . S
C802 H810 0.930 . S
C803 C802 1.394 . S
C803 C804 1.383 . S
C803 H811 0.929 . S
C804 C803 1.383 . S
C804 C805 1.377 . S
C805 H789 0.930 . S
C805 C804 1.377 . S
C805 C806 1.379 . S
C806 H790 0.931 . S
C806 C800 1.383 . S
C806 C805 1.379 . S
H807 C801 0.959 . S
H808 C801 0.961 . S
H809 C801 0.960 . S
H810 C802 0.930 . S
H811 C803 0.929 . S
H812 C820 0.929 . S
H813 C822 0.930 . S
H814 C824 0.930 . S
H815 C827 0.929 . S
H816 C830 0.930 . S
H817 C832 0.960 . S
H818 C832 0.960 . S
H819 C832 0.960 . S
C820 H812 0.929 . S
C820 C821 1.377 . S
C820 C822 1.384 . S
C821 C820 1.377 . S
C821 C827 1.390 . S
C822 H813 0.930 . S
C822 C820 1.384 . S
C822 C823 1.372 . S
C823 C822 1.372 . S
C823 C824 1.400 . S
C823 C828 1.490 . S
C824 H814 0.930 . S
C824 C823 1.400 . S
C824 C827 1.386 . S
H825 C841 0.930 . S
H826 C842 0.931 . S
C827 H815 0.929 . S
C827 C821 1.390 . S
C827 C824 1.386 . S
C828 C823 1.490 . S
C828 C830 1.395 . S
C828 C831 1.403 . S
H829 C835 0.930 . S
C830 H816 0.930 . S
C830 C828 1.395 . S
C830 C833 1.403 . S
C831 C828 1.403 . S
C831 C832 1.524 . S
C831 C835 1.400 . S
C832 H817 0.960 . S
C832 H818 0.960 . S
C832 H819 0.960 . S
C832 C831 1.524 . S
C833 C830 1.403 . S
C833 C834 1.392 . S
C833 C837 1.495 . S
C834 C833 1.392 . S
C834 C835 1.385 . S
C834 C836 1.478 . S
C835 H829 0.930 . S
C835 C831 1.400 . S
C835 C834 1.385 . S
C836 C834 1.478 . S
C836 C838 1.381 . S
C836 C842 1.383 . S
C837 C833 1.495 . S
C837 H843 0.959 . S
C837 H844 0.961 . S
C837 H845 0.960 . S
C838 C836 1.381 . S
C838 C839 1.394 . S
C838 H846 0.930 . S
C839 C838 1.394 . S
C839 C840 1.383 . S
C839 H847 0.929 . S
C840 C839 1.383 . S
C840 C841 1.377 . S
C841 H825 0.930 . S
C841 C840 1.377 . S
C841 C842 1.379 . S
C842 H826 0.931 . S
C842 C836 1.383 . S
C842 C841 1.379 . S
H843 C837 0.959 . S
H844 C837 0.961 . S
H845 C837 0.960 . S
H846 C838 0.930 . S
H847 C839 0.929 . S
H848 C856 0.929 1_455 S
H849 C858 0.930 . S
H850 C860 0.930 . S
H851 C863 0.929 . S
H852 C866 0.930 . S
H853 C868 0.960 . S
H854 C868 0.960 . S
H855 C868 0.960 . S
C856 H848 0.929 1_655 S
C856 C857 1.377 . S
C856 C858 1.384 . S
C857 C856 1.377 . S
C857 C863 1.390 . S
C858 H849 0.930 . S
C858 C856 1.384 . S
C858 C859 1.372 . S
C859 C858 1.372 . S
C859 C860 1.400 . S
C859 C864 1.490 . S
C860 H850 0.930 . S
C860 C859 1.400 . S
C860 C863 1.386 . S
H861 C877 0.930 . S
H862 C878 0.931 . S
C863 H851 0.929 . S
C863 C857 1.390 . S
C863 C860 1.386 . S
C864 C859 1.490 . S
C864 C866 1.395 . S
C864 C867 1.403 . S
H865 C871 0.930 . S
C866 H852 0.930 . S
C866 C864 1.395 . S
C866 C869 1.403 . S
C867 C864 1.403 . S
C867 C868 1.524 . S
C867 C871 1.400 . S
C868 H853 0.960 . S
C868 H854 0.960 . S
C868 H855 0.960 . S
C868 C867 1.524 . S
C869 C866 1.403 . S
C869 C870 1.392 . S
C869 C873 1.495 . S
C870 C869 1.392 . S
C870 C871 1.385 . S
C870 C872 1.478 . S
C871 H865 0.930 . S
C871 C867 1.400 . S
C871 C870 1.385 . S
C872 C870 1.478 . S
C872 C874 1.381 . S
C872 C878 1.383 . S
C873 C869 1.495 . S
C873 H879 0.959 . S
C873 H880 0.961 . S
C873 H881 0.960 . S
C874 C872 1.381 . S
C874 C875 1.394 . S
C874 H882 0.930 . S
C875 C874 1.394 . S
C875 C876 1.383 . S
C875 H883 0.929 . S
C876 C875 1.383 . S
C876 C877 1.377 . S
C877 H861 0.930 . S
C877 C876 1.377 . S
C877 C878 1.379 . S
C878 H862 0.931 . S
C878 C872 1.383 . S
C878 C877 1.379 . S
H879 C873 0.959 . S
H880 C873 0.961 . S
H881 C873 0.960 . S
H882 C874 0.930 . S
H883 C875 0.929 . S
H884 C892 0.929 . S
H885 C894 0.930 . S
H886 C896 0.930 . S
H887 C899 0.929 . S
H888 C902 0.930 . S
H889 C904 0.960 . S
H890 C904 0.960 . S
H891 C904 0.960 . S
C892 H884 0.929 . S
C892 C893 1.377 . S
C892 C894 1.384 . S
C893 C892 1.377 . S
C893 C899 1.390 . S
C894 H885 0.930 . S
C894 C892 1.384 . S
C894 C895 1.372 . S
C895 C894 1.372 . S
C895 C896 1.400 . S
C895 C900 1.490 . S
C896 H886 0.930 . S
C896 C895 1.400 . S
C896 C899 1.386 . S
H897 C913 0.930 . S
H898 C914 0.931 . S
C899 H887 0.929 . S
C899 C893 1.390 . S
C899 C896 1.386 . S
C900 C895 1.490 . S
C900 C902 1.395 . S
C900 C903 1.403 . S
H901 C907 0.930 . S
C902 H888 0.930 . S
C902 C900 1.395 . S
C902 C905 1.403 . S
C903 C900 1.403 . S
C903 C904 1.524 . S
C903 C907 1.400 . S
C904 H889 0.960 . S
C904 H890 0.960 . S
C904 H891 0.960 . S
C904 C903 1.524 . S
C905 C902 1.403 . S
C905 C906 1.392 . S
C905 C909 1.495 . S
C906 C905 1.392 . S
C906 C907 1.385 . S
C906 C908 1.478 . S
C907 H901 0.930 . S
C907 C903 1.400 . S
C907 C906 1.385 . S
C908 C906 1.478 . S
C908 C910 1.381 . S
C908 C914 1.383 . S
C909 C905 1.495 . S
C909 H915 0.959 . S
C909 H916 0.961 . S
C909 H917 0.960 . S
C910 C908 1.381 . S
C910 C911 1.394 . S
C910 H918 0.930 . S
C911 C910 1.394 . S
C911 C912 1.383 . S
C911 H919 0.929 . S
C912 C911 1.383 . S
C912 C913 1.377 . S
C913 H897 0.930 . S
C913 C912 1.377 . S
C913 C914 1.379 . S
C914 H898 0.931 . S
C914 C908 1.383 . S
C914 C913 1.379 . S
H915 C909 0.959 . S
H916 C909 0.961 . S
H917 C909 0.960 . S
H918 C910 0.930 . S
H919 C911 0.929 . S
H920 C928 0.929 . S
H921 C930 0.930 . S
H922 C932 0.931 1_455 S
H923 C935 0.929 . S
H924 C938 0.930 . S
H925 C940 0.960 . S
H926 C940 0.960 . S
H927 C940 0.960 . S
C928 H920 0.929 . S
C928 C929 1.377 1_655 S
C928 C930 1.384 . S
C929 C928 1.377 1_455 S
C929 C935 1.390 . S
C930 H921 0.930 . S
C930 C928 1.384 . S
C930 C931 1.372 . S
C931 C930 1.372 . S
C931 C932 1.400 . S
C931 C936 1.490 . S
C932 H922 0.931 1_655 S
C932 C931 1.400 . S
C932 C935 1.386 1_655 S
H933 C949 0.930 . S
H934 C950 0.931 . S
C935 H923 0.929 . S
C935 C929 1.390 . S
C935 C932 1.386 1_455 S
C936 C931 1.490 . S
C936 C938 1.395 . S
C936 C939 1.403 . S
H937 C943 0.930 . S
C938 H924 0.930 . S
C938 C936 1.395 . S
C938 C941 1.403 . S
C939 C936 1.403 . S
C939 C940 1.524 . S
C939 C943 1.400 . S
C940 H925 0.960 . S
C940 H926 0.960 . S
C940 H927 0.960 . S
C940 C939 1.524 . S
C941 C938 1.403 . S
C941 C942 1.392 . S
C941 C945 1.495 . S
C942 C941 1.392 . S
C942 C943 1.385 . S
C942 C944 1.478 . S
C943 H937 0.930 . S
C943 C939 1.400 . S
C943 C942 1.385 . S
C944 C942 1.478 . S
C944 C946 1.381 . S
C944 C950 1.383 . S
C945 C941 1.495 . S
C945 H951 0.959 . S
C945 H952 0.961 . S
C945 H953 0.960 . S
C946 C944 1.381 . S
C946 C947 1.394 . S
C946 H954 0.930 . S
C947 C946 1.394 . S
C947 C948 1.383 . S
C947 H955 0.929 . S
C948 C947 1.383 . S
C948 C949 1.377 . S
C949 H933 0.930 . S
C949 C948 1.377 . S
C949 C950 1.379 . S
C950 H934 0.931 . S
C950 C944 1.383 . S
C950 C949 1.379 . S
H951 C945 0.959 . S
H952 C945 0.961 . S
H953 C945 0.960 . S
H954 C946 0.930 . S
H955 C947 0.929 . S
H956 C964 0.929 . S
H957 C966 0.930 . S
H958 C968 0.930 . S
H959 C971 0.929 . S
H960 C974 0.930 . S
H961 C976 0.960 . S
H962 C976 0.960 . S
H963 C976 0.960 . S
C964 H956 0.929 . S
C964 C965 1.377 . S
C964 C966 1.384 . S
C965 C964 1.377 . S
C965 C971 1.390 . S
C966 H957 0.930 . S
C966 C964 1.384 . S
C966 C967 1.372 . S
C967 C966 1.372 . S
C967 C968 1.400 . S
C967 C972 1.490 . S
C968 H958 0.930 . S
C968 C967 1.400 . S
C968 C971 1.386 . S
H969 C985 0.930 . S
H970 C986 0.931 . S
C971 H959 0.929 . S
C971 C965 1.390 . S
C971 C968 1.386 . S
C972 C967 1.490 . S
C972 C974 1.395 . S
C972 C975 1.403 . S
H973 C979 0.930 . S
C974 H960 0.930 . S
C974 C972 1.395 . S
C974 C977 1.403 . S
C975 C972 1.403 . S
C975 C976 1.524 . S
C975 C979 1.400 . S
C976 H961 0.960 . S
C976 H962 0.960 . S
C976 H963 0.960 . S
C976 C975 1.524 . S
C977 C974 1.403 . S
C977 C978 1.392 . S
C977 C981 1.495 . S
C978 C977 1.392 . S
C978 C979 1.385 . S
C978 C980 1.478 . S
C979 H973 0.930 . S
C979 C975 1.400 . S
C979 C978 1.385 . S
C980 C978 1.478 . S
C980 C982 1.381 . S
C980 C986 1.383 . S
C981 C977 1.495 . S
C981 H987 0.959 . S
C981 H988 0.961 . S
C981 H989 0.960 . S
C982 C980 1.381 . S
C982 C983 1.394 . S
C982 H990 0.930 . S
C983 C982 1.394 . S
C983 C984 1.383 . S
C983 H991 0.929 . S
C984 C983 1.383 . S
C984 C985 1.377 . S
C985 H969 0.930 . S
C985 C984 1.377 . S
C985 C986 1.379 . S
C986 H970 0.931 . S
C986 C980 1.383 . S
C986 C985 1.379 . S
H987 C981 0.959 . S
H988 C981 0.961 . S
H989 C981 0.960 . S
H990 C982 0.930 . S
H991 C983 0.929 . S
H992 C1000 0.929 . S
H993 C1002 0.930 . S
H994 C1004 0.930 . S
H995 C1007 0.929 . S
H996 C1010 0.930 . S
H997 C1012 0.960 . S
H998 C1012 0.960 . S
H999 C1012 0.960 . S
C1000 H992 0.929 . S
C1000 C1001 1.377 . S
C1000 C1002 1.384 . S
C1001 C1000 1.377 . S
C1001 C1007 1.390 . S
C1002 H993 0.930 . S
C1002 C1000 1.384 . S
C1002 C1003 1.372 . S
C1003 C1002 1.372 . S
C1003 C1004 1.400 . S
C1003 C1008 1.490 . S
C1004 H994 0.930 . S
C1004 C1003 1.400 . S
C1004 C1007 1.386 . S
H1005 C1021 0.930 . S
H1006 C1022 0.931 . S
C1007 H995 0.929 . S
C1007 C1001 1.390 . S
C1007 C1004 1.386 . S
C1008 C1003 1.490 . S
C1008 C1010 1.395 . S
C1008 C1011 1.403 . S
H1009 C1015 0.930 . S
C1010 H996 0.930 . S
C1010 C1008 1.395 . S
C1010 C1013 1.403 . S
C1011 C1008 1.403 . S
C1011 C1012 1.524 . S
C1011 C1015 1.400 . S
C1012 H997 0.960 . S
C1012 H998 0.960 . S
C1012 H999 0.960 . S
C1012 C1011 1.524 . S
C1013 C1010 1.403 . S
C1013 C1014 1.392 . S
C1013 C1017 1.495 . S
C1014 C1013 1.392 . S
C1014 C1015 1.385 . S
C1014 C1016 1.478 . S
C1015 H1009 0.930 . S
C1015 C1011 1.400 . S
C1015 C1014 1.385 . S
C1016 C1014 1.478 . S
C1016 C1018 1.381 . S
C1016 C1022 1.383 . S
C1017 C1013 1.495 . S
C1017 H1023 0.959 . S
C1017 H1024 0.961 . S
C1017 H1025 0.960 . S
C1018 C1016 1.381 . S
C1018 C1019 1.394 . S
C1018 H1026 0.930 . S
C1019 C1018 1.394 . S
C1019 C1020 1.383 . S
C1019 H1027 0.929 . S
C1020 C1019 1.383 . S
C1020 C1021 1.377 . S
C1021 H1005 0.930 . S
C1021 C1020 1.377 . S
C1021 C1022 1.379 . S
C1022 H1006 0.931 . S
C1022 C1016 1.383 . S
C1022 C1021 1.379 . S
H1023 C1017 0.959 . S
H1024 C1017 0.961 . S
H1025 C1017 0.960 . S
H1026 C1018 0.930 . S
H1027 C1019 0.929 . S
H1028 C1036 0.929 . S
H1029 C1038 0.930 . S
H1030 C1040 0.930 . S
H1031 C1043 0.929 . S
H1032 C1046 0.930 . S
H1033 C1048 0.960 . S
H1034 C1048 0.960 . S
H1035 C1048 0.960 . S
C1036 H1028 0.929 . S
C1036 C1037 1.377 . S
C1036 C1038 1.384 . S
C1037 C1036 1.377 . S
C1037 C1043 1.390 . S
C1038 H1029 0.930 . S
C1038 C1036 1.384 . S
C1038 C1039 1.372 . S
C1039 C1038 1.372 . S
C1039 C1040 1.400 . S
C1039 C1044 1.490 . S
C1040 H1030 0.930 . S
C1040 C1039 1.400 . S
C1040 C1043 1.386 . S
H1041 C1057 0.930 . S
H1042 C1058 0.931 . S
C1043 H1031 0.929 . S
C1043 C1037 1.390 . S
C1043 C1040 1.386 . S
C1044 C1039 1.490 . S
C1044 C1046 1.395 . S
C1044 C1047 1.403 . S
H1045 C1051 0.930 . S
C1046 H1032 0.930 . S
C1046 C1044 1.395 . S
C1046 C1049 1.403 . S
C1047 C1044 1.403 . S
C1047 C1048 1.524 . S
C1047 C1051 1.400 . S
C1048 H1033 0.960 . S
C1048 H1034 0.960 . S
C1048 H1035 0.960 . S
C1048 C1047 1.524 . S
C1049 C1046 1.403 . S
C1049 C1050 1.392 . S
C1049 C1053 1.495 . S
C1050 C1049 1.392 . S
C1050 C1051 1.385 . S
C1050 C1052 1.478 . S
C1051 H1045 0.930 . S
C1051 C1047 1.400 . S
C1051 C1050 1.385 . S
C1052 C1050 1.478 . S
C1052 C1054 1.381 . S
C1052 C1058 1.383 . S
C1053 C1049 1.495 . S
C1053 H1059 0.959 . S
C1053 H1060 0.961 . S
C1053 H1061 0.960 . S
C1054 C1052 1.381 . S
C1054 C1055 1.394 . S
C1054 H1062 0.930 . S
C1055 C1054 1.394 . S
C1055 C1056 1.383 . S
C1055 H1063 0.929 . S
C1056 C1055 1.383 . S
C1056 C1057 1.377 . S
C1057 H1041 0.930 . S
C1057 C1056 1.377 . S
C1057 C1058 1.379 . S
C1058 H1042 0.931 . S
C1058 C1052 1.383 . S
C1058 C1057 1.379 . S
H1059 C1053 0.959 . S
H1060 C1053 0.961 . S
H1061 C1053 0.960 . S
H1062 C1054 0.930 . S
H1063 C1055 0.929 . S
H1064 C1072 0.929 . S
H1065 C1074 0.930 . S
H1066 C1076 0.930 . S
H1067 C1079 0.929 . S
H1068 C1082 0.930 . S
H1069 C1084 0.960 . S
H1070 C1084 0.960 . S
H1071 C1084 0.960 . S
C1072 H1064 0.929 . S
C1072 C1073 1.377 . S
C1072 C1074 1.384 . S
C1073 C1072 1.377 . S
C1073 C1079 1.390 . S
C1074 H1065 0.930 . S
C1074 C1072 1.384 . S
C1074 C1075 1.372 . S
C1075 C1074 1.372 . S
C1075 C1076 1.400 . S
C1075 C1080 1.490 . S
C1076 H1066 0.930 . S
C1076 C1075 1.400 . S
C1076 C1079 1.386 . S
H1077 C1093 0.930 . S
H1078 C1094 0.931 . S
C1079 H1067 0.929 . S
C1079 C1073 1.390 . S
C1079 C1076 1.386 . S
C1080 C1075 1.490 . S
C1080 C1082 1.395 . S
C1080 C1083 1.403 . S
H1081 C1087 0.930 . S
C1082 H1068 0.930 . S
C1082 C1080 1.395 . S
C1082 C1085 1.403 . S
C1083 C1080 1.403 . S
C1083 C1084 1.524 . S
C1083 C1087 1.400 . S
C1084 H1069 0.960 . S
C1084 H1070 0.960 . S
C1084 H1071 0.960 . S
C1084 C1083 1.524 . S
C1085 C1082 1.403 . S
C1085 C1086 1.392 . S
C1085 C1089 1.495 . S
C1086 C1085 1.392 . S
C1086 C1087 1.385 . S
C1086 C1088 1.478 . S
C1087 H1081 0.930 . S
C1087 C1083 1.400 . S
C1087 C1086 1.385 . S
C1088 C1086 1.478 . S
C1088 C1090 1.381 . S
C1088 C1094 1.383 . S
C1089 C1085 1.495 . S
C1089 H1095 0.959 . S
C1089 H1096 0.961 . S
C1089 H1097 0.960 . S
C1090 C1088 1.381 . S
C1090 C1091 1.394 . S
C1090 H1098 0.930 . S
C1091 C1090 1.394 . S
C1091 C1092 1.383 . S
C1091 H1099 0.929 . S
C1092 C1091 1.383 . S
C1092 C1093 1.377 . S
C1093 H1077 0.930 . S
C1093 C1092 1.377 . S
C1093 C1094 1.379 . S
C1094 H1078 0.931 . S
C1094 C1088 1.383 . S
C1094 C1093 1.379 . S
H1095 C1089 0.959 . S
H1096 C1089 0.961 . S
H1097 C1089 0.960 . S
H1098 C1090 0.930 . S
H1099 C1091 0.929 . S
H1100 C1108 0.929 . S
H1101 C1110 0.930 . S
H1102 C1112 0.930 . S
H1103 C1115 0.929 . S
H1104 C1118 0.930 . S
H1105 C1120 0.960 . S
H1106 C1120 0.960 . S
H1107 C1120 0.960 . S
C1108 H1100 0.929 . S
C1108 C1109 1.377 . S
C1108 C1110 1.384 . S
C1109 C1108 1.377 . S
C1109 C1115 1.390 . S
C1110 H1101 0.930 . S
C1110 C1108 1.384 . S
C1110 C1111 1.372 . S
C1111 C1110 1.372 . S
C1111 C1112 1.400 . S
C1111 C1116 1.490 . S
C1112 H1102 0.930 . S
C1112 C1111 1.400 . S
C1112 C1115 1.386 . S
H1113 C1129 0.930 . S
H1114 C1130 0.931 . S
C1115 H1103 0.929 . S
C1115 C1109 1.390 . S
C1115 C1112 1.386 . S
C1116 C1111 1.490 . S
C1116 C1118 1.395 . S
C1116 C1119 1.403 . S
H1117 C1123 0.930 . S
C1118 H1104 0.930 . S
C1118 C1116 1.395 . S
C1118 C1121 1.403 . S
C1119 C1116 1.403 . S
C1119 C1120 1.524 . S
C1119 C1123 1.400 . S
C1120 H1105 0.960 . S
C1120 H1106 0.960 . S
C1120 H1107 0.960 . S
C1120 C1119 1.524 . S
C1121 C1118 1.403 . S
C1121 C1122 1.392 . S
C1121 C1125 1.495 . S
C1122 C1121 1.392 . S
C1122 C1123 1.385 . S
C1122 C1124 1.478 . S
C1123 H1117 0.930 . S
C1123 C1119 1.400 . S
C1123 C1122 1.385 . S
C1124 C1122 1.478 . S
C1124 C1126 1.381 . S
C1124 C1130 1.383 . S
C1125 C1121 1.495 . S
C1125 H1131 0.959 . S
C1125 H1132 0.961 . S
C1125 H1133 0.960 . S
C1126 C1124 1.381 . S
C1126 C1127 1.394 . S
C1126 H1134 0.930 . S
C1127 C1126 1.394 . S
C1127 C1128 1.383 . S
C1127 H1135 0.929 . S
C1128 C1127 1.383 . S
C1128 C1129 1.377 . S
C1129 H1113 0.930 . S
C1129 C1128 1.377 . S
C1129 C1130 1.379 . S
C1130 H1114 0.931 . S
C1130 C1124 1.383 . S
C1130 C1129 1.379 . S
H1131 C1125 0.959 . S
H1132 C1125 0.961 . S
H1133 C1125 0.960 . S
H1134 C1126 0.930 . S
H1135 C1127 0.929 . S
H1136 C1144 0.929 . S
H1137 C1146 0.930 . S
H1138 C1148 0.930 . S
H1139 C1151 0.929 . S
H1140 C1154 0.930 . S
H1141 C1156 0.960 . S
H1142 C1156 0.960 . S
H1143 C1156 0.960 . S
C1144 H1136 0.929 . S
C1144 C1145 1.377 . S
C1144 C1146 1.384 . S
C1145 C1144 1.377 . S
C1145 C1151 1.390 . S
C1146 H1137 0.930 . S
C1146 C1144 1.384 . S
C1146 C1147 1.372 . S
C1147 C1146 1.372 . S
C1147 C1148 1.400 . S
C1147 C1152 1.490 . S
C1148 H1138 0.930 . S
C1148 C1147 1.400 . S
C1148 C1151 1.386 . S
H1149 C1165 0.930 . S
H1150 C1166 0.931 . S
C1151 H1139 0.929 . S
C1151 C1145 1.390 . S
C1151 C1148 1.386 . S
C1152 C1147 1.490 . S
C1152 C1154 1.395 . S
C1152 C1155 1.403 . S
H1153 C1159 0.930 . S
C1154 H1140 0.930 . S
C1154 C1152 1.395 . S
C1154 C1157 1.403 . S
C1155 C1152 1.403 . S
C1155 C1156 1.524 . S
C1155 C1159 1.400 . S
C1156 H1141 0.960 . S
C1156 H1142 0.960 . S
C1156 H1143 0.960 . S
C1156 C1155 1.524 . S
C1157 C1154 1.403 . S
C1157 C1158 1.392 . S
C1157 C1161 1.495 . S
C1158 C1157 1.392 . S
C1158 C1159 1.385 . S
C1158 C1160 1.478 . S
C1159 H1153 0.930 . S
C1159 C1155 1.400 . S
C1159 C1158 1.385 . S
C1160 C1158 1.478 . S
C1160 C1162 1.381 . S
C1160 C1166 1.383 . S
C1161 C1157 1.495 . S
C1161 H1167 0.959 . S
C1161 H1168 0.961 . S
C1161 H1169 0.960 . S
C1162 C1160 1.381 . S
C1162 C1163 1.394 . S
C1162 H1170 0.930 . S
C1163 C1162 1.394 . S
C1163 C1164 1.383 . S
C1163 H1171 0.929 . S
C1164 C1163 1.383 . S
C1164 C1165 1.377 . S
C1165 H1149 0.930 . S
C1165 C1164 1.377 . S
C1165 C1166 1.379 . S
C1166 H1150 0.931 . S
C1166 C1160 1.383 . S
C1166 C1165 1.379 . S
H1167 C1161 0.959 . S
H1168 C1161 0.961 . S
H1169 C1161 0.960 . S
H1170 C1162 0.930 . S
H1171 C1163 0.929 . S
H1172 C1180 0.929 . S
H1173 C1182 0.930 . S
H1174 C1184 0.930 . S
H1175 C1187 0.929 . S
H1176 C1190 0.930 . S
H1177 C1192 0.960 . S
H1178 C1192 0.960 . S
H1179 C1192 0.960 . S
C1180 H1172 0.929 . S
C1180 C1181 1.377 . S
C1180 C1182 1.384 . S
C1181 C1180 1.377 . S
C1181 C1187 1.390 . S
C1182 H1173 0.930 . S
C1182 C1180 1.384 . S
C1182 C1183 1.372 . S
C1183 C1182 1.372 . S
C1183 C1184 1.400 . S
C1183 C1188 1.490 . S
C1184 H1174 0.930 . S
C1184 C1183 1.400 . S
C1184 C1187 1.386 . S
H1185 C1201 0.930 . S
H1186 C1202 0.931 . S
C1187 H1175 0.929 . S
C1187 C1181 1.390 . S
C1187 C1184 1.386 . S
C1188 C1183 1.490 . S
C1188 C1190 1.395 . S
C1188 C1191 1.403 . S
H1189 C1195 0.930 . S
C1190 H1176 0.930 . S
C1190 C1188 1.395 . S
C1190 C1193 1.403 . S
C1191 C1188 1.403 . S
C1191 C1192 1.524 . S
C1191 C1195 1.400 . S
C1192 H1177 0.960 . S
C1192 H1178 0.960 . S
C1192 H1179 0.960 . S
C1192 C1191 1.524 . S
C1193 C1190 1.403 . S
C1193 C1194 1.392 . S
C1193 C1197 1.495 . S
C1194 C1193 1.392 . S
C1194 C1195 1.385 . S
C1194 C1196 1.478 . S
C1195 H1189 0.930 . S
C1195 C1191 1.400 . S
C1195 C1194 1.385 . S
C1196 C1194 1.478 . S
C1196 C1198 1.381 . S
C1196 C1202 1.383 . S
C1197 C1193 1.495 . S
C1197 H1203 0.959 . S
C1197 H1204 0.961 . S
C1197 H1205 0.960 . S
C1198 C1196 1.381 . S
C1198 C1199 1.394 . S
C1198 H1206 0.930 . S
C1199 C1198 1.394 . S
C1199 C1200 1.383 . S
C1199 H1207 0.929 . S
C1200 C1199 1.383 . S
C1200 C1201 1.377 . S
C1201 H1185 0.930 . S
C1201 C1200 1.377 . S
C1201 C1202 1.379 . S
C1202 H1186 0.931 . S
C1202 C1196 1.383 . S
C1202 C1201 1.379 . S
H1203 C1197 0.959 . S
H1204 C1197 0.961 . S
H1205 C1197 0.960 . S
H1206 C1198 0.930 . S
H1207 C1199 0.929 . S
H1208 C1216 0.929 . S
H1209 C1218 0.930 . S
H1210 C1220 0.930 . S
H1211 C1223 0.929 . S
H1212 C1226 0.930 . S
H1213 C1228 0.960 . S
H1214 C1228 0.960 . S
H1215 C1228 0.960 . S
C1216 H1208 0.929 . S
C1216 C1217 1.377 . S
C1216 C1218 1.384 . S
C1217 C1216 1.377 . S
C1217 C1223 1.390 . S
C1218 H1209 0.930 . S
C1218 C1216 1.384 . S
C1218 C1219 1.372 . S
C1219 C1218 1.372 . S
C1219 C1220 1.400 . S
C1219 C1224 1.490 . S
C1220 H1210 0.930 . S
C1220 C1219 1.400 . S
C1220 C1223 1.386 . S
H1221 C1237 0.930 . S
H1222 C1238 0.931 . S
C1223 H1211 0.929 . S
C1223 C1217 1.390 . S
C1223 C1220 1.386 . S
C1224 C1219 1.490 . S
C1224 C1226 1.395 . S
C1224 C1227 1.403 . S
H1225 C1231 0.930 . S
C1226 H1212 0.930 . S
C1226 C1224 1.395 . S
C1226 C1229 1.403 . S
C1227 C1224 1.403 . S
C1227 C1228 1.524 . S
C1227 C1231 1.400 . S
C1228 H1213 0.960 . S
C1228 H1214 0.960 . S
C1228 H1215 0.960 . S
C1228 C1227 1.524 . S
C1229 C1226 1.403 . S
C1229 C1230 1.392 . S
C1229 C1233 1.495 . S
C1230 C1229 1.392 . S
C1230 C1231 1.385 . S
C1230 C1232 1.478 . S
C1231 H1225 0.930 . S
C1231 C1227 1.400 . S
C1231 C1230 1.385 . S
C1232 C1230 1.478 . S
C1232 C1234 1.381 . S
C1232 C1238 1.383 . S
C1233 C1229 1.495 . S
C1233 H1239 0.959 . S
C1233 H1240 0.961 . S
C1233 H1241 0.960 . S
C1234 C1232 1.381 . S
C1234 C1235 1.394 . S
C1234 H1242 0.930 . S
C1235 C1234 1.394 . S
C1235 C1236 1.383 . S
C1235 H1243 0.929 . S
C1236 C1235 1.383 . S
C1236 C1237 1.377 . S
C1237 H1221 0.930 . S
C1237 C1236 1.377 . S
C1237 C1238 1.379 . S
C1238 H1222 0.931 . S
C1238 C1232 1.383 . S
C1238 C1237 1.379 . S
H1239 C1233 0.959 . S
H1240 C1233 0.961 . S
H1241 C1233 0.960 . S
H1242 C1234 0.930 . S
H1243 C1235 0.929 . S
H1244 C1252 0.929 . S
H1245 C1254 0.930 . S
H1246 C1256 0.930 . S
H1247 C1259 0.929 . S
H1248 C1262 0.930 . S
H1249 C1264 0.960 . S
H1250 C1264 0.960 . S
H1251 C1264 0.960 . S
C1252 H1244 0.929 . S
C1252 C1253 1.377 . S
C1252 C1254 1.384 . S
C1253 C1252 1.377 . S
C1253 C1259 1.390 . S
C1254 H1245 0.930 . S
C1254 C1252 1.384 . S
C1254 C1255 1.372 . S
C1255 C1254 1.372 . S
C1255 C1256 1.400 . S
C1255 C1260 1.490 . S
C1256 H1246 0.930 . S
C1256 C1255 1.400 . S
C1256 C1259 1.386 . S
H1257 C1273 0.930 . S
H1258 C1274 0.931 . S
C1259 H1247 0.929 . S
C1259 C1253 1.390 . S
C1259 C1256 1.386 . S
C1260 C1255 1.490 . S
C1260 C1262 1.395 . S
C1260 C1263 1.403 . S
H1261 C1267 0.930 . S
C1262 H1248 0.930 . S
C1262 C1260 1.395 . S
C1262 C1265 1.403 . S
C1263 C1260 1.403 . S
C1263 C1264 1.524 . S
C1263 C1267 1.400 . S
C1264 H1249 0.960 . S
C1264 H1250 0.960 . S
C1264 H1251 0.960 . S
C1264 C1263 1.524 . S
C1265 C1262 1.403 . S
C1265 C1266 1.392 . S
C1265 C1269 1.495 . S
C1266 C1265 1.392 . S
C1266 C1267 1.385 . S
C1266 C1268 1.478 . S
C1267 H1261 0.930 . S
C1267 C1263 1.400 . S
C1267 C1266 1.385 . S
C1268 C1266 1.478 . S
C1268 C1270 1.381 . S
C1268 C1274 1.383 . S
C1269 C1265 1.495 . S
C1269 H1275 0.959 . S
C1269 H1276 0.961 . S
C1269 H1277 0.960 . S
C1270 C1268 1.381 . S
C1270 C1271 1.394 . S
C1270 H1278 0.930 . S
C1271 C1270 1.394 . S
C1271 C1272 1.383 . S
C1271 H1279 0.929 . S
C1272 C1271 1.383 . S
C1272 C1273 1.377 . S
C1273 H1257 0.930 . S
C1273 C1272 1.377 . S
C1273 C1274 1.379 . S
C1274 H1258 0.931 . S
C1274 C1268 1.383 . S
C1274 C1273 1.379 . S
H1275 C1269 0.959 . S
H1276 C1269 0.961 . S
H1277 C1269 0.960 . S
H1278 C1270 0.930 . S
H1279 C1271 0.929 . S
H1280 C1288 0.929 . S
H1281 C1290 0.930 . S
H1282 C1292 0.930 . S
H1283 C1295 0.929 1_554 S
H1284 C1298 0.930 . S
H1285 C1300 0.960 . S
H1286 C1300 0.960 . S
H1287 C1300 0.960 . S
C1288 H1280 0.929 . S
C1288 C1289 1.377 . S
C1288 C1290 1.384 . S
C1289 C1288 1.377 . S
C1289 C1295 1.390 . S
C1290 H1281 0.930 . S
C1290 C1288 1.384 . S
C1290 C1291 1.372 1_455 S
C1291 C1290 1.372 1_655 S
C1291 C1292 1.400 . S
C1291 C1296 1.490 . S
C1292 H1282 0.930 . S
C1292 C1291 1.400 . S
C1292 C1295 1.386 1_655 S
H1293 C1309 0.930 . S
H1294 C1310 0.931 . S
C1295 H1283 0.929 1_556 S
C1295 C1289 1.390 . S
C1295 C1292 1.386 1_455 S
C1296 C1291 1.490 . S
C1296 C1298 1.395 . S
C1296 C1299 1.403 . S
H1297 C1303 0.930 . S
C1298 H1284 0.930 . S
C1298 C1296 1.395 . S
C1298 C1301 1.403 . S
C1299 C1296 1.403 . S
C1299 C1300 1.524 . S
C1299 C1303 1.400 . S
C1300 H1285 0.960 . S
C1300 H1286 0.960 . S
C1300 H1287 0.960 . S
C1300 C1299 1.524 . S
C1301 C1298 1.403 . S
C1301 C1302 1.392 . S
C1301 C1305 1.495 . S
C1302 C1301 1.392 . S
C1302 C1303 1.385 . S
C1302 C1304 1.478 . S
C1303 H1297 0.930 . S
C1303 C1299 1.400 . S
C1303 C1302 1.385 . S
C1304 C1302 1.478 . S
C1304 C1306 1.381 . S
C1304 C1310 1.383 . S
C1305 C1301 1.495 . S
C1305 H1311 0.959 . S
C1305 H1312 0.961 . S
C1305 H1313 0.960 . S
C1306 C1304 1.381 . S
C1306 C1307 1.394 . S
C1306 H1314 0.930 . S
C1307 C1306 1.394 . S
C1307 C1308 1.383 . S
C1307 H1315 0.929 . S
C1308 C1307 1.383 . S
C1308 C1309 1.377 . S
C1309 H1293 0.930 . S
C1309 C1308 1.377 . S
C1309 C1310 1.379 . S
C1310 H1294 0.931 . S
C1310 C1304 1.383 . S
C1310 C1309 1.379 . S
H1311 C1305 0.959 . S
H1312 C1305 0.961 . S
H1313 C1305 0.960 . S
H1314 C1306 0.930 . S
H1315 C1307 0.929 . S
H1316 C1324 0.929 . S
H1317 C1326 0.930 . S
H1318 C1328 0.930 . S
H1319 C1331 0.929 . S
H1320 C1334 0.930 . S
H1321 C1336 0.960 . S
H1322 C1336 0.960 . S
H1323 C1336 0.960 . S
C1324 H1316 0.929 . S
C1324 C1325 1.377 . S
C1324 C1326 1.384 . S
C1325 C1324 1.377 . S
C1325 C1331 1.390 . S
C1326 H1317 0.930 . S
C1326 C1324 1.384 . S
C1326 C1327 1.372 . S
C1327 C1326 1.372 . S
C1327 C1328 1.400 . S
C1327 C1332 1.490 . S
C1328 H1318 0.930 . S
C1328 C1327 1.400 . S
C1328 C1331 1.386 . S
H1329 C1345 0.930 . S
H1330 C1346 0.931 . S
C1331 H1319 0.929 . S
C1331 C1325 1.390 . S
C1331 C1328 1.386 . S
C1332 C1327 1.490 . S
C1332 C1334 1.395 . S
C1332 C1335 1.403 . S
H1333 C1339 0.930 . S
C1334 H1320 0.930 . S
C1334 C1332 1.395 . S
C1334 C1337 1.403 . S
C1335 C1332 1.403 . S
C1335 C1336 1.524 . S
C1335 C1339 1.400 . S
C1336 H1321 0.960 . S
C1336 H1322 0.960 . S
C1336 H1323 0.960 . S
C1336 C1335 1.524 . S
C1337 C1334 1.403 . S
C1337 C1338 1.392 . S
C1337 C1341 1.495 . S
C1338 C1337 1.392 . S
C1338 C1339 1.385 . S
C1338 C1340 1.478 . S
C1339 H1333 0.930 . S
C1339 C1335 1.400 . S
C1339 C1338 1.385 . S
C1340 C1338 1.478 . S
C1340 C1342 1.381 . S
C1340 C1346 1.383 . S
C1341 C1337 1.495 . S
C1341 H1347 0.959 . S
C1341 H1348 0.961 . S
C1341 H1349 0.960 . S
C1342 C1340 1.381 . S
C1342 C1343 1.394 . S
C1342 H1350 0.930 . S
C1343 C1342 1.394 . S
C1343 C1344 1.383 . S
C1343 H1351 0.929 . S
C1344 C1343 1.383 . S
C1344 C1345 1.377 . S
C1345 H1329 0.930 . S
C1345 C1344 1.377 . S
C1345 C1346 1.379 . S
C1346 H1330 0.931 . S
C1346 C1340 1.383 . S
C1346 C1345 1.379 . S
H1347 C1341 0.959 . S
H1348 C1341 0.961 . S
H1349 C1341 0.960 . S
H1350 C1342 0.930 . S
H1351 C1343 0.929 . S
H1352 C1360 0.929 . S
H1353 C1362 0.930 . S
H1354 C1364 0.930 . S
H1355 C1367 0.929 . S
H1356 C1370 0.930 . S
H1357 C1372 0.960 . S
H1358 C1372 0.960 . S
H1359 C1372 0.960 . S
C1360 H1352 0.929 . S
C1360 C1361 1.377 . S
C1360 C1362 1.384 . S
C1361 C1360 1.377 . S
C1361 C1367 1.390 . S
C1362 H1353 0.930 . S
C1362 C1360 1.384 . S
C1362 C1363 1.372 . S
C1363 C1362 1.372 . S
C1363 C1364 1.400 . S
C1363 C1368 1.490 . S
C1364 H1354 0.930 . S
C1364 C1363 1.400 . S
C1364 C1367 1.386 . S
H1365 C1381 0.930 . S
H1366 C1382 0.931 . S
C1367 H1355 0.929 . S
C1367 C1361 1.390 . S
C1367 C1364 1.386 . S
C1368 C1363 1.490 . S
C1368 C1370 1.395 . S
C1368 C1371 1.403 . S
H1369 C1375 0.930 . S
C1370 H1356 0.930 . S
C1370 C1368 1.395 . S
C1370 C1373 1.403 . S
C1371 C1368 1.403 . S
C1371 C1372 1.524 . S
C1371 C1375 1.400 . S
C1372 H1357 0.960 . S
C1372 H1358 0.960 . S
C1372 H1359 0.960 . S
C1372 C1371 1.524 . S
C1373 C1370 1.403 . S
C1373 C1374 1.392 . S
C1373 C1377 1.495 . S
C1374 C1373 1.392 . S
C1374 C1375 1.385 . S
C1374 C1376 1.478 . S
C1375 H1369 0.930 . S
C1375 C1371 1.400 . S
C1375 C1374 1.385 . S
C1376 C1374 1.478 . S
C1376 C1378 1.381 . S
C1376 C1382 1.383 . S
C1377 C1373 1.495 . S
C1377 H1383 0.959 . S
C1377 H1384 0.961 . S
C1377 H1385 0.960 . S
C1378 C1376 1.381 . S
C1378 C1379 1.394 . S
C1378 H1386 0.930 . S
C1379 C1378 1.394 . S
C1379 C1380 1.383 . S
C1379 H1387 0.929 . S
C1380 C1379 1.383 . S
C1380 C1381 1.377 . S
C1381 H1365 0.930 . S
C1381 C1380 1.377 . S
C1381 C1382 1.379 . S
C1382 H1366 0.931 . S
C1382 C1376 1.383 . S
C1382 C1381 1.379 . S
H1383 C1377 0.959 . S
H1384 C1377 0.961 . S
H1385 C1377 0.960 . S
H1386 C1378 0.930 . S
H1387 C1379 0.929 . S
H1388 C1396 0.929 . S
H1389 C1398 0.930 . S
H1390 C1400 0.930 . S
H1391 C1403 0.929 . S
H1392 C1406 0.930 . S
H1393 C1408 0.960 . S
H1394 C1408 0.960 . S
H1395 C1408 0.960 . S
C1396 H1388 0.929 . S
C1396 C1397 1.377 . S
C1396 C1398 1.384 . S
C1397 C1396 1.377 . S
C1397 C1403 1.390 . S
C1398 H1389 0.930 . S
C1398 C1396 1.384 . S
C1398 C1399 1.372 . S
C1399 C1398 1.372 . S
C1399 C1400 1.400 . S
C1399 C1404 1.490 . S
C1400 H1390 0.930 . S
C1400 C1399 1.400 . S
C1400 C1403 1.386 . S
H1401 C1417 0.930 . S
H1402 C1418 0.931 . S
C1403 H1391 0.929 . S
C1403 C1397 1.390 . S
C1403 C1400 1.386 . S
C1404 C1399 1.490 . S
C1404 C1406 1.395 . S
C1404 C1407 1.403 . S
H1405 C1411 0.930 . S
C1406 H1392 0.930 . S
C1406 C1404 1.395 . S
C1406 C1409 1.403 . S
C1407 C1404 1.403 . S
C1407 C1408 1.524 . S
C1407 C1411 1.400 . S
C1408 H1393 0.960 . S
C1408 H1394 0.960 . S
C1408 H1395 0.960 . S
C1408 C1407 1.524 . S
C1409 C1406 1.403 . S
C1409 C1410 1.392 . S
C1409 C1413 1.495 . S
C1410 C1409 1.392 . S
C1410 C1411 1.385 . S
C1410 C1412 1.478 . S
C1411 H1405 0.930 . S
C1411 C1407 1.400 . S
C1411 C1410 1.385 . S
C1412 C1410 1.478 . S
C1412 C1414 1.381 . S
C1412 C1418 1.383 . S
C1413 C1409 1.495 . S
C1413 H1419 0.959 . S
C1413 H1420 0.961 . S
C1413 H1421 0.960 . S
C1414 C1412 1.381 . S
C1414 C1415 1.394 . S
C1414 H1422 0.930 . S
C1415 C1414 1.394 . S
C1415 C1416 1.383 . S
C1415 H1423 0.929 . S
C1416 C1415 1.383 . S
C1416 C1417 1.377 . S
C1417 H1401 0.930 . S
C1417 C1416 1.377 . S
C1417 C1418 1.379 . S
C1418 H1402 0.931 . S
C1418 C1412 1.383 . S
C1418 C1417 1.379 . S
H1419 C1413 0.959 . S
H1420 C1413 0.961 . S
H1421 C1413 0.960 . S
H1422 C1414 0.930 . S
H1423 C1415 0.929 . S
H1424 C1432 0.929 . S
H1425 C1434 0.930 . S
H1426 C1436 0.930 . S
H1427 C1439 0.929 . S
H1428 C1442 0.930 . S
H1429 C1444 0.960 . S
H1430 C1444 0.960 . S
H1431 C1444 0.960 . S
C1432 H1424 0.929 . S
C1432 C1433 1.377 . S
C1432 C1434 1.384 . S
C1433 C1432 1.377 . S
C1433 C1439 1.390 . S
C1434 H1425 0.930 . S
C1434 C1432 1.384 . S
C1434 C1435 1.372 . S
C1435 C1434 1.372 . S
C1435 C1436 1.400 . S
C1435 C1440 1.490 . S
C1436 H1426 0.930 . S
C1436 C1435 1.400 . S
C1436 C1439 1.386 . S
H1437 C1453 0.930 . S
H1438 C1454 0.931 . S
C1439 H1427 0.929 . S
C1439 C1433 1.390 . S
C1439 C1436 1.386 . S
C1440 C1435 1.490 . S
C1440 C1442 1.395 . S
C1440 C1443 1.403 . S
H1441 C1447 0.930 . S
C1442 H1428 0.930 . S
C1442 C1440 1.395 . S
C1442 C1445 1.403 . S
C1443 C1440 1.403 . S
C1443 C1444 1.524 . S
C1443 C1447 1.400 . S
C1444 H1429 0.960 . S
C1444 H1430 0.960 . S
C1444 H1431 0.960 . S
C1444 C1443 1.524 . S
C1445 C1442 1.403 . S
C1445 C1446 1.392 . S
C1445 C1449 1.495 . S
C1446 C1445 1.392 . S
C1446 C1447 1.385 . S
C1446 C1448 1.478 . S
C1447 H1441 0.930 . S
C1447 C1443 1.400 . S
C1447 C1446 1.385 . S
C1448 C1446 1.478 . S
C1448 C1450 1.381 . S
C1448 C1454 1.383 . S
C1449 C1445 1.495 . S
C1449 H1455 0.959 . S
C1449 H1456 0.961 . S
C1449 H1457 0.960 . S
C1450 C1448 1.381 . S
C1450 C1451 1.394 . S
C1450 H1458 0.930 . S
C1451 C1450 1.394 . S
C1451 C1452 1.383 . S
C1451 H1459 0.929 . S
C1452 C1451 1.383 . S
C1452 C1453 1.377 . S
C1453 H1437 0.930 . S
C1453 C1452 1.377 . S
C1453 C1454 1.379 . S
C1454 H1438 0.931 . S
C1454 C1448 1.383 . S
C1454 C1453 1.379 . S
H1455 C1449 0.959 . S
H1456 C1449 0.961 . S
H1457 C1449 0.960 . S
H1458 C1450 0.930 . S
H1459 C1451 0.929 . S
H1460 C1468 0.929 . S
H1461 C1470 0.930 . S
H1462 C1472 0.930 . S
H1463 C1475 0.929 . S
H1464 C1478 0.930 . S
H1465 C1480 0.960 . S
H1466 C1480 0.960 . S
H1467 C1480 0.960 . S
C1468 H1460 0.929 . S
C1468 C1469 1.377 . S
C1468 C1470 1.384 . S
C1469 C1468 1.377 . S
C1469 C1475 1.390 . S
C1470 H1461 0.930 . S
C1470 C1468 1.384 . S
C1470 C1471 1.372 . S
C1471 C1470 1.372 . S
C1471 C1472 1.400 . S
C1471 C1476 1.490 . S
C1472 H1462 0.930 . S
C1472 C1471 1.400 . S
C1472 C1475 1.386 . S
H1473 C1489 0.930 . S
H1474 C1490 0.931 . S
C1475 H1463 0.929 . S
C1475 C1469 1.390 . S
C1475 C1472 1.386 . S
C1476 C1471 1.490 . S
C1476 C1478 1.395 . S
C1476 C1479 1.403 . S
H1477 C1483 0.930 . S
C1478 H1464 0.930 . S
C1478 C1476 1.395 . S
C1478 C1481 1.403 . S
C1479 C1476 1.403 . S
C1479 C1480 1.524 . S
C1479 C1483 1.400 . S
C1480 H1465 0.960 . S
C1480 H1466 0.960 . S
C1480 H1467 0.960 . S
C1480 C1479 1.524 . S
C1481 C1478 1.403 . S
C1481 C1482 1.392 . S
C1481 C1485 1.495 . S
C1482 C1481 1.392 . S
C1482 C1483 1.385 . S
C1482 C1484 1.478 . S
C1483 H1477 0.930 . S
C1483 C1479 1.400 . S
C1483 C1482 1.385 . S
C1484 C1482 1.478 . S
C1484 C1486 1.381 . S
C1484 C1490 1.383 . S
C1485 C1481 1.495 . S
C1485 H1491 0.959 . S
C1485 H1492 0.961 . S
C1485 H1493 0.960 . S
C1486 C1484 1.381 . S
C1486 C1487 1.394 . S
C1486 H1494 0.930 . S
C1487 C1486 1.394 . S
C1487 C1488 1.383 . S
C1487 H1495 0.929 . S
C1488 C1487 1.383 . S
C1488 C1489 1.377 . S
C1489 H1473 0.930 . S
C1489 C1488 1.377 . S
C1489 C1490 1.379 . S
C1490 H1474 0.931 . S
C1490 C1484 1.383 . S
C1490 C1489 1.379 . S
H1491 C1485 0.959 . S
H1492 C1485 0.961 . S
H1493 C1485 0.960 . S
H1494 C1486 0.930 . S
H1495 C1487 0.929 . S
H1496 C1504 0.929 . S
H1497 C1506 0.930 . S
H1498 C1508 0.930 . S
H1499 C1511 0.929 . S
H1500 C1514 0.930 . S
H1501 C1516 0.960 . S
H1502 C1516 0.960 . S
H1503 C1516 0.960 . S
C1504 H1496 0.929 . S
C1504 C1505 1.377 . S
C1504 C1506 1.384 . S
C1505 C1504 1.377 . S
C1505 C1511 1.390 . S
C1506 H1497 0.930 . S
C1506 C1504 1.384 . S
C1506 C1507 1.372 . S
C1507 C1506 1.372 . S
C1507 C1508 1.400 . S
C1507 C1512 1.490 . S
C1508 H1498 0.930 . S
C1508 C1507 1.400 . S
C1508 C1511 1.386 . S
H1509 C1525 0.930 . S
H1510 C1526 0.931 . S
C1511 H1499 0.929 . S
C1511 C1505 1.390 . S
C1511 C1508 1.386 . S
C1512 C1507 1.490 . S
C1512 C1514 1.395 . S
C1512 C1515 1.403 . S
H1513 C1519 0.930 . S
C1514 H1500 0.930 . S
C1514 C1512 1.395 . S
C1514 C1517 1.403 . S
C1515 C1512 1.403 . S
C1515 C1516 1.524 . S
C1515 C1519 1.400 . S
C1516 H1501 0.960 . S
C1516 H1502 0.960 . S
C1516 H1503 0.960 . S
C1516 C1515 1.524 . S
C1517 C1514 1.403 . S
C1517 C1518 1.392 . S
C1517 C1521 1.495 . S
C1518 C1517 1.392 . S
C1518 C1519 1.385 . S
C1518 C1520 1.478 . S
C1519 H1513 0.930 . S
C1519 C1515 1.400 . S
C1519 C1518 1.385 . S
C1520 C1518 1.478 . S
C1520 C1522 1.381 . S
C1520 C1526 1.383 . S
C1521 C1517 1.495 . S
C1521 H1527 0.959 . S
C1521 H1528 0.961 . S
C1521 H1529 0.960 . S
C1522 C1520 1.381 . S
C1522 C1523 1.394 . S
C1522 H1530 0.930 . S
C1523 C1522 1.394 . S
C1523 C1524 1.383 . S
C1523 H1531 0.929 . S
C1524 C1523 1.383 . S
C1524 C1525 1.377 . S
C1525 H1509 0.930 . S
C1525 C1524 1.377 . S
C1525 C1526 1.379 . S
C1526 H1510 0.931 . S
C1526 C1520 1.383 . S
C1526 C1525 1.379 . S
H1527 C1521 0.959 . S
H1528 C1521 0.961 . S
H1529 C1521 0.960 . S
H1530 C1522 0.930 . S
H1531 C1523 0.929 . S
H1532 C1540 0.929 . S
H1533 C1542 0.930 . S
H1534 C1544 0.930 . S
H1535 C1547 0.929 . S
H1536 C1550 0.930 . S
H1537 C1552 0.960 . S
H1538 C1552 0.960 . S
H1539 C1552 0.960 . S
C1540 H1532 0.929 . S
C1540 C1541 1.377 . S
C1540 C1542 1.384 . S
C1541 C1540 1.377 . S
C1541 C1547 1.390 . S
C1542 H1533 0.930 . S
C1542 C1540 1.384 . S
C1542 C1543 1.372 . S
C1543 C1542 1.372 . S
C1543 C1544 1.400 . S
C1543 C1548 1.490 . S
C1544 H1534 0.930 . S
C1544 C1543 1.400 . S
C1544 C1547 1.386 . S
H1545 C1561 0.930 . S
H1546 C1562 0.931 . S
C1547 H1535 0.929 . S
C1547 C1541 1.390 . S
C1547 C1544 1.386 . S
C1548 C1543 1.490 . S
C1548 C1550 1.395 . S
C1548 C1551 1.403 . S
H1549 C1555 0.930 . S
C1550 H1536 0.930 . S
C1550 C1548 1.395 . S
C1550 C1553 1.403 . S
C1551 C1548 1.403 . S
C1551 C1552 1.524 . S
C1551 C1555 1.400 . S
C1552 H1537 0.960 . S
C1552 H1538 0.960 . S
C1552 H1539 0.960 . S
C1552 C1551 1.524 . S
C1553 C1550 1.403 . S
C1553 C1554 1.392 . S
C1553 C1557 1.495 . S
C1554 C1553 1.392 . S
C1554 C1555 1.385 . S
C1554 C1556 1.478 . S
C1555 H1549 0.930 . S
C1555 C1551 1.400 . S
C1555 C1554 1.385 . S
C1556 C1554 1.478 . S
C1556 C1558 1.381 . S
C1556 C1562 1.383 . S
C1557 C1553 1.495 . S
C1557 H1563 0.959 . S
C1557 H1564 0.961 . S
C1557 H1565 0.960 . S
C1558 C1556 1.381 . S
C1558 C1559 1.394 . S
C1558 H1566 0.930 . S
C1559 C1558 1.394 . S
C1559 C1560 1.383 . S
C1559 H1567 0.929 . S
C1560 C1559 1.383 . S
C1560 C1561 1.377 . S
C1561 H1545 0.930 . S
C1561 C1560 1.377 . S
C1561 C1562 1.379 . S
C1562 H1546 0.931 . S
C1562 C1556 1.383 . S
C1562 C1561 1.379 . S
H1563 C1557 0.959 . S
H1564 C1557 0.961 . S
H1565 C1557 0.960 . S
H1566 C1558 0.930 . S
H1567 C1559 0.929 . S
H1568 C1576 0.929 . S
H1569 C1578 0.930 . S
H1570 C1580 0.930 . S
H1571 C1583 0.929 . S
H1572 C1586 0.930 . S
H1573 C1588 0.960 . S
H1574 C1588 0.960 . S
H1575 C1588 0.960 . S
C1576 H1568 0.929 . S
C1576 C1577 1.377 . S
C1576 C1578 1.384 . S
C1577 C1576 1.377 . S
C1577 C1583 1.390 . S
C1578 H1569 0.930 . S
C1578 C1576 1.384 . S
C1578 C1579 1.372 . S
C1579 C1578 1.372 . S
C1579 C1580 1.400 . S
C1579 C1584 1.490 . S
C1580 H1570 0.930 . S
C1580 C1579 1.400 . S
C1580 C1583 1.386 . S
H1581 C1597 0.930 . S
H1582 C1598 0.931 . S
C1583 H1571 0.929 . S
C1583 C1577 1.390 . S
C1583 C1580 1.386 . S
C1584 C1579 1.490 . S
C1584 C1586 1.395 . S
C1584 C1587 1.403 . S
H1585 C1591 0.930 . S
C1586 H1572 0.930 . S
C1586 C1584 1.395 . S
C1586 C1589 1.403 . S
C1587 C1584 1.403 . S
C1587 C1588 1.524 . S
C1587 C1591 1.400 . S
C1588 H1573 0.960 . S
C1588 H1574 0.960 . S
C1588 H1575 0.960 . S
C1588 C1587 1.524 . S
C1589 C1586 1.403 . S
C1589 C1590 1.392 . S
C1589 C1593 1.495 . S
C1590 C1589 1.392 . S
C1590 C1591 1.385 . S
C1590 C1592 1.478 . S
C1591 H1585 0.930 . S
C1591 C1587 1.400 . S
C1591 C1590 1.385 . S
C1592 C1590 1.478 . S
C1592 C1594 1.381 . S
C1592 C1598 1.383 . S
C1593 C1589 1.495 . S
C1593 H1599 0.959 . S
C1593 H1600 0.961 . S
C1593 H1601 0.960 . S
C1594 C1592 1.381 . S
C1594 C1595 1.394 . S
C1594 H1602 0.930 . S
C1595 C1594 1.394 . S
C1595 C1596 1.383 . S
C1595 H1603 0.929 . S
C1596 C1595 1.383 . S
C1596 C1597 1.377 . S
C1597 H1581 0.930 . S
C1597 C1596 1.377 . S
C1597 C1598 1.379 . S
C1598 H1582 0.931 . S
C1598 C1592 1.383 . S
C1598 C1597 1.379 . S
H1599 C1593 0.959 . S
H1600 C1593 0.961 . S
H1601 C1593 0.960 . S
H1602 C1594 0.930 . S
H1603 C1595 0.929 . S
H1604 C1612 0.929 . S
H1605 C1614 0.930 . S
H1606 C1616 0.930 . S
H1607 C1619 0.929 . S
H1608 C1622 0.930 . S
H1609 C1624 0.960 . S
H1610 C1624 0.960 . S
H1611 C1624 0.960 . S
C1612 H1604 0.929 . S
C1612 C1613 1.377 . S
C1612 C1614 1.384 . S
C1613 C1612 1.377 . S
C1613 C1619 1.390 . S
C1614 H1605 0.930 . S
C1614 C1612 1.384 . S
C1614 C1615 1.372 . S
C1615 C1614 1.372 . S
C1615 C1616 1.400 . S
C1615 C1620 1.490 . S
C1616 H1606 0.930 . S
C1616 C1615 1.400 . S
C1616 C1619 1.386 . S
H1617 C1633 0.930 . S
H1618 C1634 0.931 . S
C1619 H1607 0.929 . S
C1619 C1613 1.390 . S
C1619 C1616 1.386 . S
C1620 C1615 1.490 . S
C1620 C1622 1.395 . S
C1620 C1623 1.403 . S
H1621 C1627 0.930 . S
C1622 H1608 0.930 . S
C1622 C1620 1.395 . S
C1622 C1625 1.403 . S
C1623 C1620 1.403 . S
C1623 C1624 1.524 . S
C1623 C1627 1.400 . S
C1624 H1609 0.960 . S
C1624 H1610 0.960 . S
C1624 H1611 0.960 . S
C1624 C1623 1.524 . S
C1625 C1622 1.403 . S
C1625 C1626 1.392 . S
C1625 C1629 1.495 . S
C1626 C1625 1.392 . S
C1626 C1627 1.385 . S
C1626 C1628 1.478 . S
C1627 H1621 0.930 . S
C1627 C1623 1.400 . S
C1627 C1626 1.385 . S
C1628 C1626 1.478 . S
C1628 C1630 1.381 . S
C1628 C1634 1.383 . S
C1629 C1625 1.495 . S
C1629 H1635 0.959 . S
C1629 H1636 0.961 . S
C1629 H1637 0.960 . S
C1630 C1628 1.381 . S
C1630 C1631 1.394 . S
C1630 H1638 0.930 . S
C1631 C1630 1.394 . S
C1631 C1632 1.383 . S
C1631 H1639 0.929 . S
C1632 C1631 1.383 . S
C1632 C1633 1.377 . S
C1633 H1617 0.930 . S
C1633 C1632 1.377 . S
C1633 C1634 1.379 . S
C1634 H1618 0.931 . S
C1634 C1628 1.383 . S
C1634 C1633 1.379 . S
H1635 C1629 0.959 . S
H1636 C1629 0.961 . S
H1637 C1629 0.960 . S
H1638 C1630 0.930 . S
H1639 C1631 0.929 . S
H1640 C1648 0.929 . S
H1641 C1650 0.930 . S
H1642 C1652 0.930 . S
H1643 C1655 0.929 . S
H1644 C1658 0.930 . S
H1645 C1660 0.960 . S
H1646 C1660 0.960 . S
H1647 C1660 0.960 . S
C1648 H1640 0.929 . S
C1648 C1649 1.377 . S
C1648 C1650 1.384 . S
C1649 C1648 1.377 . S
C1649 C1655 1.390 . S
C1650 H1641 0.930 . S
C1650 C1648 1.384 . S
C1650 C1651 1.372 . S
C1651 C1650 1.372 . S
C1651 C1652 1.400 . S
C1651 C1656 1.490 . S
C1652 H1642 0.930 . S
C1652 C1651 1.400 . S
C1652 C1655 1.386 . S
H1653 C1669 0.930 . S
H1654 C1670 0.931 . S
C1655 H1643 0.929 . S
C1655 C1649 1.390 . S
C1655 C1652 1.386 . S
C1656 C1651 1.490 . S
C1656 C1658 1.395 . S
C1656 C1659 1.403 . S
H1657 C1663 0.930 . S
C1658 H1644 0.930 . S
C1658 C1656 1.395 . S
C1658 C1661 1.403 . S
C1659 C1656 1.403 . S
C1659 C1660 1.524 . S
C1659 C1663 1.400 . S
C1660 H1645 0.960 . S
C1660 H1646 0.960 . S
C1660 H1647 0.960 . S
C1660 C1659 1.524 . S
C1661 C1658 1.403 . S
C1661 C1662 1.392 . S
C1661 C1665 1.495 . S
C1662 C1661 1.392 . S
C1662 C1663 1.385 . S
C1662 C1664 1.478 . S
C1663 H1657 0.930 . S
C1663 C1659 1.400 . S
C1663 C1662 1.385 . S
C1664 C1662 1.478 . S
C1664 C1666 1.381 . S
C1664 C1670 1.383 . S
C1665 C1661 1.495 . S
C1665 H1671 0.959 . S
C1665 H1672 0.961 . S
C1665 H1673 0.960 . S
C1666 C1664 1.381 . S
C1666 C1667 1.394 . S
C1666 H1674 0.930 . S
C1667 C1666 1.394 . S
C1667 C1668 1.383 . S
C1667 H1675 0.929 . S
C1668 C1667 1.383 . S
C1668 C1669 1.377 . S
C1669 H1653 0.930 . S
C1669 C1668 1.377 . S
C1669 C1670 1.379 . S
C1670 H1654 0.931 . S
C1670 C1664 1.383 . S
C1670 C1669 1.379 . S
H1671 C1665 0.959 . S
H1672 C1665 0.961 . S
H1673 C1665 0.960 . S
H1674 C1666 0.930 . S
H1675 C1667 0.929 . S
H1676 C1684 0.929 . S
H1677 C1686 0.930 . S
H1678 C1688 0.930 . S
H1679 C1691 0.929 . S
H1680 C1694 0.930 . S
H1681 C1696 0.960 . S
H1682 C1696 0.960 . S
H1683 C1696 0.960 . S
C1684 H1676 0.929 . S
C1684 C1685 1.377 . S
C1684 C1686 1.384 . S
C1685 C1684 1.377 . S
C1685 C1691 1.390 . S
C1686 H1677 0.930 . S
C1686 C1684 1.384 . S
C1686 C1687 1.372 . S
C1687 C1686 1.372 . S
C1687 C1688 1.400 . S
C1687 C1692 1.490 . S
C1688 H1678 0.930 . S
C1688 C1687 1.400 . S
C1688 C1691 1.386 . S
H1689 C1705 0.930 . S
H1690 C1706 0.931 . S
C1691 H1679 0.929 . S
C1691 C1685 1.390 . S
C1691 C1688 1.386 . S
C1692 C1687 1.490 . S
C1692 C1694 1.395 . S
C1692 C1695 1.403 . S
H1693 C1699 0.930 . S
C1694 H1680 0.930 . S
C1694 C1692 1.395 . S
C1694 C1697 1.403 . S
C1695 C1692 1.403 . S
C1695 C1696 1.524 . S
C1695 C1699 1.400 . S
C1696 H1681 0.960 . S
C1696 H1682 0.960 . S
C1696 H1683 0.960 . S
C1696 C1695 1.524 . S
C1697 C1694 1.403 . S
C1697 C1698 1.392 . S
C1697 C1701 1.495 . S
C1698 C1697 1.392 . S
C1698 C1699 1.385 . S
C1698 C1700 1.478 . S
C1699 H1693 0.930 . S
C1699 C1695 1.400 . S
C1699 C1698 1.385 . S
C1700 C1698 1.478 . S
C1700 C1702 1.381 . S
C1700 C1706 1.383 . S
C1701 C1697 1.495 . S
C1701 H1707 0.959 . S
C1701 H1708 0.961 . S
C1701 H1709 0.960 . S
C1702 C1700 1.381 . S
C1702 C1703 1.394 . S
C1702 H1710 0.930 . S
C1703 C1702 1.394 . S
C1703 C1704 1.383 . S
C1703 H1711 0.929 . S
C1704 C1703 1.383 . S
C1704 C1705 1.377 . S
C1705 H1689 0.930 . S
C1705 C1704 1.377 . S
C1705 C1706 1.379 . S
C1706 H1690 0.931 . S
C1706 C1700 1.383 . S
C1706 C1705 1.379 . S
H1707 C1701 0.959 . S
H1708 C1701 0.961 . S
H1709 C1701 0.960 . S
H1710 C1702 0.930 . S
H1711 C1703 0.929 . S
H1712 C1720 0.929 . S
H1713 C1722 0.930 . S
H1714 C1724 0.930 . S
H1715 C1727 0.929 . S
H1716 C1730 0.930 . S
H1717 C1732 0.960 . S
H1718 C1732 0.960 . S
H1719 C1732 0.960 . S
C1720 H1712 0.929 . S
C1720 C1721 1.377 . S
C1720 C1722 1.384 . S
C1721 C1720 1.377 . S
C1721 C1727 1.390 . S
C1722 H1713 0.930 . S
C1722 C1720 1.384 . S
C1722 C1723 1.372 . S
C1723 C1722 1.372 . S
C1723 C1724 1.400 . S
C1723 C1728 1.490 . S
C1724 H1714 0.930 . S
C1724 C1723 1.400 . S
C1724 C1727 1.386 . S
H1725 C1741 0.930 . S
H1726 C1742 0.931 . S
C1727 H1715 0.929 . S
C1727 C1721 1.390 . S
C1727 C1724 1.386 . S
C1728 C1723 1.490 . S
C1728 C1730 1.395 . S
C1728 C1731 1.403 . S
H1729 C1735 0.930 . S
C1730 H1716 0.930 . S
C1730 C1728 1.395 . S
C1730 C1733 1.403 . S
C1731 C1728 1.403 . S
C1731 C1732 1.524 . S
C1731 C1735 1.400 . S
C1732 H1717 0.960 . S
C1732 H1718 0.960 . S
C1732 H1719 0.960 . S
C1732 C1731 1.524 . S
C1733 C1730 1.403 . S
C1733 C1734 1.392 . S
C1733 C1737 1.495 . S
C1734 C1733 1.392 . S
C1734 C1735 1.385 . S
C1734 C1736 1.478 . S
C1735 H1729 0.930 . S
C1735 C1731 1.400 . S
C1735 C1734 1.385 . S
C1736 C1734 1.478 . S
C1736 C1738 1.381 . S
C1736 C1742 1.383 . S
C1737 C1733 1.495 . S
C1737 H1743 0.959 . S
C1737 H1744 0.961 . S
C1737 H1745 0.960 . S
C1738 C1736 1.381 . S
C1738 C1739 1.394 . S
C1738 H1746 0.930 . S
C1739 C1738 1.394 . S
C1739 C1740 1.383 . S
C1739 H1747 0.929 . S
C1740 C1739 1.383 . S
C1740 C1741 1.377 . S
C1741 H1725 0.930 . S
C1741 C1740 1.377 . S
C1741 C1742 1.379 . S
C1742 H1726 0.931 . S
C1742 C1736 1.383 . S
C1742 C1741 1.379 . S
H1743 C1737 0.959 . S
H1744 C1737 0.961 . S
H1745 C1737 0.960 . S
H1746 C1738 0.930 . S
H1747 C1739 0.929 . S
H1748 C1756 0.929 . S
H1749 C1758 0.930 . S
H1750 C1760 0.930 . S
H1751 C1763 0.929 . S
H1752 C1766 0.930 . S
H1753 C1768 0.960 . S
H1754 C1768 0.960 . S
H1755 C1768 0.960 . S
C1756 H1748 0.929 . S
C1756 C1757 1.377 . S
C1756 C1758 1.384 . S
C1757 C1756 1.377 . S
C1757 C1763 1.390 . S
C1758 H1749 0.930 . S
C1758 C1756 1.384 . S
C1758 C1759 1.372 . S
C1759 C1758 1.372 . S
C1759 C1760 1.400 . S
C1759 C1764 1.490 . S
C1760 H1750 0.930 . S
C1760 C1759 1.400 . S
C1760 C1763 1.386 . S
H1761 C1777 0.930 . S
H1762 C1778 0.931 . S
C1763 H1751 0.929 . S
C1763 C1757 1.390 . S
C1763 C1760 1.386 . S
C1764 C1759 1.490 . S
C1764 C1766 1.395 . S
C1764 C1767 1.403 . S
H1765 C1771 0.930 . S
C1766 H1752 0.930 . S
C1766 C1764 1.395 . S
C1766 C1769 1.403 . S
C1767 C1764 1.403 . S
C1767 C1768 1.524 . S
C1767 C1771 1.400 . S
C1768 H1753 0.960 . S
C1768 H1754 0.960 . S
C1768 H1755 0.960 . S
C1768 C1767 1.524 . S
C1769 C1766 1.403 . S
C1769 C1770 1.392 . S
C1769 C1773 1.495 . S
C1770 C1769 1.392 . S
C1770 C1771 1.385 . S
C1770 C1772 1.478 . S
C1771 H1765 0.930 . S
C1771 C1767 1.400 . S
C1771 C1770 1.385 . S
C1772 C1770 1.478 . S
C1772 C1774 1.381 . S
C1772 C1778 1.383 . S
C1773 C1769 1.495 . S
C1773 H1779 0.959 . S
C1773 H1780 0.961 . S
C1773 H1781 0.960 . S
C1774 C1772 1.381 . S
C1774 C1775 1.394 . S
C1774 H1782 0.930 . S
C1775 C1774 1.394 . S
C1775 C1776 1.383 . S
C1775 H1783 0.929 . S
C1776 C1775 1.383 . S
C1776 C1777 1.377 . S
C1777 H1761 0.930 . S
C1777 C1776 1.377 . S
C1777 C1778 1.379 . S
C1778 H1762 0.931 . S
C1778 C1772 1.383 . S
C1778 C1777 1.379 . S
H1779 C1773 0.959 . S
H1780 C1773 0.961 . S
H1781 C1773 0.960 . S
H1782 C1774 0.930 . S
H1783 C1775 0.929 . S
H1784 C1792 0.929 . S
H1785 C1794 0.930 . S
H1786 C1796 0.930 . S
H1787 C1799 0.929 . S
H1788 C1802 0.930 . S
H1789 C1804 0.960 . S
H1790 C1804 0.960 . S
H1791 C1804 0.960 . S
C1792 H1784 0.929 . S
C1792 C1793 1.377 . S
C1792 C1794 1.384 . S
C1793 C1792 1.377 . S
C1793 C1799 1.390 . S
C1794 H1785 0.930 . S
C1794 C1792 1.384 . S
C1794 C1795 1.372 . S
C1795 C1794 1.372 . S
C1795 C1796 1.400 . S
C1795 C1800 1.490 . S
C1796 H1786 0.930 . S
C1796 C1795 1.400 . S
C1796 C1799 1.386 . S
H1797 C1813 0.930 . S
H1798 C1814 0.931 . S
C1799 H1787 0.929 . S
C1799 C1793 1.390 . S
C1799 C1796 1.386 . S
C1800 C1795 1.490 . S
C1800 C1802 1.395 . S
C1800 C1803 1.403 . S
H1801 C1807 0.930 . S
C1802 H1788 0.930 . S
C1802 C1800 1.395 . S
C1802 C1805 1.403 . S
C1803 C1800 1.403 . S
C1803 C1804 1.524 . S
C1803 C1807 1.400 . S
C1804 H1789 0.960 . S
C1804 H1790 0.960 . S
C1804 H1791 0.960 . S
C1804 C1803 1.524 . S
C1805 C1802 1.403 . S
C1805 C1806 1.392 . S
C1805 C1809 1.495 . S
C1806 C1805 1.392 . S
C1806 C1807 1.385 . S
C1806 C1808 1.478 . S
C1807 H1801 0.930 . S
C1807 C1803 1.400 . S
C1807 C1806 1.385 . S
C1808 C1806 1.478 . S
C1808 C1810 1.381 . S
C1808 C1814 1.383 . S
C1809 C1805 1.495 . S
C1809 H1815 0.959 . S
C1809 H1816 0.961 . S
C1809 H1817 0.960 . S
C1810 C1808 1.381 . S
C1810 C1811 1.394 . S
C1810 H1818 0.930 . S
C1811 C1810 1.394 . S
C1811 C1812 1.383 . S
C1811 H1819 0.929 . S
C1812 C1811 1.383 . S
C1812 C1813 1.377 . S
C1813 H1797 0.930 . S
C1813 C1812 1.377 . S
C1813 C1814 1.379 . S
C1814 H1798 0.931 . S
C1814 C1808 1.383 . S
C1814 C1813 1.379 . S
H1815 C1809 0.959 . S
H1816 C1809 0.961 . S
H1817 C1809 0.960 . S
H1818 C1810 0.930 . S
H1819 C1811 0.929 . S
H1820 C1828 0.929 . S
H1821 C1830 0.930 . S
H1822 C1832 0.930 . S
H1823 C1835 0.929 . S
H1824 C1838 0.930 . S
H1825 C1840 0.960 . S
H1826 C1840 0.960 . S
H1827 C1840 0.960 . S
C1828 H1820 0.929 . S
C1828 C1829 1.377 . S
C1828 C1830 1.384 . S
C1829 C1828 1.377 . S
C1829 C1835 1.390 . S
C1830 H1821 0.930 . S
C1830 C1828 1.384 . S
C1830 C1831 1.372 . S
C1831 C1830 1.372 . S
C1831 C1832 1.400 . S
C1831 C1836 1.490 . S
C1832 H1822 0.930 . S
C1832 C1831 1.400 . S
C1832 C1835 1.386 . S
H1833 C1849 0.930 . S
H1834 C1850 0.931 . S
C1835 H1823 0.929 . S
C1835 C1829 1.390 . S
C1835 C1832 1.386 . S
C1836 C1831 1.490 . S
C1836 C1838 1.395 . S
C1836 C1839 1.403 . S
H1837 C1843 0.930 . S
C1838 H1824 0.930 . S
C1838 C1836 1.395 . S
C1838 C1841 1.403 . S
C1839 C1836 1.403 . S
C1839 C1840 1.524 . S
C1839 C1843 1.400 . S
C1840 H1825 0.960 . S
C1840 H1826 0.960 . S
C1840 H1827 0.960 . S
C1840 C1839 1.524 . S
C1841 C1838 1.403 . S
C1841 C1842 1.392 . S
C1841 C1845 1.495 . S
C1842 C1841 1.392 . S
C1842 C1843 1.385 . S
C1842 C1844 1.478 . S
C1843 H1837 0.930 . S
C1843 C1839 1.400 . S
C1843 C1842 1.385 . S
C1844 C1842 1.478 . S
C1844 C1846 1.381 . S
C1844 C1850 1.383 . S
C1845 C1841 1.495 . S
C1845 H1851 0.959 . S
C1845 H1852 0.961 . S
C1845 H1853 0.960 . S
C1846 C1844 1.381 . S
C1846 C1847 1.394 . S
C1846 H1854 0.930 . S
C1847 C1846 1.394 . S
C1847 C1848 1.383 . S
C1847 H1855 0.929 . S
C1848 C1847 1.383 . S
C1848 C1849 1.377 . S
C1849 H1833 0.930 . S
C1849 C1848 1.377 . S
C1849 C1850 1.379 . S
C1850 H1834 0.931 . S
C1850 C1844 1.383 . S
C1850 C1849 1.379 . S
H1851 C1845 0.959 . S
H1852 C1845 0.961 . S
H1853 C1845 0.960 . S
H1854 C1846 0.930 . S
H1855 C1847 0.929 . S
H1856 C1864 0.929 . S
H1857 C1866 0.930 . S
H1858 C1868 0.930 . S
H1859 C1871 0.929 . S
H1860 C1874 0.930 . S
H1861 C1876 0.960 . S
H1862 C1876 0.960 . S
H1863 C1876 0.960 . S
C1864 H1856 0.929 . S
C1864 C1865 1.377 . S
C1864 C1866 1.384 . S
C1865 C1864 1.377 . S
C1865 C1871 1.390 . S
C1866 H1857 0.930 . S
C1866 C1864 1.384 . S
C1866 C1867 1.372 . S
C1867 C1866 1.372 . S
C1867 C1868 1.400 . S
C1867 C1872 1.490 . S
C1868 H1858 0.930 . S
C1868 C1867 1.400 . S
C1868 C1871 1.386 . S
H1869 C1885 0.930 . S
H1870 C1886 0.931 . S
C1871 H1859 0.929 . S
C1871 C1865 1.390 . S
C1871 C1868 1.386 . S
C1872 C1867 1.490 . S
C1872 C1874 1.395 . S
C1872 C1875 1.403 . S
H1873 C1879 0.930 . S
C1874 H1860 0.930 . S
C1874 C1872 1.395 . S
C1874 C1877 1.403 . S
C1875 C1872 1.403 . S
C1875 C1876 1.524 . S
C1875 C1879 1.400 . S
C1876 H1861 0.960 . S
C1876 H1862 0.960 . S
C1876 H1863 0.960 . S
C1876 C1875 1.524 . S
C1877 C1874 1.403 . S
C1877 C1878 1.392 . S
C1877 C1881 1.495 . S
C1878 C1877 1.392 . S
C1878 C1879 1.385 . S
C1878 C1880 1.478 . S
C1879 H1873 0.930 . S
C1879 C1875 1.400 . S
C1879 C1878 1.385 . S
C1880 C1878 1.478 . S
C1880 C1882 1.381 . S
C1880 C1886 1.383 . S
C1881 C1877 1.495 . S
C1881 H1887 0.959 . S
C1881 H1888 0.961 . S
C1881 H1889 0.960 . S
C1882 C1880 1.381 . S
C1882 C1883 1.394 . S
C1882 H1890 0.930 . S
C1883 C1882 1.394 . S
C1883 C1884 1.383 . S
C1883 H1891 0.929 . S
C1884 C1883 1.383 . S
C1884 C1885 1.377 . S
C1885 H1869 0.930 . S
C1885 C1884 1.377 . S
C1885 C1886 1.379 . S
C1886 H1870 0.931 . S
C1886 C1880 1.383 . S
C1886 C1885 1.379 . S
H1887 C1881 0.959 . S
H1888 C1881 0.961 . S
H1889 C1881 0.960 . S
H1890 C1882 0.930 . S
H1891 C1883 0.929 . S
H1892 C1900 0.929 . S
H1893 C1902 0.930 . S
H1894 C1904 0.930 . S
H1895 C1907 0.929 . S
H1896 C1910 0.930 . S
H1897 C1912 0.960 . S
H1898 C1912 0.960 . S
H1899 C1912 0.960 . S
C1900 H1892 0.929 . S
C1900 C1901 1.377 . S
C1900 C1902 1.384 . S
C1901 C1900 1.377 . S
C1901 C1907 1.390 . S
C1902 H1893 0.930 . S
C1902 C1900 1.384 . S
C1902 C1903 1.372 . S
C1903 C1902 1.372 . S
C1903 C1904 1.400 . S
C1903 C1908 1.490 . S
C1904 H1894 0.930 . S
C1904 C1903 1.400 . S
C1904 C1907 1.386 . S
H1905 C1921 0.930 . S
H1906 C1922 0.931 . S
C1907 H1895 0.929 . S
C1907 C1901 1.390 . S
C1907 C1904 1.386 . S
C1908 C1903 1.490 . S
C1908 C1910 1.395 . S
C1908 C1911 1.403 . S
H1909 C1915 0.930 . S
C1910 H1896 0.930 . S
C1910 C1908 1.395 . S
C1910 C1913 1.403 . S
C1911 C1908 1.403 . S
C1911 C1912 1.524 . S
C1911 C1915 1.400 . S
C1912 H1897 0.960 . S
C1912 H1898 0.960 . S
C1912 H1899 0.960 . S
C1912 C1911 1.524 . S
C1913 C1910 1.403 . S
C1913 C1914 1.392 . S
C1913 C1917 1.495 . S
C1914 C1913 1.392 . S
C1914 C1915 1.385 . S
C1914 C1916 1.478 . S
C1915 H1909 0.930 . S
C1915 C1911 1.400 . S
C1915 C1914 1.385 . S
C1916 C1914 1.478 . S
C1916 C1918 1.381 . S
C1916 C1922 1.383 . S
C1917 C1913 1.495 . S
C1917 H1923 0.959 . S
C1917 H1924 0.961 . S
C1917 H1925 0.960 . S
C1918 C1916 1.381 . S
C1918 C1919 1.394 . S
C1918 H1926 0.930 . S
C1919 C1918 1.394 . S
C1919 C1920 1.383 . S
C1919 H1927 0.929 . S
C1920 C1919 1.383 . S
C1920 C1921 1.377 . S
C1921 H1905 0.930 . S
C1921 C1920 1.377 . S
C1921 C1922 1.379 . S
C1922 H1906 0.931 . S
C1922 C1916 1.383 . S
C1922 C1921 1.379 . S
H1923 C1917 0.959 . S
H1924 C1917 0.961 . S
H1925 C1917 0.960 . S
H1926 C1918 0.930 . S
H1927 C1919 0.929 . S
H1928 C1936 0.929 . S
H1929 C1938 0.930 . S
H1930 C1940 0.930 . S
H1931 C1943 0.929 . S
H1932 C1946 0.930 . S
H1933 C1948 0.960 . S
H1934 C1948 0.960 . S
H1935 C1948 0.960 . S
C1936 H1928 0.929 . S
C1936 C1937 1.377 . S
C1936 C1938 1.384 . S
C1937 C1936 1.377 . S
C1937 C1943 1.390 . S
C1938 H1929 0.930 . S
C1938 C1936 1.384 . S
C1938 C1939 1.372 . S
C1939 C1938 1.372 . S
C1939 C1940 1.400 . S
C1939 C1944 1.490 . S
C1940 H1930 0.930 . S
C1940 C1939 1.400 . S
C1940 C1943 1.386 . S
H1941 C1957 0.930 . S
H1942 C1958 0.931 . S
C1943 H1931 0.929 . S
C1943 C1937 1.390 . S
C1943 C1940 1.386 . S
C1944 C1939 1.490 . S
C1944 C1946 1.395 . S
C1944 C1947 1.403 . S
H1945 C1951 0.930 . S
C1946 H1932 0.930 . S
C1946 C1944 1.395 . S
C1946 C1949 1.403 . S
C1947 C1944 1.403 . S
C1947 C1948 1.524 . S
C1947 C1951 1.400 . S
C1948 H1933 0.960 . S
C1948 H1934 0.960 . S
C1948 H1935 0.960 . S
C1948 C1947 1.524 . S
C1949 C1946 1.403 . S
C1949 C1950 1.392 . S
C1949 C1953 1.495 . S
C1950 C1949 1.392 . S
C1950 C1951 1.385 . S
C1950 C1952 1.478 . S
C1951 H1945 0.930 . S
C1951 C1947 1.400 . S
C1951 C1950 1.385 . S
C1952 C1950 1.478 . S
C1952 C1954 1.381 . S
C1952 C1958 1.383 . S
C1953 C1949 1.495 . S
C1953 H1959 0.959 . S
C1953 H1960 0.961 . S
C1953 H1961 0.960 . S
C1954 C1952 1.381 . S
C1954 C1955 1.394 . S
C1954 H1962 0.930 . S
C1955 C1954 1.394 . S
C1955 C1956 1.383 . S
C1955 H1963 0.929 . S
C1956 C1955 1.383 . S
C1956 C1957 1.377 . S
C1957 H1941 0.930 . S
C1957 C1956 1.377 . S
C1957 C1958 1.379 . S
C1958 H1942 0.931 . S
C1958 C1952 1.383 . S
C1958 C1957 1.379 . S
H1959 C1953 0.959 . S
H1960 C1953 0.961 . S
H1961 C1953 0.960 . S
H1962 C1954 0.930 . S
H1963 C1955 0.929 . S
H1964 C1972 0.929 . S
H1965 C1974 0.930 . S
H1966 C1976 0.930 . S
H1967 C1979 0.929 . S
H1968 C1982 0.930 . S
H1969 C1984 0.960 . S
H1970 C1984 0.960 . S
H1971 C1984 0.960 . S
C1972 H1964 0.929 . S
C1972 C1973 1.377 . S
C1972 C1974 1.384 . S
C1973 C1972 1.377 . S
C1973 C1979 1.390 . S
C1974 H1965 0.930 . S
C1974 C1972 1.384 . S
C1974 C1975 1.372 . S
C1975 C1974 1.372 . S
C1975 C1976 1.400 . S
C1975 C1980 1.490 . S
C1976 H1966 0.930 . S
C1976 C1975 1.400 . S
C1976 C1979 1.386 . S
H1977 C1993 0.930 . S
H1978 C1994 0.931 . S
C1979 H1967 0.929 . S
C1979 C1973 1.390 . S
C1979 C1976 1.386 . S
C1980 C1975 1.490 . S
C1980 C1982 1.395 . S
C1980 C1983 1.403 . S
H1981 C1987 0.930 . S
C1982 H1968 0.930 . S
C1982 C1980 1.395 . S
C1982 C1985 1.403 . S
C1983 C1980 1.403 . S
C1983 C1984 1.524 . S
C1983 C1987 1.400 . S
C1984 H1969 0.960 . S
C1984 H1970 0.960 . S
C1984 H1971 0.960 . S
C1984 C1983 1.524 . S
C1985 C1982 1.403 . S
C1985 C1986 1.392 . S
C1985 C1989 1.495 . S
C1986 C1985 1.392 . S
C1986 C1987 1.385 . S
C1986 C1988 1.478 . S
C1987 H1981 0.930 . S
C1987 C1983 1.400 . S
C1987 C1986 1.385 . S
C1988 C1986 1.478 . S
C1988 C1990 1.381 . S
C1988 C1994 1.383 . S
C1989 C1985 1.495 . S
C1989 H1995 0.959 . S
C1989 H1996 0.961 . S
C1989 H1997 0.960 . S
C1990 C1988 1.381 . S
C1990 C1991 1.394 . S
C1990 H1998 0.930 . S
C1991 C1990 1.394 . S
C1991 C1992 1.383 . S
C1991 H1999 0.929 . S
C1992 C1991 1.383 . S
C1992 C1993 1.377 . S
C1993 H1977 0.930 . S
C1993 C1992 1.377 . S
C1993 C1994 1.379 . S
C1994 H1978 0.931 . S
C1994 C1988 1.383 . S
C1994 C1993 1.379 . S
H1995 C1989 0.959 . S
H1996 C1989 0.961 . S
H1997 C1989 0.960 . S
H1998 C1990 0.930 . S
H1999 C1991 0.929 . S
H2000 C2008 0.929 . S
H2001 C2010 0.930 . S
H2002 C2012 0.930 . S
H2003 C2015 0.929 . S
H2004 C2018 0.930 . S
H2005 C2020 0.960 . S
H2006 C2020 0.960 . S
H2007 C2020 0.960 . S
C2008 H2000 0.929 . S
C2008 C2009 1.377 . S
C2008 C2010 1.384 . S
C2009 C2008 1.377 . S
C2009 C2015 1.390 . S
C2010 H2001 0.930 . S
C2010 C2008 1.384 . S
C2010 C2011 1.372 . S
C2011 C2010 1.372 . S
C2011 C2012 1.400 . S
C2011 C2016 1.490 . S
C2012 H2002 0.930 . S
C2012 C2011 1.400 . S
C2012 C2015 1.386 . S
H2013 C2029 0.930 . S
H2014 C2030 0.931 . S
C2015 H2003 0.929 . S
C2015 C2009 1.390 . S
C2015 C2012 1.386 . S
C2016 C2011 1.490 . S
C2016 C2018 1.395 . S
C2016 C2019 1.403 . S
H2017 C2023 0.930 . S
C2018 H2004 0.930 . S
C2018 C2016 1.395 . S
C2018 C2021 1.403 . S
C2019 C2016 1.403 . S
C2019 C2020 1.524 . S
C2019 C2023 1.400 . S
C2020 H2005 0.960 . S
C2020 H2006 0.960 . S
C2020 H2007 0.960 . S
C2020 C2019 1.524 . S
C2021 C2018 1.403 . S
C2021 C2022 1.392 . S
C2021 C2025 1.495 . S
C2022 C2021 1.392 . S
C2022 C2023 1.385 . S
C2022 C2024 1.478 . S
C2023 H2017 0.930 . S
C2023 C2019 1.400 . S
C2023 C2022 1.385 . S
C2024 C2022 1.478 . S
C2024 C2026 1.381 . S
C2024 C2030 1.383 . S
C2025 C2021 1.495 . S
C2025 H2031 0.959 . S
C2025 H2032 0.961 . S
C2025 H2033 0.960 . S
C2026 C2024 1.381 . S
C2026 C2027 1.394 . S
C2026 H2034 0.930 . S
C2027 C2026 1.394 . S
C2027 C2028 1.383 . S
C2027 H2035 0.929 . S
C2028 C2027 1.383 . S
C2028 C2029 1.377 . S
C2029 H2013 0.930 . S
C2029 C2028 1.377 . S
C2029 C2030 1.379 . S
C2030 H2014 0.931 . S
C2030 C2024 1.383 . S
C2030 C2029 1.379 . S
H2031 C2025 0.959 . S
H2032 C2025 0.961 . S
H2033 C2025 0.960 . S
H2034 C2026 0.930 . S
H2035 C2027 0.929 . S
H2036 C2044 0.929 . S
H2037 C2046 0.930 . S
H2038 C2048 0.930 . S
H2039 C2051 0.929 . S
H2040 C2054 0.930 . S
H2041 C2056 0.960 . S
H2042 C2056 0.960 . S
H2043 C2056 0.960 . S
C2044 H2036 0.929 . S
C2044 C2045 1.377 . S
C2044 C2046 1.384 . S
C2045 C2044 1.377 . S
C2045 C2051 1.390 . S
C2046 H2037 0.930 . S
C2046 C2044 1.384 . S
C2046 C2047 1.372 . S
C2047 C2046 1.372 . S
C2047 C2048 1.400 . S
C2047 C2052 1.490 . S
C2048 H2038 0.930 . S
C2048 C2047 1.400 . S
C2048 C2051 1.386 . S
H2049 C2065 0.930 . S
H2050 C2066 0.931 . S
C2051 H2039 0.929 . S
C2051 C2045 1.390 . S
C2051 C2048 1.386 . S
C2052 C2047 1.490 . S
C2052 C2054 1.395 . S
C2052 C2055 1.403 . S
H2053 C2059 0.930 . S
C2054 H2040 0.930 . S
C2054 C2052 1.395 . S
C2054 C2057 1.403 . S
C2055 C2052 1.403 . S
C2055 C2056 1.524 . S
C2055 C2059 1.400 . S
C2056 H2041 0.960 . S
C2056 H2042 0.960 . S
C2056 H2043 0.960 . S
C2056 C2055 1.524 . S
C2057 C2054 1.403 . S
C2057 C2058 1.392 . S
C2057 C2061 1.495 . S
C2058 C2057 1.392 . S
C2058 C2059 1.385 . S
C2058 C2060 1.478 . S
C2059 H2053 0.930 . S
C2059 C2055 1.400 . S
C2059 C2058 1.385 . S
C2060 C2058 1.478 . S
C2060 C2062 1.381 . S
C2060 C2066 1.383 . S
C2061 C2057 1.495 . S
C2061 H2067 0.959 . S
C2061 H2068 0.961 . S
C2061 H2069 0.960 . S
C2062 C2060 1.381 . S
C2062 C2063 1.394 . S
C2062 H2070 0.930 . S
C2063 C2062 1.394 . S
C2063 C2064 1.383 . S
C2063 H2071 0.929 . S
C2064 C2063 1.383 . S
C2064 C2065 1.377 . S
C2065 H2049 0.930 . S
C2065 C2064 1.377 . S
C2065 C2066 1.379 . S
C2066 H2050 0.931 . S
C2066 C2060 1.383 . S
C2066 C2065 1.379 . S
H2067 C2061 0.959 . S
H2068 C2061 0.961 . S
H2069 C2061 0.960 . S
H2070 C2062 0.930 . S
H2071 C2063 0.929 . S
H2072 C2080 0.929 . S
H2073 C2082 0.930 . S
H2074 C2084 0.930 . S
H2075 C2087 0.929 . S
H2076 C2090 0.930 . S
H2077 C2092 0.960 . S
H2078 C2092 0.960 . S
H2079 C2092 0.960 . S
C2080 H2072 0.929 . S
C2080 C2081 1.377 . S
C2080 C2082 1.384 . S
C2081 C2080 1.377 . S
C2081 C2087 1.390 . S
C2082 H2073 0.930 . S
C2082 C2080 1.384 . S
C2082 C2083 1.372 . S
C2083 C2082 1.372 . S
C2083 C2084 1.400 . S
C2083 C2088 1.490 . S
C2084 H2074 0.930 . S
C2084 C2083 1.400 . S
C2084 C2087 1.386 . S
H2085 C2101 0.930 . S
H2086 C2102 0.931 . S
C2087 H2075 0.929 . S
C2087 C2081 1.390 . S
C2087 C2084 1.386 . S
C2088 C2083 1.490 . S
C2088 C2090 1.395 . S
C2088 C2091 1.403 . S
H2089 C2095 0.930 . S
C2090 H2076 0.930 . S
C2090 C2088 1.395 . S
C2090 C2093 1.403 . S
C2091 C2088 1.403 . S
C2091 C2092 1.524 . S
C2091 C2095 1.400 . S
C2092 H2077 0.960 . S
C2092 H2078 0.960 . S
C2092 H2079 0.960 . S
C2092 C2091 1.524 . S
C2093 C2090 1.403 . S
C2093 C2094 1.392 . S
C2093 C2097 1.495 . S
C2094 C2093 1.392 . S
C2094 C2095 1.385 . S
C2094 C2096 1.478 . S
C2095 H2089 0.930 . S
C2095 C2091 1.400 . S
C2095 C2094 1.385 . S
C2096 C2094 1.478 . S
C2096 C2098 1.381 . S
C2096 C2102 1.383 . S
C2097 C2093 1.495 . S
C2097 H2103 0.959 . S
C2097 H2104 0.961 . S
C2097 H2105 0.960 . S
C2098 C2096 1.381 . S
C2098 C2099 1.394 . S
C2098 H2106 0.930 . S
C2099 C2098 1.394 . S
C2099 C2100 1.383 . S
C2099 H2107 0.929 . S
C2100 C2099 1.383 . S
C2100 C2101 1.377 . S
C2101 H2085 0.930 . S
C2101 C2100 1.377 . S
C2101 C2102 1.379 . S
C2102 H2086 0.931 . S
C2102 C2096 1.383 . S
C2102 C2101 1.379 . S
H2103 C2097 0.959 . S
H2104 C2097 0.961 . S
H2105 C2097 0.960 . S
H2106 C2098 0.930 . S
H2107 C2099 0.929 . S
H2108 C2116 0.929 . S
H2109 C2118 0.930 . S
H2110 C2120 0.930 . S
H2111 C2123 0.929 . S
H2112 C2126 0.930 . S
H2113 C2128 0.960 . S
H2114 C2128 0.960 . S
H2115 C2128 0.960 . S
C2116 H2108 0.929 . S
C2116 C2117 1.377 . S
C2116 C2118 1.384 . S
C2117 C2116 1.377 . S
C2117 C2123 1.390 . S
C2118 H2109 0.930 . S
C2118 C2116 1.384 . S
C2118 C2119 1.372 . S
C2119 C2118 1.372 . S
C2119 C2120 1.400 . S
C2119 C2124 1.490 . S
C2120 H2110 0.930 . S
C2120 C2119 1.400 . S
C2120 C2123 1.386 . S
H2121 C2137 0.930 . S
H2122 C2138 0.931 . S
C2123 H2111 0.929 . S
C2123 C2117 1.390 . S
C2123 C2120 1.386 . S
C2124 C2119 1.490 . S
C2124 C2126 1.395 . S
C2124 C2127 1.403 . S
H2125 C2131 0.930 . S
C2126 H2112 0.930 . S
C2126 C2124 1.395 . S
C2126 C2129 1.403 . S
C2127 C2124 1.403 . S
C2127 C2128 1.524 . S
C2127 C2131 1.400 . S
C2128 H2113 0.960 . S
C2128 H2114 0.960 . S
C2128 H2115 0.960 . S
C2128 C2127 1.524 . S
C2129 C2126 1.403 . S
C2129 C2130 1.392 . S
C2129 C2133 1.495 . S
C2130 C2129 1.392 . S
C2130 C2131 1.385 . S
C2130 C2132 1.478 . S
C2131 H2125 0.930 . S
C2131 C2127 1.400 . S
C2131 C2130 1.385 . S
C2132 C2130 1.478 . S
C2132 C2134 1.381 . S
C2132 C2138 1.383 . S
C2133 C2129 1.495 . S
C2133 H2139 0.959 . S
C2133 H2140 0.961 . S
C2133 H2141 0.960 . S
C2134 C2132 1.381 . S
C2134 C2135 1.394 . S
C2134 H2142 0.930 . S
C2135 C2134 1.394 . S
C2135 C2136 1.383 . S
C2135 H2143 0.929 . S
C2136 C2135 1.383 . S
C2136 C2137 1.377 . S
C2137 H2121 0.930 . S
C2137 C2136 1.377 . S
C2137 C2138 1.379 . S
C2138 H2122 0.931 . S
C2138 C2132 1.383 . S
C2138 C2137 1.379 . S
H2139 C2133 0.959 . S
H2140 C2133 0.961 . S
H2141 C2133 0.960 . S
H2142 C2134 0.930 . S
H2143 C2135 0.929 . S
H2144 C2152 0.929 . S
H2145 C2154 0.930 . S
H2146 C2156 0.930 . S
H2147 C2159 0.929 . S
H2148 C2162 0.930 . S
H2149 C2164 0.960 . S
H2150 C2164 0.960 . S
H2151 C2164 0.960 . S
C2152 H2144 0.929 . S
C2152 C2153 1.377 . S
C2152 C2154 1.384 . S
C2153 C2152 1.377 . S
C2153 C2159 1.390 . S
C2154 H2145 0.930 . S
C2154 C2152 1.384 . S
C2154 C2155 1.372 . S
C2155 C2154 1.372 . S
C2155 C2156 1.400 . S
C2155 C2160 1.490 . S
C2156 H2146 0.930 . S
C2156 C2155 1.400 . S
C2156 C2159 1.386 . S
H2157 C2173 0.930 . S
H2158 C2174 0.931 . S
C2159 H2147 0.929 . S
C2159 C2153 1.390 . S
C2159 C2156 1.386 . S
C2160 C2155 1.490 . S
C2160 C2162 1.395 . S
C2160 C2163 1.403 . S
H2161 C2167 0.930 . S
C2162 H2148 0.930 . S
C2162 C2160 1.395 . S
C2162 C2165 1.403 . S
C2163 C2160 1.403 . S
C2163 C2164 1.524 . S
C2163 C2167 1.400 . S
C2164 H2149 0.960 . S
C2164 H2150 0.960 . S
C2164 H2151 0.960 . S
C2164 C2163 1.524 . S
C2165 C2162 1.403 . S
C2165 C2166 1.392 . S
C2165 C2169 1.495 . S
C2166 C2165 1.392 . S
C2166 C2167 1.385 . S
C2166 C2168 1.478 . S
C2167 H2161 0.930 . S
C2167 C2163 1.400 . S
C2167 C2166 1.385 . S
C2168 C2166 1.478 . S
C2168 C2170 1.381 . S
C2168 C2174 1.383 . S
C2169 C2165 1.495 . S
C2169 H2175 0.959 . S
C2169 H2176 0.961 . S
C2169 H2177 0.960 . S
C2170 C2168 1.381 . S
C2170 C2171 1.394 . S
C2170 H2178 0.930 . S
C2171 C2170 1.394 . S
C2171 C2172 1.383 . S
C2171 H2179 0.929 . S
C2172 C2171 1.383 . S
C2172 C2173 1.377 . S
C2173 H2157 0.930 . S
C2173 C2172 1.377 . S
C2173 C2174 1.379 . S
C2174 H2158 0.931 . S
C2174 C2168 1.383 . S
C2174 C2173 1.379 . S
H2175 C2169 0.959 . S
H2176 C2169 0.961 . S
H2177 C2169 0.960 . S
H2178 C2170 0.930 . S
H2179 C2171 0.929 . S
H2180 C2188 0.929 . S
H2181 C2190 0.930 . S
H2182 C2192 0.930 . S
H2183 C2195 0.929 . S
H2184 C2198 0.930 . S
H2185 C2200 0.960 . S
H2186 C2200 0.960 . S
H2187 C2200 0.960 . S
C2188 H2180 0.929 . S
C2188 C2189 1.377 . S
C2188 C2190 1.384 . S
C2189 C2188 1.377 . S
C2189 C2195 1.390 . S
C2190 H2181 0.930 . S
C2190 C2188 1.384 . S
C2190 C2191 1.372 . S
C2191 C2190 1.372 . S
C2191 C2192 1.400 . S
C2191 C2196 1.490 . S
C2192 H2182 0.930 . S
C2192 C2191 1.400 . S
C2192 C2195 1.386 . S
H2193 C2209 0.930 . S
H2194 C2210 0.931 . S
C2195 H2183 0.929 . S
C2195 C2189 1.390 . S
C2195 C2192 1.386 . S
C2196 C2191 1.490 . S
C2196 C2198 1.395 . S
C2196 C2199 1.403 . S
H2197 C2203 0.930 . S
C2198 H2184 0.930 . S
C2198 C2196 1.395 . S
C2198 C2201 1.403 . S
C2199 C2196 1.403 . S
C2199 C2200 1.524 . S
C2199 C2203 1.400 . S
C2200 H2185 0.960 . S
C2200 H2186 0.960 . S
C2200 H2187 0.960 . S
C2200 C2199 1.524 . S
C2201 C2198 1.403 . S
C2201 C2202 1.392 . S
C2201 C2205 1.495 . S
C2202 C2201 1.392 . S
C2202 C2203 1.385 . S
C2202 C2204 1.478 . S
C2203 H2197 0.930 . S
C2203 C2199 1.400 . S
C2203 C2202 1.385 . S
C2204 C2202 1.478 . S
C2204 C2206 1.381 . S
C2204 C2210 1.383 . S
C2205 C2201 1.495 . S
C2205 H2211 0.959 . S
C2205 H2212 0.961 . S
C2205 H2213 0.960 . S
C2206 C2204 1.381 . S
C2206 C2207 1.394 . S
C2206 H2214 0.930 . S
C2207 C2206 1.394 . S
C2207 C2208 1.383 . S
C2207 H2215 0.929 . S
C2208 C2207 1.383 . S
C2208 C2209 1.377 . S
C2209 H2193 0.930 . S
C2209 C2208 1.377 . S
C2209 C2210 1.379 . S
C2210 H2194 0.931 . S
C2210 C2204 1.383 . S
C2210 C2209 1.379 . S
H2211 C2205 0.959 . S
H2212 C2205 0.961 . S
H2213 C2205 0.960 . S
H2214 C2206 0.930 . S
H2215 C2207 0.929 . S
H2216 C2224 0.929 . S
H2217 C2226 0.930 . S
H2218 C2228 0.930 . S
H2219 C2231 0.929 . S
H2220 C2234 0.930 . S
H2221 C2236 0.960 . S
H2222 C2236 0.960 . S
H2223 C2236 0.960 . S
C2224 H2216 0.929 . S
C2224 C2225 1.377 . S
C2224 C2226 1.384 . S
C2225 C2224 1.377 . S
C2225 C2231 1.390 . S
C2226 H2217 0.930 . S
C2226 C2224 1.384 . S
C2226 C2227 1.372 . S
C2227 C2226 1.372 . S
C2227 C2228 1.400 . S
C2227 C2232 1.490 . S
C2228 H2218 0.930 . S
C2228 C2227 1.400 . S
C2228 C2231 1.386 . S
H2229 C2245 0.930 . S
H2230 C2246 0.931 . S
C2231 H2219 0.929 . S
C2231 C2225 1.390 . S
C2231 C2228 1.386 . S
C2232 C2227 1.490 . S
C2232 C2234 1.395 . S
C2232 C2235 1.403 . S
H2233 C2239 0.930 . S
C2234 H2220 0.930 . S
C2234 C2232 1.395 . S
C2234 C2237 1.403 . S
C2235 C2232 1.403 . S
C2235 C2236 1.524 . S
C2235 C2239 1.400 . S
C2236 H2221 0.960 . S
C2236 H2222 0.960 . S
C2236 H2223 0.960 . S
C2236 C2235 1.524 . S
C2237 C2234 1.403 . S
C2237 C2238 1.392 . S
C2237 C2241 1.495 . S
C2238 C2237 1.392 . S
C2238 C2239 1.385 . S
C2238 C2240 1.478 . S
C2239 H2233 0.930 . S
C2239 C2235 1.400 . S
C2239 C2238 1.385 . S
C2240 C2238 1.478 . S
C2240 C2242 1.381 . S
C2240 C2246 1.383 . S
C2241 C2237 1.495 . S
C2241 H2247 0.959 . S
C2241 H2248 0.961 . S
C2241 H2249 0.960 . S
C2242 C2240 1.381 . S
C2242 C2243 1.394 . S
C2242 H2250 0.930 . S
C2243 C2242 1.394 . S
C2243 C2244 1.383 . S
C2243 H2251 0.929 . S
C2244 C2243 1.383 . S
C2244 C2245 1.377 . S
C2245 H2229 0.930 . S
C2245 C2244 1.377 . S
C2245 C2246 1.379 . S
C2246 H2230 0.931 . S
C2246 C2240 1.383 . S
C2246 C2245 1.379 . S
H2247 C2241 0.959 . S
H2248 C2241 0.961 . S
H2249 C2241 0.960 . S
H2250 C2242 0.930 . S
H2251 C2243 0.929 . S
H2252 C2260 0.929 . S
H2253 C2262 0.930 . S
H2254 C2264 0.930 . S
H2255 C2267 0.929 . S
H2256 C2270 0.930 . S
H2257 C2272 0.960 . S
H2258 C2272 0.960 . S
H2259 C2272 0.960 . S
C2260 H2252 0.929 . S
C2260 C2261 1.377 . S
C2260 C2262 1.384 . S
C2261 C2260 1.377 . S
C2261 C2267 1.390 . S
C2262 H2253 0.930 . S
C2262 C2260 1.384 . S
C2262 C2263 1.372 . S
C2263 C2262 1.372 . S
C2263 C2264 1.400 . S
C2263 C2268 1.490 . S
C2264 H2254 0.930 . S
C2264 C2263 1.400 . S
C2264 C2267 1.386 . S
H2265 C2281 0.930 . S
H2266 C2282 0.931 . S
C2267 H2255 0.929 . S
C2267 C2261 1.390 . S
C2267 C2264 1.386 . S
C2268 C2263 1.490 . S
C2268 C2270 1.395 . S
C2268 C2271 1.403 . S
H2269 C2275 0.930 . S
C2270 H2256 0.930 . S
C2270 C2268 1.395 . S
C2270 C2273 1.403 . S
C2271 C2268 1.403 . S
C2271 C2272 1.524 . S
C2271 C2275 1.400 . S
C2272 H2257 0.960 . S
C2272 H2258 0.960 . S
C2272 H2259 0.960 . S
C2272 C2271 1.524 . S
C2273 C2270 1.403 . S
C2273 C2274 1.392 . S
C2273 C2277 1.495 . S
C2274 C2273 1.392 . S
C2274 C2275 1.385 . S
C2274 C2276 1.478 . S
C2275 H2269 0.930 . S
C2275 C2271 1.400 . S
C2275 C2274 1.385 . S
C2276 C2274 1.478 . S
C2276 C2278 1.381 . S
C2276 C2282 1.383 . S
C2277 C2273 1.495 . S
C2277 H2283 0.959 . S
C2277 H2284 0.961 . S
C2277 H2285 0.960 . S
C2278 C2276 1.381 . S
C2278 C2279 1.394 . S
C2278 H2286 0.930 . S
C2279 C2278 1.394 . S
C2279 C2280 1.383 . S
C2279 H2287 0.929 . S
C2280 C2279 1.383 . S
C2280 C2281 1.377 . S
C2281 H2265 0.930 . S
C2281 C2280 1.377 . S
C2281 C2282 1.379 . S
C2282 H2266 0.931 . S
C2282 C2276 1.383 . S
C2282 C2281 1.379 . S
H2283 C2277 0.959 . S
H2284 C2277 0.961 . S
H2285 C2277 0.960 . S
H2286 C2278 0.930 . S
H2287 C2279 0.929 . S
H2288 C2296 0.929 . S
H2289 C2298 0.930 . S
H2290 C2300 0.930 . S
H2291 C2303 0.929 . S
H2292 C2306 0.930 . S
H2293 C2308 0.960 . S
H2294 C2308 0.960 . S
H2295 C2308 0.960 . S
C2296 H2288 0.929 . S
C2296 C2297 1.377 . S
C2296 C2298 1.384 . S
C2297 C2296 1.377 . S
C2297 C2303 1.390 . S
C2298 H2289 0.930 . S
C2298 C2296 1.384 . S
C2298 C2299 1.372 . S
C2299 C2298 1.372 . S
C2299 C2300 1.400 . S
C2299 C2304 1.490 . S
C2300 H2290 0.930 . S
C2300 C2299 1.400 . S
C2300 C2303 1.386 . S
H2301 C2317 0.930 . S
H2302 C2318 0.931 . S
C2303 H2291 0.929 . S
C2303 C2297 1.390 . S
C2303 C2300 1.386 . S
C2304 C2299 1.490 . S
C2304 C2306 1.395 . S
C2304 C2307 1.403 . S
H2305 C2311 0.930 . S
C2306 H2292 0.930 . S
C2306 C2304 1.395 . S
C2306 C2309 1.403 . S
C2307 C2304 1.403 . S
C2307 C2308 1.524 . S
C2307 C2311 1.400 . S
C2308 H2293 0.960 . S
C2308 H2294 0.960 . S
C2308 H2295 0.960 . S
C2308 C2307 1.524 . S
C2309 C2306 1.403 . S
C2309 C2310 1.392 . S
C2309 C2313 1.495 . S
C2310 C2309 1.392 . S
C2310 C2311 1.385 . S
C2310 C2312 1.478 . S
C2311 H2305 0.930 . S
C2311 C2307 1.400 . S
C2311 C2310 1.385 . S
C2312 C2310 1.478 . S
C2312 C2314 1.381 . S
C2312 C2318 1.383 . S
C2313 C2309 1.495 . S
C2313 H2319 0.959 . S
C2313 H2320 0.961 . S
C2313 H2321 0.960 . S
C2314 C2312 1.381 . S
C2314 C2315 1.394 . S
C2314 H2322 0.930 . S
C2315 C2314 1.394 . S
C2315 C2316 1.383 . S
C2315 H2323 0.929 . S
C2316 C2315 1.383 . S
C2316 C2317 1.377 . S
C2317 H2301 0.930 . S
C2317 C2316 1.377 . S
C2317 C2318 1.379 . S
C2318 H2302 0.931 . S
C2318 C2312 1.383 . S
C2318 C2317 1.379 . S
H2319 C2313 0.959 . S
H2320 C2313 0.961 . S
H2321 C2313 0.960 . S
H2322 C2314 0.930 . S
H2323 C2315 0.929 . S
C624 C293 1.451 . S
C605 N2 1.451 . S
C660 C339 2.062 . S
C641 C7 2.065 1_655 S
C696 C382 1.501 . S
C677 N12 1.417 1_655 S
C713 C16 2.564 . S
C732 C419 2.606 . S
C768 C438 2.104 . S
C749 C30 2.121 . S
C804 C493 1.349 . S
C785 N35 1.307 . S
C821 C39 2.696 1_655 S
C840 C518 2.671 . S
C876 C582 1.306 . S
C857 N25 1.225 1_655 S
C912 C278 1.484 . S
C893 N58 1.465 . S
C929 N81 1.221 . S
C948 C342 1.254 . S
C984 C369 1.313 . S
C965 N104 1.263 . S
C1001 N127 1.290 . S
C1020 C422 1.319 . S
C1056 C460 1.034 . S
C1037 N48 1.000 . S
C1092 C478 1.801 . S
C1073 N71 1.791 . S
C1109 N94 1.102 . S
C1128 C540 1.145 . S
C1164 C569 1.627 . S
C1145 N117 1.598 . S
C1181 C85 1.931 . S
C1200 C300 1.967 . S
C1217 C122 1.498 . S
C1236 C453 1.483 . S
C1253 C53 1.892 . S
C1272 C500 1.904 . S
C1308 C533 1.590 . S
C1289 C76 1.606 . S
C1344 C579 2.112 . S
C1325 C99 2.145 . S
C1380 C379 2.162 . S
C1361 C131 2.149 . S
C1416 C409 1.593 . S
C1397 C62 1.588 . S
C1433 C108 1.450 . S
C1452 C329 1.441 . S
C1488 C573 1.563 . S
C1469 N140 1.538 . S
C1505 C145 2.056 . S
C1524 C459 2.055 . S
C1560 C502 1.411 . S
C1541 N150 1.330 . S
C1577 C154 2.559 . S
C1596 C539 2.590 . S
C1632 C318 2.092 . S
C1613 C168 2.107 . S
C1649 N173 1.238 . S
C1668 C373 1.262 . S
C1704 C398 2.667 . S
C1685 C177 2.694 . S
C1740 C302 1.383 . S
C1721 N163 1.290 . S
C1776 C558 1.948 . S
C1757 C200 1.960 . S
C1812 C462 1.499 . S
C1793 N219 1.478 . S
C1829 N242 1.527 . S
C1848 C489 1.573 . S
C1884 C542 1.617 . S
C1865 C269 1.651 . S
C1920 C340 1.335 . S
C1901 C191 1.358 . S
C1937 N209 2.058 . S
C1956 C358 2.050 . S
C1973 N232 1.420 . S
C1992 C420 1.464 . S
C2009 C260 2.055 . S
C2028 C289 2.072 . S
C2045 C223 1.625 . S
C2064 C580 1.658 . S
C2081 N255 1.144 . S
C2100 C333 1.184 . S
C2117 N186 1.433 . S
C2136 C380 1.462 . S
C2172 C413 1.298 . S
C2153 C214 1.305 . S
C2208 C299 1.867 . S
C2189 C237 1.870 . S
C2244 C499 1.702 . S
C2225 N265 1.664 . S
C2280 C529 1.248 . S
C2261 N196 1.200 . S
C2316 C449 1.104 . S
C2297 C246 1.118 . S
