# Generated by pormake.
# Topology eea, (3,6)-cn, num edge types: 1
# Building blocks:
#     Node 0, Type 0, BuildingBlock: WUSLED_clean_sbu_0, # of connection points: 3
#     Node 1, Type 0, BuildingBlock: WUSLED_clean_sbu_0, # of connection points: 3
#     Node 2, Type 0, BuildingBlock: WUSLED_clean_sbu_0, # of connection points: 3
#     Node 3, Type 0, BuildingBlock: WUSLED_clean_sbu_0, # of connection points: 3
#     Node 4, Type 0, BuildingBlock: WUSLED_clean_sbu_0, # of connection points: 3
#     Node 5, Type 0, BuildingBlock: WUSLED_clean_sbu_0, # of connection points: 3
#     Node 6, Type 0, BuildingBlock: WUSLED_clean_sbu_0, # of connection points: 3
#     Node 7, Type 0, BuildingBlock: WUSLED_clean_sbu_0, # of connection points: 3
#     Node 8, Type 0, BuildingBlock: WUSLED_clean_sbu_0, # of connection points: 3
#     Node 9, Type 0, BuildingBlock: WUSLED_clean_sbu_0, # of connection points: 3
#     Node 10, Type 0, BuildingBlock: WUSLED_clean_sbu_0, # of connection points: 3
#     Node 11, Type 0, BuildingBlock: WUSLED_clean_sbu_0, # of connection points: 3
#     Node 12, Type 0, BuildingBlock: WUSLED_clean_sbu_0, # of connection points: 3
#     Node 13, Type 0, BuildingBlock: WUSLED_clean_sbu_0, # of connection points: 3
#     Node 14, Type 0, BuildingBlock: WUSLED_clean_sbu_0, # of connection points: 3
#     Node 15, Type 0, BuildingBlock: WUSLED_clean_sbu_0, # of connection points: 3
#     Node 16, Type 0, BuildingBlock: WUSLED_clean_sbu_0, # of connection points: 3
#     Node 17, Type 0, BuildingBlock: WUSLED_clean_sbu_0, # of connection points: 3
#     Node 18, Type 1, BuildingBlock: NUHQIS_clean_sbu_0, # of connection points: 6
#     Node 19, Type 1, BuildingBlock: NUHQIS_clean_sbu_0, # of connection points: 6
#     Node 20, Type 1, BuildingBlock: NUHQIS_clean_sbu_0, # of connection points: 6
#     Node 21, Type 1, BuildingBlock: NUHQIS_clean_sbu_0, # of connection points: 6
#     Node 22, Type 1, BuildingBlock: NUHQIS_clean_sbu_0, # of connection points: 6
#     Node 23, Type 1, BuildingBlock: NUHQIS_clean_sbu_0, # of connection points: 6
#     Node 24, Type 1, BuildingBlock: NUHQIS_clean_sbu_0, # of connection points: 6
#     Node 25, Type 1, BuildingBlock: NUHQIS_clean_sbu_0, # of connection points: 6
#     Node 26, Type 1, BuildingBlock: NUHQIS_clean_sbu_0, # of connection points: 6
#     Edge 27, Type (0, 1), BuildingBlock: TEMPAE_clean_linker_10, # of connection points: 2
#     Edge 28, Type (0, 1), BuildingBlock: TEMPAE_clean_linker_10, # of connection points: 2
#     Edge 29, Type (0, 1), BuildingBlock: TEMPAE_clean_linker_10, # of connection points: 2
#     Edge 30, Type (0, 1), BuildingBlock: TEMPAE_clean_linker_10, # of connection points: 2
#     Edge 31, Type (0, 1), BuildingBlock: TEMPAE_clean_linker_10, # of connection points: 2
#     Edge 32, Type (0, 1), BuildingBlock: TEMPAE_clean_linker_10, # of connection points: 2
#     Edge 33, Type (0, 1), BuildingBlock: TEMPAE_clean_linker_10, # of connection points: 2
#     Edge 34, Type (0, 1), BuildingBlock: TEMPAE_clean_linker_10, # of connection points: 2
#     Edge 35, Type (0, 1), BuildingBlock: TEMPAE_clean_linker_10, # of connection points: 2
#     Edge 36, Type (0, 1), BuildingBlock: TEMPAE_clean_linker_10, # of connection points: 2
#     Edge 37, Type (0, 1), BuildingBlock: TEMPAE_clean_linker_10, # of connection points: 2
#     Edge 38, Type (0, 1), BuildingBlock: TEMPAE_clean_linker_10, # of connection points: 2
#     Edge 39, Type (0, 1), BuildingBlock: TEMPAE_clean_linker_10, # of connection points: 2
#     Edge 40, Type (0, 1), BuildingBlock: TEMPAE_clean_linker_10, # of connection points: 2
#     Edge 41, Type (0, 1), BuildingBlock: TEMPAE_clean_linker_10, # of connection points: 2
#     Edge 42, Type (0, 1), BuildingBlock: TEMPAE_clean_linker_10, # of connection points: 2
#     Edge 43, Type (0, 1), BuildingBlock: TEMPAE_clean_linker_10, # of connection points: 2
#     Edge 44, Type (0, 1), BuildingBlock: TEMPAE_clean_linker_10, # of connection points: 2
#     Edge 45, Type (0, 1), BuildingBlock: TEMPAE_clean_linker_10, # of connection points: 2
#     Edge 46, Type (0, 1), BuildingBlock: TEMPAE_clean_linker_10, # of connection points: 2
#     Edge 47, Type (0, 1), BuildingBlock: TEMPAE_clean_linker_10, # of connection points: 2
#     Edge 48, Type (0, 1), BuildingBlock: TEMPAE_clean_linker_10, # of connection points: 2
#     Edge 49, Type (0, 1), BuildingBlock: TEMPAE_clean_linker_10, # of connection points: 2
#     Edge 50, Type (0, 1), BuildingBlock: TEMPAE_clean_linker_10, # of connection points: 2
#     Edge 51, Type (0, 1), BuildingBlock: TEMPAE_clean_linker_10, # of connection points: 2
#     Edge 52, Type (0, 1), BuildingBlock: TEMPAE_clean_linker_10, # of connection points: 2
#     Edge 53, Type (0, 1), BuildingBlock: TEMPAE_clean_linker_10, # of connection points: 2
#     Edge 54, Type (0, 1), BuildingBlock: TEMPAE_clean_linker_10, # of connection points: 2
#     Edge 55, Type (0, 1), BuildingBlock: TEMPAE_clean_linker_10, # of connection points: 2
#     Edge 56, Type (0, 1), BuildingBlock: TEMPAE_clean_linker_10, # of connection points: 2
#     Edge 57, Type (0, 1), BuildingBlock: TEMPAE_clean_linker_10, # of connection points: 2
#     Edge 58, Type (0, 1), BuildingBlock: TEMPAE_clean_linker_10, # of connection points: 2
#     Edge 59, Type (0, 1), BuildingBlock: TEMPAE_clean_linker_10, # of connection points: 2
#     Edge 60, Type (0, 1), BuildingBlock: TEMPAE_clean_linker_10, # of connection points: 2
#     Edge 61, Type (0, 1), BuildingBlock: TEMPAE_clean_linker_10, # of connection points: 2
#     Edge 62, Type (0, 1), BuildingBlock: TEMPAE_clean_linker_10, # of connection points: 2
#     Edge 63, Type (0, 1), BuildingBlock: TEMPAE_clean_linker_10, # of connection points: 2
#     Edge 64, Type (0, 1), BuildingBlock: TEMPAE_clean_linker_10, # of connection points: 2
#     Edge 65, Type (0, 1), BuildingBlock: TEMPAE_clean_linker_10, # of connection points: 2
#     Edge 66, Type (0, 1), BuildingBlock: TEMPAE_clean_linker_10, # of connection points: 2
#     Edge 67, Type (0, 1), BuildingBlock: TEMPAE_clean_linker_10, # of connection points: 2
#     Edge 68, Type (0, 1), BuildingBlock: TEMPAE_clean_linker_10, # of connection points: 2
#     Edge 69, Type (0, 1), BuildingBlock: TEMPAE_clean_linker_10, # of connection points: 2
#     Edge 70, Type (0, 1), BuildingBlock: TEMPAE_clean_linker_10, # of connection points: 2
#     Edge 71, Type (0, 1), BuildingBlock: TEMPAE_clean_linker_10, # of connection points: 2
#     Edge 72, Type (0, 1), BuildingBlock: TEMPAE_clean_linker_10, # of connection points: 2
#     Edge 73, Type (0, 1), BuildingBlock: TEMPAE_clean_linker_10, # of connection points: 2
#     Edge 74, Type (0, 1), BuildingBlock: TEMPAE_clean_linker_10, # of connection points: 2
#     Edge 75, Type (0, 1), BuildingBlock: TEMPAE_clean_linker_10, # of connection points: 2
#     Edge 76, Type (0, 1), BuildingBlock: TEMPAE_clean_linker_10, # of connection points: 2
#     Edge 77, Type (0, 1), BuildingBlock: TEMPAE_clean_linker_10, # of connection points: 2
#     Edge 78, Type (0, 1), BuildingBlock: TEMPAE_clean_linker_10, # of connection points: 2
#     Edge 79, Type (0, 1), BuildingBlock: TEMPAE_clean_linker_10, # of connection points: 2
#     Edge 80, Type (0, 1), BuildingBlock: TEMPAE_clean_linker_10, # of connection points: 2
# Relax obj value: 0.035
# Max RMSD: 0.128
# Mean RMSD: 0.075
data_MOF--net-eea--node1-WUSLED_clean_sbu_0--node2-NUHQIS_clean_sbu_0--edge1-TEMPAE_clean_linker_10
_symmetry_space_group_name_H-M    P1
_symmetry_Int_Tables_number       1
_symmetry_cell_setting            triclinic
loop_
_symmetry_equiv_pos_as_xyz
'x, y, z'
_cell_length_a     67.247836
_cell_length_b     68.14285
_cell_length_c     94.294556
_cell_angle_alpha  92.937095
_cell_angle_beta   93.051775
_cell_angle_gamma 119.84314
loop_
_atom_site_label
_atom_site_type_symbol
_atom_site_fract_x
_atom_site_fract_y
_atom_site_fract_z
_atom_type_partial_charge
C0 C 0.23338 0.15467 0.40263 0.0
C1 C 0.23331 0.17154 0.41176 0.0
C2 C 0.22528 0.18781 0.39133 0.0
C3 C 0.22923 0.18795 0.40616 0.0
C4 C 0.22561 0.17097 0.38224 0.0
C5 C 0.22959 0.15451 0.38786 0.0
U6 U 0.25179 0.13107 0.43325 0.0
O7 O 0.23634 0.09619 0.43949 0.0
O8 O 0.27168 0.1134 0.43324 0.0
C9 C 0.2542 0.09429 0.43648 0.0
C10 C 0.23725 0.1371 0.40836 0.0
C11 C 0.24887 0.07403 0.42718 0.0
C12 C 0.23149 0.04986 0.40507 0.0
C13 C 0.23689 0.0695 0.41368 0.0
C14 C 0.25037 0.03935 0.42329 0.0
C15 C 0.23811 0.03452 0.40981 0.0
C16 C 0.25568 0.05893 0.4319 0.0
C17 C 0.2723 0.16301 0.47003 0.0
C18 C 0.27548 0.14506 0.49097 0.0
C19 C 0.29394 0.18609 0.49185 0.0
C20 C 0.28566 0.18436 0.47765 0.0
C21 C 0.28888 0.16645 0.49868 0.0
C22 C 0.26736 0.14336 0.47675 0.0
C23 C 0.26391 0.16144 0.45505 0.0
O24 O 0.25887 0.14329 0.41192 0.0
O25 O 0.22337 0.12547 0.41786 0.0
O26 O 0.24248 0.14543 0.4514 0.0
O27 O 0.27811 0.1626 0.44564 0.0
H28 H 0.23636 0.17197 0.4232 0.0
H29 H 0.22938 0.20088 0.41341 0.0
H30 H 0.22241 0.17029 0.3708 0.0
H31 H 0.22958 0.14158 0.38068 0.0
H32 H 0.22223 0.04671 0.39468 0.0
H33 H 0.23162 0.0811 0.40985 0.0
H34 H 0.25545 0.02773 0.42732 0.0
H35 H 0.26493 0.0622 0.44231 0.0
H36 H 0.27155 0.12966 0.49589 0.0
H37 H 0.30408 0.20277 0.49755 0.0
H38 H 0.28969 0.1997 0.47261 0.0
H39 H 0.25727 0.12672 0.47098 0.0
C40 C 0.95325 0.16291 0.41002 0.0
C41 C 0.95293 0.18029 0.40275 0.0
C42 C 0.99275 0.19487 0.39738 0.0
C43 C 0.97246 0.19613 0.39656 0.0
C44 C 0.99314 0.17768 0.40483 0.0
C45 C 0.97365 0.16187 0.411 0.0
U46 U 0.90846 0.13564 0.43785 0.0
O47 O 0.87081 0.11428 0.43427 0.0
O48 O 0.89121 0.10028 0.44355 0.0
C49 C 0.87076 0.09621 0.43858 0.0
C50 C 0.93195 0.14459 0.41528 0.0
C51 C 0.85663 0.07481 0.42948 0.0
C52 C 0.84139 0.05347 0.40623 0.0
C53 C 0.8558 0.07399 0.41454 0.0
C54 C 0.8289 0.03437 0.42772 0.0
C55 C 0.8277 0.03342 0.41274 0.0
C56 C 0.8432 0.05485 0.43598 0.0
C57 C 0.91374 0.16604 0.47425 0.0
C58 C 0.89418 0.14715 0.49466 0.0
C59 C 0.91 0.1877 0.49421 0.0
C60 C 0.9177 0.18675 0.48082 0.0
C61 C 0.89824 0.16793 0.50137 0.0
C62 C 0.90176 0.1462 0.48122 0.0
C63 C 0.9222 0.16549 0.46017 0.0
O64 O 0.93469 0.13387 0.42575 0.0
O65 O 0.91473 0.14837 0.41658 0.0
O66 O 0.90927 0.16523 0.44913 0.0
O67 O 0.92995 0.15134 0.45809 0.0
H68 H 0.93742 0.1814 0.40154 0.0
H69 H 0.97143 0.20896 0.39077 0.0
H70 H 1.00854 0.17636 0.40586 0.0
H71 H 0.97446 0.14855 0.41634 0.0
H72 H 0.84103 0.05326 0.39473 0.0
H73 H 0.86613 0.08921 0.40931 0.0
H74 H 0.81838 0.01936 0.43308 0.0
H75 H 0.84355 0.05515 0.4475 0.0
H76 H 0.88545 0.13162 0.49988 0.0
H77 H 0.91309 0.20393 0.49888 0.0
H78 H 0.92675 0.20223 0.47558 0.0
H79 H 0.89839 0.12998 0.47633 0.0
C80 C 0.87323 0.79728 0.41356 0.0
C81 C 0.85212 0.78678 0.41963 0.0
C82 C 0.83671 0.80363 0.40323 0.0
C83 C 0.83399 0.78988 0.41448 0.0
C84 C 0.85798 0.81412 0.39728 0.0
C85 C 0.876 0.81097 0.40239 0.0
U86 U 0.90557 0.77904 0.4402 0.0
O87 O 0.92501 0.76171 0.43555 0.0
O88 O 0.94289 0.79607 0.44648 0.0
C89 C 0.94492 0.77945 0.44039 0.0
C90 C 0.89256 0.79408 0.41847 0.0
C91 C 0.96386 0.78619 0.43104 0.0
C92 C 0.97836 0.79162 0.40757 0.0
C93 C 0.9602 0.78589 0.4162 0.0
C94 C 1.00414 0.79849 0.42851 0.0
C95 C 1.00057 0.79793 0.41361 0.0
C96 C 0.98599 0.79266 0.4371 0.0
C97 C 0.8783 0.75408 0.4751 0.0
C98 C 0.89629 0.75165 0.49757 0.0
C99 C 0.85484 0.73006 0.49275 0.0
C100 C 0.85671 0.73877 0.47946 0.0
C101 C 0.87457 0.73645 0.50206 0.0
C102 C 0.89815 0.76035 0.48421 0.0
C103 C 0.87924 0.76387 0.46132 0.0
O104 O 0.90573 0.80729 0.4297 0.0
O105 O 0.88797 0.77297 0.41872 0.0
O106 O 0.87696 0.75101 0.44978 0.0
O107 O 0.89489 0.78533 0.4608 0.0
H108 H 0.84967 0.77618 0.4283 0.0
H109 H 0.81794 0.78173 0.41941 0.0
H110 H 0.86061 0.82452 0.38848 0.0
H111 H 0.89213 0.81914 0.39754 0.0
H112 H 0.97504 0.79125 0.39616 0.0
H113 H 0.94329 0.78109 0.41129 0.0
H114 H 0.0209 0.80296 0.43353 0.0
H115 H 0.9892 0.79297 0.44852 0.0
H116 H 0.91187 0.75676 0.50437 0.0
H117 H 0.83782 0.71872 0.49587 0.0
H118 H 0.84116 0.7338 0.47265 0.0
H119 H 0.91503 0.77212 0.48107 0.0
C120 C 0.07396 0.21934 0.61771 0.0
C121 C 0.05353 0.21131 0.60879 0.0
C122 C 0.03329 0.21328 0.62913 0.0
C123 C 0.03339 0.20828 0.61445 0.0
C124 C 0.05393 0.2217 0.63793 0.0
C125 C 0.07398 0.22465 0.63228 0.0
U126 U 0.11966 0.23325 0.59033 0.0
O127 O 0.15721 0.24926 0.59467 0.0
O128 O 0.13725 0.21429 0.58472 0.0
C129 C 0.15747 0.23078 0.59024 0.0
C130 C 0.09511 0.22111 0.61243 0.0
C131 C 0.17108 0.22408 0.59953 0.0
C132 C 0.18613 0.22125 0.62294 0.0
C133 C 0.1721 0.22675 0.61447 0.0
C134 C 0.19786 0.20994 0.60165 0.0
C135 C 0.19927 0.21287 0.61663 0.0
C136 C 0.18394 0.21551 0.59322 0.0
C137 C 0.11547 0.25625 0.5545 0.0
C138 C 0.14383 0.26614 0.53714 0.0
C139 C 0.11084 0.27093 0.53234 0.0
C140 C 0.10299 0.26274 0.54543 0.0
C141 C 0.13142 0.27285 0.52802 0.0
C142 C 0.13594 0.25795 0.55027 0.0
C143 C 0.1069 0.24799 0.56833 0.0
O144 O 0.0924 0.20683 0.60157 0.0
O145 O 0.11244 0.24173 0.61165 0.0
O146 O 0.11946 0.26121 0.57973 0.0
O147 O 0.09955 0.22638 0.56962 0.0
H148 H 0.05305 0.20711 0.59749 0.0
H149 H 0.0179 0.20204 0.60733 0.0
H150 H 0.05449 0.22546 0.64929 0.0
H151 H 0.08947 0.23071 0.63939 0.0
H152 H 0.18661 0.22348 0.63444 0.0
H153 H 0.16223 0.23324 0.61959 0.0
H154 H 0.20794 0.20383 0.59641 0.0
H155 H 0.18347 0.21341 0.58172 0.0
H156 H 0.15984 0.26758 0.53425 0.0
H157 H 0.10062 0.27556 0.52553 0.0
H158 H 0.08711 0.26148 0.54847 0.0
H159 H 0.14585 0.25306 0.55716 0.0
C160 C 0.78905 0.85427 0.63075 0.0
C161 C 0.78161 0.83356 0.62268 0.0
C162 C 0.79773 0.82125 0.64168 0.0
C163 C 0.78586 0.81714 0.62812 0.0
C164 C 0.80507 0.84205 0.64971 0.0
C165 C 0.80074 0.8584 0.64428 0.0
U166 U 0.76982 0.87823 0.60059 0.0
O167 O 0.75001 0.89598 0.60124 0.0
O168 O 0.78515 0.91327 0.59466 0.0
C169 C 0.76737 0.91514 0.59795 0.0
C170 C 0.78499 0.87182 0.62516 0.0
C171 C 0.77288 0.93541 0.6073 0.0
C172 C 0.7916 0.96026 0.62904 0.0
C173 C 0.78587 0.94045 0.62049 0.0
C174 C 0.77101 0.96986 0.61141 0.0
C175 C 0.78432 0.97524 0.62455 0.0
C176 C 0.76537 0.95012 0.60286 0.0
C177 C 0.74865 0.84743 0.56363 0.0
C178 C 0.73882 0.86481 0.54468 0.0
C179 C 0.73414 0.82736 0.54006 0.0
C180 C 0.74222 0.82827 0.5542 0.0
C181 C 0.73237 0.84563 0.53512 0.0
C182 C 0.74688 0.86569 0.55881 0.0
C183 C 0.7573 0.84838 0.57844 0.0
O184 O 0.79862 0.88344 0.61555 0.0
O185 O 0.76332 0.86569 0.62184 0.0
O186 O 0.74335 0.84695 0.5881 0.0
O187 O 0.77874 0.86439 0.58199 0.0
H188 H 0.77264 0.83016 0.61217 0.0
H189 H 0.78024 0.80141 0.62162 0.0
H190 H 0.81401 0.84562 0.66024 0.0
H191 H 0.80657 0.87431 0.65064 0.0
H192 H 0.80169 0.96384 0.63916 0.0
H193 H 0.79171 0.92917 0.6241 0.0
H194 H 0.7654 0.98119 0.60756 0.0
H195 H 0.75536 0.94647 0.59269 0.0
H196 H 0.73794 0.87927 0.54119 0.0
H197 H 0.72903 0.81222 0.53304 0.0
H198 H 0.74343 0.81401 0.55778 0.0
H199 H 0.75184 0.88066 0.56597 0.0
C200 C 0.07336 0.84999 0.62008 0.0
C201 C 0.05283 0.8368 0.61125 0.0
C202 C 0.03327 0.81696 0.63151 0.0
C203 C 0.03295 0.82048 0.61692 0.0
C204 C 0.054 0.83003 0.64023 0.0
C205 C 0.07378 0.84637 0.63457 0.0
U206 U 0.11586 0.87688 0.59131 0.0
O207 O 0.13477 0.91255 0.58645 0.0
O208 O 0.15378 0.89608 0.59402 0.0
C209 C 0.15494 0.91505 0.5906 0.0
C210 C 0.09437 0.86809 0.61468 0.0
C211 C 0.17047 0.93552 0.60016 0.0
C212 C 0.1779 0.96204 0.62074 0.0
C213 C 0.16285 0.94206 0.61213 0.0
C214 C 0.20836 0.96888 0.60564 0.0
C215 C 0.20084 0.97573 0.61756 0.0
C216 C 0.19332 0.949 0.59703 0.0
C217 C 0.10668 0.84728 0.55413 0.0
C218 C 0.1343 0.86446 0.53659 0.0
C219 C 0.10041 0.82744 0.53072 0.0
C220 C 0.09332 0.82837 0.54431 0.0
C221 C 0.12103 0.84544 0.52668 0.0
C222 C 0.1272 0.86536 0.55019 0.0
C223 C 0.09917 0.84784 0.56847 0.0
O224 O 0.11054 0.86315 0.61233 0.0
O225 O 0.09141 0.87952 0.60476 0.0
O226 O 0.0932 0.86319 0.57131 0.0
O227 O 0.11211 0.84673 0.57899 0.0
H228 H 0.05212 0.83921 0.6 0.0
H229 H 0.01736 0.81052 0.60987 0.0
H230 H 0.05482 0.82799 0.65152 0.0
H231 H 0.08941 0.85642 0.64159 0.0
H232 H 0.17164 0.96672 0.62992 0.0
H233 H 0.14527 0.93179 0.61475 0.0
H234 H 0.22579 0.97915 0.60276 0.0
H235 H 0.19948 0.94426 0.58782 0.0
H236 H 0.15039 0.8785 0.53391 0.0
H237 H 0.08961 0.81268 0.52332 0.0
H238 H 0.0774 0.81429 0.54715 0.0
H239 H 0.13778 0.88009 0.55767 0.0
C240 C 0.89237 0.48608 0.73804 0.0
C241 C 0.86991 0.48181 0.73452 0.0
C242 C 0.88493 0.51925 0.7259 0.0
C243 C 0.86623 0.49824 0.72859 0.0
C244 C 0.90741 0.52347 0.72929 0.0
C245 C 0.91111 0.50709 0.73531 0.0
U246 U 0.91089 0.46195 0.76873 0.0
O247 O 0.89441 0.4271 0.77522 0.0
O248 O 0.92952 0.44308 0.76861 0.0
C249 C 0.91179 0.42441 0.77216 0.0
C250 C 0.89581 0.46822 0.74409 0.0
C251 C 0.90568 0.40355 0.76323 0.0
C252 C 0.89675 0.38239 0.74003 0.0
C253 C 0.90236 0.40238 0.74833 0.0
C254 C 0.89742 0.36451 0.76148 0.0
C255 C 0.8942 0.36322 0.74653 0.0
C256 C 0.90313 0.38452 0.76975 0.0
C257 C 0.93391 0.49479 0.80512 0.0
C258 C 0.94434 0.47854 0.8245 0.0
C259 C 0.94903 0.51612 0.8283 0.0
C260 C 0.94054 0.5144 0.81414 0.0
C261 C 0.95102 0.4982 0.83365 0.0
C262 C 0.93586 0.47686 0.81035 0.0
C263 C 0.92491 0.49308 0.79029 0.0
O264 O 0.9172 0.47312 0.74714 0.0
O265 O 0.88216 0.45722 0.75386 0.0
O266 O 0.90322 0.47739 0.78714 0.0
O267 O 0.93834 0.49336 0.78058 0.0
H268 H 0.85515 0.46567 0.73633 0.0
H269 H 0.84871 0.49438 0.72593 0.0
H270 H 0.92217 0.53958 0.72746 0.0
H271 H 0.92865 0.51093 0.73781 0.0
H272 H 0.89415 0.38183 0.72855 0.0
H273 H 0.90414 0.41692 0.74313 0.0
H274 H 0.89585 0.35014 0.76679 0.0
H275 H 0.90565 0.38516 0.78125 0.0
H276 H 0.94538 0.46433 0.82832 0.0
H277 H 0.9543 0.5316 0.835 0.0
H278 H 0.93919 0.52842 0.81024 0.0
H279 H 0.93074 0.46154 0.8035 0.0
C280 C 0.61842 0.49726 0.74305 0.0
C281 C 0.63989 0.49889 0.74633 0.0
C282 C 0.6582 0.52937 0.73071 0.0
C283 C 0.65951 0.51476 0.74026 0.0
C284 C 0.63683 0.52801 0.72762 0.0
C285 C 0.61719 0.51209 0.73365 0.0
U286 U 0.57341 0.46848 0.77061 0.0
O287 O 0.53559 0.44825 0.7667 0.0
O288 O 0.55497 0.43266 0.77515 0.0
C289 C 0.53486 0.42946 0.77013 0.0
C290 C 0.59701 0.47876 0.74807 0.0
C291 C 0.52022 0.40882 0.76032 0.0
C292 C 0.51392 0.3748 0.74634 0.0
C293 C 0.52872 0.39528 0.75456 0.0
C294 C 0.48206 0.38135 0.74914 0.0
C295 C 0.49037 0.36749 0.74365 0.0
C296 C 0.49681 0.40172 0.75742 0.0
C297 C 0.57932 0.49666 0.80789 0.0
C298 C 0.5517 0.47771 0.82517 0.0
C299 C 0.58337 0.51607 0.83114 0.0
C300 C 0.59115 0.51588 0.81768 0.0
C301 C 0.56354 0.49698 0.83509 0.0
C302 C 0.55952 0.47756 0.8117 0.0
C303 C 0.5878 0.49681 0.79377 0.0
O304 O 0.59934 0.46701 0.75802 0.0
O305 O 0.58017 0.48296 0.74986 0.0
O306 O 0.57522 0.49774 0.78296 0.0
O307 O 0.59463 0.48206 0.79114 0.0
H308 H 0.64151 0.4876 0.75338 0.0
H309 H 0.67574 0.51553 0.74303 0.0
H310 H 0.63512 0.53879 0.72019 0.0
H311 H 0.60087 0.51102 0.73067 0.0
H312 H 0.5209 0.36463 0.74214 0.0
H313 H 0.5467 0.40028 0.75658 0.0
H314 H 0.46398 0.3761 0.74742 0.0
H315 H 0.48979 0.41174 0.76184 0.0
H316 H 0.53654 0.46263 0.82788 0.0
H317 H 0.59272 0.53131 0.83839 0.0
H318 H 0.60642 0.53082 0.81491 0.0
H319 H 0.55016 0.46253 0.80427 0.0
C320 C 0.53735 0.127 0.74688 0.0
C321 C 0.51593 0.11598 0.75256 0.0
C322 C 0.50128 0.1342 0.73677 0.0
C323 C 0.49804 0.11951 0.74753 0.0
C324 C 0.52289 0.14531 0.73126 0.0
C325 C 0.54068 0.14173 0.73626 0.0
U326 U 0.56952 0.10781 0.77297 0.0
O327 O 0.58739 0.08899 0.7678 0.0
O328 O 0.60688 0.12349 0.77843 0.0
C329 C 0.60787 0.10647 0.77197 0.0
C330 C 0.5563 0.12304 0.75145 0.0
C331 C 0.62609 0.1123 0.76196 0.0
C332 C 0.66305 0.13947 0.75379 0.0
C333 C 0.64528 0.13438 0.76261 0.0
C334 C 0.64299 0.10056 0.74339 0.0
C335 C 0.66225 0.1226 0.74411 0.0
C336 C 0.62521 0.09547 0.75223 0.0
C337 C 0.54299 0.08491 0.8086 0.0
C338 C 0.56057 0.07897 0.83001 0.0
C339 C 0.51965 0.06538 0.82764 0.0
C340 C 0.52161 0.07377 0.81425 0.0
C341 C 0.53908 0.06787 0.83576 0.0
C342 C 0.56251 0.0874 0.81654 0.0
C343 C 0.54421 0.09438 0.79469 0.0
O344 O 0.57031 0.1363 0.76242 0.0
O345 O 0.55095 0.10173 0.75184 0.0
O346 O 0.54094 0.0809 0.78325 0.0
O347 O 0.56061 0.11545 0.79388 0.0
H348 H 0.51303 0.10457 0.7608 0.0
H349 H 0.48172 0.11087 0.75213 0.0
H350 H 0.52594 0.15646 0.72284 0.0
H351 H 0.55705 0.15032 0.73169 0.0
H352 H 0.67776 0.15653 0.75484 0.0
H353 H 0.6468 0.14773 0.77012 0.0
H354 H 0.64162 0.08717 0.73599 0.0
H355 H 0.61087 0.07822 0.75152 0.0
H356 H 0.57587 0.08101 0.83587 0.0
H357 H 0.50291 0.05734 0.83175 0.0
H358 H 0.50635 0.07182 0.80835 0.0
H359 H 0.5792 0.09595 0.81238 0.0
C360 C 0.74043 0.55267 0.95021 0.0
C361 C 0.74041 0.57041 0.95854 0.0
C362 C 0.69995 0.54591 0.96241 0.0
C363 C 0.72042 0.5671 0.9645 0.0
C364 C 0.69989 0.52832 0.95387 0.0
C365 C 0.71986 0.53162 0.94791 0.0
U366 U 0.78785 0.56847 0.92373 0.0
O367 O 0.82535 0.58478 0.92857 0.0
O368 O 0.80602 0.55009 0.91811 0.0
C369 C 0.82599 0.56657 0.92398 0.0
C370 C 0.76225 0.5552 0.94533 0.0
C371 C 0.83944 0.55971 0.93329 0.0
C372 C 0.85419 0.55659 0.95672 0.0
C373 C 0.84037 0.5623 0.94823 0.0
C374 C 0.8659 0.5452 0.93545 0.0
C375 C 0.86722 0.54805 0.95042 0.0
C376 C 0.85219 0.55099 0.927 0.0
C377 C 0.784 0.59203 0.88801 0.0
C378 C 0.81176 0.60119 0.87033 0.0
C379 C 0.77989 0.60792 0.86627 0.0
C380 C 0.77207 0.59959 0.87933 0.0
C381 C 0.79988 0.60891 0.86158 0.0
C382 C 0.80391 0.59286 0.88344 0.0
C383 C 0.7753 0.58339 0.90174 0.0
O384 O 0.76044 0.54129 0.93449 0.0
O385 O 0.77957 0.57597 0.94492 0.0
O386 O 0.78754 0.59649 0.91325 0.0
O387 O 0.76824 0.5618 0.90287 0.0
H388 H 0.75601 0.58672 0.96078 0.0
H389 H 0.72123 0.58096 0.97115 0.0
H390 H 0.6844 0.51187 0.95185 0.0
H391 H 0.71926 0.51746 0.94173 0.0
H392 H 0.85461 0.55876 0.96821 0.0
H393 H 0.83057 0.56889 0.95334 0.0
H394 H 0.8759 0.53897 0.93023 0.0
H395 H 0.85178 0.54893 0.9155 0.0
H396 H 0.82732 0.60189 0.86714 0.0
H397 H 0.77008 0.61335 0.85975 0.0
H398 H 0.75662 0.599 0.88264 0.0
H399 H 0.81339 0.58713 0.89001 0.0
C400 C 0.46314 0.19018 0.96136 0.0
C401 C 0.46466 0.17446 0.95193 0.0
C402 C 0.4702 0.15599 0.97198 0.0
C403 C 0.46826 0.15756 0.9572 0.0
C404 C 0.46832 0.1716 0.98136 0.0
C405 C 0.46487 0.18858 0.97608 0.0
U406 U 0.4447 0.21498 0.93153 0.0
O407 O 0.42601 0.2338 0.9321 0.0
O408 O 0.46098 0.24992 0.92525 0.0
C409 C 0.44366 0.25254 0.92856 0.0
C410 C 0.45984 0.20833 0.956 0.0
C411 C 0.44998 0.27328 0.93766 0.0
C412 C 0.46067 0.29454 0.96093 0.0
C413 C 0.45449 0.27452 0.95248 0.0
C414 C 0.45808 0.31224 0.93979 0.0
C415 C 0.4626 0.31364 0.95466 0.0
C416 C 0.45181 0.29222 0.93138 0.0
C417 C 0.42151 0.18312 0.89499 0.0
C418 C 0.40842 0.19888 0.87661 0.0
C419 C 0.40828 0.16364 0.87121 0.0
C420 C 0.41703 0.1649 0.88523 0.0
C421 C 0.40383 0.1806 0.86675 0.0
C422 C 0.41722 0.20014 0.89061 0.0
C423 C 0.43067 0.18435 0.9097 0.0
O424 O 0.47342 0.21967 0.94629 0.0
O425 O 0.43833 0.20296 0.95296 0.0
O426 O 0.41731 0.18372 0.91956 0.0
O427 O 0.45236 0.20002 0.91286 0.0
H428 H 0.46316 0.17532 0.94051 0.0
H429 H 0.46935 0.1456 0.94972 0.0
H430 H 0.46994 0.17093 0.99279 0.0
H431 H 0.46369 0.20057 0.98349 0.0
H432 H 0.46424 0.29519 0.97234 0.0
H433 H 0.45329 0.26004 0.95748 0.0
H434 H 0.45911 0.32655 0.93467 0.0
H435 H 0.44838 0.29152 0.91995 0.0
H436 H 0.40546 0.21234 0.87347 0.0
H437 H 0.40468 0.14923 0.86392 0.0
H438 H 0.42024 0.15162 0.88846 0.0
H439 H 0.4207 0.2144 0.89803 0.0
C440 C 0.74109 0.18088 0.95427 0.0
C441 C 0.74164 0.16388 0.96185 0.0
C442 C 0.70167 0.14891 0.96696 0.0
C443 C 0.72216 0.14804 0.96806 0.0
C444 C 0.70103 0.16573 0.95921 0.0
C445 C 0.72049 0.18154 0.953 0.0
U446 U 0.78503 0.20889 0.92608 0.0
O447 O 0.80352 0.24467 0.92142 0.0
O448 O 0.82289 0.22875 0.92932 0.0
C449 C 0.82375 0.24755 0.9258 0.0
C450 C 0.76242 0.19918 0.94903 0.0
C451 C 0.83885 0.26811 0.93537 0.0
C452 C 0.8456 0.29443 0.95592 0.0
C453 C 0.83091 0.27433 0.9473 0.0
C454 C 0.87631 0.30201 0.94087 0.0
C455 C 0.86848 0.30853 0.95277 0.0
C456 C 0.86163 0.28201 0.93228 0.0
C457 C 0.77807 0.18069 0.88871 0.0
C458 C 0.7956 0.20025 0.86798 0.0
C459 C 0.78401 0.16055 0.86882 0.0
C460 C 0.77619 0.16075 0.88226 0.0
C461 C 0.79375 0.18028 0.86149 0.0
C462 C 0.78797 0.2005 0.88149 0.0
C463 C 0.76986 0.18052 0.90298 0.0
O464 O 0.77903 0.19474 0.94694 0.0
O465 O 0.75986 0.21092 0.93917 0.0
O466 O 0.76291 0.1951 0.90591 0.0
O467 O 0.78252 0.17933 0.91363 0.0
H468 H 0.75731 0.1631 0.96329 0.0
H469 H 0.72338 0.13551 0.97409 0.0
H470 H 0.68547 0.16674 0.95798 0.0
H471 H 0.71948 0.19456 0.94742 0.0
H472 H 0.83911 0.29887 0.96508 0.0
H473 H 0.81337 0.26373 0.94989 0.0
H474 H 0.89369 0.31261 0.93801 0.0
H475 H 0.86803 0.27751 0.92308 0.0
H476 H 0.80326 0.21578 0.86268 0.0
H477 H 0.78216 0.14485 0.86406 0.0
H478 H 0.76865 0.1453 0.88764 0.0
H479 H 0.78986 0.21619 0.88628 0.0
C480 C 0.57143 0.82488 0.06849 0.0
C481 C 0.57766 0.84518 0.07669 0.0
C482 C 0.56321 0.85784 0.057 0.0
C483 C 0.57362 0.86157 0.07098 0.0
C484 C 0.55723 0.83752 0.04881 0.0
C485 C 0.56132 0.82119 0.05452 0.0
U486 U 0.58895 0.80052 0.09928 0.0
O487 O 0.57218 0.76546 0.10536 0.0
O488 O 0.60757 0.78159 0.09921 0.0
C489 C 0.58943 0.76265 0.10209 0.0
C490 C 0.57484 0.80715 0.07442 0.0
C491 C 0.58319 0.74185 0.09277 0.0
C492 C 0.55695 0.70159 0.08608 0.0
C493 C 0.56299 0.72147 0.09459 0.0
C494 C 0.59138 0.72188 0.07386 0.0
C495 C 0.5711 0.70155 0.07564 0.0
C496 C 0.59737 0.74183 0.08233 0.0
C497 C 0.60999 0.83218 0.13617 0.0
C498 C 0.62042 0.81596 0.15556 0.0
C499 C 0.62274 0.85245 0.15975 0.0
C500 C 0.61503 0.85108 0.14547 0.0
C501 C 0.62553 0.8349 0.16498 0.0
C502 C 0.61272 0.81461 0.14128 0.0
C503 C 0.60177 0.83086 0.1212 0.0
O504 O 0.59632 0.81282 0.07799 0.0
O505 O 0.56083 0.79599 0.08399 0.0
O506 O 0.58022 0.81517 0.11759 0.0
O507 O 0.61579 0.83155 0.11179 0.0
H508 H 0.5854 0.84822 0.08754 0.0
H509 H 0.57818 0.87692 0.07761 0.0
H510 H 0.54944 0.83426 0.03797 0.0
H511 H 0.55644 0.8056 0.04805 0.0
H512 H 0.54142 0.6861 0.08787 0.0
H513 H 0.55189 0.72086 0.10268 0.0
H514 H 0.60257 0.7224 0.06586 0.0
H515 H 0.61314 0.75718 0.08069 0.0
H516 H 0.62265 0.80229 0.15919 0.0
H517 H 0.62624 0.86713 0.16675 0.0
H518 H 0.61292 0.86475 0.14169 0.0
H519 H 0.60892 0.79989 0.13421 0.0
C520 C 0.28826 0.82808 0.07803 0.0
C521 C 0.30713 0.82473 0.07682 0.0
C522 C 0.3282 0.86044 0.06598 0.0
C523 C 0.32689 0.84074 0.07094 0.0
C524 C 0.30944 0.86395 0.06736 0.0
C525 C 0.2897 0.84797 0.07329 0.0
U526 U 0.24252 0.80038 0.10522 0.0
O527 O 0.20472 0.78068 0.10111 0.0
O528 O 0.22344 0.76468 0.10999 0.0
C529 C 0.20354 0.76179 0.10475 0.0
C530 C 0.26659 0.80979 0.08291 0.0
C531 C 0.18882 0.74115 0.09498 0.0
C532 C 0.18223 0.707 0.08105 0.0
C533 C 0.19711 0.72736 0.08935 0.0
C534 C 0.15071 0.71419 0.08352 0.0
C535 C 0.15881 0.70009 0.07814 0.0
C536 C 0.16554 0.73443 0.09189 0.0
C537 C 0.24796 0.82941 0.14204 0.0
C538 C 0.21915 0.81132 0.1588 0.0
C539 C 0.25214 0.84874 0.16533 0.0
C540 C 0.26028 0.8483 0.15203 0.0
C541 C 0.23147 0.83025 0.16891 0.0
C542 C 0.22733 0.81091 0.14549 0.0
C543 C 0.25682 0.82921 0.1281 0.0
O544 O 0.26868 0.79831 0.09311 0.0
O545 O 0.24973 0.81409 0.0843 0.0
O546 O 0.24465 0.83016 0.11706 0.0
O547 O 0.26338 0.81418 0.12584 0.0
H548 H 0.30643 0.80942 0.08013 0.0
H549 H 0.34087 0.83734 0.06988 0.0
H550 H 0.30996 0.87906 0.06382 0.0
H551 H 0.27545 0.85106 0.07392 0.0
H552 H 0.18904 0.69662 0.07693 0.0
H553 H 0.21499 0.73208 0.09152 0.0
H554 H 0.13273 0.70924 0.08163 0.0
H555 H 0.15868 0.74466 0.09619 0.0
H556 H 0.20333 0.79669 0.16124 0.0
H557 H 0.2619 0.86372 0.17275 0.0
H558 H 0.2762 0.86277 0.14953 0.0
H559 H 0.21761 0.79613 0.13791 0.0
C560 C 0.20512 0.46218 0.0805 0.0
C561 C 0.18379 0.45102 0.08628 0.0
C562 C 0.16868 0.46893 0.07056 0.0
C563 C 0.16571 0.45433 0.08133 0.0
C564 C 0.1902 0.48018 0.06495 0.0
C565 C 0.20818 0.47682 0.06987 0.0
U566 U 0.23747 0.44308 0.10646 0.0
O567 O 0.25563 0.42453 0.10121 0.0
O568 O 0.27476 0.4589 0.11211 0.0
C569 C 0.27594 0.44196 0.1057 0.0
C570 C 0.22425 0.45846 0.08502 0.0
C571 C 0.29429 0.44792 0.0959 0.0
C572 C 0.32263 0.47429 0.08106 0.0
C573 C 0.30458 0.46875 0.08975 0.0
C574 C 0.32006 0.43811 0.08424 0.0
C575 C 0.33067 0.45908 0.07824 0.0
C576 C 0.30215 0.43266 0.09299 0.0
C577 C 0.21092 0.41926 0.14183 0.0
C578 C 0.22896 0.41591 0.164 0.0
C579 C 0.18743 0.39731 0.16016 0.0
C580 C 0.18929 0.40556 0.14673 0.0
C581 C 0.20722 0.40259 0.16908 0.0
C582 C 0.2308 0.42422 0.1505 0.0
C583 C 0.21194 0.42894 0.12802 0.0
O584 O 0.23811 0.47163 0.09606 0.0
O585 O 0.21915 0.43719 0.08526 0.0
O586 O 0.20886 0.41574 0.11648 0.0
O587 O 0.22809 0.45017 0.12733 0.0
H588 H 0.1811 0.43968 0.09453 0.0
H589 H 0.14947 0.44558 0.086 0.0
H590 H 0.19304 0.49127 0.05652 0.0
H591 H 0.22447 0.48551 0.06523 0.0
H592 H 0.33024 0.49047 0.07649 0.0
H593 H 0.29881 0.48083 0.09172 0.0
H594 H 0.32597 0.4261 0.08245 0.0
H595 H 0.29458 0.41654 0.09764 0.0
H596 H 0.24456 0.42041 0.1706 0.0
H597 H 0.17042 0.38676 0.16357 0.0
H598 H 0.17373 0.40147 0.14021 0.0
H599 H 0.2477 0.43479 0.14696 0.0
C600 C 0.40768 0.88432 0.28563 0.0
C601 C 0.39482 0.89321 0.27932 0.0
C602 C 0.36681 0.87759 0.29704 0.0
C603 C 0.37458 0.88992 0.285 0.0
C604 C 0.37988 0.8688 0.30326 0.0
C605 C 0.40004 0.87214 0.29761 0.0
U606 U 0.45327 0.90095 0.25791 0.0
O607 O 0.49094 0.91803 0.26215 0.0
O608 O 0.47189 0.88318 0.25195 0.0
C609 C 0.49186 0.89997 0.25757 0.0
C610 C 0.42916 0.88749 0.28014 0.0
C611 C 0.50588 0.89359 0.26676 0.0
C612 C 0.52202 0.89166 0.29006 0.0
C613 C 0.50777 0.89703 0.28171 0.0
C614 C 0.53225 0.87893 0.26866 0.0
C615 C 0.53451 0.88261 0.28363 0.0
C616 C 0.51813 0.88439 0.26035 0.0
C617 C 0.44719 0.92325 0.22214 0.0
C618 C 0.47528 0.93418 0.20454 0.0
C619 C 0.44076 0.93639 0.19977 0.0
C620 C 0.43363 0.92843 0.21302 0.0
C621 C 0.46167 0.93937 0.19531 0.0
C622 C 0.46809 0.92616 0.21782 0.0
C623 C 0.43917 0.91488 0.23605 0.0
O624 O 0.42683 0.87363 0.26915 0.0
O625 O 0.44558 0.90853 0.27926 0.0
O626 O 0.45168 0.92834 0.24739 0.0
O627 O 0.43263 0.89343 0.23734 0.0
H628 H 0.40041 0.90265 0.27004 0.0
H629 H 0.36485 0.89674 0.27985 0.0
H630 H 0.3747 0.85956 0.31265 0.0
H631 H 0.40977 0.86522 0.30268 0.0
H632 H 0.52316 0.89448 0.30156 0.0
H633 H 0.49838 0.904 0.28693 0.0
H634 H 0.54181 0.87227 0.26333 0.0
H635 H 0.51698 0.88166 0.24884 0.0
H636 H 0.49136 0.93603 0.20143 0.0
H637 H 0.42999 0.94053 0.19309 0.0
H638 H 0.41748 0.92637 0.21617 0.0
H639 H 0.4788 0.92221 0.22471 0.0
C640 C 0.12569 0.5203 0.29646 0.0
C641 C 0.14088 0.51451 0.2903 0.0
C642 C 0.13429 0.48747 0.3079 0.0
C643 C 0.14518 0.49831 0.296 0.0
C644 C 0.11894 0.49309 0.31396 0.0
C645 C 0.11479 0.50945 0.30834 0.0
U646 U 0.10543 0.54469 0.26684 0.0
O647 O 0.08597 0.56279 0.26824 0.0
O648 O 0.1205 0.57954 0.26068 0.0
C649 C 0.10328 0.58181 0.26473 0.0
C650 C 0.12145 0.53796 0.29097 0.0
C651 C 0.10958 0.60233 0.27417 0.0
C652 C 0.13647 0.63347 0.29135 0.0
C653 C 0.13033 0.61338 0.28301 0.0
C654 C 0.10084 0.63127 0.28254 0.0
C655 C 0.12186 0.64269 0.29111 0.0
C656 C 0.09481 0.61131 0.2741 0.0
C657 C 0.08257 0.51358 0.23004 0.0
C658 C 0.07067 0.53018 0.2116 0.0
C659 C 0.06879 0.49408 0.20629 0.0
C660 C 0.07731 0.49506 0.22033 0.0
C661 C 0.0654 0.51166 0.20176 0.0
C662 C 0.0792 0.53114 0.22562 0.0
C663 C 0.09179 0.51464 0.24471 0.0
O664 O 0.1347 0.55 0.28131 0.0
O665 O 0.09973 0.53206 0.28815 0.0
O666 O 0.07833 0.51346 0.25464 0.0
O667 O 0.11337 0.53055 0.24792 0.0
H668 H 0.14952 0.5225 0.2811 0.0
H669 H 0.15688 0.4941 0.29101 0.0
H670 H 0.11045 0.48513 0.32321 0.0
H671 H 0.10313 0.51372 0.31333 0.0
H672 H 0.15266 0.64182 0.29797 0.0
H673 H 0.14192 0.60666 0.28338 0.0
H674 H 0.08934 0.6381 0.28207 0.0
H675 H 0.07873 0.60303 0.26736 0.0
H676 H 0.06852 0.54411 0.20841 0.0
H677 H 0.06463 0.47945 0.19903 0.0
H678 H 0.07978 0.48135 0.22359 0.0
H679 H 0.08328 0.54563 0.23301 0.0
C680 C 0.40805 0.51733 0.28779 0.0
C681 C 0.38763 0.50403 0.27887 0.0
C682 C 0.3679 0.48414 0.29908 0.0
C683 C 0.36772 0.48763 0.28448 0.0
C684 C 0.38852 0.49731 0.30788 0.0
C685 C 0.40833 0.51372 0.30229 0.0
U686 U 0.45104 0.54459 0.2593 0.0
O687 O 0.46951 0.58024 0.25435 0.0
O688 O 0.48892 0.56438 0.26227 0.0
C689 C 0.48978 0.58314 0.25868 0.0
C690 C 0.42904 0.53559 0.28247 0.0
C691 C 0.50501 0.60379 0.26816 0.0
C692 C 0.51207 0.6303 0.28867 0.0
C693 C 0.49721 0.61022 0.28008 0.0
C694 C 0.54267 0.63747 0.27362 0.0
C695 C 0.53499 0.64418 0.28552 0.0
C696 C 0.52782 0.6175 0.26504 0.0
C697 C 0.44333 0.51494 0.22225 0.0
C698 C 0.46245 0.53393 0.20174 0.0
C699 C 0.4467 0.49336 0.20209 0.0
C700 C 0.43922 0.49424 0.21555 0.0
C701 C 0.45836 0.51318 0.195 0.0
C702 C 0.45513 0.53483 0.21527 0.0
C703 C 0.43546 0.51546 0.23653 0.0
O704 O 0.44553 0.53101 0.28036 0.0
O705 O 0.42601 0.54678 0.27241 0.0
O706 O 0.42872 0.53028 0.23922 0.0
O707 O 0.44832 0.51465 0.24722 0.0
H708 H 0.38701 0.50642 0.26762 0.0
H709 H 0.35221 0.4776 0.27738 0.0
H710 H 0.38923 0.49529 0.31918 0.0
H711 H 0.42387 0.52386 0.30936 0.0
H712 H 0.50569 0.63488 0.29783 0.0
H713 H 0.47965 0.59978 0.28269 0.0
H714 H 0.56007 0.64789 0.27075 0.0
H715 H 0.53412 0.61283 0.25586 0.0
H716 H 0.47163 0.54953 0.19665 0.0
H717 H 0.44309 0.47709 0.19713 0.0
H718 H 0.43019 0.47872 0.22076 0.0
H719 H 0.45873 0.55106 0.22029 0.0
Tb720 Tb 0.50651 0.99415 0.99988 0.0
Eu721 Eu 0.52144 0.01797 0.0333 0.0
C722 C 0.524 0.97406 0.02366 0.0
C723 C 0.47126 0.97543 0.0231 0.0
C724 C 0.50216 0.98882 0.96008 0.0
C725 C 0.50518 0.98483 0.93461 0.0
C726 C 0.50006 0.97539 0.9477 0.0
C727 C 0.50941 0.0119 0.95919 0.0
C728 C 0.51445 0.02137 0.94607 0.0
C729 C 0.51252 0.00796 0.93361 0.0
C730 C 0.49785 0.97873 0.97389 0.0
O731 O 0.49301 0.0173 1.00206 0.0
O732 O 0.51766 0.04291 0.0204 0.0
O733 O 0.55409 0.0327 0.02191 0.0
O734 O 0.53712 0.02702 0.99919 0.0
C735 C 0.5027 0.03742 1.00927 0.0
O736 O 0.51552 0.03401 0.05204 0.0
O737 O 0.54347 0.0268 0.05317 0.0
O738 O 0.51744 0.9834 0.03343 0.0
O739 O 0.52558 0.97993 1.01052 0.0
O740 O 0.47952 0.97004 0.01214 0.0
O741 O 0.4829 0.99537 0.03046 0.0
C742 C 0.5554 0.0369 1.00841 0.0
O743 O 0.51612 0.98266 0.98182 0.0
O744 O 0.48329 0.98105 0.98139 0.0
C745 C 0.52404 0.02306 0.07391 0.0
C746 C 0.51047 1.00399 0.10015 0.0
C747 C 0.52379 0.02769 0.09965 0.0
C748 C 0.5305 0.0371 0.08667 0.0
C749 C 0.51071 0.99942 0.0743 0.0
C750 C 0.50403 0.98997 0.08728 0.0
C751 C 0.53126 0.03321 0.06031 0.0
H752 H 0.5032 0.97393 0.92524 0.0
H753 H 0.4946 0.95757 0.94817 0.0
H754 H 0.51141 0.02265 0.96867 0.0
H755 H 0.52027 0.03927 0.94573 0.0
H756 H 0.52932 0.039 0.10934 0.0
H757 H 0.54081 0.05538 0.08661 0.0
H758 H 0.50544 0.98827 0.06454 0.0
H759 H 0.49356 0.97169 0.08722 0.0
Tb760 Tb 0.02346 0.50982 1.00233 0.0
Eu761 Eu 0.99689 0.49819 0.0318 0.0
C762 C 0.04161 0.54661 0.02852 0.0
C763 C 0.04197 0.49429 0.02859 0.0
C764 C 0.03193 0.51566 0.96416 0.0
C765 C 0.03766 0.52044 0.9391 0.0
C766 C 0.04656 0.52231 0.95317 0.0
C767 C 1.00827 0.50713 0.96097 0.0
C768 C 0.99935 0.50519 0.94691 0.0
C769 C 0.01394 0.51183 0.9358 0.0
C770 C 0.04136 0.51766 0.97891 0.0
O771 O 0.99044 0.47911 0.99669 0.0
O772 O 0.98396 0.46503 0.01849 0.0
O773 O 0.97296 0.50116 0.01554 0.0
O774 O 1.0003 0.52362 1.00107 0.0
C775 C 0.98011 0.46207 1.00455 0.0
O776 O 0.98202 0.47537 0.04841 0.0
O777 O 0.98121 0.50676 0.04899 0.0
O778 O 0.02128 0.536 0.03344 0.0
O779 O 0.04715 0.53717 0.01811 0.0
O780 O 0.03796 0.49275 0.01463 0.0
O781 O 0.03089 0.50036 0.03719 0.0
C782 C 0.97943 0.51483 1.00528 0.0
O783 O 0.04114 0.53312 0.98752 0.0
O784 O 0.03415 0.49858 0.98472 0.0
C785 C 0.98648 0.49404 0.0709 0.0
C786 C 1.00328 0.50043 0.09979 0.0
C787 C 0.97944 0.48907 0.09579 0.0
C788 C 0.97113 0.48589 0.08145 0.0
C789 C 1.01026 0.50576 0.07482 0.0
C790 C 0.01861 0.50895 0.08914 0.0
C791 C 0.97766 0.48927 0.05581 0.0
H792 H 0.0493 0.52546 0.93077 0.0
H793 H 0.06486 0.5289 0.95546 0.0
H794 H 0.99674 0.50201 0.96937 0.0
H795 H 0.98106 0.49877 0.94475 0.0
H796 H 0.9672 0.48257 0.10374 0.0
H797 H 0.95271 0.47679 0.07859 0.0
H798 H 0.02236 0.51206 0.06676 0.0
H799 H 0.03704 0.51752 0.09183 0.0
Tb800 Tb 0.52118 0.50132 0.03128 0.0
Eu801 Eu 0.50338 0.51016 1.00005 0.0
C802 C 0.49971 0.4627 1.00633 0.0
C803 C 0.55312 0.51505 1.00583 0.0
C804 C 0.52532 0.49842 0.0704 0.0
C805 C 0.50673 0.48148 0.09154 0.0
C806 C 0.5141 0.47944 0.07822 0.0
C807 C 0.52919 0.51959 0.07625 0.0
C808 C 0.522 0.52167 0.08964 0.0
C809 C 0.5106 0.50261 0.09742 0.0
C810 C 0.5323 0.49569 0.05609 0.0
O811 O 0.51862 0.53162 0.03484 0.0
O812 O 0.52486 0.54424 0.01265 0.0
O813 O 0.47708 0.50766 0.01489 0.0
O814 O 0.48402 0.48715 0.03105 0.0
C815 C 0.52506 0.54807 0.02645 0.0
O816 O 0.5098 0.53202 0.98274 0.0
O817 O 0.47904 0.49895 0.98099 0.0
O818 O 0.48902 0.47255 1.00071 0.0
O819 O 0.51631 0.4732 0.01668 0.0
O820 O 0.55208 0.51782 0.01967 0.0
O821 O 0.53485 0.50764 0.99678 0.0
C822 C 0.47121 0.49513 0.02577 0.0
O823 O 0.51644 0.47932 0.04726 0.0
O824 O 0.54427 0.51411 0.04975 0.0
C825 C 0.49745 0.51219 0.95998 0.0
C826 C 0.50979 0.50638 0.93251 0.0
C827 C 0.49498 0.51516 0.93444 0.0
C828 C 0.48891 0.51807 0.94805 0.0
C829 C 0.5119 0.50305 0.95812 0.0
C830 C 0.51802 0.50018 0.94453 0.0
C831 C 0.49223 0.51667 0.97438 0.0
H832 H 0.49821 0.46653 0.09733 0.0
H833 H 0.51092 0.46295 0.07398 0.0
H834 H 0.53764 0.53457 0.07048 0.0
H835 H 0.52504 0.53813 0.09381 0.0
H836 H 0.48804 0.51981 0.92542 0.0
H837 H 0.47775 0.52515 0.94928 0.0
H838 H 0.51875 0.49849 0.96723 0.0
H839 H 0.52967 0.49365 0.9435 0.0
Tb840 Tb 0.17344 0.32662 0.33257 0.0
Eu841 Eu 0.18997 0.35056 0.36601 0.0
C842 C 0.19386 0.30745 0.35493 0.0
C843 C 0.14039 0.30689 0.35721 0.0
C844 C 0.16942 0.32154 0.29284 0.0
C845 C 0.17572 0.31769 0.26791 0.0
C846 C 0.17002 0.30852 0.28105 0.0
C847 C 0.17496 0.34407 0.29134 0.0
C848 C 0.18051 0.35323 0.27818 0.0
C849 C 0.18087 0.34013 0.26623 0.0
C850 C 0.16304 0.31142 0.30657 0.0
O851 O 0.17562 0.35941 0.33235 0.0
O852 O 0.16973 0.36502 0.35556 0.0
O853 O 0.21661 0.37541 0.35274 0.0
O854 O 0.21065 0.34955 0.33399 0.0
C855 C 0.16955 0.36926 0.34214 0.0
O856 O 0.18227 0.36362 0.38527 0.0
O857 O 0.21382 0.36246 0.38535 0.0
O858 O 0.20446 0.32745 0.36223 0.0
O859 O 0.17767 0.30231 0.3446 0.0
O860 O 0.14202 0.31173 0.34381 0.0
O861 O 0.15834 0.31665 0.36665 0.0
C862 C 0.22311 0.36975 0.34104 0.0
O863 O 0.17939 0.31129 0.31457 0.0
O864 O 0.15078 0.31732 0.31406 0.0
C865 C 0.19504 0.35534 0.40666 0.0
C866 C 0.18317 0.33572 0.43289 0.0
C867 C 0.19695 0.35942 0.43256 0.0
C868 C 0.20278 0.3691 0.41958 0.0
C869 C 0.18156 0.33168 0.40689 0.0
C870 C 0.17568 0.32197 0.41987 0.0
C871 C 0.20003 0.36585 0.39302 0.0
H872 H 0.17622 0.30719 0.25908 0.0
H873 H 0.16603 0.29118 0.28199 0.0
H874 H 0.17479 0.35455 0.30032 0.0
H875 H 0.18409 0.37045 0.27732 0.0
H876 H 0.20276 0.37058 0.44232 0.0
H877 H 0.21304 0.3874 0.41962 0.0
H878 H 0.17537 0.32075 0.39702 0.0
H879 H 0.16528 0.30367 0.41969 0.0
Tb880 Tb 0.69178 0.84489 0.33494 0.0
Eu881 Eu 0.66547 0.83368 0.36453 0.0
C882 C 0.71004 0.88196 0.36096 0.0
C883 C 0.71025 0.82936 0.36119 0.0
C884 C 0.70077 0.85048 0.2967 0.0
C885 C 0.70741 0.85639 0.27183 0.0
C886 C 0.71589 0.85836 0.28601 0.0
C887 C 0.67702 0.84065 0.29309 0.0
C888 C 0.66849 0.83862 0.27891 0.0
C889 C 0.68359 0.84645 0.26809 0.0
C890 C 0.70985 0.85258 0.31156 0.0
O891 O 0.65869 0.81426 0.32935 0.0
O892 O 0.65198 0.80039 0.35122 0.0
O893 O 0.64144 0.83672 0.34838 0.0
O894 O 0.6685 0.85854 0.33354 0.0
C895 C 0.64815 0.79735 0.33727 0.0
O896 O 0.65055 0.8109 0.38115 0.0
O897 O 0.65052 0.84269 0.38199 0.0
O898 O 0.68964 0.87152 0.3658 0.0
O899 O 0.71558 0.87225 0.35071 0.0
O900 O 0.70599 0.82755 0.34724 0.0
O901 O 0.69948 0.83581 0.3698 0.0
C902 C 0.64776 0.85005 0.33794 0.0
O903 O 0.7094 0.86805 0.32004 0.0
O904 O 0.70261 0.83356 0.31744 0.0
C905 C 0.65566 0.82953 0.40378 0.0
C906 C 0.67246 0.83542 0.43265 0.0
C907 C 0.64871 0.82568 0.42875 0.0
C908 C 0.6404 0.82274 0.41443 0.0
C909 C 0.67938 0.83965 0.40759 0.0
C910 C 0.68772 0.84257 0.4219 0.0
C911 C 0.6467 0.82503 0.38871 0.0
H912 H 0.71953 0.86292 0.26382 0.0
H913 H 0.73429 0.8661 0.28864 0.0
H914 H 0.66508 0.83448 0.30124 0.0
H915 H 0.65006 0.83066 0.2764 0.0
H916 H 0.63654 0.82028 0.43678 0.0
H917 H 0.62204 0.81491 0.41166 0.0
H918 H 0.69141 0.84491 0.39947 0.0
H919 H 0.70606 0.84988 0.42451 0.0
Tb920 Tb 0.1866 0.83448 0.36377 0.0
Eu921 Eu 0.16962 0.8446 0.33272 0.0
C922 C 0.16549 0.79655 0.33834 0.0
C923 C 0.21898 0.84851 0.33846 0.0
C924 C 0.18969 0.83077 0.40257 0.0
C925 C 0.18926 0.82583 0.42791 0.0
C926 C 0.19667 0.82374 0.41461 0.0
C927 C 0.17514 0.83989 0.40397 0.0
C928 C 0.16776 0.84204 0.41727 0.0
C929 C 0.17472 0.83503 0.42944 0.0
C930 C 0.19729 0.82828 0.38856 0.0
O931 O 0.18417 0.86485 0.36753 0.0
O932 O 0.19159 0.87826 0.34561 0.0
O933 O 0.14346 0.84209 0.34772 0.0
O934 O 0.14938 0.8201 0.36311 0.0
C935 C 0.19124 0.88167 0.35938 0.0
O936 O 0.17673 0.8669 0.31562 0.0
O937 O 0.14515 0.83448 0.31383 0.0
O938 O 0.15556 0.80693 0.33245 0.0
O939 O 0.18138 0.80631 0.34913 0.0
O940 O 0.21773 0.85064 0.35233 0.0
O941 O 0.20094 0.84187 0.32933 0.0
C942 C 0.13703 0.8288 0.35821 0.0
O943 O 0.1816 0.81215 0.37955 0.0
O944 O 0.20909 0.84702 0.38251 0.0
C945 C 0.16377 0.84726 0.29285 0.0
C946 C 0.17598 0.84098 0.26544 0.0
C947 C 0.16239 0.85116 0.2674 0.0
C948 C 0.15639 0.8543 0.28099 0.0
C949 C 0.17695 0.83671 0.29096 0.0
C950 C 0.18301 0.83361 0.2774 0.0
C951 C 0.15884 0.85204 0.30726 0.0
H952 H 0.19467 0.81991 0.43697 0.0
H953 H 0.20777 0.81652 0.41371 0.0
H954 H 0.1695 0.84536 0.39477 0.0
H955 H 0.15681 0.84944 0.41804 0.0
H956 H 0.15639 0.85674 0.25842 0.0
H957 H 0.14623 0.86249 0.28225 0.0
H958 H 0.18291 0.83125 0.30002 0.0
H959 H 0.19372 0.82599 0.27635 0.0
Tb960 Tb 0.83883 0.66112 0.66575 0.0
Eu961 Eu 0.85546 0.6852 0.6991 0.0
C962 C 0.85835 0.64126 0.68826 0.0
C963 C 0.80571 0.6417 0.69048 0.0
C964 C 0.83475 0.65673 0.62604 0.0
C965 C 0.84354 0.65422 0.60151 0.0
C966 C 0.83766 0.64476 0.61456 0.0
C967 C 0.83807 0.67851 0.6243 0.0
C968 C 0.84378 0.68792 0.61122 0.0
C969 C 0.84653 0.67587 0.59963 0.0
C970 C 0.8283 0.64632 0.6397 0.0
O971 O 0.84197 0.69436 0.66557 0.0
O972 O 0.83499 0.69938 0.68856 0.0
O973 O 0.88228 0.70962 0.68575 0.0
O974 O 0.87617 0.6833 0.6673 0.0
C975 C 0.83553 0.70407 0.67521 0.0
O976 O 0.84798 0.69854 0.71834 0.0
O977 O 0.87954 0.6974 0.71834 0.0
O978 O 0.86898 0.66118 0.69568 0.0
O979 O 0.84263 0.63648 0.67768 0.0
O980 O 0.80739 0.64625 0.67701 0.0
O981 O 0.82363 0.65155 0.69992 0.0
C982 C 0.88877 0.7036 0.67418 0.0
O983 O 0.84456 0.64588 0.6476 0.0
O984 O 0.81609 0.65211 0.64732 0.0
C985 C 0.86099 0.69046 0.73972 0.0
C986 C 0.84964 0.67109 0.76606 0.0
C987 C 0.86407 0.69468 0.76566 0.0
C988 C 0.86965 0.70425 0.75262 0.0
C989 C 0.84688 0.66689 0.74003 0.0
C990 C 0.84123 0.6573 0.75305 0.0
C991 C 0.86582 0.70086 0.72605 0.0
H992 H 0.84531 0.64438 0.59279 0.0
H993 H 0.83525 0.62798 0.61565 0.0
H994 H 0.83618 0.68824 0.63302 0.0
H995 H 0.84624 0.70473 0.61022 0.0
H996 H 0.87062 0.70587 0.77541 0.0
H997 H 0.88044 0.72249 0.75261 0.0
H998 H 0.84002 0.65593 0.73017 0.0
H999 H 0.83031 0.63906 0.75293 0.0
Tb1000 Tb 0.35706 0.17634 0.66821 0.0
Eu1001 Eu 0.3303 0.16416 0.69758 0.0
C1002 C 0.37468 0.21297 0.69447 0.0
C1003 C 0.37562 0.16078 0.69441 0.0
C1004 C 0.36615 0.18217 0.62978 0.0
C1005 C 0.36377 0.19993 0.6085 0.0
C1006 C 0.37235 0.20172 0.62264 0.0
C1007 C 0.35137 0.16071 0.62244 0.0
C1008 C 0.34296 0.15893 0.60827 0.0
C1009 C 0.34901 0.17851 0.60117 0.0
C1010 C 0.37505 0.18447 0.64484 0.0
O1011 O 0.32426 0.14551 0.66233 0.0
O1012 O 0.31745 0.13115 0.68406 0.0
O1013 O 0.30628 0.16714 0.68142 0.0
O1014 O 0.33349 0.18968 0.6669 0.0
C1015 C 0.31382 0.12836 0.6701 0.0
O1016 O 0.31577 0.14116 0.71415 0.0
O1017 O 0.31432 0.17222 0.7148 0.0
O1018 O 0.35434 0.20206 0.69937 0.0
O1019 O 0.38044 0.20377 0.68405 0.0
O1020 O 0.3716 0.15925 0.68046 0.0
O1021 O 0.36448 0.16678 0.703 0.0
C1022 C 0.31265 0.18082 0.67117 0.0
O1023 O 0.37421 0.19974 0.6533 0.0
O1024 O 0.3689 0.16575 0.65092 0.0
C1025 C 0.32034 0.15982 0.73664 0.0
C1026 C 0.33803 0.16665 0.76537 0.0
C1027 C 0.31413 0.15423 0.76158 0.0
C1028 C 0.30537 0.15083 0.74732 0.0
C1029 C 0.34417 0.17257 0.74036 0.0
C1030 C 0.35295 0.17597 0.7546 0.0
C1031 C 0.31121 0.15485 0.72161 0.0
H1032 H 0.36891 0.2153 0.60325 0.0
H1033 H 0.3838 0.21844 0.62801 0.0
H1034 H 0.34616 0.14527 0.62762 0.0
H1035 H 0.33144 0.14221 0.60291 0.0
H1036 H 0.30218 0.14708 0.76963 0.0
H1037 H 0.28693 0.14092 0.74461 0.0
H1038 H 0.35599 0.1795 0.73221 0.0
H1039 H 0.37144 0.18537 0.75713 0.0
Tb1040 Tb 0.8539 0.16814 0.6975 0.0
Eu1041 Eu 0.83645 0.1777 0.66646 0.0
C1042 C 0.8336 0.13081 0.67145 0.0
C1043 C 0.88704 0.18383 0.67294 0.0
C1044 C 0.85892 0.16478 0.73661 0.0
C1045 C 0.84436 0.14996 0.75907 0.0
C1046 C 0.85103 0.14718 0.74566 0.0
C1047 C 0.86035 0.18542 0.74129 0.0
C1048 C 0.85392 0.1883 0.7548 0.0
C1049 C 0.84561 0.17049 0.76377 0.0
C1050 C 0.864 0.16057 0.72207 0.0
O1051 O 0.86778 0.20474 0.69795 0.0
O1052 O 0.84161 0.20621 0.68205 0.0
O1053 O 0.80483 0.15989 0.6787 0.0
O1054 O 0.82362 0.17066 0.70115 0.0
C1055 C 0.85759 0.21541 0.69279 0.0
O1056 O 0.84117 0.20033 0.64972 0.0
O1057 O 0.81278 0.16558 0.64715 0.0
O1058 O 0.83943 0.14666 0.66267 0.0
O1059 O 0.83341 0.13521 0.68515 0.0
O1060 O 0.87986 0.17077 0.68353 0.0
O1061 O 0.87486 0.19208 0.66711 0.0
C1062 C 0.80465 0.16253 0.69262 0.0
O1063 O 0.84621 0.1459 0.71361 0.0
O1064 O 0.87777 0.17815 0.71555 0.0
C1065 C 0.83135 0.18149 0.62648 0.0
C1066 C 0.84516 0.17768 0.59906 0.0
C1067 C 0.84458 0.19725 0.60398 0.0
C1068 C 0.83769 0.19908 0.61751 0.0
C1069 C 0.83195 0.16194 0.62165 0.0
C1070 C 0.83866 0.16002 0.60808 0.0
C1071 C 0.82494 0.18414 0.64094 0.0
H1072 H 0.83824 0.13602 0.76579 0.0
H1073 H 0.84965 0.13109 0.74225 0.0
H1074 H 0.86607 0.19917 0.73444 0.0
H1075 H 0.85489 0.20424 0.75809 0.0
H1076 H 0.84983 0.21138 0.59749 0.0
H1077 H 0.83756 0.2144 0.62104 0.0
H1078 H 0.82731 0.14813 0.62837 0.0
H1079 H 0.83857 0.14457 0.60463 0.0
C1080 C 0.37109 0.88316 0.0648 0.0
C1081 C 0.34882 0.87698 0.05911 0.0
C1082 C 0.39065 0.8987 0.05841 0.0
C1083 C 0.38794 0.90832 0.04599 0.0
C1084 C 0.36553 0.90203 0.04013 0.0
C1085 C 0.34627 0.88648 0.04675 0.0
C1086 C 0.41424 0.90504 0.06506 0.0
C1087 C 0.36189 0.91185 0.0269 0.0
C1088 C 0.43877 0.9649 0.03847 0.0
C1089 C 0.44903 0.9583 0.02809 0.0
C1090 C 0.4187 0.94887 0.04417 0.0
C1091 C 0.40862 0.92556 0.03946 0.0
C1092 C 0.41861 0.91878 0.0288 0.0
C1093 C 0.43864 0.93523 0.0232 0.0
C1094 C 0.40854 0.95688 0.05543 0.0
C1095 C 0.40844 0.89409 0.02354 0.0
H1096 H 0.37325 0.87612 0.07442 0.0
H1097 H 0.32915 0.88154 0.04214 0.0
H1098 H 0.42396 0.90164 0.05709 0.0
H1099 H 0.42412 0.92349 0.06849 0.0
H1100 H 0.4134 0.89553 0.07444 0.0
H1101 H 0.34335 0.90488 0.02351 0.0
H1102 H 0.37022 0.93059 0.02888 0.0
H1103 H 0.37009 0.90826 0.018 0.0
H1104 H 0.44655 0.98267 0.04231 0.0
H1105 H 0.44649 0.92992 0.01525 0.0
H1106 H 0.40892 0.94936 0.06553 0.0
H1107 H 0.39025 0.95107 0.05206 0.0
H1108 H 0.41797 0.97567 0.05756 0.0
H1109 H 0.40903 0.88437 0.03249 0.0
H1110 H 0.41776 0.89165 0.01486 0.0
H1111 H 0.39009 0.88675 0.01958 0.0
C1112 C 0.12692 0.45378 0.06233 0.0
C1113 C 0.14944 0.47227 0.06501 0.0
C1114 C 0.10888 0.45662 0.05655 0.0
C1115 C 0.11338 0.47849 0.05336 0.0
C1116 C 0.136 0.49726 0.05621 0.0
C1117 C 0.1537 0.49393 0.06199 0.0
C1118 C 0.08503 0.43616 0.05367 0.0
C1119 C 0.14155 0.52088 0.05308 0.0
C1120 C 0.07287 0.48405 0.0261 0.0
C1121 C 0.05978 0.48954 0.03486 0.0
C1122 C 0.09017 0.48017 0.03197 0.0
C1123 C 0.09453 0.48178 0.04698 0.0
C1124 C 0.08121 0.48705 0.05588 0.0
C1125 C 0.06405 0.49087 0.04974 0.0
C1126 C 0.10398 0.47461 0.0221 0.0
C1127 C 0.08524 0.48892 0.07192 0.0
H1128 H 0.12348 0.43695 0.06446 0.0
H1129 H 0.17093 0.50839 0.06421 0.0
H1130 H 0.07259 0.43903 0.05942 0.0
H1131 H 0.07937 0.43357 0.04213 0.0
H1132 H 0.08423 0.4204 0.057 0.0
H1133 H 0.15995 0.53371 0.056 0.0
H1134 H 0.13743 0.52112 0.04156 0.0
H1135 H 0.13078 0.52595 0.05903 0.0
H1136 H 0.06977 0.48297 0.01461 0.0
H1137 H 0.05407 0.49505 0.05665 0.0
H1138 H 0.10267 0.45823 0.02441 0.0
H1139 H 0.12243 0.48786 0.02391 0.0
H1140 H 0.09812 0.47344 1.01068 0.0
H1141 H 0.08344 0.47287 0.07545 0.0
H1142 H 0.07305 0.49261 0.07736 0.0
H1143 H 0.10306 0.50263 0.07545 0.0
C1144 C 0.58157 0.67393 0.06478 0.0
C1145 C 0.5649 0.68018 0.06692 0.0
C1146 C 0.57563 0.65308 0.05736 0.0
C1147 C 0.55249 0.63816 0.05192 0.0
C1148 C 0.53574 0.64469 0.05365 0.0
C1149 C 0.54214 0.6656 0.06117 0.0
C1150 C 0.59395 0.64667 0.05579 0.0
C1151 C 0.51093 0.62933 0.04791 0.0
C1152 C 0.53916 0.58948 0.02431 0.0
C1153 C 0.53206 0.5712 0.03279 0.0
C1154 C 0.54589 0.61141 0.03036 0.0
C1155 C 0.54551 0.61513 0.04524 0.0
C1156 C 0.53837 0.59676 0.05384 0.0
C1157 C 0.53174 0.57507 0.04752 0.0
C1158 C 0.55342 0.63061 0.02087 0.0
C1159 C 0.5377 0.6 0.06975 0.0
H1160 H 0.59914 0.68503 0.06932 0.0
H1161 H 0.52927 0.6705 0.06261 0.0
H1162 H 0.58998 0.63174 0.06179 0.0
H1163 H 0.5942 0.64172 0.04444 0.0
H1164 H 0.61139 0.66075 0.05981 0.0
H1165 H 0.50034 0.63751 0.04937 0.0
H1166 H 0.50985 0.62433 0.03639 0.0
H1167 H 0.50337 0.61352 0.05344 0.0
H1168 H 0.53949 0.58667 0.01292 0.0
H1169 H 0.5263 0.56111 0.0542 0.0
H1170 H 0.57128 0.64418 0.02442 0.0
H1171 H 0.54226 0.63826 0.02168 0.0
H1172 H 0.55272 0.62492 1.0095 0.0
H1173 H 0.55505 0.61283 0.07473 0.0
H1174 H 0.5319 0.58398 0.07494 0.0
H1175 H 0.52589 0.60651 0.07196 0.0
C1176 C 0.87624 0.34495 0.96605 0.0
C1177 C 0.88412 0.33024 0.96161 0.0
C1178 C 0.89125 0.36614 0.97359 0.0
C1179 C 0.9147 0.37279 0.97678 0.0
C1180 C 0.92262 0.35779 0.97263 0.0
C1181 C 0.90725 0.33673 0.96511 0.0
C1182 C 0.88214 0.38165 0.97783 0.0
C1183 C 0.94745 0.36417 0.97588 0.0
C1184 C 0.95905 0.43578 0.9826 0.0
C1185 C 0.96324 0.43922 0.99752 0.0
C1186 C 0.9432 0.41431 0.97575 0.0
C1187 C 0.93118 0.39576 0.98398 0.0
C1188 C 0.93521 0.3991 0.99904 0.0
C1189 C 0.95119 0.42078 1.00562 0.0
C1190 C 0.93943 0.41146 0.95966 0.0
C1191 C 0.9227 0.37976 1.00819 0.0
H1192 H 0.85847 0.34018 0.96327 0.0
H1193 H 0.91339 0.32531 0.96191 0.0
H1194 H 0.88607 0.38679 0.98945 0.0
H1195 H 0.8908 0.39738 0.97227 0.0
H1196 H 0.86326 0.37353 0.97518 0.0
H1197 H 0.95068 0.35027 0.97237 0.0
H1198 H 0.95878 0.37944 0.97047 0.0
H1199 H 0.95246 0.36855 0.9875 0.0
H1200 H 0.96822 0.44988 0.97621 0.0
H1201 H 0.95424 0.42323 0.01715 0.0
H1202 H 0.921 0.40485 0.95624 0.0
H1203 H 0.94392 0.39882 0.9554 0.0
H1204 H 0.9499 0.42765 0.95482 0.0
H1205 H 0.90383 0.37234 1.00604 0.0
H1206 H 0.92752 0.38523 0.01976 0.0
H1207 H 0.92662 0.36608 1.00548 0.0
C1208 C 0.6653 0.52144 0.97538 0.0
C1209 C 0.67894 0.54196 0.96939 0.0
C1210 C 0.64537 0.51731 0.98185 0.0
C1211 C 0.63881 0.53411 0.98244 0.0
C1212 C 0.65264 0.55498 0.9766 0.0
C1213 C 0.67248 0.55864 0.97016 0.0
C1214 C 0.63117 0.49484 0.98794 0.0
C1215 C 0.64625 0.57332 0.97694 0.0
C1216 C 0.57557 0.51477 0.9855 0.0
C1217 C 0.57522 0.52001 1.00007 0.0
C1218 C 0.59607 0.5193 0.97968 0.0
C1219 C 0.61695 0.52943 0.98858 0.0
C1220 C 0.61681 0.53482 1.00329 0.0
C1221 C 0.59596 0.53 1.00887 0.0
C1222 C 0.59533 0.51313 0.96396 0.0
C1223 C 0.63871 0.54572 0.01313 0.0
H1224 H 0.67032 0.50858 0.9751 0.0
H1225 H 0.68272 0.57446 0.96546 0.0
H1226 H 0.62928 0.49769 0.99936 0.0
H1227 H 0.61362 0.48568 0.9823 0.0
H1228 H 0.63892 0.48379 0.987 0.0
H1229 H 0.65931 0.58896 0.97252 0.0
H1230 H 0.62943 0.56699 0.97068 0.0
H1231 H 0.64425 0.57777 0.98805 0.0
H1232 H 0.55971 0.50699 0.97855 0.0
H1233 H 0.59595 0.53417 0.02011 0.0
H1234 H 0.60145 0.50081 0.96248 0.0
H1235 H 0.60705 0.52845 0.95872 0.0
H1236 H 0.57774 0.50555 0.95845 0.0
H1237 H 0.64637 0.53458 0.01312 0.0
H1238 H 0.63579 0.54905 0.02427 0.0
H1239 H 0.65151 0.56204 1.00928 0.0
C1240 C 0.46205 0.12576 0.98857 0.0
C1241 C 0.47444 0.1383 0.9776 0.0
C1242 C 0.46601 0.10911 0.99403 0.0
C1243 C 0.48288 0.10501 0.98846 0.0
C1244 C 0.49546 0.11764 0.9774 0.0
C1245 C 0.49104 0.13408 0.97208 0.0
C1246 C 0.45209 0.09583 1.00573 0.0
C1247 C 0.51371 0.11387 0.97125 0.0
C1248 C 0.50866 0.07687 1.01079 0.0
C1249 C 0.49696 0.05451 1.00437 0.0
C1250 C 0.5041 0.09344 1.0058 0.0
C1251 C 0.48737 0.08748 0.99416 0.0
C1252 C 0.47526 0.06488 0.98777 0.0
C1253 C 0.48024 0.04869 0.99292 0.0
C1254 C 0.51746 0.1174 0.01285 0.0
C1255 C 0.45722 0.05785 0.97537 0.0
H1256 H 0.44902 0.1288 0.99276 0.0
H1257 H 0.50085 0.14392 0.96372 0.0
H1258 H 0.44253 0.07741 1.00217 0.0
H1259 H 0.46372 0.09824 0.01527 0.0
H1260 H 0.43957 0.10102 1.00887 0.0
H1261 H 0.52201 0.12516 0.96272 0.0
H1262 H 0.5272 0.11697 0.9798 0.0
H1263 H 0.50602 0.09597 0.96677 0.0
H1264 H 0.52166 0.08158 0.01961 0.0
H1265 H 0.47107 0.03147 0.98787 0.0
H1266 H 0.50544 0.12272 0.01677 0.0
H1267 H 0.52739 0.12926 1.00495 0.0
H1268 H 0.5296 0.11918 0.02195 0.0
H1269 H 0.44377 0.06182 0.97832 0.0
H1270 H 0.44882 0.03943 0.97189 0.0
H1271 H 0.46517 0.0676 0.9662 0.0
C1272 C 0.67465 0.1096 0.97379 0.0
C1273 C 0.68118 0.13266 0.97408 0.0
C1274 C 0.65505 0.09407 0.98015 0.0
C1275 C 0.64157 0.10173 0.98699 0.0
C1276 C 0.64832 0.12505 0.98758 0.0
C1277 C 0.668 0.1402 0.98114 0.0
C1278 C 0.64841 0.06934 0.97923 0.0
C1279 C 0.63448 0.13395 0.99477 0.0
C1280 C 0.5782 0.05923 0.98904 0.0
C1281 C 0.57764 0.05369 1.00323 0.0
C1282 C 0.59883 0.07477 0.98369 0.0
C1283 C 0.61961 0.08514 0.99269 0.0
C1284 C 0.61926 0.07971 1.00703 0.0
C1285 C 0.59827 0.06407 0.01214 0.0
C1286 C 0.59834 0.0801 0.96836 0.0
C1287 C 0.64107 0.09037 0.01695 0.0
H1288 H 0.68457 0.10355 0.96827 0.0
H1289 H 0.67312 0.15804 0.98166 0.0
H1290 H 0.64619 0.06316 0.99002 0.0
H1291 H 0.63165 0.05902 0.97275 0.0
H1292 H 0.66144 0.06633 0.97434 0.0
H1293 H 0.64264 0.1527 0.99493 0.0
H1294 H 0.617 0.12608 0.98911 0.0
H1295 H 0.63237 0.12921 1.0059 0.0
H1296 H 0.56243 0.0514 0.98201 0.0
H1297 H 0.59807 0.05991 0.02309 0.0
H1298 H 0.60984 0.07594 0.96251 0.0
H1299 H 0.60485 0.09853 0.96791 0.0
H1300 H 0.58075 0.07052 0.96274 0.0
H1301 H 0.65372 0.08636 0.01251 0.0
H1302 H 0.63795 0.08438 0.02778 0.0
H1303 H 0.64901 0.10913 0.01788 0.0
C1304 C 0.89653 0.55728 0.97118 0.0
C1305 C 0.88256 0.54258 0.95933 0.0
C1306 C 0.91196 0.55294 0.97919 0.0
C1307 C 0.91345 0.53338 0.97532 0.0
C1308 C 0.89908 0.51824 0.96355 0.0
C1309 C 0.88386 0.52303 0.95571 0.0
C1310 C 0.92704 0.56956 0.99162 0.0
C1311 C 0.89999 0.49712 0.95911 0.0
C1312 C 0.96872 0.53313 0.98617 0.0
C1313 C 0.96272 0.52013 0.99795 0.0
C1314 C 0.95294 0.53769 0.97881 0.0
C1315 C 0.93053 0.52907 0.98329 0.0
C1316 C 0.92439 0.51608 0.99522 0.0
C1317 C 0.94052 0.51175 1.00239 0.0
C1318 C 0.9602 0.55156 0.96613 0.0
C1319 C 0.90068 0.50655 1.00033 0.0
H1320 H 0.89586 0.57256 0.97397 0.0
H1321 H 0.87291 0.5114 0.9467 0.0
H1322 H 0.92473 0.56064 1.00144 0.0
H1323 H 0.9454 0.57713 0.98956 0.0
H1324 H 0.9232 0.5835 0.9936 0.0
H1325 H 0.88719 0.48671 0.94999 0.0
H1326 H 0.91742 0.5019 0.95602 0.0
H1327 H 0.89676 0.48651 0.96819 0.0
H1328 H 0.98574 0.53962 0.98257 0.0
H1329 H 0.93564 0.50166 0.01144 0.0
H1330 H 0.95817 0.56668 0.96782 0.0
H1331 H 0.94895 0.54135 0.95643 0.0
H1332 H 0.97836 0.55736 0.96415 0.0
H1333 H 0.89709 0.52049 1.00292 0.0
H1334 H 0.8987 0.49711 1.00991 0.0
H1335 H 0.8875 0.4949 0.99172 0.0
C1336 C 0.45896 0.33439 0.97622 0.0
C1337 C 0.46913 0.33498 0.96352 0.0
C1338 C 0.46403 0.35455 0.98423 0.0
C1339 C 0.47968 0.37576 0.97943 0.0
C1340 C 0.49048 0.37643 0.96683 0.0
C1341 C 0.48505 0.35604 0.95903 0.0
C1342 C 0.45213 0.35316 0.99758 0.0
C1343 C 0.50739 0.39871 0.96142 0.0
C1344 C 0.47529 0.42794 0.98965 0.0
C1345 C 0.49371 0.43974 1.00022 0.0
C1346 C 0.47021 0.40684 0.98307 0.0
C1347 C 0.48392 0.39729 0.98711 0.0
C1348 C 0.5022 0.40882 0.998 0.0
C1349 C 0.50686 0.42991 1.00444 0.0
C1350 C 0.4505 0.39502 0.97154 0.0
C1351 C 0.5172 0.39917 1.00257 0.0
H1352 H 0.44651 0.31817 0.97968 0.0
H1353 H 0.49323 0.35658 0.94935 0.0
H1354 H 0.46499 0.36325 1.00671 0.0
H1355 H 0.44081 0.36056 0.9961 0.0
H1356 H 0.44151 0.3354 1.00034 0.0
H1357 H 0.51512 0.39629 0.95183 0.0
H1358 H 0.49859 0.4083 0.95866 0.0
H1359 H 0.52144 0.40933 0.96986 0.0
H1360 H 0.46494 0.43531 0.98634 0.0
H1361 H 0.52114 0.43889 0.01259 0.0
H1362 H 0.43838 0.3775 0.97411 0.0
H1363 H 0.45717 0.39365 0.96125 0.0
H1364 H 0.44082 0.40418 0.97013 0.0
H1365 H 0.50642 0.38164 1.00562 0.0
H1366 H 0.52993 0.40962 0.01171 0.0
H1367 H 0.52664 0.39817 0.99352 0.0
C1368 C 0.12608 0.67619 0.05951 0.0
C1369 C 0.14263 0.6779 0.06998 0.0
C1370 C 0.10997 0.65514 0.05224 0.0
C1371 C 0.1103 0.63527 0.05557 0.0
C1372 C 0.12719 0.63693 0.06597 0.0
C1373 C 0.14318 0.65822 0.07301 0.0
C1374 C 0.09239 0.65413 0.04112 0.0
C1375 C 0.12803 0.61613 0.06989 0.0
C1376 C 0.05495 0.57838 0.04781 0.0
C1377 C 0.05904 0.56948 0.03526 0.0
C1378 C 0.07147 0.59975 0.0545 0.0
C1379 C 0.09258 0.61265 0.04847 0.0
C1380 C 0.09676 0.60387 0.03576 0.0
C1381 C 0.08 0.58237 0.02934 0.0
C1382 C 0.06639 0.60844 0.06809 0.0
C1383 C 0.11899 0.61715 0.02896 0.0
H1384 H 0.12573 0.69137 0.057 0.0
H1385 H 0.15573 0.65936 0.08121 0.0
H1386 H 0.09327 0.64608 0.03083 0.0
H1387 H 0.07481 0.64346 0.04444 0.0
H1388 H 0.09497 0.67122 0.0394 0.0
H1389 H 0.14265 0.62038 0.07789 0.0
H1390 H 0.11177 0.60416 0.07431 0.0
H1391 H 0.1296 0.60714 0.06025 0.0
H1392 H 0.0389 0.56855 0.05253 0.0
H1393 H 0.08333 0.5757 0.01963 0.0
H1394 H 0.0672 0.62487 0.06668 0.0
H1395 H 0.07962 0.61159 0.07684 0.0
H1396 H 0.04916 0.59633 0.07141 0.0
H1397 H 0.12139 0.63392 0.02654 0.0
H1398 H 0.11945 0.60811 0.01895 0.0
H1399 H 0.13377 0.62041 0.03649 0.0
C1400 C 0.37009 0.48687 0.07136 0.0
C1401 C 0.3504 0.46516 0.06938 0.0
C1402 C 0.38935 0.49239 0.06371 0.0
C1403 C 0.38895 0.47586 0.05374 0.0
C1404 C 0.36889 0.45413 0.05142 0.0
C1405 C 0.34994 0.44903 0.05928 0.0
C1406 C 0.41042 0.51569 0.06662 0.0
C1407 C 0.36762 0.43606 0.04084 0.0
C1408 C 0.43366 0.49504 0.02645 0.0
C1409 C 0.44987 0.49 0.03264 0.0
C1410 C 0.41371 0.49047 0.03313 0.0
C1411 C 0.40995 0.48083 0.0464 0.0
C1412 C 0.42632 0.47584 0.05271 0.0
C1413 C 0.44594 0.48037 0.04575 0.0
C1414 C 0.39664 0.49594 0.02601 0.0
C1415 C 0.42319 0.46579 0.0669 0.0
H1416 H 0.37074 0.49937 0.07924 0.0
H1417 H 0.3347 0.43233 0.05753 0.0
H1418 H 0.42504 0.51417 0.07129 0.0
H1419 H 0.41556 0.52379 0.05651 0.0
H1420 H 0.40757 0.52702 0.07408 0.0
H1421 H 0.35035 0.42051 0.03964 0.0
H1422 H 0.3718 0.44271 0.03025 0.0
H1423 H 0.38056 0.43133 0.04434 0.0
H1424 H 0.4365 0.50249 0.01634 0.0
H1425 H 0.45838 0.47658 0.05075 0.0
H1426 H 0.3947 0.50826 0.0331 0.0
H1427 H 0.37948 0.48034 0.02412 0.0
H1428 H 0.40193 0.5032 0.01567 0.0
H1429 H 0.42176 0.4771 0.07516 0.0
H1430 H 0.43767 0.46321 0.07049 0.0
H1431 H 0.40696 0.44918 0.06614 0.0
C1432 C 0.5368 0.86778 0.04348 0.0
C1433 C 0.5581 0.87483 0.05109 0.0
C1434 C 0.53137 0.88362 0.03824 0.0
C1435 C 0.54765 0.90711 0.04066 0.0
C1436 C 0.56936 0.91433 0.04809 0.0
C1437 C 0.57431 0.89811 0.05325 0.0
C1438 C 0.50797 0.87526 0.03046 0.0
C1439 C 0.58721 0.93922 0.05083 0.0
C1440 C 0.5399 0.94828 0.01836 0.0
C1441 C 0.52983 0.95667 0.02775 0.0
C1442 C 0.54585 0.93215 0.02241 0.0
C1443 C 0.54148 0.92415 0.03611 0.0
C1444 C 0.53114 0.93242 0.04557 0.0
C1445 C 0.5255 0.94859 0.0413 0.0
C1446 C 0.55693 0.92375 0.01206 0.0
C1447 C 0.52604 0.92423 0.06025 0.0
H1448 H 0.52409 0.84984 0.04192 0.0
H1449 H 0.59091 0.90365 0.05895 0.0
H1450 H 0.49822 0.88141 0.03661 0.0
H1451 H 0.50984 0.88218 0.01991 0.0
H1452 H 0.49771 0.85642 0.02883 0.0
H1453 H 0.60365 0.94198 0.05616 0.0
H1454 H 0.59075 0.94729 0.04064 0.0
H1455 H 0.58057 0.94801 0.05767 0.0
H1456 H 0.54335 0.95445 1.0079 0.0
H1457 H 0.51763 0.95486 0.04863 0.0
H1458 H 0.54628 0.90504 1.00982 0.0
H1459 H 0.57404 0.92754 0.01684 0.0
H1460 H 0.55918 0.93164 1.0018 0.0
H1461 H 0.5145 0.90553 0.05935 0.0
H1462 H 0.51777 0.93224 0.06628 0.0
H1463 H 0.54221 0.92803 0.06648 0.0
C1464 C 0.02629 0.2035 0.38309 0.0
C1465 C 0.01332 0.21113 0.39031 0.0
C1466 C 0.04615 0.21866 0.3768 0.0
C1467 C 0.05328 0.24209 0.37769 0.0
C1468 C 0.03999 0.24984 0.38466 0.0
C1469 C 0.0202 0.2343 0.39088 0.0
C1470 C 0.0598 0.20966 0.36947 0.0
C1471 C 0.04701 0.27468 0.38589 0.0
C1472 C 0.11698 0.28395 0.3762 0.0
C1473 C 0.11793 0.29001 0.36212 0.0
C1474 C 0.09613 0.26845 0.38134 0.0
C1475 C 0.07549 0.25864 0.37222 0.0
C1476 C 0.07623 0.26458 0.35798 0.0
C1477 C 0.09744 0.28017 0.35309 0.0
C1478 C 0.09622 0.26258 0.39657 0.0
C1479 C 0.05459 0.25453 0.34795 0.0
H1480 H 0.0209 0.18559 0.38233 0.0
H1481 H 1.01045 0.24042 0.39653 0.0
H1482 H 0.0622 0.21481 0.35844 0.0
H1483 H 0.07717 0.21707 0.37522 0.0
H1484 H 0.05132 0.19085 0.36903 0.0
H1485 H 0.03404 0.27777 0.39078 0.0
H1486 H 0.06367 0.28461 0.39252 0.0
H1487 H 0.04959 0.28123 0.37521 0.0
H1488 H 0.13263 0.29133 0.38333 0.0
H1489 H 0.09793 0.28474 0.34222 0.0
H1490 H 0.08943 0.24406 0.39678 0.0
H1491 H 0.08475 0.26675 0.40246 0.0
H1492 H 0.11372 0.27181 0.40232 0.0
H1493 H 0.04633 0.23575 0.34678 0.0
H1494 H 0.05802 0.26086 0.33721 0.0
H1495 H 0.04208 0.25871 0.35242 0.0
C1496 C 0.82198 0.82846 0.39397 0.0
C1497 C 0.81751 0.80698 0.39758 0.0
C1498 C 0.80431 0.8318 0.38816 0.0
C1499 C 0.7815 0.81322 0.38588 0.0
C1500 C 0.77679 0.79154 0.38964 0.0
C1501 C 0.79482 0.78869 0.39545 0.0
C1502 C 0.81008 0.85523 0.38441 0.0
C1503 C 0.75273 0.77129 0.38737 0.0
C1504 C 0.73289 0.82666 0.38231 0.0
C1505 C 0.728 0.82449 0.36745 0.0
C1506 C 0.75001 0.82277 0.38844 0.0
C1507 C 0.76264 0.81654 0.37953 0.0
C1508 C 0.75762 0.81406 0.36453 0.0
C1509 C 0.7404 0.81807 0.35868 0.0
C1510 C 0.75477 0.82562 0.40447 0.0
C1511 C 0.77066 0.80744 0.35465 0.0
H1512 H 0.83937 0.84279 0.39577 0.0
H1513 H 0.79121 0.77198 0.39804 0.0
H1514 H 0.80546 0.85475 0.37288 0.0
H1515 H 0.79985 0.86101 0.39034 0.0
H1516 H 0.82864 0.86792 0.3869 0.0
H1517 H 0.75182 0.75566 0.39105 0.0
H1518 H 0.74077 0.77482 0.39318 0.0
H1519 H 0.74654 0.76806 0.37589 0.0
H1520 H 0.72345 0.83158 0.38923 0.0
H1521 H 0.7368 0.81632 0.3472 0.0
H1522 H 0.77278 0.83927 0.40757 0.0
H1523 H 0.75288 0.80974 0.40837 0.0
H1524 H 0.74303 0.82995 0.40993 0.0
H1525 H 0.78922 0.82047 0.35602 0.0
H1526 H 0.7643 0.8056 0.34327 0.0
H1527 H 0.76917 0.79113 0.35737 0.0
C1528 C 0.20948 0.99982 0.39416 0.0
C1529 C 0.23179 0.01325 0.40093 0.0
C1530 C 0.20283 0.97894 0.38653 0.0
C1531 C 0.21889 0.97134 0.38562 0.0
C1532 C 0.24164 0.98514 0.39206 0.0
C1533 C 0.2478 0.00591 0.39966 0.0
C1534 C 0.17839 0.96466 0.37984 0.0
C1535 C 0.2593 0.97768 0.39126 0.0
C1536 C 0.19618 0.90791 0.38048 0.0
C1537 C 0.19812 0.90466 0.36591 0.0
C1538 C 0.20273 0.92949 0.38697 0.0
C1539 C 0.21153 0.94835 0.37871 0.0
C1540 C 0.21348 0.94523 0.364 0.0
C1541 C 0.20672 0.92339 0.35776 0.0
C1542 C 0.20032 0.9321 0.40269 0.0
C1543 C 0.22282 0.96497 0.35487 0.0
H1544 H 0.19697 0.0053 0.39522 0.0
H1545 H 0.26517 0.01639 0.40469 0.0
H1546 H 0.17827 0.95983 0.36841 0.0
H1547 H 0.16946 0.9487 0.38515 0.0
H1548 H 0.16846 0.97364 0.38072 0.0
H1549 H 0.27659 0.99096 0.39611 0.0
H1550 H 0.25377 0.96211 0.39688 0.0
H1551 H 0.2607 0.97337 0.37999 0.0
H1552 H 0.18952 0.89357 0.38689 0.0
H1553 H 0.2083 0.92105 0.3465 0.0
H1554 H 0.18913 0.93953 0.40435 0.0
H1555 H 0.21741 0.94396 0.40842 0.0
H1556 H 0.19288 0.91566 0.40755 0.0
H1557 H 0.21226 0.9733 0.35526 0.0
H1558 H 0.22303 0.95967 0.34357 0.0
H1559 H 0.24062 0.97788 0.3591 0.0
C1560 C 0.57389 0.672 0.29787 0.0
C1561 C 0.55084 0.66583 0.29436 0.0
C1562 C 0.58946 0.69298 0.30542 0.0
C1563 C 0.58184 0.70822 0.30959 0.0
C1564 C 0.55848 0.70188 0.3064 0.0
C1565 C 0.54326 0.68077 0.29884 0.0
C1566 C 0.61418 0.69901 0.30869 0.0
C1567 C 0.54969 0.71766 0.31064 0.0
C1568 C 0.61883 0.75616 0.3384 0.0
C1569 C 0.63106 0.77453 0.33027 0.0
C1570 C 0.60263 0.73453 0.33184 0.0
C1571 C 0.59857 0.73114 0.31678 0.0
C1572 C 0.61079 0.74962 0.30853 0.0
C1573 C 0.62684 0.77104 0.31535 0.0
C1574 C 0.58993 0.71527 0.34102 0.0
C1575 C 0.607 0.74674 0.29245 0.0
H1576 H 0.57981 0.66041 0.29466 0.0
H1577 H 0.52556 0.67624 0.29605 0.0
H1578 H 0.62568 0.7142 0.30326 0.0
H1579 H 0.61922 0.70339 0.32031 0.0
H1580 H 0.61716 0.68493 0.3052 0.0
H1581 H 0.53082 0.70976 0.30801 0.0
H1582 H 0.55367 0.7228 0.32226 0.0
H1583 H 0.55852 0.73337 0.30508 0.0
H1584 H 0.62189 0.75864 0.34993 0.0
H1585 H 0.63615 0.78507 0.30894 0.0
H1586 H 0.59359 0.70142 0.33831 0.0
H1587 H 0.57109 0.70809 0.33888 0.0
H1588 H 0.59481 0.72075 0.35258 0.0
H1589 H 0.61124 0.73391 0.2882 0.0
H1590 H 0.61764 0.76287 0.28758 0.0
H1591 H 0.58861 0.74037 0.28903 0.0
C1592 C 0.33994 0.89126 0.30451 0.0
C1593 C 0.3452 0.87377 0.30315 0.0
C1594 C 0.31988 0.88791 0.31056 0.0
C1595 C 0.30459 0.86652 0.31534 0.0
C1596 C 0.30977 0.84879 0.31395 0.0
C1597 C 0.32993 0.85261 0.3079 0.0
C1598 C 0.31503 0.90728 0.31183 0.0
C1599 C 0.29389 0.82566 0.31877 0.0
C1600 C 0.26143 0.8616 0.34175 0.0
C1601 C 0.2411 0.85341 0.33274 0.0
C1602 C 0.28226 0.86617 0.33624 0.0
C1603 C 0.28282 0.8624 0.32137 0.0
C1604 C 0.26238 0.85421 0.31223 0.0
C1605 C 0.24188 0.84986 0.318 0.0
C1606 C 0.30367 0.87494 0.34635 0.0
C1607 C 0.26209 0.84985 0.29633 0.0
H1608 H 0.35171 0.90774 0.30105 0.0
H1609 H 0.3336 0.83885 0.30671 0.0
H1610 H 0.29843 0.90237 0.30572 0.0
H1611 H 0.31337 0.91111 0.32314 0.0
H1612 H 0.32878 0.92297 0.30783 0.0
H1613 H 0.3006 0.8138 0.31724 0.0
H1614 H 0.2914 0.82726 0.33022 0.0
H1615 H 0.27672 0.81809 0.31272 0.0
H1616 H 0.2611 0.86446 0.35313 0.0
H1617 H 0.22637 0.84354 0.31087 0.0
H1618 H 0.31745 0.89135 0.34318 0.0
H1619 H 0.31015 0.86283 0.34577 0.0
H1620 H 0.30054 0.87745 0.35757 0.0
H1621 H 0.27479 0.86561 0.29188 0.0
H1622 H 0.24487 0.84382 0.29065 0.0
H1623 H 0.2672 0.8369 0.2941 0.0
C1624 C 0.1617 0.47477 0.31622 0.0
C1625 C 0.13902 0.47037 0.31396 0.0
C1626 C 0.16643 0.45855 0.32157 0.0
C1627 C 0.14802 0.43733 0.32462 0.0
C1628 C 0.12509 0.43291 0.32255 0.0
C1629 C 0.12087 0.44954 0.31731 0.0
C1630 C 0.19113 0.46398 0.32376 0.0
C1631 C 0.10499 0.41039 0.32553 0.0
C1632 C 0.15927 0.388 0.32333 0.0
C1633 C 0.16327 0.38623 0.33785 0.0
C1634 C 0.15394 0.40431 0.31892 0.0
C1635 C 0.15273 0.41938 0.32927 0.0
C1636 C 0.15651 0.41758 0.34395 0.0
C1637 C 0.16164 0.40094 0.34807 0.0
C1638 C 0.14982 0.40553 0.30317 0.0
C1639 C 0.15552 0.43348 0.35527 0.0
H1640 H 0.17578 0.49098 0.31383 0.0
H1641 H 0.1033 0.44602 0.31547 0.0
H1642 H 0.19513 0.46154 0.33488 0.0
H1643 H 0.19375 0.45218 0.31661 0.0
H1644 H 0.20351 0.48168 0.32158 0.0
H1645 H 0.0883 0.40999 0.32395 0.0
H1646 H 0.10424 0.39656 0.31836 0.0
H1647 H 0.10727 0.40673 0.33664 0.0
H1648 H 0.16028 0.3766 0.31534 0.0
H1649 H 0.16476 0.39973 0.3593 0.0
H1650 H 0.1628 0.42236 0.30002 0.0
H1651 H 0.13263 0.40374 0.30077 0.0
H1652 H 0.15077 0.39214 0.29651 0.0
H1653 H 0.16877 0.45126 0.35392 0.0
H1654 H 0.15841 0.42956 0.36622 0.0
H1655 H 0.13853 0.43248 0.35412 0.0
C1656 C 0.34779 0.45303 0.3152 0.0
C1657 C 0.34665 0.46711 0.30521 0.0
C1658 C 0.32803 0.43726 0.32131 0.0
C1659 C 0.30654 0.43551 0.3174 0.0
C1660 C 0.30525 0.44964 0.30731 0.0
C1661 C 0.32528 0.46522 0.30132 0.0
C1662 C 0.33013 0.42238 0.33192 0.0
C1663 C 0.2827 0.44837 0.30287 0.0
C1664 C 0.25167 0.38067 0.3227 0.0
C1665 C 0.24487 0.3865 0.33533 0.0
C1666 C 0.27167 0.3964 0.3168 0.0
C1667 C 0.28533 0.4186 0.32366 0.0
C1668 C 0.27869 0.4246 0.33644 0.0
C1669 C 0.25856 0.4085 0.34213 0.0
C1670 C 0.27811 0.38928 0.30316 0.0
C1671 C 0.29277 0.44811 0.34407 0.0
H1672 H 0.36415 0.45416 0.31813 0.0
H1673 H 0.32428 0.47622 0.29377 0.0
H1674 H 0.32403 0.42491 0.34218 0.0
H1675 H 0.31904 0.40423 0.32793 0.0
H1676 H 0.34811 0.42598 0.33394 0.0
H1677 H 0.28461 0.46065 0.295 0.0
H1678 H 0.27001 0.43099 0.29812 0.0
H1679 H 0.27548 0.45186 0.31235 0.0
H1680 H 0.24125 0.36379 0.31729 0.0
H1681 H 0.25348 0.41324 0.35185 0.0
H1682 H 0.29557 0.39146 0.30486 0.0
H1683 H 0.27864 0.40028 0.29474 0.0
H1684 H 0.26579 0.37131 0.29923 0.0
H1685 H 0.31061 0.45186 0.34693 0.0
H1686 H 0.28537 0.45008 0.35393 0.0
H1687 H 0.29384 0.46095 0.3369 0.0
C1688 C 0.55105 0.85753 0.28902 0.0
C1689 C 0.5502 0.8774 0.29239 0.0
C1690 C 0.56646 0.85287 0.29676 0.0
C1691 C 0.58151 0.86847 0.30816 0.0
C1692 C 0.58053 0.8884 0.31176 0.0
C1693 C 0.56489 0.8926 0.30386 0.0
C1694 C 0.5668 0.83134 0.29262 0.0
C1695 C 0.59634 0.90553 0.32378 0.0
C1696 C 0.6091 0.8476 0.33543 0.0
C1697 C 0.631 0.85532 0.33064 0.0
C1698 C 0.59292 0.85191 0.32831 0.0
C1699 C 0.59868 0.8642 0.31607 0.0
C1700 C 0.62077 0.87214 0.31122 0.0
C1701 C 0.63663 0.86763 0.31855 0.0
C1702 C 0.56955 0.84312 0.33382 0.0
C1703 C 0.62762 0.88522 0.29819 0.0
H1704 H 0.53956 0.84552 0.28031 0.0
H1705 H 0.56457 0.90811 0.30645 0.0
H1706 H 0.58398 0.83562 0.28929 0.0
H1707 H 0.56381 0.82121 0.30193 0.0
H1708 H 0.55357 0.82065 0.28376 0.0
H1709 H 0.59295 0.9198 0.32555 0.0
H1710 H 0.59434 0.89717 0.33382 0.0
H1711 H 0.61452 0.91257 0.3214 0.0
H1712 H 0.60452 0.83806 0.34473 0.0
H1713 H 0.65341 0.8736 0.31467 0.0
H1714 H 0.55593 0.83121 0.3255 0.0
H1715 H 0.5664 0.85739 0.33623 0.0
H1716 H 0.56786 0.83417 0.34359 0.0
H1717 H 0.61588 0.87463 0.28874 0.0
H1718 H 0.64557 0.89055 0.29593 0.0
H1719 H 0.62596 0.90059 0.29965 0.0
C1720 C 0.11331 0.66708 0.30754 0.0
C1721 C 0.12886 0.66461 0.29935 0.0
C1722 C 0.11937 0.68809 0.31477 0.0
C1723 C 0.14138 0.70711 0.31361 0.0
C1724 C 0.15729 0.7046 0.30556 0.0
C1725 C 0.15087 0.68333 0.29859 0.0
C1726 C 0.10206 0.69004 0.3234 0.0
C1727 C 0.18081 0.72454 0.30393 0.0
C1728 C 0.14767 0.7656 0.31847 0.0
C1729 C 0.15908 0.77352 0.33221 0.0
C1730 C 0.14187 0.74405 0.31231 0.0
C1731 C 0.14733 0.72991 0.32014 0.0
C1732 C 0.15863 0.73768 0.33407 0.0
C1733 C 0.16454 0.75949 0.33991 0.0
C1734 C 0.1301 0.7365 0.29735 0.0
C1735 C 0.16447 0.72296 0.3428 0.0
H1736 H 0.09637 0.65255 0.30826 0.0
H1737 H 0.16284 0.68151 0.29215 0.0
H1738 H 0.10985 0.69753 0.3344 0.0
H1739 H 0.09701 0.70161 0.31857 0.0
H1740 H 0.0863 0.67334 0.324 0.0
H1741 H 0.19151 0.71954 0.29781 0.0
H1742 H 0.17898 0.73757 0.29833 0.0
H1743 H 0.19007 0.73261 0.31455 0.0
H1744 H 0.14357 0.77641 0.3124 0.0
H1745 H 0.17327 0.76547 0.35055 0.0
H1746 H 0.11323 0.7207 0.29736 0.0
H1747 H 0.14067 0.73259 0.29036 0.0
H1748 H 0.12721 0.7496 0.29267 0.0
H1749 H 0.14862 0.70664 0.34398 0.0
H1750 H 0.17279 0.7313 0.35358 0.0
H1751 H 0.17625 0.71886 0.33723 0.0
C1752 C 0.80961 0.99112 0.40798 0.0
C1753 C 0.81176 0.01163 0.40405 0.0
C1754 C 0.79362 0.97027 0.40046 0.0
C1755 C 0.77938 0.96985 0.3887 0.0
C1756 C 0.78183 0.99053 0.38445 0.0
C1757 C 0.79799 0.01116 0.39217 0.0
C1758 C 0.79168 0.94863 0.40528 0.0
C1759 C 0.76695 0.99081 0.37199 0.0
C1760 C 0.74961 0.91644 0.36285 0.0
C1761 C 0.72757 0.90483 0.36769 0.0
C1762 C 0.76655 0.93773 0.36945 0.0
C1763 C 0.76137 0.94769 0.38119 0.0
C1764 C 0.7391 0.9362 0.38602 0.0
C1765 C 0.72249 0.91495 0.37922 0.0
C1766 C 0.79008 0.94945 0.36398 0.0
C1767 C 0.73289 0.94621 0.39851 0.0
H1768 H 0.82042 0.99136 0.41701 0.0
H1769 H 0.79937 0.02689 0.38914 0.0
H1770 H 0.77422 0.93762 0.40867 0.0
H1771 H 0.79402 0.93901 0.39631 0.0
H1772 H 0.80458 0.95192 0.4143 0.0
H1773 H 0.77174 0.00834 0.36961 0.0
H1774 H 0.76837 0.98175 0.36232 0.0
H1775 H 0.74863 0.98171 0.37429 0.0
H1776 H 0.75374 0.90883 0.35395 0.0
H1777 H 0.70556 0.90618 0.38307 0.0
H1778 H 0.80327 0.95168 0.37248 0.0
H1779 H 0.79445 0.96664 0.3611 0.0
H1780 H 0.79117 0.93977 0.3545 0.0
H1781 H 0.74412 0.94836 0.40821 0.0
H1782 H 0.71465 0.93541 0.40072 0.0
H1783 H 0.73586 0.9633 0.39643 0.0
C1784 C 0.04212 0.82163 0.40872 0.0
C1785 C 0.01988 0.80345 0.40447 0.0
C1786 C 0.06072 0.8263 0.40062 0.0
C1787 C 0.05712 0.81243 0.38794 0.0
C1788 C 0.03464 0.79433 0.38343 0.0
C1789 C 0.01633 0.7901 0.39171 0.0
C1790 C 0.08434 0.84584 0.4058 0.0
C1791 C 0.03007 0.77898 0.37007 0.0
C1792 C 0.10308 0.83436 0.36147 0.0
C1793 C 0.11583 0.82387 0.36518 0.0
C1794 C 0.08383 0.83068 0.36868 0.0
C1795 C 0.07708 0.8161 0.37984 0.0
C1796 C 0.08969 0.80525 0.3835 0.0
C1797 C 0.10885 0.80928 0.37618 0.0
C1798 C 0.07096 0.84269 0.36451 0.0
C1799 C 0.08315 0.78956 0.39531 0.0
H1800 H 0.04501 0.83225 0.41844 0.0
H1801 H 0.9993 0.77586 0.38841 0.0
H1802 H 0.09612 0.83929 0.40845 0.0
H1803 H 0.09164 0.85737 0.39725 0.0
H1804 H 0.08405 0.85583 0.41539 0.0
H1805 H 1.01147 0.7664 0.36761 0.0
H1806 H 0.03639 0.7892 0.36084 0.0
H1807 H 0.0396 0.76968 0.37133 0.0
H1808 H 0.10834 0.84575 0.35307 0.0
H1809 H 0.11852 0.80109 0.37922 0.0
H1810 H 0.07181 0.85397 0.37373 0.0
H1811 H 0.05251 0.83013 0.36157 0.0
H1812 H 0.07802 0.85308 0.35541 0.0
H1813 H 0.08462 0.7991 0.40558 0.0
H1814 H 0.09421 0.78181 0.39652 0.0
H1815 H 0.06496 0.77576 0.39319 0.0
C1816 C 0.20564 0.21086 0.39163 0.0
C1817 C 0.22072 0.20511 0.38538 0.0
C1818 C 0.20122 0.22723 0.38617 0.0
C1819 C 0.21223 0.23819 0.3742 0.0
C1820 C 0.2274 0.23239 0.3678 0.0
C1821 C 0.23143 0.21588 0.37344 0.0
C1822 C 0.18482 0.23286 0.39325 0.0
C1823 C 0.2396 0.24383 0.35509 0.0
C1824 C 0.18591 0.26728 0.35333 0.0
C1825 C 0.19938 0.28991 0.35915 0.0
C1826 C 0.1901 0.2503 0.35797 0.0
C1827 C 0.20826 0.25611 0.36863 0.0
C1828 C 0.22225 0.27898 0.37429 0.0
C1829 C 0.21762 0.29558 0.36951 0.0
C1830 C 0.17477 0.22606 0.35171 0.0
C1831 C 0.24186 0.28588 0.38562 0.0
H1832 H 0.19707 0.20236 0.40073 0.0
H1833 H 0.2433 0.21167 0.36866 0.0
H1834 H 0.19394 0.25107 0.3973 0.0
H1835 H 0.1706 0.23003 0.38537 0.0
H1836 H 0.17731 0.22247 0.40229 0.0
H1837 H 0.25048 0.23705 0.35116 0.0
H1838 H 0.22684 0.24153 0.34626 0.0
H1839 H 0.25067 0.26237 0.35797 0.0
H1840 H 0.17175 0.2627 0.34534 0.0
H1841 H 0.2282 0.31302 0.37405 0.0
H1842 H 0.16549 0.21525 0.36022 0.0
H1843 H 0.18531 0.21928 0.34725 0.0
H1844 H 0.1619 0.22447 0.34316 0.0
H1845 H 0.23507 0.27729 0.39537 0.0
H1846 H 0.25171 0.30452 0.38849 0.0
H1847 H 0.25386 0.2804 0.38187 0.0
C1848 C 0.694 0.53878 0.71864 0.0
C1849 C 0.67894 0.54559 0.72377 0.0
C1850 C 0.71383 0.55394 0.71232 0.0
C1851 C 0.71884 0.57655 0.71109 0.0
C1852 C 0.7035 0.58343 0.716 0.0
C1853 C 0.68375 0.56789 0.72225 0.0
C1854 C 0.72966 0.54587 0.7072 0.0
C1855 C 0.70827 0.60741 0.715 0.0
C1856 C 0.78168 0.62153 0.71003 0.0
C1857 C 0.78321 0.62501 0.69546 0.0
C1858 C 0.76088 0.60597 0.7152 0.0
C1859 C 0.74092 0.59338 0.7056 0.0
C1860 C 0.74222 0.59677 0.69089 0.0
C1861 C 0.76335 0.61257 0.68599 0.0
C1862 C 0.76034 0.60299 0.73097 0.0
C1863 C 0.72132 0.58363 0.68032 0.0
H1864 H 0.69023 0.52149 0.71952 0.0
H1865 H 0.67234 0.57338 0.72627 0.0
H1866 H 0.73256 0.54914 0.69588 0.0
H1867 H 0.74668 0.55549 0.71348 0.0
H1868 H 0.7227 0.52746 0.7082 0.0
H1869 H 0.694 0.60972 0.7185 0.0
H1870 H 0.72428 0.61944 0.72175 0.0
H1871 H 0.71107 0.61202 0.70387 0.0
H1872 H 0.79681 0.63103 0.71752 0.0
H1873 H 0.7643 0.6151 0.67473 0.0
H1874 H 0.75505 0.58513 0.73272 0.0
H1875 H 0.74742 0.60662 0.73539 0.0
H1876 H 0.77731 0.6143 0.73705 0.0
H1877 H 0.71475 0.56515 0.68051 0.0
H1878 H 0.7251 0.58831 0.66927 0.0
H1879 H 0.70736 0.58676 0.68335 0.0
C1880 C 0.45967 0.11942 0.72835 0.0
C1881 C 0.48224 0.13777 0.73112 0.0
C1882 C 0.44181 0.12248 0.72248 0.0
C1883 C 0.44657 0.14442 0.71931 0.0
C1884 C 0.46925 0.16306 0.72224 0.0
C1885 C 0.48676 0.15952 0.7281 0.0
C1886 C 0.41789 0.10216 0.71952 0.0
C1887 C 0.47507 0.18676 0.71912 0.0
C1888 C 0.40646 0.15044 0.69197 0.0
C1889 C 0.39339 0.15599 0.70071 0.0
C1890 C 0.42364 0.14642 0.69787 0.0
C1891 C 0.4279 0.14795 0.71288 0.0
C1892 C 0.41463 0.15333 0.72176 0.0
C1893 C 0.39759 0.15729 0.71558 0.0
C1894 C 0.43742 0.14076 0.68803 0.0
C1895 C 0.41856 0.15512 0.7378 0.0
H1896 H 0.45603 0.10252 0.73047 0.0
H1897 H 0.50404 0.17387 0.7304 0.0
H1898 H 0.40549 0.10513 0.72524 0.0
H1899 H 0.41233 0.09969 0.70796 0.0
H1900 H 0.4169 0.0863 0.72282 0.0
H1901 H 0.4935 0.19945 0.72209 0.0
H1902 H 0.47106 0.18707 0.7076 0.0
H1903 H 0.46438 0.19196 0.72505 0.0
H1904 H 0.40342 0.1494 0.68048 0.0
H1905 H 0.38762 0.16152 0.72248 0.0
H1906 H 0.43591 0.12428 0.6903 0.0
H1907 H 0.45591 0.15388 0.68991 0.0
H1908 H 0.43169 0.13973 0.6766 0.0
H1909 H 0.41653 0.13898 0.74132 0.0
H1910 H 0.40646 0.15897 0.74322 0.0
H1911 H 0.43642 0.16869 0.74137 0.0
C1912 C 0.89966 0.34274 0.72556 0.0
C1913 C 0.88839 0.34197 0.7378 0.0
C1914 C 0.89495 0.3227 0.71756 0.0
C1915 C 0.87851 0.3014 0.72187 0.0
C1916 C 0.86679 0.30054 0.73407 0.0
C1917 C 0.8719 0.32082 0.74189 0.0
C1918 C 0.90789 0.3243 0.70466 0.0
C1919 C 0.84901 0.27816 0.73894 0.0
C1920 C 0.85159 0.24886 0.69546 0.0
C1921 C 0.86378 0.23803 0.69967 0.0
C1922 C 0.85643 0.26967 0.70244 0.0
C1923 C 0.87394 0.27995 0.71387 0.0
C1924 C 0.88662 0.26936 0.71797 0.0
C1925 C 0.88135 0.24852 0.71086 0.0
C1926 C 0.84248 0.28042 0.6978 0.0
C1927 C 0.90548 0.27984 0.73007 0.0
H1928 H 0.91258 0.35903 0.72243 0.0
H1929 H 0.86291 0.32014 0.75122 0.0
H1930 H 0.91822 0.31587 0.7063 0.0
H1931 H 0.8956 0.31526 0.69511 0.0
H1932 H 0.91961 0.34216 0.70247 0.0
H1933 H 0.84098 0.28044 0.74841 0.0
H1934 H 0.83526 0.26826 0.7302 0.0
H1935 H 0.8571 0.2679 0.74165 0.0
H1936 H 0.83795 0.2409 0.68685 0.0
H1937 H 0.8909 0.24034 0.71419 0.0
H1938 H 0.85405 0.298 0.6951 0.0
H1939 H 0.83283 0.28153 0.7067 0.0
H1940 H 0.83001 0.27066 0.68842 0.0
H1941 H 0.91844 0.29741 0.72806 0.0
H1942 H 0.91435 0.26993 0.73156 0.0
H1943 H 0.89816 0.28093 0.74015 0.0
C1944 C 0.20944 0.01241 0.6309 0.0
C1945 C 0.21685 0.99734 0.62641 0.0
C1946 C 0.22475 0.03344 0.63851 0.0
C1947 C 0.24805 0.03956 0.64175 0.0
C1948 C 0.25551 0.02421 0.63753 0.0
C1949 C 0.23984 1.00332 0.62992 0.0
C1950 C 0.21613 0.04935 0.64279 0.0
C1951 C 0.28015 0.03001 0.64085 0.0
C1952 C 0.29317 0.10232 0.64798 0.0
C1953 C 0.29702 0.10558 0.66292 0.0
C1954 C 0.27726 0.08097 0.64099 0.0
C1955 C 0.26483 0.06235 0.6491 0.0
C1956 C 0.26861 0.06549 0.66417 0.0
C1957 C 0.28465 0.08704 0.6709 0.0
C1958 C 0.27379 0.07836 0.6249 0.0
C1959 C 0.25571 0.04606 0.67319 0.0
H1960 H 0.19178 0.00804 0.6281 0.0
H1961 H 0.24563 0.99163 0.62668 0.0
H1962 H 0.21992 0.05425 0.65444 0.0
H1963 H 0.22524 0.06517 0.63737 0.0
H1964 H 0.19732 0.04167 0.64003 0.0
H1965 H 0.28301 0.0159 0.63727 0.0
H1966 H 0.29181 0.04528 0.63554 0.0
H1967 H 0.28507 0.03418 0.65249 0.0
H1968 H 0.30261 0.11647 0.64169 0.0
H1969 H 0.28745 0.08934 0.68243 0.0
H1970 H 0.2555 0.07231 0.62137 0.0
H1971 H 0.27783 0.06539 0.62063 0.0
H1972 H 0.28475 0.09453 0.62016 0.0
H1973 H 0.2369 0.03906 0.67103 0.0
H1974 H 0.26054 0.0513 0.68478 0.0
H1975 H 0.25921 0.03213 0.67035 0.0
C1976 C 0.99056 0.18966 0.63104 0.0
C1977 C 1.01173 0.20933 0.63538 0.0
C1978 C 0.9703 0.18537 0.63719 0.0
C1979 C 0.97112 0.20113 0.64795 0.0
C1980 C 0.99237 0.22108 0.6523 0.0
C1981 C 0.01236 0.22493 0.64598 0.0
C1982 C 0.94802 0.16388 0.63222 0.0
C1983 C 0.99402 0.23841 0.66365 0.0
C1984 C 0.91552 0.20075 0.65469 0.0
C1985 C 0.90891 0.1887 0.66686 0.0
C1986 C 0.93564 0.20488 0.64846 0.0
C1987 C 0.9497 0.19688 0.65453 0.0
C1988 C 0.94325 0.18484 0.66686 0.0
C1989 C 0.92295 0.18086 0.67285 0.0
C1990 C 0.94178 0.21772 0.6353 0.0
C1991 C 0.95776 0.17606 0.67368 0.0
H1992 H 0.98989 0.17733 0.62301 0.0
H1993 H 0.02852 0.24033 0.64929 0.0
H1994 H 0.94103 0.15356 0.64134 0.0
H1995 H 0.93502 0.16815 0.62807 0.0
H1996 H 0.95023 0.15338 0.62374 0.0
H1997 H 1.01184 0.25297 0.66593 0.0
H1998 H 0.98257 0.24501 0.66024 0.0
H1999 H 0.98808 0.23032 0.67367 0.0
H2000 H 0.90483 0.20683 0.64988 0.0
H2001 H 0.91807 0.17153 0.68223 0.0
H2002 H 0.94266 0.20702 0.62636 0.0
H2003 H 0.95904 0.23316 0.63732 0.0
H2004 H 0.92911 0.2229 0.63192 0.0
H2005 H 0.95918 0.16414 0.6659 0.0
H2006 H 0.9505 0.16714 0.68328 0.0
H2007 H 0.97545 0.19034 0.67681 0.0
C2008 C 0.78586 0.78095 0.64592 0.0
C2009 C 0.80274 0.80405 0.64736 0.0
C2010 C 0.79056 0.76452 0.65098 0.0
C2011 C 0.81272 0.77134 0.65758 0.0
C2012 C 0.82975 0.79465 0.65921 0.0
C2013 C 0.82455 0.81072 0.6541 0.0
C2014 C 0.77192 0.73983 0.6491 0.0
C2015 C 0.85363 0.80258 0.66608 0.0
C2016 C 0.82091 0.73097 0.68041 0.0
C2017 C 0.82962 0.7213 0.67085 0.0
C2018 C 0.81522 0.74721 0.67624 0.0
C2019 C 0.81841 0.754 0.6622 0.0
C2020 C 0.82722 0.74434 0.65252 0.0
C2021 C 0.83269 0.72813 0.65696 0.0
C2022 C 0.80579 0.75712 0.68683 0.0
C2023 C 0.83097 0.75117 0.63748 0.0
H2024 H 0.76888 0.77573 0.6409 0.0
H2025 H 0.83776 0.8285 0.65509 0.0
H2026 H 0.77738 0.73003 0.64219 0.0
H2027 H 0.76905 0.73256 0.65956 0.0
H2028 H 0.75535 0.73742 0.64424 0.0
H2029 H 0.86462 0.82137 0.66704 0.0
H2030 H 0.85262 0.79655 0.67687 0.0
H2031 H 0.8621 0.79519 0.65969 0.0
H2032 H 0.81843 0.72578 0.69116 0.0
H2033 H 0.8395 0.72089 0.64949 0.0
H2034 H 0.78862 0.75384 0.68257 0.0
H2035 H 0.81722 0.77581 0.68853 0.0
H2036 H 0.80415 0.74991 0.6973 0.0
H2037 H 0.81452 0.74781 0.63184 0.0
H2038 H 0.83782 0.74192 0.63124 0.0
H2039 H 0.84324 0.76967 0.63769 0.0
C2040 C 0.01326 0.78586 0.64765 0.0
C2041 C 1.01208 0.79999 0.63771 0.0
C2042 C 0.99356 0.77018 0.65385 0.0
C2043 C 0.97209 0.76857 0.65008 0.0
C2044 C 0.97075 0.78273 0.64004 0.0
C2045 C 0.99073 0.79822 0.63396 0.0
C2046 C 0.99571 0.75526 0.66441 0.0
C2047 C 0.94823 0.7816 0.63575 0.0
C2048 C 0.9171 0.71405 0.65572 0.0
C2049 C 0.91056 0.72009 0.66839 0.0
C2050 C 0.93707 0.7296 0.6497 0.0
C2051 C 0.95097 0.75182 0.65649 0.0
C2052 C 0.94461 0.75801 0.66933 0.0
C2053 C 0.92451 0.7421 0.67512 0.0
C2054 C 0.94318 0.72228 0.636 0.0
C2055 C 0.95896 0.78154 0.67689 0.0
H2056 H 0.02961 0.78689 0.65048 0.0
H2057 H 0.98969 0.80926 0.62645 0.0
H2058 H 0.98985 0.75792 0.67474 0.0
H2059 H 0.98444 0.73712 0.66047 0.0
H2060 H 0.01366 0.75872 0.6663 0.0
H2061 H 0.95008 0.79382 0.62785 0.0
H2062 H 0.93537 0.76421 0.6311 0.0
H2063 H 0.94125 0.78528 0.64529 0.0
H2064 H 0.90648 0.69716 0.65036 0.0
H2065 H 0.91964 0.74701 0.68487 0.0
H2066 H 0.9606 0.72433 0.63758 0.0
H2067 H 0.94365 0.73325 0.62758 0.0
H2068 H 0.93072 0.70431 0.63214 0.0
H2069 H 0.9768 0.78516 0.6796 0.0
H2070 H 0.95182 0.78365 0.68683 0.0
H2071 H 0.96 0.79438 0.66973 0.0
C2072 C 0.22874 0.22242 0.63736 0.0
C2073 C 0.21483 0.20765 0.62552 0.0
C2074 C 0.24435 0.2183 0.64535 0.0
C2075 C 0.24612 0.1989 0.64147 0.0
C2076 C 0.23181 0.18369 0.6297 0.0
C2077 C 0.21639 0.18824 0.62189 0.0
C2078 C 0.25933 0.23499 0.65779 0.0
C2079 C 0.23302 0.16273 0.62523 0.0
C2080 C 0.30172 0.19924 0.65223 0.0
C2081 C 0.29583 0.18608 0.66393 0.0
C2082 C 0.28581 0.20369 0.64493 0.0
C2083 C 0.26337 0.19482 0.64942 0.0
C2084 C 0.25736 0.18173 0.6613 0.0
C2085 C 0.27362 0.1775 0.6684 0.0
C2086 C 0.29294 0.21767 0.63229 0.0
C2087 C 0.23365 0.17198 0.66644 0.0
H2088 H 0.22787 0.23759 0.64016 0.0
H2089 H 0.20549 0.17655 0.61289 0.0
H2090 H 0.25717 0.22607 0.6676 0.0
H2091 H 0.27771 0.24276 0.65571 0.0
H2092 H 0.25527 0.24876 0.65978 0.0
H2093 H 0.22027 0.15226 0.61611 0.0
H2094 H 0.2505 0.16772 0.62214 0.0
H2095 H 0.22991 0.15212 0.63431 0.0
H2096 H 0.31877 0.20592 0.64862 0.0
H2097 H 0.26882 0.16731 0.67741 0.0
H2098 H 0.29067 0.23263 0.63402 0.0
H2099 H 0.28176 0.20743 0.62257 0.0
H2100 H 0.31114 0.2237 0.63031 0.0
H2101 H 0.22986 0.18578 0.66902 0.0
H2102 H 0.23181 0.16259 0.67602 0.0
H2103 H 0.22051 0.16022 0.65785 0.0
C2104 C 0.77519 1.00412 0.63497 0.0
C2105 C 0.79114 0.9968 0.63325 0.0
C2106 C 0.78183 0.02528 0.6422 0.0
C2107 C 0.805 0.0395 0.64782 0.0
C2108 C 0.82101 0.0319 0.64654 0.0
C2109 C 0.81388 0.01063 0.63928 0.0
C2110 C 0.76421 0.03272 0.64342 0.0
C2111 C 0.84588 0.04661 0.65235 0.0
C2112 C 0.8274 0.10294 0.65101 0.0
C2113 C 0.8267 0.10746 0.66561 0.0
C2114 C 0.82057 0.08096 0.64515 0.0
C2115 C 0.81281 0.06295 0.65408 0.0
C2116 C 0.81222 0.06736 0.66885 0.0
C2117 C 0.81919 0.08959 0.67445 0.0
C2118 C 0.8215 0.07698 0.62934 0.0
C2119 C 0.80404 0.04857 0.67869 0.0
H2120 H 0.7575 0.99335 0.63053 0.0
H2121 H 0.82634 1.00517 0.63788 0.0
H2122 H 0.76396 0.03803 0.6547 0.0
H2123 H 0.76893 0.04766 0.63727 0.0
H2124 H 0.74659 0.01907 0.63935 0.0
H2125 H 0.85571 0.03753 0.65147 0.0
H2126 H 0.85422 0.06195 0.64641 0.0
H2127 H 0.84702 0.05248 0.66372 0.0
H2128 H 0.83322 0.1166 0.64407 0.0
H2129 H 0.8186 0.0929 0.68574 0.0
H2130 H 0.80402 0.06467 0.62428 0.0
H2131 H 0.83259 0.06947 0.62755 0.0
H2132 H 0.82827 0.09287 0.62391 0.0
H2133 H 0.78596 0.03541 0.67526 0.0
H2134 H 0.80501 0.05487 0.68996 0.0
H2135 H 0.81456 0.04021 0.67813 0.0
C2136 C 0.45731 0.34299 0.72533 0.0
C2137 C 0.47429 0.34513 0.73562 0.0
C2138 C 0.44136 0.32178 0.71816 0.0
C2139 C 0.4423 0.30218 0.72141 0.0
C2140 C 0.45959 0.30427 0.73166 0.0
C2141 C 0.4754 0.32571 0.7386 0.0
C2142 C 0.42335 0.32031 0.70721 0.0
C2143 C 0.46109 0.28378 0.73551 0.0
C2144 C 0.38768 0.24458 0.71385 0.0
C2145 C 0.39184 0.23594 0.70122 0.0
C2146 C 0.40394 0.26607 0.72051 0.0
C2147 C 0.42485 0.27939 0.71437 0.0
C2148 C 0.4291 0.27086 0.70157 0.0
C2149 C 0.4126 0.24923 0.69518 0.0
C2150 C 0.39881 0.27447 0.7342 0.0
C2151 C 0.4511 0.28458 0.69464 0.0
H2152 H 0.45652 0.35796 0.72285 0.0
H2153 H 0.48828 0.32717 0.74667 0.0
H2154 H 0.42427 0.31244 0.69685 0.0
H2155 H 0.40592 0.30927 0.71063 0.0
H2156 H 0.42541 0.33723 0.70556 0.0
H2157 H 0.4759 0.28835 0.74342 0.0
H2158 H 0.44502 0.27152 0.74001 0.0
H2159 H 0.46277 0.27496 0.72582 0.0
H2160 H 0.37178 0.23444 0.71866 0.0
H2161 H 0.41598 0.24278 0.68541 0.0
H2162 H 0.39911 0.29068 0.73285 0.0
H2163 H 0.4123 0.27793 0.74285 0.0
H2164 H 0.38178 0.26204 0.73762 0.0
H2165 H 0.453 0.30118 0.69226 0.0
H2166 H 0.45165 0.2757 0.68459 0.0
H2167 H 0.46612 0.2882 0.70207 0.0
C2168 C 0.68954 0.11231 0.73302 0.0
C2169 C 0.68176 0.12784 0.73516 0.0
C2170 C 0.70856 0.11744 0.72522 0.0
C2171 C 0.72027 0.13867 0.71941 0.0
C2172 C 0.71223 0.15423 0.72124 0.0
C2173 C 0.69312 0.14864 0.72906 0.0
C2174 C 0.71656 0.10037 0.72359 0.0
C2175 C 0.72417 0.17704 0.71523 0.0
C2176 C 0.78352 0.16173 0.7139 0.0
C2177 C 0.78289 0.15685 0.69916 0.0
C2178 C 0.76336 0.15609 0.72053 0.0
C2179 C 0.74183 0.14519 0.71228 0.0
C2180 C 0.741 0.14033 0.69738 0.0
C2181 C 0.76153 0.14625 0.69099 0.0
C2182 C 0.76515 0.16169 0.73642 0.0
C2183 C 0.71839 0.12865 0.68822 0.0
H2184 H 0.68116 0.09633 0.73781 0.0
H2185 H 0.68709 0.16064 0.73043 0.0
H2186 H 0.71804 0.09692 0.71218 0.0
H2187 H 0.73392 0.10741 0.72929 0.0
H2188 H 0.70471 0.08404 0.72787 0.0
H2189 H 0.71507 0.18671 0.71689 0.0
H2190 H 0.74199 0.18731 0.72039 0.0
H2191 H 0.72542 0.1748 0.70364 0.0
H2192 H 0.79986 0.16996 0.72038 0.0
H2193 H 0.76079 0.14234 0.67962 0.0
H2194 H 0.75506 0.1459 0.7417 0.0
H2195 H 0.75774 0.17275 0.73868 0.0
H2196 H 0.78323 0.17044 0.74129 0.0
H2197 H 0.70695 0.1117 0.6919 0.0
H2198 H 0.72064 0.12643 0.67678 0.0
H2199 H 0.70951 0.13862 0.68929 0.0
C2200 C 0.86455 0.54158 0.72475 0.0
C2201 C 0.881 0.53675 0.71964 0.0
C2202 C 0.86089 0.55832 0.71912 0.0
C2203 C 0.87392 0.57045 0.70805 0.0
C2204 C 0.89036 0.56548 0.70273 0.0
C2205 C 0.89375 0.54873 0.70861 0.0
C2206 C 0.84332 0.56325 0.72517 0.0
C2207 C 0.90447 0.57796 0.69087 0.0
C2208 C 0.85054 0.6011 0.68611 0.0
C2209 C 0.86327 0.62337 0.69264 0.0
C2210 C 0.85409 0.58376 0.69085 0.0
C2211 C 0.87077 0.58881 0.70237 0.0
C2212 C 0.884 0.61133 0.7088 0.0
C2213 C 0.8801 0.62831 0.70387 0.0
C2214 C 0.83965 0.55994 0.68372 0.0
C2215 C 0.90198 0.61742 0.7211 0.0
H2216 H 0.85483 0.53255 0.73338 0.0
H2217 H 0.90628 0.54486 0.7045 0.0
H2218 H 0.85189 0.58113 0.72986 0.0
H2219 H 0.83037 0.56118 0.71655 0.0
H2220 H 0.83424 0.55193 0.73353 0.0
H2221 H 0.91613 0.57167 0.68768 0.0
H2222 H 0.89295 0.57607 0.6814 0.0
H2223 H 0.91502 0.59638 0.69431 0.0
H2224 H 0.83749 0.59708 0.67745 0.0
H2225 H 0.89008 0.64545 0.70899 0.0
H2226 H 0.82893 0.54841 0.69152 0.0
H2227 H 0.85091 0.55354 0.67996 0.0
H2228 H 0.82812 0.559 0.6745 0.0
H2229 H 0.8937 0.6079 0.73029 0.0
H2230 H 0.91135 0.63587 0.72461 0.0
H2231 H 0.91467 0.61244 0.71804 0.0
C2232 C 0.45318 0.94059 0.1691 0.0
C2233 C 0.4692 0.948 0.18114 0.0
C2234 C 0.45979 0.94913 0.15582 0.0
C2235 C 0.48304 0.96551 0.15445 0.0
C2236 C 0.49939 0.97283 0.1665 0.0
C2237 C 0.49229 0.96402 0.17966 0.0
C2238 C 0.44181 0.94075 0.14327 0.0
C2239 C 0.52434 0.99027 0.16553 0.0
C2240 C 0.50401 0.9744 0.11719 0.0
C2241 C 0.50334 0.99401 0.11404 0.0
C2242 C 0.49754 0.96499 0.13028 0.0
C2243 C 0.49014 0.97535 0.14051 0.0
C2244 C 0.48936 0.99509 0.13738 0.0
C2245 C 0.49596 1.00416 0.12423 0.0
C2246 C 0.49873 0.944 0.13318 0.0
C2247 C 0.48143 0.00661 0.14792 0.0
H2248 H 0.43539 0.92796 0.17003 0.0
H2249 H 0.50478 0.97008 0.1889 0.0
H2250 H 0.44053 0.95519 0.13934 0.0
H2251 H 0.4469 0.9334 0.13437 0.0
H2252 H 0.42455 0.92769 0.14601 0.0
H2253 H 0.53506 0.99365 0.17572 0.0
H2254 H 0.53146 0.98444 0.15701 0.0
H2255 H 0.52576 0.00647 0.16262 0.0
H2256 H 0.50995 0.96657 0.10949 0.0
H2257 H 0.49505 0.01909 0.12185 0.0
H2258 H 0.48149 0.93013 0.1353 0.0
H2259 H 0.51055 0.94757 0.14285 0.0
H2260 H 0.5048 0.93795 0.12413 0.0
H2261 H 0.46355 0.99457 0.15024 0.0
H2262 H 0.48195 0.0219 0.14393 0.0
H2263 H 0.49245 0.01174 0.15813 0.0
C2264 C 0.06459 0.50351 0.17542 0.0
C2265 C 0.05644 0.51067 0.18681 0.0
C2266 C 0.05615 0.50228 0.16127 0.0
C2267 C 0.03913 0.50837 0.15843 0.0
C2268 C 0.03094 0.51576 0.16986 0.0
C2269 C 0.03968 0.51682 0.18391 0.0
C2270 C 0.06539 0.4944 0.14935 0.0
C2271 C 0.01275 0.52233 0.16726 0.0
C2272 C 0.03124 0.52314 0.12098 0.0
C2273 C 1.01213 0.50276 0.11494 0.0
C2274 C 0.04011 0.52529 0.13515 0.0
C2275 C 0.02963 0.5066 0.14349 0.0
C2276 C 1.01023 0.48605 0.1375 0.0
C2277 C 1.00173 0.48438 0.12331 0.0
C2278 C 0.06077 0.5475 0.14119 0.0
C2279 C 0.99861 0.46572 0.14604 0.0
H2280 H 0.07779 0.49905 0.17756 0.0
H2281 H 0.0331 0.52211 0.19267 0.0
H2282 H 0.05115 0.47894 0.14327 0.0
H2283 H 0.07292 0.50767 0.14179 0.0
H2284 H 0.07877 0.4905 0.15335 0.0
H2285 H 1.0086 0.52823 0.17729 0.0
H2286 H 0.01862 0.53606 0.15997 0.0
H2287 H 0.99675 0.50758 0.16198 0.0
H2288 H 0.0392 0.5375 0.11463 0.0
H2289 H 0.98718 0.46847 0.11866 0.0
H2290 H 0.07516 0.54471 0.14458 0.0
H2291 H 0.05653 0.55429 0.15079 0.0
H2292 H 0.06676 0.56048 0.13336 0.0
H2293 H 1.01099 0.46018 0.14936 0.0
H2294 H 0.98338 0.45116 0.13991 0.0
H2295 H 0.99302 0.47036 0.15589 0.0
C2296 C 0.46281 0.5237 0.16972 0.0
C2297 C 0.46626 0.51218 0.18064 0.0
C2298 C 0.46985 0.52258 0.15606 0.0
C2299 C 0.48081 0.5098 0.15327 0.0
C2300 C 0.48452 0.4983 0.16429 0.0
C2301 C 0.47712 0.49955 0.1778 0.0
C2302 C 0.46536 0.5349 0.14458 0.0
C2303 C 0.49636 0.48469 0.16182 0.0
C2304 C 0.48075 0.48877 0.11503 0.0
C2305 C 0.50281 0.50474 0.11162 0.0
C2306 C 0.47326 0.49038 0.12846 0.0
C2307 C 0.48827 0.50829 0.13881 0.0
C2308 C 0.51053 0.52454 0.1354 0.0
C2309 C 0.51748 0.52263 0.12184 0.0
C2310 C 0.4493 0.47287 0.13158 0.0
C2311 C 0.52713 0.54377 0.14616 0.0
H2312 H 0.45421 0.53329 0.17178 0.0
H2313 H 0.48011 0.49084 0.18624 0.0
H2314 H 0.48181 0.54726 0.14052 0.0
H2315 H 0.4544 0.52261 0.13544 0.0
H2316 H 0.4567 0.54414 0.14846 0.0
H2317 H 0.49825 0.47703 0.17156 0.0
H2318 H 0.48642 0.47088 0.1532 0.0
H2319 H 0.5137 0.49572 0.15828 0.0
H2320 H 0.46921 0.47509 0.10711 0.0
H2321 H 0.53463 0.53491 0.11932 0.0
H2322 H 0.43957 0.48136 0.13473 0.0
H2323 H 0.45027 0.46358 0.14067 0.0
H2324 H 0.43954 0.46036 0.12226 0.0
H2325 H 0.51937 0.55403 0.1497 0.0
H2326 H 0.54371 0.55514 0.1418 0.0
H2327 H 0.5307 0.53682 0.15574 0.0
C2328 C 0.95321 0.50934 0.85973 0.0
C2329 C 0.96005 0.50001 0.84871 0.0
C2330 C 0.96168 0.51126 0.87398 0.0
C2331 C 0.97735 0.50364 0.8773 0.0
C2332 C 0.98425 0.49413 0.86625 0.0
C2333 C 0.97554 0.49245 0.85209 0.0
C2334 C 0.95386 0.52145 0.88547 0.0
C2335 C 1.00096 0.48584 0.86936 0.0
C2336 C 0.01591 0.52736 0.91204 0.0
C2337 C 1.00448 0.50977 0.92084 0.0
C2338 C 1.00724 0.52562 0.89787 0.0
C2339 C 0.98665 0.50577 0.89234 0.0
C2340 C 0.97501 0.48795 0.90116 0.0
C2341 C 0.98405 0.49018 0.91531 0.0
C2342 C 0.02007 0.54504 0.88883 0.0
C2343 C 0.95309 0.46648 0.89563 0.0
H2344 H 0.941 0.51493 0.85724 0.0
H2345 H 0.98115 0.4855 0.84363 0.0
H2346 H 0.94538 0.50901 0.8934 0.0
H2347 H 0.96894 0.53657 0.89124 0.0
H2348 H 0.94162 0.52659 0.88112 0.0
H2349 H 1.00433 0.47856 0.85959 0.0
H2350 H 0.01755 0.50008 0.8744 0.0
H2351 H 0.99412 0.47268 0.87704 0.0
H2352 H 0.03154 0.54266 0.91631 0.0
H2353 H 0.97528 0.47641 0.92199 0.0
H2354 H 1.00872 0.55154 0.88504 0.0
H2355 H 0.02509 0.539 0.87926 0.0
H2356 H 0.03583 0.5593 0.89474 0.0
H2357 H 0.93984 0.47064 0.89182 0.0
H2358 H 0.94605 0.45428 0.90388 0.0
H2359 H 0.95632 0.45804 0.88638 0.0
C2360 C 0.57098 0.50724 0.86162 0.0
C2361 C 0.55526 0.49729 0.84945 0.0
C2362 C 0.56352 0.50821 0.87516 0.0
C2363 C 0.53972 0.49898 0.87662 0.0
C2364 C 0.52373 0.48865 0.86443 0.0
C2365 C 0.53167 0.48794 0.85101 0.0
C2366 C 0.58115 0.51929 0.88788 0.0
C2367 C 0.49822 0.47864 0.86551 0.0
C2368 C 0.51885 0.48521 0.9136 0.0
C2369 C 0.51706 0.50421 0.91808 0.0
C2370 C 0.52607 0.48321 0.90013 0.0
C2371 C 0.53164 0.50061 0.89087 0.0
C2372 C 0.52977 0.51976 0.89529 0.0
C2373 C 0.52254 0.52133 0.90881 0.0
C2374 C 0.52777 0.46249 0.89583 0.0
C2375 C 0.53562 0.53873 0.88578 0.0
H2376 H 0.5892 0.51418 0.86059 0.0
H2377 H 0.5194 0.48045 0.84167 0.0
H2378 H 0.5803 0.53397 0.89279 0.0
H2379 H 0.57732 0.5071 0.8961 0.0
H2380 H 0.59897 0.52533 0.885 0.0
H2381 H 0.48797 0.47057 0.85512 0.0
H2382 H 0.49229 0.46571 0.87336 0.0
H2383 H 0.49467 0.49213 0.86942 0.0
H2384 H 0.51439 0.47175 0.92058 0.0
H2385 H 0.52159 0.53625 0.91223 0.0
H2386 H 0.54568 0.46768 0.89358 0.0
H2387 H 0.51656 0.45352 0.88587 0.0
H2388 H 0.5227 0.45041 0.90421 0.0
H2389 H 0.55389 0.54646 0.88347 0.0
H2390 H 0.53286 0.55227 0.89067 0.0
H2391 H 0.52494 0.53191 0.87544 0.0
C2392 C 0.55326 0.07177 0.86168 0.0
C2393 C 0.53673 0.05913 0.85019 0.0
C2394 C 0.55052 0.06418 0.87545 0.0
C2395 C 0.53076 0.04346 0.87787 0.0
C2396 C 0.51421 0.03047 0.86628 0.0
C2397 C 0.51742 0.03839 0.85264 0.0
C2398 C 0.56863 0.07853 0.88748 0.0
C2399 C 0.49294 0.00823 0.86832 0.0
C2400 C 0.53051 0.01219 0.91037 0.0
C2401 C 0.5181 0.01793 0.9196 0.0
C2402 C 0.53518 0.02074 0.89692 0.0
C2403 C 0.52718 0.03536 0.89249 0.0
C2404 C 0.51497 0.04152 0.90185 0.0
C2405 C 0.51065 0.03281 0.91527 0.0
C2406 C 0.54844 0.0139 0.88738 0.0
C2407 C 0.506 0.05693 0.89754 0.0
H2408 H 0.56811 0.08792 0.86 0.0
H2409 H 0.50473 0.02825 0.84383 0.0
H2410 H 0.56092 0.0841 0.89576 0.0
H2411 H 0.57523 0.06835 0.89262 0.0
H2412 H 0.58336 0.09381 0.88379 0.0
H2413 H 0.48176 1.00009 0.85822 0.0
H2414 H 0.49791 0.99628 0.87262 0.0
H2415 H 0.48278 0.01109 0.87621 0.0
H2416 H 0.53667 1.00101 0.91368 0.0
H2417 H 0.50088 0.03719 0.92225 0.0
H2418 H 0.56373 0.02923 0.88425 0.0
H2419 H 0.5375 1.00433 0.87744 0.0
H2420 H 0.55426 1.00315 0.8926 0.0
H2421 H 0.52029 0.07313 0.8945 0.0
H2422 H 0.49759 0.0608 0.90621 0.0
H2423 H 0.49333 0.04881 0.88806 0.0
C2424 C 0.14927 0.27205 0.50526 0.0
C2425 C 0.13983 0.28193 0.5141 0.0
C2426 C 0.15675 0.28019 0.492 0.0
C2427 C 0.15482 0.29871 0.48742 0.0
C2428 C 0.1455 0.30886 0.49633 0.0
C2429 C 0.13816 0.30039 0.50952 0.0
C2430 C 0.16653 0.26883 0.48283 0.0
C2431 C 0.14322 0.3287 0.49193 0.0
C2432 C 0.19185 0.33394 0.459 0.0
C2433 C 0.1762 0.32554 0.44674 0.0
C2434 C 0.18525 0.32514 0.47222 0.0
C2435 C 0.16242 0.30746 0.47329 0.0
C2436 C 0.14664 0.29863 0.46092 0.0
C2437 C 0.1537 0.30776 0.44784 0.0
C2438 C 0.20266 0.33499 0.4851 0.0
C2439 C 0.12213 0.27983 0.46157 0.0
H2440 H 0.15041 0.25763 0.5086 0.0
H2441 H 0.13127 0.30842 0.51633 0.0
H2442 H 0.15588 0.26176 0.47249 0.0
H2443 H 0.18417 0.28149 0.48046 0.0
H2444 H 0.16725 0.25488 0.48801 0.0
H2445 H 0.13566 0.33474 0.50007 0.0
H2446 H 0.16037 0.34303 0.49008 0.0
H2447 H 0.13219 0.3238 0.48173 0.0
H2448 H 0.20937 0.34741 0.45826 0.0
H2449 H 0.14135 0.30131 0.43852 0.0
H2450 H 0.20441 0.32134 0.48992 0.0
H2451 H 0.19667 0.34259 0.49331 0.0
H2452 H 0.21989 0.34825 0.48244 0.0
H2453 H 0.1219 0.265 0.46607 0.0
H2454 H 0.11224 0.27419 0.45091 0.0
H2455 H 0.11323 0.2857 0.46875 0.0
C2456 C 0.7085 0.85253 0.51683 0.0
C2457 C 0.72382 0.84469 0.52007 0.0
C2458 C 0.70018 0.8516 0.50269 0.0
C2459 C 0.70732 0.84258 0.49149 0.0
C2460 C 0.72286 0.83475 0.49466 0.0
C2461 C 0.73093 0.83591 0.50889 0.0
C2462 C 0.68359 0.86007 0.49974 0.0
C2463 C 0.73092 0.82508 0.483 0.0
C2464 C 0.66957 0.81969 0.45642 0.0
C2465 C 0.6812 0.83752 0.44782 0.0
C2466 C 0.67781 0.82118 0.47066 0.0
C2467 C 0.69822 0.84097 0.47646 0.0
C2468 C 0.71 0.85908 0.46787 0.0
C2469 C 0.70136 0.85715 0.45366 0.0
C2470 C 0.66478 0.80146 0.47946 0.0
C2471 C 0.73178 0.88049 0.47369 0.0
H2472 H 0.70269 0.85907 0.52541 0.0
H2473 H 0.74302 0.83014 0.51127 0.0
H2474 H 0.69055 0.87349 0.49224 0.0
H2475 H 0.66702 0.84599 0.49456 0.0
H2476 H 0.68015 0.86707 0.50961 0.0
H2477 H 0.74318 0.81988 0.48724 0.0
H2478 H 0.71594 0.81007 0.47706 0.0
H2479 H 0.73944 0.83784 0.47526 0.0
H2480 H 0.65419 0.80433 0.45194 0.0
H2481 H 0.7103 0.87111 0.44713 0.0
H2482 H 0.65981 0.80725 0.48915 0.0
H2483 H 0.67599 0.79469 0.48305 0.0
H2484 H 0.64898 0.78744 0.47343 0.0
H2485 H 0.72838 0.88849 0.48309 0.0
H2486 H 0.73883 0.89307 0.46564 0.0
H2487 H 0.74508 0.87631 0.47733 0.0
C2488 C 0.13828 0.86337 0.50445 0.0
C2489 C 0.12874 0.84423 0.51227 0.0
C2490 C 0.14567 0.86243 0.49088 0.0
C2491 C 0.14353 0.84186 0.48495 0.0
C2492 C 0.13388 0.82248 0.49277 0.0
C2493 C 0.12662 0.8239 0.5063 0.0
C2494 C 0.15576 0.88345 0.48288 0.0
C2495 C 0.1314 0.80027 0.48688 0.0
C2496 C 0.14411 0.83243 0.44481 0.0
C2497 C 0.16681 0.83721 0.44364 0.0
C2498 C 0.13639 0.83412 0.45814 0.0
C2499 C 0.15164 0.84066 0.47066 0.0
C2500 C 0.17459 0.84565 0.46955 0.0
C2501 C 0.18189 0.84393 0.45609 0.0
C2502 C 0.11179 0.82867 0.45884 0.0
C2503 C 0.19143 0.85272 0.48262 0.0
H2504 H 0.13972 0.87907 0.50888 0.0
H2505 H 0.11959 0.80911 0.51232 0.0
H2506 H 0.17359 0.88835 0.48061 0.0
H2507 H 0.14558 0.8799 0.47246 0.0
H2508 H 0.15612 0.89807 0.48891 0.0
H2509 H 0.12325 0.78668 0.4942 0.0
H2510 H 0.12083 0.7945 0.47647 0.0
H2511 H 0.14856 0.80265 0.48496 0.0
H2512 H 0.13221 0.82694 0.43531 0.0
H2513 H 0.19955 0.84805 0.4553 0.0
H2514 H 0.11139 0.84325 0.46432 0.0
H2515 H 0.10257 0.81394 0.46518 0.0
H2516 H 0.10233 0.82461 0.4481 0.0
H2517 H 0.19328 0.86823 0.48838 0.0
H2518 H 0.20871 0.85618 0.47995 0.0
H2519 H 0.18483 0.83916 0.49004 0.0
C2520 C 0.62367 0.81727 0.18799 0.0
C2521 C 0.63377 0.83639 0.18018 0.0
C2522 C 0.6313 0.81844 0.20233 0.0
C2523 C 0.64949 0.83923 0.20905 0.0
C2524 C 0.65974 0.85859 0.20125 0.0
C2525 C 0.65176 0.85693 0.18693 0.0
C2526 C 0.61988 0.79745 0.2103 0.0
C2527 C 0.67924 0.88103 0.20801 0.0
C2528 C 0.65667 0.84866 0.24955 0.0
C2529 C 0.67459 0.84428 0.25297 0.0
C2530 C 0.64821 0.84691 0.23532 0.0
C2531 C 0.65794 0.84071 0.22422 0.0
C2532 C 0.67594 0.83616 0.22759 0.0
C2533 C 0.684 0.83795 0.24191 0.0
C2534 C 0.62899 0.85189 0.23216 0.0
C2535 C 0.68673 0.82946 0.21606 0.0
H2536 H 0.60956 0.80142 0.18292 0.0
H2537 H 0.65987 0.8717 0.18092 0.0
H2538 H 0.63282 0.793 0.21429 0.0
H2539 H 0.61246 0.80079 0.21973 0.0
H2540 H 0.60595 0.7826 0.20354 0.0
H2541 H 0.68518 0.89454 0.20054 0.0
H2542 H 0.67373 0.88668 0.21752 0.0
H2543 H 0.69402 0.87903 0.21171 0.0
H2544 H 0.64949 0.85383 0.258 0.0
H2545 H 0.69758 0.83418 0.24445 0.0
H2546 H 0.6142 0.83704 0.22596 0.0
H2547 H 0.63491 0.86643 0.22552 0.0
H2548 H 0.62294 0.85598 0.24201 0.0
H2549 H 0.6734 0.81377 0.20968 0.0
H2550 H 0.70054 0.82644 0.22046 0.0
H2551 H 0.69417 0.843 0.20867 0.0
C2552 C 0.2381 0.83964 0.19551 0.0
C2553 C 0.22282 0.83081 0.1831 0.0
C2554 C 0.23031 0.84078 0.2089 0.0
C2555 C 0.20663 0.83288 0.20997 0.0
C2556 C 0.19106 0.82371 0.19753 0.0
C2557 C 0.19932 0.82279 0.18426 0.0
C2558 C 0.24747 0.85058 0.2219 0.0
C2559 C 0.16569 0.81515 0.1982 0.0
C2560 C 0.1837 0.8189 0.24642 0.0
C2561 C 0.18329 0.8386 0.25108 0.0
C2562 C 0.19109 0.81674 0.23305 0.0
C2563 C 0.19825 0.83467 0.22407 0.0
C2564 C 0.19773 0.85452 0.22866 0.0
C2565 C 0.1903 0.85625 0.24208 0.0
C2566 C 0.19134 0.79527 0.22856 0.0
C2567 C 0.20527 0.87407 0.21944 0.0
H2568 H 0.25621 0.84555 0.19477 0.0
H2569 H 0.18741 0.81618 0.17473 0.0
H2570 H 0.24751 0.86569 0.22693 0.0
H2571 H 0.24245 0.83796 0.22992 0.0
H2572 H 0.26524 0.85568 0.21931 0.0
H2573 H 0.15573 0.80791 0.18763 0.0
H2574 H 0.15857 0.8019 0.2058 0.0
H2575 H 0.16312 0.82925 0.20219 0.0
H2576 H 0.17806 0.80505 0.2532 0.0
H2577 H 0.19041 0.87168 0.24564 0.0
H2578 H 0.20908 0.79942 0.22661 0.0
H2579 H 0.18039 0.78716 0.2184 0.0
H2580 H 0.18506 0.78282 0.23671 0.0
H2581 H 0.22358 0.88087 0.21745 0.0
H2582 H 0.20336 0.88811 0.2244 0.0
H2583 H 0.19502 0.86809 0.20892 0.0
C2584 C 0.18868 0.39501 0.19219 0.0
C2585 C 0.20496 0.39448 0.18368 0.0
C2586 C 0.18563 0.38674 0.20573 0.0
C2587 C 0.19917 0.37764 0.211 0.0
C2588 C 0.21592 0.37738 0.20259 0.0
C2589 C 0.21864 0.38583 0.18906 0.0
C2590 C 0.16772 0.38754 0.21435 0.0
C2591 C 0.23066 0.36777 0.20777 0.0
C2592 C 0.20287 0.37249 0.25108 0.0
C2593 C 0.18617 0.34965 0.25204 0.0
C2594 C 0.2075 0.38174 0.23782 0.0
C2595 C 0.19529 0.36785 0.22513 0.0
C2596 C 0.17869 0.34473 0.22599 0.0
C2597 C 0.17427 0.33597 0.23938 0.0
C2598 C 0.2253 0.40648 0.23742 0.0
C2599 C 0.16528 0.32929 0.21275 0.0
H2600 H 0.17831 0.40203 0.18827 0.0
H2601 H 0.23114 0.38516 0.18255 0.0
H2602 H 0.15449 0.37006 0.21634 0.0
H2603 H 0.1758 0.39708 0.22489 0.0
H2604 H 0.159 0.39567 0.20891 0.0
H2605 H 0.24345 0.36952 0.20021 0.0
H2606 H 0.23997 0.37649 0.21828 0.0
H2607 H 0.21959 0.34949 0.20926 0.0
H2608 H 0.21246 0.38317 0.26071 0.0
H2609 H 0.16109 0.31844 0.23993 0.0
H2610 H 0.21712 0.41565 0.23275 0.0
H2611 H 0.23877 0.40815 0.23047 0.0
H2612 H 0.23368 0.41489 0.24818 0.0
H2613 H 0.15467 0.33557 0.20743 0.0
H2614 H 0.15374 0.31149 0.21514 0.0
H2615 H 0.17726 0.32942 0.20506 0.0
C2616 C 0.81647 0.60741 0.83842 0.0
C2617 C 0.80816 0.61798 0.84764 0.0
C2618 C 0.82369 0.61548 0.82511 0.0
C2619 C 0.82263 0.63462 0.82086 0.0
C2620 C 0.81449 0.64549 0.83017 0.0
C2621 C 0.8074 0.63708 0.8434 0.0
C2622 C 0.83221 0.60336 0.81551 0.0
C2623 C 0.81318 0.66599 0.82612 0.0
C2624 C 0.85913 0.66887 0.79195 0.0
C2625 C 0.84297 0.66105 0.77997 0.0
C2626 C 0.85286 0.66018 0.80524 0.0
C2627 C 0.82984 0.64322 0.80664 0.0
C2628 C 0.81351 0.635 0.79455 0.0
C2629 C 0.82026 0.64399 0.7814 0.0
C2630 C 0.87084 0.66935 0.81782 0.0
C2631 C 0.78878 0.617 0.79557 0.0
H2632 H 0.8169 0.59251 0.8415 0.0
H2633 H 0.80139 0.64562 0.85051 0.0
H2634 H 0.82102 0.59664 0.80534 0.0
H2635 H 0.84986 0.61545 0.81284 0.0
H2636 H 0.83245 0.58904 0.82048 0.0
H2637 H 0.80656 0.67258 0.83457 0.0
H2638 H 0.83048 0.67977 0.82402 0.0
H2639 H 0.80175 0.66158 0.81614 0.0
H2640 H 0.87679 0.68179 0.79094 0.0
H2641 H 0.80754 0.63801 0.77228 0.0
H2642 H 0.87204 0.65525 0.8224 0.0
H2643 H 0.86579 0.67745 0.8263 0.0
H2644 H 0.88813 0.68205 0.81489 0.0
H2645 H 0.78797 0.60178 0.79984 0.0
H2646 H 0.77841 0.61177 0.78508 0.0
H2647 H 0.78079 0.62347 0.80309 0.0
C2648 C 0.40293 0.17281 0.84036 0.0
C2649 C 0.39436 0.17918 0.85188 0.0
C2650 C 0.39399 0.17118 0.82628 0.0
C2651 C 0.37601 0.17601 0.82365 0.0
C2652 C 0.36736 0.18257 0.83521 0.0
C2653 C 0.37664 0.18409 0.84919 0.0
C2654 C 0.40375 0.16424 0.81422 0.0
C2655 C 0.34812 0.18776 0.83283 0.0
C2656 C 0.36593 0.19014 0.78641 0.0
C2657 C 0.34742 0.16929 0.78043 0.0
C2658 C 0.37532 0.19263 0.80049 0.0
C2659 C 0.36599 0.17381 0.80879 0.0
C2660 C 0.3472 0.15278 0.80286 0.0
C2661 C 0.33817 0.15077 0.78875 0.0
C2662 C 0.3953 0.21535 0.80647 0.0
C2663 C 0.33682 0.1323 0.81136 0.0
H2664 H 0.41683 0.1693 0.84236 0.0
H2665 H 0.36974 0.18875 0.85805 0.0
H2666 H 0.38997 0.14843 0.80818 0.0
H2667 H 0.41044 0.17759 0.80667 0.0
H2668 H 0.41788 0.16131 0.81806 0.0
H2669 H 0.34367 0.19309 0.84295 0.0
H2670 H 0.35309 0.20147 0.82559 0.0
H2671 H 0.33252 0.17252 0.8276 0.0
H2672 H 0.37299 0.2046 0.7801 0.0
H2673 H 0.3241 0.13452 0.78414 0.0
H2674 H 0.41036 0.21353 0.80972 0.0
H2675 H 0.39071 0.2216 0.81616 0.0
H2676 H 0.40045 0.22834 0.79866 0.0
H2677 H 0.35002 0.12773 0.81452 0.0
H2678 H 0.32196 0.1173 0.80527 0.0
H2679 H 0.33096 0.13632 0.8213 0.0
C2680 C 0.81506 0.16959 0.84452 0.0
C2681 C 0.80193 0.17997 0.84715 0.0
C2682 C 0.8226 0.16885 0.83099 0.0
C2683 C 0.81669 0.17852 0.81973 0.0
C2684 C 0.80353 0.18913 0.82232 0.0
C2685 C 0.79642 0.18983 0.83601 0.0
C2686 C 0.83682 0.15761 0.82873 0.0
C2687 C 0.79663 0.1994 0.81058 0.0
C2688 C 0.85166 0.19233 0.78743 0.0
C2689 C 0.83792 0.17306 0.77791 0.0
C2690 C 0.84493 0.19443 0.80104 0.0
C2691 C 0.82379 0.17698 0.80516 0.0
C2692 C 0.80962 0.15773 0.79545 0.0
C2693 C 0.81692 0.15595 0.782 0.0
C2694 C 0.86064 0.2151 0.81112 0.0
C2695 C 0.78681 0.13891 0.79931 0.0
H2696 H 0.81962 0.16219 0.85312 0.0
H2697 H 0.78609 0.19769 0.83793 0.0
H2698 H 0.82757 0.14289 0.82059 0.0
H2699 H 0.85335 0.1697 0.82462 0.0
H2700 H 0.8406 0.15157 0.83869 0.0
H2701 H 0.78673 0.20738 0.81439 0.0
H2702 H 0.81215 0.21245 0.806 0.0
H2703 H 0.78595 0.18608 0.80184 0.0
H2704 H 0.86798 0.20553 0.78435 0.0
H2705 H 0.80608 0.14116 0.7746 0.0
H2706 H 0.86607 0.20984 0.82084 0.0
H2707 H 0.85133 0.22389 0.81455 0.0
H2708 H 0.87628 0.22735 0.80621 0.0
H2709 H 0.78959 0.13096 0.80861 0.0
H2710 H 0.77742 0.1255 0.79037 0.0
H2711 H 0.77576 0.14594 0.80244 0.0
C2712 C 0.32057 0.18399 0.51851 0.0
C2713 C 0.29759 0.16824 0.51377 0.0
C2714 C 0.32908 0.18573 0.53272 0.0
C2715 C 0.3142 0.17151 0.54245 0.0
C2716 C 0.29094 0.15567 0.53774 0.0
C2717 C 0.28294 0.15415 0.52344 0.0
C2718 C 0.35405 0.20266 0.5373 0.0
C2719 C 0.27448 0.14038 0.54782 0.0
C2720 C 0.34044 0.1612 0.57594 0.0
C2721 C 0.33996 0.17662 0.58615 0.0
C2722 C 0.33217 0.1594 0.56167 0.0
C2723 C 0.32298 0.17319 0.55755 0.0
C2724 C 0.32228 0.18866 0.56785 0.0
C2725 C 0.33088 0.19027 0.58201 0.0
C2726 C 0.33342 0.14287 0.55097 0.0
C2727 C 0.31237 0.20346 0.5639 0.0
H2728 H 0.33201 0.19473 0.51103 0.0
H2729 H 0.2651 0.14213 0.51985 0.0
H2730 H 0.35531 0.21484 0.54606 0.0
H2731 H 0.36282 0.19374 0.54149 0.0
H2732 H 0.36338 0.21238 0.52841 0.0
H2733 H 0.25688 0.12912 0.54251 0.0
H2734 H 0.28091 0.12964 0.55234 0.0
H2735 H 0.27344 0.15078 0.55688 0.0
H2736 H 0.34766 0.15079 0.57907 0.0
H2737 H 0.33024 0.20201 0.58992 0.0
H2738 H 0.34386 0.15209 0.5423 0.0
H2739 H 0.31592 0.13044 0.54599 0.0
H2740 H 0.34111 0.13341 0.55589 0.0
H2741 H 0.32215 0.21452 0.55563 0.0
H2742 H 0.3128 0.21438 0.57322 0.0
H2743 H 0.29427 0.19271 0.55929 0.0
C2744 C 0.90401 0.18753 0.52589 0.0
C2745 C 0.89033 0.16904 0.51577 0.0
C2746 C 0.89672 0.18893 0.53942 0.0
C2747 C 0.87531 0.17132 0.54305 0.0
C2748 C 0.86149 0.15252 0.53296 0.0
C2749 C 0.86909 0.15166 0.51945 0.0
C2750 C 0.91196 0.20932 0.54984 0.0
C2751 C 0.8386 0.13333 0.53642 0.0
C2752 C 0.86607 0.16553 0.5825 0.0
C2753 C 0.85268 0.1758 0.58464 0.0
C2754 C 0.87334 0.16375 0.56902 0.0
C2755 C 0.86732 0.17267 0.55737 0.0
C2756 C 0.85385 0.18308 0.55944 0.0
C2757 C 0.84661 0.1844 0.57299 0.0
C2758 C 0.88756 0.1524 0.56727 0.0
C2759 C 0.84716 0.19291 0.54732 0.0
H2760 H 0.92061 0.20087 0.52331 0.0
H2761 H 0.8582 0.13745 0.51169 0.0
H2762 H 0.90249 0.2181 0.55297 0.0
H2763 H 0.91668 0.20377 0.55969 0.0
H2764 H 0.92801 0.22167 0.54535 0.0
H2765 H 0.83012 0.11967 0.52753 0.0
H2766 H 0.841 0.12584 0.54608 0.0
H2767 H 0.82689 0.1399 0.53881 0.0
H2768 H 0.87122 0.15914 0.59143 0.0
H2769 H 0.83596 0.19203 0.57441 0.0
H2770 H 0.90461 0.16465 0.56384 0.0
H2771 H 0.87899 0.13809 0.55881 0.0
H2772 H 0.89027 0.14579 0.57728 0.0
H2773 H 0.86284 0.20614 0.54297 0.0
H2774 H 0.83677 0.20059 0.55069 0.0
H2775 H 0.83708 0.17946 0.53853 0.0
C2776 C 0.8857 0.74194 0.52857 0.0
C2777 C 0.87225 0.72761 0.51645 0.0
C2778 C 0.88269 0.7341 0.54226 0.0
C2779 C 0.86579 0.71136 0.54395 0.0
C2780 C 0.85248 0.6967 0.53174 0.0
C2781 C 0.85589 0.70496 0.51819 0.0
C2782 C 0.89729 0.75029 0.55497 0.0
C2783 C 0.83434 0.67233 0.53301 0.0
C2784 C 0.86842 0.68388 0.57776 0.0
C2785 C 0.85207 0.68562 0.58557 0.0
C2786 C 0.87335 0.69251 0.56435 0.0
C2787 C 0.86154 0.70301 0.55849 0.0
C2788 C 0.84516 0.70499 0.56637 0.0
C2789 C 0.84069 0.69637 0.5798 0.0
C2790 C 0.89111 0.69024 0.5564 0.0
C2791 C 0.83203 0.71588 0.5605 0.0
H2792 H 0.8982 0.75951 0.52741 0.0
H2793 H 0.84567 0.69361 0.50891 0.0
H2794 H 0.88616 0.75287 0.56221 0.0
H2795 H 0.9062 0.74298 0.56111 0.0
H2796 H 0.9104 0.76709 0.55183 0.0
H2797 H 0.82576 0.66297 0.52248 0.0
H2798 H 0.84218 0.66334 0.53835 0.0
H2799 H 0.82105 0.67179 0.53973 0.0
H2800 H 0.87751 0.67588 0.58221 0.0
H2801 H 0.82785 0.69757 0.58566 0.0
H2802 H 0.90474 0.7072 0.55386 0.0
H2803 H 0.88296 0.6798 0.54612 0.0
H2804 H 0.89928 0.68225 0.56258 0.0
H2805 H 0.84419 0.7334 0.55795 0.0
H2806 H 0.82027 0.71661 0.56808 0.0
H2807 H 0.8217 0.70618 0.55042 0.0
loop_
_geom_bond_atom_site_label_1
_geom_bond_atom_site_label_2
_geom_bond_distance
_geom_bond_site_symmetry_2
_ccdc_geom_bond_type
C0 C1 1.264 . S
C0 C5 1.479 . S
C0 C10 1.465 . S
C1 C0 1.264 . S
C1 C3 1.339 . S
C1 H28 0.931 . S
C2 C3 1.395 . S
C2 C4 1.320 . S
C3 C1 1.339 . S
C3 C2 1.395 . S
C3 H29 0.929 . S
C4 C2 1.320 . S
C4 C5 1.405 . S
C4 H30 0.930 . S
C5 C0 1.479 . S
C5 C4 1.405 . S
C5 H31 0.931 . S
U6 O7 2.454 . S
U6 O8 2.458 . S
U6 C9 2.984 . S
U6 C10 2.847 . S
U6 C23 2.882 . S
U6 O24 2.441 . S
U6 O25 2.420 . S
U6 O26 2.455 . S
U6 O27 2.449 . S
O7 U6 2.454 . S
O7 C9 1.353 . S
O8 U6 2.458 . S
O8 C9 1.286 . S
C9 U6 2.984 . S
C9 O7 1.353 . S
C9 O8 1.286 . S
C9 C11 1.363 . S
C10 C0 1.465 . S
C10 U6 2.847 . S
C10 O24 1.249 . S
C10 O25 1.202 . S
C11 C9 1.363 . S
C11 C13 1.408 . S
C11 C16 1.342 . S
C12 C13 1.310 . S
C12 C15 1.461 . S
C12 H32 0.932 . S
C13 C11 1.408 . S
C13 C12 1.310 . S
C13 H33 0.930 . S
C14 C15 1.474 . S
C14 C16 1.285 . S
C14 H34 0.929 . S
C15 C12 1.461 . S
C15 C14 1.474 . S
C16 C11 1.342 . S
C16 C14 1.285 . S
C16 H35 0.930 . S
C17 C20 1.424 . S
C17 C22 1.245 . S
C17 C23 1.428 . S
C18 C21 1.260 . S
C18 C22 1.477 . S
C18 H36 0.932 . S
C19 C20 1.384 . S
C19 C21 1.479 . S
C19 H37 0.929 . S
C20 C17 1.424 . S
C20 C19 1.384 . S
C20 H38 0.928 . S
C21 C18 1.260 . S
C21 C19 1.479 . S
C22 C17 1.245 . S
C22 C18 1.477 . S
C22 H39 0.932 . S
C23 U6 2.882 . S
C23 C17 1.428 . S
C23 O26 1.301 . S
C23 O27 1.282 . S
O24 U6 2.441 . S
O24 C10 1.249 . S
O25 U6 2.420 . S
O25 C10 1.202 . S
O26 U6 2.455 . S
O26 C23 1.301 . S
O27 U6 2.449 . S
O27 C23 1.282 . S
H28 C1 0.931 . S
H29 C3 0.929 . S
H30 C4 0.930 . S
H31 C5 0.931 . S
H32 C12 0.932 . S
H33 C13 0.930 . S
H34 C14 0.929 . S
H35 C16 0.930 . S
H36 C18 0.932 . S
H37 C19 0.929 . S
H38 C20 0.928 . S
H39 C22 0.932 . S
C40 C41 1.264 . S
C40 C45 1.479 . S
C40 C50 1.465 . S
C41 C40 1.264 . S
C41 C43 1.339 . S
C41 H68 0.931 . S
C42 C43 1.395 . S
C42 C44 1.320 . S
C43 C41 1.339 . S
C43 C42 1.395 . S
C43 H69 0.929 . S
C44 C42 1.320 . S
C44 C45 1.405 . S
C44 H70 0.930 . S
C45 C40 1.479 . S
C45 C44 1.405 . S
C45 H71 0.931 . S
U46 O47 2.454 . S
U46 O48 2.458 . S
U46 C49 2.984 . S
U46 C50 2.847 . S
U46 C63 2.882 . S
U46 O64 2.441 . S
U46 O65 2.420 . S
U46 O66 2.455 . S
U46 O67 2.449 . S
O47 U46 2.454 . S
O47 C49 1.353 . S
O48 U46 2.458 . S
O48 C49 1.286 . S
C49 U46 2.984 . S
C49 O47 1.353 . S
C49 O48 1.286 . S
C49 C51 1.363 . S
C50 C40 1.465 . S
C50 U46 2.847 . S
C50 O64 1.249 . S
C50 O65 1.202 . S
C51 C49 1.363 . S
C51 C53 1.408 . S
C51 C56 1.342 . S
C52 C53 1.310 . S
C52 C55 1.461 . S
C52 H72 0.932 . S
C53 C51 1.408 . S
C53 C52 1.310 . S
C53 H73 0.930 . S
C54 C55 1.474 . S
C54 C56 1.285 . S
C54 H74 0.929 . S
C55 C52 1.461 . S
C55 C54 1.474 . S
C56 C51 1.342 . S
C56 C54 1.285 . S
C56 H75 0.930 . S
C57 C60 1.424 . S
C57 C62 1.245 . S
C57 C63 1.428 . S
C58 C61 1.260 . S
C58 C62 1.477 . S
C58 H76 0.932 . S
C59 C60 1.384 . S
C59 C61 1.479 . S
C59 H77 0.929 . S
C60 C57 1.424 . S
C60 C59 1.384 . S
C60 H78 0.928 . S
C61 C58 1.260 . S
C61 C59 1.479 . S
C62 C57 1.245 . S
C62 C58 1.477 . S
C62 H79 0.932 . S
C63 U46 2.882 . S
C63 C57 1.428 . S
C63 O66 1.301 . S
C63 O67 1.282 . S
O64 U46 2.441 . S
O64 C50 1.249 . S
O65 U46 2.420 . S
O65 C50 1.202 . S
O66 U46 2.455 . S
O66 C63 1.301 . S
O67 U46 2.449 . S
O67 C63 1.282 . S
H68 C41 0.931 . S
H69 C43 0.929 . S
H70 C44 0.930 . S
H71 C45 0.931 . S
H72 C52 0.932 . S
H73 C53 0.930 . S
H74 C54 0.929 . S
H75 C56 0.930 . S
H76 C58 0.932 . S
H77 C59 0.929 . S
H78 C60 0.928 . S
H79 C62 0.932 . S
C80 C81 1.264 . S
C80 C85 1.479 . S
C80 C90 1.465 . S
C81 C80 1.264 . S
C81 C83 1.339 . S
C81 H108 0.931 . S
C82 C83 1.395 . S
C82 C84 1.320 . S
C83 C81 1.339 . S
C83 C82 1.395 . S
C83 H109 0.929 . S
C84 C82 1.320 . S
C84 C85 1.405 . S
C84 H110 0.930 . S
C85 C80 1.479 . S
C85 C84 1.405 . S
C85 H111 0.931 . S
U86 O87 2.454 . S
U86 O88 2.458 . S
U86 C89 2.984 . S
U86 C90 2.847 . S
U86 C103 2.882 . S
U86 O104 2.441 . S
U86 O105 2.420 . S
U86 O106 2.455 . S
U86 O107 2.449 . S
O87 U86 2.454 . S
O87 C89 1.353 . S
O88 U86 2.458 . S
O88 C89 1.286 . S
C89 U86 2.984 . S
C89 O87 1.353 . S
C89 O88 1.286 . S
C89 C91 1.363 . S
C90 C80 1.465 . S
C90 U86 2.847 . S
C90 O104 1.249 . S
C90 O105 1.202 . S
C91 C89 1.363 . S
C91 C93 1.408 . S
C91 C96 1.342 . S
C92 C93 1.310 . S
C92 C95 1.461 . S
C92 H112 0.932 . S
C93 C91 1.408 . S
C93 C92 1.310 . S
C93 H113 0.930 . S
C94 C95 1.474 . S
C94 C96 1.285 . S
C94 H114 0.929 . S
C95 C92 1.461 . S
C95 C94 1.474 . S
C96 C91 1.342 . S
C96 C94 1.285 . S
C96 H115 0.930 . S
C97 C100 1.424 . S
C97 C102 1.245 . S
C97 C103 1.428 . S
C98 C101 1.260 . S
C98 C102 1.477 . S
C98 H116 0.932 . S
C99 C100 1.384 . S
C99 C101 1.479 . S
C99 H117 0.929 . S
C100 C97 1.424 . S
C100 C99 1.384 . S
C100 H118 0.928 . S
C101 C98 1.260 . S
C101 C99 1.479 . S
C102 C97 1.245 . S
C102 C98 1.477 . S
C102 H119 0.932 . S
C103 U86 2.882 . S
C103 C97 1.428 . S
C103 O106 1.301 . S
C103 O107 1.282 . S
O104 U86 2.441 . S
O104 C90 1.249 . S
O105 U86 2.420 . S
O105 C90 1.202 . S
O106 U86 2.455 . S
O106 C103 1.301 . S
O107 U86 2.449 . S
O107 C103 1.282 . S
H108 C81 0.931 . S
H109 C83 0.929 . S
H110 C84 0.930 . S
H111 C85 0.931 . S
H112 C92 0.932 . S
H113 C93 0.930 . S
H114 C94 0.929 . S
H115 C96 0.930 . S
H116 C98 0.932 . S
H117 C99 0.929 . S
H118 C100 0.928 . S
H119 C102 0.932 . S
C120 C121 1.264 . S
C120 C125 1.479 . S
C120 C130 1.465 . S
C121 C120 1.264 . S
C121 C123 1.339 . S
C121 H148 0.931 . S
C122 C123 1.395 . S
C122 C124 1.320 . S
C123 C121 1.339 . S
C123 C122 1.395 . S
C123 H149 0.929 . S
C124 C122 1.320 . S
C124 C125 1.405 . S
C124 H150 0.930 . S
C125 C120 1.479 . S
C125 C124 1.405 . S
C125 H151 0.931 . S
U126 O127 2.454 . S
U126 O128 2.458 . S
U126 C129 2.984 . S
U126 C130 2.847 . S
U126 C143 2.882 . S
U126 O144 2.441 . S
U126 O145 2.420 . S
U126 O146 2.455 . S
U126 O147 2.449 . S
O127 U126 2.454 . S
O127 C129 1.353 . S
O128 U126 2.458 . S
O128 C129 1.286 . S
C129 U126 2.984 . S
C129 O127 1.353 . S
C129 O128 1.286 . S
C129 C131 1.363 . S
C130 C120 1.465 . S
C130 U126 2.847 . S
C130 O144 1.249 . S
C130 O145 1.202 . S
C131 C129 1.363 . S
C131 C133 1.408 . S
C131 C136 1.342 . S
C132 C133 1.310 . S
C132 C135 1.461 . S
C132 H152 0.932 . S
C133 C131 1.408 . S
C133 C132 1.310 . S
C133 H153 0.930 . S
C134 C135 1.474 . S
C134 C136 1.285 . S
C134 H154 0.929 . S
C135 C132 1.461 . S
C135 C134 1.474 . S
C136 C131 1.342 . S
C136 C134 1.285 . S
C136 H155 0.930 . S
C137 C140 1.424 . S
C137 C142 1.245 . S
C137 C143 1.428 . S
C138 C141 1.260 . S
C138 C142 1.477 . S
C138 H156 0.932 . S
C139 C140 1.384 . S
C139 C141 1.479 . S
C139 H157 0.929 . S
C140 C137 1.424 . S
C140 C139 1.384 . S
C140 H158 0.928 . S
C141 C138 1.260 . S
C141 C139 1.479 . S
C142 C137 1.245 . S
C142 C138 1.477 . S
C142 H159 0.932 . S
C143 U126 2.882 . S
C143 C137 1.428 . S
C143 O146 1.301 . S
C143 O147 1.282 . S
O144 U126 2.441 . S
O144 C130 1.249 . S
O145 U126 2.420 . S
O145 C130 1.202 . S
O146 U126 2.455 . S
O146 C143 1.301 . S
O147 U126 2.449 . S
O147 C143 1.282 . S
H148 C121 0.931 . S
H149 C123 0.929 . S
H150 C124 0.930 . S
H151 C125 0.931 . S
H152 C132 0.932 . S
H153 C133 0.930 . S
H154 C134 0.929 . S
H155 C136 0.930 . S
H156 C138 0.932 . S
H157 C139 0.929 . S
H158 C140 0.928 . S
H159 C142 0.932 . S
C160 C161 1.264 . S
C160 C165 1.479 . S
C160 C170 1.465 . S
C161 C160 1.264 . S
C161 C163 1.339 . S
C161 H188 0.931 . S
C162 C163 1.395 . S
C162 C164 1.320 . S
C163 C161 1.339 . S
C163 C162 1.395 . S
C163 H189 0.929 . S
C164 C162 1.320 . S
C164 C165 1.405 . S
C164 H190 0.930 . S
C165 C160 1.479 . S
C165 C164 1.405 . S
C165 H191 0.931 . S
U166 O167 2.454 . S
U166 O168 2.458 . S
U166 C169 2.984 . S
U166 C170 2.847 . S
U166 C183 2.882 . S
U166 O184 2.441 . S
U166 O185 2.420 . S
U166 O186 2.455 . S
U166 O187 2.449 . S
O167 U166 2.454 . S
O167 C169 1.353 . S
O168 U166 2.458 . S
O168 C169 1.286 . S
C169 U166 2.984 . S
C169 O167 1.353 . S
C169 O168 1.286 . S
C169 C171 1.363 . S
C170 C160 1.465 . S
C170 U166 2.847 . S
C170 O184 1.249 . S
C170 O185 1.202 . S
C171 C169 1.363 . S
C171 C173 1.408 . S
C171 C176 1.342 . S
C172 C173 1.310 . S
C172 C175 1.461 . S
C172 H192 0.932 . S
C173 C171 1.408 . S
C173 C172 1.310 . S
C173 H193 0.930 . S
C174 C175 1.474 . S
C174 C176 1.285 . S
C174 H194 0.929 . S
C175 C172 1.461 . S
C175 C174 1.474 . S
C176 C171 1.342 . S
C176 C174 1.285 . S
C176 H195 0.930 . S
C177 C180 1.424 . S
C177 C182 1.245 . S
C177 C183 1.428 . S
C178 C181 1.260 . S
C178 C182 1.477 . S
C178 H196 0.932 . S
C179 C180 1.384 . S
C179 C181 1.479 . S
C179 H197 0.929 . S
C180 C177 1.424 . S
C180 C179 1.384 . S
C180 H198 0.928 . S
C181 C178 1.260 . S
C181 C179 1.479 . S
C182 C177 1.245 . S
C182 C178 1.477 . S
C182 H199 0.932 . S
C183 U166 2.882 . S
C183 C177 1.428 . S
C183 O186 1.301 . S
C183 O187 1.282 . S
O184 U166 2.441 . S
O184 C170 1.249 . S
O185 U166 2.420 . S
O185 C170 1.202 . S
O186 U166 2.455 . S
O186 C183 1.301 . S
O187 U166 2.449 . S
O187 C183 1.282 . S
H188 C161 0.931 . S
H189 C163 0.929 . S
H190 C164 0.930 . S
H191 C165 0.931 . S
H192 C172 0.932 . S
H193 C173 0.930 . S
H194 C174 0.929 . S
H195 C176 0.930 . S
H196 C178 0.932 . S
H197 C179 0.929 . S
H198 C180 0.928 . S
H199 C182 0.932 . S
C200 C201 1.264 . S
C200 C205 1.479 . S
C200 C210 1.465 . S
C201 C200 1.264 . S
C201 C203 1.339 . S
C201 H228 0.931 . S
C202 C203 1.395 . S
C202 C204 1.320 . S
C203 C201 1.339 . S
C203 C202 1.395 . S
C203 H229 0.929 . S
C204 C202 1.320 . S
C204 C205 1.405 . S
C204 H230 0.930 . S
C205 C200 1.479 . S
C205 C204 1.405 . S
C205 H231 0.931 . S
U206 O207 2.454 . S
U206 O208 2.458 . S
U206 C209 2.984 . S
U206 C210 2.847 . S
U206 C223 2.882 . S
U206 O224 2.441 . S
U206 O225 2.420 . S
U206 O226 2.455 . S
U206 O227 2.449 . S
O207 U206 2.454 . S
O207 C209 1.353 . S
O208 U206 2.458 . S
O208 C209 1.286 . S
C209 U206 2.984 . S
C209 O207 1.353 . S
C209 O208 1.286 . S
C209 C211 1.363 . S
C210 C200 1.465 . S
C210 U206 2.847 . S
C210 O224 1.249 . S
C210 O225 1.202 . S
C211 C209 1.363 . S
C211 C213 1.408 . S
C211 C216 1.342 . S
C212 C213 1.310 . S
C212 C215 1.461 . S
C212 H232 0.932 . S
C213 C211 1.408 . S
C213 C212 1.310 . S
C213 H233 0.930 . S
C214 C215 1.474 . S
C214 C216 1.285 . S
C214 H234 0.929 . S
C215 C212 1.461 . S
C215 C214 1.474 . S
C216 C211 1.342 . S
C216 C214 1.285 . S
C216 H235 0.930 . S
C217 C220 1.424 . S
C217 C222 1.245 . S
C217 C223 1.428 . S
C218 C221 1.260 . S
C218 C222 1.477 . S
C218 H236 0.932 . S
C219 C220 1.384 . S
C219 C221 1.479 . S
C219 H237 0.929 . S
C220 C217 1.424 . S
C220 C219 1.384 . S
C220 H238 0.928 . S
C221 C218 1.260 . S
C221 C219 1.479 . S
C222 C217 1.245 . S
C222 C218 1.477 . S
C222 H239 0.932 . S
C223 U206 2.882 . S
C223 C217 1.428 . S
C223 O226 1.301 . S
C223 O227 1.282 . S
O224 U206 2.441 . S
O224 C210 1.249 . S
O225 U206 2.420 . S
O225 C210 1.202 . S
O226 U206 2.455 . S
O226 C223 1.301 . S
O227 U206 2.449 . S
O227 C223 1.282 . S
H228 C201 0.931 . S
H229 C203 0.929 . S
H230 C204 0.930 . S
H231 C205 0.931 . S
H232 C212 0.932 . S
H233 C213 0.930 . S
H234 C214 0.929 . S
H235 C216 0.930 . S
H236 C218 0.932 . S
H237 C219 0.929 . S
H238 C220 0.928 . S
H239 C222 0.932 . S
C240 C241 1.264 . S
C240 C245 1.479 . S
C240 C250 1.465 . S
C241 C240 1.264 . S
C241 C243 1.339 . S
C241 H268 0.931 . S
C242 C243 1.395 . S
C242 C244 1.320 . S
C243 C241 1.339 . S
C243 C242 1.395 . S
C243 H269 0.929 . S
C244 C242 1.320 . S
C244 C245 1.405 . S
C244 H270 0.930 . S
C245 C240 1.479 . S
C245 C244 1.405 . S
C245 H271 0.931 . S
U246 O247 2.454 . S
U246 O248 2.458 . S
U246 C249 2.984 . S
U246 C250 2.847 . S
U246 C263 2.882 . S
U246 O264 2.441 . S
U246 O265 2.420 . S
U246 O266 2.455 . S
U246 O267 2.449 . S
O247 U246 2.454 . S
O247 C249 1.353 . S
O248 U246 2.458 . S
O248 C249 1.286 . S
C249 U246 2.984 . S
C249 O247 1.353 . S
C249 O248 1.286 . S
C249 C251 1.363 . S
C250 C240 1.465 . S
C250 U246 2.847 . S
C250 O264 1.249 . S
C250 O265 1.202 . S
C251 C249 1.363 . S
C251 C253 1.408 . S
C251 C256 1.342 . S
C252 C253 1.310 . S
C252 C255 1.461 . S
C252 H272 0.932 . S
C253 C251 1.408 . S
C253 C252 1.310 . S
C253 H273 0.930 . S
C254 C255 1.474 . S
C254 C256 1.285 . S
C254 H274 0.929 . S
C255 C252 1.461 . S
C255 C254 1.474 . S
C256 C251 1.342 . S
C256 C254 1.285 . S
C256 H275 0.930 . S
C257 C260 1.424 . S
C257 C262 1.245 . S
C257 C263 1.428 . S
C258 C261 1.260 . S
C258 C262 1.477 . S
C258 H276 0.932 . S
C259 C260 1.384 . S
C259 C261 1.479 . S
C259 H277 0.929 . S
C260 C257 1.424 . S
C260 C259 1.384 . S
C260 H278 0.928 . S
C261 C258 1.260 . S
C261 C259 1.479 . S
C262 C257 1.245 . S
C262 C258 1.477 . S
C262 H279 0.932 . S
C263 U246 2.882 . S
C263 C257 1.428 . S
C263 O266 1.301 . S
C263 O267 1.282 . S
O264 U246 2.441 . S
O264 C250 1.249 . S
O265 U246 2.420 . S
O265 C250 1.202 . S
O266 U246 2.455 . S
O266 C263 1.301 . S
O267 U246 2.449 . S
O267 C263 1.282 . S
H268 C241 0.931 . S
H269 C243 0.929 . S
H270 C244 0.930 . S
H271 C245 0.931 . S
H272 C252 0.932 . S
H273 C253 0.930 . S
H274 C254 0.929 . S
H275 C256 0.930 . S
H276 C258 0.932 . S
H277 C259 0.929 . S
H278 C260 0.928 . S
H279 C262 0.932 . S
C280 C281 1.264 . S
C280 C285 1.479 . S
C280 C290 1.465 . S
C281 C280 1.264 . S
C281 C283 1.339 . S
C281 H308 0.931 . S
C282 C283 1.395 . S
C282 C284 1.320 . S
C283 C281 1.339 . S
C283 C282 1.395 . S
C283 H309 0.929 . S
C284 C282 1.320 . S
C284 C285 1.405 . S
C284 H310 0.930 . S
C285 C280 1.479 . S
C285 C284 1.405 . S
C285 H311 0.931 . S
U286 O287 2.454 . S
U286 O288 2.458 . S
U286 C289 2.984 . S
U286 C290 2.847 . S
U286 C303 2.882 . S
U286 O304 2.441 . S
U286 O305 2.420 . S
U286 O306 2.455 . S
U286 O307 2.449 . S
O287 U286 2.454 . S
O287 C289 1.353 . S
O288 U286 2.458 . S
O288 C289 1.286 . S
C289 U286 2.984 . S
C289 O287 1.353 . S
C289 O288 1.286 . S
C289 C291 1.363 . S
C290 C280 1.465 . S
C290 U286 2.847 . S
C290 O304 1.249 . S
C290 O305 1.202 . S
C291 C289 1.363 . S
C291 C293 1.408 . S
C291 C296 1.342 . S
C292 C293 1.310 . S
C292 C295 1.461 . S
C292 H312 0.932 . S
C293 C291 1.408 . S
C293 C292 1.310 . S
C293 H313 0.930 . S
C294 C295 1.474 . S
C294 C296 1.285 . S
C294 H314 0.929 . S
C295 C292 1.461 . S
C295 C294 1.474 . S
C296 C291 1.342 . S
C296 C294 1.285 . S
C296 H315 0.930 . S
C297 C300 1.424 . S
C297 C302 1.245 . S
C297 C303 1.428 . S
C298 C301 1.260 . S
C298 C302 1.477 . S
C298 H316 0.932 . S
C299 C300 1.384 . S
C299 C301 1.479 . S
C299 H317 0.929 . S
C300 C297 1.424 . S
C300 C299 1.384 . S
C300 H318 0.928 . S
C301 C298 1.260 . S
C301 C299 1.479 . S
C302 C297 1.245 . S
C302 C298 1.477 . S
C302 H319 0.932 . S
C303 U286 2.882 . S
C303 C297 1.428 . S
C303 O306 1.301 . S
C303 O307 1.282 . S
O304 U286 2.441 . S
O304 C290 1.249 . S
O305 U286 2.420 . S
O305 C290 1.202 . S
O306 U286 2.455 . S
O306 C303 1.301 . S
O307 U286 2.449 . S
O307 C303 1.282 . S
H308 C281 0.931 . S
H309 C283 0.929 . S
H310 C284 0.930 . S
H311 C285 0.931 . S
H312 C292 0.932 . S
H313 C293 0.930 . S
H314 C294 0.929 . S
H315 C296 0.930 . S
H316 C298 0.932 . S
H317 C299 0.929 . S
H318 C300 0.928 . S
H319 C302 0.932 . S
C320 C321 1.264 . S
C320 C325 1.479 . S
C320 C330 1.465 . S
C321 C320 1.264 . S
C321 C323 1.339 . S
C321 H348 0.931 . S
C322 C323 1.395 . S
C322 C324 1.320 . S
C323 C321 1.339 . S
C323 C322 1.395 . S
C323 H349 0.929 . S
C324 C322 1.320 . S
C324 C325 1.405 . S
C324 H350 0.930 . S
C325 C320 1.479 . S
C325 C324 1.405 . S
C325 H351 0.931 . S
U326 O327 2.454 . S
U326 O328 2.458 . S
U326 C329 2.984 . S
U326 C330 2.847 . S
U326 C343 2.882 . S
U326 O344 2.441 . S
U326 O345 2.420 . S
U326 O346 2.455 . S
U326 O347 2.449 . S
O327 U326 2.454 . S
O327 C329 1.353 . S
O328 U326 2.458 . S
O328 C329 1.286 . S
C329 U326 2.984 . S
C329 O327 1.353 . S
C329 O328 1.286 . S
C329 C331 1.363 . S
C330 C320 1.465 . S
C330 U326 2.847 . S
C330 O344 1.249 . S
C330 O345 1.202 . S
C331 C329 1.363 . S
C331 C333 1.408 . S
C331 C336 1.342 . S
C332 C333 1.310 . S
C332 C335 1.461 . S
C332 H352 0.932 . S
C333 C331 1.408 . S
C333 C332 1.310 . S
C333 H353 0.930 . S
C334 C335 1.474 . S
C334 C336 1.285 . S
C334 H354 0.929 . S
C335 C332 1.461 . S
C335 C334 1.474 . S
C336 C331 1.342 . S
C336 C334 1.285 . S
C336 H355 0.930 . S
C337 C340 1.424 . S
C337 C342 1.245 . S
C337 C343 1.428 . S
C338 C341 1.260 . S
C338 C342 1.477 . S
C338 H356 0.932 . S
C339 C340 1.384 . S
C339 C341 1.479 . S
C339 H357 0.929 . S
C340 C337 1.424 . S
C340 C339 1.384 . S
C340 H358 0.928 . S
C341 C338 1.260 . S
C341 C339 1.479 . S
C342 C337 1.245 . S
C342 C338 1.477 . S
C342 H359 0.932 . S
C343 U326 2.882 . S
C343 C337 1.428 . S
C343 O346 1.301 . S
C343 O347 1.282 . S
O344 U326 2.441 . S
O344 C330 1.249 . S
O345 U326 2.420 . S
O345 C330 1.202 . S
O346 U326 2.455 . S
O346 C343 1.301 . S
O347 U326 2.449 . S
O347 C343 1.282 . S
H348 C321 0.931 . S
H349 C323 0.929 . S
H350 C324 0.930 . S
H351 C325 0.931 . S
H352 C332 0.932 . S
H353 C333 0.930 . S
H354 C334 0.929 . S
H355 C336 0.930 . S
H356 C338 0.932 . S
H357 C339 0.929 . S
H358 C340 0.928 . S
H359 C342 0.932 . S
C360 C361 1.264 . S
C360 C365 1.479 . S
C360 C370 1.465 . S
C361 C360 1.264 . S
C361 C363 1.339 . S
C361 H388 0.931 . S
C362 C363 1.395 . S
C362 C364 1.320 . S
C363 C361 1.339 . S
C363 C362 1.395 . S
C363 H389 0.929 . S
C364 C362 1.320 . S
C364 C365 1.405 . S
C364 H390 0.930 . S
C365 C360 1.479 . S
C365 C364 1.405 . S
C365 H391 0.931 . S
U366 O367 2.454 . S
U366 O368 2.458 . S
U366 C369 2.984 . S
U366 C370 2.847 . S
U366 C383 2.882 . S
U366 O384 2.441 . S
U366 O385 2.420 . S
U366 O386 2.455 . S
U366 O387 2.449 . S
O367 U366 2.454 . S
O367 C369 1.353 . S
O368 U366 2.458 . S
O368 C369 1.286 . S
C369 U366 2.984 . S
C369 O367 1.353 . S
C369 O368 1.286 . S
C369 C371 1.363 . S
C370 C360 1.465 . S
C370 U366 2.847 . S
C370 O384 1.249 . S
C370 O385 1.202 . S
C371 C369 1.363 . S
C371 C373 1.408 . S
C371 C376 1.342 . S
C372 C373 1.310 . S
C372 C375 1.461 . S
C372 H392 0.932 . S
C373 C371 1.408 . S
C373 C372 1.310 . S
C373 H393 0.930 . S
C374 C375 1.474 . S
C374 C376 1.285 . S
C374 H394 0.929 . S
C375 C372 1.461 . S
C375 C374 1.474 . S
C376 C371 1.342 . S
C376 C374 1.285 . S
C376 H395 0.930 . S
C377 C380 1.424 . S
C377 C382 1.245 . S
C377 C383 1.428 . S
C378 C381 1.260 . S
C378 C382 1.477 . S
C378 H396 0.932 . S
C379 C380 1.384 . S
C379 C381 1.479 . S
C379 H397 0.929 . S
C380 C377 1.424 . S
C380 C379 1.384 . S
C380 H398 0.928 . S
C381 C378 1.260 . S
C381 C379 1.479 . S
C382 C377 1.245 . S
C382 C378 1.477 . S
C382 H399 0.932 . S
C383 U366 2.882 . S
C383 C377 1.428 . S
C383 O386 1.301 . S
C383 O387 1.282 . S
O384 U366 2.441 . S
O384 C370 1.249 . S
O385 U366 2.420 . S
O385 C370 1.202 . S
O386 U366 2.455 . S
O386 C383 1.301 . S
O387 U366 2.449 . S
O387 C383 1.282 . S
H388 C361 0.931 . S
H389 C363 0.929 . S
H390 C364 0.930 . S
H391 C365 0.931 . S
H392 C372 0.932 . S
H393 C373 0.930 . S
H394 C374 0.929 . S
H395 C376 0.930 . S
H396 C378 0.932 . S
H397 C379 0.929 . S
H398 C380 0.928 . S
H399 C382 0.932 . S
C400 C401 1.264 . S
C400 C405 1.479 . S
C400 C410 1.465 . S
C401 C400 1.264 . S
C401 C403 1.339 . S
C401 H428 0.931 . S
C402 C403 1.395 . S
C402 C404 1.320 . S
C403 C401 1.339 . S
C403 C402 1.395 . S
C403 H429 0.929 . S
C404 C402 1.320 . S
C404 C405 1.405 . S
C404 H430 0.930 . S
C405 C400 1.479 . S
C405 C404 1.405 . S
C405 H431 0.931 . S
U406 O407 2.454 . S
U406 O408 2.458 . S
U406 C409 2.984 . S
U406 C410 2.847 . S
U406 C423 2.882 . S
U406 O424 2.441 . S
U406 O425 2.420 . S
U406 O426 2.455 . S
U406 O427 2.449 . S
O407 U406 2.454 . S
O407 C409 1.353 . S
O408 U406 2.458 . S
O408 C409 1.286 . S
C409 U406 2.984 . S
C409 O407 1.353 . S
C409 O408 1.286 . S
C409 C411 1.363 . S
C410 C400 1.465 . S
C410 U406 2.847 . S
C410 O424 1.249 . S
C410 O425 1.202 . S
C411 C409 1.363 . S
C411 C413 1.408 . S
C411 C416 1.342 . S
C412 C413 1.310 . S
C412 C415 1.461 . S
C412 H432 0.932 . S
C413 C411 1.408 . S
C413 C412 1.310 . S
C413 H433 0.930 . S
C414 C415 1.474 . S
C414 C416 1.285 . S
C414 H434 0.929 . S
C415 C412 1.461 . S
C415 C414 1.474 . S
C416 C411 1.342 . S
C416 C414 1.285 . S
C416 H435 0.930 . S
C417 C420 1.424 . S
C417 C422 1.245 . S
C417 C423 1.428 . S
C418 C421 1.260 . S
C418 C422 1.477 . S
C418 H436 0.932 . S
C419 C420 1.384 . S
C419 C421 1.479 . S
C419 H437 0.929 . S
C420 C417 1.424 . S
C420 C419 1.384 . S
C420 H438 0.928 . S
C421 C418 1.260 . S
C421 C419 1.479 . S
C422 C417 1.245 . S
C422 C418 1.477 . S
C422 H439 0.932 . S
C423 U406 2.882 . S
C423 C417 1.428 . S
C423 O426 1.301 . S
C423 O427 1.282 . S
O424 U406 2.441 . S
O424 C410 1.249 . S
O425 U406 2.420 . S
O425 C410 1.202 . S
O426 U406 2.455 . S
O426 C423 1.301 . S
O427 U406 2.449 . S
O427 C423 1.282 . S
H428 C401 0.931 . S
H429 C403 0.929 . S
H430 C404 0.930 . S
H431 C405 0.931 . S
H432 C412 0.932 . S
H433 C413 0.930 . S
H434 C414 0.929 . S
H435 C416 0.930 . S
H436 C418 0.932 . S
H437 C419 0.929 . S
H438 C420 0.928 . S
H439 C422 0.932 . S
C440 C441 1.264 . S
C440 C445 1.479 . S
C440 C450 1.465 . S
C441 C440 1.264 . S
C441 C443 1.339 . S
C441 H468 0.931 . S
C442 C443 1.395 . S
C442 C444 1.320 . S
C443 C441 1.339 . S
C443 C442 1.395 . S
C443 H469 0.929 . S
C444 C442 1.320 . S
C444 C445 1.405 . S
C444 H470 0.930 . S
C445 C440 1.479 . S
C445 C444 1.405 . S
C445 H471 0.931 . S
U446 O447 2.454 . S
U446 O448 2.458 . S
U446 C449 2.984 . S
U446 C450 2.847 . S
U446 C463 2.882 . S
U446 O464 2.441 . S
U446 O465 2.420 . S
U446 O466 2.455 . S
U446 O467 2.449 . S
O447 U446 2.454 . S
O447 C449 1.353 . S
O448 U446 2.458 . S
O448 C449 1.286 . S
C449 U446 2.984 . S
C449 O447 1.353 . S
C449 O448 1.286 . S
C449 C451 1.363 . S
C450 C440 1.465 . S
C450 U446 2.847 . S
C450 O464 1.249 . S
C450 O465 1.202 . S
C451 C449 1.363 . S
C451 C453 1.408 . S
C451 C456 1.342 . S
C452 C453 1.310 . S
C452 C455 1.461 . S
C452 H472 0.932 . S
C453 C451 1.408 . S
C453 C452 1.310 . S
C453 H473 0.930 . S
C454 C455 1.474 . S
C454 C456 1.285 . S
C454 H474 0.929 . S
C455 C452 1.461 . S
C455 C454 1.474 . S
C456 C451 1.342 . S
C456 C454 1.285 . S
C456 H475 0.930 . S
C457 C460 1.424 . S
C457 C462 1.245 . S
C457 C463 1.428 . S
C458 C461 1.260 . S
C458 C462 1.477 . S
C458 H476 0.932 . S
C459 C460 1.384 . S
C459 C461 1.479 . S
C459 H477 0.929 . S
C460 C457 1.424 . S
C460 C459 1.384 . S
C460 H478 0.928 . S
C461 C458 1.260 . S
C461 C459 1.479 . S
C462 C457 1.245 . S
C462 C458 1.477 . S
C462 H479 0.932 . S
C463 U446 2.882 . S
C463 C457 1.428 . S
C463 O466 1.301 . S
C463 O467 1.282 . S
O464 U446 2.441 . S
O464 C450 1.249 . S
O465 U446 2.420 . S
O465 C450 1.202 . S
O466 U446 2.455 . S
O466 C463 1.301 . S
O467 U446 2.449 . S
O467 C463 1.282 . S
H468 C441 0.931 . S
H469 C443 0.929 . S
H470 C444 0.930 . S
H471 C445 0.931 . S
H472 C452 0.932 . S
H473 C453 0.930 . S
H474 C454 0.929 . S
H475 C456 0.930 . S
H476 C458 0.932 . S
H477 C459 0.929 . S
H478 C460 0.928 . S
H479 C462 0.932 . S
C480 C481 1.264 . S
C480 C485 1.479 . S
C480 C490 1.465 . S
C481 C480 1.264 . S
C481 C483 1.339 . S
C481 H508 0.931 . S
C482 C483 1.395 . S
C482 C484 1.320 . S
C483 C481 1.339 . S
C483 C482 1.395 . S
C483 H509 0.929 . S
C484 C482 1.320 . S
C484 C485 1.405 . S
C484 H510 0.930 . S
C485 C480 1.479 . S
C485 C484 1.405 . S
C485 H511 0.931 . S
U486 O487 2.454 . S
U486 O488 2.458 . S
U486 C489 2.984 . S
U486 C490 2.847 . S
U486 C503 2.882 . S
U486 O504 2.441 . S
U486 O505 2.420 . S
U486 O506 2.455 . S
U486 O507 2.449 . S
O487 U486 2.454 . S
O487 C489 1.353 . S
O488 U486 2.458 . S
O488 C489 1.286 . S
C489 U486 2.984 . S
C489 O487 1.353 . S
C489 O488 1.286 . S
C489 C491 1.363 . S
C490 C480 1.465 . S
C490 U486 2.847 . S
C490 O504 1.249 . S
C490 O505 1.202 . S
C491 C489 1.363 . S
C491 C493 1.408 . S
C491 C496 1.342 . S
C492 C493 1.310 . S
C492 C495 1.461 . S
C492 H512 0.932 . S
C493 C491 1.408 . S
C493 C492 1.310 . S
C493 H513 0.930 . S
C494 C495 1.474 . S
C494 C496 1.285 . S
C494 H514 0.929 . S
C495 C492 1.461 . S
C495 C494 1.474 . S
C496 C491 1.342 . S
C496 C494 1.285 . S
C496 H515 0.930 . S
C497 C500 1.424 . S
C497 C502 1.245 . S
C497 C503 1.428 . S
C498 C501 1.260 . S
C498 C502 1.477 . S
C498 H516 0.932 . S
C499 C500 1.384 . S
C499 C501 1.479 . S
C499 H517 0.929 . S
C500 C497 1.424 . S
C500 C499 1.384 . S
C500 H518 0.928 . S
C501 C498 1.260 . S
C501 C499 1.479 . S
C502 C497 1.245 . S
C502 C498 1.477 . S
C502 H519 0.932 . S
C503 U486 2.882 . S
C503 C497 1.428 . S
C503 O506 1.301 . S
C503 O507 1.282 . S
O504 U486 2.441 . S
O504 C490 1.249 . S
O505 U486 2.420 . S
O505 C490 1.202 . S
O506 U486 2.455 . S
O506 C503 1.301 . S
O507 U486 2.449 . S
O507 C503 1.282 . S
H508 C481 0.931 . S
H509 C483 0.929 . S
H510 C484 0.930 . S
H511 C485 0.931 . S
H512 C492 0.932 . S
H513 C493 0.930 . S
H514 C494 0.929 . S
H515 C496 0.930 . S
H516 C498 0.932 . S
H517 C499 0.929 . S
H518 C500 0.928 . S
H519 C502 0.932 . S
C520 C521 1.264 . S
C520 C525 1.479 . S
C520 C530 1.465 . S
C521 C520 1.264 . S
C521 C523 1.339 . S
C521 H548 0.931 . S
C522 C523 1.395 . S
C522 C524 1.320 . S
C523 C521 1.339 . S
C523 C522 1.395 . S
C523 H549 0.929 . S
C524 C522 1.320 . S
C524 C525 1.405 . S
C524 H550 0.930 . S
C525 C520 1.479 . S
C525 C524 1.405 . S
C525 H551 0.931 . S
U526 O527 2.454 . S
U526 O528 2.458 . S
U526 C529 2.984 . S
U526 C530 2.847 . S
U526 C543 2.882 . S
U526 O544 2.441 . S
U526 O545 2.420 . S
U526 O546 2.455 . S
U526 O547 2.449 . S
O527 U526 2.454 . S
O527 C529 1.353 . S
O528 U526 2.458 . S
O528 C529 1.286 . S
C529 U526 2.984 . S
C529 O527 1.353 . S
C529 O528 1.286 . S
C529 C531 1.363 . S
C530 C520 1.465 . S
C530 U526 2.847 . S
C530 O544 1.249 . S
C530 O545 1.202 . S
C531 C529 1.363 . S
C531 C533 1.408 . S
C531 C536 1.342 . S
C532 C533 1.310 . S
C532 C535 1.461 . S
C532 H552 0.932 . S
C533 C531 1.408 . S
C533 C532 1.310 . S
C533 H553 0.930 . S
C534 C535 1.474 . S
C534 C536 1.285 . S
C534 H554 0.929 . S
C535 C532 1.461 . S
C535 C534 1.474 . S
C536 C531 1.342 . S
C536 C534 1.285 . S
C536 H555 0.930 . S
C537 C540 1.424 . S
C537 C542 1.245 . S
C537 C543 1.428 . S
C538 C541 1.260 . S
C538 C542 1.477 . S
C538 H556 0.932 . S
C539 C540 1.384 . S
C539 C541 1.479 . S
C539 H557 0.929 . S
C540 C537 1.424 . S
C540 C539 1.384 . S
C540 H558 0.928 . S
C541 C538 1.260 . S
C541 C539 1.479 . S
C542 C537 1.245 . S
C542 C538 1.477 . S
C542 H559 0.932 . S
C543 U526 2.882 . S
C543 C537 1.428 . S
C543 O546 1.301 . S
C543 O547 1.282 . S
O544 U526 2.441 . S
O544 C530 1.249 . S
O545 U526 2.420 . S
O545 C530 1.202 . S
O546 U526 2.455 . S
O546 C543 1.301 . S
O547 U526 2.449 . S
O547 C543 1.282 . S
H548 C521 0.931 . S
H549 C523 0.929 . S
H550 C524 0.930 . S
H551 C525 0.931 . S
H552 C532 0.932 . S
H553 C533 0.930 . S
H554 C534 0.929 . S
H555 C536 0.930 . S
H556 C538 0.932 . S
H557 C539 0.929 . S
H558 C540 0.928 . S
H559 C542 0.932 . S
C560 C561 1.264 . S
C560 C565 1.479 . S
C560 C570 1.465 . S
C561 C560 1.264 . S
C561 C563 1.339 . S
C561 H588 0.931 . S
C562 C563 1.395 . S
C562 C564 1.320 . S
C563 C561 1.339 . S
C563 C562 1.395 . S
C563 H589 0.929 . S
C564 C562 1.320 . S
C564 C565 1.405 . S
C564 H590 0.930 . S
C565 C560 1.479 . S
C565 C564 1.405 . S
C565 H591 0.931 . S
U566 O567 2.454 . S
U566 O568 2.458 . S
U566 C569 2.984 . S
U566 C570 2.847 . S
U566 C583 2.882 . S
U566 O584 2.441 . S
U566 O585 2.420 . S
U566 O586 2.455 . S
U566 O587 2.449 . S
O567 U566 2.454 . S
O567 C569 1.353 . S
O568 U566 2.458 . S
O568 C569 1.286 . S
C569 U566 2.984 . S
C569 O567 1.353 . S
C569 O568 1.286 . S
C569 C571 1.363 . S
C570 C560 1.465 . S
C570 U566 2.847 . S
C570 O584 1.249 . S
C570 O585 1.202 . S
C571 C569 1.363 . S
C571 C573 1.408 . S
C571 C576 1.342 . S
C572 C573 1.310 . S
C572 C575 1.461 . S
C572 H592 0.932 . S
C573 C571 1.408 . S
C573 C572 1.310 . S
C573 H593 0.930 . S
C574 C575 1.474 . S
C574 C576 1.285 . S
C574 H594 0.929 . S
C575 C572 1.461 . S
C575 C574 1.474 . S
C576 C571 1.342 . S
C576 C574 1.285 . S
C576 H595 0.930 . S
C577 C580 1.424 . S
C577 C582 1.245 . S
C577 C583 1.428 . S
C578 C581 1.260 . S
C578 C582 1.477 . S
C578 H596 0.932 . S
C579 C580 1.384 . S
C579 C581 1.479 . S
C579 H597 0.929 . S
C580 C577 1.424 . S
C580 C579 1.384 . S
C580 H598 0.928 . S
C581 C578 1.260 . S
C581 C579 1.479 . S
C582 C577 1.245 . S
C582 C578 1.477 . S
C582 H599 0.932 . S
C583 U566 2.882 . S
C583 C577 1.428 . S
C583 O586 1.301 . S
C583 O587 1.282 . S
O584 U566 2.441 . S
O584 C570 1.249 . S
O585 U566 2.420 . S
O585 C570 1.202 . S
O586 U566 2.455 . S
O586 C583 1.301 . S
O587 U566 2.449 . S
O587 C583 1.282 . S
H588 C561 0.931 . S
H589 C563 0.929 . S
H590 C564 0.930 . S
H591 C565 0.931 . S
H592 C572 0.932 . S
H593 C573 0.930 . S
H594 C574 0.929 . S
H595 C576 0.930 . S
H596 C578 0.932 . S
H597 C579 0.929 . S
H598 C580 0.928 . S
H599 C582 0.932 . S
C600 C601 1.264 . S
C600 C605 1.479 . S
C600 C610 1.465 . S
C601 C600 1.264 . S
C601 C603 1.339 . S
C601 H628 0.931 . S
C602 C603 1.395 . S
C602 C604 1.320 . S
C603 C601 1.339 . S
C603 C602 1.395 . S
C603 H629 0.929 . S
C604 C602 1.320 . S
C604 C605 1.405 . S
C604 H630 0.930 . S
C605 C600 1.479 . S
C605 C604 1.405 . S
C605 H631 0.931 . S
U606 O607 2.454 . S
U606 O608 2.458 . S
U606 C609 2.984 . S
U606 C610 2.847 . S
U606 C623 2.882 . S
U606 O624 2.441 . S
U606 O625 2.420 . S
U606 O626 2.455 . S
U606 O627 2.449 . S
O607 U606 2.454 . S
O607 C609 1.353 . S
O608 U606 2.458 . S
O608 C609 1.286 . S
C609 U606 2.984 . S
C609 O607 1.353 . S
C609 O608 1.286 . S
C609 C611 1.363 . S
C610 C600 1.465 . S
C610 U606 2.847 . S
C610 O624 1.249 . S
C610 O625 1.202 . S
C611 C609 1.363 . S
C611 C613 1.408 . S
C611 C616 1.342 . S
C612 C613 1.310 . S
C612 C615 1.461 . S
C612 H632 0.932 . S
C613 C611 1.408 . S
C613 C612 1.310 . S
C613 H633 0.930 . S
C614 C615 1.474 . S
C614 C616 1.285 . S
C614 H634 0.929 . S
C615 C612 1.461 . S
C615 C614 1.474 . S
C616 C611 1.342 . S
C616 C614 1.285 . S
C616 H635 0.930 . S
C617 C620 1.424 . S
C617 C622 1.245 . S
C617 C623 1.428 . S
C618 C621 1.260 . S
C618 C622 1.477 . S
C618 H636 0.932 . S
C619 C620 1.384 . S
C619 C621 1.479 . S
C619 H637 0.929 . S
C620 C617 1.424 . S
C620 C619 1.384 . S
C620 H638 0.928 . S
C621 C618 1.260 . S
C621 C619 1.479 . S
C622 C617 1.245 . S
C622 C618 1.477 . S
C622 H639 0.932 . S
C623 U606 2.882 . S
C623 C617 1.428 . S
C623 O626 1.301 . S
C623 O627 1.282 . S
O624 U606 2.441 . S
O624 C610 1.249 . S
O625 U606 2.420 . S
O625 C610 1.202 . S
O626 U606 2.455 . S
O626 C623 1.301 . S
O627 U606 2.449 . S
O627 C623 1.282 . S
H628 C601 0.931 . S
H629 C603 0.929 . S
H630 C604 0.930 . S
H631 C605 0.931 . S
H632 C612 0.932 . S
H633 C613 0.930 . S
H634 C614 0.929 . S
H635 C616 0.930 . S
H636 C618 0.932 . S
H637 C619 0.929 . S
H638 C620 0.928 . S
H639 C622 0.932 . S
C640 C641 1.264 . S
C640 C645 1.479 . S
C640 C650 1.465 . S
C641 C640 1.264 . S
C641 C643 1.339 . S
C641 H668 0.931 . S
C642 C643 1.395 . S
C642 C644 1.320 . S
C643 C641 1.339 . S
C643 C642 1.395 . S
C643 H669 0.929 . S
C644 C642 1.320 . S
C644 C645 1.405 . S
C644 H670 0.930 . S
C645 C640 1.479 . S
C645 C644 1.405 . S
C645 H671 0.931 . S
U646 O647 2.454 . S
U646 O648 2.458 . S
U646 C649 2.984 . S
U646 C650 2.847 . S
U646 C663 2.882 . S
U646 O664 2.441 . S
U646 O665 2.420 . S
U646 O666 2.455 . S
U646 O667 2.449 . S
O647 U646 2.454 . S
O647 C649 1.353 . S
O648 U646 2.458 . S
O648 C649 1.286 . S
C649 U646 2.984 . S
C649 O647 1.353 . S
C649 O648 1.286 . S
C649 C651 1.363 . S
C650 C640 1.465 . S
C650 U646 2.847 . S
C650 O664 1.249 . S
C650 O665 1.202 . S
C651 C649 1.363 . S
C651 C653 1.408 . S
C651 C656 1.342 . S
C652 C653 1.310 . S
C652 C655 1.461 . S
C652 H672 0.932 . S
C653 C651 1.408 . S
C653 C652 1.310 . S
C653 H673 0.930 . S
C654 C655 1.474 . S
C654 C656 1.285 . S
C654 H674 0.929 . S
C655 C652 1.461 . S
C655 C654 1.474 . S
C656 C651 1.342 . S
C656 C654 1.285 . S
C656 H675 0.930 . S
C657 C660 1.424 . S
C657 C662 1.245 . S
C657 C663 1.428 . S
C658 C661 1.260 . S
C658 C662 1.477 . S
C658 H676 0.935 . S
C659 C660 1.384 . S
C659 C661 1.479 . S
C659 H677 0.929 . S
C660 C657 1.424 . S
C660 C659 1.384 . S
C660 H678 0.928 . S
C661 C658 1.260 . S
C661 C659 1.479 . S
C662 C657 1.245 . S
C662 C658 1.477 . S
C662 H679 0.932 . S
C663 U646 2.882 . S
C663 C657 1.428 . S
C663 O666 1.301 . S
C663 O667 1.282 . S
O664 U646 2.441 . S
O664 C650 1.249 . S
O665 U646 2.420 . S
O665 C650 1.202 . S
O666 U646 2.455 . S
O666 C663 1.301 . S
O667 U646 2.449 . S
O667 C663 1.282 . S
H668 C641 0.931 . S
H669 C643 0.929 . S
H670 C644 0.930 . S
H671 C645 0.931 . S
H672 C652 0.932 . S
H673 C653 0.930 . S
H674 C654 0.929 . S
H675 C656 0.930 . S
H676 C658 0.935 . S
H677 C659 0.929 . S
H678 C660 0.928 . S
H679 C662 0.932 . S
C680 C681 1.264 . S
C680 C685 1.479 . S
C680 C690 1.465 . S
C681 C680 1.264 . S
C681 C683 1.339 . S
C681 H708 0.931 . S
C682 C683 1.395 . S
C682 C684 1.320 . S
C683 C681 1.339 . S
C683 C682 1.395 . S
C683 H709 0.929 . S
C684 C682 1.320 . S
C684 C685 1.405 . S
C684 H710 0.930 . S
C685 C680 1.479 . S
C685 C684 1.405 . S
C685 H711 0.931 . S
U686 O687 2.454 . S
U686 O688 2.458 . S
U686 C689 2.984 . S
U686 C690 2.847 . S
U686 C703 2.882 . S
U686 O704 2.441 . S
U686 O705 2.420 . S
U686 O706 2.455 . S
U686 O707 2.449 . S
O687 U686 2.454 . S
O687 C689 1.353 . S
O688 U686 2.458 . S
O688 C689 1.286 . S
C689 U686 2.984 . S
C689 O687 1.353 . S
C689 O688 1.286 . S
C689 C691 1.363 . S
C690 C680 1.465 . S
C690 U686 2.847 . S
C690 O704 1.249 . S
C690 O705 1.202 . S
C691 C689 1.363 . S
C691 C693 1.408 . S
C691 C696 1.342 . S
C692 C693 1.310 . S
C692 C695 1.461 . S
C692 H712 0.932 . S
C693 C691 1.408 . S
C693 C692 1.310 . S
C693 H713 0.930 . S
C694 C695 1.474 . S
C694 C696 1.285 . S
C694 H714 0.929 . S
C695 C692 1.461 . S
C695 C694 1.474 . S
C696 C691 1.342 . S
C696 C694 1.285 . S
C696 H715 0.930 . S
C697 C700 1.424 . S
C697 C702 1.245 . S
C697 C703 1.428 . S
C698 C701 1.260 . S
C698 C702 1.477 . S
C698 H716 0.932 . S
C699 C700 1.384 . S
C699 C701 1.479 . S
C699 H717 0.929 . S
C700 C697 1.424 . S
C700 C699 1.384 . S
C700 H718 0.928 . S
C701 C698 1.260 . S
C701 C699 1.479 . S
C702 C697 1.245 . S
C702 C698 1.477 . S
C702 H719 0.932 . S
C703 U686 2.882 . S
C703 C697 1.428 . S
C703 O706 1.301 . S
C703 O707 1.282 . S
O704 U686 2.441 . S
O704 C690 1.249 . S
O705 U686 2.420 . S
O705 C690 1.202 . S
O706 U686 2.455 . S
O706 C703 1.301 . S
O707 U686 2.449 . S
O707 C703 1.282 . S
H708 C681 0.931 . S
H709 C683 0.929 . S
H710 C684 0.930 . S
H711 C685 0.931 . S
H712 C692 0.932 . S
H713 C693 0.930 . S
H714 C694 0.929 . S
H715 C696 0.930 . S
H716 C698 0.932 . S
H717 C699 0.929 . S
H718 C700 0.928 . S
H719 C702 0.932 . S
Tb720 C730 2.825 . S
Tb720 O731 2.347 1_565 S
Tb720 O734 2.366 1_565 S
Tb720 O739 2.418 . S
Tb720 O740 2.384 1_556 S
Tb720 O743 2.479 . S
Tb720 O744 2.471 1_565 S
Eu721 O732 2.418 . S
Eu721 O733 2.384 . S
Eu721 O736 2.479 . S
Eu721 O737 2.471 1_545 S
Eu721 O738 2.347 1_545 S
Eu721 O741 2.366 1_545 S
Eu721 C751 2.825 . S
C722 O738 1.259 . S
C722 O739 1.265 1_554 S
C723 O740 1.255 . S
C723 O741 1.265 . S
C724 C726 1.380 . S
C724 C727 1.374 1_565 S
C724 C730 1.507 . S
C725 C726 1.384 . S
C725 C729 1.387 1_565 S
C725 H752 0.930 . S
C726 C724 1.380 . S
C726 C725 1.384 . S
C726 H753 0.931 . S
C727 C724 1.374 1_545 S
C727 C728 1.390 . S
C727 H754 0.930 . S
C728 C727 1.390 . S
C728 C729 1.391 . S
C728 H755 0.930 . S
C729 C725 1.387 1_545 S
C729 C728 1.391 . S
C730 Tb720 2.825 . S
C730 C724 1.507 . S
C730 O743 1.238 . S
C730 O744 1.247 1_565 S
O731 Tb720 2.347 1_545 S
O731 C735 1.259 1_556 S
O732 Eu721 2.418 . S
O732 C735 1.265 . S
O733 Eu721 2.384 . S
O733 C742 1.255 1_554 S
O734 Tb720 2.366 1_545 S
O734 C742 1.265 . S
C735 O731 1.259 1_554 S
C735 O732 1.265 . S
O736 Eu721 2.479 . S
O736 C751 1.238 . S
O737 Eu721 2.471 1_565 S
O737 C751 1.247 1_565 S
O738 Eu721 2.347 1_565 S
O738 C722 1.259 . S
O739 Tb720 2.418 . S
O739 C722 1.265 1_556 S
O740 Tb720 2.384 1_554 S
O740 C723 1.255 . S
O741 Eu721 2.366 1_565 S
O741 C723 1.265 . S
C742 O733 1.255 1_556 S
C742 O734 1.265 . S
O743 Tb720 2.479 . S
O743 C730 1.238 . S
O744 Tb720 2.471 1_545 S
O744 C730 1.247 1_545 S
C745 C748 1.380 . S
C745 C749 1.374 1_545 S
C745 C751 1.507 . S
C746 C747 1.387 1_565 S
C746 C750 1.391 . S
C747 C746 1.387 1_545 S
C747 C748 1.384 . S
C747 H756 0.930 . S
C748 C745 1.380 . S
C748 C747 1.384 . S
C748 H757 0.931 . S
C749 C745 1.374 1_565 S
C749 C750 1.390 . S
C749 H758 0.930 . S
C750 C746 1.391 . S
C750 C749 1.390 . S
C750 H759 0.930 . S
C751 Eu721 2.825 . S
C751 O736 1.238 . S
C751 O737 1.247 1_545 S
C751 C745 1.507 . S
H752 C725 0.930 . S
H753 C726 0.931 . S
H754 C727 0.930 . S
H755 C728 0.930 . S
H756 C747 0.930 . S
H757 C748 0.931 . S
H758 C749 0.930 . S
H759 C750 0.930 . S
Tb760 C770 2.825 . S
Tb760 O771 2.347 1_455 S
Tb760 O774 2.366 1_455 S
Tb760 O779 2.418 . S
Tb760 O780 2.384 1_556 S
Tb760 O783 2.479 . S
Tb760 O784 2.471 1_455 S
Eu761 O772 2.418 . S
Eu761 O773 2.384 . S
Eu761 O776 2.479 . S
Eu761 O777 2.471 1_655 S
Eu761 O778 2.347 1_655 S
Eu761 O781 2.366 1_655 S
Eu761 C791 2.825 . S
C762 O778 1.259 . S
C762 O779 1.265 1_554 S
C763 O780 1.255 . S
C763 O781 1.265 . S
C764 C766 1.380 . S
C764 C767 1.374 1_455 S
C764 C770 1.507 . S
C765 C766 1.384 . S
C765 C769 1.387 1_455 S
C765 H792 0.930 . S
C766 C764 1.380 . S
C766 C765 1.384 . S
C766 H793 0.931 . S
C767 C764 1.374 1_655 S
C767 C768 1.390 . S
C767 H794 0.930 . S
C768 C767 1.390 . S
C768 C769 1.391 . S
C768 H795 0.930 . S
C769 C765 1.387 1_655 S
C769 C768 1.391 . S
C770 Tb760 2.825 . S
C770 C764 1.507 . S
C770 O783 1.238 . S
C770 O784 1.247 1_455 S
O771 Tb760 2.347 1_655 S
O771 C775 1.261 . S
O772 Eu761 2.418 . S
O772 C775 1.258 1_554 S
O773 Eu761 2.384 . S
O773 C782 1.255 1_554 S
O774 Tb760 2.366 1_655 S
O774 C782 1.265 . S
C775 O771 1.261 . S
C775 O772 1.258 1_556 S
O776 Eu761 2.479 . S
O776 C791 1.238 . S
O777 Eu761 2.471 1_455 S
O777 C791 1.247 1_455 S
O778 Eu761 2.347 1_455 S
O778 C762 1.259 . S
O779 Tb760 2.418 . S
O779 C762 1.265 1_556 S
O780 Tb760 2.384 1_554 S
O780 C763 1.255 . S
O781 Eu761 2.366 1_455 S
O781 C763 1.265 . S
C782 O773 1.255 1_556 S
C782 O774 1.265 . S
O783 Tb760 2.479 . S
O783 C770 1.238 . S
O784 Tb760 2.471 1_655 S
O784 C770 1.247 1_655 S
C785 C788 1.370 1_455 S
C785 C789 1.391 . S
C785 C791 1.499 1_455 S
C786 C787 1.387 1_455 S
C786 C790 1.391 . S
C787 C786 1.387 1_655 S
C787 C788 1.384 . S
C787 H796 0.930 . S
C788 C785 1.370 1_655 S
C788 C787 1.384 . S
C788 H797 0.931 . S
C789 C785 1.391 . S
C789 C790 1.390 . S
C789 H798 0.930 . S
C790 C786 1.391 . S
C790 C789 1.390 . S
C790 H799 0.930 . S
C791 Eu761 2.825 . S
C791 O776 1.238 . S
C791 O777 1.247 1_655 S
C791 C785 1.499 1_655 S
H792 C765 0.930 . S
H793 C766 0.931 . S
H794 C767 0.930 . S
H795 C768 0.930 . S
H796 C787 0.930 . S
H797 C788 0.931 . S
H798 C789 0.930 . S
H799 C790 0.930 . S
Tb800 C810 2.825 . S
Tb800 O811 2.347 . S
Tb800 O814 2.366 . S
Tb800 O819 2.418 . S
Tb800 O820 2.384 . S
Tb800 O823 2.479 . S
Tb800 O824 2.471 . S
Eu801 O812 2.418 . S
Eu801 O813 2.384 1_556 S
Eu801 O816 2.479 . S
Eu801 O817 2.471 . S
Eu801 O818 2.347 . S
Eu801 O821 2.366 . S
Eu801 C831 2.825 . S
C802 O818 1.241 1_554 S
C802 O819 1.307 . S
C803 O820 1.255 1_556 S
C803 O821 1.265 . S
C804 C806 1.380 . S
C804 C807 1.374 . S
C804 C810 1.507 . S
C805 C806 1.384 . S
C805 C809 1.387 . S
C805 H832 0.930 . S
C806 C804 1.380 . S
C806 C805 1.384 . S
C806 H833 0.931 . S
C807 C804 1.374 . S
C807 C808 1.390 . S
C807 H834 0.930 . S
C808 C807 1.390 . S
C808 C809 1.391 . S
C808 H835 0.930 . S
C809 C805 1.387 . S
C809 C808 1.391 . S
C810 Tb800 2.825 . S
C810 C804 1.507 . S
C810 O823 1.238 . S
C810 O824 1.247 . S
O811 Tb800 2.347 . S
O811 C815 1.259 . S
O812 Eu801 2.418 . S
O812 C815 1.265 1_556 S
O813 Eu801 2.384 1_554 S
O813 C822 1.255 . S
O814 Tb800 2.366 . S
O814 C822 1.265 . S
C815 O811 1.259 . S
C815 O812 1.265 1_554 S
O816 Eu801 2.479 . S
O816 C831 1.238 . S
O817 Eu801 2.471 . S
O817 C831 1.247 . S
O818 Eu801 2.347 . S
O818 C802 1.241 1_556 S
O819 Tb800 2.418 . S
O819 C802 1.307 . S
O820 Tb800 2.384 . S
O820 C803 1.255 1_554 S
O821 Eu801 2.366 . S
O821 C803 1.265 . S
C822 O813 1.255 . S
C822 O814 1.265 . S
O823 Tb800 2.479 . S
O823 C810 1.238 . S
O824 Tb800 2.471 . S
O824 C810 1.247 . S
C825 C828 1.380 . S
C825 C829 1.374 . S
C825 C831 1.507 . S
C826 C827 1.387 . S
C826 C830 1.391 . S
C827 C826 1.387 . S
C827 C828 1.384 . S
C827 H836 0.930 . S
C828 C825 1.380 . S
C828 C827 1.384 . S
C828 H837 0.931 . S
C829 C825 1.374 . S
C829 C830 1.390 . S
C829 H838 0.930 . S
C830 C826 1.391 . S
C830 C829 1.390 . S
C830 H839 0.930 . S
C831 Eu801 2.825 . S
C831 O816 1.238 . S
C831 O817 1.247 . S
C831 C825 1.507 . S
H832 C805 0.930 . S
H833 C806 0.931 . S
H834 C807 0.930 . S
H835 C808 0.930 . S
H836 C827 0.930 . S
H837 C828 0.931 . S
H838 C829 0.930 . S
H839 C830 0.930 . S
Tb840 C850 2.825 . S
Tb840 O851 2.347 . S
Tb840 O854 2.366 . S
Tb840 O859 2.418 . S
Tb840 O860 2.384 . S
Tb840 O863 2.479 . S
Tb840 O864 2.471 . S
Eu841 O852 2.418 . S
Eu841 O853 2.384 . S
Eu841 O856 2.479 . S
Eu841 O857 2.471 . S
Eu841 O858 2.347 . S
Eu841 O861 2.366 . S
Eu841 C871 2.825 . S
C842 O858 1.259 . S
C842 O859 1.265 . S
C843 O860 1.255 . S
C843 O861 1.265 . S
C844 C846 1.380 . S
C844 C847 1.374 . S
C844 C850 1.507 . S
C845 C846 1.384 . S
C845 C849 1.387 . S
C845 H872 0.930 . S
C846 C844 1.380 . S
C846 C845 1.384 . S
C846 H873 0.931 . S
C847 C844 1.374 . S
C847 C848 1.390 . S
C847 H874 0.930 . S
C848 C847 1.390 . S
C848 C849 1.391 . S
C848 H875 0.930 . S
C849 C845 1.387 . S
C849 C848 1.391 . S
C850 Tb840 2.825 . S
C850 C844 1.507 . S
C850 O863 1.238 . S
C850 O864 1.247 . S
O851 Tb840 2.347 . S
O851 C855 1.259 . S
O852 Eu841 2.418 . S
O852 C855 1.265 . S
O853 Eu841 2.384 . S
O853 C862 1.255 . S
O854 Tb840 2.366 . S
O854 C862 1.265 . S
C855 O851 1.259 . S
C855 O852 1.265 . S
O856 Eu841 2.479 . S
O856 C871 1.238 . S
O857 Eu841 2.471 . S
O857 C871 1.247 . S
O858 Eu841 2.347 . S
O858 C842 1.259 . S
O859 Tb840 2.418 . S
O859 C842 1.265 . S
O860 Tb840 2.384 . S
O860 C843 1.255 . S
O861 Eu841 2.366 . S
O861 C843 1.265 . S
C862 O853 1.255 . S
C862 O854 1.265 . S
O863 Tb840 2.479 . S
O863 C850 1.238 . S
O864 Tb840 2.471 . S
O864 C850 1.247 . S
C865 C868 1.380 . S
C865 C869 1.374 . S
C865 C871 1.507 . S
C866 C867 1.387 . S
C866 C870 1.391 . S
C867 C866 1.387 . S
C867 C868 1.384 . S
C867 H876 0.930 . S
C868 C865 1.380 . S
C868 C867 1.384 . S
C868 H877 0.931 . S
C869 C865 1.374 . S
C869 C870 1.390 . S
C869 H878 0.930 . S
C870 C866 1.391 . S
C870 C869 1.390 . S
C870 H879 0.930 . S
C871 Eu841 2.825 . S
C871 O856 1.238 . S
C871 O857 1.247 . S
C871 C865 1.507 . S
H872 C845 0.930 . S
H873 C846 0.931 . S
H874 C847 0.930 . S
H875 C848 0.930 . S
H876 C867 0.930 . S
H877 C868 0.931 . S
H878 C869 0.930 . S
H879 C870 0.930 . S
Tb880 C890 2.825 . S
Tb880 O891 2.347 . S
Tb880 O894 2.366 . S
Tb880 O899 2.418 . S
Tb880 O900 2.384 . S
Tb880 O903 2.479 . S
Tb880 O904 2.471 . S
Eu881 O892 2.418 . S
Eu881 O893 2.384 . S
Eu881 O896 2.479 . S
Eu881 O897 2.471 . S
Eu881 O898 2.347 . S
Eu881 O901 2.366 . S
Eu881 C911 2.825 . S
C882 O898 1.259 . S
C882 O899 1.265 . S
C883 O900 1.255 . S
C883 O901 1.265 . S
C884 C886 1.380 . S
C884 C887 1.374 . S
C884 C890 1.507 . S
C885 C886 1.384 . S
C885 C889 1.387 . S
C885 H912 0.930 . S
C886 C884 1.380 . S
C886 C885 1.384 . S
C886 H913 0.931 . S
C887 C884 1.374 . S
C887 C888 1.390 . S
C887 H914 0.930 . S
C888 C887 1.390 . S
C888 C889 1.391 . S
C888 H915 0.930 . S
C889 C885 1.387 . S
C889 C888 1.391 . S
C890 Tb880 2.825 . S
C890 C884 1.507 . S
C890 O903 1.238 . S
C890 O904 1.247 . S
O891 Tb880 2.347 . S
O891 C895 1.259 . S
O892 Eu881 2.418 . S
O892 C895 1.265 . S
O893 Eu881 2.384 . S
O893 C902 1.255 . S
O894 Tb880 2.366 . S
O894 C902 1.265 . S
C895 O891 1.259 . S
C895 O892 1.265 . S
O896 Eu881 2.479 . S
O896 C911 1.238 . S
O897 Eu881 2.471 . S
O897 C911 1.247 . S
O898 Eu881 2.347 . S
O898 C882 1.259 . S
O899 Tb880 2.418 . S
O899 C882 1.265 . S
O900 Tb880 2.384 . S
O900 C883 1.255 . S
O901 Eu881 2.366 . S
O901 C883 1.265 . S
C902 O893 1.255 . S
C902 O894 1.265 . S
O903 Tb880 2.479 . S
O903 C890 1.238 . S
O904 Tb880 2.471 . S
O904 C890 1.247 . S
C905 C908 1.380 . S
C905 C909 1.374 . S
C905 C911 1.507 . S
C906 C907 1.387 . S
C906 C910 1.391 . S
C907 C906 1.387 . S
C907 C908 1.384 . S
C907 H916 0.930 . S
C908 C905 1.380 . S
C908 C907 1.384 . S
C908 H917 0.931 . S
C909 C905 1.374 . S
C909 C910 1.390 . S
C909 H918 0.930 . S
C910 C906 1.391 . S
C910 C909 1.390 . S
C910 H919 0.930 . S
C911 Eu881 2.825 . S
C911 O896 1.238 . S
C911 O897 1.247 . S
C911 C905 1.507 . S
H912 C885 0.930 . S
H913 C886 0.931 . S
H914 C887 0.930 . S
H915 C888 0.930 . S
H916 C907 0.930 . S
H917 C908 0.931 . S
H918 C909 0.930 . S
H919 C910 0.930 . S
Tb920 C930 2.825 . S
Tb920 O931 2.347 . S
Tb920 O934 2.366 . S
Tb920 O939 2.418 . S
Tb920 O940 2.384 . S
Tb920 O943 2.479 . S
Tb920 O944 2.471 . S
Eu921 O932 2.418 . S
Eu921 O933 2.384 . S
Eu921 O936 2.479 . S
Eu921 O937 2.471 . S
Eu921 O938 2.347 . S
Eu921 O941 2.366 . S
Eu921 C951 2.825 . S
C922 O938 1.259 . S
C922 O939 1.265 . S
C923 O940 1.255 . S
C923 O941 1.265 . S
C924 C926 1.380 . S
C924 C927 1.374 . S
C924 C930 1.507 . S
C925 C926 1.384 . S
C925 C929 1.387 . S
C925 H952 0.930 . S
C926 C924 1.380 . S
C926 C925 1.384 . S
C926 H953 0.931 . S
C927 C924 1.374 . S
C927 C928 1.390 . S
C927 H954 0.930 . S
C928 C927 1.390 . S
C928 C929 1.391 . S
C928 H955 0.930 . S
C929 C925 1.387 . S
C929 C928 1.391 . S
C930 Tb920 2.825 . S
C930 C924 1.507 . S
C930 O943 1.238 . S
C930 O944 1.247 . S
O931 Tb920 2.347 . S
O931 C935 1.259 . S
O932 Eu921 2.418 . S
O932 C935 1.265 . S
O933 Eu921 2.384 . S
O933 C942 1.255 . S
O934 Tb920 2.366 . S
O934 C942 1.265 . S
C935 O931 1.259 . S
C935 O932 1.265 . S
O936 Eu921 2.479 . S
O936 C951 1.238 . S
O937 Eu921 2.471 . S
O937 C951 1.247 . S
O938 Eu921 2.347 . S
O938 C922 1.259 . S
O939 Tb920 2.418 . S
O939 C922 1.265 . S
O940 Tb920 2.384 . S
O940 C923 1.255 . S
O941 Eu921 2.366 . S
O941 C923 1.265 . S
C942 O933 1.255 . S
C942 O934 1.265 . S
O943 Tb920 2.479 . S
O943 C930 1.238 . S
O944 Tb920 2.471 . S
O944 C930 1.247 . S
C945 C948 1.380 . S
C945 C949 1.374 . S
C945 C951 1.507 . S
C946 C947 1.387 . S
C946 C950 1.391 . S
C947 C946 1.387 . S
C947 C948 1.384 . S
C947 H956 0.930 . S
C948 C945 1.380 . S
C948 C947 1.384 . S
C948 H957 0.931 . S
C949 C945 1.374 . S
C949 C950 1.390 . S
C949 H958 0.930 . S
C950 C946 1.391 . S
C950 C949 1.390 . S
C950 H959 0.930 . S
C951 Eu921 2.825 . S
C951 O936 1.238 . S
C951 O937 1.247 . S
C951 C945 1.507 . S
H952 C925 0.930 . S
H953 C926 0.931 . S
H954 C927 0.930 . S
H955 C928 0.930 . S
H956 C947 0.930 . S
H957 C948 0.931 . S
H958 C949 0.930 . S
H959 C950 0.930 . S
Tb960 C970 2.825 . S
Tb960 O971 2.347 . S
Tb960 O974 2.366 . S
Tb960 O979 2.418 . S
Tb960 O980 2.384 . S
Tb960 O983 2.479 . S
Tb960 O984 2.471 . S
Eu961 O972 2.418 . S
Eu961 O973 2.384 . S
Eu961 O976 2.479 . S
Eu961 O977 2.471 . S
Eu961 O978 2.347 . S
Eu961 O981 2.366 . S
Eu961 C991 2.825 . S
C962 O978 1.259 . S
C962 O979 1.265 . S
C963 O980 1.255 . S
C963 O981 1.265 . S
C964 C966 1.380 . S
C964 C967 1.374 . S
C964 C970 1.507 . S
C965 C966 1.384 . S
C965 C969 1.387 . S
C965 H992 0.930 . S
C966 C964 1.380 . S
C966 C965 1.384 . S
C966 H993 0.931 . S
C967 C964 1.374 . S
C967 C968 1.390 . S
C967 H994 0.930 . S
C968 C967 1.390 . S
C968 C969 1.391 . S
C968 H995 0.930 . S
C969 C965 1.387 . S
C969 C968 1.391 . S
C970 Tb960 2.825 . S
C970 C964 1.507 . S
C970 O983 1.238 . S
C970 O984 1.247 . S
O971 Tb960 2.347 . S
O971 C975 1.259 . S
O972 Eu961 2.418 . S
O972 C975 1.265 . S
O973 Eu961 2.384 . S
O973 C982 1.255 . S
O974 Tb960 2.366 . S
O974 C982 1.265 . S
C975 O971 1.259 . S
C975 O972 1.265 . S
O976 Eu961 2.479 . S
O976 C991 1.238 . S
O977 Eu961 2.471 . S
O977 C991 1.247 . S
O978 Eu961 2.347 . S
O978 C962 1.259 . S
O979 Tb960 2.418 . S
O979 C962 1.265 . S
O980 Tb960 2.384 . S
O980 C963 1.255 . S
O981 Eu961 2.366 . S
O981 C963 1.265 . S
C982 O973 1.255 . S
C982 O974 1.265 . S
O983 Tb960 2.479 . S
O983 C970 1.238 . S
O984 Tb960 2.471 . S
O984 C970 1.247 . S
C985 C988 1.380 . S
C985 C989 1.374 . S
C985 C991 1.507 . S
C986 C987 1.387 . S
C986 C990 1.391 . S
C987 C986 1.387 . S
C987 C988 1.384 . S
C987 H996 0.930 . S
C988 C985 1.380 . S
C988 C987 1.384 . S
C988 H997 0.931 . S
C989 C985 1.374 . S
C989 C990 1.390 . S
C989 H998 0.930 . S
C990 C986 1.391 . S
C990 C989 1.390 . S
C990 H999 0.930 . S
C991 Eu961 2.825 . S
C991 O976 1.238 . S
C991 O977 1.247 . S
C991 C985 1.507 . S
H992 C965 0.930 . S
H993 C966 0.931 . S
H994 C967 0.930 . S
H995 C968 0.930 . S
H996 C987 0.930 . S
H997 C988 0.931 . S
H998 C989 0.930 . S
H999 C990 0.930 . S
Tb1000 C1010 2.825 . S
Tb1000 O1011 2.347 . S
Tb1000 O1014 2.366 . S
Tb1000 O1019 2.418 . S
Tb1000 O1020 2.384 . S
Tb1000 O1023 2.479 . S
Tb1000 O1024 2.471 . S
Eu1001 O1012 2.418 . S
Eu1001 O1013 2.384 . S
Eu1001 O1016 2.479 . S
Eu1001 O1017 2.471 . S
Eu1001 O1018 2.347 . S
Eu1001 O1021 2.366 . S
Eu1001 C1031 2.825 . S
C1002 O1018 1.259 . S
C1002 O1019 1.265 . S
C1003 O1020 1.255 . S
C1003 O1021 1.265 . S
C1004 C1006 1.380 . S
C1004 C1007 1.374 . S
C1004 C1010 1.507 . S
C1005 C1006 1.384 . S
C1005 C1009 1.387 . S
C1005 H1032 0.930 . S
C1006 C1004 1.380 . S
C1006 C1005 1.384 . S
C1006 H1033 0.931 . S
C1007 C1004 1.374 . S
C1007 C1008 1.390 . S
C1007 H1034 0.930 . S
C1008 C1007 1.390 . S
C1008 C1009 1.391 . S
C1008 H1035 0.930 . S
C1009 C1005 1.387 . S
C1009 C1008 1.391 . S
C1010 Tb1000 2.825 . S
C1010 C1004 1.507 . S
C1010 O1023 1.238 . S
C1010 O1024 1.247 . S
O1011 Tb1000 2.347 . S
O1011 C1015 1.259 . S
O1012 Eu1001 2.418 . S
O1012 C1015 1.265 . S
O1013 Eu1001 2.384 . S
O1013 C1022 1.255 . S
O1014 Tb1000 2.366 . S
O1014 C1022 1.265 . S
C1015 O1011 1.259 . S
C1015 O1012 1.265 . S
O1016 Eu1001 2.479 . S
O1016 C1031 1.238 . S
O1017 Eu1001 2.471 . S
O1017 C1031 1.247 . S
O1018 Eu1001 2.347 . S
O1018 C1002 1.259 . S
O1019 Tb1000 2.418 . S
O1019 C1002 1.265 . S
O1020 Tb1000 2.384 . S
O1020 C1003 1.255 . S
O1021 Eu1001 2.366 . S
O1021 C1003 1.265 . S
C1022 O1013 1.255 . S
C1022 O1014 1.265 . S
O1023 Tb1000 2.479 . S
O1023 C1010 1.238 . S
O1024 Tb1000 2.471 . S
O1024 C1010 1.247 . S
C1025 C1028 1.380 . S
C1025 C1029 1.374 . S
C1025 C1031 1.507 . S
C1026 C1027 1.387 . S
C1026 C1030 1.391 . S
C1027 C1026 1.387 . S
C1027 C1028 1.384 . S
C1027 H1036 0.930 . S
C1028 C1025 1.380 . S
C1028 C1027 1.384 . S
C1028 H1037 0.931 . S
C1029 C1025 1.374 . S
C1029 C1030 1.390 . S
C1029 H1038 0.930 . S
C1030 C1026 1.391 . S
C1030 C1029 1.390 . S
C1030 H1039 0.930 . S
C1031 Eu1001 2.825 . S
C1031 O1016 1.238 . S
C1031 O1017 1.247 . S
C1031 C1025 1.507 . S
H1032 C1005 0.930 . S
H1033 C1006 0.931 . S
H1034 C1007 0.930 . S
H1035 C1008 0.930 . S
H1036 C1027 0.930 . S
H1037 C1028 0.931 . S
H1038 C1029 0.930 . S
H1039 C1030 0.930 . S
Tb1040 C1050 2.825 . S
Tb1040 O1051 2.347 . S
Tb1040 O1054 2.366 . S
Tb1040 O1059 2.418 . S
Tb1040 O1060 2.384 . S
Tb1040 O1063 2.479 . S
Tb1040 O1064 2.471 . S
Eu1041 O1052 2.418 . S
Eu1041 O1053 2.384 . S
Eu1041 O1056 2.479 . S
Eu1041 O1057 2.471 . S
Eu1041 O1058 2.347 . S
Eu1041 O1061 2.366 . S
Eu1041 C1071 2.825 . S
C1042 O1058 1.259 . S
C1042 O1059 1.265 . S
C1043 O1060 1.255 . S
C1043 O1061 1.265 . S
C1044 C1046 1.380 . S
C1044 C1047 1.374 . S
C1044 C1050 1.507 . S
C1045 C1046 1.384 . S
C1045 C1049 1.387 . S
C1045 H1072 0.930 . S
C1046 C1044 1.380 . S
C1046 C1045 1.384 . S
C1046 H1073 0.931 . S
C1047 C1044 1.374 . S
C1047 C1048 1.390 . S
C1047 H1074 0.930 . S
C1048 C1047 1.390 . S
C1048 C1049 1.391 . S
C1048 H1075 0.930 . S
C1049 C1045 1.387 . S
C1049 C1048 1.391 . S
C1050 Tb1040 2.825 . S
C1050 C1044 1.507 . S
C1050 O1063 1.238 . S
C1050 O1064 1.247 . S
O1051 Tb1040 2.347 . S
O1051 C1055 1.259 . S
O1052 Eu1041 2.418 . S
O1052 C1055 1.265 . S
O1053 Eu1041 2.384 . S
O1053 C1062 1.255 . S
O1054 Tb1040 2.366 . S
O1054 C1062 1.265 . S
C1055 O1051 1.259 . S
C1055 O1052 1.265 . S
O1056 Eu1041 2.479 . S
O1056 C1071 1.238 . S
O1057 Eu1041 2.471 . S
O1057 C1071 1.247 . S
O1058 Eu1041 2.347 . S
O1058 C1042 1.259 . S
O1059 Tb1040 2.418 . S
O1059 C1042 1.265 . S
O1060 Tb1040 2.384 . S
O1060 C1043 1.255 . S
O1061 Eu1041 2.366 . S
O1061 C1043 1.265 . S
C1062 O1053 1.255 . S
C1062 O1054 1.265 . S
O1063 Tb1040 2.479 . S
O1063 C1050 1.238 . S
O1064 Tb1040 2.471 . S
O1064 C1050 1.247 . S
C1065 C1068 1.380 . S
C1065 C1069 1.374 . S
C1065 C1071 1.507 . S
C1066 C1067 1.387 . S
C1066 C1070 1.391 . S
C1067 C1066 1.387 . S
C1067 C1068 1.384 . S
C1067 H1076 0.930 . S
C1068 C1065 1.380 . S
C1068 C1067 1.384 . S
C1068 H1077 0.931 . S
C1069 C1065 1.374 . S
C1069 C1070 1.390 . S
C1069 H1078 0.930 . S
C1070 C1066 1.391 . S
C1070 C1069 1.390 . S
C1070 H1079 0.930 . S
C1071 Eu1041 2.825 . S
C1071 O1056 1.238 . S
C1071 O1057 1.247 . S
C1071 C1065 1.507 . S
H1072 C1045 0.930 . S
H1073 C1046 0.931 . S
H1074 C1047 0.930 . S
H1075 C1048 0.930 . S
H1076 C1067 0.930 . S
H1077 C1068 0.931 . S
H1078 C1069 0.930 . S
H1079 C1070 0.930 . S
C1080 C1081 1.391 . S
C1080 C1082 1.394 . S
C1080 H1096 0.931 . S
C1081 C1080 1.391 . S
C1081 C1085 1.376 . S
C1082 C1080 1.394 . S
C1082 C1083 1.369 . S
C1082 C1086 1.531 . S
C1083 C1082 1.369 . S
C1083 C1084 1.410 . S
C1083 C1091 1.503 . S
C1084 C1083 1.410 . S
C1084 C1085 1.392 . S
C1084 C1087 1.511 . S
C1085 C1081 1.376 . S
C1085 C1084 1.392 . S
C1085 H1097 0.929 . S
C1086 C1082 1.531 . S
C1086 H1098 0.960 . S
C1086 H1099 0.962 . S
C1086 H1100 0.960 . S
C1087 C1084 1.511 . S
C1087 H1101 0.961 . S
C1087 H1102 0.961 . S
C1087 H1103 0.961 . S
C1088 C1089 1.370 . S
C1088 C1090 1.363 . S
C1088 H1104 0.931 . S
C1089 C1088 1.370 . S
C1089 C1093 1.408 . S
C1090 C1088 1.363 . S
C1090 C1091 1.370 . S
C1090 C1094 1.524 . S
C1091 C1083 1.503 . S
C1091 C1090 1.370 . S
C1091 C1092 1.403 . S
C1092 C1091 1.403 . S
C1092 C1093 1.404 . S
C1092 C1095 1.539 . S
C1093 C1089 1.408 . S
C1093 C1092 1.404 . S
C1093 H1105 0.930 . S
C1094 C1090 1.524 . S
C1094 H1106 0.956 . S
C1094 H1107 0.961 . S
C1094 H1108 0.961 . S
C1095 C1092 1.539 . S
C1095 H1109 0.958 . S
C1095 H1110 0.961 . S
C1095 H1111 0.960 . S
H1096 C1080 0.931 . S
H1097 C1085 0.929 . S
H1098 C1086 0.960 . S
H1099 C1086 0.962 . S
H1100 C1086 0.960 . S
H1101 C1087 0.961 . S
H1102 C1087 0.961 . S
H1103 C1087 0.961 . S
H1104 C1088 0.931 . S
H1105 C1093 0.930 . S
H1106 C1094 0.956 . S
H1107 C1094 0.961 . S
H1108 C1094 0.961 . S
H1109 C1095 0.958 . S
H1110 C1095 0.961 . S
H1111 C1095 0.960 . S
C1112 C1113 1.391 . S
C1112 C1114 1.394 . S
C1112 H1128 0.931 . S
C1113 C1112 1.391 . S
C1113 C1117 1.376 . S
C1114 C1112 1.394 . S
C1114 C1115 1.369 . S
C1114 C1118 1.531 . S
C1115 C1114 1.369 . S
C1115 C1116 1.410 . S
C1115 C1123 1.503 . S
C1116 C1115 1.410 . S
C1116 C1117 1.392 . S
C1116 C1119 1.511 . S
C1117 C1113 1.376 . S
C1117 C1116 1.392 . S
C1117 H1129 0.929 . S
C1118 C1114 1.531 . S
C1118 H1130 0.960 . S
C1118 H1131 0.962 . S
C1118 H1132 0.960 . S
C1119 C1116 1.511 . S
C1119 H1133 0.961 . S
C1119 H1134 0.961 . S
C1119 H1135 0.961 . S
C1120 C1121 1.370 . S
C1120 C1122 1.363 . S
C1120 H1136 0.931 . S
C1121 C1120 1.370 . S
C1121 C1125 1.408 . S
C1122 C1120 1.363 . S
C1122 C1123 1.370 . S
C1122 C1126 1.524 . S
C1123 C1115 1.503 . S
C1123 C1122 1.370 . S
C1123 C1124 1.403 . S
C1124 C1123 1.403 . S
C1124 C1125 1.404 . S
C1124 C1127 1.539 . S
C1125 C1121 1.408 . S
C1125 C1124 1.404 . S
C1125 H1137 0.930 . S
C1126 C1122 1.524 . S
C1126 H1138 0.956 . S
C1126 H1139 0.961 . S
C1126 H1140 0.961 . S
C1127 C1124 1.539 . S
C1127 H1141 0.958 . S
C1127 H1142 0.961 . S
C1127 H1143 0.960 . S
H1128 C1112 0.931 . S
H1129 C1117 0.929 . S
H1130 C1118 0.960 . S
H1131 C1118 0.962 . S
H1132 C1118 0.960 . S
H1133 C1119 0.961 . S
H1134 C1119 0.961 . S
H1135 C1119 0.961 . S
H1136 C1120 0.931 . S
H1137 C1125 0.930 . S
H1138 C1126 0.956 . S
H1139 C1126 0.961 . S
H1140 C1126 0.961 . S
H1141 C1127 0.958 . S
H1142 C1127 0.961 . S
H1143 C1127 0.960 . S
C1144 C1145 1.391 . S
C1144 C1146 1.394 . S
C1144 H1160 0.931 . S
C1145 C1144 1.391 . S
C1145 C1149 1.376 . S
C1146 C1144 1.394 . S
C1146 C1147 1.369 . S
C1146 C1150 1.531 . S
C1147 C1146 1.369 . S
C1147 C1148 1.410 . S
C1147 C1155 1.503 . S
C1148 C1147 1.410 . S
C1148 C1149 1.392 . S
C1148 C1151 1.511 1_554 S
C1149 C1145 1.376 . S
C1149 C1148 1.392 . S
C1149 H1161 0.929 . S
C1150 C1146 1.531 . S
C1150 H1162 0.960 . S
C1150 H1163 0.962 . S
C1150 H1164 0.960 . S
C1151 C1148 1.511 1_556 S
C1151 H1165 0.961 . S
C1151 H1166 0.961 . S
C1151 H1167 0.952 1_556 S
C1152 C1153 1.370 . S
C1152 C1154 1.363 . S
C1152 H1168 0.931 . S
C1153 C1152 1.370 . S
C1153 C1157 1.408 . S
C1154 C1152 1.363 . S
C1154 C1155 1.370 . S
C1154 C1158 1.524 . S
C1155 C1147 1.503 . S
C1155 C1154 1.370 . S
C1155 C1156 1.403 . S
C1156 C1155 1.403 . S
C1156 C1157 1.404 . S
C1156 C1159 1.539 . S
C1157 C1153 1.408 . S
C1157 C1156 1.404 . S
C1157 H1169 0.930 . S
C1158 C1154 1.524 . S
C1158 H1170 0.956 . S
C1158 H1171 0.961 . S
C1158 H1172 0.961 . S
C1159 C1156 1.539 . S
C1159 H1173 0.958 . S
C1159 H1174 0.961 . S
C1159 H1175 0.960 . S
H1160 C1144 0.931 . S
H1161 C1149 0.929 . S
H1162 C1150 0.960 . S
H1163 C1150 0.962 . S
H1164 C1150 0.960 . S
H1165 C1151 0.961 . S
H1166 C1151 0.961 . S
H1167 C1151 0.952 1_554 S
H1168 C1152 0.931 . S
H1169 C1157 0.930 . S
H1170 C1158 0.956 . S
H1171 C1158 0.961 . S
H1172 C1158 0.961 . S
H1173 C1159 0.958 . S
H1174 C1159 0.961 . S
H1175 C1159 0.960 . S
C1176 C1177 1.391 . S
C1176 C1178 1.394 . S
C1176 H1192 0.931 . S
C1177 C1176 1.391 . S
C1177 C1181 1.376 . S
C1178 C1176 1.394 . S
C1178 C1179 1.369 . S
C1178 C1182 1.531 . S
C1179 C1178 1.369 . S
C1179 C1180 1.410 . S
C1179 C1187 1.503 . S
C1180 C1179 1.410 . S
C1180 C1181 1.392 . S
C1180 C1183 1.511 . S
C1181 C1177 1.376 . S
C1181 C1180 1.392 . S
C1181 H1193 0.929 . S
C1182 C1178 1.531 . S
C1182 H1194 0.960 1_556 S
C1182 H1195 0.962 . S
C1182 H1196 0.960 1_556 S
C1183 C1180 1.511 . S
C1183 H1197 0.961 . S
C1183 H1198 0.961 . S
C1183 H1199 0.961 . S
C1184 C1185 1.370 . S
C1184 C1186 1.363 . S
C1184 H1200 0.931 . S
C1185 C1184 1.370 . S
C1185 C1189 1.408 1_556 S
C1186 C1184 1.363 . S
C1186 C1187 1.370 . S
C1186 C1190 1.524 . S
C1187 C1179 1.503 . S
C1187 C1186 1.370 . S
C1187 C1188 1.403 1_556 S
C1188 C1187 1.403 1_554 S
C1188 C1189 1.404 . S
C1188 C1191 1.539 . S
C1189 C1185 1.408 1_554 S
C1189 C1188 1.404 . S
C1189 H1201 0.930 . S
C1190 C1186 1.524 . S
C1190 H1202 0.956 . S
C1190 H1203 0.961 . S
C1190 H1204 0.961 . S
C1191 C1188 1.539 . S
C1191 H1205 0.958 . S
C1191 H1206 0.961 . S
C1191 H1207 0.960 . S
H1192 C1176 0.931 . S
H1193 C1181 0.929 . S
H1194 C1182 0.960 1_554 S
H1195 C1182 0.962 . S
H1196 C1182 0.960 1_554 S
H1197 C1183 0.961 . S
H1198 C1183 0.961 . S
H1199 C1183 0.961 . S
H1200 C1184 0.931 . S
H1201 C1189 0.930 . S
H1202 C1190 0.956 . S
H1203 C1190 0.961 . S
H1204 C1190 0.961 . S
H1205 C1191 0.958 . S
H1206 C1191 0.961 . S
H1207 C1191 0.960 . S
C1208 C1209 1.391 . S
C1208 C1210 1.394 . S
C1208 H1224 0.931 . S
C1209 C1208 1.391 . S
C1209 C1213 1.376 . S
C1210 C1208 1.394 . S
C1210 C1211 1.369 . S
C1210 C1214 1.531 . S
C1211 C1210 1.369 . S
C1211 C1212 1.410 . S
C1211 C1219 1.503 . S
C1212 C1211 1.410 . S
C1212 C1213 1.392 . S
C1212 C1215 1.511 . S
C1213 C1209 1.376 . S
C1213 C1212 1.392 . S
C1213 H1225 0.929 . S
C1214 C1210 1.531 . S
C1214 H1226 0.960 . S
C1214 H1227 0.962 . S
C1214 H1228 0.960 . S
C1215 C1212 1.511 . S
C1215 H1229 0.961 . S
C1215 H1230 0.961 . S
C1215 H1231 0.961 . S
C1216 C1217 1.370 . S
C1216 C1218 1.363 . S
C1216 H1232 0.931 . S
C1217 C1216 1.370 . S
C1217 C1221 1.408 . S
C1218 C1216 1.363 . S
C1218 C1219 1.370 . S
C1218 C1222 1.524 . S
C1219 C1211 1.503 . S
C1219 C1218 1.370 . S
C1219 C1220 1.403 . S
C1220 C1219 1.403 . S
C1220 C1221 1.404 . S
C1220 C1223 1.539 . S
C1221 C1217 1.408 . S
C1221 C1220 1.404 . S
C1221 H1233 0.930 . S
C1222 C1218 1.524 . S
C1222 H1234 0.956 . S
C1222 H1235 0.961 . S
C1222 H1236 0.961 . S
C1223 C1220 1.539 . S
C1223 H1237 0.958 . S
C1223 H1238 0.961 . S
C1223 H1239 0.960 . S
H1224 C1208 0.931 . S
H1225 C1213 0.929 . S
H1226 C1214 0.960 . S
H1227 C1214 0.962 . S
H1228 C1214 0.960 . S
H1229 C1215 0.961 . S
H1230 C1215 0.961 . S
H1231 C1215 0.961 . S
H1232 C1216 0.931 . S
H1233 C1221 0.930 . S
H1234 C1222 0.956 . S
H1235 C1222 0.961 . S
H1236 C1222 0.961 . S
H1237 C1223 0.958 . S
H1238 C1223 0.961 . S
H1239 C1223 0.960 . S
C1240 C1241 1.391 . S
C1240 C1242 1.394 . S
C1240 H1256 0.931 . S
C1241 C1240 1.391 . S
C1241 C1245 1.376 . S
C1242 C1240 1.394 . S
C1242 C1243 1.369 . S
C1242 C1246 1.531 . S
C1243 C1242 1.369 . S
C1243 C1244 1.410 . S
C1243 C1251 1.503 . S
C1244 C1243 1.410 . S
C1244 C1245 1.392 . S
C1244 C1247 1.511 . S
C1245 C1241 1.376 . S
C1245 C1244 1.392 . S
C1245 H1257 0.929 . S
C1246 C1242 1.531 . S
C1246 H1258 0.960 . S
C1246 H1259 0.962 1_556 S
C1246 H1260 0.960 . S
C1247 C1244 1.511 . S
C1247 H1261 0.961 . S
C1247 H1262 0.961 . S
C1247 H1263 0.961 . S
C1248 C1249 1.370 1_554 S
C1248 C1250 1.383 . S
C1248 H1264 0.931 . S
C1249 C1248 1.370 1_556 S
C1249 C1253 1.408 . S
C1250 C1248 1.383 . S
C1250 C1251 1.307 1_554 S
C1250 C1254 1.571 . S
C1251 C1243 1.503 . S
C1251 C1250 1.307 1_556 S
C1251 C1252 1.403 . S
C1252 C1251 1.403 . S
C1252 C1253 1.404 . S
C1252 C1255 1.539 . S
C1253 C1249 1.408 . S
C1253 C1252 1.404 . S
C1253 H1265 0.930 . S
C1254 C1250 1.571 . S
C1254 H1266 0.956 . S
C1254 H1267 0.961 . S
C1254 H1268 0.961 . S
C1255 C1252 1.539 . S
C1255 H1269 0.958 . S
C1255 H1270 0.961 . S
C1255 H1271 0.960 . S
H1256 C1240 0.931 . S
H1257 C1245 0.929 . S
H1258 C1246 0.960 . S
H1259 C1246 0.962 1_554 S
H1260 C1246 0.960 . S
H1261 C1247 0.961 . S
H1262 C1247 0.961 . S
H1263 C1247 0.961 . S
H1264 C1248 0.931 . S
H1265 C1253 0.930 . S
H1266 C1254 0.956 . S
H1267 C1254 0.961 . S
H1268 C1254 0.961 . S
H1269 C1255 0.958 . S
H1270 C1255 0.961 . S
H1271 C1255 0.960 . S
C1272 C1273 1.391 . S
C1272 C1274 1.394 . S
C1272 H1288 0.931 . S
C1273 C1272 1.391 . S
C1273 C1277 1.376 . S
C1274 C1272 1.394 . S
C1274 C1275 1.369 . S
C1274 C1278 1.531 . S
C1275 C1274 1.369 . S
C1275 C1276 1.410 . S
C1275 C1283 1.503 . S
C1276 C1275 1.410 . S
C1276 C1277 1.392 . S
C1276 C1279 1.511 1_556 S
C1277 C1273 1.376 . S
C1277 C1276 1.392 . S
C1277 H1289 0.929 . S
C1278 C1274 1.531 . S
C1278 H1290 0.960 . S
C1278 H1291 0.962 . S
C1278 H1292 0.960 . S
C1279 C1276 1.511 1_554 S
C1279 H1293 0.961 . S
C1279 H1294 0.961 . S
C1279 H1295 0.961 . S
C1280 C1281 1.370 . S
C1280 C1282 1.363 . S
C1280 H1296 0.931 . S
C1281 C1280 1.370 . S
C1281 C1285 1.408 . S
C1282 C1280 1.363 . S
C1282 C1283 1.370 . S
C1282 C1286 1.524 . S
C1283 C1275 1.503 . S
C1283 C1282 1.370 . S
C1283 C1284 1.403 . S
C1284 C1283 1.403 . S
C1284 C1285 1.404 . S
C1284 C1287 1.539 . S
C1285 C1281 1.408 . S
C1285 C1284 1.404 . S
C1285 H1297 0.930 . S
C1286 C1282 1.524 . S
C1286 H1298 0.956 . S
C1286 H1299 0.961 . S
C1286 H1300 0.961 . S
C1287 C1284 1.539 . S
C1287 H1301 0.958 . S
C1287 H1302 0.961 . S
C1287 H1303 0.960 . S
H1288 C1272 0.931 . S
H1289 C1277 0.929 . S
H1290 C1278 0.960 . S
H1291 C1278 0.962 . S
H1292 C1278 0.960 . S
H1293 C1279 0.961 . S
H1294 C1279 0.961 . S
H1295 C1279 0.961 . S
H1296 C1280 0.931 . S
H1297 C1285 0.930 . S
H1298 C1286 0.956 . S
H1299 C1286 0.961 . S
H1300 C1286 0.961 . S
H1301 C1287 0.958 . S
H1302 C1287 0.961 . S
H1303 C1287 0.960 . S
C1304 C1305 1.391 . S
C1304 C1306 1.394 . S
C1304 H1320 0.931 . S
C1305 C1304 1.391 . S
C1305 C1309 1.376 . S
C1306 C1304 1.394 . S
C1306 C1307 1.369 . S
C1306 C1310 1.531 . S
C1307 C1306 1.369 . S
C1307 C1308 1.410 . S
C1307 C1315 1.503 . S
C1308 C1307 1.410 . S
C1308 C1309 1.392 . S
C1308 C1311 1.511 . S
C1309 C1305 1.376 . S
C1309 C1308 1.392 . S
C1309 H1321 0.929 . S
C1310 C1306 1.531 . S
C1310 H1322 0.960 . S
C1310 H1323 0.946 1_556 S
C1310 H1324 0.960 . S
C1311 C1308 1.511 . S
C1311 H1325 0.961 . S
C1311 H1326 0.961 . S
C1311 H1327 0.961 . S
C1312 C1313 1.370 . S
C1312 C1314 1.363 . S
C1312 H1328 0.931 . S
C1313 C1312 1.370 . S
C1313 C1317 1.408 . S
C1314 C1312 1.363 . S
C1314 C1315 1.370 . S
C1314 C1318 1.524 . S
C1315 C1307 1.503 . S
C1315 C1314 1.370 . S
C1315 C1316 1.403 . S
C1316 C1315 1.403 . S
C1316 C1317 1.404 . S
C1316 C1319 1.539 . S
C1317 C1313 1.408 . S
C1317 C1316 1.404 . S
C1317 H1329 0.930 . S
C1318 C1314 1.524 . S
C1318 H1330 0.956 . S
C1318 H1331 0.961 . S
C1318 H1332 0.961 . S
C1319 C1316 1.539 . S
C1319 H1333 0.958 . S
C1319 H1334 0.961 . S
C1319 H1335 0.960 . S
H1320 C1304 0.931 . S
H1321 C1309 0.929 . S
H1322 C1310 0.960 . S
H1323 C1310 0.946 1_554 S
H1324 C1310 0.960 . S
H1325 C1311 0.961 . S
H1326 C1311 0.961 . S
H1327 C1311 0.961 . S
H1328 C1312 0.931 . S
H1329 C1317 0.930 . S
H1330 C1318 0.956 . S
H1331 C1318 0.961 . S
H1332 C1318 0.961 . S
H1333 C1319 0.958 . S
H1334 C1319 0.961 . S
H1335 C1319 0.960 . S
C1336 C1337 1.391 . S
C1336 C1338 1.401 . S
C1336 H1352 0.931 1_556 S
C1337 C1336 1.391 . S
C1337 C1341 1.376 . S
C1338 C1336 1.401 . S
C1338 C1339 1.423 . S
C1338 C1342 1.473 1_556 S
C1339 C1338 1.423 . S
C1339 C1340 1.410 . S
C1339 C1347 1.503 . S
C1340 C1339 1.410 . S
C1340 C1341 1.392 . S
C1340 C1343 1.511 . S
C1341 C1337 1.376 . S
C1341 C1340 1.392 . S
C1341 H1353 0.929 . S
C1342 C1338 1.473 1_554 S
C1342 H1354 0.960 . S
C1342 H1355 0.962 . S
C1342 H1356 0.960 . S
C1343 C1340 1.511 . S
C1343 H1357 0.961 . S
C1343 H1358 0.961 . S
C1343 H1359 0.961 . S
C1344 C1345 1.370 . S
C1344 C1346 1.363 . S
C1344 H1360 0.931 . S
C1345 C1344 1.370 . S
C1345 C1349 1.408 1_556 S
C1346 C1344 1.363 . S
C1346 C1347 1.370 . S
C1346 C1350 1.524 . S
C1347 C1339 1.503 . S
C1347 C1346 1.370 . S
C1347 C1348 1.403 1_556 S
C1348 C1347 1.403 1_554 S
C1348 C1349 1.404 . S
C1348 C1351 1.539 . S
C1349 C1345 1.408 1_554 S
C1349 C1348 1.404 . S
C1349 H1361 0.930 . S
C1350 C1346 1.524 . S
C1350 H1362 0.956 . S
C1350 H1363 0.961 . S
C1350 H1364 0.961 . S
C1351 C1348 1.539 . S
C1351 H1365 0.958 . S
C1351 H1366 0.961 . S
C1351 H1367 0.960 . S
H1352 C1336 0.931 1_554 S
H1353 C1341 0.929 . S
H1354 C1342 0.960 . S
H1355 C1342 0.962 . S
H1356 C1342 0.960 . S
H1357 C1343 0.961 . S
H1358 C1343 0.961 . S
H1359 C1343 0.961 . S
H1360 C1344 0.931 . S
H1361 C1349 0.930 . S
H1362 C1350 0.956 . S
H1363 C1350 0.961 . S
H1364 C1350 0.961 . S
H1365 C1351 0.958 . S
H1366 C1351 0.961 . S
H1367 C1351 0.960 . S
C1368 C1369 1.391 . S
C1368 C1370 1.394 . S
C1368 H1384 0.931 . S
C1369 C1368 1.391 . S
C1369 C1373 1.376 . S
C1370 C1368 1.394 . S
C1370 C1371 1.369 . S
C1370 C1374 1.531 . S
C1371 C1370 1.369 . S
C1371 C1372 1.410 . S
C1371 C1379 1.503 . S
C1372 C1371 1.410 . S
C1372 C1373 1.392 . S
C1372 C1375 1.511 . S
C1373 C1369 1.376 . S
C1373 C1372 1.392 . S
C1373 H1385 0.929 . S
C1374 C1370 1.531 . S
C1374 H1386 0.960 . S
C1374 H1387 0.962 . S
C1374 H1388 0.960 . S
C1375 C1372 1.511 . S
C1375 H1389 0.961 . S
C1375 H1390 0.961 . S
C1375 H1391 0.961 . S
C1376 C1377 1.370 . S
C1376 C1378 1.363 . S
C1376 H1392 0.931 . S
C1377 C1376 1.370 . S
C1377 C1381 1.408 . S
C1378 C1376 1.363 . S
C1378 C1379 1.370 . S
C1378 C1382 1.524 . S
C1379 C1371 1.503 . S
C1379 C1378 1.370 . S
C1379 C1380 1.403 . S
C1380 C1379 1.403 . S
C1380 C1381 1.404 . S
C1380 C1383 1.539 1_554 S
C1381 C1377 1.408 . S
C1381 C1380 1.404 . S
C1381 H1393 0.930 1_554 S
C1382 C1378 1.524 . S
C1382 H1394 0.956 . S
C1382 H1395 0.961 . S
C1382 H1396 0.961 . S
C1383 C1380 1.539 1_556 S
C1383 H1397 0.958 . S
C1383 H1398 0.961 . S
C1383 H1399 0.951 1_556 S
H1384 C1368 0.931 . S
H1385 C1373 0.929 . S
H1386 C1374 0.960 . S
H1387 C1374 0.962 . S
H1388 C1374 0.960 . S
H1389 C1375 0.961 . S
H1390 C1375 0.961 . S
H1391 C1375 0.961 . S
H1392 C1376 0.931 . S
H1393 C1381 0.930 1_556 S
H1394 C1382 0.956 . S
H1395 C1382 0.961 . S
H1396 C1382 0.961 . S
H1397 C1383 0.958 . S
H1398 C1383 0.961 . S
H1399 C1383 0.951 1_554 S
C1400 C1401 1.391 . S
C1400 C1402 1.394 . S
C1400 H1416 0.931 . S
C1401 C1400 1.391 . S
C1401 C1405 1.376 . S
C1402 C1400 1.394 . S
C1402 C1403 1.369 . S
C1402 C1406 1.531 . S
C1403 C1402 1.369 . S
C1403 C1404 1.410 . S
C1403 C1411 1.503 . S
C1404 C1403 1.410 . S
C1404 C1405 1.392 . S
C1404 C1407 1.511 . S
C1405 C1401 1.376 . S
C1405 C1404 1.392 . S
C1405 H1417 0.929 . S
C1406 C1402 1.531 . S
C1406 H1418 0.960 . S
C1406 H1419 0.962 . S
C1406 H1420 0.960 . S
C1407 C1404 1.511 . S
C1407 H1421 0.961 . S
C1407 H1422 0.961 . S
C1407 H1423 0.961 . S
C1408 C1409 1.370 . S
C1408 C1410 1.363 . S
C1408 H1424 0.931 . S
C1409 C1408 1.370 . S
C1409 C1413 1.408 . S
C1410 C1408 1.363 . S
C1410 C1411 1.370 . S
C1410 C1414 1.524 . S
C1411 C1403 1.503 . S
C1411 C1410 1.370 . S
C1411 C1412 1.403 . S
C1412 C1411 1.403 . S
C1412 C1413 1.404 . S
C1412 C1415 1.539 . S
C1413 C1409 1.408 . S
C1413 C1412 1.404 . S
C1413 H1425 0.930 . S
C1414 C1410 1.524 . S
C1414 H1426 0.956 . S
C1414 H1427 0.961 . S
C1414 H1428 0.961 . S
C1415 C1412 1.539 . S
C1415 H1429 0.958 . S
C1415 H1430 0.961 . S
C1415 H1431 0.960 . S
H1416 C1400 0.931 . S
H1417 C1405 0.929 . S
H1418 C1406 0.960 . S
H1419 C1406 0.962 . S
H1420 C1406 0.960 . S
H1421 C1407 0.961 . S
H1422 C1407 0.961 . S
H1423 C1407 0.961 . S
H1424 C1408 0.931 . S
H1425 C1413 0.930 . S
H1426 C1414 0.956 . S
H1427 C1414 0.961 . S
H1428 C1414 0.961 . S
H1429 C1415 0.958 . S
H1430 C1415 0.961 . S
H1431 C1415 0.960 . S
C1432 C1433 1.391 . S
C1432 C1434 1.394 . S
C1432 H1448 0.931 . S
C1433 C1432 1.391 . S
C1433 C1437 1.376 . S
C1434 C1432 1.394 . S
C1434 C1435 1.369 . S
C1434 C1438 1.531 . S
C1435 C1434 1.369 . S
C1435 C1436 1.410 . S
C1435 C1443 1.503 . S
C1436 C1435 1.410 . S
C1436 C1437 1.392 . S
C1436 C1439 1.511 . S
C1437 C1433 1.376 . S
C1437 C1436 1.392 . S
C1437 H1449 0.929 . S
C1438 C1434 1.531 . S
C1438 H1450 0.960 . S
C1438 H1451 1.037 . S
C1438 H1452 0.960 . S
C1439 C1436 1.511 . S
C1439 H1453 0.961 . S
C1439 H1454 0.961 . S
C1439 H1455 0.961 . S
C1440 C1441 1.370 . S
C1440 C1442 1.363 . S
C1440 H1456 0.931 1_554 S
C1441 C1440 1.370 . S
C1441 C1445 1.408 . S
C1442 C1440 1.363 . S
C1442 C1443 1.370 . S
C1442 C1446 1.524 . S
C1443 C1435 1.503 . S
C1443 C1442 1.370 . S
C1443 C1444 1.403 . S
C1444 C1443 1.403 . S
C1444 C1445 1.404 . S
C1444 C1447 1.539 . S
C1445 C1441 1.408 . S
C1445 C1444 1.404 . S
C1445 H1457 0.930 . S
C1446 C1442 1.524 . S
C1446 H1458 0.956 1_554 S
C1446 H1459 0.961 . S
C1446 H1460 0.961 1_554 S
C1447 C1444 1.539 . S
C1447 H1461 0.958 . S
C1447 H1462 0.961 . S
C1447 H1463 0.960 . S
H1448 C1432 0.931 . S
H1449 C1437 0.929 . S
H1450 C1438 0.960 . S
H1451 C1438 1.037 . S
H1452 C1438 0.960 . S
H1453 C1439 0.961 . S
H1454 C1439 0.961 . S
H1455 C1439 0.961 . S
H1456 C1440 0.931 1_556 S
H1457 C1445 0.930 . S
H1458 C1446 0.956 1_556 S
H1459 C1446 0.961 . S
H1460 C1446 0.961 1_556 S
H1461 C1447 0.958 . S
H1462 C1447 0.961 . S
H1463 C1447 0.960 . S
C1464 C1465 1.391 . S
C1464 C1466 1.394 1_655 S
C1464 H1480 0.931 . S
C1465 C1464 1.391 . S
C1465 C1469 1.376 1_655 S
C1466 C1464 1.394 1_455 S
C1466 C1467 1.369 . S
C1466 C1470 1.531 . S
C1467 C1466 1.369 . S
C1467 C1468 1.410 . S
C1467 C1475 1.503 . S
C1468 C1467 1.410 . S
C1468 C1469 1.392 . S
C1468 C1471 1.511 . S
C1469 C1465 1.376 1_455 S
C1469 C1468 1.392 . S
C1469 H1481 0.929 . S
C1470 C1466 1.531 . S
C1470 H1482 0.960 . S
C1470 H1483 0.962 . S
C1470 H1484 0.960 . S
C1471 C1468 1.511 . S
C1471 H1485 0.961 . S
C1471 H1486 0.961 . S
C1471 H1487 0.961 . S
C1472 C1473 1.370 . S
C1472 C1474 1.363 . S
C1472 H1488 0.931 . S
C1473 C1472 1.370 . S
C1473 C1477 1.408 . S
C1474 C1472 1.363 . S
C1474 C1475 1.370 . S
C1474 C1478 1.524 . S
C1475 C1467 1.503 . S
C1475 C1474 1.370 . S
C1475 C1476 1.403 . S
C1476 C1475 1.403 . S
C1476 C1477 1.404 . S
C1476 C1479 1.539 . S
C1477 C1473 1.408 . S
C1477 C1476 1.404 . S
C1477 H1489 0.930 . S
C1478 C1474 1.524 . S
C1478 H1490 0.956 . S
C1478 H1491 0.961 . S
C1478 H1492 0.961 . S
C1479 C1476 1.539 . S
C1479 H1493 0.958 . S
C1479 H1494 0.961 . S
C1479 H1495 0.960 . S
H1480 C1464 0.931 . S
H1481 C1469 0.929 . S
H1482 C1470 0.960 . S
H1483 C1470 0.962 . S
H1484 C1470 0.960 . S
H1485 C1471 0.961 . S
H1486 C1471 0.961 . S
H1487 C1471 0.961 . S
H1488 C1472 0.931 . S
H1489 C1477 0.930 . S
H1490 C1478 0.956 . S
H1491 C1478 0.961 . S
H1492 C1478 0.961 . S
H1493 C1479 0.958 . S
H1494 C1479 0.961 . S
H1495 C1479 0.960 . S
C1496 C1497 1.391 . S
C1496 C1498 1.394 . S
C1496 H1512 0.931 . S
C1497 C1496 1.391 . S
C1497 C1501 1.376 . S
C1498 C1496 1.394 . S
C1498 C1499 1.369 . S
C1498 C1502 1.531 . S
C1499 C1498 1.369 . S
C1499 C1500 1.410 . S
C1499 C1507 1.503 . S
C1500 C1499 1.410 . S
C1500 C1501 1.392 . S
C1500 C1503 1.511 . S
C1501 C1497 1.376 . S
C1501 C1500 1.392 . S
C1501 H1513 0.929 . S
C1502 C1498 1.531 . S
C1502 H1514 0.960 . S
C1502 H1515 0.962 . S
C1502 H1516 0.960 . S
C1503 C1500 1.511 . S
C1503 H1517 0.961 . S
C1503 H1518 0.961 . S
C1503 H1519 0.961 . S
C1504 C1505 1.370 . S
C1504 C1506 1.363 . S
C1504 H1520 0.931 . S
C1505 C1504 1.370 . S
C1505 C1509 1.408 . S
C1506 C1504 1.363 . S
C1506 C1507 1.370 . S
C1506 C1510 1.524 . S
C1507 C1499 1.503 . S
C1507 C1506 1.370 . S
C1507 C1508 1.403 . S
C1508 C1507 1.403 . S
C1508 C1509 1.404 . S
C1508 C1511 1.539 . S
C1509 C1505 1.408 . S
C1509 C1508 1.404 . S
C1509 H1521 0.930 . S
C1510 C1506 1.524 . S
C1510 H1522 0.956 . S
C1510 H1523 0.961 . S
C1510 H1524 0.961 . S
C1511 C1508 1.539 . S
C1511 H1525 0.958 . S
C1511 H1526 0.961 . S
C1511 H1527 0.960 . S
H1512 C1496 0.931 . S
H1513 C1501 0.929 . S
H1514 C1502 0.960 . S
H1515 C1502 0.962 . S
H1516 C1502 0.960 . S
H1517 C1503 0.961 . S
H1518 C1503 0.961 . S
H1519 C1503 0.961 . S
H1520 C1504 0.931 . S
H1521 C1509 0.930 . S
H1522 C1510 0.956 . S
H1523 C1510 0.961 . S
H1524 C1510 0.961 . S
H1525 C1511 0.958 . S
H1526 C1511 0.961 . S
H1527 C1511 0.960 . S
C1528 C1529 1.391 . S
C1528 C1530 1.394 1_545 S
C1528 H1544 0.931 . S
C1529 C1528 1.391 . S
C1529 C1533 1.376 . S
C1530 C1528 1.394 1_565 S
C1530 C1531 1.369 . S
C1530 C1534 1.531 . S
C1531 C1530 1.369 . S
C1531 C1532 1.410 . S
C1531 C1539 1.503 . S
C1532 C1531 1.410 . S
C1532 C1533 1.392 1_565 S
C1532 C1535 1.511 . S
C1533 C1529 1.376 . S
C1533 C1532 1.392 1_545 S
C1533 H1545 0.929 . S
C1534 C1530 1.531 . S
C1534 H1546 0.960 . S
C1534 H1547 0.962 . S
C1534 H1548 0.960 . S
C1535 C1532 1.511 . S
C1535 H1549 0.961 . S
C1535 H1550 0.961 . S
C1535 H1551 0.961 . S
C1536 C1537 1.370 . S
C1536 C1538 1.363 . S
C1536 H1552 0.931 . S
C1537 C1536 1.370 . S
C1537 C1541 1.408 . S
C1538 C1536 1.363 . S
C1538 C1539 1.370 . S
C1538 C1542 1.524 . S
C1539 C1531 1.503 . S
C1539 C1538 1.370 . S
C1539 C1540 1.403 . S
C1540 C1539 1.403 . S
C1540 C1541 1.404 . S
C1540 C1543 1.539 . S
C1541 C1537 1.408 . S
C1541 C1540 1.404 . S
C1541 H1553 0.930 . S
C1542 C1538 1.524 . S
C1542 H1554 0.956 . S
C1542 H1555 0.961 . S
C1542 H1556 0.961 . S
C1543 C1540 1.539 . S
C1543 H1557 0.958 . S
C1543 H1558 0.961 . S
C1543 H1559 0.960 . S
H1544 C1528 0.931 . S
H1545 C1533 0.929 . S
H1546 C1534 0.960 . S
H1547 C1534 0.962 . S
H1548 C1534 0.960 . S
H1549 C1535 0.961 . S
H1550 C1535 0.961 . S
H1551 C1535 0.961 . S
H1552 C1536 0.931 . S
H1553 C1541 0.930 . S
H1554 C1542 0.956 . S
H1555 C1542 0.961 . S
H1556 C1542 0.961 . S
H1557 C1543 0.958 . S
H1558 C1543 0.961 . S
H1559 C1543 0.960 . S
C1560 C1561 1.391 . S
C1560 C1562 1.394 . S
C1560 H1576 0.931 . S
C1561 C1560 1.391 . S
C1561 C1565 1.376 . S
C1562 C1560 1.394 . S
C1562 C1563 1.369 . S
C1562 C1566 1.531 . S
C1563 C1562 1.369 . S
C1563 C1564 1.410 . S
C1563 C1571 1.503 . S
C1564 C1563 1.410 . S
C1564 C1565 1.392 . S
C1564 C1567 1.511 . S
C1565 C1561 1.376 . S
C1565 C1564 1.392 . S
C1565 H1577 0.929 . S
C1566 C1562 1.531 . S
C1566 H1578 0.960 . S
C1566 H1579 0.962 . S
C1566 H1580 0.960 . S
C1567 C1564 1.511 . S
C1567 H1581 0.961 . S
C1567 H1582 0.961 . S
C1567 H1583 0.961 . S
C1568 C1569 1.370 . S
C1568 C1570 1.363 . S
C1568 H1584 0.931 . S
C1569 C1568 1.370 . S
C1569 C1573 1.408 . S
C1570 C1568 1.363 . S
C1570 C1571 1.370 . S
C1570 C1574 1.524 . S
C1571 C1563 1.503 . S
C1571 C1570 1.370 . S
C1571 C1572 1.403 . S
C1572 C1571 1.403 . S
C1572 C1573 1.404 . S
C1572 C1575 1.539 . S
C1573 C1569 1.408 . S
C1573 C1572 1.404 . S
C1573 H1585 0.930 . S
C1574 C1570 1.524 . S
C1574 H1586 0.956 . S
C1574 H1587 0.961 . S
C1574 H1588 0.961 . S
C1575 C1572 1.539 . S
C1575 H1589 0.958 . S
C1575 H1590 0.961 . S
C1575 H1591 0.960 . S
H1576 C1560 0.931 . S
H1577 C1565 0.929 . S
H1578 C1566 0.960 . S
H1579 C1566 0.962 . S
H1580 C1566 0.960 . S
H1581 C1567 0.961 . S
H1582 C1567 0.961 . S
H1583 C1567 0.961 . S
H1584 C1568 0.931 . S
H1585 C1573 0.930 . S
H1586 C1574 0.956 . S
H1587 C1574 0.961 . S
H1588 C1574 0.961 . S
H1589 C1575 0.958 . S
H1590 C1575 0.961 . S
H1591 C1575 0.960 . S
C1592 C1593 1.391 . S
C1592 C1594 1.394 . S
C1592 H1608 0.931 . S
C1593 C1592 1.391 . S
C1593 C1597 1.376 . S
C1594 C1592 1.394 . S
C1594 C1595 1.369 . S
C1594 C1598 1.531 . S
C1595 C1594 1.369 . S
C1595 C1596 1.410 . S
C1595 C1603 1.503 . S
C1596 C1595 1.410 . S
C1596 C1597 1.392 . S
C1596 C1599 1.511 . S
C1597 C1593 1.376 . S
C1597 C1596 1.392 . S
C1597 H1609 0.929 . S
C1598 C1594 1.531 . S
C1598 H1610 0.960 . S
C1598 H1611 0.962 . S
C1598 H1612 0.960 . S
C1599 C1596 1.511 . S
C1599 H1613 0.961 . S
C1599 H1614 0.961 . S
C1599 H1615 0.961 . S
C1600 C1601 1.370 . S
C1600 C1602 1.363 . S
C1600 H1616 0.931 . S
C1601 C1600 1.370 . S
C1601 C1605 1.408 . S
C1602 C1600 1.363 . S
C1602 C1603 1.370 . S
C1602 C1606 1.524 . S
C1603 C1595 1.503 . S
C1603 C1602 1.370 . S
C1603 C1604 1.403 . S
C1604 C1603 1.403 . S
C1604 C1605 1.404 . S
C1604 C1607 1.539 . S
C1605 C1601 1.408 . S
C1605 C1604 1.404 . S
C1605 H1617 0.930 . S
C1606 C1602 1.524 . S
C1606 H1618 0.956 . S
C1606 H1619 0.961 . S
C1606 H1620 0.961 . S
C1607 C1604 1.539 . S
C1607 H1621 0.958 . S
C1607 H1622 0.961 . S
C1607 H1623 0.960 . S
H1608 C1592 0.931 . S
H1609 C1597 0.929 . S
H1610 C1598 0.960 . S
H1611 C1598 0.962 . S
H1612 C1598 0.960 . S
H1613 C1599 0.961 . S
H1614 C1599 0.961 . S
H1615 C1599 0.961 . S
H1616 C1600 0.931 . S
H1617 C1605 0.930 . S
H1618 C1606 0.956 . S
H1619 C1606 0.961 . S
H1620 C1606 0.961 . S
H1621 C1607 0.958 . S
H1622 C1607 0.961 . S
H1623 C1607 0.960 . S
C1624 C1625 1.391 . S
C1624 C1626 1.394 . S
C1624 H1640 0.931 . S
C1625 C1624 1.391 . S
C1625 C1629 1.376 . S
C1626 C1624 1.394 . S
C1626 C1627 1.369 . S
C1626 C1630 1.531 . S
C1627 C1626 1.369 . S
C1627 C1628 1.410 . S
C1627 C1635 1.503 . S
C1628 C1627 1.410 . S
C1628 C1629 1.392 . S
C1628 C1631 1.511 . S
C1629 C1625 1.376 . S
C1629 C1628 1.392 . S
C1629 H1641 0.929 . S
C1630 C1626 1.531 . S
C1630 H1642 0.960 . S
C1630 H1643 0.962 . S
C1630 H1644 0.960 . S
C1631 C1628 1.511 . S
C1631 H1645 0.961 . S
C1631 H1646 0.961 . S
C1631 H1647 0.961 . S
C1632 C1633 1.370 . S
C1632 C1634 1.363 . S
C1632 H1648 0.931 . S
C1633 C1632 1.370 . S
C1633 C1637 1.408 . S
C1634 C1632 1.363 . S
C1634 C1635 1.370 . S
C1634 C1638 1.524 . S
C1635 C1627 1.503 . S
C1635 C1634 1.370 . S
C1635 C1636 1.403 . S
C1636 C1635 1.403 . S
C1636 C1637 1.404 . S
C1636 C1639 1.539 . S
C1637 C1633 1.408 . S
C1637 C1636 1.404 . S
C1637 H1649 0.930 . S
C1638 C1634 1.524 . S
C1638 H1650 0.956 . S
C1638 H1651 0.961 . S
C1638 H1652 0.961 . S
C1639 C1636 1.539 . S
C1639 H1653 0.958 . S
C1639 H1654 0.961 . S
C1639 H1655 0.960 . S
H1640 C1624 0.931 . S
H1641 C1629 0.929 . S
H1642 C1630 0.960 . S
H1643 C1630 0.962 . S
H1644 C1630 0.960 . S
H1645 C1631 0.961 . S
H1646 C1631 0.961 . S
H1647 C1631 0.961 . S
H1648 C1632 0.931 . S
H1649 C1637 0.930 . S
H1650 C1638 0.956 . S
H1651 C1638 0.961 . S
H1652 C1638 0.961 . S
H1653 C1639 0.958 . S
H1654 C1639 0.961 . S
H1655 C1639 0.960 . S
C1656 C1657 1.391 . S
C1656 C1658 1.394 . S
C1656 H1672 0.931 . S
C1657 C1656 1.391 . S
C1657 C1661 1.376 . S
C1658 C1656 1.394 . S
C1658 C1659 1.369 . S
C1658 C1662 1.531 . S
C1659 C1658 1.369 . S
C1659 C1660 1.410 . S
C1659 C1667 1.503 . S
C1660 C1659 1.410 . S
C1660 C1661 1.392 . S
C1660 C1663 1.511 . S
C1661 C1657 1.376 . S
C1661 C1660 1.392 . S
C1661 H1673 0.929 . S
C1662 C1658 1.531 . S
C1662 H1674 0.960 . S
C1662 H1675 0.962 . S
C1662 H1676 0.960 . S
C1663 C1660 1.511 . S
C1663 H1677 0.961 . S
C1663 H1678 0.961 . S
C1663 H1679 0.961 . S
C1664 C1665 1.370 . S
C1664 C1666 1.363 . S
C1664 H1680 0.931 . S
C1665 C1664 1.370 . S
C1665 C1669 1.408 . S
C1666 C1664 1.363 . S
C1666 C1667 1.370 . S
C1666 C1670 1.524 . S
C1667 C1659 1.503 . S
C1667 C1666 1.370 . S
C1667 C1668 1.403 . S
C1668 C1667 1.403 . S
C1668 C1669 1.404 . S
C1668 C1671 1.539 . S
C1669 C1665 1.408 . S
C1669 C1668 1.404 . S
C1669 H1681 0.930 . S
C1670 C1666 1.524 . S
C1670 H1682 0.956 . S
C1670 H1683 0.961 . S
C1670 H1684 0.961 . S
C1671 C1668 1.539 . S
C1671 H1685 0.958 . S
C1671 H1686 0.961 . S
C1671 H1687 0.960 . S
H1672 C1656 0.931 . S
H1673 C1661 0.929 . S
H1674 C1662 0.960 . S
H1675 C1662 0.962 . S
H1676 C1662 0.960 . S
H1677 C1663 0.961 . S
H1678 C1663 0.961 . S
H1679 C1663 0.961 . S
H1680 C1664 0.931 . S
H1681 C1669 0.930 . S
H1682 C1670 0.956 . S
H1683 C1670 0.961 . S
H1684 C1670 0.961 . S
H1685 C1671 0.958 . S
H1686 C1671 0.961 . S
H1687 C1671 0.960 . S
C1688 C1689 1.391 . S
C1688 C1690 1.394 . S
C1688 H1704 0.931 . S
C1689 C1688 1.391 . S
C1689 C1693 1.376 . S
C1690 C1688 1.394 . S
C1690 C1691 1.369 . S
C1690 C1694 1.531 . S
C1691 C1690 1.369 . S
C1691 C1692 1.410 . S
C1691 C1699 1.503 . S
C1692 C1691 1.410 . S
C1692 C1693 1.392 . S
C1692 C1695 1.511 . S
C1693 C1689 1.376 . S
C1693 C1692 1.392 . S
C1693 H1705 0.929 . S
C1694 C1690 1.531 . S
C1694 H1706 0.960 . S
C1694 H1707 0.962 . S
C1694 H1708 0.960 . S
C1695 C1692 1.511 . S
C1695 H1709 0.961 . S
C1695 H1710 0.961 . S
C1695 H1711 0.961 . S
C1696 C1697 1.370 . S
C1696 C1698 1.363 . S
C1696 H1712 0.931 . S
C1697 C1696 1.370 . S
C1697 C1701 1.408 . S
C1698 C1696 1.363 . S
C1698 C1699 1.370 . S
C1698 C1702 1.524 . S
C1699 C1691 1.503 . S
C1699 C1698 1.370 . S
C1699 C1700 1.403 . S
C1700 C1699 1.403 . S
C1700 C1701 1.404 . S
C1700 C1703 1.539 . S
C1701 C1697 1.408 . S
C1701 C1700 1.404 . S
C1701 H1713 0.930 . S
C1702 C1698 1.524 . S
C1702 H1714 0.956 . S
C1702 H1715 0.961 . S
C1702 H1716 0.961 . S
C1703 C1700 1.539 . S
C1703 H1717 0.958 . S
C1703 H1718 0.961 . S
C1703 H1719 0.960 . S
H1704 C1688 0.931 . S
H1705 C1693 0.929 . S
H1706 C1694 0.960 . S
H1707 C1694 0.962 . S
H1708 C1694 0.960 . S
H1709 C1695 0.961 . S
H1710 C1695 0.961 . S
H1711 C1695 0.961 . S
H1712 C1696 0.931 . S
H1713 C1701 0.930 . S
H1714 C1702 0.956 . S
H1715 C1702 0.961 . S
H1716 C1702 0.961 . S
H1717 C1703 0.958 . S
H1718 C1703 0.961 . S
H1719 C1703 0.960 . S
C1720 C1721 1.391 . S
C1720 C1722 1.394 . S
C1720 H1736 0.931 . S
C1721 C1720 1.391 . S
C1721 C1725 1.376 . S
C1722 C1720 1.394 . S
C1722 C1723 1.369 . S
C1722 C1726 1.531 . S
C1723 C1722 1.369 . S
C1723 C1724 1.410 . S
C1723 C1731 1.503 . S
C1724 C1723 1.410 . S
C1724 C1725 1.392 . S
C1724 C1727 1.511 . S
C1725 C1721 1.376 . S
C1725 C1724 1.392 . S
C1725 H1737 0.929 . S
C1726 C1722 1.531 . S
C1726 H1738 0.960 . S
C1726 H1739 0.962 . S
C1726 H1740 0.960 . S
C1727 C1724 1.511 . S
C1727 H1741 0.961 . S
C1727 H1742 0.961 . S
C1727 H1743 0.961 . S
C1728 C1729 1.370 . S
C1728 C1730 1.363 . S
C1728 H1744 0.931 . S
C1729 C1728 1.370 . S
C1729 C1733 1.408 . S
C1730 C1728 1.363 . S
C1730 C1731 1.370 . S
C1730 C1734 1.524 . S
C1731 C1723 1.503 . S
C1731 C1730 1.370 . S
C1731 C1732 1.403 . S
C1732 C1731 1.403 . S
C1732 C1733 1.404 . S
C1732 C1735 1.539 . S
C1733 C1729 1.408 . S
C1733 C1732 1.404 . S
C1733 H1745 0.930 . S
C1734 C1730 1.524 . S
C1734 H1746 0.956 . S
C1734 H1747 0.961 . S
C1734 H1748 0.961 . S
C1735 C1732 1.539 . S
C1735 H1749 0.958 . S
C1735 H1750 0.961 . S
C1735 H1751 0.960 . S
H1736 C1720 0.931 . S
H1737 C1725 0.929 . S
H1738 C1726 0.960 . S
H1739 C1726 0.962 . S
H1740 C1726 0.960 . S
H1741 C1727 0.961 . S
H1742 C1727 0.961 . S
H1743 C1727 0.961 . S
H1744 C1728 0.931 . S
H1745 C1733 0.930 . S
H1746 C1734 0.956 . S
H1747 C1734 0.961 . S
H1748 C1734 0.961 . S
H1749 C1735 0.958 . S
H1750 C1735 0.961 . S
H1751 C1735 0.960 . S
C1752 C1753 1.391 . S
C1752 C1754 1.394 1_545 S
C1752 H1768 0.931 . S
C1753 C1752 1.391 . S
C1753 C1757 1.376 . S
C1754 C1752 1.394 1_565 S
C1754 C1755 1.369 . S
C1754 C1758 1.531 . S
C1755 C1754 1.369 . S
C1755 C1756 1.410 . S
C1755 C1763 1.503 . S
C1756 C1755 1.410 . S
C1756 C1757 1.392 1_565 S
C1756 C1759 1.511 . S
C1757 C1753 1.376 . S
C1757 C1756 1.392 1_545 S
C1757 H1769 0.929 . S
C1758 C1754 1.531 . S
C1758 H1770 0.960 . S
C1758 H1771 0.962 . S
C1758 H1772 0.960 . S
C1759 C1756 1.511 . S
C1759 H1773 0.961 . S
C1759 H1774 0.961 . S
C1759 H1775 0.961 . S
C1760 C1761 1.370 . S
C1760 C1762 1.363 . S
C1760 H1776 0.931 . S
C1761 C1760 1.370 . S
C1761 C1765 1.408 . S
C1762 C1760 1.363 . S
C1762 C1763 1.370 . S
C1762 C1766 1.524 . S
C1763 C1755 1.503 . S
C1763 C1762 1.370 . S
C1763 C1764 1.403 . S
C1764 C1763 1.403 . S
C1764 C1765 1.404 . S
C1764 C1767 1.539 . S
C1765 C1761 1.408 . S
C1765 C1764 1.404 . S
C1765 H1777 0.930 . S
C1766 C1762 1.524 . S
C1766 H1778 0.956 . S
C1766 H1779 0.961 . S
C1766 H1780 0.961 . S
C1767 C1764 1.539 . S
C1767 H1781 0.958 . S
C1767 H1782 0.961 . S
C1767 H1783 0.960 . S
H1768 C1752 0.931 . S
H1769 C1757 0.929 . S
H1770 C1758 0.960 . S
H1771 C1758 0.962 . S
H1772 C1758 0.960 . S
H1773 C1759 0.961 . S
H1774 C1759 0.961 . S
H1775 C1759 0.961 . S
H1776 C1760 0.931 . S
H1777 C1765 0.930 . S
H1778 C1766 0.956 . S
H1779 C1766 0.961 . S
H1780 C1766 0.961 . S
H1781 C1767 0.958 . S
H1782 C1767 0.961 . S
H1783 C1767 0.960 . S
C1784 C1785 1.391 . S
C1784 C1786 1.394 . S
C1784 H1800 0.931 . S
C1785 C1784 1.391 . S
C1785 C1789 1.376 . S
C1786 C1784 1.394 . S
C1786 C1787 1.369 . S
C1786 C1790 1.531 . S
C1787 C1786 1.369 . S
C1787 C1788 1.410 . S
C1787 C1795 1.503 . S
C1788 C1787 1.410 . S
C1788 C1789 1.392 . S
C1788 C1791 1.511 . S
C1789 C1785 1.376 . S
C1789 C1788 1.392 . S
C1789 H1801 0.929 1_455 S
C1790 C1786 1.531 . S
C1790 H1802 0.960 . S
C1790 H1803 0.962 . S
C1790 H1804 0.960 . S
C1791 C1788 1.511 . S
C1791 H1805 0.961 . S
C1791 H1806 0.961 . S
C1791 H1807 0.961 . S
C1792 C1793 1.370 . S
C1792 C1794 1.363 . S
C1792 H1808 0.931 . S
C1793 C1792 1.370 . S
C1793 C1797 1.408 . S
C1794 C1792 1.363 . S
C1794 C1795 1.370 . S
C1794 C1798 1.524 . S
C1795 C1787 1.503 . S
C1795 C1794 1.370 . S
C1795 C1796 1.403 . S
C1796 C1795 1.403 . S
C1796 C1797 1.404 . S
C1796 C1799 1.539 . S
C1797 C1793 1.408 . S
C1797 C1796 1.404 . S
C1797 H1809 0.930 . S
C1798 C1794 1.524 . S
C1798 H1810 0.956 . S
C1798 H1811 0.961 . S
C1798 H1812 0.961 . S
C1799 C1796 1.539 . S
C1799 H1813 0.958 . S
C1799 H1814 0.961 . S
C1799 H1815 0.960 . S
H1800 C1784 0.931 . S
H1801 C1789 0.929 1_655 S
H1802 C1790 0.960 . S
H1803 C1790 0.962 . S
H1804 C1790 0.960 . S
H1805 C1791 0.961 . S
H1806 C1791 0.961 . S
H1807 C1791 0.961 . S
H1808 C1792 0.931 . S
H1809 C1797 0.930 . S
H1810 C1798 0.956 . S
H1811 C1798 0.961 . S
H1812 C1798 0.961 . S
H1813 C1799 0.958 . S
H1814 C1799 0.961 . S
H1815 C1799 0.960 . S
C1816 C1817 1.391 . S
C1816 C1818 1.394 . S
C1816 H1832 0.931 . S
C1817 C1816 1.391 . S
C1817 C1821 1.376 . S
C1818 C1816 1.394 . S
C1818 C1819 1.369 . S
C1818 C1822 1.531 . S
C1819 C1818 1.369 . S
C1819 C1820 1.410 . S
C1819 C1827 1.503 . S
C1820 C1819 1.410 . S
C1820 C1821 1.392 . S
C1820 C1823 1.511 . S
C1821 C1817 1.376 . S
C1821 C1820 1.392 . S
C1821 H1833 0.929 . S
C1822 C1818 1.531 . S
C1822 H1834 0.960 . S
C1822 H1835 0.962 . S
C1822 H1836 0.960 . S
C1823 C1820 1.511 . S
C1823 H1837 0.961 . S
C1823 H1838 0.961 . S
C1823 H1839 0.961 . S
C1824 C1825 1.370 . S
C1824 C1826 1.363 . S
C1824 H1840 0.931 . S
C1825 C1824 1.370 . S
C1825 C1829 1.408 . S
C1826 C1824 1.363 . S
C1826 C1827 1.370 . S
C1826 C1830 1.524 . S
C1827 C1819 1.503 . S
C1827 C1826 1.370 . S
C1827 C1828 1.403 . S
C1828 C1827 1.403 . S
C1828 C1829 1.404 . S
C1828 C1831 1.539 . S
C1829 C1825 1.408 . S
C1829 C1828 1.404 . S
C1829 H1841 0.930 . S
C1830 C1826 1.524 . S
C1830 H1842 0.956 . S
C1830 H1843 0.961 . S
C1830 H1844 0.961 . S
C1831 C1828 1.539 . S
C1831 H1845 0.958 . S
C1831 H1846 0.961 . S
C1831 H1847 0.960 . S
H1832 C1816 0.931 . S
H1833 C1821 0.929 . S
H1834 C1822 0.960 . S
H1835 C1822 0.962 . S
H1836 C1822 0.960 . S
H1837 C1823 0.961 . S
H1838 C1823 0.961 . S
H1839 C1823 0.961 . S
H1840 C1824 0.931 . S
H1841 C1829 0.930 . S
H1842 C1830 0.956 . S
H1843 C1830 0.961 . S
H1844 C1830 0.961 . S
H1845 C1831 0.958 . S
H1846 C1831 0.961 . S
H1847 C1831 0.960 . S
C1848 C1849 1.391 . S
C1848 C1850 1.394 . S
C1848 H1864 0.931 . S
C1849 C1848 1.391 . S
C1849 C1853 1.376 . S
C1850 C1848 1.394 . S
C1850 C1851 1.369 . S
C1850 C1854 1.531 . S
C1851 C1850 1.369 . S
C1851 C1852 1.410 . S
C1851 C1859 1.503 . S
C1852 C1851 1.410 . S
C1852 C1853 1.392 . S
C1852 C1855 1.511 . S
C1853 C1849 1.376 . S
C1853 C1852 1.392 . S
C1853 H1865 0.929 . S
C1854 C1850 1.531 . S
C1854 H1866 0.960 . S
C1854 H1867 0.962 . S
C1854 H1868 0.960 . S
C1855 C1852 1.511 . S
C1855 H1869 0.961 . S
C1855 H1870 0.961 . S
C1855 H1871 0.961 . S
C1856 C1857 1.370 . S
C1856 C1858 1.363 . S
C1856 H1872 0.931 . S
C1857 C1856 1.370 . S
C1857 C1861 1.408 . S
C1858 C1856 1.363 . S
C1858 C1859 1.370 . S
C1858 C1862 1.524 . S
C1859 C1851 1.503 . S
C1859 C1858 1.370 . S
C1859 C1860 1.403 . S
C1860 C1859 1.403 . S
C1860 C1861 1.404 . S
C1860 C1863 1.539 . S
C1861 C1857 1.408 . S
C1861 C1860 1.404 . S
C1861 H1873 0.930 . S
C1862 C1858 1.524 . S
C1862 H1874 0.956 . S
C1862 H1875 0.961 . S
C1862 H1876 0.961 . S
C1863 C1860 1.539 . S
C1863 H1877 0.958 . S
C1863 H1878 0.961 . S
C1863 H1879 0.960 . S
H1864 C1848 0.931 . S
H1865 C1853 0.929 . S
H1866 C1854 0.960 . S
H1867 C1854 0.962 . S
H1868 C1854 0.960 . S
H1869 C1855 0.961 . S
H1870 C1855 0.961 . S
H1871 C1855 0.961 . S
H1872 C1856 0.931 . S
H1873 C1861 0.930 . S
H1874 C1862 0.956 . S
H1875 C1862 0.961 . S
H1876 C1862 0.961 . S
H1877 C1863 0.958 . S
H1878 C1863 0.961 . S
H1879 C1863 0.960 . S
C1880 C1881 1.391 . S
C1880 C1882 1.394 . S
C1880 H1896 0.931 . S
C1881 C1880 1.391 . S
C1881 C1885 1.376 . S
C1882 C1880 1.394 . S
C1882 C1883 1.369 . S
C1882 C1886 1.531 . S
C1883 C1882 1.369 . S
C1883 C1884 1.410 . S
C1883 C1891 1.503 . S
C1884 C1883 1.410 . S
C1884 C1885 1.392 . S
C1884 C1887 1.511 . S
C1885 C1881 1.376 . S
C1885 C1884 1.392 . S
C1885 H1897 0.929 . S
C1886 C1882 1.531 . S
C1886 H1898 0.960 . S
C1886 H1899 0.962 . S
C1886 H1900 0.960 . S
C1887 C1884 1.511 . S
C1887 H1901 0.961 . S
C1887 H1902 0.961 . S
C1887 H1903 0.961 . S
C1888 C1889 1.370 . S
C1888 C1890 1.363 . S
C1888 H1904 0.931 . S
C1889 C1888 1.370 . S
C1889 C1893 1.408 . S
C1890 C1888 1.363 . S
C1890 C1891 1.370 . S
C1890 C1894 1.524 . S
C1891 C1883 1.503 . S
C1891 C1890 1.370 . S
C1891 C1892 1.403 . S
C1892 C1891 1.403 . S
C1892 C1893 1.404 . S
C1892 C1895 1.539 . S
C1893 C1889 1.408 . S
C1893 C1892 1.404 . S
C1893 H1905 0.930 . S
C1894 C1890 1.524 . S
C1894 H1906 0.956 . S
C1894 H1907 0.961 . S
C1894 H1908 0.961 . S
C1895 C1892 1.539 . S
C1895 H1909 0.958 . S
C1895 H1910 0.961 . S
C1895 H1911 0.960 . S
H1896 C1880 0.931 . S
H1897 C1885 0.929 . S
H1898 C1886 0.960 . S
H1899 C1886 0.962 . S
H1900 C1886 0.960 . S
H1901 C1887 0.961 . S
H1902 C1887 0.961 . S
H1903 C1887 0.961 . S
H1904 C1888 0.931 . S
H1905 C1893 0.930 . S
H1906 C1894 0.956 . S
H1907 C1894 0.961 . S
H1908 C1894 0.961 . S
H1909 C1895 0.958 . S
H1910 C1895 0.961 . S
H1911 C1895 0.960 . S
C1912 C1913 1.391 . S
C1912 C1914 1.394 . S
C1912 H1928 0.931 . S
C1913 C1912 1.391 . S
C1913 C1917 1.376 . S
C1914 C1912 1.394 . S
C1914 C1915 1.369 . S
C1914 C1918 1.531 . S
C1915 C1914 1.369 . S
C1915 C1916 1.410 . S
C1915 C1923 1.503 . S
C1916 C1915 1.410 . S
C1916 C1917 1.392 . S
C1916 C1919 1.511 . S
C1917 C1913 1.376 . S
C1917 C1916 1.392 . S
C1917 H1929 0.929 . S
C1918 C1914 1.531 . S
C1918 H1930 0.960 . S
C1918 H1931 0.962 . S
C1918 H1932 0.960 . S
C1919 C1916 1.511 . S
C1919 H1933 0.961 . S
C1919 H1934 0.961 . S
C1919 H1935 0.961 . S
C1920 C1921 1.370 . S
C1920 C1922 1.363 . S
C1920 H1936 0.931 . S
C1921 C1920 1.370 . S
C1921 C1925 1.408 . S
C1922 C1920 1.363 . S
C1922 C1923 1.370 . S
C1922 C1926 1.524 . S
C1923 C1915 1.503 . S
C1923 C1922 1.370 . S
C1923 C1924 1.403 . S
C1924 C1923 1.403 . S
C1924 C1925 1.404 . S
C1924 C1927 1.539 . S
C1925 C1921 1.408 . S
C1925 C1924 1.404 . S
C1925 H1937 0.930 . S
C1926 C1922 1.524 . S
C1926 H1938 0.956 . S
C1926 H1939 0.961 . S
C1926 H1940 0.961 . S
C1927 C1924 1.539 . S
C1927 H1941 0.958 . S
C1927 H1942 0.961 . S
C1927 H1943 0.960 . S
H1928 C1912 0.931 . S
H1929 C1917 0.929 . S
H1930 C1918 0.960 . S
H1931 C1918 0.962 . S
H1932 C1918 0.960 . S
H1933 C1919 0.961 . S
H1934 C1919 0.961 . S
H1935 C1919 0.961 . S
H1936 C1920 0.931 . S
H1937 C1925 0.930 . S
H1938 C1926 0.956 . S
H1939 C1926 0.961 . S
H1940 C1926 0.961 . S
H1941 C1927 0.958 . S
H1942 C1927 0.961 . S
H1943 C1927 0.960 . S
C1944 C1945 1.391 . S
C1944 C1946 1.394 1_565 S
C1944 H1960 0.931 . S
C1945 C1944 1.391 . S
C1945 C1949 1.376 . S
C1946 C1944 1.394 1_545 S
C1946 C1947 1.369 . S
C1946 C1950 1.531 . S
C1947 C1946 1.369 . S
C1947 C1948 1.410 . S
C1947 C1955 1.503 . S
C1948 C1947 1.410 . S
C1948 C1949 1.392 1_545 S
C1948 C1951 1.511 . S
C1949 C1945 1.376 . S
C1949 C1948 1.392 1_565 S
C1949 H1961 0.929 . S
C1950 C1946 1.531 . S
C1950 H1962 0.960 . S
C1950 H1963 0.962 . S
C1950 H1964 0.960 . S
C1951 C1948 1.511 . S
C1951 H1965 0.961 . S
C1951 H1966 0.961 . S
C1951 H1967 0.961 . S
C1952 C1953 1.370 . S
C1952 C1954 1.363 . S
C1952 H1968 0.931 . S
C1953 C1952 1.370 . S
C1953 C1957 1.408 . S
C1954 C1952 1.363 . S
C1954 C1955 1.370 . S
C1954 C1958 1.524 . S
C1955 C1947 1.503 . S
C1955 C1954 1.370 . S
C1955 C1956 1.403 . S
C1956 C1955 1.403 . S
C1956 C1957 1.404 . S
C1956 C1959 1.539 . S
C1957 C1953 1.408 . S
C1957 C1956 1.404 . S
C1957 H1969 0.930 . S
C1958 C1954 1.524 . S
C1958 H1970 0.956 . S
C1958 H1971 0.961 . S
C1958 H1972 0.961 . S
C1959 C1956 1.539 . S
C1959 H1973 0.958 . S
C1959 H1974 0.961 . S
C1959 H1975 0.960 . S
H1960 C1944 0.931 . S
H1961 C1949 0.929 . S
H1962 C1950 0.960 . S
H1963 C1950 0.962 . S
H1964 C1950 0.960 . S
H1965 C1951 0.961 . S
H1966 C1951 0.961 . S
H1967 C1951 0.961 . S
H1968 C1952 0.931 . S
H1969 C1957 0.930 . S
H1970 C1958 0.956 . S
H1971 C1958 0.961 . S
H1972 C1958 0.961 . S
H1973 C1959 0.958 . S
H1974 C1959 0.961 . S
H1975 C1959 0.960 . S
C1976 C1977 1.408 . S
C1976 C1978 1.394 . S
C1976 H1992 0.931 . S
C1977 C1976 1.408 . S
C1977 C1981 1.397 . S
C1978 C1976 1.394 . S
C1978 C1979 1.369 . S
C1978 C1982 1.531 . S
C1979 C1978 1.369 . S
C1979 C1980 1.410 . S
C1979 C1987 1.503 . S
C1980 C1979 1.410 . S
C1980 C1981 1.392 . S
C1980 C1983 1.511 . S
C1981 C1977 1.397 . S
C1981 C1980 1.392 . S
C1981 H1993 0.929 1_655 S
C1982 C1978 1.531 . S
C1982 H1994 0.960 . S
C1982 H1995 0.962 . S
C1982 H1996 0.960 . S
C1983 C1980 1.511 . S
C1983 H1997 0.961 . S
C1983 H1998 0.961 . S
C1983 H1999 0.961 . S
C1984 C1985 1.370 . S
C1984 C1986 1.363 . S
C1984 H2000 0.931 . S
C1985 C1984 1.370 . S
C1985 C1989 1.408 . S
C1986 C1984 1.363 . S
C1986 C1987 1.370 . S
C1986 C1990 1.524 . S
C1987 C1979 1.503 . S
C1987 C1986 1.370 . S
C1987 C1988 1.403 . S
C1988 C1987 1.403 . S
C1988 C1989 1.404 . S
C1988 C1991 1.539 . S
C1989 C1985 1.408 . S
C1989 C1988 1.404 . S
C1989 H2001 0.930 . S
C1990 C1986 1.524 . S
C1990 H2002 0.956 . S
C1990 H2003 0.961 . S
C1990 H2004 0.961 . S
C1991 C1988 1.539 . S
C1991 H2005 0.958 . S
C1991 H2006 0.961 . S
C1991 H2007 0.960 . S
H1992 C1976 0.931 . S
H1993 C1981 0.929 1_455 S
H1994 C1982 0.960 . S
H1995 C1982 0.962 . S
H1996 C1982 0.960 . S
H1997 C1983 0.961 . S
H1998 C1983 0.961 . S
H1999 C1983 0.961 . S
H2000 C1984 0.931 . S
H2001 C1989 0.930 . S
H2002 C1990 0.956 . S
H2003 C1990 0.961 . S
H2004 C1990 0.961 . S
H2005 C1991 0.958 . S
H2006 C1991 0.961 . S
H2007 C1991 0.960 . S
C2008 C2009 1.391 . S
C2008 C2010 1.394 . S
C2008 H2024 0.931 . S
C2009 C2008 1.391 . S
C2009 C2013 1.376 . S
C2010 C2008 1.394 . S
C2010 C2011 1.369 . S
C2010 C2014 1.531 . S
C2011 C2010 1.369 . S
C2011 C2012 1.410 . S
C2011 C2019 1.503 . S
C2012 C2011 1.410 . S
C2012 C2013 1.392 . S
C2012 C2015 1.511 . S
C2013 C2009 1.376 . S
C2013 C2012 1.392 . S
C2013 H2025 0.929 . S
C2014 C2010 1.531 . S
C2014 H2026 0.960 . S
C2014 H2027 0.962 . S
C2014 H2028 0.960 . S
C2015 C2012 1.511 . S
C2015 H2029 0.961 . S
C2015 H2030 0.961 . S
C2015 H2031 0.961 . S
C2016 C2017 1.370 . S
C2016 C2018 1.363 . S
C2016 H2032 0.931 . S
C2017 C2016 1.370 . S
C2017 C2021 1.408 . S
C2018 C2016 1.363 . S
C2018 C2019 1.370 . S
C2018 C2022 1.524 . S
C2019 C2011 1.503 . S
C2019 C2018 1.370 . S
C2019 C2020 1.403 . S
C2020 C2019 1.403 . S
C2020 C2021 1.404 . S
C2020 C2023 1.539 . S
C2021 C2017 1.408 . S
C2021 C2020 1.404 . S
C2021 H2033 0.930 . S
C2022 C2018 1.524 . S
C2022 H2034 0.956 . S
C2022 H2035 0.961 . S
C2022 H2036 0.961 . S
C2023 C2020 1.539 . S
C2023 H2037 0.958 . S
C2023 H2038 0.961 . S
C2023 H2039 0.960 . S
H2024 C2008 0.931 . S
H2025 C2013 0.929 . S
H2026 C2014 0.960 . S
H2027 C2014 0.962 . S
H2028 C2014 0.960 . S
H2029 C2015 0.961 . S
H2030 C2015 0.961 . S
H2031 C2015 0.961 . S
H2032 C2016 0.931 . S
H2033 C2021 0.930 . S
H2034 C2022 0.956 . S
H2035 C2022 0.961 . S
H2036 C2022 0.961 . S
H2037 C2023 0.958 . S
H2038 C2023 0.961 . S
H2039 C2023 0.960 . S
C2040 C2041 1.391 . S
C2040 C2042 1.394 1_455 S
C2040 H2056 0.931 . S
C2041 C2040 1.391 . S
C2041 C2045 1.348 1_455 S
C2042 C2040 1.394 1_655 S
C2042 C2043 1.369 . S
C2042 C2046 1.531 . S
C2043 C2042 1.369 . S
C2043 C2044 1.410 . S
C2043 C2051 1.503 . S
C2044 C2043 1.410 . S
C2044 C2045 1.420 . S
C2044 C2047 1.511 . S
C2045 C2041 1.348 1_655 S
C2045 C2044 1.420 . S
C2045 H2057 0.929 1_655 S
C2046 C2042 1.531 . S
C2046 H2058 0.960 . S
C2046 H2059 0.962 . S
C2046 H2060 0.960 . S
C2047 C2044 1.511 . S
C2047 H2061 0.961 . S
C2047 H2062 0.961 . S
C2047 H2063 0.961 . S
C2048 C2049 1.370 . S
C2048 C2050 1.363 . S
C2048 H2064 0.931 . S
C2049 C2048 1.370 . S
C2049 C2053 1.408 . S
C2050 C2048 1.363 . S
C2050 C2051 1.370 . S
C2050 C2054 1.524 . S
C2051 C2043 1.503 . S
C2051 C2050 1.370 . S
C2051 C2052 1.403 . S
C2052 C2051 1.403 . S
C2052 C2053 1.404 . S
C2052 C2055 1.539 . S
C2053 C2049 1.408 . S
C2053 C2052 1.404 . S
C2053 H2065 0.930 . S
C2054 C2050 1.524 . S
C2054 H2066 0.956 . S
C2054 H2067 0.961 . S
C2054 H2068 0.961 . S
C2055 C2052 1.539 . S
C2055 H2069 0.958 . S
C2055 H2070 0.961 . S
C2055 H2071 0.960 . S
H2056 C2040 0.931 . S
H2057 C2045 0.929 1_455 S
H2058 C2046 0.960 . S
H2059 C2046 0.962 . S
H2060 C2046 0.960 . S
H2061 C2047 0.961 . S
H2062 C2047 0.961 . S
H2063 C2047 0.961 . S
H2064 C2048 0.931 . S
H2065 C2053 0.930 . S
H2066 C2054 0.956 . S
H2067 C2054 0.961 . S
H2068 C2054 0.961 . S
H2069 C2055 0.958 . S
H2070 C2055 0.961 . S
H2071 C2055 0.960 . S
C2072 C2073 1.391 . S
C2072 C2074 1.394 . S
C2072 H2088 0.931 . S
C2073 C2072 1.391 . S
C2073 C2077 1.376 . S
C2074 C2072 1.394 . S
C2074 C2075 1.369 . S
C2074 C2078 1.531 . S
C2075 C2074 1.369 . S
C2075 C2076 1.410 . S
C2075 C2083 1.503 . S
C2076 C2075 1.410 . S
C2076 C2077 1.392 . S
C2076 C2079 1.511 . S
C2077 C2073 1.376 . S
C2077 C2076 1.392 . S
C2077 H2089 0.929 . S
C2078 C2074 1.531 . S
C2078 H2090 0.960 . S
C2078 H2091 0.962 . S
C2078 H2092 0.960 . S
C2079 C2076 1.511 . S
C2079 H2093 0.961 . S
C2079 H2094 0.961 . S
C2079 H2095 0.961 . S
C2080 C2081 1.370 . S
C2080 C2082 1.363 . S
C2080 H2096 0.931 . S
C2081 C2080 1.370 . S
C2081 C2085 1.408 . S
C2082 C2080 1.363 . S
C2082 C2083 1.370 . S
C2082 C2086 1.524 . S
C2083 C2075 1.503 . S
C2083 C2082 1.370 . S
C2083 C2084 1.403 . S
C2084 C2083 1.403 . S
C2084 C2085 1.404 . S
C2084 C2087 1.539 . S
C2085 C2081 1.408 . S
C2085 C2084 1.404 . S
C2085 H2097 0.930 . S
C2086 C2082 1.524 . S
C2086 H2098 0.956 . S
C2086 H2099 0.961 . S
C2086 H2100 0.961 . S
C2087 C2084 1.539 . S
C2087 H2101 0.958 . S
C2087 H2102 0.961 . S
C2087 H2103 0.960 . S
H2088 C2072 0.931 . S
H2089 C2077 0.929 . S
H2090 C2078 0.960 . S
H2091 C2078 0.962 . S
H2092 C2078 0.960 . S
H2093 C2079 0.961 . S
H2094 C2079 0.961 . S
H2095 C2079 0.961 . S
H2096 C2080 0.931 . S
H2097 C2085 0.930 . S
H2098 C2086 0.956 . S
H2099 C2086 0.961 . S
H2100 C2086 0.961 . S
H2101 C2087 0.958 . S
H2102 C2087 0.961 . S
H2103 C2087 0.960 . S
C2104 C2105 1.391 . S
C2104 C2106 1.394 1_565 S
C2104 H2120 0.931 . S
C2105 C2104 1.391 . S
C2105 C2109 1.376 . S
C2106 C2104 1.394 1_545 S
C2106 C2107 1.369 . S
C2106 C2110 1.531 . S
C2107 C2106 1.369 . S
C2107 C2108 1.410 . S
C2107 C2115 1.503 . S
C2108 C2107 1.410 . S
C2108 C2109 1.392 1_545 S
C2108 C2111 1.511 . S
C2109 C2105 1.376 . S
C2109 C2108 1.392 1_565 S
C2109 H2121 0.929 . S
C2110 C2106 1.531 . S
C2110 H2122 0.960 . S
C2110 H2123 0.962 . S
C2110 H2124 0.960 . S
C2111 C2108 1.511 . S
C2111 H2125 0.961 . S
C2111 H2126 0.961 . S
C2111 H2127 0.961 . S
C2112 C2113 1.370 . S
C2112 C2114 1.363 . S
C2112 H2128 0.931 . S
C2113 C2112 1.370 . S
C2113 C2117 1.408 . S
C2114 C2112 1.363 . S
C2114 C2115 1.370 . S
C2114 C2118 1.524 . S
C2115 C2107 1.503 . S
C2115 C2114 1.370 . S
C2115 C2116 1.403 . S
C2116 C2115 1.403 . S
C2116 C2117 1.404 . S
C2116 C2119 1.539 . S
C2117 C2113 1.408 . S
C2117 C2116 1.404 . S
C2117 H2129 0.930 . S
C2118 C2114 1.524 . S
C2118 H2130 0.956 . S
C2118 H2131 0.961 . S
C2118 H2132 0.961 . S
C2119 C2116 1.539 . S
C2119 H2133 0.958 . S
C2119 H2134 0.961 . S
C2119 H2135 0.960 . S
H2120 C2104 0.931 . S
H2121 C2109 0.929 . S
H2122 C2110 0.960 . S
H2123 C2110 0.962 . S
H2124 C2110 0.960 . S
H2125 C2111 0.961 . S
H2126 C2111 0.961 . S
H2127 C2111 0.961 . S
H2128 C2112 0.931 . S
H2129 C2117 0.930 . S
H2130 C2118 0.956 . S
H2131 C2118 0.961 . S
H2132 C2118 0.961 . S
H2133 C2119 0.958 . S
H2134 C2119 0.961 . S
H2135 C2119 0.960 . S
C2136 C2137 1.391 . S
C2136 C2138 1.394 . S
C2136 H2152 0.931 . S
C2137 C2136 1.391 . S
C2137 C2141 1.376 . S
C2138 C2136 1.394 . S
C2138 C2139 1.369 . S
C2138 C2142 1.531 . S
C2139 C2138 1.369 . S
C2139 C2140 1.410 . S
C2139 C2147 1.503 . S
C2140 C2139 1.410 . S
C2140 C2141 1.392 . S
C2140 C2143 1.511 . S
C2141 C2137 1.376 . S
C2141 C2140 1.392 . S
C2141 H2153 0.929 . S
C2142 C2138 1.531 . S
C2142 H2154 0.960 . S
C2142 H2155 0.962 . S
C2142 H2156 0.960 . S
C2143 C2140 1.511 . S
C2143 H2157 0.961 . S
C2143 H2158 0.961 . S
C2143 H2159 0.961 . S
C2144 C2145 1.370 . S
C2144 C2146 1.363 . S
C2144 H2160 0.931 . S
C2145 C2144 1.370 . S
C2145 C2149 1.408 . S
C2146 C2144 1.363 . S
C2146 C2147 1.370 . S
C2146 C2150 1.524 . S
C2147 C2139 1.503 . S
C2147 C2146 1.370 . S
C2147 C2148 1.403 . S
C2148 C2147 1.403 . S
C2148 C2149 1.404 . S
C2148 C2151 1.539 . S
C2149 C2145 1.408 . S
C2149 C2148 1.404 . S
C2149 H2161 0.930 . S
C2150 C2146 1.524 . S
C2150 H2162 0.956 . S
C2150 H2163 0.961 . S
C2150 H2164 0.961 . S
C2151 C2148 1.539 . S
C2151 H2165 0.958 . S
C2151 H2166 0.961 . S
C2151 H2167 0.960 . S
H2152 C2136 0.931 . S
H2153 C2141 0.929 . S
H2154 C2142 0.960 . S
H2155 C2142 0.962 . S
H2156 C2142 0.960 . S
H2157 C2143 0.961 . S
H2158 C2143 0.961 . S
H2159 C2143 0.961 . S
H2160 C2144 0.931 . S
H2161 C2149 0.930 . S
H2162 C2150 0.956 . S
H2163 C2150 0.961 . S
H2164 C2150 0.961 . S
H2165 C2151 0.958 . S
H2166 C2151 0.961 . S
H2167 C2151 0.960 . S
C2168 C2169 1.391 . S
C2168 C2170 1.394 . S
C2168 H2184 0.931 . S
C2169 C2168 1.391 . S
C2169 C2173 1.376 . S
C2170 C2168 1.394 . S
C2170 C2171 1.369 . S
C2170 C2174 1.531 . S
C2171 C2170 1.369 . S
C2171 C2172 1.410 . S
C2171 C2179 1.503 . S
C2172 C2171 1.410 . S
C2172 C2173 1.392 . S
C2172 C2175 1.511 . S
C2173 C2169 1.376 . S
C2173 C2172 1.392 . S
C2173 H2185 0.929 . S
C2174 C2170 1.531 . S
C2174 H2186 0.960 . S
C2174 H2187 0.962 . S
C2174 H2188 0.960 . S
C2175 C2172 1.511 . S
C2175 H2189 0.961 . S
C2175 H2190 0.961 . S
C2175 H2191 0.961 . S
C2176 C2177 1.370 . S
C2176 C2178 1.363 . S
C2176 H2192 0.931 . S
C2177 C2176 1.370 . S
C2177 C2181 1.408 . S
C2178 C2176 1.363 . S
C2178 C2179 1.370 . S
C2178 C2182 1.524 . S
C2179 C2171 1.503 . S
C2179 C2178 1.370 . S
C2179 C2180 1.403 . S
C2180 C2179 1.403 . S
C2180 C2181 1.404 . S
C2180 C2183 1.539 . S
C2181 C2177 1.408 . S
C2181 C2180 1.404 . S
C2181 H2193 0.930 . S
C2182 C2178 1.524 . S
C2182 H2194 0.956 . S
C2182 H2195 0.961 . S
C2182 H2196 0.961 . S
C2183 C2180 1.539 . S
C2183 H2197 0.958 . S
C2183 H2198 0.961 . S
C2183 H2199 0.960 . S
H2184 C2168 0.931 . S
H2185 C2173 0.929 . S
H2186 C2174 0.960 . S
H2187 C2174 0.962 . S
H2188 C2174 0.960 . S
H2189 C2175 0.961 . S
H2190 C2175 0.961 . S
H2191 C2175 0.961 . S
H2192 C2176 0.931 . S
H2193 C2181 0.930 . S
H2194 C2182 0.956 . S
H2195 C2182 0.961 . S
H2196 C2182 0.961 . S
H2197 C2183 0.958 . S
H2198 C2183 0.961 . S
H2199 C2183 0.960 . S
C2200 C2201 1.391 . S
C2200 C2202 1.394 . S
C2200 H2216 0.931 . S
C2201 C2200 1.391 . S
C2201 C2205 1.376 . S
C2202 C2200 1.394 . S
C2202 C2203 1.369 . S
C2202 C2206 1.531 . S
C2203 C2202 1.369 . S
C2203 C2204 1.410 . S
C2203 C2211 1.503 . S
C2204 C2203 1.410 . S
C2204 C2205 1.392 . S
C2204 C2207 1.511 . S
C2205 C2201 1.376 . S
C2205 C2204 1.392 . S
C2205 H2217 0.929 . S
C2206 C2202 1.531 . S
C2206 H2218 0.960 . S
C2206 H2219 0.962 . S
C2206 H2220 0.960 . S
C2207 C2204 1.511 . S
C2207 H2221 0.961 . S
C2207 H2222 0.961 . S
C2207 H2223 0.961 . S
C2208 C2209 1.370 . S
C2208 C2210 1.363 . S
C2208 H2224 0.931 . S
C2209 C2208 1.370 . S
C2209 C2213 1.408 . S
C2210 C2208 1.363 . S
C2210 C2211 1.370 . S
C2210 C2214 1.524 . S
C2211 C2203 1.503 . S
C2211 C2210 1.370 . S
C2211 C2212 1.403 . S
C2212 C2211 1.403 . S
C2212 C2213 1.404 . S
C2212 C2215 1.539 . S
C2213 C2209 1.408 . S
C2213 C2212 1.404 . S
C2213 H2225 0.930 . S
C2214 C2210 1.524 . S
C2214 H2226 0.956 . S
C2214 H2227 0.961 . S
C2214 H2228 0.961 . S
C2215 C2212 1.539 . S
C2215 H2229 0.958 . S
C2215 H2230 0.961 . S
C2215 H2231 0.960 . S
H2216 C2200 0.931 . S
H2217 C2205 0.929 . S
H2218 C2206 0.960 . S
H2219 C2206 0.962 . S
H2220 C2206 0.960 . S
H2221 C2207 0.961 . S
H2222 C2207 0.961 . S
H2223 C2207 0.961 . S
H2224 C2208 0.931 . S
H2225 C2213 0.930 . S
H2226 C2214 0.956 . S
H2227 C2214 0.961 . S
H2228 C2214 0.961 . S
H2229 C2215 0.958 . S
H2230 C2215 0.961 . S
H2231 C2215 0.960 . S
C2232 C2233 1.391 . S
C2232 C2234 1.394 . S
C2232 H2248 0.931 . S
C2233 C2232 1.391 . S
C2233 C2237 1.376 . S
C2234 C2232 1.394 . S
C2234 C2235 1.369 . S
C2234 C2238 1.531 . S
C2235 C2234 1.369 . S
C2235 C2236 1.410 . S
C2235 C2243 1.503 . S
C2236 C2235 1.410 . S
C2236 C2237 1.392 . S
C2236 C2239 1.511 1_565 S
C2237 C2233 1.376 . S
C2237 C2236 1.392 . S
C2237 H2249 0.929 . S
C2238 C2234 1.531 . S
C2238 H2250 0.960 . S
C2238 H2251 0.962 . S
C2238 H2252 0.960 . S
C2239 C2236 1.511 1_545 S
C2239 H2253 0.961 . S
C2239 H2254 0.961 . S
C2239 H2255 0.961 . S
C2240 C2241 1.370 . S
C2240 C2242 1.363 . S
C2240 H2256 0.931 . S
C2241 C2240 1.370 . S
C2241 C2245 1.408 1_565 S
C2242 C2240 1.363 . S
C2242 C2243 1.370 . S
C2242 C2246 1.524 . S
C2243 C2235 1.503 . S
C2243 C2242 1.370 . S
C2243 C2244 1.446 . S
C2244 C2243 1.446 . S
C2244 C2245 1.396 1_565 S
C2244 C2247 1.504 1_565 S
C2245 C2241 1.408 1_545 S
C2245 C2244 1.396 1_545 S
C2245 H2257 0.930 . S
C2246 C2242 1.524 . S
C2246 H2258 0.956 . S
C2246 H2259 0.961 . S
C2246 H2260 0.961 . S
C2247 C2244 1.504 1_545 S
C2247 H2261 0.958 . S
C2247 H2262 0.961 . S
C2247 H2263 0.960 . S
H2248 C2232 0.931 . S
H2249 C2237 0.929 . S
H2250 C2238 0.960 . S
H2251 C2238 0.962 . S
H2252 C2238 0.960 . S
H2253 C2239 0.961 . S
H2254 C2239 0.961 . S
H2255 C2239 0.961 . S
H2256 C2240 0.931 . S
H2257 C2245 0.930 . S
H2258 C2246 0.956 . S
H2259 C2246 0.961 . S
H2260 C2246 0.961 . S
H2261 C2247 0.958 . S
H2262 C2247 0.961 . S
H2263 C2247 0.960 . S
C2264 C2265 1.391 . S
C2264 C2266 1.394 . S
C2264 H2280 0.931 . S
C2265 C2264 1.391 . S
C2265 C2269 1.376 1_455 S
C2266 C2264 1.394 . S
C2266 C2267 1.369 . S
C2266 C2270 1.531 . S
C2267 C2266 1.369 . S
C2267 C2268 1.410 1_455 S
C2267 C2275 1.503 . S
C2268 C2267 1.410 1_655 S
C2268 C2269 1.392 . S
C2268 C2271 1.511 . S
C2269 C2265 1.376 1_655 S
C2269 C2268 1.392 . S
C2269 H2281 0.929 . S
C2270 C2266 1.531 . S
C2270 H2282 0.960 . S
C2270 H2283 0.962 . S
C2270 H2284 0.960 . S
C2271 C2268 1.511 . S
C2271 H2285 0.961 . S
C2271 H2286 0.961 . S
C2271 H2287 0.961 . S
C2272 C2273 1.370 . S
C2272 C2274 1.363 . S
C2272 H2288 0.931 . S
C2273 C2272 1.370 . S
C2273 C2277 1.408 . S
C2274 C2272 1.363 . S
C2274 C2275 1.370 . S
C2274 C2278 1.524 . S
C2275 C2267 1.503 . S
C2275 C2274 1.370 . S
C2275 C2276 1.402 1_455 S
C2276 C2275 1.402 1_655 S
C2276 C2277 1.404 1_655 S
C2276 C2279 1.539 . S
C2277 C2273 1.408 . S
C2277 C2276 1.404 1_455 S
C2277 H2289 0.930 1_455 S
C2278 C2274 1.524 . S
C2278 H2290 0.956 . S
C2278 H2291 0.961 . S
C2278 H2292 0.961 . S
C2279 C2276 1.539 . S
C2279 H2293 0.958 . S
C2279 H2294 0.961 . S
C2279 H2295 0.960 . S
H2280 C2264 0.931 . S
H2281 C2269 0.929 . S
H2282 C2270 0.960 . S
H2283 C2270 0.962 . S
H2284 C2270 0.960 . S
H2285 C2271 0.961 . S
H2286 C2271 0.961 . S
H2287 C2271 0.961 . S
H2288 C2272 0.931 . S
H2289 C2277 0.930 1_655 S
H2290 C2278 0.956 . S
H2291 C2278 0.961 . S
H2292 C2278 0.961 . S
H2293 C2279 0.958 . S
H2294 C2279 0.961 . S
H2295 C2279 0.960 . S
C2296 C2297 1.391 . S
C2296 C2298 1.394 . S
C2296 H2312 0.931 . S
C2297 C2296 1.391 . S
C2297 C2301 1.376 . S
C2298 C2296 1.394 . S
C2298 C2299 1.369 . S
C2298 C2302 1.531 . S
C2299 C2298 1.369 . S
C2299 C2300 1.410 . S
C2299 C2307 1.503 . S
C2300 C2299 1.410 . S
C2300 C2301 1.392 . S
C2300 C2303 1.511 . S
C2301 C2297 1.376 . S
C2301 C2300 1.392 . S
C2301 H2313 0.929 . S
C2302 C2298 1.531 . S
C2302 H2314 0.960 . S
C2302 H2315 0.962 . S
C2302 H2316 0.960 . S
C2303 C2300 1.511 . S
C2303 H2317 0.961 . S
C2303 H2318 0.961 . S
C2303 H2319 0.961 . S
C2304 C2305 1.370 . S
C2304 C2306 1.363 . S
C2304 H2320 0.931 . S
C2305 C2304 1.370 . S
C2305 C2309 1.408 . S
C2306 C2304 1.363 . S
C2306 C2307 1.370 . S
C2306 C2310 1.524 . S
C2307 C2299 1.503 . S
C2307 C2306 1.370 . S
C2307 C2308 1.403 . S
C2308 C2307 1.403 . S
C2308 C2309 1.404 . S
C2308 C2311 1.539 . S
C2309 C2305 1.408 . S
C2309 C2308 1.404 . S
C2309 H2321 0.930 . S
C2310 C2306 1.524 . S
C2310 H2322 0.956 . S
C2310 H2323 0.961 . S
C2310 H2324 0.961 . S
C2311 C2308 1.539 . S
C2311 H2325 0.958 . S
C2311 H2326 0.961 . S
C2311 H2327 0.960 . S
H2312 C2296 0.931 . S
H2313 C2301 0.929 . S
H2314 C2302 0.960 . S
H2315 C2302 0.962 . S
H2316 C2302 0.960 . S
H2317 C2303 0.961 . S
H2318 C2303 0.961 . S
H2319 C2303 0.961 . S
H2320 C2304 0.931 . S
H2321 C2309 0.930 . S
H2322 C2310 0.956 . S
H2323 C2310 0.961 . S
H2324 C2310 0.961 . S
H2325 C2311 0.958 . S
H2326 C2311 0.961 . S
H2327 C2311 0.960 . S
C2328 C2329 1.391 . S
C2328 C2330 1.394 . S
C2328 H2344 0.931 . S
C2329 C2328 1.391 . S
C2329 C2333 1.376 1_655 S
C2330 C2328 1.394 . S
C2330 C2331 1.369 . S
C2330 C2334 1.531 . S
C2331 C2330 1.369 . S
C2331 C2332 1.410 1_655 S
C2331 C2339 1.503 . S
C2332 C2331 1.410 1_455 S
C2332 C2333 1.392 . S
C2332 C2335 1.511 . S
C2333 C2329 1.376 1_455 S
C2333 C2332 1.392 . S
C2333 H2345 0.929 . S
C2334 C2330 1.531 . S
C2334 H2346 0.960 . S
C2334 H2347 0.962 . S
C2334 H2348 0.960 . S
C2335 C2332 1.511 . S
C2335 H2349 0.961 . S
C2335 H2350 0.961 . S
C2335 H2351 0.961 . S
C2336 C2337 1.376 . S
C2336 C2338 1.355 1_655 S
C2336 H2352 0.931 1_655 S
C2337 C2336 1.376 . S
C2337 C2341 1.408 . S
C2338 C2336 1.355 1_455 S
C2338 C2339 1.369 1_455 S
C2338 C2342 1.532 . S
C2339 C2331 1.503 . S
C2339 C2338 1.369 1_655 S
C2339 C2340 1.403 . S
C2340 C2339 1.403 . S
C2340 C2341 1.404 . S
C2340 C2343 1.539 . S
C2341 C2337 1.408 . S
C2341 C2340 1.404 . S
C2341 H2353 0.930 . S
C2342 C2338 1.532 . S
C2342 H2354 0.956 . S
C2342 H2355 0.961 . S
C2342 H2356 0.961 . S
C2343 C2340 1.539 . S
C2343 H2357 0.958 . S
C2343 H2358 0.961 . S
C2343 H2359 0.960 . S
H2344 C2328 0.931 . S
H2345 C2333 0.929 . S
H2346 C2334 0.960 . S
H2347 C2334 0.962 . S
H2348 C2334 0.960 . S
H2349 C2335 0.961 . S
H2350 C2335 0.961 . S
H2351 C2335 0.961 . S
H2352 C2336 0.931 1_455 S
H2353 C2341 0.930 . S
H2354 C2342 0.956 . S
H2355 C2342 0.961 . S
H2356 C2342 0.961 . S
H2357 C2343 0.958 . S
H2358 C2343 0.961 . S
H2359 C2343 0.960 . S
C2360 C2361 1.391 . S
C2360 C2362 1.394 . S
C2360 H2376 0.931 . S
C2361 C2360 1.391 . S
C2361 C2365 1.376 . S
C2362 C2360 1.394 . S
C2362 C2363 1.369 . S
C2362 C2366 1.531 . S
C2363 C2362 1.369 . S
C2363 C2364 1.410 . S
C2363 C2371 1.503 . S
C2364 C2363 1.410 . S
C2364 C2365 1.392 . S
C2364 C2367 1.511 . S
C2365 C2361 1.376 . S
C2365 C2364 1.392 . S
C2365 H2377 0.929 . S
C2366 C2362 1.531 . S
C2366 H2378 0.960 . S
C2366 H2379 0.962 . S
C2366 H2380 0.960 . S
C2367 C2364 1.511 . S
C2367 H2381 0.961 . S
C2367 H2382 0.961 . S
C2367 H2383 0.961 . S
C2368 C2369 1.370 . S
C2368 C2370 1.363 . S
C2368 H2384 0.931 . S
C2369 C2368 1.370 . S
C2369 C2373 1.408 . S
C2370 C2368 1.363 . S
C2370 C2371 1.370 . S
C2370 C2374 1.524 . S
C2371 C2363 1.503 . S
C2371 C2370 1.370 . S
C2371 C2372 1.403 . S
C2372 C2371 1.403 . S
C2372 C2373 1.404 . S
C2372 C2375 1.539 . S
C2373 C2369 1.408 . S
C2373 C2372 1.404 . S
C2373 H2385 0.930 . S
C2374 C2370 1.524 . S
C2374 H2386 0.956 . S
C2374 H2387 0.961 . S
C2374 H2388 0.961 . S
C2375 C2372 1.539 . S
C2375 H2389 0.958 . S
C2375 H2390 0.961 . S
C2375 H2391 0.960 . S
H2376 C2360 0.931 . S
H2377 C2365 0.929 . S
H2378 C2366 0.960 . S
H2379 C2366 0.962 . S
H2380 C2366 0.960 . S
H2381 C2367 0.961 . S
H2382 C2367 0.961 . S
H2383 C2367 0.961 . S
H2384 C2368 0.931 . S
H2385 C2373 0.930 . S
H2386 C2374 0.956 . S
H2387 C2374 0.961 . S
H2388 C2374 0.961 . S
H2389 C2375 0.958 . S
H2390 C2375 0.961 . S
H2391 C2375 0.960 . S
C2392 C2393 1.391 . S
C2392 C2394 1.394 . S
C2392 H2408 0.931 . S
C2393 C2392 1.391 . S
C2393 C2397 1.376 . S
C2394 C2392 1.394 . S
C2394 C2395 1.369 . S
C2394 C2398 1.531 . S
C2395 C2394 1.369 . S
C2395 C2396 1.410 . S
C2395 C2403 1.503 . S
C2396 C2395 1.410 . S
C2396 C2397 1.392 . S
C2396 C2399 1.511 . S
C2397 C2393 1.376 . S
C2397 C2396 1.392 . S
C2397 H2409 0.929 . S
C2398 C2394 1.531 . S
C2398 H2410 0.960 . S
C2398 H2411 0.962 . S
C2398 H2412 0.960 . S
C2399 C2396 1.511 . S
C2399 H2413 0.961 1_545 S
C2399 H2414 0.961 1_545 S
C2399 H2415 0.961 . S
C2400 C2401 1.370 . S
C2400 C2402 1.363 . S
C2400 H2416 0.931 1_545 S
C2401 C2400 1.370 . S
C2401 C2405 1.408 . S
C2402 C2400 1.363 . S
C2402 C2403 1.370 . S
C2402 C2406 1.524 1_545 S
C2403 C2395 1.503 . S
C2403 C2402 1.370 . S
C2403 C2404 1.403 . S
C2404 C2403 1.403 . S
C2404 C2405 1.404 . S
C2404 C2407 1.539 . S
C2405 C2401 1.408 . S
C2405 C2404 1.404 . S
C2405 H2417 0.930 . S
C2406 C2402 1.524 1_565 S
C2406 H2418 0.956 1_565 S
C2406 H2419 0.961 . S
C2406 H2420 0.961 . S
C2407 C2404 1.539 . S
C2407 H2421 0.958 . S
C2407 H2422 0.961 . S
C2407 H2423 0.960 . S
H2408 C2392 0.931 . S
H2409 C2397 0.929 . S
H2410 C2398 0.960 . S
H2411 C2398 0.962 . S
H2412 C2398 0.960 . S
H2413 C2399 0.961 1_565 S
H2414 C2399 0.961 1_565 S
H2415 C2399 0.961 . S
H2416 C2400 0.931 1_565 S
H2417 C2405 0.930 . S
H2418 C2406 0.956 1_545 S
H2419 C2406 0.961 . S
H2420 C2406 0.961 . S
H2421 C2407 0.958 . S
H2422 C2407 0.961 . S
H2423 C2407 0.960 . S
C2424 C2425 1.391 . S
C2424 C2426 1.394 . S
C2424 H2440 0.931 . S
C2425 C2424 1.391 . S
C2425 C2429 1.376 . S
C2426 C2424 1.394 . S
C2426 C2427 1.369 . S
C2426 C2430 1.531 . S
C2427 C2426 1.369 . S
C2427 C2428 1.410 . S
C2427 C2435 1.503 . S
C2428 C2427 1.410 . S
C2428 C2429 1.392 . S
C2428 C2431 1.511 . S
C2429 C2425 1.376 . S
C2429 C2428 1.392 . S
C2429 H2441 0.929 . S
C2430 C2426 1.531 . S
C2430 H2442 0.960 . S
C2430 H2443 0.962 . S
C2430 H2444 0.960 . S
C2431 C2428 1.511 . S
C2431 H2445 0.961 . S
C2431 H2446 0.961 . S
C2431 H2447 0.961 . S
C2432 C2433 1.370 . S
C2432 C2434 1.363 . S
C2432 H2448 0.931 . S
C2433 C2432 1.370 . S
C2433 C2437 1.408 . S
C2434 C2432 1.363 . S
C2434 C2435 1.370 . S
C2434 C2438 1.524 . S
C2435 C2427 1.503 . S
C2435 C2434 1.370 . S
C2435 C2436 1.403 . S
C2436 C2435 1.403 . S
C2436 C2437 1.404 . S
C2436 C2439 1.539 . S
C2437 C2433 1.408 . S
C2437 C2436 1.404 . S
C2437 H2449 0.930 . S
C2438 C2434 1.524 . S
C2438 H2450 0.956 . S
C2438 H2451 0.961 . S
C2438 H2452 0.961 . S
C2439 C2436 1.539 . S
C2439 H2453 0.958 . S
C2439 H2454 0.961 . S
C2439 H2455 0.960 . S
H2440 C2424 0.931 . S
H2441 C2429 0.929 . S
H2442 C2430 0.960 . S
H2443 C2430 0.962 . S
H2444 C2430 0.960 . S
H2445 C2431 0.961 . S
H2446 C2431 0.961 . S
H2447 C2431 0.961 . S
H2448 C2432 0.931 . S
H2449 C2437 0.930 . S
H2450 C2438 0.956 . S
H2451 C2438 0.961 . S
H2452 C2438 0.961 . S
H2453 C2439 0.958 . S
H2454 C2439 0.961 . S
H2455 C2439 0.960 . S
C2456 C2457 1.391 . S
C2456 C2458 1.394 . S
C2456 H2472 0.931 . S
C2457 C2456 1.391 . S
C2457 C2461 1.376 . S
C2458 C2456 1.394 . S
C2458 C2459 1.369 . S
C2458 C2462 1.531 . S
C2459 C2458 1.369 . S
C2459 C2460 1.410 . S
C2459 C2467 1.503 . S
C2460 C2459 1.410 . S
C2460 C2461 1.392 . S
C2460 C2463 1.511 . S
C2461 C2457 1.376 . S
C2461 C2460 1.392 . S
C2461 H2473 0.929 . S
C2462 C2458 1.531 . S
C2462 H2474 0.960 . S
C2462 H2475 0.962 . S
C2462 H2476 0.960 . S
C2463 C2460 1.511 . S
C2463 H2477 0.961 . S
C2463 H2478 0.961 . S
C2463 H2479 0.961 . S
C2464 C2465 1.370 . S
C2464 C2466 1.363 . S
C2464 H2480 0.931 . S
C2465 C2464 1.370 . S
C2465 C2469 1.408 . S
C2466 C2464 1.363 . S
C2466 C2467 1.370 . S
C2466 C2470 1.524 . S
C2467 C2459 1.503 . S
C2467 C2466 1.370 . S
C2467 C2468 1.403 . S
C2468 C2467 1.403 . S
C2468 C2469 1.404 . S
C2468 C2471 1.539 . S
C2469 C2465 1.408 . S
C2469 C2468 1.404 . S
C2469 H2481 0.930 . S
C2470 C2466 1.524 . S
C2470 H2482 0.956 . S
C2470 H2483 0.961 . S
C2470 H2484 0.961 . S
C2471 C2468 1.539 . S
C2471 H2485 0.958 . S
C2471 H2486 0.961 . S
C2471 H2487 0.960 . S
H2472 C2456 0.931 . S
H2473 C2461 0.929 . S
H2474 C2462 0.960 . S
H2475 C2462 0.962 . S
H2476 C2462 0.960 . S
H2477 C2463 0.961 . S
H2478 C2463 0.961 . S
H2479 C2463 0.961 . S
H2480 C2464 0.931 . S
H2481 C2469 0.930 . S
H2482 C2470 0.956 . S
H2483 C2470 0.961 . S
H2484 C2470 0.961 . S
H2485 C2471 0.958 . S
H2486 C2471 0.961 . S
H2487 C2471 0.960 . S
C2488 C2489 1.391 . S
C2488 C2490 1.394 . S
C2488 H2504 0.931 . S
C2489 C2488 1.391 . S
C2489 C2493 1.376 . S
C2490 C2488 1.394 . S
C2490 C2491 1.369 . S
C2490 C2494 1.531 . S
C2491 C2490 1.369 . S
C2491 C2492 1.410 . S
C2491 C2499 1.503 . S
C2492 C2491 1.410 . S
C2492 C2493 1.392 . S
C2492 C2495 1.511 . S
C2493 C2489 1.376 . S
C2493 C2492 1.392 . S
C2493 H2505 0.929 . S
C2494 C2490 1.531 . S
C2494 H2506 0.960 . S
C2494 H2507 0.962 . S
C2494 H2508 0.960 . S
C2495 C2492 1.511 . S
C2495 H2509 0.961 . S
C2495 H2510 0.961 . S
C2495 H2511 0.961 . S
C2496 C2497 1.370 . S
C2496 C2498 1.363 . S
C2496 H2512 0.931 . S
C2497 C2496 1.370 . S
C2497 C2501 1.408 . S
C2498 C2496 1.363 . S
C2498 C2499 1.370 . S
C2498 C2502 1.524 . S
C2499 C2491 1.503 . S
C2499 C2498 1.370 . S
C2499 C2500 1.403 . S
C2500 C2499 1.403 . S
C2500 C2501 1.404 . S
C2500 C2503 1.539 . S
C2501 C2497 1.408 . S
C2501 C2500 1.404 . S
C2501 H2513 0.930 . S
C2502 C2498 1.524 . S
C2502 H2514 0.956 . S
C2502 H2515 0.961 . S
C2502 H2516 0.961 . S
C2503 C2500 1.539 . S
C2503 H2517 0.958 . S
C2503 H2518 0.961 . S
C2503 H2519 0.960 . S
H2504 C2488 0.931 . S
H2505 C2493 0.929 . S
H2506 C2494 0.960 . S
H2507 C2494 0.962 . S
H2508 C2494 0.960 . S
H2509 C2495 0.961 . S
H2510 C2495 0.961 . S
H2511 C2495 0.961 . S
H2512 C2496 0.931 . S
H2513 C2501 0.930 . S
H2514 C2502 0.956 . S
H2515 C2502 0.961 . S
H2516 C2502 0.961 . S
H2517 C2503 0.958 . S
H2518 C2503 0.961 . S
H2519 C2503 0.960 . S
C2520 C2521 1.391 . S
C2520 C2522 1.394 . S
C2520 H2536 0.931 . S
C2521 C2520 1.391 . S
C2521 C2525 1.376 . S
C2522 C2520 1.394 . S
C2522 C2523 1.369 . S
C2522 C2526 1.531 . S
C2523 C2522 1.369 . S
C2523 C2524 1.410 . S
C2523 C2531 1.503 . S
C2524 C2523 1.410 . S
C2524 C2525 1.392 . S
C2524 C2527 1.511 . S
C2525 C2521 1.376 . S
C2525 C2524 1.392 . S
C2525 H2537 0.929 . S
C2526 C2522 1.531 . S
C2526 H2538 0.960 . S
C2526 H2539 0.962 . S
C2526 H2540 0.960 . S
C2527 C2524 1.511 . S
C2527 H2541 0.961 . S
C2527 H2542 0.961 . S
C2527 H2543 0.961 . S
C2528 C2529 1.370 . S
C2528 C2530 1.363 . S
C2528 H2544 0.931 . S
C2529 C2528 1.370 . S
C2529 C2533 1.408 . S
C2530 C2528 1.363 . S
C2530 C2531 1.370 . S
C2530 C2534 1.524 . S
C2531 C2523 1.503 . S
C2531 C2530 1.370 . S
C2531 C2532 1.403 . S
C2532 C2531 1.403 . S
C2532 C2533 1.404 . S
C2532 C2535 1.539 . S
C2533 C2529 1.408 . S
C2533 C2532 1.404 . S
C2533 H2545 0.930 . S
C2534 C2530 1.524 . S
C2534 H2546 0.956 . S
C2534 H2547 0.961 . S
C2534 H2548 0.961 . S
C2535 C2532 1.539 . S
C2535 H2549 0.958 . S
C2535 H2550 0.961 . S
C2535 H2551 0.960 . S
H2536 C2520 0.931 . S
H2537 C2525 0.929 . S
H2538 C2526 0.960 . S
H2539 C2526 0.962 . S
H2540 C2526 0.960 . S
H2541 C2527 0.961 . S
H2542 C2527 0.961 . S
H2543 C2527 0.961 . S
H2544 C2528 0.931 . S
H2545 C2533 0.930 . S
H2546 C2534 0.956 . S
H2547 C2534 0.961 . S
H2548 C2534 0.961 . S
H2549 C2535 0.958 . S
H2550 C2535 0.961 . S
H2551 C2535 0.960 . S
C2552 C2553 1.391 . S
C2552 C2554 1.394 . S
C2552 H2568 0.931 . S
C2553 C2552 1.391 . S
C2553 C2557 1.376 . S
C2554 C2552 1.394 . S
C2554 C2555 1.369 . S
C2554 C2558 1.531 . S
C2555 C2554 1.369 . S
C2555 C2556 1.410 . S
C2555 C2563 1.503 . S
C2556 C2555 1.410 . S
C2556 C2557 1.392 . S
C2556 C2559 1.511 . S
C2557 C2553 1.376 . S
C2557 C2556 1.392 . S
C2557 H2569 0.929 . S
C2558 C2554 1.531 . S
C2558 H2570 0.960 . S
C2558 H2571 0.962 . S
C2558 H2572 0.960 . S
C2559 C2556 1.511 . S
C2559 H2573 0.961 . S
C2559 H2574 0.961 . S
C2559 H2575 0.961 . S
C2560 C2561 1.370 . S
C2560 C2562 1.363 . S
C2560 H2576 0.931 . S
C2561 C2560 1.370 . S
C2561 C2565 1.408 . S
C2562 C2560 1.363 . S
C2562 C2563 1.370 . S
C2562 C2566 1.524 . S
C2563 C2555 1.503 . S
C2563 C2562 1.370 . S
C2563 C2564 1.403 . S
C2564 C2563 1.403 . S
C2564 C2565 1.404 . S
C2564 C2567 1.539 . S
C2565 C2561 1.408 . S
C2565 C2564 1.404 . S
C2565 H2577 0.930 . S
C2566 C2562 1.524 . S
C2566 H2578 0.956 . S
C2566 H2579 0.961 . S
C2566 H2580 0.961 . S
C2567 C2564 1.539 . S
C2567 H2581 0.958 . S
C2567 H2582 0.961 . S
C2567 H2583 0.960 . S
H2568 C2552 0.931 . S
H2569 C2557 0.929 . S
H2570 C2558 0.960 . S
H2571 C2558 0.962 . S
H2572 C2558 0.960 . S
H2573 C2559 0.961 . S
H2574 C2559 0.961 . S
H2575 C2559 0.961 . S
H2576 C2560 0.931 . S
H2577 C2565 0.930 . S
H2578 C2566 0.956 . S
H2579 C2566 0.961 . S
H2580 C2566 0.961 . S
H2581 C2567 0.958 . S
H2582 C2567 0.961 . S
H2583 C2567 0.960 . S
C2584 C2585 1.391 . S
C2584 C2586 1.394 . S
C2584 H2600 0.931 . S
C2585 C2584 1.391 . S
C2585 C2589 1.376 . S
C2586 C2584 1.394 . S
C2586 C2587 1.369 . S
C2586 C2590 1.531 . S
C2587 C2586 1.369 . S
C2587 C2588 1.410 . S
C2587 C2595 1.503 . S
C2588 C2587 1.410 . S
C2588 C2589 1.392 . S
C2588 C2591 1.511 . S
C2589 C2585 1.376 . S
C2589 C2588 1.392 . S
C2589 H2601 0.929 . S
C2590 C2586 1.531 . S
C2590 H2602 0.960 . S
C2590 H2603 0.962 . S
C2590 H2604 0.960 . S
C2591 C2588 1.511 . S
C2591 H2605 0.961 . S
C2591 H2606 0.961 . S
C2591 H2607 0.961 . S
C2592 C2593 1.370 . S
C2592 C2594 1.363 . S
C2592 H2608 0.931 . S
C2593 C2592 1.370 . S
C2593 C2597 1.408 . S
C2594 C2592 1.363 . S
C2594 C2595 1.370 . S
C2594 C2598 1.524 . S
C2595 C2587 1.503 . S
C2595 C2594 1.370 . S
C2595 C2596 1.403 . S
C2596 C2595 1.403 . S
C2596 C2597 1.404 . S
C2596 C2599 1.539 . S
C2597 C2593 1.408 . S
C2597 C2596 1.404 . S
C2597 H2609 0.930 . S
C2598 C2594 1.524 . S
C2598 H2610 0.956 . S
C2598 H2611 0.961 . S
C2598 H2612 0.961 . S
C2599 C2596 1.539 . S
C2599 H2613 0.958 . S
C2599 H2614 0.961 . S
C2599 H2615 0.960 . S
H2600 C2584 0.931 . S
H2601 C2589 0.929 . S
H2602 C2590 0.960 . S
H2603 C2590 0.962 . S
H2604 C2590 0.960 . S
H2605 C2591 0.961 . S
H2606 C2591 0.961 . S
H2607 C2591 0.961 . S
H2608 C2592 0.931 . S
H2609 C2597 0.930 . S
H2610 C2598 0.956 . S
H2611 C2598 0.961 . S
H2612 C2598 0.961 . S
H2613 C2599 0.958 . S
H2614 C2599 0.961 . S
H2615 C2599 0.960 . S
C2616 C2617 1.391 . S
C2616 C2618 1.394 . S
C2616 H2632 0.931 . S
C2617 C2616 1.391 . S
C2617 C2621 1.376 . S
C2618 C2616 1.394 . S
C2618 C2619 1.369 . S
C2618 C2622 1.531 . S
C2619 C2618 1.369 . S
C2619 C2620 1.410 . S
C2619 C2627 1.503 . S
C2620 C2619 1.410 . S
C2620 C2621 1.392 . S
C2620 C2623 1.511 . S
C2621 C2617 1.376 . S
C2621 C2620 1.392 . S
C2621 H2633 0.929 . S
C2622 C2618 1.531 . S
C2622 H2634 0.960 . S
C2622 H2635 0.962 . S
C2622 H2636 0.960 . S
C2623 C2620 1.511 . S
C2623 H2637 0.961 . S
C2623 H2638 0.961 . S
C2623 H2639 0.961 . S
C2624 C2625 1.370 . S
C2624 C2626 1.363 . S
C2624 H2640 0.931 . S
C2625 C2624 1.370 . S
C2625 C2629 1.408 . S
C2626 C2624 1.363 . S
C2626 C2627 1.370 . S
C2626 C2630 1.524 . S
C2627 C2619 1.503 . S
C2627 C2626 1.370 . S
C2627 C2628 1.403 . S
C2628 C2627 1.403 . S
C2628 C2629 1.404 . S
C2628 C2631 1.539 . S
C2629 C2625 1.408 . S
C2629 C2628 1.404 . S
C2629 H2641 0.930 . S
C2630 C2626 1.524 . S
C2630 H2642 0.956 . S
C2630 H2643 0.961 . S
C2630 H2644 0.961 . S
C2631 C2628 1.539 . S
C2631 H2645 0.958 . S
C2631 H2646 0.961 . S
C2631 H2647 0.960 . S
H2632 C2616 0.931 . S
H2633 C2621 0.929 . S
H2634 C2622 0.960 . S
H2635 C2622 0.962 . S
H2636 C2622 0.960 . S
H2637 C2623 0.961 . S
H2638 C2623 0.961 . S
H2639 C2623 0.961 . S
H2640 C2624 0.931 . S
H2641 C2629 0.930 . S
H2642 C2630 0.956 . S
H2643 C2630 0.961 . S
H2644 C2630 0.961 . S
H2645 C2631 0.958 . S
H2646 C2631 0.961 . S
H2647 C2631 0.960 . S
C2648 C2649 1.391 . S
C2648 C2650 1.394 . S
C2648 H2664 0.931 . S
C2649 C2648 1.391 . S
C2649 C2653 1.376 . S
C2650 C2648 1.394 . S
C2650 C2651 1.369 . S
C2650 C2654 1.531 . S
C2651 C2650 1.369 . S
C2651 C2652 1.410 . S
C2651 C2659 1.503 . S
C2652 C2651 1.410 . S
C2652 C2653 1.392 . S
C2652 C2655 1.511 . S
C2653 C2649 1.376 . S
C2653 C2652 1.392 . S
C2653 H2665 0.929 . S
C2654 C2650 1.531 . S
C2654 H2666 0.960 . S
C2654 H2667 0.962 . S
C2654 H2668 0.960 . S
C2655 C2652 1.511 . S
C2655 H2669 0.961 . S
C2655 H2670 0.961 . S
C2655 H2671 0.961 . S
C2656 C2657 1.370 . S
C2656 C2658 1.363 . S
C2656 H2672 0.931 . S
C2657 C2656 1.370 . S
C2657 C2661 1.408 . S
C2658 C2656 1.363 . S
C2658 C2659 1.370 . S
C2658 C2662 1.524 . S
C2659 C2651 1.503 . S
C2659 C2658 1.370 . S
C2659 C2660 1.403 . S
C2660 C2659 1.403 . S
C2660 C2661 1.404 . S
C2660 C2663 1.539 . S
C2661 C2657 1.408 . S
C2661 C2660 1.404 . S
C2661 H2673 0.930 . S
C2662 C2658 1.524 . S
C2662 H2674 0.956 . S
C2662 H2675 0.961 . S
C2662 H2676 0.961 . S
C2663 C2660 1.539 . S
C2663 H2677 0.958 . S
C2663 H2678 0.961 . S
C2663 H2679 0.960 . S
H2664 C2648 0.931 . S
H2665 C2653 0.929 . S
H2666 C2654 0.960 . S
H2667 C2654 0.962 . S
H2668 C2654 0.960 . S
H2669 C2655 0.961 . S
H2670 C2655 0.961 . S
H2671 C2655 0.961 . S
H2672 C2656 0.931 . S
H2673 C2661 0.930 . S
H2674 C2662 0.956 . S
H2675 C2662 0.961 . S
H2676 C2662 0.961 . S
H2677 C2663 0.958 . S
H2678 C2663 0.961 . S
H2679 C2663 0.960 . S
C2680 C2681 1.391 . S
C2680 C2682 1.394 . S
C2680 H2696 0.931 . S
C2681 C2680 1.391 . S
C2681 C2685 1.376 . S
C2682 C2680 1.394 . S
C2682 C2683 1.369 . S
C2682 C2686 1.531 . S
C2683 C2682 1.369 . S
C2683 C2684 1.410 . S
C2683 C2691 1.503 . S
C2684 C2683 1.410 . S
C2684 C2685 1.392 . S
C2684 C2687 1.511 . S
C2685 C2681 1.376 . S
C2685 C2684 1.392 . S
C2685 H2697 0.929 . S
C2686 C2682 1.531 . S
C2686 H2698 0.960 . S
C2686 H2699 0.962 . S
C2686 H2700 0.960 . S
C2687 C2684 1.511 . S
C2687 H2701 0.961 . S
C2687 H2702 0.961 . S
C2687 H2703 0.961 . S
C2688 C2689 1.370 . S
C2688 C2690 1.363 . S
C2688 H2704 0.931 . S
C2689 C2688 1.370 . S
C2689 C2693 1.408 . S
C2690 C2688 1.363 . S
C2690 C2691 1.370 . S
C2690 C2694 1.524 . S
C2691 C2683 1.503 . S
C2691 C2690 1.370 . S
C2691 C2692 1.403 . S
C2692 C2691 1.403 . S
C2692 C2693 1.404 . S
C2692 C2695 1.539 . S
C2693 C2689 1.408 . S
C2693 C2692 1.404 . S
C2693 H2705 0.930 . S
C2694 C2690 1.524 . S
C2694 H2706 0.956 . S
C2694 H2707 0.961 . S
C2694 H2708 0.961 . S
C2695 C2692 1.539 . S
C2695 H2709 0.958 . S
C2695 H2710 0.961 . S
C2695 H2711 0.960 . S
H2696 C2680 0.931 . S
H2697 C2685 0.929 . S
H2698 C2686 0.960 . S
H2699 C2686 0.962 . S
H2700 C2686 0.960 . S
H2701 C2687 0.961 . S
H2702 C2687 0.961 . S
H2703 C2687 0.961 . S
H2704 C2688 0.931 . S
H2705 C2693 0.930 . S
H2706 C2694 0.956 . S
H2707 C2694 0.961 . S
H2708 C2694 0.961 . S
H2709 C2695 0.958 . S
H2710 C2695 0.961 . S
H2711 C2695 0.960 . S
C2712 C2713 1.391 . S
C2712 C2714 1.394 . S
C2712 H2728 0.931 . S
C2713 C2712 1.391 . S
C2713 C2717 1.376 . S
C2714 C2712 1.394 . S
C2714 C2715 1.369 . S
C2714 C2718 1.531 . S
C2715 C2714 1.369 . S
C2715 C2716 1.410 . S
C2715 C2723 1.503 . S
C2716 C2715 1.410 . S
C2716 C2717 1.392 . S
C2716 C2719 1.511 . S
C2717 C2713 1.376 . S
C2717 C2716 1.392 . S
C2717 H2729 0.929 . S
C2718 C2714 1.531 . S
C2718 H2730 0.960 . S
C2718 H2731 0.962 . S
C2718 H2732 0.960 . S
C2719 C2716 1.511 . S
C2719 H2733 0.961 . S
C2719 H2734 0.961 . S
C2719 H2735 0.961 . S
C2720 C2721 1.370 . S
C2720 C2722 1.363 . S
C2720 H2736 0.931 . S
C2721 C2720 1.370 . S
C2721 C2725 1.408 . S
C2722 C2720 1.363 . S
C2722 C2723 1.370 . S
C2722 C2726 1.524 . S
C2723 C2715 1.503 . S
C2723 C2722 1.370 . S
C2723 C2724 1.403 . S
C2724 C2723 1.403 . S
C2724 C2725 1.404 . S
C2724 C2727 1.539 . S
C2725 C2721 1.408 . S
C2725 C2724 1.404 . S
C2725 H2737 0.930 . S
C2726 C2722 1.524 . S
C2726 H2738 0.956 . S
C2726 H2739 0.961 . S
C2726 H2740 0.961 . S
C2727 C2724 1.539 . S
C2727 H2741 0.958 . S
C2727 H2742 0.961 . S
C2727 H2743 0.960 . S
H2728 C2712 0.931 . S
H2729 C2717 0.929 . S
H2730 C2718 0.960 . S
H2731 C2718 0.962 . S
H2732 C2718 0.960 . S
H2733 C2719 0.961 . S
H2734 C2719 0.961 . S
H2735 C2719 0.961 . S
H2736 C2720 0.931 . S
H2737 C2725 0.930 . S
H2738 C2726 0.956 . S
H2739 C2726 0.961 . S
H2740 C2726 0.961 . S
H2741 C2727 0.958 . S
H2742 C2727 0.961 . S
H2743 C2727 0.960 . S
C2744 C2745 1.391 . S
C2744 C2746 1.394 . S
C2744 H2760 0.931 . S
C2745 C2744 1.391 . S
C2745 C2749 1.376 . S
C2746 C2744 1.394 . S
C2746 C2747 1.369 . S
C2746 C2750 1.531 . S
C2747 C2746 1.369 . S
C2747 C2748 1.410 . S
C2747 C2755 1.503 . S
C2748 C2747 1.410 . S
C2748 C2749 1.392 . S
C2748 C2751 1.511 . S
C2749 C2745 1.376 . S
C2749 C2748 1.392 . S
C2749 H2761 0.929 . S
C2750 C2746 1.531 . S
C2750 H2762 0.960 . S
C2750 H2763 0.962 . S
C2750 H2764 0.960 . S
C2751 C2748 1.511 . S
C2751 H2765 0.961 . S
C2751 H2766 0.961 . S
C2751 H2767 0.961 . S
C2752 C2753 1.370 . S
C2752 C2754 1.363 . S
C2752 H2768 0.931 . S
C2753 C2752 1.370 . S
C2753 C2757 1.408 . S
C2754 C2752 1.363 . S
C2754 C2755 1.370 . S
C2754 C2758 1.524 . S
C2755 C2747 1.503 . S
C2755 C2754 1.370 . S
C2755 C2756 1.403 . S
C2756 C2755 1.403 . S
C2756 C2757 1.404 . S
C2756 C2759 1.539 . S
C2757 C2753 1.408 . S
C2757 C2756 1.404 . S
C2757 H2769 0.930 . S
C2758 C2754 1.524 . S
C2758 H2770 0.956 . S
C2758 H2771 0.961 . S
C2758 H2772 0.961 . S
C2759 C2756 1.539 . S
C2759 H2773 0.958 . S
C2759 H2774 0.961 . S
C2759 H2775 0.960 . S
H2760 C2744 0.931 . S
H2761 C2749 0.929 . S
H2762 C2750 0.960 . S
H2763 C2750 0.962 . S
H2764 C2750 0.960 . S
H2765 C2751 0.961 . S
H2766 C2751 0.961 . S
H2767 C2751 0.961 . S
H2768 C2752 0.931 . S
H2769 C2757 0.930 . S
H2770 C2758 0.956 . S
H2771 C2758 0.961 . S
H2772 C2758 0.961 . S
H2773 C2759 0.958 . S
H2774 C2759 0.961 . S
H2775 C2759 0.960 . S
C2776 C2777 1.391 . S
C2776 C2778 1.394 . S
C2776 H2792 0.931 . S
C2777 C2776 1.391 . S
C2777 C2781 1.376 . S
C2778 C2776 1.394 . S
C2778 C2779 1.369 . S
C2778 C2782 1.531 . S
C2779 C2778 1.369 . S
C2779 C2780 1.410 . S
C2779 C2787 1.503 . S
C2780 C2779 1.410 . S
C2780 C2781 1.392 . S
C2780 C2783 1.511 . S
C2781 C2777 1.376 . S
C2781 C2780 1.392 . S
C2781 H2793 0.929 . S
C2782 C2778 1.531 . S
C2782 H2794 0.960 . S
C2782 H2795 0.962 . S
C2782 H2796 0.960 . S
C2783 C2780 1.511 . S
C2783 H2797 0.961 . S
C2783 H2798 0.961 . S
C2783 H2799 0.961 . S
C2784 C2785 1.370 . S
C2784 C2786 1.363 . S
C2784 H2800 0.931 . S
C2785 C2784 1.370 . S
C2785 C2789 1.408 . S
C2786 C2784 1.363 . S
C2786 C2787 1.370 . S
C2786 C2790 1.524 . S
C2787 C2779 1.503 . S
C2787 C2786 1.370 . S
C2787 C2788 1.403 . S
C2788 C2787 1.403 . S
C2788 C2789 1.404 . S
C2788 C2791 1.539 . S
C2789 C2785 1.408 . S
C2789 C2788 1.404 . S
C2789 H2801 0.930 . S
C2790 C2786 1.524 . S
C2790 H2802 0.956 . S
C2790 H2803 0.961 . S
C2790 H2804 0.961 . S
C2791 C2788 1.539 . S
C2791 H2805 0.958 . S
C2791 H2806 0.961 . S
C2791 H2807 0.960 . S
H2792 C2776 0.931 . S
H2793 C2781 0.929 . S
H2794 C2782 0.960 . S
H2795 C2782 0.962 . S
H2796 C2782 0.960 . S
H2797 C2783 0.961 . S
H2798 C2783 0.961 . S
H2799 C2783 0.961 . S
H2800 C2784 0.931 . S
H2801 C2789 0.930 . S
H2802 C2790 0.956 . S
H2803 C2790 0.961 . S
H2804 C2790 0.961 . S
H2805 C2791 0.958 . S
H2806 C2791 0.961 . S
H2807 C2791 0.960 . S
C1081 C522 1.738 . S
C1089 C723 1.753 . S
C1113 C562 1.831 . S
C1121 C763 1.829 . S
C1145 C495 1.781 . S
C1153 C815 1.839 . S
C1177 C455 1.628 . S
C1185 C775 1.608 . S
C1217 C803 1.484 . S
C1209 C362 1.490 . S
C1241 C402 1.504 . S
C1249 C735 1.504 1_556 S
C1281 C742 1.767 . S
C1273 C442 1.719 . S
C1313 C782 1.801 . S
C1305 C375 1.780 . S
C1337 C415 1.819 . S
C1345 C802 1.824 1_556 S
C1369 C535 1.623 . S
C1377 C762 1.605 . S
C1401 C575 1.445 . S
C1409 C822 1.460 . S
C1441 C722 1.534 . S
C1433 C482 1.398 . S
C1473 C843 1.740 . S
C1465 C42 1.759 . S
C1497 C82 1.832 . S
C1505 C883 1.822 . S
C1529 C15 1.831 . S
C1537 C935 1.826 . S
C1561 C695 1.593 . S
C1569 C895 1.623 . S
C1593 C602 1.478 . S
C1601 C923 1.494 . S
C1625 C642 1.498 . S
C1633 C855 1.488 . S
C1657 C682 1.664 . S
C1665 C862 1.777 . S
C1689 C615 1.790 . S
C1697 C902 1.799 . S
C1729 C922 1.827 . S
C1721 C655 1.839 . S
C1753 C55 1.613 . S
C1761 C882 1.619 . S
C1793 C942 1.454 . S
C1785 C95 1.464 1_455 S
C1817 C2 1.468 . S
C1825 C842 1.523 . S
C1857 C963 1.747 . S
C1849 C282 1.736 . S
C1881 C322 1.831 . S
C1889 C1003 1.830 . S
C1921 C1055 1.834 . S
C1913 C255 1.828 . S
C1953 C1015 1.606 . S
C1945 C215 1.628 . S
C1985 C1043 1.491 . S
C1977 C122 1.422 1_655 S
C2009 C162 1.485 . S
C2017 C975 1.504 . S
C2041 C202 1.676 . S
C2049 C982 1.775 . S
C2073 C135 1.788 . S
C2081 C1022 1.798 . S
C2113 C1042 1.830 . S
C2105 C175 1.828 . S
C2137 C295 1.627 . S
C2145 C1002 1.604 . S
C2169 C335 1.465 . S
C2177 C1062 1.454 . S
C2201 C242 1.474 . S
C2209 C962 1.516 . S
C2233 C621 1.265 . S
C2241 C746 1.276 . S
C2273 C786 1.910 . S
C2265 C661 1.943 . S
C2297 C701 1.574 . S
C2305 C809 1.620 . S
C2329 C261 1.856 . S
C2337 C769 1.929 . S
C2361 C301 1.610 . S
C2369 C826 1.598 . S
C2401 C729 1.264 . S
C2393 C341 1.278 . S
C2425 C141 1.284 . S
C2433 C866 1.279 . S
C2457 C181 1.936 . S
C2465 C906 1.916 . S
C2489 C221 1.599 . S
C2497 C929 1.618 . S
C2521 C501 1.900 . S
C2529 C889 1.923 . S
C2561 C946 1.598 . S
C2553 C541 1.610 . S
C2585 C581 1.260 . S
C2593 C849 1.267 . S
C2617 C381 1.283 . S
C2625 C986 1.279 . S
C2649 C421 1.940 . S
C2657 C1026 1.914 . S
C2689 C1049 1.626 . S
C2681 C461 1.576 . S
C2713 C21 1.862 . S
C2721 C1009 1.937 . S
C2745 C61 1.609 . S
C2753 C1066 1.597 . S
C2777 C101 1.272 . S
C2785 C969 1.262 . S
