# Generated by pormake.
# Topology gar, (4,6)-cn, num edge types: 1
# Building blocks:
#     Node 0, Type 0, BuildingBlock: QUQFOY_clean_sbu_3, # of connection points: 4
#     Node 1, Type 0, BuildingBlock: QUQFOY_clean_sbu_3, # of connection points: 4
#     Node 2, Type 0, BuildingBlock: QUQFOY_clean_sbu_3, # of connection points: 4
#     Node 3, Type 0, BuildingBlock: QUQFOY_clean_sbu_3, # of connection points: 4
#     Node 4, Type 0, BuildingBlock: QUQFOY_clean_sbu_3, # of connection points: 4
#     Node 5, Type 0, BuildingBlock: QUQFOY_clean_sbu_3, # of connection points: 4
#     Node 6, Type 0, BuildingBlock: QUQFOY_clean_sbu_3, # of connection points: 4
#     Node 7, Type 0, BuildingBlock: QUQFOY_clean_sbu_3, # of connection points: 4
#     Node 8, Type 0, BuildingBlock: QUQFOY_clean_sbu_3, # of connection points: 4
#     Node 9, Type 0, BuildingBlock: QUQFOY_clean_sbu_3, # of connection points: 4
#     Node 10, Type 0, BuildingBlock: QUQFOY_clean_sbu_3, # of connection points: 4
#     Node 11, Type 0, BuildingBlock: QUQFOY_clean_sbu_3, # of connection points: 4
#     Node 12, Type 0, BuildingBlock: QUQFOY_clean_sbu_3, # of connection points: 4
#     Node 13, Type 0, BuildingBlock: QUQFOY_clean_sbu_3, # of connection points: 4
#     Node 14, Type 0, BuildingBlock: QUQFOY_clean_sbu_3, # of connection points: 4
#     Node 15, Type 0, BuildingBlock: QUQFOY_clean_sbu_3, # of connection points: 4
#     Node 16, Type 0, BuildingBlock: QUQFOY_clean_sbu_3, # of connection points: 4
#     Node 17, Type 0, BuildingBlock: QUQFOY_clean_sbu_3, # of connection points: 4
#     Node 18, Type 0, BuildingBlock: QUQFOY_clean_sbu_3, # of connection points: 4
#     Node 19, Type 0, BuildingBlock: QUQFOY_clean_sbu_3, # of connection points: 4
#     Node 20, Type 0, BuildingBlock: QUQFOY_clean_sbu_3, # of connection points: 4
#     Node 21, Type 0, BuildingBlock: QUQFOY_clean_sbu_3, # of connection points: 4
#     Node 22, Type 0, BuildingBlock: QUQFOY_clean_sbu_3, # of connection points: 4
#     Node 23, Type 0, BuildingBlock: QUQFOY_clean_sbu_3, # of connection points: 4
#     Node 24, Type 1, BuildingBlock: KUMJIN_clean_sbu_0, # of connection points: 6
#     Node 25, Type 1, BuildingBlock: KUMJIN_clean_sbu_0, # of connection points: 6
#     Node 26, Type 1, BuildingBlock: KUMJIN_clean_sbu_0, # of connection points: 6
#     Node 27, Type 1, BuildingBlock: KUMJIN_clean_sbu_0, # of connection points: 6
#     Node 28, Type 1, BuildingBlock: KUMJIN_clean_sbu_0, # of connection points: 6
#     Node 29, Type 1, BuildingBlock: KUMJIN_clean_sbu_0, # of connection points: 6
#     Node 30, Type 1, BuildingBlock: KUMJIN_clean_sbu_0, # of connection points: 6
#     Node 31, Type 1, BuildingBlock: KUMJIN_clean_sbu_0, # of connection points: 6
#     Node 32, Type 1, BuildingBlock: KUMJIN_clean_sbu_0, # of connection points: 6
#     Node 33, Type 1, BuildingBlock: KUMJIN_clean_sbu_0, # of connection points: 6
#     Node 34, Type 1, BuildingBlock: KUMJIN_clean_sbu_0, # of connection points: 6
#     Node 35, Type 1, BuildingBlock: KUMJIN_clean_sbu_0, # of connection points: 6
#     Node 36, Type 1, BuildingBlock: KUMJIN_clean_sbu_0, # of connection points: 6
#     Node 37, Type 1, BuildingBlock: KUMJIN_clean_sbu_0, # of connection points: 6
#     Node 38, Type 1, BuildingBlock: KUMJIN_clean_sbu_0, # of connection points: 6
#     Node 39, Type 1, BuildingBlock: KUMJIN_clean_sbu_0, # of connection points: 6
#     Edge 40, Type (0, 1), BuildingBlock: MIFKUJ_clean_linker_0, # of connection points: 2
#     Edge 41, Type (0, 1), BuildingBlock: MIFKUJ_clean_linker_0, # of connection points: 2
#     Edge 42, Type (0, 1), BuildingBlock: MIFKUJ_clean_linker_0, # of connection points: 2
#     Edge 43, Type (0, 1), BuildingBlock: MIFKUJ_clean_linker_0, # of connection points: 2
#     Edge 44, Type (0, 1), BuildingBlock: MIFKUJ_clean_linker_0, # of connection points: 2
#     Edge 45, Type (0, 1), BuildingBlock: MIFKUJ_clean_linker_0, # of connection points: 2
#     Edge 46, Type (0, 1), BuildingBlock: MIFKUJ_clean_linker_0, # of connection points: 2
#     Edge 47, Type (0, 1), BuildingBlock: MIFKUJ_clean_linker_0, # of connection points: 2
#     Edge 48, Type (0, 1), BuildingBlock: MIFKUJ_clean_linker_0, # of connection points: 2
#     Edge 49, Type (0, 1), BuildingBlock: MIFKUJ_clean_linker_0, # of connection points: 2
#     Edge 50, Type (0, 1), BuildingBlock: MIFKUJ_clean_linker_0, # of connection points: 2
#     Edge 51, Type (0, 1), BuildingBlock: MIFKUJ_clean_linker_0, # of connection points: 2
#     Edge 52, Type (0, 1), BuildingBlock: MIFKUJ_clean_linker_0, # of connection points: 2
#     Edge 53, Type (0, 1), BuildingBlock: MIFKUJ_clean_linker_0, # of connection points: 2
#     Edge 54, Type (0, 1), BuildingBlock: MIFKUJ_clean_linker_0, # of connection points: 2
#     Edge 55, Type (0, 1), BuildingBlock: MIFKUJ_clean_linker_0, # of connection points: 2
#     Edge 56, Type (0, 1), BuildingBlock: MIFKUJ_clean_linker_0, # of connection points: 2
#     Edge 57, Type (0, 1), BuildingBlock: MIFKUJ_clean_linker_0, # of connection points: 2
#     Edge 58, Type (0, 1), BuildingBlock: MIFKUJ_clean_linker_0, # of connection points: 2
#     Edge 59, Type (0, 1), BuildingBlock: MIFKUJ_clean_linker_0, # of connection points: 2
#     Edge 60, Type (0, 1), BuildingBlock: MIFKUJ_clean_linker_0, # of connection points: 2
#     Edge 61, Type (0, 1), BuildingBlock: MIFKUJ_clean_linker_0, # of connection points: 2
#     Edge 62, Type (0, 1), BuildingBlock: MIFKUJ_clean_linker_0, # of connection points: 2
#     Edge 63, Type (0, 1), BuildingBlock: MIFKUJ_clean_linker_0, # of connection points: 2
#     Edge 64, Type (0, 1), BuildingBlock: MIFKUJ_clean_linker_0, # of connection points: 2
#     Edge 65, Type (0, 1), BuildingBlock: MIFKUJ_clean_linker_0, # of connection points: 2
#     Edge 66, Type (0, 1), BuildingBlock: MIFKUJ_clean_linker_0, # of connection points: 2
#     Edge 67, Type (0, 1), BuildingBlock: MIFKUJ_clean_linker_0, # of connection points: 2
#     Edge 68, Type (0, 1), BuildingBlock: MIFKUJ_clean_linker_0, # of connection points: 2
#     Edge 69, Type (0, 1), BuildingBlock: MIFKUJ_clean_linker_0, # of connection points: 2
#     Edge 70, Type (0, 1), BuildingBlock: MIFKUJ_clean_linker_0, # of connection points: 2
#     Edge 71, Type (0, 1), BuildingBlock: MIFKUJ_clean_linker_0, # of connection points: 2
#     Edge 72, Type (0, 1), BuildingBlock: MIFKUJ_clean_linker_0, # of connection points: 2
#     Edge 73, Type (0, 1), BuildingBlock: MIFKUJ_clean_linker_0, # of connection points: 2
#     Edge 74, Type (0, 1), BuildingBlock: MIFKUJ_clean_linker_0, # of connection points: 2
#     Edge 75, Type (0, 1), BuildingBlock: MIFKUJ_clean_linker_0, # of connection points: 2
#     Edge 76, Type (0, 1), BuildingBlock: MIFKUJ_clean_linker_0, # of connection points: 2
#     Edge 77, Type (0, 1), BuildingBlock: MIFKUJ_clean_linker_0, # of connection points: 2
#     Edge 78, Type (0, 1), BuildingBlock: MIFKUJ_clean_linker_0, # of connection points: 2
#     Edge 79, Type (0, 1), BuildingBlock: MIFKUJ_clean_linker_0, # of connection points: 2
#     Edge 80, Type (0, 1), BuildingBlock: MIFKUJ_clean_linker_0, # of connection points: 2
#     Edge 81, Type (0, 1), BuildingBlock: MIFKUJ_clean_linker_0, # of connection points: 2
#     Edge 82, Type (0, 1), BuildingBlock: MIFKUJ_clean_linker_0, # of connection points: 2
#     Edge 83, Type (0, 1), BuildingBlock: MIFKUJ_clean_linker_0, # of connection points: 2
#     Edge 84, Type (0, 1), BuildingBlock: MIFKUJ_clean_linker_0, # of connection points: 2
#     Edge 85, Type (0, 1), BuildingBlock: MIFKUJ_clean_linker_0, # of connection points: 2
#     Edge 86, Type (0, 1), BuildingBlock: MIFKUJ_clean_linker_0, # of connection points: 2
#     Edge 87, Type (0, 1), BuildingBlock: MIFKUJ_clean_linker_0, # of connection points: 2
#     Edge 88, Type (0, 1), BuildingBlock: MIFKUJ_clean_linker_0, # of connection points: 2
#     Edge 89, Type (0, 1), BuildingBlock: MIFKUJ_clean_linker_0, # of connection points: 2
#     Edge 90, Type (0, 1), BuildingBlock: MIFKUJ_clean_linker_0, # of connection points: 2
#     Edge 91, Type (0, 1), BuildingBlock: MIFKUJ_clean_linker_0, # of connection points: 2
#     Edge 92, Type (0, 1), BuildingBlock: MIFKUJ_clean_linker_0, # of connection points: 2
#     Edge 93, Type (0, 1), BuildingBlock: MIFKUJ_clean_linker_0, # of connection points: 2
#     Edge 94, Type (0, 1), BuildingBlock: MIFKUJ_clean_linker_0, # of connection points: 2
#     Edge 95, Type (0, 1), BuildingBlock: MIFKUJ_clean_linker_0, # of connection points: 2
#     Edge 96, Type (0, 1), BuildingBlock: MIFKUJ_clean_linker_0, # of connection points: 2
#     Edge 97, Type (0, 1), BuildingBlock: MIFKUJ_clean_linker_0, # of connection points: 2
#     Edge 98, Type (0, 1), BuildingBlock: MIFKUJ_clean_linker_0, # of connection points: 2
#     Edge 99, Type (0, 1), BuildingBlock: MIFKUJ_clean_linker_0, # of connection points: 2
#     Edge 100, Type (0, 1), BuildingBlock: MIFKUJ_clean_linker_0, # of connection points: 2
#     Edge 101, Type (0, 1), BuildingBlock: MIFKUJ_clean_linker_0, # of connection points: 2
#     Edge 102, Type (0, 1), BuildingBlock: MIFKUJ_clean_linker_0, # of connection points: 2
#     Edge 103, Type (0, 1), BuildingBlock: MIFKUJ_clean_linker_0, # of connection points: 2
#     Edge 104, Type (0, 1), BuildingBlock: MIFKUJ_clean_linker_0, # of connection points: 2
#     Edge 105, Type (0, 1), BuildingBlock: MIFKUJ_clean_linker_0, # of connection points: 2
#     Edge 106, Type (0, 1), BuildingBlock: MIFKUJ_clean_linker_0, # of connection points: 2
#     Edge 107, Type (0, 1), BuildingBlock: MIFKUJ_clean_linker_0, # of connection points: 2
#     Edge 108, Type (0, 1), BuildingBlock: MIFKUJ_clean_linker_0, # of connection points: 2
#     Edge 109, Type (0, 1), BuildingBlock: MIFKUJ_clean_linker_0, # of connection points: 2
#     Edge 110, Type (0, 1), BuildingBlock: MIFKUJ_clean_linker_0, # of connection points: 2
#     Edge 111, Type (0, 1), BuildingBlock: MIFKUJ_clean_linker_0, # of connection points: 2
#     Edge 112, Type (0, 1), BuildingBlock: MIFKUJ_clean_linker_0, # of connection points: 2
#     Edge 113, Type (0, 1), BuildingBlock: MIFKUJ_clean_linker_0, # of connection points: 2
#     Edge 114, Type (0, 1), BuildingBlock: MIFKUJ_clean_linker_0, # of connection points: 2
#     Edge 115, Type (0, 1), BuildingBlock: MIFKUJ_clean_linker_0, # of connection points: 2
#     Edge 116, Type (0, 1), BuildingBlock: MIFKUJ_clean_linker_0, # of connection points: 2
#     Edge 117, Type (0, 1), BuildingBlock: MIFKUJ_clean_linker_0, # of connection points: 2
#     Edge 118, Type (0, 1), BuildingBlock: MIFKUJ_clean_linker_0, # of connection points: 2
#     Edge 119, Type (0, 1), BuildingBlock: MIFKUJ_clean_linker_0, # of connection points: 2
#     Edge 120, Type (0, 1), BuildingBlock: MIFKUJ_clean_linker_0, # of connection points: 2
#     Edge 121, Type (0, 1), BuildingBlock: MIFKUJ_clean_linker_0, # of connection points: 2
#     Edge 122, Type (0, 1), BuildingBlock: MIFKUJ_clean_linker_0, # of connection points: 2
#     Edge 123, Type (0, 1), BuildingBlock: MIFKUJ_clean_linker_0, # of connection points: 2
#     Edge 124, Type (0, 1), BuildingBlock: MIFKUJ_clean_linker_0, # of connection points: 2
#     Edge 125, Type (0, 1), BuildingBlock: MIFKUJ_clean_linker_0, # of connection points: 2
#     Edge 126, Type (0, 1), BuildingBlock: MIFKUJ_clean_linker_0, # of connection points: 2
#     Edge 127, Type (0, 1), BuildingBlock: MIFKUJ_clean_linker_0, # of connection points: 2
#     Edge 128, Type (0, 1), BuildingBlock: MIFKUJ_clean_linker_0, # of connection points: 2
#     Edge 129, Type (0, 1), BuildingBlock: MIFKUJ_clean_linker_0, # of connection points: 2
#     Edge 130, Type (0, 1), BuildingBlock: MIFKUJ_clean_linker_0, # of connection points: 2
#     Edge 131, Type (0, 1), BuildingBlock: MIFKUJ_clean_linker_0, # of connection points: 2
#     Edge 132, Type (0, 1), BuildingBlock: MIFKUJ_clean_linker_0, # of connection points: 2
#     Edge 133, Type (0, 1), BuildingBlock: MIFKUJ_clean_linker_0, # of connection points: 2
#     Edge 134, Type (0, 1), BuildingBlock: MIFKUJ_clean_linker_0, # of connection points: 2
#     Edge 135, Type (0, 1), BuildingBlock: MIFKUJ_clean_linker_0, # of connection points: 2
# Relax obj value: 0.112
# Max RMSD: 0.312
# Mean RMSD: 0.145
data_MOF--net-gar--node1-QUQFOY_clean_sbu_3--node2-KUMJIN_clean_sbu_0--edge1-MIFKUJ_clean_linker_0
_symmetry_space_group_name_H-M    P1
_symmetry_Int_Tables_number       1
_symmetry_cell_setting            triclinic
loop_
_symmetry_equiv_pos_as_xyz
'x, y, z'
_cell_length_a     77.293073
_cell_length_b     74.005427
_cell_length_c     73.38037
_cell_angle_alpha  100.83335
_cell_angle_beta   92.869325
_cell_angle_gamma 102.35074
loop_
_atom_site_label
_atom_site_type_symbol
_atom_site_fract_x
_atom_site_fract_y
_atom_site_fract_z
_atom_type_partial_charge
C0 C 0.0665 0.31801 0.35559 0.0
O1 O 0.07716 0.32567 0.34514 0.0
Cd2 Cd 0.10867 0.33152 0.34959 0.0
O3 O 0.07205 0.31172 0.3692 0.0
Cd4 Cd 0.09885 0.30836 0.38532 0.0
C5 C 0.10977 0.35536 0.39429 0.0
O6 O 0.114 0.30481 0.35959 0.0
O7 O 0.1308 0.31152 0.38554 0.0
O8 O 0.08791 0.27659 0.38732 0.0
C9 C 0.12945 0.30892 0.36789 0.0
O10 O 0.11386 0.35573 0.37775 0.0
C11 C 0.08953 0.28001 0.40502 0.0
O12 O 0.10324 0.34015 0.39956 0.0
O13 O 0.09506 0.29705 0.41365 0.0
C14 C 0.97146 0.74926 0.68485 0.0
O15 O 0.98238 0.74415 0.69518 0.0
Cd16 Cd 0.01115 0.74163 0.68827 0.0
O17 O 0.97608 0.75633 0.6709 0.0
Cd18 Cd 0.0008 0.76411 0.65374 0.0
C19 C 0.99331 0.71787 0.64387 0.0
O20 O 0.02407 0.76818 0.67656 0.0
O21 O 0.03001 0.75966 0.6481 0.0
O22 O 0.00227 0.79595 0.65176 0.0
C23 C 0.03504 0.76343 0.66538 0.0
O24 O 0.00106 0.71827 0.65975 0.0
C25 C -0.00043 0.79222 0.63407 0.0
O26 O 0.99094 0.73261 0.63861 0.0
O27 O 0.99598 0.77502 0.62567 0.0
C28 C 0.56649 0.81896 0.85716 0.0
O29 O 0.57705 0.82596 0.84627 0.0
Cd30 Cd 0.60831 0.83085 0.8497 0.0
O31 O 0.57197 0.81299 0.87105 0.0
Cd32 Cd 0.59905 0.80933 0.8869 0.0
C33 C 0.61145 0.85607 0.89453 0.0
O34 O 0.61271 0.80406 0.86024 0.0
O35 O 0.63038 0.80953 0.88537 0.0
O36 O 0.58418 0.77896 0.89031 0.0
C37 C 0.62837 0.8072 0.86778 0.0
O38 O 0.61381 0.85544 0.87738 0.0
C39 C 0.58929 0.7819 0.90756 0.0
O40 O 0.60559 0.84141 0.90098 0.0
O41 O 0.59861 0.79812 0.91531 0.0
C42 C 0.46903 0.25077 0.1823 0.0
O43 O 0.47942 0.24724 0.19444 0.0
Cd44 Cd 0.50977 0.24707 0.1921 0.0
O45 O 0.47458 0.25673 0.16811 0.0
Cd46 Cd 0.50078 0.26344 0.15315 0.0
C47 C 0.49613 0.21767 0.14953 0.0
O48 O 0.52355 0.27165 0.1779 0.0
O49 O 0.53106 0.26259 0.15006 0.0
O50 O 0.49891 0.29398 0.14974 0.0
C51 C 0.53554 0.26827 0.16739 0.0
O52 O 0.50367 0.22111 0.16604 0.0
C53 C 0.49915 0.29036 0.13212 0.0
O54 O 0.49226 0.23044 0.14175 0.0
O55 O 0.4984 0.27337 0.12405 0.0
C56 C 0.0492 0.80064 0.13783 0.0
O57 O 0.05846 0.79201 0.14641 0.0
Cd58 Cd 0.08665 0.78523 0.14055 0.0
O59 O 0.05527 0.80808 0.1243 0.0
Cd60 Cd 0.08462 0.81264 0.10798 0.0
C61 C 0.07652 0.76386 0.09348 0.0
O62 O 0.10326 0.81452 0.13656 0.0
O63 O 0.11859 0.81748 0.11349 0.0
O64 O 0.07693 0.84338 0.10712 0.0
C65 C 0.11839 0.81606 0.13044 0.0
O66 O 0.07962 0.76349 0.11059 0.0
C67 C 0.08141 0.8448 0.09093 0.0
O68 O 0.07716 0.77947 0.08809 0.0
O69 O 0.0878 0.83144 0.0824 0.0
C70 C 0.48195 0.76588 0.39573 0.0
O71 O 0.49448 0.77494 0.38819 0.0
Cd72 Cd 0.52504 0.78499 0.39855 0.0
O73 O 0.48554 0.75962 0.41041 0.0
Cd74 Cd 0.51591 0.76021 0.42967 0.0
C75 C 0.52124 0.80774 0.44372 0.0
O76 O 0.53457 0.75788 0.40322 0.0
O77 O 0.54939 0.76793 0.4299 0.0
O78 O 0.50519 0.72642 0.43305 0.0
C79 C 0.54965 0.76275 0.41249 0.0
O80 O 0.52503 0.80772 0.42704 0.0
C81 C 0.51357 0.72857 0.44895 0.0
O82 O 0.51672 0.79224 0.44939 0.0
O83 O 0.52175 0.74532 0.45638 0.0
C84 C 0.5487 0.3022 0.63628 0.0
O85 O 0.55815 0.29602 0.64724 0.0
Cd86 Cd 0.58616 0.28857 0.64117 0.0
O87 O 0.5548 0.30712 0.62157 0.0
Cd88 Cd 0.58475 0.31122 0.60664 0.0
C89 C 0.57635 0.26276 0.59516 0.0
O90 O 0.60473 0.31644 0.63562 0.0
O91 O 0.61776 0.3115 0.6107 0.0
O92 O 0.58188 0.34388 0.60634 0.0
C93 C 0.61902 0.3149 0.62838 0.0
O94 O 0.57945 0.26433 0.61268 0.0
C95 C 0.58301 0.34356 0.58908 0.0
O96 O 0.57697 0.27747 0.58817 0.0
O97 O 0.58538 0.3282 0.57948 0.0
C98 C 0.98109 0.2653 0.89614 0.0
O99 O 0.99356 0.27461 0.88872 0.0
Cd100 Cd 0.02442 0.2835 0.89861 0.0
O101 O 0.98481 0.25871 0.91053 0.0
Cd102 Cd 0.01561 0.25969 0.92881 0.0
C103 C 0.02398 0.30746 0.94365 0.0
O104 O 0.03439 0.25625 0.90232 0.0
O105 O 0.04886 0.26964 0.92872 0.0
O106 O 0.00861 0.22558 0.93105 0.0
C107 C 0.04938 0.26242 0.91172 0.0
O108 O 0.02861 0.30736 0.92723 0.0
C109 C 0.01444 0.228 0.94804 0.0
O110 O 0.01692 0.29198 0.94844 0.0
O111 O 0.01947 0.24509 0.95666 0.0
C112 C 0.44333 0.03031 0.3187 0.0
O113 O 0.45302 0.02727 0.30552 0.0
Cd114 Cd 0.4406 0.02289 0.27458 0.0
O115 O 0.42848 0.03435 0.31632 0.0
Cd116 Cd 0.40829 0.04052 0.29563 0.0
C117 C 0.4014 0.99509 0.28344 0.0
O118 O 0.42866 0.0499 0.27585 0.0
O119 O 0.40165 0.04066 0.26299 0.0
O120 O 0.41073 0.0693 0.31617 0.0
C121 C 0.41804 0.04679 0.26142 0.0
O122 O 0.41551 0.99636 0.27498 0.0
C123 C 0.39404 0.06796 0.31476 0.0
O124 O 0.39669 0.00936 0.29222 0.0
O125 O 0.38398 0.05226 0.30657 0.0
C126 C 0.32128 0.15914 0.50633 0.0
O127 O 0.30974 0.14953 0.51458 0.0
Cd128 Cd 0.28158 0.15543 0.52182 0.0
O129 O 0.31824 0.1734 0.50041 0.0
Cd130 Cd 0.29206 0.18832 0.49891 0.0
C131 C 0.29465 0.20183 0.54572 0.0
O132 O 0.26928 0.15884 0.49297 0.0
O133 O 0.25909 0.18388 0.49848 0.0
O134 O 0.30333 0.19109 0.46891 0.0
C135 C 0.25584 0.166 0.49432 0.0
O136 O 0.28708 0.18466 0.54526 0.0
C137 C 0.29856 0.20626 0.46794 0.0
O138 O 0.29956 0.20742 0.53099 0.0
O139 O 0.2911 0.21353 0.48159 0.0
C140 C 0.13662 0.00852 0.80182 0.0
O141 O 0.12815 0.01752 0.79286 0.0
Cd142 Cd 0.13539 0.02562 0.76307 0.0
O143 O 0.14943 0.0019 0.79426 0.0
Cd144 Cd 0.1651 1.00002 0.76102 0.0
C145 C 0.17914 0.05178 0.76809 0.0
O146 O 0.13636 0.99837 0.73954 0.0
O147 O 0.16014 1.00177 0.7259 0.0
O148 O 0.1679 0.96411 0.75687 0.0
C149 C 0.14342 1.0005 0.72451 0.0
O150 O 0.16248 0.05099 0.76691 0.0
C151 C 0.18471 0.96649 0.76001 0.0
O152 O 0.18453 0.03621 0.76703 0.0
O153 O 0.19275 0.98389 0.76323 0.0
C154 C 0.34496 0.9627 0.01347 0.0
O155 O 0.33791 0.97672 0.01415 0.0
Cd156 Cd 0.30941 0.96315 0.9972 0.0
O157 O 0.33737 0.94721 0.00294 0.0
Cd158 Cd 0.31426 0.92696 0.01393 0.0
C159 C 0.31394 0.92008 0.96998 0.0
O160 O 0.29821 0.94911 0.02223 0.0
O161 O 0.28218 0.92073 0.01184 0.0
O162 O 0.33036 0.9285 0.04275 0.0
C163 C 0.28306 0.93807 0.01847 0.0
O164 O 0.31264 0.93717 0.97108 0.0
C165 C 0.32662 0.91063 0.04095 0.0
O166 O 0.31418 0.91249 0.98401 0.0
O167 O 0.31757 0.90069 0.02613 0.0
C168 C 0.33622 0.4183 0.03301 0.0
O169 O 0.32621 0.42672 0.02523 0.0
Cd170 Cd 0.29546 0.41561 0.01583 0.0
O171 O 0.32966 0.40259 0.03762 0.0
Cd172 Cd 0.29813 0.38302 0.03648 0.0
C173 C 0.29531 0.37108 0.99001 0.0
O174 O 0.28201 0.40807 0.04246 0.0
O175 O 0.26608 0.38069 0.02947 0.0
O176 O 0.30392 0.38222 0.06898 0.0
C177 C 0.26669 0.39766 0.0372 0.0
O178 O 0.29331 0.38789 0.99118 0.0
C179 C 0.29714 0.36474 0.06734 0.0
O180 O 0.29832 0.36491 0.00468 0.0
O181 O 0.29172 0.35531 0.05097 0.0
C182 C 0.80301 0.11445 0.03089 0.0
O183 O 0.78959 0.10243 0.03385 0.0
Cd184 Cd 0.75977 0.1071 0.03266 0.0
O185 O 0.80158 0.12917 0.02525 0.0
Cd186 Cd 0.78052 0.14506 0.01738 0.0
C187 C 0.77057 0.15069 0.06089 0.0
O188 O 0.75694 0.11968 0.0056 0.0
O189 O 0.75046 0.14703 0.00993 0.0
O190 O 0.79413 0.14881 0.99014 0.0
C191 C 0.74517 0.12924 0.00548 0.0
O192 O 0.76114 0.13386 0.05795 0.0
C193 C 0.79358 0.16613 0.99291 0.0
O194 O 0.7798 0.15717 0.04878 0.0
O195 O 0.78994 0.17398 0.00874 0.0
C196 C 0.15559 0.54192 0.27013 0.0
O197 O 0.14445 0.54756 0.26061 0.0
Cd198 Cd 0.15104 0.55603 0.23215 0.0
O199 O 0.1691 0.53712 0.2636 0.0
Cd200 Cd 0.18202 0.53205 0.23525 0.0
C201 C 0.19544 0.57656 0.24564 0.0
O202 O 0.15906 0.52983 0.21447 0.0
O203 O 0.18534 0.53552 0.2041 0.0
O204 O 0.17888 0.49994 0.23407 0.0
C205 C 0.16862 0.53322 0.20145 0.0
O206 O 0.17957 0.5777 0.24146 0.0
C207 C 0.19566 0.50224 0.23617 0.0
O208 O 0.20008 0.56113 0.24487 0.0
O209 O 0.20569 0.5185 0.23735 0.0
C210 C 0.83652 0.91827 0.53402 0.0
O211 O 0.82689 0.92714 0.52632 0.0
Cd212 Cd 0.79637 0.91594 0.51568 0.0
O213 O 0.82964 0.90235 0.53801 0.0
Cd214 Cd 0.79795 0.88297 0.5365 0.0
C215 C 0.79675 0.87128 0.49025 0.0
O216 O 0.78224 0.90848 0.54197 0.0
O217 O 0.76579 0.88111 0.52994 0.0
O218 O 0.80445 0.88147 0.56876 0.0
C219 C 0.76676 0.89834 0.53695 0.0
O220 O 0.79506 0.88818 0.49128 0.0
C221 C 0.79719 0.86408 0.56692 0.0
O222 O 0.79888 0.86493 0.50498 0.0
O223 O 0.79097 0.8551 0.5506 0.0
C224 C 0.95972 0.06338 0.30888 0.0
O225 O 0.96684 0.05363 0.29657 0.0
Cd226 Cd 0.9567 0.04392 0.26378 0.0
O227 O 0.94665 0.07039 0.30364 0.0
Cd228 Cd 0.92853 0.07085 0.26975 0.0
C229 C 0.91348 0.0192 0.26473 0.0
O230 O 0.9563 0.07142 0.25067 0.0
O231 O 0.93181 0.06591 0.2339 0.0
O232 O 0.92408 0.106 0.28235 0.0
C233 C 0.94861 0.06861 0.23433 0.0
O234 O 0.92926 0.01882 0.26067 0.0
C235 C 0.90938 0.10505 0.27307 0.0
O236 O 0.90926 0.03538 0.2694 0.0
O237 O 0.90307 0.08873 0.2629 0.0
C238 C 0.30197 0.61339 0.52981 0.0
O239 O 0.2884 0.6018 0.53312 0.0
Cd240 Cd 0.25918 0.60771 0.53317 0.0
O241 O 0.30095 0.62824 0.52417 0.0
Cd242 Cd 0.28041 0.64447 0.51574 0.0
C243 C 0.27136 0.65238 0.55981 0.0
O244 O 0.25688 0.61908 0.50535 0.0
O245 O 0.25052 0.64631 0.50726 0.0
O246 O 0.29289 0.64627 0.48781 0.0
C247 C 0.24516 0.62852 0.50429 0.0
O248 O 0.26255 0.63541 0.55819 0.0
C249 C 0.29211 0.66349 0.48968 0.0
O250 O 0.27941 0.65807 0.54659 0.0
O251 O 0.29013 0.67253 0.5057 0.0
C252 C 0.45977 0.56436 0.80945 0.0
O253 O 0.4683 0.55633 0.79731 0.0
Cd254 Cd 0.45716 0.54623 0.76499 0.0
O255 O 0.44576 0.56972 0.80385 0.0
Cd256 Cd 0.42813 0.57021 0.76954 0.0
C257 C 0.41438 0.51912 0.76566 0.0
O258 O 0.45594 0.57268 0.75023 0.0
O259 O 0.4312 0.56296 0.73368 0.0
O260 O 0.42369 0.60546 0.78141 0.0
C261 C 0.448 0.56793 0.73385 0.0
O262 O 0.43072 0.52002 0.76316 0.0
C263 C 0.4086 0.60413 0.77273 0.0
O264 O 0.40892 0.5347 0.76874 0.0
O265 O 0.4021 0.58753 0.7632 0.0
C266 C 0.65711 0.03654 0.77099 0.0
O267 O 0.64381 0.0342 0.7593 0.0
Cd268 Cd 0.64969 0.04608 0.73261 0.0
O269 O 0.67268 0.0382 0.76594 0.0
Cd270 Cd 0.68607 0.03428 0.73726 0.0
C271 C 0.68877 0.07842 0.74981 0.0
O272 O 0.66379 0.02594 0.71374 0.0
O273 O 0.68891 0.04202 0.70703 0.0
O274 O 0.68583 0.00357 0.73755 0.0
C275 C 0.67274 0.03374 0.70218 0.0
O276 O 0.67261 0.075 0.74308 0.0
C277 C 0.70263 0.00625 0.73785 0.0
O278 O 0.69713 0.06555 0.75033 0.0
O279 O 0.71197 0.0228 0.73837 0.0
C280 C 0.82257 0.65961 0.00794 0.0
O281 O 0.81111 0.64935 0.01567 0.0
Cd282 Cd 0.78244 0.65399 0.02151 0.0
O283 O 0.81884 0.67325 0.00139 0.0
Cd284 Cd 0.79174 0.68674 0.99931 0.0
C285 C 0.79576 0.7002 0.04591 0.0
O286 O 0.76829 0.65808 0.99353 0.0
O287 O 0.75978 0.68375 0.00376 0.0
O288 O 0.79241 0.68655 0.96642 0.0
C289 C 0.75557 0.6661 0.99711 0.0
O290 O 0.78996 0.68268 0.04553 0.0
C291 C 0.79626 0.70433 0.96801 0.0
O292 O 0.79812 0.70639 0.03094 0.0
O293 O 0.79811 0.71432 0.98439 0.0
C294 C 0.94158 0.53234 0.82751 0.0
O295 O 0.9505 0.52376 0.81623 0.0
Cd296 Cd 0.94478 0.51829 0.78321 0.0
O297 O 0.92872 0.53862 0.82225 0.0
Cd298 Cd 0.91168 0.54049 0.79682 0.0
C299 C 0.90312 0.49379 0.78578 0.0
O300 O 0.93416 0.54473 0.77793 0.0
O301 O 0.90772 0.54093 0.76431 0.0
O302 O 0.9107 0.57067 0.81196 0.0
C303 C 0.92422 0.54229 0.76302 0.0
O304 O 0.91814 0.49349 0.77947 0.0
C305 C 0.89387 0.56734 0.80892 0.0
O306 O 0.89898 0.50894 0.79332 0.0
O307 O 0.8854 0.55039 0.80248 0.0
C308 C 0.84974 0.45821 0.51104 0.0
O309 O 0.84417 0.47329 0.51385 0.0
Cd310 Cd 0.8152 0.46462 0.49713 0.0
O311 O 0.84036 0.44366 0.5005 0.0
Cd312 Cd 0.81633 0.42902 0.51511 0.0
C313 C 0.81143 0.41862 0.47119 0.0
O314 O 0.80223 0.45363 0.52279 0.0
O315 O 0.78534 0.42515 0.51772 0.0
O316 O 0.83234 0.43229 0.54425 0.0
C317 C 0.78689 0.44291 0.52133 0.0
O318 O 0.81424 0.43642 0.47197 0.0
C319 C 0.82911 0.41453 0.54318 0.0
O320 O 0.80996 0.41152 0.48559 0.0
O321 O 0.82058 0.40375 0.52847 0.0
C322 C 0.63631 0.51011 0.30107 0.0
O323 O 0.62897 0.51956 0.29151 0.0
Cd324 Cd 0.63556 0.52655 0.26135 0.0
O325 O 0.64887 0.50256 0.29412 0.0
Cd326 Cd 0.66515 0.50055 0.26099 0.0
C327 C 0.67941 0.55234 0.2671 0.0
O328 O 0.6364 0.49838 0.23941 0.0
O329 O 0.65986 0.50087 0.22542 0.0
O330 O 0.6683 0.46572 0.26273 0.0
C331 C 0.6432 0.49984 0.22418 0.0
O332 O 0.66278 0.55137 0.26451 0.0
C333 C 0.68459 0.46693 0.25977 0.0
O334 O 0.68472 0.53694 0.26765 0.0
O335 O 0.69219 0.48324 0.25723 0.0
Eu336 Eu 0.02493 0.02707 0.01117 0.0
C337 C 0.08808 0.08966 0.05116 0.0
C338 C 0.09469 0.10783 0.02703 0.0
C339 C 0.10397 0.12271 0.05943 0.0
C340 C 0.08723 0.09071 0.03247 0.0
C341 C 0.0967 0.10565 0.0648 0.0
C342 C 0.10294 0.1238 0.0406 0.0
C343 C 0.09164 0.08647 0.08807 0.0
N344 N 0.08124 0.07287 0.05596 0.0
C345 C 0.08343 0.07097 0.07408 0.0
C346 C 0.09822 0.10392 0.08343 0.0
Eu347 Eu 0.07014 0.04669 0.03094 0.0
N348 N 0.07958 0.07494 0.01957 0.0
C349 C 0.07914 0.07539 0.00098 0.0
C350 C 0.09395 0.10836 0.00807 0.0
C351 C 0.08611 0.09205 0.99499 0.0
H352 H 0.07895 0.05731 0.07767 0.0
H353 H 0.08546 0.09228 0.98027 0.0
H354 H 0.10877 0.13701 0.03665 0.0
H355 H 0.09315 0.08486 0.10238 0.0
H356 H 0.07301 0.06316 0.99054 0.0
H357 H 0.99788 0.98142 0.06004 0.0
H358 H 0.09948 0.12124 0.00337 0.0
H359 H 0.01772 0.01602 0.96407 0.0
H360 H 0.01151 0.0104 0.0516 0.0
H361 H 0.00665 0.9883 0.93902 0.0
H362 H 0.11064 0.13509 0.06972 0.0
H363 H 0.98846 0.95211 0.03629 0.0
H364 H 0.98346 0.93668 0.003 0.0
H365 H 0.1048 0.11585 0.09427 0.0
H366 H 0.98704 0.93795 0.97036 0.0
N367 N 0.01186 0.99889 0.02236 0.0
C368 C 0.00834 0.99832 0.04048 0.0
C369 C 0.99501 0.96505 0.03224 0.0
C370 C 0.99764 0.96557 0.01369 0.0
C371 C 0.00025 0.98153 0.04564 0.0
C372 C 0.00636 0.98278 0.00904 0.0
H373 H 0.99566 0.95697 0.94648 0.0
N374 N 0.01488 1.00057 0.986 0.0
C375 C 0.00714 0.98669 0.95338 0.0
C376 C 0.00795 0.98365 0.99044 0.0
C377 C 0.01357 0.00237 0.96775 0.0
C378 C 0.00102 0.96906 0.95764 0.0
C379 C 0.00087 0.96743 0.97629 0.0
O380 O 0.01126 0.03931 0.99159 0.0
O381 O 0.04818 0.05176 0.01322 0.0
O382 O 0.05258 0.05509 0.05466 0.0
O383 O 0.02446 0.03651 0.04301 0.0
O384 O 0.02515 0.05755 0.0232 0.0
O385 O 0.99711 0.02827 0.01361 0.0
O386 O 0.08735 0.02917 0.03906 0.0
O387 O 0.04949 0.01957 0.0216 0.0
O388 O 0.04318 0.02358 0.98661 0.0
O389 O 0.07225 0.03395 0.00029 0.0
O390 O 0.06144 0.02504 0.04863 0.0
O391 O 0.09823 0.05165 0.02533 0.0
C392 C 0.0407 0.06509 0.01932 0.0
C393 C 0.97956 0.0332 0.98814 0.0
C394 C 0.94999 0.03971 0.98607 0.0
C395 C 0.96523 0.03872 0.99675 0.0
C396 C 0.94898 0.03377 0.96652 0.0
C397 C 0.97813 0.02703 0.96876 0.0
C398 C 0.96274 0.02701 0.95806 0.0
C399 C 0.03566 0.0478 0.05695 0.0
C400 C 0.99647 0.03672 -0.00043 0.0
C401 C 0.99272 0.95038 0.98104 0.0
C402 C 0.99088 0.94957 -0.00035 0.0
C403 C 0.05067 0.01254 0.03604 0.0
C404 C 0.11814 0.04137 0.04443 0.0
C405 C 0.1318 0.03404 0.03644 0.0
C406 C 0.14724 0.03429 0.04742 0.0
C407 C 0.14926 0.04293 0.06643 0.0
C408 C 0.12017 0.04974 0.06342 0.0
C409 C 0.1358 0.05077 0.07432 0.0
C410 C 0.06074 0.02647 0.98538 0.0
C411 C 0.10138 0.03806 0.03289 0.0
H412 H 0.96644 0.043 0.01179 0.0
H413 H 0.93792 0.03489 0.95751 0.0
H414 H 0.98906 0.02292 0.96178 0.0
H415 H 0.96181 0.02256 0.94306 0.0
H416 H 0.1301 0.02756 0.02173 0.0
H417 H 0.16091 0.04306 0.07534 0.0
H418 H 0.1096 0.05497 0.06995 0.0
H419 H 0.13726 0.05712 0.08901 0.0
Eu420 Eu 0.30523 0.77688 0.24822 0.0
C421 C 0.27747 0.8347 0.31287 0.0
C422 C 0.30399 0.85073 0.33345 0.0
C423 C 0.27703 0.86245 0.33654 0.0
C424 C 0.29507 0.83601 0.31871 0.0
C425 C 0.26825 0.84793 0.32175 0.0
C426 C 0.29486 0.86385 0.34238 0.0
C427 C 0.24197 0.83089 0.30148 0.0
N428 N 0.26927 0.82035 0.2987 0.0
C429 C 0.25159 0.81805 0.29326 0.0
C430 C 0.25034 0.84592 0.31579 0.0
Eu431 Eu 0.28453 0.79581 0.29028 0.0
N432 N 0.30351 0.82299 0.30989 0.0
C433 C 0.32126 0.82474 0.31449 0.0
C434 C 0.32177 0.8517 0.33897 0.0
C435 C 0.33049 0.8388 0.32926 0.0
H436 H 0.24458 0.80578 0.28307 0.0
H437 H 0.34429 0.83944 0.3333 0.0
H438 H 0.30149 0.87514 0.35382 0.0
H439 H 0.22799 0.82889 0.29711 0.0
H440 H 0.32856 0.81531 0.30709 0.0
H441 H 0.24425 0.72839 0.21069 0.0
H442 H 0.32886 0.86238 0.35063 0.0
H443 H 0.346 0.76898 0.25339 0.0
H444 H 0.26093 0.75537 0.23386 0.0
H445 H 0.36305 0.74634 0.23917 0.0
H446 H 0.27013 0.87263 0.34361 0.0
H447 H 0.25954 0.70522 0.19383 0.0
H448 H 0.28784 0.6946 0.1884 0.0
H449 H 0.24278 0.85569 0.32235 0.0
H450 H 0.32 0.69929 0.19628 0.0
N451 N 0.28625 0.74851 0.23012 0.0
C452 C 0.26818 0.74577 0.22665 0.0
C453 C 0.26713 0.71721 0.20401 0.0
C454 C 0.28546 0.71967 0.20792 0.0
C455 C 0.25846 0.73025 0.21353 0.0
C456 C 0.29474 0.73556 0.22129 0.0
H457 H 0.34802 0.71826 0.21541 0.0
N458 N 0.32112 0.75303 0.2393 0.0
C459 C 0.34886 0.74363 0.23553 0.0
C460 C 0.31274 0.73793 0.226 0.0
C461 C 0.33905 0.75621 0.24388 0.0
C462 C 0.34035 0.72788 0.22204 0.0
C463 C 0.32209 0.72486 0.21709 0.0
O464 O 0.32868 0.78857 0.23585 0.0
O465 O 0.30035 0.80183 0.26718 0.0
O466 O 0.27031 0.80317 0.26559 0.0
O467 O 0.27954 0.78547 0.23932 0.0
O468 O 0.32655 0.80191 0.26199 0.0
O469 O 0.30225 0.7852 0.22113 0.0
O470 O 0.25972 0.78406 0.30041 0.0
O471 O 0.29014 0.77128 0.27176 0.0
O472 O 0.32065 0.7706 0.27296 0.0
O473 O 0.30943 0.78565 0.29953 0.0
O474 O 0.26388 0.76995 0.27678 0.0
O475 O 0.28496 0.78811 0.31777 0.0
C476 C 0.31587 0.81163 0.26961 0.0
C477 C 0.32865 0.79662 0.20599 0.0
C478 C 0.33017 0.81463 0.18189 0.0
C479 C 0.32125 0.80778 0.19602 0.0
C480 C 0.34643 0.81023 0.17744 0.0
C481 C 0.34497 0.79218 0.20172 0.0
C482 C 0.3538 0.79894 0.18738 0.0
C483 C 0.26876 0.79573 0.24747 0.0
C484 C 0.31953 0.79008 0.22113 0.0
C485 C 0.31301 0.70937 0.20339 0.0
C486 C 0.29472 0.70674 0.19886 0.0
C487 C 0.27512 0.76062 0.26988 0.0
C488 C 0.25714 0.77601 0.33031 0.0
C489 C 0.26508 0.76823 0.3434 0.0
C490 C 0.25517 0.7613 0.35694 0.0
C491 C 0.23728 0.76231 0.35758 0.0
C492 C 0.23918 0.77692 0.33079 0.0
C493 C 0.22931 0.77013 0.34448 0.0
C494 C 0.32114 0.77659 0.29134 0.0
C495 C 0.26757 0.78295 0.3161 0.0
H496 H 0.30876 0.81144 0.19945 0.0
H497 H 0.35341 0.81565 0.16646 0.0
H498 H 0.35083 0.78349 0.20943 0.0
H499 H 0.36637 0.79555 0.18405 0.0
H500 H 0.27889 0.76729 0.34292 0.0
H501 H 0.2294 0.75664 0.36789 0.0
H502 H 0.23282 0.78293 0.32066 0.0
H503 H 0.21547 0.77076 0.34483 0.0
Eu504 Eu 0.56858 0.03719 0.51027 0.0
C505 C 0.50165 0.99795 0.54607 0.0
C506 C 0.48695 0.97238 0.52073 0.0
C507 C 0.48361 0.96913 0.55275 0.0
C508 C 0.49806 0.99057 0.52715 0.0
C509 C 0.4941 0.98749 0.55907 0.0
C510 C 0.48008 0.96158 0.53362 0.0
C511 C 0.50647 0.01474 0.58352 0.0
N512 N 0.51174 0.01576 0.55177 0.0
C513 C 0.5136 0.02457 0.57009 0.0
C514 C 0.49689 0.99603 0.57802 0.0
Eu515 Eu 0.5239 0.0314 0.52853 0.0
N516 N 0.50464 1.00151 0.51505 0.0
C517 C 0.49973 0.99536 0.49632 0.0
C518 C 0.48264 0.96577 0.50156 0.0
C519 C 0.48887 0.97743 0.48933 0.0
H520 H 0.52088 0.03911 0.57427 0.0
H521 H 0.48541 0.97258 0.47447 0.0
H522 H 0.47164 0.94756 0.52893 0.0
H523 H 0.50833 0.02163 0.59809 0.0
H524 H 0.50443 0.00377 0.48638 0.0
H525 H 0.60528 0.09521 0.56578 0.0
H526 H 0.4742 0.95189 0.49609 0.0
H527 H 0.57147 0.03072 0.46451 0.0
H528 H 0.58659 0.06382 0.55281 0.0
H529 H 0.58518 0.04854 0.44143 0.0
H530 H 0.47783 0.96083 0.56254 0.0
H531 H 0.61749 0.11634 0.54487 0.0
H532 H 0.62144 0.12115 0.51229 0.0
H533 H 0.49131 0.98847 0.58843 0.0
H534 H 0.61615 0.10845 0.47851 0.0
N535 N 0.58737 0.06694 0.52448 0.0
C536 C 0.59165 0.07269 0.54332 0.0
C537 C 0.60915 0.1025 0.539 0.0
C538 C 0.60554 0.09618 0.5197 0.0
C539 C 0.60232 0.09061 0.55084 0.0
C540 C 0.59448 0.07808 0.51276 0.0
H541 H 0.60288 0.08133 0.452 0.0
N542 N 0.58098 0.05343 0.48756 0.0
C543 C 0.58689 0.05509 0.45609 0.0
C544 C 0.59128 0.07106 0.49374 0.0
C545 C 0.57916 0.04506 0.46912 0.0
C546 C 0.59686 0.0736 0.46211 0.0
C547 C 0.59934 0.08175 0.48115 0.0
O548 O 0.57981 0.01425 0.49654 0.0
O549 O 0.54416 0.01728 0.51513 0.0
O550 O 0.53992 0.01967 0.54717 0.0
O551 O 0.5683 0.03391 0.54018 0.0
O552 O 0.55391 0.01069 0.48968 0.0
O553 O 0.59364 0.03234 0.522 0.0
O554 O 0.51348 0.05524 0.54159 0.0
O555 O 0.54825 0.05158 0.52332 0.0
O556 O 0.55154 0.04775 0.49088 0.0
O557 O 0.52417 0.03216 0.49846 0.0
O558 O 0.53922 0.05737 0.54923 0.0
O559 O 0.49878 0.03625 0.51713 0.0
C560 C 0.54214 0.00476 0.50043 0.0
C561 C 0.61036 0.01508 0.50142 0.0
C562 C 0.63488 0.99899 0.50096 0.0
C563 C 0.62024 0.00413 0.50946 0.0
C564 C 0.63966 0.00497 0.48451 0.0
C565 C 0.61552 0.02115 0.48509 0.0
C566 C 0.6301 0.0161 0.4767 0.0
C567 C 0.55735 0.02432 0.5501 0.0
C568 C 0.59349 0.01778 0.50878 0.0
C569 C 0.60996 0.09997 0.48797 0.0
C570 C 0.61299 0.1072 0.50721 0.0
C571 C 0.55044 0.06389 0.53821 0.0
C572 C 0.48296 0.05421 0.53785 0.0
C573 C 0.47292 0.06517 0.53017 0.0
C574 C 0.45801 0.06955 0.53862 0.0
C575 C 0.45337 0.06311 0.55493 0.0
C576 C 0.47811 0.04785 0.55413 0.0
C577 C 0.46342 0.05236 0.56265 0.0
C578 C 0.53407 0.04194 0.48801 0.0
C579 C 0.49944 0.05134 0.52984 0.0
H580 H 0.61619 0.99907 0.52189 0.0
H581 H 0.6508 1.00098 0.47769 0.0
H582 H 0.60801 0.02937 0.47855 0.0
H583 H 0.63384 0.02061 0.46397 0.0
H584 H 0.47674 0.07034 0.51773 0.0
H585 H 0.44206 0.06657 0.5618 0.0
H586 H 0.48583 0.03968 0.56043 0.0
H587 H 0.45986 0.04761 0.57532 0.0
Eu588 Eu 0.27477 0.29158 0.76833 0.0
C589 C 0.33837 0.26648 0.80231 0.0
C590 C 0.35194 0.29449 0.82553 0.0
C591 C 0.35567 0.26386 0.82997 0.0
C592 C 0.34143 0.28579 0.80853 0.0
C593 C 0.34568 0.25533 0.81286 0.0
C594 C 0.35897 0.28341 0.83617 0.0
C595 C 0.33513 0.22854 0.78756 0.0
N596 N 0.32939 0.25875 0.78532 0.0
C597 C 0.32856 0.24026 0.77745 0.0
C598 C 0.34352 0.23607 0.80547 0.0
Eu599 Eu 0.31846 0.27913 0.76854 0.0
N600 N 0.33518 0.29619 0.79745 0.0
C601 C 0.33962 0.31554 0.80249 0.0
C602 C 0.3557 0.31415 0.83101 0.0
C603 C 0.3496 0.32471 0.81937 0.0
H604 H 0.32259 0.23449 0.76333 0.0
H605 H 0.35261 0.33997 0.82334 0.0
H606 H 0.36752 0.28987 0.84886 0.0
H607 H 0.33395 0.2138 0.78142 0.0
H608 H 0.33514 0.32432 0.79409 0.0
H609 H 0.23333 0.2292 0.72003 0.0
H610 H 0.36361 0.32131 0.84399 0.0
H611 H 0.27081 0.33601 0.77105 0.0
H612 H 0.25292 0.24579 0.74752 0.0
H613 H 0.26064 0.35583 0.75109 0.0
H614 H 0.36148 0.25554 0.83819 0.0
H615 H 0.22496 0.24645 0.69655 0.0
H616 H 0.22621 0.27724 0.68685 0.0
H617 H 0.34891 0.22705 0.81317 0.0
H618 H 0.23406 0.31192 0.69511 0.0
N619 N 0.25648 0.27324 0.7407 0.0
C620 C 0.24982 0.25408 0.73786 0.0
C621 C 0.23372 0.25408 0.70884 0.0
C622 C 0.23992 0.27366 0.71197 0.0
C623 C 0.23836 0.24432 0.72208 0.0
C624 C 0.25108 0.283 0.72842 0.0
H625 H 0.24653 0.34132 0.7192 0.0
N626 N 0.26399 0.31089 0.7501 0.0
C627 C 0.25921 0.34087 0.74576 0.0
C628 C 0.2552 0.30246 0.73318 0.0
C629 C 0.26505 0.32963 0.75696 0.0
C630 C 0.2513 0.33264 0.72777 0.0
C631 C 0.24869 0.31313 0.72148 0.0
O632 O 0.26141 0.30689 0.78967 0.0
O633 O 0.29735 0.28729 0.7863 0.0
O634 O 0.29897 0.25236 0.77342 0.0
O635 O 0.27167 0.26095 0.77303 0.0
O636 O 0.28936 0.31274 0.79304 0.0
O637 O 0.2498 0.27769 0.77833 0.0
O638 O 0.33207 0.26501 0.74662 0.0
O639 O 0.2961 0.28398 0.75075 0.0
O640 O 0.29475 0.31811 0.76287 0.0
O641 O 0.3223 0.31002 0.76459 0.0
O642 O 0.30351 0.25877 0.7431 0.0
O643 O 0.3442 0.29344 0.76043 0.0
C644 C 0.29938 0.30249 0.7984 0.0
C645 C 0.23031 0.29675 0.79192 0.0
C646 C 0.20234 0.29406 0.80711 0.0
C647 C 0.21886 0.28895 0.80445 0.0
C648 C 0.19761 0.30709 0.79729 0.0
C649 C 0.22499 0.3096 0.78224 0.0
C650 C 0.20883 0.31477 0.785 0.0
C651 C 0.28139 0.24826 0.77406 0.0
C652 C 0.2483 0.29269 0.79006 0.0
C653 C 0.23894 0.30393 0.70438 0.0
C654 C 0.23448 0.2842 0.69967 0.0
C655 C 0.29391 0.26946 0.7378 0.0
C656 C 0.36337 0.27467 0.74561 0.0
C657 C 0.37482 0.28235 0.73304 0.0
C658 C 0.39126 0.27709 0.73036 0.0
C659 C 0.39584 0.26394 0.74014 0.0
C660 C 0.36852 0.2617 0.75522 0.0
C661 C 0.38456 0.2563 0.75239 0.0
C662 C 0.31248 0.32249 0.7629 0.0
C663 C 0.3456 0.27916 0.74765 0.0
H664 H 0.22283 0.27915 0.81218 0.0
H665 H 0.18517 0.31141 0.79922 0.0
H666 H 0.23345 0.31588 0.77272 0.0
H667 H 0.205 0.32487 0.77761 0.0
H668 H 0.371 0.29231 0.72543 0.0
H669 H 0.40824 0.25953 0.73825 0.0
H670 H 0.36007 0.25557 0.7648 0.0
H671 H 0.38829 0.24613 0.75975 0.0
Eu672 Eu 0.04411 0.05674 0.52734 0.0
C673 C 0.06157 0.99458 0.46737 0.0
C674 C 0.03351 0.98398 0.44807 0.0
C675 C 0.06075 0.97932 0.43479 0.0
C676 C 0.04336 0.99276 0.4654 0.0
C677 C 0.07042 0.98752 0.45216 0.0
C678 C 0.04234 0.97759 0.43274 0.0
C679 C 0.09746 0.9955 0.47279 0.0
N680 N 0.07051 0.00222 0.48439 0.0
C681 C 0.08809 0.00209 0.48745 0.0
C682 C 0.08863 0.98835 0.455 0.0
Eu683 Eu 0.05394 0.01271 0.50896 0.0
N684 N 0.03515 0.99863 0.48062 0.0
C685 C 0.01693 0.99523 0.47945 0.0
C686 C 0.01501 0.98134 0.44674 0.0
C687 C 0.00669 0.98685 0.46255 0.0
H688 H 0.09491 0.00729 0.50129 0.0
H689 H 0.99236 0.98468 0.46175 0.0
H690 H 0.03499 0.97087 0.41935 0.0
H691 H 0.11145 0.99577 0.47525 0.0
H692 H 0.00992 0.99945 0.49122 0.0
H693 H 0.10553 0.08341 0.57493 0.0
H694 H 0.00701 0.97471 0.43369 0.0
H695 H 0.00315 0.06223 0.53472 0.0
H696 H 0.08804 0.06887 0.54538 0.0
H697 H 0.98667 0.07443 0.56053 0.0
H698 H 0.06733 0.97391 0.42295 0.0
H699 H 0.09089 0.09426 0.60274 0.0
H700 H 0.06298 0.09914 0.61671 0.0
H701 H 0.09587 0.98306 0.44369 0.0
H702 H 0.03074 0.09671 0.61286 0.0
N703 N 0.06286 0.07061 0.55569 0.0
C704 C 0.08105 0.07345 0.55705 0.0
C705 C 0.08292 0.08772 0.58965 0.0
C706 C 0.06446 0.08563 0.58813 0.0
C707 C 0.09124 0.0817 0.574 0.0
C708 C 0.05465 0.07687 0.57077 0.0
H709 H 0.00226 0.08762 0.59202 0.0
N710 N 0.02749 0.06741 0.55172 0.0
C711 C 0.00062 0.07459 0.56308 0.0
C712 C 0.03646 0.07529 0.56869 0.0
C713 C 0.00994 0.06758 0.54856 0.0
C714 C 0.00947 0.08203 0.58082 0.0
C715 C 0.02765 0.08269 0.58377 0.0
O716 O 0.02985 0.07323 0.51338 0.0
O717 O 0.04527 0.03722 0.49985 0.0
O718 O 0.07696 0.03365 0.50117 0.0
O719 O 0.07148 0.06193 0.51677 0.0
O720 O 0.02144 0.04493 0.50449 0.0
O721 O 0.0569 0.08586 0.52539 0.0
O722 O 0.06843 0.99529 0.52136 0.0
O723 O 0.05286 0.03212 0.53662 0.0
O724 O 0.02122 0.03603 0.53548 0.0
O725 O 0.0266 0.00777 0.51971 0.0
O726 O 0.07655 0.02436 0.53164 0.0
O727 O 0.04036 0.98438 0.51223 0.0
C728 C 0.02999 0.03689 0.49191 0.0
C729 C 0.03849 0.10627 0.51813 0.0
C730 C 0.04141 0.13585 0.50745 0.0
C731 C 0.04724 0.11928 0.50813 0.0
C732 C 0.02673 0.13927 0.51702 0.0
C733 C 0.02397 0.10994 0.52772 0.0
C734 C 0.01815 0.12642 0.52716 0.0
C735 C 0.08153 0.05218 0.50697 0.0
C736 C 0.04304 0.08786 0.51578 0.0
C737 C 0.0373 0.09101 0.60112 0.0
C738 C 0.05565 0.09242 0.60331 0.0
C739 C 0.0681 0.03209 0.54453 0.0
C740 C 0.05766 0.96245 0.5176 0.0
C741 C 0.0494 0.95056 0.52891 0.0
C742 C 0.05409 0.93339 0.52909 0.0
C743 C 0.06685 0.92791 0.51767 0.0
C744 C 0.07032 0.95688 0.50605 0.0
C745 C 0.07483 0.93958 0.50607 0.0
C746 C 0.01661 0.01753 0.52962 0.0
C747 C 0.05461 0.9815 0.52034 0.0
H748 H 0.05836 0.11629 0.50058 0.0
H749 H 0.02167 0.15173 0.5164 0.0
H750 H 0.01681 0.09989 0.53517 0.0
H751 H 0.00676 0.12907 0.53433 0.0
H752 H 0.03987 0.955 0.53813 0.0
H753 H 0.07065 0.91467 0.51782 0.0
H754 H 0.07699 0.96605 0.49743 0.0
H755 H 0.08474 0.93537 0.49734 0.0
Eu756 Eu 0.31805 0.79976 0.76174 0.0
C757 C 0.26836 0.74001 0.79561 0.0
C758 C 0.27188 0.7107 0.77661 0.0
C759 C 0.26196 0.71094 0.8075 0.0
C760 C 0.27292 0.73033 0.77918 0.0
C761 C 0.26248 0.73032 0.8098 0.0
C762 C 0.26666 0.70117 0.79095 0.0
C763 C 0.25621 0.75915 0.82671 0.0
N764 N 0.26857 0.75863 0.7973 0.0
C765 C 0.26188 0.76805 0.81216 0.0
C766 C 0.2567 0.74024 0.82561 0.0
Eu767 Eu 0.27749 0.77274 0.77192 0.0
N768 N 0.27744 0.73983 0.76535 0.0
C769 C 0.28038 0.73016 0.74835 0.0
C770 C 0.27555 0.70105 0.7595 0.0
C771 C 0.27967 0.71081 0.74527 0.0
H772 H 0.26086 0.78246 0.81267 0.0
H773 H 0.28235 0.70346 0.73188 0.0
H774 H 0.26583 0.68613 0.78921 0.0
H775 H 0.25123 0.76678 0.8386 0.0
H776 H 0.28382 0.7371 0.737 0.0
H777 H 0.31389 0.86886 0.80257 0.0
H778 H 0.27491 0.686 0.75702 0.0
H779 H 0.33186 0.78929 0.71949 0.0
H780 H 0.31247 0.83517 0.79729 0.0
H781 H 0.34154 0.80531 0.69377 0.0
H782 H 0.25753 0.70329 0.81826 0.0
H783 H 0.32199 0.88666 0.77783 0.0
H784 H 0.33175 0.88681 0.74593 0.0
H785 H 0.25207 0.73327 0.83678 0.0
H786 H 0.33844 0.86958 0.71614 0.0
N787 N 0.31892 0.83275 0.76899 0.0
C788 C 0.31603 0.84228 0.78606 0.0
C789 C 0.32127 0.8716 0.77522 0.0
C790 C 0.32485 0.86203 0.75803 0.0
C791 C 0.31688 0.86166 0.78928 0.0
C792 C 0.32342 0.84233 0.7552 0.0
H793 H 0.34217 0.83929 0.69662 0.0
N794 N 0.32645 0.8138 0.73624 0.0
C795 C 0.33749 0.81313 0.70619 0.0
C796 C 0.32735 0.83261 0.73841 0.0
C797 C 0.33201 0.80411 0.72073 0.0
C798 C 0.33779 0.83229 0.70784 0.0
C799 C 0.33295 0.84234 0.72418 0.0
O800 O 0.34288 0.79176 0.75602 0.0
O801 O 0.30681 0.77233 0.77113 0.0
O802 O 0.2937 0.78108 0.79933 0.0
O803 O 0.31615 0.80469 0.79264 0.0
O804 O 0.32095 0.77012 0.74819 0.0
O805 O 0.34253 0.81436 0.77971 0.0
O806 O 0.25163 0.77927 0.7753 0.0
O807 O 0.28881 0.80045 0.7633 0.0
O808 O 0.3004 0.79386 0.73512 0.0
O809 O 0.28135 0.76787 0.74158 0.0
O810 O 0.27365 0.80206 0.78535 0.0
O811 O 0.25457 0.75747 0.75214 0.0
C812 C 0.31388 0.7608 0.76023 0.0
C813 C 0.37051 0.81225 0.76796 0.0
C814 C 0.40116 0.81997 0.78134 0.0
C815 C 0.38295 0.81511 0.78329 0.0
C816 C 0.40691 0.82233 0.76389 0.0
C817 C 0.37632 0.81458 0.75053 0.0
C818 C 0.3945 0.81969 0.74858 0.0
C819 C 0.30737 0.79551 0.80426 0.0
C820 C 0.352 0.80399 0.77015 0.0
C821 C 0.33412 0.86186 0.72689 0.0
C822 C 0.33018 0.87167 0.74381 0.0
C823 C 0.28158 0.81191 0.77414 0.0
C824 C 0.22586 0.75644 0.76239 0.0
C825 C 0.21239 0.75729 0.74941 0.0
C826 C 0.1946 0.75062 0.75208 0.0
C827 C 0.19028 0.74247 0.76754 0.0
C828 C 0.22157 0.74802 0.77768 0.0
C829 C 0.20377 0.74096 0.78017 0.0
C830 C 0.28776 0.77847 0.72992 0.0
C831 C 0.24381 0.76674 0.76074 0.0
H832 H 0.37846 0.81287 0.79664 0.0
H833 H 0.42097 0.8257 0.76201 0.0
H834 H 0.36691 0.81196 0.7384 0.0
H835 H 0.399 0.82119 0.73509 0.0
H836 H 0.2157 0.76414 0.73778 0.0
H837 H 0.1765 0.73738 0.76984 0.0
H838 H 0.23185 0.74731 0.78787 0.0
H839 H 0.20042 0.73471 0.79209 0.0
Eu840 Eu 0.5541 0.03563 0.0427 0.0
C841 C 0.5016 0.04402 0.97531 0.0
C842 C 0.48332 0.01345 0.9602 0.0
C843 C 0.47243 0.04171 0.95954 0.0
C844 C 0.49928 0.02453 0.97056 0.0
C845 C 0.48836 0.05278 0.96937 0.0
C846 C 0.46988 0.02209 0.95506 0.0
C847 C 0.50802 0.08309 0.98182 0.0
N848 N 0.5171 0.05455 0.98482 0.0
C849 C 0.52071 0.07388 0.98739 0.0
C850 C 0.49167 0.0725 0.97297 0.0
Eu851 Eu 0.53845 0.03795 0.99327 0.0
N852 N 0.5127 0.01646 0.97536 0.0
C853 C 0.51102 0.99742 0.96915 0.0
C854 C 0.48142 0.99397 0.95484 0.0
C855 C 0.49541 0.98599 0.95916 0.0
H856 H 0.53333 0.08238 0.99421 0.0
H857 H 0.49423 0.97095 0.95468 0.0
H858 H 0.4576 0.01374 0.9472 0.0
H859 H 0.5109 0.09837 0.98431 0.0
H860 H 0.52139 0.99045 0.97171 0.0
H861 H 0.6035 0.10003 0.0763 0.0
H862 H 0.46939 0.98505 0.94696 0.0
H863 H 0.55419 0.99143 0.04758 0.0
H864 H 0.57475 0.08148 0.0612 0.0
H865 H 0.57538 0.9732 0.05673 0.0
H866 H 0.46212 0.04821 0.95503 0.0
H867 H 0.62755 0.08417 0.08249 0.0
H868 H 0.63746 0.05411 0.08166 0.0
H869 H 0.48187 0.07968 0.96856 0.0
H870 H 0.62996 0.01944 0.07582 0.0
N871 N 0.5822 0.05498 0.05695 0.0
C872 C 0.58511 0.0742 0.06278 0.0
C873 C 0.61492 0.07587 0.07537 0.0
C874 C 0.61169 0.05619 0.07038 0.0
C875 C 0.60143 0.08487 0.07185 0.0
C876 C 0.5949 0.04596 0.06129 0.0
H877 H 0.60681 0.9892 0.06677 0.0
N878 N 0.57381 0.01709 0.05093 0.0
C879 C 0.57991 0.98813 0.05693 0.0
C880 C 0.59064 0.02643 0.05801 0.0
C881 C 0.568 0.99845 0.05165 0.0
C882 C 0.59766 0.99719 0.06252 0.0
C883 C 0.60309 0.01667 0.06374 0.0
O884 O 0.53199 0.02928 0.05966 0.0
O885 O 0.5323 0.0322 0.02089 0.0
O886 O 0.52938 0.05832 0.01507 0.0
O887 O 0.5528 0.06477 0.03779 0.0
O888 O 0.53004 0.01097 0.03652 0.0
O889 O 0.55519 0.05028 0.0718 0.0
O890 O 0.55445 0.06237 0.98467 0.0
O891 O 0.5593 0.04668 0.01717 0.0
O892 O 0.56073 0.01166 0.0219 0.0
O893 O 0.54132 0.0088 0.99499 0.0
O894 O 0.56702 0.03554 0.99122 0.0
O895 O 0.54746 0.03453 0.96563 0.0
C896 C 0.52272 0.01724 0.02344 0.0
C897 C 0.54013 0.03079 0.09058 0.0
C898 C 0.5235 0.02027 0.11499 0.0
C899 C 0.52665 0.03205 0.1022 0.0
C900 C 0.53398 0.00719 0.11632 0.0
C901 C 0.5512 0.01833 0.09241 0.0
C902 C 0.54801 0.00642 0.10516 0.0
C903 C 0.53918 0.06938 0.02972 0.0
C904 C 0.54023 0.04009 0.07478 0.0
C905 C 0.6202 0.02674 0.07155 0.0
C906 C 0.62447 0.04648 0.07492 0.0
C907 C 0.57197 0.04307 0.00846 0.0
C908 C 0.55805 0.06115 0.95236 0.0
C909 C 0.56665 0.05271 0.93801 0.0
C910 C 0.57096 0.06135 0.92303 0.0
C911 C 0.56614 0.07847 0.92219 0.0
C912 C 0.55347 0.07838 0.95173 0.0
C913 C 0.55741 0.08692 0.93652 0.0
C914 C 0.55304 0.00297 0.00492 0.0
C915 C 0.55603 0.05228 0.96843 0.0
H916 H 0.518 0.04156 0.10068 0.0
H917 H 0.53148 0.99788 0.12614 0.0
H918 H 0.56201 0.01759 0.08385 0.0
H919 H 0.5563 0.99652 0.10626 0.0
H920 H 0.57054 0.03959 0.93879 0.0
H921 H 0.56964 0.08558 0.91081 0.0
H922 H 0.5472 0.08535 0.96298 0.0
H923 H 0.55402 0.10028 0.93602 0.0
Eu924 Eu 0.30623 0.30549 0.27505 0.0
C925 C 0.24007 0.23784 0.24141 0.0
C926 C 0.22451 0.22909 0.26747 0.0
C927 C 0.20923 0.21976 0.23636 0.0
C928 C 0.24003 0.23815 0.26038 0.0
C929 C 0.22467 0.22832 0.22922 0.0
C930 C 0.2092 0.22001 0.2554 0.0
C931 C 0.2417 0.23292 0.20324 0.0
N932 N 0.25548 0.24522 0.23463 0.0
C933 C 0.25666 0.24157 0.21576 0.0
C934 C 0.22553 0.2265 0.21001 0.0
Eu935 Eu 0.28149 0.25557 0.25615 0.0
N936 N 0.25534 0.24616 0.27171 0.0
C937 C 0.25538 0.24616 0.29042 0.0
C938 C 0.22494 0.22873 0.28642 0.0
C939 C 0.24033 0.2376 0.29797 0.0
H940 H 0.26937 0.24484 0.21025 0.0
H941 H 0.24075 0.23759 0.31274 0.0
H942 H 0.19738 0.21272 0.2606 0.0
H943 H 0.24283 0.23058 0.18838 0.0
H944 H 0.26674 0.25271 0.30007 0.0
H945 H 0.34722 0.33405 0.22275 0.0
H946 H 0.21358 0.22143 0.29228 0.0
H947 H 0.31755 0.31209 0.32143 0.0
H948 H 0.3207 0.31773 0.23345 0.0
H949 H 0.34342 0.32643 0.34406 0.0
H950 H 0.19742 0.21231 0.22718 0.0
H951 H 0.37484 0.34607 0.24356 0.0
H952 H 0.38975 0.35294 0.27542 0.0
H953 H 0.21405 0.21924 0.20027 0.0
H954 H 0.38916 0.35009 0.30801 0.0
N955 N 0.33228 0.31874 0.26107 0.0
C956 C 0.33223 0.32216 0.24327 0.0
C957 C 0.3631 0.33837 0.24858 0.0
C958 C 0.36311 0.33592 0.26695 0.0
C959 C 0.34757 0.33158 0.23679 0.0
C960 C 0.34745 0.32569 0.27291 0.0
H961 H 0.37214 0.34029 0.33354 0.0
N962 N 0.33169 0.31548 0.29747 0.0
C963 C 0.34478 0.32558 0.32934 0.0
C964 C 0.3471 0.32412 0.29152 0.0
C965 C 0.33018 0.3172 0.3163 0.0
C966 C 0.36093 0.33337 0.32334 0.0
C967 C 0.36217 0.33317 0.30438 0.0
O968 O 0.29686 0.3212 0.29924 0.0
O969 O 0.28205 0.28247 0.27513 0.0
O970 O 0.27696 0.27395 0.23505 0.0
O971 O 0.29693 0.30329 0.24531 0.0
O972 O 0.27789 0.30812 0.27062 0.0
O973 O 0.30735 0.33533 0.27659 0.0
O974 O 0.28976 0.23724 0.23281 0.0
O975 O 0.30561 0.27849 0.25602 0.0
O976 O 0.31263 0.28644 0.29417 0.0
O977 O 0.29165 0.25755 0.28589 0.0
O978 O 0.30971 0.25222 0.2591 0.0
O979 O 0.27854 0.22594 0.25678 0.0
C980 C 0.27046 0.29127 0.27217 0.0
C981 C 0.29823 0.35456 0.30315 0.0
C982 C 0.2874 0.38269 0.30234 0.0
C983 C 0.29235 0.36657 0.2931 0.0
C984 C 0.28973 0.3875 0.32193 0.0
C985 C 0.30044 0.35921 0.32266 0.0
C986 C 0.29645 0.37587 0.33201 0.0
C987 C 0.28489 0.29115 0.23298 0.0
C988 C 0.30112 0.33681 0.29298 0.0
C989 C 0.37764 0.34295 0.29828 0.0
C990 C 0.37804 0.34444 0.27967 0.0
C991 C 0.31706 0.26922 0.25801 0.0
C992 C 0.28649 0.20395 0.23207 0.0
C993 C 0.29666 0.19525 0.24226 0.0
C994 C 0.29953 0.17769 0.23434 0.0
C995 C 0.29186 0.16845 0.21639 0.0
C996 C 0.27888 0.19498 0.21402 0.0
C997 C 0.28144 0.1771 0.20627 0.0
C998 C 0.30426 0.26999 0.29735 0.0
C999 C 0.28437 0.22259 0.24031 0.0
H1000 H 0.29099 0.36292 0.27799 0.0
H1001 H 0.28588 0.39985 0.32945 0.0
H1002 H 0.30516 0.34999 0.3306 0.0
H1003 H 0.29812 0.37951 0.34708 0.0
H1004 H 0.30276 0.20236 0.25614 0.0
H1005 H 0.2941 0.15473 0.21024 0.0
H1006 H 0.27096 0.20174 0.20604 0.0
H1007 H 0.27554 0.17006 0.19238 0.0
Eu1008 Eu 0.54419 0.55676 0.02833 0.0
C1009 C 0.56183 0.49489 0.96741 0.0
C1010 C 0.53385 0.48403 0.94798 0.0
C1011 C 0.56124 0.47969 0.93485 0.0
C1012 C 0.54358 0.49284 0.96537 0.0
C1013 C 0.57081 0.48802 0.95225 0.0
C1014 C 0.54281 0.47774 0.93272 0.0
C1015 C 0.59792 0.49681 0.97287 0.0
N1016 N 0.57072 0.50278 0.98442 0.0
C1017 C 0.58843 0.50328 0.98749 0.0
C1018 C 0.58911 0.48928 0.95513 0.0
Eu1019 Eu 0.55393 0.51288 0.00888 0.0
N1020 N 0.53525 0.4987 0.9805 0.0
C1021 C 0.51703 0.49542 0.97915 0.0
C1022 C 0.51535 0.48139 0.94649 0.0
C1023 C 0.50692 0.48701 0.96218 0.0
H1024 H 0.59528 0.50898 0.00126 0.0
H1025 H 0.4926 0.48503 0.9612 0.0
H1026 H 0.53555 0.47102 0.91929 0.0
H1027 H 0.612 0.49754 0.97533 0.0
H1028 H 0.50994 0.49978 0.99079 0.0
H1029 H 0.6042 0.58256 0.07818 0.0
H1030 H 0.50745 0.47479 0.93338 0.0
H1031 H 0.50289 0.56171 0.03438 0.0
H1032 H 0.58749 0.56737 0.04846 0.0
H1033 H 0.48572 0.57434 0.05931 0.0
H1034 H 0.56793 0.47443 0.92304 0.0
H1035 H 0.5889 0.59466 0.10498 0.0
H1036 H 0.5607 0.60036 0.11763 0.0
H1037 H 0.59646 0.48414 0.94384 0.0
H1038 H 0.52856 0.59806 0.11259 0.0
N1039 N 0.56207 0.57033 0.05739 0.0
C1040 C 0.58021 0.57263 0.05955 0.0
C1041 C 0.58127 0.58792 0.09174 0.0
C1042 C 0.56289 0.58615 0.08948 0.0
C1043 C 0.58995 0.58118 0.07667 0.0
C1044 C 0.55352 0.57716 0.07194 0.0
H1045 H 0.50056 0.58839 0.09099 0.0
N1046 N 0.52689 0.56751 0.05206 0.0
C1047 C 0.49965 0.57469 0.06233 0.0
C1048 C 0.53541 0.57572 0.06918 0.0
C1049 C 0.50937 0.56745 0.0483 0.0
C1050 C 0.50808 0.58261 0.08018 0.0
C1051 C 0.52621 0.58342 0.08375 0.0
O1052 O 0.53069 0.57435 0.01502 0.0
O1053 O 0.5453 0.53766 0.00062 0.0
O1054 O 0.57583 0.53442 -0.00012 0.0
O1055 O 0.5722 0.56153 0.01946 0.0
O1056 O 0.5217 0.54576 0.00501 0.0
O1057 O 0.55841 0.58512 0.0257 0.0
O1058 O 0.56885 0.49561 0.02095 0.0
O1059 O 0.55278 0.53178 0.03682 0.0
O1060 O 0.52125 0.5358 0.03596 0.0
O1061 O 0.5264 0.50771 0.01932 0.0
O1062 O 0.57653 0.52427 0.03162 0.0
O1063 O 0.54063 0.48454 0.01238 0.0
C1064 C 0.53018 0.53751 0.99251 0.0
C1065 C 0.54156 0.60714 0.01933 0.0
C1066 C 0.54473 0.63583 0.00725 0.0
C1067 C 0.54964 0.61883 0.00776 0.0
C1068 C 0.53189 0.64132 0.01855 0.0
C1069 C 0.52885 0.61274 0.03079 0.0
C1070 C 0.5241 0.62986 0.03042 0.0
C1071 C 0.58145 0.55248 0.00782 0.0
C1072 C 0.54464 0.58811 0.01676 0.0
C1073 C 0.53542 0.5921 0.10125 0.0
C1074 C 0.55372 0.59343 0.10412 0.0
C1075 C 0.56798 0.53161 0.04465 0.0
C1076 C 0.55814 0.4628 0.01791 0.0
C1077 C 0.54953 0.45088 0.02903 0.0
C1078 C 0.55347 0.43326 0.0287 0.0
C1079 C 0.56614 0.42759 0.0172 0.0
C1080 C 0.57085 0.45712 0.0065 0.0
C1081 C 0.57482 0.43953 0.0062 0.0
C1082 C 0.51653 0.51738 0.02956 0.0
C1083 C 0.55508 0.48183 0.02033 0.0
H1084 H 0.55915 0.61433 0.99854 0.0
H1085 H 0.52786 0.65439 0.01809 0.0
H1086 H 0.5223 0.60371 0.03958 0.0
H1087 H 0.51413 0.63408 0.03906 0.0
H1088 H 0.53995 0.45542 0.03813 0.0
H1089 H 0.56946 0.41405 0.01694 0.0
H1090 H 0.57788 0.46637 0.99814 0.0
H1091 H 0.58474 0.43521 0.99754 0.0
Eu1092 Eu 0.81898 0.30059 0.26224 0.0
C1093 C 0.76883 0.24012 0.29368 0.0
C1094 C 0.77329 0.21137 0.2744 0.0
C1095 C 0.76274 0.2107 0.30494 0.0
C1096 C 0.77379 0.23089 0.2772 0.0
C1097 C 0.76283 0.23 0.30752 0.0
C1098 C 0.76805 0.20144 0.28847 0.0
C1099 C 0.75606 0.25838 0.32485 0.0
N1100 N 0.76896 0.25875 0.29581 0.0
C1101 C 0.76213 0.26781 0.31077 0.0
C1102 C 0.7566 0.23944 0.32333 0.0
Eu1103 Eu 0.77821 0.27349 0.27098 0.0
N1104 N 0.77827 0.24073 0.2636 0.0
C1105 C 0.78161 0.23155 0.24656 0.0
C1106 C 0.77762 0.20224 0.25735 0.0
C1107 C 0.78166 0.21236 0.24333 0.0
H1108 H 0.76157 0.28245 0.31188 0.0
H1109 H 0.78476 0.20537 0.22997 0.0
H1110 H 0.76764 0.18647 0.28655 0.0
H1111 H 0.75092 0.26572 0.33682 0.0
H1112 H 0.78481 0.23889 0.2354 0.0
H1113 H 0.81241 0.36727 0.3066 0.0
H1114 H 0.7775 0.18731 0.25473 0.0
H1115 H 0.83667 0.29428 0.22177 0.0
H1116 H 0.81124 0.33359 0.29911 0.0
H1117 H 0.84623 0.31208 0.19727 0.0
H1118 H 0.75828 0.20273 0.31547 0.0
H1119 H 0.82106 0.38709 0.28353 0.0
H1120 H 0.83089 0.38963 0.25202 0.0
H1121 H 0.75181 0.23212 0.3342 0.0
H1122 H 0.83947 0.3746 0.2221 0.0
N1123 N 0.81932 0.33342 0.27156 0.0
C1124 C 0.81536 0.34168 0.28871 0.0
C1125 C 0.8207 0.37212 0.28006 0.0
C1126 C 0.82513 0.36383 0.26272 0.0
C1127 C 0.81585 0.36099 0.29312 0.0
C1128 C 0.82436 0.34421 0.2588 0.0
H1129 H 0.84511 0.34576 0.20153 0.0
N1130 N 0.82853 0.31699 0.23858 0.0
C1131 C 0.84113 0.31885 0.20957 0.0
C1132 C 0.82894 0.33573 0.24181 0.0
C1133 C 0.83542 0.30871 0.22326 0.0
C1134 C 0.84053 0.33785 0.21206 0.0
C1135 C 0.83476 0.34664 0.2285 0.0
O1136 O 0.84327 0.2915 0.25659 0.0
O1137 O 0.80745 0.27262 0.27059 0.0
O1138 O 0.79427 0.28048 0.2988 0.0
O1139 O 0.81712 0.30394 0.29292 0.0
O1140 O 0.82163 0.27134 0.24764 0.0
O1141 O 0.84394 0.31493 0.2797 0.0
O1142 O 0.75323 0.28172 0.27495 0.0
O1143 O 0.78952 0.30133 0.26233 0.0
O1144 O 0.80308 0.29425 0.23475 0.0
O1145 O 0.781 0.26965 0.24013 0.0
O1146 O 0.77541 0.3027 0.2852 0.0
O1147 O 0.75387 0.25772 0.25311 0.0
C1148 C 0.81468 0.26149 0.25935 0.0
C1149 C 0.87145 0.31098 0.26752 0.0
C1150 C 0.90211 0.31783 0.28058 0.0
C1151 C 0.88395 0.31469 0.28293 0.0
C1152 C 0.90776 0.3177 0.26265 0.0
C1153 C 0.87721 0.31087 0.24964 0.0
C1154 C 0.89533 0.31436 0.24728 0.0
C1155 C 0.80838 0.29439 0.30428 0.0
C1156 C 0.85286 0.30382 0.27029 0.0
C1157 C 0.83515 0.36603 0.23221 0.0
C1158 C 0.83033 0.3746 0.24927 0.0
C1159 C 0.78202 0.31248 0.27329 0.0
C1160 C 0.7259 0.26018 0.26479 0.0
C1161 C 0.7129 0.2555 0.24969 0.0
C1162 C 0.69486 0.25068 0.25253 0.0
C1163 C 0.68988 0.2501 0.27061 0.0
C1164 C 0.72074 0.25972 0.28283 0.0
C1165 C 0.70281 0.25454 0.28567 0.0
C1166 C 0.7896 0.27975 0.22904 0.0
C1167 C 0.74418 0.2685 0.26161 0.0
H1168 H 0.87948 0.31437 0.29668 0.0
H1169 H 0.92174 0.31968 0.26045 0.0
H1170 H 0.86781 0.3074 0.23744 0.0
H1171 H 0.89972 0.31396 0.23346 0.0
H1172 H 0.71679 0.25643 0.23583 0.0
H1173 H 0.67598 0.24687 0.27318 0.0
H1174 H 0.73039 0.26401 0.29481 0.0
H1175 H 0.6989 0.25452 0.29963 0.0
Eu1176 Eu 0.05445 0.53245 0.5416 0.0
C1177 C 0.99812 0.54037 0.47718 0.0
C1178 C 0.98398 0.51049 0.45674 0.0
C1179 C 0.96913 0.53646 0.46021 0.0
C1180 C 0.99846 0.52192 0.46918 0.0
C1181 C 0.98371 0.54801 0.47205 0.0
C1182 C 0.96915 0.51767 0.4528 0.0
C1183 C 0.00043 0.57881 0.48761 0.0
N1184 N 0.01263 0.55146 0.48817 0.0
C1185 C 0.01438 0.57073 0.49211 0.0
C1186 C 0.98485 0.56734 0.47788 0.0
Eu1187 Eu 0.03687 0.53688 0.49328 0.0
N1188 N 0.0134 0.51559 0.47236 0.0
C1189 C 0.0152 0.49872 0.46206 0.0
C1190 C 0.98515 0.49244 0.44782 0.0
C1191 C 0.00096 0.48666 0.45025 0.0
H1192 H 0.02669 0.58025 0.49855 0.0
H1193 H 0.00238 0.47313 0.44262 0.0
H1194 H 0.95797 0.50908 0.4433 0.0
H1195 H 0.00192 0.59397 0.49124 0.0
H1196 H 0.02771 0.49449 0.46261 0.0
H1197 H 0.09366 0.59957 0.58469 0.0
H1198 H 0.97428 0.48325 0.4383 0.0
H1199 H 0.06332 0.489 0.53914 0.0
H1200 H 0.06661 0.57752 0.56891 0.0
H1201 H 0.08764 0.47503 0.54766 0.0
H1202 H 0.95805 0.54212 0.45613 0.0
H1203 H 0.12141 0.58866 0.58828 0.0
H1204 H 0.1362 0.56169 0.58568 0.0
H1205 H 0.97418 0.57371 0.47406 0.0
H1206 H 0.13426 0.52765 0.57652 0.0
N1207 N 0.07939 0.5548 0.55985 0.0
C1208 C 0.07885 0.57269 0.5688 0.0
C1209 C 0.10972 0.57904 0.5804 0.0
C1210 C 0.10965 0.56012 0.5735 0.0
C1211 C 0.09412 0.58525 0.57837 0.0
C1212 C 0.09415 0.54816 0.56301 0.0
H1213 H 0.11623 0.4954 0.56276 0.0
N1214 N 0.07819 0.51766 0.54765 0.0
C1215 C 0.0896 0.49024 0.5501 0.0
C1216 C 0.09335 0.52902 0.55723 0.0
C1217 C 0.07589 0.49839 0.54502 0.0
C1218 C 0.10567 0.50178 0.55864 0.0
C1219 C 0.10765 0.52136 0.56258 0.0
O1220 O 0.04167 0.50789 0.55165 0.0
O1221 O 0.03248 0.52581 0.51906 0.0
O1222 O 0.03218 0.55909 0.51697 0.0
O1223 O 0.05602 0.56249 0.53872 0.0
O1224 O 0.0258 0.5335 0.54604 0.0
O1225 O 0.04657 0.53641 0.57008 0.0
O1226 O 0.04957 0.56292 0.48524 0.0
O1227 O 0.05875 0.54236 0.51546 0.0
O1228 O 0.05816 0.50906 0.51865 0.0
O1229 O 0.03627 0.50646 0.49447 0.0
O1230 O 0.06566 0.53578 0.48866 0.0
O1231 O 0.04506 0.53533 0.46523 0.0
C1232 C 0.01997 0.52755 0.52875 0.0
C1233 C 0.03303 0.50902 0.58257 0.0
C1234 C 0.01736 0.51019 0.61012 0.0
C1235 C 0.02436 0.51878 0.59594 0.0
C1236 C 0.0189 0.49177 0.61087 0.0
C1237 C 0.03451 0.49056 0.58322 0.0
C1238 C 0.02743 0.48198 0.59738 0.0
C1239 C 0.04313 0.56877 0.53152 0.0
C1240 C 0.04056 0.51806 0.56797 0.0
C1241 C 0.12318 0.53332 0.57244 0.0
C1242 C 0.12427 0.55269 0.57768 0.0
C1243 C 0.07132 0.54021 0.50607 0.0
C1244 C 0.05826 0.56351 0.4544 0.0
C1245 C 0.06917 0.55521 0.44261 0.0
C1246 C 0.07609 0.56397 0.42859 0.0
C1247 C 0.072 0.58096 0.42607 0.0
C1248 C 0.05417 0.58059 0.45217 0.0
C1249 C 0.06099 0.58925 0.4379 0.0
C1250 C 0.04858 0.5001 0.50284 0.0
C1251 C 0.0506 0.55377 0.46841 0.0
H1252 H 0.02314 0.53303 0.59543 0.0
H1253 H 0.01339 0.48497 0.62181 0.0
H1254 H 0.04127 0.48288 0.5729 0.0
H1255 H 0.02859 0.46777 0.59793 0.0
H1256 H 0.07234 0.542 0.44436 0.0
H1257 H 0.0773 0.58772 0.41503 0.0
H1258 H 0.0455 0.58697 0.46121 0.0
H1259 H 0.05773 0.60232 0.43598 0.0
Eu1260 Eu 0.77493 0.79062 0.26815 0.0
C1261 C 0.83688 0.76954 0.30495 0.0
C1262 C 0.8487 0.79753 0.32891 0.0
C1263 C 0.85062 0.76682 0.33467 0.0
C1264 C 0.84007 0.78898 0.3109 0.0
C1265 C 0.84273 0.75839 0.31659 0.0
C1266 C 0.85351 0.78633 0.34085 0.0
C1267 C 0.8347 0.73161 0.29098 0.0
N1268 N 0.82938 0.76165 0.28734 0.0
C1269 C 0.82917 0.74316 0.27997 0.0
C1270 C 0.84119 0.73917 0.30949 0.0
Eu1271 Eu 0.82006 0.78202 0.26937 0.0
N1272 N 0.83578 0.79961 0.29882 0.0
C1273 C 0.84099 0.81899 0.30385 0.0
C1274 C 0.85288 0.81718 0.33428 0.0
C1275 C 0.84925 0.82792 0.32159 0.0
H1276 H 0.82451 0.73714 0.26552 0.0
H1277 H 0.85285 0.84319 0.32544 0.0
H1278 H 0.86003 0.7927 0.35469 0.0
H1279 H 0.83405 0.7169 0.28511 0.0
H1280 H 0.83884 0.82819 0.29476 0.0
H1281 H 0.74895 0.73024 0.21037 0.0
H1282 H 0.85941 0.8242 0.34797 0.0
H1283 H 0.7698 0.83528 0.27297 0.0
H1284 H 0.76393 0.74627 0.24096 0.0
H1285 H 0.75847 0.85536 0.25408 0.0
H1286 H 0.85501 0.75842 0.3438 0.0
H1287 H 0.73742 0.7484 0.18949 0.0
H1288 H 0.73278 0.77944 0.18411 0.0
H1289 H 0.84561 0.7302 0.31797 0.0
H1290 H 0.73581 0.81345 0.19574 0.0
N1291 N 0.76126 0.77374 0.23816 0.0
C1292 C 0.75897 0.75461 0.23239 0.0
C1293 C 0.744 0.75563 0.20311 0.0
C1294 C 0.74598 0.77509 0.20914 0.0
C1295 C 0.75047 0.74534 0.21484 0.0
C1296 C 0.75471 0.78388 0.22701 0.0
H1297 H 0.74544 0.84181 0.22165 0.0
N1298 N 0.76449 0.81101 0.25098 0.0
C1299 C 0.75799 0.84072 0.24806 0.0
C1300 C 0.75653 0.80307 0.23353 0.0
C1301 C 0.76452 0.82937 0.25864 0.0
C1302 C 0.75064 0.83302 0.22977 0.0
C1303 C 0.74951 0.81391 0.2224 0.0
O1304 O 0.76133 0.79672 0.29353 0.0
O1305 O 0.79811 0.7884 0.28652 0.0
O1306 O 0.79991 0.75298 0.26884 0.0
O1307 O 0.77247 0.7606 0.27324 0.0
O1308 O 0.78834 0.81296 0.29265 0.0
O1309 O 0.74631 0.77874 0.2694 0.0
O1310 O 0.83133 0.76433 0.24783 0.0
O1311 O 0.79412 0.77722 0.25163 0.0
O1312 O 0.7942 0.81843 0.26383 0.0
O1313 O 0.82294 0.81333 0.26793 0.0
O1314 O 0.81687 0.79125 0.24222 0.0
O1315 O 0.84778 0.79091 0.26305 0.0
C1316 C 0.79927 0.80367 0.29829 0.0
C1317 C 0.7302 0.79483 0.29159 0.0
C1318 C 0.70246 0.79465 0.30699 0.0
C1319 C 0.71711 0.78644 0.30235 0.0
C1320 C 0.70145 0.81141 0.30105 0.0
C1321 C 0.72858 0.8115 0.28598 0.0
C1322 C 0.71438 0.81974 0.29072 0.0
C1323 C 0.78269 0.7482 0.27185 0.0
C1324 C 0.74577 0.78661 0.28666 0.0
C1325 C 0.74119 0.8053 0.20448 0.0
C1326 C 0.73942 0.78594 0.19788 0.0
C1327 C 0.80023 0.78398 0.23799 0.0
C1328 C 0.86293 0.76946 0.24486 0.0
C1329 C 0.87568 0.77896 0.23445 0.0
C1330 C 0.89099 0.77204 0.22973 0.0
C1331 C 0.89305 0.75538 0.23529 0.0
C1332 C 0.86557 0.75293 0.25011 0.0
C1333 C 0.88047 0.74596 0.24532 0.0
C1334 C 0.81198 0.82444 0.26532 0.0
C1335 C 0.84665 0.77644 0.24942 0.0
H1336 H 0.71821 0.77358 0.30688 0.0
H1337 H 0.6906 0.81821 0.30453 0.0
H1338 H 0.73834 0.81824 0.27797 0.0
H1339 H 0.71339 0.83268 0.28633 0.0
H1340 H 0.87375 0.79169 0.23019 0.0
H1341 H 0.90439 0.74946 0.23168 0.0
H1342 H 0.85606 0.74525 0.25779 0.0
H1343 H 0.88228 0.73311 0.24936 0.0
Eu1344 Eu 0.80611 0.27756 0.74756 0.0
C1345 C 0.77451 0.33101 0.81288 0.0
C1346 C 0.80064 0.34842 0.8334 0.0
C1347 C 0.77308 0.35903 0.83575 0.0
C1348 C 0.7922 0.33318 0.81887 0.0
C1349 C 0.76473 0.34392 0.82128 0.0
C1350 C 0.79099 0.36125 0.84183 0.0
C1351 C 0.73886 0.3255 0.80114 0.0
N1352 N 0.76677 0.31618 0.799 0.0
C1353 C 0.74903 0.313 0.79341 0.0
C1354 C 0.74676 0.34107 0.81511 0.0
Eu1355 Eu 0.78345 0.29315 0.78944 0.0
N1356 N 0.80121 0.32059 0.81034 0.0
C1357 C 0.81906 0.32321 0.8153 0.0
C1358 C 0.81852 0.35029 0.83915 0.0
C1359 C 0.82785 0.33783 0.82983 0.0
H1360 H 0.74254 0.30047 0.78325 0.0
H1361 H 0.84181 0.33934 0.83391 0.0
H1362 H 0.79728 0.37297 0.85302 0.0
H1363 H 0.72486 0.3229 0.79656 0.0
H1364 H 0.82697 0.31428 0.80823 0.0
H1365 H 0.74809 0.23223 0.70184 0.0
H1366 H 0.82523 0.36135 0.8507 0.0
H1367 H 0.8466 0.26998 0.75397 0.0
H1368 H 0.76329 0.25833 0.72635 0.0
H1369 H 0.86408 0.24703 0.74185 0.0
H1370 H 0.76577 0.36902 0.8424 0.0
H1371 H 0.76383 0.20822 0.68754 0.0
H1372 H 0.79205 0.19714 0.68509 0.0
H1373 H 0.7388 0.35062 0.82125 0.0
H1374 H 0.82351 0.2012 0.69594 0.0
N1375 N 0.78813 0.24999 0.72701 0.0
C1376 C 0.77081 0.24846 0.72053 0.0
C1377 C 0.77071 0.21976 0.69863 0.0
C1378 C 0.78841 0.22136 0.70495 0.0
C1379 C 0.76184 0.23332 0.70656 0.0
C1380 C 0.79676 0.23657 0.71958 0.0
H1381 H 0.85 0.21882 0.71782 0.0
N1382 N 0.82206 0.25353 0.73962 0.0
C1383 C 0.85001 0.24421 0.7375 0.0
C1384 C 0.81425 0.23844 0.72605 0.0
C1385 C 0.83991 0.25692 0.74481 0.0
C1386 C 0.84204 0.2284 0.7239 0.0
C1387 C 0.82408 0.22557 0.7177 0.0
O1388 O 0.83045 0.29059 0.73755 0.0
O1389 O 0.80042 0.30131 0.76771 0.0
O1390 O 0.76928 0.3018 0.76556 0.0
O1391 O 0.7807 0.28723 0.73896 0.0
O1392 O 0.82688 0.30198 0.76343 0.0
O1393 O 0.80498 0.28689 0.72081 0.0
O1394 O 0.75988 0.27934 0.80064 0.0
O1395 O 0.78907 0.27022 0.76879 0.0
O1396 O 0.82027 0.26965 0.77214 0.0
O1397 O 0.80909 0.28468 0.7986 0.0
O1398 O 0.76269 0.26775 0.77354 0.0
O1399 O 0.78629 0.28076 0.81368 0.0
C1400 C 0.81592 0.3112 0.77122 0.0
C1401 C 0.83254 0.30009 0.70843 0.0
C1402 C 0.83427 0.31664 0.68321 0.0
C1403 C 0.82482 0.30974 0.697 0.0
C1404 C 0.85155 0.3141 0.68083 0.0
C1405 C 0.84992 0.29762 0.7063 0.0
C1406 C 0.85939 0.30465 0.69248 0.0
C1407 C 0.76895 0.29616 0.74724 0.0
C1408 C 0.82232 0.29241 0.72235 0.0
C1409 C 0.816 0.21084 0.70282 0.0
C1410 C 0.79814 0.20861 0.69659 0.0
C1411 C 0.77401 0.25967 0.76492 0.0
C1412 C 0.76253 0.27817 0.83245 0.0
C1413 C 0.76586 0.26577 0.84343 0.0
C1414 C 0.75809 0.26528 0.86003 0.0
C1415 C 0.7473 0.27782 0.86611 0.0
C1416 C 0.7519 0.29094 0.83841 0.0
C1417 C 0.7444 0.29081 0.85537 0.0
C1418 C 0.82076 0.27564 0.7905 0.0
C1419 C 0.76912 0.27565 0.81421 0.0
H1420 H 0.81143 0.31173 0.69866 0.0
H1421 H 0.85893 0.31953 0.67008 0.0
H1422 H 0.85604 0.29008 0.71514 0.0
H1423 H 0.87274 0.3027 0.69074 0.0
H1424 H 0.77377 0.25566 0.83847 0.0
H1425 H 0.74112 0.27747 0.87901 0.0
H1426 H 0.74912 0.30061 0.82989 0.0
H1427 H 0.73605 0.30047 0.85998 0.0
Eu1428 Eu 0.80567 0.80613 0.77705 0.0
C1429 C 0.74124 0.73947 0.74213 0.0
C1430 C 0.72705 0.73059 0.7689 0.0
C1431 C 0.71104 0.71993 0.73814 0.0
C1432 C 0.74196 0.73988 0.76113 0.0
C1433 C 0.72578 0.72923 0.73043 0.0
C1434 C 0.7117 0.72056 0.75731 0.0
C1435 C 0.74135 0.73556 0.70389 0.0
N1436 N 0.756 0.74786 0.73489 0.0
C1437 C 0.75644 0.74508 0.71594 0.0
C1438 C 0.72588 0.72773 0.71117 0.0
Eu1439 Eu 0.78268 0.75734 0.75527 0.0
N1440 N 0.75732 0.74884 0.77194 0.0
C1441 C 0.75779 0.75069 0.79088 0.0
C1442 C 0.72811 0.73134 0.78809 0.0
C1443 C 0.74334 0.74192 0.79918 0.0
H1444 H 0.76873 0.74944 0.70993 0.0
H1445 H 0.74403 0.74324 0.81416 0.0
H1446 H 0.70031 0.71305 0.76302 0.0
H1447 H 0.7419 0.73367 0.68896 0.0
H1448 H 0.76899 0.7594 0.79995 0.0
H1449 H 0.84253 0.82609 0.7186 0.0
H1450 H 0.71724 0.72396 0.79453 0.0
H1451 H 0.82073 0.81197 0.82198 0.0
H1452 H 0.81809 0.80865 0.7322 0.0
H1453 H 0.84761 0.82767 0.84269 0.0
H1454 H 0.69918 0.71188 0.72934 0.0
H1455 H 0.86966 0.8443 0.73831 0.0
H1456 H 0.88673 0.85425 0.76959 0.0
H1457 H 0.71435 0.71988 0.70177 0.0
H1458 H 0.88873 0.8533 0.8028 0.0
N1459 N 0.83042 0.81672 0.76018 0.0
C1460 C 0.82942 0.81662 0.74145 0.0
C1461 C 0.85899 0.83625 0.7445 0.0
C1462 C 0.86044 0.83574 0.76341 0.0
C1463 C 0.84359 0.82625 0.7334 0.0
C1464 C 0.84593 0.82538 0.77092 0.0
H1465 H 0.8745 0.84315 0.82996 0.0
N1466 N 0.83274 0.8154 0.79685 0.0
C1467 C 0.84785 0.82659 0.82779 0.0
C1468 C 0.84713 0.82468 0.78971 0.0
C1469 C 0.83272 0.81717 0.8158 0.0
C1470 C 0.86295 0.83536 0.82056 0.0
C1471 C 0.86262 0.83486 0.80142 0.0
O1472 O 0.79734 0.82099 0.80272 0.0
O1473 O 0.78145 0.783 0.77551 0.0
O1474 O 0.77942 0.77719 0.73523 0.0
O1475 O 0.79388 0.80845 0.74932 0.0
O1476 O 0.77766 0.80931 0.7724 0.0
O1477 O 0.81119 0.83662 0.78311 0.0
O1478 O 0.79067 0.74026 0.73065 0.0
O1479 O 0.80687 0.78052 0.75683 0.0
O1480 O 0.80956 0.78588 0.79624 0.0
O1481 O 0.79336 0.75501 0.78342 0.0
O1482 O 0.81091 0.75418 0.75937 0.0
O1483 O 0.77657 0.72695 0.75169 0.0
C1484 C 0.76998 0.79215 0.77283 0.0
C1485 C 0.79757 0.85383 0.80639 0.0
C1486 C 0.78484 0.87959 0.80085 0.0
C1487 C 0.78862 0.862 0.79433 0.0
C1488 C 0.78959 0.88876 0.81955 0.0
C1489 C 0.80214 0.8629 0.82512 0.0
C1490 C 0.79807 0.88031 0.83168 0.0
C1491 C 0.7844 0.7956 0.73529 0.0
C1492 C 0.80465 0.83748 0.79927 0.0
C1493 C 0.87691 0.84523 0.79396 0.0
C1494 C 0.87578 0.84574 0.77504 0.0
C1495 C 0.81841 0.77146 0.75932 0.0
C1496 C 0.78908 0.70731 0.72932 0.0
C1497 C 0.79753 0.69932 0.742 0.0
C1498 C 0.80078 0.68133 0.73627 0.0
C1499 C 0.79579 0.67151 0.71777 0.0
C1500 C 0.78427 0.69753 0.71085 0.0
C1501 C 0.78766 0.67967 0.7051 0.0
C1502 C 0.80365 0.76781 0.79688 0.0
C1503 C 0.78298 0.72455 0.73547 0.0
H1504 H 0.7854 0.85517 0.77975 0.0
H1505 H 0.78671 0.90241 0.82473 0.0
H1506 H 0.80936 0.8568 0.83449 0.0
H1507 H 0.80181 0.88741 0.84608 0.0
H1508 H 0.80108 0.7068 0.75635 0.0
H1509 H 0.79842 0.65766 0.71307 0.0
H1510 H 0.77747 0.7035 0.70102 0.0
H1511 H 0.78382 0.67208 0.69087 0.0
Eu1512 Eu 0.52712 0.5275 0.50931 0.0
C1513 C 0.59248 0.58949 0.55004 0.0
C1514 C 0.60419 0.6043 0.52512 0.0
C1515 C 0.61074 0.62162 0.55711 0.0
C1516 C 0.59388 0.5887 0.53125 0.0
C1517 C 0.60114 0.60588 0.5632 0.0
C1518 C 0.61233 0.6208 0.5381 0.0
C1519 C 0.59192 0.58935 0.58766 0.0
N1520 N 0.58344 0.57394 0.55556 0.0
C1521 C 0.58383 0.57341 0.57413 0.0
C1522 C 0.60043 0.60577 0.58218 0.0
Eu1523 Eu 0.57082 0.54663 0.53217 0.0
N1524 N 0.58548 0.57266 0.51898 0.0
C1525 C 0.58721 0.57155 0.50027 0.0
C1526 C 0.60611 0.6029 0.50613 0.0
C1527 C 0.5976 0.58643 0.49368 0.0
H1528 H 0.57802 0.5605 0.57857 0.0
H1529 H 0.59859 0.58534 0.47889 0.0
H1530 H 0.62007 0.63292 0.5336 0.0
H1531 H 0.59186 0.58884 0.6023 0.0
H1532 H 0.58009 0.55983 0.48988 0.0
H1533 H 0.50182 0.48575 0.56119 0.0
H1534 H 0.61393 0.61451 0.50092 0.0
H1535 H 0.51979 0.51498 0.46267 0.0
H1536 H 0.51849 0.51285 0.55088 0.0
H1537 H 0.50649 0.48694 0.43836 0.0
H1538 H 0.61735 0.63433 0.56701 0.0
H1539 H 0.48738 0.45693 0.53839 0.0
H1540 H 0.48219 0.43908 0.50553 0.0
H1541 H 0.6069 0.61806 0.59268 0.0
H1542 H 0.48412 0.43908 0.47224 0.0
N1543 N 0.51415 0.50033 0.52168 0.0
C1544 C 0.51241 0.50077 0.5403 0.0
C1545 C 0.49526 0.46873 0.53361 0.0
C1546 C 0.49723 0.46798 0.51471 0.0
C1547 C 0.50308 0.4851 0.54647 0.0
C1548 C 0.50673 0.48424 0.50903 0.0
H1549 H 0.49309 0.45675 0.44716 0.0
N1550 N 0.51582 0.50045 0.48513 0.0
C1551 C 0.50699 0.48587 0.45287 0.0
C1552 C 0.50774 0.48426 0.49027 0.0
C1553 C 0.51479 0.50165 0.46672 0.0
C1554 C 0.49942 0.46889 0.4579 0.0
C1555 C 0.49937 0.46801 0.47676 0.0
O1556 O 0.51064 0.53873 0.49174 0.0
O1557 O 0.54667 0.55493 0.52154 0.0
O1558 O 0.55238 0.5544 0.55506 0.0
O1559 O 0.52415 0.54026 0.54018 0.0
O1560 O 0.53733 0.55092 0.49411 0.0
O1561 O 0.5005 0.53055 0.51674 0.0
O1562 O 0.58768 0.53739 0.55139 0.0
O1563 O 0.55095 0.51932 0.52089 0.0
O1564 O 0.54518 0.52061 0.48618 0.0
O1565 O 0.57354 0.53304 0.50131 0.0
O1566 O 0.56033 0.52506 0.54894 0.0
O1567 O 0.59489 0.53798 0.52328 0.0
C1568 C 0.54619 0.56336 0.508 0.0
C1569 C 0.47961 0.53248 0.49246 0.0
C1570 C 0.45078 0.54042 0.49065 0.0
C1571 C 0.46691 0.54133 0.50077 0.0
C1572 C 0.44732 0.52999 0.47219 0.0
C1573 C 0.47589 0.52191 0.47415 0.0
C1574 C 0.45973 0.52059 0.46413 0.0
C1575 C 0.53479 0.54944 0.55548 0.0
C1576 C 0.49748 0.53736 0.50207 0.0
C1577 C 0.49055 0.45165 0.48242 0.0
C1578 C 0.48943 0.45166 0.50136 0.0
C1579 C 0.55133 0.5123 0.53542 0.0
C1580 C 0.61793 0.54004 0.54649 0.0
C1581 C 0.62923 0.52984 0.53727 0.0
C1582 C 0.64686 0.5329 0.5444 0.0
C1583 C 0.65342 0.54638 0.56075 0.0
C1584 C 0.62441 0.55359 0.56289 0.0
C1585 C 0.64217 0.55674 0.56996 0.0
C1586 C 0.56273 0.52458 0.48592 0.0
C1587 C 0.59919 0.53462 0.5395 0.0
H1588 H 0.46991 0.54944 0.51493 0.0
H1589 H 0.43521 0.52939 0.4638 0.0
H1590 H 0.48564 0.5153 0.46733 0.0
H1591 H 0.45703 0.51274 0.44989 0.0
H1592 H 0.62418 0.51907 0.52482 0.0
H1593 H 0.66706 0.54858 0.56652 0.0
H1594 H 0.61577 0.56143 0.57039 0.0
H1595 H 0.64713 0.56699 0.58271 0.0
Eu1596 Eu 0.07046 0.53743 0.01244 0.0
C1597 C 0.0004 0.49952 0.04168 0.0
C1598 C 0.98422 0.47416 0.01678 0.0
C1599 C 0.98113 0.47166 0.04901 0.0
C1600 C 0.99633 0.49184 0.02263 0.0
C1601 C 0.99248 0.48959 0.05495 0.0
C1602 C 0.97697 0.46401 0.03 0.0
C1603 C 0.0059 0.51661 0.07922 0.0
N1604 N 0.01134 0.51697 0.04726 0.0
C1605 C 0.01324 0.52605 0.06565 0.0
C1606 C 0.99571 0.49818 0.07387 0.0
Eu1607 Eu 0.02334 0.53116 0.02276 0.0
N1608 N 0.0036 0.50175 0.00987 0.0
C1609 C 0.99855 0.4951 0.99124 0.0
C1610 C 0.9793 0.46731 0.99777 0.0
C1611 C 0.98645 0.47781 0.98496 0.0
H1612 H 0.02101 0.5404 0.06984 0.0
H1613 H 0.98245 0.47272 0.97022 0.0
H1614 H 0.96782 0.45034 0.02564 0.0
H1615 H 0.00801 0.52359 0.09376 0.0
H1616 H 0.00337 0.50299 0.98092 0.0
H1617 H 0.10202 0.59862 0.06688 0.0
H1618 H 0.96957 0.45419 0.99294 0.0
H1619 H 0.07466 0.52962 0.96609 0.0
H1620 H 0.0831 0.56731 0.05432 0.0
H1621 H 0.08881 0.54706 0.94303 0.0
H1622 H 0.9751 0.4638 0.05902 0.0
H1623 H 0.11737 0.61768 0.04572 0.0
H1624 H 0.12369 0.62077 0.0132 0.0
H1625 H 0.98991 0.49094 0.08441 0.0
H1626 H 0.11963 0.60709 0.97964 0.0
N1627 N 0.08746 0.56809 0.02593 0.0
C1628 C 0.08968 0.57518 0.04472 0.0
C1629 C 0.10908 0.60378 0.04002 0.0
C1630 C 0.10692 0.59642 0.02082 0.0
C1631 C 0.10043 0.59308 0.05201 0.0
C1632 C 0.09597 0.57822 0.01407 0.0
H1633 H 0.10649 0.57983 0.95339 0.0
N1634 N 0.08329 0.5528 0.98902 0.0
C1635 C 0.09019 0.55384 0.95761 0.0
C1636 C 0.09366 0.57047 0.99511 0.0
C1637 C 0.08215 0.54405 0.97066 0.0
C1638 C 0.10017 0.57233 0.96352 0.0
C1639 C 0.10229 0.58076 0.98248 0.0
O1640 O 0.08191 0.51256 0.00689 0.0
O1641 O 0.0451 0.51647 0.01414 0.0
O1642 O 0.03834 0.52195 0.04472 0.0
O1643 O 0.0678 0.53625 0.04226 0.0
O1644 O 0.05859 0.51083 0.99089 0.0
O1645 O 0.09777 0.5383 0.02329 0.0
O1646 O 0.01297 0.55263 0.04067 0.0
O1647 O 0.05074 0.55134 0.02775 0.0
O1648 O 0.05493 0.54597 0.99031 0.0
O1649 O 0.02606 0.52871 0.99229 0.0
O1650 O 0.0297 0.56065 0.01725 0.0
O1651 O 0.99763 0.53648 0.01455 0.0
C1652 C 0.04528 0.50413 -0.00038 0.0
C1653 C 0.1127 0.51691 0.00575 0.0
C1654 C 0.13593 0.49922 0.00178 0.0
C1655 C 0.12258 0.50509 0.01212 0.0
C1656 C 0.13947 0.50544 0.98513 0.0
C1657 C 0.11662 0.52327 0.98925 0.0
C1658 C 0.12994 0.51754 0.979 0.0
C1659 C 0.05521 0.52712 0.05067 0.0
C1660 C 0.09735 0.52092 0.01554 0.0
C1661 C 0.11296 0.59897 0.98914 0.0
C1662 C 0.11531 0.60676 0.00826 0.0
C1663 C 0.04626 0.56537 0.02287 0.0
C1664 C 0.98193 0.55202 0.03757 0.0
C1665 C 0.97269 0.56476 0.0319 0.0
C1666 C 0.95697 0.56766 0.03974 0.0
C1667 C 0.95079 0.55763 0.05355 0.0
C1668 C 0.97541 0.54213 0.05122 0.0
C1669 C 0.96001 0.54507 0.05927 0.0
C1670 C 0.03855 0.5376 0.98339 0.0
C1671 C 0.99856 0.5499 0.02933 0.0
H1672 H 0.11953 0.49998 0.02477 0.0
H1673 H 0.14972 0.50107 0.97697 0.0
H1674 H 0.10928 0.53243 0.98417 0.0
H1675 H 0.1328 0.52237 0.9662 0.0
H1676 H 0.97797 0.57262 0.02156 0.0
H1677 H 0.93863 0.55916 0.05974 0.0
H1678 H 0.98204 0.53207 0.05561 0.0
H1679 H 0.95506 0.53741 0.06984 0.0
H1680 H 0.031 0.22906 0.98254 0.0
H1681 H 0.03708 0.20252 0.9954 0.0
H1682 H 0.00977 0.16364 0.946 0.0
H1683 H 0.00356 0.19004 0.93318 0.0
H1684 H 0.00076 0.14975 0.97509 0.0
H1685 H 0.05611 0.17627 0.95416 0.0
H1686 H 0.0824 0.20099 0.95171 0.0
H1687 H 0.09734 0.20894 0.01032 0.0
H1688 H 0.07097 0.18442 0.01317 0.0
H1689 H 0.0332 0.06824 0.98355 0.0
H1690 H 0.02925 0.0966 0.97269 0.0
H1691 H 0.04783 0.13025 0.02752 0.0
H1692 H 0.05081 0.10158 0.03869 0.0
H1693 H 0.06178 0.14745 0.99722 0.0
H1694 H 0.00506 0.11953 0.01675 0.0
H1695 H 0.97701 0.09651 0.01776 0.0
H1696 H 0.96478 0.09086 0.95896 0.0
H1697 H 0.99279 0.11367 0.95754 0.0
C1698 C 0.02614 0.21485 0.97446 0.0
C1699 C 0.01675 0.21178 0.95676 0.0
C1700 C 0.02979 0.19964 0.98178 0.0
C1701 C 0.02418 0.18095 0.9716 0.0
C1702 C 0.01436 0.17785 0.95418 0.0
C1703 C 0.01078 0.19302 0.94683 0.0
C1704 C 0.02824 0.16455 0.97906 0.0
C1705 C 0.01417 0.14921 0.97967 0.0
C1706 C 0.04567 0.16383 0.98551 0.0
C1707 C 0.06143 0.1787 0.98392 0.0
C1708 C 0.0649 0.18343 0.96657 0.0
C1709 C 0.07984 0.19737 0.9651 0.0
C1710 C 0.0915 0.20658 0.98087 0.0
C1711 C 0.08827 0.20182 0.99813 0.0
C1712 C 0.07333 0.1879 -0.00032 0.0
C1713 C 0.03668 0.08171 0.99323 0.0
C1714 C 0.04249 0.08272 0.01194 0.0
C1715 C 0.03432 0.09793 0.98702 0.0
C1716 C 0.03803 0.11561 0.9993 0.0
C1717 C 0.04479 0.1168 0.01777 0.0
C1718 C 0.04663 0.10045 0.02412 0.0
C1719 C 0.03428 0.13263 0.99297 0.0
C1720 C 0.0484 0.14806 0.99263 0.0
C1721 C 0.01692 0.13335 0.98645 0.0
C1722 C 0.0011 0.11817 0.98701 0.0
C1723 C 0.99657 0.11309 0.00398 0.0
C1724 C 0.98062 0.10017 0.00463 0.0
C1725 C 0.96915 0.0923 0.98841 0.0
C1726 C 0.9737 0.09701 0.97148 0.0
C1727 C 0.98959 0.10991 0.97074 0.0
H1728 H 0.95664 0.08271 0.98884 0.0
H1729 H 0.10306 0.21736 0.9797 0.0
H1730 H 0.11848 0.79416 0.1565 0.0
H1731 H 0.14377 0.78951 0.1748 0.0
H1732 H 0.17948 0.82819 0.14892 0.0
H1733 H 0.15406 0.83161 0.12935 0.0
H1734 H 0.19543 0.80219 0.15405 0.0
H1735 H 0.16383 0.83968 0.19625 0.0
H1736 H 0.13642 0.84515 0.20996 0.0
H1737 H 0.13058 0.79387 0.23071 0.0
H1738 H 0.15786 0.788 0.21696 0.0
H1739 H 0.26979 0.81654 0.22021 0.0
H1740 H 0.24466 0.82066 0.20086 0.0
H1741 H 0.20833 0.78382 0.22806 0.0
H1742 H 0.23346 0.78088 0.24825 0.0
H1743 H 0.1926 0.80889 0.22231 0.0
H1744 H 0.22159 0.76971 0.18035 0.0
H1745 H 0.24764 0.76124 0.16579 0.0
H1746 H 0.25737 0.81227 0.14449 0.0
H1747 H 0.23131 0.82111 0.159 0.0
C1748 C 0.13171 0.80168 0.15465 0.0
C1749 C 0.13415 0.81347 0.14158 0.0
C1750 C 0.14627 0.79913 0.16531 0.0
C1751 C 0.16375 0.809 0.16395 0.0
C1752 C 0.16625 0.82048 0.15053 0.0
C1753 C 0.15166 0.82252 0.13936 0.0
C1754 C 0.17925 0.80757 0.17666 0.0
C1755 C 0.19484 0.80396 0.169 0.0
C1756 C 0.1786 0.80923 0.19623 0.0
C1757 C 0.16286 0.81338 0.20553 0.0
C1758 C 0.15673 0.82961 0.2038 0.0
C1759 C 0.14119 0.83275 0.21152 0.0
C1760 C 0.13175 0.81985 0.22117 0.0
C1761 C 0.13791 0.80385 0.22323 0.0
C1762 C 0.15343 0.80064 0.21552 0.0
C1763 C 0.25641 0.80942 0.22206 0.0
C1764 C 0.25359 0.79839 0.23571 0.0
C1765 C 0.24197 0.81159 0.21084 0.0
C1766 C 0.22434 0.80218 0.21245 0.0
C1767 C 0.22161 0.79128 0.22632 0.0
C1768 C 0.23602 0.78953 0.23787 0.0
C1769 C 0.20884 0.80361 0.19973 0.0
C1770 C 0.19325 0.8072 0.20738 0.0
C1771 C 0.20937 0.80162 0.18013 0.0
C1772 C 0.22454 0.79607 0.17074 0.0
C1773 C 0.22925 0.7791 0.17251 0.0
C1774 C 0.244 0.77425 0.16428 0.0
C1775 C 0.25411 0.78623 0.1542 0.0
C1776 C 0.24943 0.80302 0.15223 0.0
C1777 C 0.23465 0.80792 0.16038 0.0
H1778 H 0.26559 0.78251 0.14793 0.0
H1779 H 0.11968 0.82226 0.22706 0.0
H1780 H 0.53285 0.82191 0.48126 0.0
H1781 H 0.53659 0.85507 0.49791 0.0
H1782 H 0.51273 0.86809 0.44901 0.0
H1783 H 0.50924 0.83565 0.43257 0.0
H1784 H 0.54616 0.8907 0.4612 0.0
H1785 H 0.49082 0.86625 0.48771 0.0
H1786 H 0.47362 0.84601 0.50675 0.0
H1787 H 0.51128 0.87249 0.55427 0.0
H1788 H 0.5288 0.89277 0.53542 0.0
H1789 H 0.52751 0.97765 0.47038 0.0
H1790 H 0.52324 0.94351 0.46726 0.0
H1791 H 0.54181 0.95139 0.52526 0.0
H1792 H 0.54488 0.98559 0.52869 0.0
H1793 H 0.5176 0.91865 0.51521 0.0
H1794 H 0.57138 0.94516 0.49057 0.0
H1795 H 0.59003 0.96483 0.472 0.0
H1796 H 0.55761 0.93386 0.42201 0.0
H1797 H 0.53877 0.91407 0.44028 0.0
C1798 C 0.52808 0.83183 0.47431 0.0
C1799 C 0.52094 0.82628 0.45554 0.0
C1800 C 0.53025 0.85074 0.48379 0.0
C1801 C 0.52511 0.86413 0.47461 0.0
C1802 C 0.51699 0.85813 0.45632 0.0
C1803 C 0.51499 0.83954 0.44693 0.0
C1804 C 0.52933 0.88475 0.48282 0.0
C1805 C 0.53991 0.89678 0.47303 0.0
C1806 C 0.5219 0.89278 0.49877 0.0
C1807 C 0.51121 0.88085 0.51012 0.0
C1808 C 0.49549 0.86766 0.50218 0.0
C1809 C 0.48567 0.85621 0.51295 0.0
C1810 C 0.49139 0.85791 0.53169 0.0
C1811 C 0.50689 0.87116 0.53974 0.0
C1812 C 0.51675 0.88265 0.52903 0.0
C1813 C 0.53018 0.97204 0.48257 0.0
C1814 C 0.53635 0.98424 0.49977 0.0
C1815 C 0.52795 0.95254 0.48077 0.0
C1816 C 0.5328 0.94484 0.49586 0.0
C1817 C 0.53809 0.95693 0.51336 0.0
C1818 C 0.53977 0.97649 0.51532 0.0
C1819 C 0.53344 0.92446 0.4927 0.0
C1820 C 0.52409 0.91258 0.50358 0.0
C1821 C 0.54221 0.91643 0.47782 0.0
C1822 C 0.55367 0.92818 0.46679 0.0
C1823 C 0.56823 0.94258 0.47562 0.0
C1824 C 0.57884 0.95374 0.46515 0.0
C1825 C 0.575 0.95059 0.44584 0.0
C1826 C 0.56059 0.93626 0.43696 0.0
C1827 C 0.54999 0.92503 0.44735 0.0
H1828 H 0.58319 0.95927 0.43776 0.0
H1829 H 0.48379 0.84901 0.53999 0.0
H1830 H 0.54065 0.32042 0.66903 0.0
H1831 H 0.51142 0.31874 0.68066 0.0
H1832 H 0.48656 0.28486 0.62774 0.0
H1833 H 0.5161 0.28718 0.61576 0.0
H1834 H 0.4652 0.30917 0.64495 0.0
H1835 H 0.49311 0.26202 0.66115 0.0
H1836 H 0.51854 0.25048 0.67233 0.0
H1837 H 0.52208 0.28797 0.7254 0.0
H1838 H 0.49674 0.29984 0.71446 0.0
H1839 H 0.38846 0.27021 0.692 0.0
H1840 H 0.41274 0.27703 0.67205 0.0
H1841 H 0.44788 0.3077 0.72067 0.0
H1842 H 0.42382 0.30055 0.74045 0.0
H1843 H 0.4624 0.28213 0.70197 0.0
H1844 H 0.43399 0.32956 0.68466 0.0
H1845 H 0.40975 0.34189 0.67197 0.0
H1846 H 0.40667 0.303 0.61985 0.0
H1847 H 0.43081 0.29035 0.63229 0.0
C1848 C 0.52893 0.31304 0.65969 0.0
C1849 C 0.53068 0.30398 0.64149 0.0
C1850 C 0.51219 0.31199 0.66637 0.0
C1851 C 0.49669 0.30136 0.65526 0.0
C1852 C 0.49826 0.29315 0.63664 0.0
C1853 C 0.51514 0.2945 0.62978 0.0
C1854 C 0.47945 0.29746 0.66399 0.0
C1855 C 0.46446 0.30299 0.65725 0.0
C1856 C 0.47834 0.28943 0.68008 0.0
C1857 C 0.49308 0.28183 0.68699 0.0
C1858 C 0.49933 0.26779 0.67521 0.0
C1859 C 0.51372 0.26121 0.68149 0.0
C1860 C 0.52193 0.2685 0.69956 0.0
C1861 C 0.51569 0.28232 0.71141 0.0
C1862 C 0.50128 0.28894 0.70521 0.0
C1863 C 0.40122 0.27894 0.69829 0.0
C1864 C 0.40418 0.285 0.71779 0.0
C1865 C 0.41516 0.28281 0.68688 0.0
C1866 C 0.43234 0.29288 0.69475 0.0
C1867 C 0.43489 0.29983 0.71414 0.0
C1868 C 0.42107 0.29587 0.72548 0.0
C1869 C 0.44815 0.29449 0.68344 0.0
C1870 C 0.46295 0.28828 0.68965 0.0
C1871 C 0.44887 0.30166 0.66677 0.0
C1872 C 0.43405 0.30887 0.65947 0.0
C1873 C 0.42801 0.3235 0.67056 0.0
C1874 C 0.41434 0.3306 0.66339 0.0
C1875 C 0.40665 0.32321 0.64513 0.0
C1876 C 0.41262 0.3087 0.634 0.0
C1877 C 0.42631 0.30158 0.64109 0.0
H1878 H 0.39609 0.32874 0.6396 0.0
H1879 H 0.53311 0.26342 0.70438 0.0
H1880 H 0.98336 0.79357 0.60069 0.0
H1881 H 0.99168 0.81837 0.58266 0.0
H1882 H 0.03424 0.84784 0.62527 0.0
H1883 H 0.02521 0.82391 0.64369 0.0
H1884 H 0.01761 0.87113 0.61654 0.0
H1885 H 0.04211 0.82283 0.58163 0.0
H1886 H 0.0413 0.79053 0.56461 0.0
H1887 H 0.00096 0.79497 0.52435 0.0
H1888 H 0.00145 0.82728 0.54122 0.0
H1889 H 0.06787 0.93235 0.56339 0.0
H1890 H 0.05629 0.90978 0.58288 0.0
H1891 H 0.01089 0.88531 0.54233 0.0
H1892 H 0.02261 0.90783 0.52283 0.0
H1893 H 0.02811 0.85932 0.54972 0.0
H1894 H 0.00619 0.91027 0.5876 0.0
H1895 H 0.00709 0.94081 0.60858 0.0
H1896 H 0.04651 0.93036 0.64612 0.0
H1897 H 0.04602 0.89999 0.6253 0.0
C1898 C 0.99431 0.80554 0.60619 0.0
C1899 C 0.00343 0.80725 0.62364 0.0
C1900 C 0.99921 0.81948 0.59583 0.0
C1901 C 0.01369 0.83479 0.60258 0.0
C1902 C 0.02295 0.8362 0.6199 0.0
C1903 C 0.01771 0.82265 0.63045 0.0
C1904 C 0.01867 0.85006 0.59228 0.0
C1905 C 0.0202 0.86859 0.60199 0.0
C1906 C 0.0217 0.8466 0.57326 0.0
C1907 C 0.02171 0.8274 0.56277 0.0
C1908 C 0.03303 0.81689 0.56917 0.0
C1909 C 0.03264 0.79859 0.55955 0.0
C1910 C 0.02105 0.79068 0.54344 0.0
C1911 C 0.00992 0.80111 0.53684 0.0
C1912 C 0.01028 0.81944 0.5464 0.0
C1913 C 0.05529 0.9223 0.5589 0.0
C1914 C 0.04613 0.92147 0.54169 0.0
C1915 C 0.04862 0.90957 0.57004 0.0
C1916 C 0.03272 0.89595 0.56403 0.0
C1917 C 0.02318 0.89575 0.54718 0.0
C1918 C 0.02983 0.90851 0.53608 0.0
C1919 C 0.02717 0.88052 0.57407 0.0
C1920 C 0.02557 0.86188 0.56428 0.0
C1921 C 0.02471 0.88391 0.59326 0.0
C1922 C 0.02626 0.90302 0.60473 0.0
C1923 C 0.0153 0.91469 0.60014 0.0
C1924 C 0.01567 0.93193 0.61208 0.0
C1925 C 0.02693 0.9376 0.62863 0.0
C1926 C 0.0379 0.92608 0.63326 0.0
C1927 C 0.03759 0.90887 0.62139 0.0
H1928 H 0.02711 0.95089 0.6379 0.0
H1929 H 0.02072 0.77649 0.53604 0.0
H1930 H 0.53871 0.79346 0.86543 0.0
H1931 H 0.50701 0.79303 0.86029 0.0
H1932 H 0.52046 0.84377 0.83809 0.0
H1933 H 0.55206 0.84408 0.84285 0.0
H1934 H 0.49347 0.84333 0.86349 0.0
H1935 H 0.51066 0.80652 0.80916 0.0
H1936 H 0.52388 0.78133 0.79272 0.0
H1937 H 0.48446 0.73952 0.81049 0.0
H1938 H 0.47127 0.76457 0.82748 0.0
H1939 H 0.43012 0.84823 0.79473 0.0
H1940 H 0.45427 0.84762 0.81712 0.0
H1941 H 0.42555 0.79356 0.82584 0.0
H1942 H 0.40145 0.79399 0.80306 0.0
H1943 H 0.45731 0.79215 0.81401 0.0
H1944 H 0.43739 0.8329 0.8642 0.0
H1945 H 0.42625 0.86065 0.87847 0.0
H1946 H 0.47213 0.89762 0.86424 0.0
H1947 H 0.48351 0.87013 0.84989 0.0
C1948 C 0.53483 0.80452 0.85953 0.0
C1949 C 0.54763 0.81866 0.85428 0.0
C1950 C 0.51684 0.8043 0.85669 0.0
C1951 C 0.51161 0.8184 0.84891 0.0
C1952 C 0.5244 0.83287 0.84423 0.0
C1953 C 0.54234 0.83289 0.84672 0.0
C1954 C 0.49276 0.81736 0.84419 0.0
C1955 C 0.48542 0.83212 0.85278 0.0
C1956 C 0.48247 0.80256 0.83037 0.0
C1957 C 0.49018 0.78744 0.8199 0.0
C1958 C 0.50494 0.79198 0.80977 0.0
C1959 C 0.51242 0.77773 0.80033 0.0
C1960 C 0.50508 0.75884 0.80065 0.0
C1961 C 0.49019 0.75417 0.81034 0.0
C1962 C 0.48272 0.7684 0.8199 0.0
C1963 C 0.42884 0.83644 0.80174 0.0
C1964 C 0.41416 0.82108 0.79708 0.0
C1965 C 0.44248 0.83621 0.81474 0.0
C1966 C 0.44158 0.82063 0.82329 0.0
C1967 C 0.42637 0.80578 0.81952 0.0
C1968 C 0.41267 0.80604 0.80653 0.0
C1969 C 0.45786 0.81839 0.83308 0.0
C1970 C 0.46493 0.803 0.82532 0.0
C1971 C 0.46807 0.83292 0.84728 0.0
C1972 C 0.46127 0.84945 0.85597 0.0
C1973 C 0.44506 0.84695 0.86408 0.0
C1974 C 0.43873 0.86264 0.87221 0.0
C1975 C 0.44847 0.88089 0.87225 0.0
C1976 C 0.46461 0.88349 0.86423 0.0
C1977 C 0.47104 0.86787 0.85618 0.0
H1978 H 0.44353 0.89301 0.87851 0.0
H1979 H 0.51087 0.74781 0.79332 0.0
H1980 H 0.46913 0.19585 0.12442 0.0
H1981 H 0.47161 0.16828 0.10073 0.0
H1982 H 0.52526 0.1734 0.1241 0.0
H1983 H 0.52263 0.20003 0.14797 0.0
H1984 H 0.51837 0.17507 0.08342 0.0
H1985 H 0.50161 0.14338 0.13444 0.0
H1986 H 0.4816 0.13305 0.1574 0.0
H1987 H 0.44199 0.10163 0.11318 0.0
H1988 H 0.46155 0.11242 0.08991 0.0
H1989 H 0.55868 0.10061 0.05331 0.0
H1990 H 0.54673 0.12458 0.0728 0.0
H1991 H 0.49416 0.09886 0.04508 0.0
H1992 H 0.50572 0.07404 0.02659 0.0
H1993 H 0.4956 0.10714 0.08391 0.0
H1994 H 0.51658 0.1365 0.03267 0.0
H1995 H 0.54058 0.14297 0.01227 0.0
H1996 H 0.57585 0.17606 0.05947 0.0
H1997 H 0.55212 0.16952 0.08022 0.0
C1998 C 0.48117 0.19059 0.12466 0.0
C1999 C 0.49565 0.1996 0.13786 0.0
C2000 C 0.48259 0.17514 0.11122 0.0
C2001 C 0.49865 0.16932 0.11089 0.0
C2002 C 0.51284 0.17799 0.12439 0.0
C2003 C 0.51124 0.19292 0.13804 0.0
C2004 C 0.5014 0.15467 0.09612 0.0
C2005 C 0.51317 0.16019 0.0832 0.0
C2006 C 0.49465 0.13549 0.09637 0.0
C2007 C 0.48284 0.1292 0.11042 0.0
C2008 C 0.48847 0.13468 0.12958 0.0
C2009 C 0.47724 0.12866 0.14267 0.0
C2010 C 0.46047 0.11682 0.13677 0.0
C2011 C 0.45493 0.11093 0.11775 0.0
C2012 C 0.46606 0.11706 0.1046 0.0
C2013 C 0.54458 0.09991 0.05167 0.0
C2014 C 0.53299 0.08536 0.03898 0.0
C2015 C 0.53783 0.11362 0.06257 0.0
C2016 C 0.51965 0.11313 0.06019 0.0
C2017 C 0.50821 0.0991 0.04699 0.0
C2018 C 0.51488 0.08521 0.03636 0.0
C2019 C 0.51254 0.12756 0.0713 0.0
C2020 C 0.50013 0.122 0.08357 0.0
C2021 C 0.51896 0.1467 0.0707 0.0
C2022 C 0.53251 0.15263 0.05799 0.0
C2023 C 0.52939 0.14533 0.03868 0.0
C2024 C 0.54298 0.1489 0.02707 0.0
C2025 C 0.55973 0.15993 0.03457 0.0
C2026 C 0.56285 0.16756 0.05368 0.0
C2027 C 0.54931 0.16399 0.06537 0.0
H2028 H 0.57027 0.16257 0.02558 0.0
H2029 H 0.45182 0.11209 0.14692 0.0
H2030 H 0.16468 0.31768 0.38032 0.0
H2031 H 0.18937 0.32342 0.36108 0.0
H2032 H 0.15263 0.32335 0.31475 0.0
H2033 H 0.12807 0.31568 0.33293 0.0
H2034 H 0.16566 0.293 0.3102 0.0
H2035 H 0.18901 0.35906 0.32604 0.0
H2036 H 0.19779 0.38972 0.34805 0.0
H2037 H 0.23926 0.37069 0.37473 0.0
H2038 H 0.2306 0.33978 0.353 0.0
H2039 H 0.23891 0.28781 0.2529 0.0
H2040 H 0.2118 0.29241 0.2674 0.0
H2041 H 0.23722 0.29226 0.32114 0.0
H2042 H 0.26422 0.28813 0.30677 0.0
H2043 H 0.22907 0.3267 0.3173 0.0
H2044 H 0.19933 0.25957 0.30869 0.0
H2045 H 0.18548 0.22698 0.29213 0.0
H2046 H 0.15531 0.24815 0.25377 0.0
H2047 H 0.16813 0.28082 0.27075 0.0
C2048 C 0.16198 0.31927 0.36615 0.0
C2049 C 0.14452 0.31569 0.35794 0.0
C2050 C 0.17607 0.32303 0.35534 0.0
C2051 C 0.17261 0.32363 0.33652 0.0
C2052 C 0.1554 0.32292 0.32928 0.0
C2053 C 0.14137 0.31833 0.3397 0.0
C2054 C 0.18511 0.31832 0.32348 0.0
C2055 C 0.17942 0.30073 0.31126 0.0
C2056 C 0.20303 0.32813 0.3255 0.0
C2057 C 0.20912 0.34707 0.33788 0.0
C2058 C 0.20002 0.3614 0.33659 0.0
C2059 C 0.20495 0.37882 0.34904 0.0
C2060 C 0.21906 0.38213 0.3628 0.0
C2061 C 0.22835 0.36809 0.36404 0.0
C2062 C 0.22347 0.35063 0.35161 0.0
C2063 C 0.23825 0.28792 0.26764 0.0
C2064 C 0.2532 0.28746 0.27887 0.0
C2065 C 0.22291 0.29049 0.27585 0.0
C2066 C 0.22284 0.2928 0.29524 0.0
C2067 C 0.23724 0.29046 0.30613 0.0
C2068 C 0.2525 0.28798 0.29796 0.0
C2069 C 0.20951 0.30128 0.30451 0.0
C2070 C 0.21515 0.31941 0.31589 0.0
C2071 C 0.19148 0.292 0.30182 0.0
C2072 C 0.18495 0.2726 0.29072 0.0
C2073 C 0.18994 0.25727 0.29656 0.0
C2074 C 0.18218 0.2388 0.28721 0.0
C2075 C 0.16986 0.23552 0.27169 0.0
C2076 C 0.16499 0.25071 0.26569 0.0
C2077 C 0.17234 0.26919 0.27527 0.0
H2078 H 0.16397 0.2212 0.26443 0.0
H2079 H 0.2228 0.3956 0.37249 0.0
H2080 H 0.95489 0.09371 0.2104 0.0
H2081 H 0.97055 0.09167 0.18206 0.0
H2082 H 0.97978 0.03781 0.18878 0.0
H2083 H 0.96493 0.04048 0.21776 0.0
H2084 H 0.00747 0.05307 0.17535 0.0
H2085 H 0.94634 0.04674 0.15371 0.0
H2086 H 0.91755 0.05598 0.15207 0.0
H2087 H 0.94281 0.1075 0.13613 0.0
H2088 H 0.97178 0.09868 0.1379 0.0
H2089 H 0.02861 0.02362 0.08137 0.0
H2090 H 0.01499 0.02789 0.11091 0.0
H2091 H 0.01287 0.0845 0.10611 0.0
H2092 H 0.02642 0.08006 0.07628 0.0
H2093 H 0.98215 0.06861 0.11842 0.0
H2094 H 0.04302 0.07455 0.13922 0.0
H2095 H 0.0716 0.06481 0.13964 0.0
H2096 H 0.04659 0.01357 0.15624 0.0
H2097 H 0.0178 0.02291 0.15571 0.0
C2098 C 0.96026 0.08141 0.2059 0.0
C2099 C 0.95846 0.06728 0.21666 0.0
C2100 C 0.9692 0.0801 0.18936 0.0
C2101 C 0.97634 0.0643 0.18236 0.0
C2102 C 0.97463 0.05025 0.19332 0.0
C2103 C 0.96599 0.05174 0.21007 0.0
C2104 C 0.98549 0.06242 0.16395 0.0
C2105 C 0.00163 0.05627 0.16294 0.0
C2106 C 0.97865 0.06687 0.14729 0.0
C2107 C 0.96124 0.07213 0.14611 0.0
C2108 C 0.94576 0.06009 0.14996 0.0
C2109 C 0.92941 0.06525 0.149 0.0
C2110 C 0.92836 0.08234 0.14405 0.0
C2111 C 0.94364 0.09428 0.14 0.0
C2112 C 0.96003 0.08921 0.14096 0.0
C2113 C 0.02534 0.03705 0.08658 0.0
C2114 C 0.02878 0.05145 0.07617 0.0
C2115 C 0.01755 0.03957 0.10374 0.0
C2116 C 0.01274 0.05665 0.11138 0.0
C2117 C 0.01625 0.07111 0.10095 0.0
C2118 C 0.0242 0.06862 0.0838 0.0
C2119 C 0.00396 0.0592 0.1299 0.0
C2120 C 0.98793 0.06545 0.13089 0.0
C2121 C 0.01087 0.05481 0.1465 0.0
C2122 C 0.02823 0.04937 0.14731 0.0
C2123 C 0.04361 0.06117 0.1429 0.0
C2124 C 0.05984 0.05573 0.14316 0.0
C2125 C 0.0609 0.03857 0.14793 0.0
C2126 C 0.04574 0.02686 0.15254 0.0
C2127 C 0.02947 0.03223 0.15229 0.0
H2128 H 0.07348 0.03435 0.14809 0.0
H2129 H 0.91569 0.08631 0.14332 0.0
H2130 H 0.29781 0.65058 0.45395 0.0
H2131 H 0.2861 0.65975 0.42634 0.0
H2132 H 0.25994 0.69741 0.46112 0.0
H2133 H 0.27154 0.68851 0.48867 0.0
H2134 H 0.24383 0.68237 0.42195 0.0
H2135 H 0.29733 0.71754 0.46176 0.0
H2136 H 0.3242 0.71681 0.48093 0.0
H2137 H 0.34463 0.6897 0.43237 0.0
H2138 H 0.31752 0.68973 0.41302 0.0
H2139 H 0.25659 0.76855 0.39452 0.0
H2140 H 0.26432 0.74813 0.41481 0.0
H2141 H 0.27916 0.7122 0.36761 0.0
H2142 H 0.27137 0.73246 0.3472 0.0
H2143 H 0.30048 0.72309 0.40984 0.0
H2144 H 0.24342 0.69373 0.36994 0.0
H2145 H 0.21454 0.69631 0.35601 0.0
H2146 H 0.20021 0.71767 0.41035 0.0
H2147 H 0.22911 0.71536 0.42455 0.0
C2148 C 0.28958 0.66082 0.45562 0.0
C2149 C 0.28652 0.66983 0.47333 0.0
C2150 C 0.28242 0.66546 0.43992 0.0
C2151 C 0.27239 0.67925 0.442 0.0
C2152 C 0.26767 0.68669 0.45947 0.0
C2153 C 0.27493 0.68219 0.47515 0.0
C2154 C 0.27233 0.69041 0.42784 0.0
C2155 C 0.25615 0.69103 0.41898 0.0
C2156 C 0.28848 0.70215 0.42482 0.0
C2157 C 0.3054 0.70351 0.436 0.0
C2158 C 0.30756 0.7114 0.45519 0.0
C2159 C 0.32277 0.71104 0.4661 0.0
C2160 C 0.3361 0.70317 0.45788 0.0
C2161 C 0.33427 0.69575 0.43872 0.0
C2162 C 0.31897 0.69591 0.42777 0.0
C2163 C 0.2619 0.75653 0.38865 0.0
C2164 C 0.26312 0.75167 0.36947 0.0
C2165 C 0.26639 0.74508 0.40015 0.0
C2166 C 0.27199 0.7288 0.39238 0.0
C2167 C 0.27484 0.72486 0.37356 0.0
C2168 C 0.27037 0.73633 0.36204 0.0
C2169 C 0.27205 0.71454 0.40335 0.0
C2170 C 0.28823 0.71378 0.41209 0.0
C2171 C 0.25582 0.70321 0.40673 0.0
C2172 C 0.23843 0.70448 0.39825 0.0
C2173 C 0.23415 0.69909 0.37888 0.0
C2174 C 0.21777 0.70047 0.37095 0.0
C2175 C 0.20556 0.70717 0.38229 0.0
C2176 C 0.20968 0.71248 0.40158 0.0
C2177 C 0.22604 0.7111 0.40958 0.0
H2178 H 0.19289 0.70823 0.37612 0.0
H2179 H 0.34788 0.70288 0.46634 0.0
H2180 H 0.67983 0.02793 0.66608 0.0
H2181 H 0.65867 0.02772 0.63973 0.0
H2182 H 0.6234 0.0482 0.67825 0.0
H2183 H 0.64441 0.04939 0.70394 0.0
H2184 H 0.60934 0.01159 0.65222 0.0
H2185 H 0.63765 0.07713 0.658 0.0
H2186 H 0.66539 0.10189 0.66307 0.0
H2187 H 0.68154 0.07678 0.61095 0.0
H2188 H 0.65398 0.05162 0.60575 0.0
H2189 H 0.54786 0.03078 0.58508 0.0
H2190 H 0.56753 0.03303 0.61288 0.0
H2191 H 0.60571 0.01249 0.57832 0.0
H2192 H 0.58583 0.00966 0.55052 0.0
H2193 H 0.61697 0.05075 0.60384 0.0
H2194 H 0.5877 0.98442 0.59923 0.0
H2195 H 0.55989 0.9599 0.59557 0.0
H2196 H 0.54482 0.98756 0.64718 0.0
H2197 H 0.57241 0.01254 0.65091 0.0
C2198 C 0.66779 0.03287 0.6687 0.0
C2199 C 0.66325 0.03795 0.68681 0.0
C2200 C 0.65579 0.03258 0.65388 0.0
C2201 C 0.63954 0.03737 0.65755 0.0
C2202 C 0.6358 0.04403 0.67554 0.0
C2203 C 0.64779 0.04457 0.69014 0.0
C2204 C 0.62595 0.03477 0.64268 0.0
C2205 C 0.61081 0.02017 0.64167 0.0
C2206 C 0.6282 0.04633 0.62948 0.0
C2207 C 0.64377 0.06251 0.63147 0.0
C2208 C 0.64708 0.07695 0.64757 0.0
C2209 C 0.6628 0.091 0.65052 0.0
C2210 C 0.67524 0.09089 0.63735 0.0
C2211 C 0.67188 0.07684 0.62112 0.0
C2212 C 0.65619 0.0627 0.61814 0.0
C2213 C 0.55999 0.02586 0.58356 0.0
C2214 C 0.56557 0.02005 0.56605 0.0
C2215 C 0.57128 0.0275 0.59927 0.0
C2216 C 0.58793 0.02332 0.59715 0.0
C2217 C 0.59287 0.01602 0.57977 0.0
C2218 C 0.58155 0.01421 0.56414 0.0
C2219 C 0.60062 0.02719 0.61306 0.0
C2220 C 0.61547 0.04221 0.61442 0.0
C2221 C 0.59796 0.01616 0.62673 0.0
C2222 C 0.58208 1.00039 0.62532 0.0
C2223 C 0.57845 0.98529 0.60979 0.0
C2224 C 0.56271 0.97134 0.60767 0.0
C2225 C 0.55058 0.97219 0.62112 0.0
C2226 C 0.55423 0.98694 0.63677 0.0
C2227 C 0.56993 1.00099 0.63891 0.0
H2228 H 0.53836 0.96141 0.61943 0.0
H2229 H 0.68746 0.10171 0.6397 0.0
H2230 H 0.29957 0.38318 0.9576 0.0
H2231 H 0.29796 0.36456 0.9264 0.0
H2232 H 0.2875 0.31329 0.94791 0.0
H2233 H 0.28966 0.33218 0.97978 0.0
H2234 H 0.31138 0.31259 0.92159 0.0
H2235 H 0.25324 0.32422 0.92357 0.0
H2236 H 0.23207 0.34429 0.93233 0.0
H2237 H 0.25482 0.38135 0.89694 0.0
H2238 H 0.27622 0.3616 0.88807 0.0
H2239 H 0.29695 0.27472 0.81944 0.0
H2240 H 0.2947 0.27964 0.8534 0.0
H2241 H 0.30666 0.3399 0.8569 0.0
H2242 H 0.30896 0.33508 0.82343 0.0
H2243 H 0.27478 0.32702 0.87111 0.0
H2244 H 0.33719 0.32338 0.8795 0.0
H2245 H 0.36337 0.30937 0.87709 0.0
H2246 H 0.33415 0.25996 0.89398 0.0
H2247 H 0.308 0.27416 0.89728 0.0
C2248 C 0.29684 0.36794 0.95581 0.0
C2249 C 0.29457 0.35917 0.9712 0.0
C2250 C 0.29582 0.35727 0.93787 0.0
C2251 C 0.29208 0.33747 0.93469 0.0
C2252 C 0.29017 0.32855 0.95002 0.0
C2253 C 0.29143 0.33934 0.96819 0.0
C2254 C 0.29084 0.32661 0.91522 0.0
C2255 C 0.30292 0.31518 0.91057 0.0
C2256 C 0.27995 0.33015 0.9008 0.0
C2257 C 0.26631 0.34136 0.90509 0.0
C2258 C 0.25368 0.3366 0.91758 0.0
C2259 C 0.24166 0.34795 0.92261 0.0
C2260 C 0.2421 0.36409 0.91519 0.0
C2261 C 0.25447 0.36882 0.90263 0.0
C2262 C 0.26649 0.3575 0.89753 0.0
C2263 C 0.29972 0.28898 0.82763 0.0
C2264 C 0.30312 0.30454 0.81881 0.0
C2265 C 0.29828 0.29179 0.84699 0.0
C2266 C 0.30017 0.31016 0.85765 0.0
C2267 C 0.30488 0.32561 0.84897 0.0
C2268 C 0.30634 0.32284 0.82984 0.0
C2269 C 0.29595 0.31372 0.87745 0.0
C2270 C 0.28269 0.32371 0.88213 0.0
C2271 C 0.30574 0.3089 0.89188 0.0
C2272 C 0.32062 0.2996 0.88825 0.0
C2273 C 0.3363 0.3094 0.88242 0.0
C2274 C 0.35116 0.30151 0.88107 0.0
C2275 C 0.35035 0.28363 0.88508 0.0
C2276 C 0.33472 0.27373 0.89072 0.0
C2277 C 0.31992 0.28175 0.89247 0.0
H2278 H 0.36188 0.27751 0.88394 0.0
H2279 H 0.23286 0.37292 0.91918 0.0
H2280 H 0.99467 0.07303 0.32318 0.0
H2281 H 0.00788 0.0706 0.35333 0.0
H2282 H 0.95552 0.0536 0.37077 0.0
H2283 H 0.94224 0.05695 0.34062 0.0
H2284 H 0.97633 0.07311 0.40084 0.0
H2285 H 0.98529 0.02148 0.35333 0.0
H2286 H 0.99577 0.00933 0.32323 0.0
H2287 H 0.04897 0.0407 0.34286 0.0
H2288 H 0.03876 0.05321 0.37302 0.0
H2289 H 0.99676 0.02999 0.47426 0.0
H2290 H 0.98696 0.03565 0.44415 0.0
H2291 H 0.04152 0.05245 0.43272 0.0
H2292 H 0.05144 0.0463 0.46316 0.0
H2293 H 0.02201 0.03504 0.39972 0.0
H2294 H 0.01551 0.0862 0.44607 0.0
H2295 H 0.00688 0.10228 0.47564 0.0
H2296 H 0.95193 0.07592 0.45826 0.0
H2297 H 0.96026 0.05954 0.42864 0.0
C2298 C 0.98585 0.0692 0.33354 0.0
C2299 C 0.96721 0.06551 0.32915 0.0
C2300 C 0.99352 0.06746 0.35092 0.0
C2301 C 0.98298 0.06121 0.36473 0.0
C2302 C 0.9643 0.05829 0.36071 0.0
C2303 C 0.95659 0.06038 0.34333 0.0
C2304 C 0.99136 0.05727 0.38282 0.0
C2305 C 0.98608 0.0645 0.40037 0.0
C2306 C 0.00487 0.04675 0.38304 0.0
C2307 C 0.01124 0.03833 0.3654 0.0
C2308 C -0.00076 0.02574 0.35124 0.0
C2309 C 0.00511 0.01884 0.33415 0.0
C2310 C 0.02302 0.02427 0.33113 0.0
C2311 C 0.03511 0.03651 0.34523 0.0
C2312 C 0.02929 0.04348 0.36234 0.0
C2313 C 0.00681 0.0346 0.46531 0.0
C2314 C 0.025 0.03747 0.47151 0.0
C2315 C 0.00112 0.0381 0.44792 0.0
C2316 C 0.01327 0.04506 0.43575 0.0
C2317 C 0.03157 0.04722 0.4415 0.0
C2318 C 0.03733 0.04355 0.45904 0.0
C2319 C 0.00655 0.05042 0.41767 0.0
C2320 C 0.01219 0.04356 0.40017 0.0
C2321 C 0.99365 0.06164 0.41749 0.0
C2322 C 0.98852 0.07154 0.43519 0.0
C2323 C 0.00159 0.08376 0.44859 0.0
C2324 C 0.99676 0.09295 0.46535 0.0
C2325 C 0.97887 0.0901 0.46883 0.0
C2326 C 0.96578 0.07811 0.45554 0.0
C2327 C 0.97055 0.0689 0.43874 0.0
H2328 H 0.97515 0.09721 0.48182 0.0
H2329 H 0.02753 0.01897 0.31786 0.0
H2330 H 0.28788 0.68936 0.56619 0.0
H2331 H 0.28951 0.71282 0.59434 0.0
H2332 H 0.25883 0.67075 0.62072 0.0
H2333 H 0.25685 0.64675 0.59217 0.0
H2334 H 0.24699 0.70404 0.62399 0.0
H2335 H 0.30103 0.68417 0.63171 0.0
H2336 H 0.32922 0.67642 0.62253 0.0
H2337 H 0.35036 0.73421 0.61944 0.0
H2338 H 0.3221 0.74225 0.62808 0.0
H2339 H 0.26316 0.74642 0.71587 0.0
H2340 H 0.25993 0.72834 0.68486 0.0
H2341 H 0.29482 0.7744 0.66712 0.0
H2342 H 0.29949 0.7925 0.69934 0.0
H2343 H 0.30467 0.74147 0.65753 0.0
H2344 H 0.24906 0.76061 0.65291 0.0
H2345 H 0.22175 0.76656 0.66645 0.0
H2346 H 0.20412 0.70766 0.66731 0.0
H2347 H 0.23145 0.70139 0.6541 0.0
C2348 C 0.2815 0.68493 0.57794 0.0
C2349 C 0.2723 0.66618 0.57706 0.0
C2350 C 0.28254 0.69838 0.59399 0.0
C2351 C 0.27452 0.69328 0.60945 0.0
C2352 C 0.26517 0.67469 0.60875 0.0
C2353 C 0.26408 0.66109 0.59256 0.0
C2354 C 0.2755 0.70782 0.62604 0.0
C2355 C 0.25955 0.71219 0.63147 0.0
C2356 C 0.29205 0.71853 0.63521 0.0
C2357 C 0.30926 0.71378 0.6303 0.0
C2358 C 0.31158 0.69521 0.62886 0.0
C2359 C 0.3276 0.69076 0.62376 0.0
C2360 C 0.34154 0.7048 0.62032 0.0
C2361 C 0.33952 0.72333 0.62205 0.0
C2362 C 0.32348 0.72784 0.62703 0.0
C2363 C 0.27016 0.75297 0.70552 0.0
C2364 C 0.2823 0.77056 0.71021 0.0
C2365 C 0.26799 0.74263 0.68761 0.0
C2366 C 0.27693 0.75017 0.67371 0.0
C2367 C 0.28785 0.76846 0.67784 0.0
C2368 C 0.29051 0.77871 0.69614 0.0
C2369 C 0.27613 0.73775 0.65556 0.0
C2370 C 0.29213 0.73367 0.64977 0.0
C2371 C 0.2596 0.72708 0.64622 0.0
C2372 C 0.24233 0.73053 0.65243 0.0
C2373 C 0.23931 0.7489 0.65587 0.0
C2374 C 0.22386 0.75234 0.66358 0.0
C2375 C 0.21121 0.7375 0.66775 0.0
C2376 C 0.21391 0.71914 0.66404 0.0
C2377 C 0.22936 0.71562 0.65637 0.0
H2378 H 0.19932 0.74023 0.67385 0.0
H2379 H 0.35394 0.70132 0.61639 0.0
H2380 H 0.62953 0.04874 0.7857 0.0
H2381 H 0.62567 0.058 0.81819 0.0
H2382 H 0.67638 0.04661 0.83357 0.0
H2383 H 0.68038 0.037 0.80043 0.0
H2384 H 0.6472 0.0252 0.84486 0.0
H2385 H 0.67016 0.09143 0.85107 0.0
H2386 H 0.67484 0.12032 0.83807 0.0
H2387 H 0.61848 0.1162 0.83284 0.0
H2388 H 0.61344 0.08728 0.84567 0.0
H2389 H 0.6015 0.05026 0.9301 0.0
H2390 H 0.62252 0.04258 0.9077 0.0
H2391 H 0.58622 0.04682 0.86294 0.0
H2392 H 0.56503 0.0544 0.88527 0.0
H2393 H 0.62009 0.07651 0.87532 0.0
H2394 H 0.59424 0.01162 0.85545 0.0
H2395 H 0.58459 0.97698 0.84867 0.0
H2396 H 0.63792 0.97271 0.86289 0.0
H2397 H 0.64763 0.00725 0.87103 0.0
C2398 C 0.63993 0.04822 0.79593 0.0
C2399 C 0.65497 0.04159 0.79069 0.0
C2400 C 0.63799 0.05413 0.81451 0.0
C2401 C 0.65102 0.05349 0.82819 0.0
C2402 C 0.66645 0.04758 0.82306 0.0
C2403 C 0.6685 0.04176 0.80429 0.0
C2404 C 0.64578 0.05411 0.84707 0.0
C2405 C 0.64193 0.03662 0.85238 0.0
C2406 C 0.63841 0.06896 0.85583 0.0
C2407 C 0.64147 0.08728 0.8496 0.0
C2408 C 0.65878 0.09678 0.84731 0.0
C2409 C 0.66149 0.11313 0.83989 0.0
C2410 C 0.64697 0.12012 0.83467 0.0
C2411 C 0.62972 0.11085 0.83699 0.0
C2412 C 0.62694 0.09454 0.84446 0.0
C2413 C 0.59773 0.04883 0.91539 0.0
C2414 C 0.58189 0.0533 0.9093 0.0
C2415 C 0.60965 0.04425 0.90266 0.0
C2416 C 0.60579 0.04412 0.88382 0.0
C2417 C 0.58924 0.04674 0.87751 0.0
C2418 C 0.57733 0.05136 0.89022 0.0
C2419 C 0.62043 0.04699 0.87208 0.0
C2420 C 0.62615 0.06531 0.86874 0.0
C2421 C 0.62853 0.03243 0.86403 0.0
C2422 C 0.62162 0.01219 0.86429 0.0
C2423 C 0.60373 0.00339 0.85812 0.0
C2424 C 0.59827 0.98368 0.85382 0.0
C2425 C 0.61063 0.97263 0.85527 0.0
C2426 C 0.62828 0.98121 0.86191 0.0
C2427 C 0.63372 1.00086 0.86662 0.0
H2428 H 0.60656 0.95741 0.85112 0.0
H2429 H 0.64908 0.13269 0.8288 0.0
H2430 H 0.27789 0.32959 0.06904 0.0
H2431 H 0.27249 0.3164 0.09702 0.0
H2432 H 0.30479 0.3677 0.13094 0.0
H2433 H 0.31025 0.38096 0.10316 0.0
H2434 H 0.31398 0.33651 0.13837 0.0
H2435 H 0.26083 0.35896 0.13256 0.0
H2436 H 0.23251 0.36296 0.1187 0.0
H2437 H 0.21065 0.30329 0.1108 0.0
H2438 H 0.23892 0.29891 0.12443 0.0
H2439 H 0.29146 0.32732 0.2282 0.0
H2440 H 0.2916 0.33807 0.19891 0.0
H2441 H 0.26929 0.28109 0.16918 0.0
H2442 H 0.26982 0.26997 0.19837 0.0
H2443 H 0.25459 0.31311 0.15895 0.0
H2444 H 0.30837 0.29184 0.16719 0.0
H2445 H 0.33666 0.28937 0.18248 0.0
H2446 H 0.35752 0.34882 0.18706 0.0
H2447 H 0.32917 0.35177 0.17226 0.0
C2448 C 0.2839 0.338 0.08246 0.0
C2449 C 0.2946 0.35624 0.08392 0.0
C2450 C 0.28063 0.33055 0.09841 0.0
C2451 C 0.28809 0.34119 0.11599 0.0
C2452 C 0.29886 0.35933 0.11746 0.0
C2453 C 0.30202 0.36683 0.10158 0.0
C2454 C 0.2857 0.333 0.13278 0.0
C2455 C 0.301 0.33159 0.14299 0.0
C2456 C 0.26872 0.32616 0.13845 0.0
C2457 C 0.2521 0.32857 0.12921 0.0
C2458 C 0.25009 0.34665 0.12757 0.0
C2459 C 0.23401 0.349 0.11986 0.0
C2460 C 0.21981 0.33338 0.1138 0.0
C2461 C 0.22167 0.31537 0.11544 0.0
C2462 C 0.23772 0.31295 0.12315 0.0
C2463 C 0.28653 0.31696 0.21548 0.0
C2464 C 0.28116 0.29757 0.21564 0.0
C2465 C 0.2866 0.3232 0.1988 0.0
C2466 C 0.28088 0.31025 0.18202 0.0
C2467 C 0.27398 0.29118 0.18212 0.0
C2468 C 0.27423 0.28484 0.19887 0.0
C2469 C 0.28284 0.31677 0.16442 0.0
C2470 C 0.26752 0.3179 0.15415 0.0
C2471 C 0.29982 0.32355 0.15879 0.0
C2472 C 0.31652 0.32205 0.16878 0.0
C2473 C 0.31885 0.30446 0.17177 0.0
C2474 C 0.33494 0.30296 0.18025 0.0
C2475 C 0.34891 0.3189 0.18562 0.0
C2476 C 0.34672 0.33646 0.18279 0.0
C2477 C 0.33061 0.33806 0.17441 0.0
H2478 H 0.36139 0.31768 0.1921 0.0
H2479 H 0.20736 0.33524 0.1079 0.0
H2480 H 0.25309 0.92532 0.99446 0.0
H2481 H 0.22851 0.94144 0.99267 0.0
H2482 H 0.25523 0.98558 0.03881 0.0
H2483 H 0.27953 0.96968 0.04075 0.0
H2484 H 0.22015 0.96502 0.04278 0.0
H2485 H 0.25518 1.0004 0.00314 0.0
H2486 H 0.27296 1.00155 0.97621 0.0
H2487 H 0.22716 0.96993 0.93935 0.0
H2488 H 0.20913 0.96849 0.96616 0.0
H2489 H 0.18343 0.04527 0.05405 0.0
H2490 H 0.20502 0.02687 0.04306 0.0
H2491 H 0.16279 0.98291 0.01101 0.0
H2492 H 0.14097 1.00056 0.02262 0.0
H2493 H 0.20268 0.99948 0.99557 0.0
H2494 H 0.16824 0.96918 0.04231 0.0
H2495 H 0.15649 0.96868 0.07291 0.0
H2496 H 0.20868 0.99416 0.1005 0.0
H2497 H 0.22062 0.99548 0.07013 0.0
C2498 C 0.25347 0.93834 0.00429 0.0
C2499 C 0.26775 0.9462 0.01801 0.0
C2500 C 0.23975 0.94761 0.00302 0.0
C2501 C 0.2404 0.96455 0.01555 0.0
C2502 C 0.25479 0.9725 0.02902 0.0
C2503 C 0.26844 0.96336 0.03024 0.0
C2504 C 0.22515 0.97298 0.01649 0.0
C2505 C 0.21618 0.97248 0.03244 0.0
C2506 C 0.2204 0.98257 0.00288 0.0
C2507 C 0.23083 0.9843 0.98662 0.0
C2508 C 0.2489 0.99371 0.98928 0.0
C2509 C 0.25903 0.9944 0.97406 0.0
C2510 C 0.25119 0.9858 0.95608 0.0
C2511 C 0.23319 0.9766 0.95329 0.0
C2512 C 0.223 0.97588 0.96849 0.0
C2513 C 0.17874 0.03172 0.04463 0.0
C2514 C 0.16052 0.02433 0.03929 0.0
C2515 C 0.19106 0.02142 0.0382 0.0
C2516 C 0.18529 0.00378 0.02622 0.0
C2517 C 0.16731 0.9967 0.02008 0.0
C2518 C 0.15494 0.00683 0.02673 0.0
C2519 C 0.19784 0.9918 0.02218 0.0
C2520 C 0.20632 0.99162 0.00566 0.0
C2521 C 0.20281 0.98216 0.03573 0.0
C2522 C 0.19523 0.98275 0.05395 0.0
C2523 C 0.17712 0.97509 0.0549 0.0
C2524 C 0.17045 0.97452 0.07221 0.0
C2525 C 0.18182 0.98132 0.08863 0.0
C2526 C 0.19986 0.98892 0.08779 0.0
C2527 C 0.20656 0.98968 0.07055 0.0
H2528 H 0.17665 0.98069 0.10198 0.0
H2529 H 0.25906 0.98627 0.94431 0.0
H2530 H 0.73065 0.67252 0.02116 0.0
H2531 H 0.70125 0.65202 0.02188 0.0
H2532 H 0.70997 0.61379 0.97292 0.0
H2533 H 0.73954 0.63395 0.97247 0.0
H2534 H 0.67571 0.62262 0.97187 0.0
H2535 H 0.71482 0.60144 0.01179 0.0
H2536 H 0.73766 0.60556 0.03783 0.0
H2537 H 0.70304 0.62623 0.07651 0.0
H2538 H 0.68008 0.62253 0.05063 0.0
H2539 H 0.60405 0.54325 0.98109 0.0
H2540 H 0.63373 0.5619 0.97744 0.0
H2541 H 0.62892 0.60466 0.02441 0.0
H2542 H 0.59944 0.58691 0.02767 0.0
H2543 H 0.66193 0.59205 0.02571 0.0
H2544 H 0.62409 0.61566 0.98708 0.0
H2545 H 0.6019 0.61529 0.96165 0.0
H2546 H 0.63435 0.59298 0.92135 0.0
H2547 H 0.65658 0.59281 0.94662 0.0
C2548 C 0.7262 0.65983 0.01047 0.0
C2549 C 0.7373 0.65478 0.99674 0.0
C2550 C 0.70948 0.64809 0.01096 0.0
C2551 C 0.7035 0.63132 0.99751 0.0
C2552 C 0.71436 0.62662 0.98344 0.0
C2553 C 0.73122 0.63812 0.98321 0.0
C2554 C 0.68598 0.61855 0.99821 0.0
C2555 C 0.67278 0.61563 0.98346 0.0
C2556 C 0.68208 0.60986 0.01359 0.0
C2557 C 0.69578 0.61188 0.02923 0.0
C2558 C 0.71212 0.60702 0.02582 0.0
C2559 C 0.72509 0.60926 0.04056 0.0
C2560 C 0.72183 0.6162 0.05881 0.0
C2561 C 0.70556 0.62087 0.06236 0.0
C2562 C 0.69255 0.6187 0.04766 0.0
C2563 C 0.60931 0.55664 0.99058 0.0
C2564 C 0.5993 0.56338 0.00478 0.0
C2565 C 0.62625 0.56729 0.98848 0.0
C2566 C 0.63357 0.58462 0.00077 0.0
C2567 C 0.62362 0.59129 0.01487 0.0
C2568 C 0.60666 0.58099 0.01669 0.0
C2569 C 0.65162 0.59598 0.99925 0.0
C2570 C 0.66493 0.59875 0.01394 0.0
C2571 C 0.65558 0.6047 0.9839 0.0
C2572 C 0.64181 0.60382 0.96876 0.0
C2573 C 0.62633 0.61029 0.97283 0.0
C2574 C 0.61378 0.61026 0.95843 0.0
C2575 C 0.61666 0.604 0.93989 0.0
C2576 C 0.63209 0.59773 0.93572 0.0
C2577 C 0.64465 0.59765 0.95007 0.0
H2578 H 0.60698 0.60411 0.92876 0.0
H2579 H 0.73188 0.61793 0.0702 0.0
H2580 H 0.71825 0.46345 0.24876 0.0
H2581 H 0.73343 0.43741 0.24862 0.0
H2582 H 0.68845 0.40603 0.27029 0.0
H2583 H 0.67312 0.43194 0.27013 0.0
H2584 H 0.71783 0.40126 0.28808 0.0
H2585 H 0.69918 0.3916 0.22396 0.0
H2586 H 0.6951 0.40128 0.19396 0.0
H2587 H 0.75176 0.4179 0.19312 0.0
H2588 H 0.75616 0.40839 0.22322 0.0
H2589 H 0.74922 0.31769 0.28331 0.0
H2590 H 0.73242 0.3404 0.27768 0.0
H2591 H 0.77387 0.36572 0.24721 0.0
H2592 H 0.78969 0.34068 0.25052 0.0
H2593 H 0.74602 0.37396 0.23351 0.0
H2594 H 0.76338 0.38335 0.29978 0.0
H2595 H 0.76522 0.37215 0.32929 0.0
H2596 H 0.70822 0.35498 0.32559 0.0
H2597 H 0.70608 0.36593 0.29598 0.0
C2598 C 0.71141 0.45103 0.25345 0.0
C2599 C 0.69415 0.45034 0.25946 0.0
C2600 C 0.72022 0.43583 0.25328 0.0
C2601 C 0.71243 0.41905 0.25935 0.0
C2602 C 0.69522 0.41841 0.26549 0.0
C2603 C 0.68628 0.43348 0.26535 0.0
C2604 C 0.72225 0.40265 0.25968 0.0
C2605 C 0.72379 0.39531 0.27597 0.0
C2606 C 0.73047 0.3943 0.24423 0.0
C2607 C 0.728 0.39945 0.22589 0.0
C2608 C 0.71077 0.39736 0.21739 0.0
C2609 C 0.7084 0.40281 0.20038 0.0
C2610 C 0.72317 0.41026 0.19167 0.0
C2611 C 0.74034 0.41214 0.1999 0.0
C2612 C 0.74278 0.40668 0.21691 0.0
C2613 C 0.75505 0.3279 0.27527 0.0
C2614 C 0.77171 0.32717 0.26815 0.0
C2615 C 0.7453 0.34153 0.27233 0.0
C2616 C 0.75189 0.35637 0.26304 0.0
C2617 C 0.76817 0.35523 0.25501 0.0
C2618 C 0.77761 0.34083 0.25721 0.0
C2619 C 0.74192 0.3727 0.26213 0.0
C2620 C 0.74024 0.37999 0.24569 0.0
C2621 C 0.73336 0.38096 0.27744 0.0
C2622 C 0.73459 0.37537 0.29568 0.0
C2623 C 0.75126 0.37725 0.30533 0.0
C2624 C 0.75235 0.37089 0.32202 0.0
C2625 C 0.73685 0.36283 0.32929 0.0
C2626 C 0.72021 0.36123 0.31994 0.0
C2627 C 0.71905 0.36754 0.30323 0.0
H2628 H 0.73773 0.35784 0.34218 0.0
H2629 H 0.72131 0.41454 0.17852 0.0
H2630 H 0.87028 0.43488 0.49703 0.0
H2631 H 0.90181 0.44031 0.50488 0.0
H2632 H 0.89849 0.48232 0.55337 0.0
H2633 H 0.86675 0.47795 0.54454 0.0
H2634 H 0.9069 0.49759 0.52414 0.0
H2635 H 0.92702 0.44945 0.55111 0.0
H2636 H 0.92715 0.41651 0.55276 0.0
H2637 H 0.94347 0.40688 0.49734 0.0
H2638 H 0.94314 0.43962 0.49522 0.0
H2639 H 0.9939 0.54353 0.54289 0.0
H2640 H 0.96262 0.52991 0.53589 0.0
H2641 H 0.97345 0.48901 0.49005 0.0
H2642 H 0.00474 0.50012 0.49992 0.0
H2643 H 0.96066 0.47235 0.51359 0.0
H2644 H 0.94197 0.51946 0.48599 0.0
H2645 H 0.94445 0.55289 0.48415 0.0
H2646 H 0.92641 0.56414 0.53856 0.0
H2647 H 0.92373 0.53089 0.5408 0.0
C2648 C 0.87618 0.44487 0.50971 0.0
C2649 C 0.86676 0.45721 0.5194 0.0
C2650 C 0.89419 0.44756 0.51456 0.0
C2651 C 0.90252 0.46253 0.52908 0.0
C2652 C 0.89218 0.4712 0.54165 0.0
C2653 C 0.87426 0.46913 0.53634 0.0
C2654 C 0.91931 0.47412 0.52549 0.0
C2655 C 0.91883 0.49221 0.52227 0.0
C2656 C 0.9342 0.46651 0.5214 0.0
C2657 C 0.93494 0.44699 0.52299 0.0
C2658 C 0.93055 0.44029 0.53924 0.0
C2659 C 0.93066 0.42164 0.54025 0.0
C2660 C 0.93527 0.4096 0.52515 0.0
C2661 C 0.93989 0.41621 0.50903 0.0
C2662 C 0.93977 0.43482 0.50793 0.0
C2663 C 0.98959 0.53211 0.53095 0.0
C2664 C 0.00166 0.52328 0.52143 0.0
C2665 C 0.9716 0.52458 0.52656 0.0
C2666 C 0.96568 0.50856 0.51219 0.0
C2667 C 0.97781 0.50145 0.50108 0.0
C2668 C 0.99574 0.50806 0.50645 0.0
C2669 C 0.94852 0.4961 0.51309 0.0
C2670 C 0.9487 0.4777 0.51538 0.0
C2671 C 0.93322 0.50325 0.51592 0.0
C2672 C 0.93259 0.52262 0.51353 0.0
C2673 C 0.93834 0.52902 0.49748 0.0
C2674 C 0.9399 0.54795 0.49641 0.0
C2675 C 0.93571 0.56061 0.51125 0.0
C2676 C 0.92962 0.55431 0.52706 0.0
C2677 C 0.92794 0.53538 0.52818 0.0
H2678 H 0.93715 0.57531 0.51047 0.0
H2679 H 0.9353 0.39515 0.52595 0.0
H2680 H 0.41141 0.0971 0.30158 0.0
H2681 H 0.39701 0.11693 0.28637 0.0
H2682 H 0.34797 0.09651 0.30945 0.0
H2683 H 0.36202 0.07488 0.3233 0.0
H2684 H 0.34362 0.09538 0.27211 0.0
H2685 H 0.37634 0.1396 0.32751 0.0
H2686 H 0.40531 0.15156 0.34626 0.0
H2687 H 0.42833 0.17291 0.30031 0.0
H2688 H 0.39959 0.16056 0.28107 0.0
H2689 H 0.29051 0.15649 0.25991 0.0
H2690 H 0.31014 0.14142 0.27618 0.0
H2691 H 0.35437 0.16644 0.24841 0.0
H2692 H 0.33473 0.18177 0.23239 0.0
H2693 H 0.36427 0.16528 0.28441 0.0
H2694 H 0.33152 0.12485 0.22995 0.0
H2695 H 0.30491 0.10873 0.2084 0.0
H2696 H 0.28407 0.07757 0.24932 0.0
H2697 H 0.31024 0.09398 0.2714 0.0
C2698 C 0.39776 0.09738 0.30412 0.0
C2699 C 0.38778 0.08481 0.31388 0.0
C2700 C 0.38951 0.10847 0.29513 0.0
C2701 C 0.37155 0.10812 0.29695 0.0
C2702 C 0.36189 0.09674 0.30794 0.0
C2703 C 0.36995 0.08489 0.31625 0.0
C2704 C 0.36282 0.11973 0.28742 0.0
C2705 C 0.34788 0.11068 0.27493 0.0
C2706 C 0.36928 0.1395 0.29051 0.0
C2707 C 0.38579 0.14919 0.30285 0.0
C2708 C 0.38753 0.14702 0.32146 0.0
C2709 C 0.40396 0.1537 0.33212 0.0
C2710 C 0.41866 0.16297 0.32447 0.0
C2711 C 0.41692 0.16572 0.3062 0.0
C2712 C 0.40056 0.15889 0.29541 0.0
C2713 C 0.30445 0.15877 0.25748 0.0
C2714 C 0.31126 0.16955 0.24466 0.0
C2715 C 0.3156 0.15036 0.26676 0.0
C2716 C 0.33348 0.15262 0.26305 0.0
C2717 C 0.34053 0.16452 0.25121 0.0
C2718 C 0.32938 0.17299 0.24197 0.0
C2719 C 0.34423 0.14102 0.27005 0.0
C2720 C 0.35985 0.15 0.28166 0.0
C2721 C 0.33851 0.12109 0.26594 0.0
C2722 C 0.32283 0.11088 0.25247 0.0
C2723 C 0.32119 0.11473 0.23447 0.0
C2724 C 0.30616 0.10554 0.22215 0.0
C2725 C 0.29278 0.09218 0.22751 0.0
C2726 C 0.29442 0.08797 0.2452 0.0
C2727 C 0.30935 0.09725 0.25764 0.0
H2728 H 0.28117 0.08505 0.21794 0.0
H2729 H 0.43139 0.16805 0.33272 0.0
H2730 H 0.35484 0.18123 0.5057 0.0
H2731 H 0.38308 0.17075 0.50675 0.0
H2732 H 0.3536 0.11328 0.50169 0.0
H2733 H 0.32576 0.12353 0.50091 0.0
H2734 H 0.37701 0.13001 0.53522 0.0
H2735 H 0.37429 0.12336 0.46793 0.0
H2736 H 0.37466 0.13558 0.43892 0.0
H2737 H 0.42683 0.17058 0.45712 0.0
H2738 H 0.42661 0.15884 0.48646 0.0
H2739 H 0.42265 0.05961 0.52827 0.0
H2740 H 0.40375 0.07952 0.51897 0.0
H2741 H 0.44987 0.12515 0.52233 0.0
H2742 H 0.46895 0.10499 0.53148 0.0
H2743 H 0.42367 0.1225 0.49221 0.0
H2744 H 0.42677 0.1258 0.55851 0.0
H2745 H 0.42509 0.11379 0.58769 0.0
H2746 H 0.37071 0.08467 0.57085 0.0
H2747 H 0.37215 0.09623 0.54145 0.0
C2748 C 0.35448 0.16633 0.50437 0.0
C2749 C 0.33818 0.1532 0.50361 0.0
C2750 C 0.37056 0.16038 0.50491 0.0
C2751 C 0.37034 0.14127 0.50439 0.0
C2752 C 0.35401 0.12809 0.50216 0.0
C2753 C 0.33813 0.13399 0.50184 0.0
C2754 C 0.38656 0.13493 0.50917 0.0
C2755 C 0.38724 0.12839 0.52582 0.0
C2756 C 0.40019 0.1335 0.49719 0.0
C2757 C 0.40029 0.14049 0.47955 0.0
C2758 C 0.38573 0.13387 0.46589 0.0
C2759 C 0.38594 0.14066 0.44935 0.0
C2760 C 0.40072 0.15393 0.44622 0.0
C2761 C 0.41536 0.16036 0.45959 0.0
C2762 C 0.41519 0.15365 0.47618 0.0
C2763 C 0.42876 0.0738 0.52675 0.0
C2764 C 0.44716 0.08089 0.53069 0.0
C2765 C 0.41799 0.08514 0.52144 0.0
C2766 C 0.42538 0.10391 0.52031 0.0
C2767 C 0.44392 0.11073 0.5232 0.0
C2768 C 0.45477 0.09926 0.52842 0.0
C2769 C 0.41338 0.11655 0.51775 0.0
C2770 C 0.41363 0.12446 0.50175 0.0
C2771 C 0.40033 0.11913 0.53023 0.0
C2772 C 0.39962 0.11181 0.54774 0.0
C2773 C 0.41452 0.11669 0.56095 0.0
C2774 C 0.41359 0.10999 0.57755 0.0
C2775 C 0.39781 0.09848 0.58112 0.0
C2776 C 0.38292 0.0936 0.56808 0.0
C2777 C 0.38379 0.10022 0.55146 0.0
H2778 H 0.39711 0.09335 0.59399 0.0
H2779 H 0.40086 0.15916 0.4334 0.0
H2780 H 0.71696 0.56511 0.27537 0.0
H2781 H 0.7353 0.59742 0.27773 0.0
H2782 H 0.68816 0.61683 0.26557 0.0
H2783 H 0.67012 0.58525 0.26325 0.0
H2784 H 0.71162 0.63206 0.24645 0.0
H2785 H 0.71184 0.6288 0.30978 0.0
H2786 H 0.71594 0.61609 0.33801 0.0
H2787 H 0.77195 0.62398 0.33236 0.0
H2788 H 0.76813 0.63648 0.30387 0.0
H2789 H 0.7466 0.73228 0.26885 0.0
H2790 H 0.73084 0.70011 0.26925 0.0
H2791 H 0.78079 0.68438 0.27672 0.0
H2792 H 0.79678 0.71681 0.27618 0.0
H2793 H 0.75678 0.66701 0.29848 0.0
H2794 H 0.75338 0.67214 0.23352 0.0
H2795 H 0.74566 0.68474 0.20614 0.0
H2796 H 0.69081 0.67431 0.21741 0.0
H2797 H 0.69825 0.66197 0.24503 0.0
C2798 C 0.71047 0.57623 0.27323 0.0
C2799 C 0.69178 0.57201 0.26903 0.0
C2800 C 0.72104 0.59493 0.27469 0.0
C2801 C 0.71338 0.61014 0.27187 0.0
C2802 C 0.69479 0.60581 0.26774 0.0
C2803 C 0.68433 0.58738 0.26646 0.0
C2804 C 0.72434 0.63033 0.27256 0.0
C2805 C 0.72136 0.63963 0.258 0.0
C2806 C 0.73725 0.64079 0.28746 0.0
C2807 C 0.73967 0.6333 0.30453 0.0
C2808 C 0.72501 0.62764 0.31444 0.0
C2809 C 0.72728 0.62051 0.33051 0.0
C2810 C 0.74419 0.61915 0.33693 0.0
C2811 C 0.75886 0.62499 0.32733 0.0
C2812 C 0.75665 0.6321 0.31122 0.0
C2813 C 0.75446 0.72214 0.27059 0.0
C2814 C 0.77331 0.72772 0.27236 0.0
C2815 C 0.74524 0.70341 0.27072 0.0
C2816 C 0.75431 0.68914 0.27276 0.0
C2817 C 0.77314 0.69471 0.27502 0.0
C2818 C 0.78242 0.7135 0.27463 0.0
C2819 C 0.74414 0.66863 0.27221 0.0
C2820 C 0.74716 0.65935 0.28687 0.0
C2821 C 0.73077 0.65832 0.25767 0.0
C2822 C 0.72643 0.66635 0.24146 0.0
C2823 C 0.73972 0.67275 0.23028 0.0
C2824 C 0.73538 0.6798 0.21469 0.0
C2825 C 0.71777 0.68036 0.21006 0.0
C2826 C 0.70445 0.6739 0.22103 0.0
C2827 C 0.70873 0.6669 0.23666 0.0
H2828 H 0.71443 0.68577 0.19795 0.0
H2829 H 0.74593 0.61363 0.34938 0.0
H2830 H 0.90107 0.46005 0.76233 0.0
H2831 H 0.87745 0.4315 0.75976 0.0
H2832 H 0.85175 0.46053 0.80329 0.0
H2833 H 0.87522 0.4888 0.80626 0.0
H2834 H 0.85974 0.42695 0.80871 0.0
H2835 H 0.83264 0.45161 0.76151 0.0
H2836 H 0.83334 0.46542 0.73342 0.0
H2837 H 0.84386 0.41485 0.70123 0.0
H2838 H 0.84404 0.40106 0.72919 0.0
H2839 H 0.79353 0.3344 0.7813 0.0
H2840 H 0.80089 0.36897 0.78613 0.0
H2841 H 0.85109 0.3669 0.76359 0.0
H2842 H 0.84538 0.33315 0.76225 0.0
H2843 H 0.82169 0.39063 0.7515 0.0
H2844 H 0.86407 0.37544 0.79556 0.0
H2845 H 0.87446 0.36363 0.82219 0.0
H2846 H 0.84617 0.39729 0.85828 0.0
H2847 H 0.83436 0.4081 0.83139 0.0
C2848 C 0.89037 0.46025 0.77129 0.0
C2849 C 0.88979 0.47647 0.78437 0.0
C2850 C 0.87686 0.44419 0.76963 0.0
C2851 C 0.86285 0.44445 0.78102 0.0
C2852 C 0.86237 0.4605 0.79419 0.0
C2853 C 0.87579 0.47648 0.79588 0.0
C2854 C 0.84987 0.42718 0.78081 0.0
C2855 C 0.85086 0.4192 0.7965 0.0
C2856 C 0.83895 0.41727 0.76453 0.0
C2857 C 0.83834 0.4253 0.7475 0.0
C2858 C 0.83525 0.44349 0.74846 0.0
C2859 C 0.8356 0.45136 0.73256 0.0
C2860 C 0.8388 0.44108 0.71555 0.0
C2861 C 0.8416 0.42289 0.71441 0.0
C2862 C 0.84146 0.41503 0.73029 0.0
C2863 C 0.80656 0.34154 0.77865 0.0
C2864 C 0.81957 0.33151 0.77324 0.0
C2865 C 0.81047 0.36103 0.7808 0.0
C2866 C 0.82678 0.37008 0.77591 0.0
C2867 C 0.83876 0.35986 0.76815 0.0
C2868 C 0.83552 0.34071 0.7675 0.0
C2869 C 0.83204 0.39032 0.77922 0.0
C2870 C 0.82967 0.39886 0.76412 0.0
C2871 C 0.84261 0.40049 0.79567 0.0
C2872 C 0.84746 0.39174 0.81121 0.0
C2873 C 0.85916 0.37947 0.80889 0.0
C2874 C 0.86554 0.37316 0.82412 0.0
C2875 C 0.86089 0.37961 0.84192 0.0
C2876 C 0.84965 0.39218 0.84445 0.0
C2877 C 0.84284 0.39813 0.82916 0.0
H2878 H 0.86604 0.37491 0.85375 0.0
H2879 H 0.83902 0.44717 0.70324 0.0
H2880 H 0.0985 0.85905 0.06269 0.0
H2881 H 0.09379 0.88598 0.04935 0.0
H2882 H 0.05318 0.8937 0.08632 0.0
H2883 H 0.0581 0.86728 0.09992 0.0
H2884 H 0.04271 0.89428 0.04935 0.0
H2885 H 0.09234 0.92547 0.0961 0.0
H2886 H 0.12242 0.9285 0.11107 0.0
H2887 H 0.14444 0.93254 0.05901 0.0
H2888 H 0.11447 0.92969 0.04379 0.0
H2889 H 0.03818 0.99235 0.06177 0.0
H2890 H 0.04266 0.96139 0.06541 0.0
H2891 H 0.07059 0.95748 0.016 0.0
H2892 H 0.06484 0.98796 0.0115 0.0
H2893 H 0.08897 0.9533 0.05417 0.0
H2894 H 0.04039 0.92513 0.00778 0.0
H2895 H 0.01065 0.91612 0.99045 0.0
H2896 H 0.98691 0.90347 0.03958 0.0
H2897 H 0.01655 0.91229 0.05718 0.0
C2898 C 0.0886 0.86653 0.06799 0.0
C2899 C 0.07873 0.86101 0.08246 0.0
C2900 C 0.08596 0.88198 0.06039 0.0
C2901 C 0.07315 0.89201 0.06685 0.0
C2902 C 0.06315 0.88629 0.08108 0.0
C2903 C 0.06603 0.87117 0.08891 0.0
C2904 C 0.06986 0.90832 0.05881 0.0
C2905 C 0.0528 0.90723 0.05054 0.0
C2906 C 0.08315 0.92501 0.05967 0.0
C2907 C 0.1012 0.92728 0.06882 0.0
C2908 C 0.10362 0.92701 0.08787 0.0
C2909 C 0.12064 0.92874 0.0964 0.0
C2910 C 0.13534 0.93072 0.086 0.0
C2911 C 0.13305 0.93105 0.06706 0.0
C2912 C 0.11606 0.92948 0.05849 0.0
C2913 C 0.04445 0.98447 0.05113 0.0
C2914 C 0.05034 0.99225 0.03585 0.0
C2915 C 0.04727 0.96686 0.05338 0.0
C2916 C 0.05691 0.95696 0.04096 0.0
C2917 C 0.06292 0.96468 0.02566 0.0
C2918 C 0.05944 0.98201 0.02298 0.0
C2919 C 0.06161 0.93938 0.04503 0.0
C2920 C 0.07892 0.94028 0.05273 0.0
C2921 C 0.04858 0.92239 0.04352 0.0
C2922 C 0.03066 0.91953 0.03382 0.0
C2923 C 0.0288 0.92077 0.01498 0.0
C2924 C 0.01199 0.91547 0.00505 0.0
C2925 C 0.99694 0.90904 0.01388 0.0
C2926 C 0.99861 0.90831 0.03274 0.0
C2927 C 0.0154 0.91343 0.04269 0.0
H2928 H 0.98395 0.90468 0.00611 0.0
H2929 H 0.1485 0.93201 0.09262 0.0
H2930 H 0.97153 0.26645 0.86045 0.0
H2931 H 0.94279 0.2671 0.84607 0.0
H2932 H 0.91901 0.25964 0.89678 0.0
H2933 H 0.94832 0.25898 0.9116 0.0
H2934 H 0.89698 0.23816 0.86215 0.0
H2935 H 0.92549 0.30257 0.88901 0.0
H2936 H 0.95156 0.32946 0.89648 0.0
H2937 H 0.95631 0.32749 0.83812 0.0
H2938 H 0.93028 0.30052 0.83032 0.0
H2939 H 0.82017 0.26684 0.82545 0.0
H2940 H 0.84527 0.26373 0.84575 0.0
H2941 H 0.88074 0.27636 0.80406 0.0
H2942 H 0.85589 0.27965 0.78405 0.0
H2943 H 0.89542 0.29625 0.8382 0.0
H2944 H 0.86887 0.23136 0.81117 0.0
H2945 H 0.84533 0.20208 0.80275 0.0
H2946 H 0.83808 0.20359 0.86062 0.0
H2947 H 0.8615 0.23299 0.86936 0.0
C2948 C 0.96026 0.26478 0.86868 0.0
C2949 C 0.96248 0.26282 0.88735 0.0
C2950 C 0.94371 0.26519 0.86034 0.0
C2951 C 0.92862 0.26373 0.8703 0.0
C2952 C 0.93042 0.26086 0.88873 0.0
C2953 C 0.9472 0.26042 0.8972 0.0
C2954 C 0.91151 0.26618 0.86132 0.0
C2955 C 0.89646 0.25105 0.85736 0.0
C2956 C 0.91083 0.28276 0.85453 0.0
C2957 C 0.92594 0.29955 0.85908 0.0
C2958 C 0.93208 0.30791 0.87778 0.0
C2959 C 0.94685 0.32315 0.88207 0.0
C2960 C 0.95559 0.33017 0.86778 0.0
C2961 C 0.9495 0.32205 0.84917 0.0
C2962 C 0.93469 0.30683 0.8448 0.0
C2963 C 0.83329 0.26876 0.82054 0.0
C2964 C 0.8358 0.27291 0.80275 0.0
C2965 C 0.84769 0.26694 0.83217 0.0
C2966 C 0.86508 0.26962 0.8265 0.0
C2967 C 0.86757 0.27406 0.80886 0.0
C2968 C 0.85319 0.27561 0.79718 0.0
C2969 C 0.88075 0.26816 0.83888 0.0
C2970 C 0.89566 0.28349 0.84335 0.0
C2971 C 0.88126 0.25174 0.84611 0.0
C2972 C 0.86677 0.23448 0.8409 0.0
C2973 C 0.8621 0.22556 0.82208 0.0
C2974 C 0.84884 0.20891 0.81726 0.0
C2975 C 0.84019 0.201 0.83114 0.0
C2976 C 0.84478 0.20975 0.84988 0.0
C2977 C 0.85805 0.22639 0.85478 0.0
H2978 H 0.82995 0.18808 0.82738 0.0
H2979 H 0.96708 0.34192 0.87113 0.0
H2980 H 0.56239 0.23037 0.60638 0.0
H2981 H 0.55904 0.19801 0.58979 0.0
H2982 H 0.57712 0.21772 0.54087 0.0
H2983 H 0.58044 0.25074 0.55759 0.0
H2984 H 0.54749 0.18273 0.53446 0.0
H2985 H 0.60698 0.20623 0.56515 0.0
H2986 H 0.6284 0.22349 0.59205 0.0
H2987 H 0.60371 0.18534 0.62557 0.0
H2988 H 0.58204 0.16799 0.59894 0.0
H2989 H 0.55557 0.0837 0.50944 0.0
H2990 H 0.56024 0.11813 0.51204 0.0
H2991 H 0.55906 0.12508 0.57165 0.0
H2992 H 0.55511 0.09121 0.56913 0.0
H2993 H 0.58535 0.14896 0.56538 0.0
H2994 H 0.52342 0.129 0.53879 0.0
H2995 H 0.49614 0.11819 0.51706 0.0
H2996 H 0.52094 0.15069 0.47886 0.0
H2997 H 0.54843 0.1615 0.5002 0.0
C2998 C 0.56552 0.22797 0.59202 0.0
C2999 C 0.57202 0.24326 0.58346 0.0
C3000 C 0.56354 0.20937 0.58252 0.0
C3001 C 0.56816 0.20538 0.56421 0.0
C3002 C 0.57358 0.22047 0.55506 0.0
C3003 C 0.57548 0.23932 0.56462 0.0
C3004 C 0.56852 0.18549 0.5557 0.0
C3005 C 0.55604 0.1753 0.54082 0.0
C3006 C 0.57947 0.17581 0.56424 0.0
C3007 C 0.59292 0.18581 0.58005 0.0
C3008 C 0.60613 0.20153 0.57826 0.0
C3009 C 0.6183 0.21134 0.59347 0.0
C3010 C 0.61742 0.20551 0.61051 0.0
C3011 C 0.6044 0.18982 0.61236 0.0
C3012 C 0.59221 0.17996 0.5972 0.0
C3013 C 0.55666 0.09267 0.52311 0.0
C3014 C 0.55532 0.08471 0.53916 0.0
C3015 C 0.55901 0.11235 0.52455 0.0
C3016 C 0.55992 0.12441 0.54206 0.0
C3017 C 0.55853 0.11629 0.55795 0.0
C3018 C 0.55634 0.09684 0.55653 0.0
C3019 C 0.56346 0.14554 0.54466 0.0
C3020 C 0.57698 0.15618 0.55848 0.0
C3021 C 0.55317 0.15542 0.53526 0.0
C3022 C 0.53809 0.14588 0.52102 0.0
C3023 C 0.52325 0.13341 0.52553 0.0
C3024 C 0.50766 0.12748 0.51338 0.0
C3025 C 0.50675 0.13398 0.49674 0.0
C3026 C 0.52163 0.14578 0.49182 0.0
C3027 C 0.53723 0.15174 0.50389 0.0
H3028 H 0.49451 0.12988 0.48763 0.0
H3029 H 0.62682 0.21315 0.62227 0.0
H3030 H 0.58386 0.76618 0.42758 0.0
H3031 H 0.61126 0.76988 0.41171 0.0
H3032 H 0.5809 0.77025 0.36085 0.0
H3033 H 0.55362 0.76573 0.37639 0.0
H3034 H 0.60176 0.74876 0.35263 0.0
H3035 H 0.6107 0.81119 0.39065 0.0
H3036 H 0.61389 0.83477 0.41996 0.0
H3037 H 0.65881 0.81605 0.43994 0.0
H3038 H 0.65575 0.79218 0.41082 0.0
H3039 H 0.6668 0.78607 0.29711 0.0
H3040 H 0.64261 0.77842 0.3164 0.0
H3041 H 0.6805 0.7774 0.36119 0.0
H3042 H 0.70498 0.78562 0.34179 0.0
H3043 H 0.65774 0.79676 0.37492 0.0
H3044 H 0.64848 0.73479 0.33516 0.0
H3045 H 0.64338 0.71062 0.30606 0.0
H3046 H 0.59753 0.72957 0.28899 0.0
H3047 H 0.60239 0.75388 0.31792 0.0
C3048 C 0.58308 0.76707 0.41301 0.0
C3049 C 0.5665 0.76547 0.40322 0.0
C3050 C 0.59881 0.76935 0.40395 0.0
C3051 C 0.59837 0.77052 0.38498 0.0
C3052 C 0.58177 0.76928 0.3754 0.0
C3053 C 0.56609 0.76667 0.38432 0.0
C3054 C 0.61478 0.77198 0.37461 0.0
C3055 C 0.6139 0.75947 0.35747 0.0
C3056 C 0.63101 0.78542 0.38109 0.0
C3057 C 0.63285 0.79974 0.39863 0.0
C3058 C 0.62116 0.81199 0.40135 0.0
C3059 C 0.62297 0.82543 0.41792 0.0
C3060 C 0.63651 0.82686 0.43183 0.0
C3061 C 0.6483 0.81489 0.42917 0.0
C3062 C 0.64654 0.80142 0.41263 0.0
C3063 C 0.67 0.78384 0.31094 0.0
C3064 C 0.68787 0.78634 0.31781 0.0
C3065 C 0.65607 0.77934 0.32201 0.0
C3066 C 0.65948 0.77703 0.34034 0.0
C3067 C 0.67735 0.77899 0.34711 0.0
C3068 C 0.69138 0.78349 0.33594 0.0
C3069 C 0.64446 0.77389 0.3526 0.0
C3070 C 0.64562 0.78601 0.37015 0.0
C3071 C 0.6283 0.76025 0.34642 0.0
C3072 C 0.62591 0.74625 0.32862 0.0
C3073 C 0.63743 0.73393 0.3251 0.0
C3074 C 0.63453 0.72015 0.30867 0.0
C3075 C 0.62017 0.71858 0.29567 0.0
C3076 C 0.60866 0.7308 0.29905 0.0
C3077 C 0.61147 0.74455 0.31547 0.0
H3078 H 0.61793 0.70788 0.28299 0.0
H3079 H 0.63788 0.83728 0.44464 0.0
H3080 H 0.08072 0.28147 0.44061 0.0
H3081 H 0.07607 0.25535 0.45726 0.0
H3082 H 0.0876 0.21832 0.40875 0.0
H3083 H 0.09136 0.24403 0.39184 0.0
H3084 H 0.05928 0.20232 0.42252 0.0
H3085 H 0.11852 0.23653 0.44746 0.0
H3086 H 0.14022 0.26617 0.46144 0.0
H3087 H 0.11092 0.27281 0.5095 0.0
H3088 H 0.08892 0.24331 0.49572 0.0
H3089 H 0.05301 0.12823 0.47261 0.0
H3090 H 0.06573 0.15114 0.45401 0.0
H3091 H 0.06155 0.19674 0.49869 0.0
H3092 H 0.04997 0.17409 0.51763 0.0
H3093 H 0.09026 0.20683 0.48458 0.0
H3094 H 0.02954 0.17569 0.45865 0.0
H3095 H 0.00406 0.15094 0.44212 0.0
H3096 H 0.03352 0.14148 0.39452 0.0
H3097 H 0.05929 0.16587 0.41089 0.0
C3098 C 0.08219 0.26771 0.43357 0.0
C3099 C 0.0863 0.26459 0.41502 0.0
C3100 C 0.0797 0.25292 0.44309 0.0
C3101 C 0.08187 0.2351 0.43428 0.0
C3102 C 0.08595 0.23203 0.41574 0.0
C3103 C 0.08802 0.24666 0.40612 0.0
C3104 C 0.07911 0.21933 0.44407 0.0
C3105 C 0.06631 0.20302 0.43592 0.0
C3106 C 0.08814 0.22069 0.46163 0.0
C3107 C 0.10207 0.23769 0.47055 0.0
C3108 C 0.11674 0.24428 0.46104 0.0
C3109 C 0.12906 0.26108 0.46891 0.0
C3110 C 0.12694 0.27137 0.48634 0.0
C3111 C 0.11256 0.2648 0.49601 0.0
C3112 C 0.10019 0.24801 0.4882 0.0
C3113 C 0.05517 0.14316 0.47858 0.0
C3114 C 0.05027 0.14942 0.49649 0.0
C3115 C 0.06225 0.15621 0.46786 0.0
C3116 C 0.06425 0.17563 0.47483 0.0
C3117 C 0.06006 0.18183 0.49298 0.0
C3118 C 0.05323 0.16887 0.50373 0.0
C3119 C 0.06998 0.18971 0.46322 0.0
C3120 C 0.08348 0.20579 0.47099 0.0
C3121 C 0.06145 0.1882 0.44526 0.0
C3122 C 0.0465 0.17234 0.43619 0.0
C3123 C 0.03073 0.16805 0.44482 0.0
C3124 C 0.01619 0.15415 0.43543 0.0
C3125 C 0.0172 0.14459 0.41732 0.0
C3126 C 0.03278 0.14882 0.40859 0.0
C3127 C 0.04737 0.16262 0.41795 0.0
H3128 H 0.00588 0.13394 0.41003 0.0
H3129 H 0.13644 0.28443 0.49237 0.0
H3130 H 0.54091 0.24695 0.1923 0.0
H3131 H 0.56927 0.24099 0.20267 0.0
H3132 H 0.5964 0.27864 0.16941 0.0
H3133 H 0.56776 0.28358 0.15809 0.0
H3134 H 0.60948 0.24916 0.16621 0.0
H3135 H 0.59309 0.29128 0.2171 0.0
H3136 H 0.57341 0.30131 0.24048 0.0
H3137 H 0.57691 0.25454 0.26621 0.0
H3138 H 0.59614 0.24383 0.24262 0.0
H3139 H 0.6933 0.27375 0.22794 0.0
H3140 H 0.66731 0.27327 0.20717 0.0
H3141 H 0.63941 0.22198 0.22224 0.0
H3142 H 0.66536 0.22224 0.24285 0.0
H3143 H 0.62743 0.25835 0.23373 0.0
H3144 H 0.64449 0.21701 0.18208 0.0
H3145 H 0.6629 0.20695 0.15737 0.0
H3146 H 0.65884 0.2546 0.13327 0.0
H3147 H 0.64077 0.26524 0.1581 0.0
C3148 C 0.55297 0.25412 0.18747 0.0
C3149 C 0.55248 0.26614 0.17492 0.0
C3150 C 0.56911 0.25066 0.19329 0.0
C3151 C 0.58491 0.25974 0.18711 0.0
C3152 C 0.58432 0.27161 0.17438 0.0
C3153 C 0.56811 0.27459 0.16812 0.0
C3154 C 0.60212 0.25708 0.19405 0.0
C3155 C 0.61356 0.25141 0.18098 0.0
C3156 C 0.60714 0.25981 0.21335 0.0
C3157 C 0.59594 0.26661 0.2279 0.0
C3158 C 0.58956 0.28302 0.22763 0.0
C3159 C 0.57845 0.28881 0.24091 0.0
C3160 C 0.57386 0.27853 0.25478 0.0
C3161 C 0.58042 0.26246 0.25542 0.0
C3162 C 0.59141 0.2565 0.24207 0.0
C3163 C 0.68188 0.26197 0.22621 0.0
C3164 C 0.68111 0.24813 0.2371 0.0
C3165 C 0.66712 0.2617 0.21434 0.0
C3166 C 0.65162 0.24756 0.21329 0.0
C3167 C 0.6514 0.23288 0.2229 0.0
C3168 C 0.6661 0.23314 0.23473 0.0
C3169 C 0.63468 0.25032 0.20588 0.0
C3170 C 0.62335 0.25617 0.21896 0.0
C3171 C 0.62995 0.2481 0.18665 0.0
C3172 C 0.64152 0.24212 0.17221 0.0
C3173 C 0.64781 0.22558 0.17176 0.0
C3174 C 0.65812 0.21971 0.15765 0.0
C3175 C 0.6621 0.23017 0.1438 0.0
C3176 C 0.6558 0.24654 0.14404 0.0
C3177 C 0.64555 0.25251 0.15815 0.0
H3178 H 0.67002 0.22556 0.13286 0.0
H3179 H 0.56527 0.28305 0.26506 0.0
H3180 H 0.59404 0.88043 0.88441 0.0
H3181 H 0.58448 0.90514 0.90546 0.0
H3182 H 0.61621 0.89583 0.95149 0.0
H3183 H 0.62478 0.86984 0.93049 0.0
H3184 H 0.58087 0.89858 0.95882 0.0
H3185 H 0.63223 0.93405 0.93117 0.0
H3186 H 0.64593 0.93836 0.90212 0.0
H3187 H 0.59824 0.95107 0.88037 0.0
H3188 H 0.58461 0.94728 0.90922 0.0
H3189 H 0.57366 0.98216 0.01886 0.0
H3190 H 0.58656 0.9581 0.00112 0.0
H3191 H 0.56133 0.96572 0.95013 0.0
H3192 H 0.54972 0.99069 0.96746 0.0
H3193 H 0.59471 0.96393 0.94713 0.0
H3194 H 0.54247 0.93022 0.96868 0.0
H3195 H 0.52356 0.9258 0.9943 0.0
H3196 H 0.5645 0.90783 0.02309 0.0
H3197 H 0.58382 0.91253 0.99778 0.0
C3198 C 0.59942 0.8841 0.8989 0.0
C3199 C 0.61049 0.87385 0.90594 0.0
C3200 C 0.59378 0.89794 0.9109 0.0
C3201 C 0.59989 0.90225 0.92983 0.0
C3202 C 0.61147 0.8925 0.93683 0.0
C3203 C 0.61662 0.87809 0.92489 0.0
C3204 C 0.59445 0.91737 0.94214 0.0
C3205 C 0.58412 0.91295 0.95657 0.0
C3206 C 0.5982 0.93579 0.93854 0.0
C3207 C 0.60747 0.94046 0.92232 0.0
C3208 C 0.62487 0.93812 0.92026 0.0
C3209 C 0.63262 0.94046 0.90381 0.0
C3210 C 0.62304 0.94505 0.88937 0.0
C3211 C 0.60585 0.94776 0.89152 0.0
C3212 C 0.59813 0.94566 0.90798 0.0
C3213 C 0.57066 0.97859 0.00401 0.0
C3214 C 0.55985 0.98761 0.99479 0.0
C3215 C 0.57811 0.96497 0.9939 0.0
C3216 C 0.57448 0.96015 0.97454 0.0
C3217 C 0.564 0.96929 0.96518 0.0
C3218 C 0.55694 0.98315 0.97523 0.0
C3219 C 0.58131 0.94522 0.96386 0.0
C3220 C 0.59179 0.94965 0.94969 0.0
C3221 C 0.57697 0.92674 0.96723 0.0
C3222 C 0.56462 0.92173 0.98134 0.0
C3223 C 0.5474 0.9252 0.98041 0.0
C3224 C 0.53664 0.92276 0.99493 0.0
C3225 C 0.54284 0.91657 0.01033 0.0
C3226 C 0.55972 0.91262 0.01114 0.0
C3227 C 0.57058 0.91513 0.9967 0.0
H3228 H 0.53455 0.91481 0.02162 0.0
H3229 H 0.62887 0.94623 0.87644 0.0
H3230 H 0.95701 0.73784 0.71484 0.0
H3231 H 0.92695 0.73749 0.72287 0.0
H3232 H 0.91359 0.75196 0.67039 0.0
H3233 H 0.94388 0.75268 0.66229 0.0
H3234 H 0.91335 0.77915 0.7006 0.0
H3235 H 0.8872 0.71372 0.68122 0.0
H3236 H 0.88903 0.68036 0.67694 0.0
H3237 H 0.89535 0.68538 0.73629 0.0
H3238 H 0.89371 0.71883 0.74093 0.0
H3239 H 0.82672 0.77853 0.72644 0.0
H3240 H 0.85499 0.77817 0.71364 0.0
H3241 H 0.87716 0.77033 0.766 0.0
H3242 H 0.8489 0.77232 0.77944 0.0
H3243 H 0.87092 0.7389 0.73312 0.0
H3244 H 0.90264 0.80366 0.75243 0.0
H3245 H 0.90915 0.83838 0.75739 0.0
H3246 H 0.89517 0.83486 0.69923 0.0
H3247 H 0.88917 0.80006 0.69383 0.0
C3248 C 0.94758 0.74054 0.70483 0.0
C3249 C 0.95285 0.74612 0.68839 0.0
C3250 C 0.93033 0.73994 0.70924 0.0
C3251 C 0.91824 0.74472 0.69715 0.0
C3252 C 0.9229 0.74823 0.67978 0.0
C3253 C 0.94022 0.74896 0.6754 0.0
C3254 C 0.90307 0.75091 0.7049 0.0
C3255 C 0.90362 0.77024 0.7072 0.0
C3256 C 0.89112 0.73932 0.71405 0.0
C3257 C 0.89028 0.71877 0.71142 0.0
C3258 C 0.88885 0.70766 0.69336 0.0
C3259 C 0.88993 0.68876 0.69087 0.0
C3260 C 0.89233 0.68076 0.70633 0.0
C3261 C 0.89345 0.69159 0.72432 0.0
C3262 C 0.89235 0.7105 0.7269 0.0
C3263 C 0.83805 0.77823 0.7356 0.0
C3264 C 0.83617 0.77624 0.754 0.0
C3265 C 0.85408 0.77787 0.72828 0.0
C3266 C 0.86796 0.77438 0.73903 0.0
C3267 C 0.8665 0.77337 0.75778 0.0
C3268 C 0.85051 0.77441 0.76534 0.0
C3269 C 0.88161 0.7672 0.7291 0.0
C3270 C 0.88048 0.74767 0.72624 0.0
C3271 C 0.89311 0.77858 0.71942 0.0
C3272 C 0.89532 0.79932 0.72277 0.0
C3273 C 0.90076 0.8103 0.74074 0.0
C3274 C 0.90451 0.82999 0.7436 0.0
C3275 C 0.90252 0.83884 0.72865 0.0
C3276 C 0.89676 0.828 0.71079 0.0
C3277 C 0.8933 0.8083 0.7078 0.0
H3278 H 0.90536 0.8541 0.73092 0.0
H3279 H 0.89332 0.66617 0.70438 0.0
H3280 H 0.15483 0.02355 0.83708 0.0
H3281 H 0.14278 0.02528 0.86758 0.0
H3282 H 0.09242 0.99093 0.84096 0.0
H3283 H 0.10428 0.99007 0.81053 0.0
H3284 H 0.08405 0.01524 0.86492 0.0
H3285 H 0.12606 0.97737 0.87253 0.0
H3286 H 0.15543 0.96935 0.87309 0.0
H3287 H 0.17663 0.01893 0.91543 0.0
H3288 H 0.14745 0.0274 0.91494 0.0
H3289 H 0.04445 0.00499 0.95047 0.0
H3290 H 0.0572 0.99977 0.92058 0.0
H3291 H 0.10768 0.03436 0.94647 0.0
H3292 H 0.0951 0.03902 0.97643 0.0
H3293 H 0.11593 0.00909 0.92286 0.0
H3294 H 0.07436 0.04738 0.91468 0.0
H3295 H 0.04514 0.05573 0.91409 0.0
H3296 H 0.0233 0.00558 0.87263 0.0
H3297 H 0.05234 0.99677 0.8732 0.0
C3298 C 0.14135 0.01587 0.83774 0.0
C3299 C 0.13083 0.00616 0.82104 0.0
C3300 C 0.13431 0.0169 0.85541 0.0
C3301 C 0.11645 0.00805 0.85729 0.0
C3302 C 0.10613 0.99804 0.84053 0.0
C3303 C 0.11308 0.9973 0.82291 0.0
C3304 C 0.10823 0.0098 0.87622 0.0
C3305 C 0.09106 0.01354 0.87743 0.0
C3306 C 0.11706 0.0082 0.89321 0.0
C3307 C 0.1346 0.00311 0.89356 0.0
C3308 C 0.13702 0.98663 0.88187 0.0
C3309 C 0.15363 0.982 0.88218 0.0
C3310 C 0.1679 0.99365 0.89425 0.0
C3311 C 0.16558 0.00994 0.90607 0.0
C3312 C 0.149 0.01466 0.90578 0.0
C3313 C 0.05822 0.01161 0.94994 0.0
C3314 C 0.06842 0.02265 0.96638 0.0
C3315 C 0.06565 0.00868 0.93252 0.0
C3316 C 0.08362 0.01694 0.9305 0.0
C3317 C 0.09386 0.02768 0.94702 0.0
C3318 C 0.0865 0.03042 0.96443 0.0
C3319 C 0.09176 0.01454 0.91153 0.0
C3320 C 0.10891 0.0107 0.91032 0.0
C3321 C 0.08293 0.01606 0.89451 0.0
C3322 C 0.06547 0.02132 0.89413 0.0
C3323 C 0.0633 0.03806 0.90553 0.0
C3324 C 0.04677 0.04288 0.9052 0.0
C3325 C 0.03236 0.03116 0.89337 0.0
C3326 C 0.03446 0.01462 0.88182 0.0
C3327 C 0.05095 0.0097 0.88214 0.0
H3328 H 0.01959 0.03493 0.89312 0.0
H3329 H 0.18075 0.99004 0.89448 0.0
H3330 H 0.8329 0.37922 0.54412 0.0
H3331 H 0.82836 0.36396 0.57086 0.0
H3332 H 0.8246 0.41694 0.60523 0.0
H3333 H 0.82979 0.43239 0.57884 0.0
H3334 H 0.84409 0.39806 0.62197 0.0
H3335 H 0.78547 0.38278 0.58667 0.0
H3336 H 0.76514 0.3701 0.5579 0.0
H3337 H 0.77965 0.31666 0.55301 0.0
H3338 H 0.80004 0.32901 0.58173 0.0
H3339 H 0.82449 0.34979 0.69328 0.0
H3340 H 0.81589 0.36887 0.67189 0.0
H3341 H 0.8168 0.3238 0.62518 0.0
H3342 H 0.82525 0.3049 0.64648 0.0
H3343 H 0.7936 0.34269 0.6172 0.0
H3344 H 0.85327 0.35494 0.64632 0.0
H3345 H 0.87896 0.36532 0.67002 0.0
H3346 H 0.87002 0.42147 0.6809 0.0
H3347 H 0.84358 0.41116 0.65805 0.0
C3348 C 0.8316 0.38764 0.55755 0.0
C3349 C 0.83158 0.40683 0.55959 0.0
C3350 C 0.82869 0.3789 0.57261 0.0
C3351 C 0.82543 0.38929 0.58958 0.0
C3352 C 0.82677 0.40876 0.59201 0.0
C3353 C 0.82999 0.41757 0.57706 0.0
C3354 C 0.82113 0.37999 0.60508 0.0
C3355 C 0.83278 0.38627 0.62127 0.0
C3356 C 0.80668 0.3643 0.60351 0.0
C3357 C 0.79427 0.35684 0.58633 0.0
C3358 C 0.78433 0.36834 0.57943 0.0
C3359 C 0.77278 0.3612 0.56315 0.0
C3360 C 0.7711 0.34259 0.55363 0.0
C3361 C 0.78093 0.33106 0.56041 0.0
C3362 C 0.79243 0.3381 0.57672 0.0
C3363 C 0.8223 0.34392 0.67845 0.0
C3364 C 0.82596 0.32638 0.67115 0.0
C3365 C 0.81732 0.35467 0.66636 0.0
C3366 C 0.81614 0.34779 0.64709 0.0
C3367 C 0.81777 0.32932 0.64006 0.0
C3368 C 0.82281 0.31867 0.6521 0.0
C3369 C 0.81679 0.36057 0.63415 0.0
C3370 C 0.80448 0.35498 0.61834 0.0
C3371 C 0.8312 0.37645 0.6357 0.0
C3372 C 0.84602 0.38209 0.65085 0.0
C3373 C 0.85637 0.36934 0.65419 0.0
C3374 C 0.87114 0.37524 0.66745 0.0
C3375 C 0.87602 0.394 0.6771 0.0
C3376 C 0.8661 0.40688 0.67358 0.0
C3377 C 0.8511 0.40096 0.66063 0.0
H3378 H 0.88758 0.3986 0.68719 0.0
H3379 H 0.76219 0.33711 0.54102 0.0
H3380 H 0.47448 0.05181 0.33464 0.0
H3381 H 0.4847 0.05822 0.36769 0.0
H3382 H 0.4366 0.02108 0.37816 0.0
H3383 H 0.42591 0.01526 0.34499 0.0
H3384 H 0.45565 0.05745 0.40843 0.0
H3385 H 0.46127 0.99836 0.37209 0.0
H3386 H 0.46597 0.97787 0.34304 0.0
H3387 H 0.51902 0.01133 0.34487 0.0
H3388 H 0.51443 0.0324 0.37363 0.0
H3389 H 0.49847 0.03249 0.48063 0.0
H3390 H 0.48165 0.0328 0.45287 0.0
H3391 H 0.52925 0.0591 0.43079 0.0
H3392 H 0.54723 0.05738 0.45882 0.0
H3393 H 0.50729 0.02717 0.40755 0.0
H3394 H 0.50058 0.08305 0.44938 0.0
H3395 H 0.4948 0.09723 0.48071 0.0
H3396 H 0.44052 0.06603 0.47091 0.0
H3397 H 0.44645 0.04984 0.44008 0.0
C3398 C 0.46622 0.045 0.34405 0.0
C3399 C 0.45002 0.03239 0.33762 0.0
C3400 C 0.47171 0.04909 0.36279 0.0
C3401 C 0.46128 0.03997 0.37489 0.0
C3402 C 0.44455 0.02822 0.36875 0.0
C3403 C 0.43883 0.02451 0.34997 0.0
C3404 C 0.47011 0.03926 0.39231 0.0
C3405 C 0.46675 0.05063 0.40855 0.0
C3406 C 0.48437 0.03013 0.3919 0.0
C3407 C 0.48744 0.01708 0.37493 0.0
C3408 C 0.47388 1.00147 0.3662 0.0
C3409 C 0.47652 0.98975 0.34978 0.0
C3410 C 0.49277 0.99332 0.34208 0.0
C3411 C 0.50642 0.0086 0.35083 0.0
C3412 C 0.50381 0.02044 0.36719 0.0
C3413 C 0.50573 0.03822 0.47001 0.0
C3414 C 0.52437 0.04454 0.47172 0.0
C3415 C 0.49589 0.03861 0.45422 0.0
C3416 C 0.50428 0.04639 0.4403 0.0
C3417 C 0.52279 0.05327 0.44184 0.0
C3418 C 0.53293 0.05232 0.45768 0.0
C3419 C 0.49335 0.04596 0.42372 0.0
C3420 C 0.49621 0.03407 0.4076 0.0
C3421 C 0.47823 0.05396 0.42464 0.0
C3422 C 0.47402 0.06515 0.4423 0.0
C3423 C 0.48739 0.07911 0.45383 0.0
C3424 C 0.4841 0.08749 0.47159 0.0
C3425 C 0.4672 0.08293 0.4777 0.0
C3426 C 0.45359 0.06965 0.46611 0.0
C3427 C 0.45697 0.06068 0.44853 0.0
H3428 H 0.46472 0.08957 0.49144 0.0
H3429 H 0.4948 0.98423 0.32938 0.0
H3430 H 0.81546 0.69623 0.07564 0.0
H3431 H 0.81735 0.71361 0.10775 0.0
H3432 H 0.7857 0.74968 0.08987 0.0
H3433 H 0.78462 0.73281 0.05741 0.0
H3434 H 0.81037 0.76868 0.11944 0.0
H3435 H 0.7655 0.70939 0.10473 0.0
H3436 H 0.75647 0.67503 0.09222 0.0
H3437 H 0.7941 0.66556 0.13242 0.0
H3438 H 0.80344 0.69987 0.14505 0.0
H3439 H 0.78756 0.79912 0.21047 0.0
H3440 H 0.78511 0.78641 0.17689 0.0
H3441 H 0.8035 0.73793 0.18787 0.0
H3442 H 0.80326 0.74937 0.22117 0.0
H3443 H 0.78396 0.72578 0.1602 0.0
H3444 H 0.83088 0.78344 0.17442 0.0
H3445 H 0.84403 0.81756 0.18506 0.0
H3446 H 0.80736 0.8302 0.14602 0.0
H3447 H 0.79394 0.79619 0.13526 0.0
C3448 C 0.80932 0.7082 0.07853 0.0
C3449 C 0.79972 0.71311 0.06421 0.0
C3450 C 0.81033 0.71806 0.09686 0.0
C3451 C 0.80116 0.73253 0.10129 0.0
C3452 C 0.79273 0.73844 0.08678 0.0
C3453 C 0.7921 0.72883 0.06828 0.0
C3454 C 0.79885 0.74 0.12106 0.0
C3455 C 0.80447 0.7594 0.1284 0.0
C3456 C 0.79144 0.72781 0.13279 0.0
C3457 C 0.78515 0.70715 0.12582 0.0
C3458 C 0.7718 0.69995 0.11092 0.0
C3459 C 0.76666 0.6805 0.10378 0.0
C3460 C 0.77471 0.66812 0.11152 0.0
C3461 C 0.78786 0.67516 0.12646 0.0
C3462 C 0.79304 0.69459 0.13365 0.0
C3463 C 0.79023 0.78533 0.20556 0.0
C3464 C 0.79499 0.7749 0.21831 0.0
C3465 C 0.78938 0.7783 0.18635 0.0
C3466 C 0.79475 0.76144 0.17955 0.0
C3467 C 0.7992 0.75091 0.19247 0.0
C3468 C 0.79904 0.75742 0.21158 0.0
C3469 C 0.79605 0.7547 0.15918 0.0
C3470 C 0.79001 0.73529 0.15153 0.0
C3471 C 0.80351 0.76689 0.14733 0.0
C3472 C 0.8113 0.78732 0.1542 0.0
C3473 C 0.82555 0.79352 0.16823 0.0
C3474 C 0.83307 0.81283 0.17424 0.0
C3475 C 0.8265 0.82604 0.16625 0.0
C3476 C 0.81242 0.81997 0.15222 0.0
C3477 C 0.80486 0.80069 0.14616 0.0
H3478 H 0.83235 0.84097 0.17091 0.0
H3479 H 0.77076 0.65308 0.10594 0.0
H3480 H 0.10919 0.00706 0.71927 0.0
H3481 H 0.09392 0.01252 0.69126 0.0
H3482 H 0.1387 0.00414 0.66073 0.0
H3483 H 0.15413 0.99946 0.68882 0.0
H3484 H 0.12992 0.0308 0.64998 0.0
H3485 H 0.09183 0.97204 0.65624 0.0
H3486 H 0.07189 0.95094 0.67243 0.0
H3487 H 0.03557 0.98773 0.67653 0.0
H3488 H 0.05552 0.00931 0.66074 0.0
H3489 H 0.09756 0.02219 0.55753 0.0
H3490 H 0.10625 0.01625 0.58749 0.0
H3491 H 0.05955 0.03171 0.60914 0.0
H3492 H 0.04994 0.03662 0.57795 0.0
H3493 H 0.06675 0.00365 0.6262 0.0
H3494 H 0.10464 0.06224 0.62039 0.0
H3495 H 0.12481 0.08379 0.60479 0.0
H3496 H 0.16116 0.04701 0.60036 0.0
H3497 H 0.1412 0.02522 0.61592 0.0
C3498 C 0.1158 0.00623 0.70658 0.0
C3499 C 0.13316 0.00275 0.70675 0.0
C3500 C 0.10688 0.00927 0.69026 0.0
C3501 C 0.11471 0.00867 0.67311 0.0
C3502 C 0.13196 0.00492 0.67334 0.0
C3503 C 0.14092 0.00212 0.68965 0.0
C3504 C 0.10577 0.01274 0.65528 0.0
C3505 C 0.11614 0.02449 0.64486 0.0
C3506 C 0.08745 0.00549 0.64825 0.0
C3507 C 0.07531 0.99244 0.65753 0.0
C3508 C 0.07967 0.97573 0.66074 0.0
C3509 C 0.06838 0.96369 0.66987 0.0
C3510 C 0.05251 0.96803 0.67558 0.0
C3511 C 0.0479 0.98442 0.67215 0.0
C3512 C 0.05921 0.99657 0.66313 0.0
C3513 C 0.0889 0.02447 0.56847 0.0
C3514 C 0.07295 0.03019 0.56471 0.0
C3515 C 0.09411 0.02112 0.58604 0.0
C3516 C 0.0841 0.02388 0.60146 0.0
C3517 C 0.06791 0.02946 0.59792 0.0
C3518 C 0.06242 0.0325 0.57991 0.0
C3519 C 0.09118 0.02125 0.62081 0.0
C3520 C 0.08051 0.00989 0.63145 0.0
C3521 C 0.10925 0.02887 0.62826 0.0
C3522 C 0.1214 0.04209 0.61922 0.0
C3523 C 0.11692 0.05874 0.61605 0.0
C3524 C 0.12831 0.07099 0.60722 0.0
C3525 C 0.14422 0.06674 0.60153 0.0
C3526 C 0.14884 0.05028 0.60477 0.0
C3527 C 0.13752 0.03802 0.61365 0.0
H3528 H 0.15299 0.07622 0.59464 0.0
H3529 H 0.04375 0.95865 0.68257 0.0
H3530 H 0.83713 0.42342 0.44791 0.0
H3531 H 0.84256 0.39911 0.42258 0.0
H3532 H 0.79496 0.36061 0.43215 0.0
H3533 H 0.78993 0.3846 0.45787 0.0
H3534 H 0.82147 0.34249 0.42399 0.0
H3535 H 0.79306 0.38686 0.40188 0.0
H3536 H 0.79112 0.41943 0.40073 0.0
H3537 H 0.83947 0.42753 0.37384 0.0
H3538 H 0.84204 0.39519 0.37545 0.0
H3539 H 0.7897 0.28713 0.33382 0.0
H3540 H 0.79478 0.30705 0.3648 0.0
H3541 H 0.8447 0.3378 0.35086 0.0
H3542 H 0.83952 0.31825 0.31968 0.0
H3543 H 0.82033 0.36003 0.36191 0.0
H3544 H 0.84527 0.31152 0.38201 0.0
H3545 H 0.84262 0.27763 0.38145 0.0
H3546 H 0.79514 0.27565 0.40976 0.0
H3547 H 0.79733 0.30947 0.41016 0.0
C3548 C 0.82771 0.40987 0.44425 0.0
C3549 C 0.81278 0.40587 0.4541 0.0
C3550 C 0.83101 0.39595 0.43021 0.0
C3551 C 0.8191 0.37822 0.42565 0.0
C3552 C 0.80432 0.3742 0.43567 0.0
C3553 C 0.80122 0.38797 0.44993 0.0
C3554 C 0.82062 0.36472 0.4089 0.0
C3555 C 0.82136 0.34629 0.41042 0.0
C3556 C 0.82015 0.3698 0.3913 0.0
C3557 C 0.81789 0.3887 0.38901 0.0
C3558 C 0.80333 0.39561 0.39579 0.0
C3559 C 0.80215 0.41406 0.39514 0.0
C3560 C 0.81521 0.42558 0.3873 0.0
C3561 C 0.82941 0.41861 0.37998 0.0
C3562 C 0.83076 0.40024 0.3808 0.0
C3563 C 0.80187 0.29781 0.3374 0.0
C3564 C 0.81379 0.30162 0.32413 0.0
C3565 C 0.8048 0.30914 0.35512 0.0
C3566 C 0.81996 0.32396 0.35978 0.0
C3567 C 0.83282 0.32651 0.34724 0.0
C3568 C 0.82983 0.31529 0.32951 0.0
C3569 C 0.82154 0.33792 0.37702 0.0
C3570 C 0.82104 0.35638 0.37554 0.0
C3571 C 0.82172 0.33271 0.39452 0.0
C3572 C 0.82149 0.31301 0.39616 0.0
C3573 C 0.83433 0.30388 0.38823 0.0
C3574 C 0.83286 0.28466 0.38784 0.0
C3575 C 0.81871 0.27449 0.39555 0.0
C3576 C 0.8061 0.28356 0.40382 0.0
C3577 C 0.80748 0.30277 0.40417 0.0
H3578 H 0.81753 0.25958 0.39514 0.0
H3579 H 0.8143 0.43987 0.38682 0.0
H3580 H 0.44674 0.06752 0.25049 0.0
H3581 H 0.46264 0.05797 0.22369 0.0
H3582 H 0.42292 0.00569 0.20744 0.0
H3583 H 0.40693 0.01517 0.23447 0.0
H3584 H 0.46446 0.00682 0.20463 0.0
H3585 H 0.41391 0.03163 0.18555 0.0
H3586 H 0.39595 0.05508 0.19473 0.0
H3587 H 0.44187 0.10012 0.19662 0.0
H3588 H 0.4602 0.07688 0.18786 0.0
H3589 H 0.49443 0.99288 0.11639 0.0
H3590 H 0.47073 0.99536 0.13715 0.0
H3591 H 0.49642 0.05371 0.15975 0.0
H3592 H 0.51992 0.05132 0.13889 0.0
H3593 H 0.45845 0.04598 0.15749 0.0
H3594 H 0.50905 0.02474 0.17915 0.0
H3595 H 0.53039 0.00423 0.1747 0.0
H3596 H 0.48801 0.95538 0.172 0.0
H3597 H 0.4663 0.9756 0.17585 0.0
C3598 C 0.44131 0.05414 0.24099 0.0
C3599 C 0.42534 0.04241 0.24381 0.0
C3600 C 0.45056 0.04853 0.2261 0.0
C3601 C 0.44385 0.03116 0.2139 0.0
C3602 C 0.42818 0.01908 0.21695 0.0
C3603 C 0.41885 0.02475 0.2319 0.0
C3604 C 0.45163 0.02751 0.19634 0.0
C3605 C 0.4628 0.01487 0.194 0.0
C3606 C 0.44974 0.03863 0.18304 0.0
C3607 C 0.43837 0.05254 0.18591 0.0
C3608 C 0.42013 0.04654 0.18777 0.0
C3609 C 0.40991 0.05978 0.19303 0.0
C3610 C 0.41776 0.07908 0.19624 0.0
C3611 C 0.43581 0.08516 0.19407 0.0
C3612 C 0.44611 0.07196 0.18891 0.0
C3613 C 0.49481 0.0062 0.12572 0.0
C3614 C 0.509 0.02177 0.12665 0.0
C3615 C 0.48124 0.0077 0.13724 0.0
C3616 C 0.48205 0.02467 0.14988 0.0
C3617 C 0.49561 0.04059 0.1499 0.0
C3618 C 0.50909 0.03913 0.13829 0.0
C3619 C 0.471 0.02485 0.16541 0.0
C3620 C 0.45953 0.03723 0.16763 0.0
C3621 C 0.47286 0.01369 0.17875 0.0
C3622 C 0.48602 1.00164 0.17756 0.0
C3623 C 0.50426 0.00961 0.17749 0.0
C3624 C 0.51642 0.99804 0.17503 0.0
C3625 C 0.51055 0.9785 0.173 0.0
C3626 C 0.49252 0.97051 0.17352 0.0
C3627 C 0.48027 0.98202 0.17581 0.0
H3628 H 0.51998 0.96955 0.1711 0.0
H3629 H 0.40985 0.08932 0.20041 0.0
H3630 H 0.81768 0.73809 0.96548 0.0
H3631 H 0.82304 0.75065 0.93715 0.0
H3632 H 0.78494 0.70224 0.90511 0.0
H3633 H 0.78033 0.68925 0.93315 0.0
H3634 H 0.8118 0.70864 0.88645 0.0
H3635 H 0.77579 0.74714 0.91891 0.0
H3636 H 0.76712 0.76883 0.94481 0.0
H3637 H 0.81475 0.81067 0.94339 0.0
H3638 H 0.82384 0.78911 0.91764 0.0
H3639 H 0.7845 0.73756 0.80854 0.0
H3640 H 0.78618 0.73067 0.83935 0.0
H3641 H 0.83263 0.77631 0.85606 0.0
H3642 H 0.83047 0.78401 0.82512 0.0
H3643 H 0.80662 0.77366 0.88297 0.0
H3644 H 0.83951 0.73303 0.84606 0.0
H3645 H 0.83958 0.71436 0.81445 0.0
H3646 H 0.79062 0.67694 0.82103 0.0
H3647 H 0.79022 0.69543 0.85266 0.0
C3648 C 0.81042 0.73024 0.95237 0.0
C3649 C 0.79862 0.71273 0.95142 0.0
C3650 C 0.81346 0.7374 0.93622 0.0
C3651 C 0.80433 0.72742 0.919 0.0
C3652 C 0.79229 0.71009 0.91818 0.0
C3653 C 0.78958 0.70274 0.93421 0.0
C3654 C 0.80719 0.73491 0.90177 0.0
C3655 C 0.81075 0.72289 0.88581 0.0
C3656 C 0.80592 0.75355 0.90082 0.0
C3657 C 0.80063 0.7664 0.91653 0.0
C3658 C 0.78451 0.76088 0.92426 0.0
C3659 C 0.7795 0.77317 0.93889 0.0
C3660 C 0.79041 0.79109 0.9458 0.0
C3661 C 0.80634 0.79677 0.93807 0.0
C3662 C 0.81143 0.78452 0.92346 0.0
C3663 C 0.79498 0.74638 0.81871 0.0
C3664 C 0.80688 0.76194 0.81459 0.0
C3665 C 0.79596 0.74233 0.83634 0.0
C3666 C 0.80953 0.753 0.84991 0.0
C3667 C 0.8219 0.76813 0.84578 0.0
C3668 C 0.82061 0.77254 0.82815 0.0
C3669 C 0.81104 0.7474 0.86801 0.0
C3670 C 0.80829 0.75968 0.884 0.0
C3671 C 0.81265 0.72893 0.86891 0.0
C3672 C 0.81489 0.71556 0.85179 0.0
C3673 C 0.82894 0.7206 0.8409 0.0
C3674 C 0.82891 0.71022 0.82288 0.0
C3675 C 0.81497 0.69465 0.81564 0.0
C3676 C 0.80132 0.68911 0.82661 0.0
C3677 C 0.80132 0.69941 0.84467 0.0
H3678 H 0.8149 0.6867 0.80164 0.0
H3679 H 0.78649 0.80059 0.9571 0.0
H3680 H 0.8319 0.12721 0.05604 0.0
H3681 H 0.86185 0.12171 0.05109 0.0
H3682 H 0.8421 0.08924 0.99589 0.0
H3683 H 0.8123 0.09388 0.00122 0.0
H3684 H 0.8531 0.07001 0.02252 0.0
H3685 H 0.8736 0.12587 0.99605 0.0
H3686 H 0.87724 0.16027 0.99895 0.0
H3687 H 0.91056 0.17022 0.0501 0.0
H3688 H 0.9071 0.13582 0.04745 0.0
H3689 H 0.91458 0.03286 0.97383 0.0
H3690 H 0.89338 0.05091 0.98492 0.0
H3691 H 0.93096 0.08298 0.03112 0.0
H3692 H 0.95329 0.0666 0.0189 0.0
H3693 H 0.91379 0.10594 0.01628 0.0
H3694 H 0.89261 0.04659 0.03892 0.0
H3695 H 0.88274 0.01206 0.03613 0.0
H3696 H 0.84563 0.00895 0.98944 0.0
H3697 H 0.85519 0.04341 0.99208 0.0
C3698 C 0.83412 0.11861 0.04308 0.0
C3699 C 0.82001 0.10978 0.02942 0.0
C3700 C 0.85115 0.11606 0.04004 0.0
C3701 C 0.85395 0.10517 0.02315 0.0
C3702 C 0.84001 0.09772 0.00898 0.0
C3703 C 0.82304 0.09984 0.0122 0.0
C3704 C 0.86956 0.09718 0.02183 0.0
C3705 C 0.8664 0.07783 0.02108 0.0
C3706 C 0.88678 0.10772 0.02071 0.0
C3707 C 0.89014 0.12833 0.02153 0.0
C3708 C 0.88181 0.13542 0.00784 0.0
C3709 C 0.8838 0.1549 0.00946 0.0
C3710 C 0.89412 0.16743 0.02471 0.0
C3711 C 0.90261 0.16049 0.03827 0.0
C3712 C 0.90071 0.14101 0.03667 0.0
C3713 C 0.91866 0.04392 0.98614 0.0
C3714 C 0.936 0.04838 0.99503 0.0
C3715 C 0.90629 0.05402 0.99272 0.0
C3716 C 0.91052 0.06806 0.00901 0.0
C3717 C 0.92746 0.07212 0.01853 0.0
C3718 C 0.9401 0.06236 0.01164 0.0
C3719 C 0.897 0.07829 0.01576 0.0
C3720 C 0.90059 0.09814 0.01796 0.0
C3721 C 0.87973 0.06819 0.01774 0.0
C3722 C 0.87472 0.04743 0.01562 0.0
C3723 C 0.88247 0.03847 0.02799 0.0
C3724 C 0.87685 0.01895 0.02648 0.0
C3725 C 0.86359 0.00832 0.0126 0.0
C3726 C 0.85589 0.01718 0.00018 0.0
C3727 C 0.86135 0.03668 0.00172 0.0
H3728 H 0.85927 0.99321 0.01147 0.0
H3729 H 0.89554 0.1825 0.02602 0.0
H3730 H 0.36394 0.40368 0.0452 0.0
H3731 H 0.39606 0.41805 0.04718 0.0
H3732 H 0.38411 0.46679 0.02956 0.0
H3733 H 0.35259 0.45284 0.02755 0.0
H3734 H 0.40744 0.45201 0.00852 0.0
H3735 H 0.3979 0.46792 0.0735 0.0
H3736 H 0.39019 0.46143 0.10417 0.0
H3737 H 0.43264 0.43255 0.10638 0.0
H3738 H 0.44034 0.43846 0.07548 0.0
H3739 H 0.48459 0.52714 0.02616 0.0
H3740 H 0.45497 0.5075 0.02782 0.0
H3741 H 0.47908 0.46385 0.04181 0.0
H3742 H 0.50867 0.48322 0.0396 0.0
H3743 H 0.45134 0.47125 0.06417 0.0
H3744 H 0.4613 0.45666 -0.00044 0.0
H3745 H 0.46741 0.46122 0.96789 0.0
H3746 H 0.42343 0.48788 0.96513 0.0
H3747 H 0.41707 0.48351 0.9968 0.0
C3748 C 0.36822 0.41753 0.04194 0.0
C3749 C 0.35563 0.42698 0.03601 0.0
C3750 C 0.38655 0.42573 0.04311 0.0
C3751 C 0.39249 0.44347 0.03839 0.0
C3752 C 0.37989 0.45305 0.03311 0.0
C3753 C 0.36178 0.44498 0.03197 0.0
C3754 C 0.41166 0.45201 0.03772 0.0
C3755 C 0.41701 0.45634 0.02075 0.0
C3756 C 0.42429 0.45709 0.05351 0.0
C3757 C 0.41949 0.45333 0.07199 0.0
C3758 C 0.40542 0.45992 0.08037 0.0
C3759 C 0.40108 0.45639 0.09783 0.0
C3760 C 0.41086 0.4465 0.10718 0.0
C3761 C 0.42502 0.44014 0.09909 0.0
C3762 C 0.42936 0.44355 0.08158 0.0
C3763 C 0.48355 0.51349 0.02989 0.0
C3764 C 0.49889 0.50675 0.03295 0.0
C3765 C 0.46664 0.5022 0.03064 0.0
C3766 C 0.4648 0.48413 0.03481 0.0
C3767 C 0.48017 0.4777 0.03852 0.0
C3768 C 0.49704 0.48878 0.03731 0.0
C3769 C 0.44683 0.47195 0.03513 0.0
C3770 C 0.44179 0.46681 0.05194 0.0
C3771 C 0.43433 0.46623 0.01922 0.0
C3772 C 0.43888 0.47 0.00068 0.0
C3773 C 0.45312 0.46379 0.99234 0.0
C3774 C 0.45657 0.46626 0.97433 0.0
C3775 C 0.44591 0.47496 0.96455 0.0
C3776 C 0.43174 0.4812 0.97274 0.0
C3777 C 0.42819 0.47871 0.99071 0.0
H3778 H 0.44857 0.47681 0.95059 0.0
H3779 H 0.40751 0.44383 0.12072 0.0
H3780 H 0.41305 0.63834 0.7991 0.0
H3781 H 0.39797 0.66462 0.79958 0.0
H3782 H 0.36803 0.63553 0.74751 0.0
H3783 H 0.38259 0.60902 0.74734 0.0
H3784 H 0.38041 0.67448 0.74738 0.0
H3785 H 0.3491 0.63916 0.79016 0.0
H3786 H 0.34901 0.6252 0.81814 0.0
H3787 H 0.37141 0.68002 0.85216 0.0
H3788 H 0.37189 0.69426 0.8243 0.0
H3789 H 0.31845 0.72962 0.73571 0.0
H3790 H 0.33324 0.70462 0.74012 0.0
H3791 H 0.34497 0.72963 0.79853 0.0
H3792 H 0.32854 0.75406 0.79422 0.0
H3793 H 0.34466 0.69505 0.79823 0.0
H3794 H 0.37781 0.73158 0.76095 0.0
H3795 H 0.38347 0.74907 0.73558 0.0
H3796 H 0.36521 0.69746 0.695 0.0
H3797 H 0.35923 0.67968 0.72015 0.0
C3798 C 0.4032 0.63735 0.78772 0.0
C3799 C 0.39925 0.62094 0.77322 0.0
C3800 C 0.3944 0.65263 0.78802 0.0
C3801 C 0.3814 0.65266 0.77361 0.0
C3802 C 0.37776 0.63644 0.75898 0.0
C3803 C 0.3862 0.62099 0.75892 0.0
C3804 C 0.37166 0.6692 0.77357 0.0
C3805 C 0.37239 0.67861 0.75845 0.0
C3806 C 0.36178 0.67608 0.78829 0.0
C3807 C 0.36064 0.66774 0.80513 0.0
C3808 C 0.35404 0.64823 0.8036 0.0
C3809 C 0.35394 0.64026 0.81944 0.0
C3810 C 0.36025 0.65171 0.83691 0.0
C3811 C 0.36655 0.67117 0.83861 0.0
C3812 C 0.36671 0.6792 0.8228 0.0
C3813 C 0.32382 0.72976 0.74967 0.0
C3814 C 0.32167 0.74413 0.76452 0.0
C3815 C 0.33283 0.71538 0.7522 0.0
C3816 C 0.34137 0.71487 0.76963 0.0
C3817 C 0.33895 0.72908 0.78474 0.0
C3818 C 0.32932 0.74327 0.78227 0.0
C3819 C 0.35276 0.69987 0.77151 0.0
C3820 C 0.35252 0.69087 0.78704 0.0
C3821 C 0.36385 0.69389 0.75757 0.0
C3822 C 0.36792 0.70434 0.7424 0.0
C3823 C 0.37497 0.72397 0.7466 0.0
C3824 C 0.37822 0.73394 0.73227 0.0
C3825 C 0.37465 0.72439 0.71369 0.0
C3826 C 0.36794 0.70483 0.7094 0.0
C3827 C 0.36465 0.69479 0.72369 0.0
H3828 H 0.37713 0.73213 0.7026 0.0
H3829 H 0.36021 0.6455 0.84915 0.0
H3830 H 0.21728 0.64578 0.50682 0.0
H3831 H 0.188 0.63291 0.51634 0.0
H3832 H 0.20406 0.58127 0.52038 0.0
H3833 H 0.23248 0.59322 0.50962 0.0
H3834 H 0.17551 0.57635 0.49711 0.0
H3835 H 0.19683 0.61194 0.56086 0.0
H3836 H 0.20823 0.64045 0.58546 0.0
H3837 H 0.16523 0.66428 0.5694 0.0
H3838 H 0.15363 0.63596 0.54472 0.0
H3839 H 0.09802 0.5255 0.51831 0.0
H3840 H 0.1285 0.54287 0.52839 0.0
H3841 H 0.11419 0.59454 0.521 0.0
H3842 H 0.08358 0.57708 0.51097 0.0
H3843 H 0.14198 0.59985 0.54895 0.0
H3844 H 0.1224 0.56907 0.48457 0.0
H3845 H 0.10912 0.54239 0.45872 0.0
H3846 H 0.14823 0.51256 0.47257 0.0
H3847 H 0.1615 0.53891 0.4988 0.0
C3848 C 0.21441 0.63162 0.50958 0.0
C3849 C 0.22703 0.62044 0.5075 0.0
C3850 C 0.19796 0.62455 0.51545 0.0
C3851 C 0.19431 0.60647 0.51951 0.0
C3852 C 0.20696 0.59544 0.51759 0.0
C3853 C 0.22304 0.60219 0.5112 0.0
C3854 C 0.17633 0.59736 0.52214 0.0
C3855 C 0.16834 0.58124 0.50872 0.0
C3856 C 0.16687 0.6045 0.53672 0.0
C3857 C 0.17448 0.62192 0.55085 0.0
C3858 C 0.18995 0.62336 0.56244 0.0
C3859 C 0.19638 0.63944 0.57646 0.0
C3860 C 0.18747 0.65417 0.57898 0.0
C3861 C 0.17213 0.65287 0.56745 0.0
C3862 C 0.16561 0.63681 0.55347 0.0
C3863 C 0.10143 0.54046 0.51872 0.0
C3864 C 0.0891 0.54999 0.51299 0.0
C3865 C 0.1186 0.55041 0.52501 0.0
C3866 C 0.12331 0.56974 0.52507 0.0
C3867 C 0.11053 0.57957 0.52104 0.0
C3868 C 0.09336 0.56962 0.51491 0.0
C3869 C 0.14173 0.57855 0.52445 0.0
C3870 C 0.14953 0.59476 0.53779 0.0
C3871 C 0.15099 0.57186 0.50947 0.0
C3872 C 0.14273 0.55582 0.4939 0.0
C3873 C 0.128 0.55671 0.4823 0.0
C3874 C 0.1205 0.54166 0.46754 0.0
C3875 C 0.12776 0.52574 0.46407 0.0
C3876 C 0.14256 0.52485 0.47533 0.0
C3877 C 0.15005 0.53982 0.49017 0.0
H3878 H 0.12198 0.51413 0.4526 0.0
H3879 H 0.19244 0.66657 0.58987 0.0
H3880 H 0.73549 0.00816 0.75322 0.0
H3881 H 0.74772 0.9813 0.75748 0.0
H3882 H 0.70016 0.94281 0.72816 0.0
H3883 H 0.68758 0.96962 0.72437 0.0
H3884 H 0.71131 0.936 0.76272 0.0
H3885 H 0.73527 0.94693 0.70537 0.0
H3886 H 0.74802 0.97143 0.68816 0.0
H3887 H 0.79368 0.99054 0.72843 0.0
H3888 H 0.78105 0.96631 0.74605 0.0
H3889 H 0.75412 0.86489 0.77842 0.0
H3890 H 0.7387 0.88161 0.75938 0.0
H3891 H 0.78164 0.93124 0.77557 0.0
H3892 H 0.79713 0.91452 0.79428 0.0
H3893 H 0.76934 0.92768 0.74064 0.0
H3894 H 0.74606 0.92362 0.7999 0.0
H3895 H 0.73051 0.91164 0.82526 0.0
H3896 H 0.683 0.88821 0.78809 0.0
H3897 H 0.69839 0.89954 0.76236 0.0
C3898 C 0.72784 0.99396 0.74746 0.0
C3899 C 0.71078 0.99067 0.73846 0.0
C3900 C 0.73474 0.97876 0.74991 0.0
C3901 C 0.72478 0.96037 0.74281 0.0
C3902 C 0.70787 0.95706 0.73354 0.0
C3903 C 0.70083 0.97225 0.73137 0.0
C3904 C 0.73202 0.94455 0.74563 0.0
C3905 C 0.72366 0.9335 0.75743 0.0
C3906 C 0.74833 0.94227 0.739 0.0
C3907 C 0.75733 0.95463 0.72689 0.0
C3908 C 0.74818 0.95614 0.71037 0.0
C3909 C 0.75531 0.9701 0.70064 0.0
C3910 C 0.77167 0.98251 0.70718 0.0
C3911 C 0.78105 0.98085 0.72334 0.0
C3912 C 0.77396 0.96693 0.73316 0.0
C3913 C 0.76032 0.87925 0.77755 0.0
C3914 C 0.7765 0.88871 0.78797 0.0
C3915 C 0.75157 0.88871 0.76675 0.0
C3916 C 0.75901 0.90762 0.76638 0.0
C3917 C 0.77576 0.91662 0.77577 0.0
C3918 C 0.78445 0.9072 0.78658 0.0
C3919 C 0.74867 0.91884 0.75806 0.0
C3920 C 0.75652 0.92923 0.74523 0.0
C3921 C 0.73196 0.92088 0.76417 0.0
C3922 C 0.72354 0.91202 0.77905 0.0
C3923 C 0.73248 0.91543 0.79697 0.0
C3924 C 0.72364 0.90887 0.81145 0.0
C3925 C 0.70581 0.89916 0.80823 0.0
C3926 C 0.69684 0.89566 0.7905 0.0
C3927 C 0.70564 0.90204 0.77596 0.0
H3928 H 0.69882 0.89453 0.81947 0.0
H3929 H 0.77708 0.99344 0.69973 0.0
H3930 H 0.73404 0.8825 0.51775 0.0
H3931 H 0.70963 0.89816 0.51364 0.0
H3932 H 0.74033 0.94944 0.54906 0.0
H3933 H 0.76471 0.9339 0.55328 0.0
H3934 H 0.70601 0.94236 0.55672 0.0
H3935 H 0.73816 0.94456 0.50291 0.0
H3936 H 0.75188 0.93149 0.47533 0.0
H3937 H 0.70072 0.89849 0.45028 0.0
H3938 H 0.68671 0.9111 0.4779 0.0
H3939 H 0.66163 0.00979 0.52896 0.0
H3940 H 0.68189 0.99082 0.53777 0.0
H3941 H 0.65141 0.94212 0.49845 0.0
H3942 H 0.6315 0.96131 0.48935 0.0
H3943 H 0.68492 0.94665 0.49308 0.0
H3944 H 0.65297 0.9459 0.54793 0.0
H3945 H 0.64061 0.9585 0.57673 0.0
H3946 H 0.69281 0.98991 0.60023 0.0
H3947 H 0.70545 0.97765 0.57152 0.0
C3948 C 0.7355 0.89705 0.52482 0.0
C3949 C 0.75132 0.90703 0.53575 0.0
C3950 C 0.7216 0.906 0.52237 0.0
C3951 C 0.72327 0.92503 0.53086 0.0
C3952 C 0.73878 0.93477 0.54234 0.0
C3953 C 0.75271 0.92589 0.5447 0.0
C3954 C 0.70907 0.93499 0.52748 0.0
C3955 C 0.70147 0.94347 0.54283 0.0
C3956 C 0.70302 0.93614 0.5093 0.0
C3957 C 0.7114 0.92861 0.4926 0.0
C3958 C 0.72984 0.93438 0.49161 0.0
C3959 C 0.73768 0.92707 0.47595 0.0
C3960 C 0.72719 0.91413 0.46109 0.0
C3961 C 0.70883 0.9085 0.46183 0.0
C3962 C 0.70094 0.91572 0.47749 0.0
C3963 C 0.65908 0.99491 0.52259 0.0
C3964 C 0.64503 0.98689 0.50863 0.0
C3965 C 0.67061 0.98406 0.52764 0.0
C3966 C 0.66815 0.96495 0.51888 0.0
C3967 C 0.65361 0.9568 0.50542 0.0
C3968 C 0.64219 0.96769 0.50029 0.0
C3969 C 0.68162 0.954 0.52238 0.0
C3970 C 0.68924 0.94542 0.507 0.0
C3971 C 0.68784 0.95295 0.54056 0.0
C3972 C 0.68011 0.961 0.55748 0.0
C3973 C 0.66177 0.95568 0.55915 0.0
C3974 C 0.65473 0.9627 0.57549 0.0
C3975 C 0.66591 0.97503 0.59028 0.0
C3976 C 0.68416 0.98038 0.58876 0.0
C3977 C 0.69126 0.97339 0.57246 0.0
H3978 H 0.66044 0.9804 0.60294 0.0
H3979 H 0.73327 0.9085 0.44897 0.0
H3980 H 0.37727 0.50729 0.76833 0.0
H3981 H 0.35966 0.47506 0.76746 0.0
H3982 H 0.40716 0.45366 0.76192 0.0
H3983 H 0.42447 0.48528 0.76234 0.0
H3984 H 0.38372 0.42886 0.74096 0.0
H3985 H 0.3833 0.45887 0.80405 0.0
H3986 H 0.37852 0.48329 0.82995 0.0
H3987 H 0.32274 0.46988 0.81186 0.0
H3988 H 0.32722 0.44552 0.78567 0.0
H3989 H 0.34855 0.33665 0.76067 0.0
H3990 H 0.36472 0.36893 0.76082 0.0
H3991 H 0.3156 0.38747 0.76346 0.0
H3992 H 0.29939 0.35515 0.76356 0.0
H3993 H 0.33941 0.41383 0.78552 0.0
H3994 H 0.3417 0.382 0.72211 0.0
H3995 H 0.34882 0.35892 0.69634 0.0
H3996 H 0.40411 0.37609 0.71672 0.0
H3997 H 0.3973 0.3991 0.74274 0.0
C3998 C 0.38401 0.49577 0.76693 0.0
C3999 C 0.40256 0.49944 0.76538 0.0
C4000 C 0.37386 0.4771 0.76655 0.0
C4001 C 0.38179 0.46128 0.76477 0.0
C4002 C 0.40027 0.46507 0.7632 0.0
C4003 C 0.41032 0.48354 0.76351 0.0
C4004 C 0.37122 0.4409 0.7643 0.0
C4005 C 0.37422 0.42571 0.75094 0.0
C4006 C 0.35845 0.43608 0.77698 0.0
C4007 C 0.35563 0.45053 0.79278 0.0
C4008 C 0.37003 0.46122 0.80552 0.0
C4009 C 0.36738 0.47504 0.82026 0.0
C4010 C 0.35035 0.47818 0.82251 0.0
C4011 C 0.33593 0.46745 0.81007 0.0
C4012 C 0.33851 0.45363 0.79528 0.0
C4013 C 0.341 0.34745 0.76111 0.0
C4014 C 0.32231 0.34268 0.7619 0.0
C4015 C 0.35041 0.3662 0.7611 0.0
C4016 C 0.34168 0.38127 0.76186 0.0
C4017 C 0.32303 0.37655 0.76279 0.0
C4018 C 0.31359 0.35775 0.76272 0.0
C4019 C 0.35187 0.40175 0.7621 0.0
C4020 C 0.34887 0.41697 0.7755 0.0
C4021 C 0.36496 0.40656 0.74967 0.0
C4022 C 0.36893 0.39212 0.73451 0.0
C4023 C 0.35534 0.38069 0.72123 0.0
C4024 C 0.35934 0.36766 0.70654 0.0
C4025 C 0.3769 0.36601 0.70492 0.0
C4026 C 0.39051 0.37736 0.71801 0.0
C4027 C 0.38658 0.39038 0.73273 0.0
H4028 H 0.37997 0.35597 0.6935 0.0
H4029 H 0.34832 0.4889 0.83392 0.0
H4030 H 0.22224 0.5851 0.22503 0.0
H4031 H 0.24318 0.61589 0.22916 0.0
H4032 H 0.22018 0.63533 0.27966 0.0
H4033 H 0.19875 0.60491 0.27501 0.0
H4034 H 0.21844 0.65548 0.25078 0.0
H4035 H 0.26201 0.62801 0.28336 0.0
H4036 H 0.27942 0.6035 0.28194 0.0
H4037 H 0.30212 0.61906 0.23329 0.0
H4038 H 0.28479 0.64364 0.23447 0.0
H4039 H 0.25286 0.74203 0.29114 0.0
H4040 H 0.24871 0.70877 0.29224 0.0
H4041 H 0.28996 0.70379 0.25519 0.0
H4042 H 0.29724 0.73795 0.25871 0.0
H4043 H 0.28371 0.67497 0.26802 0.0
H4044 H 0.24384 0.70546 0.23742 0.0
H4045 H 0.22574 0.72929 0.23718 0.0
H4046 H 0.19446 0.70701 0.278 0.0
H4047 H 0.21235 0.68317 0.2785 0.0
C4048 C 0.22203 0.59599 0.23712 0.0
C4049 C 0.2091 0.59335 0.24965 0.0
C4050 C 0.23391 0.61328 0.23948 0.0
C4051 C 0.23291 0.62746 0.2546 0.0
C4052 C 0.22082 0.62425 0.26788 0.0
C4053 C 0.20869 0.60717 0.26526 0.0
C4054 C 0.24272 0.64648 0.25557 0.0
C4055 C 0.23272 0.65989 0.2545 0.0
C4056 C 0.26129 0.65166 0.25925 0.0
C4057 C 0.27216 0.63752 0.25899 0.0
C4058 C 0.27076 0.62617 0.27241 0.0
C4059 C 0.28058 0.61229 0.27163 0.0
C4060 C 0.29185 0.60971 0.25752 0.0
C4061 C 0.2934 0.62109 0.24421 0.0
C4062 C 0.28362 0.63502 0.24496 0.0
C4063 C 0.26126 0.73386 0.28358 0.0
C4064 C 0.27371 0.74156 0.27231 0.0
C4065 C 0.25905 0.71504 0.28439 0.0
C4066 C 0.26774 0.70384 0.27219 0.0
C4067 C 0.28234 0.71215 0.26379 0.0
C4068 C 0.28584 0.73137 0.26479 0.0
C4069 C 0.25919 0.68422 0.26503 0.0
C4070 C 0.26948 0.67071 0.26407 0.0
C4071 C 0.24076 0.67887 0.25901 0.0
C4072 C 0.22942 0.69259 0.25797 0.0
C4073 C 0.23303 0.70562 0.24622 0.0
C4074 C 0.22284 0.71912 0.24607 0.0
C4075 C 0.20897 0.71963 0.25753 0.0
C4076 C 0.20517 0.70657 0.26909 0.0
C4077 C 0.21527 0.69302 0.26926 0.0
H4078 H 0.20118 0.73016 0.25747 0.0
H4079 H 0.2994 0.59891 0.25692 0.0
H4080 H 0.54354 0.72347 0.46626 0.0
H4081 H 0.54783 0.69591 0.47844 0.0
H4082 H 0.49236 0.66924 0.46352 0.0
H4083 H 0.48818 0.69657 0.4505 0.0
H4084 H 0.50657 0.66746 0.50113 0.0
H4085 H 0.5185 0.65337 0.4372 0.0
H4086 H 0.53254 0.65811 0.40852 0.0
H4087 H 0.58395 0.66269 0.43638 0.0
H4088 H 0.57024 0.65832 0.46536 0.0
H4089 H 0.5143 0.57387 0.51062 0.0
H4090 H 0.50722 0.60247 0.50331 0.0
H4091 H 0.56308 0.62612 0.50216 0.0
H4092 H 0.56975 0.59747 0.5084 0.0
H4093 H 0.54697 0.62902 0.4721 0.0
H4094 H 0.53601 0.64391 0.53616 0.0
H4095 H 0.52263 0.63953 0.56528 0.0
H4096 H 0.47061 0.63389 0.53824 0.0
H4097 H 0.48367 0.63801 0.50889 0.0
C4098 C 0.53221 0.71179 0.46568 0.0
C4099 C 0.51549 0.71224 0.45747 0.0
C4100 C 0.53471 0.69599 0.47258 0.0
C4101 C 0.52044 0.68043 0.47189 0.0
C4102 C 0.50358 0.68105 0.4642 0.0
C4103 C 0.5012 0.69665 0.45675 0.0
C4104 C 0.52335 0.66346 0.4789 0.0
C4105 C 0.51522 0.65887 0.49465 0.0
C4106 C 0.53498 0.6525 0.47077 0.0
C4107 C 0.54335 0.65581 0.45355 0.0
C4108 C 0.53282 0.65569 0.43731 0.0
C4109 C 0.54072 0.65823 0.42097 0.0
C4110 C 0.55913 0.66077 0.42065 0.0
C4111 C 0.56969 0.66078 0.43667 0.0
C4112 C 0.56187 0.65828 0.45306 0.0
C4113 C 0.52513 0.58521 0.50908 0.0
C4114 C 0.54278 0.58285 0.50985 0.0
C4115 C 0.52104 0.60175 0.505 0.0
C4116 C 0.53458 0.61662 0.50192 0.0
C4117 C 0.55225 0.61488 0.50417 0.0
C4118 C 0.5562 0.59828 0.50797 0.0
C4119 C 0.53049 0.63309 0.49467 0.0
C4120 C 0.53837 0.63758 0.47873 0.0
C4121 C 0.51876 0.64401 0.50277 0.0
C4122 C 0.51081 0.64105 0.52026 0.0
C4123 C 0.5217 0.64152 0.53636 0.0
C4124 C 0.51418 0.63915 0.55293 0.0
C4125 C 0.49578 0.6364 0.5536 0.0
C4126 C 0.48486 0.63601 0.5377 0.0
C4127 C 0.49232 0.63837 0.5211 0.0
H4128 H 0.48999 0.6346 0.56646 0.0
H4129 H 0.56521 0.66268 0.40796 0.0
H4130 H 0.64996 0.34135 0.64134 0.0
H4131 H 0.67522 0.33825 0.66129 0.0
H4132 H 0.64905 0.28044 0.6607 0.0
H4133 H 0.6236 0.28385 0.64123 0.0
H4134 H 0.66249 0.2959 0.69431 0.0
H4135 H 0.68707 0.29385 0.63564 0.0
H4136 H 0.69525 0.30487 0.60687 0.0
H4137 H 0.72811 0.35624 0.63935 0.0
H4138 H 0.71997 0.3456 0.66832 0.0
H4139 H 0.73802 0.27016 0.73426 0.0
H4140 H 0.71269 0.27325 0.71459 0.0
H4141 H 0.73892 0.33094 0.71483 0.0
H4142 H 0.76458 0.32754 0.73411 0.0
H4143 H 0.72529 0.31539 0.68122 0.0
H4144 H 0.70048 0.31651 0.7402 0.0
H4145 H 0.69025 0.30586 0.76854 0.0
H4146 H 0.65676 0.2555 0.73498 0.0
H4147 H 0.66695 0.26573 0.70646 0.0
C4148 C 0.6497 0.32796 0.64538 0.0
C4149 C 0.63484 0.31282 0.63965 0.0
C4150 C 0.66422 0.32612 0.65674 0.0
C4151 C 0.66439 0.30899 0.66248 0.0
C4152 C 0.64946 0.29384 0.65661 0.0
C4153 C 0.6349 0.29575 0.64539 0.0
C4154 C 0.67976 0.30703 0.67502 0.0
C4155 C 0.67621 0.29988 0.69124 0.0
C4156 C 0.69782 0.31261 0.67151 0.0
C4157 C 0.70277 0.31902 0.65413 0.0
C4158 C 0.69594 0.30755 0.63664 0.0
C4159 C 0.70059 0.31372 0.6203 0.0
C4160 C 0.71215 0.33127 0.62128 0.0
C4161 C 0.71914 0.34266 0.63861 0.0
C4162 C 0.71453 0.33656 0.65499 0.0
C4163 C 0.73848 0.28345 0.72994 0.0
C4164 C 0.75353 0.29848 0.73541 0.0
C4165 C 0.72379 0.28532 0.71888 0.0
C4166 C 0.72354 0.30242 0.71316 0.0
C4167 C 0.73858 0.31754 0.71887 0.0
C4168 C 0.75331 0.31563 0.72993 0.0
C4169 C 0.70808 0.30428 0.70063 0.0
C4170 C 0.7116 0.31137 0.68434 0.0
C4171 C 0.68995 0.29848 0.70402 0.0
C4172 C 0.68468 0.29179 0.7212 0.0
C4173 C 0.69114 0.30304 0.73887 0.0
C4174 C 0.68528 0.29712 0.75497 0.0
C4175 C 0.67289 0.28 0.75356 0.0
C4176 C 0.66638 0.26874 0.73606 0.0
C4177 C 0.6722 0.27459 0.71993 0.0
H4178 H 0.66832 0.27549 0.76604 0.0
H4179 H 0.71573 0.33603 0.60861 0.0
H4180 H 0.0491 0.339 0.94319 0.0
H4181 H 0.05143 0.37093 0.96051 0.0
H4182 H 0.00714 0.35089 0.99058 0.0
H4183 H 0.00465 0.31845 0.97293 0.0
H4184 H 0.00292 0.38093 0.97557 0.0
H4185 H 0.04924 0.36901 0.01392 0.0
H4186 H 0.07589 0.35672 0.01929 0.0
H4187 H 0.1059 0.39584 0.98979 0.0
H4188 H 0.07938 0.40824 0.98406 0.0
H4189 H 0.02911 0.48361 0.02475 0.0
H4190 H 0.02303 0.44905 0.02203 0.0
H4191 H 0.04687 0.44368 0.97004 0.0
H4192 H 0.05091 0.47746 0.97153 0.0
H4193 H 0.0591 0.42566 0.00455 0.0
H4194 H 0.01363 0.43038 0.95895 0.0
H4195 H 0.98696 0.43874 0.94646 0.0
H4196 H 0.95575 0.41052 0.98399 0.0
H4197 H 0.98253 0.40273 0.99734 0.0
C4198 C 0.04 0.34125 0.9537 0.0
C4199 C 0.02664 0.32613 0.95659 0.0
C4200 C 0.04145 0.35958 0.96375 0.0
C4201 C 0.02963 0.36342 0.97707 0.0
C4202 C 0.01653 0.34829 0.98048 0.0
C4203 C 0.01516 0.32974 0.97046 0.0
C4204 C 0.03009 0.3835 0.98579 0.0
C4205 C 0.01503 0.3906 0.98253 0.0
C4206 C 0.04605 0.39629 0.99437 0.0
C4207 C 0.06229 0.38954 0.99855 0.0
C4208 C 0.06152 0.37499 0.00858 0.0
C4209 C 0.0766 0.36799 0.01166 0.0
C4210 C 0.09257 0.37548 0.00486 0.0
C4211 C 0.09352 0.39007 0.99507 0.0
C4212 C 0.07848 0.39714 0.99195 0.0
C4213 C 0.03209 0.47493 0.01228 0.0
C4214 C 0.03966 0.48328 0.99794 0.0
C4215 C 0.02903 0.45523 0.01094 0.0
C4216 C 0.03435 0.44375 0.9957 0.0
C4217 C 0.04243 0.45219 0.98177 0.0
C4218 C 0.04464 0.47155 0.98264 0.0
C4219 C 0.03197 0.42298 0.99402 0.0
C4220 C 0.04675 0.41584 0.99844 0.0
C4221 C 0.01587 0.41014 0.98613 0.0
C4222 C 0.00022 0.41652 0.97957 0.0
C4223 C 0.00125 0.42656 0.96504 0.0
C4224 C 0.98606 0.431 0.95764 0.0
C4225 C 0.96965 0.42509 0.96436 0.0
C4226 C 0.96847 0.41505 0.97877 0.0
C4227 C 0.98368 0.41077 0.98637 0.0
H4228 H 0.95787 0.42841 0.9585 0.0
H4229 H 0.10421 0.36998 0.0072 0.0
H4230 H 0.0201 0.8092 0.11978 0.0
H4231 H 0.99016 0.80785 0.13071 0.0
H4232 H 0.00821 0.79321 0.18137 0.0
H4233 H 0.03745 0.79433 0.17073 0.0
H4234 H 0.97805 0.76918 0.16575 0.0
H4235 H 0.00177 0.83701 0.17853 0.0
H4236 H 0.0133 0.8671 0.1688 0.0
H4237 H 0.96391 0.8605 0.13601 0.0
H4238 H 0.95223 0.83011 0.14519 0.0
H4239 H 0.92681 0.78155 0.23896 0.0
H4240 H 0.95038 0.79031 0.21919 0.0
H4241 H 0.9113 0.79223 0.17605 0.0
H4242 H 0.8874 0.78335 0.19601 0.0
H4243 H 0.94702 0.82158 0.18019 0.0
H4244 H 0.92286 0.75447 0.17055 0.0
H4245 H 0.91276 0.72397 0.18004 0.0
H4246 H 0.9647 0.72961 0.20725 0.0
H4247 H 0.97499 0.76033 0.1983 0.0
C4248 C 0.01766 0.80587 0.13331 0.0
C4249 C 0.03125 0.80169 0.14425 0.0
C4250 C 0.00053 0.8051 0.13955 0.0
C4251 C 0.99677 0.80027 0.15689 0.0
C4252 C 0.01055 0.79674 0.16789 0.0
C4253 C 0.02741 0.79742 0.16172 0.0
C4254 C 0.97861 0.79792 0.16384 0.0
C4255 C 0.97131 0.7807 0.16885 0.0
C4256 C 0.96935 0.81265 0.16741 0.0
C4257 C 0.97621 0.83115 0.16234 0.0
C4258 C 0.99342 0.84188 0.1691 0.0
C4259 C -1e-05 0.85899 0.16369 0.0
C4260 C 0.98937 0.86567 0.15173 0.0
C4261 C 0.97214 0.85528 0.14523 0.0
C4262 C 0.96554 0.8381 0.15052 0.0
C4263 C 0.92318 0.78423 0.22543 0.0
C4264 C 0.90513 0.78152 0.21905 0.0
C4265 C 0.93672 0.78929 0.21411 0.0
C4266 C 0.93272 0.79175 0.19598 0.0
C4267 C 0.91481 0.79047 0.18998 0.0
C4268 C 0.90113 0.7854 0.20142 0.0
C4269 C 0.94714 0.79312 0.18294 0.0
C4270 C 0.95362 0.81001 0.17675 0.0
C4271 C 0.95591 0.77814 0.17833 0.0
C4272 C 0.94965 0.75975 0.18386 0.0
C4273 C 0.93207 0.7493 0.17872 0.0
C4274 C 0.92632 0.73195 0.18399 0.0
C4275 C 0.93808 0.72487 0.19426 0.0
C4276 C 0.9556 0.73512 0.19931 0.0
C4277 C 0.96139 0.75249 0.19415 0.0
H4278 H 0.93362 0.71141 0.19828 0.0
H4279 H 0.99447 0.87892 0.14756 0.0
H4280 H 0.49331 0.28828 0.09472 0.0
H4281 H 0.50264 0.31391 0.07799 0.0
H4282 H 0.52459 0.35192 0.13007 0.0
H4283 H 0.5146 0.32679 0.14681 0.0
H4284 H 0.50647 0.368 0.11088 0.0
H4285 H 0.55189 0.33393 0.09837 0.0
H4286 H 0.5638 0.30566 0.08826 0.0
H4287 H 0.53786 0.2976 0.03326 0.0
H4288 H 0.52566 0.32574 0.04309 0.0
H4289 H 0.55514 0.44009 0.06664 0.0
H4290 H 0.54413 0.41721 0.08605 0.0
H4291 H 0.52058 0.37591 0.03649 0.0
H4292 H 0.53219 0.39848 0.01719 0.0
H4293 H 0.54141 0.3622 0.05613 0.0
H4294 H 0.49485 0.39678 0.07113 0.0
H4295 H 0.48083 0.42277 0.08419 0.0
H4296 H 0.51009 0.4297 0.13731 0.0
H4297 H 0.52433 0.40385 0.12454 0.0
C4298 C 0.49991 0.3022 0.10253 0.0
C4299 C 0.503 0.30573 0.122 0.0
C4300 C 0.50545 0.3167 0.09299 0.0
C4301 C 0.51453 0.33467 0.10282 0.0
C4302 C 0.51757 0.33814 0.12227 0.0
C4303 C 0.51173 0.32382 0.1318 0.0
C4304 C 0.52007 0.35025 0.09303 0.0
C4305 C 0.51439 0.36691 0.09908 0.0
C4306 C 0.53018 0.34859 0.07758 0.0
C4307 C 0.53774 0.33185 0.07151 0.0
C4308 C 0.54865 0.32607 0.08414 0.0
C4309 C 0.55547 0.31009 0.07846 0.0
C4310 C 0.55155 0.29982 0.06015 0.0
C4311 C 0.54087 0.30557 0.04745 0.0
C4312 C 0.53404 0.32156 0.05306 0.0
C4313 C 0.54733 0.42621 0.06003 0.0
C4314 C 0.54464 0.42079 0.04052 0.0
C4315 C 0.54095 0.41322 0.07108 0.0
C4316 C 0.53156 0.39486 0.06269 0.0
C4317 C 0.52792 0.38997 0.04322 0.0
C4318 C 0.53453 0.40279 0.03222 0.0
C4319 C 0.5274 0.37996 0.07368 0.0
C4320 C 0.53356 0.3634 0.06797 0.0
C4321 C 0.51802 0.38188 0.08973 0.0
C4322 C 0.51088 0.39864 0.09676 0.0
C4323 C 0.49855 0.40411 0.08548 0.0
C4324 C 0.49046 0.41871 0.09288 0.0
C4325 C 0.49461 0.42792 0.11154 0.0
C4326 C 0.50692 0.42261 0.12285 0.0
C4327 C 0.51501 0.40801 0.11553 0.0
H4328 H 0.48824 0.43913 0.11726 0.0
H4329 H 0.55681 0.28742 0.05578 0.0
H4330 H 0.05045 0.33564 0.33249 0.0
H4331 H 0.01916 0.33694 0.32996 0.0
H4332 H 0.00862 0.30204 0.37088 0.0
H4333 H 0.03986 0.30049 0.37348 0.0
H4334 H 0.98622 0.2899 0.33715 0.0
H4335 H 0.00714 0.34759 0.38472 0.0
H4336 H 0.02803 0.37828 0.39715 0.0
H4337 H 0.01541 0.3981 0.34787 0.0
H4338 H 0.99451 0.36757 0.33515 0.0
H4339 H 0.90024 0.29699 0.30784 0.0
H4340 H 0.92404 0.29816 0.33165 0.0
H4341 H 0.95713 0.34439 0.31237 0.0
H4342 H 0.93321 0.34388 0.28946 0.0
H4343 H 0.9649 0.3493 0.34672 0.0
H4344 H 0.95409 0.29552 0.29475 0.0
H4345 H 0.93868 0.26514 0.27469 0.0
H4346 H 0.93759 0.23821 0.32172 0.0
H4347 H 0.9528 0.26854 0.34214 0.0
C4348 C 0.04148 0.32819 0.34091 0.0
C4349 C 0.04755 0.3179 0.35312 0.0
C4350 C 0.02371 0.32916 0.33964 0.0
C4351 C 0.01185 0.31991 0.35058 0.0
C4352 C 0.01777 0.30946 0.36258 0.0
C4353 C 0.03554 0.30852 0.36392 0.0
C4354 C 0.99293 0.31985 0.34811 0.0
C4355 C 0.98129 0.30275 0.33969 0.0
C4356 C 0.98696 0.33678 0.35109 0.0
C4357 C 0.99918 0.35532 0.35905 0.0
C4358 C 0.00881 0.35851 0.37656 0.0
C4359 C 0.02065 0.37588 0.38365 0.0
C4360 C 0.02302 0.39014 0.37333 0.0
C4361 C 0.01352 0.38708 0.3559 0.0
C4362 C 0.00161 0.36978 0.34878 0.0
C4363 C 0.91244 0.30774 0.30913 0.0
C4364 C 0.91515 0.32012 0.29661 0.0
C4365 C 0.92601 0.30833 0.32265 0.0
C4366 C 0.94246 0.3211 0.32352 0.0
C4367 C 0.94457 0.33437 0.31195 0.0
C4368 C 0.93101 0.33393 0.29867 0.0
C4369 C 0.95834 0.31949 0.3345 0.0
C4370 C 0.96946 0.33624 0.34482 0.0
C4371 C 0.96422 0.30238 0.33218 0.0
C4372 C 0.95415 0.28442 0.32008 0.0
C4373 C 0.95027 0.28321 0.30089 0.0
C4374 C 0.94162 0.26597 0.28944 0.0
C4375 C 0.93698 0.24979 0.29695 0.0
C4376 C 0.94104 0.25079 0.31594 0.0
C4377 C 0.94963 0.26801 0.32747 0.0
H4378 H 0.93034 0.23645 0.28804 0.0
H4379 H 0.03221 0.40355 0.37882 0.0
H4380 H 0.01106 0.7166 0.61418 0.0
H4381 H 0.01488 0.68855 0.59346 0.0
H4382 H 0.97606 0.65386 0.62043 0.0
H4383 H 0.97354 0.68239 0.64267 0.0
H4384 H 0.00515 0.64209 0.6189 0.0
H4385 H 0.96873 0.65959 0.57275 0.0
H4386 H 0.95958 0.68192 0.55525 0.0
H4387 H 0.01105 0.69296 0.53468 0.0
H4388 H 0.02058 0.67095 0.55222 0.0
H4389 H 0.01893 0.56411 0.55569 0.0
H4390 H 0.00653 0.58816 0.57387 0.0
H4391 H 0.04348 0.6311 0.55383 0.0
H4392 H 0.05487 0.6063 0.53405 0.0
H4393 H 0.01062 0.63547 0.551 0.0
H4394 H 0.04846 0.62118 0.59778 0.0
H4395 H 0.05926 0.59917 0.61443 0.0
H4396 H 0.00798 0.58371 0.63441 0.0
H4397 H 0.9967 0.60526 0.61747 0.0
C4398 C 0.00295 0.70301 0.61527 0.0
C4399 C 0.99188 0.70131 0.6296 0.0
C4400 C 0.00499 0.68703 0.60335 0.0
C4401 C 0.99528 0.66924 0.60504 0.0
C4402 C 0.98342 0.66759 0.61884 0.0
C4403 C 0.98193 0.68369 0.63138 0.0
C4404 C -0.00025 0.65254 0.59413 0.0
C4405 C 0.00592 0.64029 0.60396 0.0
C4406 C 0.00131 0.65078 0.5748 0.0
C4407 C 0.99533 0.66357 0.56378 0.0
C4408 C 0.97809 0.66679 0.5645 0.0
C4409 C 0.97285 0.67942 0.55459 0.0
C4410 C 0.98472 0.68884 0.54386 0.0
C4411 C 0.00185 0.68563 0.54296 0.0
C4412 C 0.00715 0.67303 0.55284 0.0
C4413 C 0.02415 0.57859 0.55493 0.0
C4414 C 0.03737 0.58359 0.54334 0.0
C4415 C 0.01735 0.59232 0.56558 0.0
C4416 C 0.02436 0.61126 0.56532 0.0
C4417 C 0.03806 0.61641 0.55413 0.0
C4418 C 0.04454 0.60246 0.54299 0.0
C4419 C 0.01647 0.62556 0.57587 0.0
C4420 C 0.00958 0.63714 0.5659 0.0
C4421 C 0.01454 0.62686 0.59508 0.0
C4422 C 0.02167 0.61473 0.60617 0.0
C4423 C 0.03945 0.61305 0.60566 0.0
C4424 C 0.04565 0.60061 0.61512 0.0
C4425 C 0.0343 0.59001 0.62543 0.0
C4426 C 0.01675 0.59192 0.6264 0.0
C4427 C 0.01045 0.60424 0.61686 0.0
H4428 H 0.03911 0.58035 0.63271 0.0
H4429 H 0.98065 0.69864 0.53623 0.0
H4430 H 0.66374 0.81732 0.87978 0.0
H4431 H 0.68807 0.82413 0.86035 0.0
H4432 H 0.65028 0.82155 0.81403 0.0
H4433 H 0.62611 0.81274 0.83242 0.0
H4434 H 0.66487 0.79211 0.8104 0.0
H4435 H 0.6845 0.85862 0.82774 0.0
H4436 H 0.69262 0.88872 0.85059 0.0
H4437 H 0.73894 0.87312 0.87154 0.0
H4438 H 0.7306 0.8424 0.84964 0.0
H4439 H 0.73795 0.78555 0.75333 0.0
H4440 H 0.71065 0.79029 0.7674 0.0
H4441 H 0.73739 0.79682 0.82218 0.0
H4442 H 0.76457 0.7927 0.80823 0.0
H4443 H 0.72719 0.8287 0.81585 0.0
H4444 H 0.70105 0.76175 0.81155 0.0
H4445 H 0.68882 0.7281 0.79732 0.0
H4446 H 0.65582 0.74367 0.75696 0.0
H4447 H 0.66709 0.77737 0.77157 0.0
C4448 C 0.6607 0.81847 0.86553 0.0
C4449 C 0.64312 0.81393 0.85741 0.0
C4450 C 0.67457 0.82291 0.85464 0.0
C4451 C 0.67076 0.82318 0.8358 0.0
C4452 C 0.6533 0.82141 0.82859 0.0
C4453 C 0.63953 0.81612 0.8391 0.0
C4454 C 0.68343 0.81845 0.82276 0.0
C4455 C 0.67836 0.80046 0.81109 0.0
C4456 C 0.70109 0.82906 0.82447 0.0
C4457 C 0.70682 0.84804 0.83699 0.0
C4458 C 0.69635 0.86147 0.83731 0.0
C4459 C 0.70096 0.87864 0.85017 0.0
C4460 C 0.71633 0.88287 0.86243 0.0
C4461 C 0.72706 0.86985 0.86197 0.0
C4462 C 0.72235 0.8525 0.84937 0.0
C4463 C 0.73757 0.78722 0.76828 0.0
C4464 C 0.75289 0.78861 0.77987 0.0
C4465 C 0.72215 0.78987 0.77626 0.0
C4466 C 0.72236 0.79408 0.79571 0.0
C4467 C 0.73722 0.79363 0.80713 0.0
C4468 C 0.75258 0.79119 0.79921 0.0
C4469 C 0.70855 0.80227 0.80426 0.0
C4470 C 0.71349 0.82083 0.81482 0.0
C4471 C 0.69083 0.79207 0.8021 0.0
C4472 C 0.68518 0.77204 0.79237 0.0
C4473 C 0.69138 0.75799 0.79947 0.0
C4474 C 0.68454 0.73893 0.79143 0.0
C4475 C 0.67187 0.73378 0.77602 0.0
C4476 C 0.66576 0.74768 0.76879 0.0
C4477 C 0.67224 0.76675 0.77704 0.0
H4478 H 0.66667 0.71901 0.76979 0.0
H4479 H 0.7199 0.89621 0.87231 0.0
H4480 H 0.48439 0.57813 0.72946 0.0
H4481 H 0.49959 0.57577 0.70074 0.0
H4482 H 0.44909 0.55254 0.66824 0.0
H4483 H 0.43393 0.55484 0.69689 0.0
H4484 H 0.47134 0.53362 0.65284 0.0
H4485 H 0.47606 0.60027 0.67191 0.0
H4486 H 0.48439 0.63189 0.69234 0.0
H4487 H 0.53941 0.62933 0.69416 0.0
H4488 H 0.53138 0.59754 0.67396 0.0
H4489 H 0.49918 0.54119 0.56242 0.0
H4490 H 0.48582 0.54475 0.59202 0.0
H4491 H 0.53769 0.56868 0.62143 0.0
H4492 H 0.5511 0.56549 0.59172 0.0
H4493 H 0.51602 0.58693 0.63901 0.0
H4494 H 0.51219 0.52109 0.62027 0.0
H4495 H 0.5048 0.48981 0.59917 0.0
H4496 H 0.44937 0.49067 0.5969 0.0
H4497 H 0.45645 0.52209 0.61781 0.0
C4498 C 0.47642 0.57258 0.71623 0.0
C4499 C 0.45769 0.56678 0.71593 0.0
C4500 C 0.48523 0.57129 0.69956 0.0
C4501 C 0.47577 0.5641 0.68168 0.0
C4502 C 0.45708 0.55816 0.68145 0.0
C4503 C 0.44828 0.55956 0.69808 0.0
C4504 C 0.48512 0.56253 0.66341 0.0
C4505 C 0.48091 0.54548 0.64987 0.0
C4506 C 0.49826 0.57751 0.6591 0.0
C4507 C 0.50308 0.5964 0.67162 0.0
C4508 C 0.48991 0.60635 0.67684 0.0
C4509 C 0.49458 0.62433 0.68834 0.0
C4510 C 0.51241 0.63259 0.69459 0.0
C4511 C 0.5256 0.62289 0.68935 0.0
C4512 C 0.521 0.60488 0.67788 0.0
C4513 C 0.50789 0.54735 0.57509 0.0
C4514 C 0.52647 0.55299 0.57413 0.0
C4515 C 0.50013 0.54924 0.59231 0.0
C4516 C 0.5105 0.55672 0.60962 0.0
C4517 C 0.52904 0.56279 0.60867 0.0
C4518 C 0.53683 0.56091 0.5914 0.0
C4519 C 0.50205 0.55813 0.6284 0.0
C4520 C 0.50646 0.57508 0.64202 0.0
C4521 C 0.48923 0.54302 0.63288 0.0
C4522 C 0.48487 0.52403 0.62048 0.0
C4523 C 0.49843 0.51466 0.61519 0.0
C4524 C 0.4943 0.4969 0.60327 0.0
C4525 C 0.47664 0.48828 0.59666 0.0
C4526 C 0.46306 0.49738 0.60201 0.0
C4527 C 0.46712 0.51516 0.61391 0.0
H4528 H 0.47348 0.47454 0.58741 0.0
H4529 H 0.51599 0.64653 0.70345 0.0
H4530 H 0.8133 0.17312 0.96442 0.0
H4531 H 0.80298 0.18345 0.93664 0.0
H4532 H 0.75153 0.18229 0.95739 0.0
H4533 H 0.76193 0.17269 0.98529 0.0
H4534 H 0.75594 0.16801 0.91368 0.0
H4535 H 0.76705 0.22043 0.96749 0.0
H4536 H 0.78441 0.23723 0.99725 0.0
H4537 H 0.83188 0.2469 0.96907 0.0
H4538 H 0.81479 0.22989 0.93916 0.0
H4539 H 0.73223 0.2396 0.8706 0.0
H4540 H 0.73627 0.21488 0.88724 0.0
H4541 H 0.79321 0.23205 0.8861 0.0
H4542 H 0.78923 0.2572 0.87015 0.0
H4543 H 0.78325 0.23632 0.92026 0.0
H4544 H 0.77153 0.18319 0.86613 0.0
H4545 H 0.75515 0.16097 0.83815 0.0
H4546 H 0.70814 0.15167 0.86709 0.0
H4547 H 0.72433 0.17365 0.89531 0.0
C4548 C 0.79991 0.17528 0.96295 0.0
C4549 C 0.78862 0.1732 0.977 0.0
C4550 C 0.79393 0.18066 0.94712 0.0
C4551 C 0.77657 0.18336 0.94529 0.0
C4552 C 0.7649 0.18004 0.95877 0.0
C4553 C 0.771 0.17512 0.97474 0.0
C4554 C 0.77201 0.19322 0.93124 0.0
C4555 C 0.76161 0.18299 0.915 0.0
C4556 C 0.77955 0.21262 0.93345 0.0
C4557 C 0.78968 0.22385 0.95115 0.0
C4558 C 0.7812 0.22613 0.96766 0.0
C4559 C 0.79099 0.23566 0.98455 0.0
C4560 C 0.80925 0.2431 0.98506 0.0
C4561 C 0.81773 0.24113 0.96865 0.0
C4562 C 0.808 0.23158 0.95172 0.0
C4563 C 0.74555 0.23804 0.87402 0.0
C4564 C 0.76045 0.25052 0.86988 0.0
C4565 C 0.74782 0.22364 0.88295 0.0
C4566 C 0.76501 0.2217 0.88768 0.0
C4567 C 0.77986 0.23338 0.88237 0.0
C4568 C 0.7776 0.24784 0.87361 0.0
C4569 C 0.76768 0.21101 0.90189 0.0
C4570 C 0.77751 0.22131 0.91861 0.0
C4571 C 0.7593 0.19176 0.90011 0.0
C4572 C 0.74908 0.18013 0.88272 0.0
C4573 C 0.75763 0.17658 0.86642 0.0
C4574 C 0.74844 0.1639 0.8506 0.0
C4575 C 0.73068 0.15479 0.85092 0.0
C4576 C 0.72195 0.15861 0.86693 0.0
C4577 C 0.73113 0.17114 0.88284 0.0
H4578 H 0.72364 0.14484 0.83871 0.0
H4579 H 0.81682 0.25041 0.99815 0.0
H4580 H 0.17419 0.52025 0.16603 0.0
H4581 H 0.15386 0.51943 0.13895 0.0
H4582 H 0.125 0.55391 0.17413 0.0
H4583 H 0.14507 0.55483 0.20083 0.0
H4584 H 0.10475 0.51796 0.15495 0.0
H4585 H 0.14558 0.57395 0.14653 0.0
H4586 H 0.17693 0.59043 0.14695 0.0
H4587 H 0.18308 0.5496 0.0992 0.0
H4588 H 0.1518 0.53261 0.09875 0.0
H4589 H 0.05001 0.54182 0.08558 0.0
H4590 H 0.07031 0.54249 0.11251 0.0
H4591 H 0.09543 0.5032 0.07832 0.0
H4592 H 0.07488 0.50218 0.05154 0.0
H4593 H 0.11765 0.54164 0.0969 0.0
H4594 H 0.07484 0.48615 0.10634 0.0
H4595 H 0.04374 0.47038 0.10854 0.0
H4596 H 0.04128 0.51251 0.15672 0.0
H4597 H 0.07228 0.52881 0.15453 0.0
C4598 C 0.16385 0.52812 0.16766 0.0
C4599 C 0.16064 0.53718 0.1852 0.0
C4600 C 0.15229 0.52752 0.15245 0.0
C4601 C 0.13796 0.53623 0.1551 0.0
C4602 C 0.13591 0.54685 0.17228 0.0
C4603 C 0.14735 0.54739 0.18737 0.0
C4604 C 0.1244 0.53343 0.14019 0.0
C4605 C 0.10741 0.52319 0.14227 0.0
C4606 C 0.12837 0.54045 0.12405 0.0
C4607 C 0.14632 0.55203 0.12255 0.0
C4608 C 0.15357 0.56858 0.13599 0.0
C4609 C 0.17136 0.57794 0.13633 0.0
C4610 C 0.182 0.57105 0.12312 0.0
C4611 C 0.1748 0.55492 0.10941 0.0
C4612 C 0.15702 0.54544 0.10907 0.0
C4613 C 0.05915 0.53252 0.08425 0.0
C4614 C 0.06104 0.52174 0.06703 0.0
C4615 C 0.07088 0.53322 0.09933 0.0
C4616 C 0.08429 0.52318 0.09684 0.0
C4617 C 0.08511 0.51111 0.08004 0.0
C4618 C 0.0733 0.51026 0.06506 0.0
C4619 C 0.09802 0.52599 0.11161 0.0
C4620 C 0.11502 0.53635 0.10955 0.0
C4621 C 0.09399 0.51936 0.12796 0.0
C4622 C 0.07586 0.50874 0.13023 0.0
C4623 C 0.06766 0.49206 0.1174 0.0
C4624 C 0.05004 0.48306 0.1186 0.0
C4625 C 0.04052 0.49046 0.13274 0.0
C4626 C 0.04867 0.5068 0.14577 0.0
C4627 C 0.06628 0.51592 0.14457 0.0
H4628 H 0.02685 0.48351 0.13361 0.0
H4629 H 0.19582 0.57822 0.12348 0.0
H4630 H 0.79089 0.83236 0.47994 0.0
H4631 H 0.78966 0.81362 0.44814 0.0
H4632 H 0.80176 0.8651 0.42706 0.0
H4633 H 0.80261 0.88358 0.4582 0.0
H4634 H 0.774 0.84054 0.40707 0.0
H4635 H 0.83281 0.83871 0.43391 0.0
H4636 H 0.85228 0.82971 0.45664 0.0
H4637 H 0.82598 0.77131 0.43764 0.0
H4638 H 0.80617 0.78003 0.41498 0.0
H4639 H 0.809 0.83634 0.32332 0.0
H4640 H 0.80723 0.84097 0.35691 0.0
H4641 H 0.79401 0.78061 0.35285 0.0
H4642 H 0.79629 0.77592 0.31898 0.0
H4643 H 0.81563 0.80014 0.3857 0.0
H4644 H 0.7593 0.80284 0.35566 0.0
H4645 H 0.73895 0.81296 0.33471 0.0
H4646 H 0.7609 0.87102 0.36058 0.0
H4647 H 0.78133 0.86126 0.38169 0.0
C4648 C 0.79334 0.83959 0.46847 0.0
C4649 C 0.7967 0.85945 0.47156 0.0
C4650 C 0.79265 0.82889 0.45035 0.0
C4651 C 0.79555 0.83797 0.4352 0.0
C4652 C 0.79927 0.85776 0.43846 0.0
C4653 C 0.79977 0.86834 0.45634 0.0
C4654 C 0.79446 0.82744 0.41567 0.0
C4655 C 0.78308 0.83166 0.40242 0.0
C4656 C 0.80576 0.81522 0.40962 0.0
C4657 C 0.8179 0.81002 0.42294 0.0
C4658 C 0.83112 0.82396 0.43467 0.0
C4659 C 0.84221 0.81892 0.44753 0.0
C4660 C 0.84032 0.79996 0.44863 0.0
C4661 C 0.82739 0.786 0.43681 0.0
C4662 C 0.81623 0.79098 0.42396 0.0
C4663 C 0.80625 0.82406 0.32967 0.0
C4664 C 0.80286 0.80581 0.31862 0.0
C4665 C 0.80503 0.8267 0.34882 0.0
C4666 C 0.79993 0.81114 0.3573 0.0
C4667 C 0.79777 0.79281 0.34654 0.0
C4668 C 0.79921 0.79015 0.32726 0.0
C4669 C 0.79605 0.81444 0.37714 0.0
C4670 C 0.80627 0.80865 0.39038 0.0
C4671 C 0.78376 0.82544 0.38331 0.0
C4672 C 0.77187 0.83131 0.37018 0.0
C4673 C 0.75986 0.81776 0.35677 0.0
C4674 C 0.74827 0.82344 0.34491 0.0
C4675 C 0.74864 0.84261 0.34628 0.0
C4676 C 0.7606 0.85617 0.35953 0.0
C4677 C 0.77214 0.85057 0.37148 0.0
H4678 H 0.73966 0.84696 0.33709 0.0
H4679 H 0.84892 0.79608 0.4586 0.0
H4680 H 0.44175 0.55264 0.83892 0.0
H4681 H 0.45464 0.54882 0.86889 0.0
H4682 H 0.50676 0.57503 0.85623 0.0
H4683 H 0.49394 0.57794 0.82603 0.0
H4684 H 0.51259 0.54958 0.87118 0.0
H4685 H 0.47975 0.59523 0.89388 0.0
H4686 H 0.4538 0.60956 0.8978 0.0
H4687 H 0.42595 0.56186 0.91835 0.0
H4688 H 0.45168 0.54717 0.91437 0.0
H4689 H 0.55179 0.5505 0.9654 0.0
H4690 H 0.54198 0.55669 0.9351 0.0
H4691 H 0.48769 0.53225 0.94286 0.0
H4692 H 0.49739 0.52731 0.97326 0.0
H4693 H 0.48489 0.55951 0.93046 0.0
H4694 H 0.5204 0.51438 0.90722 0.0
H4695 H 0.54708 0.50165 0.9015 0.0
H4696 H 0.57174 0.55121 0.88187 0.0
H4697 H 0.54534 0.56437 0.88772 0.0
C4698 C 0.45587 0.55817 0.84273 0.0
C4699 C 0.46655 0.56612 0.82987 0.0
C4700 C 0.46342 0.5559 0.8601 0.0
C4701 C 0.48199 0.56174 0.86563 0.0
C4702 C 0.49251 0.57016 0.85289 0.0
C4703 C 0.48503 0.57212 0.83548 0.0
C4704 C 0.49054 0.55847 0.88399 0.0
C4705 C 0.50652 0.55202 0.88416 0.0
C4706 C 0.48309 0.56134 0.90139 0.0
C4707 C 0.46755 0.57001 0.90362 0.0
C4708 C 0.46803 0.58773 0.89909 0.0
C4709 C 0.45338 0.59593 0.90136 0.0
C4710 C 0.43821 0.5866 0.90826 0.0
C4711 C 0.43769 0.56906 0.91297 0.0
C4712 C 0.45231 0.5608 0.91073 0.0
C4713 C 0.5378 0.54604 0.96045 0.0
C4714 C 0.52551 0.53799 0.97202 0.0
C4715 C 0.53206 0.54962 0.94286 0.0
C4716 C 0.51379 0.545 0.93588 0.0
C4717 C 0.50178 0.53636 0.94733 0.0
C4718 C 0.50743 0.53323 0.96491 0.0
C4719 C 0.50665 0.54987 0.91764 0.0
C4720 C 0.49095 0.55688 0.91751 0.0
C4721 C 0.51461 0.54782 0.90039 0.0
C4722 C 0.53096 0.54048 0.89818 0.0
C4723 C 0.53161 0.5227 0.90197 0.0
C4724 C 0.54667 0.51537 0.89862 0.0
C4725 C 0.56111 0.52563 0.89137 0.0
C4726 C 0.56057 0.54329 0.88753 0.0
C4727 C 0.54558 0.5507 0.89089 0.0
H4728 H 0.57269 0.51986 0.88869 0.0
H4729 H 0.42688 0.59297 0.91001 0.0
H4730 H 0.79846 0.17719 0.07884 0.0
H4731 H 0.79836 0.20106 0.10662 0.0
H4732 H 0.74263 0.17751 0.10948 0.0
H4733 H 0.74262 0.15337 0.08139 0.0
H4734 H 0.75506 0.21994 0.11421 0.0
H4735 H 0.76754 0.16559 0.13582 0.0
H4736 H 0.78362 0.1401 0.13489 0.0
H4737 H 0.83305 0.18118 0.15054 0.0
H4738 H 0.81732 0.20693 0.15108 0.0
H4739 H 0.75714 0.26502 0.21039 0.0
H4740 H 0.75138 0.24409 0.17955 0.0
H4741 H 0.80772 0.25562 0.17341 0.0
H4742 H 0.81342 0.27592 0.20404 0.0
H4743 H 0.79224 0.21796 0.17071 0.0
H4744 H 0.78334 0.27134 0.1471 0.0
H4745 H 0.77018 0.29903 0.14855 0.0
H4746 H 0.71794 0.26262 0.13625 0.0
H4747 H 0.73079 0.23468 0.13517 0.0
C4748 C 0.78622 0.17708 0.08546 0.0
C4749 C 0.77058 0.16352 0.07836 0.0
C4750 C 0.78616 0.19071 0.10113 0.0
C4751 C 0.77048 0.19081 0.10979 0.0
C4752 C 0.75476 0.17742 0.1027 0.0
C4753 C 0.75484 0.1636 0.08701 0.0
C4754 C 0.77112 0.20435 0.12701 0.0
C4755 C 0.76285 0.2194 0.12674 0.0
C4756 C 0.78185 0.20368 0.14288 0.0
C4757 C 0.79124 0.18819 0.14336 0.0
C4758 C 0.78185 0.16919 0.13894 0.0
C4759 C 0.79091 0.15469 0.13847 0.0
C4760 C 0.80935 0.15901 0.14261 0.0
C4761 C 0.81877 0.17785 0.14732 0.0
C4762 C 0.80978 0.19241 0.14771 0.0
C4763 C 0.76815 0.26355 0.20207 0.0
C4764 C 0.78571 0.27224 0.20927 0.0
C4765 C 0.76488 0.25163 0.18465 0.0
C4766 C 0.77921 0.24842 0.17456 0.0
C4767 C 0.7966 0.2581 0.18119 0.0
C4768 C 0.79982 0.27 0.19851 0.0
C4769 C 0.7763 0.23364 0.1579 0.0
C4770 C 0.7842 0.21837 0.1583 0.0
C4771 C 0.76565 0.23437 0.14206 0.0
C4772 C 0.75799 0.25094 0.14119 0.0
C4773 C 0.76903 0.26924 0.14472 0.0
C4774 C 0.76164 0.28498 0.14554 0.0
C4775 C 0.74323 0.28259 0.14255 0.0
C4776 C 0.7322 0.26444 0.13858 0.0
C4777 C 0.73953 0.24864 0.13786 0.0
H4778 H 0.73751 0.29481 0.14326 0.0
H4779 H 0.81635 0.14776 0.14222 0.0
H4780 H 0.17728 0.55891 0.30128 0.0
H4781 H 0.17005 0.55764 0.3334 0.0
H4782 H 0.12047 0.51786 0.31184 0.0
H4783 H 0.12727 0.5198 0.28004 0.0
H4784 H 0.12009 0.55574 0.33221 0.0
H4785 H 0.14756 0.50228 0.3329 0.0
H4786 H 0.17427 0.48916 0.33005 0.0
H4787 H 0.20117 0.53094 0.3774 0.0
H4788 H 0.17469 0.54456 0.38029 0.0
H4789 H 0.06578 0.53644 0.39797 0.0
H4790 H 0.0851 0.52585 0.37472 0.0
H4791 H 0.1312 0.56127 0.4095 0.0
H4792 H 0.11184 0.57157 0.43288 0.0
H4793 H 0.13861 0.52918 0.38535 0.0
H4794 H 0.10944 0.58136 0.38459 0.0
H4795 H 0.08466 0.59741 0.3834 0.0
H4796 H 0.06169 0.55902 0.33235 0.0
H4797 H 0.08606 0.54243 0.33348 0.0
C4798 C 0.16501 0.54974 0.30364 0.0
C4799 C 0.15245 0.53981 0.28874 0.0
C4800 C 0.16108 0.54883 0.32176 0.0
C4801 C 0.14484 0.53762 0.32463 0.0
C4802 C 0.13309 0.52647 0.30958 0.0
C4803 C 0.13679 0.52777 0.29162 0.0
C4804 C 0.13792 0.54057 0.34263 0.0
C4805 C 0.12397 0.54981 0.34383 0.0
C4806 C 0.14377 0.53346 0.35769 0.0
C4807 C 0.15919 0.52449 0.35676 0.0
C4808 C 0.15918 0.5087 0.34268 0.0
C4809 C 0.17429 0.50119 0.34103 0.0
C4810 C 0.18943 0.50924 0.35352 0.0
C4811 C 0.18944 0.52473 0.36774 0.0
C4812 C 0.17437 0.53234 0.3694 0.0
C4813 C 0.08008 0.54144 0.40075 0.0
C4814 C 0.08757 0.55521 0.41655 0.0
C4815 C 0.09105 0.53526 0.38772 0.0
C4816 C 0.10941 0.54319 0.39042 0.0
C4817 C 0.11702 0.55517 0.40729 0.0
C4818 C 0.10604 0.56127 0.42038 0.0
C4819 C 0.11965 0.54293 0.37427 0.0
C4820 C 0.13459 0.53491 0.37368 0.0
C4821 C 0.11458 0.55098 0.35939 0.0
C4822 C 0.09945 0.56046 0.35931 0.0
C4823 C 0.09894 0.57612 0.3733 0.0
C4824 C 0.08499 0.58535 0.3726 0.0
C4825 C 0.07157 0.57919 0.35786 0.0
C4826 C 0.07204 0.56374 0.34381 0.0
C4827 C 0.08589 0.55439 0.34451 0.0
H4828 H 0.06084 0.58643 0.35729 0.0
H4829 H 0.20113 0.50344 0.35219 0.0
H4830 H 0.81374 0.87808 0.6019 0.0
H4831 H 0.80869 0.86452 0.62958 0.0
H4832 H 0.77045 0.8168 0.59685 0.0
H4833 H 0.77542 0.83032 0.56898 0.0
H4834 H 0.75869 0.83213 0.63093 0.0
H4835 H 0.81051 0.81198 0.60834 0.0
H4836 H 0.84069 0.81606 0.59795 0.0
H4837 H 0.86226 0.85147 0.65097 0.0
H4838 H 0.83217 0.84795 0.66156 0.0
H4839 H 0.76344 0.77638 0.70281 0.0
H4840 H 0.76277 0.78647 0.67304 0.0
H4841 H 0.79614 0.84064 0.69903 0.0
H4842 H 0.79693 0.83083 0.72869 0.0
H4843 H 0.80895 0.81866 0.66678 0.0
H4844 H 0.75925 0.84234 0.68893 0.0
H4845 H 0.73015 0.83922 0.70174 0.0
H4846 H 0.70559 0.7995 0.65204 0.0
H4847 H 0.7347 0.80201 0.6391 0.0
C4848 C 0.80434 0.86464 0.60055 0.0
C4849 C 0.79506 0.85517 0.58327 0.0
C4850 C 0.80146 0.85693 0.61637 0.0
C4851 C 0.78926 0.83965 0.61517 0.0
C4852 C 0.77992 0.83016 0.59798 0.0
C4853 C 0.78289 0.83781 0.58209 0.0
C4854 C 0.78651 0.83147 0.63194 0.0
C4855 C 0.76958 0.82886 0.63861 0.0
C4856 C 0.80088 0.82765 0.64212 0.0
C4857 C 0.81901 0.82984 0.63568 0.0
C4858 C 0.82165 0.8208 0.61772 0.0
C4859 C 0.83876 0.823 0.6118 0.0
C4860 C 0.85338 0.83406 0.62377 0.0
C4861 C 0.85092 0.84294 0.6417 0.0
C4862 C 0.83384 0.84085 0.64766 0.0
C4863 C 0.77065 0.79035 0.70227 0.0
C4864 C 0.78085 0.80239 0.71807 0.0
C4865 C 0.7701 0.79617 0.68527 0.0
C4866 C 0.77968 0.81413 0.68395 0.0
C4867 C 0.78886 0.82661 0.69986 0.0
C4868 C 0.78924 0.82091 0.71681 0.0
C4869 C 0.78131 0.81966 0.66582 0.0
C4870 C 0.79802 0.82171 0.65892 0.0
C4871 C 0.76687 0.82327 0.65569 0.0
C4872 C 0.74923 0.82214 0.66315 0.0
C4873 C 0.7477 0.83276 0.6808 0.0
C4874 C 0.73119 0.83113 0.68809 0.0
C4875 C 0.71604 0.8191 0.67775 0.0
C4876 C 0.71736 0.80876 0.66006 0.0
C4877 C 0.73387 0.81028 0.65274 0.0
H4878 H 0.70327 0.81785 0.68341 0.0
H4879 H 0.86661 0.83571 0.61917 0.0
H4880 H 0.78408 0.47398 0.50877 0.0
H4881 H 0.75809 0.48764 0.50853 0.0
H4882 H 0.72953 0.44367 0.5343 0.0
H4883 H 0.75536 0.42936 0.53367 0.0
H4884 H 0.71005 0.44971 0.50638 0.0
H4885 H 0.74817 0.48719 0.55969 0.0
H4886 H 0.7771 0.50612 0.57532 0.0
H4887 H 0.77579 0.54738 0.54156 0.0
H4888 H 0.747 0.52851 0.52543 0.0
H4889 H 0.64531 0.49663 0.54625 0.0
H4890 H 0.66678 0.47801 0.53536 0.0
H4891 H 0.69399 0.52358 0.51078 0.0
H4892 H 0.67287 0.54246 0.52241 0.0
H4893 H 0.71464 0.51658 0.53655 0.0
H4894 H 0.67497 0.47741 0.48366 0.0
H4895 H 0.64906 0.45465 0.46533 0.0
H4896 H 0.65412 0.41441 0.4993 0.0
H4897 H 0.67968 0.43704 0.51811 0.0
C4898 C 0.77224 0.46732 0.51441 0.0
C4899 C 0.77148 0.45088 0.52145 0.0
C4900 C 0.75752 0.47509 0.51428 0.0
C4901 C 0.74223 0.46677 0.52174 0.0
C4902 C 0.74139 0.45019 0.52858 0.0
C4903 C 0.756 0.44212 0.52827 0.0
C4904 C 0.72698 0.47534 0.52223 0.0
C4905 C 0.71082 0.46426 0.51319 0.0
C4906 C 0.72856 0.4944 0.53079 0.0
C4907 C 0.74543 0.50634 0.54124 0.0
C4908 C 0.75405 0.50028 0.55555 0.0
C4909 C 0.77045 0.51098 0.56448 0.0
C4910 C 0.7783 0.52792 0.5594 0.0
C4911 C 0.7697 0.53425 0.54546 0.0
C4912 C 0.75332 0.52356 0.53643 0.0
C4913 C 0.65572 0.50239 0.53819 0.0
C4914 C 0.65797 0.52094 0.53544 0.0
C4915 C 0.66775 0.4917 0.53173 0.0
C4916 C 0.6819 0.49948 0.52227 0.0
C4917 C 0.68311 0.51743 0.51809 0.0
C4918 C 0.67126 0.52822 0.52482 0.0
C4919 C 0.69732 0.49094 0.52056 0.0
C4920 C 0.71368 0.50205 0.5296 0.0
C4921 C 0.6958 0.47172 0.51237 0.0
C4922 C 0.67913 0.45906 0.50244 0.0
C4923 C 0.67029 0.46389 0.48749 0.0
C4924 C 0.6557 0.45095 0.47696 0.0
C4925 C 0.64986 0.43314 0.48122 0.0
C4926 C 0.65851 0.42826 0.49611 0.0
C4927 C 0.67302 0.44115 0.50673 0.0
H4928 H 0.63867 0.42309 0.47295 0.0
H4929 H 0.79102 0.53616 0.56629 0.0
H4930 H 0.24695 0.12857 0.49546 0.0
H4931 H 0.21756 0.10926 0.49749 0.0
H4932 H 0.19438 0.15707 0.49558 0.0
H4933 H 0.22399 0.17671 0.49423 0.0
H4934 H 0.18038 0.13896 0.52099 0.0
H4935 H 0.19091 0.11982 0.4569 0.0
H4936 H 0.2086 0.10872 0.43186 0.0
H4937 H 0.20711 0.05787 0.45247 0.0
H4938 H 0.18958 0.06877 0.47778 0.0
H4939 H 0.09055 0.08898 0.50374 0.0
H4940 H 0.12002 0.10791 0.5013 0.0
H4941 H 0.1423 0.05918 0.50114 0.0
H4942 H 0.11261 0.03999 0.50298 0.0
H4943 H 0.15715 0.07765 0.47716 0.0
H4944 H 0.1463 0.0967 0.54118 0.0
H4945 H 0.13071 0.10892 0.56766 0.0
H4946 H 0.13362 0.16049 0.548 0.0
H4947 H 0.14912 0.14854 0.52133 0.0
C4948 C 0.23559 0.13497 0.49534 0.0
C4949 C 0.23779 0.15416 0.49455 0.0
C4950 C 0.21875 0.12388 0.49646 0.0
C4951 C 0.20363 0.13157 0.49638 0.0
C4952 C 0.20581 0.15076 0.49562 0.0
C4953 C 0.22272 0.16196 0.49476 0.0
C4954 C 0.18561 0.11962 0.49725 0.0
C4955 C 0.17517 0.12569 0.51123 0.0
C4956 C 0.17899 0.10202 0.48486 0.0
C4957 C 0.18902 0.09516 0.46929 0.0
C4958 C 0.19439 0.10629 0.45611 0.0
C4959 C 0.2044 0.10004 0.44188 0.0
C4960 C 0.209 0.08262 0.44059 0.0
C4961 C 0.20354 0.07136 0.45349 0.0
C4962 C 0.19354 0.07755 0.46776 0.0
C4963 C 0.1017 0.08223 0.50303 0.0
C4964 C 0.09919 0.06293 0.50349 0.0
C4965 C 0.11862 0.09314 0.50182 0.0
C4966 C 0.13358 0.08517 0.50149 0.0
C4967 C 0.13104 0.06574 0.50145 0.0
C4968 C 0.11402 0.05472 0.50238 0.0
C4969 C 0.15175 0.09702 0.50087 0.0
C4970 C 0.16228 0.09092 0.48694 0.0
C4971 C 0.15844 0.11463 0.51333 0.0
C4972 C 0.14871 0.12162 0.52913 0.0
C4973 C 0.14346 0.11057 0.54239 0.0
C4974 C 0.13467 0.11747 0.55747 0.0
C4975 C 0.13111 0.13543 0.55947 0.0
C4976 C 0.13636 0.14656 0.54642 0.0
C4977 C 0.14516 0.13974 0.53134 0.0
H4978 H 0.12433 0.14076 0.57116 0.0
H4979 H 0.21678 0.07782 0.42959 0.0
H4980 H 0.17216 0.92727 0.747 0.0
H4981 H 0.18746 0.90142 0.74713 0.0
H4982 H 0.23469 0.9416 0.77429 0.0
H4983 H 0.21959 0.96743 0.77337 0.0
H4984 H 0.24723 0.91803 0.7544 0.0
H4985 H 0.20145 0.90508 0.79439 0.0
H4986 H 0.17104 0.8984 0.8041 0.0
H4987 H 0.15697 0.84809 0.76144 0.0
H4988 H 0.18716 0.85472 0.75104 0.0
H4989 H 0.27996 0.8453 0.79763 0.0
H4990 H 0.26442 0.87001 0.79299 0.0
H4991 H 0.24618 0.83989 0.73702 0.0
H4992 H 0.26282 0.81562 0.7413 0.0
H4993 H 0.21855 0.85691 0.76971 0.0
H4994 H 0.26593 0.87191 0.73 0.0
H4995 H 0.29635 0.88141 0.72098 0.0
H4996 H 0.30766 0.92932 0.76653 0.0
H4997 H 0.27739 0.91994 0.77598 0.0
C4998 C 0.18582 0.93075 0.75306 0.0
C4999 C 0.19432 0.94999 0.76018 0.0
C5000 C 0.19472 0.91564 0.7533 0.0
C5001 C 0.21262 0.91874 0.76107 0.0
C5002 C 0.22108 0.93803 0.7681 0.0
C5003 C 0.21226 0.95313 0.76762 0.0
C5004 C 0.22263 0.90241 0.76166 0.0
C5005 C 0.24074 0.90483 0.75797 0.0
C5006 C 0.21482 0.88444 0.76592 0.0
C5007 C 0.19652 0.88056 0.77176 0.0
C5008 C 0.19181 0.89272 0.78689 0.0
C5009 C 0.1746 0.88895 0.7925 0.0
C5010 C 0.16203 0.87292 0.78324 0.0
C5011 C 0.16666 0.86061 0.76839 0.0
C5012 C 0.18381 0.86438 0.76263 0.0
C5013 C 0.27325 0.84414 0.78401 0.0
C5014 C 0.27372 0.82848 0.76966 0.0
C5015 C 0.26399 0.85839 0.78142 0.0
C5016 C 0.25382 0.85748 0.76456 0.0
C5017 C 0.25389 0.84161 0.75021 0.0
C5018 C 0.26371 0.82761 0.75262 0.0
C5019 C 0.24301 0.87271 0.76243 0.0
C5020 C 0.22487 0.87012 0.76603 0.0
C5021 C 0.25078 0.89062 0.75831 0.0
C5022 C 0.26948 0.89507 0.75384 0.0
C5023 C 0.27503 0.88421 0.73835 0.0
C5024 C 0.29219 0.88968 0.73305 0.0
C5025 C 0.30388 0.90602 0.74312 0.0
C5026 C 0.29857 0.9167 0.75872 0.0
C5027 C 0.28143 0.91131 0.76406 0.0
H5028 H 0.31703 0.91045 0.73879 0.0
H5029 H 0.14874 0.86997 0.78765 0.0
H5030 H 0.36718 0.99444 0.03411 0.0
H5031 H 0.39954 0.99944 0.03816 0.0
H5032 H 0.39562 0.94056 0.01474 0.0
H5033 H 0.36343 0.93523 0.01101 0.0
H5034 H 0.42899 0.96854 0.0453 0.0
H5035 H 0.39695 0.95405 0.97992 0.0
H5036 H 0.37519 0.958 0.95599 0.0
H5037 H 0.39015 0.01822 0.97508 0.0
H5038 H 0.41194 0.01455 0.99911 0.0
H5039 H 0.50863 0.98041 0.01039 0.0
H5040 H 0.47671 0.96648 0.00375 0.0
H5041 H 0.4663 0.02232 0.01057 0.0
H5042 H 0.49807 0.03619 0.01677 0.0
H5043 H 0.44008 0.99306 0.98724 0.0
H5044 H 0.4707 0.01114 0.04974 0.0
H5045 H 0.49475 0.01249 0.07374 0.0
H5046 H 0.48396 0.95187 0.0628 0.0
H5047 H 0.45983 0.95023 0.03871 0.0
C5048 C 0.3732 0.98247 0.03048 0.0
C5049 C 0.36312 0.96479 0.02121 0.0
C5050 C 0.39155 0.98527 0.03302 0.0
C5051 C 0.39954 0.97041 0.02623 0.0
C5052 C 0.38939 0.9521 0.01988 0.0
C5053 C 0.37108 0.94923 0.01749 0.0
C5054 C 0.41735 0.97497 0.02072 0.0
C5055 C 0.43149 0.97352 0.03247 0.0
C5056 C 0.4203 0.98197 0.00424 0.0
C5057 C 0.40578 0.984 0.99144 0.0
C5058 C 0.39531 0.96808 0.97922 0.0
C5059 C 0.38309 0.97028 0.96555 0.0
C5060 C 0.38126 0.98835 0.96404 0.0
C5061 C 0.39153 0.00424 0.9763 0.0
C5062 C 0.40378 0.00211 0.98994 0.0
C5063 C 0.49945 0.98952 0.00966 0.0
C5064 C 0.50528 0.00912 0.0143 0.0
C5065 C 0.48145 0.98165 0.0057 0.0
C5066 C 0.46954 0.99354 0.00721 0.0
C5067 C 0.47554 0.0131 0.00943 0.0
C5068 C 0.49356 0.02096 0.01309 0.0
C5069 C 0.45172 0.98632 0.0116 0.0
C5070 C 0.43758 0.98753 -0.00021 0.0
C5071 C 0.44885 0.97967 0.02831 0.0
C5072 C 0.46361 0.98056 0.04237 0.0
C5073 C 0.47357 0.99812 0.05237 0.0
C5074 C 0.48716 0.99894 0.06603 0.0
C5075 C 0.49091 0.98228 0.06978 0.0
C5076 C 0.48105 0.96477 0.05988 0.0
C5077 C 0.4674 0.96388 0.04625 0.0
H5078 H 0.50143 0.98294 0.08036 0.0
H5079 H 0.37192 0.99004 0.95334 0.0
H5080 H 0.85933 0.56466 0.7976 0.0
H5081 H 0.84891 0.58712 0.78202 0.0
H5082 H 0.89995 0.62629 0.79682 0.0
H5083 H 0.91045 0.60417 0.81282 0.0
H5084 H 0.87199 0.63981 0.80727 0.0
H5085 H 0.88894 0.60792 0.75164 0.0
H5086 H 0.89214 0.58089 0.72773 0.0
H5087 H 0.83543 0.56393 0.71554 0.0
H5088 H 0.83182 0.59067 0.73954 0.0
H5089 H 0.83172 0.69757 0.75794 0.0
H5090 H 0.85025 0.68118 0.77378 0.0
H5091 H 0.80901 0.62993 0.7595 0.0
H5092 H 0.79046 0.64626 0.7436 0.0
H5093 H 0.8396 0.62618 0.74447 0.0
H5094 H 0.82289 0.64338 0.80683 0.0
H5095 H 0.8188 0.65983 0.83827 0.0
H5096 H 0.87066 0.69632 0.84173 0.0
H5097 H 0.87526 0.6796 0.81055 0.0
C5098 C 0.86819 0.57823 0.79791 0.0
C5099 C 0.88572 0.58266 0.80623 0.0
C5100 C 0.86246 0.59069 0.78847 0.0
C5101 C 0.87412 0.60771 0.78749 0.0
C5102 C 0.89115 0.61277 0.7969 0.0
C5103 C 0.89687 0.60039 0.80646 0.0
C5104 C 0.86704 0.62172 0.78008 0.0
C5105 C 0.86543 0.63733 0.79328 0.0
C5106 C 0.85806 0.61762 0.76208 0.0
C5107 C 0.86011 0.6014 0.74749 0.0
C5108 C 0.87712 0.59838 0.74396 0.0
C5109 C 0.87902 0.58311 0.73035 0.0
C5110 C 0.864 0.57071 0.72011 0.0
C5111 C 0.84706 0.57357 0.72345 0.0
C5112 C 0.84508 0.58883 0.73704 0.0
C5113 C 0.82642 0.68299 0.75877 0.0
C5114 C 0.80995 0.67293 0.74929 0.0
C5115 C 0.83694 0.6737 0.76784 0.0
C5116 C 0.83096 0.6544 0.76752 0.0
C5117 C 0.81379 0.64485 0.75967 0.0
C5118 C 0.80331 0.65409 0.75056 0.0
C5119 C 0.84362 0.64354 0.77223 0.0
C5120 C 0.84656 0.62894 0.75826 0.0
C5121 C 0.85333 0.64792 0.78983 0.0
C5122 C 0.84915 0.66071 0.80615 0.0
C5123 C 0.83319 0.65527 0.81409 0.0
C5124 C 0.83096 0.66434 0.83203 0.0
C5125 C 0.84443 0.67916 0.84197 0.0
C5126 C 0.86019 0.68493 0.83398 0.0
C5127 C 0.86263 0.67565 0.8162 0.0
H5128 H 0.84263 0.6862 0.85582 0.0
H5129 H 0.86549 0.5589 0.7096 0.0
H5130 H 0.83998 0.65118 0.03652 0.0
H5131 H 0.86844 0.64235 0.03744 0.0
H5132 H 0.87499 0.6519 0.9817 0.0
H5133 H 0.84601 0.6609 0.98074 0.0
H5134 H 0.87929 0.61673 0.98636 0.0
H5135 H 0.90487 0.68085 0.01785 0.0
H5136 H 0.90491 0.71001 0.04063 0.0
H5137 H 0.90408 0.67979 0.08525 0.0
H5138 H 0.90402 0.65047 0.06275 0.0
H5139 H 0.95237 0.57517 0.00457 0.0
H5140 H 0.93534 0.5965 0.99478 0.0
H5141 H 0.92065 0.61037 0.05084 0.0
H5142 H 0.93891 0.59066 0.06102 0.0
H5143 H 0.92625 0.63999 0.03919 0.0
H5144 H 0.8937 0.57619 0.0103 0.0
H5145 H 0.88772 0.54491 0.98925 0.0
H5146 H 0.8961 0.57135 0.94212 0.0
H5147 H 0.90239 0.6028 0.96294 0.0
C5148 C 0.84757 0.65165 0.02452 0.0
C5149 C 0.84077 0.65652 0.0085 0.0
C5150 C 0.86395 0.64681 0.02514 0.0
C5151 C 0.874 0.64673 0.00975 0.0
C5152 C 0.86751 0.65209 0.9938 0.0
C5153 C 0.85104 0.65722 0.99326 0.0
C5154 C 0.89013 0.63894 0.01007 0.0
C5155 C 0.88993 0.62206 0.99755 0.0
C5156 C 0.90369 0.6457 0.02495 0.0
C5157 C 0.9045 0.66349 0.0386 0.0
C5158 C 0.90474 0.68045 0.03253 0.0
C5159 C 0.90476 0.697 0.04539 0.0
C5160 C 0.9045 0.69675 0.06437 0.0
C5161 C 0.90434 0.67998 0.07055 0.0
C5162 C 0.90441 0.66342 0.05776 0.0
C5163 C 0.94582 0.58306 0.01491 0.0
C5164 C 0.94695 0.58097 0.03361 0.0
C5165 C 0.93582 0.59506 0.00919 0.0
C5166 C 0.92635 0.60486 0.02193 0.0
C5167 C 0.92775 0.60301 0.04064 0.0
C5168 C 0.93803 0.59142 0.04643 0.0
C5169 C 0.91482 0.61697 0.01617 0.0
C5170 C 0.91601 0.63481 0.0276 0.0
C5171 C 0.90182 0.61075 0.00059 0.0
C5172 C 0.89889 0.59184 0.98822 0.0
C5173 C 0.89454 0.57533 0.99549 0.0
C5174 C 0.89102 0.55757 0.98358 0.0
C5175 C 0.89162 0.55614 0.96437 0.0
C5176 C 0.89573 0.57247 0.95701 0.0
C5177 C 0.89931 0.59026 0.96886 0.0
H5178 H 0.88884 0.54238 0.95517 0.0
H5179 H 0.90442 0.70956 0.07429 0.0
H5180 H 0.21554 0.06291 0.76218 0.0
H5181 H 0.23339 0.0952 0.76377 0.0
H5182 H 0.18859 0.11794 0.78099 0.0
H5183 H 0.1709 0.08617 0.7791 0.0
H5184 H 0.20181 0.13706 0.7582 0.0
H5185 H 0.2291 0.12172 0.81095 0.0
H5186 H 0.24397 0.10268 0.82798 0.0
H5187 H 0.28762 0.10983 0.79402 0.0
H5188 H 0.27288 0.12874 0.77662 0.0
H5189 H 0.24671 0.23519 0.78227 0.0
H5190 H 0.23061 0.20296 0.78244 0.0
H5191 H 0.27707 0.18241 0.76717 0.0
H5192 H 0.29339 0.21478 0.76772 0.0
H5193 H 0.26318 0.1618 0.78861 0.0
H5194 H 0.23392 0.17819 0.73599 0.0
H5195 H 0.2169 0.19586 0.71945 0.0
H5196 H 0.17505 0.18671 0.75533 0.0
H5197 H 0.19185 0.16905 0.77212 0.0
C5198 C 0.20953 0.07476 0.76652 0.0
C5199 C 0.19153 0.07145 0.77048 0.0
C5200 C 0.21984 0.09346 0.76746 0.0
C5201 C 0.21265 0.10964 0.7726 0.0
C5202 C 0.1948 0.10619 0.77682 0.0
C5203 C 0.18457 0.0877 0.77579 0.0
C5204 C 0.22318 0.13 0.77321 0.0
C5205 C 0.21517 0.1424 0.7651 0.0
C5206 C 0.24082 0.13756 0.78187 0.0
C5207 C 0.24981 0.12642 0.79236 0.0
C5208 C 0.24182 0.11912 0.80704 0.0
C5209 C 0.25023 0.10837 0.81677 0.0
C5210 C 0.2667 0.10499 0.81204 0.0
C5211 C 0.27484 0.11243 0.79763 0.0
C5212 C 0.26648 0.12317 0.78784 0.0
C5213 C 0.25364 0.2239 0.77901 0.0
C5214 C 0.27164 0.22811 0.77504 0.0
C5215 C 0.24422 0.20514 0.77887 0.0
C5216 C 0.25213 0.18948 0.77432 0.0
C5217 C 0.27023 0.19375 0.7707 0.0
C5218 C 0.27973 0.21255 0.77105 0.0
C5219 C 0.24183 0.16893 0.77351 0.0
C5220 C 0.24986 0.15648 0.78164 0.0
C5221 C 0.22403 0.16139 0.76511 0.0
C5222 C 0.21425 0.17254 0.75545 0.0
C5223 C 0.22118 0.18013 0.74046 0.0
C5224 C 0.21155 0.1901 0.73102 0.0
C5225 C 0.19496 0.19251 0.7364 0.0
C5226 C 0.18793 0.1849 0.75121 0.0
C5227 C 0.19749 0.1749 0.76068 0.0
H5228 H 0.18753 0.20022 0.72905 0.0
H5229 H 0.27318 0.09664 0.81957 0.0
H5230 H 0.39782 0.9625 0.25766 0.0
H5231 H 0.37512 0.93335 0.25617 0.0
H5232 H 0.35599 0.95856 0.30691 0.0
H5233 H 0.37873 0.98724 0.30891 0.0
H5234 H 0.36365 0.92412 0.30644 0.0
H5235 H 0.32999 0.95313 0.268 0.0
H5236 H 0.32651 0.96982 0.24242 0.0
H5237 H 0.33682 0.92342 0.20304 0.0
H5238 H 0.34049 0.90654 0.2284 0.0
H5239 H 0.29423 0.83506 0.28073 0.0
H5240 H 0.3021 0.86957 0.2859 0.0
H5241 H 0.34904 0.8663 0.25719 0.0
H5242 H 0.34327 0.83245 0.25591 0.0
H5243 H 0.31951 0.89321 0.25206 0.0
H5244 H 0.36506 0.87207 0.28745 0.0
H5245 H 0.37781 0.85785 0.31092 0.0
H5246 H 0.35583 0.89151 0.35386 0.0
H5247 H 0.34131 0.90451 0.33023 0.0
C5248 C 0.38885 0.96165 0.26851 0.0
C5249 C 0.38971 0.97698 0.2832 0.0
C5250 C 0.3758 0.9453 0.26748 0.0
C5251 C 0.36371 0.94446 0.28108 0.0
C5252 C 0.36503 0.95944 0.29611 0.0
C5253 C 0.37804 0.97563 0.29722 0.0
C5254 C 0.35088 0.92709 0.28076 0.0
C5255 C 0.35352 0.91751 0.29493 0.0
C5256 C 0.33819 0.91875 0.26542 0.0
C5257 C 0.33547 0.9286 0.25008 0.0
C5258 C 0.33152 0.94652 0.25388 0.0
C5259 C 0.32953 0.956 0.23943 0.0
C5260 C 0.33144 0.94769 0.22112 0.0
C5261 C 0.3353 0.92983 0.21722 0.0
C5262 C 0.33728 0.92027 0.23162 0.0
C5263 C 0.30681 0.84194 0.27692 0.0
C5264 C 0.31925 0.83167 0.27029 0.0
C5265 C 0.3109 0.86138 0.27913 0.0
C5266 C 0.3266 0.87003 0.27281 0.0
C5267 C 0.33735 0.85949 0.26298 0.0
C5268 C 0.33413 0.84034 0.26242 0.0
C5269 C 0.3328 0.89013 0.27742 0.0
C5270 C 0.32888 0.90022 0.26412 0.0
C5271 C 0.34504 0.89873 0.29316 0.0
C5272 C 0.35112 0.88842 0.30683 0.0
C5273 C 0.36185 0.87551 0.30165 0.0
C5274 C 0.36966 0.86786 0.31506 0.0
C5275 C 0.36758 0.87371 0.33388 0.0
C5276 C 0.35732 0.88687 0.33925 0.0
C5277 C 0.34897 0.89407 0.32581 0.0
H5278 H 0.37393 0.86805 0.3443 0.0
H5279 H 0.32993 0.95508 0.20995 0.0
H5280 H 0.58429 0.34783 0.55232 0.0
H5281 H 0.57897 0.37466 0.53921 0.0
H5282 H 0.57166 0.40358 0.59401 0.0
H5283 H 0.57686 0.37706 0.60706 0.0
H5284 H 0.54515 0.40378 0.56989 0.0
H5285 H 0.60915 0.41775 0.57126 0.0
H5286 H 0.63816 0.41107 0.5636 0.0
H5287 H 0.62217 0.40338 0.50524 0.0
H5288 H 0.59305 0.40992 0.51256 0.0
H5289 H 0.548 0.49736 0.56592 0.0
H5290 H 0.55317 0.46735 0.57064 0.0
H5291 H 0.55908 0.45107 0.51211 0.0
H5292 H 0.55449 0.48206 0.50742 0.0
H5293 H 0.58488 0.44172 0.53309 0.0
H5294 H 0.51983 0.42197 0.53134 0.0
H5295 H 0.4898 0.42561 0.53861 0.0
H5296 H 0.50813 0.44411 0.59675 0.0
H5297 H 0.538 0.43934 0.58988 0.0
C5298 C 0.58171 0.35999 0.56159 0.0
C5299 C 0.58095 0.36015 0.5808 0.0
C5300 C 0.57874 0.3754 0.55408 0.0
C5301 C 0.57492 0.39132 0.56557 0.0
C5302 C 0.57451 0.39156 0.58475 0.0
C5303 C 0.57752 0.37629 0.59224 0.0
C5304 C 0.57018 0.40728 0.55784 0.0
C5305 C 0.55398 0.41207 0.56195 0.0
C5306 C 0.58126 0.4179 0.54687 0.0
C5307 C 0.59883 0.41409 0.54246 0.0
C5308 C 0.61178 0.4145 0.55679 0.0
C5309 C 0.62827 0.4108 0.55251 0.0
C5310 C 0.63201 0.40677 0.53395 0.0
C5311 C 0.61929 0.40652 0.51963 0.0
C5312 C 0.60279 0.41025 0.52383 0.0
C5313 C 0.55 0.48728 0.55389 0.0
C5314 C 0.55058 0.49211 0.53625 0.0
C5315 C 0.5529 0.46995 0.55661 0.0
C5316 C 0.55621 0.45652 0.54174 0.0
C5317 C 0.55644 0.46104 0.52387 0.0
C5318 C 0.55357 0.47866 0.52112 0.0
C5319 C 0.56001 0.43834 0.54553 0.0
C5320 C 0.57599 0.43318 0.54077 0.0
C5321 C 0.54877 0.42719 0.55588 0.0
C5322 C 0.53109 0.43052 0.56008 0.0
C5323 C 0.51743 0.42684 0.54565 0.0
C5324 C 0.50042 0.42895 0.54973 0.0
C5325 C 0.49711 0.43538 0.5681 0.0
C5326 C 0.51072 0.43923 0.58251 0.0
C5327 C 0.52761 0.43655 0.57858 0.0
H5328 H 0.48399 0.43728 0.57117 0.0
H5329 H 0.64478 0.40388 0.53067 0.0
H5330 H 0.47269 0.77198 0.36163 0.0
H5331 H 0.44385 0.77255 0.34768 0.0
H5332 H 0.41926 0.75581 0.39513 0.0
H5333 H 0.44876 0.75536 0.40967 0.0
H5334 H 0.39947 0.73697 0.3582 0.0
H5335 H 0.42197 0.79993 0.39329 0.0
H5336 H 0.44573 0.82852 0.405 0.0
H5337 H 0.45277 0.8358 0.34895 0.0
H5338 H 0.42906 0.8072 0.3369 0.0
H5339 H 0.32039 0.7654 0.3252 0.0
H5340 H 0.34558 0.76163 0.345 0.0
H5341 H 0.38137 0.77872 0.30504 0.0
H5342 H 0.35628 0.78199 0.28512 0.0
H5343 H 0.39372 0.79784 0.34231 0.0
H5344 H 0.37329 0.73448 0.30722 0.0
H5345 H 0.3525 0.70386 0.29453 0.0
H5346 H 0.34294 0.69624 0.35004 0.0
H5347 H 0.36359 0.72691 0.36305 0.0
C5348 C 0.46128 0.7683 0.36929 0.0
C5349 C 0.46334 0.76376 0.38701 0.0
C5350 C 0.44464 0.76867 0.36117 0.0
C5351 C 0.42925 0.7645 0.37033 0.0
C5352 C 0.43092 0.75917 0.38772 0.0
C5353 C 0.44781 0.75887 0.39603 0.0
C5354 C 0.41186 0.76645 0.36154 0.0
C5355 C 0.39799 0.75039 0.35521 0.0
C5356 C 0.40999 0.7838 0.35705 0.0
C5357 C 0.42374 0.80144 0.3642 0.0
C5358 C 0.42858 0.80765 0.38346 0.0
C5359 C 0.44204 0.82385 0.39017 0.0
C5360 C 0.45076 0.83397 0.37773 0.0
C5361 C 0.44597 0.82797 0.35857 0.0
C5362 C 0.43247 0.81181 0.35179 0.0
C5363 C 0.33361 0.76817 0.32057 0.0
C5364 C 0.33621 0.7737 0.30338 0.0
C5365 C 0.34804 0.766 0.33191 0.0
C5366 C 0.36553 0.76983 0.32661 0.0
C5367 C 0.36811 0.77559 0.30953 0.0
C5368 C 0.35367 0.77728 0.29802 0.0
C5369 C 0.3812 0.7683 0.3389 0.0
C5370 C 0.39489 0.78448 0.34572 0.0
C5371 C 0.38285 0.75104 0.34385 0.0
C5372 C 0.36977 0.7331 0.33609 0.0
C5373 C 0.36655 0.7264 0.31671 0.0
C5374 C 0.35487 0.70899 0.30946 0.0
C5375 C 0.34636 0.69814 0.32147 0.0
C5376 C 0.34951 0.70468 0.34075 0.0
C5377 C 0.3612 0.72207 0.34807 0.0
H5378 H 0.33737 0.68463 0.31584 0.0
H5379 H 0.46123 0.84646 0.38293 0.0
H5380 H 0.04911 0.7352 0.09547 0.0
H5381 H 0.04464 0.70212 0.07989 0.0
H5382 H 0.08871 0.7169 0.04762 0.0
H5383 H 0.0929 0.75039 0.06298 0.0
H5384 H 0.06061 0.68641 0.02777 0.0
H5385 H 0.09635 0.70332 0.0879 0.0
H5386 H 0.10152 0.71687 0.12164 0.0
H5387 H 0.05423 0.67852 0.13103 0.0
H5388 H 0.0487 0.66488 0.09734 0.0
H5389 H 0.06561 0.59031 0.00444 0.0
H5390 H 0.07386 0.6247 0.01414 0.0
H5391 H 0.04729 0.62032 0.06417 0.0
H5392 H 0.04231 0.58611 0.05593 0.0
H5393 H 0.06963 0.64747 0.07395 0.0
H5394 H 0.03056 0.63151 0.01634 0.0
H5395 H 0.02139 0.61848 0.9829 0.0
H5396 H 0.06822 0.65391 0.96858 0.0
H5397 H 0.07775 0.66699 0.00192 0.0
C5398 C 0.05746 0.73149 0.08458 0.0
C5399 C 0.07131 0.74534 0.08038 0.0
C5400 C 0.05498 0.71255 0.07577 0.0
C5401 C 0.06659 0.70691 0.06288 0.0
C5402 C 0.07962 0.7209 0.05757 0.0
C5403 C 0.08197 0.74003 0.06627 0.0
C5404 C 0.06625 0.68641 0.05673 0.0
C5405 C 0.06269 0.67782 0.03777 0.0
C5406 C 0.06855 0.67511 0.06982 0.0
C5407 C 0.0721 0.68313 0.09011 0.0
C5408 C 0.08704 0.69783 0.09717 0.0
C5409 C 0.09003 0.70552 0.11628 0.0
C5410 C 0.07821 0.69857 0.12847 0.0
C5411 C 0.06339 0.68388 0.12158 0.0
C5412 C 0.06034 0.67614 0.10249 0.0
C5413 C 0.06268 0.5968 0.01807 0.0
C5414 C 0.05441 0.58556 0.03 0.0
C5415 C 0.06669 0.61658 0.02332 0.0
C5416 C 0.06079 0.62561 0.03975 0.0
C5417 C 0.05235 0.61415 0.05155 0.0
C5418 C 0.0495 0.59446 0.0469 0.0
C5419 C 0.06304 0.64674 0.04481 0.0
C5420 C 0.06726 0.65569 0.0637 0.0
C5421 C 0.06062 0.65814 0.03166 0.0
C5422 C 0.05495 0.65009 0.01163 0.0
C5423 C 0.03894 0.63643 0.00606 0.0
C5424 C 0.03367 0.62905 0.98712 0.0
C5425 C 0.04423 0.63533 0.97363 0.0
C5426 C 0.06007 0.64903 0.97904 0.0
C5427 C 0.0654 0.65643 0.99795 0.0
H5428 H 0.04012 0.62962 0.95899 0.0
H5429 H 0.08055 0.70455 0.14326 0.0
H5430 H 0.05444 0.24616 0.87629 0.0
H5431 H 0.08193 0.25003 0.86082 0.0
H5432 H 0.11031 0.28702 0.91074 0.0
H5433 H 0.08278 0.28315 0.92636 0.0
H5434 H 0.1187 0.3012 0.8791 0.0
H5435 H 0.11713 0.24339 0.89947 0.0
H5436 H 0.10185 0.21177 0.90355 0.0
H5437 H 0.0931 0.19248 0.84416 0.0
H5438 H 0.10817 0.22411 0.83973 0.0
H5439 H 0.20347 0.30594 0.8449 0.0
H5440 H 0.17929 0.29878 0.86481 0.0
H5441 H 0.14766 0.25925 0.81816 0.0
H5442 H 0.17185 0.26644 0.79834 0.0
H5443 H 0.14188 0.24604 0.85015 0.0
H5444 H 0.14248 0.3041 0.82992 0.0
H5445 H 0.15493 0.33648 0.8258 0.0
H5446 H 0.16375 0.35589 0.88518 0.0
H5447 H 0.15164 0.32352 0.88964 0.0
C5448 C 0.06654 0.25506 0.88403 0.0
C5449 C 0.06636 0.26429 0.90261 0.0
C5450 C 0.08231 0.25723 0.87516 0.0
C5451 C 0.09834 0.26874 0.88458 0.0
C5452 C 0.09818 0.27806 0.90313 0.0
C5453 C 0.08242 0.27575 0.91208 0.0
C5454 C 0.11515 0.27106 0.87498 0.0
C5455 C 0.12397 0.28917 0.87311 0.0
C5456 C 0.12189 0.25539 0.86674 0.0
C5457 C 0.11373 0.2361 0.86926 0.0
C5458 C 0.11195 0.23239 0.88728 0.0
C5459 C 0.10331 0.21449 0.88966 0.0
C5460 C 0.09649 0.20013 0.87412 0.0
C5461 C 0.0984 0.20362 0.85617 0.0
C5462 C 0.10704 0.22152 0.85372 0.0
C5463 C 0.19158 0.29528 0.83908 0.0
C5464 C 0.18969 0.28652 0.82012 0.0
C5465 C 0.17764 0.29133 0.85041 0.0
C5466 C 0.1614 0.2786 0.84303 0.0
C5467 C 0.15994 0.26908 0.82431 0.0
C5468 C 0.17383 0.27313 0.81297 0.0
C5469 C 0.14556 0.27629 0.85426 0.0
C5470 C 0.13682 0.25814 0.85636 0.0
C5471 C 0.13886 0.29197 0.86275 0.0
C5472 C 0.14639 0.31136 0.86011 0.0
C5473 C 0.14727 0.31523 0.84209 0.0
C5474 C 0.15423 0.33359 0.83969 0.0
C5475 C 0.16018 0.34822 0.85521 0.0
C5476 C 0.15918 0.34453 0.87317 0.0
C5477 C 0.15228 0.32618 0.87564 0.0
H5478 H 0.16553 0.36244 0.85333 0.0
H5479 H 0.08974 0.18629 0.87598 0.0
H5480 H 0.56428 0.74924 0.8973 0.0
H5481 H 0.55895 0.72285 0.91339 0.0
H5482 H 0.6004 0.75366 0.95655 0.0
H5483 H 0.60589 0.78021 0.94049 0.0
H5484 H 0.60164 0.71553 0.94269 0.0
H5485 H 0.56084 0.75236 0.96653 0.0
H5486 H 0.53827 0.77059 0.96228 0.0
H5487 H 0.5026 0.72045 0.93094 0.0
H5488 H 0.52514 0.70196 0.93471 0.0
H5489 H 0.57622 0.66143 0.01233 0.0
H5490 H 0.58663 0.68419 0.99266 0.0
H5491 H 0.54058 0.65851 0.95323 0.0
H5492 H 0.53003 0.63611 0.97319 0.0
H5493 H 0.54249 0.69463 0.9649 0.0
H5494 H 0.58392 0.65788 0.94096 0.0
H5495 H 0.60853 0.6415 0.94014 0.0
H5496 H 0.64411 0.69225 0.97041 0.0
H5497 H 0.61969 0.70899 0.97131 0.0
C5498 C 0.5722 0.75041 0.91025 0.0
C5499 C 0.58539 0.76669 0.9178 0.0
C5500 C 0.56917 0.73538 0.91936 0.0
C5501 C 0.57927 0.73653 0.93608 0.0
C5502 C 0.59254 0.7527 0.94361 0.0
C5503 C 0.5955 0.76783 0.93457 0.0
C5504 C 0.57561 0.72089 0.94587 0.0
C5505 C 0.58885 0.71102 0.94789 0.0
C5506 C 0.55875 0.71506 0.95207 0.0
C5507 C 0.54471 0.7258 0.95082 0.0
C5508 C 0.54819 0.74522 0.95871 0.0
C5509 C 0.53542 0.75561 0.95636 0.0
C5510 C 0.51903 0.74669 0.94631 0.0
C5511 C 0.51532 0.72733 0.93871 0.0
C5512 C 0.52808 0.71688 0.94098 0.0
C5513 C 0.56861 0.66052 0.99926 0.0
C5514 C 0.5523 0.64742 0.99422 0.0
C5515 C 0.5746 0.67334 0.98797 0.0
C5516 C 0.56438 0.67298 0.97149 0.0
C5517 C 0.54863 0.659 0.96592 0.0
C5518 C 0.54259 0.6463 0.97726 0.0
C5519 C 0.56855 0.68881 0.96172 0.0
C5520 C 0.55535 0.69895 0.95979 0.0
C5521 C 0.58556 0.69496 0.95574 0.0
C5522 C 0.59989 0.68457 0.95648 0.0
C5523 C 0.5969 0.66545 0.94773 0.0
C5524 C 0.61086 0.65613 0.94716 0.0
C5525 C 0.62785 0.66575 0.95538 0.0
C5526 C 0.63093 0.68477 0.96413 0.0
C5527 C 0.61705 0.69419 0.96464 0.0
H5528 H 0.63862 0.65849 0.95488 0.0
H5529 H 0.50918 0.75477 0.94444 0.0
H5530 H 0.05721 0.74565 0.64476 0.0
H5531 H 0.08457 0.73838 0.65649 0.0
H5532 H 0.07434 0.7595 0.71289 0.0
H5533 H 0.04713 0.76693 0.70141 0.0
H5534 H 0.10448 0.78009 0.69764 0.0
H5535 H 0.07658 0.71695 0.70456 0.0
H5536 H 0.05784 0.6851 0.69213 0.0
H5537 H 0.09395 0.67535 0.6507 0.0
H5538 H 0.11284 0.70723 0.66281 0.0
H5539 H 0.16986 0.77061 0.76121 0.0
H5540 H 0.14481 0.77308 0.74101 0.0
H5541 H 0.1633 0.73997 0.69418 0.0
H5542 H 0.18844 0.7374 0.71462 0.0
H5543 H 0.13041 0.7245 0.69834 0.0
H5544 H 0.15996 0.78729 0.6941 0.0
H5545 H 0.17514 0.82107 0.70191 0.0
H5546 H 0.13377 0.83303 0.73597 0.0
H5547 H 0.11868 0.79937 0.72888 0.0
C5548 C 0.06071 0.74851 0.65967 0.0
C5549 C 0.05051 0.75747 0.6722 0.0
C5550 C 0.07609 0.74403 0.6663 0.0
C5551 C 0.08126 0.7485 0.68544 0.0
C5552 C 0.07033 0.75595 0.69804 0.0
C5553 C 0.05501 0.76043 0.69145 0.0
C5554 C 0.09968 0.74982 0.69195 0.0
C5555 C 0.11022 0.76801 0.69816 0.0
C5556 C 0.10701 0.73394 0.69131 0.0
C5557 C 0.09607 0.7145 0.68451 0.0
C5558 C 0.0805 0.70803 0.69276 0.0
C5559 C 0.06985 0.68997 0.68578 0.0
C5560 C 0.07468 0.67823 0.6706 0.0
C5561 C 0.09023 0.68447 0.66246 0.0
C5562 C 0.10094 0.70251 0.6694 0.0
C5563 C 0.16861 0.76405 0.74656 0.0
C5564 C 0.18061 0.75343 0.73943 0.0
C5565 C 0.15453 0.76573 0.73496 0.0
C5566 C 0.15227 0.75676 0.71608 0.0
C5567 C 0.16488 0.747 0.70871 0.0
C5568 C 0.17909 0.74546 0.72034 0.0
C5569 C 0.13529 0.75504 0.70519 0.0
C5570 C 0.12491 0.73673 0.69784 0.0
C5571 C 0.12796 0.77092 0.70485 0.0
C5572 C 0.13826 0.79074 0.71103 0.0
C5573 C 0.15433 0.79706 0.7036 0.0
C5574 C 0.16289 0.81622 0.70785 0.0
C5575 C 0.15547 0.82919 0.71948 0.0
C5576 C 0.1396 0.823 0.72708 0.0
C5577 C 0.13107 0.80387 0.72299 0.0
H5578 H 0.16199 0.84404 0.72255 0.0
H5579 H 0.06639 0.66428 0.66517 0.0
H5580 H 0.13401 0.38734 0.41174 0.0
H5581 H 0.12656 0.4158 0.43014 0.0
H5582 H 0.07062 0.38902 0.41842 0.0
H5583 H 0.07795 0.3609 0.40062 0.0
H5584 H 0.07986 0.42598 0.41185 0.0
H5585 H 0.08671 0.38817 0.45786 0.0
H5586 H 0.10122 0.37136 0.47788 0.0
H5587 H 0.14175 0.4218 0.49862 0.0
H5588 H 0.12753 0.43884 0.47856 0.0
H5589 H 0.03045 0.46635 0.48199 0.0
H5590 H 0.04381 0.44392 0.46122 0.0
H5591 H 0.09569 0.48137 0.47687 0.0
H5592 H 0.0825 0.50332 0.49708 0.0
H5593 H 0.09218 0.44289 0.48073 0.0
H5594 H 0.08155 0.48134 0.43649 0.0
H5595 H 0.0617 0.4978 0.42202 0.0
H5596 H 0.02424 0.44495 0.40148 0.0
H5597 H 0.04391 0.4282 0.41588 0.0
C5598 C 0.12023 0.38777 0.41326 0.0
C5599 C 0.10647 0.37231 0.40518 0.0
C5600 C 0.11602 0.40379 0.4236 0.0
C5601 C 0.09812 0.4042 0.42535 0.0
C5602 C 0.08448 0.38877 0.417 0.0
C5603 C 0.08865 0.37283 0.40704 0.0
C5604 C 0.09316 0.42044 0.43615 0.0
C5605 C 0.08269 0.42986 0.42689 0.0
C5606 C 0.09691 0.42523 0.45568 0.0
C5607 C 0.10635 0.4146 0.46637 0.0
C5608 C 0.09894 0.39554 0.46637 0.0
C5609 C 0.10702 0.38602 0.47784 0.0
C5610 C 0.12246 0.39547 0.48943 0.0
C5611 C 0.12986 0.41446 0.48955 0.0
C5612 C 0.12182 0.42404 0.47812 0.0
C5613 C 0.04468 0.46947 0.48101 0.0
C5614 C 0.05574 0.48599 0.4915 0.0
C5615 C 0.0522 0.45695 0.46918 0.0
C5616 C 0.0706 0.46131 0.46784 0.0
C5617 C 0.08148 0.47792 0.47807 0.0
C5618 C 0.07403 0.49022 0.48982 0.0
C5619 C 0.07888 0.44815 0.45644 0.0
C5620 C 0.08991 0.4394 0.46562 0.0
C5621 C 0.07545 0.44382 0.43697 0.0
C5622 C 0.06418 0.45356 0.4272 0.0
C5623 C 0.06911 0.47325 0.4288 0.0
C5624 C 0.05789 0.48262 0.42065 0.0
C5625 C 0.04171 0.47243 0.41085 0.0
C5626 C 0.03679 0.45281 0.40905 0.0
C5627 C 0.04801 0.44336 0.41713 0.0
H5628 H 0.03298 0.47972 0.40465 0.0
H5629 H 0.12864 0.3881 0.49838 0.0
H5630 H 0.45033 0.22867 0.20349 0.0
H5631 H 0.4204 0.22926 0.21202 0.0
H5632 H 0.41521 0.26617 0.17398 0.0
H5633 H 0.44513 0.26567 0.1653 0.0
H5634 H 0.41918 0.28257 0.2122 0.0
H5635 H 0.38338 0.22951 0.16987 0.0
H5636 H 0.37769 0.19662 0.15241 0.0
H5637 H 0.37393 0.17661 0.20365 0.0
H5638 H 0.37985 0.20942 0.22147 0.0
H5639 H 0.32997 0.28558 0.23085 0.0
H5640 H 0.35921 0.28613 0.22009 0.0
H5641 H 0.3733 0.26117 0.26571 0.0
H5642 H 0.34451 0.26279 0.27782 0.0
H5643 H 0.36457 0.23878 0.22375 0.0
H5644 H 0.40151 0.29134 0.26592 0.0
H5645 H 0.41255 0.3239 0.28373 0.0
H5646 H 0.4162 0.34446 0.23278 0.0
H5647 H 0.40492 0.31202 0.21463 0.0
C5648 C 0.44262 0.23652 0.19663 0.0
C5649 C 0.45015 0.24788 0.1845 0.0
C5650 C 0.42546 0.23651 0.20119 0.0
C5651 C 0.41596 0.24796 0.19372 0.0
C5652 C 0.42256 0.2573 0.17978 0.0
C5653 C 0.43967 0.2572 0.17509 0.0
C5654 C 0.40237 0.25447 0.20438 0.0
C5655 C 0.40694 0.27319 0.21438 0.0
C5656 C 0.38712 0.24176 0.20769 0.0
C5657 C 0.38213 0.22195 0.19702 0.0
C5658 C 0.38132 0.2181 0.17743 0.0
C5659 C 0.37809 0.19947 0.16746 0.0
C5660 C 0.3755 0.18454 0.17692 0.0
C5661 C 0.37594 0.1882 0.19635 0.0
C5662 C 0.37918 0.20682 0.20639 0.0
C5663 C 0.33996 0.28207 0.23958 0.0
C5664 C 0.33559 0.27503 0.25552 0.0
C5665 C 0.35647 0.282 0.23326 0.0
C5666 C 0.36814 0.27374 0.24225 0.0
C5667 C 0.36436 0.26787 0.25894 0.0
C5668 C 0.34806 0.26874 0.26574 0.0
C5669 C 0.38143 0.26692 0.23145 0.0
C5670 C 0.37674 0.24816 0.2214 0.0
C5671 C 0.39662 0.27958 0.22804 0.0
C5672 C 0.40228 0.29924 0.23891 0.0
C5673 C 0.4044 0.30282 0.2585 0.0
C5674 C 0.41085 0.32124 0.26866 0.0
C5675 C 0.41527 0.33619 0.25937 0.0
C5676 C 0.41292 0.33282 0.23993 0.0
C5677 C 0.4065 0.31443 0.22971 0.0
H5678 H 0.4204 0.35043 0.26725 0.0
H5679 H 0.37312 0.17012 0.16919 0.0
H5680 H 0.64906 0.49543 0.33113 0.0
H5681 H 0.63769 0.49577 0.36211 0.0
H5682 H 0.59646 0.52208 0.34581 0.0
H5683 H 0.60758 0.52189 0.3155 0.0
H5684 H 0.60809 0.53963 0.37879 0.0
H5685 H 0.58979 0.47387 0.35204 0.0
H5686 H 0.5928 0.44192 0.33769 0.0
H5687 H 0.62663 0.44092 0.38555 0.0
H5688 H 0.62406 0.47301 0.40006 0.0
H5689 H 0.54906 0.52699 0.45104 0.0
H5690 H 0.5622 0.52333 0.42116 0.0
H5691 H 0.60766 0.51011 0.44737 0.0
H5692 H 0.5948 0.51452 0.47758 0.0
H5693 H 0.59532 0.48548 0.41058 0.0
H5694 H 0.61409 0.55182 0.43641 0.0
H5695 H 0.61156 0.58417 0.44988 0.0
H5696 H 0.5756 0.58322 0.40299 0.0
H5697 H 0.57813 0.55093 0.3891 0.0
C5698 C 0.6375 0.50118 0.33405 0.0
C5699 C 0.62952 0.50872 0.32031 0.0
C5700 C 0.63087 0.50134 0.35197 0.0
C5701 C 0.61597 0.50903 0.35691 0.0
C5702 C 0.60798 0.51621 0.34301 0.0
C5703 C 0.61448 0.51602 0.32532 0.0
C5704 C 0.60881 0.51036 0.37633 0.0
C5705 C 0.60516 0.52757 0.38545 0.0
C5706 C 0.60507 0.49505 0.38588 0.0
C5707 C 0.60694 0.47595 0.37703 0.0
C5708 C 0.59805 0.46693 0.35941 0.0
C5709 C 0.59963 0.44877 0.35126 0.0
C5710 C 0.60995 0.43942 0.36067 0.0
C5711 C 0.61868 0.4482 0.37825 0.0
C5712 C 0.61718 0.46638 0.38644 0.0
C5713 C 0.56178 0.52311 0.45055 0.0
C5714 C 0.57061 0.52092 0.4671 0.0
C5715 C 0.56943 0.52111 0.43326 0.0
C5716 C 0.58613 0.51634 0.43148 0.0
C5717 C 0.59481 0.51371 0.44791 0.0
C5718 C 0.58738 0.51627 0.46537 0.0
C5719 C 0.59455 0.51467 0.41276 0.0
C5720 C 0.59833 0.49746 0.40382 0.0
C5721 C 0.59831 0.5299 0.40321 0.0
C5722 C 0.5961 0.5489 0.41186 0.0
C5723 C 0.60546 0.55843 0.4291 0.0
C5724 C 0.60408 0.57677 0.43678 0.0
C5725 C 0.59326 0.58567 0.42742 0.0
C5726 C 0.5839 0.57628 0.41028 0.0
C5727 C 0.58536 0.55799 0.40245 0.0
H5728 H 0.59222 0.59988 0.43339 0.0
H5729 H 0.61113 0.42534 0.35436 0.0
H5730 H 0.34239 0.92837 0.07552 0.0
H5731 H 0.34058 0.91465 0.10335 0.0
H5732 H 0.31603 0.85993 0.06949 0.0
H5733 H 0.31779 0.87337 0.04163 0.0
H5734 H 0.2964 0.87267 0.09867 0.0
H5735 H 0.35506 0.86615 0.08617 0.0
H5736 H 0.3857 0.87828 0.07918 0.0
H5737 H 0.39653 0.91583 0.13273 0.0
H5738 H 0.36572 0.90431 0.13984 0.0
H5739 H 0.30904 0.8045 0.1497 0.0
H5740 H 0.30271 0.82592 0.12996 0.0
H5741 H 0.32864 0.87382 0.17302 0.0
H5742 H 0.33512 0.85225 0.19266 0.0
H5743 H 0.34631 0.86961 0.14226 0.0
H5744 H 0.28609 0.87072 0.15511 0.0
H5745 H 0.25434 0.85884 0.15863 0.0
H5746 H 0.24632 0.82791 0.10204 0.0
H5747 H 0.27802 0.83939 0.09822 0.0
C5748 C 0.33703 0.91333 0.07398 0.0
C5749 C 0.32995 0.90193 0.05657 0.0
C5750 C 0.33591 0.90561 0.08982 0.0
C5751 C 0.32784 0.8865 0.08824 0.0
C5752 C 0.32201 0.87481 0.07077 0.0
C5753 C 0.32319 0.88247 0.05494 0.0
C5754 C 0.32482 0.87873 0.10488 0.0
C5755 C 0.30721 0.87182 0.10827 0.0
C5756 C 0.33912 0.87827 0.11728 0.0
C5757 C 0.35795 0.88456 0.11344 0.0
C5758 C 0.3639 0.87712 0.09641 0.0
C5759 C 0.38131 0.88389 0.09241 0.0
C5760 C 0.39303 0.89789 0.10547 0.0
C5761 C 0.3874 0.90504 0.1226 0.0
C5762 C 0.36995 0.8984 0.12662 0.0
C5763 C 0.31278 0.81962 0.15506 0.0
C5764 C 0.32285 0.82704 0.17221 0.0
C5765 C 0.30896 0.83181 0.14399 0.0
C5766 C 0.3153 0.85137 0.15012 0.0
C5767 C 0.32364 0.85873 0.1682 0.0
C5768 C 0.32746 0.84652 0.17925 0.0
C5769 C 0.31769 0.86317 0.13617 0.0
C5770 C 0.33534 0.8708 0.13307 0.0
C5771 C 0.30339 0.86377 0.12375 0.0
C5772 C 0.28449 0.85597 0.12638 0.0
C5773 C 0.27761 0.86123 0.14347 0.0
C5774 C 0.25959 0.85465 0.14548 0.0
C5775 C 0.24829 0.84279 0.13051 0.0
C5776 C 0.25505 0.83723 0.11358 0.0
C5777 C 0.27304 0.84379 0.11148 0.0
H5778 H 0.23433 0.83781 0.13205 0.0
H5779 H 0.4065 0.90314 0.10234 0.0
H5780 H 0.94591 0.5054 0.84604 0.0
H5781 H 0.95383 0.51012 0.87946 0.0
H5782 H 0.95155 0.56885 0.88619 0.0
H5783 H 0.94356 0.56408 0.85271 0.0
H5784 H 0.98518 0.5615 0.88893 0.0
H5785 H 0.92991 0.54489 0.9156 0.0
H5786 H 0.89975 0.52478 0.91387 0.0
H5787 H 0.92185 0.47658 0.9158 0.0
H5788 H 0.95215 0.49637 0.91744 0.0
H5789 H 0.03694 0.57001 0.97365 0.0
H5790 H 0.01455 0.57211 0.94988 0.0
H5791 H 0.00342 0.51152 0.93048 0.0
H5792 H 0.0256 0.50943 0.95452 0.0
H5793 H 0.97316 0.52563 0.93942 0.0
H5794 H 0.02439 0.53597 0.90578 0.0
H5795 H 0.0556 0.55119 0.90345 0.0
H5796 H 0.04172 0.60492 0.90803 0.0
H5797 H 0.01048 0.5901 0.91105 0.0
C5798 C 0.94695 0.51918 0.85482 0.0
C5799 C 0.94521 0.53466 0.84721 0.0
C5800 C 0.95082 0.52175 0.87383 0.0
C5801 C 0.95321 0.53986 0.88501 0.0
C5802 C 0.94952 0.55482 0.8776 0.0
C5803 C 0.94548 0.55219 0.85861 0.0
C5804 C 0.96515 0.54412 0.9018 0.0
C5805 C 0.98242 0.55436 0.90047 0.0
C5806 C 0.96147 0.53382 0.91597 0.0
C5807 C 0.94335 0.52218 0.91677 0.0
C5808 C 0.92835 0.53003 0.9158 0.0
C5809 C 0.91122 0.51867 0.91476 0.0
C5810 C 0.90888 0.49941 0.91471 0.0
C5811 C 0.92369 0.49152 0.9159 0.0
C5812 C 0.94086 0.50283 0.91699 0.0
C5813 C 0.03032 0.55738 0.96362 0.0
C5814 C 0.03271 0.53962 0.96539 0.0
C5815 C 0.01735 0.55849 0.95051 0.0
C5816 C 0.00727 0.54186 0.93909 0.0
C5817 C 0.01098 0.52432 0.93965 0.0
C5818 C 0.02384 0.5232 0.95286 0.0
C5819 C 0.99295 0.54288 0.92628 0.0
C5820 C 0.97558 0.5335 0.92837 0.0
C5821 C 0.99657 0.55327 0.91221 0.0
C5822 C 0.01509 0.56197 0.9089 0.0
C5823 C 0.02799 0.55105 0.9064 0.0
C5824 C 0.0457 0.55961 0.90501 0.0
C5825 C 0.05066 0.57903 0.90568 0.0
C5826 C 0.03787 0.58988 0.90758 0.0
C5827 C 0.02014 0.58142 0.90916 0.0
H5828 H 0.06439 0.58565 0.90465 0.0
H5829 H 0.89561 0.49061 0.91376 0.0
H5830 H 0.32589 0.2228 0.56519 0.0
H5831 H 0.32965 0.24066 0.59764 0.0
H5832 H 0.27264 0.22787 0.5992 0.0
H5833 H 0.26899 0.2099 0.56715 0.0
H5834 H 0.28707 0.26381 0.61628 0.0
H5835 H 0.29705 0.20229 0.61568 0.0
H5836 H 0.31151 0.17568 0.60717 0.0
H5837 H 0.36108 0.2101 0.63508 0.0
H5838 H 0.347 0.23713 0.64335 0.0
H5839 H 0.26944 0.25095 0.70864 0.0
H5840 H 0.273 0.2476 0.67551 0.0
H5841 H 0.32603 0.2826 0.6884 0.0
H5842 H 0.32135 0.28807 0.72173 0.0
H5843 H 0.31898 0.24074 0.6643 0.0
H5844 H 0.30494 0.3018 0.66732 0.0
H5845 H 0.28718 0.32566 0.6755 0.0
H5846 H 0.24126 0.28768 0.64344 0.0
H5847 H 0.2587 0.26351 0.63525 0.0
C5848 C 0.31422 0.22424 0.57242 0.0
C5849 C 0.29714 0.21516 0.56378 0.0
C5850 C 0.31636 0.23428 0.59095 0.0
C5851 C 0.30142 0.23552 0.60091 0.0
C5852 C 0.28436 0.22717 0.59183 0.0
C5853 C 0.28227 0.21692 0.57354 0.0
C5854 C 0.30322 0.24451 0.62107 0.0
C5855 C 0.29416 0.25882 0.62675 0.0
C5856 C 0.31252 0.23807 0.63478 0.0
C5857 C 0.32105 0.22186 0.62984 0.0
C5858 C 0.3111 0.20429 0.61979 0.0
C5859 C 0.31922 0.18911 0.61503 0.0
C5860 C 0.33723 0.19122 0.6205 0.0
C5861 C 0.34714 0.20851 0.63078 0.0
C5862 C 0.33911 0.22378 0.63548 0.0
C5863 C 0.28118 0.2592 0.70448 0.0
C5864 C 0.2945 0.27074 0.71788 0.0
C5865 C 0.28351 0.2568 0.68547 0.0
C5866 C 0.29977 0.26487 0.67944 0.0
C5867 C 0.31328 0.2764 0.69271 0.0
C5868 C 0.31053 0.27961 0.71172 0.0
C5869 C 0.30272 0.25993 0.6594 0.0
C5870 C 0.31246 0.24617 0.65377 0.0
C5871 C 0.29365 0.26645 0.64569 0.0
C5872 C 0.28309 0.28083 0.65079 0.0
C5873 C 0.29101 0.29848 0.66216 0.0
C5874 C 0.28102 0.31208 0.66675 0.0
C5875 C 0.2631 0.30818 0.66 0.0
C5876 C 0.25514 0.29068 0.64865 0.0
C5877 C 0.26507 0.27705 0.64401 0.0
H5878 H 0.25538 0.31872 0.66357 0.0
H5879 H 0.34348 0.17944 0.61684 0.0
H5880 H 0.60979 0.50839 0.2196 0.0
H5881 H 0.59453 0.51391 0.19165 0.0
H5882 H 0.63749 0.50136 0.16 0.0
H5883 H 0.653 0.49672 0.18804 0.0
H5884 H 0.63024 0.52812 0.14859 0.0
H5885 H 0.5888 0.47186 0.15675 0.0
H5886 H 0.56797 0.45243 0.1737 0.0
H5887 H 0.53603 0.49366 0.18002 0.0
H5888 H 0.55675 0.51341 0.16321 0.0
H5889 H 0.59591 0.5186 0.05682 0.0
H5890 H 0.60454 0.51277 0.08683 0.0
H5891 H 0.56058 0.53337 0.10974 0.0
H5892 H 0.5509 0.53815 0.07853 0.0
H5893 H 0.56605 0.5051 0.1274 0.0
H5894 H 0.60701 0.56074 0.11872 0.0
H5895 H 0.62793 0.58021 0.10189 0.0
H5896 H 0.66073 0.53979 0.09711 0.0
H5897 H 0.64003 0.5201 0.11395 0.0
C5898 C 0.61599 0.50665 0.20667 0.0
C5899 C 0.63287 0.50204 0.20649 0.0
C5900 C 0.60707 0.50971 0.19039 0.0
C5901 C 0.6144 0.50797 0.17296 0.0
C5902 C 0.63116 0.50305 0.17284 0.0
C5903 C 0.64015 0.50027 0.18912 0.0
C5904 C 0.60553 0.51211 0.15518 0.0
C5905 C 0.61622 0.52269 0.14404 0.0
C5906 C 0.58696 0.50606 0.14888 0.0
C5907 C 0.57445 0.49421 0.15892 0.0
C5908 C 0.5774 0.47684 0.16186 0.0
C5909 C 0.56559 0.46575 0.17141 0.0
C5910 C 0.55072 0.47184 0.17799 0.0
C5911 C 0.54757 0.48899 0.17495 0.0
C5912 C 0.55933 0.50012 0.16538 0.0
C5913 C 0.58783 0.52203 0.06804 0.0
C5914 C 0.57266 0.52922 0.06467 0.0
C5915 C 0.59302 0.51874 0.08562 0.0
C5916 C 0.58381 0.52303 0.10139 0.0
C5917 C 0.56832 0.52995 0.09822 0.0
C5918 C 0.56279 0.5329 0.0802 0.0
C5919 C 0.59101 0.52056 0.1207 0.0
C5920 C 0.58006 0.51044 0.13208 0.0
C5921 C 0.60938 0.52702 0.12739 0.0
C5922 C 0.62195 0.53893 0.11751 0.0
C5923 C 0.61867 0.556 0.11404 0.0
C5924 C 0.63048 0.56706 0.1045 0.0
C5925 C 0.6456 0.5612 0.09836 0.0
C5926 C 0.64901 0.54431 0.10186 0.0
C5927 C 0.63729 0.53323 0.11147 0.0
H5928 H 0.6547 0.56977 0.09094 0.0
H5929 H 0.54161 0.46325 0.18539 0.0
H5930 H 0.28934 0.90114 0.94189 0.0
H5931 H 0.29304 0.87452 0.91805 0.0
H5932 H 0.34855 0.88527 0.93801 0.0
H5933 H 0.34487 0.912 0.96164 0.0
H5934 H 0.34212 0.88312 0.90066 0.0
H5935 H 0.32255 0.84275 0.94438 0.0
H5936 H 0.3034 0.82945 0.96681 0.0
H5937 H 0.25782 0.8172 0.92682 0.0
H5938 H 0.27672 0.8303 0.90414 0.0
H5939 H 0.33942 0.8056 0.8244 0.0
H5940 H 0.34601 0.82507 0.85613 0.0
H5941 H 0.29044 0.82626 0.85771 0.0
H5942 H 0.28398 0.80693 0.82647 0.0
H5943 H 0.30399 0.81828 0.88894 0.0
H5944 H 0.31772 0.86692 0.85151 0.0
H5945 H 0.33279 0.8846 0.82918 0.0
H5946 H 0.38368 0.88424 0.8551 0.0
H5947 H 0.36891 0.86713 0.87801 0.0
C5948 C 0.30239 0.89811 0.94064 0.0
C5949 C 0.317 0.90876 0.95281 0.0
C5950 C 0.30437 0.88265 0.92758 0.0
C5951 C 0.32093 0.87777 0.92686 0.0
C5952 C 0.33565 0.88876 0.93874 0.0
C5953 C 0.33366 0.9042 0.95175 0.0
C5954 C 0.32336 0.86295 0.91178 0.0
C5955 C 0.33429 0.86869 0.89833 0.0
C5956 C 0.3126 0.84449 0.9087 0.0
C5957 C 0.30104 0.8376 0.92265 0.0
C5958 C 0.30842 0.83738 0.94046 0.0
C5959 C 0.29763 0.82978 0.95317 0.0
C5960 C 0.27941 0.8225 0.94825 0.0
C5961 C 0.27194 0.82282 0.93061 0.0
C5962 C 0.28269 0.83027 0.91781 0.0
C5963 C 0.32868 0.8097 0.83191 0.0
C5964 C 0.31112 0.80424 0.8237 0.0
C5965 C 0.33244 0.82089 0.84973 0.0
C5966 C 0.31864 0.82683 0.85906 0.0
C5967 C 0.30113 0.82139 0.85073 0.0
C5968 C 0.29739 0.81012 0.83311 0.0
C5969 C 0.32213 0.83879 0.87758 0.0
C5970 C 0.31242 0.83245 0.89164 0.0
C5971 C 0.33339 0.85699 0.88095 0.0
C5972 C 0.34226 0.86537 0.86612 0.0
C5973 C 0.33212 0.8703 0.8522 0.0
C5974 C 0.34059 0.88034 0.83954 0.0
C5975 C 0.35915 0.88526 0.84052 0.0
C5976 C 0.3693 0.88029 0.85426 0.0
C5977 C 0.3609 0.8705 0.86713 0.0
H5978 H 0.36566 0.89307 0.83072 0.0
H5979 H 0.27109 0.8166 0.9581 0.0
H5980 H 0.90767 0.53883 0.72855 0.0
H5981 H 0.92039 0.53154 0.69888 0.0
H5982 H 0.96679 0.52267 0.72807 0.0
H5983 H 0.95504 0.5313 0.7575 0.0
H5984 H 0.97346 0.55252 0.71154 0.0
H5985 H 0.94324 0.48695 0.69623 0.0
H5986 H 0.91639 0.46116 0.69277 0.0
H5987 H 0.89263 0.48344 0.65036 0.0
H5988 H 0.91934 0.50945 0.65364 0.0
H5989 H 0.02686 0.5189 0.64688 0.0
H5990 H 0.00851 0.52858 0.67107 0.0
H5991 H 0.96962 0.5343 0.62935 0.0
H5992 H 0.98795 0.52382 0.60487 0.0
H5993 H 0.95566 0.50957 0.64988 0.0
H5994 H 0.99178 0.57445 0.66563 0.0
H5995 H 0.02016 0.59841 0.67249 0.0
H5996 H 0.03519 0.57365 0.71754 0.0
H5997 H 0.00694 0.5496 0.71097 0.0
C5998 C 0.92049 0.53511 0.72851 0.0
C5999 C 0.93062 0.53609 0.74521 0.0
C6000 C 0.92752 0.53061 0.71163 0.0
C6001 C 0.94448 0.52676 0.71157 0.0
C6002 C 0.95367 0.52572 0.72807 0.0
C6003 C 0.94698 0.5308 0.74486 0.0
C6004 C 0.95444 0.52838 0.69547 0.0
C6005 C 0.96968 0.54307 0.69803 0.0
C6006 C 0.94896 0.51638 0.67797 0.0
C6007 C 0.93325 0.50022 0.67525 0.0
C6008 C 0.93228 0.48636 0.68617 0.0
C6009 C 0.9171 0.4717 0.68425 0.0
C6010 C 0.90279 0.47069 0.67139 0.0
C6011 C 0.90372 0.48425 0.66032 0.0
C6012 C 0.91891 0.49892 0.66215 0.0
C6013 C 0.01463 0.52275 0.64299 0.0
C6014 C 0.00848 0.52034 0.62429 0.0
C6015 C 0.00427 0.52854 0.65677 0.0
C6016 C 0.98778 0.53227 0.65193 0.0
C6017 C 0.98236 0.53152 0.63324 0.0
C6018 C 0.99276 0.52559 0.61937 0.0
C6019 C 0.97518 0.5334 0.66609 0.0
C6020 C 0.95927 0.5193 0.66322 0.0
C6021 C 0.98035 0.54556 0.68367 0.0
C6022 C 0.99725 0.56024 0.68777 0.0
C6023 C 0.00116 0.57412 0.67697 0.0
C6024 C 0.01721 0.58773 0.68084 0.0
C6025 C 0.02947 0.58755 0.69543 0.0
C6026 C 0.02568 0.57381 0.70627 0.0
C6027 C 0.00961 0.56025 0.70254 0.0
H6028 H 0.04191 0.59805 0.69835 0.0
H6029 H 0.89101 0.45938 0.66998 0.0
H6030 H 0.328 0.21158 0.44918 0.0
H6031 H 0.33123 0.22366 0.42027 0.0
H6032 H 0.27699 0.22992 0.41955 0.0
H6033 H 0.27397 0.21859 0.4489 0.0
H6034 H 0.28695 0.21035 0.38469 0.0
H6035 H 0.30471 0.2669 0.43094 0.0
H6036 H 0.32123 0.28914 0.45869 0.0
H6037 H 0.37028 0.28888 0.43375 0.0
H6038 H 0.35408 0.26627 0.40598 0.0
H6039 H 0.2831 0.27363 0.32492 0.0
H6040 H 0.28501 0.26247 0.35405 0.0
H6041 H 0.33513 0.24861 0.34139 0.0
H6042 H 0.33266 0.25887 0.3114 0.0
H6043 H 0.32898 0.2705 0.38175 0.0
H6044 H 0.30881 0.21465 0.33345 0.0
H6045 H 0.29006 0.19614 0.30514 0.0
H6046 H 0.24319 0.19767 0.33386 0.0
H6047 H 0.26164 0.21666 0.36223 0.0
C6048 C 0.31687 0.21575 0.44291 0.0
C6049 C 0.30081 0.21441 0.45123 0.0
C6050 C 0.3187 0.22257 0.42645 0.0
C6051 C 0.30433 0.22761 0.41786 0.0
C6052 C 0.2882 0.22608 0.42604 0.0
C6053 C 0.28654 0.21979 0.44281 0.0
C6054 C 0.30622 0.23452 0.40031 0.0
C6055 C 0.2961 0.2235 0.38403 0.0
C6056 C 0.31832 0.25158 0.39953 0.0
C6057 C 0.32821 0.26458 0.41652 0.0
C6058 C 0.31905 0.27128 0.43151 0.0
C6059 C 0.32835 0.28404 0.44721 0.0
C6060 C 0.3468 0.29035 0.44803 0.0
C6061 C 0.35599 0.28391 0.43313 0.0
C6062 C 0.34676 0.2711 0.41742 0.0
C6063 C 0.2944 0.268 0.32828 0.0
C6064 C 0.3074 0.2663 0.31584 0.0
C6065 C 0.29557 0.26185 0.34493 0.0
C6066 C 0.31 0.25442 0.34951 0.0
C6067 C 0.32381 0.25414 0.33781 0.0
C6068 C 0.32243 0.25996 0.32084 0.0
C6069 C 0.30994 0.24624 0.36623 0.0
C6070 C 0.3202 0.2571 0.38237 0.0
C6071 C 0.29781 0.22917 0.3669 0.0
C6072 C 0.28664 0.21732 0.34996 0.0
C6073 C 0.2945 0.21126 0.33369 0.0
C6074 C 0.28392 0.20064 0.31763 0.0
C6075 C 0.26544 0.19578 0.31768 0.0
C6076 C 0.25751 0.20148 0.33383 0.0
C6077 C 0.26803 0.21218 0.34991 0.0
H6078 H 0.25727 0.18756 0.30524 0.0
H6079 H 0.35397 0.30029 0.46017 0.0
H6080 H 0.30964 0.58594 0.5049 0.0
H6081 H 0.33938 0.58074 0.49975 0.0
H6082 H 0.3619 0.62604 0.54662 0.0
H6083 H 0.33214 0.6321 0.55092 0.0
H6084 H 0.38424 0.62112 0.51591 0.0
H6085 H 0.34889 0.58534 0.55649 0.0
H6086 H 0.31899 0.5674 0.56043 0.0
H6087 H 0.32089 0.52618 0.5113 0.0
H6088 H 0.35065 0.54409 0.50686 0.0
H6089 H 0.45742 0.57532 0.51436 0.0
H6090 H 0.43548 0.59239 0.52704 0.0
H6091 H 0.39329 0.54677 0.49689 0.0
H6092 H 0.4148 0.52889 0.48611 0.0
H6093 H 0.38362 0.55709 0.52763 0.0
H6094 H 0.41517 0.59221 0.48348 0.0
H6095 H 0.43988 0.61315 0.4723 0.0
H6096 H 0.44239 0.65592 0.52144 0.0
H6097 H 0.41797 0.6351 0.53309 0.0
C6098 C 0.32099 0.59455 0.51416 0.0
C6099 C 0.31891 0.60854 0.52899 0.0
C6100 C 0.33787 0.59198 0.51094 0.0
C6101 C 0.35254 0.60284 0.52309 0.0
C6102 C 0.35058 0.61757 0.53726 0.0
C6103 C 0.3337 0.62057 0.54006 0.0
C6104 C 0.36892 0.59618 0.52332 0.0
C6105 C 0.3844 0.60725 0.51867 0.0
C6106 C 0.3687 0.57818 0.52714 0.0
C6107 C 0.3521 0.56596 0.53146 0.0
C6108 C 0.34304 0.5723 0.54669 0.0
C6109 C 0.32605 0.56223 0.54891 0.0
C6110 C 0.31806 0.54564 0.53614 0.0
C6111 C 0.32712 0.53899 0.52122 0.0
C6112 C 0.34408 0.54907 0.51888 0.0
C6113 C 0.44343 0.56873 0.51086 0.0
C6114 C 0.43782 0.55077 0.49903 0.0
C6115 C 0.43095 0.57867 0.51788 0.0
C6116 C 0.41277 0.57102 0.51265 0.0
C6117 C 0.40725 0.553 0.50115 0.0
C6118 C 0.4196 0.54287 0.49471 0.0
C6119 C 0.39907 0.58136 0.51867 0.0
C6120 C 0.38392 0.57114 0.52512 0.0
C6121 C 0.39958 0.59998 0.51599 0.0
C6122 C 0.41498 0.61191 0.50935 0.0
C6123 C 0.42119 0.60594 0.49205 0.0
C6124 C 0.43511 0.61783 0.4856 0.0
C6125 C 0.44275 0.63582 0.49619 0.0
C6126 C 0.43653 0.64195 0.51328 0.0
C6127 C 0.4227 0.63009 0.51984 0.0
H6128 H 0.45345 0.64503 0.49112 0.0
H6129 H 0.30485 0.53794 0.5378 0.0
H6130 H 0.86437 0.9008 0.53836 0.0
H6131 H 0.89641 0.9154 0.54006 0.0
H6132 H 0.88406 0.96949 0.53982 0.0
H6133 H 0.85251 0.95521 0.53801 0.0
H6134 H 0.90469 0.95979 0.51244 0.0
H6135 H 0.90222 0.95977 0.57807 0.0
H6136 H 0.89742 0.94534 0.6056 0.0
H6137 H 0.9377 0.91451 0.59155 0.0
H6138 H 0.94247 0.92843 0.56369 0.0
H6139 H 0.98546 0.0296 0.5325 0.0
H6140 H 0.95573 0.01047 0.53436 0.0
H6141 H 0.978 0.962 0.53572 0.0
H6142 H 0.00768 0.98101 0.53378 0.0
H6143 H 0.95349 0.96474 0.56085 0.0
H6144 H 0.95676 0.96572 0.49608 0.0
H6145 H 0.96009 0.97806 0.46718 0.0
H6146 H 0.91759 0.00624 0.47903 0.0
H6147 H 0.91414 0.99428 0.50811 0.0
C6148 C 0.86857 0.91586 0.53901 0.0
C6149 C 0.85589 0.9268 0.53777 0.0
C6150 C 0.88686 0.92417 0.53998 0.0
C6151 C 0.89262 0.94353 0.53989 0.0
C6152 C 0.87995 0.95452 0.53969 0.0
C6153 C 0.86187 0.94629 0.53864 0.0
C6154 C 0.91155 0.95247 0.53843 0.0
C6155 C 0.91533 0.96105 0.52315 0.0
C6156 C 0.92556 0.95345 0.552 0.0
C6157 C 0.9225 0.94491 0.56861 0.0
C6158 C 0.90988 0.9497 0.58069 0.0
C6159 C 0.9072 0.94166 0.59639 0.0
C6160 C 0.91719 0.92895 0.60028 0.0
C6161 C 0.92992 0.92429 0.58849 0.0
C6162 C 0.9326 0.93224 0.57273 0.0
C6163 C 0.98407 0.01497 0.53354 0.0
C6164 C 0.99895 0.00686 0.5331 0.0
C6165 C 0.96703 0.00397 0.53437 0.0
C6166 C 0.96457 0.9847 0.53495 0.0
C6167 C 0.97952 0.97679 0.53521 0.0
C6168 C 0.99648 0.98768 0.53411 0.0
C6169 C 0.94644 0.9728 0.53524 0.0
C6170 C 0.94285 0.96349 0.55014 0.0
C6171 C 0.93251 0.97114 0.52132 0.0
C6172 C 0.93536 0.9793 0.50443 0.0
C6173 C 0.94833 0.9748 0.49269 0.0
C6174 C 0.95018 0.98167 0.47623 0.0
C6175 C 0.93912 0.99299 0.47131 0.0
C6176 C 0.92619 0.99751 0.48287 0.0
C6177 C 0.92429 0.99071 0.49935 0.0
H6178 H 0.94054 0.99822 0.45852 0.0
H6179 H 0.91513 0.92277 0.61246 0.0
H6180 H 0.89634 0.1267 0.3028 0.0
H6181 H 0.88117 0.15287 0.3029 0.0
H6182 H 0.88712 0.14948 0.24449 0.0
H6183 H 0.90161 0.12282 0.24425 0.0
H6184 H 0.89369 0.18829 0.26359 0.0
H6185 H 0.84596 0.13266 0.25996 0.0
H6186 H 0.83208 0.10444 0.27179 0.0
H6187 H 0.82869 0.13938 0.3247 0.0
H6188 H 0.84274 0.16781 0.31321 0.0
H6189 H 0.83383 0.24124 0.23635 0.0
H6190 H 0.84958 0.21708 0.24117 0.0
H6191 H 0.83153 0.21892 0.29583 0.0
H6192 H 0.81555 0.24364 0.29098 0.0
H6193 H 0.83228 0.18243 0.28228 0.0
H6194 H 0.87749 0.23725 0.28891 0.0
H6195 H 0.89482 0.2669 0.28209 0.0
H6196 H 0.90657 0.23654 0.2301 0.0
H6197 H 0.88918 0.20669 0.23652 0.0
C6198 C 0.89446 0.13141 0.2899 0.0
C6199 C 0.90037 0.12206 0.27348 0.0
C6200 C 0.88561 0.14661 0.28994 0.0
C6201 C 0.88253 0.15375 0.27366 0.0
C6202 C 0.88896 0.14476 0.25741 0.0
C6203 C 0.89733 0.12921 0.25725 0.0
C6204 C 0.87233 0.16992 0.27339 0.0
C6205 C 0.88016 0.18669 0.26742 0.0
C6206 C 0.85484 0.16911 0.2792 0.0
C6207 C 0.84544 0.15229 0.28576 0.0
C6208 C 0.84222 0.1343 0.27411 0.0
C6209 C 0.83436 0.11828 0.28076 0.0
C6210 C 0.82954 0.12011 0.299 0.0
C6211 C 0.83244 0.13799 0.31058 0.0
C6212 C 0.84031 0.15407 0.30399 0.0
C6213 C 0.83303 0.23667 0.24952 0.0
C6214 C 0.82307 0.24496 0.26315 0.0
C6215 C 0.84237 0.22263 0.25236 0.0
C6216 C 0.8425 0.21573 0.26909 0.0
C6217 C 0.83212 0.22357 0.2827 0.0
C6218 C 0.82279 0.23791 0.27989 0.0
C6219 C 0.85341 0.20063 0.27183 0.0
C6220 C 0.84577 0.18408 0.27833 0.0
C6221 C 0.87135 0.20193 0.2671 0.0
C6222 C 0.88182 0.21977 0.26308 0.0
C6223 C 0.88364 0.23691 0.27594 0.0
C6224 C 0.8935 0.25375 0.27218 0.0
C6225 C 0.90169 0.25362 0.25563 0.0
C6226 C 0.90016 0.23663 0.24288 0.0
C6227 C 0.89033 0.21973 0.24659 0.0
H6228 H 0.90928 0.26669 0.25272 0.0
H6229 H 0.82353 0.10768 0.30416 0.0
H6230 H 0.71662 0.14563 0.00699 0.0
H6231 H 0.68701 0.13179 0.01539 0.0
H6232 H 0.70417 0.08079 0.0197 0.0
H6233 H 0.73281 0.09363 0.01006 0.0
H6234 H 0.67481 0.07565 0.99596 0.0
H6235 H 0.69758 0.11296 0.06166 0.0
H6236 H 0.70743 0.14327 0.08432 0.0
H6237 H 0.66211 0.1619 0.06517 0.0
H6238 H 0.65198 0.13169 0.04256 0.0
H6239 H 0.59661 0.02277 0.01333 0.0
H6240 H 0.62812 0.03658 0.02449 0.0
H6241 H 0.61779 0.09256 0.03037 0.0
H6242 H 0.58668 0.07884 0.02057 0.0
H6243 H 0.64473 0.09467 0.0522 0.0
H6244 H 0.62216 0.06549 0.98717 0.0
H6245 H 0.60841 0.03872 0.96151 0.0
H6246 H 0.64937 0.0101 0.97269 0.0
H6247 H 0.66313 0.03655 0.99866 0.0
C6248 C 0.71388 0.13138 0.00951 0.0
C6249 C 0.72691 0.12064 0.0079 0.0
C6250 C 0.69722 0.12374 0.01467 0.0
C6251 C 0.69384 0.10558 0.01854 0.0
C6252 C 0.70683 0.09498 0.01696 0.0
C6253 C 0.72309 0.10227 0.01126 0.0
C6254 C 0.67614 0.09601 0.02153 0.0
C6255 C 0.66828 0.07965 0.00837 0.0
C6256 C 0.66754 0.10185 0.03731 0.0
C6257 C 0.67416 0.1202 0.05037 0.0
C6258 C 0.68983 0.12361 0.06222 0.0
C6259 C 0.6954 0.14072 0.0751 0.0
C6260 C 0.68542 0.15451 0.07616 0.0
C6261 C 0.66984 0.15123 0.06435 0.0
C6262 C 0.66416 0.13411 0.05154 0.0
C6263 C 0.60129 0.03796 0.0175 0.0
C6264 C 0.58992 0.05005 0.016 0.0
C6265 C 0.61897 0.04577 0.02409 0.0
C6266 C 0.62512 0.06549 0.02787 0.0
C6267 C 0.61325 0.07731 0.0276 0.0
C6268 C 0.59566 0.06956 0.02161 0.0
C6269 C 0.64366 0.07399 0.02689 0.0
C6270 C 0.65158 0.09033 0.04015 0.0
C6271 C 0.65192 0.06875 0.01058 0.0
C6272 C 0.64351 0.05284 0.99502 0.0
C6273 C 0.62815 0.05343 0.98423 0.0
C6274 C 0.62035 0.03831 0.96964 0.0
C6275 C 0.62798 0.0227 0.96551 0.0
C6276 C 0.64343 0.02217 0.97595 0.0
C6277 C 0.6512 0.03718 0.99063 0.0
H6278 H 0.62196 0.01103 0.95419 0.0
H6279 H 0.68976 0.16773 0.08614 0.0
H6280 H 0.18875 0.4667 0.21583 0.0
H6281 H 0.20385 0.44188 0.22155 0.0
H6282 H 0.2335 0.47998 0.27051 0.0
H6283 H 0.21907 0.5047 0.26448 0.0
H6284 H 0.254 0.46403 0.24479 0.0
H6285 H 0.2019 0.44789 0.27872 0.0
H6286 H 0.1692 0.44165 0.27832 0.0
H6287 H 0.16415 0.39389 0.23333 0.0
H6288 H 0.19687 0.39999 0.23338 0.0
H6289 H 0.29134 0.42094 0.30843 0.0
H6290 H 0.2752 0.43835 0.29137 0.0
H6291 H 0.24894 0.38644 0.25359 0.0
H6292 H 0.26349 0.36873 0.27168 0.0
H6293 H 0.2259 0.40545 0.26556 0.0
H6294 H 0.28304 0.42349 0.23759 0.0
H6295 H 0.31535 0.43666 0.23844 0.0
H6296 H 0.31054 0.48679 0.27633 0.0
H6297 H 0.27824 0.47399 0.27553 0.0
C6298 C 0.19849 0.46949 0.22776 0.0
C6299 C 0.20328 0.48725 0.23961 0.0
C6300 C 0.20695 0.45553 0.23098 0.0
C6301 C 0.21975 0.45954 0.24622 0.0
C6302 C 0.2238 0.47705 0.25851 0.0
C6303 C 0.21568 0.491 0.2551 0.0
C6304 C 0.22961 0.44585 0.2494 0.0
C6305 C 0.248 0.45104 0.24915 0.0
C6306 C 0.22133 0.4292 0.25491 0.0
C6307 C 0.20181 0.42432 0.2561 0.0
C6308 C 0.19381 0.43595 0.26885 0.0
C6309 C 0.17528 0.43251 0.26863 0.0
C6310 C 0.1646 0.41738 0.2558 0.0
C6311 C 0.17245 0.40558 0.24328 0.0
C6312 C 0.19099 0.40898 0.24344 0.0
C6313 C 0.28207 0.41325 0.29656 0.0
C6314 C 0.27874 0.39353 0.29138 0.0
C6315 C 0.27317 0.42322 0.28658 0.0
C6316 C 0.26132 0.41363 0.27096 0.0
C6317 C 0.25826 0.39402 0.26548 0.0
C6318 C 0.26673 0.384 0.27576 0.0
C6319 C 0.25074 0.42384 0.26154 0.0
C6320 C 0.23205 0.41798 0.26057 0.0
C6321 C 0.2588 0.44043 0.25555 0.0
C6322 C 0.27831 0.44771 0.25659 0.0
C6323 C 0.28893 0.43725 0.24619 0.0
C6324 C 0.30721 0.4447 0.2466 0.0
C6325 C 0.31499 0.46253 0.25746 0.0
C6326 C 0.30451 0.47299 0.26791 0.0
C6327 C 0.28622 0.46568 0.26743 0.0
H6328 H 0.32914 0.46826 0.25775 0.0
H6329 H 0.15026 0.4148 0.25556 0.0
H6330 H 0.23716 0.38484 0.01234 0.0
H6331 H 0.2131 0.40093 0.00819 0.0
H6332 H 0.23718 0.44547 0.05501 0.0
H6333 H 0.26144 0.42958 0.05907 0.0
H6334 H 0.20019 0.43379 0.05468 0.0
H6335 H 0.24383 0.45302 0.01396 0.0
H6336 H 0.26399 0.44871 0.98932 0.0
H6337 H 0.21936 0.41973 0.94971 0.0
H6338 H 0.19893 0.42356 0.97421 0.0
H6339 H 0.15644 0.50512 0.03456 0.0
H6340 H 0.17643 0.48574 0.04306 0.0
H6341 H 0.15792 0.4451 0.99171 0.0
H6342 H 0.1385 0.46482 0.98297 0.0
H6343 H 0.1923 0.45466 0.99503 0.0
H6344 H 0.14847 0.43563 0.03639 0.0
H6345 H 0.12894 0.43892 0.06181 0.0
H6346 H 0.17423 0.4678 0.10059 0.0
H6347 H 0.19401 0.46485 0.07538 0.0
C6348 C 0.23718 0.39792 0.02191 0.0
C6349 C 0.25115 0.40604 0.03599 0.0
C6350 C 0.2235 0.40713 0.01945 0.0
C6351 C 0.22351 0.42444 0.03119 0.0
C6352 C 0.23701 0.43213 0.0458 0.0
C6353 C 0.25083 0.42309 0.04807 0.0
C6354 C 0.20979 0.43488 0.02781 0.0
C6355 C 0.19851 0.43856 0.04173 0.0
C6356 C 0.20757 0.44078 0.01078 0.0
C6357 C 0.21985 0.43837 0.99601 0.0
C6358 C 0.23832 0.44553 6e-05 0.0
C6359 C 0.24979 0.44322 0.9861 0.0
C6360 C 0.24296 0.4339 0.96798 0.0
C6361 C 0.22463 0.42691 0.96377 0.0
C6362 C 0.2131 0.42915 0.97769 0.0
C6363 C 0.15648 0.49187 0.02531 0.0
C6364 C 0.14612 0.48644 0.00809 0.0
C6365 C 0.1678 0.48076 0.03019 0.0
C6366 C 0.16864 0.46391 0.01804 0.0
C6367 C 0.15758 0.45808 0.00125 0.0
C6368 C 0.1465 0.46931 0.99626 0.0
C6369 C 0.18228 0.45335 0.0218 0.0
C6370 C 0.19376 0.44979 0.00796 0.0
C6371 C 0.18469 0.44765 0.03895 0.0
C6372 C 0.1727 0.4502 0.05393 0.0
C6373 C 0.15424 0.4429 0.05028 0.0
C6374 C 0.14313 0.44463 0.06468 0.0
C6375 C 0.15033 0.45359 0.08279 0.0
C6376 C 0.16866 0.46088 0.08655 0.0
C6377 C 0.17983 0.45917 0.07222 0.0
H6378 H 0.14172 0.45487 0.09392 0.0
H6379 H 0.25187 0.43214 0.95718 0.0
H6380 H 0.89091 0.00724 0.29107 0.0
H6381 H 0.87431 0.97485 0.29146 0.0
H6382 H 0.89127 0.95487 0.23787 0.0
H6383 H 0.90818 0.98689 0.23776 0.0
H6384 H 0.85678 0.93809 0.23813 0.0
H6385 H 0.90917 0.94518 0.2765 0.0
H6386 H 0.93304 0.95884 0.30199 0.0
H6387 H 0.89526 0.95072 0.34231 0.0
H6388 H 0.87105 0.93728 0.31704 0.0
H6389 H 0.83106 0.83768 0.23777 0.0
H6390 H 0.84743 0.87 0.23737 0.0
H6391 H 0.83058 0.88977 0.2911 0.0
H6392 H 0.81391 0.85742 0.29126 0.0
H6393 H 0.86565 0.9065 0.29056 0.0
H6394 H 0.81306 0.89844 0.24866 0.0
H6395 H 0.79149 0.88415 0.22114 0.0
H6396 H 0.83329 0.89279 0.18512 0.0
H6397 H 0.85516 0.90686 0.21244 0.0
C6398 C 0.89085 0.99605 0.27919 0.0
C6399 C 0.90075 1.00012 0.26418 0.0
C6400 C 0.88146 0.9773 0.27951 0.0
C6401 C 0.88131 0.96187 0.26469 0.0
C6402 C 0.89086 0.96611 0.24955 0.0
C6403 C 0.90056 0.98466 0.24945 0.0
C6404 C 0.87129 0.9415 0.26477 0.0
C6405 C 0.85893 0.93124 0.2496 0.0
C6406 C 0.8738 0.93199 0.27954 0.0
C6407 C 0.88821 0.94048 0.29485 0.0
C6408 C 0.90588 0.94654 0.2908 0.0
C6409 C 0.9195 0.95419 0.30521 0.0
C6410 C 0.91566 0.95572 0.32376 0.0
C6411 C 0.8982 0.94958 0.32793 0.0
C6412 C 0.88452 0.94194 0.31356 0.0
C6413 C 0.83054 0.84895 0.24937 0.0
C6414 C 0.8206 0.84476 0.26431 0.0
C6415 C 0.84004 0.86763 0.24918 0.0
C6416 C 0.8404 0.88295 0.26413 0.0
C6417 C 0.8307 0.87863 0.27923 0.0
C6418 C 0.82091 0.86 0.27925 0.0
C6419 C 0.85079 0.90324 0.26408 0.0
C6420 C 0.86337 0.91343 0.27919 0.0
C6421 C 0.84883 0.91255 0.24902 0.0
C6422 C 0.83578 0.90352 0.23263 0.0
C6423 C 0.81769 0.89709 0.23489 0.0
C6424 C 0.8054 0.88908 0.21932 0.0
C6425 C 0.81102 0.88754 0.2014 0.0
C6426 C 0.82895 0.89397 0.19901 0.0
C6427 C 0.8413 0.90195 0.21453 0.0
H6428 H 0.80147 0.88139 0.18936 0.0
H6429 H 0.92622 0.96161 0.3349 0.0
H6430 H 0.71001 0.09493 0.78123 0.0
H6431 H 0.73276 0.12452 0.7856 0.0
H6432 H 0.71488 0.13246 0.73154 0.0
H6433 H 0.69175 0.10331 0.72746 0.0
H6434 H 0.75294 0.1368 0.73895 0.0
H6435 H 0.70138 0.15346 0.76279 0.0
H6436 H 0.67616 0.15231 0.78195 0.0
H6437 H 0.71213 0.17482 0.83133 0.0
H6438 H 0.73779 0.17452 0.81259 0.0
H6439 H 0.74699 0.23284 0.74471 0.0
H6440 H 0.74324 0.19868 0.74159 0.0
H6441 H 0.79132 0.20774 0.77789 0.0
H6442 H 0.79603 0.24154 0.77956 0.0
H6443 H 0.74755 0.19299 0.78531 0.0
H6444 H 0.79926 0.18096 0.75544 0.0
H6445 H 0.82107 0.18147 0.73203 0.0
H6446 H 0.77902 0.15597 0.68842 0.0
H6447 H 0.75692 0.1555 0.71154 0.0
C6448 C 0.71073 0.1034 0.77062 0.0
C6449 C 0.69914 0.09749 0.75428 0.0
C6450 C 0.72379 0.1199 0.77294 0.0
C6451 C 0.72543 0.13014 0.75872 0.0
C6452 C 0.71373 0.12434 0.74245 0.0
C6453 C 0.70038 0.10813 0.74036 0.0
C6454 C 0.73853 0.14777 0.76128 0.0
C6455 C 0.75196 0.14914 0.74915 0.0
C6456 C 0.73699 0.16347 0.7748 0.0
C6457 C 0.72161 0.1632 0.78629 0.0
C6458 C 0.70402 0.15744 0.77779 0.0
C6459 C 0.68961 0.15704 0.78859 0.0
C6460 C 0.69257 0.16306 0.80791 0.0
C6461 C 0.70993 0.16963 0.81642 0.0
C6462 C 0.72442 0.16957 0.80572 0.0
C6463 C 0.75714 0.22738 0.75118 0.0
C6464 C 0.77205 0.23949 0.76175 0.0
C6465 C 0.75514 0.20807 0.74929 0.0
C6466 C 0.76737 0.20104 0.75911 0.0
C6467 C 0.7823 0.21308 0.76962 0.0
C6468 C 0.7848 0.2323 0.77068 0.0
C6469 C 0.76146 0.18223 0.76245 0.0
C6470 C 0.74917 0.18046 0.77577 0.0
C6471 C 0.76339 0.1665 0.74936 0.0
C6472 C 0.77645 0.1681 0.73525 0.0
C6473 C 0.79463 0.17568 0.74084 0.0
C6474 C 0.80706 0.17582 0.72764 0.0
C6475 C 0.80145 0.1684 0.7088 0.0
C6476 C 0.78336 0.1614 0.70305 0.0
C6477 C 0.77088 0.1612 0.7162 0.0
H6478 H 0.8111 0.16824 0.69862 0.0
H6479 H 0.6814 0.16292 0.81626 0.0
loop_
_geom_bond_atom_site_label_1
_geom_bond_atom_site_label_2
_geom_bond_distance
_geom_bond_site_symmetry_2
_ccdc_geom_bond_type
C0 O1 1.306 . S
C0 O3 1.160 . S
O1 C0 1.306 . S
O1 Cd2 2.228 . S
Cd2 O1 2.228 . S
Cd2 O6 2.273 . S
Cd2 O10 2.277 . S
O3 C0 1.160 . S
O3 Cd4 2.203 . S
Cd4 O3 2.203 . S
Cd4 O6 2.411 . S
Cd4 O7 2.333 . S
Cd4 O8 2.352 . S
Cd4 O12 2.277 . S
Cd4 O13 2.356 . S
C5 O10 1.209 . S
C5 O12 1.226 . S
O6 Cd2 2.273 . S
O6 Cd4 2.411 . S
O6 C9 1.320 . S
O7 Cd4 2.333 . S
O7 C9 1.214 . S
O8 Cd4 2.352 . S
O8 C11 1.258 . S
C9 O6 1.320 . S
C9 O7 1.214 . S
O10 Cd2 2.277 . S
O10 C5 1.209 . S
C11 O8 1.258 . S
C11 O13 1.282 . S
O12 Cd4 2.277 . S
O12 C5 1.226 . S
O13 Cd4 2.356 . S
O13 C11 1.282 . S
C14 O15 1.306 . S
C14 O17 1.160 . S
O15 C14 1.306 . S
O15 Cd16 2.228 1_655 S
Cd16 O15 2.228 1_455 S
Cd16 O20 2.273 . S
Cd16 O24 2.277 1_455 S
O17 C14 1.160 . S
O17 Cd18 2.139 1_655 S
Cd18 O17 2.139 1_455 S
Cd18 O20 2.444 . S
Cd18 O21 2.399 . S
Cd18 O22 2.342 . S
Cd18 O26 2.281 1_455 S
Cd18 O27 2.360 . S
C19 O24 1.209 . S
C19 O26 1.226 . S
O20 Cd16 2.273 . S
O20 Cd18 2.444 . S
O20 C23 1.320 . S
O21 Cd18 2.399 . S
O21 C23 1.214 . S
O22 Cd18 2.342 . S
O22 C25 1.258 . S
C23 O20 1.320 . S
C23 O21 1.214 . S
O24 Cd16 2.277 1_655 S
O24 C19 1.209 . S
C25 O22 1.258 . S
C25 O27 1.282 . S
O26 Cd18 2.281 1_655 S
O26 C19 1.226 . S
O27 Cd18 2.360 . S
O27 C25 1.282 . S
C28 O29 1.306 . S
C28 O31 1.160 . S
O29 C28 1.306 . S
O29 Cd30 2.228 . S
Cd30 O29 2.228 . S
Cd30 O34 2.273 . S
Cd30 O38 2.277 . S
O31 C28 1.160 . S
O31 Cd32 2.203 . S
Cd32 O31 2.203 . S
Cd32 O34 2.411 . S
Cd32 O35 2.333 . S
Cd32 O36 2.352 . S
Cd32 O40 2.277 . S
Cd32 O41 2.356 . S
C33 O38 1.209 . S
C33 O40 1.226 . S
O34 Cd30 2.273 . S
O34 Cd32 2.411 . S
O34 C37 1.320 . S
O35 Cd32 2.333 . S
O35 C37 1.214 . S
O36 Cd32 2.352 . S
O36 C39 1.258 . S
C37 O34 1.320 . S
C37 O35 1.214 . S
O38 Cd30 2.277 . S
O38 C33 1.209 . S
C39 O36 1.258 . S
C39 O41 1.282 . S
O40 Cd32 2.277 . S
O40 C33 1.226 . S
O41 Cd32 2.356 . S
O41 C39 1.282 . S
C42 O43 1.306 . S
C42 O45 1.160 . S
O43 C42 1.306 . S
O43 Cd44 2.228 . S
Cd44 O43 2.228 . S
Cd44 O48 2.273 . S
Cd44 O52 2.277 . S
O45 C42 1.160 . S
O45 Cd46 2.203 . S
Cd46 O45 2.203 . S
Cd46 O48 2.411 . S
Cd46 O49 2.333 . S
Cd46 O50 2.352 . S
Cd46 O54 2.277 . S
Cd46 O55 2.356 . S
C47 O52 1.209 . S
C47 O54 1.226 . S
O48 Cd44 2.273 . S
O48 Cd46 2.411 . S
O48 C51 1.320 . S
O49 Cd46 2.333 . S
O49 C51 1.214 . S
O50 Cd46 2.352 . S
O50 C53 1.258 . S
C51 O48 1.320 . S
C51 O49 1.214 . S
O52 Cd44 2.277 . S
O52 C47 1.209 . S
C53 O50 1.258 . S
C53 O55 1.282 . S
O54 Cd46 2.277 . S
O54 C47 1.226 . S
O55 Cd46 2.356 . S
O55 C53 1.282 . S
C56 O57 1.306 . S
C56 O59 1.160 . S
O57 C56 1.306 . S
O57 Cd58 2.228 . S
Cd58 O57 2.228 . S
Cd58 O62 2.273 . S
Cd58 O66 2.277 . S
O59 C56 1.160 . S
O59 Cd60 2.203 . S
Cd60 O59 2.203 . S
Cd60 O62 2.411 . S
Cd60 O63 2.333 . S
Cd60 O64 2.352 . S
Cd60 O68 2.277 . S
Cd60 O69 2.356 . S
C61 O66 1.209 . S
C61 O68 1.226 . S
O62 Cd58 2.273 . S
O62 Cd60 2.411 . S
O62 C65 1.320 . S
O63 Cd60 2.333 . S
O63 C65 1.214 . S
O64 Cd60 2.352 . S
O64 C67 1.258 . S
C65 O62 1.320 . S
C65 O63 1.214 . S
O66 Cd58 2.277 . S
O66 C61 1.209 . S
C67 O64 1.258 . S
C67 O69 1.282 . S
O68 Cd60 2.277 . S
O68 C61 1.226 . S
O69 Cd60 2.356 . S
O69 C67 1.282 . S
C70 O71 1.306 . S
C70 O73 1.160 . S
O71 C70 1.306 . S
O71 Cd72 2.228 . S
Cd72 O71 2.228 . S
Cd72 O76 2.273 . S
Cd72 O80 2.277 . S
O73 C70 1.160 . S
O73 Cd74 2.203 . S
Cd74 O73 2.203 . S
Cd74 O76 2.411 . S
Cd74 O77 2.333 . S
Cd74 O78 2.352 . S
Cd74 O82 2.277 . S
Cd74 O83 2.356 . S
C75 O80 1.209 . S
C75 O82 1.226 . S
O76 Cd72 2.273 . S
O76 Cd74 2.411 . S
O76 C79 1.320 . S
O77 Cd74 2.333 . S
O77 C79 1.214 . S
O78 Cd74 2.352 . S
O78 C81 1.258 . S
C79 O76 1.320 . S
C79 O77 1.214 . S
O80 Cd72 2.277 . S
O80 C75 1.209 . S
C81 O78 1.258 . S
C81 O83 1.282 . S
O82 Cd74 2.277 . S
O82 C75 1.226 . S
O83 Cd74 2.356 . S
O83 C81 1.282 . S
C84 O85 1.306 . S
C84 O87 1.160 . S
O85 C84 1.306 . S
O85 Cd86 2.228 . S
Cd86 O85 2.228 . S
Cd86 O90 2.273 . S
Cd86 O94 2.277 . S
O87 C84 1.160 . S
O87 Cd88 2.203 . S
Cd88 O87 2.203 . S
Cd88 O90 2.411 . S
Cd88 O91 2.333 . S
Cd88 O92 2.352 . S
Cd88 O96 2.277 . S
Cd88 O97 2.356 . S
C89 O94 1.209 . S
C89 O96 1.226 . S
O90 Cd86 2.273 . S
O90 Cd88 2.411 . S
O90 C93 1.320 . S
O91 Cd88 2.333 . S
O91 C93 1.214 . S
O92 Cd88 2.352 . S
O92 C95 1.258 . S
C93 O90 1.320 . S
C93 O91 1.214 . S
O94 Cd86 2.277 . S
O94 C89 1.209 . S
C95 O92 1.258 . S
C95 O97 1.282 . S
O96 Cd88 2.277 . S
O96 C89 1.226 . S
O97 Cd88 2.356 . S
O97 C95 1.282 . S
C98 O99 1.306 . S
C98 O101 1.160 . S
O99 C98 1.306 . S
O99 Cd100 2.228 1_655 S
Cd100 O99 2.228 1_455 S
Cd100 O104 2.273 . S
Cd100 O108 2.277 . S
O101 C98 1.160 . S
O101 Cd102 2.203 1_655 S
Cd102 O101 2.203 1_455 S
Cd102 O104 2.411 . S
Cd102 O105 2.333 . S
Cd102 O106 2.352 . S
Cd102 O110 2.277 . S
Cd102 O111 2.356 . S
C103 O108 1.209 . S
C103 O110 1.226 . S
O104 Cd100 2.273 . S
O104 Cd102 2.411 . S
O104 C107 1.320 . S
O105 Cd102 2.333 . S
O105 C107 1.214 . S
O106 Cd102 2.352 . S
O106 C109 1.258 . S
C107 O104 1.320 . S
C107 O105 1.214 . S
O108 Cd100 2.277 . S
O108 C103 1.209 . S
C109 O106 1.258 . S
C109 O111 1.282 . S
O110 Cd102 2.277 . S
O110 C103 1.226 . S
O111 Cd102 2.356 . S
O111 C109 1.282 . S
C112 O113 1.306 . S
C112 O115 1.160 . S
O113 C112 1.306 . S
O113 Cd114 2.228 . S
Cd114 O113 2.228 . S
Cd114 O118 2.273 . S
Cd114 O122 2.277 1_545 S
O115 C112 1.160 . S
O115 Cd116 2.203 . S
Cd116 O115 2.203 . S
Cd116 O118 2.411 . S
Cd116 O119 2.333 . S
Cd116 O120 2.352 . S
Cd116 O124 2.277 . S
Cd116 O125 2.356 . S
C117 O122 1.209 . S
C117 O124 1.226 1_565 S
O118 Cd114 2.273 . S
O118 Cd116 2.411 . S
O118 C121 1.320 . S
O119 Cd116 2.333 . S
O119 C121 1.214 . S
O120 Cd116 2.352 . S
O120 C123 1.258 . S
C121 O118 1.320 . S
C121 O119 1.214 . S
O122 Cd114 2.277 1_565 S
O122 C117 1.209 . S
C123 O120 1.258 . S
C123 O125 1.282 . S
O124 Cd116 2.277 . S
O124 C117 1.226 1_545 S
O125 Cd116 2.356 . S
O125 C123 1.282 . S
C126 O127 1.306 . S
C126 O129 1.160 . S
O127 C126 1.306 . S
O127 Cd128 2.228 . S
Cd128 O127 2.228 . S
Cd128 O132 2.273 . S
Cd128 O136 2.277 . S
O129 C126 1.160 . S
O129 Cd130 2.203 . S
Cd130 O129 2.203 . S
Cd130 O132 2.411 . S
Cd130 O133 2.333 . S
Cd130 O134 2.352 . S
Cd130 O138 2.277 . S
Cd130 O139 2.356 . S
C131 O136 1.209 . S
C131 O138 1.226 . S
O132 Cd128 2.273 . S
O132 Cd130 2.411 . S
O132 C135 1.320 . S
O133 Cd130 2.333 . S
O133 C135 1.214 . S
O134 Cd130 2.352 . S
O134 C137 1.258 . S
C135 O132 1.320 . S
C135 O133 1.214 . S
O136 Cd128 2.277 . S
O136 C131 1.209 . S
C137 O134 1.258 . S
C137 O139 1.282 . S
O138 Cd130 2.277 . S
O138 C131 1.226 . S
O139 Cd130 2.356 . S
O139 C137 1.282 . S
C140 O141 1.306 . S
C140 O143 1.180 . S
O141 C140 1.306 . S
O141 Cd142 2.228 . S
Cd142 O141 2.228 . S
Cd142 O146 2.273 1_545 S
Cd142 O150 2.277 . S
O143 C140 1.180 . S
O143 Cd144 2.206 1_545 S
Cd144 O143 2.206 1_565 S
Cd144 O146 2.411 . S
Cd144 O147 2.333 . S
Cd144 O148 2.352 . S
Cd144 O152 2.277 1_565 S
Cd144 O153 2.356 . S
C145 O150 1.209 . S
C145 O152 1.226 . S
O146 Cd142 2.273 1_565 S
O146 Cd144 2.411 . S
O146 C149 1.320 . S
O147 Cd144 2.333 . S
O147 C149 1.214 . S
O148 Cd144 2.352 . S
O148 C151 1.258 . S
C149 O146 1.320 . S
C149 O147 1.214 . S
O150 Cd142 2.277 . S
O150 C145 1.209 . S
C151 O148 1.258 . S
C151 O153 1.282 . S
O152 Cd144 2.277 1_545 S
O152 C145 1.226 . S
O153 Cd144 2.356 . S
O153 C151 1.282 . S
C154 O155 1.306 . S
C154 O157 1.160 . S
O155 C154 1.306 . S
O155 Cd156 2.228 1_554 S
Cd156 O155 2.228 1_556 S
Cd156 O160 2.273 1_556 S
Cd156 O164 2.277 . S
O157 C154 1.160 . S
O157 Cd158 2.203 . S
Cd158 O157 2.203 . S
Cd158 O160 2.411 . S
Cd158 O161 2.333 . S
Cd158 O162 2.352 . S
Cd158 O166 2.277 1_554 S
Cd158 O167 2.356 . S
C159 O164 1.209 . S
C159 O166 1.226 . S
O160 Cd156 2.273 1_554 S
O160 Cd158 2.411 . S
O160 C163 1.320 . S
O161 Cd158 2.333 . S
O161 C163 1.214 . S
O162 Cd158 2.352 . S
O162 C165 1.258 . S
C163 O160 1.320 . S
C163 O161 1.214 . S
O164 Cd156 2.277 . S
O164 C159 1.209 . S
C165 O162 1.258 . S
C165 O167 1.282 . S
O166 Cd158 2.277 1_556 S
O166 C159 1.226 . S
O167 Cd158 2.356 . S
O167 C165 1.282 . S
C168 O169 1.306 . S
C168 O171 1.160 . S
O169 C168 1.306 . S
O169 Cd170 2.228 . S
Cd170 O169 2.228 . S
Cd170 O174 2.273 . S
Cd170 O178 2.277 . S
O171 C168 1.160 . S
O171 Cd172 2.203 . S
Cd172 O171 2.203 . S
Cd172 O174 2.411 . S
Cd172 O175 2.333 . S
Cd172 O176 2.352 . S
Cd172 O180 2.277 . S
Cd172 O181 2.356 . S
C173 O178 1.211 . S
C173 O180 1.271 . S
O174 Cd170 2.273 . S
O174 Cd172 2.411 . S
O174 C177 1.320 . S
O175 Cd172 2.333 . S
O175 C177 1.214 . S
O176 Cd172 2.352 . S
O176 C179 1.258 . S
C177 O174 1.320 . S
C177 O175 1.214 . S
O178 Cd170 2.277 . S
O178 C173 1.211 . S
C179 O176 1.258 . S
C179 O181 1.282 . S
O180 Cd172 2.277 . S
O180 C173 1.271 . S
O181 Cd172 2.356 . S
O181 C179 1.282 . S
C182 O183 1.306 . S
C182 O185 1.160 . S
O183 C182 1.306 . S
O183 Cd184 2.228 . S
Cd184 O183 2.228 . S
Cd184 O188 2.273 . S
Cd184 O192 2.277 . S
O185 C182 1.160 . S
O185 Cd186 2.203 . S
Cd186 O185 2.203 . S
Cd186 O188 2.411 . S
Cd186 O189 2.333 . S
Cd186 O190 2.352 1_554 S
Cd186 O194 2.277 . S
Cd186 O195 2.356 . S
C187 O192 1.209 . S
C187 O194 1.226 . S
O188 Cd184 2.273 . S
O188 Cd186 2.411 . S
O188 C191 1.320 . S
O189 Cd186 2.333 . S
O189 C191 1.214 . S
O190 Cd186 2.352 1_556 S
O190 C193 1.258 . S
C191 O188 1.320 . S
C191 O189 1.214 . S
O192 Cd184 2.277 . S
O192 C187 1.209 . S
C193 O190 1.258 . S
C193 O195 1.282 1_556 S
O194 Cd186 2.277 . S
O194 C187 1.226 . S
O195 Cd186 2.356 . S
O195 C193 1.282 1_554 S
C196 O197 1.306 . S
C196 O199 1.160 . S
O197 C196 1.306 . S
O197 Cd198 2.228 . S
Cd198 O197 2.228 . S
Cd198 O202 2.273 . S
Cd198 O206 2.277 . S
O199 C196 1.160 . S
O199 Cd200 2.203 . S
Cd200 O199 2.203 . S
Cd200 O202 2.411 . S
Cd200 O203 2.333 . S
Cd200 O204 2.352 . S
Cd200 O208 2.277 . S
Cd200 O209 2.356 . S
C201 O206 1.209 . S
C201 O208 1.226 . S
O202 Cd198 2.273 . S
O202 Cd200 2.411 . S
O202 C205 1.320 . S
O203 Cd200 2.333 . S
O203 C205 1.214 . S
O204 Cd200 2.352 . S
O204 C207 1.258 . S
C205 O202 1.320 . S
C205 O203 1.214 . S
O206 Cd198 2.277 . S
O206 C201 1.209 . S
C207 O204 1.258 . S
C207 O209 1.282 . S
O208 Cd200 2.277 . S
O208 C201 1.226 . S
O209 Cd200 2.356 . S
O209 C207 1.282 . S
C210 O211 1.306 . S
C210 O213 1.160 . S
O211 C210 1.306 . S
O211 Cd212 2.228 . S
Cd212 O211 2.228 . S
Cd212 O216 2.273 . S
Cd212 O220 2.277 . S
O213 C210 1.160 . S
O213 Cd214 2.203 . S
Cd214 O213 2.203 . S
Cd214 O216 2.411 . S
Cd214 O217 2.333 . S
Cd214 O218 2.352 . S
Cd214 O222 2.277 . S
Cd214 O223 2.356 . S
C215 O220 1.209 . S
C215 O222 1.226 . S
O216 Cd212 2.273 . S
O216 Cd214 2.411 . S
O216 C219 1.320 . S
O217 Cd214 2.333 . S
O217 C219 1.214 . S
O218 Cd214 2.352 . S
O218 C221 1.258 . S
C219 O216 1.320 . S
C219 O217 1.214 . S
O220 Cd212 2.277 . S
O220 C215 1.209 . S
C221 O218 1.258 . S
C221 O223 1.282 . S
O222 Cd214 2.277 . S
O222 C215 1.226 . S
O223 Cd214 2.356 . S
O223 C221 1.282 . S
C224 O225 1.306 . S
C224 O227 1.160 . S
O225 C224 1.306 . S
O225 Cd226 2.228 . S
Cd226 O225 2.228 . S
Cd226 O230 2.273 . S
Cd226 O234 2.277 . S
O227 C224 1.160 . S
O227 Cd228 2.203 . S
Cd228 O227 2.203 . S
Cd228 O230 2.411 . S
Cd228 O231 2.333 . S
Cd228 O232 2.352 . S
Cd228 O236 2.277 . S
Cd228 O237 2.356 . S
C229 O234 1.209 . S
C229 O236 1.226 . S
O230 Cd226 2.273 . S
O230 Cd228 2.411 . S
O230 C233 1.320 . S
O231 Cd228 2.333 . S
O231 C233 1.214 . S
O232 Cd228 2.352 . S
O232 C235 1.258 . S
C233 O230 1.320 . S
C233 O231 1.214 . S
O234 Cd226 2.277 . S
O234 C229 1.209 . S
C235 O232 1.258 . S
C235 O237 1.282 . S
O236 Cd228 2.277 . S
O236 C229 1.226 . S
O237 Cd228 2.356 . S
O237 C235 1.282 . S
C238 O239 1.306 . S
C238 O241 1.160 . S
O239 C238 1.306 . S
O239 Cd240 2.228 . S
Cd240 O239 2.228 . S
Cd240 O244 2.273 . S
Cd240 O248 2.277 . S
O241 C238 1.160 . S
O241 Cd242 2.203 . S
Cd242 O241 2.203 . S
Cd242 O244 2.411 . S
Cd242 O245 2.333 . S
Cd242 O246 2.352 . S
Cd242 O250 2.277 . S
Cd242 O251 2.356 . S
C243 O248 1.209 . S
C243 O250 1.226 . S
O244 Cd240 2.273 . S
O244 Cd242 2.411 . S
O244 C247 1.320 . S
O245 Cd242 2.333 . S
O245 C247 1.214 . S
O246 Cd242 2.352 . S
O246 C249 1.258 . S
C247 O244 1.320 . S
C247 O245 1.214 . S
O248 Cd240 2.277 . S
O248 C243 1.209 . S
C249 O246 1.258 . S
C249 O251 1.282 . S
O250 Cd242 2.277 . S
O250 C243 1.226 . S
O251 Cd242 2.356 . S
O251 C249 1.282 . S
C252 O253 1.306 . S
C252 O255 1.160 . S
O253 C252 1.306 . S
O253 Cd254 2.228 . S
Cd254 O253 2.228 . S
Cd254 O258 2.273 . S
Cd254 O262 2.277 . S
O255 C252 1.160 . S
O255 Cd256 2.203 . S
Cd256 O255 2.203 . S
Cd256 O258 2.411 . S
Cd256 O259 2.333 . S
Cd256 O260 2.352 . S
Cd256 O264 2.277 . S
Cd256 O265 2.356 . S
C257 O262 1.209 . S
C257 O264 1.226 . S
O258 Cd254 2.273 . S
O258 Cd256 2.411 . S
O258 C261 1.320 . S
O259 Cd256 2.333 . S
O259 C261 1.214 . S
O260 Cd256 2.352 . S
O260 C263 1.258 . S
C261 O258 1.320 . S
C261 O259 1.214 . S
O262 Cd254 2.277 . S
O262 C257 1.209 . S
C263 O260 1.258 . S
C263 O265 1.282 . S
O264 Cd256 2.277 . S
O264 C257 1.226 . S
O265 Cd256 2.356 . S
O265 C263 1.282 . S
C266 O267 1.306 . S
C266 O269 1.160 . S
O267 C266 1.306 . S
O267 Cd268 2.228 . S
Cd268 O267 2.228 . S
Cd268 O272 2.273 . S
Cd268 O276 2.277 . S
O269 C266 1.160 . S
O269 Cd270 2.203 . S
Cd270 O269 2.203 . S
Cd270 O272 2.411 . S
Cd270 O273 2.333 . S
Cd270 O274 2.352 . S
Cd270 O278 2.277 . S
Cd270 O279 2.356 . S
C271 O276 1.209 . S
C271 O278 1.226 . S
O272 Cd268 2.273 . S
O272 Cd270 2.411 . S
O272 C275 1.320 . S
O273 Cd270 2.333 . S
O273 C275 1.214 . S
O274 Cd270 2.352 . S
O274 C277 1.258 . S
C275 O272 1.320 . S
C275 O273 1.214 . S
O276 Cd268 2.277 . S
O276 C271 1.209 . S
C277 O274 1.258 . S
C277 O279 1.282 . S
O278 Cd270 2.277 . S
O278 C271 1.226 . S
O279 Cd270 2.356 . S
O279 C277 1.282 . S
C280 O281 1.306 . S
C280 O283 1.160 1_554 S
O281 C280 1.306 . S
O281 Cd282 2.228 . S
Cd282 O281 2.228 . S
Cd282 O286 2.273 1_554 S
Cd282 O290 2.277 . S
O283 C280 1.160 1_556 S
O283 Cd284 2.203 . S
Cd284 O283 2.203 . S
Cd284 O286 2.411 . S
Cd284 O287 2.333 . S
Cd284 O288 2.352 . S
Cd284 O292 2.277 1_556 S
Cd284 O293 2.356 . S
C285 O290 1.209 . S
C285 O292 1.226 . S
O286 Cd282 2.273 1_556 S
O286 Cd284 2.411 . S
O286 C289 1.320 . S
O287 Cd284 2.333 . S
O287 C289 1.214 . S
O288 Cd284 2.352 . S
O288 C291 1.258 . S
C289 O286 1.320 . S
C289 O287 1.214 . S
O290 Cd282 2.277 . S
O290 C285 1.209 . S
C291 O288 1.258 . S
C291 O293 1.282 . S
O292 Cd284 2.277 1_554 S
O292 C285 1.226 . S
O293 Cd284 2.356 . S
O293 C291 1.282 . S
C294 O295 1.306 . S
C294 O297 1.160 . S
O295 C294 1.306 . S
O295 Cd296 2.228 . S
Cd296 O295 2.228 . S
Cd296 O300 2.273 . S
Cd296 O304 2.277 . S
O297 C294 1.160 . S
O297 Cd298 2.203 . S
Cd298 O297 2.203 . S
Cd298 O300 2.411 . S
Cd298 O301 2.333 . S
Cd298 O302 2.352 . S
Cd298 O306 2.277 . S
Cd298 O307 2.356 . S
C299 O304 1.209 . S
C299 O306 1.226 . S
O300 Cd296 2.273 . S
O300 Cd298 2.411 . S
O300 C303 1.320 . S
O301 Cd298 2.333 . S
O301 C303 1.214 . S
O302 Cd298 2.352 . S
O302 C305 1.258 . S
C303 O300 1.320 . S
C303 O301 1.214 . S
O304 Cd296 2.277 . S
O304 C299 1.209 . S
C305 O302 1.258 . S
C305 O307 1.282 . S
O306 Cd298 2.277 . S
O306 C299 1.226 . S
O307 Cd298 2.356 . S
O307 C305 1.282 . S
C308 O309 1.306 . S
C308 O311 1.160 . S
O309 C308 1.306 . S
O309 Cd310 2.228 . S
Cd310 O309 2.228 . S
Cd310 O314 2.273 . S
Cd310 O318 2.277 . S
O311 C308 1.160 . S
O311 Cd312 2.203 . S
Cd312 O311 2.203 . S
Cd312 O314 2.411 . S
Cd312 O315 2.333 . S
Cd312 O316 2.352 . S
Cd312 O320 2.277 . S
Cd312 O321 2.356 . S
C313 O318 1.209 . S
C313 O320 1.226 . S
O314 Cd310 2.273 . S
O314 Cd312 2.411 . S
O314 C317 1.320 . S
O315 Cd312 2.333 . S
O315 C317 1.214 . S
O316 Cd312 2.352 . S
O316 C319 1.258 . S
C317 O314 1.320 . S
C317 O315 1.214 . S
O318 Cd310 2.277 . S
O318 C313 1.209 . S
C319 O316 1.258 . S
C319 O321 1.282 . S
O320 Cd312 2.277 . S
O320 C313 1.226 . S
O321 Cd312 2.356 . S
O321 C319 1.282 . S
C322 O323 1.306 . S
C322 O325 1.160 . S
O323 C322 1.306 . S
O323 Cd324 2.228 . S
Cd324 O323 2.228 . S
Cd324 O328 2.273 . S
Cd324 O332 2.277 . S
O325 C322 1.160 . S
O325 Cd326 2.203 . S
Cd326 O325 2.203 . S
Cd326 O328 2.411 . S
Cd326 O329 2.333 . S
Cd326 O330 2.352 . S
Cd326 O334 2.277 . S
Cd326 O335 2.356 . S
C327 O332 1.209 . S
C327 O334 1.226 . S
O328 Cd324 2.273 . S
O328 Cd326 2.411 . S
O328 C331 1.320 . S
O329 Cd326 2.333 . S
O329 C331 1.214 . S
O330 Cd326 2.352 . S
O330 C333 1.258 . S
C331 O328 1.320 . S
C331 O329 1.214 . S
O332 Cd324 2.277 . S
O332 C327 1.209 . S
C333 O330 1.258 . S
C333 O335 1.282 . S
O334 Cd326 2.277 . S
O334 C327 1.226 . S
O335 Cd326 2.356 . S
O335 C333 1.282 . S
Eu336 N367 2.657 1_545 S
Eu336 N374 2.609 1_544 S
Eu336 O380 2.558 1_454 S
Eu336 O381 2.612 . S
Eu336 O383 2.339 . S
Eu336 O384 2.563 . S
Eu336 O385 2.419 1_455 S
Eu336 O387 2.380 . S
Eu336 O388 2.432 1_554 S
Eu336 C400 2.848 1_454 S
C337 C340 1.429 . S
C337 C341 1.411 . S
C337 N344 1.377 . S
C338 C340 1.420 . S
C338 C342 1.423 . S
C338 C350 1.392 . S
C339 C341 1.420 . S
C339 C342 1.351 . S
C339 H362 0.931 . S
C340 C337 1.429 . S
C340 C338 1.420 . S
C340 N348 1.362 . S
C341 C337 1.411 . S
C341 C339 1.420 . S
C341 C346 1.395 . S
C342 C338 1.423 . S
C342 C339 1.351 . S
C342 H354 0.930 . S
C343 C345 1.400 . S
C343 C346 1.386 . S
C343 H355 0.930 . S
N344 C337 1.377 . S
N344 C345 1.321 . S
N344 Eu347 2.609 . S
C345 C343 1.400 . S
C345 N344 1.321 . S
C345 H352 0.930 . S
C346 C341 1.395 . S
C346 C343 1.386 . S
C346 H365 0.930 . S
Eu347 N344 2.609 . S
Eu347 N348 2.657 . S
Eu347 O381 2.380 . S
Eu347 O382 2.432 . S
Eu347 O386 2.558 . S
Eu347 O387 2.612 . S
Eu347 O389 2.329 1_554 S
Eu347 O390 2.563 . S
Eu347 O391 2.419 . S
Eu347 C411 2.848 . S
N348 C340 1.362 . S
N348 Eu347 2.657 . S
N348 C349 1.345 . S
C349 N348 1.345 . S
C349 C351 1.407 1_554 S
C349 H356 0.924 1_554 S
C350 C338 1.392 . S
C350 C351 1.367 1_554 S
C350 H358 0.930 . S
C351 C349 1.407 1_556 S
C351 C350 1.367 1_556 S
C351 H353 0.930 . S
H352 C345 0.930 . S
H353 C351 0.930 . S
H354 C342 0.930 . S
H355 C343 0.930 . S
H356 C349 0.924 1_556 S
H357 C371 0.930 . S
H358 C350 0.930 . S
H359 C377 0.930 1_545 S
H360 C368 0.929 1_545 S
H361 C375 0.930 . S
H362 C339 0.931 . S
H363 C369 0.930 . S
H364 C402 0.930 . S
H365 C346 0.930 . S
H366 C401 0.931 . S
N367 Eu336 2.657 1_565 S
N367 C368 1.334 . S
N367 C372 1.362 . S
C368 H360 0.929 1_565 S
C368 N367 1.334 . S
C368 C371 1.413 . S
C369 H363 0.930 . S
C369 C370 1.392 . S
C369 C371 1.367 1_655 S
C370 C369 1.392 . S
C370 C372 1.420 1_655 S
C370 C402 1.423 . S
C371 H357 0.930 . S
C371 C368 1.413 . S
C371 C369 1.367 1_455 S
C372 N367 1.362 . S
C372 C370 1.420 1_455 S
C372 C376 1.429 1_554 S
H373 C378 0.930 . S
N374 Eu336 2.609 1_566 S
N374 C376 1.377 . S
N374 C377 1.321 . S
C375 H361 0.930 . S
C375 C377 1.400 . S
C375 C378 1.386 1_455 S
C376 C372 1.429 1_556 S
C376 N374 1.377 . S
C376 C379 1.411 1_455 S
C377 H359 0.930 1_565 S
C377 N374 1.321 . S
C377 C375 1.400 . S
C378 H373 0.930 . S
C378 C375 1.386 1_655 S
C378 C379 1.395 . S
C379 C376 1.411 1_655 S
C379 C378 1.395 . S
C379 C401 1.420 . S
O380 Eu336 2.558 1_656 S
O380 C400 1.257 . S
O381 Eu336 2.612 . S
O381 Eu347 2.380 . S
O381 C392 1.276 . S
O382 Eu347 2.432 . S
O382 C399 1.264 . S
O383 Eu336 2.339 . S
O383 C399 1.254 . S
O384 Eu336 2.563 . S
O384 C392 1.235 . S
O385 Eu336 2.419 1_655 S
O385 C400 1.249 1_554 S
O386 Eu347 2.558 . S
O386 C411 1.257 . S
O387 Eu336 2.380 . S
O387 Eu347 2.612 . S
O387 C403 1.276 . S
O388 Eu336 2.432 1_556 S
O388 C410 1.264 . S
O389 Eu347 2.329 1_556 S
O389 C410 1.260 . S
O390 Eu347 2.563 . S
O390 C403 1.235 . S
O391 Eu347 2.419 . S
O391 C411 1.249 . S
C392 O381 1.276 . S
C392 O384 1.235 . S
C393 C395 1.393 1_556 S
C393 C397 1.395 . S
C393 C400 1.492 . S
C394 C395 1.392 . S
C394 C396 1.386 1_554 S
C395 C393 1.393 1_554 S
C395 C394 1.392 . S
C395 H412 0.930 . S
C396 C394 1.386 1_556 S
C396 C398 1.395 . S
C396 H413 0.930 . S
C397 C393 1.395 . S
C397 C398 1.379 . S
C397 H414 0.930 . S
C398 C396 1.395 . S
C398 C397 1.379 . S
C398 H415 0.930 . S
C399 O382 1.264 . S
C399 O383 1.254 . S
C400 Eu336 2.848 1_656 S
C400 O380 1.257 . S
C400 O385 1.249 1_556 S
C400 C393 1.492 . S
C401 H366 0.931 . S
C401 C379 1.420 . S
C401 C402 1.351 1_556 S
C402 H364 0.930 . S
C402 C370 1.423 . S
C402 C401 1.351 1_554 S
C403 O387 1.276 . S
C403 O390 1.235 . S
C404 C405 1.393 . S
C404 C408 1.395 . S
C404 C411 1.492 . S
C405 C404 1.393 . S
C405 C406 1.392 . S
C405 H416 0.930 . S
C406 C405 1.392 . S
C406 C407 1.386 . S
C407 C406 1.386 . S
C407 C409 1.395 . S
C407 H417 0.930 . S
C408 C404 1.395 . S
C408 C409 1.379 . S
C408 H418 0.930 . S
C409 C407 1.395 . S
C409 C408 1.379 . S
C409 H419 0.930 . S
C410 O388 1.264 . S
C410 O389 1.260 . S
C411 Eu347 2.848 . S
C411 O386 1.257 . S
C411 O391 1.249 . S
C411 C404 1.492 . S
H412 C395 0.930 . S
H413 C396 0.930 . S
H414 C397 0.930 . S
H415 C398 0.930 . S
H416 C405 0.930 . S
H417 C407 0.930 . S
H418 C408 0.930 . S
H419 C409 0.930 . S
Eu420 N451 2.657 . S
Eu420 N458 2.609 . S
Eu420 O464 2.558 . S
Eu420 O465 2.612 . S
Eu420 O467 2.339 . S
Eu420 O468 2.563 . S
Eu420 O469 2.419 . S
Eu420 O471 2.380 . S
Eu420 O472 2.432 . S
Eu420 C484 2.848 . S
C421 C424 1.429 . S
C421 C425 1.411 . S
C421 N428 1.377 . S
C422 C424 1.420 . S
C422 C426 1.423 . S
C422 C434 1.392 . S
C423 C425 1.420 . S
C423 C426 1.351 . S
C423 H446 0.931 . S
C424 C421 1.429 . S
C424 C422 1.420 . S
C424 N432 1.362 . S
C425 C421 1.411 . S
C425 C423 1.420 . S
C425 C430 1.395 . S
C426 C422 1.423 . S
C426 C423 1.351 . S
C426 H438 0.930 . S
C427 C429 1.400 . S
C427 C430 1.386 . S
C427 H439 0.930 . S
N428 C421 1.377 . S
N428 C429 1.321 . S
N428 Eu431 2.609 . S
C429 C427 1.400 . S
C429 N428 1.321 . S
C429 H436 0.930 . S
C430 C425 1.395 . S
C430 C427 1.386 . S
C430 H449 0.930 . S
Eu431 N428 2.609 . S
Eu431 N432 2.657 . S
Eu431 O465 2.380 . S
Eu431 O466 2.432 . S
Eu431 O470 2.558 . S
Eu431 O471 2.612 . S
Eu431 O473 2.339 . S
Eu431 O474 2.563 . S
Eu431 O475 2.419 . S
Eu431 C495 2.848 . S
N432 C424 1.362 . S
N432 Eu431 2.657 . S
N432 C433 1.334 . S
C433 N432 1.334 . S
C433 C435 1.413 . S
C433 H440 0.929 . S
C434 C422 1.392 . S
C434 C435 1.367 . S
C434 H442 0.930 . S
C435 C433 1.413 . S
C435 C434 1.367 . S
C435 H437 0.930 . S
H436 C429 0.930 . S
H437 C435 0.930 . S
H438 C426 0.930 . S
H439 C427 0.930 . S
H440 C433 0.929 . S
H441 C455 0.930 . S
H442 C434 0.930 . S
H443 C461 0.930 . S
H444 C452 0.929 . S
H445 C459 0.930 . S
H446 C423 0.931 . S
H447 C453 0.930 . S
H448 C486 0.930 . S
H449 C430 0.930 . S
H450 C485 0.931 . S
N451 Eu420 2.657 . S
N451 C452 1.334 . S
N451 C456 1.362 . S
C452 H444 0.929 . S
C452 N451 1.334 . S
C452 C455 1.413 . S
C453 H447 0.930 . S
C453 C454 1.392 . S
C453 C455 1.367 . S
C454 C453 1.392 . S
C454 C456 1.420 . S
C454 C486 1.423 . S
C455 H441 0.930 . S
C455 C452 1.413 . S
C455 C453 1.367 . S
C456 N451 1.362 . S
C456 C454 1.420 . S
C456 C460 1.429 . S
H457 C462 0.930 . S
N458 Eu420 2.609 . S
N458 C460 1.377 . S
N458 C461 1.321 . S
C459 H445 0.930 . S
C459 C461 1.400 . S
C459 C462 1.386 . S
C460 C456 1.429 . S
C460 N458 1.377 . S
C460 C463 1.411 . S
C461 H443 0.930 . S
C461 N458 1.321 . S
C461 C459 1.400 . S
C462 H457 0.930 . S
C462 C459 1.386 . S
C462 C463 1.395 . S
C463 C460 1.411 . S
C463 C462 1.395 . S
C463 C485 1.420 . S
O464 Eu420 2.558 . S
O464 C484 1.257 . S
O465 Eu420 2.612 . S
O465 Eu431 2.380 . S
O465 C476 1.276 . S
O466 Eu431 2.432 . S
O466 C483 1.264 . S
O467 Eu420 2.339 . S
O467 C483 1.254 . S
O468 Eu420 2.563 . S
O468 C476 1.235 . S
O469 Eu420 2.419 . S
O469 C484 1.249 . S
O470 Eu431 2.558 . S
O470 C495 1.257 . S
O471 Eu420 2.380 . S
O471 Eu431 2.612 . S
O471 C487 1.276 . S
O472 Eu420 2.432 . S
O472 C494 1.264 . S
O473 Eu431 2.339 . S
O473 C494 1.254 . S
O474 Eu431 2.563 . S
O474 C487 1.235 . S
O475 Eu431 2.419 . S
O475 C495 1.249 . S
C476 O465 1.276 . S
C476 O468 1.235 . S
C477 C479 1.393 . S
C477 C481 1.395 . S
C477 C484 1.492 . S
C478 C479 1.392 . S
C478 C480 1.386 . S
C479 C477 1.393 . S
C479 C478 1.392 . S
C479 H496 0.930 . S
C480 C478 1.386 . S
C480 C482 1.395 . S
C480 H497 0.930 . S
C481 C477 1.395 . S
C481 C482 1.379 . S
C481 H498 0.930 . S
C482 C480 1.395 . S
C482 C481 1.379 . S
C482 H499 0.930 . S
C483 O466 1.264 . S
C483 O467 1.254 . S
C484 Eu420 2.848 . S
C484 O464 1.257 . S
C484 O469 1.249 . S
C484 C477 1.492 . S
C485 H450 0.931 . S
C485 C463 1.420 . S
C485 C486 1.351 . S
C486 H448 0.930 . S
C486 C454 1.423 . S
C486 C485 1.351 . S
C487 O471 1.276 . S
C487 O474 1.235 . S
C488 C489 1.393 . S
C488 C492 1.395 . S
C488 C495 1.492 . S
C489 C488 1.393 . S
C489 C490 1.392 . S
C489 H500 0.930 . S
C490 C489 1.392 . S
C490 C491 1.386 . S
C491 C490 1.386 . S
C491 C493 1.395 . S
C491 H501 0.930 . S
C492 C488 1.395 . S
C492 C493 1.379 . S
C492 H502 0.930 . S
C493 C491 1.395 . S
C493 C492 1.379 . S
C493 H503 0.930 . S
C494 O472 1.264 . S
C494 O473 1.254 . S
C495 Eu431 2.848 . S
C495 O470 1.257 . S
C495 O475 1.249 . S
C495 C488 1.492 . S
H496 C479 0.930 . S
H497 C480 0.930 . S
H498 C481 0.930 . S
H499 C482 0.930 . S
H500 C489 0.930 . S
H501 C491 0.930 . S
H502 C492 0.930 . S
H503 C493 0.930 . S
Eu504 N535 2.657 . S
Eu504 N542 2.609 . S
Eu504 O548 2.558 . S
Eu504 O549 2.612 . S
Eu504 O551 2.339 . S
Eu504 O552 2.563 1_545 S
Eu504 O553 2.419 . S
Eu504 O555 2.380 . S
Eu504 O556 2.432 . S
Eu504 C568 2.848 . S
C505 C508 1.429 . S
C505 C509 1.411 . S
C505 N512 1.377 1_565 S
C506 C508 1.420 . S
C506 C510 1.423 . S
C506 C518 1.392 . S
C507 C509 1.420 . S
C507 C510 1.351 . S
C507 H530 0.931 . S
C508 C505 1.429 . S
C508 C506 1.420 . S
C508 N516 1.362 . S
C509 C505 1.411 . S
C509 C507 1.420 . S
C509 C514 1.395 . S
C510 C506 1.423 . S
C510 C507 1.351 . S
C510 H522 0.930 . S
C511 C513 1.400 . S
C511 C514 1.386 1_545 S
C511 H523 0.930 . S
N512 C505 1.377 1_545 S
N512 C513 1.321 . S
N512 Eu515 2.609 . S
C513 C511 1.400 . S
C513 N512 1.321 . S
C513 H520 0.930 . S
C514 C509 1.395 . S
C514 C511 1.386 1_565 S
C514 H533 0.930 . S
Eu515 N512 2.609 . S
Eu515 N516 2.657 1_545 S
Eu515 O549 2.380 . S
Eu515 O550 2.432 . S
Eu515 O554 2.558 . S
Eu515 O555 2.612 . S
Eu515 O557 2.339 . S
Eu515 O558 2.563 . S
Eu515 O559 2.419 . S
Eu515 C579 2.848 . S
N516 C508 1.362 . S
N516 Eu515 2.657 1_565 S
N516 C517 1.334 . S
C517 N516 1.334 . S
C517 C519 1.413 . S
C517 H524 0.889 1_565 S
C518 C506 1.392 . S
C518 C519 1.367 . S
C518 H526 0.930 . S
C519 C517 1.413 . S
C519 C518 1.367 . S
C519 H521 0.930 . S
H520 C513 0.930 . S
H521 C519 0.930 . S
H522 C510 0.930 . S
H523 C511 0.930 . S
H524 C517 0.889 1_545 S
H525 C539 0.930 . S
H526 C518 0.930 . S
H527 C545 0.930 . S
H528 C536 0.929 . S
H529 C543 0.930 . S
H530 C507 0.931 . S
H531 C537 0.930 . S
H532 C570 0.930 . S
H533 C514 0.930 . S
H534 C569 0.931 . S
N535 Eu504 2.657 . S
N535 C536 1.334 . S
N535 C540 1.362 . S
C536 H528 0.929 . S
C536 N535 1.334 . S
C536 C539 1.413 . S
C537 H531 0.930 . S
C537 C538 1.392 . S
C537 C539 1.367 . S
C538 C537 1.392 . S
C538 C540 1.420 . S
C538 C570 1.423 . S
C539 H525 0.930 . S
C539 C536 1.413 . S
C539 C537 1.367 . S
C540 N535 1.362 . S
C540 C538 1.420 . S
C540 C544 1.429 . S
H541 C546 0.930 . S
N542 Eu504 2.609 . S
N542 C544 1.377 . S
N542 C545 1.321 . S
C543 H529 0.930 . S
C543 C545 1.400 . S
C543 C546 1.386 . S
C544 C540 1.429 . S
C544 N542 1.377 . S
C544 C547 1.411 . S
C545 H527 0.930 . S
C545 N542 1.321 . S
C545 C543 1.400 . S
C546 H541 0.930 . S
C546 C543 1.386 . S
C546 C547 1.395 . S
C547 C544 1.411 . S
C547 C546 1.395 . S
C547 C569 1.420 . S
O548 Eu504 2.558 . S
O548 C568 1.257 . S
O549 Eu504 2.612 . S
O549 Eu515 2.380 . S
O549 C560 1.276 1_545 S
O550 Eu515 2.432 . S
O550 C567 1.264 . S
O551 Eu504 2.339 . S
O551 C567 1.254 . S
O552 Eu504 2.563 1_565 S
O552 C560 1.235 . S
O553 Eu504 2.419 . S
O553 C568 1.249 . S
O554 Eu515 2.558 . S
O554 C579 1.257 . S
O555 Eu504 2.380 . S
O555 Eu515 2.612 . S
O555 C571 1.276 . S
O556 Eu504 2.432 . S
O556 C578 1.264 . S
O557 Eu515 2.339 . S
O557 C578 1.254 . S
O558 Eu515 2.563 . S
O558 C571 1.235 . S
O559 Eu515 2.419 . S
O559 C579 1.249 . S
C560 O549 1.276 1_565 S
C560 O552 1.235 . S
C561 C563 1.393 . S
C561 C565 1.395 . S
C561 C568 1.492 . S
C562 C563 1.392 1_565 S
C562 C564 1.386 . S
C563 C561 1.393 . S
C563 C562 1.392 1_545 S
C563 H580 0.930 . S
C564 C562 1.386 . S
C564 C566 1.352 1_565 S
C564 H581 0.930 . S
C565 C561 1.395 . S
C565 C566 1.417 . S
C565 H582 0.930 . S
C566 C564 1.352 1_545 S
C566 C565 1.417 . S
C566 H583 0.938 . S
C567 O550 1.264 . S
C567 O551 1.254 . S
C568 Eu504 2.848 . S
C568 O548 1.257 . S
C568 O553 1.249 . S
C568 C561 1.492 . S
C569 H534 0.931 . S
C569 C547 1.420 . S
C569 C570 1.351 . S
C570 H532 0.930 . S
C570 C538 1.423 . S
C570 C569 1.351 . S
C571 O555 1.276 . S
C571 O558 1.235 . S
C572 C573 1.393 . S
C572 C576 1.395 . S
C572 C579 1.492 . S
C573 C572 1.393 . S
C573 C574 1.392 . S
C573 H584 0.930 . S
C574 C573 1.392 . S
C574 C575 1.386 . S
C575 C574 1.386 . S
C575 C577 1.395 . S
C575 H585 0.930 . S
C576 C572 1.395 . S
C576 C577 1.379 . S
C576 H586 0.930 . S
C577 C575 1.395 . S
C577 C576 1.379 . S
C577 H587 0.930 . S
C578 O556 1.264 . S
C578 O557 1.254 . S
C579 Eu515 2.848 . S
C579 O554 1.257 . S
C579 O559 1.249 . S
C579 C572 1.492 . S
H580 C563 0.930 . S
H581 C564 0.930 . S
H582 C565 0.930 . S
H583 C566 0.938 . S
H584 C573 0.930 . S
H585 C575 0.930 . S
H586 C576 0.930 . S
H587 C577 0.930 . S
Eu588 N619 2.657 . S
Eu588 N626 2.609 . S
Eu588 O632 2.558 . S
Eu588 O633 2.612 . S
Eu588 O635 2.339 . S
Eu588 O636 2.563 . S
Eu588 O637 2.419 . S
Eu588 O639 2.380 . S
Eu588 O640 2.432 . S
Eu588 C652 2.848 . S
C589 C592 1.429 . S
C589 C593 1.411 . S
C589 N596 1.377 . S
C590 C592 1.420 . S
C590 C594 1.423 . S
C590 C602 1.392 . S
C591 C593 1.420 . S
C591 C594 1.351 . S
C591 H614 0.931 . S
C592 C589 1.429 . S
C592 C590 1.420 . S
C592 N600 1.362 . S
C593 C589 1.411 . S
C593 C591 1.420 . S
C593 C598 1.395 . S
C594 C590 1.423 . S
C594 C591 1.351 . S
C594 H606 0.930 . S
C595 C597 1.400 . S
C595 C598 1.386 . S
C595 H607 0.930 . S
N596 C589 1.377 . S
N596 C597 1.321 . S
N596 Eu599 2.609 . S
C597 C595 1.400 . S
C597 N596 1.321 . S
C597 H604 0.930 . S
C598 C593 1.395 . S
C598 C595 1.386 . S
C598 H617 0.930 . S
Eu599 N596 2.609 . S
Eu599 N600 2.657 . S
Eu599 O633 2.380 . S
Eu599 O634 2.432 . S
Eu599 O638 2.558 . S
Eu599 O639 2.612 . S
Eu599 O641 2.339 . S
Eu599 O642 2.563 . S
Eu599 O643 2.419 . S
Eu599 C663 2.848 . S
N600 C592 1.362 . S
N600 Eu599 2.657 . S
N600 C601 1.334 . S
C601 N600 1.334 . S
C601 C603 1.413 . S
C601 H608 0.929 . S
C602 C590 1.392 . S
C602 C603 1.367 . S
C602 H610 0.930 . S
C603 C601 1.413 . S
C603 C602 1.367 . S
C603 H605 0.930 . S
H604 C597 0.930 . S
H605 C603 0.930 . S
H606 C594 0.930 . S
H607 C595 0.930 . S
H608 C601 0.929 . S
H609 C623 0.930 . S
H610 C602 0.930 . S
H611 C629 0.930 . S
H612 C620 0.929 . S
H613 C627 0.930 . S
H614 C591 0.931 . S
H615 C621 0.930 . S
H616 C654 0.930 . S
H617 C598 0.930 . S
H618 C653 0.931 . S
N619 Eu588 2.657 . S
N619 C620 1.334 . S
N619 C624 1.362 . S
C620 H612 0.929 . S
C620 N619 1.334 . S
C620 C623 1.413 . S
C621 H615 0.930 . S
C621 C622 1.392 . S
C621 C623 1.367 . S
C622 C621 1.392 . S
C622 C624 1.420 . S
C622 C654 1.423 . S
C623 H609 0.930 . S
C623 C620 1.413 . S
C623 C621 1.367 . S
C624 N619 1.362 . S
C624 C622 1.420 . S
C624 C628 1.429 . S
H625 C630 0.930 . S
N626 Eu588 2.609 . S
N626 C628 1.377 . S
N626 C629 1.321 . S
C627 H613 0.930 . S
C627 C629 1.400 . S
C627 C630 1.386 . S
C628 C624 1.429 . S
C628 N626 1.377 . S
C628 C631 1.411 . S
C629 H611 0.930 . S
C629 N626 1.321 . S
C629 C627 1.400 . S
C630 H625 0.930 . S
C630 C627 1.386 . S
C630 C631 1.395 . S
C631 C628 1.411 . S
C631 C630 1.395 . S
C631 C653 1.420 . S
O632 Eu588 2.558 . S
O632 C652 1.257 . S
O633 Eu588 2.612 . S
O633 Eu599 2.380 . S
O633 C644 1.276 . S
O634 Eu599 2.432 . S
O634 C651 1.264 . S
O635 Eu588 2.339 . S
O635 C651 1.254 . S
O636 Eu588 2.563 . S
O636 C644 1.235 . S
O637 Eu588 2.419 . S
O637 C652 1.249 . S
O638 Eu599 2.558 . S
O638 C663 1.257 . S
O639 Eu588 2.380 . S
O639 Eu599 2.612 . S
O639 C655 1.276 . S
O640 Eu588 2.432 . S
O640 C662 1.264 . S
O641 Eu599 2.339 . S
O641 C662 1.254 . S
O642 Eu599 2.563 . S
O642 C655 1.235 . S
O643 Eu599 2.419 . S
O643 C663 1.249 . S
C644 O633 1.276 . S
C644 O636 1.235 . S
C645 C647 1.393 . S
C645 C649 1.395 . S
C645 C652 1.492 . S
C646 C647 1.392 . S
C646 C648 1.386 . S
C647 C645 1.393 . S
C647 C646 1.392 . S
C647 H664 0.930 . S
C648 C646 1.386 . S
C648 C650 1.395 . S
C648 H665 0.930 . S
C649 C645 1.395 . S
C649 C650 1.379 . S
C649 H666 0.930 . S
C650 C648 1.395 . S
C650 C649 1.379 . S
C650 H667 0.930 . S
C651 O634 1.264 . S
C651 O635 1.254 . S
C652 Eu588 2.848 . S
C652 O632 1.257 . S
C652 O637 1.249 . S
C652 C645 1.492 . S
C653 H618 0.931 . S
C653 C631 1.420 . S
C653 C654 1.351 . S
C654 H616 0.930 . S
C654 C622 1.423 . S
C654 C653 1.351 . S
C655 O639 1.276 . S
C655 O642 1.235 . S
C656 C657 1.393 . S
C656 C660 1.395 . S
C656 C663 1.492 . S
C657 C656 1.393 . S
C657 C658 1.392 . S
C657 H668 0.930 . S
C658 C657 1.392 . S
C658 C659 1.386 . S
C659 C658 1.386 . S
C659 C661 1.395 . S
C659 H669 0.930 . S
C660 C656 1.395 . S
C660 C661 1.379 . S
C660 H670 0.930 . S
C661 C659 1.395 . S
C661 C660 1.379 . S
C661 H671 0.930 . S
C662 O640 1.264 . S
C662 O641 1.254 . S
C663 Eu599 2.848 . S
C663 O638 1.257 . S
C663 O643 1.249 . S
C663 C656 1.492 . S
H664 C647 0.930 . S
H665 C648 0.930 . S
H666 C649 0.930 . S
H667 C650 0.930 . S
H668 C657 0.930 . S
H669 C659 0.930 . S
H670 C660 0.930 . S
H671 C661 0.930 . S
Eu672 N703 2.657 . S
Eu672 N710 2.609 . S
Eu672 O716 2.558 . S
Eu672 O717 2.612 . S
Eu672 O719 2.339 . S
Eu672 O720 2.563 . S
Eu672 O721 2.419 . S
Eu672 O723 2.380 . S
Eu672 O724 2.432 . S
Eu672 C736 2.848 . S
C673 C676 1.429 . S
C673 C677 1.411 . S
C673 N680 1.377 . S
C674 C676 1.420 . S
C674 C678 1.423 . S
C674 C686 1.392 . S
C675 C677 1.420 . S
C675 C678 1.351 . S
C675 H698 0.931 . S
C676 C673 1.429 . S
C676 C674 1.420 . S
C676 N684 1.362 . S
C677 C673 1.411 . S
C677 C675 1.420 . S
C677 C682 1.395 . S
C678 C674 1.423 . S
C678 C675 1.351 . S
C678 H690 0.930 . S
C679 C681 1.400 . S
C679 C682 1.386 . S
C679 H691 0.930 . S
N680 C673 1.377 . S
N680 C681 1.321 . S
N680 Eu683 2.609 1_565 S
C681 C679 1.400 . S
C681 N680 1.321 . S
C681 H688 0.930 1_565 S
C682 C677 1.395 . S
C682 C679 1.386 . S
C682 H701 0.930 . S
Eu683 N680 2.609 1_545 S
Eu683 N684 2.657 1_545 S
Eu683 O717 2.380 . S
Eu683 O718 2.432 . S
Eu683 O722 2.558 1_545 S
Eu683 O723 2.612 . S
Eu683 O725 2.339 . S
Eu683 O726 2.563 . S
Eu683 O727 2.419 1_545 S
Eu683 C747 2.848 1_545 S
N684 C676 1.362 . S
N684 Eu683 2.657 1_565 S
N684 C685 1.334 . S
C685 N684 1.334 . S
C685 C687 1.413 . S
C685 H692 0.929 . S
C686 C674 1.392 . S
C686 C687 1.367 . S
C686 H694 0.930 . S
C687 C685 1.413 . S
C687 C686 1.367 . S
C687 H689 0.930 1_455 S
H688 C681 0.930 1_545 S
H689 C687 0.930 1_655 S
H690 C678 0.930 . S
H691 C679 0.930 . S
H692 C685 0.929 . S
H693 C707 0.930 . S
H694 C686 0.930 . S
H695 C713 0.930 . S
H696 C704 0.929 . S
H697 C711 0.930 1_655 S
H698 C675 0.931 . S
H699 C705 0.930 . S
H700 C738 0.930 . S
H701 C682 0.930 . S
H702 C737 0.931 . S
N703 Eu672 2.657 . S
N703 C704 1.334 . S
N703 C708 1.362 . S
C704 H696 0.929 . S
C704 N703 1.334 . S
C704 C707 1.413 . S
C705 H699 0.930 . S
C705 C706 1.392 . S
C705 C707 1.367 . S
C706 C705 1.392 . S
C706 C708 1.420 . S
C706 C738 1.423 . S
C707 H693 0.930 . S
C707 C704 1.413 . S
C707 C705 1.367 . S
C708 N703 1.362 . S
C708 C706 1.420 . S
C708 C712 1.429 . S
H709 C714 0.930 . S
N710 Eu672 2.609 . S
N710 C712 1.377 . S
N710 C713 1.321 . S
C711 H697 0.930 1_455 S
C711 C713 1.400 . S
C711 C714 1.386 . S
C712 C708 1.429 . S
C712 N710 1.377 . S
C712 C715 1.411 . S
C713 H695 0.930 . S
C713 N710 1.321 . S
C713 C711 1.400 . S
C714 H709 0.930 . S
C714 C711 1.386 . S
C714 C715 1.395 . S
C715 C712 1.411 . S
C715 C714 1.395 . S
C715 C737 1.420 . S
O716 Eu672 2.558 . S
O716 C736 1.257 . S
O717 Eu672 2.612 . S
O717 Eu683 2.380 . S
O717 C728 1.276 . S
O718 Eu683 2.432 . S
O718 C735 1.264 . S
O719 Eu672 2.339 . S
O719 C735 1.254 . S
O720 Eu672 2.563 . S
O720 C728 1.235 . S
O721 Eu672 2.419 . S
O721 C736 1.249 . S
O722 Eu683 2.558 1_565 S
O722 C747 1.257 . S
O723 Eu672 2.380 . S
O723 Eu683 2.612 . S
O723 C739 1.276 . S
O724 Eu672 2.432 . S
O724 C746 1.264 . S
O725 Eu683 2.339 . S
O725 C746 1.254 . S
O726 Eu683 2.563 . S
O726 C739 1.235 . S
O727 Eu683 2.419 1_565 S
O727 C747 1.249 . S
C728 O717 1.276 . S
C728 O720 1.235 . S
C729 C731 1.393 . S
C729 C733 1.395 . S
C729 C736 1.492 . S
C730 C731 1.392 . S
C730 C732 1.386 . S
C731 C729 1.393 . S
C731 C730 1.392 . S
C731 H748 0.930 . S
C732 C730 1.386 . S
C732 C734 1.395 . S
C732 H749 0.930 . S
C733 C729 1.395 . S
C733 C734 1.379 . S
C733 H750 0.930 . S
C734 C732 1.395 . S
C734 C733 1.379 . S
C734 H751 0.930 . S
C735 O718 1.264 . S
C735 O719 1.254 . S
C736 Eu672 2.848 . S
C736 O716 1.257 . S
C736 O721 1.249 . S
C736 C729 1.492 . S
C737 H702 0.931 . S
C737 C715 1.420 . S
C737 C738 1.351 . S
C738 H700 0.930 . S
C738 C706 1.423 . S
C738 C737 1.351 . S
C739 O723 1.276 . S
C739 O726 1.235 . S
C740 C741 1.393 . S
C740 C744 1.395 . S
C740 C747 1.492 . S
C741 C740 1.393 . S
C741 C742 1.392 . S
C741 H752 0.930 . S
C742 C741 1.392 . S
C742 C743 1.386 . S
C743 C742 1.386 . S
C743 C745 1.395 . S
C743 H753 0.930 . S
C744 C740 1.395 . S
C744 C745 1.379 . S
C744 H754 0.930 . S
C745 C743 1.395 . S
C745 C744 1.379 . S
C745 H755 0.930 . S
C746 O724 1.264 . S
C746 O725 1.254 . S
C747 Eu683 2.848 1_565 S
C747 O722 1.257 . S
C747 O727 1.249 . S
C747 C740 1.492 . S
H748 C731 0.930 . S
H749 C732 0.930 . S
H750 C733 0.930 . S
H751 C734 0.930 . S
H752 C741 0.930 . S
H753 C743 0.930 . S
H754 C744 0.930 . S
H755 C745 0.930 . S
Eu756 N787 2.657 . S
Eu756 N794 2.609 . S
Eu756 O800 2.558 . S
Eu756 O801 2.612 . S
Eu756 O803 2.339 . S
Eu756 O804 2.563 . S
Eu756 O805 2.419 . S
Eu756 O807 2.380 . S
Eu756 O808 2.432 . S
Eu756 C820 2.848 . S
C757 C760 1.429 . S
C757 C761 1.411 . S
C757 N764 1.377 . S
C758 C760 1.420 . S
C758 C762 1.423 . S
C758 C770 1.392 . S
C759 C761 1.420 . S
C759 C762 1.351 . S
C759 H782 0.931 . S
C760 C757 1.429 . S
C760 C758 1.420 . S
C760 N768 1.362 . S
C761 C757 1.411 . S
C761 C759 1.420 . S
C761 C766 1.395 . S
C762 C758 1.423 . S
C762 C759 1.351 . S
C762 H774 0.930 . S
C763 C765 1.400 . S
C763 C766 1.386 . S
C763 H775 0.930 . S
N764 C757 1.377 . S
N764 C765 1.321 . S
N764 Eu767 2.609 . S
C765 C763 1.400 . S
C765 N764 1.321 . S
C765 H772 0.930 . S
C766 C761 1.395 . S
C766 C763 1.386 . S
C766 H785 0.930 . S
Eu767 N764 2.609 . S
Eu767 N768 2.657 . S
Eu767 O801 2.380 . S
Eu767 O802 2.432 . S
Eu767 O806 2.558 . S
Eu767 O807 2.612 . S
Eu767 O809 2.339 . S
Eu767 O810 2.563 . S
Eu767 O811 2.419 . S
Eu767 C831 2.848 . S
N768 C760 1.362 . S
N768 Eu767 2.657 . S
N768 C769 1.334 . S
C769 N768 1.334 . S
C769 C771 1.413 . S
C769 H776 0.929 . S
C770 C758 1.392 . S
C770 C771 1.367 . S
C770 H778 0.930 . S
C771 C769 1.413 . S
C771 C770 1.367 . S
C771 H773 0.930 . S
H772 C765 0.930 . S
H773 C771 0.930 . S
H774 C762 0.930 . S
H775 C763 0.930 . S
H776 C769 0.929 . S
H777 C791 0.930 . S
H778 C770 0.930 . S
H779 C797 0.930 . S
H780 C788 0.929 . S
H781 C795 0.930 . S
H782 C759 0.931 . S
H783 C789 0.930 . S
H784 C822 0.930 . S
H785 C766 0.930 . S
H786 C821 0.931 . S
N787 Eu756 2.657 . S
N787 C788 1.334 . S
N787 C792 1.362 . S
C788 H780 0.929 . S
C788 N787 1.334 . S
C788 C791 1.413 . S
C789 H783 0.930 . S
C789 C790 1.392 . S
C789 C791 1.367 . S
C790 C789 1.392 . S
C790 C792 1.420 . S
C790 C822 1.423 . S
C791 H777 0.930 . S
C791 C788 1.413 . S
C791 C789 1.367 . S
C792 N787 1.362 . S
C792 C790 1.420 . S
C792 C796 1.429 . S
H793 C798 0.930 . S
N794 Eu756 2.609 . S
N794 C796 1.377 . S
N794 C797 1.321 . S
C795 H781 0.930 . S
C795 C797 1.400 . S
C795 C798 1.386 . S
C796 C792 1.429 . S
C796 N794 1.377 . S
C796 C799 1.411 . S
C797 H779 0.930 . S
C797 N794 1.321 . S
C797 C795 1.400 . S
C798 H793 0.930 . S
C798 C795 1.386 . S
C798 C799 1.395 . S
C799 C796 1.411 . S
C799 C798 1.395 . S
C799 C821 1.420 . S
O800 Eu756 2.558 . S
O800 C820 1.257 . S
O801 Eu756 2.612 . S
O801 Eu767 2.380 . S
O801 C812 1.276 . S
O802 Eu767 2.432 . S
O802 C819 1.264 . S
O803 Eu756 2.339 . S
O803 C819 1.254 . S
O804 Eu756 2.563 . S
O804 C812 1.235 . S
O805 Eu756 2.419 . S
O805 C820 1.249 . S
O806 Eu767 2.558 . S
O806 C831 1.257 . S
O807 Eu756 2.380 . S
O807 Eu767 2.612 . S
O807 C823 1.276 . S
O808 Eu756 2.432 . S
O808 C830 1.264 . S
O809 Eu767 2.339 . S
O809 C830 1.254 . S
O810 Eu767 2.563 . S
O810 C823 1.235 . S
O811 Eu767 2.419 . S
O811 C831 1.249 . S
C812 O801 1.276 . S
C812 O804 1.235 . S
C813 C815 1.393 . S
C813 C817 1.395 . S
C813 C820 1.492 . S
C814 C815 1.392 . S
C814 C816 1.386 . S
C815 C813 1.393 . S
C815 C814 1.392 . S
C815 H832 0.930 . S
C816 C814 1.386 . S
C816 C818 1.395 . S
C816 H833 0.930 . S
C817 C813 1.395 . S
C817 C818 1.379 . S
C817 H834 0.930 . S
C818 C816 1.395 . S
C818 C817 1.379 . S
C818 H835 0.930 . S
C819 O802 1.264 . S
C819 O803 1.254 . S
C820 Eu756 2.848 . S
C820 O800 1.257 . S
C820 O805 1.249 . S
C820 C813 1.492 . S
C821 H786 0.931 . S
C821 C799 1.420 . S
C821 C822 1.351 . S
C822 H784 0.930 . S
C822 C790 1.423 . S
C822 C821 1.351 . S
C823 O807 1.276 . S
C823 O810 1.235 . S
C824 C825 1.393 . S
C824 C828 1.395 . S
C824 C831 1.492 . S
C825 C824 1.393 . S
C825 C826 1.392 . S
C825 H836 0.930 . S
C826 C825 1.392 . S
C826 C827 1.386 . S
C827 C826 1.386 . S
C827 C829 1.395 . S
C827 H837 0.930 . S
C828 C824 1.395 . S
C828 C829 1.379 . S
C828 H838 0.930 . S
C829 C827 1.395 . S
C829 C828 1.379 . S
C829 H839 0.930 . S
C830 O808 1.264 . S
C830 O809 1.254 . S
C831 Eu767 2.848 . S
C831 O806 1.257 . S
C831 O811 1.249 . S
C831 C824 1.492 . S
H832 C815 0.930 . S
H833 C816 0.930 . S
H834 C817 0.930 . S
H835 C818 0.930 . S
H836 C825 0.930 . S
H837 C827 0.930 . S
H838 C828 0.930 . S
H839 C829 0.930 . S
Eu840 N871 2.657 . S
Eu840 N878 2.609 . S
Eu840 O884 2.558 . S
Eu840 O885 2.612 . S
Eu840 O887 2.339 . S
Eu840 O888 2.563 . S
Eu840 O889 2.419 . S
Eu840 O891 2.380 . S
Eu840 O892 2.432 . S
Eu840 C904 2.848 . S
C841 C844 1.429 . S
C841 C845 1.411 . S
C841 N848 1.377 . S
C842 C844 1.420 . S
C842 C846 1.423 . S
C842 C854 1.392 1_545 S
C843 C845 1.420 . S
C843 C846 1.351 . S
C843 H866 0.931 . S
C844 C841 1.429 . S
C844 C842 1.420 . S
C844 N852 1.362 . S
C845 C841 1.411 . S
C845 C843 1.420 . S
C845 C850 1.395 . S
C846 C842 1.423 . S
C846 C843 1.351 . S
C846 H858 0.930 . S
C847 C849 1.400 . S
C847 C850 1.386 . S
C847 H859 0.930 . S
N848 C841 1.377 . S
N848 C849 1.321 . S
N848 Eu851 2.609 . S
C849 C847 1.400 . S
C849 N848 1.321 . S
C849 H856 0.930 . S
C850 C845 1.395 . S
C850 C847 1.386 . S
C850 H869 0.930 . S
Eu851 N848 2.609 . S
Eu851 N852 2.657 . S
Eu851 O885 2.380 1_556 S
Eu851 O886 2.432 1_556 S
Eu851 O890 2.558 . S
Eu851 O891 2.612 1_556 S
Eu851 O893 2.339 . S
Eu851 O894 2.565 . S
Eu851 O895 2.419 . S
Eu851 C915 2.848 . S
N852 C844 1.362 . S
N852 Eu851 2.657 . S
N852 C853 1.358 . S
C853 N852 1.358 . S
C853 C855 1.404 1_545 S
C853 H860 0.914 1_545 S
C854 C842 1.392 1_565 S
C854 C855 1.367 . S
C854 H862 0.930 . S
C855 C853 1.404 1_565 S
C855 C854 1.367 . S
C855 H857 0.930 . S
H856 C849 0.930 . S
H857 C855 0.930 . S
H858 C846 0.930 . S
H859 C847 0.930 . S
H860 C853 0.914 1_565 S
H861 C875 0.930 . S
H862 C854 0.930 . S
H863 C881 0.930 . S
H864 C872 0.929 . S
H865 C879 0.930 . S
H866 C843 0.931 . S
H867 C873 0.930 . S
H868 C906 0.930 . S
H869 C850 0.930 . S
H870 C905 0.931 . S
N871 Eu840 2.657 . S
N871 C872 1.334 . S
N871 C876 1.362 . S
C872 H864 0.929 . S
C872 N871 1.334 . S
C872 C875 1.413 . S
C873 H867 0.930 . S
C873 C874 1.392 . S
C873 C875 1.367 . S
C874 C873 1.392 . S
C874 C876 1.420 . S
C874 C906 1.423 . S
C875 H861 0.930 . S
C875 C872 1.413 . S
C875 C873 1.367 . S
C876 N871 1.362 . S
C876 C874 1.420 . S
C876 C880 1.429 . S
H877 C882 0.930 . S
N878 Eu840 2.609 . S
N878 C880 1.377 . S
N878 C881 1.321 1_545 S
C879 H865 0.930 . S
C879 C881 1.400 . S
C879 C882 1.386 . S
C880 C876 1.429 . S
C880 N878 1.377 . S
C880 C883 1.411 . S
C881 H863 0.930 . S
C881 N878 1.321 1_565 S
C881 C879 1.400 . S
C882 H877 0.930 . S
C882 C879 1.386 . S
C882 C883 1.395 1_565 S
C883 C880 1.411 . S
C883 C882 1.395 1_545 S
C883 C905 1.420 . S
O884 Eu840 2.558 . S
O884 C904 1.257 . S
O885 Eu840 2.612 . S
O885 Eu851 2.380 1_554 S
O885 C896 1.276 . S
O886 Eu851 2.432 1_554 S
O886 C903 1.264 . S
O887 Eu840 2.339 . S
O887 C903 1.254 . S
O888 Eu840 2.563 . S
O888 C896 1.235 . S
O889 Eu840 2.419 . S
O889 C904 1.249 . S
O890 Eu851 2.558 . S
O890 C915 1.257 . S
O891 Eu840 2.380 . S
O891 Eu851 2.612 1_554 S
O891 C907 1.276 . S
O892 Eu840 2.432 . S
O892 C914 1.264 . S
O893 Eu851 2.339 . S
O893 C914 1.254 1_556 S
O894 Eu851 2.565 . S
O894 C907 1.206 1_556 S
O895 Eu851 2.419 . S
O895 C915 1.249 . S
C896 O885 1.276 . S
C896 O888 1.235 . S
C897 C899 1.393 . S
C897 C901 1.395 1_545 S
C897 C904 1.492 . S
C898 C899 1.392 . S
C898 C900 1.386 . S
C899 C897 1.393 . S
C899 C898 1.392 . S
C899 H916 0.930 . S
C900 C898 1.386 . S
C900 C902 1.395 1_545 S
C900 H917 0.930 . S
C901 C897 1.395 1_565 S
C901 C902 1.379 . S
C901 H918 0.930 . S
C902 C900 1.395 1_565 S
C902 C901 1.379 . S
C902 H919 0.930 . S
C903 O886 1.264 . S
C903 O887 1.254 . S
C904 Eu840 2.848 . S
C904 O884 1.257 . S
C904 O889 1.249 . S
C904 C897 1.492 . S
C905 H870 0.931 . S
C905 C883 1.420 . S
C905 C906 1.351 . S
C906 H868 0.930 . S
C906 C874 1.423 . S
C906 C905 1.351 . S
C907 O891 1.276 . S
C907 O894 1.206 1_554 S
C908 C909 1.393 . S
C908 C912 1.395 . S
C908 C915 1.492 . S
C909 C908 1.393 . S
C909 C910 1.392 . S
C909 H920 0.930 . S
C910 C909 1.392 . S
C910 C911 1.386 . S
C911 C910 1.386 . S
C911 C913 1.395 . S
C911 H921 0.930 . S
C912 C908 1.395 . S
C912 C913 1.379 . S
C912 H922 0.930 . S
C913 C911 1.395 . S
C913 C912 1.379 . S
C913 H923 0.930 . S
C914 O892 1.264 . S
C914 O893 1.254 1_554 S
C915 Eu851 2.848 . S
C915 O890 1.257 . S
C915 O895 1.249 . S
C915 C908 1.492 . S
H916 C899 0.930 . S
H917 C900 0.930 . S
H918 C901 0.930 . S
H919 C902 0.930 . S
H920 C909 0.930 . S
H921 C911 0.930 . S
H922 C912 0.930 . S
H923 C913 0.930 . S
Eu924 N955 2.657 . S
Eu924 N962 2.609 . S
Eu924 O968 2.558 . S
Eu924 O969 2.612 . S
Eu924 O971 2.339 . S
Eu924 O972 2.563 . S
Eu924 O973 2.419 . S
Eu924 O975 2.380 . S
Eu924 O976 2.432 . S
Eu924 C988 2.848 . S
C925 C928 1.429 . S
C925 C929 1.411 . S
C925 N932 1.377 . S
C926 C928 1.420 . S
C926 C930 1.423 . S
C926 C938 1.392 . S
C927 C929 1.420 . S
C927 C930 1.351 . S
C927 H950 0.931 . S
C928 C925 1.429 . S
C928 C926 1.420 . S
C928 N936 1.362 . S
C929 C925 1.411 . S
C929 C927 1.420 . S
C929 C934 1.395 . S
C930 C926 1.423 . S
C930 C927 1.351 . S
C930 H942 0.930 . S
C931 C933 1.400 . S
C931 C934 1.386 . S
C931 H943 0.930 . S
N932 C925 1.377 . S
N932 C933 1.321 . S
N932 Eu935 2.609 . S
C933 C931 1.400 . S
C933 N932 1.321 . S
C933 H940 0.930 . S
C934 C929 1.395 . S
C934 C931 1.386 . S
C934 H953 0.930 . S
Eu935 N932 2.609 . S
Eu935 N936 2.657 . S
Eu935 O969 2.380 . S
Eu935 O970 2.432 . S
Eu935 O974 2.558 . S
Eu935 O975 2.612 . S
Eu935 O977 2.339 . S
Eu935 O978 2.563 . S
Eu935 O979 2.419 . S
Eu935 C999 2.848 . S
N936 C928 1.362 . S
N936 Eu935 2.657 . S
N936 C937 1.334 . S
C937 N936 1.334 . S
C937 C939 1.413 . S
C937 H944 0.929 . S
C938 C926 1.392 . S
C938 C939 1.367 . S
C938 H946 0.930 . S
C939 C937 1.413 . S
C939 C938 1.367 . S
C939 H941 0.930 . S
H940 C933 0.930 . S
H941 C939 0.930 . S
H942 C930 0.930 . S
H943 C931 0.930 . S
H944 C937 0.929 . S
H945 C959 0.930 . S
H946 C938 0.930 . S
H947 C965 0.930 . S
H948 C956 0.929 . S
H949 C963 0.930 . S
H950 C927 0.931 . S
H951 C957 0.930 . S
H952 C990 0.930 . S
H953 C934 0.930 . S
H954 C989 0.931 . S
N955 Eu924 2.657 . S
N955 C956 1.334 . S
N955 C960 1.362 . S
C956 H948 0.929 . S
C956 N955 1.334 . S
C956 C959 1.413 . S
C957 H951 0.930 . S
C957 C958 1.392 . S
C957 C959 1.367 . S
C958 C957 1.392 . S
C958 C960 1.420 . S
C958 C990 1.423 . S
C959 H945 0.930 . S
C959 C956 1.413 . S
C959 C957 1.367 . S
C960 N955 1.362 . S
C960 C958 1.420 . S
C960 C964 1.429 . S
H961 C966 0.930 . S
N962 Eu924 2.609 . S
N962 C964 1.377 . S
N962 C965 1.321 . S
C963 H949 0.930 . S
C963 C965 1.400 . S
C963 C966 1.386 . S
C964 C960 1.429 . S
C964 N962 1.377 . S
C964 C967 1.411 . S
C965 H947 0.930 . S
C965 N962 1.321 . S
C965 C963 1.400 . S
C966 H961 0.930 . S
C966 C963 1.386 . S
C966 C967 1.395 . S
C967 C964 1.411 . S
C967 C966 1.395 . S
C967 C989 1.420 . S
O968 Eu924 2.558 . S
O968 C988 1.257 . S
O969 Eu924 2.612 . S
O969 Eu935 2.380 . S
O969 C980 1.276 . S
O970 Eu935 2.432 . S
O970 C987 1.264 . S
O971 Eu924 2.339 . S
O971 C987 1.254 . S
O972 Eu924 2.563 . S
O972 C980 1.235 . S
O973 Eu924 2.419 . S
O973 C988 1.249 . S
O974 Eu935 2.558 . S
O974 C999 1.257 . S
O975 Eu924 2.380 . S
O975 Eu935 2.612 . S
O975 C991 1.276 . S
O976 Eu924 2.432 . S
O976 C998 1.264 . S
O977 Eu935 2.339 . S
O977 C998 1.254 . S
O978 Eu935 2.563 . S
O978 C991 1.235 . S
O979 Eu935 2.419 . S
O979 C999 1.249 . S
C980 O969 1.276 . S
C980 O972 1.235 . S
C981 C983 1.393 . S
C981 C985 1.395 . S
C981 C988 1.492 . S
C982 C983 1.392 . S
C982 C984 1.386 . S
C983 C981 1.393 . S
C983 C982 1.392 . S
C983 H1000 0.930 . S
C984 C982 1.386 . S
C984 C986 1.395 . S
C984 H1001 0.930 . S
C985 C981 1.395 . S
C985 C986 1.379 . S
C985 H1002 0.930 . S
C986 C984 1.395 . S
C986 C985 1.379 . S
C986 H1003 0.930 . S
C987 O970 1.264 . S
C987 O971 1.254 . S
C988 Eu924 2.848 . S
C988 O968 1.257 . S
C988 O973 1.249 . S
C988 C981 1.492 . S
C989 H954 0.931 . S
C989 C967 1.420 . S
C989 C990 1.351 . S
C990 H952 0.930 . S
C990 C958 1.423 . S
C990 C989 1.351 . S
C991 O975 1.276 . S
C991 O978 1.235 . S
C992 C993 1.393 . S
C992 C996 1.395 . S
C992 C999 1.492 . S
C993 C992 1.393 . S
C993 C994 1.392 . S
C993 H1004 0.930 . S
C994 C993 1.392 . S
C994 C995 1.386 . S
C995 C994 1.386 . S
C995 C997 1.395 . S
C995 H1005 0.930 . S
C996 C992 1.395 . S
C996 C997 1.379 . S
C996 H1006 0.930 . S
C997 C995 1.395 . S
C997 C996 1.379 . S
C997 H1007 0.930 . S
C998 O976 1.264 . S
C998 O977 1.254 . S
C999 Eu935 2.848 . S
C999 O974 1.257 . S
C999 O979 1.249 . S
C999 C992 1.492 . S
H1000 C983 0.930 . S
H1001 C984 0.930 . S
H1002 C985 0.930 . S
H1003 C986 0.930 . S
H1004 C993 0.930 . S
H1005 C995 0.930 . S
H1006 C996 0.930 . S
H1007 C997 0.930 . S
Eu1008 N1039 2.657 . S
Eu1008 N1046 2.609 . S
Eu1008 O1052 2.558 . S
Eu1008 O1053 2.612 1_554 S
Eu1008 O1055 2.339 . S
Eu1008 O1056 2.563 1_554 S
Eu1008 O1057 2.419 . S
Eu1008 O1059 2.380 . S
Eu1008 O1060 2.432 . S
Eu1008 C1072 2.848 . S
C1009 C1012 1.429 . S
C1009 C1013 1.411 . S
C1009 N1016 1.377 . S
C1010 C1012 1.420 . S
C1010 C1014 1.423 . S
C1010 C1022 1.392 . S
C1011 C1013 1.420 . S
C1011 C1014 1.351 . S
C1011 H1034 0.931 . S
C1012 C1009 1.429 . S
C1012 C1010 1.420 . S
C1012 N1020 1.362 . S
C1013 C1009 1.411 . S
C1013 C1011 1.420 . S
C1013 C1018 1.395 . S
C1014 C1010 1.423 . S
C1014 C1011 1.351 . S
C1014 H1026 0.930 . S
C1015 C1017 1.400 . S
C1015 C1018 1.386 . S
C1015 H1027 0.930 . S
N1016 C1009 1.377 . S
N1016 C1017 1.321 . S
N1016 Eu1019 2.609 1_556 S
C1017 C1015 1.400 . S
C1017 N1016 1.321 . S
C1017 H1024 0.930 . S
C1018 C1013 1.395 . S
C1018 C1015 1.386 . S
C1018 H1037 0.930 . S
Eu1019 N1016 2.609 1_554 S
Eu1019 N1020 2.657 1_554 S
Eu1019 O1053 2.380 1_554 S
Eu1019 O1054 2.432 . S
Eu1019 O1058 2.558 . S
Eu1019 O1059 2.612 . S
Eu1019 O1061 2.339 . S
Eu1019 O1062 2.563 . S
Eu1019 O1063 2.419 . S
Eu1019 C1083 2.848 . S
N1020 C1012 1.362 . S
N1020 Eu1019 2.657 1_556 S
N1020 C1021 1.334 . S
C1021 N1020 1.334 . S
C1021 C1023 1.413 . S
C1021 H1028 0.929 . S
C1022 C1010 1.392 . S
C1022 C1023 1.367 . S
C1022 H1030 0.930 . S
C1023 C1021 1.413 . S
C1023 C1022 1.367 . S
C1023 H1025 0.930 . S
H1024 C1017 0.930 . S
H1025 C1023 0.930 . S
H1026 C1014 0.930 . S
H1027 C1015 0.930 . S
H1028 C1021 0.929 . S
H1029 C1043 0.930 . S
H1030 C1022 0.930 . S
H1031 C1049 0.930 . S
H1032 C1040 0.929 . S
H1033 C1047 0.930 . S
H1034 C1011 0.931 . S
H1035 C1041 0.930 . S
H1036 C1074 0.930 . S
H1037 C1018 0.930 . S
H1038 C1073 0.931 . S
N1039 Eu1008 2.657 . S
N1039 C1040 1.334 . S
N1039 C1044 1.362 . S
C1040 H1032 0.929 . S
C1040 N1039 1.334 . S
C1040 C1043 1.413 . S
C1041 H1035 0.930 . S
C1041 C1042 1.392 . S
C1041 C1043 1.367 . S
C1042 C1041 1.392 . S
C1042 C1044 1.420 . S
C1042 C1074 1.423 . S
C1043 H1029 0.930 . S
C1043 C1040 1.413 . S
C1043 C1041 1.367 . S
C1044 N1039 1.362 . S
C1044 C1042 1.420 . S
C1044 C1048 1.429 . S
H1045 C1050 0.930 . S
N1046 Eu1008 2.609 . S
N1046 C1048 1.377 . S
N1046 C1049 1.321 . S
C1047 H1033 0.930 . S
C1047 C1049 1.400 . S
C1047 C1050 1.386 . S
C1048 C1044 1.429 . S
C1048 N1046 1.377 . S
C1048 C1051 1.411 . S
C1049 H1031 0.930 . S
C1049 N1046 1.321 . S
C1049 C1047 1.400 . S
C1050 H1045 0.930 . S
C1050 C1047 1.386 . S
C1050 C1051 1.395 . S
C1051 C1048 1.411 . S
C1051 C1050 1.395 . S
C1051 C1073 1.420 . S
O1052 Eu1008 2.558 . S
O1052 C1072 1.257 . S
O1053 Eu1008 2.612 1_556 S
O1053 Eu1019 2.380 1_556 S
O1053 C1064 1.276 . S
O1054 Eu1019 2.432 . S
O1054 C1071 1.264 . S
O1055 Eu1008 2.339 . S
O1055 C1071 1.254 . S
O1056 Eu1008 2.563 1_556 S
O1056 C1064 1.235 . S
O1057 Eu1008 2.419 . S
O1057 C1072 1.249 . S
O1058 Eu1019 2.558 . S
O1058 C1083 1.257 . S
O1059 Eu1008 2.380 . S
O1059 Eu1019 2.612 . S
O1059 C1075 1.276 . S
O1060 Eu1008 2.432 . S
O1060 C1082 1.264 . S
O1061 Eu1019 2.339 . S
O1061 C1082 1.254 . S
O1062 Eu1019 2.563 . S
O1062 C1075 1.235 . S
O1063 Eu1019 2.419 . S
O1063 C1083 1.249 . S
C1064 O1053 1.276 . S
C1064 O1056 1.235 . S
C1065 C1067 1.393 . S
C1065 C1069 1.395 . S
C1065 C1072 1.492 . S
C1066 C1067 1.387 1_556 S
C1066 C1068 1.383 1_556 S
C1067 C1065 1.393 . S
C1067 C1066 1.387 1_554 S
C1067 H1084 0.930 . S
C1068 C1066 1.383 1_554 S
C1068 C1070 1.395 . S
C1068 H1085 0.930 . S
C1069 C1065 1.395 . S
C1069 C1070 1.379 . S
C1069 H1086 0.930 . S
C1070 C1068 1.395 . S
C1070 C1069 1.379 . S
C1070 H1087 0.930 . S
C1071 O1054 1.264 . S
C1071 O1055 1.254 . S
C1072 Eu1008 2.848 . S
C1072 O1052 1.257 . S
C1072 O1057 1.249 . S
C1072 C1065 1.492 . S
C1073 H1038 0.931 . S
C1073 C1051 1.420 . S
C1073 C1074 1.351 . S
C1074 H1036 0.930 . S
C1074 C1042 1.423 . S
C1074 C1073 1.351 . S
C1075 O1059 1.276 . S
C1075 O1062 1.235 . S
C1076 C1077 1.393 . S
C1076 C1080 1.395 . S
C1076 C1083 1.492 . S
C1077 C1076 1.393 . S
C1077 C1078 1.392 . S
C1077 H1088 0.930 . S
C1078 C1077 1.392 . S
C1078 C1079 1.386 . S
C1079 C1078 1.386 . S
C1079 C1081 1.395 . S
C1079 H1089 0.930 . S
C1080 C1076 1.395 . S
C1080 C1081 1.379 . S
C1080 H1090 0.930 . S
C1081 C1079 1.395 . S
C1081 C1080 1.379 . S
C1081 H1091 0.930 . S
C1082 O1060 1.264 . S
C1082 O1061 1.254 . S
C1083 Eu1019 2.848 . S
C1083 O1058 1.257 . S
C1083 O1063 1.249 . S
C1083 C1076 1.492 . S
H1084 C1067 0.930 . S
H1085 C1068 0.930 . S
H1086 C1069 0.930 . S
H1087 C1070 0.930 . S
H1088 C1077 0.930 . S
H1089 C1079 0.930 . S
H1090 C1080 0.930 . S
H1091 C1081 0.930 . S
Eu1092 N1123 2.657 . S
Eu1092 N1130 2.609 . S
Eu1092 O1136 2.558 . S
Eu1092 O1137 2.612 . S
Eu1092 O1139 2.339 . S
Eu1092 O1140 2.563 . S
Eu1092 O1141 2.419 . S
Eu1092 O1143 2.380 . S
Eu1092 O1144 2.432 . S
Eu1092 C1156 2.848 . S
C1093 C1096 1.429 . S
C1093 C1097 1.411 . S
C1093 N1100 1.377 . S
C1094 C1096 1.420 . S
C1094 C1098 1.423 . S
C1094 C1106 1.392 . S
C1095 C1097 1.420 . S
C1095 C1098 1.351 . S
C1095 H1118 0.931 . S
C1096 C1093 1.429 . S
C1096 C1094 1.420 . S
C1096 N1104 1.362 . S
C1097 C1093 1.411 . S
C1097 C1095 1.420 . S
C1097 C1102 1.395 . S
C1098 C1094 1.423 . S
C1098 C1095 1.351 . S
C1098 H1110 0.930 . S
C1099 C1101 1.400 . S
C1099 C1102 1.386 . S
C1099 H1111 0.930 . S
N1100 C1093 1.377 . S
N1100 C1101 1.321 . S
N1100 Eu1103 2.609 . S
C1101 C1099 1.400 . S
C1101 N1100 1.321 . S
C1101 H1108 0.930 . S
C1102 C1097 1.395 . S
C1102 C1099 1.386 . S
C1102 H1121 0.930 . S
Eu1103 N1100 2.609 . S
Eu1103 N1104 2.657 . S
Eu1103 O1137 2.380 . S
Eu1103 O1138 2.432 . S
Eu1103 O1142 2.558 . S
Eu1103 O1143 2.612 . S
Eu1103 O1145 2.339 . S
Eu1103 O1146 2.563 . S
Eu1103 O1147 2.419 . S
Eu1103 C1167 2.848 . S
N1104 C1096 1.362 . S
N1104 Eu1103 2.657 . S
N1104 C1105 1.334 . S
C1105 N1104 1.334 . S
C1105 C1107 1.413 . S
C1105 H1112 0.929 . S
C1106 C1094 1.392 . S
C1106 C1107 1.367 . S
C1106 H1114 0.930 . S
C1107 C1105 1.413 . S
C1107 C1106 1.367 . S
C1107 H1109 0.930 . S
H1108 C1101 0.930 . S
H1109 C1107 0.930 . S
H1110 C1098 0.930 . S
H1111 C1099 0.930 . S
H1112 C1105 0.929 . S
H1113 C1127 0.930 . S
H1114 C1106 0.930 . S
H1115 C1133 0.930 . S
H1116 C1124 0.929 . S
H1117 C1131 0.930 . S
H1118 C1095 0.931 . S
H1119 C1125 0.930 . S
H1120 C1158 0.930 . S
H1121 C1102 0.930 . S
H1122 C1157 0.931 . S
N1123 Eu1092 2.657 . S
N1123 C1124 1.334 . S
N1123 C1128 1.362 . S
C1124 H1116 0.929 . S
C1124 N1123 1.334 . S
C1124 C1127 1.413 . S
C1125 H1119 0.930 . S
C1125 C1126 1.392 . S
C1125 C1127 1.367 . S
C1126 C1125 1.392 . S
C1126 C1128 1.420 . S
C1126 C1158 1.423 . S
C1127 H1113 0.930 . S
C1127 C1124 1.413 . S
C1127 C1125 1.367 . S
C1128 N1123 1.362 . S
C1128 C1126 1.420 . S
C1128 C1132 1.429 . S
H1129 C1134 0.930 . S
N1130 Eu1092 2.609 . S
N1130 C1132 1.377 . S
N1130 C1133 1.321 . S
C1131 H1117 0.930 . S
C1131 C1133 1.400 . S
C1131 C1134 1.386 . S
C1132 C1128 1.429 . S
C1132 N1130 1.377 . S
C1132 C1135 1.411 . S
C1133 H1115 0.930 . S
C1133 N1130 1.321 . S
C1133 C1131 1.400 . S
C1134 H1129 0.930 . S
C1134 C1131 1.386 . S
C1134 C1135 1.395 . S
C1135 C1132 1.411 . S
C1135 C1134 1.395 . S
C1135 C1157 1.420 . S
O1136 Eu1092 2.558 . S
O1136 C1156 1.257 . S
O1137 Eu1092 2.612 . S
O1137 Eu1103 2.380 . S
O1137 C1148 1.276 . S
O1138 Eu1103 2.432 . S
O1138 C1155 1.264 . S
O1139 Eu1092 2.339 . S
O1139 C1155 1.254 . S
O1140 Eu1092 2.563 . S
O1140 C1148 1.235 . S
O1141 Eu1092 2.419 . S
O1141 C1156 1.249 . S
O1142 Eu1103 2.558 . S
O1142 C1167 1.257 . S
O1143 Eu1092 2.380 . S
O1143 Eu1103 2.612 . S
O1143 C1159 1.276 . S
O1144 Eu1092 2.432 . S
O1144 C1166 1.264 . S
O1145 Eu1103 2.339 . S
O1145 C1166 1.254 . S
O1146 Eu1103 2.563 . S
O1146 C1159 1.235 . S
O1147 Eu1103 2.419 . S
O1147 C1167 1.249 . S
C1148 O1137 1.276 . S
C1148 O1140 1.235 . S
C1149 C1151 1.393 . S
C1149 C1153 1.395 . S
C1149 C1156 1.492 . S
C1150 C1151 1.392 . S
C1150 C1152 1.386 . S
C1151 C1149 1.393 . S
C1151 C1150 1.392 . S
C1151 H1168 0.930 . S
C1152 C1150 1.386 . S
C1152 C1154 1.395 . S
C1152 H1169 0.930 . S
C1153 C1149 1.395 . S
C1153 C1154 1.379 . S
C1153 H1170 0.930 . S
C1154 C1152 1.395 . S
C1154 C1153 1.379 . S
C1154 H1171 0.930 . S
C1155 O1138 1.264 . S
C1155 O1139 1.254 . S
C1156 Eu1092 2.848 . S
C1156 O1136 1.257 . S
C1156 O1141 1.249 . S
C1156 C1149 1.492 . S
C1157 H1122 0.931 . S
C1157 C1135 1.420 . S
C1157 C1158 1.351 . S
C1158 H1120 0.930 . S
C1158 C1126 1.423 . S
C1158 C1157 1.351 . S
C1159 O1143 1.276 . S
C1159 O1146 1.235 . S
C1160 C1161 1.393 . S
C1160 C1164 1.395 . S
C1160 C1167 1.492 . S
C1161 C1160 1.393 . S
C1161 C1162 1.392 . S
C1161 H1172 0.930 . S
C1162 C1161 1.392 . S
C1162 C1163 1.386 . S
C1163 C1162 1.386 . S
C1163 C1165 1.395 . S
C1163 H1173 0.930 . S
C1164 C1160 1.395 . S
C1164 C1165 1.379 . S
C1164 H1174 0.930 . S
C1165 C1163 1.395 . S
C1165 C1164 1.379 . S
C1165 H1175 0.930 . S
C1166 O1144 1.264 . S
C1166 O1145 1.254 . S
C1167 Eu1103 2.848 . S
C1167 O1142 1.257 . S
C1167 O1147 1.249 . S
C1167 C1160 1.492 . S
H1168 C1151 0.930 . S
H1169 C1152 0.930 . S
H1170 C1153 0.930 . S
H1171 C1154 0.930 . S
H1172 C1161 0.930 . S
H1173 C1163 0.930 . S
H1174 C1164 0.930 . S
H1175 C1165 0.930 . S
Eu1176 N1207 2.657 . S
Eu1176 N1214 2.609 . S
Eu1176 O1220 2.558 . S
Eu1176 O1221 2.612 . S
Eu1176 O1223 2.339 . S
Eu1176 O1224 2.563 . S
Eu1176 O1225 2.419 . S
Eu1176 O1227 2.380 . S
Eu1176 O1228 2.432 . S
Eu1176 C1240 2.848 . S
C1177 C1180 1.429 . S
C1177 C1181 1.411 1_455 S
C1177 N1184 1.377 . S
C1178 C1180 1.420 1_655 S
C1178 C1182 1.423 . S
C1178 C1190 1.392 . S
C1179 C1181 1.420 . S
C1179 C1182 1.351 . S
C1179 H1202 0.931 . S
C1180 C1177 1.429 . S
C1180 C1178 1.420 1_455 S
C1180 N1188 1.362 . S
C1181 C1177 1.411 1_655 S
C1181 C1179 1.420 . S
C1181 C1186 1.395 . S
C1182 C1178 1.423 . S
C1182 C1179 1.351 . S
C1182 H1194 0.930 . S
C1183 C1185 1.400 . S
C1183 C1186 1.386 1_455 S
C1183 H1195 0.930 . S
N1184 C1177 1.377 . S
N1184 C1185 1.321 . S
N1184 Eu1187 2.609 . S
C1185 C1183 1.400 . S
C1185 N1184 1.321 . S
C1185 H1192 0.930 . S
C1186 C1181 1.395 . S
C1186 C1183 1.386 1_655 S
C1186 H1205 0.930 . S
Eu1187 N1184 2.609 . S
Eu1187 N1188 2.657 . S
Eu1187 O1221 2.380 . S
Eu1187 O1222 2.432 . S
Eu1187 O1226 2.558 . S
Eu1187 O1227 2.612 . S
Eu1187 O1229 2.339 . S
Eu1187 O1230 2.563 . S
Eu1187 O1231 2.419 . S
Eu1187 C1251 2.848 . S
N1188 C1180 1.362 . S
N1188 Eu1187 2.657 . S
N1188 C1189 1.334 . S
C1189 N1188 1.334 . S
C1189 C1191 1.413 1_455 S
C1189 H1196 0.929 . S
C1190 C1178 1.392 . S
C1190 C1191 1.367 . S
C1190 H1198 0.930 . S
C1191 C1189 1.413 1_655 S
C1191 C1190 1.367 . S
C1191 H1193 0.930 . S
H1192 C1185 0.930 . S
H1193 C1191 0.930 . S
H1194 C1182 0.930 . S
H1195 C1183 0.930 . S
H1196 C1189 0.929 . S
H1197 C1211 0.930 . S
H1198 C1190 0.930 . S
H1199 C1217 0.930 . S
H1200 C1208 0.929 . S
H1201 C1215 0.930 . S
H1202 C1179 0.931 . S
H1203 C1209 0.930 . S
H1204 C1242 0.930 . S
H1205 C1186 0.930 . S
H1206 C1241 0.931 . S
N1207 Eu1176 2.657 . S
N1207 C1208 1.334 . S
N1207 C1212 1.362 . S
C1208 H1200 0.929 . S
C1208 N1207 1.334 . S
C1208 C1211 1.413 . S
C1209 H1203 0.930 . S
C1209 C1210 1.392 . S
C1209 C1211 1.367 . S
C1210 C1209 1.392 . S
C1210 C1212 1.420 . S
C1210 C1242 1.423 . S
C1211 H1197 0.930 . S
C1211 C1208 1.413 . S
C1211 C1209 1.367 . S
C1212 N1207 1.362 . S
C1212 C1210 1.420 . S
C1212 C1216 1.429 . S
H1213 C1218 0.930 . S
N1214 Eu1176 2.609 . S
N1214 C1216 1.377 . S
N1214 C1217 1.321 . S
C1215 H1201 0.930 . S
C1215 C1217 1.400 . S
C1215 C1218 1.386 . S
C1216 C1212 1.429 . S
C1216 N1214 1.377 . S
C1216 C1219 1.411 . S
C1217 H1199 0.930 . S
C1217 N1214 1.321 . S
C1217 C1215 1.400 . S
C1218 H1213 0.930 . S
C1218 C1215 1.386 . S
C1218 C1219 1.395 . S
C1219 C1216 1.411 . S
C1219 C1218 1.395 . S
C1219 C1241 1.420 . S
O1220 Eu1176 2.558 . S
O1220 C1240 1.257 . S
O1221 Eu1176 2.612 . S
O1221 Eu1187 2.380 . S
O1221 C1232 1.276 . S
O1222 Eu1187 2.432 . S
O1222 C1239 1.264 . S
O1223 Eu1176 2.339 . S
O1223 C1239 1.254 . S
O1224 Eu1176 2.563 . S
O1224 C1232 1.235 . S
O1225 Eu1176 2.419 . S
O1225 C1240 1.249 . S
O1226 Eu1187 2.558 . S
O1226 C1251 1.257 . S
O1227 Eu1176 2.380 . S
O1227 Eu1187 2.612 . S
O1227 C1243 1.276 . S
O1228 Eu1176 2.432 . S
O1228 C1250 1.264 . S
O1229 Eu1187 2.339 . S
O1229 C1250 1.254 . S
O1230 Eu1187 2.563 . S
O1230 C1243 1.235 . S
O1231 Eu1187 2.419 . S
O1231 C1251 1.249 . S
C1232 O1221 1.276 . S
C1232 O1224 1.235 . S
C1233 C1235 1.393 . S
C1233 C1237 1.395 . S
C1233 C1240 1.492 . S
C1234 C1235 1.392 . S
C1234 C1236 1.386 . S
C1235 C1233 1.393 . S
C1235 C1234 1.392 . S
C1235 H1252 0.930 . S
C1236 C1234 1.386 . S
C1236 C1238 1.395 . S
C1236 H1253 0.930 . S
C1237 C1233 1.395 . S
C1237 C1238 1.379 . S
C1237 H1254 0.930 . S
C1238 C1236 1.395 . S
C1238 C1237 1.379 . S
C1238 H1255 0.930 . S
C1239 O1222 1.264 . S
C1239 O1223 1.254 . S
C1240 Eu1176 2.848 . S
C1240 O1220 1.257 . S
C1240 O1225 1.249 . S
C1240 C1233 1.492 . S
C1241 H1206 0.931 . S
C1241 C1219 1.420 . S
C1241 C1242 1.351 . S
C1242 H1204 0.930 . S
C1242 C1210 1.423 . S
C1242 C1241 1.351 . S
C1243 O1227 1.276 . S
C1243 O1230 1.235 . S
C1244 C1245 1.393 . S
C1244 C1248 1.395 . S
C1244 C1251 1.492 . S
C1245 C1244 1.393 . S
C1245 C1246 1.392 . S
C1245 H1256 0.930 . S
C1246 C1245 1.392 . S
C1246 C1247 1.386 . S
C1247 C1246 1.386 . S
C1247 C1249 1.395 . S
C1247 H1257 0.930 . S
C1248 C1244 1.395 . S
C1248 C1249 1.379 . S
C1248 H1258 0.930 . S
C1249 C1247 1.395 . S
C1249 C1248 1.379 . S
C1249 H1259 0.930 . S
C1250 O1228 1.264 . S
C1250 O1229 1.254 . S
C1251 Eu1187 2.848 . S
C1251 O1226 1.257 . S
C1251 O1231 1.249 . S
C1251 C1244 1.492 . S
H1252 C1235 0.930 . S
H1253 C1236 0.930 . S
H1254 C1237 0.930 . S
H1255 C1238 0.930 . S
H1256 C1245 0.930 . S
H1257 C1247 0.930 . S
H1258 C1248 0.930 . S
H1259 C1249 0.930 . S
Eu1260 N1291 2.657 . S
Eu1260 N1298 2.609 . S
Eu1260 O1304 2.558 . S
Eu1260 O1305 2.612 . S
Eu1260 O1307 2.339 . S
Eu1260 O1308 2.563 . S
Eu1260 O1309 2.419 . S
Eu1260 O1311 2.380 . S
Eu1260 O1312 2.432 . S
Eu1260 C1324 2.848 . S
C1261 C1264 1.429 . S
C1261 C1265 1.411 . S
C1261 N1268 1.377 . S
C1262 C1264 1.420 . S
C1262 C1266 1.423 . S
C1262 C1274 1.392 . S
C1263 C1265 1.420 . S
C1263 C1266 1.351 . S
C1263 H1286 0.931 . S
C1264 C1261 1.429 . S
C1264 C1262 1.420 . S
C1264 N1272 1.362 . S
C1265 C1261 1.411 . S
C1265 C1263 1.420 . S
C1265 C1270 1.395 . S
C1266 C1262 1.423 . S
C1266 C1263 1.351 . S
C1266 H1278 0.930 . S
C1267 C1269 1.400 . S
C1267 C1270 1.386 . S
C1267 H1279 0.930 . S
N1268 C1261 1.377 . S
N1268 C1269 1.321 . S
N1268 Eu1271 2.609 . S
C1269 C1267 1.400 . S
C1269 N1268 1.321 . S
C1269 H1276 0.930 . S
C1270 C1265 1.395 . S
C1270 C1267 1.386 . S
C1270 H1289 0.930 . S
Eu1271 N1268 2.609 . S
Eu1271 N1272 2.657 . S
Eu1271 O1305 2.380 . S
Eu1271 O1306 2.432 . S
Eu1271 O1310 2.558 . S
Eu1271 O1311 2.612 . S
Eu1271 O1313 2.339 . S
Eu1271 O1314 2.563 . S
Eu1271 O1315 2.419 . S
Eu1271 C1335 2.848 . S
N1272 C1264 1.362 . S
N1272 Eu1271 2.657 . S
N1272 C1273 1.334 . S
C1273 N1272 1.334 . S
C1273 C1275 1.413 . S
C1273 H1280 0.929 . S
C1274 C1262 1.392 . S
C1274 C1275 1.367 . S
C1274 H1282 0.930 . S
C1275 C1273 1.413 . S
C1275 C1274 1.367 . S
C1275 H1277 0.930 . S
H1276 C1269 0.930 . S
H1277 C1275 0.930 . S
H1278 C1266 0.930 . S
H1279 C1267 0.930 . S
H1280 C1273 0.929 . S
H1281 C1295 0.930 . S
H1282 C1274 0.930 . S
H1283 C1301 0.930 . S
H1284 C1292 0.929 . S
H1285 C1299 0.930 . S
H1286 C1263 0.931 . S
H1287 C1293 0.930 . S
H1288 C1326 0.930 . S
H1289 C1270 0.930 . S
H1290 C1325 0.931 . S
N1291 Eu1260 2.657 . S
N1291 C1292 1.334 . S
N1291 C1296 1.362 . S
C1292 H1284 0.929 . S
C1292 N1291 1.334 . S
C1292 C1295 1.413 . S
C1293 H1287 0.930 . S
C1293 C1294 1.392 . S
C1293 C1295 1.367 . S
C1294 C1293 1.392 . S
C1294 C1296 1.420 . S
C1294 C1326 1.423 . S
C1295 H1281 0.930 . S
C1295 C1292 1.413 . S
C1295 C1293 1.367 . S
C1296 N1291 1.362 . S
C1296 C1294 1.420 . S
C1296 C1300 1.429 . S
H1297 C1302 0.930 . S
N1298 Eu1260 2.609 . S
N1298 C1300 1.377 . S
N1298 C1301 1.321 . S
C1299 H1285 0.930 . S
C1299 C1301 1.400 . S
C1299 C1302 1.386 . S
C1300 C1296 1.429 . S
C1300 N1298 1.377 . S
C1300 C1303 1.411 . S
C1301 H1283 0.930 . S
C1301 N1298 1.321 . S
C1301 C1299 1.400 . S
C1302 H1297 0.930 . S
C1302 C1299 1.386 . S
C1302 C1303 1.395 . S
C1303 C1300 1.411 . S
C1303 C1302 1.395 . S
C1303 C1325 1.420 . S
O1304 Eu1260 2.558 . S
O1304 C1324 1.257 . S
O1305 Eu1260 2.612 . S
O1305 Eu1271 2.380 . S
O1305 C1316 1.276 . S
O1306 Eu1271 2.432 . S
O1306 C1323 1.264 . S
O1307 Eu1260 2.339 . S
O1307 C1323 1.254 . S
O1308 Eu1260 2.563 . S
O1308 C1316 1.235 . S
O1309 Eu1260 2.419 . S
O1309 C1324 1.249 . S
O1310 Eu1271 2.558 . S
O1310 C1335 1.257 . S
O1311 Eu1260 2.380 . S
O1311 Eu1271 2.612 . S
O1311 C1327 1.276 . S
O1312 Eu1260 2.432 . S
O1312 C1334 1.264 . S
O1313 Eu1271 2.339 . S
O1313 C1334 1.254 . S
O1314 Eu1271 2.563 . S
O1314 C1327 1.235 . S
O1315 Eu1271 2.419 . S
O1315 C1335 1.249 . S
C1316 O1305 1.276 . S
C1316 O1308 1.235 . S
C1317 C1319 1.393 . S
C1317 C1321 1.395 . S
C1317 C1324 1.492 . S
C1318 C1319 1.392 . S
C1318 C1320 1.386 . S
C1319 C1317 1.393 . S
C1319 C1318 1.392 . S
C1319 H1336 0.930 . S
C1320 C1318 1.386 . S
C1320 C1322 1.395 . S
C1320 H1337 0.930 . S
C1321 C1317 1.395 . S
C1321 C1322 1.379 . S
C1321 H1338 0.930 . S
C1322 C1320 1.395 . S
C1322 C1321 1.379 . S
C1322 H1339 0.930 . S
C1323 O1306 1.264 . S
C1323 O1307 1.254 . S
C1324 Eu1260 2.848 . S
C1324 O1304 1.257 . S
C1324 O1309 1.249 . S
C1324 C1317 1.492 . S
C1325 H1290 0.931 . S
C1325 C1303 1.420 . S
C1325 C1326 1.351 . S
C1326 H1288 0.930 . S
C1326 C1294 1.423 . S
C1326 C1325 1.351 . S
C1327 O1311 1.276 . S
C1327 O1314 1.235 . S
C1328 C1329 1.393 . S
C1328 C1332 1.395 . S
C1328 C1335 1.492 . S
C1329 C1328 1.393 . S
C1329 C1330 1.392 . S
C1329 H1340 0.930 . S
C1330 C1329 1.392 . S
C1330 C1331 1.386 . S
C1331 C1330 1.386 . S
C1331 C1333 1.395 . S
C1331 H1341 0.930 . S
C1332 C1328 1.395 . S
C1332 C1333 1.379 . S
C1332 H1342 0.930 . S
C1333 C1331 1.395 . S
C1333 C1332 1.379 . S
C1333 H1343 0.930 . S
C1334 O1312 1.264 . S
C1334 O1313 1.254 . S
C1335 Eu1271 2.848 . S
C1335 O1310 1.257 . S
C1335 O1315 1.249 . S
C1335 C1328 1.492 . S
H1336 C1319 0.930 . S
H1337 C1320 0.930 . S
H1338 C1321 0.930 . S
H1339 C1322 0.930 . S
H1340 C1329 0.930 . S
H1341 C1331 0.930 . S
H1342 C1332 0.930 . S
H1343 C1333 0.930 . S
Eu1344 N1375 2.657 . S
Eu1344 N1382 2.609 . S
Eu1344 O1388 2.558 . S
Eu1344 O1389 2.612 . S
Eu1344 O1391 2.339 . S
Eu1344 O1392 2.563 . S
Eu1344 O1393 2.419 . S
Eu1344 O1395 2.380 . S
Eu1344 O1396 2.432 . S
Eu1344 C1408 2.848 . S
C1345 C1348 1.429 . S
C1345 C1349 1.411 . S
C1345 N1352 1.377 . S
C1346 C1348 1.420 . S
C1346 C1350 1.423 . S
C1346 C1358 1.392 . S
C1347 C1349 1.420 . S
C1347 C1350 1.351 . S
C1347 H1370 0.931 . S
C1348 C1345 1.429 . S
C1348 C1346 1.420 . S
C1348 N1356 1.362 . S
C1349 C1345 1.411 . S
C1349 C1347 1.420 . S
C1349 C1354 1.395 . S
C1350 C1346 1.423 . S
C1350 C1347 1.351 . S
C1350 H1362 0.930 . S
C1351 C1353 1.400 . S
C1351 C1354 1.386 . S
C1351 H1363 0.930 . S
N1352 C1345 1.377 . S
N1352 C1353 1.321 . S
N1352 Eu1355 2.609 . S
C1353 C1351 1.400 . S
C1353 N1352 1.321 . S
C1353 H1360 0.930 . S
C1354 C1349 1.395 . S
C1354 C1351 1.386 . S
C1354 H1373 0.930 . S
Eu1355 N1352 2.609 . S
Eu1355 N1356 2.657 . S
Eu1355 O1389 2.380 . S
Eu1355 O1390 2.432 . S
Eu1355 O1394 2.558 . S
Eu1355 O1395 2.612 . S
Eu1355 O1397 2.339 . S
Eu1355 O1398 2.563 . S
Eu1355 O1399 2.419 . S
Eu1355 C1419 2.848 . S
N1356 C1348 1.362 . S
N1356 Eu1355 2.657 . S
N1356 C1357 1.334 . S
C1357 N1356 1.334 . S
C1357 C1359 1.413 . S
C1357 H1364 0.929 . S
C1358 C1346 1.392 . S
C1358 C1359 1.367 . S
C1358 H1366 0.930 . S
C1359 C1357 1.413 . S
C1359 C1358 1.367 . S
C1359 H1361 0.930 . S
H1360 C1353 0.930 . S
H1361 C1359 0.930 . S
H1362 C1350 0.930 . S
H1363 C1351 0.930 . S
H1364 C1357 0.929 . S
H1365 C1379 0.930 . S
H1366 C1358 0.930 . S
H1367 C1385 0.930 . S
H1368 C1376 0.929 . S
H1369 C1383 0.930 . S
H1370 C1347 0.931 . S
H1371 C1377 0.930 . S
H1372 C1410 0.930 . S
H1373 C1354 0.930 . S
H1374 C1409 0.931 . S
N1375 Eu1344 2.657 . S
N1375 C1376 1.334 . S
N1375 C1380 1.362 . S
C1376 H1368 0.929 . S
C1376 N1375 1.334 . S
C1376 C1379 1.413 . S
C1377 H1371 0.930 . S
C1377 C1378 1.392 . S
C1377 C1379 1.367 . S
C1378 C1377 1.392 . S
C1378 C1380 1.420 . S
C1378 C1410 1.423 . S
C1379 H1365 0.930 . S
C1379 C1376 1.413 . S
C1379 C1377 1.367 . S
C1380 N1375 1.362 . S
C1380 C1378 1.420 . S
C1380 C1384 1.429 . S
H1381 C1386 0.930 . S
N1382 Eu1344 2.609 . S
N1382 C1384 1.377 . S
N1382 C1385 1.321 . S
C1383 H1369 0.930 . S
C1383 C1385 1.400 . S
C1383 C1386 1.386 . S
C1384 C1380 1.429 . S
C1384 N1382 1.377 . S
C1384 C1387 1.411 . S
C1385 H1367 0.930 . S
C1385 N1382 1.321 . S
C1385 C1383 1.400 . S
C1386 H1381 0.930 . S
C1386 C1383 1.386 . S
C1386 C1387 1.395 . S
C1387 C1384 1.411 . S
C1387 C1386 1.395 . S
C1387 C1409 1.420 . S
O1388 Eu1344 2.558 . S
O1388 C1408 1.257 . S
O1389 Eu1344 2.612 . S
O1389 Eu1355 2.380 . S
O1389 C1400 1.276 . S
O1390 Eu1355 2.432 . S
O1390 C1407 1.264 . S
O1391 Eu1344 2.339 . S
O1391 C1407 1.254 . S
O1392 Eu1344 2.563 . S
O1392 C1400 1.235 . S
O1393 Eu1344 2.419 . S
O1393 C1408 1.249 . S
O1394 Eu1355 2.558 . S
O1394 C1419 1.257 . S
O1395 Eu1344 2.380 . S
O1395 Eu1355 2.612 . S
O1395 C1411 1.276 . S
O1396 Eu1344 2.432 . S
O1396 C1418 1.264 . S
O1397 Eu1355 2.339 . S
O1397 C1418 1.254 . S
O1398 Eu1355 2.563 . S
O1398 C1411 1.235 . S
O1399 Eu1355 2.419 . S
O1399 C1419 1.249 . S
C1400 O1389 1.276 . S
C1400 O1392 1.235 . S
C1401 C1403 1.393 . S
C1401 C1405 1.395 . S
C1401 C1408 1.492 . S
C1402 C1403 1.392 . S
C1402 C1404 1.386 . S
C1403 C1401 1.393 . S
C1403 C1402 1.392 . S
C1403 H1420 0.930 . S
C1404 C1402 1.386 . S
C1404 C1406 1.395 . S
C1404 H1421 0.930 . S
C1405 C1401 1.395 . S
C1405 C1406 1.379 . S
C1405 H1422 0.930 . S
C1406 C1404 1.395 . S
C1406 C1405 1.379 . S
C1406 H1423 0.930 . S
C1407 O1390 1.264 . S
C1407 O1391 1.254 . S
C1408 Eu1344 2.848 . S
C1408 O1388 1.257 . S
C1408 O1393 1.249 . S
C1408 C1401 1.492 . S
C1409 H1374 0.931 . S
C1409 C1387 1.420 . S
C1409 C1410 1.351 . S
C1410 H1372 0.930 . S
C1410 C1378 1.423 . S
C1410 C1409 1.351 . S
C1411 O1395 1.276 . S
C1411 O1398 1.235 . S
C1412 C1413 1.393 . S
C1412 C1416 1.395 . S
C1412 C1419 1.492 . S
C1413 C1412 1.393 . S
C1413 C1414 1.392 . S
C1413 H1424 0.930 . S
C1414 C1413 1.392 . S
C1414 C1415 1.386 . S
C1415 C1414 1.386 . S
C1415 C1417 1.395 . S
C1415 H1425 0.930 . S
C1416 C1412 1.395 . S
C1416 C1417 1.379 . S
C1416 H1426 0.930 . S
C1417 C1415 1.395 . S
C1417 C1416 1.379 . S
C1417 H1427 0.930 . S
C1418 O1396 1.264 . S
C1418 O1397 1.254 . S
C1419 Eu1355 2.848 . S
C1419 O1394 1.257 . S
C1419 O1399 1.249 . S
C1419 C1412 1.492 . S
H1420 C1403 0.930 . S
H1421 C1404 0.930 . S
H1422 C1405 0.930 . S
H1423 C1406 0.930 . S
H1424 C1413 0.930 . S
H1425 C1415 0.930 . S
H1426 C1416 0.930 . S
H1427 C1417 0.930 . S
Eu1428 N1459 2.657 . S
Eu1428 N1466 2.609 . S
Eu1428 O1472 2.558 . S
Eu1428 O1473 2.612 . S
Eu1428 O1475 2.339 . S
Eu1428 O1476 2.563 . S
Eu1428 O1477 2.419 . S
Eu1428 O1479 2.380 . S
Eu1428 O1480 2.432 . S
Eu1428 C1492 2.848 . S
C1429 C1432 1.429 . S
C1429 C1433 1.411 . S
C1429 N1436 1.377 . S
C1430 C1432 1.420 . S
C1430 C1434 1.423 . S
C1430 C1442 1.392 . S
C1431 C1433 1.420 . S
C1431 C1434 1.351 . S
C1431 H1454 0.931 . S
C1432 C1429 1.429 . S
C1432 C1430 1.420 . S
C1432 N1440 1.362 . S
C1433 C1429 1.411 . S
C1433 C1431 1.420 . S
C1433 C1438 1.395 . S
C1434 C1430 1.423 . S
C1434 C1431 1.351 . S
C1434 H1446 0.930 . S
C1435 C1437 1.400 . S
C1435 C1438 1.386 . S
C1435 H1447 0.930 . S
N1436 C1429 1.377 . S
N1436 C1437 1.321 . S
N1436 Eu1439 2.609 . S
C1437 C1435 1.400 . S
C1437 N1436 1.321 . S
C1437 H1444 0.930 . S
C1438 C1433 1.395 . S
C1438 C1435 1.386 . S
C1438 H1457 0.930 . S
Eu1439 N1436 2.609 . S
Eu1439 N1440 2.657 . S
Eu1439 O1473 2.380 . S
Eu1439 O1474 2.432 . S
Eu1439 O1478 2.558 . S
Eu1439 O1479 2.612 . S
Eu1439 O1481 2.339 . S
Eu1439 O1482 2.563 . S
Eu1439 O1483 2.419 . S
Eu1439 C1503 2.848 . S
N1440 C1432 1.362 . S
N1440 Eu1439 2.657 . S
N1440 C1441 1.334 . S
C1441 N1440 1.334 . S
C1441 C1443 1.413 . S
C1441 H1448 0.929 . S
C1442 C1430 1.392 . S
C1442 C1443 1.367 . S
C1442 H1450 0.930 . S
C1443 C1441 1.413 . S
C1443 C1442 1.367 . S
C1443 H1445 0.930 . S
H1444 C1437 0.930 . S
H1445 C1443 0.930 . S
H1446 C1434 0.930 . S
H1447 C1435 0.930 . S
H1448 C1441 0.929 . S
H1449 C1463 0.930 . S
H1450 C1442 0.930 . S
H1451 C1469 0.930 . S
H1452 C1460 0.929 . S
H1453 C1467 0.930 . S
H1454 C1431 0.931 . S
H1455 C1461 0.930 . S
H1456 C1494 0.930 . S
H1457 C1438 0.930 . S
H1458 C1493 0.931 . S
N1459 Eu1428 2.657 . S
N1459 C1460 1.334 . S
N1459 C1464 1.362 . S
C1460 H1452 0.929 . S
C1460 N1459 1.334 . S
C1460 C1463 1.413 . S
C1461 H1455 0.930 . S
C1461 C1462 1.392 . S
C1461 C1463 1.367 . S
C1462 C1461 1.392 . S
C1462 C1464 1.420 . S
C1462 C1494 1.423 . S
C1463 H1449 0.930 . S
C1463 C1460 1.413 . S
C1463 C1461 1.367 . S
C1464 N1459 1.362 . S
C1464 C1462 1.420 . S
C1464 C1468 1.429 . S
H1465 C1470 0.930 . S
N1466 Eu1428 2.609 . S
N1466 C1468 1.377 . S
N1466 C1469 1.321 . S
C1467 H1453 0.930 . S
C1467 C1469 1.400 . S
C1467 C1470 1.386 . S
C1468 C1464 1.429 . S
C1468 N1466 1.377 . S
C1468 C1471 1.411 . S
C1469 H1451 0.930 . S
C1469 N1466 1.321 . S
C1469 C1467 1.400 . S
C1470 H1465 0.930 . S
C1470 C1467 1.386 . S
C1470 C1471 1.395 . S
C1471 C1468 1.411 . S
C1471 C1470 1.395 . S
C1471 C1493 1.420 . S
O1472 Eu1428 2.558 . S
O1472 C1492 1.257 . S
O1473 Eu1428 2.612 . S
O1473 Eu1439 2.380 . S
O1473 C1484 1.276 . S
O1474 Eu1439 2.432 . S
O1474 C1491 1.264 . S
O1475 Eu1428 2.339 . S
O1475 C1491 1.254 . S
O1476 Eu1428 2.563 . S
O1476 C1484 1.235 . S
O1477 Eu1428 2.419 . S
O1477 C1492 1.249 . S
O1478 Eu1439 2.558 . S
O1478 C1503 1.257 . S
O1479 Eu1428 2.380 . S
O1479 Eu1439 2.612 . S
O1479 C1495 1.276 . S
O1480 Eu1428 2.432 . S
O1480 C1502 1.264 . S
O1481 Eu1439 2.339 . S
O1481 C1502 1.254 . S
O1482 Eu1439 2.563 . S
O1482 C1495 1.235 . S
O1483 Eu1439 2.419 . S
O1483 C1503 1.249 . S
C1484 O1473 1.276 . S
C1484 O1476 1.235 . S
C1485 C1487 1.393 . S
C1485 C1489 1.395 . S
C1485 C1492 1.492 . S
C1486 C1487 1.392 . S
C1486 C1488 1.386 . S
C1487 C1485 1.393 . S
C1487 C1486 1.392 . S
C1487 H1504 0.930 . S
C1488 C1486 1.386 . S
C1488 C1490 1.395 . S
C1488 H1505 0.930 . S
C1489 C1485 1.395 . S
C1489 C1490 1.379 . S
C1489 H1506 0.930 . S
C1490 C1488 1.395 . S
C1490 C1489 1.379 . S
C1490 H1507 0.930 . S
C1491 O1474 1.264 . S
C1491 O1475 1.254 . S
C1492 Eu1428 2.848 . S
C1492 O1472 1.257 . S
C1492 O1477 1.249 . S
C1492 C1485 1.492 . S
C1493 H1458 0.931 . S
C1493 C1471 1.420 . S
C1493 C1494 1.351 . S
C1494 H1456 0.930 . S
C1494 C1462 1.423 . S
C1494 C1493 1.351 . S
C1495 O1479 1.276 . S
C1495 O1482 1.235 . S
C1496 C1497 1.393 . S
C1496 C1500 1.395 . S
C1496 C1503 1.492 . S
C1497 C1496 1.393 . S
C1497 C1498 1.392 . S
C1497 H1508 0.930 . S
C1498 C1497 1.392 . S
C1498 C1499 1.386 . S
C1499 C1498 1.386 . S
C1499 C1501 1.395 . S
C1499 H1509 0.930 . S
C1500 C1496 1.395 . S
C1500 C1501 1.379 . S
C1500 H1510 0.930 . S
C1501 C1499 1.395 . S
C1501 C1500 1.379 . S
C1501 H1511 0.930 . S
C1502 O1480 1.264 . S
C1502 O1481 1.254 . S
C1503 Eu1439 2.848 . S
C1503 O1478 1.257 . S
C1503 O1483 1.249 . S
C1503 C1496 1.492 . S
H1504 C1487 0.930 . S
H1505 C1488 0.930 . S
H1506 C1489 0.930 . S
H1507 C1490 0.930 . S
H1508 C1497 0.930 . S
H1509 C1499 0.930 . S
H1510 C1500 0.930 . S
H1511 C1501 0.930 . S
Eu1512 N1543 2.657 . S
Eu1512 N1550 2.609 . S
Eu1512 O1556 2.558 . S
Eu1512 O1557 2.612 . S
Eu1512 O1559 2.339 . S
Eu1512 O1560 2.563 . S
Eu1512 O1561 2.419 . S
Eu1512 O1563 2.380 . S
Eu1512 O1564 2.432 . S
Eu1512 C1576 2.848 . S
C1513 C1516 1.429 . S
C1513 C1517 1.411 . S
C1513 N1520 1.377 . S
C1514 C1516 1.420 . S
C1514 C1518 1.423 . S
C1514 C1526 1.392 . S
C1515 C1517 1.420 . S
C1515 C1518 1.351 . S
C1515 H1538 0.931 . S
C1516 C1513 1.429 . S
C1516 C1514 1.420 . S
C1516 N1524 1.362 . S
C1517 C1513 1.411 . S
C1517 C1515 1.420 . S
C1517 C1522 1.395 . S
C1518 C1514 1.423 . S
C1518 C1515 1.351 . S
C1518 H1530 0.930 . S
C1519 C1521 1.400 . S
C1519 C1522 1.386 . S
C1519 H1531 0.930 . S
N1520 C1513 1.377 . S
N1520 C1521 1.321 . S
N1520 Eu1523 2.609 . S
C1521 C1519 1.400 . S
C1521 N1520 1.321 . S
C1521 H1528 0.930 . S
C1522 C1517 1.395 . S
C1522 C1519 1.386 . S
C1522 H1541 0.930 . S
Eu1523 N1520 2.609 . S
Eu1523 N1524 2.657 . S
Eu1523 O1557 2.380 . S
Eu1523 O1558 2.432 . S
Eu1523 O1562 2.558 . S
Eu1523 O1563 2.612 . S
Eu1523 O1565 2.339 . S
Eu1523 O1566 2.563 . S
Eu1523 O1567 2.419 . S
Eu1523 C1587 2.848 . S
N1524 C1516 1.362 . S
N1524 Eu1523 2.657 . S
N1524 C1525 1.334 . S
C1525 N1524 1.334 . S
C1525 C1527 1.413 . S
C1525 H1532 0.929 . S
C1526 C1514 1.392 . S
C1526 C1527 1.367 . S
C1526 H1534 0.930 . S
C1527 C1525 1.413 . S
C1527 C1526 1.367 . S
C1527 H1529 0.930 . S
H1528 C1521 0.930 . S
H1529 C1527 0.930 . S
H1530 C1518 0.930 . S
H1531 C1519 0.930 . S
H1532 C1525 0.929 . S
H1533 C1547 0.930 . S
H1534 C1526 0.930 . S
H1535 C1553 0.930 . S
H1536 C1544 0.929 . S
H1537 C1551 0.930 . S
H1538 C1515 0.931 . S
H1539 C1545 0.930 . S
H1540 C1578 0.930 . S
H1541 C1522 0.930 . S
H1542 C1577 0.931 . S
N1543 Eu1512 2.657 . S
N1543 C1544 1.334 . S
N1543 C1548 1.362 . S
C1544 H1536 0.929 . S
C1544 N1543 1.334 . S
C1544 C1547 1.413 . S
C1545 H1539 0.930 . S
C1545 C1546 1.392 . S
C1545 C1547 1.367 . S
C1546 C1545 1.392 . S
C1546 C1548 1.420 . S
C1546 C1578 1.423 . S
C1547 H1533 0.930 . S
C1547 C1544 1.413 . S
C1547 C1545 1.367 . S
C1548 N1543 1.362 . S
C1548 C1546 1.420 . S
C1548 C1552 1.429 . S
H1549 C1554 0.930 . S
N1550 Eu1512 2.609 . S
N1550 C1552 1.377 . S
N1550 C1553 1.321 . S
C1551 H1537 0.930 . S
C1551 C1553 1.400 . S
C1551 C1554 1.386 . S
C1552 C1548 1.429 . S
C1552 N1550 1.377 . S
C1552 C1555 1.411 . S
C1553 H1535 0.930 . S
C1553 N1550 1.321 . S
C1553 C1551 1.400 . S
C1554 H1549 0.930 . S
C1554 C1551 1.386 . S
C1554 C1555 1.395 . S
C1555 C1552 1.411 . S
C1555 C1554 1.395 . S
C1555 C1577 1.420 . S
O1556 Eu1512 2.558 . S
O1556 C1576 1.257 . S
O1557 Eu1512 2.612 . S
O1557 Eu1523 2.380 . S
O1557 C1568 1.276 . S
O1558 Eu1523 2.432 . S
O1558 C1575 1.264 . S
O1559 Eu1512 2.339 . S
O1559 C1575 1.254 . S
O1560 Eu1512 2.563 . S
O1560 C1568 1.235 . S
O1561 Eu1512 2.419 . S
O1561 C1576 1.249 . S
O1562 Eu1523 2.558 . S
O1562 C1587 1.257 . S
O1563 Eu1512 2.380 . S
O1563 Eu1523 2.612 . S
O1563 C1579 1.276 . S
O1564 Eu1512 2.432 . S
O1564 C1586 1.264 . S
O1565 Eu1523 2.339 . S
O1565 C1586 1.254 . S
O1566 Eu1523 2.563 . S
O1566 C1579 1.235 . S
O1567 Eu1523 2.419 . S
O1567 C1587 1.249 . S
C1568 O1557 1.276 . S
C1568 O1560 1.235 . S
C1569 C1571 1.393 . S
C1569 C1573 1.395 . S
C1569 C1576 1.492 . S
C1570 C1571 1.392 . S
C1570 C1572 1.386 . S
C1571 C1569 1.393 . S
C1571 C1570 1.392 . S
C1571 H1588 0.930 . S
C1572 C1570 1.386 . S
C1572 C1574 1.395 . S
C1572 H1589 0.930 . S
C1573 C1569 1.395 . S
C1573 C1574 1.379 . S
C1573 H1590 0.930 . S
C1574 C1572 1.395 . S
C1574 C1573 1.379 . S
C1574 H1591 0.930 . S
C1575 O1558 1.264 . S
C1575 O1559 1.254 . S
C1576 Eu1512 2.848 . S
C1576 O1556 1.257 . S
C1576 O1561 1.249 . S
C1576 C1569 1.492 . S
C1577 H1542 0.931 . S
C1577 C1555 1.420 . S
C1577 C1578 1.351 . S
C1578 H1540 0.930 . S
C1578 C1546 1.423 . S
C1578 C1577 1.351 . S
C1579 O1563 1.276 . S
C1579 O1566 1.235 . S
C1580 C1581 1.393 . S
C1580 C1584 1.395 . S
C1580 C1587 1.492 . S
C1581 C1580 1.393 . S
C1581 C1582 1.392 . S
C1581 H1592 0.930 . S
C1582 C1581 1.392 . S
C1582 C1583 1.386 . S
C1583 C1582 1.386 . S
C1583 C1585 1.395 . S
C1583 H1593 0.930 . S
C1584 C1580 1.395 . S
C1584 C1585 1.379 . S
C1584 H1594 0.930 . S
C1585 C1583 1.395 . S
C1585 C1584 1.379 . S
C1585 H1595 0.930 . S
C1586 O1564 1.264 . S
C1586 O1565 1.254 . S
C1587 Eu1523 2.848 . S
C1587 O1562 1.257 . S
C1587 O1567 1.249 . S
C1587 C1580 1.492 . S
H1588 C1571 0.930 . S
H1589 C1572 0.930 . S
H1590 C1573 0.930 . S
H1591 C1574 0.930 . S
H1592 C1581 0.930 . S
H1593 C1583 0.930 . S
H1594 C1584 0.930 . S
H1595 C1585 0.930 . S
Eu1596 N1627 2.657 . S
Eu1596 N1634 2.609 1_554 S
Eu1596 O1640 2.558 1_554 S
Eu1596 O1641 2.612 . S
Eu1596 O1643 2.339 . S
Eu1596 O1644 2.563 . S
Eu1596 O1645 2.419 . S
Eu1596 O1647 2.380 . S
Eu1596 O1648 2.432 1_554 S
Eu1596 C1660 2.837 1_554 S
C1597 C1600 1.429 . S
C1597 C1601 1.411 . S
C1597 N1604 1.377 1_655 S
C1598 C1600 1.420 . S
C1598 C1602 1.423 . S
C1598 C1610 1.392 1_554 S
C1599 C1601 1.420 . S
C1599 C1602 1.351 . S
C1599 H1622 0.931 . S
C1600 C1597 1.429 . S
C1600 C1598 1.420 . S
C1600 N1608 1.362 1_655 S
C1601 C1597 1.411 . S
C1601 C1599 1.420 . S
C1601 C1606 1.395 . S
C1602 C1598 1.423 . S
C1602 C1599 1.351 . S
C1602 H1614 0.930 . S
C1603 C1605 1.400 . S
C1603 C1606 1.386 1_455 S
C1603 H1615 0.930 . S
N1604 C1597 1.377 1_455 S
N1604 C1605 1.321 . S
N1604 Eu1607 2.609 . S
C1605 C1603 1.400 . S
C1605 N1604 1.321 . S
C1605 H1612 0.930 . S
C1606 C1601 1.395 . S
C1606 C1603 1.386 1_655 S
C1606 H1625 0.930 . S
Eu1607 N1604 2.609 . S
Eu1607 N1608 2.657 . S
Eu1607 O1641 2.380 . S
Eu1607 O1642 2.432 . S
Eu1607 O1646 2.558 . S
Eu1607 O1647 2.612 . S
Eu1607 O1649 2.339 1_554 S
Eu1607 O1650 2.563 . S
Eu1607 O1651 2.419 1_455 S
Eu1607 C1671 2.848 1_455 S
N1608 C1600 1.362 1_455 S
N1608 Eu1607 2.657 . S
N1608 C1609 1.334 1_554 S
C1609 N1608 1.334 1_556 S
C1609 C1611 1.415 1_455 S
C1609 H1616 0.927 . S
C1610 C1598 1.392 1_556 S
C1610 C1611 1.367 . S
C1610 H1618 0.930 . S
C1611 C1609 1.415 1_655 S
C1611 C1610 1.367 . S
C1611 H1613 0.930 . S
H1612 C1605 0.930 . S
H1613 C1611 0.930 . S
H1614 C1602 0.930 . S
H1615 C1603 0.930 . S
H1616 C1609 0.927 . S
H1617 C1631 0.930 . S
H1618 C1610 0.930 . S
H1619 C1637 0.930 . S
H1620 C1628 0.929 . S
H1621 C1635 0.930 . S
H1622 C1599 0.931 . S
H1623 C1629 0.930 . S
H1624 C1662 0.930 . S
H1625 C1606 0.930 . S
H1626 C1661 0.931 . S
N1627 Eu1596 2.657 . S
N1627 C1628 1.334 . S
N1627 C1632 1.362 . S
C1628 H1620 0.929 . S
C1628 N1627 1.334 . S
C1628 C1631 1.413 . S
C1629 H1623 0.930 . S
C1629 C1630 1.392 . S
C1629 C1631 1.367 . S
C1630 C1629 1.392 . S
C1630 C1632 1.420 . S
C1630 C1662 1.423 . S
C1631 H1617 0.930 . S
C1631 C1628 1.413 . S
C1631 C1629 1.367 . S
C1632 N1627 1.362 . S
C1632 C1630 1.420 . S
C1632 C1636 1.429 1_554 S
H1633 C1638 0.930 . S
N1634 Eu1596 2.609 1_556 S
N1634 C1636 1.377 . S
N1634 C1637 1.321 . S
C1635 H1621 0.930 . S
C1635 C1637 1.400 . S
C1635 C1638 1.386 . S
C1636 C1632 1.429 1_556 S
C1636 N1634 1.377 . S
C1636 C1639 1.411 . S
C1637 H1619 0.930 . S
C1637 N1634 1.321 . S
C1637 C1635 1.400 . S
C1638 H1633 0.930 . S
C1638 C1635 1.386 . S
C1638 C1639 1.395 . S
C1639 C1636 1.411 . S
C1639 C1638 1.395 . S
C1639 C1661 1.420 . S
O1640 Eu1596 2.558 1_556 S
O1640 C1660 1.295 . S
O1641 Eu1596 2.612 . S
O1641 Eu1607 2.380 . S
O1641 C1652 1.276 . S
O1642 Eu1607 2.432 . S
O1642 C1659 1.264 . S
O1643 Eu1596 2.339 . S
O1643 C1659 1.254 . S
O1644 Eu1596 2.563 . S
O1644 C1652 1.235 . S
O1645 Eu1596 2.419 . S
O1645 C1660 1.203 1_554 S
O1646 Eu1607 2.558 . S
O1646 C1671 1.257 1_455 S
O1647 Eu1596 2.380 . S
O1647 Eu1607 2.612 . S
O1647 C1663 1.276 . S
O1648 Eu1596 2.432 1_556 S
O1648 C1670 1.264 . S
O1649 Eu1607 2.339 1_556 S
O1649 C1670 1.254 . S
O1650 Eu1607 2.563 . S
O1650 C1663 1.235 . S
O1651 Eu1607 2.419 1_655 S
O1651 C1671 1.249 . S
C1652 O1641 1.276 . S
C1652 O1644 1.235 . S
C1653 C1655 1.393 1_556 S
C1653 C1657 1.395 . S
C1653 C1660 1.501 . S
C1654 C1655 1.392 . S
C1654 C1656 1.386 1_554 S
C1655 C1653 1.393 1_554 S
C1655 C1654 1.392 . S
C1655 H1672 0.930 . S
C1656 C1654 1.386 1_556 S
C1656 C1658 1.395 . S
C1656 H1673 0.930 . S
C1657 C1653 1.395 . S
C1657 C1658 1.379 . S
C1657 H1674 0.930 . S
C1658 C1656 1.395 . S
C1658 C1657 1.379 . S
C1658 H1675 0.930 . S
C1659 O1642 1.264 . S
C1659 O1643 1.254 . S
C1660 Eu1596 2.837 1_556 S
C1660 O1640 1.295 . S
C1660 O1645 1.203 1_556 S
C1660 C1653 1.501 . S
C1661 H1626 0.931 . S
C1661 C1639 1.420 . S
C1661 C1662 1.351 1_556 S
C1662 H1624 0.930 . S
C1662 C1630 1.423 . S
C1662 C1661 1.351 1_554 S
C1663 O1647 1.276 . S
C1663 O1650 1.235 . S
C1664 C1665 1.393 . S
C1664 C1668 1.395 . S
C1664 C1671 1.492 . S
C1665 C1664 1.393 . S
C1665 C1666 1.392 . S
C1665 H1676 0.930 . S
C1666 C1665 1.392 . S
C1666 C1667 1.386 . S
C1667 C1666 1.386 . S
C1667 C1669 1.395 . S
C1667 H1677 0.930 . S
C1668 C1664 1.395 . S
C1668 C1669 1.379 . S
C1668 H1678 0.930 . S
C1669 C1667 1.395 . S
C1669 C1668 1.379 . S
C1669 H1679 0.930 . S
C1670 O1648 1.264 . S
C1670 O1649 1.254 . S
C1671 Eu1607 2.848 1_655 S
C1671 O1646 1.257 1_655 S
C1671 O1651 1.249 . S
C1671 C1664 1.492 . S
H1672 C1655 0.930 . S
H1673 C1656 0.930 . S
H1674 C1657 0.930 . S
H1675 C1658 0.930 . S
H1676 C1665 0.930 . S
H1677 C1667 0.930 . S
H1678 C1668 0.930 . S
H1679 C1669 0.930 . S
H1680 C1698 0.951 . S
H1681 C1700 0.951 . S
H1682 C1702 0.950 . S
H1683 C1703 0.950 . S
H1684 C1705 0.950 . S
H1685 C1708 0.950 . S
H1686 C1709 0.950 . S
H1687 C1711 0.911 1_554 S
H1688 C1712 0.962 . S
H1689 C1713 0.951 . S
H1690 C1715 0.951 . S
H1691 C1717 0.950 . S
H1692 C1718 0.950 . S
H1693 C1720 0.975 . S
H1694 C1723 0.950 1_455 S
H1695 C1724 0.950 . S
H1696 C1726 0.950 . S
H1697 C1727 0.950 . S
C1698 H1680 0.951 . S
C1698 C1699 1.366 . S
C1698 C1700 1.388 . S
C1699 C1698 1.366 . S
C1699 C1703 1.385 . S
C1700 H1681 0.951 . S
C1700 C1698 1.388 . S
C1700 C1701 1.366 . S
C1701 C1700 1.366 . S
C1701 C1702 1.414 . S
C1701 C1704 1.499 . S
C1702 H1682 0.950 . S
C1702 C1701 1.414 . S
C1702 C1703 1.374 . S
C1703 H1683 0.950 . S
C1703 C1699 1.385 . S
C1703 C1702 1.374 . S
C1704 C1701 1.499 . S
C1704 C1705 1.373 . S
C1704 C1706 1.389 . S
C1705 H1684 0.950 . S
C1705 C1704 1.373 . S
C1705 C1721 1.377 . S
C1706 C1704 1.389 . S
C1706 C1707 1.524 . S
C1706 C1720 1.377 . S
C1707 C1706 1.524 . S
C1707 C1708 1.397 . S
C1707 C1712 1.354 1_556 S
C1708 H1685 0.950 . S
C1708 C1707 1.397 . S
C1708 C1709 1.334 . S
C1709 H1686 0.950 . S
C1709 C1708 1.334 . S
C1709 C1710 1.287 . S
C1710 C1709 1.287 . S
C1710 C1711 1.584 . S
C1710 H1729 0.913 . S
C1711 H1687 0.911 1_556 S
C1711 C1710 1.584 . S
C1711 C1712 1.400 1_556 S
C1712 H1688 0.962 . S
C1712 C1707 1.354 1_554 S
C1712 C1711 1.400 1_554 S
C1713 H1689 0.951 . S
C1713 C1714 1.366 1_556 S
C1713 C1715 1.388 . S
C1714 C1713 1.366 1_554 S
C1714 C1718 1.385 . S
C1715 H1690 0.951 . S
C1715 C1713 1.388 . S
C1715 C1716 1.366 1_556 S
C1716 C1715 1.366 1_554 S
C1716 C1717 1.414 . S
C1716 C1719 1.499 1_554 S
C1717 H1691 0.950 . S
C1717 C1716 1.414 . S
C1717 C1718 1.374 . S
C1718 H1692 0.950 . S
C1718 C1714 1.385 . S
C1718 C1717 1.374 . S
C1719 C1716 1.499 1_556 S
C1719 C1720 1.373 . S
C1719 C1721 1.389 . S
C1720 H1693 0.975 . S
C1720 C1706 1.377 . S
C1720 C1719 1.373 . S
C1721 C1705 1.377 . S
C1721 C1719 1.389 . S
C1721 C1722 1.524 1_455 S
C1722 C1721 1.524 1_655 S
C1722 C1723 1.397 1_556 S
C1722 C1727 1.363 . S
C1723 H1694 0.950 1_655 S
C1723 C1722 1.397 1_554 S
C1723 C1724 1.334 . S
C1724 H1695 0.950 . S
C1724 C1723 1.334 . S
C1724 C1725 1.287 1_554 S
C1725 C1724 1.287 1_556 S
C1725 C1726 1.524 . S
C1725 H1728 0.999 . S
C1726 H1696 0.950 . S
C1726 C1725 1.524 . S
C1726 C1727 1.415 . S
C1727 H1697 0.950 . S
C1727 C1722 1.363 . S
C1727 C1726 1.415 . S
H1728 C1725 0.999 . S
H1729 C1710 0.913 . S
H1730 C1748 0.951 . S
H1731 C1750 0.951 . S
H1732 C1752 0.950 . S
H1733 C1753 0.950 . S
H1734 C1755 0.950 . S
H1735 C1758 0.950 . S
H1736 C1759 0.950 . S
H1737 C1761 0.950 . S
H1738 C1762 0.950 . S
H1739 C1763 0.951 . S
H1740 C1765 0.951 . S
H1741 C1767 0.950 . S
H1742 C1768 0.950 . S
H1743 C1770 0.950 . S
H1744 C1773 0.950 . S
H1745 C1774 0.950 . S
H1746 C1776 0.950 . S
H1747 C1777 0.950 . S
C1748 H1730 0.951 . S
C1748 C1749 1.366 . S
C1748 C1750 1.388 . S
C1749 C1748 1.366 . S
C1749 C1753 1.385 . S
C1750 H1731 0.951 . S
C1750 C1748 1.388 . S
C1750 C1751 1.366 . S
C1751 C1750 1.366 . S
C1751 C1752 1.414 . S
C1751 C1754 1.499 . S
C1752 H1732 0.950 . S
C1752 C1751 1.414 . S
C1752 C1753 1.374 . S
C1753 H1733 0.950 . S
C1753 C1749 1.385 . S
C1753 C1752 1.374 . S
C1754 C1751 1.499 . S
C1754 C1755 1.373 . S
C1754 C1756 1.389 . S
C1755 H1734 0.950 . S
C1755 C1754 1.373 . S
C1755 C1771 1.377 . S
C1756 C1754 1.389 . S
C1756 C1757 1.524 . S
C1756 C1770 1.377 . S
C1757 C1756 1.524 . S
C1757 C1758 1.397 . S
C1757 C1762 1.363 . S
C1758 H1735 0.950 . S
C1758 C1757 1.397 . S
C1758 C1759 1.334 . S
C1759 H1736 0.950 . S
C1759 C1758 1.334 . S
C1759 C1760 1.287 . S
C1760 C1759 1.287 . S
C1760 C1761 1.524 . S
C1760 H1779 0.913 . S
C1761 H1737 0.950 . S
C1761 C1760 1.524 . S
C1761 C1762 1.415 . S
C1762 H1738 0.950 . S
C1762 C1757 1.363 . S
C1762 C1761 1.415 . S
C1763 H1739 0.951 . S
C1763 C1764 1.366 . S
C1763 C1765 1.388 . S
C1764 C1763 1.366 . S
C1764 C1768 1.385 . S
C1765 H1740 0.951 . S
C1765 C1763 1.388 . S
C1765 C1766 1.366 . S
C1766 C1765 1.366 . S
C1766 C1767 1.414 . S
C1766 C1769 1.499 . S
C1767 H1741 0.950 . S
C1767 C1766 1.414 . S
C1767 C1768 1.374 . S
C1768 H1742 0.950 . S
C1768 C1764 1.385 . S
C1768 C1767 1.374 . S
C1769 C1766 1.499 . S
C1769 C1770 1.373 . S
C1769 C1771 1.389 . S
C1770 H1743 0.950 . S
C1770 C1756 1.377 . S
C1770 C1769 1.373 . S
C1771 C1755 1.377 . S
C1771 C1769 1.389 . S
C1771 C1772 1.524 . S
C1772 C1771 1.524 . S
C1772 C1773 1.397 . S
C1772 C1777 1.363 . S
C1773 H1744 0.950 . S
C1773 C1772 1.397 . S
C1773 C1774 1.334 . S
C1774 H1745 0.950 . S
C1774 C1773 1.334 . S
C1774 C1775 1.287 . S
C1775 C1774 1.287 . S
C1775 C1776 1.524 . S
C1775 H1778 0.999 . S
C1776 H1746 0.950 . S
C1776 C1775 1.524 . S
C1776 C1777 1.415 . S
C1777 H1747 0.950 . S
C1777 C1772 1.363 . S
C1777 C1776 1.415 . S
H1778 C1775 0.999 . S
H1779 C1760 0.913 . S
H1780 C1798 0.951 . S
H1781 C1800 0.951 . S
H1782 C1802 0.950 . S
H1783 C1803 0.950 . S
H1784 C1805 0.950 . S
H1785 C1808 0.950 . S
H1786 C1809 0.950 . S
H1787 C1811 0.950 . S
H1788 C1812 0.950 . S
H1789 C1813 0.951 . S
H1790 C1815 0.951 . S
H1791 C1817 0.950 . S
H1792 C1818 0.950 . S
H1793 C1820 0.950 . S
H1794 C1823 0.950 . S
H1795 C1824 0.950 . S
H1796 C1826 0.950 . S
H1797 C1827 0.950 . S
C1798 H1780 0.951 . S
C1798 C1799 1.366 . S
C1798 C1800 1.388 . S
C1799 C1798 1.366 . S
C1799 C1803 1.385 . S
C1800 H1781 0.951 . S
C1800 C1798 1.388 . S
C1800 C1801 1.366 . S
C1801 C1800 1.366 . S
C1801 C1802 1.414 . S
C1801 C1804 1.499 . S
C1802 H1782 0.950 . S
C1802 C1801 1.414 . S
C1802 C1803 1.374 . S
C1803 H1783 0.950 . S
C1803 C1799 1.385 . S
C1803 C1802 1.374 . S
C1804 C1801 1.499 . S
C1804 C1805 1.373 . S
C1804 C1806 1.389 . S
C1805 H1784 0.950 . S
C1805 C1804 1.373 . S
C1805 C1821 1.377 . S
C1806 C1804 1.389 . S
C1806 C1807 1.524 . S
C1806 C1820 1.377 . S
C1807 C1806 1.524 . S
C1807 C1808 1.397 . S
C1807 C1812 1.363 . S
C1808 H1785 0.950 . S
C1808 C1807 1.397 . S
C1808 C1809 1.334 . S
C1809 H1786 0.950 . S
C1809 C1808 1.334 . S
C1809 C1810 1.287 . S
C1810 C1809 1.287 . S
C1810 C1811 1.524 . S
C1810 H1829 0.913 . S
C1811 H1787 0.950 . S
C1811 C1810 1.524 . S
C1811 C1812 1.415 . S
C1812 H1788 0.950 . S
C1812 C1807 1.363 . S
C1812 C1811 1.415 . S
C1813 H1789 0.951 . S
C1813 C1814 1.366 . S
C1813 C1815 1.388 . S
C1814 C1813 1.366 . S
C1814 C1818 1.385 . S
C1815 H1790 0.951 . S
C1815 C1813 1.388 . S
C1815 C1816 1.366 . S
C1816 C1815 1.366 . S
C1816 C1817 1.414 . S
C1816 C1819 1.499 . S
C1817 H1791 0.950 . S
C1817 C1816 1.414 . S
C1817 C1818 1.374 . S
C1818 H1792 0.950 . S
C1818 C1814 1.385 . S
C1818 C1817 1.374 . S
C1819 C1816 1.499 . S
C1819 C1820 1.373 . S
C1819 C1821 1.389 . S
C1820 H1793 0.950 . S
C1820 C1806 1.377 . S
C1820 C1819 1.373 . S
C1821 C1805 1.377 . S
C1821 C1819 1.389 . S
C1821 C1822 1.524 . S
C1822 C1821 1.524 . S
C1822 C1823 1.397 . S
C1822 C1827 1.363 . S
C1823 H1794 0.950 . S
C1823 C1822 1.397 . S
C1823 C1824 1.334 . S
C1824 H1795 0.950 . S
C1824 C1823 1.334 . S
C1824 C1825 1.287 . S
C1825 C1824 1.287 . S
C1825 C1826 1.524 . S
C1825 H1828 0.999 . S
C1826 H1796 0.950 . S
C1826 C1825 1.524 . S
C1826 C1827 1.415 . S
C1827 H1797 0.950 . S
C1827 C1822 1.363 . S
C1827 C1826 1.415 . S
H1828 C1825 0.999 . S
H1829 C1810 0.913 . S
H1830 C1848 0.951 . S
H1831 C1850 0.951 . S
H1832 C1852 0.950 . S
H1833 C1853 0.950 . S
H1834 C1855 0.950 . S
H1835 C1858 0.950 . S
H1836 C1859 0.950 . S
H1837 C1861 0.950 . S
H1838 C1862 0.950 . S
H1839 C1863 0.951 . S
H1840 C1865 0.951 . S
H1841 C1867 0.950 . S
H1842 C1868 0.950 . S
H1843 C1870 0.950 . S
H1844 C1873 0.950 . S
H1845 C1874 0.950 . S
H1846 C1876 0.950 . S
H1847 C1877 0.950 . S
C1848 H1830 0.951 . S
C1848 C1849 1.366 . S
C1848 C1850 1.388 . S
C1849 C1848 1.366 . S
C1849 C1853 1.385 . S
C1850 H1831 0.951 . S
C1850 C1848 1.388 . S
C1850 C1851 1.366 . S
C1851 C1850 1.366 . S
C1851 C1852 1.414 . S
C1851 C1854 1.499 . S
C1852 H1832 0.950 . S
C1852 C1851 1.414 . S
C1852 C1853 1.374 . S
C1853 H1833 0.950 . S
C1853 C1849 1.385 . S
C1853 C1852 1.374 . S
C1854 C1851 1.499 . S
C1854 C1855 1.373 . S
C1854 C1856 1.389 . S
C1855 H1834 0.950 . S
C1855 C1854 1.373 . S
C1855 C1871 1.377 . S
C1856 C1854 1.389 . S
C1856 C1857 1.524 . S
C1856 C1870 1.377 . S
C1857 C1856 1.524 . S
C1857 C1858 1.397 . S
C1857 C1862 1.363 . S
C1858 H1835 0.950 . S
C1858 C1857 1.397 . S
C1858 C1859 1.334 . S
C1859 H1836 0.950 . S
C1859 C1858 1.334 . S
C1859 C1860 1.287 . S
C1860 C1859 1.287 . S
C1860 C1861 1.524 . S
C1860 H1879 0.913 . S
C1861 H1837 0.950 . S
C1861 C1860 1.524 . S
C1861 C1862 1.415 . S
C1862 H1838 0.950 . S
C1862 C1857 1.363 . S
C1862 C1861 1.415 . S
C1863 H1839 0.951 . S
C1863 C1864 1.366 . S
C1863 C1865 1.388 . S
C1864 C1863 1.366 . S
C1864 C1868 1.385 . S
C1865 H1840 0.951 . S
C1865 C1863 1.388 . S
C1865 C1866 1.366 . S
C1866 C1865 1.366 . S
C1866 C1867 1.414 . S
C1866 C1869 1.499 . S
C1867 H1841 0.950 . S
C1867 C1866 1.414 . S
C1867 C1868 1.374 . S
C1868 H1842 0.950 . S
C1868 C1864 1.385 . S
C1868 C1867 1.374 . S
C1869 C1866 1.499 . S
C1869 C1870 1.373 . S
C1869 C1871 1.389 . S
C1870 H1843 0.950 . S
C1870 C1856 1.377 . S
C1870 C1869 1.373 . S
C1871 C1855 1.377 . S
C1871 C1869 1.389 . S
C1871 C1872 1.524 . S
C1872 C1871 1.524 . S
C1872 C1873 1.397 . S
C1872 C1877 1.363 . S
C1873 H1844 0.950 . S
C1873 C1872 1.397 . S
C1873 C1874 1.334 . S
C1874 H1845 0.950 . S
C1874 C1873 1.334 . S
C1874 C1875 1.287 . S
C1875 C1874 1.287 . S
C1875 C1876 1.524 . S
C1875 H1878 0.999 . S
C1876 H1846 0.950 . S
C1876 C1875 1.524 . S
C1876 C1877 1.415 . S
C1877 H1847 0.950 . S
C1877 C1872 1.363 . S
C1877 C1876 1.415 . S
H1878 C1875 0.999 . S
H1879 C1860 0.913 . S
H1880 C1898 0.951 . S
H1881 C1900 0.951 1_655 S
H1882 C1902 0.950 . S
H1883 C1903 0.950 . S
H1884 C1905 0.950 . S
H1885 C1908 0.950 . S
H1886 C1909 0.950 . S
H1887 C1911 0.950 . S
H1888 C1912 0.950 . S
H1889 C1913 0.951 . S
H1890 C1915 0.951 . S
H1891 C1917 0.950 . S
H1892 C1918 0.950 . S
H1893 C1920 0.950 . S
H1894 C1923 0.950 . S
H1895 C1924 0.950 . S
H1896 C1926 0.950 . S
H1897 C1927 0.950 . S
C1898 H1880 0.951 . S
C1898 C1899 1.366 1_655 S
C1898 C1900 1.388 1_655 S
C1899 C1898 1.366 1_455 S
C1899 C1903 1.385 . S
C1900 H1881 0.951 1_455 S
C1900 C1898 1.388 1_455 S
C1900 C1901 1.366 . S
C1901 C1900 1.366 . S
C1901 C1902 1.414 . S
C1901 C1904 1.499 . S
C1902 H1882 0.950 . S
C1902 C1901 1.414 . S
C1902 C1903 1.374 . S
C1903 H1883 0.950 . S
C1903 C1899 1.385 . S
C1903 C1902 1.374 . S
C1904 C1901 1.499 . S
C1904 C1905 1.373 . S
C1904 C1906 1.389 . S
C1905 H1884 0.950 . S
C1905 C1904 1.373 . S
C1905 C1921 1.377 . S
C1906 C1904 1.389 . S
C1906 C1907 1.524 . S
C1906 C1920 1.377 . S
C1907 C1906 1.524 . S
C1907 C1908 1.397 . S
C1907 C1912 1.363 . S
C1908 H1885 0.950 . S
C1908 C1907 1.397 . S
C1908 C1909 1.334 . S
C1909 H1886 0.950 . S
C1909 C1908 1.334 . S
C1909 C1910 1.287 . S
C1910 C1909 1.287 . S
C1910 C1911 1.524 . S
C1910 H1929 0.913 . S
C1911 H1887 0.950 . S
C1911 C1910 1.524 . S
C1911 C1912 1.415 . S
C1912 H1888 0.950 . S
C1912 C1907 1.363 . S
C1912 C1911 1.415 . S
C1913 H1889 0.951 . S
C1913 C1914 1.366 . S
C1913 C1915 1.388 . S
C1914 C1913 1.366 . S
C1914 C1918 1.385 . S
C1915 H1890 0.951 . S
C1915 C1913 1.388 . S
C1915 C1916 1.366 . S
C1916 C1915 1.366 . S
C1916 C1917 1.414 . S
C1916 C1919 1.499 . S
C1917 H1891 0.950 . S
C1917 C1916 1.414 . S
C1917 C1918 1.374 . S
C1918 H1892 0.950 . S
C1918 C1914 1.385 . S
C1918 C1917 1.374 . S
C1919 C1916 1.499 . S
C1919 C1920 1.373 . S
C1919 C1921 1.389 . S
C1920 H1893 0.950 . S
C1920 C1906 1.377 . S
C1920 C1919 1.373 . S
C1921 C1905 1.377 . S
C1921 C1919 1.389 . S
C1921 C1922 1.524 . S
C1922 C1921 1.524 . S
C1922 C1923 1.397 . S
C1922 C1927 1.363 . S
C1923 H1894 0.950 . S
C1923 C1922 1.397 . S
C1923 C1924 1.334 . S
C1924 H1895 0.950 . S
C1924 C1923 1.334 . S
C1924 C1925 1.287 . S
C1925 C1924 1.287 . S
C1925 C1926 1.524 . S
C1925 H1928 0.999 . S
C1926 H1896 0.950 . S
C1926 C1925 1.524 . S
C1926 C1927 1.415 . S
C1927 H1897 0.950 . S
C1927 C1922 1.363 . S
C1927 C1926 1.415 . S
H1928 C1925 0.999 . S
H1929 C1910 0.913 . S
H1930 C1948 0.951 . S
H1931 C1950 0.951 . S
H1932 C1952 0.950 . S
H1933 C1953 0.950 . S
H1934 C1955 0.950 . S
H1935 C1958 0.950 . S
H1936 C1959 0.950 . S
H1937 C1961 0.950 . S
H1938 C1962 0.950 . S
H1939 C1963 0.951 . S
H1940 C1965 0.951 . S
H1941 C1967 0.950 . S
H1942 C1968 0.950 . S
H1943 C1970 0.950 . S
H1944 C1973 0.950 . S
H1945 C1974 0.950 . S
H1946 C1976 0.950 . S
H1947 C1977 0.950 . S
C1948 H1930 0.951 . S
C1948 C1949 1.366 . S
C1948 C1950 1.388 . S
C1949 C1948 1.366 . S
C1949 C1953 1.385 . S
C1950 H1931 0.951 . S
C1950 C1948 1.388 . S
C1950 C1951 1.366 . S
C1951 C1950 1.366 . S
C1951 C1952 1.414 . S
C1951 C1954 1.499 . S
C1952 H1932 0.950 . S
C1952 C1951 1.414 . S
C1952 C1953 1.374 . S
C1953 H1933 0.950 . S
C1953 C1949 1.385 . S
C1953 C1952 1.374 . S
C1954 C1951 1.499 . S
C1954 C1955 1.373 . S
C1954 C1956 1.389 . S
C1955 H1934 0.950 . S
C1955 C1954 1.373 . S
C1955 C1971 1.377 . S
C1956 C1954 1.389 . S
C1956 C1957 1.524 . S
C1956 C1970 1.377 . S
C1957 C1956 1.524 . S
C1957 C1958 1.397 . S
C1957 C1962 1.363 . S
C1958 H1935 0.950 . S
C1958 C1957 1.397 . S
C1958 C1959 1.334 . S
C1959 H1936 0.950 . S
C1959 C1958 1.334 . S
C1959 C1960 1.287 . S
C1960 C1959 1.287 . S
C1960 C1961 1.524 . S
C1960 H1979 0.913 . S
C1961 H1937 0.950 . S
C1961 C1960 1.524 . S
C1961 C1962 1.415 . S
C1962 H1938 0.950 . S
C1962 C1957 1.363 . S
C1962 C1961 1.415 . S
C1963 H1939 0.951 . S
C1963 C1964 1.366 . S
C1963 C1965 1.388 . S
C1964 C1963 1.366 . S
C1964 C1968 1.385 . S
C1965 H1940 0.951 . S
C1965 C1963 1.388 . S
C1965 C1966 1.366 . S
C1966 C1965 1.366 . S
C1966 C1967 1.414 . S
C1966 C1969 1.499 . S
C1967 H1941 0.950 . S
C1967 C1966 1.414 . S
C1967 C1968 1.374 . S
C1968 H1942 0.950 . S
C1968 C1964 1.385 . S
C1968 C1967 1.374 . S
C1969 C1966 1.499 . S
C1969 C1970 1.373 . S
C1969 C1971 1.389 . S
C1970 H1943 0.950 . S
C1970 C1956 1.377 . S
C1970 C1969 1.373 . S
C1971 C1955 1.377 . S
C1971 C1969 1.389 . S
C1971 C1972 1.524 . S
C1972 C1971 1.524 . S
C1972 C1973 1.397 . S
C1972 C1977 1.363 . S
C1973 H1944 0.950 . S
C1973 C1972 1.397 . S
C1973 C1974 1.334 . S
C1974 H1945 0.950 . S
C1974 C1973 1.334 . S
C1974 C1975 1.287 . S
C1975 C1974 1.287 . S
C1975 C1976 1.524 . S
C1975 H1978 0.999 . S
C1976 H1946 0.950 . S
C1976 C1975 1.524 . S
C1976 C1977 1.415 . S
C1977 H1947 0.950 . S
C1977 C1972 1.363 . S
C1977 C1976 1.415 . S
H1978 C1975 0.999 . S
H1979 C1960 0.913 . S
H1980 C1998 0.951 . S
H1981 C2000 0.951 . S
H1982 C2002 0.950 . S
H1983 C2003 0.950 . S
H1984 C2005 0.950 . S
H1985 C2008 0.950 . S
H1986 C2009 0.950 . S
H1987 C2011 0.950 . S
H1988 C2012 0.950 . S
H1989 C2013 0.951 . S
H1990 C2015 0.951 . S
H1991 C2017 0.950 . S
H1992 C2018 0.950 . S
H1993 C2020 0.950 . S
H1994 C2023 0.950 . S
H1995 C2024 0.950 . S
H1996 C2026 0.950 . S
H1997 C2027 0.950 . S
C1998 H1980 0.951 . S
C1998 C1999 1.366 . S
C1998 C2000 1.388 . S
C1999 C1998 1.366 . S
C1999 C2003 1.385 . S
C2000 H1981 0.951 . S
C2000 C1998 1.388 . S
C2000 C2001 1.366 . S
C2001 C2000 1.366 . S
C2001 C2002 1.414 . S
C2001 C2004 1.499 . S
C2002 H1982 0.950 . S
C2002 C2001 1.414 . S
C2002 C2003 1.374 . S
C2003 H1983 0.950 . S
C2003 C1999 1.385 . S
C2003 C2002 1.374 . S
C2004 C2001 1.499 . S
C2004 C2005 1.373 . S
C2004 C2006 1.389 . S
C2005 H1984 0.950 . S
C2005 C2004 1.373 . S
C2005 C2021 1.377 . S
C2006 C2004 1.389 . S
C2006 C2007 1.524 . S
C2006 C2020 1.377 . S
C2007 C2006 1.524 . S
C2007 C2008 1.397 . S
C2007 C2012 1.363 . S
C2008 H1985 0.950 . S
C2008 C2007 1.397 . S
C2008 C2009 1.334 . S
C2009 H1986 0.950 . S
C2009 C2008 1.334 . S
C2009 C2010 1.287 . S
C2010 C2009 1.287 . S
C2010 C2011 1.524 . S
C2010 H2029 0.913 . S
C2011 H1987 0.950 . S
C2011 C2010 1.524 . S
C2011 C2012 1.415 . S
C2012 H1988 0.950 . S
C2012 C2007 1.363 . S
C2012 C2011 1.415 . S
C2013 H1989 0.951 . S
C2013 C2014 1.366 . S
C2013 C2015 1.388 . S
C2014 C2013 1.366 . S
C2014 C2018 1.385 . S
C2015 H1990 0.951 . S
C2015 C2013 1.388 . S
C2015 C2016 1.366 . S
C2016 C2015 1.366 . S
C2016 C2017 1.414 . S
C2016 C2019 1.499 . S
C2017 H1991 0.950 . S
C2017 C2016 1.414 . S
C2017 C2018 1.374 . S
C2018 H1992 0.950 . S
C2018 C2014 1.385 . S
C2018 C2017 1.374 . S
C2019 C2016 1.499 . S
C2019 C2020 1.373 . S
C2019 C2021 1.389 . S
C2020 H1993 0.950 . S
C2020 C2006 1.377 . S
C2020 C2019 1.373 . S
C2021 C2005 1.377 . S
C2021 C2019 1.389 . S
C2021 C2022 1.524 . S
C2022 C2021 1.524 . S
C2022 C2023 1.397 . S
C2022 C2027 1.363 . S
C2023 H1994 0.950 . S
C2023 C2022 1.397 . S
C2023 C2024 1.334 . S
C2024 H1995 0.950 . S
C2024 C2023 1.334 . S
C2024 C2025 1.287 . S
C2025 C2024 1.287 . S
C2025 C2026 1.524 . S
C2025 H2028 0.999 . S
C2026 H1996 0.950 . S
C2026 C2025 1.524 . S
C2026 C2027 1.415 . S
C2027 H1997 0.950 . S
C2027 C2022 1.363 . S
C2027 C2026 1.415 . S
H2028 C2025 0.999 . S
H2029 C2010 0.913 . S
H2030 C2048 0.951 . S
H2031 C2050 0.951 . S
H2032 C2052 0.950 . S
H2033 C2053 0.950 . S
H2034 C2055 0.950 . S
H2035 C2058 0.950 . S
H2036 C2059 0.950 . S
H2037 C2061 0.950 . S
H2038 C2062 0.950 . S
H2039 C2063 0.951 . S
H2040 C2065 0.951 . S
H2041 C2067 0.950 . S
H2042 C2068 0.950 . S
H2043 C2070 0.950 . S
H2044 C2073 0.950 . S
H2045 C2074 0.950 . S
H2046 C2076 0.950 . S
H2047 C2077 0.950 . S
C2048 H2030 0.951 . S
C2048 C2049 1.366 . S
C2048 C2050 1.388 . S
C2049 C2048 1.366 . S
C2049 C2053 1.385 . S
C2050 H2031 0.951 . S
C2050 C2048 1.388 . S
C2050 C2051 1.366 . S
C2051 C2050 1.366 . S
C2051 C2052 1.414 . S
C2051 C2054 1.499 . S
C2052 H2032 0.950 . S
C2052 C2051 1.414 . S
C2052 C2053 1.374 . S
C2053 H2033 0.950 . S
C2053 C2049 1.385 . S
C2053 C2052 1.374 . S
C2054 C2051 1.499 . S
C2054 C2055 1.373 . S
C2054 C2056 1.389 . S
C2055 H2034 0.950 . S
C2055 C2054 1.373 . S
C2055 C2071 1.377 . S
C2056 C2054 1.389 . S
C2056 C2057 1.524 . S
C2056 C2070 1.377 . S
C2057 C2056 1.524 . S
C2057 C2058 1.397 . S
C2057 C2062 1.363 . S
C2058 H2035 0.950 . S
C2058 C2057 1.397 . S
C2058 C2059 1.334 . S
C2059 H2036 0.950 . S
C2059 C2058 1.334 . S
C2059 C2060 1.287 . S
C2060 C2059 1.287 . S
C2060 C2061 1.524 . S
C2060 H2079 0.913 . S
C2061 H2037 0.950 . S
C2061 C2060 1.524 . S
C2061 C2062 1.415 . S
C2062 H2038 0.950 . S
C2062 C2057 1.363 . S
C2062 C2061 1.415 . S
C2063 H2039 0.951 . S
C2063 C2064 1.366 . S
C2063 C2065 1.388 . S
C2064 C2063 1.366 . S
C2064 C2068 1.385 . S
C2065 H2040 0.951 . S
C2065 C2063 1.388 . S
C2065 C2066 1.366 . S
C2066 C2065 1.366 . S
C2066 C2067 1.414 . S
C2066 C2069 1.499 . S
C2067 H2041 0.950 . S
C2067 C2066 1.414 . S
C2067 C2068 1.374 . S
C2068 H2042 0.950 . S
C2068 C2064 1.385 . S
C2068 C2067 1.374 . S
C2069 C2066 1.499 . S
C2069 C2070 1.373 . S
C2069 C2071 1.389 . S
C2070 H2043 0.950 . S
C2070 C2056 1.377 . S
C2070 C2069 1.373 . S
C2071 C2055 1.377 . S
C2071 C2069 1.389 . S
C2071 C2072 1.524 . S
C2072 C2071 1.524 . S
C2072 C2073 1.397 . S
C2072 C2077 1.363 . S
C2073 H2044 0.950 . S
C2073 C2072 1.397 . S
C2073 C2074 1.334 . S
C2074 H2045 0.950 . S
C2074 C2073 1.334 . S
C2074 C2075 1.287 . S
C2075 C2074 1.287 . S
C2075 C2076 1.524 . S
C2075 H2078 0.999 . S
C2076 H2046 0.950 . S
C2076 C2075 1.524 . S
C2076 C2077 1.415 . S
C2077 H2047 0.950 . S
C2077 C2072 1.363 . S
C2077 C2076 1.415 . S
H2078 C2075 0.999 . S
H2079 C2060 0.913 . S
H2080 C2098 0.951 . S
H2081 C2100 0.951 . S
H2082 C2102 0.950 . S
H2083 C2103 0.950 . S
H2084 C2105 0.950 . S
H2085 C2108 0.950 . S
H2086 C2109 0.950 . S
H2087 C2111 0.950 . S
H2088 C2112 0.950 . S
H2089 C2113 0.951 . S
H2090 C2115 0.951 . S
H2091 C2117 0.950 . S
H2092 C2118 0.950 . S
H2093 C2120 0.950 . S
H2094 C2123 0.950 . S
H2095 C2124 0.950 . S
H2096 C2126 0.950 . S
H2097 C2127 0.950 . S
C2098 H2080 0.951 . S
C2098 C2099 1.366 . S
C2098 C2100 1.388 . S
C2099 C2098 1.366 . S
C2099 C2103 1.385 . S
C2100 H2081 0.951 . S
C2100 C2098 1.388 . S
C2100 C2101 1.366 . S
C2101 C2100 1.366 . S
C2101 C2102 1.414 . S
C2101 C2104 1.499 . S
C2102 H2082 0.950 . S
C2102 C2101 1.414 . S
C2102 C2103 1.374 . S
C2103 H2083 0.950 . S
C2103 C2099 1.385 . S
C2103 C2102 1.374 . S
C2104 C2101 1.499 . S
C2104 C2105 1.373 1_655 S
C2104 C2106 1.389 . S
C2105 H2084 0.950 . S
C2105 C2104 1.373 1_455 S
C2105 C2121 1.377 . S
C2106 C2104 1.389 . S
C2106 C2107 1.524 . S
C2106 C2120 1.377 . S
C2107 C2106 1.524 . S
C2107 C2108 1.397 . S
C2107 C2112 1.363 . S
C2108 H2085 0.950 . S
C2108 C2107 1.397 . S
C2108 C2109 1.334 . S
C2109 H2086 0.950 . S
C2109 C2108 1.334 . S
C2109 C2110 1.287 . S
C2110 C2109 1.287 . S
C2110 C2111 1.524 . S
C2110 H2129 0.913 . S
C2111 H2087 0.950 . S
C2111 C2110 1.524 . S
C2111 C2112 1.415 . S
C2112 H2088 0.950 . S
C2112 C2107 1.363 . S
C2112 C2111 1.415 . S
C2113 H2089 0.951 . S
C2113 C2114 1.366 . S
C2113 C2115 1.388 . S
C2114 C2113 1.366 . S
C2114 C2118 1.385 . S
C2115 H2090 0.951 . S
C2115 C2113 1.388 . S
C2115 C2116 1.366 . S
C2116 C2115 1.366 . S
C2116 C2117 1.414 . S
C2116 C2119 1.499 . S
C2117 H2091 0.950 . S
C2117 C2116 1.414 . S
C2117 C2118 1.374 . S
C2118 H2092 0.950 . S
C2118 C2114 1.385 . S
C2118 C2117 1.374 . S
C2119 C2116 1.499 . S
C2119 C2120 1.373 1_455 S
C2119 C2121 1.389 . S
C2120 H2093 0.950 . S
C2120 C2106 1.377 . S
C2120 C2119 1.373 1_655 S
C2121 C2105 1.377 . S
C2121 C2119 1.389 . S
C2121 C2122 1.524 . S
C2122 C2121 1.524 . S
C2122 C2123 1.397 . S
C2122 C2127 1.363 . S
C2123 H2094 0.950 . S
C2123 C2122 1.397 . S
C2123 C2124 1.334 . S
C2124 H2095 0.950 . S
C2124 C2123 1.334 . S
C2124 C2125 1.287 . S
C2125 C2124 1.287 . S
C2125 C2126 1.524 . S
C2125 H2128 0.999 . S
C2126 H2096 0.950 . S
C2126 C2125 1.524 . S
C2126 C2127 1.415 . S
C2127 H2097 0.950 . S
C2127 C2122 1.363 . S
C2127 C2126 1.415 . S
H2128 C2125 0.999 . S
H2129 C2110 0.913 . S
H2130 C2148 0.951 . S
H2131 C2150 0.951 . S
H2132 C2152 0.950 . S
H2133 C2153 0.950 . S
H2134 C2155 0.950 . S
H2135 C2158 0.950 . S
H2136 C2159 0.950 . S
H2137 C2161 0.950 . S
H2138 C2162 0.950 . S
H2139 C2163 0.951 . S
H2140 C2165 0.951 . S
H2141 C2167 0.950 . S
H2142 C2168 0.950 . S
H2143 C2170 0.950 . S
H2144 C2173 0.950 . S
H2145 C2174 0.950 . S
H2146 C2176 0.950 . S
H2147 C2177 0.950 . S
C2148 H2130 0.951 . S
C2148 C2149 1.366 . S
C2148 C2150 1.388 . S
C2149 C2148 1.366 . S
C2149 C2153 1.385 . S
C2150 H2131 0.951 . S
C2150 C2148 1.388 . S
C2150 C2151 1.366 . S
C2151 C2150 1.366 . S
C2151 C2152 1.414 . S
C2151 C2154 1.499 . S
C2152 H2132 0.950 . S
C2152 C2151 1.414 . S
C2152 C2153 1.374 . S
C2153 H2133 0.950 . S
C2153 C2149 1.385 . S
C2153 C2152 1.374 . S
C2154 C2151 1.499 . S
C2154 C2155 1.373 . S
C2154 C2156 1.389 . S
C2155 H2134 0.950 . S
C2155 C2154 1.373 . S
C2155 C2171 1.377 . S
C2156 C2154 1.389 . S
C2156 C2157 1.524 . S
C2156 C2170 1.377 . S
C2157 C2156 1.524 . S
C2157 C2158 1.397 . S
C2157 C2162 1.363 . S
C2158 H2135 0.950 . S
C2158 C2157 1.397 . S
C2158 C2159 1.334 . S
C2159 H2136 0.950 . S
C2159 C2158 1.334 . S
C2159 C2160 1.287 . S
C2160 C2159 1.287 . S
C2160 C2161 1.524 . S
C2160 H2179 0.913 . S
C2161 H2137 0.950 . S
C2161 C2160 1.524 . S
C2161 C2162 1.415 . S
C2162 H2138 0.950 . S
C2162 C2157 1.363 . S
C2162 C2161 1.415 . S
C2163 H2139 0.951 . S
C2163 C2164 1.366 . S
C2163 C2165 1.388 . S
C2164 C2163 1.366 . S
C2164 C2168 1.385 . S
C2165 H2140 0.951 . S
C2165 C2163 1.388 . S
C2165 C2166 1.366 . S
C2166 C2165 1.366 . S
C2166 C2167 1.414 . S
C2166 C2169 1.499 . S
C2167 H2141 0.950 . S
C2167 C2166 1.414 . S
C2167 C2168 1.374 . S
C2168 H2142 0.950 . S
C2168 C2164 1.385 . S
C2168 C2167 1.374 . S
C2169 C2166 1.499 . S
C2169 C2170 1.373 . S
C2169 C2171 1.389 . S
C2170 H2143 0.950 . S
C2170 C2156 1.377 . S
C2170 C2169 1.373 . S
C2171 C2155 1.377 . S
C2171 C2169 1.389 . S
C2171 C2172 1.524 . S
C2172 C2171 1.524 . S
C2172 C2173 1.397 . S
C2172 C2177 1.363 . S
C2173 H2144 0.950 . S
C2173 C2172 1.397 . S
C2173 C2174 1.334 . S
C2174 H2145 0.950 . S
C2174 C2173 1.334 . S
C2174 C2175 1.287 . S
C2175 C2174 1.287 . S
C2175 C2176 1.524 . S
C2175 H2178 0.999 . S
C2176 H2146 0.950 . S
C2176 C2175 1.524 . S
C2176 C2177 1.415 . S
C2177 H2147 0.950 . S
C2177 C2172 1.363 . S
C2177 C2176 1.415 . S
H2178 C2175 0.999 . S
H2179 C2160 0.913 . S
H2180 C2198 0.951 . S
H2181 C2200 0.951 . S
H2182 C2202 0.950 . S
H2183 C2203 0.950 . S
H2184 C2205 0.950 . S
H2185 C2208 0.950 . S
H2186 C2209 0.950 . S
H2187 C2211 0.950 . S
H2188 C2212 0.950 . S
H2189 C2213 0.951 . S
H2190 C2215 0.951 . S
H2191 C2217 0.950 . S
H2192 C2218 0.950 . S
H2193 C2220 0.950 . S
H2194 C2223 0.950 . S
H2195 C2224 0.950 . S
H2196 C2226 0.950 . S
H2197 C2227 0.950 . S
C2198 H2180 0.951 . S
C2198 C2199 1.366 . S
C2198 C2200 1.388 . S
C2199 C2198 1.366 . S
C2199 C2203 1.385 . S
C2200 H2181 0.951 . S
C2200 C2198 1.388 . S
C2200 C2201 1.366 . S
C2201 C2200 1.366 . S
C2201 C2202 1.414 . S
C2201 C2204 1.499 . S
C2202 H2182 0.950 . S
C2202 C2201 1.414 . S
C2202 C2203 1.374 . S
C2203 H2183 0.950 . S
C2203 C2199 1.385 . S
C2203 C2202 1.374 . S
C2204 C2201 1.499 . S
C2204 C2205 1.373 . S
C2204 C2206 1.389 . S
C2205 H2184 0.950 . S
C2205 C2204 1.373 . S
C2205 C2221 1.377 . S
C2206 C2204 1.389 . S
C2206 C2207 1.524 . S
C2206 C2220 1.377 . S
C2207 C2206 1.524 . S
C2207 C2208 1.397 . S
C2207 C2212 1.363 . S
C2208 H2185 0.950 . S
C2208 C2207 1.397 . S
C2208 C2209 1.334 . S
C2209 H2186 0.950 . S
C2209 C2208 1.334 . S
C2209 C2210 1.287 . S
C2210 C2209 1.287 . S
C2210 C2211 1.524 . S
C2210 H2229 0.913 . S
C2211 H2187 0.950 . S
C2211 C2210 1.524 . S
C2211 C2212 1.415 . S
C2212 H2188 0.950 . S
C2212 C2207 1.363 . S
C2212 C2211 1.415 . S
C2213 H2189 0.951 . S
C2213 C2214 1.366 . S
C2213 C2215 1.388 . S
C2214 C2213 1.366 . S
C2214 C2218 1.385 . S
C2215 H2190 0.951 . S
C2215 C2213 1.388 . S
C2215 C2216 1.366 . S
C2216 C2215 1.366 . S
C2216 C2217 1.414 . S
C2216 C2219 1.499 . S
C2217 H2191 0.950 . S
C2217 C2216 1.414 . S
C2217 C2218 1.374 . S
C2218 H2192 0.950 . S
C2218 C2214 1.385 . S
C2218 C2217 1.374 . S
C2219 C2216 1.499 . S
C2219 C2220 1.373 . S
C2219 C2221 1.389 . S
C2220 H2193 0.950 . S
C2220 C2206 1.377 . S
C2220 C2219 1.373 . S
C2221 C2205 1.377 . S
C2221 C2219 1.389 . S
C2221 C2222 1.524 . S
C2222 C2221 1.524 . S
C2222 C2223 1.397 1_545 S
C2222 C2227 1.363 . S
C2223 H2194 0.950 . S
C2223 C2222 1.397 1_565 S
C2223 C2224 1.334 . S
C2224 H2195 0.950 . S
C2224 C2223 1.334 . S
C2224 C2225 1.287 . S
C2225 C2224 1.287 . S
C2225 C2226 1.524 . S
C2225 H2228 0.999 . S
C2226 H2196 0.950 . S
C2226 C2225 1.524 . S
C2226 C2227 1.415 1_565 S
C2227 H2197 0.950 . S
C2227 C2222 1.363 . S
C2227 C2226 1.415 1_545 S
H2228 C2225 0.999 . S
H2229 C2210 0.913 . S
H2230 C2248 0.951 . S
H2231 C2250 0.951 . S
H2232 C2252 0.950 . S
H2233 C2253 0.950 . S
H2234 C2255 0.950 . S
H2235 C2258 0.950 . S
H2236 C2259 0.950 . S
H2237 C2261 0.950 . S
H2238 C2262 0.950 . S
H2239 C2263 0.951 . S
H2240 C2265 0.951 . S
H2241 C2267 0.950 . S
H2242 C2268 0.950 . S
H2243 C2270 0.950 . S
H2244 C2273 0.950 . S
H2245 C2274 0.950 . S
H2246 C2276 0.950 . S
H2247 C2277 0.950 . S
C2248 H2230 0.951 . S
C2248 C2249 1.366 . S
C2248 C2250 1.388 . S
C2249 C2248 1.366 . S
C2249 C2253 1.385 . S
C2250 H2231 0.951 . S
C2250 C2248 1.388 . S
C2250 C2251 1.366 . S
C2251 C2250 1.366 . S
C2251 C2252 1.414 . S
C2251 C2254 1.499 . S
C2252 H2232 0.950 . S
C2252 C2251 1.414 . S
C2252 C2253 1.374 . S
C2253 H2233 0.950 . S
C2253 C2249 1.385 . S
C2253 C2252 1.374 . S
C2254 C2251 1.499 . S
C2254 C2255 1.373 . S
C2254 C2256 1.389 . S
C2255 H2234 0.950 . S
C2255 C2254 1.373 . S
C2255 C2271 1.377 . S
C2256 C2254 1.389 . S
C2256 C2257 1.524 . S
C2256 C2270 1.377 . S
C2257 C2256 1.524 . S
C2257 C2258 1.397 . S
C2257 C2262 1.363 . S
C2258 H2235 0.950 . S
C2258 C2257 1.397 . S
C2258 C2259 1.334 . S
C2259 H2236 0.950 . S
C2259 C2258 1.334 . S
C2259 C2260 1.287 . S
C2260 C2259 1.287 . S
C2260 C2261 1.524 . S
C2260 H2279 0.913 . S
C2261 H2237 0.950 . S
C2261 C2260 1.524 . S
C2261 C2262 1.415 . S
C2262 H2238 0.950 . S
C2262 C2257 1.363 . S
C2262 C2261 1.415 . S
C2263 H2239 0.951 . S
C2263 C2264 1.366 . S
C2263 C2265 1.388 . S
C2264 C2263 1.366 . S
C2264 C2268 1.385 . S
C2265 H2240 0.951 . S
C2265 C2263 1.388 . S
C2265 C2266 1.366 . S
C2266 C2265 1.366 . S
C2266 C2267 1.414 . S
C2266 C2269 1.499 . S
C2267 H2241 0.950 . S
C2267 C2266 1.414 . S
C2267 C2268 1.374 . S
C2268 H2242 0.950 . S
C2268 C2264 1.385 . S
C2268 C2267 1.374 . S
C2269 C2266 1.499 . S
C2269 C2270 1.373 . S
C2269 C2271 1.389 . S
C2270 H2243 0.950 . S
C2270 C2256 1.377 . S
C2270 C2269 1.373 . S
C2271 C2255 1.377 . S
C2271 C2269 1.389 . S
C2271 C2272 1.524 . S
C2272 C2271 1.524 . S
C2272 C2273 1.397 . S
C2272 C2277 1.363 . S
C2273 H2244 0.950 . S
C2273 C2272 1.397 . S
C2273 C2274 1.334 . S
C2274 H2245 0.950 . S
C2274 C2273 1.334 . S
C2274 C2275 1.287 . S
C2275 C2274 1.287 . S
C2275 C2276 1.524 . S
C2275 H2278 0.999 . S
C2276 H2246 0.950 . S
C2276 C2275 1.524 . S
C2276 C2277 1.415 . S
C2277 H2247 0.950 . S
C2277 C2272 1.363 . S
C2277 C2276 1.415 . S
H2278 C2275 0.999 . S
H2279 C2260 0.913 . S
H2280 C2298 0.951 . S
H2281 C2300 0.951 1_455 S
H2282 C2302 0.950 . S
H2283 C2303 0.950 . S
H2284 C2305 0.950 . S
H2285 C2308 0.967 . S
H2286 C2309 0.950 1_655 S
H2287 C2311 0.950 . S
H2288 C2312 0.950 . S
H2289 C2313 0.951 . S
H2290 C2315 0.951 1_655 S
H2291 C2317 0.950 . S
H2292 C2318 0.950 . S
H2293 C2320 0.950 . S
H2294 C2323 1.014 . S
H2295 C2324 0.950 1_455 S
H2296 C2326 0.950 . S
H2297 C2327 0.950 . S
C2298 H2280 0.951 . S
C2298 C2299 1.366 . S
C2298 C2300 1.388 . S
C2299 C2298 1.366 . S
C2299 C2303 1.385 . S
C2300 H2281 0.951 1_655 S
C2300 C2298 1.388 . S
C2300 C2301 1.366 . S
C2301 C2300 1.366 . S
C2301 C2302 1.414 . S
C2301 C2304 1.499 . S
C2302 H2282 0.950 . S
C2302 C2301 1.414 . S
C2302 C2303 1.374 . S
C2303 H2283 0.950 . S
C2303 C2299 1.385 . S
C2303 C2302 1.374 . S
C2304 C2301 1.499 . S
C2304 C2305 1.373 . S
C2304 C2306 1.389 1_655 S
C2305 H2284 0.950 . S
C2305 C2304 1.373 . S
C2305 C2321 1.377 . S
C2306 C2304 1.389 1_455 S
C2306 C2307 1.524 . S
C2306 C2320 1.377 . S
C2307 C2306 1.524 . S
C2307 C2308 1.387 1_455 S
C2307 C2312 1.363 . S
C2308 H2285 0.967 . S
C2308 C2307 1.387 1_655 S
C2308 C2309 1.327 1_655 S
C2309 H2286 0.950 1_455 S
C2309 C2308 1.327 1_455 S
C2309 C2310 1.287 . S
C2310 C2309 1.287 . S
C2310 C2311 1.524 . S
C2310 H2329 0.913 . S
C2311 H2287 0.950 . S
C2311 C2310 1.524 . S
C2311 C2312 1.415 . S
C2312 H2288 0.950 . S
C2312 C2307 1.363 . S
C2312 C2311 1.415 . S
C2313 H2289 0.951 . S
C2313 C2314 1.366 . S
C2313 C2315 1.388 . S
C2314 C2313 1.366 . S
C2314 C2318 1.385 . S
C2315 H2290 0.951 1_455 S
C2315 C2313 1.388 . S
C2315 C2316 1.366 . S
C2316 C2315 1.366 . S
C2316 C2317 1.414 . S
C2316 C2319 1.499 . S
C2317 H2291 0.950 . S
C2317 C2316 1.414 . S
C2317 C2318 1.374 . S
C2318 H2292 0.950 . S
C2318 C2314 1.385 . S
C2318 C2317 1.374 . S
C2319 C2316 1.499 . S
C2319 C2320 1.373 . S
C2319 C2321 1.389 1_455 S
C2320 H2293 0.950 . S
C2320 C2306 1.377 . S
C2320 C2319 1.373 . S
C2321 C2305 1.377 . S
C2321 C2319 1.389 1_655 S
C2321 C2322 1.524 . S
C2322 C2321 1.524 . S
C2322 C2323 1.362 1_655 S
C2322 C2327 1.363 . S
C2323 H2294 1.014 . S
C2323 C2322 1.362 1_455 S
C2323 C2324 1.308 1_455 S
C2324 H2295 0.950 1_655 S
C2324 C2323 1.308 1_655 S
C2324 C2325 1.287 . S
C2325 C2324 1.287 . S
C2325 C2326 1.524 . S
C2325 H2328 0.999 . S
C2326 H2296 0.950 . S
C2326 C2325 1.524 . S
C2326 C2327 1.415 . S
C2327 H2297 0.950 . S
C2327 C2322 1.363 . S
C2327 C2326 1.415 . S
H2328 C2325 0.999 . S
H2329 C2310 0.913 . S
H2330 C2348 0.951 . S
H2331 C2350 0.951 . S
H2332 C2352 0.950 . S
H2333 C2353 0.950 . S
H2334 C2355 0.950 . S
H2335 C2358 0.950 . S
H2336 C2359 0.950 . S
H2337 C2361 0.950 . S
H2338 C2362 0.950 . S
H2339 C2363 0.951 . S
H2340 C2365 0.951 . S
H2341 C2367 0.950 . S
H2342 C2368 0.950 . S
H2343 C2370 0.950 . S
H2344 C2373 0.950 . S
H2345 C2374 0.950 . S
H2346 C2376 0.950 . S
H2347 C2377 0.950 . S
C2348 H2330 0.951 . S
C2348 C2349 1.366 . S
C2348 C2350 1.388 . S
C2349 C2348 1.366 . S
C2349 C2353 1.385 . S
C2350 H2331 0.951 . S
C2350 C2348 1.388 . S
C2350 C2351 1.366 . S
C2351 C2350 1.366 . S
C2351 C2352 1.414 . S
C2351 C2354 1.499 . S
C2352 H2332 0.950 . S
C2352 C2351 1.414 . S
C2352 C2353 1.374 . S
C2353 H2333 0.950 . S
C2353 C2349 1.385 . S
C2353 C2352 1.374 . S
C2354 C2351 1.499 . S
C2354 C2355 1.373 . S
C2354 C2356 1.389 . S
C2355 H2334 0.950 . S
C2355 C2354 1.373 . S
C2355 C2371 1.377 . S
C2356 C2354 1.389 . S
C2356 C2357 1.524 . S
C2356 C2370 1.377 . S
C2357 C2356 1.524 . S
C2357 C2358 1.397 . S
C2357 C2362 1.363 . S
C2358 H2335 0.950 . S
C2358 C2357 1.397 . S
C2358 C2359 1.334 . S
C2359 H2336 0.950 . S
C2359 C2358 1.334 . S
C2359 C2360 1.287 . S
C2360 C2359 1.287 . S
C2360 C2361 1.524 . S
C2360 H2379 0.913 . S
C2361 H2337 0.950 . S
C2361 C2360 1.524 . S
C2361 C2362 1.415 . S
C2362 H2338 0.950 . S
C2362 C2357 1.363 . S
C2362 C2361 1.415 . S
C2363 H2339 0.951 . S
C2363 C2364 1.366 . S
C2363 C2365 1.388 . S
C2364 C2363 1.366 . S
C2364 C2368 1.385 . S
C2365 H2340 0.951 . S
C2365 C2363 1.388 . S
C2365 C2366 1.366 . S
C2366 C2365 1.366 . S
C2366 C2367 1.414 . S
C2366 C2369 1.499 . S
C2367 H2341 0.950 . S
C2367 C2366 1.414 . S
C2367 C2368 1.374 . S
C2368 H2342 0.950 . S
C2368 C2364 1.385 . S
C2368 C2367 1.374 . S
C2369 C2366 1.499 . S
C2369 C2370 1.373 . S
C2369 C2371 1.389 . S
C2370 H2343 0.950 . S
C2370 C2356 1.377 . S
C2370 C2369 1.373 . S
C2371 C2355 1.377 . S
C2371 C2369 1.389 . S
C2371 C2372 1.524 . S
C2372 C2371 1.524 . S
C2372 C2373 1.397 . S
C2372 C2377 1.363 . S
C2373 H2344 0.950 . S
C2373 C2372 1.397 . S
C2373 C2374 1.334 . S
C2374 H2345 0.950 . S
C2374 C2373 1.334 . S
C2374 C2375 1.287 . S
C2375 C2374 1.287 . S
C2375 C2376 1.524 . S
C2375 H2378 0.999 . S
C2376 H2346 0.950 . S
C2376 C2375 1.524 . S
C2376 C2377 1.415 . S
C2377 H2347 0.950 . S
C2377 C2372 1.363 . S
C2377 C2376 1.415 . S
H2378 C2375 0.999 . S
H2379 C2360 0.913 . S
H2380 C2398 0.951 . S
H2381 C2400 0.951 . S
H2382 C2402 0.950 . S
H2383 C2403 0.950 . S
H2384 C2405 0.950 . S
H2385 C2408 0.950 . S
H2386 C2409 0.950 . S
H2387 C2411 0.950 . S
H2388 C2412 0.950 . S
H2389 C2413 0.951 . S
H2390 C2415 0.951 . S
H2391 C2417 0.950 . S
H2392 C2418 0.950 . S
H2393 C2420 0.950 . S
H2394 C2423 0.950 . S
H2395 C2424 0.950 . S
H2396 C2426 0.950 . S
H2397 C2427 0.955 . S
C2398 H2380 0.951 . S
C2398 C2399 1.366 . S
C2398 C2400 1.388 . S
C2399 C2398 1.366 . S
C2399 C2403 1.385 . S
C2400 H2381 0.951 . S
C2400 C2398 1.388 . S
C2400 C2401 1.366 . S
C2401 C2400 1.366 . S
C2401 C2402 1.414 . S
C2401 C2404 1.499 . S
C2402 H2382 0.950 . S
C2402 C2401 1.414 . S
C2402 C2403 1.374 . S
C2403 H2383 0.950 . S
C2403 C2399 1.385 . S
C2403 C2402 1.374 . S
C2404 C2401 1.499 . S
C2404 C2405 1.373 . S
C2404 C2406 1.389 . S
C2405 H2384 0.950 . S
C2405 C2404 1.373 . S
C2405 C2421 1.377 . S
C2406 C2404 1.389 . S
C2406 C2407 1.524 . S
C2406 C2420 1.377 . S
C2407 C2406 1.524 . S
C2407 C2408 1.397 . S
C2407 C2412 1.363 . S
C2408 H2385 0.950 . S
C2408 C2407 1.397 . S
C2408 C2409 1.334 . S
C2409 H2386 0.950 . S
C2409 C2408 1.334 . S
C2409 C2410 1.287 . S
C2410 C2409 1.287 . S
C2410 C2411 1.524 . S
C2410 H2429 0.913 . S
C2411 H2387 0.950 . S
C2411 C2410 1.524 . S
C2411 C2412 1.415 . S
C2412 H2388 0.950 . S
C2412 C2407 1.363 . S
C2412 C2411 1.415 . S
C2413 H2389 0.951 . S
C2413 C2414 1.366 . S
C2413 C2415 1.388 . S
C2414 C2413 1.366 . S
C2414 C2418 1.385 . S
C2415 H2390 0.951 . S
C2415 C2413 1.388 . S
C2415 C2416 1.366 . S
C2416 C2415 1.366 . S
C2416 C2417 1.414 . S
C2416 C2419 1.499 . S
C2417 H2391 0.950 . S
C2417 C2416 1.414 . S
C2417 C2418 1.374 . S
C2418 H2392 0.950 . S
C2418 C2414 1.385 . S
C2418 C2417 1.374 . S
C2419 C2416 1.499 . S
C2419 C2420 1.373 . S
C2419 C2421 1.389 . S
C2420 H2393 0.950 . S
C2420 C2406 1.377 . S
C2420 C2419 1.373 . S
C2421 C2405 1.377 . S
C2421 C2419 1.389 . S
C2421 C2422 1.524 . S
C2422 C2421 1.524 . S
C2422 C2423 1.397 . S
C2422 C2427 1.374 . S
C2423 H2394 0.950 . S
C2423 C2422 1.397 . S
C2423 C2424 1.334 1_545 S
C2424 H2395 0.950 . S
C2424 C2423 1.334 1_565 S
C2424 C2425 1.287 . S
C2425 C2424 1.287 . S
C2425 C2426 1.524 . S
C2425 H2428 0.999 . S
C2426 H2396 0.950 . S
C2426 C2425 1.524 . S
C2426 C2427 1.399 1_565 S
C2427 H2397 0.955 . S
C2427 C2422 1.374 . S
C2427 C2426 1.399 1_545 S
H2428 C2425 0.999 . S
H2429 C2410 0.913 . S
H2430 C2448 0.951 . S
H2431 C2450 0.951 . S
H2432 C2452 0.950 . S
H2433 C2453 0.950 . S
H2434 C2455 0.950 . S
H2435 C2458 0.950 . S
H2436 C2459 0.950 . S
H2437 C2461 0.950 . S
H2438 C2462 0.950 . S
H2439 C2463 0.951 . S
H2440 C2465 0.951 . S
H2441 C2467 0.950 . S
H2442 C2468 0.950 . S
H2443 C2470 0.950 . S
H2444 C2473 0.950 . S
H2445 C2474 0.950 . S
H2446 C2476 0.950 . S
H2447 C2477 0.950 . S
C2448 H2430 0.951 . S
C2448 C2449 1.366 . S
C2448 C2450 1.388 . S
C2449 C2448 1.366 . S
C2449 C2453 1.385 . S
C2450 H2431 0.951 . S
C2450 C2448 1.388 . S
C2450 C2451 1.366 . S
C2451 C2450 1.366 . S
C2451 C2452 1.414 . S
C2451 C2454 1.499 . S
C2452 H2432 0.950 . S
C2452 C2451 1.414 . S
C2452 C2453 1.374 . S
C2453 H2433 0.950 . S
C2453 C2449 1.385 . S
C2453 C2452 1.374 . S
C2454 C2451 1.499 . S
C2454 C2455 1.373 . S
C2454 C2456 1.389 . S
C2455 H2434 0.950 . S
C2455 C2454 1.373 . S
C2455 C2471 1.377 . S
C2456 C2454 1.389 . S
C2456 C2457 1.524 . S
C2456 C2470 1.377 . S
C2457 C2456 1.524 . S
C2457 C2458 1.397 . S
C2457 C2462 1.363 . S
C2458 H2435 0.950 . S
C2458 C2457 1.397 . S
C2458 C2459 1.334 . S
C2459 H2436 0.950 . S
C2459 C2458 1.334 . S
C2459 C2460 1.287 . S
C2460 C2459 1.287 . S
C2460 C2461 1.524 . S
C2460 H2479 0.913 . S
C2461 H2437 0.950 . S
C2461 C2460 1.524 . S
C2461 C2462 1.415 . S
C2462 H2438 0.950 . S
C2462 C2457 1.363 . S
C2462 C2461 1.415 . S
C2463 H2439 0.951 . S
C2463 C2464 1.366 . S
C2463 C2465 1.388 . S
C2464 C2463 1.366 . S
C2464 C2468 1.385 . S
C2465 H2440 0.951 . S
C2465 C2463 1.388 . S
C2465 C2466 1.366 . S
C2466 C2465 1.366 . S
C2466 C2467 1.414 . S
C2466 C2469 1.499 . S
C2467 H2441 0.950 . S
C2467 C2466 1.414 . S
C2467 C2468 1.374 . S
C2468 H2442 0.950 . S
C2468 C2464 1.385 . S
C2468 C2467 1.374 . S
C2469 C2466 1.499 . S
C2469 C2470 1.373 . S
C2469 C2471 1.389 . S
C2470 H2443 0.950 . S
C2470 C2456 1.377 . S
C2470 C2469 1.373 . S
C2471 C2455 1.377 . S
C2471 C2469 1.389 . S
C2471 C2472 1.524 . S
C2472 C2471 1.524 . S
C2472 C2473 1.397 . S
C2472 C2477 1.363 . S
C2473 H2444 0.950 . S
C2473 C2472 1.397 . S
C2473 C2474 1.334 . S
C2474 H2445 0.950 . S
C2474 C2473 1.334 . S
C2474 C2475 1.287 . S
C2475 C2474 1.287 . S
C2475 C2476 1.524 . S
C2475 H2478 0.999 . S
C2476 H2446 0.950 . S
C2476 C2475 1.524 . S
C2476 C2477 1.415 . S
C2477 H2447 0.950 . S
C2477 C2472 1.363 . S
C2477 C2476 1.415 . S
H2478 C2475 0.999 . S
H2479 C2460 0.913 . S
H2480 C2498 0.951 1_556 S
H2481 C2500 0.951 1_556 S
H2482 C2502 0.950 . S
H2483 C2503 0.950 . S
H2484 C2505 0.950 . S
H2485 C2508 0.950 1_554 S
H2486 C2509 0.950 . S
H2487 C2511 0.950 . S
H2488 C2512 0.950 . S
H2489 C2513 0.951 . S
H2490 C2515 0.951 . S
H2491 C2517 0.950 . S
H2492 C2518 0.950 . S
H2493 C2520 0.950 1_556 S
H2494 C2523 0.950 . S
H2495 C2524 0.950 . S
H2496 C2526 0.950 . S
H2497 C2527 0.950 . S
C2498 H2480 0.951 1_554 S
C2498 C2499 1.366 . S
C2498 C2500 1.388 . S
C2499 C2498 1.366 . S
C2499 C2503 1.385 . S
C2500 H2481 0.951 1_554 S
C2500 C2498 1.388 . S
C2500 C2501 1.366 . S
C2501 C2500 1.366 . S
C2501 C2502 1.414 . S
C2501 C2504 1.499 . S
C2502 H2482 0.950 . S
C2502 C2501 1.414 . S
C2502 C2503 1.374 . S
C2503 H2483 0.950 . S
C2503 C2499 1.385 . S
C2503 C2502 1.374 . S
C2504 C2501 1.499 . S
C2504 C2505 1.373 . S
C2504 C2506 1.389 . S
C2505 H2484 0.950 . S
C2505 C2504 1.373 . S
C2505 C2521 1.377 . S
C2506 C2504 1.389 . S
C2506 C2507 1.524 1_554 S
C2506 C2520 1.377 . S
C2507 C2506 1.524 1_556 S
C2507 C2508 1.397 . S
C2507 C2512 1.363 . S
C2508 H2485 0.950 1_556 S
C2508 C2507 1.397 . S
C2508 C2509 1.334 . S
C2509 H2486 0.950 . S
C2509 C2508 1.334 . S
C2509 C2510 1.287 . S
C2510 C2509 1.287 . S
C2510 C2511 1.524 . S
C2510 H2529 0.913 . S
C2511 H2487 0.950 . S
C2511 C2510 1.524 . S
C2511 C2512 1.415 . S
C2512 H2488 0.950 . S
C2512 C2507 1.363 . S
C2512 C2511 1.415 . S
C2513 H2489 0.951 . S
C2513 C2514 1.366 . S
C2513 C2515 1.388 . S
C2514 C2513 1.366 . S
C2514 C2518 1.385 1_545 S
C2515 H2490 0.951 . S
C2515 C2513 1.388 . S
C2515 C2516 1.366 1_545 S
C2516 C2515 1.366 1_565 S
C2516 C2517 1.414 . S
C2516 C2519 1.499 . S
C2517 H2491 0.950 . S
C2517 C2516 1.414 . S
C2517 C2518 1.374 . S
C2518 H2492 0.950 . S
C2518 C2514 1.385 1_565 S
C2518 C2517 1.374 . S
C2519 C2516 1.499 . S
C2519 C2520 1.373 . S
C2519 C2521 1.389 . S
C2520 H2493 0.950 1_554 S
C2520 C2506 1.377 . S
C2520 C2519 1.373 . S
C2521 C2505 1.377 . S
C2521 C2519 1.389 . S
C2521 C2522 1.524 . S
C2522 C2521 1.524 . S
C2522 C2523 1.397 . S
C2522 C2527 1.363 . S
C2523 H2494 0.950 . S
C2523 C2522 1.397 . S
C2523 C2524 1.334 . S
C2524 H2495 0.950 . S
C2524 C2523 1.334 . S
C2524 C2525 1.287 . S
C2525 C2524 1.287 . S
C2525 C2526 1.524 . S
C2525 H2528 0.999 . S
C2526 H2496 0.950 . S
C2526 C2525 1.524 . S
C2526 C2527 1.415 . S
C2527 H2497 0.950 . S
C2527 C2522 1.363 . S
C2527 C2526 1.415 . S
H2528 C2525 0.999 . S
H2529 C2510 0.913 . S
H2530 C2548 0.951 . S
H2531 C2550 0.951 . S
H2532 C2552 0.950 . S
H2533 C2553 0.950 . S
H2534 C2555 0.950 . S
H2535 C2558 0.950 . S
H2536 C2559 0.950 . S
H2537 C2561 0.950 . S
H2538 C2562 0.950 . S
H2539 C2563 0.951 . S
H2540 C2565 0.951 . S
H2541 C2567 0.950 . S
H2542 C2568 0.950 . S
H2543 C2570 0.950 . S
H2544 C2573 0.950 . S
H2545 C2574 0.950 . S
H2546 C2576 0.950 . S
H2547 C2577 0.950 . S
C2548 H2530 0.951 . S
C2548 C2549 1.366 1_554 S
C2548 C2550 1.388 . S
C2549 C2548 1.366 1_556 S
C2549 C2553 1.385 . S
C2550 H2531 0.951 . S
C2550 C2548 1.388 . S
C2550 C2551 1.345 1_554 S
C2551 C2550 1.345 1_556 S
C2551 C2552 1.442 . S
C2551 C2554 1.494 . S
C2552 H2532 0.950 . S
C2552 C2551 1.442 . S
C2552 C2553 1.374 . S
C2553 H2533 0.950 . S
C2553 C2549 1.385 . S
C2553 C2552 1.374 . S
C2554 C2551 1.494 . S
C2554 C2555 1.379 . S
C2554 C2556 1.382 1_556 S
C2555 H2534 0.950 . S
C2555 C2554 1.379 . S
C2555 C2571 1.377 . S
C2556 C2554 1.382 1_554 S
C2556 C2557 1.524 . S
C2556 C2570 1.377 . S
C2557 C2556 1.524 . S
C2557 C2558 1.397 . S
C2557 C2562 1.363 . S
C2558 H2535 0.950 . S
C2558 C2557 1.397 . S
C2558 C2559 1.334 . S
C2559 H2536 0.950 . S
C2559 C2558 1.334 . S
C2559 C2560 1.287 . S
C2560 C2559 1.287 . S
C2560 C2561 1.524 . S
C2560 H2579 0.913 . S
C2561 H2537 0.950 . S
C2561 C2560 1.524 . S
C2561 C2562 1.415 . S
C2562 H2538 0.950 . S
C2562 C2557 1.363 . S
C2562 C2561 1.415 . S
C2563 H2539 0.951 . S
C2563 C2564 1.366 1_556 S
C2563 C2565 1.388 . S
C2564 C2563 1.366 1_554 S
C2564 C2568 1.385 . S
C2565 H2540 0.951 . S
C2565 C2563 1.388 . S
C2565 C2566 1.366 1_556 S
C2566 C2565 1.366 1_554 S
C2566 C2567 1.414 . S
C2566 C2569 1.499 . S
C2567 H2541 0.950 . S
C2567 C2566 1.414 . S
C2567 C2568 1.374 . S
C2568 H2542 0.950 . S
C2568 C2564 1.385 . S
C2568 C2567 1.374 . S
C2569 C2566 1.499 . S
C2569 C2570 1.373 . S
C2569 C2571 1.389 1_554 S
C2570 H2543 0.950 . S
C2570 C2556 1.377 . S
C2570 C2569 1.373 . S
C2571 C2555 1.377 . S
C2571 C2569 1.389 1_556 S
C2571 C2572 1.524 . S
C2572 C2571 1.524 . S
C2572 C2573 1.397 . S
C2572 C2577 1.363 . S
C2573 H2544 0.950 . S
C2573 C2572 1.397 . S
C2573 C2574 1.334 . S
C2574 H2545 0.950 . S
C2574 C2573 1.334 . S
C2574 C2575 1.287 . S
C2575 C2574 1.287 . S
C2575 C2576 1.524 . S
C2575 H2578 0.999 . S
C2576 H2546 0.950 . S
C2576 C2575 1.524 . S
C2576 C2577 1.415 . S
C2577 H2547 0.950 . S
C2577 C2572 1.363 . S
C2577 C2576 1.415 . S
H2578 C2575 0.999 . S
H2579 C2560 0.913 . S
H2580 C2598 0.951 . S
H2581 C2600 0.951 . S
H2582 C2602 0.950 . S
H2583 C2603 0.950 . S
H2584 C2605 0.950 . S
H2585 C2608 0.950 . S
H2586 C2609 0.950 . S
H2587 C2611 0.950 . S
H2588 C2612 0.950 . S
H2589 C2613 0.951 . S
H2590 C2615 0.951 . S
H2591 C2617 0.950 . S
H2592 C2618 0.950 . S
H2593 C2620 0.950 . S
H2594 C2623 0.950 . S
H2595 C2624 0.950 . S
H2596 C2626 0.950 . S
H2597 C2627 0.950 . S
C2598 H2580 0.951 . S
C2598 C2599 1.366 . S
C2598 C2600 1.388 . S
C2599 C2598 1.366 . S
C2599 C2603 1.385 . S
C2600 H2581 0.951 . S
C2600 C2598 1.388 . S
C2600 C2601 1.366 . S
C2601 C2600 1.366 . S
C2601 C2602 1.414 . S
C2601 C2604 1.499 . S
C2602 H2582 0.950 . S
C2602 C2601 1.414 . S
C2602 C2603 1.374 . S
C2603 H2583 0.950 . S
C2603 C2599 1.385 . S
C2603 C2602 1.374 . S
C2604 C2601 1.499 . S
C2604 C2605 1.373 . S
C2604 C2606 1.389 . S
C2605 H2584 0.950 . S
C2605 C2604 1.373 . S
C2605 C2621 1.377 . S
C2606 C2604 1.389 . S
C2606 C2607 1.524 . S
C2606 C2620 1.377 . S
C2607 C2606 1.524 . S
C2607 C2608 1.397 . S
C2607 C2612 1.363 . S
C2608 H2585 0.950 . S
C2608 C2607 1.397 . S
C2608 C2609 1.334 . S
C2609 H2586 0.950 . S
C2609 C2608 1.334 . S
C2609 C2610 1.287 . S
C2610 C2609 1.287 . S
C2610 C2611 1.524 . S
C2610 H2629 0.913 . S
C2611 H2587 0.950 . S
C2611 C2610 1.524 . S
C2611 C2612 1.415 . S
C2612 H2588 0.950 . S
C2612 C2607 1.363 . S
C2612 C2611 1.415 . S
C2613 H2589 0.951 . S
C2613 C2614 1.366 . S
C2613 C2615 1.388 . S
C2614 C2613 1.366 . S
C2614 C2618 1.385 . S
C2615 H2590 0.951 . S
C2615 C2613 1.388 . S
C2615 C2616 1.366 . S
C2616 C2615 1.366 . S
C2616 C2617 1.414 . S
C2616 C2619 1.499 . S
C2617 H2591 0.950 . S
C2617 C2616 1.414 . S
C2617 C2618 1.374 . S
C2618 H2592 0.950 . S
C2618 C2614 1.385 . S
C2618 C2617 1.374 . S
C2619 C2616 1.499 . S
C2619 C2620 1.373 . S
C2619 C2621 1.389 . S
C2620 H2593 0.950 . S
C2620 C2606 1.377 . S
C2620 C2619 1.373 . S
C2621 C2605 1.377 . S
C2621 C2619 1.389 . S
C2621 C2622 1.524 . S
C2622 C2621 1.524 . S
C2622 C2623 1.397 . S
C2622 C2627 1.363 . S
C2623 H2594 0.950 . S
C2623 C2622 1.397 . S
C2623 C2624 1.334 . S
C2624 H2595 0.950 . S
C2624 C2623 1.334 . S
C2624 C2625 1.287 . S
C2625 C2624 1.287 . S
C2625 C2626 1.524 . S
C2625 H2628 0.999 . S
C2626 H2596 0.950 . S
C2626 C2625 1.524 . S
C2626 C2627 1.415 . S
C2627 H2597 0.950 . S
C2627 C2622 1.363 . S
C2627 C2626 1.415 . S
H2628 C2625 0.999 . S
H2629 C2610 0.913 . S
H2630 C2648 0.951 . S
H2631 C2650 0.951 . S
H2632 C2652 0.950 . S
H2633 C2653 0.950 . S
H2634 C2655 0.950 . S
H2635 C2658 0.950 . S
H2636 C2659 0.950 . S
H2637 C2661 0.950 . S
H2638 C2662 0.950 . S
H2639 C2663 0.962 . S
H2640 C2665 0.951 . S
H2641 C2667 0.950 . S
H2642 C2668 0.950 . S
H2643 C2670 0.950 . S
H2644 C2673 0.950 . S
H2645 C2674 0.950 . S
H2646 C2676 0.950 . S
H2647 C2677 0.950 . S
C2648 H2630 0.951 . S
C2648 C2649 1.366 . S
C2648 C2650 1.388 . S
C2649 C2648 1.366 . S
C2649 C2653 1.385 . S
C2650 H2631 0.951 . S
C2650 C2648 1.388 . S
C2650 C2651 1.366 . S
C2651 C2650 1.366 . S
C2651 C2652 1.414 . S
C2651 C2654 1.499 . S
C2652 H2632 0.950 . S
C2652 C2651 1.414 . S
C2652 C2653 1.374 . S
C2653 H2633 0.950 . S
C2653 C2649 1.385 . S
C2653 C2652 1.374 . S
C2654 C2651 1.499 . S
C2654 C2655 1.373 . S
C2654 C2656 1.389 . S
C2655 H2634 0.950 . S
C2655 C2654 1.373 . S
C2655 C2671 1.377 . S
C2656 C2654 1.389 . S
C2656 C2657 1.524 . S
C2656 C2670 1.377 . S
C2657 C2656 1.524 . S
C2657 C2658 1.397 . S
C2657 C2662 1.363 . S
C2658 H2635 0.950 . S
C2658 C2657 1.397 . S
C2658 C2659 1.334 . S
C2659 H2636 0.950 . S
C2659 C2658 1.334 . S
C2659 C2660 1.287 . S
C2660 C2659 1.287 . S
C2660 C2661 1.524 . S
C2660 H2679 0.913 . S
C2661 H2637 0.950 . S
C2661 C2660 1.524 . S
C2661 C2662 1.415 . S
C2662 H2638 0.950 . S
C2662 C2657 1.363 . S
C2662 C2661 1.415 . S
C2663 H2639 0.962 . S
C2663 C2664 1.404 . S
C2663 C2665 1.341 1_455 S
C2664 C2663 1.404 . S
C2664 C2668 1.385 . S
C2665 H2640 0.951 . S
C2665 C2663 1.341 1_655 S
C2665 C2666 1.366 . S
C2666 C2665 1.366 . S
C2666 C2667 1.414 . S
C2666 C2669 1.499 . S
C2667 H2641 0.950 . S
C2667 C2666 1.414 . S
C2667 C2668 1.374 1_655 S
C2668 H2642 0.950 . S
C2668 C2664 1.385 . S
C2668 C2667 1.374 1_455 S
C2669 C2666 1.499 . S
C2669 C2670 1.373 . S
C2669 C2671 1.389 . S
C2670 H2643 0.950 . S
C2670 C2656 1.377 . S
C2670 C2669 1.373 . S
C2671 C2655 1.377 . S
C2671 C2669 1.389 . S
C2671 C2672 1.524 . S
C2672 C2671 1.524 . S
C2672 C2673 1.397 . S
C2672 C2677 1.363 . S
C2673 H2644 0.950 . S
C2673 C2672 1.397 . S
C2673 C2674 1.334 . S
C2674 H2645 0.950 . S
C2674 C2673 1.334 . S
C2674 C2675 1.287 . S
C2675 C2674 1.287 . S
C2675 C2676 1.524 . S
C2675 H2678 0.999 . S
C2676 H2646 0.950 . S
C2676 C2675 1.524 . S
C2676 C2677 1.415 . S
C2677 H2647 0.950 . S
C2677 C2672 1.363 . S
C2677 C2676 1.415 . S
H2678 C2675 0.999 . S
H2679 C2660 0.913 . S
H2680 C2698 0.951 . S
H2681 C2700 0.951 . S
H2682 C2702 0.950 . S
H2683 C2703 0.950 . S
H2684 C2705 0.950 . S
H2685 C2708 0.950 . S
H2686 C2709 0.950 . S
H2687 C2711 0.950 . S
H2688 C2712 0.950 . S
H2689 C2713 0.951 . S
H2690 C2715 0.951 . S
H2691 C2717 0.950 . S
H2692 C2718 0.950 . S
H2693 C2720 0.950 . S
H2694 C2723 0.950 . S
H2695 C2724 0.950 . S
H2696 C2726 0.950 . S
H2697 C2727 0.950 . S
C2698 H2680 0.951 . S
C2698 C2699 1.366 . S
C2698 C2700 1.388 . S
C2699 C2698 1.366 . S
C2699 C2703 1.385 . S
C2700 H2681 0.951 . S
C2700 C2698 1.388 . S
C2700 C2701 1.366 . S
C2701 C2700 1.366 . S
C2701 C2702 1.414 . S
C2701 C2704 1.499 . S
C2702 H2682 0.950 . S
C2702 C2701 1.414 . S
C2702 C2703 1.374 . S
C2703 H2683 0.950 . S
C2703 C2699 1.385 . S
C2703 C2702 1.374 . S
C2704 C2701 1.499 . S
C2704 C2705 1.373 . S
C2704 C2706 1.389 . S
C2705 H2684 0.950 . S
C2705 C2704 1.373 . S
C2705 C2721 1.377 . S
C2706 C2704 1.389 . S
C2706 C2707 1.524 . S
C2706 C2720 1.377 . S
C2707 C2706 1.524 . S
C2707 C2708 1.397 . S
C2707 C2712 1.363 . S
C2708 H2685 0.950 . S
C2708 C2707 1.397 . S
C2708 C2709 1.334 . S
C2709 H2686 0.950 . S
C2709 C2708 1.334 . S
C2709 C2710 1.287 . S
C2710 C2709 1.287 . S
C2710 C2711 1.524 . S
C2710 H2729 0.913 . S
C2711 H2687 0.950 . S
C2711 C2710 1.524 . S
C2711 C2712 1.415 . S
C2712 H2688 0.950 . S
C2712 C2707 1.363 . S
C2712 C2711 1.415 . S
C2713 H2689 0.951 . S
C2713 C2714 1.366 . S
C2713 C2715 1.388 . S
C2714 C2713 1.366 . S
C2714 C2718 1.385 . S
C2715 H2690 0.951 . S
C2715 C2713 1.388 . S
C2715 C2716 1.366 . S
C2716 C2715 1.366 . S
C2716 C2717 1.414 . S
C2716 C2719 1.499 . S
C2717 H2691 0.950 . S
C2717 C2716 1.414 . S
C2717 C2718 1.374 . S
C2718 H2692 0.950 . S
C2718 C2714 1.385 . S
C2718 C2717 1.374 . S
C2719 C2716 1.499 . S
C2719 C2720 1.373 . S
C2719 C2721 1.389 . S
C2720 H2693 0.950 . S
C2720 C2706 1.377 . S
C2720 C2719 1.373 . S
C2721 C2705 1.377 . S
C2721 C2719 1.389 . S
C2721 C2722 1.524 . S
C2722 C2721 1.524 . S
C2722 C2723 1.397 . S
C2722 C2727 1.363 . S
C2723 H2694 0.950 . S
C2723 C2722 1.397 . S
C2723 C2724 1.334 . S
C2724 H2695 0.950 . S
C2724 C2723 1.334 . S
C2724 C2725 1.287 . S
C2725 C2724 1.287 . S
C2725 C2726 1.524 . S
C2725 H2728 0.999 . S
C2726 H2696 0.950 . S
C2726 C2725 1.524 . S
C2726 C2727 1.415 . S
C2727 H2697 0.950 . S
C2727 C2722 1.363 . S
C2727 C2726 1.415 . S
H2728 C2725 0.999 . S
H2729 C2710 0.913 . S
H2730 C2748 0.951 . S
H2731 C2750 0.951 . S
H2732 C2752 0.950 . S
H2733 C2753 0.950 . S
H2734 C2755 0.950 . S
H2735 C2758 0.950 . S
H2736 C2759 0.950 . S
H2737 C2761 0.950 . S
H2738 C2762 0.950 . S
H2739 C2763 0.951 . S
H2740 C2765 0.951 . S
H2741 C2767 0.950 . S
H2742 C2768 0.950 . S
H2743 C2770 0.950 . S
H2744 C2773 0.950 . S
H2745 C2774 0.950 . S
H2746 C2776 0.950 . S
H2747 C2777 0.950 . S
C2748 H2730 0.951 . S
C2748 C2749 1.366 . S
C2748 C2750 1.388 . S
C2749 C2748 1.366 . S
C2749 C2753 1.385 . S
C2750 H2731 0.951 . S
C2750 C2748 1.388 . S
C2750 C2751 1.366 . S
C2751 C2750 1.366 . S
C2751 C2752 1.414 . S
C2751 C2754 1.499 . S
C2752 H2732 0.950 . S
C2752 C2751 1.414 . S
C2752 C2753 1.374 . S
C2753 H2733 0.950 . S
C2753 C2749 1.385 . S
C2753 C2752 1.374 . S
C2754 C2751 1.499 . S
C2754 C2755 1.373 . S
C2754 C2756 1.389 . S
C2755 H2734 0.950 . S
C2755 C2754 1.373 . S
C2755 C2771 1.377 . S
C2756 C2754 1.389 . S
C2756 C2757 1.524 . S
C2756 C2770 1.377 . S
C2757 C2756 1.524 . S
C2757 C2758 1.397 . S
C2757 C2762 1.363 . S
C2758 H2735 0.950 . S
C2758 C2757 1.397 . S
C2758 C2759 1.334 . S
C2759 H2736 0.950 . S
C2759 C2758 1.334 . S
C2759 C2760 1.287 . S
C2760 C2759 1.287 . S
C2760 C2761 1.524 . S
C2760 H2779 0.913 . S
C2761 H2737 0.950 . S
C2761 C2760 1.524 . S
C2761 C2762 1.415 . S
C2762 H2738 0.950 . S
C2762 C2757 1.363 . S
C2762 C2761 1.415 . S
C2763 H2739 0.951 . S
C2763 C2764 1.366 . S
C2763 C2765 1.388 . S
C2764 C2763 1.366 . S
C2764 C2768 1.385 . S
C2765 H2740 0.951 . S
C2765 C2763 1.388 . S
C2765 C2766 1.366 . S
C2766 C2765 1.366 . S
C2766 C2767 1.414 . S
C2766 C2769 1.499 . S
C2767 H2741 0.950 . S
C2767 C2766 1.414 . S
C2767 C2768 1.374 . S
C2768 H2742 0.950 . S
C2768 C2764 1.385 . S
C2768 C2767 1.374 . S
C2769 C2766 1.499 . S
C2769 C2770 1.373 . S
C2769 C2771 1.389 . S
C2770 H2743 0.950 . S
C2770 C2756 1.377 . S
C2770 C2769 1.373 . S
C2771 C2755 1.377 . S
C2771 C2769 1.389 . S
C2771 C2772 1.524 . S
C2772 C2771 1.524 . S
C2772 C2773 1.397 . S
C2772 C2777 1.363 . S
C2773 H2744 0.950 . S
C2773 C2772 1.397 . S
C2773 C2774 1.334 . S
C2774 H2745 0.950 . S
C2774 C2773 1.334 . S
C2774 C2775 1.287 . S
C2775 C2774 1.287 . S
C2775 C2776 1.524 . S
C2775 H2778 0.999 . S
C2776 H2746 0.950 . S
C2776 C2775 1.524 . S
C2776 C2777 1.415 . S
C2777 H2747 0.950 . S
C2777 C2772 1.363 . S
C2777 C2776 1.415 . S
H2778 C2775 0.999 . S
H2779 C2760 0.913 . S
H2780 C2798 0.951 . S
H2781 C2800 0.951 . S
H2782 C2802 0.950 . S
H2783 C2803 0.950 . S
H2784 C2805 0.950 . S
H2785 C2808 0.950 . S
H2786 C2809 0.950 . S
H2787 C2811 0.950 . S
H2788 C2812 0.950 . S
H2789 C2813 0.951 . S
H2790 C2815 0.951 . S
H2791 C2817 0.950 . S
H2792 C2818 0.950 . S
H2793 C2820 0.950 . S
H2794 C2823 0.950 . S
H2795 C2824 0.950 . S
H2796 C2826 0.950 . S
H2797 C2827 0.950 . S
C2798 H2780 0.951 . S
C2798 C2799 1.366 . S
C2798 C2800 1.388 . S
C2799 C2798 1.366 . S
C2799 C2803 1.385 . S
C2800 H2781 0.951 . S
C2800 C2798 1.388 . S
C2800 C2801 1.366 . S
C2801 C2800 1.366 . S
C2801 C2802 1.414 . S
C2801 C2804 1.499 . S
C2802 H2782 0.950 . S
C2802 C2801 1.414 . S
C2802 C2803 1.374 . S
C2803 H2783 0.950 . S
C2803 C2799 1.385 . S
C2803 C2802 1.374 . S
C2804 C2801 1.499 . S
C2804 C2805 1.373 . S
C2804 C2806 1.389 . S
C2805 H2784 0.950 . S
C2805 C2804 1.373 . S
C2805 C2821 1.377 . S
C2806 C2804 1.389 . S
C2806 C2807 1.524 . S
C2806 C2820 1.377 . S
C2807 C2806 1.524 . S
C2807 C2808 1.397 . S
C2807 C2812 1.363 . S
C2808 H2785 0.950 . S
C2808 C2807 1.397 . S
C2808 C2809 1.334 . S
C2809 H2786 0.950 . S
C2809 C2808 1.334 . S
C2809 C2810 1.287 . S
C2810 C2809 1.287 . S
C2810 C2811 1.524 . S
C2810 H2829 0.913 . S
C2811 H2787 0.950 . S
C2811 C2810 1.524 . S
C2811 C2812 1.415 . S
C2812 H2788 0.950 . S
C2812 C2807 1.363 . S
C2812 C2811 1.415 . S
C2813 H2789 0.951 . S
C2813 C2814 1.366 . S
C2813 C2815 1.388 . S
C2814 C2813 1.366 . S
C2814 C2818 1.385 . S
C2815 H2790 0.951 . S
C2815 C2813 1.388 . S
C2815 C2816 1.366 . S
C2816 C2815 1.366 . S
C2816 C2817 1.414 . S
C2816 C2819 1.499 . S
C2817 H2791 0.950 . S
C2817 C2816 1.414 . S
C2817 C2818 1.374 . S
C2818 H2792 0.950 . S
C2818 C2814 1.385 . S
C2818 C2817 1.374 . S
C2819 C2816 1.499 . S
C2819 C2820 1.373 . S
C2819 C2821 1.389 . S
C2820 H2793 0.950 . S
C2820 C2806 1.377 . S
C2820 C2819 1.373 . S
C2821 C2805 1.377 . S
C2821 C2819 1.389 . S
C2821 C2822 1.524 . S
C2822 C2821 1.524 . S
C2822 C2823 1.397 . S
C2822 C2827 1.363 . S
C2823 H2794 0.950 . S
C2823 C2822 1.397 . S
C2823 C2824 1.334 . S
C2824 H2795 0.950 . S
C2824 C2823 1.334 . S
C2824 C2825 1.287 . S
C2825 C2824 1.287 . S
C2825 C2826 1.524 . S
C2825 H2828 0.999 . S
C2826 H2796 0.950 . S
C2826 C2825 1.524 . S
C2826 C2827 1.415 . S
C2827 H2797 0.950 . S
C2827 C2822 1.363 . S
C2827 C2826 1.415 . S
H2828 C2825 0.999 . S
H2829 C2810 0.913 . S
H2830 C2848 0.951 . S
H2831 C2850 0.951 . S
H2832 C2852 0.950 . S
H2833 C2853 0.950 . S
H2834 C2855 0.950 . S
H2835 C2858 0.950 . S
H2836 C2859 0.950 . S
H2837 C2861 0.950 . S
H2838 C2862 0.950 . S
H2839 C2863 0.951 . S
H2840 C2865 0.951 . S
H2841 C2867 0.950 . S
H2842 C2868 0.950 . S
H2843 C2870 0.950 . S
H2844 C2873 0.950 . S
H2845 C2874 0.950 . S
H2846 C2876 0.950 . S
H2847 C2877 0.950 . S
C2848 H2830 0.951 . S
C2848 C2849 1.366 . S
C2848 C2850 1.388 . S
C2849 C2848 1.366 . S
C2849 C2853 1.385 . S
C2850 H2831 0.951 . S
C2850 C2848 1.388 . S
C2850 C2851 1.366 . S
C2851 C2850 1.366 . S
C2851 C2852 1.414 . S
C2851 C2854 1.499 . S
C2852 H2832 0.950 . S
C2852 C2851 1.414 . S
C2852 C2853 1.374 . S
C2853 H2833 0.950 . S
C2853 C2849 1.385 . S
C2853 C2852 1.374 . S
C2854 C2851 1.499 . S
C2854 C2855 1.373 . S
C2854 C2856 1.389 . S
C2855 H2834 0.950 . S
C2855 C2854 1.373 . S
C2855 C2871 1.377 . S
C2856 C2854 1.389 . S
C2856 C2857 1.524 . S
C2856 C2870 1.377 . S
C2857 C2856 1.524 . S
C2857 C2858 1.397 . S
C2857 C2862 1.363 . S
C2858 H2835 0.950 . S
C2858 C2857 1.397 . S
C2858 C2859 1.334 . S
C2859 H2836 0.950 . S
C2859 C2858 1.334 . S
C2859 C2860 1.287 . S
C2860 C2859 1.287 . S
C2860 C2861 1.524 . S
C2860 H2879 0.913 . S
C2861 H2837 0.950 . S
C2861 C2860 1.524 . S
C2861 C2862 1.415 . S
C2862 H2838 0.950 . S
C2862 C2857 1.363 . S
C2862 C2861 1.415 . S
C2863 H2839 0.951 . S
C2863 C2864 1.366 . S
C2863 C2865 1.388 . S
C2864 C2863 1.366 . S
C2864 C2868 1.385 . S
C2865 H2840 0.951 . S
C2865 C2863 1.388 . S
C2865 C2866 1.366 . S
C2866 C2865 1.366 . S
C2866 C2867 1.414 . S
C2866 C2869 1.499 . S
C2867 H2841 0.950 . S
C2867 C2866 1.414 . S
C2867 C2868 1.374 . S
C2868 H2842 0.950 . S
C2868 C2864 1.385 . S
C2868 C2867 1.374 . S
C2869 C2866 1.499 . S
C2869 C2870 1.373 . S
C2869 C2871 1.389 . S
C2870 H2843 0.950 . S
C2870 C2856 1.377 . S
C2870 C2869 1.373 . S
C2871 C2855 1.377 . S
C2871 C2869 1.389 . S
C2871 C2872 1.524 . S
C2872 C2871 1.524 . S
C2872 C2873 1.397 . S
C2872 C2877 1.363 . S
C2873 H2844 0.950 . S
C2873 C2872 1.397 . S
C2873 C2874 1.334 . S
C2874 H2845 0.950 . S
C2874 C2873 1.334 . S
C2874 C2875 1.287 . S
C2875 C2874 1.287 . S
C2875 C2876 1.524 . S
C2875 H2878 0.999 . S
C2876 H2846 0.950 . S
C2876 C2875 1.524 . S
C2876 C2877 1.415 . S
C2877 H2847 0.950 . S
C2877 C2872 1.363 . S
C2877 C2876 1.415 . S
H2878 C2875 0.999 . S
H2879 C2860 0.913 . S
H2880 C2898 0.951 . S
H2881 C2900 0.951 . S
H2882 C2902 0.950 . S
H2883 C2903 0.950 . S
H2884 C2905 0.950 . S
H2885 C2908 0.950 . S
H2886 C2909 0.950 . S
H2887 C2911 0.950 . S
H2888 C2912 0.950 . S
H2889 C2913 0.951 . S
H2890 C2915 0.951 . S
H2891 C2917 0.950 . S
H2892 C2918 0.950 . S
H2893 C2920 0.950 . S
H2894 C2923 0.950 . S
H2895 C2924 0.950 1_556 S
H2896 C2926 0.913 1_655 S
H2897 C2927 0.950 . S
C2898 H2880 0.951 . S
C2898 C2899 1.366 . S
C2898 C2900 1.388 . S
C2899 C2898 1.366 . S
C2899 C2903 1.385 . S
C2900 H2881 0.951 . S
C2900 C2898 1.388 . S
C2900 C2901 1.366 . S
C2901 C2900 1.366 . S
C2901 C2902 1.414 . S
C2901 C2904 1.499 . S
C2902 H2882 0.950 . S
C2902 C2901 1.414 . S
C2902 C2903 1.374 . S
C2903 H2883 0.950 . S
C2903 C2899 1.385 . S
C2903 C2902 1.374 . S
C2904 C2901 1.499 . S
C2904 C2905 1.373 . S
C2904 C2906 1.389 . S
C2905 H2884 0.950 . S
C2905 C2904 1.373 . S
C2905 C2921 1.377 . S
C2906 C2904 1.389 . S
C2906 C2907 1.524 . S
C2906 C2920 1.377 . S
C2907 C2906 1.524 . S
C2907 C2908 1.397 . S
C2907 C2912 1.363 . S
C2908 H2885 0.950 . S
C2908 C2907 1.397 . S
C2908 C2909 1.334 . S
C2909 H2886 0.950 . S
C2909 C2908 1.334 . S
C2909 C2910 1.287 . S
C2910 C2909 1.287 . S
C2910 C2911 1.524 . S
C2910 H2929 0.913 . S
C2911 H2887 0.950 . S
C2911 C2910 1.524 . S
C2911 C2912 1.415 . S
C2912 H2888 0.950 . S
C2912 C2907 1.363 . S
C2912 C2911 1.415 . S
C2913 H2889 0.951 . S
C2913 C2914 1.366 . S
C2913 C2915 1.388 . S
C2914 C2913 1.366 . S
C2914 C2918 1.385 . S
C2915 H2890 0.951 . S
C2915 C2913 1.388 . S
C2915 C2916 1.366 . S
C2916 C2915 1.366 . S
C2916 C2917 1.414 . S
C2916 C2919 1.499 . S
C2917 H2891 0.950 . S
C2917 C2916 1.414 . S
C2917 C2918 1.374 . S
C2918 H2892 0.950 . S
C2918 C2914 1.385 . S
C2918 C2917 1.374 . S
C2919 C2916 1.499 . S
C2919 C2920 1.373 . S
C2919 C2921 1.389 . S
C2920 H2893 0.950 . S
C2920 C2906 1.377 . S
C2920 C2919 1.373 . S
C2921 C2905 1.377 . S
C2921 C2919 1.389 . S
C2921 C2922 1.524 . S
C2922 C2921 1.524 . S
C2922 C2923 1.397 . S
C2922 C2927 1.363 . S
C2923 H2894 0.950 . S
C2923 C2922 1.397 . S
C2923 C2924 1.334 . S
C2924 H2895 0.950 1_554 S
C2924 C2923 1.334 . S
C2924 C2925 1.287 . S
C2925 C2924 1.287 . S
C2925 C2926 1.528 . S
C2925 H2928 0.999 1_455 S
C2926 H2896 0.913 1_455 S
C2926 C2925 1.528 . S
C2926 C2927 1.453 . S
C2927 H2897 0.950 . S
C2927 C2922 1.363 . S
C2927 C2926 1.453 . S
H2928 C2925 0.999 1_655 S
H2929 C2910 0.913 . S
H2930 C2948 0.951 . S
H2931 C2950 0.951 . S
H2932 C2952 0.950 . S
H2933 C2953 0.950 . S
H2934 C2955 0.950 . S
H2935 C2958 0.950 . S
H2936 C2959 0.950 . S
H2937 C2961 0.950 . S
H2938 C2962 0.950 . S
H2939 C2963 0.951 . S
H2940 C2965 0.951 . S
H2941 C2967 0.950 . S
H2942 C2968 0.950 . S
H2943 C2970 0.950 . S
H2944 C2973 0.950 . S
H2945 C2974 0.950 . S
H2946 C2976 0.950 . S
H2947 C2977 0.950 . S
C2948 H2930 0.951 . S
C2948 C2949 1.366 . S
C2948 C2950 1.388 . S
C2949 C2948 1.366 . S
C2949 C2953 1.385 . S
C2950 H2931 0.951 . S
C2950 C2948 1.388 . S
C2950 C2951 1.366 . S
C2951 C2950 1.366 . S
C2951 C2952 1.414 . S
C2951 C2954 1.499 . S
C2952 H2932 0.950 . S
C2952 C2951 1.414 . S
C2952 C2953 1.374 . S
C2953 H2933 0.950 . S
C2953 C2949 1.385 . S
C2953 C2952 1.374 . S
C2954 C2951 1.499 . S
C2954 C2955 1.373 . S
C2954 C2956 1.389 . S
C2955 H2934 0.950 . S
C2955 C2954 1.373 . S
C2955 C2971 1.377 . S
C2956 C2954 1.389 . S
C2956 C2957 1.524 . S
C2956 C2970 1.377 . S
C2957 C2956 1.524 . S
C2957 C2958 1.397 . S
C2957 C2962 1.363 . S
C2958 H2935 0.950 . S
C2958 C2957 1.397 . S
C2958 C2959 1.334 . S
C2959 H2936 0.950 . S
C2959 C2958 1.334 . S
C2959 C2960 1.287 . S
C2960 C2959 1.287 . S
C2960 C2961 1.524 . S
C2960 H2979 0.913 . S
C2961 H2937 0.950 . S
C2961 C2960 1.524 . S
C2961 C2962 1.415 . S
C2962 H2938 0.950 . S
C2962 C2957 1.363 . S
C2962 C2961 1.415 . S
C2963 H2939 0.951 . S
C2963 C2964 1.366 . S
C2963 C2965 1.388 . S
C2964 C2963 1.366 . S
C2964 C2968 1.385 . S
C2965 H2940 0.951 . S
C2965 C2963 1.388 . S
C2965 C2966 1.366 . S
C2966 C2965 1.366 . S
C2966 C2967 1.414 . S
C2966 C2969 1.499 . S
C2967 H2941 0.950 . S
C2967 C2966 1.414 . S
C2967 C2968 1.374 . S
C2968 H2942 0.950 . S
C2968 C2964 1.385 . S
C2968 C2967 1.374 . S
C2969 C2966 1.499 . S
C2969 C2970 1.373 . S
C2969 C2971 1.389 . S
C2970 H2943 0.950 . S
C2970 C2956 1.377 . S
C2970 C2969 1.373 . S
C2971 C2955 1.377 . S
C2971 C2969 1.389 . S
C2971 C2972 1.524 . S
C2972 C2971 1.524 . S
C2972 C2973 1.397 . S
C2972 C2977 1.363 . S
C2973 H2944 0.950 . S
C2973 C2972 1.397 . S
C2973 C2974 1.334 . S
C2974 H2945 0.950 . S
C2974 C2973 1.334 . S
C2974 C2975 1.287 . S
C2975 C2974 1.287 . S
C2975 C2976 1.524 . S
C2975 H2978 0.999 . S
C2976 H2946 0.950 . S
C2976 C2975 1.524 . S
C2976 C2977 1.415 . S
C2977 H2947 0.950 . S
C2977 C2972 1.363 . S
C2977 C2976 1.415 . S
H2978 C2975 0.999 . S
H2979 C2960 0.913 . S
H2980 C2998 0.951 . S
H2981 C3000 0.951 . S
H2982 C3002 0.950 . S
H2983 C3003 0.950 . S
H2984 C3005 0.950 . S
H2985 C3008 0.950 . S
H2986 C3009 0.950 . S
H2987 C3011 0.950 . S
H2988 C3012 0.950 . S
H2989 C3013 0.951 . S
H2990 C3015 0.951 . S
H2991 C3017 0.950 . S
H2992 C3018 0.950 . S
H2993 C3020 0.950 . S
H2994 C3023 0.950 . S
H2995 C3024 0.950 . S
H2996 C3026 0.950 . S
H2997 C3027 0.950 . S
C2998 H2980 0.951 . S
C2998 C2999 1.366 . S
C2998 C3000 1.388 . S
C2999 C2998 1.366 . S
C2999 C3003 1.385 . S
C3000 H2981 0.951 . S
C3000 C2998 1.388 . S
C3000 C3001 1.366 . S
C3001 C3000 1.366 . S
C3001 C3002 1.414 . S
C3001 C3004 1.499 . S
C3002 H2982 0.950 . S
C3002 C3001 1.414 . S
C3002 C3003 1.374 . S
C3003 H2983 0.950 . S
C3003 C2999 1.385 . S
C3003 C3002 1.374 . S
C3004 C3001 1.499 . S
C3004 C3005 1.373 . S
C3004 C3006 1.389 . S
C3005 H2984 0.950 . S
C3005 C3004 1.373 . S
C3005 C3021 1.377 . S
C3006 C3004 1.389 . S
C3006 C3007 1.524 . S
C3006 C3020 1.377 . S
C3007 C3006 1.524 . S
C3007 C3008 1.397 . S
C3007 C3012 1.363 . S
C3008 H2985 0.950 . S
C3008 C3007 1.397 . S
C3008 C3009 1.334 . S
C3009 H2986 0.950 . S
C3009 C3008 1.334 . S
C3009 C3010 1.287 . S
C3010 C3009 1.287 . S
C3010 C3011 1.524 . S
C3010 H3029 0.913 . S
C3011 H2987 0.950 . S
C3011 C3010 1.524 . S
C3011 C3012 1.415 . S
C3012 H2988 0.950 . S
C3012 C3007 1.363 . S
C3012 C3011 1.415 . S
C3013 H2989 0.951 . S
C3013 C3014 1.366 . S
C3013 C3015 1.388 . S
C3014 C3013 1.366 . S
C3014 C3018 1.385 . S
C3015 H2990 0.951 . S
C3015 C3013 1.388 . S
C3015 C3016 1.366 . S
C3016 C3015 1.366 . S
C3016 C3017 1.414 . S
C3016 C3019 1.499 . S
C3017 H2991 0.950 . S
C3017 C3016 1.414 . S
C3017 C3018 1.374 . S
C3018 H2992 0.950 . S
C3018 C3014 1.385 . S
C3018 C3017 1.374 . S
C3019 C3016 1.499 . S
C3019 C3020 1.373 . S
C3019 C3021 1.389 . S
C3020 H2993 0.950 . S
C3020 C3006 1.377 . S
C3020 C3019 1.373 . S
C3021 C3005 1.377 . S
C3021 C3019 1.389 . S
C3021 C3022 1.524 . S
C3022 C3021 1.524 . S
C3022 C3023 1.397 . S
C3022 C3027 1.363 . S
C3023 H2994 0.950 . S
C3023 C3022 1.397 . S
C3023 C3024 1.334 . S
C3024 H2995 0.950 . S
C3024 C3023 1.334 . S
C3024 C3025 1.287 . S
C3025 C3024 1.287 . S
C3025 C3026 1.524 . S
C3025 H3028 0.999 . S
C3026 H2996 0.950 . S
C3026 C3025 1.524 . S
C3026 C3027 1.415 . S
C3027 H2997 0.950 . S
C3027 C3022 1.363 . S
C3027 C3026 1.415 . S
H3028 C3025 0.999 . S
H3029 C3010 0.913 . S
H3030 C3048 0.951 . S
H3031 C3050 0.951 . S
H3032 C3052 0.950 . S
H3033 C3053 0.950 . S
H3034 C3055 0.950 . S
H3035 C3058 0.950 . S
H3036 C3059 0.950 . S
H3037 C3061 0.950 . S
H3038 C3062 0.950 . S
H3039 C3063 0.951 . S
H3040 C3065 0.951 . S
H3041 C3067 0.950 . S
H3042 C3068 0.950 . S
H3043 C3070 0.950 . S
H3044 C3073 0.950 . S
H3045 C3074 0.950 . S
H3046 C3076 0.950 . S
H3047 C3077 0.950 . S
C3048 H3030 0.951 . S
C3048 C3049 1.366 . S
C3048 C3050 1.388 . S
C3049 C3048 1.366 . S
C3049 C3053 1.385 . S
C3050 H3031 0.951 . S
C3050 C3048 1.388 . S
C3050 C3051 1.366 . S
C3051 C3050 1.366 . S
C3051 C3052 1.414 . S
C3051 C3054 1.499 . S
C3052 H3032 0.950 . S
C3052 C3051 1.414 . S
C3052 C3053 1.374 . S
C3053 H3033 0.950 . S
C3053 C3049 1.385 . S
C3053 C3052 1.374 . S
C3054 C3051 1.499 . S
C3054 C3055 1.373 . S
C3054 C3056 1.389 . S
C3055 H3034 0.950 . S
C3055 C3054 1.373 . S
C3055 C3071 1.377 . S
C3056 C3054 1.389 . S
C3056 C3057 1.524 . S
C3056 C3070 1.377 . S
C3057 C3056 1.524 . S
C3057 C3058 1.397 . S
C3057 C3062 1.363 . S
C3058 H3035 0.950 . S
C3058 C3057 1.397 . S
C3058 C3059 1.334 . S
C3059 H3036 0.950 . S
C3059 C3058 1.334 . S
C3059 C3060 1.287 . S
C3060 C3059 1.287 . S
C3060 C3061 1.524 . S
C3060 H3079 0.913 . S
C3061 H3037 0.950 . S
C3061 C3060 1.524 . S
C3061 C3062 1.415 . S
C3062 H3038 0.950 . S
C3062 C3057 1.363 . S
C3062 C3061 1.415 . S
C3063 H3039 0.951 . S
C3063 C3064 1.366 . S
C3063 C3065 1.388 . S
C3064 C3063 1.366 . S
C3064 C3068 1.385 . S
C3065 H3040 0.951 . S
C3065 C3063 1.388 . S
C3065 C3066 1.366 . S
C3066 C3065 1.366 . S
C3066 C3067 1.414 . S
C3066 C3069 1.499 . S
C3067 H3041 0.950 . S
C3067 C3066 1.414 . S
C3067 C3068 1.374 . S
C3068 H3042 0.950 . S
C3068 C3064 1.385 . S
C3068 C3067 1.374 . S
C3069 C3066 1.499 . S
C3069 C3070 1.373 . S
C3069 C3071 1.389 . S
C3070 H3043 0.950 . S
C3070 C3056 1.377 . S
C3070 C3069 1.373 . S
C3071 C3055 1.377 . S
C3071 C3069 1.389 . S
C3071 C3072 1.524 . S
C3072 C3071 1.524 . S
C3072 C3073 1.397 . S
C3072 C3077 1.363 . S
C3073 H3044 0.950 . S
C3073 C3072 1.397 . S
C3073 C3074 1.334 . S
C3074 H3045 0.950 . S
C3074 C3073 1.334 . S
C3074 C3075 1.287 . S
C3075 C3074 1.287 . S
C3075 C3076 1.524 . S
C3075 H3078 0.999 . S
C3076 H3046 0.950 . S
C3076 C3075 1.524 . S
C3076 C3077 1.415 . S
C3077 H3047 0.950 . S
C3077 C3072 1.363 . S
C3077 C3076 1.415 . S
H3078 C3075 0.999 . S
H3079 C3060 0.913 . S
H3080 C3098 0.951 . S
H3081 C3100 0.951 . S
H3082 C3102 0.950 . S
H3083 C3103 0.950 . S
H3084 C3105 0.950 . S
H3085 C3108 0.950 . S
H3086 C3109 0.950 . S
H3087 C3111 0.950 . S
H3088 C3112 0.950 . S
H3089 C3113 0.951 . S
H3090 C3115 0.951 . S
H3091 C3117 0.950 . S
H3092 C3118 0.950 . S
H3093 C3120 0.950 . S
H3094 C3123 0.950 . S
H3095 C3124 0.950 . S
H3096 C3126 0.950 . S
H3097 C3127 0.950 . S
C3098 H3080 0.951 . S
C3098 C3099 1.366 . S
C3098 C3100 1.388 . S
C3099 C3098 1.366 . S
C3099 C3103 1.385 . S
C3100 H3081 0.951 . S
C3100 C3098 1.388 . S
C3100 C3101 1.366 . S
C3101 C3100 1.366 . S
C3101 C3102 1.414 . S
C3101 C3104 1.499 . S
C3102 H3082 0.950 . S
C3102 C3101 1.414 . S
C3102 C3103 1.374 . S
C3103 H3083 0.950 . S
C3103 C3099 1.385 . S
C3103 C3102 1.374 . S
C3104 C3101 1.499 . S
C3104 C3105 1.373 . S
C3104 C3106 1.389 . S
C3105 H3084 0.950 . S
C3105 C3104 1.373 . S
C3105 C3121 1.377 . S
C3106 C3104 1.389 . S
C3106 C3107 1.524 . S
C3106 C3120 1.377 . S
C3107 C3106 1.524 . S
C3107 C3108 1.397 . S
C3107 C3112 1.363 . S
C3108 H3085 0.950 . S
C3108 C3107 1.397 . S
C3108 C3109 1.334 . S
C3109 H3086 0.950 . S
C3109 C3108 1.334 . S
C3109 C3110 1.287 . S
C3110 C3109 1.287 . S
C3110 C3111 1.524 . S
C3110 H3129 0.913 . S
C3111 H3087 0.950 . S
C3111 C3110 1.524 . S
C3111 C3112 1.415 . S
C3112 H3088 0.950 . S
C3112 C3107 1.363 . S
C3112 C3111 1.415 . S
C3113 H3089 0.951 . S
C3113 C3114 1.366 . S
C3113 C3115 1.388 . S
C3114 C3113 1.366 . S
C3114 C3118 1.385 . S
C3115 H3090 0.951 . S
C3115 C3113 1.388 . S
C3115 C3116 1.366 . S
C3116 C3115 1.366 . S
C3116 C3117 1.414 . S
C3116 C3119 1.499 . S
C3117 H3091 0.950 . S
C3117 C3116 1.414 . S
C3117 C3118 1.374 . S
C3118 H3092 0.950 . S
C3118 C3114 1.385 . S
C3118 C3117 1.374 . S
C3119 C3116 1.499 . S
C3119 C3120 1.373 . S
C3119 C3121 1.389 . S
C3120 H3093 0.950 . S
C3120 C3106 1.377 . S
C3120 C3119 1.373 . S
C3121 C3105 1.377 . S
C3121 C3119 1.389 . S
C3121 C3122 1.524 . S
C3122 C3121 1.524 . S
C3122 C3123 1.397 . S
C3122 C3127 1.363 . S
C3123 H3094 0.950 . S
C3123 C3122 1.397 . S
C3123 C3124 1.334 . S
C3124 H3095 0.950 . S
C3124 C3123 1.334 . S
C3124 C3125 1.287 . S
C3125 C3124 1.287 . S
C3125 C3126 1.524 . S
C3125 H3128 0.999 . S
C3126 H3096 0.950 . S
C3126 C3125 1.524 . S
C3126 C3127 1.415 . S
C3127 H3097 0.950 . S
C3127 C3122 1.363 . S
C3127 C3126 1.415 . S
H3128 C3125 0.999 . S
H3129 C3110 0.913 . S
H3130 C3148 0.951 . S
H3131 C3150 0.951 . S
H3132 C3152 0.950 . S
H3133 C3153 0.950 . S
H3134 C3155 0.950 . S
H3135 C3158 0.950 . S
H3136 C3159 0.950 . S
H3137 C3161 0.950 . S
H3138 C3162 0.950 . S
H3139 C3163 0.951 . S
H3140 C3165 0.951 . S
H3141 C3167 0.950 . S
H3142 C3168 0.950 . S
H3143 C3170 0.950 . S
H3144 C3173 0.950 . S
H3145 C3174 0.950 . S
H3146 C3176 0.950 . S
H3147 C3177 0.950 . S
C3148 H3130 0.951 . S
C3148 C3149 1.366 . S
C3148 C3150 1.388 . S
C3149 C3148 1.366 . S
C3149 C3153 1.385 . S
C3150 H3131 0.951 . S
C3150 C3148 1.388 . S
C3150 C3151 1.366 . S
C3151 C3150 1.366 . S
C3151 C3152 1.414 . S
C3151 C3154 1.499 . S
C3152 H3132 0.950 . S
C3152 C3151 1.414 . S
C3152 C3153 1.374 . S
C3153 H3133 0.950 . S
C3153 C3149 1.385 . S
C3153 C3152 1.374 . S
C3154 C3151 1.499 . S
C3154 C3155 1.373 . S
C3154 C3156 1.389 . S
C3155 H3134 0.950 . S
C3155 C3154 1.373 . S
C3155 C3171 1.377 . S
C3156 C3154 1.389 . S
C3156 C3157 1.524 . S
C3156 C3170 1.377 . S
C3157 C3156 1.524 . S
C3157 C3158 1.397 . S
C3157 C3162 1.363 . S
C3158 H3135 0.950 . S
C3158 C3157 1.397 . S
C3158 C3159 1.334 . S
C3159 H3136 0.950 . S
C3159 C3158 1.334 . S
C3159 C3160 1.287 . S
C3160 C3159 1.287 . S
C3160 C3161 1.524 . S
C3160 H3179 0.913 . S
C3161 H3137 0.950 . S
C3161 C3160 1.524 . S
C3161 C3162 1.415 . S
C3162 H3138 0.950 . S
C3162 C3157 1.363 . S
C3162 C3161 1.415 . S
C3163 H3139 0.951 . S
C3163 C3164 1.366 . S
C3163 C3165 1.388 . S
C3164 C3163 1.366 . S
C3164 C3168 1.385 . S
C3165 H3140 0.951 . S
C3165 C3163 1.388 . S
C3165 C3166 1.366 . S
C3166 C3165 1.366 . S
C3166 C3167 1.414 . S
C3166 C3169 1.499 . S
C3167 H3141 0.950 . S
C3167 C3166 1.414 . S
C3167 C3168 1.374 . S
C3168 H3142 0.950 . S
C3168 C3164 1.385 . S
C3168 C3167 1.374 . S
C3169 C3166 1.499 . S
C3169 C3170 1.373 . S
C3169 C3171 1.389 . S
C3170 H3143 0.950 . S
C3170 C3156 1.377 . S
C3170 C3169 1.373 . S
C3171 C3155 1.377 . S
C3171 C3169 1.389 . S
C3171 C3172 1.524 . S
C3172 C3171 1.524 . S
C3172 C3173 1.397 . S
C3172 C3177 1.363 . S
C3173 H3144 0.950 . S
C3173 C3172 1.397 . S
C3173 C3174 1.334 . S
C3174 H3145 0.950 . S
C3174 C3173 1.334 . S
C3174 C3175 1.287 . S
C3175 C3174 1.287 . S
C3175 C3176 1.524 . S
C3175 H3178 0.999 . S
C3176 H3146 0.950 . S
C3176 C3175 1.524 . S
C3176 C3177 1.415 . S
C3177 H3147 0.950 . S
C3177 C3172 1.363 . S
C3177 C3176 1.415 . S
H3178 C3175 0.999 . S
H3179 C3160 0.913 . S
H3180 C3198 0.951 . S
H3181 C3200 0.951 . S
H3182 C3202 0.950 . S
H3183 C3203 0.950 . S
H3184 C3205 0.950 . S
H3185 C3208 0.950 . S
H3186 C3209 0.950 . S
H3187 C3211 0.950 . S
H3188 C3212 0.950 . S
H3189 C3213 0.951 . S
H3190 C3215 0.963 . S
H3191 C3217 0.950 . S
H3192 C3218 0.973 . S
H3193 C3220 0.950 . S
H3194 C3223 0.950 . S
H3195 C3224 0.954 . S
H3196 C3226 0.950 . S
H3197 C3227 0.950 . S
C3198 H3180 0.951 . S
C3198 C3199 1.366 . S
C3198 C3200 1.388 . S
C3199 C3198 1.366 . S
C3199 C3203 1.385 . S
C3200 H3181 0.951 . S
C3200 C3198 1.388 . S
C3200 C3201 1.366 . S
C3201 C3200 1.366 . S
C3201 C3202 1.414 . S
C3201 C3204 1.499 . S
C3202 H3182 0.950 . S
C3202 C3201 1.414 . S
C3202 C3203 1.374 . S
C3203 H3183 0.950 . S
C3203 C3199 1.385 . S
C3203 C3202 1.374 . S
C3204 C3201 1.499 . S
C3204 C3205 1.373 . S
C3204 C3206 1.389 . S
C3205 H3184 0.950 . S
C3205 C3204 1.373 . S
C3205 C3221 1.377 . S
C3206 C3204 1.389 . S
C3206 C3207 1.524 . S
C3206 C3220 1.377 . S
C3207 C3206 1.524 . S
C3207 C3208 1.397 . S
C3207 C3212 1.363 . S
C3208 H3185 0.950 . S
C3208 C3207 1.397 . S
C3208 C3209 1.334 . S
C3209 H3186 0.950 . S
C3209 C3208 1.334 . S
C3209 C3210 1.287 . S
C3210 C3209 1.287 . S
C3210 C3211 1.524 . S
C3210 H3229 0.913 . S
C3211 H3187 0.950 . S
C3211 C3210 1.524 . S
C3211 C3212 1.415 . S
C3212 H3188 0.950 . S
C3212 C3207 1.363 . S
C3212 C3211 1.415 . S
C3213 H3189 0.951 . S
C3213 C3214 1.366 1_554 S
C3213 C3215 1.388 1_554 S
C3214 C3213 1.366 1_556 S
C3214 C3218 1.385 . S
C3215 H3190 0.963 . S
C3215 C3213 1.388 1_556 S
C3215 C3216 1.366 . S
C3216 C3215 1.366 . S
C3216 C3217 1.414 . S
C3216 C3219 1.499 . S
C3217 H3191 0.950 . S
C3217 C3216 1.414 . S
C3217 C3218 1.374 . S
C3218 H3192 0.973 . S
C3218 C3214 1.385 . S
C3218 C3217 1.374 . S
C3219 C3216 1.499 . S
C3219 C3220 1.373 . S
C3219 C3221 1.389 . S
C3220 H3193 0.950 . S
C3220 C3206 1.377 . S
C3220 C3219 1.373 . S
C3221 C3205 1.377 . S
C3221 C3219 1.389 . S
C3221 C3222 1.524 . S
C3222 C3221 1.524 . S
C3222 C3223 1.397 . S
C3222 C3227 1.363 . S
C3223 H3194 0.950 . S
C3223 C3222 1.397 . S
C3223 C3224 1.334 . S
C3224 H3195 0.954 . S
C3224 C3223 1.334 . S
C3224 C3225 1.287 1_556 S
C3225 C3224 1.287 1_554 S
C3225 C3226 1.524 . S
C3225 H3228 0.999 . S
C3226 H3196 0.950 . S
C3226 C3225 1.524 . S
C3226 C3227 1.415 1_554 S
C3227 H3197 0.950 . S
C3227 C3222 1.363 . S
C3227 C3226 1.415 1_556 S
H3228 C3225 0.999 . S
H3229 C3210 0.913 . S
H3230 C3248 0.951 . S
H3231 C3250 0.951 . S
H3232 C3252 0.950 . S
H3233 C3253 0.950 . S
H3234 C3255 0.950 . S
H3235 C3258 0.950 . S
H3236 C3259 0.950 . S
H3237 C3261 0.950 . S
H3238 C3262 0.950 . S
H3239 C3263 0.951 . S
H3240 C3265 0.951 . S
H3241 C3267 0.950 . S
H3242 C3268 0.950 . S
H3243 C3270 0.950 . S
H3244 C3273 0.950 . S
H3245 C3274 0.950 . S
H3246 C3276 0.950 . S
H3247 C3277 0.950 . S
C3248 H3230 0.951 . S
C3248 C3249 1.366 . S
C3248 C3250 1.388 . S
C3249 C3248 1.366 . S
C3249 C3253 1.385 . S
C3250 H3231 0.951 . S
C3250 C3248 1.388 . S
C3250 C3251 1.366 . S
C3251 C3250 1.366 . S
C3251 C3252 1.414 . S
C3251 C3254 1.499 . S
C3252 H3232 0.950 . S
C3252 C3251 1.414 . S
C3252 C3253 1.374 . S
C3253 H3233 0.950 . S
C3253 C3249 1.385 . S
C3253 C3252 1.374 . S
C3254 C3251 1.499 . S
C3254 C3255 1.373 . S
C3254 C3256 1.389 . S
C3255 H3234 0.950 . S
C3255 C3254 1.373 . S
C3255 C3271 1.377 . S
C3256 C3254 1.389 . S
C3256 C3257 1.524 . S
C3256 C3270 1.377 . S
C3257 C3256 1.524 . S
C3257 C3258 1.397 . S
C3257 C3262 1.363 . S
C3258 H3235 0.950 . S
C3258 C3257 1.397 . S
C3258 C3259 1.334 . S
C3259 H3236 0.950 . S
C3259 C3258 1.334 . S
C3259 C3260 1.287 . S
C3260 C3259 1.287 . S
C3260 C3261 1.524 . S
C3260 H3279 0.913 . S
C3261 H3237 0.950 . S
C3261 C3260 1.524 . S
C3261 C3262 1.415 . S
C3262 H3238 0.950 . S
C3262 C3257 1.363 . S
C3262 C3261 1.415 . S
C3263 H3239 0.951 . S
C3263 C3264 1.366 . S
C3263 C3265 1.388 . S
C3264 C3263 1.366 . S
C3264 C3268 1.385 . S
C3265 H3240 0.951 . S
C3265 C3263 1.388 . S
C3265 C3266 1.366 . S
C3266 C3265 1.366 . S
C3266 C3267 1.414 . S
C3266 C3269 1.499 . S
C3267 H3241 0.950 . S
C3267 C3266 1.414 . S
C3267 C3268 1.374 . S
C3268 H3242 0.950 . S
C3268 C3264 1.385 . S
C3268 C3267 1.374 . S
C3269 C3266 1.499 . S
C3269 C3270 1.373 . S
C3269 C3271 1.389 . S
C3270 H3243 0.950 . S
C3270 C3256 1.377 . S
C3270 C3269 1.373 . S
C3271 C3255 1.377 . S
C3271 C3269 1.389 . S
C3271 C3272 1.524 . S
C3272 C3271 1.524 . S
C3272 C3273 1.397 . S
C3272 C3277 1.363 . S
C3273 H3244 0.950 . S
C3273 C3272 1.397 . S
C3273 C3274 1.334 . S
C3274 H3245 0.950 . S
C3274 C3273 1.334 . S
C3274 C3275 1.287 . S
C3275 C3274 1.287 . S
C3275 C3276 1.524 . S
C3275 H3278 0.999 . S
C3276 H3246 0.950 . S
C3276 C3275 1.524 . S
C3276 C3277 1.415 . S
C3277 H3247 0.950 . S
C3277 C3272 1.363 . S
C3277 C3276 1.415 . S
H3278 C3275 0.999 . S
H3279 C3260 0.913 . S
H3280 C3298 0.951 . S
H3281 C3300 0.951 . S
H3282 C3302 0.950 . S
H3283 C3303 0.950 . S
H3284 C3305 0.950 . S
H3285 C3308 0.950 . S
H3286 C3309 0.950 . S
H3287 C3311 0.950 . S
H3288 C3312 0.950 . S
H3289 C3313 0.951 1_565 S
H3290 C3315 0.951 1_565 S
H3291 C3317 0.950 . S
H3292 C3318 0.950 . S
H3293 C3320 0.950 . S
H3294 C3323 0.950 . S
H3295 C3324 0.950 . S
H3296 C3326 0.950 . S
H3297 C3327 0.950 1_565 S
C3298 H3280 0.951 . S
C3298 C3299 1.366 . S
C3298 C3300 1.388 . S
C3299 C3298 1.366 . S
C3299 C3303 1.385 1_545 S
C3300 H3281 0.951 . S
C3300 C3298 1.388 . S
C3300 C3301 1.366 . S
C3301 C3300 1.366 . S
C3301 C3302 1.414 1_545 S
C3301 C3304 1.499 . S
C3302 H3282 0.950 . S
C3302 C3301 1.414 1_565 S
C3302 C3303 1.374 . S
C3303 H3283 0.950 . S
C3303 C3299 1.385 1_565 S
C3303 C3302 1.374 . S
C3304 C3301 1.499 . S
C3304 C3305 1.373 . S
C3304 C3306 1.389 . S
C3305 H3284 0.950 . S
C3305 C3304 1.373 . S
C3305 C3321 1.377 . S
C3306 C3304 1.389 . S
C3306 C3307 1.524 . S
C3306 C3320 1.377 . S
C3307 C3306 1.524 . S
C3307 C3308 1.397 1_545 S
C3307 C3312 1.363 . S
C3308 H3285 0.950 . S
C3308 C3307 1.397 1_565 S
C3308 C3309 1.334 . S
C3309 H3286 0.950 . S
C3309 C3308 1.334 . S
C3309 C3310 1.287 . S
C3310 C3309 1.287 . S
C3310 C3311 1.524 1_565 S
C3310 H3329 0.913 . S
C3311 H3287 0.950 . S
C3311 C3310 1.524 1_545 S
C3311 C3312 1.415 . S
C3312 H3288 0.950 . S
C3312 C3307 1.363 . S
C3312 C3311 1.415 . S
C3313 H3289 0.951 1_545 S
C3313 C3314 1.366 . S
C3313 C3315 1.388 . S
C3314 C3313 1.366 . S
C3314 C3318 1.385 . S
C3315 H3290 0.951 1_545 S
C3315 C3313 1.388 . S
C3315 C3316 1.366 . S
C3316 C3315 1.366 . S
C3316 C3317 1.414 . S
C3316 C3319 1.499 . S
C3317 H3291 0.950 . S
C3317 C3316 1.414 . S
C3317 C3318 1.374 . S
C3318 H3292 0.950 . S
C3318 C3314 1.385 . S
C3318 C3317 1.374 . S
C3319 C3316 1.499 . S
C3319 C3320 1.373 . S
C3319 C3321 1.389 . S
C3320 H3293 0.950 . S
C3320 C3306 1.377 . S
C3320 C3319 1.373 . S
C3321 C3305 1.377 . S
C3321 C3319 1.389 . S
C3321 C3322 1.524 . S
C3322 C3321 1.524 . S
C3322 C3323 1.397 . S
C3322 C3327 1.363 . S
C3323 H3294 0.950 . S
C3323 C3322 1.397 . S
C3323 C3324 1.334 . S
C3324 H3295 0.950 . S
C3324 C3323 1.334 . S
C3324 C3325 1.287 . S
C3325 C3324 1.287 . S
C3325 C3326 1.524 . S
C3325 H3328 0.999 . S
C3326 H3296 0.950 . S
C3326 C3325 1.524 . S
C3326 C3327 1.415 . S
C3327 H3297 0.950 1_545 S
C3327 C3322 1.363 . S
C3327 C3326 1.415 . S
H3328 C3325 0.999 . S
H3329 C3310 0.913 . S
H3330 C3348 0.951 . S
H3331 C3350 0.951 . S
H3332 C3352 0.950 . S
H3333 C3353 0.950 . S
H3334 C3355 0.950 . S
H3335 C3358 0.950 . S
H3336 C3359 0.950 . S
H3337 C3361 0.950 . S
H3338 C3362 0.950 . S
H3339 C3363 0.951 . S
H3340 C3365 0.951 . S
H3341 C3367 0.950 . S
H3342 C3368 0.950 . S
H3343 C3370 0.950 . S
H3344 C3373 0.950 . S
H3345 C3374 0.950 . S
H3346 C3376 0.950 . S
H3347 C3377 0.950 . S
C3348 H3330 0.951 . S
C3348 C3349 1.366 . S
C3348 C3350 1.388 . S
C3349 C3348 1.366 . S
C3349 C3353 1.385 . S
C3350 H3331 0.951 . S
C3350 C3348 1.388 . S
C3350 C3351 1.366 . S
C3351 C3350 1.366 . S
C3351 C3352 1.414 . S
C3351 C3354 1.499 . S
C3352 H3332 0.950 . S
C3352 C3351 1.414 . S
C3352 C3353 1.374 . S
C3353 H3333 0.950 . S
C3353 C3349 1.385 . S
C3353 C3352 1.374 . S
C3354 C3351 1.499 . S
C3354 C3355 1.373 . S
C3354 C3356 1.389 . S
C3355 H3334 0.950 . S
C3355 C3354 1.373 . S
C3355 C3371 1.377 . S
C3356 C3354 1.389 . S
C3356 C3357 1.524 . S
C3356 C3370 1.377 . S
C3357 C3356 1.524 . S
C3357 C3358 1.397 . S
C3357 C3362 1.363 . S
C3358 H3335 0.950 . S
C3358 C3357 1.397 . S
C3358 C3359 1.334 . S
C3359 H3336 0.950 . S
C3359 C3358 1.334 . S
C3359 C3360 1.287 . S
C3360 C3359 1.287 . S
C3360 C3361 1.524 . S
C3360 H3379 0.913 . S
C3361 H3337 0.950 . S
C3361 C3360 1.524 . S
C3361 C3362 1.415 . S
C3362 H3338 0.950 . S
C3362 C3357 1.363 . S
C3362 C3361 1.415 . S
C3363 H3339 0.951 . S
C3363 C3364 1.366 . S
C3363 C3365 1.388 . S
C3364 C3363 1.366 . S
C3364 C3368 1.385 . S
C3365 H3340 0.951 . S
C3365 C3363 1.388 . S
C3365 C3366 1.366 . S
C3366 C3365 1.366 . S
C3366 C3367 1.414 . S
C3366 C3369 1.499 . S
C3367 H3341 0.950 . S
C3367 C3366 1.414 . S
C3367 C3368 1.374 . S
C3368 H3342 0.950 . S
C3368 C3364 1.385 . S
C3368 C3367 1.374 . S
C3369 C3366 1.499 . S
C3369 C3370 1.373 . S
C3369 C3371 1.389 . S
C3370 H3343 0.950 . S
C3370 C3356 1.377 . S
C3370 C3369 1.373 . S
C3371 C3355 1.377 . S
C3371 C3369 1.389 . S
C3371 C3372 1.524 . S
C3372 C3371 1.524 . S
C3372 C3373 1.397 . S
C3372 C3377 1.363 . S
C3373 H3344 0.950 . S
C3373 C3372 1.397 . S
C3373 C3374 1.334 . S
C3374 H3345 0.950 . S
C3374 C3373 1.334 . S
C3374 C3375 1.287 . S
C3375 C3374 1.287 . S
C3375 C3376 1.524 . S
C3375 H3378 0.999 . S
C3376 H3346 0.950 . S
C3376 C3375 1.524 . S
C3376 C3377 1.415 . S
C3377 H3347 0.950 . S
C3377 C3372 1.363 . S
C3377 C3376 1.415 . S
H3378 C3375 0.999 . S
H3379 C3360 0.913 . S
H3380 C3398 0.951 . S
H3381 C3400 0.951 . S
H3382 C3402 0.950 . S
H3383 C3403 0.950 . S
H3384 C3405 0.950 . S
H3385 C3408 0.953 . S
H3386 C3409 0.950 . S
H3387 C3411 0.950 . S
H3388 C3412 0.950 . S
H3389 C3413 0.951 . S
H3390 C3415 0.951 . S
H3391 C3417 0.950 . S
H3392 C3418 0.950 . S
H3393 C3420 0.950 . S
H3394 C3423 0.950 . S
H3395 C3424 0.950 . S
H3396 C3426 0.950 . S
H3397 C3427 0.950 . S
C3398 H3380 0.951 . S
C3398 C3399 1.366 . S
C3398 C3400 1.388 . S
C3399 C3398 1.366 . S
C3399 C3403 1.385 . S
C3400 H3381 0.951 . S
C3400 C3398 1.388 . S
C3400 C3401 1.366 . S
C3401 C3400 1.366 . S
C3401 C3402 1.414 . S
C3401 C3404 1.499 . S
C3402 H3382 0.950 . S
C3402 C3401 1.414 . S
C3402 C3403 1.374 . S
C3403 H3383 0.950 . S
C3403 C3399 1.385 . S
C3403 C3402 1.374 . S
C3404 C3401 1.499 . S
C3404 C3405 1.373 . S
C3404 C3406 1.389 . S
C3405 H3384 0.950 . S
C3405 C3404 1.373 . S
C3405 C3421 1.377 . S
C3406 C3404 1.389 . S
C3406 C3407 1.524 . S
C3406 C3420 1.377 . S
C3407 C3406 1.524 . S
C3407 C3408 1.372 1_545 S
C3407 C3412 1.363 . S
C3408 H3385 0.953 . S
C3408 C3407 1.372 1_565 S
C3408 C3409 1.358 . S
C3409 H3386 0.950 . S
C3409 C3408 1.358 . S
C3409 C3410 1.287 . S
C3410 C3409 1.287 . S
C3410 C3411 1.524 1_565 S
C3410 H3429 0.913 . S
C3411 H3387 0.950 . S
C3411 C3410 1.524 1_545 S
C3411 C3412 1.415 . S
C3412 H3388 0.950 . S
C3412 C3407 1.363 . S
C3412 C3411 1.415 . S
C3413 H3389 0.951 . S
C3413 C3414 1.366 . S
C3413 C3415 1.388 . S
C3414 C3413 1.366 . S
C3414 C3418 1.385 . S
C3415 H3390 0.951 . S
C3415 C3413 1.388 . S
C3415 C3416 1.366 . S
C3416 C3415 1.366 . S
C3416 C3417 1.414 . S
C3416 C3419 1.499 . S
C3417 H3391 0.950 . S
C3417 C3416 1.414 . S
C3417 C3418 1.374 . S
C3418 H3392 0.950 . S
C3418 C3414 1.385 . S
C3418 C3417 1.374 . S
C3419 C3416 1.499 . S
C3419 C3420 1.373 . S
C3419 C3421 1.389 . S
C3420 H3393 0.950 . S
C3420 C3406 1.377 . S
C3420 C3419 1.373 . S
C3421 C3405 1.377 . S
C3421 C3419 1.389 . S
C3421 C3422 1.524 . S
C3422 C3421 1.524 . S
C3422 C3423 1.397 . S
C3422 C3427 1.363 . S
C3423 H3394 0.950 . S
C3423 C3422 1.397 . S
C3423 C3424 1.334 . S
C3424 H3395 0.950 . S
C3424 C3423 1.334 . S
C3424 C3425 1.287 . S
C3425 C3424 1.287 . S
C3425 C3426 1.524 . S
C3425 H3428 0.999 . S
C3426 H3396 0.950 . S
C3426 C3425 1.524 . S
C3426 C3427 1.415 . S
C3427 H3397 0.950 . S
C3427 C3422 1.363 . S
C3427 C3426 1.415 . S
H3428 C3425 0.999 . S
H3429 C3410 0.913 . S
H3430 C3448 0.951 . S
H3431 C3450 0.951 . S
H3432 C3452 0.950 . S
H3433 C3453 0.950 . S
H3434 C3455 0.950 . S
H3435 C3458 0.950 . S
H3436 C3459 0.950 . S
H3437 C3461 0.950 . S
H3438 C3462 0.950 . S
H3439 C3463 0.951 . S
H3440 C3465 0.951 . S
H3441 C3467 0.950 . S
H3442 C3468 0.950 . S
H3443 C3470 0.950 . S
H3444 C3473 0.950 . S
H3445 C3474 0.950 . S
H3446 C3476 0.950 . S
H3447 C3477 0.950 . S
C3448 H3430 0.951 . S
C3448 C3449 1.366 . S
C3448 C3450 1.388 . S
C3449 C3448 1.366 . S
C3449 C3453 1.385 . S
C3450 H3431 0.951 . S
C3450 C3448 1.388 . S
C3450 C3451 1.366 . S
C3451 C3450 1.366 . S
C3451 C3452 1.414 . S
C3451 C3454 1.499 . S
C3452 H3432 0.950 . S
C3452 C3451 1.414 . S
C3452 C3453 1.374 . S
C3453 H3433 0.950 . S
C3453 C3449 1.385 . S
C3453 C3452 1.374 . S
C3454 C3451 1.499 . S
C3454 C3455 1.373 . S
C3454 C3456 1.389 . S
C3455 H3434 0.950 . S
C3455 C3454 1.373 . S
C3455 C3471 1.377 . S
C3456 C3454 1.389 . S
C3456 C3457 1.524 . S
C3456 C3470 1.377 . S
C3457 C3456 1.524 . S
C3457 C3458 1.397 . S
C3457 C3462 1.363 . S
C3458 H3435 0.950 . S
C3458 C3457 1.397 . S
C3458 C3459 1.334 . S
C3459 H3436 0.950 . S
C3459 C3458 1.334 . S
C3459 C3460 1.287 . S
C3460 C3459 1.287 . S
C3460 C3461 1.524 . S
C3460 H3479 0.913 . S
C3461 H3437 0.950 . S
C3461 C3460 1.524 . S
C3461 C3462 1.415 . S
C3462 H3438 0.950 . S
C3462 C3457 1.363 . S
C3462 C3461 1.415 . S
C3463 H3439 0.951 . S
C3463 C3464 1.366 . S
C3463 C3465 1.388 . S
C3464 C3463 1.366 . S
C3464 C3468 1.385 . S
C3465 H3440 0.951 . S
C3465 C3463 1.388 . S
C3465 C3466 1.366 . S
C3466 C3465 1.366 . S
C3466 C3467 1.414 . S
C3466 C3469 1.499 . S
C3467 H3441 0.950 . S
C3467 C3466 1.414 . S
C3467 C3468 1.374 . S
C3468 H3442 0.950 . S
C3468 C3464 1.385 . S
C3468 C3467 1.374 . S
C3469 C3466 1.499 . S
C3469 C3470 1.373 . S
C3469 C3471 1.389 . S
C3470 H3443 0.950 . S
C3470 C3456 1.377 . S
C3470 C3469 1.373 . S
C3471 C3455 1.377 . S
C3471 C3469 1.389 . S
C3471 C3472 1.524 . S
C3472 C3471 1.524 . S
C3472 C3473 1.397 . S
C3472 C3477 1.363 . S
C3473 H3444 0.950 . S
C3473 C3472 1.397 . S
C3473 C3474 1.334 . S
C3474 H3445 0.950 . S
C3474 C3473 1.334 . S
C3474 C3475 1.287 . S
C3475 C3474 1.287 . S
C3475 C3476 1.524 . S
C3475 H3478 0.999 . S
C3476 H3446 0.950 . S
C3476 C3475 1.524 . S
C3476 C3477 1.415 . S
C3477 H3447 0.950 . S
C3477 C3472 1.363 . S
C3477 C3476 1.415 . S
H3478 C3475 0.999 . S
H3479 C3460 0.913 . S
H3480 C3498 0.951 . S
H3481 C3500 0.951 . S
H3482 C3502 0.950 . S
H3483 C3503 0.950 . S
H3484 C3505 0.950 . S
H3485 C3508 0.950 . S
H3486 C3509 0.950 . S
H3487 C3511 0.950 . S
H3488 C3512 0.950 1_545 S
H3489 C3513 0.951 . S
H3490 C3515 0.951 . S
H3491 C3517 0.950 . S
H3492 C3518 0.950 . S
H3493 C3520 0.950 . S
H3494 C3523 0.950 . S
H3495 C3524 0.950 . S
H3496 C3526 0.950 . S
H3497 C3527 0.950 . S
C3498 H3480 0.951 . S
C3498 C3499 1.366 1_545 S
C3498 C3500 1.388 . S
C3499 C3498 1.366 1_565 S
C3499 C3503 1.385 . S
C3500 H3481 0.951 . S
C3500 C3498 1.388 . S
C3500 C3501 1.366 . S
C3501 C3500 1.366 . S
C3501 C3502 1.414 1_545 S
C3501 C3504 1.499 . S
C3502 H3482 0.950 . S
C3502 C3501 1.414 1_565 S
C3502 C3503 1.374 . S
C3503 H3483 0.950 . S
C3503 C3499 1.385 . S
C3503 C3502 1.374 . S
C3504 C3501 1.499 . S
C3504 C3505 1.373 . S
C3504 C3506 1.389 . S
C3505 H3484 0.950 . S
C3505 C3504 1.373 . S
C3505 C3521 1.377 . S
C3506 C3504 1.389 . S
C3506 C3507 1.524 1_545 S
C3506 C3520 1.377 . S
C3507 C3506 1.524 1_565 S
C3507 C3508 1.397 . S
C3507 C3512 1.363 . S
C3508 H3485 0.950 . S
C3508 C3507 1.397 . S
C3508 C3509 1.334 . S
C3509 H3486 0.950 . S
C3509 C3508 1.334 . S
C3509 C3510 1.287 . S
C3510 C3509 1.287 . S
C3510 C3511 1.524 . S
C3510 H3529 0.913 . S
C3511 H3487 0.950 . S
C3511 C3510 1.524 . S
C3511 C3512 1.415 . S
C3512 H3488 0.950 1_565 S
C3512 C3507 1.363 . S
C3512 C3511 1.415 . S
C3513 H3489 0.951 . S
C3513 C3514 1.366 . S
C3513 C3515 1.388 . S
C3514 C3513 1.366 . S
C3514 C3518 1.385 . S
C3515 H3490 0.951 . S
C3515 C3513 1.388 . S
C3515 C3516 1.366 . S
C3516 C3515 1.366 . S
C3516 C3517 1.414 . S
C3516 C3519 1.499 . S
C3517 H3491 0.950 . S
C3517 C3516 1.414 . S
C3517 C3518 1.374 . S
C3518 H3492 0.950 . S
C3518 C3514 1.385 . S
C3518 C3517 1.374 . S
C3519 C3516 1.499 . S
C3519 C3520 1.373 . S
C3519 C3521 1.389 . S
C3520 H3493 0.950 . S
C3520 C3506 1.377 . S
C3520 C3519 1.373 . S
C3521 C3505 1.377 . S
C3521 C3519 1.389 . S
C3521 C3522 1.524 . S
C3522 C3521 1.524 . S
C3522 C3523 1.397 . S
C3522 C3527 1.363 . S
C3523 H3494 0.950 . S
C3523 C3522 1.397 . S
C3523 C3524 1.334 . S
C3524 H3495 0.950 . S
C3524 C3523 1.334 . S
C3524 C3525 1.287 . S
C3525 C3524 1.287 . S
C3525 C3526 1.524 . S
C3525 H3528 0.999 . S
C3526 H3496 0.950 . S
C3526 C3525 1.524 . S
C3526 C3527 1.415 . S
C3527 H3497 0.950 . S
C3527 C3522 1.363 . S
C3527 C3526 1.415 . S
H3528 C3525 0.999 . S
H3529 C3510 0.913 . S
H3530 C3548 0.951 . S
H3531 C3550 0.951 . S
H3532 C3552 0.950 . S
H3533 C3553 0.950 . S
H3534 C3555 0.950 . S
H3535 C3558 0.950 . S
H3536 C3559 0.950 . S
H3537 C3561 0.950 . S
H3538 C3562 0.950 . S
H3539 C3563 0.951 . S
H3540 C3565 0.951 . S
H3541 C3567 0.950 . S
H3542 C3568 0.950 . S
H3543 C3570 0.950 . S
H3544 C3573 0.950 . S
H3545 C3574 0.950 . S
H3546 C3576 0.950 . S
H3547 C3577 0.950 . S
C3548 H3530 0.951 . S
C3548 C3549 1.366 . S
C3548 C3550 1.388 . S
C3549 C3548 1.366 . S
C3549 C3553 1.385 . S
C3550 H3531 0.951 . S
C3550 C3548 1.388 . S
C3550 C3551 1.366 . S
C3551 C3550 1.366 . S
C3551 C3552 1.414 . S
C3551 C3554 1.499 . S
C3552 H3532 0.950 . S
C3552 C3551 1.414 . S
C3552 C3553 1.374 . S
C3553 H3533 0.950 . S
C3553 C3549 1.385 . S
C3553 C3552 1.374 . S
C3554 C3551 1.499 . S
C3554 C3555 1.373 . S
C3554 C3556 1.389 . S
C3555 H3534 0.950 . S
C3555 C3554 1.373 . S
C3555 C3571 1.377 . S
C3556 C3554 1.389 . S
C3556 C3557 1.524 . S
C3556 C3570 1.377 . S
C3557 C3556 1.524 . S
C3557 C3558 1.397 . S
C3557 C3562 1.363 . S
C3558 H3535 0.950 . S
C3558 C3557 1.397 . S
C3558 C3559 1.334 . S
C3559 H3536 0.950 . S
C3559 C3558 1.334 . S
C3559 C3560 1.287 . S
C3560 C3559 1.287 . S
C3560 C3561 1.524 . S
C3560 H3579 0.913 . S
C3561 H3537 0.950 . S
C3561 C3560 1.524 . S
C3561 C3562 1.415 . S
C3562 H3538 0.950 . S
C3562 C3557 1.363 . S
C3562 C3561 1.415 . S
C3563 H3539 0.951 . S
C3563 C3564 1.366 . S
C3563 C3565 1.388 . S
C3564 C3563 1.366 . S
C3564 C3568 1.385 . S
C3565 H3540 0.951 . S
C3565 C3563 1.388 . S
C3565 C3566 1.366 . S
C3566 C3565 1.366 . S
C3566 C3567 1.414 . S
C3566 C3569 1.499 . S
C3567 H3541 0.950 . S
C3567 C3566 1.414 . S
C3567 C3568 1.374 . S
C3568 H3542 0.950 . S
C3568 C3564 1.385 . S
C3568 C3567 1.374 . S
C3569 C3566 1.499 . S
C3569 C3570 1.373 . S
C3569 C3571 1.389 . S
C3570 H3543 0.950 . S
C3570 C3556 1.377 . S
C3570 C3569 1.373 . S
C3571 C3555 1.377 . S
C3571 C3569 1.389 . S
C3571 C3572 1.524 . S
C3572 C3571 1.524 . S
C3572 C3573 1.397 . S
C3572 C3577 1.363 . S
C3573 H3544 0.950 . S
C3573 C3572 1.397 . S
C3573 C3574 1.334 . S
C3574 H3545 0.950 . S
C3574 C3573 1.334 . S
C3574 C3575 1.287 . S
C3575 C3574 1.287 . S
C3575 C3576 1.524 . S
C3575 H3578 0.999 . S
C3576 H3546 0.950 . S
C3576 C3575 1.524 . S
C3576 C3577 1.415 . S
C3577 H3547 0.950 . S
C3577 C3572 1.363 . S
C3577 C3576 1.415 . S
H3578 C3575 0.999 . S
H3579 C3560 0.913 . S
H3580 C3598 0.951 . S
H3581 C3600 0.951 . S
H3582 C3602 0.950 1_565 S
H3583 C3603 0.950 1_565 S
H3584 C3605 0.950 . S
H3585 C3608 0.950 . S
H3586 C3609 0.950 . S
H3587 C3611 0.950 . S
H3588 C3612 0.950 . S
H3589 C3613 0.951 1_565 S
H3590 C3615 0.951 1_565 S
H3591 C3617 0.950 . S
H3592 C3618 0.950 . S
H3593 C3620 0.950 . S
H3594 C3623 0.950 . S
H3595 C3624 0.950 . S
H3596 C3626 0.950 . S
H3597 C3627 0.950 . S
C3598 H3580 0.951 . S
C3598 C3599 1.366 . S
C3598 C3600 1.388 . S
C3599 C3598 1.366 . S
C3599 C3603 1.385 . S
C3600 H3581 0.951 . S
C3600 C3598 1.388 . S
C3600 C3601 1.366 . S
C3601 C3600 1.366 . S
C3601 C3602 1.414 . S
C3601 C3604 1.499 . S
C3602 H3582 0.950 1_545 S
C3602 C3601 1.414 . S
C3602 C3603 1.374 . S
C3603 H3583 0.950 1_545 S
C3603 C3599 1.385 . S
C3603 C3602 1.374 . S
C3604 C3601 1.499 . S
C3604 C3605 1.373 . S
C3604 C3606 1.389 . S
C3605 H3584 0.950 . S
C3605 C3604 1.373 . S
C3605 C3621 1.377 . S
C3606 C3604 1.389 . S
C3606 C3607 1.524 . S
C3606 C3620 1.377 . S
C3607 C3606 1.524 . S
C3607 C3608 1.397 . S
C3607 C3612 1.363 . S
C3608 H3585 0.950 . S
C3608 C3607 1.397 . S
C3608 C3609 1.334 . S
C3609 H3586 0.950 . S
C3609 C3608 1.334 . S
C3609 C3610 1.287 . S
C3610 C3609 1.287 . S
C3610 C3611 1.524 . S
C3610 H3629 0.913 . S
C3611 H3587 0.950 . S
C3611 C3610 1.524 . S
C3611 C3612 1.415 . S
C3612 H3588 0.950 . S
C3612 C3607 1.363 . S
C3612 C3611 1.415 . S
C3613 H3589 0.951 1_545 S
C3613 C3614 1.366 . S
C3613 C3615 1.388 . S
C3614 C3613 1.366 . S
C3614 C3618 1.385 . S
C3615 H3590 0.951 1_545 S
C3615 C3613 1.388 . S
C3615 C3616 1.366 . S
C3616 C3615 1.366 . S
C3616 C3617 1.414 . S
C3616 C3619 1.499 . S
C3617 H3591 0.950 . S
C3617 C3616 1.414 . S
C3617 C3618 1.374 . S
C3618 H3592 0.950 . S
C3618 C3614 1.385 . S
C3618 C3617 1.374 . S
C3619 C3616 1.499 . S
C3619 C3620 1.373 . S
C3619 C3621 1.389 . S
C3620 H3593 0.950 . S
C3620 C3606 1.377 . S
C3620 C3619 1.373 . S
C3621 C3605 1.377 . S
C3621 C3619 1.389 . S
C3621 C3622 1.524 1_545 S
C3622 C3621 1.524 1_565 S
C3622 C3623 1.397 1_565 S
C3622 C3627 1.363 . S
C3623 H3594 0.950 . S
C3623 C3622 1.397 1_545 S
C3623 C3624 1.334 1_545 S
C3624 H3595 0.950 . S
C3624 C3623 1.334 1_565 S
C3624 C3625 1.287 . S
C3625 C3624 1.287 . S
C3625 C3626 1.524 . S
C3625 H3628 0.999 . S
C3626 H3596 0.950 . S
C3626 C3625 1.524 . S
C3626 C3627 1.415 . S
C3627 H3597 0.950 . S
C3627 C3622 1.363 . S
C3627 C3626 1.415 . S
H3628 C3625 0.999 . S
H3629 C3610 0.913 . S
H3630 C3648 0.951 . S
H3631 C3650 0.951 . S
H3632 C3652 0.950 . S
H3633 C3653 0.950 . S
H3634 C3655 0.950 . S
H3635 C3658 0.950 . S
H3636 C3659 0.950 . S
H3637 C3661 0.950 . S
H3638 C3662 0.950 . S
H3639 C3663 0.951 . S
H3640 C3665 0.951 . S
H3641 C3667 0.950 . S
H3642 C3668 0.950 . S
H3643 C3670 0.950 . S
H3644 C3673 0.950 . S
H3645 C3674 0.950 . S
H3646 C3676 0.950 . S
H3647 C3677 0.950 . S
C3648 H3630 0.951 . S
C3648 C3649 1.366 . S
C3648 C3650 1.388 . S
C3649 C3648 1.366 . S
C3649 C3653 1.385 . S
C3650 H3631 0.951 . S
C3650 C3648 1.388 . S
C3650 C3651 1.366 . S
C3651 C3650 1.366 . S
C3651 C3652 1.414 . S
C3651 C3654 1.499 . S
C3652 H3632 0.950 . S
C3652 C3651 1.414 . S
C3652 C3653 1.374 . S
C3653 H3633 0.950 . S
C3653 C3649 1.385 . S
C3653 C3652 1.374 . S
C3654 C3651 1.499 . S
C3654 C3655 1.373 . S
C3654 C3656 1.389 . S
C3655 H3634 0.950 . S
C3655 C3654 1.373 . S
C3655 C3671 1.377 . S
C3656 C3654 1.389 . S
C3656 C3657 1.524 . S
C3656 C3670 1.377 . S
C3657 C3656 1.524 . S
C3657 C3658 1.397 . S
C3657 C3662 1.363 . S
C3658 H3635 0.950 . S
C3658 C3657 1.397 . S
C3658 C3659 1.334 . S
C3659 H3636 0.950 . S
C3659 C3658 1.334 . S
C3659 C3660 1.287 . S
C3660 C3659 1.287 . S
C3660 C3661 1.524 . S
C3660 H3679 0.913 . S
C3661 H3637 0.950 . S
C3661 C3660 1.524 . S
C3661 C3662 1.415 . S
C3662 H3638 0.950 . S
C3662 C3657 1.363 . S
C3662 C3661 1.415 . S
C3663 H3639 0.951 . S
C3663 C3664 1.366 . S
C3663 C3665 1.388 . S
C3664 C3663 1.366 . S
C3664 C3668 1.385 . S
C3665 H3640 0.951 . S
C3665 C3663 1.388 . S
C3665 C3666 1.366 . S
C3666 C3665 1.366 . S
C3666 C3667 1.414 . S
C3666 C3669 1.499 . S
C3667 H3641 0.950 . S
C3667 C3666 1.414 . S
C3667 C3668 1.374 . S
C3668 H3642 0.950 . S
C3668 C3664 1.385 . S
C3668 C3667 1.374 . S
C3669 C3666 1.499 . S
C3669 C3670 1.373 . S
C3669 C3671 1.389 . S
C3670 H3643 0.950 . S
C3670 C3656 1.377 . S
C3670 C3669 1.373 . S
C3671 C3655 1.377 . S
C3671 C3669 1.389 . S
C3671 C3672 1.524 . S
C3672 C3671 1.524 . S
C3672 C3673 1.397 . S
C3672 C3677 1.363 . S
C3673 H3644 0.950 . S
C3673 C3672 1.397 . S
C3673 C3674 1.334 . S
C3674 H3645 0.950 . S
C3674 C3673 1.334 . S
C3674 C3675 1.287 . S
C3675 C3674 1.287 . S
C3675 C3676 1.524 . S
C3675 H3678 0.999 . S
C3676 H3646 0.950 . S
C3676 C3675 1.524 . S
C3676 C3677 1.415 . S
C3677 H3647 0.950 . S
C3677 C3672 1.363 . S
C3677 C3676 1.415 . S
H3678 C3675 0.999 . S
H3679 C3660 0.913 . S
H3680 C3698 0.951 . S
H3681 C3700 0.951 . S
H3682 C3702 0.950 1_556 S
H3683 C3703 0.950 1_556 S
H3684 C3705 0.950 . S
H3685 C3708 0.921 1_556 S
H3686 C3709 0.950 . S
H3687 C3711 0.950 . S
H3688 C3712 0.950 . S
H3689 C3713 0.951 . S
H3690 C3715 0.965 . S
H3691 C3717 0.950 . S
H3692 C3718 0.950 . S
H3693 C3720 0.950 . S
H3694 C3723 0.950 . S
H3695 C3724 0.950 . S
H3696 C3726 0.950 . S
H3697 C3727 0.950 . S
C3698 H3680 0.951 . S
C3698 C3699 1.366 . S
C3698 C3700 1.388 . S
C3699 C3698 1.366 . S
C3699 C3703 1.385 . S
C3700 H3681 0.951 . S
C3700 C3698 1.388 . S
C3700 C3701 1.366 . S
C3701 C3700 1.366 . S
C3701 C3702 1.414 . S
C3701 C3704 1.499 . S
C3702 H3682 0.950 1_554 S
C3702 C3701 1.414 . S
C3702 C3703 1.374 . S
C3703 H3683 0.950 1_554 S
C3703 C3699 1.385 . S
C3703 C3702 1.374 . S
C3704 C3701 1.499 . S
C3704 C3705 1.373 . S
C3704 C3706 1.389 . S
C3705 H3684 0.950 . S
C3705 C3704 1.373 . S
C3705 C3721 1.377 . S
C3706 C3704 1.389 . S
C3706 C3707 1.524 . S
C3706 C3720 1.377 . S
C3707 C3706 1.524 . S
C3707 C3708 1.397 . S
C3707 C3712 1.363 . S
C3708 H3685 0.921 1_554 S
C3708 C3707 1.397 . S
C3708 C3709 1.334 . S
C3709 H3686 0.950 . S
C3709 C3708 1.334 . S
C3709 C3710 1.287 . S
C3710 C3709 1.287 . S
C3710 C3711 1.524 . S
C3710 H3729 0.913 . S
C3711 H3687 0.950 . S
C3711 C3710 1.524 . S
C3711 C3712 1.415 . S
C3712 H3688 0.950 . S
C3712 C3707 1.363 . S
C3712 C3711 1.415 . S
C3713 H3689 0.951 . S
C3713 C3714 1.366 1_556 S
C3713 C3715 1.389 . S
C3714 C3713 1.366 1_554 S
C3714 C3718 1.385 . S
C3715 H3690 0.965 . S
C3715 C3713 1.389 . S
C3715 C3716 1.351 1_556 S
C3716 C3715 1.351 1_554 S
C3716 C3717 1.414 . S
C3716 C3719 1.499 . S
C3717 H3691 0.950 . S
C3717 C3716 1.414 . S
C3717 C3718 1.374 . S
C3718 H3692 0.950 . S
C3718 C3714 1.385 . S
C3718 C3717 1.374 . S
C3719 C3716 1.499 . S
C3719 C3720 1.373 . S
C3719 C3721 1.389 . S
C3720 H3693 0.950 . S
C3720 C3706 1.377 . S
C3720 C3719 1.373 . S
C3721 C3705 1.377 . S
C3721 C3719 1.389 . S
C3721 C3722 1.524 . S
C3722 C3721 1.524 . S
C3722 C3723 1.397 . S
C3722 C3727 1.363 1_554 S
C3723 H3694 0.950 . S
C3723 C3722 1.397 . S
C3723 C3724 1.334 . S
C3724 H3695 0.950 . S
C3724 C3723 1.334 . S
C3724 C3725 1.287 . S
C3725 C3724 1.287 . S
C3725 C3726 1.524 1_554 S
C3725 H3728 0.978 1_545 S
C3726 H3696 0.950 . S
C3726 C3725 1.524 1_556 S
C3726 C3727 1.415 . S
C3727 H3697 0.950 . S
C3727 C3722 1.363 1_556 S
C3727 C3726 1.415 . S
H3728 C3725 0.978 1_565 S
H3729 C3710 0.913 . S
H3730 C3748 0.951 . S
H3731 C3750 0.951 . S
H3732 C3752 0.950 . S
H3733 C3753 0.950 . S
H3734 C3755 0.950 . S
H3735 C3758 0.950 . S
H3736 C3759 0.950 . S
H3737 C3761 0.950 . S
H3738 C3762 0.950 . S
H3739 C3763 0.951 . S
H3740 C3765 0.951 . S
H3741 C3767 0.950 . S
H3742 C3768 0.950 . S
H3743 C3770 0.950 . S
H3744 C3773 0.959 . S
H3745 C3774 0.950 . S
H3746 C3776 0.950 . S
H3747 C3777 0.950 . S
C3748 H3730 0.951 . S
C3748 C3749 1.366 . S
C3748 C3750 1.388 . S
C3749 C3748 1.366 . S
C3749 C3753 1.385 . S
C3750 H3731 0.951 . S
C3750 C3748 1.388 . S
C3750 C3751 1.366 . S
C3751 C3750 1.366 . S
C3751 C3752 1.414 . S
C3751 C3754 1.499 . S
C3752 H3732 0.950 . S
C3752 C3751 1.414 . S
C3752 C3753 1.374 . S
C3753 H3733 0.950 . S
C3753 C3749 1.385 . S
C3753 C3752 1.374 . S
C3754 C3751 1.499 . S
C3754 C3755 1.373 . S
C3754 C3756 1.389 . S
C3755 H3734 0.950 . S
C3755 C3754 1.373 . S
C3755 C3771 1.377 . S
C3756 C3754 1.389 . S
C3756 C3757 1.524 . S
C3756 C3770 1.377 . S
C3757 C3756 1.524 . S
C3757 C3758 1.397 . S
C3757 C3762 1.363 . S
C3758 H3735 0.950 . S
C3758 C3757 1.397 . S
C3758 C3759 1.334 . S
C3759 H3736 0.950 . S
C3759 C3758 1.334 . S
C3759 C3760 1.287 . S
C3760 C3759 1.287 . S
C3760 C3761 1.524 . S
C3760 H3779 0.913 . S
C3761 H3737 0.950 . S
C3761 C3760 1.524 . S
C3761 C3762 1.415 . S
C3762 H3738 0.950 . S
C3762 C3757 1.363 . S
C3762 C3761 1.415 . S
C3763 H3739 0.951 . S
C3763 C3764 1.366 . S
C3763 C3765 1.388 . S
C3764 C3763 1.366 . S
C3764 C3768 1.385 . S
C3765 H3740 0.951 . S
C3765 C3763 1.388 . S
C3765 C3766 1.366 . S
C3766 C3765 1.366 . S
C3766 C3767 1.414 . S
C3766 C3769 1.499 . S
C3767 H3741 0.950 . S
C3767 C3766 1.414 . S
C3767 C3768 1.374 . S
C3768 H3742 0.950 . S
C3768 C3764 1.385 . S
C3768 C3767 1.374 . S
C3769 C3766 1.499 . S
C3769 C3770 1.373 . S
C3769 C3771 1.389 . S
C3770 H3743 0.950 . S
C3770 C3756 1.377 . S
C3770 C3769 1.373 . S
C3771 C3755 1.377 . S
C3771 C3769 1.389 . S
C3771 C3772 1.569 . S
C3772 C3771 1.569 . S
C3772 C3773 1.380 1_554 S
C3772 C3777 1.337 1_554 S
C3773 H3744 0.959 . S
C3773 C3772 1.380 1_556 S
C3773 C3774 1.334 . S
C3774 H3745 0.950 . S
C3774 C3773 1.334 . S
C3774 C3775 1.287 . S
C3775 C3774 1.287 . S
C3775 C3776 1.524 . S
C3775 H3778 0.999 . S
C3776 H3746 0.950 . S
C3776 C3775 1.524 . S
C3776 C3777 1.415 . S
C3777 H3747 0.950 . S
C3777 C3772 1.337 1_556 S
C3777 C3776 1.415 . S
H3778 C3775 0.999 . S
H3779 C3760 0.913 . S
H3780 C3798 0.951 . S
H3781 C3800 0.951 . S
H3782 C3802 0.950 . S
H3783 C3803 0.950 . S
H3784 C3805 0.950 . S
H3785 C3808 0.950 . S
H3786 C3809 0.950 . S
H3787 C3811 0.950 . S
H3788 C3812 0.950 . S
H3789 C3813 0.951 . S
H3790 C3815 0.951 . S
H3791 C3817 0.950 . S
H3792 C3818 0.950 . S
H3793 C3820 0.950 . S
H3794 C3823 0.950 . S
H3795 C3824 0.950 . S
H3796 C3826 0.950 . S
H3797 C3827 0.950 . S
C3798 H3780 0.951 . S
C3798 C3799 1.366 . S
C3798 C3800 1.388 . S
C3799 C3798 1.366 . S
C3799 C3803 1.385 . S
C3800 H3781 0.951 . S
C3800 C3798 1.388 . S
C3800 C3801 1.366 . S
C3801 C3800 1.366 . S
C3801 C3802 1.414 . S
C3801 C3804 1.499 . S
C3802 H3782 0.950 . S
C3802 C3801 1.414 . S
C3802 C3803 1.374 . S
C3803 H3783 0.950 . S
C3803 C3799 1.385 . S
C3803 C3802 1.374 . S
C3804 C3801 1.499 . S
C3804 C3805 1.373 . S
C3804 C3806 1.389 . S
C3805 H3784 0.950 . S
C3805 C3804 1.373 . S
C3805 C3821 1.377 . S
C3806 C3804 1.389 . S
C3806 C3807 1.524 . S
C3806 C3820 1.377 . S
C3807 C3806 1.524 . S
C3807 C3808 1.397 . S
C3807 C3812 1.363 . S
C3808 H3785 0.950 . S
C3808 C3807 1.397 . S
C3808 C3809 1.334 . S
C3809 H3786 0.950 . S
C3809 C3808 1.334 . S
C3809 C3810 1.287 . S
C3810 C3809 1.287 . S
C3810 C3811 1.524 . S
C3810 H3829 0.913 . S
C3811 H3787 0.950 . S
C3811 C3810 1.524 . S
C3811 C3812 1.415 . S
C3812 H3788 0.950 . S
C3812 C3807 1.363 . S
C3812 C3811 1.415 . S
C3813 H3789 0.951 . S
C3813 C3814 1.366 . S
C3813 C3815 1.388 . S
C3814 C3813 1.366 . S
C3814 C3818 1.385 . S
C3815 H3790 0.951 . S
C3815 C3813 1.388 . S
C3815 C3816 1.366 . S
C3816 C3815 1.366 . S
C3816 C3817 1.414 . S
C3816 C3819 1.499 . S
C3817 H3791 0.950 . S
C3817 C3816 1.414 . S
C3817 C3818 1.374 . S
C3818 H3792 0.950 . S
C3818 C3814 1.385 . S
C3818 C3817 1.374 . S
C3819 C3816 1.499 . S
C3819 C3820 1.373 . S
C3819 C3821 1.389 . S
C3820 H3793 0.950 . S
C3820 C3806 1.377 . S
C3820 C3819 1.373 . S
C3821 C3805 1.377 . S
C3821 C3819 1.389 . S
C3821 C3822 1.524 . S
C3822 C3821 1.524 . S
C3822 C3823 1.397 . S
C3822 C3827 1.363 . S
C3823 H3794 0.950 . S
C3823 C3822 1.397 . S
C3823 C3824 1.334 . S
C3824 H3795 0.950 . S
C3824 C3823 1.334 . S
C3824 C3825 1.287 . S
C3825 C3824 1.287 . S
C3825 C3826 1.524 . S
C3825 H3828 0.999 . S
C3826 H3796 0.950 . S
C3826 C3825 1.524 . S
C3826 C3827 1.415 . S
C3827 H3797 0.950 . S
C3827 C3822 1.363 . S
C3827 C3826 1.415 . S
H3828 C3825 0.999 . S
H3829 C3810 0.913 . S
H3830 C3848 0.951 . S
H3831 C3850 0.951 . S
H3832 C3852 0.950 . S
H3833 C3853 0.950 . S
H3834 C3855 0.950 . S
H3835 C3858 0.950 . S
H3836 C3859 0.950 . S
H3837 C3861 0.950 . S
H3838 C3862 0.950 . S
H3839 C3863 0.951 . S
H3840 C3865 0.951 . S
H3841 C3867 0.950 . S
H3842 C3868 0.950 . S
H3843 C3870 0.950 . S
H3844 C3873 0.950 . S
H3845 C3874 0.950 . S
H3846 C3876 0.950 . S
H3847 C3877 0.950 . S
C3848 H3830 0.951 . S
C3848 C3849 1.366 . S
C3848 C3850 1.388 . S
C3849 C3848 1.366 . S
C3849 C3853 1.385 . S
C3850 H3831 0.951 . S
C3850 C3848 1.388 . S
C3850 C3851 1.366 . S
C3851 C3850 1.366 . S
C3851 C3852 1.414 . S
C3851 C3854 1.499 . S
C3852 H3832 0.950 . S
C3852 C3851 1.414 . S
C3852 C3853 1.374 . S
C3853 H3833 0.950 . S
C3853 C3849 1.385 . S
C3853 C3852 1.374 . S
C3854 C3851 1.499 . S
C3854 C3855 1.373 . S
C3854 C3856 1.389 . S
C3855 H3834 0.950 . S
C3855 C3854 1.373 . S
C3855 C3871 1.377 . S
C3856 C3854 1.389 . S
C3856 C3857 1.524 . S
C3856 C3870 1.377 . S
C3857 C3856 1.524 . S
C3857 C3858 1.397 . S
C3857 C3862 1.363 . S
C3858 H3835 0.950 . S
C3858 C3857 1.397 . S
C3858 C3859 1.334 . S
C3859 H3836 0.950 . S
C3859 C3858 1.334 . S
C3859 C3860 1.287 . S
C3860 C3859 1.287 . S
C3860 C3861 1.524 . S
C3860 H3879 0.913 . S
C3861 H3837 0.950 . S
C3861 C3860 1.524 . S
C3861 C3862 1.415 . S
C3862 H3838 0.950 . S
C3862 C3857 1.363 . S
C3862 C3861 1.415 . S
C3863 H3839 0.951 . S
C3863 C3864 1.366 . S
C3863 C3865 1.388 . S
C3864 C3863 1.366 . S
C3864 C3868 1.385 . S
C3865 H3840 0.951 . S
C3865 C3863 1.388 . S
C3865 C3866 1.366 . S
C3866 C3865 1.366 . S
C3866 C3867 1.414 . S
C3866 C3869 1.499 . S
C3867 H3841 0.950 . S
C3867 C3866 1.414 . S
C3867 C3868 1.374 . S
C3868 H3842 0.950 . S
C3868 C3864 1.385 . S
C3868 C3867 1.374 . S
C3869 C3866 1.499 . S
C3869 C3870 1.373 . S
C3869 C3871 1.389 . S
C3870 H3843 0.950 . S
C3870 C3856 1.377 . S
C3870 C3869 1.373 . S
C3871 C3855 1.377 . S
C3871 C3869 1.389 . S
C3871 C3872 1.524 . S
C3872 C3871 1.524 . S
C3872 C3873 1.397 . S
C3872 C3877 1.363 . S
C3873 H3844 0.950 . S
C3873 C3872 1.397 . S
C3873 C3874 1.334 . S
C3874 H3845 0.950 . S
C3874 C3873 1.334 . S
C3874 C3875 1.287 . S
C3875 C3874 1.287 . S
C3875 C3876 1.524 . S
C3875 H3878 0.999 . S
C3876 H3846 0.950 . S
C3876 C3875 1.524 . S
C3876 C3877 1.415 . S
C3877 H3847 0.950 . S
C3877 C3872 1.363 . S
C3877 C3876 1.415 . S
H3878 C3875 0.999 . S
H3879 C3860 0.913 . S
H3880 C3898 0.951 . S
H3881 C3900 0.951 . S
H3882 C3902 0.950 . S
H3883 C3903 0.950 . S
H3884 C3905 0.950 . S
H3885 C3908 0.950 . S
H3886 C3909 0.950 . S
H3887 C3911 0.950 . S
H3888 C3912 0.950 . S
H3889 C3913 0.951 . S
H3890 C3915 0.951 . S
H3891 C3917 0.950 . S
H3892 C3918 0.950 . S
H3893 C3920 0.950 . S
H3894 C3923 0.950 . S
H3895 C3924 0.950 . S
H3896 C3926 0.950 . S
H3897 C3927 0.950 . S
C3898 H3880 0.951 . S
C3898 C3899 1.366 1_545 S
C3898 C3900 1.388 1_545 S
C3899 C3898 1.366 1_565 S
C3899 C3903 1.385 . S
C3900 H3881 0.951 . S
C3900 C3898 1.388 1_565 S
C3900 C3901 1.366 . S
C3901 C3900 1.366 . S
C3901 C3902 1.414 . S
C3901 C3904 1.499 . S
C3902 H3882 0.950 . S
C3902 C3901 1.414 . S
C3902 C3903 1.374 . S
C3903 H3883 0.950 . S
C3903 C3899 1.385 . S
C3903 C3902 1.374 . S
C3904 C3901 1.499 . S
C3904 C3905 1.373 . S
C3904 C3906 1.389 . S
C3905 H3884 0.950 . S
C3905 C3904 1.373 . S
C3905 C3921 1.377 . S
C3906 C3904 1.389 . S
C3906 C3907 1.524 . S
C3906 C3920 1.377 . S
C3907 C3906 1.524 . S
C3907 C3908 1.397 . S
C3907 C3912 1.363 . S
C3908 H3885 0.950 . S
C3908 C3907 1.397 . S
C3908 C3909 1.334 . S
C3909 H3886 0.950 . S
C3909 C3908 1.334 . S
C3909 C3910 1.287 . S
C3910 C3909 1.287 . S
C3910 C3911 1.524 . S
C3910 H3929 0.913 . S
C3911 H3887 0.950 . S
C3911 C3910 1.524 . S
C3911 C3912 1.415 . S
C3912 H3888 0.950 . S
C3912 C3907 1.363 . S
C3912 C3911 1.415 . S
C3913 H3889 0.951 . S
C3913 C3914 1.366 . S
C3913 C3915 1.388 . S
C3914 C3913 1.366 . S
C3914 C3918 1.385 . S
C3915 H3890 0.951 . S
C3915 C3913 1.388 . S
C3915 C3916 1.366 . S
C3916 C3915 1.366 . S
C3916 C3917 1.414 . S
C3916 C3919 1.499 . S
C3917 H3891 0.950 . S
C3917 C3916 1.414 . S
C3917 C3918 1.374 . S
C3918 H3892 0.950 . S
C3918 C3914 1.385 . S
C3918 C3917 1.374 . S
C3919 C3916 1.499 . S
C3919 C3920 1.373 . S
C3919 C3921 1.389 . S
C3920 H3893 0.950 . S
C3920 C3906 1.377 . S
C3920 C3919 1.373 . S
C3921 C3905 1.377 . S
C3921 C3919 1.389 . S
C3921 C3922 1.524 . S
C3922 C3921 1.524 . S
C3922 C3923 1.397 . S
C3922 C3927 1.363 . S
C3923 H3894 0.950 . S
C3923 C3922 1.397 . S
C3923 C3924 1.334 . S
C3924 H3895 0.950 . S
C3924 C3923 1.334 . S
C3924 C3925 1.287 . S
C3925 C3924 1.287 . S
C3925 C3926 1.524 . S
C3925 H3928 0.999 . S
C3926 H3896 0.950 . S
C3926 C3925 1.524 . S
C3926 C3927 1.415 . S
C3927 H3897 0.950 . S
C3927 C3922 1.363 . S
C3927 C3926 1.415 . S
H3928 C3925 0.999 . S
H3929 C3910 0.913 . S
H3930 C3948 0.951 . S
H3931 C3950 0.951 . S
H3932 C3952 0.950 . S
H3933 C3953 0.950 . S
H3934 C3955 0.950 . S
H3935 C3958 0.950 . S
H3936 C3959 0.950 . S
H3937 C3961 0.950 . S
H3938 C3962 0.950 . S
H3939 C3963 0.951 1_545 S
H3940 C3965 0.951 . S
H3941 C3967 0.950 . S
H3942 C3968 0.950 . S
H3943 C3970 0.950 . S
H3944 C3973 0.950 . S
H3945 C3974 0.950 . S
H3946 C3976 0.950 . S
H3947 C3977 0.950 . S
C3948 H3930 0.951 . S
C3948 C3949 1.366 . S
C3948 C3950 1.388 . S
C3949 C3948 1.366 . S
C3949 C3953 1.385 . S
C3950 H3931 0.951 . S
C3950 C3948 1.388 . S
C3950 C3951 1.366 . S
C3951 C3950 1.366 . S
C3951 C3952 1.414 . S
C3951 C3954 1.499 . S
C3952 H3932 0.950 . S
C3952 C3951 1.414 . S
C3952 C3953 1.374 . S
C3953 H3933 0.950 . S
C3953 C3949 1.385 . S
C3953 C3952 1.374 . S
C3954 C3951 1.499 . S
C3954 C3955 1.373 . S
C3954 C3956 1.389 . S
C3955 H3934 0.950 . S
C3955 C3954 1.373 . S
C3955 C3971 1.377 . S
C3956 C3954 1.389 . S
C3956 C3957 1.524 . S
C3956 C3970 1.377 . S
C3957 C3956 1.524 . S
C3957 C3958 1.397 . S
C3957 C3962 1.363 . S
C3958 H3935 0.950 . S
C3958 C3957 1.397 . S
C3958 C3959 1.334 . S
C3959 H3936 0.950 . S
C3959 C3958 1.334 . S
C3959 C3960 1.287 . S
C3960 C3959 1.287 . S
C3960 C3961 1.524 . S
C3960 H3979 0.913 . S
C3961 H3937 0.950 . S
C3961 C3960 1.524 . S
C3961 C3962 1.415 . S
C3962 H3938 0.950 . S
C3962 C3957 1.363 . S
C3962 C3961 1.415 . S
C3963 H3939 0.951 1_565 S
C3963 C3964 1.366 . S
C3963 C3965 1.388 . S
C3964 C3963 1.366 . S
C3964 C3968 1.385 . S
C3965 H3940 0.951 . S
C3965 C3963 1.388 . S
C3965 C3966 1.366 . S
C3966 C3965 1.366 . S
C3966 C3967 1.414 . S
C3966 C3969 1.499 . S
C3967 H3941 0.950 . S
C3967 C3966 1.414 . S
C3967 C3968 1.374 . S
C3968 H3942 0.950 . S
C3968 C3964 1.385 . S
C3968 C3967 1.374 . S
C3969 C3966 1.499 . S
C3969 C3970 1.373 . S
C3969 C3971 1.389 . S
C3970 H3943 0.950 . S
C3970 C3956 1.377 . S
C3970 C3969 1.373 . S
C3971 C3955 1.377 . S
C3971 C3969 1.389 . S
C3971 C3972 1.524 . S
C3972 C3971 1.524 . S
C3972 C3973 1.397 . S
C3972 C3977 1.363 . S
C3973 H3944 0.950 . S
C3973 C3972 1.397 . S
C3973 C3974 1.334 . S
C3974 H3945 0.950 . S
C3974 C3973 1.334 . S
C3974 C3975 1.287 . S
C3975 C3974 1.287 . S
C3975 C3976 1.524 . S
C3975 H3978 0.999 . S
C3976 H3946 0.950 . S
C3976 C3975 1.524 . S
C3976 C3977 1.415 . S
C3977 H3947 0.950 . S
C3977 C3972 1.363 . S
C3977 C3976 1.415 . S
H3978 C3975 0.999 . S
H3979 C3960 0.913 . S
H3980 C3998 0.951 . S
H3981 C4000 0.951 . S
H3982 C4002 0.950 . S
H3983 C4003 0.950 . S
H3984 C4005 0.950 . S
H3985 C4008 0.950 . S
H3986 C4009 0.950 . S
H3987 C4011 0.950 . S
H3988 C4012 0.950 . S
H3989 C4013 0.951 . S
H3990 C4015 0.951 . S
H3991 C4017 0.950 . S
H3992 C4018 0.950 . S
H3993 C4020 0.950 . S
H3994 C4023 0.950 . S
H3995 C4024 0.950 . S
H3996 C4026 0.950 . S
H3997 C4027 0.950 . S
C3998 H3980 0.951 . S
C3998 C3999 1.366 . S
C3998 C4000 1.388 . S
C3999 C3998 1.366 . S
C3999 C4003 1.385 . S
C4000 H3981 0.951 . S
C4000 C3998 1.388 . S
C4000 C4001 1.366 . S
C4001 C4000 1.366 . S
C4001 C4002 1.414 . S
C4001 C4004 1.499 . S
C4002 H3982 0.950 . S
C4002 C4001 1.414 . S
C4002 C4003 1.374 . S
C4003 H3983 0.950 . S
C4003 C3999 1.385 . S
C4003 C4002 1.374 . S
C4004 C4001 1.499 . S
C4004 C4005 1.373 . S
C4004 C4006 1.389 . S
C4005 H3984 0.950 . S
C4005 C4004 1.373 . S
C4005 C4021 1.377 . S
C4006 C4004 1.389 . S
C4006 C4007 1.524 . S
C4006 C4020 1.377 . S
C4007 C4006 1.524 . S
C4007 C4008 1.397 . S
C4007 C4012 1.363 . S
C4008 H3985 0.950 . S
C4008 C4007 1.397 . S
C4008 C4009 1.334 . S
C4009 H3986 0.950 . S
C4009 C4008 1.334 . S
C4009 C4010 1.287 . S
C4010 C4009 1.287 . S
C4010 C4011 1.524 . S
C4010 H4029 0.913 . S
C4011 H3987 0.950 . S
C4011 C4010 1.524 . S
C4011 C4012 1.415 . S
C4012 H3988 0.950 . S
C4012 C4007 1.363 . S
C4012 C4011 1.415 . S
C4013 H3989 0.951 . S
C4013 C4014 1.366 . S
C4013 C4015 1.388 . S
C4014 C4013 1.366 . S
C4014 C4018 1.385 . S
C4015 H3990 0.951 . S
C4015 C4013 1.388 . S
C4015 C4016 1.366 . S
C4016 C4015 1.366 . S
C4016 C4017 1.414 . S
C4016 C4019 1.499 . S
C4017 H3991 0.950 . S
C4017 C4016 1.414 . S
C4017 C4018 1.374 . S
C4018 H3992 0.950 . S
C4018 C4014 1.385 . S
C4018 C4017 1.374 . S
C4019 C4016 1.499 . S
C4019 C4020 1.373 . S
C4019 C4021 1.389 . S
C4020 H3993 0.950 . S
C4020 C4006 1.377 . S
C4020 C4019 1.373 . S
C4021 C4005 1.377 . S
C4021 C4019 1.389 . S
C4021 C4022 1.524 . S
C4022 C4021 1.524 . S
C4022 C4023 1.397 . S
C4022 C4027 1.363 . S
C4023 H3994 0.950 . S
C4023 C4022 1.397 . S
C4023 C4024 1.334 . S
C4024 H3995 0.950 . S
C4024 C4023 1.334 . S
C4024 C4025 1.287 . S
C4025 C4024 1.287 . S
C4025 C4026 1.524 . S
C4025 H4028 0.999 . S
C4026 H3996 0.950 . S
C4026 C4025 1.524 . S
C4026 C4027 1.415 . S
C4027 H3997 0.950 . S
C4027 C4022 1.363 . S
C4027 C4026 1.415 . S
H4028 C4025 0.999 . S
H4029 C4010 0.913 . S
H4030 C4048 0.951 . S
H4031 C4050 0.951 . S
H4032 C4052 0.950 . S
H4033 C4053 0.950 . S
H4034 C4055 0.950 . S
H4035 C4058 0.950 . S
H4036 C4059 0.950 . S
H4037 C4061 0.950 . S
H4038 C4062 0.950 . S
H4039 C4063 0.951 . S
H4040 C4065 0.951 . S
H4041 C4067 0.950 . S
H4042 C4068 0.950 . S
H4043 C4070 0.950 . S
H4044 C4073 0.950 . S
H4045 C4074 0.950 . S
H4046 C4076 0.950 . S
H4047 C4077 0.950 . S
C4048 H4030 0.951 . S
C4048 C4049 1.366 . S
C4048 C4050 1.388 . S
C4049 C4048 1.366 . S
C4049 C4053 1.385 . S
C4050 H4031 0.951 . S
C4050 C4048 1.388 . S
C4050 C4051 1.366 . S
C4051 C4050 1.366 . S
C4051 C4052 1.414 . S
C4051 C4054 1.499 . S
C4052 H4032 0.950 . S
C4052 C4051 1.414 . S
C4052 C4053 1.374 . S
C4053 H4033 0.950 . S
C4053 C4049 1.385 . S
C4053 C4052 1.374 . S
C4054 C4051 1.499 . S
C4054 C4055 1.373 . S
C4054 C4056 1.389 . S
C4055 H4034 0.950 . S
C4055 C4054 1.373 . S
C4055 C4071 1.377 . S
C4056 C4054 1.389 . S
C4056 C4057 1.524 . S
C4056 C4070 1.377 . S
C4057 C4056 1.524 . S
C4057 C4058 1.397 . S
C4057 C4062 1.363 . S
C4058 H4035 0.950 . S
C4058 C4057 1.397 . S
C4058 C4059 1.334 . S
C4059 H4036 0.950 . S
C4059 C4058 1.334 . S
C4059 C4060 1.287 . S
C4060 C4059 1.287 . S
C4060 C4061 1.524 . S
C4060 H4079 0.913 . S
C4061 H4037 0.950 . S
C4061 C4060 1.524 . S
C4061 C4062 1.415 . S
C4062 H4038 0.950 . S
C4062 C4057 1.363 . S
C4062 C4061 1.415 . S
C4063 H4039 0.951 . S
C4063 C4064 1.366 . S
C4063 C4065 1.388 . S
C4064 C4063 1.366 . S
C4064 C4068 1.385 . S
C4065 H4040 0.951 . S
C4065 C4063 1.388 . S
C4065 C4066 1.366 . S
C4066 C4065 1.366 . S
C4066 C4067 1.414 . S
C4066 C4069 1.499 . S
C4067 H4041 0.950 . S
C4067 C4066 1.414 . S
C4067 C4068 1.374 . S
C4068 H4042 0.950 . S
C4068 C4064 1.385 . S
C4068 C4067 1.374 . S
C4069 C4066 1.499 . S
C4069 C4070 1.373 . S
C4069 C4071 1.389 . S
C4070 H4043 0.950 . S
C4070 C4056 1.377 . S
C4070 C4069 1.373 . S
C4071 C4055 1.377 . S
C4071 C4069 1.389 . S
C4071 C4072 1.524 . S
C4072 C4071 1.524 . S
C4072 C4073 1.397 . S
C4072 C4077 1.363 . S
C4073 H4044 0.950 . S
C4073 C4072 1.397 . S
C4073 C4074 1.334 . S
C4074 H4045 0.950 . S
C4074 C4073 1.334 . S
C4074 C4075 1.287 . S
C4075 C4074 1.287 . S
C4075 C4076 1.524 . S
C4075 H4078 0.999 . S
C4076 H4046 0.950 . S
C4076 C4075 1.524 . S
C4076 C4077 1.415 . S
C4077 H4047 0.950 . S
C4077 C4072 1.363 . S
C4077 C4076 1.415 . S
H4078 C4075 0.999 . S
H4079 C4060 0.913 . S
H4080 C4098 0.951 . S
H4081 C4100 0.951 . S
H4082 C4102 0.950 . S
H4083 C4103 0.950 . S
H4084 C4105 0.950 . S
H4085 C4108 0.950 . S
H4086 C4109 0.950 . S
H4087 C4111 0.950 . S
H4088 C4112 0.950 . S
H4089 C4113 0.951 . S
H4090 C4115 0.951 . S
H4091 C4117 0.950 . S
H4092 C4118 0.950 . S
H4093 C4120 0.950 . S
H4094 C4123 0.950 . S
H4095 C4124 0.950 . S
H4096 C4126 0.950 . S
H4097 C4127 0.950 . S
C4098 H4080 0.951 . S
C4098 C4099 1.366 . S
C4098 C4100 1.388 . S
C4099 C4098 1.366 . S
C4099 C4103 1.385 . S
C4100 H4081 0.951 . S
C4100 C4098 1.388 . S
C4100 C4101 1.366 . S
C4101 C4100 1.366 . S
C4101 C4102 1.414 . S
C4101 C4104 1.499 . S
C4102 H4082 0.950 . S
C4102 C4101 1.414 . S
C4102 C4103 1.374 . S
C4103 H4083 0.950 . S
C4103 C4099 1.385 . S
C4103 C4102 1.374 . S
C4104 C4101 1.499 . S
C4104 C4105 1.373 . S
C4104 C4106 1.389 . S
C4105 H4084 0.950 . S
C4105 C4104 1.373 . S
C4105 C4121 1.377 . S
C4106 C4104 1.389 . S
C4106 C4107 1.524 . S
C4106 C4120 1.377 . S
C4107 C4106 1.524 . S
C4107 C4108 1.397 . S
C4107 C4112 1.363 . S
C4108 H4085 0.950 . S
C4108 C4107 1.397 . S
C4108 C4109 1.334 . S
C4109 H4086 0.950 . S
C4109 C4108 1.334 . S
C4109 C4110 1.287 . S
C4110 C4109 1.287 . S
C4110 C4111 1.524 . S
C4110 H4129 0.913 . S
C4111 H4087 0.950 . S
C4111 C4110 1.524 . S
C4111 C4112 1.415 . S
C4112 H4088 0.950 . S
C4112 C4107 1.363 . S
C4112 C4111 1.415 . S
C4113 H4089 0.951 . S
C4113 C4114 1.366 . S
C4113 C4115 1.388 . S
C4114 C4113 1.366 . S
C4114 C4118 1.385 . S
C4115 H4090 0.951 . S
C4115 C4113 1.388 . S
C4115 C4116 1.366 . S
C4116 C4115 1.366 . S
C4116 C4117 1.414 . S
C4116 C4119 1.499 . S
C4117 H4091 0.950 . S
C4117 C4116 1.414 . S
C4117 C4118 1.374 . S
C4118 H4092 0.950 . S
C4118 C4114 1.385 . S
C4118 C4117 1.374 . S
C4119 C4116 1.499 . S
C4119 C4120 1.373 . S
C4119 C4121 1.389 . S
C4120 H4093 0.950 . S
C4120 C4106 1.377 . S
C4120 C4119 1.373 . S
C4121 C4105 1.377 . S
C4121 C4119 1.389 . S
C4121 C4122 1.524 . S
C4122 C4121 1.524 . S
C4122 C4123 1.397 . S
C4122 C4127 1.363 . S
C4123 H4094 0.950 . S
C4123 C4122 1.397 . S
C4123 C4124 1.334 . S
C4124 H4095 0.950 . S
C4124 C4123 1.334 . S
C4124 C4125 1.287 . S
C4125 C4124 1.287 . S
C4125 C4126 1.524 . S
C4125 H4128 0.999 . S
C4126 H4096 0.950 . S
C4126 C4125 1.524 . S
C4126 C4127 1.415 . S
C4127 H4097 0.950 . S
C4127 C4122 1.363 . S
C4127 C4126 1.415 . S
H4128 C4125 0.999 . S
H4129 C4110 0.913 . S
H4130 C4148 0.951 . S
H4131 C4150 0.951 . S
H4132 C4152 0.950 . S
H4133 C4153 0.950 . S
H4134 C4155 0.950 . S
H4135 C4158 0.950 . S
H4136 C4159 0.950 . S
H4137 C4161 0.950 . S
H4138 C4162 0.950 . S
H4139 C4163 0.951 . S
H4140 C4165 0.951 . S
H4141 C4167 0.950 . S
H4142 C4168 0.950 . S
H4143 C4170 0.950 . S
H4144 C4173 0.950 . S
H4145 C4174 0.950 . S
H4146 C4176 0.950 . S
H4147 C4177 0.950 . S
C4148 H4130 0.951 . S
C4148 C4149 1.366 . S
C4148 C4150 1.388 . S
C4149 C4148 1.366 . S
C4149 C4153 1.385 . S
C4150 H4131 0.951 . S
C4150 C4148 1.388 . S
C4150 C4151 1.366 . S
C4151 C4150 1.366 . S
C4151 C4152 1.414 . S
C4151 C4154 1.499 . S
C4152 H4132 0.950 . S
C4152 C4151 1.414 . S
C4152 C4153 1.374 . S
C4153 H4133 0.950 . S
C4153 C4149 1.385 . S
C4153 C4152 1.374 . S
C4154 C4151 1.499 . S
C4154 C4155 1.373 . S
C4154 C4156 1.389 . S
C4155 H4134 0.950 . S
C4155 C4154 1.373 . S
C4155 C4171 1.377 . S
C4156 C4154 1.389 . S
C4156 C4157 1.524 . S
C4156 C4170 1.377 . S
C4157 C4156 1.524 . S
C4157 C4158 1.397 . S
C4157 C4162 1.363 . S
C4158 H4135 0.950 . S
C4158 C4157 1.397 . S
C4158 C4159 1.334 . S
C4159 H4136 0.950 . S
C4159 C4158 1.334 . S
C4159 C4160 1.287 . S
C4160 C4159 1.287 . S
C4160 C4161 1.524 . S
C4160 H4179 0.913 . S
C4161 H4137 0.950 . S
C4161 C4160 1.524 . S
C4161 C4162 1.415 . S
C4162 H4138 0.950 . S
C4162 C4157 1.363 . S
C4162 C4161 1.415 . S
C4163 H4139 0.951 . S
C4163 C4164 1.366 . S
C4163 C4165 1.388 . S
C4164 C4163 1.366 . S
C4164 C4168 1.385 . S
C4165 H4140 0.951 . S
C4165 C4163 1.388 . S
C4165 C4166 1.366 . S
C4166 C4165 1.366 . S
C4166 C4167 1.414 . S
C4166 C4169 1.499 . S
C4167 H4141 0.950 . S
C4167 C4166 1.414 . S
C4167 C4168 1.374 . S
C4168 H4142 0.950 . S
C4168 C4164 1.385 . S
C4168 C4167 1.374 . S
C4169 C4166 1.499 . S
C4169 C4170 1.373 . S
C4169 C4171 1.389 . S
C4170 H4143 0.950 . S
C4170 C4156 1.377 . S
C4170 C4169 1.373 . S
C4171 C4155 1.377 . S
C4171 C4169 1.389 . S
C4171 C4172 1.524 . S
C4172 C4171 1.524 . S
C4172 C4173 1.397 . S
C4172 C4177 1.363 . S
C4173 H4144 0.950 . S
C4173 C4172 1.397 . S
C4173 C4174 1.334 . S
C4174 H4145 0.950 . S
C4174 C4173 1.334 . S
C4174 C4175 1.287 . S
C4175 C4174 1.287 . S
C4175 C4176 1.524 . S
C4175 H4178 0.999 . S
C4176 H4146 0.950 . S
C4176 C4175 1.524 . S
C4176 C4177 1.415 . S
C4177 H4147 0.950 . S
C4177 C4172 1.363 . S
C4177 C4176 1.415 . S
H4178 C4175 0.999 . S
H4179 C4160 0.913 . S
H4180 C4198 0.951 . S
H4181 C4200 0.951 . S
H4182 C4202 0.950 . S
H4183 C4203 0.950 . S
H4184 C4205 0.950 . S
H4185 C4208 0.950 . S
H4186 C4209 0.950 . S
H4187 C4211 0.950 . S
H4188 C4212 0.950 . S
H4189 C4213 0.951 . S
H4190 C4215 0.951 . S
H4191 C4217 0.950 . S
H4192 C4218 0.942 1_556 S
H4193 C4220 0.950 . S
H4194 C4223 0.950 . S
H4195 C4224 0.950 . S
H4196 C4226 0.950 . S
H4197 C4227 0.950 . S
C4198 H4180 0.951 . S
C4198 C4199 1.366 . S
C4198 C4200 1.388 . S
C4199 C4198 1.366 . S
C4199 C4203 1.385 . S
C4200 H4181 0.951 . S
C4200 C4198 1.388 . S
C4200 C4201 1.366 . S
C4201 C4200 1.366 . S
C4201 C4202 1.414 . S
C4201 C4204 1.499 . S
C4202 H4182 0.950 . S
C4202 C4201 1.414 . S
C4202 C4203 1.374 . S
C4203 H4183 0.950 . S
C4203 C4199 1.385 . S
C4203 C4202 1.374 . S
C4204 C4201 1.499 . S
C4204 C4205 1.373 . S
C4204 C4206 1.389 . S
C4205 H4184 0.950 . S
C4205 C4204 1.373 . S
C4205 C4221 1.377 . S
C4206 C4204 1.389 . S
C4206 C4207 1.524 . S
C4206 C4220 1.377 . S
C4207 C4206 1.524 . S
C4207 C4208 1.397 1_556 S
C4207 C4212 1.363 . S
C4208 H4185 0.950 . S
C4208 C4207 1.397 1_554 S
C4208 C4209 1.334 . S
C4209 H4186 0.950 . S
C4209 C4208 1.334 . S
C4209 C4210 1.287 . S
C4210 C4209 1.287 . S
C4210 C4211 1.524 1_554 S
C4210 H4229 0.913 . S
C4211 H4187 0.950 . S
C4211 C4210 1.524 1_556 S
C4211 C4212 1.415 . S
C4212 H4188 0.950 . S
C4212 C4207 1.363 . S
C4212 C4211 1.415 . S
C4213 H4189 0.951 . S
C4213 C4214 1.366 . S
C4213 C4215 1.388 . S
C4214 C4213 1.366 . S
C4214 C4218 1.395 . S
C4215 H4190 0.951 . S
C4215 C4213 1.388 . S
C4215 C4216 1.366 1_554 S
C4216 C4215 1.366 1_556 S
C4216 C4217 1.414 . S
C4216 C4219 1.499 . S
C4217 H4191 0.950 . S
C4217 C4216 1.414 . S
C4217 C4218 1.371 1_556 S
C4218 H4192 0.942 1_554 S
C4218 C4214 1.395 . S
C4218 C4217 1.371 1_554 S
C4219 C4216 1.499 . S
C4219 C4220 1.373 . S
C4219 C4221 1.389 . S
C4220 H4193 0.950 . S
C4220 C4206 1.377 . S
C4220 C4219 1.373 . S
C4221 C4205 1.377 . S
C4221 C4219 1.389 . S
C4221 C4222 1.524 . S
C4222 C4221 1.524 . S
C4222 C4223 1.397 . S
C4222 C4227 1.363 1_455 S
C4223 H4194 0.950 . S
C4223 C4222 1.397 . S
C4223 C4224 1.334 1_455 S
C4224 H4195 0.950 . S
C4224 C4223 1.334 1_655 S
C4224 C4225 1.287 . S
C4225 C4224 1.287 . S
C4225 C4226 1.524 . S
C4225 H4228 0.999 . S
C4226 H4196 0.950 . S
C4226 C4225 1.524 . S
C4226 C4227 1.415 . S
C4227 H4197 0.950 . S
C4227 C4222 1.363 1_655 S
C4227 C4226 1.415 . S
H4228 C4225 0.999 . S
H4229 C4210 0.913 . S
H4230 C4248 0.951 . S
H4231 C4250 0.951 . S
H4232 C4252 0.950 . S
H4233 C4253 0.950 . S
H4234 C4255 0.950 . S
H4235 C4258 0.950 1_455 S
H4236 C4259 0.950 . S
H4237 C4261 0.950 . S
H4238 C4262 0.950 . S
H4239 C4263 0.951 . S
H4240 C4265 0.951 . S
H4241 C4267 0.950 . S
H4242 C4268 0.950 . S
H4243 C4270 0.950 . S
H4244 C4273 0.950 . S
H4245 C4274 0.950 . S
H4246 C4276 0.950 . S
H4247 C4277 0.950 . S
C4248 H4230 0.951 . S
C4248 C4249 1.366 . S
C4248 C4250 1.388 1_455 S
C4249 C4248 1.366 . S
C4249 C4253 1.385 . S
C4250 H4231 0.951 . S
C4250 C4248 1.388 1_655 S
C4250 C4251 1.366 . S
C4251 C4250 1.366 . S
C4251 C4252 1.414 1_655 S
C4251 C4254 1.499 . S
C4252 H4232 0.950 . S
C4252 C4251 1.414 1_455 S
C4252 C4253 1.374 . S
C4253 H4233 0.950 . S
C4253 C4249 1.385 . S
C4253 C4252 1.374 . S
C4254 C4251 1.499 . S
C4254 C4255 1.373 . S
C4254 C4256 1.389 . S
C4255 H4234 0.950 . S
C4255 C4254 1.373 . S
C4255 C4271 1.377 . S
C4256 C4254 1.389 . S
C4256 C4257 1.524 . S
C4256 C4270 1.377 . S
C4257 C4256 1.524 . S
C4257 C4258 1.397 . S
C4257 C4262 1.363 . S
C4258 H4235 0.950 1_655 S
C4258 C4257 1.397 . S
C4258 C4259 1.334 1_655 S
C4259 H4236 0.950 . S
C4259 C4258 1.334 1_455 S
C4259 C4260 1.287 1_455 S
C4260 C4259 1.287 1_655 S
C4260 C4261 1.524 . S
C4260 H4279 0.913 . S
C4261 H4237 0.950 . S
C4261 C4260 1.524 . S
C4261 C4262 1.415 . S
C4262 H4238 0.950 . S
C4262 C4257 1.363 . S
C4262 C4261 1.415 . S
C4263 H4239 0.951 . S
C4263 C4264 1.366 . S
C4263 C4265 1.388 . S
C4264 C4263 1.366 . S
C4264 C4268 1.385 . S
C4265 H4240 0.951 . S
C4265 C4263 1.388 . S
C4265 C4266 1.366 . S
C4266 C4265 1.366 . S
C4266 C4267 1.414 . S
C4266 C4269 1.499 . S
C4267 H4241 0.950 . S
C4267 C4266 1.414 . S
C4267 C4268 1.374 . S
C4268 H4242 0.950 . S
C4268 C4264 1.385 . S
C4268 C4267 1.374 . S
C4269 C4266 1.499 . S
C4269 C4270 1.373 . S
C4269 C4271 1.389 . S
C4270 H4243 0.950 . S
C4270 C4256 1.377 . S
C4270 C4269 1.373 . S
C4271 C4255 1.377 . S
C4271 C4269 1.389 . S
C4271 C4272 1.524 . S
C4272 C4271 1.524 . S
C4272 C4273 1.397 . S
C4272 C4277 1.363 . S
C4273 H4244 0.950 . S
C4273 C4272 1.397 . S
C4273 C4274 1.334 . S
C4274 H4245 0.950 . S
C4274 C4273 1.334 . S
C4274 C4275 1.287 . S
C4275 C4274 1.287 . S
C4275 C4276 1.524 . S
C4275 H4278 0.999 . S
C4276 H4246 0.950 . S
C4276 C4275 1.524 . S
C4276 C4277 1.415 . S
C4277 H4247 0.950 . S
C4277 C4272 1.363 . S
C4277 C4276 1.415 . S
H4278 C4275 0.999 . S
H4279 C4260 0.913 . S
H4280 C4298 0.951 . S
H4281 C4300 0.951 . S
H4282 C4302 0.950 . S
H4283 C4303 0.950 . S
H4284 C4305 0.950 . S
H4285 C4308 0.950 . S
H4286 C4309 0.950 . S
H4287 C4311 0.950 . S
H4288 C4312 0.950 . S
H4289 C4313 0.951 . S
H4290 C4315 0.951 . S
H4291 C4317 0.950 . S
H4292 C4318 0.950 . S
H4293 C4320 0.950 . S
H4294 C4323 0.950 . S
H4295 C4324 0.950 . S
H4296 C4326 0.950 . S
H4297 C4327 0.950 . S
C4298 H4280 0.951 . S
C4298 C4299 1.366 . S
C4298 C4300 1.388 . S
C4299 C4298 1.366 . S
C4299 C4303 1.385 . S
C4300 H4281 0.951 . S
C4300 C4298 1.388 . S
C4300 C4301 1.366 . S
C4301 C4300 1.366 . S
C4301 C4302 1.414 . S
C4301 C4304 1.499 . S
C4302 H4282 0.950 . S
C4302 C4301 1.414 . S
C4302 C4303 1.374 . S
C4303 H4283 0.950 . S
C4303 C4299 1.385 . S
C4303 C4302 1.374 . S
C4304 C4301 1.499 . S
C4304 C4305 1.373 . S
C4304 C4306 1.389 . S
C4305 H4284 0.950 . S
C4305 C4304 1.373 . S
C4305 C4321 1.377 . S
C4306 C4304 1.389 . S
C4306 C4307 1.524 . S
C4306 C4320 1.377 . S
C4307 C4306 1.524 . S
C4307 C4308 1.397 . S
C4307 C4312 1.363 . S
C4308 H4285 0.950 . S
C4308 C4307 1.397 . S
C4308 C4309 1.334 . S
C4309 H4286 0.950 . S
C4309 C4308 1.334 . S
C4309 C4310 1.287 . S
C4310 C4309 1.287 . S
C4310 C4311 1.524 . S
C4310 H4329 0.913 . S
C4311 H4287 0.950 . S
C4311 C4310 1.524 . S
C4311 C4312 1.415 . S
C4312 H4288 0.950 . S
C4312 C4307 1.363 . S
C4312 C4311 1.415 . S
C4313 H4289 0.951 . S
C4313 C4314 1.366 . S
C4313 C4315 1.388 . S
C4314 C4313 1.366 . S
C4314 C4318 1.385 . S
C4315 H4290 0.951 . S
C4315 C4313 1.388 . S
C4315 C4316 1.366 . S
C4316 C4315 1.366 . S
C4316 C4317 1.414 . S
C4316 C4319 1.499 . S
C4317 H4291 0.950 . S
C4317 C4316 1.414 . S
C4317 C4318 1.374 . S
C4318 H4292 0.950 . S
C4318 C4314 1.385 . S
C4318 C4317 1.374 . S
C4319 C4316 1.499 . S
C4319 C4320 1.373 . S
C4319 C4321 1.389 . S
C4320 H4293 0.950 . S
C4320 C4306 1.377 . S
C4320 C4319 1.373 . S
C4321 C4305 1.377 . S
C4321 C4319 1.389 . S
C4321 C4322 1.524 . S
C4322 C4321 1.524 . S
C4322 C4323 1.397 . S
C4322 C4327 1.363 . S
C4323 H4294 0.950 . S
C4323 C4322 1.397 . S
C4323 C4324 1.334 . S
C4324 H4295 0.950 . S
C4324 C4323 1.334 . S
C4324 C4325 1.287 . S
C4325 C4324 1.287 . S
C4325 C4326 1.524 . S
C4325 H4328 0.999 . S
C4326 H4296 0.950 . S
C4326 C4325 1.524 . S
C4326 C4327 1.415 . S
C4327 H4297 0.950 . S
C4327 C4322 1.363 . S
C4327 C4326 1.415 . S
H4328 C4325 0.999 . S
H4329 C4310 0.913 . S
H4330 C4348 0.951 . S
H4331 C4350 0.951 . S
H4332 C4352 0.950 . S
H4333 C4353 0.950 . S
H4334 C4355 0.950 . S
H4335 C4358 0.950 . S
H4336 C4359 0.950 . S
H4337 C4361 0.950 . S
H4338 C4362 0.950 . S
H4339 C4363 0.951 . S
H4340 C4365 0.951 . S
H4341 C4367 0.950 . S
H4342 C4368 0.950 . S
H4343 C4370 0.950 . S
H4344 C4373 0.950 . S
H4345 C4374 0.950 . S
H4346 C4376 0.950 . S
H4347 C4377 0.950 . S
C4348 H4330 0.951 . S
C4348 C4349 1.366 . S
C4348 C4350 1.388 . S
C4349 C4348 1.366 . S
C4349 C4353 1.385 . S
C4350 H4331 0.951 . S
C4350 C4348 1.388 . S
C4350 C4351 1.366 . S
C4351 C4350 1.366 . S
C4351 C4352 1.414 . S
C4351 C4354 1.499 1_455 S
C4352 H4332 0.950 . S
C4352 C4351 1.414 . S
C4352 C4353 1.374 . S
C4353 H4333 0.950 . S
C4353 C4349 1.385 . S
C4353 C4352 1.374 . S
C4354 C4351 1.499 1_655 S
C4354 C4355 1.373 . S
C4354 C4356 1.389 . S
C4355 H4334 0.950 . S
C4355 C4354 1.373 . S
C4355 C4371 1.377 . S
C4356 C4354 1.389 . S
C4356 C4357 1.524 1_655 S
C4356 C4370 1.377 . S
C4357 C4356 1.524 1_455 S
C4357 C4358 1.397 . S
C4357 C4362 1.363 . S
C4358 H4335 0.950 . S
C4358 C4357 1.397 . S
C4358 C4359 1.334 . S
C4359 H4336 0.950 . S
C4359 C4358 1.334 . S
C4359 C4360 1.287 . S
C4360 C4359 1.287 . S
C4360 C4361 1.524 . S
C4360 H4379 0.913 . S
C4361 H4337 0.950 . S
C4361 C4360 1.524 . S
C4361 C4362 1.415 . S
C4362 H4338 0.950 . S
C4362 C4357 1.363 . S
C4362 C4361 1.415 . S
C4363 H4339 0.951 . S
C4363 C4364 1.366 . S
C4363 C4365 1.388 . S
C4364 C4363 1.366 . S
C4364 C4368 1.385 . S
C4365 H4340 0.951 . S
C4365 C4363 1.388 . S
C4365 C4366 1.366 . S
C4366 C4365 1.366 . S
C4366 C4367 1.414 . S
C4366 C4369 1.499 . S
C4367 H4341 0.950 . S
C4367 C4366 1.414 . S
C4367 C4368 1.374 . S
C4368 H4342 0.950 . S
C4368 C4364 1.385 . S
C4368 C4367 1.374 . S
C4369 C4366 1.499 . S
C4369 C4370 1.373 . S
C4369 C4371 1.389 . S
C4370 H4343 0.950 . S
C4370 C4356 1.377 . S
C4370 C4369 1.373 . S
C4371 C4355 1.377 . S
C4371 C4369 1.389 . S
C4371 C4372 1.524 . S
C4372 C4371 1.524 . S
C4372 C4373 1.397 . S
C4372 C4377 1.363 . S
C4373 H4344 0.950 . S
C4373 C4372 1.397 . S
C4373 C4374 1.334 . S
C4374 H4345 0.950 . S
C4374 C4373 1.334 . S
C4374 C4375 1.287 . S
C4375 C4374 1.287 . S
C4375 C4376 1.524 . S
C4375 H4378 0.999 . S
C4376 H4346 0.950 . S
C4376 C4375 1.524 . S
C4376 C4377 1.415 . S
C4377 H4347 0.950 . S
C4377 C4372 1.363 . S
C4377 C4376 1.415 . S
H4378 C4375 0.999 . S
H4379 C4360 0.913 . S
H4380 C4398 0.951 . S
H4381 C4400 0.951 . S
H4382 C4402 0.950 . S
H4383 C4403 0.950 . S
H4384 C4405 0.950 . S
H4385 C4408 0.950 . S
H4386 C4409 0.950 . S
H4387 C4411 0.950 . S
H4388 C4412 0.950 . S
H4389 C4413 0.951 . S
H4390 C4415 0.951 . S
H4391 C4417 0.950 . S
H4392 C4418 0.950 . S
H4393 C4420 0.950 . S
H4394 C4423 0.950 . S
H4395 C4424 0.950 . S
H4396 C4426 0.950 . S
H4397 C4427 0.968 . S
C4398 H4380 0.951 . S
C4398 C4399 1.366 1_455 S
C4398 C4400 1.388 . S
C4399 C4398 1.366 1_655 S
C4399 C4403 1.385 . S
C4400 H4381 0.951 . S
C4400 C4398 1.388 . S
C4400 C4401 1.366 . S
C4401 C4400 1.366 . S
C4401 C4402 1.414 1_455 S
C4401 C4404 1.499 . S
C4402 H4382 0.950 . S
C4402 C4401 1.414 1_655 S
C4402 C4403 1.374 . S
C4403 H4383 0.950 . S
C4403 C4399 1.385 . S
C4403 C4402 1.374 . S
C4404 C4401 1.499 . S
C4404 C4405 1.373 . S
C4404 C4406 1.389 . S
C4405 H4384 0.950 . S
C4405 C4404 1.373 . S
C4405 C4421 1.377 . S
C4406 C4404 1.389 . S
C4406 C4407 1.524 . S
C4406 C4420 1.377 . S
C4407 C4406 1.524 . S
C4407 C4408 1.397 1_455 S
C4407 C4412 1.363 . S
C4408 H4385 0.950 . S
C4408 C4407 1.397 1_655 S
C4408 C4409 1.334 . S
C4409 H4386 0.950 . S
C4409 C4408 1.334 . S
C4409 C4410 1.287 . S
C4410 C4409 1.287 . S
C4410 C4411 1.524 1_655 S
C4410 H4429 0.913 . S
C4411 H4387 0.950 . S
C4411 C4410 1.524 1_455 S
C4411 C4412 1.415 . S
C4412 H4388 0.950 . S
C4412 C4407 1.363 . S
C4412 C4411 1.415 . S
C4413 H4389 0.951 . S
C4413 C4414 1.366 . S
C4413 C4415 1.388 . S
C4414 C4413 1.366 . S
C4414 C4418 1.385 . S
C4415 H4390 0.951 . S
C4415 C4413 1.388 . S
C4415 C4416 1.366 . S
C4416 C4415 1.366 . S
C4416 C4417 1.414 . S
C4416 C4419 1.499 . S
C4417 H4391 0.950 . S
C4417 C4416 1.414 . S
C4417 C4418 1.374 . S
C4418 H4392 0.950 . S
C4418 C4414 1.385 . S
C4418 C4417 1.374 . S
C4419 C4416 1.499 . S
C4419 C4420 1.373 . S
C4419 C4421 1.389 . S
C4420 H4393 0.950 . S
C4420 C4406 1.377 . S
C4420 C4419 1.373 . S
C4421 C4405 1.377 . S
C4421 C4419 1.389 . S
C4421 C4422 1.524 . S
C4422 C4421 1.524 . S
C4422 C4423 1.397 . S
C4422 C4427 1.363 . S
C4423 H4394 0.950 . S
C4423 C4422 1.397 . S
C4423 C4424 1.334 . S
C4424 H4395 0.950 . S
C4424 C4423 1.334 . S
C4424 C4425 1.287 . S
C4425 C4424 1.287 . S
C4425 C4426 1.524 . S
C4425 H4428 0.999 . S
C4426 H4396 0.950 . S
C4426 C4425 1.524 . S
C4426 C4427 1.415 . S
C4427 H4397 0.968 . S
C4427 C4422 1.363 . S
C4427 C4426 1.415 . S
H4428 C4425 0.999 . S
H4429 C4410 0.913 . S
H4430 C4448 0.951 . S
H4431 C4450 0.951 . S
H4432 C4452 0.950 . S
H4433 C4453 0.950 . S
H4434 C4455 0.950 . S
H4435 C4458 0.950 . S
H4436 C4459 0.950 . S
H4437 C4461 0.950 . S
H4438 C4462 0.950 . S
H4439 C4463 0.951 . S
H4440 C4465 0.951 . S
H4441 C4467 0.950 . S
H4442 C4468 0.950 . S
H4443 C4470 0.950 . S
H4444 C4473 0.950 . S
H4445 C4474 0.950 . S
H4446 C4476 0.950 . S
H4447 C4477 0.950 . S
C4448 H4430 0.951 . S
C4448 C4449 1.366 . S
C4448 C4450 1.388 . S
C4449 C4448 1.366 . S
C4449 C4453 1.385 . S
C4450 H4431 0.951 . S
C4450 C4448 1.388 . S
C4450 C4451 1.366 . S
C4451 C4450 1.366 . S
C4451 C4452 1.414 . S
C4451 C4454 1.499 . S
C4452 H4432 0.950 . S
C4452 C4451 1.414 . S
C4452 C4453 1.374 . S
C4453 H4433 0.950 . S
C4453 C4449 1.385 . S
C4453 C4452 1.374 . S
C4454 C4451 1.499 . S
C4454 C4455 1.373 . S
C4454 C4456 1.389 . S
C4455 H4434 0.950 . S
C4455 C4454 1.373 . S
C4455 C4471 1.377 . S
C4456 C4454 1.389 . S
C4456 C4457 1.524 . S
C4456 C4470 1.377 . S
C4457 C4456 1.524 . S
C4457 C4458 1.397 . S
C4457 C4462 1.363 . S
C4458 H4435 0.950 . S
C4458 C4457 1.397 . S
C4458 C4459 1.334 . S
C4459 H4436 0.950 . S
C4459 C4458 1.334 . S
C4459 C4460 1.287 . S
C4460 C4459 1.287 . S
C4460 C4461 1.524 . S
C4460 H4479 0.913 . S
C4461 H4437 0.950 . S
C4461 C4460 1.524 . S
C4461 C4462 1.415 . S
C4462 H4438 0.950 . S
C4462 C4457 1.363 . S
C4462 C4461 1.415 . S
C4463 H4439 0.951 . S
C4463 C4464 1.366 . S
C4463 C4465 1.388 . S
C4464 C4463 1.366 . S
C4464 C4468 1.385 . S
C4465 H4440 0.951 . S
C4465 C4463 1.388 . S
C4465 C4466 1.366 . S
C4466 C4465 1.366 . S
C4466 C4467 1.414 . S
C4466 C4469 1.499 . S
C4467 H4441 0.950 . S
C4467 C4466 1.414 . S
C4467 C4468 1.374 . S
C4468 H4442 0.950 . S
C4468 C4464 1.385 . S
C4468 C4467 1.374 . S
C4469 C4466 1.499 . S
C4469 C4470 1.373 . S
C4469 C4471 1.389 . S
C4470 H4443 0.950 . S
C4470 C4456 1.377 . S
C4470 C4469 1.373 . S
C4471 C4455 1.377 . S
C4471 C4469 1.389 . S
C4471 C4472 1.524 . S
C4472 C4471 1.524 . S
C4472 C4473 1.397 . S
C4472 C4477 1.363 . S
C4473 H4444 0.950 . S
C4473 C4472 1.397 . S
C4473 C4474 1.334 . S
C4474 H4445 0.950 . S
C4474 C4473 1.334 . S
C4474 C4475 1.287 . S
C4475 C4474 1.287 . S
C4475 C4476 1.524 . S
C4475 H4478 0.999 . S
C4476 H4446 0.950 . S
C4476 C4475 1.524 . S
C4476 C4477 1.415 . S
C4477 H4447 0.950 . S
C4477 C4472 1.363 . S
C4477 C4476 1.415 . S
H4478 C4475 0.999 . S
H4479 C4460 0.913 . S
H4480 C4498 0.951 . S
H4481 C4500 0.951 . S
H4482 C4502 0.950 . S
H4483 C4503 0.950 . S
H4484 C4505 0.950 . S
H4485 C4508 0.950 . S
H4486 C4509 0.950 . S
H4487 C4511 0.950 . S
H4488 C4512 0.950 . S
H4489 C4513 0.951 . S
H4490 C4515 0.951 . S
H4491 C4517 0.950 . S
H4492 C4518 0.950 . S
H4493 C4520 0.950 . S
H4494 C4523 0.950 . S
H4495 C4524 0.950 . S
H4496 C4526 0.950 . S
H4497 C4527 0.950 . S
C4498 H4480 0.951 . S
C4498 C4499 1.366 . S
C4498 C4500 1.388 . S
C4499 C4498 1.366 . S
C4499 C4503 1.385 . S
C4500 H4481 0.951 . S
C4500 C4498 1.388 . S
C4500 C4501 1.366 . S
C4501 C4500 1.366 . S
C4501 C4502 1.414 . S
C4501 C4504 1.499 . S
C4502 H4482 0.950 . S
C4502 C4501 1.414 . S
C4502 C4503 1.374 . S
C4503 H4483 0.950 . S
C4503 C4499 1.385 . S
C4503 C4502 1.374 . S
C4504 C4501 1.499 . S
C4504 C4505 1.373 . S
C4504 C4506 1.389 . S
C4505 H4484 0.950 . S
C4505 C4504 1.373 . S
C4505 C4521 1.377 . S
C4506 C4504 1.389 . S
C4506 C4507 1.524 . S
C4506 C4520 1.377 . S
C4507 C4506 1.524 . S
C4507 C4508 1.397 . S
C4507 C4512 1.363 . S
C4508 H4485 0.950 . S
C4508 C4507 1.397 . S
C4508 C4509 1.334 . S
C4509 H4486 0.950 . S
C4509 C4508 1.334 . S
C4509 C4510 1.287 . S
C4510 C4509 1.287 . S
C4510 C4511 1.524 . S
C4510 H4529 0.913 . S
C4511 H4487 0.950 . S
C4511 C4510 1.524 . S
C4511 C4512 1.415 . S
C4512 H4488 0.950 . S
C4512 C4507 1.363 . S
C4512 C4511 1.415 . S
C4513 H4489 0.951 . S
C4513 C4514 1.366 . S
C4513 C4515 1.388 . S
C4514 C4513 1.366 . S
C4514 C4518 1.385 . S
C4515 H4490 0.951 . S
C4515 C4513 1.388 . S
C4515 C4516 1.366 . S
C4516 C4515 1.366 . S
C4516 C4517 1.414 . S
C4516 C4519 1.499 . S
C4517 H4491 0.950 . S
C4517 C4516 1.414 . S
C4517 C4518 1.374 . S
C4518 H4492 0.950 . S
C4518 C4514 1.385 . S
C4518 C4517 1.374 . S
C4519 C4516 1.499 . S
C4519 C4520 1.373 . S
C4519 C4521 1.389 . S
C4520 H4493 0.950 . S
C4520 C4506 1.377 . S
C4520 C4519 1.373 . S
C4521 C4505 1.377 . S
C4521 C4519 1.389 . S
C4521 C4522 1.524 . S
C4522 C4521 1.524 . S
C4522 C4523 1.397 . S
C4522 C4527 1.363 . S
C4523 H4494 0.950 . S
C4523 C4522 1.397 . S
C4523 C4524 1.334 . S
C4524 H4495 0.950 . S
C4524 C4523 1.334 . S
C4524 C4525 1.287 . S
C4525 C4524 1.287 . S
C4525 C4526 1.524 . S
C4525 H4528 0.999 . S
C4526 H4496 0.950 . S
C4526 C4525 1.524 . S
C4526 C4527 1.415 . S
C4527 H4497 0.950 . S
C4527 C4522 1.363 . S
C4527 C4526 1.415 . S
H4528 C4525 0.999 . S
H4529 C4510 0.913 . S
H4530 C4548 0.951 . S
H4531 C4550 0.951 . S
H4532 C4552 0.950 . S
H4533 C4553 0.950 . S
H4534 C4555 0.950 . S
H4535 C4558 0.950 . S
H4536 C4559 0.911 1_554 S
H4537 C4561 0.950 . S
H4538 C4562 0.950 . S
H4539 C4563 0.951 . S
H4540 C4565 0.951 . S
H4541 C4567 0.950 . S
H4542 C4568 0.950 . S
H4543 C4570 0.950 . S
H4544 C4573 0.950 . S
H4545 C4574 0.950 . S
H4546 C4576 0.950 . S
H4547 C4577 0.950 . S
C4548 H4530 0.951 . S
C4548 C4549 1.366 . S
C4548 C4550 1.388 . S
C4549 C4548 1.366 . S
C4549 C4553 1.385 . S
C4550 H4531 0.951 . S
C4550 C4548 1.388 . S
C4550 C4551 1.366 . S
C4551 C4550 1.366 . S
C4551 C4552 1.414 . S
C4551 C4554 1.499 . S
C4552 H4532 0.950 . S
C4552 C4551 1.414 . S
C4552 C4553 1.374 . S
C4553 H4533 0.950 . S
C4553 C4549 1.385 . S
C4553 C4552 1.374 . S
C4554 C4551 1.499 . S
C4554 C4555 1.373 . S
C4554 C4556 1.389 . S
C4555 H4534 0.950 . S
C4555 C4554 1.373 . S
C4555 C4571 1.377 . S
C4556 C4554 1.389 . S
C4556 C4557 1.524 . S
C4556 C4570 1.377 . S
C4557 C4556 1.524 . S
C4557 C4558 1.397 . S
C4557 C4562 1.363 . S
C4558 H4535 0.950 . S
C4558 C4557 1.397 . S
C4558 C4559 1.334 . S
C4559 H4536 0.911 1_556 S
C4559 C4558 1.334 . S
C4559 C4560 1.287 . S
C4560 C4559 1.287 . S
C4560 C4561 1.524 . S
C4560 H4579 0.864 1_556 S
C4561 H4537 0.950 . S
C4561 C4560 1.524 . S
C4561 C4562 1.415 . S
C4562 H4538 0.950 . S
C4562 C4557 1.363 . S
C4562 C4561 1.415 . S
C4563 H4539 0.951 . S
C4563 C4564 1.366 . S
C4563 C4565 1.388 . S
C4564 C4563 1.366 . S
C4564 C4568 1.385 . S
C4565 H4540 0.951 . S
C4565 C4563 1.388 . S
C4565 C4566 1.366 . S
C4566 C4565 1.366 . S
C4566 C4567 1.414 . S
C4566 C4569 1.499 . S
C4567 H4541 0.950 . S
C4567 C4566 1.414 . S
C4567 C4568 1.374 . S
C4568 H4542 0.950 . S
C4568 C4564 1.385 . S
C4568 C4567 1.374 . S
C4569 C4566 1.499 . S
C4569 C4570 1.373 . S
C4569 C4571 1.389 . S
C4570 H4543 0.950 . S
C4570 C4556 1.377 . S
C4570 C4569 1.373 . S
C4571 C4555 1.377 . S
C4571 C4569 1.389 . S
C4571 C4572 1.524 . S
C4572 C4571 1.524 . S
C4572 C4573 1.397 . S
C4572 C4577 1.363 . S
C4573 H4544 0.950 . S
C4573 C4572 1.397 . S
C4573 C4574 1.334 . S
C4574 H4545 0.950 . S
C4574 C4573 1.334 . S
C4574 C4575 1.287 . S
C4575 C4574 1.287 . S
C4575 C4576 1.524 . S
C4575 H4578 0.999 . S
C4576 H4546 0.950 . S
C4576 C4575 1.524 . S
C4576 C4577 1.415 . S
C4577 H4547 0.950 . S
C4577 C4572 1.363 . S
C4577 C4576 1.415 . S
H4578 C4575 0.999 . S
H4579 C4560 0.864 1_554 S
H4580 C4598 0.951 . S
H4581 C4600 0.951 . S
H4582 C4602 0.950 . S
H4583 C4603 0.950 . S
H4584 C4605 0.950 . S
H4585 C4608 0.950 . S
H4586 C4609 0.950 . S
H4587 C4611 0.950 . S
H4588 C4612 0.950 . S
H4589 C4613 0.951 . S
H4590 C4615 0.951 . S
H4591 C4617 0.950 . S
H4592 C4618 0.950 . S
H4593 C4620 0.950 . S
H4594 C4623 0.950 . S
H4595 C4624 0.950 . S
H4596 C4626 0.950 . S
H4597 C4627 0.950 . S
C4598 H4580 0.951 . S
C4598 C4599 1.366 . S
C4598 C4600 1.388 . S
C4599 C4598 1.366 . S
C4599 C4603 1.385 . S
C4600 H4581 0.951 . S
C4600 C4598 1.388 . S
C4600 C4601 1.366 . S
C4601 C4600 1.366 . S
C4601 C4602 1.414 . S
C4601 C4604 1.499 . S
C4602 H4582 0.950 . S
C4602 C4601 1.414 . S
C4602 C4603 1.374 . S
C4603 H4583 0.950 . S
C4603 C4599 1.385 . S
C4603 C4602 1.374 . S
C4604 C4601 1.499 . S
C4604 C4605 1.373 . S
C4604 C4606 1.389 . S
C4605 H4584 0.950 . S
C4605 C4604 1.373 . S
C4605 C4621 1.377 . S
C4606 C4604 1.389 . S
C4606 C4607 1.524 . S
C4606 C4620 1.377 . S
C4607 C4606 1.524 . S
C4607 C4608 1.397 . S
C4607 C4612 1.363 . S
C4608 H4585 0.950 . S
C4608 C4607 1.397 . S
C4608 C4609 1.334 . S
C4609 H4586 0.950 . S
C4609 C4608 1.334 . S
C4609 C4610 1.287 . S
C4610 C4609 1.287 . S
C4610 C4611 1.524 . S
C4610 H4629 0.913 . S
C4611 H4587 0.950 . S
C4611 C4610 1.524 . S
C4611 C4612 1.415 . S
C4612 H4588 0.950 . S
C4612 C4607 1.363 . S
C4612 C4611 1.415 . S
C4613 H4589 0.951 . S
C4613 C4614 1.366 . S
C4613 C4615 1.388 . S
C4614 C4613 1.366 . S
C4614 C4618 1.385 . S
C4615 H4590 0.951 . S
C4615 C4613 1.388 . S
C4615 C4616 1.366 . S
C4616 C4615 1.366 . S
C4616 C4617 1.414 . S
C4616 C4619 1.499 . S
C4617 H4591 0.950 . S
C4617 C4616 1.414 . S
C4617 C4618 1.374 . S
C4618 H4592 0.950 . S
C4618 C4614 1.385 . S
C4618 C4617 1.374 . S
C4619 C4616 1.499 . S
C4619 C4620 1.373 . S
C4619 C4621 1.389 . S
C4620 H4593 0.950 . S
C4620 C4606 1.377 . S
C4620 C4619 1.373 . S
C4621 C4605 1.377 . S
C4621 C4619 1.389 . S
C4621 C4622 1.524 . S
C4622 C4621 1.524 . S
C4622 C4623 1.397 . S
C4622 C4627 1.363 . S
C4623 H4594 0.950 . S
C4623 C4622 1.397 . S
C4623 C4624 1.334 . S
C4624 H4595 0.950 . S
C4624 C4623 1.334 . S
C4624 C4625 1.287 . S
C4625 C4624 1.287 . S
C4625 C4626 1.524 . S
C4625 H4628 0.999 . S
C4626 H4596 0.950 . S
C4626 C4625 1.524 . S
C4626 C4627 1.415 . S
C4627 H4597 0.950 . S
C4627 C4622 1.363 . S
C4627 C4626 1.415 . S
H4628 C4625 0.999 . S
H4629 C4610 0.913 . S
H4630 C4648 0.951 . S
H4631 C4650 0.951 . S
H4632 C4652 0.950 . S
H4633 C4653 0.950 . S
H4634 C4655 0.950 . S
H4635 C4658 0.950 . S
H4636 C4659 0.950 . S
H4637 C4661 0.950 . S
H4638 C4662 0.950 . S
H4639 C4663 0.951 . S
H4640 C4665 0.951 . S
H4641 C4667 0.950 . S
H4642 C4668 0.950 . S
H4643 C4670 0.950 . S
H4644 C4673 0.950 . S
H4645 C4674 0.950 . S
H4646 C4676 0.950 . S
H4647 C4677 0.950 . S
C4648 H4630 0.951 . S
C4648 C4649 1.366 . S
C4648 C4650 1.388 . S
C4649 C4648 1.366 . S
C4649 C4653 1.385 . S
C4650 H4631 0.951 . S
C4650 C4648 1.388 . S
C4650 C4651 1.366 . S
C4651 C4650 1.366 . S
C4651 C4652 1.414 . S
C4651 C4654 1.499 . S
C4652 H4632 0.950 . S
C4652 C4651 1.414 . S
C4652 C4653 1.374 . S
C4653 H4633 0.950 . S
C4653 C4649 1.385 . S
C4653 C4652 1.374 . S
C4654 C4651 1.499 . S
C4654 C4655 1.373 . S
C4654 C4656 1.389 . S
C4655 H4634 0.950 . S
C4655 C4654 1.373 . S
C4655 C4671 1.377 . S
C4656 C4654 1.389 . S
C4656 C4657 1.524 . S
C4656 C4670 1.377 . S
C4657 C4656 1.524 . S
C4657 C4658 1.397 . S
C4657 C4662 1.363 . S
C4658 H4635 0.950 . S
C4658 C4657 1.397 . S
C4658 C4659 1.334 . S
C4659 H4636 0.950 . S
C4659 C4658 1.334 . S
C4659 C4660 1.287 . S
C4660 C4659 1.287 . S
C4660 C4661 1.524 . S
C4660 H4679 0.913 . S
C4661 H4637 0.950 . S
C4661 C4660 1.524 . S
C4661 C4662 1.415 . S
C4662 H4638 0.950 . S
C4662 C4657 1.363 . S
C4662 C4661 1.415 . S
C4663 H4639 0.951 . S
C4663 C4664 1.366 . S
C4663 C4665 1.388 . S
C4664 C4663 1.366 . S
C4664 C4668 1.385 . S
C4665 H4640 0.951 . S
C4665 C4663 1.388 . S
C4665 C4666 1.366 . S
C4666 C4665 1.366 . S
C4666 C4667 1.414 . S
C4666 C4669 1.499 . S
C4667 H4641 0.950 . S
C4667 C4666 1.414 . S
C4667 C4668 1.374 . S
C4668 H4642 0.950 . S
C4668 C4664 1.385 . S
C4668 C4667 1.374 . S
C4669 C4666 1.499 . S
C4669 C4670 1.373 . S
C4669 C4671 1.389 . S
C4670 H4643 0.950 . S
C4670 C4656 1.377 . S
C4670 C4669 1.373 . S
C4671 C4655 1.377 . S
C4671 C4669 1.389 . S
C4671 C4672 1.524 . S
C4672 C4671 1.524 . S
C4672 C4673 1.397 . S
C4672 C4677 1.363 . S
C4673 H4644 0.950 . S
C4673 C4672 1.397 . S
C4673 C4674 1.334 . S
C4674 H4645 0.950 . S
C4674 C4673 1.334 . S
C4674 C4675 1.287 . S
C4675 C4674 1.287 . S
C4675 C4676 1.524 . S
C4675 H4678 0.999 . S
C4676 H4646 0.950 . S
C4676 C4675 1.524 . S
C4676 C4677 1.415 . S
C4677 H4647 0.950 . S
C4677 C4672 1.363 . S
C4677 C4676 1.415 . S
H4678 C4675 0.999 . S
H4679 C4660 0.913 . S
H4680 C4698 0.951 . S
H4681 C4700 0.951 . S
H4682 C4702 0.950 . S
H4683 C4703 0.950 . S
H4684 C4705 0.950 . S
H4685 C4708 0.950 . S
H4686 C4709 0.950 . S
H4687 C4711 0.950 . S
H4688 C4712 0.950 . S
H4689 C4713 0.951 . S
H4690 C4715 0.951 . S
H4691 C4717 0.950 . S
H4692 C4718 0.950 . S
H4693 C4720 0.950 . S
H4694 C4723 0.950 . S
H4695 C4724 0.950 . S
H4696 C4726 0.950 . S
H4697 C4727 0.950 . S
C4698 H4680 0.951 . S
C4698 C4699 1.366 . S
C4698 C4700 1.388 . S
C4699 C4698 1.366 . S
C4699 C4703 1.385 . S
C4700 H4681 0.951 . S
C4700 C4698 1.388 . S
C4700 C4701 1.366 . S
C4701 C4700 1.366 . S
C4701 C4702 1.414 . S
C4701 C4704 1.499 . S
C4702 H4682 0.950 . S
C4702 C4701 1.414 . S
C4702 C4703 1.374 . S
C4703 H4683 0.950 . S
C4703 C4699 1.385 . S
C4703 C4702 1.374 . S
C4704 C4701 1.499 . S
C4704 C4705 1.373 . S
C4704 C4706 1.389 . S
C4705 H4684 0.950 . S
C4705 C4704 1.373 . S
C4705 C4721 1.377 . S
C4706 C4704 1.389 . S
C4706 C4707 1.524 . S
C4706 C4720 1.377 . S
C4707 C4706 1.524 . S
C4707 C4708 1.397 . S
C4707 C4712 1.363 . S
C4708 H4685 0.950 . S
C4708 C4707 1.397 . S
C4708 C4709 1.334 . S
C4709 H4686 0.950 . S
C4709 C4708 1.334 . S
C4709 C4710 1.287 . S
C4710 C4709 1.287 . S
C4710 C4711 1.524 . S
C4710 H4729 0.913 . S
C4711 H4687 0.950 . S
C4711 C4710 1.524 . S
C4711 C4712 1.415 . S
C4712 H4688 0.950 . S
C4712 C4707 1.363 . S
C4712 C4711 1.415 . S
C4713 H4689 0.951 . S
C4713 C4714 1.366 . S
C4713 C4715 1.388 . S
C4714 C4713 1.366 . S
C4714 C4718 1.385 . S
C4715 H4690 0.951 . S
C4715 C4713 1.388 . S
C4715 C4716 1.366 . S
C4716 C4715 1.366 . S
C4716 C4717 1.414 . S
C4716 C4719 1.499 . S
C4717 H4691 0.950 . S
C4717 C4716 1.414 . S
C4717 C4718 1.374 . S
C4718 H4692 0.950 . S
C4718 C4714 1.385 . S
C4718 C4717 1.374 . S
C4719 C4716 1.499 . S
C4719 C4720 1.373 . S
C4719 C4721 1.389 . S
C4720 H4693 0.950 . S
C4720 C4706 1.377 . S
C4720 C4719 1.373 . S
C4721 C4705 1.377 . S
C4721 C4719 1.389 . S
C4721 C4722 1.524 . S
C4722 C4721 1.524 . S
C4722 C4723 1.397 . S
C4722 C4727 1.363 . S
C4723 H4694 0.950 . S
C4723 C4722 1.397 . S
C4723 C4724 1.334 . S
C4724 H4695 0.950 . S
C4724 C4723 1.334 . S
C4724 C4725 1.287 . S
C4725 C4724 1.287 . S
C4725 C4726 1.524 . S
C4725 H4728 0.999 . S
C4726 H4696 0.950 . S
C4726 C4725 1.524 . S
C4726 C4727 1.415 . S
C4727 H4697 0.950 . S
C4727 C4722 1.363 . S
C4727 C4726 1.415 . S
H4728 C4725 0.999 . S
H4729 C4710 0.913 . S
H4730 C4748 0.951 . S
H4731 C4750 0.951 . S
H4732 C4752 0.950 . S
H4733 C4753 0.950 . S
H4734 C4755 0.950 . S
H4735 C4758 0.950 . S
H4736 C4759 0.950 . S
H4737 C4761 0.950 . S
H4738 C4762 0.950 . S
H4739 C4763 0.951 . S
H4740 C4765 0.951 . S
H4741 C4767 0.950 . S
H4742 C4768 0.950 . S
H4743 C4770 0.950 . S
H4744 C4773 0.950 . S
H4745 C4774 0.950 . S
H4746 C4776 0.950 . S
H4747 C4777 0.950 . S
C4748 H4730 0.951 . S
C4748 C4749 1.366 . S
C4748 C4750 1.388 . S
C4749 C4748 1.366 . S
C4749 C4753 1.385 . S
C4750 H4731 0.951 . S
C4750 C4748 1.388 . S
C4750 C4751 1.366 . S
C4751 C4750 1.366 . S
C4751 C4752 1.414 . S
C4751 C4754 1.499 . S
C4752 H4732 0.950 . S
C4752 C4751 1.414 . S
C4752 C4753 1.374 . S
C4753 H4733 0.950 . S
C4753 C4749 1.385 . S
C4753 C4752 1.374 . S
C4754 C4751 1.499 . S
C4754 C4755 1.373 . S
C4754 C4756 1.389 . S
C4755 H4734 0.950 . S
C4755 C4754 1.373 . S
C4755 C4771 1.377 . S
C4756 C4754 1.389 . S
C4756 C4757 1.524 . S
C4756 C4770 1.377 . S
C4757 C4756 1.524 . S
C4757 C4758 1.397 . S
C4757 C4762 1.363 . S
C4758 H4735 0.950 . S
C4758 C4757 1.397 . S
C4758 C4759 1.334 . S
C4759 H4736 0.950 . S
C4759 C4758 1.334 . S
C4759 C4760 1.287 . S
C4760 C4759 1.287 . S
C4760 C4761 1.524 . S
C4760 H4779 0.913 . S
C4761 H4737 0.950 . S
C4761 C4760 1.524 . S
C4761 C4762 1.415 . S
C4762 H4738 0.950 . S
C4762 C4757 1.363 . S
C4762 C4761 1.415 . S
C4763 H4739 0.951 . S
C4763 C4764 1.366 . S
C4763 C4765 1.388 . S
C4764 C4763 1.366 . S
C4764 C4768 1.385 . S
C4765 H4740 0.951 . S
C4765 C4763 1.388 . S
C4765 C4766 1.366 . S
C4766 C4765 1.366 . S
C4766 C4767 1.414 . S
C4766 C4769 1.499 . S
C4767 H4741 0.950 . S
C4767 C4766 1.414 . S
C4767 C4768 1.374 . S
C4768 H4742 0.950 . S
C4768 C4764 1.385 . S
C4768 C4767 1.374 . S
C4769 C4766 1.499 . S
C4769 C4770 1.373 . S
C4769 C4771 1.389 . S
C4770 H4743 0.950 . S
C4770 C4756 1.377 . S
C4770 C4769 1.373 . S
C4771 C4755 1.377 . S
C4771 C4769 1.389 . S
C4771 C4772 1.524 . S
C4772 C4771 1.524 . S
C4772 C4773 1.397 . S
C4772 C4777 1.363 . S
C4773 H4744 0.950 . S
C4773 C4772 1.397 . S
C4773 C4774 1.334 . S
C4774 H4745 0.950 . S
C4774 C4773 1.334 . S
C4774 C4775 1.287 . S
C4775 C4774 1.287 . S
C4775 C4776 1.524 . S
C4775 H4778 0.999 . S
C4776 H4746 0.950 . S
C4776 C4775 1.524 . S
C4776 C4777 1.415 . S
C4777 H4747 0.950 . S
C4777 C4772 1.363 . S
C4777 C4776 1.415 . S
H4778 C4775 0.999 . S
H4779 C4760 0.913 . S
H4780 C4798 0.951 . S
H4781 C4800 0.951 . S
H4782 C4802 0.950 . S
H4783 C4803 0.950 . S
H4784 C4805 0.950 . S
H4785 C4808 0.950 . S
H4786 C4809 0.950 . S
H4787 C4811 0.950 . S
H4788 C4812 0.950 . S
H4789 C4813 0.951 . S
H4790 C4815 0.951 . S
H4791 C4817 0.950 . S
H4792 C4818 0.950 . S
H4793 C4820 0.950 . S
H4794 C4823 0.950 . S
H4795 C4824 0.950 . S
H4796 C4826 0.950 . S
H4797 C4827 0.950 . S
C4798 H4780 0.951 . S
C4798 C4799 1.366 . S
C4798 C4800 1.388 . S
C4799 C4798 1.366 . S
C4799 C4803 1.385 . S
C4800 H4781 0.951 . S
C4800 C4798 1.388 . S
C4800 C4801 1.366 . S
C4801 C4800 1.366 . S
C4801 C4802 1.414 . S
C4801 C4804 1.499 . S
C4802 H4782 0.950 . S
C4802 C4801 1.414 . S
C4802 C4803 1.374 . S
C4803 H4783 0.950 . S
C4803 C4799 1.385 . S
C4803 C4802 1.374 . S
C4804 C4801 1.499 . S
C4804 C4805 1.373 . S
C4804 C4806 1.389 . S
C4805 H4784 0.950 . S
C4805 C4804 1.373 . S
C4805 C4821 1.377 . S
C4806 C4804 1.389 . S
C4806 C4807 1.524 . S
C4806 C4820 1.377 . S
C4807 C4806 1.524 . S
C4807 C4808 1.397 . S
C4807 C4812 1.363 . S
C4808 H4785 0.950 . S
C4808 C4807 1.397 . S
C4808 C4809 1.334 . S
C4809 H4786 0.950 . S
C4809 C4808 1.334 . S
C4809 C4810 1.287 . S
C4810 C4809 1.287 . S
C4810 C4811 1.524 . S
C4810 H4829 0.913 . S
C4811 H4787 0.950 . S
C4811 C4810 1.524 . S
C4811 C4812 1.415 . S
C4812 H4788 0.950 . S
C4812 C4807 1.363 . S
C4812 C4811 1.415 . S
C4813 H4789 0.951 . S
C4813 C4814 1.366 . S
C4813 C4815 1.388 . S
C4814 C4813 1.366 . S
C4814 C4818 1.385 . S
C4815 H4790 0.951 . S
C4815 C4813 1.388 . S
C4815 C4816 1.366 . S
C4816 C4815 1.366 . S
C4816 C4817 1.414 . S
C4816 C4819 1.499 . S
C4817 H4791 0.950 . S
C4817 C4816 1.414 . S
C4817 C4818 1.374 . S
C4818 H4792 0.950 . S
C4818 C4814 1.385 . S
C4818 C4817 1.374 . S
C4819 C4816 1.499 . S
C4819 C4820 1.373 . S
C4819 C4821 1.389 . S
C4820 H4793 0.950 . S
C4820 C4806 1.377 . S
C4820 C4819 1.373 . S
C4821 C4805 1.377 . S
C4821 C4819 1.389 . S
C4821 C4822 1.524 . S
C4822 C4821 1.524 . S
C4822 C4823 1.397 . S
C4822 C4827 1.363 . S
C4823 H4794 0.950 . S
C4823 C4822 1.397 . S
C4823 C4824 1.334 . S
C4824 H4795 0.950 . S
C4824 C4823 1.334 . S
C4824 C4825 1.287 . S
C4825 C4824 1.287 . S
C4825 C4826 1.524 . S
C4825 H4828 0.999 . S
C4826 H4796 0.950 . S
C4826 C4825 1.524 . S
C4826 C4827 1.415 . S
C4827 H4797 0.950 . S
C4827 C4822 1.363 . S
C4827 C4826 1.415 . S
H4828 C4825 0.999 . S
H4829 C4810 0.913 . S
H4830 C4848 0.951 . S
H4831 C4850 0.951 . S
H4832 C4852 0.950 . S
H4833 C4853 0.950 . S
H4834 C4855 0.950 . S
H4835 C4858 0.950 . S
H4836 C4859 0.950 . S
H4837 C4861 0.950 . S
H4838 C4862 0.950 . S
H4839 C4863 0.951 . S
H4840 C4865 0.951 . S
H4841 C4867 0.950 . S
H4842 C4868 0.950 . S
H4843 C4870 0.950 . S
H4844 C4873 0.950 . S
H4845 C4874 0.950 . S
H4846 C4876 0.950 . S
H4847 C4877 0.950 . S
C4848 H4830 0.951 . S
C4848 C4849 1.366 . S
C4848 C4850 1.388 . S
C4849 C4848 1.366 . S
C4849 C4853 1.385 . S
C4850 H4831 0.951 . S
C4850 C4848 1.388 . S
C4850 C4851 1.366 . S
C4851 C4850 1.366 . S
C4851 C4852 1.414 . S
C4851 C4854 1.499 . S
C4852 H4832 0.950 . S
C4852 C4851 1.414 . S
C4852 C4853 1.374 . S
C4853 H4833 0.950 . S
C4853 C4849 1.385 . S
C4853 C4852 1.374 . S
C4854 C4851 1.499 . S
C4854 C4855 1.373 . S
C4854 C4856 1.389 . S
C4855 H4834 0.950 . S
C4855 C4854 1.373 . S
C4855 C4871 1.377 . S
C4856 C4854 1.389 . S
C4856 C4857 1.524 . S
C4856 C4870 1.377 . S
C4857 C4856 1.524 . S
C4857 C4858 1.397 . S
C4857 C4862 1.363 . S
C4858 H4835 0.950 . S
C4858 C4857 1.397 . S
C4858 C4859 1.334 . S
C4859 H4836 0.950 . S
C4859 C4858 1.334 . S
C4859 C4860 1.287 . S
C4860 C4859 1.287 . S
C4860 C4861 1.524 . S
C4860 H4879 0.913 . S
C4861 H4837 0.950 . S
C4861 C4860 1.524 . S
C4861 C4862 1.415 . S
C4862 H4838 0.950 . S
C4862 C4857 1.363 . S
C4862 C4861 1.415 . S
C4863 H4839 0.951 . S
C4863 C4864 1.366 . S
C4863 C4865 1.388 . S
C4864 C4863 1.366 . S
C4864 C4868 1.385 . S
C4865 H4840 0.951 . S
C4865 C4863 1.388 . S
C4865 C4866 1.366 . S
C4866 C4865 1.366 . S
C4866 C4867 1.414 . S
C4866 C4869 1.499 . S
C4867 H4841 0.950 . S
C4867 C4866 1.414 . S
C4867 C4868 1.374 . S
C4868 H4842 0.950 . S
C4868 C4864 1.385 . S
C4868 C4867 1.374 . S
C4869 C4866 1.499 . S
C4869 C4870 1.373 . S
C4869 C4871 1.389 . S
C4870 H4843 0.950 . S
C4870 C4856 1.377 . S
C4870 C4869 1.373 . S
C4871 C4855 1.377 . S
C4871 C4869 1.389 . S
C4871 C4872 1.524 . S
C4872 C4871 1.524 . S
C4872 C4873 1.397 . S
C4872 C4877 1.363 . S
C4873 H4844 0.950 . S
C4873 C4872 1.397 . S
C4873 C4874 1.334 . S
C4874 H4845 0.950 . S
C4874 C4873 1.334 . S
C4874 C4875 1.287 . S
C4875 C4874 1.287 . S
C4875 C4876 1.524 . S
C4875 H4878 0.999 . S
C4876 H4846 0.950 . S
C4876 C4875 1.524 . S
C4876 C4877 1.415 . S
C4877 H4847 0.950 . S
C4877 C4872 1.363 . S
C4877 C4876 1.415 . S
H4878 C4875 0.999 . S
H4879 C4860 0.913 . S
H4880 C4898 0.951 . S
H4881 C4900 0.951 . S
H4882 C4902 0.950 . S
H4883 C4903 0.950 . S
H4884 C4905 0.950 . S
H4885 C4908 0.950 . S
H4886 C4909 0.950 . S
H4887 C4911 0.950 . S
H4888 C4912 0.950 . S
H4889 C4913 0.951 . S
H4890 C4915 0.951 . S
H4891 C4917 0.950 . S
H4892 C4918 0.950 . S
H4893 C4920 0.950 . S
H4894 C4923 0.950 . S
H4895 C4924 0.950 . S
H4896 C4926 0.950 . S
H4897 C4927 0.950 . S
C4898 H4880 0.951 . S
C4898 C4899 1.366 . S
C4898 C4900 1.388 . S
C4899 C4898 1.366 . S
C4899 C4903 1.385 . S
C4900 H4881 0.951 . S
C4900 C4898 1.388 . S
C4900 C4901 1.366 . S
C4901 C4900 1.366 . S
C4901 C4902 1.414 . S
C4901 C4904 1.499 . S
C4902 H4882 0.950 . S
C4902 C4901 1.414 . S
C4902 C4903 1.374 . S
C4903 H4883 0.950 . S
C4903 C4899 1.385 . S
C4903 C4902 1.374 . S
C4904 C4901 1.499 . S
C4904 C4905 1.373 . S
C4904 C4906 1.389 . S
C4905 H4884 0.950 . S
C4905 C4904 1.373 . S
C4905 C4921 1.377 . S
C4906 C4904 1.389 . S
C4906 C4907 1.524 . S
C4906 C4920 1.377 . S
C4907 C4906 1.524 . S
C4907 C4908 1.397 . S
C4907 C4912 1.363 . S
C4908 H4885 0.950 . S
C4908 C4907 1.397 . S
C4908 C4909 1.334 . S
C4909 H4886 0.950 . S
C4909 C4908 1.334 . S
C4909 C4910 1.287 . S
C4910 C4909 1.287 . S
C4910 C4911 1.524 . S
C4910 H4929 0.913 . S
C4911 H4887 0.950 . S
C4911 C4910 1.524 . S
C4911 C4912 1.415 . S
C4912 H4888 0.950 . S
C4912 C4907 1.363 . S
C4912 C4911 1.415 . S
C4913 H4889 0.951 . S
C4913 C4914 1.366 . S
C4913 C4915 1.388 . S
C4914 C4913 1.366 . S
C4914 C4918 1.385 . S
C4915 H4890 0.951 . S
C4915 C4913 1.388 . S
C4915 C4916 1.366 . S
C4916 C4915 1.366 . S
C4916 C4917 1.414 . S
C4916 C4919 1.499 . S
C4917 H4891 0.950 . S
C4917 C4916 1.414 . S
C4917 C4918 1.374 . S
C4918 H4892 0.950 . S
C4918 C4914 1.385 . S
C4918 C4917 1.374 . S
C4919 C4916 1.499 . S
C4919 C4920 1.373 . S
C4919 C4921 1.389 . S
C4920 H4893 0.950 . S
C4920 C4906 1.377 . S
C4920 C4919 1.373 . S
C4921 C4905 1.377 . S
C4921 C4919 1.389 . S
C4921 C4922 1.524 . S
C4922 C4921 1.524 . S
C4922 C4923 1.397 . S
C4922 C4927 1.363 . S
C4923 H4894 0.950 . S
C4923 C4922 1.397 . S
C4923 C4924 1.334 . S
C4924 H4895 0.950 . S
C4924 C4923 1.334 . S
C4924 C4925 1.287 . S
C4925 C4924 1.287 . S
C4925 C4926 1.524 . S
C4925 H4928 0.999 . S
C4926 H4896 0.950 . S
C4926 C4925 1.524 . S
C4926 C4927 1.415 . S
C4927 H4897 0.950 . S
C4927 C4922 1.363 . S
C4927 C4926 1.415 . S
H4928 C4925 0.999 . S
H4929 C4910 0.913 . S
H4930 C4948 0.951 . S
H4931 C4950 0.951 . S
H4932 C4952 0.950 . S
H4933 C4953 0.950 . S
H4934 C4955 0.950 . S
H4935 C4958 0.950 . S
H4936 C4959 0.950 . S
H4937 C4961 0.950 . S
H4938 C4962 0.950 . S
H4939 C4963 0.951 . S
H4940 C4965 0.951 . S
H4941 C4967 0.950 . S
H4942 C4968 0.950 . S
H4943 C4970 0.950 . S
H4944 C4973 0.950 . S
H4945 C4974 0.950 . S
H4946 C4976 0.950 . S
H4947 C4977 0.950 . S
C4948 H4930 0.951 . S
C4948 C4949 1.366 . S
C4948 C4950 1.388 . S
C4949 C4948 1.366 . S
C4949 C4953 1.385 . S
C4950 H4931 0.951 . S
C4950 C4948 1.388 . S
C4950 C4951 1.366 . S
C4951 C4950 1.366 . S
C4951 C4952 1.414 . S
C4951 C4954 1.499 . S
C4952 H4932 0.950 . S
C4952 C4951 1.414 . S
C4952 C4953 1.374 . S
C4953 H4933 0.950 . S
C4953 C4949 1.385 . S
C4953 C4952 1.374 . S
C4954 C4951 1.499 . S
C4954 C4955 1.373 . S
C4954 C4956 1.389 . S
C4955 H4934 0.950 . S
C4955 C4954 1.373 . S
C4955 C4971 1.377 . S
C4956 C4954 1.389 . S
C4956 C4957 1.524 . S
C4956 C4970 1.377 . S
C4957 C4956 1.524 . S
C4957 C4958 1.397 . S
C4957 C4962 1.363 . S
C4958 H4935 0.950 . S
C4958 C4957 1.397 . S
C4958 C4959 1.334 . S
C4959 H4936 0.950 . S
C4959 C4958 1.334 . S
C4959 C4960 1.287 . S
C4960 C4959 1.287 . S
C4960 C4961 1.524 . S
C4960 H4979 0.913 . S
C4961 H4937 0.950 . S
C4961 C4960 1.524 . S
C4961 C4962 1.415 . S
C4962 H4938 0.950 . S
C4962 C4957 1.363 . S
C4962 C4961 1.415 . S
C4963 H4939 0.951 . S
C4963 C4964 1.366 . S
C4963 C4965 1.388 . S
C4964 C4963 1.366 . S
C4964 C4968 1.385 . S
C4965 H4940 0.951 . S
C4965 C4963 1.388 . S
C4965 C4966 1.366 . S
C4966 C4965 1.366 . S
C4966 C4967 1.414 . S
C4966 C4969 1.499 . S
C4967 H4941 0.950 . S
C4967 C4966 1.414 . S
C4967 C4968 1.374 . S
C4968 H4942 0.950 . S
C4968 C4964 1.385 . S
C4968 C4967 1.374 . S
C4969 C4966 1.499 . S
C4969 C4970 1.373 . S
C4969 C4971 1.389 . S
C4970 H4943 0.950 . S
C4970 C4956 1.377 . S
C4970 C4969 1.373 . S
C4971 C4955 1.377 . S
C4971 C4969 1.389 . S
C4971 C4972 1.524 . S
C4972 C4971 1.524 . S
C4972 C4973 1.397 . S
C4972 C4977 1.363 . S
C4973 H4944 0.950 . S
C4973 C4972 1.397 . S
C4973 C4974 1.334 . S
C4974 H4945 0.950 . S
C4974 C4973 1.334 . S
C4974 C4975 1.287 . S
C4975 C4974 1.287 . S
C4975 C4976 1.524 . S
C4975 H4978 0.999 . S
C4976 H4946 0.950 . S
C4976 C4975 1.524 . S
C4976 C4977 1.415 . S
C4977 H4947 0.950 . S
C4977 C4972 1.363 . S
C4977 C4976 1.415 . S
H4978 C4975 0.999 . S
H4979 C4960 0.913 . S
H4980 C4998 0.951 . S
H4981 C5000 0.951 . S
H4982 C5002 0.950 . S
H4983 C5003 0.950 . S
H4984 C5005 0.950 . S
H4985 C5008 0.950 . S
H4986 C5009 0.950 . S
H4987 C5011 0.950 . S
H4988 C5012 0.950 . S
H4989 C5013 0.951 . S
H4990 C5015 0.951 . S
H4991 C5017 0.950 . S
H4992 C5018 0.950 . S
H4993 C5020 0.950 . S
H4994 C5023 0.950 . S
H4995 C5024 0.950 . S
H4996 C5026 0.950 . S
H4997 C5027 0.950 . S
C4998 H4980 0.951 . S
C4998 C4999 1.366 . S
C4998 C5000 1.388 . S
C4999 C4998 1.366 . S
C4999 C5003 1.385 . S
C5000 H4981 0.951 . S
C5000 C4998 1.388 . S
C5000 C5001 1.366 . S
C5001 C5000 1.366 . S
C5001 C5002 1.414 . S
C5001 C5004 1.499 . S
C5002 H4982 0.950 . S
C5002 C5001 1.414 . S
C5002 C5003 1.374 . S
C5003 H4983 0.950 . S
C5003 C4999 1.385 . S
C5003 C5002 1.374 . S
C5004 C5001 1.499 . S
C5004 C5005 1.373 . S
C5004 C5006 1.389 . S
C5005 H4984 0.950 . S
C5005 C5004 1.373 . S
C5005 C5021 1.377 . S
C5006 C5004 1.389 . S
C5006 C5007 1.524 . S
C5006 C5020 1.377 . S
C5007 C5006 1.524 . S
C5007 C5008 1.397 . S
C5007 C5012 1.363 . S
C5008 H4985 0.950 . S
C5008 C5007 1.397 . S
C5008 C5009 1.334 . S
C5009 H4986 0.950 . S
C5009 C5008 1.334 . S
C5009 C5010 1.287 . S
C5010 C5009 1.287 . S
C5010 C5011 1.524 . S
C5010 H5029 0.913 . S
C5011 H4987 0.950 . S
C5011 C5010 1.524 . S
C5011 C5012 1.415 . S
C5012 H4988 0.950 . S
C5012 C5007 1.363 . S
C5012 C5011 1.415 . S
C5013 H4989 0.951 . S
C5013 C5014 1.366 . S
C5013 C5015 1.388 . S
C5014 C5013 1.366 . S
C5014 C5018 1.385 . S
C5015 H4990 0.951 . S
C5015 C5013 1.388 . S
C5015 C5016 1.366 . S
C5016 C5015 1.366 . S
C5016 C5017 1.414 . S
C5016 C5019 1.499 . S
C5017 H4991 0.950 . S
C5017 C5016 1.414 . S
C5017 C5018 1.374 . S
C5018 H4992 0.950 . S
C5018 C5014 1.385 . S
C5018 C5017 1.374 . S
C5019 C5016 1.499 . S
C5019 C5020 1.373 . S
C5019 C5021 1.389 . S
C5020 H4993 0.950 . S
C5020 C5006 1.377 . S
C5020 C5019 1.373 . S
C5021 C5005 1.377 . S
C5021 C5019 1.389 . S
C5021 C5022 1.524 . S
C5022 C5021 1.524 . S
C5022 C5023 1.397 . S
C5022 C5027 1.363 . S
C5023 H4994 0.950 . S
C5023 C5022 1.397 . S
C5023 C5024 1.334 . S
C5024 H4995 0.950 . S
C5024 C5023 1.334 . S
C5024 C5025 1.287 . S
C5025 C5024 1.287 . S
C5025 C5026 1.524 . S
C5025 H5028 0.999 . S
C5026 H4996 0.950 . S
C5026 C5025 1.524 . S
C5026 C5027 1.415 . S
C5027 H4997 0.950 . S
C5027 C5022 1.363 . S
C5027 C5026 1.415 . S
H5028 C5025 0.999 . S
H5029 C5010 0.913 . S
H5030 C5048 0.951 . S
H5031 C5050 0.951 . S
H5032 C5052 0.950 . S
H5033 C5053 0.950 . S
H5034 C5055 0.950 . S
H5035 C5058 0.950 . S
H5036 C5059 0.950 . S
H5037 C5061 0.950 . S
H5038 C5062 0.950 . S
H5039 C5063 0.951 1_565 S
H5040 C5065 0.951 . S
H5041 C5067 0.950 . S
H5042 C5068 0.950 . S
H5043 C5070 0.942 1_546 S
H5044 C5073 0.950 1_545 S
H5045 C5074 0.950 1_545 S
H5046 C5076 0.950 . S
H5047 C5077 0.950 . S
C5048 H5030 0.951 . S
C5048 C5049 1.366 . S
C5048 C5050 1.388 . S
C5049 C5048 1.366 . S
C5049 C5053 1.385 . S
C5050 H5031 0.951 . S
C5050 C5048 1.388 . S
C5050 C5051 1.366 . S
C5051 C5050 1.366 . S
C5051 C5052 1.414 . S
C5051 C5054 1.499 . S
C5052 H5032 0.950 . S
C5052 C5051 1.414 . S
C5052 C5053 1.374 . S
C5053 H5033 0.950 . S
C5053 C5049 1.385 . S
C5053 C5052 1.374 . S
C5054 C5051 1.499 . S
C5054 C5055 1.373 . S
C5054 C5056 1.389 . S
C5055 H5034 0.950 . S
C5055 C5054 1.373 . S
C5055 C5071 1.377 . S
C5056 C5054 1.389 . S
C5056 C5057 1.524 1_554 S
C5056 C5070 1.377 . S
C5057 C5056 1.524 1_556 S
C5057 C5058 1.397 . S
C5057 C5062 1.363 1_565 S
C5058 H5035 0.950 . S
C5058 C5057 1.397 . S
C5058 C5059 1.334 . S
C5059 H5036 0.950 . S
C5059 C5058 1.334 . S
C5059 C5060 1.287 . S
C5060 C5059 1.287 . S
C5060 C5061 1.524 1_565 S
C5060 H5079 0.913 . S
C5061 H5037 0.950 . S
C5061 C5060 1.524 1_545 S
C5061 C5062 1.415 . S
C5062 H5038 0.950 . S
C5062 C5057 1.363 1_545 S
C5062 C5061 1.415 . S
C5063 H5039 0.951 1_545 S
C5063 C5064 1.366 . S
C5063 C5065 1.388 1_545 S
C5064 C5063 1.366 . S
C5064 C5068 1.385 . S
C5065 H5040 0.951 . S
C5065 C5063 1.388 1_565 S
C5065 C5066 1.366 1_565 S
C5066 C5065 1.366 1_545 S
C5066 C5067 1.414 . S
C5066 C5069 1.499 1_545 S
C5067 H5041 0.950 . S
C5067 C5066 1.414 . S
C5067 C5068 1.374 . S
C5068 H5042 0.950 . S
C5068 C5064 1.385 . S
C5068 C5067 1.374 . S
C5069 C5066 1.499 1_565 S
C5069 C5070 1.373 . S
C5069 C5071 1.389 . S
C5070 H5043 0.942 1_564 S
C5070 C5056 1.377 . S
C5070 C5069 1.373 . S
C5071 C5055 1.377 . S
C5071 C5069 1.389 . S
C5071 C5072 1.524 . S
C5072 C5071 1.524 . S
C5072 C5073 1.397 . S
C5072 C5077 1.363 . S
C5073 H5044 0.950 1_565 S
C5073 C5072 1.397 . S
C5073 C5074 1.334 . S
C5074 H5045 0.950 1_565 S
C5074 C5073 1.334 . S
C5074 C5075 1.287 . S
C5075 C5074 1.287 . S
C5075 C5076 1.524 . S
C5075 H5078 0.999 . S
C5076 H5046 0.950 . S
C5076 C5075 1.524 . S
C5076 C5077 1.415 . S
C5077 H5047 0.950 . S
C5077 C5072 1.363 . S
C5077 C5076 1.415 . S
H5078 C5075 0.999 . S
H5079 C5060 0.913 . S
H5080 C5098 0.951 . S
H5081 C5100 0.951 . S
H5082 C5102 0.950 . S
H5083 C5103 0.950 . S
H5084 C5105 0.950 . S
H5085 C5108 0.950 . S
H5086 C5109 0.950 . S
H5087 C5111 0.950 . S
H5088 C5112 0.950 . S
H5089 C5113 0.951 . S
H5090 C5115 0.951 . S
H5091 C5117 0.950 . S
H5092 C5118 0.950 . S
H5093 C5120 0.950 . S
H5094 C5123 0.950 . S
H5095 C5124 0.950 . S
H5096 C5126 0.950 . S
H5097 C5127 0.950 . S
C5098 H5080 0.951 . S
C5098 C5099 1.366 . S
C5098 C5100 1.388 . S
C5099 C5098 1.366 . S
C5099 C5103 1.385 . S
C5100 H5081 0.951 . S
C5100 C5098 1.388 . S
C5100 C5101 1.366 . S
C5101 C5100 1.366 . S
C5101 C5102 1.414 . S
C5101 C5104 1.499 . S
C5102 H5082 0.950 . S
C5102 C5101 1.414 . S
C5102 C5103 1.374 . S
C5103 H5083 0.950 . S
C5103 C5099 1.385 . S
C5103 C5102 1.374 . S
C5104 C5101 1.499 . S
C5104 C5105 1.373 . S
C5104 C5106 1.389 . S
C5105 H5084 0.950 . S
C5105 C5104 1.373 . S
C5105 C5121 1.377 . S
C5106 C5104 1.389 . S
C5106 C5107 1.524 . S
C5106 C5120 1.377 . S
C5107 C5106 1.524 . S
C5107 C5108 1.397 . S
C5107 C5112 1.363 . S
C5108 H5085 0.950 . S
C5108 C5107 1.397 . S
C5108 C5109 1.334 . S
C5109 H5086 0.950 . S
C5109 C5108 1.334 . S
C5109 C5110 1.287 . S
C5110 C5109 1.287 . S
C5110 C5111 1.524 . S
C5110 H5129 0.913 . S
C5111 H5087 0.950 . S
C5111 C5110 1.524 . S
C5111 C5112 1.415 . S
C5112 H5088 0.950 . S
C5112 C5107 1.363 . S
C5112 C5111 1.415 . S
C5113 H5089 0.951 . S
C5113 C5114 1.366 . S
C5113 C5115 1.388 . S
C5114 C5113 1.366 . S
C5114 C5118 1.385 . S
C5115 H5090 0.951 . S
C5115 C5113 1.388 . S
C5115 C5116 1.366 . S
C5116 C5115 1.366 . S
C5116 C5117 1.414 . S
C5116 C5119 1.499 . S
C5117 H5091 0.950 . S
C5117 C5116 1.414 . S
C5117 C5118 1.374 . S
C5118 H5092 0.950 . S
C5118 C5114 1.385 . S
C5118 C5117 1.374 . S
C5119 C5116 1.499 . S
C5119 C5120 1.373 . S
C5119 C5121 1.389 . S
C5120 H5093 0.950 . S
C5120 C5106 1.377 . S
C5120 C5119 1.373 . S
C5121 C5105 1.377 . S
C5121 C5119 1.389 . S
C5121 C5122 1.524 . S
C5122 C5121 1.524 . S
C5122 C5123 1.397 . S
C5122 C5127 1.363 . S
C5123 H5094 0.950 . S
C5123 C5122 1.397 . S
C5123 C5124 1.334 . S
C5124 H5095 0.950 . S
C5124 C5123 1.334 . S
C5124 C5125 1.287 . S
C5125 C5124 1.287 . S
C5125 C5126 1.524 . S
C5125 H5128 0.999 . S
C5126 H5096 0.950 . S
C5126 C5125 1.524 . S
C5126 C5127 1.415 . S
C5127 H5097 0.950 . S
C5127 C5122 1.363 . S
C5127 C5126 1.415 . S
H5128 C5125 0.999 . S
H5129 C5110 0.913 . S
H5130 C5148 0.951 . S
H5131 C5150 0.951 . S
H5132 C5152 0.950 . S
H5133 C5153 0.950 . S
H5134 C5155 0.950 . S
H5135 C5158 0.950 . S
H5136 C5159 0.950 . S
H5137 C5161 0.950 . S
H5138 C5162 0.950 . S
H5139 C5163 0.951 . S
H5140 C5165 0.951 1_556 S
H5141 C5167 0.950 . S
H5142 C5168 0.950 . S
H5143 C5170 0.950 . S
H5144 C5173 0.950 1_554 S
H5145 C5174 0.950 . S
H5146 C5176 0.950 . S
H5147 C5177 0.950 . S
C5148 H5130 0.951 . S
C5148 C5149 1.366 . S
C5148 C5150 1.388 . S
C5149 C5148 1.366 . S
C5149 C5153 1.385 1_554 S
C5150 H5131 0.951 . S
C5150 C5148 1.388 . S
C5150 C5151 1.366 . S
C5151 C5150 1.366 . S
C5151 C5152 1.414 1_554 S
C5151 C5154 1.499 . S
C5152 H5132 0.950 . S
C5152 C5151 1.414 1_556 S
C5152 C5153 1.374 . S
C5153 H5133 0.950 . S
C5153 C5149 1.385 1_556 S
C5153 C5152 1.374 . S
C5154 C5151 1.499 . S
C5154 C5155 1.373 1_554 S
C5154 C5156 1.389 . S
C5155 H5134 0.950 . S
C5155 C5154 1.373 1_556 S
C5155 C5171 1.377 1_556 S
C5156 C5154 1.389 . S
C5156 C5157 1.524 . S
C5156 C5170 1.377 . S
C5157 C5156 1.524 . S
C5157 C5158 1.397 . S
C5157 C5162 1.363 . S
C5158 H5135 0.950 . S
C5158 C5157 1.397 . S
C5158 C5159 1.334 . S
C5159 H5136 0.950 . S
C5159 C5158 1.334 . S
C5159 C5160 1.287 . S
C5160 C5159 1.287 . S
C5160 C5161 1.524 . S
C5160 H5179 0.913 . S
C5161 H5137 0.950 . S
C5161 C5160 1.524 . S
C5161 C5162 1.415 . S
C5162 H5138 0.950 . S
C5162 C5157 1.363 . S
C5162 C5161 1.415 . S
C5163 H5139 0.951 . S
C5163 C5164 1.366 . S
C5163 C5165 1.388 . S
C5164 C5163 1.366 . S
C5164 C5168 1.385 . S
C5165 H5140 0.951 1_554 S
C5165 C5163 1.388 . S
C5165 C5166 1.366 . S
C5166 C5165 1.366 . S
C5166 C5167 1.414 . S
C5166 C5169 1.499 . S
C5167 H5141 0.950 . S
C5167 C5166 1.414 . S
C5167 C5168 1.374 . S
C5168 H5142 0.950 . S
C5168 C5164 1.385 . S
C5168 C5167 1.374 . S
C5169 C5166 1.499 . S
C5169 C5170 1.373 . S
C5169 C5171 1.389 . S
C5170 H5143 0.950 . S
C5170 C5156 1.377 . S
C5170 C5169 1.373 . S
C5171 C5155 1.377 1_554 S
C5171 C5169 1.389 . S
C5171 C5172 1.524 1_554 S
C5172 C5171 1.524 1_556 S
C5172 C5173 1.397 . S
C5172 C5177 1.363 . S
C5173 H5144 0.950 1_556 S
C5173 C5172 1.397 . S
C5173 C5174 1.334 . S
C5174 H5145 0.950 . S
C5174 C5173 1.334 . S
C5174 C5175 1.287 . S
C5175 C5174 1.287 . S
C5175 C5176 1.524 . S
C5175 H5178 0.999 . S
C5176 H5146 0.950 . S
C5176 C5175 1.524 . S
C5176 C5177 1.415 . S
C5177 H5147 0.950 . S
C5177 C5172 1.363 . S
C5177 C5176 1.415 . S
H5178 C5175 0.999 . S
H5179 C5160 0.913 . S
H5180 C5198 0.951 . S
H5181 C5200 0.951 . S
H5182 C5202 0.950 . S
H5183 C5203 0.950 . S
H5184 C5205 0.950 . S
H5185 C5208 0.950 . S
H5186 C5209 0.950 . S
H5187 C5211 0.950 . S
H5188 C5212 0.950 . S
H5189 C5213 0.951 . S
H5190 C5215 0.951 . S
H5191 C5217 0.950 . S
H5192 C5218 0.950 . S
H5193 C5220 0.950 . S
H5194 C5223 0.950 . S
H5195 C5224 0.950 . S
H5196 C5226 0.950 . S
H5197 C5227 0.950 . S
C5198 H5180 0.951 . S
C5198 C5199 1.366 . S
C5198 C5200 1.388 . S
C5199 C5198 1.366 . S
C5199 C5203 1.385 . S
C5200 H5181 0.951 . S
C5200 C5198 1.388 . S
C5200 C5201 1.366 . S
C5201 C5200 1.366 . S
C5201 C5202 1.414 . S
C5201 C5204 1.499 . S
C5202 H5182 0.950 . S
C5202 C5201 1.414 . S
C5202 C5203 1.374 . S
C5203 H5183 0.950 . S
C5203 C5199 1.385 . S
C5203 C5202 1.374 . S
C5204 C5201 1.499 . S
C5204 C5205 1.373 . S
C5204 C5206 1.389 . S
C5205 H5184 0.950 . S
C5205 C5204 1.373 . S
C5205 C5221 1.377 . S
C5206 C5204 1.389 . S
C5206 C5207 1.524 . S
C5206 C5220 1.377 . S
C5207 C5206 1.524 . S
C5207 C5208 1.397 . S
C5207 C5212 1.363 . S
C5208 H5185 0.950 . S
C5208 C5207 1.397 . S
C5208 C5209 1.334 . S
C5209 H5186 0.950 . S
C5209 C5208 1.334 . S
C5209 C5210 1.287 . S
C5210 C5209 1.287 . S
C5210 C5211 1.524 . S
C5210 H5229 0.913 . S
C5211 H5187 0.950 . S
C5211 C5210 1.524 . S
C5211 C5212 1.415 . S
C5212 H5188 0.950 . S
C5212 C5207 1.363 . S
C5212 C5211 1.415 . S
C5213 H5189 0.951 . S
C5213 C5214 1.366 . S
C5213 C5215 1.388 . S
C5214 C5213 1.366 . S
C5214 C5218 1.385 . S
C5215 H5190 0.951 . S
C5215 C5213 1.388 . S
C5215 C5216 1.366 . S
C5216 C5215 1.366 . S
C5216 C5217 1.414 . S
C5216 C5219 1.499 . S
C5217 H5191 0.950 . S
C5217 C5216 1.414 . S
C5217 C5218 1.374 . S
C5218 H5192 0.950 . S
C5218 C5214 1.385 . S
C5218 C5217 1.374 . S
C5219 C5216 1.499 . S
C5219 C5220 1.373 . S
C5219 C5221 1.389 . S
C5220 H5193 0.950 . S
C5220 C5206 1.377 . S
C5220 C5219 1.373 . S
C5221 C5205 1.377 . S
C5221 C5219 1.389 . S
C5221 C5222 1.524 . S
C5222 C5221 1.524 . S
C5222 C5223 1.397 . S
C5222 C5227 1.363 . S
C5223 H5194 0.950 . S
C5223 C5222 1.397 . S
C5223 C5224 1.334 . S
C5224 H5195 0.950 . S
C5224 C5223 1.334 . S
C5224 C5225 1.287 . S
C5225 C5224 1.287 . S
C5225 C5226 1.524 . S
C5225 H5228 0.999 . S
C5226 H5196 0.950 . S
C5226 C5225 1.524 . S
C5226 C5227 1.415 . S
C5227 H5197 0.950 . S
C5227 C5222 1.363 . S
C5227 C5226 1.415 . S
H5228 C5225 0.999 . S
H5229 C5210 0.913 . S
H5230 C5248 0.951 . S
H5231 C5250 0.951 . S
H5232 C5252 0.950 . S
H5233 C5253 0.950 . S
H5234 C5255 0.950 . S
H5235 C5258 0.950 . S
H5236 C5259 0.950 . S
H5237 C5261 0.950 . S
H5238 C5262 0.950 . S
H5239 C5263 0.951 . S
H5240 C5265 0.951 . S
H5241 C5267 0.950 . S
H5242 C5268 0.950 . S
H5243 C5270 0.950 . S
H5244 C5273 0.950 . S
H5245 C5274 0.950 . S
H5246 C5276 0.950 . S
H5247 C5277 0.950 . S
C5248 H5230 0.951 . S
C5248 C5249 1.366 . S
C5248 C5250 1.388 . S
C5249 C5248 1.366 . S
C5249 C5253 1.385 . S
C5250 H5231 0.951 . S
C5250 C5248 1.388 . S
C5250 C5251 1.366 . S
C5251 C5250 1.366 . S
C5251 C5252 1.414 . S
C5251 C5254 1.499 . S
C5252 H5232 0.950 . S
C5252 C5251 1.414 . S
C5252 C5253 1.374 . S
C5253 H5233 0.950 . S
C5253 C5249 1.385 . S
C5253 C5252 1.374 . S
C5254 C5251 1.499 . S
C5254 C5255 1.373 . S
C5254 C5256 1.389 . S
C5255 H5234 0.950 . S
C5255 C5254 1.373 . S
C5255 C5271 1.377 . S
C5256 C5254 1.389 . S
C5256 C5257 1.524 . S
C5256 C5270 1.377 . S
C5257 C5256 1.524 . S
C5257 C5258 1.397 . S
C5257 C5262 1.363 . S
C5258 H5235 0.950 . S
C5258 C5257 1.397 . S
C5258 C5259 1.334 . S
C5259 H5236 0.950 . S
C5259 C5258 1.334 . S
C5259 C5260 1.287 . S
C5260 C5259 1.287 . S
C5260 C5261 1.524 . S
C5260 H5279 0.913 . S
C5261 H5237 0.950 . S
C5261 C5260 1.524 . S
C5261 C5262 1.415 . S
C5262 H5238 0.950 . S
C5262 C5257 1.363 . S
C5262 C5261 1.415 . S
C5263 H5239 0.951 . S
C5263 C5264 1.366 . S
C5263 C5265 1.388 . S
C5264 C5263 1.366 . S
C5264 C5268 1.385 . S
C5265 H5240 0.951 . S
C5265 C5263 1.388 . S
C5265 C5266 1.366 . S
C5266 C5265 1.366 . S
C5266 C5267 1.414 . S
C5266 C5269 1.499 . S
C5267 H5241 0.950 . S
C5267 C5266 1.414 . S
C5267 C5268 1.374 . S
C5268 H5242 0.950 . S
C5268 C5264 1.385 . S
C5268 C5267 1.374 . S
C5269 C5266 1.499 . S
C5269 C5270 1.373 . S
C5269 C5271 1.389 . S
C5270 H5243 0.950 . S
C5270 C5256 1.377 . S
C5270 C5269 1.373 . S
C5271 C5255 1.377 . S
C5271 C5269 1.389 . S
C5271 C5272 1.524 . S
C5272 C5271 1.524 . S
C5272 C5273 1.397 . S
C5272 C5277 1.363 . S
C5273 H5244 0.950 . S
C5273 C5272 1.397 . S
C5273 C5274 1.334 . S
C5274 H5245 0.950 . S
C5274 C5273 1.334 . S
C5274 C5275 1.287 . S
C5275 C5274 1.287 . S
C5275 C5276 1.524 . S
C5275 H5278 0.999 . S
C5276 H5246 0.950 . S
C5276 C5275 1.524 . S
C5276 C5277 1.415 . S
C5277 H5247 0.950 . S
C5277 C5272 1.363 . S
C5277 C5276 1.415 . S
H5278 C5275 0.999 . S
H5279 C5260 0.913 . S
H5280 C5298 0.951 . S
H5281 C5300 0.951 . S
H5282 C5302 0.950 . S
H5283 C5303 0.950 . S
H5284 C5305 0.950 . S
H5285 C5308 0.950 . S
H5286 C5309 0.950 . S
H5287 C5311 0.950 . S
H5288 C5312 0.950 . S
H5289 C5313 0.951 . S
H5290 C5315 0.951 . S
H5291 C5317 0.950 . S
H5292 C5318 0.950 . S
H5293 C5320 0.950 . S
H5294 C5323 0.950 . S
H5295 C5324 0.950 . S
H5296 C5326 0.950 . S
H5297 C5327 0.950 . S
C5298 H5280 0.951 . S
C5298 C5299 1.366 . S
C5298 C5300 1.388 . S
C5299 C5298 1.366 . S
C5299 C5303 1.385 . S
C5300 H5281 0.951 . S
C5300 C5298 1.388 . S
C5300 C5301 1.366 . S
C5301 C5300 1.366 . S
C5301 C5302 1.414 . S
C5301 C5304 1.499 . S
C5302 H5282 0.950 . S
C5302 C5301 1.414 . S
C5302 C5303 1.374 . S
C5303 H5283 0.950 . S
C5303 C5299 1.385 . S
C5303 C5302 1.374 . S
C5304 C5301 1.499 . S
C5304 C5305 1.373 . S
C5304 C5306 1.389 . S
C5305 H5284 0.950 . S
C5305 C5304 1.373 . S
C5305 C5321 1.377 . S
C5306 C5304 1.389 . S
C5306 C5307 1.524 . S
C5306 C5320 1.377 . S
C5307 C5306 1.524 . S
C5307 C5308 1.397 . S
C5307 C5312 1.363 . S
C5308 H5285 0.950 . S
C5308 C5307 1.397 . S
C5308 C5309 1.334 . S
C5309 H5286 0.950 . S
C5309 C5308 1.334 . S
C5309 C5310 1.287 . S
C5310 C5309 1.287 . S
C5310 C5311 1.524 . S
C5310 H5329 0.913 . S
C5311 H5287 0.950 . S
C5311 C5310 1.524 . S
C5311 C5312 1.415 . S
C5312 H5288 0.950 . S
C5312 C5307 1.363 . S
C5312 C5311 1.415 . S
C5313 H5289 0.951 . S
C5313 C5314 1.366 . S
C5313 C5315 1.388 . S
C5314 C5313 1.366 . S
C5314 C5318 1.385 . S
C5315 H5290 0.951 . S
C5315 C5313 1.388 . S
C5315 C5316 1.366 . S
C5316 C5315 1.366 . S
C5316 C5317 1.414 . S
C5316 C5319 1.499 . S
C5317 H5291 0.950 . S
C5317 C5316 1.414 . S
C5317 C5318 1.374 . S
C5318 H5292 0.950 . S
C5318 C5314 1.385 . S
C5318 C5317 1.374 . S
C5319 C5316 1.499 . S
C5319 C5320 1.373 . S
C5319 C5321 1.389 . S
C5320 H5293 0.950 . S
C5320 C5306 1.377 . S
C5320 C5319 1.373 . S
C5321 C5305 1.377 . S
C5321 C5319 1.389 . S
C5321 C5322 1.524 . S
C5322 C5321 1.524 . S
C5322 C5323 1.397 . S
C5322 C5327 1.363 . S
C5323 H5294 0.950 . S
C5323 C5322 1.397 . S
C5323 C5324 1.334 . S
C5324 H5295 0.950 . S
C5324 C5323 1.334 . S
C5324 C5325 1.287 . S
C5325 C5324 1.287 . S
C5325 C5326 1.524 . S
C5325 H5328 0.999 . S
C5326 H5296 0.950 . S
C5326 C5325 1.524 . S
C5326 C5327 1.415 . S
C5327 H5297 0.950 . S
C5327 C5322 1.363 . S
C5327 C5326 1.415 . S
H5328 C5325 0.999 . S
H5329 C5310 0.913 . S
H5330 C5348 0.951 . S
H5331 C5350 0.951 . S
H5332 C5352 0.950 . S
H5333 C5353 0.950 . S
H5334 C5355 0.950 . S
H5335 C5358 0.950 . S
H5336 C5359 0.950 . S
H5337 C5361 0.950 . S
H5338 C5362 0.950 . S
H5339 C5363 0.951 . S
H5340 C5365 0.951 . S
H5341 C5367 0.950 . S
H5342 C5368 0.950 . S
H5343 C5370 0.950 . S
H5344 C5373 0.950 . S
H5345 C5374 0.950 . S
H5346 C5376 0.950 . S
H5347 C5377 0.950 . S
C5348 H5330 0.951 . S
C5348 C5349 1.366 . S
C5348 C5350 1.388 . S
C5349 C5348 1.366 . S
C5349 C5353 1.385 . S
C5350 H5331 0.951 . S
C5350 C5348 1.388 . S
C5350 C5351 1.366 . S
C5351 C5350 1.366 . S
C5351 C5352 1.414 . S
C5351 C5354 1.499 . S
C5352 H5332 0.950 . S
C5352 C5351 1.414 . S
C5352 C5353 1.374 . S
C5353 H5333 0.950 . S
C5353 C5349 1.385 . S
C5353 C5352 1.374 . S
C5354 C5351 1.499 . S
C5354 C5355 1.373 . S
C5354 C5356 1.389 . S
C5355 H5334 0.950 . S
C5355 C5354 1.373 . S
C5355 C5371 1.377 . S
C5356 C5354 1.389 . S
C5356 C5357 1.524 . S
C5356 C5370 1.377 . S
C5357 C5356 1.524 . S
C5357 C5358 1.397 . S
C5357 C5362 1.363 . S
C5358 H5335 0.950 . S
C5358 C5357 1.397 . S
C5358 C5359 1.334 . S
C5359 H5336 0.950 . S
C5359 C5358 1.334 . S
C5359 C5360 1.287 . S
C5360 C5359 1.287 . S
C5360 C5361 1.524 . S
C5360 H5379 0.913 . S
C5361 H5337 0.950 . S
C5361 C5360 1.524 . S
C5361 C5362 1.415 . S
C5362 H5338 0.950 . S
C5362 C5357 1.363 . S
C5362 C5361 1.415 . S
C5363 H5339 0.951 . S
C5363 C5364 1.366 . S
C5363 C5365 1.388 . S
C5364 C5363 1.366 . S
C5364 C5368 1.385 . S
C5365 H5340 0.951 . S
C5365 C5363 1.388 . S
C5365 C5366 1.366 . S
C5366 C5365 1.366 . S
C5366 C5367 1.414 . S
C5366 C5369 1.499 . S
C5367 H5341 0.950 . S
C5367 C5366 1.414 . S
C5367 C5368 1.374 . S
C5368 H5342 0.950 . S
C5368 C5364 1.385 . S
C5368 C5367 1.374 . S
C5369 C5366 1.499 . S
C5369 C5370 1.373 . S
C5369 C5371 1.389 . S
C5370 H5343 0.950 . S
C5370 C5356 1.377 . S
C5370 C5369 1.373 . S
C5371 C5355 1.377 . S
C5371 C5369 1.389 . S
C5371 C5372 1.524 . S
C5372 C5371 1.524 . S
C5372 C5373 1.397 . S
C5372 C5377 1.363 . S
C5373 H5344 0.950 . S
C5373 C5372 1.397 . S
C5373 C5374 1.334 . S
C5374 H5345 0.950 . S
C5374 C5373 1.334 . S
C5374 C5375 1.287 . S
C5375 C5374 1.287 . S
C5375 C5376 1.524 . S
C5375 H5378 0.999 . S
C5376 H5346 0.950 . S
C5376 C5375 1.524 . S
C5376 C5377 1.415 . S
C5377 H5347 0.950 . S
C5377 C5372 1.363 . S
C5377 C5376 1.415 . S
H5378 C5375 0.999 . S
H5379 C5360 0.913 . S
H5380 C5398 0.951 . S
H5381 C5400 0.951 . S
H5382 C5402 0.950 . S
H5383 C5403 0.950 . S
H5384 C5405 0.950 . S
H5385 C5408 0.950 . S
H5386 C5409 0.950 . S
H5387 C5411 0.950 . S
H5388 C5412 0.950 . S
H5389 C5413 0.951 . S
H5390 C5415 0.951 . S
H5391 C5417 0.950 . S
H5392 C5418 0.950 . S
H5393 C5420 0.950 . S
H5394 C5423 0.950 . S
H5395 C5424 0.950 . S
H5396 C5426 0.950 . S
H5397 C5427 0.963 . S
C5398 H5380 0.951 . S
C5398 C5399 1.366 . S
C5398 C5400 1.388 . S
C5399 C5398 1.366 . S
C5399 C5403 1.385 . S
C5400 H5381 0.951 . S
C5400 C5398 1.388 . S
C5400 C5401 1.366 . S
C5401 C5400 1.366 . S
C5401 C5402 1.414 . S
C5401 C5404 1.499 . S
C5402 H5382 0.950 . S
C5402 C5401 1.414 . S
C5402 C5403 1.374 . S
C5403 H5383 0.950 . S
C5403 C5399 1.385 . S
C5403 C5402 1.374 . S
C5404 C5401 1.499 . S
C5404 C5405 1.373 . S
C5404 C5406 1.389 . S
C5405 H5384 0.950 . S
C5405 C5404 1.373 . S
C5405 C5421 1.377 . S
C5406 C5404 1.389 . S
C5406 C5407 1.524 . S
C5406 C5420 1.377 . S
C5407 C5406 1.524 . S
C5407 C5408 1.397 . S
C5407 C5412 1.363 . S
C5408 H5385 0.950 . S
C5408 C5407 1.397 . S
C5408 C5409 1.334 . S
C5409 H5386 0.950 . S
C5409 C5408 1.334 . S
C5409 C5410 1.287 . S
C5410 C5409 1.287 . S
C5410 C5411 1.524 . S
C5410 H5429 0.913 . S
C5411 H5387 0.950 . S
C5411 C5410 1.524 . S
C5411 C5412 1.415 . S
C5412 H5388 0.950 . S
C5412 C5407 1.363 . S
C5412 C5411 1.415 . S
C5413 H5389 0.951 . S
C5413 C5414 1.366 . S
C5413 C5415 1.388 . S
C5414 C5413 1.366 . S
C5414 C5418 1.385 . S
C5415 H5390 0.951 . S
C5415 C5413 1.388 . S
C5415 C5416 1.366 . S
C5416 C5415 1.366 . S
C5416 C5417 1.414 . S
C5416 C5419 1.499 . S
C5417 H5391 0.950 . S
C5417 C5416 1.414 . S
C5417 C5418 1.374 . S
C5418 H5392 0.950 . S
C5418 C5414 1.385 . S
C5418 C5417 1.374 . S
C5419 C5416 1.499 . S
C5419 C5420 1.373 . S
C5419 C5421 1.389 . S
C5420 H5393 0.950 . S
C5420 C5406 1.377 . S
C5420 C5419 1.373 . S
C5421 C5405 1.377 . S
C5421 C5419 1.389 . S
C5421 C5422 1.524 . S
C5422 C5421 1.524 . S
C5422 C5423 1.397 . S
C5422 C5427 1.405 . S
C5423 H5394 0.950 . S
C5423 C5422 1.397 . S
C5423 C5424 1.334 1_554 S
C5424 H5395 0.950 . S
C5424 C5423 1.334 1_556 S
C5424 C5425 1.287 . S
C5425 C5424 1.287 . S
C5425 C5426 1.524 . S
C5425 H5428 0.999 . S
C5426 H5396 0.950 . S
C5426 C5425 1.524 . S
C5426 C5427 1.363 1_556 S
C5427 H5397 0.963 . S
C5427 C5422 1.405 . S
C5427 C5426 1.363 1_554 S
H5428 C5425 0.999 . S
H5429 C5410 0.913 . S
H5430 C5448 0.951 . S
H5431 C5450 0.951 . S
H5432 C5452 0.950 . S
H5433 C5453 0.950 . S
H5434 C5455 0.950 . S
H5435 C5458 0.950 . S
H5436 C5459 0.950 . S
H5437 C5461 0.950 . S
H5438 C5462 0.950 . S
H5439 C5463 0.951 . S
H5440 C5465 0.951 . S
H5441 C5467 0.950 . S
H5442 C5468 0.950 . S
H5443 C5470 0.950 . S
H5444 C5473 0.950 . S
H5445 C5474 0.950 . S
H5446 C5476 0.950 . S
H5447 C5477 0.950 . S
C5448 H5430 0.951 . S
C5448 C5449 1.366 . S
C5448 C5450 1.388 . S
C5449 C5448 1.366 . S
C5449 C5453 1.385 . S
C5450 H5431 0.951 . S
C5450 C5448 1.388 . S
C5450 C5451 1.366 . S
C5451 C5450 1.366 . S
C5451 C5452 1.414 . S
C5451 C5454 1.499 . S
C5452 H5432 0.950 . S
C5452 C5451 1.414 . S
C5452 C5453 1.374 . S
C5453 H5433 0.950 . S
C5453 C5449 1.385 . S
C5453 C5452 1.374 . S
C5454 C5451 1.499 . S
C5454 C5455 1.373 . S
C5454 C5456 1.389 . S
C5455 H5434 0.950 . S
C5455 C5454 1.373 . S
C5455 C5471 1.377 . S
C5456 C5454 1.389 . S
C5456 C5457 1.524 . S
C5456 C5470 1.377 . S
C5457 C5456 1.524 . S
C5457 C5458 1.397 . S
C5457 C5462 1.363 . S
C5458 H5435 0.950 . S
C5458 C5457 1.397 . S
C5458 C5459 1.334 . S
C5459 H5436 0.950 . S
C5459 C5458 1.334 . S
C5459 C5460 1.287 . S
C5460 C5459 1.287 . S
C5460 C5461 1.524 . S
C5460 H5479 0.913 . S
C5461 H5437 0.950 . S
C5461 C5460 1.524 . S
C5461 C5462 1.415 . S
C5462 H5438 0.950 . S
C5462 C5457 1.363 . S
C5462 C5461 1.415 . S
C5463 H5439 0.951 . S
C5463 C5464 1.366 . S
C5463 C5465 1.388 . S
C5464 C5463 1.366 . S
C5464 C5468 1.385 . S
C5465 H5440 0.951 . S
C5465 C5463 1.388 . S
C5465 C5466 1.366 . S
C5466 C5465 1.366 . S
C5466 C5467 1.414 . S
C5466 C5469 1.499 . S
C5467 H5441 0.950 . S
C5467 C5466 1.414 . S
C5467 C5468 1.374 . S
C5468 H5442 0.950 . S
C5468 C5464 1.385 . S
C5468 C5467 1.374 . S
C5469 C5466 1.499 . S
C5469 C5470 1.373 . S
C5469 C5471 1.389 . S
C5470 H5443 0.950 . S
C5470 C5456 1.377 . S
C5470 C5469 1.373 . S
C5471 C5455 1.377 . S
C5471 C5469 1.389 . S
C5471 C5472 1.524 . S
C5472 C5471 1.524 . S
C5472 C5473 1.397 . S
C5472 C5477 1.363 . S
C5473 H5444 0.950 . S
C5473 C5472 1.397 . S
C5473 C5474 1.334 . S
C5474 H5445 0.950 . S
C5474 C5473 1.334 . S
C5474 C5475 1.287 . S
C5475 C5474 1.287 . S
C5475 C5476 1.524 . S
C5475 H5478 0.999 . S
C5476 H5446 0.950 . S
C5476 C5475 1.524 . S
C5476 C5477 1.415 . S
C5477 H5447 0.950 . S
C5477 C5472 1.363 . S
C5477 C5476 1.415 . S
H5478 C5475 0.999 . S
H5479 C5460 0.913 . S
H5480 C5498 0.951 . S
H5481 C5500 0.951 . S
H5482 C5502 0.950 . S
H5483 C5503 0.950 . S
H5484 C5505 0.950 . S
H5485 C5508 0.950 . S
H5486 C5509 0.950 . S
H5487 C5511 0.950 . S
H5488 C5512 0.950 . S
H5489 C5513 0.951 1_554 S
H5490 C5515 0.951 . S
H5491 C5517 0.950 . S
H5492 C5518 0.950 . S
H5493 C5520 0.950 . S
H5494 C5523 0.950 . S
H5495 C5524 0.950 . S
H5496 C5526 0.950 . S
H5497 C5527 0.950 . S
C5498 H5480 0.951 . S
C5498 C5499 1.366 . S
C5498 C5500 1.388 . S
C5499 C5498 1.366 . S
C5499 C5503 1.385 . S
C5500 H5481 0.951 . S
C5500 C5498 1.388 . S
C5500 C5501 1.366 . S
C5501 C5500 1.366 . S
C5501 C5502 1.414 . S
C5501 C5504 1.499 . S
C5502 H5482 0.950 . S
C5502 C5501 1.414 . S
C5502 C5503 1.374 . S
C5503 H5483 0.950 . S
C5503 C5499 1.385 . S
C5503 C5502 1.374 . S
C5504 C5501 1.499 . S
C5504 C5505 1.373 . S
C5504 C5506 1.389 . S
C5505 H5484 0.950 . S
C5505 C5504 1.373 . S
C5505 C5521 1.377 . S
C5506 C5504 1.389 . S
C5506 C5507 1.524 . S
C5506 C5520 1.377 . S
C5507 C5506 1.524 . S
C5507 C5508 1.397 . S
C5507 C5512 1.363 . S
C5508 H5485 0.950 . S
C5508 C5507 1.397 . S
C5508 C5509 1.334 . S
C5509 H5486 0.950 . S
C5509 C5508 1.334 . S
C5509 C5510 1.287 . S
C5510 C5509 1.287 . S
C5510 C5511 1.524 . S
C5510 H5529 0.913 . S
C5511 H5487 0.950 . S
C5511 C5510 1.524 . S
C5511 C5512 1.415 . S
C5512 H5488 0.950 . S
C5512 C5507 1.363 . S
C5512 C5511 1.415 . S
C5513 H5489 0.951 1_556 S
C5513 C5514 1.366 . S
C5513 C5515 1.388 . S
C5514 C5513 1.366 . S
C5514 C5518 1.385 . S
C5515 H5490 0.951 . S
C5515 C5513 1.388 . S
C5515 C5516 1.366 . S
C5516 C5515 1.366 . S
C5516 C5517 1.414 . S
C5516 C5519 1.499 . S
C5517 H5491 0.950 . S
C5517 C5516 1.414 . S
C5517 C5518 1.374 . S
C5518 H5492 0.950 . S
C5518 C5514 1.385 . S
C5518 C5517 1.374 . S
C5519 C5516 1.499 . S
C5519 C5520 1.373 . S
C5519 C5521 1.389 . S
C5520 H5493 0.950 . S
C5520 C5506 1.377 . S
C5520 C5519 1.373 . S
C5521 C5505 1.377 . S
C5521 C5519 1.389 . S
C5521 C5522 1.524 . S
C5522 C5521 1.524 . S
C5522 C5523 1.397 . S
C5522 C5527 1.363 . S
C5523 H5494 0.950 . S
C5523 C5522 1.397 . S
C5523 C5524 1.334 . S
C5524 H5495 0.950 . S
C5524 C5523 1.334 . S
C5524 C5525 1.287 . S
C5525 C5524 1.287 . S
C5525 C5526 1.524 . S
C5525 H5528 0.999 . S
C5526 H5496 0.950 . S
C5526 C5525 1.524 . S
C5526 C5527 1.415 . S
C5527 H5497 0.950 . S
C5527 C5522 1.363 . S
C5527 C5526 1.415 . S
H5528 C5525 0.999 . S
H5529 C5510 0.913 . S
H5530 C5548 0.951 . S
H5531 C5550 0.951 . S
H5532 C5552 0.950 . S
H5533 C5553 0.950 . S
H5534 C5555 0.950 . S
H5535 C5558 0.950 . S
H5536 C5559 0.950 . S
H5537 C5561 0.950 . S
H5538 C5562 0.950 . S
H5539 C5563 0.951 . S
H5540 C5565 0.951 . S
H5541 C5567 0.950 . S
H5542 C5568 0.950 . S
H5543 C5570 0.950 . S
H5544 C5573 0.950 . S
H5545 C5574 0.950 . S
H5546 C5576 0.950 . S
H5547 C5577 0.950 . S
C5548 H5530 0.951 . S
C5548 C5549 1.366 . S
C5548 C5550 1.388 . S
C5549 C5548 1.366 . S
C5549 C5553 1.385 . S
C5550 H5531 0.951 . S
C5550 C5548 1.388 . S
C5550 C5551 1.366 . S
C5551 C5550 1.366 . S
C5551 C5552 1.414 . S
C5551 C5554 1.499 . S
C5552 H5532 0.950 . S
C5552 C5551 1.414 . S
C5552 C5553 1.374 . S
C5553 H5533 0.950 . S
C5553 C5549 1.385 . S
C5553 C5552 1.374 . S
C5554 C5551 1.499 . S
C5554 C5555 1.373 . S
C5554 C5556 1.389 . S
C5555 H5534 0.950 . S
C5555 C5554 1.373 . S
C5555 C5571 1.377 . S
C5556 C5554 1.389 . S
C5556 C5557 1.524 . S
C5556 C5570 1.377 . S
C5557 C5556 1.524 . S
C5557 C5558 1.397 . S
C5557 C5562 1.363 . S
C5558 H5535 0.950 . S
C5558 C5557 1.397 . S
C5558 C5559 1.334 . S
C5559 H5536 0.950 . S
C5559 C5558 1.334 . S
C5559 C5560 1.287 . S
C5560 C5559 1.287 . S
C5560 C5561 1.524 . S
C5560 H5579 0.913 . S
C5561 H5537 0.950 . S
C5561 C5560 1.524 . S
C5561 C5562 1.415 . S
C5562 H5538 0.950 . S
C5562 C5557 1.363 . S
C5562 C5561 1.415 . S
C5563 H5539 0.951 . S
C5563 C5564 1.366 . S
C5563 C5565 1.388 . S
C5564 C5563 1.366 . S
C5564 C5568 1.385 . S
C5565 H5540 0.951 . S
C5565 C5563 1.388 . S
C5565 C5566 1.366 . S
C5566 C5565 1.366 . S
C5566 C5567 1.414 . S
C5566 C5569 1.499 . S
C5567 H5541 0.950 . S
C5567 C5566 1.414 . S
C5567 C5568 1.374 . S
C5568 H5542 0.950 . S
C5568 C5564 1.385 . S
C5568 C5567 1.374 . S
C5569 C5566 1.499 . S
C5569 C5570 1.373 . S
C5569 C5571 1.389 . S
C5570 H5543 0.950 . S
C5570 C5556 1.377 . S
C5570 C5569 1.373 . S
C5571 C5555 1.377 . S
C5571 C5569 1.389 . S
C5571 C5572 1.524 . S
C5572 C5571 1.524 . S
C5572 C5573 1.397 . S
C5572 C5577 1.363 . S
C5573 H5544 0.950 . S
C5573 C5572 1.397 . S
C5573 C5574 1.334 . S
C5574 H5545 0.950 . S
C5574 C5573 1.334 . S
C5574 C5575 1.287 . S
C5575 C5574 1.287 . S
C5575 C5576 1.524 . S
C5575 H5578 0.999 . S
C5576 H5546 0.950 . S
C5576 C5575 1.524 . S
C5576 C5577 1.415 . S
C5577 H5547 0.950 . S
C5577 C5572 1.363 . S
C5577 C5576 1.415 . S
H5578 C5575 0.999 . S
H5579 C5560 0.913 . S
H5580 C5598 0.951 . S
H5581 C5600 0.951 . S
H5582 C5602 0.950 . S
H5583 C5603 0.950 . S
H5584 C5605 0.950 . S
H5585 C5608 0.950 . S
H5586 C5609 0.950 . S
H5587 C5611 0.950 . S
H5588 C5612 0.950 . S
H5589 C5613 0.951 . S
H5590 C5615 0.951 . S
H5591 C5617 0.950 . S
H5592 C5618 0.950 . S
H5593 C5620 0.950 . S
H5594 C5623 0.950 . S
H5595 C5624 0.950 . S
H5596 C5626 0.950 . S
H5597 C5627 0.950 . S
C5598 H5580 0.951 . S
C5598 C5599 1.366 . S
C5598 C5600 1.388 . S
C5599 C5598 1.366 . S
C5599 C5603 1.385 . S
C5600 H5581 0.951 . S
C5600 C5598 1.388 . S
C5600 C5601 1.366 . S
C5601 C5600 1.366 . S
C5601 C5602 1.414 . S
C5601 C5604 1.499 . S
C5602 H5582 0.950 . S
C5602 C5601 1.414 . S
C5602 C5603 1.374 . S
C5603 H5583 0.950 . S
C5603 C5599 1.385 . S
C5603 C5602 1.374 . S
C5604 C5601 1.499 . S
C5604 C5605 1.373 . S
C5604 C5606 1.389 . S
C5605 H5584 0.950 . S
C5605 C5604 1.373 . S
C5605 C5621 1.377 . S
C5606 C5604 1.389 . S
C5606 C5607 1.524 . S
C5606 C5620 1.377 . S
C5607 C5606 1.524 . S
C5607 C5608 1.397 . S
C5607 C5612 1.363 . S
C5608 H5585 0.950 . S
C5608 C5607 1.397 . S
C5608 C5609 1.334 . S
C5609 H5586 0.950 . S
C5609 C5608 1.334 . S
C5609 C5610 1.287 . S
C5610 C5609 1.287 . S
C5610 C5611 1.524 . S
C5610 H5629 0.913 . S
C5611 H5587 0.950 . S
C5611 C5610 1.524 . S
C5611 C5612 1.415 . S
C5612 H5588 0.950 . S
C5612 C5607 1.363 . S
C5612 C5611 1.415 . S
C5613 H5589 0.951 . S
C5613 C5614 1.366 . S
C5613 C5615 1.388 . S
C5614 C5613 1.366 . S
C5614 C5618 1.385 . S
C5615 H5590 0.951 . S
C5615 C5613 1.388 . S
C5615 C5616 1.366 . S
C5616 C5615 1.366 . S
C5616 C5617 1.414 . S
C5616 C5619 1.499 . S
C5617 H5591 0.950 . S
C5617 C5616 1.414 . S
C5617 C5618 1.374 . S
C5618 H5592 0.950 . S
C5618 C5614 1.385 . S
C5618 C5617 1.374 . S
C5619 C5616 1.499 . S
C5619 C5620 1.373 . S
C5619 C5621 1.389 . S
C5620 H5593 0.950 . S
C5620 C5606 1.377 . S
C5620 C5619 1.373 . S
C5621 C5605 1.377 . S
C5621 C5619 1.389 . S
C5621 C5622 1.524 . S
C5622 C5621 1.524 . S
C5622 C5623 1.397 . S
C5622 C5627 1.363 . S
C5623 H5594 0.950 . S
C5623 C5622 1.397 . S
C5623 C5624 1.334 . S
C5624 H5595 0.950 . S
C5624 C5623 1.334 . S
C5624 C5625 1.287 . S
C5625 C5624 1.287 . S
C5625 C5626 1.524 . S
C5625 H5628 0.999 . S
C5626 H5596 0.950 . S
C5626 C5625 1.524 . S
C5626 C5627 1.415 . S
C5627 H5597 0.950 . S
C5627 C5622 1.363 . S
C5627 C5626 1.415 . S
H5628 C5625 0.999 . S
H5629 C5610 0.913 . S
H5630 C5648 0.951 . S
H5631 C5650 0.951 . S
H5632 C5652 0.950 . S
H5633 C5653 0.950 . S
H5634 C5655 0.950 . S
H5635 C5658 0.950 . S
H5636 C5659 0.950 . S
H5637 C5661 0.950 . S
H5638 C5662 0.950 . S
H5639 C5663 0.951 . S
H5640 C5665 0.951 . S
H5641 C5667 0.950 . S
H5642 C5668 0.950 . S
H5643 C5670 0.950 . S
H5644 C5673 0.950 . S
H5645 C5674 0.950 . S
H5646 C5676 0.950 . S
H5647 C5677 0.950 . S
C5648 H5630 0.951 . S
C5648 C5649 1.366 . S
C5648 C5650 1.388 . S
C5649 C5648 1.366 . S
C5649 C5653 1.385 . S
C5650 H5631 0.951 . S
C5650 C5648 1.388 . S
C5650 C5651 1.366 . S
C5651 C5650 1.366 . S
C5651 C5652 1.414 . S
C5651 C5654 1.499 . S
C5652 H5632 0.950 . S
C5652 C5651 1.414 . S
C5652 C5653 1.374 . S
C5653 H5633 0.950 . S
C5653 C5649 1.385 . S
C5653 C5652 1.374 . S
C5654 C5651 1.499 . S
C5654 C5655 1.373 . S
C5654 C5656 1.389 . S
C5655 H5634 0.950 . S
C5655 C5654 1.373 . S
C5655 C5671 1.377 . S
C5656 C5654 1.389 . S
C5656 C5657 1.524 . S
C5656 C5670 1.377 . S
C5657 C5656 1.524 . S
C5657 C5658 1.397 . S
C5657 C5662 1.363 . S
C5658 H5635 0.950 . S
C5658 C5657 1.397 . S
C5658 C5659 1.334 . S
C5659 H5636 0.950 . S
C5659 C5658 1.334 . S
C5659 C5660 1.287 . S
C5660 C5659 1.287 . S
C5660 C5661 1.524 . S
C5660 H5679 0.913 . S
C5661 H5637 0.950 . S
C5661 C5660 1.524 . S
C5661 C5662 1.415 . S
C5662 H5638 0.950 . S
C5662 C5657 1.363 . S
C5662 C5661 1.415 . S
C5663 H5639 0.951 . S
C5663 C5664 1.366 . S
C5663 C5665 1.388 . S
C5664 C5663 1.366 . S
C5664 C5668 1.385 . S
C5665 H5640 0.951 . S
C5665 C5663 1.388 . S
C5665 C5666 1.366 . S
C5666 C5665 1.366 . S
C5666 C5667 1.414 . S
C5666 C5669 1.499 . S
C5667 H5641 0.950 . S
C5667 C5666 1.414 . S
C5667 C5668 1.374 . S
C5668 H5642 0.950 . S
C5668 C5664 1.385 . S
C5668 C5667 1.374 . S
C5669 C5666 1.499 . S
C5669 C5670 1.373 . S
C5669 C5671 1.389 . S
C5670 H5643 0.950 . S
C5670 C5656 1.377 . S
C5670 C5669 1.373 . S
C5671 C5655 1.377 . S
C5671 C5669 1.389 . S
C5671 C5672 1.524 . S
C5672 C5671 1.524 . S
C5672 C5673 1.397 . S
C5672 C5677 1.363 . S
C5673 H5644 0.950 . S
C5673 C5672 1.397 . S
C5673 C5674 1.334 . S
C5674 H5645 0.950 . S
C5674 C5673 1.334 . S
C5674 C5675 1.287 . S
C5675 C5674 1.287 . S
C5675 C5676 1.524 . S
C5675 H5678 0.999 . S
C5676 H5646 0.950 . S
C5676 C5675 1.524 . S
C5676 C5677 1.415 . S
C5677 H5647 0.950 . S
C5677 C5672 1.363 . S
C5677 C5676 1.415 . S
H5678 C5675 0.999 . S
H5679 C5660 0.913 . S
H5680 C5698 0.951 . S
H5681 C5700 0.951 . S
H5682 C5702 0.950 . S
H5683 C5703 0.950 . S
H5684 C5705 0.950 . S
H5685 C5708 0.950 . S
H5686 C5709 0.950 . S
H5687 C5711 0.950 . S
H5688 C5712 0.950 . S
H5689 C5713 0.951 . S
H5690 C5715 0.951 . S
H5691 C5717 0.950 . S
H5692 C5718 0.950 . S
H5693 C5720 0.950 . S
H5694 C5723 0.950 . S
H5695 C5724 0.950 . S
H5696 C5726 0.950 . S
H5697 C5727 0.950 . S
C5698 H5680 0.951 . S
C5698 C5699 1.366 . S
C5698 C5700 1.388 . S
C5699 C5698 1.366 . S
C5699 C5703 1.385 . S
C5700 H5681 0.951 . S
C5700 C5698 1.388 . S
C5700 C5701 1.366 . S
C5701 C5700 1.366 . S
C5701 C5702 1.414 . S
C5701 C5704 1.499 . S
C5702 H5682 0.950 . S
C5702 C5701 1.414 . S
C5702 C5703 1.374 . S
C5703 H5683 0.950 . S
C5703 C5699 1.385 . S
C5703 C5702 1.374 . S
C5704 C5701 1.499 . S
C5704 C5705 1.373 . S
C5704 C5706 1.389 . S
C5705 H5684 0.950 . S
C5705 C5704 1.373 . S
C5705 C5721 1.377 . S
C5706 C5704 1.389 . S
C5706 C5707 1.524 . S
C5706 C5720 1.377 . S
C5707 C5706 1.524 . S
C5707 C5708 1.397 . S
C5707 C5712 1.363 . S
C5708 H5685 0.950 . S
C5708 C5707 1.397 . S
C5708 C5709 1.334 . S
C5709 H5686 0.950 . S
C5709 C5708 1.334 . S
C5709 C5710 1.287 . S
C5710 C5709 1.287 . S
C5710 C5711 1.524 . S
C5710 H5729 0.913 . S
C5711 H5687 0.950 . S
C5711 C5710 1.524 . S
C5711 C5712 1.415 . S
C5712 H5688 0.950 . S
C5712 C5707 1.363 . S
C5712 C5711 1.415 . S
C5713 H5689 0.951 . S
C5713 C5714 1.366 . S
C5713 C5715 1.388 . S
C5714 C5713 1.366 . S
C5714 C5718 1.385 . S
C5715 H5690 0.951 . S
C5715 C5713 1.388 . S
C5715 C5716 1.366 . S
C5716 C5715 1.366 . S
C5716 C5717 1.414 . S
C5716 C5719 1.499 . S
C5717 H5691 0.950 . S
C5717 C5716 1.414 . S
C5717 C5718 1.374 . S
C5718 H5692 0.950 . S
C5718 C5714 1.385 . S
C5718 C5717 1.374 . S
C5719 C5716 1.499 . S
C5719 C5720 1.373 . S
C5719 C5721 1.389 . S
C5720 H5693 0.950 . S
C5720 C5706 1.377 . S
C5720 C5719 1.373 . S
C5721 C5705 1.377 . S
C5721 C5719 1.389 . S
C5721 C5722 1.524 . S
C5722 C5721 1.524 . S
C5722 C5723 1.397 . S
C5722 C5727 1.363 . S
C5723 H5694 0.950 . S
C5723 C5722 1.397 . S
C5723 C5724 1.334 . S
C5724 H5695 0.950 . S
C5724 C5723 1.334 . S
C5724 C5725 1.287 . S
C5725 C5724 1.287 . S
C5725 C5726 1.524 . S
C5725 H5728 0.999 . S
C5726 H5696 0.950 . S
C5726 C5725 1.524 . S
C5726 C5727 1.415 . S
C5727 H5697 0.950 . S
C5727 C5722 1.363 . S
C5727 C5726 1.415 . S
H5728 C5725 0.999 . S
H5729 C5710 0.913 . S
H5730 C5748 0.951 . S
H5731 C5750 0.951 . S
H5732 C5752 0.950 . S
H5733 C5753 0.950 . S
H5734 C5755 0.950 . S
H5735 C5758 0.950 . S
H5736 C5759 0.950 . S
H5737 C5761 0.950 . S
H5738 C5762 0.950 . S
H5739 C5763 0.951 . S
H5740 C5765 0.951 . S
H5741 C5767 0.950 . S
H5742 C5768 0.950 . S
H5743 C5770 0.950 . S
H5744 C5773 0.950 . S
H5745 C5774 0.950 . S
H5746 C5776 0.950 . S
H5747 C5777 0.950 . S
C5748 H5730 0.951 . S
C5748 C5749 1.366 . S
C5748 C5750 1.388 . S
C5749 C5748 1.366 . S
C5749 C5753 1.385 . S
C5750 H5731 0.951 . S
C5750 C5748 1.388 . S
C5750 C5751 1.366 . S
C5751 C5750 1.366 . S
C5751 C5752 1.414 . S
C5751 C5754 1.499 . S
C5752 H5732 0.950 . S
C5752 C5751 1.414 . S
C5752 C5753 1.374 . S
C5753 H5733 0.950 . S
C5753 C5749 1.385 . S
C5753 C5752 1.374 . S
C5754 C5751 1.499 . S
C5754 C5755 1.373 . S
C5754 C5756 1.389 . S
C5755 H5734 0.950 . S
C5755 C5754 1.373 . S
C5755 C5771 1.377 . S
C5756 C5754 1.389 . S
C5756 C5757 1.524 . S
C5756 C5770 1.377 . S
C5757 C5756 1.524 . S
C5757 C5758 1.397 . S
C5757 C5762 1.363 . S
C5758 H5735 0.950 . S
C5758 C5757 1.397 . S
C5758 C5759 1.334 . S
C5759 H5736 0.950 . S
C5759 C5758 1.334 . S
C5759 C5760 1.287 . S
C5760 C5759 1.287 . S
C5760 C5761 1.524 . S
C5760 H5779 0.913 . S
C5761 H5737 0.950 . S
C5761 C5760 1.524 . S
C5761 C5762 1.415 . S
C5762 H5738 0.950 . S
C5762 C5757 1.363 . S
C5762 C5761 1.415 . S
C5763 H5739 0.951 . S
C5763 C5764 1.366 . S
C5763 C5765 1.388 . S
C5764 C5763 1.366 . S
C5764 C5768 1.385 . S
C5765 H5740 0.951 . S
C5765 C5763 1.388 . S
C5765 C5766 1.366 . S
C5766 C5765 1.366 . S
C5766 C5767 1.414 . S
C5766 C5769 1.499 . S
C5767 H5741 0.950 . S
C5767 C5766 1.414 . S
C5767 C5768 1.374 . S
C5768 H5742 0.950 . S
C5768 C5764 1.385 . S
C5768 C5767 1.374 . S
C5769 C5766 1.499 . S
C5769 C5770 1.373 . S
C5769 C5771 1.389 . S
C5770 H5743 0.950 . S
C5770 C5756 1.377 . S
C5770 C5769 1.373 . S
C5771 C5755 1.377 . S
C5771 C5769 1.389 . S
C5771 C5772 1.524 . S
C5772 C5771 1.524 . S
C5772 C5773 1.397 . S
C5772 C5777 1.363 . S
C5773 H5744 0.950 . S
C5773 C5772 1.397 . S
C5773 C5774 1.334 . S
C5774 H5745 0.950 . S
C5774 C5773 1.334 . S
C5774 C5775 1.287 . S
C5775 C5774 1.287 . S
C5775 C5776 1.524 . S
C5775 H5778 0.999 . S
C5776 H5746 0.950 . S
C5776 C5775 1.524 . S
C5776 C5777 1.415 . S
C5777 H5747 0.950 . S
C5777 C5772 1.363 . S
C5777 C5776 1.415 . S
H5778 C5775 0.999 . S
H5779 C5760 0.913 . S
H5780 C5798 0.951 . S
H5781 C5800 0.951 . S
H5782 C5802 0.950 . S
H5783 C5803 0.950 . S
H5784 C5805 0.950 . S
H5785 C5808 0.950 . S
H5786 C5809 0.950 . S
H5787 C5811 0.950 . S
H5788 C5812 0.950 . S
H5789 C5813 0.951 . S
H5790 C5815 0.951 . S
H5791 C5817 0.949 1_655 S
H5792 C5818 0.950 . S
H5793 C5820 0.950 . S
H5794 C5823 0.950 . S
H5795 C5824 0.950 . S
H5796 C5826 0.950 . S
H5797 C5827 0.950 . S
C5798 H5780 0.951 . S
C5798 C5799 1.366 . S
C5798 C5800 1.388 . S
C5799 C5798 1.366 . S
C5799 C5803 1.385 . S
C5800 H5781 0.951 . S
C5800 C5798 1.388 . S
C5800 C5801 1.366 . S
C5801 C5800 1.366 . S
C5801 C5802 1.414 . S
C5801 C5804 1.499 . S
C5802 H5782 0.950 . S
C5802 C5801 1.414 . S
C5802 C5803 1.374 . S
C5803 H5783 0.950 . S
C5803 C5799 1.385 . S
C5803 C5802 1.374 . S
C5804 C5801 1.499 . S
C5804 C5805 1.373 . S
C5804 C5806 1.389 . S
C5805 H5784 0.950 . S
C5805 C5804 1.373 . S
C5805 C5821 1.377 . S
C5806 C5804 1.389 . S
C5806 C5807 1.524 . S
C5806 C5820 1.377 . S
C5807 C5806 1.524 . S
C5807 C5808 1.397 . S
C5807 C5812 1.363 . S
C5808 H5785 0.950 . S
C5808 C5807 1.397 . S
C5808 C5809 1.334 . S
C5809 H5786 0.950 . S
C5809 C5808 1.334 . S
C5809 C5810 1.287 . S
C5810 C5809 1.287 . S
C5810 C5811 1.524 . S
C5810 H5829 0.913 . S
C5811 H5787 0.950 . S
C5811 C5810 1.524 . S
C5811 C5812 1.415 . S
C5812 H5788 0.950 . S
C5812 C5807 1.363 . S
C5812 C5811 1.415 . S
C5813 H5789 0.951 . S
C5813 C5814 1.366 . S
C5813 C5815 1.388 . S
C5814 C5813 1.366 . S
C5814 C5818 1.385 . S
C5815 H5790 0.951 . S
C5815 C5813 1.388 . S
C5815 C5816 1.366 . S
C5816 C5815 1.366 . S
C5816 C5817 1.414 . S
C5816 C5819 1.499 1_455 S
C5817 H5791 0.949 1_455 S
C5817 C5816 1.414 . S
C5817 C5818 1.374 . S
C5818 H5792 0.950 . S
C5818 C5814 1.385 . S
C5818 C5817 1.374 . S
C5819 C5816 1.499 1_655 S
C5819 C5820 1.373 . S
C5819 C5821 1.389 . S
C5820 H5793 0.950 . S
C5820 C5806 1.377 . S
C5820 C5819 1.373 . S
C5821 C5805 1.377 . S
C5821 C5819 1.389 . S
C5821 C5822 1.524 1_655 S
C5822 C5821 1.524 1_455 S
C5822 C5823 1.397 . S
C5822 C5827 1.363 . S
C5823 H5794 0.950 . S
C5823 C5822 1.397 . S
C5823 C5824 1.334 . S
C5824 H5795 0.950 . S
C5824 C5823 1.334 . S
C5824 C5825 1.287 . S
C5825 C5824 1.287 . S
C5825 C5826 1.524 . S
C5825 H5828 0.999 . S
C5826 H5796 0.950 . S
C5826 C5825 1.524 . S
C5826 C5827 1.415 . S
C5827 H5797 0.950 . S
C5827 C5822 1.363 . S
C5827 C5826 1.415 . S
H5828 C5825 0.999 . S
H5829 C5810 0.913 . S
H5830 C5848 0.951 . S
H5831 C5850 0.951 . S
H5832 C5852 0.950 . S
H5833 C5853 0.950 . S
H5834 C5855 0.950 . S
H5835 C5858 0.950 . S
H5836 C5859 0.950 . S
H5837 C5861 0.950 . S
H5838 C5862 0.950 . S
H5839 C5863 0.951 . S
H5840 C5865 0.951 . S
H5841 C5867 0.950 . S
H5842 C5868 0.950 . S
H5843 C5870 0.950 . S
H5844 C5873 0.950 . S
H5845 C5874 0.950 . S
H5846 C5876 0.950 . S
H5847 C5877 0.950 . S
C5848 H5830 0.951 . S
C5848 C5849 1.366 . S
C5848 C5850 1.388 . S
C5849 C5848 1.366 . S
C5849 C5853 1.385 . S
C5850 H5831 0.951 . S
C5850 C5848 1.388 . S
C5850 C5851 1.366 . S
C5851 C5850 1.366 . S
C5851 C5852 1.414 . S
C5851 C5854 1.499 . S
C5852 H5832 0.950 . S
C5852 C5851 1.414 . S
C5852 C5853 1.374 . S
C5853 H5833 0.950 . S
C5853 C5849 1.385 . S
C5853 C5852 1.374 . S
C5854 C5851 1.499 . S
C5854 C5855 1.373 . S
C5854 C5856 1.389 . S
C5855 H5834 0.950 . S
C5855 C5854 1.373 . S
C5855 C5871 1.377 . S
C5856 C5854 1.389 . S
C5856 C5857 1.524 . S
C5856 C5870 1.377 . S
C5857 C5856 1.524 . S
C5857 C5858 1.397 . S
C5857 C5862 1.363 . S
C5858 H5835 0.950 . S
C5858 C5857 1.397 . S
C5858 C5859 1.334 . S
C5859 H5836 0.950 . S
C5859 C5858 1.334 . S
C5859 C5860 1.287 . S
C5860 C5859 1.287 . S
C5860 C5861 1.524 . S
C5860 H5879 0.913 . S
C5861 H5837 0.950 . S
C5861 C5860 1.524 . S
C5861 C5862 1.415 . S
C5862 H5838 0.950 . S
C5862 C5857 1.363 . S
C5862 C5861 1.415 . S
C5863 H5839 0.951 . S
C5863 C5864 1.366 . S
C5863 C5865 1.388 . S
C5864 C5863 1.366 . S
C5864 C5868 1.385 . S
C5865 H5840 0.951 . S
C5865 C5863 1.388 . S
C5865 C5866 1.366 . S
C5866 C5865 1.366 . S
C5866 C5867 1.414 . S
C5866 C5869 1.499 . S
C5867 H5841 0.950 . S
C5867 C5866 1.414 . S
C5867 C5868 1.374 . S
C5868 H5842 0.950 . S
C5868 C5864 1.385 . S
C5868 C5867 1.374 . S
C5869 C5866 1.499 . S
C5869 C5870 1.373 . S
C5869 C5871 1.389 . S
C5870 H5843 0.950 . S
C5870 C5856 1.377 . S
C5870 C5869 1.373 . S
C5871 C5855 1.377 . S
C5871 C5869 1.389 . S
C5871 C5872 1.524 . S
C5872 C5871 1.524 . S
C5872 C5873 1.397 . S
C5872 C5877 1.363 . S
C5873 H5844 0.950 . S
C5873 C5872 1.397 . S
C5873 C5874 1.334 . S
C5874 H5845 0.950 . S
C5874 C5873 1.334 . S
C5874 C5875 1.287 . S
C5875 C5874 1.287 . S
C5875 C5876 1.524 . S
C5875 H5878 0.999 . S
C5876 H5846 0.950 . S
C5876 C5875 1.524 . S
C5876 C5877 1.415 . S
C5877 H5847 0.950 . S
C5877 C5872 1.363 . S
C5877 C5876 1.415 . S
H5878 C5875 0.999 . S
H5879 C5860 0.913 . S
H5880 C5898 0.951 . S
H5881 C5900 0.951 . S
H5882 C5902 0.950 . S
H5883 C5903 0.950 . S
H5884 C5905 0.950 . S
H5885 C5908 0.950 . S
H5886 C5909 0.950 . S
H5887 C5911 0.950 . S
H5888 C5912 0.950 . S
H5889 C5913 0.951 . S
H5890 C5915 0.951 . S
H5891 C5917 0.950 . S
H5892 C5918 0.950 . S
H5893 C5920 0.950 . S
H5894 C5923 0.950 . S
H5895 C5924 0.950 . S
H5896 C5926 0.950 . S
H5897 C5927 0.950 . S
C5898 H5880 0.951 . S
C5898 C5899 1.366 . S
C5898 C5900 1.388 . S
C5899 C5898 1.366 . S
C5899 C5903 1.385 . S
C5900 H5881 0.951 . S
C5900 C5898 1.388 . S
C5900 C5901 1.366 . S
C5901 C5900 1.366 . S
C5901 C5902 1.414 . S
C5901 C5904 1.499 . S
C5902 H5882 0.950 . S
C5902 C5901 1.414 . S
C5902 C5903 1.374 . S
C5903 H5883 0.950 . S
C5903 C5899 1.385 . S
C5903 C5902 1.374 . S
C5904 C5901 1.499 . S
C5904 C5905 1.373 . S
C5904 C5906 1.389 . S
C5905 H5884 0.950 . S
C5905 C5904 1.373 . S
C5905 C5921 1.377 . S
C5906 C5904 1.389 . S
C5906 C5907 1.524 . S
C5906 C5920 1.377 . S
C5907 C5906 1.524 . S
C5907 C5908 1.397 . S
C5907 C5912 1.363 . S
C5908 H5885 0.950 . S
C5908 C5907 1.397 . S
C5908 C5909 1.334 . S
C5909 H5886 0.950 . S
C5909 C5908 1.334 . S
C5909 C5910 1.287 . S
C5910 C5909 1.287 . S
C5910 C5911 1.524 . S
C5910 H5929 0.913 . S
C5911 H5887 0.950 . S
C5911 C5910 1.524 . S
C5911 C5912 1.415 . S
C5912 H5888 0.950 . S
C5912 C5907 1.363 . S
C5912 C5911 1.415 . S
C5913 H5889 0.951 . S
C5913 C5914 1.366 . S
C5913 C5915 1.388 . S
C5914 C5913 1.366 . S
C5914 C5918 1.385 . S
C5915 H5890 0.951 . S
C5915 C5913 1.388 . S
C5915 C5916 1.366 . S
C5916 C5915 1.366 . S
C5916 C5917 1.414 . S
C5916 C5919 1.499 . S
C5917 H5891 0.950 . S
C5917 C5916 1.414 . S
C5917 C5918 1.374 . S
C5918 H5892 0.950 . S
C5918 C5914 1.385 . S
C5918 C5917 1.374 . S
C5919 C5916 1.499 . S
C5919 C5920 1.373 . S
C5919 C5921 1.389 . S
C5920 H5893 0.950 . S
C5920 C5906 1.377 . S
C5920 C5919 1.373 . S
C5921 C5905 1.377 . S
C5921 C5919 1.389 . S
C5921 C5922 1.524 . S
C5922 C5921 1.524 . S
C5922 C5923 1.397 . S
C5922 C5927 1.363 . S
C5923 H5894 0.950 . S
C5923 C5922 1.397 . S
C5923 C5924 1.334 . S
C5924 H5895 0.950 . S
C5924 C5923 1.334 . S
C5924 C5925 1.287 . S
C5925 C5924 1.287 . S
C5925 C5926 1.524 . S
C5925 H5928 0.999 . S
C5926 H5896 0.950 . S
C5926 C5925 1.524 . S
C5926 C5927 1.415 . S
C5927 H5897 0.950 . S
C5927 C5922 1.363 . S
C5927 C5926 1.415 . S
H5928 C5925 0.999 . S
H5929 C5910 0.913 . S
H5930 C5948 0.951 . S
H5931 C5950 0.951 . S
H5932 C5952 0.950 . S
H5933 C5953 0.950 . S
H5934 C5955 0.950 . S
H5935 C5958 0.950 . S
H5936 C5959 0.950 . S
H5937 C5961 0.950 . S
H5938 C5962 0.950 . S
H5939 C5963 0.951 . S
H5940 C5965 0.951 . S
H5941 C5967 0.950 . S
H5942 C5968 0.950 . S
H5943 C5970 0.950 . S
H5944 C5973 0.950 . S
H5945 C5974 0.950 . S
H5946 C5976 0.950 . S
H5947 C5977 0.950 . S
C5948 H5930 0.951 . S
C5948 C5949 1.366 . S
C5948 C5950 1.388 . S
C5949 C5948 1.366 . S
C5949 C5953 1.385 . S
C5950 H5931 0.951 . S
C5950 C5948 1.388 . S
C5950 C5951 1.366 . S
C5951 C5950 1.366 . S
C5951 C5952 1.414 . S
C5951 C5954 1.499 . S
C5952 H5932 0.950 . S
C5952 C5951 1.414 . S
C5952 C5953 1.374 . S
C5953 H5933 0.950 . S
C5953 C5949 1.385 . S
C5953 C5952 1.374 . S
C5954 C5951 1.499 . S
C5954 C5955 1.373 . S
C5954 C5956 1.389 . S
C5955 H5934 0.950 . S
C5955 C5954 1.373 . S
C5955 C5971 1.377 . S
C5956 C5954 1.389 . S
C5956 C5957 1.524 . S
C5956 C5970 1.377 . S
C5957 C5956 1.524 . S
C5957 C5958 1.397 . S
C5957 C5962 1.363 . S
C5958 H5935 0.950 . S
C5958 C5957 1.397 . S
C5958 C5959 1.334 . S
C5959 H5936 0.950 . S
C5959 C5958 1.334 . S
C5959 C5960 1.287 . S
C5960 C5959 1.287 . S
C5960 C5961 1.524 . S
C5960 H5979 0.913 . S
C5961 H5937 0.950 . S
C5961 C5960 1.524 . S
C5961 C5962 1.415 . S
C5962 H5938 0.950 . S
C5962 C5957 1.363 . S
C5962 C5961 1.415 . S
C5963 H5939 0.951 . S
C5963 C5964 1.366 . S
C5963 C5965 1.388 . S
C5964 C5963 1.366 . S
C5964 C5968 1.385 . S
C5965 H5940 0.951 . S
C5965 C5963 1.388 . S
C5965 C5966 1.366 . S
C5966 C5965 1.366 . S
C5966 C5967 1.414 . S
C5966 C5969 1.499 . S
C5967 H5941 0.950 . S
C5967 C5966 1.414 . S
C5967 C5968 1.374 . S
C5968 H5942 0.950 . S
C5968 C5964 1.385 . S
C5968 C5967 1.374 . S
C5969 C5966 1.499 . S
C5969 C5970 1.373 . S
C5969 C5971 1.389 . S
C5970 H5943 0.950 . S
C5970 C5956 1.377 . S
C5970 C5969 1.373 . S
C5971 C5955 1.377 . S
C5971 C5969 1.389 . S
C5971 C5972 1.524 . S
C5972 C5971 1.524 . S
C5972 C5973 1.397 . S
C5972 C5977 1.363 . S
C5973 H5944 0.950 . S
C5973 C5972 1.397 . S
C5973 C5974 1.334 . S
C5974 H5945 0.950 . S
C5974 C5973 1.334 . S
C5974 C5975 1.287 . S
C5975 C5974 1.287 . S
C5975 C5976 1.524 . S
C5975 H5978 0.999 . S
C5976 H5946 0.950 . S
C5976 C5975 1.524 . S
C5976 C5977 1.415 . S
C5977 H5947 0.950 . S
C5977 C5972 1.363 . S
C5977 C5976 1.415 . S
H5978 C5975 0.999 . S
H5979 C5960 0.913 . S
H5980 C5998 0.951 . S
H5981 C6000 0.951 . S
H5982 C6002 0.950 . S
H5983 C6003 0.950 . S
H5984 C6005 0.950 . S
H5985 C6008 0.950 . S
H5986 C6009 0.950 . S
H5987 C6011 0.950 . S
H5988 C6012 0.950 . S
H5989 C6013 0.951 . S
H5990 C6015 0.951 . S
H5991 C6017 0.950 . S
H5992 C6018 0.950 . S
H5993 C6020 0.950 . S
H5994 C6023 0.950 1_655 S
H5995 C6024 0.950 . S
H5996 C6026 0.950 . S
H5997 C6027 0.950 . S
C5998 H5980 0.951 . S
C5998 C5999 1.366 . S
C5998 C6000 1.388 . S
C5999 C5998 1.366 . S
C5999 C6003 1.385 . S
C6000 H5981 0.951 . S
C6000 C5998 1.388 . S
C6000 C6001 1.366 . S
C6001 C6000 1.366 . S
C6001 C6002 1.414 . S
C6001 C6004 1.499 . S
C6002 H5982 0.950 . S
C6002 C6001 1.414 . S
C6002 C6003 1.374 . S
C6003 H5983 0.950 . S
C6003 C5999 1.385 . S
C6003 C6002 1.374 . S
C6004 C6001 1.499 . S
C6004 C6005 1.373 . S
C6004 C6006 1.389 . S
C6005 H5984 0.950 . S
C6005 C6004 1.373 . S
C6005 C6021 1.377 . S
C6006 C6004 1.389 . S
C6006 C6007 1.524 . S
C6006 C6020 1.377 . S
C6007 C6006 1.524 . S
C6007 C6008 1.397 . S
C6007 C6012 1.363 . S
C6008 H5985 0.950 . S
C6008 C6007 1.397 . S
C6008 C6009 1.334 . S
C6009 H5986 0.950 . S
C6009 C6008 1.334 . S
C6009 C6010 1.287 . S
C6010 C6009 1.287 . S
C6010 C6011 1.524 . S
C6010 H6029 0.913 . S
C6011 H5987 0.950 . S
C6011 C6010 1.524 . S
C6011 C6012 1.415 . S
C6012 H5988 0.950 . S
C6012 C6007 1.363 . S
C6012 C6011 1.415 . S
C6013 H5989 0.951 . S
C6013 C6014 1.366 . S
C6013 C6015 1.388 . S
C6014 C6013 1.366 . S
C6014 C6018 1.385 1_455 S
C6015 H5990 0.951 . S
C6015 C6013 1.388 . S
C6015 C6016 1.366 1_455 S
C6016 C6015 1.366 1_655 S
C6016 C6017 1.414 . S
C6016 C6019 1.499 . S
C6017 H5991 0.950 . S
C6017 C6016 1.414 . S
C6017 C6018 1.374 . S
C6018 H5992 0.950 . S
C6018 C6014 1.385 1_655 S
C6018 C6017 1.374 . S
C6019 C6016 1.499 . S
C6019 C6020 1.373 . S
C6019 C6021 1.389 . S
C6020 H5993 0.950 . S
C6020 C6006 1.377 . S
C6020 C6019 1.373 . S
C6021 C6005 1.377 . S
C6021 C6019 1.389 . S
C6021 C6022 1.503 1_655 S
C6022 C6021 1.503 1_455 S
C6022 C6023 1.396 . S
C6022 C6027 1.383 . S
C6023 H5994 0.950 1_455 S
C6023 C6022 1.396 . S
C6023 C6024 1.334 . S
C6024 H5995 0.950 . S
C6024 C6023 1.334 . S
C6024 C6025 1.287 . S
C6025 C6024 1.287 . S
C6025 C6026 1.524 . S
C6025 H6028 0.999 . S
C6026 H5996 0.950 . S
C6026 C6025 1.524 . S
C6026 C6027 1.415 . S
C6027 H5997 0.950 . S
C6027 C6022 1.383 . S
C6027 C6026 1.415 . S
H6028 C6025 0.999 . S
H6029 C6010 0.913 . S
H6030 C6048 0.951 . S
H6031 C6050 0.951 . S
H6032 C6052 0.950 . S
H6033 C6053 0.950 . S
H6034 C6055 0.950 . S
H6035 C6058 0.950 . S
H6036 C6059 0.950 . S
H6037 C6061 0.950 . S
H6038 C6062 0.950 . S
H6039 C6063 0.951 . S
H6040 C6065 0.951 . S
H6041 C6067 0.950 . S
H6042 C6068 0.950 . S
H6043 C6070 0.950 . S
H6044 C6073 0.950 . S
H6045 C6074 0.950 . S
H6046 C6076 0.950 . S
H6047 C6077 0.950 . S
C6048 H6030 0.951 . S
C6048 C6049 1.366 . S
C6048 C6050 1.388 . S
C6049 C6048 1.366 . S
C6049 C6053 1.385 . S
C6050 H6031 0.951 . S
C6050 C6048 1.388 . S
C6050 C6051 1.366 . S
C6051 C6050 1.366 . S
C6051 C6052 1.414 . S
C6051 C6054 1.499 . S
C6052 H6032 0.950 . S
C6052 C6051 1.414 . S
C6052 C6053 1.374 . S
C6053 H6033 0.950 . S
C6053 C6049 1.385 . S
C6053 C6052 1.374 . S
C6054 C6051 1.499 . S
C6054 C6055 1.373 . S
C6054 C6056 1.389 . S
C6055 H6034 0.950 . S
C6055 C6054 1.373 . S
C6055 C6071 1.377 . S
C6056 C6054 1.389 . S
C6056 C6057 1.524 . S
C6056 C6070 1.377 . S
C6057 C6056 1.524 . S
C6057 C6058 1.397 . S
C6057 C6062 1.363 . S
C6058 H6035 0.950 . S
C6058 C6057 1.397 . S
C6058 C6059 1.334 . S
C6059 H6036 0.950 . S
C6059 C6058 1.334 . S
C6059 C6060 1.287 . S
C6060 C6059 1.287 . S
C6060 C6061 1.524 . S
C6060 H6079 0.913 . S
C6061 H6037 0.950 . S
C6061 C6060 1.524 . S
C6061 C6062 1.415 . S
C6062 H6038 0.950 . S
C6062 C6057 1.363 . S
C6062 C6061 1.415 . S
C6063 H6039 0.951 . S
C6063 C6064 1.366 . S
C6063 C6065 1.388 . S
C6064 C6063 1.366 . S
C6064 C6068 1.385 . S
C6065 H6040 0.951 . S
C6065 C6063 1.388 . S
C6065 C6066 1.366 . S
C6066 C6065 1.366 . S
C6066 C6067 1.414 . S
C6066 C6069 1.499 . S
C6067 H6041 0.950 . S
C6067 C6066 1.414 . S
C6067 C6068 1.374 . S
C6068 H6042 0.950 . S
C6068 C6064 1.385 . S
C6068 C6067 1.374 . S
C6069 C6066 1.499 . S
C6069 C6070 1.373 . S
C6069 C6071 1.389 . S
C6070 H6043 0.950 . S
C6070 C6056 1.377 . S
C6070 C6069 1.373 . S
C6071 C6055 1.377 . S
C6071 C6069 1.389 . S
C6071 C6072 1.524 . S
C6072 C6071 1.524 . S
C6072 C6073 1.397 . S
C6072 C6077 1.363 . S
C6073 H6044 0.950 . S
C6073 C6072 1.397 . S
C6073 C6074 1.334 . S
C6074 H6045 0.950 . S
C6074 C6073 1.334 . S
C6074 C6075 1.287 . S
C6075 C6074 1.287 . S
C6075 C6076 1.524 . S
C6075 H6078 0.999 . S
C6076 H6046 0.950 . S
C6076 C6075 1.524 . S
C6076 C6077 1.415 . S
C6077 H6047 0.950 . S
C6077 C6072 1.363 . S
C6077 C6076 1.415 . S
H6078 C6075 0.999 . S
H6079 C6060 0.913 . S
H6080 C6098 0.951 . S
H6081 C6100 0.951 . S
H6082 C6102 0.950 . S
H6083 C6103 0.950 . S
H6084 C6105 0.950 . S
H6085 C6108 0.950 . S
H6086 C6109 0.950 . S
H6087 C6111 0.950 . S
H6088 C6112 0.950 . S
H6089 C6113 0.951 . S
H6090 C6115 0.951 . S
H6091 C6117 0.950 . S
H6092 C6118 0.950 . S
H6093 C6120 0.950 . S
H6094 C6123 0.950 . S
H6095 C6124 0.950 . S
H6096 C6126 0.950 . S
H6097 C6127 0.950 . S
C6098 H6080 0.951 . S
C6098 C6099 1.366 . S
C6098 C6100 1.388 . S
C6099 C6098 1.366 . S
C6099 C6103 1.385 . S
C6100 H6081 0.951 . S
C6100 C6098 1.388 . S
C6100 C6101 1.366 . S
C6101 C6100 1.366 . S
C6101 C6102 1.414 . S
C6101 C6104 1.499 . S
C6102 H6082 0.950 . S
C6102 C6101 1.414 . S
C6102 C6103 1.374 . S
C6103 H6083 0.950 . S
C6103 C6099 1.385 . S
C6103 C6102 1.374 . S
C6104 C6101 1.499 . S
C6104 C6105 1.373 . S
C6104 C6106 1.389 . S
C6105 H6084 0.950 . S
C6105 C6104 1.373 . S
C6105 C6121 1.377 . S
C6106 C6104 1.389 . S
C6106 C6107 1.524 . S
C6106 C6120 1.377 . S
C6107 C6106 1.524 . S
C6107 C6108 1.397 . S
C6107 C6112 1.363 . S
C6108 H6085 0.950 . S
C6108 C6107 1.397 . S
C6108 C6109 1.334 . S
C6109 H6086 0.950 . S
C6109 C6108 1.334 . S
C6109 C6110 1.287 . S
C6110 C6109 1.287 . S
C6110 C6111 1.524 . S
C6110 H6129 0.913 . S
C6111 H6087 0.950 . S
C6111 C6110 1.524 . S
C6111 C6112 1.415 . S
C6112 H6088 0.950 . S
C6112 C6107 1.363 . S
C6112 C6111 1.415 . S
C6113 H6089 0.951 . S
C6113 C6114 1.366 . S
C6113 C6115 1.388 . S
C6114 C6113 1.366 . S
C6114 C6118 1.385 . S
C6115 H6090 0.951 . S
C6115 C6113 1.388 . S
C6115 C6116 1.366 . S
C6116 C6115 1.366 . S
C6116 C6117 1.414 . S
C6116 C6119 1.499 . S
C6117 H6091 0.950 . S
C6117 C6116 1.414 . S
C6117 C6118 1.374 . S
C6118 H6092 0.950 . S
C6118 C6114 1.385 . S
C6118 C6117 1.374 . S
C6119 C6116 1.499 . S
C6119 C6120 1.373 . S
C6119 C6121 1.389 . S
C6120 H6093 0.950 . S
C6120 C6106 1.377 . S
C6120 C6119 1.373 . S
C6121 C6105 1.377 . S
C6121 C6119 1.389 . S
C6121 C6122 1.524 . S
C6122 C6121 1.524 . S
C6122 C6123 1.397 . S
C6122 C6127 1.363 . S
C6123 H6094 0.950 . S
C6123 C6122 1.397 . S
C6123 C6124 1.334 . S
C6124 H6095 0.950 . S
C6124 C6123 1.334 . S
C6124 C6125 1.287 . S
C6125 C6124 1.287 . S
C6125 C6126 1.524 . S
C6125 H6128 0.999 . S
C6126 H6096 0.950 . S
C6126 C6125 1.524 . S
C6126 C6127 1.415 . S
C6127 H6097 0.950 . S
C6127 C6122 1.363 . S
C6127 C6126 1.415 . S
H6128 C6125 0.999 . S
H6129 C6110 0.913 . S
H6130 C6148 0.951 . S
H6131 C6150 0.951 . S
H6132 C6152 0.950 . S
H6133 C6153 0.950 . S
H6134 C6155 0.950 . S
H6135 C6158 0.950 . S
H6136 C6159 0.950 . S
H6137 C6161 0.950 . S
H6138 C6162 0.950 . S
H6139 C6163 0.951 . S
H6140 C6165 0.951 1_545 S
H6141 C6167 0.950 . S
H6142 C6168 0.950 1_455 S
H6143 C6170 0.950 . S
H6144 C6173 0.950 . S
H6145 C6174 0.950 . S
H6146 C6176 0.911 1_545 S
H6147 C6177 0.950 . S
C6148 H6130 0.951 . S
C6148 C6149 1.366 . S
C6148 C6150 1.388 . S
C6149 C6148 1.366 . S
C6149 C6153 1.385 . S
C6150 H6131 0.951 . S
C6150 C6148 1.388 . S
C6150 C6151 1.366 . S
C6151 C6150 1.366 . S
C6151 C6152 1.414 . S
C6151 C6154 1.499 . S
C6152 H6132 0.950 . S
C6152 C6151 1.414 . S
C6152 C6153 1.374 . S
C6153 H6133 0.950 . S
C6153 C6149 1.385 . S
C6153 C6152 1.374 . S
C6154 C6151 1.499 . S
C6154 C6155 1.373 . S
C6154 C6156 1.389 . S
C6155 H6134 0.950 . S
C6155 C6154 1.373 . S
C6155 C6171 1.377 . S
C6156 C6154 1.389 . S
C6156 C6157 1.524 . S
C6156 C6170 1.377 . S
C6157 C6156 1.524 . S
C6157 C6158 1.397 . S
C6157 C6162 1.363 . S
C6158 H6135 0.950 . S
C6158 C6157 1.397 . S
C6158 C6159 1.334 . S
C6159 H6136 0.950 . S
C6159 C6158 1.334 . S
C6159 C6160 1.287 . S
C6160 C6159 1.287 . S
C6160 C6161 1.524 . S
C6160 H6179 0.913 . S
C6161 H6137 0.950 . S
C6161 C6160 1.524 . S
C6161 C6162 1.415 . S
C6162 H6138 0.950 . S
C6162 C6157 1.363 . S
C6162 C6161 1.415 . S
C6163 H6139 0.951 . S
C6163 C6164 1.366 . S
C6163 C6165 1.388 1_545 S
C6164 C6163 1.366 . S
C6164 C6168 1.385 1_545 S
C6165 H6140 0.951 1_565 S
C6165 C6163 1.388 1_565 S
C6165 C6166 1.366 . S
C6166 C6165 1.366 . S
C6166 C6167 1.414 . S
C6166 C6169 1.499 . S
C6167 H6141 0.950 . S
C6167 C6166 1.414 . S
C6167 C6168 1.374 . S
C6168 H6142 0.950 1_655 S
C6168 C6164 1.385 1_565 S
C6168 C6167 1.374 . S
C6169 C6166 1.499 . S
C6169 C6170 1.373 . S
C6169 C6171 1.389 . S
C6170 H6143 0.950 . S
C6170 C6156 1.377 . S
C6170 C6169 1.373 . S
C6171 C6155 1.377 . S
C6171 C6169 1.389 . S
C6171 C6172 1.524 . S
C6172 C6171 1.524 . S
C6172 C6173 1.397 . S
C6172 C6177 1.363 . S
C6173 H6144 0.950 . S
C6173 C6172 1.397 . S
C6173 C6174 1.334 . S
C6174 H6145 0.950 . S
C6174 C6173 1.334 . S
C6174 C6175 1.287 . S
C6175 C6174 1.287 . S
C6175 C6176 1.524 . S
C6175 H6178 0.999 . S
C6176 H6146 0.911 1_565 S
C6176 C6175 1.524 . S
C6176 C6177 1.415 . S
C6177 H6147 0.950 . S
C6177 C6172 1.363 . S
C6177 C6176 1.415 . S
H6178 C6175 0.999 . S
H6179 C6160 0.913 . S
H6180 C6198 0.951 . S
H6181 C6200 0.951 . S
H6182 C6202 0.950 . S
H6183 C6203 0.950 . S
H6184 C6205 0.950 . S
H6185 C6208 0.950 . S
H6186 C6209 0.950 . S
H6187 C6211 0.950 . S
H6188 C6212 0.950 . S
H6189 C6213 0.951 . S
H6190 C6215 0.951 . S
H6191 C6217 0.950 . S
H6192 C6218 0.950 . S
H6193 C6220 0.950 . S
H6194 C6223 0.950 . S
H6195 C6224 0.950 . S
H6196 C6226 0.950 . S
H6197 C6227 0.950 . S
C6198 H6180 0.951 . S
C6198 C6199 1.366 . S
C6198 C6200 1.388 . S
C6199 C6198 1.366 . S
C6199 C6203 1.385 . S
C6200 H6181 0.951 . S
C6200 C6198 1.388 . S
C6200 C6201 1.366 . S
C6201 C6200 1.366 . S
C6201 C6202 1.414 . S
C6201 C6204 1.499 . S
C6202 H6182 0.950 . S
C6202 C6201 1.414 . S
C6202 C6203 1.374 . S
C6203 H6183 0.950 . S
C6203 C6199 1.385 . S
C6203 C6202 1.374 . S
C6204 C6201 1.499 . S
C6204 C6205 1.373 . S
C6204 C6206 1.389 . S
C6205 H6184 0.950 . S
C6205 C6204 1.373 . S
C6205 C6221 1.377 . S
C6206 C6204 1.389 . S
C6206 C6207 1.524 . S
C6206 C6220 1.377 . S
C6207 C6206 1.524 . S
C6207 C6208 1.397 . S
C6207 C6212 1.363 . S
C6208 H6185 0.950 . S
C6208 C6207 1.397 . S
C6208 C6209 1.334 . S
C6209 H6186 0.950 . S
C6209 C6208 1.334 . S
C6209 C6210 1.287 . S
C6210 C6209 1.287 . S
C6210 C6211 1.524 . S
C6210 H6229 0.913 . S
C6211 H6187 0.950 . S
C6211 C6210 1.524 . S
C6211 C6212 1.415 . S
C6212 H6188 0.950 . S
C6212 C6207 1.363 . S
C6212 C6211 1.415 . S
C6213 H6189 0.951 . S
C6213 C6214 1.366 . S
C6213 C6215 1.388 . S
C6214 C6213 1.366 . S
C6214 C6218 1.385 . S
C6215 H6190 0.951 . S
C6215 C6213 1.388 . S
C6215 C6216 1.366 . S
C6216 C6215 1.366 . S
C6216 C6217 1.414 . S
C6216 C6219 1.499 . S
C6217 H6191 0.950 . S
C6217 C6216 1.414 . S
C6217 C6218 1.374 . S
C6218 H6192 0.950 . S
C6218 C6214 1.385 . S
C6218 C6217 1.374 . S
C6219 C6216 1.499 . S
C6219 C6220 1.373 . S
C6219 C6221 1.389 . S
C6220 H6193 0.950 . S
C6220 C6206 1.377 . S
C6220 C6219 1.373 . S
C6221 C6205 1.377 . S
C6221 C6219 1.389 . S
C6221 C6222 1.524 . S
C6222 C6221 1.524 . S
C6222 C6223 1.397 . S
C6222 C6227 1.363 . S
C6223 H6194 0.950 . S
C6223 C6222 1.397 . S
C6223 C6224 1.334 . S
C6224 H6195 0.950 . S
C6224 C6223 1.334 . S
C6224 C6225 1.287 . S
C6225 C6224 1.287 . S
C6225 C6226 1.524 . S
C6225 H6228 0.999 . S
C6226 H6196 0.950 . S
C6226 C6225 1.524 . S
C6226 C6227 1.415 . S
C6227 H6197 0.950 . S
C6227 C6222 1.363 . S
C6227 C6226 1.415 . S
H6228 C6225 0.999 . S
H6229 C6210 0.913 . S
H6230 C6248 0.951 . S
H6231 C6250 0.951 . S
H6232 C6252 0.950 . S
H6233 C6253 0.950 . S
H6234 C6255 0.936 1_556 S
H6235 C6258 0.950 . S
H6236 C6259 0.950 . S
H6237 C6261 0.950 . S
H6238 C6262 0.950 . S
H6239 C6263 0.951 . S
H6240 C6265 0.951 . S
H6241 C6267 0.950 . S
H6242 C6268 0.950 . S
H6243 C6270 0.950 . S
H6244 C6273 0.950 . S
H6245 C6274 0.950 . S
H6246 C6276 0.950 . S
H6247 C6277 0.950 . S
C6248 H6230 0.951 . S
C6248 C6249 1.366 . S
C6248 C6250 1.388 . S
C6249 C6248 1.366 . S
C6249 C6253 1.385 . S
C6250 H6231 0.951 . S
C6250 C6248 1.388 . S
C6250 C6251 1.366 . S
C6251 C6250 1.366 . S
C6251 C6252 1.414 . S
C6251 C6254 1.499 . S
C6252 H6232 0.950 . S
C6252 C6251 1.414 . S
C6252 C6253 1.374 . S
C6253 H6233 0.950 . S
C6253 C6249 1.385 . S
C6253 C6252 1.374 . S
C6254 C6251 1.499 . S
C6254 C6255 1.373 . S
C6254 C6256 1.389 . S
C6255 H6234 0.936 1_554 S
C6255 C6254 1.373 . S
C6255 C6271 1.377 . S
C6256 C6254 1.389 . S
C6256 C6257 1.524 . S
C6256 C6270 1.377 . S
C6257 C6256 1.524 . S
C6257 C6258 1.397 . S
C6257 C6262 1.363 . S
C6258 H6235 0.950 . S
C6258 C6257 1.397 . S
C6258 C6259 1.334 . S
C6259 H6236 0.950 . S
C6259 C6258 1.334 . S
C6259 C6260 1.287 . S
C6260 C6259 1.287 . S
C6260 C6261 1.524 . S
C6260 H6279 0.913 . S
C6261 H6237 0.950 . S
C6261 C6260 1.524 . S
C6261 C6262 1.415 . S
C6262 H6238 0.950 . S
C6262 C6257 1.363 . S
C6262 C6261 1.415 . S
C6263 H6239 0.951 . S
C6263 C6264 1.366 . S
C6263 C6265 1.388 . S
C6264 C6263 1.366 . S
C6264 C6268 1.385 . S
C6265 H6240 0.951 . S
C6265 C6263 1.388 . S
C6265 C6266 1.366 . S
C6266 C6265 1.366 . S
C6266 C6267 1.414 . S
C6266 C6269 1.499 . S
C6267 H6241 0.950 . S
C6267 C6266 1.414 . S
C6267 C6268 1.374 . S
C6268 H6242 0.950 . S
C6268 C6264 1.385 . S
C6268 C6267 1.374 . S
C6269 C6266 1.499 . S
C6269 C6270 1.373 . S
C6269 C6271 1.389 . S
C6270 H6243 0.950 . S
C6270 C6256 1.377 . S
C6270 C6269 1.373 . S
C6271 C6255 1.377 . S
C6271 C6269 1.389 . S
C6271 C6272 1.524 1_554 S
C6272 C6271 1.524 1_556 S
C6272 C6273 1.397 . S
C6272 C6277 1.363 . S
C6273 H6244 0.950 . S
C6273 C6272 1.397 . S
C6273 C6274 1.334 . S
C6274 H6245 0.950 . S
C6274 C6273 1.334 . S
C6274 C6275 1.287 . S
C6275 C6274 1.287 . S
C6275 C6276 1.524 . S
C6275 H6278 0.999 . S
C6276 H6246 0.950 . S
C6276 C6275 1.524 . S
C6276 C6277 1.415 . S
C6277 H6247 0.950 . S
C6277 C6272 1.363 . S
C6277 C6276 1.415 . S
H6278 C6275 0.999 . S
H6279 C6260 0.913 . S
H6280 C6298 0.951 . S
H6281 C6300 0.951 . S
H6282 C6302 0.950 . S
H6283 C6303 0.950 . S
H6284 C6305 0.950 . S
H6285 C6308 0.950 . S
H6286 C6309 0.950 . S
H6287 C6311 0.950 . S
H6288 C6312 0.950 . S
H6289 C6313 0.951 . S
H6290 C6315 0.951 . S
H6291 C6317 0.950 . S
H6292 C6318 0.950 . S
H6293 C6320 0.950 . S
H6294 C6323 0.950 . S
H6295 C6324 0.950 . S
H6296 C6326 0.950 . S
H6297 C6327 0.950 . S
C6298 H6280 0.951 . S
C6298 C6299 1.366 . S
C6298 C6300 1.388 . S
C6299 C6298 1.366 . S
C6299 C6303 1.385 . S
C6300 H6281 0.951 . S
C6300 C6298 1.388 . S
C6300 C6301 1.366 . S
C6301 C6300 1.366 . S
C6301 C6302 1.414 . S
C6301 C6304 1.499 . S
C6302 H6282 0.950 . S
C6302 C6301 1.414 . S
C6302 C6303 1.374 . S
C6303 H6283 0.950 . S
C6303 C6299 1.385 . S
C6303 C6302 1.374 . S
C6304 C6301 1.499 . S
C6304 C6305 1.373 . S
C6304 C6306 1.389 . S
C6305 H6284 0.950 . S
C6305 C6304 1.373 . S
C6305 C6321 1.377 . S
C6306 C6304 1.389 . S
C6306 C6307 1.524 . S
C6306 C6320 1.377 . S
C6307 C6306 1.524 . S
C6307 C6308 1.397 . S
C6307 C6312 1.363 . S
C6308 H6285 0.950 . S
C6308 C6307 1.397 . S
C6308 C6309 1.334 . S
C6309 H6286 0.950 . S
C6309 C6308 1.334 . S
C6309 C6310 1.287 . S
C6310 C6309 1.287 . S
C6310 C6311 1.524 . S
C6310 H6329 0.913 . S
C6311 H6287 0.950 . S
C6311 C6310 1.524 . S
C6311 C6312 1.415 . S
C6312 H6288 0.950 . S
C6312 C6307 1.363 . S
C6312 C6311 1.415 . S
C6313 H6289 0.951 . S
C6313 C6314 1.366 . S
C6313 C6315 1.388 . S
C6314 C6313 1.366 . S
C6314 C6318 1.385 . S
C6315 H6290 0.951 . S
C6315 C6313 1.388 . S
C6315 C6316 1.366 . S
C6316 C6315 1.366 . S
C6316 C6317 1.414 . S
C6316 C6319 1.499 . S
C6317 H6291 0.950 . S
C6317 C6316 1.414 . S
C6317 C6318 1.374 . S
C6318 H6292 0.950 . S
C6318 C6314 1.385 . S
C6318 C6317 1.374 . S
C6319 C6316 1.499 . S
C6319 C6320 1.373 . S
C6319 C6321 1.389 . S
C6320 H6293 0.950 . S
C6320 C6306 1.377 . S
C6320 C6319 1.373 . S
C6321 C6305 1.377 . S
C6321 C6319 1.389 . S
C6321 C6322 1.524 . S
C6322 C6321 1.524 . S
C6322 C6323 1.397 . S
C6322 C6327 1.363 . S
C6323 H6294 0.950 . S
C6323 C6322 1.397 . S
C6323 C6324 1.334 . S
C6324 H6295 0.950 . S
C6324 C6323 1.334 . S
C6324 C6325 1.287 . S
C6325 C6324 1.287 . S
C6325 C6326 1.524 . S
C6325 H6328 0.999 . S
C6326 H6296 0.950 . S
C6326 C6325 1.524 . S
C6326 C6327 1.415 . S
C6327 H6297 0.950 . S
C6327 C6322 1.363 . S
C6327 C6326 1.415 . S
H6328 C6325 0.999 . S
H6329 C6310 0.913 . S
H6330 C6348 0.951 . S
H6331 C6350 0.951 . S
H6332 C6352 0.950 . S
H6333 C6353 0.950 . S
H6334 C6355 0.950 . S
H6335 C6358 0.899 1_554 S
H6336 C6359 0.950 . S
H6337 C6361 0.950 . S
H6338 C6362 0.950 . S
H6339 C6363 0.951 . S
H6340 C6365 0.951 . S
H6341 C6367 0.950 1_556 S
H6342 C6368 0.954 . S
H6343 C6370 0.950 1_556 S
H6344 C6373 0.950 . S
H6345 C6374 0.950 . S
H6346 C6376 0.950 . S
H6347 C6377 0.950 . S
C6348 H6330 0.951 . S
C6348 C6349 1.366 . S
C6348 C6350 1.388 . S
C6349 C6348 1.366 . S
C6349 C6353 1.385 . S
C6350 H6331 0.951 . S
C6350 C6348 1.388 . S
C6350 C6351 1.366 . S
C6351 C6350 1.366 . S
C6351 C6352 1.414 . S
C6351 C6354 1.499 . S
C6352 H6332 0.950 . S
C6352 C6351 1.414 . S
C6352 C6353 1.374 . S
C6353 H6333 0.950 . S
C6353 C6349 1.385 . S
C6353 C6352 1.374 . S
C6354 C6351 1.499 . S
C6354 C6355 1.373 . S
C6354 C6356 1.389 . S
C6355 H6334 0.950 . S
C6355 C6354 1.373 . S
C6355 C6371 1.377 . S
C6356 C6354 1.389 . S
C6356 C6357 1.524 1_554 S
C6356 C6370 1.377 . S
C6357 C6356 1.524 1_556 S
C6357 C6358 1.404 . S
C6357 C6362 1.363 . S
C6358 H6335 0.899 1_556 S
C6358 C6357 1.404 . S
C6358 C6359 1.379 . S
C6359 H6336 0.950 . S
C6359 C6358 1.379 . S
C6359 C6360 1.287 . S
C6360 C6359 1.287 . S
C6360 C6361 1.524 . S
C6360 H6379 0.913 . S
C6361 H6337 0.950 . S
C6361 C6360 1.524 . S
C6361 C6362 1.415 . S
C6362 H6338 0.950 . S
C6362 C6357 1.363 . S
C6362 C6361 1.415 . S
C6363 H6339 0.951 . S
C6363 C6364 1.366 . S
C6363 C6365 1.388 . S
C6364 C6363 1.366 . S
C6364 C6368 1.382 1_554 S
C6365 H6340 0.951 . S
C6365 C6363 1.388 . S
C6365 C6366 1.366 . S
C6366 C6365 1.366 . S
C6366 C6367 1.414 . S
C6366 C6369 1.499 . S
C6367 H6341 0.950 1_554 S
C6367 C6366 1.414 . S
C6367 C6368 1.372 1_554 S
C6368 H6342 0.954 . S
C6368 C6364 1.382 1_556 S
C6368 C6367 1.372 1_556 S
C6369 C6366 1.499 . S
C6369 C6370 1.373 . S
C6369 C6371 1.389 . S
C6370 H6343 0.950 1_554 S
C6370 C6356 1.377 . S
C6370 C6369 1.373 . S
C6371 C6355 1.377 . S
C6371 C6369 1.389 . S
C6371 C6372 1.524 . S
C6372 C6371 1.524 . S
C6372 C6373 1.397 . S
C6372 C6377 1.363 . S
C6373 H6344 0.950 . S
C6373 C6372 1.397 . S
C6373 C6374 1.334 . S
C6374 H6345 0.950 . S
C6374 C6373 1.334 . S
C6374 C6375 1.287 . S
C6375 C6374 1.287 . S
C6375 C6376 1.524 . S
C6375 H6378 0.999 . S
C6376 H6346 0.950 . S
C6376 C6375 1.524 . S
C6376 C6377 1.415 . S
C6377 H6347 0.950 . S
C6377 C6372 1.363 . S
C6377 C6376 1.415 . S
H6378 C6375 0.999 . S
H6379 C6360 0.913 . S
H6380 C6398 0.951 1_545 S
H6381 C6400 0.951 . S
H6382 C6402 0.950 . S
H6383 C6403 0.950 . S
H6384 C6405 0.950 . S
H6385 C6408 0.950 . S
H6386 C6409 0.950 . S
H6387 C6411 0.950 . S
H6388 C6412 0.950 . S
H6389 C6413 0.951 . S
H6390 C6415 0.951 . S
H6391 C6417 0.950 . S
H6392 C6418 0.950 . S
H6393 C6420 0.950 . S
H6394 C6423 0.950 . S
H6395 C6424 0.950 . S
H6396 C6426 0.950 . S
H6397 C6427 0.950 . S
C6398 H6380 0.951 1_565 S
C6398 C6399 1.366 . S
C6398 C6400 1.388 . S
C6399 C6398 1.366 . S
C6399 C6403 1.385 . S
C6400 H6381 0.951 . S
C6400 C6398 1.388 . S
C6400 C6401 1.366 . S
C6401 C6400 1.366 . S
C6401 C6402 1.414 . S
C6401 C6404 1.499 . S
C6402 H6382 0.950 . S
C6402 C6401 1.414 . S
C6402 C6403 1.374 . S
C6403 H6383 0.950 . S
C6403 C6399 1.385 . S
C6403 C6402 1.374 . S
C6404 C6401 1.499 . S
C6404 C6405 1.373 . S
C6404 C6406 1.389 . S
C6405 H6384 0.950 . S
C6405 C6404 1.373 . S
C6405 C6421 1.377 . S
C6406 C6404 1.389 . S
C6406 C6407 1.524 . S
C6406 C6420 1.377 . S
C6407 C6406 1.524 . S
C6407 C6408 1.397 . S
C6407 C6412 1.363 . S
C6408 H6385 0.950 . S
C6408 C6407 1.397 . S
C6408 C6409 1.334 . S
C6409 H6386 0.950 . S
C6409 C6408 1.334 . S
C6409 C6410 1.287 . S
C6410 C6409 1.287 . S
C6410 C6411 1.524 . S
C6410 H6429 0.913 . S
C6411 H6387 0.950 . S
C6411 C6410 1.524 . S
C6411 C6412 1.415 . S
C6412 H6388 0.950 . S
C6412 C6407 1.363 . S
C6412 C6411 1.415 . S
C6413 H6389 0.951 . S
C6413 C6414 1.366 . S
C6413 C6415 1.388 . S
C6414 C6413 1.366 . S
C6414 C6418 1.385 . S
C6415 H6390 0.951 . S
C6415 C6413 1.388 . S
C6415 C6416 1.366 . S
C6416 C6415 1.366 . S
C6416 C6417 1.414 . S
C6416 C6419 1.499 . S
C6417 H6391 0.950 . S
C6417 C6416 1.414 . S
C6417 C6418 1.374 . S
C6418 H6392 0.950 . S
C6418 C6414 1.385 . S
C6418 C6417 1.374 . S
C6419 C6416 1.499 . S
C6419 C6420 1.373 . S
C6419 C6421 1.389 . S
C6420 H6393 0.950 . S
C6420 C6406 1.377 . S
C6420 C6419 1.373 . S
C6421 C6405 1.377 . S
C6421 C6419 1.389 . S
C6421 C6422 1.524 . S
C6422 C6421 1.524 . S
C6422 C6423 1.397 . S
C6422 C6427 1.363 . S
C6423 H6394 0.950 . S
C6423 C6422 1.397 . S
C6423 C6424 1.334 . S
C6424 H6395 0.950 . S
C6424 C6423 1.334 . S
C6424 C6425 1.287 . S
C6425 C6424 1.287 . S
C6425 C6426 1.524 . S
C6425 H6428 0.999 . S
C6426 H6396 0.950 . S
C6426 C6425 1.524 . S
C6426 C6427 1.415 . S
C6427 H6397 0.950 . S
C6427 C6422 1.363 . S
C6427 C6426 1.415 . S
H6428 C6425 0.999 . S
H6429 C6410 0.913 . S
H6430 C6448 0.951 . S
H6431 C6450 0.951 . S
H6432 C6452 0.950 . S
H6433 C6453 0.950 . S
H6434 C6455 0.950 . S
H6435 C6458 0.950 . S
H6436 C6459 0.950 . S
H6437 C6461 0.950 . S
H6438 C6462 0.950 . S
H6439 C6463 0.951 . S
H6440 C6465 0.951 . S
H6441 C6467 0.950 . S
H6442 C6468 0.950 . S
H6443 C6470 0.950 . S
H6444 C6473 0.950 . S
H6445 C6474 0.950 . S
H6446 C6476 0.950 . S
H6447 C6477 0.950 . S
C6448 H6430 0.951 . S
C6448 C6449 1.366 . S
C6448 C6450 1.388 . S
C6449 C6448 1.366 . S
C6449 C6453 1.385 . S
C6450 H6431 0.951 . S
C6450 C6448 1.388 . S
C6450 C6451 1.366 . S
C6451 C6450 1.366 . S
C6451 C6452 1.414 . S
C6451 C6454 1.499 . S
C6452 H6432 0.950 . S
C6452 C6451 1.414 . S
C6452 C6453 1.374 . S
C6453 H6433 0.950 . S
C6453 C6449 1.385 . S
C6453 C6452 1.374 . S
C6454 C6451 1.499 . S
C6454 C6455 1.373 . S
C6454 C6456 1.389 . S
C6455 H6434 0.950 . S
C6455 C6454 1.373 . S
C6455 C6471 1.377 . S
C6456 C6454 1.389 . S
C6456 C6457 1.524 . S
C6456 C6470 1.377 . S
C6457 C6456 1.524 . S
C6457 C6458 1.397 . S
C6457 C6462 1.363 . S
C6458 H6435 0.950 . S
C6458 C6457 1.397 . S
C6458 C6459 1.334 . S
C6459 H6436 0.950 . S
C6459 C6458 1.334 . S
C6459 C6460 1.287 . S
C6460 C6459 1.287 . S
C6460 C6461 1.524 . S
C6460 H6479 0.913 . S
C6461 H6437 0.950 . S
C6461 C6460 1.524 . S
C6461 C6462 1.415 . S
C6462 H6438 0.950 . S
C6462 C6457 1.363 . S
C6462 C6461 1.415 . S
C6463 H6439 0.951 . S
C6463 C6464 1.366 . S
C6463 C6465 1.388 . S
C6464 C6463 1.366 . S
C6464 C6468 1.385 . S
C6465 H6440 0.951 . S
C6465 C6463 1.388 . S
C6465 C6466 1.366 . S
C6466 C6465 1.366 . S
C6466 C6467 1.414 . S
C6466 C6469 1.499 . S
C6467 H6441 0.950 . S
C6467 C6466 1.414 . S
C6467 C6468 1.374 . S
C6468 H6442 0.950 . S
C6468 C6464 1.385 . S
C6468 C6467 1.374 . S
C6469 C6466 1.499 . S
C6469 C6470 1.373 . S
C6469 C6471 1.389 . S
C6470 H6443 0.950 . S
C6470 C6456 1.377 . S
C6470 C6469 1.373 . S
C6471 C6455 1.377 . S
C6471 C6469 1.389 . S
C6471 C6472 1.524 . S
C6472 C6471 1.524 . S
C6472 C6473 1.397 . S
C6472 C6477 1.363 . S
C6473 H6444 0.950 . S
C6473 C6472 1.397 . S
C6473 C6474 1.334 . S
C6474 H6445 0.950 . S
C6474 C6473 1.334 . S
C6474 C6475 1.287 . S
C6475 C6474 1.287 . S
C6475 C6476 1.524 . S
C6475 H6478 0.999 . S
C6476 H6446 0.950 . S
C6476 C6475 1.524 . S
C6476 C6477 1.415 . S
C6477 H6447 0.950 . S
C6477 C6472 1.363 . S
C6477 C6476 1.415 . S
H6478 C6475 0.999 . S
H6479 C6460 0.913 . S
C1699 C109 1.581 . S
C1714 C392 1.463 . S
C1749 C65 2.218 . S
C1764 C483 2.148 . S
C1799 C75 1.450 . S
C1814 C560 1.364 . S
C1864 C658 1.595 . S
C1849 C84 1.728 . S
C1899 C25 1.574 . S
C1914 C742 1.517 . S
C1964 C814 0.862 . S
C1949 C28 0.904 . S
C2014 C903 0.691 . S
C1999 C47 0.689 . S
C2049 C9 1.287 . S
C2064 C980 1.165 . S
C2114 C399 2.015 . S
C2099 C233 2.118 . S
C2149 C249 0.536 . S
C2164 C490 0.597 . S
C2214 C567 1.215 . S
C2199 C275 1.265 . S
C2264 C644 1.475 . S
C2249 C173 1.531 1_556 S
C2299 C224 2.067 . S
C2314 C728 1.944 . S
C2364 C830 1.064 . S
C2349 C243 1.141 . S
C2414 C910 0.728 . S
C2399 C266 0.720 . S
C2464 C987 1.285 . S
C2449 C179 1.382 . S
C2514 C406 1.469 . S
C2499 C163 1.574 . S
C2549 C289 2.016 . S
C2564 C1071 1.928 . S
C2614 C1159 2.110 . S
C2599 C333 2.270 . S
C2664 C1232 0.487 . S
C2649 C308 0.278 . S
C2699 C123 0.709 . S
C2714 C994 0.712 . S
C2749 C126 1.462 . S
C2764 C574 1.416 . S
C2799 C327 2.379 . S
C2814 C1323 2.286 . S
C2864 C1400 0.751 . S
C2849 C299 0.752 . S
C2914 C403 1.485 1_565 S
C2899 C67 1.609 . S
C2964 C1418 2.178 . S
C2949 C98 2.195 . S
C2999 C89 1.490 . S
C3014 C571 1.404 . S
C3049 C79 1.796 . S
C3064 C1318 1.642 . S
C3114 C730 1.526 . S
C3099 C11 1.595 . S
C3149 C51 0.948 . S
C3164 C1162 0.893 . S
C3214 C914 0.761 1_566 S
C3199 C33 0.760 . S
C3264 C1495 1.176 . S
C3249 C14 1.295 . S
C3314 C410 2.010 . S
C3299 C140 2.108 . S
C3364 C1402 0.612 . S
C3349 C319 0.551 . S
C3399 C112 1.258 . S
C3414 C578 1.229 . S
C3449 C285 1.609 . S
C3464 C1327 1.498 . S
C3499 C149 2.134 . S
C3514 C739 1.974 . S
C3564 C1155 1.105 . S
C3549 C313 1.185 . S
C3599 C121 0.789 . S
C3614 C898 0.779 . S
C3649 C291 1.433 . S
C3664 C1502 1.342 . S
C3699 C182 1.576 . S
C3714 C394 1.463 . S
C3749 C168 2.014 . S
C3764 C1082 1.955 . S
C3799 C263 2.328 . S
C3814 C812 2.172 . S
C3849 C247 0.324 . S
C3864 C1243 0.496 . S
C3914 C1486 0.694 . S
C3899 C277 0.686 1_565 S
C3949 C219 1.517 . S
C3964 C562 1.431 . S
C4014 C662 2.331 . S
C3999 C257 2.426 . S
C4064 C487 0.760 . S
C4049 C201 0.763 . S
C4099 C81 1.580 . S
C4114 C1568 1.462 . S
C4164 C1407 2.148 . S
C4149 C93 2.218 . S
C4199 C103 1.450 . S
C4214 C1652 1.363 . S
C4249 C56 1.728 . S
C4264 C1330 1.596 . S
C4299 C53 1.574 . S
C4314 C1078 1.517 . S
C4364 C1150 0.864 . S
C4349 C0 0.905 . S
C4414 C1239 0.691 . S
C4399 C19 0.689 . S
C4464 C1484 1.165 . S
C4449 C37 1.287 . S
C4514 C1575 2.015 . S
C4499 C261 2.118 . S
C4549 C193 0.536 . S
C4564 C1414 0.596 . S
C4614 C1659 1.215 . S
C4599 C205 1.265 . S
C4664 C1316 1.477 . S
C4649 C215 1.580 . S
C4714 C1064 1.943 . S
C4699 C252 2.066 . S
C4749 C187 1.141 . S
C4764 C1166 1.064 . S
C4814 C1246 0.731 . S
C4799 C196 0.720 . S
C4849 C221 1.382 . S
C4864 C1491 1.284 . S
C4914 C1582 1.468 . S
C4899 C317 1.574 . S
C4949 C135 2.015 . S
C4964 C735 1.932 . S
C5014 C823 2.109 . S
C4999 C151 2.277 . S
C5064 C896 0.491 . S
C5049 C154 0.280 . S
C5114 C1498 0.710 . S
C5099 C305 0.710 . S
C5149 C280 1.462 . S
C5164 C1666 1.412 . S
C5214 C651 2.285 . S
C5199 C145 2.371 . S
C5264 C476 0.751 . S
C5249 C117 0.752 . S
C5299 C95 1.609 . S
C5314 C1579 1.486 . S
C5364 C494 2.178 . S
C5349 C70 2.195 . S
C5399 C61 1.489 . S
C5414 C1663 1.403 . S
C5449 C107 1.796 . S
C5464 C646 1.643 . S
C5499 C39 1.595 . S
C5514 C1066 1.535 . S
C5564 C826 0.893 . S
C5549 C23 0.948 . S
C5599 C5 0.761 . S
C5614 C1250 0.761 . S
C5649 C42 1.295 . S
C5664 C991 1.176 . S
C5714 C1586 2.010 . S
C5699 C322 2.108 . S
C5749 C165 0.551 . S
C5764 C478 0.609 . S
C5814 C1670 1.228 . S
C5799 C294 1.257 . S
C5849 C131 1.610 . S
C5864 C655 1.506 . S
C5899 C331 2.134 . S
C5914 C1075 1.976 . S
C5964 C819 1.106 . S
C5949 C159 1.185 . S
C5999 C303 0.789 . S
C6014 C1234 0.777 . S
C6064 C998 1.336 . S
C6049 C137 1.432 . S
C6114 C1570 1.463 . S
C6099 C238 1.576 . S
C6164 C746 1.955 1_655 S
C6149 C210 2.014 . S
C6199 C235 2.328 . S
C6214 C1148 2.172 . S
C6264 C907 0.496 . S
C6249 C191 0.324 . S
C6299 C207 0.686 . S
C6314 C982 0.693 . S
C6349 C177 1.517 . S
C6364 C1654 1.431 . S
C6414 C1334 2.332 . S
C6399 C229 2.426 1_565 S
C6464 C1411 0.758 . S
C6449 C271 0.763 . S
