# Generated by pormake.
# Topology ocu, (6,8)-cn, num edge types: 1
# Building blocks:
#     Node 0, Type 0, BuildingBlock: NUHQIS_clean_sbu_0, # of connection points: 6
#     Node 1, Type 0, BuildingBlock: NUHQIS_clean_sbu_0, # of connection points: 6
#     Node 2, Type 0, BuildingBlock: NUHQIS_clean_sbu_0, # of connection points: 6
#     Node 3, Type 0, BuildingBlock: NUHQIS_clean_sbu_0, # of connection points: 6
#     Node 4, Type 0, BuildingBlock: NUHQIS_clean_sbu_0, # of connection points: 6
#     Node 5, Type 0, BuildingBlock: NUHQIS_clean_sbu_0, # of connection points: 6
#     Node 6, Type 0, BuildingBlock: NUHQIS_clean_sbu_0, # of connection points: 6
#     Node 7, Type 0, BuildingBlock: NUHQIS_clean_sbu_0, # of connection points: 6
#     Node 8, Type 1, BuildingBlock: TAGTUT_clean_sbu_1, # of connection points: 8
#     Node 9, Type 1, BuildingBlock: TAGTUT_clean_sbu_1, # of connection points: 8
#     Node 10, Type 1, BuildingBlock: TAGTUT_clean_sbu_1, # of connection points: 8
#     Node 11, Type 1, BuildingBlock: TAGTUT_clean_sbu_1, # of connection points: 8
#     Node 12, Type 1, BuildingBlock: TAGTUT_clean_sbu_1, # of connection points: 8
#     Node 13, Type 1, BuildingBlock: TAGTUT_clean_sbu_1, # of connection points: 8
#     Edge 14, Type (0, 1), BuildingBlock: OJICUG_clean_linker_0, # of connection points: 2
#     Edge 15, Type (0, 1), BuildingBlock: OJICUG_clean_linker_0, # of connection points: 2
#     Edge 16, Type (0, 1), BuildingBlock: OJICUG_clean_linker_0, # of connection points: 2
#     Edge 17, Type (0, 1), BuildingBlock: OJICUG_clean_linker_0, # of connection points: 2
#     Edge 18, Type (0, 1), BuildingBlock: OJICUG_clean_linker_0, # of connection points: 2
#     Edge 19, Type (0, 1), BuildingBlock: OJICUG_clean_linker_0, # of connection points: 2
#     Edge 20, Type (0, 1), BuildingBlock: OJICUG_clean_linker_0, # of connection points: 2
#     Edge 21, Type (0, 1), BuildingBlock: OJICUG_clean_linker_0, # of connection points: 2
#     Edge 22, Type (0, 1), BuildingBlock: OJICUG_clean_linker_0, # of connection points: 2
#     Edge 23, Type (0, 1), BuildingBlock: OJICUG_clean_linker_0, # of connection points: 2
#     Edge 24, Type (0, 1), BuildingBlock: OJICUG_clean_linker_0, # of connection points: 2
#     Edge 25, Type (0, 1), BuildingBlock: OJICUG_clean_linker_0, # of connection points: 2
#     Edge 26, Type (0, 1), BuildingBlock: OJICUG_clean_linker_0, # of connection points: 2
#     Edge 27, Type (0, 1), BuildingBlock: OJICUG_clean_linker_0, # of connection points: 2
#     Edge 28, Type (0, 1), BuildingBlock: OJICUG_clean_linker_0, # of connection points: 2
#     Edge 29, Type (0, 1), BuildingBlock: OJICUG_clean_linker_0, # of connection points: 2
#     Edge 30, Type (0, 1), BuildingBlock: OJICUG_clean_linker_0, # of connection points: 2
#     Edge 31, Type (0, 1), BuildingBlock: OJICUG_clean_linker_0, # of connection points: 2
#     Edge 32, Type (0, 1), BuildingBlock: OJICUG_clean_linker_0, # of connection points: 2
#     Edge 33, Type (0, 1), BuildingBlock: OJICUG_clean_linker_0, # of connection points: 2
#     Edge 34, Type (0, 1), BuildingBlock: OJICUG_clean_linker_0, # of connection points: 2
#     Edge 35, Type (0, 1), BuildingBlock: OJICUG_clean_linker_0, # of connection points: 2
#     Edge 36, Type (0, 1), BuildingBlock: OJICUG_clean_linker_0, # of connection points: 2
#     Edge 37, Type (0, 1), BuildingBlock: OJICUG_clean_linker_0, # of connection points: 2
#     Edge 38, Type (0, 1), BuildingBlock: OJICUG_clean_linker_0, # of connection points: 2
#     Edge 39, Type (0, 1), BuildingBlock: OJICUG_clean_linker_0, # of connection points: 2
#     Edge 40, Type (0, 1), BuildingBlock: OJICUG_clean_linker_0, # of connection points: 2
#     Edge 41, Type (0, 1), BuildingBlock: OJICUG_clean_linker_0, # of connection points: 2
#     Edge 42, Type (0, 1), BuildingBlock: OJICUG_clean_linker_0, # of connection points: 2
#     Edge 43, Type (0, 1), BuildingBlock: OJICUG_clean_linker_0, # of connection points: 2
#     Edge 44, Type (0, 1), BuildingBlock: OJICUG_clean_linker_0, # of connection points: 2
#     Edge 45, Type (0, 1), BuildingBlock: OJICUG_clean_linker_0, # of connection points: 2
#     Edge 46, Type (0, 1), BuildingBlock: OJICUG_clean_linker_0, # of connection points: 2
#     Edge 47, Type (0, 1), BuildingBlock: OJICUG_clean_linker_0, # of connection points: 2
#     Edge 48, Type (0, 1), BuildingBlock: OJICUG_clean_linker_0, # of connection points: 2
#     Edge 49, Type (0, 1), BuildingBlock: OJICUG_clean_linker_0, # of connection points: 2
#     Edge 50, Type (0, 1), BuildingBlock: OJICUG_clean_linker_0, # of connection points: 2
#     Edge 51, Type (0, 1), BuildingBlock: OJICUG_clean_linker_0, # of connection points: 2
#     Edge 52, Type (0, 1), BuildingBlock: OJICUG_clean_linker_0, # of connection points: 2
#     Edge 53, Type (0, 1), BuildingBlock: OJICUG_clean_linker_0, # of connection points: 2
#     Edge 54, Type (0, 1), BuildingBlock: OJICUG_clean_linker_0, # of connection points: 2
#     Edge 55, Type (0, 1), BuildingBlock: OJICUG_clean_linker_0, # of connection points: 2
#     Edge 56, Type (0, 1), BuildingBlock: OJICUG_clean_linker_0, # of connection points: 2
#     Edge 57, Type (0, 1), BuildingBlock: OJICUG_clean_linker_0, # of connection points: 2
#     Edge 58, Type (0, 1), BuildingBlock: OJICUG_clean_linker_0, # of connection points: 2
#     Edge 59, Type (0, 1), BuildingBlock: OJICUG_clean_linker_0, # of connection points: 2
#     Edge 60, Type (0, 1), BuildingBlock: OJICUG_clean_linker_0, # of connection points: 2
#     Edge 61, Type (0, 1), BuildingBlock: OJICUG_clean_linker_0, # of connection points: 2
# Relax obj value: 0.193
# Max RMSD: 0.269
# Mean RMSD: 0.132
data_MOF--net-ocu--node1-NUHQIS_clean_sbu_0--node2-TAGTUT_clean_sbu_1--edge1-OJICUG_clean_linker_0
_symmetry_space_group_name_H-M    P1
_symmetry_Int_Tables_number       1
_symmetry_cell_setting            triclinic
loop_
_symmetry_equiv_pos_as_xyz
'x, y, z'
_cell_length_a     29.810963
_cell_length_b     30.344576
_cell_length_c     31.199263
_cell_angle_alpha  97.375197
_cell_angle_beta   84.619885
_cell_angle_gamma 116.37707
loop_
_atom_site_label
_atom_site_type_symbol
_atom_site_fract_x
_atom_site_fract_y
_atom_site_fract_z
_atom_type_partial_charge
Tb0 Tb 0.28042 0.24728 0.28674 0.0
Eu1 Eu 0.37395 0.30993 0.34529 0.0
C2 C 0.37346 0.21864 0.26952 0.0
C3 C 0.28617 0.20545 0.37124 0.0
C4 C 0.16736 0.22634 0.23851 0.0
C5 C 0.08763 0.21926 0.21897 0.0
C6 C 0.11765 0.19693 0.22737 0.0
C7 C 0.18619 0.27782 0.24328 0.0
C8 C 0.15668 0.30004 0.23479 0.0
C9 C 0.1072 0.27125 0.2217 0.0
C10 C 0.20012 0.20474 0.24713 0.0
O11 O 0.25724 0.30017 0.33108 0.0
O12 O 0.32514 0.34921 0.37195 0.0
O13 O 0.38062 0.36152 0.29727 0.0
O14 O 0.33227 0.30386 0.24573 0.0
C15 C 0.27876 0.3372 0.3618 0.0
O16 O 0.41353 0.33378 0.40554 0.0
O17 O 0.4544 0.35718 0.34518 0.0
O18 O 0.39668 0.2555 0.29937 0.0
O19 O 0.32676 0.20777 0.26071 0.0
O20 O 0.27467 0.19521 0.33065 0.0
O21 O 0.31998 0.24924 0.38553 0.0
C22 C 0.3671 0.3483 0.25725 0.0
O23 O 0.24435 0.22349 0.22777 0.0
O24 O 0.20292 0.20202 0.28797 0.0
C25 C 0.48883 0.32751 0.3912 0.0
C26 C 0.54568 0.27729 0.40355 0.0
C27 C 0.56784 0.32944 0.40634 0.0
C28 C 0.53952 0.35441 0.40019 0.0
C29 C 0.46757 0.27585 0.38548 0.0
C30 C 0.49546 0.25103 0.39167 0.0
C31 C 0.45742 0.35173 0.38534 0.0
H32 H 1.04942 0.19581 0.20996 0.0
H33 H 0.10232 0.157 0.2248 0.0
H34 H 0.22446 0.30107 0.2524 0.0
H35 H 0.17419 0.33995 0.23622 0.0
H36 H 0.60657 0.35113 0.41459 0.0
H37 H 0.55686 0.39444 0.40324 0.0
H38 H 0.42857 0.25443 0.37767 0.0
H39 H 0.47599 0.21115 0.38994 0.0
Tb40 Tb 0.87705 0.27776 0.32904 0.0
Eu41 Eu 0.7694 0.27664 0.31037 0.0
C42 C 0.82264 0.22275 0.24539 0.0
C43 C 0.87322 0.35691 0.2728 0.0
C44 C 0.98376 0.24674 0.32554 0.0
C45 C 0.05529 0.22848 0.31806 0.0
C46 C 1.0354 0.26252 0.31998 0.0
C47 C 0.95173 0.19637 0.32531 0.0
C48 C 0.97142 0.16232 0.32377 0.0
C49 C 1.02384 0.17795 0.32229 0.0
C50 C 0.96342 0.28287 0.33234 0.0
O51 O 0.85697 0.31255 0.3872 0.0
O52 O 0.8017 0.33697 0.3631 0.0
O53 O 0.75281 0.20519 0.33714 0.0
O54 O 0.82558 0.22035 0.3686 0.0
C55 C 0.82838 0.33565 0.39326 0.0
O56 O 0.6963 0.26355 0.34042 0.0
O57 O 0.71026 0.27347 0.27208 0.0
O58 O 0.79481 0.24644 0.24958 0.0
O59 O 0.84447 0.21892 0.27815 0.0
O60 O 0.89533 0.34701 0.30221 0.0
O61 O 0.8243 0.33511 0.26954 0.0
C62 C 0.77673 0.19605 0.36546 0.0
O63 O 0.94631 0.28932 0.29803 0.0
O64 O 0.93288 0.27886 0.36596 0.0
C65 C 0.65413 0.30063 0.31016 0.0
C66 C 0.61544 0.36876 0.30457 0.0
C67 C 0.6557 0.38094 0.33129 0.0
C68 C 0.67531 0.34726 0.33365 0.0
C69 C 0.61086 0.28631 0.28761 0.0
C70 C 0.59167 0.31997 0.28467 0.0
C71 C 0.679 0.26825 0.30535 0.0
H72 H 0.09555 0.24275 0.31496 0.0
H73 H 0.06051 0.30138 0.31864 0.0
H74 H 0.91146 0.18361 0.32856 0.0
H75 H 0.94483 0.12449 0.32723 0.0
H76 H 0.67395 0.41737 0.34839 0.0
H77 H 0.70842 0.3585 0.35196 0.0
H78 H 0.59399 0.25016 0.26972 0.0
H79 H 0.56114 0.30862 0.26329 0.0
Tb80 Tb 0.78011 0.73581 0.32376 0.0
Eu81 Eu 0.88473 0.82844 0.30499 0.0
C82 C 0.83371 0.73639 0.23818 0.0
C83 C 0.87766 0.73378 0.36084 0.0
C84 C 0.64816 0.67346 0.34673 0.0
C85 C 0.6071 0.6866 0.41441 0.0
C86 C 0.62548 0.65776 0.38698 0.0
C87 C 0.64167 0.71124 0.33041 0.0
C88 C 0.6233 0.74003 0.35774 0.0
C89 C 0.61037 0.73046 0.40109 0.0
C90 C 0.69345 0.66704 0.33287 0.0
O91 O 0.79765 0.78386 0.38421 0.0
O92 O 0.84155 0.85554 0.35432 0.0
O93 O 0.83215 0.85348 0.27602 0.0
O94 O 0.75839 0.78455 0.28731 0.0
C95 C 0.82215 0.83213 0.38854 0.0
O96 O 0.95211 0.88958 0.33229 0.0
O97 O 0.945 0.87487 0.263 0.0
O98 O 0.86045 0.78405 0.2407 0.0
O99 O 0.82471 0.71591 0.27412 0.0
O100 O 0.8288 0.71004 0.35392 0.0
O101 O 0.90418 0.77719 0.34432 0.0
C102 C 0.78322 0.82826 0.27051 0.0
O103 O 0.71411 0.68136 0.29528 0.0
O104 O 0.72655 0.6842 0.36253 0.0
C105 C 1.02077 0.88857 0.28834 0.0
C106 C 0.06098 0.82687 0.24578 0.0
C107 C 0.06913 0.87034 0.22821 0.0
C108 C 1.0493 0.90139 0.24966 0.0
C109 C 1.02212 0.85123 0.3099 0.0
C110 C 1.04154 0.81995 0.28837 0.0
C111 C 0.9756 0.89678 0.29447 0.0
H112 H 0.59629 0.67786 0.44752 0.0
H113 H 0.62948 0.62828 0.39995 0.0
H114 H 0.6574 0.72326 0.29891 0.0
H115 H 0.62416 0.77266 0.34631 0.0
H116 H 0.08483 0.87695 0.19561 0.0
H117 H 1.04918 0.93035 0.23271 0.0
H118 H 1.00168 0.84149 0.34047 0.0
H119 H 1.03649 0.78751 0.3031 0.0
Tb120 Tb 0.34795 0.73711 0.33604 0.0
Eu121 Eu 0.31336 0.80245 0.28392 0.0
C122 C 0.35409 0.83869 0.37998 0.0
C123 C 0.23879 0.71964 0.33725 0.0
C124 C 0.36244 0.63093 0.34744 0.0
C125 C 0.32364 0.5846 0.28073 0.0
C126 C 0.31916 0.60366 0.32326 0.0
C127 C 0.40648 0.62653 0.33315 0.0
C128 C 0.41117 0.60832 0.29042 0.0
C129 C 0.37102 0.59221 0.26293 0.0
C130 C 0.3687 0.67881 0.37041 0.0
O131 O 0.34066 0.70036 0.26986 0.0
O132 O 0.29182 0.73052 0.24219 0.0
O133 O 0.38463 0.80451 0.25339 0.0
O134 O 0.41474 0.80055 0.31637 0.0
C135 C 0.31131 0.69903 0.24013 0.0
O136 O 0.2615 0.80661 0.24142 0.0
O137 O 0.32343 0.87375 0.26598 0.0
O138 O 0.35587 0.85242 0.34134 0.0
O139 O 0.34046 0.79198 0.38546 0.0
O140 O 0.26885 0.69945 0.32431 0.0
O141 O 0.25423 0.76678 0.33492 0.0
C142 C 0.42226 0.81343 0.27696 0.0
O143 O 0.40237 0.71652 0.35153 0.0
O144 O 0.32784 0.68427 0.38094 0.0
C145 C 0.24244 0.8687 0.27932 0.0
C146 C 0.20489 0.87544 0.36468 0.0
C147 C 0.24298 0.91756 0.34729 0.0
C148 C 0.26177 0.91417 0.3049 0.0
C149 C 0.19704 0.83076 0.29325 0.0
C150 C 0.17961 0.83324 0.33601 0.0
C151 C 0.27786 0.85408 0.25208 0.0
H152 H 0.29183 0.57031 0.26033 0.0
H153 H 0.28392 0.60459 0.33398 0.0
H154 H 0.44004 0.64604 0.35155 0.0
H155 H 0.4479 0.61321 0.27735 0.0
H156 H 0.26095 0.95223 0.3671 0.0
H157 H 0.29561 0.9449 0.29443 0.0
H158 H 0.17946 0.79581 0.2736 0.0
H159 H 0.14921 0.8001 0.34684 0.0
Tb160 Tb 0.36381 0.7554 0.79898 0.0
Eu161 Eu 0.28822 0.80246 0.83812 0.0
C162 C 0.26734 0.73284 0.74588 0.0
C163 C 0.37026 0.85154 0.76494 0.0
C164 C 0.46729 0.7189 0.78805 0.0
C165 C 0.51382 0.6712 0.79144 0.0
C166 C 0.48154 0.68214 0.76979 0.0
C167 C 0.48837 0.747 0.8265 0.0
C168 C 0.52047 0.73615 0.84811 0.0
C169 C 0.53198 0.69679 0.83176 0.0
C170 C 0.42824 0.72585 0.76863 0.0
O171 O 0.40313 0.80687 0.85561 0.0
O172 O 0.33976 0.82014 0.89365 0.0
O173 O 0.25585 0.72525 0.85836 0.0
O174 O 0.32677 0.71335 0.85379 0.0
C175 C 0.38549 0.82362 0.89143 0.0
O176 O 0.27393 0.86442 0.86772 0.0
O177 O 0.21207 0.79196 0.85609 0.0
O178 O 0.26416 0.7713 0.76872 0.0
O179 O 0.29729 0.71525 0.75798 0.0
O180 O 0.37052 0.80841 0.75545 0.0
O181 O 0.34872 0.86131 0.80093 0.0
C182 C 0.2804 0.70133 0.8679 0.0
O183 O 0.38209 0.69613 0.77929 0.0
O184 O 0.43489 0.7715 0.77034 0.0
C185 C 0.1969 0.86032 0.84824 0.0
C186 C 0.14145 0.89545 0.8056 0.0
C187 C 0.11788 0.8497 0.82302 0.0
C188 C 0.14536 0.83218 0.84352 0.0
C189 C 0.22048 0.90727 0.83301 0.0
C190 C 0.19315 0.92448 0.81159 0.0
C191 C 0.22538 0.83889 0.8671 0.0
H192 H 0.52258 0.64116 0.77772 0.0
H193 H 0.46611 0.6606 0.73975 0.0
H194 H 0.47818 0.77586 0.84096 0.0
H195 H 0.53309 0.75631 0.87928 0.0
H196 H 0.07846 0.82631 0.81944 0.0
H197 H 0.12666 0.79559 0.8542 0.0
H198 H 0.26036 0.92995 0.83603 0.0
H199 H 0.21342 0.9594 0.79788 0.0
Tb200 Tb 0.33964 0.32239 0.79199 0.0
Eu201 Eu 0.31179 0.22325 0.84076 0.0
C202 C 0.39809 0.33016 0.87245 0.0
C203 C 0.39709 0.25685 0.76638 0.0
C204 C 0.30773 0.40466 0.74092 0.0
C205 C 0.28077 0.45457 0.70527 0.0
C206 C 0.31925 0.44657 0.71982 0.0
C207 C 0.25734 0.37142 0.7483 0.0
C208 C 0.21888 0.37903 0.73332 0.0
C209 C 0.23025 0.4205 0.71136 0.0
C210 C 0.34778 0.39422 0.75401 0.0
O211 O 0.26789 0.26537 0.7699 0.0
O212 O 0.27931 0.19714 0.77589 0.0
O213 O 0.24765 0.24394 0.85939 0.0
O214 O 0.29563 0.32584 0.85058 0.0
C215 C 0.26013 0.21989 0.75641 0.0
O216 O 0.30104 0.14698 0.83726 0.0
O217 O 0.29546 0.18557 0.89932 0.0
O218 O 0.36111 0.2888 0.8833 0.0
O219 O 0.40241 0.34552 0.83397 0.0
O220 O 0.37652 0.28241 0.75258 0.0
O221 O 0.38706 0.24286 0.80565 0.0
C222 C 0.25596 0.29052 0.86722 0.0
O223 O 0.35146 0.3964 0.79552 0.0
O224 O 0.34959 0.35463 0.73404 0.0
C225 C 0.34221 0.14037 0.89411 0.0
C226 C 0.42224 0.12823 0.92282 0.0
C227 C 0.37288 0.09025 0.92483 0.0
C228 C 0.33312 0.09627 0.91044 0.0
C229 C 0.39137 0.17794 0.89133 0.0
C230 C 0.43107 0.17193 0.90548 0.0
C231 C 0.30142 0.14803 0.8791 0.0
H232 H 0.29065 0.48653 0.68786 0.0
H233 H 0.35791 0.47254 0.71387 0.0
H234 H 0.24773 0.33913 0.76507 0.0
H235 H 0.18036 0.35237 0.73858 0.0
H236 H 0.36468 0.05647 0.93881 0.0
H237 H 0.29539 0.06692 0.9126 0.0
H238 H 0.399 0.21224 0.87858 0.0
H239 H 0.46856 0.20166 0.90324 0.0
Tb240 Tb 0.87335 0.27501 0.82114 0.0
Eu241 Eu 0.77231 0.28393 0.81477 0.0
C242 C 0.84971 0.34853 0.88687 0.0
C243 C 0.77892 0.21458 0.88317 0.0
C244 C 0.98697 0.27602 0.77877 0.0
C245 C 0.98538 0.22009 0.71609 0.0
C246 C 0.98961 0.23258 0.76048 0.0
C247 C 0.99283 0.31194 0.7514 0.0
C248 C 0.98858 0.29948 0.70687 0.0
C249 C 0.98014 0.2517 0.6898 0.0
C250 C 0.95638 0.27295 0.81901 0.0
O251 O 0.84214 0.23296 0.75979 0.0
O252 O 0.76066 0.2103 0.78103 0.0
O253 O 0.81818 0.31676 0.75405 0.0
O254 O 0.89435 0.33731 0.78058 0.0
C255 C 0.79449 0.20283 0.75575 0.0
O256 O 0.69044 0.2495 0.81239 0.0
O257 O 0.73249 0.32788 0.80788 0.0
O258 O 0.82102 0.35054 0.85873 0.0
O259 O 0.86464 0.31367 0.88226 0.0
O260 O 0.81919 0.21591 0.86029 0.0
O261 O 0.75992 0.24476 0.87609 0.0
C262 C 0.8674 0.34223 0.75175 0.0
O263 O 0.95029 0.31241 0.83322 0.0
O264 O 0.91375 0.23319 0.81852 0.0
C265 C 0.67131 0.30364 0.86332 0.0
C266 C 0.70489 0.34754 0.946 0.0
C267 C 0.69667 0.37457 0.91661 0.0
C268 C 0.67955 0.35262 0.8756 0.0
C269 C 0.66903 0.27427 0.89572 0.0
C270 C 0.68734 0.29634 0.93635 0.0
C271 C 0.68989 0.29258 0.81984 0.0
H272 H 0.9818 0.18391 0.70286 0.0
H273 H 0.9865 0.20485 0.7808 0.0
H274 H 0.99336 0.34687 0.76471 0.0
H275 H 0.98712 0.32523 0.68662 0.0
H276 H 0.70622 0.41347 0.92422 0.0
H277 H 0.68013 0.37585 0.85171 0.0
H278 H 0.66046 0.23562 0.88789 0.0
H279 H 0.69106 0.27382 0.95872 0.0
Tb280 Tb 0.77621 0.76269 0.79165 0.0
Eu281 Eu 0.88525 0.81295 0.83792 0.0
C282 C 0.86077 0.73202 0.75535 0.0
C283 C 0.79292 0.71955 0.87217 0.0
C284 C 0.65419 0.74577 0.75917 0.0
C285 C 0.59658 0.75913 0.71879 0.0
C286 C 0.62309 0.73228 0.72419 0.0
C287 C 0.65529 0.78368 0.7906 0.0
C288 C 0.62887 0.81058 0.78526 0.0
C289 C 0.60114 0.80003 0.74823 0.0
C290 C 0.69101 0.72598 0.75911 0.0
O291 O 0.77489 0.82533 0.83407 0.0
O292 O 0.83786 0.84178 0.88015 0.0
O293 O 0.88762 0.87147 0.79878 0.0
O294 O 0.82664 0.82056 0.75147 0.0
C295 C 0.79799 0.84557 0.87056 0.0
O296 O 0.92891 0.83187 0.89543 0.0
O297 O 0.96694 0.84767 0.83275 0.0
O298 O 0.89353 0.77301 0.77487 0.0
O299 O 0.81248 0.7156 0.76501 0.0
O300 O 0.76415 0.7333 0.8537 0.0
O301 O 0.84107 0.73738 0.86198 0.0
C302 C 0.86547 0.86275 0.76201 0.0
O303 O 0.73296 0.75002 0.73796 0.0
O304 O 0.69884 0.71637 0.79635 0.0
C305 C 0.99737 0.81419 0.88001 0.0
C306 C 1.03858 0.7521 0.89913 0.0
C307 C 1.05097 0.79829 0.92318 0.0
C308 C 1.03057 0.82919 0.91357 0.0
C309 C 0.98553 0.76857 0.85547 0.0
C310 C 1.0064 0.73805 0.86463 0.0
C311 C 0.97104 0.84325 0.87305 0.0
H312 H 0.57586 0.75031 0.68969 0.0
H313 H 0.62191 0.70318 0.69958 0.0
H314 H 0.67906 0.79453 0.81781 0.0
H315 H 0.63262 0.84154 0.80866 0.0
H316 H 0.07498 0.80984 0.95043 0.0
H317 H 1.03943 0.86396 0.93316 0.0
H318 H 0.95949 0.75619 0.82963 0.0
H319 H 0.9966 0.70306 0.84519 0.0
C320 C 0.98038 0.14325 0.54807 0.0
C321 C 1.05254 0.08778 0.44651 0.0
C322 C 0.96907 0.92231 0.51448 0.0
Mg323 Mg 0.07795 0.12908 0.53828 0.0
O324 O 1.0332 0.0707 0.56166 0.0
Mg325 Mg 0.97157 0.02874 0.52787 0.0
Mg326 Mg 0.06196 0.02255 0.5566 0.0
O327 O 0.08975 0.97451 0.5511 0.0
Mg328 Mg 1.04699 0.91143 0.56917 0.0
Mg329 Mg 0.15326 0.01539 0.58248 0.0
C330 C 0.14855 0.12236 0.60416 0.0
C331 C 0.16542 0.06754 0.49533 0.0
O332 O 0.95309 0.09614 0.54402 0.0
O333 O 1.02836 0.16259 0.54604 0.0
O334 O 1.00938 0.05917 0.46204 0.0
O335 O 0.08825 0.11547 0.47097 0.0
O336 O 0.13802 0.14913 0.58193 0.0
O337 O 0.12377 0.07503 0.60123 0.0
C338 C 0.96211 0.98305 0.62052 0.0
O339 O 1.00755 0.98955 0.6129 0.0
O340 O 0.93951 0.99535 0.59431 0.0
O341 O 0.17169 0.95008 0.55341 0.0
O342 O 0.09793 0.88232 0.54425 0.0
O343 O 0.11901 0.97867 0.64504 0.0
C344 C 0.14567 0.90469 0.53858 0.0
O345 O 1.04333 0.91538 0.63813 0.0
O346 O 0.98001 0.89355 0.53369 0.0
C347 C 0.07967 0.94513 0.66129 0.0
O348 O 0.99836 0.9686 0.51463 0.0
O349 O 0.11865 0.05736 0.49984 0.0
O350 O 0.18654 0.05492 0.52201 0.0
C351 C 0.48879 0.11187 0.17098 0.0
C352 C 0.53806 0.09493 1.03504 0.0
C353 C 0.51546 0.91063 0.04321 0.0
Mg354 Mg 0.59156 0.11974 0.12159 0.0
O355 O 0.56694 0.05097 0.12164 0.0
Mg356 Mg 0.49652 1.00867 0.10446 0.0
Mg357 Mg 0.60369 1.01007 0.09352 0.0
O358 O 0.64053 0.96817 0.07096 0.0
Mg359 Mg 0.61387 0.89991 0.07878 0.0
Mg360 Mg 0.71139 1.01024 0.08956 0.0
C361 C 0.69341 0.105 0.1355 0.0
C362 C 0.68907 0.07504 1.01951 0.0
O363 O 0.46809 0.0669 0.15188 0.0
O364 O 0.53672 0.1376 0.16656 0.0
O365 O 0.50749 0.05362 0.04862 0.0
O366 O 0.57514 0.12656 0.05691 0.0
O367 O 0.66937 0.1315 0.1342 0.0
O368 O 0.67301 0.05773 0.12975 0.0
C369 C 0.52826 0.95398 0.17063 0.0
O370 O 0.56959 0.96415 0.14912 0.0
O371 O 0.4951 0.9667 0.16071 0.0
O372 O 0.73385 0.95945 0.03859 0.0
O373 O 0.66267 0.88936 1.02748 0.0
O374 O 0.7113 0.95691 0.14528 0.0
C375 C 0.70874 0.917 1.0178 0.0
O376 O 0.64474 0.88397 0.13777 0.0
O377 O 0.53934 0.88579 0.05148 0.0
C378 C 0.68647 0.91213 0.15642 0.0
O379 O 0.53087 0.95721 0.05764 0.0
O380 O 0.64354 0.0612 1.03502 0.0
O381 O 0.71803 0.06014 1.03478 0.0
C382 C 0.06311 0.66846 0.12389 0.0
C383 C 0.08339 0.62943 0.99108 0.0
C384 C 0.98507 0.44523 1.00676 0.0
Mg385 Mg 0.13155 0.62826 0.0707 0.0
O386 O 0.07841 0.57048 0.08978 0.0
Mg387 Mg 1.01169 0.55525 0.06763 0.0
Mg388 Mg 0.08789 0.51304 0.0624 0.0
O389 O 0.101 0.45835 1.0311 0.0
Mg390 Mg 0.05393 0.39246 1.02152 0.0
Mg391 Mg 0.16633 0.47566 0.05645 0.0
C392 C 0.19699 0.58382 0.10445 0.0
C393 C 0.18104 0.55664 0.99107 0.0
O394 O 1.02324 0.62879 0.11282 0.0
O395 O 0.10723 0.6748 0.11066 0.0
O396 O 1.04283 0.60158 1.01036 0.0
O397 O 0.12583 0.64203 1.00654 0.0
O398 O 0.19474 0.62094 0.091 0.0
O399 O 0.15999 0.5402 0.10097 0.0
C400 C 0.99548 0.47613 0.13626 0.0
O401 O 1.03411 0.47088 0.1189 0.0
O402 O 0.98143 0.50612 0.12299 0.0
O403 O 0.17119 0.41253 1.00876 0.0
O404 O 0.09769 0.36063 0.98005 0.0
O405 O 0.12219 0.41962 0.10724 0.0
C406 C 0.14486 0.37489 0.98308 0.0
O407 O 1.04522 0.36879 0.08381 0.0
O408 O 0.99391 0.407 1.00171 0.0
C409 C 0.0781 0.3843 0.11239 0.0
O410 O 1.01561 0.48692 1.02562 0.0
O411 O 0.13925 0.55499 1.00741 0.0
O412 O 0.20091 0.53134 1.0046 0.0
C413 C 0.46131 0.61262 0.097 0.0
C414 C 0.56273 0.62518 0.9785 0.0
C415 C 0.52736 0.44114 1.01296 0.0
Mg416 Mg 0.57622 0.64659 0.0772 0.0
O417 O 0.55004 0.57769 0.07867 0.0
Mg418 Mg 0.49483 0.53045 0.03989 0.0
Mg419 Mg 0.59231 0.54272 0.0727 0.0
O420 O 0.63485 0.50696 0.06743 0.0
Mg421 Mg 0.59868 0.4429 0.08367 0.0
Mg422 Mg 0.68868 0.55425 0.10724 0.0
C423 C 0.66221 0.64589 0.13065 0.0
C424 C 0.69634 0.60478 1.0181 0.0
O425 O 0.45105 0.57422 0.06975 0.0
O426 O 0.50641 0.64524 0.104 0.0
O427 O 0.53002 0.58141 0.98512 0.0
O428 O 0.58649 0.65668 1.00935 0.0
O429 O 0.64315 0.67186 0.1169 0.0
O430 O 0.64334 0.59893 0.12201 0.0
C431 C 0.4861 0.47478 0.12408 0.0
O432 O 0.53426 0.49467 0.12384 0.0
O433 O 0.46306 0.48155 0.09497 0.0
O434 O 0.72711 0.50222 0.08952 0.0
O435 O 0.66182 0.42711 0.07833 0.0
O436 O 0.65046 0.51163 0.16736 0.0
C437 C 0.70893 0.45499 0.08149 0.0
O438 O 0.57887 0.44588 0.15095 0.0
O439 O 0.5427 0.41706 1.03416 0.0
C440 C 0.60974 0.47553 0.17872 0.0
O441 O 0.54311 0.48813 1.02043 0.0
O442 O 0.64866 0.58963 1.02271 0.0
O443 O 0.72087 0.59621 0.04523 0.0
C444 C 0.94481 0.64399 0.61394 0.0
C445 C 0.97031 0.6468 0.47683 0.0
C446 C 0.96057 0.45338 0.50071 0.0
Mg447 Mg 1.04186 0.65806 0.55533 0.0
O448 O 1.01364 0.59007 0.56463 0.0
Mg449 Mg 0.94269 0.54868 0.54486 0.0
Mg450 Mg 1.0503 0.54755 0.54255 0.0
O451 O 0.08663 0.50567 0.5149 0.0
Mg452 Mg 0.06171 0.43658 0.51397 0.0
Mg453 Mg 0.15724 0.54677 0.53201 0.0
C454 C 0.1393 0.64536 0.59278 0.0
C455 C 0.12886 0.60501 0.46687 0.0
O456 O 0.91933 0.60064 0.5947 0.0
O457 O 0.99133 0.67019 0.60429 0.0
O458 O 0.94445 0.60242 0.48862 0.0
O459 O 1.0125 0.67419 0.49517 0.0
O460 O 0.11603 0.6707 0.584 0.0
O461 O 0.12305 0.59855 0.5791 0.0
C462 C 0.9622 0.48221 0.61549 0.0
O463 O 1.00826 0.49631 0.60115 0.0
O464 O 0.93395 0.4975 0.59949 0.0
O465 O 0.18455 0.48798 0.48294 0.0
O466 O 0.11531 0.41822 0.46746 0.0
O467 O 0.14615 0.50064 0.58705 0.0
C468 C 0.16331 0.4434 0.46297 0.0
O469 O 0.07878 0.42771 0.57812 0.0
O470 O 0.98423 0.42653 0.50219 0.0
C471 C 0.11606 0.4589 0.60008 0.0
O472 O 0.98142 0.5007 0.50576 0.0
O473 O 0.08659 0.5946 0.48691 0.0
O474 O 0.16054 0.59068 0.47721 0.0
C475 C 0.502 0.16971 0.64576 0.0
C476 C 0.57008 0.16194 0.51477 0.0
C477 C 0.45957 0.95933 0.52464 0.0
Mg478 Mg 0.59417 0.15548 0.60644 0.0
O479 O 0.5478 0.08926 0.59856 0.0
Mg480 Mg 0.48318 0.07015 0.57127 0.0
Mg481 Mg 0.56401 0.03543 0.57142 0.0
O482 O 0.5785 0.97949 0.54779 0.0
Mg483 Mg 0.5266 0.92189 0.56749 0.0
Mg484 Mg 0.64418 0.9992 0.57504 0.0
C485 C 0.66566 0.10926 0.62719 0.0
C486 C 0.65989 0.07438 0.50203 0.0
O487 O 0.47519 0.13379 0.61861 0.0
O488 O 0.54892 0.18309 0.64888 0.0
O489 O 0.52678 0.12539 0.51956 0.0
O490 O 0.60222 0.17892 0.54406 0.0
O491 O 0.65674 0.14703 0.62802 0.0
O492 O 0.63416 0.0657 0.61263 0.0
C493 C 0.46659 0.99094 0.63832 0.0
O494 O 0.50902 0.99254 0.62414 0.0
O495 O 0.44779 0.01642 0.62375 0.0
O496 O 0.63965 0.92625 0.53431 0.0
O497 O 0.55655 0.87563 0.5344 0.0
O498 O 0.61152 0.95411 0.63417 0.0
C499 C 0.60203 0.88432 0.52407 0.0
O500 O 0.52861 0.9143 0.63398 0.0
O501 O 0.46401 0.9248 0.54092 0.0
C502 C 0.56947 0.92708 0.65215 0.0
O503 O 0.49389 1.00464 0.52858 0.0
O504 O 0.61948 0.0774 0.51705 0.0
O505 O 0.67572 0.047 0.51779 0.0
C506 C 0.21003 0.12913 0.39077 0.0
C507 C 0.25735 0.16751 0.40168 0.0
H508 H 0.1435 0.06771 0.41187 0.0
C509 C 0.27496 0.17068 0.44268 0.0
H510 H 0.19511 0.12567 0.35951 0.0
C511 C 0.24564 0.13684 0.47225 0.0
C512 C 0.19754 0.09981 0.46195 0.0
H513 H 0.31115 0.19964 0.4521 0.0
H514 H 0.25993 0.14081 0.50391 0.0
C515 C 0.1802 0.09603 0.42077 0.0
C516 C 1.01255 0.09434 0.33926 0.0
C517 C 1.04439 0.14478 0.33522 0.0
H518 H 0.98909 0.03572 0.38015 0.0
C519 C 0.0904 0.16567 0.35593 0.0
H520 H 0.97953 0.0744 0.32041 0.0
C521 C 0.0971 0.14229 0.38859 0.0
C522 C 0.05796 0.09802 0.40092 0.0
H523 H 0.11861 0.2028 0.35214 0.0
H524 H 0.12965 0.16267 0.40805 0.0
C525 C 1.0184 0.07151 0.37304 0.0
C526 C 0.87569 0.9083 0.4337 0.0
C527 C 0.84622 0.85691 0.42983 0.0
H528 H 0.93802 0.96911 0.4629 0.0
C529 C 0.85112 0.82884 0.46007 0.0
H530 H 0.87262 0.93103 0.4111 0.0
C531 C 0.88909 0.85078 0.48983 0.0
C532 C 0.92249 0.90121 0.49012 0.0
H533 H 0.82896 0.78913 0.45813 0.0
H534 H 0.89426 0.8275 0.51055 0.0
C535 C 0.91355 0.93016 0.46339 0.0
C536 C 0.22971 0.90687 0.44201 0.0
C537 C 0.19343 0.8749 0.41232 0.0
H538 H 0.24366 0.94079 0.50697 0.0
C539 C 0.14617 0.84261 0.42887 0.0
H540 H 0.26775 0.92991 0.43133 0.0
C541 C 0.13386 0.84613 0.47287 0.0
C542 C 0.16717 0.88426 0.50111 0.0
H543 H 0.1169 0.81671 0.40804 0.0
H544 H 0.09575 0.82289 0.48345 0.0
C545 C 0.21652 0.91202 0.4859 0.0
C546 C 0.12982 0.95962 0.77023 0.0
C547 C 0.11413 0.90971 0.77655 0.0
H548 H 0.13066 1.01042 0.7281 0.0
C549 C 0.07659 0.87308 0.7503 0.0
H550 H 0.15678 0.98908 0.7909 0.0
C551 C 0.05997 0.88565 0.71557 0.0
C552 C 0.08159 0.93479 0.70565 0.0
H553 H 0.06306 0.83416 0.75364 0.0
H554 H 1.03447 0.85618 0.69384 0.0
C555 C 0.11426 0.97202 0.73467 0.0
C556 C 0.22435 0.22237 0.68835 0.0
C557 C 0.23243 0.19493 0.71704 0.0
H558 H 0.19331 0.22128 0.62926 0.0
C559 C 0.21678 0.14395 0.70637 0.0
H560 H 0.23695 0.26189 0.69528 0.0
C561 C 0.19182 0.12049 0.66835 0.0
C562 C 0.18243 0.1477 0.64017 0.0
H563 H 0.2231 0.12194 0.7277 0.0
H564 H 0.17871 0.08091 0.66171 0.0
C565 C 0.19994 0.19908 0.65016 0.0
C566 C 0.9226 0.18582 0.63874 0.0
C567 C 0.96317 0.23271 0.64565 0.0
H568 H 0.8934 0.1188 0.59718 0.0
C569 C 0.99303 0.2556 0.61029 0.0
H570 H 0.89747 0.16859 0.66544 0.0
C571 C 0.98962 0.22745 0.57067 0.0
C572 C 0.95833 0.1762 0.56781 0.0
H573 H 1.02325 0.2925 0.61466 0.0
H574 H 1.01821 0.2433 0.54564 0.0
C575 C 0.91968 0.1576 0.59932 0.0
C576 C 0.93924 0.93226 0.72964 0.0
C577 C 0.88816 0.89889 0.729 0.0
H578 H 1.0024 0.98493 0.69601 0.0
C579 C 0.86036 0.89718 0.69415 0.0
H580 H 0.96195 0.9344 0.75569 0.0
C581 C 0.88354 0.92677 0.66 0.0
C582 C 0.93524 0.95799 0.65955 0.0
H583 H 0.8209 0.87192 0.69265 0.0
H584 H 0.86154 0.92327 0.63294 0.0
C585 C 0.96252 0.9611 0.69523 0.0
C586 C 0.45394 0.20607 0.24858 0.0
C587 C 0.40169 0.18945 0.245 0.0
H588 H 0.52087 0.1966 0.22925 0.0
C589 C 0.37796 0.14513 0.2173 0.0
H590 H 0.47467 0.23947 0.26915 0.0
C591 C 0.40493 0.11932 0.19461 0.0
C592 C 0.45748 0.1367 0.19765 0.0
H593 H 0.33808 0.1301 0.21298 0.0
H594 H 0.38448 0.08603 0.17382 0.0
C595 C 0.4809 0.18092 0.22539 0.0
C596 C 0.88564 0.41187 0.21433 0.0
C597 C 0.90553 0.39102 0.24041 0.0
H598 H 0.89839 0.4551 0.16147 0.0
C599 C 0.95578 0.39884 0.23221 0.0
H600 H 0.84709 0.40623 0.21937 0.0
C601 C 0.98501 0.42597 0.19829 0.0
C602 C 0.96505 0.44673 0.17219 0.0
H603 H 0.97222 0.38266 0.25115 0.0
H604 H 1.02325 0.43082 0.19261 0.0
C605 C 0.91515 0.43977 0.18099 0.0
C606 C 0.70674 0.82259 0.22838 0.0
C607 C 0.75634 0.8499 0.24346 0.0
H608 H 0.64669 0.81866 0.19102 0.0
C609 C 0.78115 0.89867 0.23017 0.0
H610 H 0.6852 0.78498 0.23651 0.0
C611 C 0.75851 0.91854 0.20394 0.0
C612 C 0.70922 0.89122 0.18837 0.0
H613 H 0.8191 0.9221 0.23989 0.0
H614 H 0.78062 0.95579 0.19511 0.0
C615 C 0.68418 0.84238 0.20171 0.0
C616 C 0.25072 0.61478 0.21279 0.0
C617 C 0.29427 0.65813 0.20538 0.0
H618 H 0.1861 0.55419 0.18507 0.0
C619 C 0.31201 0.66749 0.16273 0.0
H620 H 0.23572 0.60752 0.2455 0.0
C621 C 0.28356 0.63705 0.12807 0.0
C622 C 0.2366 0.59718 0.13561 0.0
H623 H 0.34512 0.70105 0.15629 0.0
H624 H 0.29527 0.64829 0.09571 0.0
C625 C 0.22239 0.58404 0.17808 0.0
C626 C 0.45249 0.82929 0.94001 0.0
C627 C 0.41776 0.84618 0.93089 0.0
H628 H 0.5079 0.83431 0.98186 0.0
C629 C 0.41382 0.88401 0.96053 0.0
H630 H 0.45673 0.80016 0.91869 0.0
C631 C 0.44447 0.90492 0.99709 0.0
C632 C 0.47891 0.88745 1.00639 0.0
H633 H 0.38767 0.89832 0.95493 0.0
H634 H 0.44115 0.93476 1.01804 0.0
C635 C 0.48173 0.84888 0.97702 0.0
C636 C 0.17272 0.28383 0.90102 0.0
C637 C 0.22539 0.30644 0.89984 0.0
H638 H 0.10533 0.28808 0.92795 0.0
C639 C 0.25044 0.34924 0.92768 0.0
H640 H 0.15256 0.25102 0.87958 0.0
C641 C 0.22397 0.37012 0.9551 0.0
C642 C 0.17137 0.34926 0.95533 0.0
H643 H 0.29104 0.36738 0.92766 0.0
H644 H 0.24523 0.40365 0.97536 0.0
C645 C 0.14585 0.30532 0.92841 0.0
C646 C 0.77903 0.15179 0.9307 0.0
C647 C 0.75495 0.17855 0.91783 0.0
H648 H 0.77811 0.09956 0.97162 0.0
C649 C 0.70778 0.16996 0.9385 0.0
H650 H 0.81515 0.15676 0.91605 0.0
C651 C 0.68584 0.13619 0.97059 0.0
C652 C 0.71039 0.10992 0.98375 0.0
H653 H 0.68744 0.18918 0.92977 0.0
H654 H 0.64979 0.13117 0.98545 0.0
C655 C 0.75747 0.1186 0.96296 0.0
C656 C 1.02201 0.66707 0.91363 0.0
C657 C 0.05582 0.71716 0.91238 0.0
H658 H 1.00528 0.59895 0.93864 0.0
C659 C 0.10381 0.73424 0.92854 0.0
H660 H 0.98478 0.65259 0.90144 0.0
C661 C 0.11565 0.70321 0.94979 0.0
C662 C 0.07934 0.65499 0.95569 0.0
H663 H 0.13109 0.77237 0.92719 0.0
H664 H 0.15132 0.71854 0.9651 0.0
C665 C 1.03373 0.63624 0.93502 0.0
C666 C 0.09331 0.34617 0.21708 0.0
C667 C 0.08057 0.29589 0.20415 0.0
H668 H 0.10488 0.41528 0.19634 0.0
C669 C 1.05261 0.27357 0.167 0.0
H670 H 0.11195 0.36396 0.24699 0.0
C671 C 1.04596 0.30257 0.13947 0.0
C672 C 0.06829 0.35416 0.14824 0.0
H673 H 1.04114 0.23495 0.15605 0.0
H674 H 1.02898 0.28513 0.10881 0.0
C675 C 0.08892 0.37559 0.18845 0.0
C676 C 0.28312 0.64513 0.91943 0.0
C677 C 0.25527 0.66094 0.89652 0.0
H678 H 0.28157 0.59984 0.96771 0.0
C679 C 0.20286 0.63906 0.90247 0.0
H680 H 0.32359 0.6612 0.91547 0.0
C681 C 0.17896 0.60348 0.93162 0.0
C682 C 0.2068 0.58971 0.95644 0.0
H683 H 0.18017 0.64968 0.88482 0.0
H684 H 0.13849 0.58715 0.93512 0.0
C685 C 0.25909 0.60992 0.94926 0.0
C686 C 0.49685 0.16341 0.96926 0.0
C687 C 0.46323 0.12372 0.94238 0.0
H688 H 0.54902 0.18555 1.01953 0.0
C689 C 0.46504 0.07797 0.93889 0.0
H690 H 0.49652 0.19923 0.97256 0.0
C691 C 0.495 0.07023 0.96586 0.0
C692 C 0.52378 0.1082 0.99657 0.0
H693 H 0.44073 0.04717 0.91747 0.0
H694 H 0.4923 0.03334 0.96531 0.0
C695 C 0.52721 0.15573 0.99606 0.0
C696 C 0.90976 0.43237 0.9154 0.0
C697 C 0.86936 0.38682 0.9232 0.0
H698 H 0.97936 0.48966 0.93863 0.0
C699 C 0.8599 0.37199 0.96515 0.0
H700 H 0.91803 0.44414 0.88306 0.0
C701 C 0.89465 0.39821 0.99698 0.0
C702 C 0.93953 0.4391 0.98696 0.0
H703 H 0.82905 0.33684 0.97176 0.0
H704 H 0.88994 0.38229 1.02722 0.0
C705 C 0.94478 0.4586 0.94733 0.0
C706 C 0.80584 0.90628 0.93491 0.0
C707 C 0.77543 0.86845 0.90486 0.0
H708 H 0.80872 0.95161 0.99424 0.0
C709 C 0.72327 0.8476 0.91174 0.0
H710 H 0.84629 0.92256 0.93054 0.0
C711 C 0.70185 0.86329 0.94855 0.0
C712 C 0.73217 0.9006 0.97911 0.0
H713 H 0.69906 0.81738 0.88993 0.0
H714 H 0.66142 0.84581 0.95314 0.0
C715 C 0.78439 0.92262 0.97149 0.0
C716 C 0.10354 0.7932 0.18766 0.0
C717 C 0.06285 0.78524 0.21691 0.0
H718 H 0.13471 0.763 0.13471 0.0
C719 C 1.02087 0.73866 0.21479 0.0
H720 H 0.13603 0.82882 0.18843 0.0
C721 C 1.01966 0.70065 0.18367 0.0
C722 C 0.06056 0.7087 0.15444 0.0
H723 H 0.9884 0.73204 0.23646 0.0
H724 H 0.98723 0.66502 0.18289 0.0
C725 C 0.10243 0.75542 0.1568 0.0
C726 C 0.49503 0.84227 0.2271 0.0
C727 C 0.46931 0.85268 0.26383 0.0
H728 H 0.53535 0.86819 0.16802 0.0
C729 C 0.47427 0.90083 0.27492 0.0
H730 H 0.49071 0.80495 0.21789 0.0
C731 C 0.49703 0.9359 0.24545 0.0
C732 C 0.5169 0.92336 0.20598 0.0
H733 H 0.45397 0.90907 0.303 0.0
H734 H 0.49557 0.9712 0.2519 0.0
C735 C 0.51957 0.87801 0.19836 0.0
C736 C 0.79688 0.14021 0.20781 0.0
C737 C 0.81793 0.19124 0.20523 0.0
H738 H 0.73824 0.07082 0.18558 0.0
C739 C 0.81247 0.20938 0.16785 0.0
H740 H 0.80171 0.12553 0.23601 0.0
C741 C 0.77483 0.1787 0.14005 0.0
C742 C 0.74505 0.12977 0.14883 0.0
H743 H 0.82999 0.24879 0.16486 0.0
H744 H 0.76484 0.1947 0.11554 0.0
C745 C 0.76003 0.1091 0.17925 0.0
C746 C 0.79876 0.6823 0.93864 0.0
C747 C 0.76993 0.68682 0.9077 0.0
H748 H 0.79844 0.65322 0.99817 0.0
C749 C 0.71741 0.66242 0.91265 0.0
H750 H 0.8393 0.70079 0.93591 0.0
C751 C 0.69425 0.63547 0.94793 0.0
C752 C 0.72265 0.63214 0.97983 0.0
H753 H 0.69378 0.6646 0.88945 0.0
H754 H 0.65374 0.61744 0.95022 0.0
C755 C 0.77533 0.65525 0.97442 0.0
C756 C 0.58931 0.70908 0.8908 0.0
C757 C 0.55384 0.67705 0.86079 0.0
H758 H 0.62055 0.71766 0.95204 0.0
C759 C 0.53112 0.62607 0.86505 0.0
H760 H 0.60846 0.7484 0.8877 0.0
C761 C 0.5382 0.6084 0.90168 0.0
C762 C 0.56788 0.64143 0.93483 0.0
H763 H 0.50376 0.60019 0.84252 0.0
H764 H 0.51684 0.56941 0.90561 0.0
C765 C 0.59621 0.69142 0.92767 0.0
C766 C 0.45817 0.41154 0.90894 0.0
C767 C 0.43394 0.35971 0.90622 0.0
H768 H 0.50598 0.47845 0.94577 0.0
C769 C 0.44021 0.33535 0.93891 0.0
H770 H 0.45341 0.43118 0.88441 0.0
C771 C 0.46965 0.36201 0.97381 0.0
C772 C 0.49347 0.41384 0.97715 0.0
H773 H 0.42204 0.29537 0.9377 0.0
H774 H 0.47365 0.34179 0.99825 0.0
C775 C 0.48752 0.43849 0.94436 0.0
C776 C 0.71267 0.35074 1.02581 0.0
C777 C 0.72989 0.37296 0.98692 0.0
H778 H 0.70031 0.36375 0.09359 0.0
C779 C 0.76543 0.4229 0.98881 0.0
H780 H 0.68718 0.31193 1.02608 0.0
C781 C 0.77216 0.45257 1.02795 0.0
C782 C 0.74178 0.43201 0.064 0.0
H783 H 0.78283 0.4403 0.95954 0.0
H784 H 0.79187 0.49231 1.02726 0.0
C785 C 0.7211 0.38052 0.06493 0.0
C786 C 0.64667 0.45383 0.28161 0.0
C787 C 0.6059 0.40811 0.28903 0.0
H788 H 0.67911 0.51264 0.24096 0.0
C789 C 0.56037 0.39571 0.26992 0.0
H790 H 0.68222 0.46594 0.29629 0.0
C791 C 0.55962 0.42123 0.23614 0.0
C792 C 0.60341 0.46155 0.22324 0.0
H793 H 0.52716 0.36243 0.27677 0.0
H794 H 0.52653 0.40587 0.21722 0.0
C795 C 0.64515 0.4807 0.24922 0.0
C796 C 0.78413 0.7419 0.1796 0.0
C797 C 0.79544 0.7131 0.20492 0.0
H798 H 0.73257 0.74363 0.13678 0.0
C799 C 0.76396 0.66235 0.20382 0.0
H800 H 0.80728 0.78135 0.1801 0.0
C801 C 0.72103 0.64124 0.17981 0.0
C802 C 0.70857 0.66989 0.15552 0.0
H803 H 0.77115 0.63922 0.22328 0.0
H804 H 0.69662 0.60255 0.18164 0.0
C805 C 0.74091 0.7205 0.15527 0.0
C806 C 0.4124 0.64544 0.20378 0.0
C807 C 0.38223 0.59792 0.21648 0.0
H808 H 0.4595 0.6881 0.15391 0.0
C809 C 0.36682 0.55722 0.18529 0.0
H810 H 0.42327 0.67756 0.22734 0.0
C811 C 0.38693 0.56331 0.14289 0.0
C812 C 0.4231 0.61011 0.13168 0.0
H813 H 0.3426 0.52047 0.19442 0.0
H814 H 0.37851 0.53049 0.12055 0.0
C815 C 0.43248 0.65157 0.16163 0.0
C816 C 0.44078 0.42479 0.23371 0.0
C817 C 0.39558 0.38269 0.22378 0.0
H818 H 0.50534 0.4862 0.20996 0.0
C819 C 0.3802 0.37205 0.18091 0.0
H820 H 0.45407 0.43416 0.2663 0.0
C821 C 0.40954 0.40222 0.14879 0.0
C822 C 0.45551 0.44317 0.15849 0.0
H823 H 0.34572 0.34009 0.172 0.0
H824 H 0.39671 0.39287 0.11603 0.0
C825 C 0.47056 0.45444 0.20138 0.0
C826 C 0.84892 0.66421 0.6943 0.0
C827 C 0.88037 0.7065 0.72014 0.0
H828 H 0.84438 0.61084 0.64017 0.0
C829 C 0.93237 0.72677 0.71093 0.0
H830 H 0.80871 0.64773 0.70046 0.0
C831 C 0.95244 0.70633 0.67659 0.0
C832 C 0.92141 0.66451 0.65024 0.0
H833 H 0.95814 0.75917 0.72998 0.0
H834 H 0.99274 0.7236 0.67089 0.0
C835 C 0.86933 0.64322 0.65971 0.0
C836 C 0.40067 0.93747 0.74226 0.0
C837 C 0.39178 0.88775 0.73236 0.0
H838 H 0.43166 1.0098 0.71966 0.0
C839 C 0.40406 0.87224 0.69036 0.0
H840 H 0.39121 0.95041 0.77422 0.0
C841 C 0.42626 0.90577 0.65948 0.0
C842 C 0.43747 0.95568 0.66994 0.0
H843 H 0.39685 0.83409 0.6812 0.0
H844 H 0.43529 0.89272 0.6274 0.0
C845 C 0.42347 0.97131 0.71114 0.0
C846 C 0.15522 0.38766 0.66559 0.0
C847 C 0.19031 0.42679 0.69182 0.0
H848 H 0.10285 0.36718 0.61565 0.0
C849 C 0.19116 0.47365 0.69462 0.0
H850 H 0.1537 0.35108 0.66294 0.0
C851 C 0.16165 0.4826 0.66806 0.0
C852 C 0.13105 0.44495 0.63799 0.0
H853 H 0.21702 0.50415 0.71532 0.0
H854 H 0.16598 0.52006 0.66851 0.0
C855 C 0.12573 0.39671 0.63876 0.0
C856 C 0.78857 0.1833 0.67625 0.0
C857 C 0.77601 0.16676 0.7176 0.0
H858 H 0.76199 0.17611 0.61306 0.0
C859 C 0.7345 0.1211 0.72308 0.0
H860 H 0.82016 0.21855 0.67132 0.0
C861 C 0.70192 0.09603 0.68937 0.0
C862 C 0.70986 0.11724 0.65034 0.0
H863 H 0.72409 0.10775 0.75482 0.0
H864 H 0.66701 0.06429 0.69609 0.0
C865 C 0.75529 0.1589 0.64286 0.0
C866 C 0.85498 0.41806 0.43103 0.0
C867 C 0.8344 0.36706 0.43353 0.0
H868 H 0.91388 0.48758 0.45253 0.0
C869 C 0.84111 0.3489 0.47034 0.0
H870 H 0.84918 0.43265 0.40319 0.0
C871 C 0.87918 0.37975 0.49765 0.0
C872 C 0.90849 0.4287 0.48866 0.0
H873 H 0.82401 0.30948 0.47322 0.0
H874 H 0.88995 0.36384 0.52171 0.0
C875 C 0.89247 0.44929 0.45896 0.0
C876 C 0.57199 0.75851 0.46681 0.0
C877 C 0.60911 0.7697 0.43359 0.0
H878 H 0.54178 0.78626 0.52247 0.0
C879 C 0.6475 0.81828 0.43311 0.0
H880 H 0.54247 0.7213 0.46821 0.0
C881 C 0.64752 0.85555 0.46441 0.0
C882 C 0.60899 0.84469 0.49643 0.0
H883 H 0.67753 0.82747 0.40847 0.0
H884 H 0.67627 0.89302 0.46242 0.0
C885 C 0.57189 0.79567 0.49791 0.0
C886 C 0.17432 0.63904 0.35595 0.0
C887 C 0.19428 0.69072 0.36313 0.0
H888 H 0.13791 0.5709 0.3848 0.0
C889 C 0.18111 0.71279 0.40143 0.0
H890 H 0.18356 0.62133 0.32631 0.0
C891 C 0.1545 0.68366 0.43479 0.0
C892 C 0.14133 0.63287 0.42949 0.0
H893 H 0.19615 0.75265 0.40749 0.0
H894 H 0.14874 0.70132 0.46588 0.0
C895 C 0.14853 0.61025 0.38928 0.0
C896 C 0.60006 0.27231 0.45722 0.0
C897 C 0.57009 0.25034 0.42111 0.0
H898 H 0.62431 0.26072 0.51502 0.0
C899 C 0.55358 0.19918 0.40965 0.0
H900 H 0.61454 0.31147 0.46713 0.0
C901 C 0.5569 0.16955 0.43876 0.0
C902 C 0.57978 0.19126 0.47813 0.0
H903 H 0.53329 0.18125 0.38051 0.0
H904 H 0.53859 0.12971 0.43191 0.0
C905 C 0.60534 0.24293 0.48522 0.0
C906 C 0.61979 0.88643 0.73696 0.0
C907 C 0.58525 0.83626 0.73578 0.0
H908 H 0.64154 0.95549 0.71124 0.0
C909 C 0.54008 0.82019 0.71507 0.0
H910 H 0.65515 0.89993 0.75244 0.0
C911 C 0.53175 0.85239 0.69234 0.0
C912 C 0.56939 0.9007 0.68868 0.0
H913 H 0.51305 0.78174 0.71342 0.0
H914 H 0.4983 0.8377 0.67383 0.0
C915 C 0.61211 0.91832 0.71326 0.0
C916 C 0.69508 0.14919 0.40511 0.0
C917 C 0.74628 0.16063 0.3975 0.0
H918 H 0.62813 0.11398 0.44418 0.0
C919 C 0.7684 0.14217 0.42388 0.0
H920 H 0.67678 0.16329 0.38592 0.0
C921 C 0.74013 0.11337 0.45723 0.0
C922 C 0.68934 0.10325 0.46558 0.0
H923 H 0.80774 0.15056 0.41919 0.0
H924 H 0.75846 0.1001 0.4772 0.0
C925 C 0.66715 0.12128 0.43889 0.0
C926 C 0.87659 0.66294 0.40332 0.0
C927 C 0.90294 0.71099 0.38867 0.0
H928 H 0.87508 0.60583 0.43977 0.0
C929 C 0.95316 0.73674 0.40279 0.0
H930 H 0.83814 0.64063 0.39441 0.0
C931 C 0.97484 0.71635 0.4298 0.0
C932 C 0.9483 0.66826 0.44452 0.0
H933 H 0.97606 0.77365 0.3935 0.0
H934 H 1.01293 0.73902 0.43955 0.0
C935 C 0.89837 0.64241 0.42991 0.0
C936 C 0.41126 0.92425 0.41243 0.0
C937 C 0.37231 0.87675 0.41762 0.0
H938 H 0.46959 0.98951 0.44322 0.0
C939 C 0.35473 0.86411 0.4597 0.0
H940 H 0.42541 0.9353 0.38036 0.0
C941 C 0.3788 0.89588 0.49563 0.0
C942 C 0.42202 0.94056 0.49045 0.0
H943 H 0.32419 0.8283 0.46487 0.0
H944 H 0.36683 0.88298 0.52744 0.0
C945 C 0.43616 0.9558 0.44855 0.0
C946 C 0.19719 0.34891 0.38351 0.0
C947 C 0.24963 0.36577 0.38631 0.0
H948 H 0.13023 0.35819 0.40403 0.0
C949 C 0.27346 0.41014 0.41402 0.0
H950 H 0.17624 0.31536 0.36317 0.0
C951 C 0.24669 0.43576 0.43742 0.0
C952 C 0.19406 0.41833 0.43527 0.0
H953 H 0.31345 0.42542 0.41788 0.0
H954 H 0.26747 0.46904 0.45811 0.0
C955 C 0.17034 0.37403 0.40743 0.0
C956 C 0.41386 0.22519 0.6916 0.0
C957 C 0.42673 0.23804 0.73522 0.0
H958 H 0.42679 0.19248 0.62936 0.0
C959 C 0.46561 0.22965 0.74887 0.0
H960 H 0.38358 0.23063 0.68026 0.0
C961 C 0.49125 0.20902 0.71938 0.0
C962 C 0.47728 0.19478 0.67606 0.0
H963 H 0.47609 0.23893 0.78233 0.0
H964 H 0.52093 0.20271 0.73079 0.0
C965 C 0.43832 0.20307 0.6625 0.0
C966 C 0.94539 0.40297 0.71023 0.0
C967 C 0.89261 0.37794 0.71677 0.0
H968 H 1.00867 0.45378 0.67379 0.0
C969 C 0.86387 0.38789 0.68929 0.0
H970 H 0.96942 0.3973 0.73053 0.0
C971 C 0.88654 0.42134 0.65726 0.0
C972 C 0.93921 0.44616 0.65042 0.0
H973 H 0.82336 0.37003 0.69267 0.0
H974 H 0.86227 0.42744 0.63743 0.0
C975 C 0.96818 0.43585 0.67746 0.0
C976 C 0.22901 0.66331 0.68379 0.0
C977 C 0.23742 0.71039 0.70488 0.0
H978 H 0.19248 0.60586 0.63269 0.0
C979 C 0.21641 0.73654 0.68616 0.0
H980 H 0.24434 0.64163 0.69666 0.0
C981 C 0.1876 0.7165 0.6489 0.0
C982 C 0.17749 0.66879 0.62845 0.0
H983 H 0.22194 0.77294 0.70054 0.0
H984 H 0.17185 0.73833 0.6369 0.0
C985 C 0.19931 0.64275 0.64659 0.0
loop_
_geom_bond_atom_site_label_1
_geom_bond_atom_site_label_2
_geom_bond_distance
_geom_bond_site_symmetry_2
_ccdc_geom_bond_type
Tb0 C10 2.825 . S
Tb0 O11 2.347 . S
Tb0 O14 2.366 . S
Tb0 O19 2.418 . S
Tb0 O20 2.384 . S
Tb0 O23 2.479 . S
Tb0 O24 2.471 . S
Eu1 O12 2.418 . S
Eu1 O13 2.384 . S
Eu1 O16 2.479 . S
Eu1 O17 2.471 . S
Eu1 O18 2.347 . S
Eu1 O21 2.366 . S
Eu1 C31 2.825 . S
C2 O18 1.259 . S
C2 O19 1.265 . S
C3 O20 1.255 . S
C3 O21 1.265 . S
C4 C6 1.380 . S
C4 C7 1.374 . S
C4 C10 1.507 . S
C5 C6 1.384 . S
C5 C9 1.387 . S
C5 H32 0.930 . S
C6 C4 1.380 . S
C6 C5 1.384 . S
C6 H33 0.931 . S
C7 C4 1.374 . S
C7 C8 1.390 . S
C7 H34 0.930 . S
C8 C7 1.390 . S
C8 C9 1.391 . S
C8 H35 0.930 . S
C9 C5 1.387 . S
C9 C8 1.391 . S
C10 Tb0 2.825 . S
C10 C4 1.507 . S
C10 O23 1.238 . S
C10 O24 1.247 . S
O11 Tb0 2.347 . S
O11 C15 1.259 . S
O12 Eu1 2.418 . S
O12 C15 1.265 . S
O13 Eu1 2.384 . S
O13 C22 1.255 . S
O14 Tb0 2.366 . S
O14 C22 1.265 . S
C15 O11 1.259 . S
C15 O12 1.265 . S
O16 Eu1 2.479 . S
O16 C31 1.238 . S
O17 Eu1 2.471 . S
O17 C31 1.247 . S
O18 Eu1 2.347 . S
O18 C2 1.259 . S
O19 Tb0 2.418 . S
O19 C2 1.265 . S
O20 Tb0 2.384 . S
O20 C3 1.255 . S
O21 Eu1 2.366 . S
O21 C3 1.265 . S
C22 O13 1.255 . S
C22 O14 1.265 . S
O23 Tb0 2.479 . S
O23 C10 1.238 . S
O24 Tb0 2.471 . S
O24 C10 1.247 . S
C25 C28 1.380 . S
C25 C29 1.374 . S
C25 C31 1.507 . S
C26 C27 1.387 . S
C26 C30 1.391 . S
C27 C26 1.387 . S
C27 C28 1.384 . S
C27 H36 0.930 . S
C28 C25 1.380 . S
C28 C27 1.384 . S
C28 H37 0.931 . S
C29 C25 1.374 . S
C29 C30 1.390 . S
C29 H38 0.930 . S
C30 C26 1.391 . S
C30 C29 1.390 . S
C30 H39 0.930 . S
C31 Eu1 2.825 . S
C31 O16 1.238 . S
C31 O17 1.247 . S
C31 C25 1.507 . S
H32 C5 0.930 . S
H33 C6 0.931 . S
H34 C7 0.930 . S
H35 C8 0.930 . S
H36 C27 0.930 . S
H37 C28 0.931 . S
H38 C29 0.930 . S
H39 C30 0.930 . S
Tb40 C50 2.825 . S
Tb40 O51 2.347 . S
Tb40 O54 2.366 . S
Tb40 O59 2.418 . S
Tb40 O60 2.384 . S
Tb40 O63 2.479 . S
Tb40 O64 2.471 . S
Eu41 O52 2.418 . S
Eu41 O53 2.384 . S
Eu41 O56 2.479 . S
Eu41 O57 2.471 . S
Eu41 O58 2.347 . S
Eu41 O61 2.366 . S
Eu41 C71 2.825 . S
C42 O58 1.259 . S
C42 O59 1.265 . S
C43 O60 1.255 . S
C43 O61 1.265 . S
C44 C46 1.380 . S
C44 C47 1.374 . S
C44 C50 1.507 . S
C45 C46 1.384 . S
C45 C49 1.387 . S
C45 H72 0.930 . S
C46 C44 1.380 . S
C46 C45 1.384 . S
C46 H73 0.931 . S
C47 C44 1.374 . S
C47 C48 1.390 . S
C47 H74 0.930 . S
C48 C47 1.390 . S
C48 C49 1.391 . S
C48 H75 0.930 . S
C49 C45 1.387 . S
C49 C48 1.391 . S
C50 Tb40 2.825 . S
C50 C44 1.507 . S
C50 O63 1.238 . S
C50 O64 1.247 . S
O51 Tb40 2.347 . S
O51 C55 1.259 . S
O52 Eu41 2.418 . S
O52 C55 1.265 . S
O53 Eu41 2.384 . S
O53 C62 1.255 . S
O54 Tb40 2.366 . S
O54 C62 1.265 . S
C55 O51 1.259 . S
C55 O52 1.265 . S
O56 Eu41 2.479 . S
O56 C71 1.238 . S
O57 Eu41 2.471 . S
O57 C71 1.247 . S
O58 Eu41 2.347 . S
O58 C42 1.259 . S
O59 Tb40 2.418 . S
O59 C42 1.265 . S
O60 Tb40 2.384 . S
O60 C43 1.255 . S
O61 Eu41 2.366 . S
O61 C43 1.265 . S
C62 O53 1.255 . S
C62 O54 1.265 . S
O63 Tb40 2.479 . S
O63 C50 1.238 . S
O64 Tb40 2.471 . S
O64 C50 1.247 . S
C65 C68 1.380 . S
C65 C69 1.374 . S
C65 C71 1.507 . S
C66 C67 1.387 . S
C66 C70 1.391 . S
C67 C66 1.387 . S
C67 C68 1.384 . S
C67 H76 0.930 . S
C68 C65 1.380 . S
C68 C67 1.384 . S
C68 H77 0.931 . S
C69 C65 1.374 . S
C69 C70 1.390 . S
C69 H78 0.930 . S
C70 C66 1.391 . S
C70 C69 1.390 . S
C70 H79 0.930 . S
C71 Eu41 2.825 . S
C71 O56 1.238 . S
C71 O57 1.247 . S
C71 C65 1.507 . S
H72 C45 0.930 . S
H73 C46 0.931 . S
H74 C47 0.930 . S
H75 C48 0.930 . S
H76 C67 0.930 . S
H77 C68 0.931 . S
H78 C69 0.930 . S
H79 C70 0.930 . S
Tb80 C90 2.825 . S
Tb80 O91 2.347 . S
Tb80 O94 2.366 . S
Tb80 O99 2.418 . S
Tb80 O100 2.384 . S
Tb80 O103 2.479 . S
Tb80 O104 2.471 . S
Eu81 O92 2.418 . S
Eu81 O93 2.384 . S
Eu81 O96 2.479 . S
Eu81 O97 2.471 . S
Eu81 O98 2.347 . S
Eu81 O101 2.366 . S
Eu81 C111 2.825 . S
C82 O98 1.259 . S
C82 O99 1.265 . S
C83 O100 1.255 . S
C83 O101 1.265 . S
C84 C86 1.380 . S
C84 C87 1.374 . S
C84 C90 1.507 . S
C85 C86 1.384 . S
C85 C89 1.387 . S
C85 H112 0.930 . S
C86 C84 1.380 . S
C86 C85 1.384 . S
C86 H113 0.931 . S
C87 C84 1.374 . S
C87 C88 1.390 . S
C87 H114 0.930 . S
C88 C87 1.390 . S
C88 C89 1.391 . S
C88 H115 0.930 . S
C89 C85 1.387 . S
C89 C88 1.391 . S
C90 Tb80 2.825 . S
C90 C84 1.507 . S
C90 O103 1.238 . S
C90 O104 1.247 . S
O91 Tb80 2.347 . S
O91 C95 1.259 . S
O92 Eu81 2.418 . S
O92 C95 1.265 . S
O93 Eu81 2.384 . S
O93 C102 1.255 . S
O94 Tb80 2.366 . S
O94 C102 1.265 . S
C95 O91 1.259 . S
C95 O92 1.265 . S
O96 Eu81 2.479 . S
O96 C111 1.238 . S
O97 Eu81 2.471 . S
O97 C111 1.247 . S
O98 Eu81 2.347 . S
O98 C82 1.259 . S
O99 Tb80 2.418 . S
O99 C82 1.265 . S
O100 Tb80 2.384 . S
O100 C83 1.255 . S
O101 Eu81 2.366 . S
O101 C83 1.265 . S
C102 O93 1.255 . S
C102 O94 1.265 . S
O103 Tb80 2.479 . S
O103 C90 1.238 . S
O104 Tb80 2.471 . S
O104 C90 1.247 . S
C105 C108 1.380 . S
C105 C109 1.374 . S
C105 C111 1.507 . S
C106 C107 1.387 . S
C106 C110 1.391 . S
C107 C106 1.387 . S
C107 C108 1.384 . S
C107 H116 0.930 1_655 S
C108 C105 1.380 . S
C108 C107 1.384 . S
C108 H117 0.931 . S
C109 C105 1.374 . S
C109 C110 1.390 . S
C109 H118 0.930 . S
C110 C106 1.391 . S
C110 C109 1.390 . S
C110 H119 0.930 . S
C111 Eu81 2.825 . S
C111 O96 1.238 . S
C111 O97 1.247 . S
C111 C105 1.507 . S
H112 C85 0.930 . S
H113 C86 0.931 . S
H114 C87 0.930 . S
H115 C88 0.930 . S
H116 C107 0.930 1_455 S
H117 C108 0.931 . S
H118 C109 0.930 . S
H119 C110 0.930 . S
Tb120 C130 2.825 . S
Tb120 O131 2.347 . S
Tb120 O134 2.366 . S
Tb120 O139 2.418 . S
Tb120 O140 2.384 . S
Tb120 O143 2.479 . S
Tb120 O144 2.471 . S
Eu121 O132 2.418 . S
Eu121 O133 2.384 . S
Eu121 O136 2.479 . S
Eu121 O137 2.471 . S
Eu121 O138 2.347 . S
Eu121 O141 2.366 . S
Eu121 C151 2.825 . S
C122 O138 1.259 . S
C122 O139 1.265 . S
C123 O140 1.255 . S
C123 O141 1.265 . S
C124 C126 1.380 . S
C124 C127 1.374 . S
C124 C130 1.507 . S
C125 C126 1.384 . S
C125 C129 1.387 . S
C125 H152 0.930 . S
C126 C124 1.380 . S
C126 C125 1.384 . S
C126 H153 0.931 . S
C127 C124 1.374 . S
C127 C128 1.390 . S
C127 H154 0.930 . S
C128 C127 1.390 . S
C128 C129 1.391 . S
C128 H155 0.930 . S
C129 C125 1.387 . S
C129 C128 1.391 . S
C130 Tb120 2.825 . S
C130 C124 1.507 . S
C130 O143 1.238 . S
C130 O144 1.247 . S
O131 Tb120 2.347 . S
O131 C135 1.259 . S
O132 Eu121 2.418 . S
O132 C135 1.265 . S
O133 Eu121 2.384 . S
O133 C142 1.255 . S
O134 Tb120 2.366 . S
O134 C142 1.265 . S
C135 O131 1.259 . S
C135 O132 1.265 . S
O136 Eu121 2.479 . S
O136 C151 1.238 . S
O137 Eu121 2.471 . S
O137 C151 1.247 . S
O138 Eu121 2.347 . S
O138 C122 1.259 . S
O139 Tb120 2.418 . S
O139 C122 1.265 . S
O140 Tb120 2.384 . S
O140 C123 1.255 . S
O141 Eu121 2.366 . S
O141 C123 1.265 . S
C142 O133 1.255 . S
C142 O134 1.265 . S
O143 Tb120 2.479 . S
O143 C130 1.238 . S
O144 Tb120 2.471 . S
O144 C130 1.247 . S
C145 C148 1.380 . S
C145 C149 1.374 . S
C145 C151 1.507 . S
C146 C147 1.387 . S
C146 C150 1.391 . S
C147 C146 1.387 . S
C147 C148 1.384 . S
C147 H156 0.930 . S
C148 C145 1.380 . S
C148 C147 1.384 . S
C148 H157 0.931 . S
C149 C145 1.374 . S
C149 C150 1.390 . S
C149 H158 0.930 . S
C150 C146 1.391 . S
C150 C149 1.390 . S
C150 H159 0.930 . S
C151 Eu121 2.825 . S
C151 O136 1.238 . S
C151 O137 1.247 . S
C151 C145 1.507 . S
H152 C125 0.930 . S
H153 C126 0.931 . S
H154 C127 0.930 . S
H155 C128 0.930 . S
H156 C147 0.930 . S
H157 C148 0.931 . S
H158 C149 0.930 . S
H159 C150 0.930 . S
Tb160 C170 2.825 . S
Tb160 O171 2.347 . S
Tb160 O174 2.366 . S
Tb160 O179 2.418 . S
Tb160 O180 2.384 . S
Tb160 O183 2.479 . S
Tb160 O184 2.471 . S
Eu161 O172 2.418 . S
Eu161 O173 2.384 . S
Eu161 O176 2.479 . S
Eu161 O177 2.471 . S
Eu161 O178 2.347 . S
Eu161 O181 2.366 . S
Eu161 C191 2.825 . S
C162 O178 1.259 . S
C162 O179 1.265 . S
C163 O180 1.255 . S
C163 O181 1.265 . S
C164 C166 1.380 . S
C164 C167 1.374 . S
C164 C170 1.507 . S
C165 C166 1.384 . S
C165 C169 1.387 . S
C165 H192 0.930 . S
C166 C164 1.380 . S
C166 C165 1.384 . S
C166 H193 0.931 . S
C167 C164 1.374 . S
C167 C168 1.390 . S
C167 H194 0.930 . S
C168 C167 1.390 . S
C168 C169 1.391 . S
C168 H195 0.930 . S
C169 C165 1.387 . S
C169 C168 1.391 . S
C170 Tb160 2.825 . S
C170 C164 1.507 . S
C170 O183 1.238 . S
C170 O184 1.247 . S
O171 Tb160 2.347 . S
O171 C175 1.259 . S
O172 Eu161 2.418 . S
O172 C175 1.265 . S
O173 Eu161 2.384 . S
O173 C182 1.255 . S
O174 Tb160 2.366 . S
O174 C182 1.265 . S
C175 O171 1.259 . S
C175 O172 1.265 . S
O176 Eu161 2.479 . S
O176 C191 1.238 . S
O177 Eu161 2.471 . S
O177 C191 1.247 . S
O178 Eu161 2.347 . S
O178 C162 1.259 . S
O179 Tb160 2.418 . S
O179 C162 1.265 . S
O180 Tb160 2.384 . S
O180 C163 1.255 . S
O181 Eu161 2.366 . S
O181 C163 1.265 . S
C182 O173 1.255 . S
C182 O174 1.265 . S
O183 Tb160 2.479 . S
O183 C170 1.238 . S
O184 Tb160 2.471 . S
O184 C170 1.247 . S
C185 C188 1.380 . S
C185 C189 1.374 . S
C185 C191 1.507 . S
C186 C187 1.387 . S
C186 C190 1.391 . S
C187 C186 1.387 . S
C187 C188 1.384 . S
C187 H196 0.930 . S
C188 C185 1.380 . S
C188 C187 1.384 . S
C188 H197 0.931 . S
C189 C185 1.374 . S
C189 C190 1.390 . S
C189 H198 0.930 . S
C190 C186 1.391 . S
C190 C189 1.390 . S
C190 H199 0.930 . S
C191 Eu161 2.825 . S
C191 O176 1.238 . S
C191 O177 1.247 . S
C191 C185 1.507 . S
H192 C165 0.930 . S
H193 C166 0.931 . S
H194 C167 0.930 . S
H195 C168 0.930 . S
H196 C187 0.930 . S
H197 C188 0.931 . S
H198 C189 0.930 . S
H199 C190 0.930 . S
Tb200 C210 2.825 . S
Tb200 O211 2.347 . S
Tb200 O214 2.366 . S
Tb200 O219 2.418 . S
Tb200 O220 2.384 . S
Tb200 O223 2.479 . S
Tb200 O224 2.471 . S
Eu201 O212 2.418 . S
Eu201 O213 2.384 . S
Eu201 O216 2.479 . S
Eu201 O217 2.471 . S
Eu201 O218 2.347 . S
Eu201 O221 2.366 . S
Eu201 C231 2.825 . S
C202 O218 1.259 . S
C202 O219 1.265 . S
C203 O220 1.255 . S
C203 O221 1.265 . S
C204 C206 1.380 . S
C204 C207 1.374 . S
C204 C210 1.507 . S
C205 C206 1.384 . S
C205 C209 1.387 . S
C205 H232 0.930 . S
C206 C204 1.380 . S
C206 C205 1.384 . S
C206 H233 0.931 . S
C207 C204 1.374 . S
C207 C208 1.390 . S
C207 H234 0.930 . S
C208 C207 1.390 . S
C208 C209 1.391 . S
C208 H235 0.930 . S
C209 C205 1.387 . S
C209 C208 1.391 . S
C210 Tb200 2.825 . S
C210 C204 1.507 . S
C210 O223 1.238 . S
C210 O224 1.247 . S
O211 Tb200 2.347 . S
O211 C215 1.259 . S
O212 Eu201 2.418 . S
O212 C215 1.265 . S
O213 Eu201 2.384 . S
O213 C222 1.255 . S
O214 Tb200 2.366 . S
O214 C222 1.265 . S
C215 O211 1.259 . S
C215 O212 1.265 . S
O216 Eu201 2.479 . S
O216 C231 1.238 . S
O217 Eu201 2.471 . S
O217 C231 1.247 . S
O218 Eu201 2.347 . S
O218 C202 1.259 . S
O219 Tb200 2.418 . S
O219 C202 1.265 . S
O220 Tb200 2.384 . S
O220 C203 1.255 . S
O221 Eu201 2.366 . S
O221 C203 1.265 . S
C222 O213 1.255 . S
C222 O214 1.265 . S
O223 Tb200 2.479 . S
O223 C210 1.238 . S
O224 Tb200 2.471 . S
O224 C210 1.247 . S
C225 C228 1.380 . S
C225 C229 1.374 . S
C225 C231 1.507 . S
C226 C227 1.387 . S
C226 C230 1.391 . S
C227 C226 1.387 . S
C227 C228 1.384 . S
C227 H236 0.930 . S
C228 C225 1.380 . S
C228 C227 1.384 . S
C228 H237 0.931 . S
C229 C225 1.374 . S
C229 C230 1.390 . S
C229 H238 0.930 . S
C230 C226 1.391 . S
C230 C229 1.390 . S
C230 H239 0.930 . S
C231 Eu201 2.825 . S
C231 O216 1.238 . S
C231 O217 1.247 . S
C231 C225 1.507 . S
H232 C205 0.930 . S
H233 C206 0.931 . S
H234 C207 0.930 . S
H235 C208 0.930 . S
H236 C227 0.930 . S
H237 C228 0.931 . S
H238 C229 0.930 . S
H239 C230 0.930 . S
Tb240 C250 2.825 . S
Tb240 O251 2.347 . S
Tb240 O254 2.366 . S
Tb240 O259 2.418 . S
Tb240 O260 2.384 . S
Tb240 O263 2.479 . S
Tb240 O264 2.471 . S
Eu241 O252 2.418 . S
Eu241 O253 2.384 . S
Eu241 O256 2.479 . S
Eu241 O257 2.471 . S
Eu241 O258 2.347 . S
Eu241 O261 2.366 . S
Eu241 C271 2.825 . S
C242 O258 1.259 . S
C242 O259 1.265 . S
C243 O260 1.255 . S
C243 O261 1.265 . S
C244 C246 1.380 . S
C244 C247 1.374 . S
C244 C250 1.507 . S
C245 C246 1.384 . S
C245 C249 1.387 . S
C245 H272 0.930 . S
C246 C244 1.380 . S
C246 C245 1.384 . S
C246 H273 0.931 . S
C247 C244 1.374 . S
C247 C248 1.390 . S
C247 H274 0.930 . S
C248 C247 1.390 . S
C248 C249 1.391 . S
C248 H275 0.930 . S
C249 C245 1.387 . S
C249 C248 1.391 . S
C250 Tb240 2.825 . S
C250 C244 1.507 . S
C250 O263 1.238 . S
C250 O264 1.247 . S
O251 Tb240 2.347 . S
O251 C255 1.259 . S
O252 Eu241 2.418 . S
O252 C255 1.265 . S
O253 Eu241 2.384 . S
O253 C262 1.255 . S
O254 Tb240 2.366 . S
O254 C262 1.265 . S
C255 O251 1.259 . S
C255 O252 1.265 . S
O256 Eu241 2.479 . S
O256 C271 1.238 . S
O257 Eu241 2.471 . S
O257 C271 1.247 . S
O258 Eu241 2.347 . S
O258 C242 1.259 . S
O259 Tb240 2.418 . S
O259 C242 1.265 . S
O260 Tb240 2.384 . S
O260 C243 1.255 . S
O261 Eu241 2.366 . S
O261 C243 1.265 . S
C262 O253 1.255 . S
C262 O254 1.265 . S
O263 Tb240 2.479 . S
O263 C250 1.238 . S
O264 Tb240 2.471 . S
O264 C250 1.247 . S
C265 C268 1.380 . S
C265 C269 1.374 . S
C265 C271 1.507 . S
C266 C267 1.387 . S
C266 C270 1.391 . S
C267 C266 1.387 . S
C267 C268 1.384 . S
C267 H276 0.930 . S
C268 C265 1.380 . S
C268 C267 1.384 . S
C268 H277 0.931 . S
C269 C265 1.374 . S
C269 C270 1.390 . S
C269 H278 0.930 . S
C270 C266 1.391 . S
C270 C269 1.390 . S
C270 H279 0.930 . S
C271 Eu241 2.825 . S
C271 O256 1.238 . S
C271 O257 1.247 . S
C271 C265 1.507 . S
H272 C245 0.930 . S
H273 C246 0.931 . S
H274 C247 0.930 . S
H275 C248 0.930 . S
H276 C267 0.930 . S
H277 C268 0.931 . S
H278 C269 0.930 . S
H279 C270 0.930 . S
Tb280 C290 2.825 . S
Tb280 O291 2.347 . S
Tb280 O294 2.366 . S
Tb280 O299 2.418 . S
Tb280 O300 2.384 . S
Tb280 O303 2.479 . S
Tb280 O304 2.471 . S
Eu281 O292 2.418 . S
Eu281 O293 2.384 . S
Eu281 O296 2.479 . S
Eu281 O297 2.471 . S
Eu281 O298 2.347 . S
Eu281 O301 2.366 . S
Eu281 C311 2.825 . S
C282 O298 1.259 . S
C282 O299 1.265 . S
C283 O300 1.255 . S
C283 O301 1.265 . S
C284 C286 1.380 . S
C284 C287 1.374 . S
C284 C290 1.507 . S
C285 C286 1.384 . S
C285 C289 1.387 . S
C285 H312 0.930 . S
C286 C284 1.380 . S
C286 C285 1.384 . S
C286 H313 0.931 . S
C287 C284 1.374 . S
C287 C288 1.390 . S
C287 H314 0.930 . S
C288 C287 1.390 . S
C288 C289 1.391 . S
C288 H315 0.930 . S
C289 C285 1.387 . S
C289 C288 1.391 . S
C290 Tb280 2.825 . S
C290 C284 1.507 . S
C290 O303 1.238 . S
C290 O304 1.247 . S
O291 Tb280 2.347 . S
O291 C295 1.259 . S
O292 Eu281 2.418 . S
O292 C295 1.265 . S
O293 Eu281 2.384 . S
O293 C302 1.255 . S
O294 Tb280 2.366 . S
O294 C302 1.265 . S
C295 O291 1.259 . S
C295 O292 1.265 . S
O296 Eu281 2.479 . S
O296 C311 1.238 . S
O297 Eu281 2.471 . S
O297 C311 1.247 . S
O298 Eu281 2.347 . S
O298 C282 1.259 . S
O299 Tb280 2.418 . S
O299 C282 1.265 . S
O300 Tb280 2.384 . S
O300 C283 1.255 . S
O301 Eu281 2.366 . S
O301 C283 1.265 . S
C302 O293 1.255 . S
C302 O294 1.265 . S
O303 Tb280 2.479 . S
O303 C290 1.238 . S
O304 Tb280 2.471 . S
O304 C290 1.247 . S
C305 C308 1.380 . S
C305 C309 1.374 . S
C305 C311 1.507 . S
C306 C307 1.387 . S
C306 C310 1.391 . S
C307 C306 1.387 . S
C307 C308 1.384 . S
C307 H316 0.930 . S
C308 C305 1.380 . S
C308 C307 1.384 . S
C308 H317 0.931 . S
C309 C305 1.374 . S
C309 C310 1.390 . S
C309 H318 0.930 . S
C310 C306 1.391 . S
C310 C309 1.390 . S
C310 H319 0.930 . S
C311 Eu281 2.825 . S
C311 O296 1.238 . S
C311 O297 1.247 . S
C311 C305 1.507 . S
H312 C285 0.930 . S
H313 C286 0.931 . S
H314 C287 0.930 . S
H315 C288 0.930 . S
H316 C307 0.930 . S
H317 C308 0.931 . S
H318 C309 0.930 . S
H319 C310 0.930 . S
C320 O332 1.241 . S
C320 O333 1.280 . S
C321 O334 1.277 . S
C321 O335 1.248 . S
C322 O346 1.247 . S
C322 O348 1.289 . S
Mg323 O324 1.926 1_455 S
Mg323 O333 1.984 1_455 S
Mg323 O335 1.986 1_455 S
Mg323 O336 2.061 . S
O324 Mg323 1.926 1_655 S
O324 Mg325 1.986 . S
O324 Mg326 1.917 1_655 S
Mg325 O324 1.986 . S
Mg325 O332 2.042 . S
Mg325 O334 2.041 . S
Mg325 O340 2.038 1_545 S
Mg325 O348 2.238 1_545 S
Mg326 O324 1.917 1_455 S
Mg326 O327 1.917 1_545 S
Mg326 O337 2.106 . S
Mg326 O339 2.079 1_445 S
Mg326 O348 2.106 1_445 S
Mg326 O349 2.079 . S
O327 Mg326 1.917 1_565 S
O327 Mg328 1.926 . S
O327 Mg329 1.986 1_565 S
Mg328 O327 1.926 . S
Mg328 O342 1.984 . S
Mg328 O345 1.988 . S
Mg328 O346 2.061 1_455 S
Mg329 O327 1.986 1_545 S
Mg329 O337 2.238 . S
Mg329 O341 2.042 1_545 S
Mg329 O343 2.041 1_545 S
Mg329 O350 2.038 . S
C330 O336 1.247 . S
C330 O337 1.289 . S
C331 O349 1.245 . S
C331 O350 1.274 . S
O332 C320 1.241 . S
O332 Mg325 2.042 . S
O333 C320 1.280 . S
O333 Mg323 1.984 1_655 S
O334 C321 1.277 . S
O334 Mg325 2.041 . S
O335 C321 1.248 . S
O335 Mg323 1.986 1_655 S
O336 Mg323 2.061 . S
O336 C330 1.247 . S
O337 Mg326 2.106 . S
O337 Mg329 2.238 . S
O337 C330 1.289 . S
C338 O339 1.245 . S
C338 O340 1.274 . S
O339 Mg326 2.079 1_665 S
O339 C338 1.245 . S
O340 Mg325 2.038 1_565 S
O340 C338 1.274 . S
O341 Mg329 2.042 1_565 S
O341 C344 1.241 . S
O342 Mg328 1.984 . S
O342 C344 1.280 . S
O343 Mg329 2.041 1_565 S
O343 C347 1.277 . S
C344 O341 1.241 . S
C344 O342 1.280 . S
O345 Mg328 1.988 . S
O345 C347 1.245 . S
O346 C322 1.247 . S
O346 Mg328 2.061 1_655 S
C347 O343 1.277 . S
C347 O345 1.245 . S
O348 C322 1.289 . S
O348 Mg325 2.238 1_565 S
O348 Mg326 2.106 1_665 S
O349 Mg326 2.079 . S
O349 C331 1.245 . S
O350 Mg329 2.038 . S
O350 C331 1.274 . S
C351 O363 1.241 . S
C351 O364 1.280 . S
C352 O365 1.277 . S
C352 O366 1.245 . S
C353 O377 1.247 . S
C353 O379 1.289 1_556 S
Mg354 O355 1.926 . S
Mg354 O364 1.984 . S
Mg354 O366 1.988 . S
Mg354 O367 2.061 . S
O355 Mg354 1.926 . S
O355 Mg356 1.986 1_545 S
O355 Mg357 1.917 . S
Mg356 O355 1.986 1_565 S
Mg356 O363 2.042 1_565 S
Mg356 O365 2.041 1_565 S
Mg356 O371 2.038 . S
Mg356 O379 2.238 . S
Mg357 O355 1.917 . S
Mg357 O358 1.917 1_545 S
Mg357 O368 2.106 . S
Mg357 O370 2.079 1_545 S
Mg357 O379 2.106 1_545 S
Mg357 O380 2.079 . S
O358 Mg357 1.917 1_565 S
O358 Mg359 1.926 . S
O358 Mg360 1.986 1_565 S
Mg359 O358 1.926 . S
Mg359 O373 1.984 1_554 S
Mg359 O376 1.988 . S
Mg359 O377 2.061 1_554 S
Mg360 O358 1.986 1_545 S
Mg360 O368 2.238 . S
Mg360 O372 2.042 1_545 S
Mg360 O374 2.041 1_545 S
Mg360 O381 2.038 . S
C361 O367 1.247 . S
C361 O368 1.289 . S
C362 O380 1.245 1_556 S
C362 O381 1.274 1_556 S
O363 C351 1.241 . S
O363 Mg356 2.042 1_545 S
O364 C351 1.280 . S
O364 Mg354 1.984 . S
O365 C352 1.277 . S
O365 Mg356 2.041 1_545 S
O366 C352 1.245 . S
O366 Mg354 1.988 . S
O367 Mg354 2.061 . S
O367 C361 1.247 . S
O368 Mg357 2.106 . S
O368 Mg360 2.238 . S
O368 C361 1.289 . S
C369 O370 1.245 . S
C369 O371 1.274 . S
O370 Mg357 2.079 1_565 S
O370 C369 1.245 . S
O371 Mg356 2.038 . S
O371 C369 1.274 . S
O372 Mg360 2.042 1_565 S
O372 C375 1.241 1_554 S
O373 Mg359 1.984 1_556 S
O373 C375 1.280 . S
O374 Mg360 2.041 1_565 S
O374 C378 1.277 . S
C375 O372 1.241 1_556 S
C375 O373 1.280 . S
O376 Mg359 1.988 . S
O376 C378 1.245 . S
O377 C353 1.247 . S
O377 Mg359 2.061 1_556 S
C378 O374 1.277 . S
C378 O376 1.245 . S
O379 C353 1.289 1_554 S
O379 Mg356 2.238 . S
O379 Mg357 2.106 1_565 S
O380 Mg357 2.079 . S
O380 C362 1.245 1_554 S
O381 Mg360 2.038 . S
O381 C362 1.274 1_554 S
C382 O394 1.241 . S
C382 O395 1.280 . S
C383 O396 1.277 . S
C383 O397 1.245 1_655 S
C384 O408 1.247 . S
C384 O410 1.289 . S
Mg385 O386 1.926 . S
Mg385 O395 1.984 1_455 S
Mg385 O397 1.988 1_554 S
Mg385 O398 2.061 . S
O386 Mg385 1.926 . S
O386 Mg387 1.986 1_455 S
O386 Mg388 1.917 . S
Mg387 O386 1.986 1_655 S
Mg387 O394 2.042 . S
Mg387 O396 2.041 1_554 S
Mg387 O402 2.038 . S
Mg387 O410 2.238 1_554 S
Mg388 O386 1.917 . S
Mg388 O389 1.917 1_554 S
Mg388 O399 2.106 . S
Mg388 O401 2.079 . S
Mg388 O410 2.106 1_454 S
Mg388 O411 2.079 1_554 S
O389 Mg388 1.917 1_556 S
O389 Mg390 1.926 . S
O389 Mg391 1.986 1_556 S
Mg390 O389 1.926 . S
Mg390 O404 1.984 . S
Mg390 O407 1.988 1_556 S
Mg390 O408 2.061 1_455 S
Mg391 O389 1.986 1_554 S
Mg391 O399 2.238 . S
Mg391 O403 2.042 1_554 S
Mg391 O405 2.041 . S
Mg391 O412 2.038 1_554 S
C392 O398 1.247 . S
C392 O399 1.289 . S
C393 O411 1.245 . S
C393 O412 1.274 . S
O394 C382 1.241 . S
O394 Mg387 2.042 . S
O395 C382 1.280 . S
O395 Mg385 1.984 1_655 S
O396 C383 1.277 . S
O396 Mg387 2.041 1_556 S
O397 C383 1.245 1_455 S
O397 Mg385 1.988 1_556 S
O398 Mg385 2.061 . S
O398 C392 1.247 . S
O399 Mg388 2.106 . S
O399 Mg391 2.238 . S
O399 C392 1.289 . S
C400 O401 1.245 1_655 S
C400 O402 1.274 . S
O401 Mg388 2.079 . S
O401 C400 1.245 1_455 S
O402 Mg387 2.038 . S
O402 C400 1.274 . S
O403 Mg391 2.042 1_556 S
O403 C406 1.241 . S
O404 Mg390 1.984 . S
O404 C406 1.280 . S
O405 Mg391 2.041 . S
O405 C409 1.277 . S
C406 O403 1.241 . S
C406 O404 1.280 . S
O407 Mg390 1.988 1_554 S
O407 C409 1.245 . S
O408 C384 1.247 . S
O408 Mg390 2.061 1_655 S
C409 O405 1.277 . S
C409 O407 1.245 . S
O410 C384 1.289 . S
O410 Mg387 2.238 1_556 S
O410 Mg388 2.106 1_656 S
O411 Mg388 2.079 1_556 S
O411 C393 1.245 . S
O412 Mg391 2.038 1_556 S
O412 C393 1.274 . S
C413 O425 1.241 . S
C413 O426 1.280 . S
C414 O427 1.277 . S
C414 O428 1.245 1_556 S
C415 O439 1.247 . S
C415 O441 1.289 . S
Mg416 O417 1.926 . S
Mg416 O426 1.984 . S
Mg416 O428 1.988 . S
Mg416 O429 2.061 . S
O417 Mg416 1.926 . S
O417 Mg418 1.986 . S
O417 Mg419 1.917 . S
Mg418 O417 1.986 . S
Mg418 O425 2.042 . S
Mg418 O427 2.041 1_554 S
Mg418 O433 2.038 . S
Mg418 O441 2.238 1_554 S
Mg419 O417 1.917 . S
Mg419 O420 1.917 . S
Mg419 O430 2.106 . S
Mg419 O432 2.079 . S
Mg419 O441 2.106 1_554 S
Mg419 O442 2.079 1_554 S
O420 Mg419 1.917 . S
O420 Mg421 1.926 . S
O420 Mg422 1.986 . S
Mg421 O420 1.926 . S
Mg421 O435 1.984 1_554 S
Mg421 O438 1.988 . S
Mg421 O439 2.061 1_554 S
Mg422 O420 1.986 . S
Mg422 O430 2.238 . S
Mg422 O434 2.042 1_554 S
Mg422 O436 2.041 . S
Mg422 O443 2.038 1_554 S
C423 O429 1.247 . S
C423 O430 1.289 . S
C424 O442 1.245 . S
C424 O443 1.274 . S
O425 C413 1.241 . S
O425 Mg418 2.042 . S
O426 C413 1.280 . S
O426 Mg416 1.984 . S
O427 C414 1.277 . S
O427 Mg418 2.041 1_556 S
O428 C414 1.245 1_554 S
O428 Mg416 1.988 . S
O429 Mg416 2.061 . S
O429 C423 1.247 . S
O430 Mg419 2.106 . S
O430 Mg422 2.238 . S
O430 C423 1.289 . S
C431 O432 1.245 . S
C431 O433 1.274 . S
O432 Mg419 2.079 . S
O432 C431 1.245 . S
O433 Mg418 2.038 . S
O433 C431 1.274 . S
O434 Mg422 2.042 1_556 S
O434 C437 1.241 . S
O435 Mg421 1.984 1_556 S
O435 C437 1.280 . S
O436 Mg422 2.041 . S
O436 C440 1.277 . S
C437 O434 1.241 . S
C437 O435 1.280 . S
O438 Mg421 1.988 . S
O438 C440 1.245 . S
O439 C415 1.247 . S
O439 Mg421 2.061 1_556 S
C440 O436 1.277 . S
C440 O438 1.245 . S
O441 C415 1.289 . S
O441 Mg418 2.238 1_556 S
O441 Mg419 2.106 1_556 S
O442 Mg419 2.079 1_556 S
O442 C424 1.245 . S
O443 Mg422 2.038 1_556 S
O443 C424 1.274 . S
C444 O456 1.241 . S
C444 O457 1.280 . S
C445 O458 1.277 . S
C445 O459 1.245 . S
C446 O470 1.247 . S
C446 O472 1.289 . S
Mg447 O448 1.926 1_455 S
Mg447 O457 1.984 1_455 S
Mg447 O459 1.988 1_455 S
Mg447 O460 2.061 . S
O448 Mg447 1.926 1_655 S
O448 Mg449 1.986 . S
O448 Mg450 1.917 1_655 S
Mg449 O448 1.986 . S
Mg449 O456 2.042 . S
Mg449 O458 2.041 . S
Mg449 O464 2.038 . S
Mg449 O472 2.238 . S
Mg450 O448 1.917 1_455 S
Mg450 O451 1.917 . S
Mg450 O461 2.106 . S
Mg450 O463 2.079 1_455 S
Mg450 O472 2.106 1_455 S
Mg450 O473 2.079 . S
O451 Mg450 1.917 . S
O451 Mg452 1.926 . S
O451 Mg453 1.986 . S
Mg452 O451 1.926 . S
Mg452 O466 1.984 . S
Mg452 O469 1.988 . S
Mg452 O470 2.061 1_455 S
Mg453 O451 1.986 . S
Mg453 O461 2.238 . S
Mg453 O465 2.042 . S
Mg453 O467 2.041 . S
Mg453 O474 2.038 . S
C454 O460 1.247 . S
C454 O461 1.289 . S
C455 O473 1.245 . S
C455 O474 1.274 . S
O456 C444 1.241 . S
O456 Mg449 2.042 . S
O457 C444 1.280 . S
O457 Mg447 1.984 1_655 S
O458 C445 1.277 . S
O458 Mg449 2.041 . S
O459 C445 1.245 . S
O459 Mg447 1.988 1_655 S
O460 Mg447 2.061 . S
O460 C454 1.247 . S
O461 Mg450 2.106 . S
O461 Mg453 2.238 . S
O461 C454 1.289 . S
C462 O463 1.245 . S
C462 O464 1.274 . S
O463 Mg450 2.079 1_655 S
O463 C462 1.245 . S
O464 Mg449 2.038 . S
O464 C462 1.274 . S
O465 Mg453 2.042 . S
O465 C468 1.241 . S
O466 Mg452 1.984 . S
O466 C468 1.280 . S
O467 Mg453 2.041 . S
O467 C471 1.277 . S
C468 O465 1.241 . S
C468 O466 1.280 . S
O469 Mg452 1.988 . S
O469 C471 1.245 . S
O470 C446 1.247 . S
O470 Mg452 2.061 1_655 S
C471 O467 1.277 . S
C471 O469 1.245 . S
O472 C446 1.289 . S
O472 Mg449 2.238 . S
O472 Mg450 2.106 1_655 S
O473 Mg450 2.079 . S
O473 C455 1.245 . S
O474 Mg453 2.038 . S
O474 C455 1.274 . S
C475 O487 1.241 . S
C475 O488 1.280 . S
C476 O489 1.277 . S
C476 O490 1.245 . S
C477 O501 1.247 . S
C477 O503 1.289 . S
Mg478 O479 1.926 . S
Mg478 O488 1.984 . S
Mg478 O490 1.988 . S
Mg478 O491 2.061 . S
O479 Mg478 1.926 . S
O479 Mg480 1.986 . S
O479 Mg481 1.917 . S
Mg480 O479 1.986 . S
Mg480 O487 2.042 . S
Mg480 O489 2.041 . S
Mg480 O495 2.038 1_545 S
Mg480 O503 2.238 1_545 S
Mg481 O479 1.917 . S
Mg481 O482 1.917 . S
Mg481 O492 2.106 . S
Mg481 O494 2.079 1_545 S
Mg481 O503 2.106 1_545 S
Mg481 O504 2.079 . S
O482 Mg481 1.917 . S
O482 Mg483 1.926 1_545 S
O482 Mg484 1.986 . S
Mg483 O482 1.926 1_565 S
Mg483 O497 1.984 . S
Mg483 O500 1.988 . S
Mg483 O501 2.061 . S
Mg484 O482 1.986 . S
Mg484 O492 2.238 . S
Mg484 O496 2.042 . S
Mg484 O498 2.041 . S
Mg484 O505 2.038 . S
C485 O491 1.247 . S
C485 O492 1.289 . S
C486 O504 1.245 . S
C486 O505 1.274 . S
O487 C475 1.241 . S
O487 Mg480 2.042 . S
O488 C475 1.280 . S
O488 Mg478 1.984 . S
O489 C476 1.277 . S
O489 Mg480 2.041 . S
O490 C476 1.245 . S
O490 Mg478 1.988 . S
O491 Mg478 2.061 . S
O491 C485 1.247 . S
O492 Mg481 2.106 . S
O492 Mg484 2.238 . S
O492 C485 1.289 . S
C493 O494 1.245 . S
C493 O495 1.274 . S
O494 Mg481 2.079 1_565 S
O494 C493 1.245 . S
O495 Mg480 2.038 1_565 S
O495 C493 1.274 . S
O496 Mg484 2.042 . S
O496 C499 1.241 1_545 S
O497 Mg483 1.984 . S
O497 C499 1.280 . S
O498 Mg484 2.041 . S
O498 C502 1.277 1_545 S
C499 O496 1.241 1_565 S
C499 O497 1.280 . S
O500 Mg483 1.988 . S
O500 C502 1.245 . S
O501 C477 1.247 . S
O501 Mg483 2.061 . S
C502 O498 1.277 1_565 S
C502 O500 1.245 . S
O503 C477 1.289 . S
O503 Mg480 2.238 1_565 S
O503 Mg481 2.106 1_565 S
O504 Mg481 2.079 . S
O504 C486 1.245 . S
O505 Mg484 2.038 . S
O505 C486 1.274 . S
C506 C507 1.387 . S
C506 H510 0.950 . S
C506 C515 1.390 . S
C507 C506 1.387 . S
C507 C509 1.387 . S
H508 C515 0.950 . S
C509 C507 1.387 . S
C509 C511 1.390 . S
C509 H513 0.950 . S
H510 C506 0.950 . S
C511 C509 1.390 . S
C511 C512 1.387 . S
C511 H514 0.950 . S
C512 C511 1.387 . S
C512 C515 1.387 . S
H513 C509 0.950 . S
H514 C511 0.950 . S
C515 C506 1.390 . S
C515 H508 0.950 . S
C515 C512 1.387 . S
C516 C517 1.387 . S
C516 H520 0.950 . S
C516 C525 1.390 . S
C517 C516 1.387 . S
C517 C519 1.387 . S
H518 C525 0.950 . S
C519 C517 1.387 . S
C519 C521 1.390 . S
C519 H523 0.950 . S
H520 C516 0.950 . S
C521 C519 1.390 . S
C521 C522 1.387 . S
C521 H524 0.950 . S
C522 C521 1.387 . S
C522 C525 1.387 . S
H523 C519 0.950 . S
H524 C521 0.950 . S
C525 C516 1.390 . S
C525 H518 0.950 . S
C525 C522 1.387 . S
C526 C527 1.387 . S
C526 H530 0.950 . S
C526 C535 1.390 . S
C527 C526 1.387 . S
C527 C529 1.387 . S
H528 C535 0.950 . S
C529 C527 1.387 . S
C529 C531 1.390 . S
C529 H533 0.950 . S
H530 C526 0.950 . S
C531 C529 1.390 . S
C531 C532 1.387 . S
C531 H534 0.950 . S
C532 C531 1.387 . S
C532 C535 1.387 . S
H533 C529 0.950 . S
H534 C531 0.950 . S
C535 C526 1.390 . S
C535 H528 0.950 . S
C535 C532 1.387 . S
C536 C537 1.387 . S
C536 H540 0.950 . S
C536 C545 1.390 . S
C537 C536 1.387 . S
C537 C539 1.387 . S
H538 C545 0.950 . S
C539 C537 1.387 . S
C539 C541 1.390 . S
C539 H543 0.950 . S
H540 C536 0.950 . S
C541 C539 1.390 . S
C541 C542 1.387 . S
C541 H544 0.950 . S
C542 C541 1.387 . S
C542 C545 1.387 . S
H543 C539 0.950 . S
H544 C541 0.950 . S
C545 C536 1.390 . S
C545 H538 0.950 . S
C545 C542 1.387 . S
C546 C547 1.387 . S
C546 H550 0.950 1_565 S
C546 C555 1.390 . S
C547 C546 1.387 . S
C547 C549 1.387 . S
H548 C555 0.950 1_545 S
C549 C547 1.387 . S
C549 C551 1.390 . S
C549 H553 0.950 . S
H550 C546 0.950 1_545 S
C551 C549 1.390 . S
C551 C552 1.387 . S
C551 H554 0.950 . S
C552 C551 1.387 . S
C552 C555 1.387 . S
H553 C549 0.950 . S
H554 C551 0.950 . S
C555 C546 1.390 . S
C555 H548 0.950 1_565 S
C555 C552 1.387 . S
C556 C557 1.387 . S
C556 H560 0.950 . S
C556 C565 1.390 . S
C557 C556 1.387 . S
C557 C559 1.387 . S
H558 C565 0.950 . S
C559 C557 1.387 . S
C559 C561 1.390 . S
C559 H563 0.950 . S
H560 C556 0.950 . S
C561 C559 1.390 . S
C561 C562 1.387 . S
C561 H564 0.950 . S
C562 C561 1.387 . S
C562 C565 1.387 . S
H563 C559 0.950 . S
H564 C561 0.950 . S
C565 C556 1.390 . S
C565 H558 0.950 . S
C565 C562 1.387 . S
C566 C567 1.387 . S
C566 H570 0.950 . S
C566 C575 1.390 . S
C567 C566 1.387 . S
C567 C569 1.387 . S
H568 C575 0.950 . S
C569 C567 1.387 . S
C569 C571 1.390 . S
C569 H573 0.950 . S
H570 C566 0.950 . S
C571 C569 1.390 . S
C571 C572 1.387 . S
C571 H574 0.950 . S
C572 C571 1.387 . S
C572 C575 1.387 . S
H573 C569 0.950 . S
H574 C571 0.950 . S
C575 C566 1.390 . S
C575 H568 0.950 . S
C575 C572 1.387 . S
C576 C577 1.387 . S
C576 H580 0.950 . S
C576 C585 1.390 . S
C577 C576 1.387 . S
C577 C579 1.387 . S
H578 C585 0.950 . S
C579 C577 1.387 . S
C579 C581 1.390 . S
C579 H583 0.950 . S
H580 C576 0.950 . S
C581 C579 1.390 . S
C581 C582 1.387 . S
C581 H584 0.950 . S
C582 C581 1.387 . S
C582 C585 1.387 . S
H583 C579 0.950 . S
H584 C581 0.950 . S
C585 C576 1.390 . S
C585 H578 0.950 . S
C585 C582 1.387 . S
C586 C587 1.387 . S
C586 H590 0.950 . S
C586 C595 1.390 . S
C587 C586 1.387 . S
C587 C589 1.387 . S
H588 C595 0.950 . S
C589 C587 1.387 . S
C589 C591 1.390 . S
C589 H593 0.950 . S
H590 C586 0.950 . S
C591 C589 1.390 . S
C591 C592 1.387 . S
C591 H594 0.950 . S
C592 C591 1.387 . S
C592 C595 1.387 . S
H593 C589 0.950 . S
H594 C591 0.950 . S
C595 C586 1.390 . S
C595 H588 0.950 . S
C595 C592 1.387 . S
C596 C597 1.387 . S
C596 H600 0.950 . S
C596 C605 1.390 . S
C597 C596 1.387 . S
C597 C599 1.387 . S
H598 C605 0.950 . S
C599 C597 1.387 . S
C599 C601 1.390 . S
C599 H603 0.950 . S
H600 C596 0.950 . S
C601 C599 1.390 . S
C601 C602 1.387 . S
C601 H604 0.950 . S
C602 C601 1.387 . S
C602 C605 1.387 . S
H603 C599 0.950 . S
H604 C601 0.950 . S
C605 C596 1.390 . S
C605 H598 0.950 . S
C605 C602 1.387 . S
C606 C607 1.387 . S
C606 H610 0.950 . S
C606 C615 1.390 . S
C607 C606 1.387 . S
C607 C609 1.387 . S
H608 C615 0.950 . S
C609 C607 1.387 . S
C609 C611 1.390 . S
C609 H613 0.950 . S
H610 C606 0.950 . S
C611 C609 1.390 . S
C611 C612 1.387 . S
C611 H614 0.950 . S
C612 C611 1.387 . S
C612 C615 1.387 . S
H613 C609 0.950 . S
H614 C611 0.950 . S
C615 C606 1.390 . S
C615 H608 0.950 . S
C615 C612 1.387 . S
C616 C617 1.387 . S
C616 H620 0.950 . S
C616 C625 1.390 . S
C617 C616 1.387 . S
C617 C619 1.387 . S
H618 C625 0.950 . S
C619 C617 1.387 . S
C619 C621 1.390 . S
C619 H623 0.950 . S
H620 C616 0.950 . S
C621 C619 1.390 . S
C621 C622 1.387 . S
C621 H624 0.950 . S
C622 C621 1.387 . S
C622 C625 1.387 . S
H623 C619 0.950 . S
H624 C621 0.950 . S
C625 C616 1.390 . S
C625 H618 0.950 . S
C625 C622 1.387 . S
C626 C627 1.387 . S
C626 H630 0.950 . S
C626 C635 1.390 . S
C627 C626 1.387 . S
C627 C629 1.387 . S
H628 C635 0.950 . S
C629 C627 1.387 . S
C629 C631 1.390 . S
C629 H633 0.950 . S
H630 C626 0.950 . S
C631 C629 1.390 . S
C631 C632 1.387 . S
C631 H634 0.950 . S
C632 C631 1.387 . S
C632 C635 1.387 . S
H633 C629 0.950 . S
H634 C631 0.950 . S
C635 C626 1.390 . S
C635 H628 0.950 . S
C635 C632 1.387 . S
C636 C637 1.387 . S
C636 H640 0.950 . S
C636 C645 1.390 . S
C637 C636 1.387 . S
C637 C639 1.387 . S
H638 C645 0.950 . S
C639 C637 1.387 . S
C639 C641 1.390 . S
C639 H643 0.950 . S
H640 C636 0.950 . S
C641 C639 1.390 . S
C641 C642 1.387 . S
C641 H644 0.950 . S
C642 C641 1.387 . S
C642 C645 1.387 . S
H643 C639 0.950 . S
H644 C641 0.950 . S
C645 C636 1.390 . S
C645 H638 0.950 . S
C645 C642 1.387 . S
C646 C647 1.387 . S
C646 H650 0.950 . S
C646 C655 1.390 . S
C647 C646 1.387 . S
C647 C649 1.387 . S
H648 C655 0.950 . S
C649 C647 1.387 . S
C649 C651 1.390 . S
C649 H653 0.950 . S
H650 C646 0.950 . S
C651 C649 1.390 . S
C651 C652 1.387 . S
C651 H654 0.950 . S
C652 C651 1.387 . S
C652 C655 1.387 . S
H653 C649 0.950 . S
H654 C651 0.950 . S
C655 C646 1.390 . S
C655 H648 0.950 . S
C655 C652 1.387 . S
C656 C657 1.387 . S
C656 H660 0.950 1_556 S
C656 C665 1.390 . S
C657 C656 1.387 . S
C657 C659 1.387 . S
H658 C665 0.955 . S
C659 C657 1.387 . S
C659 C661 1.390 . S
C659 H663 0.950 . S
H660 C656 0.950 1_554 S
C661 C659 1.390 . S
C661 C662 1.387 . S
C661 H664 0.950 . S
C662 C661 1.387 . S
C662 C665 1.387 . S
H663 C659 0.950 . S
H664 C661 0.950 . S
C665 C656 1.390 . S
C665 H658 0.955 . S
C665 C662 1.387 . S
C666 C667 1.387 . S
C666 H670 0.950 . S
C666 C675 1.390 . S
C667 C666 1.387 . S
C667 C669 1.387 . S
H668 C675 0.950 . S
C669 C667 1.387 . S
C669 C671 1.390 . S
C669 H673 0.950 . S
H670 C666 0.950 . S
C671 C669 1.390 . S
C671 C672 1.387 . S
C671 H674 0.950 . S
C672 C671 1.387 . S
C672 C675 1.387 . S
H673 C669 0.950 . S
H674 C671 0.950 . S
C675 C666 1.390 . S
C675 H668 0.950 . S
C675 C672 1.387 . S
C676 C677 1.387 . S
C676 H680 0.950 . S
C676 C685 1.390 . S
C677 C676 1.387 . S
C677 C679 1.387 . S
H678 C685 0.950 . S
C679 C677 1.387 . S
C679 C681 1.390 . S
C679 H683 0.950 . S
H680 C676 0.950 . S
C681 C679 1.390 . S
C681 C682 1.387 . S
C681 H684 0.950 . S
C682 C681 1.387 . S
C682 C685 1.387 . S
H683 C679 0.950 . S
H684 C681 0.950 . S
C685 C676 1.390 . S
C685 H678 0.950 . S
C685 C682 1.387 . S
C686 C687 1.387 . S
C686 H690 0.950 . S
C686 C695 1.390 . S
C687 C686 1.387 . S
C687 C689 1.387 . S
H688 C695 0.950 . S
C689 C687 1.387 . S
C689 C691 1.390 . S
C689 H693 0.950 . S
H690 C686 0.950 . S
C691 C689 1.390 . S
C691 C692 1.387 . S
C691 H694 0.950 . S
C692 C691 1.387 . S
C692 C695 1.387 . S
H693 C689 0.950 . S
H694 C691 0.950 . S
C695 C686 1.390 . S
C695 H688 0.950 . S
C695 C692 1.387 . S
C696 C697 1.387 . S
C696 H700 0.950 . S
C696 C705 1.390 . S
C697 C696 1.387 . S
C697 C699 1.387 . S
H698 C705 0.950 . S
C699 C697 1.387 . S
C699 C701 1.390 . S
C699 H703 0.950 . S
H700 C696 0.950 . S
C701 C699 1.390 . S
C701 C702 1.387 . S
C701 H704 0.950 . S
C702 C701 1.387 . S
C702 C705 1.387 . S
H703 C699 0.950 . S
H704 C701 0.950 . S
C705 C696 1.390 . S
C705 H698 0.950 . S
C705 C702 1.387 . S
C706 C707 1.387 . S
C706 H710 0.950 . S
C706 C715 1.390 . S
C707 C706 1.387 . S
C707 C709 1.387 . S
H708 C715 0.950 . S
C709 C707 1.387 . S
C709 C711 1.390 . S
C709 H713 0.950 . S
H710 C706 0.950 . S
C711 C709 1.390 . S
C711 C712 1.387 . S
C711 H714 0.950 . S
C712 C711 1.387 . S
C712 C715 1.387 . S
H713 C709 0.950 . S
H714 C711 0.950 . S
C715 C706 1.390 . S
C715 H708 0.950 . S
C715 C712 1.387 . S
C716 C717 1.387 . S
C716 H720 0.950 1_655 S
C716 C725 1.390 . S
C717 C716 1.387 . S
C717 C719 1.387 . S
H718 C725 0.950 1_455 S
C719 C717 1.387 . S
C719 C721 1.390 . S
C719 H723 0.950 . S
H720 C716 0.950 1_455 S
C721 C719 1.390 . S
C721 C722 1.387 . S
C721 H724 0.950 . S
C722 C721 1.387 . S
C722 C725 1.387 . S
H723 C719 0.950 . S
H724 C721 0.950 . S
C725 C716 1.390 . S
C725 H718 0.950 1_655 S
C725 C722 1.387 . S
C726 C727 1.387 . S
C726 H730 0.950 . S
C726 C735 1.390 . S
C727 C726 1.387 . S
C727 C729 1.387 . S
H728 C735 0.950 . S
C729 C727 1.387 . S
C729 C731 1.390 . S
C729 H733 0.950 . S
H730 C726 0.950 . S
C731 C729 1.390 . S
C731 C732 1.387 . S
C731 H734 0.950 . S
C732 C731 1.387 . S
C732 C735 1.387 . S
H733 C729 0.950 . S
H734 C731 0.950 . S
C735 C726 1.390 . S
C735 H728 0.950 . S
C735 C732 1.387 . S
C736 C737 1.387 . S
C736 H740 0.950 . S
C736 C745 1.390 . S
C737 C736 1.387 . S
C737 C739 1.387 . S
H738 C745 0.950 . S
C739 C737 1.387 . S
C739 C741 1.390 . S
C739 H743 0.950 . S
H740 C736 0.950 . S
C741 C739 1.390 . S
C741 C742 1.387 . S
C741 H744 0.950 . S
C742 C741 1.387 . S
C742 C745 1.387 . S
H743 C739 0.950 . S
H744 C741 0.950 . S
C745 C736 1.390 . S
C745 H738 0.950 . S
C745 C742 1.387 . S
C746 C747 1.387 . S
C746 H750 0.950 . S
C746 C755 1.390 . S
C747 C746 1.387 . S
C747 C749 1.387 . S
H748 C755 0.950 . S
C749 C747 1.387 . S
C749 C751 1.390 . S
C749 H753 0.950 . S
H750 C746 0.950 . S
C751 C749 1.390 . S
C751 C752 1.387 . S
C751 H754 0.950 . S
C752 C751 1.387 . S
C752 C755 1.387 . S
H753 C749 0.950 . S
H754 C751 0.950 . S
C755 C746 1.390 . S
C755 H748 0.950 . S
C755 C752 1.387 . S
C756 C757 1.387 . S
C756 H760 0.950 . S
C756 C765 1.390 . S
C757 C756 1.387 . S
C757 C759 1.387 . S
H758 C765 0.950 . S
C759 C757 1.387 . S
C759 C761 1.390 . S
C759 H763 0.950 . S
H760 C756 0.950 . S
C761 C759 1.390 . S
C761 C762 1.387 . S
C761 H764 0.950 . S
C762 C761 1.387 . S
C762 C765 1.387 . S
H763 C759 0.950 . S
H764 C761 0.950 . S
C765 C756 1.390 . S
C765 H758 0.950 . S
C765 C762 1.387 . S
C766 C767 1.387 . S
C766 H770 0.950 . S
C766 C775 1.390 . S
C767 C766 1.387 . S
C767 C769 1.387 . S
H768 C775 0.950 . S
C769 C767 1.387 . S
C769 C771 1.390 . S
C769 H773 0.950 . S
H770 C766 0.950 . S
C771 C769 1.390 . S
C771 C772 1.387 . S
C771 H774 0.950 . S
C772 C771 1.387 . S
C772 C775 1.387 . S
H773 C769 0.950 . S
H774 C771 0.950 . S
C775 C766 1.390 . S
C775 H768 0.950 . S
C775 C772 1.387 . S
C776 C777 1.387 . S
C776 H780 0.950 1_556 S
C776 C785 1.390 . S
C777 C776 1.387 . S
C777 C779 1.387 . S
H778 C785 0.950 1_554 S
C779 C777 1.387 . S
C779 C781 1.390 . S
C779 H783 0.950 . S
H780 C776 0.950 1_554 S
C781 C779 1.390 . S
C781 C782 1.387 . S
C781 H784 0.950 . S
C782 C781 1.387 . S
C782 C785 1.387 . S
H783 C779 0.950 . S
H784 C781 0.950 . S
C785 C776 1.390 . S
C785 H778 0.950 1_556 S
C785 C782 1.387 . S
C786 C787 1.387 . S
C786 H790 0.950 . S
C786 C795 1.390 . S
C787 C786 1.387 . S
C787 C789 1.387 . S
H788 C795 0.950 . S
C789 C787 1.387 . S
C789 C791 1.390 . S
C789 H793 0.950 . S
H790 C786 0.950 . S
C791 C789 1.390 . S
C791 C792 1.387 . S
C791 H794 0.950 . S
C792 C791 1.387 . S
C792 C795 1.387 . S
H793 C789 0.950 . S
H794 C791 0.950 . S
C795 C786 1.390 . S
C795 H788 0.950 . S
C795 C792 1.387 . S
C796 C797 1.387 . S
C796 H800 0.950 . S
C796 C805 1.390 . S
C797 C796 1.387 . S
C797 C799 1.387 . S
H798 C805 0.950 . S
C799 C797 1.387 . S
C799 C801 1.390 . S
C799 H803 0.950 . S
H800 C796 0.950 . S
C801 C799 1.390 . S
C801 C802 1.387 . S
C801 H804 0.950 . S
C802 C801 1.387 . S
C802 C805 1.387 . S
H803 C799 0.950 . S
H804 C801 0.950 . S
C805 C796 1.390 . S
C805 H798 0.950 . S
C805 C802 1.387 . S
C806 C807 1.387 . S
C806 H810 0.950 . S
C806 C815 1.390 . S
C807 C806 1.387 . S
C807 C809 1.387 . S
H808 C815 0.950 . S
C809 C807 1.387 . S
C809 C811 1.390 . S
C809 H813 0.950 . S
H810 C806 0.950 . S
C811 C809 1.390 . S
C811 C812 1.387 . S
C811 H814 0.950 . S
C812 C811 1.387 . S
C812 C815 1.387 . S
H813 C809 0.950 . S
H814 C811 0.950 . S
C815 C806 1.390 . S
C815 H808 0.950 . S
C815 C812 1.387 . S
C816 C817 1.387 . S
C816 H820 0.950 . S
C816 C825 1.390 . S
C817 C816 1.387 . S
C817 C819 1.387 . S
H818 C825 0.950 . S
C819 C817 1.387 . S
C819 C821 1.390 . S
C819 H823 0.950 . S
H820 C816 0.950 . S
C821 C819 1.390 . S
C821 C822 1.387 . S
C821 H824 0.950 . S
C822 C821 1.387 . S
C822 C825 1.387 . S
H823 C819 0.950 . S
H824 C821 0.950 . S
C825 C816 1.390 . S
C825 H818 0.950 . S
C825 C822 1.387 . S
C826 C827 1.387 . S
C826 H830 0.950 . S
C826 C835 1.390 . S
C827 C826 1.387 . S
C827 C829 1.387 . S
H828 C835 0.950 . S
C829 C827 1.387 . S
C829 C831 1.390 . S
C829 H833 0.950 . S
H830 C826 0.950 . S
C831 C829 1.390 . S
C831 C832 1.387 . S
C831 H834 0.950 . S
C832 C831 1.387 . S
C832 C835 1.387 . S
H833 C829 0.950 . S
H834 C831 0.950 . S
C835 C826 1.390 . S
C835 H828 0.950 . S
C835 C832 1.387 . S
C836 C837 1.387 . S
C836 H840 0.950 . S
C836 C845 1.390 . S
C837 C836 1.387 . S
C837 C839 1.387 . S
H838 C845 0.950 . S
C839 C837 1.387 . S
C839 C841 1.390 . S
C839 H843 0.950 . S
H840 C836 0.950 . S
C841 C839 1.390 . S
C841 C842 1.387 . S
C841 H844 0.950 . S
C842 C841 1.387 . S
C842 C845 1.387 . S
H843 C839 0.950 . S
H844 C841 0.950 . S
C845 C836 1.390 . S
C845 H838 0.950 . S
C845 C842 1.387 . S
C846 C847 1.387 . S
C846 H850 0.950 . S
C846 C855 1.390 . S
C847 C846 1.387 . S
C847 C849 1.387 . S
H848 C855 0.950 . S
C849 C847 1.387 . S
C849 C851 1.390 . S
C849 H853 0.950 . S
H850 C846 0.950 . S
C851 C849 1.390 . S
C851 C852 1.387 . S
C851 H854 0.950 . S
C852 C851 1.387 . S
C852 C855 1.387 . S
H853 C849 0.950 . S
H854 C851 0.950 . S
C855 C846 1.390 . S
C855 H848 0.950 . S
C855 C852 1.387 . S
C856 C857 1.387 . S
C856 H860 0.950 . S
C856 C865 1.390 . S
C857 C856 1.387 . S
C857 C859 1.387 . S
H858 C865 0.950 . S
C859 C857 1.387 . S
C859 C861 1.390 . S
C859 H863 0.950 . S
H860 C856 0.950 . S
C861 C859 1.390 . S
C861 C862 1.387 . S
C861 H864 0.950 . S
C862 C861 1.387 . S
C862 C865 1.387 . S
H863 C859 0.950 . S
H864 C861 0.950 . S
C865 C856 1.390 . S
C865 H858 0.950 . S
C865 C862 1.387 . S
C866 C867 1.387 . S
C866 H870 0.950 . S
C866 C875 1.390 . S
C867 C866 1.387 . S
C867 C869 1.387 . S
H868 C875 0.950 . S
C869 C867 1.387 . S
C869 C871 1.390 . S
C869 H873 0.950 . S
H870 C866 0.950 . S
C871 C869 1.390 . S
C871 C872 1.387 . S
C871 H874 0.950 . S
C872 C871 1.387 . S
C872 C875 1.387 . S
H873 C869 0.950 . S
H874 C871 0.950 . S
C875 C866 1.390 . S
C875 H868 0.950 . S
C875 C872 1.387 . S
C876 C877 1.387 . S
C876 H880 0.950 . S
C876 C885 1.390 . S
C877 C876 1.387 . S
C877 C879 1.387 . S
H878 C885 0.950 . S
C879 C877 1.387 . S
C879 C881 1.390 . S
C879 H883 0.950 . S
H880 C876 0.950 . S
C881 C879 1.390 . S
C881 C882 1.387 . S
C881 H884 0.950 . S
C882 C881 1.387 . S
C882 C885 1.387 . S
H883 C879 0.950 . S
H884 C881 0.950 . S
C885 C876 1.390 . S
C885 H878 0.950 . S
C885 C882 1.387 . S
C886 C887 1.387 . S
C886 H890 0.950 . S
C886 C895 1.390 . S
C887 C886 1.387 . S
C887 C889 1.387 . S
H888 C895 0.950 . S
C889 C887 1.387 . S
C889 C891 1.390 . S
C889 H893 0.950 . S
H890 C886 0.950 . S
C891 C889 1.390 . S
C891 C892 1.387 . S
C891 H894 0.950 . S
C892 C891 1.387 . S
C892 C895 1.387 . S
H893 C889 0.950 . S
H894 C891 0.950 . S
C895 C886 1.390 . S
C895 H888 0.950 . S
C895 C892 1.387 . S
C896 C897 1.387 . S
C896 H900 0.950 . S
C896 C905 1.390 . S
C897 C896 1.387 . S
C897 C899 1.387 . S
H898 C905 0.950 . S
C899 C897 1.387 . S
C899 C901 1.390 . S
C899 H903 0.950 . S
H900 C896 0.950 . S
C901 C899 1.390 . S
C901 C902 1.387 . S
C901 H904 0.950 . S
C902 C901 1.387 . S
C902 C905 1.387 . S
H903 C899 0.950 . S
H904 C901 0.950 . S
C905 C896 1.390 . S
C905 H898 0.950 . S
C905 C902 1.387 . S
C906 C907 1.387 . S
C906 H910 0.950 . S
C906 C915 1.390 . S
C907 C906 1.387 . S
C907 C909 1.387 . S
H908 C915 0.950 . S
C909 C907 1.387 . S
C909 C911 1.390 . S
C909 H913 0.950 . S
H910 C906 0.950 . S
C911 C909 1.390 . S
C911 C912 1.387 . S
C911 H914 0.950 . S
C912 C911 1.387 . S
C912 C915 1.387 . S
H913 C909 0.950 . S
H914 C911 0.950 . S
C915 C906 1.390 . S
C915 H908 0.950 . S
C915 C912 1.387 . S
C916 C917 1.387 . S
C916 H920 0.950 . S
C916 C925 1.390 . S
C917 C916 1.387 . S
C917 C919 1.387 . S
H918 C925 0.950 . S
C919 C917 1.387 . S
C919 C921 1.390 . S
C919 H923 0.950 . S
H920 C916 0.950 . S
C921 C919 1.390 . S
C921 C922 1.387 . S
C921 H924 0.950 . S
C922 C921 1.387 . S
C922 C925 1.387 . S
H923 C919 0.950 . S
H924 C921 0.950 . S
C925 C916 1.390 . S
C925 H918 0.950 . S
C925 C922 1.387 . S
C926 C927 1.387 . S
C926 H930 0.950 . S
C926 C935 1.390 . S
C927 C926 1.387 . S
C927 C929 1.387 . S
H928 C935 0.950 . S
C929 C927 1.387 . S
C929 C931 1.390 . S
C929 H933 0.950 . S
H930 C926 0.950 . S
C931 C929 1.390 . S
C931 C932 1.387 . S
C931 H934 0.950 . S
C932 C931 1.387 . S
C932 C935 1.387 . S
H933 C929 0.950 . S
H934 C931 0.950 . S
C935 C926 1.390 . S
C935 H928 0.950 . S
C935 C932 1.387 . S
C936 C937 1.387 . S
C936 H940 0.950 . S
C936 C945 1.390 . S
C937 C936 1.387 . S
C937 C939 1.387 . S
H938 C945 0.950 . S
C939 C937 1.387 . S
C939 C941 1.390 . S
C939 H943 0.950 . S
H940 C936 0.950 . S
C941 C939 1.390 . S
C941 C942 1.387 . S
C941 H944 0.950 . S
C942 C941 1.387 . S
C942 C945 1.387 . S
H943 C939 0.950 . S
H944 C941 0.950 . S
C945 C936 1.390 . S
C945 H938 0.950 . S
C945 C942 1.387 . S
C946 C947 1.387 . S
C946 H950 0.950 . S
C946 C955 1.390 . S
C947 C946 1.387 . S
C947 C949 1.387 . S
H948 C955 0.950 . S
C949 C947 1.387 . S
C949 C951 1.390 . S
C949 H953 0.950 . S
H950 C946 0.950 . S
C951 C949 1.390 . S
C951 C952 1.387 . S
C951 H954 0.950 . S
C952 C951 1.387 . S
C952 C955 1.387 . S
H953 C949 0.950 . S
H954 C951 0.950 . S
C955 C946 1.390 . S
C955 H948 0.950 . S
C955 C952 1.387 . S
C956 C957 1.387 . S
C956 H960 0.950 . S
C956 C965 1.390 . S
C957 C956 1.387 . S
C957 C959 1.387 . S
H958 C965 0.950 . S
C959 C957 1.387 . S
C959 C961 1.390 . S
C959 H963 0.950 . S
H960 C956 0.950 . S
C961 C959 1.390 . S
C961 C962 1.387 . S
C961 H964 0.950 . S
C962 C961 1.387 . S
C962 C965 1.387 . S
H963 C959 0.950 . S
H964 C961 0.950 . S
C965 C956 1.390 . S
C965 H958 0.950 . S
C965 C962 1.387 . S
C966 C967 1.387 . S
C966 H970 0.950 . S
C966 C975 1.390 . S
C967 C966 1.387 . S
C967 C969 1.387 . S
H968 C975 0.950 . S
C969 C967 1.387 . S
C969 C971 1.390 . S
C969 H973 0.950 . S
H970 C966 0.950 . S
C971 C969 1.390 . S
C971 C972 1.387 . S
C971 H974 0.950 . S
C972 C971 1.387 . S
C972 C975 1.387 . S
H973 C969 0.950 . S
H974 C971 0.950 . S
C975 C966 1.390 . S
C975 H968 0.950 . S
C975 C972 1.387 . S
C976 C977 1.387 . S
C976 H980 0.950 . S
C976 C985 1.390 . S
C977 C976 1.387 . S
C977 C979 1.387 . S
H978 C985 0.950 . S
C979 C977 1.387 . S
C979 C981 1.390 . S
C979 H983 0.950 . S
H980 C976 0.950 . S
C981 C979 1.390 . S
C981 C982 1.387 . S
C981 H984 0.950 . S
C982 C981 1.387 . S
C982 C985 1.387 . S
H983 C979 0.950 . S
H984 C981 0.950 . S
C985 C976 1.390 . S
C985 H978 0.950 . S
C985 C982 1.387 . S
C512 C331 1.963 . S
C507 C3 1.976 . S
C522 C321 0.990 . S
C517 C49 1.001 . S
C532 C322 1.281 . S
C527 C95 1.282 . S
C537 C146 0.710 . S
C542 C344 0.715 . S
C547 C186 1.143 . S
C552 C347 1.166 . S
C562 C330 1.261 . S
C557 C215 1.273 . S
C567 C249 0.731 . S
C572 C320 0.774 . S
C577 C302 1.968 . S
C582 C338 1.966 . S
C592 C351 3.182 . S
C587 C2 3.342 . S
C597 C43 2.244 . S
C602 C400 2.197 . S
C612 C378 3.248 . S
C607 C102 3.279 . S
C622 C392 1.589 . S
C617 C135 1.650 . S
C627 C175 1.603 . S
C632 C353 1.610 . S
C642 C406 2.210 . S
C637 C222 2.295 . S
C647 C243 2.240 . S
C652 C362 2.261 . S
C657 C306 1.600 . S
C662 C383 1.457 . S
C667 C9 1.024 . S
C672 C409 0.980 . S
C677 C182 1.724 . S
C682 C393 1.686 . S
C692 C352 1.683 1_556 S
C687 C226 1.674 . S
C702 C384 0.943 . S
C697 C242 0.929 . S
C707 C295 2.866 . S
C712 C375 2.796 . S
C717 C106 1.013 . S
C722 C382 0.991 . S
C732 C369 1.670 . S
C727 C142 1.713 . S
C737 C42 0.954 . S
C742 C361 0.947 . S
C747 C283 1.967 . S
C752 C424 1.967 . S
C757 C169 1.143 . S
C762 C414 1.167 . S
C772 C415 1.261 . S
C767 C202 1.273 . S
C782 C437 0.772 . S
C777 C266 0.730 . S
C787 C66 0.995 . S
C792 C440 0.984 . S
C802 C423 1.281 . S
C797 C82 1.282 . S
C807 C129 0.711 . S
C812 C413 0.719 . S
C817 C22 1.977 . S
C822 C431 1.964 . S
C827 C282 2.866 . S
C832 C444 2.796 . S
C842 C493 1.687 . S
C837 C163 1.724 . S
C847 C209 1.676 . S
C852 C471 1.686 . S
C857 C255 0.928 . S
C862 C485 0.943 . S
C872 C446 0.948 . S
C867 C55 0.957 . S
C877 C89 1.014 . S
C882 C499 0.986 . S
C892 C455 1.670 . S
C887 C123 1.713 . S
C902 C476 0.980 . S
C897 C26 1.024 . S
C912 C502 1.456 . S
C907 C289 1.600 . S
C917 C62 2.244 . S
C922 C486 2.199 . S
C927 C83 3.279 . S
C932 C445 3.248 . S
C942 C477 1.590 . S
C937 C122 1.650 . S
C947 C15 3.342 . S
C952 C468 3.181 . S
C957 C203 2.294 . S
C962 C475 2.209 . S
C972 C462 2.261 . S
C967 C262 2.240 . S
C982 C454 1.611 . S
C977 C162 1.603 . S
