# Generated by pormake.
# Topology gar, (4,6)-cn, num edge types: 1
# Building blocks:
#     Node 0, Type 0, BuildingBlock: AZAVOO_clean_sbu_0, # of connection points: 4
#     Node 1, Type 0, BuildingBlock: AZAVOO_clean_sbu_0, # of connection points: 4
#     Node 2, Type 0, BuildingBlock: AZAVOO_clean_sbu_0, # of connection points: 4
#     Node 3, Type 0, BuildingBlock: AZAVOO_clean_sbu_0, # of connection points: 4
#     Node 4, Type 0, BuildingBlock: AZAVOO_clean_sbu_0, # of connection points: 4
#     Node 5, Type 0, BuildingBlock: AZAVOO_clean_sbu_0, # of connection points: 4
#     Node 6, Type 0, BuildingBlock: AZAVOO_clean_sbu_0, # of connection points: 4
#     Node 7, Type 0, BuildingBlock: AZAVOO_clean_sbu_0, # of connection points: 4
#     Node 8, Type 0, BuildingBlock: AZAVOO_clean_sbu_0, # of connection points: 4
#     Node 9, Type 0, BuildingBlock: AZAVOO_clean_sbu_0, # of connection points: 4
#     Node 10, Type 0, BuildingBlock: AZAVOO_clean_sbu_0, # of connection points: 4
#     Node 11, Type 0, BuildingBlock: AZAVOO_clean_sbu_0, # of connection points: 4
#     Node 12, Type 0, BuildingBlock: AZAVOO_clean_sbu_0, # of connection points: 4
#     Node 13, Type 0, BuildingBlock: AZAVOO_clean_sbu_0, # of connection points: 4
#     Node 14, Type 0, BuildingBlock: AZAVOO_clean_sbu_0, # of connection points: 4
#     Node 15, Type 0, BuildingBlock: AZAVOO_clean_sbu_0, # of connection points: 4
#     Node 16, Type 0, BuildingBlock: AZAVOO_clean_sbu_0, # of connection points: 4
#     Node 17, Type 0, BuildingBlock: AZAVOO_clean_sbu_0, # of connection points: 4
#     Node 18, Type 0, BuildingBlock: AZAVOO_clean_sbu_0, # of connection points: 4
#     Node 19, Type 0, BuildingBlock: AZAVOO_clean_sbu_0, # of connection points: 4
#     Node 20, Type 0, BuildingBlock: AZAVOO_clean_sbu_0, # of connection points: 4
#     Node 21, Type 0, BuildingBlock: AZAVOO_clean_sbu_0, # of connection points: 4
#     Node 22, Type 0, BuildingBlock: AZAVOO_clean_sbu_0, # of connection points: 4
#     Node 23, Type 0, BuildingBlock: AZAVOO_clean_sbu_0, # of connection points: 4
#     Node 24, Type 1, BuildingBlock: KUMBUR_clean_sbu_0, # of connection points: 6
#     Node 25, Type 1, BuildingBlock: KUMBUR_clean_sbu_0, # of connection points: 6
#     Node 26, Type 1, BuildingBlock: KUMBUR_clean_sbu_0, # of connection points: 6
#     Node 27, Type 1, BuildingBlock: KUMBUR_clean_sbu_0, # of connection points: 6
#     Node 28, Type 1, BuildingBlock: KUMBUR_clean_sbu_0, # of connection points: 6
#     Node 29, Type 1, BuildingBlock: KUMBUR_clean_sbu_0, # of connection points: 6
#     Node 30, Type 1, BuildingBlock: KUMBUR_clean_sbu_0, # of connection points: 6
#     Node 31, Type 1, BuildingBlock: KUMBUR_clean_sbu_0, # of connection points: 6
#     Node 32, Type 1, BuildingBlock: KUMBUR_clean_sbu_0, # of connection points: 6
#     Node 33, Type 1, BuildingBlock: KUMBUR_clean_sbu_0, # of connection points: 6
#     Node 34, Type 1, BuildingBlock: KUMBUR_clean_sbu_0, # of connection points: 6
#     Node 35, Type 1, BuildingBlock: KUMBUR_clean_sbu_0, # of connection points: 6
#     Node 36, Type 1, BuildingBlock: KUMBUR_clean_sbu_0, # of connection points: 6
#     Node 37, Type 1, BuildingBlock: KUMBUR_clean_sbu_0, # of connection points: 6
#     Node 38, Type 1, BuildingBlock: KUMBUR_clean_sbu_0, # of connection points: 6
#     Node 39, Type 1, BuildingBlock: KUMBUR_clean_sbu_0, # of connection points: 6
#     Edge 40, Type (0, 1), BuildingBlock: ZUJKAS_clean_linker_0, # of connection points: 2
#     Edge 41, Type (0, 1), BuildingBlock: ZUJKAS_clean_linker_0, # of connection points: 2
#     Edge 42, Type (0, 1), BuildingBlock: ZUJKAS_clean_linker_0, # of connection points: 2
#     Edge 43, Type (0, 1), BuildingBlock: ZUJKAS_clean_linker_0, # of connection points: 2
#     Edge 44, Type (0, 1), BuildingBlock: ZUJKAS_clean_linker_0, # of connection points: 2
#     Edge 45, Type (0, 1), BuildingBlock: ZUJKAS_clean_linker_0, # of connection points: 2
#     Edge 46, Type (0, 1), BuildingBlock: ZUJKAS_clean_linker_0, # of connection points: 2
#     Edge 47, Type (0, 1), BuildingBlock: ZUJKAS_clean_linker_0, # of connection points: 2
#     Edge 48, Type (0, 1), BuildingBlock: ZUJKAS_clean_linker_0, # of connection points: 2
#     Edge 49, Type (0, 1), BuildingBlock: ZUJKAS_clean_linker_0, # of connection points: 2
#     Edge 50, Type (0, 1), BuildingBlock: ZUJKAS_clean_linker_0, # of connection points: 2
#     Edge 51, Type (0, 1), BuildingBlock: ZUJKAS_clean_linker_0, # of connection points: 2
#     Edge 52, Type (0, 1), BuildingBlock: ZUJKAS_clean_linker_0, # of connection points: 2
#     Edge 53, Type (0, 1), BuildingBlock: ZUJKAS_clean_linker_0, # of connection points: 2
#     Edge 54, Type (0, 1), BuildingBlock: ZUJKAS_clean_linker_0, # of connection points: 2
#     Edge 55, Type (0, 1), BuildingBlock: ZUJKAS_clean_linker_0, # of connection points: 2
#     Edge 56, Type (0, 1), BuildingBlock: ZUJKAS_clean_linker_0, # of connection points: 2
#     Edge 57, Type (0, 1), BuildingBlock: ZUJKAS_clean_linker_0, # of connection points: 2
#     Edge 58, Type (0, 1), BuildingBlock: ZUJKAS_clean_linker_0, # of connection points: 2
#     Edge 59, Type (0, 1), BuildingBlock: ZUJKAS_clean_linker_0, # of connection points: 2
#     Edge 60, Type (0, 1), BuildingBlock: ZUJKAS_clean_linker_0, # of connection points: 2
#     Edge 61, Type (0, 1), BuildingBlock: ZUJKAS_clean_linker_0, # of connection points: 2
#     Edge 62, Type (0, 1), BuildingBlock: ZUJKAS_clean_linker_0, # of connection points: 2
#     Edge 63, Type (0, 1), BuildingBlock: ZUJKAS_clean_linker_0, # of connection points: 2
#     Edge 64, Type (0, 1), BuildingBlock: ZUJKAS_clean_linker_0, # of connection points: 2
#     Edge 65, Type (0, 1), BuildingBlock: ZUJKAS_clean_linker_0, # of connection points: 2
#     Edge 66, Type (0, 1), BuildingBlock: ZUJKAS_clean_linker_0, # of connection points: 2
#     Edge 67, Type (0, 1), BuildingBlock: ZUJKAS_clean_linker_0, # of connection points: 2
#     Edge 68, Type (0, 1), BuildingBlock: ZUJKAS_clean_linker_0, # of connection points: 2
#     Edge 69, Type (0, 1), BuildingBlock: ZUJKAS_clean_linker_0, # of connection points: 2
#     Edge 70, Type (0, 1), BuildingBlock: ZUJKAS_clean_linker_0, # of connection points: 2
#     Edge 71, Type (0, 1), BuildingBlock: ZUJKAS_clean_linker_0, # of connection points: 2
#     Edge 72, Type (0, 1), BuildingBlock: ZUJKAS_clean_linker_0, # of connection points: 2
#     Edge 73, Type (0, 1), BuildingBlock: ZUJKAS_clean_linker_0, # of connection points: 2
#     Edge 74, Type (0, 1), BuildingBlock: ZUJKAS_clean_linker_0, # of connection points: 2
#     Edge 75, Type (0, 1), BuildingBlock: ZUJKAS_clean_linker_0, # of connection points: 2
#     Edge 76, Type (0, 1), BuildingBlock: ZUJKAS_clean_linker_0, # of connection points: 2
#     Edge 77, Type (0, 1), BuildingBlock: ZUJKAS_clean_linker_0, # of connection points: 2
#     Edge 78, Type (0, 1), BuildingBlock: ZUJKAS_clean_linker_0, # of connection points: 2
#     Edge 79, Type (0, 1), BuildingBlock: ZUJKAS_clean_linker_0, # of connection points: 2
#     Edge 80, Type (0, 1), BuildingBlock: ZUJKAS_clean_linker_0, # of connection points: 2
#     Edge 81, Type (0, 1), BuildingBlock: ZUJKAS_clean_linker_0, # of connection points: 2
#     Edge 82, Type (0, 1), BuildingBlock: ZUJKAS_clean_linker_0, # of connection points: 2
#     Edge 83, Type (0, 1), BuildingBlock: ZUJKAS_clean_linker_0, # of connection points: 2
#     Edge 84, Type (0, 1), BuildingBlock: ZUJKAS_clean_linker_0, # of connection points: 2
#     Edge 85, Type (0, 1), BuildingBlock: ZUJKAS_clean_linker_0, # of connection points: 2
#     Edge 86, Type (0, 1), BuildingBlock: ZUJKAS_clean_linker_0, # of connection points: 2
#     Edge 87, Type (0, 1), BuildingBlock: ZUJKAS_clean_linker_0, # of connection points: 2
#     Edge 88, Type (0, 1), BuildingBlock: ZUJKAS_clean_linker_0, # of connection points: 2
#     Edge 89, Type (0, 1), BuildingBlock: ZUJKAS_clean_linker_0, # of connection points: 2
#     Edge 90, Type (0, 1), BuildingBlock: ZUJKAS_clean_linker_0, # of connection points: 2
#     Edge 91, Type (0, 1), BuildingBlock: ZUJKAS_clean_linker_0, # of connection points: 2
#     Edge 92, Type (0, 1), BuildingBlock: ZUJKAS_clean_linker_0, # of connection points: 2
#     Edge 93, Type (0, 1), BuildingBlock: ZUJKAS_clean_linker_0, # of connection points: 2
#     Edge 94, Type (0, 1), BuildingBlock: ZUJKAS_clean_linker_0, # of connection points: 2
#     Edge 95, Type (0, 1), BuildingBlock: ZUJKAS_clean_linker_0, # of connection points: 2
#     Edge 96, Type (0, 1), BuildingBlock: ZUJKAS_clean_linker_0, # of connection points: 2
#     Edge 97, Type (0, 1), BuildingBlock: ZUJKAS_clean_linker_0, # of connection points: 2
#     Edge 98, Type (0, 1), BuildingBlock: ZUJKAS_clean_linker_0, # of connection points: 2
#     Edge 99, Type (0, 1), BuildingBlock: ZUJKAS_clean_linker_0, # of connection points: 2
#     Edge 100, Type (0, 1), BuildingBlock: ZUJKAS_clean_linker_0, # of connection points: 2
#     Edge 101, Type (0, 1), BuildingBlock: ZUJKAS_clean_linker_0, # of connection points: 2
#     Edge 102, Type (0, 1), BuildingBlock: ZUJKAS_clean_linker_0, # of connection points: 2
#     Edge 103, Type (0, 1), BuildingBlock: ZUJKAS_clean_linker_0, # of connection points: 2
#     Edge 104, Type (0, 1), BuildingBlock: ZUJKAS_clean_linker_0, # of connection points: 2
#     Edge 105, Type (0, 1), BuildingBlock: ZUJKAS_clean_linker_0, # of connection points: 2
#     Edge 106, Type (0, 1), BuildingBlock: ZUJKAS_clean_linker_0, # of connection points: 2
#     Edge 107, Type (0, 1), BuildingBlock: ZUJKAS_clean_linker_0, # of connection points: 2
#     Edge 108, Type (0, 1), BuildingBlock: ZUJKAS_clean_linker_0, # of connection points: 2
#     Edge 109, Type (0, 1), BuildingBlock: ZUJKAS_clean_linker_0, # of connection points: 2
#     Edge 110, Type (0, 1), BuildingBlock: ZUJKAS_clean_linker_0, # of connection points: 2
#     Edge 111, Type (0, 1), BuildingBlock: ZUJKAS_clean_linker_0, # of connection points: 2
#     Edge 112, Type (0, 1), BuildingBlock: ZUJKAS_clean_linker_0, # of connection points: 2
#     Edge 113, Type (0, 1), BuildingBlock: ZUJKAS_clean_linker_0, # of connection points: 2
#     Edge 114, Type (0, 1), BuildingBlock: ZUJKAS_clean_linker_0, # of connection points: 2
#     Edge 115, Type (0, 1), BuildingBlock: ZUJKAS_clean_linker_0, # of connection points: 2
#     Edge 116, Type (0, 1), BuildingBlock: ZUJKAS_clean_linker_0, # of connection points: 2
#     Edge 117, Type (0, 1), BuildingBlock: ZUJKAS_clean_linker_0, # of connection points: 2
#     Edge 118, Type (0, 1), BuildingBlock: ZUJKAS_clean_linker_0, # of connection points: 2
#     Edge 119, Type (0, 1), BuildingBlock: ZUJKAS_clean_linker_0, # of connection points: 2
#     Edge 120, Type (0, 1), BuildingBlock: ZUJKAS_clean_linker_0, # of connection points: 2
#     Edge 121, Type (0, 1), BuildingBlock: ZUJKAS_clean_linker_0, # of connection points: 2
#     Edge 122, Type (0, 1), BuildingBlock: ZUJKAS_clean_linker_0, # of connection points: 2
#     Edge 123, Type (0, 1), BuildingBlock: ZUJKAS_clean_linker_0, # of connection points: 2
#     Edge 124, Type (0, 1), BuildingBlock: ZUJKAS_clean_linker_0, # of connection points: 2
#     Edge 125, Type (0, 1), BuildingBlock: ZUJKAS_clean_linker_0, # of connection points: 2
#     Edge 126, Type (0, 1), BuildingBlock: ZUJKAS_clean_linker_0, # of connection points: 2
#     Edge 127, Type (0, 1), BuildingBlock: ZUJKAS_clean_linker_0, # of connection points: 2
#     Edge 128, Type (0, 1), BuildingBlock: ZUJKAS_clean_linker_0, # of connection points: 2
#     Edge 129, Type (0, 1), BuildingBlock: ZUJKAS_clean_linker_0, # of connection points: 2
#     Edge 130, Type (0, 1), BuildingBlock: ZUJKAS_clean_linker_0, # of connection points: 2
#     Edge 131, Type (0, 1), BuildingBlock: ZUJKAS_clean_linker_0, # of connection points: 2
#     Edge 132, Type (0, 1), BuildingBlock: ZUJKAS_clean_linker_0, # of connection points: 2
#     Edge 133, Type (0, 1), BuildingBlock: ZUJKAS_clean_linker_0, # of connection points: 2
#     Edge 134, Type (0, 1), BuildingBlock: ZUJKAS_clean_linker_0, # of connection points: 2
#     Edge 135, Type (0, 1), BuildingBlock: ZUJKAS_clean_linker_0, # of connection points: 2
# Relax obj value: 0.135
# Max RMSD: 0.308
# Mean RMSD: 0.189
data_MOF--net-gar--node1-AZAVOO_clean_sbu_0--node2-KUMBUR_clean_sbu_0--edge1-ZUJKAS_clean_linker_0
_symmetry_space_group_name_H-M    P1
_symmetry_Int_Tables_number       1
_symmetry_cell_setting            triclinic
loop_
_symmetry_equiv_pos_as_xyz
'x, y, z'
_cell_length_a     77.679372
_cell_length_b     70.995707
_cell_length_c     72.028524
_cell_angle_alpha  102.45028
_cell_angle_beta   92.646362
_cell_angle_gamma 103.35278
loop_
_atom_site_label
_atom_site_type_symbol
_atom_site_fract_x
_atom_site_fract_y
_atom_site_fract_z
_atom_type_partial_charge
Mg0 Mg 0.08724 0.29873 0.36366 0.0
O1 O 0.0906 0.32944 0.38336 0.0
O2 O 0.06434 0.33118 0.39416 0.0
Mg3 Mg 0.04591 0.30008 0.38545 0.0
C4 C 0.08057 0.33906 0.39265 0.0
C5 C 0.12332 0.32218 0.35622 0.0
O6 O 0.11304 0.33354 0.35259 0.0
O7 O 0.09065 0.28605 0.38927 0.0
O8 O 0.06528 0.28828 0.40208 0.0
O9 O 0.07574 0.30984 0.34051 0.0
O10 O 0.06004 0.29424 0.36015 0.0
C11 C 0.08033 0.28387 0.40232 0.0
C12 C 0.06062 0.30382 0.3469 0.0
O13 O 0.1166 0.30645 0.36163 0.0
Mg14 Mg 0.00204 0.78027 0.67376 0.0
O15 O 0.99654 0.75087 0.6516 0.0
O16 O 0.96911 0.74319 0.63657 0.0
Mg17 Mg 0.95796 0.77002 0.64788 0.0
C18 C 0.98404 0.73926 0.63957 0.0
C19 C 0.03314 0.7631 0.68076 0.0
O20 O 0.01936 0.7488 0.68189 0.0
O21 O 0.00697 0.79667 0.65044 0.0
O22 O 0.97978 0.78934 0.63468 0.0
O23 O 0.98944 0.7646 0.69484 0.0
O24 O 0.97525 0.77714 0.67489 0.0
C25 C 0.99639 0.79775 0.63689 0.0
C26 C 0.97468 0.76705 0.68781 0.0
O27 O 0.03062 0.77919 0.67752 0.0
Mg28 Mg 0.58647 0.79647 0.86244 0.0
O29 O 0.59128 0.82709 0.88286 0.0
O30 O 0.56609 0.82925 0.89611 0.0
Mg31 Mg 0.54721 0.79847 0.88822 0.0
C32 C 0.58205 0.83681 0.89339 0.0
C33 C 0.62153 0.82018 0.85247 0.0
O34 O 0.61128 0.83234 0.85143 0.0
O35 O 0.59188 0.7832 0.8874 0.0
O36 O 0.56783 0.78645 0.90259 0.0
O37 O 0.57338 0.80813 0.84083 0.0
O38 O 0.55925 0.79267 0.86148 0.0
C39 C 0.58265 0.78158 0.90144 0.0
C40 C 0.5589 0.80252 0.84852 0.0
O41 O 0.61526 0.80395 0.85727 0.0
Mg42 Mg 0.50173 0.2801 0.16764 0.0
O43 O 0.49591 0.24948 0.14832 0.0
O44 O 0.46856 0.24092 0.13316 0.0
Mg45 Mg 0.45706 0.26784 0.14266 0.0
C46 C 0.48341 0.23705 0.13688 0.0
C47 C 0.53741 0.28301 0.18828 0.0
O48 O 0.52851 0.28951 0.20234 0.0
O49 O 0.50578 0.29364 0.14222 0.0
O50 O 0.47807 0.2864 0.12799 0.0
O51 O 0.49018 0.26668 0.1904 0.0
O52 O 0.47492 0.27698 0.16942 0.0
C53 C 0.49471 0.29446 0.12897 0.0
C54 C 0.47505 0.26803 0.18319 0.0
O55 O 0.53029 0.27888 0.17124 0.0
Mg56 Mg 0.08201 0.82452 0.12583 0.0
O57 O 0.0767 0.79332 0.10493 0.0
O58 O 0.04978 0.7866 0.08921 0.0
Mg59 Mg 0.03713 0.81276 0.09964 0.0
C60 C 0.06419 0.78169 0.0927 0.0
C61 C 0.11925 0.83202 0.1501 0.0
O62 O 0.11064 0.84275 0.16159 0.0
O63 O 0.08622 0.84252 0.10129 0.0
O64 O 0.05794 0.83465 0.08835 0.0
O65 O 0.06687 0.81083 0.14825 0.0
O66 O 0.05431 0.82228 0.1267 0.0
C67 C 0.07414 0.84431 0.08931 0.0
C68 C 0.05268 0.81427 0.14103 0.0
O69 O 0.11177 0.82327 0.13325 0.0
Mg70 Mg 0.51326 0.7632 0.4137 0.0
O71 O 0.51565 0.79326 0.43544 0.0
O72 O 0.4907 0.78969 0.45008 0.0
Mg73 Mg 0.47316 0.75786 0.43874 0.0
C74 C 0.50572 0.80018 0.44743 0.0
C75 C 0.55133 0.75925 0.40233 0.0
O76 O 0.5431 0.74046 0.40042 0.0
O77 O 0.51941 0.74742 0.43738 0.0
O78 O 0.49346 0.74212 0.44991 0.0
O79 O 0.49892 0.77376 0.39162 0.0
O80 O 0.48481 0.75737 0.41126 0.0
C81 C 0.50924 0.7397 0.44869 0.0
C82 C 0.48398 0.76662 0.39777 0.0
O83 O 0.54301 0.77251 0.40841 0.0
Mg84 Mg 0.58203 0.32568 0.62702 0.0
O85 O 0.57755 0.29454 0.60597 0.0
O86 O 0.55062 0.28737 0.59011 0.0
Mg87 Mg 0.5373 0.31295 0.59998 0.0
C88 C 0.56515 0.28275 0.5937 0.0
C89 C 0.61875 0.33181 0.6522 0.0
O90 O 0.60912 0.34002 0.66452 0.0
O91 O 0.58616 0.34391 0.60265 0.0
O92 O 0.55799 0.33566 0.58944 0.0
O93 O 0.56696 0.31212 0.64958 0.0
O94 O 0.55392 0.32226 0.62744 0.0
C95 C 0.57408 0.34571 0.59068 0.0
C96 C 0.55247 0.31457 0.642 0.0
O97 O 0.61209 0.32525 0.63473 0.0
Mg98 Mg 0.01364 0.26174 0.91437 0.0
O99 O 0.01697 0.29129 0.93696 0.0
O100 O 0.99268 0.28853 0.95253 0.0
Mg101 Mg 0.9739 0.25761 0.9397 0.0
C102 C 0.00783 0.29858 0.94966 0.0
C103 C 0.04869 0.25793 0.89667 0.0
O104 O 0.03712 0.24145 0.88773 0.0
O105 O 0.01882 0.24447 0.93699 0.0
O106 O 0.9932 0.24036 0.95019 0.0
O107 O 1.00039 0.27418 0.89325 0.0
O108 O 0.98536 0.2571 0.91194 0.0
C109 C 0.00863 0.23703 0.94842 0.0
C110 C 0.98519 0.26718 0.899 0.0
O111 O 0.04347 0.27006 0.9096 0.0
Mg112 Mg 0.42105 0.06516 0.30297 0.0
O113 O 0.40428 0.03504 0.30428 0.0
O114 O 0.39752 0.03443 0.33396 0.0
Mg115 Mg 0.41028 0.06561 0.35216 0.0
C116 C 0.39661 0.02605 0.31626 0.0
C117 C 0.42091 0.03959 0.26356 0.0
O118 O 0.42464 0.02869 0.27504 0.0
O119 O 0.39613 0.07518 0.3052 0.0
O120 O 0.39026 0.07672 0.3357 0.0
O121 O 0.44503 0.05587 0.30961 0.0
O122 O 0.42955 0.07046 0.33117 0.0
C123 C 0.38653 0.07855 0.31883 0.0
C124 C 0.44194 0.06138 0.32722 0.0
O125 O 0.41745 0.05612 0.27074 0.0
Mg126 Mg 0.2955 0.1859 0.50051 0.0
O127 O 0.2976 0.20648 0.53048 0.0
O128 O 0.32502 0.22645 0.53649 0.0
Mg129 Mg 0.34125 0.21737 0.51175 0.0
C130 C 0.30941 0.22067 0.5413 0.0
C131 C 0.25845 0.15776 0.49834 0.0
O132 O 0.26938 0.146 0.49676 0.0
O133 O 0.29554 0.21131 0.48517 0.0
O134 O 0.32433 0.22751 0.49099 0.0
O135 O 0.3056 0.16358 0.51313 0.0
O136 O 0.32273 0.18789 0.50305 0.0
C137 C 0.30877 0.22485 0.4827 0.0
C138 C 0.32138 0.1728 0.51044 0.0
O139 O 0.26493 0.17632 0.49998 0.0
Mg140 Mg 0.1596 0.00496 0.76633 0.0
O141 O 0.18007 0.03712 0.77112 0.0
O142 O 0.19644 0.04246 0.79877 0.0
Mg143 Mg 0.18658 0.01606 0.81353 0.0
C144 C 0.19253 0.04828 0.78384 0.0
C145 C 0.13415 1.00345 0.72596 0.0
O146 O 0.12174 0.997 0.73648 0.0
O147 O 0.18188 0.98377 0.76177 0.0
O148 O 0.19477 0.99117 0.79167 0.0
O149 O 0.13847 0.01681 0.78551 0.0
O150 O 0.15957 0.00708 0.7979 0.0
C151 C 0.19273 0.98063 0.77451 0.0
C152 C 0.14561 0.01364 0.80068 0.0
O153 O 0.15054 0.00698 0.73305 0.0
Mg154 Mg 0.31144 0.94416 0.03091 0.0
O155 O 0.3204 0.93131 0.00168 0.0
O156 O 0.34797 0.92692 0.0052 0.0
Mg157 Mg 0.34927 0.92315 0.0356 0.0
C158 C 0.33439 0.92734 0.9947 0.0
C159 C 0.28338 0.96258 0.02687 0.0
O160 O 0.29407 0.97241 0.04233 0.0
O161 O 0.29739 0.9138 0.03534 0.0
O162 O 0.32101 0.9065 0.02481 0.0
O163 O 0.33014 0.97245 0.03105 0.0
O164 O 0.33757 0.94913 0.04363 0.0
C165 C 0.30881 0.90371 0.03563 0.0
C166 C 0.34229 0.9657 0.03841 0.0
O167 O 0.28661 0.94705 0.01688 0.0
Mg168 Mg 0.30122 0.3988 0.04097 0.0
O169 O 0.30023 0.37661 0.01157 0.0
O170 O 0.32434 0.36473 0.01368 0.0
Mg171 Mg 0.34012 0.37782 0.04304 0.0
C172 C 0.31038 0.36572 0.00424 0.0
C173 C 0.26923 0.41699 0.04446 0.0
O174 O 0.28162 0.42883 0.05759 0.0
O175 O 0.29244 0.37387 0.05704 0.0
O176 O 0.31766 0.36411 0.0594 0.0
O177 O 0.31858 0.42385 0.03062 0.0
O178 O 0.32909 0.4039 0.04501 0.0
C179 C 0.30172 0.36345 0.06344 0.0
C180 C 0.33222 0.41858 0.03683 0.0
O181 O 0.27262 0.40143 0.03436 0.0
Mg182 Mg 0.77812 0.13352 0.0087 0.0
O183 O 0.76927 0.14256 0.03859 0.0
O184 O 0.79467 0.1649 0.05245 0.0
Mg185 Mg 0.81904 0.16349 0.03593 0.0
C186 C 0.77825 0.15632 0.05252 0.0
C187 C 0.73613 0.11555 0.98971 0.0
O188 O 0.72499 0.11284 0.97454 0.0
O189 O 0.77981 0.165 0.00822 0.0
O190 O 0.80911 0.17724 0.01252 0.0
O191 O 0.78396 0.10479 0.0114 0.0
O192 O 0.80208 0.1345 0.02212 0.0
C193 C 0.7937 0.17704 0.00545 0.0
C194 C 0.79945 0.11558 0.01918 0.0
O195 O 0.752 0.12535 0.98991 0.0
Mg196 Mg 0.17242 0.52034 0.23561 0.0
O197 O 0.19097 0.55153 0.24394 0.0
O198 O 0.20524 0.55676 0.27298 0.0
Mg199 Mg 0.19925 0.5267 0.28069 0.0
C200 C 0.20148 0.56272 0.25818 0.0
C201 C 0.15643 0.5388 0.2076 0.0
O202 O 0.14933 0.54488 0.22324 0.0
O203 O 0.19533 0.50826 0.22528 0.0
O204 O 0.21115 0.5141 0.25361 0.0
O205 O 0.15267 0.53107 0.25297 0.0
O206 O 0.17337 0.51823 0.26397 0.0
C207 C 0.2092 0.50833 0.23539 0.0
C208 C 0.16096 0.52738 0.26717 0.0
O209 O 0.16647 0.52701 0.20746 0.0
Mg210 Mg 0.80284 0.89779 0.54128 0.0
O211 O 0.80034 0.87454 0.51259 0.0
O212 O 0.8231 0.86057 0.51451 0.0
Mg213 Mg 0.84048 0.87502 0.54309 0.0
C214 C 0.80929 0.86226 0.50531 0.0
C215 C 0.77013 0.91485 0.54659 0.0
O216 O 0.78132 0.92491 0.5616 0.0
O217 O 0.79358 0.87417 0.55881 0.0
O218 O 0.81905 0.86511 0.56238 0.0
O219 O 0.82063 0.9213 0.52929 0.0
O220 O 0.83057 0.90177 0.5447 0.0
C221 C 0.80325 0.86507 0.56662 0.0
C222 C 0.83404 0.91583 0.53579 0.0
O223 O 0.77463 0.90111 0.53484 0.0
Mg224 Mg 0.93812 0.07864 0.27878 0.0
O225 O 0.91723 0.04665 0.27453 0.0
O226 O 0.90214 0.04937 0.30027 0.0
Mg227 Mg 0.91349 0.08011 0.32153 0.0
C228 C 0.90522 0.03904 0.28444 0.0
C229 C 0.96097 0.08062 0.24058 0.0
O230 O 0.97281 0.09201 0.2545 0.0
O231 O 0.91621 0.09838 0.27468 0.0
O232 O 0.90488 0.10039 0.30268 0.0
O233 O 0.95889 0.0674 0.29539 0.0
O234 O 0.9398 0.08128 0.31024 0.0
C235 C 0.90625 0.10574 0.2868 0.0
C236 C 0.95269 0.07279 0.31149 0.0
O237 O 0.94544 0.07293 0.24518 0.0
Mg238 Mg 0.27771 0.63321 0.50636 0.0
O239 O 0.27256 0.64836 0.53676 0.0
O240 O 0.30009 0.66621 0.54912 0.0
Mg241 Mg 0.32179 0.66184 0.52961 0.0
C242 C 0.28341 0.66055 0.55041 0.0
C243 C 0.23389 0.61579 0.4922 0.0
O244 O 0.22183 0.61463 0.47832 0.0
O245 O 0.28204 0.66286 0.49882 0.0
O246 O 0.31068 0.67749 0.50884 0.0
O247 O 0.28258 0.6059 0.51481 0.0
O248 O 0.30268 0.63396 0.51694 0.0
C249 C 0.2959 0.67683 0.49992 0.0
C250 C 0.29889 0.61619 0.51937 0.0
O251 O 0.24963 0.62564 0.49171 0.0
Mg252 Mg 0.43759 0.57814 0.77694 0.0
O253 O 0.41626 0.54647 0.77314 0.0
O254 O 0.40234 0.5497 0.79968 0.0
Mg255 Mg 0.41395 0.58065 0.82037 0.0
C256 C 0.40473 0.53911 0.78367 0.0
C257 C 0.4584 0.58278 0.7378 0.0
O258 O 0.46782 0.59838 0.7505 0.0
O259 O 0.41601 0.59829 0.77305 0.0
O260 O 0.40505 0.60049 0.80127 0.0
O261 O 0.45786 0.56603 0.79314 0.0
O262 O 0.43989 0.58149 0.80843 0.0
C263 C 0.4062 0.60573 0.78532 0.0
C264 C 0.45221 0.57215 0.80939 0.0
O265 O 0.44489 0.57174 0.74338 0.0
Mg266 Mg 0.67383 0.02223 0.73403 0.0
O267 O 0.69255 0.05351 0.74361 0.0
O268 O 0.7039 0.05922 0.77409 0.0
Mg269 Mg 0.70433 0.02751 0.77415 0.0
C270 C 0.70099 0.0652 0.75902 0.0
C271 C 0.66465 0.01614 0.69173 0.0
O272 O 0.66575 0.9981 0.69238 0.0
O273 O 0.69473 0.00828 0.72084 0.0
O274 O 0.71285 0.02854 0.74427 0.0
O275 O 0.65582 0.03339 0.75289 0.0
O276 O 0.67614 0.01848 0.76184 0.0
C277 C 0.7099 0.01372 0.73013 0.0
C278 C 0.66444 0.02855 0.76625 0.0
O279 O 0.6673 0.02958 0.70699 0.0
Mg280 Mg 0.79502 0.68684 0.99976 0.0
O281 O 0.79785 0.70806 0.02977 0.0
O282 O 0.82605 0.72593 0.03571 0.0
Mg283 Mg 0.84127 0.7172 0.00997 0.0
C284 C 0.81039 0.72121 0.04076 0.0
C285 C 0.75822 0.65898 0.9988 0.0
O286 O 0.76937 0.6475 0.99741 0.0
O287 O 0.79518 0.71192 0.98393 0.0
O288 O 0.82408 0.72766 0.98955 0.0
O289 O 0.80504 0.66434 0.01228 0.0
O290 O 0.82227 0.68808 0.00165 0.0
C291 C 0.80853 0.72523 0.98132 0.0
C292 C 0.82082 0.67303 0.00911 0.0
O293 O 0.7644 0.67749 0.99983 0.0
Mg294 Mg 0.92922 0.5646 0.79883 0.0
O295 O 0.9092 0.53423 0.79128 0.0
O296 O 0.90271 0.52713 0.81947 0.0
Mg297 Mg 0.92028 0.55021 0.84413 0.0
C298 C 0.90044 0.52321 0.80124 0.0
C299 C 0.91869 0.56398 0.75335 0.0
O300 O 0.91123 0.57251 0.74183 0.0
O301 O 0.90794 0.57825 0.81089 0.0
O302 O 0.90301 0.57126 0.83934 0.0
O303 O 0.95227 0.54991 0.79708 0.0
O304 O 0.9384 0.55764 0.82266 0.0
C305 C 0.90001 0.57959 0.82596 0.0
C306 C 0.94995 0.54926 0.81463 0.0
O307 O 0.9205 0.57169 0.77113 0.0
Mg308 Mg 0.81577 0.44807 0.53165 0.0
O309 O 0.82252 0.43126 0.50327 0.0
O310 O 0.84983 0.42684 0.50755 0.0
Mg311 Mg 0.86018 0.44024 0.5388 0.0
C312 C 0.83561 0.42473 0.4969 0.0
C313 C 0.77995 0.45194 0.53268 0.0
O314 O 0.78855 0.45921 0.54984 0.0
O315 O 0.81045 0.41988 0.54241 0.0
O316 O 0.83832 0.41702 0.54727 0.0
O317 O 0.82868 0.47664 0.52491 0.0
O318 O 0.84195 0.45979 0.54121 0.0
C319 C 0.82158 0.41097 0.54785 0.0
C320 C 0.84298 0.47455 0.53333 0.0
O321 O 0.78762 0.44305 0.51966 0.0
Mg322 Mg 0.65973 0.50454 0.26578 0.0
O323 O 0.67965 0.53683 0.27016 0.0
O324 O 0.69819 0.54137 0.29616 0.0
Mg325 Mg 0.68815 0.51553 0.3118 0.0
C326 C 0.69311 0.5475 0.28185 0.0
C327 C 0.63516 0.51003 0.22857 0.0
O328 O 0.62559 0.51382 0.24285 0.0
O329 O 0.68192 0.48353 0.26063 0.0
O330 O 0.69536 0.48953 0.29022 0.0
O331 O 0.63883 0.51615 0.28506 0.0
O332 O 0.66053 0.50716 0.29733 0.0
C333 C 0.69273 0.47958 0.27283 0.0
C334 C 0.64641 0.51345 0.30022 0.0
O335 O 0.64987 0.50536 0.23244 0.0
Tb336 Tb 0.02507 0.02777 0.00548 0.0
C337 C 0.08127 0.10019 0.05127 0.0
C338 C 0.08928 0.11974 0.02792 0.0
C339 C 0.09327 0.13603 0.06165 0.0
C340 C 0.08245 0.10124 0.0325 0.0
C341 C 0.08718 0.11748 0.06613 0.0
C342 C 0.09424 0.13717 0.04255 0.0
C343 C 0.08257 0.09659 0.08871 0.0
N344 N 0.07558 0.08202 0.05503 0.0
C345 C 0.07687 0.07991 0.07348 0.0
C346 C 0.08751 0.11551 0.08504 0.0
Tb347 Tb 0.06745 0.05521 0.02935 0.0
N348 N 0.07802 0.08398 0.01886 0.0
C349 C 0.08135 0.08431 1.00034 0.0
C350 C 0.0916 0.12011 0.00889 0.0
C351 C 0.08786 0.10228 0.9951 0.0
H352 H 0.07317 0.06528 0.07643 0.0
H353 H 0.08995 0.10232 0.98035 0.0
H354 H 0.09939 0.15149 0.03928 0.0
H355 H 0.08321 0.09481 0.10326 0.0
H356 H 0.07852 0.07103 0.98911 0.0
H357 H 0.00533 0.97342 0.04812 0.0
H358 H 0.09676 0.134 0.00478 0.0
H359 H 0.01568 0.02333 0.95936 0.0
H360 H 0.01541 0.0067 0.04263 0.0
H361 H 0.00529 0.99652 0.93027 0.0
H362 H 0.09774 0.1495 0.07286 0.0
H363 H 0.99863 0.94398 0.02099 0.0
H364 H 0.99486 0.93034 0.98549 0.0
H365 H 0.09206 0.1284 0.09685 0.0
H366 H 0.99471 0.93663 0.9532 0.0
N367 N 0.01579 0.9969 0.0124 0.0
C368 C 0.01281 0.99431 0.03042 0.0
C369 C 0.00335 0.9587 0.01842 0.0
C370 C 0.00496 0.96143 0.99988 0.0
C371 C 0.00702 0.97527 0.03373 0.0
C372 C 0.01123 0.98094 0.99734 0.0
H373 H 0.99831 0.96131 0.93246 0.0
N374 N 0.01582 0.00356 0.97778 0.0
C375 C 0.00706 0.99287 0.94395 0.0
C376 C 0.01122 0.98441 0.97931 0.0
C377 C 0.01301 0.00803 0.96048 0.0
C378 C 0.0032 0.97303 0.94524 0.0
C379 C 0.00486 0.96859 0.96313 0.0
O380 O 0.00653 0.04064 0.99397 0.0
O381 O 0.04309 0.05693 0.01554 0.0
O382 O 0.048 0.06425 0.0491 0.0
O383 O 0.02317 0.03826 0.03682 0.0
O384 O 0.03088 0.04981 0.98827 0.0
O385 O 1.00019 0.02553 0.01648 0.0
O386 O 0.0849 0.04538 0.04581 0.0
O387 O 0.04973 0.02574 0.01914 0.0
O388 O 0.04343 0.02063 0.98367 0.0
O389 O 0.07039 0.04197 0.9987 0.0
O390 O 0.06103 0.03371 0.04692 0.0
O391 O 0.09309 0.05567 0.02069 0.0
C392 C 0.04141 0.06379 1.00091 0.0
C393 C 0.97639 0.02745 0.99599 0.0
C394 C 0.9469 0.03305 0.99212 0.0
C395 C 0.96429 0.03901 1.00109 0.0
C396 C 0.94173 0.01535 0.97777 0.0
C397 C 0.97109 0.00964 0.98191 0.0
C398 C 0.95379 0.00368 0.97278 0.0
C399 C 0.03196 0.05341 0.05091 0.0
C400 C 0.99461 0.03513 0.00499 0.0
C401 C 0.99953 0.94901 0.96545 0.0
C402 C 0.99962 0.94543 0.98383 0.0
C403 C 0.05142 0.01917 0.03403 0.0
C404 C 0.11565 0.05719 0.04479 0.0
C405 C 0.12922 0.05057 0.03557 0.0
C406 C 0.14587 0.05332 0.04552 0.0
C407 C 0.1493 0.06455 0.06454 0.0
C408 C 0.11911 0.0683 0.06379 0.0
C409 C 0.13601 0.07228 0.07348 0.0
C410 C 0.06056 0.02931 0.98336 0.0
C411 C 0.09767 0.04892 0.03511 0.0
H412 H 0.96853 0.05287 0.01189 0.0
H413 H 0.92832 0.01038 0.97071 0.0
H414 H 0.98024 1.00046 0.9779 0.0
H415 H 0.94971 0.98998 0.96184 0.0
H416 H 0.12639 0.04212 0.02084 0.0
H417 H 0.16193 0.06672 0.07273 0.0
H418 H 0.10875 0.07327 0.07137 0.0
H419 H 0.13858 0.08059 0.08823 0.0
Tb420 Tb 0.30805 0.78294 0.25233 0.0
C421 C 0.28981 0.84711 0.31638 0.0
C422 C 0.31853 0.86343 0.33398 0.0
C423 C 0.2947 0.88035 0.33702 0.0
C424 C 0.30698 0.84657 0.32154 0.0
C425 C 0.28348 0.86403 0.32408 0.0
C426 C 0.31221 0.88008 0.34191 0.0
C427 C 0.25527 0.84758 0.30584 0.0
N428 N 0.27941 0.8313 0.30349 0.0
C429 C 0.26206 0.83122 0.29864 0.0
C430 C 0.26603 0.86411 0.31859 0.0
Tb431 Tb 0.29031 0.80334 0.29504 0.0
N432 N 0.31268 0.83018 0.31342 0.0
C433 C 0.33063 0.83122 0.31602 0.0
C434 C 0.3363 0.86346 0.33764 0.0
C435 C 0.34243 0.84746 0.32829 0.0
H436 H 0.2531 0.81838 0.28932 0.0
H437 H 0.3564 0.84775 0.33021 0.0
H438 H 0.32087 0.89299 0.35159 0.0
H439 H 0.24161 0.8473 0.30171 0.0
H440 H 0.33666 0.82025 0.30817 0.0
H441 H 0.25272 0.72479 0.2132 0.0
H442 H 0.34555 0.87613 0.34701 0.0
H443 H 0.35089 0.78553 0.25755 0.0
H444 H 0.2664 0.75604 0.23607 0.0
H445 H 0.37114 0.76395 0.24747 0.0
H446 H 0.29002 0.89338 0.34311 0.0
H447 H 0.27095 0.70168 0.20025 0.0
H448 H 0.30035 0.69274 0.201 0.0
H449 H 0.2607 0.87677 0.32423 0.0
H450 H 0.33245 0.70285 0.21138 0.0
N451 N 0.29267 0.75138 0.23644 0.0
C452 C 0.2748 0.7464 0.23073 0.0
C453 C 0.27704 0.71527 0.21079 0.0
C454 C 0.29508 0.71991 0.21729 0.0
C455 C 0.26679 0.72841 0.21784 0.0
C456 C 0.3026 0.73838 0.23011 0.0
H457 H 0.35898 0.72934 0.22886 0.0
N458 N 0.32731 0.76276 0.24662 0.0
C459 C 0.35691 0.75809 0.24424 0.0
C460 C 0.32054 0.74414 0.23573 0.0
C461 C 0.34537 0.77021 0.25008 0.0
C462 C 0.35 0.73856 0.23377 0.0
C463 C 0.33164 0.73151 0.22896 0.0
O464 O 0.32581 0.80128 0.23878 0.0
O465 O 0.3046 0.80942 0.27166 0.0
O466 O 0.27677 0.81052 0.27046 0.0
O467 O 0.28246 0.78874 0.24381 0.0
O468 O 0.32987 0.80812 0.26559 0.0
O469 O 0.3018 0.78167 0.22321 0.0
O470 O 0.26321 0.79023 0.29534 0.0
O471 O 0.28817 0.77814 0.27134 0.0
O472 O 0.32244 0.77565 0.27631 0.0
O473 O 0.31342 0.79313 0.30458 0.0
O474 O 0.28762 0.77289 0.29846 0.0
O475 O 0.28038 0.80404 0.32169 0.0
C476 C 0.32041 0.8195 0.27382 0.0
C477 C 0.3258 0.79239 0.20586 0.0
C478 C 0.33595 0.80595 0.17916 0.0
C479 C 0.32654 0.80657 0.19519 0.0
C480 C 0.34547 0.7913 0.17429 0.0
C481 C 0.33512 0.7776 0.20105 0.0
C482 C 0.34505 0.77717 0.18528 0.0
C483 C 0.27322 0.80115 0.2521 0.0
C484 C 0.31616 0.79504 0.22261 0.0
C485 C 0.32416 0.71275 0.21678 0.0
C486 C 0.30591 0.70701 0.21083 0.0
C487 C 0.28639 0.76473 0.28054 0.0
C488 C 0.25633 0.77637 0.32179 0.0
C489 C 0.26531 0.77133 0.33665 0.0
C490 C 0.25732 0.75485 0.34366 0.0
C491 C 0.24026 0.7434 0.33587 0.0
C492 C 0.23915 0.76498 0.31432 0.0
C493 C 0.23119 0.74855 0.32132 0.0
C494 C 0.324 0.78255 0.29533 0.0
C495 C 0.26458 0.79343 0.31395 0.0
H496 H 0.3197 0.8183 0.1995 0.0
H497 H 0.35284 0.79052 0.16186 0.0
H498 H 0.33487 0.76664 0.20942 0.0
H499 H 0.35231 0.76582 0.18151 0.0
H500 H 0.27853 0.78003 0.34271 0.0
H501 H 0.23384 0.73074 0.34133 0.0
H502 H 0.23189 0.76878 0.30302 0.0
H503 H 0.21794 0.73984 0.31552 0.0
Tb504 Tb 0.56969 0.04653 0.51406 0.0
C505 C 0.50135 0.00708 0.54327 0.0
C506 C 0.48693 0.97943 0.51713 0.0
C507 C 0.48257 0.97728 0.54988 0.0
C508 C 0.49825 0.99862 0.52394 0.0
C509 C 0.49322 0.99676 0.55648 0.0
C510 C 0.47943 0.96863 0.53022 0.0
C511 C 0.50526 0.02642 0.58143 0.0
N512 N 0.51153 0.02599 0.54902 0.0
C513 C 0.5129 0.03609 0.56773 0.0
C514 C 0.49557 0.00657 0.57582 0.0
Tb515 Tb 0.52397 0.04033 0.5256 0.0
N516 N 0.50562 0.00963 0.51179 0.0
C517 C 0.50134 1.00262 0.49247 0.0
C518 C 0.48308 0.97194 0.49739 0.0
C519 C 0.49021 0.98366 0.48502 0.0
H520 H 0.52038 0.05143 0.57218 0.0
H521 H 0.48711 0.97812 0.46973 0.0
H522 H 0.47085 0.95378 0.52527 0.0
H523 H 0.5068 0.03428 0.59629 0.0
H524 H 0.50664 0.01137 0.48259 0.0
H525 H 0.60691 0.11102 0.56721 0.0
H526 H 0.47429 0.95737 0.49158 0.0
H527 H 0.57239 0.03269 0.46719 0.0
H528 H 0.58693 0.07774 0.55593 0.0
H529 H 0.5867 0.04751 0.44218 0.0
H530 H 0.47633 0.969 0.55981 0.0
H531 H 0.62057 0.12953 0.544 0.0
H532 H 0.62525 0.1301 0.50982 0.0
H533 H 0.48955 0.99915 0.58644 0.0
H534 H 0.61975 0.11284 0.47578 0.0
N535 N 0.58837 0.07737 0.52633 0.0
C536 C 0.59256 0.08554 0.5455 0.0
C537 C 0.61165 0.1149 0.5389 0.0
C538 C 0.60806 0.10608 0.51935 0.0
C539 C 0.60399 0.10449 0.55203 0.0
C540 C 0.59627 0.08705 0.51346 0.0
H541 H 0.60547 0.082 0.45044 0.0
N542 N 0.58218 0.05885 0.48949 0.0
C543 C 0.58851 0.05615 0.45679 0.0
C544 C 0.59309 0.07746 0.49437 0.0
C545 C 0.58039 0.0478 0.47105 0.0
C546 C 0.59908 0.07563 0.4615 0.0
C547 C 0.60171 0.08644 0.48053 0.0
O548 O 0.58041 0.02184 0.50504 0.0
O549 O 0.54449 0.02625 0.51516 0.0
O550 O 0.53753 0.02758 0.54461 0.0
O551 O 0.56642 0.04622 0.54419 0.0
O552 O 0.55779 0.01925 0.49209 0.0
O553 O 0.59341 0.04525 0.52894 0.0
O554 O 0.51182 0.0631 0.53725 0.0
O555 O 0.54911 0.06083 0.5246 0.0
O556 O 0.55658 0.05891 0.49419 0.0
O557 O 0.52716 0.0423 0.496 0.0
O558 O 0.53549 0.06762 0.54757 0.0
O559 O 0.50132 0.04313 0.51009 0.0
C560 C 0.54381 0.01303 0.50011 0.0
C561 C 0.61123 0.0271 0.51004 0.0
C562 C 0.63482 0.0095 0.50529 0.0
C563 C 0.6198 0.01292 0.5144 0.0
C564 C 0.64119 0.02045 0.49186 0.0
C565 C 0.61812 0.0382 0.49696 0.0
C566 C 0.63295 0.03481 0.48787 0.0
C567 C 0.55388 0.03586 0.55247 0.0
C568 C 0.59416 0.02856 0.51761 0.0
C569 C 0.61306 0.10563 0.48621 0.0
C570 C 0.61621 0.11545 0.50559 0.0
C571 C 0.54941 0.07408 0.53957 0.0
C572 C 0.48123 0.05692 0.52927 0.0
C573 C 0.47227 0.07104 0.52576 0.0
C574 C 0.45606 0.07194 0.53334 0.0
C575 C 0.44882 0.05847 0.54431 0.0
C576 C 0.47363 0.04332 0.53992 0.0
C577 C 0.45751 0.04413 0.54743 0.0
C578 C 0.5397 0.05227 0.48748 0.0
C579 C 0.49918 0.05787 0.52333 0.0
H580 H 0.61454 0.00422 0.52444 0.0
H581 H 0.65277 0.01814 0.48473 0.0
H582 H 0.61195 0.04926 0.49352 0.0
H583 H 0.63803 0.0433 0.47763 0.0
H584 H 0.47814 0.08168 0.51763 0.0
H585 H 0.4363 0.05887 0.55023 0.0
H586 H 0.48019 0.03229 0.54272 0.0
H587 H 0.45182 0.03372 0.5558 0.0
Tb588 Tb 0.2788 0.29596 0.76851 0.0
C589 C 0.33681 0.26805 0.80535 0.0
C590 C 0.34918 0.29583 0.83211 0.0
C591 C 0.34947 0.26229 0.8345 0.0
C592 C 0.34054 0.28814 0.81342 0.0
C593 C 0.34176 0.25492 0.81551 0.0
C594 C 0.35312 0.28273 0.84282 0.0
C595 C 0.33316 0.22881 0.78667 0.0
N596 N 0.32963 0.26162 0.78692 0.0
C597 C 0.32859 0.24247 0.77717 0.0
C598 C 0.3395 0.23499 0.80602 0.0
Tb599 Tb 0.32182 0.2848 0.77271 0.0
N600 N 0.33685 0.30027 0.80243 0.0
C601 C 0.34285 0.32051 0.8089 0.0
C602 C 0.35425 0.31646 0.83918 0.0
C603 C 0.35139 0.32884 0.82736 0.0
H604 H 0.32361 0.23762 0.76222 0.0
H605 H 0.35565 0.34485 0.83249 0.0
H606 H 0.35957 0.28833 0.85727 0.0
H607 H 0.33181 0.21356 0.77906 0.0
H608 H 0.34077 0.33056 0.80028 0.0
H609 H 0.24585 0.24173 0.70433 0.0
H610 H 0.36087 0.32296 0.85347 0.0
H611 H 0.27451 0.34188 0.78426 0.0
H612 H 0.26008 0.25281 0.73711 0.0
H613 H 0.26674 0.36835 0.77074 0.0
H614 H 0.35317 0.25242 0.84266 0.0
H615 H 0.24126 0.26641 0.68631 0.0
H616 H 0.24319 0.30222 0.68617 0.0
H617 H 0.34317 0.22443 0.81332 0.0
H618 H 0.24899 0.33705 0.70437 0.0
N619 N 0.26457 0.2838 0.73798 0.0
C620 C 0.25838 0.26392 0.72967 0.0
C621 C 0.24778 0.27144 0.70075 0.0
C622 C 0.25291 0.29168 0.70972 0.0
C623 C 0.25023 0.25748 0.71091 0.0
C624 C 0.26115 0.29738 0.72864 0.0
H625 H 0.2574 0.36183 0.73615 0.0
N626 N 0.2707 0.32099 0.75741 0.0
C627 C 0.26619 0.35396 0.76152 0.0
C628 C 0.26438 0.31679 0.73875 0.0
C629 C 0.27059 0.33894 0.76913 0.0
C630 C 0.26098 0.35025 0.74198 0.0
C631 C 0.25953 0.33129 0.73042 0.0
O632 O 0.26491 0.30396 0.79231 0.0
O633 O 0.30025 0.29335 0.78728 0.0
O634 O 0.30251 0.26055 0.7814 0.0
O635 O 0.27583 0.26359 0.76755 0.0
O636 O 0.28998 0.31765 0.79505 0.0
O637 O 0.25268 0.27916 0.76953 0.0
O638 O 0.3363 0.27224 0.75136 0.0
O639 O 0.3005 0.28746 0.7539 0.0
O640 O 0.29754 0.3221 0.76248 0.0
O641 O 0.32521 0.31637 0.77042 0.0
O642 O 0.31062 0.26298 0.74624 0.0
O643 O 0.34705 0.30161 0.76862 0.0
C644 C 0.30133 0.30876 0.80037 0.0
C645 C 0.23372 0.29654 0.78726 0.0
C646 C 0.20742 0.2996 0.80409 0.0
C647 C 0.22273 0.29216 0.80166 0.0
C648 C 0.20327 0.31138 0.79202 0.0
C649 C 0.22894 0.30783 0.77505 0.0
C650 C 0.21388 0.31531 0.77752 0.0
C651 C 0.28534 0.25318 0.77515 0.0
C652 C 0.25054 0.29018 0.78575 0.0
C653 C 0.25256 0.32607 0.71114 0.0
C654 C 0.24925 0.30625 0.70079 0.0
C655 C 0.29959 0.27216 0.74075 0.0
C656 C 0.3677 0.2834 0.75595 0.0
C657 C 0.3802 0.28921 0.74321 0.0
C658 C 0.39714 0.28494 0.74411 0.0
C659 C 0.40098 0.27429 0.7575 0.0
C660 C 0.37224 0.27322 0.76933 0.0
C661 C 0.38867 0.26855 0.76995 0.0
C662 C 0.31519 0.32797 0.76583 0.0
C663 C 0.34988 0.2876 0.75504 0.0
H664 H 0.22619 0.28328 0.81107 0.0
H665 H 0.19156 0.31721 0.79358 0.0
H666 H 0.23684 0.31096 0.76364 0.0
H667 H 0.21041 0.32417 0.76813 0.0
H668 H 0.37687 0.29725 0.73293 0.0
H669 H 0.4136 0.27031 0.75832 0.0
H670 H 0.36308 0.26877 0.77929 0.0
H671 H 0.39192 0.26045 0.7802 0.0
Tb672 Tb 0.04119 0.06456 0.52996 0.0
C673 C 0.06014 1.00284 0.46717 0.0
C674 C 0.03377 0.99249 0.4447 0.0
C675 C 0.06225 0.98945 0.43354 0.0
C676 C 0.0422 1.00078 0.46343 0.0
C677 C 0.07033 0.99665 0.45239 0.0
C678 C 0.04398 0.98739 0.42969 0.0
C679 C 0.09496 1.00247 0.47632 0.0
N680 N 0.06729 0.00926 0.48561 0.0
C681 C 0.08421 0.00817 0.49046 0.0
C682 C 0.08808 0.99698 0.45714 0.0
Tb683 Tb 0.04889 0.01827 0.50801 0.0
N684 N 0.03278 0.00522 0.47844 0.0
C685 C 0.01454 1.00015 0.47573 0.0
C686 C 0.01526 0.98864 0.44177 0.0
C687 C 0.00559 0.99217 0.45742 0.0
H688 H 0.08958 0.01216 0.50528 0.0
H689 H 0.99121 0.98873 0.45542 0.0
H690 H 0.03776 0.98113 0.4152 0.0
H691 H 0.1085 1.00218 0.48023 0.0
H692 H 0.0066 1.00264 0.48745 0.0
H693 H 0.09739 0.0953 0.58414 0.0
H694 H 0.00828 0.98228 0.42762 0.0
H695 H 0.99984 0.06937 0.53107 0.0
H696 H 0.08283 0.08049 0.55181 0.0
H697 H 0.98009 0.07914 0.5552 0.0
H698 H 0.06987 0.98476 0.42195 0.0
H699 H 0.07951 0.10236 0.6111 0.0
H700 H 0.04958 0.10348 0.62235 0.0
H701 H 0.09635 0.99232 0.44622 0.0
H702 H 0.01752 0.0991 0.61447 0.0
N703 N 0.05639 0.07804 0.55989 0.0
C704 C 0.07457 0.08319 0.56319 0.0
C705 C 0.07291 0.0956 0.59684 0.0
C706 C 0.05443 0.09154 0.59328 0.0
C707 C 0.08303 0.09171 0.58166 0.0
C708 C 0.04651 0.08278 0.57442 0.0
H709 H 0.9915 0.09024 0.58942 0.0
N710 N 0.02193 0.07345 0.55146 0.0
C711 C 0.99367 0.07939 0.55961 0.0
C712 C 0.0286 0.0804 0.57004 0.0
C713 C 0.00489 0.07375 0.54598 0.0
C714 C 1.00014 0.0856 0.5789 0.0
C715 C 0.01792 0.08659 0.5843 0.0
O716 O 0.03049 0.08362 0.51689 0.0
O717 O 0.04027 0.04379 0.50247 0.0
O718 O 0.0697 0.03986 0.49876 0.0
O719 O 0.06824 0.06853 0.52094 0.0
O720 O 0.01868 0.05497 0.50766 0.0
O721 O 0.05728 0.093 0.53067 0.0
O722 O 0.05966 0.99909 0.52083 0.0
O723 O 0.05001 0.03908 0.53549 0.0
O724 O 0.02092 0.04329 0.53987 0.0
O725 O 0.02207 0.01448 0.51775 0.0
O726 O 0.0715 0.02774 0.53021 0.0
O727 O 0.03294 0.98961 0.50697 0.0
C728 C 0.02528 0.04419 0.4946 0.0
C729 C 0.04259 0.11796 0.52769 0.0
C730 C 0.0464 0.15075 0.52122 0.0
C731 C 0.04879 0.13141 0.51655 0.0
C732 C 0.03738 0.15644 0.53716 0.0
C733 C 0.03381 0.12372 0.54372 0.0
C734 C 0.03117 0.14295 0.54838 0.0
C735 C 0.07626 0.05876 0.50766 0.0
C736 C 0.04489 0.09785 0.52135 0.0
C737 C 0.02551 0.09436 0.60328 0.0
C738 C 0.04376 0.09684 0.60777 0.0
C739 C 0.06506 0.03872 0.54329 0.0
C740 C 0.04803 0.96475 0.5093 0.0
C741 C 0.04191 0.9507 0.51991 0.0
C742 C 0.0459 0.93203 0.51565 0.0
C743 C 0.05579 0.92745 0.50014 0.0
C744 C 0.05761 0.95992 0.4937 0.0
C745 C 0.06145 0.94129 0.48916 0.0
C746 C 0.01426 0.02448 0.53107 0.0
C747 C 0.04539 0.9847 0.51611 0.0
H748 H 0.05524 0.12662 0.50395 0.0
H749 H 0.03537 0.17132 0.54109 0.0
H750 H 0.02891 0.11346 0.55248 0.0
H751 H 0.02431 0.1474 0.56069 0.0
H752 H 0.03421 0.95453 0.53171 0.0
H753 H 0.05943 0.91337 0.4967 0.0
H754 H 0.06229 0.97048 0.48521 0.0
H755 H 0.06909 0.93769 0.47728 0.0
Tb756 Tb 0.31944 0.80538 0.76775 0.0
C757 C 0.2745 0.7447 0.79859 0.0
C758 C 0.28276 0.71587 0.78031 0.0
C759 C 0.27388 0.71609 0.81224 0.0
C760 C 0.28049 0.73533 0.78225 0.0
C761 C 0.27047 0.73489 0.8135 0.0
C762 C 0.28002 0.70659 0.79565 0.0
C763 C 0.25731 0.7614 0.82818 0.0
N764 N 0.27095 0.76259 0.79903 0.0
C765 C 0.26132 0.77034 0.81288 0.0
C766 C 0.26224 0.74379 0.8287 0.0
Tb767 Tb 0.27858 0.77633 0.77359 0.0
N768 N 0.28271 0.74468 0.76766 0.0
C769 C 0.28579 0.73467 0.75015 0.0
C770 C 0.28692 0.70602 0.76274 0.0
C771 C 0.28803 0.7153 0.74746 0.0
H772 H 0.25733 0.78386 0.81243 0.0
H773 H 0.29074 0.70762 0.73364 0.0
H774 H 0.28194 0.69176 0.79454 0.0
H775 H 0.25031 0.76801 0.83947 0.0
H776 H 0.28658 0.74153 0.7382 0.0
H777 H 0.31843 0.87645 0.81527 0.0
H778 H 0.28872 0.69105 0.76064 0.0
H779 H 0.3275 0.797 0.72115 0.0
H780 H 0.32282 0.84324 0.80799 0.0
H781 H 0.32513 0.81234 0.69435 0.0
H782 H 0.2711 0.70842 0.82366 0.0
H783 H 0.31271 0.89268 0.78942 0.0
H784 H 0.3106 0.89178 0.75465 0.0
H785 H 0.25892 0.73675 0.84043 0.0
H786 H 0.31165 0.87406 0.72166 0.0
N787 N 0.31754 0.83822 0.77742 0.0
C788 C 0.31942 0.84897 0.79607 0.0
C789 C 0.31416 0.87753 0.7859 0.0
C790 C 0.31362 0.86731 0.76696 0.0
C791 C 0.31733 0.8684 0.8005 0.0
C792 C 0.31536 0.84746 0.76307 0.0
H793 H 0.31712 0.8446 0.69909 0.0
N794 N 0.31859 0.81888 0.74129 0.0
C795 C 0.32207 0.81941 0.70826 0.0
C796 C 0.31579 0.83743 0.74445 0.0
C797 C 0.32303 0.81055 0.72365 0.0
C798 C 0.31759 0.83759 0.711 0.0
C799 C 0.31493 0.84714 0.72933 0.0
O800 O 0.34137 0.79959 0.75338 0.0
O801 O 0.30595 0.77468 0.76819 0.0
O802 O 0.29163 0.78811 0.80256 0.0
O803 O 0.31765 0.81012 0.79831 0.0
O804 O 0.32976 0.787 0.78434 0.0
O805 O 0.34482 0.82369 0.77905 0.0
O806 O 0.2523 0.77914 0.77466 0.0
O807 O 0.29095 0.80502 0.76711 0.0
O808 O 0.30898 0.78212 0.74167 0.0
O809 O 0.2795 0.77979 0.74435 0.0
O810 O 0.27374 0.80491 0.78792 0.0
O811 O 0.25867 0.75623 0.75336 0.0
C812 C 0.31761 0.77064 0.77902 0.0
C813 C 0.37141 0.81922 0.76422 0.0
C814 C 0.40167 0.82822 0.77927 0.0
C815 C 0.38333 0.82335 0.78065 0.0
C816 C 0.40804 0.82911 0.76148 0.0
C817 C 0.37788 0.81984 0.74645 0.0
C818 C 0.39617 0.82489 0.74513 0.0
C819 C 0.30631 0.80205 0.80916 0.0
C820 C 0.35227 0.81412 0.76554 0.0
C821 C 0.31244 0.86648 0.7331 0.0
C822 C 0.31184 0.87656 0.75188 0.0
C823 C 0.28289 0.81624 0.77821 0.0
C824 C 0.2293 0.75068 0.76182 0.0
C825 C 0.21467 0.75082 0.74998 0.0
C826 C 0.19762 0.73985 0.75176 0.0
C827 C 0.19551 0.72796 0.76521 0.0
C828 C 0.22718 0.73877 0.77515 0.0
C829 C 0.21028 0.72737 0.77675 0.0
C830 C 0.29247 0.77761 0.73377 0.0
C831 C 0.2462 0.76412 0.7603 0.0
H832 H 0.37839 0.82251 0.79437 0.0
H833 H 0.42221 0.83269 0.76022 0.0
H834 H 0.36879 0.81659 0.73365 0.0
H835 H 0.40114 0.82542 0.73142 0.0
H836 H 0.21659 0.75987 0.73952 0.0
H837 H 0.18246 0.71955 0.76713 0.0
H838 H 0.2384 0.73836 0.78433 0.0
H839 H 0.20857 0.71833 0.78718 0.0
Tb840 Tb 0.55589 0.03287 0.04012 0.0
C841 C 0.50905 0.05493 0.97984 0.0
C842 C 0.48951 0.02354 0.96296 0.0
C843 C 0.48042 0.05429 0.96425 0.0
C844 C 0.50569 0.03456 0.97376 0.0
C845 C 0.49666 0.06514 0.9748 0.0
C846 C 0.47682 0.0335 0.9584 0.0
C847 C 0.51797 0.09605 0.98951 0.0
N848 N 0.52494 0.06484 0.98987 0.0
C849 C 0.52987 0.08523 0.994 0.0
C850 C 0.50121 0.08596 0.98004 0.0
Tb851 Tb 0.54401 0.04605 0.99582 0.0
N852 N 0.51832 0.02554 0.97849 0.0
C853 C 0.51574 0.00538 0.97209 0.0
C854 C 0.48663 1.00288 0.95699 0.0
C855 C 0.49985 0.99378 0.96151 0.0
H856 H 0.54289 0.0931 1.00118 0.0
H857 H 0.49782 0.97781 0.95684 0.0
H858 H 0.4643 0.0253 0.95013 0.0
H859 H 0.52178 0.11216 0.99324 0.0
H860 H 0.52566 0.99789 0.97538 0.0
H861 H 0.60235 0.09756 0.08481 0.0
H862 H 0.47434 0.99386 0.94875 0.0
H863 H 0.55548 0.9851 0.03306 0.0
H864 H 0.57399 0.079 0.06636 0.0
H865 H 0.57657 0.96484 0.03759 0.0
H866 H 0.47068 0.06184 0.9603 0.0
H867 H 0.62677 0.08094 0.08731 0.0
H868 H 0.6372 0.04937 0.08039 0.0
H869 H 0.49207 0.09437 0.97642 0.0
H870 H 0.63014 0.01306 0.06762 0.0
N871 N 0.58184 0.05176 0.05805 0.0
C872 C 0.58427 0.0713 0.0673 0.0
C873 C 0.6142 0.07259 0.07923 0.0
C874 C 0.61135 0.05235 0.07067 0.0
C875 C 0.60045 0.08199 0.0779 0.0
C876 C 0.59474 0.04221 0.06031 0.0
H877 H 0.60738 0.9813 0.05201 0.0
N878 N 0.57429 0.01279 0.04438 0.0
C879 C 0.58078 0.98091 0.04197 0.0
C880 C 0.59081 0.02194 0.05324 0.0
C881 C 0.56885 0.99243 0.03948 0.0
C882 C 0.59818 0.99026 0.05007 0.0
C883 C 0.6033 0.01102 0.05613 0.0
O884 O 0.53938 0.01398 0.05417 0.0
O885 O 0.53578 0.03104 0.01789 0.0
O886 O 0.5311 0.06172 0.01792 0.0
O887 O 0.54815 0.06148 0.04556 0.0
O888 O 0.53458 0.00612 0.02753 0.0
O889 O 0.54975 0.04525 0.06751 0.0
O890 O 0.56002 0.06462 0.98113 0.0
O891 O 0.56357 0.04852 0.01853 0.0
O892 O 0.57085 0.01977 0.01843 0.0
O893 O 0.55303 0.01824 0.9909 0.0
O894 O 0.56593 0.07277 0.00742 0.0
O895 O 0.54989 0.03306 0.96858 0.0
C896 C 0.52637 0.01375 0.01632 0.0
C897 C 0.54356 0.02283 0.08754 0.0
C898 C 0.53248 0.01887 0.1177 0.0
C899 C 0.53152 0.02573 0.10098 0.0
C900 C 0.54582 0.00927 0.12106 0.0
C901 C 0.55708 0.01353 0.09103 0.0
C902 C 0.55821 0.00683 0.10782 0.0
C903 C 0.53655 0.06823 0.03632 0.0
C904 C 0.54052 0.02808 0.06941 0.0
C905 C 0.62025 0.02114 0.06546 0.0
C906 C 0.62427 0.0418 0.07273 0.0
C907 C 0.57312 0.06568 0.01991 0.0
C908 C 0.55487 0.05478 0.94785 0.0
C909 C 0.56717 0.05291 0.93462 0.0
C910 C 0.56542 0.05915 0.91772 0.0
C911 C 0.55098 0.06694 0.91378 0.0
C912 C 0.5403 0.06237 0.94391 0.0
C913 C 0.53831 0.06832 0.92683 0.0
C914 C 0.56565 0.01282 1.0 0.0
C915 C 0.55868 0.05019 0.96611 0.0
H916 H 0.52091 0.03264 0.09807 0.0
H917 H 0.54668 0.00377 0.13389 0.0
H918 H 0.56647 0.0111 0.08071 0.0
H919 H 0.56852 0.99946 0.11042 0.0
H920 H 0.5786 0.04737 0.93787 0.0
H921 H 0.54955 0.07192 0.90073 0.0
H922 H 0.53073 0.06412 0.95403 0.0
H923 H 0.52715 0.07432 0.92387 0.0
Tb924 Tb 0.32084 0.33288 0.28946 0.0
C925 C 0.25604 0.26518 0.25458 0.0
C926 C 0.24159 0.25066 0.27893 0.0
C927 C 0.22384 0.25256 0.2511 0.0
C928 C 0.25708 0.26029 0.27192 0.0
C929 C 0.2395 0.26018 0.24338 0.0
C930 C 0.2249 0.24776 0.2689 0.0
C931 C 0.2554 0.26495 0.21625 0.0
N932 N 0.27156 0.27151 0.24737 0.0
C933 C 0.27138 0.26945 0.2279 0.0
C934 C 0.23933 0.26104 0.22419 0.0
Tb935 Tb 0.29727 0.28094 0.26864 0.0
N936 N 0.27351 0.26221 0.2804 0.0
C937 C 0.27532 0.25198 0.29425 0.0
C938 C 0.24346 0.24281 0.29489 0.0
C939 C 0.26042 0.24294 0.30223 0.0
H940 H 0.28358 0.27174 0.22112 0.0
H941 H 0.26205 0.23595 0.31392 0.0
H942 H 0.21285 0.24061 0.27416 0.0
H943 H 0.25552 0.26425 0.20109 0.0
H944 H 0.2884 0.2518 0.29996 0.0
H945 H 0.35985 0.36689 0.23856 0.0
H946 H 0.23191 0.23547 0.30082 0.0
H947 H 0.33768 0.33951 0.3353 0.0
H948 H 0.33385 0.35995 0.25621 0.0
H949 H 0.36582 0.34028 0.35238 0.0
H950 H 0.211 0.249 0.24288 0.0
H951 H 0.38769 0.35883 0.24834 0.0
H952 H 0.40517 0.34904 0.27317 0.0
H953 H 0.22695 0.25715 0.21506 0.0
H954 H 0.40694 0.34188 0.30501 0.0
N955 N 0.34541 0.34448 0.27398 0.0
C956 C 0.3454 0.355 0.26004 0.0
C957 C 0.37601 0.35495 0.25573 0.0
C958 C 0.37688 0.34725 0.27192 0.0
C959 C 0.36034 0.35951 0.25018 0.0
C960 C 0.36123 0.34237 0.28097 0.0
H961 H 0.39246 0.33936 0.33506 0.0
N962 N 0.3472 0.33545 0.30755 0.0
C963 C 0.36495 0.339 0.33709 0.0
C964 C 0.36219 0.33788 0.29856 0.0
C965 C 0.34886 0.33825 0.32713 0.0
C966 C 0.37991 0.33847 0.32728 0.0
C967 C 0.37885 0.33877 0.30794 0.0
O968 O 0.31364 0.34723 0.3156 0.0
O969 O 0.29647 0.31018 0.28345 0.0
O970 O 0.29615 0.29882 0.24744 0.0
O971 O 0.31434 0.331 0.259 0.0
O972 O 0.29456 0.33819 0.28259 0.0
O973 O 0.3272 0.36409 0.2964 0.0
O974 O 0.30725 0.26804 0.24349 0.0
O975 O 0.32199 0.30398 0.27397 0.0
O976 O 0.31919 0.31431 0.31071 0.0
O977 O 0.29492 0.28755 0.29937 0.0
O978 O 0.32189 0.27808 0.28221 0.0
O979 O 0.30424 0.25408 0.26749 0.0
C980 C 0.28557 0.32005 0.28071 0.0
C981 C 0.31443 0.3817 0.32193 0.0
C982 C 0.30069 0.40853 0.31966 0.0
C983 C 0.30473 0.39059 0.31112 0.0
C984 C 0.30606 0.41731 0.33908 0.0
C985 C 0.31951 0.39036 0.34142 0.0
C986 C 0.31528 0.40808 0.34997 0.0
C987 C 0.30424 0.31665 0.24527 0.0
C988 C 0.32125 0.36474 0.31312 0.0
C989 C 0.39412 0.3416 0.2982 0.0
C990 C 0.39311 0.34572 0.2801 0.0
C991 C 0.33186 0.2946 0.28032 0.0
C992 C 0.30557 0.23328 0.23802 0.0
C993 C 0.31797 0.22235 0.24016 0.0
C994 C 0.31361 0.20168 0.23337 0.0
C995 C 0.29744 0.19237 0.22193 0.0
C996 C 0.28926 0.22398 0.22706 0.0
C997 C 0.28548 0.20361 0.21852 0.0
C998 C 0.30703 0.29888 0.31317 0.0
C999 C 0.30935 0.25316 0.25044 0.0
H1000 H 0.30108 0.38412 0.29597 0.0
H1001 H 0.3032 0.43132 0.34573 0.0
H1002 H 0.3272 0.3837 0.34989 0.0
H1003 H 0.31948 0.41488 0.36493 0.0
H1004 H 0.33049 0.22981 0.24882 0.0
H1005 H 0.29354 0.17637 0.21658 0.0
H1006 H 0.27935 0.23218 0.22563 0.0
H1007 H 0.27285 0.19629 0.21015 0.0
Tb1008 Tb 0.54207 0.56147 0.02786 0.0
C1009 C 0.55112 0.50533 0.96182 0.0
C1010 C 0.52143 0.49043 0.94576 0.0
C1011 C 0.54672 0.49223 0.92722 0.0
C1012 C 0.53295 0.4995 0.96278 0.0
C1013 C 0.55814 0.50154 0.94394 0.0
C1014 C 0.52842 0.48677 0.92811 0.0
C1015 C 0.58752 0.51509 0.96019 0.0
N1016 N 0.56193 0.51437 0.97825 0.0
C1017 C 0.58009 0.51836 0.97749 0.0
C1018 C 0.57651 0.50679 0.94331 0.0
Tb1019 Tb 0.54818 0.51538 0.00629 0.0
N1020 N 0.52651 0.50309 0.98013 0.0
C1021 C 0.50837 0.49822 0.98088 0.0
C1022 C 0.50314 0.48542 0.94681 0.0
C1023 C 0.4966 0.48952 0.96442 0.0
H1024 H 0.58935 0.52292 0.99012 0.0
H1025 H 0.48239 0.48601 0.96537 0.0
H1026 H 0.51974 0.47971 0.91503 0.0
H1027 H 0.60182 0.51839 0.96001 0.0
H1028 H 0.50221 0.5014 0.99374 0.0
H1029 H 0.60022 0.58171 0.07901 0.0
H1030 H 0.49393 0.47859 0.93407 0.0
H1031 H 0.50226 0.57017 0.03213 0.0
H1032 H 0.58384 0.57048 0.04697 0.0
H1033 H 0.48477 0.58153 0.05817 0.0
H1034 H 0.55194 0.48916 0.91349 0.0
H1035 H 0.58426 0.58985 0.10745 0.0
H1036 H 0.55574 0.59419 0.12087 0.0
H1037 H 0.58234 0.50395 0.92992 0.0
H1038 H 0.52421 0.59406 0.1152 0.0
N1039 N 0.55859 0.57112 0.057 0.0
C1040 C 0.57663 0.57368 0.05918 0.0
C1041 C 0.57695 0.58469 0.09338 0.0
C1042 C 0.55867 0.5832 0.09098 0.0
C1043 C 0.586 0.58015 0.07737 0.0
C1044 C 0.54978 0.57634 0.07236 0.0
H1045 H 0.49767 0.5896 0.09183 0.0
N1046 N 0.52444 0.57069 0.05094 0.0
C1047 C 0.498 0.57989 0.0615 0.0
C1048 C 0.53207 0.57613 0.06922 0.0
C1049 C 0.50792 0.5734 0.04679 0.0
C1050 C 0.50531 0.58438 0.08048 0.0
C1051 C 0.52269 0.58294 0.08453 0.0
O1052 O 0.53298 0.58233 0.0159 0.0
O1053 O 0.54061 0.54134 0.99953 0.0
O1054 O 0.57409 0.53755 0.01294 0.0
O1055 O 0.56505 0.56565 0.01161 0.0
O1056 O 0.51868 0.55174 0.00734 0.0
O1057 O 0.55807 0.59086 0.03318 0.0
O1058 O 0.56899 0.50138 0.00729 0.0
O1059 O 0.55523 0.53855 0.03275 0.0
O1060 O 0.51972 0.54022 0.03567 0.0
O1061 O 0.5228 0.5093 0.01869 0.0
O1062 O 0.54639 0.50995 0.03514 0.0
O1063 O 0.54186 0.48397 1.00073 0.0
C1064 C 0.52522 0.54246 0.99306 0.0
C1065 C 0.54438 0.6165 0.02908 0.0
C1066 C 0.54723 0.64897 0.02189 0.0
C1067 C 0.55072 0.63007 0.01805 0.0
C1068 C 0.53747 0.65425 0.03732 0.0
C1069 C 0.53483 0.62192 0.04454 0.0
C1070 C 0.5314 0.64079 0.04862 0.0
C1071 C 0.57743 0.55581 0.01026 0.0
C1072 C 0.54702 0.5965 0.02281 0.0
C1073 C 0.53122 0.58891 0.10322 0.0
C1074 C 0.54918 0.58901 0.10645 0.0
C1075 C 0.55235 0.52789 0.04518 0.0
C1076 C 0.56352 0.4693 0.01288 0.0
C1077 C 0.5523 0.45932 0.02438 0.0
C1078 C 0.55798 0.44547 0.03297 0.0
C1079 C 0.57466 0.44155 0.02976 0.0
C1080 C 0.58009 0.46508 0.00983 0.0
C1081 C 0.58561 0.45128 0.01823 0.0
C1082 C 0.51395 0.52061 0.02959 0.0
C1083 C 0.55851 0.48362 0.00304 0.0
H1084 H 0.55834 0.62577 0.00631 0.0
H1085 H 0.53432 0.66862 0.0405 0.0
H1086 H 0.52994 0.61165 0.05328 0.0
H1087 H 0.52385 0.64493 0.06042 0.0
H1088 H 0.53939 0.46227 0.02666 0.0
H1089 H 0.57907 0.43061 0.03592 0.0
H1090 H 0.58877 0.47241 1.00078 0.0
H1091 H 0.59834 0.448 0.01566 0.0
Tb1092 Tb 0.81953 0.30537 0.26897 0.0
C1093 C 0.77293 0.24491 0.29831 0.0
C1094 C 0.78117 0.2158 0.28065 0.0
C1095 C 0.77127 0.21632 0.31223 0.0
C1096 C 0.77934 0.23539 0.28234 0.0
C1097 C 0.76814 0.23519 0.31312 0.0
C1098 C 0.77777 0.20662 0.29599 0.0
C1099 C 0.75458 0.26174 0.32668 0.0
N1100 N 0.76945 0.26275 0.29825 0.0
C1101 C 0.75929 0.27057 0.31146 0.0
C1102 C 0.75935 0.24418 0.32774 0.0
Tb1103 Tb 0.7782 0.27629 0.27299 0.0
N1104 N 0.78207 0.24458 0.26768 0.0
C1105 C 0.78527 0.23435 0.25034 0.0
C1106 C 0.78538 0.20565 0.26324 0.0
C1107 C 0.78703 0.21481 0.24788 0.0
H1108 H 0.75546 0.28409 0.31063 0.0
H1109 H 0.78978 0.2069 0.23418 0.0
H1110 H 0.77935 0.19169 0.29508 0.0
H1111 H 0.74716 0.26841 0.3375 0.0
H1112 H 0.78646 0.24117 0.23835 0.0
H1113 H 0.817 0.37524 0.31764 0.0
H1114 H 0.78666 0.1905 0.26127 0.0
H1115 H 0.82758 0.29746 0.22227 0.0
H1116 H 0.82078 0.34183 0.30987 0.0
H1117 H 0.82664 0.31401 0.1962 0.0
H1118 H 0.76791 0.20871 0.32358 0.0
H1119 H 0.81342 0.39282 0.29227 0.0
H1120 H 0.81304 0.39321 0.25782 0.0
H1121 H 0.75545 0.23719 0.33938 0.0
H1122 H 0.81514 0.37643 0.22479 0.0
N1123 N 0.81753 0.33811 0.27927 0.0
C1124 C 0.81845 0.34818 0.29805 0.0
C1125 C 0.81467 0.3776 0.28848 0.0
C1126 C 0.81495 0.36799 0.26949 0.0
C1127 C 0.81664 0.36771 0.30281 0.0
C1128 C 0.81639 0.34802 0.26522 0.0
H1129 H 0.82017 0.34708 0.20176 0.0
N1130 N 0.81937 0.31959 0.24292 0.0
C1131 C 0.82359 0.32092 0.21017 0.0
C1132 C 0.81727 0.33846 0.24653 0.0
C1133 C 0.82371 0.31138 0.22518 0.0
C1134 C 0.82 0.33958 0.21338 0.0
C1135 C 0.81724 0.34881 0.23178 0.0
O1136 O 0.84173 0.30043 0.25478 0.0
O1137 O 0.80579 0.27447 0.26849 0.0
O1138 O 0.79045 0.2875 0.30236 0.0
O1139 O 0.81725 0.30904 0.29939 0.0
O1140 O 0.82926 0.2865 0.28542 0.0
O1141 O 0.84479 0.32353 0.28118 0.0
O1142 O 0.75195 0.27955 0.27269 0.0
O1143 O 0.79104 0.30522 0.26723 0.0
O1144 O 0.81001 0.28207 0.24281 0.0
O1145 O 0.78037 0.2799 0.24385 0.0
O1146 O 0.77327 0.30468 0.28752 0.0
O1147 O 0.75861 0.25616 0.25239 0.0
C1148 C 0.81719 0.27015 0.27949 0.0
C1149 C 0.87159 0.32006 0.26618 0.0
C1150 C 0.90183 0.32823 0.28108 0.0
C1151 C 0.88349 0.3232 0.28243 0.0
C1152 C 0.90823 0.3304 0.26356 0.0
C1153 C 0.87808 0.32201 0.24866 0.0
C1154 C 0.89636 0.32731 0.24742 0.0
C1155 C 0.8053 0.30091 0.30962 0.0
C1156 C 0.85244 0.31465 0.26742 0.0
C1157 C 0.81527 0.36837 0.23595 0.0
C1158 C 0.81411 0.37793 0.25475 0.0
C1159 C 0.7827 0.31622 0.27821 0.0
C1160 C 0.72918 0.25067 0.2607 0.0
C1161 C 0.71358 0.2527 0.25178 0.0
C1162 C 0.69701 0.2405 0.25353 0.0
C1163 C 0.69629 0.22612 0.26439 0.0
C1164 C 0.72834 0.23618 0.27135 0.0
C1165 C 0.7119 0.22401 0.27323 0.0
C1166 C 0.79386 0.27786 0.23406 0.0
C1167 C 0.74597 0.26415 0.25868 0.0
H1168 H 0.87854 0.32135 0.29593 0.0
H1169 H 0.9224 0.33414 0.26234 0.0
H1170 H 0.86899 0.3196 0.23602 0.0
H1171 H 0.90135 0.32886 0.23391 0.0
H1172 H 0.71439 0.26373 0.2433 0.0
H1173 H 0.68367 0.21671 0.26623 0.0
H1174 H 0.74025 0.23421 0.27813 0.0
H1175 H 0.71126 0.21294 0.28159 0.0
Tb1176 Tb 0.05349 0.53087 0.54326 0.0
C1177 C 0.00849 0.55578 0.48408 0.0
C1178 C 0.98982 0.52473 0.46542 0.0
C1179 C 0.98015 0.55527 0.46785 0.0
C1180 C 0.00542 0.53554 0.47746 0.0
C1181 C 0.99611 0.56602 0.47901 0.0
C1182 C 0.97711 0.53467 0.46086 0.0
C1183 C 0.01767 0.59688 0.49306 0.0
N1184 N 0.02451 0.56568 0.49375 0.0
C1185 C 0.02967 0.586 0.49713 0.0
C1186 C 1.00067 0.58683 0.48425 0.0
Tb1187 Tb 0.04374 0.54712 0.49993 0.0
N1188 N 0.01847 0.52677 0.4814 0.0
C1189 C 0.01691 0.50714 0.47289 0.0
C1190 C 0.98786 0.50448 0.45758 0.0
C1191 C 1.00159 0.49572 0.46113 0.0
H1192 H 0.04305 0.59379 0.50322 0.0
H1193 H 1.0004 0.48013 0.45482 0.0
H1194 H 0.96502 0.52661 0.45173 0.0
H1195 H 0.02166 0.61298 0.49639 0.0
H1196 H 0.02719 0.49983 0.47531 0.0
H1197 H 0.09693 0.59583 0.59109 0.0
H1198 H 0.97607 0.49564 0.44833 0.0
H1199 H 0.05479 0.4836 0.53526 0.0
H1200 H 0.06931 0.5767 0.5716 0.0
H1201 H 0.07687 0.46433 0.53952 0.0
H1202 H 0.97042 0.56284 0.46389 0.0
H1203 H 0.12226 0.58055 0.59351 0.0
H1204 H 0.13426 0.55005 0.58569 0.0
H1205 H 0.99152 0.59526 0.4807 0.0
H1206 H 0.12878 0.51407 0.5717 0.0
N1207 N 0.07847 0.55029 0.5626 0.0
C1208 C 0.07998 0.56949 0.57246 0.0
C1209 C 0.11002 0.5719 0.58496 0.0
C1210 C 0.1081 0.55197 0.57572 0.0
C1211 C 0.09574 0.58054 0.58367 0.0
C1212 C 0.09187 0.5414 0.56479 0.0
H1213 H 0.10721 0.48182 0.55483 0.0
N1214 N 0.07263 0.51166 0.54765 0.0
C1215 C 0.08044 0.48038 0.54444 0.0
C1216 C 0.08883 0.52132 0.55704 0.0
C1217 C 0.06795 0.4913 0.54213 0.0
C1218 C 0.09757 0.49031 0.55303 0.0
C1219 C 0.10185 0.51101 0.55978 0.0
O1220 O 0.03729 0.51017 0.55585 0.0
O1221 O 0.03484 0.53033 0.52037 0.0
O1222 O 0.0307 0.56296 0.5219 0.0
O1223 O 0.04475 0.5588 0.54988 0.0
O1224 O 0.03251 0.50449 0.5286 0.0
O1225 O 0.04501 0.54145 0.56992 0.0
O1226 O 0.06046 0.56696 0.48695 0.0
O1227 O 0.06226 0.54816 0.52316 0.0
O1228 O 0.06913 0.51868 0.52175 0.0
O1229 O 0.05303 0.51947 0.49386 0.0
O1230 O 0.0654 0.57338 0.51363 0.0
O1231 O 0.05123 0.53567 0.47303 0.0
C1232 C 0.02533 0.51295 0.51735 0.0
C1233 C 0.03986 0.51854 0.58937 0.0
C1234 C 0.02983 0.51587 0.62038 0.0
C1235 C 0.0279 0.5214 0.60299 0.0
C1236 C 0.04414 0.50769 0.62406 0.0
C1237 C 0.05411 0.51044 0.59321 0.0
C1238 C 0.05622 0.50507 0.61054 0.0
C1239 C 0.03498 0.5676 0.5406 0.0
C1240 C 0.03679 0.52363 0.57114 0.0
C1241 C 0.11847 0.52164 0.56966 0.0
C1242 C 0.12159 0.54212 0.57762 0.0
C1243 C 0.07203 0.56542 0.52577 0.0
C1244 C 0.05715 0.55849 0.45363 0.0
C1245 C 0.07048 0.55797 0.44153 0.0
C1246 C 0.06919 0.56405 0.42452 0.0
C1247 C 0.05434 0.57068 0.41947 0.0
C1248 C 0.04209 0.56477 0.44858 0.0
C1249 C 0.04072 0.57086 0.43148 0.0
C1250 C 0.06481 0.51298 0.50309 0.0
C1251 C 0.06006 0.5532 0.47167 0.0
H1252 H 0.01707 0.52793 0.59997 0.0
H1253 H 0.04581 0.50296 0.63721 0.0
H1254 H 0.06346 0.50811 0.58282 0.0
H1255 H 0.06713 0.49865 0.61341 0.0
H1256 H 0.08214 0.55318 0.44556 0.0
H1257 H 0.05322 0.57542 0.40624 0.0
H1258 H 0.03157 0.56514 0.45778 0.0
H1259 H 0.02917 0.57581 0.4276 0.0
Tb1260 Tb 0.77929 0.79575 0.2699 0.0
C1261 C 0.83972 0.76973 0.30545 0.0
C1262 C 0.85241 0.79811 0.33151 0.0
C1263 C 0.85494 0.76523 0.33385 0.0
C1264 C 0.84271 0.78976 0.31337 0.0
C1265 C 0.84639 0.75731 0.31526 0.0
C1266 C 0.85794 0.78564 0.34198 0.0
C1267 C 0.83856 0.7312 0.28642 0.0
N1268 N 0.83215 0.7629 0.28718 0.0
C1269 C 0.83244 0.74423 0.27723 0.0
C1270 C 0.84526 0.73766 0.30564 0.0
Tb1271 Tb 0.8225 0.78503 0.27289 0.0
N1272 N 0.83776 0.80133 0.30244 0.0
C1273 C 0.84342 0.82166 0.30845 0.0
C1274 C 0.85723 0.81879 0.33808 0.0
C1275 C 0.85304 0.83061 0.3263 0.0
H1276 H 0.82734 0.73917 0.26232 0.0
H1277 H 0.85713 0.84667 0.33098 0.0
H1278 H 0.86527 0.79175 0.35599 0.0
H1279 H 0.8382 0.71624 0.27863 0.0
H1280 H 0.8404 0.83139 0.29992 0.0
H1281 H 0.74718 0.73629 0.20885 0.0
H1282 H 0.86476 0.82578 0.35186 0.0
H1283 H 0.7736 0.84127 0.28223 0.0
H1284 H 0.7618 0.75025 0.24123 0.0
H1285 H 0.76373 0.86529 0.26659 0.0
H1286 H 0.86001 0.75591 0.3417 0.0
H1287 H 0.74069 0.75845 0.18873 0.0
H1288 H 0.74035 0.79307 0.18606 0.0
H1289 H 0.85025 0.72765 0.31265 0.0
H1290 H 0.74503 0.82854 0.20181 0.0
N1291 N 0.76457 0.78064 0.23991 0.0
C1292 C 0.7592 0.7604 0.23297 0.0
C1293 C 0.74726 0.7648 0.20307 0.0
C1294 C 0.75152 0.78534 0.21069 0.0
C1295 C 0.75082 0.75226 0.2144 0.0
C1296 C 0.76014 0.79283 0.2294 0.0
H1297 H 0.7534 0.85558 0.23206 0.0
N1298 N 0.7699 0.81868 0.25658 0.0
C1299 C 0.76363 0.85059 0.25832 0.0
C1300 C 0.76301 0.81267 0.23805 0.0
C1301 C 0.76919 0.83696 0.26713 0.0
C1302 C 0.75788 0.84509 0.23882 0.0
C1303 C 0.75703 0.82572 0.22854 0.0
O1304 O 0.76514 0.80674 0.29244 0.0
O1305 O 0.80098 0.79292 0.28821 0.0
O1306 O 0.80395 0.75887 0.27971 0.0
O1307 O 0.77619 0.76422 0.2718 0.0
O1308 O 0.79103 0.81738 0.29631 0.0
O1309 O 0.754 0.77861 0.27325 0.0
O1310 O 0.83677 0.77297 0.25098 0.0
O1311 O 0.80078 0.78759 0.25439 0.0
O1312 O 0.79755 0.82225 0.26385 0.0
O1313 O 0.8254 0.81639 0.2703 0.0
O1314 O 0.81086 0.76294 0.24696 0.0
O1315 O 0.84727 0.80231 0.26819 0.0
C1316 C 0.80217 0.80818 0.30153 0.0
C1317 C 0.73381 0.79661 0.28737 0.0
C1318 C 0.70657 0.79992 0.30245 0.0
C1319 C 0.72296 0.7944 0.30239 0.0
C1320 C 0.70131 0.80762 0.28728 0.0
C1321 C 0.72793 0.80389 0.27226 0.0
C1322 C 0.71187 0.80948 0.27231 0.0
C1323 C 0.78624 0.75274 0.27651 0.0
C1324 C 0.75134 0.79175 0.28773 0.0
C1325 C 0.74948 0.81869 0.20948 0.0
C1326 C 0.74677 0.7985 0.20053 0.0
C1327 C 0.79982 0.77206 0.24139 0.0
C1328 C 0.86809 0.78466 0.25504 0.0
C1329 C 0.8793 0.78824 0.24055 0.0
C1330 C 0.89597 0.78338 0.24058 0.0
C1331 C 0.90124 0.77509 0.25527 0.0
C1332 C 0.87399 0.77682 0.26972 0.0
C1333 C 0.89039 0.77199 0.26977 0.0
C1334 C 0.81523 0.82814 0.26648 0.0
C1335 C 0.85013 0.7885 0.25447 0.0
H1336 H 0.72733 0.78864 0.31405 0.0
H1337 H 0.68876 0.81178 0.28674 0.0
H1338 H 0.73568 0.80521 0.26038 0.0
H1339 H 0.70752 0.81517 0.26061 0.0
H1340 H 0.87496 0.79443 0.22918 0.0
H1341 H 0.91396 0.77128 0.25567 0.0
H1342 H 0.86593 0.77435 0.28116 0.0
H1343 H 0.89472 0.76579 0.28111 0.0
Tb1344 Tb 0.81232 0.28226 0.74601 0.0
C1345 C 0.78475 0.34185 0.80617 0.0
C1346 C 0.81187 0.36649 0.8201 0.0
C1347 C 0.78338 0.37495 0.82309 0.0
C1348 C 0.80298 0.34713 0.80986 0.0
C1349 C 0.77465 0.35555 0.81302 0.0
C1350 C 0.80198 0.38043 0.82657 0.0
C1351 C 0.74809 0.32932 0.80105 0.0
N1352 N 0.77687 0.32292 0.79666 0.0
C1353 C 0.75874 0.31625 0.79475 0.0
C1354 C 0.75609 0.34912 0.81009 0.0
Tb1355 Tb 0.79503 0.30178 0.78968 0.0
N1356 N 0.81196 0.33312 0.80364 0.0
C1357 C 0.83005 0.33751 0.80751 0.0
C1358 C 0.8304 0.37116 0.82372 0.0
C1359 C 0.83951 0.35657 0.81741 0.0
H1360 H 0.75251 0.3008 0.78825 0.0
H1361 H 0.85384 0.35999 0.82015 0.0
H1362 H 0.80855 0.39537 0.83451 0.0
H1363 H 0.73375 0.32404 0.79917 0.0
H1364 H 0.83742 0.3266 0.80261 0.0
H1365 H 0.7472 0.23565 0.71047 0.0
H1366 H 0.83775 0.38589 0.83146 0.0
H1367 H 0.85062 0.26853 0.7531 0.0
H1368 H 0.76654 0.26496 0.73005 0.0
H1369 H 0.86145 0.23874 0.74608 0.0
H1370 H 0.77587 0.3857 0.8285 0.0
H1371 H 0.75765 0.20529 0.6999 0.0
H1372 H 0.78169 0.18779 0.70056 0.0
H1373 H 0.74783 0.35916 0.8152 0.0
H1374 H 0.81225 0.18826 0.71116 0.0
N1375 N 0.79034 0.25408 0.72927 0.0
C1376 C 0.77269 0.25321 0.7246 0.0
C1377 C 0.76687 0.21877 0.70802 0.0
C1378 C 0.78435 0.21899 0.71347 0.0
C1379 C 0.76099 0.23589 0.71382 0.0
C1380 C 0.79589 0.23695 0.72426 0.0
H1381 H 0.84171 0.20686 0.72838 0.0
N1382 N 0.82347 0.2541 0.74175 0.0
C1383 C 0.84764 0.23785 0.74201 0.0
C1384 C 0.8129 0.23697 0.73077 0.0
C1385 C 0.84107 0.25481 0.7464 0.0
C1386 C 0.83653 0.21998 0.73192 0.0
C1387 C 0.81904 0.21939 0.72592 0.0
O1388 O 0.83882 0.2937 0.74166 0.0
O1389 O 0.81414 0.3075 0.76963 0.0
O1390 O 0.77928 0.30835 0.76638 0.0
O1391 O 0.78859 0.29246 0.73749 0.0
O1392 O 0.81441 0.3122 0.74215 0.0
O1393 O 0.8189 0.27896 0.71768 0.0
O1394 O 0.77764 0.28384 0.80397 0.0
O1395 O 0.79873 0.2759 0.76977 0.0
O1396 O 0.83075 0.28268 0.7706 0.0
O1397 O 0.81883 0.29334 0.79885 0.0
O1398 O 0.7733 0.27627 0.77682 0.0
O1399 O 0.80176 0.30393 0.8189 0.0
C1400 C 0.81532 0.32058 0.75998 0.0
C1401 C 0.84563 0.30013 0.71183 0.0
C1402 C 0.84874 0.32633 0.69442 0.0
C1403 C 0.83931 0.31527 0.70639 0.0
C1404 C 0.86488 0.32234 0.68859 0.0
C1405 C 0.86173 0.29646 0.70599 0.0
C1406 C 0.87136 0.30761 0.6945 0.0
C1407 C 0.77771 0.30227 0.7473 0.0
C1408 C 0.8357 0.28745 0.72319 0.0
C1409 C 0.80772 0.2018 0.71495 0.0
C1410 C 0.79039 0.20158 0.70882 0.0
C1411 C 0.78302 0.26562 0.76788 0.0
C1412 C 0.77839 0.29316 0.83716 0.0
C1413 C 0.77762 0.27907 0.84811 0.0
C1414 C 0.76786 0.27973 0.86399 0.0
C1415 C 0.75885 0.29488 0.86886 0.0
C1416 C 0.76948 0.3083 0.8421 0.0
C1417 C 0.75969 0.30909 0.85794 0.0
C1418 C 0.83117 0.2866 0.78946 0.0
C1419 C 0.78763 0.2904 0.82 0.0
H1420 H 0.82692 0.31807 0.71108 0.0
H1421 H 0.87223 0.33 0.67886 0.0
H1422 H 0.86673 0.28477 0.71014 0.0
H1423 H 0.88366 0.30452 0.68978 0.0
H1424 H 0.78483 0.26762 0.8443 0.0
H1425 H 0.75114 0.2957 0.88103 0.0
H1426 H 0.76998 0.31932 0.83376 0.0
H1427 H 0.75272 0.3207 0.86173 0.0
Tb1428 Tb 0.81789 0.82755 0.7903 0.0
C1429 C 0.7605 0.75601 0.73992 0.0
C1430 C 0.74016 0.74458 0.76186 0.0
C1431 C 0.73018 0.73732 0.72806 0.0
C1432 C 0.75708 0.75484 0.75826 0.0
C1433 C 0.74723 0.74692 0.72451 0.0
C1434 C 0.72665 0.73618 0.74673 0.0
C1435 C 0.76911 0.75571 0.70308 0.0
N1436 N 0.77719 0.765 0.73703 0.0
C1437 C 0.78183 0.76439 0.71883 0.0
C1438 C 0.75167 0.74711 0.70594 0.0
Tb1439 Tb 0.79769 0.77747 0.76326 0.0
N1440 N 0.77068 0.76257 0.77235 0.0
C1441 C 0.76824 0.75945 0.7903 0.0
C1442 C 0.7375 0.74235 0.78039 0.0
C1443 C 0.75168 0.74964 0.79461 0.0
H1444 H 0.79532 0.7709 0.71649 0.0
H1445 H 0.74993 0.7476 0.80894 0.0
H1446 H 0.71358 0.7283 0.74924 0.0
H1447 H 0.77279 0.75559 0.68876 0.0
H1448 H 0.77875 0.76449 0.80172 0.0
H1449 H 0.86258 0.85423 0.74051 0.0
H1450 H 0.72473 0.73455 0.78373 0.0
H1451 H 0.82374 0.83279 0.83701 0.0
H1452 H 0.83465 0.83706 0.74973 0.0
H1453 H 0.84801 0.84775 0.86313 0.0
H1454 H 0.71979 0.7303 0.71643 0.0
H1455 H 0.88875 0.86885 0.76437 0.0
H1456 H 0.90185 0.87614 0.79835 0.0
H1457 H 0.74187 0.74023 0.69372 0.0
H1458 H 0.89796 0.87428 0.83166 0.0
N1459 N 0.84412 0.84142 0.77912 0.0
C1460 C 0.84556 0.84334 0.76067 0.0
C1461 C 0.87636 0.86119 0.76865 0.0
C1462 C 0.87485 0.85963 0.78754 0.0
C1463 C 0.86161 0.85306 0.75518 0.0
C1464 C 0.85839 0.8495 0.79236 0.0
H1465 H 0.87797 0.86374 0.85592 0.0
N1466 N 0.84009 0.83909 0.81508 0.0
C1467 C 0.85058 0.84786 0.84851 0.0
C1468 C 0.85628 0.84833 0.81099 0.0
C1469 C 0.8369 0.83932 0.83369 0.0
C1470 C 0.86746 0.85688 0.84439 0.0
C1471 C 0.87044 0.85741 0.82549 0.0
O1472 O 0.80677 0.84628 0.81012 0.0
O1473 O 0.7941 0.80444 0.78051 0.0
O1474 O 0.7868 0.7966 0.74847 0.0
O1475 O 0.8075 0.82709 0.76072 0.0
O1476 O 0.79673 0.81929 0.80826 0.0
O1477 O 0.81517 0.85433 0.78397 0.0
O1478 O 0.81063 0.75901 0.74534 0.0
O1479 O 0.82131 0.80069 0.77318 0.0
O1480 O 0.82804 0.80771 0.8049 0.0
O1481 O 0.80565 0.77868 0.79348 0.0
O1482 O 0.81863 0.7868 0.7454 0.0
O1483 O 0.80125 0.75175 0.77133 0.0
C1484 C 0.78603 0.80595 0.79519 0.0
C1485 C 0.81586 0.88044 0.81085 0.0
C1486 C 0.81414 0.91457 0.81451 0.0
C1487 C 0.80977 0.89485 0.80406 0.0
C1488 C 0.82489 0.92012 0.83189 0.0
C1489 C 0.82689 0.88595 0.82816 0.0
C1490 C 0.83145 0.90578 0.83857 0.0
C1491 C 0.79481 0.81497 0.74751 0.0
C1492 C 0.80891 0.85981 0.80024 0.0
C1493 C 0.88693 0.86721 0.82074 0.0
C1494 C 0.88914 0.86828 0.80178 0.0
C1495 C 0.8296 0.79949 0.75871 0.0
C1496 C 0.80312 0.7252 0.74604 0.0
C1497 C 0.8107 0.71196 0.75325 0.0
C1498 C 0.80701 0.69186 0.74373 0.0
C1499 C 0.79525 0.68497 0.72693 0.0
C1500 C 0.79142 0.71828 0.72922 0.0
C1501 C 0.78749 0.69819 0.71974 0.0
C1502 C 0.81858 0.7902 0.80654 0.0
C1503 C 0.80872 0.74619 0.75596 0.0
H1504 H 0.80095 0.89054 0.79089 0.0
H1505 H 0.82812 0.93536 0.84018 0.0
H1506 H 0.83163 0.87504 0.83385 0.0
H1507 H 0.83979 0.90996 0.85198 0.0
H1508 H 0.81957 0.71743 0.76638 0.0
H1509 H 0.79226 0.6695 0.71928 0.0
H1510 H 0.78548 0.7283 0.72332 0.0
H1511 H 0.77855 0.6929 0.70672 0.0
Tb1512 Tb 0.52378 0.52823 0.50313 0.0
C1513 C 0.58143 0.59801 0.55271 0.0
C1514 C 0.59061 0.61981 0.5315 0.0
C1515 C 0.59515 0.63316 0.56584 0.0
C1516 C 0.58289 0.60076 0.53445 0.0
C1517 C 0.58789 0.61407 0.56866 0.0
C1518 C 0.59646 0.63603 0.54728 0.0
C1519 C 0.58122 0.59088 0.58895 0.0
N1520 N 0.57473 0.57931 0.55485 0.0
C1521 C 0.57521 0.57542 0.57269 0.0
C1522 C 0.58745 0.61034 0.58695 0.0
Tb1523 Tb 0.56628 0.55457 0.52749 0.0
N1524 N 0.57744 0.58462 0.51961 0.0
C1525 C 0.58025 0.58659 0.50137 0.0
C1526 C 0.59266 0.62192 0.51283 0.0
C1527 C 0.58757 0.6052 0.49772 0.0
H1528 H 0.57061 0.56036 0.57435 0.0
H1529 H 0.5893 0.60659 0.48321 0.0
H1530 H 0.6024 0.65076 0.54528 0.0
H1531 H 0.5812 0.58775 0.60301 0.0
H1532 H 0.57643 0.57416 0.48922 0.0
H1533 H 0.49195 0.47756 0.54526 0.0
H1534 H 0.59847 0.63629 0.50997 0.0
H1535 H 0.51569 0.51948 0.45601 0.0
H1536 H 0.50164 0.50958 0.53694 0.0
H1537 H 0.50963 0.49078 0.42823 0.0
H1538 H 0.60013 0.6457 0.57791 0.0
H1539 H 0.49357 0.44671 0.52243 0.0
H1540 H 0.49795 0.43051 0.48893 0.0
H1541 H 0.59232 0.62227 0.59956 0.0
H1542 H 0.50225 0.43413 0.4561 0.0
N1543 N 0.51175 0.4982 0.51099 0.0
C1544 C 0.5039 0.49678 0.52744 0.0
C1545 C 0.49866 0.46101 0.51907 0.0
C1546 C 0.50447 0.46229 0.50122 0.0
C1547 C 0.49772 0.47835 0.53196 0.0
C1548 C 0.51078 0.48133 0.49757 0.0
H1549 H 0.50586 0.45666 0.43312 0.0
N1550 N 0.51624 0.50197 0.47653 0.0
C1551 C 0.5107 0.48844 0.44255 0.0
C1552 C 0.51303 0.48332 0.47937 0.0
C1553 C 0.51402 0.50465 0.45836 0.0
C1554 C 0.50873 0.46923 0.44536 0.0
C1555 C 0.50929 0.46642 0.46397 0.0
O1556 O 0.50488 0.53651 0.48686 0.0
O1557 O 0.54212 0.55722 0.51355 0.0
O1558 O 0.54705 0.56426 0.54693 0.0
O1559 O 0.52262 0.53767 0.53507 0.0
O1560 O 0.53024 0.5503 0.4862 0.0
O1561 O 0.50093 0.53407 0.51553 0.0
O1562 O 0.58404 0.54352 0.5424 0.0
O1563 O 0.54804 0.52555 0.51662 0.0
O1564 O 0.54309 0.52155 0.48203 0.0
O1565 O 0.56963 0.54369 0.49674 0.0
O1566 O 0.55947 0.53184 0.54398 0.0
O1567 O 0.59126 0.55452 0.51741 0.0
C1568 C 0.54045 0.56433 0.49904 0.0
C1569 C 0.47543 0.52814 0.49416 0.0
C1570 C 0.44482 0.53091 0.49433 0.0
C1571 C 0.46297 0.53892 0.50034 0.0
C1572 C 0.43929 0.51189 0.48197 0.0
C1573 C 0.46978 0.50913 0.48194 0.0
C1574 C 0.45174 0.50109 0.47584 0.0
C1575 C 0.53142 0.55296 0.54915 0.0
C1576 C 0.49425 0.53749 0.50013 0.0
C1577 C 0.50491 0.44733 0.46768 0.0
C1578 C 0.50251 0.44526 0.48636 0.0
C1579 C 0.54914 0.51807 0.53097 0.0
C1580 C 0.61447 0.55523 0.54006 0.0
C1581 C 0.62705 0.54456 0.5343 0.0
C1582 C 0.64439 0.55079 0.54337 0.0
C1583 C 0.64909 0.56796 0.55837 0.0
C1584 C 0.61926 0.57249 0.55486 0.0
C1585 C 0.63656 0.57881 0.56399 0.0
C1586 C 0.56007 0.5307 0.48156 0.0
C1587 C 0.59629 0.54697 0.53105 0.0
H1588 H 0.46745 0.55354 0.50993 0.0
H1589 H 0.42538 0.50547 0.47687 0.0
H1590 H 0.47928 0.50063 0.47702 0.0
H1591 H 0.44739 0.4865 0.46626 0.0
H1592 H 0.62318 0.53103 0.52306 0.0
H1593 H 0.66244 0.57305 0.5656 0.0
H1594 H 0.60971 0.58092 0.55952 0.0
H1595 H 0.64022 0.59206 0.5755 0.0
Tb1596 Tb 0.06591 0.54411 0.00809 0.0
C1597 C 0.99971 0.50909 0.04648 0.0
C1598 C 0.98211 0.48207 0.02153 0.0
C1599 C 0.97874 0.48179 0.05486 0.0
C1600 C 0.995 0.50034 0.02734 0.0
C1601 C 0.99143 0.50012 0.06051 0.0
C1602 C 0.97413 0.47274 0.03541 0.0
C1603 C 0.00803 0.52863 0.08453 0.0
N1604 N 0.01207 0.52675 0.05134 0.0
C1605 C 0.01586 0.53693 0.07009 0.0
C1606 C 0.99589 0.51005 0.07974 0.0
Tb1607 Tb 0.02315 0.53969 0.02659 0.0
N1608 N 0.00292 0.50989 0.01438 0.0
C1609 C 0.99787 0.50229 0.99527 0.0
C1610 C 0.97746 0.47385 0.00198 0.0
C1611 C 0.9853 0.48409 0.9888 0.0
H1612 H 0.02497 0.55146 0.074 0.0
H1613 H 0.98161 0.47802 0.97364 0.0
H1614 H 0.96421 0.45869 0.03124 0.0
H1615 H 0.01129 0.53663 0.09933 0.0
H1616 H 0.00354 0.51006 0.98482 0.0
H1617 H 0.11128 0.59912 0.06364 0.0
H1618 H 0.96766 0.4598 0.99693 0.0
H1619 H 0.06481 0.53625 0.9611 0.0
H1620 H 0.08831 0.56836 0.05049 0.0
H1621 H 0.07808 0.554 0.93729 0.0
H1622 H 0.97227 0.47462 0.06542 0.0
H1623 H 0.12339 0.62138 0.04276 0.0
H1624 H 0.1247 0.62743 0.00967 0.0
H1625 H 0.98977 0.50369 0.09094 0.0
H1626 H 0.11572 0.61507 0.97512 0.0
N1627 N 0.0868 0.57296 0.02217 0.0
C1628 C 0.0933 0.57776 0.04103 0.0
C1629 C 0.11319 0.60785 0.03684 0.0
C1630 C 0.10722 0.60235 0.01737 0.0
C1631 C 0.10644 0.59529 0.04864 0.0
C1632 C 0.09398 0.58452 0.01039 0.0
H1633 H 0.0986 0.58746 0.94794 0.0
N1634 N 0.07725 0.55966 0.98503 0.0
C1635 C 0.08121 0.56087 0.95239 0.0
C1636 C 0.08902 0.5776 0.99108 0.0
C1637 C 0.07371 0.55085 0.96594 0.0
C1638 C 0.09273 0.57978 0.95845 0.0
C1639 C 0.09701 0.58825 0.97802 0.0
O1640 O 0.07698 0.52247 0.99147 0.0
O1641 O 0.04128 0.52414 0.0114 0.0
O1642 O 0.03713 0.52459 0.04305 0.0
O1643 O 0.06604 0.53893 0.03704 0.0
O1644 O 0.05044 0.5197 0.98544 0.0
O1645 O 0.08719 0.53594 0.02077 0.0
O1646 O 0.01385 0.56448 0.03932 0.0
O1647 O 0.04808 0.55903 0.02344 0.0
O1648 O 0.0511 0.56008 0.99318 0.0
O1649 O 0.0227 0.54274 0.997 0.0
O1650 O 0.03839 0.56543 0.04876 0.0
O1651 O 0.99911 0.54336 0.01457 0.0
C1652 C 0.03879 0.51174 0.99543 0.0
C1653 C 0.10716 0.52426 1.00024 0.0
C1654 C 0.13417 0.51234 0.00193 0.0
C1655 C 0.11648 0.51132 0.00604 0.0
C1656 C 0.14231 0.5262 0.99174 0.0
C1657 C 0.11551 0.5379 0.98998 0.0
C1658 C 0.13298 0.53879 0.98571 0.0
C1659 C 0.05459 0.52831 0.04625 0.0
C1660 C 0.08888 0.52349 0.00523 0.0
C1661 C 0.10951 0.60656 0.9849 0.0
C1662 C 0.11461 0.61361 0.00457 0.0
C1663 C 0.05123 0.57167 0.03919 0.0
C1664 C 0.98293 0.56084 0.03636 0.0
C1665 C 0.97155 0.57109 0.02934 0.0
C1666 C 0.9566 0.5743 0.03883 0.0
C1667 C 0.95351 0.56734 0.05558 0.0
C1668 C 0.97904 0.55346 0.05262 0.0
C1669 C 0.96452 0.5568 0.06223 0.0
C1670 C 0.03364 0.55488 0.98871 0.0
C1671 C 0.99948 0.55938 0.02756 0.0
H1672 H 0.11012 0.50079 0.01404 0.0
H1673 H 0.15589 0.5272 0.98835 0.0
H1674 H 0.10858 0.54787 0.98529 0.0
H1675 H 0.13934 0.54934 0.97778 0.0
H1676 H 0.9744 0.57652 0.01658 0.0
H1677 H 0.94265 0.57016 0.06374 0.0
H1678 H 0.98737 0.54548 0.05824 0.0
H1679 H 0.96192 0.5514 0.07503 0.0
H1680 H 0.04042 0.22592 0.94895 0.0
H1681 H 0.04766 0.19942 0.96239 0.0
H1682 H 0.99643 0.18863 0.98412 0.0
H1683 H 0.98904 0.21499 0.97077 0.0
H1684 H 0.04779 0.19157 1.0011 0.0
H1685 H 0.99759 0.13482 0.94773 0.0
H1686 H 0.00559 0.16005 0.94531 0.0
H1687 H 0.98955 0.15456 0.9618 0.0
C1688 C 0.03075 0.21812 0.9568 0.0
C1689 C 0.01406 0.22263 0.95858 0.0
C1690 C 0.03495 0.20296 0.96453 0.0
C1691 C 0.02254 0.19182 0.97412 0.0
C1692 C 0.00619 0.19683 0.97663 0.0
H1693 H 0.03964 0.09615 0.0298 0.0
H1694 H 0.03598 0.12859 0.02546 0.0
C1695 C 0.00201 0.21202 0.969 0.0
C1696 C 0.02613 0.17409 0.98021 0.0
H1697 H 0.01249 0.12331 0.9704 0.0
C1698 C 0.04007 0.17663 0.99444 0.0
C1699 C 0.01613 0.15455 0.97148 0.0
C1700 C 1.00146 0.15069 0.95563 0.0
C1701 C 0.0443 0.16017 1.00003 0.0
C1702 C 0.03427 0.14063 0.99124 0.0
C1703 C 0.02021 0.13822 0.97721 0.0
C1704 C 0.0387 0.12225 0.99506 0.0
C1705 C 0.05977 0.16381 0.01488 0.0
C1706 C 0.04166 0.10789 0.97963 0.0
C1707 C 0.04347 0.08944 0.98206 0.0
C1708 C 0.04271 0.08482 1.00006 0.0
C1709 C 0.04059 0.09943 0.01582 0.0
C1710 C 0.03853 0.11799 0.01332 0.0
H1711 H 0.06854 0.17904 0.01705 0.0
H1712 H 0.05465 0.16215 0.02871 0.0
H1713 H 0.06784 0.15281 0.01079 0.0
H1714 H 0.04196 0.11071 0.96543 0.0
H1715 H 0.04502 0.07846 0.96964 0.0
H1716 H 0.13699 0.80275 0.13632 0.0
H1717 H 0.16351 0.79674 0.15189 0.0
H1718 H 0.16737 0.84908 0.19676 0.0
H1719 H 0.14094 0.85486 0.18168 0.0
H1720 H 0.19865 0.81821 0.16268 0.0
H1721 H 0.16608 0.80788 0.22768 0.0
H1722 H 0.15381 0.80858 0.20606 0.0
H1723 H 0.16577 0.83135 0.22238 0.0
C1724 C 0.14359 0.81307 0.14941 0.0
C1725 C 0.1366 0.8292 0.15778 0.0
C1726 C 0.15877 0.80958 0.15837 0.0
C1727 C 0.16732 0.82212 0.1759 0.0
C1728 C 0.16083 0.83875 0.18365 0.0
H1729 H 0.25539 0.83105 0.25999 0.0
H1730 H 0.23031 0.83546 0.24099 0.0
C1731 C 0.14569 0.84213 0.17485 0.0
C1732 C 0.18278 0.81792 0.18636 0.0
H1733 H 0.19745 0.81204 0.22992 0.0
C1734 C 0.19831 0.81669 0.17733 0.0
C1735 C 0.18254 0.81586 0.20554 0.0
C1736 C 0.1661 0.81578 0.21593 0.0
C1737 C 0.21363 0.81426 0.18706 0.0
C1738 C 0.21346 0.8126 0.20637 0.0
C1739 C 0.19782 0.81348 0.21525 0.0
C1740 C 0.22925 0.81005 0.21772 0.0
C1741 C 0.23006 0.8142 0.17669 0.0
C1742 C 0.2372 0.79421 0.21128 0.0
C1743 C 0.25157 0.79161 0.22225 0.0
C1744 C 0.25833 0.80458 0.24017 0.0
C1745 C 0.25043 0.82047 0.24655 0.0
C1746 C 0.23607 0.8231 0.23555 0.0
H1747 H 0.22989 0.82147 0.16451 0.0
H1748 H 0.24232 0.82193 0.18645 0.0
H1749 H 0.23064 0.79859 0.17087 0.0
H1750 H 0.23208 0.78357 0.19789 0.0
H1751 H 0.25717 0.77914 0.21676 0.0
H1752 H 0.48805 0.82627 0.43938 0.0
H1753 H 0.49486 0.86226 0.45216 0.0
H1754 H 0.53933 0.85882 0.48839 0.0
H1755 H 0.53303 0.82272 0.4746 0.0
H1756 H 0.49489 0.88415 0.48612 0.0
H1757 H 0.56382 0.90252 0.46555 0.0
H1758 H 0.54921 0.878 0.45739 0.0
H1759 H 0.56031 0.88586 0.48127 0.0
C1760 C 0.49933 0.83326 0.45002 0.0
C1761 C 0.51008 0.82183 0.45595 0.0
C1762 C 0.5032 0.85383 0.45738 0.0
C1763 C 0.51778 0.8635 0.47111 0.0
C1764 C 0.52832 0.85194 0.47743 0.0
H1765 H 0.53596 0.99143 0.5276 0.0
H1766 H 0.52875 0.95508 0.52266 0.0
C1767 C 0.52467 0.8313 0.46968 0.0
C1768 C 0.5216 0.88559 0.47853 0.0
H1769 H 0.55286 0.92921 0.4815 0.0
C1770 C 0.50765 0.89395 0.48528 0.0
C1771 C 0.53823 0.89855 0.47741 0.0
C1772 C 0.55371 0.89084 0.46987 0.0
C1773 C 0.50966 0.91469 0.49031 0.0
C1774 C 0.5261 0.92751 0.48875 0.0
C1775 C 0.54025 0.91929 0.48267 0.0
C1776 C 0.52854 0.94942 0.4919 0.0
C1777 C 0.49393 0.92281 0.49616 0.0
C1778 C 0.5305 0.95831 0.47626 0.0
C1779 C 0.53441 0.97902 0.47904 0.0
C1780 C 0.53642 0.99132 0.49751 0.0
C1781 C 0.534 0.98241 0.51317 0.0
C1782 C 0.53002 0.96161 0.51037 0.0
H1783 H 0.48193 0.91086 0.49646 0.0
H1784 H 0.49723 0.93303 0.51054 0.0
H1785 H 0.49079 0.93151 0.48595 0.0
H1786 H 0.52943 0.94921 0.4619 0.0
H1787 H 0.53643 0.9855 0.46675 0.0
H1788 H 0.54602 0.30546 0.67664 0.0
H1789 H 0.51783 0.30138 0.69126 0.0
H1790 H 0.49133 0.30928 0.64069 0.0
H1791 H 0.51934 0.31382 0.6262 0.0
H1792 H 0.49418 0.33387 0.69285 0.0
H1793 H 0.46153 0.25515 0.6566 0.0
H1794 H 0.48547 0.2639 0.66073 0.0
H1795 H 0.47351 0.27166 0.64311 0.0
C1796 C 0.53416 0.30604 0.6685 0.0
C1797 C 0.53504 0.30981 0.65012 0.0
C1798 C 0.51806 0.30379 0.67692 0.0
C1799 C 0.50244 0.30495 0.66704 0.0
C1800 C 0.50316 0.30821 0.64855 0.0
H1801 H 0.39411 0.28214 0.70504 0.0
H1802 H 0.41847 0.28901 0.6848 0.0
C1803 C 0.51927 0.31073 0.64024 0.0
C1804 C 0.48559 0.30366 0.67639 0.0
H1805 H 0.44592 0.27178 0.67928 0.0
C1806 C 0.48361 0.32032 0.68987 0.0
C1807 C 0.47159 0.28618 0.6721 0.0
C1808 C 0.47297 0.2681 0.65738 0.0
C1809 C 0.4682 0.3198 0.69954 0.0
C1810 C 0.45458 0.3019 0.69616 0.0
C1811 C 0.45631 0.28548 0.68206 0.0
C1812 C 0.43937 0.29939 0.70826 0.0
C1813 C 0.46665 0.33859 0.71315 0.0
C1814 C 0.44282 0.30308 0.72819 0.0
C1815 C 0.42899 0.29935 0.73969 0.0
C1816 C 0.41121 0.29149 0.73166 0.0
C1817 C 0.4076 0.28832 0.71173 0.0
C1818 C 0.42155 0.2921 0.70014 0.0
H1819 H 0.47412 0.35203 0.7088 0.0
H1820 H 0.45257 0.33932 0.71394 0.0
H1821 H 0.47251 0.33905 0.72764 0.0
H1822 H 0.45635 0.30825 0.7349 0.0
H1823 H 0.43231 0.30214 0.75497 0.0
H1824 H 0.99609 0.7875 0.59838 0.0
H1825 H 0.00596 0.81005 0.57734 0.0
H1826 H 0.01996 0.85976 0.62652 0.0
H1827 H 0.0113 0.83704 0.64749 0.0
H1828 H 0.99262 0.83922 0.57173 0.0
H1829 H 0.06331 0.87131 0.60015 0.0
H1830 H 0.04991 0.84992 0.60683 0.0
H1831 H 0.04859 0.87468 0.6183 0.0
C1832 C 1.00164 0.80321 0.60457 0.0
C1833 C 0.00322 0.81071 0.62437 0.0
C1834 C 0.00721 0.81604 0.59264 0.0
C1835 C 0.01401 0.83653 0.60041 0.0
C1836 C 0.01539 0.84395 0.62027 0.0
H1837 H 0.04469 0.94036 0.55447 0.0
H1838 H 0.03512 0.91698 0.57439 0.0
C1839 C 0.01033 0.83105 0.6322 0.0
C1840 C 0.01851 0.85028 0.58767 0.0
H1841 H 0.05107 0.88801 0.57946 0.0
C1842 C 0.00547 0.84976 0.57328 0.0
C1843 C 0.03523 0.86413 0.58988 0.0
C1844 C 0.0501 0.86492 0.60451 0.0
C1845 C 0.00858 0.86292 0.56117 0.0
C1846 C 0.02525 0.87679 0.56346 0.0
C1847 C 0.03828 0.87735 0.57784 0.0
C1848 C 0.02963 0.89084 0.55102 0.0
C1849 C 0.99386 0.86213 0.54637 0.0
C1850 C 0.02964 0.88383 0.53128 0.0
C1851 C 0.03472 0.89719 0.51973 0.0
C1852 C 0.04017 0.91776 0.5278 0.0
C1853 C 0.04022 0.92467 0.54766 0.0
C1854 C 0.0349 0.91133 0.55913 0.0
H1855 H 0.98063 0.85471 0.54997 0.0
H1856 H 0.99356 0.8773 0.54487 0.0
H1857 H 0.99617 0.85346 0.53234 0.0
H1858 H 0.02599 0.86802 0.52484 0.0
H1859 H 0.03435 0.89138 0.50449 0.0
H1860 H 0.5574 0.83865 0.84214 0.0
H1861 H 0.53058 0.85108 0.83957 0.0
H1862 H 0.49824 0.79434 0.84431 0.0
H1863 H 0.52492 0.78239 0.84786 0.0
H1864 H 0.50423 0.83872 0.81337 0.0
H1865 H 0.47623 0.82973 0.88069 0.0
H1866 H 0.49867 0.82813 0.87663 0.0
H1867 H 0.48022 0.80665 0.86833 0.0
C1868 C 0.5445 0.82891 0.84257 0.0
C1869 C 0.54306 0.80957 0.84504 0.0
C1870 C 0.52927 0.83606 0.84134 0.0
C1871 C 0.51245 0.82385 0.84236 0.0
C1872 C 0.51109 0.80434 0.84433 0.0
H1873 H 0.40927 0.79976 0.79546 0.0
H1874 H 0.43587 0.80333 0.81688 0.0
C1875 C 0.52628 0.79739 0.84598 0.0
C1876 C 0.49609 0.83052 0.83929 0.0
H1877 H 0.45467 0.82827 0.85407 0.0
C1878 C 0.49359 0.83702 0.82256 0.0
C1879 C 0.48223 0.82837 0.85137 0.0
C1880 C 0.48459 0.82305 0.87035 0.0
C1881 C 0.47714 0.83983 0.81672 0.0
C1882 C 0.46287 0.83623 0.82806 0.0
C1883 C 0.46564 0.83094 0.84541 0.0
C1884 C 0.44464 0.83527 0.82056 0.0
C1885 C 0.47481 0.84524 0.79775 0.0
C1886 C 0.44035 0.8522 0.81651 0.0
C1887 C 0.42538 0.85011 0.80404 0.0
C1888 C 0.41441 0.83114 0.79595 0.0
C1889 C 0.41761 0.8145 0.80167 0.0
C1890 C 0.43271 0.81656 0.81393 0.0
H1891 H 0.48653 0.84477 0.78955 0.0
H1892 H 0.46287 0.83496 0.78886 0.0
H1893 H 0.47288 0.86056 0.80024 0.0
H1894 H 0.44936 0.86677 0.82169 0.0
H1895 H 0.42301 0.86308 0.79975 0.0
H1896 H 0.46025 0.20568 0.11211 0.0
H1897 H 0.46634 0.17415 0.09603 0.0
H1898 H 0.51962 0.19338 0.12453 0.0
H1899 H 0.51373 0.22462 0.1408 0.0
H1900 H 0.49355 0.17152 0.07184 0.0
H1901 H 0.50222 0.13719 0.13281 0.0
H1902 H 0.49146 0.15741 0.13441 0.0
H1903 H 0.51533 0.16229 0.13641 0.0
C1904 C 0.47319 0.2031 0.11509 0.0
C1905 C 0.48651 0.21767 0.12767 0.0
C1906 C 0.47661 0.18511 0.10596 0.0
C1907 C 0.4933 0.18145 0.1094 0.0
C1908 C 0.50652 0.19582 0.12208 0.0
H1909 H 0.55349 0.09832 0.06616 0.0
H1910 H 0.54181 0.12555 0.08326 0.0
C1911 C 0.50315 0.21373 0.13122 0.0
C1912 C 0.49757 0.1634 0.09855 0.0
H1913 H 0.51316 0.1236 0.10374 0.0
C1914 C 0.49758 0.16082 0.07871 0.0
C1915 C 0.503 0.14975 0.10773 0.0
C1916 C 0.50287 0.15167 0.129 0.0
C1917 C 0.50357 0.14525 0.06777 0.0
C1918 C 0.50921 0.13174 0.077 0.0
C1919 C 0.5088 0.13406 0.09679 0.0
C1920 C 0.51613 0.11539 0.06651 0.0
C1921 C 0.50452 0.14395 0.04665 0.0
C1922 C 0.50547 0.10073 0.05158 0.0
C1923 C 0.5122 0.08536 0.04168 0.0
C1924 C 0.5295 0.08424 0.04694 0.0
C1925 C 0.54004 0.09873 0.06207 0.0
C1926 C 0.53341 0.11429 0.07176 0.0
H1927 H 0.50423 0.15828 0.04292 0.0
H1928 H 0.51678 0.1397 0.04192 0.0
H1929 H 0.49289 0.13244 0.03854 0.0
H1930 H 0.49195 0.10113 0.04766 0.0
H1931 H 0.5038 0.07421 0.03009 0.0
H1932 H 0.14928 0.3054 0.36661 0.0
H1933 H 0.17736 0.30573 0.35259 0.0
H1934 H 0.16625 0.34604 0.31922 0.0
H1935 H 0.1384 0.34618 0.33349 0.0
H1936 H 0.1768 0.29134 0.31415 0.0
H1937 H 0.21894 0.36856 0.33633 0.0
H1938 H 0.20008 0.35958 0.34856 0.0
H1939 H 0.19685 0.36713 0.32664 0.0
C1940 C 0.15306 0.31474 0.35666 0.0
C1941 C 0.14161 0.32556 0.35091 0.0
C1942 C 0.16906 0.31491 0.34869 0.0
C1943 C 0.17378 0.32588 0.33489 0.0
C1944 C 0.16294 0.33773 0.33008 0.0
H1945 H 0.25959 0.33017 0.2615 0.0
H1946 H 0.22912 0.32824 0.27038 0.0
C1947 C 0.147 0.33772 0.33818 0.0
C1948 C 0.1887 0.32284 0.32374 0.0
H1949 H 0.22783 0.34682 0.31069 0.0
C1950 C 0.18799 0.30346 0.3134 0.0
C1951 C 0.20313 0.33872 0.32275 0.0
C1952 C 0.20493 0.35964 0.3343 0.0
C1953 C 0.20147 0.29951 0.30211 0.0
C1954 C 0.21587 0.31537 0.30109 0.0
C1955 C 0.21647 0.33479 0.31119 0.0
C1956 C 0.23177 0.31194 0.29206 0.0
C1957 C 0.20035 0.27845 0.29148 0.0
C1958 C 0.24293 0.30297 0.30102 0.0
C1959 C 0.26019 0.30437 0.29624 0.0
C1960 C 0.26644 0.31431 0.28211 0.0
C1961 C 0.25489 0.32214 0.27222 0.0
C1962 C 0.23758 0.32099 0.27721 0.0
H1963 H 0.18671 0.26876 0.29032 0.0
H1964 H 0.2045 0.27818 0.2769 0.0
H1965 H 0.20948 0.27217 0.29925 0.0
H1966 H 0.23884 0.29646 0.3129 0.0
H1967 H 0.26891 0.29919 0.30488 0.0
H1968 H 0.99242 0.09812 0.22841 0.0
H1969 H 0.00272 0.09343 0.19676 0.0
H1970 H 0.95348 0.05029 0.17396 0.0
H1971 H 0.9428 0.0554 0.20594 0.0
H1972 H 0.0112 0.06523 0.17349 0.0
H1973 H 0.95544 0.08039 0.13358 0.0
H1974 H 0.95765 0.08492 0.15928 0.0
H1975 H 0.94826 0.06017 0.14489 0.0
C1976 C 0.98354 0.08767 0.21675 0.0
C1977 C 0.96654 0.07729 0.22019 0.0
C1978 C 0.9896 0.08493 0.19838 0.0
C1979 C 0.97902 0.07168 0.18229 0.0
C1980 C 0.96201 0.06109 0.18563 0.0
H1981 H 1.00024 0.03275 0.06108 0.0
H1982 H 0.98786 0.03721 0.09196 0.0
C1983 C 0.95585 0.06391 0.20416 0.0
C1984 C 0.9862 0.06885 0.16254 0.0
H1985 H 0.9766 0.06791 0.11502 0.0
C1986 C 0.00353 0.06594 0.16082 0.0
C1987 C 0.97661 0.06974 0.14551 0.0
C1988 C 0.95855 0.07418 0.14587 0.0
C1989 C 0.01118 0.06365 0.14311 0.0
C1990 C 1.00155 0.06442 0.12611 0.0
C1991 C 0.98421 0.06721 0.12774 0.0
C1992 C 0.00914 0.0622 0.10665 0.0
C1993 C 0.02952 0.05992 0.14275 0.0
C1994 C 0.02519 0.07497 0.10379 0.0
C1995 C 0.03227 0.07258 0.08583 0.0
C1996 C 0.0238 0.05715 0.06994 0.0
C1997 C 0.00749 0.04472 0.07273 0.0
C1998 C 1.0003 0.04727 0.0906 0.0
H1999 H 0.03317 0.05438 0.15531 0.0
H2000 H 0.03048 0.04893 0.12954 0.0
H2001 H 0.0394 0.07408 0.14308 0.0
H2002 H 0.03226 0.08703 0.11546 0.0
H2003 H 0.04444 0.08296 0.08448 0.0
H2004 H 0.276 0.70387 0.5006 0.0
H2005 H 0.27214 0.72126 0.47511 0.0
H2006 H 0.30999 0.69456 0.44399 0.0
H2007 H 0.31421 0.67772 0.46954 0.0
H2008 H 0.31138 0.74068 0.44889 0.0
H2009 H 0.24798 0.68425 0.41877 0.0
H2010 H 0.25295 0.69331 0.44429 0.0
H2011 H 0.26561 0.67774 0.43127 0.0
C2012 C 0.2838 0.70227 0.48853 0.0
C2013 C 0.29567 0.68997 0.487 0.0
C2014 C 0.28154 0.71203 0.47404 0.0
C2015 C 0.29085 0.7091 0.45786 0.0
C2016 C 0.30296 0.69714 0.45658 0.0
H2017 H 0.26629 0.72026 0.3442 0.0
H2018 H 0.27769 0.71065 0.37214 0.0
C2019 C 0.30543 0.68769 0.47115 0.0
C2020 C 0.28725 0.71739 0.44158 0.0
H2021 H 0.25858 0.70845 0.40176 0.0
C2022 C 0.29981 0.73382 0.43858 0.0
C2023 C 0.27229 0.70801 0.42819 0.0
C2024 C 0.25887 0.68981 0.43062 0.0
C2025 C 0.2978 0.74117 0.42227 0.0
C2026 C 0.28272 0.73189 0.40889 0.0
C2027 C 0.27015 0.71548 0.41204 0.0
C2028 C 0.27928 0.73901 0.39165 0.0
C2029 C 0.31203 0.75842 0.41932 0.0
C2030 C 0.27698 0.75831 0.39332 0.0
C2031 C 0.27074 0.76386 0.37736 0.0
C2032 C 0.26639 0.75002 0.35968 0.0
C2033 C 0.26944 0.73103 0.35781 0.0
C2034 C 0.27596 0.72561 0.37369 0.0
H2035 H 0.32491 0.75968 0.42746 0.0
H2036 H 0.31407 0.75694 0.40397 0.0
H2037 H 0.30792 0.77245 0.42454 0.0
H2038 H 0.27907 0.76871 0.40712 0.0
H2039 H 0.26836 0.77855 0.37903 0.0
H2040 H 0.644 0.98877 0.66197 0.0
H2041 H 0.62274 0.99585 0.63997 0.0
H2042 H 0.64433 0.0589 0.66246 0.0
H2043 H 0.66581 0.05203 0.68414 0.0
H2044 H 0.59854 0.01821 0.65765 0.0
H2045 H 0.63627 0.0524 0.60427 0.0
H2046 H 0.64487 0.03713 0.61756 0.0
H2047 H 0.64518 0.06237 0.62883 0.0
C2048 C 0.64469 0.0041 0.66164 0.0
C2049 C 0.65622 0.01988 0.67488 0.0
C2050 C 0.63249 0.0081 0.64924 0.0
C2051 C 0.63201 0.02784 0.64994 0.0
C2052 C 0.64468 0.0436 0.66179 0.0
H2053 H 0.56539 0.06877 0.58045 0.0
H2054 H 0.57874 0.07012 0.61223 0.0
C2055 C 0.65687 0.03964 0.67413 0.0
C2056 C 0.61701 0.03194 0.64009 0.0
H2057 H 0.60604 0.05233 0.60427 0.0
C2058 C 0.60007 0.02574 0.646 0.0
C2059 C 0.61937 0.04212 0.62533 0.0
C2060 C 0.63737 0.04879 0.61848 0.0
C2061 C 0.5851 0.0289 0.63687 0.0
C2062 C 0.58737 0.03837 0.62158 0.0
C2063 C 0.60446 0.04534 0.61629 0.0
C2064 C 0.57243 0.03811 0.60842 0.0
C2065 C 0.56703 0.02171 0.64325 0.0
C2066 C 0.56324 0.01969 0.59667 0.0
C2067 C 0.55558 0.01893 0.57862 0.0
C2068 C 0.55748 0.03655 0.57243 0.0
C2069 C 0.56443 0.05504 0.58508 0.0
C2070 C 0.57169 0.05583 0.60324 0.0
H2071 H 0.56805 0.02113 0.65854 0.0
H2072 H 0.55814 0.03143 0.6411 0.0
H2073 H 0.56084 0.00642 0.63471 0.0
H2074 H 0.56391 0.00586 0.60038 0.0
H2075 H 0.54988 0.00462 0.56891 0.0
H2076 H 0.33542 0.35849 0.9806 0.0
H2077 H 0.33163 0.34456 0.94636 0.0
H2078 H 0.27471 0.33496 0.94659 0.0
H2079 H 0.27864 0.35042 0.981 0.0
H2080 H 0.31784 0.31118 0.92413 0.0
H2081 H 0.28015 0.36326 0.90542 0.0
H2082 H 0.28969 0.36616 0.92942 0.0
H2083 H 0.26902 0.34805 0.92026 0.0
C2084 C 0.32205 0.35341 0.97342 0.0
C2085 C 0.30733 0.3557 0.98356 0.0
C2086 C 0.31988 0.34535 0.95373 0.0
C2087 C 0.3029 0.33894 0.94356 0.0
C2088 C 0.28803 0.34038 0.95382 0.0
H2089 H 0.29719 0.27924 0.82035 0.0
H2090 H 0.29672 0.28401 0.85513 0.0
C2091 C 0.29025 0.34905 0.97356 0.0
C2092 C 0.30125 0.33136 0.92228 0.0
H2093 H 0.28566 0.33919 0.88014 0.0
C2094 C 0.31078 0.31733 0.91454 0.0
C2095 C 0.29205 0.33928 0.90958 0.0
C2096 C 0.28229 0.35514 0.91656 0.0
C2097 C 0.31208 0.31181 0.89475 0.0
C2098 C 0.303 0.31987 0.88213 0.0
C2099 C 0.29274 0.33307 0.88977 0.0
C2100 C 0.30491 0.31625 0.86118 0.0
C2101 C 0.32393 0.29821 0.88771 0.0
C2102 C 0.30973 0.33263 0.85285 0.0
C2103 C 0.3096 0.3299 0.83307 0.0
C2104 C 0.30516 0.31071 0.82109 0.0
C2105 C 0.30115 0.29418 0.82933 0.0
C2106 C 0.30088 0.29693 0.84923 0.0
H2107 H 0.33349 0.29764 0.89941 0.0
H2108 H 0.31561 0.2829 0.88186 0.0
H2109 H 0.33156 0.3031 0.8762 0.0
H2110 H 0.31301 0.34767 0.86164 0.0
H2111 H 0.31248 0.34288 0.82704 0.0
H2112 H 0.98473 0.06387 0.31894 0.0
H2113 H 0.99791 0.0587 0.34852 0.0
H2114 H 0.95211 0.06884 0.37661 0.0
H2115 H 0.93885 0.07425 0.34697 0.0
H2116 H 0.99459 0.09062 0.39677 0.0
H2117 H 0.9739 0.00794 0.3749 0.0
H2118 H 0.98077 0.02227 0.35747 0.0
H2119 H 0.96013 0.02285 0.3674 0.0
C2120 C 0.9773 0.06494 0.33132 0.0
C2121 C 0.96049 0.06942 0.33014 0.0
C2122 C 0.98498 0.06201 0.34843 0.0
C2123 C 0.9762 0.06328 0.3652 0.0
C2124 C 0.95942 0.0678 0.36415 0.0
H2125 H 0.99176 0.03461 0.47684 0.0
H2126 H 0.98127 0.0386 0.44563 0.0
C2127 C 0.95175 0.07089 0.34702 0.0
C2128 C 0.98441 0.05955 0.38349 0.0
H2129 H 0.98987 0.02216 0.40519 0.0
C2130 C 0.99357 0.07562 0.39848 0.0
C2131 C 0.98342 0.04006 0.38615 0.0
C2132 C 0.97405 0.02216 0.37073 0.0
C2133 C 1.00145 0.07273 0.41566 0.0
C2134 C 1.00027 0.05322 0.4184 0.0
C2135 C 0.99108 0.03717 0.4034 0.0
C2136 C 0.00735 0.0493 0.43714 0.0
C2137 C 0.01072 0.09068 0.43109 0.0
C2138 C 0.02575 0.05327 0.44317 0.0
C2139 C 0.0319 0.05038 0.4611 0.0
C2140 C 0.01985 0.04368 0.47378 0.0
C2141 C 1.00154 0.0395 0.46753 0.0
C2142 C 0.99546 0.04191 0.44956 0.0
H2143 H 0.00889 0.10478 0.42793 0.0
H2144 H 0.00566 0.08933 0.44504 0.0
H2145 H 0.02518 0.09147 0.43254 0.0
H2146 H 0.03544 0.05892 0.4341 0.0
H2147 H 0.04606 0.05424 0.46537 0.0
H2148 H 0.25189 0.67135 0.55665 0.0
H2149 H 0.24527 0.69144 0.58674 0.0
H2150 H 0.29428 0.68817 0.61499 0.0
H2151 H 0.30101 0.66855 0.58536 0.0
H2152 H 0.25232 0.68428 0.63308 0.0
H2153 H 0.29067 0.75032 0.60999 0.0
H2154 H 0.27736 0.7285 0.59319 0.0
H2155 H 0.29836 0.72787 0.60419 0.0
C2156 C 0.26095 0.67451 0.56945 0.0
C2157 C 0.27707 0.6687 0.56868 0.0
C2158 C 0.25719 0.68596 0.58654 0.0
C2159 C 0.26941 0.69132 0.60291 0.0
C2160 C 0.28475 0.68417 0.60245 0.0
H2161 H 0.31367 0.76156 0.7089 0.0
H2162 H 0.3049 0.74229 0.67598 0.0
C2163 C 0.28859 0.67304 0.5855 0.0
C2164 C 0.26776 0.70623 0.62002 0.0
H2165 H 0.28786 0.75408 0.64321 0.0
C2166 C 0.25955 0.69972 0.63521 0.0
C2167 C 0.27742 0.72624 0.62267 0.0
C2168 C 0.28641 0.7338 0.60664 0.0
C2169 C 0.26172 0.71255 0.65343 0.0
C2170 C 0.2724 0.73219 0.65633 0.0
C2171 C 0.27971 0.73899 0.64086 0.0
C2172 C 0.27775 0.74513 0.67566 0.0
C2173 C 0.25365 0.7047 0.66977 0.0
C2174 C 0.26546 0.75344 0.68609 0.0
C2175 C 0.27048 0.76462 0.70481 0.0
C2176 C 0.28788 0.76765 0.71336 0.0
C2177 C 0.30028 0.75975 0.70264 0.0
C2178 C 0.29526 0.74865 0.68389 0.0
H2179 H 0.24705 0.68855 0.66546 0.0
H2180 H 0.26407 0.70725 0.68176 0.0
H2181 H 0.24363 0.71287 0.67514 0.0
H2182 H 0.25194 0.751 0.67985 0.0
H2183 H 0.26062 0.77056 0.7127 0.0
H2184 H 0.65815 0.06421 0.78142 0.0
H2185 H 0.64988 0.07524 0.81349 0.0
H2186 H 0.65735 0.02137 0.82762 0.0
H2187 H 0.66647 0.01072 0.79573 0.0
H2188 H 0.61962 0.05052 0.81955 0.0
H2189 H 0.67199 0.06182 0.87887 0.0
H2190 H 0.67703 0.06263 0.85475 0.0
H2191 H 0.66929 0.03913 0.86097 0.0
C2192 C 0.65848 0.05502 0.79159 0.0
C2193 C 0.66239 0.03643 0.78619 0.0
C2194 C 0.65401 0.06143 0.80991 0.0
C2195 C 0.65303 0.0491 0.82282 0.0
C2196 C 0.65838 0.03125 0.81795 0.0
H2197 H 0.57704 0.02683 0.90184 0.0
H2198 H 0.60131 0.0258 0.88132 0.0
C2199 C 0.66329 0.02504 0.7997 0.0
C2200 C 0.64235 0.05242 0.83889 0.0
H2201 H 0.64181 0.05735 0.88698 0.0
C2202 C 0.62459 0.05239 0.83433 0.0
C2203 C 0.64884 0.05435 0.85802 0.0
C2204 C 0.66788 0.05465 0.86351 0.0
C2205 C 0.61303 0.05415 0.8484 0.0
C2206 C 0.61945 0.056 0.86747 0.0
C2207 C 0.63716 0.05604 0.87221 0.0
C2208 C 0.60739 0.05733 0.88231 0.0
C2209 C 0.59388 0.05354 0.84282 0.0
C2210 C 0.603 0.07542 0.88935 0.0
C2211 C 0.58898 0.07595 0.90061 0.0
C2212 C 0.57942 0.05842 0.90496 0.0
C2213 C 0.58424 0.04044 0.89839 0.0
C2214 C 0.59816 0.03989 0.88702 0.0
H2215 H 0.59086 0.05101 0.82712 0.0
H2216 H 0.58488 0.04149 0.84786 0.0
H2217 H 0.59093 0.06782 0.84979 0.0
H2218 H 0.61 0.0889 0.88554 0.0
H2219 H 0.58564 0.09 0.90599 0.0
H2220 H 0.31556 0.33619 0.07663 0.0
H2221 H 0.31032 0.32548 0.10628 0.0
H2222 H 0.26914 0.35706 0.11534 0.0
H2223 H 0.27427 0.36795 0.08553 0.0
H2224 H 0.29886 0.3679 0.14573 0.0
H2225 H 0.26884 0.28642 0.12464 0.0
H2226 H 0.28675 0.29565 0.11143 0.0
H2227 H 0.26629 0.30306 0.10948 0.0
C2228 C 0.305 0.34042 0.08457 0.0
C2229 C 0.29539 0.35304 0.07865 0.0
C2230 C 0.30201 0.33421 0.10155 0.0
C2231 C 0.28932 0.34042 0.11301 0.0
C2232 C 0.27896 0.35205 0.10666 0.0
H2233 H 0.2726 0.30837 0.22346 0.0
H2234 H 0.2675 0.31363 0.19127 0.0
C2235 C 0.28185 0.35816 0.08954 0.0
C2236 C 0.28859 0.33677 0.13256 0.0
H2237 H 0.28142 0.29981 0.15695 0.0
C2238 C 0.29482 0.35304 0.14821 0.0
C2239 C 0.28324 0.31741 0.13578 0.0
C2240 C 0.27575 0.29958 0.1195 0.0
C2241 C 0.29651 0.35039 0.16693 0.0
C2242 C 0.29208 0.33092 0.17009 0.0
C2243 C 0.28506 0.31471 0.15452 0.0
C2244 C 0.29514 0.32717 0.18938 0.0
C2245 C 0.30317 0.3685 0.18317 0.0
C2246 C 0.31239 0.33269 0.19891 0.0
C2247 C 0.31531 0.32958 0.21721 0.0
C2248 C 0.30106 0.3208 0.22631 0.0
C2249 C 0.28384 0.31502 0.21669 0.0
C2250 C 0.2809 0.31809 0.19835 0.0
H2251 H 0.30107 0.38218 0.17927 0.0
H2252 H 0.29643 0.36665 0.19616 0.0
H2253 H 0.31766 0.37069 0.1867 0.0
H2254 H 0.32365 0.33924 0.19209 0.0
H2255 H 0.32877 0.33351 0.22398 0.0
H2256 H 0.27531 0.99692 0.0437 0.0
H2257 H 0.24938 0.00839 0.03563 0.0
H2258 H 0.23108 0.95608 0.98963 0.0
H2259 H 0.25719 0.9443 0.9976 0.0
H2260 H 0.23576 0.01287 0.9963 0.0
H2261 H 0.19193 0.95826 0.02992 0.0
H2262 H 0.2157 0.96518 0.036 0.0
H2263 H 0.20647 0.9502 0.01278 0.0
C2264 C 0.26587 0.98789 0.03178 0.0
C2265 C 0.26813 0.96967 0.02135 0.0
C2266 C 0.25118 0.99453 0.02712 0.0
C2267 C 0.23856 0.98304 0.01204 0.0
C2268 C 0.24087 0.96506 1.00126 0.0
H2269 H 0.13862 0.01609 0.02199 0.0
H2270 H 0.15954 0.99836 0.00733 0.0
C2271 C 0.25568 0.95839 0.00588 0.0
C2272 C 0.22235 0.9895 0.00908 0.0
H2273 H 0.18197 0.986 0.02605 0.0
C2274 C 0.22369 0.00672 0.0022 0.0
C2275 C 0.20679 0.98125 0.01678 0.0
C2276 C 0.20498 0.9627 0.02433 0.0
C2277 C 0.21023 0.01686 0.00413 0.0
C2278 C 0.19542 0.00971 0.01357 0.0
C2279 C 0.19343 0.99151 0.01893 0.0
C2280 C 0.18285 0.02176 0.02003 0.0
C2281 C 0.21237 0.03553 0.99677 0.0
C2282 C 0.18908 0.04085 0.03203 0.0
C2283 C 0.17711 0.0514 0.04001 0.0
C2284 C 0.15875 0.04278 0.03646 0.0
C2285 C 0.15263 0.02354 0.02454 0.0
C2286 C 0.16456 0.01324 0.01624 0.0
H2287 H 0.22009 0.0347 0.98413 0.0
H2288 H 0.19931 0.03818 0.99277 0.0
H2289 H 0.21991 0.04846 0.00805 0.0
H2290 H 0.20319 0.04736 0.03572 0.0
H2291 H 0.18224 0.06615 0.0491 0.0
H2292 H 0.72969 0.67567 0.9956 0.0
H2293 H 0.69806 0.66007 0.99685 0.0
H2294 H 0.71191 0.60685 0.00508 0.0
H2295 H 0.74319 0.62205 0.0037 0.0
H2296 H 0.67665 0.61909 0.97234 0.0
H2297 H 0.68209 0.6255 0.05074 0.0
H2298 H 0.69762 0.64148 0.03941 0.0
H2299 H 0.69918 0.61642 0.03827 0.0
C2300 C 0.72597 0.66067 0.9977 0.0
C2301 C 0.73901 0.65015 0.99958 0.0
C2302 C 0.70791 0.65176 0.99835 0.0
C2303 C 0.70269 0.63235 1.00119 0.0
C2304 C 0.71567 0.62188 0.00301 0.0
H2305 H 0.60917 0.54653 0.01759 0.0
H2306 H 0.63913 0.56538 0.01425 0.0
C2307 C 0.73357 0.63063 0.00217 0.0
C2308 C 0.68375 0.62272 0.00234 0.0
H2309 H 0.65573 0.60418 0.03288 0.0
C2310 C 0.67196 0.61602 0.98559 0.0
C2311 C 0.67774 0.61862 0.01962 0.0
C2312 C 0.68973 0.62598 0.03811 0.0
C2313 C 0.65446 0.60473 0.98556 0.0
C2314 C 0.64855 0.6003 0.00282 0.0
C2315 C 0.66028 0.6074 0.01962 0.0
C2316 C 0.63027 0.58833 0.00385 0.0
C2317 C 0.6427 0.59701 0.96691 0.0
C2318 C 0.61531 0.59495 0.99919 0.0
C2319 C 0.59821 0.58415 1.00097 0.0
C2320 C 0.59564 0.56649 0.00753 0.0
C2321 C 0.61064 0.55986 0.01219 0.0
C2322 C 0.62778 0.5707 0.0104 0.0
H2323 H 0.65055 0.59716 0.95441 0.0
H2324 H 0.63469 0.5816 0.96576 0.0
H2325 H 0.63341 0.60665 0.96622 0.0
H2326 H 0.61686 0.60872 0.99453 0.0
H2327 H 0.58698 0.58978 0.99736 0.0
H2328 H 0.71861 0.47033 0.24814 0.0
H2329 H 0.73411 0.44327 0.24637 0.0
H2330 H 0.70201 0.42115 0.28785 0.0
H2331 H 0.68672 0.44787 0.28955 0.0
H2332 H 0.75541 0.43264 0.27146 0.0
H2333 H 0.69663 0.36911 0.251 0.0
H2334 H 0.69549 0.39405 0.25036 0.0
H2335 H 0.69418 0.38607 0.27249 0.0
C2336 C 0.71446 0.45939 0.25648 0.0
C2337 C 0.70077 0.46131 0.26857 0.0
C2338 C 0.72358 0.44384 0.25566 0.0
C2339 C 0.71933 0.4293 0.26668 0.0
C2340 C 0.7056 0.43133 0.27864 0.0
H2341 H 0.77031 0.34247 0.30449 0.0
H2342 H 0.75598 0.36894 0.30058 0.0
C2343 C 0.69671 0.44688 0.27962 0.0
C2344 C 0.72935 0.4126 0.26636 0.0
H2345 H 0.72307 0.362 0.26313 0.0
C2346 C 0.74817 0.41723 0.26941 0.0
C2347 C 0.7205 0.39201 0.26366 0.0
C2348 C 0.70062 0.38494 0.259 0.0
C2349 C 0.75791 0.40252 0.27046 0.0
C2350 C 0.749 0.38214 0.26831 0.0
C2351 C 0.73026 0.3774 0.26489 0.0
C2352 C 0.75879 0.36591 0.27049 0.0
C2353 C 0.77786 0.40885 0.27416 0.0
C2354 C 0.76561 0.35476 0.25501 0.0
C2355 C 0.77391 0.3392 0.25723 0.0
C2356 C 0.7761 0.33437 0.27514 0.0
C2357 C 0.76937 0.34571 0.29051 0.0
C2358 C 0.761 0.36102 0.28827 0.0
H2359 H 0.78311 0.42511 0.27576 0.0
H2360 H 0.78219 0.40473 0.28733 0.0
H2361 H 0.78375 0.40077 0.26213 0.0
H2362 H 0.76424 0.35782 0.241 0.0
H2363 H 0.77825 0.33068 0.24478 0.0
H2364 H 0.85361 0.48492 0.50085 0.0
H2365 H 0.88451 0.49201 0.49316 0.0
H2366 H 0.90257 0.49468 0.55148 0.0
H2367 H 0.87176 0.48702 0.55903 0.0
H2368 H 0.91545 0.52068 0.50672 0.0
H2369 H 0.91954 0.44815 0.5209 0.0
H2370 H 0.89882 0.45544 0.51956 0.0
H2371 H 0.91373 0.46414 0.54121 0.0
C2372 C 0.86425 0.4878 0.51213 0.0
C2373 C 0.86055 0.48539 0.53045 0.0
C2374 C 0.8818 0.49159 0.5077 0.0
C2375 C 0.89558 0.49311 0.52163 0.0
C2376 C 0.89195 0.49292 0.54046 0.0
H2377 H 0.00522 0.53767 0.53165 0.0
H2378 H 0.97327 0.53143 0.52855 0.0
C2379 C 0.87447 0.48886 0.54481 0.0
C2380 C 0.91363 0.49369 0.51634 0.0
H2381 H 0.94726 0.47073 0.51891 0.0
C2382 C 0.92238 0.50962 0.50906 0.0
C2383 C 0.92232 0.47886 0.51892 0.0
C2384 C 0.91304 0.46057 0.52538 0.0
C2385 C 0.94015 0.51191 0.50547 0.0
C2386 C 0.94939 0.49805 0.50966 0.0
C2387 C 0.94022 0.48139 0.51576 0.0
C2388 C 0.96889 0.50186 0.51025 0.0
C2389 C 0.94878 0.52946 0.49767 0.0
C2390 C 0.97714 0.48684 0.50196 0.0
C2391 C 0.99564 0.49023 0.50434 0.0
C2392 C 0.00597 0.5089 0.51432 0.0
C2393 C 0.99765 0.52363 0.52286 0.0
C2394 C 0.97932 0.52007 0.52106 0.0
H2395 H 0.93939 0.53203 0.48691 0.0
H2396 H 0.95237 0.54306 0.50947 0.0
H2397 H 0.9609 0.5273 0.49099 0.0
H2398 H 0.96927 0.47249 0.49392 0.0
H2399 H 0.00188 0.47851 0.49814 0.0
H2400 H 0.37674 0.10924 0.34143 0.0
H2401 H 0.35985 0.13013 0.32953 0.0
H2402 H 0.3467 0.08713 0.27536 0.0
H2403 H 0.36347 0.06638 0.28715 0.0
H2404 H 0.3754 0.14246 0.29799 0.0
H2405 H 0.30287 0.10982 0.28083 0.0
H2406 H 0.31606 0.10309 0.29852 0.0
H2407 H 0.31597 0.09223 0.27352 0.0
C2408 C 0.3694 0.10383 0.32738 0.0
C2409 C 0.37153 0.08658 0.31496 0.0
C2410 C 0.35984 0.11574 0.32061 0.0
C2411 C 0.35219 0.11012 0.3016 0.0
C2412 C 0.35234 0.09154 0.29014 0.0
H2413 H 0.32153 0.16673 0.21547 0.0
H2414 H 0.33455 0.14498 0.23106 0.0
C2415 C 0.362 0.07979 0.29682 0.0
C2416 C 0.34816 0.12512 0.29219 0.0
H2417 H 0.31634 0.13373 0.26345 0.0
C2418 C 0.36241 0.14081 0.29069 0.0
C2419 C 0.33136 0.12248 0.28239 0.0
C2420 C 0.31565 0.10608 0.28401 0.0
C2421 C 0.36031 0.15386 0.27925 0.0
C2422 C 0.34354 0.15103 0.26924 0.0
C2423 C 0.32928 0.13546 0.27088 0.0
C2424 C 0.33973 0.16542 0.25885 0.0
C2425 C 0.376 0.17034 0.27769 0.0
C2426 C 0.33878 0.18404 0.26938 0.0
C2427 C 0.33106 0.19615 0.26075 0.0
C2428 C 0.32434 0.18997 0.2413 0.0
C2429 C 0.3264 0.17178 0.23047 0.0
C2430 C 0.33397 0.15948 0.23927 0.0
H2431 H 0.3888 0.1676 0.28255 0.0
H2432 H 0.37641 0.17204 0.26274 0.0
H2433 H 0.3747 0.18459 0.28679 0.0
H2434 H 0.34279 0.18857 0.28462 0.0
H2435 H 0.32932 0.20976 0.26977 0.0
H2436 H 0.35351 0.1828 0.49697 0.0
H2437 H 0.37859 0.16794 0.49946 0.0
H2438 H 0.35066 0.13206 0.53521 0.0
H2439 H 0.32506 0.14628 0.53204 0.0
H2440 H 0.4007 0.16661 0.52782 0.0
H2441 H 0.36173 0.08994 0.4942 0.0
H2442 H 0.35292 0.1114 0.49466 0.0
H2443 H 0.35269 0.10071 0.5152 0.0
C2444 C 0.35273 0.17185 0.5055 0.0
C2445 C 0.33725 0.16556 0.5142 0.0
C2446 C 0.36709 0.16335 0.50687 0.0
C2447 C 0.36634 0.14853 0.51711 0.0
C2448 C 0.35129 0.14301 0.52671 0.0
H2449 H 0.44503 0.09897 0.55978 0.0
H2450 H 0.42545 0.1201 0.55393 0.0
C2451 C 0.33675 0.15127 0.52506 0.0
C2452 C 0.3812 0.13869 0.51747 0.0
H2453 H 0.39069 0.09317 0.50913 0.0
C2454 C 0.39852 0.15056 0.52362 0.0
C2455 C 0.37845 0.11777 0.51148 0.0
C2456 C 0.36047 0.10424 0.50331 0.0
C2457 C 0.41299 0.14198 0.52474 0.0
C2458 C 0.40999 0.12107 0.51986 0.0
C2459 C 0.39286 0.10924 0.513 0.0
C2460 C 0.42407 0.11096 0.52312 0.0
C2461 C 0.43139 0.15525 0.53116 0.0
C2462 C 0.42996 0.09914 0.5077 0.0
C2463 C 0.44126 0.08723 0.51102 0.0
C2464 C 0.44646 0.08669 0.5298 0.0
C2465 C 0.44109 0.09911 0.54519 0.0
C2466 C 0.43004 0.11123 0.54187 0.0
H2467 H 0.43212 0.17086 0.53031 0.0
H2468 H 0.4351 0.15521 0.54622 0.0
H2469 H 0.4413 0.14964 0.52232 0.0
H2470 H 0.42533 0.09866 0.49314 0.0
H2471 H 0.44519 0.07767 0.49896 0.0
H2472 H 0.68033 0.57365 0.2644 0.0
H2473 H 0.69539 0.6079 0.26312 0.0
H2474 H 0.74269 0.60279 0.29308 0.0
H2475 H 0.72766 0.56881 0.29475 0.0
H2476 H 0.72031 0.64226 0.30394 0.0
H2477 H 0.75006 0.62369 0.23565 0.0
H2478 H 0.72878 0.60909 0.23961 0.0
H2479 H 0.74871 0.60748 0.25201 0.0
C2480 C 0.694 0.57968 0.27057 0.0
C2481 C 0.70266 0.56811 0.27964 0.0
C2482 C 0.70262 0.59944 0.26991 0.0
C2483 C 0.72032 0.60827 0.27802 0.0
C2484 C 0.72907 0.59663 0.28676 0.0
H2485 H 0.79987 0.71957 0.27652 0.0
H2486 H 0.78398 0.68561 0.27702 0.0
C2487 C 0.7204 0.57703 0.28767 0.0
C2488 C 0.72962 0.62956 0.27765 0.0
H2489 H 0.75738 0.65737 0.25226 0.0
C2490 C 0.72831 0.64552 0.29256 0.0
C2491 C 0.74029 0.63416 0.26299 0.0
C2492 C 0.74215 0.61782 0.24655 0.0
C2493 C 0.73735 0.66558 0.29325 0.0
C2494 C 0.74802 0.67026 0.27852 0.0
C2495 C 0.74933 0.6542 0.26363 0.0
C2496 C 0.75792 0.69152 0.27837 0.0
C2497 C 0.73575 0.68158 0.31018 0.0
C2498 C 0.74891 0.70672 0.27876 0.0
C2499 C 0.75808 0.72634 0.2784 0.0
C2500 C 0.77672 0.73172 0.27772 0.0
C2501 C 0.7857 0.71647 0.27732 0.0
C2502 C 0.77649 0.69678 0.27748 0.0
H2503 H 0.73149 0.67529 0.32257 0.0
H2504 H 0.74857 0.69292 0.31469 0.0
H2505 H 0.7256 0.68912 0.30618 0.0
H2506 H 0.73462 0.70339 0.27905 0.0
H2507 H 0.75044 0.73733 0.2786 0.0
H2508 H 0.86624 0.51151 0.80799 0.0
H2509 H 0.84713 0.47764 0.79814 0.0
H2510 H 0.88722 0.45921 0.76419 0.0
H2511 H 0.90624 0.49329 0.77364 0.0
H2512 H 0.83887 0.44367 0.7551 0.0
H2513 H 0.87865 0.43559 0.81813 0.0
H2514 H 0.87515 0.45939 0.8162 0.0
H2515 H 0.88984 0.44845 0.80138 0.0
C2516 C 0.87064 0.50035 0.79788 0.0
C2517 C 0.88762 0.50473 0.79162 0.0
C2518 C 0.85974 0.48113 0.79224 0.0
C2519 C 0.86589 0.46612 0.78058 0.0
C2520 C 0.88228 0.47079 0.77308 0.0
H2521 H 0.84889 0.34196 0.76639 0.0
H2522 H 0.85936 0.37813 0.77261 0.0
C2523 C 0.89309 0.49015 0.77847 0.0
C2524 C 0.85683 0.44526 0.77931 0.0
H2525 H 0.85749 0.40724 0.80095 0.0
C2526 C 0.84283 0.43559 0.76505 0.0
C2527 C 0.86208 0.4351 0.79254 0.0
C2528 C 0.87721 0.44507 0.80802 0.0
C2529 C 0.8343 0.41547 0.76318 0.0
C2530 C 0.83972 0.40516 0.7763 0.0
C2531 C 0.85334 0.4152 0.79097 0.0
C2532 C 0.83302 0.38348 0.77387 0.0
C2533 C 0.82015 0.4053 0.74671 0.0
C2534 C 0.81476 0.37453 0.77282 0.0
C2535 C 0.8088 0.35382 0.76872 0.0
C2536 C 0.82111 0.34206 0.76682 0.0
C2537 C 0.8393 0.35097 0.76842 0.0
C2538 C 0.84523 0.37155 0.77195 0.0
H2539 H 0.82058 0.41402 0.73557 0.0
H2540 H 0.82164 0.39023 0.73995 0.0
H2541 H 0.80686 0.40371 0.75208 0.0
H2542 H 0.80515 0.38349 0.77475 0.0
H2543 H 0.79465 0.34704 0.76696 0.0
H2544 H 0.05748 0.84258 0.05478 0.0
H2545 H 0.05488 0.87052 0.04109 0.0
H2546 H 0.09421 0.91028 0.08489 0.0
H2547 H 0.09671 0.88218 0.09898 0.0
H2548 H 0.04433 0.90485 0.06639 0.0
H2549 H 0.10561 0.92637 0.03099 0.0
H2550 H 0.09686 0.90124 0.03349 0.0
H2551 H 0.10796 0.92024 0.05387 0.0
C2552 C 0.06606 0.85714 0.0612 0.0
C2553 C 0.07737 0.86001 0.07802 0.0
C2554 C 0.06446 0.87317 0.05337 0.0
C2555 C 0.07425 0.89259 0.06193 0.0
C2556 C 0.08658 0.89541 0.07789 0.0
H2557 H 0.05101 0.00563 0.06599 0.0
H2558 H 0.05558 0.97412 0.07063 0.0
C2559 C 0.08814 0.87928 0.08586 0.0
C2560 C 0.0699 0.90985 0.05549 0.0
H2561 H 0.08577 0.94738 0.03305 0.0
C2562 C 0.05339 0.91409 0.05905 0.0
C2563 C 0.08149 0.92173 0.04554 0.0
C2564 C 0.09897 0.91724 0.04057 0.0
C2565 C 0.04843 0.93015 0.05355 0.0
C2566 C 0.06034 0.94263 0.04434 0.0
C2567 C 0.07661 0.93796 0.04014 0.0
C2568 C 0.05677 0.96151 0.04073 0.0
C2569 C 0.0304 0.9336 0.05768 0.0
C2570 C 0.05598 0.96527 0.02227 0.0
C2571 C 0.05335 0.98359 0.01954 0.0
C2572 C 0.05159 0.99847 0.03527 0.0
C2573 C 0.05216 0.99445 0.05355 0.0
C2574 C 0.05473 0.97634 0.05624 0.0
H2575 H 0.0209 0.91967 0.05887 0.0
H2576 H 0.03173 0.9446 0.07152 0.0
H2577 H 0.02471 0.93953 0.0464 0.0
H2578 H 0.05756 0.95413 0.01003 0.0
H2579 H 0.05322 0.98632 0.00532 0.0
H2580 H 0.98203 0.28887 0.87258 0.0
H2581 H 0.95504 0.29117 0.85546 0.0
H2582 H 0.92315 0.25364 0.88723 0.0
H2583 H 0.95031 0.25134 0.90463 0.0
H2584 H 0.92925 0.25937 0.8322 0.0
H2585 H 0.89888 0.29992 0.89152 0.0
H2586 H 0.92187 0.29883 0.89371 0.0
H2587 H 0.90449 0.27769 0.89509 0.0
C2588 C 0.96931 0.28126 0.87616 0.0
C2589 C 0.96843 0.26993 0.89008 0.0
C2590 C 0.95382 0.28256 0.86626 0.0
C2591 C 0.93696 0.27271 0.87004 0.0
C2592 C 0.93595 0.26166 0.8842 0.0
H2593 H 0.83065 0.27217 0.82171 0.0
H2594 H 0.85573 0.26729 0.84044 0.0
C2595 C 0.95152 0.26032 0.89414 0.0
C2596 C 0.92067 0.27342 0.85845 0.0
H2597 H 0.88266 0.29002 0.86114 0.0
C2598 C 0.91904 0.26604 0.83854 0.0
C2599 C 0.90718 0.28189 0.86665 0.0
C2600 C 0.90815 0.29019 0.88789 0.0
C2601 C 0.90438 0.2668 0.82666 0.0
C2602 C 0.89115 0.27598 0.83473 0.0
C2603 C 0.8927 0.28309 0.85474 0.0
C2604 C 0.87571 0.27846 0.82281 0.0
C2605 C 0.90312 0.25718 0.80564 0.0
C2606 C 0.87829 0.2865 0.80659 0.0
C2607 C 0.86383 0.28869 0.79551 0.0
C2608 C 0.84646 0.28363 0.80077 0.0
C2609 C 0.84388 0.27617 0.81727 0.0
C2610 C 0.85827 0.27343 0.82803 0.0
H2611 H 0.91016 0.24503 0.80309 0.0
H2612 H 0.88909 0.25088 0.79941 0.0
H2613 H 0.9096 0.26845 0.79795 0.0
H2614 H 0.89154 0.29139 0.80256 0.0
H2615 H 0.8663 0.29491 0.78313 0.0
H2616 H 0.59557 0.269 0.58987 0.0
H2617 H 0.59768 0.23495 0.57615 0.0
H2618 H 0.54056 0.21617 0.56438 0.0
H2619 H 0.53851 0.25013 0.5769 0.0
H2620 H 0.58801 0.20323 0.58666 0.0
H2621 H 0.55162 0.18755 0.51561 0.0
H2622 H 0.55783 0.21232 0.53077 0.0
H2623 H 0.53744 0.195 0.53315 0.0
C2624 C 0.5835 0.25766 0.58401 0.0
C2625 C 0.56689 0.26242 0.58439 0.0
C2626 C 0.5847 0.23813 0.57618 0.0
C2627 C 0.56932 0.2228 0.56875 0.0
C2628 C 0.55275 0.22763 0.56922 0.0
H2629 H 0.55308 0.10093 0.57291 0.0
H2630 H 0.56027 0.13701 0.57855 0.0
C2631 C 0.55157 0.24717 0.57663 0.0
C2632 C 0.57035 0.20157 0.56204 0.0
H2633 H 0.55216 0.15856 0.52831 0.0
C2634 C 0.58041 0.19363 0.57368 0.0
C2635 C 0.56093 0.18883 0.54483 0.0
C2636 C 0.55155 0.19648 0.5303 0.0
C2637 C 0.58049 0.17334 0.56923 0.0
C2638 C 0.56951 0.16022 0.55316 0.0
C2639 C 0.5603 0.16835 0.54089 0.0
C2640 C 0.56636 0.13803 0.54967 0.0
C2641 C 0.59251 0.16633 0.58187 0.0
C2642 C 0.56668 0.12614 0.53133 0.0
C2643 C 0.56191 0.10525 0.52792 0.0
C2644 C 0.55712 0.09585 0.54288 0.0
C2645 C 0.55713 0.10774 0.56119 0.0
C2646 C 0.56145 0.12847 0.56448 0.0
H2647 H 0.60471 0.17827 0.58776 0.0
H2648 H 0.58548 0.16264 0.59417 0.0
H2649 H 0.59652 0.15301 0.57403 0.0
H2650 H 0.5702 0.13301 0.51953 0.0
H2651 H 0.56143 0.09653 0.51352 0.0
H2652 H 0.57067 0.79588 0.3987 0.0
H2653 H 0.59907 0.80335 0.38489 0.0
H2654 H 0.60147 0.74217 0.37766 0.0
H2655 H 0.57306 0.73452 0.391 0.0
H2656 H 0.63307 0.80015 0.39411 0.0
H2657 H 0.60548 0.7496 0.32383 0.0
H2658 H 0.59157 0.75646 0.3422 0.0
H2659 H 0.60301 0.73729 0.34319 0.0
C2660 C 0.57729 0.78404 0.39427 0.0
C2661 C 0.5694 0.76453 0.39577 0.0
C2662 C 0.59355 0.78834 0.38637 0.0
C2663 C 0.60227 0.77323 0.37978 0.0
C2664 C 0.59483 0.75399 0.38212 0.0
H2665 H 0.69543 0.76682 0.31686 0.0
H2666 H 0.67164 0.76075 0.33777 0.0
C2667 C 0.57857 0.74966 0.38989 0.0
C2668 C 0.61886 0.77738 0.37 0.0
H2669 H 0.63667 0.76304 0.32824 0.0
C2670 C 0.63383 0.79206 0.3797 0.0
C2671 C 0.61993 0.76691 0.35113 0.0
C2672 C 0.6041 0.75183 0.33939 0.0
C2673 C 0.64984 0.79629 0.37117 0.0
C2674 C 0.65091 0.78569 0.35237 0.0
C2675 C 0.63597 0.77101 0.34272 0.0
C2676 C 0.66698 0.79021 0.34192 0.0
C2677 C 0.66557 0.81188 0.38246 0.0
C2678 C 0.67255 0.80887 0.33753 0.0
C2679 C 0.68608 0.81233 0.32556 0.0
C2680 C 0.69441 0.79721 0.31767 0.0
C2681 C 0.68942 0.77883 0.32282 0.0
C2682 C 0.67574 0.77531 0.33468 0.0
H2683 H 0.66431 0.81463 0.39806 0.0
H2684 H 0.67818 0.80742 0.3797 0.0
H2685 H 0.66636 0.82608 0.37807 0.0
H2686 H 0.66588 0.82053 0.34265 0.0
H2687 H 0.68965 0.82668 0.32195 0.0
H2688 H 0.10196 0.2583 0.40024 0.0
H2689 H 0.1028 0.23529 0.42104 0.0
H2690 H 0.06904 0.26315 0.45782 0.0
H2691 H 0.06796 0.28603 0.43715 0.0
H2692 H 0.10286 0.24751 0.47368 0.0
H2693 H 0.04796 0.1964 0.421 0.0
H2694 H 0.06726 0.21098 0.41311 0.0
H2695 H 0.05147 0.22303 0.42473 0.0
C2696 C 0.0952 0.25993 0.4131 0.0
C2697 C 0.08463 0.27367 0.41696 0.0
C2698 C 0.0957 0.2468 0.42489 0.0
C2699 C 0.08586 0.24757 0.44073 0.0
C2700 C 0.07669 0.26245 0.44558 0.0
H2701 H 0.0297 0.17594 0.50807 0.0
H2702 H 0.04112 0.19831 0.48744 0.0
C2703 C 0.07603 0.27541 0.43375 0.0
C2704 C 0.08277 0.23131 0.45065 0.0
H2705 H 0.05295 0.18762 0.45007 0.0
C2706 C 0.09223 0.23418 0.46844 0.0
C2707 C 0.06874 0.21418 0.44365 0.0
C2708 C 0.05819 0.21079 0.42457 0.0
C2709 C 0.08751 0.22054 0.4799 0.0
C2710 C 0.07303 0.20376 0.47321 0.0
C2711 C 0.06402 0.20056 0.45507 0.0
C2712 C 0.06625 0.1901 0.48539 0.0
C2713 C 0.09743 0.22464 0.49943 0.0
C2714 C 0.07662 0.17812 0.49083 0.0
C2715 C 0.07024 0.16557 0.50273 0.0
C2716 C 0.05332 0.1647 0.50923 0.0
C2717 C 0.0429 0.1766 0.50356 0.0
C2718 C 0.04931 0.18918 0.49167 0.0
H2719 H 0.10617 0.23996 0.50372 0.0
H2720 H 0.08798 0.22258 0.51036 0.0
H2721 H 0.10586 0.21396 0.49932 0.0
H2722 H 0.08962 0.17849 0.48586 0.0
H2723 H 0.07859 0.1566 0.50693 0.0
H2724 H 0.559 0.29575 0.22166 0.0
H2725 H 0.58631 0.28619 0.22916 0.0
H2726 H 0.58098 0.24915 0.17218 0.0
H2727 H 0.55394 0.25912 0.16437 0.0
H2728 H 0.58976 0.24884 0.2289 0.0
H2729 H 0.63223 0.28097 0.17772 0.0
H2730 H 0.61149 0.28724 0.18306 0.0
H2731 H 0.61149 0.26394 0.1672 0.0
C2732 C 0.56379 0.28579 0.21065 0.0
C2733 C 0.55448 0.27834 0.19239 0.0
C2734 C 0.57933 0.2803 0.21497 0.0
C2735 C 0.58575 0.26717 0.20114 0.0
C2736 C 0.57648 0.25967 0.18289 0.0
H2737 H 0.66852 0.21148 0.23393 0.0
H2738 H 0.64122 0.21602 0.21898 0.0
C2739 C 0.56103 0.26536 0.17848 0.0
C2740 C 0.60181 0.26088 0.20626 0.0
H2741 H 0.64469 0.26297 0.19649 0.0
C2742 C 0.60174 0.2518 0.22175 0.0
C2743 C 0.61737 0.26479 0.19683 0.0
C2744 C 0.61828 0.27491 0.18038 0.0
C2745 C 0.617 0.24701 0.22844 0.0
C2746 C 0.63259 0.25113 0.21918 0.0
C2747 C 0.63259 0.25975 0.2034 0.0
C2748 C 0.64941 0.24818 0.22683 0.0
C2749 C 0.61661 0.23834 0.24584 0.0
C2750 C 0.66299 0.26479 0.2359 0.0
C2751 C 0.67844 0.26228 0.24457 0.0
C2752 C 0.6806 0.24307 0.24419 0.0
C2753 C 0.66708 0.22643 0.23473 0.0
C2754 C 0.65158 0.22898 0.22608 0.0
H2755 H 0.6042 0.23858 0.25286 0.0
H2756 H 0.61759 0.22267 0.24159 0.0
H2757 H 0.62816 0.24672 0.25642 0.0
H2758 H 0.66142 0.27971 0.23667 0.0
H2759 H 0.68853 0.27539 0.25192 0.0
H2760 H 0.61011 0.85243 0.92067 0.0
H2761 H 0.61857 0.88688 0.94013 0.0
H2762 H 0.57963 0.90227 0.90539 0.0
H2763 H 0.57089 0.86792 0.88637 0.0
H2764 H 0.61563 0.93378 0.92119 0.0
H2765 H 0.57458 0.89843 0.97203 0.0
H2766 H 0.5925 0.88823 0.96282 0.0
H2767 H 0.57319 0.88612 0.94715 0.0
C2768 C 0.6038 0.86341 0.91694 0.0
C2769 C 0.58976 0.85778 0.90234 0.0
C2770 C 0.60868 0.88298 0.92793 0.0
C2771 C 0.59967 0.89694 0.92411 0.0
C2772 C 0.58675 0.89165 0.90842 0.0
H2773 H 0.55495 0.98936 0.96413 0.0
H2774 H 0.56821 0.96342 0.94715 0.0
C2775 C 0.58168 0.87209 0.8977 0.0
C2776 C 0.6008 0.91559 0.93828 0.0
H2777 H 0.58092 0.93309 0.97731 0.0
C2778 C 0.60851 0.93375 0.93379 0.0
C2779 C 0.59129 0.91531 0.95453 0.0
C2780 C 0.58232 0.89604 0.95952 0.0
C2781 C 0.60612 0.95169 0.94472 0.0
C2782 C 0.5957 0.95118 0.9602 0.0
C2783 C 0.58897 0.93323 0.9654 0.0
C2784 C 0.58946 0.9685 0.96952 0.0
C2785 C 0.61389 0.97098 0.93922 0.0
C2786 C 0.59719 0.97982 0.98758 0.0
C2787 C 0.58972 0.99468 0.99728 0.0
C2788 C 0.57422 0.9981 0.98916 0.0
C2789 C 0.56683 0.98704 0.97079 0.0
C2790 C 0.57441 0.9723 0.96105 0.0
H2791 H 0.62371 0.96933 0.92863 0.0
H2792 H 0.60303 0.97618 0.93295 0.0
H2793 H 0.62044 0.98262 0.9521 0.0
H2794 H 0.60876 0.97689 0.99428 0.0
H2795 H 0.59596 1.00328 0.01124 0.0
H2796 H 0.96776 0.74139 0.71154 0.0
H2797 H 0.94044 0.7334 0.72715 0.0
H2798 H 0.91676 0.76819 0.69595 0.0
H2799 H 0.9434 0.7757 0.68021 0.0
H2800 H 0.92987 0.76216 0.7504 0.0
H2801 H 0.87446 0.72411 0.69521 0.0
H2802 H 0.89722 0.72401 0.69094 0.0
H2803 H 0.88792 0.74404 0.68689 0.0
C2804 C 0.95647 0.74678 0.70765 0.0
C2805 C 0.95768 0.75924 0.69477 0.0
C2806 C 0.9409 0.74212 0.71647 0.0
C2807 C 0.92647 0.74984 0.71241 0.0
C2808 C 0.92744 0.7614 0.69878 0.0
H2809 H 0.85476 0.80975 0.73562 0.0
H2810 H 0.88007 0.79503 0.73006 0.0
C2811 C 0.94282 0.7659 0.68992 0.0
C2812 C 0.91185 0.7496 0.72468 0.0
H2813 H 0.86875 0.75197 0.72029 0.0
C2814 C 0.91629 0.75923 0.7441 0.0
C2815 C 0.89409 0.74527 0.71657 0.0
C2816 C 0.88819 0.73358 0.69628 0.0
C2817 C 0.90408 0.76762 0.75464 0.0
C2818 C 0.88728 0.76609 0.74536 0.0
C2819 C 0.88198 0.75371 0.72704 0.0
C2820 C 0.87598 0.77935 0.7528 0.0
C2821 C 0.90971 0.7796 0.77487 0.0
C2822 C 0.86637 0.77654 0.76831 0.0
C2823 C 0.85245 0.78568 0.772 0.0
C2824 C 0.8478 0.79725 0.75989 0.0
C2825 C 0.8584 0.80135 0.7454 0.0
C2826 C 0.87265 0.79272 0.7421 0.0
H2827 H 0.9236 0.77995 0.7797 0.0
H2828 H 0.90854 0.7951 0.77609 0.0
H2829 H 0.90077 0.77304 0.78464 0.0
H2830 H 0.86857 0.76601 0.77647 0.0
H2831 H 0.84412 0.78173 0.78287 0.0
H2832 H 0.15858 0.00954 0.83603 0.0
H2833 H 0.14445 0.01151 0.86604 0.0
H2834 H 0.09945 0.0247 0.83914 0.0
H2835 H 0.11353 0.0228 0.8092 0.0
H2836 H 0.13344 0.04146 0.89055 0.0
H2837 H 0.0737 0.98022 0.86228 0.0
H2838 H 0.0929 0.98452 0.84914 0.0
H2839 H 0.07715 0.99956 0.84939 0.0
C2840 C 0.14571 0.01299 0.83643 0.0
C2841 C 0.13743 0.01609 0.8198 0.0
C2842 C 0.13752 0.01408 0.85379 0.0
C2843 C 0.12049 0.01793 0.8553 0.0
C2844 C 0.11231 0.02125 0.83873 0.0
H2845 H 0.04566 0.02333 0.94598 0.0
H2846 H 0.06008 0.02098 0.91632 0.0
C2847 C 0.12056 0.02036 0.82145 0.0
C2848 C 0.11157 0.01884 0.87407 0.0
H2849 H 0.07377 0.9991 0.89365 0.0
C2850 C 0.12041 0.03209 0.89114 0.0
C2851 C 0.09439 0.00691 0.87539 0.0
C2852 C 0.084 0.99186 0.85815 0.0
C2853 C 0.11264 0.03416 0.90885 0.0
C2854 C 0.09553 0.02196 0.91034 0.0
C2855 C 0.08676 0.00861 0.89319 0.0
C2856 C 0.08643 0.02298 0.92916 0.0
C2857 C 0.12277 0.05029 0.92551 0.0
C2858 C 0.09575 0.02447 0.94703 0.0
C2859 C 0.08746 0.02635 0.96431 0.0
C2860 C 0.06918 0.02589 0.96458 0.0
C2861 C 0.05963 0.02348 0.94668 0.0
C2862 C 0.06804 0.02219 0.92946 0.0
H2863 H 0.13181 0.06241 0.92059 0.0
H2864 H 0.11368 0.05694 0.9348 0.0
H2865 H 0.13116 0.0439 0.93407 0.0
H2866 H 0.1096 0.02413 0.9478 0.0
H2867 H 0.09543 0.028 0.97758 0.0
H2868 H 0.83822 0.38284 0.55405 0.0
H2869 H 0.83498 0.3673 0.58117 0.0
H2870 H 0.78923 0.39046 0.59465 0.0
H2871 H 0.79234 0.4061 0.56749 0.0
H2872 H 0.82093 0.40402 0.62339 0.0
H2873 H 0.7987 0.32179 0.59744 0.0
H2874 H 0.81543 0.33416 0.5847 0.0
H2875 H 0.79364 0.33872 0.58371 0.0
C2876 C 0.82703 0.38394 0.56231 0.0
C2877 C 0.81572 0.39595 0.55892 0.0
C2878 C 0.8252 0.37506 0.57778 0.0
C2879 C 0.81198 0.37798 0.58988 0.0
C2880 C 0.79952 0.38817 0.58538 0.0
H2881 H 0.81348 0.32291 0.68434 0.0
H2882 H 0.80145 0.34044 0.6636 0.0
C2883 C 0.80125 0.39693 0.56978 0.0
C2884 C 0.81303 0.37306 0.6086 0.0
H2885 H 0.81293 0.33428 0.62913 0.0
C2886 C 0.81877 0.38877 0.62484 0.0
C2887 C 0.81035 0.35322 0.61022 0.0
C2888 C 0.80406 0.33595 0.59312 0.0
C2889 C 0.82262 0.3851 0.64273 0.0
C2890 C 0.82067 0.36521 0.6442 0.0
C2891 C 0.81422 0.34953 0.62803 0.0
C2892 C 0.82681 0.35999 0.66163 0.0
C2893 C 0.82917 0.40249 0.65967 0.0
C2894 C 0.84489 0.3662 0.66848 0.0
C2895 C 0.85181 0.35657 0.68088 0.0
C2896 C 0.84084 0.34017 0.68609 0.0
C2897 C 0.82241 0.33543 0.68074 0.0
C2898 C 0.81546 0.34539 0.66874 0.0
H2899 H 0.82422 0.41554 0.65789 0.0
H2900 H 0.825 0.39856 0.67317 0.0
H2901 H 0.84392 0.407 0.66091 0.0
H2902 H 0.85394 0.3773 0.66303 0.0
H2903 H 0.86596 0.36105 0.68525 0.0
H2904 H 0.45421 0.08355 0.36237 0.0
H2905 H 0.46869 0.07345 0.38804 0.0
H2906 H 0.4614 0.01442 0.3521 0.0
H2907 H 0.44774 0.02497 0.32589 0.0
H2908 H 0.45801 0.04397 0.40715 0.0
H2909 H 0.51467 0.03199 0.3648 0.0
H2910 H 0.49819 0.04339 0.35669 0.0
H2911 H 0.49275 0.01711 0.35547 0.0
C2912 C 0.45586 0.06849 0.35999 0.0
C2913 C 0.45052 0.05514 0.34225 0.0
C2914 C 0.46387 0.06266 0.37462 0.0
C2915 C 0.46624 0.04329 0.37175 0.0
C2916 C 0.46001 0.02955 0.3543 0.0
H2917 H 0.53621 0.02148 0.45795 0.0
H2918 H 0.51799 0.01631 0.42783 0.0
C2919 C 0.45239 0.03557 0.33943 0.0
C2920 C 0.47674 0.03859 0.38668 0.0
H2921 H 0.51885 0.03529 0.39769 0.0
C2922 C 0.47118 0.04162 0.40508 0.0
C2923 C 0.49379 0.03533 0.38372 0.0
C2924 C 0.50032 0.03184 0.36415 0.0
C2925 C 0.48286 0.04321 0.42093 0.0
C2926 C 0.50042 0.04181 0.41804 0.0
C2927 C 0.50543 0.03684 0.39959 0.0
C2928 C 0.51391 0.04609 0.43411 0.0
C2929 C 0.47656 0.04717 0.4406 0.0
C2930 C 0.51846 0.06496 0.44669 0.0
C2931 C 0.52887 0.06792 0.46378 0.0
C2932 C 0.53486 0.05208 0.46796 0.0
C2933 C 0.53179 0.03387 0.45457 0.0
C2934 C 0.52132 0.03087 0.43758 0.0
H2935 H 0.46185 0.0421 0.43998 0.0
H2936 H 0.48268 0.03965 0.45018 0.0
H2937 H 0.48039 0.06343 0.44698 0.0
H2938 H 0.51304 0.07693 0.44384 0.0
H2939 H 0.53101 0.08192 0.47428 0.0
H2940 H 0.7786 0.72497 0.05452 0.0
H2941 H 0.77348 0.73865 0.08746 0.0
H2942 H 0.82954 0.74988 0.10483 0.0
H2943 H 0.83481 0.73752 0.0719 0.0
H2944 H 0.77585 0.72705 0.1173 0.0
H2945 H 0.82305 0.80058 0.13342 0.0
H2946 H 0.81812 0.78521 0.10946 0.0
H2947 H 0.83504 0.78206 0.12578 0.0
C2948 C 0.78986 0.73072 0.06533 0.0
C2949 C 0.80713 0.73032 0.0605 0.0
C2950 C 0.78694 0.73853 0.08422 0.0
C2951 C 0.80115 0.74583 0.0988 0.0
C2952 C 0.81838 0.74522 0.09393 0.0
H2953 H 0.7953 0.73829 0.21452 0.0
H2954 H 0.79387 0.73379 0.18008 0.0
C2955 C 0.82136 0.7379 0.07501 0.0
C2956 C 0.79787 0.75251 0.11926 0.0
H2957 H 0.81508 0.78685 0.16094 0.0
C2958 C 0.78426 0.74037 0.12669 0.0
C2959 C 0.80837 0.77018 0.1317 0.0
C2960 C 0.82179 0.78533 0.12457 0.0
C2961 C 0.78153 0.74473 0.14615 0.0
C2962 C 0.79332 0.76115 0.15894 0.0
C2963 C 0.80624 0.77398 0.15137 0.0
C2964 C 0.79341 0.76422 0.18019 0.0
C2965 C 0.76592 0.7316 0.15267 0.0
C2966 C 0.79448 0.7831 0.19216 0.0
C2967 C 0.79598 0.78587 0.21217 0.0
C2968 C 0.79604 0.76971 0.22051 0.0
C2969 C 0.79485 0.75093 0.20851 0.0
C2970 C 0.79382 0.74828 0.18871 0.0
H2971 H 0.75464 0.72599 0.14125 0.0
H2972 H 0.76986 0.71842 0.15573 0.0
H2973 H 0.76122 0.73959 0.16569 0.0
H2974 H 0.79446 0.79576 0.18605 0.0
H2975 H 0.79747 0.80065 0.22108 0.0
H2976 H 0.15267 0.02614 0.70181 0.0
H2977 H 0.14075 0.03308 0.67225 0.0
H2978 H 0.08973 0.99518 0.67604 0.0
H2979 H 0.10129 0.9887 0.70541 0.0
H2980 H 0.12679 0.01218 0.63686 0.0
H2981 H 0.07184 0.04096 0.66846 0.0
H2982 H 0.08911 0.03611 0.68298 0.0
H2983 H 0.07077 0.01606 0.67061 0.0
C2984 C 0.13893 0.01921 0.69636 0.0
C2985 C 0.1281 0.00689 0.70654 0.0
C2986 C 0.13199 0.02327 0.6793 0.0
C2987 C 0.11392 0.01529 0.67168 0.0
C2988 C 0.10341 1.0024 0.68151 0.0
H2989 H 0.0451 0.02349 0.57083 0.0
H2990 H 0.0566 0.01776 0.60115 0.0
C2991 C 0.11024 0.99848 0.69848 0.0
C2992 C 0.10614 0.01991 0.65348 0.0
H2993 H 0.07119 0.03494 0.63468 0.0
C2994 C 0.1147 0.01732 0.63659 0.0
C2995 C 0.09007 0.02636 0.65235 0.0
C2996 C 0.07999 0.03022 0.6696 0.0
C2997 C 0.10777 0.02043 0.61907 0.0
C2998 C 0.0919 0.02733 0.61801 0.0
C2999 C 0.08329 0.02983 0.63492 0.0
C3000 C 0.08424 0.03206 0.59976 0.0
C3001 C 0.11732 0.01524 0.60164 0.0
C3002 C 0.09531 0.04283 0.58857 0.0
C3003 C 0.08873 0.04567 0.57098 0.0
C3004 C 0.07053 0.03906 0.56406 0.0
C3005 C 0.0591 0.02937 0.5757 0.0
C3006 C 0.06582 0.02593 0.59315 0.0
H3007 H 0.12453 0.00368 0.60287 0.0
H3008 H 0.10799 0.00965 0.5884 0.0
H3009 H 0.12738 0.02867 0.6003 0.0
H3010 H 0.10931 0.04886 0.59321 0.0
H3011 H 0.09812 0.05295 0.56251 0.0
H3012 H 0.85991 0.40708 0.47854 0.0
H3013 H 0.85571 0.38543 0.44649 0.0
H3014 H 0.80319 0.39451 0.43794 0.0
H3015 H 0.80721 0.41627 0.4699 0.0
H3016 H 0.82786 0.3499 0.43464 0.0
H3017 H 0.8261 0.40324 0.38872 0.0
H3018 H 0.83544 0.41111 0.4134 0.0
H3019 H 0.81175 0.40463 0.40758 0.0
C3020 C 0.84753 0.4047 0.46979 0.0
C3021 C 0.83384 0.41331 0.47686 0.0
C3022 C 0.84518 0.39232 0.4515 0.0
C3023 C 0.82919 0.38849 0.43992 0.0
C3024 C 0.81572 0.39752 0.44663 0.0
H3025 H 0.78076 0.30622 0.33469 0.0
H3026 H 0.78668 0.32527 0.36793 0.0
C3027 C 0.81802 0.40988 0.46493 0.0
C3028 C 0.82611 0.37395 0.42136 0.0
H3029 H 0.81721 0.36882 0.37349 0.0
C3030 C 0.82564 0.35402 0.42124 0.0
C3031 C 0.82323 0.37948 0.40399 0.0
C3032 C 0.82429 0.4008 0.40331 0.0
C3033 C 0.82204 0.33936 0.40412 0.0
C3034 C 0.8189 0.34488 0.38687 0.0
C3035 C 0.81952 0.36477 0.38692 0.0
C3036 C 0.81525 0.33032 0.36842 0.0
C3037 C 0.82143 0.31806 0.40441 0.0
C3038 C 0.8294 0.32652 0.3581 0.0
C3039 C 0.82606 0.31565 0.33918 0.0
C3040 C 0.80853 0.30843 0.33043 0.0
C3041 C 0.79434 0.31122 0.34121 0.0
C3042 C 0.7977 0.32223 0.36011 0.0
H3043 H 0.82358 0.31606 0.41915 0.0
H3044 H 0.80835 0.30832 0.39763 0.0
H3045 H 0.83181 0.31309 0.39591 0.0
H3046 H 0.84302 0.33282 0.36438 0.0
H3047 H 0.83721 0.31368 0.33112 0.0
H3048 H 0.42314 0.06335 0.23804 0.0
H3049 H 0.43744 0.05887 0.20839 0.0
H3050 H 0.44232 1.00119 0.21449 0.0
H3051 H 0.42812 0.00546 0.24409 0.0
H3052 H 0.47531 0.03392 0.21641 0.0
H3053 H 0.42699 0.01999 0.1523 0.0
H3054 H 0.42533 0.03818 0.17345 0.0
H3055 H 0.42037 0.01235 0.17383 0.0
C3056 C 0.42668 0.04941 0.23272 0.0
C3057 C 0.42483 0.0349 0.24354 0.0
C3058 C 0.43478 0.04688 0.21577 0.0
C3059 C 0.44089 0.02974 0.20942 0.0
C3060 C 0.43758 0.01447 0.21924 0.0
H3061 H 0.51075 0.98968 0.13059 0.0
H3062 H 0.48719 0.99328 0.15171 0.0
C3063 C 0.42953 0.01698 0.23616 0.0
C3064 C 0.45356 0.02928 0.19493 0.0
H3065 H 0.45733 0.02297 0.14714 0.0
C3066 C 0.47141 0.03155 0.20126 0.0
C3067 C 0.44831 0.02645 0.17532 0.0
C3068 C 0.4292 0.02402 0.16815 0.0
C3069 C 0.48422 0.03067 0.18835 0.0
C3070 C 0.47894 0.02735 0.16871 0.0
C3071 C 0.46116 0.02547 0.16231 0.0
C3072 C 0.49187 0.02507 0.15473 0.0
C3073 C 0.50332 0.03307 0.19565 0.0
C3074 C 0.50212 0.04184 0.1497 0.0
C3075 C 0.51554 0.03984 0.13779 0.0
C3076 C 0.51892 0.02109 0.131 0.0
C3077 C 0.50854 0.00431 0.136 0.0
C3078 C 0.49501 0.00629 0.14777 0.0
H3079 H 0.50525 0.03572 0.21147 0.0
H3080 H 0.50772 0.0195 0.18925 0.0
H3081 H 0.51199 0.04577 0.1912 0.0
H3082 H 0.49991 0.05645 0.15522 0.0
H3083 H 0.52341 0.05294 0.134 0.0
H3084 H 0.83208 0.75806 0.97578 0.0
H3085 H 0.83368 0.77092 0.947 0.0
H3086 H 0.78413 0.72912 0.92246 0.0
H3087 H 0.7825 0.71584 0.95126 0.0
H3088 H 0.81272 0.72861 0.89886 0.0
H3089 H 0.80546 0.80546 0.92602 0.0
H3090 H 0.82164 0.79843 0.93997 0.0
H3091 H 0.79853 0.78594 0.93854 0.0
C3092 C 0.82125 0.75187 0.96449 0.0
C3093 C 0.80712 0.73591 0.96591 0.0
C3094 C 0.82221 0.7593 0.94802 0.0
C3095 C 0.80901 0.75105 0.93261 0.0
C3096 C 0.79445 0.73572 0.93423 0.0
H3097 H 0.79265 0.78972 0.82979 0.0
H3098 H 0.79169 0.78071 0.86062 0.0
C3099 C 0.79344 0.72829 0.95079 0.0
C3100 C 0.81112 0.75758 0.91441 0.0
H3101 H 0.81489 0.79803 0.89499 0.0
C3102 C 0.81315 0.74376 0.89799 0.0
C3103 C 0.81172 0.77737 0.91332 0.0
C3104 C 0.80908 0.79265 0.93034 0.0
C3105 C 0.81581 0.74925 0.88051 0.0
C3106 C 0.81665 0.76911 0.8795 0.0
C3107 C 0.81453 0.78289 0.89589 0.0
C3108 C 0.81801 0.77539 0.86115 0.0
C3109 C 0.8173 0.73369 0.86314 0.0
C3110 C 0.83331 0.77581 0.85134 0.0
C3111 C 0.83387 0.78104 0.8336 0.0
C3112 C 0.81905 0.78563 0.82548 0.0
C3113 C 0.80405 0.78574 0.83558 0.0
C3114 C 0.80354 0.78075 0.85325 0.0
H3115 H 0.81336 0.71839 0.86552 0.0
H3116 H 0.80885 0.73448 0.85061 0.0
H3117 H 0.83129 0.73651 0.8596 0.0
H3118 H 0.84472 0.77199 0.85735 0.0
H3119 H 0.84564 0.78109 0.82609 0.0
H3120 H 0.82708 0.12981 0.04708 0.0
H3121 H 0.85463 0.11849 0.04806 0.0
H3122 H 0.83322 0.07162 0.99784 0.0
H3123 H 0.80555 0.0824 0.99722 0.0
H3124 H 0.85117 0.06027 0.0277 0.0
H3125 H 0.8909 0.12821 0.00837 0.0
H3126 H 0.87743 0.13141 0.02793 0.0
H3127 H 0.86693 0.12074 0.00408 0.0
C3128 C 0.82818 0.11681 0.03658 0.0
C3129 C 0.81427 0.10678 0.0222 0.0
C3130 C 0.84391 0.11053 0.03702 0.0
C3131 C 0.84595 0.09448 0.02284 0.0
C3132 C 0.83178 0.08401 0.00893 0.0
H3133 H 0.92443 0.04483 0.96932 0.0
H3134 H 0.90181 0.06287 0.97944 0.0
C3135 C 0.81598 0.09004 0.00869 0.0
C3136 C 0.86293 0.0887 0.02193 0.0
H3137 H 0.90506 0.10252 0.00948 0.0
C3138 C 0.86307 0.06959 0.02404 0.0
C3139 C 0.87827 0.10098 0.01699 0.0
C3140 C 0.8785 0.12146 0.01409 0.0
C3141 C 0.87805 0.06209 0.02073 0.0
C3142 C 0.89324 0.07413 0.01533 0.0
C3143 C 0.89334 0.09349 0.01377 0.0
C3144 C 0.90844 0.06599 0.00963 0.0
C3145 C 0.87731 0.04102 0.02214 0.0
C3146 C 0.91974 0.06226 0.02337 0.0
C3147 C 0.93255 0.05192 0.01765 0.0
C3148 C 0.93413 0.04513 0.99811 0.0
C3149 C 0.92324 0.04961 0.98443 0.0
C3150 C 0.9105 0.06006 0.99018 0.0
H3151 H 0.86381 0.03294 0.02441 0.0
H3152 H 0.88142 0.03264 0.00893 0.0
H3153 H 0.88674 0.04126 0.0343 0.0
H3154 H 0.91823 0.06675 0.03844 0.0
H3155 H 0.94078 0.04862 0.02847 0.0
H3156 H 0.3436 0.45581 0.0303 0.0
H3157 H 0.37443 0.47463 0.03035 0.0
H3158 H 0.39336 0.42485 0.04028 0.0
H3159 H 0.36279 0.40607 0.0404 0.0
H3160 H 0.40879 0.46982 0.06646 0.0
H3161 H 0.41048 0.45658 0.98748 0.0
H3162 H 0.3908 0.46117 0.9981 0.0
H3163 H 0.39685 0.43833 0.99818 0.0
C3164 C 0.35432 0.44878 0.03226 0.0
C3165 C 0.35069 0.42937 0.03528 0.0
C3166 C 0.3719 0.45959 0.03239 0.0
C3167 C 0.38611 0.45112 0.03538 0.0
C3168 C 0.38255 0.43168 0.03808 0.0
H3169 H 0.49721 0.48087 0.01909 0.0
H3170 H 0.4664 0.46505 0.02192 0.0
C3171 C 0.36503 0.42093 0.03807 0.0
C3172 C 0.40477 0.46244 0.03575 0.0
H3173 H 0.43688 0.47478 0.00666 0.0
C3174 C 0.41496 0.47107 0.05343 0.0
C3175 C 0.41271 0.46386 0.01872 0.0
C3176 C 0.40227 0.45452 0.99945 0.0
C3177 C 0.43303 0.48097 0.0545 0.0
C3178 C 0.44105 0.48233 0.03741 0.0
C3179 C 0.43074 0.47377 0.01975 0.0
C3180 C 0.46022 0.49194 0.03739 0.0
C3181 C 0.44351 0.4894 0.07385 0.0
C3182 C 0.4672 0.51232 0.04552 0.0
C3183 C 0.48494 0.52149 0.04396 0.0
C3184 C 0.49603 0.51056 0.03402 0.0
C3185 C 0.48914 0.48994 0.02668 0.0
C3186 C 0.47145 0.48081 0.02823 0.0
H3187 H 0.43663 0.48311 0.08516 0.0
H3188 H 0.45693 0.48644 0.07366 0.0
H3189 H 0.4452 0.50577 0.07771 0.0
H3190 H 0.45878 0.52128 0.05255 0.0
H3191 H 0.48973 0.53722 0.05007 0.0
H3192 H 0.39178 0.62996 0.81222 0.0
H3193 H 0.37676 0.65592 0.80928 0.0
H3194 H 0.38317 0.64551 0.74922 0.0
H3195 H 0.39855 0.61929 0.75213 0.0
H3196 H 0.38658 0.69147 0.8 0.0
H3197 H 0.33089 0.64574 0.7467 0.0
H3198 H 0.34535 0.63482 0.75902 0.0
H3199 H 0.35254 0.6452 0.73919 0.0
C3200 C 0.39001 0.6329 0.79821 0.0
C3201 C 0.39654 0.62186 0.78241 0.0
C3202 C 0.3813 0.64809 0.79657 0.0
C3203 C 0.37823 0.65305 0.77896 0.0
C3204 C 0.38477 0.64214 0.76305 0.0
H3205 H 0.32616 0.74486 0.74755 0.0
H3206 H 0.34015 0.71693 0.74721 0.0
C3207 C 0.39379 0.627 0.76474 0.0
C3208 C 0.36866 0.66976 0.77774 0.0
H3209 H 0.33278 0.68032 0.7554 0.0
C3210 C 0.3748 0.68883 0.79019 0.0
C3211 C 0.35314 0.66705 0.76508 0.0
C3212 C 0.34492 0.64708 0.75183 0.0
C3213 C 0.36639 0.70477 0.79016 0.0
C3214 C 0.3507 0.702 0.7777 0.0
C3215 C 0.34463 0.68297 0.76511 0.0
C3216 C 0.34062 0.71851 0.77759 0.0
C3217 C 0.3749 0.72476 0.80325 0.0
C3218 C 0.33528 0.72897 0.79452 0.0
C3219 C 0.32699 0.74491 0.79464 0.0
C3220 C 0.32315 0.751 0.7778 0.0
C3221 C 0.32818 0.74039 0.76078 0.0
C3222 C 0.33644 0.72435 0.76064 0.0
H3223 H 0.38928 0.7264 0.80708 0.0
H3224 H 0.37348 0.73712 0.79659 0.0
H3225 H 0.36838 0.72622 0.8167 0.0
H3226 H 0.33771 0.72499 0.80791 0.0
H3227 H 0.32385 0.75282 0.80817 0.0
H3228 H 0.23695 0.63403 0.52977 0.0
H3229 H 0.215 0.62392 0.55124 0.0
H3230 H 0.19475 0.56756 0.51085 0.0
H3231 H 0.2166 0.57766 0.48952 0.0
H3232 H 0.18302 0.61927 0.52866 0.0
H3233 H 0.17818 0.55463 0.56131 0.0
H3234 H 0.19923 0.56967 0.55718 0.0
H3235 H 0.18562 0.55099 0.53787 0.0
C3236 C 0.22872 0.61894 0.52618 0.0
C3237 C 0.22827 0.60664 0.50802 0.0
C3238 C 0.21612 0.61317 0.53845 0.0
C3239 C 0.20312 0.59507 0.53256 0.0
C3240 C 0.20474 0.58148 0.51583 0.0
H3241 H 0.09517 0.54282 0.51483 0.0
H3242 H 0.12717 0.55171 0.52193 0.0
C3243 C 0.21719 0.58731 0.50354 0.0
C3244 C 0.1852 0.59361 0.53909 0.0
H3245 H 0.15043 0.56154 0.55187 0.0
C3246 C 0.17598 0.60702 0.53435 0.0
C3247 C 0.17602 0.57729 0.54591 0.0
C3248 C 0.18531 0.56239 0.55101 0.0
C3249 C 0.15755 0.6037 0.53469 0.0
C3250 C 0.14818 0.58709 0.54111 0.0
C3251 C 0.15763 0.57438 0.54712 0.0
C3252 C 0.12848 0.58117 0.53914 0.0
C3253 C 0.14824 0.61698 0.52639 0.0
C3254 C 0.11841 0.59467 0.54653 0.0
C3255 C 0.09995 0.58963 0.5421 0.0
C3256 C 0.09127 0.57062 0.53127 0.0
C3257 C 0.10132 0.55707 0.5242 0.0
C3258 C 0.11972 0.56225 0.52816 0.0
H3259 H 0.15689 0.62571 0.51776 0.0
H3260 H 0.13598 0.60813 0.51711 0.0
H3261 H 0.14453 0.62772 0.53817 0.0
H3262 H 0.12483 0.60923 0.55536 0.0
H3263 H 0.09243 0.60041 0.54739 0.0
H3264 H 0.7387 0.00489 0.71415 0.0
H3265 H 0.75563 0.98279 0.72396 0.0
H3266 H 0.71631 0.96682 0.76209 0.0
H3267 H 0.69918 0.98808 0.7517 0.0
H3268 H 0.76838 0.99337 0.76116 0.0
H3269 H 0.72918 0.91479 0.74379 0.0
H3270 H 0.72419 0.93302 0.73173 0.0
H3271 H 0.71678 0.9318 0.75484 0.0
C3272 C 0.73343 0.99589 0.72395 0.0
C3273 C 0.71785 0.9978 0.73223 0.0
C3274 C 0.74299 0.98335 0.72951 0.0
C3275 C 0.73702 0.97306 0.74352 0.0
C3276 C 0.7208 0.97413 0.75083 0.0
H3277 H 0.78858 0.93148 0.82961 0.0
H3278 H 0.7694 0.94672 0.81251 0.0
C3279 C 0.71116 0.98637 0.74507 0.0
C3280 C 0.74928 0.96485 0.75346 0.0
H3281 H 0.75293 0.92403 0.76939 0.0
C3282 C 0.76517 0.9781 0.76267 0.0
C3283 C 0.74469 0.94512 0.75574 0.0
C3284 C 0.72784 0.93033 0.74586 0.0
C3285 C 0.77664 0.97213 0.77433 0.0
C3286 C 0.77203 0.95251 0.77669 0.0
C3287 C 0.75618 0.93917 0.76752 0.0
C3288 C 0.78418 0.94527 0.78773 0.0
C3289 C 0.79351 0.9868 0.78427 0.0
C3290 C 0.7989 0.94018 0.77945 0.0
C3291 C 0.80984 0.9318 0.78916 0.0
C3292 C 0.80613 0.92852 0.80723 0.0
C3293 C 0.79186 0.93449 0.8159 0.0
C3294 C 0.78082 0.94281 0.8061 0.0
H3295 H 0.79397 1.0022 0.78293 0.0
H3296 H 0.7948 0.9867 0.79967 0.0
H3297 H 0.80513 0.98231 0.77794 0.0
H3298 H 0.80147 0.94198 0.76519 0.0
H3299 H 0.82054 0.92675 0.78214 0.0
H3300 H 0.74503 0.8997 0.51542 0.0
H3301 H 0.71919 0.91228 0.50812 0.0
H3302 H 0.73178 0.95602 0.56171 0.0
H3303 H 0.75752 0.94373 0.56908 0.0
H3304 H 0.68868 0.91809 0.52932 0.0
H3305 H 0.73237 0.98865 0.52018 0.0
H3306 H 0.74037 0.96672 0.52022 0.0
H3307 H 0.73737 0.98244 0.54237 0.0
C3308 C 0.74219 0.91187 0.52573 0.0
C3309 C 0.75347 0.92084 0.54274 0.0
C3310 C 0.72741 0.91901 0.52154 0.0
C3311 C 0.72375 0.93527 0.53426 0.0
C3312 C 0.73453 0.94365 0.55158 0.0
H3313 H 0.6484 0.00813 0.54037 0.0
H3314 H 0.66837 0.98773 0.54739 0.0
C3315 C 0.74924 0.93656 0.55577 0.0
C3316 C 0.70925 0.94424 0.52919 0.0
H3317 H 0.70168 0.98757 0.52142 0.0
C3318 C 0.69149 0.93322 0.52746 0.0
C3319 C 0.71298 0.96394 0.52662 0.0
C3320 C 0.7318 0.9761 0.52725 0.0
C3321 C 0.67736 0.94169 0.5238 0.0
C3322 C 0.68115 0.96155 0.52183 0.0
C3323 C 0.69887 0.9724 0.52319 0.0
C3324 C 0.66701 0.97145 0.51807 0.0
C3325 C 0.65844 0.9296 0.52233 0.0
C3326 C 0.6595 0.96877 0.49933 0.0
C3327 C 0.6483 0.98053 0.49528 0.0
C3328 C 0.64434 0.99502 0.50996 0.0
C3329 C 0.65113 0.99693 0.52886 0.0
C3330 C 0.66253 0.98535 0.53287 0.0
H3331 H 0.65764 0.91477 0.52542 0.0
H3332 H 0.65083 0.93777 0.53245 0.0
H3333 H 0.65198 0.92746 0.50769 0.0
H3334 H 0.66292 0.9582 0.48773 0.0
H3335 H 0.64317 0.97875 0.4806 0.0
H3336 H 0.41085 0.50727 0.75648 0.0
H3337 H 0.39622 0.47155 0.7513 0.0
H3338 H 0.36201 0.48521 0.79493 0.0
H3339 H 0.37635 0.52055 0.80009 0.0
H3340 H 0.39311 0.44588 0.7774 0.0
H3341 H 0.32593 0.44911 0.75153 0.0
H3342 H 0.34535 0.46917 0.75258 0.0
H3343 H 0.33476 0.46638 0.77386 0.0
C3344 C 0.40001 0.50275 0.76476 0.0
C3345 C 0.39481 0.51721 0.7786 0.0
C3346 C 0.39168 0.48216 0.76188 0.0
C3347 C 0.37768 0.4753 0.77252 0.0
C3348 C 0.37243 0.48976 0.78617 0.0
H3349 H 0.30529 0.36259 0.78072 0.0
H3350 H 0.32085 0.397 0.78187 0.0
C3351 C 0.38078 0.5102 0.78915 0.0
C3352 C 0.36881 0.45323 0.76988 0.0
H3353 H 0.32825 0.41919 0.75981 0.0
C3354 C 0.37894 0.44003 0.7734 0.0
C3355 C 0.35024 0.44526 0.76484 0.0
C3356 C 0.33842 0.45814 0.76031 0.0
C3357 C 0.37109 0.41965 0.77275 0.0
C3358 C 0.35243 0.41159 0.76766 0.0
C3359 C 0.34243 0.42484 0.7638 0.0
C3360 C 0.34287 0.38988 0.76675 0.0
C3361 C 0.38297 0.40738 0.77851 0.0
C3362 C 0.34948 0.37361 0.75769 0.0
C3363 C 0.34063 0.3537 0.75742 0.0
C3364 C 0.3244 0.34915 0.76545 0.0
C3365 C 0.31748 0.36528 0.77397 0.0
C3366 C 0.32656 0.38518 0.77471 0.0
H3367 H 0.39493 0.41689 0.78794 0.0
H3368 H 0.37586 0.39637 0.78614 0.0
H3369 H 0.38768 0.39934 0.76554 0.0
H3370 H 0.36149 0.37617 0.75062 0.0
H3371 H 0.3464 0.34178 0.75063 0.0
H3372 H 0.21901 0.57363 0.22907 0.0
H3373 H 0.23696 0.60683 0.2287 0.0
H3374 H 0.22086 0.63038 0.28377 0.0
H3375 H 0.20403 0.59694 0.28472 0.0
H3376 H 0.23082 0.6406 0.22877 0.0
H3377 H 0.27302 0.64997 0.29539 0.0
H3378 H 0.25775 0.62658 0.28397 0.0
H3379 H 0.25014 0.64561 0.29993 0.0
C3380 C 0.21938 0.58598 0.24105 0.0
C3381 C 0.21048 0.5829 0.25706 0.0
C3382 C 0.22961 0.60487 0.24086 0.0
C3383 C 0.23075 0.62095 0.25651 0.0
C3384 C 0.22084 0.61803 0.27194 0.0
H3385 H 0.25275 0.7441 0.26959 0.0
H3386 H 0.24159 0.70792 0.25952 0.0
C3387 C 0.21109 0.59904 0.2724 0.0
C3388 C 0.24212 0.64083 0.25673 0.0
H3389 H 0.27236 0.68016 0.28541 0.0
C3390 C 0.24 0.64921 0.24109 0.0
C3391 C 0.25476 0.6517 0.2724 0.0
C3392 C 0.2592 0.64287 0.28874 0.0
C3393 C 0.24922 0.66872 0.24133 0.0
C3394 C 0.26048 0.68022 0.25781 0.0
C3395 C 0.2635 0.6714 0.27288 0.0
C3396 C 0.26766 0.7019 0.26085 0.0
C3397 C 0.24763 0.67647 0.22362 0.0
C3398 C 0.28597 0.71046 0.26554 0.0
C3399 C 0.29228 0.7311 0.27173 0.0
C3400 C 0.28036 0.74331 0.27285 0.0
C3401 C 0.26212 0.73482 0.26823 0.0
C3402 C 0.25581 0.71425 0.26228 0.0
H3403 H 0.23765 0.66591 0.21233 0.0
H3404 H 0.24399 0.69094 0.22683 0.0
H3405 H 0.26075 0.67868 0.2179 0.0
H3406 H 0.29526 0.70113 0.265 0.0
H3407 H 0.30638 0.73746 0.27576 0.0
H3408 H 0.54327 0.73644 0.4574 0.0
H3409 H 0.55212 0.71126 0.4716 0.0
H3410 H 0.4971 0.68515 0.47656 0.0
H3411 H 0.48835 0.71098 0.4636 0.0
H3412 H 0.51524 0.68108 0.5052 0.0
H3413 H 0.54999 0.65733 0.44231 0.0
H3414 H 0.55987 0.68259 0.45461 0.0
H3415 H 0.53739 0.67575 0.44326 0.0
C3416 C 0.53307 0.72548 0.46173 0.0
C3417 C 0.51506 0.72572 0.45912 0.0
C3418 C 0.53814 0.71087 0.46969 0.0
C3419 C 0.52529 0.69565 0.47461 0.0
C3420 C 0.50738 0.69647 0.47282 0.0
H3421 H 0.53554 0.57742 0.4675 0.0
H3422 H 0.53261 0.60975 0.46443 0.0
C3423 C 0.50235 0.71133 0.46532 0.0
C3424 C 0.53024 0.67841 0.48077 0.0
H3425 H 0.5525 0.64205 0.46783 0.0
C3426 C 0.52332 0.67247 0.49694 0.0
C3427 C 0.54068 0.6669 0.47006 0.0
C3428 C 0.54725 0.67082 0.4515 0.0
C3429 C 0.52602 0.65521 0.50226 0.0
C3430 C 0.53669 0.64386 0.49165 0.0
C3431 C 0.54426 0.65045 0.47606 0.0
C3432 C 0.53855 0.62394 0.49461 0.0
C3433 C 0.51662 0.64894 0.51863 0.0
C3434 C 0.54277 0.62044 0.51269 0.0
C3435 C 0.54358 0.60123 0.51459 0.0
C3436 C 0.54118 0.58541 0.49834 0.0
C3437 C 0.53762 0.58921 0.48037 0.0
C3438 C 0.53606 0.60793 0.47857 0.0
H3439 H 0.50546 0.6561 0.52183 0.0
H3440 H 0.51125 0.63256 0.51549 0.0
H3441 H 0.52617 0.65354 0.53167 0.0
H3442 H 0.54536 0.63243 0.52537 0.0
H3443 H 0.54594 0.59875 0.5287 0.0
H3444 H 0.63837 0.35102 0.68623 0.0
H3445 H 0.66554 0.3456 0.7 0.0
H3446 H 0.66637 0.30082 0.64926 0.0
H3447 H 0.63916 0.3066 0.6351 0.0
H3448 H 0.67123 0.31345 0.70978 0.0
H3449 H 0.71754 0.33114 0.65611 0.0
H3450 H 0.69609 0.33688 0.65619 0.0
H3451 H 0.69782 0.31188 0.64657 0.0
C3452 C 0.64438 0.34016 0.67779 0.0
C3453 C 0.63644 0.32934 0.65942 0.0
C3454 C 0.66002 0.33702 0.68578 0.0
C3455 C 0.66838 0.3229 0.67578 0.0
C3456 C 0.66061 0.31216 0.65727 0.0
H3457 H 0.76466 0.28677 0.70924 0.0
H3458 H 0.73819 0.29079 0.69241 0.0
C3459 C 0.64493 0.31543 0.64914 0.0
C3460 C 0.68462 0.31909 0.6853 0.0
H3461 H 0.72845 0.31902 0.68116 0.0
C3462 C 0.68373 0.31472 0.70346 0.0
C3463 C 0.70105 0.32046 0.6772 0.0
C3464 C 0.70331 0.32551 0.65802 0.0
C3465 C 0.69851 0.31169 0.71359 0.0
C3466 C 0.71512 0.31362 0.70575 0.0
C3467 C 0.71593 0.31764 0.68742 0.0
C3468 C 0.73171 0.31149 0.71621 0.0
C3469 C 0.69588 0.30588 0.73242 0.0
C3470 C 0.73757 0.32212 0.73521 0.0
C3471 C 0.75262 0.31951 0.74508 0.0
C3472 C 0.76258 0.30644 0.73621 0.0
C3473 C 0.75729 0.29667 0.71685 0.0
C3474 C 0.74206 0.29903 0.70709 0.0
H3475 H 0.68174 0.29854 0.73319 0.0
H3476 H 0.70415 0.29561 0.73477 0.0
H3477 H 0.69963 0.31946 0.74421 0.0
H3478 H 0.73053 0.33255 0.74252 0.0
H3479 H 0.75645 0.32785 0.7597 0.0
H3480 H 0.03804 0.3259 0.94564 0.0
H3481 H 0.04522 0.36201 0.95791 0.0
H3482 H 0.99863 0.35635 0.98849 0.0
H3483 H 0.99127 0.32022 0.97632 0.0
H3484 H 0.01849 0.38301 0.94898 0.0
H3485 H 0.03874 0.39922 0.02696 0.0
H3486 H 0.04037 0.37653 0.01073 0.0
H3487 H 0.0191 0.37965 0.01752 0.0
C3488 C 0.02949 0.33222 0.95531 0.0
C3489 C 0.01394 0.32003 0.95978 0.0
C3490 C 0.03366 0.35292 0.96236 0.0
C3491 C 0.02253 0.36191 0.97422 0.0
C3492 C 0.00757 0.34975 0.97961 0.0
H3493 H 0.02452 0.48792 0.02001 0.0
H3494 H 0.01908 0.45173 0.0146 0.0
C3495 C 0.00333 0.32904 0.97251 0.0
C3496 C 0.02507 0.38391 0.97849 0.0
H3497 H 0.03539 0.42632 0.01419 0.0
C3498 C 0.02224 0.39254 0.96324 0.0
C3499 C 0.02948 0.3962 0.99714 0.0
C3500 C 0.03222 0.38755 0.01409 0.0
C3501 C 0.02337 0.413 0.96603 0.0
C3502 C 0.02868 0.42569 0.98459 0.0
C3503 C 0.03146 0.41693 0.99994 0.0
C3504 C 0.03159 0.44793 0.98817 0.0
C3505 C 0.01802 0.42032 0.94896 0.0
C3506 C 0.0407 0.45834 0.97561 0.0
C3507 C 0.04195 0.47861 0.97759 0.0
C3508 C 0.03553 0.48971 0.9932 0.0
C3509 C 0.02818 0.47978 0.007 0.0
C3510 C 0.02564 0.45903 0.00419 0.0
H3511 H 0.00805 0.40844 0.93869 0.0
H3512 H 0.01224 0.43333 0.95318 0.0
H3513 H 0.02983 0.42444 0.94122 0.0
H3514 H 0.04685 0.45082 0.96406 0.0
H3515 H 0.04855 0.48569 0.96706 0.0
H3516 H 0.04043 0.78755 0.16302 0.0
H3517 H 0.01184 0.78203 0.17679 0.0
H3518 H 0.9979 0.82763 0.15245 0.0
H3519 H 0.02574 0.8322 0.13778 0.0
H3520 H 0.99882 0.80442 0.20227 0.0
H3521 H 0.95267 0.78758 0.13666 0.0
H3522 H 0.9761 0.78916 0.13577 0.0
H3523 H 0.96801 0.81141 0.14014 0.0
C3524 C 0.03111 0.79613 0.16038 0.0
C3525 C 0.03527 0.81011 0.14909 0.0
C3526 C 0.01476 0.79303 0.16829 0.0
C3527 C 0.00233 0.80405 0.16536 0.0
C3528 C 0.00674 0.81829 0.15437 0.0
H3529 H 0.91239 0.81883 0.23245 0.0
H3530 H 0.93746 0.8247 0.2129 0.0
C3531 C 0.02282 0.82102 0.14609 0.0
C3532 C 0.98527 0.80141 0.1746 0.0
H3533 H 0.94006 0.79405 0.16631 0.0
C3534 C 0.98601 0.80205 0.19429 0.0
C3535 C 0.96837 0.79834 0.16436 0.0
C3536 C 0.9662 0.79638 0.14304 0.0
C3537 C 0.97057 0.79981 0.20392 0.0
C3538 C 0.95383 0.79704 0.19375 0.0
C3539 C 0.95295 0.79642 0.17413 0.0
C3540 C 0.93714 0.79357 0.20328 0.0
C3541 C 0.97211 0.80015 0.22494 0.0
C3542 C 0.92835 0.77413 0.20393 0.0
C3543 C 0.91417 0.77079 0.21511 0.0
C3544 C 0.90831 0.7868 0.22573 0.0
C3545 C 0.91645 0.80621 0.22421 0.0
C3546 C 0.93082 0.80957 0.21314 0.0
H3547 H 0.9861 0.80254 0.2309 0.0
H3548 H 0.96651 0.81218 0.23293 0.0
H3549 H 0.96421 0.78583 0.22728 0.0
H3550 H 0.93301 0.76158 0.19646 0.0
H3551 H 0.90821 0.7557 0.21611 0.0
H3552 H 0.47637 0.29706 0.09668 0.0
H3553 H 0.4851 0.32163 0.07758 0.0
H3554 H 0.53541 0.34519 0.11234 0.0
H3555 H 0.52705 0.32048 0.13118 0.0
H3556 H 0.49181 0.36158 0.0922 0.0
H3557 H 0.55062 0.34297 0.05936 0.0
H3558 H 0.53543 0.32585 0.06988 0.0
H3559 H 0.55265 0.34551 0.08473 0.0
C3560 C 0.48945 0.3072 0.1 0.0
C3561 C 0.50097 0.30694 0.11553 0.0
C3562 C 0.49438 0.32122 0.08909 0.0
C3563 C 0.51091 0.33512 0.0935 0.0
C3564 C 0.52274 0.33433 0.10846 0.0
H3565 H 0.56622 0.4431 0.06914 0.0
H3566 H 0.55167 0.41702 0.08459 0.0
C3567 C 0.51789 0.32024 0.11928 0.0
C3568 C 0.51513 0.35167 0.08379 0.0
H3569 H 0.54719 0.37599 0.06066 0.0
C3570 C 0.50377 0.3646 0.08502 0.0
C3571 C 0.53074 0.3555 0.07449 0.0
C3572 C 0.54296 0.3416 0.07186 0.0
C3573 C 0.50803 0.38177 0.07783 0.0
C3574 C 0.52396 0.38596 0.06923 0.0
C3575 C 0.53504 0.37274 0.06749 0.0
C3576 C 0.52988 0.40421 0.06229 0.0
C3577 C 0.49585 0.39568 0.08002 0.0
C3578 C 0.5219 0.4061 0.04514 0.0
C3579 C 0.53018 0.42105 0.03632 0.0
C3580 C 0.54655 0.43404 0.04455 0.0
C3581 C 0.55362 0.43316 0.06255 0.0
C3582 C 0.54536 0.41831 0.07133 0.0
H3583 H 0.48512 0.39155 0.08915 0.0
H3584 H 0.50357 0.4112 0.08633 0.0
H3585 H 0.48964 0.39533 0.06572 0.0
H3586 H 0.51001 0.3952 0.03793 0.0
H3587 H 0.5246 0.42139 0.02236 0.0
H3588 H 0.05862 0.34167 0.34739 0.0
H3589 H 0.03112 0.35307 0.34543 0.0
H3590 H 1.00022 0.29212 0.33416 0.0
H3591 H 0.02748 0.28095 0.33696 0.0
H3592 H 0.00567 0.34528 0.3171 0.0
H3593 H 0.97549 0.31711 0.37664 0.0
H3594 H 0.9986 0.31887 0.37296 0.0
H3595 H 0.98158 0.29751 0.36022 0.0
C3596 C 0.0459 0.3308 0.34416 0.0
C3597 C 0.04495 0.31047 0.34205 0.0
C3598 C 0.03027 0.33729 0.34333 0.0
C3599 C 0.01363 0.32348 0.34031 0.0
C3600 C 0.01286 0.3031 0.33729 0.0
H3601 H 0.91234 0.29822 0.29178 0.0
H3602 H 0.93898 0.30138 0.31291 0.0
C3603 C 0.02839 0.29668 0.33848 0.0
C3604 C 0.99696 0.32994 0.33898 0.0
H3605 H 0.9546 0.32044 0.3517 0.0
C3606 C 0.99463 0.34042 0.32505 0.0
C3607 C 0.98268 0.32375 0.34957 0.0
C3608 C 0.9848 0.31389 0.36583 0.0
C3609 C 0.9779 0.34312 0.32004 0.0
C3610 C 0.96323 0.33536 0.32947 0.0
C3611 C 0.96587 0.32629 0.34447 0.0
C3612 C 0.9449 0.33355 0.32162 0.0
C3613 C 0.97579 0.35281 0.30363 0.0
C3614 C 0.93894 0.35051 0.32045 0.0
C3615 C 0.92388 0.3487 0.30819 0.0
C3616 C 0.91454 0.3299 0.2974 0.0
C3617 C 0.91943 0.31282 0.30009 0.0
C3618 C 0.93456 0.31463 0.31217 0.0
H3619 H 0.98809 0.35568 0.29633 0.0
H3620 H 0.96477 0.34326 0.29291 0.0
H3621 H 0.97248 0.36726 0.30907 0.0
H3622 H 0.94667 0.36519 0.32786 0.0
H3623 H 0.92019 0.36201 0.30622 0.0
H3624 H 1.00159 0.73386 0.60817 0.0
H3625 H 0.00919 0.70307 0.59206 0.0
H3626 H 0.98212 0.6726 0.63222 0.0
H3627 H 0.97425 0.70332 0.64809 0.0
H3628 H 0.02921 0.68187 0.60987 0.0
H3629 H 0.96175 0.63537 0.57958 0.0
H3630 H 0.9666 0.66216 0.58725 0.0
H3631 H 0.96403 0.64721 0.60459 0.0
C3632 C 0.99703 0.72043 0.61325 0.0
C3633 C 0.98713 0.72058 0.62901 0.0
C3634 C 1.00141 0.70297 0.60416 0.0
C3635 C 0.99598 0.68558 0.61084 0.0
C3636 C 0.98605 0.68578 0.62664 0.0
H3637 H 0.01669 0.56818 0.57186 0.0
H3638 H 0.00731 0.5968 0.5906 0.0
C3639 C 0.98159 0.70322 0.63565 0.0
C3640 C 1.00145 0.6675 0.6018 0.0
H3641 H 0.98548 0.61964 0.57616 0.0
C3642 C 0.01967 0.66824 0.60252 0.0
C3643 C 0.98891 0.64979 0.59235 0.0
C3644 C 0.96922 0.64851 0.59071 0.0
C3645 C 0.02573 0.65167 0.59391 0.0
C3646 C 0.0132 0.63409 0.58418 0.0
C3647 C 0.99498 0.63319 0.58376 0.0
C3648 C 0.01884 0.61692 0.57325 0.0
C3649 C 0.04546 0.65309 0.59527 0.0
C3650 C 0.02823 0.6189 0.55736 0.0
C3651 C 0.03352 0.60275 0.54681 0.0
C3652 C 0.02927 0.58436 0.55182 0.0
C3653 C 0.01996 0.58231 0.56777 0.0
C3654 C 0.01461 0.59853 0.57838 0.0
H3655 H 0.05276 0.66531 0.60736 0.0
H3656 H 0.04825 0.6389 0.59706 0.0
H3657 H 0.05073 0.6562 0.58189 0.0
H3658 H 0.03149 0.63297 0.55315 0.0
H3659 H 0.04132 0.60483 0.53507 0.0
H3660 H 0.64459 0.79641 0.85005 0.0
H3661 H 0.673 0.80128 0.83652 0.0
H3662 H 0.66759 0.85752 0.82672 0.0
H3663 H 0.6389 0.85287 0.84033 0.0
H3664 H 0.67501 0.81623 0.79379 0.0
H3665 H 0.72053 0.85637 0.85948 0.0
H3666 H 0.70093 0.83806 0.86194 0.0
H3667 H 0.69864 0.8604 0.85538 0.0
C3668 C 0.64945 0.80993 0.84522 0.0
C3669 C 0.63946 0.82419 0.8461 0.0
C3670 C 0.66564 0.81264 0.83747 0.0
C3671 C 0.67211 0.82964 0.83058 0.0
C3672 C 0.66258 0.84427 0.83193 0.0
H3673 H 0.76736 0.82012 0.77114 0.0
H3674 H 0.73909 0.82882 0.77653 0.0
C3675 C 0.64629 0.84158 0.83971 0.0
C3676 C 0.68871 0.83131 0.82154 0.0
H3677 H 0.73293 0.83896 0.83375 0.0
C3678 C 0.68783 0.82165 0.80225 0.0
C3679 C 0.70518 0.83853 0.83279 0.0
C3680 C 0.70653 0.84905 0.85355 0.0
C3681 C 0.70298 0.81724 0.79434 0.0
C3682 C 0.71921 0.82287 0.80615 0.0
C3683 C 0.72033 0.83435 0.82488 0.0
C3684 C 0.73464 0.81507 0.80054 0.0
C3685 C 0.70123 0.8053 0.77399 0.0
C3686 C 0.74132 0.80424 0.81206 0.0
C3687 C 0.75768 0.79987 0.8094 0.0
C3688 C 0.76716 0.80543 0.79462 0.0
C3689 C 0.75989 0.81496 0.78216 0.0
C3690 C 0.74378 0.82002 0.78526 0.0
H3691 H 0.68714 0.79962 0.76779 0.0
H3692 H 0.70837 0.81486 0.76505 0.0
H3693 H 0.70732 0.79249 0.77319 0.0
H3694 H 0.73437 0.80025 0.8239 0.0
H3695 H 0.7633 0.79303 0.81947 0.0
H3696 H 0.48196 0.60821 0.72168 0.0
H3697 H 0.49334 0.60272 0.69055 0.0
H3698 H 0.46131 0.54236 0.67663 0.0
H3699 H 0.44926 0.54813 0.70783 0.0
H3700 H 0.51304 0.58207 0.67377 0.0
H3701 H 0.44938 0.55427 0.62767 0.0
H3702 H 0.45029 0.5645 0.65297 0.0
H3703 H 0.45144 0.53909 0.64415 0.0
C3704 C 0.47705 0.59373 0.71201 0.0
C3705 C 0.46436 0.57874 0.71763 0.0
C3706 C 0.48375 0.59055 0.69397 0.0
C3707 C 0.47823 0.57216 0.68047 0.0
C3708 C 0.46562 0.55699 0.68609 0.0
H3709 H 0.50986 0.52577 0.56608 0.0
H3710 H 0.49759 0.53089 0.59669 0.0
C3711 C 0.45871 0.56026 0.7042 0.0
C3712 C 0.48607 0.56913 0.66108 0.0
H3713 H 0.47542 0.55199 0.61236 0.0
C3714 C 0.50465 0.57558 0.66041 0.0
C3715 C 0.47558 0.56066 0.64316 0.0
C3716 C 0.45557 0.55441 0.64194 0.0
C3717 C 0.5128 0.57359 0.64297 0.0
C3718 C 0.50229 0.56509 0.62511 0.0
C3719 C 0.48375 0.55854 0.62575 0.0
C3720 C 0.51012 0.56234 0.60576 0.0
C3721 C 0.53279 0.58017 0.64402 0.0
C3722 C 0.52148 0.57816 0.59979 0.0
C3723 C 0.5284 0.57523 0.58171 0.0
C3724 C 0.52407 0.55643 0.56865 0.0
C3725 C 0.51292 0.54068 0.57483 0.0
C3726 C 0.50601 0.54358 0.59279 0.0
H3727 H 0.53917 0.58085 0.65835 0.0
H3728 H 0.53812 0.56998 0.63314 0.0
H3729 H 0.53663 0.59531 0.64129 0.0
H3730 H 0.52486 0.59297 0.60901 0.0
H3731 H 0.53701 0.58784 0.57785 0.0
H3732 H 0.77986 0.15655 0.97039 0.0
H3733 H 0.77604 0.1694 0.94208 0.0
H3734 H 0.79907 0.2292 0.97526 0.0
H3735 H 0.80365 0.21612 0.00361 0.0
H3736 H 0.75637 0.19361 0.93609 0.0
H3737 H 0.82669 0.22737 0.9292 0.0
H3738 H 0.82024 0.21043 0.94452 0.0
H3739 H 0.82083 0.23644 0.95267 0.0
C3740 C 0.78426 0.17245 0.97153 0.0
C3741 C 0.79211 0.18548 0.98894 0.0
C3742 C 0.78207 0.17971 0.95541 0.0
C3743 C 0.78755 0.20016 0.95654 0.0
C3744 C 0.79525 0.21328 0.97404 0.0
H3745 H 0.77195 0.28707 0.90277 0.0
H3746 H 0.7758 0.2639 0.92231 0.0
C3747 C 0.79777 0.20592 0.99018 0.0
C3748 C 0.78444 0.2078 0.93959 0.0
H3749 H 0.80474 0.23939 0.91329 0.0
C3750 C 0.76698 0.20334 0.93085 0.0
C3751 C 0.7984 0.21996 0.93248 0.0
C3752 C 0.81761 0.22363 0.94007 0.0
C3753 C 0.76292 0.21211 0.91612 0.0
C3754 C 0.77664 0.22576 0.91035 0.0
C3755 C 0.79426 0.2291 0.9181 0.0
C3756 C 0.77273 0.23873 0.8983 0.0
C3757 C 0.74396 0.20764 0.90746 0.0
C3758 C 0.7694 0.23191 0.87845 0.0
C3759 C 0.76699 0.24505 0.86725 0.0
C3760 C 0.76802 0.26515 0.87583 0.0
C3761 C 0.77083 0.27165 0.8958 0.0
C3762 C 0.77319 0.25852 0.90694 0.0
H3763 H 0.73483 0.1965 0.9135 0.0
H3764 H 0.73929 0.22154 0.90994 0.0
H3765 H 0.74324 0.20186 0.89177 0.0
H3766 H 0.76905 0.21662 0.87165 0.0
H3767 H 0.76469 0.23961 0.85187 0.0
H3768 H 0.17283 0.53494 0.1749 0.0
H3769 H 0.16123 0.53844 0.14404 0.0
H3770 H 0.11788 0.55865 0.17033 0.0
H3771 H 0.12948 0.55562 0.20108 0.0
H3772 H 0.12853 0.51256 0.1334 0.0
H3773 H 0.12439 0.58785 0.12765 0.0
H3774 H 0.14066 0.58382 0.14419 0.0
H3775 H 0.11831 0.58311 0.15022 0.0
C3776 C 0.16115 0.54074 0.17415 0.0
C3777 C 0.15173 0.54452 0.19013 0.0
C3778 C 0.15473 0.543 0.15664 0.0
C3779 C 0.13881 0.54886 0.15505 0.0
C3780 C 0.13043 0.55456 0.1714 0.0
H3781 H 0.04693 0.53386 0.0831 0.0
H3782 H 0.06742 0.53443 0.10987 0.0
C3783 C 0.1369 0.55247 0.18891 0.0
C3784 C 0.12823 0.54343 0.13656 0.0
H3785 H 0.10066 0.56025 0.10982 0.0
C3786 C 0.12275 0.52302 0.12786 0.0
C3787 C 0.12061 0.55714 0.12977 0.0
C3788 C 0.12644 0.57923 0.13837 0.0
C3789 C 0.10884 0.51574 0.1133 0.0
C3790 C 0.10066 0.52935 0.10714 0.0
C3791 C 0.10683 0.54988 0.11503 0.0
C3792 C 0.08603 0.52287 0.09199 0.0
C3793 C 0.10242 0.49356 0.10532 0.0
C3794 C 0.08926 0.51479 0.07338 0.0
C3795 C 0.07734 0.51402 0.05816 0.0
C3796 C 0.06239 0.52167 0.06153 0.0
C3797 C 0.05815 0.52757 0.0802 0.0
C3798 C 0.06998 0.52815 0.09547 0.0
H3799 H 0.10694 0.48502 0.11499 0.0
H3800 H 0.08767 0.48893 0.10284 0.0
H3801 H 0.1078 0.48952 0.09141 0.0
H3802 H 0.10171 0.51087 0.07051 0.0
H3803 H 0.08071 0.50932 0.04374 0.0
H3804 H 0.82995 0.84273 0.48261 0.0
H3805 H 0.82529 0.82935 0.44823 0.0
H3806 H 0.77394 0.84283 0.44679 0.0
H3807 H 0.77899 0.85735 0.48129 0.0
H3808 H 0.80366 0.80093 0.42377 0.0
H3809 H 0.79476 0.8718 0.40893 0.0
H3810 H 0.80103 0.86974 0.43263 0.0
H3811 H 0.77816 0.86086 0.42255 0.0
C3812 C 0.81757 0.84276 0.47509 0.0
C3813 C 0.80496 0.85142 0.48481 0.0
C3814 C 0.8149 0.83503 0.45531 0.0
C3815 C 0.79946 0.83549 0.44463 0.0
C3816 C 0.78627 0.8429 0.45447 0.0
H3817 H 0.78936 0.77875 0.31998 0.0
H3818 H 0.78651 0.78323 0.35429 0.0
C3819 C 0.78909 0.85103 0.47429 0.0
C3820 C 0.79788 0.82905 0.42325 0.0
H3821 H 0.79268 0.84528 0.38251 0.0
C3822 C 0.80133 0.81067 0.41473 0.0
C3823 C 0.79483 0.84168 0.41133 0.0
C3824 C 0.79215 0.86218 0.4193 0.0
C3825 C 0.80265 0.805 0.39494 0.0
C3826 C 0.79971 0.81772 0.38302 0.0
C3827 C 0.79526 0.83557 0.39148 0.0
C3828 C 0.80224 0.81383 0.36208 0.0
C3829 C 0.80804 0.7859 0.38735 0.0
C3830 C 0.81158 0.8295 0.35454 0.0
C3831 C 0.81225 0.82723 0.33486 0.0
C3832 C 0.80474 0.80886 0.32216 0.0
C3833 C 0.79607 0.79282 0.32956 0.0
C3834 C 0.79448 0.7954 0.34927 0.0
H3835 H 0.81487 0.78123 0.39884 0.0
H3836 H 0.79595 0.77384 0.3814 0.0
H3837 H 0.81703 0.78738 0.37594 0.0
H3838 H 0.81778 0.8439 0.36385 0.0
H3839 H 0.81828 0.8401 0.3295 0.0
H3840 H 0.4445 0.58455 0.84697 0.0
H3841 H 0.45779 0.57942 0.87662 0.0
H3842 H 0.49066 0.54629 0.84396 0.0
H3843 H 0.47765 0.5516 0.81448 0.0
H3844 H 0.45825 0.54659 0.88976 0.0
H3845 H 0.52859 0.5816 0.884 0.0
H3846 H 0.51061 0.58411 0.86868 0.0
H3847 H 0.51841 0.56172 0.86388 0.0
C3848 C 0.45457 0.57617 0.84602 0.0
C3849 C 0.45984 0.56856 0.82796 0.0
C3850 C 0.46228 0.57324 0.86316 0.0
C3851 C 0.47574 0.56274 0.86308 0.0
C3852 C 0.48082 0.55495 0.84499 0.0
H3853 H 0.54129 0.53839 0.95788 0.0
H3854 H 0.52902 0.5409 0.9266 0.0
C3855 C 0.47312 0.55785 0.82789 0.0
C3856 C 0.48379 0.5593 0.88164 0.0
H3857 H 0.52311 0.56473 0.90892 0.0
C3858 C 0.47246 0.55068 0.8939 0.0
C3859 C 0.50241 0.56408 0.88735 0.0
C3860 C 0.51573 0.57354 0.8754 0.0
C3861 C 0.4789 0.54642 0.91098 0.0
C3862 C 0.49754 0.55191 0.91722 0.0
C3863 C 0.50891 0.56045 0.90481 0.0
C3864 C 0.50527 0.54936 0.93649 0.0
C3865 C 0.46533 0.53508 0.92151 0.0
C3866 C 0.49677 0.55341 0.95326 0.0
C3867 C 0.50306 0.55024 0.97074 0.0
C3868 C 0.51895 0.5441 0.97304 0.0
C3869 C 0.52844 0.54165 0.95676 0.0
C3870 C 0.52151 0.54369 0.93876 0.0
H3871 H 0.45381 0.52537 0.91154 0.0
H3872 H 0.47106 0.52556 0.92911 0.0
H3873 H 0.46008 0.54578 0.93191 0.0
H3874 H 0.48516 0.55933 0.9531 0.0
H3875 H 0.49546 0.55322 0.98281 0.0
H3876 H 0.7544 0.17907 0.05614 0.0
H3877 H 0.75064 0.2011 0.0863 0.0
H3878 H 0.78135 0.17246 0.11748 0.0
H3879 H 0.78534 0.15076 0.08749 0.0
H3880 H 0.7439 0.19164 0.13145 0.0
H3881 H 0.80792 0.23619 0.11489 0.0
H3882 H 0.79109 0.22052 0.09631 0.0
H3883 H 0.80425 0.20951 0.10986 0.0
C3884 C 0.75948 0.17682 0.06955 0.0
C3885 C 0.76997 0.16318 0.06968 0.0
C3886 C 0.75744 0.18946 0.08669 0.0
C3887 C 0.76581 0.18836 0.10397 0.0
C3888 C 0.77473 0.17336 0.10424 0.0
H3889 H 0.81338 0.25601 0.21238 0.0
H3890 H 0.80508 0.23636 0.17955 0.0
C3891 C 0.7769 0.16092 0.08716 0.0
C3892 C 0.76823 0.20475 0.12108 0.0
H3893 H 0.79951 0.24564 0.14585 0.0
C3894 C 0.75586 0.2037 0.13457 0.0
C3895 C 0.78391 0.2203 0.12493 0.0
C3896 C 0.79759 0.22189 0.11076 0.0
C3897 C 0.75923 0.21736 0.15241 0.0
C3898 C 0.77529 0.23252 0.15656 0.0
C3899 C 0.78724 0.23402 0.14263 0.0
C3900 C 0.78079 0.24579 0.17581 0.0
C3901 C 0.74605 0.21473 0.16697 0.0
C3902 C 0.7702 0.25811 0.18435 0.0
C3903 C 0.7748 0.2691 0.20319 0.0
C3904 C 0.79026 0.26828 0.21358 0.0
C3905 C 0.80142 0.25693 0.20464 0.0
C3906 C 0.79666 0.24568 0.18593 0.0
H3907 H 0.73649 0.19987 0.16304 0.0
H3908 H 0.75297 0.2166 0.18133 0.0
H3909 H 0.73832 0.22617 0.16791 0.0
H3910 H 0.75821 0.2589 0.17659 0.0
H3911 H 0.76611 0.27799 0.20973 0.0
H3912 H 0.16401 0.51161 0.29777 0.0
H3913 H 0.15467 0.52297 0.3294 0.0
H3914 H 0.14292 0.5736 0.31211 0.0
H3915 H 0.15133 0.56173 0.2802 0.0
H3916 H 0.1621 0.55654 0.35888 0.0
H3917 H 0.09472 0.5419 0.32089 0.0
H3918 H 0.11305 0.53505 0.30905 0.0
H3919 H 0.11095 0.56032 0.31325 0.0
C3920 C 0.1596 0.52525 0.30088 0.0
C3921 C 0.15775 0.53551 0.28663 0.0
C3922 C 0.15445 0.5318 0.31889 0.0
C3923 C 0.1478 0.54882 0.32276 0.0
C3924 C 0.14766 0.56016 0.30909 0.0
H3925 H 0.08936 0.59465 0.41228 0.0
H3926 H 0.11326 0.593 0.39125 0.0
C3927 C 0.15233 0.55334 0.29094 0.0
C3928 C 0.13869 0.55306 0.33991 0.0
H3929 H 0.09795 0.55561 0.35399 0.0
C3930 C 0.14811 0.55648 0.35791 0.0
C3931 C 0.12032 0.55236 0.33835 0.0
C3932 C 0.10912 0.547 0.31935 0.0
C3933 C 0.13953 0.55953 0.37457 0.0
C3934 C 0.1214 0.55945 0.37287 0.0
C3935 C 0.11202 0.55602 0.35497 0.0
C3936 C 0.11116 0.56169 0.38923 0.0
C3937 C 0.14961 0.56252 0.39378 0.0
C3938 C 0.10237 0.54457 0.39479 0.0
C3939 C 0.08866 0.54541 0.40639 0.0
C3940 C 0.0836 0.56334 0.41233 0.0
C3941 C 0.09291 0.58065 0.4074 0.0
C3942 C 0.1067 0.57981 0.39585 0.0
H3943 H 0.16393 0.56309 0.39269 0.0
H3944 H 0.14834 0.57655 0.40337 0.0
H3945 H 0.14372 0.55012 0.40046 0.0
H3946 H 0.10544 0.5304 0.38927 0.0
H3947 H 0.08161 0.53196 0.41024 0.0
H3948 H 0.82285 0.87625 0.60051 0.0
H3949 H 0.81574 0.86644 0.63027 0.0
H3950 H 0.76525 0.82912 0.60259 0.0
H3951 H 0.77219 0.83947 0.57251 0.0
H3952 H 0.7801 0.86878 0.64946 0.0
H3953 H 0.79674 0.79517 0.62957 0.0
H3954 H 0.80649 0.81532 0.61875 0.0
H3955 H 0.78347 0.80278 0.61266 0.0
C3956 C 0.81023 0.86589 0.6007 0.0
C3957 C 0.79813 0.85846 0.58417 0.0
C3958 C 0.80617 0.86038 0.61774 0.0
C3959 C 0.79004 0.84701 0.61862 0.0
C3960 C 0.7778 0.83948 0.60216 0.0
H3961 H 0.76765 0.79669 0.71889 0.0
H3962 H 0.76429 0.80381 0.68739 0.0
C3963 C 0.78173 0.84537 0.58505 0.0
C3964 C 0.78646 0.84115 0.63693 0.0
H3965 H 0.79118 0.80614 0.66143 0.0
C3966 C 0.78222 0.85494 0.65202 0.0
C3967 C 0.78936 0.82318 0.64026 0.0
C3968 C 0.79431 0.80816 0.62455 0.0
C3969 C 0.78118 0.85139 0.67047 0.0
C3970 C 0.78483 0.83379 0.67401 0.0
C3971 C 0.78842 0.81966 0.65873 0.0
C3972 C 0.78599 0.83026 0.69363 0.0
C3973 C 0.77636 0.86661 0.68608 0.0
C3974 C 0.79913 0.84292 0.7078 0.0
C3975 C 0.80133 0.83865 0.72574 0.0
C3976 C 0.79054 0.82149 0.72987 0.0
C3977 C 0.7767 0.80954 0.71602 0.0
C3978 C 0.77463 0.81369 0.698 0.0
H3979 H 0.76919 0.87619 0.68013 0.0
H3980 H 0.76792 0.8593 0.69582 0.0
H3981 H 0.7887 0.87634 0.69462 0.0
H3982 H 0.80811 0.85576 0.70475 0.0
H3983 H 0.8119 0.84845 0.73608 0.0
H3984 H 0.75963 0.46825 0.55779 0.0
H3985 H 0.73541 0.48288 0.55073 0.0
H3986 H 0.7393 0.46416 0.49032 0.0
H3987 H 0.76368 0.44921 0.49725 0.0
H3988 H 0.74093 0.51374 0.52819 0.0
H3989 H 0.68447 0.44751 0.4987 0.0
H3990 H 0.70328 0.44564 0.51329 0.0
H3991 H 0.70585 0.449 0.48954 0.0
C3992 C 0.75514 0.46687 0.54298 0.0
C3993 C 0.76353 0.45761 0.52807 0.0
C3994 C 0.74136 0.47528 0.53898 0.0
C3995 C 0.73571 0.47457 0.52005 0.0
C3996 C 0.74349 0.46467 0.50501 0.0
H3997 H 0.65131 0.53643 0.50698 0.0
H3998 H 0.67311 0.5171 0.49696 0.0
C3999 C 0.75733 0.45612 0.509 0.0
C4000 C 0.72237 0.48542 0.51664 0.0
H4001 H 0.67761 0.4787 0.50796 0.0
C4002 C 0.72714 0.50617 0.5233 0.0
C4003 C 0.70452 0.47541 0.51007 0.0
C4004 C 0.69906 0.45315 0.50248 0.0
C4005 C 0.71422 0.51705 0.52506 0.0
C4006 C 0.69619 0.50683 0.52016 0.0
C4007 C 0.69152 0.48633 0.51189 0.0
C4008 C 0.68211 0.51694 0.52575 0.0
C4009 C 0.71981 0.53925 0.53321 0.0
C4010 C 0.67993 0.5228 0.54519 0.0
C4011 C 0.66767 0.53386 0.55095 0.0
C4012 C 0.65735 0.53905 0.53729 0.0
C4013 C 0.65918 0.5326 0.51776 0.0
C4014 C 0.67152 0.52158 0.51201 0.0
H4015 H 0.73406 0.54546 0.53179 0.0
H4016 H 0.7116 0.547 0.526 0.0
H4017 H 0.71785 0.54242 0.54864 0.0
H4018 H 0.68793 0.51905 0.55591 0.0
H4019 H 0.66619 0.53826 0.56603 0.0
H4020 H 0.24202 0.11958 0.49874 0.0
H4021 H 0.21044 0.10508 0.49926 0.0
H4022 H 0.19917 0.16172 0.49909 0.0
H4023 H 0.231 0.17649 0.49849 0.0
H4024 H 0.18822 0.11687 0.52717 0.0
H4025 H 0.16409 0.12211 0.45497 0.0
H4026 H 0.18724 0.1243 0.46192 0.0
H4027 H 0.17746 0.14475 0.47028 0.0
C4028 C 0.23288 0.12902 0.49871 0.0
C4029 C 0.23909 0.14923 0.49851 0.0
C4030 C 0.21479 0.12067 0.49905 0.0
C4031 C 0.20239 0.13222 0.49901 0.0
C4032 C 0.20847 0.15243 0.49883 0.0
H4033 H 0.08758 0.09826 0.50823 0.0
H4034 H 0.11782 0.11699 0.50563 0.0
C4035 C 0.22667 0.16088 0.49859 0.0
C4036 C 0.18323 0.12301 0.4997 0.0
H4037 H 0.1424 0.10898 0.47384 0.0
C4038 C 0.17821 0.11523 0.51554 0.0
C4039 C 0.17016 0.12084 0.4845 0.0
C4040 C 0.17492 0.12828 0.46685 0.0
C4041 C 0.16053 0.10526 0.51655 0.0
C4042 C 0.14753 0.10279 0.50123 0.0
C4043 C 0.15242 0.1109 0.48555 0.0
C4044 C 0.12892 0.0913 0.50116 0.0
C4045 C 0.15582 0.0974 0.534 0.0
C4046 C 0.12506 0.0706 0.49907 0.0
C4047 C 0.10779 0.05986 0.50036 0.0
C4048 C 0.09403 0.06958 0.50386 0.0
C4049 C 0.09787 0.09029 0.5055 0.0
C4050 C 0.11513 0.10102 0.504 0.0
H4051 H 0.16646 0.10382 0.54606 0.0
H4052 H 0.14322 0.10074 0.53875 0.0
H4053 H 0.15381 0.08099 0.5304 0.0
H4054 H 0.13553 0.0628 0.49688 0.0
H4055 H 0.10551 0.04416 0.49954 0.0
H4056 H 0.19477 0.9511 0.74086 0.0
H4057 H 0.20977 0.92345 0.73823 0.0
H4058 H 0.22771 0.94299 0.79817 0.0
H4059 H 0.21334 0.97022 0.80087 0.0
H4060 H 0.24749 0.9216 0.74778 0.0
H4061 H 0.20304 0.8839 0.7935 0.0
H4062 H 0.19745 0.90261 0.78255 0.0
H4063 H 0.21264 0.90983 0.80391 0.0
C4064 C 0.20199 0.94969 0.7535 0.0
C4065 C 0.20251 0.96353 0.77111 0.0
C4066 C 0.21068 0.93364 0.75199 0.0
C4067 C 0.21998 0.93044 0.76807 0.0
C4068 C 0.22062 0.94439 0.78544 0.0
H4069 H 0.27351 0.84483 0.8049 0.0
H4070 H 0.25919 0.87123 0.80112 0.0
C4071 C 0.21226 0.96036 0.78689 0.0
C4072 C 0.22887 0.91281 0.76732 0.0
H4073 H 0.2294 0.87312 0.78777 0.0
C4074 C 0.24331 0.9109 0.75639 0.0
C4075 C 0.22398 0.8985 0.77855 0.0
C4076 C 0.20834 0.8986 0.79018 0.0
C4077 C 0.25307 0.89607 0.75692 0.0
C4078 C 0.24831 0.88185 0.76839 0.0
C4079 C 0.23359 0.88362 0.77898 0.0
C4080 C 0.25848 0.86567 0.77031 0.0
C4081 C 0.26907 0.89657 0.74584 0.0
C4082 C 0.26352 0.85292 0.75449 0.0
C4083 C 0.27212 0.8376 0.75675 0.0
C4084 C 0.27617 0.83424 0.77496 0.0
C4085 C 0.2711 0.84691 0.79063 0.0
C4086 C 0.26264 0.86216 0.78841 0.0
H4087 H 0.27425 0.91142 0.74278 0.0
H4088 H 0.27989 0.89287 0.75381 0.0
H4089 H 0.26528 0.88551 0.73196 0.0
H4090 H 0.26028 0.85425 0.74015 0.0
H4091 H 0.2751 0.82798 0.74412 0.0
H4092 H 0.35602 0.99347 0.01862 0.0
H4093 H 0.38699 1.00331 0.01181 0.0
H4094 H 0.40167 0.96649 0.04715 0.0
H4095 H 0.37087 0.95671 0.05426 0.0
H4096 H 0.42075 0.01851 0.0432 0.0
H4097 H 0.41508 0.94825 0.98838 0.0
H4098 H 0.39611 0.95828 0.99434 0.0
H4099 H 0.4055 0.94639 0.01041 0.0
C4100 C 0.3659 0.98776 0.02522 0.0
C4101 C 0.36108 0.97415 0.03679 0.0
C4102 C 0.38348 0.99329 0.02121 0.0
C4103 C 0.39628 0.98524 0.02873 0.0
C4104 C 0.39173 0.97251 0.04105 0.0
H4105 H 0.50385 0.97858 0.01762 0.0
H4106 H 0.47166 0.97211 0.01933 0.0
C4107 C 0.37421 0.96701 0.04511 0.0
C4108 C 0.41451 0.98984 0.02364 0.0
H4109 H 0.44392 0.96928 0.99786 0.0
C4110 C 0.42593 0.00794 0.03319 0.0
C4111 C 0.42088 0.97577 0.01067 0.0
C4112 C 0.40879 0.95608 1.00022 0.0
C4113 C 0.44407 0.01204 0.03087 0.0
C4114 C 0.45065 0.99788 0.01789 0.0
C4115 C 0.43891 0.98005 0.00781 0.0
C4116 C 0.46971 1.00093 0.01513 0.0
C4117 C 0.45594 0.03102 0.04317 0.0
C4118 C 0.47917 0.0189 0.01169 0.0
C4119 C 0.49752 0.02304 0.01219 0.0
C4120 C 0.50675 0.0086 0.01393 0.0
C4121 C 0.4971 0.98993 0.01587 0.0
C4122 C 0.47872 0.98621 0.01675 0.0
H4123 H 0.44981 0.03652 0.05625 0.0
H4124 H 0.46909 0.0289 0.04765 0.0
H4125 H 0.45796 0.04282 0.03502 0.0
H4126 H 0.4725 0.03017 0.00952 0.0
H4127 H 0.50429 0.03775 0.01151 0.0
H4128 H 0.86535 0.56461 0.81391 0.0
H4129 H 0.84595 0.58364 0.80294 0.0
H4130 H 0.88565 0.63819 0.82693 0.0
H4131 H 0.90508 0.61917 0.8378 0.0
H4132 H 0.83601 0.62588 0.82282 0.0
H4133 H 0.87978 0.62207 0.76352 0.0
H4134 H 0.8762 0.60373 0.77777 0.0
H4135 H 0.88996 0.62822 0.78774 0.0
C4136 C 0.8694 0.58073 0.8178 0.0
C4137 C 0.88641 0.59063 0.82695 0.0
C4138 C 0.85843 0.59152 0.81143 0.0
C4139 C 0.86452 0.61218 0.81417 0.0
C4140 C 0.88079 0.62223 0.82491 0.0
H4141 H 0.84158 0.69891 0.75785 0.0
H4142 H 0.85463 0.67867 0.77504 0.0
C4143 C 0.89177 0.61144 0.83123 0.0
C4144 C 0.85555 0.62269 0.80297 0.0
H4145 H 0.8581 0.64012 0.76243 0.0
C4146 C 0.84069 0.62898 0.80958 0.0
C4147 C 0.8619 0.62654 0.78576 0.0
C4148 C 0.87779 0.61976 0.77812 0.0
C4149 C 0.83213 0.63959 0.79948 0.0
C4150 C 0.83848 0.64346 0.78225 0.0
C4151 C 0.85327 0.63696 0.7756 0.0
C4152 C 0.83054 0.65511 0.77131 0.0
C4153 C 0.81677 0.6471 0.80761 0.0
C4154 C 0.81286 0.64819 0.76313 0.0
C4155 C 0.8053 0.65981 0.75345 0.0
C4156 C 0.81542 0.67838 0.75177 0.0
C4157 C 0.83339 0.68479 0.75923 0.0
C4158 C 0.84087 0.67325 0.76898 0.0
H4159 H 0.81607 0.64659 0.82287 0.0
H4160 H 0.81785 0.66264 0.80636 0.0
H4161 H 0.80413 0.63766 0.79945 0.0
H4162 H 0.80486 0.63396 0.76447 0.0
H4163 H 0.79141 0.65459 0.74788 0.0
H4164 H 0.85414 0.68547 0.99881 0.0
H4165 H 0.87903 0.67008 1.00049 0.0
H4166 H 0.84809 0.62765 0.02838 0.0
H4167 H 0.82291 0.64275 0.02644 0.0
H4168 H 0.8984 0.66384 0.03071 0.0
H4169 H 0.86263 0.59215 0.98242 0.0
H4170 H 0.85454 0.61438 0.98516 0.0
H4171 H 0.8509 0.59946 0.00255 0.0
C4172 C 0.85266 0.67301 0.00553 0.0
C4173 C 0.8365 0.66526 0.01245 0.0
C4174 C 0.86691 0.6642 0.0064 0.0
C4175 C 0.86526 0.64748 0.01417 0.0
C4176 C 0.84946 0.64026 0.02188 0.0
H4177 H 0.9206 0.56657 0.03988 0.0
H4178 H 0.90056 0.58581 0.03192 0.0
C4179 C 0.83514 0.649 0.02093 0.0
C4180 C 0.88001 0.63744 0.01406 0.0
H4181 H 0.8895 0.59228 0.99988 0.0
C4182 C 0.89657 0.64823 0.02387 0.0
C4183 C 0.87765 0.61723 0.00472 0.0
C4184 C 0.86053 0.60517 0.99294 0.0
C4185 C 0.91047 0.63893 0.02583 0.0
C4186 C 0.90776 0.61836 0.01738 0.0
C4187 C 0.89153 0.60797 0.00655 0.0
C4188 C 0.92049 0.60669 0.02146 0.0
C4189 C 0.92751 0.65101 0.03776 0.0
C4190 C 0.93843 0.61172 0.01796 0.0
C4191 C 0.95023 0.60106 0.02321 0.0
C4192 C 0.94417 0.58491 0.03168 0.0
C4193 C 0.92596 0.57931 0.03406 0.0
C4194 C 0.91437 0.59017 0.02924 0.0
H4195 H 0.92595 0.66535 0.04651 0.0
H4196 H 0.93214 0.64259 0.04746 0.0
H4197 H 0.93797 0.6545 0.02818 0.0
H4198 H 0.94338 0.62401 0.0114 0.0
H4199 H 0.96413 0.60583 0.0211 0.0
H4200 H 0.19136 0.06652 0.75312 0.0
H4201 H 0.20721 0.10019 0.75108 0.0
H4202 H 0.23112 0.11146 0.8088 0.0
H4203 H 0.21591 0.0779 0.81068 0.0
H4204 H 0.20695 0.13695 0.76899 0.0
H4205 H 0.27508 0.13048 0.78586 0.0
H4206 H 0.25624 0.10921 0.78099 0.0
H4207 H 0.26124 0.12579 0.80439 0.0
C4208 C 0.20014 0.07605 0.76534 0.0
C4209 C 0.20236 0.06898 0.78199 0.0
C4210 C 0.20925 0.09551 0.76418 0.0
C4211 C 0.22097 0.10872 0.7796 0.0
C4212 C 0.22285 0.10175 0.79632 0.0
H4213 H 0.28951 0.23236 0.80295 0.0
H4214 H 0.27366 0.19836 0.80401 0.0
C4215 C 0.2139 0.08234 0.79743 0.0
C4216 C 0.23077 0.12978 0.77849 0.0
H4217 H 0.27186 0.1631 0.78663 0.0
C4218 C 0.22118 0.14253 0.77275 0.0
C4219 C 0.24942 0.13764 0.78343 0.0
C4220 C 0.26113 0.12501 0.78883 0.0
C4221 C 0.22935 0.16256 0.77235 0.0
C4222 C 0.24805 0.17045 0.77728 0.0
C4223 C 0.25763 0.1576 0.7829 0.0
C4224 C 0.25791 0.1917 0.77668 0.0
C4225 C 0.21747 0.17519 0.76734 0.0
C4226 C 0.25506 0.19988 0.76092 0.0
C4227 C 0.26379 0.21961 0.7606 0.0
C4228 C 0.27632 0.23192 0.77569 0.0
C4229 C 0.2799 0.22355 0.79108 0.0
C4230 C 0.27077 0.20392 0.79165 0.0
H4231 H 0.20363 0.16968 0.77061 0.0
H4232 H 0.22238 0.19098 0.7752 0.0
H4233 H 0.21698 0.1744 0.75176 0.0
H4234 H 0.24614 0.19095 0.74858 0.0
H4235 H 0.26097 0.22505 0.74819 0.0
H4236 H 0.3752 1.00266 0.33592 0.0
H4237 H 0.35849 0.96801 0.32391 0.0
H4238 H 0.37712 0.96829 0.26851 0.0
H4239 H 0.39379 1.00285 0.28017 0.0
H4240 H 0.33543 0.94738 0.27451 0.0
H4241 H 0.39315 0.92637 0.30602 0.0
H4242 H 0.38638 0.94755 0.31939 0.0
H4243 H 0.39564 0.94868 0.29719 0.0
C4244 C 0.37564 0.99543 0.32115 0.0
C4245 C 0.38601 0.00542 0.30908 0.0
C4246 C 0.36595 0.97578 0.31429 0.0
C4247 C 0.36655 0.96592 0.29536 0.0
C4248 C 0.37638 0.97592 0.28309 0.0
H4249 H 0.35179 0.8399 0.26561 0.0
H4250 H 0.36077 0.87485 0.26544 0.0
C4251 C 0.38604 0.99557 0.28989 0.0
C4252 C 0.35903 0.94444 0.2893 0.0
H4253 H 0.36753 0.90106 0.29444 0.0
C4254 C 0.34239 0.93706 0.2786 0.0
C4255 C 0.36848 0.93133 0.29439 0.0
C4256 C 0.38696 0.93874 0.3048 0.0
C4257 C 0.33469 0.9165 0.27309 0.0
C4258 C 0.34375 0.90335 0.27916 0.0
C4259 C 0.36055 0.91102 0.28968 0.0
C4260 C 0.33641 0.88159 0.27526 0.0
C4261 C 0.31722 0.90928 0.26065 0.0
C4262 C 0.31929 0.87339 0.27971 0.0
C4263 C 0.31368 0.85298 0.27846 0.0
C4264 C 0.3256 0.84088 0.27447 0.0
C4265 C 0.34249 0.849 0.2695 0.0
C4266 C 0.34764 0.86901 0.26935 0.0
H4267 H 0.31567 0.91985 0.25171 0.0
H4268 H 0.31597 0.8944 0.2511 0.0
H4269 H 0.30615 0.90833 0.26989 0.0
H4270 H 0.31042 0.8827 0.28462 0.0
H4271 H 0.3002 0.8468 0.2809 0.0
H4272 H 0.55528 0.34609 0.55804 0.0
H4273 H 0.55383 0.37456 0.54509 0.0
H4274 H 0.59785 0.41104 0.58542 0.0
H4275 H 0.59877 0.3824 0.59923 0.0
H4276 H 0.57364 0.43011 0.5861 0.0
H4277 H 0.57911 0.40329 0.50974 0.0
H4278 H 0.56147 0.38602 0.51684 0.0
H4279 H 0.58402 0.38994 0.52714 0.0
C4280 C 0.56504 0.36 0.56391 0.0
C4281 C 0.57721 0.36176 0.57974 0.0
C4282 C 0.56425 0.3764 0.55631 0.0
C4283 C 0.57585 0.39517 0.56394 0.0
C4284 C 0.58872 0.39679 0.57911 0.0
H4285 H 0.56829 0.49471 0.51014 0.0
H4286 H 0.57569 0.46526 0.51783 0.0
C4287 C 0.58943 0.38029 0.58688 0.0
C4288 C 0.57316 0.41321 0.55735 0.0
H4289 H 0.56352 0.42949 0.51749 0.0
C4290 C 0.57171 0.43001 0.57107 0.0
C4291 C 0.57094 0.41362 0.53775 0.0
C4292 C 0.57419 0.39732 0.52208 0.0
C4293 C 0.56753 0.44664 0.56589 0.0
C4294 C 0.56368 0.44629 0.54627 0.0
C4295 C 0.56588 0.42982 0.53253 0.0
C4296 C 0.55769 0.46289 0.53984 0.0
C4297 C 0.56781 0.46458 0.58171 0.0
C4298 C 0.54445 0.4711 0.54874 0.0
C4299 C 0.54081 0.48839 0.54486 0.0
C4300 C 0.54908 0.49707 0.53076 0.0
C4301 C 0.56115 0.48794 0.52057 0.0
C4302 C 0.56551 0.47115 0.52514 0.0
H4303 H 0.57706 0.4654 0.59426 0.0
H4304 H 0.57194 0.47866 0.57692 0.0
H4305 H 0.55434 0.46333 0.58661 0.0
H4306 H 0.53746 0.4647 0.55943 0.0
H4307 H 0.53204 0.49552 0.55354 0.0
H4308 H 0.45013 0.7566 0.40916 0.0
H4309 H 0.4221 0.75883 0.39342 0.0
H4310 H 0.45086 0.7832 0.35079 0.0
H4311 H 0.47877 0.78115 0.36637 0.0
H4312 H 0.42409 0.80397 0.36777 0.0
H4313 H 0.39743 0.72237 0.33964 0.0
H4314 H 0.40684 0.73112 0.3642 0.0
H4315 H 0.42095 0.73365 0.34542 0.0
C4316 C 0.4505 0.76249 0.39647 0.0
C4317 C 0.46681 0.7687 0.38909 0.0
C4318 C 0.43443 0.76369 0.38743 0.0
C4319 C 0.43428 0.77103 0.37077 0.0
C4320 C 0.45056 0.7775 0.3636 0.0
H4321 H 0.34778 0.75961 0.284 0.0
H4322 H 0.37414 0.75749 0.30252 0.0
C4323 C 0.46656 0.77634 0.37259 0.0
C4324 C 0.41729 0.77199 0.36066 0.0
H4325 H 0.37952 0.74308 0.33284 0.0
C4326 C 0.41428 0.79066 0.36024 0.0
C4327 C 0.4046 0.75466 0.35053 0.0
C4328 C 0.40752 0.73425 0.34977 0.0
C4329 C 0.39899 0.79249 0.35007 0.0
C4330 C 0.38607 0.77513 0.34015 0.0
C4331 C 0.3892 0.75644 0.34051 0.0
C4332 C 0.36952 0.77603 0.32895 0.0
C4333 C 0.39718 0.81311 0.34961 0.0
C4334 C 0.35762 0.78665 0.33753 0.0
C4335 C 0.34261 0.78817 0.32681 0.0
C4336 C 0.3389 0.77896 0.30714 0.0
C4337 C 0.35034 0.76746 0.29884 0.0
C4338 C 0.36543 0.76608 0.30955 0.0
H4339 H 0.41024 0.82421 0.35295 0.0
H4340 H 0.39121 0.81346 0.33543 0.0
H4341 H 0.38844 0.81775 0.36055 0.0
H4342 H 0.35996 0.79393 0.35258 0.0
H4343 H 0.33411 0.79694 0.33395 0.0
H4344 H 0.09118 0.76375 0.09871 0.0
H4345 H 0.09171 0.72895 0.08636 0.0
H4346 H 0.04106 0.7181 0.05375 0.0
H4347 H 0.04037 0.7528 0.06594 0.0
H4348 H 0.0636 0.69626 0.09231 0.0
H4349 H 0.07142 0.69083 0.01519 0.0
H4350 H 0.07736 0.71435 0.03267 0.0
H4351 H 0.05442 0.70238 0.02477 0.0
C4352 C 0.08027 0.7541 0.08867 0.0
C4353 C 0.06569 0.76121 0.08345 0.0
C4354 C 0.0806 0.73416 0.08161 0.0
C4355 C 0.06651 0.72089 0.06899 0.0
C4356 C 0.05224 0.72808 0.06321 0.0
H4357 H 0.04 0.59345 0.01649 0.0
H4358 H 0.04425 0.62956 0.02361 0.0
C4359 C 0.05184 0.74797 0.07032 0.0
C4360 C 0.06589 0.69921 0.06344 0.0
H4361 H 0.0661 0.66082 0.02558 0.0
C4362 C 0.06425 0.68848 0.07774 0.0
C4363 C 0.06626 0.689 0.04435 0.0
C4364 C 0.06757 0.69968 0.02831 0.0
C4365 C 0.06257 0.6678 0.07354 0.0
C4366 C 0.06372 0.65752 0.05452 0.0
C4367 C 0.06542 0.66842 0.04019 0.0
C4368 C 0.06249 0.6355 0.04911 0.0
C4369 C 0.05862 0.65729 0.08957 0.0
C4370 C 0.07169 0.62641 0.06049 0.0
C4371 C 0.06836 0.60563 0.05703 0.0
C4372 C 0.05724 0.59344 0.04096 0.0
C4373 C 0.04916 0.60249 0.02863 0.0
C4374 C 0.05157 0.62323 0.03278 0.0
H4375 H 0.05193 0.66563 0.10065 0.0
H4376 H 0.04993 0.64206 0.08429 0.0
H4377 H 0.07129 0.65639 0.09667 0.0
H4378 H 0.08095 0.63529 0.07257 0.0
H4379 H 0.07429 0.59908 0.06714 0.0
H4380 H 0.07602 0.29171 0.91 0.0
H4381 H 0.10526 0.2997 0.89781 0.0
H4382 H 0.09199 0.24261 0.85773 0.0
H4383 H 0.06295 0.23459 0.8696 0.0
H4384 H 0.13398 0.27943 0.8938 0.0
H4385 H 0.10367 0.28303 0.82387 0.0
H4386 H 0.09167 0.28366 0.84477 0.0
H4387 H 0.09423 0.26035 0.83087 0.0
C4388 C 0.07939 0.28082 0.89867 0.0
C4389 C 0.06701 0.26258 0.89066 0.0
C4390 C 0.09612 0.28539 0.89174 0.0
C4391 C 0.10072 0.27189 0.87662 0.0
C4392 C 0.08865 0.25342 0.86916 0.0
H4393 H 0.18625 0.26348 0.805 0.0
H4394 H 0.16158 0.25692 0.82481 0.0
C4395 C 0.07201 0.24885 0.87604 0.0
C4396 C 0.11775 0.27711 0.86796 0.0
H4397 H 0.13407 0.28192 0.82548 0.0
C4398 C 0.13403 0.28016 0.87892 0.0
C4399 C 0.11785 0.27822 0.84856 0.0
C4400 C 0.10094 0.27635 0.83636 0.0
C4401 C 0.15032 0.28357 0.87075 0.0
C4402 C 0.15028 0.28394 0.8512 0.0
C4403 C 0.13406 0.28134 0.84041 0.0
C4404 C 0.16687 0.28725 0.8415 0.0
C4405 C 0.16744 0.2863 0.88288 0.0
C4406 C 0.17821 0.30639 0.84452 0.0
C4407 C 0.19215 0.31017 0.83307 0.0
C4408 C 0.19515 0.29483 0.81859 0.0
C4409 C 0.18439 0.27547 0.81626 0.0
C4410 C 0.17027 0.27175 0.82751 0.0
H4411 H 0.1651 0.2832 0.89715 0.0
H4412 H 0.1754 0.27633 0.87553 0.0
H4413 H 0.17544 0.30186 0.88492 0.0
H4414 H 0.17573 0.3186 0.85507 0.0
H4415 H 0.20015 0.32526 0.835 0.0
H4416 H 0.59645 0.7491 0.89563 0.0
H4417 H 0.59536 0.72657 0.91728 0.0
H4418 H 0.57882 0.76872 0.961 0.0
H4419 H 0.57935 0.79092 0.9393 0.0
H4420 H 0.60813 0.7277 0.95609 0.0
H4421 H 0.53538 0.72013 0.94529 0.0
H4422 H 0.55088 0.73227 0.93108 0.0
H4423 H 0.54801 0.74532 0.95462 0.0
C4424 C 0.59324 0.75383 0.91011 0.0
C4425 C 0.5877 0.77149 0.9158 0.0
C4426 C 0.59256 0.74095 0.9224 0.0
C4427 C 0.58655 0.74585 0.94047 0.0
C4428 C 0.58314 0.76458 0.94693 0.0
H4429 H 0.56143 0.68923 0.03279 0.0
H4430 H 0.57232 0.71187 0.01223 0.0
C4431 C 0.58351 0.77725 0.93459 0.0
C4432 C 0.58135 0.73052 0.95144 0.0
H4433 H 0.54528 0.70495 0.9687 0.0
C4434 C 0.59441 0.72265 0.95884 0.0
C4435 C 0.56333 0.72368 0.95452 0.0
C4436 C 0.54855 0.73062 0.94581 0.0
C4437 C 0.58995 0.70864 0.97001 0.0
C4438 C 0.5721 0.7026 0.97379 0.0
C4439 C 0.55899 0.70995 0.96589 0.0
C4440 C 0.56665 0.68878 0.98616 0.0
C4441 C 0.60418 0.70035 0.97781 0.0
C4442 C 0.55964 0.66851 0.97807 0.0
C4443 C 0.55318 0.65562 0.98966 0.0
C4444 C 0.55367 0.66283 0.00955 0.0
C4445 C 0.56071 0.68325 0.01754 0.0
C4446 C 0.56712 0.69614 0.00589 0.0
H4447 H 0.61739 0.70615 0.9731 0.0
H4448 H 0.60521 0.70421 0.99367 0.0
H4449 H 0.60048 0.68386 0.97306 0.0
H4450 H 0.55897 0.66273 0.96277 0.0
H4451 H 0.54756 0.64004 0.98299 0.0
H4452 H 0.04273 0.72996 0.68611 0.0
H4453 H 0.07276 0.72668 0.69353 0.0
H4454 H 0.09444 0.78727 0.68987 0.0
H4455 H 0.06445 0.79079 0.68244 0.0
H4456 H 0.10608 0.73628 0.6721 0.0
H4457 H 0.1083 0.78143 0.74628 0.0
H4458 H 0.0876 0.76901 0.73166 0.0
H4459 H 0.10136 0.79106 0.72679 0.0
C4460 C 0.05388 0.74254 0.68671 0.0
C4461 C 0.05126 0.7607 0.68388 0.0
C4462 C 0.07098 0.74059 0.69082 0.0
C4463 C 0.08562 0.75676 0.69223 0.0
C4464 C 0.08317 0.77469 0.68882 0.0
H4465 H 0.19211 0.77381 0.74345 0.0
H4466 H 0.16644 0.77772 0.72542 0.0
C4467 C 0.06607 0.77666 0.68463 0.0
C4468 C 0.10329 0.7553 0.69885 0.0
H4469 H 0.13306 0.76891 0.7384 0.0
C4470 C 0.11212 0.74347 0.68653 0.0
C4471 C 0.11092 0.76477 0.71767 0.0
C4472 C 0.10159 0.77722 0.73149 0.0
C4473 C 0.12857 0.74077 0.6927 0.0
C4474 C 0.13598 0.74987 0.71169 0.0
C4475 C 0.12726 0.76199 0.72383 0.0
C4476 C 0.1525 0.74664 0.71972 0.0
C4477 C 0.13793 0.72837 0.67893 0.0
C4478 C 0.15314 0.72778 0.72229 0.0
C4479 C 0.16792 0.7254 0.73247 0.0
C4480 C 0.18216 0.7419 0.7403 0.0
C4481 C 0.18152 0.7607 0.73733 0.0
C4482 C 0.16685 0.76302 0.72708 0.0
H4483 H 0.13259 0.72634 0.66386 0.0
H4484 H 0.15244 0.73533 0.68052 0.0
H4485 H 0.13604 0.71344 0.68208 0.0
H4486 H 0.14196 0.71506 0.71702 0.0
H4487 H 0.16812 0.71073 0.73438 0.0
H4488 H 0.11138 0.35587 0.41601 0.0
H4489 H 0.12041 0.39021 0.43566 0.0
H4490 H 0.07519 0.40361 0.40911 0.0
H4491 H 0.0659 0.36935 0.38999 0.0
H4492 H 0.11123 0.4361 0.41895 0.0
H4493 H 0.08222 0.40085 0.47645 0.0
H4494 H 0.09891 0.39138 0.46346 0.0
H4495 H 0.07725 0.38803 0.4516 0.0
C4496 C 0.10368 0.36637 0.41413 0.0
C4497 C 0.0878 0.36011 0.40189 0.0
C4498 C 0.10887 0.38588 0.42524 0.0
C4499 C 0.09839 0.39927 0.42378 0.0
C4500 C 0.08341 0.39342 0.41034 0.0
H4501 H 0.0541 0.48976 0.46715 0.0
H4502 H 0.06776 0.46459 0.44956 0.0
C4503 C 0.07803 0.37389 0.3996 0.0
C4504 C 0.10077 0.41799 0.43826 0.0
H4505 H 0.08594 0.43524 0.4809 0.0
C4506 C 0.10626 0.43607 0.43278 0.0
C4507 C 0.09415 0.41774 0.45619 0.0
C4508 C 0.08773 0.39852 0.4624 0.0
C4509 C 0.10413 0.45383 0.44434 0.0
C4510 C 0.09622 0.45324 0.4615 0.0
C4511 C 0.09207 0.43549 0.46769 0.0
C4512 C 0.08939 0.46987 0.47156 0.0
C4513 C 0.1094 0.47293 0.43774 0.0
C4514 C 0.09705 0.48095 0.48975 0.0
C4515 C 0.08925 0.49533 0.49988 0.0
C4516 C 0.07357 0.49857 0.492 0.0
C4517 C 0.06616 0.48765 0.4736 0.0
C4518 C 0.07399 0.47335 0.46349 0.0
H4519 H 0.11851 0.47182 0.42633 0.0
H4520 H 0.09729 0.47642 0.43201 0.0
H4521 H 0.11595 0.48546 0.44992 0.0
H4522 H 0.10888 0.47828 0.49618 0.0
H4523 H 0.09544 0.50379 0.5139 0.0
H4524 H 0.44185 0.27056 0.17219 0.0
H4525 H 0.41659 0.26705 0.19082 0.0
H4526 H 0.44523 0.24539 0.23101 0.0
H4527 H 0.47086 0.24892 0.21239 0.0
H4528 H 0.39474 0.23935 0.20942 0.0
H4529 H 0.4435 0.30305 0.2583 0.0
H4530 H 0.44763 0.29297 0.23421 0.0
H4531 H 0.4495 0.27963 0.25245 0.0
C4532 C 0.44264 0.26438 0.18459 0.0
C4533 C 0.45851 0.26065 0.19122 0.0
C4534 C 0.42812 0.26227 0.19516 0.0
C4535 C 0.42937 0.25647 0.21244 0.0
C4536 C 0.44428 0.25019 0.21779 0.0
H4537 H 0.35799 0.28403 0.29838 0.0
H4538 H 0.38402 0.27532 0.28401 0.0
C4539 C 0.45888 0.25232 0.2072 0.0
C4540 C 0.41696 0.26129 0.22633 0.0
H4541 H 0.41379 0.29752 0.26482 0.0
C4542 C 0.39889 0.25173 0.2218 0.0
C4543 C 0.42256 0.27777 0.24221 0.0
C4544 C 0.44182 0.2891 0.24711 0.0
C4545 C 0.38612 0.25865 0.23249 0.0
C4546 C 0.39172 0.27558 0.24783 0.0
C4547 C 0.40977 0.28457 0.25295 0.0
C4548 C 0.37877 0.28461 0.25807 0.0
C4549 C 0.36672 0.24826 0.22695 0.0
C4550 C 0.36813 0.2937 0.24851 0.0
C4551 C 0.35342 0.2986 0.2566 0.0
C4552 C 0.3495 0.29474 0.27444 0.0
C4553 C 0.36101 0.28719 0.28466 0.0
C4554 C 0.37573 0.28223 0.27652 0.0
H4555 H 0.36491 0.23299 0.21794 0.0
H4556 H 0.35956 0.24735 0.23984 0.0
H4557 H 0.36051 0.25691 0.21868 0.0
H4558 H 0.37055 0.29578 0.2343 0.0
H4559 H 0.34452 0.3042 0.2484 0.0
H4560 H 0.66092 0.51344 0.33654 0.0
H4561 H 0.6468 0.51564 0.36664 0.0
H4562 H 0.59881 0.52021 0.3376 0.0
H4563 H 0.61291 0.5184 0.30769 0.0
H4564 H 0.63091 0.54624 0.388 0.0
H4565 H 0.58011 0.47462 0.36477 0.0
H4566 H 0.59964 0.48057 0.35241 0.0
H4567 H 0.58119 0.49113 0.34889 0.0
C4568 C 0.6474 0.51507 0.3365 0.0
C4569 C 0.63828 0.51587 0.31934 0.0
C4570 C 0.63924 0.51628 0.35388 0.0
C4571 C 0.62144 0.51786 0.35479 0.0
C4572 C 0.61237 0.51872 0.33766 0.0
H4573 H 0.54497 0.51919 0.44356 0.0
H4574 H 0.55967 0.51622 0.41409 0.0
C4575 C 0.62061 0.51785 0.3204 0.0
C4576 C 0.6125 0.51893 0.37348 0.0
H4577 H 0.57749 0.49516 0.3945 0.0
C4578 C 0.61929 0.53495 0.38938 0.0
C4579 C 0.59709 0.50451 0.37569 0.0
C4580 C 0.58909 0.48662 0.35964 0.0
C4581 C 0.61109 0.53724 0.40679 0.0
C4582 C 0.59582 0.52262 0.40922 0.0
C4583 C 0.58909 0.50652 0.39324 0.0
C4584 C 0.58656 0.52385 0.42785 0.0
C4585 C 0.61859 0.55601 0.42205 0.0
C4586 C 0.5962 0.52864 0.44612 0.0
C4587 C 0.58766 0.53059 0.46321 0.0
C4588 C 0.56897 0.5272 0.46297 0.0
C4589 C 0.55925 0.52165 0.44472 0.0
C4590 C 0.56782 0.52004 0.42761 0.0
H4591 H 0.62563 0.56832 0.41583 0.0
H4592 H 0.60801 0.56102 0.43015 0.0
H4593 H 0.62843 0.55322 0.43213 0.0
H4594 H 0.61049 0.53086 0.44732 0.0
H4595 H 0.59583 0.53472 0.47675 0.0
H4596 H 0.28911 0.90414 0.06618 0.0
H4597 H 0.29597 0.89452 0.0958 0.0
H4598 H 0.34427 0.88177 0.07526 0.0
H4599 H 0.33745 0.89075 0.04551 0.0
H4600 H 0.31293 0.84958 0.08449 0.0
H4601 H 0.34126 0.9182 0.1418 0.0
H4602 H 0.32357 0.91743 0.12424 0.0
H4603 H 0.34535 0.91741 0.11716 0.0
C4604 C 0.30131 0.89952 0.06807 0.0
C4605 C 0.31279 0.89825 0.05357 0.0
C4606 C 0.30528 0.89434 0.08505 0.0
C4607 C 0.32079 0.88801 0.08766 0.0
C4608 C 0.33245 0.88713 0.07347 0.0
H4609 H 0.36286 0.82781 0.16354 0.0
H4610 H 0.35996 0.85132 0.14366 0.0
C4611 C 0.32844 0.89209 0.05647 0.0
C4612 C 0.32319 0.87852 0.10326 0.0
H4613 H 0.33916 0.88713 0.14994 0.0
C4614 C 0.31864 0.85773 0.09882 0.0
C4615 C 0.33059 0.88947 0.12175 0.0
C4616 C 0.33553 0.9119 0.1267 0.0
C4617 C 0.32158 0.84736 0.11247 0.0
C4618 C 0.32911 0.8582 0.13098 0.0
C4619 C 0.33352 0.87907 0.13558 0.0
C4620 C 0.33172 0.84758 0.14564 0.0
C4621 C 0.31663 0.82487 0.10705 0.0
C4622 C 0.31676 0.83802 0.15308 0.0
C4623 C 0.31824 0.82429 0.16371 0.0
C4624 C 0.3348 0.82027 0.16745 0.0
C4625 C 0.34994 0.83047 0.16057 0.0
C4626 C 0.34839 0.84411 0.14963 0.0
H4627 H 0.31381 0.81893 0.09134 0.0
H4628 H 0.32747 0.81894 0.11232 0.0
H4629 H 0.30453 0.81924 0.1138 0.0
H4630 H 0.30379 0.84041 0.14978 0.0
H4631 H 0.30629 0.81645 0.16864 0.0
H4632 H 0.98588 0.55628 0.81839 0.0
H4633 H 0.0031 0.55575 0.84758 0.0
H4634 H 0.95543 0.52469 0.86708 0.0
H4635 H 0.93829 0.52484 0.83783 0.0
H4636 H 0.97407 0.56837 0.88718 0.0
H4637 H 0.01622 0.51384 0.879 0.0
H4638 H 0.01361 0.52593 0.85978 0.0
H4639 H 0.99491 0.50862 0.86522 0.0
C4640 C 0.97933 0.54827 0.82836 0.0
C4641 C 0.96081 0.54092 0.8262 0.0
C4642 C 0.98912 0.54812 0.84506 0.0
C4643 C 0.98039 0.54044 0.85943 0.0
C4644 C 0.9623 0.53072 0.85608 0.0
H4645 H 0.99861 0.54758 0.97642 0.0
H4646 H 0.98629 0.5495 0.94551 0.0
C4647 C 0.95256 0.53082 0.83942 0.0
C4648 C 0.98902 0.5463 0.87905 0.0
H4649 H 0.01956 0.53676 0.90873 0.0
C4650 C 0.98408 0.56155 0.89194 0.0
C4651 C 0.002 0.53733 0.88497 0.0
C4652 C 0.00705 0.52044 0.87163 0.0
C4653 C 0.99184 0.56803 0.91085 0.0
C4654 C 0.00477 0.55897 0.91679 0.0
C4655 C 0.00986 0.5439 0.90384 0.0
C4656 C 0.01165 0.56298 0.9369 0.0
C4657 C 0.9861 0.5843 0.92439 0.0
C4658 C 0.02987 0.57086 0.94251 0.0
C4659 C 0.03699 0.56994 0.96033 0.0
C4660 C 0.02602 0.56045 0.97225 0.0
C4661 C 0.00753 0.55441 0.96729 0.0
C4662 C 1.0004 0.55566 0.94969 0.0
H4663 H 0.97918 0.59282 0.91663 0.0
H4664 H 0.97679 0.57757 0.93376 0.0
H4665 H 0.99772 0.59476 0.93367 0.0
H4666 H 0.03866 0.57671 0.93274 0.0
H4667 H 0.05114 0.57564 0.96422 0.0
H4668 H 0.32445 0.25808 0.56307 0.0
H4669 H 0.32016 0.27179 0.59629 0.0
H4670 H 0.28172 0.21737 0.59681 0.0
H4671 H 0.28557 0.20377 0.56343 0.0
H4672 H 0.27218 0.25274 0.61601 0.0
H4673 H 0.34129 0.25213 0.6397 0.0
H4674 H 0.33899 0.26497 0.62115 0.0
H4675 H 0.33032 0.23847 0.61645 0.0
C4676 C 0.31495 0.24911 0.5702 0.0
C4677 C 0.30543 0.22979 0.56066 0.0
C4678 C 0.31255 0.25695 0.5892 0.0
C4679 C 0.30084 0.24548 0.59913 0.0
C4680 C 0.29081 0.22649 0.58942 0.0
H4681 H 0.29113 0.23825 0.71346 0.0
H4682 H 0.28988 0.23448 0.67882 0.0
C4683 C 0.29302 0.21874 0.57033 0.0
C4684 C 0.29983 0.25269 0.61993 0.0
H4685 H 0.32386 0.26319 0.66347 0.0
C4686 C 0.28353 0.25527 0.62638 0.0
C4687 C 0.31464 0.25587 0.63346 0.0
C4688 C 0.33229 0.2526 0.62746 0.0
C4689 C 0.28163 0.26065 0.64602 0.0
C4690 C 0.29632 0.26337 0.65946 0.0
C4691 C 0.31269 0.26127 0.65304 0.0
C4692 C 0.29453 0.26598 0.68017 0.0
C4693 C 0.26384 0.2627 0.65245 0.0
C4694 C 0.29722 0.28497 0.69235 0.0
C4695 C 0.29788 0.28716 0.71224 0.0
C4696 C 0.29583 0.27036 0.72007 0.0
C4697 C 0.29258 0.2514 0.70774 0.0
C4698 C 0.29186 0.24922 0.688 0.0
H4699 H 0.25403 0.2616 0.6403 0.0
H4700 H 0.25854 0.2508 0.65996 0.0
H4701 H 0.26541 0.27724 0.66275 0.0
H4702 H 0.29946 0.29808 0.68653 0.0
H4703 H 0.30073 0.30197 0.72147 0.0
H4704 H 0.64979 0.50518 0.19282 0.0
H4705 H 0.6374 0.50942 0.16211 0.0
H4706 H 0.59173 0.52278 0.18855 0.0
H4707 H 0.60388 0.51888 0.21876 0.0
H4708 H 0.60664 0.49149 0.13724 0.0
H4709 H 0.60451 0.56962 0.16504 0.0
H4710 H 0.61625 0.55689 0.17843 0.0
H4711 H 0.59254 0.5534 0.17857 0.0
C4712 C 0.63714 0.50908 0.19216 0.0
C4713 C 0.62815 0.51182 0.20882 0.0
C4714 C 0.62995 0.51152 0.17441 0.0
C4715 C 0.6136 0.51701 0.17261 0.0
C4716 C 0.60453 0.51922 0.18915 0.0
H4717 H 0.54106 0.53424 0.0814 0.0
H4718 H 0.55616 0.53236 0.11157 0.0
C4719 C 0.6116 0.51678 0.20669 0.0
C4720 C 0.60576 0.52027 0.1538 0.0
H4721 H 0.58812 0.5533 0.13476 0.0
C4722 C 0.60284 0.50515 0.13679 0.0
C4723 C 0.6004 0.53794 0.15261 0.0
C4724 C 0.60373 0.55546 0.16957 0.0
C4725 C 0.59455 0.50696 0.11933 0.0
C4726 C 0.58913 0.52459 0.11821 0.0
C4727 C 0.5921 0.53971 0.13518 0.0
C4728 C 0.58031 0.52746 0.09976 0.0
C4729 C 0.59103 0.4895 0.10229 0.0
C4730 C 0.58873 0.5262 0.08269 0.0
C4731 C 0.58019 0.52779 0.06542 0.0
C4732 C 0.56287 0.53086 0.06443 0.0
C4733 C 0.55454 0.53246 0.08154 0.0
C4734 C 0.5632 0.53119 0.0989 0.0
H4735 H 0.59148 0.47546 0.10653 0.0
H4736 H 0.57785 0.48742 0.0944 0.0
H4737 H 0.60136 0.49229 0.0924 0.0
H4738 H 0.60194 0.52367 0.08259 0.0
H4739 H 0.58694 0.5259 0.05257 0.0
H4740 H 0.3053 0.91724 0.96853 0.0
H4741 H 0.30199 0.89584 0.93658 0.0
H4742 H 0.35784 0.89728 0.94171 0.0
H4743 H 0.36129 0.91838 0.97396 0.0
H4744 H 0.31711 0.89749 0.90314 0.0
H4745 H 0.33388 0.83822 0.93457 0.0
H4746 H 0.32972 0.86056 0.94897 0.0
H4747 H 0.35089 0.86109 0.93972 0.0
C4748 C 0.317 0.91341 0.96276 0.0
C4749 C 0.33349 0.91914 0.97395 0.0
C4750 C 0.31505 0.90112 0.94451 0.0
C4751 C 0.32955 0.89451 0.93714 0.0
C4752 C 0.3464 0.90178 0.94747 0.0
H4753 H 0.33853 0.81828 0.82971 0.0
H4754 H 0.34417 0.83918 0.86226 0.0
C4755 C 0.34836 0.91396 0.96581 0.0
C4756 C 0.32671 0.87906 0.91923 0.0
H4757 H 0.32914 0.83132 0.90078 0.0
C4758 C 0.31974 0.88304 0.9026 0.0
C4759 C 0.32993 0.86012 0.91874 0.0
C4760 C 0.33635 0.85461 0.93648 0.0
C4761 C 0.31617 0.86863 0.88534 0.0
C4762 C 0.31962 0.84986 0.88484 0.0
C4763 C 0.32658 0.84582 0.90139 0.0
C4764 C 0.31637 0.83449 0.86697 0.0
C4765 C 0.30882 0.87353 0.86768 0.0
C4766 C 0.29893 0.82442 0.8594 0.0
C4767 C 0.29567 0.81247 0.8409 0.0
C4768 C 0.30984 0.81054 0.82982 0.0
C4769 C 0.32738 0.81958 0.83798 0.0
C4770 C 0.33063 0.83146 0.85651 0.0
H4771 H 0.30912 0.88959 0.86992 0.0
H4772 H 0.31649 0.86936 0.85547 0.0
H4773 H 0.29482 0.8648 0.86371 0.0
H4774 H 0.28781 0.82671 0.8674 0.0
H4775 H 0.28204 0.80607 0.83486 0.0
H4776 H 0.90322 0.53315 0.72399 0.0
H4777 H 0.91942 0.5142 0.70198 0.0
H4778 H 0.96698 0.53862 0.74113 0.0
H4779 H 0.95083 0.55784 0.7631 0.0
H4780 H 0.94902 0.54661 0.69416 0.0
H4781 H 0.97027 0.48074 0.70791 0.0
H4782 H 0.94956 0.48626 0.71491 0.0
H4783 H 0.9702 0.50066 0.72824 0.0
C4784 C 0.91688 0.5336 0.72835 0.0
C4785 C 0.92591 0.54705 0.74506 0.0
C4786 C 0.92607 0.52269 0.71582 0.0
C4787 C 0.94437 0.52519 0.71992 0.0
C4788 C 0.95279 0.53636 0.73788 0.0
H4789 H 0.03619 0.52852 0.65922 0.0
H4790 H 0.01426 0.53029 0.68242 0.0
C4791 C 0.94355 0.5473 0.75047 0.0
C4792 C 0.95526 0.52209 0.7039 0.0
H4793 H 0.98475 0.49639 0.68488 0.0
C4794 C 0.95664 0.53544 0.6919 0.0
C4795 C 0.96524 0.50767 0.70128 0.0
C4796 C 0.96376 0.49288 0.71366 0.0
C4797 C 0.96825 0.53516 0.67764 0.0
C4798 C 0.97851 0.52096 0.67522 0.0
C4799 C 0.97683 0.50728 0.68691 0.0
C4800 C 0.99157 0.52055 0.66109 0.0
C4801 C 0.97002 0.55054 0.66581 0.0
C4802 C 0.98594 0.5147 0.6415 0.0
C4803 C 0.99839 0.51349 0.62823 0.0
C4804 C 0.01666 0.51813 0.63439 0.0
C4805 C 0.02221 0.52446 0.65406 0.0
C4806 C 0.00974 0.52557 0.6673 0.0
H4807 H 0.96334 0.56248 0.67168 0.0
H4808 H 0.98425 0.55745 0.66504 0.0
H4809 H 0.96387 0.54323 0.65103 0.0
H4810 H 0.97191 0.51069 0.63651 0.0
H4811 H 0.99367 0.50838 0.61318 0.0
H4812 H 0.3333 0.25628 0.47584 0.0
H4813 H 0.33329 0.27047 0.44787 0.0
H4814 H 0.28111 0.23268 0.42708 0.0
H4815 H 0.28096 0.21806 0.45503 0.0
H4816 H 0.32042 0.23769 0.4035 0.0
H4817 H 0.29 0.30099 0.43029 0.0
H4818 H 0.30427 0.29314 0.44602 0.0
H4819 H 0.28249 0.27771 0.43729 0.0
C4820 C 0.32164 0.25114 0.46553 0.0
C4821 C 0.3071 0.23595 0.46772 0.0
C4822 C 0.32174 0.25925 0.44952 0.0
C4823 C 0.30728 0.25249 0.43546 0.0
C4824 C 0.29241 0.23801 0.43787 0.0
H4825 H 0.2791 0.28276 0.33097 0.0
H4826 H 0.28028 0.27176 0.3609 0.0
C4827 C 0.29228 0.22981 0.45391 0.0
C4828 C 0.30803 0.26012 0.41794 0.0
H4829 H 0.29729 0.29617 0.3985 0.0
C4830 C 0.3154 0.25047 0.40234 0.0
C4831 C 0.30166 0.27691 0.41671 0.0
C4832 C 0.29415 0.28794 0.43342 0.0
C4833 C 0.31619 0.25701 0.38526 0.0
C4834 C 0.30947 0.27361 0.38389 0.0
C4835 C 0.30235 0.2834 0.39962 0.0
C4836 C 0.30899 0.28053 0.36598 0.0
C4837 C 0.32381 0.2459 0.36865 0.0
C4838 C 0.32475 0.28924 0.35908 0.0
C4839 C 0.32409 0.29553 0.34202 0.0
C4840 C 0.30767 0.29325 0.33166 0.0
C4841 C 0.29192 0.28464 0.33867 0.0
C4842 C 0.29258 0.27843 0.35575 0.0
H4843 H 0.32569 0.23149 0.37094 0.0
H4844 H 0.31501 0.24301 0.35523 0.0
H4845 H 0.33695 0.25513 0.36675 0.0
H4846 H 0.33754 0.29108 0.36684 0.0
H4847 H 0.33644 0.30162 0.33667 0.0
H4848 H 0.32997 0.63535 0.54146 0.0
H4849 H 0.35711 0.62351 0.54146 0.0
H4850 H 0.32779 0.56577 0.50863 0.0
H4851 H 0.30059 0.57766 0.50825 0.0
H4852 H 0.36675 0.58904 0.55156 0.0
H4853 H 0.36609 0.58907 0.4744 0.0
H4854 H 0.35283 0.60179 0.49017 0.0
H4855 H 0.34577 0.5753 0.48102 0.0
C4856 C 0.32923 0.62002 0.53457 0.0
C4857 C 0.3133 0.60749 0.52455 0.0
C4858 C 0.34472 0.61329 0.53464 0.0
C4859 C 0.34442 0.59397 0.52468 0.0
C4860 C 0.32821 0.58085 0.51617 0.0
H4861 H 0.41282 0.51735 0.50699 0.0
H4862 H 0.39061 0.53598 0.51672 0.0
C4863 C 0.31268 0.58757 0.51615 0.0
C4864 C 0.36123 0.58804 0.52175 0.0
H4865 H 0.38695 0.57395 0.48682 0.0
C4866 C 0.37126 0.58584 0.53746 0.0
C4867 C 0.36729 0.58455 0.5034 0.0
C4868 C 0.35756 0.58797 0.48628 0.0
C4869 C 0.38673 0.57897 0.53504 0.0
C4870 C 0.39208 0.57419 0.5165 0.0
C4871 C 0.38263 0.5775 0.50099 0.0
C4872 C 0.40634 0.56385 0.51251 0.0
C4873 C 0.39714 0.57651 0.55216 0.0
C4874 C 0.42241 0.57347 0.50687 0.0
C4875 C 0.43509 0.56285 0.50124 0.0
C4876 C 0.43172 0.54242 0.50094 0.0
C4877 C 0.41567 0.53299 0.50686 0.0
C4878 C 0.40309 0.54363 0.51262 0.0
H4879 H 0.39315 0.58418 0.56581 0.0
H4880 H 0.39483 0.56043 0.55192 0.0
H4881 H 0.41161 0.58245 0.55166 0.0
H4882 H 0.42498 0.58905 0.50653 0.0
H4883 H 0.44731 0.57048 0.49663 0.0
H4884 H 0.86447 0.90773 0.54897 0.0
H4885 H 0.89514 0.92631 0.54902 0.0
H4886 H 0.87678 0.96584 0.51948 0.0
H4887 H 0.84593 0.94729 0.51937 0.0
H4888 H 0.91458 0.93466 0.51779 0.0
H4889 H 0.90771 0.00356 0.56751 0.0
H4890 H 0.89175 0.97991 0.56458 0.0
H4891 H 0.8916 0.99428 0.5469 0.0
C4892 C 0.8669 0.92022 0.54226 0.0
C4893 C 0.85269 0.92599 0.53412 0.0
C4894 C 0.88448 0.93088 0.54239 0.0
C4895 C 0.88824 0.94765 0.53454 0.0
C4896 C 0.87415 0.95316 0.52593 0.0
H4897 H 0.98354 0.03532 0.52543 0.0
H4898 H 0.95328 0.0165 0.52721 0.0
C4899 C 0.85654 0.94244 0.52574 0.0
C4900 C 0.90691 0.95931 0.5354 0.0
H4901 H 0.93502 0.00501 0.554 0.0
C4902 C 0.91911 0.95003 0.52573 0.0
C4903 C 0.91275 0.97935 0.54579 0.0
C4904 C 0.90035 0.98988 0.55694 0.0
C4905 C 0.93687 0.96039 0.52568 0.0
C4906 C 0.94279 0.98047 0.53616 0.0
C4907 C 0.93057 0.98965 0.546 0.0
C4908 C 0.96137 0.99246 0.53645 0.0
C4909 C 0.94885 0.94984 0.5138 0.0
C4910 C 0.97612 0.98562 0.54157 0.0
C4911 C 0.99344 0.99631 0.54029 0.0
C4912 C 0.99633 0.0144 0.53463 0.0
C4913 C 0.98168 0.02171 0.53037 0.0
C4914 C 0.96437 0.01084 0.53123 0.0
H4915 H 0.94108 0.93711 0.50243 0.0
H4916 H 0.95803 0.96012 0.50695 0.0
H4917 H 0.95688 0.94382 0.52312 0.0
H4918 H 0.97427 0.97186 0.54625 0.0
H4919 H 0.00458 0.99037 0.54357 0.0
H4920 H 0.89733 0.11803 0.25319 0.0
H4921 H 0.88189 0.14425 0.25012 0.0
H4922 H 0.87812 0.15714 0.31071 0.0
H4923 H 0.89306 0.13115 0.3138 0.0
H4924 H 0.8472 0.15084 0.25961 0.0
H4925 H 0.8998 0.21299 0.30312 0.0
H4926 H 0.90358 0.18878 0.29354 0.0
H4927 H 0.89251 0.19308 0.31487 0.0
C4928 C 0.89325 0.1264 0.26591 0.0
C4929 C 0.89671 0.12195 0.28379 0.0
C4930 C 0.88427 0.14156 0.26414 0.0
C4931 C 0.87872 0.15337 0.28019 0.0
C4932 C 0.88223 0.14888 0.29794 0.0
H4933 H 0.82581 0.25369 0.30877 0.0
H4934 H 0.83996 0.22598 0.30818 0.0
C4935 C 0.89084 0.13363 0.29966 0.0
C4936 C 0.86934 0.17017 0.27876 0.0
H4937 H 0.87204 0.22021 0.29662 0.0
C4938 C 0.85285 0.16601 0.26758 0.0
C4939 C 0.87616 0.19033 0.28912 0.0
C4940 C 0.89405 0.1967 0.30071 0.0
C4941 C 0.84311 0.18081 0.26694 0.0
C4942 C 0.84988 0.20093 0.27745 0.0
C4943 C 0.86644 0.20508 0.28848 0.0
C4944 C 0.84002 0.21766 0.27748 0.0
C4945 C 0.82513 0.17448 0.25559 0.0
C4946 C 0.83496 0.22305 0.26054 0.0
C4947 C 0.82682 0.23924 0.26092 0.0
C4948 C 0.82278 0.25048 0.27818 0.0
C4949 C 0.82789 0.24512 0.29505 0.0
C4950 C 0.83625 0.22918 0.29473 0.0
H4951 H 0.81979 0.15807 0.25219 0.0
H4952 H 0.81549 0.18156 0.26357 0.0
H4953 H 0.82625 0.17929 0.24193 0.0
H4954 H 0.83792 0.21521 0.24691 0.0
H4955 H 0.82412 0.2433 0.24762 0.0
H4956 H 0.73683 0.13726 0.02565 0.0
H4957 H 0.71512 0.1286 0.04775 0.0
H4958 H 0.69668 0.06962 0.01134 0.0
H4959 H 0.71879 0.07809 0.98971 0.0
H4960 H 0.68388 0.12175 0.02487 0.0
H4961 H 0.67908 0.06047 0.06208 0.0
H4962 H 0.70015 0.07499 0.05736 0.0
H4963 H 0.68675 0.05508 0.03886 0.0
C4964 C 0.7292 0.12198 0.02327 0.0
C4965 C 0.72946 0.10826 0.00615 0.0
C4966 C 0.71669 0.11704 0.03586 0.0
C4967 C 0.70419 0.09852 0.03114 0.0
C4968 C 0.70631 0.08389 0.01548 0.0
H4969 H 0.59701 0.04353 0.01135 0.0
H4970 H 0.62895 0.05363 0.01948 0.0
C4971 C 0.71884 0.0888 0.00297 0.0
C4972 C 0.68611 0.09718 0.03711 0.0
H4973 H 0.6512 0.06563 0.05021 0.0
C4974 C 0.67681 0.10989 0.03103 0.0
C4975 C 0.6769 0.08137 0.0446 0.0
C4976 C 0.68629 0.06729 0.05125 0.0
C4977 C 0.65832 0.10619 0.03056 0.0
C4978 C 0.64893 0.09 0.03755 0.0
C4979 C 0.65841 0.07813 0.04499 0.0
C4980 C 0.62929 0.08357 0.03479 0.0
C4981 C 0.64906 0.11853 0.02082 0.0
C4982 C 0.61874 0.09698 0.0407 0.0
C4983 C 0.60038 0.09128 0.03561 0.0
C4984 C 0.59228 0.07175 0.02563 0.0
C4985 C 0.60278 0.05831 0.01998 0.0
C4986 C 0.6211 0.06413 0.02455 0.0
H4987 H 0.65791 0.12679 0.012 0.0
H4988 H 0.63711 0.10906 0.01138 0.0
H4989 H 0.64486 0.12967 0.03179 0.0
H4990 H 0.62471 0.11193 0.04898 0.0
H4991 H 0.59246 0.10191 0.03988 0.0
H4992 H 0.24449 0.5228 0.23473 0.0
H4993 H 0.26557 0.50292 0.2386 0.0
H4994 H 0.22263 0.44972 0.22431 0.0
H4995 H 0.20195 0.46942 0.21911 0.0
H4996 H 0.25576 0.48928 0.26897 0.0
H4997 H 0.2636 0.42569 0.21306 0.0
H4998 H 0.25586 0.44609 0.20733 0.0
H4999 H 0.24075 0.42621 0.21453 0.0
C5000 C 0.23992 0.50671 0.23086 0.0
C5001 C 0.22174 0.4975 0.2269 0.0
C5002 C 0.25191 0.49535 0.23318 0.0
C5003 C 0.24559 0.47491 0.23217 0.0
C5004 C 0.22789 0.46539 0.22497 0.0
H5005 H 0.26832 0.39485 0.29915 0.0
H5006 H 0.25488 0.41149 0.27786 0.0
C5007 C 0.21602 0.4767 0.22202 0.0
C5008 C 0.25514 0.46554 0.24427 0.0
H5009 H 0.26814 0.42321 0.24588 0.0
C5010 C 0.25887 0.47505 0.26378 0.0
C5011 C 0.25845 0.44663 0.23767 0.0
C5012 C 0.25457 0.43566 0.21695 0.0
C5013 C 0.2657 0.46612 0.27691 0.0
C5014 C 0.26923 0.44733 0.27027 0.0
C5015 C 0.26548 0.43772 0.25082 0.0
C5016 C 0.27702 0.43755 0.28333 0.0
C5017 C 0.26846 0.47658 0.29784 0.0
C5018 C 0.29378 0.44685 0.2934 0.0
C5019 C 0.30122 0.43761 0.30574 0.0
C5020 C 0.29213 0.41881 0.30783 0.0
C5021 C 0.27543 0.40942 0.29769 0.0
C5022 C 0.26785 0.41881 0.28554 0.0
H5023 H 0.26045 0.48777 0.30111 0.0
H5024 H 0.26491 0.4658 0.30699 0.0
H5025 H 0.28268 0.48452 0.30172 0.0
H5026 H 0.30117 0.46112 0.29152 0.0
H5027 H 0.31428 0.44486 0.31324 0.0
H5028 H 0.24052 0.39714 0.01774 0.0
H5029 H 0.21423 0.40907 0.01033 0.0
H5030 H 0.23379 0.46197 0.05527 0.0
H5031 H 0.25984 0.45032 0.06281 0.0
H5032 H 0.18765 0.42558 0.03816 0.0
H5033 H 0.22888 0.47868 0.00159 0.0
H5034 H 0.23502 0.45658 0.00516 0.0
H5035 H 0.23823 0.478 0.02468 0.0
C5036 C 0.2391 0.4112 0.02618 0.0
C5037 C 0.25241 0.42284 0.04076 0.0
C5038 C 0.22406 0.41795 0.02196 0.0
C5039 C 0.22214 0.43645 0.03219 0.0
C5040 C 0.23504 0.44768 0.04717 0.0
H5041 H 0.16449 0.52408 0.02597 0.0
H5042 H 0.1839 0.50358 0.03368 0.0
C5043 C 0.24997 0.44097 0.05142 0.0
C5044 C 0.20754 0.44503 0.02654 0.0
H5045 H 0.20032 0.48312 0.00786 0.0
C5046 C 0.19028 0.43802 0.03134 0.0
C5047 C 0.21106 0.46123 0.01765 0.0
C5048 C 0.22925 0.46904 0.0118 0.0
C5049 C 0.17662 0.44743 0.02822 0.0
C5050 C 0.18033 0.46406 0.01982 0.0
C5051 C 0.19747 0.47052 0.01445 0.0
C5052 C 0.16708 0.47572 0.01708 0.0
C5053 C 0.15861 0.43999 0.03464 0.0
C5054 C 0.15088 0.4669 0.00556 0.0
C5055 C 0.1396 0.47865 0.00141 0.0
C5056 C 0.14453 0.49941 0.00843 0.0
C5057 C 0.16043 0.50811 0.02037 0.0
C5058 C 0.17152 0.49639 0.02474 0.0
H5059 H 0.15921 0.43057 0.04502 0.0
H5060 H 0.15302 0.45259 0.04132 0.0
H5061 H 0.14937 0.43083 0.02205 0.0
H5062 H 0.14729 0.45109 0.99912 0.0
H5063 H 0.12748 0.47166 0.99199 0.0
H5064 H 0.87326 0.02077 0.2952 0.0
H5065 H 0.85901 0.98522 0.28985 0.0
H5066 H 0.90102 0.9712 0.25673 0.0
H5067 H 0.91532 0.00698 0.26184 0.0
H5068 H 0.84683 0.95442 0.25443 0.0
H5069 H 0.89955 0.93742 0.29811 0.0
H5070 H 0.89731 0.96252 0.30002 0.0
H5071 H 0.90658 0.95039 0.27983 0.0
C5072 C 0.87946 0.01022 0.28655 0.0
C5073 C 0.89553 0.0171 0.27891 0.0
C5074 C 0.87123 0.98972 0.28354 0.0
C5075 C 0.87889 0.97514 0.27308 0.0
C5076 C 0.89478 0.9819 0.26507 0.0
H5077 H 0.84969 0.84338 0.25887 0.0
H5078 H 0.86476 0.8779 0.25922 0.0
C5079 C 0.90291 1.00251 0.26784 0.0
C5080 C 0.87018 0.9531 0.27077 0.0
H5081 H 0.8753 0.91072 0.28381 0.0
C5082 C 0.85312 0.94489 0.26084 0.0
C5083 C 0.87823 0.94029 0.27888 0.0
C5084 C 0.89638 0.948 0.28993 0.0
C5085 C 0.84409 0.92459 0.25867 0.0
C5086 C 0.85182 0.91184 0.2674 0.0
C5087 C 0.86904 0.92007 0.27713 0.0
C5088 C 0.8423 0.89022 0.26677 0.0
C5089 C 0.82654 0.91697 0.24639 0.0
C5090 C 0.82452 0.88492 0.27109 0.0
C5091 C 0.81572 0.86496 0.27049 0.0
C5092 C 0.82439 0.84939 0.26599 0.0
C5093 C 0.84234 0.85471 0.26218 0.0
C5094 C 0.85107 0.87466 0.26247 0.0
H5095 H 0.82573 0.92577 0.23549 0.0
H5096 H 0.82442 0.9011 0.23889 0.0
H5097 H 0.81559 0.91852 0.25551 0.0
H5098 H 0.81739 0.89631 0.27537 0.0
H5099 H 0.80225 0.86192 0.27426 0.0
H5100 H 0.70568 0.0996 0.78638 0.0
H5101 H 0.72365 0.13253 0.78501 0.0
H5102 H 0.73741 0.10751 0.72917 0.0
H5103 H 0.71849 0.0752 0.72992 0.0
H5104 H 0.75773 0.14491 0.78297 0.0
H5105 H 0.72187 0.15317 0.71787 0.0
H5106 H 0.71345 0.13339 0.72952 0.0
H5107 H 0.73058 0.13153 0.71364 0.0
C5108 C 0.71229 0.10138 0.77372 0.0
C5109 C 0.71053 0.08518 0.75811 0.0
C5110 C 0.72262 0.12003 0.77297 0.0
C5111 C 0.73161 0.12247 0.75683 0.0
C5112 C 0.73011 0.10611 0.74145 0.0
H5113 H 0.805 0.24102 0.77006 0.0
H5114 H 0.79618 0.20465 0.7645 0.0
C5115 C 0.71935 0.08769 0.74192 0.0
C5116 C 0.74268 0.14212 0.7562 0.0
H5117 H 0.74794 0.17786 0.7307 0.0
C5118 C 0.75559 0.1522 0.77159 0.0
C5119 C 0.73998 0.15134 0.74112 0.0
C5120 C 0.72561 0.14187 0.72471 0.0
C5121 C 0.76503 0.17186 0.77301 0.0
C5122 C 0.76192 0.18122 0.75818 0.0
C5123 C 0.75015 0.17054 0.74204 0.0
C5124 C 0.76797 0.20284 0.76049 0.0
C5125 C 0.77733 0.18274 0.79087 0.0
C5126 C 0.75508 0.21364 0.75948 0.0
C5127 C 0.76012 0.23408 0.76165 0.0
C5128 C 0.77812 0.24403 0.76501 0.0
C5129 C 0.79106 0.23341 0.76672 0.0
C5130 C 0.78603 0.21277 0.76392 0.0
H5131 H 0.77571 0.17437 0.80231 0.0
H5132 H 0.79132 0.18486 0.78743 0.0
H5133 H 0.77493 0.19764 0.79654 0.0
H5134 H 0.74103 0.20624 0.7571 0.0
H5135 H 0.74996 0.24212 0.76068 0.0
loop_
_geom_bond_atom_site_label_1
_geom_bond_atom_site_label_2
_geom_bond_distance
_geom_bond_site_symmetry_2
_ccdc_geom_bond_type
Mg0 O1 2.028 . S
Mg0 O7 1.986 . S
Mg0 O9 2.114 . S
Mg0 O10 2.251 . S
Mg0 O13 2.010 . S
O1 Mg0 2.028 . S
O1 C4 1.250 . S
O2 Mg3 2.028 . S
O2 C4 1.248 . S
Mg3 O2 2.028 . S
Mg3 O8 2.032 . S
Mg3 O10 2.079 . S
C4 O1 1.250 . S
C4 O2 1.248 . S
C5 O6 1.264 . S
C5 O13 1.249 . S
O6 C5 1.264 . S
O7 Mg0 1.986 . S
O7 C11 1.246 . S
O8 Mg3 2.032 . S
O8 C11 1.259 . S
O9 Mg0 2.114 . S
O9 C12 1.252 . S
O10 Mg0 2.251 . S
O10 Mg3 2.079 . S
O10 C12 1.273 . S
C11 O7 1.246 . S
C11 O8 1.259 . S
C12 O9 1.252 . S
C12 O10 1.273 . S
O13 Mg0 2.010 . S
O13 C5 1.249 . S
Mg14 O15 2.028 . S
Mg14 O21 1.986 . S
Mg14 O23 2.114 1_455 S
Mg14 O24 2.251 1_455 S
Mg14 O27 2.010 . S
O15 Mg14 2.028 . S
O15 C18 1.250 1_455 S
O16 Mg17 2.028 . S
O16 C18 1.248 . S
Mg17 O16 2.028 . S
Mg17 O22 2.032 . S
Mg17 O24 2.079 . S
C18 O15 1.250 1_655 S
C18 O16 1.248 . S
C19 O20 1.264 . S
C19 O27 1.249 . S
O20 C19 1.264 . S
O21 Mg14 1.986 . S
O21 C25 1.246 1_455 S
O22 Mg17 2.032 . S
O22 C25 1.259 . S
O23 Mg14 2.114 1_655 S
O23 C26 1.252 . S
O24 Mg14 2.251 1_655 S
O24 Mg17 2.079 . S
O24 C26 1.273 . S
C25 O21 1.246 1_655 S
C25 O22 1.259 . S
C26 O23 1.252 . S
C26 O24 1.273 . S
O27 Mg14 2.010 . S
O27 C19 1.249 . S
Mg28 O29 2.028 . S
Mg28 O35 1.986 . S
Mg28 O37 2.114 . S
Mg28 O38 2.251 . S
Mg28 O41 2.010 . S
O29 Mg28 2.028 . S
O29 C32 1.250 . S
O30 Mg31 2.028 . S
O30 C32 1.248 . S
Mg31 O30 2.028 . S
Mg31 O36 2.032 . S
Mg31 O38 2.079 . S
C32 O29 1.250 . S
C32 O30 1.248 . S
C33 O34 1.264 . S
C33 O41 1.249 . S
O34 C33 1.264 . S
O35 Mg28 1.986 . S
O35 C39 1.246 . S
O36 Mg31 2.032 . S
O36 C39 1.259 . S
O37 Mg28 2.114 . S
O37 C40 1.252 . S
O38 Mg28 2.251 . S
O38 Mg31 2.079 . S
O38 C40 1.273 . S
C39 O35 1.246 . S
C39 O36 1.259 . S
C40 O37 1.252 . S
C40 O38 1.273 . S
O41 Mg28 2.010 . S
O41 C33 1.249 . S
Mg42 O43 2.028 . S
Mg42 O49 1.986 . S
Mg42 O51 2.114 . S
Mg42 O52 2.251 . S
Mg42 O55 2.010 . S
O43 Mg42 2.028 . S
O43 C46 1.250 . S
O44 Mg45 2.028 . S
O44 C46 1.248 . S
Mg45 O44 2.028 . S
Mg45 O50 2.032 . S
Mg45 O52 2.079 . S
C46 O43 1.250 . S
C46 O44 1.248 . S
C47 O48 1.264 . S
C47 O55 1.249 . S
O48 C47 1.264 . S
O49 Mg42 1.986 . S
O49 C53 1.246 . S
O50 Mg45 2.032 . S
O50 C53 1.259 . S
O51 Mg42 2.114 . S
O51 C54 1.252 . S
O52 Mg42 2.251 . S
O52 Mg45 2.079 . S
O52 C54 1.273 . S
C53 O49 1.246 . S
C53 O50 1.259 . S
C54 O51 1.252 . S
C54 O52 1.273 . S
O55 Mg42 2.010 . S
O55 C47 1.249 . S
Mg56 O57 2.028 . S
Mg56 O63 1.986 . S
Mg56 O65 2.114 . S
Mg56 O66 2.251 . S
Mg56 O69 2.010 . S
O57 Mg56 2.028 . S
O57 C60 1.250 . S
O58 Mg59 2.028 . S
O58 C60 1.248 . S
Mg59 O58 2.028 . S
Mg59 O64 2.032 . S
Mg59 O66 2.079 . S
C60 O57 1.250 . S
C60 O58 1.248 . S
C61 O62 1.264 . S
C61 O69 1.249 . S
O62 C61 1.264 . S
O63 Mg56 1.986 . S
O63 C67 1.246 . S
O64 Mg59 2.032 . S
O64 C67 1.259 . S
O65 Mg56 2.114 . S
O65 C68 1.252 . S
O66 Mg56 2.251 . S
O66 Mg59 2.079 . S
O66 C68 1.273 . S
C67 O63 1.246 . S
C67 O64 1.259 . S
C68 O65 1.252 . S
C68 O66 1.273 . S
O69 Mg56 2.010 . S
O69 C61 1.249 . S
Mg70 O71 2.028 . S
Mg70 O77 1.986 . S
Mg70 O79 2.114 . S
Mg70 O80 2.251 . S
Mg70 O83 2.010 . S
O71 Mg70 2.028 . S
O71 C74 1.250 . S
O72 Mg73 2.028 . S
O72 C74 1.248 . S
Mg73 O72 2.028 . S
Mg73 O78 2.032 . S
Mg73 O80 2.079 . S
C74 O71 1.250 . S
C74 O72 1.248 . S
C75 O76 1.264 . S
C75 O83 1.249 . S
O76 C75 1.264 . S
O77 Mg70 1.986 . S
O77 C81 1.246 . S
O78 Mg73 2.032 . S
O78 C81 1.259 . S
O79 Mg70 2.114 . S
O79 C82 1.252 . S
O80 Mg70 2.251 . S
O80 Mg73 2.079 . S
O80 C82 1.273 . S
C81 O77 1.246 . S
C81 O78 1.259 . S
C82 O79 1.252 . S
C82 O80 1.273 . S
O83 Mg70 2.010 . S
O83 C75 1.249 . S
Mg84 O85 2.028 . S
Mg84 O91 1.986 . S
Mg84 O93 2.114 . S
Mg84 O94 2.251 . S
Mg84 O97 2.010 . S
O85 Mg84 2.028 . S
O85 C88 1.250 . S
O86 Mg87 2.028 . S
O86 C88 1.248 . S
Mg87 O86 2.028 . S
Mg87 O92 2.032 . S
Mg87 O94 2.079 . S
C88 O85 1.250 . S
C88 O86 1.248 . S
C89 O90 1.264 . S
C89 O97 1.249 . S
O90 C89 1.264 . S
O91 Mg84 1.986 . S
O91 C95 1.246 . S
O92 Mg87 2.032 . S
O92 C95 1.259 . S
O93 Mg84 2.114 . S
O93 C96 1.252 . S
O94 Mg84 2.251 . S
O94 Mg87 2.079 . S
O94 C96 1.273 . S
C95 O91 1.246 . S
C95 O92 1.259 . S
C96 O93 1.252 . S
C96 O94 1.273 . S
O97 Mg84 2.010 . S
O97 C89 1.249 . S
Mg98 O99 2.028 . S
Mg98 O105 1.986 . S
Mg98 O107 2.115 . S
Mg98 O108 2.251 1_455 S
Mg98 O111 2.010 . S
O99 Mg98 2.028 . S
O99 C102 1.250 . S
O100 Mg101 2.028 1_455 S
O100 C102 1.248 . S
Mg101 O100 2.028 1_655 S
Mg101 O106 2.032 . S
Mg101 O108 2.079 . S
C102 O99 1.250 . S
C102 O100 1.248 . S
C103 O104 1.264 . S
C103 O111 1.249 . S
O104 C103 1.264 . S
O105 Mg98 1.986 . S
O105 C109 1.246 . S
O106 Mg101 2.032 . S
O106 C109 1.259 1_655 S
O107 Mg98 2.115 . S
O107 C110 1.250 1_455 S
O108 Mg98 2.251 1_655 S
O108 Mg101 2.079 . S
O108 C110 1.273 . S
C109 O105 1.246 . S
C109 O106 1.259 1_455 S
C110 O107 1.250 1_655 S
C110 O108 1.273 . S
O111 Mg98 2.010 . S
O111 C103 1.249 . S
Mg112 O113 2.028 . S
Mg112 O119 1.986 . S
Mg112 O121 2.114 . S
Mg112 O122 2.251 . S
Mg112 O125 2.010 . S
O113 Mg112 2.028 . S
O113 C116 1.250 . S
O114 Mg115 2.028 . S
O114 C116 1.248 . S
Mg115 O114 2.028 . S
Mg115 O120 2.032 . S
Mg115 O122 2.079 . S
C116 O113 1.250 . S
C116 O114 1.248 . S
C117 O118 1.264 . S
C117 O125 1.249 . S
O118 C117 1.264 . S
O119 Mg112 1.986 . S
O119 C123 1.246 . S
O120 Mg115 2.032 . S
O120 C123 1.259 . S
O121 Mg112 2.114 . S
O121 C124 1.252 . S
O122 Mg112 2.251 . S
O122 Mg115 2.079 . S
O122 C124 1.273 . S
C123 O119 1.246 . S
C123 O120 1.259 . S
C124 O121 1.252 . S
C124 O122 1.273 . S
O125 Mg112 2.010 . S
O125 C117 1.249 . S
Mg126 O127 2.028 . S
Mg126 O133 1.986 . S
Mg126 O135 2.114 . S
Mg126 O136 2.251 . S
Mg126 O139 2.010 . S
O127 Mg126 2.028 . S
O127 C130 1.250 . S
O128 Mg129 2.028 . S
O128 C130 1.248 . S
Mg129 O128 2.028 . S
Mg129 O134 2.032 . S
Mg129 O136 2.079 . S
C130 O127 1.250 . S
C130 O128 1.248 . S
C131 O132 1.264 . S
C131 O139 1.249 . S
O132 C131 1.264 . S
O133 Mg126 1.986 . S
O133 C137 1.246 . S
O134 Mg129 2.032 . S
O134 C137 1.259 . S
O135 Mg126 2.114 . S
O135 C138 1.252 . S
O136 Mg126 2.251 . S
O136 Mg129 2.079 . S
O136 C138 1.273 . S
C137 O133 1.246 . S
C137 O134 1.259 . S
C138 O135 1.252 . S
C138 O136 1.273 . S
O139 Mg126 2.010 . S
O139 C131 1.249 . S
Mg140 O141 2.028 1_565 S
Mg140 O147 1.986 . S
Mg140 O149 2.114 1_565 S
Mg140 O150 2.251 . S
Mg140 O153 2.010 . S
O141 Mg140 2.028 1_545 S
O141 C144 1.250 . S
O142 Mg143 2.028 . S
O142 C144 1.248 . S
Mg143 O142 2.028 . S
Mg143 O148 2.032 1_545 S
Mg143 O150 2.079 1_545 S
C144 O141 1.250 . S
C144 O142 1.248 . S
C145 O146 1.264 . S
C145 O153 1.249 . S
O146 C145 1.264 . S
O147 Mg140 1.986 . S
O147 C151 1.246 . S
O148 Mg143 2.032 1_565 S
O148 C151 1.259 . S
O149 Mg140 2.114 1_545 S
O149 C152 1.252 . S
O150 Mg140 2.251 . S
O150 Mg143 2.079 1_565 S
O150 C152 1.273 1_565 S
C151 O147 1.246 . S
C151 O148 1.259 . S
C152 O149 1.252 . S
C152 O150 1.273 1_545 S
O153 Mg140 2.010 . S
O153 C145 1.249 . S
Mg154 O155 2.028 . S
Mg154 O161 1.986 . S
Mg154 O163 2.114 . S
Mg154 O164 2.251 . S
Mg154 O167 2.010 . S
O155 Mg154 2.028 . S
O155 C158 1.250 1_554 S
O156 Mg157 2.028 1_556 S
O156 C158 1.248 . S
Mg157 O156 2.028 1_554 S
Mg157 O162 2.032 . S
Mg157 O164 2.079 . S
C158 O155 1.250 1_556 S
C158 O156 1.248 . S
C159 O160 1.264 . S
C159 O167 1.249 . S
O160 C159 1.264 . S
O161 Mg154 1.986 . S
O161 C165 1.246 . S
O162 Mg157 2.032 . S
O162 C165 1.259 . S
O163 Mg154 2.114 . S
O163 C166 1.252 . S
O164 Mg154 2.251 . S
O164 Mg157 2.079 . S
O164 C166 1.273 . S
C165 O161 1.246 . S
C165 O162 1.259 . S
C166 O163 1.252 . S
C166 O164 1.273 . S
O167 Mg154 2.010 . S
O167 C159 1.249 . S
Mg168 O169 2.028 . S
Mg168 O175 1.986 . S
Mg168 O177 2.114 . S
Mg168 O178 2.251 . S
Mg168 O181 2.010 . S
O169 Mg168 2.028 . S
O169 C172 1.250 . S
O170 Mg171 2.028 . S
O170 C172 1.248 . S
Mg171 O170 2.028 . S
Mg171 O176 2.032 . S
Mg171 O178 2.079 . S
C172 O169 1.250 . S
C172 O170 1.248 . S
C173 O174 1.264 . S
C173 O181 1.249 . S
O174 C173 1.264 . S
O175 Mg168 1.986 . S
O175 C179 1.246 . S
O176 Mg171 2.032 . S
O176 C179 1.259 . S
O177 Mg168 2.114 . S
O177 C180 1.252 . S
O178 Mg168 2.251 . S
O178 Mg171 2.079 . S
O178 C180 1.273 . S
C179 O175 1.246 . S
C179 O176 1.259 . S
C180 O177 1.252 . S
C180 O178 1.273 . S
O181 Mg168 2.010 . S
O181 C173 1.249 . S
Mg182 O183 2.028 . S
Mg182 O189 1.986 1_554 S
Mg182 O191 2.114 . S
Mg182 O192 2.251 . S
Mg182 O195 2.010 . S
O183 Mg182 2.028 . S
O183 C186 1.250 . S
O184 Mg185 2.028 . S
O184 C186 1.248 . S
Mg185 O184 2.028 . S
Mg185 O190 2.032 . S
Mg185 O192 2.079 . S
C186 O183 1.250 . S
C186 O184 1.248 . S
C187 O188 1.264 1_554 S
C187 O195 1.249 . S
O188 C187 1.264 1_556 S
O189 Mg182 1.986 1_556 S
O189 C193 1.246 . S
O190 Mg185 2.032 . S
O190 C193 1.259 1_554 S
O191 Mg182 2.114 . S
O191 C194 1.252 . S
O192 Mg182 2.251 . S
O192 Mg185 2.079 . S
O192 C194 1.273 . S
C193 O189 1.246 . S
C193 O190 1.259 1_556 S
C194 O191 1.252 . S
C194 O192 1.273 . S
O195 Mg182 2.010 . S
O195 C187 1.249 . S
Mg196 O197 2.028 . S
Mg196 O203 1.986 . S
Mg196 O205 2.114 . S
Mg196 O206 2.251 . S
Mg196 O209 2.010 . S
O197 Mg196 2.028 . S
O197 C200 1.250 . S
O198 Mg199 2.028 . S
O198 C200 1.248 . S
Mg199 O198 2.028 . S
Mg199 O204 2.032 . S
Mg199 O206 2.079 . S
C200 O197 1.250 . S
C200 O198 1.248 . S
C201 O202 1.264 . S
C201 O209 1.249 . S
O202 C201 1.264 . S
O203 Mg196 1.986 . S
O203 C207 1.246 . S
O204 Mg199 2.032 . S
O204 C207 1.259 . S
O205 Mg196 2.114 . S
O205 C208 1.252 . S
O206 Mg196 2.251 . S
O206 Mg199 2.079 . S
O206 C208 1.273 . S
C207 O203 1.246 . S
C207 O204 1.259 . S
C208 O205 1.252 . S
C208 O206 1.273 . S
O209 Mg196 2.010 . S
O209 C201 1.249 . S
Mg210 O211 2.028 . S
Mg210 O217 1.986 . S
Mg210 O219 2.114 . S
Mg210 O220 2.251 . S
Mg210 O223 2.010 . S
O211 Mg210 2.028 . S
O211 C214 1.250 . S
O212 Mg213 2.028 . S
O212 C214 1.248 . S
Mg213 O212 2.028 . S
Mg213 O218 2.032 . S
Mg213 O220 2.079 . S
C214 O211 1.250 . S
C214 O212 1.248 . S
C215 O216 1.264 . S
C215 O223 1.249 . S
O216 C215 1.264 . S
O217 Mg210 1.986 . S
O217 C221 1.246 . S
O218 Mg213 2.032 . S
O218 C221 1.259 . S
O219 Mg210 2.114 . S
O219 C222 1.252 . S
O220 Mg210 2.251 . S
O220 Mg213 2.079 . S
O220 C222 1.273 . S
C221 O217 1.246 . S
C221 O218 1.259 . S
C222 O219 1.252 . S
C222 O220 1.273 . S
O223 Mg210 2.010 . S
O223 C215 1.249 . S
Mg224 O225 2.028 . S
Mg224 O231 1.986 . S
Mg224 O233 2.114 . S
Mg224 O234 2.251 . S
Mg224 O237 2.010 . S
O225 Mg224 2.028 . S
O225 C228 1.250 . S
O226 Mg227 2.028 . S
O226 C228 1.248 . S
Mg227 O226 2.028 . S
Mg227 O232 2.032 . S
Mg227 O234 2.079 . S
C228 O225 1.250 . S
C228 O226 1.248 . S
C229 O230 1.264 . S
C229 O237 1.249 . S
O230 C229 1.264 . S
O231 Mg224 1.986 . S
O231 C235 1.246 . S
O232 Mg227 2.032 . S
O232 C235 1.259 . S
O233 Mg224 2.114 . S
O233 C236 1.252 . S
O234 Mg224 2.251 . S
O234 Mg227 2.079 . S
O234 C236 1.273 . S
C235 O231 1.246 . S
C235 O232 1.259 . S
C236 O233 1.252 . S
C236 O234 1.273 . S
O237 Mg224 2.010 . S
O237 C229 1.249 . S
Mg238 O239 2.028 . S
Mg238 O245 1.986 . S
Mg238 O247 2.114 . S
Mg238 O248 2.251 . S
Mg238 O251 2.010 . S
O239 Mg238 2.028 . S
O239 C242 1.250 . S
O240 Mg241 2.028 . S
O240 C242 1.248 . S
Mg241 O240 2.028 . S
Mg241 O246 2.032 . S
Mg241 O248 2.079 . S
C242 O239 1.250 . S
C242 O240 1.248 . S
C243 O244 1.264 . S
C243 O251 1.249 . S
O244 C243 1.264 . S
O245 Mg238 1.986 . S
O245 C249 1.246 . S
O246 Mg241 2.032 . S
O246 C249 1.259 . S
O247 Mg238 2.114 . S
O247 C250 1.252 . S
O248 Mg238 2.251 . S
O248 Mg241 2.079 . S
O248 C250 1.273 . S
C249 O245 1.246 . S
C249 O246 1.259 . S
C250 O247 1.252 . S
C250 O248 1.273 . S
O251 Mg238 2.010 . S
O251 C243 1.249 . S
Mg252 O253 2.028 . S
Mg252 O259 1.986 . S
Mg252 O261 2.114 . S
Mg252 O262 2.251 . S
Mg252 O265 2.010 . S
O253 Mg252 2.028 . S
O253 C256 1.250 . S
O254 Mg255 2.028 . S
O254 C256 1.248 . S
Mg255 O254 2.028 . S
Mg255 O260 2.032 . S
Mg255 O262 2.079 . S
C256 O253 1.250 . S
C256 O254 1.248 . S
C257 O258 1.264 . S
C257 O265 1.249 . S
O258 C257 1.264 . S
O259 Mg252 1.986 . S
O259 C263 1.246 . S
O260 Mg255 2.032 . S
O260 C263 1.259 . S
O261 Mg252 2.114 . S
O261 C264 1.252 . S
O262 Mg252 2.251 . S
O262 Mg255 2.079 . S
O262 C264 1.273 . S
C263 O259 1.246 . S
C263 O260 1.259 . S
C264 O261 1.252 . S
C264 O262 1.273 . S
O265 Mg252 2.010 . S
O265 C257 1.249 . S
Mg266 O267 2.028 . S
Mg266 O273 1.986 . S
Mg266 O275 2.114 . S
Mg266 O276 2.251 . S
Mg266 O279 2.010 . S
O267 Mg266 2.028 . S
O267 C270 1.250 . S
O268 Mg269 2.028 . S
O268 C270 1.248 . S
Mg269 O268 2.028 . S
Mg269 O274 2.032 . S
Mg269 O276 2.079 . S
C270 O267 1.250 . S
C270 O268 1.248 . S
C271 O272 1.264 . S
C271 O279 1.249 . S
O272 C271 1.264 . S
O273 Mg266 1.986 . S
O273 C277 1.246 . S
O274 Mg269 2.032 . S
O274 C277 1.259 . S
O275 Mg266 2.114 . S
O275 C278 1.252 . S
O276 Mg266 2.251 . S
O276 Mg269 2.079 . S
O276 C278 1.273 . S
C277 O273 1.246 . S
C277 O274 1.259 . S
C278 O275 1.252 . S
C278 O276 1.273 . S
O279 Mg266 2.010 . S
O279 C271 1.249 . S
Mg280 O281 2.028 1_556 S
Mg280 O287 1.986 . S
Mg280 O289 2.114 1_556 S
Mg280 O290 2.251 . S
Mg280 O293 2.010 . S
O281 Mg280 2.028 1_554 S
O281 C284 1.250 . S
O282 Mg283 2.028 . S
O282 C284 1.248 . S
Mg283 O282 2.028 . S
Mg283 O288 2.032 1_554 S
Mg283 O290 2.079 1_554 S
C284 O281 1.250 . S
C284 O282 1.248 . S
C285 O286 1.264 . S
C285 O293 1.249 . S
O286 C285 1.264 . S
O287 Mg280 1.986 . S
O287 C291 1.246 . S
O288 Mg283 2.032 1_556 S
O288 C291 1.259 . S
O289 Mg280 2.114 1_554 S
O289 C292 1.246 1_554 S
O290 Mg280 2.251 . S
O290 Mg283 2.079 1_556 S
O290 C292 1.282 . S
C291 O287 1.246 . S
C291 O288 1.259 . S
C292 O289 1.246 1_556 S
C292 O290 1.282 . S
O293 Mg280 2.010 . S
O293 C285 1.249 . S
Mg294 O295 2.028 . S
Mg294 O301 1.986 . S
Mg294 O303 2.114 . S
Mg294 O304 2.251 . S
Mg294 O307 2.010 . S
O295 Mg294 2.028 . S
O295 C298 1.250 . S
O296 Mg297 2.028 . S
O296 C298 1.248 . S
Mg297 O296 2.028 . S
Mg297 O302 2.032 . S
Mg297 O304 2.079 . S
C298 O295 1.250 . S
C298 O296 1.248 . S
C299 O300 1.264 . S
C299 O307 1.249 . S
O300 C299 1.264 . S
O301 Mg294 1.986 . S
O301 C305 1.246 . S
O302 Mg297 2.032 . S
O302 C305 1.259 . S
O303 Mg294 2.114 . S
O303 C306 1.252 . S
O304 Mg294 2.251 . S
O304 Mg297 2.079 . S
O304 C306 1.273 . S
C305 O301 1.246 . S
C305 O302 1.259 . S
C306 O303 1.252 . S
C306 O304 1.273 . S
O307 Mg294 2.010 . S
O307 C299 1.249 . S
Mg308 O309 2.028 . S
Mg308 O315 1.986 . S
Mg308 O317 2.114 . S
Mg308 O318 2.251 . S
Mg308 O321 2.010 . S
O309 Mg308 2.028 . S
O309 C312 1.250 . S
O310 Mg311 2.028 . S
O310 C312 1.248 . S
Mg311 O310 2.028 . S
Mg311 O316 2.032 . S
Mg311 O318 2.079 . S
C312 O309 1.250 . S
C312 O310 1.248 . S
C313 O314 1.264 . S
C313 O321 1.249 . S
O314 C313 1.264 . S
O315 Mg308 1.986 . S
O315 C319 1.246 . S
O316 Mg311 2.032 . S
O316 C319 1.259 . S
O317 Mg308 2.114 . S
O317 C320 1.252 . S
O318 Mg308 2.251 . S
O318 Mg311 2.079 . S
O318 C320 1.273 . S
C319 O315 1.246 . S
C319 O316 1.259 . S
C320 O317 1.252 . S
C320 O318 1.273 . S
O321 Mg308 2.010 . S
O321 C313 1.249 . S
Mg322 O323 2.028 . S
Mg322 O329 1.986 . S
Mg322 O331 2.114 . S
Mg322 O332 2.251 . S
Mg322 O335 2.010 . S
O323 Mg322 2.028 . S
O323 C326 1.250 . S
O324 Mg325 2.028 . S
O324 C326 1.248 . S
Mg325 O324 2.028 . S
Mg325 O330 2.032 . S
Mg325 O332 2.079 . S
C326 O323 1.250 . S
C326 O324 1.248 . S
C327 O328 1.264 . S
C327 O335 1.249 . S
O328 C327 1.264 . S
O329 Mg322 1.986 . S
O329 C333 1.246 . S
O330 Mg325 2.032 . S
O330 C333 1.259 . S
O331 Mg322 2.114 . S
O331 C334 1.252 . S
O332 Mg322 2.251 . S
O332 Mg325 2.079 . S
O332 C334 1.273 . S
C333 O329 1.246 . S
C333 O330 1.259 . S
C334 O331 1.252 . S
C334 O332 1.273 . S
O335 Mg322 2.010 . S
O335 C327 1.249 . S
Tb336 N367 2.660 1_545 S
Tb336 N374 2.600 1_544 S
Tb336 O380 2.546 1_454 S
Tb336 O381 2.610 . S
Tb336 O383 2.320 . S
Tb336 O384 2.570 . S
Tb336 O385 2.413 1_455 S
Tb336 O387 2.362 . S
Tb336 O388 2.421 1_554 S
Tb336 C400 2.833 1_454 S
C337 C340 1.432 . S
C337 C341 1.414 . S
C337 N344 1.359 . S
C338 C340 1.417 . S
C338 C342 1.432 . S
C338 C350 1.398 1_554 S
C339 C341 1.444 . S
C339 C342 1.317 . S
C339 H362 0.929 . S
C340 C337 1.432 . S
C340 C338 1.417 . S
C340 N348 1.360 . S
C341 C337 1.414 . S
C341 C339 1.444 . S
C341 C346 1.385 . S
C342 C338 1.432 . S
C342 C339 1.317 . S
C342 H354 0.930 . S
C343 C345 1.392 . S
C343 C346 1.370 . S
C343 H355 0.931 . S
N344 C337 1.359 . S
N344 C345 1.327 . S
N344 Tb347 2.600 . S
C345 C343 1.392 . S
C345 N344 1.327 . S
C345 H352 0.930 . S
C346 C341 1.385 . S
C346 C343 1.370 . S
C346 H365 0.930 . S
Tb347 N344 2.600 . S
Tb347 N348 2.660 . S
Tb347 O381 2.362 . S
Tb347 O382 2.421 . S
Tb347 O386 2.546 . S
Tb347 O387 2.610 . S
Tb347 O389 2.320 1_554 S
Tb347 O390 2.552 . S
Tb347 O391 2.413 . S
Tb347 C411 2.833 . S
N348 C340 1.360 . S
N348 Tb347 2.660 . S
N348 C349 1.305 1_554 S
C349 N348 1.305 1_556 S
C349 C351 1.407 . S
C349 H356 0.930 . S
C350 C338 1.398 1_556 S
C350 C351 1.350 . S
C350 H358 0.937 . S
C351 C349 1.407 . S
C351 C350 1.350 . S
C351 H353 0.930 . S
H352 C345 0.930 . S
H353 C351 0.930 . S
H354 C342 0.930 . S
H355 C343 0.931 . S
H356 C349 0.930 . S
H357 C371 0.931 . S
H358 C350 0.937 . S
H359 C377 0.882 1_545 S
H360 C368 0.930 1_545 S
H361 C375 0.931 . S
H362 C339 0.929 . S
H363 C369 0.930 . S
H364 C402 0.930 1_554 S
H365 C346 0.930 . S
H366 C401 0.929 . S
N367 Tb336 2.660 1_565 S
N367 C368 1.305 . S
N367 C372 1.360 1_455 S
C368 H360 0.930 1_565 S
C368 N367 1.305 . S
C368 C371 1.407 1_455 S
C369 H363 0.930 . S
C369 C370 1.410 . S
C369 C371 1.345 . S
C370 C369 1.410 . S
C370 C372 1.417 . S
C370 C402 1.432 1_554 S
C371 H357 0.931 . S
C371 C368 1.407 1_655 S
C371 C369 1.345 . S
C372 N367 1.360 1_655 S
C372 C370 1.417 . S
C372 C376 1.432 1_554 S
H373 C378 0.930 . S
N374 Tb336 2.600 1_566 S
N374 C376 1.359 1_455 S
N374 C377 1.327 . S
C375 H361 0.931 . S
C375 C377 1.392 1_655 S
C375 C378 1.370 . S
C376 C372 1.432 1_556 S
C376 N374 1.359 1_655 S
C376 C379 1.414 . S
C377 H359 0.882 1_565 S
C377 N374 1.327 . S
C377 C375 1.392 1_455 S
C378 H373 0.930 . S
C378 C375 1.370 . S
C378 C379 1.385 . S
C379 C376 1.414 . S
C379 C378 1.385 . S
C379 C401 1.444 . S
O380 Tb336 2.546 1_656 S
O380 C400 1.251 . S
O381 Tb336 2.610 . S
O381 Tb347 2.362 . S
O381 C392 1.283 . S
O382 Tb347 2.421 . S
O382 C399 1.262 . S
O383 Tb336 2.320 . S
O383 C399 1.260 . S
O384 Tb336 2.570 . S
O384 C392 1.270 . S
O385 Tb336 2.413 1_655 S
O385 C400 1.256 1_554 S
O386 Tb347 2.546 . S
O386 C411 1.251 . S
O387 Tb336 2.362 . S
O387 Tb347 2.610 . S
O387 C403 1.283 . S
O388 Tb336 2.421 1_556 S
O388 C410 1.262 . S
O389 Tb347 2.320 1_556 S
O389 C410 1.260 . S
O390 Tb347 2.552 . S
O390 C403 1.243 . S
O391 Tb347 2.413 . S
O391 C411 1.256 . S
C392 O381 1.283 . S
C392 O384 1.270 . S
C393 C395 1.382 1_556 S
C393 C397 1.393 . S
C393 C400 1.500 . S
C394 C395 1.400 1_556 S
C394 C396 1.384 . S
C395 C393 1.382 1_554 S
C395 C394 1.400 1_554 S
C395 H412 0.930 . S
C396 C394 1.384 . S
C396 C398 1.392 . S
C396 H413 0.931 . S
C397 C393 1.393 . S
C397 C398 1.401 . S
C397 H414 0.930 . S
C398 C396 1.392 . S
C398 C397 1.401 . S
C398 H415 0.930 . S
C399 O382 1.262 . S
C399 O383 1.260 . S
C400 Tb336 2.833 1_656 S
C400 O380 1.251 . S
C400 O385 1.256 1_556 S
C400 C393 1.500 . S
C401 H366 0.929 . S
C401 C379 1.444 . S
C401 C402 1.317 . S
C402 H364 0.930 1_556 S
C402 C370 1.432 1_556 S
C402 C401 1.317 . S
C403 O387 1.283 . S
C403 O390 1.243 . S
C404 C405 1.382 . S
C404 C408 1.393 . S
C404 C411 1.500 . S
C405 C404 1.382 . S
C405 C406 1.400 . S
C405 H416 0.930 . S
C406 C405 1.400 . S
C406 C407 1.384 . S
C407 C406 1.384 . S
C407 C409 1.392 . S
C407 H417 0.931 . S
C408 C404 1.393 . S
C408 C409 1.401 . S
C408 H418 0.930 . S
C409 C407 1.392 . S
C409 C408 1.401 . S
C409 H419 0.930 . S
C410 O388 1.262 . S
C410 O389 1.260 . S
C411 Tb347 2.833 . S
C411 O386 1.251 . S
C411 O391 1.256 . S
C411 C404 1.500 . S
H412 C395 0.930 . S
H413 C396 0.931 . S
H414 C397 0.930 . S
H415 C398 0.930 . S
H416 C405 0.930 . S
H417 C407 0.931 . S
H418 C408 0.930 . S
H419 C409 0.930 . S
Tb420 N451 2.660 . S
Tb420 N458 2.600 . S
Tb420 O464 2.546 . S
Tb420 O465 2.610 . S
Tb420 O467 2.320 . S
Tb420 O468 2.552 . S
Tb420 O469 2.413 . S
Tb420 O471 2.362 . S
Tb420 O472 2.421 . S
Tb420 C484 2.833 . S
C421 C424 1.432 . S
C421 C425 1.414 . S
C421 N428 1.359 . S
C422 C424 1.417 . S
C422 C426 1.432 . S
C422 C434 1.410 . S
C423 C425 1.444 . S
C423 C426 1.317 . S
C423 H446 0.929 . S
C424 C421 1.432 . S
C424 C422 1.417 . S
C424 N432 1.360 . S
C425 C421 1.414 . S
C425 C423 1.444 . S
C425 C430 1.385 . S
C426 C422 1.432 . S
C426 C423 1.317 . S
C426 H438 0.930 . S
C427 C429 1.392 . S
C427 C430 1.370 . S
C427 H439 0.931 . S
N428 C421 1.359 . S
N428 C429 1.327 . S
N428 Tb431 2.600 . S
C429 C427 1.392 . S
C429 N428 1.327 . S
C429 H436 0.930 . S
C430 C425 1.385 . S
C430 C427 1.370 . S
C430 H449 0.930 . S
Tb431 N428 2.600 . S
Tb431 N432 2.660 . S
Tb431 O465 2.362 . S
Tb431 O466 2.421 . S
Tb431 O470 2.546 . S
Tb431 O471 2.610 . S
Tb431 O473 2.320 . S
Tb431 O474 2.552 . S
Tb431 O475 2.413 . S
Tb431 C495 2.833 . S
N432 C424 1.360 . S
N432 Tb431 2.660 . S
N432 C433 1.305 . S
C433 N432 1.305 . S
C433 C435 1.407 . S
C433 H440 0.930 . S
C434 C422 1.410 . S
C434 C435 1.345 . S
C434 H442 0.930 . S
C435 C433 1.407 . S
C435 C434 1.345 . S
C435 H437 0.930 . S
H436 C429 0.930 . S
H437 C435 0.930 . S
H438 C426 0.930 . S
H439 C427 0.931 . S
H440 C433 0.930 . S
H441 C455 0.930 . S
H442 C434 0.930 . S
H443 C461 0.930 . S
H444 C452 0.930 . S
H445 C459 0.931 . S
H446 C423 0.929 . S
H447 C453 0.930 . S
H448 C486 0.930 . S
H449 C430 0.930 . S
H450 C485 0.929 . S
N451 Tb420 2.660 . S
N451 C452 1.305 . S
N451 C456 1.360 . S
C452 H444 0.930 . S
C452 N451 1.305 . S
C452 C455 1.407 . S
C453 H447 0.930 . S
C453 C454 1.410 . S
C453 C455 1.345 . S
C454 C453 1.410 . S
C454 C456 1.417 . S
C454 C486 1.432 . S
C455 H441 0.930 . S
C455 C452 1.407 . S
C455 C453 1.345 . S
C456 N451 1.360 . S
C456 C454 1.417 . S
C456 C460 1.432 . S
H457 C462 0.930 . S
N458 Tb420 2.600 . S
N458 C460 1.359 . S
N458 C461 1.327 . S
C459 H445 0.931 . S
C459 C461 1.392 . S
C459 C462 1.370 . S
C460 C456 1.432 . S
C460 N458 1.359 . S
C460 C463 1.414 . S
C461 H443 0.930 . S
C461 N458 1.327 . S
C461 C459 1.392 . S
C462 H457 0.930 . S
C462 C459 1.370 . S
C462 C463 1.385 . S
C463 C460 1.414 . S
C463 C462 1.385 . S
C463 C485 1.444 . S
O464 Tb420 2.546 . S
O464 C484 1.251 . S
O465 Tb420 2.610 . S
O465 Tb431 2.362 . S
O465 C476 1.283 . S
O466 Tb431 2.421 . S
O466 C483 1.262 . S
O467 Tb420 2.320 . S
O467 C483 1.260 . S
O468 Tb420 2.552 . S
O468 C476 1.243 . S
O469 Tb420 2.413 . S
O469 C484 1.256 . S
O470 Tb431 2.546 . S
O470 C495 1.251 . S
O471 Tb420 2.362 . S
O471 Tb431 2.610 . S
O471 C487 1.283 . S
O472 Tb420 2.421 . S
O472 C494 1.262 . S
O473 Tb431 2.320 . S
O473 C494 1.260 . S
O474 Tb431 2.552 . S
O474 C487 1.243 . S
O475 Tb431 2.413 . S
O475 C495 1.256 . S
C476 O465 1.283 . S
C476 O468 1.243 . S
C477 C479 1.382 . S
C477 C481 1.393 . S
C477 C484 1.500 . S
C478 C479 1.400 . S
C478 C480 1.384 . S
C479 C477 1.382 . S
C479 C478 1.400 . S
C479 H496 0.930 . S
C480 C478 1.384 . S
C480 C482 1.392 . S
C480 H497 0.931 . S
C481 C477 1.393 . S
C481 C482 1.401 . S
C481 H498 0.930 . S
C482 C480 1.392 . S
C482 C481 1.401 . S
C482 H499 0.930 . S
C483 O466 1.262 . S
C483 O467 1.260 . S
C484 Tb420 2.833 . S
C484 O464 1.251 . S
C484 O469 1.256 . S
C484 C477 1.500 . S
C485 H450 0.929 . S
C485 C463 1.444 . S
C485 C486 1.317 . S
C486 H448 0.930 . S
C486 C454 1.432 . S
C486 C485 1.317 . S
C487 O471 1.283 . S
C487 O474 1.243 . S
C488 C489 1.382 . S
C488 C492 1.393 . S
C488 C495 1.500 . S
C489 C488 1.382 . S
C489 C490 1.400 . S
C489 H500 0.930 . S
C490 C489 1.400 . S
C490 C491 1.384 . S
C491 C490 1.384 . S
C491 C493 1.392 . S
C491 H501 0.931 . S
C492 C488 1.393 . S
C492 C493 1.401 . S
C492 H502 0.930 . S
C493 C491 1.392 . S
C493 C492 1.401 . S
C493 H503 0.930 . S
C494 O472 1.262 . S
C494 O473 1.260 . S
C495 Tb431 2.833 . S
C495 O470 1.251 . S
C495 O475 1.256 . S
C495 C488 1.500 . S
H496 C479 0.930 . S
H497 C480 0.931 . S
H498 C481 0.930 . S
H499 C482 0.930 . S
H500 C489 0.930 . S
H501 C491 0.931 . S
H502 C492 0.930 . S
H503 C493 0.930 . S
Tb504 N535 2.660 . S
Tb504 N542 2.600 . S
Tb504 O548 2.546 . S
Tb504 O549 2.610 . S
Tb504 O551 2.320 . S
Tb504 O552 2.552 . S
Tb504 O553 2.413 . S
Tb504 O555 2.362 . S
Tb504 O556 2.421 . S
Tb504 C568 2.833 . S
C505 C508 1.432 . S
C505 C509 1.414 . S
C505 N512 1.359 1_565 S
C506 C508 1.417 . S
C506 C510 1.432 . S
C506 C518 1.410 . S
C507 C509 1.444 . S
C507 C510 1.317 . S
C507 H530 0.929 . S
C508 C505 1.432 . S
C508 C506 1.417 . S
C508 N516 1.360 1_565 S
C509 C505 1.414 . S
C509 C507 1.444 . S
C509 C514 1.385 . S
C510 C506 1.432 . S
C510 C507 1.317 . S
C510 H522 0.930 . S
C511 C513 1.392 . S
C511 C514 1.370 1_545 S
C511 H523 0.931 . S
N512 C505 1.359 1_545 S
N512 C513 1.327 . S
N512 Tb515 2.600 . S
C513 C511 1.392 . S
C513 N512 1.327 . S
C513 H520 0.930 . S
C514 C509 1.385 . S
C514 C511 1.370 1_565 S
C514 H533 0.930 . S
Tb515 N512 2.600 . S
Tb515 N516 2.660 . S
Tb515 O549 2.362 . S
Tb515 O550 2.421 . S
Tb515 O554 2.546 . S
Tb515 O555 2.610 . S
Tb515 O557 2.320 . S
Tb515 O558 2.552 . S
Tb515 O559 2.413 . S
Tb515 C579 2.833 . S
N516 C508 1.360 1_545 S
N516 Tb515 2.660 . S
N516 C517 1.305 1_545 S
C517 N516 1.305 1_565 S
C517 C519 1.407 . S
C517 H524 0.930 1_565 S
C518 C506 1.410 . S
C518 C519 1.345 . S
C518 H526 0.930 . S
C519 C517 1.407 . S
C519 C518 1.345 . S
C519 H521 0.930 . S
H520 C513 0.930 . S
H521 C519 0.930 . S
H522 C510 0.930 . S
H523 C511 0.931 . S
H524 C517 0.930 1_545 S
H525 C539 0.930 . S
H526 C518 0.930 . S
H527 C545 0.930 . S
H528 C536 0.930 . S
H529 C543 0.931 . S
H530 C507 0.929 . S
H531 C537 0.930 . S
H532 C570 0.930 . S
H533 C514 0.930 . S
H534 C569 0.929 . S
N535 Tb504 2.660 . S
N535 C536 1.305 . S
N535 C540 1.360 . S
C536 H528 0.930 . S
C536 N535 1.305 . S
C536 C539 1.407 . S
C537 H531 0.930 . S
C537 C538 1.410 . S
C537 C539 1.345 . S
C538 C537 1.410 . S
C538 C540 1.417 . S
C538 C570 1.432 . S
C539 H525 0.930 . S
C539 C536 1.407 . S
C539 C537 1.345 . S
C540 N535 1.360 . S
C540 C538 1.417 . S
C540 C544 1.432 . S
H541 C546 0.930 . S
N542 Tb504 2.600 . S
N542 C544 1.359 . S
N542 C545 1.327 . S
C543 H529 0.931 . S
C543 C545 1.392 . S
C543 C546 1.370 . S
C544 C540 1.432 . S
C544 N542 1.359 . S
C544 C547 1.414 . S
C545 H527 0.930 . S
C545 N542 1.327 . S
C545 C543 1.392 . S
C546 H541 0.930 . S
C546 C543 1.370 . S
C546 C547 1.385 . S
C547 C544 1.414 . S
C547 C546 1.385 . S
C547 C569 1.444 . S
O548 Tb504 2.546 . S
O548 C568 1.251 . S
O549 Tb504 2.610 . S
O549 Tb515 2.362 . S
O549 C560 1.283 . S
O550 Tb515 2.421 . S
O550 C567 1.262 . S
O551 Tb504 2.320 . S
O551 C567 1.260 . S
O552 Tb504 2.552 . S
O552 C560 1.243 . S
O553 Tb504 2.413 . S
O553 C568 1.256 . S
O554 Tb515 2.546 . S
O554 C579 1.251 . S
O555 Tb504 2.362 . S
O555 Tb515 2.610 . S
O555 C571 1.283 . S
O556 Tb504 2.421 . S
O556 C578 1.262 . S
O557 Tb515 2.320 . S
O557 C578 1.260 . S
O558 Tb515 2.552 . S
O558 C571 1.243 . S
O559 Tb515 2.413 . S
O559 C579 1.256 . S
C560 O549 1.283 . S
C560 O552 1.243 . S
C561 C563 1.382 . S
C561 C565 1.393 . S
C561 C568 1.500 . S
C562 C563 1.400 1_565 S
C562 C564 1.384 . S
C563 C561 1.382 . S
C563 C562 1.400 1_545 S
C563 H580 0.930 . S
C564 C562 1.384 . S
C564 C566 1.392 1_565 S
C564 H581 0.931 . S
C565 C561 1.393 . S
C565 C566 1.401 . S
C565 H582 0.930 . S
C566 C564 1.392 1_545 S
C566 C565 1.401 . S
C566 H583 0.930 . S
C567 O550 1.262 . S
C567 O551 1.260 . S
C568 Tb504 2.833 . S
C568 O548 1.251 . S
C568 O553 1.256 . S
C568 C561 1.500 . S
C569 H534 0.929 . S
C569 C547 1.444 . S
C569 C570 1.317 . S
C570 H532 0.930 . S
C570 C538 1.432 . S
C570 C569 1.317 . S
C571 O555 1.283 . S
C571 O558 1.243 . S
C572 C573 1.382 . S
C572 C576 1.393 . S
C572 C579 1.500 . S
C573 C572 1.382 . S
C573 C574 1.400 . S
C573 H584 0.930 . S
C574 C573 1.400 . S
C574 C575 1.384 . S
C575 C574 1.384 . S
C575 C577 1.392 . S
C575 H585 0.931 . S
C576 C572 1.393 . S
C576 C577 1.401 . S
C576 H586 0.930 . S
C577 C575 1.392 . S
C577 C576 1.401 . S
C577 H587 0.930 . S
C578 O556 1.262 . S
C578 O557 1.260 . S
C579 Tb515 2.833 . S
C579 O554 1.251 . S
C579 O559 1.256 . S
C579 C572 1.500 . S
H580 C563 0.930 . S
H581 C564 0.931 . S
H582 C565 0.930 . S
H583 C566 0.930 . S
H584 C573 0.930 . S
H585 C575 0.931 . S
H586 C576 0.930 . S
H587 C577 0.930 . S
Tb588 N619 2.660 . S
Tb588 N626 2.600 . S
Tb588 O632 2.546 . S
Tb588 O633 2.610 . S
Tb588 O635 2.320 . S
Tb588 O636 2.552 . S
Tb588 O637 2.413 . S
Tb588 O639 2.362 . S
Tb588 O640 2.421 . S
Tb588 C652 2.833 . S
C589 C592 1.432 . S
C589 C593 1.414 . S
C589 N596 1.359 . S
C590 C592 1.417 . S
C590 C594 1.432 . S
C590 C602 1.410 . S
C591 C593 1.444 . S
C591 C594 1.317 . S
C591 H614 0.929 . S
C592 C589 1.432 . S
C592 C590 1.417 . S
C592 N600 1.360 . S
C593 C589 1.414 . S
C593 C591 1.444 . S
C593 C598 1.385 . S
C594 C590 1.432 . S
C594 C591 1.317 . S
C594 H606 0.930 . S
C595 C597 1.392 . S
C595 C598 1.370 . S
C595 H607 0.931 . S
N596 C589 1.359 . S
N596 C597 1.327 . S
N596 Tb599 2.600 . S
C597 C595 1.392 . S
C597 N596 1.327 . S
C597 H604 0.930 . S
C598 C593 1.385 . S
C598 C595 1.370 . S
C598 H617 0.930 . S
Tb599 N596 2.600 . S
Tb599 N600 2.660 . S
Tb599 O633 2.362 . S
Tb599 O634 2.421 . S
Tb599 O638 2.546 . S
Tb599 O639 2.610 . S
Tb599 O641 2.320 . S
Tb599 O642 2.552 . S
Tb599 O643 2.413 . S
Tb599 C663 2.833 . S
N600 C592 1.360 . S
N600 Tb599 2.660 . S
N600 C601 1.305 . S
C601 N600 1.305 . S
C601 C603 1.407 . S
C601 H608 0.930 . S
C602 C590 1.410 . S
C602 C603 1.345 . S
C602 H610 0.930 . S
C603 C601 1.407 . S
C603 C602 1.345 . S
C603 H605 0.930 . S
H604 C597 0.930 . S
H605 C603 0.930 . S
H606 C594 0.930 . S
H607 C595 0.931 . S
H608 C601 0.930 . S
H609 C623 0.930 . S
H610 C602 0.930 . S
H611 C629 0.930 . S
H612 C620 0.930 . S
H613 C627 0.931 . S
H614 C591 0.929 . S
H615 C621 0.930 . S
H616 C654 0.930 . S
H617 C598 0.930 . S
H618 C653 0.929 . S
N619 Tb588 2.660 . S
N619 C620 1.305 . S
N619 C624 1.360 . S
C620 H612 0.930 . S
C620 N619 1.305 . S
C620 C623 1.407 . S
C621 H615 0.930 . S
C621 C622 1.410 . S
C621 C623 1.345 . S
C622 C621 1.410 . S
C622 C624 1.417 . S
C622 C654 1.432 . S
C623 H609 0.930 . S
C623 C620 1.407 . S
C623 C621 1.345 . S
C624 N619 1.360 . S
C624 C622 1.417 . S
C624 C628 1.432 . S
H625 C630 0.930 . S
N626 Tb588 2.600 . S
N626 C628 1.359 . S
N626 C629 1.327 . S
C627 H613 0.931 . S
C627 C629 1.392 . S
C627 C630 1.370 . S
C628 C624 1.432 . S
C628 N626 1.359 . S
C628 C631 1.414 . S
C629 H611 0.930 . S
C629 N626 1.327 . S
C629 C627 1.392 . S
C630 H625 0.930 . S
C630 C627 1.370 . S
C630 C631 1.385 . S
C631 C628 1.414 . S
C631 C630 1.385 . S
C631 C653 1.444 . S
O632 Tb588 2.546 . S
O632 C652 1.251 . S
O633 Tb588 2.610 . S
O633 Tb599 2.362 . S
O633 C644 1.283 . S
O634 Tb599 2.421 . S
O634 C651 1.262 . S
O635 Tb588 2.320 . S
O635 C651 1.260 . S
O636 Tb588 2.552 . S
O636 C644 1.243 . S
O637 Tb588 2.413 . S
O637 C652 1.256 . S
O638 Tb599 2.546 . S
O638 C663 1.251 . S
O639 Tb588 2.362 . S
O639 Tb599 2.610 . S
O639 C655 1.283 . S
O640 Tb588 2.421 . S
O640 C662 1.262 . S
O641 Tb599 2.320 . S
O641 C662 1.260 . S
O642 Tb599 2.552 . S
O642 C655 1.243 . S
O643 Tb599 2.413 . S
O643 C663 1.256 . S
C644 O633 1.283 . S
C644 O636 1.243 . S
C645 C647 1.382 . S
C645 C649 1.393 . S
C645 C652 1.500 . S
C646 C647 1.400 . S
C646 C648 1.384 . S
C647 C645 1.382 . S
C647 C646 1.400 . S
C647 H664 0.930 . S
C648 C646 1.384 . S
C648 C650 1.392 . S
C648 H665 0.931 . S
C649 C645 1.393 . S
C649 C650 1.401 . S
C649 H666 0.930 . S
C650 C648 1.392 . S
C650 C649 1.401 . S
C650 H667 0.930 . S
C651 O634 1.262 . S
C651 O635 1.260 . S
C652 Tb588 2.833 . S
C652 O632 1.251 . S
C652 O637 1.256 . S
C652 C645 1.500 . S
C653 H618 0.929 . S
C653 C631 1.444 . S
C653 C654 1.317 . S
C654 H616 0.930 . S
C654 C622 1.432 . S
C654 C653 1.317 . S
C655 O639 1.283 . S
C655 O642 1.243 . S
C656 C657 1.382 . S
C656 C660 1.393 . S
C656 C663 1.500 . S
C657 C656 1.382 . S
C657 C658 1.400 . S
C657 H668 0.930 . S
C658 C657 1.400 . S
C658 C659 1.384 . S
C659 C658 1.384 . S
C659 C661 1.392 . S
C659 H669 0.931 . S
C660 C656 1.393 . S
C660 C661 1.401 . S
C660 H670 0.930 . S
C661 C659 1.392 . S
C661 C660 1.401 . S
C661 H671 0.930 . S
C662 O640 1.262 . S
C662 O641 1.260 . S
C663 Tb599 2.833 . S
C663 O638 1.251 . S
C663 O643 1.256 . S
C663 C656 1.500 . S
H664 C647 0.930 . S
H665 C648 0.931 . S
H666 C649 0.930 . S
H667 C650 0.930 . S
H668 C657 0.930 . S
H669 C659 0.931 . S
H670 C660 0.930 . S
H671 C661 0.930 . S
Tb672 N703 2.660 . S
Tb672 N710 2.600 . S
Tb672 O716 2.546 . S
Tb672 O717 2.610 . S
Tb672 O719 2.320 . S
Tb672 O720 2.552 . S
Tb672 O721 2.413 . S
Tb672 O723 2.362 . S
Tb672 O724 2.421 . S
Tb672 C736 2.833 . S
C673 C676 1.432 . S
C673 C677 1.414 . S
C673 N680 1.359 . S
C674 C676 1.417 . S
C674 C678 1.432 . S
C674 C686 1.410 . S
C675 C677 1.444 . S
C675 C678 1.317 . S
C675 H698 0.929 . S
C676 C673 1.432 . S
C676 C674 1.417 . S
C676 N684 1.360 . S
C677 C673 1.414 . S
C677 C675 1.444 . S
C677 C682 1.385 . S
C678 C674 1.432 . S
C678 C675 1.317 . S
C678 H690 0.930 . S
C679 C681 1.393 . S
C679 C682 1.370 . S
C679 H691 0.931 . S
N680 C673 1.359 . S
N680 C681 1.327 . S
N680 Tb683 2.600 1_565 S
C681 C679 1.393 . S
C681 N680 1.327 . S
C681 H688 0.929 1_565 S
C682 C677 1.385 . S
C682 C679 1.370 . S
C682 H701 0.930 . S
Tb683 N680 2.600 1_545 S
Tb683 N684 2.660 1_545 S
Tb683 O717 2.362 . S
Tb683 O718 2.421 . S
Tb683 O722 2.546 1_545 S
Tb683 O723 2.610 . S
Tb683 O725 2.320 . S
Tb683 O726 2.552 . S
Tb683 O727 2.413 1_545 S
Tb683 C747 2.833 1_545 S
N684 C676 1.360 . S
N684 Tb683 2.660 1_565 S
N684 C685 1.305 . S
C685 N684 1.305 . S
C685 C687 1.407 1_455 S
C685 H692 0.930 . S
C686 C674 1.410 . S
C686 C687 1.345 1_455 S
C686 H694 0.930 1_455 S
C687 C685 1.407 1_655 S
C687 C686 1.345 1_655 S
C687 H689 0.930 . S
H688 C681 0.929 1_545 S
H689 C687 0.930 . S
H690 C678 0.930 . S
H691 C679 0.931 . S
H692 C685 0.930 . S
H693 C707 0.930 . S
H694 C686 0.930 1_655 S
H695 C713 0.930 1_655 S
H696 C704 0.930 . S
H697 C711 0.931 . S
H698 C675 0.929 . S
H699 C705 0.930 . S
H700 C738 0.930 . S
H701 C682 0.930 . S
H702 C737 0.929 . S
N703 Tb672 2.660 . S
N703 C704 1.305 . S
N703 C708 1.360 . S
C704 H696 0.930 . S
C704 N703 1.305 . S
C704 C707 1.407 . S
C705 H699 0.930 . S
C705 C706 1.410 . S
C705 C707 1.345 . S
C706 C705 1.410 . S
C706 C708 1.417 . S
C706 C738 1.432 . S
C707 H693 0.930 . S
C707 C704 1.407 . S
C707 C705 1.345 . S
C708 N703 1.360 . S
C708 C706 1.417 . S
C708 C712 1.432 . S
H709 C714 0.930 . S
N710 Tb672 2.600 . S
N710 C712 1.359 . S
N710 C713 1.327 . S
C711 H697 0.931 . S
C711 C713 1.392 1_655 S
C711 C714 1.370 1_655 S
C712 C708 1.432 . S
C712 N710 1.359 . S
C712 C715 1.414 . S
C713 H695 0.930 1_455 S
C713 N710 1.327 . S
C713 C711 1.392 1_455 S
C714 H709 0.930 . S
C714 C711 1.370 1_455 S
C714 C715 1.385 . S
C715 C712 1.414 . S
C715 C714 1.385 . S
C715 C737 1.444 . S
O716 Tb672 2.546 . S
O716 C736 1.251 . S
O717 Tb672 2.610 . S
O717 Tb683 2.362 . S
O717 C728 1.283 . S
O718 Tb683 2.421 . S
O718 C735 1.262 . S
O719 Tb672 2.320 . S
O719 C735 1.260 . S
O720 Tb672 2.552 . S
O720 C728 1.243 . S
O721 Tb672 2.413 . S
O721 C736 1.256 . S
O722 Tb683 2.546 1_565 S
O722 C747 1.251 . S
O723 Tb672 2.362 . S
O723 Tb683 2.610 . S
O723 C739 1.283 . S
O724 Tb672 2.421 . S
O724 C746 1.262 . S
O725 Tb683 2.320 . S
O725 C746 1.260 . S
O726 Tb683 2.552 . S
O726 C739 1.243 . S
O727 Tb683 2.413 1_565 S
O727 C747 1.256 . S
C728 O717 1.283 . S
C728 O720 1.243 . S
C729 C731 1.382 . S
C729 C733 1.393 . S
C729 C736 1.500 . S
C730 C731 1.400 . S
C730 C732 1.384 . S
C731 C729 1.382 . S
C731 C730 1.400 . S
C731 H748 0.930 . S
C732 C730 1.384 . S
C732 C734 1.392 . S
C732 H749 0.931 . S
C733 C729 1.393 . S
C733 C734 1.401 . S
C733 H750 0.930 . S
C734 C732 1.392 . S
C734 C733 1.401 . S
C734 H751 0.930 . S
C735 O718 1.262 . S
C735 O719 1.260 . S
C736 Tb672 2.833 . S
C736 O716 1.251 . S
C736 O721 1.256 . S
C736 C729 1.500 . S
C737 H702 0.929 . S
C737 C715 1.444 . S
C737 C738 1.317 . S
C738 H700 0.930 . S
C738 C706 1.432 . S
C738 C737 1.317 . S
C739 O723 1.283 . S
C739 O726 1.243 . S
C740 C741 1.382 . S
C740 C744 1.393 . S
C740 C747 1.500 . S
C741 C740 1.382 . S
C741 C742 1.400 . S
C741 H752 0.930 . S
C742 C741 1.400 . S
C742 C743 1.384 . S
C743 C742 1.384 . S
C743 C745 1.392 . S
C743 H753 0.931 . S
C744 C740 1.393 . S
C744 C745 1.401 . S
C744 H754 0.930 . S
C745 C743 1.392 . S
C745 C744 1.401 . S
C745 H755 0.930 . S
C746 O724 1.262 . S
C746 O725 1.260 . S
C747 Tb683 2.833 1_565 S
C747 O722 1.251 . S
C747 O727 1.256 . S
C747 C740 1.500 . S
H748 C731 0.930 . S
H749 C732 0.931 . S
H750 C733 0.930 . S
H751 C734 0.930 . S
H752 C741 0.930 . S
H753 C743 0.931 . S
H754 C744 0.930 . S
H755 C745 0.930 . S
Tb756 N787 2.660 . S
Tb756 N794 2.600 . S
Tb756 O800 2.546 . S
Tb756 O801 2.610 . S
Tb756 O803 2.320 . S
Tb756 O804 2.552 . S
Tb756 O805 2.413 . S
Tb756 O807 2.362 . S
Tb756 O808 2.421 . S
Tb756 C820 2.833 . S
C757 C760 1.432 . S
C757 C761 1.414 . S
C757 N764 1.359 . S
C758 C760 1.417 . S
C758 C762 1.432 . S
C758 C770 1.410 . S
C759 C761 1.444 . S
C759 C762 1.317 . S
C759 H782 0.929 . S
C760 C757 1.432 . S
C760 C758 1.417 . S
C760 N768 1.360 . S
C761 C757 1.414 . S
C761 C759 1.444 . S
C761 C766 1.385 . S
C762 C758 1.432 . S
C762 C759 1.317 . S
C762 H774 0.930 . S
C763 C765 1.392 . S
C763 C766 1.370 . S
C763 H775 0.931 . S
N764 C757 1.359 . S
N764 C765 1.327 . S
N764 Tb767 2.600 . S
C765 C763 1.392 . S
C765 N764 1.327 . S
C765 H772 0.930 . S
C766 C761 1.385 . S
C766 C763 1.370 . S
C766 H785 0.930 . S
Tb767 N764 2.600 . S
Tb767 N768 2.660 . S
Tb767 O801 2.362 . S
Tb767 O802 2.421 . S
Tb767 O806 2.546 . S
Tb767 O807 2.610 . S
Tb767 O809 2.320 . S
Tb767 O810 2.552 . S
Tb767 O811 2.413 . S
Tb767 C831 2.833 . S
N768 C760 1.360 . S
N768 Tb767 2.660 . S
N768 C769 1.305 . S
C769 N768 1.305 . S
C769 C771 1.407 . S
C769 H776 0.930 . S
C770 C758 1.410 . S
C770 C771 1.345 . S
C770 H778 0.930 . S
C771 C769 1.407 . S
C771 C770 1.345 . S
C771 H773 0.930 . S
H772 C765 0.930 . S
H773 C771 0.930 . S
H774 C762 0.930 . S
H775 C763 0.931 . S
H776 C769 0.930 . S
H777 C791 0.930 . S
H778 C770 0.930 . S
H779 C797 0.930 . S
H780 C788 0.930 . S
H781 C795 0.931 . S
H782 C759 0.929 . S
H783 C789 0.930 . S
H784 C822 0.930 . S
H785 C766 0.930 . S
H786 C821 0.929 . S
N787 Tb756 2.660 . S
N787 C788 1.305 . S
N787 C792 1.360 . S
C788 H780 0.930 . S
C788 N787 1.305 . S
C788 C791 1.407 . S
C789 H783 0.930 . S
C789 C790 1.410 . S
C789 C791 1.345 . S
C790 C789 1.410 . S
C790 C792 1.417 . S
C790 C822 1.432 . S
C791 H777 0.930 . S
C791 C788 1.407 . S
C791 C789 1.345 . S
C792 N787 1.360 . S
C792 C790 1.417 . S
C792 C796 1.432 . S
H793 C798 0.930 . S
N794 Tb756 2.600 . S
N794 C796 1.359 . S
N794 C797 1.327 . S
C795 H781 0.931 . S
C795 C797 1.392 . S
C795 C798 1.370 . S
C796 C792 1.432 . S
C796 N794 1.359 . S
C796 C799 1.414 . S
C797 H779 0.930 . S
C797 N794 1.327 . S
C797 C795 1.392 . S
C798 H793 0.930 . S
C798 C795 1.370 . S
C798 C799 1.385 . S
C799 C796 1.414 . S
C799 C798 1.385 . S
C799 C821 1.444 . S
O800 Tb756 2.546 . S
O800 C820 1.251 . S
O801 Tb756 2.610 . S
O801 Tb767 2.362 . S
O801 C812 1.283 . S
O802 Tb767 2.421 . S
O802 C819 1.262 . S
O803 Tb756 2.320 . S
O803 C819 1.260 . S
O804 Tb756 2.552 . S
O804 C812 1.243 . S
O805 Tb756 2.413 . S
O805 C820 1.256 . S
O806 Tb767 2.546 . S
O806 C831 1.251 . S
O807 Tb756 2.362 . S
O807 Tb767 2.610 . S
O807 C823 1.283 . S
O808 Tb756 2.421 . S
O808 C830 1.262 . S
O809 Tb767 2.320 . S
O809 C830 1.260 . S
O810 Tb767 2.552 . S
O810 C823 1.243 . S
O811 Tb767 2.413 . S
O811 C831 1.256 . S
C812 O801 1.283 . S
C812 O804 1.243 . S
C813 C815 1.382 . S
C813 C817 1.393 . S
C813 C820 1.500 . S
C814 C815 1.400 . S
C814 C816 1.384 . S
C815 C813 1.382 . S
C815 C814 1.400 . S
C815 H832 0.930 . S
C816 C814 1.384 . S
C816 C818 1.392 . S
C816 H833 0.931 . S
C817 C813 1.393 . S
C817 C818 1.401 . S
C817 H834 0.930 . S
C818 C816 1.392 . S
C818 C817 1.401 . S
C818 H835 0.930 . S
C819 O802 1.262 . S
C819 O803 1.260 . S
C820 Tb756 2.833 . S
C820 O800 1.251 . S
C820 O805 1.256 . S
C820 C813 1.500 . S
C821 H786 0.929 . S
C821 C799 1.444 . S
C821 C822 1.317 . S
C822 H784 0.930 . S
C822 C790 1.432 . S
C822 C821 1.317 . S
C823 O807 1.283 . S
C823 O810 1.243 . S
C824 C825 1.382 . S
C824 C828 1.393 . S
C824 C831 1.500 . S
C825 C824 1.382 . S
C825 C826 1.400 . S
C825 H836 0.930 . S
C826 C825 1.400 . S
C826 C827 1.384 . S
C827 C826 1.384 . S
C827 C829 1.392 . S
C827 H837 0.931 . S
C828 C824 1.393 . S
C828 C829 1.401 . S
C828 H838 0.930 . S
C829 C827 1.392 . S
C829 C828 1.401 . S
C829 H839 0.930 . S
C830 O808 1.262 . S
C830 O809 1.260 . S
C831 Tb767 2.833 . S
C831 O806 1.251 . S
C831 O811 1.256 . S
C831 C824 1.500 . S
H832 C815 0.930 . S
H833 C816 0.931 . S
H834 C817 0.930 . S
H835 C818 0.930 . S
H836 C825 0.930 . S
H837 C827 0.931 . S
H838 C828 0.930 . S
H839 C829 0.930 . S
Tb840 N871 2.660 . S
Tb840 N878 2.600 . S
Tb840 O884 2.546 . S
Tb840 O885 2.610 . S
Tb840 O887 2.320 . S
Tb840 O888 2.552 . S
Tb840 O889 2.413 . S
Tb840 O891 2.362 . S
Tb840 O892 2.388 1_545 S
Tb840 C904 2.833 . S
C841 C844 1.432 . S
C841 C845 1.414 . S
C841 N848 1.359 . S
C842 C844 1.417 . S
C842 C846 1.432 . S
C842 C854 1.410 1_545 S
C843 C845 1.444 . S
C843 C846 1.317 . S
C843 H866 0.929 . S
C844 C841 1.432 . S
C844 C842 1.417 . S
C844 N852 1.360 . S
C845 C841 1.414 . S
C845 C843 1.444 . S
C845 C850 1.385 . S
C846 C842 1.432 . S
C846 C843 1.317 . S
C846 H858 0.930 . S
C847 C849 1.392 . S
C847 C850 1.370 . S
C847 H859 0.931 . S
N848 C841 1.359 . S
N848 C849 1.327 . S
N848 Tb851 2.600 . S
C849 C847 1.392 . S
C849 N848 1.327 . S
C849 H856 0.930 . S
C850 C845 1.385 . S
C850 C847 1.370 . S
C850 H869 0.930 . S
Tb851 N848 2.600 . S
Tb851 N852 2.660 . S
Tb851 O885 2.362 1_556 S
Tb851 O886 2.421 1_556 S
Tb851 O890 2.546 . S
Tb851 O891 2.610 1_556 S
Tb851 O893 2.320 . S
Tb851 O894 2.552 . S
Tb851 O895 2.413 . S
Tb851 C915 2.833 . S
N852 C844 1.360 . S
N852 Tb851 2.660 . S
N852 C853 1.305 1_545 S
C853 N852 1.305 1_565 S
C853 C855 1.407 . S
C853 H860 0.930 . S
C854 C842 1.410 1_565 S
C854 C855 1.345 . S
C854 H862 0.930 . S
C855 C853 1.407 . S
C855 C854 1.345 . S
C855 H857 0.930 . S
H856 C849 0.930 . S
H857 C855 0.930 . S
H858 C846 0.930 . S
H859 C847 0.931 . S
H860 C853 0.930 . S
H861 C875 0.930 . S
H862 C854 0.930 . S
H863 C881 0.930 . S
H864 C872 0.930 . S
H865 C879 0.931 . S
H866 C843 0.929 . S
H867 C873 0.930 . S
H868 C906 0.930 . S
H869 C850 0.930 . S
H870 C905 0.929 . S
N871 Tb840 2.660 . S
N871 C872 1.305 . S
N871 C876 1.360 . S
C872 H864 0.930 . S
C872 N871 1.305 . S
C872 C875 1.407 . S
C873 H867 0.930 . S
C873 C874 1.410 . S
C873 C875 1.345 . S
C874 C873 1.410 . S
C874 C876 1.417 . S
C874 C906 1.432 . S
C875 H861 0.930 . S
C875 C872 1.407 . S
C875 C873 1.345 . S
C876 N871 1.360 . S
C876 C874 1.417 . S
C876 C880 1.432 . S
H877 C882 0.930 . S
N878 Tb840 2.600 . S
N878 C880 1.359 . S
N878 C881 1.327 1_545 S
C879 H865 0.931 . S
C879 C881 1.392 . S
C879 C882 1.370 . S
C880 C876 1.432 . S
C880 N878 1.359 . S
C880 C883 1.414 . S
C881 H863 0.930 . S
C881 N878 1.327 1_565 S
C881 C879 1.392 . S
C882 H877 0.930 . S
C882 C879 1.370 . S
C882 C883 1.385 1_565 S
C883 C880 1.414 . S
C883 C882 1.385 1_545 S
C883 C905 1.444 . S
O884 Tb840 2.546 . S
O884 C904 1.251 . S
O885 Tb840 2.610 . S
O885 Tb851 2.362 1_554 S
O885 C896 1.283 . S
O886 Tb851 2.421 1_554 S
O886 C903 1.262 . S
O887 Tb840 2.320 . S
O887 C903 1.260 . S
O888 Tb840 2.552 . S
O888 C896 1.243 . S
O889 Tb840 2.413 . S
O889 C904 1.256 . S
O890 Tb851 2.546 . S
O890 C915 1.251 . S
O891 Tb840 2.362 . S
O891 Tb851 2.610 1_554 S
O891 C907 1.283 . S
O892 Tb840 2.388 1_565 S
O892 C914 1.249 1_564 S
O893 Tb851 2.320 . S
O893 C914 1.271 . S
O894 Tb851 2.552 . S
O894 C907 1.243 1_556 S
O895 Tb851 2.413 . S
O895 C915 1.256 . S
C896 O885 1.283 . S
C896 O888 1.243 . S
C897 C899 1.382 . S
C897 C901 1.393 1_545 S
C897 C904 1.500 . S
C898 C899 1.400 . S
C898 C900 1.384 . S
C899 C897 1.382 . S
C899 C898 1.400 . S
C899 H916 0.930 . S
C900 C898 1.384 . S
C900 C902 1.392 1_545 S
C900 H917 0.949 . S
C901 C897 1.393 1_565 S
C901 C902 1.401 . S
C901 H918 0.930 . S
C902 C900 1.392 1_565 S
C902 C901 1.401 . S
C902 H919 0.930 . S
C903 O886 1.262 . S
C903 O887 1.260 . S
C904 Tb840 2.833 . S
C904 O884 1.251 . S
C904 O889 1.256 . S
C904 C897 1.500 . S
C905 H870 0.929 . S
C905 C883 1.444 . S
C905 C906 1.317 . S
C906 H868 0.930 . S
C906 C874 1.432 . S
C906 C905 1.317 . S
C907 O891 1.283 . S
C907 O894 1.243 1_554 S
C908 C909 1.382 . S
C908 C912 1.393 . S
C908 C915 1.500 . S
C909 C908 1.382 . S
C909 C910 1.400 . S
C909 H920 0.930 . S
C910 C909 1.400 . S
C910 C911 1.384 . S
C911 C910 1.384 . S
C911 C913 1.392 . S
C911 H921 0.931 . S
C912 C908 1.393 . S
C912 C913 1.401 . S
C912 H922 0.930 . S
C913 C911 1.392 . S
C913 C912 1.401 . S
C913 H923 0.930 . S
C914 O892 1.249 1_546 S
C914 O893 1.271 . S
C915 Tb851 2.833 . S
C915 O890 1.251 . S
C915 O895 1.256 . S
C915 C908 1.500 . S
H916 C899 0.930 . S
H917 C900 0.949 . S
H918 C901 0.930 . S
H919 C902 0.930 . S
H920 C909 0.930 . S
H921 C911 0.931 . S
H922 C912 0.930 . S
H923 C913 0.930 . S
Tb924 N955 2.660 . S
Tb924 N962 2.600 . S
Tb924 O968 2.546 . S
Tb924 O969 2.610 . S
Tb924 O971 2.320 . S
Tb924 O972 2.552 . S
Tb924 O973 2.413 . S
Tb924 O975 2.362 . S
Tb924 O976 2.421 . S
Tb924 C988 2.833 . S
C925 C928 1.432 . S
C925 C929 1.414 . S
C925 N932 1.359 . S
C926 C928 1.417 . S
C926 C930 1.432 . S
C926 C938 1.410 . S
C927 C929 1.444 . S
C927 C930 1.317 . S
C927 H950 0.929 . S
C928 C925 1.432 . S
C928 C926 1.417 . S
C928 N936 1.360 . S
C929 C925 1.414 . S
C929 C927 1.444 . S
C929 C934 1.385 . S
C930 C926 1.432 . S
C930 C927 1.317 . S
C930 H942 0.930 . S
C931 C933 1.392 . S
C931 C934 1.370 . S
C931 H943 0.931 . S
N932 C925 1.359 . S
N932 C933 1.327 . S
N932 Tb935 2.600 . S
C933 C931 1.392 . S
C933 N932 1.327 . S
C933 H940 0.930 . S
C934 C929 1.385 . S
C934 C931 1.370 . S
C934 H953 0.930 . S
Tb935 N932 2.600 . S
Tb935 N936 2.660 . S
Tb935 O969 2.362 . S
Tb935 O970 2.421 . S
Tb935 O974 2.546 . S
Tb935 O975 2.610 . S
Tb935 O977 2.320 . S
Tb935 O978 2.552 . S
Tb935 O979 2.413 . S
Tb935 C999 2.833 . S
N936 C928 1.360 . S
N936 Tb935 2.660 . S
N936 C937 1.305 . S
C937 N936 1.305 . S
C937 C939 1.407 . S
C937 H944 0.930 . S
C938 C926 1.410 . S
C938 C939 1.345 . S
C938 H946 0.930 . S
C939 C937 1.407 . S
C939 C938 1.345 . S
C939 H941 0.930 . S
H940 C933 0.930 . S
H941 C939 0.930 . S
H942 C930 0.930 . S
H943 C931 0.931 . S
H944 C937 0.930 . S
H945 C959 0.930 . S
H946 C938 0.930 . S
H947 C965 0.930 . S
H948 C956 0.930 . S
H949 C963 0.931 . S
H950 C927 0.929 . S
H951 C957 0.930 . S
H952 C990 0.930 . S
H953 C934 0.930 . S
H954 C989 0.929 . S
N955 Tb924 2.660 . S
N955 C956 1.305 . S
N955 C960 1.360 . S
C956 H948 0.930 . S
C956 N955 1.305 . S
C956 C959 1.407 . S
C957 H951 0.930 . S
C957 C958 1.410 . S
C957 C959 1.345 . S
C958 C957 1.410 . S
C958 C960 1.417 . S
C958 C990 1.432 . S
C959 H945 0.930 . S
C959 C956 1.407 . S
C959 C957 1.345 . S
C960 N955 1.360 . S
C960 C958 1.417 . S
C960 C964 1.432 . S
H961 C966 0.930 . S
N962 Tb924 2.600 . S
N962 C964 1.359 . S
N962 C965 1.327 . S
C963 H949 0.931 . S
C963 C965 1.392 . S
C963 C966 1.370 . S
C964 C960 1.432 . S
C964 N962 1.359 . S
C964 C967 1.414 . S
C965 H947 0.930 . S
C965 N962 1.327 . S
C965 C963 1.392 . S
C966 H961 0.930 . S
C966 C963 1.370 . S
C966 C967 1.385 . S
C967 C964 1.414 . S
C967 C966 1.385 . S
C967 C989 1.444 . S
O968 Tb924 2.546 . S
O968 C988 1.251 . S
O969 Tb924 2.610 . S
O969 Tb935 2.362 . S
O969 C980 1.283 . S
O970 Tb935 2.421 . S
O970 C987 1.262 . S
O971 Tb924 2.320 . S
O971 C987 1.260 . S
O972 Tb924 2.552 . S
O972 C980 1.243 . S
O973 Tb924 2.413 . S
O973 C988 1.256 . S
O974 Tb935 2.546 . S
O974 C999 1.251 . S
O975 Tb924 2.362 . S
O975 Tb935 2.610 . S
O975 C991 1.283 . S
O976 Tb924 2.421 . S
O976 C998 1.262 . S
O977 Tb935 2.320 . S
O977 C998 1.260 . S
O978 Tb935 2.552 . S
O978 C991 1.243 . S
O979 Tb935 2.413 . S
O979 C999 1.256 . S
C980 O969 1.283 . S
C980 O972 1.243 . S
C981 C983 1.382 . S
C981 C985 1.393 . S
C981 C988 1.500 . S
C982 C983 1.400 . S
C982 C984 1.384 . S
C983 C981 1.382 . S
C983 C982 1.400 . S
C983 H1000 0.930 . S
C984 C982 1.384 . S
C984 C986 1.392 . S
C984 H1001 0.931 . S
C985 C981 1.393 . S
C985 C986 1.401 . S
C985 H1002 0.930 . S
C986 C984 1.392 . S
C986 C985 1.401 . S
C986 H1003 0.930 . S
C987 O970 1.262 . S
C987 O971 1.260 . S
C988 Tb924 2.833 . S
C988 O968 1.251 . S
C988 O973 1.256 . S
C988 C981 1.500 . S
C989 H954 0.929 . S
C989 C967 1.444 . S
C989 C990 1.317 . S
C990 H952 0.930 . S
C990 C958 1.432 . S
C990 C989 1.317 . S
C991 O975 1.283 . S
C991 O978 1.243 . S
C992 C993 1.382 . S
C992 C996 1.393 . S
C992 C999 1.500 . S
C993 C992 1.382 . S
C993 C994 1.400 . S
C993 H1004 0.930 . S
C994 C993 1.400 . S
C994 C995 1.384 . S
C995 C994 1.384 . S
C995 C997 1.392 . S
C995 H1005 0.931 . S
C996 C992 1.393 . S
C996 C997 1.401 . S
C996 H1006 0.930 . S
C997 C995 1.392 . S
C997 C996 1.401 . S
C997 H1007 0.930 . S
C998 O976 1.262 . S
C998 O977 1.260 . S
C999 Tb935 2.833 . S
C999 O974 1.251 . S
C999 O979 1.256 . S
C999 C992 1.500 . S
H1000 C983 0.930 . S
H1001 C984 0.931 . S
H1002 C985 0.930 . S
H1003 C986 0.930 . S
H1004 C993 0.930 . S
H1005 C995 0.931 . S
H1006 C996 0.930 . S
H1007 C997 0.930 . S
Tb1008 N1039 2.660 . S
Tb1008 N1046 2.600 . S
Tb1008 O1052 2.546 . S
Tb1008 O1053 2.610 1_554 S
Tb1008 O1055 2.320 . S
Tb1008 O1056 2.552 1_554 S
Tb1008 O1057 2.413 . S
Tb1008 O1059 2.362 . S
Tb1008 O1060 2.421 . S
Tb1008 C1072 2.833 . S
C1009 C1012 1.432 . S
C1009 C1013 1.414 . S
C1009 N1016 1.359 . S
C1010 C1012 1.417 . S
C1010 C1014 1.432 . S
C1010 C1022 1.410 . S
C1011 C1013 1.444 . S
C1011 C1014 1.317 . S
C1011 H1034 0.929 . S
C1012 C1009 1.432 . S
C1012 C1010 1.417 . S
C1012 N1020 1.360 . S
C1013 C1009 1.414 . S
C1013 C1011 1.444 . S
C1013 C1018 1.385 . S
C1014 C1010 1.432 . S
C1014 C1011 1.317 . S
C1014 H1026 0.930 . S
C1015 C1017 1.392 . S
C1015 C1018 1.370 . S
C1015 H1027 0.931 . S
N1016 C1009 1.359 . S
N1016 C1017 1.327 . S
N1016 Tb1019 2.600 1_556 S
C1017 C1015 1.392 . S
C1017 N1016 1.327 . S
C1017 H1024 0.930 . S
C1018 C1013 1.385 . S
C1018 C1015 1.370 . S
C1018 H1037 0.930 . S
Tb1019 N1016 2.600 1_554 S
Tb1019 N1020 2.660 1_554 S
Tb1019 O1053 2.362 1_554 S
Tb1019 O1054 2.421 . S
Tb1019 O1058 2.546 . S
Tb1019 O1059 2.610 . S
Tb1019 O1061 2.320 . S
Tb1019 O1062 2.552 . S
Tb1019 O1063 2.413 . S
Tb1019 C1083 2.833 . S
N1020 C1012 1.360 . S
N1020 Tb1019 2.660 1_556 S
N1020 C1021 1.305 . S
C1021 N1020 1.305 . S
C1021 C1023 1.407 . S
C1021 H1028 0.930 . S
C1022 C1010 1.410 . S
C1022 C1023 1.345 . S
C1022 H1030 0.930 . S
C1023 C1021 1.407 . S
C1023 C1022 1.345 . S
C1023 H1025 0.930 . S
H1024 C1017 0.930 . S
H1025 C1023 0.930 . S
H1026 C1014 0.930 . S
H1027 C1015 0.931 . S
H1028 C1021 0.930 . S
H1029 C1043 0.930 . S
H1030 C1022 0.930 . S
H1031 C1049 0.930 . S
H1032 C1040 0.930 . S
H1033 C1047 0.931 . S
H1034 C1011 0.929 . S
H1035 C1041 0.930 . S
H1036 C1074 0.930 . S
H1037 C1018 0.930 . S
H1038 C1073 0.929 . S
N1039 Tb1008 2.660 . S
N1039 C1040 1.305 . S
N1039 C1044 1.360 . S
C1040 H1032 0.930 . S
C1040 N1039 1.305 . S
C1040 C1043 1.407 . S
C1041 H1035 0.930 . S
C1041 C1042 1.410 . S
C1041 C1043 1.345 . S
C1042 C1041 1.410 . S
C1042 C1044 1.417 . S
C1042 C1074 1.432 . S
C1043 H1029 0.930 . S
C1043 C1040 1.407 . S
C1043 C1041 1.345 . S
C1044 N1039 1.360 . S
C1044 C1042 1.417 . S
C1044 C1048 1.432 . S
H1045 C1050 0.930 . S
N1046 Tb1008 2.600 . S
N1046 C1048 1.359 . S
N1046 C1049 1.327 . S
C1047 H1033 0.931 . S
C1047 C1049 1.392 . S
C1047 C1050 1.370 . S
C1048 C1044 1.432 . S
C1048 N1046 1.359 . S
C1048 C1051 1.414 . S
C1049 H1031 0.930 . S
C1049 N1046 1.327 . S
C1049 C1047 1.392 . S
C1050 H1045 0.930 . S
C1050 C1047 1.370 . S
C1050 C1051 1.385 . S
C1051 C1048 1.414 . S
C1051 C1050 1.385 . S
C1051 C1073 1.444 . S
O1052 Tb1008 2.546 . S
O1052 C1072 1.251 . S
O1053 Tb1008 2.610 1_556 S
O1053 Tb1019 2.362 1_556 S
O1053 C1064 1.283 . S
O1054 Tb1019 2.421 . S
O1054 C1071 1.262 . S
O1055 Tb1008 2.320 . S
O1055 C1071 1.260 . S
O1056 Tb1008 2.552 1_556 S
O1056 C1064 1.243 . S
O1057 Tb1008 2.413 . S
O1057 C1072 1.256 . S
O1058 Tb1019 2.546 . S
O1058 C1083 1.251 . S
O1059 Tb1008 2.362 . S
O1059 Tb1019 2.610 . S
O1059 C1075 1.283 . S
O1060 Tb1008 2.421 . S
O1060 C1082 1.262 . S
O1061 Tb1019 2.320 . S
O1061 C1082 1.260 . S
O1062 Tb1019 2.552 . S
O1062 C1075 1.243 . S
O1063 Tb1019 2.413 . S
O1063 C1083 1.256 . S
C1064 O1053 1.283 . S
C1064 O1056 1.243 . S
C1065 C1067 1.382 . S
C1065 C1069 1.393 . S
C1065 C1072 1.500 . S
C1066 C1067 1.422 . S
C1066 C1068 1.397 . S
C1067 C1065 1.382 . S
C1067 C1066 1.422 . S
C1067 H1084 0.930 . S
C1068 C1066 1.397 . S
C1068 C1070 1.392 . S
C1068 H1085 0.931 . S
C1069 C1065 1.393 . S
C1069 C1070 1.401 . S
C1069 H1086 0.930 . S
C1070 C1068 1.392 . S
C1070 C1069 1.401 . S
C1070 H1087 0.930 . S
C1071 O1054 1.262 . S
C1071 O1055 1.260 . S
C1072 Tb1008 2.833 . S
C1072 O1052 1.251 . S
C1072 O1057 1.256 . S
C1072 C1065 1.500 . S
C1073 H1038 0.929 . S
C1073 C1051 1.444 . S
C1073 C1074 1.317 . S
C1074 H1036 0.930 . S
C1074 C1042 1.432 . S
C1074 C1073 1.317 . S
C1075 O1059 1.283 . S
C1075 O1062 1.243 . S
C1076 C1077 1.382 . S
C1076 C1080 1.393 . S
C1076 C1083 1.500 . S
C1077 C1076 1.382 . S
C1077 C1078 1.400 . S
C1077 H1088 0.930 . S
C1078 C1077 1.400 . S
C1078 C1079 1.384 . S
C1079 C1078 1.384 . S
C1079 C1081 1.392 . S
C1079 H1089 0.931 . S
C1080 C1076 1.393 . S
C1080 C1081 1.401 . S
C1080 H1090 0.930 . S
C1081 C1079 1.392 . S
C1081 C1080 1.401 . S
C1081 H1091 0.930 . S
C1082 O1060 1.262 . S
C1082 O1061 1.260 . S
C1083 Tb1019 2.833 . S
C1083 O1058 1.251 . S
C1083 O1063 1.256 . S
C1083 C1076 1.500 . S
H1084 C1067 0.930 . S
H1085 C1068 0.931 . S
H1086 C1069 0.930 . S
H1087 C1070 0.930 . S
H1088 C1077 0.930 . S
H1089 C1079 0.931 . S
H1090 C1080 0.930 . S
H1091 C1081 0.930 . S
Tb1092 N1123 2.660 . S
Tb1092 N1130 2.600 . S
Tb1092 O1136 2.546 . S
Tb1092 O1137 2.610 . S
Tb1092 O1139 2.320 . S
Tb1092 O1140 2.552 . S
Tb1092 O1141 2.413 . S
Tb1092 O1143 2.362 . S
Tb1092 O1144 2.421 . S
Tb1092 C1156 2.833 . S
C1093 C1096 1.432 . S
C1093 C1097 1.414 . S
C1093 N1100 1.359 . S
C1094 C1096 1.417 . S
C1094 C1098 1.432 . S
C1094 C1106 1.410 . S
C1095 C1097 1.444 . S
C1095 C1098 1.317 . S
C1095 H1118 0.929 . S
C1096 C1093 1.432 . S
C1096 C1094 1.417 . S
C1096 N1104 1.360 . S
C1097 C1093 1.414 . S
C1097 C1095 1.444 . S
C1097 C1102 1.385 . S
C1098 C1094 1.432 . S
C1098 C1095 1.317 . S
C1098 H1110 0.930 . S
C1099 C1101 1.392 . S
C1099 C1102 1.370 . S
C1099 H1111 0.931 . S
N1100 C1093 1.359 . S
N1100 C1101 1.327 . S
N1100 Tb1103 2.600 . S
C1101 C1099 1.392 . S
C1101 N1100 1.327 . S
C1101 H1108 0.930 . S
C1102 C1097 1.385 . S
C1102 C1099 1.370 . S
C1102 H1121 0.930 . S
Tb1103 N1100 2.600 . S
Tb1103 N1104 2.660 . S
Tb1103 O1137 2.362 . S
Tb1103 O1138 2.421 . S
Tb1103 O1142 2.546 . S
Tb1103 O1143 2.610 . S
Tb1103 O1145 2.320 . S
Tb1103 O1146 2.552 . S
Tb1103 O1147 2.413 . S
Tb1103 C1167 2.833 . S
N1104 C1096 1.360 . S
N1104 Tb1103 2.660 . S
N1104 C1105 1.305 . S
C1105 N1104 1.305 . S
C1105 C1107 1.407 . S
C1105 H1112 0.930 . S
C1106 C1094 1.410 . S
C1106 C1107 1.345 . S
C1106 H1114 0.930 . S
C1107 C1105 1.407 . S
C1107 C1106 1.345 . S
C1107 H1109 0.930 . S
H1108 C1101 0.930 . S
H1109 C1107 0.930 . S
H1110 C1098 0.930 . S
H1111 C1099 0.931 . S
H1112 C1105 0.930 . S
H1113 C1127 0.930 . S
H1114 C1106 0.930 . S
H1115 C1133 0.930 . S
H1116 C1124 0.930 . S
H1117 C1131 0.931 . S
H1118 C1095 0.929 . S
H1119 C1125 0.930 . S
H1120 C1158 0.930 . S
H1121 C1102 0.930 . S
H1122 C1157 0.929 . S
N1123 Tb1092 2.660 . S
N1123 C1124 1.305 . S
N1123 C1128 1.360 . S
C1124 H1116 0.930 . S
C1124 N1123 1.305 . S
C1124 C1127 1.407 . S
C1125 H1119 0.930 . S
C1125 C1126 1.410 . S
C1125 C1127 1.345 . S
C1126 C1125 1.410 . S
C1126 C1128 1.417 . S
C1126 C1158 1.432 . S
C1127 H1113 0.930 . S
C1127 C1124 1.407 . S
C1127 C1125 1.345 . S
C1128 N1123 1.360 . S
C1128 C1126 1.417 . S
C1128 C1132 1.432 . S
H1129 C1134 0.930 . S
N1130 Tb1092 2.600 . S
N1130 C1132 1.359 . S
N1130 C1133 1.327 . S
C1131 H1117 0.931 . S
C1131 C1133 1.392 . S
C1131 C1134 1.370 . S
C1132 C1128 1.432 . S
C1132 N1130 1.359 . S
C1132 C1135 1.414 . S
C1133 H1115 0.930 . S
C1133 N1130 1.327 . S
C1133 C1131 1.392 . S
C1134 H1129 0.930 . S
C1134 C1131 1.370 . S
C1134 C1135 1.385 . S
C1135 C1132 1.414 . S
C1135 C1134 1.385 . S
C1135 C1157 1.444 . S
O1136 Tb1092 2.546 . S
O1136 C1156 1.251 . S
O1137 Tb1092 2.610 . S
O1137 Tb1103 2.362 . S
O1137 C1148 1.283 . S
O1138 Tb1103 2.421 . S
O1138 C1155 1.262 . S
O1139 Tb1092 2.320 . S
O1139 C1155 1.260 . S
O1140 Tb1092 2.552 . S
O1140 C1148 1.243 . S
O1141 Tb1092 2.413 . S
O1141 C1156 1.256 . S
O1142 Tb1103 2.546 . S
O1142 C1167 1.251 . S
O1143 Tb1092 2.362 . S
O1143 Tb1103 2.610 . S
O1143 C1159 1.283 . S
O1144 Tb1092 2.421 . S
O1144 C1166 1.262 . S
O1145 Tb1103 2.320 . S
O1145 C1166 1.260 . S
O1146 Tb1103 2.552 . S
O1146 C1159 1.243 . S
O1147 Tb1103 2.413 . S
O1147 C1167 1.256 . S
C1148 O1137 1.283 . S
C1148 O1140 1.243 . S
C1149 C1151 1.382 . S
C1149 C1153 1.393 . S
C1149 C1156 1.500 . S
C1150 C1151 1.400 . S
C1150 C1152 1.384 . S
C1151 C1149 1.382 . S
C1151 C1150 1.400 . S
C1151 H1168 0.930 . S
C1152 C1150 1.384 . S
C1152 C1154 1.392 . S
C1152 H1169 0.931 . S
C1153 C1149 1.393 . S
C1153 C1154 1.401 . S
C1153 H1170 0.930 . S
C1154 C1152 1.392 . S
C1154 C1153 1.401 . S
C1154 H1171 0.930 . S
C1155 O1138 1.262 . S
C1155 O1139 1.260 . S
C1156 Tb1092 2.833 . S
C1156 O1136 1.251 . S
C1156 O1141 1.256 . S
C1156 C1149 1.500 . S
C1157 H1122 0.929 . S
C1157 C1135 1.444 . S
C1157 C1158 1.317 . S
C1158 H1120 0.930 . S
C1158 C1126 1.432 . S
C1158 C1157 1.317 . S
C1159 O1143 1.283 . S
C1159 O1146 1.243 . S
C1160 C1161 1.382 . S
C1160 C1164 1.393 . S
C1160 C1167 1.500 . S
C1161 C1160 1.382 . S
C1161 C1162 1.400 . S
C1161 H1172 0.930 . S
C1162 C1161 1.400 . S
C1162 C1163 1.384 . S
C1163 C1162 1.384 . S
C1163 C1165 1.392 . S
C1163 H1173 0.931 . S
C1164 C1160 1.393 . S
C1164 C1165 1.401 . S
C1164 H1174 0.930 . S
C1165 C1163 1.392 . S
C1165 C1164 1.401 . S
C1165 H1175 0.930 . S
C1166 O1144 1.262 . S
C1166 O1145 1.260 . S
C1167 Tb1103 2.833 . S
C1167 O1142 1.251 . S
C1167 O1147 1.256 . S
C1167 C1160 1.500 . S
H1168 C1151 0.930 . S
H1169 C1152 0.931 . S
H1170 C1153 0.930 . S
H1171 C1154 0.930 . S
H1172 C1161 0.930 . S
H1173 C1163 0.931 . S
H1174 C1164 0.930 . S
H1175 C1165 0.930 . S
Tb1176 N1207 2.660 . S
Tb1176 N1214 2.600 . S
Tb1176 O1220 2.546 . S
Tb1176 O1221 2.610 . S
Tb1176 O1223 2.320 . S
Tb1176 O1224 2.552 . S
Tb1176 O1225 2.413 . S
Tb1176 O1227 2.362 . S
Tb1176 O1228 2.421 . S
Tb1176 C1240 2.833 . S
C1177 C1180 1.429 . S
C1177 C1181 1.414 1_455 S
C1177 N1184 1.359 . S
C1178 C1180 1.399 1_655 S
C1178 C1182 1.432 . S
C1178 C1190 1.410 . S
C1179 C1181 1.444 . S
C1179 C1182 1.317 . S
C1179 H1202 0.929 . S
C1180 C1177 1.429 . S
C1180 C1178 1.399 1_455 S
C1180 N1188 1.381 . S
C1181 C1177 1.414 1_655 S
C1181 C1179 1.444 . S
C1181 C1186 1.385 . S
C1182 C1178 1.432 . S
C1182 C1179 1.317 . S
C1182 H1194 0.930 . S
C1183 C1185 1.392 . S
C1183 C1186 1.370 1_455 S
C1183 H1195 0.931 . S
N1184 C1177 1.359 . S
N1184 C1185 1.327 . S
N1184 Tb1187 2.600 . S
C1185 C1183 1.392 . S
C1185 N1184 1.327 . S
C1185 H1192 0.930 . S
C1186 C1181 1.385 . S
C1186 C1183 1.370 1_655 S
C1186 H1205 0.930 . S
Tb1187 N1184 2.600 . S
Tb1187 N1188 2.660 . S
Tb1187 O1221 2.362 . S
Tb1187 O1222 2.421 . S
Tb1187 O1226 2.546 . S
Tb1187 O1227 2.610 . S
Tb1187 O1229 2.320 . S
Tb1187 O1230 2.552 . S
Tb1187 O1231 2.413 . S
Tb1187 C1251 2.833 . S
N1188 C1180 1.381 . S
N1188 Tb1187 2.660 . S
N1188 C1189 1.305 . S
C1189 N1188 1.305 . S
C1189 C1191 1.407 1_455 S
C1189 H1196 0.930 . S
C1190 C1178 1.410 . S
C1190 C1191 1.345 . S
C1190 H1198 0.930 . S
C1191 C1189 1.407 1_655 S
C1191 C1190 1.345 . S
C1191 H1193 0.930 . S
H1192 C1185 0.930 . S
H1193 C1191 0.930 . S
H1194 C1182 0.930 . S
H1195 C1183 0.931 . S
H1196 C1189 0.930 . S
H1197 C1211 0.930 . S
H1198 C1190 0.930 . S
H1199 C1217 0.930 . S
H1200 C1208 0.930 . S
H1201 C1215 0.931 . S
H1202 C1179 0.929 . S
H1203 C1209 0.930 . S
H1204 C1242 0.930 . S
H1205 C1186 0.930 . S
H1206 C1241 0.929 . S
N1207 Tb1176 2.660 . S
N1207 C1208 1.305 . S
N1207 C1212 1.360 . S
C1208 H1200 0.930 . S
C1208 N1207 1.305 . S
C1208 C1211 1.407 . S
C1209 H1203 0.930 . S
C1209 C1210 1.410 . S
C1209 C1211 1.345 . S
C1210 C1209 1.410 . S
C1210 C1212 1.417 . S
C1210 C1242 1.432 . S
C1211 H1197 0.930 . S
C1211 C1208 1.407 . S
C1211 C1209 1.345 . S
C1212 N1207 1.360 . S
C1212 C1210 1.417 . S
C1212 C1216 1.432 . S
H1213 C1218 0.930 . S
N1214 Tb1176 2.600 . S
N1214 C1216 1.359 . S
N1214 C1217 1.327 . S
C1215 H1201 0.931 . S
C1215 C1217 1.392 . S
C1215 C1218 1.370 . S
C1216 C1212 1.432 . S
C1216 N1214 1.359 . S
C1216 C1219 1.414 . S
C1217 H1199 0.930 . S
C1217 N1214 1.327 . S
C1217 C1215 1.392 . S
C1218 H1213 0.930 . S
C1218 C1215 1.370 . S
C1218 C1219 1.385 . S
C1219 C1216 1.414 . S
C1219 C1218 1.385 . S
C1219 C1241 1.444 . S
O1220 Tb1176 2.546 . S
O1220 C1240 1.251 . S
O1221 Tb1176 2.610 . S
O1221 Tb1187 2.362 . S
O1221 C1232 1.283 . S
O1222 Tb1187 2.421 . S
O1222 C1239 1.262 . S
O1223 Tb1176 2.320 . S
O1223 C1239 1.260 . S
O1224 Tb1176 2.552 . S
O1224 C1232 1.243 . S
O1225 Tb1176 2.413 . S
O1225 C1240 1.256 . S
O1226 Tb1187 2.546 . S
O1226 C1251 1.251 . S
O1227 Tb1176 2.362 . S
O1227 Tb1187 2.610 . S
O1227 C1243 1.283 . S
O1228 Tb1176 2.421 . S
O1228 C1250 1.262 . S
O1229 Tb1187 2.320 . S
O1229 C1250 1.260 . S
O1230 Tb1187 2.552 . S
O1230 C1243 1.243 . S
O1231 Tb1187 2.413 . S
O1231 C1251 1.256 . S
C1232 O1221 1.283 . S
C1232 O1224 1.243 . S
C1233 C1235 1.382 . S
C1233 C1237 1.393 . S
C1233 C1240 1.500 . S
C1234 C1235 1.400 . S
C1234 C1236 1.384 . S
C1235 C1233 1.382 . S
C1235 C1234 1.400 . S
C1235 H1252 0.930 . S
C1236 C1234 1.384 . S
C1236 C1238 1.392 . S
C1236 H1253 0.931 . S
C1237 C1233 1.393 . S
C1237 C1238 1.401 . S
C1237 H1254 0.930 . S
C1238 C1236 1.392 . S
C1238 C1237 1.401 . S
C1238 H1255 0.930 . S
C1239 O1222 1.262 . S
C1239 O1223 1.260 . S
C1240 Tb1176 2.833 . S
C1240 O1220 1.251 . S
C1240 O1225 1.256 . S
C1240 C1233 1.500 . S
C1241 H1206 0.929 . S
C1241 C1219 1.444 . S
C1241 C1242 1.317 . S
C1242 H1204 0.930 . S
C1242 C1210 1.432 . S
C1242 C1241 1.317 . S
C1243 O1227 1.283 . S
C1243 O1230 1.243 . S
C1244 C1245 1.382 . S
C1244 C1248 1.393 . S
C1244 C1251 1.500 . S
C1245 C1244 1.382 . S
C1245 C1246 1.400 . S
C1245 H1256 0.930 . S
C1246 C1245 1.400 . S
C1246 C1247 1.384 . S
C1247 C1246 1.384 . S
C1247 C1249 1.392 . S
C1247 H1257 0.931 . S
C1248 C1244 1.393 . S
C1248 C1249 1.401 . S
C1248 H1258 0.930 . S
C1249 C1247 1.392 . S
C1249 C1248 1.401 . S
C1249 H1259 0.930 . S
C1250 O1228 1.262 . S
C1250 O1229 1.260 . S
C1251 Tb1187 2.833 . S
C1251 O1226 1.251 . S
C1251 O1231 1.256 . S
C1251 C1244 1.500 . S
H1252 C1235 0.930 . S
H1253 C1236 0.931 . S
H1254 C1237 0.930 . S
H1255 C1238 0.930 . S
H1256 C1245 0.930 . S
H1257 C1247 0.931 . S
H1258 C1248 0.930 . S
H1259 C1249 0.930 . S
Tb1260 N1291 2.660 . S
Tb1260 N1298 2.600 . S
Tb1260 O1304 2.546 . S
Tb1260 O1305 2.610 . S
Tb1260 O1307 2.320 . S
Tb1260 O1308 2.552 . S
Tb1260 O1309 2.413 . S
Tb1260 O1311 2.362 . S
Tb1260 O1312 2.421 . S
Tb1260 C1324 2.833 . S
C1261 C1264 1.432 . S
C1261 C1265 1.414 . S
C1261 N1268 1.359 . S
C1262 C1264 1.417 . S
C1262 C1266 1.432 . S
C1262 C1274 1.410 . S
C1263 C1265 1.444 . S
C1263 C1266 1.317 . S
C1263 H1286 0.929 . S
C1264 C1261 1.432 . S
C1264 C1262 1.417 . S
C1264 N1272 1.360 . S
C1265 C1261 1.414 . S
C1265 C1263 1.444 . S
C1265 C1270 1.385 . S
C1266 C1262 1.432 . S
C1266 C1263 1.317 . S
C1266 H1278 0.930 . S
C1267 C1269 1.392 . S
C1267 C1270 1.370 . S
C1267 H1279 0.931 . S
N1268 C1261 1.359 . S
N1268 C1269 1.327 . S
N1268 Tb1271 2.600 . S
C1269 C1267 1.392 . S
C1269 N1268 1.327 . S
C1269 H1276 0.930 . S
C1270 C1265 1.385 . S
C1270 C1267 1.370 . S
C1270 H1289 0.930 . S
Tb1271 N1268 2.600 . S
Tb1271 N1272 2.660 . S
Tb1271 O1305 2.362 . S
Tb1271 O1306 2.421 . S
Tb1271 O1310 2.546 . S
Tb1271 O1311 2.610 . S
Tb1271 O1313 2.320 . S
Tb1271 O1314 2.552 . S
Tb1271 O1315 2.413 . S
Tb1271 C1335 2.833 . S
N1272 C1264 1.360 . S
N1272 Tb1271 2.660 . S
N1272 C1273 1.305 . S
C1273 N1272 1.305 . S
C1273 C1275 1.407 . S
C1273 H1280 0.930 . S
C1274 C1262 1.410 . S
C1274 C1275 1.345 . S
C1274 H1282 0.930 . S
C1275 C1273 1.407 . S
C1275 C1274 1.345 . S
C1275 H1277 0.930 . S
H1276 C1269 0.930 . S
H1277 C1275 0.930 . S
H1278 C1266 0.930 . S
H1279 C1267 0.931 . S
H1280 C1273 0.930 . S
H1281 C1295 0.930 . S
H1282 C1274 0.930 . S
H1283 C1301 0.930 . S
H1284 C1292 0.930 . S
H1285 C1299 0.931 . S
H1286 C1263 0.929 . S
H1287 C1293 0.930 . S
H1288 C1326 0.930 . S
H1289 C1270 0.930 . S
H1290 C1325 0.929 . S
N1291 Tb1260 2.660 . S
N1291 C1292 1.305 . S
N1291 C1296 1.360 . S
C1292 H1284 0.930 . S
C1292 N1291 1.305 . S
C1292 C1295 1.407 . S
C1293 H1287 0.930 . S
C1293 C1294 1.410 . S
C1293 C1295 1.345 . S
C1294 C1293 1.410 . S
C1294 C1296 1.417 . S
C1294 C1326 1.432 . S
C1295 H1281 0.930 . S
C1295 C1292 1.407 . S
C1295 C1293 1.345 . S
C1296 N1291 1.360 . S
C1296 C1294 1.417 . S
C1296 C1300 1.432 . S
H1297 C1302 0.930 . S
N1298 Tb1260 2.600 . S
N1298 C1300 1.359 . S
N1298 C1301 1.327 . S
C1299 H1285 0.931 . S
C1299 C1301 1.392 . S
C1299 C1302 1.370 . S
C1300 C1296 1.432 . S
C1300 N1298 1.359 . S
C1300 C1303 1.414 . S
C1301 H1283 0.930 . S
C1301 N1298 1.327 . S
C1301 C1299 1.392 . S
C1302 H1297 0.930 . S
C1302 C1299 1.370 . S
C1302 C1303 1.385 . S
C1303 C1300 1.414 . S
C1303 C1302 1.385 . S
C1303 C1325 1.444 . S
O1304 Tb1260 2.546 . S
O1304 C1324 1.251 . S
O1305 Tb1260 2.610 . S
O1305 Tb1271 2.362 . S
O1305 C1316 1.283 . S
O1306 Tb1271 2.421 . S
O1306 C1323 1.262 . S
O1307 Tb1260 2.320 . S
O1307 C1323 1.260 . S
O1308 Tb1260 2.552 . S
O1308 C1316 1.243 . S
O1309 Tb1260 2.413 . S
O1309 C1324 1.256 . S
O1310 Tb1271 2.546 . S
O1310 C1335 1.251 . S
O1311 Tb1260 2.362 . S
O1311 Tb1271 2.610 . S
O1311 C1327 1.283 . S
O1312 Tb1260 2.421 . S
O1312 C1334 1.262 . S
O1313 Tb1271 2.320 . S
O1313 C1334 1.260 . S
O1314 Tb1271 2.552 . S
O1314 C1327 1.243 . S
O1315 Tb1271 2.413 . S
O1315 C1335 1.256 . S
C1316 O1305 1.283 . S
C1316 O1308 1.243 . S
C1317 C1319 1.382 . S
C1317 C1321 1.393 . S
C1317 C1324 1.500 . S
C1318 C1319 1.400 . S
C1318 C1320 1.384 . S
C1319 C1317 1.382 . S
C1319 C1318 1.400 . S
C1319 H1336 0.930 . S
C1320 C1318 1.384 . S
C1320 C1322 1.392 . S
C1320 H1337 0.931 . S
C1321 C1317 1.393 . S
C1321 C1322 1.401 . S
C1321 H1338 0.930 . S
C1322 C1320 1.392 . S
C1322 C1321 1.401 . S
C1322 H1339 0.930 . S
C1323 O1306 1.262 . S
C1323 O1307 1.260 . S
C1324 Tb1260 2.833 . S
C1324 O1304 1.251 . S
C1324 O1309 1.256 . S
C1324 C1317 1.500 . S
C1325 H1290 0.929 . S
C1325 C1303 1.444 . S
C1325 C1326 1.317 . S
C1326 H1288 0.930 . S
C1326 C1294 1.432 . S
C1326 C1325 1.317 . S
C1327 O1311 1.283 . S
C1327 O1314 1.243 . S
C1328 C1329 1.382 . S
C1328 C1332 1.393 . S
C1328 C1335 1.500 . S
C1329 C1328 1.382 . S
C1329 C1330 1.400 . S
C1329 H1340 0.930 . S
C1330 C1329 1.400 . S
C1330 C1331 1.384 . S
C1331 C1330 1.384 . S
C1331 C1333 1.392 . S
C1331 H1341 0.931 . S
C1332 C1328 1.393 . S
C1332 C1333 1.401 . S
C1332 H1342 0.930 . S
C1333 C1331 1.392 . S
C1333 C1332 1.401 . S
C1333 H1343 0.930 . S
C1334 O1312 1.262 . S
C1334 O1313 1.260 . S
C1335 Tb1271 2.833 . S
C1335 O1310 1.251 . S
C1335 O1315 1.256 . S
C1335 C1328 1.500 . S
H1336 C1319 0.930 . S
H1337 C1320 0.931 . S
H1338 C1321 0.930 . S
H1339 C1322 0.930 . S
H1340 C1329 0.930 . S
H1341 C1331 0.931 . S
H1342 C1332 0.930 . S
H1343 C1333 0.930 . S
Tb1344 N1375 2.660 . S
Tb1344 N1382 2.600 . S
Tb1344 O1388 2.546 . S
Tb1344 O1389 2.610 . S
Tb1344 O1391 2.320 . S
Tb1344 O1392 2.552 . S
Tb1344 O1393 2.413 . S
Tb1344 O1395 2.362 . S
Tb1344 O1396 2.421 . S
Tb1344 C1408 2.833 . S
C1345 C1348 1.432 . S
C1345 C1349 1.414 . S
C1345 N1352 1.359 . S
C1346 C1348 1.417 . S
C1346 C1350 1.432 . S
C1346 C1358 1.410 . S
C1347 C1349 1.444 . S
C1347 C1350 1.317 . S
C1347 H1370 0.929 . S
C1348 C1345 1.432 . S
C1348 C1346 1.417 . S
C1348 N1356 1.360 . S
C1349 C1345 1.414 . S
C1349 C1347 1.444 . S
C1349 C1354 1.385 . S
C1350 C1346 1.432 . S
C1350 C1347 1.317 . S
C1350 H1362 0.930 . S
C1351 C1353 1.392 . S
C1351 C1354 1.370 . S
C1351 H1363 0.931 . S
N1352 C1345 1.359 . S
N1352 C1353 1.327 . S
N1352 Tb1355 2.600 . S
C1353 C1351 1.392 . S
C1353 N1352 1.327 . S
C1353 H1360 0.930 . S
C1354 C1349 1.385 . S
C1354 C1351 1.370 . S
C1354 H1373 0.930 . S
Tb1355 N1352 2.600 . S
Tb1355 N1356 2.660 . S
Tb1355 O1389 2.362 . S
Tb1355 O1390 2.421 . S
Tb1355 O1394 2.546 . S
Tb1355 O1395 2.610 . S
Tb1355 O1397 2.320 . S
Tb1355 O1398 2.552 . S
Tb1355 O1399 2.413 . S
Tb1355 C1419 2.833 . S
N1356 C1348 1.360 . S
N1356 Tb1355 2.660 . S
N1356 C1357 1.305 . S
C1357 N1356 1.305 . S
C1357 C1359 1.407 . S
C1357 H1364 0.930 . S
C1358 C1346 1.410 . S
C1358 C1359 1.345 . S
C1358 H1366 0.930 . S
C1359 C1357 1.407 . S
C1359 C1358 1.345 . S
C1359 H1361 0.930 . S
H1360 C1353 0.930 . S
H1361 C1359 0.930 . S
H1362 C1350 0.930 . S
H1363 C1351 0.931 . S
H1364 C1357 0.930 . S
H1365 C1379 0.930 . S
H1366 C1358 0.930 . S
H1367 C1385 0.930 . S
H1368 C1376 0.930 . S
H1369 C1383 0.931 . S
H1370 C1347 0.929 . S
H1371 C1377 0.930 . S
H1372 C1410 0.930 . S
H1373 C1354 0.930 . S
H1374 C1409 0.929 . S
N1375 Tb1344 2.660 . S
N1375 C1376 1.305 . S
N1375 C1380 1.360 . S
C1376 H1368 0.930 . S
C1376 N1375 1.305 . S
C1376 C1379 1.407 . S
C1377 H1371 0.930 . S
C1377 C1378 1.410 . S
C1377 C1379 1.345 . S
C1378 C1377 1.410 . S
C1378 C1380 1.417 . S
C1378 C1410 1.432 . S
C1379 H1365 0.930 . S
C1379 C1376 1.407 . S
C1379 C1377 1.345 . S
C1380 N1375 1.360 . S
C1380 C1378 1.417 . S
C1380 C1384 1.432 . S
H1381 C1386 0.930 . S
N1382 Tb1344 2.600 . S
N1382 C1384 1.359 . S
N1382 C1385 1.327 . S
C1383 H1369 0.931 . S
C1383 C1385 1.392 . S
C1383 C1386 1.370 . S
C1384 C1380 1.432 . S
C1384 N1382 1.359 . S
C1384 C1387 1.414 . S
C1385 H1367 0.930 . S
C1385 N1382 1.327 . S
C1385 C1383 1.392 . S
C1386 H1381 0.930 . S
C1386 C1383 1.370 . S
C1386 C1387 1.385 . S
C1387 C1384 1.414 . S
C1387 C1386 1.385 . S
C1387 C1409 1.444 . S
O1388 Tb1344 2.546 . S
O1388 C1408 1.251 . S
O1389 Tb1344 2.610 . S
O1389 Tb1355 2.362 . S
O1389 C1400 1.283 . S
O1390 Tb1355 2.421 . S
O1390 C1407 1.262 . S
O1391 Tb1344 2.320 . S
O1391 C1407 1.260 . S
O1392 Tb1344 2.552 . S
O1392 C1400 1.243 . S
O1393 Tb1344 2.413 . S
O1393 C1408 1.256 . S
O1394 Tb1355 2.546 . S
O1394 C1419 1.251 . S
O1395 Tb1344 2.362 . S
O1395 Tb1355 2.610 . S
O1395 C1411 1.283 . S
O1396 Tb1344 2.421 . S
O1396 C1418 1.262 . S
O1397 Tb1355 2.320 . S
O1397 C1418 1.260 . S
O1398 Tb1355 2.552 . S
O1398 C1411 1.243 . S
O1399 Tb1355 2.413 . S
O1399 C1419 1.256 . S
C1400 O1389 1.283 . S
C1400 O1392 1.243 . S
C1401 C1403 1.382 . S
C1401 C1405 1.393 . S
C1401 C1408 1.500 . S
C1402 C1403 1.400 . S
C1402 C1404 1.384 . S
C1403 C1401 1.382 . S
C1403 C1402 1.400 . S
C1403 H1420 0.930 . S
C1404 C1402 1.384 . S
C1404 C1406 1.392 . S
C1404 H1421 0.931 . S
C1405 C1401 1.393 . S
C1405 C1406 1.401 . S
C1405 H1422 0.930 . S
C1406 C1404 1.392 . S
C1406 C1405 1.401 . S
C1406 H1423 0.930 . S
C1407 O1390 1.262 . S
C1407 O1391 1.260 . S
C1408 Tb1344 2.833 . S
C1408 O1388 1.251 . S
C1408 O1393 1.256 . S
C1408 C1401 1.500 . S
C1409 H1374 0.929 . S
C1409 C1387 1.444 . S
C1409 C1410 1.317 . S
C1410 H1372 0.930 . S
C1410 C1378 1.432 . S
C1410 C1409 1.317 . S
C1411 O1395 1.283 . S
C1411 O1398 1.243 . S
C1412 C1413 1.382 . S
C1412 C1416 1.393 . S
C1412 C1419 1.500 . S
C1413 C1412 1.382 . S
C1413 C1414 1.400 . S
C1413 H1424 0.930 . S
C1414 C1413 1.400 . S
C1414 C1415 1.384 . S
C1415 C1414 1.384 . S
C1415 C1417 1.392 . S
C1415 H1425 0.931 . S
C1416 C1412 1.393 . S
C1416 C1417 1.401 . S
C1416 H1426 0.930 . S
C1417 C1415 1.392 . S
C1417 C1416 1.401 . S
C1417 H1427 0.930 . S
C1418 O1396 1.262 . S
C1418 O1397 1.260 . S
C1419 Tb1355 2.833 . S
C1419 O1394 1.251 . S
C1419 O1399 1.256 . S
C1419 C1412 1.500 . S
H1420 C1403 0.930 . S
H1421 C1404 0.931 . S
H1422 C1405 0.930 . S
H1423 C1406 0.930 . S
H1424 C1413 0.930 . S
H1425 C1415 0.931 . S
H1426 C1416 0.930 . S
H1427 C1417 0.930 . S
Tb1428 N1459 2.660 . S
Tb1428 N1466 2.600 . S
Tb1428 O1472 2.546 . S
Tb1428 O1473 2.610 . S
Tb1428 O1475 2.320 . S
Tb1428 O1476 2.552 . S
Tb1428 O1477 2.413 . S
Tb1428 O1479 2.362 . S
Tb1428 O1480 2.421 . S
Tb1428 C1492 2.833 . S
C1429 C1432 1.432 . S
C1429 C1433 1.414 . S
C1429 N1436 1.359 . S
C1430 C1432 1.417 . S
C1430 C1434 1.432 . S
C1430 C1442 1.410 . S
C1431 C1433 1.444 . S
C1431 C1434 1.317 . S
C1431 H1454 0.929 . S
C1432 C1429 1.432 . S
C1432 C1430 1.417 . S
C1432 N1440 1.360 . S
C1433 C1429 1.414 . S
C1433 C1431 1.444 . S
C1433 C1438 1.385 . S
C1434 C1430 1.432 . S
C1434 C1431 1.317 . S
C1434 H1446 0.930 . S
C1435 C1437 1.392 . S
C1435 C1438 1.370 . S
C1435 H1447 0.931 . S
N1436 C1429 1.359 . S
N1436 C1437 1.327 . S
N1436 Tb1439 2.600 . S
C1437 C1435 1.392 . S
C1437 N1436 1.327 . S
C1437 H1444 0.930 . S
C1438 C1433 1.385 . S
C1438 C1435 1.370 . S
C1438 H1457 0.930 . S
Tb1439 N1436 2.600 . S
Tb1439 N1440 2.660 . S
Tb1439 O1473 2.362 . S
Tb1439 O1474 2.421 . S
Tb1439 O1478 2.546 . S
Tb1439 O1479 2.610 . S
Tb1439 O1481 2.320 . S
Tb1439 O1482 2.552 . S
Tb1439 O1483 2.413 . S
Tb1439 C1503 2.833 . S
N1440 C1432 1.360 . S
N1440 Tb1439 2.660 . S
N1440 C1441 1.305 . S
C1441 N1440 1.305 . S
C1441 C1443 1.407 . S
C1441 H1448 0.930 . S
C1442 C1430 1.410 . S
C1442 C1443 1.345 . S
C1442 H1450 0.930 . S
C1443 C1441 1.407 . S
C1443 C1442 1.345 . S
C1443 H1445 0.930 . S
H1444 C1437 0.930 . S
H1445 C1443 0.930 . S
H1446 C1434 0.930 . S
H1447 C1435 0.931 . S
H1448 C1441 0.930 . S
H1449 C1463 0.930 . S
H1450 C1442 0.930 . S
H1451 C1469 0.930 . S
H1452 C1460 0.930 . S
H1453 C1467 0.931 . S
H1454 C1431 0.929 . S
H1455 C1461 0.930 . S
H1456 C1494 0.930 . S
H1457 C1438 0.930 . S
H1458 C1493 0.929 . S
N1459 Tb1428 2.660 . S
N1459 C1460 1.305 . S
N1459 C1464 1.360 . S
C1460 H1452 0.930 . S
C1460 N1459 1.305 . S
C1460 C1463 1.407 . S
C1461 H1455 0.930 . S
C1461 C1462 1.410 . S
C1461 C1463 1.345 . S
C1462 C1461 1.410 . S
C1462 C1464 1.417 . S
C1462 C1494 1.432 . S
C1463 H1449 0.930 . S
C1463 C1460 1.407 . S
C1463 C1461 1.345 . S
C1464 N1459 1.360 . S
C1464 C1462 1.417 . S
C1464 C1468 1.432 . S
H1465 C1470 0.930 . S
N1466 Tb1428 2.600 . S
N1466 C1468 1.359 . S
N1466 C1469 1.327 . S
C1467 H1453 0.931 . S
C1467 C1469 1.392 . S
C1467 C1470 1.370 . S
C1468 C1464 1.432 . S
C1468 N1466 1.359 . S
C1468 C1471 1.414 . S
C1469 H1451 0.930 . S
C1469 N1466 1.327 . S
C1469 C1467 1.392 . S
C1470 H1465 0.930 . S
C1470 C1467 1.370 . S
C1470 C1471 1.385 . S
C1471 C1468 1.414 . S
C1471 C1470 1.385 . S
C1471 C1493 1.444 . S
O1472 Tb1428 2.546 . S
O1472 C1492 1.251 . S
O1473 Tb1428 2.610 . S
O1473 Tb1439 2.362 . S
O1473 C1484 1.283 . S
O1474 Tb1439 2.421 . S
O1474 C1491 1.262 . S
O1475 Tb1428 2.320 . S
O1475 C1491 1.260 . S
O1476 Tb1428 2.552 . S
O1476 C1484 1.243 . S
O1477 Tb1428 2.413 . S
O1477 C1492 1.256 . S
O1478 Tb1439 2.546 . S
O1478 C1503 1.251 . S
O1479 Tb1428 2.362 . S
O1479 Tb1439 2.610 . S
O1479 C1495 1.283 . S
O1480 Tb1428 2.421 . S
O1480 C1502 1.262 . S
O1481 Tb1439 2.320 . S
O1481 C1502 1.260 . S
O1482 Tb1439 2.552 . S
O1482 C1495 1.243 . S
O1483 Tb1439 2.413 . S
O1483 C1503 1.256 . S
C1484 O1473 1.283 . S
C1484 O1476 1.243 . S
C1485 C1487 1.382 . S
C1485 C1489 1.393 . S
C1485 C1492 1.500 . S
C1486 C1487 1.400 . S
C1486 C1488 1.384 . S
C1487 C1485 1.382 . S
C1487 C1486 1.400 . S
C1487 H1504 0.930 . S
C1488 C1486 1.384 . S
C1488 C1490 1.392 . S
C1488 H1505 0.931 . S
C1489 C1485 1.393 . S
C1489 C1490 1.401 . S
C1489 H1506 0.930 . S
C1490 C1488 1.392 . S
C1490 C1489 1.401 . S
C1490 H1507 0.930 . S
C1491 O1474 1.262 . S
C1491 O1475 1.260 . S
C1492 Tb1428 2.833 . S
C1492 O1472 1.251 . S
C1492 O1477 1.256 . S
C1492 C1485 1.500 . S
C1493 H1458 0.929 . S
C1493 C1471 1.444 . S
C1493 C1494 1.317 . S
C1494 H1456 0.930 . S
C1494 C1462 1.432 . S
C1494 C1493 1.317 . S
C1495 O1479 1.283 . S
C1495 O1482 1.243 . S
C1496 C1497 1.382 . S
C1496 C1500 1.393 . S
C1496 C1503 1.500 . S
C1497 C1496 1.382 . S
C1497 C1498 1.400 . S
C1497 H1508 0.930 . S
C1498 C1497 1.400 . S
C1498 C1499 1.384 . S
C1499 C1498 1.384 . S
C1499 C1501 1.392 . S
C1499 H1509 0.931 . S
C1500 C1496 1.393 . S
C1500 C1501 1.401 . S
C1500 H1510 0.930 . S
C1501 C1499 1.392 . S
C1501 C1500 1.401 . S
C1501 H1511 0.930 . S
C1502 O1480 1.262 . S
C1502 O1481 1.260 . S
C1503 Tb1439 2.833 . S
C1503 O1478 1.251 . S
C1503 O1483 1.256 . S
C1503 C1496 1.500 . S
H1504 C1487 0.930 . S
H1505 C1488 0.931 . S
H1506 C1489 0.930 . S
H1507 C1490 0.930 . S
H1508 C1497 0.930 . S
H1509 C1499 0.931 . S
H1510 C1500 0.930 . S
H1511 C1501 0.930 . S
Tb1512 N1543 2.660 . S
Tb1512 N1550 2.600 . S
Tb1512 O1556 2.546 . S
Tb1512 O1557 2.610 . S
Tb1512 O1559 2.320 . S
Tb1512 O1560 2.552 . S
Tb1512 O1561 2.413 . S
Tb1512 O1563 2.362 . S
Tb1512 O1564 2.421 . S
Tb1512 C1576 2.833 . S
C1513 C1516 1.432 . S
C1513 C1517 1.414 . S
C1513 N1520 1.359 . S
C1514 C1516 1.417 . S
C1514 C1518 1.432 . S
C1514 C1526 1.410 . S
C1515 C1517 1.444 . S
C1515 C1518 1.317 . S
C1515 H1538 0.929 . S
C1516 C1513 1.432 . S
C1516 C1514 1.417 . S
C1516 N1524 1.360 . S
C1517 C1513 1.414 . S
C1517 C1515 1.444 . S
C1517 C1522 1.385 . S
C1518 C1514 1.432 . S
C1518 C1515 1.317 . S
C1518 H1530 0.930 . S
C1519 C1521 1.392 . S
C1519 C1522 1.370 . S
C1519 H1531 0.931 . S
N1520 C1513 1.359 . S
N1520 C1521 1.327 . S
N1520 Tb1523 2.600 . S
C1521 C1519 1.392 . S
C1521 N1520 1.327 . S
C1521 H1528 0.930 . S
C1522 C1517 1.385 . S
C1522 C1519 1.370 . S
C1522 H1541 0.930 . S
Tb1523 N1520 2.600 . S
Tb1523 N1524 2.660 . S
Tb1523 O1557 2.362 . S
Tb1523 O1558 2.421 . S
Tb1523 O1562 2.546 . S
Tb1523 O1563 2.610 . S
Tb1523 O1565 2.320 . S
Tb1523 O1566 2.552 . S
Tb1523 O1567 2.413 . S
Tb1523 C1587 2.833 . S
N1524 C1516 1.360 . S
N1524 Tb1523 2.660 . S
N1524 C1525 1.305 . S
C1525 N1524 1.305 . S
C1525 C1527 1.407 . S
C1525 H1532 0.930 . S
C1526 C1514 1.410 . S
C1526 C1527 1.345 . S
C1526 H1534 0.930 . S
C1527 C1525 1.407 . S
C1527 C1526 1.345 . S
C1527 H1529 0.930 . S
H1528 C1521 0.930 . S
H1529 C1527 0.930 . S
H1530 C1518 0.930 . S
H1531 C1519 0.931 . S
H1532 C1525 0.930 . S
H1533 C1547 0.930 . S
H1534 C1526 0.930 . S
H1535 C1553 0.930 . S
H1536 C1544 0.930 . S
H1537 C1551 0.931 . S
H1538 C1515 0.929 . S
H1539 C1545 0.930 . S
H1540 C1578 0.930 . S
H1541 C1522 0.930 . S
H1542 C1577 0.929 . S
N1543 Tb1512 2.660 . S
N1543 C1544 1.305 . S
N1543 C1548 1.360 . S
C1544 H1536 0.930 . S
C1544 N1543 1.305 . S
C1544 C1547 1.407 . S
C1545 H1539 0.930 . S
C1545 C1546 1.410 . S
C1545 C1547 1.345 . S
C1546 C1545 1.410 . S
C1546 C1548 1.417 . S
C1546 C1578 1.432 . S
C1547 H1533 0.930 . S
C1547 C1544 1.407 . S
C1547 C1545 1.345 . S
C1548 N1543 1.360 . S
C1548 C1546 1.417 . S
C1548 C1552 1.432 . S
H1549 C1554 0.930 . S
N1550 Tb1512 2.600 . S
N1550 C1552 1.359 . S
N1550 C1553 1.327 . S
C1551 H1537 0.931 . S
C1551 C1553 1.392 . S
C1551 C1554 1.370 . S
C1552 C1548 1.432 . S
C1552 N1550 1.359 . S
C1552 C1555 1.414 . S
C1553 H1535 0.930 . S
C1553 N1550 1.327 . S
C1553 C1551 1.392 . S
C1554 H1549 0.930 . S
C1554 C1551 1.370 . S
C1554 C1555 1.385 . S
C1555 C1552 1.414 . S
C1555 C1554 1.385 . S
C1555 C1577 1.444 . S
O1556 Tb1512 2.546 . S
O1556 C1576 1.251 . S
O1557 Tb1512 2.610 . S
O1557 Tb1523 2.362 . S
O1557 C1568 1.283 . S
O1558 Tb1523 2.421 . S
O1558 C1575 1.262 . S
O1559 Tb1512 2.320 . S
O1559 C1575 1.260 . S
O1560 Tb1512 2.552 . S
O1560 C1568 1.243 . S
O1561 Tb1512 2.413 . S
O1561 C1576 1.256 . S
O1562 Tb1523 2.546 . S
O1562 C1587 1.251 . S
O1563 Tb1512 2.362 . S
O1563 Tb1523 2.610 . S
O1563 C1579 1.283 . S
O1564 Tb1512 2.421 . S
O1564 C1586 1.262 . S
O1565 Tb1523 2.320 . S
O1565 C1586 1.260 . S
O1566 Tb1523 2.552 . S
O1566 C1579 1.243 . S
O1567 Tb1523 2.413 . S
O1567 C1587 1.256 . S
C1568 O1557 1.283 . S
C1568 O1560 1.243 . S
C1569 C1571 1.382 . S
C1569 C1573 1.393 . S
C1569 C1576 1.500 . S
C1570 C1571 1.400 . S
C1570 C1572 1.384 . S
C1571 C1569 1.382 . S
C1571 C1570 1.400 . S
C1571 H1588 0.930 . S
C1572 C1570 1.384 . S
C1572 C1574 1.392 . S
C1572 H1589 0.931 . S
C1573 C1569 1.393 . S
C1573 C1574 1.401 . S
C1573 H1590 0.930 . S
C1574 C1572 1.392 . S
C1574 C1573 1.401 . S
C1574 H1591 0.930 . S
C1575 O1558 1.262 . S
C1575 O1559 1.260 . S
C1576 Tb1512 2.833 . S
C1576 O1556 1.251 . S
C1576 O1561 1.256 . S
C1576 C1569 1.500 . S
C1577 H1542 0.929 . S
C1577 C1555 1.444 . S
C1577 C1578 1.317 . S
C1578 H1540 0.930 . S
C1578 C1546 1.432 . S
C1578 C1577 1.317 . S
C1579 O1563 1.283 . S
C1579 O1566 1.243 . S
C1580 C1581 1.382 . S
C1580 C1584 1.393 . S
C1580 C1587 1.500 . S
C1581 C1580 1.382 . S
C1581 C1582 1.400 . S
C1581 H1592 0.930 . S
C1582 C1581 1.400 . S
C1582 C1583 1.384 . S
C1583 C1582 1.384 . S
C1583 C1585 1.392 . S
C1583 H1593 0.931 . S
C1584 C1580 1.393 . S
C1584 C1585 1.401 . S
C1584 H1594 0.930 . S
C1585 C1583 1.392 . S
C1585 C1584 1.401 . S
C1585 H1595 0.930 . S
C1586 O1564 1.262 . S
C1586 O1565 1.260 . S
C1587 Tb1523 2.833 . S
C1587 O1562 1.251 . S
C1587 O1567 1.256 . S
C1587 C1580 1.500 . S
H1588 C1571 0.930 . S
H1589 C1572 0.931 . S
H1590 C1573 0.930 . S
H1591 C1574 0.930 . S
H1592 C1581 0.930 . S
H1593 C1583 0.931 . S
H1594 C1584 0.930 . S
H1595 C1585 0.930 . S
Tb1596 N1627 2.660 . S
Tb1596 N1634 2.600 1_554 S
Tb1596 O1640 2.546 1_554 S
Tb1596 O1641 2.610 . S
Tb1596 O1643 2.320 . S
Tb1596 O1644 2.552 . S
Tb1596 O1645 2.413 . S
Tb1596 O1647 2.362 . S
Tb1596 O1648 2.421 1_554 S
Tb1596 C1660 2.833 1_554 S
C1597 C1600 1.432 . S
C1597 C1601 1.414 . S
C1597 N1604 1.359 1_655 S
C1598 C1600 1.417 . S
C1598 C1602 1.432 . S
C1598 C1610 1.410 1_554 S
C1599 C1601 1.444 . S
C1599 C1602 1.317 . S
C1599 H1622 0.929 . S
C1600 C1597 1.432 . S
C1600 C1598 1.417 . S
C1600 N1608 1.368 . S
C1601 C1597 1.414 . S
C1601 C1599 1.444 . S
C1601 C1606 1.385 . S
C1602 C1598 1.432 . S
C1602 C1599 1.317 . S
C1602 H1614 0.930 . S
C1603 C1605 1.402 . S
C1603 C1606 1.360 1_455 S
C1603 H1615 0.932 . S
N1604 C1597 1.359 1_455 S
N1604 C1605 1.327 . S
N1604 Tb1607 2.600 . S
C1605 C1603 1.402 . S
C1605 N1604 1.327 . S
C1605 H1612 0.930 . S
C1606 C1601 1.385 . S
C1606 C1603 1.360 1_655 S
C1606 H1625 0.930 . S
Tb1607 N1604 2.600 . S
Tb1607 N1608 2.650 1_455 S
Tb1607 O1641 2.362 . S
Tb1607 O1642 2.421 . S
Tb1607 O1646 2.546 . S
Tb1607 O1647 2.610 . S
Tb1607 O1649 2.320 1_554 S
Tb1607 O1650 2.552 . S
Tb1607 O1651 2.413 1_455 S
Tb1607 C1671 2.833 1_455 S
N1608 C1600 1.368 . S
N1608 Tb1607 2.650 1_655 S
N1608 C1609 1.306 1_554 S
C1609 N1608 1.306 1_556 S
C1609 C1611 1.407 . S
C1609 H1616 0.930 1_655 S
C1610 C1598 1.410 1_556 S
C1610 C1611 1.345 . S
C1610 H1618 0.930 . S
C1611 C1609 1.407 . S
C1611 C1610 1.345 . S
C1611 H1613 0.930 . S
H1612 C1605 0.930 . S
H1613 C1611 0.930 . S
H1614 C1602 0.930 . S
H1615 C1603 0.932 . S
H1616 C1609 0.930 1_455 S
H1617 C1631 0.930 . S
H1618 C1610 0.930 . S
H1619 C1637 0.930 . S
H1620 C1628 0.930 . S
H1621 C1635 0.931 . S
H1622 C1599 0.929 . S
H1623 C1629 0.930 . S
H1624 C1662 0.930 . S
H1625 C1606 0.930 . S
H1626 C1661 0.929 . S
N1627 Tb1596 2.660 . S
N1627 C1628 1.305 . S
N1627 C1632 1.360 . S
C1628 H1620 0.930 . S
C1628 N1627 1.305 . S
C1628 C1631 1.407 . S
C1629 H1623 0.930 . S
C1629 C1630 1.410 . S
C1629 C1631 1.345 . S
C1630 C1629 1.410 . S
C1630 C1632 1.417 . S
C1630 C1662 1.432 . S
C1631 H1617 0.930 . S
C1631 C1628 1.407 . S
C1631 C1629 1.345 . S
C1632 N1627 1.360 . S
C1632 C1630 1.417 . S
C1632 C1636 1.432 1_554 S
H1633 C1638 0.930 . S
N1634 Tb1596 2.600 1_556 S
N1634 C1636 1.359 . S
N1634 C1637 1.327 . S
C1635 H1621 0.931 . S
C1635 C1637 1.392 . S
C1635 C1638 1.370 . S
C1636 C1632 1.432 1_556 S
C1636 N1634 1.359 . S
C1636 C1639 1.414 . S
C1637 H1619 0.930 . S
C1637 N1634 1.327 . S
C1637 C1635 1.392 . S
C1638 H1633 0.930 . S
C1638 C1635 1.370 . S
C1638 C1639 1.385 . S
C1639 C1636 1.414 . S
C1639 C1638 1.385 . S
C1639 C1661 1.444 . S
O1640 Tb1596 2.546 1_556 S
O1640 C1660 1.251 . S
O1641 Tb1596 2.610 . S
O1641 Tb1607 2.362 . S
O1641 C1652 1.283 . S
O1642 Tb1607 2.421 . S
O1642 C1659 1.262 . S
O1643 Tb1596 2.320 . S
O1643 C1659 1.260 . S
O1644 Tb1596 2.552 . S
O1644 C1652 1.245 . S
O1645 Tb1596 2.413 . S
O1645 C1660 1.256 1_554 S
O1646 Tb1607 2.546 . S
O1646 C1671 1.251 1_455 S
O1647 Tb1596 2.362 . S
O1647 Tb1607 2.610 . S
O1647 C1663 1.283 . S
O1648 Tb1596 2.421 1_556 S
O1648 C1670 1.262 . S
O1649 Tb1607 2.320 1_556 S
O1649 C1670 1.260 . S
O1650 Tb1607 2.552 . S
O1650 C1663 1.243 . S
O1651 Tb1607 2.413 1_655 S
O1651 C1671 1.256 . S
C1652 O1641 1.283 . S
C1652 O1644 1.245 . S
C1653 C1655 1.382 1_556 S
C1653 C1657 1.393 . S
C1653 C1660 1.500 . S
C1654 C1655 1.399 . S
C1654 C1656 1.388 1_554 S
C1655 C1653 1.382 1_554 S
C1655 C1654 1.399 . S
C1655 H1672 0.930 . S
C1656 C1654 1.388 1_556 S
C1656 C1658 1.392 . S
C1656 H1673 0.931 . S
C1657 C1653 1.393 . S
C1657 C1658 1.401 . S
C1657 H1674 0.930 . S
C1658 C1656 1.392 . S
C1658 C1657 1.401 . S
C1658 H1675 0.930 . S
C1659 O1642 1.262 . S
C1659 O1643 1.260 . S
C1660 Tb1596 2.833 1_556 S
C1660 O1640 1.251 . S
C1660 O1645 1.256 1_556 S
C1660 C1653 1.500 . S
C1661 H1626 0.929 . S
C1661 C1639 1.444 . S
C1661 C1662 1.317 1_556 S
C1662 H1624 0.930 . S
C1662 C1630 1.432 . S
C1662 C1661 1.317 1_554 S
C1663 O1647 1.283 . S
C1663 O1650 1.243 . S
C1664 C1665 1.382 . S
C1664 C1668 1.393 . S
C1664 C1671 1.500 . S
C1665 C1664 1.382 . S
C1665 C1666 1.400 . S
C1665 H1676 0.930 . S
C1666 C1665 1.400 . S
C1666 C1667 1.384 . S
C1667 C1666 1.384 . S
C1667 C1669 1.392 . S
C1667 H1677 0.931 . S
C1668 C1664 1.393 . S
C1668 C1669 1.401 . S
C1668 H1678 0.930 . S
C1669 C1667 1.392 . S
C1669 C1668 1.401 . S
C1669 H1679 0.930 . S
C1670 O1648 1.262 . S
C1670 O1649 1.260 . S
C1671 Tb1607 2.833 1_655 S
C1671 O1646 1.251 1_655 S
C1671 O1651 1.256 . S
C1671 C1664 1.500 . S
H1672 C1655 0.930 . S
H1673 C1656 0.931 . S
H1674 C1657 0.930 . S
H1675 C1658 0.930 . S
H1676 C1665 0.930 . S
H1677 C1667 0.931 . S
H1678 C1668 0.930 . S
H1679 C1669 0.930 . S
H1680 C1688 0.929 . S
H1681 C1690 0.930 . S
H1682 C1692 0.930 1_655 S
H1683 C1695 0.968 . S
H1684 C1698 0.930 1_554 S
H1685 C1700 0.960 1_655 S
H1686 C1700 0.960 . S
H1687 C1700 0.960 1_655 S
C1688 H1680 0.929 . S
C1688 C1689 1.377 . S
C1688 C1690 1.384 . S
C1689 C1688 1.377 . S
C1689 C1695 1.366 1_455 S
C1690 H1681 0.930 . S
C1690 C1688 1.384 . S
C1690 C1691 1.372 . S
C1691 C1690 1.372 . S
C1691 C1692 1.400 . S
C1691 C1696 1.490 . S
C1692 H1682 0.930 1_455 S
C1692 C1691 1.400 . S
C1692 C1695 1.371 1_455 S
H1693 C1709 0.930 . S
H1694 C1710 0.931 . S
C1695 H1683 0.968 . S
C1695 C1689 1.366 1_655 S
C1695 C1692 1.371 1_655 S
C1696 C1691 1.490 . S
C1696 C1698 1.395 . S
C1696 C1699 1.403 . S
H1697 C1703 0.930 . S
C1698 H1684 0.930 1_556 S
C1698 C1696 1.395 . S
C1698 C1701 1.403 1_556 S
C1699 C1696 1.403 . S
C1699 C1700 1.524 . S
C1699 C1703 1.400 . S
C1700 H1685 0.960 1_455 S
C1700 H1686 0.960 . S
C1700 H1687 0.960 1_455 S
C1700 C1699 1.524 . S
C1701 C1698 1.403 1_554 S
C1701 C1702 1.392 1_554 S
C1701 C1705 1.495 . S
C1702 C1701 1.392 1_556 S
C1702 C1703 1.385 . S
C1702 C1704 1.478 1_556 S
C1703 H1697 0.930 . S
C1703 C1699 1.400 . S
C1703 C1702 1.385 . S
C1704 C1702 1.478 1_554 S
C1704 C1706 1.383 . S
C1704 C1710 1.383 . S
C1705 C1701 1.495 . S
C1705 H1711 0.959 . S
C1705 H1712 0.961 . S
C1705 H1713 0.960 . S
C1706 C1704 1.383 . S
C1706 C1707 1.407 . S
C1706 H1714 0.915 1_554 S
C1707 C1706 1.407 . S
C1707 C1708 1.383 . S
C1707 H1715 0.929 . S
C1708 C1707 1.383 . S
C1708 C1709 1.377 . S
C1709 H1693 0.930 . S
C1709 C1708 1.377 . S
C1709 C1710 1.379 . S
C1710 H1694 0.931 . S
C1710 C1704 1.383 . S
C1710 C1709 1.379 . S
H1711 C1705 0.959 . S
H1712 C1705 0.961 . S
H1713 C1705 0.960 . S
H1714 C1706 0.915 1_556 S
H1715 C1707 0.929 . S
H1716 C1724 0.929 . S
H1717 C1726 0.930 . S
H1718 C1728 0.930 . S
H1719 C1731 0.929 . S
H1720 C1734 0.930 . S
H1721 C1736 0.960 . S
H1722 C1736 0.960 . S
H1723 C1736 0.960 . S
C1724 H1716 0.929 . S
C1724 C1725 1.377 . S
C1724 C1726 1.384 . S
C1725 C1724 1.377 . S
C1725 C1731 1.390 . S
C1726 H1717 0.930 . S
C1726 C1724 1.384 . S
C1726 C1727 1.372 . S
C1727 C1726 1.372 . S
C1727 C1728 1.400 . S
C1727 C1732 1.490 . S
C1728 H1718 0.930 . S
C1728 C1727 1.400 . S
C1728 C1731 1.386 . S
H1729 C1745 0.930 . S
H1730 C1746 0.931 . S
C1731 H1719 0.929 . S
C1731 C1725 1.390 . S
C1731 C1728 1.386 . S
C1732 C1727 1.490 . S
C1732 C1734 1.395 . S
C1732 C1735 1.403 . S
H1733 C1739 0.930 . S
C1734 H1720 0.930 . S
C1734 C1732 1.395 . S
C1734 C1737 1.403 . S
C1735 C1732 1.403 . S
C1735 C1736 1.524 . S
C1735 C1739 1.400 . S
C1736 H1721 0.960 . S
C1736 H1722 0.960 . S
C1736 H1723 0.960 . S
C1736 C1735 1.524 . S
C1737 C1734 1.403 . S
C1737 C1738 1.392 . S
C1737 C1741 1.495 . S
C1738 C1737 1.392 . S
C1738 C1739 1.385 . S
C1738 C1740 1.478 . S
C1739 H1733 0.930 . S
C1739 C1735 1.400 . S
C1739 C1738 1.385 . S
C1740 C1738 1.478 . S
C1740 C1742 1.381 . S
C1740 C1746 1.383 . S
C1741 C1737 1.495 . S
C1741 H1747 0.959 . S
C1741 H1748 0.961 . S
C1741 H1749 0.960 . S
C1742 C1740 1.381 . S
C1742 C1743 1.394 . S
C1742 H1750 0.930 . S
C1743 C1742 1.394 . S
C1743 C1744 1.383 . S
C1743 H1751 0.929 . S
C1744 C1743 1.383 . S
C1744 C1745 1.377 . S
C1745 H1729 0.930 . S
C1745 C1744 1.377 . S
C1745 C1746 1.379 . S
C1746 H1730 0.931 . S
C1746 C1740 1.383 . S
C1746 C1745 1.379 . S
H1747 C1741 0.959 . S
H1748 C1741 0.961 . S
H1749 C1741 0.960 . S
H1750 C1742 0.930 . S
H1751 C1743 0.929 . S
H1752 C1760 0.929 . S
H1753 C1762 0.930 . S
H1754 C1764 0.930 . S
H1755 C1767 0.929 . S
H1756 C1770 0.930 . S
H1757 C1772 0.960 . S
H1758 C1772 0.960 . S
H1759 C1772 0.960 . S
C1760 H1752 0.929 . S
C1760 C1761 1.377 . S
C1760 C1762 1.384 . S
C1761 C1760 1.377 . S
C1761 C1767 1.390 . S
C1762 H1753 0.930 . S
C1762 C1760 1.384 . S
C1762 C1763 1.372 . S
C1763 C1762 1.372 . S
C1763 C1764 1.400 . S
C1763 C1768 1.490 . S
C1764 H1754 0.930 . S
C1764 C1763 1.400 . S
C1764 C1767 1.386 . S
H1765 C1781 0.930 . S
H1766 C1782 0.931 . S
C1767 H1755 0.929 . S
C1767 C1761 1.390 . S
C1767 C1764 1.386 . S
C1768 C1763 1.490 . S
C1768 C1770 1.395 . S
C1768 C1771 1.403 . S
H1769 C1775 0.930 . S
C1770 H1756 0.930 . S
C1770 C1768 1.395 . S
C1770 C1773 1.403 . S
C1771 C1768 1.403 . S
C1771 C1772 1.524 . S
C1771 C1775 1.400 . S
C1772 H1757 0.960 . S
C1772 H1758 0.960 . S
C1772 H1759 0.960 . S
C1772 C1771 1.524 . S
C1773 C1770 1.403 . S
C1773 C1774 1.392 . S
C1773 C1777 1.495 . S
C1774 C1773 1.392 . S
C1774 C1775 1.385 . S
C1774 C1776 1.478 . S
C1775 H1769 0.930 . S
C1775 C1771 1.400 . S
C1775 C1774 1.385 . S
C1776 C1774 1.478 . S
C1776 C1778 1.381 . S
C1776 C1782 1.383 . S
C1777 C1773 1.495 . S
C1777 H1783 0.959 . S
C1777 H1784 0.961 . S
C1777 H1785 0.960 . S
C1778 C1776 1.381 . S
C1778 C1779 1.394 . S
C1778 H1786 0.930 . S
C1779 C1778 1.394 . S
C1779 C1780 1.383 . S
C1779 H1787 0.929 . S
C1780 C1779 1.383 . S
C1780 C1781 1.377 . S
C1781 H1765 0.930 . S
C1781 C1780 1.377 . S
C1781 C1782 1.379 . S
C1782 H1766 0.931 . S
C1782 C1776 1.383 . S
C1782 C1781 1.379 . S
H1783 C1777 0.959 . S
H1784 C1777 0.961 . S
H1785 C1777 0.960 . S
H1786 C1778 0.930 . S
H1787 C1779 0.929 . S
H1788 C1796 0.929 . S
H1789 C1798 0.930 . S
H1790 C1800 0.930 . S
H1791 C1803 0.929 . S
H1792 C1806 0.930 . S
H1793 C1808 0.960 . S
H1794 C1808 0.960 . S
H1795 C1808 0.960 . S
C1796 H1788 0.929 . S
C1796 C1797 1.377 . S
C1796 C1798 1.384 . S
C1797 C1796 1.377 . S
C1797 C1803 1.390 . S
C1798 H1789 0.930 . S
C1798 C1796 1.384 . S
C1798 C1799 1.372 . S
C1799 C1798 1.372 . S
C1799 C1800 1.400 . S
C1799 C1804 1.490 . S
C1800 H1790 0.930 . S
C1800 C1799 1.400 . S
C1800 C1803 1.386 . S
H1801 C1817 0.930 . S
H1802 C1818 0.931 . S
C1803 H1791 0.929 . S
C1803 C1797 1.390 . S
C1803 C1800 1.386 . S
C1804 C1799 1.490 . S
C1804 C1806 1.395 . S
C1804 C1807 1.403 . S
H1805 C1811 0.930 . S
C1806 H1792 0.930 . S
C1806 C1804 1.395 . S
C1806 C1809 1.403 . S
C1807 C1804 1.403 . S
C1807 C1808 1.524 . S
C1807 C1811 1.400 . S
C1808 H1793 0.960 . S
C1808 H1794 0.960 . S
C1808 H1795 0.960 . S
C1808 C1807 1.524 . S
C1809 C1806 1.403 . S
C1809 C1810 1.392 . S
C1809 C1813 1.495 . S
C1810 C1809 1.392 . S
C1810 C1811 1.385 . S
C1810 C1812 1.478 . S
C1811 H1805 0.930 . S
C1811 C1807 1.400 . S
C1811 C1810 1.385 . S
C1812 C1810 1.478 . S
C1812 C1814 1.381 . S
C1812 C1818 1.383 . S
C1813 C1809 1.495 . S
C1813 H1819 0.959 . S
C1813 H1820 0.961 . S
C1813 H1821 0.960 . S
C1814 C1812 1.381 . S
C1814 C1815 1.394 . S
C1814 H1822 0.930 . S
C1815 C1814 1.394 . S
C1815 C1816 1.383 . S
C1815 H1823 0.929 . S
C1816 C1815 1.383 . S
C1816 C1817 1.377 . S
C1817 H1801 0.930 . S
C1817 C1816 1.377 . S
C1817 C1818 1.379 . S
C1818 H1802 0.931 . S
C1818 C1812 1.383 . S
C1818 C1817 1.379 . S
H1819 C1813 0.959 . S
H1820 C1813 0.961 . S
H1821 C1813 0.960 . S
H1822 C1814 0.930 . S
H1823 C1815 0.929 . S
H1824 C1832 0.929 . S
H1825 C1834 0.930 . S
H1826 C1836 0.930 . S
H1827 C1839 0.929 1_655 S
H1828 C1842 0.930 1_655 S
H1829 C1844 0.960 . S
H1830 C1844 0.960 . S
H1831 C1844 0.960 . S
C1832 H1824 0.929 . S
C1832 C1833 1.377 . S
C1832 C1834 1.384 . S
C1833 C1832 1.377 . S
C1833 C1839 1.390 . S
C1834 H1825 0.930 . S
C1834 C1832 1.384 . S
C1834 C1835 1.372 . S
C1835 C1834 1.372 . S
C1835 C1836 1.400 . S
C1835 C1840 1.490 . S
C1836 H1826 0.930 . S
C1836 C1835 1.400 . S
C1836 C1839 1.386 . S
H1837 C1853 0.930 . S
H1838 C1854 0.931 . S
C1839 H1827 0.929 1_455 S
C1839 C1833 1.390 . S
C1839 C1836 1.386 . S
C1840 C1835 1.490 . S
C1840 C1842 1.395 . S
C1840 C1843 1.403 . S
H1841 C1847 0.930 . S
C1842 H1828 0.930 1_455 S
C1842 C1840 1.395 . S
C1842 C1845 1.403 . S
C1843 C1840 1.403 . S
C1843 C1844 1.524 . S
C1843 C1847 1.400 . S
C1844 H1829 0.960 . S
C1844 H1830 0.960 . S
C1844 H1831 0.960 . S
C1844 C1843 1.524 . S
C1845 C1842 1.403 . S
C1845 C1846 1.392 . S
C1845 C1849 1.495 1_455 S
C1846 C1845 1.392 . S
C1846 C1847 1.385 . S
C1846 C1848 1.478 . S
C1847 H1841 0.930 . S
C1847 C1843 1.400 . S
C1847 C1846 1.385 . S
C1848 C1846 1.478 . S
C1848 C1850 1.381 . S
C1848 C1854 1.383 . S
C1849 C1845 1.495 1_655 S
C1849 H1855 0.959 . S
C1849 H1856 0.961 . S
C1849 H1857 0.937 1_655 S
C1850 C1848 1.381 . S
C1850 C1851 1.394 . S
C1850 H1858 0.930 . S
C1851 C1850 1.394 . S
C1851 C1852 1.383 . S
C1851 H1859 0.929 . S
C1852 C1851 1.383 . S
C1852 C1853 1.377 . S
C1853 H1837 0.930 . S
C1853 C1852 1.377 . S
C1853 C1854 1.379 . S
C1854 H1838 0.931 . S
C1854 C1848 1.383 . S
C1854 C1853 1.379 . S
H1855 C1849 0.959 . S
H1856 C1849 0.961 . S
H1857 C1849 0.937 1_455 S
H1858 C1850 0.930 . S
H1859 C1851 0.929 . S
H1860 C1868 0.929 . S
H1861 C1870 0.930 . S
H1862 C1872 0.930 . S
H1863 C1875 0.929 . S
H1864 C1878 0.930 . S
H1865 C1880 0.960 . S
H1866 C1880 0.960 . S
H1867 C1880 0.960 . S
C1868 H1860 0.929 . S
C1868 C1869 1.377 . S
C1868 C1870 1.384 . S
C1869 C1868 1.377 . S
C1869 C1875 1.390 . S
C1870 H1861 0.930 . S
C1870 C1868 1.384 . S
C1870 C1871 1.372 . S
C1871 C1870 1.372 . S
C1871 C1872 1.400 . S
C1871 C1876 1.490 . S
C1872 H1862 0.930 . S
C1872 C1871 1.400 . S
C1872 C1875 1.386 . S
H1873 C1889 0.930 . S
H1874 C1890 0.931 . S
C1875 H1863 0.929 . S
C1875 C1869 1.390 . S
C1875 C1872 1.386 . S
C1876 C1871 1.490 . S
C1876 C1878 1.395 . S
C1876 C1879 1.403 . S
H1877 C1883 0.930 . S
C1878 H1864 0.930 . S
C1878 C1876 1.395 . S
C1878 C1881 1.403 . S
C1879 C1876 1.403 . S
C1879 C1880 1.524 . S
C1879 C1883 1.400 . S
C1880 H1865 0.960 . S
C1880 H1866 0.960 . S
C1880 H1867 0.960 . S
C1880 C1879 1.524 . S
C1881 C1878 1.403 . S
C1881 C1882 1.392 . S
C1881 C1885 1.495 . S
C1882 C1881 1.392 . S
C1882 C1883 1.385 . S
C1882 C1884 1.478 . S
C1883 H1877 0.930 . S
C1883 C1879 1.400 . S
C1883 C1882 1.385 . S
C1884 C1882 1.478 . S
C1884 C1886 1.381 . S
C1884 C1890 1.383 . S
C1885 C1881 1.495 . S
C1885 H1891 0.959 . S
C1885 H1892 0.961 . S
C1885 H1893 0.960 . S
C1886 C1884 1.381 . S
C1886 C1887 1.394 . S
C1886 H1894 0.930 . S
C1887 C1886 1.394 . S
C1887 C1888 1.383 . S
C1887 H1895 0.929 . S
C1888 C1887 1.383 . S
C1888 C1889 1.377 . S
C1889 H1873 0.930 . S
C1889 C1888 1.377 . S
C1889 C1890 1.379 . S
C1890 H1874 0.931 . S
C1890 C1884 1.383 . S
C1890 C1889 1.379 . S
H1891 C1885 0.959 . S
H1892 C1885 0.961 . S
H1893 C1885 0.960 . S
H1894 C1886 0.930 . S
H1895 C1887 0.929 . S
H1896 C1904 0.929 . S
H1897 C1906 0.930 . S
H1898 C1908 0.930 . S
H1899 C1911 0.929 . S
H1900 C1914 0.930 . S
H1901 C1916 0.960 . S
H1902 C1916 0.960 . S
H1903 C1916 0.960 . S
C1904 H1896 0.929 . S
C1904 C1905 1.377 . S
C1904 C1906 1.384 . S
C1905 C1904 1.377 . S
C1905 C1911 1.390 . S
C1906 H1897 0.930 . S
C1906 C1904 1.384 . S
C1906 C1907 1.372 . S
C1907 C1906 1.372 . S
C1907 C1908 1.400 . S
C1907 C1912 1.490 . S
C1908 H1898 0.930 . S
C1908 C1907 1.400 . S
C1908 C1911 1.386 . S
H1909 C1925 0.930 . S
H1910 C1926 0.931 . S
C1911 H1899 0.929 . S
C1911 C1905 1.390 . S
C1911 C1908 1.386 . S
C1912 C1907 1.490 . S
C1912 C1914 1.395 . S
C1912 C1915 1.403 . S
H1913 C1919 0.930 . S
C1914 H1900 0.930 . S
C1914 C1912 1.395 . S
C1914 C1917 1.403 . S
C1915 C1912 1.403 . S
C1915 C1916 1.524 . S
C1915 C1919 1.400 . S
C1916 H1901 0.960 . S
C1916 H1902 0.960 . S
C1916 H1903 0.960 . S
C1916 C1915 1.524 . S
C1917 C1914 1.403 . S
C1917 C1918 1.392 . S
C1917 C1921 1.495 . S
C1918 C1917 1.392 . S
C1918 C1919 1.385 . S
C1918 C1920 1.478 . S
C1919 H1913 0.930 . S
C1919 C1915 1.400 . S
C1919 C1918 1.385 . S
C1920 C1918 1.478 . S
C1920 C1922 1.381 . S
C1920 C1926 1.383 . S
C1921 C1917 1.495 . S
C1921 H1927 0.959 . S
C1921 H1928 0.961 . S
C1921 H1929 0.960 . S
C1922 C1920 1.381 . S
C1922 C1923 1.394 . S
C1922 H1930 0.930 . S
C1923 C1922 1.394 . S
C1923 C1924 1.383 . S
C1923 H1931 0.929 . S
C1924 C1923 1.383 . S
C1924 C1925 1.377 . S
C1925 H1909 0.930 . S
C1925 C1924 1.377 . S
C1925 C1926 1.379 . S
C1926 H1910 0.931 . S
C1926 C1920 1.383 . S
C1926 C1925 1.379 . S
H1927 C1921 0.959 . S
H1928 C1921 0.961 . S
H1929 C1921 0.960 . S
H1930 C1922 0.930 . S
H1931 C1923 0.929 . S
H1932 C1940 0.929 . S
H1933 C1942 0.930 . S
H1934 C1944 0.930 . S
H1935 C1947 0.929 . S
H1936 C1950 0.930 . S
H1937 C1952 0.960 . S
H1938 C1952 0.960 . S
H1939 C1952 0.960 . S
C1940 H1932 0.929 . S
C1940 C1941 1.377 . S
C1940 C1942 1.384 . S
C1941 C1940 1.377 . S
C1941 C1947 1.390 . S
C1942 H1933 0.930 . S
C1942 C1940 1.384 . S
C1942 C1943 1.372 . S
C1943 C1942 1.372 . S
C1943 C1944 1.400 . S
C1943 C1948 1.490 . S
C1944 H1934 0.930 . S
C1944 C1943 1.400 . S
C1944 C1947 1.386 . S
H1945 C1961 0.930 . S
H1946 C1962 0.931 . S
C1947 H1935 0.929 . S
C1947 C1941 1.390 . S
C1947 C1944 1.386 . S
C1948 C1943 1.490 . S
C1948 C1950 1.395 . S
C1948 C1951 1.403 . S
H1949 C1955 0.930 . S
C1950 H1936 0.930 . S
C1950 C1948 1.395 . S
C1950 C1953 1.403 . S
C1951 C1948 1.403 . S
C1951 C1952 1.524 . S
C1951 C1955 1.400 . S
C1952 H1937 0.960 . S
C1952 H1938 0.960 . S
C1952 H1939 0.960 . S
C1952 C1951 1.524 . S
C1953 C1950 1.403 . S
C1953 C1954 1.392 . S
C1953 C1957 1.495 . S
C1954 C1953 1.392 . S
C1954 C1955 1.385 . S
C1954 C1956 1.478 . S
C1955 H1949 0.930 . S
C1955 C1951 1.400 . S
C1955 C1954 1.385 . S
C1956 C1954 1.478 . S
C1956 C1958 1.381 . S
C1956 C1962 1.383 . S
C1957 C1953 1.495 . S
C1957 H1963 0.959 . S
C1957 H1964 0.961 . S
C1957 H1965 0.960 . S
C1958 C1956 1.381 . S
C1958 C1959 1.394 . S
C1958 H1966 0.930 . S
C1959 C1958 1.394 . S
C1959 C1960 1.383 . S
C1959 H1967 0.929 . S
C1960 C1959 1.383 . S
C1960 C1961 1.377 . S
C1961 H1945 0.930 . S
C1961 C1960 1.377 . S
C1961 C1962 1.379 . S
C1962 H1946 0.931 . S
C1962 C1956 1.383 . S
C1962 C1961 1.379 . S
H1963 C1957 0.959 . S
H1964 C1957 0.961 . S
H1965 C1957 0.960 . S
H1966 C1958 0.930 . S
H1967 C1959 0.929 . S
H1968 C1976 0.929 . S
H1969 C1978 0.897 1_455 S
H1970 C1980 0.930 . S
H1971 C1983 0.929 . S
H1972 C1986 0.930 . S
H1973 C1988 0.960 . S
H1974 C1988 0.960 . S
H1975 C1988 0.960 . S
C1976 H1968 0.929 . S
C1976 C1977 1.377 . S
C1976 C1978 1.384 . S
C1977 C1976 1.377 . S
C1977 C1983 1.390 . S
C1978 H1969 0.897 1_655 S
C1978 C1976 1.384 . S
C1978 C1979 1.372 . S
C1979 C1978 1.372 . S
C1979 C1980 1.400 . S
C1979 C1984 1.490 . S
C1980 H1970 0.930 . S
C1980 C1979 1.400 . S
C1980 C1983 1.386 . S
H1981 C1997 0.930 . S
H1982 C1998 0.931 1_655 S
C1983 H1971 0.929 . S
C1983 C1977 1.390 . S
C1983 C1980 1.386 . S
C1984 C1979 1.490 . S
C1984 C1986 1.395 1_655 S
C1984 C1987 1.403 . S
H1985 C1991 0.930 . S
C1986 H1972 0.930 . S
C1986 C1984 1.395 1_455 S
C1986 C1989 1.403 . S
C1987 C1984 1.403 . S
C1987 C1988 1.524 . S
C1987 C1991 1.400 . S
C1988 H1973 0.960 . S
C1988 H1974 0.960 . S
C1988 H1975 0.960 . S
C1988 C1987 1.524 . S
C1989 C1986 1.403 . S
C1989 C1990 1.392 . S
C1989 C1993 1.495 . S
C1990 C1989 1.392 . S
C1990 C1991 1.385 1_455 S
C1990 C1992 1.478 . S
C1991 H1985 0.930 . S
C1991 C1987 1.400 . S
C1991 C1990 1.385 1_655 S
C1992 C1990 1.478 . S
C1992 C1994 1.381 . S
C1992 C1998 1.383 . S
C1993 C1989 1.495 . S
C1993 H1999 0.959 . S
C1993 H2000 0.961 . S
C1993 H2001 0.960 . S
C1994 C1992 1.381 . S
C1994 C1995 1.394 . S
C1994 H2002 0.930 . S
C1995 C1994 1.394 . S
C1995 C1996 1.383 . S
C1995 H2003 0.929 . S
C1996 C1995 1.383 . S
C1996 C1997 1.377 . S
C1997 H1981 0.930 . S
C1997 C1996 1.377 . S
C1997 C1998 1.379 . S
C1998 H1982 0.931 1_455 S
C1998 C1992 1.383 . S
C1998 C1997 1.379 . S
H1999 C1993 0.959 . S
H2000 C1993 0.961 . S
H2001 C1993 0.960 . S
H2002 C1994 0.930 . S
H2003 C1995 0.929 . S
H2004 C2012 0.929 . S
H2005 C2014 0.930 . S
H2006 C2016 0.930 . S
H2007 C2019 0.929 . S
H2008 C2022 0.930 . S
H2009 C2024 0.960 . S
H2010 C2024 0.960 . S
H2011 C2024 0.960 . S
C2012 H2004 0.929 . S
C2012 C2013 1.377 . S
C2012 C2014 1.384 . S
C2013 C2012 1.377 . S
C2013 C2019 1.390 . S
C2014 H2005 0.930 . S
C2014 C2012 1.384 . S
C2014 C2015 1.372 . S
C2015 C2014 1.372 . S
C2015 C2016 1.400 . S
C2015 C2020 1.490 . S
C2016 H2006 0.930 . S
C2016 C2015 1.400 . S
C2016 C2019 1.386 . S
H2017 C2033 0.930 . S
H2018 C2034 0.931 . S
C2019 H2007 0.929 . S
C2019 C2013 1.390 . S
C2019 C2016 1.386 . S
C2020 C2015 1.490 . S
C2020 C2022 1.395 . S
C2020 C2023 1.403 . S
H2021 C2027 0.930 . S
C2022 H2008 0.930 . S
C2022 C2020 1.395 . S
C2022 C2025 1.403 . S
C2023 C2020 1.403 . S
C2023 C2024 1.524 . S
C2023 C2027 1.400 . S
C2024 H2009 0.960 . S
C2024 H2010 0.960 . S
C2024 H2011 0.960 . S
C2024 C2023 1.524 . S
C2025 C2022 1.403 . S
C2025 C2026 1.392 . S
C2025 C2029 1.495 . S
C2026 C2025 1.392 . S
C2026 C2027 1.385 . S
C2026 C2028 1.478 . S
C2027 H2021 0.930 . S
C2027 C2023 1.400 . S
C2027 C2026 1.385 . S
C2028 C2026 1.478 . S
C2028 C2030 1.381 . S
C2028 C2034 1.383 . S
C2029 C2025 1.495 . S
C2029 H2035 0.959 . S
C2029 H2036 0.961 . S
C2029 H2037 0.960 . S
C2030 C2028 1.381 . S
C2030 C2031 1.394 . S
C2030 H2038 0.930 . S
C2031 C2030 1.394 . S
C2031 C2032 1.383 . S
C2031 H2039 0.929 . S
C2032 C2031 1.383 . S
C2032 C2033 1.377 . S
C2033 H2017 0.930 . S
C2033 C2032 1.377 . S
C2033 C2034 1.379 . S
C2034 H2018 0.931 . S
C2034 C2028 1.383 . S
C2034 C2033 1.379 . S
H2035 C2029 0.959 . S
H2036 C2029 0.961 . S
H2037 C2029 0.960 . S
H2038 C2030 0.930 . S
H2039 C2031 0.929 . S
H2040 C2048 0.929 . S
H2041 C2050 0.930 . S
H2042 C2052 0.930 . S
H2043 C2055 0.929 . S
H2044 C2058 0.930 . S
H2045 C2060 0.960 . S
H2046 C2060 0.960 . S
H2047 C2060 0.960 . S
C2048 H2040 0.929 . S
C2048 C2049 1.377 . S
C2048 C2050 1.384 . S
C2049 C2048 1.377 . S
C2049 C2055 1.390 . S
C2050 H2041 0.930 . S
C2050 C2048 1.384 . S
C2050 C2051 1.372 . S
C2051 C2050 1.372 . S
C2051 C2052 1.400 . S
C2051 C2056 1.490 . S
C2052 H2042 0.930 . S
C2052 C2051 1.400 . S
C2052 C2055 1.386 . S
H2053 C2069 0.930 . S
H2054 C2070 0.931 . S
C2055 H2043 0.929 . S
C2055 C2049 1.390 . S
C2055 C2052 1.386 . S
C2056 C2051 1.490 . S
C2056 C2058 1.395 . S
C2056 C2059 1.403 . S
H2057 C2063 0.930 . S
C2058 H2044 0.930 . S
C2058 C2056 1.395 . S
C2058 C2061 1.403 . S
C2059 C2056 1.403 . S
C2059 C2060 1.524 . S
C2059 C2063 1.400 . S
C2060 H2045 0.960 . S
C2060 H2046 0.960 . S
C2060 H2047 0.960 . S
C2060 C2059 1.524 . S
C2061 C2058 1.403 . S
C2061 C2062 1.392 . S
C2061 C2065 1.495 . S
C2062 C2061 1.392 . S
C2062 C2063 1.385 . S
C2062 C2064 1.478 . S
C2063 H2057 0.930 . S
C2063 C2059 1.400 . S
C2063 C2062 1.385 . S
C2064 C2062 1.478 . S
C2064 C2066 1.381 . S
C2064 C2070 1.383 . S
C2065 C2061 1.495 . S
C2065 H2071 0.959 . S
C2065 H2072 0.961 . S
C2065 H2073 0.960 . S
C2066 C2064 1.381 . S
C2066 C2067 1.394 . S
C2066 H2074 0.930 . S
C2067 C2066 1.394 . S
C2067 C2068 1.383 . S
C2067 H2075 0.929 . S
C2068 C2067 1.383 . S
C2068 C2069 1.377 . S
C2069 H2053 0.930 . S
C2069 C2068 1.377 . S
C2069 C2070 1.379 . S
C2070 H2054 0.931 . S
C2070 C2064 1.383 . S
C2070 C2069 1.379 . S
H2071 C2065 0.959 . S
H2072 C2065 0.961 . S
H2073 C2065 0.960 . S
H2074 C2066 0.930 . S
H2075 C2067 0.929 . S
H2076 C2084 0.929 . S
H2077 C2086 0.930 . S
H2078 C2088 0.930 . S
H2079 C2091 0.929 . S
H2080 C2094 0.930 . S
H2081 C2096 0.960 . S
H2082 C2096 0.960 . S
H2083 C2096 0.960 . S
C2084 H2076 0.929 . S
C2084 C2085 1.377 . S
C2084 C2086 1.384 . S
C2085 C2084 1.377 . S
C2085 C2091 1.390 . S
C2086 H2077 0.930 . S
C2086 C2084 1.384 . S
C2086 C2087 1.372 . S
C2087 C2086 1.372 . S
C2087 C2088 1.400 . S
C2087 C2092 1.490 . S
C2088 H2078 0.930 . S
C2088 C2087 1.400 . S
C2088 C2091 1.386 . S
H2089 C2105 0.930 . S
H2090 C2106 0.931 . S
C2091 H2079 0.929 . S
C2091 C2085 1.390 . S
C2091 C2088 1.386 . S
C2092 C2087 1.490 . S
C2092 C2094 1.395 . S
C2092 C2095 1.403 . S
H2093 C2099 0.930 . S
C2094 H2080 0.930 . S
C2094 C2092 1.395 . S
C2094 C2097 1.403 . S
C2095 C2092 1.403 . S
C2095 C2096 1.524 . S
C2095 C2099 1.400 . S
C2096 H2081 0.960 . S
C2096 H2082 0.960 . S
C2096 H2083 0.960 . S
C2096 C2095 1.524 . S
C2097 C2094 1.403 . S
C2097 C2098 1.392 . S
C2097 C2101 1.495 . S
C2098 C2097 1.392 . S
C2098 C2099 1.385 . S
C2098 C2100 1.478 . S
C2099 H2093 0.930 . S
C2099 C2095 1.400 . S
C2099 C2098 1.385 . S
C2100 C2098 1.478 . S
C2100 C2102 1.381 . S
C2100 C2106 1.383 . S
C2101 C2097 1.495 . S
C2101 H2107 0.959 . S
C2101 H2108 0.961 . S
C2101 H2109 0.960 . S
C2102 C2100 1.381 . S
C2102 C2103 1.394 . S
C2102 H2110 0.930 . S
C2103 C2102 1.394 . S
C2103 C2104 1.383 . S
C2103 H2111 0.929 . S
C2104 C2103 1.383 . S
C2104 C2105 1.377 . S
C2105 H2089 0.930 . S
C2105 C2104 1.377 . S
C2105 C2106 1.379 . S
C2106 H2090 0.931 . S
C2106 C2100 1.383 . S
C2106 C2105 1.379 . S
H2107 C2101 0.959 . S
H2108 C2101 0.961 . S
H2109 C2101 0.960 . S
H2110 C2102 0.930 . S
H2111 C2103 0.929 . S
H2112 C2120 0.929 . S
H2113 C2122 0.930 1_455 S
H2114 C2124 0.930 . S
H2115 C2127 0.929 . S
H2116 C2130 0.930 . S
H2117 C2132 0.960 . S
H2118 C2132 0.960 . S
H2119 C2132 0.960 . S
C2120 H2112 0.929 . S
C2120 C2121 1.377 . S
C2120 C2122 1.384 . S
C2121 C2120 1.377 . S
C2121 C2127 1.390 . S
C2122 H2113 0.930 1_655 S
C2122 C2120 1.384 . S
C2122 C2123 1.372 . S
C2123 C2122 1.372 . S
C2123 C2124 1.400 . S
C2123 C2128 1.490 . S
C2124 H2114 0.930 . S
C2124 C2123 1.400 . S
C2124 C2127 1.386 . S
H2125 C2141 0.930 . S
H2126 C2142 0.931 1_655 S
C2127 H2115 0.929 . S
C2127 C2121 1.390 . S
C2127 C2124 1.386 . S
C2128 C2123 1.490 . S
C2128 C2130 1.395 . S
C2128 C2131 1.403 . S
H2129 C2135 0.930 . S
C2130 H2116 0.930 . S
C2130 C2128 1.395 . S
C2130 C2133 1.403 1_655 S
C2131 C2128 1.403 . S
C2131 C2132 1.524 . S
C2131 C2135 1.400 1_655 S
C2132 H2117 0.960 . S
C2132 H2118 0.960 . S
C2132 H2119 0.960 . S
C2132 C2131 1.524 . S
C2133 C2130 1.403 1_455 S
C2133 C2134 1.392 . S
C2133 C2137 1.495 . S
C2134 C2133 1.392 . S
C2134 C2135 1.385 . S
C2134 C2136 1.478 . S
C2135 H2129 0.930 . S
C2135 C2131 1.400 1_455 S
C2135 C2134 1.385 . S
C2136 C2134 1.478 . S
C2136 C2138 1.381 . S
C2136 C2142 1.383 . S
C2137 C2133 1.495 . S
C2137 H2143 0.959 . S
C2137 H2144 0.961 . S
C2137 H2145 0.960 . S
C2138 C2136 1.381 . S
C2138 C2139 1.394 . S
C2138 H2146 0.930 . S
C2139 C2138 1.394 . S
C2139 C2140 1.383 . S
C2139 H2147 0.929 . S
C2140 C2139 1.383 . S
C2140 C2141 1.377 . S
C2141 H2125 0.930 . S
C2141 C2140 1.377 . S
C2141 C2142 1.379 . S
C2142 H2126 0.931 1_455 S
C2142 C2136 1.383 . S
C2142 C2141 1.379 . S
H2143 C2137 0.959 . S
H2144 C2137 0.961 . S
H2145 C2137 0.960 . S
H2146 C2138 0.930 . S
H2147 C2139 0.929 . S
H2148 C2156 0.929 . S
H2149 C2158 0.930 . S
H2150 C2160 0.930 . S
H2151 C2163 0.929 . S
H2152 C2166 0.930 . S
H2153 C2168 0.960 . S
H2154 C2168 0.960 . S
H2155 C2168 0.960 . S
C2156 H2148 0.929 . S
C2156 C2157 1.377 . S
C2156 C2158 1.384 . S
C2157 C2156 1.377 . S
C2157 C2163 1.390 . S
C2158 H2149 0.930 . S
C2158 C2156 1.384 . S
C2158 C2159 1.372 . S
C2159 C2158 1.372 . S
C2159 C2160 1.400 . S
C2159 C2164 1.490 . S
C2160 H2150 0.930 . S
C2160 C2159 1.400 . S
C2160 C2163 1.386 . S
H2161 C2177 0.930 . S
H2162 C2178 0.931 . S
C2163 H2151 0.929 . S
C2163 C2157 1.390 . S
C2163 C2160 1.386 . S
C2164 C2159 1.490 . S
C2164 C2166 1.395 . S
C2164 C2167 1.403 . S
H2165 C2171 0.930 . S
C2166 H2152 0.930 . S
C2166 C2164 1.395 . S
C2166 C2169 1.403 . S
C2167 C2164 1.403 . S
C2167 C2168 1.524 . S
C2167 C2171 1.400 . S
C2168 H2153 0.960 . S
C2168 H2154 0.960 . S
C2168 H2155 0.960 . S
C2168 C2167 1.524 . S
C2169 C2166 1.403 . S
C2169 C2170 1.392 . S
C2169 C2173 1.495 . S
C2170 C2169 1.392 . S
C2170 C2171 1.385 . S
C2170 C2172 1.478 . S
C2171 H2165 0.930 . S
C2171 C2167 1.400 . S
C2171 C2170 1.385 . S
C2172 C2170 1.478 . S
C2172 C2174 1.381 . S
C2172 C2178 1.383 . S
C2173 C2169 1.495 . S
C2173 H2179 0.959 . S
C2173 H2180 0.961 . S
C2173 H2181 0.960 . S
C2174 C2172 1.381 . S
C2174 C2175 1.394 . S
C2174 H2182 0.930 . S
C2175 C2174 1.394 . S
C2175 C2176 1.383 . S
C2175 H2183 0.929 . S
C2176 C2175 1.383 . S
C2176 C2177 1.377 . S
C2177 H2161 0.930 . S
C2177 C2176 1.377 . S
C2177 C2178 1.379 . S
C2178 H2162 0.931 . S
C2178 C2172 1.383 . S
C2178 C2177 1.379 . S
H2179 C2173 0.959 . S
H2180 C2173 0.961 . S
H2181 C2173 0.960 . S
H2182 C2174 0.930 . S
H2183 C2175 0.929 . S
H2184 C2192 0.929 . S
H2185 C2194 0.930 . S
H2186 C2196 0.930 . S
H2187 C2199 0.929 . S
H2188 C2202 0.930 . S
H2189 C2204 0.960 . S
H2190 C2204 0.960 . S
H2191 C2204 0.960 . S
C2192 H2184 0.929 . S
C2192 C2193 1.377 . S
C2192 C2194 1.384 . S
C2193 C2192 1.377 . S
C2193 C2199 1.390 . S
C2194 H2185 0.930 . S
C2194 C2192 1.384 . S
C2194 C2195 1.372 . S
C2195 C2194 1.372 . S
C2195 C2196 1.400 . S
C2195 C2200 1.490 . S
C2196 H2186 0.930 . S
C2196 C2195 1.400 . S
C2196 C2199 1.386 . S
H2197 C2213 0.930 . S
H2198 C2214 0.931 . S
C2199 H2187 0.929 . S
C2199 C2193 1.390 . S
C2199 C2196 1.386 . S
C2200 C2195 1.490 . S
C2200 C2202 1.395 . S
C2200 C2203 1.403 . S
H2201 C2207 0.930 . S
C2202 H2188 0.930 . S
C2202 C2200 1.395 . S
C2202 C2205 1.403 . S
C2203 C2200 1.403 . S
C2203 C2204 1.524 . S
C2203 C2207 1.400 . S
C2204 H2189 0.960 . S
C2204 H2190 0.960 . S
C2204 H2191 0.960 . S
C2204 C2203 1.524 . S
C2205 C2202 1.403 . S
C2205 C2206 1.392 . S
C2205 C2209 1.495 . S
C2206 C2205 1.392 . S
C2206 C2207 1.385 . S
C2206 C2208 1.478 . S
C2207 H2201 0.930 . S
C2207 C2203 1.400 . S
C2207 C2206 1.385 . S
C2208 C2206 1.478 . S
C2208 C2210 1.381 . S
C2208 C2214 1.383 . S
C2209 C2205 1.495 . S
C2209 H2215 0.959 . S
C2209 H2216 0.961 . S
C2209 H2217 0.960 . S
C2210 C2208 1.381 . S
C2210 C2211 1.394 . S
C2210 H2218 0.930 . S
C2211 C2210 1.394 . S
C2211 C2212 1.383 . S
C2211 H2219 0.929 . S
C2212 C2211 1.383 . S
C2212 C2213 1.377 . S
C2213 H2197 0.930 . S
C2213 C2212 1.377 . S
C2213 C2214 1.379 . S
C2214 H2198 0.931 . S
C2214 C2208 1.383 . S
C2214 C2213 1.379 . S
H2215 C2209 0.959 . S
H2216 C2209 0.961 . S
H2217 C2209 0.960 . S
H2218 C2210 0.930 . S
H2219 C2211 0.929 . S
H2220 C2228 0.929 . S
H2221 C2230 0.930 . S
H2222 C2232 0.930 . S
H2223 C2235 0.929 . S
H2224 C2238 0.930 . S
H2225 C2240 0.960 . S
H2226 C2240 0.960 . S
H2227 C2240 0.960 . S
C2228 H2220 0.929 . S
C2228 C2229 1.377 . S
C2228 C2230 1.384 . S
C2229 C2228 1.377 . S
C2229 C2235 1.390 . S
C2230 H2221 0.930 . S
C2230 C2228 1.384 . S
C2230 C2231 1.372 . S
C2231 C2230 1.372 . S
C2231 C2232 1.400 . S
C2231 C2236 1.490 . S
C2232 H2222 0.930 . S
C2232 C2231 1.400 . S
C2232 C2235 1.386 . S
H2233 C2249 0.930 . S
H2234 C2250 0.931 . S
C2235 H2223 0.929 . S
C2235 C2229 1.390 . S
C2235 C2232 1.386 . S
C2236 C2231 1.490 . S
C2236 C2238 1.395 . S
C2236 C2239 1.403 . S
H2237 C2243 0.930 . S
C2238 H2224 0.930 . S
C2238 C2236 1.395 . S
C2238 C2241 1.403 . S
C2239 C2236 1.403 . S
C2239 C2240 1.524 . S
C2239 C2243 1.400 . S
C2240 H2225 0.960 . S
C2240 H2226 0.960 . S
C2240 H2227 0.960 . S
C2240 C2239 1.524 . S
C2241 C2238 1.403 . S
C2241 C2242 1.392 . S
C2241 C2245 1.495 . S
C2242 C2241 1.392 . S
C2242 C2243 1.385 . S
C2242 C2244 1.478 . S
C2243 H2237 0.930 . S
C2243 C2239 1.400 . S
C2243 C2242 1.385 . S
C2244 C2242 1.478 . S
C2244 C2246 1.381 . S
C2244 C2250 1.383 . S
C2245 C2241 1.495 . S
C2245 H2251 0.959 . S
C2245 H2252 0.961 . S
C2245 H2253 0.960 . S
C2246 C2244 1.381 . S
C2246 C2247 1.394 . S
C2246 H2254 0.930 . S
C2247 C2246 1.394 . S
C2247 C2248 1.383 . S
C2247 H2255 0.929 . S
C2248 C2247 1.383 . S
C2248 C2249 1.377 . S
C2249 H2233 0.930 . S
C2249 C2248 1.377 . S
C2249 C2250 1.379 . S
C2250 H2234 0.931 . S
C2250 C2244 1.383 . S
C2250 C2249 1.379 . S
H2251 C2245 0.959 . S
H2252 C2245 0.961 . S
H2253 C2245 0.960 . S
H2254 C2246 0.930 . S
H2255 C2247 0.929 . S
H2256 C2264 0.929 . S
H2257 C2266 0.930 . S
H2258 C2268 0.924 1_556 S
H2259 C2271 0.929 1_556 S
H2260 C2274 0.930 . S
H2261 C2276 0.960 . S
H2262 C2276 0.960 . S
H2263 C2276 0.960 . S
C2264 H2256 0.929 . S
C2264 C2265 1.377 . S
C2264 C2266 1.384 . S
C2265 C2264 1.377 . S
C2265 C2271 1.390 . S
C2266 H2257 0.930 . S
C2266 C2264 1.384 . S
C2266 C2267 1.372 . S
C2267 C2266 1.372 . S
C2267 C2268 1.400 . S
C2267 C2272 1.490 . S
C2268 H2258 0.924 1_554 S
C2268 C2267 1.400 . S
C2268 C2271 1.386 . S
H2269 C2285 0.925 1_565 S
H2270 C2286 0.933 1_556 S
C2271 H2259 0.929 1_554 S
C2271 C2265 1.390 . S
C2271 C2268 1.386 . S
C2272 C2267 1.490 . S
C2272 C2274 1.395 1_565 S
C2272 C2275 1.403 . S
H2273 C2279 0.930 . S
C2274 H2260 0.930 . S
C2274 C2272 1.395 1_545 S
C2274 C2277 1.403 . S
C2275 C2272 1.403 . S
C2275 C2276 1.524 . S
C2275 C2279 1.400 . S
C2276 H2261 0.960 . S
C2276 H2262 0.960 . S
C2276 H2263 0.960 . S
C2276 C2275 1.524 . S
C2277 C2274 1.403 . S
C2277 C2278 1.392 1_545 S
C2277 C2281 1.495 . S
C2278 C2277 1.392 1_565 S
C2278 C2279 1.385 . S
C2278 C2280 1.478 1_565 S
C2279 H2273 0.930 . S
C2279 C2275 1.400 . S
C2279 C2278 1.385 . S
C2280 C2278 1.478 1_545 S
C2280 C2282 1.381 . S
C2280 C2286 1.383 1_545 S
C2281 C2277 1.495 . S
C2281 H2287 0.959 . S
C2281 H2288 0.961 . S
C2281 H2289 0.960 . S
C2282 C2280 1.381 . S
C2282 C2283 1.394 . S
C2282 H2290 0.930 . S
C2283 C2282 1.394 . S
C2283 C2284 1.383 . S
C2283 H2291 0.929 . S
C2284 C2283 1.383 . S
C2284 C2285 1.395 . S
C2285 H2269 0.925 1_545 S
C2285 C2284 1.395 . S
C2285 C2286 1.367 1_545 S
C2286 H2270 0.933 1_554 S
C2286 C2280 1.383 1_565 S
C2286 C2285 1.367 1_565 S
H2287 C2281 0.959 . S
H2288 C2281 0.961 . S
H2289 C2281 0.960 . S
H2290 C2282 0.930 . S
H2291 C2283 0.929 . S
H2292 C2300 0.929 . S
H2293 C2302 0.930 . S
H2294 C2304 0.930 . S
H2295 C2307 0.929 . S
H2296 C2310 0.930 . S
H2297 C2312 0.960 . S
H2298 C2312 0.960 . S
H2299 C2312 0.960 . S
C2300 H2292 0.929 . S
C2300 C2301 1.377 . S
C2300 C2302 1.384 . S
C2301 C2300 1.377 . S
C2301 C2307 1.390 1_556 S
C2302 H2293 0.930 . S
C2302 C2300 1.384 . S
C2302 C2303 1.372 . S
C2303 C2302 1.372 . S
C2303 C2304 1.400 1_556 S
C2303 C2308 1.490 . S
C2304 H2294 0.930 . S
C2304 C2303 1.400 1_554 S
C2304 C2307 1.386 . S
H2305 C2321 0.930 . S
H2306 C2322 0.931 . S
C2307 H2295 0.929 . S
C2307 C2301 1.390 1_554 S
C2307 C2304 1.386 . S
C2308 C2303 1.490 . S
C2308 C2310 1.395 . S
C2308 C2311 1.403 1_556 S
H2309 C2315 0.930 . S
C2310 H2296 0.930 . S
C2310 C2308 1.395 . S
C2310 C2313 1.403 . S
C2311 C2308 1.403 1_554 S
C2311 C2312 1.524 . S
C2311 C2315 1.400 . S
C2312 H2297 0.960 . S
C2312 H2298 0.960 . S
C2312 H2299 0.960 . S
C2312 C2311 1.524 . S
C2313 C2310 1.403 . S
C2313 C2314 1.392 . S
C2313 C2317 1.495 . S
C2314 C2313 1.392 . S
C2314 C2315 1.385 1_556 S
C2314 C2316 1.478 . S
C2315 H2309 0.930 . S
C2315 C2311 1.400 . S
C2315 C2314 1.385 1_554 S
C2316 C2314 1.478 . S
C2316 C2318 1.381 . S
C2316 C2322 1.383 1_556 S
C2317 C2313 1.495 . S
C2317 H2323 0.959 . S
C2317 H2324 0.961 . S
C2317 H2325 0.960 . S
C2318 C2316 1.381 . S
C2318 C2319 1.394 . S
C2318 H2326 0.930 . S
C2319 C2318 1.394 . S
C2319 C2320 1.383 1_556 S
C2319 H2327 0.929 . S
C2320 C2319 1.383 1_554 S
C2320 C2321 1.377 . S
C2321 H2305 0.930 . S
C2321 C2320 1.377 . S
C2321 C2322 1.379 . S
C2322 H2306 0.931 . S
C2322 C2316 1.383 1_554 S
C2322 C2321 1.379 . S
H2323 C2317 0.959 . S
H2324 C2317 0.961 . S
H2325 C2317 0.960 . S
H2326 C2318 0.930 . S
H2327 C2319 0.929 . S
H2328 C2336 0.929 . S
H2329 C2338 0.930 . S
H2330 C2340 0.930 . S
H2331 C2343 0.929 . S
H2332 C2346 0.930 . S
H2333 C2348 0.960 . S
H2334 C2348 0.960 . S
H2335 C2348 0.960 . S
C2336 H2328 0.929 . S
C2336 C2337 1.377 . S
C2336 C2338 1.384 . S
C2337 C2336 1.377 . S
C2337 C2343 1.390 . S
C2338 H2329 0.930 . S
C2338 C2336 1.384 . S
C2338 C2339 1.372 . S
C2339 C2338 1.372 . S
C2339 C2340 1.400 . S
C2339 C2344 1.490 . S
C2340 H2330 0.930 . S
C2340 C2339 1.400 . S
C2340 C2343 1.386 . S
H2341 C2357 0.930 . S
H2342 C2358 0.931 . S
C2343 H2331 0.929 . S
C2343 C2337 1.390 . S
C2343 C2340 1.386 . S
C2344 C2339 1.490 . S
C2344 C2346 1.395 . S
C2344 C2347 1.403 . S
H2345 C2351 0.930 . S
C2346 H2332 0.930 . S
C2346 C2344 1.395 . S
C2346 C2349 1.403 . S
C2347 C2344 1.403 . S
C2347 C2348 1.524 . S
C2347 C2351 1.400 . S
C2348 H2333 0.960 . S
C2348 H2334 0.960 . S
C2348 H2335 0.960 . S
C2348 C2347 1.524 . S
C2349 C2346 1.403 . S
C2349 C2350 1.392 . S
C2349 C2353 1.495 . S
C2350 C2349 1.392 . S
C2350 C2351 1.385 . S
C2350 C2352 1.478 . S
C2351 H2345 0.930 . S
C2351 C2347 1.400 . S
C2351 C2350 1.385 . S
C2352 C2350 1.478 . S
C2352 C2354 1.381 . S
C2352 C2358 1.383 . S
C2353 C2349 1.495 . S
C2353 H2359 0.959 . S
C2353 H2360 0.961 . S
C2353 H2361 0.960 . S
C2354 C2352 1.381 . S
C2354 C2355 1.394 . S
C2354 H2362 0.930 . S
C2355 C2354 1.394 . S
C2355 C2356 1.383 . S
C2355 H2363 0.929 . S
C2356 C2355 1.383 . S
C2356 C2357 1.377 . S
C2357 H2341 0.930 . S
C2357 C2356 1.377 . S
C2357 C2358 1.379 . S
C2358 H2342 0.931 . S
C2358 C2352 1.383 . S
C2358 C2357 1.379 . S
H2359 C2353 0.959 . S
H2360 C2353 0.961 . S
H2361 C2353 0.960 . S
H2362 C2354 0.930 . S
H2363 C2355 0.929 . S
H2364 C2372 0.929 . S
H2365 C2374 0.930 . S
H2366 C2376 0.930 . S
H2367 C2379 0.929 . S
H2368 C2382 0.930 . S
H2369 C2384 0.960 . S
H2370 C2384 0.960 . S
H2371 C2384 0.960 . S
C2372 H2364 0.929 . S
C2372 C2373 1.377 . S
C2372 C2374 1.384 . S
C2373 C2372 1.377 . S
C2373 C2379 1.390 . S
C2374 H2365 0.930 . S
C2374 C2372 1.384 . S
C2374 C2375 1.372 . S
C2375 C2374 1.372 . S
C2375 C2376 1.400 . S
C2375 C2380 1.490 . S
C2376 H2366 0.930 . S
C2376 C2375 1.400 . S
C2376 C2379 1.386 . S
H2377 C2393 0.930 . S
H2378 C2394 0.931 . S
C2379 H2367 0.929 . S
C2379 C2373 1.390 . S
C2379 C2376 1.386 . S
C2380 C2375 1.490 . S
C2380 C2382 1.395 . S
C2380 C2383 1.403 . S
H2381 C2387 0.930 . S
C2382 H2368 0.930 . S
C2382 C2380 1.395 . S
C2382 C2385 1.403 . S
C2383 C2380 1.403 . S
C2383 C2384 1.524 . S
C2383 C2387 1.400 . S
C2384 H2369 0.960 . S
C2384 H2370 0.960 . S
C2384 H2371 0.960 . S
C2384 C2383 1.524 . S
C2385 C2382 1.403 . S
C2385 C2386 1.392 . S
C2385 C2389 1.495 . S
C2386 C2385 1.392 . S
C2386 C2387 1.385 . S
C2386 C2388 1.478 . S
C2387 H2381 0.930 . S
C2387 C2383 1.400 . S
C2387 C2386 1.385 . S
C2388 C2386 1.478 . S
C2388 C2390 1.381 . S
C2388 C2394 1.383 . S
C2389 C2385 1.495 . S
C2389 H2395 0.959 . S
C2389 H2396 0.961 . S
C2389 H2397 0.960 . S
C2390 C2388 1.381 . S
C2390 C2391 1.427 . S
C2390 H2398 0.930 . S
C2391 C2390 1.427 . S
C2391 C2392 1.368 1_655 S
C2391 H2399 0.913 1_655 S
C2392 C2391 1.368 1_455 S
C2392 C2393 1.377 . S
C2393 H2377 0.930 . S
C2393 C2392 1.377 . S
C2393 C2394 1.379 1_455 S
C2394 H2378 0.931 . S
C2394 C2388 1.383 . S
C2394 C2393 1.379 1_655 S
H2395 C2389 0.959 . S
H2396 C2389 0.961 . S
H2397 C2389 0.960 . S
H2398 C2390 0.930 . S
H2399 C2391 0.913 1_455 S
H2400 C2408 0.929 . S
H2401 C2410 0.930 . S
H2402 C2412 0.930 . S
H2403 C2415 0.929 . S
H2404 C2418 0.930 . S
H2405 C2420 0.960 . S
H2406 C2420 0.960 . S
H2407 C2420 0.960 . S
C2408 H2400 0.929 . S
C2408 C2409 1.377 . S
C2408 C2410 1.384 . S
C2409 C2408 1.377 . S
C2409 C2415 1.390 . S
C2410 H2401 0.930 . S
C2410 C2408 1.384 . S
C2410 C2411 1.372 . S
C2411 C2410 1.372 . S
C2411 C2412 1.400 . S
C2411 C2416 1.490 . S
C2412 H2402 0.930 . S
C2412 C2411 1.400 . S
C2412 C2415 1.386 . S
H2413 C2429 0.930 . S
H2414 C2430 0.931 . S
C2415 H2403 0.929 . S
C2415 C2409 1.390 . S
C2415 C2412 1.386 . S
C2416 C2411 1.490 . S
C2416 C2418 1.395 . S
C2416 C2419 1.403 . S
H2417 C2423 0.930 . S
C2418 H2404 0.930 . S
C2418 C2416 1.395 . S
C2418 C2421 1.403 . S
C2419 C2416 1.403 . S
C2419 C2420 1.524 . S
C2419 C2423 1.400 . S
C2420 H2405 0.960 . S
C2420 H2406 0.960 . S
C2420 H2407 0.960 . S
C2420 C2419 1.524 . S
C2421 C2418 1.403 . S
C2421 C2422 1.392 . S
C2421 C2425 1.495 . S
C2422 C2421 1.392 . S
C2422 C2423 1.385 . S
C2422 C2424 1.478 . S
C2423 H2417 0.930 . S
C2423 C2419 1.400 . S
C2423 C2422 1.385 . S
C2424 C2422 1.478 . S
C2424 C2426 1.381 . S
C2424 C2430 1.383 . S
C2425 C2421 1.495 . S
C2425 H2431 0.959 . S
C2425 H2432 0.961 . S
C2425 H2433 0.960 . S
C2426 C2424 1.381 . S
C2426 C2427 1.394 . S
C2426 H2434 0.930 . S
C2427 C2426 1.394 . S
C2427 C2428 1.383 . S
C2427 H2435 0.929 . S
C2428 C2427 1.383 . S
C2428 C2429 1.377 . S
C2429 H2413 0.930 . S
C2429 C2428 1.377 . S
C2429 C2430 1.379 . S
C2430 H2414 0.931 . S
C2430 C2424 1.383 . S
C2430 C2429 1.379 . S
H2431 C2425 0.959 . S
H2432 C2425 0.961 . S
H2433 C2425 0.960 . S
H2434 C2426 0.930 . S
H2435 C2427 0.929 . S
H2436 C2444 0.929 . S
H2437 C2446 0.930 . S
H2438 C2448 0.930 . S
H2439 C2451 0.929 . S
H2440 C2454 0.930 . S
H2441 C2456 0.960 . S
H2442 C2456 0.960 . S
H2443 C2456 0.960 . S
C2444 H2436 0.929 . S
C2444 C2445 1.377 . S
C2444 C2446 1.384 . S
C2445 C2444 1.377 . S
C2445 C2451 1.390 . S
C2446 H2437 0.930 . S
C2446 C2444 1.384 . S
C2446 C2447 1.372 . S
C2447 C2446 1.372 . S
C2447 C2448 1.400 . S
C2447 C2452 1.490 . S
C2448 H2438 0.930 . S
C2448 C2447 1.400 . S
C2448 C2451 1.386 . S
H2449 C2465 0.930 . S
H2450 C2466 0.931 . S
C2451 H2439 0.929 . S
C2451 C2445 1.390 . S
C2451 C2448 1.386 . S
C2452 C2447 1.490 . S
C2452 C2454 1.395 . S
C2452 C2455 1.403 . S
H2453 C2459 0.930 . S
C2454 H2440 0.930 . S
C2454 C2452 1.395 . S
C2454 C2457 1.403 . S
C2455 C2452 1.403 . S
C2455 C2456 1.524 . S
C2455 C2459 1.400 . S
C2456 H2441 0.960 . S
C2456 H2442 0.960 . S
C2456 H2443 0.960 . S
C2456 C2455 1.524 . S
C2457 C2454 1.403 . S
C2457 C2458 1.392 . S
C2457 C2461 1.495 . S
C2458 C2457 1.392 . S
C2458 C2459 1.385 . S
C2458 C2460 1.478 . S
C2459 H2453 0.930 . S
C2459 C2455 1.400 . S
C2459 C2458 1.385 . S
C2460 C2458 1.478 . S
C2460 C2462 1.381 . S
C2460 C2466 1.383 . S
C2461 C2457 1.495 . S
C2461 H2467 0.959 . S
C2461 H2468 0.961 . S
C2461 H2469 0.960 . S
C2462 C2460 1.381 . S
C2462 C2463 1.394 . S
C2462 H2470 0.930 . S
C2463 C2462 1.394 . S
C2463 C2464 1.383 . S
C2463 H2471 0.929 . S
C2464 C2463 1.383 . S
C2464 C2465 1.377 . S
C2465 H2449 0.930 . S
C2465 C2464 1.377 . S
C2465 C2466 1.379 . S
C2466 H2450 0.931 . S
C2466 C2460 1.383 . S
C2466 C2465 1.379 . S
H2467 C2461 0.959 . S
H2468 C2461 0.961 . S
H2469 C2461 0.960 . S
H2470 C2462 0.930 . S
H2471 C2463 0.929 . S
H2472 C2480 0.929 . S
H2473 C2482 0.930 . S
H2474 C2484 0.930 . S
H2475 C2487 0.929 . S
H2476 C2490 0.930 . S
H2477 C2492 0.960 . S
H2478 C2492 0.960 . S
H2479 C2492 0.960 . S
C2480 H2472 0.929 . S
C2480 C2481 1.377 . S
C2480 C2482 1.384 . S
C2481 C2480 1.377 . S
C2481 C2487 1.390 . S
C2482 H2473 0.930 . S
C2482 C2480 1.384 . S
C2482 C2483 1.372 . S
C2483 C2482 1.372 . S
C2483 C2484 1.400 . S
C2483 C2488 1.490 . S
C2484 H2474 0.930 . S
C2484 C2483 1.400 . S
C2484 C2487 1.386 . S
H2485 C2501 0.930 . S
H2486 C2502 0.931 . S
C2487 H2475 0.929 . S
C2487 C2481 1.390 . S
C2487 C2484 1.386 . S
C2488 C2483 1.490 . S
C2488 C2490 1.395 . S
C2488 C2491 1.403 . S
H2489 C2495 0.930 . S
C2490 H2476 0.930 . S
C2490 C2488 1.395 . S
C2490 C2493 1.403 . S
C2491 C2488 1.403 . S
C2491 C2492 1.524 . S
C2491 C2495 1.400 . S
C2492 H2477 0.960 . S
C2492 H2478 0.960 . S
C2492 H2479 0.960 . S
C2492 C2491 1.524 . S
C2493 C2490 1.403 . S
C2493 C2494 1.392 . S
C2493 C2497 1.495 . S
C2494 C2493 1.392 . S
C2494 C2495 1.385 . S
C2494 C2496 1.478 . S
C2495 H2489 0.930 . S
C2495 C2491 1.400 . S
C2495 C2494 1.385 . S
C2496 C2494 1.478 . S
C2496 C2498 1.381 . S
C2496 C2502 1.383 . S
C2497 C2493 1.495 . S
C2497 H2503 0.959 . S
C2497 H2504 0.961 . S
C2497 H2505 0.960 . S
C2498 C2496 1.381 . S
C2498 C2499 1.394 . S
C2498 H2506 0.930 . S
C2499 C2498 1.394 . S
C2499 C2500 1.383 . S
C2499 H2507 0.929 . S
C2500 C2499 1.383 . S
C2500 C2501 1.377 . S
C2501 H2485 0.930 . S
C2501 C2500 1.377 . S
C2501 C2502 1.379 . S
C2502 H2486 0.931 . S
C2502 C2496 1.383 . S
C2502 C2501 1.379 . S
H2503 C2497 0.959 . S
H2504 C2497 0.961 . S
H2505 C2497 0.960 . S
H2506 C2498 0.930 . S
H2507 C2499 0.929 . S
H2508 C2516 0.929 . S
H2509 C2518 0.930 . S
H2510 C2520 0.930 . S
H2511 C2523 0.929 . S
H2512 C2526 0.930 . S
H2513 C2528 0.960 . S
H2514 C2528 0.960 . S
H2515 C2528 0.960 . S
C2516 H2508 0.929 . S
C2516 C2517 1.377 . S
C2516 C2518 1.384 . S
C2517 C2516 1.377 . S
C2517 C2523 1.390 . S
C2518 H2509 0.930 . S
C2518 C2516 1.384 . S
C2518 C2519 1.372 . S
C2519 C2518 1.372 . S
C2519 C2520 1.400 . S
C2519 C2524 1.490 . S
C2520 H2510 0.930 . S
C2520 C2519 1.400 . S
C2520 C2523 1.386 . S
H2521 C2537 0.930 . S
H2522 C2538 0.931 . S
C2523 H2511 0.929 . S
C2523 C2517 1.390 . S
C2523 C2520 1.386 . S
C2524 C2519 1.490 . S
C2524 C2526 1.395 . S
C2524 C2527 1.403 . S
H2525 C2531 0.930 . S
C2526 H2512 0.930 . S
C2526 C2524 1.395 . S
C2526 C2529 1.403 . S
C2527 C2524 1.403 . S
C2527 C2528 1.524 . S
C2527 C2531 1.400 . S
C2528 H2513 0.960 . S
C2528 H2514 0.960 . S
C2528 H2515 0.960 . S
C2528 C2527 1.524 . S
C2529 C2526 1.403 . S
C2529 C2530 1.392 . S
C2529 C2533 1.495 . S
C2530 C2529 1.392 . S
C2530 C2531 1.385 . S
C2530 C2532 1.478 . S
C2531 H2525 0.930 . S
C2531 C2527 1.400 . S
C2531 C2530 1.385 . S
C2532 C2530 1.478 . S
C2532 C2534 1.381 . S
C2532 C2538 1.383 . S
C2533 C2529 1.495 . S
C2533 H2539 0.959 . S
C2533 H2540 0.961 . S
C2533 H2541 0.960 . S
C2534 C2532 1.381 . S
C2534 C2535 1.394 . S
C2534 H2542 0.930 . S
C2535 C2534 1.394 . S
C2535 C2536 1.383 . S
C2535 H2543 0.929 . S
C2536 C2535 1.383 . S
C2536 C2537 1.377 . S
C2537 H2521 0.930 . S
C2537 C2536 1.377 . S
C2537 C2538 1.379 . S
C2538 H2522 0.931 . S
C2538 C2532 1.383 . S
C2538 C2537 1.379 . S
H2539 C2533 0.959 . S
H2540 C2533 0.961 . S
H2541 C2533 0.960 . S
H2542 C2534 0.930 . S
H2543 C2535 0.929 . S
H2544 C2552 0.929 . S
H2545 C2554 0.930 . S
H2546 C2556 0.930 . S
H2547 C2559 0.929 . S
H2548 C2562 0.930 . S
H2549 C2564 0.960 . S
H2550 C2564 0.960 . S
H2551 C2564 0.960 . S
C2552 H2544 0.929 . S
C2552 C2553 1.377 . S
C2552 C2554 1.384 . S
C2553 C2552 1.377 . S
C2553 C2559 1.390 . S
C2554 H2545 0.930 . S
C2554 C2552 1.384 . S
C2554 C2555 1.372 . S
C2555 C2554 1.372 . S
C2555 C2556 1.400 . S
C2555 C2560 1.490 . S
C2556 H2546 0.930 . S
C2556 C2555 1.400 . S
C2556 C2559 1.386 . S
H2557 C2573 0.936 . S
H2558 C2574 0.931 . S
C2559 H2547 0.929 . S
C2559 C2553 1.390 . S
C2559 C2556 1.386 . S
C2560 C2555 1.490 . S
C2560 C2562 1.395 . S
C2560 C2563 1.403 . S
H2561 C2567 0.930 . S
C2562 H2548 0.930 . S
C2562 C2560 1.395 . S
C2562 C2565 1.403 . S
C2563 C2560 1.403 . S
C2563 C2564 1.524 . S
C2563 C2567 1.400 . S
C2564 H2549 0.960 . S
C2564 H2550 0.960 . S
C2564 H2551 0.960 . S
C2564 C2563 1.524 . S
C2565 C2562 1.403 . S
C2565 C2566 1.392 . S
C2565 C2569 1.495 . S
C2566 C2565 1.392 . S
C2566 C2567 1.385 . S
C2566 C2568 1.478 . S
C2567 H2561 0.930 . S
C2567 C2563 1.400 . S
C2567 C2566 1.385 . S
C2568 C2566 1.478 . S
C2568 C2570 1.381 . S
C2568 C2574 1.383 . S
C2569 C2565 1.495 . S
C2569 H2575 0.959 . S
C2569 H2576 0.961 . S
C2569 H2577 0.960 . S
C2570 C2568 1.381 . S
C2570 C2571 1.394 . S
C2570 H2578 0.930 . S
C2571 C2570 1.394 . S
C2571 C2572 1.383 . S
C2571 H2579 0.929 . S
C2572 C2571 1.383 . S
C2572 C2573 1.377 . S
C2573 H2557 0.936 . S
C2573 C2572 1.377 . S
C2573 C2574 1.379 . S
C2574 H2558 0.931 . S
C2574 C2568 1.383 . S
C2574 C2573 1.379 . S
H2575 C2569 0.959 . S
H2576 C2569 0.961 . S
H2577 C2569 0.960 . S
H2578 C2570 0.930 . S
H2579 C2571 0.929 . S
H2580 C2588 0.929 . S
H2581 C2590 0.930 . S
H2582 C2592 0.930 . S
H2583 C2595 0.929 . S
H2584 C2598 0.930 . S
H2585 C2600 0.960 . S
H2586 C2600 0.960 . S
H2587 C2600 0.960 . S
C2588 H2580 0.929 . S
C2588 C2589 1.377 . S
C2588 C2590 1.384 . S
C2589 C2588 1.377 . S
C2589 C2595 1.390 . S
C2590 H2581 0.930 . S
C2590 C2588 1.384 . S
C2590 C2591 1.372 . S
C2591 C2590 1.372 . S
C2591 C2592 1.400 . S
C2591 C2596 1.490 . S
C2592 H2582 0.930 . S
C2592 C2591 1.400 . S
C2592 C2595 1.386 . S
H2593 C2609 0.930 . S
H2594 C2610 0.931 . S
C2595 H2583 0.929 . S
C2595 C2589 1.390 . S
C2595 C2592 1.386 . S
C2596 C2591 1.490 . S
C2596 C2598 1.395 . S
C2596 C2599 1.403 . S
H2597 C2603 0.930 . S
C2598 H2584 0.930 . S
C2598 C2596 1.395 . S
C2598 C2601 1.403 . S
C2599 C2596 1.403 . S
C2599 C2600 1.524 . S
C2599 C2603 1.400 . S
C2600 H2585 0.960 . S
C2600 H2586 0.960 . S
C2600 H2587 0.960 . S
C2600 C2599 1.524 . S
C2601 C2598 1.403 . S
C2601 C2602 1.392 . S
C2601 C2605 1.495 . S
C2602 C2601 1.392 . S
C2602 C2603 1.385 . S
C2602 C2604 1.478 . S
C2603 H2597 0.930 . S
C2603 C2599 1.400 . S
C2603 C2602 1.385 . S
C2604 C2602 1.478 . S
C2604 C2606 1.381 . S
C2604 C2610 1.383 . S
C2605 C2601 1.495 . S
C2605 H2611 0.959 . S
C2605 H2612 0.961 . S
C2605 H2613 0.960 . S
C2606 C2604 1.381 . S
C2606 C2607 1.394 . S
C2606 H2614 0.930 . S
C2607 C2606 1.394 . S
C2607 C2608 1.383 . S
C2607 H2615 0.929 . S
C2608 C2607 1.383 . S
C2608 C2609 1.377 . S
C2609 H2593 0.930 . S
C2609 C2608 1.377 . S
C2609 C2610 1.379 . S
C2610 H2594 0.931 . S
C2610 C2604 1.383 . S
C2610 C2609 1.379 . S
H2611 C2605 0.959 . S
H2612 C2605 0.961 . S
H2613 C2605 0.960 . S
H2614 C2606 0.930 . S
H2615 C2607 0.929 . S
H2616 C2624 0.929 . S
H2617 C2626 0.930 . S
H2618 C2628 0.930 . S
H2619 C2631 0.929 . S
H2620 C2634 0.930 . S
H2621 C2636 0.960 . S
H2622 C2636 0.960 . S
H2623 C2636 0.960 . S
C2624 H2616 0.929 . S
C2624 C2625 1.377 . S
C2624 C2626 1.384 . S
C2625 C2624 1.377 . S
C2625 C2631 1.390 . S
C2626 H2617 0.930 . S
C2626 C2624 1.384 . S
C2626 C2627 1.372 . S
C2627 C2626 1.372 . S
C2627 C2628 1.400 . S
C2627 C2632 1.490 . S
C2628 H2618 0.930 . S
C2628 C2627 1.400 . S
C2628 C2631 1.386 . S
H2629 C2645 0.930 . S
H2630 C2646 0.931 . S
C2631 H2619 0.929 . S
C2631 C2625 1.390 . S
C2631 C2628 1.386 . S
C2632 C2627 1.490 . S
C2632 C2634 1.395 . S
C2632 C2635 1.403 . S
H2633 C2639 0.930 . S
C2634 H2620 0.930 . S
C2634 C2632 1.395 . S
C2634 C2637 1.403 . S
C2635 C2632 1.403 . S
C2635 C2636 1.524 . S
C2635 C2639 1.400 . S
C2636 H2621 0.960 . S
C2636 H2622 0.960 . S
C2636 H2623 0.960 . S
C2636 C2635 1.524 . S
C2637 C2634 1.403 . S
C2637 C2638 1.392 . S
C2637 C2641 1.495 . S
C2638 C2637 1.392 . S
C2638 C2639 1.385 . S
C2638 C2640 1.478 . S
C2639 H2633 0.930 . S
C2639 C2635 1.400 . S
C2639 C2638 1.385 . S
C2640 C2638 1.478 . S
C2640 C2642 1.381 . S
C2640 C2646 1.383 . S
C2641 C2637 1.495 . S
C2641 H2647 0.959 . S
C2641 H2648 0.961 . S
C2641 H2649 0.960 . S
C2642 C2640 1.381 . S
C2642 C2643 1.394 . S
C2642 H2650 0.930 . S
C2643 C2642 1.394 . S
C2643 C2644 1.383 . S
C2643 H2651 0.929 . S
C2644 C2643 1.383 . S
C2644 C2645 1.377 . S
C2645 H2629 0.930 . S
C2645 C2644 1.377 . S
C2645 C2646 1.379 . S
C2646 H2630 0.931 . S
C2646 C2640 1.383 . S
C2646 C2645 1.379 . S
H2647 C2641 0.959 . S
H2648 C2641 0.961 . S
H2649 C2641 0.960 . S
H2650 C2642 0.930 . S
H2651 C2643 0.929 . S
H2652 C2660 0.929 . S
H2653 C2662 0.930 . S
H2654 C2664 0.930 . S
H2655 C2667 0.929 . S
H2656 C2670 0.930 . S
H2657 C2672 0.960 . S
H2658 C2672 0.960 . S
H2659 C2672 0.960 . S
C2660 H2652 0.929 . S
C2660 C2661 1.377 . S
C2660 C2662 1.384 . S
C2661 C2660 1.377 . S
C2661 C2667 1.390 . S
C2662 H2653 0.930 . S
C2662 C2660 1.384 . S
C2662 C2663 1.372 . S
C2663 C2662 1.372 . S
C2663 C2664 1.400 . S
C2663 C2668 1.490 . S
C2664 H2654 0.930 . S
C2664 C2663 1.400 . S
C2664 C2667 1.386 . S
H2665 C2681 0.930 . S
H2666 C2682 0.931 . S
C2667 H2655 0.929 . S
C2667 C2661 1.390 . S
C2667 C2664 1.386 . S
C2668 C2663 1.490 . S
C2668 C2670 1.395 . S
C2668 C2671 1.403 . S
H2669 C2675 0.930 . S
C2670 H2656 0.930 . S
C2670 C2668 1.395 . S
C2670 C2673 1.403 . S
C2671 C2668 1.403 . S
C2671 C2672 1.524 . S
C2671 C2675 1.400 . S
C2672 H2657 0.960 . S
C2672 H2658 0.960 . S
C2672 H2659 0.960 . S
C2672 C2671 1.524 . S
C2673 C2670 1.403 . S
C2673 C2674 1.392 . S
C2673 C2677 1.495 . S
C2674 C2673 1.392 . S
C2674 C2675 1.385 . S
C2674 C2676 1.478 . S
C2675 H2669 0.930 . S
C2675 C2671 1.400 . S
C2675 C2674 1.385 . S
C2676 C2674 1.478 . S
C2676 C2678 1.381 . S
C2676 C2682 1.383 . S
C2677 C2673 1.495 . S
C2677 H2683 0.959 . S
C2677 H2684 0.961 . S
C2677 H2685 0.960 . S
C2678 C2676 1.381 . S
C2678 C2679 1.394 . S
C2678 H2686 0.930 . S
C2679 C2678 1.394 . S
C2679 C2680 1.383 . S
C2679 H2687 0.929 . S
C2680 C2679 1.383 . S
C2680 C2681 1.377 . S
C2681 H2665 0.930 . S
C2681 C2680 1.377 . S
C2681 C2682 1.379 . S
C2682 H2666 0.931 . S
C2682 C2676 1.383 . S
C2682 C2681 1.379 . S
H2683 C2677 0.959 . S
H2684 C2677 0.961 . S
H2685 C2677 0.960 . S
H2686 C2678 0.930 . S
H2687 C2679 0.929 . S
H2688 C2696 0.929 . S
H2689 C2698 0.930 . S
H2690 C2700 0.930 . S
H2691 C2703 0.929 . S
H2692 C2706 0.930 . S
H2693 C2708 0.960 . S
H2694 C2708 0.960 . S
H2695 C2708 0.960 . S
C2696 H2688 0.929 . S
C2696 C2697 1.377 . S
C2696 C2698 1.384 . S
C2697 C2696 1.377 . S
C2697 C2703 1.390 . S
C2698 H2689 0.930 . S
C2698 C2696 1.384 . S
C2698 C2699 1.372 . S
C2699 C2698 1.372 . S
C2699 C2700 1.400 . S
C2699 C2704 1.490 . S
C2700 H2690 0.930 . S
C2700 C2699 1.400 . S
C2700 C2703 1.386 . S
H2701 C2717 0.930 . S
H2702 C2718 0.931 . S
C2703 H2691 0.929 . S
C2703 C2697 1.390 . S
C2703 C2700 1.386 . S
C2704 C2699 1.490 . S
C2704 C2706 1.395 . S
C2704 C2707 1.403 . S
H2705 C2711 0.930 . S
C2706 H2692 0.930 . S
C2706 C2704 1.395 . S
C2706 C2709 1.403 . S
C2707 C2704 1.403 . S
C2707 C2708 1.524 . S
C2707 C2711 1.400 . S
C2708 H2693 0.960 . S
C2708 H2694 0.960 . S
C2708 H2695 0.960 . S
C2708 C2707 1.524 . S
C2709 C2706 1.403 . S
C2709 C2710 1.392 . S
C2709 C2713 1.495 . S
C2710 C2709 1.392 . S
C2710 C2711 1.385 . S
C2710 C2712 1.478 . S
C2711 H2705 0.930 . S
C2711 C2707 1.400 . S
C2711 C2710 1.385 . S
C2712 C2710 1.478 . S
C2712 C2714 1.381 . S
C2712 C2718 1.383 . S
C2713 C2709 1.495 . S
C2713 H2719 0.959 . S
C2713 H2720 0.961 . S
C2713 H2721 0.960 . S
C2714 C2712 1.381 . S
C2714 C2715 1.394 . S
C2714 H2722 0.930 . S
C2715 C2714 1.394 . S
C2715 C2716 1.383 . S
C2715 H2723 0.929 . S
C2716 C2715 1.383 . S
C2716 C2717 1.377 . S
C2717 H2701 0.930 . S
C2717 C2716 1.377 . S
C2717 C2718 1.379 . S
C2718 H2702 0.931 . S
C2718 C2712 1.383 . S
C2718 C2717 1.379 . S
H2719 C2713 0.959 . S
H2720 C2713 0.961 . S
H2721 C2713 0.960 . S
H2722 C2714 0.930 . S
H2723 C2715 0.929 . S
H2724 C2732 0.929 . S
H2725 C2734 0.930 . S
H2726 C2736 0.930 . S
H2727 C2739 0.929 . S
H2728 C2742 0.930 . S
H2729 C2744 0.960 . S
H2730 C2744 0.960 . S
H2731 C2744 0.960 . S
C2732 H2724 0.929 . S
C2732 C2733 1.377 . S
C2732 C2734 1.384 . S
C2733 C2732 1.377 . S
C2733 C2739 1.390 . S
C2734 H2725 0.930 . S
C2734 C2732 1.384 . S
C2734 C2735 1.372 . S
C2735 C2734 1.372 . S
C2735 C2736 1.400 . S
C2735 C2740 1.490 . S
C2736 H2726 0.930 . S
C2736 C2735 1.400 . S
C2736 C2739 1.386 . S
H2737 C2753 0.930 . S
H2738 C2754 0.931 . S
C2739 H2727 0.929 . S
C2739 C2733 1.390 . S
C2739 C2736 1.386 . S
C2740 C2735 1.490 . S
C2740 C2742 1.395 . S
C2740 C2743 1.403 . S
H2741 C2747 0.930 . S
C2742 H2728 0.930 . S
C2742 C2740 1.395 . S
C2742 C2745 1.403 . S
C2743 C2740 1.403 . S
C2743 C2744 1.524 . S
C2743 C2747 1.400 . S
C2744 H2729 0.960 . S
C2744 H2730 0.960 . S
C2744 H2731 0.960 . S
C2744 C2743 1.524 . S
C2745 C2742 1.403 . S
C2745 C2746 1.392 . S
C2745 C2749 1.495 . S
C2746 C2745 1.392 . S
C2746 C2747 1.385 . S
C2746 C2748 1.478 . S
C2747 H2741 0.930 . S
C2747 C2743 1.400 . S
C2747 C2746 1.385 . S
C2748 C2746 1.478 . S
C2748 C2750 1.381 . S
C2748 C2754 1.383 . S
C2749 C2745 1.495 . S
C2749 H2755 0.959 . S
C2749 H2756 0.961 . S
C2749 H2757 0.960 . S
C2750 C2748 1.381 . S
C2750 C2751 1.394 . S
C2750 H2758 0.930 . S
C2751 C2750 1.394 . S
C2751 C2752 1.383 . S
C2751 H2759 0.929 . S
C2752 C2751 1.383 . S
C2752 C2753 1.377 . S
C2753 H2737 0.930 . S
C2753 C2752 1.377 . S
C2753 C2754 1.379 . S
C2754 H2738 0.931 . S
C2754 C2748 1.383 . S
C2754 C2753 1.379 . S
H2755 C2749 0.959 . S
H2756 C2749 0.961 . S
H2757 C2749 0.960 . S
H2758 C2750 0.930 . S
H2759 C2751 0.929 . S
H2760 C2768 0.929 . S
H2761 C2770 0.930 . S
H2762 C2772 0.930 . S
H2763 C2775 0.929 . S
H2764 C2778 0.930 . S
H2765 C2780 0.960 . S
H2766 C2780 0.960 . S
H2767 C2780 0.960 . S
C2768 H2760 0.929 . S
C2768 C2769 1.377 . S
C2768 C2770 1.384 . S
C2769 C2768 1.377 . S
C2769 C2775 1.390 . S
C2770 H2761 0.930 . S
C2770 C2768 1.384 . S
C2770 C2771 1.372 . S
C2771 C2770 1.372 . S
C2771 C2772 1.400 . S
C2771 C2776 1.490 . S
C2772 H2762 0.930 . S
C2772 C2771 1.400 . S
C2772 C2775 1.386 . S
H2773 C2789 0.930 . S
H2774 C2790 0.931 . S
C2775 H2763 0.929 . S
C2775 C2769 1.390 . S
C2775 C2772 1.386 . S
C2776 C2771 1.490 . S
C2776 C2778 1.395 . S
C2776 C2779 1.403 . S
H2777 C2783 0.930 . S
C2778 H2764 0.930 . S
C2778 C2776 1.395 . S
C2778 C2781 1.403 . S
C2779 C2776 1.403 . S
C2779 C2780 1.524 . S
C2779 C2783 1.400 . S
C2780 H2765 0.960 . S
C2780 H2766 0.960 . S
C2780 H2767 0.960 . S
C2780 C2779 1.524 . S
C2781 C2778 1.403 . S
C2781 C2782 1.392 . S
C2781 C2785 1.495 . S
C2782 C2781 1.392 . S
C2782 C2783 1.385 . S
C2782 C2784 1.478 . S
C2783 H2777 0.930 . S
C2783 C2779 1.400 . S
C2783 C2782 1.385 . S
C2784 C2782 1.478 . S
C2784 C2786 1.381 . S
C2784 C2790 1.383 . S
C2785 C2781 1.495 . S
C2785 H2791 0.959 . S
C2785 H2792 0.961 . S
C2785 H2793 0.960 . S
C2786 C2784 1.381 . S
C2786 C2787 1.409 . S
C2786 H2794 0.930 . S
C2787 C2786 1.409 . S
C2787 C2788 1.391 . S
C2787 H2795 0.908 1_566 S
C2788 C2787 1.391 . S
C2788 C2789 1.377 . S
C2789 H2773 0.930 . S
C2789 C2788 1.377 . S
C2789 C2790 1.379 . S
C2790 H2774 0.931 . S
C2790 C2784 1.383 . S
C2790 C2789 1.379 . S
H2791 C2785 0.959 . S
H2792 C2785 0.961 . S
H2793 C2785 0.960 . S
H2794 C2786 0.930 . S
H2795 C2787 0.908 1_544 S
H2796 C2804 0.929 . S
H2797 C2806 0.930 . S
H2798 C2808 0.930 . S
H2799 C2811 0.929 . S
H2800 C2814 0.930 . S
H2801 C2816 0.960 . S
H2802 C2816 0.960 . S
H2803 C2816 0.960 . S
C2804 H2796 0.929 . S
C2804 C2805 1.377 . S
C2804 C2806 1.384 . S
C2805 C2804 1.377 . S
C2805 C2811 1.390 . S
C2806 H2797 0.930 . S
C2806 C2804 1.384 . S
C2806 C2807 1.372 . S
C2807 C2806 1.372 . S
C2807 C2808 1.400 . S
C2807 C2812 1.490 . S
C2808 H2798 0.930 . S
C2808 C2807 1.400 . S
C2808 C2811 1.386 . S
H2809 C2825 0.930 . S
H2810 C2826 0.931 . S
C2811 H2799 0.929 . S
C2811 C2805 1.390 . S
C2811 C2808 1.386 . S
C2812 C2807 1.490 . S
C2812 C2814 1.395 . S
C2812 C2815 1.403 . S
H2813 C2819 0.930 . S
C2814 H2800 0.930 . S
C2814 C2812 1.395 . S
C2814 C2817 1.403 . S
C2815 C2812 1.403 . S
C2815 C2816 1.524 . S
C2815 C2819 1.400 . S
C2816 H2801 0.960 . S
C2816 H2802 0.960 . S
C2816 H2803 0.960 . S
C2816 C2815 1.524 . S
C2817 C2814 1.403 . S
C2817 C2818 1.392 . S
C2817 C2821 1.495 . S
C2818 C2817 1.392 . S
C2818 C2819 1.385 . S
C2818 C2820 1.478 . S
C2819 H2813 0.930 . S
C2819 C2815 1.400 . S
C2819 C2818 1.385 . S
C2820 C2818 1.478 . S
C2820 C2822 1.381 . S
C2820 C2826 1.383 . S
C2821 C2817 1.495 . S
C2821 H2827 0.959 . S
C2821 H2828 0.961 . S
C2821 H2829 0.960 . S
C2822 C2820 1.381 . S
C2822 C2823 1.394 . S
C2822 H2830 0.930 . S
C2823 C2822 1.394 . S
C2823 C2824 1.383 . S
C2823 H2831 0.929 . S
C2824 C2823 1.383 . S
C2824 C2825 1.377 . S
C2825 H2809 0.930 . S
C2825 C2824 1.377 . S
C2825 C2826 1.379 . S
C2826 H2810 0.931 . S
C2826 C2820 1.383 . S
C2826 C2825 1.379 . S
H2827 C2821 0.959 . S
H2828 C2821 0.961 . S
H2829 C2821 0.960 . S
H2830 C2822 0.930 . S
H2831 C2823 0.929 . S
H2832 C2840 0.929 . S
H2833 C2842 0.926 1_565 S
H2834 C2844 0.930 . S
H2835 C2847 0.929 . S
H2836 C2850 0.930 . S
H2837 C2852 0.960 . S
H2838 C2852 0.960 . S
H2839 C2852 0.960 . S
C2840 H2832 0.929 . S
C2840 C2841 1.377 1_565 S
C2840 C2842 1.384 1_565 S
C2841 C2840 1.377 1_545 S
C2841 C2847 1.390 . S
C2842 H2833 0.926 1_545 S
C2842 C2840 1.384 1_545 S
C2842 C2843 1.375 . S
C2843 C2842 1.375 . S
C2843 C2844 1.400 . S
C2843 C2848 1.490 . S
C2844 H2834 0.930 . S
C2844 C2843 1.400 . S
C2844 C2847 1.386 . S
H2845 C2861 0.930 . S
H2846 C2862 0.931 . S
C2847 H2835 0.929 . S
C2847 C2841 1.390 . S
C2847 C2844 1.386 . S
C2848 C2843 1.490 . S
C2848 C2850 1.395 . S
C2848 C2851 1.403 1_545 S
H2849 C2855 0.930 1_565 S
C2850 H2836 0.930 . S
C2850 C2848 1.395 . S
C2850 C2853 1.403 . S
C2851 C2848 1.403 1_565 S
C2851 C2852 1.524 . S
C2851 C2855 1.400 1_565 S
C2852 H2837 0.960 . S
C2852 H2838 0.960 . S
C2852 H2839 0.960 . S
C2852 C2851 1.524 . S
C2853 C2850 1.403 . S
C2853 C2854 1.392 . S
C2853 C2857 1.495 . S
C2854 C2853 1.392 . S
C2854 C2855 1.385 . S
C2854 C2856 1.478 . S
C2855 H2849 0.930 1_545 S
C2855 C2851 1.400 1_545 S
C2855 C2854 1.385 . S
C2856 C2854 1.478 . S
C2856 C2858 1.381 . S
C2856 C2862 1.383 . S
C2857 C2853 1.495 . S
C2857 H2863 0.959 . S
C2857 H2864 0.961 . S
C2857 H2865 0.960 . S
C2858 C2856 1.381 . S
C2858 C2859 1.394 . S
C2858 H2866 0.930 . S
C2859 C2858 1.394 . S
C2859 C2860 1.383 . S
C2859 H2867 0.929 . S
C2860 C2859 1.383 . S
C2860 C2861 1.377 . S
C2861 H2845 0.930 . S
C2861 C2860 1.377 . S
C2861 C2862 1.379 . S
C2862 H2846 0.931 . S
C2862 C2856 1.383 . S
C2862 C2861 1.379 . S
H2863 C2857 0.959 . S
H2864 C2857 0.961 . S
H2865 C2857 0.960 . S
H2866 C2858 0.930 . S
H2867 C2859 0.929 . S
H2868 C2876 0.929 . S
H2869 C2878 0.930 . S
H2870 C2880 0.930 . S
H2871 C2883 0.929 . S
H2872 C2886 0.930 . S
H2873 C2888 0.960 . S
H2874 C2888 0.960 . S
H2875 C2888 0.960 . S
C2876 H2868 0.929 . S
C2876 C2877 1.377 . S
C2876 C2878 1.384 . S
C2877 C2876 1.377 . S
C2877 C2883 1.390 . S
C2878 H2869 0.930 . S
C2878 C2876 1.384 . S
C2878 C2879 1.372 . S
C2879 C2878 1.372 . S
C2879 C2880 1.400 . S
C2879 C2884 1.490 . S
C2880 H2870 0.930 . S
C2880 C2879 1.400 . S
C2880 C2883 1.386 . S
H2881 C2897 0.930 . S
H2882 C2898 0.931 . S
C2883 H2871 0.929 . S
C2883 C2877 1.390 . S
C2883 C2880 1.386 . S
C2884 C2879 1.490 . S
C2884 C2886 1.395 . S
C2884 C2887 1.403 . S
H2885 C2891 0.930 . S
C2886 H2872 0.930 . S
C2886 C2884 1.395 . S
C2886 C2889 1.403 . S
C2887 C2884 1.403 . S
C2887 C2888 1.524 . S
C2887 C2891 1.400 . S
C2888 H2873 0.960 . S
C2888 H2874 0.960 . S
C2888 H2875 0.960 . S
C2888 C2887 1.524 . S
C2889 C2886 1.403 . S
C2889 C2890 1.392 . S
C2889 C2893 1.495 . S
C2890 C2889 1.392 . S
C2890 C2891 1.385 . S
C2890 C2892 1.478 . S
C2891 H2885 0.930 . S
C2891 C2887 1.400 . S
C2891 C2890 1.385 . S
C2892 C2890 1.478 . S
C2892 C2894 1.381 . S
C2892 C2898 1.383 . S
C2893 C2889 1.495 . S
C2893 H2899 0.959 . S
C2893 H2900 0.961 . S
C2893 H2901 0.960 . S
C2894 C2892 1.381 . S
C2894 C2895 1.394 . S
C2894 H2902 0.930 . S
C2895 C2894 1.394 . S
C2895 C2896 1.383 . S
C2895 H2903 0.929 . S
C2896 C2895 1.383 . S
C2896 C2897 1.377 . S
C2897 H2881 0.930 . S
C2897 C2896 1.377 . S
C2897 C2898 1.379 . S
C2898 H2882 0.931 . S
C2898 C2892 1.383 . S
C2898 C2897 1.379 . S
H2899 C2893 0.959 . S
H2900 C2893 0.961 . S
H2901 C2893 0.960 . S
H2902 C2894 0.930 . S
H2903 C2895 0.929 . S
H2904 C2912 0.929 . S
H2905 C2914 0.930 . S
H2906 C2916 0.930 . S
H2907 C2919 0.929 . S
H2908 C2922 0.930 . S
H2909 C2924 0.960 . S
H2910 C2924 0.960 . S
H2911 C2924 0.960 . S
C2912 H2904 0.929 . S
C2912 C2913 1.377 . S
C2912 C2914 1.384 . S
C2913 C2912 1.377 . S
C2913 C2919 1.390 . S
C2914 H2905 0.930 . S
C2914 C2912 1.384 . S
C2914 C2915 1.372 . S
C2915 C2914 1.372 . S
C2915 C2916 1.400 . S
C2915 C2920 1.490 . S
C2916 H2906 0.930 . S
C2916 C2915 1.400 . S
C2916 C2919 1.386 . S
H2917 C2933 0.930 . S
H2918 C2934 0.931 . S
C2919 H2907 0.929 . S
C2919 C2913 1.390 . S
C2919 C2916 1.386 . S
C2920 C2915 1.490 . S
C2920 C2922 1.395 . S
C2920 C2923 1.403 . S
H2921 C2927 0.930 . S
C2922 H2908 0.930 . S
C2922 C2920 1.395 . S
C2922 C2925 1.403 . S
C2923 C2920 1.403 . S
C2923 C2924 1.524 . S
C2923 C2927 1.400 . S
C2924 H2909 0.960 . S
C2924 H2910 0.960 . S
C2924 H2911 0.960 . S
C2924 C2923 1.524 . S
C2925 C2922 1.403 . S
C2925 C2926 1.392 . S
C2925 C2929 1.495 . S
C2926 C2925 1.392 . S
C2926 C2927 1.385 . S
C2926 C2928 1.478 . S
C2927 H2921 0.930 . S
C2927 C2923 1.400 . S
C2927 C2926 1.385 . S
C2928 C2926 1.478 . S
C2928 C2930 1.381 . S
C2928 C2934 1.383 . S
C2929 C2925 1.495 . S
C2929 H2935 0.959 . S
C2929 H2936 0.961 . S
C2929 H2937 0.960 . S
C2930 C2928 1.381 . S
C2930 C2931 1.394 . S
C2930 H2938 0.930 . S
C2931 C2930 1.394 . S
C2931 C2932 1.383 . S
C2931 H2939 0.929 . S
C2932 C2931 1.383 . S
C2932 C2933 1.377 . S
C2933 H2917 0.930 . S
C2933 C2932 1.377 . S
C2933 C2934 1.379 . S
C2934 H2918 0.931 . S
C2934 C2928 1.383 . S
C2934 C2933 1.379 . S
H2935 C2929 0.959 . S
H2936 C2929 0.961 . S
H2937 C2929 0.960 . S
H2938 C2930 0.930 . S
H2939 C2931 0.929 . S
H2940 C2948 0.929 . S
H2941 C2950 0.930 . S
H2942 C2952 0.930 . S
H2943 C2955 0.929 . S
H2944 C2958 0.930 . S
H2945 C2960 0.960 . S
H2946 C2960 0.960 . S
H2947 C2960 0.960 . S
C2948 H2940 0.929 . S
C2948 C2949 1.377 . S
C2948 C2950 1.384 . S
C2949 C2948 1.377 . S
C2949 C2955 1.390 . S
C2950 H2941 0.930 . S
C2950 C2948 1.384 . S
C2950 C2951 1.372 . S
C2951 C2950 1.372 . S
C2951 C2952 1.400 . S
C2951 C2956 1.490 . S
C2952 H2942 0.930 . S
C2952 C2951 1.400 . S
C2952 C2955 1.386 . S
H2953 C2969 0.930 . S
H2954 C2970 0.931 . S
C2955 H2943 0.929 . S
C2955 C2949 1.390 . S
C2955 C2952 1.386 . S
C2956 C2951 1.490 . S
C2956 C2958 1.395 . S
C2956 C2959 1.403 . S
H2957 C2963 0.930 . S
C2958 H2944 0.930 . S
C2958 C2956 1.395 . S
C2958 C2961 1.403 . S
C2959 C2956 1.403 . S
C2959 C2960 1.524 . S
C2959 C2963 1.400 . S
C2960 H2945 0.960 . S
C2960 H2946 0.960 . S
C2960 H2947 0.960 . S
C2960 C2959 1.524 . S
C2961 C2958 1.403 . S
C2961 C2962 1.392 . S
C2961 C2965 1.495 . S
C2962 C2961 1.392 . S
C2962 C2963 1.385 . S
C2962 C2964 1.478 . S
C2963 H2957 0.930 . S
C2963 C2959 1.400 . S
C2963 C2962 1.385 . S
C2964 C2962 1.478 . S
C2964 C2966 1.381 . S
C2964 C2970 1.383 . S
C2965 C2961 1.495 . S
C2965 H2971 0.959 . S
C2965 H2972 0.961 . S
C2965 H2973 0.960 . S
C2966 C2964 1.381 . S
C2966 C2967 1.394 . S
C2966 H2974 0.930 . S
C2967 C2966 1.394 . S
C2967 C2968 1.383 . S
C2967 H2975 0.929 . S
C2968 C2967 1.383 . S
C2968 C2969 1.377 . S
C2969 H2953 0.930 . S
C2969 C2968 1.377 . S
C2969 C2970 1.379 . S
C2970 H2954 0.931 . S
C2970 C2964 1.383 . S
C2970 C2969 1.379 . S
H2971 C2965 0.959 . S
H2972 C2965 0.961 . S
H2973 C2965 0.960 . S
H2974 C2966 0.930 . S
H2975 C2967 0.929 . S
H2976 C2984 0.929 . S
H2977 C2986 0.930 . S
H2978 C2988 0.930 . S
H2979 C2991 0.929 . S
H2980 C2994 0.930 . S
H2981 C2996 0.960 . S
H2982 C2996 0.960 . S
H2983 C2996 0.960 . S
C2984 H2976 0.929 . S
C2984 C2985 1.377 1_545 S
C2984 C2986 1.384 . S
C2985 C2984 1.377 1_565 S
C2985 C2991 1.390 . S
C2986 H2977 0.930 . S
C2986 C2984 1.384 . S
C2986 C2987 1.372 . S
C2987 C2986 1.372 . S
C2987 C2988 1.400 1_545 S
C2987 C2992 1.490 . S
C2988 H2978 0.930 . S
C2988 C2987 1.400 1_565 S
C2988 C2991 1.386 . S
H2989 C3005 0.930 . S
H2990 C3006 0.931 1_565 S
C2991 H2979 0.929 . S
C2991 C2985 1.390 . S
C2991 C2988 1.386 . S
C2992 C2987 1.490 . S
C2992 C2994 1.395 . S
C2992 C2995 1.403 . S
H2993 C2999 0.930 . S
C2994 H2980 0.930 . S
C2994 C2992 1.395 . S
C2994 C2997 1.403 . S
C2995 C2992 1.403 . S
C2995 C2996 1.524 . S
C2995 C2999 1.400 . S
C2996 H2981 0.960 . S
C2996 H2982 0.960 . S
C2996 H2983 0.960 . S
C2996 C2995 1.524 . S
C2997 C2994 1.403 . S
C2997 C2998 1.392 . S
C2997 C3001 1.495 . S
C2998 C2997 1.392 . S
C2998 C2999 1.385 . S
C2998 C3000 1.478 . S
C2999 H2993 0.930 . S
C2999 C2995 1.400 . S
C2999 C2998 1.385 . S
C3000 C2998 1.478 . S
C3000 C3002 1.381 . S
C3000 C3006 1.383 . S
C3001 C2997 1.495 . S
C3001 H3007 0.959 . S
C3001 H3008 0.961 . S
C3001 H3009 0.960 . S
C3002 C3000 1.381 . S
C3002 C3003 1.394 . S
C3002 H3010 0.930 . S
C3003 C3002 1.394 . S
C3003 C3004 1.383 . S
C3003 H3011 0.929 . S
C3004 C3003 1.383 . S
C3004 C3005 1.377 . S
C3005 H2989 0.930 . S
C3005 C3004 1.377 . S
C3005 C3006 1.379 . S
C3006 H2990 0.931 1_545 S
C3006 C3000 1.383 . S
C3006 C3005 1.379 . S
H3007 C3001 0.959 . S
H3008 C3001 0.961 . S
H3009 C3001 0.960 . S
H3010 C3002 0.930 . S
H3011 C3003 0.929 . S
H3012 C3020 0.929 . S
H3013 C3022 0.930 . S
H3014 C3024 0.930 . S
H3015 C3027 0.929 . S
H3016 C3030 0.930 . S
H3017 C3032 0.960 . S
H3018 C3032 0.960 . S
H3019 C3032 0.960 . S
C3020 H3012 0.929 . S
C3020 C3021 1.377 . S
C3020 C3022 1.384 . S
C3021 C3020 1.377 . S
C3021 C3027 1.390 . S
C3022 H3013 0.930 . S
C3022 C3020 1.384 . S
C3022 C3023 1.372 . S
C3023 C3022 1.372 . S
C3023 C3024 1.400 . S
C3023 C3028 1.490 . S
C3024 H3014 0.930 . S
C3024 C3023 1.400 . S
C3024 C3027 1.386 . S
H3025 C3041 0.930 . S
H3026 C3042 0.931 . S
C3027 H3015 0.929 . S
C3027 C3021 1.390 . S
C3027 C3024 1.386 . S
C3028 C3023 1.490 . S
C3028 C3030 1.395 . S
C3028 C3031 1.403 . S
H3029 C3035 0.930 . S
C3030 H3016 0.930 . S
C3030 C3028 1.395 . S
C3030 C3033 1.403 . S
C3031 C3028 1.403 . S
C3031 C3032 1.524 . S
C3031 C3035 1.400 . S
C3032 H3017 0.960 . S
C3032 H3018 0.960 . S
C3032 H3019 0.960 . S
C3032 C3031 1.524 . S
C3033 C3030 1.403 . S
C3033 C3034 1.392 . S
C3033 C3037 1.495 . S
C3034 C3033 1.392 . S
C3034 C3035 1.385 . S
C3034 C3036 1.478 . S
C3035 H3029 0.930 . S
C3035 C3031 1.400 . S
C3035 C3034 1.385 . S
C3036 C3034 1.478 . S
C3036 C3038 1.381 . S
C3036 C3042 1.383 . S
C3037 C3033 1.495 . S
C3037 H3043 0.959 . S
C3037 H3044 0.961 . S
C3037 H3045 0.960 . S
C3038 C3036 1.381 . S
C3038 C3039 1.394 . S
C3038 H3046 0.930 . S
C3039 C3038 1.394 . S
C3039 C3040 1.383 . S
C3039 H3047 0.929 . S
C3040 C3039 1.383 . S
C3040 C3041 1.377 . S
C3041 H3025 0.930 . S
C3041 C3040 1.377 . S
C3041 C3042 1.379 . S
C3042 H3026 0.931 . S
C3042 C3036 1.383 . S
C3042 C3041 1.379 . S
H3043 C3037 0.959 . S
H3044 C3037 0.961 . S
H3045 C3037 0.960 . S
H3046 C3038 0.930 . S
H3047 C3039 0.929 . S
H3048 C3056 0.929 . S
H3049 C3058 0.930 . S
H3050 C3060 0.971 . S
H3051 C3063 0.929 . S
H3052 C3066 0.930 . S
H3053 C3068 0.960 . S
H3054 C3068 0.960 . S
H3055 C3068 0.960 . S
C3056 H3048 0.929 . S
C3056 C3057 1.377 . S
C3056 C3058 1.384 . S
C3057 C3056 1.377 . S
C3057 C3063 1.390 . S
C3058 H3049 0.930 . S
C3058 C3056 1.384 . S
C3058 C3059 1.372 . S
C3059 C3058 1.372 . S
C3059 C3060 1.400 . S
C3059 C3064 1.490 . S
C3060 H3050 0.971 . S
C3060 C3059 1.400 . S
C3060 C3063 1.386 . S
H3061 C3077 0.930 1_565 S
H3062 C3078 0.931 1_565 S
C3063 H3051 0.929 . S
C3063 C3057 1.390 . S
C3063 C3060 1.386 . S
C3064 C3059 1.490 . S
C3064 C3066 1.395 . S
C3064 C3067 1.403 . S
H3065 C3071 0.930 . S
C3066 H3052 0.930 . S
C3066 C3064 1.395 . S
C3066 C3069 1.403 . S
C3067 C3064 1.403 . S
C3067 C3068 1.524 . S
C3067 C3071 1.400 . S
C3068 H3053 0.960 . S
C3068 H3054 0.960 . S
C3068 H3055 0.960 . S
C3068 C3067 1.524 . S
C3069 C3066 1.403 . S
C3069 C3070 1.392 . S
C3069 C3073 1.495 . S
C3070 C3069 1.392 . S
C3070 C3071 1.385 . S
C3070 C3072 1.478 . S
C3071 H3065 0.930 . S
C3071 C3067 1.400 . S
C3071 C3070 1.385 . S
C3072 C3070 1.478 . S
C3072 C3074 1.381 . S
C3072 C3078 1.383 . S
C3073 C3069 1.495 . S
C3073 H3079 0.959 . S
C3073 H3080 0.961 . S
C3073 H3081 0.960 . S
C3074 C3072 1.381 . S
C3074 C3075 1.394 . S
C3074 H3082 0.930 . S
C3075 C3074 1.394 . S
C3075 C3076 1.383 . S
C3075 H3083 0.929 . S
C3076 C3075 1.383 . S
C3076 C3077 1.377 . S
C3077 H3061 0.930 1_545 S
C3077 C3076 1.377 . S
C3077 C3078 1.379 . S
C3078 H3062 0.931 1_545 S
C3078 C3072 1.383 . S
C3078 C3077 1.379 . S
H3079 C3073 0.959 . S
H3080 C3073 0.961 . S
H3081 C3073 0.960 . S
H3082 C3074 0.930 . S
H3083 C3075 0.929 . S
H3084 C3092 0.929 . S
H3085 C3094 0.930 . S
H3086 C3096 0.930 . S
H3087 C3099 0.929 . S
H3088 C3102 0.930 . S
H3089 C3104 0.960 . S
H3090 C3104 0.960 . S
H3091 C3104 0.960 . S
C3092 H3084 0.929 . S
C3092 C3093 1.377 . S
C3092 C3094 1.384 . S
C3093 C3092 1.377 . S
C3093 C3099 1.390 . S
C3094 H3085 0.930 . S
C3094 C3092 1.384 . S
C3094 C3095 1.372 . S
C3095 C3094 1.372 . S
C3095 C3096 1.400 . S
C3095 C3100 1.490 . S
C3096 H3086 0.930 . S
C3096 C3095 1.400 . S
C3096 C3099 1.386 . S
H3097 C3113 0.930 . S
H3098 C3114 0.931 . S
C3099 H3087 0.929 . S
C3099 C3093 1.390 . S
C3099 C3096 1.386 . S
C3100 C3095 1.490 . S
C3100 C3102 1.395 . S
C3100 C3103 1.403 . S
H3101 C3107 0.930 . S
C3102 H3088 0.930 . S
C3102 C3100 1.395 . S
C3102 C3105 1.403 . S
C3103 C3100 1.403 . S
C3103 C3104 1.524 . S
C3103 C3107 1.400 . S
C3104 H3089 0.960 . S
C3104 H3090 0.960 . S
C3104 H3091 0.960 . S
C3104 C3103 1.524 . S
C3105 C3102 1.403 . S
C3105 C3106 1.392 . S
C3105 C3109 1.495 . S
C3106 C3105 1.392 . S
C3106 C3107 1.385 . S
C3106 C3108 1.478 . S
C3107 H3101 0.930 . S
C3107 C3103 1.400 . S
C3107 C3106 1.385 . S
C3108 C3106 1.478 . S
C3108 C3110 1.381 . S
C3108 C3114 1.383 . S
C3109 C3105 1.495 . S
C3109 H3115 0.959 . S
C3109 H3116 0.961 . S
C3109 H3117 0.960 . S
C3110 C3108 1.381 . S
C3110 C3111 1.394 . S
C3110 H3118 0.930 . S
C3111 C3110 1.394 . S
C3111 C3112 1.383 . S
C3111 H3119 0.929 . S
C3112 C3111 1.383 . S
C3112 C3113 1.377 . S
C3113 H3097 0.930 . S
C3113 C3112 1.377 . S
C3113 C3114 1.379 . S
C3114 H3098 0.931 . S
C3114 C3108 1.383 . S
C3114 C3113 1.379 . S
H3115 C3109 0.959 . S
H3116 C3109 0.961 . S
H3117 C3109 0.960 . S
H3118 C3110 0.930 . S
H3119 C3111 0.929 . S
H3120 C3128 0.929 . S
H3121 C3130 0.930 . S
H3122 C3132 0.930 1_556 S
H3123 C3135 0.929 1_556 S
H3124 C3138 0.930 . S
H3125 C3140 0.960 . S
H3126 C3140 0.960 . S
H3127 C3140 0.987 . S
C3128 H3120 0.929 . S
C3128 C3129 1.377 . S
C3128 C3130 1.384 . S
C3129 C3128 1.377 . S
C3129 C3135 1.390 . S
C3130 H3121 0.930 . S
C3130 C3128 1.384 . S
C3130 C3131 1.372 . S
C3131 C3130 1.372 . S
C3131 C3132 1.400 . S
C3131 C3136 1.490 . S
C3132 H3122 0.930 1_554 S
C3132 C3131 1.400 . S
C3132 C3135 1.386 . S
H3133 C3149 0.930 . S
H3134 C3150 0.931 . S
C3135 H3123 0.929 1_554 S
C3135 C3129 1.390 . S
C3135 C3132 1.386 . S
C3136 C3131 1.490 . S
C3136 C3138 1.395 . S
C3136 C3139 1.403 . S
H3137 C3143 0.930 . S
C3138 H3124 0.930 . S
C3138 C3136 1.395 . S
C3138 C3141 1.403 . S
C3139 C3136 1.403 . S
C3139 C3140 1.524 . S
C3139 C3143 1.400 . S
C3140 H3125 0.960 . S
C3140 H3126 0.960 . S
C3140 H3127 0.987 . S
C3140 C3139 1.524 . S
C3141 C3138 1.403 . S
C3141 C3142 1.392 . S
C3141 C3145 1.495 . S
C3142 C3141 1.392 . S
C3142 C3143 1.385 . S
C3142 C3144 1.478 . S
C3143 H3137 0.930 . S
C3143 C3139 1.400 . S
C3143 C3142 1.385 . S
C3144 C3142 1.478 . S
C3144 C3146 1.381 . S
C3144 C3150 1.383 1_554 S
C3145 C3141 1.495 . S
C3145 H3151 0.959 . S
C3145 H3152 0.961 . S
C3145 H3153 0.960 . S
C3146 C3144 1.381 . S
C3146 C3147 1.394 . S
C3146 H3154 0.930 . S
C3147 C3146 1.394 . S
C3147 C3148 1.383 . S
C3147 H3155 0.929 . S
C3148 C3147 1.383 . S
C3148 C3149 1.377 1_554 S
C3149 H3133 0.930 . S
C3149 C3148 1.377 1_556 S
C3149 C3150 1.379 . S
C3150 H3134 0.931 . S
C3150 C3144 1.383 1_556 S
C3150 C3149 1.379 . S
H3151 C3145 0.959 . S
H3152 C3145 0.961 . S
H3153 C3145 0.960 . S
H3154 C3146 0.930 . S
H3155 C3147 0.929 . S
H3156 C3164 0.929 . S
H3157 C3166 0.930 . S
H3158 C3168 0.930 . S
H3159 C3171 0.929 . S
H3160 C3174 0.930 . S
H3161 C3176 0.960 1_556 S
H3162 C3176 0.960 . S
H3163 C3176 0.960 1_556 S
C3164 H3156 0.929 . S
C3164 C3165 1.377 . S
C3164 C3166 1.384 . S
C3165 C3164 1.377 . S
C3165 C3171 1.390 . S
C3166 H3157 0.930 . S
C3166 C3164 1.384 . S
C3166 C3167 1.372 . S
C3167 C3166 1.372 . S
C3167 C3168 1.400 . S
C3167 C3172 1.490 . S
C3168 H3158 0.930 . S
C3168 C3167 1.400 . S
C3168 C3171 1.386 . S
H3169 C3185 0.930 . S
H3170 C3186 0.931 . S
C3171 H3159 0.929 . S
C3171 C3165 1.390 . S
C3171 C3168 1.386 . S
C3172 C3167 1.490 . S
C3172 C3174 1.395 . S
C3172 C3175 1.403 . S
H3173 C3179 0.930 . S
C3174 H3160 0.930 . S
C3174 C3172 1.395 . S
C3174 C3177 1.403 . S
C3175 C3172 1.403 . S
C3175 C3176 1.524 . S
C3175 C3179 1.400 . S
C3176 H3161 0.960 1_554 S
C3176 H3162 0.960 . S
C3176 H3163 0.960 1_554 S
C3176 C3175 1.524 . S
C3177 C3174 1.403 . S
C3177 C3178 1.392 . S
C3177 C3181 1.495 . S
C3178 C3177 1.392 . S
C3178 C3179 1.385 . S
C3178 C3180 1.478 . S
C3179 H3173 0.930 . S
C3179 C3175 1.400 . S
C3179 C3178 1.385 . S
C3180 C3178 1.478 . S
C3180 C3182 1.381 . S
C3180 C3186 1.383 . S
C3181 C3177 1.495 . S
C3181 H3187 0.959 . S
C3181 H3188 0.961 . S
C3181 H3189 0.960 . S
C3182 C3180 1.381 . S
C3182 C3183 1.394 . S
C3182 H3190 0.930 . S
C3183 C3182 1.394 . S
C3183 C3184 1.383 . S
C3183 H3191 0.929 . S
C3184 C3183 1.383 . S
C3184 C3185 1.377 . S
C3185 H3169 0.930 . S
C3185 C3184 1.377 . S
C3185 C3186 1.379 . S
C3186 H3170 0.931 . S
C3186 C3180 1.383 . S
C3186 C3185 1.379 . S
H3187 C3181 0.959 . S
H3188 C3181 0.961 . S
H3189 C3181 0.960 . S
H3190 C3182 0.930 . S
H3191 C3183 0.929 . S
H3192 C3200 0.929 . S
H3193 C3202 0.930 . S
H3194 C3204 0.930 . S
H3195 C3207 0.929 . S
H3196 C3210 0.930 . S
H3197 C3212 0.960 . S
H3198 C3212 0.960 . S
H3199 C3212 0.960 . S
C3200 H3192 0.929 . S
C3200 C3201 1.377 . S
C3200 C3202 1.384 . S
C3201 C3200 1.377 . S
C3201 C3207 1.390 . S
C3202 H3193 0.930 . S
C3202 C3200 1.384 . S
C3202 C3203 1.372 . S
C3203 C3202 1.372 . S
C3203 C3204 1.400 . S
C3203 C3208 1.490 . S
C3204 H3194 0.930 . S
C3204 C3203 1.400 . S
C3204 C3207 1.386 . S
H3205 C3221 0.930 . S
H3206 C3222 0.931 . S
C3207 H3195 0.929 . S
C3207 C3201 1.390 . S
C3207 C3204 1.386 . S
C3208 C3203 1.490 . S
C3208 C3210 1.395 . S
C3208 C3211 1.403 . S
H3209 C3215 0.930 . S
C3210 H3196 0.930 . S
C3210 C3208 1.395 . S
C3210 C3213 1.403 . S
C3211 C3208 1.403 . S
C3211 C3212 1.524 . S
C3211 C3215 1.400 . S
C3212 H3197 0.960 . S
C3212 H3198 0.960 . S
C3212 H3199 0.960 . S
C3212 C3211 1.524 . S
C3213 C3210 1.403 . S
C3213 C3214 1.392 . S
C3213 C3217 1.495 . S
C3214 C3213 1.392 . S
C3214 C3215 1.385 . S
C3214 C3216 1.478 . S
C3215 H3209 0.930 . S
C3215 C3211 1.400 . S
C3215 C3214 1.385 . S
C3216 C3214 1.478 . S
C3216 C3218 1.381 . S
C3216 C3222 1.383 . S
C3217 C3213 1.495 . S
C3217 H3223 0.959 . S
C3217 H3224 0.961 . S
C3217 H3225 0.960 . S
C3218 C3216 1.381 . S
C3218 C3219 1.394 . S
C3218 H3226 0.930 . S
C3219 C3218 1.394 . S
C3219 C3220 1.383 . S
C3219 H3227 0.929 . S
C3220 C3219 1.383 . S
C3220 C3221 1.377 . S
C3221 H3205 0.930 . S
C3221 C3220 1.377 . S
C3221 C3222 1.379 . S
C3222 H3206 0.931 . S
C3222 C3216 1.383 . S
C3222 C3221 1.379 . S
H3223 C3217 0.959 . S
H3224 C3217 0.961 . S
H3225 C3217 0.960 . S
H3226 C3218 0.930 . S
H3227 C3219 0.929 . S
H3228 C3236 0.929 . S
H3229 C3238 0.930 . S
H3230 C3240 0.930 . S
H3231 C3243 0.929 . S
H3232 C3246 0.930 . S
H3233 C3248 0.960 . S
H3234 C3248 0.960 . S
H3235 C3248 0.960 . S
C3236 H3228 0.929 . S
C3236 C3237 1.377 . S
C3236 C3238 1.384 . S
C3237 C3236 1.377 . S
C3237 C3243 1.390 . S
C3238 H3229 0.930 . S
C3238 C3236 1.384 . S
C3238 C3239 1.372 . S
C3239 C3238 1.372 . S
C3239 C3240 1.400 . S
C3239 C3244 1.490 . S
C3240 H3230 0.930 . S
C3240 C3239 1.400 . S
C3240 C3243 1.386 . S
H3241 C3257 0.930 . S
H3242 C3258 0.931 . S
C3243 H3231 0.929 . S
C3243 C3237 1.390 . S
C3243 C3240 1.386 . S
C3244 C3239 1.490 . S
C3244 C3246 1.395 . S
C3244 C3247 1.403 . S
H3245 C3251 0.930 . S
C3246 H3232 0.930 . S
C3246 C3244 1.395 . S
C3246 C3249 1.403 . S
C3247 C3244 1.403 . S
C3247 C3248 1.524 . S
C3247 C3251 1.400 . S
C3248 H3233 0.960 . S
C3248 H3234 0.960 . S
C3248 H3235 0.960 . S
C3248 C3247 1.524 . S
C3249 C3246 1.403 . S
C3249 C3250 1.392 . S
C3249 C3253 1.495 . S
C3250 C3249 1.392 . S
C3250 C3251 1.385 . S
C3250 C3252 1.478 . S
C3251 H3245 0.930 . S
C3251 C3247 1.400 . S
C3251 C3250 1.385 . S
C3252 C3250 1.478 . S
C3252 C3254 1.381 . S
C3252 C3258 1.383 . S
C3253 C3249 1.495 . S
C3253 H3259 0.959 . S
C3253 H3260 0.961 . S
C3253 H3261 0.960 . S
C3254 C3252 1.381 . S
C3254 C3255 1.394 . S
C3254 H3262 0.930 . S
C3255 C3254 1.394 . S
C3255 C3256 1.383 . S
C3255 H3263 0.929 . S
C3256 C3255 1.383 . S
C3256 C3257 1.377 . S
C3257 H3241 0.930 . S
C3257 C3256 1.377 . S
C3257 C3258 1.379 . S
C3258 H3242 0.931 . S
C3258 C3252 1.383 . S
C3258 C3257 1.379 . S
H3259 C3253 0.959 . S
H3260 C3253 0.961 . S
H3261 C3253 0.960 . S
H3262 C3254 0.930 . S
H3263 C3255 0.929 . S
H3264 C3272 0.929 . S
H3265 C3274 0.930 . S
H3266 C3276 0.930 . S
H3267 C3279 0.930 . S
H3268 C3282 0.930 . S
H3269 C3284 0.960 . S
H3270 C3284 0.960 . S
H3271 C3284 0.960 . S
C3272 H3264 0.929 . S
C3272 C3273 1.377 . S
C3272 C3274 1.384 1_545 S
C3273 C3272 1.377 . S
C3273 C3279 1.390 1_545 S
C3274 H3265 0.930 . S
C3274 C3272 1.384 1_565 S
C3274 C3275 1.372 . S
C3275 C3274 1.372 . S
C3275 C3276 1.400 . S
C3275 C3280 1.490 . S
C3276 H3266 0.930 . S
C3276 C3275 1.400 . S
C3276 C3279 1.386 . S
H3277 C3293 0.930 . S
H3278 C3294 0.931 . S
C3279 H3267 0.930 . S
C3279 C3273 1.390 1_565 S
C3279 C3276 1.386 . S
C3280 C3275 1.490 . S
C3280 C3282 1.395 . S
C3280 C3283 1.403 . S
H3281 C3287 0.930 . S
C3282 H3268 0.930 . S
C3282 C3280 1.395 . S
C3282 C3285 1.403 . S
C3283 C3280 1.403 . S
C3283 C3284 1.524 . S
C3283 C3287 1.400 . S
C3284 H3269 0.960 . S
C3284 H3270 0.960 . S
C3284 H3271 0.960 . S
C3284 C3283 1.524 . S
C3285 C3282 1.403 . S
C3285 C3286 1.392 . S
C3285 C3289 1.495 . S
C3286 C3285 1.392 . S
C3286 C3287 1.385 . S
C3286 C3288 1.478 . S
C3287 H3281 0.930 . S
C3287 C3283 1.400 . S
C3287 C3286 1.385 . S
C3288 C3286 1.478 . S
C3288 C3290 1.381 . S
C3288 C3294 1.383 . S
C3289 C3285 1.495 . S
C3289 H3295 0.959 . S
C3289 H3296 0.961 . S
C3289 H3297 0.960 . S
C3290 C3288 1.381 . S
C3290 C3291 1.394 . S
C3290 H3298 0.930 . S
C3291 C3290 1.394 . S
C3291 C3292 1.383 . S
C3291 H3299 0.929 . S
C3292 C3291 1.383 . S
C3292 C3293 1.377 . S
C3293 H3277 0.930 . S
C3293 C3292 1.377 . S
C3293 C3294 1.379 . S
C3294 H3278 0.931 . S
C3294 C3288 1.383 . S
C3294 C3293 1.379 . S
H3295 C3289 0.959 . S
H3296 C3289 0.961 . S
H3297 C3289 0.960 . S
H3298 C3290 0.930 . S
H3299 C3291 0.929 . S
H3300 C3308 0.929 . S
H3301 C3310 0.930 . S
H3302 C3312 0.930 . S
H3303 C3315 0.929 . S
H3304 C3318 0.930 . S
H3305 C3320 0.960 . S
H3306 C3320 0.960 . S
H3307 C3320 0.960 . S
C3308 H3300 0.929 . S
C3308 C3309 1.377 . S
C3308 C3310 1.384 . S
C3309 C3308 1.377 . S
C3309 C3315 1.390 . S
C3310 H3301 0.930 . S
C3310 C3308 1.384 . S
C3310 C3311 1.372 . S
C3311 C3310 1.372 . S
C3311 C3312 1.400 . S
C3311 C3316 1.490 . S
C3312 H3302 0.930 . S
C3312 C3311 1.400 . S
C3312 C3315 1.386 . S
H3313 C3329 0.930 1_545 S
H3314 C3330 0.931 . S
C3315 H3303 0.929 . S
C3315 C3309 1.390 . S
C3315 C3312 1.386 . S
C3316 C3311 1.490 . S
C3316 C3318 1.395 . S
C3316 C3319 1.403 . S
H3317 C3323 0.930 . S
C3318 H3304 0.930 . S
C3318 C3316 1.395 . S
C3318 C3321 1.403 . S
C3319 C3316 1.403 . S
C3319 C3320 1.524 . S
C3319 C3323 1.400 . S
C3320 H3305 0.960 . S
C3320 H3306 0.960 . S
C3320 H3307 0.960 . S
C3320 C3319 1.524 . S
C3321 C3318 1.403 . S
C3321 C3322 1.392 . S
C3321 C3325 1.495 . S
C3322 C3321 1.392 . S
C3322 C3323 1.385 . S
C3322 C3324 1.478 . S
C3323 H3317 0.930 . S
C3323 C3319 1.400 . S
C3323 C3322 1.385 . S
C3324 C3322 1.478 . S
C3324 C3326 1.381 . S
C3324 C3330 1.383 . S
C3325 C3321 1.495 . S
C3325 H3331 0.959 . S
C3325 H3332 0.961 . S
C3325 H3333 0.960 . S
C3326 C3324 1.381 . S
C3326 C3327 1.394 . S
C3326 H3334 0.930 . S
C3327 C3326 1.394 . S
C3327 C3328 1.383 . S
C3327 H3335 0.929 . S
C3328 C3327 1.383 . S
C3328 C3329 1.377 . S
C3329 H3313 0.930 1_565 S
C3329 C3328 1.377 . S
C3329 C3330 1.379 . S
C3330 H3314 0.931 . S
C3330 C3324 1.383 . S
C3330 C3329 1.379 . S
H3331 C3325 0.959 . S
H3332 C3325 0.961 . S
H3333 C3325 0.960 . S
H3334 C3326 0.930 . S
H3335 C3327 0.929 . S
H3336 C3344 0.929 . S
H3337 C3346 0.930 . S
H3338 C3348 0.930 . S
H3339 C3351 0.929 . S
H3340 C3354 0.930 . S
H3341 C3356 0.960 . S
H3342 C3356 0.960 . S
H3343 C3356 0.960 . S
C3344 H3336 0.929 . S
C3344 C3345 1.377 . S
C3344 C3346 1.384 . S
C3345 C3344 1.377 . S
C3345 C3351 1.390 . S
C3346 H3337 0.930 . S
C3346 C3344 1.384 . S
C3346 C3347 1.372 . S
C3347 C3346 1.372 . S
C3347 C3348 1.400 . S
C3347 C3352 1.490 . S
C3348 H3338 0.930 . S
C3348 C3347 1.400 . S
C3348 C3351 1.386 . S
H3349 C3365 0.930 . S
H3350 C3366 0.931 . S
C3351 H3339 0.929 . S
C3351 C3345 1.390 . S
C3351 C3348 1.386 . S
C3352 C3347 1.490 . S
C3352 C3354 1.395 . S
C3352 C3355 1.403 . S
H3353 C3359 0.930 . S
C3354 H3340 0.930 . S
C3354 C3352 1.395 . S
C3354 C3357 1.403 . S
C3355 C3352 1.403 . S
C3355 C3356 1.524 . S
C3355 C3359 1.400 . S
C3356 H3341 0.960 . S
C3356 H3342 0.960 . S
C3356 H3343 0.960 . S
C3356 C3355 1.524 . S
C3357 C3354 1.403 . S
C3357 C3358 1.392 . S
C3357 C3361 1.495 . S
C3358 C3357 1.392 . S
C3358 C3359 1.385 . S
C3358 C3360 1.478 . S
C3359 H3353 0.930 . S
C3359 C3355 1.400 . S
C3359 C3358 1.385 . S
C3360 C3358 1.478 . S
C3360 C3362 1.381 . S
C3360 C3366 1.383 . S
C3361 C3357 1.495 . S
C3361 H3367 0.959 . S
C3361 H3368 0.961 . S
C3361 H3369 0.960 . S
C3362 C3360 1.381 . S
C3362 C3363 1.394 . S
C3362 H3370 0.930 . S
C3363 C3362 1.394 . S
C3363 C3364 1.383 . S
C3363 H3371 0.929 . S
C3364 C3363 1.383 . S
C3364 C3365 1.377 . S
C3365 H3349 0.930 . S
C3365 C3364 1.377 . S
C3365 C3366 1.379 . S
C3366 H3350 0.931 . S
C3366 C3360 1.383 . S
C3366 C3365 1.379 . S
H3367 C3361 0.959 . S
H3368 C3361 0.961 . S
H3369 C3361 0.960 . S
H3370 C3362 0.930 . S
H3371 C3363 0.929 . S
H3372 C3380 0.929 . S
H3373 C3382 0.930 . S
H3374 C3384 0.930 . S
H3375 C3387 0.929 . S
H3376 C3390 0.930 . S
H3377 C3392 0.960 . S
H3378 C3392 0.960 . S
H3379 C3392 0.960 . S
C3380 H3372 0.929 . S
C3380 C3381 1.377 . S
C3380 C3382 1.384 . S
C3381 C3380 1.377 . S
C3381 C3387 1.390 . S
C3382 H3373 0.930 . S
C3382 C3380 1.384 . S
C3382 C3383 1.372 . S
C3383 C3382 1.372 . S
C3383 C3384 1.400 . S
C3383 C3388 1.490 . S
C3384 H3374 0.930 . S
C3384 C3383 1.400 . S
C3384 C3387 1.386 . S
H3385 C3401 0.930 . S
H3386 C3402 0.931 . S
C3387 H3375 0.929 . S
C3387 C3381 1.390 . S
C3387 C3384 1.386 . S
C3388 C3383 1.490 . S
C3388 C3390 1.395 . S
C3388 C3391 1.403 . S
H3389 C3395 0.930 . S
C3390 H3376 0.930 . S
C3390 C3388 1.395 . S
C3390 C3393 1.403 . S
C3391 C3388 1.403 . S
C3391 C3392 1.524 . S
C3391 C3395 1.400 . S
C3392 H3377 0.960 . S
C3392 H3378 0.960 . S
C3392 H3379 0.960 . S
C3392 C3391 1.524 . S
C3393 C3390 1.403 . S
C3393 C3394 1.392 . S
C3393 C3397 1.495 . S
C3394 C3393 1.392 . S
C3394 C3395 1.385 . S
C3394 C3396 1.478 . S
C3395 H3389 0.930 . S
C3395 C3391 1.400 . S
C3395 C3394 1.385 . S
C3396 C3394 1.478 . S
C3396 C3398 1.381 . S
C3396 C3402 1.383 . S
C3397 C3393 1.495 . S
C3397 H3403 0.959 . S
C3397 H3404 0.961 . S
C3397 H3405 0.960 . S
C3398 C3396 1.381 . S
C3398 C3399 1.394 . S
C3398 H3406 0.930 . S
C3399 C3398 1.394 . S
C3399 C3400 1.383 . S
C3399 H3407 0.929 . S
C3400 C3399 1.383 . S
C3400 C3401 1.377 . S
C3401 H3385 0.930 . S
C3401 C3400 1.377 . S
C3401 C3402 1.379 . S
C3402 H3386 0.931 . S
C3402 C3396 1.383 . S
C3402 C3401 1.379 . S
H3403 C3397 0.959 . S
H3404 C3397 0.961 . S
H3405 C3397 0.960 . S
H3406 C3398 0.930 . S
H3407 C3399 0.929 . S
H3408 C3416 0.929 . S
H3409 C3418 0.930 . S
H3410 C3420 0.930 . S
H3411 C3423 0.929 . S
H3412 C3426 0.930 . S
H3413 C3428 0.960 . S
H3414 C3428 0.960 . S
H3415 C3428 0.960 . S
C3416 H3408 0.929 . S
C3416 C3417 1.377 . S
C3416 C3418 1.384 . S
C3417 C3416 1.377 . S
C3417 C3423 1.390 . S
C3418 H3409 0.930 . S
C3418 C3416 1.384 . S
C3418 C3419 1.372 . S
C3419 C3418 1.372 . S
C3419 C3420 1.400 . S
C3419 C3424 1.490 . S
C3420 H3410 0.930 . S
C3420 C3419 1.400 . S
C3420 C3423 1.386 . S
H3421 C3437 0.930 . S
H3422 C3438 0.931 . S
C3423 H3411 0.929 . S
C3423 C3417 1.390 . S
C3423 C3420 1.386 . S
C3424 C3419 1.490 . S
C3424 C3426 1.395 . S
C3424 C3427 1.403 . S
H3425 C3431 0.930 . S
C3426 H3412 0.930 . S
C3426 C3424 1.395 . S
C3426 C3429 1.403 . S
C3427 C3424 1.403 . S
C3427 C3428 1.524 . S
C3427 C3431 1.400 . S
C3428 H3413 0.960 . S
C3428 H3414 0.960 . S
C3428 H3415 0.960 . S
C3428 C3427 1.524 . S
C3429 C3426 1.403 . S
C3429 C3430 1.392 . S
C3429 C3433 1.495 . S
C3430 C3429 1.392 . S
C3430 C3431 1.385 . S
C3430 C3432 1.478 . S
C3431 H3425 0.930 . S
C3431 C3427 1.400 . S
C3431 C3430 1.385 . S
C3432 C3430 1.478 . S
C3432 C3434 1.381 . S
C3432 C3438 1.383 . S
C3433 C3429 1.495 . S
C3433 H3439 0.959 . S
C3433 H3440 0.961 . S
C3433 H3441 0.960 . S
C3434 C3432 1.381 . S
C3434 C3435 1.394 . S
C3434 H3442 0.930 . S
C3435 C3434 1.394 . S
C3435 C3436 1.383 . S
C3435 H3443 0.929 . S
C3436 C3435 1.383 . S
C3436 C3437 1.377 . S
C3437 H3421 0.930 . S
C3437 C3436 1.377 . S
C3437 C3438 1.379 . S
C3438 H3422 0.931 . S
C3438 C3432 1.383 . S
C3438 C3437 1.379 . S
H3439 C3433 0.959 . S
H3440 C3433 0.961 . S
H3441 C3433 0.960 . S
H3442 C3434 0.930 . S
H3443 C3435 0.929 . S
H3444 C3452 0.929 . S
H3445 C3454 0.930 . S
H3446 C3456 0.930 . S
H3447 C3459 0.929 . S
H3448 C3462 0.930 . S
H3449 C3464 0.960 . S
H3450 C3464 0.960 . S
H3451 C3464 0.960 . S
C3452 H3444 0.929 . S
C3452 C3453 1.377 . S
C3452 C3454 1.384 . S
C3453 C3452 1.377 . S
C3453 C3459 1.390 . S
C3454 H3445 0.930 . S
C3454 C3452 1.384 . S
C3454 C3455 1.372 . S
C3455 C3454 1.372 . S
C3455 C3456 1.400 . S
C3455 C3460 1.490 . S
C3456 H3446 0.930 . S
C3456 C3455 1.400 . S
C3456 C3459 1.386 . S
H3457 C3473 0.930 . S
H3458 C3474 0.931 . S
C3459 H3447 0.929 . S
C3459 C3453 1.390 . S
C3459 C3456 1.386 . S
C3460 C3455 1.490 . S
C3460 C3462 1.395 . S
C3460 C3463 1.403 . S
H3461 C3467 0.930 . S
C3462 H3448 0.930 . S
C3462 C3460 1.395 . S
C3462 C3465 1.403 . S
C3463 C3460 1.403 . S
C3463 C3464 1.524 . S
C3463 C3467 1.400 . S
C3464 H3449 0.960 . S
C3464 H3450 0.960 . S
C3464 H3451 0.960 . S
C3464 C3463 1.524 . S
C3465 C3462 1.403 . S
C3465 C3466 1.392 . S
C3465 C3469 1.495 . S
C3466 C3465 1.392 . S
C3466 C3467 1.385 . S
C3466 C3468 1.478 . S
C3467 H3461 0.930 . S
C3467 C3463 1.400 . S
C3467 C3466 1.385 . S
C3468 C3466 1.478 . S
C3468 C3470 1.381 . S
C3468 C3474 1.383 . S
C3469 C3465 1.495 . S
C3469 H3475 0.959 . S
C3469 H3476 0.961 . S
C3469 H3477 0.960 . S
C3470 C3468 1.381 . S
C3470 C3471 1.394 . S
C3470 H3478 0.930 . S
C3471 C3470 1.394 . S
C3471 C3472 1.383 . S
C3471 H3479 0.929 . S
C3472 C3471 1.383 . S
C3472 C3473 1.377 . S
C3473 H3457 0.930 . S
C3473 C3472 1.377 . S
C3473 C3474 1.379 . S
C3474 H3458 0.931 . S
C3474 C3468 1.383 . S
C3474 C3473 1.379 . S
H3475 C3469 0.959 . S
H3476 C3469 0.961 . S
H3477 C3469 0.960 . S
H3478 C3470 0.930 . S
H3479 C3471 0.929 . S
H3480 C3488 0.929 . S
H3481 C3490 0.930 . S
H3482 C3492 0.930 . S
H3483 C3495 0.929 1_655 S
H3484 C3498 0.930 . S
H3485 C3500 0.960 . S
H3486 C3500 0.960 . S
H3487 C3500 0.960 . S
C3488 H3480 0.929 . S
C3488 C3489 1.377 . S
C3488 C3490 1.384 . S
C3489 C3488 1.377 . S
C3489 C3495 1.390 . S
C3490 H3481 0.930 . S
C3490 C3488 1.384 . S
C3490 C3491 1.372 . S
C3491 C3490 1.372 . S
C3491 C3492 1.400 . S
C3491 C3496 1.490 . S
C3492 H3482 0.930 . S
C3492 C3491 1.400 . S
C3492 C3495 1.386 . S
H3493 C3509 0.930 . S
H3494 C3510 0.931 . S
C3495 H3483 0.929 1_455 S
C3495 C3489 1.390 . S
C3495 C3492 1.386 . S
C3496 C3491 1.490 . S
C3496 C3498 1.395 . S
C3496 C3499 1.403 . S
H3497 C3503 0.930 . S
C3498 H3484 0.930 . S
C3498 C3496 1.395 . S
C3498 C3501 1.403 . S
C3499 C3496 1.403 . S
C3499 C3500 1.524 1_556 S
C3499 C3503 1.400 1_556 S
C3500 H3485 0.960 . S
C3500 H3486 0.960 . S
C3500 H3487 0.960 . S
C3500 C3499 1.524 1_554 S
C3501 C3498 1.403 . S
C3501 C3502 1.392 . S
C3501 C3505 1.495 . S
C3502 C3501 1.392 . S
C3502 C3503 1.385 1_556 S
C3502 C3504 1.478 . S
C3503 H3497 0.930 . S
C3503 C3499 1.400 1_554 S
C3503 C3502 1.385 1_554 S
C3504 C3502 1.478 . S
C3504 C3506 1.381 . S
C3504 C3510 1.383 . S
C3505 C3501 1.495 . S
C3505 H3511 0.959 . S
C3505 H3512 0.961 . S
C3505 H3513 0.960 . S
C3506 C3504 1.381 . S
C3506 C3507 1.394 1_556 S
C3506 H3514 0.930 . S
C3507 C3506 1.394 1_554 S
C3507 C3508 1.383 . S
C3507 H3515 0.929 . S
C3508 C3507 1.383 . S
C3508 C3509 1.377 . S
C3509 H3493 0.930 . S
C3509 C3508 1.377 . S
C3509 C3510 1.379 1_554 S
C3510 H3494 0.931 . S
C3510 C3504 1.383 . S
C3510 C3509 1.379 1_556 S
H3511 C3505 0.959 . S
H3512 C3505 0.961 . S
H3513 C3505 0.960 . S
H3514 C3506 0.930 . S
H3515 C3507 0.929 . S
H3516 C3524 0.929 . S
H3517 C3526 0.930 . S
H3518 C3528 0.930 . S
H3519 C3531 0.929 . S
H3520 C3534 0.930 . S
H3521 C3536 0.960 . S
H3522 C3536 0.960 . S
H3523 C3536 0.960 . S
C3524 H3516 0.929 . S
C3524 C3525 1.377 . S
C3524 C3526 1.384 . S
C3525 C3524 1.377 . S
C3525 C3531 1.390 . S
C3526 H3517 0.930 . S
C3526 C3524 1.384 . S
C3526 C3527 1.372 . S
C3527 C3526 1.372 . S
C3527 C3528 1.400 . S
C3527 C3532 1.490 1_455 S
C3528 H3518 0.930 . S
C3528 C3527 1.400 . S
C3528 C3531 1.386 . S
H3529 C3545 0.930 . S
H3530 C3546 0.931 . S
C3531 H3519 0.929 . S
C3531 C3525 1.390 . S
C3531 C3528 1.386 . S
C3532 C3527 1.490 1_655 S
C3532 C3534 1.395 . S
C3532 C3535 1.403 . S
H3533 C3539 0.930 . S
C3534 H3520 0.930 . S
C3534 C3532 1.395 . S
C3534 C3537 1.403 . S
C3535 C3532 1.403 . S
C3535 C3536 1.524 . S
C3535 C3539 1.400 . S
C3536 H3521 0.960 . S
C3536 H3522 0.960 . S
C3536 H3523 0.960 . S
C3536 C3535 1.524 . S
C3537 C3534 1.403 . S
C3537 C3538 1.392 . S
C3537 C3541 1.495 . S
C3538 C3537 1.392 . S
C3538 C3539 1.385 . S
C3538 C3540 1.478 . S
C3539 H3533 0.930 . S
C3539 C3535 1.400 . S
C3539 C3538 1.385 . S
C3540 C3538 1.478 . S
C3540 C3542 1.381 . S
C3540 C3546 1.383 . S
C3541 C3537 1.495 . S
C3541 H3547 0.959 . S
C3541 H3548 0.961 . S
C3541 H3549 0.960 . S
C3542 C3540 1.381 . S
C3542 C3543 1.394 . S
C3542 H3550 0.930 . S
C3543 C3542 1.394 . S
C3543 C3544 1.383 . S
C3543 H3551 0.929 . S
C3544 C3543 1.383 . S
C3544 C3545 1.377 . S
C3545 H3529 0.930 . S
C3545 C3544 1.377 . S
C3545 C3546 1.379 . S
C3546 H3530 0.931 . S
C3546 C3540 1.383 . S
C3546 C3545 1.379 . S
H3547 C3541 0.959 . S
H3548 C3541 0.961 . S
H3549 C3541 0.960 . S
H3550 C3542 0.930 . S
H3551 C3543 0.929 . S
H3552 C3560 0.929 . S
H3553 C3562 0.930 . S
H3554 C3564 0.930 . S
H3555 C3567 0.929 . S
H3556 C3570 0.930 . S
H3557 C3572 0.960 . S
H3558 C3572 0.960 . S
H3559 C3572 0.960 . S
C3560 H3552 0.929 . S
C3560 C3561 1.377 . S
C3560 C3562 1.384 . S
C3561 C3560 1.377 . S
C3561 C3567 1.390 . S
C3562 H3553 0.930 . S
C3562 C3560 1.384 . S
C3562 C3563 1.372 . S
C3563 C3562 1.372 . S
C3563 C3564 1.400 . S
C3563 C3568 1.490 . S
C3564 H3554 0.930 . S
C3564 C3563 1.400 . S
C3564 C3567 1.386 . S
H3565 C3581 0.930 . S
H3566 C3582 0.931 . S
C3567 H3555 0.929 . S
C3567 C3561 1.390 . S
C3567 C3564 1.386 . S
C3568 C3563 1.490 . S
C3568 C3570 1.395 . S
C3568 C3571 1.403 . S
H3569 C3575 0.930 . S
C3570 H3556 0.930 . S
C3570 C3568 1.395 . S
C3570 C3573 1.403 . S
C3571 C3568 1.403 . S
C3571 C3572 1.524 . S
C3571 C3575 1.400 . S
C3572 H3557 0.960 . S
C3572 H3558 0.960 . S
C3572 H3559 0.960 . S
C3572 C3571 1.524 . S
C3573 C3570 1.403 . S
C3573 C3574 1.392 . S
C3573 C3577 1.495 . S
C3574 C3573 1.392 . S
C3574 C3575 1.385 . S
C3574 C3576 1.478 . S
C3575 H3569 0.930 . S
C3575 C3571 1.400 . S
C3575 C3574 1.385 . S
C3576 C3574 1.478 . S
C3576 C3578 1.381 . S
C3576 C3582 1.383 . S
C3577 C3573 1.495 . S
C3577 H3583 0.959 . S
C3577 H3584 0.961 . S
C3577 H3585 0.960 . S
C3578 C3576 1.381 . S
C3578 C3579 1.394 . S
C3578 H3586 0.930 . S
C3579 C3578 1.394 . S
C3579 C3580 1.383 . S
C3579 H3587 0.929 . S
C3580 C3579 1.383 . S
C3580 C3581 1.377 . S
C3581 H3565 0.930 . S
C3581 C3580 1.377 . S
C3581 C3582 1.379 . S
C3582 H3566 0.931 . S
C3582 C3576 1.383 . S
C3582 C3581 1.379 . S
H3583 C3577 0.959 . S
H3584 C3577 0.961 . S
H3585 C3577 0.960 . S
H3586 C3578 0.930 . S
H3587 C3579 0.929 . S
H3588 C3596 0.929 . S
H3589 C3598 0.930 . S
H3590 C3600 0.930 . S
H3591 C3603 0.929 . S
H3592 C3606 0.930 1_455 S
H3593 C3608 0.960 . S
H3594 C3608 0.960 . S
H3595 C3608 0.960 . S
C3596 H3588 0.929 . S
C3596 C3597 1.377 . S
C3596 C3598 1.384 . S
C3597 C3596 1.377 . S
C3597 C3603 1.390 . S
C3598 H3589 0.930 . S
C3598 C3596 1.384 . S
C3598 C3599 1.372 . S
C3599 C3598 1.372 . S
C3599 C3600 1.400 . S
C3599 C3604 1.437 1_455 S
C3600 H3590 0.930 . S
C3600 C3599 1.400 . S
C3600 C3603 1.386 . S
H3601 C3617 0.930 . S
H3602 C3618 0.931 . S
C3603 H3591 0.929 . S
C3603 C3597 1.390 . S
C3603 C3600 1.386 . S
C3604 C3599 1.437 1_655 S
C3604 C3606 1.409 . S
C3604 C3607 1.442 . S
H3605 C3611 0.930 . S
C3606 H3592 0.930 1_655 S
C3606 C3604 1.409 . S
C3606 C3609 1.403 . S
C3607 C3604 1.442 . S
C3607 C3608 1.524 . S
C3607 C3611 1.400 . S
C3608 H3593 0.960 . S
C3608 H3594 0.960 . S
C3608 H3595 0.960 . S
C3608 C3607 1.524 . S
C3609 C3606 1.403 . S
C3609 C3610 1.392 . S
C3609 C3613 1.495 . S
C3610 C3609 1.392 . S
C3610 C3611 1.385 . S
C3610 C3612 1.478 . S
C3611 H3605 0.930 . S
C3611 C3607 1.400 . S
C3611 C3610 1.385 . S
C3612 C3610 1.478 . S
C3612 C3614 1.381 . S
C3612 C3618 1.383 . S
C3613 C3609 1.495 . S
C3613 H3619 0.959 . S
C3613 H3620 0.961 . S
C3613 H3621 0.960 . S
C3614 C3612 1.381 . S
C3614 C3615 1.394 . S
C3614 H3622 0.930 . S
C3615 C3614 1.394 . S
C3615 C3616 1.383 . S
C3615 H3623 0.929 . S
C3616 C3615 1.383 . S
C3616 C3617 1.377 . S
C3617 H3601 0.930 . S
C3617 C3616 1.377 . S
C3617 C3618 1.379 . S
C3618 H3602 0.931 . S
C3618 C3612 1.383 . S
C3618 C3617 1.379 . S
H3619 C3613 0.959 . S
H3620 C3613 0.961 . S
H3621 C3613 0.960 . S
H3622 C3614 0.930 . S
H3623 C3615 0.929 . S
H3624 C3632 0.929 . S
H3625 C3634 0.930 . S
H3626 C3636 0.930 . S
H3627 C3639 0.929 . S
H3628 C3642 0.930 . S
H3629 C3644 0.960 . S
H3630 C3644 0.960 . S
H3631 C3644 0.960 . S
C3632 H3624 0.929 . S
C3632 C3633 1.377 1_455 S
C3632 C3634 1.384 . S
C3633 C3632 1.377 1_655 S
C3633 C3639 1.390 . S
C3634 H3625 0.930 . S
C3634 C3632 1.384 . S
C3634 C3635 1.372 . S
C3635 C3634 1.372 . S
C3635 C3636 1.400 1_455 S
C3635 C3640 1.490 . S
C3636 H3626 0.930 . S
C3636 C3635 1.400 1_655 S
C3636 C3639 1.386 . S
H3637 C3653 0.930 . S
H3638 C3654 0.931 . S
C3639 H3627 0.929 . S
C3639 C3633 1.390 . S
C3639 C3636 1.386 . S
C3640 C3635 1.490 . S
C3640 C3642 1.395 . S
C3640 C3643 1.403 1_455 S
H3641 C3647 0.930 1_655 S
C3642 H3628 0.930 . S
C3642 C3640 1.395 . S
C3642 C3645 1.403 . S
C3643 C3640 1.403 1_655 S
C3643 C3644 1.524 . S
C3643 C3647 1.400 1_655 S
C3644 H3629 0.960 . S
C3644 H3630 0.960 . S
C3644 H3631 0.960 . S
C3644 C3643 1.524 . S
C3645 C3642 1.403 . S
C3645 C3646 1.392 . S
C3645 C3649 1.495 . S
C3646 C3645 1.392 . S
C3646 C3647 1.385 . S
C3646 C3648 1.478 . S
C3647 H3641 0.930 1_455 S
C3647 C3643 1.400 1_455 S
C3647 C3646 1.385 . S
C3648 C3646 1.478 . S
C3648 C3650 1.381 . S
C3648 C3654 1.383 . S
C3649 C3645 1.495 . S
C3649 H3655 0.959 . S
C3649 H3656 0.961 . S
C3649 H3657 0.960 . S
C3650 C3648 1.381 . S
C3650 C3651 1.394 . S
C3650 H3658 0.930 . S
C3651 C3650 1.394 . S
C3651 C3652 1.383 . S
C3651 H3659 0.929 . S
C3652 C3651 1.383 . S
C3652 C3653 1.377 . S
C3653 H3637 0.930 . S
C3653 C3652 1.377 . S
C3653 C3654 1.379 . S
C3654 H3638 0.931 . S
C3654 C3648 1.383 . S
C3654 C3653 1.379 . S
H3655 C3649 0.959 . S
H3656 C3649 0.961 . S
H3657 C3649 0.960 . S
H3658 C3650 0.930 . S
H3659 C3651 0.929 . S
H3660 C3668 0.929 . S
H3661 C3670 0.930 . S
H3662 C3672 0.930 . S
H3663 C3675 0.929 . S
H3664 C3678 0.930 . S
H3665 C3680 0.960 . S
H3666 C3680 0.960 . S
H3667 C3680 0.960 . S
C3668 H3660 0.929 . S
C3668 C3669 1.377 . S
C3668 C3670 1.384 . S
C3669 C3668 1.377 . S
C3669 C3675 1.390 . S
C3670 H3661 0.930 . S
C3670 C3668 1.384 . S
C3670 C3671 1.372 . S
C3671 C3670 1.372 . S
C3671 C3672 1.400 . S
C3671 C3676 1.490 . S
C3672 H3662 0.930 . S
C3672 C3671 1.400 . S
C3672 C3675 1.386 . S
H3673 C3689 0.930 . S
H3674 C3690 0.931 . S
C3675 H3663 0.929 . S
C3675 C3669 1.390 . S
C3675 C3672 1.386 . S
C3676 C3671 1.490 . S
C3676 C3678 1.395 . S
C3676 C3679 1.403 . S
H3677 C3683 0.930 . S
C3678 H3664 0.930 . S
C3678 C3676 1.395 . S
C3678 C3681 1.403 . S
C3679 C3676 1.403 . S
C3679 C3680 1.524 . S
C3679 C3683 1.400 . S
C3680 H3665 0.960 . S
C3680 H3666 0.960 . S
C3680 H3667 0.960 . S
C3680 C3679 1.524 . S
C3681 C3678 1.403 . S
C3681 C3682 1.392 . S
C3681 C3685 1.495 . S
C3682 C3681 1.392 . S
C3682 C3683 1.385 . S
C3682 C3684 1.478 . S
C3683 H3677 0.930 . S
C3683 C3679 1.400 . S
C3683 C3682 1.385 . S
C3684 C3682 1.478 . S
C3684 C3686 1.381 . S
C3684 C3690 1.383 . S
C3685 C3681 1.495 . S
C3685 H3691 0.959 . S
C3685 H3692 0.961 . S
C3685 H3693 0.960 . S
C3686 C3684 1.381 . S
C3686 C3687 1.394 . S
C3686 H3694 0.930 . S
C3687 C3686 1.394 . S
C3687 C3688 1.383 . S
C3687 H3695 0.929 . S
C3688 C3687 1.383 . S
C3688 C3689 1.377 . S
C3689 H3673 0.930 . S
C3689 C3688 1.377 . S
C3689 C3690 1.379 . S
C3690 H3674 0.931 . S
C3690 C3684 1.383 . S
C3690 C3689 1.379 . S
H3691 C3685 0.959 . S
H3692 C3685 0.961 . S
H3693 C3685 0.960 . S
H3694 C3686 0.930 . S
H3695 C3687 0.929 . S
H3696 C3704 0.929 . S
H3697 C3706 0.930 . S
H3698 C3708 0.930 . S
H3699 C3711 0.929 . S
H3700 C3714 0.930 . S
H3701 C3716 0.960 . S
H3702 C3716 0.960 . S
H3703 C3716 0.960 . S
C3704 H3696 0.929 . S
C3704 C3705 1.377 . S
C3704 C3706 1.384 . S
C3705 C3704 1.377 . S
C3705 C3711 1.390 . S
C3706 H3697 0.930 . S
C3706 C3704 1.384 . S
C3706 C3707 1.372 . S
C3707 C3706 1.372 . S
C3707 C3708 1.400 . S
C3707 C3712 1.490 . S
C3708 H3698 0.930 . S
C3708 C3707 1.400 . S
C3708 C3711 1.386 . S
H3709 C3725 0.930 . S
H3710 C3726 0.931 . S
C3711 H3699 0.929 . S
C3711 C3705 1.390 . S
C3711 C3708 1.386 . S
C3712 C3707 1.490 . S
C3712 C3714 1.395 . S
C3712 C3715 1.403 . S
H3713 C3719 0.930 . S
C3714 H3700 0.930 . S
C3714 C3712 1.395 . S
C3714 C3717 1.403 . S
C3715 C3712 1.403 . S
C3715 C3716 1.524 . S
C3715 C3719 1.400 . S
C3716 H3701 0.960 . S
C3716 H3702 0.960 . S
C3716 H3703 0.960 . S
C3716 C3715 1.524 . S
C3717 C3714 1.403 . S
C3717 C3718 1.392 . S
C3717 C3721 1.495 . S
C3718 C3717 1.392 . S
C3718 C3719 1.385 . S
C3718 C3720 1.478 . S
C3719 H3713 0.930 . S
C3719 C3715 1.400 . S
C3719 C3718 1.385 . S
C3720 C3718 1.478 . S
C3720 C3722 1.381 . S
C3720 C3726 1.383 . S
C3721 C3717 1.495 . S
C3721 H3727 0.959 . S
C3721 H3728 0.961 . S
C3721 H3729 0.960 . S
C3722 C3720 1.381 . S
C3722 C3723 1.394 . S
C3722 H3730 0.930 . S
C3723 C3722 1.394 . S
C3723 C3724 1.383 . S
C3723 H3731 0.929 . S
C3724 C3723 1.383 . S
C3724 C3725 1.377 . S
C3725 H3709 0.930 . S
C3725 C3724 1.377 . S
C3725 C3726 1.379 . S
C3726 H3710 0.931 . S
C3726 C3720 1.383 . S
C3726 C3725 1.379 . S
H3727 C3721 0.959 . S
H3728 C3721 0.961 . S
H3729 C3721 0.960 . S
H3730 C3722 0.930 . S
H3731 C3723 0.929 . S
H3732 C3740 0.929 . S
H3733 C3742 0.930 . S
H3734 C3744 0.930 . S
H3735 C3747 0.929 1_554 S
H3736 C3750 0.930 . S
H3737 C3752 0.960 . S
H3738 C3752 0.960 . S
H3739 C3752 0.960 . S
C3740 H3732 0.929 . S
C3740 C3741 1.377 . S
C3740 C3742 1.384 . S
C3741 C3740 1.377 . S
C3741 C3747 1.390 . S
C3742 H3733 0.930 . S
C3742 C3740 1.384 . S
C3742 C3743 1.372 . S
C3743 C3742 1.372 . S
C3743 C3744 1.400 . S
C3743 C3748 1.490 . S
C3744 H3734 0.930 . S
C3744 C3743 1.400 . S
C3744 C3747 1.386 . S
H3745 C3761 0.930 . S
H3746 C3762 0.931 . S
C3747 H3735 0.929 1_556 S
C3747 C3741 1.390 . S
C3747 C3744 1.386 . S
C3748 C3743 1.490 . S
C3748 C3750 1.395 . S
C3748 C3751 1.403 . S
H3749 C3755 0.930 . S
C3750 H3736 0.930 . S
C3750 C3748 1.395 . S
C3750 C3753 1.403 . S
C3751 C3748 1.403 . S
C3751 C3752 1.524 . S
C3751 C3755 1.400 . S
C3752 H3737 0.960 . S
C3752 H3738 0.960 . S
C3752 H3739 0.960 . S
C3752 C3751 1.524 . S
C3753 C3750 1.403 . S
C3753 C3754 1.392 . S
C3753 C3757 1.495 . S
C3754 C3753 1.392 . S
C3754 C3755 1.385 . S
C3754 C3756 1.478 . S
C3755 H3749 0.930 . S
C3755 C3751 1.400 . S
C3755 C3754 1.385 . S
C3756 C3754 1.478 . S
C3756 C3758 1.381 . S
C3756 C3762 1.383 . S
C3757 C3753 1.495 . S
C3757 H3763 0.959 . S
C3757 H3764 0.961 . S
C3757 H3765 0.960 . S
C3758 C3756 1.381 . S
C3758 C3759 1.394 . S
C3758 H3766 0.930 . S
C3759 C3758 1.394 . S
C3759 C3760 1.383 . S
C3759 H3767 0.929 . S
C3760 C3759 1.383 . S
C3760 C3761 1.377 . S
C3761 H3745 0.930 . S
C3761 C3760 1.377 . S
C3761 C3762 1.379 . S
C3762 H3746 0.931 . S
C3762 C3756 1.383 . S
C3762 C3761 1.379 . S
H3763 C3757 0.959 . S
H3764 C3757 0.961 . S
H3765 C3757 0.960 . S
H3766 C3758 0.930 . S
H3767 C3759 0.929 . S
H3768 C3776 0.929 . S
H3769 C3778 0.930 . S
H3770 C3780 0.930 . S
H3771 C3783 0.929 . S
H3772 C3786 0.930 . S
H3773 C3788 0.960 . S
H3774 C3788 0.960 . S
H3775 C3788 0.960 . S
C3776 H3768 0.929 . S
C3776 C3777 1.377 . S
C3776 C3778 1.384 . S
C3777 C3776 1.377 . S
C3777 C3783 1.390 . S
C3778 H3769 0.930 . S
C3778 C3776 1.384 . S
C3778 C3779 1.372 . S
C3779 C3778 1.372 . S
C3779 C3780 1.400 . S
C3779 C3784 1.490 . S
C3780 H3770 0.930 . S
C3780 C3779 1.400 . S
C3780 C3783 1.386 . S
H3781 C3797 0.930 . S
H3782 C3798 0.931 . S
C3783 H3771 0.929 . S
C3783 C3777 1.390 . S
C3783 C3780 1.386 . S
C3784 C3779 1.490 . S
C3784 C3786 1.395 . S
C3784 C3787 1.403 . S
H3785 C3791 0.930 . S
C3786 H3772 0.930 . S
C3786 C3784 1.395 . S
C3786 C3789 1.403 . S
C3787 C3784 1.403 . S
C3787 C3788 1.524 . S
C3787 C3791 1.400 . S
C3788 H3773 0.960 . S
C3788 H3774 0.960 . S
C3788 H3775 0.960 . S
C3788 C3787 1.524 . S
C3789 C3786 1.403 . S
C3789 C3790 1.392 . S
C3789 C3793 1.495 . S
C3790 C3789 1.392 . S
C3790 C3791 1.385 . S
C3790 C3792 1.478 . S
C3791 H3785 0.930 . S
C3791 C3787 1.400 . S
C3791 C3790 1.385 . S
C3792 C3790 1.478 . S
C3792 C3794 1.381 . S
C3792 C3798 1.383 . S
C3793 C3789 1.495 . S
C3793 H3799 0.959 . S
C3793 H3800 0.961 . S
C3793 H3801 0.960 . S
C3794 C3792 1.381 . S
C3794 C3795 1.394 . S
C3794 H3802 0.930 . S
C3795 C3794 1.394 . S
C3795 C3796 1.383 . S
C3795 H3803 0.929 . S
C3796 C3795 1.383 . S
C3796 C3797 1.377 . S
C3797 H3781 0.930 . S
C3797 C3796 1.377 . S
C3797 C3798 1.379 . S
C3798 H3782 0.931 . S
C3798 C3792 1.383 . S
C3798 C3797 1.379 . S
H3799 C3793 0.959 . S
H3800 C3793 0.961 . S
H3801 C3793 0.960 . S
H3802 C3794 0.930 . S
H3803 C3795 0.929 . S
H3804 C3812 0.929 . S
H3805 C3814 0.930 . S
H3806 C3816 0.930 . S
H3807 C3819 0.929 . S
H3808 C3822 0.930 . S
H3809 C3824 0.960 . S
H3810 C3824 0.960 . S
H3811 C3824 0.960 . S
C3812 H3804 0.929 . S
C3812 C3813 1.377 . S
C3812 C3814 1.384 . S
C3813 C3812 1.377 . S
C3813 C3819 1.390 . S
C3814 H3805 0.930 . S
C3814 C3812 1.384 . S
C3814 C3815 1.372 . S
C3815 C3814 1.372 . S
C3815 C3816 1.400 . S
C3815 C3820 1.490 . S
C3816 H3806 0.930 . S
C3816 C3815 1.400 . S
C3816 C3819 1.386 . S
H3817 C3833 0.930 . S
H3818 C3834 0.931 . S
C3819 H3807 0.929 . S
C3819 C3813 1.390 . S
C3819 C3816 1.386 . S
C3820 C3815 1.490 . S
C3820 C3822 1.395 . S
C3820 C3823 1.403 . S
H3821 C3827 0.930 . S
C3822 H3808 0.930 . S
C3822 C3820 1.395 . S
C3822 C3825 1.403 . S
C3823 C3820 1.403 . S
C3823 C3824 1.524 . S
C3823 C3827 1.400 . S
C3824 H3809 0.960 . S
C3824 H3810 0.960 . S
C3824 H3811 0.960 . S
C3824 C3823 1.524 . S
C3825 C3822 1.403 . S
C3825 C3826 1.392 . S
C3825 C3829 1.495 . S
C3826 C3825 1.392 . S
C3826 C3827 1.385 . S
C3826 C3828 1.478 . S
C3827 H3821 0.930 . S
C3827 C3823 1.400 . S
C3827 C3826 1.385 . S
C3828 C3826 1.478 . S
C3828 C3830 1.381 . S
C3828 C3834 1.383 . S
C3829 C3825 1.495 . S
C3829 H3835 0.959 . S
C3829 H3836 0.961 . S
C3829 H3837 0.960 . S
C3830 C3828 1.381 . S
C3830 C3831 1.394 . S
C3830 H3838 0.930 . S
C3831 C3830 1.394 . S
C3831 C3832 1.383 . S
C3831 H3839 0.929 . S
C3832 C3831 1.383 . S
C3832 C3833 1.377 . S
C3833 H3817 0.930 . S
C3833 C3832 1.377 . S
C3833 C3834 1.379 . S
C3834 H3818 0.931 . S
C3834 C3828 1.383 . S
C3834 C3833 1.379 . S
H3835 C3829 0.959 . S
H3836 C3829 0.961 . S
H3837 C3829 0.960 . S
H3838 C3830 0.930 . S
H3839 C3831 0.929 . S
H3840 C3848 0.929 . S
H3841 C3850 0.930 . S
H3842 C3852 0.930 . S
H3843 C3855 0.929 . S
H3844 C3858 0.930 . S
H3845 C3860 0.960 . S
H3846 C3860 0.960 . S
H3847 C3860 0.960 . S
C3848 H3840 0.929 . S
C3848 C3849 1.377 . S
C3848 C3850 1.384 . S
C3849 C3848 1.377 . S
C3849 C3855 1.390 . S
C3850 H3841 0.930 . S
C3850 C3848 1.384 . S
C3850 C3851 1.372 . S
C3851 C3850 1.372 . S
C3851 C3852 1.400 . S
C3851 C3856 1.490 . S
C3852 H3842 0.930 . S
C3852 C3851 1.400 . S
C3852 C3855 1.386 . S
H3853 C3869 0.930 . S
H3854 C3870 0.931 . S
C3855 H3843 0.929 . S
C3855 C3849 1.390 . S
C3855 C3852 1.386 . S
C3856 C3851 1.490 . S
C3856 C3858 1.395 . S
C3856 C3859 1.403 . S
H3857 C3863 0.930 . S
C3858 H3844 0.930 . S
C3858 C3856 1.395 . S
C3858 C3861 1.403 . S
C3859 C3856 1.403 . S
C3859 C3860 1.524 . S
C3859 C3863 1.400 . S
C3860 H3845 0.960 . S
C3860 H3846 0.960 . S
C3860 H3847 0.960 . S
C3860 C3859 1.524 . S
C3861 C3858 1.403 . S
C3861 C3862 1.392 . S
C3861 C3865 1.495 . S
C3862 C3861 1.392 . S
C3862 C3863 1.385 . S
C3862 C3864 1.478 . S
C3863 H3857 0.930 . S
C3863 C3859 1.400 . S
C3863 C3862 1.385 . S
C3864 C3862 1.478 . S
C3864 C3866 1.381 . S
C3864 C3870 1.383 . S
C3865 C3861 1.495 . S
C3865 H3871 0.959 . S
C3865 H3872 0.961 . S
C3865 H3873 0.960 . S
C3866 C3864 1.381 . S
C3866 C3867 1.394 . S
C3866 H3874 0.930 . S
C3867 C3866 1.394 . S
C3867 C3868 1.383 . S
C3867 H3875 0.929 . S
C3868 C3867 1.383 . S
C3868 C3869 1.377 . S
C3869 H3853 0.930 . S
C3869 C3868 1.377 . S
C3869 C3870 1.379 . S
C3870 H3854 0.931 . S
C3870 C3864 1.383 . S
C3870 C3869 1.379 . S
H3871 C3865 0.959 . S
H3872 C3865 0.961 . S
H3873 C3865 0.960 . S
H3874 C3866 0.930 . S
H3875 C3867 0.929 . S
H3876 C3884 0.929 . S
H3877 C3886 0.930 . S
H3878 C3888 0.930 . S
H3879 C3891 0.929 . S
H3880 C3894 0.930 . S
H3881 C3896 0.960 . S
H3882 C3896 0.960 . S
H3883 C3896 0.960 . S
C3884 H3876 0.929 . S
C3884 C3885 1.377 . S
C3884 C3886 1.384 . S
C3885 C3884 1.377 . S
C3885 C3891 1.390 . S
C3886 H3877 0.930 . S
C3886 C3884 1.384 . S
C3886 C3887 1.372 . S
C3887 C3886 1.372 . S
C3887 C3888 1.400 . S
C3887 C3892 1.490 . S
C3888 H3878 0.930 . S
C3888 C3887 1.400 . S
C3888 C3891 1.386 . S
H3889 C3905 0.930 . S
H3890 C3906 0.931 . S
C3891 H3879 0.929 . S
C3891 C3885 1.390 . S
C3891 C3888 1.386 . S
C3892 C3887 1.490 . S
C3892 C3894 1.395 . S
C3892 C3895 1.403 . S
H3893 C3899 0.930 . S
C3894 H3880 0.930 . S
C3894 C3892 1.395 . S
C3894 C3897 1.403 . S
C3895 C3892 1.403 . S
C3895 C3896 1.524 . S
C3895 C3899 1.400 . S
C3896 H3881 0.960 . S
C3896 H3882 0.960 . S
C3896 H3883 0.960 . S
C3896 C3895 1.524 . S
C3897 C3894 1.403 . S
C3897 C3898 1.392 . S
C3897 C3901 1.495 . S
C3898 C3897 1.392 . S
C3898 C3899 1.385 . S
C3898 C3900 1.478 . S
C3899 H3893 0.930 . S
C3899 C3895 1.400 . S
C3899 C3898 1.385 . S
C3900 C3898 1.478 . S
C3900 C3902 1.381 . S
C3900 C3906 1.383 . S
C3901 C3897 1.495 . S
C3901 H3907 0.959 . S
C3901 H3908 0.961 . S
C3901 H3909 0.960 . S
C3902 C3900 1.381 . S
C3902 C3903 1.394 . S
C3902 H3910 0.930 . S
C3903 C3902 1.394 . S
C3903 C3904 1.383 . S
C3903 H3911 0.929 . S
C3904 C3903 1.383 . S
C3904 C3905 1.377 . S
C3905 H3889 0.930 . S
C3905 C3904 1.377 . S
C3905 C3906 1.379 . S
C3906 H3890 0.931 . S
C3906 C3900 1.383 . S
C3906 C3905 1.379 . S
H3907 C3901 0.959 . S
H3908 C3901 0.961 . S
H3909 C3901 0.960 . S
H3910 C3902 0.930 . S
H3911 C3903 0.929 . S
H3912 C3920 0.929 . S
H3913 C3922 0.930 . S
H3914 C3924 0.930 . S
H3915 C3927 0.929 . S
H3916 C3930 0.930 . S
H3917 C3932 0.960 . S
H3918 C3932 0.960 . S
H3919 C3932 0.960 . S
C3920 H3912 0.929 . S
C3920 C3921 1.377 . S
C3920 C3922 1.384 . S
C3921 C3920 1.377 . S
C3921 C3927 1.390 . S
C3922 H3913 0.930 . S
C3922 C3920 1.384 . S
C3922 C3923 1.372 . S
C3923 C3922 1.372 . S
C3923 C3924 1.400 . S
C3923 C3928 1.490 . S
C3924 H3914 0.930 . S
C3924 C3923 1.400 . S
C3924 C3927 1.386 . S
H3925 C3941 0.930 . S
H3926 C3942 0.931 . S
C3927 H3915 0.929 . S
C3927 C3921 1.390 . S
C3927 C3924 1.386 . S
C3928 C3923 1.490 . S
C3928 C3930 1.395 . S
C3928 C3931 1.403 . S
H3929 C3935 0.930 . S
C3930 H3916 0.930 . S
C3930 C3928 1.395 . S
C3930 C3933 1.403 . S
C3931 C3928 1.403 . S
C3931 C3932 1.524 . S
C3931 C3935 1.400 . S
C3932 H3917 0.960 . S
C3932 H3918 0.960 . S
C3932 H3919 0.960 . S
C3932 C3931 1.524 . S
C3933 C3930 1.403 . S
C3933 C3934 1.392 . S
C3933 C3937 1.495 . S
C3934 C3933 1.392 . S
C3934 C3935 1.385 . S
C3934 C3936 1.478 . S
C3935 H3929 0.930 . S
C3935 C3931 1.400 . S
C3935 C3934 1.385 . S
C3936 C3934 1.478 . S
C3936 C3938 1.381 . S
C3936 C3942 1.383 . S
C3937 C3933 1.495 . S
C3937 H3943 0.959 . S
C3937 H3944 0.961 . S
C3937 H3945 0.960 . S
C3938 C3936 1.381 . S
C3938 C3939 1.394 . S
C3938 H3946 0.930 . S
C3939 C3938 1.394 . S
C3939 C3940 1.383 . S
C3939 H3947 0.929 . S
C3940 C3939 1.383 . S
C3940 C3941 1.377 . S
C3941 H3925 0.930 . S
C3941 C3940 1.377 . S
C3941 C3942 1.379 . S
C3942 H3926 0.931 . S
C3942 C3936 1.383 . S
C3942 C3941 1.379 . S
H3943 C3937 0.959 . S
H3944 C3937 0.961 . S
H3945 C3937 0.960 . S
H3946 C3938 0.930 . S
H3947 C3939 0.929 . S
H3948 C3956 0.929 . S
H3949 C3958 0.930 . S
H3950 C3960 0.930 . S
H3951 C3963 0.929 . S
H3952 C3966 0.930 . S
H3953 C3968 0.960 . S
H3954 C3968 0.960 . S
H3955 C3968 0.960 . S
C3956 H3948 0.929 . S
C3956 C3957 1.377 . S
C3956 C3958 1.384 . S
C3957 C3956 1.377 . S
C3957 C3963 1.390 . S
C3958 H3949 0.930 . S
C3958 C3956 1.384 . S
C3958 C3959 1.372 . S
C3959 C3958 1.372 . S
C3959 C3960 1.400 . S
C3959 C3964 1.490 . S
C3960 H3950 0.930 . S
C3960 C3959 1.400 . S
C3960 C3963 1.386 . S
H3961 C3977 0.930 . S
H3962 C3978 0.931 . S
C3963 H3951 0.929 . S
C3963 C3957 1.390 . S
C3963 C3960 1.386 . S
C3964 C3959 1.490 . S
C3964 C3966 1.395 . S
C3964 C3967 1.403 . S
H3965 C3971 0.930 . S
C3966 H3952 0.930 . S
C3966 C3964 1.395 . S
C3966 C3969 1.403 . S
C3967 C3964 1.403 . S
C3967 C3968 1.524 . S
C3967 C3971 1.400 . S
C3968 H3953 0.960 . S
C3968 H3954 0.960 . S
C3968 H3955 0.960 . S
C3968 C3967 1.524 . S
C3969 C3966 1.403 . S
C3969 C3970 1.392 . S
C3969 C3973 1.495 . S
C3970 C3969 1.392 . S
C3970 C3971 1.385 . S
C3970 C3972 1.478 . S
C3971 H3965 0.930 . S
C3971 C3967 1.400 . S
C3971 C3970 1.385 . S
C3972 C3970 1.478 . S
C3972 C3974 1.381 . S
C3972 C3978 1.383 . S
C3973 C3969 1.495 . S
C3973 H3979 0.959 . S
C3973 H3980 0.961 . S
C3973 H3981 0.960 . S
C3974 C3972 1.381 . S
C3974 C3975 1.394 . S
C3974 H3982 0.930 . S
C3975 C3974 1.394 . S
C3975 C3976 1.383 . S
C3975 H3983 0.929 . S
C3976 C3975 1.383 . S
C3976 C3977 1.377 . S
C3977 H3961 0.930 . S
C3977 C3976 1.377 . S
C3977 C3978 1.379 . S
C3978 H3962 0.931 . S
C3978 C3972 1.383 . S
C3978 C3977 1.379 . S
H3979 C3973 0.959 . S
H3980 C3973 0.961 . S
H3981 C3973 0.960 . S
H3982 C3974 0.930 . S
H3983 C3975 0.929 . S
H3984 C3992 0.929 . S
H3985 C3994 0.930 . S
H3986 C3996 0.930 . S
H3987 C3999 0.929 . S
H3988 C4002 0.930 . S
H3989 C4004 0.960 . S
H3990 C4004 0.960 . S
H3991 C4004 0.960 . S
C3992 H3984 0.929 . S
C3992 C3993 1.377 . S
C3992 C3994 1.384 . S
C3993 C3992 1.377 . S
C3993 C3999 1.390 . S
C3994 H3985 0.930 . S
C3994 C3992 1.384 . S
C3994 C3995 1.372 . S
C3995 C3994 1.372 . S
C3995 C3996 1.400 . S
C3995 C4000 1.490 . S
C3996 H3986 0.930 . S
C3996 C3995 1.400 . S
C3996 C3999 1.386 . S
H3997 C4013 0.930 . S
H3998 C4014 0.931 . S
C3999 H3987 0.929 . S
C3999 C3993 1.390 . S
C3999 C3996 1.386 . S
C4000 C3995 1.490 . S
C4000 C4002 1.395 . S
C4000 C4003 1.403 . S
H4001 C4007 0.930 . S
C4002 H3988 0.930 . S
C4002 C4000 1.395 . S
C4002 C4005 1.403 . S
C4003 C4000 1.403 . S
C4003 C4004 1.524 . S
C4003 C4007 1.400 . S
C4004 H3989 0.960 . S
C4004 H3990 0.960 . S
C4004 H3991 0.960 . S
C4004 C4003 1.524 . S
C4005 C4002 1.403 . S
C4005 C4006 1.392 . S
C4005 C4009 1.495 . S
C4006 C4005 1.392 . S
C4006 C4007 1.385 . S
C4006 C4008 1.478 . S
C4007 H4001 0.930 . S
C4007 C4003 1.400 . S
C4007 C4006 1.385 . S
C4008 C4006 1.478 . S
C4008 C4010 1.381 . S
C4008 C4014 1.383 . S
C4009 C4005 1.495 . S
C4009 H4015 0.959 . S
C4009 H4016 0.961 . S
C4009 H4017 0.960 . S
C4010 C4008 1.381 . S
C4010 C4011 1.394 . S
C4010 H4018 0.930 . S
C4011 C4010 1.394 . S
C4011 C4012 1.383 . S
C4011 H4019 0.929 . S
C4012 C4011 1.383 . S
C4012 C4013 1.377 . S
C4013 H3997 0.930 . S
C4013 C4012 1.377 . S
C4013 C4014 1.379 . S
C4014 H3998 0.931 . S
C4014 C4008 1.383 . S
C4014 C4013 1.379 . S
H4015 C4009 0.959 . S
H4016 C4009 0.961 . S
H4017 C4009 0.960 . S
H4018 C4010 0.930 . S
H4019 C4011 0.929 . S
H4020 C4028 0.929 . S
H4021 C4030 0.930 . S
H4022 C4032 0.930 . S
H4023 C4035 0.929 . S
H4024 C4038 0.930 . S
H4025 C4040 0.960 . S
H4026 C4040 0.960 . S
H4027 C4040 0.960 . S
C4028 H4020 0.929 . S
C4028 C4029 1.377 . S
C4028 C4030 1.384 . S
C4029 C4028 1.377 . S
C4029 C4035 1.390 . S
C4030 H4021 0.930 . S
C4030 C4028 1.384 . S
C4030 C4031 1.372 . S
C4031 C4030 1.372 . S
C4031 C4032 1.400 . S
C4031 C4036 1.490 . S
C4032 H4022 0.930 . S
C4032 C4031 1.400 . S
C4032 C4035 1.386 . S
H4033 C4049 0.930 . S
H4034 C4050 0.931 . S
C4035 H4023 0.929 . S
C4035 C4029 1.390 . S
C4035 C4032 1.386 . S
C4036 C4031 1.490 . S
C4036 C4038 1.395 . S
C4036 C4039 1.403 . S
H4037 C4043 0.930 . S
C4038 H4024 0.930 . S
C4038 C4036 1.395 . S
C4038 C4041 1.403 . S
C4039 C4036 1.403 . S
C4039 C4040 1.524 . S
C4039 C4043 1.400 . S
C4040 H4025 0.960 . S
C4040 H4026 0.960 . S
C4040 H4027 0.960 . S
C4040 C4039 1.524 . S
C4041 C4038 1.403 . S
C4041 C4042 1.392 . S
C4041 C4045 1.495 . S
C4042 C4041 1.392 . S
C4042 C4043 1.385 . S
C4042 C4044 1.478 . S
C4043 H4037 0.930 . S
C4043 C4039 1.400 . S
C4043 C4042 1.385 . S
C4044 C4042 1.478 . S
C4044 C4046 1.381 . S
C4044 C4050 1.383 . S
C4045 C4041 1.495 . S
C4045 H4051 0.959 . S
C4045 H4052 0.961 . S
C4045 H4053 0.960 . S
C4046 C4044 1.381 . S
C4046 C4047 1.394 . S
C4046 H4054 0.930 . S
C4047 C4046 1.394 . S
C4047 C4048 1.383 . S
C4047 H4055 0.929 . S
C4048 C4047 1.383 . S
C4048 C4049 1.377 . S
C4049 H4033 0.930 . S
C4049 C4048 1.377 . S
C4049 C4050 1.379 . S
C4050 H4034 0.931 . S
C4050 C4044 1.383 . S
C4050 C4049 1.379 . S
H4051 C4045 0.959 . S
H4052 C4045 0.961 . S
H4053 C4045 0.960 . S
H4054 C4046 0.930 . S
H4055 C4047 0.929 . S
H4056 C4064 0.929 . S
H4057 C4066 0.930 . S
H4058 C4068 0.930 . S
H4059 C4071 0.929 . S
H4060 C4074 0.930 . S
H4061 C4076 0.960 . S
H4062 C4076 0.960 . S
H4063 C4076 0.960 . S
C4064 H4056 0.929 . S
C4064 C4065 1.377 . S
C4064 C4066 1.384 . S
C4065 C4064 1.377 . S
C4065 C4071 1.390 . S
C4066 H4057 0.930 . S
C4066 C4064 1.384 . S
C4066 C4067 1.372 . S
C4067 C4066 1.372 . S
C4067 C4068 1.400 . S
C4067 C4072 1.490 . S
C4068 H4058 0.930 . S
C4068 C4067 1.400 . S
C4068 C4071 1.386 . S
H4069 C4085 0.930 . S
H4070 C4086 0.931 . S
C4071 H4059 0.929 . S
C4071 C4065 1.390 . S
C4071 C4068 1.386 . S
C4072 C4067 1.490 . S
C4072 C4074 1.395 . S
C4072 C4075 1.403 . S
H4073 C4079 0.930 . S
C4074 H4060 0.930 . S
C4074 C4072 1.395 . S
C4074 C4077 1.403 . S
C4075 C4072 1.403 . S
C4075 C4076 1.524 . S
C4075 C4079 1.400 . S
C4076 H4061 0.960 . S
C4076 H4062 0.960 . S
C4076 H4063 0.960 . S
C4076 C4075 1.524 . S
C4077 C4074 1.403 . S
C4077 C4078 1.392 . S
C4077 C4081 1.495 . S
C4078 C4077 1.392 . S
C4078 C4079 1.385 . S
C4078 C4080 1.478 . S
C4079 H4073 0.930 . S
C4079 C4075 1.400 . S
C4079 C4078 1.385 . S
C4080 C4078 1.478 . S
C4080 C4082 1.381 . S
C4080 C4086 1.383 . S
C4081 C4077 1.495 . S
C4081 H4087 0.959 . S
C4081 H4088 0.961 . S
C4081 H4089 0.960 . S
C4082 C4080 1.381 . S
C4082 C4083 1.394 . S
C4082 H4090 0.930 . S
C4083 C4082 1.394 . S
C4083 C4084 1.383 . S
C4083 H4091 0.929 . S
C4084 C4083 1.383 . S
C4084 C4085 1.377 . S
C4085 H4069 0.930 . S
C4085 C4084 1.377 . S
C4085 C4086 1.379 . S
C4086 H4070 0.931 . S
C4086 C4080 1.383 . S
C4086 C4085 1.379 . S
H4087 C4081 0.959 . S
H4088 C4081 0.961 . S
H4089 C4081 0.960 . S
H4090 C4082 0.930 . S
H4091 C4083 0.929 . S
H4092 C4100 0.920 1_556 S
H4093 C4102 0.930 1_556 S
H4094 C4104 0.930 . S
H4095 C4107 0.929 . S
H4096 C4110 0.930 . S
H4097 C4112 0.960 . S
H4098 C4112 0.960 . S
H4099 C4112 0.960 . S
C4100 H4092 0.920 1_554 S
C4100 C4101 1.377 . S
C4100 C4102 1.384 . S
C4101 C4100 1.377 . S
C4101 C4107 1.390 . S
C4102 H4093 0.930 1_554 S
C4102 C4100 1.384 . S
C4102 C4103 1.372 . S
C4103 C4102 1.372 . S
C4103 C4104 1.400 . S
C4103 C4108 1.490 . S
C4104 H4094 0.930 . S
C4104 C4103 1.400 . S
C4104 C4107 1.386 . S
H4105 C4121 0.930 . S
H4106 C4122 0.931 . S
C4107 H4095 0.929 . S
C4107 C4101 1.390 . S
C4107 C4104 1.386 . S
C4108 C4103 1.490 . S
C4108 C4110 1.395 1_565 S
C4108 C4111 1.403 . S
H4109 C4115 0.930 . S
C4110 H4096 0.930 . S
C4110 C4108 1.395 1_545 S
C4110 C4113 1.403 . S
C4111 C4108 1.403 . S
C4111 C4112 1.524 . S
C4111 C4115 1.400 . S
C4112 H4097 0.960 . S
C4112 H4098 0.960 . S
C4112 H4099 0.960 . S
C4112 C4111 1.524 . S
C4113 C4110 1.403 . S
C4113 C4114 1.392 . S
C4113 C4117 1.495 . S
C4114 C4113 1.392 . S
C4114 C4115 1.385 1_545 S
C4114 C4116 1.478 . S
C4115 H4109 0.930 . S
C4115 C4111 1.400 . S
C4115 C4114 1.385 1_565 S
C4116 C4114 1.478 . S
C4116 C4118 1.381 . S
C4116 C4122 1.383 . S
C4117 C4113 1.495 . S
C4117 H4123 0.959 . S
C4117 H4124 0.961 . S
C4117 H4125 0.960 . S
C4118 C4116 1.381 . S
C4118 C4119 1.394 . S
C4118 H4126 0.930 1_554 S
C4119 C4118 1.394 . S
C4119 C4120 1.383 . S
C4119 H4127 0.929 1_554 S
C4120 C4119 1.383 . S
C4120 C4121 1.377 . S
C4121 H4105 0.930 . S
C4121 C4120 1.377 . S
C4121 C4122 1.379 . S
C4122 H4106 0.931 . S
C4122 C4116 1.383 . S
C4122 C4121 1.379 . S
H4123 C4117 0.959 . S
H4124 C4117 0.961 . S
H4125 C4117 0.960 . S
H4126 C4118 0.930 1_556 S
H4127 C4119 0.929 1_556 S
H4128 C4136 0.929 . S
H4129 C4138 0.930 . S
H4130 C4140 0.930 . S
H4131 C4143 0.929 . S
H4132 C4146 0.930 . S
H4133 C4148 0.960 . S
H4134 C4148 0.960 . S
H4135 C4148 0.960 . S
C4136 H4128 0.929 . S
C4136 C4137 1.377 . S
C4136 C4138 1.384 . S
C4137 C4136 1.377 . S
C4137 C4143 1.390 . S
C4138 H4129 0.930 . S
C4138 C4136 1.384 . S
C4138 C4139 1.372 . S
C4139 C4138 1.372 . S
C4139 C4140 1.400 . S
C4139 C4144 1.490 . S
C4140 H4130 0.930 . S
C4140 C4139 1.400 . S
C4140 C4143 1.386 . S
H4141 C4157 0.930 . S
H4142 C4158 0.931 . S
C4143 H4131 0.929 . S
C4143 C4137 1.390 . S
C4143 C4140 1.386 . S
C4144 C4139 1.490 . S
C4144 C4146 1.395 . S
C4144 C4147 1.403 . S
H4145 C4151 0.930 . S
C4146 H4132 0.930 . S
C4146 C4144 1.395 . S
C4146 C4149 1.403 . S
C4147 C4144 1.403 . S
C4147 C4148 1.524 . S
C4147 C4151 1.400 . S
C4148 H4133 0.960 . S
C4148 H4134 0.960 . S
C4148 H4135 0.960 . S
C4148 C4147 1.524 . S
C4149 C4146 1.403 . S
C4149 C4150 1.392 . S
C4149 C4153 1.495 . S
C4150 C4149 1.392 . S
C4150 C4151 1.385 . S
C4150 C4152 1.478 . S
C4151 H4145 0.930 . S
C4151 C4147 1.400 . S
C4151 C4150 1.385 . S
C4152 C4150 1.478 . S
C4152 C4154 1.381 . S
C4152 C4158 1.383 . S
C4153 C4149 1.495 . S
C4153 H4159 0.959 . S
C4153 H4160 0.961 . S
C4153 H4161 0.960 . S
C4154 C4152 1.381 . S
C4154 C4155 1.394 . S
C4154 H4162 0.930 . S
C4155 C4154 1.394 . S
C4155 C4156 1.383 . S
C4155 H4163 0.929 . S
C4156 C4155 1.383 . S
C4156 C4157 1.377 . S
C4157 H4141 0.930 . S
C4157 C4156 1.377 . S
C4157 C4158 1.379 . S
C4158 H4142 0.931 . S
C4158 C4152 1.383 . S
C4158 C4157 1.379 . S
H4159 C4153 0.959 . S
H4160 C4153 0.961 . S
H4161 C4153 0.960 . S
H4162 C4154 0.930 . S
H4163 C4155 0.929 . S
H4164 C4172 0.929 . S
H4165 C4174 0.930 . S
H4166 C4176 0.930 . S
H4167 C4179 0.929 . S
H4168 C4182 0.930 . S
H4169 C4184 0.960 . S
H4170 C4184 0.960 1_556 S
H4171 C4184 0.960 . S
C4172 H4164 0.929 . S
C4172 C4173 1.343 1_556 S
C4172 C4174 1.384 . S
C4173 C4172 1.343 1_554 S
C4173 C4179 1.437 . S
C4174 H4165 0.930 . S
C4174 C4172 1.384 . S
C4174 C4175 1.372 1_556 S
C4175 C4174 1.372 1_554 S
C4175 C4176 1.400 . S
C4175 C4180 1.490 . S
C4176 H4166 0.930 . S
C4176 C4175 1.400 . S
C4176 C4179 1.386 . S
H4177 C4193 0.930 . S
H4178 C4194 0.931 . S
C4179 H4167 0.929 . S
C4179 C4173 1.437 . S
C4179 C4176 1.386 . S
C4180 C4175 1.490 . S
C4180 C4182 1.395 . S
C4180 C4183 1.403 . S
H4181 C4187 0.930 . S
C4182 H4168 0.930 . S
C4182 C4180 1.395 . S
C4182 C4185 1.403 . S
C4183 C4180 1.403 . S
C4183 C4184 1.524 . S
C4183 C4187 1.400 . S
C4184 H4169 0.960 . S
C4184 H4170 0.960 1_554 S
C4184 H4171 0.960 . S
C4184 C4183 1.524 . S
C4185 C4182 1.403 . S
C4185 C4186 1.392 . S
C4185 C4189 1.495 . S
C4186 C4185 1.392 . S
C4186 C4187 1.385 . S
C4186 C4188 1.478 . S
C4187 H4181 0.930 . S
C4187 C4183 1.400 . S
C4187 C4186 1.385 . S
C4188 C4186 1.478 . S
C4188 C4190 1.381 . S
C4188 C4194 1.383 . S
C4189 C4185 1.495 . S
C4189 H4195 0.959 . S
C4189 H4196 0.961 . S
C4189 H4197 0.960 . S
C4190 C4188 1.381 . S
C4190 C4191 1.394 . S
C4190 H4198 0.930 1_554 S
C4191 C4190 1.394 . S
C4191 C4192 1.383 . S
C4191 H4199 0.929 . S
C4192 C4191 1.383 . S
C4192 C4193 1.377 . S
C4193 H4177 0.930 . S
C4193 C4192 1.377 . S
C4193 C4194 1.379 . S
C4194 H4178 0.931 . S
C4194 C4188 1.383 . S
C4194 C4193 1.379 . S
H4195 C4189 0.959 . S
H4196 C4189 0.961 . S
H4197 C4189 0.960 . S
H4198 C4190 0.930 1_556 S
H4199 C4191 0.929 . S
H4200 C4208 0.929 . S
H4201 C4210 0.930 . S
H4202 C4212 0.930 . S
H4203 C4215 0.929 . S
H4204 C4218 0.930 . S
H4205 C4220 0.960 . S
H4206 C4220 0.960 . S
H4207 C4220 0.960 . S
C4208 H4200 0.929 . S
C4208 C4209 1.377 . S
C4208 C4210 1.384 . S
C4209 C4208 1.377 . S
C4209 C4215 1.390 . S
C4210 H4201 0.930 . S
C4210 C4208 1.384 . S
C4210 C4211 1.372 . S
C4211 C4210 1.372 . S
C4211 C4212 1.400 . S
C4211 C4216 1.490 . S
C4212 H4202 0.930 . S
C4212 C4211 1.400 . S
C4212 C4215 1.386 . S
H4213 C4229 0.930 . S
H4214 C4230 0.931 . S
C4215 H4203 0.929 . S
C4215 C4209 1.390 . S
C4215 C4212 1.386 . S
C4216 C4211 1.490 . S
C4216 C4218 1.395 . S
C4216 C4219 1.403 . S
H4217 C4223 0.930 . S
C4218 H4204 0.930 . S
C4218 C4216 1.395 . S
C4218 C4221 1.403 . S
C4219 C4216 1.403 . S
C4219 C4220 1.524 . S
C4219 C4223 1.400 . S
C4220 H4205 0.960 . S
C4220 H4206 0.960 . S
C4220 H4207 0.960 . S
C4220 C4219 1.524 . S
C4221 C4218 1.403 . S
C4221 C4222 1.392 . S
C4221 C4225 1.495 . S
C4222 C4221 1.392 . S
C4222 C4223 1.385 . S
C4222 C4224 1.478 . S
C4223 H4217 0.930 . S
C4223 C4219 1.400 . S
C4223 C4222 1.385 . S
C4224 C4222 1.478 . S
C4224 C4226 1.381 . S
C4224 C4230 1.383 . S
C4225 C4221 1.495 . S
C4225 H4231 0.959 . S
C4225 H4232 0.961 . S
C4225 H4233 0.960 . S
C4226 C4224 1.381 . S
C4226 C4227 1.394 . S
C4226 H4234 0.930 . S
C4227 C4226 1.394 . S
C4227 C4228 1.383 . S
C4227 H4235 0.929 . S
C4228 C4227 1.383 . S
C4228 C4229 1.377 . S
C4229 H4213 0.930 . S
C4229 C4228 1.377 . S
C4229 C4230 1.379 . S
C4230 H4214 0.931 . S
C4230 C4224 1.383 . S
C4230 C4229 1.379 . S
H4231 C4225 0.959 . S
H4232 C4225 0.961 . S
H4233 C4225 0.960 . S
H4234 C4226 0.930 . S
H4235 C4227 0.929 . S
H4236 C4244 0.931 1_545 S
H4237 C4246 0.930 . S
H4238 C4248 0.930 . S
H4239 C4251 0.929 . S
H4240 C4254 0.930 . S
H4241 C4256 0.960 . S
H4242 C4256 0.960 . S
H4243 C4256 0.960 . S
C4244 H4236 0.931 1_565 S
C4244 C4245 1.377 . S
C4244 C4246 1.384 . S
C4245 C4244 1.377 . S
C4245 C4251 1.390 . S
C4246 H4237 0.930 . S
C4246 C4244 1.384 . S
C4246 C4247 1.372 . S
C4247 C4246 1.372 . S
C4247 C4248 1.400 . S
C4247 C4252 1.490 . S
C4248 H4238 0.930 . S
C4248 C4247 1.400 . S
C4248 C4251 1.386 . S
H4249 C4265 0.930 . S
H4250 C4266 0.931 . S
C4251 H4239 0.929 . S
C4251 C4245 1.390 . S
C4251 C4248 1.386 . S
C4252 C4247 1.490 . S
C4252 C4254 1.395 . S
C4252 C4255 1.403 . S
H4253 C4259 0.930 . S
C4254 H4240 0.930 . S
C4254 C4252 1.395 . S
C4254 C4257 1.403 . S
C4255 C4252 1.403 . S
C4255 C4256 1.524 . S
C4255 C4259 1.400 . S
C4256 H4241 0.960 . S
C4256 H4242 0.960 . S
C4256 H4243 0.960 . S
C4256 C4255 1.524 . S
C4257 C4254 1.403 . S
C4257 C4258 1.392 . S
C4257 C4261 1.495 . S
C4258 C4257 1.392 . S
C4258 C4259 1.385 . S
C4258 C4260 1.478 . S
C4259 H4253 0.930 . S
C4259 C4255 1.400 . S
C4259 C4258 1.385 . S
C4260 C4258 1.478 . S
C4260 C4262 1.381 . S
C4260 C4266 1.383 . S
C4261 C4257 1.495 . S
C4261 H4267 0.959 . S
C4261 H4268 0.961 . S
C4261 H4269 0.960 . S
C4262 C4260 1.381 . S
C4262 C4263 1.394 . S
C4262 H4270 0.930 . S
C4263 C4262 1.394 . S
C4263 C4264 1.383 . S
C4263 H4271 0.929 . S
C4264 C4263 1.383 . S
C4264 C4265 1.377 . S
C4265 H4249 0.930 . S
C4265 C4264 1.377 . S
C4265 C4266 1.379 . S
C4266 H4250 0.931 . S
C4266 C4260 1.383 . S
C4266 C4265 1.379 . S
H4267 C4261 0.959 . S
H4268 C4261 0.961 . S
H4269 C4261 0.960 . S
H4270 C4262 0.930 . S
H4271 C4263 0.929 . S
H4272 C4280 0.929 . S
H4273 C4282 0.930 . S
H4274 C4284 0.930 . S
H4275 C4287 0.929 . S
H4276 C4290 0.930 . S
H4277 C4292 0.960 . S
H4278 C4292 0.960 . S
H4279 C4292 0.960 . S
C4280 H4272 0.929 . S
C4280 C4281 1.377 . S
C4280 C4282 1.384 . S
C4281 C4280 1.377 . S
C4281 C4287 1.390 . S
C4282 H4273 0.930 . S
C4282 C4280 1.384 . S
C4282 C4283 1.372 . S
C4283 C4282 1.372 . S
C4283 C4284 1.400 . S
C4283 C4288 1.490 . S
C4284 H4274 0.930 . S
C4284 C4283 1.400 . S
C4284 C4287 1.386 . S
H4285 C4301 0.930 . S
H4286 C4302 0.931 . S
C4287 H4275 0.929 . S
C4287 C4281 1.390 . S
C4287 C4284 1.386 . S
C4288 C4283 1.490 . S
C4288 C4290 1.395 . S
C4288 C4291 1.403 . S
H4289 C4295 0.930 . S
C4290 H4276 0.930 . S
C4290 C4288 1.395 . S
C4290 C4293 1.403 . S
C4291 C4288 1.403 . S
C4291 C4292 1.524 . S
C4291 C4295 1.400 . S
C4292 H4277 0.960 . S
C4292 H4278 0.960 . S
C4292 H4279 0.960 . S
C4292 C4291 1.524 . S
C4293 C4290 1.403 . S
C4293 C4294 1.392 . S
C4293 C4297 1.495 . S
C4294 C4293 1.392 . S
C4294 C4295 1.385 . S
C4294 C4296 1.478 . S
C4295 H4289 0.930 . S
C4295 C4291 1.400 . S
C4295 C4294 1.385 . S
C4296 C4294 1.478 . S
C4296 C4298 1.381 . S
C4296 C4302 1.383 . S
C4297 C4293 1.495 . S
C4297 H4303 0.959 . S
C4297 H4304 0.961 . S
C4297 H4305 0.960 . S
C4298 C4296 1.381 . S
C4298 C4299 1.394 . S
C4298 H4306 0.930 . S
C4299 C4298 1.394 . S
C4299 C4300 1.383 . S
C4299 H4307 0.929 . S
C4300 C4299 1.383 . S
C4300 C4301 1.377 . S
C4301 H4285 0.930 . S
C4301 C4300 1.377 . S
C4301 C4302 1.379 . S
C4302 H4286 0.931 . S
C4302 C4296 1.383 . S
C4302 C4301 1.379 . S
H4303 C4297 0.959 . S
H4304 C4297 0.961 . S
H4305 C4297 0.960 . S
H4306 C4298 0.930 . S
H4307 C4299 0.929 . S
H4308 C4316 0.929 . S
H4309 C4318 0.930 . S
H4310 C4320 0.930 . S
H4311 C4323 0.929 . S
H4312 C4326 0.930 . S
H4313 C4328 0.960 . S
H4314 C4328 0.960 . S
H4315 C4328 0.960 . S
C4316 H4308 0.929 . S
C4316 C4317 1.377 . S
C4316 C4318 1.384 . S
C4317 C4316 1.377 . S
C4317 C4323 1.390 . S
C4318 H4309 0.930 . S
C4318 C4316 1.384 . S
C4318 C4319 1.372 . S
C4319 C4318 1.372 . S
C4319 C4320 1.400 . S
C4319 C4324 1.490 . S
C4320 H4310 0.930 . S
C4320 C4319 1.400 . S
C4320 C4323 1.386 . S
H4321 C4337 0.930 . S
H4322 C4338 0.931 . S
C4323 H4311 0.929 . S
C4323 C4317 1.390 . S
C4323 C4320 1.386 . S
C4324 C4319 1.490 . S
C4324 C4326 1.395 . S
C4324 C4327 1.403 . S
H4325 C4331 0.930 . S
C4326 H4312 0.930 . S
C4326 C4324 1.395 . S
C4326 C4329 1.403 . S
C4327 C4324 1.403 . S
C4327 C4328 1.524 . S
C4327 C4331 1.400 . S
C4328 H4313 0.960 . S
C4328 H4314 0.960 . S
C4328 H4315 0.960 . S
C4328 C4327 1.524 . S
C4329 C4326 1.403 . S
C4329 C4330 1.392 . S
C4329 C4333 1.495 . S
C4330 C4329 1.392 . S
C4330 C4331 1.385 . S
C4330 C4332 1.478 . S
C4331 H4325 0.930 . S
C4331 C4327 1.400 . S
C4331 C4330 1.385 . S
C4332 C4330 1.478 . S
C4332 C4334 1.381 . S
C4332 C4338 1.383 . S
C4333 C4329 1.495 . S
C4333 H4339 0.959 . S
C4333 H4340 0.961 . S
C4333 H4341 0.960 . S
C4334 C4332 1.381 . S
C4334 C4335 1.394 . S
C4334 H4342 0.930 . S
C4335 C4334 1.394 . S
C4335 C4336 1.383 . S
C4335 H4343 0.929 . S
C4336 C4335 1.383 . S
C4336 C4337 1.377 . S
C4337 H4321 0.930 . S
C4337 C4336 1.377 . S
C4337 C4338 1.379 . S
C4338 H4322 0.931 . S
C4338 C4332 1.383 . S
C4338 C4337 1.379 . S
H4339 C4333 0.959 . S
H4340 C4333 0.961 . S
H4341 C4333 0.960 . S
H4342 C4334 0.930 . S
H4343 C4335 0.929 . S
H4344 C4352 0.929 . S
H4345 C4354 0.930 . S
H4346 C4356 0.930 . S
H4347 C4359 0.929 . S
H4348 C4362 0.930 . S
H4349 C4364 0.960 . S
H4350 C4364 0.960 . S
H4351 C4364 0.960 . S
C4352 H4344 0.929 . S
C4352 C4353 1.377 . S
C4352 C4354 1.384 . S
C4353 C4352 1.377 . S
C4353 C4359 1.390 . S
C4354 H4345 0.930 . S
C4354 C4352 1.384 . S
C4354 C4355 1.372 . S
C4355 C4354 1.372 . S
C4355 C4356 1.400 . S
C4355 C4360 1.490 . S
C4356 H4346 0.930 . S
C4356 C4355 1.400 . S
C4356 C4359 1.386 . S
H4357 C4373 0.930 . S
H4358 C4374 0.931 . S
C4359 H4347 0.929 . S
C4359 C4353 1.390 . S
C4359 C4356 1.386 . S
C4360 C4355 1.490 . S
C4360 C4362 1.395 . S
C4360 C4363 1.403 . S
H4361 C4367 0.930 . S
C4362 H4348 0.930 . S
C4362 C4360 1.395 . S
C4362 C4365 1.403 . S
C4363 C4360 1.403 . S
C4363 C4364 1.524 . S
C4363 C4367 1.400 . S
C4364 H4349 0.960 . S
C4364 H4350 0.960 . S
C4364 H4351 0.960 . S
C4364 C4363 1.524 . S
C4365 C4362 1.403 . S
C4365 C4366 1.392 . S
C4365 C4369 1.495 . S
C4366 C4365 1.392 . S
C4366 C4367 1.385 . S
C4366 C4368 1.478 . S
C4367 H4361 0.930 . S
C4367 C4363 1.400 . S
C4367 C4366 1.385 . S
C4368 C4366 1.478 . S
C4368 C4370 1.381 . S
C4368 C4374 1.383 . S
C4369 C4365 1.495 . S
C4369 H4375 0.959 . S
C4369 H4376 0.961 . S
C4369 H4377 0.960 . S
C4370 C4368 1.381 . S
C4370 C4371 1.394 . S
C4370 H4378 0.930 . S
C4371 C4370 1.394 . S
C4371 C4372 1.383 . S
C4371 H4379 0.929 . S
C4372 C4371 1.383 . S
C4372 C4373 1.377 . S
C4373 H4357 0.930 . S
C4373 C4372 1.377 . S
C4373 C4374 1.379 . S
C4374 H4358 0.931 . S
C4374 C4368 1.383 . S
C4374 C4373 1.379 . S
H4375 C4369 0.959 . S
H4376 C4369 0.961 . S
H4377 C4369 0.960 . S
H4378 C4370 0.930 . S
H4379 C4371 0.929 . S
H4380 C4388 0.929 . S
H4381 C4390 0.930 . S
H4382 C4392 0.930 . S
H4383 C4395 0.929 . S
H4384 C4398 0.930 . S
H4385 C4400 0.960 . S
H4386 C4400 0.960 . S
H4387 C4400 0.960 . S
C4388 H4380 0.929 . S
C4388 C4389 1.377 . S
C4388 C4390 1.384 . S
C4389 C4388 1.377 . S
C4389 C4395 1.390 . S
C4390 H4381 0.930 . S
C4390 C4388 1.384 . S
C4390 C4391 1.372 . S
C4391 C4390 1.372 . S
C4391 C4392 1.400 . S
C4391 C4396 1.490 . S
C4392 H4382 0.930 . S
C4392 C4391 1.400 . S
C4392 C4395 1.386 . S
H4393 C4409 0.930 . S
H4394 C4410 0.931 . S
C4395 H4383 0.929 . S
C4395 C4389 1.390 . S
C4395 C4392 1.386 . S
C4396 C4391 1.490 . S
C4396 C4398 1.395 . S
C4396 C4399 1.403 . S
H4397 C4403 0.930 . S
C4398 H4384 0.930 . S
C4398 C4396 1.395 . S
C4398 C4401 1.403 . S
C4399 C4396 1.403 . S
C4399 C4400 1.524 . S
C4399 C4403 1.400 . S
C4400 H4385 0.960 . S
C4400 H4386 0.960 . S
C4400 H4387 0.960 . S
C4400 C4399 1.524 . S
C4401 C4398 1.403 . S
C4401 C4402 1.392 . S
C4401 C4405 1.495 . S
C4402 C4401 1.392 . S
C4402 C4403 1.385 . S
C4402 C4404 1.478 . S
C4403 H4397 0.930 . S
C4403 C4399 1.400 . S
C4403 C4402 1.385 . S
C4404 C4402 1.478 . S
C4404 C4406 1.381 . S
C4404 C4410 1.383 . S
C4405 C4401 1.495 . S
C4405 H4411 0.959 . S
C4405 H4412 0.961 . S
C4405 H4413 0.960 . S
C4406 C4404 1.381 . S
C4406 C4407 1.394 . S
C4406 H4414 0.930 . S
C4407 C4406 1.394 . S
C4407 C4408 1.383 . S
C4407 H4415 0.929 . S
C4408 C4407 1.383 . S
C4408 C4409 1.377 . S
C4409 H4393 0.930 . S
C4409 C4408 1.377 . S
C4409 C4410 1.379 . S
C4410 H4394 0.931 . S
C4410 C4404 1.383 . S
C4410 C4409 1.379 . S
H4411 C4405 0.959 . S
H4412 C4405 0.961 . S
H4413 C4405 0.960 . S
H4414 C4406 0.930 . S
H4415 C4407 0.929 . S
H4416 C4424 0.929 . S
H4417 C4426 0.930 . S
H4418 C4428 0.930 . S
H4419 C4431 0.929 . S
H4420 C4434 0.930 . S
H4421 C4436 0.960 . S
H4422 C4436 0.960 . S
H4423 C4436 0.960 . S
C4424 H4416 0.929 . S
C4424 C4425 1.377 . S
C4424 C4426 1.384 . S
C4425 C4424 1.377 . S
C4425 C4431 1.390 . S
C4426 H4417 0.930 . S
C4426 C4424 1.384 . S
C4426 C4427 1.372 . S
C4427 C4426 1.372 . S
C4427 C4428 1.400 . S
C4427 C4432 1.490 . S
C4428 H4418 0.930 . S
C4428 C4427 1.400 . S
C4428 C4431 1.386 . S
H4429 C4445 0.930 1_554 S
H4430 C4446 0.931 . S
C4431 H4419 0.929 . S
C4431 C4425 1.390 . S
C4431 C4428 1.386 . S
C4432 C4427 1.490 . S
C4432 C4434 1.395 . S
C4432 C4435 1.403 . S
H4433 C4439 0.930 . S
C4434 H4420 0.930 . S
C4434 C4432 1.395 . S
C4434 C4437 1.403 . S
C4435 C4432 1.403 . S
C4435 C4436 1.524 . S
C4435 C4439 1.400 . S
C4436 H4421 0.960 . S
C4436 H4422 0.960 . S
C4436 H4423 0.960 . S
C4436 C4435 1.524 . S
C4437 C4434 1.403 . S
C4437 C4438 1.392 . S
C4437 C4441 1.495 . S
C4438 C4437 1.392 . S
C4438 C4439 1.385 . S
C4438 C4440 1.478 . S
C4439 H4433 0.930 . S
C4439 C4435 1.400 . S
C4439 C4438 1.385 . S
C4440 C4438 1.478 . S
C4440 C4442 1.381 . S
C4440 C4446 1.383 . S
C4441 C4437 1.495 . S
C4441 H4447 0.959 . S
C4441 H4448 0.961 . S
C4441 H4449 0.960 . S
C4442 C4440 1.381 . S
C4442 C4443 1.394 . S
C4442 H4450 0.930 . S
C4443 C4442 1.394 . S
C4443 C4444 1.383 . S
C4443 H4451 0.929 . S
C4444 C4443 1.383 . S
C4444 C4445 1.377 . S
C4445 H4429 0.930 1_556 S
C4445 C4444 1.377 . S
C4445 C4446 1.379 . S
C4446 H4430 0.931 . S
C4446 C4440 1.383 . S
C4446 C4445 1.379 . S
H4447 C4441 0.959 . S
H4448 C4441 0.961 . S
H4449 C4441 0.960 . S
H4450 C4442 0.930 . S
H4451 C4443 0.929 . S
H4452 C4460 0.929 . S
H4453 C4462 0.930 . S
H4454 C4464 0.930 . S
H4455 C4467 0.929 . S
H4456 C4470 0.930 . S
H4457 C4472 0.960 . S
H4458 C4472 0.960 . S
H4459 C4472 0.960 . S
C4460 H4452 0.929 . S
C4460 C4461 1.377 . S
C4460 C4462 1.384 . S
C4461 C4460 1.377 . S
C4461 C4467 1.390 . S
C4462 H4453 0.930 . S
C4462 C4460 1.384 . S
C4462 C4463 1.372 . S
C4463 C4462 1.372 . S
C4463 C4464 1.400 . S
C4463 C4468 1.490 . S
C4464 H4454 0.930 . S
C4464 C4463 1.400 . S
C4464 C4467 1.386 . S
H4465 C4481 0.930 . S
H4466 C4482 0.931 . S
C4467 H4455 0.929 . S
C4467 C4461 1.390 . S
C4467 C4464 1.386 . S
C4468 C4463 1.490 . S
C4468 C4470 1.395 . S
C4468 C4471 1.403 . S
H4469 C4475 0.930 . S
C4470 H4456 0.930 . S
C4470 C4468 1.395 . S
C4470 C4473 1.403 . S
C4471 C4468 1.403 . S
C4471 C4472 1.524 . S
C4471 C4475 1.400 . S
C4472 H4457 0.960 . S
C4472 H4458 0.960 . S
C4472 H4459 0.960 . S
C4472 C4471 1.524 . S
C4473 C4470 1.403 . S
C4473 C4474 1.392 . S
C4473 C4477 1.495 . S
C4474 C4473 1.392 . S
C4474 C4475 1.385 . S
C4474 C4476 1.478 . S
C4475 H4469 0.930 . S
C4475 C4471 1.400 . S
C4475 C4474 1.385 . S
C4476 C4474 1.478 . S
C4476 C4478 1.381 . S
C4476 C4482 1.383 . S
C4477 C4473 1.495 . S
C4477 H4483 0.959 . S
C4477 H4484 0.961 . S
C4477 H4485 0.960 . S
C4478 C4476 1.381 . S
C4478 C4479 1.394 . S
C4478 H4486 0.930 . S
C4479 C4478 1.394 . S
C4479 C4480 1.383 . S
C4479 H4487 0.929 . S
C4480 C4479 1.383 . S
C4480 C4481 1.377 . S
C4481 H4465 0.930 . S
C4481 C4480 1.377 . S
C4481 C4482 1.379 . S
C4482 H4466 0.931 . S
C4482 C4476 1.383 . S
C4482 C4481 1.379 . S
H4483 C4477 0.959 . S
H4484 C4477 0.961 . S
H4485 C4477 0.960 . S
H4486 C4478 0.930 . S
H4487 C4479 0.929 . S
H4488 C4496 0.929 . S
H4489 C4498 0.930 . S
H4490 C4500 0.930 . S
H4491 C4503 0.929 . S
H4492 C4506 0.930 . S
H4493 C4508 0.960 . S
H4494 C4508 0.960 . S
H4495 C4508 0.960 . S
C4496 H4488 0.929 . S
C4496 C4497 1.377 . S
C4496 C4498 1.384 . S
C4497 C4496 1.377 . S
C4497 C4503 1.390 . S
C4498 H4489 0.930 . S
C4498 C4496 1.384 . S
C4498 C4499 1.372 . S
C4499 C4498 1.372 . S
C4499 C4500 1.400 . S
C4499 C4504 1.490 . S
C4500 H4490 0.930 . S
C4500 C4499 1.400 . S
C4500 C4503 1.386 . S
H4501 C4517 0.930 . S
H4502 C4518 0.931 . S
C4503 H4491 0.929 . S
C4503 C4497 1.390 . S
C4503 C4500 1.386 . S
C4504 C4499 1.490 . S
C4504 C4506 1.395 . S
C4504 C4507 1.403 . S
H4505 C4511 0.930 . S
C4506 H4492 0.930 . S
C4506 C4504 1.395 . S
C4506 C4509 1.403 . S
C4507 C4504 1.403 . S
C4507 C4508 1.524 . S
C4507 C4511 1.400 . S
C4508 H4493 0.960 . S
C4508 H4494 0.960 . S
C4508 H4495 0.960 . S
C4508 C4507 1.524 . S
C4509 C4506 1.403 . S
C4509 C4510 1.392 . S
C4509 C4513 1.495 . S
C4510 C4509 1.392 . S
C4510 C4511 1.385 . S
C4510 C4512 1.478 . S
C4511 H4505 0.930 . S
C4511 C4507 1.400 . S
C4511 C4510 1.385 . S
C4512 C4510 1.478 . S
C4512 C4514 1.381 . S
C4512 C4518 1.383 . S
C4513 C4509 1.495 . S
C4513 H4519 0.959 . S
C4513 H4520 0.961 . S
C4513 H4521 0.960 . S
C4514 C4512 1.381 . S
C4514 C4515 1.394 . S
C4514 H4522 0.930 . S
C4515 C4514 1.394 . S
C4515 C4516 1.383 . S
C4515 H4523 0.929 . S
C4516 C4515 1.383 . S
C4516 C4517 1.377 . S
C4517 H4501 0.930 . S
C4517 C4516 1.377 . S
C4517 C4518 1.379 . S
C4518 H4502 0.931 . S
C4518 C4512 1.383 . S
C4518 C4517 1.379 . S
H4519 C4513 0.959 . S
H4520 C4513 0.961 . S
H4521 C4513 0.960 . S
H4522 C4514 0.930 . S
H4523 C4515 0.929 . S
H4524 C4532 0.929 . S
H4525 C4534 0.930 . S
H4526 C4536 0.930 . S
H4527 C4539 0.929 . S
H4528 C4542 0.930 . S
H4529 C4544 0.960 . S
H4530 C4544 0.960 . S
H4531 C4544 0.960 . S
C4532 H4524 0.929 . S
C4532 C4533 1.377 . S
C4532 C4534 1.384 . S
C4533 C4532 1.377 . S
C4533 C4539 1.390 . S
C4534 H4525 0.930 . S
C4534 C4532 1.384 . S
C4534 C4535 1.372 . S
C4535 C4534 1.372 . S
C4535 C4536 1.400 . S
C4535 C4540 1.490 . S
C4536 H4526 0.930 . S
C4536 C4535 1.400 . S
C4536 C4539 1.386 . S
H4537 C4553 0.930 . S
H4538 C4554 0.931 . S
C4539 H4527 0.929 . S
C4539 C4533 1.390 . S
C4539 C4536 1.386 . S
C4540 C4535 1.490 . S
C4540 C4542 1.395 . S
C4540 C4543 1.403 . S
H4541 C4547 0.930 . S
C4542 H4528 0.930 . S
C4542 C4540 1.395 . S
C4542 C4545 1.403 . S
C4543 C4540 1.403 . S
C4543 C4544 1.524 . S
C4543 C4547 1.400 . S
C4544 H4529 0.960 . S
C4544 H4530 0.960 . S
C4544 H4531 0.960 . S
C4544 C4543 1.524 . S
C4545 C4542 1.403 . S
C4545 C4546 1.392 . S
C4545 C4549 1.495 . S
C4546 C4545 1.392 . S
C4546 C4547 1.385 . S
C4546 C4548 1.478 . S
C4547 H4541 0.930 . S
C4547 C4543 1.400 . S
C4547 C4546 1.385 . S
C4548 C4546 1.478 . S
C4548 C4550 1.381 . S
C4548 C4554 1.383 . S
C4549 C4545 1.495 . S
C4549 H4555 0.959 . S
C4549 H4556 0.961 . S
C4549 H4557 0.960 . S
C4550 C4548 1.381 . S
C4550 C4551 1.394 . S
C4550 H4558 0.930 . S
C4551 C4550 1.394 . S
C4551 C4552 1.383 . S
C4551 H4559 0.929 . S
C4552 C4551 1.383 . S
C4552 C4553 1.377 . S
C4553 H4537 0.930 . S
C4553 C4552 1.377 . S
C4553 C4554 1.379 . S
C4554 H4538 0.931 . S
C4554 C4548 1.383 . S
C4554 C4553 1.379 . S
H4555 C4549 0.959 . S
H4556 C4549 0.961 . S
H4557 C4549 0.960 . S
H4558 C4550 0.930 . S
H4559 C4551 0.929 . S
H4560 C4568 0.929 . S
H4561 C4570 0.930 . S
H4562 C4572 0.930 . S
H4563 C4575 0.929 . S
H4564 C4578 0.930 . S
H4565 C4580 0.960 . S
H4566 C4580 0.960 . S
H4567 C4580 0.960 . S
C4568 H4560 0.929 . S
C4568 C4569 1.377 . S
C4568 C4570 1.384 . S
C4569 C4568 1.377 . S
C4569 C4575 1.390 . S
C4570 H4561 0.930 . S
C4570 C4568 1.384 . S
C4570 C4571 1.372 . S
C4571 C4570 1.372 . S
C4571 C4572 1.400 . S
C4571 C4576 1.490 . S
C4572 H4562 0.930 . S
C4572 C4571 1.400 . S
C4572 C4575 1.386 . S
H4573 C4589 0.930 . S
H4574 C4590 0.931 . S
C4575 H4563 0.929 . S
C4575 C4569 1.390 . S
C4575 C4572 1.386 . S
C4576 C4571 1.490 . S
C4576 C4578 1.395 . S
C4576 C4579 1.403 . S
H4577 C4583 0.930 . S
C4578 H4564 0.930 . S
C4578 C4576 1.395 . S
C4578 C4581 1.403 . S
C4579 C4576 1.403 . S
C4579 C4580 1.524 . S
C4579 C4583 1.400 . S
C4580 H4565 0.960 . S
C4580 H4566 0.960 . S
C4580 H4567 0.960 . S
C4580 C4579 1.524 . S
C4581 C4578 1.403 . S
C4581 C4582 1.392 . S
C4581 C4585 1.495 . S
C4582 C4581 1.392 . S
C4582 C4583 1.385 . S
C4582 C4584 1.478 . S
C4583 H4577 0.930 . S
C4583 C4579 1.400 . S
C4583 C4582 1.385 . S
C4584 C4582 1.478 . S
C4584 C4586 1.381 . S
C4584 C4590 1.383 . S
C4585 C4581 1.495 . S
C4585 H4591 0.959 . S
C4585 H4592 0.961 . S
C4585 H4593 0.960 . S
C4586 C4584 1.381 . S
C4586 C4587 1.394 . S
C4586 H4594 0.930 . S
C4587 C4586 1.394 . S
C4587 C4588 1.383 . S
C4587 H4595 0.929 . S
C4588 C4587 1.383 . S
C4588 C4589 1.377 . S
C4589 H4573 0.930 . S
C4589 C4588 1.377 . S
C4589 C4590 1.379 . S
C4590 H4574 0.931 . S
C4590 C4584 1.383 . S
C4590 C4589 1.379 . S
H4591 C4585 0.959 . S
H4592 C4585 0.961 . S
H4593 C4585 0.960 . S
H4594 C4586 0.930 . S
H4595 C4587 0.929 . S
H4596 C4604 0.929 . S
H4597 C4606 0.930 . S
H4598 C4608 0.930 . S
H4599 C4611 0.929 . S
H4600 C4614 0.930 . S
H4601 C4616 0.960 . S
H4602 C4616 0.960 . S
H4603 C4616 0.960 . S
C4604 H4596 0.929 . S
C4604 C4605 1.377 . S
C4604 C4606 1.384 . S
C4605 C4604 1.377 . S
C4605 C4611 1.390 . S
C4606 H4597 0.930 . S
C4606 C4604 1.384 . S
C4606 C4607 1.372 . S
C4607 C4606 1.372 . S
C4607 C4608 1.400 . S
C4607 C4612 1.490 . S
C4608 H4598 0.930 . S
C4608 C4607 1.400 . S
C4608 C4611 1.386 . S
H4609 C4625 0.930 . S
H4610 C4626 0.931 . S
C4611 H4599 0.929 . S
C4611 C4605 1.390 . S
C4611 C4608 1.386 . S
C4612 C4607 1.490 . S
C4612 C4614 1.395 . S
C4612 C4615 1.403 . S
H4613 C4619 0.930 . S
C4614 H4600 0.930 . S
C4614 C4612 1.395 . S
C4614 C4617 1.403 . S
C4615 C4612 1.403 . S
C4615 C4616 1.524 . S
C4615 C4619 1.400 . S
C4616 H4601 0.960 . S
C4616 H4602 0.960 . S
C4616 H4603 0.960 . S
C4616 C4615 1.524 . S
C4617 C4614 1.403 . S
C4617 C4618 1.392 . S
C4617 C4621 1.495 . S
C4618 C4617 1.392 . S
C4618 C4619 1.385 . S
C4618 C4620 1.478 . S
C4619 H4613 0.930 . S
C4619 C4615 1.400 . S
C4619 C4618 1.385 . S
C4620 C4618 1.478 . S
C4620 C4622 1.381 . S
C4620 C4626 1.383 . S
C4621 C4617 1.495 . S
C4621 H4627 0.959 . S
C4621 H4628 0.961 . S
C4621 H4629 0.960 . S
C4622 C4620 1.381 . S
C4622 C4623 1.394 . S
C4622 H4630 0.930 . S
C4623 C4622 1.394 . S
C4623 C4624 1.383 . S
C4623 H4631 0.929 . S
C4624 C4623 1.383 . S
C4624 C4625 1.377 . S
C4625 H4609 0.930 . S
C4625 C4624 1.377 . S
C4625 C4626 1.379 . S
C4626 H4610 0.931 . S
C4626 C4620 1.383 . S
C4626 C4625 1.379 . S
H4627 C4621 0.959 . S
H4628 C4621 0.961 . S
H4629 C4621 0.960 . S
H4630 C4622 0.930 . S
H4631 C4623 0.929 . S
H4632 C4640 0.929 . S
H4633 C4642 0.930 . S
H4634 C4644 0.930 . S
H4635 C4647 0.929 . S
H4636 C4650 0.930 . S
H4637 C4652 0.960 . S
H4638 C4652 0.960 . S
H4639 C4652 0.960 . S
C4640 H4632 0.929 . S
C4640 C4641 1.377 . S
C4640 C4642 1.384 . S
C4641 C4640 1.377 . S
C4641 C4647 1.390 . S
C4642 H4633 0.930 . S
C4642 C4640 1.384 . S
C4642 C4643 1.372 . S
C4643 C4642 1.372 . S
C4643 C4644 1.400 . S
C4643 C4648 1.490 . S
C4644 H4634 0.930 . S
C4644 C4643 1.400 . S
C4644 C4647 1.386 . S
H4645 C4661 0.930 . S
H4646 C4662 0.931 . S
C4647 H4635 0.929 . S
C4647 C4641 1.390 . S
C4647 C4644 1.386 . S
C4648 C4643 1.490 . S
C4648 C4650 1.395 . S
C4648 C4651 1.403 . S
H4649 C4655 0.930 . S
C4650 H4636 0.930 . S
C4650 C4648 1.395 . S
C4650 C4653 1.403 . S
C4651 C4648 1.403 . S
C4651 C4652 1.524 . S
C4651 C4655 1.400 . S
C4652 H4637 0.960 . S
C4652 H4638 0.960 . S
C4652 H4639 0.960 . S
C4652 C4651 1.524 . S
C4653 C4650 1.403 . S
C4653 C4654 1.392 . S
C4653 C4657 1.495 . S
C4654 C4653 1.392 . S
C4654 C4655 1.385 . S
C4654 C4656 1.478 1_655 S
C4655 H4649 0.930 . S
C4655 C4651 1.400 . S
C4655 C4654 1.385 . S
C4656 C4654 1.478 1_455 S
C4656 C4658 1.381 . S
C4656 C4662 1.383 1_455 S
C4657 C4653 1.495 . S
C4657 H4663 0.959 . S
C4657 H4664 0.961 . S
C4657 H4665 0.960 . S
C4658 C4656 1.381 . S
C4658 C4659 1.394 . S
C4658 H4666 0.930 . S
C4659 C4658 1.394 . S
C4659 C4660 1.383 . S
C4659 H4667 0.929 . S
C4660 C4659 1.383 . S
C4660 C4661 1.377 . S
C4661 H4645 0.930 . S
C4661 C4660 1.377 . S
C4661 C4662 1.379 1_455 S
C4662 H4646 0.931 . S
C4662 C4656 1.383 1_655 S
C4662 C4661 1.379 1_655 S
H4663 C4657 0.959 . S
H4664 C4657 0.961 . S
H4665 C4657 0.960 . S
H4666 C4658 0.930 . S
H4667 C4659 0.929 . S
H4668 C4676 0.929 . S
H4669 C4678 0.930 . S
H4670 C4680 0.930 . S
H4671 C4683 0.929 . S
H4672 C4686 0.930 . S
H4673 C4688 0.960 . S
H4674 C4688 0.960 . S
H4675 C4688 0.960 . S
C4676 H4668 0.929 . S
C4676 C4677 1.377 . S
C4676 C4678 1.384 . S
C4677 C4676 1.377 . S
C4677 C4683 1.390 . S
C4678 H4669 0.930 . S
C4678 C4676 1.384 . S
C4678 C4679 1.372 . S
C4679 C4678 1.372 . S
C4679 C4680 1.400 . S
C4679 C4684 1.490 . S
C4680 H4670 0.930 . S
C4680 C4679 1.400 . S
C4680 C4683 1.386 . S
H4681 C4697 0.930 . S
H4682 C4698 0.931 . S
C4683 H4671 0.929 . S
C4683 C4677 1.390 . S
C4683 C4680 1.386 . S
C4684 C4679 1.490 . S
C4684 C4686 1.395 . S
C4684 C4687 1.403 . S
H4685 C4691 0.930 . S
C4686 H4672 0.930 . S
C4686 C4684 1.395 . S
C4686 C4689 1.403 . S
C4687 C4684 1.403 . S
C4687 C4688 1.524 . S
C4687 C4691 1.400 . S
C4688 H4673 0.960 . S
C4688 H4674 0.960 . S
C4688 H4675 0.960 . S
C4688 C4687 1.524 . S
C4689 C4686 1.403 . S
C4689 C4690 1.392 . S
C4689 C4693 1.495 . S
C4690 C4689 1.392 . S
C4690 C4691 1.385 . S
C4690 C4692 1.478 . S
C4691 H4685 0.930 . S
C4691 C4687 1.400 . S
C4691 C4690 1.385 . S
C4692 C4690 1.478 . S
C4692 C4694 1.381 . S
C4692 C4698 1.383 . S
C4693 C4689 1.495 . S
C4693 H4699 0.959 . S
C4693 H4700 0.961 . S
C4693 H4701 0.960 . S
C4694 C4692 1.381 . S
C4694 C4695 1.394 . S
C4694 H4702 0.930 . S
C4695 C4694 1.394 . S
C4695 C4696 1.383 . S
C4695 H4703 0.929 . S
C4696 C4695 1.383 . S
C4696 C4697 1.377 . S
C4697 H4681 0.930 . S
C4697 C4696 1.377 . S
C4697 C4698 1.379 . S
C4698 H4682 0.931 . S
C4698 C4692 1.383 . S
C4698 C4697 1.379 . S
H4699 C4693 0.959 . S
H4700 C4693 0.961 . S
H4701 C4693 0.960 . S
H4702 C4694 0.930 . S
H4703 C4695 0.929 . S
H4704 C4712 0.929 . S
H4705 C4714 0.930 . S
H4706 C4716 0.930 . S
H4707 C4719 0.929 . S
H4708 C4722 0.930 . S
H4709 C4724 0.960 . S
H4710 C4724 0.960 . S
H4711 C4724 0.960 . S
C4712 H4704 0.929 . S
C4712 C4713 1.377 . S
C4712 C4714 1.384 . S
C4713 C4712 1.377 . S
C4713 C4719 1.390 . S
C4714 H4705 0.930 . S
C4714 C4712 1.384 . S
C4714 C4715 1.372 . S
C4715 C4714 1.372 . S
C4715 C4716 1.400 . S
C4715 C4720 1.490 . S
C4716 H4706 0.930 . S
C4716 C4715 1.400 . S
C4716 C4719 1.386 . S
H4717 C4733 0.930 . S
H4718 C4734 0.931 . S
C4719 H4707 0.929 . S
C4719 C4713 1.390 . S
C4719 C4716 1.386 . S
C4720 C4715 1.490 . S
C4720 C4722 1.395 . S
C4720 C4723 1.403 . S
H4721 C4727 0.930 . S
C4722 H4708 0.930 . S
C4722 C4720 1.395 . S
C4722 C4725 1.403 . S
C4723 C4720 1.403 . S
C4723 C4724 1.524 . S
C4723 C4727 1.400 . S
C4724 H4709 0.960 . S
C4724 H4710 0.960 . S
C4724 H4711 0.960 . S
C4724 C4723 1.524 . S
C4725 C4722 1.403 . S
C4725 C4726 1.392 . S
C4725 C4729 1.495 . S
C4726 C4725 1.392 . S
C4726 C4727 1.385 . S
C4726 C4728 1.478 . S
C4727 H4721 0.930 . S
C4727 C4723 1.400 . S
C4727 C4726 1.385 . S
C4728 C4726 1.478 . S
C4728 C4730 1.381 . S
C4728 C4734 1.383 . S
C4729 C4725 1.495 . S
C4729 H4735 0.959 . S
C4729 H4736 0.961 . S
C4729 H4737 0.960 . S
C4730 C4728 1.381 . S
C4730 C4731 1.394 . S
C4730 H4738 0.930 . S
C4731 C4730 1.394 . S
C4731 C4732 1.383 . S
C4731 H4739 0.929 . S
C4732 C4731 1.383 . S
C4732 C4733 1.377 . S
C4733 H4717 0.930 . S
C4733 C4732 1.377 . S
C4733 C4734 1.379 . S
C4734 H4718 0.931 . S
C4734 C4728 1.383 . S
C4734 C4733 1.379 . S
H4735 C4729 0.959 . S
H4736 C4729 0.961 . S
H4737 C4729 0.960 . S
H4738 C4730 0.930 . S
H4739 C4731 0.929 . S
H4740 C4748 0.929 . S
H4741 C4750 0.930 . S
H4742 C4752 0.930 . S
H4743 C4755 0.929 . S
H4744 C4758 0.930 . S
H4745 C4760 0.960 . S
H4746 C4760 0.960 . S
H4747 C4760 0.960 . S
C4748 H4740 0.929 . S
C4748 C4749 1.377 . S
C4748 C4750 1.384 . S
C4749 C4748 1.377 . S
C4749 C4755 1.390 . S
C4750 H4741 0.930 . S
C4750 C4748 1.384 . S
C4750 C4751 1.372 . S
C4751 C4750 1.372 . S
C4751 C4752 1.400 . S
C4751 C4756 1.490 . S
C4752 H4742 0.930 . S
C4752 C4751 1.400 . S
C4752 C4755 1.386 . S
H4753 C4769 0.930 . S
H4754 C4770 0.931 . S
C4755 H4743 0.929 . S
C4755 C4749 1.390 . S
C4755 C4752 1.386 . S
C4756 C4751 1.490 . S
C4756 C4758 1.395 . S
C4756 C4759 1.403 . S
H4757 C4763 0.930 . S
C4758 H4744 0.930 . S
C4758 C4756 1.395 . S
C4758 C4761 1.403 . S
C4759 C4756 1.403 . S
C4759 C4760 1.524 . S
C4759 C4763 1.400 . S
C4760 H4745 0.960 . S
C4760 H4746 0.960 . S
C4760 H4747 0.960 . S
C4760 C4759 1.524 . S
C4761 C4758 1.403 . S
C4761 C4762 1.392 . S
C4761 C4765 1.495 . S
C4762 C4761 1.392 . S
C4762 C4763 1.385 . S
C4762 C4764 1.478 . S
C4763 H4757 0.930 . S
C4763 C4759 1.400 . S
C4763 C4762 1.385 . S
C4764 C4762 1.478 . S
C4764 C4766 1.381 . S
C4764 C4770 1.383 . S
C4765 C4761 1.495 . S
C4765 H4771 0.959 . S
C4765 H4772 0.961 . S
C4765 H4773 0.960 . S
C4766 C4764 1.381 . S
C4766 C4767 1.394 . S
C4766 H4774 0.930 . S
C4767 C4766 1.394 . S
C4767 C4768 1.383 . S
C4767 H4775 0.929 . S
C4768 C4767 1.383 . S
C4768 C4769 1.377 . S
C4769 H4753 0.930 . S
C4769 C4768 1.377 . S
C4769 C4770 1.379 . S
C4770 H4754 0.931 . S
C4770 C4764 1.383 . S
C4770 C4769 1.379 . S
H4771 C4765 0.959 . S
H4772 C4765 0.961 . S
H4773 C4765 0.960 . S
H4774 C4766 0.930 . S
H4775 C4767 0.929 . S
H4776 C4784 0.929 . S
H4777 C4786 0.930 . S
H4778 C4788 0.930 . S
H4779 C4791 0.929 . S
H4780 C4794 0.930 . S
H4781 C4796 0.960 . S
H4782 C4796 0.960 . S
H4783 C4796 0.960 . S
C4784 H4776 0.929 . S
C4784 C4785 1.377 . S
C4784 C4786 1.384 . S
C4785 C4784 1.377 . S
C4785 C4791 1.390 . S
C4786 H4777 0.930 . S
C4786 C4784 1.384 . S
C4786 C4787 1.372 . S
C4787 C4786 1.372 . S
C4787 C4788 1.400 . S
C4787 C4792 1.490 . S
C4788 H4778 0.930 . S
C4788 C4787 1.400 . S
C4788 C4791 1.386 . S
H4789 C4805 0.930 . S
H4790 C4806 0.931 . S
C4791 H4779 0.929 . S
C4791 C4785 1.390 . S
C4791 C4788 1.386 . S
C4792 C4787 1.490 . S
C4792 C4794 1.395 . S
C4792 C4795 1.403 . S
H4793 C4799 0.930 . S
C4794 H4780 0.930 . S
C4794 C4792 1.395 . S
C4794 C4797 1.403 . S
C4795 C4792 1.403 . S
C4795 C4796 1.524 . S
C4795 C4799 1.400 . S
C4796 H4781 0.960 . S
C4796 H4782 0.960 . S
C4796 H4783 0.960 . S
C4796 C4795 1.524 . S
C4797 C4794 1.403 . S
C4797 C4798 1.392 . S
C4797 C4801 1.495 . S
C4798 C4797 1.392 . S
C4798 C4799 1.385 . S
C4798 C4800 1.478 . S
C4799 H4793 0.930 . S
C4799 C4795 1.400 . S
C4799 C4798 1.385 . S
C4800 C4798 1.478 . S
C4800 C4802 1.381 . S
C4800 C4806 1.383 1_655 S
C4801 C4797 1.495 . S
C4801 H4807 0.959 . S
C4801 H4808 0.961 . S
C4801 H4809 0.960 . S
C4802 C4800 1.381 . S
C4802 C4803 1.394 . S
C4802 H4810 0.930 . S
C4803 C4802 1.394 . S
C4803 C4804 1.383 1_655 S
C4803 H4811 0.929 . S
C4804 C4803 1.383 1_455 S
C4804 C4805 1.377 . S
C4805 H4789 0.930 . S
C4805 C4804 1.377 . S
C4805 C4806 1.379 . S
C4806 H4790 0.931 . S
C4806 C4800 1.383 1_455 S
C4806 C4805 1.379 . S
H4807 C4801 0.959 . S
H4808 C4801 0.961 . S
H4809 C4801 0.960 . S
H4810 C4802 0.930 . S
H4811 C4803 0.929 . S
H4812 C4820 0.929 . S
H4813 C4822 0.930 . S
H4814 C4824 0.930 . S
H4815 C4827 0.929 . S
H4816 C4830 0.930 . S
H4817 C4832 0.960 . S
H4818 C4832 0.960 . S
H4819 C4832 0.960 . S
C4820 H4812 0.929 . S
C4820 C4821 1.377 . S
C4820 C4822 1.384 . S
C4821 C4820 1.377 . S
C4821 C4827 1.390 . S
C4822 H4813 0.930 . S
C4822 C4820 1.384 . S
C4822 C4823 1.372 . S
C4823 C4822 1.372 . S
C4823 C4824 1.400 . S
C4823 C4828 1.490 . S
C4824 H4814 0.930 . S
C4824 C4823 1.400 . S
C4824 C4827 1.386 . S
H4825 C4841 0.930 . S
H4826 C4842 0.931 . S
C4827 H4815 0.929 . S
C4827 C4821 1.390 . S
C4827 C4824 1.386 . S
C4828 C4823 1.490 . S
C4828 C4830 1.395 . S
C4828 C4831 1.403 . S
H4829 C4835 0.930 . S
C4830 H4816 0.930 . S
C4830 C4828 1.395 . S
C4830 C4833 1.403 . S
C4831 C4828 1.403 . S
C4831 C4832 1.524 . S
C4831 C4835 1.400 . S
C4832 H4817 0.960 . S
C4832 H4818 0.960 . S
C4832 H4819 0.960 . S
C4832 C4831 1.524 . S
C4833 C4830 1.403 . S
C4833 C4834 1.392 . S
C4833 C4837 1.495 . S
C4834 C4833 1.392 . S
C4834 C4835 1.385 . S
C4834 C4836 1.478 . S
C4835 H4829 0.930 . S
C4835 C4831 1.400 . S
C4835 C4834 1.385 . S
C4836 C4834 1.478 . S
C4836 C4838 1.381 . S
C4836 C4842 1.383 . S
C4837 C4833 1.495 . S
C4837 H4843 0.959 . S
C4837 H4844 0.961 . S
C4837 H4845 0.960 . S
C4838 C4836 1.381 . S
C4838 C4839 1.394 . S
C4838 H4846 0.930 . S
C4839 C4838 1.394 . S
C4839 C4840 1.383 . S
C4839 H4847 0.929 . S
C4840 C4839 1.383 . S
C4840 C4841 1.377 . S
C4841 H4825 0.930 . S
C4841 C4840 1.377 . S
C4841 C4842 1.379 . S
C4842 H4826 0.931 . S
C4842 C4836 1.383 . S
C4842 C4841 1.379 . S
H4843 C4837 0.959 . S
H4844 C4837 0.961 . S
H4845 C4837 0.960 . S
H4846 C4838 0.930 . S
H4847 C4839 0.929 . S
H4848 C4856 0.929 . S
H4849 C4858 0.930 . S
H4850 C4860 0.930 . S
H4851 C4863 0.929 . S
H4852 C4866 0.930 . S
H4853 C4868 0.960 . S
H4854 C4868 0.960 . S
H4855 C4868 0.960 . S
C4856 H4848 0.929 . S
C4856 C4857 1.377 . S
C4856 C4858 1.384 . S
C4857 C4856 1.377 . S
C4857 C4863 1.390 . S
C4858 H4849 0.930 . S
C4858 C4856 1.384 . S
C4858 C4859 1.372 . S
C4859 C4858 1.372 . S
C4859 C4860 1.400 . S
C4859 C4864 1.490 . S
C4860 H4850 0.930 . S
C4860 C4859 1.400 . S
C4860 C4863 1.386 . S
H4861 C4877 0.930 . S
H4862 C4878 0.931 . S
C4863 H4851 0.929 . S
C4863 C4857 1.390 . S
C4863 C4860 1.386 . S
C4864 C4859 1.490 . S
C4864 C4866 1.395 . S
C4864 C4867 1.403 . S
H4865 C4871 0.930 . S
C4866 H4852 0.930 . S
C4866 C4864 1.395 . S
C4866 C4869 1.403 . S
C4867 C4864 1.403 . S
C4867 C4868 1.524 . S
C4867 C4871 1.400 . S
C4868 H4853 0.960 . S
C4868 H4854 0.960 . S
C4868 H4855 0.960 . S
C4868 C4867 1.524 . S
C4869 C4866 1.403 . S
C4869 C4870 1.392 . S
C4869 C4873 1.495 . S
C4870 C4869 1.392 . S
C4870 C4871 1.385 . S
C4870 C4872 1.478 . S
C4871 H4865 0.930 . S
C4871 C4867 1.400 . S
C4871 C4870 1.385 . S
C4872 C4870 1.478 . S
C4872 C4874 1.381 . S
C4872 C4878 1.383 . S
C4873 C4869 1.495 . S
C4873 H4879 0.959 . S
C4873 H4880 0.961 . S
C4873 H4881 0.960 . S
C4874 C4872 1.381 . S
C4874 C4875 1.394 . S
C4874 H4882 0.930 . S
C4875 C4874 1.394 . S
C4875 C4876 1.383 . S
C4875 H4883 0.929 . S
C4876 C4875 1.383 . S
C4876 C4877 1.377 . S
C4877 H4861 0.930 . S
C4877 C4876 1.377 . S
C4877 C4878 1.379 . S
C4878 H4862 0.931 . S
C4878 C4872 1.383 . S
C4878 C4877 1.379 . S
H4879 C4873 0.959 . S
H4880 C4873 0.961 . S
H4881 C4873 0.960 . S
H4882 C4874 0.930 . S
H4883 C4875 0.929 . S
H4884 C4892 0.929 . S
H4885 C4894 0.930 . S
H4886 C4896 0.930 . S
H4887 C4899 0.929 . S
H4888 C4902 0.930 . S
H4889 C4904 1.001 . S
H4890 C4904 0.960 . S
H4891 C4904 0.960 . S
C4892 H4884 0.929 . S
C4892 C4893 1.377 . S
C4892 C4894 1.384 . S
C4893 C4892 1.377 . S
C4893 C4899 1.390 . S
C4894 H4885 0.930 . S
C4894 C4892 1.384 . S
C4894 C4895 1.372 . S
C4895 C4894 1.372 . S
C4895 C4896 1.400 . S
C4895 C4900 1.490 . S
C4896 H4886 0.930 . S
C4896 C4895 1.400 . S
C4896 C4899 1.386 . S
H4897 C4913 0.930 . S
H4898 C4914 0.931 . S
C4899 H4887 0.929 . S
C4899 C4893 1.390 . S
C4899 C4896 1.386 . S
C4900 C4895 1.490 . S
C4900 C4902 1.395 . S
C4900 C4903 1.403 . S
H4901 C4907 0.930 . S
C4902 H4888 0.930 . S
C4902 C4900 1.395 . S
C4902 C4905 1.403 . S
C4903 C4900 1.403 . S
C4903 C4904 1.524 . S
C4903 C4907 1.400 . S
C4904 H4889 1.001 . S
C4904 H4890 0.960 . S
C4904 H4891 0.960 . S
C4904 C4903 1.524 . S
C4905 C4902 1.403 . S
C4905 C4906 1.392 . S
C4905 C4909 1.495 . S
C4906 C4905 1.392 . S
C4906 C4907 1.385 . S
C4906 C4908 1.478 . S
C4907 H4901 0.930 . S
C4907 C4903 1.400 . S
C4907 C4906 1.385 . S
C4908 C4906 1.478 . S
C4908 C4910 1.381 . S
C4908 C4914 1.383 . S
C4909 C4905 1.495 . S
C4909 H4915 0.959 . S
C4909 H4916 0.961 . S
C4909 H4917 0.960 . S
C4910 C4908 1.381 . S
C4910 C4911 1.394 . S
C4910 H4918 0.930 . S
C4911 C4910 1.394 . S
C4911 C4912 1.383 1_565 S
C4911 H4919 0.929 . S
C4912 C4911 1.383 1_545 S
C4912 C4913 1.377 . S
C4913 H4897 0.930 . S
C4913 C4912 1.377 . S
C4913 C4914 1.379 1_545 S
C4914 H4898 0.931 . S
C4914 C4908 1.383 . S
C4914 C4913 1.379 1_565 S
H4915 C4909 0.959 . S
H4916 C4909 0.961 . S
H4917 C4909 0.960 . S
H4918 C4910 0.930 . S
H4919 C4911 0.929 . S
H4920 C4928 0.929 . S
H4921 C4930 0.930 . S
H4922 C4932 0.930 . S
H4923 C4935 0.929 . S
H4924 C4938 0.930 . S
H4925 C4940 0.960 . S
H4926 C4940 0.960 . S
H4927 C4940 0.960 . S
C4928 H4920 0.929 . S
C4928 C4929 1.377 . S
C4928 C4930 1.384 . S
C4929 C4928 1.377 . S
C4929 C4935 1.390 . S
C4930 H4921 0.930 . S
C4930 C4928 1.384 . S
C4930 C4931 1.372 . S
C4931 C4930 1.372 . S
C4931 C4932 1.400 . S
C4931 C4936 1.490 . S
C4932 H4922 0.930 . S
C4932 C4931 1.400 . S
C4932 C4935 1.386 . S
H4933 C4949 0.930 . S
H4934 C4950 0.931 . S
C4935 H4923 0.929 . S
C4935 C4929 1.390 . S
C4935 C4932 1.386 . S
C4936 C4931 1.490 . S
C4936 C4938 1.395 . S
C4936 C4939 1.403 . S
H4937 C4943 0.930 . S
C4938 H4924 0.930 . S
C4938 C4936 1.395 . S
C4938 C4941 1.403 . S
C4939 C4936 1.403 . S
C4939 C4940 1.524 . S
C4939 C4943 1.400 . S
C4940 H4925 0.960 . S
C4940 H4926 0.960 . S
C4940 H4927 0.960 . S
C4940 C4939 1.524 . S
C4941 C4938 1.403 . S
C4941 C4942 1.392 . S
C4941 C4945 1.495 . S
C4942 C4941 1.392 . S
C4942 C4943 1.385 . S
C4942 C4944 1.478 . S
C4943 H4937 0.930 . S
C4943 C4939 1.400 . S
C4943 C4942 1.385 . S
C4944 C4942 1.478 . S
C4944 C4946 1.381 . S
C4944 C4950 1.383 . S
C4945 C4941 1.495 . S
C4945 H4951 0.959 . S
C4945 H4952 0.961 . S
C4945 H4953 0.960 . S
C4946 C4944 1.381 . S
C4946 C4947 1.394 . S
C4946 H4954 0.930 . S
C4947 C4946 1.394 . S
C4947 C4948 1.383 . S
C4947 H4955 0.929 . S
C4948 C4947 1.383 . S
C4948 C4949 1.377 . S
C4949 H4933 0.930 . S
C4949 C4948 1.377 . S
C4949 C4950 1.379 . S
C4950 H4934 0.931 . S
C4950 C4944 1.383 . S
C4950 C4949 1.379 . S
H4951 C4945 0.959 . S
H4952 C4945 0.961 . S
H4953 C4945 0.960 . S
H4954 C4946 0.930 . S
H4955 C4947 0.929 . S
H4956 C4964 0.929 . S
H4957 C4966 0.930 . S
H4958 C4968 0.930 1_556 S
H4959 C4971 0.929 1_556 S
H4960 C4974 0.930 . S
H4961 C4976 0.960 . S
H4962 C4976 0.960 . S
H4963 C4976 0.960 . S
C4964 H4956 0.929 . S
C4964 C4965 1.377 . S
C4964 C4966 1.384 . S
C4965 C4964 1.377 . S
C4965 C4971 1.390 . S
C4966 H4957 0.930 . S
C4966 C4964 1.384 . S
C4966 C4967 1.372 . S
C4967 C4966 1.372 . S
C4967 C4968 1.400 . S
C4967 C4972 1.490 . S
C4968 H4958 0.930 1_554 S
C4968 C4967 1.400 . S
C4968 C4971 1.386 . S
H4969 C4985 0.930 1_556 S
H4970 C4986 0.931 1_556 S
C4971 H4959 0.929 1_554 S
C4971 C4965 1.390 . S
C4971 C4968 1.386 . S
C4972 C4967 1.490 . S
C4972 C4974 1.395 . S
C4972 C4975 1.403 . S
H4973 C4979 0.930 . S
C4974 H4960 0.930 . S
C4974 C4972 1.395 . S
C4974 C4977 1.403 . S
C4975 C4972 1.403 . S
C4975 C4976 1.524 . S
C4975 C4979 1.400 . S
C4976 H4961 0.960 . S
C4976 H4962 0.960 . S
C4976 H4963 0.960 . S
C4976 C4975 1.524 . S
C4977 C4974 1.403 . S
C4977 C4978 1.392 . S
C4977 C4981 1.495 . S
C4978 C4977 1.392 . S
C4978 C4979 1.385 . S
C4978 C4980 1.478 . S
C4979 H4973 0.930 . S
C4979 C4975 1.400 . S
C4979 C4978 1.385 . S
C4980 C4978 1.478 . S
C4980 C4982 1.381 . S
C4980 C4986 1.383 . S
C4981 C4977 1.495 . S
C4981 H4987 0.959 . S
C4981 H4988 0.961 1_554 S
C4981 H4989 0.960 . S
C4982 C4980 1.381 . S
C4982 C4983 1.394 . S
C4982 H4990 0.930 . S
C4983 C4982 1.394 . S
C4983 C4984 1.383 . S
C4983 H4991 0.929 . S
C4984 C4983 1.383 . S
C4984 C4985 1.377 . S
C4985 H4969 0.930 1_554 S
C4985 C4984 1.377 . S
C4985 C4986 1.379 . S
C4986 H4970 0.931 1_554 S
C4986 C4980 1.383 . S
C4986 C4985 1.379 . S
H4987 C4981 0.959 . S
H4988 C4981 0.961 1_556 S
H4989 C4981 0.960 . S
H4990 C4982 0.930 . S
H4991 C4983 0.929 . S
H4992 C5000 0.929 . S
H4993 C5002 0.930 . S
H4994 C5004 0.930 . S
H4995 C5007 0.929 . S
H4996 C5010 0.930 . S
H4997 C5012 0.960 . S
H4998 C5012 0.960 . S
H4999 C5012 0.960 . S
C5000 H4992 0.929 . S
C5000 C5001 1.377 . S
C5000 C5002 1.384 . S
C5001 C5000 1.377 . S
C5001 C5007 1.390 . S
C5002 H4993 0.930 . S
C5002 C5000 1.384 . S
C5002 C5003 1.372 . S
C5003 C5002 1.372 . S
C5003 C5004 1.400 . S
C5003 C5008 1.490 . S
C5004 H4994 0.930 . S
C5004 C5003 1.400 . S
C5004 C5007 1.386 . S
H5005 C5021 0.930 . S
H5006 C5022 0.931 . S
C5007 H4995 0.929 . S
C5007 C5001 1.390 . S
C5007 C5004 1.386 . S
C5008 C5003 1.490 . S
C5008 C5010 1.395 . S
C5008 C5011 1.403 . S
H5009 C5015 0.930 . S
C5010 H4996 0.930 . S
C5010 C5008 1.395 . S
C5010 C5013 1.403 . S
C5011 C5008 1.403 . S
C5011 C5012 1.524 . S
C5011 C5015 1.400 . S
C5012 H4997 0.960 . S
C5012 H4998 0.960 . S
C5012 H4999 0.960 . S
C5012 C5011 1.524 . S
C5013 C5010 1.403 . S
C5013 C5014 1.392 . S
C5013 C5017 1.495 . S
C5014 C5013 1.392 . S
C5014 C5015 1.385 . S
C5014 C5016 1.478 . S
C5015 H5009 0.930 . S
C5015 C5011 1.400 . S
C5015 C5014 1.385 . S
C5016 C5014 1.478 . S
C5016 C5018 1.381 . S
C5016 C5022 1.383 . S
C5017 C5013 1.495 . S
C5017 H5023 0.959 . S
C5017 H5024 0.961 . S
C5017 H5025 0.960 . S
C5018 C5016 1.381 . S
C5018 C5019 1.394 . S
C5018 H5026 0.930 . S
C5019 C5018 1.394 . S
C5019 C5020 1.383 . S
C5019 H5027 0.929 . S
C5020 C5019 1.383 . S
C5020 C5021 1.377 . S
C5021 H5005 0.930 . S
C5021 C5020 1.377 . S
C5021 C5022 1.379 . S
C5022 H5006 0.931 . S
C5022 C5016 1.383 . S
C5022 C5021 1.379 . S
H5023 C5017 0.959 . S
H5024 C5017 0.961 . S
H5025 C5017 0.960 . S
H5026 C5018 0.930 . S
H5027 C5019 0.929 . S
H5028 C5036 0.929 . S
H5029 C5038 0.930 . S
H5030 C5040 0.930 . S
H5031 C5043 0.929 . S
H5032 C5046 0.930 . S
H5033 C5048 0.960 . S
H5034 C5048 0.931 1_556 S
H5035 C5048 0.960 . S
C5036 H5028 0.929 . S
C5036 C5037 1.377 . S
C5036 C5038 1.384 . S
C5037 C5036 1.377 . S
C5037 C5043 1.390 . S
C5038 H5029 0.930 . S
C5038 C5036 1.384 . S
C5038 C5039 1.372 . S
C5039 C5038 1.372 . S
C5039 C5040 1.400 . S
C5039 C5044 1.490 . S
C5040 H5030 0.930 . S
C5040 C5039 1.400 . S
C5040 C5043 1.386 . S
H5041 C5057 0.930 . S
H5042 C5058 0.931 . S
C5043 H5031 0.929 . S
C5043 C5037 1.390 . S
C5043 C5040 1.386 . S
C5044 C5039 1.490 . S
C5044 C5046 1.395 . S
C5044 C5047 1.403 . S
H5045 C5051 0.930 . S
C5046 H5032 0.930 . S
C5046 C5044 1.395 . S
C5046 C5049 1.403 . S
C5047 C5044 1.403 . S
C5047 C5048 1.524 . S
C5047 C5051 1.400 . S
C5048 H5033 0.960 . S
C5048 H5034 0.931 1_554 S
C5048 H5035 0.960 . S
C5048 C5047 1.524 . S
C5049 C5046 1.403 . S
C5049 C5050 1.392 . S
C5049 C5053 1.495 . S
C5050 C5049 1.392 . S
C5050 C5051 1.385 . S
C5050 C5052 1.478 . S
C5051 H5045 0.930 . S
C5051 C5047 1.400 . S
C5051 C5050 1.385 . S
C5052 C5050 1.478 . S
C5052 C5054 1.381 . S
C5052 C5058 1.383 . S
C5053 C5049 1.495 . S
C5053 H5059 0.959 . S
C5053 H5060 0.961 . S
C5053 H5061 0.960 . S
C5054 C5052 1.381 . S
C5054 C5055 1.382 1_554 S
C5054 H5062 0.930 1_554 S
C5055 C5054 1.382 1_556 S
C5055 C5056 1.371 1_556 S
C5055 H5063 0.956 . S
C5056 C5055 1.371 1_554 S
C5056 C5057 1.377 . S
C5057 H5041 0.930 . S
C5057 C5056 1.377 . S
C5057 C5058 1.379 . S
C5058 H5042 0.931 . S
C5058 C5052 1.383 . S
C5058 C5057 1.379 . S
H5059 C5053 0.959 . S
H5060 C5053 0.961 . S
H5061 C5053 0.960 . S
H5062 C5054 0.930 1_556 S
H5063 C5055 0.956 . S
H5064 C5072 0.929 . S
H5065 C5074 0.930 . S
H5066 C5076 0.930 . S
H5067 C5079 0.928 1_545 S
H5068 C5082 0.930 . S
H5069 C5084 0.960 . S
H5070 C5084 0.960 . S
H5071 C5084 0.960 . S
C5072 H5064 0.929 . S
C5072 C5073 1.377 . S
C5072 C5074 1.384 1_545 S
C5073 C5072 1.377 . S
C5073 C5079 1.342 1_545 S
C5074 H5065 0.930 . S
C5074 C5072 1.384 1_565 S
C5074 C5075 1.372 . S
C5075 C5074 1.372 . S
C5075 C5076 1.400 . S
C5075 C5080 1.490 . S
C5076 H5066 0.930 . S
C5076 C5075 1.400 . S
C5076 C5079 1.437 . S
H5077 C5093 0.930 . S
H5078 C5094 0.931 . S
C5079 H5067 0.928 1_565 S
C5079 C5073 1.342 1_565 S
C5079 C5076 1.437 . S
C5080 C5075 1.490 . S
C5080 C5082 1.395 . S
C5080 C5083 1.403 . S
H5081 C5087 0.930 . S
C5082 H5068 0.930 . S
C5082 C5080 1.395 . S
C5082 C5085 1.403 . S
C5083 C5080 1.403 . S
C5083 C5084 1.524 . S
C5083 C5087 1.400 . S
C5084 H5069 0.960 . S
C5084 H5070 0.960 . S
C5084 H5071 0.960 . S
C5084 C5083 1.524 . S
C5085 C5082 1.403 . S
C5085 C5086 1.392 . S
C5085 C5089 1.495 . S
C5086 C5085 1.392 . S
C5086 C5087 1.385 . S
C5086 C5088 1.478 . S
C5087 H5081 0.930 . S
C5087 C5083 1.400 . S
C5087 C5086 1.385 . S
C5088 C5086 1.478 . S
C5088 C5090 1.381 . S
C5088 C5094 1.383 . S
C5089 C5085 1.495 . S
C5089 H5095 0.959 . S
C5089 H5096 0.961 . S
C5089 H5097 0.960 . S
C5090 C5088 1.381 . S
C5090 C5091 1.394 . S
C5090 H5098 0.930 . S
C5091 C5090 1.394 . S
C5091 C5092 1.383 . S
C5091 H5099 0.929 . S
C5092 C5091 1.383 . S
C5092 C5093 1.377 . S
C5093 H5077 0.930 . S
C5093 C5092 1.377 . S
C5093 C5094 1.379 . S
C5094 H5078 0.931 . S
C5094 C5088 1.383 . S
C5094 C5093 1.379 . S
H5095 C5089 0.959 . S
H5096 C5089 0.961 . S
H5097 C5089 0.960 . S
H5098 C5090 0.930 . S
H5099 C5091 0.929 . S
H5100 C5108 0.929 . S
H5101 C5110 0.930 . S
H5102 C5112 0.930 . S
H5103 C5115 0.929 . S
H5104 C5118 0.930 . S
H5105 C5120 0.960 . S
H5106 C5120 0.960 . S
H5107 C5120 0.960 . S
C5108 H5100 0.929 . S
C5108 C5109 1.377 . S
C5108 C5110 1.384 . S
C5109 C5108 1.377 . S
C5109 C5115 1.390 . S
C5110 H5101 0.930 . S
C5110 C5108 1.384 . S
C5110 C5111 1.372 . S
C5111 C5110 1.372 . S
C5111 C5112 1.400 . S
C5111 C5116 1.490 . S
C5112 H5102 0.930 . S
C5112 C5111 1.400 . S
C5112 C5115 1.386 . S
H5113 C5129 0.930 . S
H5114 C5130 0.931 . S
C5115 H5103 0.929 . S
C5115 C5109 1.390 . S
C5115 C5112 1.386 . S
C5116 C5111 1.490 . S
C5116 C5118 1.395 . S
C5116 C5119 1.403 . S
H5117 C5123 0.930 . S
C5118 H5104 0.930 . S
C5118 C5116 1.395 . S
C5118 C5121 1.403 . S
C5119 C5116 1.403 . S
C5119 C5120 1.524 . S
C5119 C5123 1.400 . S
C5120 H5105 0.960 . S
C5120 H5106 0.960 . S
C5120 H5107 0.960 . S
C5120 C5119 1.524 . S
C5121 C5118 1.403 . S
C5121 C5122 1.392 . S
C5121 C5125 1.495 . S
C5122 C5121 1.392 . S
C5122 C5123 1.385 . S
C5122 C5124 1.478 . S
C5123 H5117 0.930 . S
C5123 C5119 1.400 . S
C5123 C5122 1.385 . S
C5124 C5122 1.478 . S
C5124 C5126 1.381 . S
C5124 C5130 1.383 . S
C5125 C5121 1.495 . S
C5125 H5131 0.959 . S
C5125 H5132 0.961 . S
C5125 H5133 0.960 . S
C5126 C5124 1.381 . S
C5126 C5127 1.394 . S
C5126 H5134 0.930 . S
C5127 C5126 1.394 . S
C5127 C5128 1.383 . S
C5127 H5135 0.929 . S
C5128 C5127 1.383 . S
C5128 C5129 1.377 . S
C5129 H5113 0.930 . S
C5129 C5128 1.377 . S
C5129 C5130 1.379 . S
C5130 H5114 0.931 . S
C5130 C5124 1.383 . S
C5130 C5129 1.379 . S
H5131 C5125 0.959 . S
H5132 C5125 0.961 . S
H5133 C5125 0.960 . S
H5134 C5126 0.930 . S
H5135 C5127 0.929 . S
C1689 C109 1.495 . S
C1708 C392 1.421 . S
C1725 C61 1.892 . S
C1744 C483 2.053 . S
C1761 C74 1.413 . S
C1780 C560 1.394 1_565 S
C1816 C658 1.594 . S
C1797 C96 1.729 . S
C1833 C25 1.488 1_455 S
C1852 C742 1.411 . S
C1888 C814 0.793 . S
C1869 C40 0.914 . S
C1924 C903 0.718 . S
C1905 C46 0.717 . S
C1941 C5 0.968 . S
C1960 C980 1.156 . S
C1996 C399 1.803 . S
C1977 C229 1.665 . S
C2013 C249 0.512 . S
C2032 C490 0.619 . S
C2068 C567 0.983 . S
C2049 C271 0.889 . S
C2104 C644 1.629 . S
C2085 C172 1.644 1_556 S
C2121 C236 1.947 . S
C2140 C728 1.768 . S
C2176 C830 1.220 . S
C2157 C242 1.295 . S
C2212 C910 0.623 . S
C2193 C278 0.645 . S
C2248 C987 1.373 . S
C2229 C179 1.449 . S
C2284 C406 1.341 . S
C2265 C159 1.232 . S
C2301 C285 1.710 . S
C2320 C1071 1.861 . S
C2356 C1159 2.038 . S
C2337 C333 2.164 . S
C2392 C1232 0.548 . S
C2373 C320 0.231 . S
C2409 C123 0.551 . S
C2428 C994 0.645 . S
C2445 C138 1.446 . S
C2464 C574 1.377 . S
C2481 C326 2.409 . S
C2500 C1323 2.354 . S
C2536 C1400 0.736 . S
C2517 C298 0.700 . S
C2572 C403 1.362 1_565 S
C2553 C67 1.428 . S
C2608 C1418 2.005 . S
C2589 C110 2.064 . S
C2625 C88 1.415 . S
C2644 C571 1.345 . S
C2661 C75 1.364 . S
C2680 C1318 1.458 . S
C2716 C730 1.393 . S
C2697 C11 1.436 . S
C2733 C47 0.806 . S
C2752 C1162 0.750 . S
C2788 C914 0.598 1_565 S
C2769 C32 0.625 . S
C2824 C1495 1.134 . S
C2805 C26 1.235 . S
C2860 C410 1.898 . S
C2841 C152 2.019 . S
C2896 C1402 0.616 . S
C2877 C319 0.496 . S
C2913 C124 0.989 . S
C2932 C578 0.974 . S
C2949 C284 1.699 . S
C2968 C1327 1.603 . S
C2985 C145 1.810 . S
C3004 C739 1.753 . S
C3040 C1155 1.150 . S
C3021 C312 1.161 . S
C3057 C117 0.678 . S
C3076 C898 0.540 . S
C3093 C291 1.306 . S
C3112 C1502 1.248 . S
C3129 C194 1.496 . S
C3148 C394 1.373 1_554 S
C3165 C180 1.898 . S
C3184 C1082 1.836 . S
C3201 C263 2.016 . S
C3220 C812 1.855 . S
C3237 C243 0.678 . S
C3256 C1243 0.369 . S
C3292 C1486 0.608 . S
C3273 C277 0.678 . S
C3309 C215 1.241 . S
C3328 C562 1.359 . S
C3364 C662 2.233 . S
C3345 C256 2.268 . S
C3400 C487 0.808 . S
C3381 C200 0.789 . S
C3417 C81 1.496 . S
C3436 C1568 1.399 . S
C3472 C1407 2.047 . S
C3453 C89 1.885 . S
C3489 C102 1.418 . S
C3508 C1652 1.333 . S
C3525 C68 1.729 . S
C3544 C1330 1.545 . S
C3561 C53 1.486 . S
C3580 C1078 1.437 . S
C3616 C1150 0.798 . S
C3597 C12 0.914 . S
C3652 C1239 0.675 . S
C3633 C18 0.711 . S
C3688 C1484 1.150 . S
C3669 C33 0.952 . S
C3724 C1575 1.817 . S
C3705 C257 1.669 . S
C3741 C193 0.500 . S
C3760 C1414 0.542 . S
C3796 C1659 1.006 . S
C3777 C201 0.906 . S
C3832 C1316 1.624 . S
C3813 C214 1.643 . S
C3868 C1064 1.778 . S
C3849 C264 1.950 . S
C3885 C186 1.291 . S
C3904 C1166 1.246 . S
C3940 C1246 0.743 . S
C3921 C208 0.642 . S
C3957 C221 1.447 . S
C3976 C1491 1.397 . S
C4012 C1582 1.314 . S
C3993 C313 1.239 . S
C4029 C131 1.696 . S
C4048 C735 1.817 . S
C4084 C823 2.054 . S
C4065 C151 2.170 . S
C4120 C896 0.513 . S
C4101 C166 0.237 . S
C4156 C1498 0.620 . S
C4137 C305 0.550 . S
C4173 C292 1.438 1_554 S
C4192 C1666 1.367 . S
C4228 C651 2.333 . S
C4209 C144 2.402 . S
C4264 C476 0.761 . S
C4245 C116 0.700 1_565 S
C4281 C95 1.424 . S
C4300 C1579 1.335 . S
C4336 C494 1.979 . S
C4317 C82 2.066 . S
C4353 C60 1.416 . S
C4372 C1663 1.339 . S
C4389 C103 1.372 . S
C4408 C646 1.490 . S
C4425 C39 1.432 . S
C4444 C1066 1.382 1_556 S
C4480 C826 0.884 . S
C4461 C19 0.823 . S
C4497 C4 0.628 . S
C4516 C1250 0.596 . S
C4533 C54 1.227 . S
C4552 C991 1.047 . S
C4588 C1586 1.889 . S
C4569 C334 2.018 . S
C4605 C165 0.515 . S
C4624 C478 0.551 . S
C4660 C1670 0.992 . S
C4641 C306 0.989 . S
C4677 C130 1.696 . S
C4696 C655 1.638 . S
C4713 C327 1.812 . S
C4732 C1075 1.756 . S
C4768 C819 1.067 . S
C4749 C158 1.166 . S
C4785 C299 0.710 . S
C4804 C1234 0.687 . S
C4840 C998 1.249 . S
C4821 C137 1.307 . S
C4876 C1570 1.420 . S
C4857 C250 1.495 . S
C4912 C746 1.807 1_655 S
C4893 C222 1.899 . S
C4929 C235 2.020 . S
C4948 C1148 1.888 . S
C4984 C907 0.362 . S
C4965 C187 0.679 . S
C5001 C207 0.675 . S
C5020 C982 0.597 . S
C5037 C173 1.243 . S
C5056 C1654 1.363 . S
C5092 C1334 2.241 . S
C5073 C228 2.262 . S
C5128 C1411 0.784 . S
C5109 C270 0.793 . S
