# Generated by pormake.
# Topology nia, (6,6)-cn, num edge types: 1
# Building blocks:
#     Node 0, Type 0, BuildingBlock: BETFEN_clean_sbu_0, # of connection points: 6
#     Node 1, Type 0, BuildingBlock: BETFEN_clean_sbu_0, # of connection points: 6
#     Node 2, Type 1, BuildingBlock: MIDCAF_clean_sbu_0, # of connection points: 6
#     Node 3, Type 1, BuildingBlock: MIDCAF_clean_sbu_0, # of connection points: 6
#     Edge 4, Type (0, 1), BuildingBlock: FUNLAD_clean_linker_0, # of connection points: 2
#     Edge 5, Type (0, 1), BuildingBlock: FUNLAD_clean_linker_0, # of connection points: 2
#     Edge 6, Type (0, 1), BuildingBlock: FUNLAD_clean_linker_0, # of connection points: 2
#     Edge 7, Type (0, 1), BuildingBlock: FUNLAD_clean_linker_0, # of connection points: 2
#     Edge 8, Type (0, 1), BuildingBlock: FUNLAD_clean_linker_0, # of connection points: 2
#     Edge 9, Type (0, 1), BuildingBlock: FUNLAD_clean_linker_0, # of connection points: 2
#     Edge 10, Type (0, 1), BuildingBlock: FUNLAD_clean_linker_0, # of connection points: 2
#     Edge 11, Type (0, 1), BuildingBlock: FUNLAD_clean_linker_0, # of connection points: 2
#     Edge 12, Type (0, 1), BuildingBlock: FUNLAD_clean_linker_0, # of connection points: 2
#     Edge 13, Type (0, 1), BuildingBlock: FUNLAD_clean_linker_0, # of connection points: 2
#     Edge 14, Type (0, 1), BuildingBlock: FUNLAD_clean_linker_0, # of connection points: 2
#     Edge 15, Type (0, 1), BuildingBlock: FUNLAD_clean_linker_0, # of connection points: 2
# Relax obj value: 0.214
# Max RMSD: 0.274
# Mean RMSD: 0.215
data_MOF--net-nia--node1-BETFEN_clean_sbu_0--node2-MIDCAF_clean_sbu_0--edge1-FUNLAD_clean_linker_0
_symmetry_space_group_name_H-M    P1
_symmetry_Int_Tables_number       1
_symmetry_cell_setting            triclinic
loop_
_symmetry_equiv_pos_as_xyz
'x, y, z'
_cell_length_a     32.102556
_cell_length_b     32.049942
_cell_length_c     37.764077
_cell_angle_alpha  90.456506
_cell_angle_beta   90.403299
_cell_angle_gamma 135.03234
loop_
_atom_site_label
_atom_site_type_symbol
_atom_site_fract_x
_atom_site_fract_y
_atom_site_fract_z
_atom_type_partial_charge
Pr0 Pr 0.98118 0.02626 1.00603 0.0
Pr1 Pr 0.04994 0.99024 0.03121 0.0
C2 C 0.90289 0.03357 0.99905 0.0
C3 C 0.89194 0.06297 0.97739 0.0
C4 C 0.92882 0.09927 0.94931 0.0
C5 C 0.91797 0.12746 0.92929 0.0
C6 C 0.86999 0.1197 0.93703 0.0
C7 C 0.83321 0.08303 0.96521 0.0
C8 C 0.84412 0.05496 0.98516 0.0
C9 C 0.09177 0.09806 0.97382 0.0
C10 C 0.07297 0.09106 0.07646 0.0
C11 C 0.10921 0.96033 0.03942 0.0
C12 C 0.12622 0.94084 0.06586 0.0
C13 C 0.15268 0.97047 0.09859 0.0
C14 C 0.16972 0.95145 0.12255 0.0
C15 C 0.16012 0.90228 0.11425 0.0
C16 C 0.13317 0.87263 0.08158 0.0
C17 C 0.11653 0.89179 0.05766 0.0
C18 C 0.94803 0.93926 0.06797 0.0
C19 C 0.97644 0.941 0.95334 0.0
O20 O 0.94845 0.06744 0.0208 0.0
O21 O 0.89651 0.99284 0.98315 0.0
O22 O 0.06864 0.0577 0.99555 0.0
O23 O 0.0565 0.10439 0.96801 0.0
O24 O 0.09922 0.07581 0.06428 0.0
O25 O 0.02259 0.06944 0.06271 0.0
O26 O 0.05325 0.92217 0.03018 0.0
O27 O 0.13473 0.01516 0.04145 0.0
O28 O 0.95512 0.94811 0.03512 0.0
O29 O 0.99271 0.95198 0.08261 0.0
O30 O 0.94823 0.95536 0.96272 0.0
O31 O 0.01981 0.9556 0.97265 0.0
H32 H 0.96598 0.10585 0.94296 0.0
H33 H 0.94685 0.15496 0.90761 0.0
H34 H 0.79655 0.07687 0.97235 0.0
H35 H 0.81538 0.02726 1.00686 0.0
H36 H 0.16041 0.00835 0.1056 0.0
H37 H 0.19007 0.97493 0.14761 0.0
H38 H 0.12608 0.83526 0.0741 0.0
H39 H 0.09648 0.86852 0.03249 0.0
Pr40 Pr 0.99625 0.04237 0.53239 0.0
Pr41 Pr 0.03324 0.98068 0.50855 0.0
C42 C 0.96721 0.10287 0.54054 0.0
C43 C 0.94296 0.11542 0.56663 0.0
C44 C 0.97255 0.14601 0.59872 0.0
C45 C 0.94855 0.15798 0.62244 0.0
C46 C 0.89444 0.13923 0.61459 0.0
C47 C 0.86515 0.10873 0.58247 0.0
C48 C 0.88924 0.09717 0.55876 0.0
C49 C 0.93434 0.93516 0.56562 0.0
C50 C 0.94553 0.96702 0.45554 0.0
C51 C 0.06328 0.92108 0.50004 0.0
C52 C 0.08223 0.90367 0.47355 0.0
C53 C 0.10951 0.93512 0.44219 0.0
C54 C 0.13082 0.91998 0.41866 0.0
C55 C 0.12504 0.87308 0.4261 0.0
C56 C 0.09628 0.84096 0.4572 0.0
C57 C 0.07511 0.85613 0.48063 0.0
C58 C 0.09506 0.08967 0.47697 0.0
C59 C 0.07982 0.05102 0.58668 0.0
O60 O 0.93082 0.0489 0.52772 0.0
O61 O 0.02082 0.12673 0.54571 0.0
O62 O 0.94795 0.94455 0.53332 0.0
O63 O 0.94822 0.9801 0.58093 0.0
O64 O 0.95883 0.93881 0.46688 0.0
O65 O 0.96416 0.01398 0.47273 0.0
O66 O 0.10101 0.97713 0.50887 0.0
O67 O 0.00883 0.89573 0.49777 0.0
O68 O 0.0817 0.07824 0.5091 0.0
O69 O 0.07944 0.04488 0.45998 0.0
O70 O 0.0688 0.0813 0.57541 0.0
O71 O 0.06172 0.00505 0.56856 0.0
H72 H 0.01413 0.16071 0.60552 0.0
H73 H 0.972 0.18136 0.64706 0.0
H74 H 0.82396 0.09463 0.57532 0.0
H75 H 0.86588 0.0741 0.53404 0.0
H76 H 0.11517 0.97187 0.43622 0.0
H77 H 0.15216 0.94523 0.39479 0.0
H78 H 0.09186 0.80526 0.46412 0.0
H79 H 0.05432 0.83151 0.50478 0.0
Zn80 Zn 0.34717 0.61994 0.20178 0.0
Zn81 Zn 0.41255 0.68503 0.33811 0.0
Zn82 Zn 0.38591 0.65328 0.26832 0.0
C83 C 0.51793 0.74633 0.29958 0.0
C84 C 0.34228 0.56274 0.33209 0.0
O85 O 0.34153 0.68056 0.25103 0.0
O86 O 0.31308 0.6518 0.19503 0.0
C87 C 0.47182 0.69652 0.20311 0.0
O88 O 0.48249 0.71679 0.2728 0.0
O89 O 0.49865 0.74089 0.33003 0.0
O90 O 0.36627 0.60331 0.35514 0.0
O91 O 0.34585 0.57375 0.29886 0.0
O92 O 0.42665 0.66362 0.18302 0.0
O93 O 0.46653 0.7007 0.23645 0.0
O94 O 0.32852 0.55674 0.26295 0.0
O95 O 0.29218 0.53412 0.20817 0.0
C96 C 0.29486 0.51842 0.23789 0.0
O97 O 0.35086 0.68964 0.28785 0.0
O98 O 0.37888 0.71767 0.34399 0.0
C99 C 0.31718 0.67741 0.22237 0.0
C100 C 0.35191 0.71199 0.3169 0.0
Zn101 Zn 0.68356 0.41101 0.8361 0.0
Zn102 Zn 0.6213 0.33579 0.70078 0.0
Zn103 Zn 0.64969 0.37466 0.76809 0.0
C104 C 0.69783 0.45983 0.70116 0.0
C105 C 0.51729 0.28421 0.7351 0.0
O106 O 0.68989 0.34526 0.79018 0.0
O107 O 0.71777 0.37931 0.84546 0.0
C108 C 0.73675 0.51043 0.79618 0.0
O109 O 0.69403 0.45287 0.73497 0.0
O110 O 0.67142 0.41603 0.68032 0.0
O111 O 0.5355 0.28444 0.7055 0.0
O112 O 0.55343 0.31481 0.76149 0.0
O113 O 0.73618 0.49613 0.82733 0.0
O114 O 0.70709 0.47128 0.77103 0.0
O115 O 0.56822 0.32919 0.79781 0.0
O116 O 0.60193 0.36577 0.85225 0.0
C117 C 0.55914 0.33248 0.83046 0.0
O118 O 0.68358 0.33545 0.753 0.0
O119 O 0.65092 0.29908 0.69845 0.0
C120 C 0.71297 0.3502 0.82008 0.0
C121 C 0.67985 0.30849 0.7256 0.0
C122 C 0.1434 0.822 0.14403 0.0
C123 C 0.17946 0.8825 0.13881 0.0
C124 C 0.16391 0.80261 0.16364 0.0
C125 C 0.2211 0.84345 0.17886 0.0
C126 C 0.25628 0.90404 0.17474 0.0
C127 C 0.23563 0.92343 0.15509 0.0
C128 C 0.24772 0.82453 0.19545 0.0
C129 C 0.21583 0.76929 0.20669 0.0
C130 C 0.24211 0.74646 0.21414 0.0
C131 C 0.20904 0.68745 0.20494 0.0
C132 C 0.23362 0.66518 0.20799 0.0
C133 C 0.2912 0.70098 0.22132 0.0
H134 H 0.32562 0.8274 0.2365 0.0
C135 C 0.32379 0.75935 0.23202 0.0
C136 C 0.2995 0.78212 0.22835 0.0
H137 H 0.36828 0.78754 0.24252 0.0
H138 H 0.09967 0.78938 0.13208 0.0
H139 H 0.13551 0.75552 0.16514 0.0
H140 H 0.30064 0.93651 0.18584 0.0
H141 H 0.26469 0.97037 0.15131 0.0
H142 H 0.29552 0.85626 0.19576 0.0
H143 H 0.16811 0.73729 0.20665 0.0
H144 H 0.16471 0.65903 0.19408 0.0
H145 H 0.20768 0.61992 0.19976 0.0
C146 C 0.14924 0.12524 0.63496 0.0
C147 C 0.11363 0.06837 0.62002 0.0
C148 C 0.18698 0.14342 0.66379 0.0
C149 C 0.18938 0.10471 0.67833 0.0
C150 C 0.15035 0.04658 0.6649 0.0
C151 C 0.11322 0.0287 0.63604 0.0
C152 C 0.23595 0.12387 0.704 0.0
C153 C 0.28387 0.18043 0.71345 0.0
C154 C 0.33926 0.19983 0.72657 0.0
C155 C 0.38104 0.25334 0.74575 0.0
C156 C 0.43834 0.27882 0.75152 0.0
C157 C 0.45479 0.25153 0.73759 0.0
H158 H 0.32502 0.13036 0.69925 0.0
C159 C 0.41225 0.19651 0.72031 0.0
C160 C 0.35506 0.17073 0.71498 0.0
H161 H 0.42418 0.17495 0.70912 0.0
H162 H 0.15 0.15659 0.6234 0.0
H163 H 0.21528 0.18829 0.67351 0.0
H164 H 0.15065 0.0155 0.67557 0.0
H165 H 0.08547 0.98415 0.62561 0.0
H166 H 0.23435 0.09026 0.712 0.0
H167 H 0.28581 0.21492 0.70804 0.0
H168 H 0.37024 0.27692 0.75467 0.0
H169 H 0.47077 0.3217 0.7646 0.0
C170 C 0.0712 0.14604 0.12296 0.0
C171 C 0.10046 0.13318 0.10682 0.0
C172 C 0.09852 0.18817 0.15037 0.0
C173 C 0.15577 0.2183 0.1623 0.0
C174 C 0.18432 0.20435 0.14673 0.0
C175 C 0.1569 0.16202 0.11947 0.0
C176 C 0.18983 0.26959 0.18728 0.0
C177 C 0.16494 0.27871 0.21032 0.0
C178 C 0.19833 0.33762 0.22676 0.0
C179 C 0.16852 0.35426 0.23259 0.0
C180 C 0.20008 0.41327 0.23968 0.0
C181 C 0.26177 0.45614 0.24185 0.0
H182 H 0.28422 0.36832 0.22938 0.0
C183 C 0.29137 0.43888 0.23929 0.0
C184 C 0.25987 0.37987 0.23232 0.0
H185 H 0.33911 0.47162 0.24024 0.0
H186 H 0.02764 0.12455 0.11393 0.0
H187 H 0.07558 0.19876 0.16084 0.0
H188 H 0.22864 0.22733 0.15511 0.0
H189 H 0.18071 0.15313 0.10772 0.0
H190 H 0.23728 0.30333 0.18408 0.0
H191 H 0.11747 0.24483 0.21347 0.0
H192 H 0.12114 0.32258 0.22878 0.0
H193 H 0.17662 0.42604 0.24104 0.0
C194 C 0.90348 0.20838 0.65487 0.0
C195 C 0.86856 0.15204 0.63921 0.0
C196 C 0.87767 0.22187 0.67504 0.0
C197 C 0.8162 0.17905 0.68 0.0
C198 C 0.78208 0.12194 0.66586 0.0
C199 C 0.80779 0.10863 0.64565 0.0
C200 C 0.78467 0.19197 0.6974 0.0
C201 C 0.80871 0.24656 0.70523 0.0
C202 C 0.77252 0.25807 0.71454 0.0
C203 C 0.79861 0.30997 0.73341 0.0
C204 C 0.7677 0.32544 0.73855 0.0
C205 C 0.71027 0.28936 0.72466 0.0
H206 H 0.6932 0.1822 0.68568 0.0
C207 C 0.6838 0.23702 0.70642 0.0
C208 C 0.7144 0.22145 0.70143 0.0
H209 H 0.63977 0.20878 0.69511 0.0
H210 H 0.95049 0.24276 0.65042 0.0
H211 H 0.90614 0.26611 0.68593 0.0
H212 H 0.73479 0.08778 0.6694 0.0
H213 H 0.77983 0.06446 0.63452 0.0
H214 H 0.73783 0.15441 0.70154 0.0
H215 H 0.85572 0.28482 0.70295 0.0
H216 H 0.84352 0.33936 0.74343 0.0
H217 H 0.7894 0.36656 0.75222 0.0
C218 C 0.84951 0.90477 0.06994 0.0
C219 C 0.89702 0.91926 0.0877 0.0
C220 C 0.80082 0.88462 0.08879 0.0
C221 C 0.7986 0.87837 0.12584 0.0
C222 C 0.84712 0.89484 0.1436 0.0
C223 C 0.89565 0.91473 0.12474 0.0
C224 C 0.74636 0.85438 0.14666 0.0
C225 C 0.6912 0.81467 0.13286 0.0
C226 C 0.63689 0.78543 0.15311 0.0
C227 C 0.5832 0.73211 0.1394 0.0
C228 C 0.53041 0.70337 0.15624 0.0
C229 C 0.52951 0.72726 0.18726 0.0
H230 H 0.67676 0.85139 0.1953 0.0
C231 C 0.58311 0.78072 0.20118 0.0
C232 C 0.63648 0.80958 0.18436 0.0
H233 H 0.58358 0.80125 0.22424 0.0
H234 H 0.84979 0.90867 0.04146 0.0
H235 H 0.76525 0.87437 0.07423 0.0
H236 H 0.84698 0.89112 0.1721 0.0
H237 H 0.93198 0.92624 0.13919 0.0
H238 H 0.75317 0.86603 0.17464 0.0
H239 H 0.68467 0.79946 0.10567 0.0
H240 H 0.58193 0.71244 0.1154 0.0
H241 H 0.48998 0.66221 0.14472 0.0
C242 C 0.89373 0.83355 0.56694 0.0
C243 C 0.90444 0.87958 0.58393 0.0
C244 C 0.86642 0.78165 0.58502 0.0
C245 C 0.84929 0.77494 0.62047 0.0
C246 C 0.85939 0.82079 0.63711 0.0
C247 C 0.88706 0.87269 0.61918 0.0
C248 C 0.81871 0.72012 0.64054 0.0
C249 C 0.82589 0.68409 0.63415 0.0
C250 C 0.79433 0.62804 0.65321 0.0
C251 C 0.7929 0.58696 0.6379 0.0
C252 C 0.7623 0.53284 0.65385 0.0
C253 C 0.73294 0.51871 0.68581 0.0
H254 H 0.76638 0.64468 0.69898 0.0
C255 C 0.7349 0.55983 0.70155 0.0
C256 C 0.76564 0.6142 0.68566 0.0
H257 H 0.71084 0.54903 0.72543 0.0
H258 H 0.90641 0.8376 0.53971 0.0
H259 H 0.85781 0.74663 0.57089 0.0
H260 H 0.84626 0.81668 0.66424 0.0
H261 H 0.8947 0.90743 0.63297 0.0
H262 H 0.79008 0.7102 0.66153 0.0
H263 H 0.85545 0.69526 0.61336 0.0
H264 H 0.81473 0.59628 0.61311 0.0
H265 H 0.76142 0.50183 0.64106 0.0
C266 C 0.12302 0.80091 0.39659 0.0
C267 C 0.15173 0.85958 0.40285 0.0
C268 C 0.15103 0.78846 0.3783 0.0
C269 C 0.2085 0.83454 0.36552 0.0
C270 C 0.23611 0.89301 0.37056 0.0
C271 C 0.20813 0.90544 0.38891 0.0
C272 C 0.24348 0.82431 0.35028 0.0
C273 C 0.22061 0.77109 0.33965 0.0
C274 C 0.25739 0.76008 0.33077 0.0
C275 C 0.23185 0.70879 0.31134 0.0
C276 C 0.26311 0.69384 0.30581 0.0
C277 C 0.32063 0.73006 0.3195 0.0
H278 H 0.33618 0.83516 0.36043 0.0
C279 C 0.34642 0.78147 0.33867 0.0
C280 C 0.31532 0.79643 0.34424 0.0
H281 H 0.39042 0.8096 0.35 0.0
H282 H 0.07925 0.76447 0.40658 0.0
H283 H 0.12814 0.74278 0.3757 0.0
H284 H 0.28044 0.92951 0.36128 0.0
H285 H 0.2319 0.95117 0.39354 0.0
H286 H 0.29071 0.86265 0.34874 0.0
H287 H 0.17318 0.73346 0.33797 0.0
H288 H 0.18711 0.67951 0.30105 0.0
H289 H 0.24171 0.65312 0.29173 0.0
C290 C 0.17419 0.10906 0.95646 0.0
C291 C 0.1475 0.12968 0.95536 0.0
C292 C 0.22622 0.13828 0.9381 0.0
C293 C 0.25279 0.18905 0.9186 0.0
C294 C 0.22637 0.20994 0.91799 0.0
C295 C 0.17387 0.18017 0.93583 0.0
C296 C 0.30988 0.22336 0.90058 0.0
C297 C 0.32728 0.19888 0.88675 0.0
C298 C 0.38631 0.23464 0.87093 0.0
C299 C 0.39392 0.20985 0.84416 0.0
C300 C 0.44982 0.24189 0.83022 0.0
C301 C 0.49917 0.29903 0.84314 0.0
H302 H 0.43223 0.31191 0.90503 0.0
C303 C 0.49158 0.32361 0.87002 0.0
C304 C 0.43589 0.29195 0.8837 0.0
H305 H 0.52897 0.36741 0.8807 0.0
H306 H 0.15466 0.07015 0.97133 0.0
H307 H 0.2462 0.12184 0.93992 0.0
H308 H 0.24627 0.2493 0.90351 0.0
H309 H 0.15421 0.19701 0.93461 0.0
H310 H 0.33776 0.27041 0.89776 0.0
H311 H 0.29708 0.15116 0.88628 0.0
H312 H 0.3566 0.1655 0.83415 0.0
H313 H 0.4547 0.22141 0.8101 0.0
C314 C 0.13278 0.15435 0.42417 0.0
C315 C 0.12387 0.14649 0.46083 0.0
C316 C 0.15898 0.20792 0.40893 0.0
C317 C 0.17725 0.25503 0.43023 0.0
C318 C 0.16802 0.24664 0.46691 0.0
C319 C 0.14167 0.19313 0.48203 0.0
C320 C 0.20502 0.31317 0.41583 0.0
C321 C 0.22295 0.33057 0.38216 0.0
C322 C 0.25174 0.38974 0.3692 0.0
C323 C 0.28748 0.41271 0.3392 0.0
C324 C 0.31656 0.46876 0.32688 0.0
C325 C 0.30973 0.50257 0.34391 0.0
H326 H 0.21556 0.40703 0.40821 0.0
C327 C 0.27344 0.47955 0.37353 0.0
C328 C 0.24424 0.42355 0.38586 0.0
H329 H 0.26731 0.50479 0.38705 0.0
H330 H 0.11896 0.11886 0.40716 0.0
H331 H 0.16395 0.21144 0.38055 0.0
H332 H 0.18121 0.28171 0.48409 0.0
H333 H 0.13519 0.18832 0.51038 0.0
H334 H 0.21277 0.34389 0.43466 0.0
H335 H 0.21936 0.30219 0.36357 0.0
H336 H 0.29405 0.38781 0.32571 0.0
H337 H 0.34603 0.48661 0.30482 0.0
C338 C 0.80101 0.12206 0.90785 0.0
C339 C 0.8589 0.15066 0.91653 0.0
C340 C 0.79015 0.1523 0.89088 0.0
C341 C 0.83713 0.21198 0.88187 0.0
C342 C 0.89502 0.2401 0.88986 0.0
C343 C 0.90585 0.20984 0.90687 0.0
C344 C 0.82761 0.24774 0.86699 0.0
C345 C 0.77652 0.22449 0.85185 0.0
C346 C 0.76458 0.26009 0.84149 0.0
C347 C 0.71636 0.23442 0.81876 0.0
C348 C 0.70024 0.26414 0.81108 0.0
C349 C 0.73237 0.32045 0.82572 0.0
H350 H 0.83292 0.3376 0.87462 0.0
C351 C 0.78076 0.34642 0.84823 0.0
C352 C 0.79675 0.3167 0.85608 0.0
H353 H 0.80576 0.38948 0.86029 0.0
H354 H 0.76382 0.07631 0.91457 0.0
H355 H 0.74476 0.129 0.88611 0.0
H356 H 0.9321 0.28613 0.88359 0.0
H357 H 0.95095 0.23351 0.91352 0.0
H358 H 0.86459 0.29535 0.86896 0.0
H359 H 0.74131 0.17723 0.8469 0.0
H360 H 0.69024 0.19064 0.80748 0.0
H361 H 0.6617 0.24239 0.79445 0.0
C362 C 0.89386 0.97501 0.41051 0.0
C363 C 0.90759 0.94487 0.42347 0.0
C364 C 0.8533 0.95115 0.38256 0.0
C365 C 0.82562 0.89652 0.36673 0.0
C366 C 0.84117 0.86763 0.37883 0.0
C367 C 0.88187 0.89159 0.40674 0.0
C368 C 0.77496 0.86469 0.34135 0.0
C369 C 0.76239 0.89088 0.32328 0.0
C370 C 0.70243 0.85678 0.3087 0.0
C371 C 0.67921 0.88054 0.31317 0.0
C372 C 0.61919 0.84534 0.30755 0.0
C373 C 0.58181 0.7864 0.29622 0.0
H374 H 0.68286 0.78006 0.29 0.0
C375 C 0.60575 0.76412 0.28826 0.0
C376 C 0.66582 0.79907 0.29459 0.0
H377 H 0.57739 0.7186 0.27958 0.0
H378 H 0.91287 0.01618 0.42273 0.0
H379 H 0.84177 0.97442 0.37496 0.0
H380 H 0.82028 0.82532 0.36741 0.0
H381 H 0.89152 0.86722 0.41598 0.0
H382 H 0.74369 0.81685 0.34045 0.0
H383 H 0.79318 0.93861 0.32399 0.0
H384 H 0.70654 0.92494 0.32377 0.0
H385 H 0.60136 0.86315 0.31393 0.0
C386 C 0.99685 0.90265 0.90631 0.0
C387 C 0.95894 0.90606 0.92044 0.0
C388 C 0.97846 0.86429 0.87806 0.0
C389 C 0.92174 0.82826 0.86311 0.0
C390 C 0.88477 0.83398 0.87592 0.0
C391 C 0.90343 0.87283 0.90423 0.0
C392 C 0.90085 0.78019 0.83818 0.0
C393 C 0.85087 0.74655 0.81841 0.0
C394 C 0.82288 0.68848 0.80307 0.0
C395 C 0.76108 0.64268 0.80153 0.0
C396 C 0.7326 0.58434 0.79587 0.0
C397 C 0.76548 0.57111 0.79088 0.0
H398 H 0.90318 0.70998 0.79396 0.0
C399 C 0.82693 0.61709 0.78893 0.0
C400 C 0.85553 0.67558 0.79451 0.0
H401 H 0.85294 0.60752 0.78527 0.0
H402 H 0.04034 0.92832 0.91778 0.0
H403 H 0.00796 0.86101 0.86882 0.0
H404 H 0.84035 0.80654 0.8657 0.0
H405 H 0.87326 0.87457 0.91451 0.0
H406 H 0.92558 0.76874 0.83904 0.0
H407 H 0.82544 0.75718 0.81758 0.0
H408 H 0.73479 0.65132 0.80763 0.0
H409 H 0.68505 0.54918 0.79784 0.0
loop_
_geom_bond_atom_site_label_1
_geom_bond_atom_site_label_2
_geom_bond_distance
_geom_bond_site_symmetry_2
_ccdc_geom_bond_type
Pr0 C2 2.880 . S
Pr0 O20 2.562 . S
Pr0 O21 2.490 . S
Pr0 O22 2.695 1_655 S
Pr0 O23 2.512 1_655 S
Pr0 O25 2.437 1_656 S
Pr0 O28 2.436 1_546 S
Pr0 O30 2.438 1_545 S
Pr1 C11 2.904 . S
Pr1 O22 2.429 1_564 S
Pr1 O24 2.415 1_565 S
Pr1 O26 2.584 . S
Pr1 O27 2.511 . S
Pr1 O28 2.680 1_455 S
Pr1 O29 2.509 1_455 S
Pr1 O31 2.449 1_455 S
C2 Pr0 2.880 . S
C2 C3 1.491 . S
C2 O20 1.254 . S
C2 O21 1.225 . S
C3 C2 1.491 . S
C3 C4 1.392 . S
C3 C8 1.356 . S
C4 C3 1.392 . S
C4 C5 1.368 . S
C4 H32 0.929 . S
C5 C4 1.368 . S
C5 C6 1.386 . S
C5 H33 0.929 . S
C6 C5 1.386 . S
C6 C7 1.373 . S
C7 C6 1.373 . S
C7 C8 1.409 . S
C7 H34 0.931 . S
C8 C3 1.356 . S
C8 C7 1.409 . S
C8 H35 0.930 . S
C9 O22 1.270 . S
C9 O23 1.248 . S
C10 O24 1.267 . S
C10 O25 1.278 . S
C11 Pr1 2.904 . S
C11 C12 1.491 . S
C11 O26 1.254 . S
C11 O27 1.225 . S
C12 C11 1.491 . S
C12 C13 1.392 . S
C12 C17 1.356 . S
C13 C12 1.392 . S
C13 C14 1.368 . S
C13 H36 0.929 . S
C14 C13 1.368 . S
C14 C15 1.386 . S
C14 H37 0.929 . S
C15 C14 1.386 . S
C15 C16 1.373 . S
C16 C15 1.373 . S
C16 C17 1.409 . S
C16 H38 0.931 . S
C17 C12 1.356 . S
C17 C16 1.409 . S
C17 H39 0.930 . S
C18 O28 1.270 . S
C18 O29 1.248 . S
C19 O30 1.267 . S
C19 O31 1.278 1_556 S
O20 Pr0 2.562 . S
O20 C2 1.254 . S
O21 Pr0 2.490 . S
O21 C2 1.225 . S
O22 Pr0 2.695 1_455 S
O22 Pr1 2.429 1_546 S
O22 C9 1.270 . S
O23 Pr0 2.512 1_455 S
O23 C9 1.248 . S
O24 Pr1 2.415 1_545 S
O24 C10 1.267 . S
O25 Pr0 2.437 1_454 S
O25 C10 1.278 . S
O26 Pr1 2.584 . S
O26 C11 1.254 . S
O27 Pr1 2.511 . S
O27 C11 1.225 . S
O28 Pr0 2.436 1_564 S
O28 Pr1 2.680 1_655 S
O28 C18 1.270 . S
O29 Pr1 2.509 1_655 S
O29 C18 1.248 . S
O30 Pr0 2.438 1_565 S
O30 C19 1.267 . S
O31 Pr1 2.449 1_655 S
O31 C19 1.278 1_554 S
H32 C4 0.929 . S
H33 C5 0.929 . S
H34 C7 0.931 . S
H35 C8 0.930 . S
H36 C13 0.929 . S
H37 C14 0.929 . S
H38 C16 0.931 . S
H39 C17 0.930 . S
Pr40 C42 2.880 1_455 S
Pr40 O60 2.562 1_455 S
Pr40 O61 2.490 1_455 S
Pr40 O62 2.695 1_545 S
Pr40 O63 2.512 1_445 S
Pr40 O65 2.437 1_445 S
Pr40 O68 2.436 . S
Pr40 O70 2.438 . S
Pr41 C51 2.880 . S
Pr41 O62 2.436 . S
Pr41 O64 2.438 1_455 S
Pr41 O66 2.562 . S
Pr41 O67 2.490 . S
Pr41 O68 2.695 1_565 S
Pr41 O69 2.512 1_565 S
Pr41 O71 2.437 1_565 S
C42 Pr40 2.880 1_655 S
C42 C43 1.491 . S
C42 O60 1.254 . S
C42 O61 1.225 . S
C43 C42 1.491 . S
C43 C44 1.392 . S
C43 C48 1.356 . S
C44 C43 1.392 . S
C44 C45 1.368 . S
C44 H72 0.929 . S
C45 C44 1.368 . S
C45 C46 1.386 . S
C45 H73 0.929 . S
C46 C45 1.386 . S
C46 C47 1.373 . S
C47 C46 1.373 . S
C47 C48 1.409 . S
C47 H74 0.931 . S
C48 C43 1.356 . S
C48 C47 1.409 . S
C48 H75 0.930 . S
C49 O62 1.270 1_655 S
C49 O63 1.248 . S
C50 O64 1.267 . S
C50 O65 1.278 . S
C51 Pr41 2.880 . S
C51 C52 1.491 . S
C51 O66 1.254 . S
C51 O67 1.225 . S
C52 C51 1.491 . S
C52 C53 1.392 . S
C52 C57 1.356 . S
C53 C52 1.392 . S
C53 C54 1.368 . S
C53 H76 0.929 1_565 S
C54 C53 1.368 . S
C54 C55 1.386 . S
C54 H77 0.929 . S
C55 C54 1.386 . S
C55 C56 1.373 . S
C56 C55 1.373 . S
C56 C57 1.409 . S
C56 H78 0.931 . S
C57 C52 1.356 . S
C57 C56 1.409 . S
C57 H79 0.930 . S
C58 O68 1.270 . S
C58 O69 1.248 . S
C59 O70 1.267 . S
C59 O71 1.278 . S
O60 Pr40 2.562 1_655 S
O60 C42 1.254 . S
O61 Pr40 2.490 1_655 S
O61 C42 1.225 . S
O62 Pr40 2.695 1_565 S
O62 Pr41 2.436 . S
O62 C49 1.270 1_455 S
O63 Pr40 2.512 1_665 S
O63 C49 1.248 . S
O64 Pr41 2.438 1_655 S
O64 C50 1.267 . S
O65 Pr40 2.437 1_665 S
O65 C50 1.278 . S
O66 Pr41 2.562 . S
O66 C51 1.254 . S
O67 Pr41 2.490 . S
O67 C51 1.225 . S
O68 Pr40 2.436 . S
O68 Pr41 2.695 1_545 S
O68 C58 1.270 . S
O69 Pr41 2.512 1_545 S
O69 C58 1.248 . S
O70 Pr40 2.438 . S
O70 C59 1.267 . S
O71 Pr41 2.437 1_545 S
O71 C59 1.278 . S
H72 C44 0.929 . S
H73 C45 0.929 . S
H74 C47 0.931 . S
H75 C48 0.930 . S
H76 C53 0.929 1_545 S
H77 C54 0.929 . S
H78 C56 0.931 . S
H79 C57 0.930 . S
Zn80 O86 1.920 . S
Zn80 O92 1.898 . S
Zn80 O95 1.905 . S
Zn81 O89 1.905 . S
Zn81 O90 1.898 . S
Zn81 O98 1.920 . S
Zn82 O85 2.080 . S
Zn82 O88 2.114 . S
Zn82 O91 2.120 . S
Zn82 O93 2.120 . S
Zn82 O94 2.114 . S
Zn82 O97 2.080 . S
C83 O88 1.166 . S
C83 O89 1.182 . S
C84 O90 1.167 . S
C84 O91 1.299 . S
O85 Zn82 2.080 . S
O85 C99 1.305 . S
O86 Zn80 1.920 . S
O86 C99 1.234 . S
C87 O92 1.167 . S
C87 O93 1.299 . S
O88 Zn82 2.114 . S
O88 C83 1.166 . S
O89 Zn81 1.905 . S
O89 C83 1.182 . S
O90 Zn81 1.898 . S
O90 C84 1.167 . S
O91 Zn82 2.120 . S
O91 C84 1.299 . S
O92 Zn80 1.898 . S
O92 C87 1.167 . S
O93 Zn82 2.120 . S
O93 C87 1.299 . S
O94 Zn82 2.114 . S
O94 C96 1.166 . S
O95 Zn80 1.905 . S
O95 C96 1.182 . S
C96 O94 1.166 . S
C96 O95 1.182 . S
O97 Zn82 2.080 . S
O97 C100 1.305 . S
O98 Zn81 1.920 . S
O98 C100 1.234 . S
C99 O85 1.305 . S
C99 O86 1.234 . S
C100 O97 1.305 . S
C100 O98 1.234 . S
Zn101 O107 1.920 . S
Zn101 O113 1.898 . S
Zn101 O116 1.905 . S
Zn102 O110 1.905 . S
Zn102 O111 1.898 . S
Zn102 O119 1.920 . S
Zn103 O106 2.080 . S
Zn103 O109 2.114 . S
Zn103 O112 2.120 . S
Zn103 O114 2.120 . S
Zn103 O115 2.114 . S
Zn103 O118 2.080 . S
C104 O109 1.166 . S
C104 O110 1.182 . S
C105 O111 1.167 . S
C105 O112 1.299 . S
O106 Zn103 2.080 . S
O106 C120 1.305 . S
O107 Zn101 1.920 . S
O107 C120 1.234 . S
C108 O113 1.167 . S
C108 O114 1.299 . S
O109 Zn103 2.114 . S
O109 C104 1.166 . S
O110 Zn102 1.905 . S
O110 C104 1.182 . S
O111 Zn102 1.898 . S
O111 C105 1.167 . S
O112 Zn103 2.120 . S
O112 C105 1.299 . S
O113 Zn101 1.898 . S
O113 C108 1.167 . S
O114 Zn103 2.120 . S
O114 C108 1.299 . S
O115 Zn103 2.114 . S
O115 C117 1.166 . S
O116 Zn101 1.905 . S
O116 C117 1.182 . S
C117 O115 1.166 . S
C117 O116 1.182 . S
O118 Zn103 2.080 . S
O118 C121 1.305 . S
O119 Zn102 1.920 . S
O119 C121 1.234 . S
C120 O106 1.305 . S
C120 O107 1.234 . S
C121 O118 1.305 . S
C121 O119 1.234 . S
C122 C123 1.386 . S
C122 C124 1.383 . S
C122 H138 0.951 . S
C123 C122 1.386 . S
C123 C127 1.383 . S
C124 C122 1.383 . S
C124 C125 1.402 . S
C124 H139 0.951 . S
C125 C124 1.402 . S
C125 C126 1.375 . S
C125 C128 1.481 . S
C126 C125 1.375 . S
C126 C127 1.367 . S
C126 H140 0.951 . S
C127 C123 1.383 . S
C127 C126 1.367 . S
C127 H141 0.950 . S
C128 C125 1.481 . S
C128 C129 1.297 . S
C128 H142 0.950 . S
C129 C128 1.297 . S
C129 C130 1.479 . S
C129 H143 0.950 . S
C130 C129 1.479 . S
C130 C131 1.375 . S
C130 C136 1.404 . S
C131 C130 1.375 . S
C131 C132 1.369 . S
C131 H144 0.950 . S
C132 C131 1.369 . S
C132 C133 1.392 . S
C132 H145 0.951 . S
C133 C132 1.392 . S
C133 C135 1.384 . S
H134 C136 0.949 . S
C135 C133 1.384 . S
C135 C136 1.385 . S
C135 H137 0.950 . S
C136 C130 1.404 . S
C136 H134 0.949 . S
C136 C135 1.385 . S
H137 C135 0.950 . S
H138 C122 0.951 . S
H139 C124 0.951 . S
H140 C126 0.951 . S
H141 C127 0.950 . S
H142 C128 0.950 . S
H143 C129 0.950 . S
H144 C131 0.950 . S
H145 C132 0.951 . S
C146 C147 1.386 . S
C146 C148 1.383 . S
C146 H162 0.951 . S
C147 C146 1.386 . S
C147 C151 1.383 . S
C148 C146 1.383 . S
C148 C149 1.402 . S
C148 H163 0.951 . S
C149 C148 1.402 . S
C149 C150 1.375 . S
C149 C152 1.481 . S
C150 C149 1.375 . S
C150 C151 1.367 . S
C150 H164 0.951 . S
C151 C147 1.383 . S
C151 C150 1.367 . S
C151 H165 0.950 . S
C152 C149 1.481 . S
C152 C153 1.297 . S
C152 H166 0.950 . S
C153 C152 1.297 . S
C153 C154 1.479 . S
C153 H167 0.950 . S
C154 C153 1.479 . S
C154 C155 1.375 . S
C154 C160 1.404 . S
C155 C154 1.375 . S
C155 C156 1.369 . S
C155 H168 0.950 . S
C156 C155 1.369 . S
C156 C157 1.392 . S
C156 H169 0.951 . S
C157 C156 1.392 . S
C157 C159 1.384 . S
H158 C160 0.949 . S
C159 C157 1.384 . S
C159 C160 1.385 . S
C159 H161 0.950 . S
C160 C154 1.404 . S
C160 H158 0.949 . S
C160 C159 1.385 . S
H161 C159 0.950 . S
H162 C146 0.951 . S
H163 C148 0.951 . S
H164 C150 0.951 . S
H165 C151 0.950 . S
H166 C152 0.950 . S
H167 C153 0.950 . S
H168 C155 0.950 . S
H169 C156 0.951 . S
C170 C171 1.386 . S
C170 C172 1.383 . S
C170 H186 0.951 . S
C171 C170 1.386 . S
C171 C175 1.383 . S
C172 C170 1.383 . S
C172 C173 1.402 . S
C172 H187 0.951 . S
C173 C172 1.402 . S
C173 C174 1.375 . S
C173 C176 1.481 . S
C174 C173 1.375 . S
C174 C175 1.367 . S
C174 H188 0.951 . S
C175 C171 1.383 . S
C175 C174 1.367 . S
C175 H189 0.950 . S
C176 C173 1.481 . S
C176 C177 1.297 . S
C176 H190 0.950 . S
C177 C176 1.297 . S
C177 C178 1.479 . S
C177 H191 0.950 . S
C178 C177 1.479 . S
C178 C179 1.375 . S
C178 C184 1.404 . S
C179 C178 1.375 . S
C179 C180 1.369 . S
C179 H192 0.950 . S
C180 C179 1.369 . S
C180 C181 1.392 . S
C180 H193 0.951 . S
C181 C180 1.392 . S
C181 C183 1.384 . S
H182 C184 0.949 . S
C183 C181 1.384 . S
C183 C184 1.385 . S
C183 H185 0.950 . S
C184 C178 1.404 . S
C184 H182 0.949 . S
C184 C183 1.385 . S
H185 C183 0.950 . S
H186 C170 0.951 . S
H187 C172 0.951 . S
H188 C174 0.951 . S
H189 C175 0.950 . S
H190 C176 0.950 . S
H191 C177 0.950 . S
H192 C179 0.950 . S
H193 C180 0.951 . S
C194 C195 1.386 . S
C194 C196 1.383 . S
C194 H210 0.951 . S
C195 C194 1.386 . S
C195 C199 1.383 . S
C196 C194 1.383 . S
C196 C197 1.402 . S
C196 H211 0.951 . S
C197 C196 1.402 . S
C197 C198 1.375 . S
C197 C200 1.481 . S
C198 C197 1.375 . S
C198 C199 1.367 . S
C198 H212 0.951 . S
C199 C195 1.383 . S
C199 C198 1.367 . S
C199 H213 0.950 . S
C200 C197 1.481 . S
C200 C201 1.297 . S
C200 H214 0.950 . S
C201 C200 1.297 . S
C201 C202 1.479 . S
C201 H215 0.950 . S
C202 C201 1.479 . S
C202 C203 1.375 . S
C202 C208 1.404 . S
C203 C202 1.375 . S
C203 C204 1.369 . S
C203 H216 0.950 . S
C204 C203 1.369 . S
C204 C205 1.392 . S
C204 H217 0.951 . S
C205 C204 1.392 . S
C205 C207 1.384 . S
H206 C208 0.949 . S
C207 C205 1.384 . S
C207 C208 1.385 . S
C207 H209 0.950 . S
C208 C202 1.404 . S
C208 H206 0.949 . S
C208 C207 1.385 . S
H209 C207 0.950 . S
H210 C194 0.951 . S
H211 C196 0.951 . S
H212 C198 0.951 . S
H213 C199 0.950 . S
H214 C200 0.950 . S
H215 C201 0.950 . S
H216 C203 0.950 . S
H217 C204 0.951 . S
C218 C219 1.386 . S
C218 C220 1.383 . S
C218 H234 0.951 . S
C219 C218 1.386 . S
C219 C223 1.383 . S
C220 C218 1.383 . S
C220 C221 1.402 . S
C220 H235 0.951 . S
C221 C220 1.402 . S
C221 C222 1.375 . S
C221 C224 1.481 . S
C222 C221 1.375 . S
C222 C223 1.367 . S
C222 H236 0.951 . S
C223 C219 1.383 . S
C223 C222 1.367 . S
C223 H237 0.950 . S
C224 C221 1.481 . S
C224 C225 1.297 . S
C224 H238 0.950 . S
C225 C224 1.297 . S
C225 C226 1.479 . S
C225 H239 0.950 . S
C226 C225 1.479 . S
C226 C227 1.375 . S
C226 C232 1.404 . S
C227 C226 1.375 . S
C227 C228 1.369 . S
C227 H240 0.950 . S
C228 C227 1.369 . S
C228 C229 1.392 . S
C228 H241 0.951 . S
C229 C228 1.392 . S
C229 C231 1.384 . S
H230 C232 0.949 . S
C231 C229 1.384 . S
C231 C232 1.385 . S
C231 H233 0.950 . S
C232 C226 1.404 . S
C232 H230 0.949 . S
C232 C231 1.385 . S
H233 C231 0.950 . S
H234 C218 0.951 . S
H235 C220 0.951 . S
H236 C222 0.951 . S
H237 C223 0.950 . S
H238 C224 0.950 . S
H239 C225 0.950 . S
H240 C227 0.950 . S
H241 C228 0.951 . S
C242 C243 1.386 . S
C242 C244 1.383 . S
C242 H258 0.951 . S
C243 C242 1.386 . S
C243 C247 1.383 . S
C244 C242 1.383 . S
C244 C245 1.402 . S
C244 H259 0.951 . S
C245 C244 1.402 . S
C245 C246 1.375 . S
C245 C248 1.481 . S
C246 C245 1.375 . S
C246 C247 1.367 . S
C246 H260 0.951 . S
C247 C243 1.383 . S
C247 C246 1.367 . S
C247 H261 0.950 . S
C248 C245 1.481 . S
C248 C249 1.297 . S
C248 H262 0.950 . S
C249 C248 1.297 . S
C249 C250 1.479 . S
C249 H263 0.950 . S
C250 C249 1.479 . S
C250 C251 1.375 . S
C250 C256 1.404 . S
C251 C250 1.375 . S
C251 C252 1.369 . S
C251 H264 0.950 . S
C252 C251 1.369 . S
C252 C253 1.392 . S
C252 H265 0.951 . S
C253 C252 1.392 . S
C253 C255 1.384 . S
H254 C256 0.949 . S
C255 C253 1.384 . S
C255 C256 1.385 . S
C255 H257 0.950 . S
C256 C250 1.404 . S
C256 H254 0.949 . S
C256 C255 1.385 . S
H257 C255 0.950 . S
H258 C242 0.951 . S
H259 C244 0.951 . S
H260 C246 0.951 . S
H261 C247 0.950 . S
H262 C248 0.950 . S
H263 C249 0.950 . S
H264 C251 0.950 . S
H265 C252 0.951 . S
C266 C267 1.386 . S
C266 C268 1.383 . S
C266 H282 0.951 . S
C267 C266 1.386 . S
C267 C271 1.383 . S
C268 C266 1.383 . S
C268 C269 1.402 . S
C268 H283 0.951 . S
C269 C268 1.402 . S
C269 C270 1.375 . S
C269 C272 1.481 . S
C270 C269 1.375 . S
C270 C271 1.367 . S
C270 H284 0.951 . S
C271 C267 1.383 . S
C271 C270 1.367 . S
C271 H285 0.950 1_565 S
C272 C269 1.481 . S
C272 C273 1.297 . S
C272 H286 0.950 . S
C273 C272 1.297 . S
C273 C274 1.479 . S
C273 H287 0.950 . S
C274 C273 1.479 . S
C274 C275 1.375 . S
C274 C280 1.404 . S
C275 C274 1.375 . S
C275 C276 1.369 . S
C275 H288 0.950 . S
C276 C275 1.369 . S
C276 C277 1.392 . S
C276 H289 0.951 . S
C277 C276 1.392 . S
C277 C279 1.384 . S
H278 C280 0.949 . S
C279 C277 1.384 . S
C279 C280 1.385 . S
C279 H281 0.950 . S
C280 C274 1.404 . S
C280 H278 0.949 . S
C280 C279 1.385 . S
H281 C279 0.950 . S
H282 C266 0.951 . S
H283 C268 0.951 . S
H284 C270 0.951 . S
H285 C271 0.950 1_545 S
H286 C272 0.950 . S
H287 C273 0.950 . S
H288 C275 0.950 . S
H289 C276 0.951 . S
C290 C291 1.386 . S
C290 C292 1.383 . S
C290 H306 0.951 . S
C291 C290 1.386 . S
C291 C295 1.383 . S
C292 C290 1.383 . S
C292 C293 1.402 . S
C292 H307 0.951 . S
C293 C292 1.402 . S
C293 C294 1.375 . S
C293 C296 1.481 . S
C294 C293 1.375 . S
C294 C295 1.367 . S
C294 H308 0.951 . S
C295 C291 1.383 . S
C295 C294 1.367 . S
C295 H309 0.950 . S
C296 C293 1.481 . S
C296 C297 1.297 . S
C296 H310 0.950 . S
C297 C296 1.297 . S
C297 C298 1.479 . S
C297 H311 0.950 . S
C298 C297 1.479 . S
C298 C299 1.375 . S
C298 C304 1.404 . S
C299 C298 1.375 . S
C299 C300 1.369 . S
C299 H312 0.950 . S
C300 C299 1.369 . S
C300 C301 1.392 . S
C300 H313 0.951 . S
C301 C300 1.392 . S
C301 C303 1.384 . S
H302 C304 0.949 . S
C303 C301 1.384 . S
C303 C304 1.385 . S
C303 H305 0.950 . S
C304 C298 1.404 . S
C304 H302 0.949 . S
C304 C303 1.385 . S
H305 C303 0.950 . S
H306 C290 0.951 . S
H307 C292 0.951 . S
H308 C294 0.951 . S
H309 C295 0.950 . S
H310 C296 0.950 . S
H311 C297 0.950 . S
H312 C299 0.950 . S
H313 C300 0.951 . S
C314 C315 1.386 . S
C314 C316 1.383 . S
C314 H330 0.951 . S
C315 C314 1.386 . S
C315 C319 1.383 . S
C316 C314 1.383 . S
C316 C317 1.402 . S
C316 H331 0.951 . S
C317 C316 1.402 . S
C317 C318 1.375 . S
C317 C320 1.481 . S
C318 C317 1.375 . S
C318 C319 1.367 . S
C318 H332 0.951 . S
C319 C315 1.383 . S
C319 C318 1.367 . S
C319 H333 0.950 . S
C320 C317 1.481 . S
C320 C321 1.297 . S
C320 H334 0.950 . S
C321 C320 1.297 . S
C321 C322 1.479 . S
C321 H335 0.950 . S
C322 C321 1.479 . S
C322 C323 1.375 . S
C322 C328 1.404 . S
C323 C322 1.375 . S
C323 C324 1.369 . S
C323 H336 0.950 . S
C324 C323 1.369 . S
C324 C325 1.392 . S
C324 H337 0.951 . S
C325 C324 1.392 . S
C325 C327 1.384 . S
H326 C328 0.949 . S
C327 C325 1.384 . S
C327 C328 1.385 . S
C327 H329 0.950 . S
C328 C322 1.404 . S
C328 H326 0.949 . S
C328 C327 1.385 . S
H329 C327 0.950 . S
H330 C314 0.951 . S
H331 C316 0.951 . S
H332 C318 0.951 . S
H333 C319 0.950 . S
H334 C320 0.950 . S
H335 C321 0.950 . S
H336 C323 0.950 . S
H337 C324 0.951 . S
C338 C339 1.386 . S
C338 C340 1.383 . S
C338 H354 0.951 . S
C339 C338 1.386 . S
C339 C343 1.383 . S
C340 C338 1.383 . S
C340 C341 1.402 . S
C340 H355 0.951 . S
C341 C340 1.402 . S
C341 C342 1.375 . S
C341 C344 1.481 . S
C342 C341 1.375 . S
C342 C343 1.367 . S
C342 H356 0.951 . S
C343 C339 1.383 . S
C343 C342 1.367 . S
C343 H357 0.950 . S
C344 C341 1.481 . S
C344 C345 1.297 . S
C344 H358 0.950 . S
C345 C344 1.297 . S
C345 C346 1.479 . S
C345 H359 0.950 . S
C346 C345 1.479 . S
C346 C347 1.375 . S
C346 C352 1.404 . S
C347 C346 1.375 . S
C347 C348 1.369 . S
C347 H360 0.950 . S
C348 C347 1.369 . S
C348 C349 1.392 . S
C348 H361 0.951 . S
C349 C348 1.392 . S
C349 C351 1.384 . S
H350 C352 0.949 . S
C351 C349 1.384 . S
C351 C352 1.385 . S
C351 H353 0.950 . S
C352 C346 1.404 . S
C352 H350 0.949 . S
C352 C351 1.385 . S
H353 C351 0.950 . S
H354 C338 0.951 . S
H355 C340 0.951 . S
H356 C342 0.951 . S
H357 C343 0.950 . S
H358 C344 0.950 . S
H359 C345 0.950 . S
H360 C347 0.950 . S
H361 C348 0.951 . S
C362 C363 1.386 . S
C362 C364 1.383 . S
C362 H378 0.951 1_565 S
C363 C362 1.386 . S
C363 C367 1.383 . S
C364 C362 1.383 . S
C364 C365 1.402 . S
C364 H379 0.951 . S
C365 C364 1.402 . S
C365 C366 1.375 . S
C365 C368 1.481 . S
C366 C365 1.375 . S
C366 C367 1.367 . S
C366 H380 0.951 . S
C367 C363 1.383 . S
C367 C366 1.367 . S
C367 H381 0.950 . S
C368 C365 1.481 . S
C368 C369 1.297 . S
C368 H382 0.950 . S
C369 C368 1.297 . S
C369 C370 1.479 . S
C369 H383 0.950 . S
C370 C369 1.479 . S
C370 C371 1.375 . S
C370 C376 1.404 . S
C371 C370 1.375 . S
C371 C372 1.369 . S
C371 H384 0.950 . S
C372 C371 1.369 . S
C372 C373 1.392 . S
C372 H385 0.951 . S
C373 C372 1.392 . S
C373 C375 1.384 . S
H374 C376 0.949 . S
C375 C373 1.384 . S
C375 C376 1.385 . S
C375 H377 0.950 . S
C376 C370 1.404 . S
C376 H374 0.949 . S
C376 C375 1.385 . S
H377 C375 0.950 . S
H378 C362 0.951 1_545 S
H379 C364 0.951 . S
H380 C366 0.951 . S
H381 C367 0.950 . S
H382 C368 0.950 . S
H383 C369 0.950 . S
H384 C371 0.950 . S
H385 C372 0.951 . S
C386 C387 1.386 . S
C386 C388 1.383 . S
C386 H402 0.951 . S
C387 C386 1.386 . S
C387 C391 1.383 . S
C388 C386 1.383 . S
C388 C389 1.402 . S
C388 H403 0.951 . S
C389 C388 1.402 . S
C389 C390 1.375 . S
C389 C392 1.481 . S
C390 C389 1.375 . S
C390 C391 1.367 . S
C390 H404 0.951 . S
C391 C387 1.383 . S
C391 C390 1.367 . S
C391 H405 0.950 1_655 S
C392 C389 1.481 . S
C392 C393 1.297 . S
C392 H406 0.950 . S
C393 C392 1.297 . S
C393 C394 1.479 . S
C393 H407 0.950 . S
C394 C393 1.479 . S
C394 C395 1.375 . S
C394 C400 1.404 . S
C395 C394 1.375 . S
C395 C396 1.369 . S
C395 H408 0.950 . S
C396 C395 1.369 . S
C396 C397 1.392 . S
C396 H409 0.951 . S
C397 C396 1.392 . S
C397 C399 1.384 . S
H398 C400 0.949 . S
C399 C397 1.384 . S
C399 C400 1.385 . S
C399 H401 0.950 . S
C400 C394 1.404 . S
C400 H398 0.949 . S
C400 C399 1.385 . S
H401 C399 0.950 . S
H402 C386 0.951 . S
H403 C388 0.951 . S
H404 C390 0.951 . S
H405 C391 0.950 1_455 S
H406 C392 0.950 . S
H407 C393 0.950 . S
H408 C395 0.950 . S
H409 C396 0.951 . S
C123 C15 1.344 . S
C133 C99 1.197 . S
C147 C59 1.195 . S
C157 C105 1.108 . S
C171 C10 1.258 . S
C181 C96 1.231 . S
C195 C46 1.433 . S
C205 C121 1.317 . S
C219 C18 1.880 . S
C229 C87 1.746 . S
C253 C104 1.835 . S
C243 C49 1.960 . S
C267 C55 1.351 . S
C277 C100 1.320 . S
C301 C117 1.898 . S
C291 C9 1.951 . S
C325 C84 1.806 . S
C315 C58 1.898 . S
C349 C120 1.243 . S
C339 C6 1.441 . S
C373 C83 1.258 . S
C363 C50 1.248 . S
C397 C108 1.085 . S
C387 C19 1.173 . S
