# Generated by pormake.
# Topology sit, (3,6)-cn, num edge types: 1
# Building blocks:
#     Node 0, Type 0, BuildingBlock: OLANEW_clean_sbu_2, # of connection points: 3
#     Node 1, Type 0, BuildingBlock: OLANEW_clean_sbu_2, # of connection points: 3
#     Node 2, Type 0, BuildingBlock: OLANEW_clean_sbu_2, # of connection points: 3
#     Node 3, Type 0, BuildingBlock: OLANEW_clean_sbu_2, # of connection points: 3
#     Node 4, Type 1, BuildingBlock: MIDCAF_clean_sbu_0, # of connection points: 6
#     Node 5, Type 1, BuildingBlock: MIDCAF_clean_sbu_0, # of connection points: 6
#     Edge 6, Type (0, 1), BuildingBlock: MIFKUJ_clean_linker_0, # of connection points: 2
#     Edge 7, Type (0, 1), BuildingBlock: MIFKUJ_clean_linker_0, # of connection points: 2
#     Edge 8, Type (0, 1), BuildingBlock: MIFKUJ_clean_linker_0, # of connection points: 2
#     Edge 9, Type (0, 1), BuildingBlock: MIFKUJ_clean_linker_0, # of connection points: 2
#     Edge 10, Type (0, 1), BuildingBlock: MIFKUJ_clean_linker_0, # of connection points: 2
#     Edge 11, Type (0, 1), BuildingBlock: MIFKUJ_clean_linker_0, # of connection points: 2
#     Edge 12, Type (0, 1), BuildingBlock: MIFKUJ_clean_linker_0, # of connection points: 2
#     Edge 13, Type (0, 1), BuildingBlock: MIFKUJ_clean_linker_0, # of connection points: 2
#     Edge 14, Type (0, 1), BuildingBlock: MIFKUJ_clean_linker_0, # of connection points: 2
#     Edge 15, Type (0, 1), BuildingBlock: MIFKUJ_clean_linker_0, # of connection points: 2
#     Edge 16, Type (0, 1), BuildingBlock: MIFKUJ_clean_linker_0, # of connection points: 2
#     Edge 17, Type (0, 1), BuildingBlock: MIFKUJ_clean_linker_0, # of connection points: 2
# Relax obj value: 0.079
# Max RMSD: 0.183
# Mean RMSD: 0.112
data_MOF--net-sit--node1-OLANEW_clean_sbu_2--node2-MIDCAF_clean_sbu_0--edge1-MIFKUJ_clean_linker_0
_symmetry_space_group_name_H-M    P1
_symmetry_Int_Tables_number       1
_symmetry_cell_setting            triclinic
loop_
_symmetry_equiv_pos_as_xyz
'x, y, z'
_cell_length_a     28.708876
_cell_length_b     45.694485
_cell_length_c     50.0321
_cell_angle_alpha  90.005906
_cell_angle_beta   84.212426
_cell_angle_gamma 84.20287
loop_
_atom_site_label
_atom_site_type_symbol
_atom_site_fract_x
_atom_site_fract_y
_atom_site_fract_z
_atom_type_partial_charge
O0 O 0.24662 0.23571 0.00734 0.0
Cd1 Cd 0.21171 0.18917 0.00396 0.0
O2 O 0.18058 0.25886 0.99681 0.0
Cd3 Cd 0.13452 0.29587 0.98332 0.0
O4 O 0.08353 0.33184 0.97323 0.0
C5 C 0.04965 0.34045 0.99068 0.0
O6 O 0.04693 0.32767 0.01424 0.0
C7 C 0.22292 0.25966 0.00203 0.0
C8 C 0.18721 0.16091 0.05204 0.0
O9 O 0.22859 0.15587 0.03967 0.0
O10 O 0.15796 0.17987 0.04203 0.0
O11 O 0.07659 0.70593 0.04875 0.0
Cd12 Cd 0.00647 0.74153 0.05607 0.0
O13 O 0.10567 0.73018 0.01403 0.0
Cd14 Cd 0.03744 0.75457 0.01091 0.0
O15 O 0.97471 0.73779 0.99816 0.0
C16 C 0.98368 0.71285 0.98647 0.0
O17 O 0.0276 0.7011 0.98301 0.0
C18 C 0.10999 0.70917 0.03058 0.0
C19 C 0.01729 0.78702 0.09153 0.0
O20 O 0.99746 0.76428 0.09967 0.0
O21 O 0.03233 0.78825 0.06659 0.0
O22 O 0.73439 0.73997 0.5041 0.0
Cd23 Cd 0.69246 0.69573 0.50424 0.0
O24 O 0.66458 0.76455 0.50729 0.0
Cd25 Cd 0.61382 0.80373 0.50858 0.0
O26 O 0.56447 0.84112 0.49987 0.0
C27 C 0.56548 0.84997 0.47575 0.0
O28 O 0.59648 0.83665 0.45746 0.0
C29 C 0.70915 0.7645 0.50435 0.0
C30 C 0.67652 0.66711 0.55306 0.0
O31 O 0.71172 0.65827 0.53617 0.0
O32 O 0.64982 0.68991 0.54718 0.0
O33 O 0.58525 0.20223 0.55988 0.0
Cd34 Cd 0.5159 0.23583 0.57565 0.0
O35 O 0.57692 0.2125 0.51759 0.0
Cd36 Cd 0.51044 0.24007 0.52559 0.0
O37 O 0.43853 0.23571 0.5171 0.0
C38 C 0.42272 0.21205 0.52555 0.0
O39 O 0.44832 0.19463 0.54052 0.0
C40 C 0.59924 0.19848 0.53507 0.0
C41 C 0.53433 0.28525 0.6041 0.0
O42 O 0.52995 0.26053 0.61571 0.0
O43 O 0.53089 0.28657 0.57877 0.0
Zn44 Zn 0.02447 0.064 0.35223 0.0
Zn45 Zn 0.09823 0.95657 0.36771 0.0
Zn46 Zn 0.06546 0.01091 0.36183 0.0
C47 C 0.07936 0.96117 0.31501 0.0
C48 C 0.01689 0.96403 0.40178 0.0
O49 O 0.11082 0.04103 0.37773 0.0
O50 O 0.07381 0.0842 0.3684 0.0
C51 C 0.04671 0.03935 0.30246 0.0
O52 O 0.07309 0.98848 0.32219 0.0
O53 O 0.08778 0.94141 0.33195 0.0
O54 O 0.05394 0.94649 0.39852 0.0
O55 O 0.01414 0.98843 0.38879 0.0
O56 O 0.02521 0.06264 0.31291 0.0
O57 O 0.06321 0.01859 0.3175 0.0
O58 O 0.99671 0.01839 0.38686 0.0
O59 O 0.96406 0.06148 0.37426 0.0
C60 C 0.96231 0.03897 0.38878 0.0
O61 O 0.13439 0.0118 0.3786 0.0
O62 O 0.16226 0.96488 0.37411 0.0
C63 C 0.10715 0.06938 0.37856 0.0
C64 C 0.16795 0.99103 0.37999 0.0
Zn65 Zn 0.53 0.56991 0.8658 0.0
Zn66 Zn 0.60065 0.45802 0.85748 0.0
Zn67 Zn 0.56578 0.51427 0.86429 0.0
C68 C 0.58917 0.47765 0.80683 0.0
C69 C 0.51174 0.4609 0.88842 0.0
O70 O 0.61666 0.53853 0.88288 0.0
O71 O 0.57745 0.58269 0.88871 0.0
C72 C 0.553 0.55665 0.81246 0.0
O73 O 0.57066 0.50026 0.82107 0.0
O74 O 0.60941 0.45575 0.81785 0.0
O75 O 0.5431 0.44284 0.87632 0.0
O76 O 0.51502 0.48874 0.88705 0.0
O77 O 0.53968 0.57898 0.82711 0.0
O78 O 0.56155 0.53118 0.82299 0.0
O79 O 0.49825 0.51899 0.89066 0.0
O80 O 0.46645 0.56404 0.88314 0.0
C81 C 0.46396 0.53953 0.89455 0.0
O82 O 0.6332 0.50829 0.88259 0.0
O83 O 0.65639 0.46071 0.87721 0.0
C84 C 0.6135 0.56519 0.89177 0.0
C85 C 0.66263 0.48574 0.88601 0.0
H86 H 0.10107 0.16512 0.08119 0.0
H87 H 0.07708 0.13773 0.12125 0.0
H88 H 0.21694 0.0927 0.11898 0.0
H89 H 0.24111 0.11972 0.07849 0.0
H90 H 0.15122 0.05483 0.13011 0.0
H91 H 0.18212 0.14796 0.16368 0.0
H92 H 0.17677 0.20205 0.16708 0.0
H93 H 0.02777 0.20536 0.18887 0.0
H94 H 0.03212 0.15129 0.18524 0.0
H95 H 0.12942 0.02087 0.27312 0.0
H96 H 0.15114 0.03199 0.22582 0.0
H97 H 0.00878 0.06909 0.21883 0.0
H98 H 0.98682 0.05737 0.26583 0.0
H99 H 0.07803 0.10907 0.2121 0.0
H100 H 0.0471 0.01642 0.1716 0.0
H101 H 0.05326 0.96261 0.16453 0.0
H102 H 0.20391 0.9588 0.15852 0.0
H103 H 0.19869 0.01276 0.16452 0.0
C104 C 0.12683 0.14946 0.08921 0.0
C105 C 0.17311 0.14476 0.07674 0.0
C106 C 0.11306 0.13383 0.11216 0.0
C107 C 0.14535 0.11338 0.1233 0.0
C108 C 0.19145 0.10837 0.11074 0.0
C109 C 0.20526 0.12396 0.0877 0.0
C110 C 0.1309 0.09762 0.14825 0.0
C111 C 0.13579 0.0667 0.14816 0.0
C112 C 0.11018 0.11304 0.17171 0.0
C113 C 0.10739 0.14558 0.17393 0.0
C114 C 0.14815 0.16024 0.16898 0.0
C115 C 0.14531 0.19089 0.17099 0.0
C116 C 0.10194 0.20714 0.17812 0.0
C117 C 0.06133 0.19275 0.18332 0.0
C118 C 0.06397 0.1621 0.18131 0.0
C119 C 0.10226 0.02984 0.26103 0.0
C120 C 0.05641 0.03801 0.27296 0.0
C121 C 0.11473 0.03637 0.23406 0.0
C122 C 0.08157 0.05145 0.21887 0.0
C123 C 0.03483 0.05739 0.23019 0.0
C124 C 0.02236 0.05073 0.25703 0.0
C125 C 0.09739 0.06634 0.19376 0.0
C126 C 0.09327 0.09721 0.19399 0.0
C127 C 0.11914 0.0509 0.17064 0.0
C128 C 0.1225 0.01846 0.16876 0.0
C129 C 0.08151 0.00404 0.16902 0.0
C130 C 0.08482 0.97358 0.16505 0.0
C131 C 0.12888 0.95731 0.16134 0.0
C132 C 0.16979 0.97145 0.16146 0.0
C133 C 0.16671 0.00198 0.16493 0.0
H134 H 0.13127 0.93379 0.15815 0.0
H135 H 0.09982 0.23087 0.17967 0.0
H136 H 0.07545 0.83094 0.08426 0.0
H137 H 0.08663 0.86931 0.11667 0.0
H138 H 0.98225 0.83602 0.17354 0.0
H139 H 0.97141 0.79743 0.14155 0.0
H140 H 0.97448 0.89926 0.16904 0.0
H141 H 0.08997 0.81576 0.18016 0.0
H142 H 0.15619 0.77932 0.16418 0.0
H143 H 0.24194 0.84895 0.14211 0.0
H144 H 0.17601 0.8858 0.15764 0.0
H145 H 0.00907 0.93152 0.30162 0.0
H146 H -0.00067 0.91106 0.25765 0.0
H147 H 0.1235 0.94899 0.22352 0.0
H148 H 0.13419 0.96847 0.26811 0.0
H149 H 0.12615 0.89259 0.20932 0.0
H150 H 0.01479 0.97567 0.2105 0.0
H151 H 0.94854 0.01139 0.2271 0.0
H152 H 0.85409 0.94431 0.22698 0.0
H153 H 0.91995 0.9079 0.21065 0.0
C154 C 0.05467 0.83194 0.10361 0.0
C155 C 0.02277 0.81105 0.11045 0.0
C156 C 0.06108 0.85386 0.12205 0.0
C157 C 0.03523 0.85546 0.14745 0.0
C158 C 0.00235 0.83522 0.15398 0.0
C159 C 0.99646 0.81306 0.13575 0.0
C160 C 0.04424 0.87692 0.16803 0.0
C161 C 0.0075 0.8979 0.17798 0.0
C162 C 0.08802 0.87569 0.17886 0.0
C163 C 0.12776 0.85355 0.16963 0.0
C164 C 0.12277 0.82331 0.17163 0.0
C165 C 0.1603 0.80257 0.16272 0.0
C166 C 0.20317 0.81182 0.15201 0.0
C167 C 0.20865 0.84182 0.15031 0.0
C168 C 0.1712 0.86265 0.15916 0.0
C169 C 0.03374 0.93587 0.28457 0.0
C170 C 0.0716 0.95214 0.28785 0.0
C171 C 0.02809 0.92432 0.25947 0.0
C172 C 0.06019 0.92894 0.23716 0.0
C173 C 0.09801 0.94547 0.24039 0.0
C174 C 0.10376 0.95693 0.26567 0.0
C175 C 0.05571 0.91442 0.21118 0.0
C176 C 0.09333 0.89464 0.20014 0.0
C177 C 0.01266 0.91689 0.19937 0.0
C178 C 0.97264 0.9389 0.20914 0.0
C179 C 0.98003 0.96838 0.21395 0.0
C180 C 0.94245 0.98881 0.22339 0.0
C181 C 0.8971 0.98015 0.22805 0.0
C182 C 0.88925 0.95101 0.22328 0.0
C183 C 0.92673 0.93046 0.21387 0.0
H184 H 0.86804 0.996 0.23538 0.0
H185 H 0.2322 0.79573 0.14514 0.0
H186 H 0.70782 0.61047 0.56478 0.0
H187 H 0.68545 0.58282 0.6052 0.0
H188 H 0.60041 0.65998 0.63871 0.0
H189 H 0.62083 0.68713 0.59796 0.0
H190 H 0.69751 0.58536 0.65439 0.0
H191 H 0.50694 0.64519 0.67711 0.0
H192 H 0.44213 0.66565 0.65168 0.0
H193 H 0.49677 0.61003 0.58422 0.0
H194 H 0.56153 0.58893 0.60937 0.0
H195 H 0.62251 0.58684 0.79083 0.0
H196 H 0.64375 0.59639 0.74334 0.0
H197 H 0.53355 0.54578 0.72201 0.0
H198 H 0.51053 0.53786 0.77001 0.0
H199 H 0.53151 0.59366 0.69469 0.0
H200 H 0.6487 0.51968 0.7106 0.0
H201 H 0.71164 0.49145 0.73236 0.0
H202 H 0.80009 0.56128 0.71766 0.0
H203 H 0.7375 0.59019 0.69593 0.0
C204 C 0.68434 0.62149 0.58081 0.0
C205 C 0.66578 0.65091 0.57815 0.0
C206 C 0.67157 0.60566 0.6039 0.0
C207 C 0.64038 0.61906 0.62484 0.0
C208 C 0.62329 0.64879 0.62253 0.0
C209 C 0.63531 0.66442 0.5993 0.0
C210 C 0.62618 0.6024 0.64939 0.0
C211 C 0.66122 0.58707 0.66315 0.0
C212 C 0.57851 0.60322 0.66022 0.0
C213 C 0.5393 0.61563 0.64509 0.0
C214 C 0.50499 0.6372 0.65691 0.0
C215 C 0.46829 0.64894 0.64253 0.0
C216 C 0.4654 0.6392 0.61633 0.0
C217 C 0.49913 0.61763 0.60448 0.0
C218 C 0.53588 0.6058 0.61878 0.0
C219 C 0.60309 0.57766 0.77591 0.0
C220 C 0.56581 0.56096 0.78374 0.0
C221 C 0.61545 0.58287 0.74882 0.0
C222 C 0.59094 0.57127 0.72904 0.0
C223 C 0.55331 0.55466 0.73691 0.0
C224 C 0.54063 0.54972 0.76417 0.0
C225 C 0.6032 0.57829 0.70041 0.0
C226 C 0.56776 0.59167 0.68582 0.0
C227 C 0.65023 0.57447 0.68835 0.0
C228 C 0.68819 0.55721 0.70153 0.0
C229 C 0.68144 0.52916 0.71202 0.0
C230 C 0.71712 0.51299 0.72438 0.0
C231 C 0.75984 0.52456 0.7264 0.0
C232 C 0.76699 0.55232 0.71603 0.0
C233 C 0.73143 0.56859 0.70361 0.0
H234 H 0.78742 0.51201 0.736 0.0
H235 H 0.43698 0.64834 0.60522 0.0
H236 H 0.55774 0.28733 0.65545 0.0
H237 H 0.5631 0.33082 0.68274 0.0
H238 H 0.53041 0.38659 0.61618 0.0
H239 H 0.52636 0.34289 0.58835 0.0
H240 H 0.59381 0.40958 0.64261 0.0
H241 H 0.4449 0.3762 0.6664 0.0
H242 H 0.38743 0.34075 0.67911 0.0
H243 H 0.45037 0.32242 0.75238 0.0
H244 H 0.50869 0.35745 0.73993 0.0
H245 H 0.50686 0.48683 0.78468 0.0
H246 H 0.491 0.46887 0.74074 0.0
H247 H 0.63892 0.44109 0.72199 0.0
H248 H 0.6547 0.45977 0.76559 0.0
H249 H 0.50187 0.41353 0.73219 0.0
H250 H 0.66988 0.4298 0.65977 0.0
H251 H 0.71494 0.47025 0.64243 0.0
H252 H 0.5929 0.53206 0.66042 0.0
H253 H 0.54765 0.49223 0.67865 0.0
C254 C 0.55203 0.30881 0.64651 0.0
C255 C 0.54115 0.31166 0.61982 0.0
C256 C 0.55495 0.3337 0.66217 0.0
C257 C 0.54611 0.36202 0.65171 0.0
C258 C 0.53711 0.36498 0.62472 0.0
C259 C 0.53471 0.33999 0.60888 0.0
C260 C 0.54464 0.38824 0.66948 0.0
C261 C 0.57359 0.41056 0.66216 0.0
C262 C 0.51646 0.39039 0.69444 0.0
C263 C 0.48135 0.36935 0.70214 0.0
C264 C 0.44668 0.36448 0.68515 0.0
C265 C 0.41393 0.34447 0.69231 0.0
C266 C 0.41529 0.32931 0.71652 0.0
C267 C 0.44937 0.33418 0.73363 0.0
C268 C 0.48224 0.35414 0.72655 0.0
C269 C 0.53618 0.4783 0.77054 0.0
C270 C 0.58201 0.47497 0.77826 0.0
C271 C 0.5271 0.46783 0.74552 0.0
C272 C 0.56369 0.4535 0.72799 0.0
C273 C 0.61011 0.45243 0.73486 0.0
C274 C 0.61914 0.46293 0.75987 0.0
C275 C 0.55282 0.43425 0.70595 0.0
C276 C 0.52156 0.41301 0.71249 0.0
C277 C 0.57737 0.43385 0.67997 0.0
C278 C 0.60549 0.45804 0.67064 0.0
C279 C 0.65282 0.45207 0.6602 0.0
C280 C 0.67843 0.47492 0.65033 0.0
C281 C 0.65684 0.50374 0.65038 0.0
C282 C 0.60973 0.50981 0.6606 0.0
C283 C 0.58423 0.48716 0.67096 0.0
H284 H 0.67659 0.52136 0.64252 0.0
H285 H 0.3899 0.31383 0.72203 0.0
H286 H 0.31552 0.26458 0.98785 0.0
H287 H 0.35334 0.30932 0.97792 0.0
H288 H 0.22139 0.3618 0.99948 0.0
H289 H 0.18363 0.31695 0.01053 0.0
H290 H 0.26252 0.37687 0.95055 0.0
H291 H 0.30692 0.36677 0.03827 0.0
H292 H 0.33649 0.34175 0.07777 0.0
H293 H 0.47167 0.32062 0.03335 0.0
H294 H 0.44275 0.34512 0.99344 0.0
H295 H 0.47294 0.47729 0.93879 0.0
H296 H 0.40994 0.45494 0.96605 0.0
H297 H 0.40026 0.39467 0.9009 0.0
H298 H 0.46224 0.41735 0.87367 0.0
H299 H 0.4143 0.39771 0.98208 0.0
H300 H 0.28123 0.37993 0.90219 0.0
H301 H 0.24903 0.4068 0.86442 0.0
H302 H 0.28725 0.48783 0.8951 0.0
H303 H 0.31927 0.46164 0.93313 0.0
C304 C 0.29464 0.28563 0.99093 0.0
C305 C 0.24618 0.28715 0.99911 0.0
C306 C 0.31633 0.31123 0.98527 0.0
C307 C 0.29014 0.33892 0.98786 0.0
C308 C 0.24212 0.34063 0.99707 0.0
C309 C 0.22044 0.31496 0.00298 0.0
C310 C 0.31276 0.36555 0.97894 0.0
C311 C 0.2955 0.38169 0.95751 0.0
C312 C 0.35478 0.3725 0.98884 0.0
C313 C 0.37255 0.35773 0.0128 0.0
C314 C 0.34287 0.35662 0.03685 0.0
C315 C 0.35953 0.34255 0.05933 0.0
C316 C 0.40591 0.32959 0.05807 0.0
C317 C 0.43575 0.3307 0.03431 0.0
C318 C 0.41926 0.34473 0.01176 0.0
C319 C 0.45605 0.46 0.93011 0.0
C320 C 0.47149 0.44941 0.90406 0.0
C321 C 0.42067 0.44698 0.94574 0.0
C322 C 0.40014 0.42335 0.93537 0.0
C323 C 0.41509 0.41318 0.90913 0.0
C324 C 0.4506 0.42601 0.89366 0.0
C325 C 0.36587 0.40746 0.95236 0.0
C326 C 0.38086 0.39339 0.97537 0.0
C327 C 0.32157 0.40266 0.94398 0.0
C328 C 0.30255 0.41868 0.92082 0.0
C329 C 0.28245 0.40351 0.9011 0.0
C330 C 0.26433 0.41864 0.87952 0.0
C331 C 0.26602 0.449 0.87736 0.0
C332 C 0.28596 0.4643 0.89674 0.0
C333 C 0.30418 0.44927 0.91833 0.0
H334 H 0.25194 0.46067 0.86065 0.0
H335 H 0.41875 0.3187 0.0755 0.0
H336 H 0.88833 0.72791 0.99426 0.0
H337 H 0.82634 0.70024 0.97985 0.0
H338 H 0.93147 0.63369 0.94414 0.0
H339 H 0.99352 0.66119 0.95826 0.0
H340 H 0.86417 0.64887 0.91092 0.0
H341 H 0.87079 0.62001 0.00249 0.0
H342 H 0.87064 0.62758 0.05131 0.0
H343 H 0.73171 0.67306 0.05493 0.0
H344 H 0.7313 0.66611 0.00604 0.0
H345 H 0.70723 0.54549 0.88528 0.0
H346 H 0.77144 0.56678 0.9045 0.0
H347 H 0.67141 0.6335 0.94457 0.0
H348 H 0.60709 0.61111 0.92688 0.0
H349 H 0.73784 0.6167 0.97603 0.0
H350 H 0.73323 0.64567 0.88343 0.0
H351 H 0.73407 0.63649 0.8348 0.0
H352 H 0.87115 0.58886 0.83328 0.0
H353 H 0.87091 0.59749 0.88195 0.0
C354 C 0.89823 0.70743 0.9833 0.0
C355 C 0.94583 0.69674 0.97744 0.0
C356 C 0.8628 0.69158 0.9752 0.0
C357 C 0.87437 0.6648 0.96113 0.0
C358 C 0.92183 0.6543 0.95497 0.0
C359 C 0.95721 0.67004 0.96313 0.0
C360 C 0.83705 0.6478 0.95261 0.0
C361 C 0.83689 0.64149 0.92518 0.0
C362 C 0.80113 0.63857 0.97119 0.0
C363 C 0.80124 0.64283 0.00057 0.0
C364 C 0.84038 0.63187 0.01366 0.0
C365 C 0.84036 0.63599 0.04135 0.0
C366 C 0.80125 0.65087 0.0562 0.0
C367 C 0.76202 0.66159 0.04339 0.0
C368 C 0.76188 0.65754 0.0157 0.0
C369 C 0.69886 0.56392 0.89902 0.0
C370 C 0.65216 0.57631 0.90488 0.0
C371 C 0.7356 0.57646 0.90959 0.0
C372 C 0.72624 0.60206 0.9256 0.0
C373 C 0.67946 0.61382 0.93222 0.0
C374 C 0.6428 0.60108 0.92195 0.0
C375 C 0.76497 0.6177 0.93433 0.0
C376 C 0.76518 0.62402 0.96177 0.0
C377 C 0.80121 0.62669 0.91577 0.0
C378 C 0.80181 0.62195 0.8864 0.0
C379 C 0.76343 0.6331 0.87275 0.0
C380 C 0.76382 0.62801 0.84517 0.0
C381 C 0.80257 0.61202 0.83097 0.0
C382 C 0.84111 0.60119 0.84431 0.0
C383 C 0.84088 0.60619 0.8719 0.0
H384 H 0.80279 0.60809 0.80963 0.0
H385 H 0.8013 0.65404 0.07763 0.0
H386 H 0.96745 0.35869 0.02115 0.0
H387 H 0.90293 0.39338 0.00869 0.0
H388 H 0.98226 0.40839 0.93294 0.0
H389 H 0.04714 0.37372 0.94522 0.0
H390 H 0.93355 0.4602 0.9563 0.0
H391 H 0.90366 0.36164 0.93412 0.0
H392 H 0.89406 0.30943 0.94313 0.0
H393 H 0.77991 0.33456 0.00356 0.0
H394 H 0.78931 0.38697 0.99516 0.0
H395 H 0.75378 0.48684 0.86664 0.0
H396 H 0.82198 0.47457 0.89184 0.0
H397 H 0.72948 0.47302 0.96521 0.0
H398 H 0.66135 0.48623 0.94004 0.0
H399 H 0.78258 0.41834 0.94839 0.0
H400 H 0.80763 0.51661 0.96844 0.0
H401 H 0.81891 0.56882 0.96158 0.0
H402 H 0.93943 0.54493 0.90505 0.0
H403 H 0.92925 0.49235 0.91186 0.0
C404 C 0.97145 0.36957 0.00194 0.0
C405 C 0.01225 0.36321 0.98405 0.0
C406 C 0.93453 0.38939 0.99488 0.0
C407 C 0.93772 0.40323 0.96982 0.0
C408 C 0.97918 0.39794 0.95239 0.0
C409 C 0.01606 0.37799 0.95938 0.0
C410 C 0.89655 0.42149 0.96099 0.0
C411 C 0.90061 0.45105 0.95436 0.0
C412 C 0.85328 0.40969 0.95914 0.0
C413 C 0.84759 0.37821 0.96426 0.0
C414 C 0.87681 0.35603 0.94951 0.0
C415 C 0.87135 0.3264 0.95447 0.0
C416 C 0.8365 0.31868 0.97397 0.0
C417 C 0.80696 0.34057 0.98851 0.0
C418 C 0.81233 0.37024 0.98365 0.0
C419 C 0.74842 0.48527 0.88832 0.0
C420 C 0.70277 0.48772 0.90158 0.0
C421 C 0.78724 0.47828 0.90269 0.0
C422 C 0.78067 0.47289 0.93036 0.0
C423 C 0.73522 0.47735 0.9439 0.0
C424 C 0.69646 0.48496 0.92959 0.0
C425 C 0.81948 0.45708 0.9436 0.0
C426 C 0.81519 0.42773 0.95077 0.0
C427 C 0.86238 0.46907 0.94582 0.0
C428 C 0.86744 0.50056 0.94051 0.0
C429 C 0.8362 0.52247 0.95429 0.0
C430 C 0.84252 0.55215 0.95049 0.0
C431 C 0.87973 0.56024 0.9328 0.0
C432 C 0.91063 0.53863 0.91877 0.0
C433 C 0.90475 0.50887 0.92268 0.0
H434 H 0.88489 0.5832 0.93011 0.0
H435 H 0.8323 0.29573 0.97777 0.0
H436 H 0.12543 0.65725 0.05739 0.0
H437 H 0.18828 0.61748 0.0462 0.0
H438 H 0.24887 0.6701 0.98277 0.0
H439 H 0.18707 0.70989 0.99402 0.0
H440 H 0.20684 0.58614 0.00074 0.0
H441 H 0.36375 0.656 0.97273 0.0
H442 H 0.39387 0.70072 0.98892 0.0
H443 H 0.32376 0.68892 0.06754 0.0
H444 H 0.29376 0.64388 0.05195 0.0
H445 H 0.37021 0.54695 0.88977 0.0
H446 H 0.30896 0.56125 0.92632 0.0
H447 H 0.41061 0.54506 0.98386 0.0
H448 H 0.47179 0.53069 0.94724 0.0
H449 H 0.37575 0.60151 0.98364 0.0
H450 H 0.31081 0.51168 0.99571 0.0
H451 H 0.28019 0.46509 0.98477 0.0
H452 H 0.17088 0.51263 0.9449 0.0
H453 H 0.2006 0.55957 0.95579 0.0
C454 C 0.15272 0.66057 0.04143 0.0
C455 C 0.15121 0.68678 0.0266 0.0
C456 C 0.18843 0.63774 0.03496 0.0
C457 C 0.22344 0.64085 0.01377 0.0
C458 C 0.22273 0.66734 0.99951 0.0
C459 C 0.18719 0.69009 0.00593 0.0
C460 C 0.25917 0.61602 0.00509 0.0
C461 C 0.24388 0.58932 0.99728 0.0
C462 C 0.30771 0.61974 0.00145 0.0
C463 C 0.32635 0.64658 0.01111 0.0
C464 C 0.35503 0.6628 0.99353 0.0
C465 C 0.37201 0.68825 0.00259 0.0
C466 C 0.36068 0.69768 0.02923 0.0
C467 C 0.33242 0.68163 0.04689 0.0
C468 C 0.31538 0.65616 0.03794 0.0
C469 C 0.37876 0.54497 0.91034 0.0
C470 C 0.42536 0.53737 0.91583 0.0
C471 C 0.34379 0.55311 0.93125 0.0
C472 C 0.35523 0.55429 0.95786 0.0
C473 C 0.40095 0.54412 0.96352 0.0
C474 C 0.43579 0.53569 0.94262 0.0
C475 C 0.32308 0.57227 0.97797 0.0
C476 C 0.33897 0.59789 0.98779 0.0
C477 C 0.27542 0.56725 0.98392 0.0
C478 C 0.25803 0.53915 0.97652 0.0
C479 C 0.28038 0.51221 0.98449 0.0
C480 C 0.26296 0.48575 0.97849 0.0
C481 C 0.22354 0.48592 0.96422 0.0
C482 C 0.20134 0.51255 0.95602 0.0
C483 C 0.21829 0.53911 0.96224 0.0
H484 H 0.21032 0.46538 0.95942 0.0
H485 H 0.37382 0.71741 0.03619 0.0
H486 H 0.67606 0.81344 0.478 0.0
H487 H 0.71465 0.85774 0.4679 0.0
H488 H 0.83504 0.82069 0.50609 0.0
H489 H 0.79464 0.77705 0.5181 0.0
H490 H 0.81911 0.8794 0.51563 0.0
H491 H 0.82896 0.81462 0.43729 0.0
H492 H 0.79514 0.78645 0.40324 0.0
H493 H 0.71799 0.86552 0.3784 0.0
H494 H 0.75102 0.8941 0.41252 0.0
H495 H 0.01914 0.92871 0.44525 0.0
H496 H 0.95385 0.90581 0.46862 0.0
H497 H 0.85726 0.95514 0.42056 0.0
H498 H 0.92321 0.97721 0.39625 0.0
H499 H 0.84679 0.89932 0.41815 0.0
H500 H 0.85306 0.96558 0.48893 0.0
H501 H 0.8873 0.99431 0.52226 0.0
H502 H 0.93394 0.91464 0.56146 0.0
H503 H 0.90052 0.8854 0.52809 0.0
C504 C 0.70959 0.81529 0.4855 0.0
C505 C 0.73153 0.79211 0.49966 0.0
C506 C 0.73219 0.84042 0.47916 0.0
C507 C 0.77797 0.84249 0.48601 0.0
C508 C 0.79962 0.81967 0.5007 0.0
C509 C 0.77668 0.79466 0.50738 0.0
C510 C 0.80487 0.86709 0.47597 0.0
C511 C 0.82547 0.88373 0.49433 0.0
C512 C 0.81152 0.87355 0.44824 0.0
C513 C 0.79203 0.8564 0.42761 0.0
C514 C 0.80457 0.82594 0.42466 0.0
C515 C 0.78558 0.80992 0.40534 0.0
C516 C 0.75433 0.82417 0.38872 0.0
C517 C 0.74213 0.8545 0.39132 0.0
C518 C 0.761 0.87063 0.41062 0.0
C519 C 0.98385 0.93517 0.44007 0.0
C520 C 0.9762 0.95493 0.41908 0.0
C521 C 0.94641 0.92225 0.45361 0.0
C522 C 0.90044 0.92893 0.44658 0.0
C523 C 0.89236 0.94978 0.42647 0.0
C524 C 0.92999 0.96263 0.41278 0.0
C525 C 0.86264 0.9111 0.45771 0.0
C526 C 0.83984 0.89562 0.43955 0.0
C527 C 0.85403 0.90585 0.4856 0.0
C528 C 0.87421 0.92328 0.5059 0.0
C529 C 0.87073 0.95417 0.50457 0.0
C530 C 0.89004 0.97055 0.52349 0.0
C531 C 0.91279 0.95631 0.54398 0.0
C532 C 0.91624 0.92565 0.54559 0.0
C533 C 0.89703 0.90916 0.52669 0.0
H534 H 0.92774 0.96902 0.55861 0.0
H535 H 0.73965 0.81172 0.37379 0.0
H536 H 0.36563 0.24014 0.49064 0.0
H537 H 0.30564 0.21887 0.46742 0.0
H538 H 0.32644 0.139 0.5125 0.0
H539 H 0.38613 0.15997 0.5358 0.0
H540 H 0.33779 0.13017 0.45741 0.0
H541 H 0.22616 0.18184 0.52389 0.0
H542 H 0.18831 0.22541 0.54959 0.0
H543 H 0.15032 0.26645 0.47659 0.0
H544 H 0.18855 0.22327 0.45039 0.0
H545 H 0.1557 0.04992 0.41999 0.0
H546 H 0.20684 0.07684 0.44515 0.0
H547 H 0.17809 0.15328 0.3966 0.0
H548 H 0.12863 0.1258 0.37068 0.0
H549 H 0.17035 0.16638 0.45157 0.0
H550 H 0.27842 0.11607 0.38503 0.0
H551 H 0.31849 0.07436 0.35768 0.0
H552 H 0.36705 0.03367 0.42857 0.0
H553 H 0.32572 0.07441 0.45638 0.0
C554 C 0.35672 0.21828 0.49602 0.0
C555 C 0.38102 0.20162 0.51486 0.0
C556 C 0.32238 0.2062 0.48276 0.0
C557 C 0.31184 0.17733 0.48818 0.0
C558 C 0.33426 0.16128 0.50798 0.0
C559 C 0.36832 0.17336 0.52131 0.0
C560 C 0.28109 0.16269 0.4715 0.0
C561 C 0.30095 0.1378 0.45647 0.0
C562 C 0.23368 0.17349 0.46942 0.0
C563 C 0.21067 0.19945 0.48515 0.0
C564 C 0.21013 0.20027 0.51328 0.0
C565 C 0.18852 0.22487 0.52795 0.0
C566 C 0.16704 0.24872 0.51473 0.0
C567 C 0.16703 0.24798 0.48681 0.0
C568 C 0.18863 0.22344 0.47204 0.0
C569 C 0.16192 0.07197 0.41405 0.0
C570 C 0.13975 0.08527 0.3928 0.0
C571 C 0.19028 0.08758 0.42872 0.0
C572 C 0.19642 0.11702 0.4226 0.0
C573 C 0.17375 0.13059 0.40163 0.0
C574 C 0.14578 0.11482 0.38678 0.0
C575 C 0.22686 0.13342 0.43805 0.0
C576 C 0.20713 0.15871 0.45262 0.0
C577 C 0.27466 0.12324 0.43952 0.0
C578 C 0.29848 0.09818 0.42286 0.0
C579 C 0.29695 0.09796 0.39484 0.0
C580 C 0.31989 0.07445 0.37921 0.0
C581 C 0.34512 0.05125 0.39132 0.0
C582 C 0.34724 0.05144 0.41911 0.0
C583 C 0.32394 0.07472 0.43485 0.0
H584 H 0.36321 0.03329 0.37906 0.0
H585 H 0.15032 0.26775 0.52612 0.0
H586 H 0.55314 0.86995 0.4253 0.0
H587 H 0.49077 0.90545 0.41192 0.0
H588 H 0.43591 0.91902 0.495 0.0
H589 H 0.49774 0.88291 0.50853 0.0
H590 H 0.36828 0.90914 0.46567 0.0
H591 H 0.48954 0.97314 0.45846 0.0
H592 H 0.56805 0.98881 0.44469 0.0
H593 H 0.54414 0.98157 0.36172 0.0
H594 H 0.46576 0.96542 0.37496 0.0
H595 H 0.18361 0.00326 0.43115 0.0
H596 H 0.25866 0.99332 0.45008 0.0
H597 H 0.32791 0.97274 0.37077 0.0
H598 H 0.25339 0.98514 0.35167 0.0
H599 H 0.38998 0.99014 0.40117 0.0
H600 H 0.27507 0.92058 0.409 0.0
H601 H 0.19698 0.90378 0.4218 0.0
H602 H 0.2099 0.92211 0.50476 0.0
H603 H 0.28783 0.93946 0.49238 0.0
C604 C 0.52817 0.88072 0.44078 0.0
C605 C 0.53024 0.87347 0.46797 0.0
C606 C 0.49268 0.90121 0.43311 0.0
C607 C 0.45891 0.91517 0.45247 0.0
C608 C 0.46165 0.90856 0.47971 0.0
C609 C 0.49701 0.88793 0.48741 0.0
C610 C 0.41858 0.93466 0.44403 0.0
C611 C 0.37298 0.92756 0.45232 0.0
C612 C 0.42472 0.95802 0.42584 0.0
C613 C 0.47185 0.96782 0.41772 0.0
C614 C 0.50115 0.97466 0.43727 0.0
C615 C 0.54562 0.98367 0.42956 0.0
C616 C 0.56111 0.98612 0.40235 0.0
C617 C 0.53211 0.97964 0.38279 0.0
C618 C 0.48762 0.97059 0.39039 0.0
C619 C 0.21541 0.9989 0.41759 0.0
C620 C 0.21303 0.99591 0.38988 0.0
C621 C 0.25821 0.99246 0.42847 0.0
C622 C 0.29865 0.98136 0.41193 0.0
C623 C 0.2972 0.98108 0.38397 0.0
C624 C 0.25464 0.98827 0.37305 0.0
C625 C 0.33949 0.96562 0.42376 0.0
C626 C 0.38514 0.97276 0.41555 0.0
C627 C 0.33351 0.94242 0.4422 0.0
C628 C 0.28699 0.93162 0.44974 0.0
C629 C 0.26113 0.92118 0.42995 0.0
C630 C 0.21691 0.91156 0.43713 0.0
C631 C 0.19844 0.91195 0.46407 0.0
C632 C 0.22422 0.92188 0.4839 0.0
C633 C 0.2684 0.93161 0.47682 0.0
H634 H 0.16419 0.9045 0.46959 0.0
H635 H 0.59555 0.99309 0.39642 0.0
H636 H 0.66004 0.16657 0.56591 0.0
H637 H 0.72084 0.12667 0.55072 0.0
H638 H 0.68639 0.13877 0.46928 0.0
H639 H 0.62639 0.17854 0.48403 0.0
H640 H 0.69404 0.07898 0.48569 0.0
H641 H 0.77894 0.16693 0.48788 0.0
H642 H 0.80636 0.20871 0.51098 0.0
H643 H 0.87248 0.14926 0.56555 0.0
H644 H 0.84491 0.10715 0.54293 0.0
H645 H 0.87103 0.05484 0.38244 0.0
H646 H 0.80722 0.06616 0.41794 0.0
H647 H 0.89896 0.0347 0.47728 0.0
H648 H 0.96329 0.02302 0.44136 0.0
H649 H 0.86352 0.09161 0.48615 0.0
H650 H 0.79993 0.00348 0.4748 0.0
H651 H 0.7746 0.96072 0.4522 0.0
H652 H 0.66919 0.01721 0.4169 0.0
H653 H 0.69452 0.06035 0.43891 0.0
C654 C 0.66568 0.16084 0.54475 0.0
C655 C 0.63846 0.17586 0.52618 0.0
C656 C 0.70023 0.13797 0.53615 0.0
C657 C 0.70772 0.12963 0.50893 0.0
C658 C 0.68079 0.14467 0.49042 0.0
C659 C 0.64678 0.16763 0.49889 0.0
C660 C 0.74459 0.106 0.49903 0.0
C661 C 0.73116 0.08156 0.4858 0.0
C662 C 0.79289 0.10869 0.50043 0.0
C663 C 0.80931 0.13398 0.514 0.0
C664 C 0.79894 0.16282 0.50497 0.0
C665 C 0.81459 0.18654 0.51793 0.0
C666 C 0.84099 0.18165 0.53979 0.0
C667 C 0.85191 0.15302 0.54867 0.0
C668 C 0.83629 0.12922 0.53579 0.0
C669 C 0.87708 0.04938 0.40297 0.0
C670 C 0.92191 0.03822 0.40927 0.0
C671 C 0.84054 0.0557 0.42327 0.0
C672 C 0.84829 0.05131 0.4503 0.0
C673 C 0.89224 0.03818 0.45654 0.0
C674 C 0.92881 0.03143 0.43606 0.0
C675 C 0.81308 0.06532 0.47139 0.0
C676 C 0.82659 0.08814 0.48678 0.0
C677 C 0.76488 0.06094 0.47214 0.0
C678 C 0.74935 0.0352 0.45851 0.0
C679 C 0.77166 0.0068 0.46203 0.0
C680 C 0.75725 0.98249 0.44934 0.0
C681 C 0.72034 0.98625 0.43308 0.0
C682 C 0.69778 0.01433 0.42951 0.0
C683 C 0.71212 0.03873 0.44215 0.0
H684 H 0.70917 0.96741 0.42328 0.0
H685 H 0.8531 0.20005 0.54979 0.0
loop_
_geom_bond_atom_site_label_1
_geom_bond_atom_site_label_2
_geom_bond_distance
_geom_bond_site_symmetry_2
_ccdc_geom_bond_type
O0 Cd1 2.300 . S
O0 C7 1.275 . S
Cd1 O0 2.300 . S
Cd1 O9 2.381 . S
Cd1 O10 2.378 . S
O2 Cd3 2.385 . S
O2 C7 1.255 . S
Cd3 O2 2.385 . S
Cd3 O4 2.317 . S
O4 Cd3 2.317 . S
O4 C5 1.232 1_554 S
C5 O4 1.232 1_556 S
C5 O6 1.218 . S
O6 C5 1.218 . S
C7 O0 1.275 . S
C7 O2 1.255 . S
C8 O9 1.258 . S
C8 O10 1.256 . S
O9 Cd1 2.381 . S
O9 C8 1.258 . S
O10 Cd1 2.378 . S
O10 C8 1.256 . S
O11 Cd12 2.300 . S
O11 C18 1.275 . S
Cd12 O11 2.300 . S
Cd12 O20 2.381 . S
Cd12 O21 2.378 1_455 S
O13 Cd14 2.385 1_455 S
O13 C18 1.255 1_556 S
Cd14 O13 2.385 1_655 S
Cd14 O15 2.317 1_556 S
O15 Cd14 2.317 1_554 S
O15 C16 1.232 1_554 S
C16 O15 1.232 1_556 S
C16 O17 1.218 . S
O17 C16 1.218 . S
C18 O11 1.275 . S
C18 O13 1.255 1_554 S
C19 O20 1.258 . S
C19 O21 1.256 1_455 S
O20 Cd12 2.381 . S
O20 C19 1.258 . S
O21 Cd12 2.378 1_655 S
O21 C19 1.256 1_655 S
O22 Cd23 2.300 . S
O22 C29 1.275 . S
Cd23 O22 2.300 . S
Cd23 O31 2.381 . S
Cd23 O32 2.378 . S
O24 Cd25 2.385 . S
O24 C29 1.255 . S
Cd25 O24 2.385 . S
Cd25 O26 2.317 . S
O26 Cd25 2.317 . S
O26 C27 1.232 . S
C27 O26 1.232 . S
C27 O28 1.218 . S
O28 C27 1.218 . S
C29 O22 1.275 . S
C29 O24 1.255 . S
C30 O31 1.258 . S
C30 O32 1.256 . S
O31 Cd23 2.381 . S
O31 C30 1.258 . S
O32 Cd23 2.378 . S
O32 C30 1.256 . S
O33 Cd34 2.300 . S
O33 C40 1.275 . S
Cd34 O33 2.300 . S
Cd34 O42 2.381 . S
Cd34 O43 2.378 . S
O35 Cd36 2.385 . S
O35 C40 1.255 . S
Cd36 O35 2.385 . S
Cd36 O37 2.317 . S
O37 Cd36 2.317 . S
O37 C38 1.232 . S
C38 O37 1.232 . S
C38 O39 1.218 . S
O39 C38 1.218 . S
C40 O33 1.275 . S
C40 O35 1.255 . S
C41 O42 1.258 . S
C41 O43 1.256 . S
O42 Cd34 2.381 . S
O42 C41 1.258 . S
O43 Cd34 2.378 . S
O43 C41 1.256 . S
Zn44 O50 1.920 . S
Zn44 O56 1.898 . S
Zn44 O59 1.905 . S
Zn45 O53 1.905 . S
Zn45 O54 1.898 . S
Zn45 O62 1.920 . S
Zn46 O49 2.080 . S
Zn46 O52 2.114 1_545 S
Zn46 O55 2.120 1_545 S
Zn46 O57 2.120 . S
Zn46 O58 2.114 . S
Zn46 O61 2.080 1_545 S
C47 O52 1.166 . S
C47 O53 1.182 . S
C48 O54 1.167 . S
C48 O55 1.299 . S
O49 Zn46 2.080 . S
O49 C63 1.305 . S
O50 Zn44 1.920 . S
O50 C63 1.234 . S
C51 O56 1.167 . S
C51 O57 1.299 . S
O52 Zn46 2.114 1_565 S
O52 C47 1.166 . S
O53 Zn45 1.905 . S
O53 C47 1.182 . S
O54 Zn45 1.898 . S
O54 C48 1.167 . S
O55 Zn46 2.120 1_565 S
O55 C48 1.299 . S
O56 Zn44 1.898 . S
O56 C51 1.167 . S
O57 Zn46 2.120 . S
O57 C51 1.299 . S
O58 Zn46 2.114 . S
O58 C60 1.166 1_455 S
O59 Zn44 1.905 . S
O59 C60 1.182 1_455 S
C60 O58 1.166 1_655 S
C60 O59 1.182 1_655 S
O61 Zn46 2.080 1_565 S
O61 C64 1.305 . S
O62 Zn45 1.920 . S
O62 C64 1.234 . S
C63 O49 1.305 . S
C63 O50 1.234 . S
C64 O61 1.305 . S
C64 O62 1.234 . S
Zn65 O71 1.920 . S
Zn65 O77 1.898 . S
Zn65 O80 1.905 . S
Zn66 O74 1.905 . S
Zn66 O75 1.898 . S
Zn66 O83 1.920 . S
Zn67 O70 2.080 . S
Zn67 O73 2.114 . S
Zn67 O76 2.120 . S
Zn67 O78 2.120 . S
Zn67 O79 2.114 . S
Zn67 O82 2.080 . S
C68 O73 1.166 . S
C68 O74 1.182 . S
C69 O75 1.167 . S
C69 O76 1.299 . S
O70 Zn67 2.080 . S
O70 C84 1.305 . S
O71 Zn65 1.920 . S
O71 C84 1.234 . S
C72 O77 1.167 . S
C72 O78 1.299 . S
O73 Zn67 2.114 . S
O73 C68 1.166 . S
O74 Zn66 1.905 . S
O74 C68 1.182 . S
O75 Zn66 1.898 . S
O75 C69 1.167 . S
O76 Zn67 2.120 . S
O76 C69 1.299 . S
O77 Zn65 1.898 . S
O77 C72 1.167 . S
O78 Zn67 2.120 . S
O78 C72 1.299 . S
O79 Zn67 2.114 . S
O79 C81 1.166 . S
O80 Zn65 1.905 . S
O80 C81 1.182 . S
C81 O79 1.166 . S
C81 O80 1.182 . S
O82 Zn67 2.080 . S
O82 C85 1.305 . S
O83 Zn66 1.920 . S
O83 C85 1.234 . S
C84 O70 1.305 . S
C84 O71 1.234 . S
C85 O82 1.305 . S
C85 O83 1.234 . S
H86 C104 0.951 . S
H87 C106 0.951 . S
H88 C108 0.950 . S
H89 C109 0.950 . S
H90 C111 0.950 . S
H91 C114 0.950 . S
H92 C115 0.950 . S
H93 C117 0.950 . S
H94 C118 0.950 . S
H95 C119 0.951 . S
H96 C121 0.951 . S
H97 C123 0.950 . S
H98 C124 0.950 . S
H99 C126 0.950 . S
H100 C129 0.950 . S
H101 C130 0.950 . S
H102 C132 0.950 . S
H103 C133 0.950 . S
C104 H86 0.951 . S
C104 C105 1.366 . S
C104 C106 1.388 . S
C105 C104 1.366 . S
C105 C109 1.385 . S
C106 H87 0.951 . S
C106 C104 1.388 . S
C106 C107 1.366 . S
C107 C106 1.366 . S
C107 C108 1.414 . S
C107 C110 1.499 . S
C108 H88 0.950 . S
C108 C107 1.414 . S
C108 C109 1.374 . S
C109 H89 0.950 . S
C109 C105 1.385 . S
C109 C108 1.374 . S
C110 C107 1.499 . S
C110 C111 1.373 . S
C110 C112 1.389 . S
C111 H90 0.950 . S
C111 C110 1.373 . S
C111 C127 1.377 . S
C112 C110 1.389 . S
C112 C113 1.524 . S
C112 C126 1.377 . S
C113 C112 1.524 . S
C113 C114 1.397 . S
C113 C118 1.363 . S
C114 H91 0.950 . S
C114 C113 1.397 . S
C114 C115 1.334 . S
C115 H92 0.950 . S
C115 C114 1.334 . S
C115 C116 1.287 . S
C116 C115 1.287 . S
C116 C117 1.524 . S
C116 H135 0.913 . S
C117 H93 0.950 . S
C117 C116 1.524 . S
C117 C118 1.415 . S
C118 H94 0.950 . S
C118 C113 1.363 . S
C118 C117 1.415 . S
C119 H95 0.951 . S
C119 C120 1.366 . S
C119 C121 1.388 . S
C120 C119 1.366 . S
C120 C124 1.385 . S
C121 H96 0.951 . S
C121 C119 1.388 . S
C121 C122 1.366 . S
C122 C121 1.366 . S
C122 C123 1.414 . S
C122 C125 1.499 . S
C123 H97 0.950 . S
C123 C122 1.414 . S
C123 C124 1.374 . S
C124 H98 0.950 . S
C124 C120 1.385 . S
C124 C123 1.374 . S
C125 C122 1.499 . S
C125 C126 1.373 . S
C125 C127 1.389 . S
C126 H99 0.950 . S
C126 C112 1.377 . S
C126 C125 1.373 . S
C127 C111 1.377 . S
C127 C125 1.389 . S
C127 C128 1.524 . S
C128 C127 1.524 . S
C128 C129 1.397 . S
C128 C133 1.363 . S
C129 H100 0.950 . S
C129 C128 1.397 . S
C129 C130 1.334 . S
C130 H101 0.950 . S
C130 C129 1.334 . S
C130 C131 1.287 . S
C131 C130 1.287 . S
C131 C132 1.524 . S
C131 H134 0.999 1_545 S
C132 H102 0.950 . S
C132 C131 1.524 . S
C132 C133 1.415 . S
C133 H103 0.950 . S
C133 C128 1.363 . S
C133 C132 1.415 . S
H134 C131 0.999 1_565 S
H135 C116 0.913 . S
H136 C154 0.951 . S
H137 C156 0.951 . S
H138 C158 0.950 . S
H139 C159 0.950 . S
H140 C161 0.950 . S
H141 C164 0.950 . S
H142 C165 0.950 . S
H143 C167 0.950 . S
H144 C168 0.950 . S
H145 C169 0.951 . S
H146 C171 0.951 1_655 S
H147 C173 0.950 . S
H148 C174 0.950 . S
H149 C176 0.950 . S
H150 C179 0.950 . S
H151 C180 0.950 . S
H152 C182 0.950 . S
H153 C183 0.950 . S
C154 H136 0.951 . S
C154 C155 1.366 . S
C154 C156 1.388 . S
C155 C154 1.366 . S
C155 C159 1.385 1_455 S
C156 H137 0.951 . S
C156 C154 1.388 . S
C156 C157 1.366 . S
C157 C156 1.366 . S
C157 C158 1.414 1_455 S
C157 C160 1.499 . S
C158 H138 0.950 . S
C158 C157 1.414 1_655 S
C158 C159 1.374 . S
C159 H139 0.950 . S
C159 C155 1.385 1_655 S
C159 C158 1.374 . S
C160 C157 1.499 . S
C160 C161 1.373 1_455 S
C160 C162 1.389 . S
C161 H140 0.950 . S
C161 C160 1.373 1_655 S
C161 C177 1.377 . S
C162 C160 1.389 . S
C162 C163 1.524 . S
C162 C176 1.377 . S
C163 C162 1.524 . S
C163 C164 1.397 . S
C163 C168 1.363 . S
C164 H141 0.950 . S
C164 C163 1.397 . S
C164 C165 1.334 . S
C165 H142 0.950 . S
C165 C164 1.334 . S
C165 C166 1.287 . S
C166 C165 1.287 . S
C166 C167 1.524 . S
C166 H185 0.913 . S
C167 H143 0.950 . S
C167 C166 1.524 . S
C167 C168 1.415 . S
C168 H144 0.950 . S
C168 C163 1.363 . S
C168 C167 1.415 . S
C169 H145 0.951 . S
C169 C170 1.366 . S
C169 C171 1.388 . S
C170 C169 1.366 . S
C170 C174 1.385 . S
C171 H146 0.951 1_455 S
C171 C169 1.388 . S
C171 C172 1.366 . S
C172 C171 1.366 . S
C172 C173 1.414 . S
C172 C175 1.499 . S
C173 H147 0.950 . S
C173 C172 1.414 . S
C173 C174 1.374 . S
C174 H148 0.950 . S
C174 C170 1.385 . S
C174 C173 1.374 . S
C175 C172 1.499 . S
C175 C176 1.373 . S
C175 C177 1.389 1_455 S
C176 H149 0.950 . S
C176 C162 1.377 . S
C176 C175 1.373 . S
C177 C161 1.377 . S
C177 C175 1.389 1_655 S
C177 C178 1.524 . S
C178 C177 1.524 . S
C178 C179 1.397 . S
C178 C183 1.363 . S
C179 H150 0.950 . S
C179 C178 1.397 . S
C179 C180 1.334 . S
C180 H151 0.950 . S
C180 C179 1.334 . S
C180 C181 1.287 . S
C181 C180 1.287 . S
C181 C182 1.524 . S
C181 H184 0.999 . S
C182 H152 0.950 . S
C182 C181 1.524 . S
C182 C183 1.415 . S
C183 H153 0.950 . S
C183 C178 1.363 . S
C183 C182 1.415 . S
H184 C181 0.999 . S
H185 C166 0.913 . S
H186 C204 0.951 . S
H187 C206 0.951 . S
H188 C208 0.950 . S
H189 C209 0.950 . S
H190 C211 0.950 . S
H191 C214 0.950 . S
H192 C215 0.950 . S
H193 C217 0.950 . S
H194 C218 0.950 . S
H195 C219 0.951 . S
H196 C221 0.951 . S
H197 C223 0.950 . S
H198 C224 0.950 . S
H199 C226 0.950 . S
H200 C229 0.950 . S
H201 C230 0.950 . S
H202 C232 0.950 . S
H203 C233 0.950 . S
C204 H186 0.951 . S
C204 C205 1.366 . S
C204 C206 1.388 . S
C205 C204 1.366 . S
C205 C209 1.385 . S
C206 H187 0.951 . S
C206 C204 1.388 . S
C206 C207 1.366 . S
C207 C206 1.366 . S
C207 C208 1.414 . S
C207 C210 1.499 . S
C208 H188 0.950 . S
C208 C207 1.414 . S
C208 C209 1.374 . S
C209 H189 0.950 . S
C209 C205 1.385 . S
C209 C208 1.374 . S
C210 C207 1.499 . S
C210 C211 1.373 . S
C210 C212 1.389 . S
C211 H190 0.950 . S
C211 C210 1.373 . S
C211 C227 1.377 . S
C212 C210 1.389 . S
C212 C213 1.524 . S
C212 C226 1.377 . S
C213 C212 1.524 . S
C213 C214 1.397 . S
C213 C218 1.363 . S
C214 H191 0.950 . S
C214 C213 1.397 . S
C214 C215 1.334 . S
C215 H192 0.950 . S
C215 C214 1.334 . S
C215 C216 1.287 . S
C216 C215 1.287 . S
C216 C217 1.524 . S
C216 H235 0.913 . S
C217 H193 0.950 . S
C217 C216 1.524 . S
C217 C218 1.415 . S
C218 H194 0.950 . S
C218 C213 1.363 . S
C218 C217 1.415 . S
C219 H195 0.951 . S
C219 C220 1.366 . S
C219 C221 1.388 . S
C220 C219 1.366 . S
C220 C224 1.385 . S
C221 H196 0.951 . S
C221 C219 1.388 . S
C221 C222 1.366 . S
C222 C221 1.366 . S
C222 C223 1.414 . S
C222 C225 1.499 . S
C223 H197 0.950 . S
C223 C222 1.414 . S
C223 C224 1.374 . S
C224 H198 0.950 . S
C224 C220 1.385 . S
C224 C223 1.374 . S
C225 C222 1.499 . S
C225 C226 1.373 . S
C225 C227 1.389 . S
C226 H199 0.950 . S
C226 C212 1.377 . S
C226 C225 1.373 . S
C227 C211 1.377 . S
C227 C225 1.389 . S
C227 C228 1.524 . S
C228 C227 1.524 . S
C228 C229 1.397 . S
C228 C233 1.363 . S
C229 H200 0.950 . S
C229 C228 1.397 . S
C229 C230 1.334 . S
C230 H201 0.950 . S
C230 C229 1.334 . S
C230 C231 1.287 . S
C231 C230 1.287 . S
C231 C232 1.524 . S
C231 H234 0.999 . S
C232 H202 0.950 . S
C232 C231 1.524 . S
C232 C233 1.415 . S
C233 H203 0.950 . S
C233 C228 1.363 . S
C233 C232 1.415 . S
H234 C231 0.999 . S
H235 C216 0.913 . S
H236 C254 0.951 . S
H237 C256 0.951 . S
H238 C258 0.950 . S
H239 C259 0.950 . S
H240 C261 0.950 . S
H241 C264 0.950 . S
H242 C265 0.950 . S
H243 C267 0.950 . S
H244 C268 0.950 . S
H245 C269 0.951 . S
H246 C271 0.951 . S
H247 C273 0.950 . S
H248 C274 0.950 . S
H249 C276 0.950 . S
H250 C279 0.950 . S
H251 C280 0.950 . S
H252 C282 0.950 . S
H253 C283 0.950 . S
C254 H236 0.951 . S
C254 C255 1.366 . S
C254 C256 1.388 . S
C255 C254 1.366 . S
C255 C259 1.385 . S
C256 H237 0.951 . S
C256 C254 1.388 . S
C256 C257 1.366 . S
C257 C256 1.366 . S
C257 C258 1.414 . S
C257 C260 1.499 . S
C258 H238 0.950 . S
C258 C257 1.414 . S
C258 C259 1.374 . S
C259 H239 0.950 . S
C259 C255 1.385 . S
C259 C258 1.374 . S
C260 C257 1.499 . S
C260 C261 1.373 . S
C260 C262 1.389 . S
C261 H240 0.950 . S
C261 C260 1.373 . S
C261 C277 1.377 . S
C262 C260 1.389 . S
C262 C263 1.524 . S
C262 C276 1.377 . S
C263 C262 1.524 . S
C263 C264 1.397 . S
C263 C268 1.363 . S
C264 H241 0.950 . S
C264 C263 1.397 . S
C264 C265 1.334 . S
C265 H242 0.950 . S
C265 C264 1.334 . S
C265 C266 1.287 . S
C266 C265 1.287 . S
C266 C267 1.524 . S
C266 H285 0.913 . S
C267 H243 0.950 . S
C267 C266 1.524 . S
C267 C268 1.415 . S
C268 H244 0.950 . S
C268 C263 1.363 . S
C268 C267 1.415 . S
C269 H245 0.951 . S
C269 C270 1.366 . S
C269 C271 1.388 . S
C270 C269 1.366 . S
C270 C274 1.385 . S
C271 H246 0.951 . S
C271 C269 1.388 . S
C271 C272 1.366 . S
C272 C271 1.366 . S
C272 C273 1.414 . S
C272 C275 1.499 . S
C273 H247 0.950 . S
C273 C272 1.414 . S
C273 C274 1.374 . S
C274 H248 0.950 . S
C274 C270 1.385 . S
C274 C273 1.374 . S
C275 C272 1.499 . S
C275 C276 1.373 . S
C275 C277 1.389 . S
C276 H249 0.950 . S
C276 C262 1.377 . S
C276 C275 1.373 . S
C277 C261 1.377 . S
C277 C275 1.389 . S
C277 C278 1.524 . S
C278 C277 1.524 . S
C278 C279 1.397 . S
C278 C283 1.363 . S
C279 H250 0.950 . S
C279 C278 1.397 . S
C279 C280 1.334 . S
C280 H251 0.950 . S
C280 C279 1.334 . S
C280 C281 1.287 . S
C281 C280 1.287 . S
C281 C282 1.524 . S
C281 H284 0.999 . S
C282 H252 0.950 . S
C282 C281 1.524 . S
C282 C283 1.415 . S
C283 H253 0.950 . S
C283 C278 1.363 . S
C283 C282 1.415 . S
H284 C281 0.999 . S
H285 C266 0.913 . S
H286 C304 0.951 . S
H287 C306 0.951 . S
H288 C308 0.950 . S
H289 C309 0.966 . S
H290 C311 0.950 . S
H291 C314 0.950 . S
H292 C315 0.950 . S
H293 C317 0.950 . S
H294 C318 0.950 . S
H295 C319 0.951 . S
H296 C321 0.951 . S
H297 C323 0.950 . S
H298 C324 0.950 . S
H299 C326 0.950 . S
H300 C329 0.950 . S
H301 C330 0.950 . S
H302 C332 0.950 . S
H303 C333 0.950 . S
C304 H286 0.951 . S
C304 C305 1.366 . S
C304 C306 1.388 . S
C305 C304 1.366 . S
C305 C309 1.379 1_556 S
C306 H287 0.951 . S
C306 C304 1.388 . S
C306 C307 1.366 . S
C307 C306 1.366 . S
C307 C308 1.414 . S
C307 C310 1.499 . S
C308 H288 0.950 . S
C308 C307 1.414 . S
C308 C309 1.365 1_556 S
C309 H289 0.966 . S
C309 C305 1.379 1_554 S
C309 C308 1.365 1_554 S
C310 C307 1.499 . S
C310 C311 1.373 . S
C310 C312 1.389 . S
C311 H290 0.950 . S
C311 C310 1.373 . S
C311 C327 1.377 . S
C312 C310 1.389 . S
C312 C313 1.524 . S
C312 C326 1.377 . S
C313 C312 1.524 . S
C313 C314 1.397 1_556 S
C313 C318 1.363 . S
C314 H291 0.950 . S
C314 C313 1.397 1_554 S
C314 C315 1.334 . S
C315 H292 0.950 . S
C315 C314 1.334 . S
C315 C316 1.287 . S
C316 C315 1.287 . S
C316 C317 1.524 1_554 S
C316 H335 0.913 . S
C317 H293 0.950 . S
C317 C316 1.524 1_556 S
C317 C318 1.415 . S
C318 H294 0.950 . S
C318 C313 1.363 . S
C318 C317 1.415 . S
C319 H295 0.951 . S
C319 C320 1.366 . S
C319 C321 1.388 . S
C320 C319 1.366 . S
C320 C324 1.385 . S
C321 H296 0.951 . S
C321 C319 1.388 . S
C321 C322 1.366 . S
C322 C321 1.366 . S
C322 C323 1.414 . S
C322 C325 1.499 . S
C323 H297 0.950 . S
C323 C322 1.414 . S
C323 C324 1.374 . S
C324 H298 0.950 . S
C324 C320 1.385 . S
C324 C323 1.374 . S
C325 C322 1.499 . S
C325 C326 1.373 . S
C325 C327 1.389 . S
C326 H299 0.950 . S
C326 C312 1.377 . S
C326 C325 1.373 . S
C327 C311 1.377 . S
C327 C325 1.389 . S
C327 C328 1.524 . S
C328 C327 1.524 . S
C328 C329 1.397 . S
C328 C333 1.363 . S
C329 H300 0.950 . S
C329 C328 1.397 . S
C329 C330 1.334 . S
C330 H301 0.950 . S
C330 C329 1.334 . S
C330 C331 1.287 . S
C331 C330 1.287 . S
C331 C332 1.524 . S
C331 H334 0.999 . S
C332 H302 0.950 . S
C332 C331 1.524 . S
C332 C333 1.415 . S
C333 H303 0.950 . S
C333 C328 1.363 . S
C333 C332 1.415 . S
H334 C331 0.999 . S
H335 C316 0.913 . S
H336 C354 0.951 . S
H337 C356 0.951 1_554 S
H338 C358 0.950 . S
H339 C359 0.950 . S
H340 C361 0.950 . S
H341 C364 0.950 . S
H342 C365 0.950 . S
H343 C367 0.950 . S
H344 C368 0.950 . S
H345 C369 0.951 . S
H346 C371 0.951 . S
H347 C373 0.950 . S
H348 C374 0.950 . S
H349 C376 0.950 . S
H350 C379 0.950 . S
H351 C380 0.950 . S
H352 C382 0.950 . S
H353 C383 0.950 . S
C354 H336 0.951 . S
C354 C355 1.366 1_554 S
C354 C356 1.388 1_554 S
C355 C354 1.366 1_556 S
C355 C359 1.385 . S
C356 H337 0.951 1_556 S
C356 C354 1.388 1_556 S
C356 C357 1.366 . S
C357 C356 1.366 . S
C357 C358 1.414 . S
C357 C360 1.499 . S
C358 H338 0.950 . S
C358 C357 1.414 . S
C358 C359 1.374 . S
C359 H339 0.950 . S
C359 C355 1.385 . S
C359 C358 1.374 . S
C360 C357 1.499 . S
C360 C361 1.373 . S
C360 C362 1.389 . S
C361 H340 0.950 . S
C361 C360 1.373 . S
C361 C377 1.377 . S
C362 C360 1.389 . S
C362 C363 1.524 1_556 S
C362 C376 1.377 . S
C363 C362 1.524 1_554 S
C363 C364 1.397 . S
C363 C368 1.363 . S
C364 H341 0.950 . S
C364 C363 1.397 . S
C364 C365 1.334 . S
C365 H342 0.950 . S
C365 C364 1.334 . S
C365 C366 1.287 . S
C366 C365 1.287 . S
C366 C367 1.524 . S
C366 H385 0.913 . S
C367 H343 0.950 . S
C367 C366 1.524 . S
C367 C368 1.415 . S
C368 H344 0.950 . S
C368 C363 1.363 . S
C368 C367 1.415 . S
C369 H345 0.951 . S
C369 C370 1.366 . S
C369 C371 1.388 . S
C370 C369 1.366 . S
C370 C374 1.385 . S
C371 H346 0.951 . S
C371 C369 1.388 . S
C371 C372 1.366 . S
C372 C371 1.366 . S
C372 C373 1.414 . S
C372 C375 1.499 . S
C373 H347 0.950 . S
C373 C372 1.414 . S
C373 C374 1.374 . S
C374 H348 0.950 . S
C374 C370 1.385 . S
C374 C373 1.374 . S
C375 C372 1.499 . S
C375 C376 1.373 . S
C375 C377 1.389 . S
C376 H349 0.950 . S
C376 C362 1.377 . S
C376 C375 1.373 . S
C377 C361 1.377 . S
C377 C375 1.389 . S
C377 C378 1.524 . S
C378 C377 1.524 . S
C378 C379 1.397 . S
C378 C383 1.363 . S
C379 H350 0.950 . S
C379 C378 1.397 . S
C379 C380 1.334 . S
C380 H351 0.950 . S
C380 C379 1.334 . S
C380 C381 1.287 . S
C381 C380 1.287 . S
C381 C382 1.524 . S
C381 H384 0.999 . S
C382 H352 0.950 . S
C382 C381 1.524 . S
C382 C383 1.415 . S
C383 H353 0.950 . S
C383 C378 1.363 . S
C383 C382 1.415 . S
H384 C381 0.999 . S
H385 C366 0.913 . S
H386 C404 0.951 . S
H387 C406 0.951 . S
H388 C408 0.950 . S
H389 C409 0.950 . S
H390 C411 0.950 . S
H391 C414 0.950 . S
H392 C415 0.950 . S
H393 C417 0.950 . S
H394 C418 0.950 . S
H395 C419 0.951 . S
H396 C421 0.951 . S
H397 C423 0.950 . S
H398 C424 0.950 . S
H399 C426 0.950 . S
H400 C429 0.950 . S
H401 C430 0.950 . S
H402 C432 0.950 . S
H403 C433 0.950 . S
C404 H386 0.951 . S
C404 C405 1.366 1_655 S
C404 C406 1.388 . S
C405 C404 1.366 1_455 S
C405 C409 1.385 . S
C406 H387 0.951 . S
C406 C404 1.388 . S
C406 C407 1.366 . S
C407 C406 1.366 . S
C407 C408 1.414 . S
C407 C410 1.499 . S
C408 H388 0.950 . S
C408 C407 1.414 . S
C408 C409 1.374 1_655 S
C409 H389 0.950 . S
C409 C405 1.385 . S
C409 C408 1.374 1_455 S
C410 C407 1.499 . S
C410 C411 1.373 . S
C410 C412 1.389 . S
C411 H390 0.950 . S
C411 C410 1.373 . S
C411 C427 1.377 . S
C412 C410 1.389 . S
C412 C413 1.524 . S
C412 C426 1.377 . S
C413 C412 1.524 . S
C413 C414 1.397 . S
C413 C418 1.363 . S
C414 H391 0.950 . S
C414 C413 1.397 . S
C414 C415 1.334 . S
C415 H392 0.950 . S
C415 C414 1.334 . S
C415 C416 1.287 . S
C416 C415 1.287 . S
C416 C417 1.524 . S
C416 H435 0.913 . S
C417 H393 0.950 . S
C417 C416 1.524 . S
C417 C418 1.415 . S
C418 H394 0.950 . S
C418 C413 1.363 . S
C418 C417 1.415 . S
C419 H395 0.951 . S
C419 C420 1.366 . S
C419 C421 1.388 . S
C420 C419 1.366 . S
C420 C424 1.385 . S
C421 H396 0.951 . S
C421 C419 1.388 . S
C421 C422 1.366 . S
C422 C421 1.366 . S
C422 C423 1.414 . S
C422 C425 1.499 . S
C423 H397 0.950 . S
C423 C422 1.414 . S
C423 C424 1.374 . S
C424 H398 0.950 . S
C424 C420 1.385 . S
C424 C423 1.374 . S
C425 C422 1.499 . S
C425 C426 1.373 . S
C425 C427 1.389 . S
C426 H399 0.950 . S
C426 C412 1.377 . S
C426 C425 1.373 . S
C427 C411 1.377 . S
C427 C425 1.389 . S
C427 C428 1.524 . S
C428 C427 1.524 . S
C428 C429 1.397 . S
C428 C433 1.363 . S
C429 H400 0.950 . S
C429 C428 1.397 . S
C429 C430 1.334 . S
C430 H401 0.950 . S
C430 C429 1.334 . S
C430 C431 1.287 . S
C431 C430 1.287 . S
C431 C432 1.524 . S
C431 H434 0.999 . S
C432 H402 0.950 . S
C432 C431 1.524 . S
C432 C433 1.415 . S
C433 H403 0.950 . S
C433 C428 1.363 . S
C433 C432 1.415 . S
H434 C431 0.999 . S
H435 C416 0.913 . S
H436 C454 0.960 . S
H437 C456 0.951 . S
H438 C458 0.950 . S
H439 C459 0.950 . S
H440 C461 0.950 . S
H441 C464 0.950 . S
H442 C465 0.950 . S
H443 C467 0.950 . S
H444 C468 0.950 . S
H445 C469 0.951 . S
H446 C471 0.951 . S
H447 C473 0.950 . S
H448 C474 0.950 . S
H449 C476 0.950 . S
H450 C479 0.950 . S
H451 C480 0.950 . S
H452 C482 0.950 . S
H453 C483 0.950 . S
C454 H436 0.960 . S
C454 C455 1.363 1_554 S
C454 C456 1.383 1_554 S
C455 C454 1.363 1_556 S
C455 C459 1.385 . S
C456 H437 0.951 . S
C456 C454 1.383 1_556 S
C456 C457 1.366 . S
C457 C456 1.366 . S
C457 C458 1.414 . S
C457 C460 1.499 . S
C458 H438 0.950 . S
C458 C457 1.414 . S
C458 C459 1.374 . S
C459 H439 0.950 . S
C459 C455 1.385 . S
C459 C458 1.374 . S
C460 C457 1.499 . S
C460 C461 1.373 . S
C460 C462 1.389 . S
C461 H440 0.950 . S
C461 C460 1.373 . S
C461 C477 1.377 . S
C462 C460 1.389 . S
C462 C463 1.524 . S
C462 C476 1.377 . S
C463 C462 1.524 . S
C463 C464 1.397 . S
C463 C468 1.363 . S
C464 H441 0.950 . S
C464 C463 1.397 . S
C464 C465 1.334 . S
C465 H442 0.950 . S
C465 C464 1.334 . S
C465 C466 1.287 . S
C466 C465 1.287 . S
C466 C467 1.524 . S
C466 H485 0.913 . S
C467 H443 0.950 . S
C467 C466 1.524 . S
C467 C468 1.415 . S
C468 H444 0.950 . S
C468 C463 1.363 . S
C468 C467 1.415 . S
C469 H445 0.951 . S
C469 C470 1.366 . S
C469 C471 1.388 . S
C470 C469 1.366 . S
C470 C474 1.385 . S
C471 H446 0.951 . S
C471 C469 1.388 . S
C471 C472 1.366 . S
C472 C471 1.366 . S
C472 C473 1.414 . S
C472 C475 1.499 . S
C473 H447 0.950 . S
C473 C472 1.414 . S
C473 C474 1.374 . S
C474 H448 0.950 . S
C474 C470 1.385 . S
C474 C473 1.374 . S
C475 C472 1.499 . S
C475 C476 1.373 . S
C475 C477 1.389 . S
C476 H449 0.950 . S
C476 C462 1.377 . S
C476 C475 1.373 . S
C477 C461 1.377 . S
C477 C475 1.389 . S
C477 C478 1.524 . S
C478 C477 1.524 . S
C478 C479 1.397 . S
C478 C483 1.363 . S
C479 H450 0.950 . S
C479 C478 1.397 . S
C479 C480 1.334 . S
C480 H451 0.950 . S
C480 C479 1.334 . S
C480 C481 1.287 . S
C481 C480 1.287 . S
C481 C482 1.524 . S
C481 H484 0.999 . S
C482 H452 0.950 . S
C482 C481 1.524 . S
C482 C483 1.415 . S
C483 H453 0.950 . S
C483 C478 1.363 . S
C483 C482 1.415 . S
H484 C481 0.999 . S
H485 C466 0.913 . S
H486 C504 0.951 . S
H487 C506 0.951 . S
H488 C508 0.950 . S
H489 C509 0.950 . S
H490 C511 0.950 . S
H491 C514 0.950 . S
H492 C515 0.950 . S
H493 C517 0.950 . S
H494 C518 0.950 . S
H495 C519 0.951 . S
H496 C521 0.951 . S
H497 C523 0.950 . S
H498 C524 0.950 . S
H499 C526 0.950 . S
H500 C529 0.950 . S
H501 C530 0.950 . S
H502 C532 0.950 . S
H503 C533 0.950 . S
C504 H486 0.951 . S
C504 C505 1.366 . S
C504 C506 1.388 . S
C505 C504 1.366 . S
C505 C509 1.385 . S
C506 H487 0.951 . S
C506 C504 1.388 . S
C506 C507 1.366 . S
C507 C506 1.366 . S
C507 C508 1.414 . S
C507 C510 1.499 . S
C508 H488 0.950 . S
C508 C507 1.414 . S
C508 C509 1.374 . S
C509 H489 0.950 . S
C509 C505 1.385 . S
C509 C508 1.374 . S
C510 C507 1.499 . S
C510 C511 1.373 . S
C510 C512 1.389 . S
C511 H490 0.950 . S
C511 C510 1.373 . S
C511 C527 1.377 . S
C512 C510 1.389 . S
C512 C513 1.524 . S
C512 C526 1.377 . S
C513 C512 1.524 . S
C513 C514 1.397 . S
C513 C518 1.363 . S
C514 H491 0.950 . S
C514 C513 1.397 . S
C514 C515 1.334 . S
C515 H492 0.950 . S
C515 C514 1.334 . S
C515 C516 1.287 . S
C516 C515 1.287 . S
C516 C517 1.524 . S
C516 H535 0.913 . S
C517 H493 0.950 . S
C517 C516 1.524 . S
C517 C518 1.415 . S
C518 H494 0.950 . S
C518 C513 1.363 . S
C518 C517 1.415 . S
C519 H495 0.951 . S
C519 C520 1.366 1_455 S
C519 C521 1.388 1_455 S
C520 C519 1.366 1_655 S
C520 C524 1.385 . S
C521 H496 0.951 . S
C521 C519 1.388 1_655 S
C521 C522 1.366 . S
C522 C521 1.366 . S
C522 C523 1.414 . S
C522 C525 1.499 . S
C523 H497 0.950 . S
C523 C522 1.414 . S
C523 C524 1.374 . S
C524 H498 0.950 . S
C524 C520 1.385 . S
C524 C523 1.374 . S
C525 C522 1.499 . S
C525 C526 1.373 . S
C525 C527 1.389 . S
C526 H499 0.950 . S
C526 C512 1.377 . S
C526 C525 1.373 . S
C527 C511 1.377 . S
C527 C525 1.389 . S
C527 C528 1.524 . S
C528 C527 1.524 . S
C528 C529 1.397 . S
C528 C533 1.363 . S
C529 H500 0.950 . S
C529 C528 1.397 . S
C529 C530 1.334 . S
C530 H501 0.950 . S
C530 C529 1.334 . S
C530 C531 1.287 . S
C531 C530 1.287 . S
C531 C532 1.524 . S
C531 H534 0.999 . S
C532 H502 0.950 . S
C532 C531 1.524 . S
C532 C533 1.415 . S
C533 H503 0.950 . S
C533 C528 1.363 . S
C533 C532 1.415 . S
H534 C531 0.999 . S
H535 C516 0.913 . S
H536 C554 0.951 . S
H537 C556 0.951 . S
H538 C558 0.950 . S
H539 C559 0.950 . S
H540 C561 0.950 . S
H541 C564 0.950 . S
H542 C565 0.950 . S
H543 C567 0.950 . S
H544 C568 0.950 . S
H545 C569 0.951 . S
H546 C571 0.951 . S
H547 C573 0.950 . S
H548 C574 0.950 . S
H549 C576 0.950 . S
H550 C579 0.950 . S
H551 C580 0.950 . S
H552 C582 0.950 . S
H553 C583 0.950 . S
C554 H536 0.951 . S
C554 C555 1.366 . S
C554 C556 1.388 . S
C555 C554 1.366 . S
C555 C559 1.385 . S
C556 H537 0.951 . S
C556 C554 1.388 . S
C556 C557 1.366 . S
C557 C556 1.366 . S
C557 C558 1.414 . S
C557 C560 1.499 . S
C558 H538 0.950 . S
C558 C557 1.414 . S
C558 C559 1.374 . S
C559 H539 0.950 . S
C559 C555 1.385 . S
C559 C558 1.374 . S
C560 C557 1.499 . S
C560 C561 1.373 . S
C560 C562 1.389 . S
C561 H540 0.950 . S
C561 C560 1.373 . S
C561 C577 1.377 . S
C562 C560 1.389 . S
C562 C563 1.524 . S
C562 C576 1.377 . S
C563 C562 1.524 . S
C563 C564 1.397 . S
C563 C568 1.363 . S
C564 H541 0.950 . S
C564 C563 1.397 . S
C564 C565 1.334 . S
C565 H542 0.950 . S
C565 C564 1.334 . S
C565 C566 1.287 . S
C566 C565 1.287 . S
C566 C567 1.524 . S
C566 H585 0.913 . S
C567 H543 0.950 . S
C567 C566 1.524 . S
C567 C568 1.415 . S
C568 H544 0.950 . S
C568 C563 1.363 . S
C568 C567 1.415 . S
C569 H545 0.951 . S
C569 C570 1.366 . S
C569 C571 1.388 . S
C570 C569 1.366 . S
C570 C574 1.385 . S
C571 H546 0.951 . S
C571 C569 1.388 . S
C571 C572 1.366 . S
C572 C571 1.366 . S
C572 C573 1.414 . S
C572 C575 1.499 . S
C573 H547 0.950 . S
C573 C572 1.414 . S
C573 C574 1.374 . S
C574 H548 0.950 . S
C574 C570 1.385 . S
C574 C573 1.374 . S
C575 C572 1.499 . S
C575 C576 1.373 . S
C575 C577 1.389 . S
C576 H549 0.950 . S
C576 C562 1.377 . S
C576 C575 1.373 . S
C577 C561 1.377 . S
C577 C575 1.389 . S
C577 C578 1.524 . S
C578 C577 1.524 . S
C578 C579 1.397 . S
C578 C583 1.363 . S
C579 H550 0.950 . S
C579 C578 1.397 . S
C579 C580 1.334 . S
C580 H551 0.950 . S
C580 C579 1.334 . S
C580 C581 1.287 . S
C581 C580 1.287 . S
C581 C582 1.524 . S
C581 H584 0.999 . S
C582 H552 0.950 . S
C582 C581 1.524 . S
C582 C583 1.415 . S
C583 H553 0.950 . S
C583 C578 1.363 . S
C583 C582 1.415 . S
H584 C581 0.999 . S
H585 C566 0.913 . S
H586 C604 0.951 . S
H587 C606 0.951 . S
H588 C608 0.950 . S
H589 C609 0.950 . S
H590 C611 0.950 . S
H591 C614 0.950 . S
H592 C615 0.950 . S
H593 C617 0.950 . S
H594 C618 0.950 . S
H595 C619 0.951 . S
H596 C621 0.951 . S
H597 C623 0.950 . S
H598 C624 0.950 . S
H599 C626 0.950 . S
H600 C629 0.950 . S
H601 C630 0.950 . S
H602 C632 0.950 . S
H603 C633 0.950 . S
C604 H586 0.951 . S
C604 C605 1.366 . S
C604 C606 1.388 . S
C605 C604 1.366 . S
C605 C609 1.385 . S
C606 H587 0.951 . S
C606 C604 1.388 . S
C606 C607 1.366 . S
C607 C606 1.366 . S
C607 C608 1.414 . S
C607 C610 1.499 . S
C608 H588 0.950 . S
C608 C607 1.414 . S
C608 C609 1.374 . S
C609 H589 0.950 . S
C609 C605 1.385 . S
C609 C608 1.374 . S
C610 C607 1.499 . S
C610 C611 1.373 . S
C610 C612 1.389 . S
C611 H590 0.950 . S
C611 C610 1.373 . S
C611 C627 1.377 . S
C612 C610 1.389 . S
C612 C613 1.524 . S
C612 C626 1.377 . S
C613 C612 1.524 . S
C613 C614 1.397 . S
C613 C618 1.363 . S
C614 H591 0.950 . S
C614 C613 1.397 . S
C614 C615 1.334 . S
C615 H592 0.950 . S
C615 C614 1.334 . S
C615 C616 1.287 . S
C616 C615 1.287 . S
C616 C617 1.524 . S
C616 H635 0.913 . S
C617 H593 0.950 . S
C617 C616 1.524 . S
C617 C618 1.415 . S
C618 H594 0.950 . S
C618 C613 1.363 . S
C618 C617 1.415 . S
C619 H595 0.951 . S
C619 C620 1.366 . S
C619 C621 1.388 . S
C620 C619 1.366 . S
C620 C624 1.385 . S
C621 H596 0.951 . S
C621 C619 1.388 . S
C621 C622 1.366 . S
C622 C621 1.366 . S
C622 C623 1.414 . S
C622 C625 1.499 . S
C623 H597 0.950 . S
C623 C622 1.414 . S
C623 C624 1.374 . S
C624 H598 0.950 . S
C624 C620 1.385 . S
C624 C623 1.374 . S
C625 C622 1.499 . S
C625 C626 1.373 . S
C625 C627 1.389 . S
C626 H599 0.950 . S
C626 C612 1.377 . S
C626 C625 1.373 . S
C627 C611 1.377 . S
C627 C625 1.389 . S
C627 C628 1.524 . S
C628 C627 1.524 . S
C628 C629 1.397 . S
C628 C633 1.363 . S
C629 H600 0.950 . S
C629 C628 1.397 . S
C629 C630 1.334 . S
C630 H601 0.950 . S
C630 C629 1.334 . S
C630 C631 1.287 . S
C631 C630 1.287 . S
C631 C632 1.524 . S
C631 H634 0.999 . S
C632 H602 0.950 . S
C632 C631 1.524 . S
C632 C633 1.415 . S
C633 H603 0.950 . S
C633 C628 1.363 . S
C633 C632 1.415 . S
H634 C631 0.999 . S
H635 C616 0.913 . S
H636 C654 0.951 . S
H637 C656 0.951 . S
H638 C658 0.950 . S
H639 C659 0.950 . S
H640 C661 0.950 . S
H641 C664 0.950 . S
H642 C665 0.950 . S
H643 C667 0.950 . S
H644 C668 0.950 . S
H645 C669 0.951 . S
H646 C671 0.951 . S
H647 C673 0.950 . S
H648 C674 0.950 . S
H649 C676 0.950 . S
H650 C679 0.950 . S
H651 C680 0.950 . S
H652 C682 0.950 . S
H653 C683 0.950 . S
C654 H636 0.951 . S
C654 C655 1.366 . S
C654 C656 1.388 . S
C655 C654 1.366 . S
C655 C659 1.385 . S
C656 H637 0.951 . S
C656 C654 1.388 . S
C656 C657 1.366 . S
C657 C656 1.366 . S
C657 C658 1.414 . S
C657 C660 1.499 . S
C658 H638 0.950 . S
C658 C657 1.414 . S
C658 C659 1.374 . S
C659 H639 0.950 . S
C659 C655 1.385 . S
C659 C658 1.374 . S
C660 C657 1.499 . S
C660 C661 1.373 . S
C660 C662 1.389 . S
C661 H640 0.950 . S
C661 C660 1.373 . S
C661 C677 1.377 . S
C662 C660 1.389 . S
C662 C663 1.524 . S
C662 C676 1.377 . S
C663 C662 1.524 . S
C663 C664 1.397 . S
C663 C668 1.363 . S
C664 H641 0.950 . S
C664 C663 1.397 . S
C664 C665 1.334 . S
C665 H642 0.950 . S
C665 C664 1.334 . S
C665 C666 1.287 . S
C666 C665 1.287 . S
C666 C667 1.524 . S
C666 H685 0.913 . S
C667 H643 0.950 . S
C667 C666 1.524 . S
C667 C668 1.415 . S
C668 H644 0.950 . S
C668 C663 1.363 . S
C668 C667 1.415 . S
C669 H645 0.951 . S
C669 C670 1.366 . S
C669 C671 1.388 . S
C670 C669 1.366 . S
C670 C674 1.385 . S
C671 H646 0.951 . S
C671 C669 1.388 . S
C671 C672 1.366 . S
C672 C671 1.366 . S
C672 C673 1.414 . S
C672 C675 1.499 . S
C673 H647 0.950 . S
C673 C672 1.414 . S
C673 C674 1.374 . S
C674 H648 0.950 . S
C674 C670 1.385 . S
C674 C673 1.374 . S
C675 C672 1.499 . S
C675 C676 1.373 . S
C675 C677 1.389 . S
C676 H649 0.950 . S
C676 C662 1.377 . S
C676 C675 1.373 . S
C677 C661 1.377 . S
C677 C675 1.389 . S
C677 C678 1.524 . S
C678 C677 1.524 . S
C678 C679 1.397 . S
C678 C683 1.363 . S
C679 H650 0.950 . S
C679 C678 1.397 . S
C679 C680 1.334 . S
C680 H651 0.950 . S
C680 C679 1.334 . S
C680 C681 1.287 . S
C681 C680 1.287 . S
C681 C682 1.524 . S
C681 H684 0.999 1_545 S
C682 H652 0.950 . S
C682 C681 1.524 . S
C682 C683 1.415 . S
C683 H653 0.950 . S
C683 C678 1.363 . S
C683 C682 1.415 . S
H684 C681 0.999 1_565 S
H685 C666 0.913 . S
C120 C51 1.427 . S
C105 C8 1.523 . S
C170 C47 1.391 . S
C155 C19 1.510 . S
C220 C72 1.427 . S
C205 C30 1.523 . S
C255 C41 1.510 . S
C270 C68 1.392 . S
C305 C7 1.131 1_556 S
C320 C69 1.045 . S
C370 C84 1.029 . S
C355 C16 1.042 . S
C405 C5 1.479 . S
C420 C85 1.611 . S
C470 C81 1.684 . S
C455 C18 1.807 1_556 S
C520 C48 1.044 1_655 S
C505 C29 1.130 . S
C555 C38 1.043 . S
C570 C63 1.028 . S
C620 C64 1.612 . S
C605 C27 1.481 . S
C670 C60 1.684 . S
C655 C40 1.807 . S
