# Generated by pormake.
# Topology cor, (4,6)-cn, num edge types: 1
# Building blocks:
#     Node 0, Type 0, BuildingBlock: CEKHIL_clean_sbu_0, # of connection points: 4
#     Node 1, Type 0, BuildingBlock: CEKHIL_clean_sbu_0, # of connection points: 4
#     Node 2, Type 0, BuildingBlock: CEKHIL_clean_sbu_0, # of connection points: 4
#     Node 3, Type 0, BuildingBlock: CEKHIL_clean_sbu_0, # of connection points: 4
#     Node 4, Type 0, BuildingBlock: CEKHIL_clean_sbu_0, # of connection points: 4
#     Node 5, Type 0, BuildingBlock: CEKHIL_clean_sbu_0, # of connection points: 4
#     Node 6, Type 0, BuildingBlock: CEKHIL_clean_sbu_0, # of connection points: 4
#     Node 7, Type 0, BuildingBlock: CEKHIL_clean_sbu_0, # of connection points: 4
#     Node 8, Type 0, BuildingBlock: CEKHIL_clean_sbu_0, # of connection points: 4
#     Node 9, Type 0, BuildingBlock: CEKHIL_clean_sbu_0, # of connection points: 4
#     Node 10, Type 0, BuildingBlock: CEKHIL_clean_sbu_0, # of connection points: 4
#     Node 11, Type 0, BuildingBlock: CEKHIL_clean_sbu_0, # of connection points: 4
#     Node 12, Type 0, BuildingBlock: CEKHIL_clean_sbu_0, # of connection points: 4
#     Node 13, Type 0, BuildingBlock: CEKHIL_clean_sbu_0, # of connection points: 4
#     Node 14, Type 0, BuildingBlock: CEKHIL_clean_sbu_0, # of connection points: 4
#     Node 15, Type 0, BuildingBlock: CEKHIL_clean_sbu_0, # of connection points: 4
#     Node 16, Type 0, BuildingBlock: CEKHIL_clean_sbu_0, # of connection points: 4
#     Node 17, Type 0, BuildingBlock: CEKHIL_clean_sbu_0, # of connection points: 4
#     Node 18, Type 1, BuildingBlock: MIDCAF_clean_sbu_0, # of connection points: 6
#     Node 19, Type 1, BuildingBlock: MIDCAF_clean_sbu_0, # of connection points: 6
#     Node 20, Type 1, BuildingBlock: MIDCAF_clean_sbu_0, # of connection points: 6
#     Node 21, Type 1, BuildingBlock: MIDCAF_clean_sbu_0, # of connection points: 6
#     Node 22, Type 1, BuildingBlock: MIDCAF_clean_sbu_0, # of connection points: 6
#     Node 23, Type 1, BuildingBlock: MIDCAF_clean_sbu_0, # of connection points: 6
#     Node 24, Type 1, BuildingBlock: MIDCAF_clean_sbu_0, # of connection points: 6
#     Node 25, Type 1, BuildingBlock: MIDCAF_clean_sbu_0, # of connection points: 6
#     Node 26, Type 1, BuildingBlock: MIDCAF_clean_sbu_0, # of connection points: 6
#     Node 27, Type 1, BuildingBlock: MIDCAF_clean_sbu_0, # of connection points: 6
#     Node 28, Type 1, BuildingBlock: MIDCAF_clean_sbu_0, # of connection points: 6
#     Node 29, Type 1, BuildingBlock: MIDCAF_clean_sbu_0, # of connection points: 6
#     Edge 30, Type (0, 1), BuildingBlock: TEMPAE_clean_linker_10, # of connection points: 2
#     Edge 31, Type (0, 1), BuildingBlock: TEMPAE_clean_linker_10, # of connection points: 2
#     Edge 32, Type (0, 1), BuildingBlock: TEMPAE_clean_linker_10, # of connection points: 2
#     Edge 33, Type (0, 1), BuildingBlock: TEMPAE_clean_linker_10, # of connection points: 2
#     Edge 34, Type (0, 1), BuildingBlock: TEMPAE_clean_linker_10, # of connection points: 2
#     Edge 35, Type (0, 1), BuildingBlock: TEMPAE_clean_linker_10, # of connection points: 2
#     Edge 36, Type (0, 1), BuildingBlock: TEMPAE_clean_linker_10, # of connection points: 2
#     Edge 37, Type (0, 1), BuildingBlock: TEMPAE_clean_linker_10, # of connection points: 2
#     Edge 38, Type (0, 1), BuildingBlock: TEMPAE_clean_linker_10, # of connection points: 2
#     Edge 39, Type (0, 1), BuildingBlock: TEMPAE_clean_linker_10, # of connection points: 2
#     Edge 40, Type (0, 1), BuildingBlock: TEMPAE_clean_linker_10, # of connection points: 2
#     Edge 41, Type (0, 1), BuildingBlock: TEMPAE_clean_linker_10, # of connection points: 2
#     Edge 42, Type (0, 1), BuildingBlock: TEMPAE_clean_linker_10, # of connection points: 2
#     Edge 43, Type (0, 1), BuildingBlock: TEMPAE_clean_linker_10, # of connection points: 2
#     Edge 44, Type (0, 1), BuildingBlock: TEMPAE_clean_linker_10, # of connection points: 2
#     Edge 45, Type (0, 1), BuildingBlock: TEMPAE_clean_linker_10, # of connection points: 2
#     Edge 46, Type (0, 1), BuildingBlock: TEMPAE_clean_linker_10, # of connection points: 2
#     Edge 47, Type (0, 1), BuildingBlock: TEMPAE_clean_linker_10, # of connection points: 2
#     Edge 48, Type (0, 1), BuildingBlock: TEMPAE_clean_linker_10, # of connection points: 2
#     Edge 49, Type (0, 1), BuildingBlock: TEMPAE_clean_linker_10, # of connection points: 2
#     Edge 50, Type (0, 1), BuildingBlock: TEMPAE_clean_linker_10, # of connection points: 2
#     Edge 51, Type (0, 1), BuildingBlock: TEMPAE_clean_linker_10, # of connection points: 2
#     Edge 52, Type (0, 1), BuildingBlock: TEMPAE_clean_linker_10, # of connection points: 2
#     Edge 53, Type (0, 1), BuildingBlock: TEMPAE_clean_linker_10, # of connection points: 2
#     Edge 54, Type (0, 1), BuildingBlock: TEMPAE_clean_linker_10, # of connection points: 2
#     Edge 55, Type (0, 1), BuildingBlock: TEMPAE_clean_linker_10, # of connection points: 2
#     Edge 56, Type (0, 1), BuildingBlock: TEMPAE_clean_linker_10, # of connection points: 2
#     Edge 57, Type (0, 1), BuildingBlock: TEMPAE_clean_linker_10, # of connection points: 2
#     Edge 58, Type (0, 1), BuildingBlock: TEMPAE_clean_linker_10, # of connection points: 2
#     Edge 59, Type (0, 1), BuildingBlock: TEMPAE_clean_linker_10, # of connection points: 2
#     Edge 60, Type (0, 1), BuildingBlock: TEMPAE_clean_linker_10, # of connection points: 2
#     Edge 61, Type (0, 1), BuildingBlock: TEMPAE_clean_linker_10, # of connection points: 2
#     Edge 62, Type (0, 1), BuildingBlock: TEMPAE_clean_linker_10, # of connection points: 2
#     Edge 63, Type (0, 1), BuildingBlock: TEMPAE_clean_linker_10, # of connection points: 2
#     Edge 64, Type (0, 1), BuildingBlock: TEMPAE_clean_linker_10, # of connection points: 2
#     Edge 65, Type (0, 1), BuildingBlock: TEMPAE_clean_linker_10, # of connection points: 2
#     Edge 66, Type (0, 1), BuildingBlock: TEMPAE_clean_linker_10, # of connection points: 2
#     Edge 67, Type (0, 1), BuildingBlock: TEMPAE_clean_linker_10, # of connection points: 2
#     Edge 68, Type (0, 1), BuildingBlock: TEMPAE_clean_linker_10, # of connection points: 2
#     Edge 69, Type (0, 1), BuildingBlock: TEMPAE_clean_linker_10, # of connection points: 2
#     Edge 70, Type (0, 1), BuildingBlock: TEMPAE_clean_linker_10, # of connection points: 2
#     Edge 71, Type (0, 1), BuildingBlock: TEMPAE_clean_linker_10, # of connection points: 2
#     Edge 72, Type (0, 1), BuildingBlock: TEMPAE_clean_linker_10, # of connection points: 2
#     Edge 73, Type (0, 1), BuildingBlock: TEMPAE_clean_linker_10, # of connection points: 2
#     Edge 74, Type (0, 1), BuildingBlock: TEMPAE_clean_linker_10, # of connection points: 2
#     Edge 75, Type (0, 1), BuildingBlock: TEMPAE_clean_linker_10, # of connection points: 2
#     Edge 76, Type (0, 1), BuildingBlock: TEMPAE_clean_linker_10, # of connection points: 2
#     Edge 77, Type (0, 1), BuildingBlock: TEMPAE_clean_linker_10, # of connection points: 2
#     Edge 78, Type (0, 1), BuildingBlock: TEMPAE_clean_linker_10, # of connection points: 2
#     Edge 79, Type (0, 1), BuildingBlock: TEMPAE_clean_linker_10, # of connection points: 2
#     Edge 80, Type (0, 1), BuildingBlock: TEMPAE_clean_linker_10, # of connection points: 2
#     Edge 81, Type (0, 1), BuildingBlock: TEMPAE_clean_linker_10, # of connection points: 2
#     Edge 82, Type (0, 1), BuildingBlock: TEMPAE_clean_linker_10, # of connection points: 2
#     Edge 83, Type (0, 1), BuildingBlock: TEMPAE_clean_linker_10, # of connection points: 2
#     Edge 84, Type (0, 1), BuildingBlock: TEMPAE_clean_linker_10, # of connection points: 2
#     Edge 85, Type (0, 1), BuildingBlock: TEMPAE_clean_linker_10, # of connection points: 2
#     Edge 86, Type (0, 1), BuildingBlock: TEMPAE_clean_linker_10, # of connection points: 2
#     Edge 87, Type (0, 1), BuildingBlock: TEMPAE_clean_linker_10, # of connection points: 2
#     Edge 88, Type (0, 1), BuildingBlock: TEMPAE_clean_linker_10, # of connection points: 2
#     Edge 89, Type (0, 1), BuildingBlock: TEMPAE_clean_linker_10, # of connection points: 2
#     Edge 90, Type (0, 1), BuildingBlock: TEMPAE_clean_linker_10, # of connection points: 2
#     Edge 91, Type (0, 1), BuildingBlock: TEMPAE_clean_linker_10, # of connection points: 2
#     Edge 92, Type (0, 1), BuildingBlock: TEMPAE_clean_linker_10, # of connection points: 2
#     Edge 93, Type (0, 1), BuildingBlock: TEMPAE_clean_linker_10, # of connection points: 2
#     Edge 94, Type (0, 1), BuildingBlock: TEMPAE_clean_linker_10, # of connection points: 2
#     Edge 95, Type (0, 1), BuildingBlock: TEMPAE_clean_linker_10, # of connection points: 2
#     Edge 96, Type (0, 1), BuildingBlock: TEMPAE_clean_linker_10, # of connection points: 2
#     Edge 97, Type (0, 1), BuildingBlock: TEMPAE_clean_linker_10, # of connection points: 2
#     Edge 98, Type (0, 1), BuildingBlock: TEMPAE_clean_linker_10, # of connection points: 2
#     Edge 99, Type (0, 1), BuildingBlock: TEMPAE_clean_linker_10, # of connection points: 2
#     Edge 100, Type (0, 1), BuildingBlock: TEMPAE_clean_linker_10, # of connection points: 2
#     Edge 101, Type (0, 1), BuildingBlock: TEMPAE_clean_linker_10, # of connection points: 2
# Relax obj value: 0.113
# Max RMSD: 0.161
# Mean RMSD: 0.107
data_MOF--net-cor--node1-CEKHIL_clean_sbu_0--node2-MIDCAF_clean_sbu_0--edge1-TEMPAE_clean_linker_10
_symmetry_space_group_name_H-M    P1
_symmetry_Int_Tables_number       1
_symmetry_cell_setting            triclinic
loop_
_symmetry_equiv_pos_as_xyz
'x, y, z'
_cell_length_a     38.869244
_cell_length_b     38.679842
_cell_length_c     101.68639
_cell_angle_alpha  90.800822
_cell_angle_beta   89.589107
_cell_angle_gamma 120.76099
loop_
_atom_site_label
_atom_site_type_symbol
_atom_site_fract_x
_atom_site_fract_y
_atom_site_fract_z
_atom_type_partial_charge
Co0 Co 0.72211 0.0101 0.25304 0.0
O1 O 0.69753 0.02806 0.24071 0.0
O2 O 0.75179 0.06848 0.25236 0.0
C3 C 0.66654 0.96424 0.2636 0.0
O4 O 0.75447 0.00116 0.26705 0.0
Co5 Co 0.70428 0.92271 0.25065 0.0
O6 O 0.72423 0.93392 0.26906 0.0
C7 C 0.7571 0.9815 0.23124 0.0
C8 C 0.72624 0.0644 0.24335 0.0
C9 C 0.74768 0.96953 0.27338 0.0
O10 O 0.75625 0.00889 0.23825 0.0
O11 O 0.73692 0.9441 0.23408 0.0
O12 O 0.6833 0.00224 0.26664 0.0
O13 O 0.68059 0.95611 0.25317 0.0
Co14 Co 0.02137 0.72704 0.25323 0.0
O15 O 0.03535 0.6997 0.26587 0.0
O16 O 0.07916 0.75118 0.25401 0.0
C17 C 0.97136 0.67224 0.24314 0.0
O18 O 0.01688 0.76129 0.23881 0.0
Co19 Co 0.93793 0.71898 0.25485 0.0
O20 O 0.95081 0.73703 0.23635 0.0
C21 C 0.99909 0.76919 0.27443 0.0
C22 C 0.07254 0.72515 0.26313 0.0
C23 C 0.98674 0.75733 0.2322 0.0
O24 O 0.02478 0.76491 0.2677 0.0
O25 O 0.96194 0.75173 0.27138 0.0
O26 O 0.00843 0.68496 0.24003 0.0
O27 O 0.96628 0.68988 0.25324 0.0
Co28 Co 0.30812 0.3191 0.2539 0.0
O29 O 0.35525 0.34472 0.24307 0.0
O30 O 0.33315 0.28679 0.25321 0.0
C31 C 0.31867 0.37355 0.26549 0.0
O32 O 0.26178 0.28517 0.26651 0.0
Co33 Co 0.24256 0.3411 0.25105 0.0
O34 O 0.22902 0.31876 0.26909 0.0
C35 C 0.24921 0.29027 0.23076 0.0
C36 C 0.35926 0.31405 0.24536 0.0
C37 C 0.23781 0.29303 0.27297 0.0
O38 O 0.27574 0.28918 0.23789 0.0
O39 O 0.23271 0.31059 0.23393 0.0
O40 O 0.33677 0.35446 0.26874 0.0
O41 O 0.29917 0.36229 0.25448 0.0
Co42 Co 0.30973 0.02402 0.757 0.0
O43 O 0.33578 0.00424 0.76804 0.0
O44 O 0.27818 0.96573 0.75773 0.0
C45 C 0.36389 0.06896 0.74564 0.0
O46 O 0.27563 0.03461 0.74418 0.0
Co47 Co 0.33061 0.11218 0.76012 0.0
O48 O 0.30815 0.10187 0.74204 0.0
C49 C 0.27957 0.05401 0.77996 0.0
C50 C 0.30551 0.96849 0.76574 0.0
C51 C 0.28288 0.06653 0.73793 0.0
O52 O 0.27937 0.0263 0.77281 0.0
O53 O 0.29949 0.0913 0.77697 0.0
O54 O 0.34533 0.03102 0.74236 0.0
O55 O 0.35231 0.07741 0.75657 0.0
Co56 Co 0.02111 0.31805 0.7542 0.0
O57 O 0.00467 0.34588 0.74263 0.0
O58 O 0.96313 0.29168 0.7539 0.0
C59 C 0.07036 0.37189 0.76487 0.0
O60 O 0.02828 0.28289 0.76758 0.0
Co61 Co 0.10595 0.33011 0.75099 0.0
O62 O 0.09487 0.309 0.76917 0.0
C63 C 0.04411 0.28026 0.73164 0.0
C64 C 0.96802 0.31872 0.74539 0.0
C65 C 0.05944 0.28719 0.77361 0.0
O66 O 0.01839 0.28306 0.73887 0.0
O67 O 0.0815 0.29832 0.73436 0.0
O68 O 0.0332 0.35754 0.76827 0.0
O69 O 0.07574 0.3568 0.75416 0.0
Co70 Co 0.72564 0.72395 0.75888 0.0
O71 O 0.67862 0.69914 0.76984 0.0
O72 O 0.70093 0.75652 0.75927 0.0
C73 C 0.71484 0.66849 0.7478 0.0
O74 O 0.77166 0.75709 0.74607 0.0
Co75 Co 0.79155 0.70258 0.76197 0.0
O76 O 0.80487 0.72389 0.74379 0.0
C77 C 0.785 0.75443 0.7819 0.0
C78 C 0.67499 0.72993 0.76732 0.0
C79 C 0.79579 0.74922 0.73971 0.0
O80 O 0.75834 0.75503 0.7747 0.0
O81 O 0.80154 0.73401 0.7789 0.0
O82 O 0.6966 0.68727 0.74431 0.0
O83 O 0.73475 0.68086 0.75871 0.0
Co84 Co 0.38716 0.3463 0.58689 0.0
O85 O 0.36135 0.36383 0.5749 0.0
O86 O 0.41619 0.4047 0.58619 0.0
C87 C 0.33238 0.30003 0.59769 0.0
O88 O 0.42067 0.33783 0.6006 0.0
Co89 Co 0.37021 0.25928 0.58431 0.0
O90 O 0.39099 0.27066 0.60262 0.0
C91 C 0.42188 0.31837 0.56478 0.0
C92 C 0.38986 0.40034 0.57744 0.0
C93 C 0.41445 0.30633 0.60689 0.0
O94 O 0.42069 0.34554 0.57181 0.0
O95 O 0.40235 0.28099 0.56767 0.0
O96 O 0.34903 0.33797 0.60079 0.0
O97 O 0.34603 0.29213 0.58711 0.0
Co98 Co 0.68157 0.06035 0.58954 0.0
O99 O 0.69788 0.03332 0.60146 0.0
O100 O 0.73965 0.08744 0.59019 0.0
C101 C 0.63366 0.0058 0.57882 0.0
O102 O 0.67431 0.09474 0.57586 0.0
Co103 Co 0.59612 0.04675 0.59201 0.0
O104 O 0.60761 0.06655 0.57366 0.0
C105 C 0.65638 0.09738 0.6117 0.0
C106 C 0.73454 0.06072 0.59886 0.0
C107 C 0.6432 0.08908 0.56945 0.0
O108 O 0.68281 0.09518 0.60469 0.0
O109 O 0.61914 0.07877 0.60873 0.0
O110 O 0.67108 0.02107 0.57561 0.0
O111 O 0.62717 0.02066 0.58939 0.0
Co112 Co 0.97523 0.65019 0.58825 0.0
O113 O 0.01976 0.67575 0.57635 0.0
O114 O 0.00383 0.62123 0.58776 0.0
C115 C 0.98427 0.70558 0.59888 0.0
O116 O 0.93211 0.61699 0.60194 0.0
Co117 Co 0.90545 0.66642 0.58582 0.0
O118 O 0.89588 0.64715 0.60425 0.0
C119 C 0.91304 0.61459 0.56612 0.0
C120 C 0.02698 0.64738 0.57907 0.0
C121 C 0.90749 0.62387 0.60844 0.0
O122 O 0.94099 0.61583 0.57313 0.0
O123 O 0.89557 0.63413 0.5691 0.0
O124 O 0.0051 0.68932 0.60213 0.0
O125 O 0.9629 0.69108 0.58832 0.0
Co126 Co 0.97502 0.35455 0.08999 0.0
O127 O 0.00021 0.33474 0.10142 0.0
O128 O 0.94385 0.29619 0.09048 0.0
C129 C 0.0304 0.40026 0.07927 0.0
O130 O 0.94199 0.36519 0.07668 0.0
Co131 Co 0.99501 0.44254 0.093 0.0
O132 O 0.97422 0.43252 0.07469 0.0
C133 C 0.94246 0.38358 0.11247 0.0
C134 C 0.97048 0.29893 0.09881 0.0
C135 C 0.94949 0.39719 0.07044 0.0
O136 O 0.94282 0.35606 0.10537 0.0
O137 O 0.96275 0.42098 0.10962 0.0
O138 O 0.01246 0.36247 0.07583 0.0
O139 O 0.01727 0.40808 0.08997 0.0
Co140 Co 0.68466 0.64356 0.09065 0.0
O141 O 0.67054 0.67136 0.07822 0.0
O142 O 0.62707 0.62025 0.0903 0.0
C143 C 0.73581 0.69776 0.10058 0.0
O144 O 0.68901 0.60894 0.10494 0.0
Co145 Co 0.76708 0.6495 0.08844 0.0
O146 O 0.75483 0.63133 0.10694 0.0
C147 C 0.70478 0.60092 0.06901 0.0
C148 C 0.63344 0.64628 0.08122 0.0
C149 C 0.71913 0.61212 0.11133 0.0
O150 O 0.67972 0.60538 0.07605 0.0
O151 O 0.74203 0.61773 0.07184 0.0
O152 O 0.69905 0.6859 0.10388 0.0
O153 O 0.73998 0.6798 0.09039 0.0
Co154 Co 0.39076 0.051 0.09212 0.0
O155 O 0.34205 0.02588 0.1023 0.0
O156 O 0.36779 0.08512 0.09266 0.0
C157 C 0.38007 0.99685 0.08023 0.0
O158 O 0.43894 0.08512 0.08023 0.0
Co159 Co 0.45413 0.02633 0.09554 0.0
O160 O 0.47168 0.05148 0.07798 0.0
C161 C 0.44725 0.07686 0.1159 0.0
C162 C 0.34016 0.05787 0.10013 0.0
C163 C 0.46402 0.07806 0.07415 0.0
O164 O 0.42159 0.07895 0.10859 0.0
O165 O 0.46336 0.05614 0.11278 0.0
O166 O 0.36338 0.01719 0.07681 0.0
O167 O 0.39816 0.00678 0.09149 0.0
Co168 Co 0.05591 0.68232 0.92096 0.0
O169 O 0.02894 0.69771 0.90858 0.0
O170 O 0.08198 0.74039 0.92032 0.0
C171 C 0.00138 0.63349 0.93126 0.0
O172 O 0.09026 0.67708 0.93513 0.0
Co173 Co 0.04546 0.59758 0.91912 0.0
O174 O 0.06536 0.61067 0.93751 0.0
C175 C 0.09579 0.65782 0.8996 0.0
C176 C 0.05571 0.73477 0.91139 0.0
C177 C 0.08636 0.64687 0.94165 0.0
O178 O 0.09205 0.68409 0.90631 0.0
O179 O 0.07805 0.62058 0.90265 0.0
O180 O 0.01536 0.6711 0.93435 0.0
O181 O 0.01757 0.62717 0.92103 0.0
Co182 Co 0.35633 0.39693 0.92027 0.0
O183 O 0.37375 0.36976 0.93177 0.0
O184 O 0.41448 0.426 0.92128 0.0
C185 C 0.30988 0.34237 0.90907 0.0
O186 O 0.34822 0.43178 0.90698 0.0
Co187 Co 0.26969 0.38015 0.92236 0.0
O188 O 0.28154 0.40129 0.90418 0.0
C189 C 0.32814 0.43091 0.94254 0.0
C190 C 0.4101 0.39853 0.92952 0.0
C191 C 0.31722 0.42539 0.90034 0.0
O192 O 0.35552 0.4296 0.9358 0.0
O193 O 0.29118 0.41186 0.93921 0.0
O194 O 0.3475 0.35927 0.90587 0.0
O195 O 0.30243 0.35591 0.91976 0.0
Co196 Co 0.64696 0.99079 0.92071 0.0
O197 O 0.69319 0.01894 0.90954 0.0
O198 O 0.67642 0.96279 0.92009 0.0
C199 C 0.653 0.04358 0.9322 0.0
O200 O 0.60278 0.95479 0.93362 0.0
Co201 Co 0.57621 0.00543 0.91792 0.0
O202 O 0.55765 0.97494 0.93454 0.0
C203 C 0.58738 0.95725 0.89774 0.0
C204 C 0.70058 0.99049 0.91197 0.0
C205 C 0.5722 0.95431 0.93884 0.0
O206 O 0.61499 0.95829 0.90491 0.0
O207 O 0.56922 0.97604 0.90078 0.0
O208 O 0.67403 0.0275 0.93541 0.0
O209 O 0.63344 0.03097 0.92124 0.0
Co210 Co 0.646 0.69341 0.42416 0.0
O211 O 0.67224 0.67566 0.43589 0.0
O212 O 0.61647 0.63502 0.42502 0.0
C213 C 0.70045 0.73905 0.41308 0.0
O214 O 0.61205 0.70206 0.41067 0.0
Co215 Co 0.66393 0.78076 0.42663 0.0
O216 O 0.64283 0.76921 0.40836 0.0
C217 C 0.61235 0.72233 0.44635 0.0
C218 C 0.64343 0.63921 0.43347 0.0
C219 C 0.61872 0.73352 0.40425 0.0
O220 O 0.61346 0.69489 0.43944 0.0
O221 O 0.63184 0.75959 0.4433 0.0
O222 O 0.68322 0.70104 0.41002 0.0
O223 O 0.68751 0.74738 0.42374 0.0
Co224 Co 0.34843 0.97837 0.4219 0.0
O225 O 0.33307 0.0056 0.40973 0.0
O226 O 0.29043 0.95183 0.421 0.0
C227 C 0.39641 0.03273 0.43267 0.0
O228 O 0.35471 0.94384 0.43577 0.0
Co229 Co 0.43355 0.99087 0.4198 0.0
O230 O 0.42126 0.97113 0.43815 0.0
C231 C 0.37364 0.94084 0.39995 0.0
C232 C 0.29621 0.97841 0.41218 0.0
C233 C 0.3855 0.94907 0.44228 0.0
O234 O 0.3472 0.94315 0.40691 0.0
O235 O 0.41082 0.95921 0.403 0.0
O236 O 0.35894 0.01802 0.43572 0.0
O237 O 0.40296 0.01752 0.4222 0.0
Co238 Co 0.05676 0.38393 0.42585 0.0
O239 O 0.01141 0.35829 0.43745 0.0
O240 O 0.02938 0.41407 0.42648 0.0
C241 C 0.04711 0.32894 0.41478 0.0
O242 O 0.10103 0.41763 0.41256 0.0
Co243 Co 0.125 0.36546 0.42839 0.0
O244 O 0.13701 0.38723 0.41027 0.0
C245 C 0.11758 0.41651 0.44841 0.0
C246 C 0.00535 0.38756 0.43494 0.0
C247 C 0.12624 0.4113 0.40621 0.0
O248 O 0.09042 0.41652 0.44131 0.0
O249 O 0.13457 0.39657 0.44536 0.0
O250 O 0.02718 0.34624 0.4116 0.0
O251 O 0.06786 0.34216 0.42551 0.0
Zn252 Zn 0.02329 0.02815 0.12864 0.0
Zn253 Zn 0.02427 0.02831 0.17637 0.0
Zn254 Zn 0.02164 0.0262 0.15239 0.0
C255 C 0.99079 0.94846 0.17108 0.0
C256 C 0.10219 0.07497 0.17039 0.0
O257 O 0.98971 0.05858 0.14602 0.0
O258 O 0.00442 0.06463 0.1249 0.0
C259 C 0.97318 0.94788 0.13414 0.0
O260 O 0.9971 0.96242 0.15927 0.0
O261 O 0.99824 0.97181 0.18077 0.0
O262 O 0.08084 0.059 0.18038 0.0
O263 O 0.08588 0.06661 0.15886 0.0
O264 O 0.98464 0.97217 0.12475 0.0
O265 O 0.98662 0.96132 0.14582 0.0
O266 O 0.08622 0.05719 0.14544 0.0
O267 O 0.07841 0.04679 0.12403 0.0
C268 C 0.1013 0.05978 0.13386 0.0
O269 O 0.98269 0.05002 0.1596 0.0
O270 O 0.99432 0.05446 0.18093 0.0
C271 C 0.9886 0.07199 0.13455 0.0
C272 C 0.97634 0.05854 0.17137 0.0
Zn273 Zn 0.02176 0.01697 0.32932 0.0
Zn274 Zn 0.01597 0.01679 0.37551 0.0
Zn275 Zn 0.01848 0.01713 0.35325 0.0
C276 C 0.02243 0.08693 0.37019 0.0
C277 C 0.94625 0.95205 0.36953 0.0
O278 O 0.05064 0.98457 0.34755 0.0
O279 O 0.0525 0.99097 0.32598 0.0
C280 C 0.05962 0.0969 0.3353 0.0
O281 O 0.03836 0.07978 0.36013 0.0
O282 O 0.00276 0.05913 0.37826 0.0
O283 O 0.97287 0.96076 0.37808 0.0
O284 O 0.95505 0.97455 0.35933 0.0
O285 O 0.04864 0.07389 0.32538 0.0
O286 O 0.0512 0.082 0.34697 0.0
O287 O 0.95494 0.98486 0.34604 0.0
O288 O 0.96515 0.98608 0.32462 0.0
C289 C 0.94128 0.97672 0.33416 0.0
O290 O 0.05914 0.9966 0.36099 0.0
O291 O 0.07059 0.02973 0.3797 0.0
C292 C 0.06029 0.97762 0.33605 0.0
C293 C 0.07971 0.01054 0.37168 0.0
Zn294 Zn 0.02711 0.02817 0.87837 0.0
Zn295 Zn 0.0123 0.00778 0.83237 0.0
Zn296 Zn 0.01924 0.01839 0.8561 0.0
C297 C 0.04752 0.08923 0.83476 0.0
C298 C 0.93514 0.96556 0.84102 0.0
O299 O 0.04345 0.98046 0.8637 0.0
O300 O 0.02049 0.97673 0.88373 0.0
C301 C 0.08754 0.09723 0.86914 0.0
O302 O 0.04624 0.07964 0.84695 0.0
O303 O 0.03422 0.06226 0.82596 0.0
O304 O 0.95509 0.97312 0.83056 0.0
O305 O 0.95312 0.98061 0.85207 0.0
O306 O 0.08207 0.07448 0.87866 0.0
O307 O 0.06189 0.08418 0.85965 0.0
O308 O 0.9586 0.99787 0.86488 0.0
O309 O 0.98245 0.0366 0.88246 0.0
C310 C 0.95281 0.01379 0.87529 0.0
O311 O 0.05409 0.98873 0.85034 0.0
O312 O 0.04465 0.98358 0.82886 0.0
C313 C 0.03523 0.96417 0.87517 0.0
C314 C 0.06125 0.9794 0.83881 0.0
Zn315 Zn 0.00881 0.02409 0.68098 0.0
Zn316 Zn 0.01582 0.01989 0.63478 0.0
Zn317 Zn 0.01342 0.02156 0.65709 0.0
C318 C 0.00859 0.94986 0.64109 0.0
C319 C 0.08619 0.08488 0.64069 0.0
O320 O 0.98218 0.05568 0.66185 0.0
O321 O 0.98038 0.05272 0.68352 0.0
C322 C 0.96996 0.94359 0.67583 0.0
O323 O 0.99308 0.95819 0.651 0.0
O324 O 0.02801 0.97668 0.6327 0.0
O325 O 0.0598 0.07532 0.63198 0.0
O326 O 0.07715 0.06336 0.65113 0.0
O327 O 0.97954 0.96756 0.68546 0.0
O328 O 0.98012 0.95726 0.66405 0.0
O329 O 0.07671 0.05351 0.66453 0.0
O330 O 0.06538 0.05308 0.68584 0.0
C331 C 0.08971 0.06163 0.67648 0.0
O332 O 0.97335 0.04202 0.64862 0.0
O333 O 0.96186 0.008 0.63008 0.0
C334 C 0.97308 0.06491 0.67308 0.0
C335 C 0.95309 0.02801 0.63786 0.0
Zn336 Zn 0.68554 0.36104 0.51188 0.0
Zn337 Zn 0.68044 0.35205 0.46587 0.0
Zn338 Zn 0.68285 0.35632 0.48805 0.0
C339 C 0.75312 0.36466 0.4701 0.0
C340 C 0.61842 0.28087 0.47257 0.0
O341 O 0.64733 0.38504 0.49397 0.0
O342 O 0.65506 0.38722 0.5155 0.0
C343 C 0.76419 0.40439 0.50511 0.0
O344 O 0.74537 0.37903 0.4805 0.0
O345 O 0.72503 0.3435 0.46219 0.0
O346 O 0.62601 0.30619 0.4637 0.0
O347 O 0.64169 0.2915 0.48268 0.0
O348 O 0.74248 0.39283 0.51522 0.0
O349 O 0.74806 0.39357 0.49359 0.0
O350 O 0.65454 0.29295 0.49568 0.0
O351 O 0.66005 0.30505 0.51708 0.0
C352 C 0.64963 0.28035 0.50763 0.0
O353 O 0.6584 0.3943 0.48054 0.0
O354 O 0.68794 0.40437 0.46134 0.0
C355 C 0.63965 0.39326 0.50559 0.0
C356 C 0.66909 0.41325 0.46952 0.0
Zn357 Zn 0.6785 0.35088 0.71081 0.0
Zn358 Zn 0.69015 0.35307 0.66458 0.0
Zn359 Zn 0.68374 0.35191 0.68849 0.0
C360 C 0.60905 0.31526 0.66838 0.0
C361 C 0.73 0.43257 0.67107 0.0
O362 O 0.72359 0.33097 0.69682 0.0
O363 O 0.73184 0.36178 0.71584 0.0
C364 C 0.60929 0.28615 0.70375 0.0
O365 O 0.62105 0.32075 0.68045 0.0
O366 O 0.63416 0.32618 0.65916 0.0
O367 O 0.72137 0.41014 0.66106 0.0
O368 O 0.71803 0.41709 0.68256 0.0
O369 O 0.63444 0.29512 0.71284 0.0
O370 O 0.61944 0.30886 0.69356 0.0
O371 O 0.70323 0.4145 0.69541 0.0
O372 O 0.66647 0.39419 0.71331 0.0
C373 C 0.68689 0.42193 0.70529 0.0
O374 O 0.71523 0.31834 0.68344 0.0
O375 O 0.71721 0.32316 0.66181 0.0
C376 C 0.74225 0.34343 0.70791 0.0
C377 C 0.72419 0.30987 0.67206 0.0
Zn378 Zn 0.67983 0.34234 0.21382 0.0
Zn379 Zn 0.67266 0.34186 0.16742 0.0
Zn380 Zn 0.6782 0.34337 0.19131 0.0
C381 C 0.7072 0.4218 0.17346 0.0
C382 C 0.59546 0.29383 0.17467 0.0
O383 O 0.70432 0.30528 0.19675 0.0
O384 O 0.67644 0.29073 0.21632 0.0
C385 C 0.73925 0.41755 0.20865 0.0
O386 O 0.70531 0.40785 0.18508 0.0
O387 O 0.69446 0.39831 0.16367 0.0
O388 O 0.6159 0.3073 0.16435 0.0
O389 O 0.61277 0.30465 0.18603 0.0
O390 O 0.73157 0.39091 0.21706 0.0
O391 O 0.71795 0.40751 0.19806 0.0
O392 O 0.61529 0.31701 0.19921 0.0
O393 O 0.63228 0.34377 0.21904 0.0
C394 C 0.60542 0.32497 0.21053 0.0
O395 O 0.71476 0.31748 0.1836 0.0
O396 O 0.70623 0.32005 0.16228 0.0
C397 C 0.69419 0.28369 0.20721 0.0
C398 C 0.72244 0.3124 0.17158 0.0
Zn399 Zn 0.68536 0.36574 0.0142 0.0
Zn400 Zn 0.67818 0.34082 0.967 0.0
Zn401 Zn 0.68298 0.35556 0.99054 0.0
C402 C 0.65669 0.26892 0.97694 0.0
C403 C 0.75684 0.40168 0.97091 0.0
O404 O 0.65277 0.39091 0.99506 0.0
O405 O 0.65149 0.38846 0.01672 0.0
C406 C 0.64759 0.28509 0.01266 0.0
O407 O 0.65737 0.28914 0.98724 0.0
O408 O 0.66747 0.28589 0.96597 0.0
O409 O 0.73159 0.38362 0.96188 0.0
O410 O 0.74593 0.39259 0.983 0.0
O411 O 0.66364 0.3122 0.02135 0.0
O412 O 0.65073 0.29487 1.00042 0.0
O413 O 0.7477 0.38778 0.9969 0.0
O414 O 0.74223 0.40156 0.01766 0.0
C415 C 0.7639 0.40283 0.0082 0.0
O416 O 0.64554 0.37893 0.98154 0.0
O417 O 0.63534 0.35009 0.96197 0.0
C418 C 0.643 0.39951 0.00627 0.0
C419 C 0.62882 0.37105 0.97007 0.0
Zn420 Zn 0.35725 0.69724 0.84424 0.0
Zn421 Zn 0.35719 0.69692 0.79667 0.0
Zn422 Zn 0.35495 0.69538 0.82028 0.0
C423 C 0.43446 0.72659 0.80174 0.0
C424 C 0.30333 0.61781 0.80218 0.0
O425 O 0.31782 0.72135 0.82744 0.0
O426 O 0.32996 0.72623 0.84874 0.0
C427 C 0.43561 0.74105 0.83829 0.0
O428 O 0.41956 0.72521 0.81327 0.0
O429 O 0.41145 0.71272 0.79196 0.0
O430 O 0.31594 0.64197 0.79274 0.0
O431 O 0.31774 0.63066 0.8138 0.0
O432 O 0.41397 0.72532 0.84824 0.0
O433 O 0.41938 0.73379 0.82676 0.0
O434 O 0.32863 0.63133 0.82717 0.0
O435 O 0.32845 0.64052 0.84864 0.0
C436 C 0.32107 0.61715 0.83896 0.0
O437 O 0.32442 0.7289 0.81378 0.0
O438 O 0.34119 0.73564 0.79284 0.0
C439 C 0.31236 0.73086 0.83918 0.0
C440 C 0.32473 0.74297 0.8023 0.0
Zn441 Zn 0.35128 0.68868 0.04547 0.0
Zn442 Zn 0.35092 0.67167 1.00195 0.0
Zn443 Zn 0.35323 0.68307 0.02323 0.0
C444 C 0.28038 0.66281 1.00496 0.0
C445 C 0.41337 0.74683 1.00467 0.0
O446 O 0.39336 0.66319 0.03164 0.0
O447 O 0.40513 0.69873 0.04984 0.0
C448 C 0.27979 0.62248 0.03968 0.0
O449 O 0.28946 0.65472 0.01625 0.0
O450 O 0.3071 0.67908 0.99629 0.0
O451 O 0.40639 0.71535 0.99851 0.0
O452 O 0.39036 0.74359 0.01436 0.0
O453 O 0.30544 0.63411 0.04876 0.0
O454 O 0.28933 0.64214 0.02883 0.0
O455 O 0.37548 0.7481 0.0267 0.0
O456 O 0.34169 0.73422 0.04524 0.0
C457 C 0.36037 0.7587 0.03613 0.0
O458 O 0.38123 0.64591 0.01889 0.0
O459 O 0.33991 0.616 1.00237 0.0
C460 C 0.4139 0.67822 0.04227 0.0
C461 C 0.36507 0.61701 0.01034 0.0
Zn462 Zn 0.35219 0.68567 0.54574 0.0
Zn463 Zn 0.34239 0.67683 0.49968 0.0
Zn464 Zn 0.34786 0.6818 0.52353 0.0
C465 C 0.37693 0.75751 0.50422 0.0
C466 C 0.26487 0.63097 0.50755 0.0
O467 O 0.37265 0.64354 0.53016 0.0
O468 O 0.34334 0.63215 0.54945 0.0
C469 C 0.4135 0.75686 0.53866 0.0
O470 O 0.37494 0.74517 0.51609 0.0
O471 O 0.36438 0.73266 0.49478 0.0
O472 O 0.28533 0.64206 0.49716 0.0
O473 O 0.28223 0.64344 0.51883 0.0
O474 O 0.4073 0.73119 0.54727 0.0
O475 O 0.38891 0.74648 0.52893 0.0
O476 O 0.28616 0.65869 0.53182 0.0
O477 O 0.30817 0.69486 0.54997 0.0
C478 C 0.27933 0.67325 0.54236 0.0
O479 O 0.38385 0.65424 0.5169 0.0
O480 O 0.37564 0.65395 0.49544 0.0
C481 C 0.36118 0.62318 0.54089 0.0
C482 C 0.39171 0.64757 0.50509 0.0
Zn483 Zn 0.35032 0.68214 0.30212 0.0
Zn484 Zn 0.34692 0.69293 0.3482 0.0
Zn485 Zn 0.34868 0.68733 0.32434 0.0
C486 C 0.42701 0.72987 0.34302 0.0
C487 C 0.307 0.61193 0.34428 0.0
O488 O 0.3084 0.70679 0.31539 0.0
O489 O 0.29599 0.66957 0.29756 0.0
C490 C 0.42055 0.74827 0.30698 0.0
O491 O 0.41268 0.71996 0.33125 0.0
O492 O 0.40375 0.72306 0.3526 0.0
O493 O 0.31857 0.63713 0.35361 0.0
O494 O 0.31543 0.62414 0.33229 0.0
O495 O 0.39379 0.73698 0.29831 0.0
O496 O 0.41208 0.72853 0.31781 0.0
O497 O 0.3278 0.62319 0.3193 0.0
O498 O 0.36297 0.63897 0.30104 0.0
C499 C 0.34343 0.61347 0.30978 0.0
O500 O 0.31727 0.72139 0.32861 0.0
O501 O 0.31789 0.7211 0.35031 0.0
C502 C 0.28771 0.69108 0.3048 0.0
C503 C 0.30899 0.73156 0.33981 0.0
C504 C 0.26483 0.26247 0.21076 0.0
C505 C 0.23661 0.26568 0.21855 0.0
C506 C 0.25292 0.23653 0.19974 0.0
C507 C 0.21163 0.21178 0.19685 0.0
C508 C 0.18317 0.2159 0.20451 0.0
C509 C 0.19613 0.24339 0.2151 0.0
C510 C 0.28465 0.23477 0.19162 0.0
C511 C 0.13873 0.18953 0.20203 0.0
C512 C 0.15627 0.14612 0.16756 0.0
C513 C 0.14338 0.10823 0.17291 0.0
C514 C 0.18349 0.18134 0.17451 0.0
C515 C 0.19711 0.17807 0.18708 0.0
C516 C 0.18914 0.14 0.19135 0.0
C517 C 0.16284 0.10553 0.18406 0.0
C518 C 0.19403 0.2217 0.16913 0.0
C519 C 0.20369 0.13494 0.20451 0.0
H520 H 0.29631 0.2801 0.21333 0.0
H521 H 0.17433 0.24578 0.22115 0.0
H522 H 0.2922 0.21361 0.1962 0.0
H523 H 0.2746 0.22448 0.18138 0.0
H524 H 0.31253 0.26474 0.19137 0.0
H525 H 0.12063 0.19657 0.20886 0.0
H526 H 0.13155 0.19323 0.19181 0.0
H527 H 0.12952 0.15743 0.20321 0.0
H528 H 0.14168 0.14838 0.15884 0.0
H529 H 0.15334 0.07612 0.18806 0.0
H530 H 0.22551 0.24472 0.17152 0.0
H531 H 0.17439 0.23157 0.17367 0.0
H532 H 0.18984 0.22023 0.1583 0.0
H533 H 0.23627 0.15627 0.20558 0.0
H534 H 0.19777 0.1039 0.20585 0.0
H535 H 0.18832 0.1417 0.2125 0.0
C536 C 0.80547 0.97655 0.21611 0.0
C537 C 0.78324 0.99459 0.21948 0.0
C538 C 0.83377 0.9919 0.20589 0.0
C539 C 0.83894 0.02523 0.19856 0.0
C540 C 0.8145 0.04174 0.20137 0.0
C541 C 0.78757 0.02679 0.21198 0.0
C542 C 0.85967 0.97376 0.20343 0.0
C543 C 0.81767 0.07614 0.19354 0.0
C544 C 0.94525 0.08514 0.18644 0.0
C545 C 0.94263 0.06445 0.17471 0.0
C546 C 0.91095 0.07539 0.19382 0.0
C547 C 0.87302 0.04509 0.18911 0.0
C548 C 0.8698 0.02921 0.17622 0.0
C549 C 0.90486 0.03892 0.16914 0.0
C550 C 0.91604 0.09361 0.20742 0.0
C551 C 0.8297 0.99871 0.1705 0.0
H552 H 0.80222 0.95175 0.22192 0.0
H553 H 0.76998 0.0405 0.21446 0.0
H554 H 0.85712 0.96383 0.19302 0.0
H555 H 0.89153 0.99679 0.20526 0.0
H556 H 0.8514 0.94757 0.20982 0.0
H557 H 0.78978 0.07737 0.19426 0.0
H558 H 0.84259 0.10498 0.19746 0.0
H559 H 0.82397 0.07364 0.18302 0.0
H560 H 0.97451 0.10535 0.19066 0.0
H561 H 0.90261 0.02303 0.16002 0.0
H562 H 0.91031 0.07056 0.21487 0.0
H563 H 0.8942 0.10353 0.20913 0.0
H564 H 0.94669 0.11978 0.20901 0.0
H565 H 0.82008 0.96865 0.17458 0.0
H566 H 0.83116 0.99669 0.15962 0.0
H567 H 0.80662 0.00639 0.17313 0.0
C568 C 0.96634 0.75862 0.20916 0.0
C569 C 0.99282 0.77855 0.21964 0.0
C570 C 0.96553 0.77977 0.19816 0.0
C571 C 0.99085 0.82207 0.19785 0.0
C572 C 0.01963 0.84188 0.208 0.0
C573 C 0.02058 0.81974 0.21872 0.0
C574 C 0.93554 0.75716 0.18736 0.0
C575 C 0.04707 0.88699 0.20812 0.0
C576 C 0.00391 0.8918 0.1697 0.0
C577 C 0.97993 0.90693 0.17418 0.0
C578 C 0.00545 0.86136 0.17668 0.0
C579 C 0.9828 0.84634 0.1884 0.0
C580 C 0.95527 0.85851 0.19202 0.0
C581 C 0.95402 0.88842 0.1848 0.0
C582 C 0.03395 0.84804 0.17217 0.0
C583 C 0.93012 0.84318 0.20432 0.0
H584 H 0.94505 0.7266 0.20982 0.0
H585 H 0.0409 0.83516 0.22684 0.0
H586 H 0.90931 0.76098 0.18866 0.0
H587 H 0.94869 0.76911 0.17756 0.0
H588 H 0.92478 0.72446 0.18752 0.0
H589 H 0.07011 0.89734 0.21598 0.0
H590 H 0.06238 0.89727 0.1985 0.0
H591 H 0.02915 0.90163 0.20976 0.0
H592 H 0.02425 0.9063 0.16155 0.0
H593 H 0.93549 0.9002 0.18825 0.0
H594 H 0.02112 0.8154 0.17381 0.0
H595 H 0.06211 0.86452 0.17791 0.0
H596 H 0.04148 0.85443 0.16158 0.0
H597 H 0.9136 0.80985 0.20447 0.0
H598 H 0.90814 0.85336 0.20519 0.0
H599 H 0.94989 0.85417 0.2131 0.0
C600 C 0.21102 0.29126 0.29548 0.0
C601 C 0.21873 0.27137 0.28524 0.0
C602 C 0.18936 0.27055 0.30669 0.0
C603 C 0.17395 0.22867 0.3075 0.0
C604 C 0.18336 0.20888 0.29747 0.0
C605 C 0.20613 0.23063 0.28654 0.0
C606 C 0.18141 0.29318 0.31734 0.0
C607 C 0.16732 0.16416 0.29788 0.0
C608 C 0.12574 0.15977 0.33657 0.0
C609 C 0.08551 0.1401 0.33272 0.0
C610 C 0.15521 0.19207 0.32919 0.0
C611 C 0.14383 0.2043 0.31775 0.0
C612 C 0.10267 0.18791 0.31497 0.0
C613 C 0.07402 0.15616 0.32257 0.0
C614 C 0.19863 0.20999 0.33285 0.0
C615 C 0.08894 0.20019 0.30298 0.0
H616 H 0.22147 0.32306 0.29462 0.0
H617 H 0.21219 0.21528 0.27867 0.0
H618 H 0.1505 0.28736 0.3163 0.0
H619 H 0.18389 0.28291 0.32723 0.0
H620 H 0.20247 0.32616 0.31673 0.0
H621 H 0.17905 0.15374 0.28971 0.0
H622 H 0.17528 0.15611 0.30734 0.0
H623 H 0.13415 0.14762 0.29722 0.0
H624 H 0.13472 0.14718 0.34437 0.0
H625 H 0.04283 0.14077 0.31959 0.0
H626 H 0.21589 0.24278 0.33094 0.0
H627 H 0.21186 0.19566 0.32677 0.0
H628 H 0.20204 0.20489 0.34337 0.0
H629 H 0.10451 0.2334 0.3023 0.0
H630 H 0.05612 0.18805 0.30307 0.0
H631 H 0.09644 0.18875 0.294 0.0
C632 C 0.80932 0.00254 0.2874 0.0
C633 C 0.76885 0.97335 0.28584 0.0
C634 C 0.83135 0.001 0.29806 0.0
C635 C 0.81213 0.97004 0.30749 0.0
C636 C 0.7704 0.94292 0.30659 0.0
C637 C 0.74938 0.94454 0.29568 0.0
C638 C 0.87584 0.03057 0.29865 0.0
C639 C 0.7484 0.91047 0.31665 0.0
C640 C 0.88283 0.93793 0.31976 0.0
C641 C 0.89922 0.96269 0.3309 0.0
C642 C 0.85199 0.93758 0.31262 0.0
C643 C 0.83687 0.96233 0.31682 0.0
C644 C 0.84973 0.98332 0.32901 0.0
C645 C 0.88103 0.98337 0.33593 0.0
C646 C 0.83887 0.91415 0.29981 0.0
C647 C 0.83332 0.00881 0.33412 0.0
H648 H 0.82438 0.02485 0.27983 0.0
H649 H 0.71781 0.92231 0.29461 0.0
H650 H 0.88455 0.04448 0.30859 0.0
H651 H 0.89224 0.01449 0.29672 0.0
H652 H 0.88557 0.05485 0.2913 0.0
H653 H 0.71555 0.89798 0.31622 0.0
H654 H 0.75412 0.88553 0.31474 0.0
H655 H 0.75913 0.92217 0.32674 0.0
H656 H 0.89692 0.92189 0.31589 0.0
H657 H 0.89384 0.00279 0.3445 0.0
H658 H 0.84962 0.9354 0.29147 0.0
H659 H 0.80576 0.89606 0.29921 0.0
H660 H 0.8508 0.89362 0.29858 0.0
H661 H 0.8487 0.03828 0.32911 0.0
H662 H 0.83833 0.01447 0.34487 0.0
H663 H 0.8008 0.99434 0.33206 0.0
C664 C 0.0451 0.79924 0.29379 0.0
C665 C 0.01345 0.79588 0.2862 0.0
C666 C 0.05953 0.82508 0.30484 0.0
C667 C 0.04304 0.84939 0.30802 0.0
C668 C 0.01073 0.84566 0.30044 0.0
C669 C 0.99593 0.81847 0.28978 0.0
C670 C 0.09298 0.82676 0.3128 0.0
C671 C 0.9926 0.87149 0.30326 0.0
C672 C 0.04764 0.90848 0.33834 0.0
C673 C 0.07222 0.94754 0.33362 0.0
C674 C 0.042 0.87505 0.33087 0.0
C675 C 0.06097 0.8813 0.31845 0.0
C676 C 0.09108 0.92065 0.31492 0.0
C677 C 0.09675 0.95337 0.3227 0.0
C678 C 0.01194 0.83333 0.33545 0.0
C679 C 0.11294 0.92883 0.30197 0.0
H680 H 0.05844 0.78138 0.29116 0.0
H681 H 0.97153 0.81598 0.28393 0.0
H682 H 0.12215 0.84943 0.30854 0.0
H683 H 0.09216 0.83523 0.32322 0.0
H684 H 0.09152 0.79731 0.3125 0.0
H685 H 0.96817 0.86536 0.2963 0.0
H686 H 0.9803 0.8661 0.31339 0.0
H687 H 0.01603 0.90379 0.30263 0.0
H688 H 0.02888 0.90379 0.34687 0.0
H689 H 0.11624 0.98368 0.31916 0.0
H690 H 0.02167 0.81173 0.33272 0.0
H691 H 0.98271 0.8231 0.33062 0.0
H692 H 0.00748 0.83272 0.34627 0.0
H693 H 0.12392 0.90773 0.30034 0.0
H694 H 0.1388 0.96013 0.30147 0.0
H695 H 0.09202 0.92415 0.29384 0.0
C696 C 0.7691 0.78237 0.80181 0.0
C697 C 0.79749 0.77947 0.79401 0.0
C698 C 0.78078 0.80821 0.81285 0.0
C699 C 0.82202 0.8332 0.81576 0.0
C700 C 0.85071 0.8297 0.80801 0.0
C701 C 0.83797 0.80226 0.79741 0.0
C702 C 0.74873 0.80928 0.82099 0.0
C703 C 0.89513 0.85647 0.81045 0.0
C704 C 0.87178 0.9385 0.82927 0.0
C705 C 0.89243 0.93489 0.83989 0.0
C706 C 0.84423 0.90447 0.82202 0.0
C707 C 0.83635 0.86606 0.82586 0.0
C708 C 0.85078 0.86195 0.83815 0.0
C709 C 0.87923 0.8967 0.84503 0.0
C710 C 0.82852 0.91036 0.80923 0.0
C711 C 0.84008 0.82118 0.84318 0.0
H712 H 0.73762 0.76441 0.79926 0.0
H713 H 0.85991 0.80016 0.79134 0.0
H714 H 0.7592 0.82157 0.83105 0.0
H715 H 0.73897 0.82819 0.81602 0.0
H716 H 0.72202 0.77859 0.82179 0.0
H717 H 0.91343 0.85071 0.8033 0.0
H718 H 0.9038 0.88855 0.80979 0.0
H719 H 0.90267 0.85167 0.8205 0.0
H720 H 0.88172 0.96817 0.82541 0.0
H721 H 0.89483 0.89377 0.85335 0.0
H722 H 0.79583 0.88916 0.80844 0.0
H723 H 0.84306 0.90398 0.80087 0.0
H724 H 0.83446 0.94152 0.80827 0.0
H725 H 0.80836 0.79857 0.84092 0.0
H726 H 0.8449 0.82206 0.85397 0.0
H727 H 0.85919 0.81121 0.83829 0.0
C728 C 0.23182 0.05918 0.79525 0.0
C729 C 0.2543 0.04141 0.79191 0.0
C730 C 0.20366 0.04382 0.80551 0.0
C731 C 0.19898 0.01082 0.81293 0.0
C732 C 0.2238 0.9947 0.81017 0.0
C733 C 0.25049 0.00957 0.79949 0.0
C734 C 0.17726 0.06146 0.80786 0.0
C735 C 0.22134 0.96074 0.81805 0.0
C736 C 0.13219 0.99831 0.84186 0.0
C737 C 0.09469 0.9725 0.83617 0.0
C738 C 0.16755 0.00745 0.83508 0.0
C739 C 0.16486 0.99082 0.82235 0.0
C740 C 0.12719 0.95999 0.81764 0.0
C741 C 0.09256 0.95075 0.82475 0.0
C742 C 0.20742 0.03816 0.84088 0.0
C743 C 0.12275 0.94069 0.80427 0.0
H744 H 0.23461 0.08364 0.78936 0.0
H745 H 0.26819 0.99599 0.797 0.0
H746 H 0.14544 0.03795 0.8062 0.0
H747 H 0.18005 0.07206 0.8182 0.0
H748 H 0.18486 0.08711 0.80128 0.0
H749 H 0.25087 0.96272 0.81837 0.0
H750 H 0.21115 0.96065 0.82828 0.0
H751 H 0.19986 0.93162 0.81328 0.0
H752 H 0.13406 0.01492 0.85077 0.0
H753 H 0.06348 0.93025 0.82046 0.0
H754 H 0.21737 0.06802 0.83657 0.0
H755 H 0.2305 0.03018 0.83857 0.0
H756 H 0.2055 0.04077 0.85172 0.0
H757 H 0.12955 0.96328 0.79653 0.0
H758 H 0.09201 0.91478 0.80259 0.0
H759 H 0.14423 0.93007 0.80312 0.0
C760 C 0.08583 0.28283 0.79537 0.0
C761 C 0.05522 0.26535 0.78591 0.0
C762 C 0.08652 0.26068 0.80608 0.0
C763 C 0.05633 0.21976 0.8072 0.0
C764 C 0.02375 0.20285 0.79822 0.0
C765 C 0.0234 0.22602 0.78772 0.0
C766 C 0.12114 0.28029 0.81561 0.0
C767 C 0.99089 0.15931 0.79907 0.0
C768 C 0.08198 0.14307 0.81858 0.0
C769 C 0.06098 0.13047 0.83047 0.0
C770 C 0.08278 0.17396 0.81134 0.0
C771 C 0.0622 0.19296 0.81614 0.0
C772 C 0.04453 0.18327 0.82883 0.0
C773 C 0.04403 0.15188 0.83588 0.0
C774 C 0.1026 0.1836 0.79797 0.0
C775 C 0.0233 0.20358 0.83448 0.0
H776 H 0.11016 0.31358 0.79415 0.0
H777 H 0.99966 0.21249 0.78046 0.0
H778 H 0.11062 0.27147 0.82586 0.0
H779 H 0.14252 0.27007 0.81334 0.0
H780 H 0.13744 0.31363 0.81498 0.0
H781 H 0.96564 0.15195 0.79231 0.0
H782 H 0.00317 0.13974 0.79648 0.0
H783 H 0.97919 0.15203 0.80926 0.0
H784 H 0.09507 0.12643 0.81442 0.0
H785 H 0.0274 0.14186 0.84501 0.0
H786 H 0.12328 0.21648 0.79703 0.0
H787 H 0.07944 0.17406 0.79021 0.0
H788 H 0.11974 0.1682 0.79612 0.0
H789 H 0.03995 0.23622 0.83232 0.0
H790 H 0.01935 0.19958 0.8453 0.0
H791 H 0.99325 0.19025 0.82992 0.0
C792 C 0.82338 0.75078 0.71733 0.0
C793 C 0.81482 0.77057 0.72738 0.0
C794 C 0.84463 0.77123 0.70602 0.0
C795 C 0.8588 0.81281 0.70492 0.0
C796 C 0.8487 0.83249 0.71479 0.0
C797 C 0.82633 0.81095 0.72581 0.0
C798 C 0.85335 0.74871 0.69555 0.0
C799 C 0.86348 0.87691 0.71408 0.0
C800 C 0.95746 0.88612 0.68919 0.0
C801 C 0.9449 0.90059 0.67885 0.0
C802 C 0.92965 0.85479 0.69712 0.0
C803 C 0.88824 0.83712 0.69449 0.0
C804 C 0.87583 0.84784 0.68293 0.0
C805 C 0.90445 0.87982 0.67524 0.0
C806 C 0.9445 0.84429 0.70924 0.0
C807 C 0.83213 0.82858 0.67944 0.0
H808 H 0.81381 0.71925 0.71839 0.0
H809 H 0.81965 0.82626 0.73353 0.0
H810 H 0.84937 0.75749 0.68559 0.0
H811 H 0.88492 0.75636 0.69639 0.0
H812 H 0.83373 0.7156 0.69652 0.0
H813 H 0.85147 0.88726 0.72219 0.0
H814 H 0.89667 0.89433 0.71462 0.0
H815 H 0.85478 0.88394 0.70457 0.0
H816 H 0.98879 0.90246 0.69202 0.0
H817 H 0.89464 0.89125 0.66732 0.0
H818 H 0.9298 0.81122 0.71026 0.0
H819 H 0.93683 0.85609 0.7181 0.0
H820 H 0.97745 0.8573 0.70906 0.0
H821 H 0.81572 0.79595 0.68162 0.0
H822 H 0.82805 0.83266 0.66889 0.0
H823 H 0.81851 0.84272 0.68542 0.0
C824 C 0.28017 0.09181 0.71578 0.0
C825 C 0.26081 0.06338 0.72573 0.0
C826 C 0.25892 0.09349 0.70494 0.0
C827 C 0.21706 0.06682 0.70421 0.0
C828 C 0.19782 0.03642 0.71382 0.0
C829 C 0.22006 0.03479 0.72441 0.0
C830 C 0.28091 0.12539 0.69471 0.0
C831 C 0.15319 0.00738 0.71343 0.0
C832 C 0.14758 0.09968 0.69119 0.0
C833 C 0.13135 0.07473 0.68009 0.0
C834 C 0.1778 0.09964 0.69859 0.0
C835 C 0.19245 0.07422 0.69471 0.0
C836 C 0.17965 0.05274 0.6826 0.0
C837 C 0.14902 0.05317 0.6754 0.0
C838 C 0.19089 0.12359 0.71131 0.0
C839 C 0.19545 0.02637 0.67786 0.0
H840 H 0.31193 0.11354 0.71664 0.0
H841 H 0.20507 0.01275 0.73206 0.0
H842 H 0.27035 0.113 0.68467 0.0
H843 H 0.27489 0.15024 0.69632 0.0
H844 H 0.31379 0.13815 0.69521 0.0
H845 H 0.14332 0.98357 0.72095 0.0
H846 H 0.13729 0.02404 0.7152 0.0
H847 H 0.14404 0.99284 0.70358 0.0
H848 H 0.13388 0.11636 0.69481 0.0
H849 H 0.13629 0.03355 0.66687 0.0
H850 H 0.22401 0.14128 0.71199 0.0
H851 H 0.17967 0.1027 0.71974 0.0
H852 H 0.1794 0.14455 0.71229 0.0
H853 H 0.22798 0.04069 0.67985 0.0
H854 H 0.19014 0.01968 0.66715 0.0
H855 H 0.17994 0.99744 0.68318 0.0
C856 C 0.04528 0.22972 0.71648 0.0
C857 C 0.02929 0.25382 0.71986 0.0
C858 C 0.02918 0.20178 0.70606 0.0
C859 C 0.99716 0.19888 0.69852 0.0
C860 C 0.98237 0.2248 0.70145 0.0
C861 C 0.99816 0.25152 0.71225 0.0
C862 C 0.04541 0.17416 0.70352 0.0
C863 C 0.94998 0.22432 0.6932 0.0
C864 C 0.98805 0.13426 0.66931 0.0
C865 C 0.96258 0.09631 0.67469 0.0
C866 C 0.99538 0.16933 0.67611 0.0
C867 C 0.97726 0.16583 0.68855 0.0
C868 C 0.94625 0.1276 0.6927 0.0
C869 C 0.93877 0.09324 0.68554 0.0
C870 C 0.02662 0.20971 0.67087 0.0
C871 C 0.92568 0.1221 0.70582 0.0
H872 H 0.06927 0.23145 0.72237 0.0
H873 H 0.98626 0.27074 0.71474 0.0
H874 H 0.02104 0.14232 0.70447 0.0
H875 H 0.05723 0.17811 0.69335 0.0
H876 H 0.0698 0.17985 0.71044 0.0
H877 H 0.94014 0.2447 0.69724 0.0
H878 H 0.96135 0.23387 0.68307 0.0
H879 H 0.9236 0.19345 0.69244 0.0
H880 H 0.00623 0.1368 0.66082 0.0
H881 H 0.91862 0.06378 0.68959 0.0
H882 H 0.05616 0.21846 0.67519 0.0
H883 H 0.01955 0.23329 0.67357 0.0
H884 H 0.02917 0.20864 0.66 0.0
H885 H 0.94633 0.12475 0.71378 0.0
H886 H 0.89796 0.0921 0.70651 0.0
H887 H 0.91789 0.1456 0.70758 0.0
C888 C 0.92876 0.58557 0.54644 0.0
C889 C 0.90043 0.58884 0.55415 0.0
C890 C 0.91705 0.55981 0.53537 0.0
C891 C 0.87584 0.53537 0.53233 0.0
C892 C 0.84723 0.53919 0.54 0.0
C893 C 0.85998 0.56645 0.55065 0.0
C894 C 0.94892 0.55819 0.52729 0.0
C895 C 0.80285 0.51314 0.53736 0.0
C896 C 0.82069 0.47401 0.5024 0.0
C897 C 0.80643 0.43534 0.5073 0.0
C898 C 0.84857 0.50809 0.50967 0.0
C899 C 0.86147 0.50287 0.52211 0.0
C900 C 0.85232 0.46397 0.52585 0.0
C901 C 0.82529 0.43062 0.51824 0.0
C902 C 0.86026 0.54936 0.50486 0.0
C903 C 0.86609 0.45685 0.53884 0.0
H904 H 0.96022 0.60329 0.54903 0.0
H905 H 0.83808 0.56889 0.55663 0.0
H906 H 0.95562 0.53616 0.53165 0.0
H907 H 0.93936 0.549 0.51694 0.0
H908 H 0.97715 0.5879 0.52735 0.0
H909 H 0.78458 0.51947 0.54434 0.0
H910 H 0.79599 0.51804 0.52722 0.0
H911 H 0.79352 0.4809 0.53812 0.0
H912 H 0.80642 0.4778 0.49386 0.0
H913 H 0.81452 0.4006 0.52193 0.0
H914 H 0.89187 0.5715 0.50742 0.0
H915 H 0.84109 0.5594 0.50966 0.0
H916 H 0.85635 0.54927 0.49404 0.0
H917 H 0.89857 0.47808 0.54024 0.0
H918 H 0.86014 0.42563 0.5396 0.0
H919 H 0.85009 0.46221 0.54697 0.0
C920 C 0.45156 0.36353 0.54543 0.0
C921 C 0.44783 0.33165 0.55298 0.0
C922 C 0.47832 0.37863 0.53478 0.0
C923 C 0.50323 0.36266 0.53198 0.0
C924 C 0.4987 0.32967 0.53937 0.0
C925 C 0.47053 0.31413 0.54962 0.0
C926 C 0.48072 0.41259 0.52691 0.0
C927 C 0.52511 0.31209 0.53694 0.0
C928 C 0.569 0.37521 0.50272 0.0
C929 C 0.60672 0.40084 0.5083 0.0
C930 C 0.53391 0.36607 0.50968 0.0
C931 C 0.53709 0.38261 0.52245 0.0
C932 C 0.57497 0.41331 0.52706 0.0
C933 C 0.60932 0.4225 0.51979 0.0
C934 C 0.49383 0.33532 0.50401 0.0
C935 C 0.57996 0.43241 0.5405 0.0
H936 H 0.43363 0.37687 0.54791 0.0
H937 H 0.46776 0.28958 0.55546 0.0
H938 H 0.50384 0.44176 0.53124 0.0
H939 H 0.48896 0.41138 0.51651 0.0
H940 H 0.45178 0.4119 0.52713 0.0
H941 H 0.51757 0.28637 0.54347 0.0
H942 H 0.52224 0.30161 0.52658 0.0
H943 H 0.55693 0.33559 0.53858 0.0
H944 H 0.56678 0.35861 0.49377 0.0
H945 H 0.63856 0.44277 0.52402 0.0
H946 H 0.47076 0.34314 0.50651 0.0
H947 H 0.48419 0.30544 0.50826 0.0
H948 H 0.49532 0.3328 0.49315 0.0
H949 H 0.55807 0.44238 0.54197 0.0
H950 H 0.61058 0.4587 0.542 0.0
H951 H 0.5742 0.40988 0.54816 0.0
C952 C 0.67625 0.15097 0.55564 0.0
C953 C 0.64761 0.11015 0.55697 0.0
C954 C 0.67494 0.17279 0.54489 0.0
C955 C 0.64483 0.15301 0.53513 0.0
C956 C 0.61832 0.11098 0.53584 0.0
C957 C 0.61965 0.09017 0.54685 0.0
C958 C 0.70379 0.21763 0.54454 0.0
C959 C 0.58675 0.08839 0.52547 0.0
C960 C 0.61163 0.22215 0.52198 0.0
C961 C 0.63659 0.23849 0.51102 0.0
C962 C 0.61175 0.1919 0.52936 0.0
C963 C 0.63727 0.17737 0.52558 0.0
C964 C 0.65876 0.19024 0.51358 0.0
C965 C 0.65828 0.22094 0.50641 0.0
C966 C 0.58781 0.17878 0.54195 0.0
C967 C 0.68515 0.17447 0.50894 0.0
H968 H 0.69785 0.16642 0.56345 0.0
H969 H 0.59781 0.05836 0.54777 0.0
H970 H 0.71819 0.22653 0.53473 0.0
H971 H 0.68717 0.23361 0.54622 0.0
H972 H 0.72753 0.22783 0.55214 0.0
H973 H 0.5746 0.05544 0.5259 0.0
H974 H 0.56163 0.09386 0.52699 0.0
H975 H 0.599 0.09903 0.51548 0.0
H976 H 0.59493 0.23586 0.52555 0.0
H977 H 0.67792 0.23382 0.498 0.0
H978 H 0.60852 0.19014 0.55049 0.0
H979 H 0.57026 0.1455 0.54252 0.0
H980 H 0.56689 0.19027 0.54286 0.0
H981 H 0.71394 0.19027 0.51437 0.0
H982 H 0.69178 0.17965 0.49826 0.0
H983 H 0.67103 0.14182 0.51088 0.0
C984 C 0.88419 0.62444 0.63128 0.0
C985 C 0.89041 0.6035 0.62104 0.0
C986 C 0.86298 0.6046 0.64267 0.0
C987 C 0.84638 0.56256 0.6436 0.0
C988 C 0.85451 0.54173 0.63358 0.0
C989 C 0.87696 0.56264 0.62249 0.0
C990 C 0.85655 0.62832 0.65331 0.0
C991 C 0.83716 0.49681 0.63413 0.0
C992 C 0.79671 0.49427 0.67268 0.0
C993 C 0.75652 0.47585 0.66886 0.0
C994 C 0.82678 0.52616 0.66533 0.0
C995 C 0.81605 0.53915 0.65392 0.0
C996 C 0.77508 0.52417 0.6512 0.0
C997 C 0.74581 0.49288 0.6588 0.0
C998 C 0.87003 0.54269 0.66895 0.0
C999 C 0.76203 0.53728 0.63925 0.0
H1000 H 0.8952 0.65631 0.63025 0.0
H1001 H 0.88178 0.54649 0.61458 0.0
H1002 H 0.82627 0.62416 0.65225 0.0
H1003 H 0.85836 0.61767 0.66321 0.0
H1004 H 0.87885 0.66101 0.65268 0.0
H1005 H 0.84806 0.48554 0.62595 0.0
H1006 H 0.84493 0.48857 0.64359 0.0
H1007 H 0.80401 0.48119 0.63356 0.0
H1008 H 0.80506 0.4809 0.6804 0.0
H1009 H 0.71466 0.47837 0.65584 0.0
H1010 H 0.88825 0.57541 0.66698 0.0
H1011 H 0.88231 0.52738 0.66291 0.0
H1012 H 0.87321 0.53754 0.67948 0.0
H1013 H 0.77855 0.57053 0.63859 0.0
H1014 H 0.72941 0.52618 0.63938 0.0
H1015 H 0.7689 0.52539 0.63024 0.0
C1016 C 0.47634 0.34018 0.62083 0.0
C1017 C 0.43608 0.31034 0.61927 0.0
C1018 C 0.49878 0.33909 0.63145 0.0
C1019 C 0.48021 0.30789 0.64084 0.0
C1020 C 0.43866 0.27997 0.63992 0.0
C1021 C 0.41722 0.28122 0.62906 0.0
C1022 C 0.54306 0.36951 0.63206 0.0
C1023 C 0.41733 0.24711 0.64989 0.0
C1024 C 0.55225 0.27757 0.65327 0.0
C1025 C 0.5674 0.3015 0.66463 0.0
C1026 C 0.5216 0.27705 0.64595 0.0
C1027 C 0.50549 0.30093 0.65016 0.0
C1028 C 0.51737 0.32137 0.66247 0.0
C1029 C 0.54843 0.3215 0.66959 0.0
C1030 C 0.50952 0.25421 0.63302 0.0
C1031 C 0.50004 0.34607 0.66755 0.0
H1032 H 0.49095 0.36274 0.61331 0.0
H1033 H 0.38581 0.25847 0.628 0.0
H1034 H 0.55153 0.38316 0.64205 0.0
H1035 H 0.56017 0.35421 0.63002 0.0
H1036 H 0.55219 0.39392 0.62481 0.0
H1037 H 0.38432 0.23341 0.64937 0.0
H1038 H 0.4244 0.22309 0.64801 0.0
H1039 H 0.4275 0.25887 0.66002 0.0
H1040 H 0.567 0.26214 0.64943 0.0
H1041 H 0.56036 0.34036 0.67832 0.0
H1042 H 0.52014 0.27584 0.62479 0.0
H1043 H 0.47647 0.23546 0.63227 0.0
H1044 H 0.52226 0.23438 0.63175 0.0
H1045 H 0.51481 0.37549 0.66251 0.0
H1046 H 0.50493 0.35185 0.67831 0.0
H1047 H 0.46748 0.33089 0.66548 0.0
C1048 C 0.65331 0.14654 0.6271 0.0
C1049 C 0.67018 0.12328 0.62363 0.0
C1050 C 0.66857 0.17397 0.63769 0.0
C1051 C 0.70055 0.17712 0.64533 0.0
C1052 C 0.71603 0.15181 0.64233 0.0
C1053 C 0.70128 0.12586 0.63133 0.0
C1054 C 0.65159 0.20091 0.6403 0.0
C1055 C 0.7489 0.15267 0.6504 0.0
C1056 C 0.75816 0.28214 0.65908 0.0
C1057 C 0.73425 0.27828 0.66999 0.0
C1058 C 0.75079 0.24831 0.65161 0.0
C1059 C 0.71966 0.2098 0.65547 0.0
C1060 C 0.70124 0.20536 0.66791 0.0
C1061 C 0.70855 0.23992 0.67506 0.0
C1062 C 0.77212 0.25456 0.63863 0.0
C1063 C 0.67021 0.16449 0.67287 0.0
H1064 H 0.62935 0.14462 0.62114 0.0
H1065 H 0.71408 0.10747 0.62876 0.0
H1066 H 0.63951 0.19645 0.65044 0.0
H1067 H 0.67564 0.23294 0.63948 0.0
H1068 H 0.62726 0.19505 0.63333 0.0
H1069 H 0.74585 0.1225 0.65049 0.0
H1070 H 0.7783 0.17378 0.6459 0.0
H1071 H 0.74898 0.16256 0.6607 0.0
H1072 H 0.77855 0.31192 0.6553 0.0
H1073 H 0.69033 0.23675 0.6836 0.0
H1074 H 0.75107 0.24939 0.63048 0.0
H1075 H 0.78238 0.23276 0.63734 0.0
H1076 H 0.79841 0.28549 0.63777 0.0
H1077 H 0.64103 0.15491 0.6681 0.0
H1078 H 0.66623 0.16501 0.68368 0.0
H1079 H 0.67867 0.14177 0.67037 0.0
C1080 C 0.50026 0.12387 0.13152 0.0
C1081 C 0.45974 0.10123 0.12815 0.0
C1082 C 0.51323 0.15166 0.14202 0.0
C1083 C 0.48474 0.15567 0.1497 0.0
C1084 C 0.44342 0.1305 0.14692 0.0
C1085 C 0.43149 0.10431 0.13597 0.0
C1086 C 0.55771 0.17855 0.14433 0.0
C1087 C 0.4116 0.13201 0.15506 0.0
C1088 C 0.54167 0.22321 0.17842 0.0
C1089 C 0.55385 0.26066 0.17284 0.0
C1090 C 0.51398 0.18747 0.1718 0.0
C1091 C 0.49926 0.18978 0.15933 0.0
C1092 C 0.50642 0.22744 0.1549 0.0
C1093 C 0.53318 0.26245 0.16188 0.0
C1094 C 0.50411 0.14756 0.17741 0.0
C1095 C 0.49053 0.23147 0.14187 0.0
H1096 H 0.52208 0.12162 0.12543 0.0
H1097 H 0.39999 0.08645 0.13344 0.0
H1098 H 0.56646 0.21053 0.14316 0.0
H1099 H 0.56537 0.17505 0.15451 0.0
H1100 H 0.57582 0.17181 0.13741 0.0
H1101 H 0.3847 0.10147 0.1559 0.0
H1102 H 0.42225 0.14435 0.1651 0.0
H1103 H 0.40211 0.15113 0.15008 0.0
H1104 H 0.55722 0.22166 0.187 0.0
H1105 H 0.54218 0.29154 0.15771 0.0
H1106 H 0.52372 0.13767 0.17285 0.0
H1107 H 0.47257 0.1242 0.17524 0.0
H1108 H 0.50891 0.14974 0.18822 0.0
H1109 H 0.50494 0.22392 0.13376 0.0
H1110 H 0.4964 0.26242 0.14033 0.0
H1111 H 0.45783 0.21017 0.14121 0.0
C1112 C 0.89649 0.39107 0.12801 0.0
C1113 C 0.91618 0.37072 0.1242 0.0
C1114 C 0.86776 0.37623 0.13809 0.0
C1115 C 0.85944 0.34087 0.14484 0.0
C1116 C 0.88142 0.32189 0.14166 0.0
C1117 C 0.90892 0.33656 0.13119 0.0
C1118 C 0.84461 0.39713 0.14098 0.0
C1119 C 0.87486 0.28516 0.14887 0.0
C1120 C 0.79256 0.32748 0.17393 0.0
C1121 C 0.75493 0.30493 0.16795 0.0
C1122 C 0.82751 0.3357 0.16706 0.0
C1123 C 0.82437 0.32159 0.15392 0.0
C1124 C 0.78612 0.29424 0.14865 0.0
C1125 C 0.75187 0.28581 0.15583 0.0
C1126 C 0.86773 0.36289 0.17334 0.0
C1127 C 0.78109 0.27802 0.13476 0.0
H1128 H 0.90198 0.41741 0.12262 0.0
H1129 H 0.92451 0.321 0.1284 0.0
H1130 H 0.8124 0.37638 0.13878 0.0
H1131 H 0.84705 0.40546 0.15155 0.0
H1132 H 0.85538 0.42479 0.13509 0.0
H1133 H 0.90159 0.28187 0.14819 0.0
H1134 H 0.86782 0.28641 0.1594 0.0
H1135 H 0.84927 0.25787 0.1444 0.0
H1136 H 0.79512 0.34226 0.18332 0.0
H1137 H 0.72268 0.26798 0.15126 0.0
H1138 H 0.8798 0.39412 0.1699 0.0
H1139 H 0.8894 0.35347 0.17051 0.0
H1140 H 0.86541 0.363 0.18423 0.0
H1141 H 0.78965 0.30285 0.12773 0.0
H1142 H 0.74974 0.25398 0.13265 0.0
H1143 H 0.80097 0.26576 0.13292 0.0
C1144 C 0.73982 0.61228 0.13442 0.0
C1145 C 0.71322 0.59171 0.12403 0.0
C1146 C 0.74031 0.5919 0.14568 0.0
C1147 C 0.71463 0.5497 0.1463 0.0
C1148 C 0.68591 0.52927 0.13619 0.0
C1149 C 0.68521 0.5507 0.12522 0.0
C1150 C 0.77019 0.61517 0.15644 0.0
C1151 C 0.65814 0.48422 0.13639 0.0
C1152 C 0.74834 0.48222 0.16047 0.0
C1153 C 0.72117 0.46426 0.17082 0.0
C1154 C 0.74887 0.5127 0.15305 0.0
C1155 C 0.72186 0.52594 0.1562 0.0
C1156 C 0.69823 0.51169 0.16775 0.0
C1157 C 0.69794 0.48062 0.17492 0.0
C1158 C 0.77493 0.52712 0.14091 0.0
C1159 C 0.67037 0.52627 0.1718 0.0
H1160 H 0.7613 0.6442 0.13353 0.0
H1161 H 0.66483 0.53483 0.11715 0.0
H1162 H 0.75693 0.6039 0.16627 0.0
H1163 H 0.79642 0.61125 0.15535 0.0
H1164 H 0.78101 0.64786 0.156 0.0
H1165 H 0.63563 0.47335 0.12836 0.0
H1166 H 0.67589 0.46919 0.1353 0.0
H1167 H 0.64219 0.47488 0.14594 0.0
H1168 H 0.76609 0.46928 0.15728 0.0
H1169 H 0.67657 0.46644 0.18284 0.0
H1170 H 0.79172 0.56043 0.14053 0.0
H1171 H 0.75576 0.51568 0.13201 0.0
H1172 H 0.79672 0.51662 0.14053 0.0
H1173 H 0.68411 0.55894 0.16998 0.0
H1174 H 0.66216 0.52043 0.18236 0.0
H1175 H 0.64248 0.51017 0.1659 0.0
C1176 C 0.50161 0.08649 0.0532 0.0
C1177 C 0.48583 0.10202 0.06246 0.0
C1178 C 0.52498 0.10969 0.04259 0.0
C1179 C 0.53352 0.14968 0.04135 0.0
C1180 C 0.51603 0.16482 0.05029 0.0
C1181 C 0.4921 0.14066 0.06067 0.0
C1182 C 0.54209 0.092 0.0331 0.0
C1183 C 0.52446 0.20739 0.04935 0.0
C1184 C 0.63325 0.23269 0.02894 0.0
C1185 C 0.62232 0.24339 0.01726 0.0
C1186 C 0.60511 0.20023 0.03639 0.0
C1187 C 0.56495 0.17764 0.032 0.0
C1188 C 0.55476 0.18548 0.01947 0.0
C1189 C 0.58372 0.21848 0.0122 0.0
C1190 C 0.61762 0.19275 0.04958 0.0
C1191 C 0.5126 0.16135 0.01425 0.0
H1192 H 0.49615 0.05626 0.05435 0.0
H1193 H 0.47979 0.15274 0.06772 0.0
H1194 H 0.53915 0.09935 0.02282 0.0
H1195 H 0.57447 0.10519 0.03511 0.0
H1196 H 0.52712 0.05879 0.03399 0.0
H1197 H 0.50621 0.21357 0.05639 0.0
H1198 H 0.55659 0.22883 0.05143 0.0
H1199 H 0.51834 0.2133 0.03924 0.0
H1200 H 0.66325 0.2518 0.0328 0.0
H1201 H 0.57515 0.22677 1.00318 0.0
H1202 H 0.60725 0.16039 0.05069 0.0
H1203 H 0.60356 0.20122 0.05755 0.0
H1204 H 0.65061 0.2104 0.05096 0.0
H1205 H 0.49911 0.12895 0.01648 0.0
H1206 H 0.51159 0.16478 1.00345 0.0
H1207 H 0.49391 0.17197 0.01906 0.0
C1208 C 0.88672 0.36841 0.05702 0.0
C1209 C 0.92815 0.39421 0.05809 0.0
C1210 C 0.86553 0.37121 0.04632 0.0
C1211 C 0.88648 0.39977 0.0363 0.0
C1212 C 0.92875 0.42336 0.03681 0.0
C1213 C 0.94899 0.4208 0.04781 0.0
C1214 C 0.82041 0.34563 0.04622 0.0
C1215 C 0.95247 0.45301 0.02616 0.0
C1216 C 0.81905 0.38772 0.00748 0.0
C1217 C 0.80503 0.41309 0.0116 0.0
C1218 C 0.84846 0.38539 0.0148 0.0
C1219 C 0.86368 0.40871 0.0265 0.0
C1220 C 0.85299 0.43774 0.02972 0.0
C1221 C 0.82413 0.43983 0.02214 0.0
C1222 C 0.86033 0.35533 0.01068 0.0
C1223 C 0.86861 0.46362 0.04199 0.0
H1224 H 0.8706 0.34794 0.06497 0.0
H1225 H 0.98119 0.44046 0.04854 0.0
H1226 H 0.80742 0.3652 0.0475 0.0
H1227 H 0.80976 0.32967 0.03664 0.0
H1228 H 0.80885 0.32302 0.05418 0.0
H1229 H 0.98472 0.46265 0.02658 0.0
H1230 H 0.94063 0.43984 0.01629 0.0
H1231 H 0.94983 0.48011 0.02734 0.0
H1232 H 0.80433 0.36686 0.99936 0.0
H1233 H 0.81348 0.45963 0.0253 0.0
H1234 H 0.84321 0.32763 0.01655 0.0
H1235 H 0.89265 0.36738 0.01249 0.0
H1236 H 0.8538 0.34694 1.00011 0.0
H1237 H 0.85637 0.44436 0.05079 0.0
H1238 H 0.86005 0.48697 0.04248 0.0
H1239 H 0.90169 0.47875 0.04248 0.0
C1240 C 0.70541 0.55117 0.05326 0.0
C1241 C 0.68964 0.57517 0.05706 0.0
C1242 C 0.69019 0.52527 0.04229 0.0
C1243 C 0.6594 0.52445 0.03459 0.0
C1244 C 0.64463 0.55008 0.03806 0.0
C1245 C 0.65931 0.57446 0.04943 0.0
C1246 C 0.70634 0.49785 0.0392 0.0
C1247 C 0.61291 0.55157 0.03004 0.0
C1248 C 0.65638 0.46855 1.00373 0.0
C1249 C 0.63027 0.42919 0.00794 0.0
C1250 C 0.66205 0.50152 0.01148 0.0
C1251 C 0.64144 0.49439 0.02361 0.0
C1252 C 0.60956 0.45516 0.02639 0.0
C1253 C 0.60389 0.42295 0.01833 0.0
C1254 C 0.6939 0.54339 0.00761 0.0
C1255 C 0.58571 0.44619 0.03895 0.0
H1256 H 0.72878 0.55163 0.05915 0.0
H1257 H 0.64736 0.59342 0.05225 0.0
H1258 H 0.68155 0.466 0.03913 0.0
H1259 H 0.72017 0.50445 0.02929 0.0
H1260 H 0.72917 0.50122 0.04644 0.0
H1261 H 0.6174 0.58234 0.03027 0.0
H1262 H 0.61269 0.54238 0.01964 0.0
H1263 H 0.58308 0.53105 0.03438 0.0
H1264 H 0.67642 0.47358 0.99556 0.0
H1265 H 0.58314 0.39241 0.02143 0.0
H1266 H 0.7222 0.5518 0.0128 0.0
H1267 H 0.68502 0.56556 0.01046 0.0
H1268 H 0.69976 0.54524 0.99686 0.0
H1269 H 0.60491 0.44889 0.0474 0.0
H1270 H 0.55896 0.41536 0.03885 0.0
H1271 H 0.57578 0.46814 0.04056 0.0
C1272 C 0.6026 0.92658 0.87833 0.0
C1273 C 0.57476 0.9314 0.88579 0.0
C1274 C 0.59033 0.89993 0.86748 0.0
C1275 C 0.54905 0.8762 0.86442 0.0
C1276 C 0.52102 0.88182 0.87177 0.0
C1277 C 0.53435 0.90987 0.88219 0.0
C1278 C 0.62165 0.89647 0.85969 0.0
C1279 C 0.47656 0.85662 0.86912 0.0
C1280 C 0.49235 0.81099 0.83528 0.0
C1281 C 0.47739 0.77302 0.84086 0.0
C1282 C 0.52091 0.84586 0.8421 0.0
C1283 C 0.53378 0.84218 0.85474 0.0
C1284 C 0.5237 0.80365 0.85923 0.0
C1285 C 0.49601 0.76948 0.8521 0.0
C1286 C 0.53361 0.88655 0.8365 0.0
C1287 C 0.53744 0.79812 0.87247 0.0
H1288 H 0.63403 0.94359 0.88099 0.0
H1289 H 0.51279 0.91344 0.88796 0.0
H1290 H 0.62809 0.87494 0.86458 0.0
H1291 H 0.61178 0.88575 0.84947 0.0
H1292 H 0.65011 0.92594 0.85937 0.0
H1293 H 0.45882 0.86461 0.87578 0.0
H1294 H 0.47009 0.86054 0.85882 0.0
H1295 H 0.46621 0.82428 0.8704 0.0
H1296 H 0.47848 0.81388 0.82648 0.0
H1297 H 0.48497 0.73996 0.85626 0.0
H1298 H 0.5654 0.90846 0.83892 0.0
H1299 H 0.51504 0.89801 0.84085 0.0
H1300 H 0.5297 0.88486 0.82565 0.0
H1301 H 0.57017 0.81852 0.8736 0.0
H1302 H 0.53026 0.76669 0.87391 0.0
H1303 H 0.52252 0.80583 0.88037 0.0
C1304 C 0.12691 0.7042 0.88053 0.0
C1305 C 0.12255 0.67185 0.88797 0.0
C1306 C 0.15369 0.71917 0.86987 0.0
C1307 C 0.17788 0.70246 0.86691 0.0
C1308 C 0.17286 0.66916 0.87423 0.0
C1309 C 0.1448 0.65388 0.88451 0.0
C1310 C 0.15677 0.75361 0.86211 0.0
C1311 C 0.19847 0.65076 0.87161 0.0
C1312 C 0.24151 0.71347 0.83716 0.0
C1313 C 0.27971 0.73843 0.84252 0.0
C1314 C 0.20706 0.70506 0.84439 0.0
C1315 C 0.21134 0.7217 0.85721 0.0
C1316 C 0.24977 0.75166 0.86165 0.0
C1317 C 0.28348 0.76007 0.85414 0.0
C1318 C 0.16642 0.67495 0.83894 0.0
C1319 C 0.25595 0.7708 0.87513 0.0
H1320 H 0.10935 0.7179 0.88306 0.0
H1321 H 0.14156 0.62895 0.89023 0.0
H1322 H 0.18114 0.78246 0.86623 0.0
H1323 H 0.16375 0.75173 0.85161 0.0
H1324 H 0.12857 0.7543 0.86268 0.0
H1325 H 0.1906 0.62487 0.8781 0.0
H1326 H 0.19508 0.6403 0.86124 0.0
H1327 H 0.2305 0.67377 0.87317 0.0
H1328 H 0.23837 0.6969 0.82812 0.0
H1329 H 0.31308 0.77987 0.85819 0.0
H1330 H 0.14403 0.68354 0.84162 0.0
H1331 H 0.15632 0.64498 0.84319 0.0
H1332 H 0.16722 0.67224 0.82807 0.0
H1333 H 0.23452 0.78123 0.87689 0.0
H1334 H 0.28685 0.79678 0.87646 0.0
H1335 H 0.25038 0.74814 0.88272 0.0
C1336 C 0.34876 0.4888 0.88726 0.0
C1337 C 0.32178 0.44739 0.88805 0.0
C1338 C 0.34738 0.51091 0.8766 0.0
C1339 C 0.31898 0.49089 0.86637 0.0
C1340 C 0.2942 0.44852 0.8666 0.0
C1341 C 0.29546 0.42737 0.87753 0.0
C1342 C 0.37427 0.5561 0.8768 0.0
C1343 C 0.26457 0.42572 0.85573 0.0
C1344 C 0.28287 0.55703 0.85256 0.0
C1345 C 0.30941 0.57541 0.84207 0.0
C1346 C 0.28361 0.52713 0.85996 0.0
C1347 C 0.31134 0.51492 0.85669 0.0
C1348 C 0.33467 0.52978 0.84509 0.0
C1349 C 0.33357 0.56014 0.83791 0.0
C1350 C 0.25774 0.51192 0.87211 0.0
C1351 C 0.36347 0.51647 0.84095 0.0
H1352 H 0.36905 0.50429 0.89538 0.0
H1353 H 0.2749 0.39515 0.87804 0.0
H1354 H 0.39019 0.56658 0.86728 0.0
H1355 H 0.35584 0.57029 0.87817 0.0
H1356 H 0.39678 0.56675 0.88483 0.0
H1357 H 0.25393 0.39304 0.85593 0.0
H1358 H 0.23823 0.42942 0.85687 0.0
H1359 H 0.278 0.43765 0.84596 0.0
H1360 H 0.26427 0.56895 0.85579 0.0
H1361 H 0.35444 0.57456 0.82989 0.0
H1362 H 0.27696 0.52345 0.88101 0.0
H1363 H 0.2416 0.47861 0.87239 0.0
H1364 H 0.23539 0.52169 0.87263 0.0
H1365 H 0.39106 0.53268 0.84698 0.0
H1366 H 0.37203 0.52313 0.83044 0.0
H1367 H 0.35036 0.48376 0.84254 0.0
C1368 C 0.51215 0.89901 0.94965 0.0
C1369 C 0.55263 0.92883 0.95031 0.0
C1370 C 0.49262 0.87466 0.96051 0.0
C1371 C 0.51378 0.88138 0.97248 0.0
C1372 C 0.55424 0.91301 0.97337 0.0
C1373 C 0.57347 0.9359 0.96216 0.0
C1374 C 0.4498 0.8407 0.95899 0.0
C1375 C 0.57735 0.92223 0.98606 0.0
C1376 C 0.44316 0.82075 1.00025 0.0
C1377 C 0.44533 0.78573 0.99943 0.0
C1378 C 0.46809 0.85417 0.99236 0.0
C1379 C 0.49485 0.85181 0.98331 0.0
C1380 C 0.49937 0.8178 0.98335 0.0
C1381 C 0.47501 0.78557 0.99153 0.0
C1382 C 0.46369 0.89068 0.99305 0.0
C1383 C 0.5271 0.81355 0.97384 0.0
H1384 H 0.49607 0.89406 0.94049 0.0
H1385 H 0.6046 0.95976 0.96271 0.0
H1386 H 0.44806 0.81147 0.96048 0.0
H1387 H 0.43064 0.84344 0.96656 0.0
H1388 H 0.43737 0.84015 0.94913 0.0
H1389 H 0.60565 0.95185 0.98581 0.0
H1390 H 0.55894 0.92214 0.99447 0.0
H1391 H 0.5849 0.89868 0.98789 0.0
H1392 H 0.42035 0.82112 0.00635 0.0
H1393 H 0.47735 0.75881 0.99105 0.0
H1394 H 0.44427 0.88933 0.98487 0.0
H1395 H 0.49317 0.91873 0.99198 0.0
H1396 H 0.44979 0.89214 1.00247 0.0
H1397 H 0.51596 0.81108 0.96365 0.0
H1398 H 0.52928 0.78656 0.97582 0.0
H1399 H 0.55759 0.84047 0.97432 0.0
C1400 C 0.14867 0.68309 0.95522 0.0
C1401 C 0.10823 0.65333 0.95413 0.0
C1402 C 0.17151 0.68391 0.96602 0.0
C1403 C 0.15309 0.65492 0.97609 0.0
C1404 C 0.11138 0.62727 0.97557 0.0
C1405 C 0.08959 0.62635 0.96449 0.0
C1406 C 0.21598 0.7137 0.96611 0.0
C1407 C 0.09024 0.5969 0.98629 0.0
C1408 C 0.22337 0.62456 0.99019 0.0
C1409 C 0.23938 0.65062 1.00104 0.0
C1410 C 0.19326 0.62377 0.98249 0.0
C1411 C 0.1785 0.64951 0.98581 0.0
C1412 C 0.19167 0.67285 0.99757 0.0
C1413 C 0.22243 0.67345 1.00502 0.0
C1414 C 0.1802 0.59828 0.97008 0.0
C1415 C 0.17578 0.69966 1.00171 0.0
H1416 H 0.16308 0.70387 0.9472 0.0
H1417 H 0.05809 0.60361 0.96372 0.0
H1418 H 0.22533 0.72964 0.97574 0.0
H1419 H 0.2324 0.69742 0.96468 0.0
H1420 H 0.22508 0.73636 0.95822 0.0
H1421 H 0.05724 0.58328 0.98578 0.0
H1422 H 0.09705 0.57242 0.98528 0.0
H1423 H 0.10082 0.61104 0.99614 0.0
H1424 H 0.23704 0.6074 0.98704 0.0
H1425 H 0.23538 0.69418 0.01328 0.0
H1426 H 0.19053 0.61811 0.96138 0.0
H1427 H 0.14709 0.57975 0.96958 0.0
H1428 H 0.19249 0.57793 0.96942 0.0
H1429 H 0.19053 0.72751 0.99581 0.0
H1430 H 0.18183 0.70836 0.01227 0.0
H1431 H 0.14307 0.6846 0.99993 0.0
C1432 C 0.32133 0.47737 0.95817 0.0
C1433 C 0.34023 0.45603 0.95466 0.0
C1434 C 0.33335 0.50247 0.96936 0.0
C1435 C 0.36413 0.50523 0.97754 0.0
C1436 C 0.38267 0.48291 0.97422 0.0
C1437 C 0.37094 0.45906 0.96269 0.0
C1438 C 0.31339 0.52654 0.97229 0.0
C1439 C 0.41433 0.48368 0.98293 0.0
C1440 C 0.40829 0.6018 0.99716 0.0
C1441 C 0.38007 0.58991 0.00731 0.0
C1442 C 0.40661 0.57356 0.98796 0.0
C1443 C 0.37689 0.53244 0.98932 0.0
C1444 C 0.35332 0.51978 1.0009 0.0
C1445 C 0.35472 0.54885 0.00969 0.0
C1446 C 0.43231 0.58875 0.97579 0.0
C1447 C 0.32275 0.47606 1.00312 0.0
H1448 H 0.2978 0.47527 0.95193 0.0
H1449 H 0.38529 0.44216 0.96006 0.0
H1450 H 0.2974 0.51722 0.98184 0.0
H1451 H 0.33628 0.55903 0.97314 0.0
H1452 H 0.29154 0.52259 0.96458 0.0
H1453 H 0.42762 0.46667 0.97855 0.0
H1454 H 0.43863 0.51507 0.9849 0.0
H1455 H 0.4009 0.47028 0.99257 0.0
H1456 H 0.42755 0.63365 0.99523 0.0
H1457 H 0.33264 0.53962 0.01748 0.0
H1458 H 0.41428 0.59038 0.96766 0.0
H1459 H 0.44272 0.56812 0.97257 0.0
H1460 H 0.45882 0.61926 0.9774 0.0
H1461 H 0.2953 0.46771 0.99741 0.0
H1462 H 0.31436 0.47016 0.01367 0.0
H1463 H 0.33421 0.45642 0.99973 0.0
C1464 C 0.17056 0.46504 0.46378 0.0
C1465 C 0.13003 0.4416 0.46051 0.0
C1466 C 0.18313 0.49251 0.47437 0.0
C1467 C 0.15426 0.49542 0.48221 0.0
C1468 C 0.11302 0.46963 0.47946 0.0
C1469 C 0.10146 0.44373 0.46844 0.0
C1470 C 0.22752 0.51999 0.47669 0.0
C1471 C 0.08091 0.47006 0.48777 0.0
C1472 C 0.21067 0.56087 0.51128 0.0
C1473 C 0.22286 0.59867 0.50598 0.0
C1474 C 0.18299 0.52556 0.50448 0.0
C1475 C 0.16822 0.5287 0.49213 0.0
C1476 C 0.1752 0.5666 0.48806 0.0
C1477 C 0.20205 0.60118 0.4952 0.0
C1478 C 0.17346 0.48533 0.5097 0.0
C1479 C 0.15926 0.57145 0.47515 0.0
H1480 H 0.19261 0.46344 0.45763 0.0
H1481 H 0.06994 0.42517 0.46601 0.0
H1482 H 0.23563 0.55186 0.47577 0.0
H1483 H 0.23541 0.51609 0.4868 0.0
H1484 H 0.24595 0.51415 0.46962 0.0
H1485 H 0.05389 0.43948 0.48821 0.0
H1486 H 0.09127 0.48097 0.49795 0.0
H1487 H 0.0718 0.49004 0.48321 0.0
H1488 H 0.22641 0.55879 0.51972 0.0
H1489 H 0.21118 0.63054 0.49122 0.0
H1490 H 0.19327 0.47605 0.50491 0.0
H1491 H 0.14199 0.46194 0.50746 0.0
H1492 H 0.1783 0.48673 0.5205 0.0
H1493 H 0.17456 0.5656 0.4669 0.0
H1494 H 0.16414 0.60219 0.47405 0.0
H1495 H 0.12678 0.5494 0.47428 0.0
C1496 C 0.56457 0.72815 0.4615 0.0
C1497 C 0.58619 0.70947 0.45811 0.0
C1498 C 0.53594 0.71296 0.47162 0.0
C1499 C 0.52975 0.67905 0.47884 0.0
C1500 C 0.55364 0.6619 0.47605 0.0
C1501 C 0.58096 0.67677 0.46554 0.0
C1502 C 0.51071 0.73186 0.47408 0.0
C1503 C 0.54938 0.62687 0.48377 0.0
C1504 C 0.46245 0.66535 0.50782 0.0
C1505 C 0.42492 0.64071 0.50198 0.0
C1506 C 0.49776 0.67459 0.50099 0.0
C1507 C 0.49505 0.65922 0.48805 0.0
C1508 C 0.45718 0.62975 0.48304 0.0
C1509 C 0.42259 0.62043 0.49019 0.0
C1510 C 0.5377 0.70415 0.50703 0.0
C1511 C 0.45262 0.6121 0.46938 0.0
H1512 H 0.56849 0.75334 0.45577 0.0
H1513 H 0.59805 0.66253 0.46305 0.0
H1514 H 0.47878 0.70945 0.47205 0.0
H1515 H 0.51294 0.7413 0.48453 0.0
H1516 H 0.51985 0.75852 0.46782 0.0
H1517 H 0.5771 0.62527 0.48323 0.0
H1518 H 0.54239 0.62889 0.49425 0.0
H1519 H 0.52454 0.5984 0.4796 0.0
H1520 H 0.46446 0.68099 0.51698 0.0
H1521 H 0.3935 0.601 0.48573 0.0
H1522 H 0.5481 0.73462 0.50315 0.0
H1523 H 0.56053 0.69607 0.50445 0.0
H1524 H 0.5356 0.70548 0.51791 0.0
H1525 H 0.45943 0.63569 0.46201 0.0
H1526 H 0.42181 0.5865 0.46754 0.0
H1527 H 0.47398 0.60152 0.46779 0.0
C1528 C 0.40815 0.94794 0.46501 0.0
C1529 C 0.38052 0.92801 0.45481 0.0
C1530 C 0.4091 0.92708 0.47606 0.0
C1531 C 0.38256 0.88504 0.47673 0.0
C1532 C 0.35275 0.86532 0.46688 0.0
C1533 C 0.3518 0.8872 0.45608 0.0
C1534 C 0.44034 0.94961 0.48654 0.0
C1535 C 0.32389 0.82048 0.46718 0.0
C1536 C 0.41551 0.81591 0.49007 0.0
C1537 C 0.39029 0.79948 0.50096 0.0
C1538 C 0.41555 0.84617 0.48266 0.0
C1539 C 0.38988 0.86063 0.48633 0.0
C1540 C 0.36804 0.84762 0.49826 0.0
C1541 C 0.36836 0.81689 0.50546 0.0
C1542 C 0.43981 0.85939 0.47013 0.0
C1543 C 0.34145 0.86328 0.50279 0.0
H1544 H 0.43005 0.97974 0.46413 0.0
H1545 H 0.33048 0.87179 0.4482 0.0
H1546 H 0.42775 0.93895 0.49649 0.0
H1547 H 0.46547 0.94408 0.48514 0.0
H1548 H 0.45257 0.98256 0.48609 0.0
H1549 H 0.30036 0.81033 0.4595 0.0
H1550 H 0.34055 0.80451 0.46557 0.0
H1551 H 0.30921 0.8115 0.47694 0.0
H1552 H 0.43227 0.80218 0.48656 0.0
H1553 H 0.34844 0.80386 0.5138 0.0
H1554 H 0.45735 0.89267 0.46959 0.0
H1555 H 0.41932 0.84805 0.46153 0.0
H1556 H 0.46078 0.84794 0.4693 0.0
H1557 H 0.35557 0.89593 0.50087 0.0
H1558 H 0.33453 0.85802 0.51345 0.0
H1559 H 0.31282 0.84746 0.49727 0.0
C1560 C 0.15391 0.47299 0.39234 0.0
C1561 C 0.14507 0.43341 0.39396 0.0
C1562 C 0.17711 0.49588 0.38163 0.0
C1563 C 0.19098 0.47839 0.37219 0.0
C1564 C 0.17922 0.43738 0.37322 0.0
C1565 C 0.15688 0.41555 0.38418 0.0
C1566 C 0.18908 0.5396 0.38093 0.0
C1567 C 0.19213 0.41715 0.36319 0.0
C1568 C 0.24186 0.5473 0.34317 0.0
C1569 C 0.28126 0.56938 0.34783 0.0
C1570 C 0.21216 0.51475 0.35041 0.0
C1571 C 0.22241 0.5047 0.36255 0.0
C1572 C 0.2631 0.52409 0.3664 0.0
C1573 C 0.292 0.55603 0.35893 0.0
C1574 C 0.16939 0.49383 0.3457 0.0
C1575 C 0.27568 0.51425 0.37917 0.0
H1576 H 0.14471 0.48683 0.39984 0.0
H1577 H 0.14938 0.3846 0.38526 0.0
H1578 H 0.22183 0.55887 0.38256 0.0
H1579 H 0.18249 0.54648 0.37104 0.0
H1580 H 0.17337 0.54778 0.3884 0.0
H1581 H 0.17409 0.38383 0.36387 0.0
H1582 H 0.18955 0.42597 0.35307 0.0
H1583 H 0.22401 0.4268 0.36483 0.0
H1584 H 0.23343 0.55783 0.33463 0.0
H1585 H 0.32255 0.57324 0.36253 0.0
H1586 H 0.15327 0.50668 0.35095 0.0
H1587 H 0.15367 0.46118 0.34781 0.0
H1588 H 0.1677 0.4979 0.33497 0.0
H1589 H 0.2642 0.52413 0.38755 0.0
H1590 H 0.30875 0.52933 0.38008 0.0
H1591 H 0.26276 0.48134 0.38001 0.0
C1592 C 0.55604 0.70173 0.39072 0.0
C1593 C 0.59704 0.7295 0.39189 0.0
C1594 C 0.53405 0.70344 0.38007 0.0
C1595 C 0.55381 0.73304 0.37024 0.0
C1596 C 0.59586 0.75864 0.37082 0.0
C1597 C 0.61687 0.75696 0.38173 0.0
C1598 C 0.48921 0.67558 0.37986 0.0
C1599 C 0.61838 0.78959 0.36037 0.0
C1600 C 0.48512 0.71958 0.34168 0.0
C1601 C 0.46876 0.74245 0.34628 0.0
C1602 C 0.51566 0.71868 0.34879 0.0
C1603 C 0.52969 0.741 0.36071 0.0
C1604 C 0.5165 0.76775 0.36444 0.0
C1605 C 0.48637 0.76828 0.35712 0.0
C1606 C 0.52999 0.69096 0.34418 0.0
C1607 C 0.53092 0.79263 0.37694 0.0
H1608 H 0.5407 0.68052 0.39856 0.0
H1609 H 0.6488 0.7781 0.38252 0.0
H1610 H 0.47434 0.6933 0.38152 0.0
H1611 H 0.47936 0.66051 0.37011 0.0
H1612 H 0.47884 0.65218 0.38754 0.0
H1613 H 0.65102 0.8009 0.36071 0.0
H1614 H 0.60694 0.77691 0.35042 0.0
H1615 H 0.614 0.81554 0.36189 0.0
H1616 H 0.47138 0.69933 0.33336 0.0
H1617 H 0.47372 0.786 0.36067 0.0
H1618 H 0.51402 0.66245 0.34972 0.0
H1619 H 0.56253 0.70451 0.34602 0.0
H1620 H 0.524 0.68361 0.33353 0.0
H1621 H 0.51958 0.77244 0.38556 0.0
H1622 H 0.52051 0.8145 0.37779 0.0
H1623 H 0.56407 0.80941 0.37743 0.0
C1624 C 0.3295 0.91361 0.38014 0.0
C1625 C 0.35988 0.91519 0.38798 0.0
C1626 C 0.3146 0.88779 0.3691 0.0
C1627 C 0.32953 0.86201 0.36614 0.0
C1628 C 0.36079 0.86415 0.37393 0.0
C1629 C 0.37603 0.89124 0.3846 0.0
C1630 C 0.28296 0.88804 0.36065 0.0
C1631 C 0.37711 0.83663 0.37134 0.0
C1632 C 0.27236 0.75779 0.3519 0.0
C1633 C 0.29725 0.76205 0.34125 0.0
C1634 C 0.27918 0.79136 0.35941 0.0
C1635 C 0.31062 0.83002 0.35578 0.0
C1636 C 0.32987 0.83488 0.34348 0.0
C1637 C 0.32308 0.80054 0.33631 0.0
C1638 C 0.25739 0.78441 0.37234 0.0
C1639 C 0.36173 0.87579 0.33881 0.0
H1640 H 0.31747 0.93273 0.38262 0.0
H1641 H 0.39944 0.89242 0.39067 0.0
H1642 H 0.29497 0.89788 0.35059 0.0
H1643 H 0.25641 0.85733 0.3597 0.0
H1644 H 0.27318 0.90853 0.36465 0.0
H1645 H 0.40087 0.84168 0.37845 0.0
H1646 H 0.35259 0.80474 0.37196 0.0
H1647 H 0.38977 0.84136 0.36127 0.0
H1648 H 0.25197 0.72789 0.3556 0.0
H1649 H 0.34209 0.80399 0.32797 0.0
H1650 H 0.24974 0.80792 0.37434 0.0
H1651 H 0.27716 0.7858 0.38042 0.0
H1652 H 0.22944 0.75448 0.37257 0.0
H1653 H 0.35445 0.89913 0.34165 0.0
H1654 H 0.36545 0.87594 0.32796 0.0
H1655 H 0.39076 0.88397 0.34342 0.0
C1656 C 0.27157 0.0306 0.10933 0.0
C1657 C 0.30938 0.06381 0.10662 0.0
C1658 C 0.24186 0.03552 0.11547 0.0
C1659 C 0.25061 0.07451 0.11942 0.0
C1660 C 0.2895 0.10794 0.1173 0.0
C1661 C 0.31822 0.1023 0.11068 0.0
C1662 C 0.20058 0.99911 0.11724 0.0
C1663 C 0.30055 0.14969 0.12183 0.0
C1664 C 0.15918 0.08482 0.1187 0.0
C1665 C 0.14424 0.07401 0.13154 0.0
C1666 C 0.19508 0.0875 0.11486 0.0
C1667 C 0.2175 0.08038 0.12418 0.0
C1668 C 0.20492 0.07387 0.13752 0.0
C1669 C 0.16807 0.07032 0.14105 0.0
C1670 C 0.2069 0.0942 0.10051 0.0
C1671 C 0.22884 0.06784 0.14789 0.0
H1672 H 0.26484 0.0008 0.10628 0.0
H1673 H 0.34782 0.12792 0.10888 0.0
H1674 H 0.19158 0.99614 0.12773 0.0
H1675 H 0.17847 0.00284 0.11154 0.0
H1676 H 0.19896 0.97081 0.11395 0.0
H1677 H 0.33333 0.17117 0.12129 0.0
H1678 H 0.28525 0.16107 0.1156 0.0
H1679 H 0.29043 0.14907 0.13211 0.0
H1680 H 0.14128 0.08846 0.11133 0.0
H1681 H 0.15685 0.06204 0.15098 0.0
H1682 H 0.20423 0.06641 0.0962 0.0
H1683 H 0.23852 0.11861 0.09943 0.0
H1684 H 0.18779 0.10208 0.09472 0.0
H1685 H 0.22272 0.03654 0.14724 0.0
H1686 H 0.22076 0.0729 0.15794 0.0
H1687 H 0.26144 0.0884 0.14637 0.0
C1688 C 0.00138 0.2629 0.10882 0.0
C1689 C 0.9668 0.26359 0.10558 0.0
C1690 C 0.99901 0.22999 0.11533 0.0
C1691 C 0.96113 0.19747 0.11914 0.0
C1692 C 0.92618 0.19902 0.11648 0.0
C1693 C 0.92935 0.23172 0.10948 0.0
C1694 C 0.03702 0.2293 0.11763 0.0
C1695 C 0.88545 0.16588 0.12085 0.0
C1696 C 0.95981 0.09926 0.11908 0.0
C1697 C 0.97128 0.09772 0.13202 0.0
C1698 C 0.95385 0.13016 0.11499 0.0
C1699 C 0.95825 0.15995 0.12416 0.0
C1700 C 0.96538 0.15611 0.13761 0.0
C1701 C 0.97225 0.12512 0.14139 0.0
C1702 C 0.9467 0.13295 0.10055 0.0
C1703 C 0.96854 0.18622 0.14782 0.0
H1704 H 0.03038 0.28772 0.10591 0.0
H1705 H 0.90263 0.23272 0.10728 0.0
H1706 H 0.04021 0.22504 0.12821 0.0
H1707 H 0.0356 0.20355 0.11217 0.0
H1708 H 0.06414 0.25742 0.11439 0.0
H1709 H 0.86248 0.17472 0.12007 0.0
H1710 H 0.87587 0.13863 0.11466 0.0
H1711 H 0.88663 0.15762 0.13118 0.0
H1712 H 0.95818 0.07765 0.11182 0.0
H1713 H 0.98088 0.12406 0.15142 0.0
H1714 H 0.97327 0.15962 0.09631 0.0
H1715 H 0.92069 0.13694 0.09919 0.0
H1716 H 0.94123 0.10583 0.09487 0.0
H1717 H 0.99877 0.21354 0.14736 0.0
H1718 H 0.96401 0.1739 0.15791 0.0
H1719 H 0.94627 0.19544 0.14597 0.0
C1720 C 0.80749 0.73036 0.10759 0.0
C1721 C 0.77031 0.72794 0.10846 0.0
C1722 C 0.84101 0.76049 0.1144 0.0
C1723 C 0.83769 0.79 0.12176 0.0
C1724 C 0.79968 0.78632 0.12326 0.0
C1725 C 0.76632 0.75497 0.11673 0.0
C1726 C 0.88058 0.76231 0.11299 0.0
C1727 C 0.79485 0.81744 0.13081 0.0
C1728 C 0.92497 0.87562 0.14086 0.0
C1729 C 0.94133 0.90557 0.13126 0.0
C1730 C 0.89212 0.83699 0.13788 0.0
C1731 C 0.87455 0.82884 0.12517 0.0
C1732 C 0.89149 0.85879 0.11545 0.0
C1733 C 0.92481 0.89619 0.11854 0.0
C1734 C 0.87578 0.80545 0.14842 0.0
C1735 C 0.87361 0.85198 0.10181 0.0
H1736 H 0.8107 0.70917 0.10139 0.0
H1737 H 0.73754 0.75299 0.11753 0.0
H1738 H 0.89963 0.78586 0.10582 0.0
H1739 H 0.89677 0.77045 0.12252 0.0
H1740 H 0.87662 0.7332 0.10944 0.0
H1741 H 0.76287 0.80783 0.13237 0.0
H1742 H 0.80983 0.82369 0.14052 0.0
H1743 H 0.80936 0.84604 0.12529 0.0
H1744 H 0.93733 0.88239 0.15068 0.0
H1745 H 0.93699 0.91878 0.11094 0.0
H1746 H 0.86723 0.77543 0.14426 0.0
H1747 H 0.84852 0.80335 0.15275 0.0
H1748 H 0.89783 0.81297 0.15646 0.0
H1749 H 0.87442 0.82674 0.09682 0.0
H1750 H 0.88971 0.87899 0.09553 0.0
H1751 H 0.84178 0.84369 0.10248 0.0
C1752 C 0.03236 0.29132 0.39335 0.0
C1753 C 0.04902 0.29908 0.40601 0.0
C1754 C 0.03217 0.26162 0.38519 0.0
C1755 C 0.0485 0.23875 0.38987 0.0
C1756 C 0.06728 0.24799 0.40237 0.0
C1757 C 0.06744 0.27815 0.41027 0.0
C1758 C 0.01255 0.25325 0.37184 0.0
C1759 C 0.085 0.2243 0.40777 0.0
C1760 C 0.99852 0.12827 0.38115 0.0
C1761 C 0.02703 0.12672 0.37302 0.0
C1762 C 0.0045 0.16476 0.38615 0.0
C1763 C 0.03988 0.20099 0.3829 0.0
C1764 C 0.06761 0.20007 0.37395 0.0
C1765 C 0.06087 0.16274 0.3691 0.0
C1766 C 0.97385 0.16415 0.39554 0.0
C1767 C 0.10532 0.23813 0.37005 0.0
H1768 H 0.01875 0.30796 0.38989 0.0
H1769 H 0.08084 0.28438 0.41997 0.0
H1770 H 0.03116 0.24943 0.3643 0.0
H1771 H 0.9832 0.22477 0.37213 0.0
H1772 H 0.00746 0.27772 0.36875 0.0
H1773 H 0.10224 0.23795 0.41696 0.0
H1774 H 0.0606 0.19319 0.4099 0.0
H1775 H 0.10503 0.22219 0.40039 0.0
H1776 H 0.97192 0.10053 0.38404 0.0
H1777 H 0.08298 0.16169 0.36282 0.0
H1778 H 0.96413 0.185 0.39221 0.0
H1779 H 0.98743 0.17456 0.40544 0.0
H1780 H 0.94695 0.13364 0.39647 0.0
H1781 H 0.09906 0.26252 0.36805 0.0
H1782 H 0.11944 0.23337 0.3612 0.0
H1783 H 0.12712 0.24847 0.37827 0.0
C1784 C 0.73786 0.76031 0.39179 0.0
C1785 C 0.7306 0.77053 0.40438 0.0
C1786 C 0.76817 0.78925 0.38374 0.0
C1787 C 0.79219 0.82922 0.38847 0.0
C1788 C 0.78341 0.84017 0.40086 0.0
C1789 C 0.75259 0.81071 0.40864 0.0
C1790 C 0.77598 0.77647 0.3705 0.0
C1791 C 0.80828 0.88244 0.40629 0.0
C1792 C 0.90252 0.88693 0.38033 0.0
C1793 C 0.90582 0.91719 0.37206 0.0
C1794 C 0.86549 0.85726 0.38523 0.0
C1795 C 0.83046 0.85748 0.3817 0.0
C1796 C 0.83309 0.88623 0.37259 0.0
C1797 C 0.87094 0.91596 0.36786 0.0
C1798 C 0.86429 0.82707 0.39479 0.0
C1799 C 0.79635 0.88698 0.36839 0.0
H1800 H 0.72041 0.72943 0.38831 0.0
H1801 H 0.74676 0.81889 0.41829 0.0
H1802 H 0.78107 0.79896 0.36291 0.0
H1803 H 0.80347 0.77458 0.37103 0.0
H1804 H 0.75078 0.74663 0.3673 0.0
H1805 H 0.79492 0.88724 0.41532 0.0
H1806 H 0.83869 0.8885 0.40872 0.0
H1807 H 0.81172 0.90464 0.39883 0.0
H1808 H 0.92938 0.88737 0.38345 0.0
H1809 H 0.87335 0.93933 0.3615 0.0
H1810 H 0.84258 0.79599 0.39142 0.0
H1811 H 0.85413 0.83148 0.40456 0.0
H1812 H 0.89399 0.82984 0.39599 0.0
H1813 H 0.7711 0.85609 0.36633 0.0
H1814 H 0.80214 0.90561 0.35951 0.0
H1815 H 0.78688 0.89983 0.37648 0.0
C1816 C 0.22315 0.95378 0.40875 0.0
C1817 C 0.26305 0.97719 0.40465 0.0
C1818 C 0.19222 0.95475 0.40195 0.0
C1819 C 0.20143 0.97934 0.39072 0.0
C1820 C 0.24137 0.00109 0.38612 0.0
C1821 C 0.27166 -3e-05 0.39318 0.0
C1822 C 0.15004 0.93121 0.4072 0.0
C1823 C 0.25253 0.02736 0.37414 0.0
C1824 C 0.11648 0.9724 0.36983 0.0
C1825 C 0.11263 0.00368 0.37535 0.0
C1826 C 0.14549 0.96407 0.3746 0.0
C1827 C 0.17095 0.98753 0.38511 0.0
C1828 C 0.16775 0.01975 0.39042 0.0
C1829 C 0.13888 0.02743 0.38546 0.0
C1830 C 0.14827 0.92969 0.3686 0.0
C1831 C 0.19442 0.04587 0.40154 0.0
H1832 H 0.21625 0.9358 0.41752 0.0
H1833 H 0.30233 0.01754 0.38977 0.0
H1834 H 0.14138 0.95234 0.41139 0.0
H1835 H 0.12871 0.91402 0.39915 0.0
H1836 H 0.14692 0.90997 0.415 0.0
H1837 H 0.28355 0.03773 0.37077 0.0
H1838 H 0.23158 0.01093 0.36592 0.0
H1839 H 0.25024 0.05421 0.37647 0.0
H1840 H 0.09615 0.95374 0.36211 0.0
H1841 H 0.13648 0.05197 0.38973 0.0
H1842 H 0.13924 0.90569 0.37598 0.0
H1843 H 0.17962 0.93994 0.36574 0.0
H1844 H 0.12877 0.91658 0.3598 0.0
H1845 H 0.1904 0.02707 0.41022 0.0
H1846 H 0.18801 0.06972 0.40456 0.0
H1847 H 0.2263 0.06047 0.39855 0.0
C1848 C 0.74237 0.95876 0.90805 0.0
C1849 C 0.73395 0.98911 0.90529 0.0
C1850 C 0.77466 0.9581 0.90196 0.0
C1851 C 0.7991 0.98852 0.8929 0.0
C1852 C 0.78967 0.01822 0.88969 0.0
C1853 C 0.75732 0.0182 0.89593 0.0
C1854 C 0.78372 0.92593 0.90567 0.0
C1855 C 0.81492 0.05125 0.88012 0.0
C1856 C 0.90935 0.02283 0.89139 0.0
C1857 C 0.91262 0.00579 0.87948 0.0
C1858 C 0.87258 0.01674 0.89587 0.0
C1859 C 0.83769 0.99296 0.8883 0.0
C1860 C 0.84038 0.97517 0.87633 0.0
C1861 C 0.8779 0.98179 0.87205 0.0
C1862 C 0.87128 0.03634 0.90869 0.0
C1863 C 0.80379 0.94959 0.86799 0.0
H1864 H 0.7242 0.93591 0.91516 0.0
H1865 H 0.75077 0.0415 0.8936 0.0
H1866 H 0.78863 0.91224 0.89673 0.0
H1867 H 0.81172 0.93962 0.91153 0.0
H1868 H 0.75927 0.90178 0.91156 0.0
H1869 H 0.8011 0.0693 0.87756 0.0
H1870 H 0.84481 0.07172 0.88449 0.0
H1871 H 0.81966 0.0384 0.87094 0.0
H1872 H 0.93578 0.04131 0.89731 0.0
H1873 H 0.87999 0.96842 0.8629 0.0
H1874 H 0.84976 0.01323 0.91556 0.0
H1875 H 0.86073 0.05764 0.90689 0.0
H1876 H 0.90099 0.05307 0.91358 0.0
H1877 H 0.78023 0.92485 0.87392 0.0
H1878 H 0.81053 0.93639 0.85928 0.0
H1879 H 0.79132 0.96805 0.86454 0.0
C1880 C 0.02496 0.76157 0.8961 0.0
C1881 C 0.05676 0.76865 0.90435 0.0
C1882 C 0.02463 0.79332 0.88969 0.0
C1883 C 0.05706 0.83318 0.89145 0.0
C1884 C 0.0902 0.84025 0.89924 0.0
C1885 C 0.08953 0.80794 0.90567 0.0
C1886 C 0.98846 0.78443 0.88163 0.0
C1887 C 0.12554 0.8822 0.90128 0.0
C1888 C 0.06016 0.91608 0.87039 0.0
C1889 C 0.04223 0.93117 0.87889 0.0
C1890 C 0.06593 0.88452 0.87433 0.0
C1891 C 0.0532 0.86765 0.88701 0.0
C1892 C 0.03534 0.88302 0.8956 0.0
C1893 C 0.03021 0.9144 0.89147 0.0
C1894 C 0.08533 0.86905 0.86494 0.0
C1895 C 0.02109 0.86598 0.90918 0.0
H1896 H 0.99965 0.73125 0.89493 0.0
H1897 H 0.11452 0.81357 0.91185 0.0
H1898 H 0.97164 0.79667 0.88679 0.0
H1899 H 0.99778 0.79934 0.87195 0.0
H1900 H 0.96793 0.75164 0.87998 0.0
H1901 H 0.15117 0.88204 0.90597 0.0
H1902 H 0.13559 0.89803 0.89176 0.0
H1903 H 0.11656 0.89974 0.90767 0.0
H1904 H 0.06962 0.92878 0.8607 0.0
H1905 H 0.01629 0.9256 0.89819 0.0
H1906 H 0.06378 0.83716 0.86233 0.0
H1907 H 0.11139 0.87001 0.86971 0.0
H1908 H 0.09554 0.88676 0.85574 0.0
H1909 H 0.99808 0.83354 0.90841 0.0
H1910 H 0.00804 0.88157 0.91469 0.0
H1911 H 0.04637 0.86856 0.91499 0.0
C1912 C 0.23927 0.28697 0.90572 0.0
C1913 C 0.27748 0.31217 0.90051 0.0
C1914 C 0.20881 0.25632 0.89804 0.0
C1915 C 0.21647 0.25128 0.8847 0.0
C1916 C 0.25422 0.27851 0.87914 0.0
C1917 C 0.28451 0.30831 0.88717 0.0
C1918 C 0.16918 0.22778 0.90444 0.0
C1919 C 0.26322 0.27508 0.86489 0.0
C1920 C 0.15855 0.14165 0.87489 0.0
C1921 C 0.12365 0.13777 0.86949 0.0
C1922 C 0.19036 0.17908 0.87892 0.0
C1923 C 0.18738 0.21378 0.87748 0.0
C1924 C 0.15391 0.21066 0.8708 0.0
C1925 C 0.12215 0.17242 0.86688 0.0
C1926 C 0.22547 0.18074 0.88585 0.0
C1927 C 0.15016 0.2471 0.86869 0.0
H1928 H 0.23361 0.29013 0.916 0.0
H1929 H 0.3138 0.32838 0.88301 0.0
H1930 H 0.14413 0.22514 0.89849 0.0
H1931 H 0.16536 0.19735 0.90493 0.0
H1932 H 0.16691 0.23759 0.91456 0.0
H1933 H 0.29028 0.30289 0.86144 0.0
H1934 H 0.26844 0.2496 0.8636 0.0
H1935 H 0.23749 0.26888 0.85856 0.0
H1936 H 0.1599 0.11481 0.87674 0.0
H1937 H 0.09518 0.16945 0.86269 0.0
H1938 H 0.22503 0.18813 0.89641 0.0
H1939 H 0.25412 0.20467 0.88166 0.0
H1940 H 0.22483 0.15173 0.88512 0.0
H1941 H 0.1397 0.2544 0.87792 0.0
H1942 H 0.12826 0.24165 0.86079 0.0
H1943 H 0.17953 0.27369 0.86611 0.0
C1944 C 0.99861 0.74402 0.62012 0.0
C1945 C 0.98192 0.73555 0.60746 0.0
C1946 C 0.9985 0.77395 0.62808 0.0
C1947 C 0.98191 0.79634 0.62317 0.0
C1948 C 0.96296 0.78623 0.6107 0.0
C1949 C 0.96305 0.75583 0.60302 0.0
C1950 C 0.01819 0.78315 0.64143 0.0
C1951 C 0.94492 0.80935 0.60508 0.0
C1952 C 0.97013 0.87422 0.64304 0.0
C1953 C 0.00391 0.90981 0.6388 0.0
C1954 C 0.96327 0.83644 0.63863 0.0
C1955 C 0.99078 0.83465 0.62979 0.0
C1956 C 0.02615 0.87051 0.62625 0.0
C1957 C 0.03227 0.90745 0.63084 0.0
C1958 C 0.92564 0.79881 0.64286 0.0
C1959 C 0.05656 0.87022 0.61697 0.0
H1960 H 0.01248 0.72781 0.62374 0.0
H1961 H 0.94959 0.749 0.59332 0.0
H1962 H 0.04765 0.81147 0.64098 0.0
H1963 H 0.99974 0.78765 0.64886 0.0
H1964 H 0.0231 0.75877 0.64477 0.0
H1965 H 0.92744 0.79496 0.59598 0.0
H1966 H 0.92503 0.8119 0.6124 0.0
H1967 H 0.96917 0.84032 0.6027 0.0
H1968 H 0.94816 0.8759 0.6492 0.0
H1969 H 0.05885 0.93487 0.62772 0.0
H1970 H 0.93176 0.7744 0.64498 0.0
H1971 H 0.90339 0.7881 0.63476 0.0
H1972 H 0.91211 0.80433 0.65171 0.0
H1973 H 0.06637 0.84972 0.62059 0.0
H1974 H 0.08345 0.90061 0.61576 0.0
H1975 H 0.04275 0.85887 0.60715 0.0
C1976 C 0.29356 0.27829 0.61872 0.0
C1977 C 0.30214 0.26823 0.6063 0.0
C1978 C 0.26315 0.24902 0.62666 0.0
C1979 C 0.2404 0.20881 0.62201 0.0
C1980 C 0.25056 0.19809 0.60981 0.0
C1981 C 0.28141 0.22791 0.60213 0.0
C1982 C 0.25381 0.26164 0.63968 0.0
C1983 C 0.22709 0.15559 0.60447 0.0
C1984 C 0.16157 0.1221 0.64266 0.0
C1985 C 0.12653 0.11985 0.63809 0.0
C1986 C 0.19942 0.15204 0.63798 0.0
C1987 C 0.2019 0.17998 0.62855 0.0
C1988 C 0.16664 0.1791 0.6246 0.0
C1989 C 0.12963 0.14927 0.62945 0.0
C1990 C 0.23639 0.15245 0.64262 0.0
C1991 C 0.16765 0.2084 0.61469 0.0
H1992 H 0.31 0.30929 0.62214 0.0
H1993 H 0.28827 0.21985 0.59262 0.0
H1994 H 0.22582 0.2625 0.63877 0.0
H1995 H 0.24885 0.2396 0.64741 0.0
H1996 H 0.27817 0.2919 0.6429 0.0
H1997 H 0.2416 0.15107 0.59569 0.0
H1998 H 0.2236 0.13384 0.61211 0.0
H1999 H 0.19663 0.1486 0.60165 0.0
H2000 H 0.15932 0.0994 0.64932 0.0
H2001 H 0.10266 0.14807 0.62604 0.0
H2002 H 0.26091 0.18365 0.64476 0.0
H2003 H 0.24704 0.14009 0.63472 0.0
H2004 H 0.23043 0.13402 0.65156 0.0
H2005 H 0.18847 0.23979 0.618 0.0
H2006 H 0.13768 0.20466 0.6131 0.0
H2007 H 0.17884 0.20399 0.60512 0.0
C2008 C 0.76037 0.0376 0.61707 0.0
C2009 C 0.76826 0.06177 0.60598 0.0
C2010 C 0.7912 0.03632 0.62371 0.0
C2011 C 0.83102 0.05944 0.61909 0.0
C2012 C 0.83949 0.08528 0.60825 0.0
C2013 C 0.80799 0.08628 0.60185 0.0
C2014 C 0.78079 0.00859 0.63528 0.0
C2015 C 0.88152 0.1103 0.60298 0.0
C2016 C 0.91613 0.066 0.63976 0.0
C2017 C 0.92078 0.03558 0.63391 0.0
C2018 C 0.88708 0.07438 0.63509 0.0
C2019 C 0.86233 0.05186 0.62432 0.0
C2020 C 0.86665 0.02083 0.61855 0.0
C2021 C 0.89558 0.01306 0.62342 0.0
C2022 C 0.88321 0.10757 0.64156 0.0
C2023 C 0.84081 0.9958 0.60712 0.0
H2024 H 0.72982 0.01906 0.6205 0.0
H2025 H 0.81435 0.1053 0.59336 0.0
H2026 H 0.78434 0.98278 0.63244 0.0
H2027 H 0.8014 0.02447 0.64362 0.0
H2028 H 0.74952 0.99665 0.63868 0.0
H2029 H 0.88395 0.13223 0.59555 0.0
H2030 H 0.90279 0.1269 0.6111 0.0
H2031 H 0.89084 0.09024 0.59833 0.0
H2032 H 0.9357 0.0838 0.64774 0.0
H2033 H 0.89863 0.98928 0.61885 0.0
H2034 H 0.8519 0.09585 0.64482 0.0
H2035 H 0.89041 0.13161 0.63435 0.0
H2036 H 0.90341 0.12104 0.65018 0.0
H2037 H 0.8088 0.97984 0.61003 0.0
H2038 H 0.84836 0.97312 0.60364 0.0
H2039 H 0.84439 0.01556 0.59878 0.0
C2040 C 0.96217 0.41816 0.4378 0.0
C2041 C 0.97349 0.39092 0.44188 0.0
C2042 C 0.93017 0.41935 0.44391 0.0
C2043 C 0.90928 0.3929 0.45439 0.0
C2044 C 0.92234 0.36722 0.45907 0.0
C2045 C 0.95407 0.36638 0.45272 0.0
C2046 C 0.91714 0.44709 0.43859 0.0
C2047 C 0.90118 0.33872 0.47026 0.0
C2048 C 0.8283 0.40101 0.47344 0.0
C2049 C 0.7937 0.37224 0.46678 0.0
C2050 C 0.86644 0.40842 0.46958 0.0
C2051 C 0.86982 0.38664 0.45879 0.0
C2052 C 0.83492 0.35747 0.45214 0.0
C2053 C 0.79756 0.35061 0.45623 0.0
C2054 C 0.90302 0.43962 0.47695 0.0
C2055 C 0.83688 0.3333 0.44064 0.0
H2056 H 0.97736 0.43755 0.42954 0.0
H2057 H 0.96314 0.34578 0.45612 0.0
H2058 H 0.88849 0.42911 0.43318 0.0
H2059 H 0.91177 0.46312 0.44674 0.0
H2060 H 0.93965 0.46964 0.43177 0.0
H2061 H 0.91851 0.32532 0.47401 0.0
H2062 H 0.89575 0.35442 0.4785 0.0
H2063 H 0.87158 0.31395 0.46684 0.0
H2064 H 0.82569 0.41804 0.48152 0.0
H2065 H 0.77114 0.32808 0.45101 0.0
H2066 H 0.92297 0.46417 0.4702 0.0
H2067 H 0.92025 0.42608 0.48063 0.0
H2068 H 0.89524 0.45283 0.48541 0.0
H2069 H 0.85615 0.35379 0.43277 0.0
H2070 H 0.8069 0.31222 0.43639 0.0
H2071 H 0.85046 0.31558 0.4438 0.0
C2072 C 0.67262 0.61139 0.44892 0.0
C2073 C 0.64137 0.60475 0.44046 0.0
C2074 C 0.67252 0.57941 0.4553 0.0
C2075 C 0.64027 0.53964 0.45325 0.0
C2076 C 0.60757 0.53293 0.44528 0.0
C2077 C 0.60859 0.56556 0.43892 0.0
C2078 C 0.70821 0.58802 0.46358 0.0
C2079 C 0.57244 0.49104 0.44295 0.0
C2080 C 0.6708 0.46123 0.45313 0.0
C2081 C 0.65949 0.44443 0.46572 0.0
C2082 C 0.66362 0.49122 0.44894 0.0
C2083 C 0.64442 0.50517 0.4575 0.0
C2084 C 0.63194 0.4879 0.47014 0.0
C2085 C 0.63971 0.45769 0.47413 0.0
C2086 C 0.67763 0.50869 0.4354 0.0
C2087 C 0.61112 0.50184 0.47951 0.0
H2088 H 0.69791 0.64161 0.45031 0.0
H2089 H 0.58403 0.56025 0.43257 0.0
H2090 H 0.69832 0.57254 0.47316 0.0
H2091 H 0.72552 0.57627 0.45846 0.0
H2092 H 0.72847 0.62074 0.46547 0.0
H2093 H 0.54687 0.49143 0.43829 0.0
H2094 H 0.58172 0.47409 0.43639 0.0
H2095 H 0.56221 0.4745 0.45234 0.0
H2096 H 0.68586 0.45122 0.44643 0.0
H2097 H 0.63068 0.44487 0.48382 0.0
H2098 H 0.70041 0.54118 0.43626 0.0
H2099 H 0.65223 0.506 0.42964 0.0
H2100 H 0.69097 0.49354 0.42979 0.0
H2101 H 0.63228 0.53329 0.4827 0.0
H2102 H 0.59972 0.48273 0.48839 0.0
H2103 H 0.58572 0.50163 0.47452 0.0
C2104 C 0.46898 0.08145 0.43689 0.0
C2105 C 0.4292 0.06241 0.44123 0.0
C2106 C 0.49994 0.11221 0.44441 0.0
C2107 C 0.49091 0.12397 0.4566 0.0
C2108 C 0.45128 0.10254 0.46151 0.0
C2109 C 0.4208 0.07223 0.45371 0.0
C2110 C 0.54178 0.13421 0.4388 0.0
C2111 C 0.44055 0.11344 0.47459 0.0
C2112 C 0.58102 0.20555 0.47568 0.0
C2113 C 0.58303 0.24015 0.47071 0.0
C2114 C 0.5499 0.16696 0.47177 0.0
C2115 C 0.52068 0.16335 0.46265 0.0
C2116 C 0.52143 0.19832 0.45834 0.0
C2117 C 0.55234 0.23606 0.46248 0.0
C2118 C 0.54957 0.13035 0.47684 0.0
C2119 C 0.49087 0.19617 0.44872 0.0
H2120 H 0.47574 0.07352 0.42735 0.0
H2121 H 0.39021 0.05695 0.45727 0.0
H2122 H 0.54928 0.16473 0.43574 0.0
H2123 H 0.5639 0.13794 0.44635 0.0
H2124 H 0.54492 0.11827 0.43012 0.0
H2125 H 0.41084 0.08938 0.47814 0.0
H2126 H 0.46348 0.1192 0.48211 0.0
H2127 H 0.43962 0.14148 0.47359 0.0
H2128 H 0.60463 0.20858 0.48207 0.0
H2129 H 0.55328 0.26272 0.4588 0.0
H2130 H 0.56178 0.11886 0.46918 0.0
H2131 H 0.5186 0.10591 0.47906 0.0
H2132 H 0.56818 0.13745 0.48584 0.0
H2133 H 0.49333 0.18302 0.43924 0.0
H2134 H 0.49486 0.2262 0.44676 0.0
H2135 H 0.46013 0.17636 0.45252 0.0
C2136 C 0.73417 0.61678 0.74372 0.0
C2137 C 0.7158 0.63759 0.73929 0.0
C2138 C 0.73337 0.5858 0.73612 0.0
C2139 C 0.71385 0.57543 0.72374 0.0
C2140 C 0.69738 0.59799 0.71887 0.0
C2141 C 0.69835 0.62868 0.72674 0.0
C2142 C 0.75131 0.56254 0.74171 0.0
C2143 C 0.67688 0.58835 0.70566 0.0
C2144 C 0.7254 0.49771 0.70368 0.0
C2145 C 0.69183 0.46198 0.70796 0.0
C2146 C 0.73224 0.53541 0.70816 0.0
C2147 C 0.70491 0.53708 0.71712 0.0
C2148 C 0.66983 0.5011 0.72076 0.0
C2149 C 0.66374 0.4642 0.71612 0.0
C2150 C 0.76965 0.57315 0.70386 0.0
C2151 C 0.63964 0.50126 0.73019 0.0
H2152 H 0.74819 0.62386 0.75333 0.0
H2153 H 0.68469 0.64513 0.72314 0.0
H2154 H 0.727 0.53166 0.74416 0.0
H2155 H 0.77092 0.55972 0.73433 0.0
H2156 H 0.76906 0.57698 0.75075 0.0
H2157 H 0.67155 0.61249 0.70236 0.0
H2158 H 0.69502 0.58384 0.69811 0.0
H2159 H 0.64759 0.5599 0.70627 0.0
H2160 H 0.74721 0.49619 0.69738 0.0
H2161 H 0.63732 0.43673 0.71929 0.0
H2162 H 0.79181 0.58448 0.71198 0.0
H2163 H 0.76309 0.59716 0.70156 0.0
H2164 H 0.78347 0.56759 0.69509 0.0
H2165 H 0.65371 0.51251 0.73998 0.0
H2166 H 0.61282 0.47084 0.73141 0.0
H2167 H 0.62973 0.5218 0.72668 0.0
C2168 C 0.41572 0.14067 0.74124 0.0
C2169 C 0.39398 0.10052 0.73693 0.0
C2170 C 0.44633 0.1704 0.73348 0.0
C2171 C 0.45529 0.15978 0.72106 0.0
C2172 C 0.43157 0.11981 0.71629 0.0
C2173 C 0.40137 0.09057 0.72431 0.0
C2174 C 0.47084 0.21264 0.73898 0.0
C2175 C 0.43957 0.10738 0.70301 0.0
C2176 C 0.53413 0.24851 0.70117 0.0
C2177 C 0.56907 0.25025 0.70557 0.0
C2178 C 0.49619 0.21771 0.70549 0.0
C2179 C 0.49357 0.18846 0.71438 0.0
C2180 C 0.52875 0.18868 0.71799 0.0
C2181 C 0.56586 0.21937 0.71351 0.0
C2182 C 0.45931 0.21799 0.70116 0.0
C2183 C 0.52763 0.15805 0.72734 0.0
H2184 H 0.40979 0.14868 0.7509 0.0
H2185 H 0.38414 0.05971 0.7208 0.0
H2186 H 0.5014 0.21906 0.74136 0.0
H2187 H 0.47393 0.23485 0.73157 0.0
H2188 H 0.45738 0.2171 0.74804 0.0
H2189 H 0.41444 0.0776 0.69975 0.0
H2190 H 0.44471 0.13005 0.69549 0.0
H2191 H 0.46707 0.10552 0.70354 0.0
H2192 H 0.5365 0.27231 0.69503 0.0
H2193 H 0.59281 0.22024 0.71676 0.0
H2194 H 0.4494 0.23058 0.7092 0.0
H2195 H 0.43435 0.187 0.69903 0.0
H2196 H 0.46519 0.23667 0.69228 0.0
H2197 H 0.51724 0.16183 0.73716 0.0
H2198 H 0.55742 0.16101 0.72852 0.0
H2199 H 0.50615 0.1271 0.7238 0.0
C2200 C 0.94127 0.3482 0.72959 0.0
C2201 C 0.93394 0.31805 0.73862 0.0
C2202 C 0.90972 0.34888 0.7232 0.0
C2203 C 0.86969 0.31864 0.72586 0.0
C2204 C 0.86211 0.2872 0.73458 0.0
C2205 C 0.89432 0.28732 0.74088 0.0
C2206 C 0.91924 0.38311 0.71406 0.0
C2207 C 0.81989 0.25434 0.73767 0.0
C2208 C 0.79371 0.35207 0.72421 0.0
C2209 C 0.77478 0.33629 0.71204 0.0
C2210 C 0.82397 0.3459 0.7288 0.0
C2211 C 0.83612 0.32338 0.72107 0.0
C2212 C 0.81723 0.3071 0.70878 0.0
C2213 C 0.78671 0.31376 0.7044 0.0
C2214 C 0.84321 0.36395 0.74195 0.0
C2215 C 0.82939 0.28291 0.70025 0.0
H2216 H 0.97178 0.37187 0.72765 0.0
H2217 H 0.8884 0.26364 0.74771 0.0
H2218 H 0.90289 0.37139 0.70463 0.0
H2219 H 0.90922 0.40275 0.71859 0.0
H2220 H 0.95178 0.40175 0.71194 0.0
H2221 H 0.8191 0.22957 0.74332 0.0
H2222 H 0.80472 0.26708 0.74354 0.0
H2223 H 0.80247 0.24165 0.72846 0.0
H2224 H 0.78492 0.36954 0.73027 0.0
H2225 H 0.77225 0.30127 0.69505 0.0
H2226 H 0.87567 0.38554 0.7406 0.0
H2227 H 0.84023 0.34002 0.74857 0.0
H2228 H 0.82969 0.38 0.74688 0.0
H2229 H 0.86128 0.30185 0.69737 0.0
H2230 H 0.81092 0.27117 0.69119 0.0
H2231 H 0.8266 0.25719 0.70586 0.0
C2232 C 0.42425 0.34401 0.23337 0.0
C2233 C 0.39122 0.31006 0.23881 0.0
C2234 C 0.45529 0.34136 0.22725 0.0
C2235 C 0.45298 0.30365 0.22632 0.0
C2236 C 0.41875 0.26887 0.23123 0.0
C2237 C 0.38846 0.27256 0.23758 0.0
C2238 C 0.49153 0.37936 0.22238 0.0
C2239 C 0.41472 0.22801 0.23014 0.0
C2240 C 0.53426 0.30474 0.20471 0.0
C2241 C 0.56374 0.31307 0.21413 0.0
C2242 C 0.49671 0.29899 0.20853 0.0
C2243 C 0.48895 0.30216 0.22202 0.0
C2244 C 0.51787 0.30825 0.23156 0.0
C2245 C 0.55457 0.3133 0.22751 0.0
C2246 C 0.46625 0.29156 0.19808 0.0
C2247 C 0.51115 0.31197 0.24605 0.0
H2248 H 0.42643 0.37303 0.23422 0.0
H2249 H 0.36258 0.24607 0.24154 0.0
H2250 H 0.51809 0.38594 0.22833 0.0
H2251 H 0.49803 0.37539 0.21202 0.0
H2252 H 0.4875 0.40578 0.22303 0.0
H2253 H 0.38403 0.20338 0.23262 0.0
H2254 H 0.42217 0.22279 0.22002 0.0
H2255 H 0.43615 0.22659 0.23693 0.0
H2256 H 0.54102 0.30444 0.19437 0.0
H2257 H 0.57684 0.31894 0.23491 0.0
H2258 H 0.46572 0.31959 0.19649 0.0
H2259 H 0.43579 0.26808 0.20123 0.0
H2260 H 0.47336 0.28213 0.18857 0.0
H2261 H 0.50889 0.33913 0.24782 0.0
H2262 H 0.53574 0.31442 0.25225 0.0
H2263 H 0.4826 0.28559 0.24932 0.0
C2264 C 0.75049 0.13796 0.24113 0.0
C2265 C 0.73011 0.09881 0.23589 0.0
C2266 C 0.7504 0.1697 0.23454 0.0
C2267 C 0.73004 0.16211 0.22236 0.0
C2268 C 0.71238 0.12329 0.21655 0.0
C2269 C 0.71222 0.09204 0.22345 0.0
C2270 C 0.76949 0.21061 0.24111 0.0
C2271 C 0.69114 0.114 0.20347 0.0
C2272 C 0.67616 0.21919 0.21754 0.0
C2273 C 0.70198 0.25044 0.20917 0.0
C2274 C 0.68478 0.19011 0.22161 0.0
C2275 C 0.72016 0.19186 0.21714 0.0
C2276 C 0.7455 0.22207 0.20811 0.0
C2277 C 0.73609 0.25121 0.20421 0.0
C2278 C 0.65649 0.15827 0.23109 0.0
C2279 C 0.78318 0.22457 0.20297 0.0
H2280 H 0.76475 0.1434 0.25067 0.0
H2281 H 0.69727 0.06199 0.21918 0.0
H2282 H 0.78794 0.23451 0.23396 0.0
H2283 H 0.74571 0.21616 0.24474 0.0
H2284 H 0.78861 0.21314 0.24957 0.0
H2285 H 0.68558 0.08497 0.19921 0.0
H2286 H 0.66187 0.11212 0.20479 0.0
H2287 H 0.70882 0.13829 0.19635 0.0
H2288 H 0.64938 0.21807 0.22126 0.0
H2289 H 0.75621 0.2754 0.1978 0.0
H2290 H 0.67241 0.16067 0.24038 0.0
H2291 H 0.64578 0.12784 0.22687 0.0
H2292 H 0.63 0.16094 0.23349 0.0
H2293 H 0.80584 0.23555 0.21094 0.0
H2294 H 0.79605 0.24542 0.19455 0.0
H2295 H 0.77726 0.19441 0.19984 0.0
C2296 C 0.89836 0.63304 0.23757 0.0
C2297 C 0.9374 0.64116 0.23525 0.0
C2298 C 0.86553 0.60138 0.23094 0.0
C2299 C 0.87181 0.5768 0.22197 0.0
C2300 C 0.91142 0.58661 0.21895 0.0
C2301 C 0.94376 0.6188 0.22559 0.0
C2302 C 0.82389 0.5924 0.23432 0.0
C2303 C 0.91952 0.56111 0.20953 0.0
C2304 C 0.79469 0.46587 0.22318 0.0
C2305 C 0.77277 0.45906 0.21153 0.0
C2306 C 0.82669 0.50388 0.22655 0.0
C2307 C 0.83749 0.53658 0.2181 0.0
C2308 C 0.81563 0.53035 0.2063 0.0
C2309 C 0.78347 0.4915 0.20313 0.0
C2310 C 0.84899 0.50889 0.23924 0.0
C2311 C 0.82626 0.56457 0.19707 0.0
H2312 H 0.89326 0.65066 0.24485 0.0
H2313 H 0.97392 0.62523 0.22364 0.0
H2314 H 0.80527 0.58483 0.22533 0.0
H2315 H 0.80927 0.56595 0.24086 0.0
H2316 H 0.82433 0.61817 0.23945 0.0
H2317 H 0.95154 0.57625 0.2066 0.0
H2318 H 0.91143 0.53227 0.21429 0.0
H2319 H 0.9009 0.55379 0.20055 0.0
H2320 H 0.78696 0.44124 0.22981 0.0
H2321 H 0.76681 0.48664 0.19414 0.0
H2322 H 0.84707 0.53103 0.24578 0.0
H2323 H 0.88114 0.52066 0.23716 0.0
H2324 H 0.83697 0.4802 0.24464 0.0
H2325 H 0.82635 0.58978 0.20244 0.0
H2326 H 0.80509 0.55527 0.18866 0.0
H2327 H 0.8569 0.57619 0.19315 0.0
C2328 C 0.64524 0.06474 0.9548 0.0
C2329 C 0.64835 0.07114 0.9412 0.0
C2330 C 0.64109 0.09101 0.96348 0.0
C2331 C 0.64201 0.12543 0.95845 0.0
C2332 C 0.64475 0.13163 0.94466 0.0
C2333 C 0.64701 0.10388 0.93619 0.0
C2334 C 0.63637 0.08224 0.97801 0.0
C2335 C 0.64678 0.16837 0.93886 0.0
C2336 C 0.61228 0.19491 0.97478 0.0
C2337 C 0.65003 0.22809 0.97769 0.0
C2338 C 0.60852 0.15891 0.96987 0.0
C2339 C 0.64347 0.15696 0.96744 0.0
C2340 C 0.68113 0.18912 0.97167 0.0
C2341 C 0.68382 0.22418 0.97686 0.0
C2342 C 0.5676 0.12459 0.9661 0.0
C2343 C 0.71929 0.18874 0.96919 0.0
H2344 H 0.64554 0.03889 0.95864 0.0
H2345 H 0.6493 0.10864 0.92566 0.0
H2346 H 0.66483 0.10296 0.98315 0.0
H2347 H 0.61286 0.08721 0.98228 0.0
H2348 H 0.62848 0.05084 0.98001 0.0
H2349 H 0.64933 0.1689 0.92796 0.0
H2350 H 0.61964 0.16939 0.94157 0.0
H2351 H 0.67301 0.19602 0.94292 0.0
H2352 H 0.58621 0.19819 0.97526 0.0
H2353 H 0.71307 0.25024 0.97892 0.0
H2354 H 0.56472 0.09519 0.96828 0.0
H2355 H 0.56308 0.12542 0.95537 0.0
H2356 H 0.54353 0.12666 0.97134 0.0
H2357 H 0.71599 0.15981 0.97225 0.0
H2358 H 0.74523 0.21364 0.97449 0.0
H2359 H 0.72596 0.19196 0.9585 0.0
C2360 C 0.94593 0.60716 0.94777 0.0
C2361 C 0.9708 0.60041 0.93941 0.0
C2362 C 0.91484 0.57549 0.95484 0.0
C2363 C 0.9092 0.53633 0.95382 0.0
C2364 C 0.93614 0.53009 0.94613 0.0
C2365 C 0.9661 0.56199 0.93881 0.0
C2366 C 0.88627 0.58337 0.96262 0.0
C2367 C 0.93195 0.48915 0.94504 0.0
C2368 C 0.82967 0.45377 0.97567 0.0
C2369 C 0.79708 0.4352 0.96699 0.0
C2370 C 0.8669 0.48631 0.97154 0.0
C2371 C 0.87113 0.50104 0.95856 0.0
C2372 C 0.83827 0.48231 0.94982 0.0
C2373 C 0.80209 0.44965 0.95409 0.0
C2374 C 0.90154 0.50499 0.98106 0.0
C2375 C 0.84097 0.49713 0.93595 0.0
H2376 H 0.94955 0.63685 0.94831 0.0
H2377 H 0.98554 0.55665 0.93251 0.0
H2378 H 0.85687 0.56885 0.95754 0.0
H2379 H 0.88121 0.57005 0.97254 0.0
H2380 H 0.89736 0.61603 0.96372 0.0
H2381 H 0.9592 0.49084 0.94081 0.0
H2382 H 0.92599 0.47485 0.95483 0.0
H2383 H 0.90617 0.46936 0.9386 0.0
H2384 H 0.8262 0.4429 0.98561 0.0
H2385 H 0.77722 0.43595 0.94725 0.0
H2386 H 0.90916 0.53611 0.98357 0.0
H2387 H 0.92845 0.50695 0.97646 0.0
H2388 H 0.89464 0.48764 0.9903 0.0
H2389 H 0.84979 0.52933 0.93615 0.0
H2390 H 0.81223 0.47986 0.93052 0.0
H2391 H 0.8643 0.49473 0.93037 0.0
C2392 C 0.48045 0.4366 0.93839 0.0
C2393 C 0.44421 0.4002 0.93659 0.0
C2394 C 0.51224 0.43808 0.94547 0.0
C2395 C 0.50803 0.40214 0.95055 0.0
C2396 C 0.47118 0.36551 0.94893 0.0
C2397 C 0.4397 0.36509 0.94211 0.0
C2398 C 0.55061 0.47789 0.94728 0.0
C2399 C 0.46552 0.3263 0.9539 0.0
C2400 C 0.59674 0.3872 0.95206 0.0
C2401 C 0.60217 0.38576 0.96565 0.0
C2402 C 0.56761 0.3945 0.94709 0.0
C2403 C 0.54336 0.40135 0.9559 0.0
C2404 C 0.55051 0.40293 0.96964 0.0
C2405 C 0.57973 0.39481 0.97439 0.0
C2406 C 0.56115 0.39222 0.93238 0.0
C2407 C 0.52603 0.4112 0.97936 0.0
H2408 H 0.48384 0.46398 0.93437 0.0
H2409 H 0.41169 0.33689 0.94082 0.0
H2410 H 0.56046 0.48214 0.9577 0.0
H2411 H 0.57465 0.47829 0.94122 0.0
H2412 H 0.54731 0.50363 0.94437 0.0
H2413 H 0.4344 0.30082 0.95248 0.0
H2414 H 0.48619 0.31906 0.94861 0.0
H2415 H 0.47297 0.32902 0.96451 0.0
H2416 H 0.61444 0.38103 0.94518 0.0
H2417 H 0.58356 0.39369 0.98487 0.0
H2418 H 0.5618 0.4196 0.92892 0.0
H2419 H 0.53122 0.36607 0.92994 0.0
H2420 H 0.5841 0.38894 0.92685 0.0
H2421 H 0.52179 0.43584 0.97588 0.0
H2422 H 0.54024 0.41941 0.98924 0.0
H2423 H 0.49594 0.38389 0.98033 0.0
C2424 C 0.60671 0.70155 0.77681 0.0
C2425 C 0.64407 0.73522 0.77398 0.0
C2426 C 0.57679 0.70576 0.78311 0.0
C2427 C 0.58495 0.7445 0.78713 0.0
C2428 C 0.62348 0.7784 0.78492 0.0
C2429 C 0.65237 0.77346 0.77811 0.0
C2430 C 0.53589 0.66887 0.78496 0.0
C2431 C 0.63395 0.81991 0.78954 0.0
C2432 C 0.49227 0.75254 0.78656 0.0
C2433 C 0.47746 0.74133 0.7994 0.0
C2434 C 0.52855 0.75618 0.78268 0.0
C2435 C 0.55145 0.7496 0.79196 0.0
C2436 C 0.53891 0.74266 0.8053 0.0
C2437 C 0.50167 0.73813 0.80886 0.0
C2438 C 0.54029 0.7633 0.76833 0.0
C2439 C 0.56334 0.73722 0.81563 0.0
H2440 H 0.60046 0.67194 0.77372 0.0
H2441 H 0.68168 0.79942 0.77621 0.0
H2442 H 0.52715 0.6657 0.79548 0.0
H2443 H 0.51331 0.67211 0.77936 0.0
H2444 H 0.53475 0.64085 0.7816 0.0
H2445 H 0.66668 0.84167 0.78907 0.0
H2446 H 0.61857 0.83115 0.78329 0.0
H2447 H 0.62357 0.81895 0.7998 0.0
H2448 H 0.47405 0.75583 0.77923 0.0
H2449 H 0.49052 0.7295 0.81879 0.0
H2450 H 0.53838 0.7359 0.76397 0.0
H2451 H 0.57166 0.78828 0.76727 0.0
H2452 H 0.52066 0.77057 0.76258 0.0
H2453 H 0.55766 0.70607 0.81501 0.0
H2454 H 0.55527 0.74222 0.8257 0.0
H2455 H 0.59584 0.75813 0.81405 0.0
C2456 C 0.26449 0.90102 0.77627 0.0
C2457 C 0.30196 0.9333 0.77258 0.0
C2458 C 0.26142 0.86847 0.78333 0.0
C2459 C 0.29653 0.86758 0.78631 0.0
C2460 C 0.33442 0.90052 0.78273 0.0
C2461 C 0.33665 0.93319 0.77611 0.0
C2462 C 0.22063 0.83477 0.78741 0.0
C2463 C 0.37262 0.90054 0.78538 0.0
C2464 C 0.30742 0.79566 0.80882 0.0
C2465 C 0.30768 0.76875 0.79951 0.0
C2466 C 0.30022 0.82631 0.8049 0.0
C2467 C 0.29398 0.8303 0.79139 0.0
C2468 C 0.29087 0.801 0.78223 0.0
C2469 C 0.29717 0.77044 0.78644 0.0
C2470 C 0.30203 0.85591 0.81508 0.0
C2471 C 0.28468 0.80396 0.76772 0.0
H2472 H 0.23765 0.90153 0.77383 0.0
H2473 H 0.36566 0.9583 0.77336 0.0
H2474 H 0.212 0.80769 0.78124 0.0
H2475 H 0.2212 0.8265 0.79778 0.0
H2476 H 0.19728 0.843 0.78636 0.0
H2477 H 0.39971 0.92902 0.78237 0.0
H2478 H 0.37508 0.89602 0.796 0.0
H2479 H 0.37215 0.87521 0.77995 0.0
H2480 H 0.31528 0.79445 0.81894 0.0
H2481 H 0.29643 0.74916 0.77922 0.0
H2482 H 0.27944 0.86456 0.81302 0.0
H2483 H 0.33201 0.88362 0.81481 0.0
H2484 H 0.29702 0.84342 0.82515 0.0
H2485 H 0.25843 0.80741 0.76612 0.0
H2486 H 0.28012 0.77716 0.76206 0.0
H2487 H 0.31129 0.83099 0.76367 0.0
C2488 C 0.14326 0.41007 0.77056 0.0
C2489 C 0.10406 0.40072 0.77334 0.0
C2490 C 0.17582 0.43959 0.77788 0.0
C2491 C 0.16912 0.4609 0.78804 0.0
C2492 C 0.12934 0.44945 0.79151 0.0
C2493 C 0.09726 0.41938 0.78414 0.0
C2494 C 0.21764 0.45035 0.77396 0.0
C2495 C 0.12076 0.4714 0.80222 0.0
C2496 C 0.25887 0.54345 0.80724 0.0
C2497 C 0.26879 0.57693 0.79946 0.0
C2498 C 0.22613 0.5051 0.80383 0.0
C2499 C 0.20291 0.50066 0.79251 0.0
C2500 C 0.21238 0.53471 0.78492 0.0
C2501 C 0.24499 0.57204 0.78845 0.0
C2502 C 0.21698 0.46939 0.81214 0.0
C2503 C 0.18834 0.53183 0.77287 0.0
H2504 H 0.14874 0.39522 0.76239 0.0
H2505 H 0.06697 0.41185 0.78648 0.0
H2506 H 0.2317 0.4785 0.7682 0.0
H2507 H 0.23648 0.45581 0.78278 0.0
H2508 H 0.21761 0.42634 0.76782 0.0
H2509 H 0.089 0.45423 0.80545 0.0
H2510 H 0.14035 0.47735 0.81087 0.0
H2511 H 0.12708 0.50091 0.79848 0.0
H2512 H 0.27706 0.547 0.81573 0.0
H2513 H 0.25174 0.59779 0.78249 0.0
H2514 H 0.22333 0.44867 0.8064 0.0
H2515 H 0.18476 0.45234 0.81478 0.0
H2516 H 0.23509 0.47843 0.8213 0.0
H2517 H 0.19025 0.51173 0.76538 0.0
H2518 H 0.19898 0.56156 0.76831 0.0
H2519 H 0.15632 0.51867 0.77549 0.0
C2520 C 0.37219 0.96515 0.0579 0.0
C2521 C 0.38191 0.96729 0.07127 0.0
C2522 C 0.37285 0.93638 0.04944 0.0
C2523 C 0.38258 0.90856 0.05455 0.0
C2524 C 0.39394 0.91172 0.06793 0.0
C2525 C 0.39378 0.94122 0.07609 0.0
C2526 C 0.36166 0.93478 0.03517 0.0
C2527 C 0.40427 0.88254 0.07384 0.0
C2528 C 0.33223 0.80081 0.04262 0.0
C2529 C 0.36435 0.79872 0.03717 0.0
C2530 C 0.33716 0.83713 0.04742 0.0
C2531 C 0.37522 0.87258 0.04665 0.0
C2532 C 0.40683 0.87147 0.03994 0.0
C2533 C 0.40109 0.83429 0.03531 0.0
C2534 C 0.30247 0.83664 0.05441 0.0
C2535 C 0.4475 0.9088 0.03852 0.0
H2536 H 0.36377 0.98578 0.05405 0.0
H2537 H 0.40172 0.943 0.08637 0.0
H2538 H 0.38265 0.93094 0.02873 0.0
H2539 H 0.33125 0.90849 0.03345 0.0
H2540 H 0.3617 0.96237 0.03224 0.0
H2541 H 0.4151 0.89073 0.08413 0.0
H2542 H 0.37739 0.85185 0.07375 0.0
H2543 H 0.42769 0.88138 0.06789 0.0
H2544 H 0.30365 0.7733 0.04394 0.0
H2545 H 0.42605 0.83273 0.03118 0.0
H2546 H 0.29813 0.86104 0.05079 0.0
H2547 H 0.30903 0.84196 0.0651 0.0
H2548 H 0.27401 0.80751 0.05308 0.0
H2549 H 0.44483 0.93545 0.0365 0.0
H2550 H 0.46512 0.90529 0.03052 0.0
H2551 H 0.46433 0.91473 0.04786 0.0
C2552 C 0.07361 0.42283 0.05911 0.0
C2553 C 0.06175 0.43237 0.07102 0.0
C2554 C 0.10508 0.45277 0.05164 0.0
C2555 C 0.12529 0.49316 0.05623 0.0
C2556 C 0.11185 0.50323 0.06786 0.0
C2557 C 0.08027 0.47273 0.07511 0.0
C2558 C 0.11818 0.4408 0.03925 0.0
C2559 C 0.13246 0.5459 0.0731 0.0
C2560 C 0.23697 0.55858 0.05129 0.0
C2561 C 0.23989 0.58664 0.04209 0.0
C2562 C 0.19986 0.52711 0.05546 0.0
C2563 C 0.16437 0.52339 0.05034 0.0
C2564 C 0.16693 0.55024 0.04047 0.0
C2565 C 0.20486 0.58166 0.0364 0.0
C2566 C 0.19876 0.49901 0.06586 0.0
C2567 C 0.12977 0.547 0.03468 0.0
H2568 H 0.05902 0.39176 0.05578 0.0
H2569 H 0.07092 0.48043 0.08421 0.0
H2570 H 0.12359 0.46216 0.03123 0.0
H2571 H 0.1468 0.44184 0.0411 0.0
H2572 H 0.09568 0.40991 0.03588 0.0
H2573 H 0.11552 0.54961 0.0813 0.0
H2574 H 0.1627 0.55454 0.07675 0.0
H2575 H 0.13643 0.56703 0.06517 0.0
H2576 H 0.264 0.56186 0.05555 0.0
H2577 H 0.20701 0.60327 0.02928 0.0
H2578 H 0.17983 0.46726 0.06256 0.0
H2579 H 0.18527 0.50284 0.07501 0.0
H2580 H 0.22905 0.50457 0.06824 0.0
H2581 H 0.10747 0.51527 0.03213 0.0
H2582 H 0.13655 0.56561 0.02574 0.0
H2583 H 0.11577 0.55736 0.04207 0.0
C2584 C 0.60885 0.67231 0.06343 0.0
C2585 C 0.60034 0.64665 0.07415 0.0
C2586 C 0.57827 0.67409 0.05678 0.0
C2587 C 0.53809 0.64983 0.06098 0.0
C2588 C 0.52912 0.62272 0.07147 0.0
C2589 C 0.56034 0.6214 0.07792 0.0
C2590 C 0.58922 0.70335 0.04564 0.0
C2591 C 0.48671 0.59641 0.07627 0.0
C2592 C 0.47076 0.69321 0.05706 0.0
C2593 C 0.44665 0.67138 0.04627 0.0
C2594 C 0.50044 0.6864 0.06183 0.0
C2595 C 0.50658 0.65699 0.05568 0.0
C2596 C 0.48294 0.63519 0.04462 0.0
C2597 C 0.45319 0.64267 0.04002 0.0
C2598 C 0.52503 0.71061 0.07358 0.0
C2599 C 0.48876 0.6037 0.03777 0.0
H2600 H 0.63961 0.69155 0.06032 0.0
H2601 H 0.55346 0.60121 0.0861 0.0
H2602 H 0.56967 0.68826 0.03701 0.0
H2603 H 0.58447 0.7282 0.04877 0.0
H2604 H 0.62094 0.71653 0.04257 0.0
H2605 H 0.4841 0.57395 0.08351 0.0
H2606 H 0.47627 0.61545 0.081 0.0
H2607 H 0.46637 0.5803 0.06789 0.0
H2608 H 0.46629 0.71572 0.06194 0.0
H2609 H 0.43469 0.62559 0.03172 0.0
H2610 H 0.55728 0.72747 0.07096 0.0
H2611 H 0.52122 0.69017 0.08172 0.0
H2612 H 0.51651 0.73243 0.07721 0.0
H2613 H 0.52037 0.61699 0.0346 0.0
H2614 H 0.46904 0.59044 0.02903 0.0
H2615 H 0.48232 0.57922 0.04471 0.0
C2616 C 0.07845 0.66952 0.56133 0.0
C2617 C 0.05922 0.64469 0.57212 0.0
C2618 C 0.11042 0.66926 0.55494 0.0
C2619 C 0.12387 0.6438 0.55951 0.0
C2620 C 0.10329 0.61716 0.56999 0.0
C2621 C 0.0711 0.61784 0.57615 0.0
C2622 C 0.13132 0.69804 0.54379 0.0
C2623 C 0.11674 0.58961 0.57518 0.0
C2624 C 0.20393 0.6363 0.5397 0.0
C2625 C 0.23889 0.6652 0.54616 0.0
C2626 C 0.16597 0.62851 0.54393 0.0
C2627 C 0.16313 0.6501 0.55487 0.0
C2628 C 0.19838 0.6793 0.56136 0.0
C2629 C 0.23557 0.68648 0.55693 0.0
C2630 C 0.12901 0.59722 0.53674 0.0
C2631 C 0.19695 0.70325 0.57302 0.0
H2632 H 0.06903 0.68989 0.55798 0.0
H2633 H 0.05609 0.59825 0.58439 0.0
H2634 H 0.16109 0.72261 0.54716 0.0
H2635 H 0.13637 0.68245 0.53542 0.0
H2636 H 0.114 0.71168 0.54023 0.0
H2637 H 0.09456 0.56702 0.58206 0.0
H2638 H 0.12191 0.57363 0.56697 0.0
H2639 H 0.14557 0.60772 0.58048 0.0
H2640 H 0.20614 0.61951 0.53147 0.0
H2641 H 0.26228 0.70905 0.56201 0.0
H2642 H 0.11199 0.61094 0.53301 0.0
H2643 H 0.10905 0.57309 0.54361 0.0
H2644 H 0.1363 0.58344 0.52832 0.0
H2645 H 0.18316 0.72097 0.57008 0.0
H2646 H 0.22714 0.7243 0.57713 0.0
H2647 H 0.1781 0.68263 0.58093 0.0
C2648 C 0.41763 0.47446 0.57447 0.0
C2649 C 0.39255 0.43464 0.57019 0.0
C2650 C 0.41771 0.50653 0.56805 0.0
C2651 C 0.3924 0.49855 0.55704 0.0
C2652 C 0.36911 0.45865 0.55218 0.0
C2653 C 0.36927 0.42723 0.55885 0.0
C2654 C 0.44292 0.54862 0.57358 0.0
C2655 C 0.34196 0.44873 0.54042 0.0
C2656 C 0.34594 0.56337 0.55397 0.0
C2657 C 0.36843 0.58996 0.54387 0.0
C2658 C 0.35359 0.53376 0.55822 0.0
C2659 C 0.38451 0.53011 0.55221 0.0
C2660 C 0.40675 0.556 0.54173 0.0
C2661 C 0.39843 0.58576 0.53766 0.0
C2662 C 0.32872 0.50664 0.56932 0.0
C2663 C 0.43975 0.5528 0.53502 0.0
H2664 H 0.43604 0.48044 0.58313 0.0
H2665 H 0.3504 0.3966 0.55529 0.0
H2666 H 0.45921 0.57022 0.56559 0.0
H2667 H 0.42319 0.55791 0.57843 0.0
H2668 H 0.46496 0.55074 0.58093 0.0
H2669 H 0.33081 0.41769 0.53664 0.0
H2670 H 0.31578 0.4514 0.54324 0.0
H2671 H 0.35779 0.47023 0.53236 0.0
H2672 H 0.32232 0.56596 0.55875 0.0
H2673 H 0.41602 0.60627 0.52991 0.0
H2674 H 0.34838 0.50975 0.57767 0.0
H2675 H 0.31314 0.47474 0.56599 0.0
H2676 H 0.30588 0.5136 0.57297 0.0
H2677 H 0.46432 0.56073 0.54211 0.0
H2678 H 0.4522 0.57303 0.52643 0.0
H2679 H 0.42853 0.52139 0.53167 0.0
C2680 C 0.60884 0.9676 0.55758 0.0
C2681 C 0.60081 0.97588 0.57034 0.0
C2682 C 0.57843 0.93717 0.54979 0.0
C2683 C 0.53931 0.914 0.555 0.0
C2684 C 0.53056 0.92408 0.56754 0.0
C2685 C 0.56139 0.95507 0.57503 0.0
C2686 C 0.5888 0.92814 0.53634 0.0
C2687 C 0.48928 0.90015 0.57348 0.0
C2688 C 0.4489 0.83226 0.53611 0.0
C2689 C 0.44851 0.79784 0.54047 0.0
C2690 C 0.47959 0.87093 0.54013 0.0
C2691 C 0.51006 0.8748 0.54872 0.0
C2692 C 0.51099 0.84013 0.55235 0.0
C2693 C 0.48043 0.8023 0.54812 0.0
C2694 C 0.47812 0.90725 0.53578 0.0
C2695 C 0.54295 0.8426 0.56138 0.0
H2696 H 0.63911 0.98427 0.55377 0.0
H2697 H 0.55492 0.96178 0.58481 0.0
H2698 H 0.5911 0.90075 0.53679 0.0
H2699 H 0.56499 0.9221 0.52914 0.0
H2700 H 0.61777 0.9533 0.53272 0.0
H2701 H 0.48612 0.91468 0.58254 0.0
H2702 H 0.4662 0.8963 0.5663 0.0
H2703 H 0.48319 0.8697 0.57601 0.0
H2704 H 0.42434 0.82895 0.53016 0.0
H2705 H 0.4807 0.77579 0.55131 0.0
H2706 H 0.50855 0.9326 0.53347 0.0
H2707 H 0.46589 0.91735 0.54387 0.0
H2708 H 0.45867 0.90036 0.527 0.0
H2709 H 0.57314 0.86366 0.55739 0.0
H2710 H 0.54028 0.81289 0.56277 0.0
H2711 H 0.54076 0.85443 0.57116 0.0
C2712 C 0.32764 0.40566 0.28774 0.0
C2713 C 0.31676 0.40294 0.27447 0.0
C2714 C 0.32743 0.4346 0.29621 0.0
C2715 C 0.31697 0.46196 0.29119 0.0
C2716 C 0.3041 0.45797 0.27796 0.0
C2717 C 0.30387 0.42831 0.26979 0.0
C2718 C 0.34023 0.43708 0.31033 0.0
C2719 C 0.29285 0.48661 0.27218 0.0
C2720 C 0.30219 0.53799 0.31082 0.0
C2721 C 0.33867 0.57324 0.3083 0.0
C2722 C 0.29533 0.50044 0.30617 0.0
C2723 C 0.32567 0.49861 0.29889 0.0
C2724 C 0.36369 0.53377 0.29747 0.0
C2725 C 0.36966 0.57052 0.3022 0.0
C2726 C 0.25475 0.46345 0.30822 0.0
C2727 C 0.39716 0.53335 0.28994 0.0
H2728 H 0.33676 0.38546 0.29149 0.0
H2729 H 0.29497 0.42598 0.25958 0.0
H2730 H 0.37106 0.46309 0.31161 0.0
H2731 H 0.32038 0.44193 0.31702 0.0
H2732 H 0.33996 0.40943 0.31333 0.0
H2733 H 0.28024 0.47736 0.26211 0.0
H2734 H 0.27057 0.48855 0.27853 0.0
H2735 H 0.31978 0.51721 0.27171 0.0
H2736 H 0.27822 0.54004 0.31556 0.0
H2737 H 0.39814 0.59776 0.30044 0.0
H2738 H 0.25745 0.43681 0.31021 0.0
H2739 H 0.23665 0.45696 0.29915 0.0
H2740 H 0.23836 0.46774 0.31648 0.0
H2741 H 0.40196 0.50926 0.29359 0.0
H2742 H 0.42585 0.56251 0.29073 0.0
H2743 H 0.38892 0.52693 0.27939 0.0
C2744 C 0.61716 0.89195 0.26851 0.0
C2745 C 0.63598 0.93265 0.2722 0.0
C2746 C 0.58633 0.86213 0.2762 0.0
C2747 C 0.57412 0.87327 0.2879 0.0
C2748 C 0.59481 0.91403 0.29209 0.0
C2749 C 0.62535 0.94324 0.28417 0.0
C2750 C 0.56514 0.81902 0.27138 0.0
C2751 C 0.58309 0.92718 0.30453 0.0
C2752 C 0.46297 0.81048 0.29449 0.0
C2753 C 0.46054 0.78328 0.30396 0.0
C2754 C 0.49978 0.84049 0.28957 0.0
C2755 C 0.53553 0.84385 0.29427 0.0
C2756 C 0.53363 0.81803 0.30441 0.0
C2757 C 0.49597 0.78786 0.30916 0.0
C2758 C 0.50015 0.86747 0.27888 0.0
C2759 C 0.57111 0.82108 0.30982 0.0
H2760 H 0.62561 0.88348 0.25937 0.0
H2761 H 0.64025 0.97457 0.28722 0.0
H2762 H 0.56185 0.79862 0.27948 0.0
H2763 H 0.53461 0.81018 0.26799 0.0
H2764 H 0.58129 0.81449 0.2631 0.0
H2765 H 0.60596 0.95836 0.30753 0.0
H2766 H 0.55429 0.92601 0.30296 0.0
H2767 H 0.57859 0.90658 0.31271 0.0
H2768 H 0.43572 0.80755 0.29057 0.0
H2769 H 0.49427 0.76688 0.31645 0.0
H2770 H 0.51282 0.86255 0.26971 0.0
H2771 H 0.51948 0.89953 0.2818 0.0
H2772 H 0.46975 0.86186 0.27667 0.0
H2773 H 0.58374 0.80932 0.3024 0.0
H2774 H 0.56513 0.80355 0.31899 0.0
H2775 H 0.5942 0.85292 0.31188 0.0
C2776 C 0.14556 0.75043 0.2671 0.0
C2777 C 0.10528 0.72499 0.27053 0.0
C2778 C 0.17632 0.74906 0.27387 0.0
C2779 C 0.16658 0.72172 0.28435 0.0
C2780 C 0.1261 0.69729 0.2882 0.0
C2781 C 0.09602 0.69913 0.28124 0.0
C2782 C 0.21908 0.77555 0.26943 0.0
C2783 C 0.11429 0.66777 0.2993 0.0
C2784 C 0.23262 0.67725 0.28931 0.0
C2785 C 0.25573 0.69861 0.30034 0.0
C2786 C 0.20396 0.68482 0.28406 0.0
C2787 C 0.19764 0.71439 0.28999 0.0
C2788 C 0.22028 0.73577 0.30126 0.0
C2789 C 0.24921 0.7277 0.30629 0.0
C2790 C 0.18056 0.66116 0.27206 0.0
C2791 C 0.21418 0.76732 0.30792 0.0
H2792 H 0.15301 0.77078 0.25893 0.0
H2793 H 0.06504 0.67971 0.2841 0.0
H2794 H 0.23876 0.79138 0.27797 0.0
H2795 H 0.22989 0.75667 0.26481 0.0
H2796 H 0.22224 0.79825 0.26219 0.0
H2797 H 0.08232 0.65445 0.30209 0.0
H2798 H 0.11933 0.64302 0.29629 0.0
H2799 H 0.13312 0.68268 0.30809 0.0
H2800 H 0.23712 0.65455 0.2846 0.0
H2801 H 0.26705 0.74458 0.31471 0.0
H2802 H 0.18509 0.68197 0.26394 0.0
H2803 H 0.14808 0.64411 0.27433 0.0
H2804 H 0.18949 0.63956 0.26852 0.0
H2805 H 0.22116 0.79187 0.30095 0.0
H2806 H 0.23332 0.78047 0.31679 0.0
H2807 H 0.18238 0.75408 0.31086 0.0
loop_
_geom_bond_atom_site_label_1
_geom_bond_atom_site_label_2
_geom_bond_distance
_geom_bond_site_symmetry_2
_ccdc_geom_bond_type
Co0 O1 2.216 . S
Co0 O2 2.091 . S
Co0 O4 2.004 . S
Co0 O10 2.021 . S
Co0 O12 2.137 . S
Co0 O13 2.244 1_545 S
O1 Co0 2.216 . S
O1 C8 1.247 . S
O2 Co0 2.091 . S
O2 C8 1.261 . S
C3 O12 1.247 1_565 S
C3 O13 1.272 . S
O4 Co0 2.004 . S
O4 C9 1.259 . S
Co5 O6 2.061 . S
Co5 O11 2.052 . S
Co5 O13 2.135 . S
O6 Co5 2.061 . S
O6 C9 1.235 1_565 S
C7 O10 1.238 . S
C7 O11 1.241 1_545 S
C8 O1 1.247 . S
C8 O2 1.261 . S
C9 O4 1.259 . S
C9 O6 1.235 1_545 S
O10 Co0 2.021 . S
O10 C7 1.238 . S
O11 Co5 2.052 . S
O11 C7 1.241 1_565 S
O12 Co0 2.137 . S
O12 C3 1.247 1_545 S
O13 Co0 2.244 1_565 S
O13 C3 1.272 . S
O13 Co5 2.135 . S
Co14 O15 2.216 . S
Co14 O16 2.091 . S
Co14 O18 2.004 . S
Co14 O24 2.021 . S
Co14 O26 2.137 . S
Co14 O27 2.244 1_455 S
O15 Co14 2.216 . S
O15 C22 1.247 . S
O16 Co14 2.091 . S
O16 C22 1.261 . S
C17 O26 1.247 1_655 S
C17 O27 1.272 . S
O18 Co14 2.004 . S
O18 C23 1.259 . S
Co19 O20 2.061 . S
Co19 O25 2.052 . S
Co19 O27 2.135 . S
O20 Co19 2.061 . S
O20 C23 1.235 1_655 S
C21 O24 1.238 . S
C21 O25 1.241 1_455 S
C22 O15 1.247 . S
C22 O16 1.261 . S
C23 O18 1.259 . S
C23 O20 1.235 1_455 S
O24 Co14 2.021 . S
O24 C21 1.238 . S
O25 Co19 2.052 . S
O25 C21 1.241 1_655 S
O26 Co14 2.137 . S
O26 C17 1.247 1_455 S
O27 Co14 2.244 1_655 S
O27 C17 1.272 . S
O27 Co19 2.135 . S
Co28 O29 2.216 . S
Co28 O30 2.091 . S
Co28 O32 2.004 . S
Co28 O38 2.021 . S
Co28 O40 2.137 . S
Co28 O41 2.244 . S
O29 Co28 2.216 . S
O29 C36 1.247 . S
O30 Co28 2.091 . S
O30 C36 1.261 . S
C31 O40 1.247 . S
C31 O41 1.272 . S
O32 Co28 2.004 . S
O32 C37 1.259 . S
Co33 O34 2.061 . S
Co33 O39 2.052 . S
Co33 O41 2.135 . S
O34 Co33 2.061 . S
O34 C37 1.235 . S
C35 O38 1.238 . S
C35 O39 1.241 . S
C36 O29 1.247 . S
C36 O30 1.261 . S
C37 O32 1.259 . S
C37 O34 1.235 . S
O38 Co28 2.021 . S
O38 C35 1.238 . S
O39 Co33 2.052 . S
O39 C35 1.241 . S
O40 Co28 2.137 . S
O40 C31 1.247 . S
O41 Co28 2.244 . S
O41 C31 1.272 . S
O41 Co33 2.135 . S
Co42 O43 2.201 1_545 S
Co42 O44 2.091 1_545 S
Co42 O46 2.004 . S
Co42 O52 2.021 . S
Co42 O54 2.137 . S
Co42 O55 2.244 . S
O43 Co42 2.201 1_565 S
O43 C50 1.272 . S
O44 Co42 2.091 1_565 S
O44 C50 1.261 . S
C45 O54 1.247 . S
C45 O55 1.272 . S
O46 Co42 2.004 . S
O46 C51 1.259 . S
Co47 O48 2.061 . S
Co47 O53 2.052 . S
Co47 O55 2.135 . S
O48 Co47 2.061 . S
O48 C51 1.235 . S
C49 O52 1.238 . S
C49 O53 1.241 . S
C50 O43 1.272 . S
C50 O44 1.261 . S
C51 O46 1.259 . S
C51 O48 1.235 . S
O52 Co42 2.021 . S
O52 C49 1.238 . S
O53 Co47 2.052 . S
O53 C49 1.241 . S
O54 Co42 2.137 . S
O54 C45 1.247 . S
O55 Co42 2.244 . S
O55 C45 1.272 . S
O55 Co47 2.135 . S
Co56 O57 2.216 1_455 S
Co56 O58 2.091 1_455 S
Co56 O60 2.008 1_455 S
Co56 O66 2.021 . S
Co56 O68 2.137 . S
Co56 O69 2.244 . S
O57 Co56 2.216 1_655 S
O57 C64 1.247 . S
O58 Co56 2.091 1_655 S
O58 C64 1.261 . S
C59 O68 1.247 . S
C59 O69 1.272 . S
O60 Co56 2.008 1_655 S
O60 C65 1.245 1_655 S
Co61 O62 2.061 . S
Co61 O67 2.052 . S
Co61 O69 2.135 . S
O62 Co61 2.061 . S
O62 C65 1.235 . S
C63 O66 1.238 . S
C63 O67 1.241 . S
C64 O57 1.247 . S
C64 O58 1.261 . S
C65 O60 1.245 1_455 S
C65 O62 1.235 . S
O66 Co56 2.021 . S
O66 C63 1.238 . S
O67 Co61 2.052 . S
O67 C63 1.241 . S
O68 Co56 2.137 . S
O68 C59 1.247 . S
O69 Co56 2.244 . S
O69 C59 1.272 . S
O69 Co61 2.135 . S
Co70 O71 2.216 . S
Co70 O72 2.091 . S
Co70 O74 2.004 . S
Co70 O80 2.021 . S
Co70 O82 2.137 . S
Co70 O83 2.244 . S
O71 Co70 2.216 . S
O71 C78 1.247 . S
O72 Co70 2.091 . S
O72 C78 1.261 . S
C73 O82 1.247 . S
C73 O83 1.272 . S
O74 Co70 2.004 . S
O74 C79 1.259 . S
Co75 O76 2.061 . S
Co75 O81 2.052 . S
Co75 O83 2.135 . S
O76 Co75 2.061 . S
O76 C79 1.235 . S
C77 O80 1.238 . S
C77 O81 1.241 . S
C78 O71 1.247 . S
C78 O72 1.261 . S
C79 O74 1.259 . S
C79 O76 1.235 . S
O80 Co70 2.021 . S
O80 C77 1.238 . S
O81 Co75 2.052 . S
O81 C77 1.241 . S
O82 Co70 2.137 . S
O82 C73 1.247 . S
O83 Co70 2.244 . S
O83 C73 1.272 . S
O83 Co75 2.135 . S
Co84 O85 2.216 . S
Co84 O86 2.091 . S
Co84 O88 2.004 . S
Co84 O94 2.021 . S
Co84 O96 2.137 . S
Co84 O97 2.244 . S
O85 Co84 2.216 . S
O85 C92 1.247 . S
O86 Co84 2.091 . S
O86 C92 1.261 . S
C87 O96 1.247 . S
C87 O97 1.272 . S
O88 Co84 2.004 . S
O88 C93 1.259 . S
Co89 O90 2.061 . S
Co89 O95 2.052 . S
Co89 O97 2.135 . S
O90 Co89 2.061 . S
O90 C93 1.235 . S
C91 O94 1.238 . S
C91 O95 1.241 . S
C92 O85 1.247 . S
C92 O86 1.261 . S
C93 O88 1.259 . S
C93 O90 1.235 . S
O94 Co84 2.021 . S
O94 C91 1.238 . S
O95 Co89 2.052 . S
O95 C91 1.241 . S
O96 Co84 2.137 . S
O96 C87 1.247 . S
O97 Co84 2.244 . S
O97 C87 1.272 . S
O97 Co89 2.135 . S
Co98 O99 2.216 . S
Co98 O100 2.091 . S
Co98 O102 2.004 . S
Co98 O108 2.021 . S
Co98 O110 2.137 . S
Co98 O111 2.244 . S
O99 Co98 2.216 . S
O99 C106 1.247 . S
O100 Co98 2.091 . S
O100 C106 1.261 . S
C101 O110 1.247 . S
C101 O111 1.272 . S
O102 Co98 2.004 . S
O102 C107 1.259 . S
Co103 O104 2.061 . S
Co103 O109 2.052 . S
Co103 O111 2.135 . S
O104 Co103 2.061 . S
O104 C107 1.235 . S
C105 O108 1.238 . S
C105 O109 1.241 . S
C106 O99 1.247 . S
C106 O100 1.261 . S
C107 O102 1.259 . S
C107 O104 1.235 . S
O108 Co98 2.021 . S
O108 C105 1.238 . S
O109 Co103 2.052 . S
O109 C105 1.241 . S
O110 Co98 2.137 . S
O110 C101 1.247 . S
O111 Co98 2.244 . S
O111 C101 1.272 . S
O111 Co103 2.135 . S
Co112 O113 2.216 1_655 S
Co112 O114 2.091 1_655 S
Co112 O116 2.004 . S
Co112 O122 2.021 . S
Co112 O124 2.137 1_655 S
Co112 O125 2.244 . S
O113 Co112 2.216 1_455 S
O113 C120 1.247 . S
O114 Co112 2.091 1_455 S
O114 C120 1.261 . S
C115 O124 1.247 1_655 S
C115 O125 1.272 . S
O116 Co112 2.004 . S
O116 C121 1.259 . S
Co117 O118 2.061 . S
Co117 O123 2.052 . S
Co117 O125 2.135 . S
O118 Co117 2.061 . S
O118 C121 1.235 . S
C119 O122 1.238 . S
C119 O123 1.241 . S
C120 O113 1.247 . S
C120 O114 1.261 . S
C121 O116 1.259 . S
C121 O118 1.235 . S
O122 Co112 2.021 . S
O122 C119 1.238 . S
O123 Co117 2.052 . S
O123 C119 1.241 . S
O124 Co112 2.137 1_455 S
O124 C115 1.247 1_455 S
O125 Co112 2.244 . S
O125 C115 1.272 . S
O125 Co117 2.135 . S
Co126 O127 2.209 1_655 S
Co126 O128 2.091 . S
Co126 O130 2.004 . S
Co126 O136 2.021 . S
Co126 O138 2.137 1_655 S
Co126 O139 2.244 1_655 S
O127 Co126 2.209 1_455 S
O127 C134 1.247 1_455 S
O128 Co126 2.091 . S
O128 C134 1.261 . S
C129 O138 1.247 . S
C129 O139 1.272 . S
O130 Co126 2.004 . S
O130 C135 1.259 . S
Co131 O132 2.061 . S
Co131 O137 2.052 . S
Co131 O139 2.135 1_655 S
O132 Co131 2.061 . S
O132 C135 1.235 . S
C133 O136 1.238 . S
C133 O137 1.241 . S
C134 O127 1.247 1_655 S
C134 O128 1.261 . S
C135 O130 1.259 . S
C135 O132 1.235 . S
O136 Co126 2.021 . S
O136 C133 1.238 . S
O137 Co131 2.052 . S
O137 C133 1.241 . S
O138 Co126 2.137 1_455 S
O138 C129 1.247 . S
O139 Co126 2.244 1_455 S
O139 C129 1.272 . S
O139 Co131 2.135 1_455 S
Co140 O141 2.216 . S
Co140 O142 2.091 . S
Co140 O144 2.004 . S
Co140 O150 2.021 . S
Co140 O152 2.137 . S
Co140 O153 2.244 . S
O141 Co140 2.216 . S
O141 C148 1.247 . S
O142 Co140 2.091 . S
O142 C148 1.261 . S
C143 O152 1.247 . S
C143 O153 1.272 . S
O144 Co140 2.004 . S
O144 C149 1.259 . S
Co145 O146 2.061 . S
Co145 O151 2.052 . S
Co145 O153 2.135 . S
O146 Co145 2.061 . S
O146 C149 1.235 . S
C147 O150 1.238 . S
C147 O151 1.241 . S
C148 O141 1.247 . S
C148 O142 1.261 . S
C149 O144 1.259 . S
C149 O146 1.235 . S
O150 Co140 2.021 . S
O150 C147 1.238 . S
O151 Co145 2.052 . S
O151 C147 1.241 . S
O152 Co140 2.137 . S
O152 C143 1.247 . S
O153 Co140 2.244 . S
O153 C143 1.272 . S
O153 Co145 2.135 . S
Co154 O155 2.216 . S
Co154 O156 2.091 . S
Co154 O158 2.004 . S
Co154 O164 2.021 . S
Co154 O166 2.137 . S
Co154 O167 2.244 . S
O155 Co154 2.216 . S
O155 C162 1.247 . S
O156 Co154 2.091 . S
O156 C162 1.261 . S
C157 O166 1.247 . S
C157 O167 1.272 . S
O158 Co154 2.004 . S
O158 C163 1.259 . S
Co159 O160 2.061 . S
Co159 O165 2.052 . S
Co159 O167 2.135 . S
O160 Co159 2.061 . S
O160 C163 1.235 . S
C161 O164 1.238 . S
C161 O165 1.241 . S
C162 O155 1.247 . S
C162 O156 1.261 . S
C163 O158 1.259 . S
C163 O160 1.235 . S
O164 Co154 2.021 . S
O164 C161 1.238 . S
O165 Co159 2.052 . S
O165 C161 1.241 . S
O166 Co154 2.137 . S
O166 C157 1.247 . S
O167 Co154 2.244 . S
O167 C157 1.272 . S
O167 Co159 2.135 . S
Co168 O169 2.216 . S
Co168 O170 2.091 . S
Co168 O172 2.004 . S
Co168 O178 2.021 . S
Co168 O180 2.137 . S
Co168 O181 2.244 . S
O169 Co168 2.216 . S
O169 C176 1.247 . S
O170 Co168 2.091 . S
O170 C176 1.261 . S
C171 O180 1.247 . S
C171 O181 1.272 . S
O172 Co168 2.004 . S
O172 C177 1.259 . S
Co173 O174 2.061 . S
Co173 O179 2.052 . S
Co173 O181 2.135 . S
O174 Co173 2.061 . S
O174 C177 1.235 . S
C175 O178 1.238 . S
C175 O179 1.241 . S
C176 O169 1.247 . S
C176 O170 1.261 . S
C177 O172 1.259 . S
C177 O174 1.235 . S
O178 Co168 2.021 . S
O178 C175 1.238 . S
O179 Co173 2.052 . S
O179 C175 1.241 . S
O180 Co168 2.137 . S
O180 C171 1.247 . S
O181 Co168 2.244 . S
O181 C171 1.272 . S
O181 Co173 2.135 . S
Co182 O183 2.216 . S
Co182 O184 2.091 . S
Co182 O186 2.004 . S
Co182 O192 2.021 . S
Co182 O194 2.137 . S
Co182 O195 2.244 . S
O183 Co182 2.216 . S
O183 C190 1.247 . S
O184 Co182 2.091 . S
O184 C190 1.261 . S
C185 O194 1.247 . S
C185 O195 1.272 . S
O186 Co182 2.004 . S
O186 C191 1.259 . S
Co187 O188 2.061 . S
Co187 O193 2.052 . S
Co187 O195 2.135 . S
O188 Co187 2.061 . S
O188 C191 1.235 . S
C189 O192 1.238 . S
C189 O193 1.241 . S
C190 O183 1.247 . S
C190 O184 1.261 . S
C191 O186 1.259 . S
C191 O188 1.235 . S
O192 Co182 2.021 . S
O192 C189 1.238 . S
O193 Co187 2.052 . S
O193 C189 1.241 . S
O194 Co182 2.137 . S
O194 C185 1.247 . S
O195 Co182 2.244 . S
O195 C185 1.272 . S
O195 Co187 2.135 . S
Co196 O197 2.216 1_565 S
Co196 O198 2.091 . S
Co196 O200 2.004 . S
Co196 O206 2.021 . S
Co196 O208 2.137 1_565 S
Co196 O209 2.244 1_565 S
O197 Co196 2.216 1_545 S
O197 C204 1.247 1_545 S
O198 Co196 2.091 . S
O198 C204 1.261 . S
C199 O208 1.247 . S
C199 O209 1.272 . S
O200 Co196 2.004 . S
O200 C205 1.259 . S
Co201 O202 2.061 . S
Co201 O207 2.052 . S
Co201 O209 2.135 1_565 S
O202 Co201 2.061 . S
O202 C205 1.235 . S
C203 O206 1.238 . S
C203 O207 1.241 . S
C204 O197 1.247 1_565 S
C204 O198 1.261 . S
C205 O200 1.259 . S
C205 O202 1.235 . S
O206 Co196 2.021 . S
O206 C203 1.238 . S
O207 Co201 2.052 . S
O207 C203 1.241 . S
O208 Co196 2.137 1_545 S
O208 C199 1.247 . S
O209 Co196 2.244 1_545 S
O209 C199 1.272 . S
O209 Co201 2.135 1_545 S
Co210 O211 2.216 . S
Co210 O212 2.091 . S
Co210 O214 2.004 . S
Co210 O220 2.021 . S
Co210 O222 2.137 . S
Co210 O223 2.244 . S
O211 Co210 2.216 . S
O211 C218 1.247 . S
O212 Co210 2.091 . S
O212 C218 1.261 . S
C213 O222 1.247 . S
C213 O223 1.272 . S
O214 Co210 2.004 . S
O214 C219 1.259 . S
Co215 O216 2.061 . S
Co215 O221 2.052 . S
Co215 O223 2.135 . S
O216 Co215 2.061 . S
O216 C219 1.235 . S
C217 O220 1.238 . S
C217 O221 1.241 . S
C218 O211 1.247 . S
C218 O212 1.261 . S
C219 O214 1.259 . S
C219 O216 1.235 . S
O220 Co210 2.021 . S
O220 C217 1.238 . S
O221 Co215 2.052 . S
O221 C217 1.241 . S
O222 Co210 2.137 . S
O222 C213 1.247 . S
O223 Co210 2.244 . S
O223 C213 1.272 . S
O223 Co215 2.135 . S
Co224 O225 2.216 1_565 S
Co224 O226 2.091 . S
Co224 O228 2.004 . S
Co224 O234 2.021 . S
Co224 O236 2.137 1_565 S
Co224 O237 2.244 1_565 S
O225 Co224 2.216 1_545 S
O225 C232 1.247 1_545 S
O226 Co224 2.091 . S
O226 C232 1.261 . S
C227 O236 1.247 . S
C227 O237 1.272 . S
O228 Co224 2.004 . S
O228 C233 1.259 . S
Co229 O230 2.061 . S
Co229 O235 2.052 . S
Co229 O237 2.135 1_565 S
O230 Co229 2.061 . S
O230 C233 1.235 . S
C231 O234 1.238 . S
C231 O235 1.241 . S
C232 O225 1.247 1_565 S
C232 O226 1.261 . S
C233 O228 1.259 . S
C233 O230 1.235 . S
O234 Co224 2.021 . S
O234 C231 1.238 . S
O235 Co229 2.052 . S
O235 C231 1.241 . S
O236 Co224 2.137 1_545 S
O236 C227 1.247 . S
O237 Co224 2.244 1_545 S
O237 C227 1.272 . S
O237 Co229 2.135 1_545 S
Co238 O239 2.216 . S
Co238 O240 2.091 . S
Co238 O242 2.004 . S
Co238 O248 2.021 . S
Co238 O250 2.137 . S
Co238 O251 2.244 . S
O239 Co238 2.216 . S
O239 C246 1.247 1_455 S
O240 Co238 2.091 . S
O240 C246 1.261 1_455 S
C241 O250 1.247 . S
C241 O251 1.272 . S
O242 Co238 2.004 . S
O242 C247 1.259 . S
Co243 O244 2.061 . S
Co243 O249 2.052 . S
Co243 O251 2.135 . S
O244 Co243 2.061 . S
O244 C247 1.235 . S
C245 O248 1.238 . S
C245 O249 1.241 . S
C246 O239 1.247 1_655 S
C246 O240 1.261 1_655 S
C247 O242 1.259 . S
C247 O244 1.235 . S
O248 Co238 2.021 . S
O248 C245 1.238 . S
O249 Co243 2.052 . S
O249 C245 1.241 . S
O250 Co238 2.137 . S
O250 C241 1.247 . S
O251 Co238 2.244 . S
O251 C241 1.272 . S
O251 Co243 2.135 . S
Zn252 O258 1.920 1_455 S
Zn252 O264 1.898 1_445 S
Zn252 O267 1.905 . S
Zn253 O261 1.905 1_445 S
Zn253 O262 1.898 . S
Zn253 O270 1.920 1_455 S
Zn254 O257 2.080 . S
Zn254 O260 2.114 1_545 S
Zn254 O263 2.120 . S
Zn254 O265 2.120 1_445 S
Zn254 O266 2.114 . S
Zn254 O269 2.080 1_455 S
C255 O260 1.166 . S
C255 O261 1.182 1_455 S
C256 O262 1.167 . S
C256 O263 1.299 . S
O257 Zn254 2.080 . S
O257 C271 1.305 1_455 S
O258 Zn252 1.920 1_655 S
O258 C271 1.234 . S
C259 O264 1.167 . S
C259 O265 1.299 . S
O260 Zn254 2.114 1_565 S
O260 C255 1.166 . S
O261 Zn253 1.905 1_665 S
O261 C255 1.182 1_655 S
O262 Zn253 1.898 . S
O262 C256 1.167 . S
O263 Zn254 2.120 . S
O263 C256 1.299 . S
O264 Zn252 1.898 1_665 S
O264 C259 1.167 . S
O265 Zn254 2.120 1_665 S
O265 C259 1.299 . S
O266 Zn254 2.114 . S
O266 C268 1.166 . S
O267 Zn252 1.905 . S
O267 C268 1.182 . S
C268 O266 1.166 . S
C268 O267 1.182 . S
O269 Zn254 2.080 1_655 S
O269 C272 1.305 . S
O270 Zn253 1.920 1_655 S
O270 C272 1.234 . S
C271 O257 1.305 1_655 S
C271 O258 1.234 . S
C272 O269 1.305 . S
C272 O270 1.234 . S
Zn273 O279 1.920 1_545 S
Zn273 O285 1.898 . S
Zn273 O288 1.905 1_455 S
Zn274 O282 1.905 . S
Zn274 O283 1.898 1_445 S
Zn274 O291 1.920 1_545 S
Zn275 O278 2.080 1_545 S
Zn275 O281 2.114 . S
Zn275 O284 2.120 1_445 S
Zn275 O286 2.120 . S
Zn275 O287 2.114 1_455 S
Zn275 O290 2.080 . S
C276 O281 1.166 . S
C276 O282 1.182 . S
C277 O283 1.167 . S
C277 O284 1.299 . S
O278 Zn275 2.080 1_565 S
O278 C292 1.305 . S
O279 Zn273 1.920 1_565 S
O279 C292 1.234 . S
C280 O285 1.167 . S
C280 O286 1.299 . S
O281 Zn275 2.114 . S
O281 C276 1.166 . S
O282 Zn274 1.905 . S
O282 C276 1.182 . S
O283 Zn274 1.898 1_665 S
O283 C277 1.167 . S
O284 Zn275 2.120 1_665 S
O284 C277 1.299 . S
O285 Zn273 1.898 . S
O285 C280 1.167 . S
O286 Zn275 2.120 . S
O286 C280 1.299 . S
O287 Zn275 2.114 1_655 S
O287 C289 1.166 . S
O288 Zn273 1.905 1_655 S
O288 C289 1.182 . S
C289 O287 1.166 . S
C289 O288 1.182 . S
O290 Zn275 2.080 . S
O290 C293 1.305 . S
O291 Zn274 1.920 1_565 S
O291 C293 1.234 1_565 S
C292 O278 1.305 . S
C292 O279 1.234 . S
C293 O290 1.305 . S
C293 O291 1.234 1_545 S
Zn294 O300 1.920 1_545 S
Zn294 O306 1.898 . S
Zn294 O309 1.905 1_455 S
Zn295 O303 1.905 . S
Zn295 O304 1.898 1_445 S
Zn295 O312 1.920 . S
Zn296 O299 2.080 1_545 S
Zn296 O302 2.114 . S
Zn296 O305 2.120 1_445 S
Zn296 O307 2.120 . S
Zn296 O308 2.114 1_455 S
Zn296 O311 2.080 . S
C297 O302 1.166 . S
C297 O303 1.182 . S
C298 O304 1.167 . S
C298 O305 1.299 . S
O299 Zn296 2.080 1_565 S
O299 C313 1.305 . S
O300 Zn294 1.920 1_565 S
O300 C313 1.234 . S
C301 O306 1.167 . S
C301 O307 1.299 . S
O302 Zn296 2.114 . S
O302 C297 1.166 . S
O303 Zn295 1.905 . S
O303 C297 1.182 . S
O304 Zn295 1.898 1_665 S
O304 C298 1.167 . S
O305 Zn296 2.120 1_665 S
O305 C298 1.299 . S
O306 Zn294 1.898 . S
O306 C301 1.167 . S
O307 Zn296 2.120 . S
O307 C301 1.299 . S
O308 Zn296 2.114 1_655 S
O308 C310 1.166 . S
O309 Zn294 1.905 1_655 S
O309 C310 1.182 . S
C310 O308 1.166 . S
C310 O309 1.182 . S
O311 Zn296 2.080 . S
O311 C314 1.305 . S
O312 Zn295 1.920 . S
O312 C314 1.234 . S
C313 O299 1.305 . S
C313 O300 1.234 . S
C314 O311 1.305 . S
C314 O312 1.234 . S
Zn315 O321 1.920 . S
Zn315 O327 1.898 1_445 S
Zn315 O330 1.905 . S
Zn316 O324 1.905 1_445 S
Zn316 O325 1.898 . S
Zn316 O333 1.920 1_455 S
Zn317 O320 2.080 . S
Zn317 O323 2.114 1_545 S
Zn317 O326 2.120 . S
Zn317 O328 2.120 1_445 S
Zn317 O329 2.114 . S
Zn317 O332 2.080 1_455 S
C318 O323 1.166 . S
C318 O324 1.182 1_455 S
C319 O325 1.167 . S
C319 O326 1.299 . S
O320 Zn317 2.080 . S
O320 C334 1.305 . S
O321 Zn315 1.920 . S
O321 C334 1.234 . S
C322 O327 1.167 . S
C322 O328 1.299 . S
O323 Zn317 2.114 1_565 S
O323 C318 1.166 . S
O324 Zn316 1.905 1_665 S
O324 C318 1.182 1_655 S
O325 Zn316 1.898 . S
O325 C319 1.167 . S
O326 Zn317 2.120 . S
O326 C319 1.299 . S
O327 Zn315 1.898 1_665 S
O327 C322 1.167 . S
O328 Zn317 2.120 1_665 S
O328 C322 1.299 . S
O329 Zn317 2.114 . S
O329 C331 1.166 . S
O330 Zn315 1.905 . S
O330 C331 1.182 . S
C331 O329 1.166 . S
C331 O330 1.182 . S
O332 Zn317 2.080 1_655 S
O332 C335 1.305 . S
O333 Zn316 1.920 1_655 S
O333 C335 1.234 . S
C334 O320 1.305 . S
C334 O321 1.234 . S
C335 O332 1.305 . S
C335 O333 1.234 . S
Zn336 O342 1.920 . S
Zn336 O348 1.898 . S
Zn336 O351 1.905 . S
Zn337 O345 1.905 . S
Zn337 O346 1.898 . S
Zn337 O354 1.920 . S
Zn338 O341 2.080 . S
Zn338 O344 2.114 . S
Zn338 O347 2.120 . S
Zn338 O349 2.120 . S
Zn338 O350 2.114 . S
Zn338 O353 2.080 . S
C339 O344 1.166 . S
C339 O345 1.182 . S
C340 O346 1.167 . S
C340 O347 1.299 . S
O341 Zn338 2.080 . S
O341 C355 1.305 . S
O342 Zn336 1.920 . S
O342 C355 1.234 . S
C343 O348 1.167 . S
C343 O349 1.299 . S
O344 Zn338 2.114 . S
O344 C339 1.166 . S
O345 Zn337 1.905 . S
O345 C339 1.182 . S
O346 Zn337 1.898 . S
O346 C340 1.167 . S
O347 Zn338 2.120 . S
O347 C340 1.299 . S
O348 Zn336 1.898 . S
O348 C343 1.167 . S
O349 Zn338 2.120 . S
O349 C343 1.299 . S
O350 Zn338 2.114 . S
O350 C352 1.166 . S
O351 Zn336 1.905 . S
O351 C352 1.182 . S
C352 O350 1.166 . S
C352 O351 1.182 . S
O353 Zn338 2.080 . S
O353 C356 1.305 . S
O354 Zn337 1.920 . S
O354 C356 1.234 . S
C355 O341 1.305 . S
C355 O342 1.234 . S
C356 O353 1.305 . S
C356 O354 1.234 . S
Zn357 O363 1.920 . S
Zn357 O369 1.898 . S
Zn357 O372 1.905 . S
Zn358 O366 1.905 . S
Zn358 O367 1.898 . S
Zn358 O375 1.920 . S
Zn359 O362 2.080 . S
Zn359 O365 2.114 . S
Zn359 O368 2.120 . S
Zn359 O370 2.120 . S
Zn359 O371 2.114 . S
Zn359 O374 2.080 . S
C360 O365 1.166 . S
C360 O366 1.182 . S
C361 O367 1.167 . S
C361 O368 1.299 . S
O362 Zn359 2.080 . S
O362 C376 1.305 . S
O363 Zn357 1.920 . S
O363 C376 1.234 . S
C364 O369 1.167 . S
C364 O370 1.299 . S
O365 Zn359 2.114 . S
O365 C360 1.166 . S
O366 Zn358 1.905 . S
O366 C360 1.182 . S
O367 Zn358 1.898 . S
O367 C361 1.167 . S
O368 Zn359 2.120 . S
O368 C361 1.299 . S
O369 Zn357 1.898 . S
O369 C364 1.167 . S
O370 Zn359 2.120 . S
O370 C364 1.299 . S
O371 Zn359 2.114 . S
O371 C373 1.166 . S
O372 Zn357 1.905 . S
O372 C373 1.182 . S
C373 O371 1.166 . S
C373 O372 1.182 . S
O374 Zn359 2.080 . S
O374 C377 1.305 . S
O375 Zn358 1.920 . S
O375 C377 1.234 . S
C376 O362 1.305 . S
C376 O363 1.234 . S
C377 O374 1.305 . S
C377 O375 1.234 . S
Zn378 O384 1.920 . S
Zn378 O390 1.898 . S
Zn378 O393 1.905 . S
Zn379 O387 1.905 . S
Zn379 O388 1.898 . S
Zn379 O396 1.920 . S
Zn380 O383 2.080 . S
Zn380 O386 2.114 . S
Zn380 O389 2.120 . S
Zn380 O391 2.120 . S
Zn380 O392 2.114 . S
Zn380 O395 2.080 . S
C381 O386 1.166 . S
C381 O387 1.182 . S
C382 O388 1.167 . S
C382 O389 1.299 . S
O383 Zn380 2.080 . S
O383 C397 1.305 . S
O384 Zn378 1.920 . S
O384 C397 1.234 . S
C385 O390 1.167 . S
C385 O391 1.299 . S
O386 Zn380 2.114 . S
O386 C381 1.166 . S
O387 Zn379 1.905 . S
O387 C381 1.182 . S
O388 Zn379 1.898 . S
O388 C382 1.167 . S
O389 Zn380 2.120 . S
O389 C382 1.299 . S
O390 Zn378 1.898 . S
O390 C385 1.167 . S
O391 Zn380 2.120 . S
O391 C385 1.299 . S
O392 Zn380 2.114 . S
O392 C394 1.166 . S
O393 Zn378 1.905 . S
O393 C394 1.182 . S
C394 O392 1.166 . S
C394 O393 1.182 . S
O395 Zn380 2.080 . S
O395 C398 1.305 . S
O396 Zn379 1.920 . S
O396 C398 1.234 . S
C397 O383 1.305 . S
C397 O384 1.234 . S
C398 O395 1.305 . S
C398 O396 1.234 . S
Zn399 O405 1.920 . S
Zn399 O411 1.898 . S
Zn399 O414 1.905 . S
Zn400 O408 1.905 . S
Zn400 O409 1.898 . S
Zn400 O417 1.920 . S
Zn401 O404 2.080 . S
Zn401 O407 2.114 . S
Zn401 O410 2.120 . S
Zn401 O412 2.120 . S
Zn401 O413 2.114 . S
Zn401 O416 2.080 . S
C402 O407 1.166 . S
C402 O408 1.182 . S
C403 O409 1.167 . S
C403 O410 1.299 . S
O404 Zn401 2.080 . S
O404 C418 1.305 1_556 S
O405 Zn399 1.920 . S
O405 C418 1.234 . S
C406 O411 1.167 . S
C406 O412 1.299 1_554 S
O407 Zn401 2.114 . S
O407 C402 1.166 . S
O408 Zn400 1.905 . S
O408 C402 1.182 . S
O409 Zn400 1.898 . S
O409 C403 1.167 . S
O410 Zn401 2.120 . S
O410 C403 1.299 . S
O411 Zn399 1.898 . S
O411 C406 1.167 . S
O412 Zn401 2.120 . S
O412 C406 1.299 1_556 S
O413 Zn401 2.114 . S
O413 C415 1.166 1_556 S
O414 Zn399 1.905 . S
O414 C415 1.182 . S
C415 O413 1.166 1_554 S
C415 O414 1.182 . S
O416 Zn401 2.080 . S
O416 C419 1.305 . S
O417 Zn400 1.920 . S
O417 C419 1.234 . S
C418 O404 1.305 1_554 S
C418 O405 1.234 . S
C419 O416 1.305 . S
C419 O417 1.234 . S
Zn420 O426 1.920 . S
Zn420 O432 1.898 . S
Zn420 O435 1.905 . S
Zn421 O429 1.905 . S
Zn421 O430 1.898 . S
Zn421 O438 1.920 . S
Zn422 O425 2.080 . S
Zn422 O428 2.114 . S
Zn422 O431 2.120 . S
Zn422 O433 2.120 . S
Zn422 O434 2.114 . S
Zn422 O437 2.080 . S
C423 O428 1.166 . S
C423 O429 1.182 . S
C424 O430 1.167 . S
C424 O431 1.299 . S
O425 Zn422 2.080 . S
O425 C439 1.305 . S
O426 Zn420 1.920 . S
O426 C439 1.234 . S
C427 O432 1.167 . S
C427 O433 1.299 . S
O428 Zn422 2.114 . S
O428 C423 1.166 . S
O429 Zn421 1.905 . S
O429 C423 1.182 . S
O430 Zn421 1.898 . S
O430 C424 1.167 . S
O431 Zn422 2.120 . S
O431 C424 1.299 . S
O432 Zn420 1.898 . S
O432 C427 1.167 . S
O433 Zn422 2.120 . S
O433 C427 1.299 . S
O434 Zn422 2.114 . S
O434 C436 1.166 . S
O435 Zn420 1.905 . S
O435 C436 1.182 . S
C436 O434 1.166 . S
C436 O435 1.182 . S
O437 Zn422 2.080 . S
O437 C440 1.305 . S
O438 Zn421 1.920 . S
O438 C440 1.234 . S
C439 O425 1.305 . S
C439 O426 1.234 . S
C440 O437 1.305 . S
C440 O438 1.234 . S
Zn441 O447 1.920 . S
Zn441 O453 1.898 . S
Zn441 O456 1.905 . S
Zn442 O450 1.905 . S
Zn442 O451 1.898 . S
Zn442 O459 1.920 . S
Zn443 O446 2.080 . S
Zn443 O449 2.114 . S
Zn443 O452 2.120 . S
Zn443 O454 2.120 . S
Zn443 O455 2.114 . S
Zn443 O458 2.080 . S
C444 O449 1.166 1_556 S
C444 O450 1.182 . S
C445 O451 1.167 . S
C445 O452 1.299 1_556 S
O446 Zn443 2.080 . S
O446 C460 1.305 . S
O447 Zn441 1.920 . S
O447 C460 1.234 . S
C448 O453 1.167 . S
C448 O454 1.299 . S
O449 Zn443 2.114 . S
O449 C444 1.166 1_554 S
O450 Zn442 1.905 . S
O450 C444 1.182 . S
O451 Zn442 1.898 . S
O451 C445 1.167 . S
O452 Zn443 2.120 . S
O452 C445 1.299 1_554 S
O453 Zn441 1.898 . S
O453 C448 1.167 . S
O454 Zn443 2.120 . S
O454 C448 1.299 . S
O455 Zn443 2.114 . S
O455 C457 1.166 . S
O456 Zn441 1.905 . S
O456 C457 1.182 . S
C457 O455 1.166 . S
C457 O456 1.182 . S
O458 Zn443 2.080 . S
O458 C461 1.305 1_554 S
O459 Zn442 1.920 . S
O459 C461 1.234 . S
C460 O446 1.305 . S
C460 O447 1.234 . S
C461 O458 1.305 1_556 S
C461 O459 1.234 . S
Zn462 O468 1.920 . S
Zn462 O474 1.898 . S
Zn462 O477 1.905 . S
Zn463 O471 1.905 . S
Zn463 O472 1.898 . S
Zn463 O480 1.920 . S
Zn464 O467 2.080 . S
Zn464 O470 2.114 . S
Zn464 O473 2.120 . S
Zn464 O475 2.120 . S
Zn464 O476 2.114 . S
Zn464 O479 2.080 . S
C465 O470 1.166 . S
C465 O471 1.182 . S
C466 O472 1.167 . S
C466 O473 1.299 . S
O467 Zn464 2.080 . S
O467 C481 1.305 . S
O468 Zn462 1.920 . S
O468 C481 1.234 . S
C469 O474 1.167 . S
C469 O475 1.299 . S
O470 Zn464 2.114 . S
O470 C465 1.166 . S
O471 Zn463 1.905 . S
O471 C465 1.182 . S
O472 Zn463 1.898 . S
O472 C466 1.167 . S
O473 Zn464 2.120 . S
O473 C466 1.299 . S
O474 Zn462 1.898 . S
O474 C469 1.167 . S
O475 Zn464 2.120 . S
O475 C469 1.299 . S
O476 Zn464 2.114 . S
O476 C478 1.166 . S
O477 Zn462 1.905 . S
O477 C478 1.182 . S
C478 O476 1.166 . S
C478 O477 1.182 . S
O479 Zn464 2.080 . S
O479 C482 1.305 . S
O480 Zn463 1.920 . S
O480 C482 1.234 . S
C481 O467 1.305 . S
C481 O468 1.234 . S
C482 O479 1.305 . S
C482 O480 1.234 . S
Zn483 O489 1.920 . S
Zn483 O495 1.898 . S
Zn483 O498 1.905 . S
Zn484 O492 1.905 . S
Zn484 O493 1.898 . S
Zn484 O501 1.920 . S
Zn485 O488 2.080 . S
Zn485 O491 2.114 . S
Zn485 O494 2.120 . S
Zn485 O496 2.120 . S
Zn485 O497 2.114 . S
Zn485 O500 2.080 . S
C486 O491 1.166 . S
C486 O492 1.182 . S
C487 O493 1.167 . S
C487 O494 1.299 . S
O488 Zn485 2.080 . S
O488 C502 1.305 . S
O489 Zn483 1.920 . S
O489 C502 1.234 . S
C490 O495 1.167 . S
C490 O496 1.299 . S
O491 Zn485 2.114 . S
O491 C486 1.166 . S
O492 Zn484 1.905 . S
O492 C486 1.182 . S
O493 Zn484 1.898 . S
O493 C487 1.167 . S
O494 Zn485 2.120 . S
O494 C487 1.299 . S
O495 Zn483 1.898 . S
O495 C490 1.167 . S
O496 Zn485 2.120 . S
O496 C490 1.299 . S
O497 Zn485 2.114 . S
O497 C499 1.166 . S
O498 Zn483 1.905 . S
O498 C499 1.182 . S
C499 O497 1.166 . S
C499 O498 1.182 . S
O500 Zn485 2.080 . S
O500 C503 1.305 . S
O501 Zn484 1.920 . S
O501 C503 1.234 . S
C502 O488 1.305 . S
C502 O489 1.234 . S
C503 O500 1.305 . S
C503 O501 1.234 . S
C504 C505 1.391 . S
C504 C506 1.394 . S
C504 H520 0.931 . S
C505 C504 1.391 . S
C505 C509 1.376 . S
C506 C504 1.394 . S
C506 C507 1.369 . S
C506 C510 1.531 . S
C507 C506 1.369 . S
C507 C508 1.410 . S
C507 C515 1.503 . S
C508 C507 1.410 . S
C508 C509 1.392 . S
C508 C511 1.511 . S
C509 C505 1.376 . S
C509 C508 1.392 . S
C509 H521 0.929 . S
C510 C506 1.531 . S
C510 H522 0.960 . S
C510 H523 0.962 . S
C510 H524 0.960 . S
C511 C508 1.511 . S
C511 H525 0.961 . S
C511 H526 0.961 . S
C511 H527 0.961 . S
C512 C513 1.370 . S
C512 C514 1.363 . S
C512 H528 0.931 . S
C513 C512 1.370 . S
C513 C517 1.408 . S
C514 C512 1.363 . S
C514 C515 1.370 . S
C514 C518 1.524 . S
C515 C507 1.503 . S
C515 C514 1.370 . S
C515 C516 1.403 . S
C516 C515 1.403 . S
C516 C517 1.404 . S
C516 C519 1.539 . S
C517 C513 1.408 . S
C517 C516 1.404 . S
C517 H529 0.930 . S
C518 C514 1.524 . S
C518 H530 0.956 . S
C518 H531 0.961 . S
C518 H532 0.961 . S
C519 C516 1.539 . S
C519 H533 0.958 . S
C519 H534 0.961 . S
C519 H535 0.960 . S
H520 C504 0.931 . S
H521 C509 0.929 . S
H522 C510 0.960 . S
H523 C510 0.962 . S
H524 C510 0.960 . S
H525 C511 0.961 . S
H526 C511 0.961 . S
H527 C511 0.961 . S
H528 C512 0.931 . S
H529 C517 0.930 . S
H530 C518 0.956 . S
H531 C518 0.961 . S
H532 C518 0.961 . S
H533 C519 0.958 . S
H534 C519 0.961 . S
H535 C519 0.960 . S
C536 C537 1.391 1_565 S
C536 C538 1.394 . S
C536 H552 0.931 . S
C537 C536 1.391 1_545 S
C537 C541 1.376 . S
C538 C536 1.394 . S
C538 C539 1.369 1_565 S
C538 C542 1.531 . S
C539 C538 1.369 1_545 S
C539 C540 1.410 . S
C539 C547 1.503 . S
C540 C539 1.410 . S
C540 C541 1.392 . S
C540 C543 1.511 . S
C541 C537 1.376 . S
C541 C540 1.392 . S
C541 H553 0.929 . S
C542 C538 1.531 . S
C542 H554 0.960 . S
C542 H555 0.962 . S
C542 H556 0.960 . S
C543 C540 1.511 . S
C543 H557 0.961 . S
C543 H558 0.961 . S
C543 H559 0.961 . S
C544 C545 1.370 . S
C544 C546 1.363 . S
C544 H560 0.931 . S
C545 C544 1.370 . S
C545 C549 1.408 . S
C546 C544 1.363 . S
C546 C547 1.370 . S
C546 C550 1.524 . S
C547 C539 1.503 . S
C547 C546 1.370 . S
C547 C548 1.394 1_545 S
C548 C547 1.394 1_565 S
C548 C549 1.409 1_565 S
C548 C551 1.542 . S
C549 C545 1.408 . S
C549 C548 1.409 1_545 S
C549 H561 0.930 1_545 S
C550 C546 1.524 . S
C550 H562 0.956 . S
C550 H563 0.961 . S
C550 H564 0.961 . S
C551 C548 1.542 . S
C551 H565 0.958 . S
C551 H566 0.961 . S
C551 H567 0.960 . S
H552 C536 0.931 . S
H553 C541 0.929 . S
H554 C542 0.960 . S
H555 C542 0.962 . S
H556 C542 0.960 . S
H557 C543 0.961 . S
H558 C543 0.961 . S
H559 C543 0.961 . S
H560 C544 0.931 . S
H561 C549 0.930 1_565 S
H562 C550 0.956 . S
H563 C550 0.961 . S
H564 C550 0.961 . S
H565 C551 0.958 . S
H566 C551 0.961 . S
H567 C551 0.960 . S
C568 C569 1.391 . S
C568 C570 1.394 . S
C568 H584 0.931 . S
C569 C568 1.391 . S
C569 C573 1.376 1_455 S
C570 C568 1.394 . S
C570 C571 1.369 . S
C570 C574 1.531 . S
C571 C570 1.369 . S
C571 C572 1.410 1_455 S
C571 C579 1.503 . S
C572 C571 1.410 1_655 S
C572 C573 1.392 . S
C572 C575 1.511 . S
C573 C569 1.376 1_655 S
C573 C572 1.392 . S
C573 H585 0.929 . S
C574 C570 1.531 . S
C574 H586 0.960 . S
C574 H587 0.962 . S
C574 H588 0.960 . S
C575 C572 1.511 . S
C575 H589 0.961 . S
C575 H590 0.961 . S
C575 H591 0.961 . S
C576 C577 1.348 1_455 S
C576 C578 1.363 . S
C576 H592 0.931 . S
C577 C576 1.348 1_655 S
C577 C581 1.419 . S
C578 C576 1.363 . S
C578 C579 1.370 . S
C578 C582 1.524 . S
C579 C571 1.503 . S
C579 C578 1.370 . S
C579 C580 1.403 1_455 S
C580 C579 1.403 1_655 S
C580 C581 1.404 . S
C580 C583 1.539 . S
C581 C577 1.419 . S
C581 C580 1.404 . S
C581 H593 0.930 . S
C582 C578 1.524 . S
C582 H594 0.956 . S
C582 H595 0.961 . S
C582 H596 0.961 . S
C583 C580 1.539 . S
C583 H597 0.958 . S
C583 H598 0.961 . S
C583 H599 0.960 . S
H584 C568 0.931 . S
H585 C573 0.929 . S
H586 C574 0.960 . S
H587 C574 0.962 . S
H588 C574 0.960 . S
H589 C575 0.961 . S
H590 C575 0.961 . S
H591 C575 0.961 . S
H592 C576 0.931 . S
H593 C581 0.930 . S
H594 C582 0.956 . S
H595 C582 0.961 . S
H596 C582 0.961 . S
H597 C583 0.958 . S
H598 C583 0.961 . S
H599 C583 0.960 . S
C600 C601 1.391 . S
C600 C602 1.394 . S
C600 H616 0.931 . S
C601 C600 1.391 . S
C601 C605 1.376 . S
C602 C600 1.394 . S
C602 C603 1.369 . S
C602 C606 1.531 . S
C603 C602 1.369 . S
C603 C604 1.410 . S
C603 C611 1.503 . S
C604 C603 1.410 . S
C604 C605 1.392 . S
C604 C607 1.511 . S
C605 C601 1.376 . S
C605 C604 1.392 . S
C605 H617 0.929 . S
C606 C602 1.531 . S
C606 H618 0.960 . S
C606 H619 0.962 . S
C606 H620 0.960 . S
C607 C604 1.511 . S
C607 H621 0.961 . S
C607 H622 0.961 . S
C607 H623 0.961 . S
C608 C609 1.370 . S
C608 C610 1.363 . S
C608 H624 0.931 . S
C609 C608 1.370 . S
C609 C613 1.408 . S
C610 C608 1.363 . S
C610 C611 1.370 . S
C610 C614 1.524 . S
C611 C603 1.503 . S
C611 C610 1.370 . S
C611 C612 1.403 . S
C612 C611 1.403 . S
C612 C613 1.404 . S
C612 C615 1.539 . S
C613 C609 1.408 . S
C613 C612 1.404 . S
C613 H625 0.930 . S
C614 C610 1.524 . S
C614 H626 0.956 . S
C614 H627 0.961 . S
C614 H628 0.961 . S
C615 C612 1.539 . S
C615 H629 0.958 . S
C615 H630 0.961 . S
C615 H631 0.960 . S
H616 C600 0.931 . S
H617 C605 0.929 . S
H618 C606 0.960 . S
H619 C606 0.962 . S
H620 C606 0.960 . S
H621 C607 0.961 . S
H622 C607 0.961 . S
H623 C607 0.961 . S
H624 C608 0.931 . S
H625 C613 0.930 . S
H626 C614 0.956 . S
H627 C614 0.961 . S
H628 C614 0.961 . S
H629 C615 0.958 . S
H630 C615 0.961 . S
H631 C615 0.960 . S
C632 C633 1.391 . S
C632 C634 1.394 . S
C632 H648 0.931 . S
C633 C632 1.391 . S
C633 C637 1.376 . S
C634 C632 1.394 . S
C634 C635 1.369 . S
C634 C638 1.531 . S
C635 C634 1.369 . S
C635 C636 1.410 . S
C635 C643 1.503 . S
C636 C635 1.410 . S
C636 C637 1.392 . S
C636 C639 1.511 1_545 S
C637 C633 1.376 . S
C637 C636 1.392 . S
C637 H649 0.929 1_545 S
C638 C634 1.531 . S
C638 H650 0.960 . S
C638 H651 0.962 . S
C638 H652 0.960 . S
C639 C636 1.511 1_565 S
C639 H653 0.961 . S
C639 H654 0.961 . S
C639 H655 0.967 . S
C640 C641 1.370 1_565 S
C640 C642 1.363 . S
C640 H656 0.931 . S
C641 C640 1.370 1_545 S
C641 C645 1.408 . S
C642 C640 1.363 . S
C642 C643 1.370 1_565 S
C642 C646 1.524 . S
C643 C635 1.503 . S
C643 C642 1.370 1_545 S
C643 C644 1.403 . S
C644 C643 1.403 . S
C644 C645 1.404 . S
C644 C647 1.539 . S
C645 C641 1.408 . S
C645 C644 1.404 . S
C645 H657 0.930 . S
C646 C642 1.524 . S
C646 H658 0.956 . S
C646 H659 0.961 . S
C646 H660 0.961 . S
C647 C644 1.539 . S
C647 H661 0.958 . S
C647 H662 0.961 . S
C647 H663 0.960 . S
H648 C632 0.931 . S
H649 C637 0.929 1_565 S
H650 C638 0.960 . S
H651 C638 0.962 . S
H652 C638 0.960 . S
H653 C639 0.961 . S
H654 C639 0.961 . S
H655 C639 0.967 . S
H656 C640 0.931 . S
H657 C645 0.930 . S
H658 C646 0.956 . S
H659 C646 0.961 . S
H660 C646 0.961 . S
H661 C647 0.958 . S
H662 C647 0.961 . S
H663 C647 0.960 . S
C664 C665 1.391 . S
C664 C666 1.394 . S
C664 H680 0.931 . S
C665 C664 1.391 . S
C665 C669 1.376 1_455 S
C666 C664 1.394 . S
C666 C667 1.369 . S
C666 C670 1.531 . S
C667 C666 1.369 . S
C667 C668 1.410 1_455 S
C667 C675 1.503 . S
C668 C667 1.410 1_655 S
C668 C669 1.392 . S
C668 C671 1.511 . S
C669 C665 1.376 1_655 S
C669 C668 1.392 . S
C669 H681 0.929 . S
C670 C666 1.531 . S
C670 H682 0.960 . S
C670 H683 0.962 . S
C670 H684 0.960 . S
C671 C668 1.511 . S
C671 H685 0.961 . S
C671 H686 0.961 . S
C671 H687 0.961 . S
C672 C673 1.370 . S
C672 C674 1.363 . S
C672 H688 0.931 . S
C673 C672 1.370 . S
C673 C677 1.408 . S
C674 C672 1.363 . S
C674 C675 1.370 . S
C674 C678 1.524 1_455 S
C675 C667 1.503 . S
C675 C674 1.370 . S
C675 C676 1.403 . S
C676 C675 1.403 . S
C676 C677 1.404 . S
C676 C679 1.539 . S
C677 C673 1.408 . S
C677 C676 1.404 . S
C677 H689 0.930 . S
C678 C674 1.524 1_655 S
C678 H690 0.956 1_655 S
C678 H691 0.961 . S
C678 H692 0.961 . S
C679 C676 1.539 . S
C679 H693 0.958 . S
C679 H694 0.961 . S
C679 H695 0.960 . S
H680 C664 0.931 . S
H681 C669 0.929 . S
H682 C670 0.960 . S
H683 C670 0.962 . S
H684 C670 0.960 . S
H685 C671 0.961 . S
H686 C671 0.961 . S
H687 C671 0.961 . S
H688 C672 0.931 . S
H689 C677 0.930 . S
H690 C678 0.956 1_455 S
H691 C678 0.961 . S
H692 C678 0.961 . S
H693 C679 0.958 . S
H694 C679 0.961 . S
H695 C679 0.960 . S
C696 C697 1.391 . S
C696 C698 1.394 . S
C696 H712 0.931 . S
C697 C696 1.391 . S
C697 C701 1.376 . S
C698 C696 1.394 . S
C698 C699 1.369 . S
C698 C702 1.531 . S
C699 C698 1.369 . S
C699 C700 1.410 . S
C699 C707 1.503 . S
C700 C699 1.410 . S
C700 C701 1.392 . S
C700 C703 1.511 . S
C701 C697 1.376 . S
C701 C700 1.392 . S
C701 H713 0.929 . S
C702 C698 1.531 . S
C702 H714 0.960 . S
C702 H715 0.962 . S
C702 H716 0.960 . S
C703 C700 1.511 . S
C703 H717 0.961 . S
C703 H718 0.961 . S
C703 H719 0.961 . S
C704 C705 1.370 . S
C704 C706 1.363 . S
C704 H720 0.931 . S
C705 C704 1.370 . S
C705 C709 1.408 . S
C706 C704 1.363 . S
C706 C707 1.370 . S
C706 C710 1.524 . S
C707 C699 1.503 . S
C707 C706 1.370 . S
C707 C708 1.403 . S
C708 C707 1.403 . S
C708 C709 1.404 . S
C708 C711 1.539 . S
C709 C705 1.408 . S
C709 C708 1.404 . S
C709 H721 0.930 . S
C710 C706 1.524 . S
C710 H722 0.956 . S
C710 H723 0.961 . S
C710 H724 0.961 . S
C711 C708 1.539 . S
C711 H725 0.958 . S
C711 H726 0.961 . S
C711 H727 0.960 . S
H712 C696 0.931 . S
H713 C701 0.929 . S
H714 C702 0.960 . S
H715 C702 0.962 . S
H716 C702 0.960 . S
H717 C703 0.961 . S
H718 C703 0.961 . S
H719 C703 0.961 . S
H720 C704 0.931 . S
H721 C709 0.930 . S
H722 C710 0.956 . S
H723 C710 0.961 . S
H724 C710 0.961 . S
H725 C711 0.958 . S
H726 C711 0.961 . S
H727 C711 0.960 . S
C728 C729 1.391 . S
C728 C730 1.394 . S
C728 H744 0.931 . S
C729 C728 1.391 . S
C729 C733 1.376 . S
C730 C728 1.394 . S
C730 C731 1.369 . S
C730 C734 1.531 . S
C731 C730 1.369 . S
C731 C732 1.410 . S
C731 C739 1.503 . S
C732 C731 1.410 . S
C732 C733 1.392 . S
C732 C735 1.511 1_545 S
C733 C729 1.376 . S
C733 C732 1.392 . S
C733 H745 0.929 . S
C734 C730 1.531 . S
C734 H746 0.960 . S
C734 H747 0.962 . S
C734 H748 0.960 . S
C735 C732 1.511 1_565 S
C735 H749 0.961 . S
C735 H750 0.979 . S
C735 H751 0.961 . S
C736 C737 1.370 . S
C736 C738 1.363 . S
C736 H752 0.931 . S
C737 C736 1.370 . S
C737 C741 1.408 1_545 S
C738 C736 1.363 . S
C738 C739 1.370 . S
C738 C742 1.524 . S
C739 C731 1.503 . S
C739 C738 1.370 . S
C739 C740 1.403 1_545 S
C740 C739 1.403 1_565 S
C740 C741 1.404 . S
C740 C743 1.539 . S
C741 C737 1.408 1_565 S
C741 C740 1.404 . S
C741 H753 0.930 . S
C742 C738 1.524 . S
C742 H754 0.956 . S
C742 H755 0.961 . S
C742 H756 0.961 . S
C743 C740 1.539 . S
C743 H757 0.958 . S
C743 H758 0.961 . S
C743 H759 0.960 . S
H744 C728 0.931 . S
H745 C733 0.929 . S
H746 C734 0.960 . S
H747 C734 0.962 . S
H748 C734 0.960 . S
H749 C735 0.961 . S
H750 C735 0.979 . S
H751 C735 0.961 . S
H752 C736 0.931 . S
H753 C741 0.930 . S
H754 C742 0.956 . S
H755 C742 0.961 . S
H756 C742 0.961 . S
H757 C743 0.958 . S
H758 C743 0.961 . S
H759 C743 0.960 . S
C760 C761 1.391 . S
C760 C762 1.394 . S
C760 H776 0.931 . S
C761 C760 1.391 . S
C761 C765 1.376 1_455 S
C762 C760 1.394 . S
C762 C763 1.369 . S
C762 C766 1.531 . S
C763 C762 1.369 . S
C763 C764 1.410 1_455 S
C763 C771 1.503 . S
C764 C763 1.410 1_655 S
C764 C765 1.392 . S
C764 C767 1.511 . S
C765 C761 1.376 1_655 S
C765 C764 1.392 . S
C765 H777 0.929 . S
C766 C762 1.531 . S
C766 H778 0.960 . S
C766 H779 0.962 . S
C766 H780 0.960 . S
C767 C764 1.511 . S
C767 H781 0.961 . S
C767 H782 0.961 . S
C767 H783 0.961 . S
C768 C769 1.370 . S
C768 C770 1.363 . S
C768 H784 0.931 . S
C769 C768 1.370 . S
C769 C773 1.408 . S
C770 C768 1.363 . S
C770 C771 1.370 . S
C770 C774 1.524 . S
C771 C763 1.503 . S
C771 C770 1.370 . S
C771 C772 1.403 . S
C772 C771 1.403 . S
C772 C773 1.404 . S
C772 C775 1.539 . S
C773 C769 1.408 . S
C773 C772 1.404 . S
C773 H785 0.930 . S
C774 C770 1.524 . S
C774 H786 0.956 . S
C774 H787 0.961 1_455 S
C774 H788 0.961 . S
C775 C772 1.539 . S
C775 H789 0.958 . S
C775 H790 0.961 . S
C775 H791 0.960 . S
H776 C760 0.931 . S
H777 C765 0.929 . S
H778 C766 0.960 . S
H779 C766 0.962 . S
H780 C766 0.960 . S
H781 C767 0.961 . S
H782 C767 0.961 . S
H783 C767 0.961 . S
H784 C768 0.931 . S
H785 C773 0.930 . S
H786 C774 0.956 . S
H787 C774 0.961 1_655 S
H788 C774 0.961 . S
H789 C775 0.958 . S
H790 C775 0.961 . S
H791 C775 0.960 . S
C792 C793 1.391 . S
C792 C794 1.394 . S
C792 H808 0.931 . S
C793 C792 1.391 . S
C793 C797 1.376 . S
C794 C792 1.394 . S
C794 C795 1.369 . S
C794 C798 1.531 . S
C795 C794 1.369 . S
C795 C796 1.410 . S
C795 C803 1.503 . S
C796 C795 1.410 . S
C796 C797 1.392 . S
C796 C799 1.511 . S
C797 C793 1.376 . S
C797 C796 1.392 . S
C797 H809 0.929 . S
C798 C794 1.531 . S
C798 H810 0.960 . S
C798 H811 0.962 . S
C798 H812 0.960 . S
C799 C796 1.511 . S
C799 H813 0.961 . S
C799 H814 0.961 . S
C799 H815 0.961 . S
C800 C801 1.370 . S
C800 C802 1.363 . S
C800 H816 0.931 . S
C801 C800 1.370 . S
C801 C805 1.408 . S
C802 C800 1.363 . S
C802 C803 1.370 . S
C802 C806 1.524 . S
C803 C795 1.503 . S
C803 C802 1.370 . S
C803 C804 1.403 . S
C804 C803 1.403 . S
C804 C805 1.404 . S
C804 C807 1.539 . S
C805 C801 1.408 . S
C805 C804 1.404 . S
C805 H817 0.930 . S
C806 C802 1.524 . S
C806 H818 0.956 . S
C806 H819 0.961 . S
C806 H820 0.961 . S
C807 C804 1.539 . S
C807 H821 0.958 . S
C807 H822 0.961 . S
C807 H823 0.960 . S
H808 C792 0.931 . S
H809 C797 0.929 . S
H810 C798 0.960 . S
H811 C798 0.962 . S
H812 C798 0.960 . S
H813 C799 0.961 . S
H814 C799 0.961 . S
H815 C799 0.961 . S
H816 C800 0.931 . S
H817 C805 0.930 . S
H818 C806 0.956 . S
H819 C806 0.961 . S
H820 C806 0.961 . S
H821 C807 0.958 . S
H822 C807 0.961 . S
H823 C807 0.960 . S
C824 C825 1.391 1_565 S
C824 C826 1.394 . S
C824 H840 0.931 . S
C825 C824 1.391 1_545 S
C825 C829 1.376 . S
C826 C824 1.394 . S
C826 C827 1.369 1_565 S
C826 C830 1.531 . S
C827 C826 1.369 1_545 S
C827 C828 1.410 . S
C827 C835 1.503 . S
C828 C827 1.410 . S
C828 C829 1.392 . S
C828 C831 1.511 . S
C829 C825 1.376 . S
C829 C828 1.392 . S
C829 H841 0.929 . S
C830 C826 1.531 . S
C830 H842 0.960 . S
C830 H843 0.962 . S
C830 H844 0.960 . S
C831 C828 1.511 . S
C831 H845 0.961 . S
C831 H846 0.961 . S
C831 H847 0.961 . S
C832 C833 1.370 . S
C832 C834 1.363 . S
C832 H848 0.931 . S
C833 C832 1.370 . S
C833 C837 1.408 . S
C834 C832 1.363 . S
C834 C835 1.370 . S
C834 C838 1.524 . S
C835 C827 1.503 . S
C835 C834 1.370 . S
C835 C836 1.403 . S
C836 C835 1.403 . S
C836 C837 1.404 . S
C836 C839 1.539 1_545 S
C837 C833 1.408 . S
C837 C836 1.404 . S
C837 H849 0.930 . S
C838 C834 1.524 . S
C838 H850 0.956 . S
C838 H851 0.961 . S
C838 H852 0.961 . S
C839 C836 1.539 1_565 S
C839 H853 0.958 . S
C839 H854 0.961 . S
C839 H855 0.960 . S
H840 C824 0.931 . S
H841 C829 0.929 . S
H842 C830 0.960 . S
H843 C830 0.962 . S
H844 C830 0.960 . S
H845 C831 0.961 . S
H846 C831 0.961 . S
H847 C831 0.961 . S
H848 C832 0.931 . S
H849 C837 0.930 . S
H850 C838 0.956 . S
H851 C838 0.961 . S
H852 C838 0.961 . S
H853 C839 0.958 . S
H854 C839 0.961 . S
H855 C839 0.960 . S
C856 C857 1.391 . S
C856 C858 1.394 . S
C856 H872 0.931 . S
C857 C856 1.391 . S
C857 C861 1.384 . S
C858 C856 1.394 . S
C858 C859 1.369 . S
C858 C862 1.531 . S
C859 C858 1.369 . S
C859 C860 1.410 1_455 S
C859 C867 1.503 . S
C860 C859 1.410 1_655 S
C860 C861 1.396 1_655 S
C860 C863 1.511 . S
C861 C857 1.384 . S
C861 C860 1.396 1_455 S
C861 H873 0.918 1_455 S
C862 C858 1.531 . S
C862 H874 0.960 . S
C862 H875 0.962 . S
C862 H876 0.960 . S
C863 C860 1.511 . S
C863 H877 0.961 . S
C863 H878 0.961 . S
C863 H879 0.961 . S
C864 C865 1.370 . S
C864 C866 1.363 . S
C864 H880 0.931 . S
C865 C864 1.370 . S
C865 C869 1.408 1_455 S
C866 C864 1.363 . S
C866 C867 1.370 . S
C866 C870 1.524 . S
C867 C859 1.503 . S
C867 C866 1.370 . S
C867 C868 1.403 1_455 S
C868 C867 1.403 1_655 S
C868 C869 1.404 . S
C868 C871 1.539 . S
C869 C865 1.408 1_655 S
C869 C868 1.404 . S
C869 H881 0.930 . S
C870 C866 1.524 . S
C870 H882 0.956 . S
C870 H883 0.961 . S
C870 H884 0.961 . S
C871 C868 1.539 . S
C871 H885 0.958 . S
C871 H886 0.961 . S
C871 H887 0.960 . S
H872 C856 0.931 . S
H873 C861 0.918 1_655 S
H874 C862 0.960 . S
H875 C862 0.962 . S
H876 C862 0.960 . S
H877 C863 0.961 . S
H878 C863 0.961 . S
H879 C863 0.961 . S
H880 C864 0.931 . S
H881 C869 0.930 . S
H882 C870 0.956 . S
H883 C870 0.961 . S
H884 C870 0.961 . S
H885 C871 0.958 . S
H886 C871 0.961 . S
H887 C871 0.960 . S
C888 C889 1.391 . S
C888 C890 1.394 . S
C888 H904 0.931 . S
C889 C888 1.391 . S
C889 C893 1.376 . S
C890 C888 1.394 . S
C890 C891 1.369 . S
C890 C894 1.531 . S
C891 C890 1.369 . S
C891 C892 1.410 . S
C891 C899 1.503 . S
C892 C891 1.410 . S
C892 C893 1.392 . S
C892 C895 1.511 . S
C893 C889 1.376 . S
C893 C892 1.392 . S
C893 H905 0.929 . S
C894 C890 1.531 . S
C894 H906 0.960 . S
C894 H907 0.962 . S
C894 H908 0.960 . S
C895 C892 1.511 . S
C895 H909 0.961 . S
C895 H910 0.961 . S
C895 H911 0.961 . S
C896 C897 1.370 . S
C896 C898 1.363 . S
C896 H912 0.931 . S
C897 C896 1.370 . S
C897 C901 1.408 . S
C898 C896 1.363 . S
C898 C899 1.370 . S
C898 C902 1.524 . S
C899 C891 1.503 . S
C899 C898 1.370 . S
C899 C900 1.403 . S
C900 C899 1.403 . S
C900 C901 1.404 . S
C900 C903 1.539 . S
C901 C897 1.408 . S
C901 C900 1.404 . S
C901 H913 0.930 . S
C902 C898 1.524 . S
C902 H914 0.956 . S
C902 H915 0.961 . S
C902 H916 0.961 . S
C903 C900 1.539 . S
C903 H917 0.958 . S
C903 H918 0.961 . S
C903 H919 0.960 . S
H904 C888 0.931 . S
H905 C893 0.929 . S
H906 C894 0.960 . S
H907 C894 0.962 . S
H908 C894 0.960 . S
H909 C895 0.961 . S
H910 C895 0.961 . S
H911 C895 0.961 . S
H912 C896 0.931 . S
H913 C901 0.930 . S
H914 C902 0.956 . S
H915 C902 0.961 . S
H916 C902 0.961 . S
H917 C903 0.958 . S
H918 C903 0.961 . S
H919 C903 0.960 . S
C920 C921 1.391 . S
C920 C922 1.394 . S
C920 H936 0.931 . S
C921 C920 1.391 . S
C921 C925 1.376 . S
C922 C920 1.394 . S
C922 C923 1.369 . S
C922 C926 1.531 . S
C923 C922 1.369 . S
C923 C924 1.410 . S
C923 C931 1.503 . S
C924 C923 1.410 . S
C924 C925 1.392 . S
C924 C927 1.511 . S
C925 C921 1.376 . S
C925 C924 1.392 . S
C925 H937 0.929 . S
C926 C922 1.531 . S
C926 H938 0.960 . S
C926 H939 0.962 . S
C926 H940 0.960 . S
C927 C924 1.511 . S
C927 H941 0.961 . S
C927 H942 0.961 . S
C927 H943 0.961 . S
C928 C929 1.370 . S
C928 C930 1.363 . S
C928 H944 0.931 . S
C929 C928 1.370 . S
C929 C933 1.408 . S
C930 C928 1.363 . S
C930 C931 1.370 . S
C930 C934 1.524 . S
C931 C923 1.503 . S
C931 C930 1.370 . S
C931 C932 1.403 . S
C932 C931 1.403 . S
C932 C933 1.404 . S
C932 C935 1.539 . S
C933 C929 1.408 . S
C933 C932 1.404 . S
C933 H945 0.930 . S
C934 C930 1.524 . S
C934 H946 0.956 . S
C934 H947 0.961 . S
C934 H948 0.961 . S
C935 C932 1.539 . S
C935 H949 0.958 . S
C935 H950 0.961 . S
C935 H951 0.960 . S
H936 C920 0.931 . S
H937 C925 0.929 . S
H938 C926 0.960 . S
H939 C926 0.962 . S
H940 C926 0.960 . S
H941 C927 0.961 . S
H942 C927 0.961 . S
H943 C927 0.961 . S
H944 C928 0.931 . S
H945 C933 0.930 . S
H946 C934 0.956 . S
H947 C934 0.961 . S
H948 C934 0.961 . S
H949 C935 0.958 . S
H950 C935 0.961 . S
H951 C935 0.960 . S
C952 C953 1.391 . S
C952 C954 1.394 . S
C952 H968 0.931 . S
C953 C952 1.391 . S
C953 C957 1.376 . S
C954 C952 1.394 . S
C954 C955 1.369 . S
C954 C958 1.531 . S
C955 C954 1.369 . S
C955 C956 1.410 . S
C955 C963 1.503 . S
C956 C955 1.410 . S
C956 C957 1.392 . S
C956 C959 1.511 . S
C957 C953 1.376 . S
C957 C956 1.392 . S
C957 H969 0.929 . S
C958 C954 1.531 . S
C958 H970 0.960 . S
C958 H971 0.962 . S
C958 H972 0.960 . S
C959 C956 1.511 . S
C959 H973 0.961 . S
C959 H974 0.961 . S
C959 H975 0.961 . S
C960 C961 1.370 . S
C960 C962 1.363 . S
C960 H976 0.931 . S
C961 C960 1.370 . S
C961 C965 1.408 . S
C962 C960 1.363 . S
C962 C963 1.370 . S
C962 C966 1.524 . S
C963 C955 1.503 . S
C963 C962 1.370 . S
C963 C964 1.403 . S
C964 C963 1.403 . S
C964 C965 1.404 . S
C964 C967 1.539 . S
C965 C961 1.408 . S
C965 C964 1.404 . S
C965 H977 0.930 . S
C966 C962 1.524 . S
C966 H978 0.956 . S
C966 H979 0.961 . S
C966 H980 0.961 . S
C967 C964 1.539 . S
C967 H981 0.958 . S
C967 H982 0.961 . S
C967 H983 0.960 . S
H968 C952 0.931 . S
H969 C957 0.929 . S
H970 C958 0.960 . S
H971 C958 0.962 . S
H972 C958 0.960 . S
H973 C959 0.961 . S
H974 C959 0.961 . S
H975 C959 0.961 . S
H976 C960 0.931 . S
H977 C965 0.930 . S
H978 C966 0.956 . S
H979 C966 0.961 . S
H980 C966 0.961 . S
H981 C967 0.958 . S
H982 C967 0.961 . S
H983 C967 0.960 . S
C984 C985 1.391 . S
C984 C986 1.394 . S
C984 H1000 0.931 . S
C985 C984 1.391 . S
C985 C989 1.376 . S
C986 C984 1.394 . S
C986 C987 1.369 . S
C986 C990 1.531 . S
C987 C986 1.369 . S
C987 C988 1.410 . S
C987 C995 1.503 . S
C988 C987 1.410 . S
C988 C989 1.392 . S
C988 C991 1.511 . S
C989 C985 1.376 . S
C989 C988 1.392 . S
C989 H1001 0.929 . S
C990 C986 1.531 . S
C990 H1002 0.960 . S
C990 H1003 0.962 . S
C990 H1004 0.960 . S
C991 C988 1.511 . S
C991 H1005 0.961 . S
C991 H1006 0.961 . S
C991 H1007 0.961 . S
C992 C993 1.370 . S
C992 C994 1.363 . S
C992 H1008 0.931 . S
C993 C992 1.370 . S
C993 C997 1.408 . S
C994 C992 1.363 . S
C994 C995 1.370 . S
C994 C998 1.524 . S
C995 C987 1.503 . S
C995 C994 1.370 . S
C995 C996 1.403 . S
C996 C995 1.403 . S
C996 C997 1.404 . S
C996 C999 1.539 . S
C997 C993 1.408 . S
C997 C996 1.404 . S
C997 H1009 0.930 . S
C998 C994 1.524 . S
C998 H1010 0.956 . S
C998 H1011 0.961 . S
C998 H1012 0.961 . S
C999 C996 1.539 . S
C999 H1013 0.958 . S
C999 H1014 0.961 . S
C999 H1015 0.960 . S
H1000 C984 0.931 . S
H1001 C989 0.929 . S
H1002 C990 0.960 . S
H1003 C990 0.962 . S
H1004 C990 0.960 . S
H1005 C991 0.961 . S
H1006 C991 0.961 . S
H1007 C991 0.961 . S
H1008 C992 0.931 . S
H1009 C997 0.930 . S
H1010 C998 0.956 . S
H1011 C998 0.961 . S
H1012 C998 0.961 . S
H1013 C999 0.958 . S
H1014 C999 0.961 . S
H1015 C999 0.960 . S
C1016 C1017 1.391 . S
C1016 C1018 1.394 . S
C1016 H1032 0.931 . S
C1017 C1016 1.391 . S
C1017 C1021 1.376 . S
C1018 C1016 1.394 . S
C1018 C1019 1.369 . S
C1018 C1022 1.531 . S
C1019 C1018 1.369 . S
C1019 C1020 1.410 . S
C1019 C1027 1.503 . S
C1020 C1019 1.410 . S
C1020 C1021 1.392 . S
C1020 C1023 1.511 . S
C1021 C1017 1.376 . S
C1021 C1020 1.392 . S
C1021 H1033 0.929 . S
C1022 C1018 1.531 . S
C1022 H1034 0.960 . S
C1022 H1035 0.962 . S
C1022 H1036 0.960 . S
C1023 C1020 1.511 . S
C1023 H1037 0.961 . S
C1023 H1038 0.961 . S
C1023 H1039 0.961 . S
C1024 C1025 1.370 . S
C1024 C1026 1.363 . S
C1024 H1040 0.931 . S
C1025 C1024 1.370 . S
C1025 C1029 1.408 . S
C1026 C1024 1.363 . S
C1026 C1027 1.370 . S
C1026 C1030 1.524 . S
C1027 C1019 1.503 . S
C1027 C1026 1.370 . S
C1027 C1028 1.403 . S
C1028 C1027 1.403 . S
C1028 C1029 1.404 . S
C1028 C1031 1.539 . S
C1029 C1025 1.408 . S
C1029 C1028 1.404 . S
C1029 H1041 0.930 . S
C1030 C1026 1.524 . S
C1030 H1042 0.956 . S
C1030 H1043 0.961 . S
C1030 H1044 0.961 . S
C1031 C1028 1.539 . S
C1031 H1045 0.958 . S
C1031 H1046 0.961 . S
C1031 H1047 0.960 . S
H1032 C1016 0.931 . S
H1033 C1021 0.929 . S
H1034 C1022 0.960 . S
H1035 C1022 0.962 . S
H1036 C1022 0.960 . S
H1037 C1023 0.961 . S
H1038 C1023 0.961 . S
H1039 C1023 0.961 . S
H1040 C1024 0.931 . S
H1041 C1029 0.930 . S
H1042 C1030 0.956 . S
H1043 C1030 0.961 . S
H1044 C1030 0.961 . S
H1045 C1031 0.958 . S
H1046 C1031 0.961 . S
H1047 C1031 0.960 . S
C1048 C1049 1.391 . S
C1048 C1050 1.394 . S
C1048 H1064 0.931 . S
C1049 C1048 1.391 . S
C1049 C1053 1.376 . S
C1050 C1048 1.394 . S
C1050 C1051 1.369 . S
C1050 C1054 1.531 . S
C1051 C1050 1.369 . S
C1051 C1052 1.410 . S
C1051 C1059 1.503 . S
C1052 C1051 1.410 . S
C1052 C1053 1.392 . S
C1052 C1055 1.511 . S
C1053 C1049 1.376 . S
C1053 C1052 1.392 . S
C1053 H1065 0.929 . S
C1054 C1050 1.531 . S
C1054 H1066 0.960 . S
C1054 H1067 0.962 . S
C1054 H1068 0.960 . S
C1055 C1052 1.511 . S
C1055 H1069 0.961 . S
C1055 H1070 0.961 . S
C1055 H1071 0.961 . S
C1056 C1057 1.370 . S
C1056 C1058 1.363 . S
C1056 H1072 0.931 . S
C1057 C1056 1.370 . S
C1057 C1061 1.408 . S
C1058 C1056 1.363 . S
C1058 C1059 1.370 . S
C1058 C1062 1.524 . S
C1059 C1051 1.503 . S
C1059 C1058 1.370 . S
C1059 C1060 1.403 . S
C1060 C1059 1.403 . S
C1060 C1061 1.404 . S
C1060 C1063 1.539 . S
C1061 C1057 1.408 . S
C1061 C1060 1.404 . S
C1061 H1073 0.930 . S
C1062 C1058 1.524 . S
C1062 H1074 0.956 . S
C1062 H1075 0.961 . S
C1062 H1076 0.961 . S
C1063 C1060 1.539 . S
C1063 H1077 0.958 . S
C1063 H1078 0.961 . S
C1063 H1079 0.960 . S
H1064 C1048 0.931 . S
H1065 C1053 0.929 . S
H1066 C1054 0.960 . S
H1067 C1054 0.962 . S
H1068 C1054 0.960 . S
H1069 C1055 0.961 . S
H1070 C1055 0.961 . S
H1071 C1055 0.961 . S
H1072 C1056 0.931 . S
H1073 C1061 0.930 . S
H1074 C1062 0.956 . S
H1075 C1062 0.961 . S
H1076 C1062 0.961 . S
H1077 C1063 0.958 . S
H1078 C1063 0.961 . S
H1079 C1063 0.960 . S
C1080 C1081 1.391 . S
C1080 C1082 1.394 . S
C1080 H1096 0.931 . S
C1081 C1080 1.391 . S
C1081 C1085 1.376 . S
C1082 C1080 1.394 . S
C1082 C1083 1.369 . S
C1082 C1086 1.531 . S
C1083 C1082 1.369 . S
C1083 C1084 1.410 . S
C1083 C1091 1.503 . S
C1084 C1083 1.410 . S
C1084 C1085 1.392 . S
C1084 C1087 1.511 . S
C1085 C1081 1.376 . S
C1085 C1084 1.392 . S
C1085 H1097 0.929 . S
C1086 C1082 1.531 . S
C1086 H1098 0.960 . S
C1086 H1099 0.962 . S
C1086 H1100 0.960 . S
C1087 C1084 1.511 . S
C1087 H1101 0.961 . S
C1087 H1102 0.961 . S
C1087 H1103 0.961 . S
C1088 C1089 1.370 . S
C1088 C1090 1.363 . S
C1088 H1104 0.931 . S
C1089 C1088 1.370 . S
C1089 C1093 1.408 . S
C1090 C1088 1.363 . S
C1090 C1091 1.370 . S
C1090 C1094 1.524 . S
C1091 C1083 1.503 . S
C1091 C1090 1.370 . S
C1091 C1092 1.403 . S
C1092 C1091 1.403 . S
C1092 C1093 1.404 . S
C1092 C1095 1.539 . S
C1093 C1089 1.408 . S
C1093 C1092 1.404 . S
C1093 H1105 0.930 . S
C1094 C1090 1.524 . S
C1094 H1106 0.956 . S
C1094 H1107 0.961 . S
C1094 H1108 0.961 . S
C1095 C1092 1.539 . S
C1095 H1109 0.958 . S
C1095 H1110 0.961 . S
C1095 H1111 0.960 . S
H1096 C1080 0.931 . S
H1097 C1085 0.929 . S
H1098 C1086 0.960 . S
H1099 C1086 0.962 . S
H1100 C1086 0.960 . S
H1101 C1087 0.961 . S
H1102 C1087 0.961 . S
H1103 C1087 0.961 . S
H1104 C1088 0.931 . S
H1105 C1093 0.930 . S
H1106 C1094 0.956 . S
H1107 C1094 0.961 . S
H1108 C1094 0.961 . S
H1109 C1095 0.958 . S
H1110 C1095 0.961 . S
H1111 C1095 0.960 . S
C1112 C1113 1.391 . S
C1112 C1114 1.394 . S
C1112 H1128 0.931 . S
C1113 C1112 1.391 . S
C1113 C1117 1.376 . S
C1114 C1112 1.394 . S
C1114 C1115 1.369 . S
C1114 C1118 1.531 . S
C1115 C1114 1.369 . S
C1115 C1116 1.410 . S
C1115 C1123 1.503 . S
C1116 C1115 1.410 . S
C1116 C1117 1.392 . S
C1116 C1119 1.511 . S
C1117 C1113 1.376 . S
C1117 C1116 1.392 . S
C1117 H1129 0.929 . S
C1118 C1114 1.531 . S
C1118 H1130 0.960 . S
C1118 H1131 0.962 . S
C1118 H1132 0.960 . S
C1119 C1116 1.511 . S
C1119 H1133 0.961 . S
C1119 H1134 0.961 . S
C1119 H1135 0.961 . S
C1120 C1121 1.370 . S
C1120 C1122 1.363 . S
C1120 H1136 0.931 . S
C1121 C1120 1.370 . S
C1121 C1125 1.408 . S
C1122 C1120 1.363 . S
C1122 C1123 1.370 . S
C1122 C1126 1.524 . S
C1123 C1115 1.503 . S
C1123 C1122 1.370 . S
C1123 C1124 1.403 . S
C1124 C1123 1.403 . S
C1124 C1125 1.404 . S
C1124 C1127 1.539 . S
C1125 C1121 1.408 . S
C1125 C1124 1.404 . S
C1125 H1137 0.930 . S
C1126 C1122 1.524 . S
C1126 H1138 0.956 . S
C1126 H1139 0.961 . S
C1126 H1140 0.961 . S
C1127 C1124 1.539 . S
C1127 H1141 0.958 . S
C1127 H1142 0.961 . S
C1127 H1143 0.960 . S
H1128 C1112 0.931 . S
H1129 C1117 0.929 . S
H1130 C1118 0.960 . S
H1131 C1118 0.962 . S
H1132 C1118 0.960 . S
H1133 C1119 0.961 . S
H1134 C1119 0.961 . S
H1135 C1119 0.961 . S
H1136 C1120 0.931 . S
H1137 C1125 0.930 . S
H1138 C1126 0.956 . S
H1139 C1126 0.961 . S
H1140 C1126 0.961 . S
H1141 C1127 0.958 . S
H1142 C1127 0.961 . S
H1143 C1127 0.960 . S
C1144 C1145 1.391 . S
C1144 C1146 1.394 . S
C1144 H1160 0.931 . S
C1145 C1144 1.391 . S
C1145 C1149 1.376 . S
C1146 C1144 1.394 . S
C1146 C1147 1.369 . S
C1146 C1150 1.531 . S
C1147 C1146 1.369 . S
C1147 C1148 1.410 . S
C1147 C1155 1.503 . S
C1148 C1147 1.410 . S
C1148 C1149 1.392 . S
C1148 C1151 1.511 . S
C1149 C1145 1.376 . S
C1149 C1148 1.392 . S
C1149 H1161 0.929 . S
C1150 C1146 1.531 . S
C1150 H1162 0.960 . S
C1150 H1163 0.962 . S
C1150 H1164 0.960 . S
C1151 C1148 1.511 . S
C1151 H1165 0.961 . S
C1151 H1166 0.961 . S
C1151 H1167 0.961 . S
C1152 C1153 1.370 . S
C1152 C1154 1.363 . S
C1152 H1168 0.931 . S
C1153 C1152 1.370 . S
C1153 C1157 1.408 . S
C1154 C1152 1.363 . S
C1154 C1155 1.370 . S
C1154 C1158 1.524 . S
C1155 C1147 1.503 . S
C1155 C1154 1.370 . S
C1155 C1156 1.403 . S
C1156 C1155 1.403 . S
C1156 C1157 1.404 . S
C1156 C1159 1.539 . S
C1157 C1153 1.408 . S
C1157 C1156 1.404 . S
C1157 H1169 0.930 . S
C1158 C1154 1.524 . S
C1158 H1170 0.956 . S
C1158 H1171 0.961 . S
C1158 H1172 0.961 . S
C1159 C1156 1.539 . S
C1159 H1173 0.958 . S
C1159 H1174 0.961 . S
C1159 H1175 0.960 . S
H1160 C1144 0.931 . S
H1161 C1149 0.929 . S
H1162 C1150 0.960 . S
H1163 C1150 0.962 . S
H1164 C1150 0.960 . S
H1165 C1151 0.961 . S
H1166 C1151 0.961 . S
H1167 C1151 0.961 . S
H1168 C1152 0.931 . S
H1169 C1157 0.930 . S
H1170 C1158 0.956 . S
H1171 C1158 0.961 . S
H1172 C1158 0.961 . S
H1173 C1159 0.958 . S
H1174 C1159 0.961 . S
H1175 C1159 0.960 . S
C1176 C1177 1.391 . S
C1176 C1178 1.394 . S
C1176 H1192 0.931 . S
C1177 C1176 1.391 . S
C1177 C1181 1.376 . S
C1178 C1176 1.394 . S
C1178 C1179 1.369 . S
C1178 C1182 1.531 . S
C1179 C1178 1.369 . S
C1179 C1180 1.410 . S
C1179 C1187 1.503 . S
C1180 C1179 1.410 . S
C1180 C1181 1.392 . S
C1180 C1183 1.511 . S
C1181 C1177 1.376 . S
C1181 C1180 1.392 . S
C1181 H1193 0.929 . S
C1182 C1178 1.531 . S
C1182 H1194 0.960 . S
C1182 H1195 0.962 . S
C1182 H1196 0.960 . S
C1183 C1180 1.511 . S
C1183 H1197 0.961 . S
C1183 H1198 0.961 . S
C1183 H1199 0.961 . S
C1184 C1185 1.370 . S
C1184 C1186 1.363 . S
C1184 H1200 0.931 . S
C1185 C1184 1.370 . S
C1185 C1189 1.408 . S
C1186 C1184 1.363 . S
C1186 C1187 1.370 . S
C1186 C1190 1.524 . S
C1187 C1179 1.503 . S
C1187 C1186 1.370 . S
C1187 C1188 1.403 . S
C1188 C1187 1.403 . S
C1188 C1189 1.404 . S
C1188 C1191 1.539 . S
C1189 C1185 1.408 . S
C1189 C1188 1.404 . S
C1189 H1201 0.930 1_554 S
C1190 C1186 1.524 . S
C1190 H1202 0.956 . S
C1190 H1203 0.961 . S
C1190 H1204 0.961 . S
C1191 C1188 1.539 . S
C1191 H1205 0.958 . S
C1191 H1206 1.021 . S
C1191 H1207 0.960 . S
H1192 C1176 0.931 . S
H1193 C1181 0.929 . S
H1194 C1182 0.960 . S
H1195 C1182 0.962 . S
H1196 C1182 0.960 . S
H1197 C1183 0.961 . S
H1198 C1183 0.961 . S
H1199 C1183 0.961 . S
H1200 C1184 0.931 . S
H1201 C1189 0.930 1_556 S
H1202 C1190 0.956 . S
H1203 C1190 0.961 . S
H1204 C1190 0.961 . S
H1205 C1191 0.958 . S
H1206 C1191 1.021 . S
H1207 C1191 0.960 . S
C1208 C1209 1.391 . S
C1208 C1210 1.394 . S
C1208 H1224 0.931 . S
C1209 C1208 1.391 . S
C1209 C1213 1.376 . S
C1210 C1208 1.394 . S
C1210 C1211 1.369 . S
C1210 C1214 1.531 . S
C1211 C1210 1.369 . S
C1211 C1212 1.410 . S
C1211 C1219 1.503 . S
C1212 C1211 1.410 . S
C1212 C1213 1.392 . S
C1212 C1215 1.511 . S
C1213 C1209 1.376 . S
C1213 C1212 1.392 . S
C1213 H1225 0.929 . S
C1214 C1210 1.531 . S
C1214 H1226 0.960 . S
C1214 H1227 0.962 . S
C1214 H1228 0.960 . S
C1215 C1212 1.511 . S
C1215 H1229 0.961 . S
C1215 H1230 0.961 . S
C1215 H1231 0.961 . S
C1216 C1217 1.370 . S
C1216 C1218 1.363 . S
C1216 H1232 0.931 . S
C1217 C1216 1.370 . S
C1217 C1221 1.408 . S
C1218 C1216 1.363 . S
C1218 C1219 1.370 . S
C1218 C1222 1.524 . S
C1219 C1211 1.503 . S
C1219 C1218 1.370 . S
C1219 C1220 1.403 . S
C1220 C1219 1.403 . S
C1220 C1221 1.404 . S
C1220 C1223 1.539 . S
C1221 C1217 1.408 . S
C1221 C1220 1.404 . S
C1221 H1233 0.930 . S
C1222 C1218 1.524 . S
C1222 H1234 0.956 . S
C1222 H1235 0.961 . S
C1222 H1236 0.961 . S
C1223 C1220 1.539 . S
C1223 H1237 0.958 . S
C1223 H1238 0.961 . S
C1223 H1239 0.960 . S
H1224 C1208 0.931 . S
H1225 C1213 0.929 . S
H1226 C1214 0.960 . S
H1227 C1214 0.962 . S
H1228 C1214 0.960 . S
H1229 C1215 0.961 . S
H1230 C1215 0.961 . S
H1231 C1215 0.961 . S
H1232 C1216 0.931 . S
H1233 C1221 0.930 . S
H1234 C1222 0.956 . S
H1235 C1222 0.961 . S
H1236 C1222 0.961 . S
H1237 C1223 0.958 . S
H1238 C1223 0.961 . S
H1239 C1223 0.960 . S
C1240 C1241 1.391 . S
C1240 C1242 1.394 . S
C1240 H1256 0.931 . S
C1241 C1240 1.391 . S
C1241 C1245 1.376 . S
C1242 C1240 1.394 . S
C1242 C1243 1.369 . S
C1242 C1246 1.531 . S
C1243 C1242 1.369 . S
C1243 C1244 1.410 . S
C1243 C1251 1.503 . S
C1244 C1243 1.410 . S
C1244 C1245 1.392 . S
C1244 C1247 1.511 . S
C1245 C1241 1.376 . S
C1245 C1244 1.392 . S
C1245 H1257 0.929 . S
C1246 C1242 1.531 . S
C1246 H1258 0.960 . S
C1246 H1259 0.962 . S
C1246 H1260 0.960 . S
C1247 C1244 1.511 . S
C1247 H1261 0.961 . S
C1247 H1262 0.961 . S
C1247 H1263 0.961 . S
C1248 C1249 1.370 . S
C1248 C1250 1.363 . S
C1248 H1264 0.931 1_554 S
C1249 C1248 1.370 . S
C1249 C1253 1.408 . S
C1250 C1248 1.363 . S
C1250 C1251 1.370 . S
C1250 C1254 1.524 . S
C1251 C1243 1.503 . S
C1251 C1250 1.370 . S
C1251 C1252 1.403 . S
C1252 C1251 1.403 . S
C1252 C1253 1.404 . S
C1252 C1255 1.539 . S
C1253 C1249 1.408 . S
C1253 C1252 1.404 . S
C1253 H1265 0.930 . S
C1254 C1250 1.524 . S
C1254 H1266 0.956 . S
C1254 H1267 0.961 . S
C1254 H1268 0.961 . S
C1255 C1252 1.539 . S
C1255 H1269 0.958 . S
C1255 H1270 0.961 . S
C1255 H1271 0.960 . S
H1256 C1240 0.931 . S
H1257 C1245 0.929 . S
H1258 C1246 0.960 . S
H1259 C1246 0.962 . S
H1260 C1246 0.960 . S
H1261 C1247 0.961 . S
H1262 C1247 0.961 . S
H1263 C1247 0.961 . S
H1264 C1248 0.931 1_556 S
H1265 C1253 0.930 . S
H1266 C1254 0.956 . S
H1267 C1254 0.961 . S
H1268 C1254 0.961 . S
H1269 C1255 0.958 . S
H1270 C1255 0.961 . S
H1271 C1255 0.960 . S
C1272 C1273 1.391 . S
C1272 C1274 1.394 . S
C1272 H1288 0.931 . S
C1273 C1272 1.391 . S
C1273 C1277 1.376 . S
C1274 C1272 1.394 . S
C1274 C1275 1.369 . S
C1274 C1278 1.531 . S
C1275 C1274 1.369 . S
C1275 C1276 1.410 . S
C1275 C1283 1.503 . S
C1276 C1275 1.410 . S
C1276 C1277 1.392 . S
C1276 C1279 1.511 . S
C1277 C1273 1.376 . S
C1277 C1276 1.392 . S
C1277 H1289 0.929 . S
C1278 C1274 1.531 . S
C1278 H1290 0.960 . S
C1278 H1291 0.962 . S
C1278 H1292 0.960 . S
C1279 C1276 1.511 . S
C1279 H1293 0.961 . S
C1279 H1294 0.961 . S
C1279 H1295 0.961 . S
C1280 C1281 1.370 . S
C1280 C1282 1.363 . S
C1280 H1296 0.931 . S
C1281 C1280 1.370 . S
C1281 C1285 1.408 . S
C1282 C1280 1.363 . S
C1282 C1283 1.370 . S
C1282 C1286 1.524 . S
C1283 C1275 1.503 . S
C1283 C1282 1.370 . S
C1283 C1284 1.403 . S
C1284 C1283 1.403 . S
C1284 C1285 1.404 . S
C1284 C1287 1.539 . S
C1285 C1281 1.408 . S
C1285 C1284 1.404 . S
C1285 H1297 0.930 . S
C1286 C1282 1.524 . S
C1286 H1298 0.956 . S
C1286 H1299 0.961 . S
C1286 H1300 0.961 . S
C1287 C1284 1.539 . S
C1287 H1301 0.958 . S
C1287 H1302 0.961 . S
C1287 H1303 0.960 . S
H1288 C1272 0.931 . S
H1289 C1277 0.929 . S
H1290 C1278 0.960 . S
H1291 C1278 0.962 . S
H1292 C1278 0.960 . S
H1293 C1279 0.961 . S
H1294 C1279 0.961 . S
H1295 C1279 0.961 . S
H1296 C1280 0.931 . S
H1297 C1285 0.930 . S
H1298 C1286 0.956 . S
H1299 C1286 0.961 . S
H1300 C1286 0.961 . S
H1301 C1287 0.958 . S
H1302 C1287 0.961 . S
H1303 C1287 0.960 . S
C1304 C1305 1.391 . S
C1304 C1306 1.394 . S
C1304 H1320 0.931 . S
C1305 C1304 1.391 . S
C1305 C1309 1.376 . S
C1306 C1304 1.394 . S
C1306 C1307 1.369 . S
C1306 C1310 1.531 . S
C1307 C1306 1.369 . S
C1307 C1308 1.410 . S
C1307 C1315 1.503 . S
C1308 C1307 1.410 . S
C1308 C1309 1.392 . S
C1308 C1311 1.511 . S
C1309 C1305 1.376 . S
C1309 C1308 1.392 . S
C1309 H1321 0.929 . S
C1310 C1306 1.531 . S
C1310 H1322 0.960 . S
C1310 H1323 0.962 . S
C1310 H1324 0.960 . S
C1311 C1308 1.511 . S
C1311 H1325 0.961 . S
C1311 H1326 0.961 . S
C1311 H1327 0.961 . S
C1312 C1313 1.370 . S
C1312 C1314 1.363 . S
C1312 H1328 0.931 . S
C1313 C1312 1.370 . S
C1313 C1317 1.408 . S
C1314 C1312 1.363 . S
C1314 C1315 1.370 . S
C1314 C1318 1.524 . S
C1315 C1307 1.503 . S
C1315 C1314 1.370 . S
C1315 C1316 1.403 . S
C1316 C1315 1.403 . S
C1316 C1317 1.404 . S
C1316 C1319 1.539 . S
C1317 C1313 1.408 . S
C1317 C1316 1.404 . S
C1317 H1329 0.930 . S
C1318 C1314 1.524 . S
C1318 H1330 0.956 . S
C1318 H1331 0.961 . S
C1318 H1332 0.961 . S
C1319 C1316 1.539 . S
C1319 H1333 0.958 . S
C1319 H1334 0.961 . S
C1319 H1335 0.960 . S
H1320 C1304 0.931 . S
H1321 C1309 0.929 . S
H1322 C1310 0.960 . S
H1323 C1310 0.962 . S
H1324 C1310 0.960 . S
H1325 C1311 0.961 . S
H1326 C1311 0.961 . S
H1327 C1311 0.961 . S
H1328 C1312 0.931 . S
H1329 C1317 0.930 . S
H1330 C1318 0.956 . S
H1331 C1318 0.961 . S
H1332 C1318 0.961 . S
H1333 C1319 0.958 . S
H1334 C1319 0.961 . S
H1335 C1319 0.960 . S
C1336 C1337 1.391 . S
C1336 C1338 1.394 . S
C1336 H1352 0.931 . S
C1337 C1336 1.391 . S
C1337 C1341 1.376 . S
C1338 C1336 1.394 . S
C1338 C1339 1.369 . S
C1338 C1342 1.531 . S
C1339 C1338 1.369 . S
C1339 C1340 1.410 . S
C1339 C1347 1.503 . S
C1340 C1339 1.410 . S
C1340 C1341 1.392 . S
C1340 C1343 1.511 . S
C1341 C1337 1.376 . S
C1341 C1340 1.392 . S
C1341 H1353 0.929 . S
C1342 C1338 1.531 . S
C1342 H1354 0.960 . S
C1342 H1355 0.962 . S
C1342 H1356 0.960 . S
C1343 C1340 1.511 . S
C1343 H1357 0.961 . S
C1343 H1358 0.961 . S
C1343 H1359 0.961 . S
C1344 C1345 1.370 . S
C1344 C1346 1.363 . S
C1344 H1360 0.931 . S
C1345 C1344 1.370 . S
C1345 C1349 1.408 . S
C1346 C1344 1.363 . S
C1346 C1347 1.370 . S
C1346 C1350 1.524 . S
C1347 C1339 1.503 . S
C1347 C1346 1.370 . S
C1347 C1348 1.403 . S
C1348 C1347 1.403 . S
C1348 C1349 1.404 . S
C1348 C1351 1.539 . S
C1349 C1345 1.408 . S
C1349 C1348 1.404 . S
C1349 H1361 0.930 . S
C1350 C1346 1.524 . S
C1350 H1362 0.956 . S
C1350 H1363 0.961 . S
C1350 H1364 0.961 . S
C1351 C1348 1.539 . S
C1351 H1365 0.958 . S
C1351 H1366 0.961 . S
C1351 H1367 0.960 . S
H1352 C1336 0.931 . S
H1353 C1341 0.929 . S
H1354 C1342 0.960 . S
H1355 C1342 0.962 . S
H1356 C1342 0.960 . S
H1357 C1343 0.961 . S
H1358 C1343 0.961 . S
H1359 C1343 0.961 . S
H1360 C1344 0.931 . S
H1361 C1349 0.930 . S
H1362 C1350 0.956 . S
H1363 C1350 0.961 . S
H1364 C1350 0.961 . S
H1365 C1351 0.958 . S
H1366 C1351 0.961 . S
H1367 C1351 0.960 . S
C1368 C1369 1.391 . S
C1368 C1370 1.394 . S
C1368 H1384 0.931 . S
C1369 C1368 1.391 . S
C1369 C1373 1.376 . S
C1370 C1368 1.394 . S
C1370 C1371 1.369 . S
C1370 C1374 1.531 . S
C1371 C1370 1.369 . S
C1371 C1372 1.410 . S
C1371 C1379 1.503 . S
C1372 C1371 1.410 . S
C1372 C1373 1.392 . S
C1372 C1375 1.511 . S
C1373 C1369 1.376 . S
C1373 C1372 1.392 . S
C1373 H1385 0.929 . S
C1374 C1370 1.531 . S
C1374 H1386 0.960 . S
C1374 H1387 0.962 . S
C1374 H1388 0.960 . S
C1375 C1372 1.511 . S
C1375 H1389 0.961 . S
C1375 H1390 0.961 . S
C1375 H1391 0.961 . S
C1376 C1377 1.370 . S
C1376 C1378 1.363 . S
C1376 H1392 0.975 . S
C1377 C1376 1.370 . S
C1377 C1381 1.408 . S
C1378 C1376 1.363 . S
C1378 C1379 1.370 . S
C1378 C1382 1.524 . S
C1379 C1371 1.503 . S
C1379 C1378 1.370 . S
C1379 C1380 1.403 . S
C1380 C1379 1.403 . S
C1380 C1381 1.404 . S
C1380 C1383 1.539 . S
C1381 C1377 1.408 . S
C1381 C1380 1.404 . S
C1381 H1393 0.930 . S
C1382 C1378 1.524 . S
C1382 H1394 0.956 . S
C1382 H1395 0.961 . S
C1382 H1396 0.961 . S
C1383 C1380 1.539 . S
C1383 H1397 0.958 . S
C1383 H1398 0.961 . S
C1383 H1399 0.960 . S
H1384 C1368 0.931 . S
H1385 C1373 0.929 . S
H1386 C1374 0.960 . S
H1387 C1374 0.962 . S
H1388 C1374 0.960 . S
H1389 C1375 0.961 . S
H1390 C1375 0.961 . S
H1391 C1375 0.961 . S
H1392 C1376 0.975 . S
H1393 C1381 0.930 . S
H1394 C1382 0.956 . S
H1395 C1382 0.961 . S
H1396 C1382 0.961 . S
H1397 C1383 0.958 . S
H1398 C1383 0.961 . S
H1399 C1383 0.960 . S
C1400 C1401 1.391 . S
C1400 C1402 1.394 . S
C1400 H1416 0.931 . S
C1401 C1400 1.391 . S
C1401 C1405 1.376 . S
C1402 C1400 1.394 . S
C1402 C1403 1.369 . S
C1402 C1406 1.531 . S
C1403 C1402 1.369 . S
C1403 C1404 1.410 . S
C1403 C1411 1.503 . S
C1404 C1403 1.410 . S
C1404 C1405 1.392 . S
C1404 C1407 1.511 . S
C1405 C1401 1.376 . S
C1405 C1404 1.392 . S
C1405 H1417 0.929 . S
C1406 C1402 1.531 . S
C1406 H1418 0.960 . S
C1406 H1419 0.962 . S
C1406 H1420 0.960 . S
C1407 C1404 1.511 . S
C1407 H1421 0.961 . S
C1407 H1422 0.961 . S
C1407 H1423 0.961 . S
C1408 C1409 1.370 . S
C1408 C1410 1.363 . S
C1408 H1424 0.931 . S
C1409 C1408 1.370 . S
C1409 C1413 1.408 . S
C1410 C1408 1.363 . S
C1410 C1411 1.370 . S
C1410 C1414 1.524 . S
C1411 C1403 1.503 . S
C1411 C1410 1.370 . S
C1411 C1412 1.403 . S
C1412 C1411 1.403 . S
C1412 C1413 1.404 . S
C1412 C1415 1.539 . S
C1413 C1409 1.408 . S
C1413 C1412 1.404 . S
C1413 H1425 0.930 1_556 S
C1414 C1410 1.524 . S
C1414 H1426 0.956 . S
C1414 H1427 0.961 . S
C1414 H1428 0.961 . S
C1415 C1412 1.539 . S
C1415 H1429 0.958 . S
C1415 H1430 0.961 . S
C1415 H1431 0.960 . S
H1416 C1400 0.931 . S
H1417 C1405 0.929 . S
H1418 C1406 0.960 . S
H1419 C1406 0.962 . S
H1420 C1406 0.960 . S
H1421 C1407 0.961 . S
H1422 C1407 0.961 . S
H1423 C1407 0.961 . S
H1424 C1408 0.931 . S
H1425 C1413 0.930 1_554 S
H1426 C1414 0.956 . S
H1427 C1414 0.961 . S
H1428 C1414 0.961 . S
H1429 C1415 0.958 . S
H1430 C1415 0.961 . S
H1431 C1415 0.960 . S
C1432 C1433 1.391 . S
C1432 C1434 1.394 . S
C1432 H1448 0.931 . S
C1433 C1432 1.391 . S
C1433 C1437 1.376 . S
C1434 C1432 1.394 . S
C1434 C1435 1.369 . S
C1434 C1438 1.531 . S
C1435 C1434 1.369 . S
C1435 C1436 1.410 . S
C1435 C1443 1.503 . S
C1436 C1435 1.410 . S
C1436 C1437 1.392 . S
C1436 C1439 1.511 . S
C1437 C1433 1.376 . S
C1437 C1436 1.392 . S
C1437 H1449 0.929 . S
C1438 C1434 1.531 . S
C1438 H1450 0.960 . S
C1438 H1451 0.962 . S
C1438 H1452 0.960 . S
C1439 C1436 1.511 . S
C1439 H1453 0.961 . S
C1439 H1454 0.961 . S
C1439 H1455 0.961 . S
C1440 C1441 1.370 . S
C1440 C1442 1.363 . S
C1440 H1456 0.931 . S
C1441 C1440 1.370 . S
C1441 C1445 1.408 . S
C1442 C1440 1.363 . S
C1442 C1443 1.370 . S
C1442 C1446 1.524 . S
C1443 C1435 1.503 . S
C1443 C1442 1.370 . S
C1443 C1444 1.403 . S
C1444 C1443 1.403 . S
C1444 C1445 1.404 . S
C1444 C1447 1.539 . S
C1445 C1441 1.408 . S
C1445 C1444 1.404 . S
C1445 H1457 0.930 . S
C1446 C1442 1.524 . S
C1446 H1458 0.956 . S
C1446 H1459 0.961 . S
C1446 H1460 0.961 . S
C1447 C1444 1.539 . S
C1447 H1461 0.958 . S
C1447 H1462 0.961 . S
C1447 H1463 0.960 . S
H1448 C1432 0.931 . S
H1449 C1437 0.929 . S
H1450 C1438 0.960 . S
H1451 C1438 0.962 . S
H1452 C1438 0.960 . S
H1453 C1439 0.961 . S
H1454 C1439 0.961 . S
H1455 C1439 0.961 . S
H1456 C1440 0.931 . S
H1457 C1445 0.930 . S
H1458 C1446 0.956 . S
H1459 C1446 0.961 . S
H1460 C1446 0.961 . S
H1461 C1447 0.958 . S
H1462 C1447 0.961 . S
H1463 C1447 0.960 . S
C1464 C1465 1.391 . S
C1464 C1466 1.394 . S
C1464 H1480 0.931 . S
C1465 C1464 1.391 . S
C1465 C1469 1.376 . S
C1466 C1464 1.394 . S
C1466 C1467 1.369 . S
C1466 C1470 1.531 . S
C1467 C1466 1.369 . S
C1467 C1468 1.410 . S
C1467 C1475 1.503 . S
C1468 C1467 1.410 . S
C1468 C1469 1.392 . S
C1468 C1471 1.511 . S
C1469 C1465 1.376 . S
C1469 C1468 1.392 . S
C1469 H1481 0.929 . S
C1470 C1466 1.531 . S
C1470 H1482 0.960 . S
C1470 H1483 0.962 . S
C1470 H1484 0.960 . S
C1471 C1468 1.511 . S
C1471 H1485 0.961 . S
C1471 H1486 0.961 . S
C1471 H1487 0.961 . S
C1472 C1473 1.370 . S
C1472 C1474 1.363 . S
C1472 H1488 0.931 . S
C1473 C1472 1.370 . S
C1473 C1477 1.408 . S
C1474 C1472 1.363 . S
C1474 C1475 1.370 . S
C1474 C1478 1.524 . S
C1475 C1467 1.503 . S
C1475 C1474 1.370 . S
C1475 C1476 1.403 . S
C1476 C1475 1.403 . S
C1476 C1477 1.404 . S
C1476 C1479 1.539 . S
C1477 C1473 1.408 . S
C1477 C1476 1.404 . S
C1477 H1489 0.930 . S
C1478 C1474 1.524 . S
C1478 H1490 0.956 . S
C1478 H1491 0.961 . S
C1478 H1492 0.961 . S
C1479 C1476 1.539 . S
C1479 H1493 0.958 . S
C1479 H1494 0.961 . S
C1479 H1495 0.960 . S
H1480 C1464 0.931 . S
H1481 C1469 0.929 . S
H1482 C1470 0.960 . S
H1483 C1470 0.962 . S
H1484 C1470 0.960 . S
H1485 C1471 0.961 . S
H1486 C1471 0.961 . S
H1487 C1471 0.961 . S
H1488 C1472 0.931 . S
H1489 C1477 0.930 . S
H1490 C1478 0.956 . S
H1491 C1478 0.961 . S
H1492 C1478 0.961 . S
H1493 C1479 0.958 . S
H1494 C1479 0.961 . S
H1495 C1479 0.960 . S
C1496 C1497 1.391 . S
C1496 C1498 1.394 . S
C1496 H1512 0.931 . S
C1497 C1496 1.391 . S
C1497 C1501 1.376 . S
C1498 C1496 1.394 . S
C1498 C1499 1.369 . S
C1498 C1502 1.531 . S
C1499 C1498 1.369 . S
C1499 C1500 1.410 . S
C1499 C1507 1.503 . S
C1500 C1499 1.410 . S
C1500 C1501 1.392 . S
C1500 C1503 1.511 . S
C1501 C1497 1.376 . S
C1501 C1500 1.392 . S
C1501 H1513 0.929 . S
C1502 C1498 1.531 . S
C1502 H1514 0.960 . S
C1502 H1515 0.962 . S
C1502 H1516 0.960 . S
C1503 C1500 1.511 . S
C1503 H1517 0.961 . S
C1503 H1518 0.961 . S
C1503 H1519 0.961 . S
C1504 C1505 1.370 . S
C1504 C1506 1.363 . S
C1504 H1520 0.931 . S
C1505 C1504 1.370 . S
C1505 C1509 1.408 . S
C1506 C1504 1.363 . S
C1506 C1507 1.370 . S
C1506 C1510 1.524 . S
C1507 C1499 1.503 . S
C1507 C1506 1.370 . S
C1507 C1508 1.403 . S
C1508 C1507 1.403 . S
C1508 C1509 1.404 . S
C1508 C1511 1.539 . S
C1509 C1505 1.408 . S
C1509 C1508 1.404 . S
C1509 H1521 0.930 . S
C1510 C1506 1.524 . S
C1510 H1522 0.956 . S
C1510 H1523 0.961 . S
C1510 H1524 0.961 . S
C1511 C1508 1.539 . S
C1511 H1525 0.958 . S
C1511 H1526 0.961 . S
C1511 H1527 0.960 . S
H1512 C1496 0.931 . S
H1513 C1501 0.929 . S
H1514 C1502 0.960 . S
H1515 C1502 0.962 . S
H1516 C1502 0.960 . S
H1517 C1503 0.961 . S
H1518 C1503 0.961 . S
H1519 C1503 0.961 . S
H1520 C1504 0.931 . S
H1521 C1509 0.930 . S
H1522 C1510 0.956 . S
H1523 C1510 0.961 . S
H1524 C1510 0.961 . S
H1525 C1511 0.958 . S
H1526 C1511 0.961 . S
H1527 C1511 0.960 . S
C1528 C1529 1.391 . S
C1528 C1530 1.394 . S
C1528 H1544 0.931 . S
C1529 C1528 1.391 . S
C1529 C1533 1.376 . S
C1530 C1528 1.394 . S
C1530 C1531 1.369 . S
C1530 C1534 1.531 . S
C1531 C1530 1.369 . S
C1531 C1532 1.410 . S
C1531 C1539 1.503 . S
C1532 C1531 1.410 . S
C1532 C1533 1.392 . S
C1532 C1535 1.511 . S
C1533 C1529 1.376 . S
C1533 C1532 1.392 . S
C1533 H1545 0.929 . S
C1534 C1530 1.531 . S
C1534 H1546 0.960 . S
C1534 H1547 0.962 . S
C1534 H1548 0.960 . S
C1535 C1532 1.511 . S
C1535 H1549 0.961 . S
C1535 H1550 0.961 . S
C1535 H1551 0.961 . S
C1536 C1537 1.370 . S
C1536 C1538 1.363 . S
C1536 H1552 0.931 . S
C1537 C1536 1.370 . S
C1537 C1541 1.408 . S
C1538 C1536 1.363 . S
C1538 C1539 1.370 . S
C1538 C1542 1.524 . S
C1539 C1531 1.503 . S
C1539 C1538 1.370 . S
C1539 C1540 1.403 . S
C1540 C1539 1.403 . S
C1540 C1541 1.404 . S
C1540 C1543 1.539 . S
C1541 C1537 1.408 . S
C1541 C1540 1.404 . S
C1541 H1553 0.930 . S
C1542 C1538 1.524 . S
C1542 H1554 0.956 . S
C1542 H1555 0.961 . S
C1542 H1556 0.961 . S
C1543 C1540 1.539 . S
C1543 H1557 0.958 . S
C1543 H1558 0.961 . S
C1543 H1559 0.960 . S
H1544 C1528 0.931 . S
H1545 C1533 0.929 . S
H1546 C1534 0.960 . S
H1547 C1534 0.962 . S
H1548 C1534 0.960 . S
H1549 C1535 0.961 . S
H1550 C1535 0.961 . S
H1551 C1535 0.961 . S
H1552 C1536 0.931 . S
H1553 C1541 0.930 . S
H1554 C1542 0.956 . S
H1555 C1542 0.961 . S
H1556 C1542 0.961 . S
H1557 C1543 0.958 . S
H1558 C1543 0.961 . S
H1559 C1543 0.960 . S
C1560 C1561 1.391 . S
C1560 C1562 1.394 . S
C1560 H1576 0.931 . S
C1561 C1560 1.391 . S
C1561 C1565 1.376 . S
C1562 C1560 1.394 . S
C1562 C1563 1.369 . S
C1562 C1566 1.531 . S
C1563 C1562 1.369 . S
C1563 C1564 1.410 . S
C1563 C1571 1.503 . S
C1564 C1563 1.410 . S
C1564 C1565 1.392 . S
C1564 C1567 1.511 . S
C1565 C1561 1.376 . S
C1565 C1564 1.392 . S
C1565 H1577 0.929 . S
C1566 C1562 1.531 . S
C1566 H1578 0.960 . S
C1566 H1579 0.962 . S
C1566 H1580 0.960 . S
C1567 C1564 1.511 . S
C1567 H1581 0.961 . S
C1567 H1582 0.961 . S
C1567 H1583 0.961 . S
C1568 C1569 1.370 . S
C1568 C1570 1.363 . S
C1568 H1584 0.931 . S
C1569 C1568 1.370 . S
C1569 C1573 1.408 . S
C1570 C1568 1.363 . S
C1570 C1571 1.370 . S
C1570 C1574 1.524 . S
C1571 C1563 1.503 . S
C1571 C1570 1.370 . S
C1571 C1572 1.403 . S
C1572 C1571 1.403 . S
C1572 C1573 1.404 . S
C1572 C1575 1.539 . S
C1573 C1569 1.408 . S
C1573 C1572 1.404 . S
C1573 H1585 0.930 . S
C1574 C1570 1.524 . S
C1574 H1586 0.956 . S
C1574 H1587 0.961 . S
C1574 H1588 0.961 . S
C1575 C1572 1.539 . S
C1575 H1589 0.958 . S
C1575 H1590 0.961 . S
C1575 H1591 0.960 . S
H1576 C1560 0.931 . S
H1577 C1565 0.929 . S
H1578 C1566 0.960 . S
H1579 C1566 0.962 . S
H1580 C1566 0.960 . S
H1581 C1567 0.961 . S
H1582 C1567 0.961 . S
H1583 C1567 0.961 . S
H1584 C1568 0.931 . S
H1585 C1573 0.930 . S
H1586 C1574 0.956 . S
H1587 C1574 0.961 . S
H1588 C1574 0.961 . S
H1589 C1575 0.958 . S
H1590 C1575 0.961 . S
H1591 C1575 0.960 . S
C1592 C1593 1.391 . S
C1592 C1594 1.394 . S
C1592 H1608 0.931 . S
C1593 C1592 1.391 . S
C1593 C1597 1.376 . S
C1594 C1592 1.394 . S
C1594 C1595 1.369 . S
C1594 C1598 1.531 . S
C1595 C1594 1.369 . S
C1595 C1596 1.410 . S
C1595 C1603 1.503 . S
C1596 C1595 1.410 . S
C1596 C1597 1.392 . S
C1596 C1599 1.511 . S
C1597 C1593 1.376 . S
C1597 C1596 1.392 . S
C1597 H1609 0.929 . S
C1598 C1594 1.531 . S
C1598 H1610 0.960 . S
C1598 H1611 0.962 . S
C1598 H1612 0.960 . S
C1599 C1596 1.511 . S
C1599 H1613 0.961 . S
C1599 H1614 0.961 . S
C1599 H1615 0.961 . S
C1600 C1601 1.370 . S
C1600 C1602 1.363 . S
C1600 H1616 0.931 . S
C1601 C1600 1.370 . S
C1601 C1605 1.408 . S
C1602 C1600 1.363 . S
C1602 C1603 1.370 . S
C1602 C1606 1.524 . S
C1603 C1595 1.503 . S
C1603 C1602 1.370 . S
C1603 C1604 1.403 . S
C1604 C1603 1.403 . S
C1604 C1605 1.404 . S
C1604 C1607 1.539 . S
C1605 C1601 1.408 . S
C1605 C1604 1.404 . S
C1605 H1617 0.930 . S
C1606 C1602 1.524 . S
C1606 H1618 0.956 . S
C1606 H1619 0.961 . S
C1606 H1620 0.961 . S
C1607 C1604 1.539 . S
C1607 H1621 0.958 . S
C1607 H1622 0.961 . S
C1607 H1623 0.960 . S
H1608 C1592 0.931 . S
H1609 C1597 0.929 . S
H1610 C1598 0.960 . S
H1611 C1598 0.962 . S
H1612 C1598 0.960 . S
H1613 C1599 0.961 . S
H1614 C1599 0.961 . S
H1615 C1599 0.961 . S
H1616 C1600 0.931 . S
H1617 C1605 0.930 . S
H1618 C1606 0.956 . S
H1619 C1606 0.961 . S
H1620 C1606 0.961 . S
H1621 C1607 0.958 . S
H1622 C1607 0.961 . S
H1623 C1607 0.960 . S
C1624 C1625 1.391 . S
C1624 C1626 1.394 . S
C1624 H1640 0.931 . S
C1625 C1624 1.391 . S
C1625 C1629 1.376 . S
C1626 C1624 1.394 . S
C1626 C1627 1.369 . S
C1626 C1630 1.531 . S
C1627 C1626 1.369 . S
C1627 C1628 1.410 . S
C1627 C1635 1.503 . S
C1628 C1627 1.410 . S
C1628 C1629 1.392 . S
C1628 C1631 1.511 . S
C1629 C1625 1.376 . S
C1629 C1628 1.392 . S
C1629 H1641 0.929 . S
C1630 C1626 1.531 . S
C1630 H1642 0.960 . S
C1630 H1643 0.962 . S
C1630 H1644 0.960 . S
C1631 C1628 1.511 . S
C1631 H1645 0.961 . S
C1631 H1646 0.961 . S
C1631 H1647 0.961 . S
C1632 C1633 1.370 . S
C1632 C1634 1.363 . S
C1632 H1648 0.931 . S
C1633 C1632 1.370 . S
C1633 C1637 1.408 . S
C1634 C1632 1.363 . S
C1634 C1635 1.370 . S
C1634 C1638 1.524 . S
C1635 C1627 1.503 . S
C1635 C1634 1.370 . S
C1635 C1636 1.403 . S
C1636 C1635 1.403 . S
C1636 C1637 1.404 . S
C1636 C1639 1.539 . S
C1637 C1633 1.408 . S
C1637 C1636 1.404 . S
C1637 H1649 0.930 . S
C1638 C1634 1.524 . S
C1638 H1650 0.956 . S
C1638 H1651 0.961 . S
C1638 H1652 0.961 . S
C1639 C1636 1.539 . S
C1639 H1653 0.958 . S
C1639 H1654 0.961 . S
C1639 H1655 0.960 . S
H1640 C1624 0.931 . S
H1641 C1629 0.929 . S
H1642 C1630 0.960 . S
H1643 C1630 0.962 . S
H1644 C1630 0.960 . S
H1645 C1631 0.961 . S
H1646 C1631 0.961 . S
H1647 C1631 0.961 . S
H1648 C1632 0.931 . S
H1649 C1637 0.930 . S
H1650 C1638 0.956 . S
H1651 C1638 0.961 . S
H1652 C1638 0.961 . S
H1653 C1639 0.958 . S
H1654 C1639 0.961 . S
H1655 C1639 0.960 . S
C1656 C1657 1.391 . S
C1656 C1658 1.394 . S
C1656 H1672 0.931 1_545 S
C1657 C1656 1.391 . S
C1657 C1661 1.376 . S
C1658 C1656 1.394 . S
C1658 C1659 1.369 . S
C1658 C1662 1.531 1_545 S
C1659 C1658 1.369 . S
C1659 C1660 1.410 . S
C1659 C1667 1.503 . S
C1660 C1659 1.410 . S
C1660 C1661 1.392 . S
C1660 C1663 1.511 . S
C1661 C1657 1.376 . S
C1661 C1660 1.392 . S
C1661 H1673 0.929 . S
C1662 C1658 1.531 1_565 S
C1662 H1674 0.960 . S
C1662 H1675 0.962 . S
C1662 H1676 0.960 . S
C1663 C1660 1.511 . S
C1663 H1677 0.961 . S
C1663 H1678 0.961 . S
C1663 H1679 0.961 . S
C1664 C1665 1.370 . S
C1664 C1666 1.363 . S
C1664 H1680 0.931 . S
C1665 C1664 1.370 . S
C1665 C1669 1.408 . S
C1666 C1664 1.363 . S
C1666 C1667 1.370 . S
C1666 C1670 1.524 . S
C1667 C1659 1.503 . S
C1667 C1666 1.370 . S
C1667 C1668 1.403 . S
C1668 C1667 1.403 . S
C1668 C1669 1.404 . S
C1668 C1671 1.539 1_545 S
C1669 C1665 1.408 . S
C1669 C1668 1.404 . S
C1669 H1681 0.930 . S
C1670 C1666 1.524 . S
C1670 H1682 0.956 . S
C1670 H1683 0.961 . S
C1670 H1684 0.961 . S
C1671 C1668 1.539 1_565 S
C1671 H1685 0.958 . S
C1671 H1686 0.961 . S
C1671 H1687 0.960 1_565 S
H1672 C1656 0.931 1_565 S
H1673 C1661 0.929 . S
H1674 C1662 0.960 . S
H1675 C1662 0.962 . S
H1676 C1662 0.960 . S
H1677 C1663 0.961 . S
H1678 C1663 0.961 . S
H1679 C1663 0.961 . S
H1680 C1664 0.931 . S
H1681 C1669 0.930 . S
H1682 C1670 0.956 . S
H1683 C1670 0.961 . S
H1684 C1670 0.961 . S
H1685 C1671 0.958 . S
H1686 C1671 0.961 . S
H1687 C1671 0.960 1_545 S
C1688 C1689 1.391 1_455 S
C1688 C1690 1.394 . S
C1688 H1704 0.931 . S
C1689 C1688 1.391 1_655 S
C1689 C1693 1.376 . S
C1690 C1688 1.394 . S
C1690 C1691 1.369 1_455 S
C1690 C1694 1.531 . S
C1691 C1690 1.369 1_655 S
C1691 C1692 1.410 . S
C1691 C1699 1.503 . S
C1692 C1691 1.410 . S
C1692 C1693 1.392 . S
C1692 C1695 1.511 . S
C1693 C1689 1.376 . S
C1693 C1692 1.392 . S
C1693 H1705 0.929 . S
C1694 C1690 1.531 . S
C1694 H1706 0.960 . S
C1694 H1707 0.962 . S
C1694 H1708 0.960 . S
C1695 C1692 1.511 . S
C1695 H1709 0.961 . S
C1695 H1710 0.961 . S
C1695 H1711 0.961 . S
C1696 C1697 1.370 1_455 S
C1696 C1698 1.356 1_455 S
C1696 H1712 0.931 . S
C1697 C1696 1.370 1_655 S
C1697 C1701 1.408 . S
C1698 C1696 1.356 1_655 S
C1698 C1699 1.380 . S
C1698 C1702 1.522 1_655 S
C1699 C1691 1.503 . S
C1699 C1698 1.380 . S
C1699 C1700 1.403 . S
C1700 C1699 1.403 . S
C1700 C1701 1.404 . S
C1700 C1703 1.539 . S
C1701 C1697 1.408 . S
C1701 C1700 1.404 . S
C1701 H1713 0.930 . S
C1702 C1698 1.522 1_455 S
C1702 H1714 0.956 . S
C1702 H1715 0.961 1_455 S
C1702 H1716 0.961 . S
C1703 C1700 1.539 . S
C1703 H1717 0.958 . S
C1703 H1718 0.961 . S
C1703 H1719 0.960 . S
H1704 C1688 0.931 . S
H1705 C1693 0.929 . S
H1706 C1694 0.960 . S
H1707 C1694 0.962 . S
H1708 C1694 0.960 . S
H1709 C1695 0.961 . S
H1710 C1695 0.961 . S
H1711 C1695 0.961 . S
H1712 C1696 0.931 . S
H1713 C1701 0.930 . S
H1714 C1702 0.956 . S
H1715 C1702 0.961 1_655 S
H1716 C1702 0.961 . S
H1717 C1703 0.958 . S
H1718 C1703 0.961 . S
H1719 C1703 0.960 . S
C1720 C1721 1.391 . S
C1720 C1722 1.394 . S
C1720 H1736 0.931 . S
C1721 C1720 1.391 . S
C1721 C1725 1.376 . S
C1722 C1720 1.394 . S
C1722 C1723 1.369 . S
C1722 C1726 1.531 . S
C1723 C1722 1.369 . S
C1723 C1724 1.410 . S
C1723 C1731 1.503 . S
C1724 C1723 1.410 . S
C1724 C1725 1.392 . S
C1724 C1727 1.511 . S
C1725 C1721 1.376 . S
C1725 C1724 1.392 . S
C1725 H1737 0.929 . S
C1726 C1722 1.531 . S
C1726 H1738 0.960 . S
C1726 H1739 0.962 . S
C1726 H1740 0.960 . S
C1727 C1724 1.511 . S
C1727 H1741 0.961 . S
C1727 H1742 0.961 . S
C1727 H1743 0.961 . S
C1728 C1729 1.370 . S
C1728 C1730 1.363 . S
C1728 H1744 0.931 . S
C1729 C1728 1.370 . S
C1729 C1733 1.408 . S
C1730 C1728 1.363 . S
C1730 C1731 1.370 . S
C1730 C1734 1.524 . S
C1731 C1723 1.503 . S
C1731 C1730 1.370 . S
C1731 C1732 1.403 . S
C1732 C1731 1.403 . S
C1732 C1733 1.404 . S
C1732 C1735 1.539 . S
C1733 C1729 1.408 . S
C1733 C1732 1.404 . S
C1733 H1745 0.930 . S
C1734 C1730 1.524 . S
C1734 H1746 0.956 . S
C1734 H1747 0.961 . S
C1734 H1748 0.961 . S
C1735 C1732 1.539 . S
C1735 H1749 0.958 . S
C1735 H1750 0.961 . S
C1735 H1751 0.960 . S
H1736 C1720 0.931 . S
H1737 C1725 0.929 . S
H1738 C1726 0.960 . S
H1739 C1726 0.962 . S
H1740 C1726 0.960 . S
H1741 C1727 0.961 . S
H1742 C1727 0.961 . S
H1743 C1727 0.961 . S
H1744 C1728 0.931 . S
H1745 C1733 0.930 . S
H1746 C1734 0.956 . S
H1747 C1734 0.961 . S
H1748 C1734 0.961 . S
H1749 C1735 0.958 . S
H1750 C1735 0.961 . S
H1751 C1735 0.960 . S
C1752 C1753 1.391 . S
C1752 C1754 1.394 . S
C1752 H1768 0.931 . S
C1753 C1752 1.391 . S
C1753 C1757 1.376 . S
C1754 C1752 1.394 . S
C1754 C1755 1.369 . S
C1754 C1758 1.531 . S
C1755 C1754 1.369 . S
C1755 C1756 1.410 . S
C1755 C1763 1.503 . S
C1756 C1755 1.410 . S
C1756 C1757 1.392 . S
C1756 C1759 1.511 . S
C1757 C1753 1.376 . S
C1757 C1756 1.392 . S
C1757 H1769 0.929 . S
C1758 C1754 1.531 . S
C1758 H1770 0.960 . S
C1758 H1771 0.979 . S
C1758 H1772 0.960 . S
C1759 C1756 1.511 . S
C1759 H1773 0.961 . S
C1759 H1774 0.961 . S
C1759 H1775 0.961 . S
C1760 C1761 1.370 . S
C1760 C1762 1.363 . S
C1760 H1776 0.931 1_455 S
C1761 C1760 1.370 . S
C1761 C1765 1.408 . S
C1762 C1760 1.363 . S
C1762 C1763 1.370 . S
C1762 C1766 1.524 1_455 S
C1763 C1755 1.503 . S
C1763 C1762 1.370 . S
C1763 C1764 1.403 . S
C1764 C1763 1.403 . S
C1764 C1765 1.404 . S
C1764 C1767 1.539 . S
C1765 C1761 1.408 . S
C1765 C1764 1.404 . S
C1765 H1777 0.930 . S
C1766 C1762 1.524 1_655 S
C1766 H1778 0.956 . S
C1766 H1779 0.961 . S
C1766 H1780 0.961 . S
C1767 C1764 1.539 . S
C1767 H1781 0.958 . S
C1767 H1782 0.961 . S
C1767 H1783 0.960 . S
H1768 C1752 0.931 . S
H1769 C1757 0.929 . S
H1770 C1758 0.960 . S
H1771 C1758 0.979 . S
H1772 C1758 0.960 . S
H1773 C1759 0.961 . S
H1774 C1759 0.961 . S
H1775 C1759 0.961 . S
H1776 C1760 0.931 1_655 S
H1777 C1765 0.930 . S
H1778 C1766 0.956 . S
H1779 C1766 0.961 . S
H1780 C1766 0.961 . S
H1781 C1767 0.958 . S
H1782 C1767 0.961 . S
H1783 C1767 0.960 . S
C1784 C1785 1.391 . S
C1784 C1786 1.394 . S
C1784 H1800 0.931 . S
C1785 C1784 1.391 . S
C1785 C1789 1.376 . S
C1786 C1784 1.394 . S
C1786 C1787 1.369 . S
C1786 C1790 1.531 . S
C1787 C1786 1.369 . S
C1787 C1788 1.410 . S
C1787 C1795 1.503 . S
C1788 C1787 1.410 . S
C1788 C1789 1.392 . S
C1788 C1791 1.511 . S
C1789 C1785 1.376 . S
C1789 C1788 1.392 . S
C1789 H1801 0.929 . S
C1790 C1786 1.531 . S
C1790 H1802 0.960 . S
C1790 H1803 0.962 . S
C1790 H1804 0.960 . S
C1791 C1788 1.511 . S
C1791 H1805 0.961 . S
C1791 H1806 0.961 . S
C1791 H1807 0.961 . S
C1792 C1793 1.370 . S
C1792 C1794 1.363 . S
C1792 H1808 0.931 . S
C1793 C1792 1.370 . S
C1793 C1797 1.408 . S
C1794 C1792 1.363 . S
C1794 C1795 1.370 . S
C1794 C1798 1.524 . S
C1795 C1787 1.503 . S
C1795 C1794 1.370 . S
C1795 C1796 1.403 . S
C1796 C1795 1.403 . S
C1796 C1797 1.404 . S
C1796 C1799 1.539 . S
C1797 C1793 1.408 . S
C1797 C1796 1.404 . S
C1797 H1809 0.930 . S
C1798 C1794 1.524 . S
C1798 H1810 0.956 . S
C1798 H1811 0.961 . S
C1798 H1812 0.961 . S
C1799 C1796 1.539 . S
C1799 H1813 0.958 . S
C1799 H1814 0.961 . S
C1799 H1815 0.960 . S
H1800 C1784 0.931 . S
H1801 C1789 0.929 . S
H1802 C1790 0.960 . S
H1803 C1790 0.962 . S
H1804 C1790 0.960 . S
H1805 C1791 0.961 . S
H1806 C1791 0.961 . S
H1807 C1791 0.961 . S
H1808 C1792 0.931 . S
H1809 C1797 0.930 . S
H1810 C1798 0.956 . S
H1811 C1798 0.961 . S
H1812 C1798 0.961 . S
H1813 C1799 0.958 . S
H1814 C1799 0.961 . S
H1815 C1799 0.960 . S
C1816 C1817 1.391 1_545 S
C1816 C1818 1.394 . S
C1816 H1832 0.931 . S
C1817 C1816 1.391 1_565 S
C1817 C1821 1.376 . S
C1818 C1816 1.394 . S
C1818 C1819 1.369 1_545 S
C1818 C1822 1.531 . S
C1819 C1818 1.369 1_565 S
C1819 C1820 1.410 . S
C1819 C1827 1.503 . S
C1820 C1819 1.410 . S
C1820 C1821 1.392 . S
C1820 C1823 1.511 . S
C1821 C1817 1.376 . S
C1821 C1820 1.392 . S
C1821 H1833 0.929 . S
C1822 C1818 1.531 . S
C1822 H1834 0.960 . S
C1822 H1835 0.962 . S
C1822 H1836 0.960 . S
C1823 C1820 1.511 . S
C1823 H1837 0.961 . S
C1823 H1838 0.961 . S
C1823 H1839 0.961 . S
C1824 C1825 1.370 . S
C1824 C1826 1.363 . S
C1824 H1840 0.931 . S
C1825 C1824 1.370 . S
C1825 C1829 1.408 1_565 S
C1826 C1824 1.363 . S
C1826 C1827 1.370 . S
C1826 C1830 1.524 . S
C1827 C1819 1.503 . S
C1827 C1826 1.370 . S
C1827 C1828 1.403 1_565 S
C1828 C1827 1.403 1_545 S
C1828 C1829 1.404 . S
C1828 C1831 1.539 . S
C1829 C1825 1.408 1_545 S
C1829 C1828 1.404 . S
C1829 H1841 0.930 . S
C1830 C1826 1.524 . S
C1830 H1842 0.956 . S
C1830 H1843 0.961 . S
C1830 H1844 0.961 . S
C1831 C1828 1.539 . S
C1831 H1845 0.958 . S
C1831 H1846 0.961 . S
C1831 H1847 0.960 . S
H1832 C1816 0.931 . S
H1833 C1821 0.929 . S
H1834 C1822 0.960 . S
H1835 C1822 0.962 . S
H1836 C1822 0.960 . S
H1837 C1823 0.961 . S
H1838 C1823 0.961 . S
H1839 C1823 0.961 . S
H1840 C1824 0.931 . S
H1841 C1829 0.930 . S
H1842 C1830 0.956 . S
H1843 C1830 0.961 . S
H1844 C1830 0.961 . S
H1845 C1831 0.958 . S
H1846 C1831 0.961 . S
H1847 C1831 0.960 . S
C1848 C1849 1.391 . S
C1848 C1850 1.394 . S
C1848 H1864 0.931 . S
C1849 C1848 1.391 . S
C1849 C1853 1.376 . S
C1850 C1848 1.394 . S
C1850 C1851 1.369 . S
C1850 C1854 1.531 . S
C1851 C1850 1.369 . S
C1851 C1852 1.410 . S
C1851 C1859 1.503 . S
C1852 C1851 1.410 . S
C1852 C1853 1.392 . S
C1852 C1855 1.511 . S
C1853 C1849 1.376 . S
C1853 C1852 1.392 . S
C1853 H1865 0.929 . S
C1854 C1850 1.531 . S
C1854 H1866 0.960 . S
C1854 H1867 0.962 1_565 S
C1854 H1868 0.960 . S
C1855 C1852 1.511 . S
C1855 H1869 0.961 1_565 S
C1855 H1870 0.961 1_565 S
C1855 H1871 0.961 . S
C1856 C1857 1.370 1_545 S
C1856 C1858 1.363 . S
C1856 H1872 0.931 . S
C1857 C1856 1.370 1_565 S
C1857 C1861 1.408 . S
C1858 C1856 1.363 . S
C1858 C1859 1.370 1_545 S
C1858 C1862 1.524 . S
C1859 C1851 1.503 . S
C1859 C1858 1.370 1_565 S
C1859 C1860 1.403 . S
C1860 C1859 1.403 . S
C1860 C1861 1.404 . S
C1860 C1863 1.539 . S
C1861 C1857 1.408 . S
C1861 C1860 1.404 . S
C1861 H1873 0.930 . S
C1862 C1858 1.524 . S
C1862 H1874 0.956 . S
C1862 H1875 0.961 . S
C1862 H1876 0.961 . S
C1863 C1860 1.539 . S
C1863 H1877 0.958 . S
C1863 H1878 0.961 . S
C1863 H1879 0.960 . S
H1864 C1848 0.931 . S
H1865 C1853 0.929 . S
H1866 C1854 0.960 . S
H1867 C1854 0.962 1_545 S
H1868 C1854 0.960 . S
H1869 C1855 0.961 1_545 S
H1870 C1855 0.961 1_545 S
H1871 C1855 0.961 . S
H1872 C1856 0.931 . S
H1873 C1861 0.930 . S
H1874 C1862 0.956 . S
H1875 C1862 0.961 . S
H1876 C1862 0.961 . S
H1877 C1863 0.958 . S
H1878 C1863 0.961 . S
H1879 C1863 0.960 . S
C1880 C1881 1.391 . S
C1880 C1882 1.394 . S
C1880 H1896 0.931 1_455 S
C1881 C1880 1.391 . S
C1881 C1885 1.376 . S
C1882 C1880 1.394 . S
C1882 C1883 1.369 . S
C1882 C1886 1.531 1_455 S
C1883 C1882 1.369 . S
C1883 C1884 1.410 . S
C1883 C1891 1.503 . S
C1884 C1883 1.410 . S
C1884 C1885 1.392 . S
C1884 C1887 1.511 . S
C1885 C1881 1.376 . S
C1885 C1884 1.392 . S
C1885 H1897 0.929 . S
C1886 C1882 1.531 1_655 S
C1886 H1898 0.960 . S
C1886 H1899 0.962 . S
C1886 H1900 0.960 . S
C1887 C1884 1.511 . S
C1887 H1901 0.961 . S
C1887 H1902 0.961 . S
C1887 H1903 0.961 . S
C1888 C1889 1.370 . S
C1888 C1890 1.363 . S
C1888 H1904 0.931 . S
C1889 C1888 1.370 . S
C1889 C1893 1.408 . S
C1890 C1888 1.363 . S
C1890 C1891 1.370 . S
C1890 C1894 1.524 . S
C1891 C1883 1.503 . S
C1891 C1890 1.370 . S
C1891 C1892 1.403 . S
C1892 C1891 1.403 . S
C1892 C1893 1.404 . S
C1892 C1895 1.539 . S
C1893 C1889 1.408 . S
C1893 C1892 1.404 . S
C1893 H1905 0.930 . S
C1894 C1890 1.524 . S
C1894 H1906 0.956 1_455 S
C1894 H1907 0.961 . S
C1894 H1908 0.961 . S
C1895 C1892 1.539 . S
C1895 H1909 0.958 . S
C1895 H1910 0.961 . S
C1895 H1911 0.960 . S
H1896 C1880 0.931 1_655 S
H1897 C1885 0.929 . S
H1898 C1886 0.960 . S
H1899 C1886 0.962 . S
H1900 C1886 0.960 . S
H1901 C1887 0.961 . S
H1902 C1887 0.961 . S
H1903 C1887 0.961 . S
H1904 C1888 0.931 . S
H1905 C1893 0.930 . S
H1906 C1894 0.956 1_655 S
H1907 C1894 0.961 . S
H1908 C1894 0.961 . S
H1909 C1895 0.958 . S
H1910 C1895 0.961 . S
H1911 C1895 0.960 . S
C1912 C1913 1.391 . S
C1912 C1914 1.394 . S
C1912 H1928 0.931 . S
C1913 C1912 1.391 . S
C1913 C1917 1.376 . S
C1914 C1912 1.394 . S
C1914 C1915 1.369 . S
C1914 C1918 1.531 . S
C1915 C1914 1.369 . S
C1915 C1916 1.410 . S
C1915 C1923 1.503 . S
C1916 C1915 1.410 . S
C1916 C1917 1.392 . S
C1916 C1919 1.511 . S
C1917 C1913 1.376 . S
C1917 C1916 1.392 . S
C1917 H1929 0.929 . S
C1918 C1914 1.531 . S
C1918 H1930 0.960 . S
C1918 H1931 0.962 . S
C1918 H1932 0.960 . S
C1919 C1916 1.511 . S
C1919 H1933 0.961 . S
C1919 H1934 0.961 . S
C1919 H1935 0.961 . S
C1920 C1921 1.370 . S
C1920 C1922 1.363 . S
C1920 H1936 0.931 . S
C1921 C1920 1.370 . S
C1921 C1925 1.408 . S
C1922 C1920 1.363 . S
C1922 C1923 1.370 . S
C1922 C1926 1.524 . S
C1923 C1915 1.503 . S
C1923 C1922 1.370 . S
C1923 C1924 1.403 . S
C1924 C1923 1.403 . S
C1924 C1925 1.404 . S
C1924 C1927 1.539 . S
C1925 C1921 1.408 . S
C1925 C1924 1.404 . S
C1925 H1937 0.930 . S
C1926 C1922 1.524 . S
C1926 H1938 0.956 . S
C1926 H1939 0.961 . S
C1926 H1940 0.961 . S
C1927 C1924 1.539 . S
C1927 H1941 0.958 . S
C1927 H1942 0.961 . S
C1927 H1943 0.960 . S
H1928 C1912 0.931 . S
H1929 C1917 0.929 . S
H1930 C1918 0.960 . S
H1931 C1918 0.962 . S
H1932 C1918 0.960 . S
H1933 C1919 0.961 . S
H1934 C1919 0.961 . S
H1935 C1919 0.961 . S
H1936 C1920 0.931 . S
H1937 C1925 0.930 . S
H1938 C1926 0.956 . S
H1939 C1926 0.961 . S
H1940 C1926 0.961 . S
H1941 C1927 0.958 . S
H1942 C1927 0.961 . S
H1943 C1927 0.960 . S
C1944 C1945 1.391 1_455 S
C1944 C1946 1.394 . S
C1944 H1960 0.931 . S
C1945 C1944 1.391 1_655 S
C1945 C1949 1.376 . S
C1946 C1944 1.394 . S
C1946 C1947 1.369 1_455 S
C1946 C1950 1.531 . S
C1947 C1946 1.369 1_655 S
C1947 C1948 1.410 . S
C1947 C1955 1.503 . S
C1948 C1947 1.410 . S
C1948 C1949 1.392 . S
C1948 C1951 1.511 . S
C1949 C1945 1.376 . S
C1949 C1948 1.392 . S
C1949 H1961 0.929 . S
C1950 C1946 1.531 . S
C1950 H1962 0.960 . S
C1950 H1963 0.962 . S
C1950 H1964 0.960 . S
C1951 C1948 1.511 . S
C1951 H1965 0.961 . S
C1951 H1966 0.961 . S
C1951 H1967 0.961 . S
C1952 C1953 1.370 . S
C1952 C1954 1.363 . S
C1952 H1968 0.931 1_655 S
C1953 C1952 1.370 . S
C1953 C1957 1.408 . S
C1954 C1952 1.363 . S
C1954 C1955 1.370 . S
C1954 C1958 1.524 1_655 S
C1955 C1947 1.503 . S
C1955 C1954 1.370 . S
C1955 C1956 1.403 . S
C1956 C1955 1.403 . S
C1956 C1957 1.404 . S
C1956 C1959 1.539 . S
C1957 C1953 1.408 . S
C1957 C1956 1.404 . S
C1957 H1969 0.930 . S
C1958 C1954 1.524 1_455 S
C1958 H1970 0.956 . S
C1958 H1971 0.961 1_455 S
C1958 H1972 0.961 . S
C1959 C1956 1.539 . S
C1959 H1973 0.958 . S
C1959 H1974 0.961 . S
C1959 H1975 0.960 . S
H1960 C1944 0.931 . S
H1961 C1949 0.929 . S
H1962 C1950 0.960 . S
H1963 C1950 0.962 . S
H1964 C1950 0.960 . S
H1965 C1951 0.961 . S
H1966 C1951 0.961 . S
H1967 C1951 0.961 . S
H1968 C1952 0.931 1_455 S
H1969 C1957 0.930 . S
H1970 C1958 0.956 . S
H1971 C1958 0.961 1_655 S
H1972 C1958 0.961 . S
H1973 C1959 0.958 . S
H1974 C1959 0.961 . S
H1975 C1959 0.960 . S
C1976 C1977 1.391 . S
C1976 C1978 1.394 . S
C1976 H1992 0.931 . S
C1977 C1976 1.391 . S
C1977 C1981 1.376 . S
C1978 C1976 1.394 . S
C1978 C1979 1.369 . S
C1978 C1982 1.531 . S
C1979 C1978 1.369 . S
C1979 C1980 1.410 . S
C1979 C1987 1.503 . S
C1980 C1979 1.410 . S
C1980 C1981 1.392 . S
C1980 C1983 1.511 . S
C1981 C1977 1.376 . S
C1981 C1980 1.392 . S
C1981 H1993 0.929 . S
C1982 C1978 1.531 . S
C1982 H1994 0.960 . S
C1982 H1995 0.962 . S
C1982 H1996 0.960 . S
C1983 C1980 1.511 . S
C1983 H1997 0.961 . S
C1983 H1998 0.961 . S
C1983 H1999 0.961 . S
C1984 C1985 1.370 . S
C1984 C1986 1.363 . S
C1984 H2000 0.931 . S
C1985 C1984 1.370 . S
C1985 C1989 1.408 . S
C1986 C1984 1.363 . S
C1986 C1987 1.370 . S
C1986 C1990 1.524 . S
C1987 C1979 1.503 . S
C1987 C1986 1.370 . S
C1987 C1988 1.403 . S
C1988 C1987 1.403 . S
C1988 C1989 1.404 . S
C1988 C1991 1.539 . S
C1989 C1985 1.408 . S
C1989 C1988 1.404 . S
C1989 H2001 0.930 . S
C1990 C1986 1.524 . S
C1990 H2002 0.956 . S
C1990 H2003 0.961 . S
C1990 H2004 0.961 . S
C1991 C1988 1.539 . S
C1991 H2005 0.958 . S
C1991 H2006 0.961 . S
C1991 H2007 0.960 . S
H1992 C1976 0.931 . S
H1993 C1981 0.929 . S
H1994 C1982 0.960 . S
H1995 C1982 0.962 . S
H1996 C1982 0.960 . S
H1997 C1983 0.961 . S
H1998 C1983 0.961 . S
H1999 C1983 0.961 . S
H2000 C1984 0.931 . S
H2001 C1989 0.930 . S
H2002 C1990 0.956 . S
H2003 C1990 0.961 . S
H2004 C1990 0.961 . S
H2005 C1991 0.958 . S
H2006 C1991 0.961 . S
H2007 C1991 0.960 . S
C2008 C2009 1.391 . S
C2008 C2010 1.394 . S
C2008 H2024 0.931 . S
C2009 C2008 1.391 . S
C2009 C2013 1.376 . S
C2010 C2008 1.394 . S
C2010 C2011 1.369 . S
C2010 C2014 1.531 . S
C2011 C2010 1.369 . S
C2011 C2012 1.410 . S
C2011 C2019 1.503 . S
C2012 C2011 1.410 . S
C2012 C2013 1.392 . S
C2012 C2015 1.511 . S
C2013 C2009 1.376 . S
C2013 C2012 1.392 . S
C2013 H2025 0.929 . S
C2014 C2010 1.531 . S
C2014 H2026 0.961 1_545 S
C2014 H2027 0.962 . S
C2014 H2028 0.960 1_545 S
C2015 C2012 1.511 . S
C2015 H2029 0.961 . S
C2015 H2030 0.961 . S
C2015 H2031 0.961 . S
C2016 C2017 1.370 . S
C2016 C2018 1.363 . S
C2016 H2032 0.931 . S
C2017 C2016 1.370 . S
C2017 C2021 1.408 . S
C2018 C2016 1.363 . S
C2018 C2019 1.370 . S
C2018 C2022 1.524 . S
C2019 C2011 1.503 . S
C2019 C2018 1.370 . S
C2019 C2020 1.403 . S
C2020 C2019 1.403 . S
C2020 C2021 1.404 . S
C2020 C2023 1.539 1_545 S
C2021 C2017 1.408 . S
C2021 C2020 1.404 . S
C2021 H2033 0.930 1_545 S
C2022 C2018 1.524 . S
C2022 H2034 0.956 . S
C2022 H2035 0.961 . S
C2022 H2036 0.961 . S
C2023 C2020 1.539 1_565 S
C2023 H2037 0.958 . S
C2023 H2038 0.961 . S
C2023 H2039 0.960 . S
H2024 C2008 0.931 . S
H2025 C2013 0.929 . S
H2026 C2014 0.961 1_565 S
H2027 C2014 0.962 . S
H2028 C2014 0.960 1_565 S
H2029 C2015 0.961 . S
H2030 C2015 0.961 . S
H2031 C2015 0.961 . S
H2032 C2016 0.931 . S
H2033 C2021 0.930 1_565 S
H2034 C2022 0.956 . S
H2035 C2022 0.961 . S
H2036 C2022 0.961 . S
H2037 C2023 0.958 . S
H2038 C2023 0.961 . S
H2039 C2023 0.960 . S
C2040 C2041 1.391 . S
C2040 C2042 1.394 . S
C2040 H2056 0.931 . S
C2041 C2040 1.391 . S
C2041 C2045 1.376 . S
C2042 C2040 1.394 . S
C2042 C2043 1.369 . S
C2042 C2046 1.531 . S
C2043 C2042 1.369 . S
C2043 C2044 1.410 . S
C2043 C2051 1.503 . S
C2044 C2043 1.410 . S
C2044 C2045 1.392 . S
C2044 C2047 1.511 . S
C2045 C2041 1.376 . S
C2045 C2044 1.392 . S
C2045 H2057 0.929 . S
C2046 C2042 1.531 . S
C2046 H2058 0.960 . S
C2046 H2059 0.962 . S
C2046 H2060 0.960 . S
C2047 C2044 1.511 . S
C2047 H2061 0.961 . S
C2047 H2062 0.961 . S
C2047 H2063 0.961 . S
C2048 C2049 1.370 . S
C2048 C2050 1.363 . S
C2048 H2064 0.931 . S
C2049 C2048 1.370 . S
C2049 C2053 1.408 . S
C2050 C2048 1.363 . S
C2050 C2051 1.370 . S
C2050 C2054 1.524 . S
C2051 C2043 1.503 . S
C2051 C2050 1.370 . S
C2051 C2052 1.403 . S
C2052 C2051 1.403 . S
C2052 C2053 1.404 . S
C2052 C2055 1.539 . S
C2053 C2049 1.408 . S
C2053 C2052 1.404 . S
C2053 H2065 0.930 . S
C2054 C2050 1.524 . S
C2054 H2066 0.956 . S
C2054 H2067 0.961 . S
C2054 H2068 0.961 . S
C2055 C2052 1.539 . S
C2055 H2069 0.958 . S
C2055 H2070 0.961 . S
C2055 H2071 0.960 . S
H2056 C2040 0.931 . S
H2057 C2045 0.929 . S
H2058 C2046 0.960 . S
H2059 C2046 0.962 . S
H2060 C2046 0.960 . S
H2061 C2047 0.961 . S
H2062 C2047 0.961 . S
H2063 C2047 0.961 . S
H2064 C2048 0.931 . S
H2065 C2053 0.930 . S
H2066 C2054 0.956 . S
H2067 C2054 0.961 . S
H2068 C2054 0.961 . S
H2069 C2055 0.958 . S
H2070 C2055 0.961 . S
H2071 C2055 0.960 . S
C2072 C2073 1.391 . S
C2072 C2074 1.394 . S
C2072 H2088 0.931 . S
C2073 C2072 1.391 . S
C2073 C2077 1.376 . S
C2074 C2072 1.394 . S
C2074 C2075 1.369 . S
C2074 C2078 1.531 . S
C2075 C2074 1.369 . S
C2075 C2076 1.410 . S
C2075 C2083 1.503 . S
C2076 C2075 1.410 . S
C2076 C2077 1.392 . S
C2076 C2079 1.511 . S
C2077 C2073 1.376 . S
C2077 C2076 1.392 . S
C2077 H2089 0.929 . S
C2078 C2074 1.531 . S
C2078 H2090 0.960 . S
C2078 H2091 0.962 . S
C2078 H2092 0.960 . S
C2079 C2076 1.511 . S
C2079 H2093 0.961 . S
C2079 H2094 0.961 . S
C2079 H2095 0.961 . S
C2080 C2081 1.370 . S
C2080 C2082 1.363 . S
C2080 H2096 0.931 . S
C2081 C2080 1.370 . S
C2081 C2085 1.408 . S
C2082 C2080 1.363 . S
C2082 C2083 1.370 . S
C2082 C2086 1.524 . S
C2083 C2075 1.503 . S
C2083 C2082 1.370 . S
C2083 C2084 1.403 . S
C2084 C2083 1.403 . S
C2084 C2085 1.404 . S
C2084 C2087 1.539 . S
C2085 C2081 1.408 . S
C2085 C2084 1.404 . S
C2085 H2097 0.930 . S
C2086 C2082 1.524 . S
C2086 H2098 0.956 . S
C2086 H2099 0.961 . S
C2086 H2100 0.961 . S
C2087 C2084 1.539 . S
C2087 H2101 0.958 . S
C2087 H2102 0.961 . S
C2087 H2103 0.960 . S
H2088 C2072 0.931 . S
H2089 C2077 0.929 . S
H2090 C2078 0.960 . S
H2091 C2078 0.962 . S
H2092 C2078 0.960 . S
H2093 C2079 0.961 . S
H2094 C2079 0.961 . S
H2095 C2079 0.961 . S
H2096 C2080 0.931 . S
H2097 C2085 0.930 . S
H2098 C2086 0.956 . S
H2099 C2086 0.961 . S
H2100 C2086 0.961 . S
H2101 C2087 0.958 . S
H2102 C2087 0.961 . S
H2103 C2087 0.960 . S
C2104 C2105 1.391 . S
C2104 C2106 1.394 . S
C2104 H2120 0.931 . S
C2105 C2104 1.391 . S
C2105 C2109 1.376 . S
C2106 C2104 1.394 . S
C2106 C2107 1.369 . S
C2106 C2110 1.531 . S
C2107 C2106 1.369 . S
C2107 C2108 1.410 . S
C2107 C2115 1.503 . S
C2108 C2107 1.410 . S
C2108 C2109 1.392 . S
C2108 C2111 1.511 . S
C2109 C2105 1.376 . S
C2109 C2108 1.392 . S
C2109 H2121 0.929 . S
C2110 C2106 1.531 . S
C2110 H2122 0.960 . S
C2110 H2123 0.962 . S
C2110 H2124 0.960 . S
C2111 C2108 1.511 . S
C2111 H2125 0.961 . S
C2111 H2126 0.961 . S
C2111 H2127 0.961 . S
C2112 C2113 1.370 . S
C2112 C2114 1.363 . S
C2112 H2128 0.931 . S
C2113 C2112 1.370 . S
C2113 C2117 1.408 . S
C2114 C2112 1.363 . S
C2114 C2115 1.370 . S
C2114 C2118 1.524 . S
C2115 C2107 1.503 . S
C2115 C2114 1.370 . S
C2115 C2116 1.403 . S
C2116 C2115 1.403 . S
C2116 C2117 1.404 . S
C2116 C2119 1.539 . S
C2117 C2113 1.408 . S
C2117 C2116 1.404 . S
C2117 H2129 0.930 . S
C2118 C2114 1.524 . S
C2118 H2130 0.956 . S
C2118 H2131 0.961 . S
C2118 H2132 0.961 . S
C2119 C2116 1.539 . S
C2119 H2133 0.958 . S
C2119 H2134 0.961 . S
C2119 H2135 0.960 . S
H2120 C2104 0.931 . S
H2121 C2109 0.929 . S
H2122 C2110 0.960 . S
H2123 C2110 0.962 . S
H2124 C2110 0.960 . S
H2125 C2111 0.961 . S
H2126 C2111 0.961 . S
H2127 C2111 0.961 . S
H2128 C2112 0.931 . S
H2129 C2117 0.930 . S
H2130 C2118 0.956 . S
H2131 C2118 0.961 . S
H2132 C2118 0.961 . S
H2133 C2119 0.958 . S
H2134 C2119 0.961 . S
H2135 C2119 0.960 . S
C2136 C2137 1.391 . S
C2136 C2138 1.394 . S
C2136 H2152 0.931 . S
C2137 C2136 1.391 . S
C2137 C2141 1.376 . S
C2138 C2136 1.394 . S
C2138 C2139 1.369 . S
C2138 C2142 1.531 . S
C2139 C2138 1.369 . S
C2139 C2140 1.410 . S
C2139 C2147 1.503 . S
C2140 C2139 1.410 . S
C2140 C2141 1.392 . S
C2140 C2143 1.511 . S
C2141 C2137 1.376 . S
C2141 C2140 1.392 . S
C2141 H2153 0.929 . S
C2142 C2138 1.531 . S
C2142 H2154 0.960 . S
C2142 H2155 0.962 . S
C2142 H2156 0.960 . S
C2143 C2140 1.511 . S
C2143 H2157 0.961 . S
C2143 H2158 0.961 . S
C2143 H2159 0.961 . S
C2144 C2145 1.370 . S
C2144 C2146 1.363 . S
C2144 H2160 0.931 . S
C2145 C2144 1.370 . S
C2145 C2149 1.408 . S
C2146 C2144 1.363 . S
C2146 C2147 1.370 . S
C2146 C2150 1.524 . S
C2147 C2139 1.503 . S
C2147 C2146 1.370 . S
C2147 C2148 1.403 . S
C2148 C2147 1.403 . S
C2148 C2149 1.404 . S
C2148 C2151 1.539 . S
C2149 C2145 1.408 . S
C2149 C2148 1.404 . S
C2149 H2161 0.930 . S
C2150 C2146 1.524 . S
C2150 H2162 0.956 . S
C2150 H2163 0.961 . S
C2150 H2164 0.961 . S
C2151 C2148 1.539 . S
C2151 H2165 0.958 . S
C2151 H2166 0.961 . S
C2151 H2167 0.960 . S
H2152 C2136 0.931 . S
H2153 C2141 0.929 . S
H2154 C2142 0.960 . S
H2155 C2142 0.962 . S
H2156 C2142 0.960 . S
H2157 C2143 0.961 . S
H2158 C2143 0.961 . S
H2159 C2143 0.961 . S
H2160 C2144 0.931 . S
H2161 C2149 0.930 . S
H2162 C2150 0.956 . S
H2163 C2150 0.961 . S
H2164 C2150 0.961 . S
H2165 C2151 0.958 . S
H2166 C2151 0.961 . S
H2167 C2151 0.960 . S
C2168 C2169 1.391 . S
C2168 C2170 1.394 . S
C2168 H2184 0.931 . S
C2169 C2168 1.391 . S
C2169 C2173 1.376 . S
C2170 C2168 1.394 . S
C2170 C2171 1.369 . S
C2170 C2174 1.531 . S
C2171 C2170 1.369 . S
C2171 C2172 1.410 . S
C2171 C2179 1.503 . S
C2172 C2171 1.410 . S
C2172 C2173 1.392 . S
C2172 C2175 1.511 . S
C2173 C2169 1.376 . S
C2173 C2172 1.392 . S
C2173 H2185 0.929 . S
C2174 C2170 1.531 . S
C2174 H2186 0.960 . S
C2174 H2187 0.962 . S
C2174 H2188 0.960 . S
C2175 C2172 1.511 . S
C2175 H2189 0.961 . S
C2175 H2190 0.961 . S
C2175 H2191 0.961 . S
C2176 C2177 1.370 . S
C2176 C2178 1.363 . S
C2176 H2192 0.931 . S
C2177 C2176 1.370 . S
C2177 C2181 1.408 . S
C2178 C2176 1.363 . S
C2178 C2179 1.370 . S
C2178 C2182 1.524 . S
C2179 C2171 1.503 . S
C2179 C2178 1.370 . S
C2179 C2180 1.403 . S
C2180 C2179 1.403 . S
C2180 C2181 1.404 . S
C2180 C2183 1.539 . S
C2181 C2177 1.408 . S
C2181 C2180 1.404 . S
C2181 H2193 0.930 . S
C2182 C2178 1.524 . S
C2182 H2194 0.956 . S
C2182 H2195 0.961 . S
C2182 H2196 0.961 . S
C2183 C2180 1.539 . S
C2183 H2197 0.958 . S
C2183 H2198 0.961 . S
C2183 H2199 0.960 . S
H2184 C2168 0.931 . S
H2185 C2173 0.929 . S
H2186 C2174 0.960 . S
H2187 C2174 0.962 . S
H2188 C2174 0.960 . S
H2189 C2175 0.961 . S
H2190 C2175 0.961 . S
H2191 C2175 0.961 . S
H2192 C2176 0.931 . S
H2193 C2181 0.930 . S
H2194 C2182 0.956 . S
H2195 C2182 0.961 . S
H2196 C2182 0.961 . S
H2197 C2183 0.958 . S
H2198 C2183 0.961 . S
H2199 C2183 0.960 . S
C2200 C2201 1.391 . S
C2200 C2202 1.394 . S
C2200 H2216 0.931 . S
C2201 C2200 1.391 . S
C2201 C2205 1.376 . S
C2202 C2200 1.394 . S
C2202 C2203 1.369 . S
C2202 C2206 1.531 . S
C2203 C2202 1.369 . S
C2203 C2204 1.410 . S
C2203 C2211 1.503 . S
C2204 C2203 1.410 . S
C2204 C2205 1.392 . S
C2204 C2207 1.511 . S
C2205 C2201 1.376 . S
C2205 C2204 1.392 . S
C2205 H2217 0.929 . S
C2206 C2202 1.531 . S
C2206 H2218 0.960 . S
C2206 H2219 0.962 . S
C2206 H2220 0.960 . S
C2207 C2204 1.511 . S
C2207 H2221 0.961 . S
C2207 H2222 0.961 . S
C2207 H2223 0.961 . S
C2208 C2209 1.370 . S
C2208 C2210 1.363 . S
C2208 H2224 0.931 . S
C2209 C2208 1.370 . S
C2209 C2213 1.408 . S
C2210 C2208 1.363 . S
C2210 C2211 1.370 . S
C2210 C2214 1.524 . S
C2211 C2203 1.503 . S
C2211 C2210 1.370 . S
C2211 C2212 1.403 . S
C2212 C2211 1.403 . S
C2212 C2213 1.404 . S
C2212 C2215 1.539 . S
C2213 C2209 1.408 . S
C2213 C2212 1.404 . S
C2213 H2225 0.930 . S
C2214 C2210 1.524 . S
C2214 H2226 0.956 . S
C2214 H2227 0.961 . S
C2214 H2228 0.961 . S
C2215 C2212 1.539 . S
C2215 H2229 0.958 . S
C2215 H2230 0.961 . S
C2215 H2231 0.960 . S
H2216 C2200 0.931 . S
H2217 C2205 0.929 . S
H2218 C2206 0.960 . S
H2219 C2206 0.962 . S
H2220 C2206 0.960 . S
H2221 C2207 0.961 . S
H2222 C2207 0.961 . S
H2223 C2207 0.961 . S
H2224 C2208 0.931 . S
H2225 C2213 0.930 . S
H2226 C2214 0.956 . S
H2227 C2214 0.961 . S
H2228 C2214 0.961 . S
H2229 C2215 0.958 . S
H2230 C2215 0.961 . S
H2231 C2215 0.960 . S
C2232 C2233 1.391 . S
C2232 C2234 1.394 . S
C2232 H2248 0.931 . S
C2233 C2232 1.391 . S
C2233 C2237 1.376 . S
C2234 C2232 1.394 . S
C2234 C2235 1.369 . S
C2234 C2238 1.531 . S
C2235 C2234 1.369 . S
C2235 C2236 1.410 . S
C2235 C2243 1.503 . S
C2236 C2235 1.410 . S
C2236 C2237 1.392 . S
C2236 C2239 1.511 . S
C2237 C2233 1.376 . S
C2237 C2236 1.392 . S
C2237 H2249 0.929 . S
C2238 C2234 1.531 . S
C2238 H2250 0.960 . S
C2238 H2251 0.962 . S
C2238 H2252 0.960 . S
C2239 C2236 1.511 . S
C2239 H2253 0.961 . S
C2239 H2254 0.961 . S
C2239 H2255 0.961 . S
C2240 C2241 1.370 . S
C2240 C2242 1.363 . S
C2240 H2256 0.931 . S
C2241 C2240 1.370 . S
C2241 C2245 1.408 . S
C2242 C2240 1.363 . S
C2242 C2243 1.370 . S
C2242 C2246 1.524 . S
C2243 C2235 1.503 . S
C2243 C2242 1.370 . S
C2243 C2244 1.403 . S
C2244 C2243 1.403 . S
C2244 C2245 1.404 . S
C2244 C2247 1.539 . S
C2245 C2241 1.408 . S
C2245 C2244 1.404 . S
C2245 H2257 0.930 . S
C2246 C2242 1.524 . S
C2246 H2258 0.956 . S
C2246 H2259 0.961 . S
C2246 H2260 0.961 . S
C2247 C2244 1.539 . S
C2247 H2261 0.958 . S
C2247 H2262 0.961 . S
C2247 H2263 0.960 . S
H2248 C2232 0.931 . S
H2249 C2237 0.929 . S
H2250 C2238 0.960 . S
H2251 C2238 0.962 . S
H2252 C2238 0.960 . S
H2253 C2239 0.961 . S
H2254 C2239 0.961 . S
H2255 C2239 0.961 . S
H2256 C2240 0.931 . S
H2257 C2245 0.930 . S
H2258 C2246 0.956 . S
H2259 C2246 0.961 . S
H2260 C2246 0.961 . S
H2261 C2247 0.958 . S
H2262 C2247 0.961 . S
H2263 C2247 0.960 . S
C2264 C2265 1.391 . S
C2264 C2266 1.394 . S
C2264 H2280 0.931 . S
C2265 C2264 1.391 . S
C2265 C2269 1.376 . S
C2266 C2264 1.394 . S
C2266 C2267 1.369 . S
C2266 C2270 1.531 . S
C2267 C2266 1.369 . S
C2267 C2268 1.410 . S
C2267 C2275 1.503 . S
C2268 C2267 1.410 . S
C2268 C2269 1.392 . S
C2268 C2271 1.511 . S
C2269 C2265 1.376 . S
C2269 C2268 1.392 . S
C2269 H2281 0.929 . S
C2270 C2266 1.531 . S
C2270 H2282 0.960 . S
C2270 H2283 0.962 . S
C2270 H2284 0.960 . S
C2271 C2268 1.511 . S
C2271 H2285 0.961 . S
C2271 H2286 0.961 . S
C2271 H2287 0.961 . S
C2272 C2273 1.370 . S
C2272 C2274 1.363 . S
C2272 H2288 0.931 . S
C2273 C2272 1.370 . S
C2273 C2277 1.408 . S
C2274 C2272 1.363 . S
C2274 C2275 1.370 . S
C2274 C2278 1.524 . S
C2275 C2267 1.503 . S
C2275 C2274 1.370 . S
C2275 C2276 1.403 . S
C2276 C2275 1.403 . S
C2276 C2277 1.404 . S
C2276 C2279 1.539 . S
C2277 C2273 1.408 . S
C2277 C2276 1.404 . S
C2277 H2289 0.930 . S
C2278 C2274 1.524 . S
C2278 H2290 0.956 . S
C2278 H2291 0.961 . S
C2278 H2292 0.961 . S
C2279 C2276 1.539 . S
C2279 H2293 0.958 . S
C2279 H2294 0.961 . S
C2279 H2295 0.960 . S
H2280 C2264 0.931 . S
H2281 C2269 0.929 . S
H2282 C2270 0.960 . S
H2283 C2270 0.962 . S
H2284 C2270 0.960 . S
H2285 C2271 0.961 . S
H2286 C2271 0.961 . S
H2287 C2271 0.961 . S
H2288 C2272 0.931 . S
H2289 C2277 0.930 . S
H2290 C2278 0.956 . S
H2291 C2278 0.961 . S
H2292 C2278 0.961 . S
H2293 C2279 0.958 . S
H2294 C2279 0.961 . S
H2295 C2279 0.960 . S
C2296 C2297 1.391 . S
C2296 C2298 1.394 . S
C2296 H2312 0.931 . S
C2297 C2296 1.391 . S
C2297 C2301 1.376 . S
C2298 C2296 1.394 . S
C2298 C2299 1.369 . S
C2298 C2302 1.531 . S
C2299 C2298 1.369 . S
C2299 C2300 1.410 . S
C2299 C2307 1.503 . S
C2300 C2299 1.410 . S
C2300 C2301 1.392 . S
C2300 C2303 1.511 . S
C2301 C2297 1.376 . S
C2301 C2300 1.392 . S
C2301 H2313 0.929 . S
C2302 C2298 1.531 . S
C2302 H2314 0.960 . S
C2302 H2315 0.962 . S
C2302 H2316 0.960 . S
C2303 C2300 1.511 . S
C2303 H2317 0.961 . S
C2303 H2318 0.961 . S
C2303 H2319 0.961 . S
C2304 C2305 1.370 . S
C2304 C2306 1.363 . S
C2304 H2320 0.931 . S
C2305 C2304 1.370 . S
C2305 C2309 1.408 . S
C2306 C2304 1.363 . S
C2306 C2307 1.370 . S
C2306 C2310 1.524 . S
C2307 C2299 1.503 . S
C2307 C2306 1.370 . S
C2307 C2308 1.403 . S
C2308 C2307 1.403 . S
C2308 C2309 1.404 . S
C2308 C2311 1.539 . S
C2309 C2305 1.408 . S
C2309 C2308 1.404 . S
C2309 H2321 0.930 . S
C2310 C2306 1.524 . S
C2310 H2322 0.956 . S
C2310 H2323 0.961 . S
C2310 H2324 0.961 . S
C2311 C2308 1.539 . S
C2311 H2325 0.958 . S
C2311 H2326 0.961 . S
C2311 H2327 0.960 . S
H2312 C2296 0.931 . S
H2313 C2301 0.929 . S
H2314 C2302 0.960 . S
H2315 C2302 0.962 . S
H2316 C2302 0.960 . S
H2317 C2303 0.961 . S
H2318 C2303 0.961 . S
H2319 C2303 0.961 . S
H2320 C2304 0.931 . S
H2321 C2309 0.930 . S
H2322 C2310 0.956 . S
H2323 C2310 0.961 . S
H2324 C2310 0.961 . S
H2325 C2311 0.958 . S
H2326 C2311 0.961 . S
H2327 C2311 0.960 . S
C2328 C2329 1.391 . S
C2328 C2330 1.394 . S
C2328 H2344 0.931 . S
C2329 C2328 1.391 . S
C2329 C2333 1.376 . S
C2330 C2328 1.394 . S
C2330 C2331 1.369 . S
C2330 C2334 1.531 . S
C2331 C2330 1.369 . S
C2331 C2332 1.410 . S
C2331 C2339 1.503 . S
C2332 C2331 1.410 . S
C2332 C2333 1.392 . S
C2332 C2335 1.511 . S
C2333 C2329 1.376 . S
C2333 C2332 1.392 . S
C2333 H2345 0.929 . S
C2334 C2330 1.531 . S
C2334 H2346 0.960 . S
C2334 H2347 0.962 . S
C2334 H2348 0.960 . S
C2335 C2332 1.511 . S
C2335 H2349 0.961 . S
C2335 H2350 0.961 . S
C2335 H2351 0.961 . S
C2336 C2337 1.370 . S
C2336 C2338 1.363 . S
C2336 H2352 0.931 . S
C2337 C2336 1.370 . S
C2337 C2341 1.408 . S
C2338 C2336 1.363 . S
C2338 C2339 1.370 . S
C2338 C2342 1.524 . S
C2339 C2331 1.503 . S
C2339 C2338 1.370 . S
C2339 C2340 1.403 . S
C2340 C2339 1.403 . S
C2340 C2341 1.404 . S
C2340 C2343 1.539 . S
C2341 C2337 1.408 . S
C2341 C2340 1.404 . S
C2341 H2353 0.930 . S
C2342 C2338 1.524 . S
C2342 H2354 0.956 . S
C2342 H2355 0.961 . S
C2342 H2356 0.961 . S
C2343 C2340 1.539 . S
C2343 H2357 0.958 . S
C2343 H2358 0.961 . S
C2343 H2359 0.960 . S
H2344 C2328 0.931 . S
H2345 C2333 0.929 . S
H2346 C2334 0.960 . S
H2347 C2334 0.962 . S
H2348 C2334 0.960 . S
H2349 C2335 0.961 . S
H2350 C2335 0.961 . S
H2351 C2335 0.961 . S
H2352 C2336 0.931 . S
H2353 C2341 0.930 . S
H2354 C2342 0.956 . S
H2355 C2342 0.961 . S
H2356 C2342 0.961 . S
H2357 C2343 0.958 . S
H2358 C2343 0.961 . S
H2359 C2343 0.960 . S
C2360 C2361 1.391 . S
C2360 C2362 1.394 . S
C2360 H2376 0.931 . S
C2361 C2360 1.391 . S
C2361 C2365 1.376 . S
C2362 C2360 1.394 . S
C2362 C2363 1.369 . S
C2362 C2366 1.531 . S
C2363 C2362 1.369 . S
C2363 C2364 1.410 . S
C2363 C2371 1.503 . S
C2364 C2363 1.410 . S
C2364 C2365 1.392 . S
C2364 C2367 1.511 . S
C2365 C2361 1.376 . S
C2365 C2364 1.392 . S
C2365 H2377 0.929 . S
C2366 C2362 1.531 . S
C2366 H2378 0.960 . S
C2366 H2379 0.962 . S
C2366 H2380 0.960 . S
C2367 C2364 1.511 . S
C2367 H2381 0.961 . S
C2367 H2382 0.961 . S
C2367 H2383 0.961 . S
C2368 C2369 1.370 . S
C2368 C2370 1.363 . S
C2368 H2384 0.931 . S
C2369 C2368 1.370 . S
C2369 C2373 1.408 . S
C2370 C2368 1.363 . S
C2370 C2371 1.370 . S
C2370 C2374 1.524 . S
C2371 C2363 1.503 . S
C2371 C2370 1.370 . S
C2371 C2372 1.403 . S
C2372 C2371 1.403 . S
C2372 C2373 1.404 . S
C2372 C2375 1.539 . S
C2373 C2369 1.408 . S
C2373 C2372 1.404 . S
C2373 H2385 0.930 . S
C2374 C2370 1.524 . S
C2374 H2386 0.956 . S
C2374 H2387 0.961 . S
C2374 H2388 0.961 . S
C2375 C2372 1.539 . S
C2375 H2389 0.958 . S
C2375 H2390 0.961 . S
C2375 H2391 0.960 . S
H2376 C2360 0.931 . S
H2377 C2365 0.929 . S
H2378 C2366 0.960 . S
H2379 C2366 0.962 . S
H2380 C2366 0.960 . S
H2381 C2367 0.961 . S
H2382 C2367 0.961 . S
H2383 C2367 0.961 . S
H2384 C2368 0.931 . S
H2385 C2373 0.930 . S
H2386 C2374 0.956 . S
H2387 C2374 0.961 . S
H2388 C2374 0.961 . S
H2389 C2375 0.958 . S
H2390 C2375 0.961 . S
H2391 C2375 0.960 . S
C2392 C2393 1.391 . S
C2392 C2394 1.394 . S
C2392 H2408 0.931 . S
C2393 C2392 1.391 . S
C2393 C2397 1.376 . S
C2394 C2392 1.394 . S
C2394 C2395 1.369 . S
C2394 C2398 1.531 . S
C2395 C2394 1.369 . S
C2395 C2396 1.410 . S
C2395 C2403 1.503 . S
C2396 C2395 1.410 . S
C2396 C2397 1.392 . S
C2396 C2399 1.511 . S
C2397 C2393 1.376 . S
C2397 C2396 1.392 . S
C2397 H2409 0.929 . S
C2398 C2394 1.531 . S
C2398 H2410 0.960 . S
C2398 H2411 0.962 . S
C2398 H2412 0.960 . S
C2399 C2396 1.511 . S
C2399 H2413 0.961 . S
C2399 H2414 0.961 . S
C2399 H2415 0.961 . S
C2400 C2401 1.370 . S
C2400 C2402 1.363 . S
C2400 H2416 0.931 . S
C2401 C2400 1.370 . S
C2401 C2405 1.408 . S
C2402 C2400 1.363 . S
C2402 C2403 1.370 . S
C2402 C2406 1.524 . S
C2403 C2395 1.503 . S
C2403 C2402 1.370 . S
C2403 C2404 1.403 . S
C2404 C2403 1.403 . S
C2404 C2405 1.404 . S
C2404 C2407 1.539 . S
C2405 C2401 1.408 . S
C2405 C2404 1.404 . S
C2405 H2417 0.930 . S
C2406 C2402 1.524 . S
C2406 H2418 0.956 . S
C2406 H2419 0.961 . S
C2406 H2420 0.961 . S
C2407 C2404 1.539 . S
C2407 H2421 0.958 . S
C2407 H2422 0.961 . S
C2407 H2423 0.960 . S
H2408 C2392 0.931 . S
H2409 C2397 0.929 . S
H2410 C2398 0.960 . S
H2411 C2398 0.962 . S
H2412 C2398 0.960 . S
H2413 C2399 0.961 . S
H2414 C2399 0.961 . S
H2415 C2399 0.961 . S
H2416 C2400 0.931 . S
H2417 C2405 0.930 . S
H2418 C2406 0.956 . S
H2419 C2406 0.961 . S
H2420 C2406 0.961 . S
H2421 C2407 0.958 . S
H2422 C2407 0.961 . S
H2423 C2407 0.960 . S
C2424 C2425 1.391 . S
C2424 C2426 1.394 . S
C2424 H2440 0.931 . S
C2425 C2424 1.391 . S
C2425 C2429 1.376 . S
C2426 C2424 1.394 . S
C2426 C2427 1.369 . S
C2426 C2430 1.531 . S
C2427 C2426 1.369 . S
C2427 C2428 1.410 . S
C2427 C2435 1.503 . S
C2428 C2427 1.410 . S
C2428 C2429 1.392 . S
C2428 C2431 1.511 . S
C2429 C2425 1.376 . S
C2429 C2428 1.392 . S
C2429 H2441 0.929 . S
C2430 C2426 1.531 . S
C2430 H2442 0.960 . S
C2430 H2443 0.962 . S
C2430 H2444 0.960 . S
C2431 C2428 1.511 . S
C2431 H2445 0.961 . S
C2431 H2446 0.961 . S
C2431 H2447 0.961 . S
C2432 C2433 1.370 . S
C2432 C2434 1.363 . S
C2432 H2448 0.931 . S
C2433 C2432 1.370 . S
C2433 C2437 1.408 . S
C2434 C2432 1.363 . S
C2434 C2435 1.370 . S
C2434 C2438 1.524 . S
C2435 C2427 1.503 . S
C2435 C2434 1.370 . S
C2435 C2436 1.403 . S
C2436 C2435 1.403 . S
C2436 C2437 1.404 . S
C2436 C2439 1.539 . S
C2437 C2433 1.408 . S
C2437 C2436 1.404 . S
C2437 H2449 0.930 . S
C2438 C2434 1.524 . S
C2438 H2450 0.956 . S
C2438 H2451 0.961 . S
C2438 H2452 0.961 . S
C2439 C2436 1.539 . S
C2439 H2453 0.958 . S
C2439 H2454 0.961 . S
C2439 H2455 0.960 . S
H2440 C2424 0.931 . S
H2441 C2429 0.929 . S
H2442 C2430 0.960 . S
H2443 C2430 0.962 . S
H2444 C2430 0.960 . S
H2445 C2431 0.961 . S
H2446 C2431 0.961 . S
H2447 C2431 0.961 . S
H2448 C2432 0.931 . S
H2449 C2437 0.930 . S
H2450 C2438 0.956 . S
H2451 C2438 0.961 . S
H2452 C2438 0.961 . S
H2453 C2439 0.958 . S
H2454 C2439 0.961 . S
H2455 C2439 0.960 . S
C2456 C2457 1.391 . S
C2456 C2458 1.394 . S
C2456 H2472 0.931 . S
C2457 C2456 1.391 . S
C2457 C2461 1.376 . S
C2458 C2456 1.394 . S
C2458 C2459 1.369 . S
C2458 C2462 1.531 . S
C2459 C2458 1.369 . S
C2459 C2460 1.410 . S
C2459 C2467 1.503 . S
C2460 C2459 1.410 . S
C2460 C2461 1.392 . S
C2460 C2463 1.511 . S
C2461 C2457 1.376 . S
C2461 C2460 1.392 . S
C2461 H2473 0.929 . S
C2462 C2458 1.531 . S
C2462 H2474 0.960 . S
C2462 H2475 0.962 . S
C2462 H2476 0.960 . S
C2463 C2460 1.511 . S
C2463 H2477 0.961 . S
C2463 H2478 0.961 . S
C2463 H2479 0.961 . S
C2464 C2465 1.370 . S
C2464 C2466 1.363 . S
C2464 H2480 0.931 . S
C2465 C2464 1.370 . S
C2465 C2469 1.408 . S
C2466 C2464 1.363 . S
C2466 C2467 1.370 . S
C2466 C2470 1.524 . S
C2467 C2459 1.503 . S
C2467 C2466 1.370 . S
C2467 C2468 1.403 . S
C2468 C2467 1.403 . S
C2468 C2469 1.404 . S
C2468 C2471 1.539 . S
C2469 C2465 1.408 . S
C2469 C2468 1.404 . S
C2469 H2481 0.930 . S
C2470 C2466 1.524 . S
C2470 H2482 0.956 . S
C2470 H2483 0.961 . S
C2470 H2484 0.961 . S
C2471 C2468 1.539 . S
C2471 H2485 0.958 . S
C2471 H2486 0.961 . S
C2471 H2487 0.960 . S
H2472 C2456 0.931 . S
H2473 C2461 0.929 . S
H2474 C2462 0.960 . S
H2475 C2462 0.962 . S
H2476 C2462 0.960 . S
H2477 C2463 0.961 . S
H2478 C2463 0.961 . S
H2479 C2463 0.961 . S
H2480 C2464 0.931 . S
H2481 C2469 0.930 . S
H2482 C2470 0.956 . S
H2483 C2470 0.961 . S
H2484 C2470 0.961 . S
H2485 C2471 0.958 . S
H2486 C2471 0.961 . S
H2487 C2471 0.960 . S
C2488 C2489 1.391 . S
C2488 C2490 1.394 . S
C2488 H2504 0.931 . S
C2489 C2488 1.391 . S
C2489 C2493 1.376 . S
C2490 C2488 1.394 . S
C2490 C2491 1.369 . S
C2490 C2494 1.531 . S
C2491 C2490 1.369 . S
C2491 C2492 1.410 . S
C2491 C2499 1.503 . S
C2492 C2491 1.410 . S
C2492 C2493 1.392 . S
C2492 C2495 1.511 . S
C2493 C2489 1.376 . S
C2493 C2492 1.392 . S
C2493 H2505 0.929 . S
C2494 C2490 1.531 . S
C2494 H2506 0.960 . S
C2494 H2507 0.962 . S
C2494 H2508 0.960 . S
C2495 C2492 1.511 . S
C2495 H2509 0.961 . S
C2495 H2510 0.961 . S
C2495 H2511 0.961 . S
C2496 C2497 1.370 . S
C2496 C2498 1.363 . S
C2496 H2512 0.931 . S
C2497 C2496 1.370 . S
C2497 C2501 1.408 . S
C2498 C2496 1.363 . S
C2498 C2499 1.370 . S
C2498 C2502 1.524 . S
C2499 C2491 1.503 . S
C2499 C2498 1.370 . S
C2499 C2500 1.403 . S
C2500 C2499 1.403 . S
C2500 C2501 1.404 . S
C2500 C2503 1.539 . S
C2501 C2497 1.408 . S
C2501 C2500 1.404 . S
C2501 H2513 0.930 . S
C2502 C2498 1.524 . S
C2502 H2514 0.956 . S
C2502 H2515 0.961 . S
C2502 H2516 0.961 . S
C2503 C2500 1.539 . S
C2503 H2517 0.958 . S
C2503 H2518 0.961 . S
C2503 H2519 0.960 . S
H2504 C2488 0.931 . S
H2505 C2493 0.929 . S
H2506 C2494 0.960 . S
H2507 C2494 0.962 . S
H2508 C2494 0.960 . S
H2509 C2495 0.961 . S
H2510 C2495 0.961 . S
H2511 C2495 0.961 . S
H2512 C2496 0.931 . S
H2513 C2501 0.930 . S
H2514 C2502 0.956 . S
H2515 C2502 0.961 . S
H2516 C2502 0.961 . S
H2517 C2503 0.958 . S
H2518 C2503 0.961 . S
H2519 C2503 0.960 . S
C2520 C2521 1.391 . S
C2520 C2522 1.394 . S
C2520 H2536 0.931 . S
C2521 C2520 1.391 . S
C2521 C2525 1.376 . S
C2522 C2520 1.394 . S
C2522 C2523 1.369 . S
C2522 C2526 1.531 . S
C2523 C2522 1.369 . S
C2523 C2524 1.410 . S
C2523 C2531 1.503 . S
C2524 C2523 1.410 . S
C2524 C2525 1.392 . S
C2524 C2527 1.511 . S
C2525 C2521 1.376 . S
C2525 C2524 1.392 . S
C2525 H2537 0.929 . S
C2526 C2522 1.531 . S
C2526 H2538 0.960 . S
C2526 H2539 0.962 . S
C2526 H2540 0.960 . S
C2527 C2524 1.511 . S
C2527 H2541 0.961 . S
C2527 H2542 0.961 . S
C2527 H2543 0.961 . S
C2528 C2529 1.370 . S
C2528 C2530 1.363 . S
C2528 H2544 0.931 . S
C2529 C2528 1.370 . S
C2529 C2533 1.408 . S
C2530 C2528 1.363 . S
C2530 C2531 1.370 . S
C2530 C2534 1.524 . S
C2531 C2523 1.503 . S
C2531 C2530 1.370 . S
C2531 C2532 1.403 . S
C2532 C2531 1.403 . S
C2532 C2533 1.404 . S
C2532 C2535 1.539 . S
C2533 C2529 1.408 . S
C2533 C2532 1.404 . S
C2533 H2545 0.930 . S
C2534 C2530 1.524 . S
C2534 H2546 0.956 . S
C2534 H2547 0.961 . S
C2534 H2548 0.961 . S
C2535 C2532 1.539 . S
C2535 H2549 0.958 . S
C2535 H2550 0.961 . S
C2535 H2551 0.960 . S
H2536 C2520 0.931 . S
H2537 C2525 0.929 . S
H2538 C2526 0.960 . S
H2539 C2526 0.962 . S
H2540 C2526 0.960 . S
H2541 C2527 0.961 . S
H2542 C2527 0.961 . S
H2543 C2527 0.961 . S
H2544 C2528 0.931 . S
H2545 C2533 0.930 . S
H2546 C2534 0.956 . S
H2547 C2534 0.961 . S
H2548 C2534 0.961 . S
H2549 C2535 0.958 . S
H2550 C2535 0.961 . S
H2551 C2535 0.960 . S
C2552 C2553 1.391 . S
C2552 C2554 1.394 . S
C2552 H2568 0.931 . S
C2553 C2552 1.391 . S
C2553 C2557 1.376 . S
C2554 C2552 1.394 . S
C2554 C2555 1.369 . S
C2554 C2558 1.531 . S
C2555 C2554 1.369 . S
C2555 C2556 1.410 . S
C2555 C2563 1.503 . S
C2556 C2555 1.410 . S
C2556 C2557 1.392 . S
C2556 C2559 1.511 . S
C2557 C2553 1.376 . S
C2557 C2556 1.392 . S
C2557 H2569 0.929 . S
C2558 C2554 1.531 . S
C2558 H2570 0.960 . S
C2558 H2571 0.962 . S
C2558 H2572 0.960 . S
C2559 C2556 1.511 . S
C2559 H2573 0.961 . S
C2559 H2574 0.961 . S
C2559 H2575 0.961 . S
C2560 C2561 1.370 . S
C2560 C2562 1.363 . S
C2560 H2576 0.931 . S
C2561 C2560 1.370 . S
C2561 C2565 1.408 . S
C2562 C2560 1.363 . S
C2562 C2563 1.370 . S
C2562 C2566 1.524 . S
C2563 C2555 1.503 . S
C2563 C2562 1.370 . S
C2563 C2564 1.403 . S
C2564 C2563 1.403 . S
C2564 C2565 1.404 . S
C2564 C2567 1.539 . S
C2565 C2561 1.408 . S
C2565 C2564 1.404 . S
C2565 H2577 0.930 . S
C2566 C2562 1.524 . S
C2566 H2578 0.956 . S
C2566 H2579 0.961 . S
C2566 H2580 0.961 . S
C2567 C2564 1.539 . S
C2567 H2581 0.958 . S
C2567 H2582 0.961 . S
C2567 H2583 0.960 . S
H2568 C2552 0.931 . S
H2569 C2557 0.929 . S
H2570 C2558 0.960 . S
H2571 C2558 0.962 . S
H2572 C2558 0.960 . S
H2573 C2559 0.961 . S
H2574 C2559 0.961 . S
H2575 C2559 0.961 . S
H2576 C2560 0.931 . S
H2577 C2565 0.930 . S
H2578 C2566 0.956 . S
H2579 C2566 0.961 . S
H2580 C2566 0.961 . S
H2581 C2567 0.958 . S
H2582 C2567 0.961 . S
H2583 C2567 0.960 . S
C2584 C2585 1.391 . S
C2584 C2586 1.394 . S
C2584 H2600 0.931 . S
C2585 C2584 1.391 . S
C2585 C2589 1.376 . S
C2586 C2584 1.394 . S
C2586 C2587 1.369 . S
C2586 C2590 1.531 . S
C2587 C2586 1.369 . S
C2587 C2588 1.410 . S
C2587 C2595 1.503 . S
C2588 C2587 1.410 . S
C2588 C2589 1.392 . S
C2588 C2591 1.511 . S
C2589 C2585 1.376 . S
C2589 C2588 1.392 . S
C2589 H2601 0.929 . S
C2590 C2586 1.531 . S
C2590 H2602 0.960 . S
C2590 H2603 0.962 . S
C2590 H2604 0.960 . S
C2591 C2588 1.511 . S
C2591 H2605 0.961 . S
C2591 H2606 0.961 . S
C2591 H2607 0.961 . S
C2592 C2593 1.370 . S
C2592 C2594 1.363 . S
C2592 H2608 0.931 . S
C2593 C2592 1.370 . S
C2593 C2597 1.408 . S
C2594 C2592 1.363 . S
C2594 C2595 1.370 . S
C2594 C2598 1.524 . S
C2595 C2587 1.503 . S
C2595 C2594 1.370 . S
C2595 C2596 1.403 . S
C2596 C2595 1.403 . S
C2596 C2597 1.404 . S
C2596 C2599 1.539 . S
C2597 C2593 1.408 . S
C2597 C2596 1.404 . S
C2597 H2609 0.930 . S
C2598 C2594 1.524 . S
C2598 H2610 0.956 . S
C2598 H2611 0.961 . S
C2598 H2612 0.961 . S
C2599 C2596 1.539 . S
C2599 H2613 0.958 . S
C2599 H2614 0.961 . S
C2599 H2615 0.960 . S
H2600 C2584 0.931 . S
H2601 C2589 0.929 . S
H2602 C2590 0.960 . S
H2603 C2590 0.962 . S
H2604 C2590 0.960 . S
H2605 C2591 0.961 . S
H2606 C2591 0.961 . S
H2607 C2591 0.961 . S
H2608 C2592 0.931 . S
H2609 C2597 0.930 . S
H2610 C2598 0.956 . S
H2611 C2598 0.961 . S
H2612 C2598 0.961 . S
H2613 C2599 0.958 . S
H2614 C2599 0.961 . S
H2615 C2599 0.960 . S
C2616 C2617 1.391 . S
C2616 C2618 1.394 . S
C2616 H2632 0.931 . S
C2617 C2616 1.391 . S
C2617 C2621 1.376 . S
C2618 C2616 1.394 . S
C2618 C2619 1.369 . S
C2618 C2622 1.531 . S
C2619 C2618 1.369 . S
C2619 C2620 1.410 . S
C2619 C2627 1.503 . S
C2620 C2619 1.410 . S
C2620 C2621 1.392 . S
C2620 C2623 1.511 . S
C2621 C2617 1.376 . S
C2621 C2620 1.392 . S
C2621 H2633 0.929 . S
C2622 C2618 1.531 . S
C2622 H2634 0.960 . S
C2622 H2635 0.962 . S
C2622 H2636 0.960 . S
C2623 C2620 1.511 . S
C2623 H2637 0.961 . S
C2623 H2638 0.961 . S
C2623 H2639 0.961 . S
C2624 C2625 1.370 . S
C2624 C2626 1.363 . S
C2624 H2640 0.931 . S
C2625 C2624 1.370 . S
C2625 C2629 1.408 . S
C2626 C2624 1.363 . S
C2626 C2627 1.370 . S
C2626 C2630 1.524 . S
C2627 C2619 1.503 . S
C2627 C2626 1.370 . S
C2627 C2628 1.403 . S
C2628 C2627 1.403 . S
C2628 C2629 1.404 . S
C2628 C2631 1.539 . S
C2629 C2625 1.408 . S
C2629 C2628 1.404 . S
C2629 H2641 0.930 . S
C2630 C2626 1.524 . S
C2630 H2642 0.956 . S
C2630 H2643 0.961 . S
C2630 H2644 0.961 . S
C2631 C2628 1.539 . S
C2631 H2645 0.958 . S
C2631 H2646 0.961 . S
C2631 H2647 0.960 . S
H2632 C2616 0.931 . S
H2633 C2621 0.929 . S
H2634 C2622 0.960 . S
H2635 C2622 0.962 . S
H2636 C2622 0.960 . S
H2637 C2623 0.961 . S
H2638 C2623 0.961 . S
H2639 C2623 0.961 . S
H2640 C2624 0.931 . S
H2641 C2629 0.930 . S
H2642 C2630 0.956 . S
H2643 C2630 0.961 . S
H2644 C2630 0.961 . S
H2645 C2631 0.958 . S
H2646 C2631 0.961 . S
H2647 C2631 0.960 . S
C2648 C2649 1.391 . S
C2648 C2650 1.394 . S
C2648 H2664 0.931 . S
C2649 C2648 1.391 . S
C2649 C2653 1.376 . S
C2650 C2648 1.394 . S
C2650 C2651 1.369 . S
C2650 C2654 1.531 . S
C2651 C2650 1.369 . S
C2651 C2652 1.410 . S
C2651 C2659 1.503 . S
C2652 C2651 1.410 . S
C2652 C2653 1.392 . S
C2652 C2655 1.511 . S
C2653 C2649 1.376 . S
C2653 C2652 1.392 . S
C2653 H2665 0.929 . S
C2654 C2650 1.531 . S
C2654 H2666 0.960 . S
C2654 H2667 0.962 . S
C2654 H2668 0.960 . S
C2655 C2652 1.511 . S
C2655 H2669 0.961 . S
C2655 H2670 0.961 . S
C2655 H2671 0.961 . S
C2656 C2657 1.370 . S
C2656 C2658 1.363 . S
C2656 H2672 0.931 . S
C2657 C2656 1.370 . S
C2657 C2661 1.408 . S
C2658 C2656 1.363 . S
C2658 C2659 1.370 . S
C2658 C2662 1.524 . S
C2659 C2651 1.503 . S
C2659 C2658 1.370 . S
C2659 C2660 1.403 . S
C2660 C2659 1.403 . S
C2660 C2661 1.404 . S
C2660 C2663 1.539 . S
C2661 C2657 1.408 . S
C2661 C2660 1.404 . S
C2661 H2673 0.930 . S
C2662 C2658 1.524 . S
C2662 H2674 0.956 . S
C2662 H2675 0.961 . S
C2662 H2676 0.961 . S
C2663 C2660 1.539 . S
C2663 H2677 0.958 . S
C2663 H2678 0.961 . S
C2663 H2679 0.960 . S
H2664 C2648 0.931 . S
H2665 C2653 0.929 . S
H2666 C2654 0.960 . S
H2667 C2654 0.962 . S
H2668 C2654 0.960 . S
H2669 C2655 0.961 . S
H2670 C2655 0.961 . S
H2671 C2655 0.961 . S
H2672 C2656 0.931 . S
H2673 C2661 0.930 . S
H2674 C2662 0.956 . S
H2675 C2662 0.961 . S
H2676 C2662 0.961 . S
H2677 C2663 0.958 . S
H2678 C2663 0.961 . S
H2679 C2663 0.960 . S
C2680 C2681 1.391 . S
C2680 C2682 1.394 . S
C2680 H2696 0.931 . S
C2681 C2680 1.391 . S
C2681 C2685 1.376 . S
C2682 C2680 1.394 . S
C2682 C2683 1.369 . S
C2682 C2686 1.531 . S
C2683 C2682 1.369 . S
C2683 C2684 1.410 . S
C2683 C2691 1.503 . S
C2684 C2683 1.410 . S
C2684 C2685 1.392 . S
C2684 C2687 1.511 . S
C2685 C2681 1.376 . S
C2685 C2684 1.392 . S
C2685 H2697 0.929 . S
C2686 C2682 1.531 . S
C2686 H2698 0.960 . S
C2686 H2699 0.962 . S
C2686 H2700 0.960 . S
C2687 C2684 1.511 . S
C2687 H2701 0.961 . S
C2687 H2702 0.961 . S
C2687 H2703 0.961 . S
C2688 C2689 1.370 . S
C2688 C2690 1.363 . S
C2688 H2704 0.931 . S
C2689 C2688 1.370 . S
C2689 C2693 1.408 . S
C2690 C2688 1.363 . S
C2690 C2691 1.370 . S
C2690 C2694 1.524 . S
C2691 C2683 1.503 . S
C2691 C2690 1.370 . S
C2691 C2692 1.403 . S
C2692 C2691 1.403 . S
C2692 C2693 1.404 . S
C2692 C2695 1.539 . S
C2693 C2689 1.408 . S
C2693 C2692 1.404 . S
C2693 H2705 0.930 . S
C2694 C2690 1.524 . S
C2694 H2706 0.956 . S
C2694 H2707 0.961 . S
C2694 H2708 0.961 . S
C2695 C2692 1.539 . S
C2695 H2709 0.958 . S
C2695 H2710 0.961 . S
C2695 H2711 0.960 . S
H2696 C2680 0.931 . S
H2697 C2685 0.929 . S
H2698 C2686 0.960 . S
H2699 C2686 0.962 . S
H2700 C2686 0.960 . S
H2701 C2687 0.961 . S
H2702 C2687 0.961 . S
H2703 C2687 0.961 . S
H2704 C2688 0.931 . S
H2705 C2693 0.930 . S
H2706 C2694 0.956 . S
H2707 C2694 0.961 . S
H2708 C2694 0.961 . S
H2709 C2695 0.958 . S
H2710 C2695 0.961 . S
H2711 C2695 0.960 . S
C2712 C2713 1.391 . S
C2712 C2714 1.394 . S
C2712 H2728 0.931 . S
C2713 C2712 1.391 . S
C2713 C2717 1.376 . S
C2714 C2712 1.394 . S
C2714 C2715 1.369 . S
C2714 C2718 1.531 . S
C2715 C2714 1.369 . S
C2715 C2716 1.410 . S
C2715 C2723 1.503 . S
C2716 C2715 1.410 . S
C2716 C2717 1.392 . S
C2716 C2719 1.511 . S
C2717 C2713 1.376 . S
C2717 C2716 1.392 . S
C2717 H2729 0.929 . S
C2718 C2714 1.531 . S
C2718 H2730 0.960 . S
C2718 H2731 0.962 . S
C2718 H2732 0.960 . S
C2719 C2716 1.511 . S
C2719 H2733 0.961 . S
C2719 H2734 0.961 . S
C2719 H2735 0.961 . S
C2720 C2721 1.370 . S
C2720 C2722 1.363 . S
C2720 H2736 0.931 . S
C2721 C2720 1.370 . S
C2721 C2725 1.408 . S
C2722 C2720 1.363 . S
C2722 C2723 1.370 . S
C2722 C2726 1.524 . S
C2723 C2715 1.503 . S
C2723 C2722 1.370 . S
C2723 C2724 1.403 . S
C2724 C2723 1.403 . S
C2724 C2725 1.404 . S
C2724 C2727 1.539 . S
C2725 C2721 1.408 . S
C2725 C2724 1.404 . S
C2725 H2737 0.930 . S
C2726 C2722 1.524 . S
C2726 H2738 0.956 . S
C2726 H2739 0.961 . S
C2726 H2740 0.961 . S
C2727 C2724 1.539 . S
C2727 H2741 0.958 . S
C2727 H2742 0.961 . S
C2727 H2743 0.960 . S
H2728 C2712 0.931 . S
H2729 C2717 0.929 . S
H2730 C2718 0.960 . S
H2731 C2718 0.962 . S
H2732 C2718 0.960 . S
H2733 C2719 0.961 . S
H2734 C2719 0.961 . S
H2735 C2719 0.961 . S
H2736 C2720 0.931 . S
H2737 C2725 0.930 . S
H2738 C2726 0.956 . S
H2739 C2726 0.961 . S
H2740 C2726 0.961 . S
H2741 C2727 0.958 . S
H2742 C2727 0.961 . S
H2743 C2727 0.960 . S
C2744 C2745 1.391 . S
C2744 C2746 1.394 . S
C2744 H2760 0.931 . S
C2745 C2744 1.391 . S
C2745 C2749 1.376 . S
C2746 C2744 1.394 . S
C2746 C2747 1.369 . S
C2746 C2750 1.531 . S
C2747 C2746 1.369 . S
C2747 C2748 1.410 . S
C2747 C2755 1.503 . S
C2748 C2747 1.410 . S
C2748 C2749 1.392 . S
C2748 C2751 1.511 . S
C2749 C2745 1.376 . S
C2749 C2748 1.392 . S
C2749 H2761 0.929 . S
C2750 C2746 1.531 . S
C2750 H2762 0.960 . S
C2750 H2763 0.962 . S
C2750 H2764 0.960 . S
C2751 C2748 1.511 . S
C2751 H2765 0.961 . S
C2751 H2766 0.961 . S
C2751 H2767 0.961 . S
C2752 C2753 1.370 . S
C2752 C2754 1.363 . S
C2752 H2768 0.931 . S
C2753 C2752 1.370 . S
C2753 C2757 1.408 . S
C2754 C2752 1.363 . S
C2754 C2755 1.370 . S
C2754 C2758 1.524 . S
C2755 C2747 1.503 . S
C2755 C2754 1.370 . S
C2755 C2756 1.403 . S
C2756 C2755 1.403 . S
C2756 C2757 1.404 . S
C2756 C2759 1.539 . S
C2757 C2753 1.408 . S
C2757 C2756 1.404 . S
C2757 H2769 0.930 . S
C2758 C2754 1.524 . S
C2758 H2770 0.956 . S
C2758 H2771 0.961 . S
C2758 H2772 0.961 . S
C2759 C2756 1.539 . S
C2759 H2773 0.958 . S
C2759 H2774 0.961 . S
C2759 H2775 0.960 . S
H2760 C2744 0.931 . S
H2761 C2749 0.929 . S
H2762 C2750 0.960 . S
H2763 C2750 0.962 . S
H2764 C2750 0.960 . S
H2765 C2751 0.961 . S
H2766 C2751 0.961 . S
H2767 C2751 0.961 . S
H2768 C2752 0.931 . S
H2769 C2757 0.930 . S
H2770 C2758 0.956 . S
H2771 C2758 0.961 . S
H2772 C2758 0.961 . S
H2773 C2759 0.958 . S
H2774 C2759 0.961 . S
H2775 C2759 0.960 . S
C2776 C2777 1.391 . S
C2776 C2778 1.394 . S
C2776 H2792 0.931 . S
C2777 C2776 1.391 . S
C2777 C2781 1.376 . S
C2778 C2776 1.394 . S
C2778 C2779 1.369 . S
C2778 C2782 1.531 . S
C2779 C2778 1.369 . S
C2779 C2780 1.410 . S
C2779 C2787 1.503 . S
C2780 C2779 1.410 . S
C2780 C2781 1.392 . S
C2780 C2783 1.511 . S
C2781 C2777 1.376 . S
C2781 C2780 1.392 . S
C2781 H2793 0.929 . S
C2782 C2778 1.531 . S
C2782 H2794 0.960 . S
C2782 H2795 0.962 . S
C2782 H2796 0.960 . S
C2783 C2780 1.511 . S
C2783 H2797 0.961 . S
C2783 H2798 0.961 . S
C2783 H2799 0.961 . S
C2784 C2785 1.370 . S
C2784 C2786 1.363 . S
C2784 H2800 0.931 . S
C2785 C2784 1.370 . S
C2785 C2789 1.408 . S
C2786 C2784 1.363 . S
C2786 C2787 1.370 . S
C2786 C2790 1.524 . S
C2787 C2779 1.503 . S
C2787 C2786 1.370 . S
C2787 C2788 1.403 . S
C2788 C2787 1.403 . S
C2788 C2789 1.404 . S
C2788 C2791 1.539 . S
C2789 C2785 1.408 . S
C2789 C2788 1.404 . S
C2789 H2801 0.930 . S
C2790 C2786 1.524 . S
C2790 H2802 0.956 . S
C2790 H2803 0.961 . S
C2790 H2804 0.961 . S
C2791 C2788 1.539 . S
C2791 H2805 0.958 . S
C2791 H2806 0.961 . S
C2791 H2807 0.960 . S
H2792 C2776 0.931 . S
H2793 C2781 0.929 . S
H2794 C2782 0.960 . S
H2795 C2782 0.962 . S
H2796 C2782 0.960 . S
H2797 C2783 0.961 . S
H2798 C2783 0.961 . S
H2799 C2783 0.961 . S
H2800 C2784 0.931 . S
H2801 C2789 0.930 . S
H2802 C2790 0.956 . S
H2803 C2790 0.961 . S
H2804 C2790 0.961 . S
H2805 C2791 0.958 . S
H2806 C2791 0.961 . S
H2807 C2791 0.960 . S
C505 C35 1.260 . S
C513 C256 1.089 . S
C537 C7 1.286 . S
C545 C272 1.139 . S
C577 C255 1.153 1_655 S
C569 C23 1.248 . S
C609 C280 1.076 . S
C601 C37 1.260 . S
C633 C9 1.313 . S
C641 C289 1.152 . S
C673 C292 1.096 . S
C665 C21 1.265 . S
C697 C77 1.275 . S
C705 C298 1.114 . S
C737 C314 1.127 . S
C729 C49 1.284 . S
C769 C297 1.154 . S
C761 C65 1.273 . S
C793 C79 1.264 . S
C801 C322 1.133 . S
C833 C331 1.111 . S
C825 C51 1.292 . S
C865 C334 1.119 . S
C857 C63 1.278 . S
C897 C343 1.091 . S
C889 C119 1.257 . S
C929 C355 1.094 . S
C921 C91 1.263 . S
C961 C352 1.112 . S
C953 C107 1.291 . S
C985 C121 1.244 . S
C993 C361 1.077 . S
C1025 C360 1.164 . S
C1017 C93 1.276 . S
C1049 C105 1.281 . S
C1057 C377 1.136 . S
C1089 C382 1.104 . S
C1081 C161 1.270 . S
C1121 C398 1.123 . S
C1113 C133 1.281 . S
C1145 C149 1.280 . S
C1153 C381 1.150 . S
C1185 C406 1.120 . S
C1177 C163 1.281 . S
C1217 C415 1.160 . S
C1209 C135 1.263 . S
C1241 C147 1.253 . S
C1249 C418 1.091 . S
C1273 C203 1.257 . S
C1281 C427 1.094 . S
C1313 C439 1.127 . S
C1305 C175 1.291 . S
C1345 C436 1.100 . S
C1337 C191 1.277 . S
C1369 C205 1.272 . S
C1377 C445 1.082 . S
C1409 C444 1.147 . S
C1401 C177 1.314 . S
C1433 C189 1.272 . S
C1441 C461 1.126 . S
C1473 C466 1.135 . S
C1465 C245 1.294 . S
C1505 C482 1.091 . S
C1497 C217 1.255 . S
C1529 C233 1.296 . S
C1537 C465 1.128 . S
C1569 C487 1.089 . S
C1561 C247 1.237 . S
C1601 C486 1.112 . S
C1593 C219 1.281 . S
C1633 C503 1.145 . S
C1625 C231 1.296 . S
C1665 C268 1.507 . S
C1657 C162 1.605 . S
C1689 C134 1.594 . S
C1697 C271 1.510 . S
C1729 C259 1.431 . S
C1721 C143 1.566 . S
C1753 C241 1.594 . S
C1761 C276 1.513 . S
C1785 C213 1.587 . S
C1793 C277 1.498 . S
C1825 C293 1.516 1_565 S
C1817 C232 1.617 . S
C1857 C310 1.511 1_565 S
C1849 C204 1.585 . S
C1889 C313 1.486 . S
C1881 C176 1.589 . S
C1913 C185 1.563 . S
C1921 C301 1.440 . S
C1953 C318 1.492 1_655 S
C1945 C115 1.605 . S
C1977 C87 1.602 . S
C1985 C319 1.467 . S
C2009 C106 1.615 . S
C2017 C335 1.498 . S
C2041 C246 1.605 . S
C2049 C339 1.494 . S
C2073 C218 1.605 . S
C2081 C356 1.501 . S
C2113 C340 1.430 . S
C2105 C227 1.567 . S
C2145 C373 1.487 . S
C2137 C73 1.607 . S
C2177 C364 1.469 . S
C2169 C45 1.601 . S
C2201 C64 1.615 . S
C2209 C376 1.522 . S
C2241 C394 1.487 . S
C2233 C36 1.591 . S
C2273 C397 1.501 . S
C2265 C8 1.586 . S
C2297 C17 1.556 . S
C2305 C385 1.452 . S
C2337 C402 1.502 . S
C2329 C199 1.600 . S
C2369 C403 1.484 . S
C2361 C171 1.595 1_655 S
C2401 C419 1.527 . S
C2393 C190 1.607 . S
C2433 C423 1.502 . S
C2425 C78 1.606 . S
C2465 C440 1.480 . S
C2457 C50 1.590 . S
C2489 C59 1.566 . S
C2497 C424 1.431 . S
C2521 C157 1.594 1_565 S
C2529 C457 1.513 . S
C2553 C129 1.587 . S
C2561 C448 1.497 . S
C2593 C460 1.511 . S
C2585 C148 1.597 . S
C2617 C120 1.606 . S
C2625 C478 1.492 . S
C2649 C92 1.586 . S
C2657 C481 1.503 . S
C2689 C469 1.431 . S
C2681 C101 1.567 1_565 S
C2721 C499 1.496 . S
C2713 C31 1.602 . S
C2753 C490 1.493 . S
C2745 C3 1.590 . S
C2777 C22 1.609 . S
C2785 C502 1.526 . S
