# Generated by pormake.
# Topology pth, (4,4)-cn, num edge types: 1
# Building blocks:
#     Node 0, Type 0, BuildingBlock: CEKHIL_clean_sbu_0, # of connection points: 4
#     Node 1, Type 0, BuildingBlock: CEKHIL_clean_sbu_0, # of connection points: 4
#     Node 2, Type 0, BuildingBlock: CEKHIL_clean_sbu_0, # of connection points: 4
#     Node 3, Type 1, BuildingBlock: KOZSID_clean_sbu_0, # of connection points: 4
#     Node 4, Type 1, BuildingBlock: KOZSID_clean_sbu_0, # of connection points: 4
#     Node 5, Type 1, BuildingBlock: KOZSID_clean_sbu_0, # of connection points: 4
#     Edge 6, Type (0, 1), BuildingBlock: FUNLAD_clean_linker_1, # of connection points: 2
#     Edge 7, Type (0, 1), BuildingBlock: FUNLAD_clean_linker_1, # of connection points: 2
#     Edge 8, Type (0, 1), BuildingBlock: FUNLAD_clean_linker_1, # of connection points: 2
#     Edge 9, Type (0, 1), BuildingBlock: FUNLAD_clean_linker_1, # of connection points: 2
#     Edge 10, Type (0, 1), BuildingBlock: FUNLAD_clean_linker_1, # of connection points: 2
#     Edge 11, Type (0, 1), BuildingBlock: FUNLAD_clean_linker_1, # of connection points: 2
#     Edge 12, Type (0, 1), BuildingBlock: FUNLAD_clean_linker_1, # of connection points: 2
#     Edge 13, Type (0, 1), BuildingBlock: FUNLAD_clean_linker_1, # of connection points: 2
#     Edge 14, Type (0, 1), BuildingBlock: FUNLAD_clean_linker_1, # of connection points: 2
#     Edge 15, Type (0, 1), BuildingBlock: FUNLAD_clean_linker_1, # of connection points: 2
#     Edge 16, Type (0, 1), BuildingBlock: FUNLAD_clean_linker_1, # of connection points: 2
#     Edge 17, Type (0, 1), BuildingBlock: FUNLAD_clean_linker_1, # of connection points: 2
# Relax obj value: 0.006
# Max RMSD: 0.056
# Mean RMSD: 0.040
data_MOF--net-pth--node1-CEKHIL_clean_sbu_0--node2-KOZSID_clean_sbu_0--edge1-FUNLAD_clean_linker_1
_symmetry_space_group_name_H-M    P1
_symmetry_Int_Tables_number       1
_symmetry_cell_setting            triclinic
loop_
_symmetry_equiv_pos_as_xyz
'x, y, z'
_cell_length_a     27.113367
_cell_length_b     27.294404
_cell_length_c     62.965524
_cell_angle_alpha  88.372187
_cell_angle_beta   87.439141
_cell_angle_gamma 120.28602
loop_
_atom_site_label
_atom_site_type_symbol
_atom_site_fract_x
_atom_site_fract_y
_atom_site_fract_z
_atom_type_partial_charge
Co0 Co 0.06506 0.05345 0.05361 0.0
O1 O 0.01675 0.99302 0.07466 0.0
O2 O 0.09132 0.99909 0.05638 0.0
C3 C 0.07629 0.12534 0.07393 0.0
O4 O 0.12714 0.11098 0.03149 0.0
Co5 Co 0.0271 0.13336 0.03442 0.0
O6 O 0.10787 0.17987 0.02296 0.0
C7 C 0.97605 0.01633 0.02026 0.0
C8 C 0.04982 0.97225 0.07106 0.0
C9 C 0.14101 0.15945 0.02219 0.0
O10 O 0.0122 0.00906 0.03057 0.0
O11 O 0.97241 0.0612 0.0211 0.0
O12 O 0.10777 0.10242 0.07602 0.0
O13 O 0.03615 0.10162 0.06091 0.0
Co14 Co 0.04251 0.08587 0.36885 0.0
O15 O 0.01462 0.1147 0.34668 0.0
O16 O 0.08966 0.16796 0.36483 0.0
C17 C 0.03813 0.01333 0.35058 0.0
O18 O 0.08721 0.07279 0.39188 0.0
Co19 Co 0.96876 0.96587 0.39082 0.0
O20 O 0.04101 0.98004 0.40252 0.0
C21 C 0.94522 0.05613 0.40289 0.0
C22 C 0.05659 0.16502 0.35001 0.0
C23 C 0.08432 0.0299 0.40236 0.0
O24 O 0.98936 0.09278 0.39096 0.0
O25 O 0.9282 0.00297 0.40414 0.0
O26 O 0.08163 0.06459 0.34726 0.0
O27 O 0.99712 0.00825 0.36345 0.0
Co28 Co 0.05062 0.06491 0.70266 0.0
O29 O 0.10587 0.10488 0.67882 0.0
O30 O 0.09574 0.02889 0.69647 0.0
C31 C 0.97569 0.06384 0.68734 0.0
O32 O 0.99582 0.00968 0.72722 0.0
Co33 Co 0.99313 0.12143 0.72743 0.0
O34 O 0.93829 0.04244 0.73832 0.0
C35 C 0.11226 0.15497 0.73515 0.0
C36 C 0.12209 0.06787 0.68108 0.0
C37 C 0.95129 0.0037 0.7381 0.0
O38 O 0.10866 0.11602 0.72309 0.0
O39 O 0.07188 0.16598 0.73808 0.0
O40 O 0.99022 0.02644 0.68284 0.0
O41 O 0.00922 0.10285 0.69941 0.0
C42 C 0.12092 0.65872 0.17237 0.0
C43 C 0.17607 0.69282 0.16283 0.0
C44 C 0.21247 0.68617 0.17518 0.0
C45 C 0.17828 0.64843 0.19148 0.0
N46 N 0.12188 0.62975 0.1902 0.0
Co47 Co 0.05795 0.57192 0.21038 0.0
N48 N 0.1123 0.56264 0.22841 0.0
C49 C 0.17001 0.59413 0.2264 0.0
C50 C 0.19615 0.58272 0.24232 0.0
C51 C 0.15249 0.54016 0.25496 0.0
C52 C 0.10205 0.52629 0.24548 0.0
N53 N 0.99409 0.51355 0.23046 0.0
C54 C 0.99505 0.48185 0.24736 0.0
C55 C 0.94043 0.44804 0.25729 0.0
C56 C 0.90389 0.45677 0.24577 0.0
C57 C 0.93779 0.49564 0.22968 0.0
N58 N 1.00348 0.58129 0.19244 0.0
C59 C 0.94568 0.55146 0.19525 0.0
C60 C 0.91881 0.56142 0.17928 0.0
C61 C 0.96196 0.60098 0.16567 0.0
C62 C 0.01323 0.61501 0.17454 0.0
N63 N 0.0522 0.51031 0.19249 0.0
C64 C 0.04489 0.42559 0.16563 0.0
C65 C 0.99601 0.42655 0.17298 0.0
C66 C 1.00044 0.46844 0.1864 0.0
C67 C 0.09767 0.46756 0.1723 0.0
C68 C 0.1002 0.50887 0.18568 0.0
N69 N 0.06382 0.63392 0.2283 0.0
C70 C 0.0187 0.67651 0.24892 0.0
C71 C 0.07188 0.72092 0.25423 0.0
C72 C 0.1207 0.72092 0.24614 0.0
C73 C 0.11585 0.67786 0.23328 0.0
C74 C 0.0158 0.63423 0.23598 0.0
H75 H 0.15501 0.68148 0.22748 0.0
H76 H 0.97405 0.60235 0.23236 0.0
H77 H 0.96135 0.46601 0.19164 0.0
H78 H 0.1416 0.53942 0.19027 0.0
C79 C 0.19825 0.63178 0.20873 0.0
C80 C 0.07008 0.65963 0.16528 0.0
C81 C 0.04538 0.47829 0.25299 0.0
C82 C 0.91775 0.51352 0.21287 0.0
H83 H 0.18986 0.72095 0.14868 0.0
H84 H 0.25863 0.70735 0.1728 0.0
H85 H 0.24156 0.60256 0.24439 0.0
H86 H 0.1576 0.52147 0.26946 0.0
H87 H 0.92735 0.41884 0.27111 0.0
H88 H 0.85782 0.43596 0.24846 0.0
H89 H 0.87325 0.54153 0.17754 0.0
H90 H 0.95568 0.61659 0.15074 0.0
H91 H 0.9541 0.39478 0.16844 0.0
H92 H 0.13727 0.46974 0.16705 0.0
H93 H 0.97905 0.67342 0.25471 0.0
H94 H 0.16294 0.75443 0.24964 0.0
C95 C 0.44606 0.02001 0.57897 0.0
C96 C 0.40451 0.9656 0.58657 0.0
C97 C 0.40313 0.92909 0.57193 0.0
C98 C 0.4453 0.96267 0.5566 0.0
N99 N 0.47418 0.01803 0.56085 0.0
Co100 Co 0.54335 0.07911 0.54397 0.0
N101 N 0.55216 0.02341 0.52667 0.0
C102 C 0.51333 0.96769 0.52613 0.0
C103 C 0.53295 0.93838 0.51462 0.0
C104 C 0.58743 0.97806 0.50731 0.0
C105 C 0.59765 0.03009 0.51416 0.0
N106 N 0.61213 0.14001 0.52707 0.0
C107 C 0.65373 0.13735 0.51519 0.0
C108 C 0.69471 0.19101 0.50659 0.0
C109 C 0.67807 0.22811 0.51324 0.0
C110 C 0.628 0.1954 0.52548 0.0
N111 N 0.53497 0.13508 0.56118 0.0
C112 C 0.56055 0.19127 0.55603 0.0
C113 C 0.54755 0.22018 0.57053 0.0
C114 C 0.51062 0.17973 0.58563 0.0
C115 C 0.50274 0.12773 0.57951 0.0
N116 N 0.59368 0.07548 0.56484 0.0
C117 C 0.67422 0.07282 0.59083 0.0
C118 C 0.68053 0.12439 0.58321 0.0
C119 C 0.63944 0.12486 0.57069 0.0
C120 C 0.62564 0.02233 0.58576 0.0
C121 C 0.58621 0.0246 0.5726 0.0
N122 N 0.49369 0.08329 0.52294 0.0
C123 C 0.47409 0.09076 0.48634 0.0
C124 C 0.42325 0.08959 0.49262 0.0
C125 C 0.40882 0.08579 0.51456 0.0
C126 C 0.44445 0.08268 0.52935 0.0
C127 C 0.50839 0.08734 0.50162 0.0
H128 H 0.43208 0.08012 0.54601 0.0
H129 H 0.54703 0.08815 0.49611 0.0
H130 H 0.64587 0.16549 0.56521 0.0
H131 H 0.55066 0.98511 0.56826 0.0
C132 C 0.46457 0.94252 0.54005 0.0
C133 C 0.45664 0.07234 0.58913 0.0
C134 C 0.65148 0.08456 0.50913 0.0
C135 C 0.60151 0.21633 0.53891 0.0
H136 H 0.3788 0.95321 0.60142 0.0
H137 H 0.37663 0.88322 0.57295 0.0
H138 H 0.51192 0.89291 0.51314 0.0
H139 H 0.61702 0.96878 0.49894 0.0
H140 H 0.73234 0.2023 0.49633 0.0
H141 H 0.70106 0.2738 0.51023 0.0
H142 H 0.56348 0.26542 0.57029 0.0
H143 H 0.49034 0.18789 0.59914 0.0
H144 H 0.71737 0.16435 0.58681 0.0
H145 H 0.61943 0.98141 0.59111 0.0
H146 H 0.48727 0.09402 0.46961 0.0
H147 H 0.371 0.08621 0.52048 0.0
C148 C 0.67705 0.58853 0.84277 0.0
C149 C 0.71177 0.56868 0.83441 0.0
C150 C 0.69924 0.52107 0.84645 0.0
C151 C 0.65768 0.51401 0.86139 0.0
N152 N 0.64236 0.55386 0.8596 0.0
Co153 Co 0.57959 0.55493 0.87735 0.0
N154 N 0.56728 0.48952 0.89706 0.0
C155 C 0.59809 0.46307 0.89596 0.0
C156 C 0.57886 0.41767 0.91027 0.0
C157 C 0.53269 0.41435 0.92115 0.0
C158 C 0.52663 0.45911 0.9132 0.0
N159 N 0.51439 0.55382 0.89412 0.0
C160 C 0.47696 0.51645 0.90979 0.0
C161 C 0.43653 0.53111 0.91627 0.0
C162 C 0.44703 0.57719 0.9037 0.0
C163 C 0.49346 0.58872 0.89047 0.0
N164 N 0.59469 0.62289 0.8587 0.0
C165 C 0.56478 0.65023 0.85978 0.0
C166 C 0.58163 0.69278 0.84432 0.0
C167 C 0.62625 0.69402 0.833 0.0
C168 C 0.63564 0.65321 0.8427 0.0
N169 N 0.52278 0.50103 0.85781 0.0
C170 C 0.43638 0.42179 0.83285 0.0
C171 C 0.45079 0.47873 0.8322 0.0
C172 C 0.49334 0.51716 0.84483 0.0
C173 C 0.46665 0.40549 0.84576 0.0
C174 C 0.51 0.44549 0.8576 0.0
N175 N 0.6358 0.60813 0.89683 0.0
C176 C 0.66928 0.68846 0.91917 0.0
C177 C 0.71612 0.68323 0.92463 0.0
C178 C 0.72153 0.63954 0.91586 0.0
C179 C 0.68157 0.60301 0.90211 0.0
C180 C 0.63016 0.6509 0.90533 0.0
H181 H 0.68856 0.57087 0.89589 0.0
H182 H 0.59556 0.6572 0.9017 0.0
H183 H 0.50063 0.55933 0.84399 0.0
H184 H 0.53186 0.42975 0.86663 0.0
C185 C 0.63709 0.47459 0.87872 0.0
C186 C 0.68227 0.64306 0.83568 0.0
C187 C 0.47794 0.46709 0.91934 0.0
C188 C 0.51828 0.632 0.87449 0.0
H189 H 0.74415 0.58688 0.82135 0.0
H190 H 0.71964 0.49584 0.84499 0.0
H191 H 0.59368 0.38761 0.91146 0.0
H192 H 0.505 0.3797 0.93241 0.0
H193 H 0.40262 0.51063 0.92879 0.0
H194 H 0.42337 0.59941 0.90406 0.0
H195 H 0.5627 0.71876 0.84125 0.0
H196 H 0.64807 0.72127 0.81887 0.0
H197 H 0.42788 0.49325 0.82264 0.0
H198 H 0.45704 0.3618 0.84667 0.0
H199 H 0.66188 0.72068 0.92558 0.0
H200 H 0.75685 0.63353 0.91955 0.0
H201 H 0.12228 0.19283 0.09601 0.0
C202 C 0.08518 0.17377 0.08654 0.0
H203 H 0.00927 0.17232 0.07917 0.0
H204 H 0.99828 0.27623 0.16756 0.0
H205 H 0.9246 0.17778 0.17489 0.0
H206 H 0.90923 0.1057 0.14917 0.0
H207 H 0.96809 0.13164 0.11603 0.0
C208 C 0.04804 0.19276 0.0877 0.0
C209 C 0.05549 0.23759 0.10252 0.0
C210 C 0.01943 0.22233 0.1215 0.0
C211 C 0.02731 0.26432 0.1361 0.0
C212 C 0.99284 0.24684 0.15549 0.0
C213 C 0.95063 0.19024 0.16001 0.0
C214 C 0.94206 0.14964 0.14555 0.0
C215 C 0.97608 0.16516 0.12656 0.0
H216 H 0.99823 0.35783 0.14344 0.0
C217 C 0.03869 0.38117 0.15082 0.0
H218 H 0.11988 0.38874 0.15353 0.0
H219 H 0.13022 0.28194 0.06723 0.0
H220 H 0.20399 0.38054 0.05973 0.0
H221 H 0.21702 0.4535 0.08472 0.0
H222 H 0.15646 0.42837 0.1174 0.0
C223 C 0.07889 0.36685 0.14654 0.0
C224 C 0.07007 0.32214 0.13138 0.0
C225 C 0.10602 0.33735 0.11235 0.0
C226 C 0.09867 0.29517 0.09792 0.0
C227 C 0.13454 0.31198 0.07889 0.0
C228 C 0.17688 0.36851 0.07433 0.0
C229 C 0.1842 0.40959 0.0884 0.0
C230 C 0.14922 0.39452 0.10715 0.0
H231 H 0.90758 0.11103 0.40795 0.0
C232 C 0.90989 0.07527 0.41474 0.0
H233 H 0.88122 0.0112 0.43923 0.0
H234 H 0.76985 0.17287 0.46877 0.0
H235 H 0.86616 0.25469 0.46525 0.0
H236 H 0.94797 0.24442 0.45288 0.0
H237 H 0.93345 0.15306 0.44304 0.0
C238 C 0.87781 0.04661 0.43272 0.0
C239 C 0.83041 0.05393 0.44241 0.0
C240 C 0.84055 0.10649 0.45002 0.0
C241 C 0.79427 0.11124 0.45942 0.0
C242 C 0.80435 0.16589 0.46388 0.0
C243 C 0.85925 0.21332 0.46148 0.0
C244 C 0.90522 0.20762 0.45435 0.0
C245 C 0.8962 0.15496 0.44859 0.0
H246 H 0.74109 0.1165 0.50118 0.0
C247 C 0.69813 0.08804 0.49651 0.0
H248 H 0.64957 0.04413 0.47037 0.0
H249 H 0.79361 0.94875 0.42713 0.0
H250 H 0.69805 0.86728 0.43138 0.0
H251 H 0.61978 0.87336 0.45013 0.0
H252 H 0.6364 0.96066 0.46442 0.0
C253 C 0.69175 0.06399 0.47651 0.0
C254 C 0.73903 0.06214 0.46354 0.0
C255 C 0.72846 0.01006 0.4551 0.0
C256 C 0.77392 0.0062 0.44447 0.0
C257 C 0.76147 0.95396 0.43587 0.0
C258 C 0.70655 0.90672 0.43804 0.0
C259 C 0.66254 0.91016 0.44858 0.0
C260 C 0.673 0.96095 0.45693 0.0
H261 H 0.87174 0.9463 0.75731 0.0
C262 C 0.9123 0.95099 0.75137 0.0
H263 H 0.9658 0.91562 0.75309 0.0
H264 H 0.83691 0.7907 0.84334 0.0
H265 H 0.93036 0.86153 0.854 0.0
H266 H 1.0031 0.93325 0.82774 0.0
H267 H 0.98299 0.93462 0.79062 0.0
C268 C 0.92444 0.91093 0.75762 0.0
C269 C 0.88315 0.86268 0.7729 0.0
C270 C 0.89564 0.86183 0.79451 0.0
C271 C 0.85335 0.82068 0.80974 0.0
C272 C 0.86709 0.82137 0.8312 0.0
C273 C 0.92062 0.86165 0.83752 0.0
C274 C 0.9616 0.90201 0.82272 0.0
C275 C 0.9495 0.90235 0.80147 0.0
H276 H 0.75326 0.66768 0.81201 0.0
C277 C 0.72984 0.68249 0.82161 0.0
H278 H 0.73924 0.76157 0.83188 0.0
H279 H 0.84812 0.84669 0.73243 0.0
H280 H 0.75465 0.77623 0.72166 0.0
H281 H 0.67996 0.70765 0.74815 0.0
H282 H 0.69828 0.7085 0.78544 0.0
C283 C 0.75217 0.74163 0.81992 0.0
C284 C 0.79851 0.78003 0.80342 0.0
C285 C 0.78685 0.77932 0.78161 0.0
C286 C 0.8294 0.82016 0.76636 0.0
C287 C 0.81686 0.81773 0.7447 0.0
C288 C 0.76351 0.77735 0.73829 0.0
C289 C 0.72151 0.73864 0.7532 0.0
C290 C 0.73273 0.73948 0.7746 0.0
H291 H 1.00108 0.89841 0.09392 0.0
C292 C 0.04077 0.92179 0.08398 0.0
H293 H 0.12191 0.93136 0.07643 0.0
H294 H 0.11875 0.81039 0.1649 0.0
H295 H 0.18886 0.90857 0.1702 0.0
H296 H 0.20651 0.98511 0.14379 0.0
H297 H 0.15392 0.96401 0.11192 0.0
C298 C 0.0806 0.90641 0.08525 0.0
C299 C 0.07182 0.85925 0.10063 0.0
C300 C 0.10371 0.87196 0.119 0.0
C301 C 0.09384 0.82763 0.13421 0.0
C302 C 0.12505 0.8421 0.1527 0.0
C303 C 0.16532 0.89836 0.15599 0.0
C304 C 0.17524 0.94146 0.14111 0.0
C305 C 0.14482 0.92872 0.12286 0.0
H306 H 0.11718 0.72571 0.14 0.0
C307 C 0.07761 0.70299 0.14987 0.0
H308 H 1.0026 0.70981 0.15823 0.0
H309 H 0.00692 0.81912 0.06636 0.0
H310 H 0.93786 0.72078 0.06076 0.0
H311 H 0.92122 0.64409 0.08693 0.0
H312 H 0.97363 0.66539 0.11881 0.0
C313 C 0.04001 0.7239 0.14737 0.0
C314 C 0.05274 0.77029 0.1309 0.0
C315 C 0.02196 0.75746 0.11224 0.0
C316 C 0.03147 0.80183 0.09712 0.0
C317 C 1.00064 0.78736 0.07853 0.0
C318 C 0.9611 0.73102 0.07505 0.0
C319 C 0.95173 0.68785 0.08978 0.0
C320 C 0.98185 0.70066 0.10811 0.0
H321 H 0.12345 0.9993 0.42509 0.0
C322 C 0.1311 0.03675 0.41561 0.0
H323 H 0.19002 0.12363 0.40786 0.0
H324 H 0.31967 0.15886 0.49279 0.0
H325 H 0.28154 0.22194 0.49636 0.0
H326 H 0.21701 0.22398 0.47041 0.0
H327 H 0.19049 0.16331 0.44063 0.0
C328 C 0.18163 0.08511 0.41668 0.0
C329 C 0.22517 0.08757 0.43128 0.0
C330 C 0.24039 0.1233 0.44866 0.0
C331 C 0.27699 0.12144 0.46387 0.0
C332 C 0.29146 0.15787 0.48097 0.0
C333 C 0.26999 0.19442 0.48319 0.0
C334 C 0.23372 0.19562 0.46856 0.0
C335 C 0.21887 0.16055 0.4515 0.0
H336 H 0.40783 0.10856 0.45985 0.0
C337 C 0.38777 0.0938 0.47587 0.0
H338 H 0.31029 0.06321 0.49483 0.0
H339 H 0.21498 0.02232 0.39771 0.0
H340 H 0.25119 0.95759 0.39448 0.0
H341 H 0.30701 0.94777 0.42244 0.0
H342 H 0.32812 0.00349 0.45352 0.0
C343 C 0.3321 0.07838 0.47914 0.0
C344 C 0.29825 0.0836 0.46188 0.0
C345 C 0.28428 0.0489 0.44417 0.0
C346 C 0.24919 0.05214 0.42859 0.0
C347 C 0.23889 0.01947 0.4105 0.0
C348 C 0.25984 0.98249 0.40836 0.0
C349 C 0.29147 0.97715 0.42406 0.0
C350 C 0.30361 0.00976 0.44179 0.0
H351 H 0.2055 0.19309 0.73842 0.0
C352 C 0.16674 0.19039 0.74537 0.0
H353 H 0.13029 0.21689 0.76932 0.0
H354 H 0.39669 0.30274 0.79878 0.0
H355 H 0.37441 0.20524 0.79678 0.0
H356 H 0.28153 0.13182 0.78489 0.0
H357 H 0.21142 0.15591 0.77413 0.0
C358 C 0.16943 0.22002 0.76254 0.0
C359 C 0.22446 0.26248 0.77156 0.0
C360 C 0.26322 0.2467 0.77937 0.0
C361 C 0.31487 0.28813 0.78802 0.0
C362 C 0.35522 0.27235 0.79356 0.0
C363 C 0.34324 0.21659 0.79227 0.0
C364 C 0.2911 0.17534 0.78545 0.0
C365 C 0.2514 0.18993 0.77909 0.0
H366 H 0.36086 0.33658 0.82968 0.0
C367 C 0.38779 0.37809 0.82148 0.0
H368 H 0.40448 0.42829 0.79317 0.0
H369 H 0.16287 0.30932 0.7567 0.0
H370 H 0.18207 0.40499 0.76103 0.0
H371 H 0.2656 0.47341 0.77958 0.0
H372 H 0.331 0.4469 0.79358 0.0
C373 C 0.37694 0.38713 0.80151 0.0
C374 C 0.32534 0.34407 0.79081 0.0
C375 C 0.28625 0.35959 0.78324 0.0
C376 C 0.23667 0.31931 0.77325 0.0
C377 C 0.20005 0.33724 0.76506 0.0
C378 C 0.2107 0.39227 0.76732 0.0
C379 C 0.25781 0.43082 0.77771 0.0
C380 C 0.29521 0.41497 0.7856 0.0
H381 H 0.90604 0.08373 0.68787 0.0
C382 C 0.92511 0.0632 0.67896 0.0
H383 H 0.92498 0.02183 0.65131 0.0
H384 H 0.68267 0.93421 0.6193 0.0
H385 H 0.68427 0.84738 0.62602 0.0
H386 H 0.76227 0.84777 0.64483 0.0
H387 H 0.83978 0.93523 0.65668 0.0
C388 C 0.90513 0.04182 0.66011 0.0
C389 C 0.8549 0.04192 0.65082 0.0
C390 C 0.80835 0.99 0.64468 0.0
C391 C 0.76203 0.98943 0.6345 0.0
C392 C 0.71802 0.93719 0.62762 0.0
C393 C 0.71846 0.88687 0.6313 0.0
C394 C 0.76244 0.88711 0.64184 0.0
C395 C 0.80689 0.93783 0.64847 0.0
H396 H 0.76481 0.10473 0.59696 0.0
C397 C 0.7211 0.07327 0.60247 0.0
H398 H 0.6685 0.00839 0.62569 0.0
H399 H 0.94096 0.15126 0.65625 0.0
H400 H 0.93448 0.2363 0.65319 0.0
H401 H 0.84634 0.23204 0.64213 0.0
H402 H 0.76531 0.14301 0.63306 0.0
C403 C 0.71214 0.03925 0.61993 0.0
C404 C 0.76058 0.0404 0.63122 0.0
C405 C 0.8054 0.09176 0.63858 0.0
C406 C 0.85398 0.09316 0.64716 0.0
C407 C 0.9011 0.14656 0.65149 0.0
C408 C 0.89827 0.19602 0.64953 0.0
C409 C 0.84884 0.1937 0.64314 0.0
C410 C 0.80285 0.14234 0.63773 0.0
H411 H 0.90676 0.98104 0.9983 0.0
C412 C 0.93672 0.97248 1.00621 0.0
H413 H 0.96478 0.91352 0.01035 0.0
H414 H 0.73078 0.70735 0.98185 0.0
H415 H 0.7285 0.67988 0.01897 0.0
H416 H 0.80239 0.7444 0.04209 0.0
H417 H 0.87891 0.83706 0.02826 0.0
C418 C 0.93651 0.92412 1.00227 0.0
C419 C 0.89531 0.88268 0.98758 0.0
C420 C 0.85151 0.82797 0.9957 0.0
C421 C 0.80915 0.79029 0.98223 0.0
C422 C 0.7647 0.73707 0.99113 0.0
C423 C 0.7627 0.72086 0.01248 0.0
C424 C 0.80427 0.75722 0.02551 0.0
C425 C 0.84805 0.81028 0.01734 0.0
H426 H 0.7898 0.70884 0.94466 0.0
C427 C 0.75953 0.72102 0.93947 0.0
H428 H 0.73789 0.78546 0.94081 0.0
H429 H 0.97859 0.97985 0.96574 0.0
H430 H 0.98218 0.00649 0.92842 0.0
H431 H 0.90772 0.94245 0.90538 0.0
H432 H 0.82941 0.85112 0.91949 0.0
C433 C 0.76469 0.76959 0.94647 0.0
C434 C 0.81104 0.80689 0.96048 0.0
C435 C 0.8561 0.86073 0.95217 0.0
C436 C 0.89854 0.89825 0.9656 0.0
C437 C 0.94415 0.95061 0.95652 0.0
C438 C 0.94703 0.96623 0.93505 0.0
C439 C 0.90515 0.93015 0.92207 0.0
C440 C 0.86028 0.87791 0.93041 0.0
H441 H 0.99605 0.92249 0.34372 0.0
C442 C 0.03366 0.96394 0.33968 0.0
H443 H 0.10893 0.01067 0.31956 0.0
H444 H 0.05287 0.74428 0.31093 0.0
H445 H 0.07503 0.74732 0.34792 0.0
H446 H 0.09396 0.82979 0.36859 0.0
H447 H 0.08999 0.9094 0.35249 0.0
C448 C 0.07253 0.969 0.32437 0.0
C449 C 0.0638 0.91978 0.31177 0.0
C450 C 0.06779 0.87416 0.32122 0.0
C451 C 0.05883 0.82735 0.30904 0.0
C452 C 0.06091 0.78154 0.31919 0.0
C453 C 0.07335 0.78263 0.34046 0.0
C454 C 0.08385 0.829 0.35212 0.0
C455 C 0.08118 0.87432 0.3427 0.0
H456 H 0.12146 0.79596 0.27319 0.0
C457 C 0.07883 0.76744 0.26811 0.0
H458 H 0.99404 0.7524 0.26874 0.0
H459 H 0.05353 1.00008 0.28856 0.0
H460 H 0.03447 0.99851 0.25126 0.0
H461 H 0.02161 0.91891 0.22997 0.0
H462 H 0.02752 0.84022 0.24585 0.0
C463 C 0.03654 0.77741 0.27432 0.0
C464 C 0.04742 0.82682 0.28722 0.0
C465 C 0.04425 0.87285 0.27772 0.0
C466 C 0.05243 0.91922 0.28996 0.0
C467 C 0.04837 0.96414 0.28 0.0
C468 C 0.03732 0.96375 0.2586 0.0
C469 C 0.03001 0.91889 0.24662 0.0
C470 C 0.03338 0.8739 0.25596 0.0
H471 H 0.1745 0.09262 0.65068 0.0
C472 C 0.16669 0.06966 0.66599 0.0
H473 H 0.19025 0.02259 0.68579 0.0
H474 H 0.29315 0.93327 0.61602 0.0
H475 H 0.21602 0.84667 0.63338 0.0
H476 H 0.1482 0.8492 0.66009 0.0
H477 H 0.15773 0.9385 0.66972 0.0
C478 C 0.19811 0.04552 0.67047 0.0
C479 C 0.24063 0.0451 0.65431 0.0
C480 C 0.23435 0.99241 0.64855 0.0
C481 C 0.27314 0.99094 0.6328 0.0
C482 C 0.26549 0.9374 0.62773 0.0
C483 C 0.22107 0.88707 0.63757 0.0
C484 C 0.18293 0.8885 0.65261 0.0
C485 C 0.18914 0.94029 0.65804 0.0
H486 H 0.43637 0.10319 0.61759 0.0
C487 C 0.41868 0.07167 0.60576 0.0
H488 H 0.33899 0.01244 0.59264 0.0
H489 H 0.27395 0.1542 0.66427 0.0
H490 H 0.34531 0.24069 0.64452 0.0
H491 H 0.40035 0.2369 0.61296 0.0
H492 H 0.38617 0.14686 0.60166 0.0
C493 C 0.35829 0.03964 0.60566 0.0
C494 C 0.31808 0.04216 0.62239 0.0
C495 C 0.32263 0.09468 0.62751 0.0
C496 C 0.28632 0.09638 0.64428 0.0
C497 C 0.29699 0.15004 0.65064 0.0
C498 C 0.33826 0.2001 0.63957 0.0
C499 C 0.36957 0.19801 0.62192 0.0
C500 C 0.36179 0.14606 0.61584 0.0
H501 H 0.22582 0.17532 0.00918 0.0
C502 C 0.19749 0.19266 0.00992 0.0
H503 H 0.18703 0.26198 1.00112 0.0
H504 H 0.44147 0.45417 0.98394 0.0
H505 H 0.41929 0.47767 0.01857 0.0
H506 H 0.33003 0.41084 0.03976 0.0
H507 H 0.26231 0.32005 0.02645 0.0
C508 C 0.2144 0.24361 0.99986 0.0
C509 C 0.27181 0.27964 0.98817 0.0
C510 C 0.31171 0.33222 0.99628 0.0
C511 C 0.36371 0.37051 0.98416 0.0
C512 C 0.40184 0.42314 0.99256 0.0
C513 C 0.38956 0.43727 0.0124 0.0
C514 C 0.33927 0.39968 0.02432 0.0
C515 C 0.30067 0.34777 0.01645 0.0
H516 H 0.38745 0.42052 0.92903 0.0
C517 C 0.42893 0.42612 0.93231 0.0
H518 H 0.47058 0.41042 0.95792 0.0
H519 H 0.20455 0.18364 0.96737 0.0
H520 H 0.22804 0.15891 0.93324 0.0
H521 H 0.32004 0.22306 0.91309 0.0
H522 H 0.38882 0.31279 0.9268 0.0
C523 C 0.43012 0.39737 0.95099 0.0
C524 C 0.37609 0.35632 0.96389 0.0
C525 C 0.33699 0.30301 0.95603 0.0
C526 C 0.28457 0.26502 0.96803 0.0
C527 C 0.24548 0.21338 0.95926 0.0
C528 C 0.25836 0.19872 0.93963 0.0
C529 C 0.31011 0.23491 0.92826 0.0
C530 C 0.34912 0.28644 0.93628 0.0
H531 H 0.1054 0.25678 0.34018 0.0
C532 C 0.06746 0.21666 0.33733 0.0
H533 H 0.99561 0.17497 0.31913 0.0
H534 H 0.07647 0.45069 0.30428 0.0
H535 H 0.05874 0.44929 0.34238 0.0
H536 H 0.03171 0.36361 0.36534 0.0
H537 H 0.02373 0.27934 0.3504 0.0
C538 C 0.03267 0.21534 0.32241 0.0
C539 C 0.04547 0.26672 0.30858 0.0
C540 C 0.04715 0.31484 0.31743 0.0
C541 C 0.05939 0.36323 0.30398 0.0
C542 C 0.0646 0.41187 0.31351 0.0
C543 C 0.05494 0.41183 0.33542 0.0
C544 C 0.03999 0.36368 0.34835 0.0
C545 C 0.03601 0.31566 0.33956 0.0
H546 H 0.99626 0.4012 0.27353 0.0
C547 C 0.03759 0.42986 0.26542 0.0
H548 H 0.11666 0.43159 0.25654 0.0
H549 H 0.04635 0.18265 0.28615 0.0
H550 H 0.05857 0.18203 0.24783 0.0
H551 H 0.07347 0.26309 0.22448 0.0
H552 H 0.07687 0.34559 0.2393 0.0
C553 C 0.07831 0.41261 0.26721 0.0
C554 C 0.06666 0.36244 0.28152 0.0
C555 C 0.06388 0.31395 0.27265 0.0
C556 C 0.05381 0.26644 0.28615 0.0
C557 C 0.05264 0.21936 0.27672 0.0
C558 C 0.05979 0.21849 0.25472 0.0
C559 C 0.06831 0.26417 0.24157 0.0
C560 C 0.07037 0.31141 0.25033 0.0
loop_
_geom_bond_atom_site_label_1
_geom_bond_atom_site_label_2
_geom_bond_distance
_geom_bond_site_symmetry_2
_ccdc_geom_bond_type
Co0 O1 2.216 1_545 S
Co0 O2 2.091 . S
Co0 O4 2.004 . S
Co0 O10 2.021 . S
Co0 O12 2.137 . S
Co0 O13 2.244 . S
O1 Co0 2.216 1_565 S
O1 C8 1.247 . S
O2 Co0 2.091 . S
O2 C8 1.261 1_545 S
C3 O12 1.247 . S
C3 O13 1.272 . S
O4 Co0 2.004 . S
O4 C9 1.259 . S
Co5 O6 2.061 . S
Co5 O11 2.052 1_455 S
Co5 O13 2.135 . S
O6 Co5 2.061 . S
O6 C9 1.235 . S
C7 O10 1.238 1_655 S
C7 O11 1.241 . S
C8 O1 1.247 . S
C8 O2 1.261 1_565 S
C9 O4 1.259 . S
C9 O6 1.235 . S
O10 Co0 2.021 . S
O10 C7 1.238 1_455 S
O11 Co5 2.052 1_655 S
O11 C7 1.241 . S
O12 Co0 2.137 . S
O12 C3 1.247 . S
O13 Co0 2.244 . S
O13 C3 1.272 . S
O13 Co5 2.135 . S
Co14 O15 2.216 . S
Co14 O16 2.091 . S
Co14 O18 2.004 . S
Co14 O24 2.021 . S
Co14 O26 2.137 . S
Co14 O27 2.244 . S
O15 Co14 2.216 . S
O15 C22 1.247 . S
O16 Co14 2.091 . S
O16 C22 1.261 . S
C17 O26 1.247 . S
C17 O27 1.272 . S
O18 Co14 2.004 . S
O18 C23 1.259 . S
Co19 O20 2.061 1_665 S
Co19 O25 2.052 1_565 S
Co19 O27 2.135 1_665 S
O20 Co19 2.061 1_445 S
O20 C23 1.235 . S
C21 O24 1.238 1_655 S
C21 O25 1.241 . S
C22 O15 1.247 . S
C22 O16 1.261 . S
C23 O18 1.259 . S
C23 O20 1.235 . S
O24 Co14 2.021 . S
O24 C21 1.238 1_455 S
O25 Co19 2.052 1_545 S
O25 C21 1.241 . S
O26 Co14 2.137 . S
O26 C17 1.247 . S
O27 Co14 2.244 . S
O27 C17 1.272 . S
O27 Co19 2.135 1_445 S
Co28 O29 2.216 . S
Co28 O30 2.105 . S
Co28 O32 2.004 1_545 S
Co28 O38 2.021 . S
Co28 O40 2.137 . S
Co28 O41 2.244 . S
O29 Co28 2.216 . S
O29 C36 1.247 . S
O30 Co28 2.105 . S
O30 C36 1.273 . S
C31 O40 1.247 1_655 S
C31 O41 1.272 1_655 S
O32 Co28 2.004 1_565 S
O32 C37 1.259 1_455 S
Co33 O34 2.061 . S
Co33 O39 2.052 1_655 S
Co33 O41 2.135 1_655 S
O34 Co33 2.061 . S
O34 C37 1.235 1_545 S
C35 O38 1.238 . S
C35 O39 1.241 . S
C36 O29 1.247 . S
C36 O30 1.273 . S
C37 O32 1.259 1_655 S
C37 O34 1.235 1_565 S
O38 Co28 2.021 . S
O38 C35 1.238 . S
O39 Co33 2.052 1_455 S
O39 C35 1.241 . S
O40 Co28 2.137 . S
O40 C31 1.247 1_455 S
O41 Co28 2.244 . S
O41 C31 1.272 1_455 S
O41 Co33 2.135 1_455 S
C42 C43 1.443 . S
C42 N46 1.376 . S
C42 C80 1.389 . S
C43 C42 1.443 . S
C43 C44 1.340 . S
C43 H83 0.951 . S
C44 C43 1.340 . S
C44 C45 1.439 . S
C44 H84 0.950 . S
C45 C44 1.439 . S
C45 N46 1.374 . S
C45 C79 1.395 . S
N46 C42 1.376 . S
N46 C45 1.374 . S
N46 Co47 2.008 . S
Co47 N46 2.008 . S
Co47 N48 1.995 . S
Co47 N53 2.008 1_455 S
Co47 N58 1.995 1_455 S
Co47 N63 2.282 . S
Co47 N69 2.282 . S
N48 Co47 1.995 . S
N48 C49 1.376 . S
N48 C52 1.383 . S
C49 N48 1.376 . S
C49 C50 1.446 . S
C49 C79 1.391 . S
C50 C49 1.446 . S
C50 C51 1.339 . S
C50 H85 0.949 . S
C51 C50 1.339 . S
C51 C52 1.439 . S
C51 H86 0.950 . S
C52 N48 1.383 . S
C52 C51 1.439 . S
C52 C81 1.392 . S
N53 Co47 2.008 1_655 S
N53 C54 1.376 . S
N53 C57 1.374 . S
C54 N53 1.376 . S
C54 C55 1.443 . S
C54 C81 1.389 1_655 S
C55 C54 1.443 . S
C55 C56 1.340 . S
C55 H87 0.951 . S
C56 C55 1.340 . S
C56 C57 1.439 . S
C56 H88 0.950 . S
C57 N53 1.374 . S
C57 C56 1.439 . S
C57 C82 1.395 . S
N58 Co47 1.995 1_655 S
N58 C59 1.376 . S
N58 C62 1.383 . S
C59 N58 1.376 . S
C59 C60 1.446 . S
C59 C82 1.391 . S
C60 C59 1.446 . S
C60 C61 1.339 . S
C60 H89 0.949 . S
C61 C60 1.339 . S
C61 C62 1.439 . S
C61 H90 0.950 . S
C62 N58 1.383 . S
C62 C61 1.439 . S
C62 C80 1.392 1_655 S
N63 Co47 2.282 . S
N63 C66 1.332 1_455 S
N63 C68 1.332 . S
C64 C65 1.386 1_455 S
C64 C67 1.388 . S
C65 C64 1.386 1_655 S
C65 C66 1.382 . S
C65 H91 0.950 . S
C66 N63 1.332 1_655 S
C66 C65 1.382 . S
C66 H77 0.952 . S
C67 C64 1.388 . S
C67 C68 1.382 . S
C67 H92 0.950 . S
C68 N63 1.332 . S
C68 C67 1.382 . S
C68 H78 0.948 . S
N69 Co47 2.282 . S
N69 C73 1.332 . S
N69 C74 1.332 1_455 S
C70 C71 1.388 1_655 S
C70 C74 1.382 . S
C70 H93 0.950 . S
C71 C70 1.388 1_455 S
C71 C72 1.386 . S
C72 C71 1.386 . S
C72 C73 1.382 . S
C72 H94 0.950 . S
C73 N69 1.332 . S
C73 C72 1.382 . S
C73 H75 0.952 . S
C74 N69 1.332 1_655 S
C74 C70 1.382 . S
C74 H76 0.948 . S
H75 C73 0.952 . S
H76 C74 0.948 . S
H77 C66 0.952 . S
H78 C68 0.948 . S
C79 C45 1.395 . S
C79 C49 1.391 . S
C80 C42 1.389 . S
C80 C62 1.392 1_455 S
C81 C52 1.392 . S
C81 C54 1.389 1_455 S
C82 C57 1.395 . S
C82 C59 1.391 . S
H83 C43 0.951 . S
H84 C44 0.950 . S
H85 C50 0.949 . S
H86 C51 0.950 . S
H87 C55 0.951 . S
H88 C56 0.950 . S
H89 C60 0.949 . S
H90 C61 0.950 . S
H91 C65 0.950 . S
H92 C67 0.950 . S
H93 C70 0.950 . S
H94 C72 0.950 . S
C95 C96 1.443 1_545 S
C95 N99 1.376 . S
C95 C133 1.389 . S
C96 C95 1.443 1_565 S
C96 C97 1.340 . S
C96 H136 0.951 . S
C97 C96 1.340 . S
C97 C98 1.439 . S
C97 H137 0.950 . S
C98 C97 1.439 . S
C98 N99 1.374 1_565 S
C98 C132 1.395 . S
N99 C95 1.376 . S
N99 C98 1.374 1_545 S
N99 Co100 2.008 . S
Co100 N99 2.008 . S
Co100 N101 1.995 . S
Co100 N106 2.008 . S
Co100 N111 1.995 . S
Co100 N116 2.282 . S
Co100 N122 2.282 . S
N101 Co100 1.995 . S
N101 C102 1.376 1_545 S
N101 C105 1.383 . S
C102 N101 1.376 1_565 S
C102 C103 1.446 . S
C102 C132 1.391 . S
C103 C102 1.446 . S
C103 C104 1.339 . S
C103 H138 0.949 . S
C104 C103 1.339 . S
C104 C105 1.439 1_565 S
C104 H139 0.950 . S
C105 N101 1.383 . S
C105 C104 1.439 1_545 S
C105 C134 1.392 . S
N106 Co100 2.008 . S
N106 C107 1.376 . S
N106 C110 1.374 . S
C107 N106 1.376 . S
C107 C108 1.443 . S
C107 C134 1.389 . S
C108 C107 1.443 . S
C108 C109 1.340 . S
C108 H140 0.951 . S
C109 C108 1.340 . S
C109 C110 1.439 . S
C109 H141 0.950 . S
C110 N106 1.374 . S
C110 C109 1.439 . S
C110 C135 1.395 . S
N111 Co100 1.995 . S
N111 C112 1.376 . S
N111 C115 1.383 . S
C112 N111 1.376 . S
C112 C113 1.446 . S
C112 C135 1.391 . S
C113 C112 1.446 . S
C113 C114 1.339 . S
C113 H142 0.949 . S
C114 C113 1.339 . S
C114 C115 1.439 . S
C114 H143 0.950 . S
C115 N111 1.383 . S
C115 C114 1.439 . S
C115 C133 1.392 . S
N116 Co100 2.282 . S
N116 C119 1.332 . S
N116 C121 1.332 . S
C117 C118 1.386 . S
C117 C120 1.388 . S
C118 C117 1.386 . S
C118 C119 1.382 . S
C118 H144 0.950 . S
C119 N116 1.332 . S
C119 C118 1.382 . S
C119 H130 0.952 . S
C120 C117 1.388 . S
C120 C121 1.382 . S
C120 H145 0.950 1_545 S
C121 N116 1.332 . S
C121 C120 1.382 . S
C121 H131 0.948 1_545 S
N122 Co100 2.282 . S
N122 C126 1.332 . S
N122 C127 1.332 . S
C123 C124 1.388 . S
C123 C127 1.382 . S
C123 H146 0.950 . S
C124 C123 1.388 . S
C124 C125 1.386 . S
C125 C124 1.386 . S
C125 C126 1.382 . S
C125 H147 0.950 1_545 S
C126 N122 1.332 . S
C126 C125 1.382 . S
C126 H128 0.952 . S
C127 N122 1.332 . S
C127 C123 1.382 . S
C127 H129 0.948 . S
H128 C126 0.952 . S
H129 C127 0.948 . S
H130 C119 0.952 . S
H131 C121 0.948 1_565 S
C132 C98 1.395 . S
C132 C102 1.391 . S
C133 C95 1.389 . S
C133 C115 1.392 . S
C134 C105 1.392 . S
C134 C107 1.389 . S
C135 C110 1.395 . S
C135 C112 1.391 . S
H136 C96 0.951 . S
H137 C97 0.950 . S
H138 C103 0.949 . S
H139 C104 0.950 . S
H140 C108 0.951 . S
H141 C109 0.950 . S
H142 C113 0.949 . S
H143 C114 0.950 . S
H144 C118 0.950 . S
H145 C120 0.950 1_565 S
H146 C123 0.950 . S
H147 C125 0.950 1_565 S
C148 C149 1.443 . S
C148 N152 1.376 . S
C148 C186 1.389 . S
C149 C148 1.443 . S
C149 C150 1.340 . S
C149 H189 0.951 . S
C150 C149 1.340 . S
C150 C151 1.439 . S
C150 H190 0.950 . S
C151 C150 1.439 . S
C151 N152 1.374 . S
C151 C185 1.395 . S
N152 C148 1.376 . S
N152 C151 1.374 . S
N152 Co153 2.008 . S
Co153 N152 2.008 . S
Co153 N154 1.995 . S
Co153 N159 2.008 . S
Co153 N164 1.995 . S
Co153 N169 2.282 . S
Co153 N175 2.282 . S
N154 Co153 1.995 . S
N154 C155 1.376 . S
N154 C158 1.383 . S
C155 N154 1.376 . S
C155 C156 1.446 . S
C155 C185 1.391 . S
C156 C155 1.446 . S
C156 C157 1.339 . S
C156 H191 0.949 . S
C157 C156 1.339 . S
C157 C158 1.439 . S
C157 H192 0.950 . S
C158 N154 1.383 . S
C158 C157 1.439 . S
C158 C187 1.392 . S
N159 Co153 2.008 . S
N159 C160 1.376 . S
N159 C163 1.374 . S
C160 N159 1.376 . S
C160 C161 1.443 . S
C160 C187 1.389 . S
C161 C160 1.443 . S
C161 C162 1.340 . S
C161 H193 0.951 . S
C162 C161 1.340 . S
C162 C163 1.439 . S
C162 H194 0.950 . S
C163 N159 1.374 . S
C163 C162 1.439 . S
C163 C188 1.395 . S
N164 Co153 1.995 . S
N164 C165 1.376 . S
N164 C168 1.383 . S
C165 N164 1.376 . S
C165 C166 1.446 . S
C165 C188 1.391 . S
C166 C165 1.446 . S
C166 C167 1.339 . S
C166 H195 0.949 . S
C167 C166 1.339 . S
C167 C168 1.439 . S
C167 H196 0.950 . S
C168 N164 1.383 . S
C168 C167 1.439 . S
C168 C186 1.392 . S
N169 Co153 2.282 . S
N169 C172 1.332 . S
N169 C174 1.332 . S
C170 C171 1.386 . S
C170 C173 1.388 . S
C171 C170 1.386 . S
C171 C172 1.382 . S
C171 H197 0.950 . S
C172 N169 1.332 . S
C172 C171 1.382 . S
C172 H183 0.952 . S
C173 C170 1.388 . S
C173 C174 1.382 . S
C173 H198 0.950 . S
C174 N169 1.332 . S
C174 C173 1.382 . S
C174 H184 0.948 . S
N175 Co153 2.282 . S
N175 C179 1.332 . S
N175 C180 1.332 . S
C176 C177 1.388 . S
C176 C180 1.382 . S
C176 H199 0.950 . S
C177 C176 1.388 . S
C177 C178 1.386 . S
C178 C177 1.386 . S
C178 C179 1.382 . S
C178 H200 0.950 . S
C179 N175 1.332 . S
C179 C178 1.382 . S
C179 H181 0.952 . S
C180 N175 1.332 . S
C180 C176 1.382 . S
C180 H182 0.948 . S
H181 C179 0.952 . S
H182 C180 0.948 . S
H183 C172 0.952 . S
H184 C174 0.948 . S
C185 C151 1.395 . S
C185 C155 1.391 . S
C186 C148 1.389 . S
C186 C168 1.392 . S
C187 C158 1.392 . S
C187 C160 1.389 . S
C188 C163 1.395 . S
C188 C165 1.391 . S
H189 C149 0.951 . S
H190 C150 0.950 . S
H191 C156 0.949 . S
H192 C157 0.950 . S
H193 C161 0.951 . S
H194 C162 0.950 . S
H195 C166 0.949 . S
H196 C167 0.950 . S
H197 C171 0.950 . S
H198 C173 0.950 . S
H199 C176 0.950 . S
H200 C178 0.950 . S
H201 C202 0.951 . S
C202 H201 0.951 . S
C202 C208 1.265 . S
H203 C208 0.950 1_655 S
H204 C212 0.949 . S
H205 C213 0.950 . S
H206 C214 0.951 . S
H207 C215 0.951 . S
C208 C202 1.265 . S
C208 H203 0.950 1_455 S
C208 C209 1.478 . S
C209 C208 1.478 . S
C209 C210 1.397 . S
C209 C226 1.394 . S
C210 C209 1.397 . S
C210 C211 1.438 . S
C210 C215 1.429 1_455 S
C211 C210 1.438 . S
C211 C212 1.428 1_455 S
C211 C224 1.394 . S
C212 H204 0.949 . S
C212 C211 1.428 1_655 S
C212 C213 1.345 . S
C213 H205 0.950 . S
C213 C212 1.345 . S
C213 C214 1.424 . S
C214 H206 0.951 . S
C214 C213 1.424 . S
C214 C215 1.347 . S
C215 H207 0.951 . S
C215 C210 1.429 1_655 S
C215 C214 1.347 . S
H216 C217 0.951 1_655 S
C217 H216 0.951 1_455 S
C217 C223 1.265 . S
H218 C223 0.950 . S
H219 C227 0.949 . S
H220 C228 0.950 . S
H221 C229 0.951 . S
H222 C230 0.951 . S
C223 C217 1.265 . S
C223 H218 0.950 . S
C223 C224 1.478 . S
C224 C211 1.394 . S
C224 C223 1.478 . S
C224 C225 1.397 . S
C225 C224 1.397 . S
C225 C226 1.438 . S
C225 C230 1.429 . S
C226 C209 1.394 . S
C226 C225 1.438 . S
C226 C227 1.428 . S
C227 H219 0.949 . S
C227 C226 1.428 . S
C227 C228 1.345 . S
C228 H220 0.950 . S
C228 C227 1.345 . S
C228 C229 1.424 . S
C229 H221 0.951 . S
C229 C228 1.424 . S
C229 C230 1.347 . S
C230 H222 0.951 . S
C230 C225 1.429 . S
C230 C229 1.347 . S
H231 C232 0.951 . S
C232 H231 0.951 . S
C232 C238 1.265 . S
H233 C238 0.950 . S
H234 C242 0.949 . S
H235 C243 0.950 . S
H236 C244 0.951 . S
H237 C245 0.951 . S
C238 C232 1.265 . S
C238 H233 0.950 . S
C238 C239 1.478 . S
C239 C238 1.478 . S
C239 C240 1.397 . S
C239 C256 1.394 . S
C240 C239 1.397 . S
C240 C241 1.438 . S
C240 C245 1.429 . S
C241 C240 1.438 . S
C241 C242 1.428 . S
C241 C254 1.394 . S
C242 H234 0.949 . S
C242 C241 1.428 . S
C242 C243 1.345 . S
C243 H235 0.950 . S
C243 C242 1.345 . S
C243 C244 1.424 . S
C244 H236 0.951 . S
C244 C243 1.424 . S
C244 C245 1.347 . S
C245 H237 0.951 . S
C245 C240 1.429 . S
C245 C244 1.347 . S
H246 C247 0.951 . S
C247 H246 0.951 . S
C247 C253 1.265 . S
H248 C253 0.950 . S
H249 C257 0.949 . S
H250 C258 0.950 . S
H251 C259 0.951 . S
H252 C260 0.951 . S
C253 C247 1.265 . S
C253 H248 0.950 . S
C253 C254 1.478 . S
C254 C241 1.394 . S
C254 C253 1.478 . S
C254 C255 1.397 . S
C255 C254 1.397 . S
C255 C256 1.438 . S
C255 C260 1.429 1_545 S
C256 C239 1.394 . S
C256 C255 1.438 . S
C256 C257 1.428 1_545 S
C257 H249 0.949 . S
C257 C256 1.428 1_565 S
C257 C258 1.345 . S
C258 H250 0.950 . S
C258 C257 1.345 . S
C258 C259 1.424 . S
C259 H251 0.951 . S
C259 C258 1.424 . S
C259 C260 1.347 . S
C260 H252 0.951 . S
C260 C255 1.429 1_565 S
C260 C259 1.347 . S
H261 C262 0.951 . S
C262 H261 0.951 . S
C262 C268 1.265 . S
H263 C268 0.950 . S
H264 C272 0.949 . S
H265 C273 0.950 . S
H266 C274 0.951 . S
H267 C275 0.951 . S
C268 C262 1.265 . S
C268 H263 0.950 . S
C268 C269 1.478 . S
C269 C268 1.478 . S
C269 C270 1.397 . S
C269 C286 1.394 . S
C270 C269 1.397 . S
C270 C271 1.438 . S
C270 C275 1.429 . S
C271 C270 1.438 . S
C271 C272 1.428 . S
C271 C284 1.394 . S
C272 H264 0.949 . S
C272 C271 1.428 . S
C272 C273 1.345 . S
C273 H265 0.950 . S
C273 C272 1.345 . S
C273 C274 1.424 . S
C274 H266 0.951 . S
C274 C273 1.424 . S
C274 C275 1.347 . S
C275 H267 0.951 . S
C275 C270 1.429 . S
C275 C274 1.347 . S
H276 C277 0.951 . S
C277 H276 0.951 . S
C277 C283 1.265 . S
H278 C283 0.950 . S
H279 C287 0.949 . S
H280 C288 0.950 . S
H281 C289 0.951 . S
H282 C290 0.951 . S
C283 C277 1.265 . S
C283 H278 0.950 . S
C283 C284 1.478 . S
C284 C271 1.394 . S
C284 C283 1.478 . S
C284 C285 1.397 . S
C285 C284 1.397 . S
C285 C286 1.438 . S
C285 C290 1.429 . S
C286 C269 1.394 . S
C286 C285 1.438 . S
C286 C287 1.428 . S
C287 H279 0.949 . S
C287 C286 1.428 . S
C287 C288 1.345 . S
C288 H280 0.950 . S
C288 C287 1.345 . S
C288 C289 1.424 . S
C289 H281 0.951 . S
C289 C288 1.424 . S
C289 C290 1.347 . S
C290 H282 0.951 . S
C290 C285 1.429 . S
C290 C289 1.347 . S
H291 C292 0.951 . S
C292 H291 0.951 . S
C292 C298 1.265 . S
H293 C298 0.950 . S
H294 C302 0.949 . S
H295 C303 0.950 . S
H296 C304 0.951 . S
H297 C305 0.951 . S
C298 C292 1.265 . S
C298 H293 0.950 . S
C298 C299 1.478 . S
C299 C298 1.478 . S
C299 C300 1.397 . S
C299 C316 1.394 . S
C300 C299 1.397 . S
C300 C301 1.438 . S
C300 C305 1.429 . S
C301 C300 1.438 . S
C301 C302 1.428 . S
C301 C314 1.394 . S
C302 H294 0.949 . S
C302 C301 1.428 . S
C302 C303 1.345 . S
C303 H295 0.950 . S
C303 C302 1.345 . S
C303 C304 1.424 . S
C304 H296 0.951 . S
C304 C303 1.424 . S
C304 C305 1.347 . S
C305 H297 0.951 . S
C305 C300 1.429 . S
C305 C304 1.347 . S
H306 C307 0.951 . S
C307 H306 0.951 . S
C307 C313 1.265 . S
H308 C313 0.950 1_655 S
H309 C317 0.949 . S
H310 C318 0.950 . S
H311 C319 0.951 . S
H312 C320 0.951 . S
C313 C307 1.265 . S
C313 H308 0.950 1_455 S
C313 C314 1.478 . S
C314 C301 1.394 . S
C314 C313 1.478 . S
C314 C315 1.387 1_455 S
C315 C314 1.387 1_655 S
C315 C316 1.441 1_655 S
C315 C320 1.436 . S
C316 C299 1.394 . S
C316 C315 1.441 1_455 S
C316 C317 1.428 1_455 S
C317 H309 0.949 . S
C317 C316 1.428 1_655 S
C317 C318 1.345 . S
C318 H310 0.950 . S
C318 C317 1.345 . S
C318 C319 1.424 . S
C319 H311 0.951 . S
C319 C318 1.424 . S
C319 C320 1.347 . S
C320 H312 0.951 . S
C320 C315 1.436 . S
C320 C319 1.347 . S
H321 C322 0.951 . S
C322 H321 0.951 . S
C322 C328 1.265 . S
H323 C328 0.950 . S
H324 C332 0.949 . S
H325 C333 0.950 . S
H326 C334 0.951 . S
H327 C335 0.951 . S
C328 C322 1.265 . S
C328 H323 0.950 . S
C328 C329 1.478 . S
C329 C328 1.478 . S
C329 C330 1.397 . S
C329 C346 1.394 . S
C330 C329 1.397 . S
C330 C331 1.438 . S
C330 C335 1.429 . S
C331 C330 1.438 . S
C331 C332 1.428 . S
C331 C344 1.394 . S
C332 H324 0.949 . S
C332 C331 1.428 . S
C332 C333 1.345 . S
C333 H325 0.950 . S
C333 C332 1.345 . S
C333 C334 1.424 . S
C334 H326 0.951 . S
C334 C333 1.424 . S
C334 C335 1.347 . S
C335 H327 0.951 . S
C335 C330 1.429 . S
C335 C334 1.347 . S
H336 C337 0.951 . S
C337 H336 0.951 . S
C337 C343 1.265 . S
H338 C343 0.950 . S
H339 C347 0.949 . S
H340 C348 0.950 . S
H341 C349 0.951 . S
H342 C350 0.951 . S
C343 C337 1.265 . S
C343 H338 0.950 . S
C343 C344 1.478 . S
C344 C331 1.394 . S
C344 C343 1.478 . S
C344 C345 1.397 . S
C345 C344 1.397 . S
C345 C346 1.438 . S
C345 C350 1.429 1_545 S
C346 C329 1.394 . S
C346 C345 1.438 . S
C346 C347 1.428 1_545 S
C347 H339 0.949 . S
C347 C346 1.428 1_565 S
C347 C348 1.345 . S
C348 H340 0.950 . S
C348 C347 1.345 . S
C348 C349 1.424 . S
C349 H341 0.951 . S
C349 C348 1.424 . S
C349 C350 1.347 . S
C350 H342 0.951 . S
C350 C345 1.429 1_565 S
C350 C349 1.347 . S
H351 C352 0.951 . S
C352 H351 0.951 . S
C352 C358 1.265 . S
H353 C358 0.950 . S
H354 C362 0.949 . S
H355 C363 0.950 . S
H356 C364 0.951 . S
H357 C365 0.951 . S
C358 C352 1.265 . S
C358 H353 0.950 . S
C358 C359 1.478 . S
C359 C358 1.478 . S
C359 C360 1.397 . S
C359 C376 1.394 . S
C360 C359 1.397 . S
C360 C361 1.438 . S
C360 C365 1.429 . S
C361 C360 1.438 . S
C361 C362 1.428 . S
C361 C374 1.394 . S
C362 H354 0.949 . S
C362 C361 1.428 . S
C362 C363 1.345 . S
C363 H355 0.950 . S
C363 C362 1.345 . S
C363 C364 1.424 . S
C364 H356 0.951 . S
C364 C363 1.424 . S
C364 C365 1.347 . S
C365 H357 0.951 . S
C365 C360 1.429 . S
C365 C364 1.347 . S
H366 C367 0.951 . S
C367 H366 0.951 . S
C367 C373 1.265 . S
H368 C373 0.950 . S
H369 C377 0.949 . S
H370 C378 0.950 . S
H371 C379 0.951 . S
H372 C380 0.951 . S
C373 C367 1.265 . S
C373 H368 0.950 . S
C373 C374 1.478 . S
C374 C361 1.394 . S
C374 C373 1.478 . S
C374 C375 1.397 . S
C375 C374 1.397 . S
C375 C376 1.438 . S
C375 C380 1.429 . S
C376 C359 1.394 . S
C376 C375 1.438 . S
C376 C377 1.428 . S
C377 H369 0.949 . S
C377 C376 1.428 . S
C377 C378 1.345 . S
C378 H370 0.950 . S
C378 C377 1.345 . S
C378 C379 1.424 . S
C379 H371 0.951 . S
C379 C378 1.424 . S
C379 C380 1.347 . S
C380 H372 0.951 . S
C380 C375 1.429 . S
C380 C379 1.347 . S
H381 C382 0.951 . S
C382 H381 0.951 . S
C382 C388 1.265 . S
H383 C388 0.950 . S
H384 C392 0.949 . S
H385 C393 0.950 . S
H386 C394 0.951 . S
H387 C395 0.947 . S
C388 C382 1.265 . S
C388 H383 0.950 . S
C388 C389 1.478 . S
C389 C388 1.478 . S
C389 C390 1.397 . S
C389 C406 1.394 . S
C390 C389 1.397 . S
C390 C391 1.438 . S
C390 C395 1.438 . S
C391 C390 1.438 . S
C391 C392 1.428 1_545 S
C391 C404 1.394 . S
C392 H384 0.949 . S
C392 C391 1.428 1_565 S
C392 C393 1.345 . S
C393 H385 0.950 . S
C393 C392 1.345 . S
C393 C394 1.424 . S
C394 H386 0.951 . S
C394 C393 1.424 . S
C394 C395 1.342 1_565 S
C395 H387 0.947 . S
C395 C390 1.438 . S
C395 C394 1.342 1_545 S
H396 C397 0.951 . S
C397 H396 0.951 . S
C397 C403 1.265 . S
H398 C403 0.950 . S
H399 C407 0.949 . S
H400 C408 0.950 . S
H401 C409 0.951 . S
H402 C410 0.951 . S
C403 C397 1.265 . S
C403 H398 0.950 . S
C403 C404 1.478 . S
C404 C391 1.394 . S
C404 C403 1.478 . S
C404 C405 1.397 . S
C405 C404 1.397 . S
C405 C406 1.438 . S
C405 C410 1.429 . S
C406 C389 1.394 . S
C406 C405 1.438 . S
C406 C407 1.428 . S
C407 H399 0.949 . S
C407 C406 1.428 . S
C407 C408 1.345 . S
C408 H400 0.950 . S
C408 C407 1.345 . S
C408 C409 1.424 . S
C409 H401 0.951 . S
C409 C408 1.424 . S
C409 C410 1.347 . S
C410 H402 0.951 . S
C410 C405 1.429 . S
C410 C409 1.347 . S
H411 C412 0.951 1_554 S
C412 H411 0.951 1_556 S
C412 C418 1.265 . S
H413 C418 0.950 . S
H414 C422 0.949 . S
H415 C423 0.950 . S
H416 C424 0.951 . S
H417 C425 0.951 . S
C418 C412 1.265 . S
C418 H413 0.950 . S
C418 C419 1.478 . S
C419 C418 1.478 . S
C419 C420 1.397 . S
C419 C436 1.394 . S
C420 C419 1.397 . S
C420 C421 1.438 . S
C420 C425 1.429 . S
C421 C420 1.438 . S
C421 C422 1.428 . S
C421 C434 1.394 . S
C422 H414 0.949 . S
C422 C421 1.428 . S
C422 C423 1.345 . S
C423 H415 0.950 . S
C423 C422 1.345 . S
C423 C424 1.424 . S
C424 H416 0.951 . S
C424 C423 1.424 . S
C424 C425 1.347 . S
C425 H417 0.951 . S
C425 C420 1.429 . S
C425 C424 1.347 . S
H426 C427 0.951 . S
C427 H426 0.951 . S
C427 C433 1.265 . S
H428 C433 0.950 . S
H429 C437 0.949 . S
H430 C438 0.950 1_545 S
H431 C439 0.951 . S
H432 C440 0.951 . S
C433 C427 1.265 . S
C433 H428 0.950 . S
C433 C434 1.478 . S
C434 C421 1.394 . S
C434 C433 1.478 . S
C434 C435 1.397 . S
C435 C434 1.397 . S
C435 C436 1.438 . S
C435 C440 1.429 . S
C436 C419 1.394 . S
C436 C435 1.438 . S
C436 C437 1.428 . S
C437 H429 0.949 . S
C437 C436 1.428 . S
C437 C438 1.345 . S
C438 H430 0.950 1_565 S
C438 C437 1.345 . S
C438 C439 1.424 . S
C439 H431 0.951 . S
C439 C438 1.424 . S
C439 C440 1.347 . S
C440 H432 0.951 . S
C440 C435 1.429 . S
C440 C439 1.347 . S
H441 C442 0.951 1_655 S
C442 H441 0.951 1_455 S
C442 C448 1.265 . S
H443 C448 0.950 . S
H444 C452 0.949 . S
H445 C453 0.950 . S
H446 C454 0.951 . S
H447 C455 0.951 . S
C448 C442 1.265 . S
C448 H443 0.950 . S
C448 C449 1.478 . S
C449 C448 1.478 . S
C449 C450 1.397 . S
C449 C466 1.394 . S
C450 C449 1.397 . S
C450 C451 1.438 . S
C450 C455 1.429 . S
C451 C450 1.438 . S
C451 C452 1.428 . S
C451 C464 1.394 . S
C452 H444 0.949 . S
C452 C451 1.428 . S
C452 C453 1.345 . S
C453 H445 0.950 . S
C453 C452 1.345 . S
C453 C454 1.424 . S
C454 H446 0.951 . S
C454 C453 1.424 . S
C454 C455 1.347 . S
C455 H447 0.951 . S
C455 C450 1.429 . S
C455 C454 1.347 . S
H456 C457 0.951 . S
C457 H456 0.951 . S
C457 C463 1.280 . S
H458 C463 0.935 1_655 S
H459 C467 0.949 . S
H460 C468 0.950 . S
H461 C469 0.951 . S
H462 C470 0.951 . S
C463 C457 1.280 . S
C463 H458 0.935 1_455 S
C463 C464 1.476 . S
C464 C451 1.394 . S
C464 C463 1.476 . S
C464 C465 1.397 . S
C465 C464 1.397 . S
C465 C466 1.438 . S
C465 C470 1.429 1_455 S
C466 C449 1.394 . S
C466 C465 1.438 . S
C466 C467 1.428 . S
C467 H459 0.949 . S
C467 C466 1.428 . S
C467 C468 1.345 1_455 S
C468 H460 0.950 . S
C468 C467 1.345 1_655 S
C468 C469 1.424 . S
C469 H461 0.951 . S
C469 C468 1.424 . S
C469 C470 1.347 . S
C470 H462 0.951 . S
C470 C465 1.429 1_655 S
C470 C469 1.347 . S
H471 C472 0.951 . S
C472 H471 0.951 . S
C472 C478 1.265 . S
H473 C478 0.950 . S
H474 C482 0.949 . S
H475 C483 0.950 . S
H476 C484 0.951 . S
H477 C485 0.951 . S
C478 C472 1.265 . S
C478 H473 0.950 . S
C478 C479 1.478 . S
C479 C478 1.478 . S
C479 C480 1.397 . S
C479 C496 1.394 . S
C480 C479 1.397 . S
C480 C481 1.438 . S
C480 C485 1.429 1_545 S
C481 C480 1.438 . S
C481 C482 1.428 1_545 S
C481 C494 1.394 . S
C482 H474 0.949 . S
C482 C481 1.428 1_565 S
C482 C483 1.345 . S
C483 H475 0.950 . S
C483 C482 1.345 . S
C483 C484 1.424 . S
C484 H476 0.951 . S
C484 C483 1.424 . S
C484 C485 1.347 . S
C485 H477 0.951 . S
C485 C480 1.429 1_565 S
C485 C484 1.347 . S
H486 C487 0.951 . S
C487 H486 0.951 . S
C487 C493 1.265 . S
H488 C493 0.950 . S
H489 C497 0.949 . S
H490 C498 0.950 . S
H491 C499 0.951 . S
H492 C500 0.951 . S
C493 C487 1.265 . S
C493 H488 0.950 . S
C493 C494 1.478 . S
C494 C481 1.394 . S
C494 C493 1.478 . S
C494 C495 1.397 . S
C495 C494 1.397 . S
C495 C496 1.438 . S
C495 C500 1.429 . S
C496 C479 1.394 . S
C496 C495 1.438 . S
C496 C497 1.428 . S
C497 H489 0.949 . S
C497 C496 1.428 . S
C497 C498 1.345 . S
C498 H490 0.950 . S
C498 C497 1.345 . S
C498 C499 1.424 . S
C499 H491 0.951 . S
C499 C498 1.424 . S
C499 C500 1.347 . S
C500 H492 0.951 . S
C500 C495 1.429 . S
C500 C499 1.347 . S
H501 C502 0.951 . S
C502 H501 0.951 . S
C502 C508 1.265 . S
H503 C508 0.950 . S
H504 C512 0.949 . S
H505 C513 0.950 . S
H506 C514 0.951 . S
H507 C515 0.951 . S
C508 C502 1.265 . S
C508 H503 0.950 . S
C508 C509 1.478 . S
C509 C508 1.478 . S
C509 C510 1.397 . S
C509 C526 1.394 . S
C510 C509 1.397 . S
C510 C511 1.438 . S
C510 C515 1.429 . S
C511 C510 1.438 . S
C511 C512 1.428 . S
C511 C524 1.394 . S
C512 H504 0.949 . S
C512 C511 1.428 . S
C512 C513 1.345 . S
C513 H505 0.950 . S
C513 C512 1.345 . S
C513 C514 1.424 . S
C514 H506 0.951 . S
C514 C513 1.424 . S
C514 C515 1.347 . S
C515 H507 0.951 . S
C515 C510 1.429 . S
C515 C514 1.347 . S
H516 C517 0.951 . S
C517 H516 0.951 . S
C517 C523 1.265 . S
H518 C523 0.950 . S
H519 C527 0.949 . S
H520 C528 0.950 . S
H521 C529 0.951 . S
H522 C530 0.951 . S
C523 C517 1.265 . S
C523 H518 0.950 . S
C523 C524 1.478 . S
C524 C511 1.394 . S
C524 C523 1.478 . S
C524 C525 1.397 . S
C525 C524 1.397 . S
C525 C526 1.438 . S
C525 C530 1.429 . S
C526 C509 1.394 . S
C526 C525 1.438 . S
C526 C527 1.428 . S
C527 H519 0.949 . S
C527 C526 1.428 . S
C527 C528 1.345 . S
C528 H520 0.950 . S
C528 C527 1.345 . S
C528 C529 1.424 . S
C529 H521 0.951 . S
C529 C528 1.424 . S
C529 C530 1.347 . S
C530 H522 0.951 . S
C530 C525 1.429 . S
C530 C529 1.347 . S
H531 C532 0.951 . S
C532 H531 0.951 . S
C532 C538 1.265 . S
H533 C538 0.950 1_655 S
H534 C542 0.949 . S
H535 C543 0.950 . S
H536 C544 0.951 . S
H537 C545 0.951 . S
C538 C532 1.265 . S
C538 H533 0.950 1_455 S
C538 C539 1.478 . S
C539 C538 1.478 . S
C539 C540 1.397 . S
C539 C556 1.394 . S
C540 C539 1.397 . S
C540 C541 1.438 . S
C540 C545 1.429 . S
C541 C540 1.438 . S
C541 C542 1.428 . S
C541 C554 1.394 . S
C542 H534 0.949 . S
C542 C541 1.428 . S
C542 C543 1.345 . S
C543 H535 0.950 . S
C543 C542 1.345 . S
C543 C544 1.424 . S
C544 H536 0.951 . S
C544 C543 1.424 . S
C544 C545 1.347 . S
C545 H537 0.951 . S
C545 C540 1.429 . S
C545 C544 1.347 . S
H546 C547 0.951 1_655 S
C547 H546 0.951 1_455 S
C547 C553 1.265 . S
H548 C553 0.950 . S
H549 C557 0.949 . S
H550 C558 0.950 . S
H551 C559 0.951 . S
H552 C560 0.951 . S
C553 C547 1.265 . S
C553 H548 0.950 . S
C553 C554 1.478 . S
C554 C541 1.394 . S
C554 C553 1.478 . S
C554 C555 1.397 . S
C555 C554 1.397 . S
C555 C556 1.438 . S
C555 C560 1.429 . S
C556 C539 1.394 . S
C556 C555 1.438 . S
C556 C557 1.428 . S
C557 H549 0.949 . S
C557 C556 1.428 . S
C557 C558 1.345 . S
C558 H550 0.950 . S
C558 C557 1.345 . S
C558 C559 1.424 . S
C559 H551 0.951 . S
C559 C558 1.424 . S
C559 C560 1.347 . S
C560 H552 0.951 . S
C560 C555 1.429 . S
C560 C559 1.347 . S
C217 C64 1.488 . S
C202 C3 1.472 . S
C232 C21 1.511 . S
C247 C134 1.524 . S
C262 C37 1.447 . S
C277 C186 1.486 . S
C292 C8 1.492 . S
C307 C80 1.479 . S
C337 C124 1.490 . S
C322 C23 1.469 . S
C352 C35 1.479 . S
C367 C170 1.496 . S
C397 C117 1.484 . S
C382 C31 1.474 . S
C412 C7 1.457 1_566 S
C427 C177 1.494 . S
C457 C71 1.483 . S
C442 C17 1.493 1_565 S
C487 C133 1.456 . S
C472 C36 1.463 . S
C517 C187 1.501 . S
C502 C9 1.502 1_556 S
C532 C22 1.492 . S
C547 C81 1.492 . S
