# Generated by pormake.
# Topology the, (3,8)-cn, num edge types: 1
# Building blocks:
#     Node 0, Type 0, BuildingBlock: WUSLED_clean_sbu_0, # of connection points: 3
#     Node 1, Type 0, BuildingBlock: WUSLED_clean_sbu_0, # of connection points: 3
#     Node 2, Type 0, BuildingBlock: WUSLED_clean_sbu_0, # of connection points: 3
#     Node 3, Type 0, BuildingBlock: WUSLED_clean_sbu_0, # of connection points: 3
#     Node 4, Type 0, BuildingBlock: WUSLED_clean_sbu_0, # of connection points: 3
#     Node 5, Type 0, BuildingBlock: WUSLED_clean_sbu_0, # of connection points: 3
#     Node 6, Type 0, BuildingBlock: WUSLED_clean_sbu_0, # of connection points: 3
#     Node 7, Type 0, BuildingBlock: WUSLED_clean_sbu_0, # of connection points: 3
#     Node 8, Type 1, BuildingBlock: GIZVER_clean_sbu_0, # of connection points: 8
#     Node 9, Type 1, BuildingBlock: GIZVER_clean_sbu_0, # of connection points: 8
#     Node 10, Type 1, BuildingBlock: GIZVER_clean_sbu_0, # of connection points: 8
#     Edge 11, Type (0, 1), BuildingBlock: XUDNAN_clean_linker_2, # of connection points: 2
#     Edge 12, Type (0, 1), BuildingBlock: XUDNAN_clean_linker_2, # of connection points: 2
#     Edge 13, Type (0, 1), BuildingBlock: XUDNAN_clean_linker_2, # of connection points: 2
#     Edge 14, Type (0, 1), BuildingBlock: XUDNAN_clean_linker_2, # of connection points: 2
#     Edge 15, Type (0, 1), BuildingBlock: XUDNAN_clean_linker_2, # of connection points: 2
#     Edge 16, Type (0, 1), BuildingBlock: XUDNAN_clean_linker_2, # of connection points: 2
#     Edge 17, Type (0, 1), BuildingBlock: XUDNAN_clean_linker_2, # of connection points: 2
#     Edge 18, Type (0, 1), BuildingBlock: XUDNAN_clean_linker_2, # of connection points: 2
#     Edge 19, Type (0, 1), BuildingBlock: XUDNAN_clean_linker_2, # of connection points: 2
#     Edge 20, Type (0, 1), BuildingBlock: XUDNAN_clean_linker_2, # of connection points: 2
#     Edge 21, Type (0, 1), BuildingBlock: XUDNAN_clean_linker_2, # of connection points: 2
#     Edge 22, Type (0, 1), BuildingBlock: XUDNAN_clean_linker_2, # of connection points: 2
#     Edge 23, Type (0, 1), BuildingBlock: XUDNAN_clean_linker_2, # of connection points: 2
#     Edge 24, Type (0, 1), BuildingBlock: XUDNAN_clean_linker_2, # of connection points: 2
#     Edge 25, Type (0, 1), BuildingBlock: XUDNAN_clean_linker_2, # of connection points: 2
#     Edge 26, Type (0, 1), BuildingBlock: XUDNAN_clean_linker_2, # of connection points: 2
#     Edge 27, Type (0, 1), BuildingBlock: XUDNAN_clean_linker_2, # of connection points: 2
#     Edge 28, Type (0, 1), BuildingBlock: XUDNAN_clean_linker_2, # of connection points: 2
#     Edge 29, Type (0, 1), BuildingBlock: XUDNAN_clean_linker_2, # of connection points: 2
#     Edge 30, Type (0, 1), BuildingBlock: XUDNAN_clean_linker_2, # of connection points: 2
#     Edge 31, Type (0, 1), BuildingBlock: XUDNAN_clean_linker_2, # of connection points: 2
#     Edge 32, Type (0, 1), BuildingBlock: XUDNAN_clean_linker_2, # of connection points: 2
#     Edge 33, Type (0, 1), BuildingBlock: XUDNAN_clean_linker_2, # of connection points: 2
#     Edge 34, Type (0, 1), BuildingBlock: XUDNAN_clean_linker_2, # of connection points: 2
# Relax obj value: 0.043
# Max RMSD: 0.139
# Mean RMSD: 0.062
data_MOF--net-the--node1-WUSLED_clean_sbu_0--node2-GIZVER_clean_sbu_0--edge1-XUDNAN_clean_linker_2
_symmetry_space_group_name_H-M    P1
_symmetry_Int_Tables_number       1
_symmetry_cell_setting            triclinic
loop_
_symmetry_equiv_pos_as_xyz
'x, y, z'
_cell_length_a     52.246766
_cell_length_b     49.153941
_cell_length_c     45.918288
_cell_angle_alpha  86.601301
_cell_angle_beta   93.940823
_cell_angle_gamma 101.10029
loop_
_atom_site_label
_atom_site_type_symbol
_atom_site_fract_x
_atom_site_fract_y
_atom_site_fract_z
_atom_type_partial_charge
C0 C 0.36444 0.30807 0.47787 0.0
C1 C 0.37874 0.29525 0.45987 0.0
C2 C 0.38797 0.26357 0.50041 0.0
C3 C 0.39034 0.27314 0.47103 0.0
C4 C 0.37403 0.27687 0.51849 0.0
C5 C 0.3623 0.29888 0.50726 0.0
U6 U 0.3547 0.36594 0.42084 0.0
O7 O 0.31813 0.37585 0.40031 0.0
O8 O 0.34437 0.40651 0.42673 0.0
C9 C 0.32149 0.39987 0.41253 0.0
C10 C 0.35108 0.33048 0.46616 0.0
C11 C 0.29898 0.40477 0.42752 0.0
C12 C 0.27135 0.3967 0.46882 0.0
C13 C 0.29343 0.39255 0.45534 0.0
C14 C 0.26029 0.42532 0.4268 0.0
C15 C 0.25445 0.41306 0.45464 0.0
C16 C 0.28237 0.42122 0.41341 0.0
C17 C 0.3966 0.38376 0.35562 0.0
C18 C 0.38639 0.41747 0.31789 0.0
C19 C 0.42257 0.39408 0.31303 0.0
C20 C 0.41741 0.37957 0.33981 0.0
C21 C 0.40692 0.41296 0.30157 0.0
C22 C 0.38129 0.403 0.34466 0.0
C23 C 0.39041 0.36738 0.38295 0.0
O24 O 0.36496 0.35577 0.46705 0.0
O25 O 0.33731 0.32573 0.44131 0.0
O26 O 0.36792 0.34994 0.38193 0.0
O27 O 0.39459 0.38143 0.40686 0.0
H28 H 0.38076 0.30219 0.43716 0.0
H29 H 0.40132 0.26364 0.45667 0.0
H30 H 0.37175 0.26988 0.54115 0.0
H31 H 0.35129 0.30855 0.52145 0.0
H32 H 0.26756 0.38716 0.49035 0.0
H33 H 0.30607 0.37968 0.46649 0.0
H34 H 0.24747 0.43759 0.41499 0.0
H35 H 0.28628 0.43061 0.39183 0.0
H36 H 0.37417 0.4321 0.30989 0.0
H37 H 0.43832 0.38985 0.30089 0.0
H38 H 0.42938 0.36473 0.34793 0.0
H39 H 0.36517 0.40655 0.35665 0.0
C40 C 0.66907 0.3617 0.26911 0.0
C41 C 0.64622 0.37233 0.2715 0.0
C42 C 0.64818 0.39149 0.22123 0.0
C43 C 0.63596 0.38711 0.24794 0.0
C44 C 0.67133 0.38124 0.21904 0.0
C45 C 0.68163 0.36652 0.24264 0.0
U46 U 0.71664 0.3417 0.33257 0.0
O47 O 0.70708 0.32022 0.37494 0.0
O48 O 0.72697 0.30075 0.34369 0.0
C49 C 0.71531 0.29776 0.36848 0.0
C50 C 0.67779 0.34341 0.29322 0.0
C51 C 0.69781 0.27065 0.37469 0.0
C52 C 0.68819 0.22017 0.37237 0.0
C53 C 0.70337 0.24602 0.36469 0.0
C54 C 0.66154 0.24295 0.40027 0.0
C55 C 0.66715 0.21826 0.39042 0.0
C56 C 0.67666 0.26875 0.39256 0.0
C57 C 0.78109 0.39119 0.3547 0.0
C58 C 0.82317 0.38209 0.37496 0.0
C59 C 0.81076 0.42595 0.38268 0.0
C60 C 0.78701 0.4174 0.36678 0.0
C61 C 0.82929 0.40853 0.38674 0.0
C62 C 0.79931 0.37347 0.35919 0.0
C63 C 0.7564 0.3835 0.33657 0.0
O64 O 0.698 0.33207 0.28902 0.0
O65 O 0.6778 0.35158 0.31999 0.0
O66 O 0.73468 0.38234 0.34984 0.0
O67 O 0.75507 0.3633 0.31864 0.0
H68 H 0.63594 0.36873 0.29148 0.0
H69 H 0.61835 0.39502 0.25067 0.0
H70 H 0.68114 0.38383 0.19876 0.0
H71 H 0.6991 0.35838 0.23984 0.0
H72 H 0.69298 0.20167 0.36417 0.0
H73 H 0.71973 0.24667 0.35123 0.0
H74 H 0.64586 0.24234 0.41468 0.0
H75 H 0.67203 0.28716 0.40115 0.0
H76 H 0.83684 0.36802 0.37797 0.0
H77 H 0.8149 0.44656 0.39111 0.0
H78 H 0.77337 0.4315 0.36351 0.0
H79 H 0.79528 0.35306 0.35028 0.0
C80 C 0.67479 0.70874 0.27504 0.0
C81 C 0.67313 0.67981 0.27584 0.0
C82 C 0.65543 0.6781 0.22522 0.0
C83 C 0.66346 0.66464 0.25121 0.0
C84 C 0.65764 0.70712 0.22438 0.0
C85 C 0.66713 0.72222 0.24904 0.0
U86 U 0.71974 0.72946 0.34378 0.0
O87 O 0.73326 0.77076 0.3616 0.0
O88 O 0.70916 0.73788 0.38747 0.0
C89 C 0.72035 0.7642 0.3854 0.0
C90 C 0.68303 0.72514 0.30125 0.0
C91 C 0.70416 0.7839 0.39295 0.0
C92 C 0.666 0.80528 0.38359 0.0
C93 C 0.68208 0.78773 0.37524 0.0
C94 C 0.69426 0.81592 0.42712 0.0
C95 C 0.67165 0.81926 0.40988 0.0
C96 C 0.71032 0.79833 0.41873 0.0
C97 C 0.77763 0.6935 0.36564 0.0
C98 C 0.79779 0.69099 0.4148 0.0
C99 C 0.81727 0.67447 0.37455 0.0
C100 C 0.79758 0.68194 0.35524 0.0
C101 C 0.81722 0.67826 0.40467 0.0
C102 C 0.77822 0.69863 0.39545 0.0
C103 C 0.75552 0.69834 0.34555 0.0
O104 O 0.68011 0.71161 0.32675 0.0
O105 O 0.7051 0.74321 0.30019 0.0
O106 O 0.75815 0.72278 0.33165 0.0
O107 O 0.73222 0.6899 0.35564 0.0
H108 H 0.679 0.66884 0.29558 0.0
H109 H 0.66231 0.64237 0.2525 0.0
H110 H 0.65135 0.71814 0.20489 0.0
H111 H 0.66807 0.74447 0.24794 0.0
H112 H 0.64896 0.80767 0.36959 0.0
H113 H 0.67706 0.77682 0.3552 0.0
H114 H 0.69904 0.82611 0.4476 0.0
H115 H 0.72729 0.79557 0.4327 0.0
H116 H 0.79737 0.69445 0.43783 0.0
H117 H 0.83178 0.66447 0.3661 0.0
H118 H 0.79745 0.67784 0.3323 0.0
H119 H 0.7631 0.70775 0.4039 0.0
C120 C 0.26114 0.66658 0.34872 0.0
C121 C 0.25687 0.67789 0.37492 0.0
C122 C 0.21329 0.64888 0.37572 0.0
C123 C 0.23313 0.66913 0.3883 0.0
C124 C 0.2176 0.63813 0.34912 0.0
C125 C 0.24127 0.64689 0.33582 0.0
U126 U 0.32929 0.71203 0.33786 0.0
O127 O 0.36659 0.69853 0.33408 0.0
O128 O 0.35021 0.72139 0.29718 0.0
C129 C 0.36829 0.70716 0.3065 0.0
C130 C 0.28648 0.6738 0.33515 0.0
C131 C 0.37386 0.68689 0.28639 0.0
C132 C 0.37116 0.63926 0.2728 0.0
C133 C 0.3638 0.65838 0.29045 0.0
C134 C 0.3977 0.6769 0.24578 0.0
C135 C 0.38856 0.64824 0.25057 0.0
C136 C 0.39048 0.69601 0.26361 0.0
C137 C 0.35349 0.77716 0.38297 0.0
C138 C 0.39675 0.79522 0.4048 0.0
C139 C 0.36338 0.82342 0.40236 0.0
C140 C 0.34588 0.80224 0.38829 0.0
C141 C 0.38871 0.81969 0.41167 0.0
C142 C 0.37938 0.77423 0.39048 0.0
C143 C 0.33357 0.75342 0.37278 0.0
O144 O 0.29007 0.69623 0.31771 0.0
O145 O 0.30712 0.67147 0.35245 0.0
O146 O 0.3378 0.72862 0.38148 0.0
O147 O 0.32446 0.75478 0.34541 0.0
H148 H 0.27203 0.69308 0.38528 0.0
H149 H 0.23061 0.67767 0.40888 0.0
H150 H 0.20265 0.62289 0.33854 0.0
H151 H 0.24419 0.63794 0.31557 0.0
H152 H 0.36353 0.61736 0.27683 0.0
H153 H 0.35072 0.65083 0.3077 0.0
H154 H 0.41128 0.68449 0.22903 0.0
H155 H 0.39844 0.71791 0.26007 0.0
H156 H 0.41625 0.7919 0.41149 0.0
H157 H 0.35661 0.84197 0.40752 0.0
H158 H 0.326 0.80496 0.38274 0.0
H159 H 0.38589 0.75522 0.38646 0.0
C160 C 0.28068 0.67104 0.70658 0.0
C161 C 0.25733 0.66461 0.72112 0.0
C162 C 0.23212 0.65323 0.67525 0.0
C163 C 0.23337 0.65591 0.70569 0.0
C164 C 0.2555 0.66 0.66061 0.0
C165 C 0.2795 0.66885 0.67607 0.0
U166 U 0.34723 0.7182 0.72763 0.0
O167 O 0.36598 0.72687 0.77137 0.0
O168 O 0.38529 0.70655 0.74025 0.0
C169 C 0.38599 0.71539 0.7668 0.0
C170 C 0.3059 0.67808 0.724 0.0
C171 C 0.39468 0.69741 0.79083 0.0
C172 C 0.42937 0.68865 0.8261 0.0
C173 C 0.42027 0.70465 0.80294 0.0
C174 C 0.38731 0.65763 0.82555 0.0
C175 C 0.41311 0.66485 0.83774 0.0
C176 C 0.37818 0.67377 0.80224 0.0
C177 C 0.37 0.78843 0.68737 0.0
C178 C 0.41467 0.81441 0.69045 0.0
C179 C 0.37976 0.83676 0.6696 0.0
C180 C 0.36173 0.8121 0.67451 0.0
C181 C 0.40652 0.83827 0.67742 0.0
C182 C 0.3966 0.7898 0.69547 0.0
C183 C 0.35068 0.76255 0.69203 0.0
O184 O 0.32741 0.67814 0.71066 0.0
O185 O 0.30812 0.69861 0.74169 0.0
O186 O 0.33891 0.76007 0.7167 0.0
O187 O 0.35778 0.73952 0.68542 0.0
H188 H 0.25768 0.66581 0.74464 0.0
H189 H 0.21588 0.65052 0.71778 0.0
H190 H 0.25525 0.65848 0.63716 0.0
H191 H 0.29711 0.67362 0.66414 0.0
H192 H 0.44913 0.69526 0.83519 0.0
H193 H 0.43326 0.72292 0.79457 0.0
H194 H 0.37429 0.63935 0.83377 0.0
H195 H 0.35832 0.66786 0.79317 0.0
H196 H 0.43511 0.81454 0.69638 0.0
H197 H 0.37263 0.85472 0.65995 0.0
H198 H 0.34127 0.81152 0.66823 0.0
H199 H 0.40344 0.77179 0.70549 0.0
C200 C 0.28192 0.33815 0.66248 0.0
C201 C 0.26235 0.33755 0.6822 0.0
C202 C 0.2379 0.36259 0.64623 0.0
C203 C 0.24054 0.34956 0.6741 0.0
C204 C 0.25779 0.36372 0.62682 0.0
C205 C 0.27949 0.35152 0.63483 0.0
U206 U 0.34191 0.32392 0.71058 0.0
O207 O 0.3542 0.28431 0.72294 0.0
O208 O 0.37947 0.31616 0.69695 0.0
C209 C 0.37523 0.29046 0.70788 0.0
C210 C 0.30425 0.32389 0.66958 0.0
C211 C 0.37946 0.26896 0.6885 0.0
C212 C 0.36297 0.23065 0.65673 0.0
C213 C 0.35858 0.25243 0.67301 0.0
C214 C 0.40922 0.24241 0.67029 0.0
C215 C 0.38831 0.22501 0.65565 0.0
C216 C 0.40481 0.26406 0.68657 0.0
C217 C 0.36133 0.36521 0.7812 0.0
C218 C 0.403 0.38217 0.8074 0.0
C219 C 0.36277 0.37757 0.83198 0.0
C220 C 0.34856 0.36772 0.80654 0.0
C221 C 0.39016 0.38529 0.83266 0.0
C222 C 0.38875 0.3722 0.78194 0.0
C223 C 0.34536 0.35731 0.75401 0.0
O224 O 0.32766 0.33928 0.66754 0.0
O225 O 0.30255 0.30639 0.69248 0.0
O226 O 0.33078 0.33232 0.75419 0.0
O227 O 0.35637 0.36468 0.7291 0.0
H228 H 0.26367 0.32751 0.70374 0.0
H229 H 0.22571 0.34866 0.68969 0.0
H230 H 0.25624 0.37337 0.6051 0.0
H231 H 0.29422 0.35213 0.61918 0.0
H232 H 0.34639 0.21764 0.64588 0.0
H233 H 0.33882 0.25593 0.67405 0.0
H234 H 0.42906 0.2391 0.66947 0.0
H235 H 0.42122 0.27667 0.69816 0.0
H236 H 0.42409 0.38755 0.80725 0.0
H237 H 0.35217 0.38 0.85081 0.0
H238 H 0.32743 0.36269 0.80646 0.0
H239 H 0.39916 0.37043 0.76275 0.0
C240 C 0.67888 0.28479 0.68663 0.0
C241 C 0.69507 0.26569 0.68267 0.0
C242 C 0.65898 0.23536 0.65714 0.0
C243 C 0.68521 0.24122 0.66811 0.0
C244 C 0.6431 0.25495 0.66054 0.0
C245 C 0.65293 0.27929 0.67517 0.0
U246 U 0.72847 0.35081 0.70781 0.0
O247 O 0.721 0.39153 0.71883 0.0
O248 O 0.74084 0.36692 0.75124 0.0
C249 C 0.73021 0.38904 0.74606 0.0
C250 C 0.68799 0.30983 0.70373 0.0
C251 C 0.7145 0.39629 0.76927 0.0
C252 C 0.70442 0.39422 0.82054 0.0
C253 C 0.71674 0.38491 0.79797 0.0
C254 C 0.68678 0.42611 0.78627 0.0
C255 C 0.68963 0.41525 0.8151 0.0
C256 C 0.69918 0.41685 0.76368 0.0
C257 C 0.79294 0.37135 0.66922 0.0
C258 C 0.82686 0.41088 0.68189 0.0
C259 C 0.83281 0.38183 0.64305 0.0
C260 C 0.80832 0.3653 0.64754 0.0
C261 C 0.84247 0.40483 0.66018 0.0
C262 C 0.8023 0.39429 0.68636 0.0
C263 C 0.76744 0.35323 0.67381 0.0
O264 O 0.70808 0.3094 0.72253 0.0
O265 O 0.68889 0.33388 0.6893 0.0
O266 O 0.74676 0.36416 0.66621 0.0
O267 O 0.76557 0.33891 0.69891 0.0
H268 H 0.71521 0.26939 0.69124 0.0
H269 H 0.69798 0.22658 0.66614 0.0
H270 H 0.62299 0.25152 0.6519 0.0
H271 H 0.64008 0.29372 0.67787 0.0
H272 H 0.70675 0.38512 0.8424 0.0
H273 H 0.72855 0.36924 0.80325 0.0
H274 H 0.67577 0.44254 0.78134 0.0
H275 H 0.69737 0.42641 0.74195 0.0
H276 H 0.8335 0.42859 0.69525 0.0
H277 H 0.84438 0.37626 0.62645 0.0
H278 H 0.80145 0.34761 0.63419 0.0
H279 H 0.79064 0.3993 0.70319 0.0
C280 C 0.70517 0.7588 0.59461 0.0
C281 C 0.68371 0.76417 0.60854 0.0
C282 C 0.68524 0.8074 0.57926 0.0
C283 C 0.67375 0.78827 0.60084 0.0
C284 C 0.7063 0.80145 0.56488 0.0
C285 C 0.71615 0.77735 0.57251 0.0
U286 U 0.71165 0.69521 0.64506 0.0
O287 O 0.71996 0.65484 0.63378 0.0
O288 O 0.74677 0.68114 0.66409 0.0
C289 C 0.74284 0.6591 0.64831 0.0
C290 C 0.71706 0.73463 0.60353 0.0
C291 C 0.76532 0.655 0.63235 0.0
C292 C 0.80863 0.67204 0.61481 0.0
C293 C 0.78678 0.67668 0.62823 0.0
C294 C 0.7876 0.62424 0.60825 0.0
C295 C 0.80945 0.64571 0.6048 0.0
C296 C 0.76582 0.62883 0.62201 0.0
C297 C 0.66977 0.67418 0.70998 0.0
C298 C 0.66798 0.62987 0.73699 0.0
C299 C 0.65214 0.66712 0.75801 0.0
C300 C 0.65862 0.68416 0.73309 0.0
C301 C 0.6566 0.63973 0.76015 0.0
C302 C 0.67465 0.647 0.71218 0.0
C303 C 0.67682 0.69253 0.68412 0.0
O304 O 0.73095 0.73642 0.62855 0.0
O305 O 0.70189 0.71021 0.60034 0.0
O306 O 0.67155 0.681 0.65871 0.0
O307 O 0.70005 0.70851 0.68632 0.0
H308 H 0.67505 0.75003 0.62574 0.0
H309 H 0.65768 0.79242 0.6125 0.0
H310 H 0.71537 0.81561 0.54794 0.0
H311 H 0.73268 0.77345 0.56148 0.0
H312 H 0.82518 0.68898 0.6131 0.0
H313 H 0.78699 0.69715 0.63588 0.0
H314 H 0.78734 0.60382 0.60045 0.0
H315 H 0.74945 0.61183 0.62486 0.0
H316 H 0.67189 0.60896 0.73815 0.0
H317 H 0.64315 0.67521 0.77535 0.0
H318 H 0.65487 0.70514 0.73184 0.0
H319 H 0.68359 0.63904 0.69472 0.0
Co320 Co 0.08334 0.49758 0.55115 0.0
Co321 Co 0.05969 0.48792 0.49946 0.0
Co322 Co 0.03137 0.52918 0.53023 0.0
O323 O 0.04823 0.4959 0.53521 0.0
H324 H 0.03647 0.47986 0.5429 0.0
O325 O 1.0136 0.56203 0.52508 0.0
Co326 Co 0.97627 0.55676 0.51401 0.0
Co327 Co 1.0055 0.5692 0.56291 0.0
H328 H 1.02397 0.5781 0.5156 0.0
O329 O 0.06887 0.45361 0.49287 0.0
O330 O 0.09447 0.49092 0.51234 0.0
O331 O 0.06052 0.51628 0.46855 0.0
O332 O 0.05499 0.54817 0.49876 0.0
O333 O 1.00579 0.5091 0.50046 0.0
O334 O 0.94285 0.55467 0.50365 0.0
O335 O 0.97463 0.59282 0.50273 0.0
O336 O 0.97251 0.51835 0.52228 0.0
O337 O 1.00787 0.51055 0.56192 0.0
O338 O 1.01043 0.54237 0.59465 0.0
O339 O 0.96962 0.5636 0.55483 0.0
O340 O 0.99582 0.60242 0.57082 0.0
C341 C 0.10424 0.46936 0.57072 0.0
C342 C 0.08197 0.55196 0.5587 0.0
C343 C 0.06302 0.54147 0.47494 0.0
C344 C 0.09179 0.46651 0.50197 0.0
C345 C 0.95003 0.58118 0.49838 0.0
C346 C 0.98126 0.50466 0.50387 0.0
C347 C 1.00383 0.5174 0.58739 0.0
C348 C 0.97259 0.58838 0.56466 0.0
O349 O 0.11518 0.49536 0.56688 0.0
O350 O 0.07979 0.46123 0.56197 0.0
O351 O 0.05721 0.54936 0.56002 0.0
O352 O 0.09117 0.53622 0.54287 0.0
Co353 Co 0.55445 0.96879 0.51817 0.0
Co354 Co 0.57337 0.9976 0.56337 0.0
Co355 Co 0.52838 0.02499 0.53029 0.0
O356 O 0.55962 1.00738 0.52646 0.0
H357 H 0.5729 1.01888 0.51523 0.0
O358 O 0.49662 0.04235 0.53399 0.0
Co359 Co 0.4906 0.06283 0.5676 0.0
Co360 Co 0.49898 0.07627 0.51502 0.0
H361 H 0.48076 0.0301 0.52748 0.0
O362 O 0.60794 0.99346 0.56808 0.0
O363 O 0.57297 0.96087 0.5558 0.0
O364 O 0.55177 0.99603 0.5961 0.0
O365 O 0.51717 1.00378 0.56809 0.0
O366 O 0.55287 0.05457 0.55194 0.0
O367 O 0.48222 0.08008 0.59707 0.0
O368 O 0.45498 0.05746 0.56258 0.0
O369 O 0.52627 0.07282 0.57708 0.0
O370 O 0.53951 0.04653 0.4922 0.0
O371 O 0.53013 0.08863 0.49576 0.0
O372 O 0.49359 0.09834 0.54347 0.0
O373 O 0.46977 0.0899 0.50093 0.0
C374 C 0.57301 0.94323 0.4968 0.0
C375 C 0.50414 0.96878 0.51831 0.0
C376 C 0.52734 0.99507 0.59218 0.0
C377 C 0.59802 0.96807 0.56168 0.0
C378 C 0.45877 0.07317 0.58512 0.0
C379 C 0.54905 0.07099 0.57086 0.0
C380 C 0.54306 0.07268 0.48511 0.0
C381 C 0.4757 0.10424 0.52419 0.0
O382 O 0.55116 0.93399 0.50905 0.0
O383 O 0.58418 0.96933 0.49894 0.0
O384 O 0.50491 0.99389 0.50862 0.0
O385 O 0.52264 0.96323 0.53563 0.0
Co386 Co 0.50073 0.53719 0.09236 0.0
Co387 Co 0.49003 0.48747 0.07202 0.0
Co388 Co 0.52907 0.52532 0.03007 0.0
O389 O 0.49767 0.52278 0.05366 0.0
H390 H 0.48263 0.52691 0.04204 0.0
O391 O 0.56102 0.52809 1.00728 0.0
Co392 Co 0.56058 0.50814 0.97269 0.0
Co393 Co 0.56896 0.5603 0.98382 0.0
H394 H 0.57613 0.5264 0.02013 0.0
O395 O 0.45715 0.47343 0.08522 0.0
O396 O 0.49145 0.4988 0.10994 0.0
O397 O 0.51598 0.46433 0.07299 0.0
O398 O 0.54634 0.49932 0.05754 0.0
O399 O 0.50931 0.4932 1.0072 0.0
O400 O 0.5634 0.48902 0.94161 0.0
O401 O 0.59449 0.50474 0.97621 0.0
O402 O 0.52496 0.50885 0.9647 0.0
O403 O 0.51174 0.55139 1.00217 0.0
O404 O 0.54185 0.5812 0.97818 0.0
O405 O 0.56903 0.54313 0.94888 0.0
O406 O 0.60169 0.57433 0.96865 0.0
C407 C 0.47648 0.55055 0.1196 0.0
C408 C 0.55156 0.55479 0.08121 0.0
C409 C 0.53977 0.47549 0.07057 0.0
C410 C 0.468 0.48374 0.10944 0.0
C411 C 0.58742 0.49142 0.95231 0.0
C412 C 0.5076 0.49339 0.97929 0.0
C413 C 0.51835 0.57252 0.98457 0.0
C414 C 0.59151 0.5596 0.94674 0.0
O415 O 0.50085 0.55056 0.12744 0.0
O416 O 0.46703 0.54188 0.09396 0.0
O417 O 0.54839 0.55702 0.05335 0.0
O418 O 0.53667 0.53582 0.09544 0.0
H419 H 0.2336 0.46031 0.45416 0.0
H420 H 0.22037 0.37388 0.48521 0.0
H421 H 0.1785 0.37901 0.50406 0.0
H422 H 0.20394 0.48862 0.51213 0.0
H423 H 0.18922 0.51169 0.48728 0.0
H424 H 0.21931 0.5019 0.47896 0.0
H425 H 0.19817 0.48472 0.42926 0.0
H426 H 0.16786 0.49395 0.43739 0.0
H427 H 0.16845 0.45901 0.42821 0.0
H428 H 0.1358 0.39218 0.51457 0.0
H429 H 0.09677 0.41338 0.51817 0.0
H430 H 0.13851 0.49125 0.48148 0.0
C431 C 0.22205 0.44249 0.46516 0.0
C432 C 0.23035 0.41669 0.46823 0.0
C433 C 0.21465 0.39396 0.48292 0.0
C434 C 0.19075 0.39663 0.49357 0.0
C435 C 0.18289 0.42219 0.48952 0.0
C436 C 0.1982 0.44479 0.4759 0.0
C437 C 0.18458 0.46942 0.47246 0.0
C438 C 0.20019 0.49436 0.4887 0.0
C439 C 0.17947 0.47722 0.4399 0.0
C440 C 0.15935 0.4573 0.48669 0.0
C441 C 0.15858 0.42991 0.49609 0.0
C442 C 0.13632 0.4137 0.50764 0.0
C443 C 0.11425 0.42578 0.50944 0.0
C444 C 0.11491 0.45385 0.50027 0.0
C445 C 0.13781 0.46984 0.48911 0.0
H446 H 0.61422 0.20462 0.39672 0.0
H447 H 0.68469 0.16966 0.40599 0.0
H448 H 0.65913 0.12529 0.42494 0.0
H449 H 0.58939 0.17624 0.4625 0.0
H450 H 0.55567 0.17034 0.44892 0.0
H451 H 0.57897 0.1976 0.43242 0.0
H452 H 0.56632 0.1764 0.38184 0.0
H453 H 0.54309 0.14888 0.39832 0.0
H454 H 0.56826 0.14069 0.37729 0.0
H455 H 0.62602 0.08592 0.44804 0.0
H456 H 0.58961 0.0573 0.47458 0.0
H457 H 0.54181 0.11894 0.45021 0.0
C458 C 0.62433 0.18761 0.40248 0.0
C459 C 0.65153 0.19074 0.39972 0.0
C460 C 0.66382 0.16775 0.40739 0.0
C461 C 0.64945 0.14243 0.41828 0.0
C462 C 0.62272 0.14027 0.4212 0.0
C463 C 0.61034 0.16232 0.41341 0.0
C464 C 0.58197 0.15571 0.42074 0.0
C465 C 0.57618 0.17618 0.44243 0.0
C466 C 0.56384 0.1554 0.39288 0.0
C467 C 0.58046 0.12685 0.43473 0.0
C468 C 0.60396 0.11796 0.43446 0.0
C469 C 0.60743 0.09254 0.44796 0.0
C470 C 0.58661 0.0763 0.46283 0.0
C471 C 0.56285 0.0858 0.46435 0.0
C472 C 0.55967 0.11099 0.4493 0.0
H473 H 0.87035 0.68087 0.40122 0.0
H474 H 0.80532 0.6478 0.45503 0.0
H475 H 0.83394 0.62348 0.48749 0.0
H476 H 0.89768 0.62158 0.40378 0.0
H477 H 0.93139 0.63897 0.4063 0.0
H478 H 0.90686 0.65666 0.38898 0.0
H479 H 0.92085 0.69675 0.42432 0.0
H480 H 0.94558 0.67922 0.44166 0.0
H481 H 0.92158 0.68907 0.46322 0.0
H482 H 0.86639 0.59663 0.50849 0.0
H483 H 0.90295 0.57242 0.52112 0.0
H484 H 0.94962 0.62529 0.45775 0.0
C485 C 0.86232 0.66889 0.42014 0.0
C486 C 0.83559 0.66638 0.42568 0.0
C487 C 0.82576 0.65043 0.45059 0.0
C488 C 0.84186 0.63642 0.46911 0.0
C489 C 0.8679 0.63886 0.46273 0.0
C490 C 0.87829 0.65505 0.43922 0.0
C491 C 0.90676 0.65303 0.43681 0.0
C492 C 0.9109 0.64189 0.40721 0.0
C493 C 0.92475 0.6812 0.4418 0.0
C494 C 0.9103 0.63219 0.46183 0.0
C495 C 0.8875 0.62438 0.47637 0.0
C496 C 0.88461 0.60315 0.49795 0.0
C497 C 0.90548 0.5895 0.5049 0.0
C498 C 0.92933 0.59755 0.49102 0.0
C499 C 0.93191 0.61942 0.46939 0.0
H500 H 0.40329 0.87706 0.40481 0.0
H501 H 0.41191 0.80662 0.46373 0.0
H502 H 0.43935 0.83797 0.49819 0.0
H503 H 0.46951 0.91383 0.41684 0.0
H504 H 0.4612 0.94785 0.41502 0.0
H505 H 0.44089 0.92023 0.39533 0.0
H506 H 0.40068 0.92792 0.42151 0.0
H507 H 0.42094 0.95546 0.44142 0.0
H508 H 0.40171 0.92656 0.46089 0.0
H509 H 0.46589 0.87551 0.52582 0.0
H510 H 0.49378 0.91751 0.54433 0.0
H511 H 0.47029 0.96556 0.46808 0.0
C512 C 0.4109 0.86839 0.42506 0.0
C513 C 0.40555 0.83936 0.43159 0.0
C514 C 0.416 0.82869 0.45816 0.0
C515 C 0.43142 0.84636 0.47798 0.0
C516 C 0.43642 0.87475 0.47095 0.0
C517 C 0.42676 0.88583 0.4451 0.0
C518 C 0.4365 0.91711 0.4426 0.0
C519 C 0.45301 0.92523 0.41586 0.0
C520 C 0.41359 0.93268 0.44154 0.0
C521 C 0.45323 0.9217 0.471 0.0
C522 C 0.4525 0.89685 0.48699 0.0
C523 C 0.46663 0.8951 0.51354 0.0
C524 C 0.48248 0.9192 0.52383 0.0
C525 C 0.4843 0.94498 0.50773 0.0
C526 C 0.46908 0.9463 0.4811 0.0
H527 H 0.2222 0.61606 0.63138 0.0
H528 H 0.18412 0.66619 0.68279 0.0
H529 H 0.14162 0.64709 0.65773 0.0
H530 H 0.18281 0.62249 0.56371 0.0
H531 H 0.18224 0.58727 0.55436 0.0
H532 H 0.20967 0.60561 0.57575 0.0
H533 H 0.20307 0.56618 0.61615 0.0
H534 H 0.1756 0.54778 0.59491 0.0
H535 H 0.17172 0.55622 0.63181 0.0
H536 H 0.10258 0.62091 0.62772 0.0
H537 H 0.07105 0.5901 0.59565 0.0
H538 H 0.13528 0.55819 0.56369 0.0
C539 C 0.20503 0.6234 0.63707 0.0
C540 C 0.20662 0.64271 0.6591 0.0
C541 C 0.18345 0.65124 0.66623 0.0
C542 C 0.1592 0.64061 0.65198 0.0
C543 C 0.15832 0.62144 0.63056 0.0
C544 C 0.18068 0.61297 0.62312 0.0
C545 C 0.17443 0.59159 0.59995 0.0
C546 C 0.1881 0.6024 0.57177 0.0
C547 C 0.18163 0.5638 0.6114 0.0
C548 C 0.14509 0.58928 0.59558 0.0
C549 C 0.13608 0.60663 0.61336 0.0
C550 C 0.10949 0.60737 0.61357 0.0
C551 C 0.0917 0.58981 0.59527 0.0
C552 C 0.10057 0.57175 0.57699 0.0
C553 C 0.12771 0.57182 0.57717 0.0
H554 H 0.42103 0.18954 0.6747 0.0
H555 H 0.36612 0.20439 0.60302 0.0
H556 H 0.37394 0.1629 0.57937 0.0
H557 H 0.46704 0.16951 0.6306 0.0
H558 H 0.47589 0.14432 0.65762 0.0
H559 H 0.46445 0.17409 0.66887 0.0
H560 H 0.42831 0.14138 0.69696 0.0
H561 H 0.43934 0.11147 0.68525 0.0
H562 H 0.4058 0.11502 0.6777 0.0
H563 H 0.38951 0.11971 0.56298 0.0
H564 H 0.41456 0.08349 0.55331 0.0
H565 H 0.4588 0.09837 0.63608 0.0
C566 C 0.41065 0.18424 0.65396 0.0
C567 C 0.39288 0.20027 0.64082 0.0
C568 C 0.37955 0.19224 0.61379 0.0
C569 C 0.38388 0.16869 0.60018 0.0
C570 C 0.40143 0.15325 0.61399 0.0
C571 C 0.41473 0.16097 0.64018 0.0
C572 C 0.43363 0.14208 0.64998 0.0
C573 C 0.46192 0.15847 0.65185 0.0
C574 C 0.42632 0.12657 0.6792 0.0
C575 C 0.4291 0.12251 0.62519 0.0
C576 C 0.4103 0.12894 0.60467 0.0
C577 C 0.40401 0.11433 0.57914 0.0
C578 C 0.41813 0.09353 0.57395 0.0
C579 C 0.43853 0.08793 0.59402 0.0
C580 C 0.44318 0.10193 0.62041 0.0
H581 H 0.86489 0.42147 0.60794 0.0
H582 H 0.87974 0.42751 0.70172 0.0
H583 H 0.92358 0.45548 0.69384 0.0
H584 H 0.92866 0.41406 0.59045 0.0
H585 H 0.92863 0.43542 0.55713 0.0
H586 H 0.89827 0.41648 0.57022 0.0
H587 H 0.8804 0.4622 0.56961 0.0
H588 H 0.91077 0.48132 0.55657 0.0
H589 H 0.89855 0.49103 0.58938 0.0
H590 H 0.96561 0.48467 0.67514 0.0
H591 H 1.00189 0.5116 0.64713 0.0
H592 H 0.96049 0.48246 0.56645 0.0
C593 C 0.87742 0.42836 0.62689 0.0
C594 C 0.86878 0.42215 0.65549 0.0
C595 C 0.8857 0.43223 0.67958 0.0
C596 C 0.91075 0.44798 0.67534 0.0
C597 C 0.91869 0.45347 0.64686 0.0
C598 C 0.90246 0.44398 0.62306 0.0
C599 C 0.91534 0.45324 0.59466 0.0
C600 C 0.91788 0.4283 0.5771 0.0
C601 C 0.90037 0.47311 0.57648 0.0
C602 C 0.94172 0.46847 0.6062 0.0
C603 C 0.94314 0.46899 0.63632 0.0
C604 C 0.96486 0.48397 0.65159 0.0
C605 C 0.98541 0.49909 0.63557 0.0
C606 C 0.98433 0.49854 0.60472 0.0
C607 C 0.96232 0.48263 0.59006 0.0
H608 H 0.63484 0.8171 0.572 0.0
H609 H 0.71612 0.85862 0.57324 0.0
H610 H 0.70239 0.90389 0.5659 0.0
H611 H 0.61064 0.86469 0.51652 0.0
H612 H 0.58054 0.86369 0.53375 0.0
H613 H 0.59629 0.83398 0.53728 0.0
H614 H 0.5972 0.83468 0.59366 0.0
H615 H 0.58119 0.86413 0.59048 0.0
H616 H 0.61187 0.86609 0.61151 0.0
H617 H 0.68039 0.94459 0.56251 0.0
H618 H 0.65119 0.97853 0.56139 0.0
H619 H 0.58385 0.91115 0.5613 0.0
C620 C 0.64971 0.83574 0.57055 0.0
C621 C 0.67657 0.83433 0.57311 0.0
C622 C 0.69545 0.85915 0.57094 0.0
C623 C 0.68785 0.88498 0.56692 0.0
C624 C 0.66129 0.88568 0.56488 0.0
C625 C 0.64245 0.86175 0.56626 0.0
C626 C 0.61522 0.8685 0.56403 0.0
C627 C 0.59977 0.85703 0.53625 0.0
C628 C 0.60051 0.85772 0.59156 0.0
C629 C 0.62179 0.89994 0.56203 0.0
C630 C 0.64848 0.90935 0.5624 0.0
C631 C 0.65944 0.93751 0.56202 0.0
C632 C 0.64268 0.95662 0.56151 0.0
C633 C 0.61526 0.9475 0.56136 0.0
C634 C 0.60473 0.91876 0.56127 0.0
H635 H 0.38719 0.21494 0.47406 0.0
H636 H 0.41591 0.25841 0.55276 0.0
H637 H 0.43857 0.22009 0.56996 0.0
H638 H 0.37853 0.14407 0.50905 0.0
H639 H 0.38855 0.12984 0.47736 0.0
H640 H 0.37226 0.15912 0.47312 0.0
H641 H 0.41092 0.18707 0.44487 0.0
H642 H 0.42734 0.158 0.4491 0.0
H643 H 0.44357 0.19134 0.4617 0.0
H644 H 0.4626 0.17969 0.57526 0.0
H645 H 0.48362 0.13947 0.56973 0.0
H646 H 0.43814 0.12245 0.48787 0.0
C647 C 0.39811 0.21634 0.495 0.0
C648 C 0.39997 0.23975 0.51196 0.0
C649 C 0.41413 0.2406 0.53946 0.0
C650 C 0.42711 0.21897 0.54937 0.0
C651 C 0.42545 0.19652 0.53167 0.0
C652 C 0.41098 0.19492 0.50526 0.0
C653 C 0.41312 0.16924 0.48972 0.0
C654 C 0.38653 0.14939 0.48717 0.0
C655 C 0.42441 0.17688 0.45958 0.0
C656 C 0.43206 0.1573 0.51079 0.0
C657 C 0.43876 0.1731 0.53503 0.0
C658 C 0.4572 0.16696 0.55657 0.0
C659 C 0.46912 0.14414 0.55315 0.0
C660 C 0.46249 0.12772 0.52838 0.0
C661 C 0.44353 0.13439 0.50717 0.0
H662 H 0.83962 0.43788 0.4369 0.0
H663 H 0.87762 0.40184 0.37175 0.0
H664 H 0.92065 0.42002 0.39614 0.0
H665 H 0.88601 0.50037 0.44276 0.0
H666 H 0.8842 0.50215 0.48163 0.0
H667 H 0.85641 0.48482 0.46009 0.0
H668 H 0.85554 0.43994 0.49316 0.0
H669 H 0.88318 0.45746 0.5148 0.0
H670 H 0.8847 0.42528 0.4988 0.0
H671 H 0.96002 0.44491 0.42621 0.0
H672 H 0.9919 0.47378 0.45958 0.0
H673 H 0.92786 0.49297 0.50502 0.0
C674 C 0.85697 0.43374 0.42777 0.0
C675 C 0.85515 0.41834 0.40238 0.0
C676 C 0.87841 0.41322 0.39137 0.0
C677 C 0.90298 0.42359 0.40502 0.0
C678 C 0.90407 0.43889 0.42984 0.0
C679 C 0.88164 0.4438 0.4412 0.0
C680 C 0.88811 0.46132 0.46773 0.0
C681 C 0.87809 0.48879 0.46274 0.0
C682 C 0.87723 0.44501 0.49524 0.0
C683 C 0.91768 0.46614 0.46908 0.0
C684 C 0.92658 0.4529 0.44719 0.0
C685 C 0.95324 0.45518 0.44357 0.0
C686 C 0.97122 0.47163 0.46263 0.0
C687 C 0.96248 0.48567 0.48499 0.0
C688 C 0.9353 0.48248 0.4883 0.0
H689 H 0.68273 0.86999 0.43614 0.0
H690 H 0.6185 0.80535 0.4075 0.0
H691 H 0.58719 0.83119 0.42512 0.0
H692 H 0.65542 0.88301 0.50164 0.0
H693 H 0.66629 0.92017 0.49979 0.0
H694 H 0.68468 0.89811 0.48363 0.0
H695 H 0.68125 0.92411 0.43357 0.0
H696 H 0.66351 0.94709 0.4493 0.0
H697 H 0.64963 0.92826 0.41766 0.0
H698 H 0.56289 0.86213 0.44693 0.0
H699 H 0.54609 0.8975 0.47144 0.0
H700 H 0.62514 0.94356 0.48672 0.0
C701 C 0.66207 0.86132 0.43355 0.0
C702 C 0.65309 0.83569 0.4201 0.0
C703 C 0.62588 0.82513 0.41712 0.0
C704 C 0.60791 0.83959 0.42724 0.0
C705 C 0.61736 0.86469 0.44027 0.0
C706 C 0.64373 0.87563 0.44343 0.0
C707 C 0.64841 0.90297 0.45869 0.0
C708 C 0.66465 0.90096 0.48767 0.0
C709 C 0.66147 0.92703 0.4386 0.0
C710 C 0.62051 0.90545 0.46379 0.0
C711 C 0.60306 0.88303 0.45289 0.0
C712 C 0.5763 0.87989 0.45538 0.0
C713 C 0.56697 0.90013 0.46943 0.0
C714 C 0.58426 0.92344 0.4808 0.0
C715 C 0.61145 0.92623 0.4778 0.0
H716 H 0.18637 0.59513 0.38083 0.0
H717 H 0.18412 0.67879 0.40445 0.0
H718 H 0.14334 0.66105 0.42945 0.0
H719 H 0.11647 0.57248 0.36677 0.0
H720 H 0.11664 0.53789 0.38213 0.0
H721 H 0.14517 0.55737 0.36544 0.0
H722 H 0.17304 0.55033 0.41305 0.0
H723 H 0.14461 0.53136 0.43027 0.0
H724 H 0.16394 0.56138 0.447 0.0
H725 H 0.10362 0.63338 0.45402 0.0
H726 H 0.06952 0.59823 0.47692 0.0
H727 H 0.09718 0.53334 0.43506 0.0
C728 C 0.17712 0.60986 0.3908 0.0
C729 C 0.18846 0.63844 0.39048 0.0
C730 C 0.17598 0.6568 0.40455 0.0
C731 C 0.15268 0.64694 0.41862 0.0
C732 C 0.14201 0.61866 0.41838 0.0
C733 C 0.15389 0.60041 0.40485 0.0
C734 C 0.13912 0.57086 0.40865 0.0
C735 C 0.12873 0.55896 0.37898 0.0
C736 C 0.15623 0.55242 0.42576 0.0
C737 C 0.11706 0.57525 0.42648 0.0
C738 C 0.11902 0.60294 0.43193 0.0
C739 C 0.10174 0.61169 0.44956 0.0
C740 C 0.08237 0.59157 0.46241 0.0
C741 C 0.08034 0.563 0.45751 0.0
C742 C 0.09769 0.55499 0.43876 0.0
H743 H 0.40732 0.8757 0.62998 0.0
H744 H 0.44987 0.8603 0.71199 0.0
H745 H 0.48309 0.90206 0.70153 0.0
H746 H 0.46126 0.89854 0.58768 0.0
H747 H 0.44693 0.92484 0.56707 0.0
H748 H 0.42625 0.89469 0.58241 0.0
H749 H 0.40261 0.92736 0.60869 0.0
H750 H 0.42415 0.95732 0.59382 0.0
H751 H 0.42134 0.95246 0.63277 0.0
H752 H 0.5137 0.94329 0.68022 0.0
H753 H 0.53962 0.97966 0.6491 0.0
H754 H 0.47623 0.9695 0.58206 0.0
C755 C 0.42328 0.88137 0.64611 0.0
C756 C 0.42587 0.86447 0.67183 0.0
C757 C 0.44751 0.87251 0.69192 0.0
C758 C 0.4664 0.89642 0.68633 0.0
C759 C 0.46332 0.91241 0.66068 0.0
C760 C 0.44222 0.90529 0.64097 0.0
C761 C 0.44415 0.92524 0.61436 0.0
C762 C 0.44471 0.90989 0.58624 0.0
C763 C 0.42173 0.94156 0.6123 0.0
C764 C 0.47017 0.94402 0.62164 0.0
C765 C 0.48073 0.93652 0.64866 0.0
C766 C 0.50543 0.94962 0.65923 0.0
C767 C 0.52001 0.97033 0.64141 0.0
C768 C 0.50991 0.9778 0.61326 0.0
C769 C 0.48433 0.96488 0.60372 0.0
H770 H 0.23523 0.4125 0.61685 0.0
H771 H 0.18689 0.33899 0.65487 0.0
H772 H 0.14733 0.35788 0.63916 0.0
H773 H 0.19763 0.46161 0.63648 0.0
H774 H 0.20223 0.48247 0.60293 0.0
H775 H 0.22661 0.46292 0.61686 0.0
H776 H 0.223 0.43922 0.5676 0.0
H777 H 0.19787 0.45775 0.55353 0.0
H778 H 0.19178 0.4204 0.55412 0.0
H779 H 0.11287 0.38446 0.61815 0.0
H780 H 0.08646 0.41803 0.59626 0.0
H781 H 0.15745 0.47458 0.57322 0.0
C782 C 0.21632 0.40032 0.62176 0.0
C783 C 0.21417 0.37427 0.63714 0.0
C784 C 0.18905 0.35913 0.64342 0.0
C785 C 0.16645 0.3696 0.63441 0.0
C786 C 0.16927 0.39532 0.61926 0.0
C787 C 0.19358 0.41056 0.61315 0.0
C788 C 0.19127 0.43777 0.59687 0.0
C789 C 0.20526 0.46266 0.61434 0.0
C790 C 0.20162 0.43885 0.5662 0.0
C791 C 0.16192 0.43571 0.59522 0.0
C792 C 0.14953 0.41088 0.60787 0.0
C793 C 0.12238 0.40404 0.60837 0.0
C794 C 0.10754 0.42321 0.59587 0.0
C795 C 0.11991 0.44904 0.58346 0.0
C796 C 0.14745 0.4552 0.58303 0.0
H797 H 0.61013 0.20301 0.66198 0.0
H798 H 0.68267 0.2073 0.61967 0.0
H799 H 0.66386 0.1636 0.59562 0.0
H800 H 0.59459 0.12853 0.67391 0.0
H801 H 0.56004 0.12679 0.66617 0.0
H802 H 0.57981 0.1575 0.68117 0.0
H803 H 0.56404 0.18761 0.63782 0.0
H804 H 0.5441 0.15703 0.62287 0.0
H805 H 0.56785 0.17902 0.60093 0.0
H806 H 0.63571 0.11991 0.57416 0.0
H807 H 0.60076 0.08181 0.55672 0.0
H808 H 0.54724 0.10727 0.61326 0.0
C809 C 0.62212 0.19493 0.64757 0.0
C810 C 0.64795 0.20875 0.64279 0.0
C811 C 0.66296 0.19701 0.62405 0.0
C812 C 0.6524 0.17221 0.61018 0.0
C813 C 0.6268 0.15927 0.61529 0.0
C814 C 0.6119 0.17032 0.63355 0.0
C815 C 0.58464 0.15308 0.63477 0.0
C816 C 0.57948 0.14075 0.66585 0.0
C817 C 0.56395 0.17021 0.62341 0.0
C818 C 0.58637 0.13074 0.6141 0.0
C819 C 0.61083 0.13444 0.60314 0.0
C820 C 0.61654 0.11674 0.58281 0.0
C821 C 0.5966 0.09505 0.57309 0.0
C822 C 0.57121 0.09135 0.58363 0.0
C823 C 0.56641 0.10928 0.60478 0.0
H824 H 0.83105 0.59858 0.61148 0.0
H825 H 0.84264 0.68126 0.56949 0.0
H826 H 0.88524 0.67507 0.55386 0.0
H827 H 0.89499 0.59943 0.63813 0.0
H828 H 0.89563 0.56396 0.63076 0.0
H829 H 0.86517 0.57388 0.63722 0.0
H830 H 0.84518 0.55475 0.58775 0.0
H831 H 0.87552 0.54456 0.58102 0.0
H832 H 0.86133 0.56689 0.55472 0.0
H833 H 0.92867 0.66223 0.54806 0.0
H834 H 0.9677 0.64079 0.54644 0.0
H835 H 0.92625 0.56498 0.5877 0.0
C836 C 0.84214 0.61516 0.59834 0.0
C837 C 0.83352 0.6406 0.59213 0.0
C838 C 0.84901 0.66184 0.57522 0.0
C839 C 0.87319 0.65846 0.56603 0.0
C840 C 0.88144 0.63353 0.57343 0.0
C841 C 0.86614 0.61198 0.58858 0.0
C842 C 0.87978 0.58743 0.59406 0.0
C843 C 0.88415 0.58081 0.627 0.0
C844 C 0.86455 0.56191 0.57845 0.0
C845 C 0.90537 0.59885 0.58024 0.0
C846 C 0.90602 0.62559 0.56872 0.0
C847 C 0.92827 0.64117 0.5566 0.0
C848 C 0.95034 0.62895 0.55597 0.0
C849 C 0.94971 0.6013 0.56675 0.0
C850 C 0.92697 0.58606 0.57898 0.0
H851 H 0.45366 0.43572 0.27739 0.0
H852 H 0.36967 0.4208 0.25869 0.0
H853 H 0.37626 0.44106 0.20874 0.0
H854 H 0.46823 0.50147 0.23317 0.0
H855 H 0.49806 0.49395 0.22094 0.0
H856 H 0.48696 0.48058 0.25624 0.0
H857 H 0.48815 0.43056 0.24218 0.0
H858 H 0.4994 0.44374 0.20698 0.0
H859 H 0.47034 0.41734 0.20935 0.0
H860 H 0.39179 0.45867 0.15962 0.0
H861 H 0.41542 0.47352 0.11484 0.0
H862 H 0.48933 0.47772 0.16511 0.0
C863 C 0.43665 0.4369 0.26285 0.0
C864 C 0.41112 0.42678 0.27208 0.0
C865 C 0.38939 0.42883 0.25237 0.0
C866 C 0.39294 0.44021 0.22388 0.0
C867 C 0.41833 0.44969 0.21541 0.0
C868 C 0.43984 0.44836 0.23434 0.0
C869 C 0.46505 0.45896 0.21929 0.0
C870 C 0.48048 0.48531 0.23325 0.0
C871 C 0.4817 0.43629 0.21946 0.0
C872 C 0.45432 0.4655 0.18872 0.0
C873 C 0.42732 0.46024 0.18704 0.0
C874 C 0.41293 0.46323 0.16074 0.0
C875 C 0.42649 0.47154 0.13543 0.0
C876 C 0.45413 0.47694 0.13664 0.0
C877 C 0.46818 0.47416 0.1637 0.0
H878 H 0.46201 0.65187 0.84598 0.0
H879 H 0.38747 0.63976 0.88584 0.0
H880 H 0.4056 0.61423 0.92798 0.0
H881 H 0.47842 0.58554 0.87027 0.0
H882 H 0.51269 0.59997 0.87606 0.0
H883 H 0.49305 0.61558 0.8486 0.0
H884 H 0.50725 0.66292 0.87277 0.0
H885 H 0.52676 0.64739 0.90041 0.0
H886 H 0.50202 0.66529 0.91087 0.0
H887 H 0.43313 0.5902 0.96675 0.0
H888 H 0.467 0.57078 0.99745 0.0
H889 H 0.52322 0.60179 0.93235 0.0
C890 C 0.44943 0.64399 0.86357 0.0
C891 C 0.42328 0.648 0.86251 0.0
C892 C 0.40747 0.63676 0.88588 0.0
C893 C 0.41766 0.62235 0.91003 0.0
C894 C 0.4437 0.61929 0.91054 0.0
C895 C 0.45928 0.62977 0.88778 0.0
C896 C 0.48672 0.62429 0.89355 0.0
C897 C 0.49308 0.60521 0.87077 0.0
C898 C 0.50687 0.6516 0.89446 0.0
C899 C 0.48443 0.60961 0.9234 0.0
C900 C 0.45944 0.60648 0.93283 0.0
C901 C 0.45278 0.59272 0.95957 0.0
C902 C 0.47213 0.58181 0.97691 0.0
C903 C 0.49792 0.58514 0.96764 0.0
C904 C 0.50391 0.59934 0.94052 0.0
H905 H 0.43155 0.42929 0.83519 0.0
H906 H 0.38237 0.36924 0.89039 0.0
H907 H 0.40594 0.39085 0.93429 0.0
H908 H 0.49126 0.43151 0.87999 0.0
H909 H 0.50236 0.46817 0.87273 0.0
H910 H 0.48145 0.44786 0.84596 0.0
H911 H 0.44855 0.48121 0.84588 0.0
H912 H 0.46928 0.50149 0.87282 0.0
H913 H 0.43568 0.4874 0.87981 0.0
H914 H 0.43552 0.4197 0.97265 0.0
H915 H 0.46897 0.45207 1.00116 0.0
H916 H 0.49818 0.49236 0.9201 0.0
C917 C 0.4259 0.42041 0.85648 0.0
C918 C 0.40506 0.3975 0.85924 0.0
C919 C 0.39807 0.38694 0.88763 0.0
C920 C 0.41141 0.39903 0.91273 0.0
C921 C 0.43172 0.42174 0.90918 0.0
C922 C 0.43895 0.43223 0.8817 0.0
C923 C 0.46138 0.45677 0.88367 0.0
C924 C 0.48554 0.4507 0.86977 0.0
C925 C 0.45322 0.48328 0.86972 0.0
C926 C 0.46578 0.45836 0.91649 0.0
C927 C 0.4485 0.43811 0.93097 0.0
C928 C 0.44914 0.43564 0.96148 0.0
C929 C 0.46815 0.45415 0.97753 0.0
C930 C 0.48627 0.47479 0.96299 0.0
C931 C 0.48472 0.47687 0.93205 0.0
H932 H 0.64105 0.4294 0.81638 0.0
H933 H 0.7128 0.42732 0.86934 0.0
H934 H 0.69463 0.4465 0.91009 0.0
H935 H 0.62934 0.49407 0.84246 0.0
H936 H 0.59442 0.48251 0.84176 0.0
H937 H 0.61337 0.46905 0.81668 0.0
H938 H 0.59407 0.41892 0.83547 0.0
H939 H 0.57533 0.43244 0.86073 0.0
H940 H 0.59727 0.4097 0.87396 0.0
H941 H 0.66894 0.46688 0.94498 0.0
H942 H 0.63689 0.48514 0.97182 0.0
H943 H 0.58164 0.47297 0.89656 0.0
C944 C 0.65301 0.43313 0.83648 0.0
C945 C 0.67835 0.42669 0.83964 0.0
C946 C 0.6932 0.43165 0.86648 0.0
C947 C 0.68312 0.44274 0.88972 0.0
C948 C 0.6581 0.44879 0.88589 0.0
C949 C 0.6432 0.44411 0.85998 0.0
C950 C 0.61672 0.45207 0.86171 0.0
C951 C 0.61328 0.47584 0.83932 0.0
C952 C 0.59454 0.42677 0.85774 0.0
C953 C 0.61902 0.46175 0.89268 0.0
C954 C 0.64313 0.45995 0.90618 0.0
C955 C 0.64995 0.46826 0.93466 0.0
C956 C 0.63163 0.47861 0.94974 0.0
C957 C 0.60669 0.48032 0.93643 0.0
C958 C 0.60043 0.4717 0.90751 0.0
H959 H 0.66397 0.65217 0.81806 0.0
H960 H 0.63063 0.58583 0.76062 0.0
H961 H 0.61439 0.55607 0.80323 0.0
H962 H 0.68286 0.60693 0.88017 0.0
H963 H 0.6746 0.62869 0.90695 0.0
H964 H 0.68595 0.64375 0.87231 0.0
H965 H 0.64423 0.66501 0.86309 0.0
H966 H 0.63281 0.65006 0.89764 0.0
H967 H 0.6126 0.64265 0.86458 0.0
H968 H 0.59674 0.53616 0.85065 0.0
H969 H 0.58066 0.52647 0.89999 0.0
H970 H 0.6275 0.60439 0.92775 0.0
C971 C 0.65349 0.63127 0.81452 0.0
C972 C 0.6486 0.62127 0.78604 0.0
C973 C 0.63489 0.59378 0.78227 0.0
C974 C 0.62554 0.57676 0.80633 0.0
C975 C 0.63036 0.5874 0.83405 0.0
C976 C 0.64425 0.6139 0.83833 0.0
C977 C 0.64561 0.62077 0.87022 0.0
C978 C 0.67395 0.6253 0.88317 0.0
C979 C 0.63306 0.64611 0.87409 0.0
C980 C 0.62949 0.59437 0.88302 0.0
C981 C 0.62101 0.57535 0.86178 0.0
C982 C 0.60384 0.55054 0.86765 0.0
C983 C 0.59486 0.54517 0.89585 0.0
C984 C 0.60335 0.56427 0.91804 0.0
C985 C 0.62124 0.58899 0.91153 0.0
H986 H 0.62017 0.62869 0.22424 0.0
H987 H 0.66482 0.69125 0.16743 0.0
H988 H 0.64448 0.66578 0.1243 0.0
H989 H 0.62315 0.56913 0.18169 0.0
H990 H 0.59029 0.55211 0.18886 0.0
H991 H 0.60924 0.57469 0.21519 0.0
H992 H 0.57263 0.60373 0.21363 0.0
H993 H 0.55363 0.58129 0.18725 0.0
H994 H 0.56165 0.61815 0.17905 0.0
H995 H 0.61781 0.634 0.08703 0.0
H996 H 0.58693 0.59889 0.05911 0.0
H997 H 0.56032 0.55721 0.14063 0.0
C998 C 0.62603 0.63681 0.20277 0.0
C999 C 0.64417 0.66199 0.19928 0.0
C1000 C 0.65082 0.67216 0.17069 0.0
C1001 C 0.63946 0.65775 0.14605 0.0
C1002 C 0.62147 0.63314 0.15028 0.0
C1003 C 0.61483 0.62275 0.17795 0.0
C1004 C 0.59432 0.5964 0.17654 0.0
C1005 C 0.60489 0.57162 0.19145 0.0
C1006 C 0.56907 0.60013 0.1899 0.0
C1007 C 0.59034 0.59368 0.14378 0.0
C1008 C 0.60621 0.61499 0.12895 0.0
C1009 C 0.6054 0.61714 0.09845 0.0
C1010 C 0.58779 0.5971 0.08276 0.0
C1011 C 0.57118 0.57521 0.09758 0.0
C1012 C 0.57277 0.57354 0.12852 0.0
H1013 H 0.39531 0.64881 0.19123 0.0
H1014 H 0.40553 0.60172 0.27277 0.0
H1015 H 0.42528 0.56919 0.24683 0.0
H1016 H 0.38029 0.58821 0.14433 0.0
H1017 H 0.39779 0.60665 0.11443 0.0
H1018 H 0.38251 0.62519 0.13885 0.0
H1019 H 0.42679 0.65806 0.1497 0.0
H1020 H 0.44217 0.63967 0.12532 0.0
H1021 H 0.45488 0.64352 0.16266 0.0
H1022 H 0.44884 0.54554 0.21397 0.0
H1023 H 0.47257 0.53036 0.17525 0.0
H1024 H 0.44471 0.5896 0.11332 0.0
C1025 C 0.40145 0.63146 0.20352 0.0
C1026 C 0.39869 0.62773 0.23406 0.0
C1027 C 0.40701 0.60478 0.24935 0.0
C1028 C 0.41835 0.58622 0.23481 0.0
C1029 C 0.42099 0.5906 0.20483 0.0
C1030 C 0.41254 0.61243 0.18921 0.0
C1031 C 0.41857 0.61283 0.15725 0.0
C1032 C 0.39328 0.60792 0.13755 0.0
C1033 C 0.43668 0.64014 0.14822 0.0
C1034 C 0.43246 0.58834 0.15758 0.0
C1035 C 0.43358 0.57588 0.18534 0.0
C1036 C 0.44748 0.5546 0.19199 0.0
C1037 C 0.46082 0.54603 0.16984 0.0
C1038 C 0.45971 0.55815 0.14118 0.0
C1039 C 0.44505 0.57934 0.13484 0.0
H1040 H 0.59603 0.38793 0.20367 0.0
H1041 H 0.6739 0.42838 0.18059 0.0
H1042 H 0.65483 0.45182 0.13777 0.0
H1043 H 0.56801 0.3772 0.13059 0.0
H1044 H 0.53679 0.38463 0.13842 0.0
H1045 H 0.5565 0.37042 0.16692 0.0
H1046 H 0.55512 0.41169 0.19904 0.0
H1047 H 0.53518 0.42583 0.17076 0.0
H1048 H 0.56533 0.44668 0.18448 0.0
H1049 H 0.62707 0.47218 0.09809 0.0
H1050 H 0.59285 0.48865 0.06576 0.0
H1051 H 0.53318 0.43493 0.11479 0.0
C1052 C 0.60914 0.40187 0.1898 0.0
C1053 C 0.63658 0.40613 0.19561 0.0
C1054 C 0.65289 0.42434 0.17649 0.0
C1055 C 0.64222 0.43788 0.15213 0.0
C1056 C 0.61515 0.43308 0.14703 0.0
C1057 C 0.59882 0.4156 0.16541 0.0
C1058 C 0.57036 0.41445 0.15543 0.0
C1059 C 0.55714 0.38491 0.14736 0.0
C1060 C 0.55564 0.42531 0.17881 0.0
C1061 C 0.57323 0.43406 0.12859 0.0
C1062 C 0.59921 0.44458 0.1241 0.0
C1063 C 0.60667 0.46391 0.1013 0.0
C1064 C 0.58707 0.4731 0.08298 0.0
C1065 C 0.56027 0.46292 0.08743 0.0
C1066 C 0.55343 0.44279 0.11036 0.0
loop_
_geom_bond_atom_site_label_1
_geom_bond_atom_site_label_2
_geom_bond_distance
_geom_bond_site_symmetry_2
_ccdc_geom_bond_type
C0 C1 1.264 . S
C0 C5 1.479 . S
C0 C10 1.465 . S
C1 C0 1.264 . S
C1 C3 1.339 . S
C1 H28 0.931 . S
C2 C3 1.395 . S
C2 C4 1.320 . S
C3 C1 1.339 . S
C3 C2 1.395 . S
C3 H29 0.929 . S
C4 C2 1.320 . S
C4 C5 1.405 . S
C4 H30 0.930 . S
C5 C0 1.479 . S
C5 C4 1.405 . S
C5 H31 0.931 . S
U6 O7 2.454 . S
U6 O8 2.458 . S
U6 C9 2.984 . S
U6 C10 2.847 . S
U6 C23 2.882 . S
U6 O24 2.441 . S
U6 O25 2.420 . S
U6 O26 2.455 . S
U6 O27 2.449 . S
O7 U6 2.454 . S
O7 C9 1.353 . S
O8 U6 2.458 . S
O8 C9 1.286 . S
C9 U6 2.984 . S
C9 O7 1.353 . S
C9 O8 1.286 . S
C9 C11 1.363 . S
C10 C0 1.465 . S
C10 U6 2.847 . S
C10 O24 1.249 . S
C10 O25 1.202 . S
C11 C9 1.363 . S
C11 C13 1.408 . S
C11 C16 1.342 . S
C12 C13 1.310 . S
C12 C15 1.461 . S
C12 H32 0.932 . S
C13 C11 1.408 . S
C13 C12 1.310 . S
C13 H33 0.930 . S
C14 C15 1.474 . S
C14 C16 1.285 . S
C14 H34 0.929 . S
C15 C12 1.461 . S
C15 C14 1.474 . S
C16 C11 1.342 . S
C16 C14 1.285 . S
C16 H35 0.930 . S
C17 C20 1.424 . S
C17 C22 1.245 . S
C17 C23 1.428 . S
C18 C21 1.260 . S
C18 C22 1.477 . S
C18 H36 0.932 . S
C19 C20 1.384 . S
C19 C21 1.479 . S
C19 H37 0.929 . S
C20 C17 1.424 . S
C20 C19 1.384 . S
C20 H38 0.928 . S
C21 C18 1.260 . S
C21 C19 1.479 . S
C22 C17 1.245 . S
C22 C18 1.477 . S
C22 H39 0.932 . S
C23 U6 2.882 . S
C23 C17 1.428 . S
C23 O26 1.301 . S
C23 O27 1.282 . S
O24 U6 2.441 . S
O24 C10 1.249 . S
O25 U6 2.420 . S
O25 C10 1.202 . S
O26 U6 2.455 . S
O26 C23 1.301 . S
O27 U6 2.449 . S
O27 C23 1.282 . S
H28 C1 0.931 . S
H29 C3 0.929 . S
H30 C4 0.930 . S
H31 C5 0.931 . S
H32 C12 0.932 . S
H33 C13 0.930 . S
H34 C14 0.929 . S
H35 C16 0.930 . S
H36 C18 0.932 . S
H37 C19 0.929 . S
H38 C20 0.928 . S
H39 C22 0.932 . S
C40 C41 1.264 . S
C40 C45 1.479 . S
C40 C50 1.465 . S
C41 C40 1.264 . S
C41 C43 1.339 . S
C41 H68 0.931 . S
C42 C43 1.395 . S
C42 C44 1.320 . S
C43 C41 1.339 . S
C43 C42 1.395 . S
C43 H69 0.929 . S
C44 C42 1.320 . S
C44 C45 1.405 . S
C44 H70 0.930 . S
C45 C40 1.479 . S
C45 C44 1.405 . S
C45 H71 0.931 . S
U46 O47 2.454 . S
U46 O48 2.458 . S
U46 C49 2.984 . S
U46 C50 2.847 . S
U46 C63 2.882 . S
U46 O64 2.441 . S
U46 O65 2.420 . S
U46 O66 2.455 . S
U46 O67 2.449 . S
O47 U46 2.454 . S
O47 C49 1.353 . S
O48 U46 2.458 . S
O48 C49 1.286 . S
C49 U46 2.984 . S
C49 O47 1.353 . S
C49 O48 1.286 . S
C49 C51 1.363 . S
C50 C40 1.465 . S
C50 U46 2.847 . S
C50 O64 1.249 . S
C50 O65 1.202 . S
C51 C49 1.363 . S
C51 C53 1.408 . S
C51 C56 1.342 . S
C52 C53 1.310 . S
C52 C55 1.461 . S
C52 H72 0.932 . S
C53 C51 1.408 . S
C53 C52 1.310 . S
C53 H73 0.930 . S
C54 C55 1.474 . S
C54 C56 1.285 . S
C54 H74 0.929 . S
C55 C52 1.461 . S
C55 C54 1.474 . S
C56 C51 1.342 . S
C56 C54 1.285 . S
C56 H75 0.930 . S
C57 C60 1.424 . S
C57 C62 1.245 . S
C57 C63 1.428 . S
C58 C61 1.260 . S
C58 C62 1.477 . S
C58 H76 0.932 . S
C59 C60 1.384 . S
C59 C61 1.479 . S
C59 H77 0.929 . S
C60 C57 1.424 . S
C60 C59 1.384 . S
C60 H78 0.928 . S
C61 C58 1.260 . S
C61 C59 1.479 . S
C62 C57 1.245 . S
C62 C58 1.477 . S
C62 H79 0.932 . S
C63 U46 2.882 . S
C63 C57 1.428 . S
C63 O66 1.301 . S
C63 O67 1.282 . S
O64 U46 2.441 . S
O64 C50 1.249 . S
O65 U46 2.420 . S
O65 C50 1.202 . S
O66 U46 2.455 . S
O66 C63 1.301 . S
O67 U46 2.449 . S
O67 C63 1.282 . S
H68 C41 0.931 . S
H69 C43 0.929 . S
H70 C44 0.930 . S
H71 C45 0.931 . S
H72 C52 0.932 . S
H73 C53 0.930 . S
H74 C54 0.929 . S
H75 C56 0.930 . S
H76 C58 0.932 . S
H77 C59 0.929 . S
H78 C60 0.928 . S
H79 C62 0.932 . S
C80 C81 1.264 . S
C80 C85 1.479 . S
C80 C90 1.465 . S
C81 C80 1.264 . S
C81 C83 1.339 . S
C81 H108 0.931 . S
C82 C83 1.395 . S
C82 C84 1.320 . S
C83 C81 1.339 . S
C83 C82 1.395 . S
C83 H109 0.929 . S
C84 C82 1.320 . S
C84 C85 1.405 . S
C84 H110 0.930 . S
C85 C80 1.479 . S
C85 C84 1.405 . S
C85 H111 0.931 . S
U86 O87 2.454 . S
U86 O88 2.458 . S
U86 C89 2.984 . S
U86 C90 2.847 . S
U86 C103 2.882 . S
U86 O104 2.441 . S
U86 O105 2.420 . S
U86 O106 2.455 . S
U86 O107 2.449 . S
O87 U86 2.454 . S
O87 C89 1.353 . S
O88 U86 2.458 . S
O88 C89 1.286 . S
C89 U86 2.984 . S
C89 O87 1.353 . S
C89 O88 1.286 . S
C89 C91 1.363 . S
C90 C80 1.465 . S
C90 U86 2.847 . S
C90 O104 1.249 . S
C90 O105 1.202 . S
C91 C89 1.363 . S
C91 C93 1.408 . S
C91 C96 1.342 . S
C92 C93 1.310 . S
C92 C95 1.461 . S
C92 H112 0.932 . S
C93 C91 1.408 . S
C93 C92 1.310 . S
C93 H113 0.930 . S
C94 C95 1.474 . S
C94 C96 1.285 . S
C94 H114 0.929 . S
C95 C92 1.461 . S
C95 C94 1.474 . S
C96 C91 1.342 . S
C96 C94 1.285 . S
C96 H115 0.930 . S
C97 C100 1.424 . S
C97 C102 1.245 . S
C97 C103 1.428 . S
C98 C101 1.260 . S
C98 C102 1.477 . S
C98 H116 0.932 . S
C99 C100 1.384 . S
C99 C101 1.479 . S
C99 H117 0.929 . S
C100 C97 1.424 . S
C100 C99 1.384 . S
C100 H118 0.928 . S
C101 C98 1.260 . S
C101 C99 1.479 . S
C102 C97 1.245 . S
C102 C98 1.477 . S
C102 H119 0.932 . S
C103 U86 2.882 . S
C103 C97 1.428 . S
C103 O106 1.301 . S
C103 O107 1.282 . S
O104 U86 2.441 . S
O104 C90 1.249 . S
O105 U86 2.420 . S
O105 C90 1.202 . S
O106 U86 2.455 . S
O106 C103 1.301 . S
O107 U86 2.449 . S
O107 C103 1.282 . S
H108 C81 0.931 . S
H109 C83 0.929 . S
H110 C84 0.930 . S
H111 C85 0.931 . S
H112 C92 0.932 . S
H113 C93 0.930 . S
H114 C94 0.929 . S
H115 C96 0.930 . S
H116 C98 0.932 . S
H117 C99 0.929 . S
H118 C100 0.928 . S
H119 C102 0.932 . S
C120 C121 1.264 . S
C120 C125 1.479 . S
C120 C130 1.465 . S
C121 C120 1.264 . S
C121 C123 1.339 . S
C121 H148 0.931 . S
C122 C123 1.395 . S
C122 C124 1.320 . S
C123 C121 1.339 . S
C123 C122 1.395 . S
C123 H149 0.929 . S
C124 C122 1.320 . S
C124 C125 1.405 . S
C124 H150 0.930 . S
C125 C120 1.479 . S
C125 C124 1.405 . S
C125 H151 0.931 . S
U126 O127 2.454 . S
U126 O128 2.458 . S
U126 C129 2.984 . S
U126 C130 2.847 . S
U126 C143 2.882 . S
U126 O144 2.441 . S
U126 O145 2.420 . S
U126 O146 2.455 . S
U126 O147 2.449 . S
O127 U126 2.454 . S
O127 C129 1.353 . S
O128 U126 2.458 . S
O128 C129 1.286 . S
C129 U126 2.984 . S
C129 O127 1.353 . S
C129 O128 1.286 . S
C129 C131 1.363 . S
C130 C120 1.465 . S
C130 U126 2.847 . S
C130 O144 1.249 . S
C130 O145 1.202 . S
C131 C129 1.363 . S
C131 C133 1.408 . S
C131 C136 1.342 . S
C132 C133 1.310 . S
C132 C135 1.461 . S
C132 H152 0.932 . S
C133 C131 1.408 . S
C133 C132 1.310 . S
C133 H153 0.930 . S
C134 C135 1.474 . S
C134 C136 1.285 . S
C134 H154 0.929 . S
C135 C132 1.461 . S
C135 C134 1.474 . S
C136 C131 1.342 . S
C136 C134 1.285 . S
C136 H155 0.930 . S
C137 C140 1.424 . S
C137 C142 1.245 . S
C137 C143 1.428 . S
C138 C141 1.260 . S
C138 C142 1.477 . S
C138 H156 0.932 . S
C139 C140 1.384 . S
C139 C141 1.479 . S
C139 H157 0.929 . S
C140 C137 1.424 . S
C140 C139 1.384 . S
C140 H158 0.928 . S
C141 C138 1.260 . S
C141 C139 1.479 . S
C142 C137 1.245 . S
C142 C138 1.477 . S
C142 H159 0.932 . S
C143 U126 2.882 . S
C143 C137 1.428 . S
C143 O146 1.301 . S
C143 O147 1.282 . S
O144 U126 2.441 . S
O144 C130 1.249 . S
O145 U126 2.420 . S
O145 C130 1.202 . S
O146 U126 2.455 . S
O146 C143 1.301 . S
O147 U126 2.449 . S
O147 C143 1.282 . S
H148 C121 0.931 . S
H149 C123 0.929 . S
H150 C124 0.930 . S
H151 C125 0.931 . S
H152 C132 0.932 . S
H153 C133 0.930 . S
H154 C134 0.929 . S
H155 C136 0.930 . S
H156 C138 0.932 . S
H157 C139 0.929 . S
H158 C140 0.928 . S
H159 C142 0.932 . S
C160 C161 1.264 . S
C160 C165 1.479 . S
C160 C170 1.465 . S
C161 C160 1.264 . S
C161 C163 1.339 . S
C161 H188 0.931 . S
C162 C163 1.395 . S
C162 C164 1.320 . S
C163 C161 1.339 . S
C163 C162 1.395 . S
C163 H189 0.929 . S
C164 C162 1.320 . S
C164 C165 1.405 . S
C164 H190 0.930 . S
C165 C160 1.479 . S
C165 C164 1.405 . S
C165 H191 0.931 . S
U166 O167 2.454 . S
U166 O168 2.458 . S
U166 C169 2.984 . S
U166 C170 2.847 . S
U166 C183 2.882 . S
U166 O184 2.441 . S
U166 O185 2.420 . S
U166 O186 2.455 . S
U166 O187 2.449 . S
O167 U166 2.454 . S
O167 C169 1.353 . S
O168 U166 2.458 . S
O168 C169 1.286 . S
C169 U166 2.984 . S
C169 O167 1.353 . S
C169 O168 1.286 . S
C169 C171 1.363 . S
C170 C160 1.465 . S
C170 U166 2.847 . S
C170 O184 1.249 . S
C170 O185 1.202 . S
C171 C169 1.363 . S
C171 C173 1.408 . S
C171 C176 1.342 . S
C172 C173 1.310 . S
C172 C175 1.461 . S
C172 H192 0.932 . S
C173 C171 1.408 . S
C173 C172 1.310 . S
C173 H193 0.930 . S
C174 C175 1.474 . S
C174 C176 1.285 . S
C174 H194 0.929 . S
C175 C172 1.461 . S
C175 C174 1.474 . S
C176 C171 1.342 . S
C176 C174 1.285 . S
C176 H195 0.930 . S
C177 C180 1.424 . S
C177 C182 1.245 . S
C177 C183 1.428 . S
C178 C181 1.260 . S
C178 C182 1.477 . S
C178 H196 0.932 . S
C179 C180 1.384 . S
C179 C181 1.479 . S
C179 H197 0.929 . S
C180 C177 1.424 . S
C180 C179 1.384 . S
C180 H198 0.928 . S
C181 C178 1.260 . S
C181 C179 1.479 . S
C182 C177 1.245 . S
C182 C178 1.477 . S
C182 H199 0.932 . S
C183 U166 2.882 . S
C183 C177 1.428 . S
C183 O186 1.301 . S
C183 O187 1.282 . S
O184 U166 2.441 . S
O184 C170 1.249 . S
O185 U166 2.420 . S
O185 C170 1.202 . S
O186 U166 2.455 . S
O186 C183 1.301 . S
O187 U166 2.449 . S
O187 C183 1.282 . S
H188 C161 0.931 . S
H189 C163 0.929 . S
H190 C164 0.930 . S
H191 C165 0.931 . S
H192 C172 0.932 . S
H193 C173 0.930 . S
H194 C174 0.929 . S
H195 C176 0.930 . S
H196 C178 0.932 . S
H197 C179 0.929 . S
H198 C180 0.928 . S
H199 C182 0.932 . S
C200 C201 1.264 . S
C200 C205 1.479 . S
C200 C210 1.465 . S
C201 C200 1.264 . S
C201 C203 1.339 . S
C201 H228 0.931 . S
C202 C203 1.395 . S
C202 C204 1.320 . S
C203 C201 1.339 . S
C203 C202 1.395 . S
C203 H229 0.929 . S
C204 C202 1.320 . S
C204 C205 1.405 . S
C204 H230 0.930 . S
C205 C200 1.479 . S
C205 C204 1.405 . S
C205 H231 0.931 . S
U206 O207 2.454 . S
U206 O208 2.458 . S
U206 C209 2.984 . S
U206 C210 2.847 . S
U206 C223 2.882 . S
U206 O224 2.441 . S
U206 O225 2.420 . S
U206 O226 2.455 . S
U206 O227 2.449 . S
O207 U206 2.454 . S
O207 C209 1.353 . S
O208 U206 2.458 . S
O208 C209 1.286 . S
C209 U206 2.984 . S
C209 O207 1.353 . S
C209 O208 1.286 . S
C209 C211 1.363 . S
C210 C200 1.465 . S
C210 U206 2.847 . S
C210 O224 1.249 . S
C210 O225 1.202 . S
C211 C209 1.363 . S
C211 C213 1.408 . S
C211 C216 1.342 . S
C212 C213 1.310 . S
C212 C215 1.461 . S
C212 H232 0.932 . S
C213 C211 1.408 . S
C213 C212 1.310 . S
C213 H233 0.930 . S
C214 C215 1.474 . S
C214 C216 1.285 . S
C214 H234 0.929 . S
C215 C212 1.461 . S
C215 C214 1.474 . S
C216 C211 1.342 . S
C216 C214 1.285 . S
C216 H235 0.930 . S
C217 C220 1.424 . S
C217 C222 1.245 . S
C217 C223 1.428 . S
C218 C221 1.260 . S
C218 C222 1.477 . S
C218 H236 0.932 . S
C219 C220 1.384 . S
C219 C221 1.479 . S
C219 H237 0.929 . S
C220 C217 1.424 . S
C220 C219 1.384 . S
C220 H238 0.928 . S
C221 C218 1.260 . S
C221 C219 1.479 . S
C222 C217 1.245 . S
C222 C218 1.477 . S
C222 H239 0.932 . S
C223 U206 2.882 . S
C223 C217 1.428 . S
C223 O226 1.301 . S
C223 O227 1.282 . S
O224 U206 2.441 . S
O224 C210 1.249 . S
O225 U206 2.420 . S
O225 C210 1.202 . S
O226 U206 2.455 . S
O226 C223 1.301 . S
O227 U206 2.449 . S
O227 C223 1.282 . S
H228 C201 0.931 . S
H229 C203 0.929 . S
H230 C204 0.930 . S
H231 C205 0.931 . S
H232 C212 0.932 . S
H233 C213 0.930 . S
H234 C214 0.929 . S
H235 C216 0.930 . S
H236 C218 0.932 . S
H237 C219 0.929 . S
H238 C220 0.928 . S
H239 C222 0.932 . S
C240 C241 1.264 . S
C240 C245 1.479 . S
C240 C250 1.465 . S
C241 C240 1.264 . S
C241 C243 1.339 . S
C241 H268 0.931 . S
C242 C243 1.395 . S
C242 C244 1.320 . S
C243 C241 1.339 . S
C243 C242 1.395 . S
C243 H269 0.929 . S
C244 C242 1.320 . S
C244 C245 1.405 . S
C244 H270 0.930 . S
C245 C240 1.479 . S
C245 C244 1.405 . S
C245 H271 0.931 . S
U246 O247 2.454 . S
U246 O248 2.458 . S
U246 C249 2.984 . S
U246 C250 2.847 . S
U246 C263 2.882 . S
U246 O264 2.441 . S
U246 O265 2.420 . S
U246 O266 2.455 . S
U246 O267 2.449 . S
O247 U246 2.454 . S
O247 C249 1.353 . S
O248 U246 2.458 . S
O248 C249 1.286 . S
C249 U246 2.984 . S
C249 O247 1.353 . S
C249 O248 1.286 . S
C249 C251 1.363 . S
C250 C240 1.465 . S
C250 U246 2.847 . S
C250 O264 1.249 . S
C250 O265 1.202 . S
C251 C249 1.363 . S
C251 C253 1.408 . S
C251 C256 1.342 . S
C252 C253 1.310 . S
C252 C255 1.461 . S
C252 H272 0.932 . S
C253 C251 1.408 . S
C253 C252 1.310 . S
C253 H273 0.930 . S
C254 C255 1.474 . S
C254 C256 1.285 . S
C254 H274 0.929 . S
C255 C252 1.461 . S
C255 C254 1.474 . S
C256 C251 1.342 . S
C256 C254 1.285 . S
C256 H275 0.930 . S
C257 C260 1.424 . S
C257 C262 1.245 . S
C257 C263 1.428 . S
C258 C261 1.260 . S
C258 C262 1.477 . S
C258 H276 0.932 . S
C259 C260 1.384 . S
C259 C261 1.479 . S
C259 H277 0.929 . S
C260 C257 1.424 . S
C260 C259 1.384 . S
C260 H278 0.928 . S
C261 C258 1.260 . S
C261 C259 1.479 . S
C262 C257 1.245 . S
C262 C258 1.477 . S
C262 H279 0.932 . S
C263 U246 2.882 . S
C263 C257 1.428 . S
C263 O266 1.301 . S
C263 O267 1.282 . S
O264 U246 2.441 . S
O264 C250 1.249 . S
O265 U246 2.420 . S
O265 C250 1.202 . S
O266 U246 2.455 . S
O266 C263 1.301 . S
O267 U246 2.449 . S
O267 C263 1.282 . S
H268 C241 0.931 . S
H269 C243 0.929 . S
H270 C244 0.930 . S
H271 C245 0.931 . S
H272 C252 0.932 . S
H273 C253 0.930 . S
H274 C254 0.929 . S
H275 C256 0.930 . S
H276 C258 0.932 . S
H277 C259 0.929 . S
H278 C260 0.928 . S
H279 C262 0.932 . S
C280 C281 1.264 . S
C280 C285 1.479 . S
C280 C290 1.465 . S
C281 C280 1.264 . S
C281 C283 1.339 . S
C281 H308 0.931 . S
C282 C283 1.395 . S
C282 C284 1.320 . S
C283 C281 1.339 . S
C283 C282 1.395 . S
C283 H309 0.929 . S
C284 C282 1.320 . S
C284 C285 1.405 . S
C284 H310 0.930 . S
C285 C280 1.479 . S
C285 C284 1.405 . S
C285 H311 0.931 . S
U286 O287 2.454 . S
U286 O288 2.458 . S
U286 C289 2.984 . S
U286 C290 2.847 . S
U286 C303 2.882 . S
U286 O304 2.441 . S
U286 O305 2.420 . S
U286 O306 2.455 . S
U286 O307 2.449 . S
O287 U286 2.454 . S
O287 C289 1.353 . S
O288 U286 2.458 . S
O288 C289 1.286 . S
C289 U286 2.984 . S
C289 O287 1.353 . S
C289 O288 1.286 . S
C289 C291 1.363 . S
C290 C280 1.465 . S
C290 U286 2.847 . S
C290 O304 1.249 . S
C290 O305 1.202 . S
C291 C289 1.363 . S
C291 C293 1.408 . S
C291 C296 1.342 . S
C292 C293 1.310 . S
C292 C295 1.461 . S
C292 H312 0.932 . S
C293 C291 1.408 . S
C293 C292 1.310 . S
C293 H313 0.930 . S
C294 C295 1.474 . S
C294 C296 1.285 . S
C294 H314 0.929 . S
C295 C292 1.461 . S
C295 C294 1.474 . S
C296 C291 1.342 . S
C296 C294 1.285 . S
C296 H315 0.930 . S
C297 C300 1.424 . S
C297 C302 1.245 . S
C297 C303 1.428 . S
C298 C301 1.260 . S
C298 C302 1.477 . S
C298 H316 0.932 . S
C299 C300 1.384 . S
C299 C301 1.479 . S
C299 H317 0.929 . S
C300 C297 1.424 . S
C300 C299 1.384 . S
C300 H318 0.928 . S
C301 C298 1.260 . S
C301 C299 1.479 . S
C302 C297 1.245 . S
C302 C298 1.477 . S
C302 H319 0.932 . S
C303 U286 2.882 . S
C303 C297 1.428 . S
C303 O306 1.301 . S
C303 O307 1.282 . S
O304 U286 2.441 . S
O304 C290 1.249 . S
O305 U286 2.420 . S
O305 C290 1.202 . S
O306 U286 2.455 . S
O306 C303 1.301 . S
O307 U286 2.449 . S
O307 C303 1.282 . S
H308 C281 0.931 . S
H309 C283 0.929 . S
H310 C284 0.930 . S
H311 C285 0.931 . S
H312 C292 0.932 . S
H313 C293 0.930 . S
H314 C294 0.929 . S
H315 C296 0.930 . S
H316 C298 0.932 . S
H317 C299 0.929 . S
H318 C300 0.928 . S
H319 C302 0.932 . S
Co320 O323 2.042 . S
Co320 O330 2.264 . S
Co320 O349 2.286 . S
Co320 O350 2.069 . S
Co320 O352 2.015 . S
Co321 O323 2.122 . S
Co321 O329 2.073 . S
Co321 O330 2.327 . S
Co321 O331 1.976 . S
Co322 O323 2.087 . S
Co322 O325 2.087 1_455 S
Co322 O332 2.111 . S
Co322 O333 2.143 1_455 S
Co322 O337 2.111 1_455 S
Co322 O351 2.143 . S
O323 Co320 2.042 . S
O323 Co321 2.122 . S
O323 Co322 2.087 . S
O323 H324 0.980 . S
H324 O323 0.980 . S
O325 Co322 2.087 1_655 S
O325 Co326 2.042 . S
O325 Co327 2.122 . S
O325 H328 0.980 . S
Co326 O325 2.042 . S
Co326 O334 2.286 . S
Co326 O335 2.069 . S
Co326 O336 2.015 . S
Co326 O339 2.264 . S
Co327 O325 2.122 . S
Co327 O338 1.976 . S
Co327 O339 2.327 . S
Co327 O340 2.073 . S
H328 O325 0.980 . S
O329 Co321 2.073 . S
O329 C344 1.245 . S
O330 Co320 2.264 . S
O330 Co321 2.327 . S
O330 C344 1.257 . S
O331 Co321 1.976 . S
O331 C343 1.251 . S
O332 Co322 2.111 . S
O332 C343 1.274 . S
O333 Co322 2.143 1_655 S
O333 C346 1.246 . S
O334 Co326 2.286 . S
O334 C345 1.259 . S
O335 Co326 2.069 . S
O335 C345 1.289 . S
O336 Co326 2.015 . S
O336 C346 1.257 . S
O337 Co322 2.111 1_655 S
O337 C347 1.274 . S
O338 Co327 1.976 . S
O338 C347 1.251 . S
O339 Co326 2.264 . S
O339 Co327 2.327 . S
O339 C348 1.257 . S
O340 Co327 2.073 . S
O340 C348 1.245 . S
C341 O349 1.259 . S
C341 O350 1.289 . S
C342 O351 1.246 . S
C342 O352 1.257 . S
C343 O331 1.251 . S
C343 O332 1.274 . S
C344 O329 1.245 . S
C344 O330 1.257 . S
C345 O334 1.259 . S
C345 O335 1.289 . S
C346 O333 1.246 . S
C346 O336 1.257 . S
C347 O337 1.274 . S
C347 O338 1.251 . S
C348 O339 1.257 . S
C348 O340 1.245 . S
O349 Co320 2.286 . S
O349 C341 1.259 . S
O350 Co320 2.069 . S
O350 C341 1.289 . S
O351 Co322 2.143 . S
O351 C342 1.246 . S
O352 Co320 2.015 . S
O352 C342 1.257 . S
Co353 O356 2.042 . S
Co353 O363 2.264 . S
Co353 O382 2.286 . S
Co353 O383 2.069 . S
Co353 O385 2.015 . S
Co354 O356 2.122 . S
Co354 O362 2.073 . S
Co354 O363 2.327 . S
Co354 O364 1.976 . S
Co355 O356 2.087 1_545 S
Co355 O358 2.087 . S
Co355 O365 2.111 1_545 S
Co355 O366 2.143 . S
Co355 O370 2.111 . S
Co355 O384 2.143 1_545 S
O356 Co353 2.042 . S
O356 Co354 2.122 . S
O356 Co355 2.087 1_565 S
O356 H357 0.980 . S
H357 O356 0.980 . S
O358 Co355 2.087 . S
O358 Co359 2.042 . S
O358 Co360 2.122 . S
O358 H361 0.980 . S
Co359 O358 2.042 . S
Co359 O367 2.286 . S
Co359 O368 2.069 . S
Co359 O369 2.015 . S
Co359 O372 2.264 . S
Co360 O358 2.122 . S
Co360 O371 1.976 . S
Co360 O372 2.327 . S
Co360 O373 2.073 . S
H361 O358 0.980 . S
O362 Co354 2.073 . S
O362 C377 1.245 . S
O363 Co353 2.264 . S
O363 Co354 2.327 . S
O363 C377 1.257 . S
O364 Co354 1.976 . S
O364 C376 1.251 . S
O365 Co355 2.111 1_565 S
O365 C376 1.274 . S
O366 Co355 2.143 . S
O366 C379 1.246 . S
O367 Co359 2.286 . S
O367 C378 1.259 . S
O368 Co359 2.069 . S
O368 C378 1.289 . S
O369 Co359 2.015 . S
O369 C379 1.257 . S
O370 Co355 2.111 . S
O370 C380 1.274 . S
O371 Co360 1.976 . S
O371 C380 1.251 . S
O372 Co359 2.264 . S
O372 Co360 2.327 . S
O372 C381 1.257 . S
O373 Co360 2.073 . S
O373 C381 1.245 . S
C374 O382 1.259 . S
C374 O383 1.289 . S
C375 O384 1.246 . S
C375 O385 1.257 . S
C376 O364 1.251 . S
C376 O365 1.274 . S
C377 O362 1.245 . S
C377 O363 1.257 . S
C378 O367 1.259 . S
C378 O368 1.289 . S
C379 O366 1.246 . S
C379 O369 1.257 . S
C380 O370 1.274 . S
C380 O371 1.251 . S
C381 O372 1.257 . S
C381 O373 1.245 . S
O382 Co353 2.286 . S
O382 C374 1.259 . S
O383 Co353 2.069 . S
O383 C374 1.289 . S
O384 Co355 2.143 1_565 S
O384 C375 1.246 . S
O385 Co353 2.015 . S
O385 C375 1.257 . S
Co386 O389 2.042 . S
Co386 O396 2.264 . S
Co386 O415 2.286 . S
Co386 O416 2.069 . S
Co386 O418 2.015 . S
Co387 O389 2.122 . S
Co387 O395 2.073 . S
Co387 O396 2.327 . S
Co387 O397 1.976 . S
Co388 O389 2.087 . S
Co388 O391 2.087 1_554 S
Co388 O398 2.111 . S
Co388 O399 2.143 1_554 S
Co388 O403 2.111 1_554 S
Co388 O417 2.143 . S
O389 Co386 2.042 . S
O389 Co387 2.122 . S
O389 Co388 2.087 . S
O389 H390 0.980 . S
H390 O389 0.980 . S
O391 Co388 2.087 1_556 S
O391 Co392 2.042 . S
O391 Co393 2.122 . S
O391 H394 0.980 . S
Co392 O391 2.042 . S
Co392 O400 2.286 . S
Co392 O401 2.069 . S
Co392 O402 2.015 . S
Co392 O405 2.264 . S
Co393 O391 2.122 . S
Co393 O404 1.976 . S
Co393 O405 2.327 . S
Co393 O406 2.073 . S
H394 O391 0.980 . S
O395 Co387 2.073 . S
O395 C410 1.245 . S
O396 Co386 2.264 . S
O396 Co387 2.327 . S
O396 C410 1.257 . S
O397 Co387 1.976 . S
O397 C409 1.251 . S
O398 Co388 2.111 . S
O398 C409 1.274 . S
O399 Co388 2.143 1_556 S
O399 C412 1.246 . S
O400 Co392 2.286 . S
O400 C411 1.259 . S
O401 Co392 2.069 . S
O401 C411 1.289 . S
O402 Co392 2.015 . S
O402 C412 1.257 . S
O403 Co388 2.111 1_556 S
O403 C413 1.274 . S
O404 Co393 1.976 . S
O404 C413 1.251 . S
O405 Co392 2.264 . S
O405 Co393 2.327 . S
O405 C414 1.257 . S
O406 Co393 2.073 . S
O406 C414 1.245 . S
C407 O415 1.259 . S
C407 O416 1.289 . S
C408 O417 1.246 . S
C408 O418 1.257 . S
C409 O397 1.251 . S
C409 O398 1.274 . S
C410 O395 1.245 . S
C410 O396 1.257 . S
C411 O400 1.259 . S
C411 O401 1.289 . S
C412 O399 1.246 . S
C412 O402 1.257 . S
C413 O403 1.274 . S
C413 O404 1.251 . S
C414 O405 1.257 . S
C414 O406 1.245 . S
O415 Co386 2.286 . S
O415 C407 1.259 . S
O416 Co386 2.069 . S
O416 C407 1.289 . S
O417 Co388 2.143 . S
O417 C408 1.246 . S
O418 Co386 2.015 . S
O418 C408 1.257 . S
H419 C431 0.930 . S
H420 C433 0.930 . S
H421 C434 0.930 . S
H422 C438 0.959 . S
H423 C438 0.959 . S
H424 C438 0.961 . S
H425 C439 0.960 . S
H426 C439 0.961 . S
H427 C439 0.959 . S
H428 C442 0.929 . S
H429 C443 0.931 . S
H430 C445 0.930 . S
C431 H419 0.930 . S
C431 C432 1.399 . S
C431 C436 1.399 . S
C432 C431 1.399 . S
C432 C433 1.376 . S
C433 H420 0.930 . S
C433 C432 1.376 . S
C433 C434 1.388 . S
C434 H421 0.930 . S
C434 C433 1.388 . S
C434 C435 1.390 . S
C435 C434 1.390 . S
C435 C436 1.394 . S
C435 C441 1.465 . S
C436 C431 1.399 . S
C436 C435 1.394 . S
C436 C437 1.516 . S
C437 C436 1.516 . S
C437 C438 1.502 . S
C437 C439 1.561 . S
C437 C440 1.526 . S
C438 H422 0.959 . S
C438 H423 0.959 . S
C438 H424 0.961 . S
C438 C437 1.502 . S
C439 H425 0.960 . S
C439 H426 0.961 . S
C439 H427 0.959 . S
C439 C437 1.561 . S
C440 C437 1.526 . S
C440 C441 1.396 . S
C440 C445 1.390 . S
C441 C435 1.465 . S
C441 C440 1.396 . S
C441 C442 1.399 . S
C442 H428 0.929 . S
C442 C441 1.399 . S
C442 C443 1.385 . S
C443 H429 0.931 . S
C443 C442 1.385 . S
C443 C444 1.389 . S
C444 C443 1.389 . S
C444 C445 1.387 . S
C445 H430 0.930 . S
C445 C440 1.390 . S
C445 C444 1.387 . S
H446 C458 0.930 . S
H447 C460 0.930 . S
H448 C461 0.930 . S
H449 C465 0.959 . S
H450 C465 0.959 . S
H451 C465 0.961 . S
H452 C466 0.960 . S
H453 C466 0.961 . S
H454 C466 0.959 . S
H455 C469 0.929 . S
H456 C470 0.931 . S
H457 C472 0.930 . S
C458 H446 0.930 . S
C458 C459 1.399 . S
C458 C463 1.399 . S
C459 C458 1.399 . S
C459 C460 1.376 . S
C460 H447 0.930 . S
C460 C459 1.376 . S
C460 C461 1.388 . S
C461 H448 0.930 . S
C461 C460 1.388 . S
C461 C462 1.390 . S
C462 C461 1.390 . S
C462 C463 1.394 . S
C462 C468 1.465 . S
C463 C458 1.399 . S
C463 C462 1.394 . S
C463 C464 1.516 . S
C464 C463 1.516 . S
C464 C465 1.502 . S
C464 C466 1.561 . S
C464 C467 1.526 . S
C465 H449 0.959 . S
C465 H450 0.959 . S
C465 H451 0.961 . S
C465 C464 1.502 . S
C466 H452 0.960 . S
C466 H453 0.961 . S
C466 H454 0.959 . S
C466 C464 1.561 . S
C467 C464 1.526 . S
C467 C468 1.396 . S
C467 C472 1.390 . S
C468 C462 1.465 . S
C468 C467 1.396 . S
C468 C469 1.399 . S
C469 H455 0.929 . S
C469 C468 1.399 . S
C469 C470 1.385 . S
C470 H456 0.931 . S
C470 C469 1.385 . S
C470 C471 1.389 . S
C471 C470 1.389 . S
C471 C472 1.387 . S
C472 H457 0.930 . S
C472 C467 1.390 . S
C472 C471 1.387 . S
H473 C485 0.930 . S
H474 C487 0.930 . S
H475 C488 0.930 . S
H476 C492 0.959 . S
H477 C492 0.959 . S
H478 C492 0.961 . S
H479 C493 0.960 . S
H480 C493 0.961 . S
H481 C493 0.959 . S
H482 C496 0.929 . S
H483 C497 0.931 . S
H484 C499 0.930 . S
C485 H473 0.930 . S
C485 C486 1.399 . S
C485 C490 1.399 . S
C486 C485 1.399 . S
C486 C487 1.376 . S
C487 H474 0.930 . S
C487 C486 1.376 . S
C487 C488 1.388 . S
C488 H475 0.930 . S
C488 C487 1.388 . S
C488 C489 1.390 . S
C489 C488 1.390 . S
C489 C490 1.394 . S
C489 C495 1.465 . S
C490 C485 1.399 . S
C490 C489 1.394 . S
C490 C491 1.516 . S
C491 C490 1.516 . S
C491 C492 1.502 . S
C491 C493 1.561 . S
C491 C494 1.526 . S
C492 H476 0.959 . S
C492 H477 0.959 . S
C492 H478 0.961 . S
C492 C491 1.502 . S
C493 H479 0.960 . S
C493 H480 0.961 . S
C493 H481 0.959 . S
C493 C491 1.561 . S
C494 C491 1.526 . S
C494 C495 1.396 . S
C494 C499 1.390 . S
C495 C489 1.465 . S
C495 C494 1.396 . S
C495 C496 1.399 . S
C496 H482 0.929 . S
C496 C495 1.399 . S
C496 C497 1.385 . S
C497 H483 0.931 . S
C497 C496 1.385 . S
C497 C498 1.389 . S
C498 C497 1.389 . S
C498 C499 1.387 . S
C499 H484 0.930 . S
C499 C494 1.390 . S
C499 C498 1.387 . S
H500 C512 0.930 . S
H501 C514 0.930 . S
H502 C515 0.930 . S
H503 C519 0.959 . S
H504 C519 0.959 . S
H505 C519 0.961 . S
H506 C520 0.960 . S
H507 C520 0.961 . S
H508 C520 0.959 . S
H509 C523 0.929 . S
H510 C524 0.931 . S
H511 C526 0.930 . S
C512 H500 0.930 . S
C512 C513 1.399 . S
C512 C517 1.399 . S
C513 C512 1.399 . S
C513 C514 1.376 . S
C514 H501 0.930 . S
C514 C513 1.376 . S
C514 C515 1.388 . S
C515 H502 0.930 . S
C515 C514 1.388 . S
C515 C516 1.390 . S
C516 C515 1.390 . S
C516 C517 1.394 . S
C516 C522 1.465 . S
C517 C512 1.399 . S
C517 C516 1.394 . S
C517 C518 1.516 . S
C518 C517 1.516 . S
C518 C519 1.502 . S
C518 C520 1.561 . S
C518 C521 1.526 . S
C519 H503 0.959 . S
C519 H504 0.959 . S
C519 H505 0.961 . S
C519 C518 1.502 . S
C520 H506 0.960 . S
C520 H507 0.961 . S
C520 H508 0.959 . S
C520 C518 1.561 . S
C521 C518 1.526 . S
C521 C522 1.396 . S
C521 C526 1.390 . S
C522 C516 1.465 . S
C522 C521 1.396 . S
C522 C523 1.399 . S
C523 H509 0.929 . S
C523 C522 1.399 . S
C523 C524 1.385 . S
C524 H510 0.931 . S
C524 C523 1.385 . S
C524 C525 1.389 . S
C525 C524 1.389 . S
C525 C526 1.387 . S
C526 H511 0.930 . S
C526 C521 1.390 . S
C526 C525 1.387 . S
H527 C539 0.930 . S
H528 C541 0.930 . S
H529 C542 0.930 . S
H530 C546 0.959 . S
H531 C546 0.959 . S
H532 C546 0.961 . S
H533 C547 0.960 . S
H534 C547 0.961 . S
H535 C547 0.959 . S
H536 C550 0.929 . S
H537 C551 0.931 . S
H538 C553 0.930 . S
C539 H527 0.930 . S
C539 C540 1.399 . S
C539 C544 1.399 . S
C540 C539 1.399 . S
C540 C541 1.376 . S
C541 H528 0.930 . S
C541 C540 1.376 . S
C541 C542 1.388 . S
C542 H529 0.930 . S
C542 C541 1.388 . S
C542 C543 1.390 . S
C543 C542 1.390 . S
C543 C544 1.394 . S
C543 C549 1.465 . S
C544 C539 1.399 . S
C544 C543 1.394 . S
C544 C545 1.516 . S
C545 C544 1.516 . S
C545 C546 1.502 . S
C545 C547 1.561 . S
C545 C548 1.526 . S
C546 H530 0.959 . S
C546 H531 0.959 . S
C546 H532 0.961 . S
C546 C545 1.502 . S
C547 H533 0.960 . S
C547 H534 0.961 . S
C547 H535 0.959 . S
C547 C545 1.561 . S
C548 C545 1.526 . S
C548 C549 1.396 . S
C548 C553 1.390 . S
C549 C543 1.465 . S
C549 C548 1.396 . S
C549 C550 1.399 . S
C550 H536 0.929 . S
C550 C549 1.399 . S
C550 C551 1.385 . S
C551 H537 0.931 . S
C551 C550 1.385 . S
C551 C552 1.389 . S
C552 C551 1.389 . S
C552 C553 1.387 . S
C553 H538 0.930 . S
C553 C548 1.390 . S
C553 C552 1.387 . S
H554 C566 0.930 . S
H555 C568 0.930 . S
H556 C569 0.930 . S
H557 C573 0.959 . S
H558 C573 0.959 . S
H559 C573 0.961 . S
H560 C574 0.960 . S
H561 C574 0.961 . S
H562 C574 0.959 . S
H563 C577 0.929 . S
H564 C578 0.931 . S
H565 C580 0.930 . S
C566 H554 0.930 . S
C566 C567 1.399 . S
C566 C571 1.399 . S
C567 C566 1.399 . S
C567 C568 1.376 . S
C568 H555 0.930 . S
C568 C567 1.376 . S
C568 C569 1.388 . S
C569 H556 0.930 . S
C569 C568 1.388 . S
C569 C570 1.390 . S
C570 C569 1.390 . S
C570 C571 1.394 . S
C570 C576 1.465 . S
C571 C566 1.399 . S
C571 C570 1.394 . S
C571 C572 1.516 . S
C572 C571 1.516 . S
C572 C573 1.502 . S
C572 C574 1.561 . S
C572 C575 1.526 . S
C573 H557 0.959 . S
C573 H558 0.959 . S
C573 H559 0.961 . S
C573 C572 1.502 . S
C574 H560 0.960 . S
C574 H561 0.961 . S
C574 H562 0.959 . S
C574 C572 1.561 . S
C575 C572 1.526 . S
C575 C576 1.396 . S
C575 C580 1.390 . S
C576 C570 1.465 . S
C576 C575 1.396 . S
C576 C577 1.399 . S
C577 H563 0.929 . S
C577 C576 1.399 . S
C577 C578 1.385 . S
C578 H564 0.931 . S
C578 C577 1.385 . S
C578 C579 1.389 . S
C579 C578 1.389 . S
C579 C580 1.387 . S
C580 H565 0.930 . S
C580 C575 1.390 . S
C580 C579 1.387 . S
H581 C593 0.930 . S
H582 C595 0.930 . S
H583 C596 0.930 . S
H584 C600 0.959 . S
H585 C600 0.959 . S
H586 C600 0.961 . S
H587 C601 0.960 . S
H588 C601 0.961 . S
H589 C601 0.959 . S
H590 C604 0.929 . S
H591 C605 0.931 . S
H592 C607 0.930 . S
C593 H581 0.930 . S
C593 C594 1.399 . S
C593 C598 1.399 . S
C594 C593 1.399 . S
C594 C595 1.376 . S
C595 H582 0.930 . S
C595 C594 1.376 . S
C595 C596 1.388 . S
C596 H583 0.930 . S
C596 C595 1.388 . S
C596 C597 1.390 . S
C597 C596 1.390 . S
C597 C598 1.394 . S
C597 C603 1.465 . S
C598 C593 1.399 . S
C598 C597 1.394 . S
C598 C599 1.516 . S
C599 C598 1.516 . S
C599 C600 1.502 . S
C599 C601 1.561 . S
C599 C602 1.526 . S
C600 H584 0.959 . S
C600 H585 0.959 . S
C600 H586 0.961 . S
C600 C599 1.502 . S
C601 H587 0.960 . S
C601 H588 0.961 . S
C601 H589 0.959 . S
C601 C599 1.561 . S
C602 C599 1.526 . S
C602 C603 1.396 . S
C602 C607 1.390 . S
C603 C597 1.465 . S
C603 C602 1.396 . S
C603 C604 1.399 . S
C604 H590 0.929 . S
C604 C603 1.399 . S
C604 C605 1.385 . S
C605 H591 0.931 . S
C605 C604 1.385 . S
C605 C606 1.389 . S
C606 C605 1.389 . S
C606 C607 1.387 . S
C607 H592 0.930 . S
C607 C602 1.390 . S
C607 C606 1.387 . S
H608 C620 0.930 . S
H609 C622 0.930 . S
H610 C623 0.930 . S
H611 C627 0.959 . S
H612 C627 0.959 . S
H613 C627 0.961 . S
H614 C628 0.960 . S
H615 C628 0.961 . S
H616 C628 0.959 . S
H617 C631 0.929 . S
H618 C632 0.931 . S
H619 C634 0.930 . S
C620 H608 0.930 . S
C620 C621 1.399 . S
C620 C625 1.399 . S
C621 C620 1.399 . S
C621 C622 1.376 . S
C622 H609 0.930 . S
C622 C621 1.376 . S
C622 C623 1.388 . S
C623 H610 0.930 . S
C623 C622 1.388 . S
C623 C624 1.390 . S
C624 C623 1.390 . S
C624 C625 1.394 . S
C624 C630 1.465 . S
C625 C620 1.399 . S
C625 C624 1.394 . S
C625 C626 1.516 . S
C626 C625 1.516 . S
C626 C627 1.502 . S
C626 C628 1.561 . S
C626 C629 1.526 . S
C627 H611 0.959 . S
C627 H612 0.959 . S
C627 H613 0.961 . S
C627 C626 1.502 . S
C628 H614 0.960 . S
C628 H615 0.961 . S
C628 H616 0.959 . S
C628 C626 1.561 . S
C629 C626 1.526 . S
C629 C630 1.396 . S
C629 C634 1.390 . S
C630 C624 1.465 . S
C630 C629 1.396 . S
C630 C631 1.399 . S
C631 H617 0.929 . S
C631 C630 1.399 . S
C631 C632 1.385 . S
C632 H618 0.931 . S
C632 C631 1.385 . S
C632 C633 1.389 . S
C633 C632 1.389 . S
C633 C634 1.387 . S
C634 H619 0.930 . S
C634 C629 1.390 . S
C634 C633 1.387 . S
H635 C647 0.930 . S
H636 C649 0.930 . S
H637 C650 0.930 . S
H638 C654 0.959 . S
H639 C654 0.959 . S
H640 C654 0.961 . S
H641 C655 0.960 . S
H642 C655 0.961 . S
H643 C655 0.959 . S
H644 C658 0.929 . S
H645 C659 0.931 . S
H646 C661 0.930 . S
C647 H635 0.930 . S
C647 C648 1.399 . S
C647 C652 1.399 . S
C648 C647 1.399 . S
C648 C649 1.376 . S
C649 H636 0.930 . S
C649 C648 1.376 . S
C649 C650 1.388 . S
C650 H637 0.930 . S
C650 C649 1.388 . S
C650 C651 1.390 . S
C651 C650 1.390 . S
C651 C652 1.394 . S
C651 C657 1.465 . S
C652 C647 1.399 . S
C652 C651 1.394 . S
C652 C653 1.516 . S
C653 C652 1.516 . S
C653 C654 1.502 . S
C653 C655 1.561 . S
C653 C656 1.526 . S
C654 H638 0.959 . S
C654 H639 0.959 . S
C654 H640 0.961 . S
C654 C653 1.502 . S
C655 H641 0.960 . S
C655 H642 0.961 . S
C655 H643 0.959 . S
C655 C653 1.561 . S
C656 C653 1.526 . S
C656 C657 1.396 . S
C656 C661 1.390 . S
C657 C651 1.465 . S
C657 C656 1.396 . S
C657 C658 1.399 . S
C658 H644 0.929 . S
C658 C657 1.399 . S
C658 C659 1.385 . S
C659 H645 0.931 . S
C659 C658 1.385 . S
C659 C660 1.389 . S
C660 C659 1.389 . S
C660 C661 1.387 . S
C661 H646 0.930 . S
C661 C656 1.390 . S
C661 C660 1.387 . S
H662 C674 0.930 . S
H663 C676 0.930 . S
H664 C677 0.930 . S
H665 C681 0.959 . S
H666 C681 0.959 . S
H667 C681 0.961 . S
H668 C682 0.960 . S
H669 C682 0.961 . S
H670 C682 0.959 . S
H671 C685 0.929 . S
H672 C686 0.931 . S
H673 C688 0.930 . S
C674 H662 0.930 . S
C674 C675 1.399 . S
C674 C679 1.399 . S
C675 C674 1.399 . S
C675 C676 1.376 . S
C676 H663 0.930 . S
C676 C675 1.376 . S
C676 C677 1.388 . S
C677 H664 0.930 . S
C677 C676 1.388 . S
C677 C678 1.390 . S
C678 C677 1.390 . S
C678 C679 1.394 . S
C678 C684 1.465 . S
C679 C674 1.399 . S
C679 C678 1.394 . S
C679 C680 1.516 . S
C680 C679 1.516 . S
C680 C681 1.502 . S
C680 C682 1.561 . S
C680 C683 1.526 . S
C681 H665 0.959 . S
C681 H666 0.959 . S
C681 H667 0.961 . S
C681 C680 1.502 . S
C682 H668 0.960 . S
C682 H669 0.961 . S
C682 H670 0.959 . S
C682 C680 1.561 . S
C683 C680 1.526 . S
C683 C684 1.396 . S
C683 C688 1.390 . S
C684 C678 1.465 . S
C684 C683 1.396 . S
C684 C685 1.399 . S
C685 H671 0.929 . S
C685 C684 1.399 . S
C685 C686 1.385 . S
C686 H672 0.931 . S
C686 C685 1.385 . S
C686 C687 1.389 . S
C687 C686 1.389 . S
C687 C688 1.387 . S
C688 H673 0.930 . S
C688 C683 1.390 . S
C688 C687 1.387 . S
H689 C701 0.930 . S
H690 C703 0.930 . S
H691 C704 0.930 . S
H692 C708 0.959 . S
H693 C708 0.959 . S
H694 C708 0.961 . S
H695 C709 0.960 . S
H696 C709 0.961 . S
H697 C709 0.959 . S
H698 C712 0.929 . S
H699 C713 0.931 . S
H700 C715 0.930 . S
C701 H689 0.930 . S
C701 C702 1.399 . S
C701 C706 1.399 . S
C702 C701 1.399 . S
C702 C703 1.376 . S
C703 H690 0.930 . S
C703 C702 1.376 . S
C703 C704 1.388 . S
C704 H691 0.930 . S
C704 C703 1.388 . S
C704 C705 1.390 . S
C705 C704 1.390 . S
C705 C706 1.394 . S
C705 C711 1.465 . S
C706 C701 1.399 . S
C706 C705 1.394 . S
C706 C707 1.516 . S
C707 C706 1.516 . S
C707 C708 1.502 . S
C707 C709 1.561 . S
C707 C710 1.526 . S
C708 H692 0.959 . S
C708 H693 0.959 . S
C708 H694 0.961 . S
C708 C707 1.502 . S
C709 H695 0.960 . S
C709 H696 0.961 . S
C709 H697 0.959 . S
C709 C707 1.561 . S
C710 C707 1.526 . S
C710 C711 1.396 . S
C710 C715 1.390 . S
C711 C705 1.465 . S
C711 C710 1.396 . S
C711 C712 1.399 . S
C712 H698 0.929 . S
C712 C711 1.399 . S
C712 C713 1.385 . S
C713 H699 0.931 . S
C713 C712 1.385 . S
C713 C714 1.389 . S
C714 C713 1.389 . S
C714 C715 1.387 . S
C715 H700 0.930 . S
C715 C710 1.390 . S
C715 C714 1.387 . S
H716 C728 0.930 . S
H717 C730 0.930 . S
H718 C731 0.930 . S
H719 C735 0.959 . S
H720 C735 0.959 . S
H721 C735 0.961 . S
H722 C736 0.960 . S
H723 C736 0.961 . S
H724 C736 0.959 . S
H725 C739 0.929 . S
H726 C740 0.931 . S
H727 C742 0.930 . S
C728 H716 0.930 . S
C728 C729 1.399 . S
C728 C733 1.399 . S
C729 C728 1.399 . S
C729 C730 1.376 . S
C730 H717 0.930 . S
C730 C729 1.376 . S
C730 C731 1.388 . S
C731 H718 0.930 . S
C731 C730 1.388 . S
C731 C732 1.390 . S
C732 C731 1.390 . S
C732 C733 1.394 . S
C732 C738 1.465 . S
C733 C728 1.399 . S
C733 C732 1.394 . S
C733 C734 1.516 . S
C734 C733 1.516 . S
C734 C735 1.502 . S
C734 C736 1.561 . S
C734 C737 1.526 . S
C735 H719 0.959 . S
C735 H720 0.959 . S
C735 H721 0.961 . S
C735 C734 1.502 . S
C736 H722 0.960 . S
C736 H723 0.961 . S
C736 H724 0.959 . S
C736 C734 1.561 . S
C737 C734 1.526 . S
C737 C738 1.396 . S
C737 C742 1.390 . S
C738 C732 1.465 . S
C738 C737 1.396 . S
C738 C739 1.399 . S
C739 H725 0.929 . S
C739 C738 1.399 . S
C739 C740 1.385 . S
C740 H726 0.931 . S
C740 C739 1.385 . S
C740 C741 1.389 . S
C741 C740 1.389 . S
C741 C742 1.387 . S
C742 H727 0.930 . S
C742 C737 1.390 . S
C742 C741 1.387 . S
H743 C755 0.930 . S
H744 C757 0.930 . S
H745 C758 0.930 . S
H746 C762 0.959 . S
H747 C762 0.959 . S
H748 C762 0.961 . S
H749 C763 0.960 . S
H750 C763 0.961 . S
H751 C763 0.959 . S
H752 C766 0.929 . S
H753 C767 0.931 . S
H754 C769 0.930 . S
C755 H743 0.930 . S
C755 C756 1.399 . S
C755 C760 1.399 . S
C756 C755 1.399 . S
C756 C757 1.376 . S
C757 H744 0.930 . S
C757 C756 1.376 . S
C757 C758 1.388 . S
C758 H745 0.930 . S
C758 C757 1.388 . S
C758 C759 1.390 . S
C759 C758 1.390 . S
C759 C760 1.394 . S
C759 C765 1.465 . S
C760 C755 1.399 . S
C760 C759 1.394 . S
C760 C761 1.516 . S
C761 C760 1.516 . S
C761 C762 1.502 . S
C761 C763 1.561 . S
C761 C764 1.526 . S
C762 H746 0.959 . S
C762 H747 0.959 . S
C762 H748 0.961 . S
C762 C761 1.502 . S
C763 H749 0.960 . S
C763 H750 0.961 . S
C763 H751 0.959 . S
C763 C761 1.561 . S
C764 C761 1.526 . S
C764 C765 1.396 . S
C764 C769 1.390 . S
C765 C759 1.465 . S
C765 C764 1.396 . S
C765 C766 1.399 . S
C766 H752 0.929 . S
C766 C765 1.399 . S
C766 C767 1.385 . S
C767 H753 0.931 . S
C767 C766 1.385 . S
C767 C768 1.389 . S
C768 C767 1.389 . S
C768 C769 1.387 . S
C769 H754 0.930 . S
C769 C764 1.390 . S
C769 C768 1.387 . S
H770 C782 0.930 . S
H771 C784 0.930 . S
H772 C785 0.930 . S
H773 C789 0.959 . S
H774 C789 0.959 . S
H775 C789 0.961 . S
H776 C790 0.960 . S
H777 C790 0.961 . S
H778 C790 0.959 . S
H779 C793 0.929 . S
H780 C794 0.931 . S
H781 C796 0.930 . S
C782 H770 0.930 . S
C782 C783 1.399 . S
C782 C787 1.399 . S
C783 C782 1.399 . S
C783 C784 1.376 . S
C784 H771 0.930 . S
C784 C783 1.376 . S
C784 C785 1.388 . S
C785 H772 0.930 . S
C785 C784 1.388 . S
C785 C786 1.390 . S
C786 C785 1.390 . S
C786 C787 1.394 . S
C786 C792 1.465 . S
C787 C782 1.399 . S
C787 C786 1.394 . S
C787 C788 1.516 . S
C788 C787 1.516 . S
C788 C789 1.502 . S
C788 C790 1.561 . S
C788 C791 1.526 . S
C789 H773 0.959 . S
C789 H774 0.959 . S
C789 H775 0.961 . S
C789 C788 1.502 . S
C790 H776 0.960 . S
C790 H777 0.961 . S
C790 H778 0.959 . S
C790 C788 1.561 . S
C791 C788 1.526 . S
C791 C792 1.396 . S
C791 C796 1.390 . S
C792 C786 1.465 . S
C792 C791 1.396 . S
C792 C793 1.399 . S
C793 H779 0.929 . S
C793 C792 1.399 . S
C793 C794 1.385 . S
C794 H780 0.931 . S
C794 C793 1.385 . S
C794 C795 1.389 . S
C795 C794 1.389 . S
C795 C796 1.387 . S
C796 H781 0.930 . S
C796 C791 1.390 . S
C796 C795 1.387 . S
H797 C809 0.930 . S
H798 C811 0.930 . S
H799 C812 0.930 . S
H800 C816 0.959 . S
H801 C816 0.959 . S
H802 C816 0.961 . S
H803 C817 0.960 . S
H804 C817 0.961 . S
H805 C817 0.959 . S
H806 C820 0.929 . S
H807 C821 0.931 . S
H808 C823 0.930 . S
C809 H797 0.930 . S
C809 C810 1.399 . S
C809 C814 1.399 . S
C810 C809 1.399 . S
C810 C811 1.376 . S
C811 H798 0.930 . S
C811 C810 1.376 . S
C811 C812 1.388 . S
C812 H799 0.930 . S
C812 C811 1.388 . S
C812 C813 1.390 . S
C813 C812 1.390 . S
C813 C814 1.394 . S
C813 C819 1.465 . S
C814 C809 1.399 . S
C814 C813 1.394 . S
C814 C815 1.516 . S
C815 C814 1.516 . S
C815 C816 1.502 . S
C815 C817 1.561 . S
C815 C818 1.526 . S
C816 H800 0.959 . S
C816 H801 0.959 . S
C816 H802 0.961 . S
C816 C815 1.502 . S
C817 H803 0.960 . S
C817 H804 0.961 . S
C817 H805 0.959 . S
C817 C815 1.561 . S
C818 C815 1.526 . S
C818 C819 1.396 . S
C818 C823 1.390 . S
C819 C813 1.465 . S
C819 C818 1.396 . S
C819 C820 1.399 . S
C820 H806 0.929 . S
C820 C819 1.399 . S
C820 C821 1.385 . S
C821 H807 0.931 . S
C821 C820 1.385 . S
C821 C822 1.389 . S
C822 C821 1.389 . S
C822 C823 1.387 . S
C823 H808 0.930 . S
C823 C818 1.390 . S
C823 C822 1.387 . S
H824 C836 0.930 . S
H825 C838 0.930 . S
H826 C839 0.930 . S
H827 C843 0.959 . S
H828 C843 0.959 . S
H829 C843 0.961 . S
H830 C844 0.960 . S
H831 C844 0.961 . S
H832 C844 0.959 . S
H833 C847 0.929 . S
H834 C848 0.931 . S
H835 C850 0.930 . S
C836 H824 0.930 . S
C836 C837 1.399 . S
C836 C841 1.399 . S
C837 C836 1.399 . S
C837 C838 1.376 . S
C838 H825 0.930 . S
C838 C837 1.376 . S
C838 C839 1.388 . S
C839 H826 0.930 . S
C839 C838 1.388 . S
C839 C840 1.390 . S
C840 C839 1.390 . S
C840 C841 1.394 . S
C840 C846 1.465 . S
C841 C836 1.399 . S
C841 C840 1.394 . S
C841 C842 1.516 . S
C842 C841 1.516 . S
C842 C843 1.502 . S
C842 C844 1.561 . S
C842 C845 1.526 . S
C843 H827 0.959 . S
C843 H828 0.959 . S
C843 H829 0.961 . S
C843 C842 1.502 . S
C844 H830 0.960 . S
C844 H831 0.961 . S
C844 H832 0.959 . S
C844 C842 1.561 . S
C845 C842 1.526 . S
C845 C846 1.396 . S
C845 C850 1.390 . S
C846 C840 1.465 . S
C846 C845 1.396 . S
C846 C847 1.399 . S
C847 H833 0.929 . S
C847 C846 1.399 . S
C847 C848 1.385 . S
C848 H834 0.931 . S
C848 C847 1.385 . S
C848 C849 1.389 . S
C849 C848 1.389 . S
C849 C850 1.387 . S
C850 H835 0.930 . S
C850 C845 1.390 . S
C850 C849 1.387 . S
H851 C863 0.930 . S
H852 C865 0.930 . S
H853 C866 0.930 . S
H854 C870 0.959 . S
H855 C870 0.959 . S
H856 C870 0.961 . S
H857 C871 0.960 . S
H858 C871 0.961 . S
H859 C871 0.959 . S
H860 C874 0.929 . S
H861 C875 0.931 . S
H862 C877 0.930 . S
C863 H851 0.930 . S
C863 C864 1.399 . S
C863 C868 1.399 . S
C864 C863 1.399 . S
C864 C865 1.376 . S
C865 H852 0.930 . S
C865 C864 1.376 . S
C865 C866 1.388 . S
C866 H853 0.930 . S
C866 C865 1.388 . S
C866 C867 1.390 . S
C867 C866 1.390 . S
C867 C868 1.394 . S
C867 C873 1.465 . S
C868 C863 1.399 . S
C868 C867 1.394 . S
C868 C869 1.516 . S
C869 C868 1.516 . S
C869 C870 1.502 . S
C869 C871 1.561 . S
C869 C872 1.526 . S
C870 H854 0.959 . S
C870 H855 0.959 . S
C870 H856 0.961 . S
C870 C869 1.502 . S
C871 H857 0.960 . S
C871 H858 0.961 . S
C871 H859 0.959 . S
C871 C869 1.561 . S
C872 C869 1.526 . S
C872 C873 1.396 . S
C872 C877 1.390 . S
C873 C867 1.465 . S
C873 C872 1.396 . S
C873 C874 1.399 . S
C874 H860 0.929 . S
C874 C873 1.399 . S
C874 C875 1.385 . S
C875 H861 0.931 . S
C875 C874 1.385 . S
C875 C876 1.389 . S
C876 C875 1.389 . S
C876 C877 1.387 . S
C877 H862 0.930 . S
C877 C872 1.390 . S
C877 C876 1.387 . S
H878 C890 0.930 . S
H879 C892 0.930 . S
H880 C893 0.930 . S
H881 C897 0.959 . S
H882 C897 0.959 . S
H883 C897 0.961 . S
H884 C898 0.960 . S
H885 C898 0.961 . S
H886 C898 0.959 . S
H887 C901 0.929 . S
H888 C902 0.931 . S
H889 C904 0.930 . S
C890 H878 0.930 . S
C890 C891 1.399 . S
C890 C895 1.399 . S
C891 C890 1.399 . S
C891 C892 1.376 . S
C892 H879 0.930 . S
C892 C891 1.376 . S
C892 C893 1.388 . S
C893 H880 0.930 . S
C893 C892 1.388 . S
C893 C894 1.390 . S
C894 C893 1.390 . S
C894 C895 1.394 . S
C894 C900 1.465 . S
C895 C890 1.399 . S
C895 C894 1.394 . S
C895 C896 1.516 . S
C896 C895 1.516 . S
C896 C897 1.502 . S
C896 C898 1.561 . S
C896 C899 1.526 . S
C897 H881 0.959 . S
C897 H882 0.959 . S
C897 H883 0.961 . S
C897 C896 1.502 . S
C898 H884 0.960 . S
C898 H885 0.961 . S
C898 H886 0.959 . S
C898 C896 1.561 . S
C899 C896 1.526 . S
C899 C900 1.396 . S
C899 C904 1.390 . S
C900 C894 1.465 . S
C900 C899 1.396 . S
C900 C901 1.399 . S
C901 H887 0.929 . S
C901 C900 1.399 . S
C901 C902 1.385 . S
C902 H888 0.931 . S
C902 C901 1.385 . S
C902 C903 1.389 . S
C903 C902 1.389 . S
C903 C904 1.387 . S
C904 H889 0.930 . S
C904 C899 1.390 . S
C904 C903 1.387 . S
H905 C917 0.930 . S
H906 C919 0.930 . S
H907 C920 0.930 . S
H908 C924 0.959 . S
H909 C924 0.959 . S
H910 C924 0.961 . S
H911 C925 0.960 . S
H912 C925 0.961 . S
H913 C925 0.959 . S
H914 C928 0.929 . S
H915 C929 0.931 . S
H916 C931 0.930 . S
C917 H905 0.930 . S
C917 C918 1.399 . S
C917 C922 1.399 . S
C918 C917 1.399 . S
C918 C919 1.376 . S
C919 H906 0.930 . S
C919 C918 1.376 . S
C919 C920 1.388 . S
C920 H907 0.930 . S
C920 C919 1.388 . S
C920 C921 1.390 . S
C921 C920 1.390 . S
C921 C922 1.394 . S
C921 C927 1.465 . S
C922 C917 1.399 . S
C922 C921 1.394 . S
C922 C923 1.516 . S
C923 C922 1.516 . S
C923 C924 1.502 . S
C923 C925 1.561 . S
C923 C926 1.526 . S
C924 H908 0.959 . S
C924 H909 0.959 . S
C924 H910 0.961 . S
C924 C923 1.502 . S
C925 H911 0.960 . S
C925 H912 0.961 . S
C925 H913 0.959 . S
C925 C923 1.561 . S
C926 C923 1.526 . S
C926 C927 1.396 . S
C926 C931 1.390 . S
C927 C921 1.465 . S
C927 C926 1.396 . S
C927 C928 1.399 . S
C928 H914 0.929 . S
C928 C927 1.399 . S
C928 C929 1.385 . S
C929 H915 0.931 . S
C929 C928 1.385 . S
C929 C930 1.389 . S
C930 C929 1.389 . S
C930 C931 1.387 . S
C931 H916 0.930 . S
C931 C926 1.390 . S
C931 C930 1.387 . S
H932 C944 0.930 . S
H933 C946 0.930 . S
H934 C947 0.930 . S
H935 C951 0.959 . S
H936 C951 0.959 . S
H937 C951 0.961 . S
H938 C952 0.960 . S
H939 C952 0.961 . S
H940 C952 0.959 . S
H941 C955 0.929 . S
H942 C956 0.931 . S
H943 C958 0.930 . S
C944 H932 0.930 . S
C944 C945 1.399 . S
C944 C949 1.399 . S
C945 C944 1.399 . S
C945 C946 1.376 . S
C946 H933 0.930 . S
C946 C945 1.376 . S
C946 C947 1.388 . S
C947 H934 0.930 . S
C947 C946 1.388 . S
C947 C948 1.390 . S
C948 C947 1.390 . S
C948 C949 1.394 . S
C948 C954 1.465 . S
C949 C944 1.399 . S
C949 C948 1.394 . S
C949 C950 1.516 . S
C950 C949 1.516 . S
C950 C951 1.502 . S
C950 C952 1.561 . S
C950 C953 1.526 . S
C951 H935 0.959 . S
C951 H936 0.959 . S
C951 H937 0.961 . S
C951 C950 1.502 . S
C952 H938 0.960 . S
C952 H939 0.961 . S
C952 H940 0.959 . S
C952 C950 1.561 . S
C953 C950 1.526 . S
C953 C954 1.396 . S
C953 C958 1.390 . S
C954 C948 1.465 . S
C954 C953 1.396 . S
C954 C955 1.399 . S
C955 H941 0.929 . S
C955 C954 1.399 . S
C955 C956 1.385 . S
C956 H942 0.931 . S
C956 C955 1.385 . S
C956 C957 1.389 . S
C957 C956 1.389 . S
C957 C958 1.387 . S
C958 H943 0.930 . S
C958 C953 1.390 . S
C958 C957 1.387 . S
H959 C971 0.930 . S
H960 C973 0.930 . S
H961 C974 0.930 . S
H962 C978 0.959 . S
H963 C978 0.959 . S
H964 C978 0.961 . S
H965 C979 0.960 . S
H966 C979 0.961 . S
H967 C979 0.959 . S
H968 C982 0.929 . S
H969 C983 0.931 . S
H970 C985 0.930 . S
C971 H959 0.930 . S
C971 C972 1.399 . S
C971 C976 1.399 . S
C972 C971 1.399 . S
C972 C973 1.376 . S
C973 H960 0.930 . S
C973 C972 1.376 . S
C973 C974 1.388 . S
C974 H961 0.930 . S
C974 C973 1.388 . S
C974 C975 1.390 . S
C975 C974 1.390 . S
C975 C976 1.394 . S
C975 C981 1.465 . S
C976 C971 1.399 . S
C976 C975 1.394 . S
C976 C977 1.516 . S
C977 C976 1.516 . S
C977 C978 1.502 . S
C977 C979 1.561 . S
C977 C980 1.526 . S
C978 H962 0.959 . S
C978 H963 0.959 . S
C978 H964 0.961 . S
C978 C977 1.502 . S
C979 H965 0.960 . S
C979 H966 0.961 . S
C979 H967 0.959 . S
C979 C977 1.561 . S
C980 C977 1.526 . S
C980 C981 1.396 . S
C980 C985 1.390 . S
C981 C975 1.465 . S
C981 C980 1.396 . S
C981 C982 1.399 . S
C982 H968 0.929 . S
C982 C981 1.399 . S
C982 C983 1.385 . S
C983 H969 0.931 . S
C983 C982 1.385 . S
C983 C984 1.389 . S
C984 C983 1.389 . S
C984 C985 1.387 . S
C985 H970 0.930 . S
C985 C980 1.390 . S
C985 C984 1.387 . S
H986 C998 0.930 . S
H987 C1000 0.930 . S
H988 C1001 0.930 . S
H989 C1005 0.959 . S
H990 C1005 0.959 . S
H991 C1005 0.961 . S
H992 C1006 0.960 . S
H993 C1006 0.961 . S
H994 C1006 0.959 . S
H995 C1009 0.929 . S
H996 C1010 0.931 . S
H997 C1012 0.930 . S
C998 H986 0.930 . S
C998 C999 1.399 . S
C998 C1003 1.399 . S
C999 C998 1.399 . S
C999 C1000 1.376 . S
C1000 H987 0.930 . S
C1000 C999 1.376 . S
C1000 C1001 1.388 . S
C1001 H988 0.930 . S
C1001 C1000 1.388 . S
C1001 C1002 1.390 . S
C1002 C1001 1.390 . S
C1002 C1003 1.394 . S
C1002 C1008 1.465 . S
C1003 C998 1.399 . S
C1003 C1002 1.394 . S
C1003 C1004 1.516 . S
C1004 C1003 1.516 . S
C1004 C1005 1.502 . S
C1004 C1006 1.561 . S
C1004 C1007 1.526 . S
C1005 H989 0.959 . S
C1005 H990 0.959 . S
C1005 H991 0.961 . S
C1005 C1004 1.502 . S
C1006 H992 0.960 . S
C1006 H993 0.961 . S
C1006 H994 0.959 . S
C1006 C1004 1.561 . S
C1007 C1004 1.526 . S
C1007 C1008 1.396 . S
C1007 C1012 1.390 . S
C1008 C1002 1.465 . S
C1008 C1007 1.396 . S
C1008 C1009 1.399 . S
C1009 H995 0.929 . S
C1009 C1008 1.399 . S
C1009 C1010 1.385 . S
C1010 H996 0.931 . S
C1010 C1009 1.385 . S
C1010 C1011 1.389 . S
C1011 C1010 1.389 . S
C1011 C1012 1.387 . S
C1012 H997 0.930 . S
C1012 C1007 1.390 . S
C1012 C1011 1.387 . S
H1013 C1025 0.930 . S
H1014 C1027 0.930 . S
H1015 C1028 0.930 . S
H1016 C1032 0.959 . S
H1017 C1032 0.959 . S
H1018 C1032 0.961 . S
H1019 C1033 0.960 . S
H1020 C1033 0.961 . S
H1021 C1033 0.959 . S
H1022 C1036 0.929 . S
H1023 C1037 0.931 . S
H1024 C1039 0.930 . S
C1025 H1013 0.930 . S
C1025 C1026 1.399 . S
C1025 C1030 1.399 . S
C1026 C1025 1.399 . S
C1026 C1027 1.376 . S
C1027 H1014 0.930 . S
C1027 C1026 1.376 . S
C1027 C1028 1.388 . S
C1028 H1015 0.930 . S
C1028 C1027 1.388 . S
C1028 C1029 1.390 . S
C1029 C1028 1.390 . S
C1029 C1030 1.394 . S
C1029 C1035 1.465 . S
C1030 C1025 1.399 . S
C1030 C1029 1.394 . S
C1030 C1031 1.516 . S
C1031 C1030 1.516 . S
C1031 C1032 1.502 . S
C1031 C1033 1.561 . S
C1031 C1034 1.526 . S
C1032 H1016 0.959 . S
C1032 H1017 0.959 . S
C1032 H1018 0.961 . S
C1032 C1031 1.502 . S
C1033 H1019 0.960 . S
C1033 H1020 0.961 . S
C1033 H1021 0.959 . S
C1033 C1031 1.561 . S
C1034 C1031 1.526 . S
C1034 C1035 1.396 . S
C1034 C1039 1.390 . S
C1035 C1029 1.465 . S
C1035 C1034 1.396 . S
C1035 C1036 1.399 . S
C1036 H1022 0.929 . S
C1036 C1035 1.399 . S
C1036 C1037 1.385 . S
C1037 H1023 0.931 . S
C1037 C1036 1.385 . S
C1037 C1038 1.389 . S
C1038 C1037 1.389 . S
C1038 C1039 1.387 . S
C1039 H1024 0.930 . S
C1039 C1034 1.390 . S
C1039 C1038 1.387 . S
H1040 C1052 0.930 . S
H1041 C1054 0.930 . S
H1042 C1055 0.930 . S
H1043 C1059 0.959 . S
H1044 C1059 0.959 . S
H1045 C1059 0.961 . S
H1046 C1060 0.960 . S
H1047 C1060 0.961 . S
H1048 C1060 0.959 . S
H1049 C1063 0.929 . S
H1050 C1064 0.931 . S
H1051 C1066 0.930 . S
C1052 H1040 0.930 . S
C1052 C1053 1.399 . S
C1052 C1057 1.399 . S
C1053 C1052 1.399 . S
C1053 C1054 1.376 . S
C1054 H1041 0.930 . S
C1054 C1053 1.376 . S
C1054 C1055 1.388 . S
C1055 H1042 0.930 . S
C1055 C1054 1.388 . S
C1055 C1056 1.390 . S
C1056 C1055 1.390 . S
C1056 C1057 1.394 . S
C1056 C1062 1.465 . S
C1057 C1052 1.399 . S
C1057 C1056 1.394 . S
C1057 C1058 1.516 . S
C1058 C1057 1.516 . S
C1058 C1059 1.502 . S
C1058 C1060 1.561 . S
C1058 C1061 1.526 . S
C1059 H1043 0.959 . S
C1059 H1044 0.959 . S
C1059 H1045 0.961 . S
C1059 C1058 1.502 . S
C1060 H1046 0.960 . S
C1060 H1047 0.961 . S
C1060 H1048 0.959 . S
C1060 C1058 1.561 . S
C1061 C1058 1.526 . S
C1061 C1062 1.396 . S
C1061 C1066 1.390 . S
C1062 C1056 1.465 . S
C1062 C1061 1.396 . S
C1062 C1063 1.399 . S
C1063 H1049 0.929 . S
C1063 C1062 1.399 . S
C1063 C1064 1.385 . S
C1064 H1050 0.931 . S
C1064 C1063 1.385 . S
C1064 C1065 1.389 . S
C1065 C1064 1.389 . S
C1065 C1066 1.387 . S
C1066 H1051 0.930 . S
C1066 C1061 1.390 . S
C1066 C1065 1.387 . S
C444 C344 1.111 . S
C432 C15 1.141 . S
C471 C380 1.595 . S
C459 C55 1.710 . S
C498 C345 1.455 . S
C486 C101 1.469 . S
C525 C375 1.594 . S
C513 C141 1.557 . S
C552 C342 1.493 . S
C540 C162 1.526 . S
C567 C215 1.742 . S
C579 C378 1.770 . S
C594 C261 1.181 . S
C606 C347 1.055 . S
C633 C377 1.481 . S
C621 C282 1.488 . S
C660 C381 1.518 . S
C648 C2 1.536 . S
C687 C346 1.530 . S
C675 C61 1.506 . S
C714 C374 1.749 . S
C702 C95 1.720 . S
C741 C343 1.161 . S
C729 C122 1.169 . S
C768 C376 1.650 . S
C756 C181 1.779 . S
C783 C202 1.489 . S
C795 C341 1.465 . S
C810 C242 1.500 . S
C822 C379 1.557 . S
C849 C348 1.089 . S
C837 C295 1.071 . S
C876 C410 1.706 . S
C864 C21 1.845 . S
C891 C175 1.957 . S
C903 C413 1.819 . S
C930 C412 1.829 . S
C918 C221 1.882 . S
C945 C255 2.105 . S
C957 C411 2.085 . S
C984 C414 1.738 . S
C972 C301 1.759 . S
C999 C82 1.767 . S
C1011 C408 1.690 . S
C1038 C407 2.120 . S
C1026 C135 2.106 . S
C1053 C42 1.970 . S
C1065 C409 1.885 . S
