# Generated by pormake.
# Topology ocu, (6,8)-cn, num edge types: 1
# Building blocks:
#     Node 0, Type 0, BuildingBlock: KUMJIN_clean_sbu_0, # of connection points: 6
#     Node 1, Type 0, BuildingBlock: KUMJIN_clean_sbu_0, # of connection points: 6
#     Node 2, Type 0, BuildingBlock: KUMJIN_clean_sbu_0, # of connection points: 6
#     Node 3, Type 0, BuildingBlock: KUMJIN_clean_sbu_0, # of connection points: 6
#     Node 4, Type 0, BuildingBlock: KUMJIN_clean_sbu_0, # of connection points: 6
#     Node 5, Type 0, BuildingBlock: KUMJIN_clean_sbu_0, # of connection points: 6
#     Node 6, Type 0, BuildingBlock: KUMJIN_clean_sbu_0, # of connection points: 6
#     Node 7, Type 0, BuildingBlock: KUMJIN_clean_sbu_0, # of connection points: 6
#     Node 8, Type 1, BuildingBlock: VETTIZ_charged_sbu_0, # of connection points: 8
#     Node 9, Type 1, BuildingBlock: VETTIZ_charged_sbu_0, # of connection points: 8
#     Node 10, Type 1, BuildingBlock: VETTIZ_charged_sbu_0, # of connection points: 8
#     Node 11, Type 1, BuildingBlock: VETTIZ_charged_sbu_0, # of connection points: 8
#     Node 12, Type 1, BuildingBlock: VETTIZ_charged_sbu_0, # of connection points: 8
#     Node 13, Type 1, BuildingBlock: VETTIZ_charged_sbu_0, # of connection points: 8
#     Edge 14, Type (0, 1), BuildingBlock: TEMPAE_clean_linker_10, # of connection points: 2
#     Edge 15, Type (0, 1), BuildingBlock: TEMPAE_clean_linker_10, # of connection points: 2
#     Edge 16, Type (0, 1), BuildingBlock: TEMPAE_clean_linker_10, # of connection points: 2
#     Edge 17, Type (0, 1), BuildingBlock: TEMPAE_clean_linker_10, # of connection points: 2
#     Edge 18, Type (0, 1), BuildingBlock: TEMPAE_clean_linker_10, # of connection points: 2
#     Edge 19, Type (0, 1), BuildingBlock: TEMPAE_clean_linker_10, # of connection points: 2
#     Edge 20, Type (0, 1), BuildingBlock: TEMPAE_clean_linker_10, # of connection points: 2
#     Edge 21, Type (0, 1), BuildingBlock: TEMPAE_clean_linker_10, # of connection points: 2
#     Edge 22, Type (0, 1), BuildingBlock: TEMPAE_clean_linker_10, # of connection points: 2
#     Edge 23, Type (0, 1), BuildingBlock: TEMPAE_clean_linker_10, # of connection points: 2
#     Edge 24, Type (0, 1), BuildingBlock: TEMPAE_clean_linker_10, # of connection points: 2
#     Edge 25, Type (0, 1), BuildingBlock: TEMPAE_clean_linker_10, # of connection points: 2
#     Edge 26, Type (0, 1), BuildingBlock: TEMPAE_clean_linker_10, # of connection points: 2
#     Edge 27, Type (0, 1), BuildingBlock: TEMPAE_clean_linker_10, # of connection points: 2
#     Edge 28, Type (0, 1), BuildingBlock: TEMPAE_clean_linker_10, # of connection points: 2
#     Edge 29, Type (0, 1), BuildingBlock: TEMPAE_clean_linker_10, # of connection points: 2
#     Edge 30, Type (0, 1), BuildingBlock: TEMPAE_clean_linker_10, # of connection points: 2
#     Edge 31, Type (0, 1), BuildingBlock: TEMPAE_clean_linker_10, # of connection points: 2
#     Edge 32, Type (0, 1), BuildingBlock: TEMPAE_clean_linker_10, # of connection points: 2
#     Edge 33, Type (0, 1), BuildingBlock: TEMPAE_clean_linker_10, # of connection points: 2
#     Edge 34, Type (0, 1), BuildingBlock: TEMPAE_clean_linker_10, # of connection points: 2
#     Edge 35, Type (0, 1), BuildingBlock: TEMPAE_clean_linker_10, # of connection points: 2
#     Edge 36, Type (0, 1), BuildingBlock: TEMPAE_clean_linker_10, # of connection points: 2
#     Edge 37, Type (0, 1), BuildingBlock: TEMPAE_clean_linker_10, # of connection points: 2
#     Edge 38, Type (0, 1), BuildingBlock: TEMPAE_clean_linker_10, # of connection points: 2
#     Edge 39, Type (0, 1), BuildingBlock: TEMPAE_clean_linker_10, # of connection points: 2
#     Edge 40, Type (0, 1), BuildingBlock: TEMPAE_clean_linker_10, # of connection points: 2
#     Edge 41, Type (0, 1), BuildingBlock: TEMPAE_clean_linker_10, # of connection points: 2
#     Edge 42, Type (0, 1), BuildingBlock: TEMPAE_clean_linker_10, # of connection points: 2
#     Edge 43, Type (0, 1), BuildingBlock: TEMPAE_clean_linker_10, # of connection points: 2
#     Edge 44, Type (0, 1), BuildingBlock: TEMPAE_clean_linker_10, # of connection points: 2
#     Edge 45, Type (0, 1), BuildingBlock: TEMPAE_clean_linker_10, # of connection points: 2
#     Edge 46, Type (0, 1), BuildingBlock: TEMPAE_clean_linker_10, # of connection points: 2
#     Edge 47, Type (0, 1), BuildingBlock: TEMPAE_clean_linker_10, # of connection points: 2
#     Edge 48, Type (0, 1), BuildingBlock: TEMPAE_clean_linker_10, # of connection points: 2
#     Edge 49, Type (0, 1), BuildingBlock: TEMPAE_clean_linker_10, # of connection points: 2
#     Edge 50, Type (0, 1), BuildingBlock: TEMPAE_clean_linker_10, # of connection points: 2
#     Edge 51, Type (0, 1), BuildingBlock: TEMPAE_clean_linker_10, # of connection points: 2
#     Edge 52, Type (0, 1), BuildingBlock: TEMPAE_clean_linker_10, # of connection points: 2
#     Edge 53, Type (0, 1), BuildingBlock: TEMPAE_clean_linker_10, # of connection points: 2
#     Edge 54, Type (0, 1), BuildingBlock: TEMPAE_clean_linker_10, # of connection points: 2
#     Edge 55, Type (0, 1), BuildingBlock: TEMPAE_clean_linker_10, # of connection points: 2
#     Edge 56, Type (0, 1), BuildingBlock: TEMPAE_clean_linker_10, # of connection points: 2
#     Edge 57, Type (0, 1), BuildingBlock: TEMPAE_clean_linker_10, # of connection points: 2
#     Edge 58, Type (0, 1), BuildingBlock: TEMPAE_clean_linker_10, # of connection points: 2
#     Edge 59, Type (0, 1), BuildingBlock: TEMPAE_clean_linker_10, # of connection points: 2
#     Edge 60, Type (0, 1), BuildingBlock: TEMPAE_clean_linker_10, # of connection points: 2
#     Edge 61, Type (0, 1), BuildingBlock: TEMPAE_clean_linker_10, # of connection points: 2
# Relax obj value: 0.112
# Max RMSD: 0.247
# Mean RMSD: 0.163
data_MOF--net-ocu--node1-KUMJIN_clean_sbu_0--node2-VETTIZ_charged_sbu_0--edge1-TEMPAE_clean_linker_10
_symmetry_space_group_name_H-M    P1
_symmetry_Int_Tables_number       1
_symmetry_cell_setting            triclinic
loop_
_symmetry_equiv_pos_as_xyz
'x, y, z'
_cell_length_a     39.140768
_cell_length_b     39.334846
_cell_length_c     42.257131
_cell_angle_alpha  78.757538
_cell_angle_beta   99.40246
_cell_angle_gamma 104.23354
loop_
_atom_site_label
_atom_site_type_symbol
_atom_site_fract_x
_atom_site_fract_y
_atom_site_fract_z
_atom_type_partial_charge
Eu0 Eu 0.25725 0.21243 0.23072 0.0
C1 C 0.34057 0.27189 0.34277 0.0
C2 C 0.32536 0.22226 0.38574 0.0
C3 C 0.38441 0.26046 0.38922 0.0
C4 C 0.31631 0.24262 0.35545 0.0
C5 C 0.37468 0.28165 0.35995 0.0
C6 C 0.35966 0.23105 0.40224 0.0
C7 C 0.38492 0.33578 0.32124 0.0
N8 N 0.3298 0.2926 0.31519 0.0
C9 C 0.35064 0.32535 0.30557 0.0
C10 C 0.3973 0.31348 0.34821 0.0
Eu11 Eu 0.27186 0.2718 0.28829 0.0
N12 N 0.28304 0.23555 0.3394 0.0
C13 C 0.2569 0.21053 0.35387 0.0
C14 C 0.29923 0.19461 0.3992 0.0
C15 C 0.26467 0.18909 0.3834 0.0
H16 H 0.34095 0.34356 0.28549 0.0
H17 H 0.24378 0.1689 0.39428 0.0
H18 H 0.36682 0.21618 0.42574 0.0
H19 H 0.40155 0.36126 0.31279 0.0
H20 H 0.22977 0.20762 0.34348 0.0
H21 H 0.29054 0.31006 0.12188 0.0
H22 H 0.3051 0.17839 0.42238 0.0
H23 H 0.18068 0.14784 0.2365 0.0
H24 H 0.30273 0.27263 0.17361 0.0
H25 H 0.11886 0.1377 0.2116 0.0
H26 H 0.41048 0.2675 0.40268 0.0
H27 H 0.22911 0.30567 0.09504 0.0
H28 H 0.16531 0.27478 0.09394 0.0
H29 H 0.42366 0.32186 0.36068 0.0
H30 H 0.11807 0.22973 0.11947 0.0
N31 N 0.24829 0.24898 0.17912 0.0
C32 C 0.27552 0.27121 0.16366 0.0
C33 C 0.23417 0.28952 0.11846 0.0
C34 C 0.20659 0.26513 0.13315 0.0
C35 C 0.26884 0.29219 0.1336 0.0
C36 C 0.21452 0.24479 0.16379 0.0
H37 H 0.10043 0.17875 0.16334 0.0
N38 N 0.1971 0.19763 0.20587 0.0
C39 C 0.13784 0.16102 0.20218 0.0
C40 C 0.18808 0.21882 0.17787 0.0
C41 C 0.17302 0.1675 0.21672 0.0
C42 C 0.12758 0.1842 0.17495 0.0
C43 C 0.15302 0.21275 0.16176 0.0
O44 O 0.24714 0.16194 0.21289 0.0
O45 O 0.29116 0.22529 0.27782 0.0
O46 O 0.31425 0.29491 0.25545 0.0
O47 O 0.31214 0.24833 0.22835 0.0
O48 O 0.2666 0.17243 0.27568 0.0
O49 O 0.29784 0.19866 0.20893 0.0
O50 O 0.27306 0.32465 0.29802 0.0
O51 O 0.23913 0.25929 0.24094 0.0
O52 O 0.22004 0.18665 0.26782 0.0
O53 O 0.21631 0.23629 0.28757 0.0
O54 O 0.26487 0.3119 0.24266 0.0
O55 O 0.23266 0.28011 0.31575 0.0
C56 C 0.28887 0.19345 0.29334 0.0
C57 C 0.27675 0.16348 0.16806 0.0
C58 C 0.30489 0.14541 0.12868 0.0
C59 C 0.30417 0.15047 0.16055 0.0
C60 C 0.27777 0.15391 0.10431 0.0
C61 C 0.24987 0.17178 0.14354 0.0
C62 C 0.25049 0.16705 0.11177 0.0
C63 C 0.32722 0.27989 0.23635 0.0
C64 C 0.27746 0.16916 0.20143 0.0
C65 C 0.14481 0.23402 0.1321 0.0
C66 C 0.17164 0.25983 0.11764 0.0
C67 C 0.24288 0.29088 0.2249 0.0
C68 C 0.24985 0.32793 0.34515 0.0
C69 C 0.22465 0.34604 0.34953 0.0
C70 C 0.22727 0.35981 0.37839 0.0
C71 C 0.25573 0.35523 0.40273 0.0
C72 C 0.27787 0.32345 0.36971 0.0
C73 C 0.28077 0.33714 0.39836 0.0
C74 C 0.20404 0.20303 0.28303 0.0
C75 C 0.24626 0.31392 0.31478 0.0
H76 H 0.32517 0.14465 0.17952 0.0
H77 H 0.27731 0.14986 0.07961 0.0
H78 H 0.22847 0.18183 0.14889 0.0
H79 H 0.22968 0.17342 0.09291 0.0
H80 H 0.20272 0.3489 0.33063 0.0
H81 H 0.25883 0.36589 0.42507 0.0
H82 H 0.29744 0.30949 0.36672 0.0
H83 H 0.30253 0.33377 0.41725 0.0
Eu84 Eu 0.78731 0.24912 0.26509 0.0
C85 C 0.71086 0.33145 0.32478 0.0
C86 C 0.65225 0.29401 0.33012 0.0
C87 C 0.68065 0.33128 0.3708 0.0
C88 C 0.68255 0.30621 0.31341 0.0
C89 C 0.70959 0.34528 0.35288 0.0
C90 C 0.65203 0.30568 0.35943 0.0
C91 C 0.76306 0.38913 0.34106 0.0
N92 N 0.73827 0.34476 0.30681 0.0
C93 C 0.76319 0.37453 0.31348 0.0
C94 C 0.73656 0.37394 0.36128 0.0
Eu95 Eu 0.73815 0.31639 0.26201 0.0
N96 N 0.68324 0.29606 0.28457 0.0
C97 C 0.65306 0.27664 0.26974 0.0
C98 C 0.62235 0.27193 0.31604 0.0
C99 C 0.62252 0.26383 0.28543 0.0
H100 H 0.78423 0.38587 0.29835 0.0
H101 H 0.59902 0.24788 0.27376 0.0
H102 H 0.62917 0.29623 0.37274 0.0
H103 H 0.78359 0.41182 0.3469 0.0
H104 H 0.65174 0.27087 0.24572 0.0
H105 H 0.87095 0.20957 0.37787 0.0
H106 H 0.59844 0.26243 0.32785 0.0
H107 H 0.80945 0.26975 0.18959 0.0
H108 H 0.81538 0.21457 0.34339 0.0
H109 H 0.86276 0.28445 0.16137 0.0
H110 H 0.67948 0.34115 0.39272 0.0
H111 H 0.92807 0.23132 0.35518 0.0
H112 H 0.96054 0.25673 0.30647 0.0
H113 H 0.73651 0.38528 0.38266 0.0
H114 H 0.95836 0.27662 0.24741 0.0
N115 N 0.83994 0.24047 0.30071 0.0
C116 C 0.83971 0.22465 0.33266 0.0
C117 C 0.90359 0.23379 0.33967 0.0
C118 C 0.90368 0.24799 0.30669 0.0
C119 C 0.8714 0.22154 0.35256 0.0
C120 C 0.87105 0.25086 0.28757 0.0
H121 H 0.92194 0.28537 0.19315 0.0
N122 N 0.838 0.26406 0.23693 0.0
C123 C 0.8653 0.27892 0.18765 0.0
C124 C 0.86997 0.2629 0.25461 0.0
C125 C 0.83513 0.27078 0.20378 0.0
C126 C 0.89861 0.2796 0.20564 0.0
C127 C 0.90128 0.27131 0.23952 0.0
O128 O 0.76074 0.19305 0.27607 0.0
O129 O 0.73679 0.25901 0.27779 0.0
O130 O 0.77626 0.313 0.30885 0.0
O131 O 0.82019 0.28692 0.29932 0.0
O132 O 0.76451 0.22848 0.31296 0.0
O133 O 0.78509 0.21188 0.23223 0.0
O134 O 0.72014 0.36633 0.24815 0.0
O135 O 0.78065 0.30296 0.23985 0.0
O136 O 0.75531 0.26238 0.21601 0.0
O137 O 0.70676 0.27371 0.23184 0.0
O138 O 0.79319 0.35162 0.25494 0.0
O139 O 0.72396 0.33765 0.21103 0.0
C140 C 0.73719 0.24228 0.30672 0.0
C141 C 0.78333 0.15292 0.25573 0.0
C142 C 0.82722 0.1202 0.28419 0.0
C143 C 0.81377 0.15091 0.27779 0.0
C144 C 0.8105 0.09161 0.26767 0.0
C145 C 0.76688 0.12457 0.23901 0.0
C146 C 0.78061 0.09401 0.2449 0.0
C147 C 0.80812 0.30571 0.31614 0.0
C148 C 0.76855 0.18443 0.25045 0.0
C149 C 0.93399 0.26983 0.25853 0.0
C150 C 0.93522 0.25844 0.29213 0.0
C151 C 0.80436 0.33146 0.24021 0.0
C152 C 0.74674 0.3992 0.20171 0.0
C153 C 0.74662 0.40393 0.16811 0.0
C154 C 0.77103 0.43177 0.15193 0.0
C155 C 0.79615 0.45475 0.17032 0.0
C156 C 0.77211 0.42245 0.21969 0.0
C157 C 0.79682 0.44984 0.20404 0.0
C158 C 0.72072 0.26005 0.21209 0.0
C159 C 0.72225 0.36803 0.21753 0.0
H160 H 0.82622 0.1727 0.29088 0.0
H161 H 0.82046 0.0675 0.27252 0.0
H162 H 0.74339 0.12599 0.22168 0.0
H163 H 0.7678 0.07199 0.23215 0.0
H164 H 0.72639 0.38628 0.15453 0.0
H165 H 0.8147 0.47695 0.15863 0.0
H166 H 0.77313 0.41936 0.24579 0.0
H167 H 0.81626 0.46763 0.21805 0.0
Eu168 Eu 0.74386 0.73606 0.29691 0.0
C169 C 0.83963 0.85293 0.20734 0.0
C170 C 0.80011 0.86566 0.15847 0.0
C171 C 0.85088 0.91146 0.17401 0.0
C172 C 0.8095 0.84231 0.18663 0.0
C173 C 0.86129 0.8873 0.20083 0.0
C174 C 0.82032 0.90062 0.15282 0.0
C175 C 0.90401 0.86987 0.24528 0.0
N176 N 0.8493 0.82863 0.23243 0.0
C177 C 0.88171 0.83607 0.25056 0.0
C178 C 0.89349 0.89583 0.22063 0.0
Eu179 Eu 0.81007 0.77207 0.24116 0.0
N180 N 0.79096 0.80822 0.19266 0.0
C181 C 0.76458 0.79495 0.1699 0.0
C182 C 0.77165 0.85274 0.13616 0.0
C183 C 0.75413 0.81707 0.14168 0.0
H184 H 0.88992 0.81618 0.26979 0.0
H185 H 0.73255 0.80656 0.12423 0.0
H186 H 0.81322 0.91908 0.13157 0.0
H187 H 0.92923 0.87589 0.26029 0.0
H188 H 0.75073 0.7675 0.17363 0.0
H189 H 0.82272 0.70515 0.41536 0.0
H190 H 0.76378 0.86978 0.11416 0.0
H191 H 0.66748 0.68667 0.26561 0.0
H192 H 0.80347 0.74368 0.36707 0.0
H193 H 0.63307 0.62471 0.27408 0.0
H194 H 0.86694 0.93811 0.1688 0.0
H195 H 0.79415 0.64136 0.42478 0.0
H196 H 0.74832 0.5904 0.40637 0.0
H197 H 0.91089 0.92193 0.21645 0.0
H198 H 0.69686 0.56846 0.36814 0.0
N199 N 0.76422 0.70244 0.34691 0.0
C200 C 0.79034 0.71609 0.36982 0.0
C201 C 0.78564 0.65814 0.40287 0.0
C202 C 0.75799 0.6444 0.38029 0.0
C203 C 0.80163 0.69416 0.39775 0.0
C204 C 0.74734 0.66753 0.3524 0.0
H205 H 0.65345 0.58113 0.31922 0.0
N206 N 0.70728 0.67817 0.30531 0.0
C207 C 0.65694 0.63287 0.29025 0.0
C208 C 0.71812 0.65509 0.33101 0.0
C209 C 0.67646 0.66796 0.28558 0.0
C210 C 0.6686 0.60834 0.31567 0.0
C211 C 0.69919 0.61938 0.33672 0.0
O212 O 0.73407 0.77958 0.31743 0.0
O213 O 0.75734 0.77787 0.25264 0.0
O214 O 0.8175 0.81236 0.27579 0.0
O215 O 0.78852 0.77625 0.31839 0.0
O216 O 0.7071 0.74579 0.25045 0.0
O217 O 0.69351 0.73196 0.31524 0.0
O218 O 0.86029 0.76052 0.23476 0.0
O219 O 0.79558 0.73014 0.2845 0.0
O220 O 0.74352 0.69337 0.26804 0.0
O221 O 0.76584 0.72842 0.22215 0.0
O222 O 0.84789 0.75662 0.28554 0.0
O223 O 0.81286 0.74206 0.20351 0.0
C224 C 0.72708 0.77311 0.23544 0.0
C225 C 0.67443 0.7862 0.30775 0.0
C226 C 0.64442 0.83291 0.31175 0.0
C227 C 0.66914 0.81145 0.32503 0.0
C228 C 0.62556 0.82908 0.2809 0.0
C229 C 0.654 0.78207 0.27757 0.0
C230 C 0.6302 0.80368 0.26411 0.0
C231 C 0.80987 0.80579 0.30622 0.0
C232 C 0.70117 0.76441 0.32109 0.0
C233 C 0.71084 0.59604 0.36356 0.0
C234 C 0.74015 0.60853 0.38531 0.0
C235 C 0.82599 0.73165 0.30122 0.0
C236 C 0.86723 0.75275 0.18213 0.0
C237 C 0.87711 0.72544 0.17096 0.0
C238 C 0.8959 0.73304 0.14368 0.0
C239 C 0.90482 0.76854 0.12806 0.0
C240 C 0.87628 0.78781 0.16603 0.0
C241 C 0.89506 0.7956 0.13919 0.0
C242 C 0.74837 0.69802 0.23726 0.0
C243 C 0.84685 0.74411 0.21013 0.0
H244 H 0.68419 0.81442 0.34862 0.0
H245 H 0.60631 0.84498 0.27019 0.0
H246 H 0.65601 0.76192 0.26438 0.0
H247 H 0.61488 0.80035 0.24072 0.0
H248 H 0.86961 0.69827 0.18318 0.0
H249 H 0.91971 0.77551 0.10738 0.0
H250 H 0.86879 0.80909 0.17418 0.0
H251 H 0.9021 0.82276 0.12692 0.0
Eu252 Eu 0.3032 0.73573 0.27708 0.0
C253 C 0.22452 0.84299 0.18236 0.0
C254 C 0.27044 0.89437 0.16629 0.0
C255 C 0.21654 0.8795 0.12935 0.0
C256 C 0.25781 0.86416 0.18888 0.0
C257 C 0.20325 0.85066 0.15271 0.0
C258 C 0.25004 0.90141 0.13619 0.0
C259 C 0.15622 0.80261 0.17253 0.0
N260 N 0.21224 0.81583 0.20572 0.0
C261 C 0.1782 0.79625 0.20164 0.0
C262 C 0.16891 0.82971 0.14781 0.0
Eu263 Eu 0.25164 0.80526 0.25366 0.0
N264 N 0.27671 0.85676 0.21828 0.0
C265 C 0.30721 0.87999 0.22757 0.0
C266 C 0.3025 0.91739 0.17517 0.0
C267 C 0.32082 0.91031 0.20605 0.0
H268 H 0.16825 0.77506 0.2205 0.0
H269 H 0.34537 0.92826 0.21337 0.0
H270 H 0.25952 0.92424 0.11838 0.0
H271 H 0.12956 0.78653 0.16914 0.0
H272 H 0.32161 0.87502 0.25136 0.0
H273 H 0.20811 0.61206 0.31303 0.0
H274 H 0.31269 0.94126 0.15879 0.0
H275 H 0.3849 0.76626 0.31354 0.0
H276 H 0.23343 0.6657 0.27618 0.0
H277 H 0.42116 0.75471 0.36646 0.0
H278 H 0.20072 0.88567 0.10632 0.0
H279 H 0.2385 0.59838 0.36854 0.0
H280 H 0.29014 0.61473 0.41069 0.0
H281 H 0.15179 0.83466 0.12532 0.0
H282 H 0.348 0.65365 0.42533 0.0
N283 N 0.27734 0.68307 0.31062 0.0
C284 C 0.24703 0.66022 0.30029 0.0
C285 C 0.2496 0.62218 0.35252 0.0
C286 C 0.2814 0.64492 0.36253 0.0
C287 C 0.2325 0.62971 0.32116 0.0
C288 C 0.295 0.67534 0.34058 0.0
H289 H 0.39722 0.70567 0.40889 0.0
N290 N 0.3406 0.72485 0.32628 0.0
C291 C 0.39485 0.73831 0.36182 0.0
C292 C 0.32758 0.697 0.34873 0.0
C293 C 0.37431 0.74471 0.33186 0.0
C294 C 0.3812 0.71068 0.38574 0.0
C295 C 0.34742 0.68923 0.37917 0.0
O296 O 0.34923 0.72966 0.25718 0.0
O297 O 0.29638 0.78531 0.24213 0.0
O298 O 0.24224 0.77447 0.21218 0.0
O299 O 0.25402 0.72092 0.24071 0.0
O300 O 0.34778 0.78199 0.26036 0.0
O301 O 0.2997 0.69139 0.25134 0.0
O302 O 0.20758 0.8203 0.26951 0.0
O303 O 0.25732 0.75476 0.28777 0.0
O304 O 0.31226 0.76747 0.31853 0.0
O305 O 0.30172 0.82053 0.28812 0.0
O306 O 0.20642 0.76044 0.27175 0.0
O307 O 0.26172 0.84596 0.28451 0.0
C308 C 0.32862 0.80111 0.24045 0.0
C309 C 0.35276 0.67184 0.25206 0.0
C310 C 0.38528 0.63575 0.23195 0.0
C311 C 0.36592 0.66289 0.2262 0.0
C312 C 0.39152 0.61837 0.26412 0.0
C313 C 0.35924 0.65376 0.28366 0.0
C314 C 0.37857 0.62728 0.2896 0.0
C315 C 0.2395 0.73992 0.2149 0.0
C316 C 0.33293 0.70046 0.24612 0.0
C317 C 0.3333 0.65989 0.4017 0.0
C318 C 0.30037 0.63773 0.39337 0.0
C319 C 0.22494 0.7397 0.29015 0.0
C320 C 0.21852 0.87937 0.28022 0.0
C321 C 0.21094 0.89151 0.30691 0.0
C322 C 0.20349 0.92545 0.30335 0.0
C323 C 0.20386 0.94702 0.2726 0.0
C324 C 0.21848 0.9012 0.24975 0.0
C325 C 0.2112 0.93487 0.24603 0.0
C326 C 0.31473 0.80215 0.31502 0.0
C327 C 0.22829 0.84475 0.28506 0.0
H328 H 0.36069 0.6767 0.20171 0.0
H329 H 0.40684 0.59801 0.26976 0.0
H330 H 0.34951 0.66027 0.30377 0.0
H331 H 0.38366 0.61362 0.31414 0.0
H332 H 0.2114 0.87473 0.33053 0.0
H333 H 0.19782 0.97305 0.26896 0.0
H334 H 0.22427 0.89234 0.22896 0.0
H335 H 0.21123 0.95163 0.22244 0.0
Eu336 Eu 0.32325 0.70503 0.77119 0.0
C337 C 0.21618 0.77259 0.81452 0.0
C338 C 0.16066 0.73467 0.79648 0.0
C339 C 0.16322 0.76705 0.84032 0.0
C340 C 0.1969 0.75035 0.79342 0.0
C341 C 0.1996 0.78084 0.83856 0.0
C342 C 0.14374 0.74407 0.81923 0.0
C343 C 0.25612 0.81515 0.8582 0.0
N344 N 0.25151 0.78462 0.81281 0.0
C345 C 0.27129 0.80645 0.83401 0.0
C346 C 0.22009 0.80232 0.86051 0.0
Eu347 Eu 0.27538 0.77341 0.76782 0.0
N348 N 0.21439 0.74109 0.77232 0.0
C349 C 0.19782 0.71219 0.7575 0.0
C350 C 0.14292 0.7084 0.77801 0.0
C351 C 0.16192 0.69641 0.75913 0.0
H352 H 0.29908 0.81792 0.83256 0.0
H353 H 0.1493 0.67413 0.74666 0.0
H354 H 0.11591 0.73265 0.82152 0.0
H355 H 0.27229 0.83213 0.87486 0.0
H356 H 0.21217 0.69925 0.74588 0.0
H357 H 0.45588 0.79568 0.78491 0.0
H358 H 0.11527 0.69562 0.77983 0.0
H359 H 0.29104 0.65092 0.71425 0.0
H360 H 0.39464 0.77218 0.79397 0.0
H361 H 0.31029 0.63392 0.66869 0.0
H362 H 0.15011 0.77332 0.85844 0.0
H363 H 0.4796 0.77795 0.74158 0.0
H364 H 0.4689 0.74406 0.69577 0.0
H365 H 0.20837 0.80912 0.8793 0.0
H366 H 0.42875 0.70231 0.66283 0.0
N367 N 0.38329 0.7346 0.76119 0.0
C368 C 0.4046 0.76042 0.77769 0.0
C369 C 0.45271 0.76566 0.74683 0.0
C370 C 0.43047 0.74143 0.72824 0.0
C371 C 0.43957 0.77542 0.77149 0.0
C372 C 0.39546 0.72619 0.73594 0.0
H373 H 0.36991 0.66159 0.65241 0.0
N374 N 0.33905 0.68935 0.72437 0.0
C375 C 0.32805 0.65369 0.68181 0.0
C376 C 0.37266 0.70321 0.71693 0.0
C377 C 0.31734 0.66361 0.70795 0.0
C378 C 0.36166 0.66932 0.67273 0.0
C379 C 0.38461 0.69399 0.69054 0.0
O380 O 0.29352 0.65065 0.77112 0.0
O381 O 0.27312 0.71625 0.78229 0.0
O382 O 0.31596 0.77029 0.81408 0.0
O383 O 0.35041 0.72876 0.81613 0.0
O384 O 0.30063 0.68843 0.81977 0.0
O385 O 0.3476 0.6606 0.79515 0.0
O386 O 0.30536 0.82491 0.77692 0.0
O387 O 0.32583 0.76309 0.75624 0.0
O388 O 0.28342 0.70828 0.72478 0.0
O389 O 0.25039 0.75159 0.721 0.0
O390 O 0.29738 0.79236 0.7195 0.0
O391 O 0.25619 0.82146 0.74396 0.0
C392 C 0.27245 0.70075 0.81147 0.0
C393 C 0.3042 0.61252 0.81916 0.0
C394 C 0.29617 0.60333 0.87652 0.0
C395 C 0.31446 0.62185 0.85018 0.0
C396 C 0.26914 0.57308 0.8721 0.0
C397 C 0.27654 0.58274 0.81493 0.0
C398 C 0.25939 0.56293 0.84139 0.0
C399 C 0.34208 0.75414 0.82803 0.0
C400 C 0.31785 0.63693 0.79054 0.0
C401 C 0.41929 0.709 0.68304 0.0
C402 C 0.44217 0.73263 0.70187 0.0
C403 C 0.32573 0.77991 0.72713 0.0
C404 C 0.30345 0.87312 0.7349 0.0
C405 C 0.2853 0.89894 0.71829 0.0
C406 C 0.303 0.92944 0.69911 0.0
C407 C 0.33907 0.93391 0.69625 0.0
C408 C 0.33997 0.87842 0.73272 0.0
C409 C 0.35756 0.90853 0.71337 0.0
C410 C 0.25884 0.72583 0.70954 0.0
C411 C 0.28472 0.84239 0.75634 0.0
H412 H 0.33644 0.64424 0.85371 0.0
H413 H 0.25569 0.55725 0.8923 0.0
H414 H 0.2677 0.57535 0.79105 0.0
H415 H 0.23818 0.53991 0.838 0.0
H416 H 0.25721 0.89515 0.72003 0.0
H417 H 0.35283 0.95703 0.68106 0.0
H418 H 0.35508 0.85963 0.74636 0.0
H419 H 0.38561 0.91225 0.71187 0.0
Eu420 Eu 0.25238 0.24955 0.79788 0.0
C421 C 0.34589 0.35577 0.70224 0.0
C422 C 0.30437 0.36884 0.65485 0.0
C423 C 0.35724 0.41366 0.66786 0.0
C424 C 0.31446 0.34552 0.68273 0.0
C425 C 0.36794 0.38976 0.69476 0.0
C426 C 0.32553 0.40319 0.64791 0.0
C427 C 0.41071 0.37307 0.73956 0.0
N428 N 0.35559 0.33196 0.72786 0.0
C429 C 0.38807 0.33961 0.74586 0.0
C430 C 0.40044 0.39842 0.71412 0.0
Eu431 Eu 0.31455 0.27693 0.73865 0.0
N432 N 0.29468 0.31212 0.69007 0.0
C433 C 0.26575 0.29957 0.66926 0.0
C434 C 0.27387 0.3566 0.63425 0.0
C435 C 0.25467 0.32169 0.64134 0.0
H436 H 0.39616 0.32028 0.7657 0.0
H437 H 0.2313 0.31179 0.62533 0.0
H438 H 0.318 0.42159 0.62679 0.0
H439 H 0.43603 0.37931 0.75437 0.0
H440 H 0.25048 0.27273 0.67432 0.0
H441 H 0.3362 0.21739 0.91232 0.0
H442 H 0.26548 0.37355 0.61242 0.0
H443 H 0.16775 0.2073 0.7779 0.0
H444 H 0.31555 0.25595 0.86405 0.0
H445 H 0.12904 0.14767 0.7901 0.0
H446 H 0.37367 0.43999 0.66187 0.0
H447 H 0.30553 0.1542 0.92361 0.0
H448 H 0.25515 0.10477 0.90873 0.0
H449 H 0.41808 0.42429 0.70924 0.0
H450 H 0.19871 0.08554 0.87512 0.0
N451 N 0.27448 0.21505 0.84619 0.0
C452 C 0.30191 0.22856 0.86799 0.0
C453 C 0.29652 0.17102 0.90197 0.0
C454 C 0.26673 0.15791 0.88103 0.0
C455 C 0.31375 0.20668 0.89574 0.0
C456 C 0.25577 0.18102 0.85328 0.0
H457 H 0.15109 0.10157 0.83137 0.0
N458 N 0.21205 0.19429 0.81031 0.0
C459 C 0.15573 0.15352 0.80258 0.0
C460 C 0.22378 0.17023 0.83457 0.0
C461 C 0.17773 0.18721 0.7957 0.0
C462 C 0.16833 0.12755 0.82579 0.0
C463 C 0.2023 0.13604 0.8428 0.0
O464 O 0.2147 0.24904 0.83123 0.0
O465 O 0.26482 0.2874 0.75198 0.0
O466 O 0.32094 0.32265 0.76552 0.0
O467 O 0.30223 0.29002 0.81395 0.0
O468 O 0.21238 0.26176 0.75438 0.0
O469 O 0.24459 0.29892 0.80947 0.0
O470 O 0.36137 0.25663 0.73762 0.0
O471 O 0.30104 0.23681 0.78437 0.0
O472 O 0.23262 0.21064 0.76155 0.0
O473 O 0.26993 0.2338 0.72127 0.0
O474 O 0.35322 0.26464 0.78284 0.0
O475 O 0.31937 0.25275 0.69747 0.0
C476 C 0.23356 0.2855 0.73672 0.0
C477 C 0.18778 0.29843 0.8217 0.0
C478 C 0.15328 0.33596 0.83657 0.0
C479 C 0.18346 0.32093 0.84223 0.0
C480 C 0.12773 0.32815 0.80987 0.0
C481 C 0.16171 0.29089 0.79547 0.0
C482 C 0.13202 0.30586 0.78953 0.0
C483 C 0.32001 0.31923 0.79704 0.0
C484 C 0.21971 0.28338 0.82765 0.0
C485 C 0.2146 0.11207 0.86875 0.0
C486 C 0.24672 0.12303 0.8879 0.0
C487 C 0.33248 0.23973 0.7998 0.0
C488 C 0.37723 0.25182 0.68761 0.0
C489 C 0.38945 0.22253 0.6831 0.0
C490 C 0.41687 0.22715 0.66373 0.0
C491 C 0.43169 0.26186 0.64893 0.0
C492 C 0.39218 0.28602 0.6725 0.0
C493 C 0.4193 0.29093 0.6532 0.0
C494 C 0.24278 0.21064 0.73316 0.0
C495 C 0.35031 0.24607 0.70968 0.0
H496 H 0.20371 0.32692 0.86239 0.0
H497 H 0.10397 0.33867 0.80502 0.0
H498 H 0.1641 0.27332 0.77966 0.0
H499 H 0.11204 0.29991 0.76922 0.0
H500 H 0.37741 0.19613 0.69464 0.0
H501 H 0.45324 0.2667 0.63434 0.0
H502 H 0.38318 0.30883 0.67592 0.0
H503 H 0.43101 0.31742 0.64173 0.0
Eu504 Eu 0.80424 0.22172 0.77634 0.0
C505 C 0.73099 0.33221 0.68356 0.0
C506 C 0.77951 0.38238 0.6712 0.0
C507 C 0.72781 0.37068 0.6311 0.0
C508 C 0.76436 0.35198 0.69239 0.0
C509 C 0.71191 0.34183 0.65314 0.0
C510 C 0.76156 0.39098 0.64014 0.0
C511 C 0.66141 0.29636 0.67009 0.0
N512 N 0.71616 0.30506 0.70569 0.0
C513 C 0.68129 0.28818 0.70006 0.0
C514 C 0.67695 0.32298 0.64632 0.0
Eu515 Eu 0.75213 0.29061 0.75498 0.0
N516 N 0.78069 0.34319 0.72273 0.0
C517 C 0.81089 0.36536 0.73431 0.0
C518 C 0.81146 0.40409 0.68238 0.0
C519 C 0.82699 0.39577 0.71422 0.0
H520 H 0.66928 0.26751 0.7184 0.0
H521 H 0.85135 0.41277 0.72332 0.0
H522 H 0.77303 0.41393 0.62336 0.0
H523 H 0.63414 0.28218 0.66536 0.0
H524 H 0.82333 0.35942 0.7588 0.0
H525 H 0.70861 0.09634 0.80588 0.0
H526 H 0.82365 0.42797 0.66706 0.0
H527 H 0.88614 0.24845 0.81376 0.0
H528 H 0.73371 0.15227 0.77211 0.0
H529 H 0.92235 0.23292 0.86584 0.0
H530 H 0.71376 0.37825 0.60746 0.0
H531 H 0.73859 0.07904 0.8607 0.0
H532 H 0.78926 0.09292 0.90426 0.0
H533 H 0.66142 0.32949 0.6232 0.0
H534 H 0.84737 0.13031 0.92077 0.0
N535 N 0.77694 0.16804 0.8079 0.0
C536 C 0.74702 0.14564 0.79611 0.0
C537 C 0.74938 0.10418 0.84628 0.0
C538 C 0.78071 0.12649 0.85781 0.0
C539 C 0.73259 0.11369 0.81522 0.0
C540 C 0.79433 0.15838 0.83757 0.0
H541 H 0.89748 0.18217 0.90637 0.0
N542 N 0.84097 0.20754 0.82516 0.0
C543 C 0.89565 0.21753 0.86076 0.0
C544 C 0.8273 0.17892 0.84657 0.0
C545 C 0.87512 0.2262 0.83128 0.0
C546 C 0.88145 0.18897 0.88363 0.0
C547 C 0.84715 0.16883 0.87644 0.0
O548 O 0.85045 0.20874 0.76237 0.0
O549 O 0.7981 0.27253 0.74258 0.0
O550 O 0.73867 0.25875 0.71345 0.0
O551 O 0.75647 0.20669 0.73915 0.0
O552 O 0.84912 0.26811 0.76117 0.0
O553 O 0.79745 0.18408 0.74303 0.0
O554 O 0.70518 0.29899 0.77195 0.0
O555 O 0.75941 0.24051 0.78852 0.0
O556 O 0.81363 0.25102 0.8191 0.0
O557 O 0.8004 0.30463 0.79247 0.0
O558 O 0.70789 0.24362 0.77185 0.0
O559 O 0.75638 0.33245 0.78374 0.0
C560 C 0.83061 0.28827 0.74184 0.0
C561 C 0.84103 0.15101 0.74886 0.0
C562 C 0.85347 0.10463 0.72432 0.0
C563 C 0.84551 0.13824 0.72135 0.0
C564 C 0.85645 0.08387 0.75538 0.0
C565 C 0.84421 0.12996 0.77957 0.0
C566 C 0.85182 0.09651 0.78274 0.0
C567 C 0.73962 0.22513 0.71473 0.0
C568 C 0.83125 0.1855 0.74469 0.0
C569 C 0.83267 0.13834 0.8976 0.0
C570 C 0.79957 0.11708 0.88823 0.0
C571 C 0.7275 0.22407 0.79056 0.0
C572 C 0.70634 0.35778 0.77843 0.0
C573 C 0.68789 0.36521 0.8015 0.0
C574 C 0.67314 0.39575 0.79499 0.0
C575 C 0.67766 0.41854 0.76504 0.0
C576 C 0.70982 0.38082 0.74879 0.0
C577 C 0.6956 0.41099 0.74221 0.0
C578 C 0.81559 0.28532 0.81759 0.0
C579 C 0.7224 0.32636 0.78542 0.0
H580 H 0.8424 0.15439 0.69759 0.0
H581 H 0.86308 0.05815 0.75865 0.0
H582 H 0.8407 0.13929 0.80099 0.0
H583 H 0.85431 0.08038 0.80652 0.0
H584 H 0.6849 0.34714 0.82427 0.0
H585 H 0.66787 0.44276 0.75932 0.0
H586 H 0.72383 0.37568 0.73083 0.0
H587 H 0.69879 0.42883 0.71937 0.0
Eu588 Eu 0.77837 0.74224 0.74228 0.0
C589 C 0.8869 0.83026 0.83477 0.0
C590 C 0.89184 0.78885 0.88497 0.0
C591 C 0.94254 0.83624 0.87073 0.0
C592 C 0.87202 0.80061 0.85566 0.0
C593 C 0.92206 0.84893 0.84242 0.0
C594 C 0.92744 0.80625 0.89198 0.0
C595 C 0.91301 0.89308 0.79517 0.0
N596 N 0.86631 0.84204 0.80785 0.0
C597 C 0.87824 0.87372 0.78872 0.0
C598 C 0.9352 0.88037 0.82188 0.0
Eu599 Eu 0.80859 0.80673 0.79747 0.0
N600 N 0.83753 0.78451 0.84824 0.0
C601 C 0.82044 0.75822 0.87019 0.0
C602 C 0.87494 0.76071 0.90684 0.0
C603 C 0.83897 0.74562 0.89959 0.0
H604 H 0.86124 0.88342 0.76786 0.0
H605 H 0.82551 0.72423 0.91658 0.0
H606 H 0.94322 0.7973 0.91418 0.0
H607 H 0.9227 0.91767 0.77947 0.0
H608 H 0.7927 0.74618 0.86484 0.0
H609 H 0.74224 0.82303 0.62655 0.0
H610 H 0.88913 0.75117 0.92977 0.0
H611 H 0.73962 0.65801 0.77052 0.0
H612 H 0.78147 0.80543 0.67561 0.0
H613 H 0.68301 0.61505 0.76067 0.0
H614 H 0.96973 0.84999 0.87686 0.0
H615 H 0.68135 0.78689 0.61627 0.0
H616 H 0.63488 0.73275 0.63331 0.0
H617 H 0.9621 0.89546 0.82688 0.0
H618 H 0.61862 0.67606 0.66998 0.0
N619 N 0.7428 0.7607 0.69397 0.0
C620 C 0.7549 0.78959 0.6717 0.0
C621 C 0.69834 0.77936 0.63814 0.0
C622 C 0.68675 0.74871 0.66013 0.0
C623 C 0.73274 0.79966 0.64375 0.0
C624 C 0.71005 0.73976 0.68803 0.0
H625 H 0.63669 0.63158 0.71713 0.0
N626 N 0.72508 0.69914 0.73381 0.0
C627 C 0.68756 0.6412 0.74601 0.0
C628 C 0.70089 0.70794 0.7086 0.0
C629 C 0.71961 0.66573 0.75159 0.0
C630 C 0.66145 0.65067 0.72148 0.0
C631 C 0.6682 0.68411 0.70194 0.0
O632 O 0.80487 0.69895 0.7439 0.0
O633 O 0.81601 0.75591 0.78666 0.0
O634 O 0.85443 0.80813 0.77051 0.0
O635 O 0.82104 0.78905 0.72427 0.0
O636 O 0.78819 0.70407 0.78918 0.0
O637 O 0.80095 0.73672 0.69985 0.0
O638 O 0.79773 0.85832 0.79813 0.0
O639 O 0.77007 0.79363 0.75342 0.0
O640 O 0.73142 0.73601 0.7688 0.0
O641 O 0.75983 0.76475 0.81266 0.0
O642 O 0.79882 0.84536 0.75151 0.0
O643 O 0.77978 0.81359 0.83507 0.0
C644 C 0.81227 0.72566 0.8047 0.0
C645 C 0.80346 0.6783 0.69505 0.0
C646 C 0.8244 0.63467 0.67343 0.0
C647 C 0.83132 0.66375 0.69029 0.0
C648 C 0.78896 0.62019 0.6619 0.0
C649 C 0.76852 0.66381 0.68281 0.0
C650 C 0.76135 0.63479 0.66648 0.0
C651 C 0.85114 0.8048 0.73962 0.0
C652 C 0.81121 0.70771 0.71382 0.0
C653 C 0.64403 0.69382 0.67528 0.0
C654 C 0.65329 0.72609 0.6544 0.0
C655 C 0.77343 0.82463 0.73631 0.0
C656 C 0.7904 0.87108 0.84853 0.0
C657 C 0.76267 0.88193 0.85815 0.0
C658 C 0.76978 0.90557 0.88061 0.0
C659 C 0.80521 0.91815 0.89338 0.0
C660 C 0.82553 0.88363 0.86159 0.0
C661 C 0.83284 0.90713 0.88395 0.0
C662 C 0.73194 0.74486 0.7975 0.0
C663 C 0.78185 0.84734 0.82427 0.0
H664 H 0.85836 0.67546 0.69932 0.0
H665 H 0.78248 0.59746 0.64939 0.0
H666 H 0.74681 0.67478 0.68597 0.0
H667 H 0.73426 0.62351 0.65734 0.0
H668 H 0.73557 0.87232 0.84775 0.0
H669 H 0.81149 0.93605 0.91105 0.0
H670 H 0.8472 0.87546 0.85443 0.0
H671 H 0.85999 0.9168 0.89403 0.0
Fe672 Fe 1.01584 0.09218 0.51375 0.0
O673 O 1.02082 0.04075 0.52465 0.0
Fe674 Fe 0.06691 0.02843 0.51492 0.0
Fe675 Fe 0.98594 0.99339 0.51608 0.0
O676 O 1.02502 0.04284 0.52642 0.0
O677 O 1.03165 0.98561 0.50128 0.0
O678 O 1.02813 0.98297 0.50221 0.0
Fe679 Fe 0.04055 0.93673 0.51627 0.0
C680 C 0.95076 0.04156 0.54645 0.0
O681 O 1.0026 0.04825 0.49566 0.0
O682 O 0.96996 1.01115 0.46837 0.0
O683 O 0.07522 0.9556 0.48194 0.0
O684 O 0.10571 1.00912 0.49814 0.0
O685 O 0.06137 0.05783 0.46956 0.0
O686 O 0.05329 0.10888 0.48073 0.0
O687 O 0.95511 0.94458 0.50411 0.0
O688 O 0.99505 0.92109 0.4857 0.0
C689 C 0.06259 0.09112 0.46241 0.0
O690 O 0.08401 0.95218 0.54894 0.0
O691 O 0.07473 1.00126 0.56074 0.0
O692 O 0.97561 0.07072 0.54351 0.0
O693 O 0.94767 1.01315 0.53327 0.0
C694 C 0.98401 0.04279 0.46858 0.0
C695 C 0.96314 0.92474 0.48628 0.0
C696 C 1.00214 0.94015 0.57269 0.0
O697 O 0.9996 0.97214 0.56296 0.0
O698 O 1.00941 0.92164 0.55407 0.0
C699 C 0.10118 0.98358 0.48108 0.0
O700 O 0.09984 0.07262 0.5337 0.0
O701 O 0.05938 0.09759 0.5494 0.0
C702 C 0.09044 0.97581 0.56699 0.0
C703 C 0.09092 0.09199 0.55129 0.0
Fe704 Fe 0.53301 0.9665 0.02251 0.0
O705 O 0.55916 1.01052 0.04066 0.0
Fe706 Fe 0.45337 0.99057 0.98547 0.0
Fe707 Fe 0.61139 0.02418 0.0479 0.0
O708 O 0.50555 1.00045 0.99358 0.0
O709 O 0.50574 1.0049 0.99232 0.0
O710 O 0.55929 0.01475 0.03949 0.0
Fe711 Fe 0.53141 0.04874 1.01122 0.0
C712 C 0.59169 0.94694 0.08062 0.0
O713 O 0.56782 0.97614 0.98808 0.0
O714 O 0.61856 0.98957 0.02034 0.0
O715 O 0.49613 0.07766 0.97778 0.0
O716 O 0.45954 0.03534 0.94904 0.0
O717 O 0.46145 0.95293 0.96102 0.0
O718 O 0.50086 0.92515 0.99771 0.0
O719 O 0.61874 0.06425 1.00752 0.0
O720 O 0.56647 0.06279 0.97633 0.0
C721 C 0.4771 0.92659 0.97199 0.0
O722 O 0.49689 0.03777 0.04568 0.0
O723 O 0.44604 0.0245 1.01362 0.0
O724 O 0.56746 0.93742 0.05654 0.0
O725 O 0.60472 0.97985 0.08471 0.0
C726 C 0.60116 0.97841 0.99484 0.0
C727 C 0.60037 0.07204 0.98028 0.0
C728 C 0.58686 0.08749 0.06284 0.0
O729 O 0.60344 0.06171 0.07241 0.0
O730 O 0.563 0.08959 0.03721 0.0
C731 C 0.47179 0.06819 0.95369 0.0
O732 O 0.44616 0.9502 0.02546 0.0
O733 O 0.49798 0.95407 0.05743 0.0
C734 C 0.46347 0.0348 0.03947 0.0
C735 C 0.46415 0.94414 0.0532 0.0
Fe736 Fe 0.03461 0.55451 1.00833 0.0
O737 O 1.00016 0.51147 0.99456 0.0
Fe738 Fe 0.11062 0.52025 0.03951 0.0
Fe739 Fe 0.94815 0.50478 0.99378 0.0
O740 O 0.05933 0.51757 0.0362 0.0
O741 O 0.05862 0.51319 0.03815 0.0
O742 O 0.99938 0.5071 0.99669 0.0
Fe743 Fe 1.02445 0.47018 0.02411 0.0
C744 C 0.97446 0.55624 0.043 0.0
O745 O 1.00174 0.587 0.97634 0.0
O746 O 0.95536 0.54606 0.95441 0.0
O747 O 0.05241 0.47258 0.98607 0.0
O748 O 0.10787 0.48234 1.01098 0.0
O749 O 0.11766 0.5587 0.99868 0.0
O750 O 0.06482 0.56057 0.96985 0.0
O751 O 0.94502 0.46208 0.97088 0.0
O752 O 0.98484 0.43092 1.00328 0.0
C753 C 0.09886 0.5673 0.97206 0.0
O754 O 0.05747 0.43737 0.05548 0.0
O755 O 0.10354 0.4779 0.07805 0.0
O756 O 1.00649 0.5531 0.0461 0.0
O757 O 0.95148 0.54432 0.02056 0.0
C758 C 0.97352 0.5785 0.95531 0.0
C759 C 0.95833 0.43405 0.98048 0.0
C760 C 0.96131 0.45906 0.06196 0.0
O761 O 0.94157 0.46806 0.03606 0.0
O762 O 0.99505 0.46399 0.06287 0.0
C763 C 0.08491 0.47131 0.98808 0.0
O764 O 0.11265 0.56182 0.06334 0.0
O765 O 0.07413 0.59353 0.02934 0.0
C766 C 0.08564 0.4455 0.07663 0.0
C767 C 0.09972 0.59005 0.05303 0.0
Fe768 Fe 0.52475 0.53013 0.97691 0.0
O769 O 0.56271 0.53703 0.01493 0.0
Fe770 Fe 0.44614 0.49255 1.01176 0.0
Fe771 Fe 0.61402 0.54036 1.01274 0.0
O772 O 0.49686 0.49315 1.00897 0.0
O773 O 0.49612 0.49297 1.01297 0.0
O774 O 0.56212 0.53524 0.01876 0.0
Fe775 Fe 0.5306 0.50186 0.05242 0.0
C776 C 0.57932 0.50279 0.95334 0.0
O777 O 0.55635 0.57097 0.94847 0.0
O778 O 0.60382 0.58771 0.98609 0.0
O779 O 0.51019 0.54362 0.05947 0.0
O780 O 0.45318 0.51633 0.05249 0.0
O781 O 0.4475 0.54155 0.98365 0.0
O782 O 0.5043 0.56898 0.98843 0.0
O783 O 0.62041 0.55073 0.06028 0.0
O784 O 0.57307 0.51683 0.08813 0.0
C785 C 0.47176 0.56951 0.9853 0.0
O786 O 0.49472 0.46614 0.08106 0.0
O787 O 0.44724 0.4461 0.04418 0.0
O788 O 0.54792 0.49442 0.96194 0.0
O789 O 0.60489 0.52458 0.96704 0.0
C790 C 0.58496 0.59293 0.95814 0.0
C791 C 0.60454 0.53791 0.08634 0.0
C792 C 0.57261 0.4717 0.03303 0.0
O793 O 0.57093 0.50386 0.02108 0.0
O794 O 0.54876 0.45735 0.05033 0.0
C795 C 0.47792 0.53984 0.06421 0.0
O796 O 0.44002 0.47395 0.96854 0.0
O797 O 0.4819 0.51642 0.94089 0.0
C798 C 0.46604 0.4433 0.07258 0.0
C799 C 0.45417 0.48996 0.94231 0.0
Fe800 Fe 0.04153 0.43452 0.52445 0.0
O801 O 0.05 0.48643 0.52197 0.0
Fe802 Fe 1.02309 0.51532 0.47972 0.0
Fe803 Fe 0.04096 0.50831 0.55794 0.0
O804 O 0.04845 0.48688 0.51758 0.0
O805 O 1.01414 0.53734 0.51561 0.0
O806 O 1.01581 0.53695 0.52 0.0
Fe807 Fe 1.02286 0.58939 0.5124 0.0
C808 C 0.98967 0.43746 0.57204 0.0
O809 O 0.08521 0.4405 0.55916 0.0
O810 O 0.07112 0.47378 0.59233 0.0
O811 O 0.05227 0.60176 0.47274 0.0
O812 O 0.07042 0.55274 0.4729 0.0
O813 O 0.0391 0.48794 0.44838 0.0
O814 O 0.06789 0.44765 0.48371 0.0
O815 O 0.08872 0.54611 0.55582 0.0
O816 O 0.0693 0.59658 0.54304 0.0
C817 C 0.06049 0.46595 0.45531 0.0
O818 O 0.97818 0.58254 0.47881 0.0
O819 O 0.99241 0.54928 0.44561 0.0
O820 O 1.01035 0.42156 0.563 0.0
O821 O 0.99345 0.47106 0.56427 0.0
C822 C 0.08952 0.45207 0.58655 0.0
C823 C 0.09338 0.57961 0.55507 0.0
C824 C 1.00555 0.55965 0.58266 0.0
O825 O 1.02521 0.53599 0.58935 0.0
O826 O 0.99822 0.57765 0.55409 0.0
C827 C 0.07324 0.58609 0.46394 0.0
O828 O 0.97557 0.47727 0.48182 0.0
O829 O 0.99637 0.4278 0.49219 0.0
C830 C 0.97356 0.57044 0.45162 0.0
C831 C 0.97196 0.44438 0.48032 0.0
Fe832 Fe 0.54864 0.93619 0.51882 0.0
O833 O 0.55181 0.98676 0.51794 0.0
Fe834 Fe 0.52168 0.01432 0.47723 0.0
Fe835 Fe 0.54163 1.00517 0.55549 0.0
O836 O 0.55068 0.9877 0.51352 0.0
O837 O 0.51168 0.03303 0.51474 0.0
O838 O 0.51311 0.0323 0.51916 0.0
Fe839 Fe 0.51591 0.08398 0.51392 0.0
C840 C 0.49697 0.93114 0.5694 0.0
O841 O 0.59259 0.94471 0.55264 0.0
O842 O 0.57509 0.9727 0.58811 0.0
O843 O 0.54438 0.10102 0.47396 0.0
O844 O 0.56614 0.05541 0.46949 0.0
O845 O 0.53878 0.98955 0.44396 0.0
O846 O 0.57365 0.95344 0.47721 0.0
O847 O 0.58656 0.04564 0.55204 0.0
O848 O 0.56267 0.09314 0.5444 0.0
C849 C 0.56249 0.96995 0.44907 0.0
O850 O 0.47135 0.07569 0.48041 0.0
O851 O 0.48755 0.04662 0.44488 0.0
O852 O 0.519 0.91868 0.5583 0.0
O853 O 0.49695 0.96423 0.56274 0.0
C854 C 0.595 0.95309 0.5812 0.0
C855 C 0.58863 0.07806 0.55396 0.0
C856 C 0.5025 0.05068 0.58382 0.0
O857 O 0.52532 0.0302 0.58888 0.0
O858 O 0.49152 0.06734 0.55575 0.0
C859 C 0.56607 0.08845 0.46263 0.0
O860 O 0.47701 0.9729 0.48102 0.0
O861 O 0.50321 0.92721 0.4876 0.0
C862 C 0.46807 0.06666 0.45193 0.0
C863 C 0.4767 0.94128 0.47751 0.0
C864 C 0.17994 0.15159 0.32242 0.0
C865 C 0.17474 0.18205 0.30065 0.0
C866 C 0.1574 0.13656 0.34632 0.0
C867 C 0.12764 0.15093 0.34661 0.0
C868 C 0.1201 0.17916 0.32216 0.0
C869 C 0.14458 0.19529 0.29998 0.0
C870 C 0.16715 0.10733 0.37271 0.0
C871 C 0.08738 0.19357 0.32048 0.0
C872 C 0.06617 0.09164 0.40441 0.0
C873 C 0.07533 0.1092 0.43144 0.0
C874 C 0.08068 0.10658 0.37544 0.0
C875 C 0.10679 0.13859 0.3744 0.0
C876 C 0.11592 0.15671 0.40155 0.0
C877 C 0.09922 0.14217 0.42959 0.0
C878 C 0.06881 0.08771 0.34632 0.0
C879 C 0.14508 0.18999 0.40186 0.0
H880 H 0.20365 0.1418 0.32285 0.0
H881 H 0.1407 0.21878 0.28276 0.0
H882 H 0.16966 0.11529 0.39693 0.0
H883 H 0.14601 0.08273 0.37235 0.0
H884 H 0.1926 0.1011 0.37 0.0
H885 H 0.08129 0.20928 0.29623 0.0
H886 H 0.06401 0.17167 0.32573 0.0
H887 H 0.09162 0.21117 0.33897 0.0
H888 H 0.04817 0.0658 0.40612 0.0
H889 H 0.10664 0.15532 0.45079 0.0
H890 H 0.09143 0.07967 0.33937 0.0
H891 H 0.05917 0.10607 0.32522 0.0
H892 H 0.0473 0.06363 0.35095 0.0
H893 H 0.17045 0.18422 0.39828 0.0
H894 H 0.14904 0.20062 0.42501 0.0
H895 H 0.13888 0.21093 0.38157 0.0
C896 C 0.85197 0.08917 0.3362 0.0
C897 C 0.85674 0.11716 0.31021 0.0
C898 C 0.87882 0.08632 0.36209 0.0
C899 C 0.91153 0.11177 0.3615 0.0
C900 C 0.91643 0.14034 0.33537 0.0
C901 C 0.88858 0.14306 0.31014 0.0
C902 C 0.87246 0.05533 0.38956 0.0
C903 C 0.95128 0.16724 0.33365 0.0
C904 C 0.96257 0.09796 0.44443 0.0
C905 C 0.97651 0.06964 0.44091 0.0
C906 C 0.94453 0.1159 0.41729 0.0
C907 C 0.94132 0.10522 0.38655 0.0
C908 C 0.96009 0.08025 0.38252 0.0
C909 C 0.97662 0.06205 0.40999 0.0
C910 C 0.9251 0.14273 0.42233 0.0
C911 C 0.95834 0.06882 0.35007 0.0
H912 H 0.82697 0.06969 0.33641 0.0
H913 H 0.89188 0.16496 0.29003 0.0
H914 H 0.88999 0.03709 0.38939 0.0
H915 H 0.87897 0.06485 0.41333 0.0
H916 H 0.84453 0.0399 0.38763 0.0
H917 H 0.95106 0.18722 0.31113 0.0
H918 H 0.9573 0.18115 0.355 0.0
H919 H 0.97323 0.15368 0.33452 0.0
H920 H 0.96246 0.10354 0.46854 0.0
H921 H 0.9873 0.03984 0.40754 0.0
H922 H 0.89695 0.12942 0.42486 0.0
H923 H 0.92538 0.16451 0.40123 0.0
H924 H 0.93683 0.15428 0.44471 0.0
H925 H 0.9325 0.05017 0.34501 0.0
H926 H 0.97986 0.05503 0.34982 0.0
H927 H 0.96025 0.09192 0.33014 0.0
C928 C 0.85824 0.8569 0.32389 0.0
C929 C 0.82775 0.8303 0.32984 0.0
C930 C 0.87804 0.8755 0.34872 0.0
C931 C 0.86685 0.86751 0.38017 0.0
C932 C 0.83465 0.84265 0.38553 0.0
C933 C 0.81553 0.82461 0.3604 0.0
C934 C 0.91193 0.9023 0.34177 0.0
C935 C 0.82146 0.83334 0.41848 0.0
C936 C 0.93801 0.87651 0.4529 0.0
C937 C 0.93527 0.90797 0.46223 0.0
C938 C 0.91576 0.86311 0.42645 0.0
C939 C 0.89042 0.88191 0.40835 0.0
C940 C 0.88707 0.91342 0.41796 0.0
C941 C 0.90934 0.92592 0.44498 0.0
C942 C 0.91981 0.82903 0.41755 0.0
C943 C 0.86072 0.93449 0.39912 0.0
H944 H 0.86747 0.86231 0.30034 0.0
H945 H 0.79144 0.8049 0.36529 0.0
H946 H 0.91295 0.9272 0.35085 0.0
H947 H 0.93501 0.89156 0.35476 0.0
H948 H 0.91472 0.9087 0.3154 0.0
H949 H 0.79422 0.81624 0.41782 0.0
H950 H 0.83956 0.81897 0.43599 0.0
H951 H 0.82146 0.85777 0.42788 0.0
H952 H 0.95812 0.86264 0.46603 0.0
H953 H 0.90762 0.95067 0.4516 0.0
H954 H 0.92703 0.83407 0.39247 0.0
H955 H 0.89421 0.80915 0.41799 0.0
H956 H 0.94046 0.81739 0.43434 0.0
H957 H 0.86698 0.94368 0.37375 0.0
H958 H 0.86089 0.95804 0.41005 0.0
H959 H 0.83352 0.91744 0.39796 0.0
C960 C 0.20858 0.97296 0.3372 0.0
C961 C 0.19437 0.938 0.33133 0.0
C962 C 0.19847 0.98561 0.36242 0.0
C963 C 0.17357 0.96274 0.38228 0.0
C964 C 0.15968 0.92722 0.37682 0.0
C965 C 0.17034 0.9153 0.35155 0.0
C966 C 0.21448 0.02339 0.36775 0.0
C967 C 0.13258 0.90207 0.39701 0.0
C968 C 0.15691 0.97583 0.46482 0.0
C969 C 0.12503 0.98731 0.45653 0.0
C970 C 0.17484 0.97042 0.44054 0.0
C971 C 0.16 0.97603 0.4075 0.0
C972 C 0.12917 0.99022 0.39909 0.0
C973 C 0.11205 0.99563 0.42377 0.0
C974 C 0.20824 0.95639 0.4504 0.0
C975 C 0.11272 0.99716 0.36422 0.0
H976 H 0.22763 0.99049 0.322 0.0
H977 H 0.15894 0.88841 0.34695 0.0
H978 H 0.19381 0.03667 0.37132 0.0
H979 H 0.23379 0.02324 0.39012 0.0
H980 H 0.22851 0.03937 0.34705 0.0
H981 H 0.12504 0.87509 0.3902 0.0
H982 H 0.14316 0.89973 0.42316 0.0
H983 H 0.10828 0.91274 0.39392 0.0
H984 H 0.16665 0.96909 0.49026 0.0
H985 H 0.0872 1.00435 0.41755 0.0
H986 H 0.22884 0.97118 0.43454 0.0
H987 H 0.20244 0.92806 0.4474 0.0
H988 H 0.21911 0.95839 0.47612 0.0
H989 H 0.13288 0.01412 0.34882 0.0
H990 H 0.09018 1.01041 0.36163 0.0
H991 H 0.10289 0.97163 0.35478 0.0
C992 C 0.27773 0.95837 0.64639 0.0
C993 C 0.28219 0.95454 0.68027 0.0
C994 C 0.24889 0.97109 0.62831 0.0
C995 C 0.22458 0.98026 0.64484 0.0
C996 C 0.23206 0.98123 0.67855 0.0
C997 C 0.26085 0.96799 0.69605 0.0
C998 C 0.24193 0.97004 0.59226 0.0
C999 C 0.20735 0.99197 0.69675 0.0
C1000 C 0.14718 1.01043 0.5909 0.0
C1001 C 0.12223 0.9781 0.59072 0.0
C1002 C 0.18011 1.01222 0.61002 0.0
C1003 C 0.18833 0.98064 0.62849 0.0
C1004 C 0.16269 0.94806 0.62915 0.0
C1005 C 0.12984 0.94722 0.61011 0.0
C1006 C 0.20667 0.04737 0.60905 0.0
C1007 C 0.17055 0.91373 0.64866 0.0
H1008 H 0.29445 0.94794 0.63437 0.0
H1009 H 0.26484 0.96529 0.72235 0.0
H1010 H 0.23248 0.9938 0.57876 0.0
H1011 H 0.26604 0.9685 0.5824 0.0
H1012 H 0.22081 0.94628 0.58769 0.0
H1013 H 0.22066 0.99883 0.72072 0.0
H1014 H 0.19725 0.01502 0.68244 0.0
H1015 H 0.18414 0.96956 0.70099 0.0
H1016 H 0.14175 0.03395 0.57472 0.0
H1017 H 0.1105 0.92224 0.60953 0.0
H1018 H 0.2189 0.05163 0.63396 0.0
H1019 H 0.19436 0.07006 0.59735 0.0
H1020 H 0.22835 0.0473 0.59515 0.0
H1021 H 0.19248 0.90698 0.63922 0.0
H1022 H 0.1471 0.89115 0.64764 0.0
H1023 H 0.17935 0.91677 0.67447 0.0
C1024 C 0.23746 0.17487 0.68915 0.0
C1025 C 0.22097 0.18626 0.71104 0.0
C1026 C 0.21749 0.15686 0.66417 0.0
C1027 C 0.17996 0.15051 0.66048 0.0
C1028 C 0.16309 0.16077 0.68327 0.0
C1029 C 0.18379 0.17833 0.7084 0.0
C1030 C 0.23666 0.14574 0.64102 0.0
C1031 C 0.12319 0.15485 0.68015 0.0
C1032 C 0.13055 0.14316 0.57539 0.0
C1033 C 0.11708 0.10647 0.57751 0.0
C1034 C 0.15126 0.15777 0.6021 0.0
C1035 C 0.1586 0.13511 0.63171 0.0
C1036 C 0.14523 0.09793 0.63375 0.0
C1037 C 0.12407 0.0842 0.60685 0.0
C1038 C 0.16459 0.19756 0.59888 0.0
C1039 C 0.15254 0.07269 0.66456 0.0
H1040 H 0.26622 0.18088 0.69107 0.0
H1041 H 0.17086 0.18763 0.72477 0.0
H1042 H 0.22629 0.11712 0.63958 0.0
H1043 H 0.23174 0.16075 0.61625 0.0
H1044 H 0.26578 0.15044 0.64846 0.0
H1045 H 0.11406 0.16194 0.70106 0.0
H1046 H 0.11368 0.17126 0.65751 0.0
H1047 H 0.11066 0.12666 0.6783 0.0
H1048 H 0.12416 0.16049 0.55303 0.0
H1049 H 0.11191 0.05609 0.60913 0.0
H1050 H 0.19397 0.20426 0.60408 0.0
H1051 H 0.15391 0.20783 0.61699 0.0
H1052 H 0.15679 0.21149 0.57424 0.0
H1053 H 0.18145 0.07755 0.67291 0.0
H1054 H 0.1429 0.04443 0.66126 0.0
H1055 H 0.13929 0.07736 0.6841 0.0
C1056 C 0.8477 0.05605 0.69146 0.0
C1057 C 0.86013 0.09184 0.6954 0.0
C1058 C 0.85661 0.04318 0.66579 0.0
C1059 C 0.87832 0.06669 0.64345 0.0
C1060 C 0.88967 0.10312 0.64653 0.0
C1061 C 0.88048 0.1152 0.67243 0.0
C1062 C 0.84365 1.00428 0.6631 0.0
C1063 C 0.91319 0.12907 0.62346 0.0
C1064 C 0.94287 0.03628 0.60374 0.0
C1065 C 0.92771 0.03936 0.57125 0.0
C1066 C 0.92585 0.04287 0.62786 0.0
C1067 C 0.8928 0.05292 0.61919 0.0
C1068 C 0.87622 0.05377 0.58665 0.0
C1069 C 0.89409 0.0472 0.56286 0.0
C1070 C 0.94456 0.04163 0.66217 0.0
C1071 C 0.84085 0.064 0.57655 0.0
H1072 H 0.83136 0.03796 0.70874 0.0
H1073 H 0.89055 0.14278 0.67542 0.0
H1074 H 0.82715 1.00138 0.63939 0.0
H1075 H 0.86649 0.99198 0.66391 0.0
H1076 H 0.8277 0.98935 0.6829 0.0
H1077 H 0.91746 0.15691 0.62764 0.0
H1078 H 0.93942 0.12199 0.62655 0.0
H1079 H 0.90139 0.12762 0.59791 0.0
H1080 H 0.96919 0.03073 0.60996 0.0
H1081 H 0.88275 0.05017 0.53756 0.0
H1082 H 0.92655 0.02483 0.67964 0.0
H1083 H 0.95215 0.06879 0.66852 0.0
H1084 H 0.96893 0.03102 0.6653 0.0
H1085 H 0.82194 0.0499 0.59423 0.0
H1086 H 0.82902 0.05798 0.55197 0.0
H1087 H 0.84439 0.09293 0.57623 0.0
C1088 C 0.8741 0.82535 0.6862 0.0
C1089 C 0.8804 0.82284 0.72011 0.0
C1090 C 0.90009 0.84454 0.66661 0.0
C1091 C 0.93344 0.86152 0.68124 0.0
C1092 C 0.94067 0.85791 0.71551 0.0
C1093 C 0.91396 0.83846 0.73464 0.0
C1094 C 0.89123 0.84772 0.63008 0.0
C1095 C 0.97608 0.87541 0.73189 0.0
C1096 C 0.99688 0.88873 0.61831 0.0
C1097 C 0.99131 0.92273 0.60487 0.0
C1098 C 0.98129 0.86961 0.64594 0.0
C1099 C 0.95926 0.88473 0.65992 0.0
C1100 C 0.95629 0.92025 0.64828 0.0
C1101 C 0.97259 0.93893 0.62099 0.0
C1102 C 0.98572 0.83207 0.65822 0.0
C1103 C 0.93286 0.93726 0.66243 0.0
H1104 H 0.84842 0.81308 0.67468 0.0
H1105 H 0.91926 0.83585 0.76087 0.0
H1106 H 0.89248 0.87598 0.61914 0.0
H1107 H 0.91092 0.83848 0.61968 0.0
H1108 H 0.86434 0.83202 0.62272 0.0
H1109 H 0.97913 0.86601 0.75854 0.0
H1110 H 0.99813 0.87022 0.72138 0.0
H1111 H 0.97865 0.9046 0.72768 0.0
H1112 H 1.01204 0.87638 0.60641 0.0
H1113 H 0.96852 0.96539 0.61103 0.0
H1114 H 0.9617 0.81315 0.64923 0.0
H1115 H 0.98865 0.82643 0.68518 0.0
H1116 H 1.00912 0.82704 0.64965 0.0
H1117 H 0.90458 0.92487 0.65556 0.0
H1118 H 0.93701 0.96625 0.65347 0.0
H1119 H 0.93788 0.93288 0.68934 0.0
C1120 C 0.34885 0.14442 0.0922 0.0
C1121 C 0.33344 0.13064 0.12103 0.0
C1122 C 0.37381 0.12895 0.0834 0.0
C1123 C 0.38372 0.09908 0.10404 0.0
C1124 C 0.36965 0.08613 0.13396 0.0
C1125 C 0.34453 0.102 0.14206 0.0
C1126 C 0.38817 0.14344 0.05118 0.0
C1127 C 0.37963 0.05435 0.15658 0.0
C1128 C 0.40697 0.03711 0.05747 0.0
C1129 C 0.44415 0.0473 0.06053 0.0
C1130 C 0.38717 0.05237 0.07312 0.0
C1131 C 0.40495 0.07882 0.09211 0.0
C1132 C 0.44256 0.0878 0.09697 0.0
C1133 C 0.46183 0.07178 0.08113 0.0
C1134 C 0.34711 0.04161 0.06769 0.0
C1135 C 0.46235 0.11564 0.11739 0.0
H1136 H 0.34092 0.16701 0.0762 0.0
H1137 H 0.33257 0.09104 0.16429 0.0
H1138 H 0.41757 0.14826 0.05451 0.0
H1139 H 0.37809 0.12363 0.0345 0.0
H1140 H 0.38027 0.16863 0.03935 0.0
H1141 H 0.37051 0.05086 0.1808 0.0
H1142 H 0.36741 0.02992 0.14584 0.0
H1143 H 0.40882 0.05699 0.15989 0.0
H1144 H 0.39313 0.01786 0.0419 0.0
H1145 H 0.49057 0.07976 0.0836 0.0
H1146 H 0.33633 0.0643 0.05338 0.0
H1147 H 0.33604 0.03453 0.09125 0.0
H1148 H 0.33759 0.01861 0.05444 0.0
H1149 H 0.45898 0.14223 0.10449 0.0
H1150 H 0.49121 0.11606 0.12236 0.0
H1151 H 0.45138 0.11095 0.14086 0.0
C1152 C 0.8202 0.34487 0.1826 0.0
C1153 C 0.8301 0.34741 0.21569 0.0
C1154 C 0.8434 0.362 0.15897 0.0
C1155 C 0.8769 0.38403 0.16806 0.0
C1156 C 0.8864 0.38764 0.20138 0.0
C1157 C 0.86309 0.36929 0.22463 0.0
C1158 C 0.83186 0.35654 0.12415 0.0
C1159 C 0.92083 0.41181 0.21241 0.0
C1160 C 0.94978 0.40989 0.11031 0.0
C1161 C 0.9431 0.44172 0.09156 0.0
C1162 C 0.92887 0.39105 0.13533 0.0
C1163 C 0.90098 0.4046 0.14257 0.0
C1164 C 0.89552 0.43772 0.12461 0.0
C1165 C 0.91596 0.45531 0.09912 0.0
C1166 C 0.93555 0.35565 0.15273 0.0
C1167 C 0.86766 0.45452 0.13197 0.0
H1168 H 0.79414 0.32938 0.17513 0.0
H1169 H 0.87048 0.37252 0.24992 0.0
H1170 H 0.82674 0.38161 0.10905 0.0
H1171 H 0.85326 0.34931 0.11431 0.0
H1172 H 0.80732 0.33539 0.12162 0.0
H1173 H 0.92447 0.41192 0.23902 0.0
H1174 H 0.94358 0.40341 0.20609 0.0
H1175 H 0.92152 0.43937 0.19955 0.0
H1176 H 0.97024 0.39878 0.10439 0.0
H1177 H 0.91055 0.4799 0.08485 0.0
H1178 H 0.91414 0.33432 0.1436 0.0
H1179 H 0.93502 0.35304 0.17925 0.0
H1180 H 0.96142 0.35151 0.14854 0.0
H1181 H 0.84096 0.43847 0.12492 0.0
H1182 H 0.86946 0.48212 0.11872 0.0
H1183 H 0.87029 0.45495 0.15844 0.0
C1184 C 0.67559 0.78819 0.19557 0.0
C1185 C 0.70994 0.79997 0.21135 0.0
C1186 C 0.65628 0.81177 0.17501 0.0
C1187 C 0.67174 0.84863 0.16841 0.0
C1188 C 0.70675 0.86082 0.1838 0.0
C1189 C 0.7249 0.83668 0.20568 0.0
C1190 C 0.61877 0.7971 0.16082 0.0
C1191 C 0.72523 0.89943 0.17692 0.0
C1192 C 0.62894 0.9006 0.09059 0.0
C1193 C 0.60928 0.91947 0.10294 0.0
C1194 C 0.64993 0.87849 0.1114 0.0
C1195 C 0.65091 0.87397 0.14578 0.0
C1196 C 0.63043 0.89249 0.15829 0.0
C1197 C 0.61068 0.9154 0.13692 0.0
C1198 C 0.67215 0.86096 0.09647 0.0
C1199 C 0.62867 0.88753 0.19434 0.0
H1200 H 0.6632 0.76012 0.19994 0.0
H1201 H 0.75084 0.84657 0.21821 0.0
H1202 H 0.60033 0.81119 0.16749 0.0
H1203 H 0.61679 0.80164 0.13391 0.0
H1204 H 0.60981 0.76817 0.16942 0.0
H1205 H 0.75277 0.90467 0.18955 0.0
H1206 H 0.72621 0.90777 0.15037 0.0
H1207 H 0.7101 0.91614 0.18468 0.0
H1208 H 0.62904 0.90426 0.0645 0.0
H1209 H 0.59604 0.93009 0.14687 0.0
H1210 H 0.66666 0.83191 0.10527 0.0
H1211 H 0.70062 0.87171 0.10409 0.0
H1212 H 0.66743 0.86559 0.06948 0.0
H1213 H 0.61433 0.90594 0.20063 0.0
H1214 H 0.65571 0.89159 0.20794 0.0
H1215 H 0.6147 0.85985 0.20273 0.0
C1216 C 0.21005 0.68421 0.19243 0.0
C1217 C 0.21795 0.72141 0.18853 0.0
C1218 C 0.18921 0.66625 0.16792 0.0
C1219 C 0.17573 0.68595 0.13884 0.0
C1220 C 0.1835 0.72348 0.13472 0.0
C1221 C 0.20483 0.74079 0.15949 0.0
C1222 C 0.18165 0.62612 0.17316 0.0
C1223 C 0.1694 0.74533 0.10416 0.0
C1224 C 0.1531 0.63474 0.06849 0.0
C1225 C 0.1168 0.62046 0.06958 0.0
C1226 C 0.17223 0.65815 0.08953 0.0
C1227 C 0.15458 0.66689 0.1125 0.0
C1228 C 0.11746 0.65385 0.11256 0.0
C1229 C 0.09891 0.63074 0.09091 0.0
C1230 C 0.21177 0.67139 0.08874 0.0
C1231 C 0.09776 0.66266 0.13669 0.0
H1232 H 0.22009 0.66897 0.21468 0.0
H1233 H 0.21134 0.76955 0.15595 0.0
H1234 H 0.15256 0.61512 0.17117 0.0
H1235 H 0.19202 0.61714 0.15404 0.0
H1236 H 0.19383 0.61479 0.19729 0.0
H1237 H 0.17781 0.77433 0.10481 0.0
H1238 H 0.17876 0.73976 0.08269 0.0
H1239 H 0.13996 0.73783 0.10072 0.0
H1240 H 0.16684 0.62625 0.05215 0.0
H1241 H 0.07105 0.61881 0.09225 0.0
H1242 H 0.2261 0.65856 0.11094 0.0
H1243 H 0.21954 0.7005 0.08862 0.0
H1244 H 0.22065 0.66544 0.06715 0.0
H1245 H 0.1105 0.65589 0.16184 0.0
H1246 H 0.06949 0.64821 0.13517 0.0
H1247 H 0.0989 0.69164 0.13218 0.0
C1248 C 0.40108 0.77026 0.86246 0.0
C1249 C 0.36417 0.76739 0.85735 0.0
C1250 C 0.42301 0.79121 0.88473 0.0
C1251 C 0.40761 0.80891 0.90302 0.0
C1252 C 0.37009 0.8023 0.90081 0.0
C1253 C 0.34896 0.78156 0.87817 0.0
C1254 C 0.46276 0.79668 0.88669 0.0
C1255 C 0.35216 0.81936 0.92051 0.0
C1256 C 0.46061 0.86042 0.97036 0.0
C1257 C 0.46487 0.89567 0.95412 0.0
C1258 C 0.44321 0.83158 0.95395 0.0
C1259 C 0.43009 0.83813 0.92047 0.0
C1260 C 0.43621 0.87357 0.90371 0.0
C1261 C 0.45324 0.90171 0.92068 0.0
C1262 C 0.43719 0.79433 0.97286 0.0
C1263 C 0.42331 0.88202 0.86797 0.0
H1264 H 0.4132 0.75797 0.84777 0.0
H1265 H 0.32039 0.7773 0.8761 0.0
H1266 H 0.47373 0.82355 0.87367 0.0
H1267 H 0.47521 0.79523 0.91232 0.0
H1268 H 0.4704 0.77674 0.8755 0.0
H1269 H 0.32329 0.80726 0.91994 0.0
H1270 H 0.36453 0.81704 0.94617 0.0
H1271 H 0.35545 0.84809 0.91053 0.0
H1272 H 0.46917 0.85546 0.99624 0.0
H1273 H 0.45664 0.92878 0.90782 0.0
H1274 H 0.44286 0.77558 0.95896 0.0
H1275 H 0.4089 0.78523 0.9771 0.0
H1276 H 0.45388 0.7929 0.99681 0.0
H1277 H 0.43292 0.86595 0.8539 0.0
H1278 H 0.43234 0.91058 0.85797 0.0
H1279 H 0.39385 0.87502 0.86421 0.0
C1280 C 0.13313 0.38885 0.84596 0.0
C1281 C 0.1476 0.35894 0.85868 0.0
C1282 C 0.12456 0.40891 0.86644 0.0
C1283 C 0.13074 0.39908 0.90058 0.0
C1284 C 0.14652 0.36973 0.91362 0.0
C1285 C 0.15473 0.35002 0.89255 0.0
C1286 C 0.10797 0.4401 0.8515 0.0
C1287 C 0.15355 0.35833 0.94988 0.0
C1288 C 0.13064 0.46531 0.9556 0.0
C1289 C 0.09615 0.45404 0.96453 0.0
C1290 C 0.14218 0.44804 0.93449 0.0
C1291 C 0.11891 0.41827 0.92259 0.0
C1292 C 0.08411 0.4067 0.93175 0.0
C1293 C 0.07306 0.42498 0.95229 0.0
C1294 C 0.17934 0.46146 0.92515 0.0
C1295 C 0.05857 0.37483 0.92006 0.0
H1296 H 0.12814 0.39642 0.81985 0.0
H1297 H 0.16556 0.32682 0.90267 0.0
H1298 H 0.08058 0.43471 0.85799 0.0
H1299 H 0.12322 0.46432 0.86134 0.0
H1300 H 0.1068 0.44558 0.82459 0.0
H1301 H 0.16785 0.33632 0.95618 0.0
H1302 H 0.16948 0.38111 0.96152 0.0
H1303 H 0.12801 0.34942 0.96039 0.0
H1304 H 0.14859 0.48782 0.96503 0.0
H1305 H 0.04668 0.41577 0.95968 0.0
H1306 H 0.17846 0.46767 0.8983 0.0
H1307 H 0.19472 0.44049 0.93376 0.0
H1308 H 0.19369 0.48568 0.93554 0.0
H1309 H 0.05092 0.38106 0.89347 0.0
H1310 H 0.03415 0.36683 0.93236 0.0
H1311 H 0.07136 0.35183 0.92441 0.0
C1312 C 0.68115 0.17295 0.81368 0.0
C1313 C 0.71324 0.19786 0.81877 0.0
C1314 C 0.66455 0.15051 0.83988 0.0
C1315 C 0.67894 0.15436 0.87241 0.0
C1316 C 0.71156 0.17945 0.87769 0.0
C1317 C 0.72857 0.20035 0.85092 0.0
C1318 C 0.63129 0.12285 0.83264 0.0
C1319 C 0.72777 0.18538 0.91163 0.0
C1320 C 0.61126 0.1244 0.93479 0.0
C1321 C 0.61976 0.09278 0.95233 0.0
C1322 C 0.63091 0.14507 0.9096 0.0
C1323 C 0.659 0.13331 0.90056 0.0
C1324 C 0.66715 0.10097 0.918 0.0
C1325 C 0.64793 0.08155 0.94383 0.0
C1326 C 0.62192 0.17991 0.89297 0.0
C1327 C 0.69534 0.086 0.90877 0.0
H1328 H 0.66904 0.17089 0.78895 0.0
H1329 H 0.75299 0.21994 0.85518 0.0
H1330 H 0.63377 0.09656 0.847 0.0
H1331 H 0.60821 0.12985 0.83984 0.0
H1332 H 0.62572 0.1204 0.80645 0.0
H1333 H 0.75307 0.20581 0.91179 0.0
H1334 H 0.70881 0.19396 0.92358 0.0
H1335 H 0.73301 0.16022 0.92643 0.0
H1336 H 0.58982 0.13351 0.94142 0.0
H1337 H 0.65449 0.05698 0.95706 0.0
H1338 H 0.61187 0.17856 0.86704 0.0
H1339 H 0.64616 0.20162 0.89366 0.0
H1340 H 0.60149 0.18683 0.90445 0.0
H1341 H 0.68529 0.07565 0.88559 0.0
H1342 H 0.70237 0.064 0.92756 0.0
H1343 H 0.71976 0.10686 0.90488 0.0
C1344 C 0.87642 0.72508 0.8297 0.0
C1345 C 0.83968 0.71134 0.8298 0.0
C1346 C 0.90167 0.70773 0.8505 0.0
C1347 C 0.89024 0.67582 0.87233 0.0
C1348 C 0.85312 0.66294 0.87335 0.0
C1349 C 0.82863 0.68035 0.85196 0.0
C1350 C 0.94062 0.72271 0.84795 0.0
C1351 C 0.83904 0.62995 0.89654 0.0
C1352 C 0.94325 0.60225 0.90065 0.0
C1353 C 0.958 0.6072 0.93255 0.0
C1354 C 0.92326 0.62552 0.8804 0.0
C1355 C 0.91629 0.65423 0.89231 0.0
C1356 C 0.9318 0.65986 0.92432 0.0
C1357 C 0.95273 0.63675 0.94375 0.0
C1358 C 0.90839 0.61845 0.84645 0.0
C1359 C 0.92482 0.6893 0.93873 0.0
H1360 H 0.88547 0.74864 0.81246 0.0
H1361 H 0.8004 0.66933 0.8523 0.0
H1362 H 0.95561 0.72476 0.8724 0.0
H1363 H 0.95126 0.70446 0.83718 0.0
H1364 H 0.94556 0.74939 0.83261 0.0
H1365 H 0.80992 0.62531 0.89684 0.0
H1366 H 0.84483 0.60644 0.88942 0.0
H1367 H 0.85245 0.63202 0.92157 0.0
H1368 H 0.94678 0.57951 0.89164 0.0
H1369 H 0.96323 0.64061 0.96848 0.0
H1370 H 0.91435 0.64325 0.82863 0.0
H1371 H 0.87909 0.60936 0.84485 0.0
H1372 H 0.9193 0.59785 0.83938 0.0
H1373 H 0.93356 0.71525 0.92322 0.0
H1374 H 0.93869 0.69052 0.96375 0.0
H1375 H 0.89587 0.68534 0.93948 0.0
C1376 C 0.22802 0.33666 0.17726 0.0
C1377 C 0.21608 0.30613 0.19961 0.0
C1378 C 0.20429 0.35537 0.15614 0.0
C1379 C 0.16711 0.34459 0.15784 0.0
C1380 C 0.15476 0.31325 0.18 0.0
C1381 C 0.17918 0.29441 0.20036 0.0
C1382 C 0.21935 0.38751 0.13252 0.0
C1383 C 0.11576 0.3005 0.18343 0.0
C1384 C 0.11779 0.42149 0.13047 0.0
C1385 C 0.10126 0.41646 0.09899 0.0
C1386 C 0.13735 0.39745 0.15023 0.0
C1387 C 0.14206 0.36774 0.13826 0.0
C1388 C 0.12486 0.36219 0.10666 0.0
C1389 C 0.10442 0.38609 0.08777 0.0
C1390 C 0.15398 0.4046 0.18378 0.0
C1391 C 0.1295 0.33193 0.092 0.0
H1392 H 0.25638 0.34629 0.17656 0.0
H1393 H 0.16946 0.27139 0.21789 0.0
H1394 H 0.20486 0.38597 0.10779 0.0
H1395 H 0.2159 0.41189 0.13992 0.0
H1396 H 0.24806 0.39012 0.13137 0.0
H1397 H 0.10987 0.27434 0.19949 0.0
H1398 H 0.10679 0.32023 0.19375 0.0
H1399 H 0.10007 0.29821 0.15929 0.0
H1400 H 0.11589 0.4448 0.13958 0.0
H1401 H 0.09257 0.38205 0.06337 0.0
H1402 H 0.1833 0.41221 0.1845 0.0
H1403 H 0.14751 0.3802 0.20195 0.0
H1404 H 0.1449 0.42628 0.19103 0.0
H1405 H 0.15802 0.33516 0.08979 0.0
H1406 H 0.11412 0.33054 0.06757 0.0
H1407 H 0.12091 0.3064 0.10814 0.0
C1408 C 0.23874 0.69904 0.85791 0.0
C1409 C 0.24077 0.68646 0.82958 0.0
C1410 C 0.21193 0.68207 0.87817 0.0
C1411 C 0.18716 0.65066 0.87086 0.0
C1412 C 0.18894 0.63824 0.84188 0.0
C1413 C 0.21566 0.65611 0.82181 0.0
C1414 C 0.21111 0.69699 0.90823 0.0
C1415 C 0.16389 0.60478 0.83298 0.0
C1416 C 0.1537 0.58257 0.94371 0.0
C1417 C 0.11897 0.58669 0.94382 0.0
C1418 C 0.17549 0.60272 0.92011 0.0
C1419 C 0.16287 0.62831 0.89546 0.0
C1420 C 0.12751 0.63217 0.89481 0.0
C1421 C 0.10599 0.61133 0.91884 0.0
C1422 C 0.21254 0.59699 0.92204 0.0
C1423 C 0.11283 0.65935 0.86955 0.0
H1424 H 0.25866 0.72184 0.86463 0.0
H1425 H 0.21782 0.64545 0.80059 0.0
H1426 H 0.18367 0.6988 0.91004 0.0
H1427 H 0.21965 0.67893 0.93011 0.0
H1428 H 0.22887 0.72378 0.90835 0.0
H1429 H 0.1658 0.60087 0.80804 0.0
H1430 H 0.17024 0.58151 0.85043 0.0
H1431 H 0.13608 0.60548 0.83464 0.0
H1432 H 0.16426 0.5636 0.96258 0.0
H1433 H 0.07951 0.61526 0.91869 0.0
H1434 H 0.2322 0.6205 0.92949 0.0
H1435 H 0.21769 0.59418 0.89781 0.0
H1436 H 0.2169 0.57304 0.93964 0.0
H1437 H 0.12548 0.68625 0.8754 0.0
H1438 H 0.08362 0.65538 0.86875 0.0
H1439 H 0.11908 0.6585 0.84507 0.0
C1440 C 0.38354 0.22517 0.84032 0.0
C1441 C 0.34898 0.21317 0.82502 0.0
C1442 C 0.40297 0.20197 0.86132 0.0
C1443 C 0.38764 0.16514 0.86865 0.0
C1444 C 0.35228 0.15277 0.85403 0.0
C1445 C 0.33381 0.17657 0.83188 0.0
C1446 C 0.4405 0.217 0.87523 0.0
C1447 C 0.33371 0.11435 0.86211 0.0
C1448 C 0.44993 0.09911 0.89798 0.0
C1449 C 0.45314 0.09541 0.93208 0.0
C1450 C 0.42919 0.12163 0.87736 0.0
C1451 C 0.40931 0.14005 0.89073 0.0
C1452 C 0.41215 0.13596 0.92527 0.0
C1453 C 0.43412 0.11423 0.94528 0.0
C1454 C 0.42887 0.12598 0.84106 0.0
C1455 C 0.39069 0.15315 0.94141 0.0
H1456 H 0.39601 0.25318 0.83524 0.0
H1457 H 0.30764 0.16648 0.81989 0.0
H1458 H 0.44258 0.21288 0.90214 0.0
H1459 H 0.45899 0.20282 0.86875 0.0
H1460 H 0.44931 0.24587 0.86627 0.0
H1461 H 0.306 0.10888 0.8499 0.0
H1462 H 0.34849 0.09702 0.8548 0.0
H1463 H 0.3332 0.10703 0.8888 0.0
H1464 H 0.46391 0.08439 0.88733 0.0
H1465 H 0.43522 0.11076 0.9715 0.0
H1466 H 0.4374 0.15455 0.83091 0.0
H1467 H 0.40153 0.11645 0.82945 0.0
H1468 H 0.44664 0.11115 0.83432 0.0
H1469 H 0.39058 0.18075 0.92915 0.0
H1470 H 0.40072 0.15351 0.96754 0.0
H1471 H 0.36281 0.13773 0.93968 0.0
C1472 C 0.85121 0.284 0.87287 0.0
C1473 C 0.83705 0.30346 0.84439 0.0
C1474 C 0.87277 0.30119 0.89771 0.0
C1475 C 0.87967 0.33868 0.89435 0.0
C1476 C 0.86497 0.35841 0.86592 0.0
C1477 C 0.84397 0.34061 0.84133 0.0
C1478 C 0.88829 0.27928 0.92745 0.0
C1479 C 0.87177 0.39847 0.86128 0.0
C1480 C 0.90471 0.38888 0.96575 0.0
C1481 C 0.94084 0.40363 0.9638 0.0
C1482 C 0.88498 0.36567 0.94467 0.0
C1483 C 0.90168 0.3577 0.92057 0.0
C1484 C 0.93862 0.37143 0.91942 0.0
C1485 C 0.95786 0.39405 0.94134 0.0
C1486 C 0.84573 0.3517 0.94675 0.0
C1487 C 0.95754 0.36362 0.89416 0.0
H1488 H 0.84543 0.25528 0.87586 0.0
H1489 H 0.83314 0.356 0.81957 0.0
H1490 H 0.9177 0.28733 0.92981 0.0
H1491 H 0.8798 0.28425 0.94961 0.0
H1492 H 0.88019 0.25034 0.92647 0.0
H1493 H 0.8583 0.40987 0.83781 0.0
H1494 H 0.86236 0.4068 0.88134 0.0
H1495 H 0.90073 0.40998 0.86208 0.0
H1496 H 0.89153 0.3968 0.98289 0.0
H1497 H 0.98561 0.40613 0.93942 0.0
H1498 H 0.8383 0.32265 0.94654 0.0
H1499 H 0.83044 0.36452 0.92522 0.0
H1500 H 0.83767 0.35704 0.969 0.0
H1501 H 0.96136 0.33599 0.90092 0.0
H1502 H 0.98392 0.38196 0.89215 0.0
H1503 H 0.94169 0.36582 0.86985 0.0
C1504 C 0.74321 0.95211 0.89394 0.0
C1505 C 0.74029 0.91653 0.8912 0.0
C1506 C 0.71685 0.96233 0.90643 0.0
C1507 C 0.68696 0.9363 0.91662 0.0
C1508 C 0.68296 0.90066 0.9123 0.0
C1509 C 0.70968 0.8912 0.89963 0.0
C1510 C 0.7218 1.0007 0.91011 0.0
C1511 C 0.65152 0.8721 0.92286 0.0
C1512 C 0.65118 0.95284 0.98876 0.0
C1513 C 0.62085 0.96554 0.97429 0.0
C1514 C 0.67224 0.94256 0.97025 0.0
C1515 C 0.66304 0.94527 0.93621 0.0
C1516 C 0.63198 0.95729 0.92139 0.0
C1517 C 0.61104 0.96716 0.94071 0.0
C1518 C 0.70485 0.92949 0.98719 0.0
C1519 C 0.62143 0.96065 0.88515 0.0
H1520 H 0.76645 0.97191 0.88677 0.0
H1521 H 0.70731 0.86363 0.89764 0.0
H1522 H 0.69784 1.01066 0.89849 0.0
H1523 H 0.72518 1.00292 0.93627 0.0
H1524 H 0.74528 0.01806 0.8991 0.0
H1525 H 0.6499 0.84691 0.91395 0.0
H1526 H 0.65373 0.86662 0.9498 0.0
H1527 H 0.62642 0.88109 0.91393 0.0
H1528 H 0.65866 0.95107 0.0148 0.0
H1529 H 0.58771 0.97712 0.92945 0.0
H1530 H 0.72902 0.94783 0.9783 0.0
H1531 H 0.70399 0.90291 0.9815 0.0
H1532 H 0.70739 0.92759 1.01403 0.0
H1533 H 0.64086 0.98251 0.87262 0.0
H1534 H 0.59458 0.9664 0.87791 0.0
H1535 H 0.62185 0.93589 0.87649 0.0
C1536 C 0.92012 0.67757 0.1527 0.0
C1537 C 0.90623 0.70433 0.13126 0.0
C1538 C 0.93143 0.65146 0.14102 0.0
C1539 C 0.92871 0.65197 0.10707 0.0
C1540 C 0.91412 0.67853 0.08535 0.0
C1541 C 0.90308 0.70427 0.09768 0.0
C1542 C 0.9468 0.62364 0.16498 0.0
C1543 C 0.91053 0.68004 0.04899 0.0
C1544 C 0.98789 0.60911 0.07133 0.0
C1545 C 0.96422 0.57816 0.0632 0.0
C1546 C 0.97699 0.63287 0.08644 0.0
C1547 C 0.94163 0.62528 0.09401 0.0
C1548 C 0.91801 0.59331 0.08695 0.0
C1549 C 0.92947 0.57037 0.07131 0.0
C1550 C 1.00293 0.66682 0.09308 0.0
C1551 C 0.88019 0.58394 0.09476 0.0
H1552 H 0.92297 0.67753 0.17865 0.0
H1553 H 0.89185 0.72442 0.0809 0.0
H1554 H 0.93209 0.59667 0.16067 0.0
H1555 H 0.97485 0.62619 0.16145 0.0
H1556 H 0.94583 0.62597 0.19058 0.0
H1557 H 0.89837 0.70216 0.03537 0.0
H1558 H 0.93704 0.68345 0.04113 0.0
H1559 H 0.89396 0.65467 0.04221 0.0
H1560 H 1.01436 0.61574 0.06419 0.0
H1561 H 0.911 0.54656 0.06489 0.0
H1562 H 1.0068 0.66798 0.11948 0.0
H1563 H 0.99215 0.69013 0.08038 0.0
H1564 H 1.02916 0.66921 0.08501 0.0
H1565 H 0.87955 0.5862 0.12041 0.0
H1566 H 0.86633 0.55659 0.09074 0.0
H1567 H 0.86524 0.60294 0.0792 0.0
C1568 C 0.32891 0.82551 0.18026 0.0
C1569 C 0.34412 0.82682 0.2126 0.0
C1570 C 0.34719 0.84555 0.15393 0.0
C1571 C 0.38125 0.86819 0.15991 0.0
C1572 C 0.39564 0.87091 0.19262 0.0
C1573 C 0.3774 0.84973 0.21835 0.0
C1574 C 0.33074 0.8412 0.11972 0.0
C1575 C 0.43079 0.89577 0.20057 0.0
C1576 C 0.4494 0.89206 0.09822 0.0
C1577 C 0.44424 0.92517 0.08128 0.0
C1578 C 0.42852 0.87295 0.1231 0.0
C1579 C 0.40264 0.88778 0.13233 0.0
C1580 C 0.39818 0.92175 0.11573 0.0
C1581 C 0.41829 0.93946 0.09004 0.0
C1582 C 0.43383 0.83656 0.13923 0.0
C1583 C 0.37232 0.93969 0.12514 0.0
H1584 H 0.30349 0.8075 0.17553 0.0
H1585 H 0.38939 0.85087 0.24325 0.0
H1586 H 0.32805 0.86733 0.10525 0.0
H1587 H 0.34833 0.8307 0.10781 0.0
H1588 H 0.30412 0.82288 0.119 0.0
H1589 H 0.43661 0.89762 0.22689 0.0
H1590 H 0.45249 0.88639 0.19344 0.0
H1591 H 0.43093 0.92279 0.18658 0.0
H1592 H 0.46905 0.88059 0.09131 0.0
H1593 H 0.41406 0.96491 0.07698 0.0
H1594 H 0.40813 0.81684 0.13754 0.0
H1595 H 0.44337 0.83666 0.16541 0.0
H1596 H 0.45329 0.82775 0.12806 0.0
H1597 H 0.34481 0.92493 0.11876 0.0
H1598 H 0.37497 0.96766 0.11264 0.0
H1599 H 0.37647 0.93946 0.15179 0.0
C1600 C 0.71305 0.22456 0.16687 0.0
C1601 C 0.69775 0.24025 0.18655 0.0
C1602 C 0.69198 0.20301 0.14475 0.0
C1603 C 0.65442 0.19676 0.14194 0.0
C1604 C 0.6388 0.21365 0.16078 0.0
C1605 C 0.66058 0.2351 0.18279 0.0
C1606 C 0.71001 0.18564 0.12538 0.0
C1607 C 0.59899 0.20789 0.15866 0.0
C1608 C 0.60355 0.15252 0.06931 0.0
C1609 C 0.59773 0.11642 0.08312 0.0
C1610 C 0.62065 0.17926 0.08833 0.0
C1611 C 0.63191 0.1697 0.12195 0.0
C1612 C 0.62403 0.13341 0.13621 0.0
C1613 C 0.60725 0.10742 0.11672 0.0
C1614 C 0.62839 0.21756 0.07208 0.0
C1615 C 0.63501 0.1217 0.17187 0.0
H1616 H 0.74167 0.22831 0.16929 0.0
H1617 H 0.6483 0.24712 0.19759 0.0
H1618 H 0.70397 0.15645 0.13353 0.0
H1619 H 0.69977 0.19052 0.09921 0.0
H1620 H 0.73931 0.1955 0.12815 0.0
H1621 H 0.59099 0.22569 0.17215 0.0
H1622 H 0.58715 0.21242 0.13291 0.0
H1623 H 0.58766 0.17994 0.16894 0.0
H1624 H 0.59661 0.15975 0.04338 0.0
H1625 H 0.60264 0.07963 0.12771 0.0
H1626 H 0.65737 0.22703 0.0709 0.0
H1627 H 0.6205 0.23455 0.08644 0.0
H1628 H 0.61439 0.22118 0.04699 0.0
H1629 H 0.66442 0.12722 0.1768 0.0
H1630 H 0.62446 0.09288 0.17979 0.0
H1631 H 0.62559 0.1369 0.1869 0.0
C1632 C 0.69296 0.74796 0.83744 0.0
C1633 C 0.70071 0.72979 0.81503 0.0
C1634 C 0.66682 0.73143 0.85797 0.0
C1635 C 0.64932 0.69559 0.85676 0.0
C1636 C 0.65492 0.67833 0.83225 0.0
C1637 C 0.68022 0.69598 0.81133 0.0
C1638 C 0.66008 0.75131 0.88263 0.0
C1639 C 0.63721 0.63993 0.83033 0.0
C1640 C 0.63746 0.63378 0.93604 0.0
C1641 C 0.60042 0.62312 0.9344 0.0
C1642 C 0.65357 0.65848 0.91141 0.0
C1643 C 0.63207 0.67383 0.88494 0.0
C1644 C 0.59467 0.66517 0.88425 0.0
C1645 C 0.57914 0.63919 0.90877 0.0
C1646 C 0.69358 0.66631 0.91279 0.0
C1647 C 0.57098 0.68206 0.8571 0.0
H1648 H 0.70809 0.77463 0.83969 0.0
H1649 H 0.68578 0.68213 0.79382 0.0
H1650 H 0.63142 0.74486 0.88564 0.0
H1651 H 0.67484 0.74328 0.90657 0.0
H1652 H 0.66901 0.78053 0.87556 0.0
H1653 H 0.64143 0.63178 0.80778 0.0
H1654 H 0.64822 0.62261 0.85153 0.0
H1655 H 0.60827 0.63521 0.83128 0.0
H1656 H 0.65402 0.62118 0.95567 0.0
H1657 H 0.55047 0.63114 0.90765 0.0
H1658 H 0.7048 0.69522 0.91166 0.0
H1659 H 0.70091 0.65818 0.89154 0.0
H1660 H 0.7063 0.65218 0.93527 0.0
H1661 H 0.58348 0.71025 0.8487 0.0
H1662 H 0.54479 0.68075 0.86478 0.0
H1663 H 0.56623 0.66765 0.83615 0.0
C1664 C 0.32207 0.6497 0.91196 0.0
C1665 C 0.30932 0.61362 0.90896 0.0
C1666 C 0.35052 0.65978 0.9356 0.0
C1667 C 0.36621 0.63309 0.95552 0.0
C1668 C 0.34681 0.59719 0.95824 0.0
C1669 C 0.3185 0.58777 0.93444 0.0
C1670 C 0.36713 0.69864 0.93556 0.0
C1671 C 0.36 0.56763 0.98173 0.0
C1672 C 0.45002 0.61475 0.94461 0.0
C1673 C 0.46093 0.60342 0.97717 0.0
C1674 C 0.42252 0.63294 0.93614 0.0
C1675 C 0.40553 0.63882 0.96127 0.0
C1676 C 0.42262 0.63533 0.9935 0.0
C1677 C 0.45012 0.61682 1.00132 0.0
C1678 C 0.40762 0.63911 0.90074 0.0
C1679 C 0.40878 0.64682 0.02003 0.0
H1680 H 0.31319 0.66999 0.89337 0.0
H1681 H 0.30752 0.55987 0.93319 0.0
H1682 H 0.38306 0.70328 0.9592 0.0
H1683 H 0.38485 0.7085 0.91622 0.0
H1684 H 0.34631 0.71442 0.93031 0.0
H1685 H 0.33892 0.54287 0.98449 0.0
H1686 H 0.38249 0.56165 0.97254 0.0
H1687 H 0.36936 0.57535 1.00605 0.0
H1688 H 0.45937 0.60507 0.92598 0.0
H1689 H 0.46032 0.6096 0.02646 0.0
H1690 H 0.39957 0.66491 0.89408 0.0
H1691 H 0.38397 0.61762 0.89609 0.0
H1692 H 0.42723 0.63894 0.88453 0.0
H1693 H 0.42646 0.64439 0.04338 0.0
H1694 H 0.38186 0.63059 0.02393 0.0
H1695 H 0.40636 0.67487 1.01264 0.0
C1696 C 0.35372 0.38232 0.79724 0.0
C1697 C 0.34176 0.34813 0.81435 0.0
C1698 C 0.37443 0.40987 0.81346 0.0
C1699 C 0.38359 0.40296 0.84755 0.0
C1700 C 0.37224 0.3683 0.86478 0.0
C1701 C 0.35125 0.34147 0.84803 0.0
C1702 C 0.3857 0.44649 0.79426 0.0
C1703 C 0.38187 0.35958 0.90109 0.0
C1704 C 0.45758 0.46105 0.89594 0.0
C1705 C 0.4378 0.47553 0.91246 0.0
C1706 C 0.44052 0.43901 0.87289 0.0
C1707 C 0.40297 0.43207 0.86596 0.0
C1708 C 0.38341 0.44941 0.88055 0.0
C1709 C 0.40103 0.47047 0.90404 0.0
C1710 C 0.4624 0.42076 0.85827 0.0
C1711 C 0.3435 0.44351 0.87328 0.0
H1712 H 0.34641 0.38775 0.77118 0.0
H1713 H 0.34254 0.31517 0.86144 0.0
H1714 H 0.37205 0.46499 0.8013 0.0
H1715 H 0.41467 0.45685 0.79987 0.0
H1716 H 0.37928 0.44671 0.76762 0.0
H1717 H 0.37306 0.33081 0.91047 0.0
H1718 H 0.41103 0.3676 0.90749 0.0
H1719 H 0.36938 0.37472 0.91372 0.0
H1720 H 0.48602 0.46466 0.90287 0.0
H1721 H 0.38585 0.48173 0.91696 0.0
H1722 H 0.45346 0.42079 0.83197 0.0
H1723 H 0.45893 0.39261 0.8703 0.0
H1724 H 0.49115 0.43353 0.86152 0.0
H1725 H 0.33302 0.4629 0.8827 0.0
H1726 H 0.33114 0.41633 0.88473 0.0
H1727 H 0.3352 0.44561 0.84671 0.0
C1728 C 0.6253 0.42181 0.80833 0.0
C1729 C 0.65395 0.40499 0.81913 0.0
C1730 C 0.60993 0.4351 0.82985 0.0
C1731 C 0.62275 0.43084 0.86339 0.0
C1732 C 0.65002 0.41185 0.87486 0.0
C1733 C 0.66544 0.39942 0.85265 0.0
C1734 C 0.58121 0.4554 0.81635 0.0
C1735 C 0.66401 0.40601 0.91051 0.0
C1736 C 0.61796 0.50107 0.91224 0.0
C1737 C 0.5882 0.48489 0.92867 0.0
C1738 C 0.62896 0.48397 0.89071 0.0
C1739 C 0.61024 0.44935 0.88573 0.0
C1740 C 0.57981 0.43295 0.90189 0.0
C1741 C 0.56896 0.45105 0.92292 0.0
C1742 C 0.66089 0.50304 0.87341 0.0
C1743 C 0.55932 0.39593 0.89768 0.0
H1744 H 0.61529 0.42542 0.78272 0.0
H1745 H 0.68751 0.38663 0.8615 0.0
H1746 H 0.5579 0.44488 0.83 0.0
H1747 H 0.59133 0.4837 0.81925 0.0
H1748 H 0.57229 0.45415 0.79017 0.0
H1749 H 0.68185 0.38704 0.91617 0.0
H1750 H 0.67905 0.43169 0.9178 0.0
H1751 H 0.64171 0.39578 0.92547 0.0
H1752 H 0.63288 0.52732 0.91628 0.0
H1753 H 0.54612 0.43819 0.9357 0.0
H1754 H 0.65377 0.50436 0.84675 0.0
H1755 H 0.6823 0.48809 0.88084 0.0
H1756 H 0.67151 0.53051 0.87874 0.0
H1757 H 0.55095 0.39432 0.87155 0.0
H1758 H 0.53535 0.38755 0.91065 0.0
H1759 H 0.57669 0.37683 0.90711 0.0
C1760 C 0.76319 0.47435 0.10093 0.0
C1761 C 0.76525 0.43968 0.11591 0.0
C1762 C 0.73818 0.47958 0.07373 0.0
C1763 C 0.71454 0.44946 0.06302 0.0
C1764 C 0.72345 0.41594 0.0723 0.0
C1765 C 0.74998 0.41163 0.09839 0.0
C1766 C 0.73212 0.51646 0.06117 0.0
C1767 C 0.70072 0.38357 0.05932 0.0
C1768 C 0.62212 0.45567 0.07228 0.0
C1769 C 0.60669 0.46078 0.04007 0.0
C1770 C 0.65657 0.4501 0.07992 0.0
C1771 C 0.67661 0.45087 0.05445 0.0
C1772 C 0.66043 0.45432 0.02187 0.0
C1773 C 0.62516 0.45813 0.0153 0.0
C1774 C 0.67162 0.44452 0.11537 0.0
C1775 C 0.67967 0.45453 0.99363 0.0
H1776 H 0.77652 0.49678 0.11303 0.0
H1777 H 0.75387 0.38513 0.10853 0.0
H1778 H 0.72061 0.51897 0.03522 0.0
H1779 H 0.7132 0.52195 0.07543 0.0
H1780 H 0.75732 0.53675 0.06386 0.0
H1781 H 0.71424 0.36097 0.06499 0.0
H1782 H 0.67555 0.37525 0.07047 0.0
H1783 H 0.69393 0.38971 0.03262 0.0
H1784 H 0.60755 0.45711 0.09155 0.0
H1785 H 0.61232 0.45898 0.99077 0.0
H1786 H 0.65097 0.44 0.13185 0.0
H1787 H 0.69222 0.46827 0.12088 0.0
H1788 H 0.68404 0.42125 0.12096 0.0
H1789 H 0.67388 0.47568 0.97325 0.0
H1790 H 0.66954 0.42881 0.98453 0.0
H1791 H 0.70886 0.45859 1.00003 0.0
C1792 C 0.72551 0.67674 0.1842 0.0
C1793 C 0.73034 0.66939 0.21823 0.0
C1794 C 0.70547 0.65092 0.16587 0.0
C1795 C 0.69009 0.61677 0.18194 0.0
C1796 C 0.69606 0.60869 0.21622 0.0
C1797 C 0.71623 0.6351 0.23397 0.0
C1798 C 0.69955 0.66069 0.12931 0.0
C1799 C 0.68038 0.57256 0.23422 0.0
C1800 C 0.60874 0.57003 0.13232 0.0
C1801 C 0.62391 0.55081 0.11605 0.0
C1802 C 0.62974 0.5904 0.1552 0.0
C1803 C 0.66642 0.59045 0.16257 0.0
C1804 C 0.68106 0.56854 0.14814 0.0
C1805 C 0.6597 0.54939 0.1246 0.0
C1806 C 0.61322 0.61369 0.16983 0.0
C1807 C 0.7198 0.56722 0.15583 0.0
H1808 H 0.73643 0.70306 0.1718 0.0
H1809 H 0.72053 0.62897 0.26025 0.0
H1810 H 0.70819 0.64182 0.11763 0.0
H1811 H 0.6708 0.65876 0.12117 0.0
H1812 H 0.71416 0.68807 0.12055 0.0
H1813 H 0.69096 0.56924 0.26042 0.0
H1814 H 0.65113 0.56887 0.2322 0.0
H1815 H 0.68585 0.55129 0.22326 0.0
H1816 H 0.58115 0.57133 0.12532 0.0
H1817 H 0.67129 0.53441 0.11188 0.0
H1818 H 0.6285 0.64164 0.16596 0.0
H1819 H 0.61394 0.60468 0.19644 0.0
H1820 H 0.58529 0.61319 0.15916 0.0
H1821 H 0.73625 0.59254 0.14464 0.0
H1822 H 0.72567 0.54503 0.14643 0.0
H1823 H 0.72792 0.56417 0.18246 0.0
C1824 C 0.41491 0.65023 0.18024 0.0
C1825 C 0.39902 0.62494 0.20504 0.0
C1826 C 0.42968 0.63996 0.15615 0.0
C1827 C 0.4285 0.60351 0.15666 0.0
C1828 C 0.41223 0.57792 0.18146 0.0
C1829 C 0.39764 0.58886 0.20506 0.0
C1830 C 0.44695 0.66811 0.13034 0.0
C1831 C 0.41053 0.53882 0.18326 0.0
C1832 C 0.43285 0.56593 0.08115 0.0
C1833 C 0.46777 0.56083 0.08569 0.0
C1834 C 0.42051 0.58151 0.10303 0.0
C1835 C 0.4432 0.59158 0.13096 0.0
C1836 C 0.47879 0.58727 0.1354 0.0
C1837 C 0.49081 0.57255 0.11242 0.0
C1838 C 0.38264 0.58599 0.09681 0.0
C1839 C 0.50415 0.59736 0.16474 0.0
H1840 H 0.41656 0.67817 0.18007 0.0
H1841 H 0.38499 0.56892 0.22367 0.0
H1842 H 0.47537 0.66745 0.13196 0.0
H1843 H 0.43426 0.66263 0.10584 0.0
H1844 H 0.44513 0.69522 0.13275 0.0
H1845 H 0.39762 0.52227 0.20437 0.0
H1846 H 0.39552 0.52963 0.1607 0.0
H1847 H 0.43775 0.53434 0.18513 0.0
H1848 H 0.41484 0.5573 0.06042 0.0
H1849 H 0.51768 0.56857 0.11629 0.0
H1850 H 0.38206 0.61403 0.09691 0.0
H1851 H 0.36751 0.56932 0.11651 0.0
H1852 H 0.36891 0.57843 0.0732 0.0
H1853 H 0.51602 0.62628 0.16011 0.0
H1854 H 0.52597 0.58286 0.16976 0.0
H1855 H 0.49052 0.59177 0.18684 0.0
C1856 C 0.36563 0.33812 0.21682 0.0
C1857 C 0.35796 0.30099 0.22007 0.0
C1858 C 0.38927 0.35911 0.19556 0.0
C1859 C 0.40566 0.34245 0.17731 0.0
C1860 C 0.40064 0.30503 0.18277 0.0
C1861 C 0.37664 0.28463 0.20409 0.0
C1862 C 0.39396 0.39903 0.19039 0.0
C1863 C 0.41827 0.28642 0.16419 0.0
C1864 C 0.41705 0.39471 0.09352 0.0
C1865 C 0.45227 0.41385 0.09792 0.0
C1866 C 0.40212 0.36997 0.11886 0.0
C1867 C 0.42308 0.36396 0.14917 0.0
C1868 C 0.45928 0.38138 0.15316 0.0
C1869 C 0.47346 0.40635 0.12748 0.0
C1870 C 0.36329 0.35188 0.11376 0.0
C1871 C 0.4825 0.37504 0.18499 0.0
H1872 H 0.35122 0.35097 0.22897 0.0
H1873 H 0.37113 0.25588 0.20688 0.0
H1874 H 0.42244 0.41237 0.19051 0.0
H1875 H 0.38007 0.40802 0.16628 0.0
H1876 H 0.38303 0.40787 0.20928 0.0
H1877 H 0.41751 0.2584 0.17581 0.0
H1878 H 0.40426 0.28642 0.13915 0.0
H1879 H 0.44631 0.30049 0.16224 0.0
H1880 H 0.40051 0.40018 0.07076 0.0
H1881 H 0.5009 0.42065 0.13092 0.0
H1882 H 0.34833 0.36086 0.12952 0.0
H1883 H 0.35984 0.32267 0.12077 0.0
H1884 H 0.35134 0.35773 0.08814 0.0
H1885 H 0.47498 0.38782 0.20323 0.0
H1886 H 0.5111 0.38615 0.18252 0.0
H1887 H 0.47863 0.3462 0.1946 0.0
C1888 C 0.8833 0.61666 0.69033 0.0
C1889 C 0.85392 0.6201 0.66686 0.0
C1890 C 0.91165 0.60404 0.68363 0.0
C1891 C 0.91063 0.59469 0.65271 0.0
C1892 C 0.88063 0.59725 0.62929 0.0
C1893 C 0.85286 0.61002 0.63658 0.0
C1894 C 0.94305 0.60159 0.70928 0.0
C1895 C 0.87834 0.5876 0.59598 0.0
C1896 C 0.99017 0.6033 0.60963 0.0
C1897 C 0.98935 0.56766 0.60879 0.0
C1898 C 0.96687 0.61252 0.62668 0.0
C1899 C 0.94188 0.58538 0.64319 0.0
C1900 C 0.94352 0.54933 0.64532 0.0
C1901 C 0.9673 0.54081 0.62794 0.0
C1902 C 0.96666 0.65131 0.62414 0.0
C1903 C 0.91804 0.51963 0.66341 0.0
H1904 H 0.88419 0.62385 0.71398 0.0
H1905 H 0.83066 0.61304 0.61806 0.0
H1906 H 0.94976 0.57525 0.71224 0.0
H1907 H 0.9666 0.62196 0.70158 0.0
H1908 H 0.93803 0.60583 0.7332 0.0
H1909 H 0.85235 0.58908 0.58123 0.0
H1910 H 0.89965 0.60591 0.58265 0.0
H1911 H 0.88242 0.56025 0.59823 0.0
H1912 H 1.00747 0.62409 0.59499 0.0
H1913 H 0.96652 0.51322 0.62726 0.0
H1914 H 0.96429 0.65751 0.64808 0.0
H1915 H 0.94334 0.65735 0.60713 0.0
H1916 H 0.99104 0.66904 0.61499 0.0
H1917 H 0.91306 0.527 0.686 0.0
H1918 H 0.92823 0.49487 0.6698 0.0
H1919 H 0.89223 0.51417 0.64783 0.0
C1920 C 0.34936 0.7904 0.67362 0.0
C1921 C 0.35567 0.79368 0.70669 0.0
C1922 C 0.37279 0.81076 0.65123 0.0
C1923 C 0.40349 0.83565 0.66182 0.0
C1924 C 0.41056 0.8382 0.69545 0.0
C1925 C 0.38645 0.8177 0.71719 0.0
C1926 C 0.36359 0.80699 0.61582 0.0
C1927 C 0.44293 0.86374 0.70834 0.0
C1928 C 0.47797 0.8725 0.60654 0.0
C1929 C 0.47228 0.90649 0.59231 0.0
C1930 C 0.45612 0.84948 0.62908 0.0
C1931 C 0.42713 0.86004 0.63763 0.0
C1932 C 0.42088 0.89409 0.62298 0.0
C1933 C 0.44359 0.91688 0.60098 0.0
C1934 C 0.46444 0.81393 0.64419 0.0
C1935 C 0.39046 0.9069 0.63093 0.0
H1936 H 0.32505 0.7729 0.66493 0.0
H1937 H 0.3908 0.82198 0.7422 0.0
H1938 H 0.35781 0.8322 0.60149 0.0
H1939 H 0.38644 0.80196 0.60644 0.0
H1940 H 0.34014 0.78506 0.61166 0.0
H1941 H 0.44594 0.86109 0.73526 0.0
H1942 H 0.46718 0.85913 0.70103 0.0
H1943 H 0.4411 0.89143 0.6977 0.0
H1944 H 0.50008 0.86397 0.60052 0.0
H1945 H 0.43873 0.94293 0.59046 0.0
H1946 H 0.48747 0.80918 0.6348 0.0
H1947 H 0.44105 0.79222 0.63943 0.0
H1948 H 0.47037 0.81247 0.67095 0.0
H1949 H 0.38542 0.93094 0.61382 0.0
H1950 H 0.39684 0.91362 0.6558 0.0
H1951 H 0.36573 0.88579 0.63045 0.0
C1952 C 0.18493 0.30447 0.69563 0.0
C1953 C 0.21848 0.31424 0.71346 0.0
C1954 C 0.16651 0.32988 0.67688 0.0
C1955 C 0.18124 0.36683 0.6759 0.0
C1956 C 0.21545 0.37702 0.69362 0.0
C1957 C 0.23361 0.3508 0.712 0.0
C1958 C 0.13095 0.31695 0.65803 0.0
C1959 C 0.23272 0.41573 0.69361 0.0
C1960 C 0.14459 0.42693 0.60115 0.0
C1961 C 0.11668 0.4369 0.61193 0.0
C1962 C 0.16641 0.4058 0.62179 0.0
C1963 C 0.1613 0.39407 0.65495 0.0
C1964 C 0.13461 0.40572 0.6667 0.0
C1965 C 0.11266 0.42675 0.64521 0.0
C1966 C 0.19413 0.39476 0.60751 0.0
C1967 C 0.12821 0.39466 0.70182 0.0
H1968 H 0.17268 0.27643 0.69664 0.0
H1969 H 0.25914 0.35894 0.726 0.0
H1970 H 0.11015 0.32682 0.66616 0.0
H1971 H 0.1318 0.32769 0.63178 0.0
H1972 H 0.12308 0.28749 0.66099 0.0
H1973 H 0.25746 0.41954 0.71091 0.0
H1974 H 0.23939 0.42844 0.66891 0.0
H1975 H 0.21403 0.4297 0.70005 0.0
H1976 H 0.1486 0.43459 0.57572 0.0
H1977 H 0.09127 0.43365 0.65419 0.0
H1978 H 0.18991 0.36535 0.61173 0.0
H1979 H 0.22083 0.40542 0.61975 0.0
H1980 H 0.19384 0.40449 0.58099 0.0
H1981 H 0.11652 0.36571 0.70655 0.0
H1982 H 0.1099 0.40902 0.70839 0.0
H1983 H 0.15371 0.39963 0.71794 0.0
C1984 C 0.73946 0.18942 0.67218 0.0
C1985 C 0.72089 0.20627 0.68776 0.0
C1986 C 0.72184 0.16874 0.64826 0.0
C1987 C 0.68456 0.16397 0.64044 0.0
C1988 C 0.66576 0.18117 0.6561 0.0
C1989 C 0.68425 0.20247 0.67932 0.0
C1990 C 0.74306 0.15177 0.63159 0.0
C1991 C 0.62595 0.17633 0.64894 0.0
C1992 C 0.63325 0.13372 0.56259 0.0
C1993 C 0.61944 0.09763 0.57329 0.0
C1994 C 0.65645 0.15514 0.58361 0.0
C1995 C 0.66492 0.1404 0.6165 0.0
C1996 C 0.65219 0.10355 0.62703 0.0
C1997 C 0.62998 0.08249 0.60513 0.0
C1998 C 0.67037 0.19394 0.57103 0.0
C1999 C 0.65975 0.08689 0.66203 0.0
H2000 H 0.76788 0.19245 0.67873 0.0
H2001 H 0.66984 0.21489 0.69187 0.0
H2002 H 0.73461 0.12241 0.63712 0.0
H2003 H 0.73798 0.15945 0.60483 0.0
H2004 H 0.77206 0.15956 0.63925 0.0
H2005 H 0.61493 0.18884 0.66522 0.0
H2006 H 0.61874 0.18824 0.62343 0.0
H2007 H 0.61313 0.14761 0.65163 0.0
H2008 H 0.62482 0.14549 0.53802 0.0
H2009 H 0.61863 0.05477 0.61365 0.0
H2010 H 0.69928 0.20188 0.57887 0.0
H2011 H 0.65701 0.21041 0.58126 0.0
H2012 H 0.66565 0.20001 0.54409 0.0
H2013 H 0.68861 0.09344 0.67037 0.0
H2014 H 0.6503 0.05751 0.66576 0.0
H2015 H 0.64631 0.09786 0.67761 0.0
C2016 C 0.8158 0.32973 0.36804 0.0
C2017 C 0.83133 0.32192 0.34337 0.0
C2018 C 0.83607 0.34993 0.39139 0.0
C2019 C 0.8731 0.36247 0.3905 0.0
C2020 C 0.88925 0.35333 0.36649 0.0
C2021 C 0.86818 0.33313 0.34323 0.0
C2022 C 0.81759 0.35863 0.4165 0.0
C2023 C 0.92872 0.36553 0.36498 0.0
C2024 C 0.92452 0.44171 0.43192 0.0
C2025 C 0.94111 0.42466 0.46047 0.0
C2026 C 0.90154 0.42185 0.40927 0.0
C2027 C 0.89505 0.38412 0.41528 0.0
C2028 C 0.91017 0.36692 0.44492 0.0
C2029 C 0.9328 0.38729 0.46704 0.0
C2030 C 0.88545 0.44125 0.37823 0.0
C2031 C 0.90371 0.32688 0.45271 0.0
H2032 H 0.78741 0.32058 0.36869 0.0
H2033 H 0.88038 0.32726 0.32425 0.0
H2034 H 0.83129 0.35202 0.44128 0.0
H2035 H 0.81858 0.38759 0.41208 0.0
H2036 H 0.78934 0.34415 0.41583 0.0
H2037 H 0.93733 0.35572 0.3453 0.0
H2038 H 0.93627 0.395 0.36085 0.0
H2039 H 0.94341 0.35607 0.3885 0.0
H2040 H 0.93104 0.47048 0.42639 0.0
H2041 H 0.94534 0.3738 0.48909 0.0
H2042 H 0.85627 0.43099 0.37473 0.0
H2043 H 0.89624 0.43639 0.35722 0.0
H2044 H 0.89107 0.47037 0.37806 0.0
H2045 H 0.87479 0.315 0.45085 0.0
H2046 H 0.91602 0.31753 0.47747 0.0
H2047 H 0.9148 0.31675 0.43479 0.0
C2048 C 0.63503 0.89299 0.31522 0.0
C2049 C 0.63648 0.85813 0.33022 0.0
C2050 C 0.62406 0.916 0.33118 0.0
C2051 C 0.61357 0.90366 0.3627 0.0
C2052 C 0.61536 0.86858 0.37806 0.0
C2053 C 0.62711 0.84639 0.36178 0.0
C2054 C 0.62337 0.95337 0.31422 0.0
C2055 C 0.60406 0.85415 0.41148 0.0
C2056 C 0.61238 0.96356 0.42282 0.0
C2057 C 0.57597 0.96204 0.42121 0.0
C2058 C 0.62526 0.9469 0.40219 0.0
C2059 C 0.60104 0.92728 0.37999 0.0
C2060 C 0.56443 0.92762 0.37682 0.0
C2061 C 0.55238 0.94537 0.39728 0.0
C2062 C 0.66457 0.94825 0.40579 0.0
C2063 C 0.53757 0.90685 0.35375 0.0
H2064 H 0.64233 0.9022 0.29082 0.0
H2065 H 0.62768 0.81934 0.37327 0.0
H2066 H 0.59582 0.95735 0.31049 0.0
H2067 H 0.63964 0.9728 0.32961 0.0
H2068 H 0.63357 0.95931 0.29025 0.0
H2069 H 0.60639 0.82613 0.41983 0.0
H2070 H 0.62061 0.87057 0.42933 0.0
H2071 H 0.57609 0.8556 0.4114 0.0
H2072 H 0.63064 0.9763 0.44147 0.0
H2073 H 0.52419 0.94376 0.39627 0.0
H2074 H 0.67421 0.95408 0.38161 0.0
H2075 H 0.66966 0.92199 0.41791 0.0
H2076 H 0.68024 0.96865 0.4205 0.0
H2077 H 0.54679 0.91173 0.32948 0.0
H2078 H 0.5112 0.91366 0.35091 0.0
H2079 H 0.53437 0.87801 0.3632 0.0
C2080 C 0.22482 0.70746 0.34906 0.0
C2081 C 0.20862 0.71194 0.31673 0.0
C2082 C 0.20613 0.68508 0.3744 0.0
C2083 C 0.16999 0.66725 0.36767 0.0
C2084 C 0.15413 0.671 0.33485 0.0
C2085 C 0.1734 0.69314 0.31013 0.0
C2086 C 0.22485 0.68111 0.40857 0.0
C2087 C 0.11621 0.65228 0.32585 0.0
C2088 C 0.12062 0.59016 0.42742 0.0
C2089 C 0.10006 0.60701 0.4411 0.0
C2090 C 0.14399 0.60922 0.40434 0.0
C2091 C 0.14775 0.64656 0.39463 0.0
C2092 C 0.12775 0.66383 0.40901 0.0
C2093 C 0.10434 0.64407 0.43174 0.0
C2094 C 0.16467 0.58906 0.39055 0.0
C2095 C 0.13034 0.70333 0.39971 0.0
H2096 H 0.2517 0.72226 0.35474 0.0
H2097 H 0.16043 0.6965 0.28536 0.0
H2098 H 0.21161 0.69195 0.4244 0.0
H2099 H 0.22308 0.65252 0.41846 0.0
H2100 H 0.2533 0.69502 0.40977 0.0
H2101 H 0.10808 0.65651 0.29919 0.0
H2102 H 0.11273 0.6233 0.3347 0.0
H2103 H 0.09812 0.66207 0.33781 0.0
H2104 H 0.11801 0.56172 0.43429 0.0
H2105 H 0.08896 0.65779 0.44192 0.0
H2106 H 0.19204 0.59288 0.40347 0.0
H2107 H 0.16648 0.59892 0.3643 0.0
H2108 H 0.15262 0.56012 0.39381 0.0
H2109 H 0.15849 0.71784 0.40318 0.0
H2110 H 0.11475 0.71332 0.41417 0.0
H2111 H 0.12045 0.70965 0.37357 0.0
C2112 C 0.35251 0.1949 0.32277 0.0
C2113 C 0.31634 0.17799 0.31794 0.0
C2114 C 0.37791 0.17729 0.34328 0.0
C2115 C 0.36766 0.14119 0.35853 0.0
C2116 C 0.33116 0.12428 0.35362 0.0
C2117 C 0.30635 0.1427 0.33387 0.0
C2118 C 0.41581 0.19749 0.34894 0.0
C2119 C 0.31802 0.08654 0.36972 0.0
C2120 C 0.43733 0.08265 0.3931 0.0
C2121 C 0.4414 0.08335 0.42677 0.0
C2122 C 0.41387 0.10133 0.37069 0.0
C2123 C 0.39395 0.1218 0.38168 0.0
C2124 C 0.3978 0.12208 0.41558 0.0
C2125 C 0.42093 0.10324 0.43716 0.0
C2126 C 0.41031 0.09912 0.33508 0.0
C2127 C 0.37875 0.14349 0.42975 0.0
H2128 H 0.36106 0.22176 0.31027 0.0
H2129 H 0.27869 0.12899 0.33043 0.0
H2130 H 0.42333 0.19857 0.37528 0.0
H2131 H 0.43382 0.18348 0.3415 0.0
H2132 H 0.41995 0.2251 0.3354 0.0
H2133 H 0.28948 0.07614 0.36191 0.0
H2134 H 0.33364 0.06893 0.36405 0.0
H2135 H 0.32182 0.08527 0.3965 0.0
H2136 H 0.45268 0.06787 0.38416 0.0
H2137 H 0.42316 0.10481 0.46275 0.0
H2138 H 0.41776 0.12617 0.32092 0.0
H2139 H 0.38222 0.08789 0.32637 0.0
H2140 H 0.42724 0.08238 0.33001 0.0
H2141 H 0.39636 0.17011 0.43096 0.0
H2142 H 0.3733 0.13109 0.45491 0.0
H2143 H 0.3533 0.1469 0.41506 0.0
C2144 C 0.709 0.82393 0.70981 0.0
C2145 C 0.74516 0.84094 0.71393 0.0
C2146 C 0.68324 0.84167 0.69025 0.0
C2147 C 0.69329 0.8779 0.67531 0.0
C2148 C 0.72966 0.89515 0.6801 0.0
C2149 C 0.75479 0.87657 0.69876 0.0
C2150 C 0.64527 0.82142 0.68519 0.0
C2151 C 0.74231 0.93349 0.66519 0.0
C2152 C 0.64149 0.91597 0.59649 0.0
C2153 C 0.62092 0.93597 0.60662 0.0
C2154 C 0.66386 0.89666 0.61842 0.0
C2155 C 0.66705 0.89701 0.6522 0.0
C2156 C 0.64704 0.91751 0.66296 0.0
C2157 C 0.62415 0.93644 0.64025 0.0
C2158 C 0.68388 0.87533 0.60518 0.0
C2159 C 0.64995 0.91953 0.69856 0.0
H2160 H 0.70081 0.79679 0.72181 0.0
H2161 H 0.78244 0.89039 0.70183 0.0
H2162 H 0.62747 0.83555 0.69281 0.0
H2163 H 0.6372 0.82003 0.65897 0.0
H2164 H 0.64129 0.79391 0.69895 0.0
H2165 H 0.77081 0.94399 0.6731 0.0
H2166 H 0.73845 0.93608 0.6383 0.0
H2167 H 0.72647 0.95029 0.67185 0.0
H2168 H 0.63995 0.91481 0.57089 0.0
H2169 H 0.60865 0.95131 0.64889 0.0
H2170 H 0.67563 0.84691 0.61563 0.0
H2171 H 0.71283 0.88377 0.61246 0.0
H2172 H 0.67904 0.87795 0.57826 0.0
H2173 H 0.64235 0.89244 0.71259 0.0
H2174 H 0.63283 0.93621 0.70338 0.0
H2175 H 0.67792 0.93074 0.70768 0.0
C2176 C 0.71454 0.22828 0.36065 0.0
C2177 C 0.70734 0.22812 0.32702 0.0
C2178 C 0.69071 0.2074 0.38237 0.0
C2179 C 0.65867 0.1852 0.37046 0.0
C2180 C 0.65057 0.18611 0.33628 0.0
C2181 C 0.67516 0.20705 0.3151 0.0
C2182 C 0.7006 0.20799 0.41832 0.0
C2183 C 0.61644 0.16394 0.32213 0.0
C2184 C 0.617 0.1019 0.42816 0.0
C2185 C 0.59032 0.11308 0.43942 0.0
C2186 C 0.63916 0.12491 0.40583 0.0
C2187 C 0.63463 0.16013 0.39389 0.0
C2188 C 0.60772 0.17147 0.40514 0.0
C2189 C 0.58612 0.14804 0.42756 0.0
C2190 C 0.66769 0.11153 0.39512 0.0
C2191 C 0.60093 0.20817 0.39292 0.0
H2192 H 0.73975 0.24377 0.37016 0.0
H2193 H 0.66992 0.20567 0.28933 0.0
H2194 H 0.67908 0.21459 0.4285 0.0
H2195 H 0.70373 0.18124 0.43101 0.0
H2196 H 0.7257 0.2276 0.4237 0.0
H2197 H 0.61276 0.16945 0.29513 0.0
H2198 H 0.61632 0.13532 0.3301 0.0
H2199 H 0.5935 0.16919 0.33121 0.0
H2200 H 0.62069 0.07509 0.43688 0.0
H2201 H 0.56548 0.1572 0.43552 0.0
H2202 H 0.69411 0.12858 0.40161 0.0
H2203 H 0.66368 0.11319 0.36831 0.0
H2204 H 0.66795 0.0836 0.40643 0.0
H2205 H 0.62618 0.2285 0.39205 0.0
H2206 H 0.58416 0.21542 0.40824 0.0
H2207 H 0.58693 0.20892 0.36786 0.0
C2208 C 0.82652 0.66643 0.3254 0.0
C2209 C 0.84024 0.70304 0.32527 0.0
C2210 C 0.84482 0.64062 0.34433 0.0
C2211 C 0.87792 0.65136 0.36356 0.0
C2212 C 0.89103 0.6883 0.36408 0.0
C2213 C 0.87235 0.71328 0.34506 0.0
C2214 C 0.82921 0.60184 0.34291 0.0
C2215 C 0.92534 0.70169 0.38455 0.0
C2216 C 0.91636 0.59174 0.43746 0.0
C2217 C 0.9455 0.58419 0.42655 0.0
C2218 C 0.8933 0.61161 0.41696 0.0
C2219 C 0.89872 0.62471 0.38402 0.0
C2220 C 0.9268 0.61543 0.37219 0.0
C2221 C 0.94974 0.59541 0.39343 0.0
C2222 C 0.86388 0.61986 0.43114 0.0
C2223 C 0.93378 0.62825 0.33736 0.0
H2224 H 0.80219 0.65799 0.30984 0.0
H2225 H 0.88346 0.74139 0.34511 0.0
H2226 H 0.84698 0.59102 0.33152 0.0
H2227 H 0.82726 0.58656 0.36779 0.0
H2228 H 0.8024 0.59744 0.32876 0.0
H2229 H 0.93191 0.73109 0.38269 0.0
H2230 H 0.92352 0.68972 0.41044 0.0
H2231 H 0.9475 0.69352 0.37687 0.0
H2232 H 0.91231 0.58318 0.46282 0.0
H2233 H 0.97212 0.59033 0.38448 0.0
H2234 H 0.83792 0.60874 0.41788 0.0
H2235 H 0.8667 0.64905 0.42814 0.0
H2236 H 0.86355 0.60868 0.45736 0.0
H2237 H 0.90873 0.62258 0.32076 0.0
H2238 H 0.95346 0.61564 0.33063 0.0
H2239 H 0.94405 0.65748 0.33356 0.0
C2240 C 0.34559 0.85931 0.33403 0.0
C2241 C 0.33413 0.82222 0.34119 0.0
C2242 C 0.36467 0.87923 0.35786 0.0
C2243 C 0.37211 0.86179 0.38993 0.0
C2244 C 0.35935 0.82451 0.39773 0.0
C2245 C 0.3408 0.80507 0.37315 0.0
C2246 C 0.37864 0.91869 0.34815 0.0
C2247 C 0.36645 0.805 0.43174 0.0
C2248 C 0.45905 0.90241 0.4356 0.0
C2249 C 0.44864 0.922 0.45535 0.0
C2250 C 0.43436 0.88265 0.4146 0.0
C2251 C 0.39789 0.88169 0.41355 0.0
C2252 C 0.3869 0.9012 0.43352 0.0
C2253 C 0.41258 0.92166 0.45399 0.0
C2254 C 0.44758 0.86337 0.39303 0.0
C2255 C 0.3481 0.90021 0.43336 0.0
H2256 H 0.34061 0.8729 0.30943 0.0
H2257 H 0.33162 0.77649 0.37896 0.0
H2258 H 0.37202 0.93371 0.36509 0.0
H2259 H 0.40802 0.92446 0.34957 0.0
H2260 H 0.36778 0.9287 0.32303 0.0
H2261 H 0.35051 0.77725 0.43493 0.0
H2262 H 0.39498 0.80423 0.43716 0.0
H2263 H 0.36045 0.81913 0.44976 0.0
H2264 H 0.48696 0.90283 0.43626 0.0
H2265 H 0.40447 0.9366 0.46935 0.0
H2266 H 0.44061 0.87419 0.36713 0.0
H2267 H 0.43462 0.8347 0.39679 0.0
H2268 H 0.4768 0.86597 0.3977 0.0
H2269 H 0.33676 0.91125 0.40881 0.0
H2270 H 0.34377 0.91555 0.45124 0.0
H2271 H 0.33324 0.87227 0.43902 0.0
C2272 C 0.18739 0.37186 0.4136 0.0
C2273 C 0.20018 0.37842 0.38338 0.0
C2274 C 0.16246 0.38957 0.41916 0.0
C2275 C 0.14976 0.41447 0.39382 0.0
C2276 C 0.16203 0.42083 0.36304 0.0
C2277 C 0.18715 0.40276 0.35819 0.0
C2278 C 0.15002 0.38186 0.45237 0.0
C2279 C 0.14903 0.44706 0.33545 0.0
C2280 C 0.06542 0.43247 0.41306 0.0
C2281 C 0.07934 0.4612 0.42979 0.0
C2282 C 0.08761 0.41895 0.39809 0.0
C2283 C 0.12453 0.43435 0.40047 0.0
C2284 C 0.13791 0.46552 0.41469 0.0
C2285 C 0.1151 0.47845 0.42937 0.0
C2286 C 0.07214 0.386 0.38281 0.0
C2287 C 0.17698 0.48292 0.41762 0.0
H2288 H 0.19676 0.35261 0.43297 0.0
H2289 H 0.19711 0.40821 0.33483 0.0
H2290 H 0.1568 0.40656 0.46323 0.0
H2291 H 0.12072 0.37244 0.45024 0.0
H2292 H 0.16215 0.36144 0.46928 0.0
H2293 H 0.15918 0.4471 0.31238 0.0
H2294 H 0.11958 0.44082 0.33149 0.0
H2295 H 0.15773 0.47422 0.34174 0.0
H2296 H 0.03785 0.41875 0.41404 0.0
H2297 H 0.12592 0.50014 0.44304 0.0
H2298 H 0.0787 0.36255 0.39983 0.0
H2299 H 0.08365 0.38778 0.36008 0.0
H2300 H 0.04278 0.38149 0.37728 0.0
H2301 H 0.19181 0.46556 0.43566 0.0
H2302 H 0.18239 0.50923 0.4256 0.0
H2303 H 0.18746 0.48644 0.39407 0.0
C2304 C 0.43309 0.16755 0.68415 0.0
C2305 C 0.42987 0.19604 0.65876 0.0
C2306 C 0.44522 0.1382 0.67944 0.0
C2307 C 0.45467 0.13739 0.6487 0.0
C2308 C 0.45178 0.16618 0.62311 0.0
C2309 C 0.43922 0.19487 0.62837 0.0
C2310 C 0.44807 0.10816 0.70732 0.0
C2311 C 0.46182 0.16665 0.58996 0.0
C2312 C 0.51532 0.08429 0.62972 0.0
C2313 C 0.49096 0.06082 0.61146 0.0
C2314 C 0.50369 0.10722 0.64525 0.0
C2315 C 0.46688 0.10643 0.64241 0.0
C2316 C 0.44217 0.07948 0.6276 0.0
C2317 C 0.45455 0.05723 0.61201 0.0
C2318 C 0.53124 0.13492 0.66118 0.0
C2319 C 0.40269 0.07677 0.62484 0.0
H2320 H 0.42652 0.16831 0.7079 0.0
H2321 H 0.43629 0.21627 0.60838 0.0
H2322 H 0.43166 0.08279 0.7004 0.0
H2323 H 0.47596 0.1051 0.71294 0.0
H2324 H 0.43934 0.11255 0.72964 0.0
H2325 H 0.45909 0.19148 0.57297 0.0
H2326 H 0.48971 0.16393 0.59222 0.0
H2327 H 0.44471 0.14376 0.57916 0.0
H2328 H 0.54353 0.08757 0.62887 0.0
H2329 H 0.4357 0.0393 0.59761 0.0
H2330 H 0.52094 0.14417 0.68015 0.0
H2331 H 0.53973 0.15819 0.64239 0.0
H2332 H 0.55501 0.12432 0.67239 0.0
H2333 H 0.39506 0.08065 0.64782 0.0
H2334 H 0.38724 0.05065 0.61874 0.0
H2335 H 0.39522 0.09794 0.60534 0.0
C2336 C 0.88196 0.3354 0.72219 0.0
C2337 C 0.84765 0.31488 0.71494 0.0
C2338 C 0.902 0.35675 0.69765 0.0
C2339 C 0.88814 0.3574 0.66438 0.0
C2340 C 0.85293 0.33757 0.65686 0.0
C2341 C 0.8332 0.3166 0.6821 0.0
C2342 C 0.9387 0.37788 0.70744 0.0
C2343 C 0.83657 0.33703 0.62206 0.0
C2344 C 0.93778 0.43269 0.60356 0.0
C2345 C 0.96172 0.41643 0.59371 0.0
C2346 C 0.91289 0.41366 0.62526 0.0
C2347 C 0.91156 0.37721 0.63804 0.0
C2348 C 0.93494 0.36041 0.62746 0.0
C2349 C 0.95947 0.37999 0.60564 0.0
C2350 C 0.88813 0.43275 0.6348 0.0
C2351 C 0.93465 0.32168 0.63981 0.0
H2352 H 0.89354 0.33419 0.7474 0.0
H2353 H 0.80706 0.30044 0.67602 0.0
H2354 H 0.95881 0.3677 0.69856 0.0
H2355 H 0.94126 0.40618 0.6961 0.0
H2356 H 0.94488 0.37646 0.73422 0.0
H2357 H 0.80744 0.32602 0.6202 0.0
H2358 H 0.84167 0.36412 0.60762 0.0
H2359 H 0.84886 0.3203 0.61101 0.0
H2360 H 0.93867 0.4606 0.59453 0.0
H2361 H 0.97744 0.36672 0.59841 0.0
H2362 H 0.89241 0.43217 0.6615 0.0
H2363 H 0.86023 0.41896 0.62842 0.0
H2364 H 0.89182 0.4608 0.62243 0.0
H2365 H 0.94318 0.31783 0.66639 0.0
H2366 H 0.95251 0.31169 0.62774 0.0
H2367 H 0.9073 0.30538 0.63581 0.0
C2368 C 0.25426 0.69964 0.65915 0.0
C2369 C 0.23772 0.71242 0.68003 0.0
C2370 C 0.23437 0.67885 0.636 0.0
C2371 C 0.19681 0.67061 0.63351 0.0
C2372 C 0.17994 0.6858 0.65279 0.0
C2373 C 0.20061 0.70699 0.6754 0.0
C2374 C 0.25366 0.66445 0.61529 0.0
C2375 C 0.13999 0.67828 0.65067 0.0
C2376 C 0.1376 0.63657 0.56013 0.0
C2377 C 0.12597 0.60023 0.57198 0.0
C2378 C 0.16203 0.65938 0.57919 0.0
C2379 C 0.17502 0.64578 0.61121 0.0
C2380 C 0.16517 0.60868 0.62258 0.0
C2381 C 0.14089 0.58629 0.60277 0.0
C2382 C 0.17231 0.69845 0.56563 0.0
C2383 C 0.17859 0.59297 0.65646 0.0
H2384 H 0.28296 0.70531 0.66145 0.0
H2385 H 0.1875 0.71761 0.69063 0.0
H2386 H 0.25115 0.6355 0.62371 0.0
H2387 H 0.24174 0.66804 0.58951 0.0
H2388 H 0.28235 0.6775 0.61661 0.0
H2389 H 0.13093 0.69268 0.66673 0.0
H2390 H 0.12838 0.68599 0.62529 0.0
H2391 H 0.1294 0.64934 0.65769 0.0
H2392 H 0.12621 0.64755 0.53631 0.0
H2393 H 0.13171 0.55841 0.61229 0.0
H2394 H 0.20151 0.70832 0.5699 0.0
H2395 H 0.16 0.71374 0.57827 0.0
H2396 H 0.16354 0.70406 0.53915 0.0
H2397 H 0.20797 0.60109 0.6607 0.0
H2398 H 0.17065 0.56348 0.66088 0.0
H2399 H 0.16788 0.60331 0.67451 0.0
loop_
_geom_bond_atom_site_label_1
_geom_bond_atom_site_label_2
_geom_bond_distance
_geom_bond_site_symmetry_2
_ccdc_geom_bond_type
Eu0 N31 2.657 . S
Eu0 N38 2.609 . S
Eu0 O44 2.558 . S
Eu0 O45 2.612 . S
Eu0 O47 2.339 . S
Eu0 O48 2.563 . S
Eu0 O49 2.419 . S
Eu0 O51 2.380 . S
Eu0 O52 2.432 . S
Eu0 C64 2.848 . S
C1 C4 1.429 . S
C1 C5 1.411 . S
C1 N8 1.377 . S
C2 C4 1.420 . S
C2 C6 1.423 . S
C2 C14 1.392 . S
C3 C5 1.420 . S
C3 C6 1.351 . S
C3 H26 0.931 . S
C4 C1 1.429 . S
C4 C2 1.420 . S
C4 N12 1.362 . S
C5 C1 1.411 . S
C5 C3 1.420 . S
C5 C10 1.395 . S
C6 C2 1.423 . S
C6 C3 1.351 . S
C6 H18 0.930 . S
C7 C9 1.400 . S
C7 C10 1.386 . S
C7 H19 0.930 . S
N8 C1 1.377 . S
N8 C9 1.321 . S
N8 Eu11 2.609 . S
C9 C7 1.400 . S
C9 N8 1.321 . S
C9 H16 0.930 . S
C10 C5 1.395 . S
C10 C7 1.386 . S
C10 H29 0.930 . S
Eu11 N8 2.609 . S
Eu11 N12 2.657 . S
Eu11 O45 2.380 . S
Eu11 O46 2.432 . S
Eu11 O50 2.558 . S
Eu11 O51 2.612 . S
Eu11 O53 2.339 . S
Eu11 O54 2.563 . S
Eu11 O55 2.419 . S
Eu11 C75 2.848 . S
N12 C4 1.362 . S
N12 Eu11 2.657 . S
N12 C13 1.334 . S
C13 N12 1.334 . S
C13 C15 1.413 . S
C13 H20 0.929 . S
C14 C2 1.392 . S
C14 C15 1.367 . S
C14 H22 0.930 . S
C15 C13 1.413 . S
C15 C14 1.367 . S
C15 H17 0.930 . S
H16 C9 0.930 . S
H17 C15 0.930 . S
H18 C6 0.930 . S
H19 C7 0.930 . S
H20 C13 0.929 . S
H21 C35 0.930 . S
H22 C14 0.930 . S
H23 C41 0.930 . S
H24 C32 0.929 . S
H25 C39 0.930 . S
H26 C3 0.931 . S
H27 C33 0.930 . S
H28 C66 0.930 . S
H29 C10 0.930 . S
H30 C65 0.931 . S
N31 Eu0 2.657 . S
N31 C32 1.334 . S
N31 C36 1.362 . S
C32 H24 0.929 . S
C32 N31 1.334 . S
C32 C35 1.413 . S
C33 H27 0.930 . S
C33 C34 1.392 . S
C33 C35 1.367 . S
C34 C33 1.392 . S
C34 C36 1.420 . S
C34 C66 1.423 . S
C35 H21 0.930 . S
C35 C32 1.413 . S
C35 C33 1.367 . S
C36 N31 1.362 . S
C36 C34 1.420 . S
C36 C40 1.429 . S
H37 C42 0.930 . S
N38 Eu0 2.609 . S
N38 C40 1.377 . S
N38 C41 1.321 . S
C39 H25 0.930 . S
C39 C41 1.400 . S
C39 C42 1.386 . S
C40 C36 1.429 . S
C40 N38 1.377 . S
C40 C43 1.411 . S
C41 H23 0.930 . S
C41 N38 1.321 . S
C41 C39 1.400 . S
C42 H37 0.930 . S
C42 C39 1.386 . S
C42 C43 1.395 . S
C43 C40 1.411 . S
C43 C42 1.395 . S
C43 C65 1.420 . S
O44 Eu0 2.558 . S
O44 C64 1.257 . S
O45 Eu0 2.612 . S
O45 Eu11 2.380 . S
O45 C56 1.276 . S
O46 Eu11 2.432 . S
O46 C63 1.264 . S
O47 Eu0 2.339 . S
O47 C63 1.254 . S
O48 Eu0 2.563 . S
O48 C56 1.235 . S
O49 Eu0 2.419 . S
O49 C64 1.249 . S
O50 Eu11 2.558 . S
O50 C75 1.257 . S
O51 Eu0 2.380 . S
O51 Eu11 2.612 . S
O51 C67 1.276 . S
O52 Eu0 2.432 . S
O52 C74 1.264 . S
O53 Eu11 2.339 . S
O53 C74 1.254 . S
O54 Eu11 2.563 . S
O54 C67 1.235 . S
O55 Eu11 2.419 . S
O55 C75 1.249 . S
C56 O45 1.276 . S
C56 O48 1.235 . S
C57 C59 1.393 . S
C57 C61 1.395 . S
C57 C64 1.492 . S
C58 C59 1.392 . S
C58 C60 1.386 . S
C59 C57 1.393 . S
C59 C58 1.392 . S
C59 H76 0.930 . S
C60 C58 1.386 . S
C60 C62 1.395 . S
C60 H77 0.930 . S
C61 C57 1.395 . S
C61 C62 1.379 . S
C61 H78 0.930 . S
C62 C60 1.395 . S
C62 C61 1.379 . S
C62 H79 0.930 . S
C63 O46 1.264 . S
C63 O47 1.254 . S
C64 Eu0 2.848 . S
C64 O44 1.257 . S
C64 O49 1.249 . S
C64 C57 1.492 . S
C65 H30 0.931 . S
C65 C43 1.420 . S
C65 C66 1.351 . S
C66 H28 0.930 . S
C66 C34 1.423 . S
C66 C65 1.351 . S
C67 O51 1.276 . S
C67 O54 1.235 . S
C68 C69 1.393 . S
C68 C72 1.395 . S
C68 C75 1.492 . S
C69 C68 1.393 . S
C69 C70 1.392 . S
C69 H80 0.930 . S
C70 C69 1.392 . S
C70 C71 1.386 . S
C71 C70 1.386 . S
C71 C73 1.395 . S
C71 H81 0.930 . S
C72 C68 1.395 . S
C72 C73 1.379 . S
C72 H82 0.930 . S
C73 C71 1.395 . S
C73 C72 1.379 . S
C73 H83 0.930 . S
C74 O52 1.264 . S
C74 O53 1.254 . S
C75 Eu11 2.848 . S
C75 O50 1.257 . S
C75 O55 1.249 . S
C75 C68 1.492 . S
H76 C59 0.930 . S
H77 C60 0.930 . S
H78 C61 0.930 . S
H79 C62 0.930 . S
H80 C69 0.930 . S
H81 C71 0.930 . S
H82 C72 0.930 . S
H83 C73 0.930 . S
Eu84 N115 2.657 . S
Eu84 N122 2.609 . S
Eu84 O128 2.558 . S
Eu84 O129 2.612 . S
Eu84 O131 2.339 . S
Eu84 O132 2.563 . S
Eu84 O133 2.419 . S
Eu84 O135 2.380 . S
Eu84 O136 2.432 . S
Eu84 C148 2.848 . S
C85 C88 1.429 . S
C85 C89 1.411 . S
C85 N92 1.377 . S
C86 C88 1.420 . S
C86 C90 1.423 . S
C86 C98 1.392 . S
C87 C89 1.420 . S
C87 C90 1.351 . S
C87 H110 0.931 . S
C88 C85 1.429 . S
C88 C86 1.420 . S
C88 N96 1.362 . S
C89 C85 1.411 . S
C89 C87 1.420 . S
C89 C94 1.395 . S
C90 C86 1.423 . S
C90 C87 1.351 . S
C90 H102 0.930 . S
C91 C93 1.400 . S
C91 C94 1.386 . S
C91 H103 0.930 . S
N92 C85 1.377 . S
N92 C93 1.321 . S
N92 Eu95 2.609 . S
C93 C91 1.400 . S
C93 N92 1.321 . S
C93 H100 0.930 . S
C94 C89 1.395 . S
C94 C91 1.386 . S
C94 H113 0.930 . S
Eu95 N92 2.609 . S
Eu95 N96 2.657 . S
Eu95 O129 2.380 . S
Eu95 O130 2.432 . S
Eu95 O134 2.558 . S
Eu95 O135 2.612 . S
Eu95 O137 2.339 . S
Eu95 O138 2.563 . S
Eu95 O139 2.419 . S
Eu95 C159 2.848 . S
N96 C88 1.362 . S
N96 Eu95 2.657 . S
N96 C97 1.334 . S
C97 N96 1.334 . S
C97 C99 1.413 . S
C97 H104 0.929 . S
C98 C86 1.392 . S
C98 C99 1.367 . S
C98 H106 0.930 . S
C99 C97 1.413 . S
C99 C98 1.367 . S
C99 H101 0.930 . S
H100 C93 0.930 . S
H101 C99 0.930 . S
H102 C90 0.930 . S
H103 C91 0.930 . S
H104 C97 0.929 . S
H105 C119 0.930 . S
H106 C98 0.930 . S
H107 C125 0.930 . S
H108 C116 0.929 . S
H109 C123 0.930 . S
H110 C87 0.931 . S
H111 C117 0.930 . S
H112 C150 0.930 . S
H113 C94 0.930 . S
H114 C149 0.931 . S
N115 Eu84 2.657 . S
N115 C116 1.334 . S
N115 C120 1.362 . S
C116 H108 0.929 . S
C116 N115 1.334 . S
C116 C119 1.413 . S
C117 H111 0.930 . S
C117 C118 1.392 . S
C117 C119 1.367 . S
C118 C117 1.392 . S
C118 C120 1.420 . S
C118 C150 1.423 . S
C119 H105 0.930 . S
C119 C116 1.413 . S
C119 C117 1.367 . S
C120 N115 1.362 . S
C120 C118 1.420 . S
C120 C124 1.429 . S
H121 C126 0.930 . S
N122 Eu84 2.609 . S
N122 C124 1.377 . S
N122 C125 1.321 . S
C123 H109 0.930 . S
C123 C125 1.400 . S
C123 C126 1.386 . S
C124 C120 1.429 . S
C124 N122 1.377 . S
C124 C127 1.411 . S
C125 H107 0.930 . S
C125 N122 1.321 . S
C125 C123 1.400 . S
C126 H121 0.930 . S
C126 C123 1.386 . S
C126 C127 1.395 . S
C127 C124 1.411 . S
C127 C126 1.395 . S
C127 C149 1.420 . S
O128 Eu84 2.558 . S
O128 C148 1.257 . S
O129 Eu84 2.612 . S
O129 Eu95 2.380 . S
O129 C140 1.276 . S
O130 Eu95 2.432 . S
O130 C147 1.264 . S
O131 Eu84 2.339 . S
O131 C147 1.254 . S
O132 Eu84 2.563 . S
O132 C140 1.235 . S
O133 Eu84 2.419 . S
O133 C148 1.249 . S
O134 Eu95 2.558 . S
O134 C159 1.257 . S
O135 Eu84 2.380 . S
O135 Eu95 2.612 . S
O135 C151 1.276 . S
O136 Eu84 2.432 . S
O136 C158 1.264 . S
O137 Eu95 2.339 . S
O137 C158 1.254 . S
O138 Eu95 2.563 . S
O138 C151 1.235 . S
O139 Eu95 2.419 . S
O139 C159 1.249 . S
C140 O129 1.276 . S
C140 O132 1.235 . S
C141 C143 1.393 . S
C141 C145 1.395 . S
C141 C148 1.492 . S
C142 C143 1.392 . S
C142 C144 1.386 . S
C143 C141 1.393 . S
C143 C142 1.392 . S
C143 H160 0.930 . S
C144 C142 1.386 . S
C144 C146 1.395 . S
C144 H161 0.930 . S
C145 C141 1.395 . S
C145 C146 1.379 . S
C145 H162 0.930 . S
C146 C144 1.395 . S
C146 C145 1.379 . S
C146 H163 0.930 . S
C147 O130 1.264 . S
C147 O131 1.254 . S
C148 Eu84 2.848 . S
C148 O128 1.257 . S
C148 O133 1.249 . S
C148 C141 1.492 . S
C149 H114 0.931 . S
C149 C127 1.420 . S
C149 C150 1.351 . S
C150 H112 0.930 . S
C150 C118 1.423 . S
C150 C149 1.351 . S
C151 O135 1.276 . S
C151 O138 1.235 . S
C152 C153 1.393 . S
C152 C156 1.395 . S
C152 C159 1.492 . S
C153 C152 1.393 . S
C153 C154 1.392 . S
C153 H164 0.930 . S
C154 C153 1.392 . S
C154 C155 1.386 . S
C155 C154 1.386 . S
C155 C157 1.395 . S
C155 H165 0.930 . S
C156 C152 1.395 . S
C156 C157 1.379 . S
C156 H166 0.930 . S
C157 C155 1.395 . S
C157 C156 1.379 . S
C157 H167 0.930 . S
C158 O136 1.264 . S
C158 O137 1.254 . S
C159 Eu95 2.848 . S
C159 O134 1.257 . S
C159 O139 1.249 . S
C159 C152 1.492 . S
H160 C143 0.930 . S
H161 C144 0.930 . S
H162 C145 0.930 . S
H163 C146 0.930 . S
H164 C153 0.930 . S
H165 C155 0.930 . S
H166 C156 0.930 . S
H167 C157 0.930 . S
Eu168 N199 2.657 . S
Eu168 N206 2.609 . S
Eu168 O212 2.558 . S
Eu168 O213 2.612 . S
Eu168 O215 2.339 . S
Eu168 O216 2.563 . S
Eu168 O217 2.419 . S
Eu168 O219 2.380 . S
Eu168 O220 2.432 . S
Eu168 C232 2.848 . S
C169 C172 1.429 . S
C169 C173 1.411 . S
C169 N176 1.377 . S
C170 C172 1.420 . S
C170 C174 1.423 . S
C170 C182 1.392 . S
C171 C173 1.420 . S
C171 C174 1.351 . S
C171 H194 0.931 . S
C172 C169 1.429 . S
C172 C170 1.420 . S
C172 N180 1.362 . S
C173 C169 1.411 . S
C173 C171 1.420 . S
C173 C178 1.395 . S
C174 C170 1.423 . S
C174 C171 1.351 . S
C174 H186 0.930 . S
C175 C177 1.400 . S
C175 C178 1.386 . S
C175 H187 0.930 . S
N176 C169 1.377 . S
N176 C177 1.321 . S
N176 Eu179 2.609 . S
C177 C175 1.400 . S
C177 N176 1.321 . S
C177 H184 0.930 . S
C178 C173 1.395 . S
C178 C175 1.386 . S
C178 H197 0.930 . S
Eu179 N176 2.609 . S
Eu179 N180 2.657 . S
Eu179 O213 2.380 . S
Eu179 O214 2.432 . S
Eu179 O218 2.558 . S
Eu179 O219 2.612 . S
Eu179 O221 2.339 . S
Eu179 O222 2.563 . S
Eu179 O223 2.419 . S
Eu179 C243 2.848 . S
N180 C172 1.362 . S
N180 Eu179 2.657 . S
N180 C181 1.334 . S
C181 N180 1.334 . S
C181 C183 1.413 . S
C181 H188 0.929 . S
C182 C170 1.392 . S
C182 C183 1.367 . S
C182 H190 0.930 . S
C183 C181 1.413 . S
C183 C182 1.367 . S
C183 H185 0.930 . S
H184 C177 0.930 . S
H185 C183 0.930 . S
H186 C174 0.930 . S
H187 C175 0.930 . S
H188 C181 0.929 . S
H189 C203 0.930 . S
H190 C182 0.930 . S
H191 C209 0.930 . S
H192 C200 0.929 . S
H193 C207 0.930 . S
H194 C171 0.931 . S
H195 C201 0.930 . S
H196 C234 0.930 . S
H197 C178 0.930 . S
H198 C233 0.931 . S
N199 Eu168 2.657 . S
N199 C200 1.334 . S
N199 C204 1.362 . S
C200 H192 0.929 . S
C200 N199 1.334 . S
C200 C203 1.413 . S
C201 H195 0.930 . S
C201 C202 1.392 . S
C201 C203 1.367 . S
C202 C201 1.392 . S
C202 C204 1.420 . S
C202 C234 1.423 . S
C203 H189 0.930 . S
C203 C200 1.413 . S
C203 C201 1.367 . S
C204 N199 1.362 . S
C204 C202 1.420 . S
C204 C208 1.429 . S
H205 C210 0.930 . S
N206 Eu168 2.609 . S
N206 C208 1.377 . S
N206 C209 1.321 . S
C207 H193 0.930 . S
C207 C209 1.400 . S
C207 C210 1.386 . S
C208 C204 1.429 . S
C208 N206 1.377 . S
C208 C211 1.411 . S
C209 H191 0.930 . S
C209 N206 1.321 . S
C209 C207 1.400 . S
C210 H205 0.930 . S
C210 C207 1.386 . S
C210 C211 1.395 . S
C211 C208 1.411 . S
C211 C210 1.395 . S
C211 C233 1.420 . S
O212 Eu168 2.558 . S
O212 C232 1.257 . S
O213 Eu168 2.612 . S
O213 Eu179 2.380 . S
O213 C224 1.276 . S
O214 Eu179 2.432 . S
O214 C231 1.264 . S
O215 Eu168 2.339 . S
O215 C231 1.254 . S
O216 Eu168 2.563 . S
O216 C224 1.235 . S
O217 Eu168 2.419 . S
O217 C232 1.249 . S
O218 Eu179 2.558 . S
O218 C243 1.257 . S
O219 Eu168 2.380 . S
O219 Eu179 2.612 . S
O219 C235 1.276 . S
O220 Eu168 2.432 . S
O220 C242 1.264 . S
O221 Eu179 2.339 . S
O221 C242 1.254 . S
O222 Eu179 2.563 . S
O222 C235 1.235 . S
O223 Eu179 2.419 . S
O223 C243 1.249 . S
C224 O213 1.276 . S
C224 O216 1.235 . S
C225 C227 1.393 . S
C225 C229 1.395 . S
C225 C232 1.492 . S
C226 C227 1.392 . S
C226 C228 1.386 . S
C227 C225 1.393 . S
C227 C226 1.392 . S
C227 H244 0.930 . S
C228 C226 1.386 . S
C228 C230 1.395 . S
C228 H245 0.930 . S
C229 C225 1.395 . S
C229 C230 1.379 . S
C229 H246 0.930 . S
C230 C228 1.395 . S
C230 C229 1.379 . S
C230 H247 0.930 . S
C231 O214 1.264 . S
C231 O215 1.254 . S
C232 Eu168 2.848 . S
C232 O212 1.257 . S
C232 O217 1.249 . S
C232 C225 1.492 . S
C233 H198 0.931 . S
C233 C211 1.420 . S
C233 C234 1.351 . S
C234 H196 0.930 . S
C234 C202 1.423 . S
C234 C233 1.351 . S
C235 O219 1.276 . S
C235 O222 1.235 . S
C236 C237 1.393 . S
C236 C240 1.395 . S
C236 C243 1.492 . S
C237 C236 1.393 . S
C237 C238 1.392 . S
C237 H248 0.930 . S
C238 C237 1.392 . S
C238 C239 1.386 . S
C239 C238 1.386 . S
C239 C241 1.395 . S
C239 H249 0.930 . S
C240 C236 1.395 . S
C240 C241 1.379 . S
C240 H250 0.930 . S
C241 C239 1.395 . S
C241 C240 1.379 . S
C241 H251 0.930 . S
C242 O220 1.264 . S
C242 O221 1.254 . S
C243 Eu179 2.848 . S
C243 O218 1.257 . S
C243 O223 1.249 . S
C243 C236 1.492 . S
H244 C227 0.930 . S
H245 C228 0.930 . S
H246 C229 0.930 . S
H247 C230 0.930 . S
H248 C237 0.930 . S
H249 C239 0.930 . S
H250 C240 0.930 . S
H251 C241 0.930 . S
Eu252 N283 2.657 . S
Eu252 N290 2.609 . S
Eu252 O296 2.558 . S
Eu252 O297 2.612 . S
Eu252 O299 2.339 . S
Eu252 O300 2.563 . S
Eu252 O301 2.419 . S
Eu252 O303 2.380 . S
Eu252 O304 2.432 . S
Eu252 C316 2.848 . S
C253 C256 1.429 . S
C253 C257 1.411 . S
C253 N260 1.377 . S
C254 C256 1.420 . S
C254 C258 1.423 . S
C254 C266 1.392 . S
C255 C257 1.420 . S
C255 C258 1.351 . S
C255 H278 0.931 . S
C256 C253 1.429 . S
C256 C254 1.420 . S
C256 N264 1.362 . S
C257 C253 1.411 . S
C257 C255 1.420 . S
C257 C262 1.395 . S
C258 C254 1.423 . S
C258 C255 1.351 . S
C258 H270 0.930 . S
C259 C261 1.400 . S
C259 C262 1.386 . S
C259 H271 0.930 . S
N260 C253 1.377 . S
N260 C261 1.321 . S
N260 Eu263 2.609 . S
C261 C259 1.400 . S
C261 N260 1.321 . S
C261 H268 0.930 . S
C262 C257 1.395 . S
C262 C259 1.386 . S
C262 H281 0.930 . S
Eu263 N260 2.609 . S
Eu263 N264 2.657 . S
Eu263 O297 2.380 . S
Eu263 O298 2.432 . S
Eu263 O302 2.558 . S
Eu263 O303 2.612 . S
Eu263 O305 2.339 . S
Eu263 O306 2.563 . S
Eu263 O307 2.419 . S
Eu263 C327 2.848 . S
N264 C256 1.362 . S
N264 Eu263 2.657 . S
N264 C265 1.334 . S
C265 N264 1.334 . S
C265 C267 1.413 . S
C265 H272 0.929 . S
C266 C254 1.392 . S
C266 C267 1.367 . S
C266 H274 0.930 . S
C267 C265 1.413 . S
C267 C266 1.367 . S
C267 H269 0.930 . S
H268 C261 0.930 . S
H269 C267 0.930 . S
H270 C258 0.930 . S
H271 C259 0.930 . S
H272 C265 0.929 . S
H273 C287 0.930 . S
H274 C266 0.930 . S
H275 C293 0.930 . S
H276 C284 0.929 . S
H277 C291 0.930 . S
H278 C255 0.931 . S
H279 C285 0.930 . S
H280 C318 0.930 . S
H281 C262 0.930 . S
H282 C317 0.931 . S
N283 Eu252 2.657 . S
N283 C284 1.334 . S
N283 C288 1.362 . S
C284 H276 0.929 . S
C284 N283 1.334 . S
C284 C287 1.413 . S
C285 H279 0.930 . S
C285 C286 1.392 . S
C285 C287 1.367 . S
C286 C285 1.392 . S
C286 C288 1.420 . S
C286 C318 1.423 . S
C287 H273 0.930 . S
C287 C284 1.413 . S
C287 C285 1.367 . S
C288 N283 1.362 . S
C288 C286 1.420 . S
C288 C292 1.429 . S
H289 C294 0.930 . S
N290 Eu252 2.609 . S
N290 C292 1.377 . S
N290 C293 1.321 . S
C291 H277 0.930 . S
C291 C293 1.400 . S
C291 C294 1.386 . S
C292 C288 1.429 . S
C292 N290 1.377 . S
C292 C295 1.411 . S
C293 H275 0.930 . S
C293 N290 1.321 . S
C293 C291 1.400 . S
C294 H289 0.930 . S
C294 C291 1.386 . S
C294 C295 1.395 . S
C295 C292 1.411 . S
C295 C294 1.395 . S
C295 C317 1.420 . S
O296 Eu252 2.558 . S
O296 C316 1.257 . S
O297 Eu252 2.612 . S
O297 Eu263 2.380 . S
O297 C308 1.276 . S
O298 Eu263 2.432 . S
O298 C315 1.264 . S
O299 Eu252 2.339 . S
O299 C315 1.254 . S
O300 Eu252 2.563 . S
O300 C308 1.235 . S
O301 Eu252 2.419 . S
O301 C316 1.249 . S
O302 Eu263 2.558 . S
O302 C327 1.257 . S
O303 Eu252 2.380 . S
O303 Eu263 2.612 . S
O303 C319 1.276 . S
O304 Eu252 2.432 . S
O304 C326 1.264 . S
O305 Eu263 2.339 . S
O305 C326 1.254 . S
O306 Eu263 2.563 . S
O306 C319 1.235 . S
O307 Eu263 2.419 . S
O307 C327 1.249 . S
C308 O297 1.276 . S
C308 O300 1.235 . S
C309 C311 1.393 . S
C309 C313 1.395 . S
C309 C316 1.492 . S
C310 C311 1.392 . S
C310 C312 1.386 . S
C311 C309 1.393 . S
C311 C310 1.392 . S
C311 H328 0.930 . S
C312 C310 1.386 . S
C312 C314 1.395 . S
C312 H329 0.930 . S
C313 C309 1.395 . S
C313 C314 1.379 . S
C313 H330 0.930 . S
C314 C312 1.395 . S
C314 C313 1.379 . S
C314 H331 0.930 . S
C315 O298 1.264 . S
C315 O299 1.254 . S
C316 Eu252 2.848 . S
C316 O296 1.257 . S
C316 O301 1.249 . S
C316 C309 1.492 . S
C317 H282 0.931 . S
C317 C295 1.420 . S
C317 C318 1.351 . S
C318 H280 0.930 . S
C318 C286 1.423 . S
C318 C317 1.351 . S
C319 O303 1.276 . S
C319 O306 1.235 . S
C320 C321 1.393 . S
C320 C324 1.395 . S
C320 C327 1.492 . S
C321 C320 1.393 . S
C321 C322 1.392 . S
C321 H332 0.930 . S
C322 C321 1.392 . S
C322 C323 1.386 . S
C323 C322 1.386 . S
C323 C325 1.395 . S
C323 H333 0.930 . S
C324 C320 1.395 . S
C324 C325 1.379 . S
C324 H334 0.930 . S
C325 C323 1.395 . S
C325 C324 1.379 . S
C325 H335 0.930 . S
C326 O304 1.264 . S
C326 O305 1.254 . S
C327 Eu263 2.848 . S
C327 O302 1.257 . S
C327 O307 1.249 . S
C327 C320 1.492 . S
H328 C311 0.930 . S
H329 C312 0.930 . S
H330 C313 0.930 . S
H331 C314 0.930 . S
H332 C321 0.930 . S
H333 C323 0.930 . S
H334 C324 0.930 . S
H335 C325 0.930 . S
Eu336 N367 2.657 . S
Eu336 N374 2.609 . S
Eu336 O380 2.558 . S
Eu336 O381 2.612 . S
Eu336 O383 2.339 . S
Eu336 O384 2.563 . S
Eu336 O385 2.419 . S
Eu336 O387 2.380 . S
Eu336 O388 2.432 . S
Eu336 C400 2.848 . S
C337 C340 1.429 . S
C337 C341 1.411 . S
C337 N344 1.377 . S
C338 C340 1.420 . S
C338 C342 1.423 . S
C338 C350 1.392 . S
C339 C341 1.420 . S
C339 C342 1.351 . S
C339 H362 0.931 . S
C340 C337 1.429 . S
C340 C338 1.420 . S
C340 N348 1.362 . S
C341 C337 1.411 . S
C341 C339 1.420 . S
C341 C346 1.395 . S
C342 C338 1.423 . S
C342 C339 1.351 . S
C342 H354 0.930 . S
C343 C345 1.400 . S
C343 C346 1.386 . S
C343 H355 0.930 . S
N344 C337 1.377 . S
N344 C345 1.321 . S
N344 Eu347 2.609 . S
C345 C343 1.400 . S
C345 N344 1.321 . S
C345 H352 0.930 . S
C346 C341 1.395 . S
C346 C343 1.386 . S
C346 H365 0.930 . S
Eu347 N344 2.609 . S
Eu347 N348 2.657 . S
Eu347 O381 2.380 . S
Eu347 O382 2.432 . S
Eu347 O386 2.558 . S
Eu347 O387 2.612 . S
Eu347 O389 2.339 . S
Eu347 O390 2.563 . S
Eu347 O391 2.419 . S
Eu347 C411 2.848 . S
N348 C340 1.362 . S
N348 Eu347 2.657 . S
N348 C349 1.334 . S
C349 N348 1.334 . S
C349 C351 1.413 . S
C349 H356 0.929 . S
C350 C338 1.392 . S
C350 C351 1.367 . S
C350 H358 0.930 . S
C351 C349 1.413 . S
C351 C350 1.367 . S
C351 H353 0.930 . S
H352 C345 0.930 . S
H353 C351 0.930 . S
H354 C342 0.930 . S
H355 C343 0.930 . S
H356 C349 0.929 . S
H357 C371 0.930 . S
H358 C350 0.930 . S
H359 C377 0.930 . S
H360 C368 0.929 . S
H361 C375 0.930 . S
H362 C339 0.931 . S
H363 C369 0.930 . S
H364 C402 0.930 . S
H365 C346 0.930 . S
H366 C401 0.931 . S
N367 Eu336 2.657 . S
N367 C368 1.334 . S
N367 C372 1.362 . S
C368 H360 0.929 . S
C368 N367 1.334 . S
C368 C371 1.413 . S
C369 H363 0.930 . S
C369 C370 1.392 . S
C369 C371 1.367 . S
C370 C369 1.392 . S
C370 C372 1.420 . S
C370 C402 1.423 . S
C371 H357 0.930 . S
C371 C368 1.413 . S
C371 C369 1.367 . S
C372 N367 1.362 . S
C372 C370 1.420 . S
C372 C376 1.429 . S
H373 C378 0.930 . S
N374 Eu336 2.609 . S
N374 C376 1.377 . S
N374 C377 1.321 . S
C375 H361 0.930 . S
C375 C377 1.400 . S
C375 C378 1.386 . S
C376 C372 1.429 . S
C376 N374 1.377 . S
C376 C379 1.411 . S
C377 H359 0.930 . S
C377 N374 1.321 . S
C377 C375 1.400 . S
C378 H373 0.930 . S
C378 C375 1.386 . S
C378 C379 1.395 . S
C379 C376 1.411 . S
C379 C378 1.395 . S
C379 C401 1.420 . S
O380 Eu336 2.558 . S
O380 C400 1.257 . S
O381 Eu336 2.612 . S
O381 Eu347 2.380 . S
O381 C392 1.276 . S
O382 Eu347 2.432 . S
O382 C399 1.264 . S
O383 Eu336 2.339 . S
O383 C399 1.254 . S
O384 Eu336 2.563 . S
O384 C392 1.235 . S
O385 Eu336 2.419 . S
O385 C400 1.249 . S
O386 Eu347 2.558 . S
O386 C411 1.257 . S
O387 Eu336 2.380 . S
O387 Eu347 2.612 . S
O387 C403 1.276 . S
O388 Eu336 2.432 . S
O388 C410 1.264 . S
O389 Eu347 2.339 . S
O389 C410 1.254 . S
O390 Eu347 2.563 . S
O390 C403 1.235 . S
O391 Eu347 2.419 . S
O391 C411 1.249 . S
C392 O381 1.276 . S
C392 O384 1.235 . S
C393 C395 1.393 . S
C393 C397 1.395 . S
C393 C400 1.492 . S
C394 C395 1.392 . S
C394 C396 1.386 . S
C395 C393 1.393 . S
C395 C394 1.392 . S
C395 H412 0.930 . S
C396 C394 1.386 . S
C396 C398 1.395 . S
C396 H413 0.930 . S
C397 C393 1.395 . S
C397 C398 1.379 . S
C397 H414 0.930 . S
C398 C396 1.395 . S
C398 C397 1.379 . S
C398 H415 0.930 . S
C399 O382 1.264 . S
C399 O383 1.254 . S
C400 Eu336 2.848 . S
C400 O380 1.257 . S
C400 O385 1.249 . S
C400 C393 1.492 . S
C401 H366 0.931 . S
C401 C379 1.420 . S
C401 C402 1.351 . S
C402 H364 0.930 . S
C402 C370 1.423 . S
C402 C401 1.351 . S
C403 O387 1.276 . S
C403 O390 1.235 . S
C404 C405 1.393 . S
C404 C408 1.395 . S
C404 C411 1.492 . S
C405 C404 1.393 . S
C405 C406 1.392 . S
C405 H416 0.930 . S
C406 C405 1.392 . S
C406 C407 1.386 . S
C407 C406 1.386 . S
C407 C409 1.395 . S
C407 H417 0.930 . S
C408 C404 1.395 . S
C408 C409 1.379 . S
C408 H418 0.930 . S
C409 C407 1.395 . S
C409 C408 1.379 . S
C409 H419 0.930 . S
C410 O388 1.264 . S
C410 O389 1.254 . S
C411 Eu347 2.848 . S
C411 O386 1.257 . S
C411 O391 1.249 . S
C411 C404 1.492 . S
H412 C395 0.930 . S
H413 C396 0.930 . S
H414 C397 0.930 . S
H415 C398 0.930 . S
H416 C405 0.930 . S
H417 C407 0.930 . S
H418 C408 0.930 . S
H419 C409 0.930 . S
Eu420 N451 2.657 . S
Eu420 N458 2.609 . S
Eu420 O464 2.558 . S
Eu420 O465 2.612 . S
Eu420 O467 2.339 . S
Eu420 O468 2.563 . S
Eu420 O469 2.419 . S
Eu420 O471 2.380 . S
Eu420 O472 2.432 . S
Eu420 C484 2.848 . S
C421 C424 1.429 . S
C421 C425 1.411 . S
C421 N428 1.377 . S
C422 C424 1.420 . S
C422 C426 1.423 . S
C422 C434 1.392 . S
C423 C425 1.420 . S
C423 C426 1.351 . S
C423 H446 0.931 . S
C424 C421 1.429 . S
C424 C422 1.420 . S
C424 N432 1.362 . S
C425 C421 1.411 . S
C425 C423 1.420 . S
C425 C430 1.395 . S
C426 C422 1.423 . S
C426 C423 1.351 . S
C426 H438 0.930 . S
C427 C429 1.400 . S
C427 C430 1.386 . S
C427 H439 0.930 . S
N428 C421 1.377 . S
N428 C429 1.321 . S
N428 Eu431 2.609 . S
C429 C427 1.400 . S
C429 N428 1.321 . S
C429 H436 0.930 . S
C430 C425 1.395 . S
C430 C427 1.386 . S
C430 H449 0.930 . S
Eu431 N428 2.609 . S
Eu431 N432 2.657 . S
Eu431 O465 2.380 . S
Eu431 O466 2.432 . S
Eu431 O470 2.558 . S
Eu431 O471 2.612 . S
Eu431 O473 2.339 . S
Eu431 O474 2.563 . S
Eu431 O475 2.419 . S
Eu431 C495 2.848 . S
N432 C424 1.362 . S
N432 Eu431 2.657 . S
N432 C433 1.334 . S
C433 N432 1.334 . S
C433 C435 1.413 . S
C433 H440 0.929 . S
C434 C422 1.392 . S
C434 C435 1.367 . S
C434 H442 0.930 . S
C435 C433 1.413 . S
C435 C434 1.367 . S
C435 H437 0.930 . S
H436 C429 0.930 . S
H437 C435 0.930 . S
H438 C426 0.930 . S
H439 C427 0.930 . S
H440 C433 0.929 . S
H441 C455 0.930 . S
H442 C434 0.930 . S
H443 C461 0.930 . S
H444 C452 0.929 . S
H445 C459 0.930 . S
H446 C423 0.931 . S
H447 C453 0.930 . S
H448 C486 0.930 . S
H449 C430 0.930 . S
H450 C485 0.931 . S
N451 Eu420 2.657 . S
N451 C452 1.334 . S
N451 C456 1.362 . S
C452 H444 0.929 . S
C452 N451 1.334 . S
C452 C455 1.413 . S
C453 H447 0.930 . S
C453 C454 1.392 . S
C453 C455 1.367 . S
C454 C453 1.392 . S
C454 C456 1.420 . S
C454 C486 1.423 . S
C455 H441 0.930 . S
C455 C452 1.413 . S
C455 C453 1.367 . S
C456 N451 1.362 . S
C456 C454 1.420 . S
C456 C460 1.429 . S
H457 C462 0.930 . S
N458 Eu420 2.609 . S
N458 C460 1.377 . S
N458 C461 1.321 . S
C459 H445 0.930 . S
C459 C461 1.400 . S
C459 C462 1.386 . S
C460 C456 1.429 . S
C460 N458 1.377 . S
C460 C463 1.411 . S
C461 H443 0.930 . S
C461 N458 1.321 . S
C461 C459 1.400 . S
C462 H457 0.930 . S
C462 C459 1.386 . S
C462 C463 1.395 . S
C463 C460 1.411 . S
C463 C462 1.395 . S
C463 C485 1.420 . S
O464 Eu420 2.558 . S
O464 C484 1.257 . S
O465 Eu420 2.612 . S
O465 Eu431 2.380 . S
O465 C476 1.276 . S
O466 Eu431 2.432 . S
O466 C483 1.264 . S
O467 Eu420 2.339 . S
O467 C483 1.254 . S
O468 Eu420 2.563 . S
O468 C476 1.235 . S
O469 Eu420 2.419 . S
O469 C484 1.249 . S
O470 Eu431 2.558 . S
O470 C495 1.257 . S
O471 Eu420 2.380 . S
O471 Eu431 2.612 . S
O471 C487 1.276 . S
O472 Eu420 2.432 . S
O472 C494 1.264 . S
O473 Eu431 2.339 . S
O473 C494 1.254 . S
O474 Eu431 2.563 . S
O474 C487 1.235 . S
O475 Eu431 2.419 . S
O475 C495 1.249 . S
C476 O465 1.276 . S
C476 O468 1.235 . S
C477 C479 1.393 . S
C477 C481 1.395 . S
C477 C484 1.492 . S
C478 C479 1.392 . S
C478 C480 1.386 . S
C479 C477 1.393 . S
C479 C478 1.392 . S
C479 H496 0.930 . S
C480 C478 1.386 . S
C480 C482 1.395 . S
C480 H497 0.930 . S
C481 C477 1.395 . S
C481 C482 1.379 . S
C481 H498 0.930 . S
C482 C480 1.395 . S
C482 C481 1.379 . S
C482 H499 0.930 . S
C483 O466 1.264 . S
C483 O467 1.254 . S
C484 Eu420 2.848 . S
C484 O464 1.257 . S
C484 O469 1.249 . S
C484 C477 1.492 . S
C485 H450 0.931 . S
C485 C463 1.420 . S
C485 C486 1.351 . S
C486 H448 0.930 . S
C486 C454 1.423 . S
C486 C485 1.351 . S
C487 O471 1.276 . S
C487 O474 1.235 . S
C488 C489 1.393 . S
C488 C492 1.395 . S
C488 C495 1.492 . S
C489 C488 1.393 . S
C489 C490 1.392 . S
C489 H500 0.930 . S
C490 C489 1.392 . S
C490 C491 1.386 . S
C491 C490 1.386 . S
C491 C493 1.395 . S
C491 H501 0.930 . S
C492 C488 1.395 . S
C492 C493 1.379 . S
C492 H502 0.930 . S
C493 C491 1.395 . S
C493 C492 1.379 . S
C493 H503 0.930 . S
C494 O472 1.264 . S
C494 O473 1.254 . S
C495 Eu431 2.848 . S
C495 O470 1.257 . S
C495 O475 1.249 . S
C495 C488 1.492 . S
H496 C479 0.930 . S
H497 C480 0.930 . S
H498 C481 0.930 . S
H499 C482 0.930 . S
H500 C489 0.930 . S
H501 C491 0.930 . S
H502 C492 0.930 . S
H503 C493 0.930 . S
Eu504 N535 2.657 . S
Eu504 N542 2.609 . S
Eu504 O548 2.558 . S
Eu504 O549 2.612 . S
Eu504 O551 2.339 . S
Eu504 O552 2.563 . S
Eu504 O553 2.419 . S
Eu504 O555 2.380 . S
Eu504 O556 2.432 . S
Eu504 C568 2.848 . S
C505 C508 1.429 . S
C505 C509 1.411 . S
C505 N512 1.377 . S
C506 C508 1.420 . S
C506 C510 1.423 . S
C506 C518 1.392 . S
C507 C509 1.420 . S
C507 C510 1.351 . S
C507 H530 0.931 . S
C508 C505 1.429 . S
C508 C506 1.420 . S
C508 N516 1.362 . S
C509 C505 1.411 . S
C509 C507 1.420 . S
C509 C514 1.395 . S
C510 C506 1.423 . S
C510 C507 1.351 . S
C510 H522 0.930 . S
C511 C513 1.400 . S
C511 C514 1.386 . S
C511 H523 0.930 . S
N512 C505 1.377 . S
N512 C513 1.321 . S
N512 Eu515 2.609 . S
C513 C511 1.400 . S
C513 N512 1.321 . S
C513 H520 0.930 . S
C514 C509 1.395 . S
C514 C511 1.386 . S
C514 H533 0.930 . S
Eu515 N512 2.609 . S
Eu515 N516 2.657 . S
Eu515 O549 2.380 . S
Eu515 O550 2.432 . S
Eu515 O554 2.558 . S
Eu515 O555 2.612 . S
Eu515 O557 2.339 . S
Eu515 O558 2.563 . S
Eu515 O559 2.419 . S
Eu515 C579 2.848 . S
N516 C508 1.362 . S
N516 Eu515 2.657 . S
N516 C517 1.334 . S
C517 N516 1.334 . S
C517 C519 1.413 . S
C517 H524 0.929 . S
C518 C506 1.392 . S
C518 C519 1.367 . S
C518 H526 0.930 . S
C519 C517 1.413 . S
C519 C518 1.367 . S
C519 H521 0.930 . S
H520 C513 0.930 . S
H521 C519 0.930 . S
H522 C510 0.930 . S
H523 C511 0.930 . S
H524 C517 0.929 . S
H525 C539 0.930 . S
H526 C518 0.930 . S
H527 C545 0.930 . S
H528 C536 0.929 . S
H529 C543 0.930 . S
H530 C507 0.931 . S
H531 C537 0.930 . S
H532 C570 0.930 . S
H533 C514 0.930 . S
H534 C569 0.931 . S
N535 Eu504 2.657 . S
N535 C536 1.334 . S
N535 C540 1.362 . S
C536 H528 0.929 . S
C536 N535 1.334 . S
C536 C539 1.413 . S
C537 H531 0.930 . S
C537 C538 1.392 . S
C537 C539 1.367 . S
C538 C537 1.392 . S
C538 C540 1.420 . S
C538 C570 1.423 . S
C539 H525 0.930 . S
C539 C536 1.413 . S
C539 C537 1.367 . S
C540 N535 1.362 . S
C540 C538 1.420 . S
C540 C544 1.429 . S
H541 C546 0.930 . S
N542 Eu504 2.609 . S
N542 C544 1.377 . S
N542 C545 1.321 . S
C543 H529 0.930 . S
C543 C545 1.400 . S
C543 C546 1.386 . S
C544 C540 1.429 . S
C544 N542 1.377 . S
C544 C547 1.411 . S
C545 H527 0.930 . S
C545 N542 1.321 . S
C545 C543 1.400 . S
C546 H541 0.930 . S
C546 C543 1.386 . S
C546 C547 1.395 . S
C547 C544 1.411 . S
C547 C546 1.395 . S
C547 C569 1.420 . S
O548 Eu504 2.558 . S
O548 C568 1.257 . S
O549 Eu504 2.612 . S
O549 Eu515 2.380 . S
O549 C560 1.276 . S
O550 Eu515 2.432 . S
O550 C567 1.264 . S
O551 Eu504 2.339 . S
O551 C567 1.254 . S
O552 Eu504 2.563 . S
O552 C560 1.235 . S
O553 Eu504 2.419 . S
O553 C568 1.249 . S
O554 Eu515 2.558 . S
O554 C579 1.257 . S
O555 Eu504 2.380 . S
O555 Eu515 2.612 . S
O555 C571 1.276 . S
O556 Eu504 2.432 . S
O556 C578 1.264 . S
O557 Eu515 2.339 . S
O557 C578 1.254 . S
O558 Eu515 2.563 . S
O558 C571 1.235 . S
O559 Eu515 2.419 . S
O559 C579 1.249 . S
C560 O549 1.276 . S
C560 O552 1.235 . S
C561 C563 1.393 . S
C561 C565 1.395 . S
C561 C568 1.492 . S
C562 C563 1.392 . S
C562 C564 1.386 . S
C563 C561 1.393 . S
C563 C562 1.392 . S
C563 H580 0.930 . S
C564 C562 1.386 . S
C564 C566 1.395 . S
C564 H581 0.930 . S
C565 C561 1.395 . S
C565 C566 1.379 . S
C565 H582 0.930 . S
C566 C564 1.395 . S
C566 C565 1.379 . S
C566 H583 0.930 . S
C567 O550 1.264 . S
C567 O551 1.254 . S
C568 Eu504 2.848 . S
C568 O548 1.257 . S
C568 O553 1.249 . S
C568 C561 1.492 . S
C569 H534 0.931 . S
C569 C547 1.420 . S
C569 C570 1.351 . S
C570 H532 0.930 . S
C570 C538 1.423 . S
C570 C569 1.351 . S
C571 O555 1.276 . S
C571 O558 1.235 . S
C572 C573 1.393 . S
C572 C576 1.395 . S
C572 C579 1.492 . S
C573 C572 1.393 . S
C573 C574 1.392 . S
C573 H584 0.930 . S
C574 C573 1.392 . S
C574 C575 1.386 . S
C575 C574 1.386 . S
C575 C577 1.395 . S
C575 H585 0.930 . S
C576 C572 1.395 . S
C576 C577 1.379 . S
C576 H586 0.930 . S
C577 C575 1.395 . S
C577 C576 1.379 . S
C577 H587 0.930 . S
C578 O556 1.264 . S
C578 O557 1.254 . S
C579 Eu515 2.848 . S
C579 O554 1.257 . S
C579 O559 1.249 . S
C579 C572 1.492 . S
H580 C563 0.930 . S
H581 C564 0.930 . S
H582 C565 0.930 . S
H583 C566 0.930 . S
H584 C573 0.930 . S
H585 C575 0.930 . S
H586 C576 0.930 . S
H587 C577 0.930 . S
Eu588 N619 2.657 . S
Eu588 N626 2.609 . S
Eu588 O632 2.558 . S
Eu588 O633 2.612 . S
Eu588 O635 2.339 . S
Eu588 O636 2.563 . S
Eu588 O637 2.419 . S
Eu588 O639 2.380 . S
Eu588 O640 2.432 . S
Eu588 C652 2.848 . S
C589 C592 1.429 . S
C589 C593 1.411 . S
C589 N596 1.377 . S
C590 C592 1.420 . S
C590 C594 1.423 . S
C590 C602 1.392 . S
C591 C593 1.420 . S
C591 C594 1.351 . S
C591 H614 0.931 . S
C592 C589 1.429 . S
C592 C590 1.420 . S
C592 N600 1.362 . S
C593 C589 1.411 . S
C593 C591 1.420 . S
C593 C598 1.395 . S
C594 C590 1.423 . S
C594 C591 1.351 . S
C594 H606 0.930 . S
C595 C597 1.400 . S
C595 C598 1.386 . S
C595 H607 0.930 . S
N596 C589 1.377 . S
N596 C597 1.321 . S
N596 Eu599 2.609 . S
C597 C595 1.400 . S
C597 N596 1.321 . S
C597 H604 0.930 . S
C598 C593 1.395 . S
C598 C595 1.386 . S
C598 H617 0.930 . S
Eu599 N596 2.609 . S
Eu599 N600 2.657 . S
Eu599 O633 2.380 . S
Eu599 O634 2.432 . S
Eu599 O638 2.558 . S
Eu599 O639 2.612 . S
Eu599 O641 2.339 . S
Eu599 O642 2.563 . S
Eu599 O643 2.419 . S
Eu599 C663 2.848 . S
N600 C592 1.362 . S
N600 Eu599 2.657 . S
N600 C601 1.334 . S
C601 N600 1.334 . S
C601 C603 1.413 . S
C601 H608 0.929 . S
C602 C590 1.392 . S
C602 C603 1.367 . S
C602 H610 0.930 . S
C603 C601 1.413 . S
C603 C602 1.367 . S
C603 H605 0.930 . S
H604 C597 0.930 . S
H605 C603 0.930 . S
H606 C594 0.930 . S
H607 C595 0.930 . S
H608 C601 0.929 . S
H609 C623 0.930 . S
H610 C602 0.930 . S
H611 C629 0.930 . S
H612 C620 0.929 . S
H613 C627 0.930 . S
H614 C591 0.931 . S
H615 C621 0.930 . S
H616 C654 0.930 . S
H617 C598 0.930 . S
H618 C653 0.931 . S
N619 Eu588 2.657 . S
N619 C620 1.334 . S
N619 C624 1.362 . S
C620 H612 0.929 . S
C620 N619 1.334 . S
C620 C623 1.413 . S
C621 H615 0.930 . S
C621 C622 1.392 . S
C621 C623 1.367 . S
C622 C621 1.392 . S
C622 C624 1.420 . S
C622 C654 1.423 . S
C623 H609 0.930 . S
C623 C620 1.413 . S
C623 C621 1.367 . S
C624 N619 1.362 . S
C624 C622 1.420 . S
C624 C628 1.429 . S
H625 C630 0.930 . S
N626 Eu588 2.609 . S
N626 C628 1.377 . S
N626 C629 1.321 . S
C627 H613 0.930 . S
C627 C629 1.400 . S
C627 C630 1.386 . S
C628 C624 1.429 . S
C628 N626 1.377 . S
C628 C631 1.411 . S
C629 H611 0.930 . S
C629 N626 1.321 . S
C629 C627 1.400 . S
C630 H625 0.930 . S
C630 C627 1.386 . S
C630 C631 1.395 . S
C631 C628 1.411 . S
C631 C630 1.395 . S
C631 C653 1.420 . S
O632 Eu588 2.558 . S
O632 C652 1.257 . S
O633 Eu588 2.612 . S
O633 Eu599 2.380 . S
O633 C644 1.276 . S
O634 Eu599 2.432 . S
O634 C651 1.264 . S
O635 Eu588 2.339 . S
O635 C651 1.254 . S
O636 Eu588 2.563 . S
O636 C644 1.235 . S
O637 Eu588 2.419 . S
O637 C652 1.249 . S
O638 Eu599 2.558 . S
O638 C663 1.257 . S
O639 Eu588 2.380 . S
O639 Eu599 2.612 . S
O639 C655 1.276 . S
O640 Eu588 2.432 . S
O640 C662 1.264 . S
O641 Eu599 2.339 . S
O641 C662 1.254 . S
O642 Eu599 2.563 . S
O642 C655 1.235 . S
O643 Eu599 2.419 . S
O643 C663 1.249 . S
C644 O633 1.276 . S
C644 O636 1.235 . S
C645 C647 1.393 . S
C645 C649 1.395 . S
C645 C652 1.492 . S
C646 C647 1.392 . S
C646 C648 1.386 . S
C647 C645 1.393 . S
C647 C646 1.392 . S
C647 H664 0.930 . S
C648 C646 1.386 . S
C648 C650 1.395 . S
C648 H665 0.930 . S
C649 C645 1.395 . S
C649 C650 1.379 . S
C649 H666 0.930 . S
C650 C648 1.395 . S
C650 C649 1.379 . S
C650 H667 0.930 . S
C651 O634 1.264 . S
C651 O635 1.254 . S
C652 Eu588 2.848 . S
C652 O632 1.257 . S
C652 O637 1.249 . S
C652 C645 1.492 . S
C653 H618 0.931 . S
C653 C631 1.420 . S
C653 C654 1.351 . S
C654 H616 0.930 . S
C654 C622 1.423 . S
C654 C653 1.351 . S
C655 O639 1.276 . S
C655 O642 1.235 . S
C656 C657 1.393 . S
C656 C660 1.395 . S
C656 C663 1.492 . S
C657 C656 1.393 . S
C657 C658 1.392 . S
C657 H668 0.930 . S
C658 C657 1.392 . S
C658 C659 1.386 . S
C659 C658 1.386 . S
C659 C661 1.395 . S
C659 H669 0.930 . S
C660 C656 1.395 . S
C660 C661 1.379 . S
C660 H670 0.930 . S
C661 C659 1.395 . S
C661 C660 1.379 . S
C661 H671 0.930 . S
C662 O640 1.264 . S
C662 O641 1.254 . S
C663 Eu599 2.848 . S
C663 O638 1.257 . S
C663 O643 1.249 . S
C663 C656 1.492 . S
H664 C647 0.930 . S
H665 C648 0.930 . S
H666 C649 0.930 . S
H667 C650 0.930 . S
H668 C657 0.930 . S
H669 C659 0.930 . S
H670 C660 0.930 . S
H671 C661 0.930 . S
Fe672 O673 1.886 1_455 S
Fe672 O676 1.715 . S
Fe672 O681 2.077 1_455 S
Fe672 O686 1.935 . S
Fe672 O692 2.077 1_455 S
Fe672 O701 1.935 . S
O673 Fe672 1.886 1_655 S
O673 Fe675 1.715 1_545 S
Fe674 O676 1.886 . S
Fe674 O677 1.715 1_545 S
Fe674 O684 1.935 1_545 S
Fe674 O685 2.077 . S
Fe674 O691 1.935 1_545 S
Fe674 O700 2.077 . S
Fe675 O673 1.715 1_565 S
Fe675 O678 1.886 . S
Fe675 O682 1.935 1_565 S
Fe675 O687 2.077 . S
Fe675 O693 1.935 1_565 S
Fe675 O697 2.077 . S
O676 Fe672 1.715 . S
O676 Fe674 1.886 . S
O677 Fe674 1.715 1_565 S
O677 Fe679 1.886 1_455 S
O678 Fe675 1.886 . S
O678 Fe679 1.715 . S
Fe679 O677 1.886 1_655 S
Fe679 O678 1.715 . S
Fe679 O683 2.077 1_655 S
Fe679 O688 1.935 . S
Fe679 O690 2.077 1_655 S
Fe679 O698 1.935 . S
C680 O692 1.381 . S
C680 O693 1.421 . S
O681 Fe672 2.077 1_655 S
O681 C694 1.381 . S
O682 Fe675 1.935 1_545 S
O682 C694 1.421 . S
O683 Fe679 2.077 1_455 S
O683 C699 1.381 . S
O684 Fe674 1.935 1_565 S
O684 C699 1.421 . S
O685 Fe674 2.077 . S
O685 C689 1.381 . S
O686 Fe672 1.935 . S
O686 C689 1.421 . S
O687 Fe675 2.077 . S
O687 C695 1.381 . S
O688 Fe679 1.935 . S
O688 C695 1.421 . S
C689 O685 1.381 . S
C689 O686 1.421 . S
O690 Fe679 2.077 1_455 S
O690 C702 1.381 . S
O691 Fe674 1.935 1_565 S
O691 C702 1.421 . S
O692 Fe672 2.077 1_655 S
O692 C680 1.381 . S
O693 Fe675 1.935 1_545 S
O693 C680 1.421 . S
C694 O681 1.381 . S
C694 O682 1.421 . S
C695 O687 1.381 . S
C695 O688 1.421 . S
C696 O697 1.381 . S
C696 O698 1.421 . S
O697 Fe675 2.077 . S
O697 C696 1.381 . S
O698 Fe679 1.935 . S
O698 C696 1.421 . S
C699 O683 1.381 . S
C699 O684 1.421 . S
O700 Fe674 2.077 . S
O700 C703 1.381 . S
O701 Fe672 1.935 . S
O701 C703 1.421 . S
C702 O690 1.381 . S
C702 O691 1.421 . S
C703 O700 1.381 . S
C703 O701 1.421 . S
Fe704 O705 1.886 . S
Fe704 O708 1.714 . S
Fe704 O713 2.077 1_554 S
Fe704 O718 1.935 1_554 S
Fe704 O724 2.077 . S
Fe704 O733 1.935 . S
O705 Fe704 1.886 . S
O705 Fe707 1.715 1_565 S
Fe706 O708 1.887 1_556 S
Fe706 O709 1.715 1_565 S
Fe706 O716 1.935 1_565 S
Fe706 O717 2.077 . S
Fe706 O723 1.935 1_566 S
Fe706 O732 2.077 1_556 S
Fe707 O705 1.715 1_545 S
Fe707 O710 1.886 1_554 S
Fe707 O714 1.935 1_544 S
Fe707 O719 2.077 1_554 S
Fe707 O725 1.935 1_545 S
Fe707 O729 2.077 . S
O708 Fe704 1.714 . S
O708 Fe706 1.887 1_554 S
O709 Fe706 1.715 1_545 S
O709 Fe711 1.886 . S
O710 Fe707 1.886 1_556 S
O710 Fe711 1.715 . S
Fe711 O709 1.886 . S
Fe711 O710 1.715 . S
Fe711 O715 2.077 . S
Fe711 O720 1.935 . S
Fe711 O722 2.077 1_556 S
Fe711 O730 1.935 1_556 S
C712 O724 1.381 . S
C712 O725 1.421 . S
O713 Fe704 2.077 1_556 S
O713 C726 1.381 . S
O714 Fe707 1.935 1_566 S
O714 C726 1.421 . S
O715 Fe711 2.077 . S
O715 C731 1.381 . S
O716 Fe706 1.935 1_545 S
O716 C731 1.421 . S
O717 Fe706 2.077 . S
O717 C721 1.381 . S
O718 Fe704 1.935 1_556 S
O718 C721 1.421 . S
O719 Fe707 2.077 1_556 S
O719 C727 1.381 . S
O720 Fe711 1.935 . S
O720 C727 1.421 . S
C721 O717 1.381 . S
C721 O718 1.421 . S
O722 Fe711 2.077 1_554 S
O722 C734 1.381 . S
O723 Fe706 1.935 1_544 S
O723 C734 1.421 . S
O724 Fe704 2.077 . S
O724 C712 1.381 . S
O725 Fe707 1.935 1_565 S
O725 C712 1.421 . S
C726 O713 1.381 . S
C726 O714 1.421 . S
C727 O719 1.381 . S
C727 O720 1.421 . S
C728 O729 1.381 . S
C728 O730 1.421 . S
O729 Fe707 2.077 . S
O729 C728 1.381 . S
O730 Fe711 1.935 1_554 S
O730 C728 1.421 . S
C731 O715 1.381 . S
C731 O716 1.421 . S
O732 Fe706 2.077 1_554 S
O732 C735 1.381 . S
O733 Fe704 1.935 . S
O733 C735 1.421 . S
C734 O722 1.381 . S
C734 O723 1.421 . S
C735 O732 1.381 . S
C735 O733 1.421 . S
Fe736 O737 1.886 1_455 S
Fe736 O740 1.715 . S
Fe736 O745 2.077 1_455 S
Fe736 O750 1.935 . S
Fe736 O756 2.077 1_456 S
Fe736 O765 1.935 1_556 S
O737 Fe736 1.886 1_655 S
O737 Fe739 1.715 . S
Fe738 O740 1.886 1_554 S
Fe738 O741 1.715 . S
Fe738 O748 1.935 1_554 S
Fe738 O749 2.077 1_554 S
Fe738 O755 1.935 . S
Fe738 O764 2.077 . S
Fe739 O737 1.715 . S
Fe739 O742 1.886 1_556 S
Fe739 O746 1.935 . S
Fe739 O751 2.077 . S
Fe739 O757 1.935 1_556 S
Fe739 O761 2.077 1_556 S
O740 Fe736 1.715 . S
O740 Fe738 1.886 1_556 S
O741 Fe738 1.715 . S
O741 Fe743 1.886 1_455 S
O742 Fe739 1.886 1_554 S
O742 Fe743 1.714 . S
Fe743 O741 1.886 1_655 S
Fe743 O742 1.714 . S
Fe743 O747 2.077 1_654 S
Fe743 O752 1.935 1_554 S
Fe743 O754 2.077 1_655 S
Fe743 O762 1.935 . S
C744 O756 1.381 . S
C744 O757 1.421 . S
O745 Fe736 2.077 1_655 S
O745 C758 1.381 . S
O746 Fe739 1.935 . S
O746 C758 1.421 . S
O747 Fe743 2.077 1_456 S
O747 C763 1.381 . S
O748 Fe738 1.935 1_556 S
O748 C763 1.421 . S
O749 Fe738 2.077 1_556 S
O749 C753 1.381 . S
O750 Fe736 1.935 . S
O750 C753 1.421 . S
O751 Fe739 2.077 . S
O751 C759 1.381 . S
O752 Fe743 1.935 1_556 S
O752 C759 1.421 . S
C753 O749 1.381 . S
C753 O750 1.421 . S
O754 Fe743 2.077 1_455 S
O754 C766 1.381 . S
O755 Fe738 1.935 . S
O755 C766 1.421 . S
O756 Fe736 2.077 1_654 S
O756 C744 1.381 . S
O757 Fe739 1.935 1_554 S
O757 C744 1.421 . S
C758 O745 1.381 . S
C758 O746 1.421 . S
C759 O751 1.381 . S
C759 O752 1.421 . S
C760 O761 1.381 . S
C760 O762 1.421 . S
O761 Fe739 2.077 1_554 S
O761 C760 1.381 . S
O762 Fe743 1.935 . S
O762 C760 1.421 . S
C763 O747 1.381 . S
C763 O748 1.421 . S
O764 Fe738 2.077 . S
O764 C767 1.381 . S
O765 Fe736 1.935 1_554 S
O765 C767 1.421 . S
C766 O754 1.381 . S
C766 O755 1.421 . S
C767 O764 1.381 . S
C767 O765 1.421 . S
Fe768 O769 1.886 . S
Fe768 O772 1.715 . S
Fe768 O777 2.077 . S
Fe768 O782 1.935 . S
Fe768 O788 2.077 . S
Fe768 O797 1.935 . S
O769 Fe768 1.886 . S
O769 Fe771 1.715 1_556 S
Fe770 O772 1.886 . S
Fe770 O773 1.715 1_556 S
Fe770 O780 1.935 1_556 S
Fe770 O781 2.077 . S
Fe770 O787 1.935 1_556 S
Fe770 O796 2.077 . S
Fe771 O769 1.715 1_554 S
Fe771 O774 1.886 . S
Fe771 O778 1.935 1_554 S
Fe771 O783 2.077 . S
Fe771 O789 1.935 1_554 S
Fe771 O793 2.077 . S
O772 Fe768 1.715 . S
O772 Fe770 1.886 . S
O773 Fe770 1.715 1_554 S
O773 Fe775 1.886 . S
O774 Fe771 1.886 . S
O774 Fe775 1.715 . S
Fe775 O773 1.886 . S
Fe775 O774 1.715 . S
Fe775 O779 2.077 . S
Fe775 O784 1.935 . S
Fe775 O786 2.077 . S
Fe775 O794 1.935 . S
C776 O788 1.381 . S
C776 O789 1.421 . S
O777 Fe768 2.077 . S
O777 C790 1.381 . S
O778 Fe771 1.935 1_556 S
O778 C790 1.421 . S
O779 Fe775 2.077 . S
O779 C795 1.381 . S
O780 Fe770 1.935 1_554 S
O780 C795 1.421 . S
O781 Fe770 2.077 . S
O781 C785 1.381 . S
O782 Fe768 1.935 . S
O782 C785 1.421 . S
O783 Fe771 2.077 . S
O783 C791 1.381 . S
O784 Fe775 1.935 . S
O784 C791 1.421 . S
C785 O781 1.381 . S
C785 O782 1.421 . S
O786 Fe775 2.077 . S
O786 C798 1.381 . S
O787 Fe770 1.935 1_554 S
O787 C798 1.421 . S
O788 Fe768 2.077 . S
O788 C776 1.381 . S
O789 Fe771 1.935 1_556 S
O789 C776 1.421 . S
C790 O777 1.381 . S
C790 O778 1.421 . S
C791 O783 1.381 . S
C791 O784 1.421 . S
C792 O793 1.381 . S
C792 O794 1.421 . S
O793 Fe771 2.077 . S
O793 C792 1.381 . S
O794 Fe775 1.935 . S
O794 C792 1.421 . S
C795 O779 1.381 . S
C795 O780 1.421 . S
O796 Fe770 2.077 . S
O796 C799 1.381 . S
O797 Fe768 1.935 . S
O797 C799 1.421 . S
C798 O786 1.381 . S
C798 O787 1.421 . S
C799 O796 1.381 . S
C799 O797 1.421 . S
Fe800 O801 1.886 . S
Fe800 O804 1.715 . S
Fe800 O809 2.077 1_655 S
Fe800 O814 1.935 1_655 S
Fe800 O820 2.077 . S
Fe800 O829 1.935 . S
O801 Fe800 1.886 . S
O801 Fe803 1.715 1_655 S
Fe802 O804 1.886 . S
Fe802 O805 1.715 1_655 S
Fe802 O812 1.935 1_655 S
Fe802 O813 2.077 1_655 S
Fe802 O819 1.935 . S
Fe802 O828 2.077 . S
Fe803 O801 1.715 1_455 S
Fe803 O806 1.886 . S
Fe803 O810 1.935 . S
Fe803 O815 2.077 . S
Fe803 O821 1.935 1_455 S
Fe803 O825 2.077 1_455 S
O804 Fe800 1.715 . S
O804 Fe802 1.886 . S
O805 Fe802 1.715 1_455 S
O805 Fe807 1.886 . S
O806 Fe803 1.886 . S
O806 Fe807 1.715 . S
Fe807 O805 1.886 . S
Fe807 O806 1.715 . S
Fe807 O811 2.077 . S
Fe807 O816 1.935 . S
Fe807 O818 2.077 1_455 S
Fe807 O826 1.935 1_455 S
C808 O820 1.381 . S
C808 O821 1.421 . S
O809 Fe800 2.077 1_455 S
O809 C822 1.381 . S
O810 Fe803 1.935 . S
O810 C822 1.421 . S
O811 Fe807 2.077 . S
O811 C827 1.381 . S
O812 Fe802 1.935 1_455 S
O812 C827 1.421 . S
O813 Fe802 2.077 1_455 S
O813 C817 1.381 . S
O814 Fe800 1.935 1_455 S
O814 C817 1.421 . S
O815 Fe803 2.077 . S
O815 C823 1.381 . S
O816 Fe807 1.935 . S
O816 C823 1.421 . S
C817 O813 1.381 . S
C817 O814 1.421 . S
O818 Fe807 2.077 1_655 S
O818 C830 1.381 . S
O819 Fe802 1.935 . S
O819 C830 1.421 . S
O820 Fe800 2.077 . S
O820 C808 1.381 . S
O821 Fe803 1.935 1_655 S
O821 C808 1.421 . S
C822 O809 1.381 . S
C822 O810 1.421 . S
C823 O815 1.381 . S
C823 O816 1.421 . S
C824 O825 1.381 . S
C824 O826 1.421 . S
O825 Fe803 2.077 1_655 S
O825 C824 1.381 . S
O826 Fe807 1.935 1_655 S
O826 C824 1.421 . S
C827 O811 1.381 . S
C827 O812 1.421 . S
O828 Fe802 2.077 . S
O828 C831 1.381 . S
O829 Fe800 1.935 . S
O829 C831 1.421 . S
C830 O818 1.381 . S
C830 O819 1.421 . S
C831 O828 1.381 . S
C831 O829 1.421 . S
Fe832 O833 1.886 . S
Fe832 O836 1.715 . S
Fe832 O841 2.077 . S
Fe832 O846 1.935 . S
Fe832 O852 2.077 . S
Fe832 O861 1.935 . S
O833 Fe832 1.886 . S
O833 Fe835 1.715 . S
Fe834 O836 1.886 1_545 S
Fe834 O837 1.715 . S
Fe834 O844 1.935 . S
Fe834 O845 2.077 1_545 S
Fe834 O851 1.935 . S
Fe834 O860 2.077 1_545 S
Fe835 O833 1.715 . S
Fe835 O838 1.886 1_565 S
Fe835 O842 1.935 . S
Fe835 O847 2.077 1_565 S
Fe835 O853 1.935 . S
Fe835 O857 2.077 1_565 S
O836 Fe832 1.715 . S
O836 Fe834 1.886 1_565 S
O837 Fe834 1.715 . S
O837 Fe839 1.886 . S
O838 Fe835 1.886 1_545 S
O838 Fe839 1.715 . S
Fe839 O837 1.886 . S
Fe839 O838 1.715 . S
Fe839 O843 2.077 . S
Fe839 O848 1.935 . S
Fe839 O850 2.077 . S
Fe839 O858 1.935 . S
C840 O852 1.381 . S
C840 O853 1.421 . S
O841 Fe832 2.077 . S
O841 C854 1.381 . S
O842 Fe835 1.935 . S
O842 C854 1.421 . S
O843 Fe839 2.077 . S
O843 C859 1.381 . S
O844 Fe834 1.935 . S
O844 C859 1.421 . S
O845 Fe834 2.077 1_565 S
O845 C849 1.381 . S
O846 Fe832 1.935 . S
O846 C849 1.421 . S
O847 Fe835 2.077 1_545 S
O847 C855 1.381 . S
O848 Fe839 1.935 . S
O848 C855 1.421 . S
C849 O845 1.381 . S
C849 O846 1.421 . S
O850 Fe839 2.077 . S
O850 C862 1.381 . S
O851 Fe834 1.935 . S
O851 C862 1.421 . S
O852 Fe832 2.077 . S
O852 C840 1.381 . S
O853 Fe835 1.935 . S
O853 C840 1.421 . S
C854 O841 1.381 . S
C854 O842 1.421 . S
C855 O847 1.381 . S
C855 O848 1.421 . S
C856 O857 1.381 . S
C856 O858 1.421 . S
O857 Fe835 2.077 1_545 S
O857 C856 1.381 . S
O858 Fe839 1.935 . S
O858 C856 1.421 . S
C859 O843 1.381 . S
C859 O844 1.421 . S
O860 Fe834 2.077 1_565 S
O860 C863 1.381 . S
O861 Fe832 1.935 . S
O861 C863 1.421 . S
C862 O850 1.381 . S
C862 O851 1.421 . S
C863 O860 1.381 . S
C863 O861 1.421 . S
C864 C865 1.391 . S
C864 C866 1.394 . S
C864 H880 0.931 . S
C865 C864 1.391 . S
C865 C869 1.376 . S
C866 C864 1.394 . S
C866 C867 1.369 . S
C866 C870 1.531 . S
C867 C866 1.369 . S
C867 C868 1.410 . S
C867 C875 1.503 . S
C868 C867 1.410 . S
C868 C869 1.392 . S
C868 C871 1.511 . S
C869 C865 1.376 . S
C869 C868 1.392 . S
C869 H881 0.929 . S
C870 C866 1.531 . S
C870 H882 0.960 . S
C870 H883 0.962 . S
C870 H884 0.960 . S
C871 C868 1.511 . S
C871 H885 0.961 . S
C871 H886 0.961 . S
C871 H887 0.961 . S
C872 C873 1.370 . S
C872 C874 1.363 . S
C872 H888 0.931 . S
C873 C872 1.370 . S
C873 C877 1.408 . S
C874 C872 1.363 . S
C874 C875 1.370 . S
C874 C878 1.524 . S
C875 C867 1.503 . S
C875 C874 1.370 . S
C875 C876 1.403 . S
C876 C875 1.403 . S
C876 C877 1.404 . S
C876 C879 1.539 . S
C877 C873 1.408 . S
C877 C876 1.404 . S
C877 H889 0.930 . S
C878 C874 1.524 . S
C878 H890 0.956 . S
C878 H891 0.961 . S
C878 H892 0.961 . S
C879 C876 1.539 . S
C879 H893 0.958 . S
C879 H894 0.961 . S
C879 H895 0.960 . S
H880 C864 0.931 . S
H881 C869 0.929 . S
H882 C870 0.960 . S
H883 C870 0.962 . S
H884 C870 0.960 . S
H885 C871 0.961 . S
H886 C871 0.961 . S
H887 C871 0.961 . S
H888 C872 0.931 . S
H889 C877 0.930 . S
H890 C878 0.956 . S
H891 C878 0.961 . S
H892 C878 0.961 . S
H893 C879 0.958 . S
H894 C879 0.961 . S
H895 C879 0.960 . S
C896 C897 1.391 . S
C896 C898 1.394 . S
C896 H912 0.931 . S
C897 C896 1.391 . S
C897 C901 1.376 . S
C898 C896 1.394 . S
C898 C899 1.369 . S
C898 C902 1.531 . S
C899 C898 1.369 . S
C899 C900 1.410 . S
C899 C907 1.503 . S
C900 C899 1.410 . S
C900 C901 1.392 . S
C900 C903 1.511 . S
C901 C897 1.376 . S
C901 C900 1.392 . S
C901 H913 0.929 . S
C902 C898 1.531 . S
C902 H914 0.960 . S
C902 H915 0.962 . S
C902 H916 0.960 . S
C903 C900 1.511 . S
C903 H917 0.961 . S
C903 H918 0.961 . S
C903 H919 0.961 . S
C904 C905 1.370 . S
C904 C906 1.363 . S
C904 H920 0.931 . S
C905 C904 1.370 . S
C905 C909 1.408 . S
C906 C904 1.363 . S
C906 C907 1.370 . S
C906 C910 1.524 . S
C907 C899 1.503 . S
C907 C906 1.370 . S
C907 C908 1.403 . S
C908 C907 1.403 . S
C908 C909 1.404 . S
C908 C911 1.539 . S
C909 C905 1.408 . S
C909 C908 1.404 . S
C909 H921 0.930 . S
C910 C906 1.524 . S
C910 H922 0.956 . S
C910 H923 0.961 . S
C910 H924 0.961 . S
C911 C908 1.539 . S
C911 H925 0.958 . S
C911 H926 0.961 . S
C911 H927 0.960 . S
H912 C896 0.931 . S
H913 C901 0.929 . S
H914 C902 0.960 . S
H915 C902 0.962 . S
H916 C902 0.960 . S
H917 C903 0.961 . S
H918 C903 0.961 . S
H919 C903 0.961 . S
H920 C904 0.931 . S
H921 C909 0.930 . S
H922 C910 0.956 . S
H923 C910 0.961 . S
H924 C910 0.961 . S
H925 C911 0.958 . S
H926 C911 0.961 . S
H927 C911 0.960 . S
C928 C929 1.391 . S
C928 C930 1.394 . S
C928 H944 0.931 . S
C929 C928 1.391 . S
C929 C933 1.376 . S
C930 C928 1.394 . S
C930 C931 1.369 . S
C930 C934 1.531 . S
C931 C930 1.369 . S
C931 C932 1.410 . S
C931 C939 1.503 . S
C932 C931 1.410 . S
C932 C933 1.392 . S
C932 C935 1.511 . S
C933 C929 1.376 . S
C933 C932 1.392 . S
C933 H945 0.929 . S
C934 C930 1.531 . S
C934 H946 0.960 . S
C934 H947 0.962 . S
C934 H948 0.960 . S
C935 C932 1.511 . S
C935 H949 0.961 . S
C935 H950 0.961 . S
C935 H951 0.961 . S
C936 C937 1.370 . S
C936 C938 1.363 . S
C936 H952 0.931 . S
C937 C936 1.370 . S
C937 C941 1.408 . S
C938 C936 1.363 . S
C938 C939 1.370 . S
C938 C942 1.524 . S
C939 C931 1.503 . S
C939 C938 1.370 . S
C939 C940 1.403 . S
C940 C939 1.403 . S
C940 C941 1.404 . S
C940 C943 1.539 . S
C941 C937 1.408 . S
C941 C940 1.404 . S
C941 H953 0.930 . S
C942 C938 1.524 . S
C942 H954 0.956 . S
C942 H955 0.961 . S
C942 H956 0.961 . S
C943 C940 1.539 . S
C943 H957 0.958 . S
C943 H958 0.961 . S
C943 H959 0.960 . S
H944 C928 0.931 . S
H945 C933 0.929 . S
H946 C934 0.960 . S
H947 C934 0.962 . S
H948 C934 0.960 . S
H949 C935 0.961 . S
H950 C935 0.961 . S
H951 C935 0.961 . S
H952 C936 0.931 . S
H953 C941 0.930 . S
H954 C942 0.956 . S
H955 C942 0.961 . S
H956 C942 0.961 . S
H957 C943 0.958 . S
H958 C943 0.961 . S
H959 C943 0.960 . S
C960 C961 1.391 . S
C960 C962 1.394 . S
C960 H976 0.931 . S
C961 C960 1.391 . S
C961 C965 1.376 . S
C962 C960 1.394 . S
C962 C963 1.369 . S
C962 C966 1.531 . S
C963 C962 1.369 . S
C963 C964 1.410 . S
C963 C971 1.503 . S
C964 C963 1.410 . S
C964 C965 1.392 . S
C964 C967 1.511 . S
C965 C961 1.376 . S
C965 C964 1.392 . S
C965 H977 0.929 . S
C966 C962 1.531 . S
C966 H978 0.960 . S
C966 H979 0.962 . S
C966 H980 0.960 . S
C967 C964 1.511 . S
C967 H981 0.961 . S
C967 H982 0.961 . S
C967 H983 0.961 . S
C968 C969 1.370 . S
C968 C970 1.363 . S
C968 H984 0.931 . S
C969 C968 1.370 . S
C969 C973 1.408 . S
C970 C968 1.363 . S
C970 C971 1.370 . S
C970 C974 1.524 . S
C971 C963 1.503 . S
C971 C970 1.370 . S
C971 C972 1.403 . S
C972 C971 1.403 . S
C972 C973 1.404 . S
C972 C975 1.539 . S
C973 C969 1.408 . S
C973 C972 1.404 . S
C973 H985 0.930 . S
C974 C970 1.524 . S
C974 H986 0.956 . S
C974 H987 0.961 . S
C974 H988 0.961 . S
C975 C972 1.539 . S
C975 H989 0.958 . S
C975 H990 0.961 . S
C975 H991 0.960 . S
H976 C960 0.931 . S
H977 C965 0.929 . S
H978 C966 0.960 . S
H979 C966 0.962 . S
H980 C966 0.960 . S
H981 C967 0.961 . S
H982 C967 0.961 . S
H983 C967 0.961 . S
H984 C968 0.931 . S
H985 C973 0.930 . S
H986 C974 0.956 . S
H987 C974 0.961 . S
H988 C974 0.961 . S
H989 C975 0.958 . S
H990 C975 0.961 . S
H991 C975 0.960 . S
C992 C993 1.391 . S
C992 C994 1.394 . S
C992 H1008 0.931 . S
C993 C992 1.391 . S
C993 C997 1.376 . S
C994 C992 1.394 . S
C994 C995 1.369 . S
C994 C998 1.531 . S
C995 C994 1.369 . S
C995 C996 1.410 . S
C995 C1003 1.503 . S
C996 C995 1.410 . S
C996 C997 1.392 . S
C996 C999 1.511 . S
C997 C993 1.376 . S
C997 C996 1.392 . S
C997 H1009 0.929 . S
C998 C994 1.531 . S
C998 H1010 0.960 . S
C998 H1011 0.962 . S
C998 H1012 0.960 . S
C999 C996 1.511 . S
C999 H1013 0.961 . S
C999 H1014 0.961 . S
C999 H1015 0.961 . S
C1000 C1001 1.370 . S
C1000 C1002 1.363 . S
C1000 H1016 0.931 . S
C1001 C1000 1.370 . S
C1001 C1005 1.408 . S
C1002 C1000 1.363 . S
C1002 C1003 1.370 . S
C1002 C1006 1.524 . S
C1003 C995 1.503 . S
C1003 C1002 1.370 . S
C1003 C1004 1.403 . S
C1004 C1003 1.403 . S
C1004 C1005 1.404 . S
C1004 C1007 1.539 . S
C1005 C1001 1.408 . S
C1005 C1004 1.404 . S
C1005 H1017 0.930 . S
C1006 C1002 1.524 . S
C1006 H1018 0.956 . S
C1006 H1019 0.961 . S
C1006 H1020 0.961 . S
C1007 C1004 1.539 . S
C1007 H1021 0.958 . S
C1007 H1022 0.961 . S
C1007 H1023 0.960 . S
H1008 C992 0.931 . S
H1009 C997 0.929 . S
H1010 C998 0.960 . S
H1011 C998 0.962 . S
H1012 C998 0.960 . S
H1013 C999 0.961 . S
H1014 C999 0.961 . S
H1015 C999 0.961 . S
H1016 C1000 0.931 . S
H1017 C1005 0.930 . S
H1018 C1006 0.956 . S
H1019 C1006 0.961 . S
H1020 C1006 0.961 . S
H1021 C1007 0.958 . S
H1022 C1007 0.961 . S
H1023 C1007 0.960 . S
C1024 C1025 1.391 . S
C1024 C1026 1.394 . S
C1024 H1040 0.931 . S
C1025 C1024 1.391 . S
C1025 C1029 1.376 . S
C1026 C1024 1.394 . S
C1026 C1027 1.369 . S
C1026 C1030 1.531 . S
C1027 C1026 1.369 . S
C1027 C1028 1.410 . S
C1027 C1035 1.503 . S
C1028 C1027 1.410 . S
C1028 C1029 1.392 . S
C1028 C1031 1.511 . S
C1029 C1025 1.376 . S
C1029 C1028 1.392 . S
C1029 H1041 0.929 . S
C1030 C1026 1.531 . S
C1030 H1042 0.960 . S
C1030 H1043 0.962 . S
C1030 H1044 0.960 . S
C1031 C1028 1.511 . S
C1031 H1045 0.961 . S
C1031 H1046 0.961 . S
C1031 H1047 0.961 . S
C1032 C1033 1.370 . S
C1032 C1034 1.363 . S
C1032 H1048 0.931 . S
C1033 C1032 1.370 . S
C1033 C1037 1.408 . S
C1034 C1032 1.363 . S
C1034 C1035 1.370 . S
C1034 C1038 1.524 . S
C1035 C1027 1.503 . S
C1035 C1034 1.370 . S
C1035 C1036 1.403 . S
C1036 C1035 1.403 . S
C1036 C1037 1.404 . S
C1036 C1039 1.539 . S
C1037 C1033 1.408 . S
C1037 C1036 1.404 . S
C1037 H1049 0.930 . S
C1038 C1034 1.524 . S
C1038 H1050 0.956 . S
C1038 H1051 0.961 . S
C1038 H1052 0.961 . S
C1039 C1036 1.539 . S
C1039 H1053 0.958 . S
C1039 H1054 0.961 . S
C1039 H1055 0.960 . S
H1040 C1024 0.931 . S
H1041 C1029 0.929 . S
H1042 C1030 0.960 . S
H1043 C1030 0.962 . S
H1044 C1030 0.960 . S
H1045 C1031 0.961 . S
H1046 C1031 0.961 . S
H1047 C1031 0.961 . S
H1048 C1032 0.931 . S
H1049 C1037 0.930 . S
H1050 C1038 0.956 . S
H1051 C1038 0.961 . S
H1052 C1038 0.961 . S
H1053 C1039 0.958 . S
H1054 C1039 0.961 . S
H1055 C1039 0.960 . S
C1056 C1057 1.391 . S
C1056 C1058 1.394 . S
C1056 H1072 0.931 . S
C1057 C1056 1.391 . S
C1057 C1061 1.376 . S
C1058 C1056 1.394 . S
C1058 C1059 1.369 . S
C1058 C1062 1.531 . S
C1059 C1058 1.369 . S
C1059 C1060 1.410 . S
C1059 C1067 1.503 . S
C1060 C1059 1.410 . S
C1060 C1061 1.392 . S
C1060 C1063 1.511 . S
C1061 C1057 1.376 . S
C1061 C1060 1.392 . S
C1061 H1073 0.929 . S
C1062 C1058 1.531 . S
C1062 H1074 0.960 . S
C1062 H1075 0.962 . S
C1062 H1076 0.960 . S
C1063 C1060 1.511 . S
C1063 H1077 0.961 . S
C1063 H1078 0.961 . S
C1063 H1079 0.961 . S
C1064 C1065 1.370 . S
C1064 C1066 1.363 . S
C1064 H1080 0.931 . S
C1065 C1064 1.370 . S
C1065 C1069 1.408 . S
C1066 C1064 1.363 . S
C1066 C1067 1.370 . S
C1066 C1070 1.524 . S
C1067 C1059 1.503 . S
C1067 C1066 1.370 . S
C1067 C1068 1.403 . S
C1068 C1067 1.403 . S
C1068 C1069 1.404 . S
C1068 C1071 1.539 . S
C1069 C1065 1.408 . S
C1069 C1068 1.404 . S
C1069 H1081 0.930 . S
C1070 C1066 1.524 . S
C1070 H1082 0.956 . S
C1070 H1083 0.961 . S
C1070 H1084 0.961 . S
C1071 C1068 1.539 . S
C1071 H1085 0.958 . S
C1071 H1086 0.961 . S
C1071 H1087 0.960 . S
H1072 C1056 0.931 . S
H1073 C1061 0.929 . S
H1074 C1062 0.960 . S
H1075 C1062 0.962 . S
H1076 C1062 0.960 . S
H1077 C1063 0.961 . S
H1078 C1063 0.961 . S
H1079 C1063 0.961 . S
H1080 C1064 0.931 . S
H1081 C1069 0.930 . S
H1082 C1070 0.956 . S
H1083 C1070 0.961 . S
H1084 C1070 0.961 . S
H1085 C1071 0.958 . S
H1086 C1071 0.961 . S
H1087 C1071 0.960 . S
C1088 C1089 1.391 . S
C1088 C1090 1.394 . S
C1088 H1104 0.931 . S
C1089 C1088 1.391 . S
C1089 C1093 1.376 . S
C1090 C1088 1.394 . S
C1090 C1091 1.369 . S
C1090 C1094 1.531 . S
C1091 C1090 1.369 . S
C1091 C1092 1.410 . S
C1091 C1099 1.503 . S
C1092 C1091 1.410 . S
C1092 C1093 1.392 . S
C1092 C1095 1.511 . S
C1093 C1089 1.376 . S
C1093 C1092 1.392 . S
C1093 H1105 0.929 . S
C1094 C1090 1.531 . S
C1094 H1106 0.960 . S
C1094 H1107 0.962 . S
C1094 H1108 0.960 . S
C1095 C1092 1.511 . S
C1095 H1109 0.961 . S
C1095 H1110 0.961 . S
C1095 H1111 0.961 . S
C1096 C1097 1.370 . S
C1096 C1098 1.363 . S
C1096 H1112 0.931 . S
C1097 C1096 1.370 . S
C1097 C1101 1.408 . S
C1098 C1096 1.363 . S
C1098 C1099 1.370 . S
C1098 C1102 1.524 . S
C1099 C1091 1.503 . S
C1099 C1098 1.370 . S
C1099 C1100 1.403 . S
C1100 C1099 1.403 . S
C1100 C1101 1.404 . S
C1100 C1103 1.539 . S
C1101 C1097 1.408 . S
C1101 C1100 1.404 . S
C1101 H1113 0.930 . S
C1102 C1098 1.524 . S
C1102 H1114 0.956 . S
C1102 H1115 0.961 . S
C1102 H1116 0.961 . S
C1103 C1100 1.539 . S
C1103 H1117 0.958 . S
C1103 H1118 0.961 . S
C1103 H1119 0.960 . S
H1104 C1088 0.931 . S
H1105 C1093 0.929 . S
H1106 C1094 0.960 . S
H1107 C1094 0.962 . S
H1108 C1094 0.960 . S
H1109 C1095 0.961 . S
H1110 C1095 0.961 . S
H1111 C1095 0.961 . S
H1112 C1096 0.931 . S
H1113 C1101 0.930 . S
H1114 C1102 0.956 . S
H1115 C1102 0.961 . S
H1116 C1102 0.961 . S
H1117 C1103 0.958 . S
H1118 C1103 0.961 . S
H1119 C1103 0.960 . S
C1120 C1121 1.391 . S
C1120 C1122 1.394 . S
C1120 H1136 0.931 . S
C1121 C1120 1.391 . S
C1121 C1125 1.376 . S
C1122 C1120 1.394 . S
C1122 C1123 1.369 . S
C1122 C1126 1.531 . S
C1123 C1122 1.369 . S
C1123 C1124 1.410 . S
C1123 C1131 1.503 . S
C1124 C1123 1.410 . S
C1124 C1125 1.392 . S
C1124 C1127 1.511 . S
C1125 C1121 1.376 . S
C1125 C1124 1.392 . S
C1125 H1137 0.929 . S
C1126 C1122 1.531 . S
C1126 H1138 0.960 . S
C1126 H1139 0.962 . S
C1126 H1140 0.960 . S
C1127 C1124 1.511 . S
C1127 H1141 0.961 . S
C1127 H1142 0.961 . S
C1127 H1143 0.961 . S
C1128 C1129 1.370 . S
C1128 C1130 1.363 . S
C1128 H1144 0.931 . S
C1129 C1128 1.370 . S
C1129 C1133 1.408 . S
C1130 C1128 1.363 . S
C1130 C1131 1.370 . S
C1130 C1134 1.524 . S
C1131 C1123 1.503 . S
C1131 C1130 1.370 . S
C1131 C1132 1.403 . S
C1132 C1131 1.403 . S
C1132 C1133 1.404 . S
C1132 C1135 1.539 . S
C1133 C1129 1.408 . S
C1133 C1132 1.404 . S
C1133 H1145 0.930 . S
C1134 C1130 1.524 . S
C1134 H1146 0.956 . S
C1134 H1147 0.961 . S
C1134 H1148 0.961 . S
C1135 C1132 1.539 . S
C1135 H1149 0.958 . S
C1135 H1150 0.961 . S
C1135 H1151 0.960 . S
H1136 C1120 0.931 . S
H1137 C1125 0.929 . S
H1138 C1126 0.960 . S
H1139 C1126 0.962 . S
H1140 C1126 0.960 . S
H1141 C1127 0.961 . S
H1142 C1127 0.961 . S
H1143 C1127 0.961 . S
H1144 C1128 0.931 . S
H1145 C1133 0.930 . S
H1146 C1134 0.956 . S
H1147 C1134 0.961 . S
H1148 C1134 0.961 . S
H1149 C1135 0.958 . S
H1150 C1135 0.961 . S
H1151 C1135 0.960 . S
C1152 C1153 1.391 . S
C1152 C1154 1.394 . S
C1152 H1168 0.931 . S
C1153 C1152 1.391 . S
C1153 C1157 1.376 . S
C1154 C1152 1.394 . S
C1154 C1155 1.369 . S
C1154 C1158 1.531 . S
C1155 C1154 1.369 . S
C1155 C1156 1.410 . S
C1155 C1163 1.503 . S
C1156 C1155 1.410 . S
C1156 C1157 1.392 . S
C1156 C1159 1.511 . S
C1157 C1153 1.376 . S
C1157 C1156 1.392 . S
C1157 H1169 0.929 . S
C1158 C1154 1.531 . S
C1158 H1170 0.960 . S
C1158 H1171 0.962 . S
C1158 H1172 0.960 . S
C1159 C1156 1.511 . S
C1159 H1173 0.961 . S
C1159 H1174 0.961 . S
C1159 H1175 0.961 . S
C1160 C1161 1.370 . S
C1160 C1162 1.363 . S
C1160 H1176 0.931 . S
C1161 C1160 1.370 . S
C1161 C1165 1.408 . S
C1162 C1160 1.363 . S
C1162 C1163 1.370 . S
C1162 C1166 1.524 . S
C1163 C1155 1.503 . S
C1163 C1162 1.370 . S
C1163 C1164 1.403 . S
C1164 C1163 1.403 . S
C1164 C1165 1.404 . S
C1164 C1167 1.539 . S
C1165 C1161 1.408 . S
C1165 C1164 1.404 . S
C1165 H1177 0.930 . S
C1166 C1162 1.524 . S
C1166 H1178 0.956 . S
C1166 H1179 0.961 . S
C1166 H1180 0.961 . S
C1167 C1164 1.539 . S
C1167 H1181 0.958 . S
C1167 H1182 0.961 . S
C1167 H1183 0.960 . S
H1168 C1152 0.931 . S
H1169 C1157 0.929 . S
H1170 C1158 0.960 . S
H1171 C1158 0.962 . S
H1172 C1158 0.960 . S
H1173 C1159 0.961 . S
H1174 C1159 0.961 . S
H1175 C1159 0.961 . S
H1176 C1160 0.931 . S
H1177 C1165 0.930 . S
H1178 C1166 0.956 . S
H1179 C1166 0.961 . S
H1180 C1166 0.961 . S
H1181 C1167 0.958 . S
H1182 C1167 0.961 . S
H1183 C1167 0.960 . S
C1184 C1185 1.391 . S
C1184 C1186 1.394 . S
C1184 H1200 0.931 . S
C1185 C1184 1.391 . S
C1185 C1189 1.376 . S
C1186 C1184 1.394 . S
C1186 C1187 1.369 . S
C1186 C1190 1.531 . S
C1187 C1186 1.369 . S
C1187 C1188 1.410 . S
C1187 C1195 1.503 . S
C1188 C1187 1.410 . S
C1188 C1189 1.392 . S
C1188 C1191 1.511 . S
C1189 C1185 1.376 . S
C1189 C1188 1.392 . S
C1189 H1201 0.929 . S
C1190 C1186 1.531 . S
C1190 H1202 0.960 . S
C1190 H1203 0.962 . S
C1190 H1204 0.960 . S
C1191 C1188 1.511 . S
C1191 H1205 0.961 . S
C1191 H1206 0.961 . S
C1191 H1207 0.961 . S
C1192 C1193 1.370 . S
C1192 C1194 1.363 . S
C1192 H1208 0.931 . S
C1193 C1192 1.370 . S
C1193 C1197 1.408 . S
C1194 C1192 1.363 . S
C1194 C1195 1.370 . S
C1194 C1198 1.524 . S
C1195 C1187 1.503 . S
C1195 C1194 1.370 . S
C1195 C1196 1.403 . S
C1196 C1195 1.403 . S
C1196 C1197 1.404 . S
C1196 C1199 1.539 . S
C1197 C1193 1.408 . S
C1197 C1196 1.404 . S
C1197 H1209 0.930 . S
C1198 C1194 1.524 . S
C1198 H1210 0.956 . S
C1198 H1211 0.961 . S
C1198 H1212 0.961 . S
C1199 C1196 1.539 . S
C1199 H1213 0.958 . S
C1199 H1214 0.961 . S
C1199 H1215 0.960 . S
H1200 C1184 0.931 . S
H1201 C1189 0.929 . S
H1202 C1190 0.960 . S
H1203 C1190 0.962 . S
H1204 C1190 0.960 . S
H1205 C1191 0.961 . S
H1206 C1191 0.961 . S
H1207 C1191 0.961 . S
H1208 C1192 0.931 . S
H1209 C1197 0.930 . S
H1210 C1198 0.956 . S
H1211 C1198 0.961 . S
H1212 C1198 0.961 . S
H1213 C1199 0.958 . S
H1214 C1199 0.961 . S
H1215 C1199 0.960 . S
C1216 C1217 1.391 . S
C1216 C1218 1.394 . S
C1216 H1232 0.931 . S
C1217 C1216 1.391 . S
C1217 C1221 1.376 . S
C1218 C1216 1.394 . S
C1218 C1219 1.369 . S
C1218 C1222 1.531 . S
C1219 C1218 1.369 . S
C1219 C1220 1.410 . S
C1219 C1227 1.503 . S
C1220 C1219 1.410 . S
C1220 C1221 1.392 . S
C1220 C1223 1.511 . S
C1221 C1217 1.376 . S
C1221 C1220 1.392 . S
C1221 H1233 0.929 . S
C1222 C1218 1.531 . S
C1222 H1234 0.960 . S
C1222 H1235 0.962 . S
C1222 H1236 0.960 . S
C1223 C1220 1.511 . S
C1223 H1237 0.961 . S
C1223 H1238 0.961 . S
C1223 H1239 0.961 . S
C1224 C1225 1.370 . S
C1224 C1226 1.363 . S
C1224 H1240 0.931 . S
C1225 C1224 1.370 . S
C1225 C1229 1.408 . S
C1226 C1224 1.363 . S
C1226 C1227 1.370 . S
C1226 C1230 1.524 . S
C1227 C1219 1.503 . S
C1227 C1226 1.370 . S
C1227 C1228 1.403 . S
C1228 C1227 1.403 . S
C1228 C1229 1.404 . S
C1228 C1231 1.539 . S
C1229 C1225 1.408 . S
C1229 C1228 1.404 . S
C1229 H1241 0.930 . S
C1230 C1226 1.524 . S
C1230 H1242 0.956 . S
C1230 H1243 0.961 . S
C1230 H1244 0.961 . S
C1231 C1228 1.539 . S
C1231 H1245 0.958 . S
C1231 H1246 0.961 . S
C1231 H1247 0.960 . S
H1232 C1216 0.931 . S
H1233 C1221 0.929 . S
H1234 C1222 0.960 . S
H1235 C1222 0.962 . S
H1236 C1222 0.960 . S
H1237 C1223 0.961 . S
H1238 C1223 0.961 . S
H1239 C1223 0.961 . S
H1240 C1224 0.931 . S
H1241 C1229 0.930 . S
H1242 C1230 0.956 . S
H1243 C1230 0.961 . S
H1244 C1230 0.961 . S
H1245 C1231 0.958 . S
H1246 C1231 0.961 . S
H1247 C1231 0.960 . S
C1248 C1249 1.391 . S
C1248 C1250 1.394 . S
C1248 H1264 0.931 . S
C1249 C1248 1.391 . S
C1249 C1253 1.376 . S
C1250 C1248 1.394 . S
C1250 C1251 1.369 . S
C1250 C1254 1.531 . S
C1251 C1250 1.369 . S
C1251 C1252 1.410 . S
C1251 C1259 1.503 . S
C1252 C1251 1.410 . S
C1252 C1253 1.392 . S
C1252 C1255 1.511 . S
C1253 C1249 1.376 . S
C1253 C1252 1.392 . S
C1253 H1265 0.929 . S
C1254 C1250 1.531 . S
C1254 H1266 0.960 . S
C1254 H1267 0.962 . S
C1254 H1268 0.960 . S
C1255 C1252 1.511 . S
C1255 H1269 0.961 . S
C1255 H1270 0.961 . S
C1255 H1271 0.961 . S
C1256 C1257 1.370 . S
C1256 C1258 1.363 . S
C1256 H1272 0.931 . S
C1257 C1256 1.370 . S
C1257 C1261 1.408 . S
C1258 C1256 1.363 . S
C1258 C1259 1.370 . S
C1258 C1262 1.524 . S
C1259 C1251 1.503 . S
C1259 C1258 1.370 . S
C1259 C1260 1.403 . S
C1260 C1259 1.403 . S
C1260 C1261 1.404 . S
C1260 C1263 1.539 . S
C1261 C1257 1.408 . S
C1261 C1260 1.404 . S
C1261 H1273 0.930 . S
C1262 C1258 1.524 . S
C1262 H1274 0.956 . S
C1262 H1275 0.961 . S
C1262 H1276 0.961 . S
C1263 C1260 1.539 . S
C1263 H1277 0.958 . S
C1263 H1278 0.961 . S
C1263 H1279 0.960 . S
H1264 C1248 0.931 . S
H1265 C1253 0.929 . S
H1266 C1254 0.960 . S
H1267 C1254 0.962 . S
H1268 C1254 0.960 . S
H1269 C1255 0.961 . S
H1270 C1255 0.961 . S
H1271 C1255 0.961 . S
H1272 C1256 0.931 . S
H1273 C1261 0.930 . S
H1274 C1262 0.956 . S
H1275 C1262 0.961 . S
H1276 C1262 0.961 . S
H1277 C1263 0.958 . S
H1278 C1263 0.961 . S
H1279 C1263 0.960 . S
C1280 C1281 1.391 . S
C1280 C1282 1.394 . S
C1280 H1296 0.931 . S
C1281 C1280 1.391 . S
C1281 C1285 1.376 . S
C1282 C1280 1.394 . S
C1282 C1283 1.369 . S
C1282 C1286 1.531 . S
C1283 C1282 1.369 . S
C1283 C1284 1.410 . S
C1283 C1291 1.503 . S
C1284 C1283 1.410 . S
C1284 C1285 1.392 . S
C1284 C1287 1.511 . S
C1285 C1281 1.376 . S
C1285 C1284 1.392 . S
C1285 H1297 0.929 . S
C1286 C1282 1.531 . S
C1286 H1298 0.960 . S
C1286 H1299 0.962 . S
C1286 H1300 0.960 . S
C1287 C1284 1.511 . S
C1287 H1301 0.961 . S
C1287 H1302 0.961 . S
C1287 H1303 0.961 . S
C1288 C1289 1.370 . S
C1288 C1290 1.363 . S
C1288 H1304 0.931 . S
C1289 C1288 1.370 . S
C1289 C1293 1.408 . S
C1290 C1288 1.363 . S
C1290 C1291 1.370 . S
C1290 C1294 1.524 . S
C1291 C1283 1.503 . S
C1291 C1290 1.370 . S
C1291 C1292 1.403 . S
C1292 C1291 1.403 . S
C1292 C1293 1.404 . S
C1292 C1295 1.539 . S
C1293 C1289 1.408 . S
C1293 C1292 1.404 . S
C1293 H1305 0.930 . S
C1294 C1290 1.524 . S
C1294 H1306 0.956 . S
C1294 H1307 0.961 . S
C1294 H1308 0.961 . S
C1295 C1292 1.539 . S
C1295 H1309 0.958 . S
C1295 H1310 0.961 . S
C1295 H1311 0.960 . S
H1296 C1280 0.931 . S
H1297 C1285 0.929 . S
H1298 C1286 0.960 . S
H1299 C1286 0.962 . S
H1300 C1286 0.960 . S
H1301 C1287 0.961 . S
H1302 C1287 0.961 . S
H1303 C1287 0.961 . S
H1304 C1288 0.931 . S
H1305 C1293 0.930 . S
H1306 C1294 0.956 . S
H1307 C1294 0.961 . S
H1308 C1294 0.961 . S
H1309 C1295 0.958 . S
H1310 C1295 0.961 . S
H1311 C1295 0.960 . S
C1312 C1313 1.391 . S
C1312 C1314 1.394 . S
C1312 H1328 0.931 . S
C1313 C1312 1.391 . S
C1313 C1317 1.376 . S
C1314 C1312 1.394 . S
C1314 C1315 1.369 . S
C1314 C1318 1.531 . S
C1315 C1314 1.369 . S
C1315 C1316 1.410 . S
C1315 C1323 1.503 . S
C1316 C1315 1.410 . S
C1316 C1317 1.392 . S
C1316 C1319 1.511 . S
C1317 C1313 1.376 . S
C1317 C1316 1.392 . S
C1317 H1329 0.929 . S
C1318 C1314 1.531 . S
C1318 H1330 0.960 . S
C1318 H1331 0.962 . S
C1318 H1332 0.960 . S
C1319 C1316 1.511 . S
C1319 H1333 0.961 . S
C1319 H1334 0.961 . S
C1319 H1335 0.961 . S
C1320 C1321 1.370 . S
C1320 C1322 1.363 . S
C1320 H1336 0.931 . S
C1321 C1320 1.370 . S
C1321 C1325 1.408 . S
C1322 C1320 1.363 . S
C1322 C1323 1.370 . S
C1322 C1326 1.524 . S
C1323 C1315 1.503 . S
C1323 C1322 1.370 . S
C1323 C1324 1.403 . S
C1324 C1323 1.403 . S
C1324 C1325 1.404 . S
C1324 C1327 1.539 . S
C1325 C1321 1.408 . S
C1325 C1324 1.404 . S
C1325 H1337 0.930 . S
C1326 C1322 1.524 . S
C1326 H1338 0.956 . S
C1326 H1339 0.961 . S
C1326 H1340 0.961 . S
C1327 C1324 1.539 . S
C1327 H1341 0.958 . S
C1327 H1342 0.961 . S
C1327 H1343 0.960 . S
H1328 C1312 0.931 . S
H1329 C1317 0.929 . S
H1330 C1318 0.960 . S
H1331 C1318 0.962 . S
H1332 C1318 0.960 . S
H1333 C1319 0.961 . S
H1334 C1319 0.961 . S
H1335 C1319 0.961 . S
H1336 C1320 0.931 . S
H1337 C1325 0.930 . S
H1338 C1326 0.956 . S
H1339 C1326 0.961 . S
H1340 C1326 0.961 . S
H1341 C1327 0.958 . S
H1342 C1327 0.961 . S
H1343 C1327 0.960 . S
C1344 C1345 1.391 . S
C1344 C1346 1.394 . S
C1344 H1360 0.931 . S
C1345 C1344 1.391 . S
C1345 C1349 1.376 . S
C1346 C1344 1.394 . S
C1346 C1347 1.369 . S
C1346 C1350 1.531 . S
C1347 C1346 1.369 . S
C1347 C1348 1.410 . S
C1347 C1355 1.503 . S
C1348 C1347 1.410 . S
C1348 C1349 1.392 . S
C1348 C1351 1.511 . S
C1349 C1345 1.376 . S
C1349 C1348 1.392 . S
C1349 H1361 0.929 . S
C1350 C1346 1.531 . S
C1350 H1362 0.960 . S
C1350 H1363 0.962 . S
C1350 H1364 0.960 . S
C1351 C1348 1.511 . S
C1351 H1365 0.961 . S
C1351 H1366 0.961 . S
C1351 H1367 0.961 . S
C1352 C1353 1.370 . S
C1352 C1354 1.363 . S
C1352 H1368 0.931 . S
C1353 C1352 1.370 . S
C1353 C1357 1.408 . S
C1354 C1352 1.363 . S
C1354 C1355 1.370 . S
C1354 C1358 1.524 . S
C1355 C1347 1.503 . S
C1355 C1354 1.370 . S
C1355 C1356 1.403 . S
C1356 C1355 1.403 . S
C1356 C1357 1.404 . S
C1356 C1359 1.539 . S
C1357 C1353 1.408 . S
C1357 C1356 1.404 . S
C1357 H1369 0.930 . S
C1358 C1354 1.524 . S
C1358 H1370 0.956 . S
C1358 H1371 0.961 . S
C1358 H1372 0.961 . S
C1359 C1356 1.539 . S
C1359 H1373 0.958 . S
C1359 H1374 0.961 . S
C1359 H1375 0.960 . S
H1360 C1344 0.931 . S
H1361 C1349 0.929 . S
H1362 C1350 0.960 . S
H1363 C1350 0.962 . S
H1364 C1350 0.960 . S
H1365 C1351 0.961 . S
H1366 C1351 0.961 . S
H1367 C1351 0.961 . S
H1368 C1352 0.931 . S
H1369 C1357 0.930 . S
H1370 C1358 0.956 . S
H1371 C1358 0.961 . S
H1372 C1358 0.961 . S
H1373 C1359 0.958 . S
H1374 C1359 0.961 . S
H1375 C1359 0.960 . S
C1376 C1377 1.391 . S
C1376 C1378 1.394 . S
C1376 H1392 0.931 . S
C1377 C1376 1.391 . S
C1377 C1381 1.376 . S
C1378 C1376 1.394 . S
C1378 C1379 1.369 . S
C1378 C1382 1.531 . S
C1379 C1378 1.369 . S
C1379 C1380 1.410 . S
C1379 C1387 1.503 . S
C1380 C1379 1.410 . S
C1380 C1381 1.392 . S
C1380 C1383 1.511 . S
C1381 C1377 1.376 . S
C1381 C1380 1.392 . S
C1381 H1393 0.929 . S
C1382 C1378 1.531 . S
C1382 H1394 0.960 . S
C1382 H1395 0.962 . S
C1382 H1396 0.960 . S
C1383 C1380 1.511 . S
C1383 H1397 0.961 . S
C1383 H1398 0.961 . S
C1383 H1399 0.961 . S
C1384 C1385 1.370 . S
C1384 C1386 1.363 . S
C1384 H1400 0.931 . S
C1385 C1384 1.370 . S
C1385 C1389 1.408 . S
C1386 C1384 1.363 . S
C1386 C1387 1.370 . S
C1386 C1390 1.524 . S
C1387 C1379 1.503 . S
C1387 C1386 1.370 . S
C1387 C1388 1.403 . S
C1388 C1387 1.403 . S
C1388 C1389 1.404 . S
C1388 C1391 1.539 . S
C1389 C1385 1.408 . S
C1389 C1388 1.404 . S
C1389 H1401 0.930 . S
C1390 C1386 1.524 . S
C1390 H1402 0.956 . S
C1390 H1403 0.961 . S
C1390 H1404 0.961 . S
C1391 C1388 1.539 . S
C1391 H1405 0.958 . S
C1391 H1406 0.961 . S
C1391 H1407 0.960 . S
H1392 C1376 0.931 . S
H1393 C1381 0.929 . S
H1394 C1382 0.960 . S
H1395 C1382 0.962 . S
H1396 C1382 0.960 . S
H1397 C1383 0.961 . S
H1398 C1383 0.961 . S
H1399 C1383 0.961 . S
H1400 C1384 0.931 . S
H1401 C1389 0.930 . S
H1402 C1390 0.956 . S
H1403 C1390 0.961 . S
H1404 C1390 0.961 . S
H1405 C1391 0.958 . S
H1406 C1391 0.961 . S
H1407 C1391 0.960 . S
C1408 C1409 1.391 . S
C1408 C1410 1.394 . S
C1408 H1424 0.931 . S
C1409 C1408 1.391 . S
C1409 C1413 1.376 . S
C1410 C1408 1.394 . S
C1410 C1411 1.369 . S
C1410 C1414 1.531 . S
C1411 C1410 1.369 . S
C1411 C1412 1.410 . S
C1411 C1419 1.503 . S
C1412 C1411 1.410 . S
C1412 C1413 1.392 . S
C1412 C1415 1.511 . S
C1413 C1409 1.376 . S
C1413 C1412 1.392 . S
C1413 H1425 0.929 . S
C1414 C1410 1.531 . S
C1414 H1426 0.960 . S
C1414 H1427 0.962 . S
C1414 H1428 0.960 . S
C1415 C1412 1.511 . S
C1415 H1429 0.961 . S
C1415 H1430 0.961 . S
C1415 H1431 0.961 . S
C1416 C1417 1.370 . S
C1416 C1418 1.363 . S
C1416 H1432 0.931 . S
C1417 C1416 1.370 . S
C1417 C1421 1.408 . S
C1418 C1416 1.363 . S
C1418 C1419 1.370 . S
C1418 C1422 1.524 . S
C1419 C1411 1.503 . S
C1419 C1418 1.370 . S
C1419 C1420 1.403 . S
C1420 C1419 1.403 . S
C1420 C1421 1.404 . S
C1420 C1423 1.539 . S
C1421 C1417 1.408 . S
C1421 C1420 1.404 . S
C1421 H1433 0.930 . S
C1422 C1418 1.524 . S
C1422 H1434 0.956 . S
C1422 H1435 0.961 . S
C1422 H1436 0.961 . S
C1423 C1420 1.539 . S
C1423 H1437 0.958 . S
C1423 H1438 0.961 . S
C1423 H1439 0.960 . S
H1424 C1408 0.931 . S
H1425 C1413 0.929 . S
H1426 C1414 0.960 . S
H1427 C1414 0.962 . S
H1428 C1414 0.960 . S
H1429 C1415 0.961 . S
H1430 C1415 0.961 . S
H1431 C1415 0.961 . S
H1432 C1416 0.931 . S
H1433 C1421 0.930 . S
H1434 C1422 0.956 . S
H1435 C1422 0.961 . S
H1436 C1422 0.961 . S
H1437 C1423 0.958 . S
H1438 C1423 0.961 . S
H1439 C1423 0.960 . S
C1440 C1441 1.391 . S
C1440 C1442 1.394 . S
C1440 H1456 0.931 . S
C1441 C1440 1.391 . S
C1441 C1445 1.376 . S
C1442 C1440 1.394 . S
C1442 C1443 1.369 . S
C1442 C1446 1.531 . S
C1443 C1442 1.369 . S
C1443 C1444 1.410 . S
C1443 C1451 1.503 . S
C1444 C1443 1.410 . S
C1444 C1445 1.392 . S
C1444 C1447 1.511 . S
C1445 C1441 1.376 . S
C1445 C1444 1.392 . S
C1445 H1457 0.929 . S
C1446 C1442 1.531 . S
C1446 H1458 0.960 . S
C1446 H1459 0.962 . S
C1446 H1460 0.960 . S
C1447 C1444 1.511 . S
C1447 H1461 0.961 . S
C1447 H1462 0.961 . S
C1447 H1463 0.961 . S
C1448 C1449 1.370 . S
C1448 C1450 1.363 . S
C1448 H1464 0.931 . S
C1449 C1448 1.370 . S
C1449 C1453 1.408 . S
C1450 C1448 1.363 . S
C1450 C1451 1.370 . S
C1450 C1454 1.524 . S
C1451 C1443 1.503 . S
C1451 C1450 1.370 . S
C1451 C1452 1.403 . S
C1452 C1451 1.403 . S
C1452 C1453 1.404 . S
C1452 C1455 1.539 . S
C1453 C1449 1.408 . S
C1453 C1452 1.404 . S
C1453 H1465 0.930 . S
C1454 C1450 1.524 . S
C1454 H1466 0.956 . S
C1454 H1467 0.961 . S
C1454 H1468 0.961 . S
C1455 C1452 1.539 . S
C1455 H1469 0.958 . S
C1455 H1470 0.961 . S
C1455 H1471 0.960 . S
H1456 C1440 0.931 . S
H1457 C1445 0.929 . S
H1458 C1446 0.960 . S
H1459 C1446 0.962 . S
H1460 C1446 0.960 . S
H1461 C1447 0.961 . S
H1462 C1447 0.961 . S
H1463 C1447 0.961 . S
H1464 C1448 0.931 . S
H1465 C1453 0.930 . S
H1466 C1454 0.956 . S
H1467 C1454 0.961 . S
H1468 C1454 0.961 . S
H1469 C1455 0.958 . S
H1470 C1455 0.961 . S
H1471 C1455 0.960 . S
C1472 C1473 1.391 . S
C1472 C1474 1.394 . S
C1472 H1488 0.931 . S
C1473 C1472 1.391 . S
C1473 C1477 1.376 . S
C1474 C1472 1.394 . S
C1474 C1475 1.369 . S
C1474 C1478 1.531 . S
C1475 C1474 1.369 . S
C1475 C1476 1.410 . S
C1475 C1483 1.503 . S
C1476 C1475 1.410 . S
C1476 C1477 1.392 . S
C1476 C1479 1.511 . S
C1477 C1473 1.376 . S
C1477 C1476 1.392 . S
C1477 H1489 0.929 . S
C1478 C1474 1.531 . S
C1478 H1490 0.960 . S
C1478 H1491 0.962 . S
C1478 H1492 0.960 . S
C1479 C1476 1.511 . S
C1479 H1493 0.961 . S
C1479 H1494 0.961 . S
C1479 H1495 0.961 . S
C1480 C1481 1.370 . S
C1480 C1482 1.363 . S
C1480 H1496 0.931 . S
C1481 C1480 1.370 . S
C1481 C1485 1.408 . S
C1482 C1480 1.363 . S
C1482 C1483 1.370 . S
C1482 C1486 1.524 . S
C1483 C1475 1.503 . S
C1483 C1482 1.370 . S
C1483 C1484 1.403 . S
C1484 C1483 1.403 . S
C1484 C1485 1.404 . S
C1484 C1487 1.539 . S
C1485 C1481 1.408 . S
C1485 C1484 1.404 . S
C1485 H1497 0.930 . S
C1486 C1482 1.524 . S
C1486 H1498 0.956 . S
C1486 H1499 0.961 . S
C1486 H1500 0.961 . S
C1487 C1484 1.539 . S
C1487 H1501 0.958 . S
C1487 H1502 0.961 . S
C1487 H1503 0.960 . S
H1488 C1472 0.931 . S
H1489 C1477 0.929 . S
H1490 C1478 0.960 . S
H1491 C1478 0.962 . S
H1492 C1478 0.960 . S
H1493 C1479 0.961 . S
H1494 C1479 0.961 . S
H1495 C1479 0.961 . S
H1496 C1480 0.931 . S
H1497 C1485 0.930 . S
H1498 C1486 0.956 . S
H1499 C1486 0.961 . S
H1500 C1486 0.961 . S
H1501 C1487 0.958 . S
H1502 C1487 0.961 . S
H1503 C1487 0.960 . S
C1504 C1505 1.391 . S
C1504 C1506 1.394 . S
C1504 H1520 0.931 . S
C1505 C1504 1.391 . S
C1505 C1509 1.376 . S
C1506 C1504 1.394 . S
C1506 C1507 1.369 . S
C1506 C1510 1.531 . S
C1507 C1506 1.369 . S
C1507 C1508 1.410 . S
C1507 C1515 1.503 . S
C1508 C1507 1.410 . S
C1508 C1509 1.392 . S
C1508 C1511 1.511 . S
C1509 C1505 1.376 . S
C1509 C1508 1.392 . S
C1509 H1521 0.929 . S
C1510 C1506 1.531 . S
C1510 H1522 0.960 . S
C1510 H1523 0.962 . S
C1510 H1524 0.960 . S
C1511 C1508 1.511 . S
C1511 H1525 0.961 . S
C1511 H1526 0.961 . S
C1511 H1527 0.961 . S
C1512 C1513 1.370 . S
C1512 C1514 1.363 . S
C1512 H1528 0.931 . S
C1513 C1512 1.370 . S
C1513 C1517 1.408 . S
C1514 C1512 1.363 . S
C1514 C1515 1.370 . S
C1514 C1518 1.524 . S
C1515 C1507 1.503 . S
C1515 C1514 1.370 . S
C1515 C1516 1.403 . S
C1516 C1515 1.403 . S
C1516 C1517 1.404 . S
C1516 C1519 1.539 . S
C1517 C1513 1.408 . S
C1517 C1516 1.404 . S
C1517 H1529 0.930 . S
C1518 C1514 1.524 . S
C1518 H1530 0.956 . S
C1518 H1531 0.961 . S
C1518 H1532 0.961 . S
C1519 C1516 1.539 . S
C1519 H1533 0.958 . S
C1519 H1534 0.961 . S
C1519 H1535 0.960 . S
H1520 C1504 0.931 . S
H1521 C1509 0.929 . S
H1522 C1510 0.960 . S
H1523 C1510 0.962 . S
H1524 C1510 0.960 . S
H1525 C1511 0.961 . S
H1526 C1511 0.961 . S
H1527 C1511 0.961 . S
H1528 C1512 0.931 . S
H1529 C1517 0.930 . S
H1530 C1518 0.956 . S
H1531 C1518 0.961 . S
H1532 C1518 0.961 . S
H1533 C1519 0.958 . S
H1534 C1519 0.961 . S
H1535 C1519 0.960 . S
C1536 C1537 1.391 . S
C1536 C1538 1.394 . S
C1536 H1552 0.931 . S
C1537 C1536 1.391 . S
C1537 C1541 1.376 . S
C1538 C1536 1.394 . S
C1538 C1539 1.369 . S
C1538 C1542 1.531 . S
C1539 C1538 1.369 . S
C1539 C1540 1.410 . S
C1539 C1547 1.503 . S
C1540 C1539 1.410 . S
C1540 C1541 1.392 . S
C1540 C1543 1.511 . S
C1541 C1537 1.376 . S
C1541 C1540 1.392 . S
C1541 H1553 0.929 . S
C1542 C1538 1.531 . S
C1542 H1554 0.960 . S
C1542 H1555 0.962 . S
C1542 H1556 0.960 . S
C1543 C1540 1.511 . S
C1543 H1557 0.961 . S
C1543 H1558 0.961 . S
C1543 H1559 0.961 . S
C1544 C1545 1.370 . S
C1544 C1546 1.363 . S
C1544 H1560 0.931 . S
C1545 C1544 1.370 . S
C1545 C1549 1.408 . S
C1546 C1544 1.363 . S
C1546 C1547 1.370 . S
C1546 C1550 1.524 . S
C1547 C1539 1.503 . S
C1547 C1546 1.370 . S
C1547 C1548 1.403 . S
C1548 C1547 1.403 . S
C1548 C1549 1.404 . S
C1548 C1551 1.539 . S
C1549 C1545 1.408 . S
C1549 C1548 1.404 . S
C1549 H1561 0.930 . S
C1550 C1546 1.524 . S
C1550 H1562 0.956 . S
C1550 H1563 0.961 . S
C1550 H1564 0.961 . S
C1551 C1548 1.539 . S
C1551 H1565 0.958 . S
C1551 H1566 0.961 . S
C1551 H1567 0.960 . S
H1552 C1536 0.931 . S
H1553 C1541 0.929 . S
H1554 C1542 0.960 . S
H1555 C1542 0.962 . S
H1556 C1542 0.960 . S
H1557 C1543 0.961 . S
H1558 C1543 0.961 . S
H1559 C1543 0.961 . S
H1560 C1544 0.931 . S
H1561 C1549 0.930 . S
H1562 C1550 0.956 . S
H1563 C1550 0.961 . S
H1564 C1550 0.961 . S
H1565 C1551 0.958 . S
H1566 C1551 0.961 . S
H1567 C1551 0.960 . S
C1568 C1569 1.391 . S
C1568 C1570 1.394 . S
C1568 H1584 0.931 . S
C1569 C1568 1.391 . S
C1569 C1573 1.376 . S
C1570 C1568 1.394 . S
C1570 C1571 1.369 . S
C1570 C1574 1.531 . S
C1571 C1570 1.369 . S
C1571 C1572 1.410 . S
C1571 C1579 1.503 . S
C1572 C1571 1.410 . S
C1572 C1573 1.392 . S
C1572 C1575 1.511 . S
C1573 C1569 1.376 . S
C1573 C1572 1.392 . S
C1573 H1585 0.929 . S
C1574 C1570 1.531 . S
C1574 H1586 0.960 . S
C1574 H1587 0.962 . S
C1574 H1588 0.960 . S
C1575 C1572 1.511 . S
C1575 H1589 0.961 . S
C1575 H1590 0.961 . S
C1575 H1591 0.961 . S
C1576 C1577 1.370 . S
C1576 C1578 1.363 . S
C1576 H1592 0.931 . S
C1577 C1576 1.370 . S
C1577 C1581 1.408 . S
C1578 C1576 1.363 . S
C1578 C1579 1.370 . S
C1578 C1582 1.524 . S
C1579 C1571 1.503 . S
C1579 C1578 1.370 . S
C1579 C1580 1.403 . S
C1580 C1579 1.403 . S
C1580 C1581 1.404 . S
C1580 C1583 1.539 . S
C1581 C1577 1.408 . S
C1581 C1580 1.404 . S
C1581 H1593 0.930 . S
C1582 C1578 1.524 . S
C1582 H1594 0.956 . S
C1582 H1595 0.961 . S
C1582 H1596 0.961 . S
C1583 C1580 1.539 . S
C1583 H1597 0.958 . S
C1583 H1598 0.961 . S
C1583 H1599 0.960 . S
H1584 C1568 0.931 . S
H1585 C1573 0.929 . S
H1586 C1574 0.960 . S
H1587 C1574 0.962 . S
H1588 C1574 0.960 . S
H1589 C1575 0.961 . S
H1590 C1575 0.961 . S
H1591 C1575 0.961 . S
H1592 C1576 0.931 . S
H1593 C1581 0.930 . S
H1594 C1582 0.956 . S
H1595 C1582 0.961 . S
H1596 C1582 0.961 . S
H1597 C1583 0.958 . S
H1598 C1583 0.961 . S
H1599 C1583 0.960 . S
C1600 C1601 1.391 . S
C1600 C1602 1.394 . S
C1600 H1616 0.931 . S
C1601 C1600 1.391 . S
C1601 C1605 1.376 . S
C1602 C1600 1.394 . S
C1602 C1603 1.369 . S
C1602 C1606 1.531 . S
C1603 C1602 1.369 . S
C1603 C1604 1.410 . S
C1603 C1611 1.503 . S
C1604 C1603 1.410 . S
C1604 C1605 1.392 . S
C1604 C1607 1.511 . S
C1605 C1601 1.376 . S
C1605 C1604 1.392 . S
C1605 H1617 0.929 . S
C1606 C1602 1.531 . S
C1606 H1618 0.960 . S
C1606 H1619 0.962 . S
C1606 H1620 0.960 . S
C1607 C1604 1.511 . S
C1607 H1621 0.961 . S
C1607 H1622 0.961 . S
C1607 H1623 0.961 . S
C1608 C1609 1.370 . S
C1608 C1610 1.363 . S
C1608 H1624 0.931 . S
C1609 C1608 1.370 . S
C1609 C1613 1.408 . S
C1610 C1608 1.363 . S
C1610 C1611 1.370 . S
C1610 C1614 1.524 . S
C1611 C1603 1.503 . S
C1611 C1610 1.370 . S
C1611 C1612 1.403 . S
C1612 C1611 1.403 . S
C1612 C1613 1.404 . S
C1612 C1615 1.539 . S
C1613 C1609 1.408 . S
C1613 C1612 1.404 . S
C1613 H1625 0.930 . S
C1614 C1610 1.524 . S
C1614 H1626 0.956 . S
C1614 H1627 0.961 . S
C1614 H1628 0.961 . S
C1615 C1612 1.539 . S
C1615 H1629 0.958 . S
C1615 H1630 0.961 . S
C1615 H1631 0.960 . S
H1616 C1600 0.931 . S
H1617 C1605 0.929 . S
H1618 C1606 0.960 . S
H1619 C1606 0.962 . S
H1620 C1606 0.960 . S
H1621 C1607 0.961 . S
H1622 C1607 0.961 . S
H1623 C1607 0.961 . S
H1624 C1608 0.931 . S
H1625 C1613 0.930 . S
H1626 C1614 0.956 . S
H1627 C1614 0.961 . S
H1628 C1614 0.961 . S
H1629 C1615 0.958 . S
H1630 C1615 0.961 . S
H1631 C1615 0.960 . S
C1632 C1633 1.391 . S
C1632 C1634 1.394 . S
C1632 H1648 0.931 . S
C1633 C1632 1.391 . S
C1633 C1637 1.376 . S
C1634 C1632 1.394 . S
C1634 C1635 1.369 . S
C1634 C1638 1.531 . S
C1635 C1634 1.369 . S
C1635 C1636 1.410 . S
C1635 C1643 1.503 . S
C1636 C1635 1.410 . S
C1636 C1637 1.392 . S
C1636 C1639 1.511 . S
C1637 C1633 1.376 . S
C1637 C1636 1.392 . S
C1637 H1649 0.929 . S
C1638 C1634 1.531 . S
C1638 H1650 0.960 . S
C1638 H1651 0.962 . S
C1638 H1652 0.960 . S
C1639 C1636 1.511 . S
C1639 H1653 0.961 . S
C1639 H1654 0.961 . S
C1639 H1655 0.961 . S
C1640 C1641 1.370 . S
C1640 C1642 1.363 . S
C1640 H1656 0.931 . S
C1641 C1640 1.370 . S
C1641 C1645 1.408 . S
C1642 C1640 1.363 . S
C1642 C1643 1.370 . S
C1642 C1646 1.524 . S
C1643 C1635 1.503 . S
C1643 C1642 1.370 . S
C1643 C1644 1.403 . S
C1644 C1643 1.403 . S
C1644 C1645 1.404 . S
C1644 C1647 1.539 . S
C1645 C1641 1.408 . S
C1645 C1644 1.404 . S
C1645 H1657 0.930 . S
C1646 C1642 1.524 . S
C1646 H1658 0.956 . S
C1646 H1659 0.961 . S
C1646 H1660 0.961 . S
C1647 C1644 1.539 . S
C1647 H1661 0.958 . S
C1647 H1662 0.961 . S
C1647 H1663 0.960 . S
H1648 C1632 0.931 . S
H1649 C1637 0.929 . S
H1650 C1638 0.960 . S
H1651 C1638 0.962 . S
H1652 C1638 0.960 . S
H1653 C1639 0.961 . S
H1654 C1639 0.961 . S
H1655 C1639 0.961 . S
H1656 C1640 0.931 . S
H1657 C1645 0.930 . S
H1658 C1646 0.956 . S
H1659 C1646 0.961 . S
H1660 C1646 0.961 . S
H1661 C1647 0.958 . S
H1662 C1647 0.961 . S
H1663 C1647 0.960 . S
C1664 C1665 1.391 . S
C1664 C1666 1.394 . S
C1664 H1680 0.931 . S
C1665 C1664 1.391 . S
C1665 C1669 1.376 . S
C1666 C1664 1.394 . S
C1666 C1667 1.369 . S
C1666 C1670 1.531 . S
C1667 C1666 1.369 . S
C1667 C1668 1.410 . S
C1667 C1675 1.503 . S
C1668 C1667 1.410 . S
C1668 C1669 1.392 . S
C1668 C1671 1.511 . S
C1669 C1665 1.376 . S
C1669 C1668 1.392 . S
C1669 H1681 0.929 . S
C1670 C1666 1.531 . S
C1670 H1682 0.960 . S
C1670 H1683 0.962 . S
C1670 H1684 0.960 . S
C1671 C1668 1.511 . S
C1671 H1685 0.961 . S
C1671 H1686 0.961 . S
C1671 H1687 0.961 . S
C1672 C1673 1.370 . S
C1672 C1674 1.363 . S
C1672 H1688 0.931 . S
C1673 C1672 1.370 . S
C1673 C1677 1.408 . S
C1674 C1672 1.363 . S
C1674 C1675 1.370 . S
C1674 C1678 1.524 . S
C1675 C1667 1.503 . S
C1675 C1674 1.370 . S
C1675 C1676 1.403 . S
C1676 C1675 1.403 . S
C1676 C1677 1.404 . S
C1676 C1679 1.539 . S
C1677 C1673 1.408 . S
C1677 C1676 1.404 . S
C1677 H1689 0.930 . S
C1678 C1674 1.524 . S
C1678 H1690 0.956 . S
C1678 H1691 0.961 . S
C1678 H1692 0.961 . S
C1679 C1676 1.539 . S
C1679 H1693 0.958 . S
C1679 H1694 0.961 . S
C1679 H1695 0.960 . S
H1680 C1664 0.931 . S
H1681 C1669 0.929 . S
H1682 C1670 0.960 . S
H1683 C1670 0.962 . S
H1684 C1670 0.960 . S
H1685 C1671 0.961 . S
H1686 C1671 0.961 . S
H1687 C1671 0.961 . S
H1688 C1672 0.931 . S
H1689 C1677 0.930 . S
H1690 C1678 0.956 . S
H1691 C1678 0.961 . S
H1692 C1678 0.961 . S
H1693 C1679 0.958 . S
H1694 C1679 0.961 . S
H1695 C1679 0.960 . S
C1696 C1697 1.391 . S
C1696 C1698 1.394 . S
C1696 H1712 0.931 . S
C1697 C1696 1.391 . S
C1697 C1701 1.376 . S
C1698 C1696 1.394 . S
C1698 C1699 1.369 . S
C1698 C1702 1.531 . S
C1699 C1698 1.369 . S
C1699 C1700 1.410 . S
C1699 C1707 1.503 . S
C1700 C1699 1.410 . S
C1700 C1701 1.392 . S
C1700 C1703 1.511 . S
C1701 C1697 1.376 . S
C1701 C1700 1.392 . S
C1701 H1713 0.929 . S
C1702 C1698 1.531 . S
C1702 H1714 0.960 . S
C1702 H1715 0.962 . S
C1702 H1716 0.960 . S
C1703 C1700 1.511 . S
C1703 H1717 0.961 . S
C1703 H1718 0.961 . S
C1703 H1719 0.961 . S
C1704 C1705 1.370 . S
C1704 C1706 1.363 . S
C1704 H1720 0.931 . S
C1705 C1704 1.370 . S
C1705 C1709 1.408 . S
C1706 C1704 1.363 . S
C1706 C1707 1.370 . S
C1706 C1710 1.524 . S
C1707 C1699 1.503 . S
C1707 C1706 1.370 . S
C1707 C1708 1.403 . S
C1708 C1707 1.403 . S
C1708 C1709 1.404 . S
C1708 C1711 1.539 . S
C1709 C1705 1.408 . S
C1709 C1708 1.404 . S
C1709 H1721 0.930 . S
C1710 C1706 1.524 . S
C1710 H1722 0.956 . S
C1710 H1723 0.961 . S
C1710 H1724 0.961 . S
C1711 C1708 1.539 . S
C1711 H1725 0.958 . S
C1711 H1726 0.961 . S
C1711 H1727 0.960 . S
H1712 C1696 0.931 . S
H1713 C1701 0.929 . S
H1714 C1702 0.960 . S
H1715 C1702 0.962 . S
H1716 C1702 0.960 . S
H1717 C1703 0.961 . S
H1718 C1703 0.961 . S
H1719 C1703 0.961 . S
H1720 C1704 0.931 . S
H1721 C1709 0.930 . S
H1722 C1710 0.956 . S
H1723 C1710 0.961 . S
H1724 C1710 0.961 . S
H1725 C1711 0.958 . S
H1726 C1711 0.961 . S
H1727 C1711 0.960 . S
C1728 C1729 1.391 . S
C1728 C1730 1.394 . S
C1728 H1744 0.931 . S
C1729 C1728 1.391 . S
C1729 C1733 1.376 . S
C1730 C1728 1.394 . S
C1730 C1731 1.369 . S
C1730 C1734 1.531 . S
C1731 C1730 1.369 . S
C1731 C1732 1.410 . S
C1731 C1739 1.503 . S
C1732 C1731 1.410 . S
C1732 C1733 1.392 . S
C1732 C1735 1.511 . S
C1733 C1729 1.376 . S
C1733 C1732 1.392 . S
C1733 H1745 0.929 . S
C1734 C1730 1.531 . S
C1734 H1746 0.960 . S
C1734 H1747 0.962 . S
C1734 H1748 0.960 . S
C1735 C1732 1.511 . S
C1735 H1749 0.961 . S
C1735 H1750 0.961 . S
C1735 H1751 0.961 . S
C1736 C1737 1.370 . S
C1736 C1738 1.363 . S
C1736 H1752 0.931 . S
C1737 C1736 1.370 . S
C1737 C1741 1.408 . S
C1738 C1736 1.363 . S
C1738 C1739 1.370 . S
C1738 C1742 1.524 . S
C1739 C1731 1.503 . S
C1739 C1738 1.370 . S
C1739 C1740 1.403 . S
C1740 C1739 1.403 . S
C1740 C1741 1.404 . S
C1740 C1743 1.539 . S
C1741 C1737 1.408 . S
C1741 C1740 1.404 . S
C1741 H1753 0.930 . S
C1742 C1738 1.524 . S
C1742 H1754 0.956 . S
C1742 H1755 0.961 . S
C1742 H1756 0.961 . S
C1743 C1740 1.539 . S
C1743 H1757 0.958 . S
C1743 H1758 0.961 . S
C1743 H1759 0.960 . S
H1744 C1728 0.931 . S
H1745 C1733 0.929 . S
H1746 C1734 0.960 . S
H1747 C1734 0.962 . S
H1748 C1734 0.960 . S
H1749 C1735 0.961 . S
H1750 C1735 0.961 . S
H1751 C1735 0.961 . S
H1752 C1736 0.931 . S
H1753 C1741 0.930 . S
H1754 C1742 0.956 . S
H1755 C1742 0.961 . S
H1756 C1742 0.961 . S
H1757 C1743 0.958 . S
H1758 C1743 0.961 . S
H1759 C1743 0.960 . S
C1760 C1761 1.391 . S
C1760 C1762 1.394 . S
C1760 H1776 0.931 . S
C1761 C1760 1.391 . S
C1761 C1765 1.376 . S
C1762 C1760 1.394 . S
C1762 C1763 1.369 . S
C1762 C1766 1.531 . S
C1763 C1762 1.369 . S
C1763 C1764 1.410 . S
C1763 C1771 1.503 . S
C1764 C1763 1.410 . S
C1764 C1765 1.392 . S
C1764 C1767 1.511 . S
C1765 C1761 1.376 . S
C1765 C1764 1.392 . S
C1765 H1777 0.929 . S
C1766 C1762 1.531 . S
C1766 H1778 0.960 . S
C1766 H1779 0.962 . S
C1766 H1780 0.960 . S
C1767 C1764 1.511 . S
C1767 H1781 0.961 . S
C1767 H1782 0.961 . S
C1767 H1783 0.961 . S
C1768 C1769 1.370 . S
C1768 C1770 1.363 . S
C1768 H1784 0.931 . S
C1769 C1768 1.370 . S
C1769 C1773 1.408 . S
C1770 C1768 1.363 . S
C1770 C1771 1.370 . S
C1770 C1774 1.524 . S
C1771 C1763 1.503 . S
C1771 C1770 1.370 . S
C1771 C1772 1.403 . S
C1772 C1771 1.403 . S
C1772 C1773 1.404 . S
C1772 C1775 1.539 . S
C1773 C1769 1.408 . S
C1773 C1772 1.404 . S
C1773 H1785 0.930 . S
C1774 C1770 1.524 . S
C1774 H1786 0.956 . S
C1774 H1787 0.961 . S
C1774 H1788 0.961 . S
C1775 C1772 1.539 . S
C1775 H1789 0.958 . S
C1775 H1790 0.961 . S
C1775 H1791 0.960 . S
H1776 C1760 0.931 . S
H1777 C1765 0.929 . S
H1778 C1766 0.960 . S
H1779 C1766 0.962 . S
H1780 C1766 0.960 . S
H1781 C1767 0.961 . S
H1782 C1767 0.961 . S
H1783 C1767 0.961 . S
H1784 C1768 0.931 . S
H1785 C1773 0.930 . S
H1786 C1774 0.956 . S
H1787 C1774 0.961 . S
H1788 C1774 0.961 . S
H1789 C1775 0.958 . S
H1790 C1775 0.961 . S
H1791 C1775 0.960 . S
C1792 C1793 1.391 . S
C1792 C1794 1.394 . S
C1792 H1808 0.931 . S
C1793 C1792 1.391 . S
C1793 C1797 1.376 . S
C1794 C1792 1.394 . S
C1794 C1795 1.369 . S
C1794 C1798 1.531 . S
C1795 C1794 1.369 . S
C1795 C1796 1.410 . S
C1795 C1803 1.503 . S
C1796 C1795 1.410 . S
C1796 C1797 1.392 . S
C1796 C1799 1.511 . S
C1797 C1793 1.376 . S
C1797 C1796 1.392 . S
C1797 H1809 0.929 . S
C1798 C1794 1.531 . S
C1798 H1810 0.960 . S
C1798 H1811 0.962 . S
C1798 H1812 0.960 . S
C1799 C1796 1.511 . S
C1799 H1813 0.961 . S
C1799 H1814 0.961 . S
C1799 H1815 0.961 . S
C1800 C1801 1.370 . S
C1800 C1802 1.363 . S
C1800 H1816 0.931 . S
C1801 C1800 1.370 . S
C1801 C1805 1.408 . S
C1802 C1800 1.363 . S
C1802 C1803 1.370 . S
C1802 C1806 1.524 . S
C1803 C1795 1.503 . S
C1803 C1802 1.370 . S
C1803 C1804 1.403 . S
C1804 C1803 1.403 . S
C1804 C1805 1.404 . S
C1804 C1807 1.539 . S
C1805 C1801 1.408 . S
C1805 C1804 1.404 . S
C1805 H1817 0.930 . S
C1806 C1802 1.524 . S
C1806 H1818 0.956 . S
C1806 H1819 0.961 . S
C1806 H1820 0.961 . S
C1807 C1804 1.539 . S
C1807 H1821 0.958 . S
C1807 H1822 0.961 . S
C1807 H1823 0.960 . S
H1808 C1792 0.931 . S
H1809 C1797 0.929 . S
H1810 C1798 0.960 . S
H1811 C1798 0.962 . S
H1812 C1798 0.960 . S
H1813 C1799 0.961 . S
H1814 C1799 0.961 . S
H1815 C1799 0.961 . S
H1816 C1800 0.931 . S
H1817 C1805 0.930 . S
H1818 C1806 0.956 . S
H1819 C1806 0.961 . S
H1820 C1806 0.961 . S
H1821 C1807 0.958 . S
H1822 C1807 0.961 . S
H1823 C1807 0.960 . S
C1824 C1825 1.391 . S
C1824 C1826 1.394 . S
C1824 H1840 0.931 . S
C1825 C1824 1.391 . S
C1825 C1829 1.376 . S
C1826 C1824 1.394 . S
C1826 C1827 1.369 . S
C1826 C1830 1.531 . S
C1827 C1826 1.369 . S
C1827 C1828 1.410 . S
C1827 C1835 1.503 . S
C1828 C1827 1.410 . S
C1828 C1829 1.392 . S
C1828 C1831 1.511 . S
C1829 C1825 1.376 . S
C1829 C1828 1.392 . S
C1829 H1841 0.929 . S
C1830 C1826 1.531 . S
C1830 H1842 0.960 . S
C1830 H1843 0.962 . S
C1830 H1844 0.960 . S
C1831 C1828 1.511 . S
C1831 H1845 0.961 . S
C1831 H1846 0.961 . S
C1831 H1847 0.961 . S
C1832 C1833 1.370 . S
C1832 C1834 1.363 . S
C1832 H1848 0.931 . S
C1833 C1832 1.370 . S
C1833 C1837 1.408 . S
C1834 C1832 1.363 . S
C1834 C1835 1.370 . S
C1834 C1838 1.524 . S
C1835 C1827 1.503 . S
C1835 C1834 1.370 . S
C1835 C1836 1.403 . S
C1836 C1835 1.403 . S
C1836 C1837 1.404 . S
C1836 C1839 1.539 . S
C1837 C1833 1.408 . S
C1837 C1836 1.404 . S
C1837 H1849 0.930 . S
C1838 C1834 1.524 . S
C1838 H1850 0.956 . S
C1838 H1851 0.961 . S
C1838 H1852 0.961 . S
C1839 C1836 1.539 . S
C1839 H1853 0.958 . S
C1839 H1854 0.961 . S
C1839 H1855 0.960 . S
H1840 C1824 0.931 . S
H1841 C1829 0.929 . S
H1842 C1830 0.960 . S
H1843 C1830 0.962 . S
H1844 C1830 0.960 . S
H1845 C1831 0.961 . S
H1846 C1831 0.961 . S
H1847 C1831 0.961 . S
H1848 C1832 0.931 . S
H1849 C1837 0.930 . S
H1850 C1838 0.956 . S
H1851 C1838 0.961 . S
H1852 C1838 0.961 . S
H1853 C1839 0.958 . S
H1854 C1839 0.961 . S
H1855 C1839 0.960 . S
C1856 C1857 1.391 . S
C1856 C1858 1.394 . S
C1856 H1872 0.931 . S
C1857 C1856 1.391 . S
C1857 C1861 1.376 . S
C1858 C1856 1.394 . S
C1858 C1859 1.369 . S
C1858 C1862 1.531 . S
C1859 C1858 1.369 . S
C1859 C1860 1.410 . S
C1859 C1867 1.503 . S
C1860 C1859 1.410 . S
C1860 C1861 1.392 . S
C1860 C1863 1.511 . S
C1861 C1857 1.376 . S
C1861 C1860 1.392 . S
C1861 H1873 0.929 . S
C1862 C1858 1.531 . S
C1862 H1874 0.960 . S
C1862 H1875 0.962 . S
C1862 H1876 0.960 . S
C1863 C1860 1.511 . S
C1863 H1877 0.961 . S
C1863 H1878 0.961 . S
C1863 H1879 0.961 . S
C1864 C1865 1.370 . S
C1864 C1866 1.363 . S
C1864 H1880 0.931 . S
C1865 C1864 1.370 . S
C1865 C1869 1.408 . S
C1866 C1864 1.363 . S
C1866 C1867 1.370 . S
C1866 C1870 1.524 . S
C1867 C1859 1.503 . S
C1867 C1866 1.370 . S
C1867 C1868 1.403 . S
C1868 C1867 1.403 . S
C1868 C1869 1.404 . S
C1868 C1871 1.539 . S
C1869 C1865 1.408 . S
C1869 C1868 1.404 . S
C1869 H1881 0.930 . S
C1870 C1866 1.524 . S
C1870 H1882 0.956 . S
C1870 H1883 0.961 . S
C1870 H1884 0.961 . S
C1871 C1868 1.539 . S
C1871 H1885 0.958 . S
C1871 H1886 0.961 . S
C1871 H1887 0.960 . S
H1872 C1856 0.931 . S
H1873 C1861 0.929 . S
H1874 C1862 0.960 . S
H1875 C1862 0.962 . S
H1876 C1862 0.960 . S
H1877 C1863 0.961 . S
H1878 C1863 0.961 . S
H1879 C1863 0.961 . S
H1880 C1864 0.931 . S
H1881 C1869 0.930 . S
H1882 C1870 0.956 . S
H1883 C1870 0.961 . S
H1884 C1870 0.961 . S
H1885 C1871 0.958 . S
H1886 C1871 0.961 . S
H1887 C1871 0.960 . S
C1888 C1889 1.391 . S
C1888 C1890 1.394 . S
C1888 H1904 0.931 . S
C1889 C1888 1.391 . S
C1889 C1893 1.376 . S
C1890 C1888 1.394 . S
C1890 C1891 1.369 . S
C1890 C1894 1.531 . S
C1891 C1890 1.369 . S
C1891 C1892 1.410 . S
C1891 C1899 1.503 . S
C1892 C1891 1.410 . S
C1892 C1893 1.392 . S
C1892 C1895 1.511 . S
C1893 C1889 1.376 . S
C1893 C1892 1.392 . S
C1893 H1905 0.929 . S
C1894 C1890 1.531 . S
C1894 H1906 0.960 . S
C1894 H1907 0.962 . S
C1894 H1908 0.960 . S
C1895 C1892 1.511 . S
C1895 H1909 0.961 . S
C1895 H1910 0.961 . S
C1895 H1911 0.961 . S
C1896 C1897 1.370 . S
C1896 C1898 1.363 . S
C1896 H1912 0.931 . S
C1897 C1896 1.370 . S
C1897 C1901 1.408 . S
C1898 C1896 1.363 . S
C1898 C1899 1.370 . S
C1898 C1902 1.524 . S
C1899 C1891 1.503 . S
C1899 C1898 1.370 . S
C1899 C1900 1.403 . S
C1900 C1899 1.403 . S
C1900 C1901 1.404 . S
C1900 C1903 1.539 . S
C1901 C1897 1.408 . S
C1901 C1900 1.404 . S
C1901 H1913 0.930 . S
C1902 C1898 1.524 . S
C1902 H1914 0.956 . S
C1902 H1915 0.961 . S
C1902 H1916 0.961 . S
C1903 C1900 1.539 . S
C1903 H1917 0.958 . S
C1903 H1918 0.961 . S
C1903 H1919 0.960 . S
H1904 C1888 0.931 . S
H1905 C1893 0.929 . S
H1906 C1894 0.960 . S
H1907 C1894 0.962 . S
H1908 C1894 0.960 . S
H1909 C1895 0.961 . S
H1910 C1895 0.961 . S
H1911 C1895 0.961 . S
H1912 C1896 0.931 . S
H1913 C1901 0.930 . S
H1914 C1902 0.956 . S
H1915 C1902 0.961 . S
H1916 C1902 0.961 . S
H1917 C1903 0.958 . S
H1918 C1903 0.961 . S
H1919 C1903 0.960 . S
C1920 C1921 1.391 . S
C1920 C1922 1.394 . S
C1920 H1936 0.931 . S
C1921 C1920 1.391 . S
C1921 C1925 1.376 . S
C1922 C1920 1.394 . S
C1922 C1923 1.369 . S
C1922 C1926 1.531 . S
C1923 C1922 1.369 . S
C1923 C1924 1.410 . S
C1923 C1931 1.503 . S
C1924 C1923 1.410 . S
C1924 C1925 1.392 . S
C1924 C1927 1.511 . S
C1925 C1921 1.376 . S
C1925 C1924 1.392 . S
C1925 H1937 0.929 . S
C1926 C1922 1.531 . S
C1926 H1938 0.960 . S
C1926 H1939 0.962 . S
C1926 H1940 0.960 . S
C1927 C1924 1.511 . S
C1927 H1941 0.961 . S
C1927 H1942 0.961 . S
C1927 H1943 0.961 . S
C1928 C1929 1.370 . S
C1928 C1930 1.363 . S
C1928 H1944 0.931 . S
C1929 C1928 1.370 . S
C1929 C1933 1.408 . S
C1930 C1928 1.363 . S
C1930 C1931 1.370 . S
C1930 C1934 1.524 . S
C1931 C1923 1.503 . S
C1931 C1930 1.370 . S
C1931 C1932 1.403 . S
C1932 C1931 1.403 . S
C1932 C1933 1.404 . S
C1932 C1935 1.539 . S
C1933 C1929 1.408 . S
C1933 C1932 1.404 . S
C1933 H1945 0.930 . S
C1934 C1930 1.524 . S
C1934 H1946 0.956 . S
C1934 H1947 0.961 . S
C1934 H1948 0.961 . S
C1935 C1932 1.539 . S
C1935 H1949 0.958 . S
C1935 H1950 0.961 . S
C1935 H1951 0.960 . S
H1936 C1920 0.931 . S
H1937 C1925 0.929 . S
H1938 C1926 0.960 . S
H1939 C1926 0.962 . S
H1940 C1926 0.960 . S
H1941 C1927 0.961 . S
H1942 C1927 0.961 . S
H1943 C1927 0.961 . S
H1944 C1928 0.931 . S
H1945 C1933 0.930 . S
H1946 C1934 0.956 . S
H1947 C1934 0.961 . S
H1948 C1934 0.961 . S
H1949 C1935 0.958 . S
H1950 C1935 0.961 . S
H1951 C1935 0.960 . S
C1952 C1953 1.391 . S
C1952 C1954 1.394 . S
C1952 H1968 0.931 . S
C1953 C1952 1.391 . S
C1953 C1957 1.376 . S
C1954 C1952 1.394 . S
C1954 C1955 1.369 . S
C1954 C1958 1.531 . S
C1955 C1954 1.369 . S
C1955 C1956 1.410 . S
C1955 C1963 1.503 . S
C1956 C1955 1.410 . S
C1956 C1957 1.392 . S
C1956 C1959 1.511 . S
C1957 C1953 1.376 . S
C1957 C1956 1.392 . S
C1957 H1969 0.929 . S
C1958 C1954 1.531 . S
C1958 H1970 0.960 . S
C1958 H1971 0.962 . S
C1958 H1972 0.960 . S
C1959 C1956 1.511 . S
C1959 H1973 0.961 . S
C1959 H1974 0.961 . S
C1959 H1975 0.961 . S
C1960 C1961 1.370 . S
C1960 C1962 1.363 . S
C1960 H1976 0.931 . S
C1961 C1960 1.370 . S
C1961 C1965 1.408 . S
C1962 C1960 1.363 . S
C1962 C1963 1.370 . S
C1962 C1966 1.524 . S
C1963 C1955 1.503 . S
C1963 C1962 1.370 . S
C1963 C1964 1.403 . S
C1964 C1963 1.403 . S
C1964 C1965 1.404 . S
C1964 C1967 1.539 . S
C1965 C1961 1.408 . S
C1965 C1964 1.404 . S
C1965 H1977 0.930 . S
C1966 C1962 1.524 . S
C1966 H1978 0.956 . S
C1966 H1979 0.961 . S
C1966 H1980 0.961 . S
C1967 C1964 1.539 . S
C1967 H1981 0.958 . S
C1967 H1982 0.961 . S
C1967 H1983 0.960 . S
H1968 C1952 0.931 . S
H1969 C1957 0.929 . S
H1970 C1958 0.960 . S
H1971 C1958 0.962 . S
H1972 C1958 0.960 . S
H1973 C1959 0.961 . S
H1974 C1959 0.961 . S
H1975 C1959 0.961 . S
H1976 C1960 0.931 . S
H1977 C1965 0.930 . S
H1978 C1966 0.956 . S
H1979 C1966 0.961 . S
H1980 C1966 0.961 . S
H1981 C1967 0.958 . S
H1982 C1967 0.961 . S
H1983 C1967 0.960 . S
C1984 C1985 1.391 . S
C1984 C1986 1.394 . S
C1984 H2000 0.931 . S
C1985 C1984 1.391 . S
C1985 C1989 1.376 . S
C1986 C1984 1.394 . S
C1986 C1987 1.369 . S
C1986 C1990 1.531 . S
C1987 C1986 1.369 . S
C1987 C1988 1.410 . S
C1987 C1995 1.503 . S
C1988 C1987 1.410 . S
C1988 C1989 1.392 . S
C1988 C1991 1.511 . S
C1989 C1985 1.376 . S
C1989 C1988 1.392 . S
C1989 H2001 0.929 . S
C1990 C1986 1.531 . S
C1990 H2002 0.960 . S
C1990 H2003 0.962 . S
C1990 H2004 0.960 . S
C1991 C1988 1.511 . S
C1991 H2005 0.961 . S
C1991 H2006 0.961 . S
C1991 H2007 0.961 . S
C1992 C1993 1.370 . S
C1992 C1994 1.363 . S
C1992 H2008 0.931 . S
C1993 C1992 1.370 . S
C1993 C1997 1.408 . S
C1994 C1992 1.363 . S
C1994 C1995 1.370 . S
C1994 C1998 1.524 . S
C1995 C1987 1.503 . S
C1995 C1994 1.370 . S
C1995 C1996 1.403 . S
C1996 C1995 1.403 . S
C1996 C1997 1.404 . S
C1996 C1999 1.539 . S
C1997 C1993 1.408 . S
C1997 C1996 1.404 . S
C1997 H2009 0.930 . S
C1998 C1994 1.524 . S
C1998 H2010 0.956 . S
C1998 H2011 0.961 . S
C1998 H2012 0.961 . S
C1999 C1996 1.539 . S
C1999 H2013 0.958 . S
C1999 H2014 0.961 . S
C1999 H2015 0.960 . S
H2000 C1984 0.931 . S
H2001 C1989 0.929 . S
H2002 C1990 0.960 . S
H2003 C1990 0.962 . S
H2004 C1990 0.960 . S
H2005 C1991 0.961 . S
H2006 C1991 0.961 . S
H2007 C1991 0.961 . S
H2008 C1992 0.931 . S
H2009 C1997 0.930 . S
H2010 C1998 0.956 . S
H2011 C1998 0.961 . S
H2012 C1998 0.961 . S
H2013 C1999 0.958 . S
H2014 C1999 0.961 . S
H2015 C1999 0.960 . S
C2016 C2017 1.391 . S
C2016 C2018 1.394 . S
C2016 H2032 0.931 . S
C2017 C2016 1.391 . S
C2017 C2021 1.376 . S
C2018 C2016 1.394 . S
C2018 C2019 1.369 . S
C2018 C2022 1.531 . S
C2019 C2018 1.369 . S
C2019 C2020 1.410 . S
C2019 C2027 1.503 . S
C2020 C2019 1.410 . S
C2020 C2021 1.392 . S
C2020 C2023 1.511 . S
C2021 C2017 1.376 . S
C2021 C2020 1.392 . S
C2021 H2033 0.929 . S
C2022 C2018 1.531 . S
C2022 H2034 0.960 . S
C2022 H2035 0.962 . S
C2022 H2036 0.960 . S
C2023 C2020 1.511 . S
C2023 H2037 0.961 . S
C2023 H2038 0.961 . S
C2023 H2039 0.961 . S
C2024 C2025 1.370 . S
C2024 C2026 1.363 . S
C2024 H2040 0.931 . S
C2025 C2024 1.370 . S
C2025 C2029 1.408 . S
C2026 C2024 1.363 . S
C2026 C2027 1.370 . S
C2026 C2030 1.524 . S
C2027 C2019 1.503 . S
C2027 C2026 1.370 . S
C2027 C2028 1.403 . S
C2028 C2027 1.403 . S
C2028 C2029 1.404 . S
C2028 C2031 1.539 . S
C2029 C2025 1.408 . S
C2029 C2028 1.404 . S
C2029 H2041 0.930 . S
C2030 C2026 1.524 . S
C2030 H2042 0.956 . S
C2030 H2043 0.961 . S
C2030 H2044 0.961 . S
C2031 C2028 1.539 . S
C2031 H2045 0.958 . S
C2031 H2046 0.961 . S
C2031 H2047 0.960 . S
H2032 C2016 0.931 . S
H2033 C2021 0.929 . S
H2034 C2022 0.960 . S
H2035 C2022 0.962 . S
H2036 C2022 0.960 . S
H2037 C2023 0.961 . S
H2038 C2023 0.961 . S
H2039 C2023 0.961 . S
H2040 C2024 0.931 . S
H2041 C2029 0.930 . S
H2042 C2030 0.956 . S
H2043 C2030 0.961 . S
H2044 C2030 0.961 . S
H2045 C2031 0.958 . S
H2046 C2031 0.961 . S
H2047 C2031 0.960 . S
C2048 C2049 1.391 . S
C2048 C2050 1.394 . S
C2048 H2064 0.931 . S
C2049 C2048 1.391 . S
C2049 C2053 1.376 . S
C2050 C2048 1.394 . S
C2050 C2051 1.369 . S
C2050 C2054 1.531 . S
C2051 C2050 1.369 . S
C2051 C2052 1.410 . S
C2051 C2059 1.503 . S
C2052 C2051 1.410 . S
C2052 C2053 1.392 . S
C2052 C2055 1.511 . S
C2053 C2049 1.376 . S
C2053 C2052 1.392 . S
C2053 H2065 0.929 . S
C2054 C2050 1.531 . S
C2054 H2066 0.960 . S
C2054 H2067 0.962 . S
C2054 H2068 0.960 . S
C2055 C2052 1.511 . S
C2055 H2069 0.961 . S
C2055 H2070 0.961 . S
C2055 H2071 0.961 . S
C2056 C2057 1.370 . S
C2056 C2058 1.363 . S
C2056 H2072 0.931 . S
C2057 C2056 1.370 . S
C2057 C2061 1.408 . S
C2058 C2056 1.363 . S
C2058 C2059 1.370 . S
C2058 C2062 1.524 . S
C2059 C2051 1.503 . S
C2059 C2058 1.370 . S
C2059 C2060 1.403 . S
C2060 C2059 1.403 . S
C2060 C2061 1.404 . S
C2060 C2063 1.539 . S
C2061 C2057 1.408 . S
C2061 C2060 1.404 . S
C2061 H2073 0.930 . S
C2062 C2058 1.524 . S
C2062 H2074 0.956 . S
C2062 H2075 0.961 . S
C2062 H2076 0.961 . S
C2063 C2060 1.539 . S
C2063 H2077 0.958 . S
C2063 H2078 0.961 . S
C2063 H2079 0.960 . S
H2064 C2048 0.931 . S
H2065 C2053 0.929 . S
H2066 C2054 0.960 . S
H2067 C2054 0.962 . S
H2068 C2054 0.960 . S
H2069 C2055 0.961 . S
H2070 C2055 0.961 . S
H2071 C2055 0.961 . S
H2072 C2056 0.931 . S
H2073 C2061 0.930 . S
H2074 C2062 0.956 . S
H2075 C2062 0.961 . S
H2076 C2062 0.961 . S
H2077 C2063 0.958 . S
H2078 C2063 0.961 . S
H2079 C2063 0.960 . S
C2080 C2081 1.391 . S
C2080 C2082 1.394 . S
C2080 H2096 0.931 . S
C2081 C2080 1.391 . S
C2081 C2085 1.376 . S
C2082 C2080 1.394 . S
C2082 C2083 1.369 . S
C2082 C2086 1.531 . S
C2083 C2082 1.369 . S
C2083 C2084 1.410 . S
C2083 C2091 1.503 . S
C2084 C2083 1.410 . S
C2084 C2085 1.392 . S
C2084 C2087 1.511 . S
C2085 C2081 1.376 . S
C2085 C2084 1.392 . S
C2085 H2097 0.929 . S
C2086 C2082 1.531 . S
C2086 H2098 0.960 . S
C2086 H2099 0.962 . S
C2086 H2100 0.960 . S
C2087 C2084 1.511 . S
C2087 H2101 0.961 . S
C2087 H2102 0.961 . S
C2087 H2103 0.961 . S
C2088 C2089 1.370 . S
C2088 C2090 1.363 . S
C2088 H2104 0.931 . S
C2089 C2088 1.370 . S
C2089 C2093 1.408 . S
C2090 C2088 1.363 . S
C2090 C2091 1.370 . S
C2090 C2094 1.524 . S
C2091 C2083 1.503 . S
C2091 C2090 1.370 . S
C2091 C2092 1.403 . S
C2092 C2091 1.403 . S
C2092 C2093 1.404 . S
C2092 C2095 1.539 . S
C2093 C2089 1.408 . S
C2093 C2092 1.404 . S
C2093 H2105 0.930 . S
C2094 C2090 1.524 . S
C2094 H2106 0.956 . S
C2094 H2107 0.961 . S
C2094 H2108 0.961 . S
C2095 C2092 1.539 . S
C2095 H2109 0.958 . S
C2095 H2110 0.961 . S
C2095 H2111 0.960 . S
H2096 C2080 0.931 . S
H2097 C2085 0.929 . S
H2098 C2086 0.960 . S
H2099 C2086 0.962 . S
H2100 C2086 0.960 . S
H2101 C2087 0.961 . S
H2102 C2087 0.961 . S
H2103 C2087 0.961 . S
H2104 C2088 0.931 . S
H2105 C2093 0.930 . S
H2106 C2094 0.956 . S
H2107 C2094 0.961 . S
H2108 C2094 0.961 . S
H2109 C2095 0.958 . S
H2110 C2095 0.961 . S
H2111 C2095 0.960 . S
C2112 C2113 1.391 . S
C2112 C2114 1.394 . S
C2112 H2128 0.931 . S
C2113 C2112 1.391 . S
C2113 C2117 1.376 . S
C2114 C2112 1.394 . S
C2114 C2115 1.369 . S
C2114 C2118 1.531 . S
C2115 C2114 1.369 . S
C2115 C2116 1.410 . S
C2115 C2123 1.503 . S
C2116 C2115 1.410 . S
C2116 C2117 1.392 . S
C2116 C2119 1.511 . S
C2117 C2113 1.376 . S
C2117 C2116 1.392 . S
C2117 H2129 0.929 . S
C2118 C2114 1.531 . S
C2118 H2130 0.960 . S
C2118 H2131 0.962 . S
C2118 H2132 0.960 . S
C2119 C2116 1.511 . S
C2119 H2133 0.961 . S
C2119 H2134 0.961 . S
C2119 H2135 0.961 . S
C2120 C2121 1.370 . S
C2120 C2122 1.363 . S
C2120 H2136 0.931 . S
C2121 C2120 1.370 . S
C2121 C2125 1.408 . S
C2122 C2120 1.363 . S
C2122 C2123 1.370 . S
C2122 C2126 1.524 . S
C2123 C2115 1.503 . S
C2123 C2122 1.370 . S
C2123 C2124 1.403 . S
C2124 C2123 1.403 . S
C2124 C2125 1.404 . S
C2124 C2127 1.539 . S
C2125 C2121 1.408 . S
C2125 C2124 1.404 . S
C2125 H2137 0.930 . S
C2126 C2122 1.524 . S
C2126 H2138 0.956 . S
C2126 H2139 0.961 . S
C2126 H2140 0.961 . S
C2127 C2124 1.539 . S
C2127 H2141 0.958 . S
C2127 H2142 0.961 . S
C2127 H2143 0.960 . S
H2128 C2112 0.931 . S
H2129 C2117 0.929 . S
H2130 C2118 0.960 . S
H2131 C2118 0.962 . S
H2132 C2118 0.960 . S
H2133 C2119 0.961 . S
H2134 C2119 0.961 . S
H2135 C2119 0.961 . S
H2136 C2120 0.931 . S
H2137 C2125 0.930 . S
H2138 C2126 0.956 . S
H2139 C2126 0.961 . S
H2140 C2126 0.961 . S
H2141 C2127 0.958 . S
H2142 C2127 0.961 . S
H2143 C2127 0.960 . S
C2144 C2145 1.391 . S
C2144 C2146 1.394 . S
C2144 H2160 0.931 . S
C2145 C2144 1.391 . S
C2145 C2149 1.376 . S
C2146 C2144 1.394 . S
C2146 C2147 1.369 . S
C2146 C2150 1.531 . S
C2147 C2146 1.369 . S
C2147 C2148 1.410 . S
C2147 C2155 1.503 . S
C2148 C2147 1.410 . S
C2148 C2149 1.392 . S
C2148 C2151 1.511 . S
C2149 C2145 1.376 . S
C2149 C2148 1.392 . S
C2149 H2161 0.929 . S
C2150 C2146 1.531 . S
C2150 H2162 0.960 . S
C2150 H2163 0.962 . S
C2150 H2164 0.960 . S
C2151 C2148 1.511 . S
C2151 H2165 0.961 . S
C2151 H2166 0.961 . S
C2151 H2167 0.961 . S
C2152 C2153 1.370 . S
C2152 C2154 1.363 . S
C2152 H2168 0.931 . S
C2153 C2152 1.370 . S
C2153 C2157 1.408 . S
C2154 C2152 1.363 . S
C2154 C2155 1.370 . S
C2154 C2158 1.524 . S
C2155 C2147 1.503 . S
C2155 C2154 1.370 . S
C2155 C2156 1.403 . S
C2156 C2155 1.403 . S
C2156 C2157 1.404 . S
C2156 C2159 1.539 . S
C2157 C2153 1.408 . S
C2157 C2156 1.404 . S
C2157 H2169 0.930 . S
C2158 C2154 1.524 . S
C2158 H2170 0.956 . S
C2158 H2171 0.961 . S
C2158 H2172 0.961 . S
C2159 C2156 1.539 . S
C2159 H2173 0.958 . S
C2159 H2174 0.961 . S
C2159 H2175 0.960 . S
H2160 C2144 0.931 . S
H2161 C2149 0.929 . S
H2162 C2150 0.960 . S
H2163 C2150 0.962 . S
H2164 C2150 0.960 . S
H2165 C2151 0.961 . S
H2166 C2151 0.961 . S
H2167 C2151 0.961 . S
H2168 C2152 0.931 . S
H2169 C2157 0.930 . S
H2170 C2158 0.956 . S
H2171 C2158 0.961 . S
H2172 C2158 0.961 . S
H2173 C2159 0.958 . S
H2174 C2159 0.961 . S
H2175 C2159 0.960 . S
C2176 C2177 1.391 . S
C2176 C2178 1.394 . S
C2176 H2192 0.931 . S
C2177 C2176 1.391 . S
C2177 C2181 1.376 . S
C2178 C2176 1.394 . S
C2178 C2179 1.369 . S
C2178 C2182 1.531 . S
C2179 C2178 1.369 . S
C2179 C2180 1.410 . S
C2179 C2187 1.503 . S
C2180 C2179 1.410 . S
C2180 C2181 1.392 . S
C2180 C2183 1.511 . S
C2181 C2177 1.376 . S
C2181 C2180 1.392 . S
C2181 H2193 0.929 . S
C2182 C2178 1.531 . S
C2182 H2194 0.960 . S
C2182 H2195 0.962 . S
C2182 H2196 0.960 . S
C2183 C2180 1.511 . S
C2183 H2197 0.961 . S
C2183 H2198 0.961 . S
C2183 H2199 0.961 . S
C2184 C2185 1.370 . S
C2184 C2186 1.363 . S
C2184 H2200 0.931 . S
C2185 C2184 1.370 . S
C2185 C2189 1.408 . S
C2186 C2184 1.363 . S
C2186 C2187 1.370 . S
C2186 C2190 1.524 . S
C2187 C2179 1.503 . S
C2187 C2186 1.370 . S
C2187 C2188 1.403 . S
C2188 C2187 1.403 . S
C2188 C2189 1.404 . S
C2188 C2191 1.539 . S
C2189 C2185 1.408 . S
C2189 C2188 1.404 . S
C2189 H2201 0.930 . S
C2190 C2186 1.524 . S
C2190 H2202 0.956 . S
C2190 H2203 0.961 . S
C2190 H2204 0.961 . S
C2191 C2188 1.539 . S
C2191 H2205 0.958 . S
C2191 H2206 0.961 . S
C2191 H2207 0.960 . S
H2192 C2176 0.931 . S
H2193 C2181 0.929 . S
H2194 C2182 0.960 . S
H2195 C2182 0.962 . S
H2196 C2182 0.960 . S
H2197 C2183 0.961 . S
H2198 C2183 0.961 . S
H2199 C2183 0.961 . S
H2200 C2184 0.931 . S
H2201 C2189 0.930 . S
H2202 C2190 0.956 . S
H2203 C2190 0.961 . S
H2204 C2190 0.961 . S
H2205 C2191 0.958 . S
H2206 C2191 0.961 . S
H2207 C2191 0.960 . S
C2208 C2209 1.391 . S
C2208 C2210 1.394 . S
C2208 H2224 0.931 . S
C2209 C2208 1.391 . S
C2209 C2213 1.376 . S
C2210 C2208 1.394 . S
C2210 C2211 1.369 . S
C2210 C2214 1.531 . S
C2211 C2210 1.369 . S
C2211 C2212 1.410 . S
C2211 C2219 1.503 . S
C2212 C2211 1.410 . S
C2212 C2213 1.392 . S
C2212 C2215 1.511 . S
C2213 C2209 1.376 . S
C2213 C2212 1.392 . S
C2213 H2225 0.929 . S
C2214 C2210 1.531 . S
C2214 H2226 0.960 . S
C2214 H2227 0.962 . S
C2214 H2228 0.960 . S
C2215 C2212 1.511 . S
C2215 H2229 0.961 . S
C2215 H2230 0.961 . S
C2215 H2231 0.961 . S
C2216 C2217 1.370 . S
C2216 C2218 1.363 . S
C2216 H2232 0.931 . S
C2217 C2216 1.370 . S
C2217 C2221 1.408 . S
C2218 C2216 1.363 . S
C2218 C2219 1.370 . S
C2218 C2222 1.524 . S
C2219 C2211 1.503 . S
C2219 C2218 1.370 . S
C2219 C2220 1.403 . S
C2220 C2219 1.403 . S
C2220 C2221 1.404 . S
C2220 C2223 1.539 . S
C2221 C2217 1.408 . S
C2221 C2220 1.404 . S
C2221 H2233 0.930 . S
C2222 C2218 1.524 . S
C2222 H2234 0.956 . S
C2222 H2235 0.961 . S
C2222 H2236 0.961 . S
C2223 C2220 1.539 . S
C2223 H2237 0.958 . S
C2223 H2238 0.961 . S
C2223 H2239 0.960 . S
H2224 C2208 0.931 . S
H2225 C2213 0.929 . S
H2226 C2214 0.960 . S
H2227 C2214 0.962 . S
H2228 C2214 0.960 . S
H2229 C2215 0.961 . S
H2230 C2215 0.961 . S
H2231 C2215 0.961 . S
H2232 C2216 0.931 . S
H2233 C2221 0.930 . S
H2234 C2222 0.956 . S
H2235 C2222 0.961 . S
H2236 C2222 0.961 . S
H2237 C2223 0.958 . S
H2238 C2223 0.961 . S
H2239 C2223 0.960 . S
C2240 C2241 1.391 . S
C2240 C2242 1.394 . S
C2240 H2256 0.931 . S
C2241 C2240 1.391 . S
C2241 C2245 1.376 . S
C2242 C2240 1.394 . S
C2242 C2243 1.369 . S
C2242 C2246 1.531 . S
C2243 C2242 1.369 . S
C2243 C2244 1.410 . S
C2243 C2251 1.503 . S
C2244 C2243 1.410 . S
C2244 C2245 1.392 . S
C2244 C2247 1.511 . S
C2245 C2241 1.376 . S
C2245 C2244 1.392 . S
C2245 H2257 0.929 . S
C2246 C2242 1.531 . S
C2246 H2258 0.960 . S
C2246 H2259 0.962 . S
C2246 H2260 0.960 . S
C2247 C2244 1.511 . S
C2247 H2261 0.961 . S
C2247 H2262 0.961 . S
C2247 H2263 0.961 . S
C2248 C2249 1.370 . S
C2248 C2250 1.363 . S
C2248 H2264 0.931 . S
C2249 C2248 1.370 . S
C2249 C2253 1.408 . S
C2250 C2248 1.363 . S
C2250 C2251 1.370 . S
C2250 C2254 1.524 . S
C2251 C2243 1.503 . S
C2251 C2250 1.370 . S
C2251 C2252 1.403 . S
C2252 C2251 1.403 . S
C2252 C2253 1.404 . S
C2252 C2255 1.539 . S
C2253 C2249 1.408 . S
C2253 C2252 1.404 . S
C2253 H2265 0.930 . S
C2254 C2250 1.524 . S
C2254 H2266 0.956 . S
C2254 H2267 0.961 . S
C2254 H2268 0.961 . S
C2255 C2252 1.539 . S
C2255 H2269 0.958 . S
C2255 H2270 0.961 . S
C2255 H2271 0.960 . S
H2256 C2240 0.931 . S
H2257 C2245 0.929 . S
H2258 C2246 0.960 . S
H2259 C2246 0.962 . S
H2260 C2246 0.960 . S
H2261 C2247 0.961 . S
H2262 C2247 0.961 . S
H2263 C2247 0.961 . S
H2264 C2248 0.931 . S
H2265 C2253 0.930 . S
H2266 C2254 0.956 . S
H2267 C2254 0.961 . S
H2268 C2254 0.961 . S
H2269 C2255 0.958 . S
H2270 C2255 0.961 . S
H2271 C2255 0.960 . S
C2272 C2273 1.391 . S
C2272 C2274 1.394 . S
C2272 H2288 0.931 . S
C2273 C2272 1.391 . S
C2273 C2277 1.376 . S
C2274 C2272 1.394 . S
C2274 C2275 1.369 . S
C2274 C2278 1.531 . S
C2275 C2274 1.369 . S
C2275 C2276 1.410 . S
C2275 C2283 1.503 . S
C2276 C2275 1.410 . S
C2276 C2277 1.392 . S
C2276 C2279 1.511 . S
C2277 C2273 1.376 . S
C2277 C2276 1.392 . S
C2277 H2289 0.929 . S
C2278 C2274 1.531 . S
C2278 H2290 0.960 . S
C2278 H2291 0.962 . S
C2278 H2292 0.960 . S
C2279 C2276 1.511 . S
C2279 H2293 0.961 . S
C2279 H2294 0.961 . S
C2279 H2295 0.961 . S
C2280 C2281 1.370 . S
C2280 C2282 1.363 . S
C2280 H2296 0.931 . S
C2281 C2280 1.370 . S
C2281 C2285 1.408 . S
C2282 C2280 1.363 . S
C2282 C2283 1.370 . S
C2282 C2286 1.524 . S
C2283 C2275 1.503 . S
C2283 C2282 1.370 . S
C2283 C2284 1.403 . S
C2284 C2283 1.403 . S
C2284 C2285 1.404 . S
C2284 C2287 1.539 . S
C2285 C2281 1.408 . S
C2285 C2284 1.404 . S
C2285 H2297 0.930 . S
C2286 C2282 1.524 . S
C2286 H2298 0.956 . S
C2286 H2299 0.961 . S
C2286 H2300 0.961 . S
C2287 C2284 1.539 . S
C2287 H2301 0.958 . S
C2287 H2302 0.961 . S
C2287 H2303 0.960 . S
H2288 C2272 0.931 . S
H2289 C2277 0.929 . S
H2290 C2278 0.960 . S
H2291 C2278 0.962 . S
H2292 C2278 0.960 . S
H2293 C2279 0.961 . S
H2294 C2279 0.961 . S
H2295 C2279 0.961 . S
H2296 C2280 0.931 . S
H2297 C2285 0.930 . S
H2298 C2286 0.956 . S
H2299 C2286 0.961 . S
H2300 C2286 0.961 . S
H2301 C2287 0.958 . S
H2302 C2287 0.961 . S
H2303 C2287 0.960 . S
C2304 C2305 1.391 . S
C2304 C2306 1.394 . S
C2304 H2320 0.931 . S
C2305 C2304 1.391 . S
C2305 C2309 1.376 . S
C2306 C2304 1.394 . S
C2306 C2307 1.369 . S
C2306 C2310 1.531 . S
C2307 C2306 1.369 . S
C2307 C2308 1.410 . S
C2307 C2315 1.503 . S
C2308 C2307 1.410 . S
C2308 C2309 1.392 . S
C2308 C2311 1.511 . S
C2309 C2305 1.376 . S
C2309 C2308 1.392 . S
C2309 H2321 0.929 . S
C2310 C2306 1.531 . S
C2310 H2322 0.960 . S
C2310 H2323 0.962 . S
C2310 H2324 0.960 . S
C2311 C2308 1.511 . S
C2311 H2325 0.961 . S
C2311 H2326 0.961 . S
C2311 H2327 0.961 . S
C2312 C2313 1.370 . S
C2312 C2314 1.363 . S
C2312 H2328 0.931 . S
C2313 C2312 1.370 . S
C2313 C2317 1.408 . S
C2314 C2312 1.363 . S
C2314 C2315 1.370 . S
C2314 C2318 1.524 . S
C2315 C2307 1.503 . S
C2315 C2314 1.370 . S
C2315 C2316 1.403 . S
C2316 C2315 1.403 . S
C2316 C2317 1.404 . S
C2316 C2319 1.539 . S
C2317 C2313 1.408 . S
C2317 C2316 1.404 . S
C2317 H2329 0.930 . S
C2318 C2314 1.524 . S
C2318 H2330 0.956 . S
C2318 H2331 0.961 . S
C2318 H2332 0.961 . S
C2319 C2316 1.539 . S
C2319 H2333 0.958 . S
C2319 H2334 0.961 . S
C2319 H2335 0.960 . S
H2320 C2304 0.931 . S
H2321 C2309 0.929 . S
H2322 C2310 0.960 . S
H2323 C2310 0.962 . S
H2324 C2310 0.960 . S
H2325 C2311 0.961 . S
H2326 C2311 0.961 . S
H2327 C2311 0.961 . S
H2328 C2312 0.931 . S
H2329 C2317 0.930 . S
H2330 C2318 0.956 . S
H2331 C2318 0.961 . S
H2332 C2318 0.961 . S
H2333 C2319 0.958 . S
H2334 C2319 0.961 . S
H2335 C2319 0.960 . S
C2336 C2337 1.391 . S
C2336 C2338 1.394 . S
C2336 H2352 0.931 . S
C2337 C2336 1.391 . S
C2337 C2341 1.376 . S
C2338 C2336 1.394 . S
C2338 C2339 1.369 . S
C2338 C2342 1.531 . S
C2339 C2338 1.369 . S
C2339 C2340 1.410 . S
C2339 C2347 1.503 . S
C2340 C2339 1.410 . S
C2340 C2341 1.392 . S
C2340 C2343 1.511 . S
C2341 C2337 1.376 . S
C2341 C2340 1.392 . S
C2341 H2353 0.929 . S
C2342 C2338 1.531 . S
C2342 H2354 0.960 . S
C2342 H2355 0.962 . S
C2342 H2356 0.960 . S
C2343 C2340 1.511 . S
C2343 H2357 0.961 . S
C2343 H2358 0.961 . S
C2343 H2359 0.961 . S
C2344 C2345 1.370 . S
C2344 C2346 1.363 . S
C2344 H2360 0.931 . S
C2345 C2344 1.370 . S
C2345 C2349 1.408 . S
C2346 C2344 1.363 . S
C2346 C2347 1.370 . S
C2346 C2350 1.524 . S
C2347 C2339 1.503 . S
C2347 C2346 1.370 . S
C2347 C2348 1.403 . S
C2348 C2347 1.403 . S
C2348 C2349 1.404 . S
C2348 C2351 1.539 . S
C2349 C2345 1.408 . S
C2349 C2348 1.404 . S
C2349 H2361 0.930 . S
C2350 C2346 1.524 . S
C2350 H2362 0.956 . S
C2350 H2363 0.961 . S
C2350 H2364 0.961 . S
C2351 C2348 1.539 . S
C2351 H2365 0.958 . S
C2351 H2366 0.961 . S
C2351 H2367 0.960 . S
H2352 C2336 0.931 . S
H2353 C2341 0.929 . S
H2354 C2342 0.960 . S
H2355 C2342 0.962 . S
H2356 C2342 0.960 . S
H2357 C2343 0.961 . S
H2358 C2343 0.961 . S
H2359 C2343 0.961 . S
H2360 C2344 0.931 . S
H2361 C2349 0.930 . S
H2362 C2350 0.956 . S
H2363 C2350 0.961 . S
H2364 C2350 0.961 . S
H2365 C2351 0.958 . S
H2366 C2351 0.961 . S
H2367 C2351 0.960 . S
C2368 C2369 1.391 . S
C2368 C2370 1.394 . S
C2368 H2384 0.931 . S
C2369 C2368 1.391 . S
C2369 C2373 1.376 . S
C2370 C2368 1.394 . S
C2370 C2371 1.369 . S
C2370 C2374 1.531 . S
C2371 C2370 1.369 . S
C2371 C2372 1.410 . S
C2371 C2379 1.503 . S
C2372 C2371 1.410 . S
C2372 C2373 1.392 . S
C2372 C2375 1.511 . S
C2373 C2369 1.376 . S
C2373 C2372 1.392 . S
C2373 H2385 0.929 . S
C2374 C2370 1.531 . S
C2374 H2386 0.960 . S
C2374 H2387 0.962 . S
C2374 H2388 0.960 . S
C2375 C2372 1.511 . S
C2375 H2389 0.961 . S
C2375 H2390 0.961 . S
C2375 H2391 0.961 . S
C2376 C2377 1.370 . S
C2376 C2378 1.363 . S
C2376 H2392 0.931 . S
C2377 C2376 1.370 . S
C2377 C2381 1.408 . S
C2378 C2376 1.363 . S
C2378 C2379 1.370 . S
C2378 C2382 1.524 . S
C2379 C2371 1.503 . S
C2379 C2378 1.370 . S
C2379 C2380 1.403 . S
C2380 C2379 1.403 . S
C2380 C2381 1.404 . S
C2380 C2383 1.539 . S
C2381 C2377 1.408 . S
C2381 C2380 1.404 . S
C2381 H2393 0.930 . S
C2382 C2378 1.524 . S
C2382 H2394 0.956 . S
C2382 H2395 0.961 . S
C2382 H2396 0.961 . S
C2383 C2380 1.539 . S
C2383 H2397 0.958 . S
C2383 H2398 0.961 . S
C2383 H2399 0.960 . S
H2384 C2368 0.931 . S
H2385 C2373 0.929 . S
H2386 C2374 0.960 . S
H2387 C2374 0.962 . S
H2388 C2374 0.960 . S
H2389 C2375 0.961 . S
H2390 C2375 0.961 . S
H2391 C2375 0.961 . S
H2392 C2376 0.931 . S
H2393 C2381 0.930 . S
H2394 C2382 0.956 . S
H2395 C2382 0.961 . S
H2396 C2382 0.961 . S
H2397 C2383 0.958 . S
H2398 C2383 0.961 . S
H2399 C2383 0.960 . S
C873 C689 1.519 . S
C865 C74 1.373 . S
C905 C694 0.679 . S
C897 C142 0.906 . S
C937 C695 1.529 . S
C929 C231 1.466 . S
C961 C322 1.215 . S
C969 C699 1.378 . S
C993 C406 1.035 . S
C1001 C702 0.613 . S
C1033 C703 1.532 . S
C1025 C494 1.461 . S
C1057 C562 1.302 . S
C1065 C680 1.359 . S
C1089 C651 1.387 . S
C1097 C696 1.525 . S
C1129 C734 1.359 . S
C1121 C58 1.338 . S
C1153 C151 1.478 . S
C1161 C760 1.506 . S
C1193 C712 2.432 . S
C1185 C224 2.376 . S
C1225 C767 1.409 . S
C1217 C315 1.355 . S
C1249 C399 1.357 . S
C1257 C721 1.434 . S
C1289 C763 1.366 . S
C1281 C478 1.279 . S
C1313 C571 1.490 . S
C1321 C727 1.514 . S
C1345 C644 2.324 . S
C1353 C758 2.428 . S
C1377 C67 2.371 . S
C1385 C766 2.426 . S
C1409 C392 1.515 . S
C1417 C753 1.509 . S
C1449 C731 2.424 . S
C1441 C487 2.364 . S
C1481 C759 1.416 . S
C1473 C578 1.367 . S
C1505 C658 1.330 . S
C1513 C726 1.371 . S
C1537 C238 1.332 . S
C1545 C744 1.358 . S
C1577 C735 1.521 . S
C1569 C308 1.495 . S
C1601 C158 1.357 . S
C1609 C728 1.426 . S
C1633 C662 1.423 . S
C1641 C790 1.451 . S
C1665 C394 1.060 . S
C1673 C785 0.362 . S
C1705 C799 1.422 . S
C1697 C483 1.419 . S
C1737 C776 1.349 . S
C1729 C574 1.257 . S
C1761 C154 1.034 . S
C1769 C792 0.361 . S
C1801 C791 1.415 . S
C1793 C242 1.421 . S
C1825 C310 1.188 . S
C1833 C795 1.333 . S
C1857 C63 1.403 . S
C1865 C798 1.424 . S
C1889 C646 1.277 . S
C1897 C824 1.391 . S
C1929 C840 1.516 . S
C1921 C403 1.470 . S
C1953 C476 2.388 . S
C1961 C822 2.495 . S
C1985 C567 1.349 . S
C1993 C855 1.375 . S
C2025 C831 1.367 . S
C2017 C147 1.406 . S
C2049 C226 1.295 . S
C2057 C849 1.353 . S
C2089 C827 1.499 . S
C2081 C319 1.463 . S
C2121 C862 2.476 . S
C2113 C56 2.368 . S
C2153 C854 2.465 . S
C2145 C655 2.372 . S
C2177 C140 1.528 . S
C2185 C859 1.522 . S
C2209 C235 2.369 . S
C2217 C830 2.489 . S
C2249 C863 1.398 . S
C2241 C326 1.389 . S
C2273 C70 1.260 . S
C2281 C817 1.396 . S
C2305 C490 1.346 . S
C2313 C856 1.372 . S
C2345 C808 1.500 . S
C2337 C560 1.453 . S
C2377 C823 1.365 . S
C2369 C410 1.330 . S
