# Generated by pormake.
# Topology apo, (3,6)-cn, num edge types: 1
# Building blocks:
#     Node 0, Type 0, BuildingBlock: WUSLED_clean_sbu_0, # of connection points: 3
#     Node 1, Type 0, BuildingBlock: WUSLED_clean_sbu_0, # of connection points: 3
#     Node 2, Type 0, BuildingBlock: WUSLED_clean_sbu_0, # of connection points: 3
#     Node 3, Type 0, BuildingBlock: WUSLED_clean_sbu_0, # of connection points: 3
#     Node 4, Type 0, BuildingBlock: WUSLED_clean_sbu_0, # of connection points: 3
#     Node 5, Type 0, BuildingBlock: WUSLED_clean_sbu_0, # of connection points: 3
#     Node 6, Type 0, BuildingBlock: WUSLED_clean_sbu_0, # of connection points: 3
#     Node 7, Type 0, BuildingBlock: WUSLED_clean_sbu_0, # of connection points: 3
#     Node 8, Type 1, BuildingBlock: KUMBOL_clean_sbu_1, # of connection points: 6
#     Node 9, Type 1, BuildingBlock: KUMBOL_clean_sbu_1, # of connection points: 6
#     Node 10, Type 1, BuildingBlock: KUMBOL_clean_sbu_1, # of connection points: 6
#     Node 11, Type 1, BuildingBlock: KUMBOL_clean_sbu_1, # of connection points: 6
#     Edge 12, Type (0, 1), BuildingBlock: TEMPAE_clean_linker_10, # of connection points: 2
#     Edge 13, Type (0, 1), BuildingBlock: TEMPAE_clean_linker_10, # of connection points: 2
#     Edge 14, Type (0, 1), BuildingBlock: TEMPAE_clean_linker_10, # of connection points: 2
#     Edge 15, Type (0, 1), BuildingBlock: TEMPAE_clean_linker_10, # of connection points: 2
#     Edge 16, Type (0, 1), BuildingBlock: TEMPAE_clean_linker_10, # of connection points: 2
#     Edge 17, Type (0, 1), BuildingBlock: TEMPAE_clean_linker_10, # of connection points: 2
#     Edge 18, Type (0, 1), BuildingBlock: TEMPAE_clean_linker_10, # of connection points: 2
#     Edge 19, Type (0, 1), BuildingBlock: TEMPAE_clean_linker_10, # of connection points: 2
#     Edge 20, Type (0, 1), BuildingBlock: TEMPAE_clean_linker_10, # of connection points: 2
#     Edge 21, Type (0, 1), BuildingBlock: TEMPAE_clean_linker_10, # of connection points: 2
#     Edge 22, Type (0, 1), BuildingBlock: TEMPAE_clean_linker_10, # of connection points: 2
#     Edge 23, Type (0, 1), BuildingBlock: TEMPAE_clean_linker_10, # of connection points: 2
#     Edge 24, Type (0, 1), BuildingBlock: TEMPAE_clean_linker_10, # of connection points: 2
#     Edge 25, Type (0, 1), BuildingBlock: TEMPAE_clean_linker_10, # of connection points: 2
#     Edge 26, Type (0, 1), BuildingBlock: TEMPAE_clean_linker_10, # of connection points: 2
#     Edge 27, Type (0, 1), BuildingBlock: TEMPAE_clean_linker_10, # of connection points: 2
#     Edge 28, Type (0, 1), BuildingBlock: TEMPAE_clean_linker_10, # of connection points: 2
#     Edge 29, Type (0, 1), BuildingBlock: TEMPAE_clean_linker_10, # of connection points: 2
#     Edge 30, Type (0, 1), BuildingBlock: TEMPAE_clean_linker_10, # of connection points: 2
#     Edge 31, Type (0, 1), BuildingBlock: TEMPAE_clean_linker_10, # of connection points: 2
#     Edge 32, Type (0, 1), BuildingBlock: TEMPAE_clean_linker_10, # of connection points: 2
#     Edge 33, Type (0, 1), BuildingBlock: TEMPAE_clean_linker_10, # of connection points: 2
#     Edge 34, Type (0, 1), BuildingBlock: TEMPAE_clean_linker_10, # of connection points: 2
#     Edge 35, Type (0, 1), BuildingBlock: TEMPAE_clean_linker_10, # of connection points: 2
# Relax obj value: 0.010
# Max RMSD: 0.099
# Mean RMSD: 0.075
data_MOF--net-apo--node1-WUSLED_clean_sbu_0--node2-KUMBOL_clean_sbu_1--edge1-TEMPAE_clean_linker_10
_symmetry_space_group_name_H-M    P1
_symmetry_Int_Tables_number       1
_symmetry_cell_setting            triclinic
loop_
_symmetry_equiv_pos_as_xyz
'x, y, z'
_cell_length_a     31.941167
_cell_length_b     55.788258
_cell_length_c     66.457468
_cell_angle_alpha  90.267807
_cell_angle_beta   89.976724
_cell_angle_gamma 90.322908
loop_
_atom_site_label
_atom_site_type_symbol
_atom_site_fract_x
_atom_site_fract_y
_atom_site_fract_z
_atom_type_partial_charge
C0 C 0.3168 0.42867 0.38135 0.0
C1 C 0.29555 0.45067 0.38247 0.0
C2 C 0.35107 0.47044 0.36347 0.0
C3 C 0.31253 0.4713 0.37367 0.0
C4 C 0.37235 0.44847 0.36239 0.0
C5 C 0.35534 0.42783 0.37113 0.0
U6 U 0.29473 0.38423 0.42442 0.0
O7 O 0.23712 0.36429 0.43174 0.0
O8 O 0.29436 0.34476 0.42401 0.0
C9 C 0.25402 0.34336 0.42776 0.0
C10 C 0.29791 0.4064 0.38965 0.0
C11 C 0.22986 0.32756 0.41421 0.0
C12 C 0.19574 0.31961 0.38213 0.0
C13 C 0.21847 0.335 0.39483 0.0
C14 C 0.19573 0.28918 0.40801 0.0
C15 C 0.18418 0.29647 0.38855 0.0
C16 C 0.21833 0.30459 0.4207 0.0
C17 C 0.34001 0.39779 0.47702 0.0
C18 C 0.32248 0.3759 0.50747 0.0
C19 C 0.37749 0.40596 0.50815 0.0
C20 C 0.37086 0.41045 0.48772 0.0
C21 C 0.35328 0.3887 0.51832 0.0
C22 C 0.31596 0.38037 0.48697 0.0
C23 C 0.33324 0.40331 0.45563 0.0
O24 O 0.32405 0.38935 0.39477 0.0
O25 O 0.26702 0.40903 0.40255 0.0
O26 O 0.29467 0.40865 0.4505 0.0
O27 O 0.35176 0.38901 0.44267 0.0
H28 H 0.26557 0.45196 0.39 0.0
H29 H 0.29549 0.48798 0.37491 0.0
H30 H 0.40176 0.44708 0.35436 0.0
H31 H 0.37219 0.41112 0.36964 0.0
H32 H 0.18781 0.32569 0.36716 0.0
H33 H 0.22732 0.35265 0.38952 0.0
H34 H 0.18695 0.27163 0.41353 0.0
H35 H 0.22683 0.29856 0.43561 0.0
H36 H 0.30363 0.36229 0.51478 0.0
H37 H 0.40108 0.41634 0.51607 0.0
H38 H 0.38967 0.424 0.48028 0.0
H39 H 0.2921 0.37032 0.47892 0.0
C40 C 0.20002 0.16048 0.97796 0.0
C41 C 0.16497 0.14617 0.98252 0.0
C42 C 0.17438 0.15446 1.01829 0.0
C43 C 0.15211 0.14329 1.00254 0.0
C44 C 0.20956 0.16866 1.01357 0.0
C45 C 0.22219 0.17164 0.9936 0.0
U46 U 0.20797 0.13949 0.9233 0.0
O47 O 0.20292 0.15958 0.89505 0.0
O48 O 0.2614 0.14102 0.90234 0.0
C49 C 0.24233 0.15597 0.8902 0.0
C50 C 0.21426 0.16381 0.95707 0.0
C51 C 0.26694 0.17717 0.88379 0.0
C52 C 0.27452 0.22021 0.87876 0.0
C53 C 0.25181 0.20064 0.88624 0.0
C54 C 0.3284 0.19331 0.86681 0.0
C55 C 0.31292 0.21674 0.86881 0.0
C56 C 0.30556 0.17375 0.87415 0.0
C57 C 0.15628 0.07984 0.90824 0.0
C58 C 0.16336 0.06148 0.87517 0.0
C59 C 0.11576 0.04432 0.89966 0.0
C60 C 0.12696 0.06219 0.91346 0.0
C61 C 0.13373 0.04376 0.88033 0.0
C62 C 0.17446 0.07944 0.88901 0.0
C63 C 0.16721 0.09848 0.92306 0.0
O64 O 0.24295 0.14871 0.95084 0.0
O65 O 0.18477 0.1676 0.94367 0.0
O66 O 0.14888 0.11927 0.92053 0.0
O67 O 0.20717 0.10042 0.92754 0.0
H68 H 0.14762 0.13722 0.97064 0.0
H69 H 0.12511 0.1321 1.00571 0.0
H70 H 0.22705 0.17776 0.02533 0.0
H71 H 0.24931 0.18273 0.99037 0.0
H72 H 0.26198 0.23807 0.88071 0.0
H73 H 0.22219 0.2039 0.89367 0.0
H74 H 0.35761 0.19 0.85902 0.0
H75 H 0.31778 0.15584 0.87196 0.0
H76 H 0.17748 0.06165 0.86035 0.0
H77 H 0.09334 0.03076 0.90422 0.0
H78 H 0.11271 0.06222 0.92827 0.0
H79 H 0.19709 0.09303 0.88472 0.0
C80 C 0.81591 0.09459 0.66448 0.0
C81 C 0.85512 0.08502 0.65937 0.0
C82 C 0.84535 0.05286 0.68373 0.0
C83 C 0.86975 0.06438 0.66896 0.0
C84 C 0.80576 0.06225 0.68845 0.0
C85 C 0.79129 0.08293 0.67895 0.0
U86 U 0.79936 0.13974 0.62114 0.0
O87 O 0.74412 0.16188 0.61496 0.0
O88 O 0.80409 0.17914 0.62231 0.0
C89 C 0.76372 0.18199 0.61946 0.0
C90 C 0.80072 0.11725 0.65579 0.0
C91 C 0.74261 0.19756 0.63424 0.0
C92 C 0.70673 0.20327 0.6662 0.0
C93 C 0.72675 0.18824 0.65232 0.0
C94 C 0.71883 0.23716 0.64426 0.0
C95 C 0.70254 0.22792 0.66234 0.0
C96 C 0.73862 0.2221 0.63035 0.0
C97 C 0.83896 0.12556 0.56748 0.0
C98 C 0.82024 0.14719 0.53708 0.0
C99 C 0.87273 0.11607 0.53566 0.0
C100 C 0.86784 0.11218 0.5563 0.0
C101 C 0.84879 0.1335 0.52571 0.0
C102 C 0.81542 0.14327 0.5578 0.0
C103 C 0.83308 0.12006 0.58899 0.0
O104 O 0.82937 0.13291 0.65028 0.0
O105 O 0.76947 0.11544 0.64301 0.0
O106 O 0.79434 0.11595 0.59477 0.0
O107 O 0.85434 0.13341 0.60179 0.0
H108 H 0.87464 0.09363 0.64817 0.0
H109 H 0.90014 0.05741 0.6648 0.0
H110 H 0.78637 0.05397 0.69987 0.0
H111 H 0.76103 0.09007 0.68318 0.0
H112 H 0.69495 0.19564 0.68007 0.0
H113 H 0.72987 0.16934 0.65569 0.0
H114 H 0.71572 0.25599 0.64072 0.0
H115 H 0.75073 0.22962 0.6165 0.0
H116 H 0.80162 0.16092 0.52998 0.0
H117 H 0.89451 0.10494 0.52739 0.0
H118 H 0.88619 0.09837 0.56349 0.0
H119 H 0.79302 0.15386 0.5662 0.0
C120 C 0.70506 0.36109 0.06295 0.0
C121 C 0.68216 0.38056 0.05551 0.0
C122 C 0.68579 0.36391 0.02145 0.0
C123 C 0.67249 0.38193 0.03492 0.0
C124 C 0.70835 0.34439 0.02916 0.0
C125 C 0.71787 0.34304 0.04964 0.0
U126 U 0.70649 0.3828 0.11835 0.0
O127 O 0.70147 0.36167 0.1461 0.0
O128 O 0.75878 0.38231 0.14001 0.0
C129 C 0.73976 0.367 0.15194 0.0
C130 C 0.71661 0.35915 0.08437 0.0
C131 C 0.76539 0.34716 0.15974 0.0
C132 C 0.78296 0.30483 0.16198 0.0
C133 C 0.76016 0.32339 0.15306 0.0
C134 C 0.81707 0.33363 0.18397 0.0
C135 C 0.81148 0.30972 0.17766 0.0
C136 C 0.79425 0.35209 0.17511 0.0
C137 C 0.65308 0.44003 0.1358 0.0
C138 C 0.66434 0.45655 0.16933 0.0
C139 C 0.61161 0.47367 0.14759 0.0
C140 C 0.62163 0.45698 0.13258 0.0
C141 C 0.63298 0.47375 0.16612 0.0
C142 C 0.67419 0.43979 0.15433 0.0
C143 C 0.6637 0.42283 0.11972 0.0
O144 O 0.74345 0.37521 0.09113 0.0
O145 O 0.68586 0.3548 0.09702 0.0
O146 O 0.64624 0.40154 0.12129 0.0
O147 O 0.70354 0.42192 0.11483 0.0
H148 H 0.67202 0.39471 0.06559 0.0
H149 H 0.65524 0.39725 0.0295 0.0
H150 H 0.71839 0.32996 1.01936 0.0
H151 H 0.73541 0.32782 0.0551 0.0
H152 H 0.77825 0.28666 0.15661 0.0
H153 H 0.73812 0.31913 0.14117 0.0
H154 H 0.83827 0.33804 0.19617 0.0
H155 H 0.79857 0.37027 0.18058 0.0
H156 H 0.68108 0.45597 0.18349 0.0
H157 H 0.5877 0.48684 0.14452 0.0
H158 H 0.60501 0.45744 0.11838 0.0
H159 H 0.69841 0.4267 0.15714 0.0
C160 C 0.69749 0.59312 0.66305 0.0
C161 C 0.69762 0.57103 0.65281 0.0
C162 C 0.66608 0.55137 0.68193 0.0
C163 C 0.68208 0.55034 0.66218 0.0
C164 C 0.66538 0.57368 0.6919 0.0
C165 C 0.68099 0.59427 0.68257 0.0
U166 U 0.7236 0.63622 0.61916 0.0
O167 O 0.72255 0.67571 0.61937 0.0
O168 O 0.78154 0.65678 0.614 0.0
C169 C 0.76337 0.67751 0.61737 0.0
C170 C 0.71576 0.61504 0.65422 0.0
C171 C 0.78455 0.69353 0.6319 0.0
C172 C 0.82067 0.70039 0.66367 0.0
C173 C 0.80018 0.68488 0.65021 0.0
C174 C 0.80942 0.73343 0.64084 0.0
C175 C 0.82573 0.72488 0.65912 0.0
C176 C 0.78914 0.71791 0.62738 0.0
C177 C 0.6891 0.62194 0.56456 0.0
C178 C 0.72154 0.62845 0.53182 0.0
C179 C 0.64616 0.62516 0.53439 0.0
C180 C 0.64967 0.62201 0.55521 0.0
C181 C 0.68209 0.6281 0.52239 0.0
C182 C 0.72503 0.62546 0.55267 0.0
C183 C 0.69192 0.61673 0.58639 0.0
O184 O 0.74834 0.61219 0.64236 0.0
O185 O 0.68906 0.63098 0.64755 0.0
O186 O 0.67035 0.63074 0.59846 0.0
O187 O 0.72912 0.61138 0.59352 0.0
H188 H 0.71019 0.56971 0.63771 0.0
H189 H 0.68338 0.53346 0.6541 0.0
H190 H 0.65257 0.57527 0.70693 0.0
H191 H 0.6805 0.61115 0.69071 0.0
H192 H 0.83312 0.69311 0.67749 0.0
H193 H 0.79678 0.66611 0.65404 0.0
H194 H 0.81198 0.75222 0.63697 0.0
H195 H 0.77699 0.72496 0.6134 0.0
H196 H 0.7498 0.63098 0.52304 0.0
H197 H 0.61534 0.62457 0.5276 0.0
H198 H 0.62151 0.61916 0.564 0.0
H199 H 0.75591 0.62558 0.55939 0.0
C200 C 0.79586 0.86676 0.06131 0.0
C201 C 0.80155 0.88979 0.05326 0.0
C202 C 0.81701 0.87259 1.02021 0.0
C203 C 0.81189 0.89268 0.0329 0.0
C204 C 0.81207 0.84957 0.02851 0.0
C205 C 0.80156 0.84672 0.04882 0.0
U206 U 0.78839 0.88746 0.11642 0.0
O207 O 0.73606 0.88461 0.13792 0.0
O208 O 0.79588 0.86707 0.14445 0.0
C209 C 0.75707 0.87079 0.15023 0.0
C210 C 0.78309 0.86321 0.08247 0.0
C211 C 0.73409 0.85018 0.15875 0.0
C212 C 0.71553 0.8078 0.15972 0.0
C213 C 0.73618 0.82706 0.15037 0.0
C214 C 0.69012 0.8347 0.18563 0.0
C215 C 0.69266 0.81137 0.17763 0.0
C216 C 0.71061 0.85383 0.1763 0.0
C217 C 0.83428 0.94846 0.13225 0.0
C218 C 0.85589 0.96082 0.16589 0.0
C219 C 0.84321 0.99073 0.14036 0.0
C220 C 0.83287 0.97261 0.12659 0.0
C221 C 0.85544 0.98508 0.16013 0.0
C222 C 0.84531 0.94269 0.15211 0.0
C223 C 0.82507 0.92972 0.11707 0.0
O224 O 0.81364 0.86035 0.09548 0.0
O225 O 0.75332 0.87735 0.08917 0.0
O226 O 0.78537 0.92665 0.11251 0.0
O227 O 0.84549 0.90945 0.11894 0.0
H228 H 0.79761 0.90552 0.06267 0.0
H229 H 0.81595 0.91065 0.02709 0.0
H230 H 0.81526 0.83372 1.01918 0.0
H231 H 0.79731 0.82879 0.05472 0.0
H232 H 0.71829 0.79005 0.15321 0.0
H233 H 0.75416 0.82386 0.1368 0.0
H234 H 0.67219 0.8382 0.19915 0.0
H235 H 0.70849 0.87155 0.18297 0.0
H236 H 0.86549 0.95576 0.1809 0.0
H237 H 0.8417 1.00919 0.13548 0.0
H238 H 0.82414 0.97747 0.1114 0.0
H239 H 0.84639 0.92416 0.15688 0.0
C240 C 0.19474 0.93003 0.38029 0.0
C241 C 0.16157 0.94174 0.39004 0.0
C242 C 0.16445 0.97394 0.36536 0.0
C243 C 0.14645 0.96349 0.38258 0.0
C244 C 0.19811 0.96226 0.3559 0.0
C245 C 0.21304 0.94052 0.3633 0.0
U246 U 0.21161 0.88183 0.42069 0.0
O247 O 0.20661 0.84263 0.41799 0.0
O248 O 0.267 0.85924 0.42568 0.0
C249 C 0.24707 0.8395 0.42045 0.0
C250 C 0.21026 0.90668 0.38722 0.0
C251 C 0.2682 0.82453 0.40518 0.0
C252 C 0.27525 0.80961 0.37086 0.0
C253 C 0.25498 0.82417 0.38501 0.0
C254 C 0.32281 0.796 0.39672 0.0
C255 C 0.30941 0.79534 0.37656 0.0
C256 C 0.30233 0.8104 0.41088 0.0
C257 C 0.17177 0.89271 0.47489 0.0
C258 C 0.15476 0.86327 0.5006 0.0
C259 C 0.16385 0.90501 0.50983 0.0
C260 C 0.17233 0.91062 0.48975 0.0
C261 C 0.1544 0.88131 0.51551 0.0
C262 C 0.16342 0.8689 0.48048 0.0
C263 C 0.17833 0.89958 0.45369 0.0
O264 O 0.24161 0.90746 0.40001 0.0
O265 O 0.18155 0.89069 0.39195 0.0
O266 O 0.15682 0.88747 0.44013 0.0
O267 O 0.21725 0.90377 0.44826 0.0
H268 H 0.14718 0.93397 0.40327 0.0
H269 H 0.12076 0.97215 0.39032 0.0
H270 H 0.21231 0.96963 0.34246 0.0
H271 H 0.23862 0.93172 0.35557 0.0
H272 H 0.26446 0.80967 0.35541 0.0
H273 H 0.22897 0.83512 0.38019 0.0
H274 H 0.34871 0.78504 0.40164 0.0
H275 H 0.31307 0.81044 0.42635 0.0
H276 H 0.1473 0.84487 0.50437 0.0
H277 H 0.16465 0.91929 0.52092 0.0
H278 H 0.17888 0.92908 0.48577 0.0
H279 H 0.1629 0.85475 0.46927 0.0
C280 C 0.32224 0.66811 0.97607 0.0
C281 C 0.31527 0.64758 0.98784 0.0
C282 C 0.35034 0.66659 1.0164 0.0
C283 C 0.32901 0.64689 1.00786 0.0
C284 C 0.35749 0.68699 1.0045 0.0
C285 C 0.34348 0.68774 0.98459 0.0
U286 U 0.31014 0.64214 0.9228 0.0
O287 O 0.25815 0.64408 0.90123 0.0
O288 O 0.31935 0.65963 0.89345 0.0
C289 C 0.27997 0.65673 0.88822 0.0
C290 C 0.3078 0.66961 0.95497 0.0
C291 C 0.25925 0.67783 0.87947 0.0
C292 C 0.20657 0.70915 0.88032 0.0
C293 C 0.2274 0.69019 0.88968 0.0
C294 C 0.24992 0.70404 0.85071 0.0
C295 C 0.21739 0.71616 0.86066 0.0
C296 C 0.27053 0.68505 0.86002 0.0
C297 C 0.35303 0.5803 0.91019 0.0
C298 C 0.3413 0.56102 0.87775 0.0
C299 C 0.3929 0.54511 0.90075 0.0
C300 C 0.38336 0.56312 0.91466 0.0
C301 C 0.37221 0.54394 0.88208 0.0
C302 C 0.33193 0.57916 0.89167 0.0
C303 C 0.34492 0.59971 0.92469 0.0
O304 O 0.33754 0.67104 0.94135 0.0
O305 O 0.27683 0.65527 0.94963 0.0
O306 O 0.30538 0.60354 0.92909 0.0
O307 O 0.3663 0.61954 0.92161 0.0
H308 H 0.29924 0.63209 0.98161 0.0
H309 H 0.32335 0.63085 1.01659 0.0
H310 H 0.37335 0.70257 1.0107 0.0
H311 H 0.34915 0.70377 0.97582 0.0
H312 H 0.18198 0.71832 0.88846 0.0
H313 H 0.21827 0.68504 0.90476 0.0
H314 H 0.25871 0.70881 0.8355 0.0
H315 H 0.2949 0.67569 0.85185 0.0
H316 H 0.32509 0.56069 0.86344 0.0
H317 H 0.41647 0.53203 0.90463 0.0
H318 H 0.39996 0.56375 0.92887 0.0
H319 H 0.3086 0.59242 0.8879 0.0
C320 C 0.87577 0.11539 0.27726 0.0
C321 C 0.88724 0.07357 0.28531 0.0
C322 C 0.90079 0.09767 0.28559 0.0
C323 C 0.84929 0.06745 0.27586 0.0
C324 C 0.83735 0.10939 0.26806 0.0
C325 C 0.82443 0.0853 0.26726 0.0
N326 N 0.88976 0.13847 0.27763 0.0
C327 C 0.86637 0.15651 0.26976 0.0
C328 C 0.8134 0.12776 0.25967 0.0
C329 C 0.82789 0.15143 0.26061 0.0
Gd330 Gd 0.05163 0.14753 0.25248 0.0
Gd331 Gd 0.95526 0.1451 0.29252 0.0
N332 N 0.93791 0.10407 0.29424 0.0
C333 C 0.91184 0.05639 0.29493 0.0
C334 C 0.95961 0.08781 0.30531 0.0
C335 C 0.94771 0.06365 0.30535 0.0
H336 H 0.98509 0.09345 0.31477 0.0
H337 H 0.96571 0.05074 0.31378 0.0
H338 H 0.03279 0.2036 0.23715 0.0
H339 H 0.87739 0.17482 0.27058 0.0
H340 H 0.07124 0.24171 0.23354 0.0
H341 H 0.90254 0.03769 0.29507 0.0
H342 H 0.83865 0.04898 0.27533 0.0
H343 H 0.12153 0.10751 0.26941 0.0
H344 H 0.78373 0.12387 0.25242 0.0
H345 H 0.80949 0.16576 0.25425 0.0
H346 H 0.20925 0.22422 0.25773 0.0
H347 H 0.7952 0.08029 0.26007 0.0
H348 H 0.2369 0.14447 0.28044 0.0
H349 H 0.19463 0.10718 0.2812 0.0
N350 N 0.12091 0.14501 0.26394 0.0
C351 C 0.14383 0.16558 0.26298 0.0
C352 C 0.13888 0.12411 0.26997 0.0
C353 C 0.20439 0.14485 0.2758 0.0
C354 C 0.18062 0.12378 0.27629 0.0
C355 C 0.1863 0.16602 0.26877 0.0
H356 H 0.24219 0.18803 0.27139 0.0
N357 N 0.08388 0.18523 0.25034 0.0
C358 C 0.12513 0.1861 0.25542 0.0
C359 C 0.12877 0.22766 0.24545 0.0
C360 C 0.14862 0.20742 0.25325 0.0
C361 C 0.06471 0.2047 0.24224 0.0
C362 C 0.08667 0.22626 0.23988 0.0
O363 O 0.94764 0.13095 0.26051 0.0
O364 O 0.01134 0.11447 0.25435 0.0
O365 O 0.04376 0.15208 0.2201 0.0
O366 O 0.0914 0.1284 0.23145 0.0
O367 O 0.01884 0.1307 0.30188 0.0
O368 O 0.04612 0.11531 0.27256 0.0
O369 O 0.06078 0.16963 0.28111 0.0
O370 O 0.99554 0.1782 0.29498 0.0
O371 O 0.95325 0.14112 0.32504 0.0
O372 O 0.90669 0.16259 0.3102 0.0
O373 O 0.99112 0.16663 0.24462 0.0
O374 O 0.95799 0.17895 0.27407 0.0
C375 C 0.97077 0.11456 0.25182 0.0
C376 C 0.04386 0.11585 0.29229 0.0
C377 C 0.10653 0.14896 0.20125 0.0
C378 C 0.12768 0.15826 0.16677 0.0
C379 C 0.1727 0.16926 0.19483 0.0
C380 C 0.14419 0.15911 0.2082 0.0
C381 C 0.16451 0.16894 0.17426 0.0
C382 C 0.09857 0.1483 0.18039 0.0
C383 C 0.07595 0.1388 0.21563 0.0
C384 C 0.19083 0.20795 0.25915 0.0
C385 C 0.20954 0.18735 0.26699 0.0
H386 H 0.14568 0.2444 0.2436 0.0
C387 C 0.03636 0.18122 0.29388 0.0
C388 C 0.96569 0.18101 0.25463 0.0
C389 C 0.88641 0.14212 0.33997 0.0
C390 C 0.85993 0.13252 0.37359 0.0
C391 C 0.82401 0.11753 0.34375 0.0
C392 C 0.85335 0.12889 0.33145 0.0
C393 C 0.82728 0.11923 0.36465 0.0
C394 C 0.88941 0.14406 0.36107 0.0
C395 C 0.9188 0.15321 0.32711 0.0
H396 H 0.20153 0.1771 0.20042 0.0
H397 H 0.15205 0.15891 0.22392 0.0
H398 H 0.18762 0.17648 0.16413 0.0
H399 H 0.06997 0.14011 0.17481 0.0
H400 H 0.79863 0.10733 0.33704 0.0
H401 H 0.85016 0.12728 0.31533 0.0
H402 H 0.80394 0.11035 0.37385 0.0
H403 H 0.91508 0.15411 0.36773 0.0
C404 C 0.63079 0.41168 0.78168 0.0
C405 C 0.6187 0.45013 0.79761 0.0
C406 C 0.60631 0.42624 0.79376 0.0
C407 C 0.65477 0.4594 0.78828 0.0
C408 C 0.66798 0.42053 0.77297 0.0
C409 C 0.6794 0.44462 0.77601 0.0
N410 N 0.61833 0.38865 0.77863 0.0
C411 C 0.64308 0.37295 0.76834 0.0
C412 C 0.69266 0.40482 0.76159 0.0
C413 C 0.68038 0.38085 0.75947 0.0
Gd414 Gd 0.45864 0.37456 0.75301 0.0
Gd415 Gd 0.55476 0.37697 0.79333 0.0
N416 N 0.57178 0.41664 0.80265 0.0
C417 C 0.59537 0.46366 0.81133 0.0
C418 C 0.55121 0.4291 0.8173 0.0
C419 C 0.56212 0.45289 0.82157 0.0
H420 H 0.52703 0.42059 0.8261 0.0
H421 H 0.54546 0.46272 0.83304 0.0
H422 H 0.47126 0.32102 0.73219 0.0
H423 H 0.63374 0.35441 0.76681 0.0
H424 H 0.43529 0.28155 0.73139 0.0
H425 H 0.60392 0.48205 0.8148 0.0
H426 H 0.66447 0.4778 0.79087 0.0
H427 H 0.38911 0.41314 0.77426 0.0
H428 H 0.72145 0.41094 0.75462 0.0
H429 H 0.69958 0.36847 0.75099 0.0
H430 H 0.31405 0.29298 0.77302 0.0
H431 H 0.70758 0.45186 0.76923 0.0
H432 H 0.28846 0.3719 0.79871 0.0
H433 H 0.3239 0.41094 0.79373 0.0
N434 N 0.39434 0.37529 0.77054 0.0
C435 C 0.37396 0.35387 0.77202 0.0
C436 C 0.3757 0.39577 0.77734 0.0
C437 C 0.31802 0.37262 0.79073 0.0
C438 C 0.33798 0.39468 0.788 0.0
C439 C 0.33532 0.35196 0.7822 0.0
H440 H 0.28484 0.32793 0.79073 0.0
N441 N 0.42737 0.33656 0.75231 0.0
C442 C 0.39052 0.33404 0.76228 0.0
C443 C 0.38553 0.29282 0.75115 0.0
C444 C 0.36885 0.31197 0.76219 0.0
C445 C 0.44296 0.31834 0.74082 0.0
C446 C 0.42255 0.2961 0.74026 0.0
O447 O 0.56239 0.39198 0.76178 0.0
O448 O 0.49844 0.40802 0.75445 0.0
O449 O 0.46568 0.3729 0.72037 0.0
O450 O 0.41048 0.38866 0.73337 0.0
O451 O 0.49255 0.39318 0.80265 0.0
O452 O 0.46289 0.40743 0.77331 0.0
O453 O 0.47217 0.34389 0.77433 0.0
O454 O 0.49161 0.36309 0.80316 0.0
O455 O 0.58445 0.37801 0.82306 0.0
O456 O 0.5831 0.34477 0.80542 0.0
O457 O 0.51996 0.35837 0.74283 0.0
O458 O 0.55406 0.34525 0.77172 0.0
C459 C 0.53948 0.40893 0.75382 0.0
C460 C 0.46922 0.40871 0.79291 0.0
C461 C 0.40219 0.36817 0.70242 0.0
C462 C 0.38112 0.35938 0.66773 0.0
C463 C 0.34778 0.33864 0.69564 0.0
C464 C 0.37235 0.35154 0.70927 0.0
C465 C 0.35209 0.34247 0.67503 0.0
C466 C 0.40631 0.37217 0.6816 0.0
C467 C 0.42865 0.38155 0.7169 0.0
C468 C 0.33104 0.30984 0.7728 0.0
C469 C 0.31444 0.32974 0.78289 0.0
H470 H 0.36979 0.27558 0.7507 0.0
C471 C 0.4717 0.3456 0.794 0.0
C472 C 0.54642 0.34406 0.75216 0.0
C473 C 0.61703 0.34281 0.8382 0.0
C474 C 0.63671 0.33805 0.87362 0.0
C475 C 0.6583 0.3086 0.8486 0.0
C476 C 0.63798 0.32142 0.83358 0.0
C477 C 0.65759 0.31675 0.86845 0.0
C478 C 0.61691 0.35128 0.85829 0.0
C479 C 0.59424 0.35544 0.82207 0.0
H480 H 0.32491 0.32583 0.70111 0.0
H481 H 0.36761 0.34866 0.72514 0.0
H482 H 0.3319 0.33259 0.66481 0.0
H483 H 0.42906 0.38513 0.67623 0.0
H484 H 0.67449 0.29218 0.84485 0.0
H485 H 0.63867 0.31456 0.8183 0.0
H486 H 0.67368 0.30641 0.8798 0.0
H487 H 0.6004 0.36761 0.86208 0.0
C488 C 0.88973 0.83521 0.78183 0.0
C489 C 0.90926 0.79556 0.79301 0.0
C490 C 0.91814 0.82024 0.79117 0.0
C491 C 0.87239 0.78608 0.7845 0.0
C492 C 0.85205 0.82598 0.77385 0.0
C493 C 0.84382 0.80127 0.77498 0.0
N494 N 0.89929 0.85889 0.78033 0.0
C495 C 0.87154 0.87463 0.77219 0.0
C496 C 0.82388 0.84188 0.76494 0.0
C497 C 0.8335 0.86635 0.7643 0.0
Gd498 Gd 0.0519 0.87812 0.74877 0.0
Gd499 Gd 0.96422 0.87123 0.79326 0.0
N500 N 0.95359 0.82998 0.79916 0.0
C501 C 0.93716 0.78125 0.80379 0.0
C502 C 0.9788 0.8165 0.81116 0.0
C503 C 0.97166 0.79188 0.81324 0.0
H504 H 0.00396 0.8247 0.81956 0.0
H505 H 0.9924 0.7812 0.82239 0.0
H506 H 0.03962 0.9334 0.73141 0.0
H507 H 0.87902 0.89352 0.77165 0.0
H508 H 0.07536 0.97295 0.73372 0.0
H509 H 0.93151 0.76221 0.80555 0.0
H510 H 0.8653 0.76711 0.78555 0.0
H511 H 0.12619 0.83725 0.76064 0.0
H512 H 0.79459 0.83549 0.75863 0.0
H513 H 0.81175 0.8788 0.75762 0.0
H514 H 0.19888 0.95706 0.77273 0.0
H515 H 0.81526 0.79377 0.76873 0.0
H516 H 0.22943 0.87486 0.78721 0.0
H517 H 0.19437 0.8367 0.77796 0.0
N518 N 0.1199 0.87518 0.76244 0.0
C519 C 0.14022 0.89628 0.76585 0.0
C520 C 0.14004 0.85398 0.76553 0.0
C521 C 0.19889 0.87518 0.78012 0.0
C522 C 0.17919 0.85361 0.77495 0.0
C523 C 0.18003 0.8969 0.77501 0.0
H524 H 0.23073 0.91991 0.78527 0.0
N525 N 0.0849 0.91577 0.74934 0.0
C526 C 0.12254 0.9172 0.75875 0.0
C527 C 0.12613 0.95962 0.75182 0.0
C528 C 0.1438 0.93928 0.76064 0.0
C529 C 0.06871 0.93514 0.73962 0.0
C530 C 0.08881 0.95744 0.74093 0.0
O531 O 0.95176 0.85889 0.76119 0.0
O532 O 0.01459 0.84378 0.75098 0.0
O533 O 0.03442 0.88151 0.71732 0.0
O534 O 0.09572 0.86861 0.72502 0.0
O535 O 0.02996 0.85758 0.79895 0.0
O536 O 0.05329 0.84446 0.76794 0.0
O537 O 0.04153 0.90823 0.77123 0.0
O538 O 0.02755 0.8874 0.79983 0.0
O539 O 0.94625 0.86593 0.82446 0.0
O540 O 0.93224 0.89944 0.80995 0.0
O541 O 0.98824 0.89464 0.74331 0.0
O542 O 0.95835 0.90487 0.77423 0.0
C543 C 0.97356 0.84294 0.75116 0.0
C544 C 0.05295 0.84322 0.78774 0.0
C545 C 0.06583 0.85441 0.69477 0.0
C546 C 0.07341 0.84268 0.65945 0.0
C547 C 0.04677 0.8142 0.6841 0.0
C548 C 0.05076 0.83142 0.69929 0.0
C549 C 0.05794 0.81973 0.66431 0.0
C550 C 0.07715 0.85997 0.67489 0.0
C551 C 0.06942 0.87284 0.71057 0.0
C552 C 0.18231 0.9402 0.77082 0.0
C553 C 0.20038 0.91904 0.77801 0.0
H554 H 0.14149 0.97694 0.75294 0.0
C555 C 0.04184 0.9066 0.79089 0.0
C556 C 0.96397 0.90827 0.75467 0.0
C557 C 0.88802 0.88698 0.83698 0.0
C558 C 0.84938 0.88463 0.86881 0.0
C559 C 0.81214 0.88826 0.83699 0.0
C560 C 0.85004 0.88862 0.82652 0.0
C561 C 0.81171 0.88626 0.85793 0.0
C562 C 0.88755 0.88509 0.85812 0.0
C563 C 0.92848 0.88669 0.82625 0.0
H564 H 0.03516 0.79646 0.68769 0.0
H565 H 0.04222 0.82683 0.71455 0.0
H566 H 0.05507 0.80593 0.65288 0.0
H567 H 0.08835 0.87787 0.67145 0.0
H568 H 0.78293 0.88958 0.82882 0.0
H569 H 0.8496 0.89019 0.81033 0.0
H570 H 0.78184 0.88629 0.86565 0.0
H571 H 0.91689 0.88357 0.8662 0.0
C572 C 0.62852 0.68356 0.28464 0.0
C573 C 0.61053 0.72287 0.29752 0.0
C574 C 0.60048 0.69848 0.29446 0.0
C575 C 0.64837 0.73212 0.28995 0.0
C576 C 0.66699 0.69258 0.27746 0.0
C577 C 0.67658 0.71699 0.28 0.0
N578 N 0.61769 0.66021 0.28175 0.0
C579 C 0.64473 0.64455 0.27284 0.0
C580 C 0.69454 0.67678 0.26785 0.0
C581 C 0.68348 0.65263 0.26567 0.0
Gd582 Gd 0.46567 0.64324 0.24916 0.0
Gd583 Gd 0.55229 0.64811 0.29419 0.0
N584 N 0.56408 0.68897 0.30157 0.0
C585 C 0.5827 0.73711 0.30853 0.0
C586 C 0.53871 0.70232 0.31372 0.0
C587 C 0.547 0.72667 0.31697 0.0
H588 H 0.51263 0.69418 0.32142 0.0
H589 H 0.52623 0.73726 0.32626 0.0
H590 H 0.48129 0.58912 0.22957 0.0
H591 H 0.63627 0.62587 0.27123 0.0
H592 H 0.44687 0.54914 0.22941 0.0
H593 H 0.58924 0.75594 0.31121 0.0
H594 H 0.65642 0.75087 0.292 0.0
H595 H 0.38994 0.68249 0.26331 0.0
H596 H 0.7244 0.68303 0.26211 0.0
H597 H 0.70472 0.64025 0.25842 0.0
H598 H 0.32043 0.56133 0.26736 0.0
H599 H 0.70583 0.72432 0.27442 0.0
H600 H 0.28682 0.64195 0.28642 0.0
H601 H 0.32118 0.68103 0.27999 0.0
N602 N 0.39723 0.64456 0.26258 0.0
C603 C 0.37738 0.62305 0.26448 0.0
C604 C 0.37644 0.66528 0.26695 0.0
C605 C 0.31761 0.64245 0.27958 0.0
C606 C 0.33694 0.66454 0.27602 0.0
C607 C 0.33727 0.62137 0.27326 0.0
H608 H 0.28692 0.59718 0.2817 0.0
N609 N 0.43425 0.6052 0.24764 0.0
C610 C 0.39605 0.60283 0.25639 0.0
C611 C 0.39439 0.56085 0.24731 0.0
C612 C 0.37547 0.58043 0.25688 0.0
C613 C 0.45181 0.5866 0.23728 0.0
C614 C 0.4324 0.56405 0.23717 0.0
O615 O 0.56534 0.66277 0.26293 0.0
O616 O 0.50238 0.67771 0.25272 0.0
O617 O 0.48308 0.64054 0.21764 0.0
O618 O 0.42242 0.65421 0.22571 0.0
O619 O 0.48658 0.66174 0.30012 0.0
O620 O 0.46297 0.67602 0.2696 0.0
O621 O 0.47475 0.61236 0.2708 0.0
O622 O 0.48905 0.63152 0.3004 0.0
O623 O 0.56785 0.65216 0.3258 0.0
O624 O 0.58616 0.62004 0.30996 0.0
O625 O 0.53048 0.62822 0.2437 0.0
O626 O 0.55705 0.61492 0.27425 0.0
C627 C 0.5434 0.67894 0.25335 0.0
C628 C 0.46353 0.6765 0.28944 0.0
C629 C 0.45312 0.66881 0.1959 0.0
C630 C 0.44381 0.68246 0.16129 0.0
C631 C 0.47606 0.70867 0.18637 0.0
C632 C 0.47125 0.69096 0.20096 0.0
C633 C 0.46246 0.7045 0.16667 0.0
C634 C 0.43949 0.66458 0.17609 0.0
C635 C 0.44853 0.64996 0.21114 0.0
C636 C 0.33652 0.57845 0.26655 0.0
C637 C 0.31749 0.59887 0.27476 0.0
H638 H 0.37958 0.54333 0.24735 0.0
C639 C 0.4736 0.61318 0.2905 0.0
C640 C 0.55225 0.6129 0.25451 0.0
C641 C 0.62783 0.63281 0.33791 0.0
C642 C 0.66481 0.6349 0.37018 0.0
C643 C 0.70357 0.63612 0.33863 0.0
C644 C 0.66626 0.63433 0.32778 0.0
C645 C 0.70295 0.63646 0.35965 0.0
C646 C 0.62729 0.633 0.3591 0.0
C647 C 0.58782 0.63201 0.32685 0.0
H648 H 0.49035 0.72568 0.19034 0.0
H649 H 0.48159 0.69449 0.21616 0.0
H650 H 0.46689 0.71848 0.1556 0.0
H651 H 0.42502 0.64753 0.17231 0.0
H652 H 0.73313 0.63727 0.33071 0.0
H653 H 0.6675 0.63421 0.31154 0.0
H654 H 0.7324 0.63765 0.36768 0.0
H655 H 0.59755 0.63213 0.36695 0.0
C656 C 0.17477 0.01441 0.34966 0.0
C657 C 0.14755 0.99653 0.35679 0.0
C658 C 0.15936 0.035 0.34018 0.0
C659 C 0.11564 0.03779 0.33773 0.0
C660 C 0.08792 0.02016 0.34541 0.0
C661 C 0.1042 0.99976 0.35487 0.0
C662 C 0.1899 0.05345 0.33228 0.0
C663 C 0.04109 0.02244 0.34301 0.0
C664 C 0.07108 0.09893 0.32464 0.0
C665 C 0.06475 0.09662 0.30383 0.0
C666 C 0.08805 0.08005 0.33588 0.0
C667 C 0.09898 0.05838 0.32606 0.0
C668 C 0.09327 0.05612 0.30501 0.0
C669 C 0.07616 0.07521 0.29418 0.0
C670 C 0.09359 0.08311 0.3583 0.0
C671 C 0.1045 0.03333 0.29395 0.0
H672 H 0.20828 0.0122 0.35136 0.0
H673 H 0.08297 0.98592 0.36014 0.0
H674 H 0.18758 0.05435 0.31564 0.0
H675 H 0.18204 0.07147 0.33826 0.0
H676 H 0.22278 0.0493 0.33637 0.0
H677 H 0.02371 1.00806 0.35103 0.0
H678 H 0.03044 0.04007 0.34878 0.0
H679 H 0.03277 0.02154 0.32681 0.0
H680 H 0.06224 0.11542 0.33218 0.0
H681 H 0.07083 0.07313 0.27816 0.0
H682 H 0.1266 0.0797 0.36254 0.0
H683 H 0.07394 0.06979 0.36635 0.0
H684 H 0.08487 0.10134 0.36355 0.0
H685 H 0.13787 0.0289 0.2966 0.0
H686 H 0.09924 0.03471 0.27747 0.0
H687 H 0.08546 0.01819 0.29978 0.0
C688 C 0.42592 0.52008 0.86349 0.0
C689 C 0.38367 0.52518 0.86713 0.0
C690 C 0.43765 0.50172 0.8502 0.0
C691 C 0.40639 0.48793 0.84035 0.0
C692 C 0.36362 0.49338 0.84353 0.0
C693 C 0.35275 0.51201 0.85685 0.0
C694 C 0.48357 0.49663 0.84724 0.0
C695 C 0.32937 0.47909 0.83332 0.0
C696 C 0.44234 0.45066 0.79549 0.0
C697 C 0.44967 0.42841 0.80449 0.0
C698 C 0.42709 0.47008 0.80683 0.0
C699 C 0.4187 0.46706 0.8276 0.0
C700 C 0.42457 0.44433 0.83655 0.0
C701 C 0.44 0.4253 0.82489 0.0
C702 C 0.42148 0.49404 0.79675 0.0
C703 C 0.4158 0.44028 0.8586 0.0
H704 H 0.44996 0.53047 0.87112 0.0
H705 H 0.32002 0.51582 0.85968 0.0
H706 H 0.49114 0.47919 0.85426 0.0
H707 H 0.49109 0.49527 0.83098 0.0
H708 H 0.5039 0.51066 0.85411 0.0
H709 H 0.29779 0.48648 0.83642 0.0
H710 H 0.33448 0.47875 0.81681 0.0
H711 H 0.33018 0.46025 0.83858 0.0
H712 H 0.44987 0.45313 0.77972 0.0
H713 H 0.44517 0.40802 0.83183 0.0
H714 H 0.44402 0.50719 0.80319 0.0
H715 H 0.38956 0.50099 0.79966 0.0
H716 H 0.42654 0.49301 0.78023 0.0
H717 H 0.43768 0.45126 0.86783 0.0
H718 H 0.41932 0.42119 0.86293 0.0
H719 H 0.38356 0.44609 0.86237 0.0
C720 C 0.65853 0.52566 0.71271 0.0
C721 C 0.65022 0.52939 0.69221 0.0
C722 C 0.64228 0.50563 0.72288 0.0
C723 C 0.61739 0.48873 0.71228 0.0
C724 C 0.60969 0.49205 0.69149 0.0
C725 C 0.6261 0.51234 0.68172 0.0
C726 C 0.65162 0.50264 0.745 0.0
C727 C 0.58338 0.4744 0.67964 0.0
C728 C 0.59955 0.42675 0.73467 0.0
C729 C 0.55981 0.42924 0.74334 0.0
C730 C 0.61893 0.44598 0.72466 0.0
C731 C 0.59782 0.46816 0.72312 0.0
C732 C 0.55762 0.47073 0.73186 0.0
C733 C 0.5391 0.45123 0.74182 0.0
C734 C 0.66195 0.44254 0.71574 0.0
C735 C 0.53417 0.49411 0.73073 0.0
H736 H 0.67788 0.53842 0.72086 0.0
H737 H 0.61916 0.51513 0.66595 0.0
H738 H 0.62216 0.5002 0.75362 0.0
H739 H 0.67067 0.48631 0.7472 0.0
H740 H 0.669 0.51821 0.75138 0.0
H741 H 0.58192 0.47893 0.6634 0.0
H742 H 0.59624 0.45606 0.68119 0.0
H743 H 0.55104 0.47403 0.68574 0.0
H744 H 0.61531 0.40964 0.7355 0.0
H745 H 0.50843 0.45329 0.74859 0.0
H746 H 0.68463 0.45462 0.72339 0.0
H747 H 0.66183 0.44735 0.69956 0.0
H748 H 0.67309 0.4238 0.71725 0.0
H749 H 0.553 0.50867 0.73777 0.0
H750 H 0.50328 0.4932 0.73839 0.0
H751 H 0.5291 0.49906 0.71476 0.0
C752 C 0.85839 1.00356 0.19487 0.0
C753 C 0.86914 1.00439 0.17437 0.0
C754 C 0.87234 0.02136 0.20841 0.0
C755 C 0.89753 0.04051 0.2013 0.0
C756 C 0.90797 0.04163 0.18062 0.0
C757 C 0.89382 0.02357 0.16747 0.0
C758 C 0.86044 0.0196 0.23035 0.0
C759 C 0.93481 0.06171 0.17242 0.0
C760 C 0.91125 0.09848 0.23112 0.0
C761 C 0.95094 0.09531 0.23965 0.0
C762 C 0.8927 0.08045 0.2192 0.0
C763 C 0.91467 0.05887 0.21551 0.0
C764 C 0.95445 0.05544 0.22442 0.0
C765 C 0.97209 0.07369 0.23636 0.0
C766 C 0.8501 0.08476 0.21015 0.0
C767 C 0.97883 0.03266 0.221 0.0
H768 H 0.83887 0.98903 0.20033 0.0
H769 H 0.90296 0.02422 0.15177 0.0
H770 H 0.88902 0.019 0.23981 0.0
H771 H 0.8427 0.03576 0.23497 0.0
H772 H 0.84104 1.00348 0.23354 0.0
H773 H 0.93871 0.06054 0.15583 0.0
H774 H 0.92072 0.0793 0.17621 0.0
H775 H 0.96625 0.06125 0.1795 0.0
H776 H 0.89501 0.11527 0.2334 0.0
H777 H 0.00263 0.07103 0.24308 0.0
H778 H 0.82859 0.06973 0.21382 0.0
H779 H 0.85275 0.08552 0.19352 0.0
H780 H 0.83595 0.10174 0.21562 0.0
H781 H 0.95948 0.01686 0.22514 0.0
H782 H 0.00831 0.03228 0.22986 0.0
H783 H 0.98675 0.03085 0.20481 0.0
C784 C 0.83512 0.01163 0.69805 0.0
C785 C 0.86137 0.03142 0.69449 0.0
C786 C 0.84975 0.99139 0.70835 0.0
C787 C 0.89161 0.99094 0.71534 0.0
C788 C 0.91818 0.01092 0.71192 0.0
C789 C 0.90278 0.03088 0.7015 0.0
C790 C 0.82058 0.97035 0.71151 0.0
C791 C 0.96297 0.01117 0.7192 0.0
C792 C 0.92308 0.94666 0.75608 0.0
C793 C 0.94301 0.92877 0.74474 0.0
C794 C 0.9057 0.96687 0.74672 0.0
C795 C 0.90819 0.9692 0.72552 0.0
C796 C 0.92747 0.95096 0.71399 0.0
C797 C 0.9446 0.93104 0.72371 0.0
C798 C 0.88543 0.98597 0.75953 0.0
C799 C 0.93067 0.95268 0.69136 0.0
H800 H 0.80321 0.01182 0.69251 0.0
H801 H 0.92306 0.04624 0.69907 0.0
H802 H 0.83323 0.95424 0.70382 0.0
H803 H 0.81833 0.96612 0.72777 0.0
H804 H 0.7886 0.97378 0.70566 0.0
H805 H 0.97926 0.02832 0.71578 0.0
H806 H 0.96391 1.00825 0.7357 0.0
H807 H 0.98055 0.9963 0.71205 0.0
H808 H 0.92175 0.94515 0.77232 0.0
H809 H 0.9597 0.91731 0.71473 0.0
H810 H 0.85287 0.98906 0.7544 0.0
H811 H 0.90274 1.00314 0.75786 0.0
H812 H 0.88478 0.98112 0.77572 0.0
H813 H 0.89909 0.95493 0.68471 0.0
H814 H 0.9454 0.93659 0.68452 0.0
H815 H 0.94949 0.96868 0.6872 0.0
C816 C 0.65553 0.5042 0.19199 0.0
C817 C 0.6232 0.49213 0.18175 0.0
C818 C 0.64683 0.52287 0.20562 0.0
C819 C 0.60477 0.5296 0.20917 0.0
C820 C 0.57194 0.51686 0.1995 0.0
C821 C 0.58155 0.49834 0.18588 0.0
C822 C 0.68271 0.53606 0.21557 0.0
C823 C 0.52665 0.52332 0.20301 0.0
C824 C 0.57538 0.57002 0.25337 0.0
C825 C 0.57032 0.59212 0.24374 0.0
C826 C 0.58748 0.54951 0.24244 0.0
C827 C 0.59512 0.5513 0.22148 0.0
C828 C 0.59161 0.57382 0.21192 0.0
C829 C 0.57906 0.59388 0.22312 0.0
C830 C 0.5905 0.5258 0.25315 0.0
C831 C 0.59982 0.57662 0.18966 0.0
H832 H 0.68781 0.49965 0.18878 0.0
H833 H 0.55637 0.48883 0.1783 0.0
H834 H 0.68424 0.55469 0.20984 0.0
H835 H 0.67769 0.53716 0.23206 0.0
H836 H 0.71329 0.52731 0.21266 0.0
H837 H 0.50475 0.51059 0.1955 0.0
H838 H 0.51967 0.52361 0.21936 0.0
H839 H 0.5206 0.54159 0.19719 0.0
H840 H 0.56816 0.56852 0.26926 0.0
H841 H 0.57541 0.61095 0.21562 0.0
H842 H 0.62108 0.51725 0.24996 0.0
H843 H 0.56572 0.51348 0.2475 0.0
H844 H 0.58683 0.52774 0.2697 0.0
H845 H 0.63124 0.56957 0.18579 0.0
H846 H 0.59809 0.5956 0.18477 0.0
H847 H 0.57648 0.56602 0.18097 0.0
C848 C 0.34287 0.50743 0.34241 0.0
C849 C 0.36871 0.49221 0.35362 0.0
C850 C 0.35938 0.52756 0.33248 0.0
C851 C 0.40276 0.53266 0.33381 0.0
C852 C 0.42892 0.51757 0.34532 0.0
C853 C 0.4116 0.49753 0.35505 0.0
C854 C 0.33053 0.54313 0.32023 0.0
C855 C 0.47532 0.52245 0.34716 0.0
C856 C 0.45353 0.56995 0.29268 0.0
C857 C 0.45586 0.59265 0.30173 0.0
C858 C 0.43602 0.55035 0.30287 0.0
C859 C 0.42101 0.55343 0.32276 0.0
C860 C 0.4238 0.57626 0.3321 0.0
C861 C 0.44121 0.59562 0.32146 0.0
C862 C 0.43353 0.52636 0.29231 0.0
C863 C 0.40828 0.58025 0.3533 0.0
H864 H 0.3098 0.50328 0.34101 0.0
H865 H 0.43168 0.48605 0.36389 0.0
H866 H 0.33306 0.56207 0.32528 0.0
H867 H 0.33999 0.54256 0.30417 0.0
H868 H 0.29729 0.53734 0.32139 0.0
H869 H 0.49118 0.50932 0.35705 0.0
H870 H 0.49013 0.52176 0.33207 0.0
H871 H 0.48072 0.54073 0.35331 0.0
H872 H 0.46586 0.56741 0.27766 0.0
H873 H 0.44296 0.61315 0.32853 0.0
H874 H 0.40033 0.52067 0.2909 0.0
H875 H 0.44983 0.51254 0.30129 0.0
H876 H 0.44765 0.52684 0.27703 0.0
H877 H 0.37445 0.57577 0.35424 0.0
H878 H 0.4129 0.59906 0.35844 0.0
H879 H 0.42492 0.56819 0.3638 0.0
C880 C 0.15169 0.01275 0.85419 0.0
C881 C 0.12141 0.02468 0.86574 0.0
C882 C 0.14043 0.99388 0.84114 0.0
C883 C 0.09789 0.98682 0.83962 0.0
C884 C 0.0671 0.99916 0.85088 0.0
C885 C 0.07923 0.01792 0.86379 0.0
C886 C 0.17411 0.98114 0.82934 0.0
C887 C 0.02136 0.99231 0.84953 0.0
C888 C 0.05941 0.95006 0.79498 0.0
C889 C 0.05734 0.92697 0.80315 0.0
C890 C 0.07363 0.96962 0.80647 0.0
C891 C 0.0855 0.96605 0.82676 0.0
C892 C 0.08369 0.94272 0.83507 0.0
C893 C 0.06961 0.92346 0.82316 0.0
C894 C 0.07521 0.99416 0.79702 0.0
C895 C 0.09606 0.93818 0.85663 0.0
H896 H 0.18438 0.01776 0.85574 0.0
H897 H 0.05558 0.02733 0.8724 0.0
H898 H 0.17591 0.96217 0.8342 0.0
H899 H 0.16632 0.98102 0.81307 0.0
H900 H 0.20539 0.98961 0.83137 0.0
H901 H 0.0012 1.00417 0.85883 0.0
H902 H 0.01064 0.99317 0.83368 0.0
H903 H 0.01692 0.97356 0.85464 0.0
H904 H 0.04903 0.95296 0.77969 0.0
H905 H 0.06819 0.90563 0.82954 0.0
H906 H 0.10721 1.00183 0.79836 0.0
H907 H 0.05368 1.00642 0.80511 0.0
H908 H 0.06632 0.99373 0.78086 0.0
H909 H 0.12846 0.94469 0.85935 0.0
H910 H 0.09432 0.91887 0.86058 0.0
H911 H 0.07515 0.94829 0.86691 0.0
C912 C 0.19114 0.14755 0.05459 0.0
C913 C 0.16113 0.15161 0.03962 0.0
C914 C 0.17993 0.14685 0.07499 0.0
C915 C 0.13763 0.15036 0.08063 0.0
C916 C 0.10684 0.15345 0.06554 0.0
C917 C 0.11896 0.154 0.04519 0.0
C918 C 0.21373 0.14325 0.09056 0.0
C919 C 0.06144 0.15719 0.07093 0.0
C920 C 0.11446 0.13469 0.13517 0.0
C921 C 0.12157 0.15684 0.14466 0.0
C922 C 0.11705 0.13245 0.11411 0.0
C923 C 0.12679 0.15288 0.10236 0.0
C924 C 0.13091 0.17556 0.11183 0.0
C925 C 0.12836 0.17724 0.13285 0.0
C926 C 0.11223 0.10798 0.1046 0.0
C927 C 0.14078 0.19786 0.09989 0.0
H928 H 0.22364 0.14523 0.05035 0.0
H929 H 0.09562 0.15724 0.03369 0.0
H930 H 0.21712 0.15972 0.09987 0.0
H931 H 0.20499 0.12841 0.10081 0.0
H932 H 0.24456 0.13913 0.08365 0.0
H933 H 0.04078 0.15649 0.0575 0.0
H934 H 0.05079 0.14343 0.08182 0.0
H935 H 0.05777 0.17494 0.07831 0.0
H936 H 0.10942 0.11886 0.14428 0.0
H937 H 0.13341 0.19443 0.14016 0.0
H938 H 0.14339 0.10139 0.09978 0.0
H939 H 0.0922 0.10886 0.09099 0.0
H940 H 0.09846 0.09477 0.11521 0.0
H941 H 0.17301 0.19664 0.09374 0.0
H942 H 0.13863 0.2144 0.1092 0.0
H943 H 0.11909 0.19947 0.08694 0.0
C944 C 0.40046 0.38325 0.54823 0.0
C945 C 0.35985 0.38436 0.54021 0.0
C946 C 0.40707 0.37952 0.5689 0.0
C947 C 0.37224 0.37689 0.5819 0.0
C948 C 0.33119 0.37802 0.57391 0.0
C949 C 0.3255 0.3817 0.55319 0.0
C950 C 0.45131 0.37825 0.57679 0.0
C951 C 0.2932 0.3754 0.58727 0.0
C952 C 0.3828 0.34481 0.63198 0.0
C953 C 0.38352 0.364 0.64571 0.0
C954 C 0.38041 0.34877 0.61116 0.0
C955 C 0.37854 0.37253 0.60383 0.0
C956 C 0.38075 0.39201 0.61756 0.0
C957 C 0.38333 0.38752 0.63834 0.0
C958 C 0.37859 0.32749 0.59706 0.0
C959 C 0.37882 0.4176 0.61036 0.0
H960 H 0.42719 0.385 0.53828 0.0
H961 H 0.29404 0.38288 0.54718 0.0
H962 H 0.45623 0.39207 0.58863 0.0
H963 H 0.45669 0.36055 0.58384 0.0
H964 H 0.475 0.38097 0.56476 0.0
H965 H 0.26342 0.37698 0.57876 0.0
H966 H 0.29365 0.3577 0.59482 0.0
H967 H 0.2938 0.38932 0.59924 0.0
H968 H 0.38351 0.32659 0.63757 0.0
H969 H 0.38349 0.40242 0.64886 0.0
H970 H 0.40309 0.32914 0.5853 0.0
H971 H 0.34786 0.32701 0.58928 0.0
H972 H 0.3829 0.31023 0.60504 0.0
H973 H 0.40302 0.42083 0.59869 0.0
H974 H 0.38347 0.43072 0.62279 0.0
H975 H 0.34791 0.42094 0.60332 0.0
C976 C 0.63658 0.37177 0.9925 0.0
C977 C 0.67635 0.3651 0.99945 0.0
C978 C 0.6265 0.37067 0.97186 0.0
C979 C 0.65687 0.36265 0.95783 0.0
C980 C 0.6976 0.357 0.96469 0.0
C981 C 0.70682 0.35834 0.98532 0.0
C982 C 0.58282 0.37704 0.9652 0.0
C983 C 0.73109 0.34851 0.95031 0.0
C984 C 0.62688 0.32895 0.91016 0.0
C985 C 0.63581 0.3458 0.89513 0.0
C986 C 0.63147 0.33466 0.93063 0.0
C987 C 0.64543 0.35785 0.93635 0.0
C988 C 0.65216 0.37541 0.9213 0.0
C989 C 0.64718 0.36919 0.90083 0.0
C990 C 0.62346 0.31542 0.9461 0.0
C991 C 0.66672 0.40039 0.92672 0.0
H992 H 0.61276 0.37696 1.00326 0.0
H993 H 0.73792 0.35368 0.99046 0.0
H994 H 0.58393 0.38911 0.95198 0.0
H995 H 0.56587 0.36052 0.96052 0.0
H996 H 0.56468 0.38589 0.97738 0.0
H997 H 0.76194 0.34643 0.95779 0.0
H998 H 0.72175 0.33096 0.94373 0.0
H999 H 0.73464 0.36133 0.93771 0.0
H1000 H 0.61735 0.31096 0.90585 0.0
H1001 H 0.65416 0.38228 0.88929 0.0
H1002 H 0.60216 0.32216 0.95801 0.0
H1003 H 0.65338 0.31053 0.95347 0.0
H1004 H 0.60947 0.29898 0.93936 0.0
H1005 H 0.6476 0.40778 0.93921 0.0
H1006 H 0.66506 0.41277 0.91371 0.0
H1007 H 0.69963 0.39975 0.93202 0.0
C1008 C 0.89187 0.13536 0.49397 0.0
C1009 C 0.8526 0.13657 0.50345 0.0
C1010 C 0.89557 0.13625 0.4729 0.0
C1011 C 0.85916 0.13846 0.46092 0.0
C1012 C 0.81958 0.14052 0.4704 0.0
C1013 C 0.81678 0.13953 0.4915 0.0
C1014 C 0.93837 0.13407 0.46343 0.0
C1015 C 0.77996 0.14296 0.45821 0.0
C1016 C 0.86792 0.15628 0.40566 0.0
C1017 C 0.86282 0.13408 0.39593 0.0
C1018 C 0.86732 0.15801 0.42681 0.0
C1019 C 0.86202 0.13701 0.43849 0.0
C1020 C 0.8582 0.11449 0.42871 0.0
C1021 C 0.85843 0.11333 0.40759 0.0
C1022 C 0.8712 0.18236 0.43663 0.0
C1023 C 0.85313 0.09161 0.44054 0.0
H1024 H 0.91982 0.13349 0.50306 0.0
H1025 H 0.78626 0.14022 0.4986 0.0
H1026 H 0.94004 0.11721 0.45455 0.0
H1027 H 0.94399 0.1491 0.45288 0.0
H1028 H 0.96381 0.134 0.47483 0.0
H1029 H 0.75207 0.14612 0.46783 0.0
H1030 H 0.78305 0.15799 0.44743 0.0
H1031 H 0.77461 0.12638 0.44927 0.0
H1032 H 0.87101 0.17238 0.39671 0.0
H1033 H 0.85502 0.09609 0.40015 0.0
H1034 H 0.89705 0.18241 0.44778 0.0
H1035 H 0.84196 0.18654 0.44492 0.0
H1036 H 0.87712 0.1968 0.42551 0.0
H1037 H 0.87932 0.08974 0.45137 0.0
H1038 H 0.85225 0.07547 0.4307 0.0
H1039 H 0.82372 0.09224 0.44941 0.0
C1040 C 0.80487 0.89285 0.98698 0.0
C1041 C 0.82606 0.87553 0.99829 0.0
C1042 C 0.81106 0.89484 0.96609 0.0
C1043 C 0.83922 0.87919 0.95618 0.0
C1044 C 0.86158 0.86212 0.96759 0.0
C1045 C 0.85468 0.86046 0.98845 0.0
C1046 C 0.78648 0.91326 0.95453 0.0
C1047 C 0.89213 0.84522 0.95767 0.0
C1048 C 0.81923 0.86724 0.90052 0.0
C1049 C 0.84846 0.88245 0.8912 0.0
C1050 C 0.81643 0.86575 0.92158 0.0
C1051 C 0.84345 0.87986 0.93376 0.0
C1052 C 0.87359 0.89493 0.92448 0.0
C1053 C 0.8758 0.89601 0.90333 0.0
C1054 C 0.78412 0.84927 0.9308 0.0
C1055 C 0.90293 0.91029 0.93689 0.0
H1056 H 0.78236 0.9044 0.99435 0.0
H1057 H 0.87168 0.84727 0.99709 0.0
H1058 H 0.80798 0.9247 0.94557 0.0
H1059 H 0.76507 0.9041 0.94379 0.0
H1060 H 0.76761 0.92496 0.96456 0.0
H1061 H 0.90876 0.83389 0.96877 0.0
H1062 H 0.87525 0.83332 0.94695 0.0
H1063 H 0.91566 0.85548 0.9489 0.0
H1064 H 0.79845 0.85641 0.89128 0.0
H1065 H 0.89825 0.90796 0.89629 0.0
H1066 H 0.76181 0.85985 0.94001 0.0
H1067 H 0.79952 0.83634 0.941 0.0
H1068 H 0.76615 0.83906 0.91926 0.0
H1069 H 0.88465 0.92339 0.94587 0.0
H1070 H 0.92574 0.92028 0.92744 0.0
H1071 H 0.92045 0.89901 0.94767 0.0
C1072 C 0.64777 0.64448 0.49127 0.0
C1073 C 0.6785 0.63001 0.50007 0.0
C1074 C 0.64382 0.64611 0.47023 0.0
C1075 C 0.671 0.63277 0.45764 0.0
C1076 C 0.70198 0.61808 0.46644 0.0
C1077 C 0.70544 0.61695 0.4875 0.0
C1078 C 0.61067 0.66216 0.46146 0.0
C1079 C 0.73137 0.60342 0.4536 0.0
C1080 C 0.63979 0.61882 0.40342 0.0
C1081 C 0.6645 0.63519 0.39263 0.0
C1082 C 0.64104 0.61809 0.42458 0.0
C1083 C 0.66739 0.63424 0.43525 0.0
C1084 C 0.69155 0.65123 0.42445 0.0
C1085 C 0.68992 0.65144 0.40331 0.0
C1086 C 0.61495 0.59962 0.43549 0.0
C1087 C 0.71966 0.66896 0.43521 0.0
H1088 H 0.62708 0.6548 0.50086 0.0
H1089 H 0.72884 0.60545 0.49416 0.0
H1090 H 0.62549 0.67591 0.45173 0.0
H1091 H 0.58907 0.65151 0.45184 0.0
H1092 H 0.59205 0.67138 0.47328 0.0
H1093 H 0.7535 0.59274 0.46276 0.0
H1094 H 0.71316 0.59102 0.44382 0.0
H1095 H 0.74972 0.61538 0.44359 0.0
H1096 H 0.62034 0.60608 0.39529 0.0
H1097 H 0.70861 0.66439 0.3951 0.0
H1098 H 0.59463 0.60848 0.4468 0.0
H1099 H 0.63574 0.58719 0.44374 0.0
H1100 H 0.5949 0.58897 0.42509 0.0
H1101 H 0.70137 0.6793 0.44644 0.0
H1102 H 0.73493 0.68173 0.4247 0.0
H1103 H 0.74439 0.65925 0.44353 0.0
C1104 C 0.33799 0.65798 0.05303 0.0
C1105 C 0.36469 0.66616 0.03772 0.0
C1106 C 0.35024 0.65898 0.07335 0.0
C1107 C 0.39025 0.66824 0.07848 0.0
C1108 C 0.41781 0.6758 0.06303 0.0
C1109 C 0.40465 0.67474 0.04288 0.0
C1110 C 0.31987 0.65082 0.08936 0.0
C1111 C 0.46089 0.68553 0.06782 0.0
C1112 C 0.40729 0.69639 0.13007 0.0
C1113 C 0.42881 0.6783 0.14031 0.0
C1114 C 0.39403 0.69317 0.1101 0.0
C1115 C 0.40251 0.67131 0.10001 0.0
C1116 C 0.42366 0.65281 0.11034 0.0
C1117 C 0.43649 0.65651 0.13037 0.0
C1118 C 0.37131 0.71329 0.0997 0.0
C1119 C 0.43341 0.62928 0.1001 0.0
H1120 H 0.30695 0.65149 0.04917 0.0
H1121 H 0.42567 0.68075 0.0311 0.0
H1122 H 0.33487 0.63747 0.0993 0.0
H1123 H 0.31087 0.66632 0.09892 0.0
H1124 H 0.29099 0.64275 0.08285 0.0
H1125 H 0.47941 0.68938 0.05404 0.0
H1126 H 0.4581 0.70233 0.07671 0.0
H1127 H 0.4784 0.67255 0.07715 0.0
H1128 H 0.40061 0.71313 0.13774 0.0
H1129 H 0.45343 0.64252 0.13811 0.0
H1130 H 0.34054 0.70684 0.09407 0.0
H1131 H 0.38963 0.71939 0.08647 0.0
H1132 H 0.36609 0.7289 0.10981 0.0
H1133 H 0.40428 0.621 0.09413 0.0
H1134 H 0.44862 0.61637 0.11043 0.0
H1135 H 0.45451 0.63244 0.08711 0.0
C1136 C 0.15778 0.85462 0.54596 0.0
C1137 C 0.14329 0.87563 0.5368 0.0
C1138 C 0.14711 0.84905 0.56594 0.0
C1139 C 0.12138 0.86487 0.57711 0.0
C1140 C 0.10681 0.88615 0.568 0.0
C1141 C 0.11782 0.89122 0.54799 0.0
C1142 C 0.16331 0.82619 0.5751 0.0
C1143 C 0.0793 0.9035 0.57936 0.0
C1144 C 0.06096 0.84062 0.62211 0.0
C1145 C 0.08566 0.84847 0.63835 0.0
C1146 C 0.07229 0.84574 0.60214 0.0
C1147 C 0.10925 0.85908 0.59824 0.0
C1148 C 0.13432 0.86709 0.61454 0.0
C1149 C 0.12224 0.8617 0.63437 0.0
C1150 C 0.04459 0.83696 0.58521 0.0
C1151 C 0.17397 0.88133 0.61104 0.0
H1152 H 0.17788 0.8426 0.53756 0.0
H1153 H 0.10586 0.9073 0.541 0.0
H1154 H 0.18198 0.83039 0.58876 0.0
H1155 H 0.13668 0.8147 0.57987 0.0
H1156 H 0.18315 0.81584 0.56447 0.0
H1157 H 0.07122 0.91947 0.57025 0.0
H1158 H 0.04987 0.89441 0.58397 0.0
H1159 H 0.09531 0.90961 0.59329 0.0
H1160 H 0.03236 0.83068 0.62503 0.0
H1161 H 0.14183 0.86757 0.64678 0.0
H1162 H 0.06282 0.82542 0.57481 0.0
H1163 H 0.03311 0.85241 0.57637 0.0
H1164 H 0.01715 0.82659 0.59075 0.0
H1165 H 0.19589 0.87084 0.60156 0.0
H1166 H 0.19002 0.88622 0.62532 0.0
H1167 H 0.16668 0.89802 0.60276 0.0
C1168 C 0.1714 0.25556 0.37373 0.0
C1169 C 0.16055 0.27987 0.37498 0.0
C1170 C 0.14973 0.23971 0.3609 0.0
C1171 C 0.1163 0.24831 0.349 0.0
C1172 C 0.10498 0.27279 0.35028 0.0
C1173 C 0.12725 0.28826 0.36322 0.0
C1174 C 0.16302 0.2138 0.35986 0.0
C1175 C 0.06964 0.28268 0.33779 0.0
C1176 C 0.09037 0.21269 0.30172 0.0
C1177 C 0.05561 0.19913 0.3077 0.0
C1178 C 0.10989 0.22905 0.31482 0.0
C1179 C 0.0944 0.23187 0.33464 0.0
C1180 C 0.05873 0.21855 0.34076 0.0
C1181 C 0.0396 0.20245 0.32718 0.0
C1182 C 0.14751 0.24304 0.30751 0.0
C1183 C 0.04129 0.22096 0.36178 0.0
H1184 H 0.19744 0.24898 0.38253 0.0
H1185 H 0.11833 0.30694 0.36427 0.0
H1186 H 0.13598 0.20188 0.36316 0.0
H1187 H 0.17391 0.20943 0.34442 0.0
H1188 H 0.18862 0.20973 0.37061 0.0
H1189 H 0.06406 0.30199 0.34087 0.0
H1190 H 0.07682 0.28041 0.32156 0.0
H1191 H 0.04034 0.27256 0.34085 0.0
H1192 H 0.10201 0.21082 0.28668 0.0
H1193 H 0.01269 0.192 0.33197 0.0
H1194 H 0.17582 0.23719 0.31576 0.0
H1195 H 0.14344 0.26246 0.31057 0.0
H1196 H 0.15308 0.24053 0.29114 0.0
H1197 H 0.0652 0.21538 0.3729 0.0
H1198 H 0.01264 0.20991 0.36401 0.0
H1199 H 0.03371 0.23997 0.36502 0.0
C1200 C 0.37959 0.23927 0.86171 0.0
C1201 C 0.33597 0.23731 0.85978 0.0
C1202 C 0.40195 0.25773 0.85211 0.0
C1203 C 0.38024 0.27455 0.84015 0.0
C1204 C 0.33606 0.27306 0.83865 0.0
C1205 C 0.31451 0.25446 0.84844 0.0
C1206 C 0.44895 0.25892 0.85439 0.0
C1207 C 0.31144 0.29025 0.82587 0.0
C1208 C 0.43482 0.3328 0.82546 0.0
C1209 C 0.44916 0.32736 0.80604 0.0
C1210 C 0.41238 0.3158 0.83677 0.0
C1211 C 0.40403 0.29285 0.82843 0.0
C1212 C 0.41864 0.28728 0.80885 0.0
C1213 C 0.44143 0.30449 0.79802 0.0
C1214 C 0.39708 0.32248 0.85753 0.0
C1215 C 0.40969 0.26324 0.79921 0.0
H1216 H 0.3963 0.22626 0.87067 0.0
H1217 H 0.28087 0.25288 0.84664 0.0
H1218 H 0.46405 0.25585 0.83957 0.0
H1219 H 0.45865 0.27702 0.85967 0.0
H1220 H 0.46086 0.2454 0.86516 0.0
H1221 H 0.27812 0.29106 0.83062 0.0
H1222 H 0.32485 0.30863 0.82639 0.0
H1223 H 0.3123 0.28391 0.81005 0.0
H1224 H 0.44062 0.35049 0.83172 0.0
H1225 H 0.45322 0.30003 0.78319 0.0
H1226 H 0.40914 0.30957 0.86875 0.0
H1227 H 0.36239 0.32144 0.85799 0.0
H1228 H 0.40698 0.34085 0.86205 0.0
H1229 H 0.42059 0.24856 0.80909 0.0
H1230 H 0.42499 0.2613 0.78429 0.0
H1231 H 0.3754 0.26097 0.79724 0.0
C1232 C 0.69745 0.26669 0.68154 0.0
C1233 C 0.68087 0.24397 0.67694 0.0
C1234 C 0.6765 0.28241 0.69464 0.0
C1235 C 0.63787 0.27533 0.7033 0.0
C1236 C 0.62135 0.25225 0.69903 0.0
C1237 C 0.64308 0.23683 0.68595 0.0
C1238 C 0.69536 0.30679 0.69894 0.0
C1239 C 0.58016 0.24407 0.70788 0.0
C1240 C 0.59754 0.3101 0.74878 0.0
C1241 C 0.56935 0.32608 0.73983 0.0
C1242 C 0.61992 0.29341 0.73713 0.0
C1243 C 0.61382 0.29253 0.71603 0.0
C1244 C 0.58507 0.30838 0.70695 0.0
C1245 C 0.56331 0.32495 0.71892 0.0
C1246 C 0.65033 0.27683 0.74737 0.0
C1247 C 0.5775 0.30798 0.68451 0.0
H1248 H 0.72695 0.27218 0.67489 0.0
H1249 H 0.62987 0.2194 0.68233 0.0
H1250 H 0.67426 0.32097 0.69327 0.0
H1251 H 0.69864 0.30955 0.71541 0.0
H1252 H 0.72658 0.30912 0.69181 0.0
H1253 H 0.57257 0.22519 0.70385 0.0
H1254 H 0.5809 0.24576 0.72451 0.0
H1255 H 0.55456 0.25571 0.70239 0.0
H1256 H 0.60239 0.31069 0.76491 0.0
H1257 H 0.5416 0.3371 0.71178 0.0
H1258 H 0.6823 0.27975 0.74129 0.0
H1259 H 0.64169 0.2579 0.74422 0.0
H1260 H 0.65117 0.27959 0.76394 0.0
H1261 H 0.60707 0.31209 0.67643 0.0
H1262 H 0.55342 0.32112 0.67984 0.0
H1263 H 0.56722 0.28982 0.67967 0.0
C1264 C 0.87679 0.29302 0.19325 0.0
C1265 C 0.83455 0.29003 0.18789 0.0
C1266 C 0.89835 0.27519 0.20385 0.0
C1267 C 0.87728 0.25376 0.20923 0.0
C1268 C 0.83486 0.25044 0.2036 0.0
C1269 C 0.81403 0.26859 0.19301 0.0
C1270 C 0.94363 0.27939 0.20945 0.0
C1271 C 0.81129 0.22784 0.20904 0.0
C1272 C 0.9433 0.19929 0.22195 0.0
C1273 C 0.9429 0.19962 0.24308 0.0
C1274 C 0.92188 0.21666 0.21077 0.0
C1275 C 0.89957 0.23494 0.22091 0.0
C1276 C 0.89898 0.23539 0.24223 0.0
C1277 C 0.92058 0.21774 0.25305 0.0
C1278 C 0.92317 0.21546 0.18807 0.0
C1279 C 0.87571 0.25464 0.25362 0.0
H1280 H 0.89309 0.30936 0.18912 0.0
H1281 H 0.78129 0.26622 0.18917 0.0
H1282 H 0.9472 0.27888 0.22605 0.0
H1283 H 0.96338 0.2649 0.20312 0.0
H1284 H 0.95566 0.29688 0.20394 0.0
H1285 H 0.77874 0.22776 0.20316 0.0
H1286 H 0.82784 0.21194 0.20297 0.0
H1287 H 0.81012 0.22591 0.22564 0.0
H1288 H 0.96026 0.18535 0.21404 0.0
H1289 H 0.92015 0.21825 0.26935 0.0
H1290 H 0.93717 0.23217 0.18199 0.0
H1291 H 0.8909 0.21403 0.18199 0.0
H1292 H 0.9416 0.19997 0.18246 0.0
H1293 H 0.88845 0.27254 0.24964 0.0
H1294 H 0.87798 0.25238 0.27019 0.0
H1295 H 0.84217 0.25441 0.24929 0.0
C1296 C 0.8751 0.75928 0.6658 0.0
C1297 C 0.84806 0.74146 0.67325 0.0
C1298 C 0.89567 0.7754 0.6788 0.0
C1299 C 0.88942 0.77361 0.69983 0.0
C1300 C 0.86269 0.7555 0.70752 0.0
C1301 C 0.84224 0.73971 0.69415 0.0
C1302 C 0.92397 0.79444 0.67 0.0
C1303 C 0.85525 0.75302 0.72986 0.0
C1304 C 0.97108 0.8032 0.73362 0.0
C1305 C 0.95168 0.82493 0.73851 0.0
C1306 C 0.95097 0.78618 0.72128 0.0
C1307 C 0.91043 0.79098 0.71371 0.0
C1308 C 0.89051 0.81279 0.71886 0.0
C1309 C 0.91148 0.82953 0.73111 0.0
C1310 C 0.97321 0.76311 0.71624 0.0
C1311 C 0.84729 0.81861 0.71119 0.0
H1312 H 0.88048 0.76055 0.64974 0.0
H1313 H 0.82106 0.72624 0.70007 0.0
H1314 H 0.91282 0.81249 0.67451 0.0
H1315 H 0.95615 0.79248 0.67601 0.0
H1316 H 0.92534 0.79353 0.65331 0.0
H1317 H 0.83593 0.737 0.73352 0.0
H1318 H 0.88551 0.75176 0.73796 0.0
H1319 H 0.83904 0.76918 0.73564 0.0
H1320 H 0.00203 0.79949 0.73948 0.0
H1321 H 0.89662 0.84645 0.73461 0.0
H1322 H 0.97739 0.76153 0.69971 0.0
H1323 H 0.95396 0.74757 0.72111 0.0
H1324 H 0.00444 0.762 0.72352 0.0
H1325 H 0.84727 0.81865 0.69449 0.0
H1326 H 0.83614 0.83632 0.71664 0.0
H1327 H 0.82468 0.80465 0.71609 0.0
C1328 C 0.67393 0.7894 0.20931 0.0
C1329 C 0.67194 0.79097 0.18824 0.0
C1330 C 0.65337 0.77092 0.21973 0.0
C1331 C 0.6303 0.75341 0.20887 0.0
C1332 C 0.6286 0.75465 0.18759 0.0
C1333 C 0.64948 0.77338 0.17753 0.0
C1334 C 0.65647 0.7701 0.24239 0.0
C1335 C 0.60426 0.73634 0.17547 0.0
C1336 C 0.60639 0.69426 0.23495 0.0
C1337 C 0.56535 0.69784 0.24175 0.0
C1338 C 0.62788 0.71212 0.22419 0.0
C1339 C 0.6076 0.734 0.21985 0.0
C1340 C 0.56588 0.73757 0.22645 0.0
C1341 C 0.54537 0.71951 0.23742 0.0
C1342 C 0.67243 0.70761 0.21766 0.0
C1343 C 0.54308 0.7606 0.22213 0.0
H1344 H 0.69186 0.80262 0.2177 0.0
H1345 H 0.64747 0.77455 0.16128 0.0
H1346 H 0.62476 0.76941 0.24921 0.0
H1347 H 0.67301 0.75358 0.24696 0.0
H1348 H 0.67359 0.78581 0.24869 0.0
H1349 H 0.60677 0.73946 0.15902 0.0
H1350 H 0.61577 0.71805 0.17879 0.0
H1351 H 0.57072 0.73684 0.1798 0.0
H1352 H 0.62172 0.67738 0.23793 0.0
H1353 H 0.51372 0.72244 0.24275 0.0
H1354 H 0.69374 0.72035 0.2255 0.0
H1355 H 0.67582 0.71075 0.20127 0.0
H1356 H 0.68271 0.68907 0.22105 0.0
H1357 H 0.55971 0.77586 0.2294 0.0
H1358 H 0.51025 0.76023 0.22765 0.0
H1359 H 0.54279 0.76403 0.2057 0.0
C1360 C 0.37453 0.77825 0.36112 0.0
C1361 C 0.33068 0.7795 0.36168 0.0
C1362 C 0.39504 0.76239 0.34797 0.0
C1363 C 0.37116 0.74726 0.33516 0.0
C1364 C 0.32692 0.74887 0.33528 0.0
C1365 C 0.30722 0.76502 0.34849 0.0
C1366 C 0.44229 0.76142 0.34814 0.0
C1367 C 0.30035 0.73293 0.32195 0.0
C1368 C 0.42809 0.7164 0.29187 0.0
C1369 C 0.43738 0.69411 0.30036 0.0
C1370 C 0.40587 0.7338 0.30286 0.0
C1371 C 0.39246 0.72865 0.32271 0.0
C1372 C 0.40079 0.70588 0.33108 0.0
C1373 C 0.42321 0.68893 0.31983 0.0
C1374 C 0.39775 0.75789 0.29343 0.0
C1375 C 0.3868 0.69956 0.35212 0.0
H1376 H 0.39285 0.78965 0.37105 0.0
H1377 H 0.27333 0.76576 0.34895 0.0
H1378 H 0.45266 0.7435 0.35323 0.0
H1379 H 0.45469 0.76405 0.33271 0.0
H1380 H 0.45634 0.77523 0.35821 0.0
H1381 H 0.26659 0.7375 0.32281 0.0
H1382 H 0.31073 0.73436 0.30607 0.0
H1383 H 0.30422 0.71395 0.32647 0.0
H1384 H 0.43922 0.72049 0.27685 0.0
H1385 H 0.43004 0.67163 0.32638 0.0
H1386 H 0.41452 0.77208 0.30203 0.0
H1387 H 0.36388 0.7621 0.2941 0.0
H1388 H 0.40818 0.7586 0.27749 0.0
H1389 H 0.40251 0.71157 0.36317 0.0
H1390 H 0.39405 0.6807 0.35606 0.0
H1391 H 0.35258 0.70231 0.35369 0.0
C1392 C 0.15029 0.73639 0.85119 0.0
C1393 C 0.19415 0.73556 0.85026 0.0
C1394 C 0.12782 0.75402 0.84082 0.0
C1395 C 0.14972 0.77134 0.82931 0.0
C1396 C 0.19399 0.77076 0.82846 0.0
C1397 C 0.21566 0.75285 0.83891 0.0
C1398 C 0.08059 0.75401 0.84202 0.0
C1399 C 0.21843 0.78904 0.81649 0.0
C1400 C 0.08948 0.80365 0.78828 0.0
C1401 C 0.07921 0.82521 0.79793 0.0
C1402 C 0.11284 0.78604 0.79823 0.0
C1403 C 0.12623 0.79015 0.81829 0.0
C1404 C 0.11644 0.81207 0.82797 0.0
C1405 C 0.09303 0.82931 0.81768 0.0
C1406 C 0.12261 0.76289 0.78741 0.0
C1407 C 0.13026 0.81719 0.84929 0.0
H1408 H 0.13344 0.7229 0.85969 0.0
H1409 H 0.24956 0.75248 0.83831 0.0
H1410 H 0.0695 0.77142 0.84809 0.0
H1411 H 0.06707 0.7519 0.82674 0.0
H1412 H 0.06829 0.7394 0.85171 0.0
H1413 H 0.25276 0.78616 0.8174 0.0
H1414 H 0.20885 0.78827 0.80046 0.0
H1415 H 0.21142 0.80736 0.82207 0.0
H1416 H 0.07858 0.80036 0.77306 0.0
H1417 H 0.08537 0.84605 0.82515 0.0
H1418 H 0.10827 0.74761 0.79557 0.0
H1419 H 0.15693 0.75995 0.78716 0.0
H1420 H 0.11085 0.76274 0.77168 0.0
H1421 H 0.11622 0.80379 0.85962 0.0
H1422 H 0.12109 0.83538 0.85446 0.0
H1423 H 0.16477 0.81555 0.85051 0.0
loop_
_geom_bond_atom_site_label_1
_geom_bond_atom_site_label_2
_geom_bond_distance
_geom_bond_site_symmetry_2
_ccdc_geom_bond_type
C0 C1 1.264 . S
C0 C5 1.479 . S
C0 C10 1.465 . S
C1 C0 1.264 . S
C1 C3 1.339 . S
C1 H28 0.931 . S
C2 C3 1.395 . S
C2 C4 1.320 . S
C3 C1 1.339 . S
C3 C2 1.395 . S
C3 H29 0.929 . S
C4 C2 1.320 . S
C4 C5 1.405 . S
C4 H30 0.930 . S
C5 C0 1.479 . S
C5 C4 1.405 . S
C5 H31 0.931 . S
U6 O7 2.454 . S
U6 O8 2.458 . S
U6 C9 2.984 . S
U6 C10 2.847 . S
U6 C23 2.882 . S
U6 O24 2.441 . S
U6 O25 2.420 . S
U6 O26 2.455 . S
U6 O27 2.449 . S
O7 U6 2.454 . S
O7 C9 1.353 . S
O8 U6 2.458 . S
O8 C9 1.286 . S
C9 U6 2.984 . S
C9 O7 1.353 . S
C9 O8 1.286 . S
C9 C11 1.363 . S
C10 C0 1.465 . S
C10 U6 2.847 . S
C10 O24 1.249 . S
C10 O25 1.202 . S
C11 C9 1.363 . S
C11 C13 1.408 . S
C11 C16 1.342 . S
C12 C13 1.310 . S
C12 C15 1.461 . S
C12 H32 0.932 . S
C13 C11 1.408 . S
C13 C12 1.310 . S
C13 H33 0.930 . S
C14 C15 1.474 . S
C14 C16 1.285 . S
C14 H34 0.929 . S
C15 C12 1.461 . S
C15 C14 1.474 . S
C16 C11 1.342 . S
C16 C14 1.285 . S
C16 H35 0.930 . S
C17 C20 1.424 . S
C17 C22 1.245 . S
C17 C23 1.428 . S
C18 C21 1.260 . S
C18 C22 1.477 . S
C18 H36 0.932 . S
C19 C20 1.384 . S
C19 C21 1.479 . S
C19 H37 0.929 . S
C20 C17 1.424 . S
C20 C19 1.384 . S
C20 H38 0.928 . S
C21 C18 1.260 . S
C21 C19 1.479 . S
C22 C17 1.245 . S
C22 C18 1.477 . S
C22 H39 0.932 . S
C23 U6 2.882 . S
C23 C17 1.428 . S
C23 O26 1.301 . S
C23 O27 1.282 . S
O24 U6 2.441 . S
O24 C10 1.249 . S
O25 U6 2.420 . S
O25 C10 1.202 . S
O26 U6 2.455 . S
O26 C23 1.301 . S
O27 U6 2.449 . S
O27 C23 1.282 . S
H28 C1 0.931 . S
H29 C3 0.929 . S
H30 C4 0.930 . S
H31 C5 0.931 . S
H32 C12 0.932 . S
H33 C13 0.930 . S
H34 C14 0.929 . S
H35 C16 0.930 . S
H36 C18 0.932 . S
H37 C19 0.929 . S
H38 C20 0.928 . S
H39 C22 0.932 . S
C40 C41 1.264 . S
C40 C45 1.479 . S
C40 C50 1.465 . S
C41 C40 1.264 . S
C41 C43 1.339 . S
C41 H68 0.931 . S
C42 C43 1.395 1_554 S
C42 C44 1.320 . S
C43 C41 1.339 . S
C43 C42 1.395 1_556 S
C43 H69 0.913 1_556 S
C44 C42 1.320 . S
C44 C45 1.405 1_554 S
C44 H70 0.930 . S
C45 C40 1.479 . S
C45 C44 1.405 1_556 S
C45 H71 0.931 . S
U46 O47 2.454 . S
U46 O48 2.458 . S
U46 C49 2.984 . S
U46 C50 2.847 . S
U46 C63 2.882 . S
U46 O64 2.441 . S
U46 O65 2.420 . S
U46 O66 2.455 . S
U46 O67 2.449 . S
O47 U46 2.454 . S
O47 C49 1.353 . S
O48 U46 2.458 . S
O48 C49 1.286 . S
C49 U46 2.984 . S
C49 O47 1.353 . S
C49 O48 1.286 . S
C49 C51 1.363 . S
C50 C40 1.465 . S
C50 U46 2.847 . S
C50 O64 1.249 . S
C50 O65 1.202 . S
C51 C49 1.363 . S
C51 C53 1.408 . S
C51 C56 1.342 . S
C52 C53 1.310 . S
C52 C55 1.461 . S
C52 H72 0.932 . S
C53 C51 1.408 . S
C53 C52 1.310 . S
C53 H73 0.930 . S
C54 C55 1.474 . S
C54 C56 1.285 . S
C54 H74 0.929 . S
C55 C52 1.461 . S
C55 C54 1.474 . S
C56 C51 1.342 . S
C56 C54 1.285 . S
C56 H75 0.930 . S
C57 C60 1.424 . S
C57 C62 1.245 . S
C57 C63 1.428 . S
C58 C61 1.260 . S
C58 C62 1.477 . S
C58 H76 0.932 . S
C59 C60 1.384 . S
C59 C61 1.479 . S
C59 H77 0.929 . S
C60 C57 1.424 . S
C60 C59 1.384 . S
C60 H78 0.928 . S
C61 C58 1.260 . S
C61 C59 1.479 . S
C62 C57 1.245 . S
C62 C58 1.477 . S
C62 H79 0.932 . S
C63 U46 2.882 . S
C63 C57 1.428 . S
C63 O66 1.301 . S
C63 O67 1.282 . S
O64 U46 2.441 . S
O64 C50 1.249 . S
O65 U46 2.420 . S
O65 C50 1.202 . S
O66 U46 2.455 . S
O66 C63 1.301 . S
O67 U46 2.449 . S
O67 C63 1.282 . S
H68 C41 0.931 . S
H69 C43 0.913 1_554 S
H70 C44 0.930 . S
H71 C45 0.931 . S
H72 C52 0.932 . S
H73 C53 0.930 . S
H74 C54 0.929 . S
H75 C56 0.930 . S
H76 C58 0.932 . S
H77 C59 0.929 . S
H78 C60 0.928 . S
H79 C62 0.932 . S
C80 C81 1.264 . S
C80 C85 1.479 . S
C80 C90 1.465 . S
C81 C80 1.264 . S
C81 C83 1.339 . S
C81 H108 0.931 . S
C82 C83 1.395 . S
C82 C84 1.320 . S
C83 C81 1.339 . S
C83 C82 1.395 . S
C83 H109 0.929 . S
C84 C82 1.320 . S
C84 C85 1.405 . S
C84 H110 0.930 . S
C85 C80 1.479 . S
C85 C84 1.405 . S
C85 H111 0.931 . S
U86 O87 2.454 . S
U86 O88 2.458 . S
U86 C89 2.984 . S
U86 C90 2.847 . S
U86 C103 2.882 . S
U86 O104 2.441 . S
U86 O105 2.420 . S
U86 O106 2.455 . S
U86 O107 2.449 . S
O87 U86 2.454 . S
O87 C89 1.353 . S
O88 U86 2.458 . S
O88 C89 1.286 . S
C89 U86 2.984 . S
C89 O87 1.353 . S
C89 O88 1.286 . S
C89 C91 1.363 . S
C90 C80 1.465 . S
C90 U86 2.847 . S
C90 O104 1.249 . S
C90 O105 1.202 . S
C91 C89 1.363 . S
C91 C93 1.408 . S
C91 C96 1.342 . S
C92 C93 1.310 . S
C92 C95 1.461 . S
C92 H112 0.932 . S
C93 C91 1.408 . S
C93 C92 1.310 . S
C93 H113 0.930 . S
C94 C95 1.474 . S
C94 C96 1.285 . S
C94 H114 0.929 . S
C95 C92 1.461 . S
C95 C94 1.474 . S
C96 C91 1.342 . S
C96 C94 1.285 . S
C96 H115 0.930 . S
C97 C100 1.424 . S
C97 C102 1.245 . S
C97 C103 1.428 . S
C98 C101 1.260 . S
C98 C102 1.477 . S
C98 H116 0.932 . S
C99 C100 1.384 . S
C99 C101 1.479 . S
C99 H117 0.929 . S
C100 C97 1.424 . S
C100 C99 1.384 . S
C100 H118 0.928 . S
C101 C98 1.260 . S
C101 C99 1.479 . S
C102 C97 1.245 . S
C102 C98 1.477 . S
C102 H119 0.932 . S
C103 U86 2.882 . S
C103 C97 1.428 . S
C103 O106 1.301 . S
C103 O107 1.282 . S
O104 U86 2.441 . S
O104 C90 1.249 . S
O105 U86 2.420 . S
O105 C90 1.202 . S
O106 U86 2.455 . S
O106 C103 1.301 . S
O107 U86 2.449 . S
O107 C103 1.282 . S
H108 C81 0.931 . S
H109 C83 0.929 . S
H110 C84 0.930 . S
H111 C85 0.931 . S
H112 C92 0.932 . S
H113 C93 0.930 . S
H114 C94 0.929 . S
H115 C96 0.930 . S
H116 C98 0.932 . S
H117 C99 0.929 . S
H118 C100 0.928 . S
H119 C102 0.932 . S
C120 C121 1.264 . S
C120 C125 1.479 . S
C120 C130 1.465 . S
C121 C120 1.264 . S
C121 C123 1.339 . S
C121 H148 0.931 . S
C122 C123 1.395 1_556 S
C122 C124 1.320 1_556 S
C123 C121 1.339 . S
C123 C122 1.395 1_554 S
C123 H149 0.929 . S
C124 C122 1.320 1_554 S
C124 C125 1.405 . S
C124 H150 0.930 1_554 S
C125 C120 1.479 . S
C125 C124 1.405 . S
C125 H151 0.931 . S
U126 O127 2.454 . S
U126 O128 2.458 . S
U126 C129 2.984 . S
U126 C130 2.847 . S
U126 C143 2.882 . S
U126 O144 2.441 . S
U126 O145 2.420 . S
U126 O146 2.455 . S
U126 O147 2.449 . S
O127 U126 2.454 . S
O127 C129 1.353 . S
O128 U126 2.458 . S
O128 C129 1.286 . S
C129 U126 2.984 . S
C129 O127 1.353 . S
C129 O128 1.286 . S
C129 C131 1.363 . S
C130 C120 1.465 . S
C130 U126 2.847 . S
C130 O144 1.249 . S
C130 O145 1.202 . S
C131 C129 1.363 . S
C131 C133 1.408 . S
C131 C136 1.342 . S
C132 C133 1.310 . S
C132 C135 1.461 . S
C132 H152 0.932 . S
C133 C131 1.408 . S
C133 C132 1.310 . S
C133 H153 0.930 . S
C134 C135 1.474 . S
C134 C136 1.285 . S
C134 H154 0.929 . S
C135 C132 1.461 . S
C135 C134 1.474 . S
C136 C131 1.342 . S
C136 C134 1.285 . S
C136 H155 0.930 . S
C137 C140 1.424 . S
C137 C142 1.245 . S
C137 C143 1.428 . S
C138 C141 1.260 . S
C138 C142 1.477 . S
C138 H156 0.932 . S
C139 C140 1.384 . S
C139 C141 1.479 . S
C139 H157 0.929 . S
C140 C137 1.424 . S
C140 C139 1.384 . S
C140 H158 0.928 . S
C141 C138 1.260 . S
C141 C139 1.479 . S
C142 C137 1.245 . S
C142 C138 1.477 . S
C142 H159 0.932 . S
C143 U126 2.882 . S
C143 C137 1.428 . S
C143 O146 1.301 . S
C143 O147 1.282 . S
O144 U126 2.441 . S
O144 C130 1.249 . S
O145 U126 2.420 . S
O145 C130 1.202 . S
O146 U126 2.455 . S
O146 C143 1.301 . S
O147 U126 2.449 . S
O147 C143 1.282 . S
H148 C121 0.931 . S
H149 C123 0.929 . S
H150 C124 0.930 1_556 S
H151 C125 0.931 . S
H152 C132 0.932 . S
H153 C133 0.930 . S
H154 C134 0.929 . S
H155 C136 0.930 . S
H156 C138 0.932 . S
H157 C139 0.929 . S
H158 C140 0.928 . S
H159 C142 0.932 . S
C160 C161 1.264 . S
C160 C165 1.479 . S
C160 C170 1.465 . S
C161 C160 1.264 . S
C161 C163 1.339 . S
C161 H188 0.931 . S
C162 C163 1.395 . S
C162 C164 1.320 . S
C163 C161 1.339 . S
C163 C162 1.395 . S
C163 H189 0.929 . S
C164 C162 1.320 . S
C164 C165 1.405 . S
C164 H190 0.930 . S
C165 C160 1.479 . S
C165 C164 1.405 . S
C165 H191 0.931 . S
U166 O167 2.454 . S
U166 O168 2.458 . S
U166 C169 2.984 . S
U166 C170 2.847 . S
U166 C183 2.882 . S
U166 O184 2.441 . S
U166 O185 2.420 . S
U166 O186 2.455 . S
U166 O187 2.449 . S
O167 U166 2.454 . S
O167 C169 1.353 . S
O168 U166 2.458 . S
O168 C169 1.286 . S
C169 U166 2.984 . S
C169 O167 1.353 . S
C169 O168 1.286 . S
C169 C171 1.363 . S
C170 C160 1.465 . S
C170 U166 2.847 . S
C170 O184 1.249 . S
C170 O185 1.202 . S
C171 C169 1.363 . S
C171 C173 1.408 . S
C171 C176 1.342 . S
C172 C173 1.310 . S
C172 C175 1.461 . S
C172 H192 0.932 . S
C173 C171 1.408 . S
C173 C172 1.310 . S
C173 H193 0.930 . S
C174 C175 1.474 . S
C174 C176 1.285 . S
C174 H194 0.929 . S
C175 C172 1.461 . S
C175 C174 1.474 . S
C176 C171 1.342 . S
C176 C174 1.285 . S
C176 H195 0.930 . S
C177 C180 1.424 . S
C177 C182 1.245 . S
C177 C183 1.428 . S
C178 C181 1.260 . S
C178 C182 1.477 . S
C178 H196 0.932 . S
C179 C180 1.384 . S
C179 C181 1.479 . S
C179 H197 0.929 . S
C180 C177 1.424 . S
C180 C179 1.384 . S
C180 H198 0.928 . S
C181 C178 1.260 . S
C181 C179 1.479 . S
C182 C177 1.245 . S
C182 C178 1.477 . S
C182 H199 0.932 . S
C183 U166 2.882 . S
C183 C177 1.428 . S
C183 O186 1.301 . S
C183 O187 1.282 . S
O184 U166 2.441 . S
O184 C170 1.249 . S
O185 U166 2.420 . S
O185 C170 1.202 . S
O186 U166 2.455 . S
O186 C183 1.301 . S
O187 U166 2.449 . S
O187 C183 1.282 . S
H188 C161 0.931 . S
H189 C163 0.929 . S
H190 C164 0.930 . S
H191 C165 0.931 . S
H192 C172 0.932 . S
H193 C173 0.930 . S
H194 C174 0.929 . S
H195 C176 0.930 . S
H196 C178 0.932 . S
H197 C179 0.929 . S
H198 C180 0.928 . S
H199 C182 0.932 . S
C200 C201 1.264 . S
C200 C205 1.479 . S
C200 C210 1.465 . S
C201 C200 1.264 . S
C201 C203 1.339 . S
C201 H228 0.931 . S
C202 C203 1.395 1_556 S
C202 C204 1.320 . S
C203 C201 1.339 . S
C203 C202 1.395 1_554 S
C203 H229 0.929 1_554 S
C204 C202 1.320 . S
C204 C205 1.405 1_556 S
C204 H230 0.930 . S
C205 C200 1.479 . S
C205 C204 1.405 1_554 S
C205 H231 0.931 . S
U206 O207 2.454 . S
U206 O208 2.458 . S
U206 C209 2.984 . S
U206 C210 2.847 . S
U206 C223 2.882 . S
U206 O224 2.441 . S
U206 O225 2.420 . S
U206 O226 2.455 . S
U206 O227 2.449 . S
O207 U206 2.454 . S
O207 C209 1.353 . S
O208 U206 2.458 . S
O208 C209 1.286 . S
C209 U206 2.984 . S
C209 O207 1.353 . S
C209 O208 1.286 . S
C209 C211 1.363 . S
C210 C200 1.465 . S
C210 U206 2.847 . S
C210 O224 1.249 . S
C210 O225 1.202 . S
C211 C209 1.363 . S
C211 C213 1.408 . S
C211 C216 1.342 . S
C212 C213 1.310 . S
C212 C215 1.461 . S
C212 H232 0.932 . S
C213 C211 1.408 . S
C213 C212 1.310 . S
C213 H233 0.930 . S
C214 C215 1.474 . S
C214 C216 1.285 . S
C214 H234 0.929 . S
C215 C212 1.461 . S
C215 C214 1.474 . S
C216 C211 1.342 . S
C216 C214 1.285 . S
C216 H235 0.930 . S
C217 C220 1.424 . S
C217 C222 1.245 . S
C217 C223 1.428 . S
C218 C221 1.260 . S
C218 C222 1.477 . S
C218 H236 0.932 . S
C219 C220 1.384 . S
C219 C221 1.479 . S
C219 H237 0.929 . S
C220 C217 1.424 . S
C220 C219 1.384 . S
C220 H238 0.928 . S
C221 C218 1.260 . S
C221 C219 1.479 . S
C222 C217 1.245 . S
C222 C218 1.477 . S
C222 H239 0.932 . S
C223 U206 2.882 . S
C223 C217 1.428 . S
C223 O226 1.301 . S
C223 O227 1.282 . S
O224 U206 2.441 . S
O224 C210 1.249 . S
O225 U206 2.420 . S
O225 C210 1.202 . S
O226 U206 2.455 . S
O226 C223 1.301 . S
O227 U206 2.449 . S
O227 C223 1.282 . S
H228 C201 0.931 . S
H229 C203 0.929 1_556 S
H230 C204 0.930 . S
H231 C205 0.931 . S
H232 C212 0.932 . S
H233 C213 0.930 . S
H234 C214 0.929 . S
H235 C216 0.930 . S
H236 C218 0.932 . S
H237 C219 0.929 . S
H238 C220 0.928 . S
H239 C222 0.932 . S
C240 C241 1.264 . S
C240 C245 1.479 . S
C240 C250 1.465 . S
C241 C240 1.264 . S
C241 C243 1.339 . S
C241 H268 0.931 . S
C242 C243 1.395 . S
C242 C244 1.320 . S
C243 C241 1.339 . S
C243 C242 1.395 . S
C243 H269 0.929 . S
C244 C242 1.320 . S
C244 C245 1.405 . S
C244 H270 0.930 . S
C245 C240 1.479 . S
C245 C244 1.405 . S
C245 H271 0.931 . S
U246 O247 2.454 . S
U246 O248 2.458 . S
U246 C249 2.984 . S
U246 C250 2.847 . S
U246 C263 2.882 . S
U246 O264 2.441 . S
U246 O265 2.420 . S
U246 O266 2.455 . S
U246 O267 2.449 . S
O247 U246 2.454 . S
O247 C249 1.353 . S
O248 U246 2.458 . S
O248 C249 1.286 . S
C249 U246 2.984 . S
C249 O247 1.353 . S
C249 O248 1.286 . S
C249 C251 1.363 . S
C250 C240 1.465 . S
C250 U246 2.847 . S
C250 O264 1.249 . S
C250 O265 1.202 . S
C251 C249 1.363 . S
C251 C253 1.408 . S
C251 C256 1.342 . S
C252 C253 1.310 . S
C252 C255 1.461 . S
C252 H272 0.932 . S
C253 C251 1.408 . S
C253 C252 1.310 . S
C253 H273 0.930 . S
C254 C255 1.474 . S
C254 C256 1.285 . S
C254 H274 0.929 . S
C255 C252 1.461 . S
C255 C254 1.474 . S
C256 C251 1.342 . S
C256 C254 1.285 . S
C256 H275 0.930 . S
C257 C260 1.424 . S
C257 C262 1.245 . S
C257 C263 1.428 . S
C258 C261 1.260 . S
C258 C262 1.477 . S
C258 H276 0.932 . S
C259 C260 1.384 . S
C259 C261 1.479 . S
C259 H277 0.929 . S
C260 C257 1.424 . S
C260 C259 1.384 . S
C260 H278 0.928 . S
C261 C258 1.260 . S
C261 C259 1.479 . S
C262 C257 1.245 . S
C262 C258 1.477 . S
C262 H279 0.932 . S
C263 U246 2.882 . S
C263 C257 1.428 . S
C263 O266 1.301 . S
C263 O267 1.282 . S
O264 U246 2.441 . S
O264 C250 1.249 . S
O265 U246 2.420 . S
O265 C250 1.202 . S
O266 U246 2.455 . S
O266 C263 1.301 . S
O267 U246 2.449 . S
O267 C263 1.282 . S
H268 C241 0.931 . S
H269 C243 0.929 . S
H270 C244 0.930 . S
H271 C245 0.931 . S
H272 C252 0.932 . S
H273 C253 0.930 . S
H274 C254 0.929 . S
H275 C256 0.930 . S
H276 C258 0.932 . S
H277 C259 0.929 . S
H278 C260 0.928 . S
H279 C262 0.932 . S
C280 C281 1.264 . S
C280 C285 1.479 . S
C280 C290 1.465 . S
C281 C280 1.264 . S
C281 C283 1.339 . S
C281 H308 0.931 . S
C282 C283 1.395 1_554 S
C282 C284 1.298 1_554 S
C283 C281 1.339 . S
C283 C282 1.395 1_556 S
C283 H309 0.910 1_556 S
C284 C282 1.298 1_556 S
C284 C285 1.459 . S
C284 H310 0.900 1_556 S
C285 C280 1.479 . S
C285 C284 1.459 . S
C285 H311 0.931 . S
U286 O287 2.454 . S
U286 O288 2.458 . S
U286 C289 2.984 . S
U286 C290 2.847 . S
U286 C303 2.882 . S
U286 O304 2.441 . S
U286 O305 2.420 . S
U286 O306 2.455 . S
U286 O307 2.449 . S
O287 U286 2.454 . S
O287 C289 1.353 . S
O288 U286 2.458 . S
O288 C289 1.286 . S
C289 U286 2.984 . S
C289 O287 1.353 . S
C289 O288 1.286 . S
C289 C291 1.363 . S
C290 C280 1.465 . S
C290 U286 2.847 . S
C290 O304 1.249 . S
C290 O305 1.202 . S
C291 C289 1.363 . S
C291 C293 1.408 . S
C291 C296 1.342 . S
C292 C293 1.310 . S
C292 C295 1.461 . S
C292 H312 0.932 . S
C293 C291 1.408 . S
C293 C292 1.310 . S
C293 H313 0.930 . S
C294 C295 1.474 . S
C294 C296 1.285 . S
C294 H314 0.929 . S
C295 C292 1.461 . S
C295 C294 1.474 . S
C296 C291 1.342 . S
C296 C294 1.285 . S
C296 H315 0.930 . S
C297 C300 1.424 . S
C297 C302 1.245 . S
C297 C303 1.428 . S
C298 C301 1.260 . S
C298 C302 1.477 . S
C298 H316 0.932 . S
C299 C300 1.384 . S
C299 C301 1.479 . S
C299 H317 0.929 . S
C300 C297 1.424 . S
C300 C299 1.384 . S
C300 H318 0.928 . S
C301 C298 1.260 . S
C301 C299 1.479 . S
C302 C297 1.245 . S
C302 C298 1.477 . S
C302 H319 0.932 . S
C303 U286 2.882 . S
C303 C297 1.428 . S
C303 O306 1.301 . S
C303 O307 1.282 . S
O304 U286 2.441 . S
O304 C290 1.249 . S
O305 U286 2.420 . S
O305 C290 1.202 . S
O306 U286 2.455 . S
O306 C303 1.301 . S
O307 U286 2.449 . S
O307 C303 1.282 . S
H308 C281 0.931 . S
H309 C283 0.910 1_554 S
H310 C284 0.900 1_554 S
H311 C285 0.931 . S
H312 C292 0.932 . S
H313 C293 0.930 . S
H314 C294 0.929 . S
H315 C296 0.930 . S
H316 C298 0.932 . S
H317 C299 0.929 . S
H318 C300 0.928 . S
H319 C302 0.932 . S
C320 C322 1.422 . S
C320 C324 1.415 . S
C320 N326 1.369 . S
C321 C322 1.421 . S
C321 C323 1.417 . S
C321 C333 1.422 . S
C322 C320 1.422 . S
C322 C321 1.421 . S
C322 N332 1.359 . S
C323 C321 1.417 . S
C323 C325 1.329 . S
C323 H342 0.930 . S
C324 C320 1.415 . S
C324 C325 1.437 . S
C324 C328 1.413 . S
C325 C323 1.329 . S
C325 C324 1.437 . S
C325 H347 0.929 . S
N326 C320 1.369 . S
N326 C327 1.338 . S
N326 Gd331 2.622 . S
C327 N326 1.338 . S
C327 C329 1.378 . S
C327 H339 0.929 . S
C328 C324 1.413 . S
C328 C329 1.348 . S
C328 H344 0.931 . S
C329 C327 1.378 . S
C329 C328 1.348 . S
C329 H345 0.930 . S
Gd330 N350 2.622 . S
Gd330 N357 2.570 . S
Gd330 O364 2.353 . S
Gd330 O365 2.468 . S
Gd330 O366 2.427 . S
Gd330 O368 2.388 . S
Gd330 O369 2.386 . S
Gd330 O373 2.324 . S
Gd330 C383 2.805 . S
Gd331 N326 2.622 . S
Gd331 N332 2.570 . S
Gd331 O363 2.386 . S
Gd331 O367 2.307 1_655 S
Gd331 O370 2.334 1_655 S
Gd331 O371 2.468 . S
Gd331 O372 2.427 . S
Gd331 O374 2.388 . S
Gd331 C395 2.805 . S
N332 C322 1.359 . S
N332 Gd331 2.570 . S
N332 C334 1.343 . S
C333 C321 1.422 . S
C333 C335 1.321 . S
C333 H341 0.931 . S
C334 N332 1.343 . S
C334 C335 1.390 . S
C334 H336 0.931 . S
C335 C333 1.321 . S
C335 C334 1.390 . S
C335 H337 0.930 . S
H336 C334 0.931 . S
H337 C335 0.930 . S
H338 C361 0.931 . S
H339 C327 0.929 . S
H340 C362 0.930 . S
H341 C333 0.931 . S
H342 C323 0.930 . S
H343 C352 0.929 . S
H344 C328 0.931 . S
H345 C329 0.930 . S
H346 C384 0.930 . S
H347 C325 0.929 . S
H348 C353 0.931 . S
H349 C354 0.930 . S
N350 Gd330 2.622 . S
N350 C351 1.369 . S
N350 C352 1.338 . S
C351 N350 1.369 . S
C351 C355 1.415 . S
C351 C358 1.422 . S
C352 H343 0.929 . S
C352 N350 1.338 . S
C352 C354 1.378 . S
C353 H348 0.931 . S
C353 C354 1.348 . S
C353 C355 1.413 . S
C354 H349 0.930 . S
C354 C352 1.378 . S
C354 C353 1.348 . S
C355 C351 1.415 . S
C355 C353 1.413 . S
C355 C385 1.437 . S
H356 C385 0.929 . S
N357 Gd330 2.570 . S
N357 C358 1.359 . S
N357 C361 1.343 . S
C358 C351 1.422 . S
C358 N357 1.359 . S
C358 C360 1.421 . S
C359 C360 1.422 . S
C359 C362 1.321 . S
C359 H386 0.931 . S
C360 C358 1.421 . S
C360 C359 1.422 . S
C360 C384 1.417 . S
C361 H338 0.931 . S
C361 N357 1.343 . S
C361 C362 1.390 . S
C362 H340 0.930 . S
C362 C359 1.321 . S
C362 C361 1.390 . S
O363 Gd331 2.386 . S
O363 C375 1.265 . S
O364 Gd330 2.353 . S
O364 C375 1.242 1_455 S
O365 Gd330 2.468 . S
O365 C383 1.263 . S
O366 Gd330 2.427 . S
O366 C383 1.252 . S
O367 Gd331 2.307 1_455 S
O367 C376 1.261 . S
O368 Gd330 2.388 . S
O368 C376 1.252 . S
O369 Gd330 2.386 . S
O369 C387 1.265 . S
O370 Gd331 2.334 1_455 S
O370 C387 1.266 . S
O371 Gd331 2.468 . S
O371 C395 1.263 . S
O372 Gd331 2.427 . S
O372 C395 1.252 . S
O373 Gd330 2.324 . S
O373 C388 1.241 1_455 S
O374 Gd331 2.388 . S
O374 C388 1.252 . S
C375 O363 1.265 . S
C375 O364 1.242 1_655 S
C376 O367 1.261 . S
C376 O368 1.252 . S
C377 C380 1.394 . S
C377 C382 1.370 . S
C377 C383 1.500 . S
C378 C381 1.383 . S
C378 C382 1.395 . S
C379 C380 1.396 . S
C379 C381 1.365 . S
C379 H396 0.929 . S
C380 C377 1.394 . S
C380 C379 1.396 . S
C380 H397 0.930 . S
C381 C378 1.383 . S
C381 C379 1.365 . S
C381 H398 0.931 . S
C382 C377 1.370 . S
C382 C378 1.395 . S
C382 H399 0.930 . S
C383 Gd330 2.805 . S
C383 O365 1.263 . S
C383 O366 1.252 . S
C383 C377 1.500 . S
C384 H346 0.930 . S
C384 C360 1.417 . S
C384 C385 1.329 . S
C385 C355 1.437 . S
C385 H356 0.929 . S
C385 C384 1.329 . S
H386 C359 0.931 . S
C387 O369 1.265 . S
C387 O370 1.266 . S
C388 O373 1.241 1_655 S
C388 O374 1.252 . S
C389 C392 1.394 . S
C389 C394 1.370 . S
C389 C395 1.500 . S
C390 C393 1.383 . S
C390 C394 1.395 . S
C391 C392 1.396 . S
C391 C393 1.365 . S
C391 H400 0.929 . S
C392 C389 1.394 . S
C392 C391 1.396 . S
C392 H401 0.930 . S
C393 C390 1.383 . S
C393 C391 1.365 . S
C393 H402 0.931 . S
C394 C389 1.370 . S
C394 C390 1.395 . S
C394 H403 0.930 . S
C395 Gd331 2.805 . S
C395 O371 1.263 . S
C395 O372 1.252 . S
C395 C389 1.500 . S
H396 C379 0.929 . S
H397 C380 0.930 . S
H398 C381 0.931 . S
H399 C382 0.930 . S
H400 C391 0.929 . S
H401 C392 0.930 . S
H402 C393 0.931 . S
H403 C394 0.930 . S
C404 C406 1.422 . S
C404 C408 1.415 . S
C404 N410 1.369 . S
C405 C406 1.421 . S
C405 C407 1.417 . S
C405 C417 1.422 . S
C406 C404 1.422 . S
C406 C405 1.421 . S
C406 N416 1.359 . S
C407 C405 1.417 . S
C407 C409 1.329 . S
C407 H426 0.930 . S
C408 C404 1.415 . S
C408 C409 1.437 . S
C408 C412 1.413 . S
C409 C407 1.329 . S
C409 C408 1.437 . S
C409 H431 0.929 . S
N410 C404 1.369 . S
N410 C411 1.338 . S
N410 Gd415 2.622 . S
C411 N410 1.338 . S
C411 C413 1.378 . S
C411 H423 0.929 . S
C412 C408 1.413 . S
C412 C413 1.348 . S
C412 H428 0.931 . S
C413 C411 1.378 . S
C413 C412 1.348 . S
C413 H429 0.930 . S
Gd414 N434 2.622 . S
Gd414 N441 2.570 . S
Gd414 O448 2.353 . S
Gd414 O449 2.468 . S
Gd414 O450 2.427 . S
Gd414 O452 2.388 . S
Gd414 O453 2.386 . S
Gd414 O457 2.307 . S
Gd414 C467 2.805 . S
Gd415 N410 2.622 . S
Gd415 N416 2.570 . S
Gd415 O447 2.386 . S
Gd415 O451 2.307 . S
Gd415 O454 2.353 . S
Gd415 O455 2.468 . S
Gd415 O456 2.427 . S
Gd415 O458 2.388 . S
Gd415 C479 2.805 . S
N416 C406 1.359 . S
N416 Gd415 2.570 . S
N416 C418 1.343 . S
C417 C405 1.422 . S
C417 C419 1.321 . S
C417 H425 0.931 . S
C418 N416 1.343 . S
C418 C419 1.390 . S
C418 H420 0.931 . S
C419 C417 1.321 . S
C419 C418 1.390 . S
C419 H421 0.930 . S
H420 C418 0.931 . S
H421 C419 0.930 . S
H422 C445 0.931 . S
H423 C411 0.929 . S
H424 C446 0.930 . S
H425 C417 0.931 . S
H426 C407 0.930 . S
H427 C436 0.929 . S
H428 C412 0.931 . S
H429 C413 0.930 . S
H430 C468 0.930 . S
H431 C409 0.929 . S
H432 C437 0.931 . S
H433 C438 0.930 . S
N434 Gd414 2.622 . S
N434 C435 1.369 . S
N434 C436 1.338 . S
C435 N434 1.369 . S
C435 C439 1.415 . S
C435 C442 1.422 . S
C436 H427 0.929 . S
C436 N434 1.338 . S
C436 C438 1.378 . S
C437 H432 0.931 . S
C437 C438 1.348 . S
C437 C439 1.413 . S
C438 H433 0.930 . S
C438 C436 1.378 . S
C438 C437 1.348 . S
C439 C435 1.415 . S
C439 C437 1.413 . S
C439 C469 1.437 . S
H440 C469 0.929 . S
N441 Gd414 2.570 . S
N441 C442 1.359 . S
N441 C445 1.343 . S
C442 C435 1.422 . S
C442 N441 1.359 . S
C442 C444 1.421 . S
C443 C444 1.422 . S
C443 C446 1.321 . S
C443 H470 0.931 . S
C444 C442 1.421 . S
C444 C443 1.422 . S
C444 C468 1.417 . S
C445 H422 0.931 . S
C445 N441 1.343 . S
C445 C446 1.390 . S
C446 H424 0.930 . S
C446 C443 1.321 . S
C446 C445 1.390 . S
O447 Gd415 2.386 . S
O447 C459 1.265 . S
O448 Gd414 2.353 . S
O448 C459 1.242 . S
O449 Gd414 2.468 . S
O449 C467 1.263 . S
O450 Gd414 2.427 . S
O450 C467 1.252 . S
O451 Gd415 2.307 . S
O451 C460 1.261 . S
O452 Gd414 2.388 . S
O452 C460 1.252 . S
O453 Gd414 2.386 . S
O453 C471 1.265 . S
O454 Gd415 2.353 . S
O454 C471 1.242 . S
O455 Gd415 2.468 . S
O455 C479 1.263 . S
O456 Gd415 2.427 . S
O456 C479 1.252 . S
O457 Gd414 2.307 . S
O457 C472 1.261 . S
O458 Gd415 2.388 . S
O458 C472 1.252 . S
C459 O447 1.265 . S
C459 O448 1.242 . S
C460 O451 1.261 . S
C460 O452 1.252 . S
C461 C464 1.394 . S
C461 C466 1.370 . S
C461 C467 1.500 . S
C462 C465 1.383 . S
C462 C466 1.395 . S
C463 C464 1.396 . S
C463 C465 1.365 . S
C463 H480 0.929 . S
C464 C461 1.394 . S
C464 C463 1.396 . S
C464 H481 0.930 . S
C465 C462 1.383 . S
C465 C463 1.365 . S
C465 H482 0.931 . S
C466 C461 1.370 . S
C466 C462 1.395 . S
C466 H483 0.930 . S
C467 Gd414 2.805 . S
C467 O449 1.263 . S
C467 O450 1.252 . S
C467 C461 1.500 . S
C468 H430 0.930 . S
C468 C444 1.417 . S
C468 C469 1.329 . S
C469 C439 1.437 . S
C469 H440 0.929 . S
C469 C468 1.329 . S
H470 C443 0.931 . S
C471 O453 1.265 . S
C471 O454 1.242 . S
C472 O457 1.261 . S
C472 O458 1.252 . S
C473 C476 1.394 . S
C473 C478 1.370 . S
C473 C479 1.500 . S
C474 C477 1.383 . S
C474 C478 1.395 . S
C475 C476 1.396 . S
C475 C477 1.365 . S
C475 H484 0.929 . S
C476 C473 1.394 . S
C476 C475 1.396 . S
C476 H485 0.930 . S
C477 C474 1.383 . S
C477 C475 1.365 . S
C477 H486 0.931 . S
C478 C473 1.370 . S
C478 C474 1.395 . S
C478 H487 0.930 . S
C479 Gd415 2.805 . S
C479 O455 1.263 . S
C479 O456 1.252 . S
C479 C473 1.500 . S
H480 C463 0.929 . S
H481 C464 0.930 . S
H482 C465 0.931 . S
H483 C466 0.930 . S
H484 C475 0.929 . S
H485 C476 0.930 . S
H486 C477 0.931 . S
H487 C478 0.930 . S
C488 C490 1.422 . S
C488 C492 1.415 . S
C488 N494 1.369 . S
C489 C490 1.421 . S
C489 C491 1.417 . S
C489 C501 1.422 . S
C490 C488 1.422 . S
C490 C489 1.421 . S
C490 N500 1.359 . S
C491 C489 1.417 . S
C491 C493 1.329 . S
C491 H510 0.930 . S
C492 C488 1.415 . S
C492 C493 1.437 . S
C492 C496 1.413 . S
C493 C491 1.329 . S
C493 C492 1.437 . S
C493 H515 0.929 . S
N494 C488 1.369 . S
N494 C495 1.338 . S
N494 Gd499 2.622 . S
C495 N494 1.338 . S
C495 C497 1.378 . S
C495 H507 0.929 . S
C496 C492 1.413 . S
C496 C497 1.348 . S
C496 H512 0.931 . S
C497 C495 1.378 . S
C497 C496 1.348 . S
C497 H513 0.930 . S
Gd498 N518 2.622 . S
Gd498 N525 2.570 . S
Gd498 O532 2.353 . S
Gd498 O533 2.468 . S
Gd498 O534 2.427 . S
Gd498 O536 2.388 . S
Gd498 O537 2.386 . S
Gd498 O541 2.307 . S
Gd498 C551 2.805 . S
Gd499 N494 2.622 . S
Gd499 N500 2.570 . S
Gd499 O531 2.386 . S
Gd499 O535 2.307 1_655 S
Gd499 O538 2.353 1_655 S
Gd499 O539 2.468 . S
Gd499 O540 2.427 . S
Gd499 O542 2.388 . S
Gd499 C563 2.805 . S
N500 C490 1.359 . S
N500 Gd499 2.570 . S
N500 C502 1.343 . S
C501 C489 1.422 . S
C501 C503 1.321 . S
C501 H509 0.931 . S
C502 N500 1.343 . S
C502 C503 1.390 . S
C502 H504 0.931 . S
C503 C501 1.321 . S
C503 C502 1.390 . S
C503 H505 0.930 . S
H504 C502 0.931 . S
H505 C503 0.930 . S
H506 C529 0.931 . S
H507 C495 0.929 . S
H508 C530 0.930 . S
H509 C501 0.931 . S
H510 C491 0.930 . S
H511 C520 0.929 . S
H512 C496 0.931 . S
H513 C497 0.930 . S
H514 C552 0.930 . S
H515 C493 0.929 . S
H516 C521 0.931 . S
H517 C522 0.930 . S
N518 Gd498 2.622 . S
N518 C519 1.369 . S
N518 C520 1.338 . S
C519 N518 1.369 . S
C519 C523 1.415 . S
C519 C526 1.422 . S
C520 H511 0.929 . S
C520 N518 1.338 . S
C520 C522 1.378 . S
C521 H516 0.931 . S
C521 C522 1.348 . S
C521 C523 1.413 . S
C522 H517 0.930 . S
C522 C520 1.378 . S
C522 C521 1.348 . S
C523 C519 1.415 . S
C523 C521 1.413 . S
C523 C553 1.437 . S
H524 C553 0.929 . S
N525 Gd498 2.570 . S
N525 C526 1.359 . S
N525 C529 1.343 . S
C526 C519 1.422 . S
C526 N525 1.359 . S
C526 C528 1.421 . S
C527 C528 1.422 . S
C527 C530 1.321 . S
C527 H554 0.931 . S
C528 C526 1.421 . S
C528 C527 1.422 . S
C528 C552 1.417 . S
C529 H506 0.931 . S
C529 N525 1.343 . S
C529 C530 1.390 . S
C530 H508 0.930 . S
C530 C527 1.321 . S
C530 C529 1.390 . S
O531 Gd499 2.386 . S
O531 C543 1.265 . S
O532 Gd498 2.353 . S
O532 C543 1.242 1_455 S
O533 Gd498 2.468 . S
O533 C551 1.263 . S
O534 Gd498 2.427 . S
O534 C551 1.252 . S
O535 Gd499 2.307 1_455 S
O535 C544 1.261 . S
O536 Gd498 2.388 . S
O536 C544 1.252 . S
O537 Gd498 2.386 . S
O537 C555 1.265 . S
O538 Gd499 2.353 1_455 S
O538 C555 1.242 . S
O539 Gd499 2.468 . S
O539 C563 1.263 . S
O540 Gd499 2.427 . S
O540 C563 1.252 . S
O541 Gd498 2.307 . S
O541 C556 1.261 1_455 S
O542 Gd499 2.388 . S
O542 C556 1.252 . S
C543 O531 1.265 . S
C543 O532 1.242 1_655 S
C544 O535 1.261 . S
C544 O536 1.252 . S
C545 C548 1.394 . S
C545 C550 1.370 . S
C545 C551 1.500 . S
C546 C549 1.383 . S
C546 C550 1.395 . S
C547 C548 1.396 . S
C547 C549 1.365 . S
C547 H564 0.929 . S
C548 C545 1.394 . S
C548 C547 1.396 . S
C548 H565 0.930 . S
C549 C546 1.383 . S
C549 C547 1.365 . S
C549 H566 0.931 . S
C550 C545 1.370 . S
C550 C546 1.395 . S
C550 H567 0.930 . S
C551 Gd498 2.805 . S
C551 O533 1.263 . S
C551 O534 1.252 . S
C551 C545 1.500 . S
C552 H514 0.930 . S
C552 C528 1.417 . S
C552 C553 1.329 . S
C553 C523 1.437 . S
C553 H524 0.929 . S
C553 C552 1.329 . S
H554 C527 0.931 . S
C555 O537 1.265 . S
C555 O538 1.242 . S
C556 O541 1.261 1_655 S
C556 O542 1.252 . S
C557 C560 1.394 . S
C557 C562 1.370 . S
C557 C563 1.500 . S
C558 C561 1.383 . S
C558 C562 1.395 . S
C559 C560 1.396 . S
C559 C561 1.365 . S
C559 H568 0.929 . S
C560 C557 1.394 . S
C560 C559 1.396 . S
C560 H569 0.930 . S
C561 C558 1.383 . S
C561 C559 1.365 . S
C561 H570 0.931 . S
C562 C557 1.370 . S
C562 C558 1.395 . S
C562 H571 0.930 . S
C563 Gd499 2.805 . S
C563 O539 1.263 . S
C563 O540 1.252 . S
C563 C557 1.500 . S
H564 C547 0.929 . S
H565 C548 0.930 . S
H566 C549 0.931 . S
H567 C550 0.930 . S
H568 C559 0.929 . S
H569 C560 0.930 . S
H570 C561 0.931 . S
H571 C562 0.930 . S
C572 C574 1.422 . S
C572 C576 1.415 . S
C572 N578 1.369 . S
C573 C574 1.421 . S
C573 C575 1.417 . S
C573 C585 1.422 . S
C574 C572 1.422 . S
C574 C573 1.421 . S
C574 N584 1.359 . S
C575 C573 1.417 . S
C575 C577 1.329 . S
C575 H594 0.930 . S
C576 C572 1.415 . S
C576 C577 1.437 . S
C576 C580 1.413 . S
C577 C575 1.329 . S
C577 C576 1.437 . S
C577 H599 0.929 . S
N578 C572 1.369 . S
N578 C579 1.338 . S
N578 Gd583 2.622 . S
C579 N578 1.338 . S
C579 C581 1.378 . S
C579 H591 0.929 . S
C580 C576 1.413 . S
C580 C581 1.348 . S
C580 H596 0.931 . S
C581 C579 1.378 . S
C581 C580 1.348 . S
C581 H597 0.930 . S
Gd582 N602 2.622 . S
Gd582 N609 2.570 . S
Gd582 O616 2.353 . S
Gd582 O617 2.468 . S
Gd582 O618 2.427 . S
Gd582 O620 2.388 . S
Gd582 O621 2.386 . S
Gd582 O625 2.307 . S
Gd582 C635 2.805 . S
Gd583 N578 2.622 . S
Gd583 N584 2.570 . S
Gd583 O615 2.386 . S
Gd583 O619 2.307 . S
Gd583 O622 2.353 . S
Gd583 O623 2.468 . S
Gd583 O624 2.427 . S
Gd583 O626 2.388 . S
Gd583 C647 2.805 . S
N584 C574 1.359 . S
N584 Gd583 2.570 . S
N584 C586 1.343 . S
C585 C573 1.422 . S
C585 C587 1.321 . S
C585 H593 0.931 . S
C586 N584 1.343 . S
C586 C587 1.390 . S
C586 H588 0.931 . S
C587 C585 1.321 . S
C587 C586 1.390 . S
C587 H589 0.930 . S
H588 C586 0.931 . S
H589 C587 0.930 . S
H590 C613 0.931 . S
H591 C579 0.929 . S
H592 C614 0.930 . S
H593 C585 0.931 . S
H594 C575 0.930 . S
H595 C604 0.929 . S
H596 C580 0.931 . S
H597 C581 0.930 . S
H598 C636 0.930 . S
H599 C577 0.929 . S
H600 C605 0.931 . S
H601 C606 0.930 . S
N602 Gd582 2.622 . S
N602 C603 1.369 . S
N602 C604 1.338 . S
C603 N602 1.369 . S
C603 C607 1.415 . S
C603 C610 1.422 . S
C604 H595 0.929 . S
C604 N602 1.338 . S
C604 C606 1.378 . S
C605 H600 0.931 . S
C605 C606 1.348 . S
C605 C607 1.413 . S
C606 H601 0.930 . S
C606 C604 1.378 . S
C606 C605 1.348 . S
C607 C603 1.415 . S
C607 C605 1.413 . S
C607 C637 1.437 . S
H608 C637 0.929 . S
N609 Gd582 2.570 . S
N609 C610 1.359 . S
N609 C613 1.343 . S
C610 C603 1.422 . S
C610 N609 1.359 . S
C610 C612 1.421 . S
C611 C612 1.422 . S
C611 C614 1.321 . S
C611 H638 0.931 . S
C612 C610 1.421 . S
C612 C611 1.422 . S
C612 C636 1.417 . S
C613 H590 0.931 . S
C613 N609 1.343 . S
C613 C614 1.390 . S
C614 H592 0.930 . S
C614 C611 1.321 . S
C614 C613 1.390 . S
O615 Gd583 2.386 . S
O615 C627 1.265 . S
O616 Gd582 2.353 . S
O616 C627 1.242 . S
O617 Gd582 2.468 . S
O617 C635 1.263 . S
O618 Gd582 2.427 . S
O618 C635 1.252 . S
O619 Gd583 2.307 . S
O619 C628 1.261 . S
O620 Gd582 2.388 . S
O620 C628 1.252 . S
O621 Gd582 2.386 . S
O621 C639 1.265 . S
O622 Gd583 2.353 . S
O622 C639 1.242 . S
O623 Gd583 2.468 . S
O623 C647 1.263 . S
O624 Gd583 2.427 . S
O624 C647 1.252 . S
O625 Gd582 2.307 . S
O625 C640 1.261 . S
O626 Gd583 2.388 . S
O626 C640 1.252 . S
C627 O615 1.265 . S
C627 O616 1.242 . S
C628 O619 1.261 . S
C628 O620 1.252 . S
C629 C632 1.394 . S
C629 C634 1.370 . S
C629 C635 1.500 . S
C630 C633 1.383 . S
C630 C634 1.395 . S
C631 C632 1.396 . S
C631 C633 1.365 . S
C631 H648 0.929 . S
C632 C629 1.394 . S
C632 C631 1.396 . S
C632 H649 0.930 . S
C633 C630 1.383 . S
C633 C631 1.365 . S
C633 H650 0.931 . S
C634 C629 1.370 . S
C634 C630 1.395 . S
C634 H651 0.930 . S
C635 Gd582 2.805 . S
C635 O617 1.263 . S
C635 O618 1.252 . S
C635 C629 1.500 . S
C636 H598 0.930 . S
C636 C612 1.417 . S
C636 C637 1.329 . S
C637 C607 1.437 . S
C637 H608 0.929 . S
C637 C636 1.329 . S
H638 C611 0.931 . S
C639 O621 1.265 . S
C639 O622 1.242 . S
C640 O625 1.261 . S
C640 O626 1.252 . S
C641 C644 1.394 . S
C641 C646 1.370 . S
C641 C647 1.500 . S
C642 C645 1.383 . S
C642 C646 1.395 . S
C643 C644 1.396 . S
C643 C645 1.365 . S
C643 H652 0.929 . S
C644 C641 1.394 . S
C644 C643 1.396 . S
C644 H653 0.930 . S
C645 C642 1.383 . S
C645 C643 1.365 . S
C645 H654 0.931 . S
C646 C641 1.370 . S
C646 C642 1.395 . S
C646 H655 0.930 . S
C647 Gd583 2.805 . S
C647 O623 1.263 . S
C647 O624 1.252 . S
C647 C641 1.500 . S
H648 C631 0.929 . S
H649 C632 0.930 . S
H650 C633 0.931 . S
H651 C634 0.930 . S
H652 C643 0.929 . S
H653 C644 0.930 . S
H654 C645 0.931 . S
H655 C646 0.930 . S
C656 C657 1.391 . S
C656 C658 1.394 . S
C656 H672 0.931 1_545 S
C657 C656 1.391 . S
C657 C661 1.375 . S
C658 C656 1.394 . S
C658 C659 1.369 . S
C658 C662 1.531 . S
C659 C658 1.369 . S
C659 C660 1.410 . S
C659 C667 1.503 . S
C660 C659 1.410 . S
C660 C661 1.392 . S
C660 C663 1.511 . S
C661 C657 1.375 . S
C661 C660 1.392 . S
C661 H673 0.929 . S
C662 C658 1.531 . S
C662 H674 0.960 . S
C662 H675 0.962 . S
C662 H676 0.960 . S
C663 C660 1.511 . S
C663 H677 0.961 . S
C663 H678 0.961 . S
C663 H679 0.961 . S
C664 C665 1.370 . S
C664 C666 1.363 . S
C664 H680 0.931 . S
C665 C664 1.370 . S
C665 C669 1.408 . S
C666 C664 1.363 . S
C666 C667 1.370 . S
C666 C670 1.524 . S
C667 C659 1.503 . S
C667 C666 1.370 . S
C667 C668 1.403 . S
C668 C667 1.403 . S
C668 C669 1.404 . S
C668 C671 1.539 . S
C669 C665 1.408 . S
C669 C668 1.404 . S
C669 H681 0.930 . S
C670 C666 1.524 . S
C670 H682 0.956 . S
C670 H683 0.961 . S
C670 H684 0.961 . S
C671 C668 1.539 . S
C671 H685 0.958 . S
C671 H686 0.961 . S
C671 H687 0.960 . S
H672 C656 0.931 1_565 S
H673 C661 0.929 . S
H674 C662 0.960 . S
H675 C662 0.962 . S
H676 C662 0.960 . S
H677 C663 0.961 . S
H678 C663 0.961 . S
H679 C663 0.961 . S
H680 C664 0.931 . S
H681 C669 0.930 . S
H682 C670 0.956 . S
H683 C670 0.961 . S
H684 C670 0.961 . S
H685 C671 0.958 . S
H686 C671 0.961 . S
H687 C671 0.960 . S
C688 C689 1.391 . S
C688 C690 1.394 . S
C688 H704 0.931 . S
C689 C688 1.391 . S
C689 C693 1.376 . S
C690 C688 1.394 . S
C690 C691 1.369 . S
C690 C694 1.531 . S
C691 C690 1.369 . S
C691 C692 1.410 . S
C691 C699 1.503 . S
C692 C691 1.410 . S
C692 C693 1.392 . S
C692 C695 1.511 . S
C693 C689 1.376 . S
C693 C692 1.392 . S
C693 H705 0.929 . S
C694 C690 1.531 . S
C694 H706 0.960 . S
C694 H707 0.962 . S
C694 H708 0.960 . S
C695 C692 1.511 . S
C695 H709 0.961 . S
C695 H710 0.961 . S
C695 H711 0.961 . S
C696 C697 1.370 . S
C696 C698 1.363 . S
C696 H712 0.931 . S
C697 C696 1.370 . S
C697 C701 1.408 . S
C698 C696 1.363 . S
C698 C699 1.370 . S
C698 C702 1.524 . S
C699 C691 1.503 . S
C699 C698 1.370 . S
C699 C700 1.403 . S
C700 C699 1.403 . S
C700 C701 1.404 . S
C700 C703 1.539 . S
C701 C697 1.408 . S
C701 C700 1.404 . S
C701 H713 0.930 . S
C702 C698 1.524 . S
C702 H714 0.956 . S
C702 H715 0.961 . S
C702 H716 0.961 . S
C703 C700 1.539 . S
C703 H717 0.958 . S
C703 H718 0.961 . S
C703 H719 0.960 . S
H704 C688 0.931 . S
H705 C693 0.929 . S
H706 C694 0.960 . S
H707 C694 0.962 . S
H708 C694 0.960 . S
H709 C695 0.961 . S
H710 C695 0.961 . S
H711 C695 0.961 . S
H712 C696 0.931 . S
H713 C701 0.930 . S
H714 C702 0.956 . S
H715 C702 0.961 . S
H716 C702 0.961 . S
H717 C703 0.958 . S
H718 C703 0.961 . S
H719 C703 0.960 . S
C720 C721 1.391 . S
C720 C722 1.394 . S
C720 H736 0.931 . S
C721 C720 1.391 . S
C721 C725 1.376 . S
C722 C720 1.394 . S
C722 C723 1.369 . S
C722 C726 1.531 . S
C723 C722 1.369 . S
C723 C724 1.410 . S
C723 C731 1.503 . S
C724 C723 1.410 . S
C724 C725 1.392 . S
C724 C727 1.511 . S
C725 C721 1.376 . S
C725 C724 1.392 . S
C725 H737 0.929 . S
C726 C722 1.531 . S
C726 H738 0.960 . S
C726 H739 0.962 . S
C726 H740 0.960 . S
C727 C724 1.511 . S
C727 H741 0.961 . S
C727 H742 0.961 . S
C727 H743 0.961 . S
C728 C729 1.370 . S
C728 C730 1.363 . S
C728 H744 0.931 . S
C729 C728 1.370 . S
C729 C733 1.408 . S
C730 C728 1.363 . S
C730 C731 1.370 . S
C730 C734 1.524 . S
C731 C723 1.503 . S
C731 C730 1.370 . S
C731 C732 1.403 . S
C732 C731 1.403 . S
C732 C733 1.404 . S
C732 C735 1.539 . S
C733 C729 1.408 . S
C733 C732 1.404 . S
C733 H745 0.930 . S
C734 C730 1.524 . S
C734 H746 0.956 . S
C734 H747 0.961 . S
C734 H748 0.961 . S
C735 C732 1.539 . S
C735 H749 0.958 . S
C735 H750 0.961 . S
C735 H751 0.960 . S
H736 C720 0.931 . S
H737 C725 0.929 . S
H738 C726 0.960 . S
H739 C726 0.962 . S
H740 C726 0.960 . S
H741 C727 0.961 . S
H742 C727 0.961 . S
H743 C727 0.961 . S
H744 C728 0.931 . S
H745 C733 0.930 . S
H746 C734 0.956 . S
H747 C734 0.961 . S
H748 C734 0.961 . S
H749 C735 0.958 . S
H750 C735 0.961 . S
H751 C735 0.960 . S
C752 C753 1.391 1_545 S
C752 C754 1.394 . S
C752 H768 0.931 . S
C753 C752 1.391 1_565 S
C753 C757 1.376 1_565 S
C754 C752 1.394 . S
C754 C755 1.369 . S
C754 C758 1.531 . S
C755 C754 1.369 . S
C755 C756 1.410 . S
C755 C763 1.503 . S
C756 C755 1.410 . S
C756 C757 1.392 . S
C756 C759 1.511 . S
C757 C753 1.376 1_545 S
C757 C756 1.392 . S
C757 H769 0.929 1_545 S
C758 C754 1.531 . S
C758 H770 0.960 . S
C758 H771 0.962 . S
C758 H772 0.960 . S
C759 C756 1.511 . S
C759 H773 0.961 . S
C759 H774 0.961 . S
C759 H775 0.961 . S
C760 C761 1.370 . S
C760 C762 1.363 . S
C760 H776 0.931 . S
C761 C760 1.370 . S
C761 C765 1.408 . S
C762 C760 1.363 . S
C762 C763 1.370 . S
C762 C766 1.524 . S
C763 C755 1.503 . S
C763 C762 1.370 . S
C763 C764 1.403 . S
C764 C763 1.403 . S
C764 C765 1.404 . S
C764 C767 1.539 . S
C765 C761 1.408 . S
C765 C764 1.404 . S
C765 H777 0.930 . S
C766 C762 1.524 . S
C766 H778 0.956 . S
C766 H779 0.961 . S
C766 H780 0.961 . S
C767 C764 1.539 . S
C767 H781 0.958 . S
C767 H782 0.961 . S
C767 H783 0.960 . S
H768 C752 0.931 . S
H769 C757 0.929 1_565 S
H770 C758 0.960 . S
H771 C758 0.962 . S
H772 C758 0.960 . S
H773 C759 0.961 . S
H774 C759 0.961 . S
H775 C759 0.961 . S
H776 C760 0.931 . S
H777 C765 0.930 . S
H778 C766 0.956 . S
H779 C766 0.961 . S
H780 C766 0.961 . S
H781 C767 0.958 . S
H782 C767 0.961 . S
H783 C767 0.960 . S
C784 C785 1.391 . S
C784 C786 1.394 . S
C784 H800 0.931 . S
C785 C784 1.391 . S
C785 C789 1.376 1_565 S
C786 C784 1.394 . S
C786 C787 1.369 . S
C786 C790 1.531 . S
C787 C786 1.369 . S
C787 C788 1.410 . S
C787 C795 1.503 . S
C788 C787 1.410 . S
C788 C789 1.392 1_565 S
C788 C791 1.511 . S
C789 C785 1.376 1_545 S
C789 C788 1.392 1_545 S
C789 H801 0.929 . S
C790 C786 1.531 . S
C790 H802 0.960 . S
C790 H803 0.962 . S
C790 H804 0.960 . S
C791 C788 1.511 . S
C791 H805 0.961 1_565 S
C791 H806 0.961 . S
C791 H807 0.961 . S
C792 C793 1.370 . S
C792 C794 1.363 . S
C792 H808 0.931 . S
C793 C792 1.370 . S
C793 C797 1.408 . S
C794 C792 1.363 . S
C794 C795 1.370 . S
C794 C798 1.524 . S
C795 C787 1.503 . S
C795 C794 1.370 . S
C795 C796 1.403 . S
C796 C795 1.403 . S
C796 C797 1.404 . S
C796 C799 1.539 . S
C797 C793 1.408 . S
C797 C796 1.404 . S
C797 H809 0.930 . S
C798 C794 1.524 . S
C798 H810 0.956 . S
C798 H811 0.961 . S
C798 H812 0.961 . S
C799 C796 1.539 . S
C799 H813 0.958 . S
C799 H814 0.961 . S
C799 H815 0.960 . S
H800 C784 0.931 . S
H801 C789 0.929 . S
H802 C790 0.960 . S
H803 C790 0.962 . S
H804 C790 0.960 . S
H805 C791 0.961 1_545 S
H806 C791 0.961 . S
H807 C791 0.961 . S
H808 C792 0.931 . S
H809 C797 0.930 . S
H810 C798 0.956 . S
H811 C798 0.961 . S
H812 C798 0.961 . S
H813 C799 0.958 . S
H814 C799 0.961 . S
H815 C799 0.960 . S
C816 C817 1.391 . S
C816 C818 1.394 . S
C816 H832 0.931 . S
C817 C816 1.391 . S
C817 C821 1.376 . S
C818 C816 1.394 . S
C818 C819 1.369 . S
C818 C822 1.531 . S
C819 C818 1.369 . S
C819 C820 1.410 . S
C819 C827 1.503 . S
C820 C819 1.410 . S
C820 C821 1.392 . S
C820 C823 1.511 . S
C821 C817 1.376 . S
C821 C820 1.392 . S
C821 H833 0.929 . S
C822 C818 1.531 . S
C822 H834 0.960 . S
C822 H835 0.962 . S
C822 H836 0.960 . S
C823 C820 1.511 . S
C823 H837 0.961 . S
C823 H838 0.961 . S
C823 H839 0.961 . S
C824 C825 1.370 . S
C824 C826 1.363 . S
C824 H840 0.931 . S
C825 C824 1.370 . S
C825 C829 1.408 . S
C826 C824 1.363 . S
C826 C827 1.370 . S
C826 C830 1.524 . S
C827 C819 1.503 . S
C827 C826 1.370 . S
C827 C828 1.403 . S
C828 C827 1.403 . S
C828 C829 1.404 . S
C828 C831 1.539 . S
C829 C825 1.408 . S
C829 C828 1.404 . S
C829 H841 0.930 . S
C830 C826 1.524 . S
C830 H842 0.956 . S
C830 H843 0.961 . S
C830 H844 0.961 . S
C831 C828 1.539 . S
C831 H845 0.958 . S
C831 H846 0.961 . S
C831 H847 0.960 . S
H832 C816 0.931 . S
H833 C821 0.929 . S
H834 C822 0.960 . S
H835 C822 0.962 . S
H836 C822 0.960 . S
H837 C823 0.961 . S
H838 C823 0.961 . S
H839 C823 0.961 . S
H840 C824 0.931 . S
H841 C829 0.930 . S
H842 C830 0.956 . S
H843 C830 0.961 . S
H844 C830 0.961 . S
H845 C831 0.958 . S
H846 C831 0.961 . S
H847 C831 0.960 . S
C848 C849 1.391 . S
C848 C850 1.394 . S
C848 H864 0.931 . S
C849 C848 1.391 . S
C849 C853 1.376 . S
C850 C848 1.394 . S
C850 C851 1.369 . S
C850 C854 1.531 . S
C851 C850 1.369 . S
C851 C852 1.410 . S
C851 C859 1.503 . S
C852 C851 1.410 . S
C852 C853 1.392 . S
C852 C855 1.511 . S
C853 C849 1.376 . S
C853 C852 1.392 . S
C853 H865 0.929 . S
C854 C850 1.531 . S
C854 H866 0.960 . S
C854 H867 0.962 . S
C854 H868 0.960 . S
C855 C852 1.511 . S
C855 H869 0.961 . S
C855 H870 0.961 . S
C855 H871 0.961 . S
C856 C857 1.370 . S
C856 C858 1.363 . S
C856 H872 0.931 . S
C857 C856 1.370 . S
C857 C861 1.408 . S
C858 C856 1.363 . S
C858 C859 1.370 . S
C858 C862 1.524 . S
C859 C851 1.503 . S
C859 C858 1.370 . S
C859 C860 1.403 . S
C860 C859 1.403 . S
C860 C861 1.404 . S
C860 C863 1.539 . S
C861 C857 1.408 . S
C861 C860 1.404 . S
C861 H873 0.930 . S
C862 C858 1.524 . S
C862 H874 0.956 . S
C862 H875 0.961 . S
C862 H876 0.961 . S
C863 C860 1.539 . S
C863 H877 0.958 . S
C863 H878 0.961 . S
C863 H879 0.960 . S
H864 C848 0.931 . S
H865 C853 0.929 . S
H866 C854 0.960 . S
H867 C854 0.962 . S
H868 C854 0.960 . S
H869 C855 0.961 . S
H870 C855 0.961 . S
H871 C855 0.961 . S
H872 C856 0.931 . S
H873 C861 0.930 . S
H874 C862 0.956 . S
H875 C862 0.961 . S
H876 C862 0.961 . S
H877 C863 0.958 . S
H878 C863 0.961 . S
H879 C863 0.960 . S
C880 C881 1.391 . S
C880 C882 1.394 . S
C880 H896 0.931 . S
C881 C880 1.391 . S
C881 C885 1.376 . S
C882 C880 1.394 . S
C882 C883 1.369 . S
C882 C886 1.531 . S
C883 C882 1.369 . S
C883 C884 1.410 . S
C883 C891 1.503 . S
C884 C883 1.410 . S
C884 C885 1.392 . S
C884 C887 1.511 . S
C885 C881 1.376 . S
C885 C884 1.392 . S
C885 H897 0.929 1_565 S
C886 C882 1.531 . S
C886 H898 0.960 . S
C886 H899 0.962 . S
C886 H900 0.960 . S
C887 C884 1.511 . S
C887 H901 0.961 . S
C887 H902 0.961 . S
C887 H903 0.961 . S
C888 C889 1.370 . S
C888 C890 1.363 . S
C888 H904 0.931 . S
C889 C888 1.370 . S
C889 C893 1.408 . S
C890 C888 1.363 . S
C890 C891 1.370 . S
C890 C894 1.524 . S
C891 C883 1.503 . S
C891 C890 1.370 . S
C891 C892 1.403 . S
C892 C891 1.403 . S
C892 C893 1.404 . S
C892 C895 1.539 . S
C893 C889 1.408 . S
C893 C892 1.404 . S
C893 H905 0.930 . S
C894 C890 1.524 . S
C894 H906 0.956 . S
C894 H907 0.961 . S
C894 H908 0.961 . S
C895 C892 1.539 . S
C895 H909 0.958 . S
C895 H910 0.961 . S
C895 H911 0.960 . S
H896 C880 0.931 . S
H897 C885 0.929 1_545 S
H898 C886 0.960 . S
H899 C886 0.962 . S
H900 C886 0.960 . S
H901 C887 0.961 . S
H902 C887 0.961 . S
H903 C887 0.961 . S
H904 C888 0.931 . S
H905 C893 0.930 . S
H906 C894 0.956 . S
H907 C894 0.961 . S
H908 C894 0.961 . S
H909 C895 0.958 . S
H910 C895 0.961 . S
H911 C895 0.960 . S
C912 C913 1.391 . S
C912 C914 1.394 . S
C912 H928 0.931 . S
C913 C912 1.391 . S
C913 C917 1.376 . S
C914 C912 1.394 . S
C914 C915 1.369 . S
C914 C918 1.531 . S
C915 C914 1.369 . S
C915 C916 1.410 . S
C915 C923 1.503 . S
C916 C915 1.410 . S
C916 C917 1.392 . S
C916 C919 1.511 . S
C917 C913 1.376 . S
C917 C916 1.392 . S
C917 H929 0.929 . S
C918 C914 1.531 . S
C918 H930 0.960 . S
C918 H931 0.962 . S
C918 H932 0.960 . S
C919 C916 1.511 . S
C919 H933 0.961 . S
C919 H934 0.961 . S
C919 H935 0.961 . S
C920 C921 1.370 . S
C920 C922 1.363 . S
C920 H936 0.931 . S
C921 C920 1.370 . S
C921 C925 1.408 . S
C922 C920 1.363 . S
C922 C923 1.370 . S
C922 C926 1.524 . S
C923 C915 1.503 . S
C923 C922 1.370 . S
C923 C924 1.403 . S
C924 C923 1.403 . S
C924 C925 1.404 . S
C924 C927 1.539 . S
C925 C921 1.408 . S
C925 C924 1.404 . S
C925 H937 0.930 . S
C926 C922 1.524 . S
C926 H938 0.956 . S
C926 H939 0.961 . S
C926 H940 0.961 . S
C927 C924 1.539 . S
C927 H941 0.958 . S
C927 H942 0.961 . S
C927 H943 0.960 . S
H928 C912 0.931 . S
H929 C917 0.929 . S
H930 C918 0.960 . S
H931 C918 0.962 . S
H932 C918 0.960 . S
H933 C919 0.961 . S
H934 C919 0.961 . S
H935 C919 0.961 . S
H936 C920 0.931 . S
H937 C925 0.930 . S
H938 C926 0.956 . S
H939 C926 0.961 . S
H940 C926 0.961 . S
H941 C927 0.958 . S
H942 C927 0.961 . S
H943 C927 0.960 . S
C944 C945 1.391 . S
C944 C946 1.394 . S
C944 H960 0.931 . S
C945 C944 1.391 . S
C945 C949 1.376 . S
C946 C944 1.394 . S
C946 C947 1.369 . S
C946 C950 1.531 . S
C947 C946 1.369 . S
C947 C948 1.410 . S
C947 C955 1.503 . S
C948 C947 1.410 . S
C948 C949 1.392 . S
C948 C951 1.511 . S
C949 C945 1.376 . S
C949 C948 1.392 . S
C949 H961 0.929 . S
C950 C946 1.531 . S
C950 H962 0.960 . S
C950 H963 0.962 . S
C950 H964 0.960 . S
C951 C948 1.511 . S
C951 H965 0.961 . S
C951 H966 0.961 . S
C951 H967 0.961 . S
C952 C953 1.370 . S
C952 C954 1.363 . S
C952 H968 0.931 . S
C953 C952 1.370 . S
C953 C957 1.408 . S
C954 C952 1.363 . S
C954 C955 1.370 . S
C954 C958 1.524 . S
C955 C947 1.503 . S
C955 C954 1.370 . S
C955 C956 1.403 . S
C956 C955 1.403 . S
C956 C957 1.404 . S
C956 C959 1.539 . S
C957 C953 1.408 . S
C957 C956 1.404 . S
C957 H969 0.930 . S
C958 C954 1.524 . S
C958 H970 0.956 . S
C958 H971 0.961 . S
C958 H972 0.961 . S
C959 C956 1.539 . S
C959 H973 0.958 . S
C959 H974 0.961 . S
C959 H975 0.960 . S
H960 C944 0.931 . S
H961 C949 0.929 . S
H962 C950 0.960 . S
H963 C950 0.962 . S
H964 C950 0.960 . S
H965 C951 0.961 . S
H966 C951 0.961 . S
H967 C951 0.961 . S
H968 C952 0.931 . S
H969 C957 0.930 . S
H970 C958 0.956 . S
H971 C958 0.961 . S
H972 C958 0.961 . S
H973 C959 0.958 . S
H974 C959 0.961 . S
H975 C959 0.960 . S
C976 C977 1.391 . S
C976 C978 1.394 . S
C976 H992 0.931 . S
C977 C976 1.391 . S
C977 C981 1.376 . S
C978 C976 1.394 . S
C978 C979 1.369 . S
C978 C982 1.531 . S
C979 C978 1.369 . S
C979 C980 1.410 . S
C979 C987 1.503 . S
C980 C979 1.410 . S
C980 C981 1.392 . S
C980 C983 1.511 . S
C981 C977 1.376 . S
C981 C980 1.392 . S
C981 H993 0.929 . S
C982 C978 1.531 . S
C982 H994 0.960 . S
C982 H995 0.962 . S
C982 H996 0.960 . S
C983 C980 1.511 . S
C983 H997 0.961 . S
C983 H998 0.961 . S
C983 H999 0.961 . S
C984 C985 1.370 . S
C984 C986 1.363 . S
C984 H1000 0.931 . S
C985 C984 1.370 . S
C985 C989 1.408 . S
C986 C984 1.363 . S
C986 C987 1.370 . S
C986 C990 1.524 . S
C987 C979 1.503 . S
C987 C986 1.370 . S
C987 C988 1.403 . S
C988 C987 1.403 . S
C988 C989 1.404 . S
C988 C991 1.539 . S
C989 C985 1.408 . S
C989 C988 1.404 . S
C989 H1001 0.930 . S
C990 C986 1.524 . S
C990 H1002 0.956 . S
C990 H1003 0.961 . S
C990 H1004 0.961 . S
C991 C988 1.539 . S
C991 H1005 0.958 . S
C991 H1006 0.961 . S
C991 H1007 0.960 . S
H992 C976 0.931 . S
H993 C981 0.929 . S
H994 C982 0.960 . S
H995 C982 0.962 . S
H996 C982 0.960 . S
H997 C983 0.961 . S
H998 C983 0.961 . S
H999 C983 0.961 . S
H1000 C984 0.931 . S
H1001 C989 0.930 . S
H1002 C990 0.956 . S
H1003 C990 0.961 . S
H1004 C990 0.961 . S
H1005 C991 0.958 . S
H1006 C991 0.961 . S
H1007 C991 0.960 . S
C1008 C1009 1.391 . S
C1008 C1010 1.394 . S
C1008 H1024 0.931 . S
C1009 C1008 1.391 . S
C1009 C1013 1.376 . S
C1010 C1008 1.394 . S
C1010 C1011 1.369 . S
C1010 C1014 1.531 . S
C1011 C1010 1.369 . S
C1011 C1012 1.410 . S
C1011 C1019 1.503 . S
C1012 C1011 1.410 . S
C1012 C1013 1.392 . S
C1012 C1015 1.511 . S
C1013 C1009 1.376 . S
C1013 C1012 1.392 . S
C1013 H1025 0.929 . S
C1014 C1010 1.531 . S
C1014 H1026 0.960 . S
C1014 H1027 0.962 . S
C1014 H1028 0.960 . S
C1015 C1012 1.511 . S
C1015 H1029 0.961 . S
C1015 H1030 0.961 . S
C1015 H1031 0.961 . S
C1016 C1017 1.370 . S
C1016 C1018 1.363 . S
C1016 H1032 0.931 . S
C1017 C1016 1.370 . S
C1017 C1021 1.408 . S
C1018 C1016 1.363 . S
C1018 C1019 1.370 . S
C1018 C1022 1.524 . S
C1019 C1011 1.503 . S
C1019 C1018 1.370 . S
C1019 C1020 1.403 . S
C1020 C1019 1.403 . S
C1020 C1021 1.404 . S
C1020 C1023 1.539 . S
C1021 C1017 1.408 . S
C1021 C1020 1.404 . S
C1021 H1033 0.930 . S
C1022 C1018 1.524 . S
C1022 H1034 0.956 . S
C1022 H1035 0.961 . S
C1022 H1036 0.961 . S
C1023 C1020 1.539 . S
C1023 H1037 0.958 . S
C1023 H1038 0.961 . S
C1023 H1039 0.960 . S
H1024 C1008 0.931 . S
H1025 C1013 0.929 . S
H1026 C1014 0.960 . S
H1027 C1014 0.962 . S
H1028 C1014 0.960 . S
H1029 C1015 0.961 . S
H1030 C1015 0.961 . S
H1031 C1015 0.961 . S
H1032 C1016 0.931 . S
H1033 C1021 0.930 . S
H1034 C1022 0.956 . S
H1035 C1022 0.961 . S
H1036 C1022 0.961 . S
H1037 C1023 0.958 . S
H1038 C1023 0.961 . S
H1039 C1023 0.960 . S
C1040 C1041 1.391 . S
C1040 C1042 1.394 . S
C1040 H1056 0.931 . S
C1041 C1040 1.391 . S
C1041 C1045 1.376 . S
C1042 C1040 1.394 . S
C1042 C1043 1.369 . S
C1042 C1046 1.531 . S
C1043 C1042 1.369 . S
C1043 C1044 1.410 . S
C1043 C1051 1.503 . S
C1044 C1043 1.410 . S
C1044 C1045 1.392 . S
C1044 C1047 1.511 . S
C1045 C1041 1.376 . S
C1045 C1044 1.392 . S
C1045 H1057 0.929 . S
C1046 C1042 1.531 . S
C1046 H1058 0.960 . S
C1046 H1059 0.962 . S
C1046 H1060 0.960 . S
C1047 C1044 1.511 . S
C1047 H1061 0.961 . S
C1047 H1062 0.961 . S
C1047 H1063 0.961 . S
C1048 C1049 1.370 . S
C1048 C1050 1.363 . S
C1048 H1064 0.931 . S
C1049 C1048 1.370 . S
C1049 C1053 1.408 . S
C1050 C1048 1.363 . S
C1050 C1051 1.370 . S
C1050 C1054 1.524 . S
C1051 C1043 1.503 . S
C1051 C1050 1.370 . S
C1051 C1052 1.403 . S
C1052 C1051 1.403 . S
C1052 C1053 1.404 . S
C1052 C1055 1.539 . S
C1053 C1049 1.408 . S
C1053 C1052 1.404 . S
C1053 H1065 0.930 . S
C1054 C1050 1.524 . S
C1054 H1066 0.956 . S
C1054 H1067 0.961 . S
C1054 H1068 0.961 . S
C1055 C1052 1.539 . S
C1055 H1069 0.958 . S
C1055 H1070 0.961 . S
C1055 H1071 0.960 . S
H1056 C1040 0.931 . S
H1057 C1045 0.929 . S
H1058 C1046 0.960 . S
H1059 C1046 0.962 . S
H1060 C1046 0.960 . S
H1061 C1047 0.961 . S
H1062 C1047 0.961 . S
H1063 C1047 0.961 . S
H1064 C1048 0.931 . S
H1065 C1053 0.930 . S
H1066 C1054 0.956 . S
H1067 C1054 0.961 . S
H1068 C1054 0.961 . S
H1069 C1055 0.958 . S
H1070 C1055 0.961 . S
H1071 C1055 0.960 . S
C1072 C1073 1.391 . S
C1072 C1074 1.394 . S
C1072 H1088 0.931 . S
C1073 C1072 1.391 . S
C1073 C1077 1.376 . S
C1074 C1072 1.394 . S
C1074 C1075 1.369 . S
C1074 C1078 1.531 . S
C1075 C1074 1.369 . S
C1075 C1076 1.410 . S
C1075 C1083 1.503 . S
C1076 C1075 1.410 . S
C1076 C1077 1.392 . S
C1076 C1079 1.511 . S
C1077 C1073 1.376 . S
C1077 C1076 1.392 . S
C1077 H1089 0.929 . S
C1078 C1074 1.531 . S
C1078 H1090 0.960 . S
C1078 H1091 0.962 . S
C1078 H1092 0.960 . S
C1079 C1076 1.511 . S
C1079 H1093 0.961 . S
C1079 H1094 0.961 . S
C1079 H1095 0.961 . S
C1080 C1081 1.370 . S
C1080 C1082 1.363 . S
C1080 H1096 0.931 . S
C1081 C1080 1.370 . S
C1081 C1085 1.408 . S
C1082 C1080 1.363 . S
C1082 C1083 1.370 . S
C1082 C1086 1.524 . S
C1083 C1075 1.503 . S
C1083 C1082 1.370 . S
C1083 C1084 1.403 . S
C1084 C1083 1.403 . S
C1084 C1085 1.404 . S
C1084 C1087 1.539 . S
C1085 C1081 1.408 . S
C1085 C1084 1.404 . S
C1085 H1097 0.930 . S
C1086 C1082 1.524 . S
C1086 H1098 0.956 . S
C1086 H1099 0.961 . S
C1086 H1100 0.961 . S
C1087 C1084 1.539 . S
C1087 H1101 0.958 . S
C1087 H1102 0.961 . S
C1087 H1103 0.960 . S
H1088 C1072 0.931 . S
H1089 C1077 0.929 . S
H1090 C1078 0.960 . S
H1091 C1078 0.962 . S
H1092 C1078 0.960 . S
H1093 C1079 0.961 . S
H1094 C1079 0.961 . S
H1095 C1079 0.961 . S
H1096 C1080 0.931 . S
H1097 C1085 0.930 . S
H1098 C1086 0.956 . S
H1099 C1086 0.961 . S
H1100 C1086 0.961 . S
H1101 C1087 0.958 . S
H1102 C1087 0.961 . S
H1103 C1087 0.960 . S
C1104 C1105 1.391 . S
C1104 C1106 1.394 . S
C1104 H1120 0.931 . S
C1105 C1104 1.391 . S
C1105 C1109 1.376 . S
C1106 C1104 1.394 . S
C1106 C1107 1.369 . S
C1106 C1110 1.531 . S
C1107 C1106 1.369 . S
C1107 C1108 1.410 . S
C1107 C1115 1.503 . S
C1108 C1107 1.410 . S
C1108 C1109 1.392 . S
C1108 C1111 1.511 . S
C1109 C1105 1.376 . S
C1109 C1108 1.392 . S
C1109 H1121 0.929 . S
C1110 C1106 1.531 . S
C1110 H1122 0.960 . S
C1110 H1123 0.962 . S
C1110 H1124 0.960 . S
C1111 C1108 1.511 . S
C1111 H1125 0.961 . S
C1111 H1126 0.961 . S
C1111 H1127 0.961 . S
C1112 C1113 1.370 . S
C1112 C1114 1.363 . S
C1112 H1128 0.931 . S
C1113 C1112 1.370 . S
C1113 C1117 1.408 . S
C1114 C1112 1.363 . S
C1114 C1115 1.370 . S
C1114 C1118 1.524 . S
C1115 C1107 1.503 . S
C1115 C1114 1.370 . S
C1115 C1116 1.403 . S
C1116 C1115 1.403 . S
C1116 C1117 1.404 . S
C1116 C1119 1.539 . S
C1117 C1113 1.408 . S
C1117 C1116 1.404 . S
C1117 H1129 0.930 . S
C1118 C1114 1.524 . S
C1118 H1130 0.956 . S
C1118 H1131 0.961 . S
C1118 H1132 0.961 . S
C1119 C1116 1.539 . S
C1119 H1133 0.958 . S
C1119 H1134 0.961 . S
C1119 H1135 0.960 . S
H1120 C1104 0.931 . S
H1121 C1109 0.929 . S
H1122 C1110 0.960 . S
H1123 C1110 0.962 . S
H1124 C1110 0.960 . S
H1125 C1111 0.961 . S
H1126 C1111 0.961 . S
H1127 C1111 0.961 . S
H1128 C1112 0.931 . S
H1129 C1117 0.930 . S
H1130 C1118 0.956 . S
H1131 C1118 0.961 . S
H1132 C1118 0.961 . S
H1133 C1119 0.958 . S
H1134 C1119 0.961 . S
H1135 C1119 0.960 . S
C1136 C1137 1.391 . S
C1136 C1138 1.394 . S
C1136 H1152 0.931 . S
C1137 C1136 1.391 . S
C1137 C1141 1.376 . S
C1138 C1136 1.394 . S
C1138 C1139 1.369 . S
C1138 C1142 1.531 . S
C1139 C1138 1.369 . S
C1139 C1140 1.410 . S
C1139 C1147 1.503 . S
C1140 C1139 1.410 . S
C1140 C1141 1.392 . S
C1140 C1143 1.511 . S
C1141 C1137 1.376 . S
C1141 C1140 1.392 . S
C1141 H1153 0.929 . S
C1142 C1138 1.531 . S
C1142 H1154 0.960 . S
C1142 H1155 0.962 . S
C1142 H1156 0.960 . S
C1143 C1140 1.511 . S
C1143 H1157 0.961 . S
C1143 H1158 0.961 . S
C1143 H1159 0.961 . S
C1144 C1145 1.370 . S
C1144 C1146 1.363 . S
C1144 H1160 0.931 . S
C1145 C1144 1.370 . S
C1145 C1149 1.408 . S
C1146 C1144 1.363 . S
C1146 C1147 1.370 . S
C1146 C1150 1.524 . S
C1147 C1139 1.503 . S
C1147 C1146 1.370 . S
C1147 C1148 1.403 . S
C1148 C1147 1.403 . S
C1148 C1149 1.404 . S
C1148 C1151 1.539 . S
C1149 C1145 1.408 . S
C1149 C1148 1.404 . S
C1149 H1161 0.930 . S
C1150 C1146 1.524 . S
C1150 H1162 0.956 . S
C1150 H1163 0.961 . S
C1150 H1164 0.961 . S
C1151 C1148 1.539 . S
C1151 H1165 0.958 . S
C1151 H1166 0.961 . S
C1151 H1167 0.960 . S
H1152 C1136 0.931 . S
H1153 C1141 0.929 . S
H1154 C1142 0.960 . S
H1155 C1142 0.962 . S
H1156 C1142 0.960 . S
H1157 C1143 0.961 . S
H1158 C1143 0.961 . S
H1159 C1143 0.961 . S
H1160 C1144 0.931 . S
H1161 C1149 0.930 . S
H1162 C1150 0.956 . S
H1163 C1150 0.961 . S
H1164 C1150 0.961 . S
H1165 C1151 0.958 . S
H1166 C1151 0.961 . S
H1167 C1151 0.960 . S
C1168 C1169 1.391 . S
C1168 C1170 1.394 . S
C1168 H1184 0.931 . S
C1169 C1168 1.391 . S
C1169 C1173 1.376 . S
C1170 C1168 1.394 . S
C1170 C1171 1.369 . S
C1170 C1174 1.531 . S
C1171 C1170 1.369 . S
C1171 C1172 1.410 . S
C1171 C1179 1.503 . S
C1172 C1171 1.410 . S
C1172 C1173 1.392 . S
C1172 C1175 1.511 . S
C1173 C1169 1.376 . S
C1173 C1172 1.392 . S
C1173 H1185 0.929 . S
C1174 C1170 1.531 . S
C1174 H1186 0.960 . S
C1174 H1187 0.962 . S
C1174 H1188 0.960 . S
C1175 C1172 1.511 . S
C1175 H1189 0.961 . S
C1175 H1190 0.961 . S
C1175 H1191 0.961 . S
C1176 C1177 1.370 . S
C1176 C1178 1.363 . S
C1176 H1192 0.931 . S
C1177 C1176 1.370 . S
C1177 C1181 1.408 . S
C1178 C1176 1.363 . S
C1178 C1179 1.370 . S
C1178 C1182 1.524 . S
C1179 C1171 1.503 . S
C1179 C1178 1.370 . S
C1179 C1180 1.403 . S
C1180 C1179 1.403 . S
C1180 C1181 1.404 . S
C1180 C1183 1.539 . S
C1181 C1177 1.408 . S
C1181 C1180 1.404 . S
C1181 H1193 0.930 . S
C1182 C1178 1.524 . S
C1182 H1194 0.956 . S
C1182 H1195 0.961 . S
C1182 H1196 0.961 . S
C1183 C1180 1.539 . S
C1183 H1197 0.958 . S
C1183 H1198 0.961 . S
C1183 H1199 0.960 . S
H1184 C1168 0.931 . S
H1185 C1173 0.929 . S
H1186 C1174 0.960 . S
H1187 C1174 0.962 . S
H1188 C1174 0.960 . S
H1189 C1175 0.961 . S
H1190 C1175 0.961 . S
H1191 C1175 0.961 . S
H1192 C1176 0.931 . S
H1193 C1181 0.930 . S
H1194 C1182 0.956 . S
H1195 C1182 0.961 . S
H1196 C1182 0.961 . S
H1197 C1183 0.958 . S
H1198 C1183 0.961 . S
H1199 C1183 0.960 . S
C1200 C1201 1.391 . S
C1200 C1202 1.394 . S
C1200 H1216 0.931 . S
C1201 C1200 1.391 . S
C1201 C1205 1.376 . S
C1202 C1200 1.394 . S
C1202 C1203 1.369 . S
C1202 C1206 1.531 . S
C1203 C1202 1.369 . S
C1203 C1204 1.410 . S
C1203 C1211 1.503 . S
C1204 C1203 1.410 . S
C1204 C1205 1.392 . S
C1204 C1207 1.511 . S
C1205 C1201 1.376 . S
C1205 C1204 1.392 . S
C1205 H1217 0.929 . S
C1206 C1202 1.531 . S
C1206 H1218 0.960 . S
C1206 H1219 0.962 . S
C1206 H1220 0.960 . S
C1207 C1204 1.511 . S
C1207 H1221 0.961 . S
C1207 H1222 0.961 . S
C1207 H1223 0.961 . S
C1208 C1209 1.370 . S
C1208 C1210 1.363 . S
C1208 H1224 0.931 . S
C1209 C1208 1.370 . S
C1209 C1213 1.408 . S
C1210 C1208 1.363 . S
C1210 C1211 1.370 . S
C1210 C1214 1.524 . S
C1211 C1203 1.503 . S
C1211 C1210 1.370 . S
C1211 C1212 1.403 . S
C1212 C1211 1.403 . S
C1212 C1213 1.404 . S
C1212 C1215 1.539 . S
C1213 C1209 1.408 . S
C1213 C1212 1.404 . S
C1213 H1225 0.930 . S
C1214 C1210 1.524 . S
C1214 H1226 0.956 . S
C1214 H1227 0.961 . S
C1214 H1228 0.961 . S
C1215 C1212 1.539 . S
C1215 H1229 0.958 . S
C1215 H1230 0.961 . S
C1215 H1231 0.960 . S
H1216 C1200 0.931 . S
H1217 C1205 0.929 . S
H1218 C1206 0.960 . S
H1219 C1206 0.962 . S
H1220 C1206 0.960 . S
H1221 C1207 0.961 . S
H1222 C1207 0.961 . S
H1223 C1207 0.961 . S
H1224 C1208 0.931 . S
H1225 C1213 0.930 . S
H1226 C1214 0.956 . S
H1227 C1214 0.961 . S
H1228 C1214 0.961 . S
H1229 C1215 0.958 . S
H1230 C1215 0.961 . S
H1231 C1215 0.960 . S
C1232 C1233 1.391 . S
C1232 C1234 1.394 . S
C1232 H1248 0.931 . S
C1233 C1232 1.391 . S
C1233 C1237 1.376 . S
C1234 C1232 1.394 . S
C1234 C1235 1.369 . S
C1234 C1238 1.531 . S
C1235 C1234 1.369 . S
C1235 C1236 1.410 . S
C1235 C1243 1.503 . S
C1236 C1235 1.410 . S
C1236 C1237 1.392 . S
C1236 C1239 1.511 . S
C1237 C1233 1.376 . S
C1237 C1236 1.392 . S
C1237 H1249 0.929 . S
C1238 C1234 1.531 . S
C1238 H1250 0.960 . S
C1238 H1251 0.962 . S
C1238 H1252 0.960 . S
C1239 C1236 1.511 . S
C1239 H1253 0.961 . S
C1239 H1254 0.961 . S
C1239 H1255 0.961 . S
C1240 C1241 1.370 . S
C1240 C1242 1.363 . S
C1240 H1256 0.931 . S
C1241 C1240 1.370 . S
C1241 C1245 1.408 . S
C1242 C1240 1.363 . S
C1242 C1243 1.370 . S
C1242 C1246 1.524 . S
C1243 C1235 1.503 . S
C1243 C1242 1.370 . S
C1243 C1244 1.403 . S
C1244 C1243 1.403 . S
C1244 C1245 1.404 . S
C1244 C1247 1.539 . S
C1245 C1241 1.408 . S
C1245 C1244 1.404 . S
C1245 H1257 0.930 . S
C1246 C1242 1.524 . S
C1246 H1258 0.956 . S
C1246 H1259 0.961 . S
C1246 H1260 0.961 . S
C1247 C1244 1.539 . S
C1247 H1261 0.958 . S
C1247 H1262 0.961 . S
C1247 H1263 0.960 . S
H1248 C1232 0.931 . S
H1249 C1237 0.929 . S
H1250 C1238 0.960 . S
H1251 C1238 0.962 . S
H1252 C1238 0.960 . S
H1253 C1239 0.961 . S
H1254 C1239 0.961 . S
H1255 C1239 0.961 . S
H1256 C1240 0.931 . S
H1257 C1245 0.930 . S
H1258 C1246 0.956 . S
H1259 C1246 0.961 . S
H1260 C1246 0.961 . S
H1261 C1247 0.958 . S
H1262 C1247 0.961 . S
H1263 C1247 0.960 . S
C1264 C1265 1.391 . S
C1264 C1266 1.394 . S
C1264 H1280 0.931 . S
C1265 C1264 1.391 . S
C1265 C1269 1.376 . S
C1266 C1264 1.394 . S
C1266 C1267 1.369 . S
C1266 C1270 1.531 . S
C1267 C1266 1.369 . S
C1267 C1268 1.410 . S
C1267 C1275 1.503 . S
C1268 C1267 1.410 . S
C1268 C1269 1.392 . S
C1268 C1271 1.511 . S
C1269 C1265 1.376 . S
C1269 C1268 1.392 . S
C1269 H1281 0.929 . S
C1270 C1266 1.531 . S
C1270 H1282 0.960 . S
C1270 H1283 0.962 . S
C1270 H1284 0.960 . S
C1271 C1268 1.511 . S
C1271 H1285 0.961 . S
C1271 H1286 0.961 . S
C1271 H1287 0.961 . S
C1272 C1273 1.370 . S
C1272 C1274 1.363 . S
C1272 H1288 0.931 . S
C1273 C1272 1.370 . S
C1273 C1277 1.408 . S
C1274 C1272 1.363 . S
C1274 C1275 1.370 . S
C1274 C1278 1.524 . S
C1275 C1267 1.503 . S
C1275 C1274 1.370 . S
C1275 C1276 1.403 . S
C1276 C1275 1.403 . S
C1276 C1277 1.404 . S
C1276 C1279 1.539 . S
C1277 C1273 1.408 . S
C1277 C1276 1.404 . S
C1277 H1289 0.930 . S
C1278 C1274 1.524 . S
C1278 H1290 0.956 . S
C1278 H1291 0.961 . S
C1278 H1292 0.961 1_655 S
C1279 C1276 1.539 . S
C1279 H1293 0.958 . S
C1279 H1294 0.961 . S
C1279 H1295 0.960 . S
H1280 C1264 0.931 . S
H1281 C1269 0.929 . S
H1282 C1270 0.960 . S
H1283 C1270 0.962 . S
H1284 C1270 0.960 . S
H1285 C1271 0.961 . S
H1286 C1271 0.961 . S
H1287 C1271 0.961 . S
H1288 C1272 0.931 . S
H1289 C1277 0.930 . S
H1290 C1278 0.956 . S
H1291 C1278 0.961 . S
H1292 C1278 0.961 1_455 S
H1293 C1279 0.958 . S
H1294 C1279 0.961 . S
H1295 C1279 0.960 . S
C1296 C1297 1.391 . S
C1296 C1298 1.394 . S
C1296 H1312 0.931 . S
C1297 C1296 1.391 . S
C1297 C1301 1.376 . S
C1298 C1296 1.394 . S
C1298 C1299 1.369 . S
C1298 C1302 1.531 . S
C1299 C1298 1.369 . S
C1299 C1300 1.410 . S
C1299 C1307 1.503 . S
C1300 C1299 1.410 . S
C1300 C1301 1.392 . S
C1300 C1303 1.511 . S
C1301 C1297 1.376 . S
C1301 C1300 1.392 . S
C1301 H1313 0.929 . S
C1302 C1298 1.531 . S
C1302 H1314 0.960 . S
C1302 H1315 0.962 . S
C1302 H1316 0.960 . S
C1303 C1300 1.511 . S
C1303 H1317 0.961 . S
C1303 H1318 0.961 . S
C1303 H1319 0.961 . S
C1304 C1305 1.370 . S
C1304 C1306 1.363 . S
C1304 H1320 0.931 . S
C1305 C1304 1.370 . S
C1305 C1309 1.408 . S
C1306 C1304 1.363 . S
C1306 C1307 1.370 . S
C1306 C1310 1.524 . S
C1307 C1299 1.503 . S
C1307 C1306 1.370 . S
C1307 C1308 1.403 . S
C1308 C1307 1.403 . S
C1308 C1309 1.404 . S
C1308 C1311 1.539 . S
C1309 C1305 1.408 . S
C1309 C1308 1.404 . S
C1309 H1321 0.930 . S
C1310 C1306 1.524 . S
C1310 H1322 0.956 . S
C1310 H1323 0.961 . S
C1310 H1324 0.961 . S
C1311 C1308 1.539 . S
C1311 H1325 0.958 . S
C1311 H1326 0.961 . S
C1311 H1327 0.960 . S
H1312 C1296 0.931 . S
H1313 C1301 0.929 . S
H1314 C1302 0.960 . S
H1315 C1302 0.962 . S
H1316 C1302 0.960 . S
H1317 C1303 0.961 . S
H1318 C1303 0.961 . S
H1319 C1303 0.961 . S
H1320 C1304 0.931 . S
H1321 C1309 0.930 . S
H1322 C1310 0.956 . S
H1323 C1310 0.961 . S
H1324 C1310 0.961 . S
H1325 C1311 0.958 . S
H1326 C1311 0.961 . S
H1327 C1311 0.960 . S
C1328 C1329 1.391 . S
C1328 C1330 1.394 . S
C1328 H1344 0.931 . S
C1329 C1328 1.391 . S
C1329 C1333 1.376 . S
C1330 C1328 1.394 . S
C1330 C1331 1.369 . S
C1330 C1334 1.531 . S
C1331 C1330 1.369 . S
C1331 C1332 1.410 . S
C1331 C1339 1.503 . S
C1332 C1331 1.410 . S
C1332 C1333 1.392 . S
C1332 C1335 1.511 . S
C1333 C1329 1.376 . S
C1333 C1332 1.392 . S
C1333 H1345 0.929 . S
C1334 C1330 1.531 . S
C1334 H1346 0.960 . S
C1334 H1347 0.962 . S
C1334 H1348 0.960 . S
C1335 C1332 1.511 . S
C1335 H1349 0.961 . S
C1335 H1350 0.961 . S
C1335 H1351 0.961 . S
C1336 C1337 1.370 . S
C1336 C1338 1.363 . S
C1336 H1352 0.931 . S
C1337 C1336 1.370 . S
C1337 C1341 1.408 . S
C1338 C1336 1.363 . S
C1338 C1339 1.370 . S
C1338 C1342 1.524 . S
C1339 C1331 1.503 . S
C1339 C1338 1.370 . S
C1339 C1340 1.403 . S
C1340 C1339 1.403 . S
C1340 C1341 1.404 . S
C1340 C1343 1.539 . S
C1341 C1337 1.408 . S
C1341 C1340 1.404 . S
C1341 H1353 0.930 . S
C1342 C1338 1.524 . S
C1342 H1354 0.956 . S
C1342 H1355 0.961 . S
C1342 H1356 0.961 . S
C1343 C1340 1.539 . S
C1343 H1357 0.958 . S
C1343 H1358 0.961 . S
C1343 H1359 0.960 . S
H1344 C1328 0.931 . S
H1345 C1333 0.929 . S
H1346 C1334 0.960 . S
H1347 C1334 0.962 . S
H1348 C1334 0.960 . S
H1349 C1335 0.961 . S
H1350 C1335 0.961 . S
H1351 C1335 0.961 . S
H1352 C1336 0.931 . S
H1353 C1341 0.930 . S
H1354 C1342 0.956 . S
H1355 C1342 0.961 . S
H1356 C1342 0.961 . S
H1357 C1343 0.958 . S
H1358 C1343 0.961 . S
H1359 C1343 0.960 . S
C1360 C1361 1.391 . S
C1360 C1362 1.394 . S
C1360 H1376 0.931 . S
C1361 C1360 1.391 . S
C1361 C1365 1.376 . S
C1362 C1360 1.394 . S
C1362 C1363 1.369 . S
C1362 C1366 1.531 . S
C1363 C1362 1.369 . S
C1363 C1364 1.410 . S
C1363 C1371 1.503 . S
C1364 C1363 1.410 . S
C1364 C1365 1.392 . S
C1364 C1367 1.511 . S
C1365 C1361 1.376 . S
C1365 C1364 1.392 . S
C1365 H1377 0.929 . S
C1366 C1362 1.531 . S
C1366 H1378 0.960 . S
C1366 H1379 0.962 . S
C1366 H1380 0.960 . S
C1367 C1364 1.511 . S
C1367 H1381 0.961 . S
C1367 H1382 0.961 . S
C1367 H1383 0.961 . S
C1368 C1369 1.370 . S
C1368 C1370 1.363 . S
C1368 H1384 0.931 . S
C1369 C1368 1.370 . S
C1369 C1373 1.408 . S
C1370 C1368 1.363 . S
C1370 C1371 1.370 . S
C1370 C1374 1.524 . S
C1371 C1363 1.503 . S
C1371 C1370 1.370 . S
C1371 C1372 1.403 . S
C1372 C1371 1.403 . S
C1372 C1373 1.404 . S
C1372 C1375 1.539 . S
C1373 C1369 1.408 . S
C1373 C1372 1.404 . S
C1373 H1385 0.930 . S
C1374 C1370 1.524 . S
C1374 H1386 0.956 . S
C1374 H1387 0.961 . S
C1374 H1388 0.961 . S
C1375 C1372 1.539 . S
C1375 H1389 0.958 . S
C1375 H1390 0.961 . S
C1375 H1391 0.960 . S
H1376 C1360 0.931 . S
H1377 C1365 0.929 . S
H1378 C1366 0.960 . S
H1379 C1366 0.962 . S
H1380 C1366 0.960 . S
H1381 C1367 0.961 . S
H1382 C1367 0.961 . S
H1383 C1367 0.961 . S
H1384 C1368 0.931 . S
H1385 C1373 0.930 . S
H1386 C1374 0.956 . S
H1387 C1374 0.961 . S
H1388 C1374 0.961 . S
H1389 C1375 0.958 . S
H1390 C1375 0.961 . S
H1391 C1375 0.960 . S
C1392 C1393 1.391 . S
C1392 C1394 1.394 . S
C1392 H1408 0.931 . S
C1393 C1392 1.391 . S
C1393 C1397 1.376 . S
C1394 C1392 1.394 . S
C1394 C1395 1.369 . S
C1394 C1398 1.531 . S
C1395 C1394 1.369 . S
C1395 C1396 1.410 . S
C1395 C1403 1.503 . S
C1396 C1395 1.410 . S
C1396 C1397 1.392 . S
C1396 C1399 1.511 . S
C1397 C1393 1.376 . S
C1397 C1396 1.392 . S
C1397 H1409 0.929 . S
C1398 C1394 1.531 . S
C1398 H1410 0.960 . S
C1398 H1411 0.962 . S
C1398 H1412 0.960 . S
C1399 C1396 1.511 . S
C1399 H1413 0.961 . S
C1399 H1414 0.961 . S
C1399 H1415 0.961 . S
C1400 C1401 1.370 . S
C1400 C1402 1.363 . S
C1400 H1416 0.931 . S
C1401 C1400 1.370 . S
C1401 C1405 1.408 . S
C1402 C1400 1.363 . S
C1402 C1403 1.370 . S
C1402 C1406 1.524 . S
C1403 C1395 1.503 . S
C1403 C1402 1.370 . S
C1403 C1404 1.403 . S
C1404 C1403 1.403 . S
C1404 C1405 1.404 . S
C1404 C1407 1.539 . S
C1405 C1401 1.408 . S
C1405 C1404 1.404 . S
C1405 H1417 0.930 . S
C1406 C1402 1.524 . S
C1406 H1418 0.956 . S
C1406 H1419 0.961 . S
C1406 H1420 0.961 . S
C1407 C1404 1.539 . S
C1407 H1421 0.958 . S
C1407 H1422 0.961 . S
C1407 H1423 0.960 . S
H1408 C1392 0.931 . S
H1409 C1397 0.929 . S
H1410 C1398 0.960 . S
H1411 C1398 0.962 . S
H1412 C1398 0.960 . S
H1413 C1399 0.961 . S
H1414 C1399 0.961 . S
H1415 C1399 0.961 . S
H1416 C1400 0.931 . S
H1417 C1405 0.930 . S
H1418 C1406 0.956 . S
H1419 C1406 0.961 . S
H1420 C1406 0.961 . S
H1421 C1407 0.958 . S
H1422 C1407 0.961 . S
H1423 C1407 0.960 . S
C657 C242 1.435 1_545 S
C665 C376 1.478 . S
C697 C460 1.482 . S
C689 C301 1.485 . S
C729 C459 1.494 . S
C721 C162 1.424 . S
C753 C221 1.486 . S
C761 C375 1.489 . S
C793 C556 1.489 . S
C785 C82 1.499 1_565 S
C825 C640 1.481 . S
C817 C141 1.488 . S
C849 C2 1.497 . S
C857 C639 1.488 . S
C881 C61 1.468 1_565 S
C889 C555 1.480 . S
C921 C378 1.357 . S
C913 C42 1.480 . S
C953 C462 1.315 . S
C945 C21 1.523 . S
C985 C474 1.404 . S
C977 C122 1.538 . S
C1017 C390 1.420 . S
C1009 C101 1.542 . S
C1049 C558 1.337 . S
C1041 C202 1.529 . S
C1073 C181 1.491 . S
C1081 C642 1.346 . S
C1113 C630 1.423 . S
C1105 C282 1.550 . S
C1137 C261 1.528 . S
C1145 C546 1.415 . S
C1177 C387 1.611 . S
C1169 C15 1.614 . S
C1209 C471 1.603 . S
C1201 C55 1.574 . S
C1233 C95 1.599 . S
C1241 C472 1.593 . S
C1273 C388 1.572 . S
C1265 C135 1.560 . S
C1305 C543 1.613 . S
C1297 C175 1.599 . S
C1329 C215 1.585 . S
C1337 C627 1.603 . S
C1361 C255 1.587 . S
C1369 C628 1.593 . S
C1393 C295 1.578 . S
C1401 C544 1.579 . S
