# Generated by pormake.
# Topology ocu, (6,8)-cn, num edge types: 1
# Building blocks:
#     Node 0, Type 0, BuildingBlock: FUNLAD_clean_sbu_0, # of connection points: 6
#     Node 1, Type 0, BuildingBlock: FUNLAD_clean_sbu_0, # of connection points: 6
#     Node 2, Type 0, BuildingBlock: FUNLAD_clean_sbu_0, # of connection points: 6
#     Node 3, Type 0, BuildingBlock: FUNLAD_clean_sbu_0, # of connection points: 6
#     Node 4, Type 0, BuildingBlock: FUNLAD_clean_sbu_0, # of connection points: 6
#     Node 5, Type 0, BuildingBlock: FUNLAD_clean_sbu_0, # of connection points: 6
#     Node 6, Type 0, BuildingBlock: FUNLAD_clean_sbu_0, # of connection points: 6
#     Node 7, Type 0, BuildingBlock: FUNLAD_clean_sbu_0, # of connection points: 6
#     Node 8, Type 1, BuildingBlock: VETTIZ_charged_sbu_0, # of connection points: 8
#     Node 9, Type 1, BuildingBlock: VETTIZ_charged_sbu_0, # of connection points: 8
#     Node 10, Type 1, BuildingBlock: VETTIZ_charged_sbu_0, # of connection points: 8
#     Node 11, Type 1, BuildingBlock: VETTIZ_charged_sbu_0, # of connection points: 8
#     Node 12, Type 1, BuildingBlock: VETTIZ_charged_sbu_0, # of connection points: 8
#     Node 13, Type 1, BuildingBlock: VETTIZ_charged_sbu_0, # of connection points: 8
#     Edge 14, Type (0, 1), BuildingBlock: TEMPAE_clean_linker_10, # of connection points: 2
#     Edge 15, Type (0, 1), BuildingBlock: TEMPAE_clean_linker_10, # of connection points: 2
#     Edge 16, Type (0, 1), BuildingBlock: TEMPAE_clean_linker_10, # of connection points: 2
#     Edge 17, Type (0, 1), BuildingBlock: TEMPAE_clean_linker_10, # of connection points: 2
#     Edge 18, Type (0, 1), BuildingBlock: TEMPAE_clean_linker_10, # of connection points: 2
#     Edge 19, Type (0, 1), BuildingBlock: TEMPAE_clean_linker_10, # of connection points: 2
#     Edge 20, Type (0, 1), BuildingBlock: TEMPAE_clean_linker_10, # of connection points: 2
#     Edge 21, Type (0, 1), BuildingBlock: TEMPAE_clean_linker_10, # of connection points: 2
#     Edge 22, Type (0, 1), BuildingBlock: TEMPAE_clean_linker_10, # of connection points: 2
#     Edge 23, Type (0, 1), BuildingBlock: TEMPAE_clean_linker_10, # of connection points: 2
#     Edge 24, Type (0, 1), BuildingBlock: TEMPAE_clean_linker_10, # of connection points: 2
#     Edge 25, Type (0, 1), BuildingBlock: TEMPAE_clean_linker_10, # of connection points: 2
#     Edge 26, Type (0, 1), BuildingBlock: TEMPAE_clean_linker_10, # of connection points: 2
#     Edge 27, Type (0, 1), BuildingBlock: TEMPAE_clean_linker_10, # of connection points: 2
#     Edge 28, Type (0, 1), BuildingBlock: TEMPAE_clean_linker_10, # of connection points: 2
#     Edge 29, Type (0, 1), BuildingBlock: TEMPAE_clean_linker_10, # of connection points: 2
#     Edge 30, Type (0, 1), BuildingBlock: TEMPAE_clean_linker_10, # of connection points: 2
#     Edge 31, Type (0, 1), BuildingBlock: TEMPAE_clean_linker_10, # of connection points: 2
#     Edge 32, Type (0, 1), BuildingBlock: TEMPAE_clean_linker_10, # of connection points: 2
#     Edge 33, Type (0, 1), BuildingBlock: TEMPAE_clean_linker_10, # of connection points: 2
#     Edge 34, Type (0, 1), BuildingBlock: TEMPAE_clean_linker_10, # of connection points: 2
#     Edge 35, Type (0, 1), BuildingBlock: TEMPAE_clean_linker_10, # of connection points: 2
#     Edge 36, Type (0, 1), BuildingBlock: TEMPAE_clean_linker_10, # of connection points: 2
#     Edge 37, Type (0, 1), BuildingBlock: TEMPAE_clean_linker_10, # of connection points: 2
#     Edge 38, Type (0, 1), BuildingBlock: TEMPAE_clean_linker_10, # of connection points: 2
#     Edge 39, Type (0, 1), BuildingBlock: TEMPAE_clean_linker_10, # of connection points: 2
#     Edge 40, Type (0, 1), BuildingBlock: TEMPAE_clean_linker_10, # of connection points: 2
#     Edge 41, Type (0, 1), BuildingBlock: TEMPAE_clean_linker_10, # of connection points: 2
#     Edge 42, Type (0, 1), BuildingBlock: TEMPAE_clean_linker_10, # of connection points: 2
#     Edge 43, Type (0, 1), BuildingBlock: TEMPAE_clean_linker_10, # of connection points: 2
#     Edge 44, Type (0, 1), BuildingBlock: TEMPAE_clean_linker_10, # of connection points: 2
#     Edge 45, Type (0, 1), BuildingBlock: TEMPAE_clean_linker_10, # of connection points: 2
#     Edge 46, Type (0, 1), BuildingBlock: TEMPAE_clean_linker_10, # of connection points: 2
#     Edge 47, Type (0, 1), BuildingBlock: TEMPAE_clean_linker_10, # of connection points: 2
#     Edge 48, Type (0, 1), BuildingBlock: TEMPAE_clean_linker_10, # of connection points: 2
#     Edge 49, Type (0, 1), BuildingBlock: TEMPAE_clean_linker_10, # of connection points: 2
#     Edge 50, Type (0, 1), BuildingBlock: TEMPAE_clean_linker_10, # of connection points: 2
#     Edge 51, Type (0, 1), BuildingBlock: TEMPAE_clean_linker_10, # of connection points: 2
#     Edge 52, Type (0, 1), BuildingBlock: TEMPAE_clean_linker_10, # of connection points: 2
#     Edge 53, Type (0, 1), BuildingBlock: TEMPAE_clean_linker_10, # of connection points: 2
#     Edge 54, Type (0, 1), BuildingBlock: TEMPAE_clean_linker_10, # of connection points: 2
#     Edge 55, Type (0, 1), BuildingBlock: TEMPAE_clean_linker_10, # of connection points: 2
#     Edge 56, Type (0, 1), BuildingBlock: TEMPAE_clean_linker_10, # of connection points: 2
#     Edge 57, Type (0, 1), BuildingBlock: TEMPAE_clean_linker_10, # of connection points: 2
#     Edge 58, Type (0, 1), BuildingBlock: TEMPAE_clean_linker_10, # of connection points: 2
#     Edge 59, Type (0, 1), BuildingBlock: TEMPAE_clean_linker_10, # of connection points: 2
#     Edge 60, Type (0, 1), BuildingBlock: TEMPAE_clean_linker_10, # of connection points: 2
#     Edge 61, Type (0, 1), BuildingBlock: TEMPAE_clean_linker_10, # of connection points: 2
# Relax obj value: 0.149
# Max RMSD: 0.261
# Mean RMSD: 0.155
data_MOF--net-ocu--node1-FUNLAD_clean_sbu_0--node2-VETTIZ_charged_sbu_0--edge1-TEMPAE_clean_linker_10
_symmetry_space_group_name_H-M    P1
_symmetry_Int_Tables_number       1
_symmetry_cell_setting            triclinic
loop_
_symmetry_equiv_pos_as_xyz
'x, y, z'
_cell_length_a     39.496043
_cell_length_b     39.364864
_cell_length_c     39.446717
_cell_angle_alpha  84.324342
_cell_angle_beta   84.482147
_cell_angle_gamma 81.507965
loop_
_atom_site_label
_atom_site_type_symbol
_atom_site_fract_x
_atom_site_fract_y
_atom_site_fract_z
_atom_type_partial_charge
C0 C 0.1965 0.26969 0.30593 0.0
N1 N 0.1887 0.18415 0.25174 0.0
C2 C 0.18266 0.1643 0.28117 0.0
C3 C 0.16284 0.13795 0.28171 0.0
C4 C 0.14823 0.13244 0.25193 0.0
C5 C 0.15438 0.15351 0.22194 0.0
C6 C 0.17537 0.1791 0.22228 0.0
Zn7 Zn 0.21996 0.22037 0.25222 0.0
C8 C 0.19735 0.28334 0.20681 0.0
N9 N 0.28674 0.29511 0.25046 0.0
C10 C 0.30148 0.30191 0.27847 0.0
C11 C 0.29625 0.30878 0.21862 0.0
C12 C 0.32245 0.32897 0.2137 0.0
C13 C 0.33925 0.33495 0.24173 0.0
C14 C 0.3282 0.32209 0.27463 0.0
Zn15 Zn 0.25409 0.25984 0.25234 0.0
O16 O 0.18922 0.24281 0.29432 0.0
C17 C 0.27668 0.19838 0.29846 0.0
O18 O 0.22262 0.28301 0.2925 0.0
H19 H 0.28458 0.30271 0.19669 0.0
H20 H 0.19318 0.16893 0.30432 0.0
H21 H 0.29352 0.29056 0.30353 0.0
O22 O 0.25148 0.18735 0.28739 0.0
O23 O 0.28315 0.22841 0.28795 0.0
H24 H 0.18096 0.19494 0.199 0.0
O25 O 0.28628 0.23517 0.21231 0.0
O26 O 0.25067 0.19783 0.21122 0.0
O27 O 0.22414 0.29216 0.21678 0.0
O28 O 0.18916 0.25387 0.21742 0.0
C29 C 0.27855 0.20892 0.20008 0.0
H30 H 0.15828 0.12259 0.30559 0.0
H31 H 0.14322 0.15015 0.19868 0.0
H32 H 0.33046 0.33883 0.18799 0.0
H33 H 0.34083 0.32648 0.29667 0.0
C34 C 0.71174 0.30191 0.23539 0.0
N35 N 0.73856 0.20486 0.20055 0.0
C36 C 0.70373 0.20662 0.20507 0.0
C37 C 0.68592 0.19068 0.18407 0.0
C38 C 0.70354 0.17312 0.15704 0.0
C39 C 0.73963 0.17108 0.15283 0.0
C40 C 0.75678 0.18731 0.17505 0.0
Zn41 Zn 0.75771 0.23245 0.23478 0.0
C42 C 0.80922 0.27781 0.20546 0.0
N43 N 0.78229 0.29453 0.30883 0.0
C44 C 0.75938 0.31435 0.32927 0.0
C45 C 0.81672 0.29336 0.31009 0.0
C46 C 0.82939 0.31258 0.33247 0.0
C47 C 0.80648 0.33343 0.35375 0.0
C48 C 0.77102 0.33432 0.35199 0.0
Zn49 Zn 0.76686 0.26618 0.27429 0.0
O50 O 0.71935 0.27369 0.22168 0.0
C51 C 0.71552 0.22189 0.30368 0.0
O52 O 0.72861 0.30769 0.25953 0.0
H53 H 0.83451 0.27775 0.29339 0.0
H54 H 0.68918 0.2209 0.22492 0.0
H55 H 0.73211 0.31488 0.32776 0.0
O56 O 0.7229 0.21203 0.27384 0.0
O57 O 0.73051 0.2457 0.31252 0.0
H58 H 0.78441 0.18628 0.17162 0.0
O59 O 0.80474 0.22436 0.28854 0.0
O60 O 0.79619 0.1908 0.24961 0.0
O61 O 0.80287 0.28631 0.23598 0.0
O62 O 0.79362 0.25453 0.19603 0.0
C63 C 0.81206 0.196 0.27486 0.0
H64 H 0.6583 0.19229 0.1891 0.0
H65 H 0.75431 0.15779 0.13226 0.0
H66 H 0.85693 0.31174 0.33252 0.0
H67 H 0.75259 0.35014 0.36803 0.0
C68 C 0.7947 0.70392 0.30552 0.0
N69 N 0.80324 0.80911 0.28801 0.0
C70 C 0.80072 0.80629 0.3228 0.0
C71 C 0.80857 0.83249 0.34052 0.0
C72 C 0.81955 0.86183 0.32242 0.0
C73 C 0.824 0.86347 0.28659 0.0
C74 C 0.81525 0.83668 0.26969 0.0
Zn75 Zn 0.78004 0.77429 0.2666 0.0
C76 C 0.81809 0.73897 0.21147 0.0
N77 N 0.72275 0.7028 0.23137 0.0
C78 C 0.70134 0.68162 0.24853 0.0
C79 C 0.72633 0.70613 0.19657 0.0
C80 C 0.70791 0.68843 0.17767 0.0
C81 C 0.68473 0.66733 0.19438 0.0
C82 C 0.68198 0.66344 0.23039 0.0
Zn83 Zn 0.74844 0.73548 0.25384 0.0
O84 O 0.80232 0.73434 0.30009 0.0
C85 C 0.71067 0.77034 0.30929 0.0
O86 O 0.77154 0.69524 0.289 0.0
H87 H 0.74279 0.72348 0.18307 0.0
H88 H 0.79088 0.78444 0.33705 0.0
H89 H 0.69852 0.67956 0.27617 0.0
O90 O 0.73778 0.78449 0.30374 0.0
O91 O 0.70613 0.74711 0.29066 0.0
H92 H 0.81669 0.8386 0.24206 0.0
O93 O 0.72648 0.77608 0.21965 0.0
O94 O 0.75734 0.81412 0.23243 0.0
O95 O 0.79103 0.72472 0.21751 0.0
O96 O 0.82242 0.76297 0.22933 0.0
C97 C 0.73458 0.80633 0.21511 0.0
H98 H 0.80556 0.83007 0.36822 0.0
H99 H 0.83281 0.88571 0.27193 0.0
H100 H 0.71157 0.69168 0.15003 0.0
H101 H 0.66433 0.64745 0.24434 0.0
C102 C 0.20424 0.80089 0.28302 0.0
N103 N 0.29969 0.7651 0.31778 0.0
C104 C 0.28362 0.77546 0.34786 0.0
C105 C 0.30027 0.7932 0.3686 0.0
C106 C 0.33385 0.79975 0.3584 0.0
C107 C 0.35079 0.78631 0.3287 0.0
C108 C 0.33302 0.76912 0.30848 0.0
Zn109 Zn 0.27112 0.75129 0.2827 0.0
C110 C 0.22261 0.704 0.3111 0.0
N111 N 0.20739 0.73041 0.20877 0.0
C112 C 0.18602 0.75111 0.18784 0.0
C113 C 0.20956 0.69547 0.21023 0.0
C114 C 0.18981 0.68 0.19078 0.0
C115 C 0.1668 0.70039 0.16972 0.0
C116 C 0.16535 0.73647 0.16778 0.0
Zn117 Zn 0.23656 0.7464 0.24281 0.0
O118 O 0.23246 0.79081 0.29611 0.0
C119 C 0.28308 0.79579 0.21509 0.0
O120 O 0.19684 0.78616 0.25795 0.0
H121 H 0.22618 0.67919 0.22719 0.0
H122 H 0.25711 0.77197 0.35473 0.0
H123 H 0.18448 0.77883 0.18721 0.0
O124 O 0.29275 0.78703 0.24499 0.0
O125 O 0.25876 0.78205 0.2054 0.0
H126 H 0.34512 0.76099 0.28428 0.0
O127 O 0.27724 0.70699 0.22841 0.0
O128 O 0.31051 0.71179 0.2685 0.0
O129 O 0.21424 0.71206 0.28078 0.0
O130 O 0.24798 0.71619 0.3205 0.0
C131 C 0.30502 0.69737 0.24259 0.0
H132 H 0.28657 0.80309 0.3915 0.0
H133 H 0.37662 0.79119 0.31994 0.0
H134 H 0.19247 0.65211 0.19247 0.0
H135 H 0.14794 0.75308 0.1517 0.0
C136 C 0.20491 0.80473 0.71781 0.0
N137 N 0.24375 0.70382 0.6938 0.0
C138 C 0.23642 0.71518 0.66127 0.0
C139 C 0.22334 0.69381 0.64109 0.0
C140 C 0.21774 0.66052 0.65461 0.0
C141 C 0.2274 0.64887 0.68755 0.0
C142 C 0.24038 0.67106 0.7068 0.0
Zn143 Zn 0.25494 0.73726 0.72586 0.0
C144 C 0.30217 0.7841 0.69358 0.0
N145 N 0.27348 0.80823 0.79501 0.0
C146 C 0.25456 0.82068 0.82303 0.0
C147 C 0.30751 0.81139 0.78943 0.0
C148 C 0.32388 0.8267 0.81217 0.0
C149 C 0.30581 0.83809 0.84214 0.0
C150 C 0.27035 0.83594 0.8471 0.0
Zn151 Zn 0.25819 0.7764 0.76209 0.0
O152 O 0.21622 0.77555 0.70669 0.0
C153 C 0.20918 0.72923 0.79319 0.0
O154 O 0.21727 0.81341 0.7439 0.0
H155 H 0.32306 0.80015 0.76831 0.0
H156 H 0.23933 0.74133 0.65147 0.0
H157 H 0.22777 0.81732 0.82762 0.0
O158 O 0.2178 0.71855 0.76375 0.0
O159 O 0.22298 0.75423 0.8016 0.0
H160 H 0.24617 0.66264 0.7328 0.0
O161 O 0.29917 0.73919 0.77915 0.0
O162 O 0.29387 0.69969 0.7455 0.0
O163 O 0.29164 0.7976 0.72129 0.0
O164 O 0.29186 0.75629 0.68786 0.0
C165 C 0.30896 0.70944 0.76903 0.0
H166 H 0.21653 0.70364 0.61566 0.0
H167 H 0.22308 0.6236 0.69915 0.0
H168 H 0.35103 0.82837 0.80681 0.0
H169 H 0.25542 0.84441 0.86998 0.0
C170 C 0.27327 0.19485 0.80206 0.0
N171 N 0.28802 0.29838 0.78732 0.0
C172 C 0.28827 0.29144 0.82179 0.0
C173 C 0.30639 0.30947 0.84072 0.0
C174 C 0.32386 0.336 0.82452 0.0
C175 C 0.32283 0.34312 0.78885 0.0
C176 C 0.30482 0.32374 0.77062 0.0
Zn177 Zn 0.26198 0.26703 0.76367 0.0
C178 C 0.30187 0.23049 0.71053 0.0
N179 N 0.20766 0.19518 0.72615 0.0
C180 C 0.19216 0.16875 0.74259 0.0
C181 C 0.21284 0.19865 0.69144 0.0
C182 C 0.20359 0.1746 0.67193 0.0
C183 C 0.18865 0.14649 0.68803 0.0
C184 C 0.18205 0.14402 0.72379 0.0
Zn185 Zn 0.23094 0.22836 0.74997 0.0
O186 O 0.28335 0.22428 0.79651 0.0
C187 C 0.19145 0.26504 0.80374 0.0
O188 O 0.24921 0.1883 0.78571 0.0
H189 H 0.22551 0.21945 0.67865 0.0
H190 H 0.27458 0.27149 0.83489 0.0
H191 H 0.18865 0.16622 0.77022 0.0
O192 O 0.21977 0.27724 0.80024 0.0
O193 O 0.1866 0.24261 0.78418 0.0
H194 H 0.30429 0.32893 0.74321 0.0
O195 O 0.21254 0.26886 0.71463 0.0
O196 O 0.23962 0.30887 0.73007 0.0
O197 O 0.27573 0.2149 0.71663 0.0
O198 O 0.30397 0.25646 0.72652 0.0
C199 C 0.21873 0.29981 0.71114 0.0
H200 H 0.30693 0.3022 0.86787 0.0
H201 H 0.33548 0.36359 0.77517 0.0
H202 H 0.20837 0.17785 0.64436 0.0
H203 H 0.17026 0.12274 0.737 0.0
C204 C 0.69861 0.29142 0.78076 0.0
N205 N 0.79623 0.26857 0.81684 0.0
C206 C 0.78958 0.30351 0.81662 0.0
C207 C 0.80899 0.32137 0.83412 0.0
C208 C 0.83617 0.30344 0.85174 0.0
C209 C 0.84175 0.26723 0.85319 0.0
C210 C 0.82134 0.25011 0.83519 0.0
Zn211 Zn 0.77067 0.24928 0.782 0.0
C212 C 0.72891 0.19614 0.80746 0.0
N213 N 0.71506 0.22457 0.70365 0.0
C214 C 0.6977 0.24586 0.67985 0.0
C215 C 0.7175 0.18972 0.70409 0.0
C216 C 0.70209 0.1749 0.6802 0.0
C217 C 0.68402 0.19601 0.65526 0.0
C218 C 0.68177 0.232 0.65524 0.0
Zn219 Zn 0.7398 0.24204 0.73981 0.0
O220 O 0.72579 0.28329 0.79618 0.0
C221 C 0.78357 0.29371 0.71378 0.0
O222 O 0.69642 0.2788 0.75278 0.0
H223 H 0.73144 0.17319 0.72313 0.0
H224 H 0.77033 0.31807 0.80126 0.0
H225 H 0.69626 0.2735 0.67996 0.0
O226 O 0.7902 0.28688 0.74481 0.0
O227 O 0.76085 0.2788 0.7028 0.0
H228 H 0.82656 0.22241 0.83463 0.0
O229 O 0.78274 0.20592 0.72719 0.0
O230 O 0.81439 0.21421 0.76771 0.0
O231 O 0.71993 0.20467 0.77728 0.0
O232 O 0.75172 0.21114 0.81831 0.0
C233 C 0.81039 0.19888 0.74185 0.0
H234 H 0.80345 0.34924 0.8329 0.0
H235 H 0.86253 0.25258 0.86667 0.0
H236 H 0.70376 0.14708 0.68175 0.0
H237 H 0.66802 0.24914 0.6364 0.0
C238 C 0.72184 0.80413 0.80163 0.0
N239 N 0.71879 0.72109 0.74441 0.0
C240 C 0.68413 0.72965 0.74889 0.0
C241 C 0.66307 0.70396 0.75477 0.0
C242 C 0.678 0.66929 0.75603 0.0
C243 C 0.71344 0.66136 0.7474 0.0
C244 C 0.73357 0.68789 0.74191 0.0
Zn245 Zn 0.74855 0.75807 0.74663 0.0
C246 C 0.72501 0.8204 0.70252 0.0
N247 N 0.8104 0.83584 0.75253 0.0
C248 C 0.82248 0.8406 0.78272 0.0
C249 C 0.81529 0.85755 0.72417 0.0
C250 C 0.83248 0.88556 0.72548 0.0
C251 C 0.84603 0.89079 0.75594 0.0
C252 C 0.84109 0.86782 0.78485 0.0
Zn253 Zn 0.78173 0.79791 0.74915 0.0
O254 O 0.71524 0.77809 0.78818 0.0
C255 C 0.80526 0.73404 0.79265 0.0
O256 O 0.74875 0.81717 0.79063 0.0
H257 H 0.80591 0.85314 0.70036 0.0
H258 H 0.67296 0.7563 0.7504 0.0
H259 H 0.81779 0.82327 0.80515 0.0
O260 O 0.77924 0.72481 0.78139 0.0
O261 O 0.81252 0.76421 0.78365 0.0
H262 H 0.7612 0.68181 0.73798 0.0
O263 O 0.81507 0.77835 0.70694 0.0
O264 O 0.78121 0.73922 0.70533 0.0
O265 O 0.75006 0.83113 0.71415 0.0
O266 O 0.7187 0.79015 0.71214 0.0
C267 C 0.80775 0.75255 0.69343 0.0
H268 H 0.63591 0.71118 0.76158 0.0
H269 H 0.72577 0.63487 0.74779 0.0
H270 H 0.83616 0.90226 0.70232 0.0
H271 H 0.85152 0.87084 0.80861 0.0
Fe272 Fe 1.00183 0.08676 0.50066 0.0
O273 O 1.00264 0.03803 0.51615 0.0
Fe274 Fe 0.0389 1.00099 0.49379 0.0
Fe275 Fe 0.96188 0.01415 0.51515 0.0
O276 O 0.00592 0.0372 0.51623 0.0
O277 O 0.99822 0.97644 0.49402 0.0
O278 O 0.99512 0.97715 0.49422 0.0
Fe279 Fe 0.99726 0.92806 0.51108 0.0
C280 C 0.94375 0.07857 0.55515 0.0
O281 O 0.95634 0.09084 0.47714 0.0
O282 O 0.95235 0.0371 0.46717 0.0
O283 O 0.02999 0.9202 0.46778 0.0
O284 O 0.06756 0.96012 0.46867 0.0
O285 O 0.02804 0.02401 0.44633 0.0
O286 O 0.02848 0.07922 0.45418 0.0
O287 O 0.9228 0.98453 0.5101 0.0
O288 O 0.95164 0.93452 0.48889 0.0
C289 C 0.02876 0.05519 0.43477 0.0
O290 O 0.04066 0.92393 0.53718 0.0
O291 O 0.0512 0.97758 0.54097 0.0
O292 O 0.97176 0.09175 0.5457 0.0
O293 O 0.93243 0.05523 0.53966 0.0
C294 C 0.94631 0.06939 0.45948 0.0
C295 C 0.92442 0.95693 0.49393 0.0
C296 C 0.96873 0.96168 0.57527 0.0
O297 O 0.97099 0.99223 0.56295 0.0
O298 O 0.9683 0.9374 0.55634 0.0
C299 C 0.05778 0.93343 0.45724 0.0
O300 O 0.07775 0.03126 0.49778 0.0
O301 O 0.04884 0.08061 0.52034 0.0
C302 C 0.05416 0.94573 0.55129 0.0
C303 C 0.07625 0.05875 0.51416 0.0
Fe304 Fe 0.51147 0.92353 0.0427 0.0
O305 O 0.50677 0.97385 0.03378 0.0
Fe306 Fe 0.4624 0.99875 0.01163 0.0
Fe307 Fe 0.54193 0.99843 0.0051 0.0
O308 O 0.50305 0.97417 0.03473 0.0
O309 O 0.49764 0.02339 0.98323 0.0
O310 O 0.50121 0.02309 0.98232 0.0
Fe311 Fe 0.49312 0.07339 0.97317 0.0
C312 C 0.57626 0.9483 0.06185 0.0
O313 O 0.55024 0.91431 1.00429 0.0
O314 O 0.54903 0.96253 0.96954 0.0
O315 O 0.4551 0.06354 0.94463 0.0
O316 O 0.4247 0.02772 0.98213 0.0
O317 O 0.46828 0.96308 0.9762 0.0
O318 O 0.47542 0.91499 0.01067 0.0
O319 O 0.57352 0.02858 0.97136 0.0
O320 O 0.53496 0.06349 0.93833 0.0
C321 C 0.46408 0.93184 0.98388 0.0
O322 O 0.4544 0.08297 0.01129 0.0
O323 O 0.4541 0.03525 0.0469 0.0
O324 O 0.54954 0.93288 0.07137 0.0
O325 O 0.57982 0.96905 0.0342 0.0
C326 C 0.55795 0.93026 0.97555 0.0
C327 C 0.56607 0.05115 0.94554 0.0
C328 C 0.54099 0.06575 0.03178 0.0
O329 O 0.53705 0.03449 0.04022 0.0
O330 O 0.52909 0.08217 0.00501 0.0
C331 C 0.42833 0.04825 0.95434 0.0
O332 O 0.43088 0.96794 0.04508 0.0
O333 O 0.46977 0.93281 0.07768 0.0
C334 C 0.44548 0.06754 0.03996 0.0
C335 C 0.4386 0.94492 0.07053 0.0
Fe336 Fe 1.00352 0.54928 0.99672 0.0
O337 O 0.97593 0.51446 0.02209 0.0
Fe338 Fe 0.08042 0.49829 0.97274 0.0
Fe339 Fe 0.92573 0.5203 0.02668 0.0
O340 O 0.02967 0.50824 0.97522 0.0
O341 O 0.03014 0.50444 0.97678 0.0
O342 O 0.97637 0.51074 0.02359 0.0
Fe343 Fe 1.00259 0.46969 1.00234 0.0
C344 C 0.9499 0.58377 0.05076 0.0
O345 O 0.9713 0.55906 0.95751 0.0
O346 O 0.92091 0.56001 0.98841 0.0
O347 O 0.03361 0.43146 0.97474 0.0
O348 O 0.07345 0.46086 0.94175 0.0
O349 O 0.07601 0.54105 0.93771 0.0
O350 O 0.03762 0.58044 0.96671 0.0
O351 O 0.92011 0.48529 0.99235 0.0
O352 O 0.97121 0.47688 0.96339 0.0
C353 C 0.06285 0.57245 0.94343 0.0
O354 O 0.03448 0.46049 0.04166 0.0
O355 O 0.08488 0.4585 0.01088 0.0
O356 O 0.97271 0.58734 0.02481 0.0
O357 O 0.93299 0.55757 0.05765 0.0
C358 C 0.93899 0.56867 0.9613 0.0
C359 C 0.9397 0.47327 0.96746 0.0
C360 C 0.9441 0.44608 0.05626 0.0
O361 O 0.93057 0.47745 0.06182 0.0
O362 O 0.96897 0.43839 0.03257 0.0
C363 C 0.05682 0.43448 0.94906 0.0
O364 O 0.08607 0.53322 0.0073 0.0
O365 O 0.03474 0.54167 0.03577 0.0
C366 C 0.06661 0.45022 0.03795 0.0
C367 C 0.06628 0.54511 0.03212 0.0
Fe368 Fe 0.50321 0.50394 0.96714 0.0
O369 O 0.53424 0.47976 1.0019 0.0
Fe370 Fe 0.4286 0.53297 0.01615 0.0
Fe371 Fe 0.58476 0.47644 0.99491 0.0
O372 O 0.4785 0.52841 0.00616 0.0
O373 O 0.47894 0.52871 0.00914 0.0
O374 O 0.53486 0.48041 0.00491 0.0
Fe375 Fe 0.51005 0.50494 0.04389 0.0
C376 C 0.5591 0.44977 0.93377 0.0
O377 O 0.53281 0.54281 0.95717 0.0
O378 O 0.58433 0.51153 0.95288 0.0
O379 O 0.47975 0.53372 0.08075 0.0
O380 O 0.43658 0.56618 0.05117 0.0
O381 O 0.42975 0.56588 0.97205 0.0
O382 O 0.46782 0.53349 0.93541 0.0
O383 O 0.59096 0.51382 0.02648 0.0
O384 O 0.5393 0.54408 0.03529 0.0
C385 C 0.44327 0.55872 0.94171 0.0
O386 O 0.481 0.46613 0.05421 0.0
O387 O 0.42862 0.4963 0.05748 0.0
O388 O 0.53345 0.47456 0.93053 0.0
O389 O 0.57735 0.44289 0.96004 0.0
C390 C 0.56335 0.53774 0.9438 0.0
C391 C 0.57153 0.54 0.03731 0.0
C392 C 0.57098 0.45164 0.0697 0.0
O393 O 0.58417 0.44415 0.03939 0.0
O394 O 0.54592 0.47642 0.07574 0.0
C395 C 0.45468 0.55905 0.07748 0.0
O396 O 0.42201 0.49692 0.9837 0.0
O397 O 0.47299 0.46514 0.97522 0.0
C398 C 0.45005 0.47032 0.06662 0.0
C399 C 0.44076 0.47044 0.97279 0.0
Fe400 Fe 0.99958 0.46089 0.51623 0.0
O401 O 0.98041 0.5028 0.54014 0.0
Fe402 Fe 0.02644 0.4963 0.43491 0.0
Fe403 Fe 0.97954 0.50353 0.58979 0.0
O404 O 0.02488 0.49368 0.48506 0.0
O405 O 0.02468 0.49712 0.48447 0.0
O406 O 0.98016 0.50634 0.53952 0.0
Fe407 Fe 0.00554 0.53905 0.50825 0.0
C408 C 0.94456 0.44297 0.57565 0.0
O409 O 0.04093 0.45096 0.54563 0.0
O410 O 0.01281 0.45826 0.59642 0.0
O411 O 0.03665 0.56758 0.47237 0.0
O412 O 0.06405 0.52727 0.4365 0.0
O413 O 0.05566 0.44885 0.44276 0.0
O414 O 0.02357 0.42098 0.48619 0.0
O415 O 0.02057 0.53075 0.58987 0.0
O416 O 0.04656 0.52992 0.53726 0.0
C417 C 0.0471 0.4214 0.46054 0.0
O418 O 0.96442 0.54939 0.47838 0.0
O419 O 0.99334 0.54155 0.42798 0.0
O420 O 0.96876 0.43224 0.55245 0.0
O421 O 0.9419 0.47241 0.58877 0.0
C422 C 0.03971 0.4473 0.57808 0.0
C423 C 0.04667 0.53396 0.56874 0.0
C424 C 0.95865 0.57859 0.56452 0.0
O425 O 0.95031 0.55098 0.58226 0.0
O426 O 0.9816 0.57902 0.53833 0.0
C427 C 0.06125 0.55668 0.44966 0.0
O428 O 0.98545 0.4693 0.43453 0.0
O429 O 0.9586 0.46964 0.48692 0.0
C430 C 0.96626 0.55296 0.44585 0.0
C431 C 0.95904 0.466 0.45523 0.0
Fe432 Fe 0.50542 0.96982 0.50252 0.0
O433 O 0.4805 0.00967 0.52666 0.0
Fe434 Fe 0.52668 0.0089 0.4213 0.0
Fe435 Fe 0.47847 0.01188 0.57618 0.0
O436 O 0.52545 0.00645 0.47149 0.0
O437 O 0.52457 0.00996 0.47082 0.0
O438 O 0.47974 0.01327 0.52604 0.0
Fe439 Fe 0.50015 0.04975 0.4951 0.0
C440 C 0.45531 0.94377 0.5632 0.0
O441 O 0.54639 0.96517 0.53209 0.0
O442 O 0.51831 0.97244 0.58318 0.0
O443 O 0.52667 0.08285 0.45956 0.0
O444 O 0.55848 0.0459 0.42271 0.0
O445 O 0.56216 0.96583 0.42905 0.0
O446 O 0.53494 0.93271 0.47183 0.0
O447 O 0.51289 0.04687 0.57572 0.0
O448 O 0.54072 0.04611 0.52401 0.0
C449 C 0.55806 0.93657 0.44613 0.0
O450 O 0.45913 0.05488 0.46568 0.0
O451 O 0.48762 0.04933 0.41466 0.0
O452 O 0.47936 0.93671 0.53863 0.0
O453 O 0.44802 0.97343 0.5761 0.0
C454 C 0.54539 0.96238 0.56458 0.0
C455 C 0.53828 0.0533 0.55481 0.0
C456 C 0.44725 0.08345 0.55038 0.0
O457 O 0.44214 0.05457 0.56777 0.0
O458 O 0.47133 0.08688 0.52566 0.0
C459 C 0.55211 0.07501 0.43663 0.0
O460 O 0.49146 0.97485 0.4211 0.0
O461 O 0.46487 0.97295 0.47352 0.0
C462 C 0.46028 0.05862 0.43322 0.0
C463 C 0.46661 0.96733 0.44225 0.0
C464 C 0.13287 0.07531 0.27299 0.0
C465 C 0.12401 0.10699 0.25445 0.0
C466 C 0.10777 0.0599 0.2938 0.0
C467 C 0.07314 0.07589 0.29409 0.0
C468 C 0.06357 0.10198 0.26813 0.0
C469 C 0.08944 0.11818 0.24891 0.0
C470 C 0.11974 0.03171 0.32051 0.0
C471 C 0.02646 0.11678 0.26503 0.0
C472 C 0.02614 0.04095 0.3746 0.0
C473 C 0.03351 0.06339 0.39757 0.0
C474 C 0.0349 0.04696 0.33937 0.0
C475 C 0.0524 0.07524 0.32746 0.0
C476 C 0.05658 0.09974 0.35031 0.0
C477 C 0.04673 0.09359 0.38498 0.0
C478 C 0.02659 0.02257 0.31517 0.0
C479 C 0.07437 0.13096 0.33906 0.0
H480 H 0.15977 0.06599 0.27601 0.0
H481 H 0.08245 0.14205 0.23341 0.0
H482 H 0.12551 0.04359 0.3433 0.0
H483 H 0.09989 0.01492 0.32871 0.0
H484 H 0.14356 0.01559 0.31089 0.0
H485 H 0.02238 0.12793 0.23851 0.0
H486 H 0.00942 0.09675 0.27237 0.0
H487 H 0.01896 0.1377 0.28231 0.0
H488 H 0.01438 0.01831 0.38422 0.0
H489 H 0.05156 0.1115 0.40255 0.0
H490 H 0.04955 0.01373 0.29813 0.0
H491 H 0.00689 0.0364 0.2986 0.0
H492 H 0.01647 0.99968 0.32894 0.0
H493 H 0.10132 0.12249 0.32972 0.0
H494 H 0.07459 0.1477 0.36009 0.0
H495 H 0.06153 0.14678 0.31792 0.0
C496 C 0.82274 0.14046 0.31034 0.0
C497 C 0.8358 0.16851 0.29173 0.0
C498 C 0.8418 0.11964 0.33494 0.0
C499 C 0.87504 0.12657 0.34028 0.0
C500 C 0.88947 0.15291 0.3191 0.0
C501 C 0.86935 0.17411 0.29565 0.0
C502 C 0.82535 0.09199 0.35699 0.0
C503 C 0.92525 0.16038 0.32295 0.0
C504 C 0.9048 0.11393 0.43007 0.0
C505 C 0.92679 0.08262 0.42956 0.0
C506 C 0.88705 0.12772 0.40155 0.0
C507 C 0.89228 0.11039 0.37121 0.0
C508 C 0.91444 0.07861 0.37057 0.0
C509 C 0.93101 0.06482 0.39998 0.0
C510 C 0.86288 0.1611 0.40384 0.0
C511 C 0.92192 0.05991 0.33852 0.0
H512 H 0.79652 0.13659 0.3077 0.0
H513 H 0.87926 0.19609 0.28148 0.0
H514 H 0.84181 0.06678 0.35513 0.0
H515 H 0.82298 0.09775 0.38417 0.0
H516 H 0.79944 0.08966 0.34949 0.0
H517 H 0.93476 0.17739 0.30104 0.0
H518 H 0.92522 0.17333 0.34669 0.0
H519 H 0.94344 0.13607 0.32517 0.0
H520 H 0.90127 0.1276 0.45298 0.0
H521 H 0.94825 0.04071 0.39944 0.0
H522 H 0.83721 0.15792 0.3964 0.0
H523 H 0.8727 0.18156 0.38581 0.0
H524 H 0.85979 0.16999 0.42998 0.0
H525 H 0.89787 0.05822 0.32681 0.0
H526 H 0.93581 0.03346 0.34349 0.0
H527 H 0.93808 0.07457 0.31954 0.0
C528 C 0.85955 0.89922 0.33942 0.0
C529 C 0.82656 0.88989 0.3418 0.0
C530 C 0.86905 0.91866 0.36401 0.0
C531 C 0.84478 0.92901 0.39126 0.0
C532 C 0.81032 0.92323 0.39118 0.0
C533 C 0.80166 0.90335 0.36658 0.0
C534 C 0.90597 0.92488 0.36285 0.0
C535 C 0.78341 0.93509 0.41892 0.0
C536 C 0.88776 0.91903 0.47348 0.0
C537 C 0.89507 0.95242 0.47546 0.0
C538 C 0.86891 0.91169 0.44754 0.0
C539 C 0.85726 0.93849 0.4229 0.0
C540 C 0.86163 0.97292 0.42684 0.0
C541 C 0.88058 0.97953 0.45326 0.0
C542 C 0.86442 0.87463 0.44468 0.0
C543 C 0.84923 1.00237 0.40158 0.0
H544 H 0.87869 0.88891 0.32011 0.0
H545 H 0.77591 0.89652 0.36797 0.0
H546 H 0.90733 0.95199 0.36739 0.0
H547 H 0.91891 0.90805 0.38343 0.0
H548 H 0.92036 0.91927 0.33796 0.0
H549 H 0.757 0.93529 0.41132 0.0
H550 H 0.78668 0.91735 0.44241 0.0
H551 H 0.78623 0.9613 0.42532 0.0
H552 H 0.89905 0.89816 0.49074 0.0
H553 H 0.88664 0.00535 0.45453 0.0
H554 H 0.87987 0.86514 0.42163 0.0
H555 H 0.83717 0.87258 0.44178 0.0
H556 H 0.87267 0.85743 0.46735 0.0
H557 H 0.86917 0.0045 0.37995 0.0
H558 H 0.84476 0.02724 0.41351 0.0
H559 H 0.82521 0.99828 0.3911 0.0
C560 C 0.19328 0.84967 0.31928 0.0
C561 C 0.18009 0.82762 0.29966 0.0
C562 C 0.17176 0.86992 0.34192 0.0
C563 C 0.13612 0.86815 0.34493 0.0
C564 C 0.12224 0.84822 0.3231 0.0
C565 C 0.14451 0.82802 0.30058 0.0
C566 C 0.18748 0.89142 0.36421 0.0
C567 C 0.08414 0.84682 0.32488 0.0
C568 C 0.09214 0.88239 0.43296 0.0
C569 C 0.07892 0.91736 0.429 0.0
C570 C 0.11034 0.86589 0.40551 0.0
C571 C 0.11426 0.88466 0.37316 0.0
C572 C 0.09969 0.91971 0.36881 0.0
C573 C 0.08277 0.93594 0.39708 0.0
C574 C 0.12585 0.82856 0.41127 0.0
C575 C 0.1022 0.94031 0.33457 0.0
H576 H 0.22081 0.84979 0.3182 0.0
H577 H 0.13429 0.81103 0.28538 0.0
H578 H 0.17462 0.91847 0.36192 0.0
H579 H 0.18361 0.88137 0.39139 0.0
H580 H 0.21547 0.89129 0.35743 0.0
H581 H 0.07706 0.83356 0.30356 0.0
H582 H 0.07594 0.83284 0.34941 0.0
H583 H 0.06969 0.87327 0.32422 0.0
H584 H 0.08851 0.8681 0.45768 0.0
H585 H 0.07166 0.96285 0.39399 0.0
H586 H 0.15421 0.82621 0.40631 0.0
H587 H 0.11644 0.81299 0.39313 0.0
H588 H 0.11962 0.81744 0.43774 0.0
H589 H 0.12614 0.95229 0.33187 0.0
H590 H 0.08005 0.96108 0.33246 0.0
H591 H 0.10297 0.92403 0.31304 0.0
C592 C 0.16613 0.81708 0.67047 0.0
C593 C 0.17931 0.82858 0.69845 0.0
C594 C 0.14456 0.83941 0.64937 0.0
C595 C 0.13551 0.87431 0.65639 0.0
C596 C 0.14774 0.886 0.68519 0.0
C597 C 0.16961 0.86299 0.70589 0.0
C598 C 0.13226 0.82578 0.6189 0.0
C599 C 0.13822 0.92291 0.69371 0.0
C600 C 0.1099 0.93302 0.57789 0.0
C601 C 0.07436 0.93284 0.58056 0.0
C602 C 0.13011 0.91546 0.60338 0.0
C603 C 0.11412 0.89832 0.6326 0.0
C604 C 0.07786 0.9003 0.63636 0.0
C605 C 0.0585 0.91692 0.60992 0.0
C606 C 0.16871 0.91327 0.59796 0.0
C607 C 0.05959 0.8831 0.66729 0.0
H608 H 0.17326 0.79055 0.66445 0.0
H609 H 0.17966 0.87214 0.7274 0.0
H610 H 0.10379 0.82965 0.62044 0.0
H611 H 0.14136 0.84023 0.59499 0.0
H612 H 0.14152 0.7979 0.61711 0.0
H613 H 0.14797 0.92745 0.71814 0.0
H614 H 0.14893 0.94038 0.67294 0.0
H615 H 0.10989 0.92998 0.69556 0.0
H616 H 0.12209 0.94503 0.55491 0.0
H617 H 0.03099 0.9167 0.61181 0.0
H618 H 0.18044 0.88596 0.59669 0.0
H619 H 0.17878 0.92303 0.61988 0.0
H620 H 0.17714 0.92821 0.57406 0.0
H621 H 0.06348 0.85481 0.66557 0.0
H622 H 0.03151 0.89223 0.66925 0.0
H623 H 0.07027 0.88798 0.69108 0.0
C624 C 0.20344 0.10815 0.64055 0.0
C625 C 0.17962 0.12087 0.66663 0.0
C626 C 0.19325 0.09063 0.61486 0.0
C627 C 0.1584 0.08604 0.61523 0.0
C628 C 0.13509 0.09566 0.64343 0.0
C629 C 0.14603 0.11302 0.66892 0.0
C630 C 0.21909 0.07958 0.58593 0.0
C631 C 0.09788 0.09032 0.64517 0.0
C632 C 0.11294 0.09696 0.5343 0.0
C633 C 0.10605 0.06347 0.53193 0.0
C634 C 0.13238 0.10411 0.5599 0.0
C635 C 0.14491 0.07707 0.58388 0.0
C636 C 0.1408 0.04266 0.57957 0.0
C637 C 0.1214 0.03623 0.55343 0.0
C638 C 0.13676 0.14112 0.56308 0.0
C639 C 0.15396 0.01292 0.60415 0.0
H640 H 0.22968 0.11361 0.63922 0.0
H641 H 0.12767 0.12269 0.68916 0.0
H642 H 0.21634 0.0533 0.57966 0.0
H643 H 0.21433 0.09739 0.56273 0.0
H644 H 0.2459 0.07981 0.59215 0.0
H645 H 0.08415 0.09549 0.67046 0.0
H646 H 0.08474 0.10789 0.62521 0.0
H647 H 0.09586 0.06352 0.64003 0.0
H648 H 0.10096 0.11798 0.51765 0.0
H649 H 0.11566 0.01036 0.55192 0.0
H650 H 0.16401 0.14321 0.56599 0.0
H651 H 0.12134 0.15032 0.58627 0.0
H652 H 0.12838 0.15848 0.54057 0.0
H653 H 0.1769 0.0178 0.61608 0.0
H654 H 0.16058 0.98891 0.59096 0.0
H655 H 0.13347 0.0086 0.62477 0.0
C656 C 0.85936 0.19222 0.69902 0.0
C657 C 0.83858 0.17683 0.72495 0.0
C658 C 0.87859 0.17259 0.67429 0.0
C659 C 0.87715 0.1367 0.67603 0.0
C660 C 0.85823 0.12068 0.70385 0.0
C661 C 0.83861 0.14115 0.72783 0.0
C662 C 0.8981 0.19075 0.64482 0.0
C663 C 0.8573 0.08232 0.70723 0.0
C664 C 0.88996 0.10043 0.58948 0.0
C665 C 0.92529 0.08937 0.58724 0.0
C666 C 0.87353 0.11468 0.61905 0.0
C667 C 0.89294 0.1169 0.64704 0.0
C668 C 0.92817 0.10336 0.64563 0.0
C669 C 0.94403 0.09014 0.61551 0.0
C670 C 0.83589 0.12914 0.61957 0.0
C671 C 0.94949 0.10436 0.67521 0.0
H672 H 0.85838 0.22004 0.69651 0.0
H673 H 0.82182 0.1296 0.74764 0.0
H674 H 0.92504 0.17802 0.64159 0.0
H675 H 0.88616 0.18915 0.62078 0.0
H676 H 0.89824 0.21838 0.6484 0.0
H677 H 0.84195 0.07378 0.73078 0.0
H678 H 0.84623 0.07475 0.68476 0.0
H679 H 0.88384 0.06844 0.70773 0.0
H680 H 0.87562 0.0996 0.56755 0.0
H681 H 0.97135 0.08084 0.61383 0.0
H682 H 0.8328 0.1575 0.62079 0.0
H683 H 0.82156 0.11823 0.64266 0.0
H684 H 0.82411 0.12367 0.59659 0.0
H685 H 0.95379 0.13127 0.67728 0.0
H686 H 0.97492 0.08812 0.67203 0.0
H687 H 0.93584 0.09544 0.69962 0.0
C688 C 0.8602 0.94873 0.73568 0.0
C689 C 0.86905 0.91731 0.75481 0.0
C690 C 0.88553 0.96407 0.71505 0.0
C691 C 0.92013 0.94829 0.71564 0.0
C692 C 0.92941 0.92329 0.74261 0.0
C693 C 0.90346 0.90708 0.76162 0.0
C694 C 0.87431 0.99211 0.68788 0.0
C695 C 0.96651 0.9095 0.74708 0.0
C696 C 0.94978 0.9254 0.6265 0.0
C697 C 0.96271 0.95532 0.6126 0.0
C698 C 0.93875 0.92127 0.66113 0.0
C699 C 0.94142 0.94761 0.68258 0.0
C700 C 0.95853 0.97582 0.66946 0.0
C701 C 0.96851 0.97967 0.63437 0.0
C702 C 0.92148 0.89003 0.67368 0.0
C703 C 0.9648 0.00304 0.69157 0.0
H704 H 0.83336 0.9576 0.73196 0.0
H705 H 0.91049 0.88366 0.77778 0.0
H706 H 0.89209 0.01164 0.68417 0.0
H707 H 0.87455 0.98066 0.66322 0.0
H708 H 0.84792 0.00521 0.69441 0.0
H709 H 0.97005 0.90024 0.77421 0.0
H710 H 0.97479 0.88736 0.73144 0.0
H711 H 0.9833 0.92956 0.73869 0.0
H712 H 0.94623 0.90607 0.6099 0.0
H713 H 0.97992 1.0023 0.62393 0.0
H714 H 0.89448 0.89838 0.68283 0.0
H715 H 0.93455 0.87524 0.69523 0.0
H716 H 0.92153 0.8723 0.65342 0.0
H717 H 0.96096 0.99507 0.71928 0.0
H718 H 0.94725 0.02715 0.68553 0.0
H719 H 0.99141 0.00917 0.68565 0.0
C720 C 0.33759 0.1948 0.17105 0.0
C721 C 0.30302 0.18947 0.17557 0.0
C722 C 0.36168 0.17441 0.15026 0.0
C723 C 0.35088 0.1484 0.13314 0.0
C724 C 0.31592 0.14327 0.13719 0.0
C725 C 0.29249 0.16368 0.15852 0.0
C726 C 0.39875 0.18051 0.14682 0.0
C727 C 0.30322 0.11628 0.11888 0.0
C728 C 0.40431 0.12008 0.05299 0.0
C729 C 0.42203 0.08802 0.06456 0.0
C730 C 0.38118 0.13981 0.07502 0.0
C731 C 0.37579 0.12759 0.10976 0.0
C732 C 0.39379 0.09545 0.12183 0.0
C733 C 0.4165 0.07588 0.09901 0.0
C734 C 0.36214 0.17362 0.06092 0.0
C735 C 0.389 0.08176 0.15882 0.0
H736 H 0.34603 0.2144 0.18441 0.0
H737 H 0.26585 0.15936 0.1619 0.0
H738 H 0.4155 0.15634 0.15458 0.0
H739 H 0.40677 0.18804 0.11972 0.0
H740 H 0.40322 0.201 0.16264 0.0
H741 H 0.27526 0.11548 0.12479 0.0
H742 H 0.30836 0.12156 0.09084 0.0
H743 H 0.31727 0.09046 0.12614 0.0
H744 H 0.40801 0.12963 0.02636 0.0
H745 H 0.43007 0.05122 0.10818 0.0
H746 H 0.36776 0.19503 0.0748 0.0
H747 H 0.33403 0.17299 0.06484 0.0
H748 H 0.36912 0.17939 0.0332 0.0
H749 H 0.395 0.10075 0.17557 0.0
H750 H 0.40558 0.05684 0.16441 0.0
H751 H 0.36181 0.07801 0.16557 0.0
C752 C 0.85688 0.31444 0.19479 0.0
C753 C 0.83363 0.29642 0.18152 0.0
C754 C 0.87776 0.33521 0.17343 0.0
C755 C 0.87523 0.33883 0.13761 0.0
C756 C 0.85272 0.31972 0.12385 0.0
C757 C 0.83244 0.2986 0.14587 0.0
C758 C 0.90152 0.35451 0.18949 0.0
C759 C 0.84874 0.32295 0.08597 0.0
C760 C 0.89409 0.42554 0.09289 0.0
C761 C 0.92737 0.41779 0.07676 0.0
C762 C 0.87684 0.40005 0.11177 0.0
C763 C 0.89312 0.36549 0.11542 0.0
C764 C 0.92667 0.35724 0.09918 0.0
C765 C 0.94324 0.38334 0.07981 0.0
C766 C 0.84104 0.41032 0.12805 0.0
C767 C 0.94528 0.32092 0.1027 0.0
H768 H 0.85836 0.31283 0.22222 0.0
H769 H 0.81456 0.28498 0.13525 0.0
H770 H 0.92763 0.35082 0.17605 0.0
H771 H 0.89197 0.38252 0.18699 0.0
H772 H 0.90346 0.34607 0.21704 0.0
H773 H 0.83306 0.30397 0.07878 0.0
H774 H 0.83612 0.34928 0.07814 0.0
H775 H 0.87425 0.31929 0.07135 0.0
H776 H 0.88104 0.45178 0.09047 0.0
H777 H 0.96879 0.37682 0.0675 0.0
H778 H 0.84089 0.40576 0.15626 0.0
H779 H 0.82305 0.39424 0.11975 0.0
H780 H 0.83121 0.43788 0.12146 0.0
H781 H 0.94887 0.31287 0.13003 0.0
H782 H 0.97083 0.31836 0.088 0.0
H783 H 0.92968 0.30289 0.0937 0.0
C784 C 0.72157 0.86684 0.18801 0.0
C785 C 0.71722 0.83192 0.19004 0.0
C786 C 0.70328 0.89132 0.16561 0.0
C787 C 0.68023 0.88051 0.14489 0.0
C788 C 0.67695 0.84508 0.14583 0.0
C789 C 0.69541 0.82129 0.16839 0.0
C790 C 0.70754 0.92883 0.16518 0.0
C791 C 0.65278 0.83236 0.12403 0.0
C792 C 0.59795 0.93344 0.11904 0.0
C793 C 0.60511 0.93925 0.08364 0.0
C794 C 0.62332 0.91714 0.13989 0.0
C795 C 0.6566 0.90601 0.12486 0.0
C796 C 0.66481 0.91464 0.08957 0.0
C797 C 0.63886 0.93138 0.06927 0.0
C798 C 0.61353 0.90897 0.17747 0.0
C799 C 0.70008 0.90351 0.07267 0.0
H800 H 0.73856 0.87521 0.20452 0.0
H801 H 0.69223 0.79431 0.16944 0.0
H802 H 0.71085 0.94054 0.13853 0.0
H803 H 0.68405 0.94311 0.17763 0.0
H804 H 0.72988 0.9324 0.1789 0.0
H805 H 0.65511 0.80378 0.12597 0.0
H806 H 0.62587 0.84275 0.13215 0.0
H807 H 0.65791 0.84172 0.09683 0.0
H808 H 0.5719 0.94002 0.13021 0.0
H809 H 0.6444 0.93586 0.04187 0.0
H810 H 0.63336 0.91496 0.19317 0.0
H811 H 0.61181 0.881 0.1825 0.0
H812 H 0.58837 0.92354 0.18596 0.0
H813 H 0.72036 0.90734 0.08896 0.0
H814 H 0.70432 0.91783 0.04726 0.0
H815 H 0.70291 0.8756 0.06904 0.0
C816 C 0.13043 0.65442 0.16618 0.0
C817 C 0.14494 0.68304 0.15031 0.0
C818 C 0.1153 0.63335 0.14729 0.0
C819 C 0.11374 0.6416 0.11173 0.0
C820 C 0.12585 0.67197 0.09595 0.0
C821 C 0.14157 0.6923 0.11545 0.0
C822 C 0.10281 0.60115 0.16509 0.0
C823 C 0.12369 0.68205 0.05822 0.0
C824 C 0.11359 0.56706 0.05759 0.0
C825 C 0.07852 0.5685 0.05383 0.0
C826 C 0.12538 0.59081 0.07636 0.0
C827 C 0.10157 0.61708 0.09093 0.0
C828 C 0.06614 0.61884 0.08693 0.0
C829 C 0.05501 0.59429 0.06877 0.0
C830 C 0.1633 0.58762 0.08084 0.0
C831 C 0.04003 0.64687 0.10145 0.0
H832 H 0.1322 0.64766 0.19334 0.0
H833 H 0.15268 0.7144 0.10308 0.0
H834 H 0.07584 0.60035 0.15995 0.0
H835 H 0.11859 0.57806 0.15493 0.0
H836 H 0.10433 0.5994 0.1932 0.0
H837 H 0.13032 0.70838 0.05076 0.0
H838 H 0.14165 0.66353 0.04336 0.0
H839 H 0.09744 0.68097 0.05095 0.0
H840 H 0.1318 0.54726 0.046 0.0
H841 H 0.02787 0.59596 0.06546 0.0
H842 H 0.1675 0.58414 0.10846 0.0
H843 H 0.17338 0.61163 0.07012 0.0
H844 H 0.17837 0.56558 0.06814 0.0
H845 H 0.0406 0.64558 0.1296 0.0
H846 H 0.01347 0.64493 0.09553 0.0
H847 H 0.04654 0.67254 0.09098 0.0
C848 C 0.35789 0.83254 0.87463 0.0
C849 C 0.32522 0.85015 0.86816 0.0
C850 C 0.37922 0.84559 0.89502 0.0
C851 C 0.36735 0.87663 0.9103 0.0
C852 C 0.33356 0.89347 0.90576 0.0
C853 C 0.3129 0.88012 0.88453 0.0
C854 C 0.41506 0.82683 0.89898 0.0
C855 C 0.31968 0.92616 0.92239 0.0
C856 C 0.4194 0.89355 0.98159 0.0
C857 C 0.44031 0.9169 0.96465 0.0
C858 C 0.39454 0.88133 0.96463 0.0
C859 C 0.39114 0.89196 0.92962 0.0
C860 C 0.41229 0.91545 0.91237 0.0
C861 C 0.43629 0.92801 0.93023 0.0
C862 C 0.37189 0.85708 0.98421 0.0
C863 C 0.40998 0.9269 0.87489 0.0
H864 H 0.36726 0.80879 0.8629 0.0
H865 H 0.28768 0.8938 0.87977 0.0
H866 H 0.43424 0.84377 0.88815 0.0
H867 H 0.41915 0.82042 0.92642 0.0
H868 H 0.4201 0.80261 0.88593 0.0
H869 H 0.29185 0.93399 0.91946 0.0
H870 H 0.32378 0.92281 0.95003 0.0
H871 H 0.33373 0.9474 0.91072 0.0
H872 H 0.42181 0.88553 0.00845 0.0
H873 H 0.45219 0.94629 0.91717 0.0
H874 H 0.37748 0.83144 0.97393 0.0
H875 H 0.34447 0.86686 0.981 0.0
H876 H 0.3757 0.85374 0.01196 0.0
H877 H 0.41605 0.90418 0.85968 0.0
H878 H 0.42788 0.94567 0.86539 0.0
H879 H 0.38344 0.93894 0.87027 0.0
C880 C 0.17485 0.29137 0.85851 0.0
C881 C 0.16459 0.27919 0.82943 0.0
C882 C 0.15157 0.31185 0.87971 0.0
C883 C 0.11707 0.32075 0.87153 0.0
C884 C 0.10583 0.30613 0.84385 0.0
C885 C 0.1298 0.28536 0.82306 0.0
C886 C 0.16475 0.32638 0.90916 0.0
C887 C 0.06922 0.31461 0.83448 0.0
C888 C 0.06155 0.37155 0.93896 0.0
C889 C 0.06673 0.40538 0.92712 0.0
C890 C 0.07561 0.34355 0.91994 0.0
C891 C 0.09518 0.34961 0.88843 0.0
C892 C 0.09806 0.38393 0.87524 0.0
C893 C 0.08389 0.41127 0.8947 0.0
C894 C 0.07137 0.30744 0.93465 0.0
C895 C 0.11822 0.39179 0.84155 0.0
H896 H 0.20168 0.2863 0.86375 0.0
H897 H 0.12177 0.27605 0.80056 0.0
H898 H 0.16555 0.3544 0.90302 0.0
H899 H 0.1473 0.32326 0.93267 0.0
H900 H 0.19098 0.31378 0.91455 0.0
H901 H 0.06267 0.29561 0.81801 0.0
H902 H 0.05094 0.31543 0.85768 0.0
H903 H 0.0657 0.34047 0.82025 0.0
H904 H 0.04802 0.36672 0.96381 0.0
H905 H 0.08734 0.43735 0.88488 0.0
H906 H 0.09543 0.29515 0.94576 0.0
H907 H 0.06652 0.29148 0.91444 0.0
H908 H 0.04999 0.30731 0.95512 0.0
H909 H 0.14594 0.38279 0.84397 0.0
H910 H 0.11504 0.4198 0.83324 0.0
H911 H 0.11008 0.3779 0.82127 0.0
C912 C 0.70835 0.16966 0.8652 0.0
C913 C 0.71187 0.16958 0.82947 0.0
C914 C 0.68845 0.14719 0.88562 0.0
C915 C 0.67226 0.1236 0.87 0.0
C916 C 0.67767 0.12198 0.83413 0.0
C917 C 0.697 0.14518 0.81435 0.0
C918 C 0.68291 0.15031 0.92365 0.0
C919 C 0.66148 0.09697 0.81634 0.0
C920 C 0.62866 0.05342 0.92462 0.0
C921 C 0.59401 0.06821 0.92565 0.0
C922 C 0.6546 0.07097 0.90666 0.0
C923 C 0.64578 0.10438 0.89008 0.0
C924 C 0.61095 0.11953 0.89163 0.0
C925 C 0.58568 0.10127 0.90898 0.0
C926 C 0.69137 0.05371 0.90516 0.0
C927 C 0.60022 0.15528 0.87497 0.0
H928 H 0.71968 0.18848 0.87708 0.0
H929 H 0.69993 0.14463 0.78678 0.0
H930 H 0.65614 0.16233 0.93014 0.0
H931 H 0.6864 0.12451 0.93797 0.0
H932 H 0.70068 0.16637 0.93247 0.0
H933 H 0.67196 0.09552 0.78928 0.0
H934 H 0.6656 0.07079 0.82985 0.0
H935 H 0.63334 0.10519 0.8168 0.0
H936 H 0.63546 0.02808 0.93756 0.0
H937 H 0.5592 0.11348 0.91006 0.0
H938 H 0.70763 0.06983 0.91613 0.0
H939 H 0.7014 0.05115 0.87814 0.0
H940 H 0.6941 0.02772 0.91927 0.0
H941 H 0.61451 0.17406 0.88463 0.0
H942 H 0.57226 0.16401 0.87982 0.0
H943 H 0.6066 0.15574 0.84693 0.0
C944 C 0.85139 0.7213 0.83362 0.0
C945 C 0.82717 0.70962 0.81541 0.0
C946 C 0.8717 0.69845 0.85576 0.0
C947 C 0.86811 0.66295 0.85945 0.0
C948 C 0.84439 0.65088 0.84037 0.0
C949 C 0.82406 0.67435 0.81884 0.0
C950 C 0.89627 0.71251 0.876 0.0
C951 C 0.83998 0.61322 0.84323 0.0
C952 C 0.93708 0.59823 0.90146 0.0
C953 C 0.92151 0.59263 0.93467 0.0
C954 C 0.92008 0.62098 0.87659 0.0
C955 C 0.88699 0.63893 0.88529 0.0
C956 C 0.87145 0.63368 0.91887 0.0
C957 C 0.88871 0.61054 0.94295 0.0
C958 C 0.93734 0.62557 0.84094 0.0
C959 C 0.83647 0.65258 0.92947 0.0
H960 H 0.85401 0.74848 0.83112 0.0
H961 H 0.8057 0.66499 0.8046 0.0
H962 H 0.88817 0.70889 0.90369 0.0
H963 H 0.92248 0.69815 0.87196 0.0
H964 H 0.8974 0.74036 0.86892 0.0
H965 H 0.82249 0.60754 0.82473 0.0
H966 H 0.86525 0.59709 0.83876 0.0
H967 H 0.82934 0.60546 0.86944 0.0
H968 H 0.96236 0.58456 0.89479 0.0
H969 H 0.87649 0.60681 0.96858 0.0
H970 H 0.94025 0.65308 0.83419 0.0
H971 H 0.92108 0.61816 0.82223 0.0
H972 H 0.96308 0.60985 0.83824 0.0
H973 H 0.83664 0.68082 0.9249 0.0
H974 H 0.82836 0.64637 0.95687 0.0
H975 H 0.81698 0.64582 0.91379 0.0
C976 C 0.18005 0.34257 0.17922 0.0
C977 C 0.17564 0.30764 0.18389 0.0
C978 C 0.15997 0.36606 0.15756 0.0
C979 C 0.13519 0.35431 0.13962 0.0
C980 C 0.13025 0.31917 0.14456 0.0
C981 C 0.15036 0.29629 0.16684 0.0
C982 C 0.16581 0.40336 0.15333 0.0
C983 C 0.10447 0.30551 0.12551 0.0
C984 C 0.06802 0.42109 0.09782 0.0
C985 C 0.08339 0.42564 0.06442 0.0
C986 C 0.08439 0.3978 0.12264 0.0
C987 C 0.11657 0.37825 0.11365 0.0
C988 C 0.1318 0.3823 0.07981 0.0
C989 C 0.11521 0.40603 0.05578 0.0
C990 C 0.06756 0.39449 0.15859 0.0
C991 C 0.1658 0.36166 0.06894 0.0
H992 H 0.19925 0.35167 0.19257 0.0
H993 H 0.14676 0.26936 0.17035 0.0
H994 H 0.17619 0.41002 0.12675 0.0
H995 H 0.14112 0.42044 0.15783 0.0
H996 H 0.18408 0.40891 0.17111 0.0
H997 H 0.10233 0.27801 0.1336 0.0
H998 H 0.07877 0.32092 0.12959 0.0
H999 H 0.11214 0.308 0.09767 0.0
H1000 H 0.04345 0.43607 0.10471 0.0
H1001 H 0.12716 0.40893 0.02994 0.0
H1002 H 0.08448 0.40193 0.17667 0.0
H1003 H 0.06395 0.36729 0.1662 0.0
H1004 H 0.04221 0.41093 0.16132 0.0
H1005 H 0.18624 0.36799 0.08368 0.0
H1006 H 0.17343 0.36673 0.04126 0.0
H1007 H 0.16444 0.33369 0.07454 0.0
C1008 C 0.16479 0.68882 0.80414 0.0
C1009 C 0.18366 0.71174 0.81686 0.0
C1010 C 0.14228 0.67003 0.8257 0.0
C1011 C 0.13843 0.67364 0.86132 0.0
C1012 C 0.15653 0.69754 0.87429 0.0
C1013 C 0.17873 0.71638 0.85196 0.0
C1014 C 0.1236 0.64519 0.8104 0.0
C1015 C 0.15358 0.70213 0.91202 0.0
C1016 C 0.0647 0.63307 0.91405 0.0
C1017 C 0.08132 0.6001 0.92423 0.0
C1018 C 0.08291 0.65769 0.89422 0.0
C1019 C 0.11872 0.6495 0.88497 0.0
C1020 C 0.13566 0.61674 0.8965 0.0
C1021 C 0.11687 0.59262 0.91556 0.0
C1022 C 0.06364 0.69207 0.88225 0.0
C1023 C 0.17374 0.6067 0.88801 0.0
H1024 H 0.16798 0.68508 0.7771 0.0
H1025 H 0.19304 0.73394 0.8622 0.0
H1026 H 0.13374 0.61834 0.81938 0.0
H1027 H 0.09582 0.6494 0.81894 0.0
H1028 H 0.12656 0.6478 0.78201 0.0
H1029 H 0.16629 0.72404 0.91773 0.0
H1030 H 0.1262 0.7065 0.92197 0.0
H1031 H 0.16568 0.67826 0.926 0.0
H1032 H 0.03735 0.63923 0.92062 0.0
H1033 H 0.13028 0.56755 0.9238 0.0
H1034 H 0.06385 0.69431 0.85397 0.0
H1035 H 0.0765 0.71332 0.8892 0.0
H1036 H 0.03653 0.69554 0.89332 0.0
H1037 H 0.17916 0.60553 0.85999 0.0
H1038 H 0.18357 0.58126 0.90088 0.0
H1039 H 0.18822 0.6264 0.89568 0.0
C1040 C 0.31318 0.17815 0.84794 0.0
C1041 C 0.28996 0.16872 0.82705 0.0
C1042 C 0.33102 0.15366 0.87035 0.0
C1043 C 0.32566 0.11873 0.8719 0.0
C1044 C 0.30124 0.10918 0.85192 0.0
C1045 C 0.28361 0.13435 0.82969 0.0
C1046 C 0.35669 0.16503 0.89138 0.0
C1047 C 0.29479 0.07223 0.853 0.0
C1048 C 0.40618 0.0623 0.89732 0.0
C1049 C 0.39934 0.05752 0.93283 0.0
C1050 C 0.38101 0.07933 0.87659 0.0
C1051 C 0.34838 0.09228 0.89188 0.0
C1052 C 0.34032 0.08461 0.92736 0.0
C1053 C 0.36601 0.06708 0.94752 0.0
C1054 C 0.39056 0.0864 0.83881 0.0
C1055 C 0.30574 0.09772 0.94456 0.0
H1056 H 0.31792 0.20472 0.8464 0.0
H1057 H 0.26555 0.12691 0.81374 0.0
H1058 H 0.35159 0.15628 0.91875 0.0
H1059 H 0.38301 0.15311 0.88295 0.0
H1060 H 0.35601 0.19348 0.88899 0.0
H1061 H 0.27175 0.06985 0.83979 0.0
H1062 H 0.31736 0.05669 0.84039 0.0
H1063 H 0.29139 0.06097 0.87982 0.0
H1064 H 0.43192 0.05446 0.88596 0.0
H1065 H 0.36077 0.06343 0.97503 0.0
H1066 H 0.39399 0.11393 0.83319 0.0
H1067 H 0.36983 0.08152 0.82363 0.0
H1068 H 0.41482 0.07031 0.83021 0.0
H1069 H 0.30456 0.12556 0.9478 0.0
H1070 H 0.30115 0.08394 0.97019 0.0
H1071 H 0.28476 0.09491 0.9287 0.0
C1072 C 0.87014 0.35223 0.84761 0.0
C1073 C 0.8589 0.32348 0.86686 0.0
C1074 C 0.88638 0.37546 0.86266 0.0
C1075 C 0.89201 0.36949 0.89772 0.0
C1076 C 0.88308 0.33913 0.91671 0.0
C1077 C 0.86646 0.3164 0.901 0.0
C1078 C 0.89557 0.40746 0.84151 0.0
C1079 C 0.88938 0.33164 0.95402 0.0
C1080 C 0.95114 0.42356 0.93139 0.0
C1081 C 0.92746 0.44877 0.94701 0.0
C1082 C 0.94006 0.39725 0.91565 0.0
C1083 C 0.90444 0.39654 0.91497 0.0
C1084 C 0.88043 0.42242 0.92985 0.0
C1085 C 0.89224 0.44807 0.94598 0.0
C1086 C 0.96643 0.36981 0.90052 0.0
C1087 C 0.84221 0.42288 0.92893 0.0
H1088 H 0.86494 0.35731 0.82095 0.0
H1089 H 0.85785 0.29413 0.91585 0.0
H1090 H 0.8793 0.43054 0.85115 0.0
H1091 H 0.9227 0.41049 0.84386 0.0
H1092 H 0.89183 0.40693 0.81402 0.0
H1093 H 0.8848 0.30516 0.96397 0.0
H1094 H 0.91613 0.33477 0.95803 0.0
H1095 H 0.87201 0.35032 0.96924 0.0
H1096 H 0.97845 0.42358 0.93253 0.0
H1097 H 0.87389 0.46743 0.95807 0.0
H1098 H 0.9624 0.36809 0.87333 0.0
H1099 H 0.96341 0.34432 0.91428 0.0
H1100 H 0.99317 0.37484 0.90207 0.0
H1101 H 0.83566 0.42413 0.90206 0.0
H1102 H 0.82699 0.44511 0.94122 0.0
H1103 H 0.83439 0.39873 0.94221 0.0
C1104 C 0.66348 0.81364 0.83324 0.0
C1105 C 0.69752 0.82062 0.82822 0.0
C1106 C 0.63956 0.83112 0.85656 0.0
C1107 C 0.65006 0.85576 0.87571 0.0
C1108 C 0.68456 0.86239 0.87122 0.0
C1109 C 0.70777 0.84496 0.84737 0.0
C1110 C 0.60293 0.82359 0.86033 0.0
C1111 C 0.69695 0.88801 0.89156 0.0
C1112 C 0.5844 0.92475 0.91536 0.0
C1113 C 0.58021 0.91078 0.94938 0.0
C1114 C 0.60644 0.90679 0.89091 0.0
C1115 C 0.62515 0.87433 0.90081 0.0
C1116 C 0.62087 0.86003 0.93503 0.0
C1117 C 0.59832 0.87826 0.95878 0.0
C1118 C 0.60997 0.9227 0.85454 0.0
C1119 C 0.6407 0.82576 0.94679 0.0
H1120 H 0.65528 0.79511 0.81831 0.0
H1121 H 0.73404 0.85046 0.8437 0.0
H1122 H 0.59585 0.81427 0.88717 0.0
H1123 H 0.58524 0.8476 0.85423 0.0
H1124 H 0.5988 0.80393 0.84336 0.0
H1125 H 0.72474 0.88971 0.88555 0.0
H1126 H 0.68228 0.91397 0.88622 0.0
H1127 H 0.69234 0.88063 0.91932 0.0
H1128 H 0.57045 0.94977 0.90781 0.0
H1129 H 0.59552 0.86728 0.98503 0.0
H1130 H 0.60443 0.9045 0.83671 0.0
H1131 H 0.63677 0.92781 0.84771 0.0
H1132 H 0.59243 0.94729 0.85057 0.0
H1133 H 0.63553 0.80537 0.93127 0.0
H1134 H 0.63407 0.81794 0.97418 0.0
H1135 H 0.66868 0.8272 0.94297 0.0
C1136 C 0.87907 0.72429 0.18631 0.0
C1137 C 0.84362 0.72648 0.18384 0.0
C1138 C 0.90274 0.70615 0.16304 0.0
C1139 C 0.89048 0.6902 0.1368 0.0
C1140 C 0.85483 0.69502 0.13268 0.0
C1141 C 0.83195 0.7129 0.15628 0.0
C1142 C 0.94054 0.70197 0.16811 0.0
C1143 C 0.84045 0.67893 0.10494 0.0
C1144 C 0.94208 0.64635 0.0627 0.0
C1145 C 0.94128 0.61158 0.07424 0.0
C1146 C 0.92816 0.67272 0.08385 0.0
C1147 C 0.91334 0.66395 0.11718 0.0
C1148 C 0.91541 0.62884 0.12981 0.0
C1149 C 0.92921 0.6032 0.10821 0.0
C1150 C 0.92706 0.70981 0.06961 0.0
C1151 C 0.90052 0.61813 0.16532 0.0
H1152 H 0.88821 0.7348 0.20756 0.0
H1153 H 0.80457 0.71504 0.15392 0.0
H1154 H 0.94828 0.67627 0.18152 0.0
H1155 H 0.95617 0.70336 0.14321 0.0
H1156 H 0.94658 0.72191 0.18376 0.0
H1157 H 0.8127 0.68827 0.10288 0.0
H1158 H 0.85459 0.68461 0.07983 0.0
H1159 H 0.84366 0.6505 0.11052 0.0
H1160 H 0.9517 0.65302 0.03659 0.0
H1161 H 0.92931 0.57635 0.1176 0.0
H1162 H 0.93257 0.72611 0.08924 0.0
H1163 H 0.90092 0.71969 0.06179 0.0
H1164 H 0.94571 0.71262 0.04691 0.0
H1165 H 0.90924 0.63304 0.18445 0.0
H1166 H 0.90781 0.59021 0.17265 0.0
H1167 H 0.87207 0.62369 0.16648 0.0
C1168 C 0.32008 0.84299 0.20643 0.0
C1169 C 0.3003 0.8219 0.19237 0.0
C1170 C 0.33829 0.8665 0.18567 0.0
C1171 C 0.33735 0.86879 0.14969 0.0
C1172 C 0.31648 0.84844 0.13535 0.0
C1173 C 0.298 0.82545 0.15686 0.0
C1174 C 0.35987 0.88776 0.20225 0.0
C1175 C 0.31505 0.84964 0.09715 0.0
C1176 C 0.37747 0.94238 0.09673 0.0
C1177 C 0.41128 0.92648 0.08967 0.0
C1178 C 0.35273 0.92394 0.1158 0.0
C1179 C 0.36187 0.88868 0.12731 0.0
C1180 C 0.39561 0.87239 0.11899 0.0
C1181 C 0.41974 0.89141 0.10064 0.0
C1182 C 0.31714 0.94236 0.12437 0.0
C1183 C 0.40658 0.8348 0.13002 0.0
H1184 H 0.32174 0.84085 0.23386 0.0
H1185 H 0.28276 0.80937 0.14572 0.0
H1186 H 0.3875 0.87854 0.19606 0.0
H1187 H 0.35501 0.9152 0.19214 0.0
H1188 H 0.35468 0.88614 0.23051 0.0
H1189 H 0.29484 0.83536 0.09018 0.0
H1190 H 0.31016 0.8767 0.08595 0.0
H1191 H 0.34023 0.83806 0.08536 0.0
H1192 H 0.37062 0.96932 0.08815 0.0
H1193 H 0.4455 0.8785 0.0946 0.0
H1194 H 0.3124 0.94326 0.15247 0.0
H1195 H 0.29761 0.92806 0.11612 0.0
H1196 H 0.31343 0.96915 0.11211 0.0
H1197 H 0.40531 0.83088 0.15833 0.0
H1198 H 0.43314 0.82545 0.11975 0.0
H1199 H 0.38886 0.81867 0.12132 0.0
C1200 C 0.6945 0.1247 0.12278 0.0
C1201 C 0.68343 0.1576 0.13393 0.0
C1202 C 0.67329 0.10864 0.10446 0.0
C1203 C 0.64009 0.12566 0.09768 0.0
C1204 C 0.62937 0.15929 0.10782 0.0
C1205 C 0.65133 0.175 0.1252 0.0
C1206 C 0.68602 0.07315 0.09313 0.0
C1207 C 0.59416 0.17836 0.10134 0.0
C1208 C 0.58843 0.10125 0.02968 0.0
C1209 C 0.56589 0.08106 0.04912 0.0
C1210 C 0.6138 0.11452 0.04488 0.0
C1211 C 0.616 0.10839 0.08062 0.0
C1212 C 0.59336 0.08789 0.10038 0.0
C1213 C 0.56893 0.07395 0.08426 0.0
C1214 C 0.63811 0.13523 0.02267 0.0
C1215 C 0.59436 0.0814 0.13865 0.0
H1216 H 0.71919 0.11103 0.12936 0.0
H1217 H 0.64291 0.20084 0.13274 0.0
H1218 H 0.67067 0.05416 0.10746 0.0
H1219 H 0.68267 0.07259 0.06559 0.0
H1220 H 0.71352 0.06485 0.09739 0.0
H1221 H 0.58964 0.20427 0.11119 0.0
H1222 H 0.59092 0.18151 0.07354 0.0
H1223 H 0.57411 0.16318 0.11379 0.0
H1224 H 0.58677 0.10604 1.00229 0.0
H1225 H 0.55174 0.05805 0.09922 0.0
H1226 H 0.6651 0.12501 0.02747 0.0
H1227 H 0.63346 0.1624 0.02915 0.0
H1228 H 0.63507 0.13487 0.995 0.0
H1229 H 0.6204 0.06936 0.14509 0.0
H1230 H 0.57549 0.06437 0.15022 0.0
H1231 H 0.58875 0.10627 0.15048 0.0
C1232 C 0.67321 0.62172 0.80117 0.0
C1233 C 0.65848 0.64283 0.7742 0.0
C1234 C 0.65321 0.60296 0.82495 0.0
C1235 C 0.61765 0.60505 0.82137 0.0
C1236 C 0.6031 0.62386 0.79261 0.0
C1237 C 0.62374 0.64291 0.76936 0.0
C1238 C 0.66971 0.58313 0.85536 0.0
C1239 C 0.56547 0.62565 0.78752 0.0
C1240 C 0.58203 0.5378 0.88257 0.0
C1241 C 0.57169 0.55651 0.91106 0.0
C1242 C 0.59369 0.55411 0.85155 0.0
C1243 C 0.59589 0.58974 0.84957 0.0
C1244 C 0.58301 0.60919 0.87763 0.0
C1245 C 0.57057 0.59223 0.90819 0.0
C1246 C 0.60614 0.53273 0.82189 0.0
C1247 C 0.58515 0.64727 0.87639 0.0
H1248 H 0.69989 0.62198 0.80539 0.0
H1249 H 0.6124 0.6591 0.74837 0.0
H1250 H 0.65853 0.59478 0.87916 0.0
H1251 H 0.66453 0.55603 0.85781 0.0
H1252 H 0.69797 0.58305 0.85346 0.0
H1253 H 0.55992 0.63498 0.76085 0.0
H1254 H 0.55679 0.60005 0.79384 0.0
H1255 H 0.55012 0.64369 0.80489 0.0
H1256 H 0.58186 0.51016 0.88484 0.0
H1257 H 0.56201 0.60647 0.93034 0.0
H1258 H 0.63463 0.52789 0.81974 0.0
H1259 H 0.598 0.54662 0.79751 0.0
H1260 H 0.59644 0.50741 0.82527 0.0
H1261 H 0.57054 0.65924 0.89871 0.0
H1262 H 0.57518 0.66088 0.85264 0.0
H1263 H 0.61245 0.65117 0.87618 0.0
C1264 C 0.33868 0.65025 0.78585 0.0
C1265 C 0.33598 0.68609 0.78656 0.0
C1266 C 0.36038 0.62792 0.80706 0.0
C1267 C 0.38 0.64188 0.82912 0.0
C1268 C 0.37935 0.67802 0.82785 0.0
C1269 C 0.35721 0.69968 0.80675 0.0
C1270 C 0.36026 0.58954 0.80777 0.0
C1271 C 0.40014 0.69399 0.85061 0.0
C1272 C 0.3934 0.59502 0.91633 0.0
C1273 C 0.4277 0.57954 0.91236 0.0
C1274 C 0.37757 0.61465 0.88917 0.0
C1275 C 0.39661 0.61942 0.85721 0.0
C1276 C 0.43128 0.60382 0.85286 0.0
C1277 C 0.44637 0.58372 0.88047 0.0
C1278 C 0.34044 0.63052 0.89486 0.0
C1279 C 0.4525 0.60877 0.81929 0.0
H1280 H 0.3224 0.63961 0.77023 0.0
H1281 H 0.3556 0.72739 0.80704 0.0
H1282 H 0.38683 0.57563 0.80739 0.0
H1283 H 0.3461 0.58037 0.8318 0.0
H1284 H 0.34775 0.58261 0.78585 0.0
H1285 H 0.40071 0.72186 0.84301 0.0
H1286 H 0.38878 0.6912 0.87741 0.0
H1287 H 0.42692 0.68057 0.85002 0.0
H1288 H 0.37862 0.59147 0.94072 0.0
H1289 H 0.47292 0.57183 0.8773 0.0
H1290 H 0.32502 0.62229 0.87586 0.0
H1291 H 0.33842 0.65903 0.8912 0.0
H1292 H 0.32892 0.62323 0.9209 0.0
H1293 H 0.43999 0.59976 0.79849 0.0
H1294 H 0.47899 0.59467 0.81998 0.0
H1295 H 0.45409 0.63659 0.81275 0.0
C1296 C 0.37356 0.36767 0.83182 0.0
C1297 C 0.34272 0.35577 0.84514 0.0
C1298 C 0.39165 0.38556 0.85162 0.0
C1299 C 0.37907 0.39099 0.88579 0.0
C1300 C 0.34825 0.37877 0.89948 0.0
C1301 C 0.3302 0.36199 0.87887 0.0
C1302 C 0.42395 0.39907 0.83584 0.0
C1303 C 0.3341 0.38369 0.93591 0.0
C1304 C 0.4375 0.41432 0.94882 0.0
C1305 C 0.42555 0.44943 0.95083 0.0
C1306 C 0.42293 0.39487 0.92741 0.0
C1307 C 0.39669 0.4113 0.90681 0.0
C1308 C 0.38558 0.44706 0.90787 0.0
C1309 C 0.39976 0.46553 0.93021 0.0
C1310 C 0.43495 0.35666 0.92747 0.0
C1311 C 0.3585 0.46586 0.88556 0.0
H1312 H 0.3838 0.36276 0.80603 0.0
H1313 H 0.30599 0.35393 0.88931 0.0
H1314 H 0.42081 0.4275 0.83639 0.0
H1315 H 0.44595 0.38819 0.85089 0.0
H1316 H 0.43038 0.39269 0.80896 0.0
H1317 H 0.31146 0.3701 0.94355 0.0
H1318 H 0.35419 0.37406 0.95371 0.0
H1319 H 0.32634 0.41154 0.93899 0.0
H1320 H 0.45768 0.40196 0.9645 0.0
H1321 H 0.39107 0.49292 0.931 0.0
H1322 H 0.44416 0.3499 0.90121 0.0
H1323 H 0.41312 0.34222 0.9361 0.0
H1324 H 0.45596 0.34792 0.94448 0.0
H1325 H 0.36549 0.46054 0.85849 0.0
H1326 H 0.35501 0.4942 0.88719 0.0
H1327 H 0.33353 0.45649 0.89337 0.0
C1328 C 0.66325 0.30833 0.83302 0.0
C1329 C 0.6695 0.3133 0.79747 0.0
C1330 C 0.63902 0.33099 0.85094 0.0
C1331 C 0.62105 0.35993 0.83294 0.0
C1332 C 0.62573 0.36399 0.79672 0.0
C1333 C 0.64982 0.3403 0.77926 0.0
C1334 C 0.63449 0.32519 0.88946 0.0
C1335 C 0.60716 0.39455 0.77666 0.0
C1336 C 0.55234 0.40921 0.89063 0.0
C1337 C 0.57197 0.43087 0.9038 0.0
C1338 C 0.56712 0.38742 0.86531 0.0
C1339 C 0.60197 0.38801 0.85281 0.0
C1340 C 0.62069 0.41216 0.86416 0.0
C1341 C 0.60558 0.43292 0.88987 0.0
C1342 C 0.54629 0.36211 0.85391 0.0
C1343 C 0.65761 0.41432 0.85111 0.0
H1344 H 0.67812 0.28705 0.84703 0.0
H1345 H 0.65466 0.34405 0.75172 0.0
H1346 H 0.64592 0.34501 0.90096 0.0
H1347 H 0.60683 0.32777 0.89847 0.0
H1348 H 0.64704 0.29935 0.89906 0.0
H1349 H 0.60857 0.39073 0.749 0.0
H1350 H 0.57979 0.39959 0.78652 0.0
H1351 H 0.61902 0.41785 0.77954 0.0
H1352 H 0.52622 0.4079 0.90146 0.0
H1353 H 0.62046 0.45016 0.8999 0.0
H1354 H 0.55439 0.33613 0.86658 0.0
H1355 H 0.55076 0.3603 0.82591 0.0
H1356 H 0.51834 0.36929 0.86065 0.0
H1357 H 0.67429 0.39124 0.86161 0.0
H1358 H 0.66672 0.43765 0.85869 0.0
H1359 H 0.66078 0.41467 0.82284 0.0
C1360 C 0.68708 0.3628 0.21837 0.0
C1361 C 0.68421 0.32758 0.22178 0.0
C1362 C 0.66472 0.38615 0.19868 0.0
C1363 C 0.6388 0.37383 0.1827 0.0
C1364 C 0.63378 0.33887 0.18913 0.0
C1365 C 0.65681 0.31608 0.20826 0.0
C1366 C 0.67073 0.42331 0.19256 0.0
C1367 C 0.60592 0.32485 0.17336 0.0
C1368 C 0.57296 0.43446 0.1329 0.0
C1369 C 0.58764 0.43193 0.09919 0.0
C1370 C 0.58953 0.41633 0.16067 0.0
C1371 C 0.62147 0.39535 0.15451 0.0
C1372 C 0.63658 0.39318 0.12064 0.0
C1373 C 0.61946 0.41129 0.09352 0.0
C1374 C 0.5724 0.41901 0.19636 0.0
C1375 C 0.6708 0.37137 0.11289 0.0
H1376 H 0.70825 0.37168 0.22891 0.0
H1377 H 0.65427 0.28886 0.2114 0.0
H1378 H 0.68274 0.428 0.16622 0.0
H1379 H 0.64604 0.44084 0.19471 0.0
H1380 H 0.68794 0.42998 0.21082 0.0
H1381 H 0.60206 0.29869 0.18502 0.0
H1382 H 0.58124 0.34227 0.17625 0.0
H1383 H 0.61301 0.32329 0.14558 0.0
H1384 H 0.54846 0.45039 0.13764 0.0
H1385 H 0.63139 0.4094 0.06774 0.0
H1386 H 0.5914 0.42052 0.21494 0.0
H1387 H 0.56009 0.3956 0.20436 0.0
H1388 H 0.55231 0.44188 0.19775 0.0
H1389 H 0.69057 0.37884 0.12778 0.0
H1390 H 0.67984 0.3739 0.08533 0.0
H1391 H 0.6687 0.34383 0.12061 0.0
C1392 C 0.65014 0.6683 0.14423 0.0
C1393 C 0.66351 0.65036 0.17371 0.0
C1394 C 0.63344 0.65195 0.12204 0.0
C1395 C 0.62932 0.61688 0.12976 0.0
C1396 C 0.64112 0.59902 0.16034 0.0
C1397 C 0.65822 0.61595 0.18192 0.0
C1398 C 0.62131 0.67191 0.0897 0.0
C1399 C 0.63667 0.56173 0.16969 0.0
C1400 C 0.5645 0.58088 0.08298 0.0
C1401 C 0.58592 0.56268 0.05834 0.0
C1402 C 0.57822 0.59853 0.10648 0.0
C1403 C 0.61417 0.59854 0.10493 0.0
C1404 C 0.6358 0.58122 0.07939 0.0
C1405 C 0.62145 0.56326 0.0566 0.0
C1406 C 0.55432 0.61631 0.13358 0.0
C1407 C 0.67421 0.58123 0.07646 0.0
H1408 H 0.65329 0.69517 0.13812 0.0
H1409 H 0.66849 0.60188 0.20456 0.0
H1410 H 0.6354 0.66005 0.06711 0.0
H1411 H 0.59362 0.67078 0.08816 0.0
H1412 H 0.62532 0.69938 0.0881 0.0
H1413 H 0.64473 0.55237 0.19559 0.0
H1414 H 0.60943 0.55819 0.16875 0.0
H1415 H 0.65219 0.54541 0.15085 0.0
H1416 H 0.53704 0.58019 0.08486 0.0
H1417 H 0.63813 0.54925 0.03768 0.0
H1418 H 0.5574 0.64398 0.13217 0.0
H1419 H 0.56099 0.60474 0.1593 0.0
H1420 H 0.52693 0.61427 0.13101 0.0
H1421 H 0.68012 0.60811 0.0734 0.0
H1422 H 0.68731 0.56749 0.0545 0.0
H1423 H 0.68506 0.56867 0.10024 0.0
C1424 C 0.32169 0.64918 0.20543 0.0
C1425 C 0.33142 0.67171 0.22688 0.0
C1426 C 0.34634 0.62841 0.18581 0.0
C1427 C 0.38163 0.63064 0.18726 0.0
C1428 C 0.39173 0.65177 0.21044 0.0
C1429 C 0.36642 0.67197 0.23021 0.0
C1430 C 0.33444 0.60572 0.16192 0.0
C1431 C 0.42907 0.65486 0.21265 0.0
C1432 C 0.4407 0.56248 0.14017 0.0
C1433 C 0.44297 0.5791 0.10709 0.0
C1434 C 0.42259 0.5796 0.16743 0.0
C1435 C 0.40705 0.61422 0.16135 0.0
C1436 C 0.412 0.63188 0.12858 0.0
C1437 C 0.42958 0.61397 0.10175 0.0
C1438 C 0.41773 0.55977 0.20188 0.0
C1439 C 0.39649 0.669 0.12115 0.0
H1440 H 0.29464 0.64862 0.2031 0.0
H1441 H 0.37404 0.68943 0.24674 0.0
H1442 H 0.33958 0.61628 0.13507 0.0
H1443 H 0.34886 0.57933 0.16468 0.0
H1444 H 0.30654 0.60399 0.16665 0.0
H1445 H 0.43298 0.66788 0.23541 0.0
H1446 H 0.44487 0.62908 0.21362 0.0
H1447 H 0.43862 0.67007 0.18943 0.0
H1448 H 0.45087 0.53539 0.14427 0.0
H1449 H 0.43165 0.62688 0.0762 0.0
H1450 H 0.39135 0.55274 0.20551 0.0
H1451 H 0.4206 0.57575 0.22279 0.0
H1452 H 0.43627 0.53568 0.20416 0.0
H1453 H 0.36817 0.67064 0.12149 0.0
H1454 H 0.40638 0.68017 0.0958 0.0
H1455 H 0.40196 0.68496 0.14108 0.0
C1456 C 0.36532 0.38865 0.23675 0.0
C1457 C 0.36935 0.35301 0.23475 0.0
C1458 C 0.38665 0.4088 0.21563 0.0
C1459 C 0.41128 0.39265 0.19167 0.0
C1460 C 0.41898 0.35633 0.19387 0.0
C1461 C 0.39786 0.33678 0.21573 0.0
C1462 C 0.37984 0.44751 0.21571 0.0
C1463 C 0.44607 0.33822 0.16967 0.0
C1464 C 0.40915 0.437 0.10231 0.0
C1465 C 0.44098 0.44882 0.09758 0.0
C1466 C 0.39956 0.41825 0.13283 0.0
C1467 C 0.42185 0.41264 0.15967 0.0
C1468 C 0.45384 0.42523 0.15512 0.0
C1469 C 0.46331 0.44262 0.12376 0.0
C1470 C 0.36562 0.40429 0.1362 0.0
C1471 C 0.47837 0.42065 0.18282 0.0
H1472 H 0.34333 0.40103 0.25177 0.0
H1473 H 0.40088 0.30905 0.21462 0.0
H1474 H 0.40427 0.45871 0.21133 0.0
H1475 H 0.36359 0.45837 0.19472 0.0
H1476 H 0.36619 0.45548 0.24023 0.0
H1477 H 0.45177 0.31021 0.17752 0.0
H1478 H 0.43701 0.34138 0.14361 0.0
H1479 H 0.47016 0.34979 0.16834 0.0
H1480 H 0.39198 0.44213 0.08197 0.0
H1481 H 0.48774 0.4525 0.12017 0.0
H1482 H 0.34837 0.41629 0.15692 0.0
H1483 H 0.36971 0.37604 0.1431 0.0
H1484 H 0.35238 0.40931 0.11222 0.0
H1485 H 0.46597 0.41411 0.20859 0.0
H1486 H 0.49005 0.44456 0.18341 0.0
H1487 H 0.49961 0.39976 0.17685 0.0
C1488 C 0.81972 0.71037 0.64911 0.0
C1489 C 0.83066 0.73625 0.6657 0.0
C1490 C 0.8424 0.6905 0.62684 0.0
C1491 C 0.87702 0.69655 0.62093 0.0
C1492 C 0.8875 0.72456 0.63526 0.0
C1493 C 0.86417 0.74411 0.65757 0.0
C1494 C 0.82995 0.66108 0.61203 0.0
C1495 C 0.92399 0.73224 0.62914 0.0
C1496 C 0.9362 0.6127 0.61324 0.0
C1497 C 0.94221 0.61146 0.57774 0.0
C1498 C 0.91689 0.6413 0.62747 0.0
C1499 C 0.90293 0.66957 0.60568 0.0
C1500 C 0.91067 0.66951 0.56978 0.0
C1501 C 0.93044 0.64035 0.55614 0.0
C1502 C 0.90971 0.64021 0.66588 0.0
C1503 C 0.89655 0.69929 0.54573 0.0
H1504 H 0.7937 0.70447 0.65472 0.0
H1505 H 0.87276 0.76431 0.66996 0.0
H1506 H 0.8384 0.66073 0.58441 0.0
H1507 H 0.84123 0.63626 0.62502 0.0
H1508 H 0.80152 0.66264 0.61526 0.0
H1509 H 0.92628 0.75851 0.63586 0.0
H1510 H 0.94071 0.71329 0.64512 0.0
H1511 H 0.93376 0.72982 0.60204 0.0
H1512 H 0.94593 0.59068 0.63006 0.0
H1513 H 0.93518 0.63949 0.52869 0.0
H1514 H 0.88199 0.63899 0.67286 0.0
H1515 H 0.91588 0.66395 0.67544 0.0
H1516 H 0.92472 0.61757 0.67924 0.0
H1517 H 0.86894 0.69822 0.54356 0.0
H1518 H 0.91013 0.69849 0.51976 0.0
H1519 H 0.89853 0.72426 0.55567 0.0
C1520 C 0.31239 0.82988 0.64692 0.0
C1521 C 0.32557 0.80149 0.66835 0.0
C1522 C 0.3344 0.84987 0.62612 0.0
C1523 C 0.37051 0.84166 0.62727 0.0
C1524 C 0.38386 0.81207 0.64798 0.0
C1525 C 0.3612 0.79233 0.66826 0.0
C1526 C 0.31893 0.88088 0.6043 0.0
C1527 C 0.42204 0.8024 0.65025 0.0
C1528 C 0.42982 0.88845 0.5615 0.0
C1529 C 0.43518 0.91617 0.57923 0.0
C1530 C 0.40914 0.8637 0.57674 0.0
C1531 C 0.39378 0.86651 0.6106 0.0
C1532 C 0.39997 0.89393 0.62879 0.0
C1533 C 0.42028 0.91833 0.61292 0.0
C1534 C 0.40299 0.83513 0.55627 0.0
C1535 C 0.38477 0.89781 0.66509 0.0
H1536 H 0.28478 0.83708 0.64723 0.0
H1537 H 0.37134 0.77056 0.68515 0.0
H1538 H 0.32325 0.90479 0.61496 0.0
H1539 H 0.33158 0.88108 0.57793 0.0
H1540 H 0.29086 0.88146 0.60309 0.0
H1541 H 0.42847 0.77675 0.66436 0.0
H1542 H 0.43564 0.80212 0.6243 0.0
H1543 H 0.4319 0.82197 0.6636 0.0
H1544 H 0.44105 0.88655 0.53547 0.0
H1545 H 0.42457 0.93928 0.62716 0.0
H1546 H 0.37597 0.83958 0.54951 0.0
H1547 H 0.40686 0.80987 0.57157 0.0
H1548 H 0.42019 0.83371 0.5323 0.0
H1549 H 0.35632 0.90195 0.66584 0.0
H1550 H 0.39314 0.91975 0.67619 0.0
H1551 H 0.39232 0.87387 0.68153 0.0
C1552 C 0.19842 0.36028 0.68659 0.0
C1553 C 0.1995 0.32452 0.6865 0.0
C1554 C 0.17616 0.38322 0.66626 0.0
C1555 C 0.15443 0.36996 0.64575 0.0
C1556 C 0.15697 0.33394 0.64417 0.0
C1557 C 0.17954 0.31178 0.66433 0.0
C1558 C 0.17466 0.42153 0.66804 0.0
C1559 C 0.13425 0.31858 0.62283 0.0
C1560 C 0.06587 0.41744 0.6302 0.0
C1561 C 0.06972 0.42878 0.59536 0.0
C1562 C 0.09361 0.39947 0.64713 0.0
C1563 C 0.12628 0.39296 0.62896 0.0
C1564 C 0.13071 0.40538 0.5941 0.0
C1565 C 0.10231 0.42291 0.57761 0.0
C1566 C 0.08757 0.38626 0.68419 0.0
C1567 C 0.16525 0.39942 0.57401 0.0
H1568 H 0.21388 0.37035 0.70346 0.0
H1569 H 0.1805 0.28419 0.66361 0.0
H1570 H 0.17466 0.43515 0.64203 0.0
H1571 H 0.15043 0.43161 0.68261 0.0
H1572 H 0.19656 0.42781 0.6808 0.0
H1573 H 0.1412 0.29022 0.62242 0.0
H1574 H 0.10709 0.32404 0.63331 0.0
H1575 H 0.13588 0.33046 0.59615 0.0
H1576 H 0.04087 0.42192 0.64422 0.0
H1577 H 0.10565 0.43203 0.55082 0.0
H1578 H 0.10607 0.39502 0.69971 0.0
H1579 H 0.09187 0.35765 0.68659 0.0
H1580 H 0.0611 0.39504 0.69512 0.0
H1581 H 0.18546 0.40688 0.58832 0.0
H1582 H 0.1654 0.41415 0.54849 0.0
H1583 H 0.17213 0.3716 0.57031 0.0
C1584 C 0.63209 0.1925 0.62486 0.0
C1585 C 0.66621 0.17989 0.63103 0.0
C1586 C 0.61286 0.17352 0.6076 0.0
C1587 C 0.62813 0.14112 0.59672 0.0
C1588 C 0.66329 0.12959 0.60054 0.0
C1589 C 0.68201 0.14932 0.61739 0.0
C1590 C 0.57556 0.18694 0.60326 0.0
C1591 C 0.68046 0.09517 0.5893 0.0
C1592 C 0.56808 0.07419 0.59984 0.0
C1593 C 0.56322 0.07376 0.56524 0.0
C1594 C 0.58976 0.09557 0.61026 0.0
C1595 C 0.60638 0.11748 0.58547 0.0
C1596 C 0.60192 0.11687 0.55041 0.0
C1597 C 0.58057 0.09474 0.54067 0.0
C1598 C 0.59451 0.09503 0.64787 0.0
C1599 C 0.61882 0.14024 0.52333 0.0
H1600 H 0.61974 0.21609 0.63535 0.0
H1601 H 0.70867 0.13992 0.62139 0.0
H1602 H 0.56925 0.1841 0.57696 0.0
H1603 H 0.55906 0.17163 0.62119 0.0
H1604 H 0.56904 0.21447 0.60844 0.0
H1605 H 0.70878 0.09191 0.59036 0.0
H1606 H 0.67021 0.07417 0.60624 0.0
H1607 H 0.67476 0.0921 0.56288 0.0
H1608 H 0.55481 0.05786 0.6188 0.0
H1609 H 0.57656 0.09476 0.51386 0.0
H1610 H 0.58475 0.12071 0.657 0.0
H1611 H 0.62223 0.08944 0.6521 0.0
H1612 H 0.58088 0.07545 0.66364 0.0
H1613 H 0.60894 0.16754 0.52737 0.0
H1614 H 0.61399 0.13539 0.49705 0.0
H1615 H 0.64696 0.13678 0.52532 0.0
C1616 C 0.84831 0.34101 0.39482 0.0
C1617 C 0.8202 0.35502 0.37636 0.0
C1618 C 0.86591 0.36211 0.41123 0.0
C1619 C 0.85494 0.39809 0.4093 0.0
C1620 C 0.82485 0.41204 0.39313 0.0
C1621 C 0.80781 0.39026 0.3767 0.0
C1622 C 0.89777 0.34617 0.42841 0.0
C1623 C 0.81208 0.4502 0.39111 0.0
C1624 C 0.90161 0.44517 0.46544 0.0
C1625 C 0.92924 0.45377 0.44265 0.0
C1626 C 0.87573 0.42895 0.45452 0.0
C1627 C 0.87771 0.42107 0.42011 0.0
C1628 C 0.90427 0.43171 0.39656 0.0
C1629 C 0.92963 0.44803 0.40809 0.0
C1630 C 0.84751 0.41846 0.48026 0.0
C1631 C 0.90725 0.42383 0.35957 0.0
H1632 H 0.85747 0.31362 0.39515 0.0
H1633 H 0.78605 0.40117 0.36244 0.0
H1634 H 0.92077 0.35473 0.41353 0.0
H1635 H 0.89691 0.35482 0.45444 0.0
H1636 H 0.90094 0.31754 0.43044 0.0
H1637 H 0.78544 0.45602 0.38321 0.0
H1638 H 0.81286 0.46061 0.4161 0.0
H1639 H 0.82905 0.4639 0.37213 0.0
H1640 H 0.90085 0.4498 0.49216 0.0
H1641 H 0.95058 0.45497 0.39018 0.0
H1642 H 0.85226 0.39021 0.48694 0.0
H1643 H 0.82222 0.42438 0.46936 0.0
H1644 H 0.84619 0.43155 0.50414 0.0
H1645 H 0.91322 0.39555 0.35803 0.0
H1646 H 0.92771 0.43633 0.34401 0.0
H1647 H 0.88254 0.43256 0.34812 0.0
C1648 C 0.64995 0.78938 0.33141 0.0
C1649 C 0.6849 0.78231 0.33679 0.0
C1650 C 0.62674 0.80844 0.35421 0.0
C1651 C 0.63881 0.81991 0.38327 0.0
C1652 C 0.67337 0.80934 0.39059 0.0
C1653 C 0.69611 0.79119 0.36697 0.0
C1654 C 0.59025 0.81942 0.34517 0.0
C1655 C 0.68725 0.82011 0.42162 0.0
C1656 C 0.60408 0.91077 0.40458 0.0
C1657 C 0.58 0.9058 0.43268 0.0
C1658 C 0.62282 0.88306 0.38844 0.0
C1659 C 0.6183 0.84898 0.40096 0.0
C1660 C 0.59504 0.84338 0.43002 0.0
C1661 C 0.57588 0.87191 0.44541 0.0
C1662 C 0.64727 0.89048 0.35752 0.0
C1663 C 0.59014 0.80738 0.44455 0.0
H1664 H 0.6413 0.78256 0.30804 0.0
H1665 H 0.72313 0.78532 0.37135 0.0
H1666 H 0.57193 0.81742 0.36817 0.0
H1667 H 0.5873 0.84683 0.33469 0.0
H1668 H 0.58325 0.8037 0.32569 0.0
H1669 H 0.71184 0.80397 0.42759 0.0
H1670 H 0.69201 0.84733 0.41677 0.0
H1671 H 0.66846 0.81844 0.4443 0.0
H1672 H 0.60797 0.93662 0.39441 0.0
H1673 H 0.55743 0.86765 0.46702 0.0
H1674 H 0.64071 0.87819 0.33535 0.0
H1675 H 0.67393 0.87946 0.36281 0.0
H1676 H 0.64668 0.91853 0.35018 0.0
H1677 H 0.57789 0.79465 0.42603 0.0
H1678 H 0.57378 0.80728 0.46909 0.0
H1679 H 0.61536 0.79169 0.44877 0.0
C1680 C 0.20723 0.67502 0.36971 0.0
C1681 C 0.2012 0.68238 0.33504 0.0
C1682 C 0.18569 0.65583 0.39227 0.0
C1683 C 0.15741 0.6438 0.37995 0.0
C1684 C 0.15125 0.65129 0.34505 0.0
C1685 C 0.17313 0.67028 0.32316 0.0
C1686 C 0.19327 0.64826 0.42924 0.0
C1687 C 0.12154 0.63902 0.33062 0.0
C1688 C 0.11906 0.56484 0.42048 0.0
C1689 C 0.08752 0.5794 0.43623 0.0
C1690 C 0.14285 0.58549 0.4039 0.0
C1691 C 0.13506 0.62183 0.40268 0.0
C1692 C 0.10411 0.63676 0.42007 0.0
C1693 C 0.08077 0.61537 0.43678 0.0
C1694 C 0.17557 0.5683 0.38611 0.0
C1695 C 0.09477 0.67537 0.41947 0.0
H1696 H 0.22865 0.68438 0.37926 0.0
H1697 H 0.16801 0.67581 0.29652 0.0
H1698 H 0.17053 0.65803 0.44611 0.0
H1699 H 0.19858 0.61999 0.43556 0.0
H1700 H 0.21564 0.66011 0.4351 0.0
H1701 H 0.11954 0.64797 0.30319 0.0
H1702 H 0.12458 0.61043 0.33331 0.0
H1703 H 0.09705 0.64841 0.34517 0.0
H1704 H 0.12493 0.53707 0.42037 0.0
H1705 H 0.0566 0.62693 0.44891 0.0
H1706 H 0.19808 0.57907 0.39318 0.0
H1707 H 0.17464 0.57345 0.35802 0.0
H1708 H 0.17956 0.53995 0.39247 0.0
H1709 H 0.1167 0.68732 0.42617 0.0
H1710 H 0.07205 0.68292 0.43739 0.0
H1711 H 0.08891 0.68608 0.39326 0.0
C1712 C 0.32628 0.19025 0.3345 0.0
C1713 C 0.29928 0.17661 0.32241 0.0
C1714 C 0.3497 0.16981 0.35514 0.0
C1715 C 0.34609 0.13475 0.3641 0.0
C1716 C 0.31816 0.12106 0.35314 0.0
C1717 C 0.29505 0.14217 0.33234 0.0
C1718 C 0.37913 0.18545 0.36621 0.0
C1719 C 0.3134 0.08384 0.36236 0.0
C1720 C 0.43017 0.07814 0.38032 0.0
C1721 C 0.42966 0.07593 0.41611 0.0
C1722 C 0.40249 0.09599 0.36325 0.0
C1723 C 0.3734 0.11206 0.38236 0.0
C1724 C 0.37205 0.10889 0.41853 0.0
C1725 C 0.40022 0.09085 0.43501 0.0
C1726 C 0.40501 0.09876 0.32463 0.0
C1727 C 0.34138 0.12555 0.43977 0.0
H1728 H 0.32968 0.2169 0.32721 0.0
H1729 H 0.27417 0.13147 0.32326 0.0
H1730 H 0.3802 0.18091 0.39431 0.0
H1731 H 0.40379 0.1729 0.35423 0.0
H1732 H 0.37701 0.21364 0.35896 0.0
H1733 H 0.2886 0.07807 0.35482 0.0
H1734 H 0.33459 0.06687 0.34934 0.0
H1735 H 0.3145 0.07726 0.39028 0.0
H1736 H 0.45256 0.06638 0.36541 0.0
H1737 H 0.39943 0.08912 0.46267 0.0
H1738 H 0.40573 0.12602 0.31463 0.0
H1739 H 0.38207 0.09054 0.31544 0.0
H1740 H 0.42832 0.08284 0.31367 0.0
H1741 H 0.3398 0.15401 0.43556 0.0
H1742 H 0.34282 0.11791 0.46753 0.0
H1743 H 0.3173 0.11854 0.4318 0.0
C1744 C 0.67442 0.8302 0.6677 0.0
C1745 C 0.70271 0.84265 0.67862 0.0
C1746 C 0.65176 0.85102 0.64654 0.0
C1747 C 0.65749 0.88522 0.6358 0.0
C1748 C 0.6866 0.89768 0.64574 0.0
C1749 C 0.70887 0.87625 0.66715 0.0
C1750 C 0.62093 0.83675 0.63672 0.0
C1751 C 0.69365 0.93394 0.63457 0.0
C1752 C 0.60455 0.92808 0.56361 0.0
C1753 C 0.57592 0.94523 0.58194 0.0
C1754 C 0.63224 0.90971 0.58061 0.0
C1755 C 0.63121 0.90849 0.61671 0.0
C1756 C 0.6031 0.92699 0.63512 0.0
C1757 C 0.57591 0.94513 0.61755 0.0
C1758 C 0.66192 0.8905 0.56009 0.0
C1759 C 0.60092 0.92637 0.67363 0.0
H1760 H 0.66946 0.80423 0.67626 0.0
H1761 H 0.73078 0.886 0.67529 0.0
H1762 H 0.59702 0.85137 0.64805 0.0
H1763 H 0.61991 0.83985 0.60857 0.0
H1764 H 0.62124 0.80903 0.64556 0.0
H1765 H 0.71899 0.93862 0.64172 0.0
H1766 H 0.69288 0.93915 0.60648 0.0
H1767 H 0.67337 0.95265 0.6466 0.0
H1768 H 0.60495 0.92817 0.53608 0.0
H1769 H 0.55421 0.95868 0.63199 0.0
H1770 H 0.66163 0.86234 0.5655 0.0
H1771 H 0.6867 0.89623 0.56761 0.0
H1772 H 0.66076 0.89714 0.53215 0.0
H1773 H 0.59851 0.89986 0.68515 0.0
H1774 H 0.57863 0.94417 0.68386 0.0
H1775 H 0.62473 0.93356 0.682 0.0
C1776 C 0.68816 0.2061 0.36273 0.0
C1777 C 0.6895 0.20546 0.32709 0.0
C1778 C 0.66502 0.18814 0.38461 0.0
C1779 C 0.64233 0.16959 0.37049 0.0
C1780 C 0.6427 0.17019 0.33449 0.0
C1781 C 0.66633 0.18779 0.31338 0.0
C1782 C 0.66581 0.18784 0.4228 0.0
C1783 C 0.61882 0.15123 0.31814 0.0
C1784 C 0.61041 0.08888 0.41508 0.0
C1785 C 0.57583 0.10062 0.42466 0.0
C1786 C 0.63282 0.11151 0.39959 0.0
C1787 C 0.62036 0.14692 0.3928 0.0
C1788 C 0.58589 0.15932 0.40401 0.0
C1789 C 0.56409 0.13605 0.42012 0.0
C1790 C 0.66944 0.09709 0.38884 0.0
C1791 C 0.57146 0.19677 0.39716 0.0
H1792 H 0.70596 0.21964 0.37357 0.0
H1793 H 0.66682 0.18743 0.28589 0.0
H1794 H 0.63949 0.19444 0.43507 0.0
H1795 H 0.67581 0.16154 0.4335 0.0
H1796 H 0.68231 0.20617 0.42979 0.0
H1797 H 0.62024 0.15663 0.2899 0.0
H1798 H 0.62552 0.12305 0.32424 0.0
H1799 H 0.5919 0.15853 0.32855 0.0
H1800 H 0.61987 0.06161 0.41903 0.0
H1801 H 0.53742 0.14532 0.42746 0.0
H1802 H 0.68757 0.11293 0.39729 0.0
H1803 H 0.67315 0.09795 0.36054 0.0
H1804 H 0.67622 0.06998 0.39943 0.0
H1805 H 0.58916 0.21363 0.4046 0.0
H1806 H 0.54585 0.2032 0.4111 0.0
H1807 H 0.56884 0.20271 0.36936 0.0
C1808 C 0.8369 0.69185 0.3497 0.0
C1809 C 0.8139 0.67949 0.33045 0.0
C1810 C 0.85807 0.66954 0.37114 0.0
C1811 C 0.85621 0.63377 0.37378 0.0
C1812 C 0.8318 0.62117 0.35591 0.0
C1813 C 0.81094 0.64421 0.3343 0.0
C1814 C 0.8838 0.68416 0.38951 0.0
C1815 C 0.82875 0.58323 0.35851 0.0
C1816 C 0.94089 0.57936 0.39208 0.0
C1817 C 0.937 0.5721 0.42771 0.0
C1818 C 0.91423 0.59808 0.37416 0.0
C1819 C 0.88256 0.60972 0.39214 0.0
C1820 C 0.87789 0.60146 0.42792 0.0
C1821 C 0.90524 0.58289 0.44535 0.0
C1822 C 0.92054 0.60663 0.33608 0.0
C1823 C 0.84436 0.6131 0.44792 0.0
H1824 H 0.83916 0.71911 0.34737 0.0
H1825 H 0.79309 0.63447 0.31975 0.0
H1826 H 0.88167 0.67542 0.41713 0.0
H1827 H 0.91023 0.67462 0.37911 0.0
H1828 H 0.88027 0.7128 0.38672 0.0
H1829 H 0.80562 0.57815 0.34696 0.0
H1830 H 0.85179 0.56917 0.34511 0.0
H1831 H 0.82762 0.57255 0.38564 0.0
H1832 H 0.96517 0.57102 0.37804 0.0
H1833 H 0.90179 0.57707 0.4728 0.0
H1834 H 0.91973 0.63491 0.3305 0.0
H1835 H 0.90008 0.59872 0.32245 0.0
H1836 H 0.9458 0.59383 0.32558 0.0
H1837 H 0.84091 0.64151 0.44861 0.0
H1838 H 0.84335 0.60109 0.47463 0.0
H1839 H 0.82248 0.6067 0.43528 0.0
C1840 C 0.38358 0.81585 0.3847 0.0
C1841 C 0.34964 0.82404 0.376 0.0
C1842 C 0.40003 0.84037 0.39767 0.0
C1843 C 0.3822 0.87394 0.40133 0.0
C1844 C 0.34758 0.88202 0.39349 0.0
C1845 C 0.33161 0.85682 0.38108 0.0
C1846 C 0.43681 0.83071 0.40641 0.0
C1847 C 0.32794 0.91765 0.39672 0.0
C1848 C 0.42099 0.92932 0.45604 0.0
C1849 C 0.44147 0.94716 0.43141 0.0
C1850 C 0.40065 0.90614 0.44656 0.0
C1851 C 0.40052 0.90101 0.41162 0.0
C1852 C 0.41958 0.92034 0.38649 0.0
C1853 C 0.44001 0.94309 0.39671 0.0
C1854 C 0.3807 0.88591 0.47406 0.0
C1855 C 0.41949 0.91597 0.34889 0.0
H1856 H 0.39738 0.79042 0.38081 0.0
H1857 H 0.30549 0.86327 0.37383 0.0
H1858 H 0.45368 0.84603 0.38893 0.0
H1859 H 0.43936 0.83685 0.43282 0.0
H1860 H 0.44617 0.8029 0.40431 0.0
H1861 H 0.3005 0.919 0.3919 0.0
H1862 H 0.32931 0.92584 0.42261 0.0
H1863 H 0.33977 0.93642 0.37812 0.0
H1864 H 0.42195 0.93227 0.48296 0.0
H1865 H 0.45551 0.95703 0.37755 0.0
H1866 H 0.39204 0.85834 0.47521 0.0
H1867 H 0.35365 0.88735 0.46802 0.0
H1868 H 0.38091 0.89531 0.49967 0.0
H1869 H 0.43193 0.88967 0.34354 0.0
H1870 H 0.43334 0.935 0.33253 0.0
H1871 H 0.39273 0.91877 0.34155 0.0
C1872 C 0.14926 0.2689 0.35347 0.0
C1873 C 0.17436 0.28606 0.33411 0.0
C1874 C 0.12725 0.28509 0.37915 0.0
C1875 C 0.12999 0.31943 0.38512 0.0
C1876 C 0.15589 0.33648 0.36624 0.0
C1877 C 0.17786 0.31952 0.34122 0.0
C1878 C 0.10046 0.26582 0.39919 0.0
C1879 C 0.1595 0.37326 0.37139 0.0
C1880 C 0.05418 0.3833 0.41394 0.0
C1881 C 0.06239 0.38888 0.44648 0.0
C1882 C 0.07455 0.35868 0.39469 0.0
C1883 C 0.10394 0.33915 0.40838 0.0
C1884 C 0.11064 0.34267 0.44249 0.0
C1885 C 0.08983 0.36783 0.46116 0.0
C1886 C 0.0664 0.35603 0.35848 0.0
C1887 C 0.14129 0.32188 0.45827 0.0
H1888 H 0.14662 0.2429 0.34839 0.0
H1889 H 0.19718 0.33298 0.32646 0.0
H1890 H 0.10085 0.26806 0.42697 0.0
H1891 H 0.07455 0.27736 0.39187 0.0
H1892 H 0.1044 0.23808 0.39455 0.0
H1893 H 0.18189 0.38229 0.35574 0.0
H1894 H 0.13592 0.39056 0.36439 0.0
H1895 H 0.1624 0.3758 0.39868 0.0
H1896 H 0.03307 0.39996 0.4026 0.0
H1897 H 0.09639 0.37258 0.48618 0.0
H1898 H 0.06739 0.32869 0.3534 0.0
H1899 H 0.08593 0.3672 0.34034 0.0
H1900 H 0.04064 0.36998 0.35313 0.0
H1901 H 0.14415 0.29462 0.4522 0.0
H1902 H 0.13925 0.32268 0.48647 0.0
H1903 H 0.16496 0.33244 0.44751 0.0
C1904 C 0.34797 0.18466 0.69277 0.0
C1905 C 0.32939 0.21721 0.6855 0.0
C1906 C 0.36969 0.16809 0.66734 0.0
C1907 C 0.37207 0.18412 0.63355 0.0
C1908 C 0.35432 0.21772 0.62645 0.0
C1909 C 0.33323 0.23401 0.65268 0.0
C1910 C 0.38854 0.13254 0.67627 0.0
C1911 C 0.35576 0.23548 0.59076 0.0
C1912 C 0.44385 0.13945 0.57551 0.0
C1913 C 0.42704 0.11462 0.56354 0.0
C1914 C 0.42588 0.16396 0.59675 0.0
C1915 C 0.39022 0.1639 0.60549 0.0
C1916 C 0.37271 0.14079 0.59078 0.0
C1917 C 0.39146 0.11604 0.57044 0.0
C1918 C 0.44564 0.18773 0.61221 0.0
C1919 C 0.33458 0.14038 0.59865 0.0
H1920 H 0.34454 0.17164 0.71816 0.0
H1921 H 0.31821 0.25896 0.64705 0.0
H1922 H 0.3773 0.1132 0.66388 0.0
H1923 H 0.41599 0.13106 0.66656 0.0
H1924 H 0.38703 0.12541 0.70429 0.0
H1925 H 0.34458 0.26311 0.59037 0.0
H1926 H 0.38262 0.23357 0.57918 0.0
H1927 H 0.34113 0.2225 0.57446 0.0
H1928 H 0.47151 0.13791 0.57062 0.0
H1929 H 0.37856 0.09668 0.56125 0.0
H1930 H 0.44841 0.17876 0.6395 0.0
H1931 H 0.43162 0.21434 0.61129 0.0
H1932 H 0.47172 0.18832 0.59898 0.0
H1933 H 0.32949 0.12949 0.62538 0.0
H1934 H 0.32411 0.12457 0.5814 0.0
H1935 H 0.32051 0.16695 0.59631 0.0
C1936 C 0.79987 0.32307 0.65562 0.0
C1937 C 0.80468 0.31635 0.69061 0.0
C1938 C 0.82149 0.34265 0.63358 0.0
C1939 C 0.84879 0.35565 0.64671 0.0
C1940 C 0.85368 0.34892 0.68198 0.0
C1941 C 0.83162 0.3296 0.70338 0.0
C1942 C 0.81512 0.34948 0.59625 0.0
C1943 C 0.88236 0.36212 0.69724 0.0
C1944 C 0.92597 0.38401 0.59037 0.0
C1945 C 0.91862 0.42006 0.58971 0.0
C1946 C 0.90289 0.36261 0.60762 0.0
C1947 C 0.8715 0.37755 0.62425 0.0
C1948 C 0.86322 0.4139 0.62196 0.0
C1949 C 0.88682 0.43457 0.60497 0.0
C1950 C 0.91286 0.324 0.60947 0.0
C1951 C 0.82998 0.4311 0.63879 0.0
H1952 H 0.77934 0.31284 0.64537 0.0
H1953 H 0.83587 0.32452 0.73026 0.0
H1954 H 0.80999 0.37767 0.58932 0.0
H1955 H 0.83835 0.33936 0.58022 0.0
H1956 H 0.79304 0.33747 0.5899 0.0
H1957 H 0.88337 0.35385 0.72493 0.0
H1958 H 0.90743 0.35274 0.68372 0.0
H1959 H 0.87896 0.39071 0.69391 0.0
H1960 H 0.9504 0.37248 0.57873 0.0
H1961 H 0.88053 0.46238 0.60424 0.0
H1962 H 0.89162 0.31143 0.60213 0.0
H1963 H 0.91761 0.31411 0.63617 0.0
H1964 H 0.93638 0.31628 0.59264 0.0
H1965 H 0.80789 0.41989 0.63137 0.0
H1966 H 0.82583 0.45938 0.63192 0.0
H1967 H 0.83021 0.42648 0.66698 0.0
C1968 C 0.16851 0.65512 0.62135 0.0
C1969 C 0.19835 0.63953 0.63637 0.0
C1970 C 0.14695 0.6353 0.60827 0.0
C1971 C 0.15545 0.59899 0.61027 0.0
C1972 C 0.18638 0.58317 0.62385 0.0
C1973 C 0.20747 0.60367 0.63683 0.0
C1974 C 0.11415 0.65313 0.59396 0.0
C1975 C 0.19641 0.54454 0.62599 0.0
C1976 C 0.07784 0.55226 0.6146 0.0
C1977 C 0.07697 0.54621 0.58029 0.0
C1978 C 0.1043 0.56794 0.625 0.0
C1979 C 0.1305 0.57774 0.6005 0.0
C1980 C 0.13083 0.57001 0.56621 0.0
C1981 C 0.10407 0.55429 0.55651 0.0
C1982 C 0.10319 0.57566 0.66188 0.0
C1983 C 0.15842 0.57994 0.5394 0.0
H1984 H 0.16102 0.68274 0.62135 0.0
H1985 H 0.23073 0.59156 0.64809 0.0
H1986 H 0.11216 0.645 0.56818 0.0
H1987 H 0.09172 0.6456 0.61062 0.0
H1988 H 0.11251 0.68166 0.59209 0.0
H1989 H 0.22285 0.53661 0.63398 0.0
H1990 H 0.17825 0.53211 0.64474 0.0
H1991 H 0.19478 0.53461 0.60092 0.0
H1992 H 0.05723 0.54583 0.63321 0.0
H1993 H 0.10381 0.54953 0.52994 0.0
H1994 H 0.09847 0.60398 0.66352 0.0
H1995 H 0.12823 0.56598 0.67236 0.0
H1996 H 0.08269 0.56394 0.67822 0.0
H1997 H 0.15546 0.60842 0.53438 0.0
H1998 H 0.1572 0.56864 0.5149 0.0
H1999 H 0.18426 0.57148 0.5486 0.0
loop_
_geom_bond_atom_site_label_1
_geom_bond_atom_site_label_2
_geom_bond_distance
_geom_bond_site_symmetry_2
_ccdc_geom_bond_type
C0 O16 1.251 . S
C0 O18 1.254 . S
N1 C2 1.333 . S
N1 C6 1.307 . S
N1 Zn7 2.020 . S
C2 N1 1.333 . S
C2 C3 1.379 . S
C2 H20 0.952 . S
C3 C2 1.379 . S
C3 C4 1.390 . S
C3 H30 0.949 . S
C4 C3 1.390 . S
C4 C5 1.357 . S
C5 C4 1.357 . S
C5 C6 1.370 . S
C5 H31 0.950 . S
C6 N1 1.307 . S
C6 C5 1.370 . S
C6 H24 0.948 . S
Zn7 N1 2.020 . S
Zn7 O16 2.039 . S
Zn7 O22 2.034 . S
Zn7 O26 2.025 . S
Zn7 O28 2.024 . S
C8 O27 1.246 . S
C8 O28 1.249 . S
N9 C10 1.307 . S
N9 C11 1.333 . S
N9 Zn15 2.020 . S
C10 N9 1.307 . S
C10 C14 1.370 . S
C10 H21 0.948 . S
C11 N9 1.333 . S
C11 C12 1.379 . S
C11 H19 0.952 . S
C12 C11 1.379 . S
C12 C13 1.390 . S
C12 H32 0.949 . S
C13 C12 1.390 . S
C13 C14 1.357 . S
C14 C10 1.370 . S
C14 C13 1.357 . S
C14 H33 0.950 . S
Zn15 N9 2.020 . S
Zn15 O18 2.025 . S
Zn15 O23 2.024 . S
Zn15 O25 2.039 . S
Zn15 O27 2.034 . S
O16 C0 1.251 . S
O16 Zn7 2.039 . S
C17 O22 1.246 . S
C17 O23 1.249 . S
O18 C0 1.254 . S
O18 Zn15 2.025 . S
H19 C11 0.952 . S
H20 C2 0.952 . S
H21 C10 0.948 . S
O22 Zn7 2.034 . S
O22 C17 1.246 . S
O23 Zn15 2.024 . S
O23 C17 1.249 . S
H24 C6 0.948 . S
O25 Zn15 2.039 . S
O25 C29 1.251 . S
O26 Zn7 2.025 . S
O26 C29 1.254 . S
O27 C8 1.246 . S
O27 Zn15 2.034 . S
O28 Zn7 2.024 . S
O28 C8 1.249 . S
C29 O25 1.251 . S
C29 O26 1.254 . S
H30 C3 0.949 . S
H31 C5 0.950 . S
H32 C12 0.949 . S
H33 C14 0.950 . S
C34 O50 1.251 . S
C34 O52 1.254 . S
N35 C36 1.333 . S
N35 C40 1.307 . S
N35 Zn41 2.020 . S
C36 N35 1.333 . S
C36 C37 1.379 . S
C36 H54 0.952 . S
C37 C36 1.379 . S
C37 C38 1.390 . S
C37 H64 0.949 . S
C38 C37 1.390 . S
C38 C39 1.357 . S
C39 C38 1.357 . S
C39 C40 1.370 . S
C39 H65 0.950 . S
C40 N35 1.307 . S
C40 C39 1.370 . S
C40 H58 0.948 . S
Zn41 N35 2.020 . S
Zn41 O50 2.039 . S
Zn41 O56 2.034 . S
Zn41 O60 2.025 . S
Zn41 O62 2.024 . S
C42 O61 1.246 . S
C42 O62 1.249 . S
N43 C44 1.307 . S
N43 C45 1.333 . S
N43 Zn49 2.020 . S
C44 N43 1.307 . S
C44 C48 1.370 . S
C44 H55 0.948 . S
C45 N43 1.333 . S
C45 C46 1.379 . S
C45 H53 0.952 . S
C46 C45 1.379 . S
C46 C47 1.390 . S
C46 H66 0.949 . S
C47 C46 1.390 . S
C47 C48 1.357 . S
C48 C44 1.370 . S
C48 C47 1.357 . S
C48 H67 0.950 . S
Zn49 N43 2.020 . S
Zn49 O52 2.025 . S
Zn49 O57 2.024 . S
Zn49 O59 2.039 . S
Zn49 O61 2.034 . S
O50 C34 1.251 . S
O50 Zn41 2.039 . S
C51 O56 1.246 . S
C51 O57 1.249 . S
O52 C34 1.254 . S
O52 Zn49 2.025 . S
H53 C45 0.952 . S
H54 C36 0.952 . S
H55 C44 0.948 . S
O56 Zn41 2.034 . S
O56 C51 1.246 . S
O57 Zn49 2.024 . S
O57 C51 1.249 . S
H58 C40 0.948 . S
O59 Zn49 2.039 . S
O59 C63 1.251 . S
O60 Zn41 2.025 . S
O60 C63 1.254 . S
O61 C42 1.246 . S
O61 Zn49 2.034 . S
O62 Zn41 2.024 . S
O62 C42 1.249 . S
C63 O59 1.251 . S
C63 O60 1.254 . S
H64 C37 0.949 . S
H65 C39 0.950 . S
H66 C46 0.949 . S
H67 C48 0.950 . S
C68 O84 1.251 . S
C68 O86 1.254 . S
N69 C70 1.333 . S
N69 C74 1.307 . S
N69 Zn75 2.020 . S
C70 N69 1.333 . S
C70 C71 1.379 . S
C70 H88 0.952 . S
C71 C70 1.379 . S
C71 C72 1.390 . S
C71 H98 0.949 . S
C72 C71 1.390 . S
C72 C73 1.357 . S
C73 C72 1.357 . S
C73 C74 1.370 . S
C73 H99 0.950 . S
C74 N69 1.307 . S
C74 C73 1.370 . S
C74 H92 0.948 . S
Zn75 N69 2.020 . S
Zn75 O84 2.039 . S
Zn75 O90 2.034 . S
Zn75 O94 2.025 . S
Zn75 O96 2.024 . S
C76 O95 1.246 . S
C76 O96 1.249 . S
N77 C78 1.307 . S
N77 C79 1.333 . S
N77 Zn83 2.020 . S
C78 N77 1.307 . S
C78 C82 1.370 . S
C78 H89 0.948 . S
C79 N77 1.333 . S
C79 C80 1.379 . S
C79 H87 0.952 . S
C80 C79 1.379 . S
C80 C81 1.390 . S
C80 H100 0.949 . S
C81 C80 1.390 . S
C81 C82 1.357 . S
C82 C78 1.370 . S
C82 C81 1.357 . S
C82 H101 0.950 . S
Zn83 N77 2.020 . S
Zn83 O86 2.025 . S
Zn83 O91 2.024 . S
Zn83 O93 2.039 . S
Zn83 O95 2.034 . S
O84 C68 1.251 . S
O84 Zn75 2.039 . S
C85 O90 1.246 . S
C85 O91 1.249 . S
O86 C68 1.254 . S
O86 Zn83 2.025 . S
H87 C79 0.952 . S
H88 C70 0.952 . S
H89 C78 0.948 . S
O90 Zn75 2.034 . S
O90 C85 1.246 . S
O91 Zn83 2.024 . S
O91 C85 1.249 . S
H92 C74 0.948 . S
O93 Zn83 2.039 . S
O93 C97 1.251 . S
O94 Zn75 2.025 . S
O94 C97 1.254 . S
O95 C76 1.246 . S
O95 Zn83 2.034 . S
O96 Zn75 2.024 . S
O96 C76 1.249 . S
C97 O93 1.251 . S
C97 O94 1.254 . S
H98 C71 0.949 . S
H99 C73 0.950 . S
H100 C80 0.949 . S
H101 C82 0.950 . S
C102 O118 1.251 . S
C102 O120 1.254 . S
N103 C104 1.333 . S
N103 C108 1.307 . S
N103 Zn109 2.020 . S
C104 N103 1.333 . S
C104 C105 1.379 . S
C104 H122 0.952 . S
C105 C104 1.379 . S
C105 C106 1.390 . S
C105 H132 0.949 . S
C106 C105 1.390 . S
C106 C107 1.357 . S
C107 C106 1.357 . S
C107 C108 1.370 . S
C107 H133 0.950 . S
C108 N103 1.307 . S
C108 C107 1.370 . S
C108 H126 0.948 . S
Zn109 N103 2.020 . S
Zn109 O118 2.039 . S
Zn109 O124 2.034 . S
Zn109 O128 2.025 . S
Zn109 O130 2.024 . S
C110 O129 1.246 . S
C110 O130 1.249 . S
N111 C112 1.307 . S
N111 C113 1.333 . S
N111 Zn117 2.020 . S
C112 N111 1.307 . S
C112 C116 1.370 . S
C112 H123 0.948 . S
C113 N111 1.333 . S
C113 C114 1.379 . S
C113 H121 0.952 . S
C114 C113 1.379 . S
C114 C115 1.390 . S
C114 H134 0.949 . S
C115 C114 1.390 . S
C115 C116 1.357 . S
C116 C112 1.370 . S
C116 C115 1.357 . S
C116 H135 0.950 . S
Zn117 N111 2.020 . S
Zn117 O120 2.025 . S
Zn117 O125 2.024 . S
Zn117 O127 2.039 . S
Zn117 O129 2.034 . S
O118 C102 1.251 . S
O118 Zn109 2.039 . S
C119 O124 1.246 . S
C119 O125 1.249 . S
O120 C102 1.254 . S
O120 Zn117 2.025 . S
H121 C113 0.952 . S
H122 C104 0.952 . S
H123 C112 0.948 . S
O124 Zn109 2.034 . S
O124 C119 1.246 . S
O125 Zn117 2.024 . S
O125 C119 1.249 . S
H126 C108 0.948 . S
O127 Zn117 2.039 . S
O127 C131 1.251 . S
O128 Zn109 2.025 . S
O128 C131 1.254 . S
O129 C110 1.246 . S
O129 Zn117 2.034 . S
O130 Zn109 2.024 . S
O130 C110 1.249 . S
C131 O127 1.251 . S
C131 O128 1.254 . S
H132 C105 0.949 . S
H133 C107 0.950 . S
H134 C114 0.949 . S
H135 C116 0.950 . S
C136 O152 1.251 . S
C136 O154 1.254 . S
N137 C138 1.333 . S
N137 C142 1.307 . S
N137 Zn143 2.020 . S
C138 N137 1.333 . S
C138 C139 1.379 . S
C138 H156 0.952 . S
C139 C138 1.379 . S
C139 C140 1.390 . S
C139 H166 0.949 . S
C140 C139 1.390 . S
C140 C141 1.357 . S
C141 C140 1.357 . S
C141 C142 1.370 . S
C141 H167 0.950 . S
C142 N137 1.307 . S
C142 C141 1.370 . S
C142 H160 0.948 . S
Zn143 N137 2.020 . S
Zn143 O152 2.039 . S
Zn143 O158 2.034 . S
Zn143 O162 2.025 . S
Zn143 O164 2.024 . S
C144 O163 1.246 . S
C144 O164 1.249 . S
N145 C146 1.307 . S
N145 C147 1.333 . S
N145 Zn151 2.020 . S
C146 N145 1.307 . S
C146 C150 1.370 . S
C146 H157 0.948 . S
C147 N145 1.333 . S
C147 C148 1.379 . S
C147 H155 0.952 . S
C148 C147 1.379 . S
C148 C149 1.390 . S
C148 H168 0.949 . S
C149 C148 1.390 . S
C149 C150 1.357 . S
C150 C146 1.370 . S
C150 C149 1.357 . S
C150 H169 0.950 . S
Zn151 N145 2.020 . S
Zn151 O154 2.025 . S
Zn151 O159 2.024 . S
Zn151 O161 2.039 . S
Zn151 O163 2.034 . S
O152 C136 1.251 . S
O152 Zn143 2.039 . S
C153 O158 1.246 . S
C153 O159 1.249 . S
O154 C136 1.254 . S
O154 Zn151 2.025 . S
H155 C147 0.952 . S
H156 C138 0.952 . S
H157 C146 0.948 . S
O158 Zn143 2.034 . S
O158 C153 1.246 . S
O159 Zn151 2.024 . S
O159 C153 1.249 . S
H160 C142 0.948 . S
O161 Zn151 2.039 . S
O161 C165 1.251 . S
O162 Zn143 2.025 . S
O162 C165 1.254 . S
O163 C144 1.246 . S
O163 Zn151 2.034 . S
O164 Zn143 2.024 . S
O164 C144 1.249 . S
C165 O161 1.251 . S
C165 O162 1.254 . S
H166 C139 0.949 . S
H167 C141 0.950 . S
H168 C148 0.949 . S
H169 C150 0.950 . S
C170 O186 1.251 . S
C170 O188 1.254 . S
N171 C172 1.333 . S
N171 C176 1.307 . S
N171 Zn177 2.020 . S
C172 N171 1.333 . S
C172 C173 1.379 . S
C172 H190 0.952 . S
C173 C172 1.379 . S
C173 C174 1.390 . S
C173 H200 0.949 . S
C174 C173 1.390 . S
C174 C175 1.357 . S
C175 C174 1.357 . S
C175 C176 1.370 . S
C175 H201 0.950 . S
C176 N171 1.307 . S
C176 C175 1.370 . S
C176 H194 0.948 . S
Zn177 N171 2.020 . S
Zn177 O186 2.039 . S
Zn177 O192 2.034 . S
Zn177 O196 2.025 . S
Zn177 O198 2.024 . S
C178 O197 1.246 . S
C178 O198 1.249 . S
N179 C180 1.307 . S
N179 C181 1.333 . S
N179 Zn185 2.020 . S
C180 N179 1.307 . S
C180 C184 1.370 . S
C180 H191 0.948 . S
C181 N179 1.333 . S
C181 C182 1.379 . S
C181 H189 0.952 . S
C182 C181 1.379 . S
C182 C183 1.390 . S
C182 H202 0.949 . S
C183 C182 1.390 . S
C183 C184 1.357 . S
C184 C180 1.370 . S
C184 C183 1.357 . S
C184 H203 0.950 . S
Zn185 N179 2.020 . S
Zn185 O188 2.025 . S
Zn185 O193 2.024 . S
Zn185 O195 2.039 . S
Zn185 O197 2.034 . S
O186 C170 1.251 . S
O186 Zn177 2.039 . S
C187 O192 1.246 . S
C187 O193 1.249 . S
O188 C170 1.254 . S
O188 Zn185 2.025 . S
H189 C181 0.952 . S
H190 C172 0.952 . S
H191 C180 0.948 . S
O192 Zn177 2.034 . S
O192 C187 1.246 . S
O193 Zn185 2.024 . S
O193 C187 1.249 . S
H194 C176 0.948 . S
O195 Zn185 2.039 . S
O195 C199 1.251 . S
O196 Zn177 2.025 . S
O196 C199 1.254 . S
O197 C178 1.246 . S
O197 Zn185 2.034 . S
O198 Zn177 2.024 . S
O198 C178 1.249 . S
C199 O195 1.251 . S
C199 O196 1.254 . S
H200 C173 0.949 . S
H201 C175 0.950 . S
H202 C182 0.949 . S
H203 C184 0.950 . S
C204 O220 1.251 . S
C204 O222 1.254 . S
N205 C206 1.333 . S
N205 C210 1.307 . S
N205 Zn211 2.020 . S
C206 N205 1.333 . S
C206 C207 1.379 . S
C206 H224 0.952 . S
C207 C206 1.379 . S
C207 C208 1.390 . S
C207 H234 0.949 . S
C208 C207 1.390 . S
C208 C209 1.357 . S
C209 C208 1.357 . S
C209 C210 1.370 . S
C209 H235 0.950 . S
C210 N205 1.307 . S
C210 C209 1.370 . S
C210 H228 0.948 . S
Zn211 N205 2.020 . S
Zn211 O220 2.039 . S
Zn211 O226 2.034 . S
Zn211 O230 2.025 . S
Zn211 O232 2.024 . S
C212 O231 1.246 . S
C212 O232 1.249 . S
N213 C214 1.307 . S
N213 C215 1.333 . S
N213 Zn219 2.020 . S
C214 N213 1.307 . S
C214 C218 1.370 . S
C214 H225 0.948 . S
C215 N213 1.333 . S
C215 C216 1.379 . S
C215 H223 0.952 . S
C216 C215 1.379 . S
C216 C217 1.390 . S
C216 H236 0.949 . S
C217 C216 1.390 . S
C217 C218 1.357 . S
C218 C214 1.370 . S
C218 C217 1.357 . S
C218 H237 0.950 . S
Zn219 N213 2.020 . S
Zn219 O222 2.025 . S
Zn219 O227 2.024 . S
Zn219 O229 2.039 . S
Zn219 O231 2.034 . S
O220 C204 1.251 . S
O220 Zn211 2.039 . S
C221 O226 1.246 . S
C221 O227 1.249 . S
O222 C204 1.254 . S
O222 Zn219 2.025 . S
H223 C215 0.952 . S
H224 C206 0.952 . S
H225 C214 0.948 . S
O226 Zn211 2.034 . S
O226 C221 1.246 . S
O227 Zn219 2.024 . S
O227 C221 1.249 . S
H228 C210 0.948 . S
O229 Zn219 2.039 . S
O229 C233 1.251 . S
O230 Zn211 2.025 . S
O230 C233 1.254 . S
O231 C212 1.246 . S
O231 Zn219 2.034 . S
O232 Zn211 2.024 . S
O232 C212 1.249 . S
C233 O229 1.251 . S
C233 O230 1.254 . S
H234 C207 0.949 . S
H235 C209 0.950 . S
H236 C216 0.949 . S
H237 C218 0.950 . S
C238 O254 1.251 . S
C238 O256 1.254 . S
N239 C240 1.333 . S
N239 C244 1.307 . S
N239 Zn245 2.020 . S
C240 N239 1.333 . S
C240 C241 1.379 . S
C240 H258 0.952 . S
C241 C240 1.379 . S
C241 C242 1.390 . S
C241 H268 0.949 . S
C242 C241 1.390 . S
C242 C243 1.357 . S
C243 C242 1.357 . S
C243 C244 1.370 . S
C243 H269 0.950 . S
C244 N239 1.307 . S
C244 C243 1.370 . S
C244 H262 0.948 . S
Zn245 N239 2.020 . S
Zn245 O254 2.039 . S
Zn245 O260 2.034 . S
Zn245 O264 2.025 . S
Zn245 O266 2.024 . S
C246 O265 1.246 . S
C246 O266 1.249 . S
N247 C248 1.307 . S
N247 C249 1.333 . S
N247 Zn253 2.020 . S
C248 N247 1.307 . S
C248 C252 1.370 . S
C248 H259 0.948 . S
C249 N247 1.333 . S
C249 C250 1.379 . S
C249 H257 0.952 . S
C250 C249 1.379 . S
C250 C251 1.390 . S
C250 H270 0.949 . S
C251 C250 1.390 . S
C251 C252 1.357 . S
C252 C248 1.370 . S
C252 C251 1.357 . S
C252 H271 0.950 . S
Zn253 N247 2.020 . S
Zn253 O256 2.025 . S
Zn253 O261 2.024 . S
Zn253 O263 2.039 . S
Zn253 O265 2.034 . S
O254 C238 1.251 . S
O254 Zn245 2.039 . S
C255 O260 1.246 . S
C255 O261 1.249 . S
O256 C238 1.254 . S
O256 Zn253 2.025 . S
H257 C249 0.952 . S
H258 C240 0.952 . S
H259 C248 0.948 . S
O260 Zn245 2.034 . S
O260 C255 1.246 . S
O261 Zn253 2.024 . S
O261 C255 1.249 . S
H262 C244 0.948 . S
O263 Zn253 2.039 . S
O263 C267 1.251 . S
O264 Zn245 2.025 . S
O264 C267 1.254 . S
O265 C246 1.246 . S
O265 Zn253 2.034 . S
O266 Zn245 2.024 . S
O266 C246 1.249 . S
C267 O263 1.251 . S
C267 O264 1.254 . S
H268 C241 0.949 . S
H269 C243 0.950 . S
H270 C250 0.949 . S
H271 C252 0.950 . S
Fe272 O273 1.886 . S
Fe272 O276 1.715 1_655 S
Fe272 O281 2.077 . S
Fe272 O286 1.935 1_655 S
Fe272 O292 2.077 . S
Fe272 O301 1.935 1_655 S
O273 Fe272 1.886 . S
O273 Fe275 1.715 . S
Fe274 O276 1.886 1_565 S
Fe274 O277 1.715 . S
Fe274 O284 1.935 . S
Fe274 O285 2.077 1_565 S
Fe274 O291 1.935 . S
Fe274 O300 2.077 1_565 S
Fe275 O273 1.715 . S
Fe275 O278 1.886 1_545 S
Fe275 O282 1.935 . S
Fe275 O287 2.077 1_545 S
Fe275 O293 1.935 . S
Fe275 O297 2.077 1_545 S
O276 Fe272 1.715 1_455 S
O276 Fe274 1.886 1_545 S
O277 Fe274 1.715 . S
O277 Fe279 1.886 . S
O278 Fe275 1.886 1_565 S
O278 Fe279 1.715 1_655 S
Fe279 O277 1.886 . S
Fe279 O278 1.715 1_455 S
Fe279 O283 2.077 . S
Fe279 O288 1.935 1_455 S
Fe279 O290 2.077 . S
Fe279 O298 1.935 1_455 S
C280 O292 1.381 . S
C280 O293 1.421 . S
O281 Fe272 2.077 . S
O281 C294 1.381 . S
O282 Fe275 1.935 . S
O282 C294 1.421 . S
O283 Fe279 2.077 . S
O283 C299 1.381 . S
O284 Fe274 1.935 . S
O284 C299 1.421 . S
O285 Fe274 2.077 1_545 S
O285 C289 1.381 . S
O286 Fe272 1.935 1_455 S
O286 C289 1.421 . S
O287 Fe275 2.077 1_565 S
O287 C295 1.381 . S
O288 Fe279 1.935 1_655 S
O288 C295 1.421 . S
C289 O285 1.381 . S
C289 O286 1.421 . S
O290 Fe279 2.077 . S
O290 C302 1.381 . S
O291 Fe274 1.935 . S
O291 C302 1.421 . S
O292 Fe272 2.077 . S
O292 C280 1.381 . S
O293 Fe275 1.935 . S
O293 C280 1.421 . S
C294 O281 1.381 . S
C294 O282 1.421 . S
C295 O287 1.381 . S
C295 O288 1.421 . S
C296 O297 1.381 . S
C296 O298 1.421 . S
O297 Fe275 2.077 1_565 S
O297 C296 1.381 . S
O298 Fe279 1.935 1_655 S
O298 C296 1.421 . S
C299 O283 1.381 . S
C299 O284 1.421 . S
O300 Fe274 2.077 1_545 S
O300 C303 1.381 . S
O301 Fe272 1.935 1_455 S
O301 C303 1.421 . S
C302 O290 1.381 . S
C302 O291 1.421 . S
C303 O300 1.381 . S
C303 O301 1.421 . S
Fe304 O305 1.885 1_554 S
Fe304 O308 1.715 . S
Fe304 O313 2.077 1_554 S
Fe304 O318 1.935 1_554 S
Fe304 O324 2.077 . S
Fe304 O333 1.935 . S
O305 Fe304 1.885 1_556 S
O305 Fe307 1.715 . S
Fe306 O308 1.886 1_545 S
Fe306 O309 1.715 . S
Fe306 O316 1.935 1_554 S
Fe306 O317 2.077 1_544 S
Fe306 O323 1.935 . S
Fe306 O332 2.077 1_545 S
Fe307 O305 1.715 . S
Fe307 O310 1.886 1_565 S
Fe307 O314 1.935 . S
Fe307 O319 2.077 1_565 S
Fe307 O325 1.935 1_556 S
Fe307 O329 2.077 1_566 S
O308 Fe304 1.715 . S
O308 Fe306 1.886 1_565 S
O309 Fe306 1.715 . S
O309 Fe311 1.886 1_554 S
O310 Fe307 1.886 1_545 S
O310 Fe311 1.715 . S
Fe311 O309 1.886 1_556 S
Fe311 O310 1.715 . S
Fe311 O315 2.077 . S
Fe311 O320 1.935 . S
Fe311 O322 2.077 1_556 S
Fe311 O330 1.935 1_556 S
C312 O324 1.381 . S
C312 O325 1.421 . S
O313 Fe304 2.077 1_556 S
O313 C326 1.381 . S
O314 Fe307 1.935 . S
O314 C326 1.421 . S
O315 Fe311 2.077 . S
O315 C331 1.381 . S
O316 Fe306 1.935 1_556 S
O316 C331 1.421 . S
O317 Fe306 2.077 1_566 S
O317 C321 1.381 . S
O318 Fe304 1.935 1_556 S
O318 C321 1.421 . S
O319 Fe307 2.077 1_545 S
O319 C327 1.381 . S
O320 Fe311 1.935 . S
O320 C327 1.421 . S
C321 O317 1.381 . S
C321 O318 1.421 . S
O322 Fe311 2.077 1_554 S
O322 C334 1.381 . S
O323 Fe306 1.935 . S
O323 C334 1.421 . S
O324 Fe304 2.077 . S
O324 C312 1.381 . S
O325 Fe307 1.935 1_554 S
O325 C312 1.421 . S
C326 O313 1.381 . S
C326 O314 1.421 . S
C327 O319 1.381 . S
C327 O320 1.421 . S
C328 O329 1.381 . S
C328 O330 1.421 . S
O329 Fe307 2.077 1_544 S
O329 C328 1.381 . S
O330 Fe311 1.935 1_554 S
O330 C328 1.421 . S
C331 O315 1.381 . S
C331 O316 1.421 . S
O332 Fe306 2.077 1_565 S
O332 C335 1.381 . S
O333 Fe304 1.935 . S
O333 C335 1.421 . S
C334 O322 1.381 . S
C334 O323 1.421 . S
C335 O332 1.381 . S
C335 O333 1.421 . S
Fe336 O337 1.886 1_556 S
Fe336 O340 1.715 1_655 S
Fe336 O345 2.077 . S
Fe336 O350 1.935 1_655 S
Fe336 O356 2.077 1_556 S
Fe336 O365 1.935 1_656 S
O337 Fe336 1.886 1_554 S
O337 Fe339 1.715 . S
Fe338 O340 1.886 . S
Fe338 O341 1.715 . S
Fe338 O348 1.935 . S
Fe338 O349 2.077 . S
Fe338 O355 1.935 1_556 S
Fe338 O364 2.077 1_556 S
Fe339 O337 1.715 . S
Fe339 O342 1.886 . S
Fe339 O346 1.935 1_554 S
Fe339 O351 2.077 1_554 S
Fe339 O357 1.935 . S
Fe339 O361 2.077 . S
O340 Fe336 1.715 1_455 S
O340 Fe338 1.886 . S
O341 Fe338 1.715 . S
O341 Fe343 1.885 1_556 S
O342 Fe339 1.886 . S
O342 Fe343 1.715 1_655 S
Fe343 O341 1.885 1_554 S
Fe343 O342 1.715 1_455 S
Fe343 O347 2.077 1_554 S
Fe343 O352 1.935 1_454 S
Fe343 O354 2.077 . S
Fe343 O362 1.935 1_455 S
C344 O356 1.381 . S
C344 O357 1.421 . S
O345 Fe336 2.077 . S
O345 C358 1.381 . S
O346 Fe339 1.935 1_556 S
O346 C358 1.421 . S
O347 Fe343 2.077 1_556 S
O347 C363 1.381 . S
O348 Fe338 1.935 . S
O348 C363 1.421 . S
O349 Fe338 2.077 . S
O349 C353 1.381 . S
O350 Fe336 1.935 1_455 S
O350 C353 1.421 . S
O351 Fe339 2.077 1_556 S
O351 C359 1.381 . S
O352 Fe343 1.935 1_656 S
O352 C359 1.421 . S
C353 O349 1.381 . S
C353 O350 1.421 . S
O354 Fe343 2.077 . S
O354 C366 1.381 . S
O355 Fe338 1.935 1_554 S
O355 C366 1.421 . S
O356 Fe336 2.077 1_554 S
O356 C344 1.381 . S
O357 Fe339 1.935 . S
O357 C344 1.421 . S
C358 O345 1.381 . S
C358 O346 1.421 . S
C359 O351 1.381 . S
C359 O352 1.421 . S
C360 O361 1.381 . S
C360 O362 1.421 . S
O361 Fe339 2.077 . S
O361 C360 1.381 . S
O362 Fe343 1.935 1_655 S
O362 C360 1.421 . S
C363 O347 1.381 . S
C363 O348 1.421 . S
O364 Fe338 2.077 1_554 S
O364 C367 1.381 . S
O365 Fe336 1.935 1_454 S
O365 C367 1.421 . S
C366 O354 1.381 . S
C366 O355 1.421 . S
C367 O364 1.381 . S
C367 O365 1.421 . S
Fe368 O369 1.886 . S
Fe368 O372 1.715 . S
Fe368 O377 2.077 . S
Fe368 O382 1.935 . S
Fe368 O388 2.077 . S
Fe368 O397 1.935 . S
O369 Fe368 1.886 . S
O369 Fe371 1.715 . S
Fe370 O372 1.886 1_554 S
Fe370 O373 1.715 . S
Fe370 O380 1.935 . S
Fe370 O381 2.077 1_554 S
Fe370 O387 1.935 . S
Fe370 O396 2.077 1_554 S
Fe371 O369 1.715 . S
Fe371 O374 1.886 1_556 S
Fe371 O378 1.935 . S
Fe371 O383 2.077 1_556 S
Fe371 O389 1.935 . S
Fe371 O393 2.077 1_556 S
O372 Fe368 1.715 . S
O372 Fe370 1.886 1_556 S
O373 Fe370 1.715 . S
O373 Fe375 1.886 . S
O374 Fe371 1.886 1_554 S
O374 Fe375 1.715 . S
Fe375 O373 1.886 . S
Fe375 O374 1.715 . S
Fe375 O379 2.077 . S
Fe375 O384 1.935 . S
Fe375 O386 2.077 . S
Fe375 O394 1.935 . S
C376 O388 1.381 . S
C376 O389 1.421 . S
O377 Fe368 2.077 . S
O377 C390 1.381 . S
O378 Fe371 1.935 . S
O378 C390 1.421 . S
O379 Fe375 2.077 . S
O379 C395 1.381 . S
O380 Fe370 1.935 . S
O380 C395 1.421 . S
O381 Fe370 2.077 1_556 S
O381 C385 1.381 . S
O382 Fe368 1.935 . S
O382 C385 1.421 . S
O383 Fe371 2.077 1_554 S
O383 C391 1.381 . S
O384 Fe375 1.935 . S
O384 C391 1.421 . S
C385 O381 1.381 . S
C385 O382 1.421 . S
O386 Fe375 2.077 . S
O386 C398 1.381 . S
O387 Fe370 1.935 . S
O387 C398 1.421 . S
O388 Fe368 2.077 . S
O388 C376 1.381 . S
O389 Fe371 1.935 . S
O389 C376 1.421 . S
C390 O377 1.381 . S
C390 O378 1.421 . S
C391 O383 1.381 . S
C391 O384 1.421 . S
C392 O393 1.381 . S
C392 O394 1.421 . S
O393 Fe371 2.077 1_554 S
O393 C392 1.381 . S
O394 Fe375 1.935 . S
O394 C392 1.421 . S
C395 O379 1.381 . S
C395 O380 1.421 . S
O396 Fe370 2.077 1_556 S
O396 C399 1.381 . S
O397 Fe368 1.935 . S
O397 C399 1.421 . S
C398 O386 1.381 . S
C398 O387 1.421 . S
C399 O396 1.381 . S
C399 O397 1.421 . S
Fe400 O401 1.886 . S
Fe400 O404 1.715 . S
Fe400 O409 2.077 . S
Fe400 O414 1.935 . S
Fe400 O420 2.077 1_455 S
Fe400 O429 1.935 1_455 S
O401 Fe400 1.886 . S
O401 Fe403 1.715 1_455 S
Fe402 O404 1.886 . S
Fe402 O405 1.715 1_455 S
Fe402 O412 1.935 . S
Fe402 O413 2.077 . S
Fe402 O419 1.935 1_455 S
Fe402 O428 2.077 1_455 S
Fe403 O401 1.715 1_655 S
Fe403 O406 1.886 . S
Fe403 O410 1.935 1_655 S
Fe403 O415 2.077 1_655 S
Fe403 O421 1.935 . S
Fe403 O425 2.077 . S
O404 Fe400 1.715 . S
O404 Fe402 1.886 . S
O405 Fe402 1.715 1_655 S
O405 Fe407 1.886 . S
O406 Fe403 1.886 . S
O406 Fe407 1.715 . S
Fe407 O405 1.886 . S
Fe407 O406 1.715 . S
Fe407 O411 2.077 1_655 S
Fe407 O416 1.935 1_655 S
Fe407 O418 2.077 . S
Fe407 O426 1.935 . S
C408 O420 1.381 . S
C408 O421 1.421 . S
O409 Fe400 2.077 . S
O409 C422 1.381 . S
O410 Fe403 1.935 1_455 S
O410 C422 1.421 . S
O411 Fe407 2.077 1_455 S
O411 C427 1.381 . S
O412 Fe402 1.935 . S
O412 C427 1.421 . S
O413 Fe402 2.077 . S
O413 C417 1.381 . S
O414 Fe400 1.935 . S
O414 C417 1.421 . S
O415 Fe403 2.077 1_455 S
O415 C423 1.381 . S
O416 Fe407 1.935 1_455 S
O416 C423 1.421 . S
C417 O413 1.381 . S
C417 O414 1.421 . S
O418 Fe407 2.077 . S
O418 C430 1.381 . S
O419 Fe402 1.935 1_655 S
O419 C430 1.421 . S
O420 Fe400 2.077 1_655 S
O420 C408 1.381 . S
O421 Fe403 1.935 . S
O421 C408 1.421 . S
C422 O409 1.381 . S
C422 O410 1.421 . S
C423 O415 1.381 . S
C423 O416 1.421 . S
C424 O425 1.381 . S
C424 O426 1.421 . S
O425 Fe403 2.077 . S
O425 C424 1.381 . S
O426 Fe407 1.935 . S
O426 C424 1.421 . S
C427 O411 1.381 . S
C427 O412 1.421 . S
O428 Fe402 2.077 1_655 S
O428 C431 1.381 . S
O429 Fe400 1.935 1_655 S
O429 C431 1.421 . S
C430 O418 1.381 . S
C430 O419 1.421 . S
C431 O428 1.381 . S
C431 O429 1.421 . S
Fe432 O433 1.886 . S
Fe432 O436 1.715 . S
Fe432 O441 2.077 . S
Fe432 O446 1.935 . S
Fe432 O452 2.077 . S
Fe432 O461 1.935 . S
O433 Fe432 1.886 . S
O433 Fe435 1.715 . S
Fe434 O436 1.886 1_545 S
Fe434 O437 1.715 . S
Fe434 O444 1.935 . S
Fe434 O445 2.077 1_545 S
Fe434 O451 1.935 . S
Fe434 O460 2.077 1_545 S
Fe435 O433 1.715 . S
Fe435 O438 1.886 1_565 S
Fe435 O442 1.935 . S
Fe435 O447 2.077 1_565 S
Fe435 O453 1.935 . S
Fe435 O457 2.077 1_565 S
O436 Fe432 1.715 . S
O436 Fe434 1.886 1_565 S
O437 Fe434 1.715 . S
O437 Fe439 1.886 . S
O438 Fe435 1.886 1_545 S
O438 Fe439 1.715 . S
Fe439 O437 1.886 . S
Fe439 O438 1.715 . S
Fe439 O443 2.077 . S
Fe439 O448 1.935 . S
Fe439 O450 2.077 . S
Fe439 O458 1.935 . S
C440 O452 1.381 . S
C440 O453 1.421 . S
O441 Fe432 2.077 . S
O441 C454 1.381 . S
O442 Fe435 1.935 . S
O442 C454 1.421 . S
O443 Fe439 2.077 . S
O443 C459 1.381 . S
O444 Fe434 1.935 . S
O444 C459 1.421 . S
O445 Fe434 2.077 1_565 S
O445 C449 1.381 . S
O446 Fe432 1.935 . S
O446 C449 1.421 . S
O447 Fe435 2.077 1_545 S
O447 C455 1.381 . S
O448 Fe439 1.935 . S
O448 C455 1.421 . S
C449 O445 1.381 . S
C449 O446 1.421 . S
O450 Fe439 2.077 . S
O450 C462 1.381 . S
O451 Fe434 1.935 . S
O451 C462 1.421 . S
O452 Fe432 2.077 . S
O452 C440 1.381 . S
O453 Fe435 1.935 . S
O453 C440 1.421 . S
C454 O441 1.381 . S
C454 O442 1.421 . S
C455 O447 1.381 . S
C455 O448 1.421 . S
C456 O457 1.381 . S
C456 O458 1.421 . S
O457 Fe435 2.077 1_545 S
O457 C456 1.381 . S
O458 Fe439 1.935 . S
O458 C456 1.421 . S
C459 O443 1.381 . S
C459 O444 1.421 . S
O460 Fe434 2.077 1_565 S
O460 C463 1.381 . S
O461 Fe432 1.935 . S
O461 C463 1.421 . S
C462 O450 1.381 . S
C462 O451 1.421 . S
C463 O460 1.381 . S
C463 O461 1.421 . S
C464 C465 1.391 . S
C464 C466 1.394 . S
C464 H480 0.931 . S
C465 C464 1.391 . S
C465 C469 1.376 . S
C466 C464 1.394 . S
C466 C467 1.369 . S
C466 C470 1.531 . S
C467 C466 1.369 . S
C467 C468 1.410 . S
C467 C475 1.503 . S
C468 C467 1.410 . S
C468 C469 1.392 . S
C468 C471 1.511 . S
C469 C465 1.376 . S
C469 C468 1.392 . S
C469 H481 0.929 . S
C470 C466 1.531 . S
C470 H482 0.960 . S
C470 H483 0.962 . S
C470 H484 0.960 . S
C471 C468 1.511 . S
C471 H485 0.961 . S
C471 H486 0.961 . S
C471 H487 0.961 . S
C472 C473 1.370 . S
C472 C474 1.363 . S
C472 H488 0.931 . S
C473 C472 1.370 . S
C473 C477 1.408 . S
C474 C472 1.363 . S
C474 C475 1.370 . S
C474 C478 1.524 . S
C475 C467 1.503 . S
C475 C474 1.370 . S
C475 C476 1.403 . S
C476 C475 1.403 . S
C476 C477 1.404 . S
C476 C479 1.539 . S
C477 C473 1.408 . S
C477 C476 1.404 . S
C477 H489 0.930 . S
C478 C474 1.524 . S
C478 H490 0.956 . S
C478 H491 0.961 . S
C478 H492 0.961 . S
C479 C476 1.539 . S
C479 H493 0.958 . S
C479 H494 0.961 . S
C479 H495 0.960 . S
H480 C464 0.931 . S
H481 C469 0.929 . S
H482 C470 0.960 . S
H483 C470 0.962 . S
H484 C470 0.960 . S
H485 C471 0.961 . S
H486 C471 0.961 . S
H487 C471 0.961 . S
H488 C472 0.931 . S
H489 C477 0.930 . S
H490 C478 0.956 . S
H491 C478 0.961 . S
H492 C478 0.961 . S
H493 C479 0.958 . S
H494 C479 0.961 . S
H495 C479 0.960 . S
C496 C497 1.391 . S
C496 C498 1.394 . S
C496 H512 0.931 . S
C497 C496 1.391 . S
C497 C501 1.376 . S
C498 C496 1.394 . S
C498 C499 1.369 . S
C498 C502 1.531 . S
C499 C498 1.369 . S
C499 C500 1.410 . S
C499 C507 1.503 . S
C500 C499 1.410 . S
C500 C501 1.392 . S
C500 C503 1.511 . S
C501 C497 1.376 . S
C501 C500 1.392 . S
C501 H513 0.929 . S
C502 C498 1.531 . S
C502 H514 0.960 . S
C502 H515 0.962 . S
C502 H516 0.960 . S
C503 C500 1.511 . S
C503 H517 0.961 . S
C503 H518 0.961 . S
C503 H519 0.961 . S
C504 C505 1.370 . S
C504 C506 1.363 . S
C504 H520 0.931 . S
C505 C504 1.370 . S
C505 C509 1.408 . S
C506 C504 1.363 . S
C506 C507 1.370 . S
C506 C510 1.524 . S
C507 C499 1.503 . S
C507 C506 1.370 . S
C507 C508 1.403 . S
C508 C507 1.403 . S
C508 C509 1.404 . S
C508 C511 1.539 . S
C509 C505 1.408 . S
C509 C508 1.404 . S
C509 H521 0.930 . S
C510 C506 1.524 . S
C510 H522 0.956 . S
C510 H523 0.961 . S
C510 H524 0.961 . S
C511 C508 1.539 . S
C511 H525 0.958 . S
C511 H526 0.961 . S
C511 H527 0.960 . S
H512 C496 0.931 . S
H513 C501 0.929 . S
H514 C502 0.960 . S
H515 C502 0.962 . S
H516 C502 0.960 . S
H517 C503 0.961 . S
H518 C503 0.961 . S
H519 C503 0.961 . S
H520 C504 0.931 . S
H521 C509 0.930 . S
H522 C510 0.956 . S
H523 C510 0.961 . S
H524 C510 0.961 . S
H525 C511 0.958 . S
H526 C511 0.961 . S
H527 C511 0.960 . S
C528 C529 1.391 . S
C528 C530 1.394 . S
C528 H544 0.931 . S
C529 C528 1.391 . S
C529 C533 1.376 . S
C530 C528 1.394 . S
C530 C531 1.369 . S
C530 C534 1.531 . S
C531 C530 1.369 . S
C531 C532 1.410 . S
C531 C539 1.503 . S
C532 C531 1.410 . S
C532 C533 1.392 . S
C532 C535 1.511 . S
C533 C529 1.376 . S
C533 C532 1.392 . S
C533 H545 0.929 . S
C534 C530 1.531 . S
C534 H546 0.960 . S
C534 H547 0.962 . S
C534 H548 0.960 . S
C535 C532 1.511 . S
C535 H549 0.961 . S
C535 H550 0.961 . S
C535 H551 0.961 . S
C536 C537 1.370 . S
C536 C538 1.363 . S
C536 H552 0.931 . S
C537 C536 1.370 . S
C537 C541 1.408 . S
C538 C536 1.363 . S
C538 C539 1.370 . S
C538 C542 1.524 . S
C539 C531 1.503 . S
C539 C538 1.370 . S
C539 C540 1.403 . S
C540 C539 1.403 . S
C540 C541 1.404 . S
C540 C543 1.539 . S
C541 C537 1.408 . S
C541 C540 1.404 . S
C541 H553 0.930 . S
C542 C538 1.524 . S
C542 H554 0.956 . S
C542 H555 0.961 . S
C542 H556 0.961 . S
C543 C540 1.539 . S
C543 H557 0.958 . S
C543 H558 0.961 . S
C543 H559 0.960 . S
H544 C528 0.931 . S
H545 C533 0.929 . S
H546 C534 0.960 . S
H547 C534 0.962 . S
H548 C534 0.960 . S
H549 C535 0.961 . S
H550 C535 0.961 . S
H551 C535 0.961 . S
H552 C536 0.931 . S
H553 C541 0.930 . S
H554 C542 0.956 . S
H555 C542 0.961 . S
H556 C542 0.961 . S
H557 C543 0.958 . S
H558 C543 0.961 . S
H559 C543 0.960 . S
C560 C561 1.391 . S
C560 C562 1.394 . S
C560 H576 0.931 . S
C561 C560 1.391 . S
C561 C565 1.376 . S
C562 C560 1.394 . S
C562 C563 1.369 . S
C562 C566 1.531 . S
C563 C562 1.369 . S
C563 C564 1.410 . S
C563 C571 1.503 . S
C564 C563 1.410 . S
C564 C565 1.392 . S
C564 C567 1.511 . S
C565 C561 1.376 . S
C565 C564 1.392 . S
C565 H577 0.929 . S
C566 C562 1.531 . S
C566 H578 0.960 . S
C566 H579 0.962 . S
C566 H580 0.960 . S
C567 C564 1.511 . S
C567 H581 0.961 . S
C567 H582 0.961 . S
C567 H583 0.961 . S
C568 C569 1.370 . S
C568 C570 1.363 . S
C568 H584 0.931 . S
C569 C568 1.370 . S
C569 C573 1.408 . S
C570 C568 1.363 . S
C570 C571 1.370 . S
C570 C574 1.524 . S
C571 C563 1.503 . S
C571 C570 1.370 . S
C571 C572 1.403 . S
C572 C571 1.403 . S
C572 C573 1.404 . S
C572 C575 1.539 . S
C573 C569 1.408 . S
C573 C572 1.404 . S
C573 H585 0.930 . S
C574 C570 1.524 . S
C574 H586 0.956 . S
C574 H587 0.961 . S
C574 H588 0.961 . S
C575 C572 1.539 . S
C575 H589 0.958 . S
C575 H590 0.961 . S
C575 H591 0.960 . S
H576 C560 0.931 . S
H577 C565 0.929 . S
H578 C566 0.960 . S
H579 C566 0.962 . S
H580 C566 0.960 . S
H581 C567 0.961 . S
H582 C567 0.961 . S
H583 C567 0.961 . S
H584 C568 0.931 . S
H585 C573 0.930 . S
H586 C574 0.956 . S
H587 C574 0.961 . S
H588 C574 0.961 . S
H589 C575 0.958 . S
H590 C575 0.961 . S
H591 C575 0.960 . S
C592 C593 1.391 . S
C592 C594 1.394 . S
C592 H608 0.931 . S
C593 C592 1.391 . S
C593 C597 1.376 . S
C594 C592 1.394 . S
C594 C595 1.369 . S
C594 C598 1.531 . S
C595 C594 1.369 . S
C595 C596 1.410 . S
C595 C603 1.503 . S
C596 C595 1.410 . S
C596 C597 1.392 . S
C596 C599 1.511 . S
C597 C593 1.376 . S
C597 C596 1.392 . S
C597 H609 0.929 . S
C598 C594 1.531 . S
C598 H610 0.960 . S
C598 H611 0.962 . S
C598 H612 0.960 . S
C599 C596 1.511 . S
C599 H613 0.961 . S
C599 H614 0.961 . S
C599 H615 0.961 . S
C600 C601 1.370 . S
C600 C602 1.363 . S
C600 H616 0.931 . S
C601 C600 1.370 . S
C601 C605 1.408 . S
C602 C600 1.363 . S
C602 C603 1.370 . S
C602 C606 1.524 . S
C603 C595 1.503 . S
C603 C602 1.370 . S
C603 C604 1.403 . S
C604 C603 1.403 . S
C604 C605 1.404 . S
C604 C607 1.539 . S
C605 C601 1.408 . S
C605 C604 1.404 . S
C605 H617 0.930 . S
C606 C602 1.524 . S
C606 H618 0.956 . S
C606 H619 0.961 . S
C606 H620 0.961 . S
C607 C604 1.539 . S
C607 H621 0.958 . S
C607 H622 0.961 . S
C607 H623 0.960 . S
H608 C592 0.931 . S
H609 C597 0.929 . S
H610 C598 0.960 . S
H611 C598 0.962 . S
H612 C598 0.960 . S
H613 C599 0.961 . S
H614 C599 0.961 . S
H615 C599 0.961 . S
H616 C600 0.931 . S
H617 C605 0.930 . S
H618 C606 0.956 . S
H619 C606 0.961 . S
H620 C606 0.961 . S
H621 C607 0.958 . S
H622 C607 0.961 . S
H623 C607 0.960 . S
C624 C625 1.391 . S
C624 C626 1.394 . S
C624 H640 0.931 . S
C625 C624 1.391 . S
C625 C629 1.376 . S
C626 C624 1.394 . S
C626 C627 1.369 . S
C626 C630 1.531 . S
C627 C626 1.369 . S
C627 C628 1.410 . S
C627 C635 1.503 . S
C628 C627 1.410 . S
C628 C629 1.392 . S
C628 C631 1.511 . S
C629 C625 1.376 . S
C629 C628 1.392 . S
C629 H641 0.929 . S
C630 C626 1.531 . S
C630 H642 0.960 . S
C630 H643 0.962 . S
C630 H644 0.960 . S
C631 C628 1.511 . S
C631 H645 0.961 . S
C631 H646 0.961 . S
C631 H647 0.961 . S
C632 C633 1.370 . S
C632 C634 1.363 . S
C632 H648 0.931 . S
C633 C632 1.370 . S
C633 C637 1.408 . S
C634 C632 1.363 . S
C634 C635 1.370 . S
C634 C638 1.524 . S
C635 C627 1.503 . S
C635 C634 1.370 . S
C635 C636 1.403 . S
C636 C635 1.403 . S
C636 C637 1.404 . S
C636 C639 1.539 . S
C637 C633 1.408 . S
C637 C636 1.404 . S
C637 H649 0.930 . S
C638 C634 1.524 . S
C638 H650 0.956 . S
C638 H651 0.961 . S
C638 H652 0.961 . S
C639 C636 1.539 . S
C639 H653 0.958 . S
C639 H654 0.961 . S
C639 H655 0.960 . S
H640 C624 0.931 . S
H641 C629 0.929 . S
H642 C630 0.960 . S
H643 C630 0.962 . S
H644 C630 0.960 . S
H645 C631 0.961 . S
H646 C631 0.961 . S
H647 C631 0.961 . S
H648 C632 0.931 . S
H649 C637 0.930 . S
H650 C638 0.956 . S
H651 C638 0.961 . S
H652 C638 0.961 . S
H653 C639 0.958 . S
H654 C639 0.961 . S
H655 C639 0.960 . S
C656 C657 1.391 . S
C656 C658 1.394 . S
C656 H672 0.931 . S
C657 C656 1.391 . S
C657 C661 1.376 . S
C658 C656 1.394 . S
C658 C659 1.369 . S
C658 C662 1.531 . S
C659 C658 1.369 . S
C659 C660 1.410 . S
C659 C667 1.503 . S
C660 C659 1.410 . S
C660 C661 1.392 . S
C660 C663 1.511 . S
C661 C657 1.376 . S
C661 C660 1.392 . S
C661 H673 0.929 . S
C662 C658 1.531 . S
C662 H674 0.960 . S
C662 H675 0.962 . S
C662 H676 0.960 . S
C663 C660 1.511 . S
C663 H677 0.961 . S
C663 H678 0.961 . S
C663 H679 0.961 . S
C664 C665 1.370 . S
C664 C666 1.363 . S
C664 H680 0.931 . S
C665 C664 1.370 . S
C665 C669 1.408 . S
C666 C664 1.363 . S
C666 C667 1.370 . S
C666 C670 1.524 . S
C667 C659 1.503 . S
C667 C666 1.370 . S
C667 C668 1.403 . S
C668 C667 1.403 . S
C668 C669 1.404 . S
C668 C671 1.539 . S
C669 C665 1.408 . S
C669 C668 1.404 . S
C669 H681 0.930 . S
C670 C666 1.524 . S
C670 H682 0.956 . S
C670 H683 0.961 . S
C670 H684 0.961 . S
C671 C668 1.539 . S
C671 H685 0.958 . S
C671 H686 0.961 . S
C671 H687 0.960 . S
H672 C656 0.931 . S
H673 C661 0.929 . S
H674 C662 0.960 . S
H675 C662 0.962 . S
H676 C662 0.960 . S
H677 C663 0.961 . S
H678 C663 0.961 . S
H679 C663 0.961 . S
H680 C664 0.931 . S
H681 C669 0.930 . S
H682 C670 0.956 . S
H683 C670 0.961 . S
H684 C670 0.961 . S
H685 C671 0.958 . S
H686 C671 0.961 . S
H687 C671 0.960 . S
C688 C689 1.391 . S
C688 C690 1.394 . S
C688 H704 0.931 . S
C689 C688 1.391 . S
C689 C693 1.376 . S
C690 C688 1.394 . S
C690 C691 1.369 . S
C690 C694 1.531 . S
C691 C690 1.369 . S
C691 C692 1.410 . S
C691 C699 1.503 . S
C692 C691 1.410 . S
C692 C693 1.392 . S
C692 C695 1.511 . S
C693 C689 1.376 . S
C693 C692 1.392 . S
C693 H705 0.929 . S
C694 C690 1.531 . S
C694 H706 0.960 . S
C694 H707 0.962 . S
C694 H708 0.960 . S
C695 C692 1.511 . S
C695 H709 0.961 . S
C695 H710 0.961 . S
C695 H711 0.961 . S
C696 C697 1.370 . S
C696 C698 1.363 . S
C696 H712 0.931 . S
C697 C696 1.370 . S
C697 C701 1.408 . S
C698 C696 1.363 . S
C698 C699 1.370 . S
C698 C702 1.524 . S
C699 C691 1.503 . S
C699 C698 1.370 . S
C699 C700 1.403 . S
C700 C699 1.403 . S
C700 C701 1.404 . S
C700 C703 1.539 . S
C701 C697 1.408 . S
C701 C700 1.404 . S
C701 H713 0.930 . S
C702 C698 1.524 . S
C702 H714 0.956 . S
C702 H715 0.961 . S
C702 H716 0.961 . S
C703 C700 1.539 . S
C703 H717 0.958 . S
C703 H718 0.961 . S
C703 H719 0.960 . S
H704 C688 0.931 . S
H705 C693 0.929 . S
H706 C694 0.960 . S
H707 C694 0.962 . S
H708 C694 0.960 . S
H709 C695 0.961 . S
H710 C695 0.961 . S
H711 C695 0.961 . S
H712 C696 0.931 . S
H713 C701 0.930 . S
H714 C702 0.956 . S
H715 C702 0.961 . S
H716 C702 0.961 . S
H717 C703 0.958 . S
H718 C703 0.961 . S
H719 C703 0.960 . S
C720 C721 1.391 . S
C720 C722 1.394 . S
C720 H736 0.931 . S
C721 C720 1.391 . S
C721 C725 1.376 . S
C722 C720 1.394 . S
C722 C723 1.369 . S
C722 C726 1.531 . S
C723 C722 1.369 . S
C723 C724 1.410 . S
C723 C731 1.503 . S
C724 C723 1.410 . S
C724 C725 1.392 . S
C724 C727 1.511 . S
C725 C721 1.376 . S
C725 C724 1.392 . S
C725 H737 0.929 . S
C726 C722 1.531 . S
C726 H738 0.960 . S
C726 H739 0.962 . S
C726 H740 0.960 . S
C727 C724 1.511 . S
C727 H741 0.961 . S
C727 H742 0.961 . S
C727 H743 0.961 . S
C728 C729 1.370 . S
C728 C730 1.363 . S
C728 H744 0.931 . S
C729 C728 1.370 . S
C729 C733 1.408 . S
C730 C728 1.363 . S
C730 C731 1.370 . S
C730 C734 1.524 . S
C731 C723 1.503 . S
C731 C730 1.370 . S
C731 C732 1.403 . S
C732 C731 1.403 . S
C732 C733 1.404 . S
C732 C735 1.539 . S
C733 C729 1.408 . S
C733 C732 1.404 . S
C733 H745 0.930 . S
C734 C730 1.524 . S
C734 H746 0.956 . S
C734 H747 0.961 . S
C734 H748 0.961 . S
C735 C732 1.539 . S
C735 H749 0.958 . S
C735 H750 0.961 . S
C735 H751 0.960 . S
H736 C720 0.931 . S
H737 C725 0.929 . S
H738 C726 0.960 . S
H739 C726 0.962 . S
H740 C726 0.960 . S
H741 C727 0.961 . S
H742 C727 0.961 . S
H743 C727 0.961 . S
H744 C728 0.931 . S
H745 C733 0.930 . S
H746 C734 0.956 . S
H747 C734 0.961 . S
H748 C734 0.961 . S
H749 C735 0.958 . S
H750 C735 0.961 . S
H751 C735 0.960 . S
C752 C753 1.391 . S
C752 C754 1.394 . S
C752 H768 0.931 . S
C753 C752 1.391 . S
C753 C757 1.376 . S
C754 C752 1.394 . S
C754 C755 1.369 . S
C754 C758 1.531 . S
C755 C754 1.369 . S
C755 C756 1.410 . S
C755 C763 1.503 . S
C756 C755 1.410 . S
C756 C757 1.392 . S
C756 C759 1.511 . S
C757 C753 1.376 . S
C757 C756 1.392 . S
C757 H769 0.929 . S
C758 C754 1.531 . S
C758 H770 0.960 . S
C758 H771 0.962 . S
C758 H772 0.960 . S
C759 C756 1.511 . S
C759 H773 0.961 . S
C759 H774 0.961 . S
C759 H775 0.961 . S
C760 C761 1.370 . S
C760 C762 1.363 . S
C760 H776 0.931 . S
C761 C760 1.370 . S
C761 C765 1.408 . S
C762 C760 1.363 . S
C762 C763 1.370 . S
C762 C766 1.524 . S
C763 C755 1.503 . S
C763 C762 1.370 . S
C763 C764 1.403 . S
C764 C763 1.403 . S
C764 C765 1.404 . S
C764 C767 1.539 . S
C765 C761 1.408 . S
C765 C764 1.404 . S
C765 H777 0.930 . S
C766 C762 1.524 . S
C766 H778 0.956 . S
C766 H779 0.961 . S
C766 H780 0.961 . S
C767 C764 1.539 . S
C767 H781 0.958 . S
C767 H782 0.961 . S
C767 H783 0.960 . S
H768 C752 0.931 . S
H769 C757 0.929 . S
H770 C758 0.960 . S
H771 C758 0.962 . S
H772 C758 0.960 . S
H773 C759 0.961 . S
H774 C759 0.961 . S
H775 C759 0.961 . S
H776 C760 0.931 . S
H777 C765 0.930 . S
H778 C766 0.956 . S
H779 C766 0.961 . S
H780 C766 0.961 . S
H781 C767 0.958 . S
H782 C767 0.961 . S
H783 C767 0.960 . S
C784 C785 1.391 . S
C784 C786 1.394 . S
C784 H800 0.931 . S
C785 C784 1.391 . S
C785 C789 1.376 . S
C786 C784 1.394 . S
C786 C787 1.369 . S
C786 C790 1.531 . S
C787 C786 1.369 . S
C787 C788 1.410 . S
C787 C795 1.503 . S
C788 C787 1.410 . S
C788 C789 1.392 . S
C788 C791 1.511 . S
C789 C785 1.376 . S
C789 C788 1.392 . S
C789 H801 0.929 . S
C790 C786 1.531 . S
C790 H802 0.960 . S
C790 H803 0.962 . S
C790 H804 0.960 . S
C791 C788 1.511 . S
C791 H805 0.961 . S
C791 H806 0.961 . S
C791 H807 0.961 . S
C792 C793 1.370 . S
C792 C794 1.363 . S
C792 H808 0.931 . S
C793 C792 1.370 . S
C793 C797 1.408 . S
C794 C792 1.363 . S
C794 C795 1.370 . S
C794 C798 1.524 . S
C795 C787 1.503 . S
C795 C794 1.370 . S
C795 C796 1.403 . S
C796 C795 1.403 . S
C796 C797 1.404 . S
C796 C799 1.539 . S
C797 C793 1.408 . S
C797 C796 1.404 . S
C797 H809 0.930 . S
C798 C794 1.524 . S
C798 H810 0.956 . S
C798 H811 0.961 . S
C798 H812 0.961 . S
C799 C796 1.539 . S
C799 H813 0.958 . S
C799 H814 0.961 . S
C799 H815 0.960 . S
H800 C784 0.931 . S
H801 C789 0.929 . S
H802 C790 0.960 . S
H803 C790 0.962 . S
H804 C790 0.960 . S
H805 C791 0.961 . S
H806 C791 0.961 . S
H807 C791 0.961 . S
H808 C792 0.931 . S
H809 C797 0.930 . S
H810 C798 0.956 . S
H811 C798 0.961 . S
H812 C798 0.961 . S
H813 C799 0.958 . S
H814 C799 0.961 . S
H815 C799 0.960 . S
C816 C817 1.391 . S
C816 C818 1.394 . S
C816 H832 0.931 . S
C817 C816 1.391 . S
C817 C821 1.376 . S
C818 C816 1.394 . S
C818 C819 1.369 . S
C818 C822 1.531 . S
C819 C818 1.369 . S
C819 C820 1.410 . S
C819 C827 1.503 . S
C820 C819 1.410 . S
C820 C821 1.392 . S
C820 C823 1.511 . S
C821 C817 1.376 . S
C821 C820 1.392 . S
C821 H833 0.929 . S
C822 C818 1.531 . S
C822 H834 0.960 . S
C822 H835 0.962 . S
C822 H836 0.960 . S
C823 C820 1.511 . S
C823 H837 0.961 . S
C823 H838 0.961 . S
C823 H839 0.961 . S
C824 C825 1.370 . S
C824 C826 1.363 . S
C824 H840 0.931 . S
C825 C824 1.370 . S
C825 C829 1.408 . S
C826 C824 1.363 . S
C826 C827 1.370 . S
C826 C830 1.524 . S
C827 C819 1.503 . S
C827 C826 1.370 . S
C827 C828 1.403 . S
C828 C827 1.403 . S
C828 C829 1.404 . S
C828 C831 1.539 . S
C829 C825 1.408 . S
C829 C828 1.404 . S
C829 H841 0.930 . S
C830 C826 1.524 . S
C830 H842 0.956 . S
C830 H843 0.961 . S
C830 H844 0.961 . S
C831 C828 1.539 . S
C831 H845 0.958 . S
C831 H846 0.961 . S
C831 H847 0.960 . S
H832 C816 0.931 . S
H833 C821 0.929 . S
H834 C822 0.960 . S
H835 C822 0.962 . S
H836 C822 0.960 . S
H837 C823 0.961 . S
H838 C823 0.961 . S
H839 C823 0.961 . S
H840 C824 0.931 . S
H841 C829 0.930 . S
H842 C830 0.956 . S
H843 C830 0.961 . S
H844 C830 0.961 . S
H845 C831 0.958 . S
H846 C831 0.961 . S
H847 C831 0.960 . S
C848 C849 1.391 . S
C848 C850 1.394 . S
C848 H864 0.931 . S
C849 C848 1.391 . S
C849 C853 1.376 . S
C850 C848 1.394 . S
C850 C851 1.369 . S
C850 C854 1.531 . S
C851 C850 1.369 . S
C851 C852 1.410 . S
C851 C859 1.503 . S
C852 C851 1.410 . S
C852 C853 1.392 . S
C852 C855 1.511 . S
C853 C849 1.376 . S
C853 C852 1.392 . S
C853 H865 0.929 . S
C854 C850 1.531 . S
C854 H866 0.960 . S
C854 H867 0.962 . S
C854 H868 0.960 . S
C855 C852 1.511 . S
C855 H869 0.961 . S
C855 H870 0.961 . S
C855 H871 0.961 . S
C856 C857 1.370 . S
C856 C858 1.363 . S
C856 H872 0.931 . S
C857 C856 1.370 . S
C857 C861 1.408 . S
C858 C856 1.363 . S
C858 C859 1.370 . S
C858 C862 1.524 . S
C859 C851 1.503 . S
C859 C858 1.370 . S
C859 C860 1.403 . S
C860 C859 1.403 . S
C860 C861 1.404 . S
C860 C863 1.539 . S
C861 C857 1.408 . S
C861 C860 1.404 . S
C861 H873 0.930 . S
C862 C858 1.524 . S
C862 H874 0.956 . S
C862 H875 0.961 . S
C862 H876 0.961 . S
C863 C860 1.539 . S
C863 H877 0.958 . S
C863 H878 0.961 . S
C863 H879 0.960 . S
H864 C848 0.931 . S
H865 C853 0.929 . S
H866 C854 0.960 . S
H867 C854 0.962 . S
H868 C854 0.960 . S
H869 C855 0.961 . S
H870 C855 0.961 . S
H871 C855 0.961 . S
H872 C856 0.931 . S
H873 C861 0.930 . S
H874 C862 0.956 . S
H875 C862 0.961 . S
H876 C862 0.961 . S
H877 C863 0.958 . S
H878 C863 0.961 . S
H879 C863 0.960 . S
C880 C881 1.391 . S
C880 C882 1.394 . S
C880 H896 0.931 . S
C881 C880 1.391 . S
C881 C885 1.376 . S
C882 C880 1.394 . S
C882 C883 1.369 . S
C882 C886 1.531 . S
C883 C882 1.369 . S
C883 C884 1.410 . S
C883 C891 1.503 . S
C884 C883 1.410 . S
C884 C885 1.392 . S
C884 C887 1.511 . S
C885 C881 1.376 . S
C885 C884 1.392 . S
C885 H897 0.929 . S
C886 C882 1.531 . S
C886 H898 0.960 . S
C886 H899 0.962 . S
C886 H900 0.960 . S
C887 C884 1.511 . S
C887 H901 0.961 . S
C887 H902 0.961 . S
C887 H903 0.961 . S
C888 C889 1.370 . S
C888 C890 1.363 . S
C888 H904 0.931 . S
C889 C888 1.370 . S
C889 C893 1.408 . S
C890 C888 1.363 . S
C890 C891 1.370 . S
C890 C894 1.524 . S
C891 C883 1.503 . S
C891 C890 1.370 . S
C891 C892 1.403 . S
C892 C891 1.403 . S
C892 C893 1.404 . S
C892 C895 1.539 . S
C893 C889 1.408 . S
C893 C892 1.404 . S
C893 H905 0.930 . S
C894 C890 1.524 . S
C894 H906 0.956 . S
C894 H907 0.961 . S
C894 H908 0.961 . S
C895 C892 1.539 . S
C895 H909 0.958 . S
C895 H910 0.961 . S
C895 H911 0.960 . S
H896 C880 0.931 . S
H897 C885 0.929 . S
H898 C886 0.960 . S
H899 C886 0.962 . S
H900 C886 0.960 . S
H901 C887 0.961 . S
H902 C887 0.961 . S
H903 C887 0.961 . S
H904 C888 0.931 . S
H905 C893 0.930 . S
H906 C894 0.956 . S
H907 C894 0.961 . S
H908 C894 0.961 . S
H909 C895 0.958 . S
H910 C895 0.961 . S
H911 C895 0.960 . S
C912 C913 1.391 . S
C912 C914 1.394 . S
C912 H928 0.931 . S
C913 C912 1.391 . S
C913 C917 1.376 . S
C914 C912 1.394 . S
C914 C915 1.369 . S
C914 C918 1.531 . S
C915 C914 1.369 . S
C915 C916 1.410 . S
C915 C923 1.503 . S
C916 C915 1.410 . S
C916 C917 1.392 . S
C916 C919 1.511 . S
C917 C913 1.376 . S
C917 C916 1.392 . S
C917 H929 0.929 . S
C918 C914 1.531 . S
C918 H930 0.960 . S
C918 H931 0.962 . S
C918 H932 0.960 . S
C919 C916 1.511 . S
C919 H933 0.961 . S
C919 H934 0.961 . S
C919 H935 0.961 . S
C920 C921 1.370 . S
C920 C922 1.363 . S
C920 H936 0.931 . S
C921 C920 1.370 . S
C921 C925 1.408 . S
C922 C920 1.363 . S
C922 C923 1.370 . S
C922 C926 1.524 . S
C923 C915 1.503 . S
C923 C922 1.370 . S
C923 C924 1.403 . S
C924 C923 1.403 . S
C924 C925 1.404 . S
C924 C927 1.539 . S
C925 C921 1.408 . S
C925 C924 1.404 . S
C925 H937 0.930 . S
C926 C922 1.524 . S
C926 H938 0.956 . S
C926 H939 0.961 . S
C926 H940 0.961 . S
C927 C924 1.539 . S
C927 H941 0.958 . S
C927 H942 0.961 . S
C927 H943 0.960 . S
H928 C912 0.931 . S
H929 C917 0.929 . S
H930 C918 0.960 . S
H931 C918 0.962 . S
H932 C918 0.960 . S
H933 C919 0.961 . S
H934 C919 0.961 . S
H935 C919 0.961 . S
H936 C920 0.931 . S
H937 C925 0.930 . S
H938 C926 0.956 . S
H939 C926 0.961 . S
H940 C926 0.961 . S
H941 C927 0.958 . S
H942 C927 0.961 . S
H943 C927 0.960 . S
C944 C945 1.391 . S
C944 C946 1.394 . S
C944 H960 0.931 . S
C945 C944 1.391 . S
C945 C949 1.376 . S
C946 C944 1.394 . S
C946 C947 1.369 . S
C946 C950 1.531 . S
C947 C946 1.369 . S
C947 C948 1.410 . S
C947 C955 1.503 . S
C948 C947 1.410 . S
C948 C949 1.392 . S
C948 C951 1.511 . S
C949 C945 1.376 . S
C949 C948 1.392 . S
C949 H961 0.929 . S
C950 C946 1.531 . S
C950 H962 0.960 . S
C950 H963 0.962 . S
C950 H964 0.960 . S
C951 C948 1.511 . S
C951 H965 0.961 . S
C951 H966 0.961 . S
C951 H967 0.961 . S
C952 C953 1.370 . S
C952 C954 1.363 . S
C952 H968 0.931 . S
C953 C952 1.370 . S
C953 C957 1.408 . S
C954 C952 1.363 . S
C954 C955 1.370 . S
C954 C958 1.524 . S
C955 C947 1.503 . S
C955 C954 1.370 . S
C955 C956 1.403 . S
C956 C955 1.403 . S
C956 C957 1.404 . S
C956 C959 1.539 . S
C957 C953 1.408 . S
C957 C956 1.404 . S
C957 H969 0.930 . S
C958 C954 1.524 . S
C958 H970 0.956 . S
C958 H971 0.961 . S
C958 H972 0.961 . S
C959 C956 1.539 . S
C959 H973 0.958 . S
C959 H974 0.961 . S
C959 H975 0.960 . S
H960 C944 0.931 . S
H961 C949 0.929 . S
H962 C950 0.960 . S
H963 C950 0.962 . S
H964 C950 0.960 . S
H965 C951 0.961 . S
H966 C951 0.961 . S
H967 C951 0.961 . S
H968 C952 0.931 . S
H969 C957 0.930 . S
H970 C958 0.956 . S
H971 C958 0.961 . S
H972 C958 0.961 . S
H973 C959 0.958 . S
H974 C959 0.961 . S
H975 C959 0.960 . S
C976 C977 1.391 . S
C976 C978 1.394 . S
C976 H992 0.931 . S
C977 C976 1.391 . S
C977 C981 1.376 . S
C978 C976 1.394 . S
C978 C979 1.369 . S
C978 C982 1.531 . S
C979 C978 1.369 . S
C979 C980 1.410 . S
C979 C987 1.503 . S
C980 C979 1.410 . S
C980 C981 1.392 . S
C980 C983 1.511 . S
C981 C977 1.376 . S
C981 C980 1.392 . S
C981 H993 0.929 . S
C982 C978 1.531 . S
C982 H994 0.960 . S
C982 H995 0.962 . S
C982 H996 0.960 . S
C983 C980 1.511 . S
C983 H997 0.961 . S
C983 H998 0.961 . S
C983 H999 0.961 . S
C984 C985 1.370 . S
C984 C986 1.363 . S
C984 H1000 0.931 . S
C985 C984 1.370 . S
C985 C989 1.408 . S
C986 C984 1.363 . S
C986 C987 1.370 . S
C986 C990 1.524 . S
C987 C979 1.503 . S
C987 C986 1.370 . S
C987 C988 1.403 . S
C988 C987 1.403 . S
C988 C989 1.404 . S
C988 C991 1.539 . S
C989 C985 1.408 . S
C989 C988 1.404 . S
C989 H1001 0.930 . S
C990 C986 1.524 . S
C990 H1002 0.956 . S
C990 H1003 0.961 . S
C990 H1004 0.961 . S
C991 C988 1.539 . S
C991 H1005 0.958 . S
C991 H1006 0.961 . S
C991 H1007 0.960 . S
H992 C976 0.931 . S
H993 C981 0.929 . S
H994 C982 0.960 . S
H995 C982 0.962 . S
H996 C982 0.960 . S
H997 C983 0.961 . S
H998 C983 0.961 . S
H999 C983 0.961 . S
H1000 C984 0.931 . S
H1001 C989 0.930 . S
H1002 C990 0.956 . S
H1003 C990 0.961 . S
H1004 C990 0.961 . S
H1005 C991 0.958 . S
H1006 C991 0.961 . S
H1007 C991 0.960 . S
C1008 C1009 1.391 . S
C1008 C1010 1.394 . S
C1008 H1024 0.931 . S
C1009 C1008 1.391 . S
C1009 C1013 1.376 . S
C1010 C1008 1.394 . S
C1010 C1011 1.369 . S
C1010 C1014 1.531 . S
C1011 C1010 1.369 . S
C1011 C1012 1.410 . S
C1011 C1019 1.503 . S
C1012 C1011 1.410 . S
C1012 C1013 1.392 . S
C1012 C1015 1.511 . S
C1013 C1009 1.376 . S
C1013 C1012 1.392 . S
C1013 H1025 0.929 . S
C1014 C1010 1.531 . S
C1014 H1026 0.960 . S
C1014 H1027 0.962 . S
C1014 H1028 0.960 . S
C1015 C1012 1.511 . S
C1015 H1029 0.961 . S
C1015 H1030 0.961 . S
C1015 H1031 0.961 . S
C1016 C1017 1.370 . S
C1016 C1018 1.363 . S
C1016 H1032 0.931 . S
C1017 C1016 1.370 . S
C1017 C1021 1.408 . S
C1018 C1016 1.363 . S
C1018 C1019 1.370 . S
C1018 C1022 1.524 . S
C1019 C1011 1.503 . S
C1019 C1018 1.370 . S
C1019 C1020 1.403 . S
C1020 C1019 1.403 . S
C1020 C1021 1.404 . S
C1020 C1023 1.539 . S
C1021 C1017 1.408 . S
C1021 C1020 1.404 . S
C1021 H1033 0.930 . S
C1022 C1018 1.524 . S
C1022 H1034 0.956 . S
C1022 H1035 0.961 . S
C1022 H1036 0.961 . S
C1023 C1020 1.539 . S
C1023 H1037 0.958 . S
C1023 H1038 0.961 . S
C1023 H1039 0.960 . S
H1024 C1008 0.931 . S
H1025 C1013 0.929 . S
H1026 C1014 0.960 . S
H1027 C1014 0.962 . S
H1028 C1014 0.960 . S
H1029 C1015 0.961 . S
H1030 C1015 0.961 . S
H1031 C1015 0.961 . S
H1032 C1016 0.931 . S
H1033 C1021 0.930 . S
H1034 C1022 0.956 . S
H1035 C1022 0.961 . S
H1036 C1022 0.961 . S
H1037 C1023 0.958 . S
H1038 C1023 0.961 . S
H1039 C1023 0.960 . S
C1040 C1041 1.391 . S
C1040 C1042 1.394 . S
C1040 H1056 0.931 . S
C1041 C1040 1.391 . S
C1041 C1045 1.376 . S
C1042 C1040 1.394 . S
C1042 C1043 1.369 . S
C1042 C1046 1.531 . S
C1043 C1042 1.369 . S
C1043 C1044 1.410 . S
C1043 C1051 1.503 . S
C1044 C1043 1.410 . S
C1044 C1045 1.392 . S
C1044 C1047 1.511 . S
C1045 C1041 1.376 . S
C1045 C1044 1.392 . S
C1045 H1057 0.929 . S
C1046 C1042 1.531 . S
C1046 H1058 0.960 . S
C1046 H1059 0.962 . S
C1046 H1060 0.960 . S
C1047 C1044 1.511 . S
C1047 H1061 0.961 . S
C1047 H1062 0.961 . S
C1047 H1063 0.961 . S
C1048 C1049 1.370 . S
C1048 C1050 1.363 . S
C1048 H1064 0.931 . S
C1049 C1048 1.370 . S
C1049 C1053 1.408 . S
C1050 C1048 1.363 . S
C1050 C1051 1.370 . S
C1050 C1054 1.524 . S
C1051 C1043 1.503 . S
C1051 C1050 1.370 . S
C1051 C1052 1.403 . S
C1052 C1051 1.403 . S
C1052 C1053 1.404 . S
C1052 C1055 1.539 . S
C1053 C1049 1.408 . S
C1053 C1052 1.404 . S
C1053 H1065 0.930 . S
C1054 C1050 1.524 . S
C1054 H1066 0.956 . S
C1054 H1067 0.961 . S
C1054 H1068 0.961 . S
C1055 C1052 1.539 . S
C1055 H1069 0.958 . S
C1055 H1070 0.961 . S
C1055 H1071 0.960 . S
H1056 C1040 0.931 . S
H1057 C1045 0.929 . S
H1058 C1046 0.960 . S
H1059 C1046 0.962 . S
H1060 C1046 0.960 . S
H1061 C1047 0.961 . S
H1062 C1047 0.961 . S
H1063 C1047 0.961 . S
H1064 C1048 0.931 . S
H1065 C1053 0.930 . S
H1066 C1054 0.956 . S
H1067 C1054 0.961 . S
H1068 C1054 0.961 . S
H1069 C1055 0.958 . S
H1070 C1055 0.961 . S
H1071 C1055 0.960 . S
C1072 C1073 1.391 . S
C1072 C1074 1.394 . S
C1072 H1088 0.931 . S
C1073 C1072 1.391 . S
C1073 C1077 1.376 . S
C1074 C1072 1.394 . S
C1074 C1075 1.369 . S
C1074 C1078 1.531 . S
C1075 C1074 1.369 . S
C1075 C1076 1.410 . S
C1075 C1083 1.503 . S
C1076 C1075 1.410 . S
C1076 C1077 1.392 . S
C1076 C1079 1.511 . S
C1077 C1073 1.376 . S
C1077 C1076 1.392 . S
C1077 H1089 0.929 . S
C1078 C1074 1.531 . S
C1078 H1090 0.960 . S
C1078 H1091 0.962 . S
C1078 H1092 0.960 . S
C1079 C1076 1.511 . S
C1079 H1093 0.961 . S
C1079 H1094 0.961 . S
C1079 H1095 0.961 . S
C1080 C1081 1.370 . S
C1080 C1082 1.363 . S
C1080 H1096 0.931 . S
C1081 C1080 1.370 . S
C1081 C1085 1.408 . S
C1082 C1080 1.363 . S
C1082 C1083 1.370 . S
C1082 C1086 1.524 . S
C1083 C1075 1.503 . S
C1083 C1082 1.370 . S
C1083 C1084 1.403 . S
C1084 C1083 1.403 . S
C1084 C1085 1.404 . S
C1084 C1087 1.539 . S
C1085 C1081 1.408 . S
C1085 C1084 1.404 . S
C1085 H1097 0.930 . S
C1086 C1082 1.524 . S
C1086 H1098 0.956 . S
C1086 H1099 0.961 . S
C1086 H1100 0.961 . S
C1087 C1084 1.539 . S
C1087 H1101 0.958 . S
C1087 H1102 0.961 . S
C1087 H1103 0.960 . S
H1088 C1072 0.931 . S
H1089 C1077 0.929 . S
H1090 C1078 0.960 . S
H1091 C1078 0.962 . S
H1092 C1078 0.960 . S
H1093 C1079 0.961 . S
H1094 C1079 0.961 . S
H1095 C1079 0.961 . S
H1096 C1080 0.931 . S
H1097 C1085 0.930 . S
H1098 C1086 0.956 . S
H1099 C1086 0.961 . S
H1100 C1086 0.961 . S
H1101 C1087 0.958 . S
H1102 C1087 0.961 . S
H1103 C1087 0.960 . S
C1104 C1105 1.391 . S
C1104 C1106 1.394 . S
C1104 H1120 0.931 . S
C1105 C1104 1.391 . S
C1105 C1109 1.376 . S
C1106 C1104 1.394 . S
C1106 C1107 1.369 . S
C1106 C1110 1.531 . S
C1107 C1106 1.369 . S
C1107 C1108 1.410 . S
C1107 C1115 1.503 . S
C1108 C1107 1.410 . S
C1108 C1109 1.392 . S
C1108 C1111 1.511 . S
C1109 C1105 1.376 . S
C1109 C1108 1.392 . S
C1109 H1121 0.929 . S
C1110 C1106 1.531 . S
C1110 H1122 0.960 . S
C1110 H1123 0.962 . S
C1110 H1124 0.960 . S
C1111 C1108 1.511 . S
C1111 H1125 0.961 . S
C1111 H1126 0.961 . S
C1111 H1127 0.961 . S
C1112 C1113 1.370 . S
C1112 C1114 1.363 . S
C1112 H1128 0.931 . S
C1113 C1112 1.370 . S
C1113 C1117 1.408 . S
C1114 C1112 1.363 . S
C1114 C1115 1.370 . S
C1114 C1118 1.524 . S
C1115 C1107 1.503 . S
C1115 C1114 1.370 . S
C1115 C1116 1.403 . S
C1116 C1115 1.403 . S
C1116 C1117 1.404 . S
C1116 C1119 1.539 . S
C1117 C1113 1.408 . S
C1117 C1116 1.404 . S
C1117 H1129 0.930 . S
C1118 C1114 1.524 . S
C1118 H1130 0.956 . S
C1118 H1131 0.961 . S
C1118 H1132 0.961 . S
C1119 C1116 1.539 . S
C1119 H1133 0.958 . S
C1119 H1134 0.961 . S
C1119 H1135 0.960 . S
H1120 C1104 0.931 . S
H1121 C1109 0.929 . S
H1122 C1110 0.960 . S
H1123 C1110 0.962 . S
H1124 C1110 0.960 . S
H1125 C1111 0.961 . S
H1126 C1111 0.961 . S
H1127 C1111 0.961 . S
H1128 C1112 0.931 . S
H1129 C1117 0.930 . S
H1130 C1118 0.956 . S
H1131 C1118 0.961 . S
H1132 C1118 0.961 . S
H1133 C1119 0.958 . S
H1134 C1119 0.961 . S
H1135 C1119 0.960 . S
C1136 C1137 1.391 . S
C1136 C1138 1.394 . S
C1136 H1152 0.931 . S
C1137 C1136 1.391 . S
C1137 C1141 1.376 . S
C1138 C1136 1.394 . S
C1138 C1139 1.369 . S
C1138 C1142 1.531 . S
C1139 C1138 1.369 . S
C1139 C1140 1.410 . S
C1139 C1147 1.503 . S
C1140 C1139 1.410 . S
C1140 C1141 1.392 . S
C1140 C1143 1.511 . S
C1141 C1137 1.376 . S
C1141 C1140 1.392 . S
C1141 H1153 0.929 . S
C1142 C1138 1.531 . S
C1142 H1154 0.960 . S
C1142 H1155 0.962 . S
C1142 H1156 0.960 . S
C1143 C1140 1.511 . S
C1143 H1157 0.961 . S
C1143 H1158 0.961 . S
C1143 H1159 0.961 . S
C1144 C1145 1.370 . S
C1144 C1146 1.363 . S
C1144 H1160 0.931 . S
C1145 C1144 1.370 . S
C1145 C1149 1.408 . S
C1146 C1144 1.363 . S
C1146 C1147 1.370 . S
C1146 C1150 1.524 . S
C1147 C1139 1.503 . S
C1147 C1146 1.370 . S
C1147 C1148 1.403 . S
C1148 C1147 1.403 . S
C1148 C1149 1.404 . S
C1148 C1151 1.539 . S
C1149 C1145 1.408 . S
C1149 C1148 1.404 . S
C1149 H1161 0.930 . S
C1150 C1146 1.524 . S
C1150 H1162 0.956 . S
C1150 H1163 0.961 . S
C1150 H1164 0.961 . S
C1151 C1148 1.539 . S
C1151 H1165 0.958 . S
C1151 H1166 0.961 . S
C1151 H1167 0.960 . S
H1152 C1136 0.931 . S
H1153 C1141 0.929 . S
H1154 C1142 0.960 . S
H1155 C1142 0.962 . S
H1156 C1142 0.960 . S
H1157 C1143 0.961 . S
H1158 C1143 0.961 . S
H1159 C1143 0.961 . S
H1160 C1144 0.931 . S
H1161 C1149 0.930 . S
H1162 C1150 0.956 . S
H1163 C1150 0.961 . S
H1164 C1150 0.961 . S
H1165 C1151 0.958 . S
H1166 C1151 0.961 . S
H1167 C1151 0.960 . S
C1168 C1169 1.391 . S
C1168 C1170 1.394 . S
C1168 H1184 0.931 . S
C1169 C1168 1.391 . S
C1169 C1173 1.376 . S
C1170 C1168 1.394 . S
C1170 C1171 1.369 . S
C1170 C1174 1.531 . S
C1171 C1170 1.369 . S
C1171 C1172 1.410 . S
C1171 C1179 1.503 . S
C1172 C1171 1.410 . S
C1172 C1173 1.392 . S
C1172 C1175 1.511 . S
C1173 C1169 1.376 . S
C1173 C1172 1.392 . S
C1173 H1185 0.929 . S
C1174 C1170 1.531 . S
C1174 H1186 0.960 . S
C1174 H1187 0.962 . S
C1174 H1188 0.960 . S
C1175 C1172 1.511 . S
C1175 H1189 0.961 . S
C1175 H1190 0.961 . S
C1175 H1191 0.961 . S
C1176 C1177 1.370 . S
C1176 C1178 1.363 . S
C1176 H1192 0.931 . S
C1177 C1176 1.370 . S
C1177 C1181 1.408 . S
C1178 C1176 1.363 . S
C1178 C1179 1.370 . S
C1178 C1182 1.524 . S
C1179 C1171 1.503 . S
C1179 C1178 1.370 . S
C1179 C1180 1.403 . S
C1180 C1179 1.403 . S
C1180 C1181 1.404 . S
C1180 C1183 1.539 . S
C1181 C1177 1.408 . S
C1181 C1180 1.404 . S
C1181 H1193 0.930 . S
C1182 C1178 1.524 . S
C1182 H1194 0.956 . S
C1182 H1195 0.961 . S
C1182 H1196 0.961 . S
C1183 C1180 1.539 . S
C1183 H1197 0.958 . S
C1183 H1198 0.961 . S
C1183 H1199 0.960 . S
H1184 C1168 0.931 . S
H1185 C1173 0.929 . S
H1186 C1174 0.960 . S
H1187 C1174 0.962 . S
H1188 C1174 0.960 . S
H1189 C1175 0.961 . S
H1190 C1175 0.961 . S
H1191 C1175 0.961 . S
H1192 C1176 0.931 . S
H1193 C1181 0.930 . S
H1194 C1182 0.956 . S
H1195 C1182 0.961 . S
H1196 C1182 0.961 . S
H1197 C1183 0.958 . S
H1198 C1183 0.961 . S
H1199 C1183 0.960 . S
C1200 C1201 1.391 . S
C1200 C1202 1.394 . S
C1200 H1216 0.931 . S
C1201 C1200 1.391 . S
C1201 C1205 1.376 . S
C1202 C1200 1.394 . S
C1202 C1203 1.369 . S
C1202 C1206 1.531 . S
C1203 C1202 1.369 . S
C1203 C1204 1.410 . S
C1203 C1211 1.503 . S
C1204 C1203 1.410 . S
C1204 C1205 1.392 . S
C1204 C1207 1.511 . S
C1205 C1201 1.376 . S
C1205 C1204 1.392 . S
C1205 H1217 0.929 . S
C1206 C1202 1.531 . S
C1206 H1218 0.960 . S
C1206 H1219 0.962 . S
C1206 H1220 0.960 . S
C1207 C1204 1.511 . S
C1207 H1221 0.961 . S
C1207 H1222 0.961 . S
C1207 H1223 0.961 . S
C1208 C1209 1.370 . S
C1208 C1210 1.363 . S
C1208 H1224 0.931 . S
C1209 C1208 1.370 . S
C1209 C1213 1.408 . S
C1210 C1208 1.363 . S
C1210 C1211 1.370 . S
C1210 C1214 1.524 . S
C1211 C1203 1.503 . S
C1211 C1210 1.370 . S
C1211 C1212 1.403 . S
C1212 C1211 1.403 . S
C1212 C1213 1.404 . S
C1212 C1215 1.539 . S
C1213 C1209 1.408 . S
C1213 C1212 1.404 . S
C1213 H1225 0.930 . S
C1214 C1210 1.524 . S
C1214 H1226 0.956 . S
C1214 H1227 0.961 . S
C1214 H1228 0.961 . S
C1215 C1212 1.539 . S
C1215 H1229 0.958 . S
C1215 H1230 0.961 . S
C1215 H1231 0.960 . S
H1216 C1200 0.931 . S
H1217 C1205 0.929 . S
H1218 C1206 0.960 . S
H1219 C1206 0.962 . S
H1220 C1206 0.960 . S
H1221 C1207 0.961 . S
H1222 C1207 0.961 . S
H1223 C1207 0.961 . S
H1224 C1208 0.931 . S
H1225 C1213 0.930 . S
H1226 C1214 0.956 . S
H1227 C1214 0.961 . S
H1228 C1214 0.961 . S
H1229 C1215 0.958 . S
H1230 C1215 0.961 . S
H1231 C1215 0.960 . S
C1232 C1233 1.391 . S
C1232 C1234 1.394 . S
C1232 H1248 0.931 . S
C1233 C1232 1.391 . S
C1233 C1237 1.376 . S
C1234 C1232 1.394 . S
C1234 C1235 1.369 . S
C1234 C1238 1.531 . S
C1235 C1234 1.369 . S
C1235 C1236 1.410 . S
C1235 C1243 1.503 . S
C1236 C1235 1.410 . S
C1236 C1237 1.392 . S
C1236 C1239 1.511 . S
C1237 C1233 1.376 . S
C1237 C1236 1.392 . S
C1237 H1249 0.929 . S
C1238 C1234 1.531 . S
C1238 H1250 0.960 . S
C1238 H1251 0.962 . S
C1238 H1252 0.960 . S
C1239 C1236 1.511 . S
C1239 H1253 0.961 . S
C1239 H1254 0.961 . S
C1239 H1255 0.961 . S
C1240 C1241 1.370 . S
C1240 C1242 1.363 . S
C1240 H1256 0.931 . S
C1241 C1240 1.370 . S
C1241 C1245 1.408 . S
C1242 C1240 1.363 . S
C1242 C1243 1.370 . S
C1242 C1246 1.524 . S
C1243 C1235 1.503 . S
C1243 C1242 1.370 . S
C1243 C1244 1.403 . S
C1244 C1243 1.403 . S
C1244 C1245 1.404 . S
C1244 C1247 1.539 . S
C1245 C1241 1.408 . S
C1245 C1244 1.404 . S
C1245 H1257 0.930 . S
C1246 C1242 1.524 . S
C1246 H1258 0.956 . S
C1246 H1259 0.961 . S
C1246 H1260 0.961 . S
C1247 C1244 1.539 . S
C1247 H1261 0.958 . S
C1247 H1262 0.961 . S
C1247 H1263 0.960 . S
H1248 C1232 0.931 . S
H1249 C1237 0.929 . S
H1250 C1238 0.960 . S
H1251 C1238 0.962 . S
H1252 C1238 0.960 . S
H1253 C1239 0.961 . S
H1254 C1239 0.961 . S
H1255 C1239 0.961 . S
H1256 C1240 0.931 . S
H1257 C1245 0.930 . S
H1258 C1246 0.956 . S
H1259 C1246 0.961 . S
H1260 C1246 0.961 . S
H1261 C1247 0.958 . S
H1262 C1247 0.961 . S
H1263 C1247 0.960 . S
C1264 C1265 1.391 . S
C1264 C1266 1.394 . S
C1264 H1280 0.931 . S
C1265 C1264 1.391 . S
C1265 C1269 1.376 . S
C1266 C1264 1.394 . S
C1266 C1267 1.369 . S
C1266 C1270 1.531 . S
C1267 C1266 1.369 . S
C1267 C1268 1.410 . S
C1267 C1275 1.503 . S
C1268 C1267 1.410 . S
C1268 C1269 1.392 . S
C1268 C1271 1.511 . S
C1269 C1265 1.376 . S
C1269 C1268 1.392 . S
C1269 H1281 0.929 . S
C1270 C1266 1.531 . S
C1270 H1282 0.960 . S
C1270 H1283 0.962 . S
C1270 H1284 0.960 . S
C1271 C1268 1.511 . S
C1271 H1285 0.961 . S
C1271 H1286 0.961 . S
C1271 H1287 0.961 . S
C1272 C1273 1.370 . S
C1272 C1274 1.363 . S
C1272 H1288 0.931 . S
C1273 C1272 1.370 . S
C1273 C1277 1.408 . S
C1274 C1272 1.363 . S
C1274 C1275 1.370 . S
C1274 C1278 1.524 . S
C1275 C1267 1.503 . S
C1275 C1274 1.370 . S
C1275 C1276 1.403 . S
C1276 C1275 1.403 . S
C1276 C1277 1.404 . S
C1276 C1279 1.539 . S
C1277 C1273 1.408 . S
C1277 C1276 1.404 . S
C1277 H1289 0.930 . S
C1278 C1274 1.524 . S
C1278 H1290 0.956 . S
C1278 H1291 0.961 . S
C1278 H1292 0.961 . S
C1279 C1276 1.539 . S
C1279 H1293 0.958 . S
C1279 H1294 0.961 . S
C1279 H1295 0.960 . S
H1280 C1264 0.931 . S
H1281 C1269 0.929 . S
H1282 C1270 0.960 . S
H1283 C1270 0.962 . S
H1284 C1270 0.960 . S
H1285 C1271 0.961 . S
H1286 C1271 0.961 . S
H1287 C1271 0.961 . S
H1288 C1272 0.931 . S
H1289 C1277 0.930 . S
H1290 C1278 0.956 . S
H1291 C1278 0.961 . S
H1292 C1278 0.961 . S
H1293 C1279 0.958 . S
H1294 C1279 0.961 . S
H1295 C1279 0.960 . S
C1296 C1297 1.391 . S
C1296 C1298 1.394 . S
C1296 H1312 0.931 . S
C1297 C1296 1.391 . S
C1297 C1301 1.376 . S
C1298 C1296 1.394 . S
C1298 C1299 1.369 . S
C1298 C1302 1.531 . S
C1299 C1298 1.369 . S
C1299 C1300 1.410 . S
C1299 C1307 1.503 . S
C1300 C1299 1.410 . S
C1300 C1301 1.392 . S
C1300 C1303 1.511 . S
C1301 C1297 1.376 . S
C1301 C1300 1.392 . S
C1301 H1313 0.929 . S
C1302 C1298 1.531 . S
C1302 H1314 0.960 . S
C1302 H1315 0.962 . S
C1302 H1316 0.960 . S
C1303 C1300 1.511 . S
C1303 H1317 0.961 . S
C1303 H1318 0.961 . S
C1303 H1319 0.961 . S
C1304 C1305 1.370 . S
C1304 C1306 1.363 . S
C1304 H1320 0.931 . S
C1305 C1304 1.370 . S
C1305 C1309 1.408 . S
C1306 C1304 1.363 . S
C1306 C1307 1.370 . S
C1306 C1310 1.524 . S
C1307 C1299 1.503 . S
C1307 C1306 1.370 . S
C1307 C1308 1.403 . S
C1308 C1307 1.403 . S
C1308 C1309 1.404 . S
C1308 C1311 1.539 . S
C1309 C1305 1.408 . S
C1309 C1308 1.404 . S
C1309 H1321 0.930 . S
C1310 C1306 1.524 . S
C1310 H1322 0.956 . S
C1310 H1323 0.961 . S
C1310 H1324 0.961 . S
C1311 C1308 1.539 . S
C1311 H1325 0.958 . S
C1311 H1326 0.961 . S
C1311 H1327 0.960 . S
H1312 C1296 0.931 . S
H1313 C1301 0.929 . S
H1314 C1302 0.960 . S
H1315 C1302 0.962 . S
H1316 C1302 0.960 . S
H1317 C1303 0.961 . S
H1318 C1303 0.961 . S
H1319 C1303 0.961 . S
H1320 C1304 0.931 . S
H1321 C1309 0.930 . S
H1322 C1310 0.956 . S
H1323 C1310 0.961 . S
H1324 C1310 0.961 . S
H1325 C1311 0.958 . S
H1326 C1311 0.961 . S
H1327 C1311 0.960 . S
C1328 C1329 1.391 . S
C1328 C1330 1.394 . S
C1328 H1344 0.931 . S
C1329 C1328 1.391 . S
C1329 C1333 1.376 . S
C1330 C1328 1.394 . S
C1330 C1331 1.369 . S
C1330 C1334 1.531 . S
C1331 C1330 1.369 . S
C1331 C1332 1.410 . S
C1331 C1339 1.503 . S
C1332 C1331 1.410 . S
C1332 C1333 1.392 . S
C1332 C1335 1.511 . S
C1333 C1329 1.376 . S
C1333 C1332 1.392 . S
C1333 H1345 0.929 . S
C1334 C1330 1.531 . S
C1334 H1346 0.960 . S
C1334 H1347 0.962 . S
C1334 H1348 0.960 . S
C1335 C1332 1.511 . S
C1335 H1349 0.961 . S
C1335 H1350 0.961 . S
C1335 H1351 0.961 . S
C1336 C1337 1.370 . S
C1336 C1338 1.363 . S
C1336 H1352 0.931 . S
C1337 C1336 1.370 . S
C1337 C1341 1.408 . S
C1338 C1336 1.363 . S
C1338 C1339 1.370 . S
C1338 C1342 1.524 . S
C1339 C1331 1.503 . S
C1339 C1338 1.370 . S
C1339 C1340 1.403 . S
C1340 C1339 1.403 . S
C1340 C1341 1.404 . S
C1340 C1343 1.539 . S
C1341 C1337 1.408 . S
C1341 C1340 1.404 . S
C1341 H1353 0.930 . S
C1342 C1338 1.524 . S
C1342 H1354 0.956 . S
C1342 H1355 0.961 . S
C1342 H1356 0.961 . S
C1343 C1340 1.539 . S
C1343 H1357 0.958 . S
C1343 H1358 0.961 . S
C1343 H1359 0.960 . S
H1344 C1328 0.931 . S
H1345 C1333 0.929 . S
H1346 C1334 0.960 . S
H1347 C1334 0.962 . S
H1348 C1334 0.960 . S
H1349 C1335 0.961 . S
H1350 C1335 0.961 . S
H1351 C1335 0.961 . S
H1352 C1336 0.931 . S
H1353 C1341 0.930 . S
H1354 C1342 0.956 . S
H1355 C1342 0.961 . S
H1356 C1342 0.961 . S
H1357 C1343 0.958 . S
H1358 C1343 0.961 . S
H1359 C1343 0.960 . S
C1360 C1361 1.391 . S
C1360 C1362 1.394 . S
C1360 H1376 0.931 . S
C1361 C1360 1.391 . S
C1361 C1365 1.376 . S
C1362 C1360 1.394 . S
C1362 C1363 1.369 . S
C1362 C1366 1.531 . S
C1363 C1362 1.369 . S
C1363 C1364 1.410 . S
C1363 C1371 1.503 . S
C1364 C1363 1.410 . S
C1364 C1365 1.392 . S
C1364 C1367 1.511 . S
C1365 C1361 1.376 . S
C1365 C1364 1.392 . S
C1365 H1377 0.929 . S
C1366 C1362 1.531 . S
C1366 H1378 0.960 . S
C1366 H1379 0.962 . S
C1366 H1380 0.960 . S
C1367 C1364 1.511 . S
C1367 H1381 0.961 . S
C1367 H1382 0.961 . S
C1367 H1383 0.961 . S
C1368 C1369 1.370 . S
C1368 C1370 1.363 . S
C1368 H1384 0.931 . S
C1369 C1368 1.370 . S
C1369 C1373 1.408 . S
C1370 C1368 1.363 . S
C1370 C1371 1.370 . S
C1370 C1374 1.524 . S
C1371 C1363 1.503 . S
C1371 C1370 1.370 . S
C1371 C1372 1.403 . S
C1372 C1371 1.403 . S
C1372 C1373 1.404 . S
C1372 C1375 1.539 . S
C1373 C1369 1.408 . S
C1373 C1372 1.404 . S
C1373 H1385 0.930 . S
C1374 C1370 1.524 . S
C1374 H1386 0.956 . S
C1374 H1387 0.961 . S
C1374 H1388 0.961 . S
C1375 C1372 1.539 . S
C1375 H1389 0.958 . S
C1375 H1390 0.961 . S
C1375 H1391 0.960 . S
H1376 C1360 0.931 . S
H1377 C1365 0.929 . S
H1378 C1366 0.960 . S
H1379 C1366 0.962 . S
H1380 C1366 0.960 . S
H1381 C1367 0.961 . S
H1382 C1367 0.961 . S
H1383 C1367 0.961 . S
H1384 C1368 0.931 . S
H1385 C1373 0.930 . S
H1386 C1374 0.956 . S
H1387 C1374 0.961 . S
H1388 C1374 0.961 . S
H1389 C1375 0.958 . S
H1390 C1375 0.961 . S
H1391 C1375 0.960 . S
C1392 C1393 1.391 . S
C1392 C1394 1.394 . S
C1392 H1408 0.931 . S
C1393 C1392 1.391 . S
C1393 C1397 1.376 . S
C1394 C1392 1.394 . S
C1394 C1395 1.369 . S
C1394 C1398 1.531 . S
C1395 C1394 1.369 . S
C1395 C1396 1.410 . S
C1395 C1403 1.503 . S
C1396 C1395 1.410 . S
C1396 C1397 1.392 . S
C1396 C1399 1.511 . S
C1397 C1393 1.376 . S
C1397 C1396 1.392 . S
C1397 H1409 0.929 . S
C1398 C1394 1.531 . S
C1398 H1410 0.960 . S
C1398 H1411 0.962 . S
C1398 H1412 0.960 . S
C1399 C1396 1.511 . S
C1399 H1413 0.961 . S
C1399 H1414 0.961 . S
C1399 H1415 0.961 . S
C1400 C1401 1.370 . S
C1400 C1402 1.363 . S
C1400 H1416 0.931 . S
C1401 C1400 1.370 . S
C1401 C1405 1.408 . S
C1402 C1400 1.363 . S
C1402 C1403 1.370 . S
C1402 C1406 1.524 . S
C1403 C1395 1.503 . S
C1403 C1402 1.370 . S
C1403 C1404 1.403 . S
C1404 C1403 1.403 . S
C1404 C1405 1.404 . S
C1404 C1407 1.539 . S
C1405 C1401 1.408 . S
C1405 C1404 1.404 . S
C1405 H1417 0.930 . S
C1406 C1402 1.524 . S
C1406 H1418 0.956 . S
C1406 H1419 0.961 . S
C1406 H1420 0.961 . S
C1407 C1404 1.539 . S
C1407 H1421 0.958 . S
C1407 H1422 0.961 . S
C1407 H1423 0.960 . S
H1408 C1392 0.931 . S
H1409 C1397 0.929 . S
H1410 C1398 0.960 . S
H1411 C1398 0.962 . S
H1412 C1398 0.960 . S
H1413 C1399 0.961 . S
H1414 C1399 0.961 . S
H1415 C1399 0.961 . S
H1416 C1400 0.931 . S
H1417 C1405 0.930 . S
H1418 C1406 0.956 . S
H1419 C1406 0.961 . S
H1420 C1406 0.961 . S
H1421 C1407 0.958 . S
H1422 C1407 0.961 . S
H1423 C1407 0.960 . S
C1424 C1425 1.391 . S
C1424 C1426 1.394 . S
C1424 H1440 0.931 . S
C1425 C1424 1.391 . S
C1425 C1429 1.376 . S
C1426 C1424 1.394 . S
C1426 C1427 1.369 . S
C1426 C1430 1.531 . S
C1427 C1426 1.369 . S
C1427 C1428 1.410 . S
C1427 C1435 1.503 . S
C1428 C1427 1.410 . S
C1428 C1429 1.392 . S
C1428 C1431 1.511 . S
C1429 C1425 1.376 . S
C1429 C1428 1.392 . S
C1429 H1441 0.929 . S
C1430 C1426 1.531 . S
C1430 H1442 0.960 . S
C1430 H1443 0.962 . S
C1430 H1444 0.960 . S
C1431 C1428 1.511 . S
C1431 H1445 0.961 . S
C1431 H1446 0.961 . S
C1431 H1447 0.961 . S
C1432 C1433 1.370 . S
C1432 C1434 1.363 . S
C1432 H1448 0.931 . S
C1433 C1432 1.370 . S
C1433 C1437 1.408 . S
C1434 C1432 1.363 . S
C1434 C1435 1.370 . S
C1434 C1438 1.524 . S
C1435 C1427 1.503 . S
C1435 C1434 1.370 . S
C1435 C1436 1.403 . S
C1436 C1435 1.403 . S
C1436 C1437 1.404 . S
C1436 C1439 1.539 . S
C1437 C1433 1.408 . S
C1437 C1436 1.404 . S
C1437 H1449 0.930 . S
C1438 C1434 1.524 . S
C1438 H1450 0.956 . S
C1438 H1451 0.961 . S
C1438 H1452 0.961 . S
C1439 C1436 1.539 . S
C1439 H1453 0.958 . S
C1439 H1454 0.961 . S
C1439 H1455 0.960 . S
H1440 C1424 0.931 . S
H1441 C1429 0.929 . S
H1442 C1430 0.960 . S
H1443 C1430 0.962 . S
H1444 C1430 0.960 . S
H1445 C1431 0.961 . S
H1446 C1431 0.961 . S
H1447 C1431 0.961 . S
H1448 C1432 0.931 . S
H1449 C1437 0.930 . S
H1450 C1438 0.956 . S
H1451 C1438 0.961 . S
H1452 C1438 0.961 . S
H1453 C1439 0.958 . S
H1454 C1439 0.961 . S
H1455 C1439 0.960 . S
C1456 C1457 1.391 . S
C1456 C1458 1.394 . S
C1456 H1472 0.931 . S
C1457 C1456 1.391 . S
C1457 C1461 1.376 . S
C1458 C1456 1.394 . S
C1458 C1459 1.369 . S
C1458 C1462 1.531 . S
C1459 C1458 1.369 . S
C1459 C1460 1.410 . S
C1459 C1467 1.503 . S
C1460 C1459 1.410 . S
C1460 C1461 1.392 . S
C1460 C1463 1.511 . S
C1461 C1457 1.376 . S
C1461 C1460 1.392 . S
C1461 H1473 0.929 . S
C1462 C1458 1.531 . S
C1462 H1474 0.960 . S
C1462 H1475 0.962 . S
C1462 H1476 0.960 . S
C1463 C1460 1.511 . S
C1463 H1477 0.961 . S
C1463 H1478 0.961 . S
C1463 H1479 0.961 . S
C1464 C1465 1.370 . S
C1464 C1466 1.363 . S
C1464 H1480 0.931 . S
C1465 C1464 1.370 . S
C1465 C1469 1.408 . S
C1466 C1464 1.363 . S
C1466 C1467 1.370 . S
C1466 C1470 1.524 . S
C1467 C1459 1.503 . S
C1467 C1466 1.370 . S
C1467 C1468 1.403 . S
C1468 C1467 1.403 . S
C1468 C1469 1.404 . S
C1468 C1471 1.539 . S
C1469 C1465 1.408 . S
C1469 C1468 1.404 . S
C1469 H1481 0.930 . S
C1470 C1466 1.524 . S
C1470 H1482 0.956 . S
C1470 H1483 0.961 . S
C1470 H1484 0.961 . S
C1471 C1468 1.539 . S
C1471 H1485 0.958 . S
C1471 H1486 0.961 . S
C1471 H1487 0.960 . S
H1472 C1456 0.931 . S
H1473 C1461 0.929 . S
H1474 C1462 0.960 . S
H1475 C1462 0.962 . S
H1476 C1462 0.960 . S
H1477 C1463 0.961 . S
H1478 C1463 0.961 . S
H1479 C1463 0.961 . S
H1480 C1464 0.931 . S
H1481 C1469 0.930 . S
H1482 C1470 0.956 . S
H1483 C1470 0.961 . S
H1484 C1470 0.961 . S
H1485 C1471 0.958 . S
H1486 C1471 0.961 . S
H1487 C1471 0.960 . S
C1488 C1489 1.391 . S
C1488 C1490 1.394 . S
C1488 H1504 0.931 . S
C1489 C1488 1.391 . S
C1489 C1493 1.376 . S
C1490 C1488 1.394 . S
C1490 C1491 1.369 . S
C1490 C1494 1.531 . S
C1491 C1490 1.369 . S
C1491 C1492 1.410 . S
C1491 C1499 1.503 . S
C1492 C1491 1.410 . S
C1492 C1493 1.392 . S
C1492 C1495 1.511 . S
C1493 C1489 1.376 . S
C1493 C1492 1.392 . S
C1493 H1505 0.929 . S
C1494 C1490 1.531 . S
C1494 H1506 0.960 . S
C1494 H1507 0.962 . S
C1494 H1508 0.960 . S
C1495 C1492 1.511 . S
C1495 H1509 0.961 . S
C1495 H1510 0.961 . S
C1495 H1511 0.961 . S
C1496 C1497 1.370 . S
C1496 C1498 1.363 . S
C1496 H1512 0.931 . S
C1497 C1496 1.370 . S
C1497 C1501 1.408 . S
C1498 C1496 1.363 . S
C1498 C1499 1.370 . S
C1498 C1502 1.524 . S
C1499 C1491 1.503 . S
C1499 C1498 1.370 . S
C1499 C1500 1.403 . S
C1500 C1499 1.403 . S
C1500 C1501 1.404 . S
C1500 C1503 1.539 . S
C1501 C1497 1.408 . S
C1501 C1500 1.404 . S
C1501 H1513 0.930 . S
C1502 C1498 1.524 . S
C1502 H1514 0.956 . S
C1502 H1515 0.961 . S
C1502 H1516 0.961 . S
C1503 C1500 1.539 . S
C1503 H1517 0.958 . S
C1503 H1518 0.961 . S
C1503 H1519 0.960 . S
H1504 C1488 0.931 . S
H1505 C1493 0.929 . S
H1506 C1494 0.960 . S
H1507 C1494 0.962 . S
H1508 C1494 0.960 . S
H1509 C1495 0.961 . S
H1510 C1495 0.961 . S
H1511 C1495 0.961 . S
H1512 C1496 0.931 . S
H1513 C1501 0.930 . S
H1514 C1502 0.956 . S
H1515 C1502 0.961 . S
H1516 C1502 0.961 . S
H1517 C1503 0.958 . S
H1518 C1503 0.961 . S
H1519 C1503 0.960 . S
C1520 C1521 1.391 . S
C1520 C1522 1.394 . S
C1520 H1536 0.931 . S
C1521 C1520 1.391 . S
C1521 C1525 1.376 . S
C1522 C1520 1.394 . S
C1522 C1523 1.369 . S
C1522 C1526 1.531 . S
C1523 C1522 1.369 . S
C1523 C1524 1.410 . S
C1523 C1531 1.503 . S
C1524 C1523 1.410 . S
C1524 C1525 1.392 . S
C1524 C1527 1.511 . S
C1525 C1521 1.376 . S
C1525 C1524 1.392 . S
C1525 H1537 0.929 . S
C1526 C1522 1.531 . S
C1526 H1538 0.960 . S
C1526 H1539 0.962 . S
C1526 H1540 0.960 . S
C1527 C1524 1.511 . S
C1527 H1541 0.961 . S
C1527 H1542 0.961 . S
C1527 H1543 0.961 . S
C1528 C1529 1.370 . S
C1528 C1530 1.363 . S
C1528 H1544 0.931 . S
C1529 C1528 1.370 . S
C1529 C1533 1.408 . S
C1530 C1528 1.363 . S
C1530 C1531 1.370 . S
C1530 C1534 1.524 . S
C1531 C1523 1.503 . S
C1531 C1530 1.370 . S
C1531 C1532 1.403 . S
C1532 C1531 1.403 . S
C1532 C1533 1.404 . S
C1532 C1535 1.539 . S
C1533 C1529 1.408 . S
C1533 C1532 1.404 . S
C1533 H1545 0.930 . S
C1534 C1530 1.524 . S
C1534 H1546 0.956 . S
C1534 H1547 0.961 . S
C1534 H1548 0.961 . S
C1535 C1532 1.539 . S
C1535 H1549 0.958 . S
C1535 H1550 0.961 . S
C1535 H1551 0.960 . S
H1536 C1520 0.931 . S
H1537 C1525 0.929 . S
H1538 C1526 0.960 . S
H1539 C1526 0.962 . S
H1540 C1526 0.960 . S
H1541 C1527 0.961 . S
H1542 C1527 0.961 . S
H1543 C1527 0.961 . S
H1544 C1528 0.931 . S
H1545 C1533 0.930 . S
H1546 C1534 0.956 . S
H1547 C1534 0.961 . S
H1548 C1534 0.961 . S
H1549 C1535 0.958 . S
H1550 C1535 0.961 . S
H1551 C1535 0.960 . S
C1552 C1553 1.391 . S
C1552 C1554 1.394 . S
C1552 H1568 0.931 . S
C1553 C1552 1.391 . S
C1553 C1557 1.376 . S
C1554 C1552 1.394 . S
C1554 C1555 1.369 . S
C1554 C1558 1.531 . S
C1555 C1554 1.369 . S
C1555 C1556 1.410 . S
C1555 C1563 1.503 . S
C1556 C1555 1.410 . S
C1556 C1557 1.392 . S
C1556 C1559 1.511 . S
C1557 C1553 1.376 . S
C1557 C1556 1.392 . S
C1557 H1569 0.929 . S
C1558 C1554 1.531 . S
C1558 H1570 0.960 . S
C1558 H1571 0.962 . S
C1558 H1572 0.960 . S
C1559 C1556 1.511 . S
C1559 H1573 0.961 . S
C1559 H1574 0.961 . S
C1559 H1575 0.961 . S
C1560 C1561 1.370 . S
C1560 C1562 1.363 . S
C1560 H1576 0.931 . S
C1561 C1560 1.370 . S
C1561 C1565 1.408 . S
C1562 C1560 1.363 . S
C1562 C1563 1.370 . S
C1562 C1566 1.524 . S
C1563 C1555 1.503 . S
C1563 C1562 1.370 . S
C1563 C1564 1.403 . S
C1564 C1563 1.403 . S
C1564 C1565 1.404 . S
C1564 C1567 1.539 . S
C1565 C1561 1.408 . S
C1565 C1564 1.404 . S
C1565 H1577 0.930 . S
C1566 C1562 1.524 . S
C1566 H1578 0.956 . S
C1566 H1579 0.961 . S
C1566 H1580 0.961 . S
C1567 C1564 1.539 . S
C1567 H1581 0.958 . S
C1567 H1582 0.961 . S
C1567 H1583 0.960 . S
H1568 C1552 0.931 . S
H1569 C1557 0.929 . S
H1570 C1558 0.960 . S
H1571 C1558 0.962 . S
H1572 C1558 0.960 . S
H1573 C1559 0.961 . S
H1574 C1559 0.961 . S
H1575 C1559 0.961 . S
H1576 C1560 0.931 . S
H1577 C1565 0.930 . S
H1578 C1566 0.956 . S
H1579 C1566 0.961 . S
H1580 C1566 0.961 . S
H1581 C1567 0.958 . S
H1582 C1567 0.961 . S
H1583 C1567 0.960 . S
C1584 C1585 1.391 . S
C1584 C1586 1.394 . S
C1584 H1600 0.931 . S
C1585 C1584 1.391 . S
C1585 C1589 1.376 . S
C1586 C1584 1.394 . S
C1586 C1587 1.369 . S
C1586 C1590 1.531 . S
C1587 C1586 1.369 . S
C1587 C1588 1.410 . S
C1587 C1595 1.503 . S
C1588 C1587 1.410 . S
C1588 C1589 1.392 . S
C1588 C1591 1.511 . S
C1589 C1585 1.376 . S
C1589 C1588 1.392 . S
C1589 H1601 0.929 . S
C1590 C1586 1.531 . S
C1590 H1602 0.960 . S
C1590 H1603 0.962 . S
C1590 H1604 0.960 . S
C1591 C1588 1.511 . S
C1591 H1605 0.961 . S
C1591 H1606 0.961 . S
C1591 H1607 0.961 . S
C1592 C1593 1.370 . S
C1592 C1594 1.363 . S
C1592 H1608 0.931 . S
C1593 C1592 1.370 . S
C1593 C1597 1.408 . S
C1594 C1592 1.363 . S
C1594 C1595 1.370 . S
C1594 C1598 1.524 . S
C1595 C1587 1.503 . S
C1595 C1594 1.370 . S
C1595 C1596 1.403 . S
C1596 C1595 1.403 . S
C1596 C1597 1.404 . S
C1596 C1599 1.539 . S
C1597 C1593 1.408 . S
C1597 C1596 1.404 . S
C1597 H1609 0.930 . S
C1598 C1594 1.524 . S
C1598 H1610 0.956 . S
C1598 H1611 0.961 . S
C1598 H1612 0.961 . S
C1599 C1596 1.539 . S
C1599 H1613 0.958 . S
C1599 H1614 0.961 . S
C1599 H1615 0.960 . S
H1600 C1584 0.931 . S
H1601 C1589 0.929 . S
H1602 C1590 0.960 . S
H1603 C1590 0.962 . S
H1604 C1590 0.960 . S
H1605 C1591 0.961 . S
H1606 C1591 0.961 . S
H1607 C1591 0.961 . S
H1608 C1592 0.931 . S
H1609 C1597 0.930 . S
H1610 C1598 0.956 . S
H1611 C1598 0.961 . S
H1612 C1598 0.961 . S
H1613 C1599 0.958 . S
H1614 C1599 0.961 . S
H1615 C1599 0.960 . S
C1616 C1617 1.391 . S
C1616 C1618 1.394 . S
C1616 H1632 0.931 . S
C1617 C1616 1.391 . S
C1617 C1621 1.376 . S
C1618 C1616 1.394 . S
C1618 C1619 1.369 . S
C1618 C1622 1.531 . S
C1619 C1618 1.369 . S
C1619 C1620 1.410 . S
C1619 C1627 1.503 . S
C1620 C1619 1.410 . S
C1620 C1621 1.392 . S
C1620 C1623 1.511 . S
C1621 C1617 1.376 . S
C1621 C1620 1.392 . S
C1621 H1633 0.929 . S
C1622 C1618 1.531 . S
C1622 H1634 0.960 . S
C1622 H1635 0.962 . S
C1622 H1636 0.960 . S
C1623 C1620 1.511 . S
C1623 H1637 0.961 . S
C1623 H1638 0.961 . S
C1623 H1639 0.961 . S
C1624 C1625 1.370 . S
C1624 C1626 1.363 . S
C1624 H1640 0.931 . S
C1625 C1624 1.370 . S
C1625 C1629 1.408 . S
C1626 C1624 1.363 . S
C1626 C1627 1.370 . S
C1626 C1630 1.524 . S
C1627 C1619 1.503 . S
C1627 C1626 1.370 . S
C1627 C1628 1.403 . S
C1628 C1627 1.403 . S
C1628 C1629 1.404 . S
C1628 C1631 1.539 . S
C1629 C1625 1.408 . S
C1629 C1628 1.404 . S
C1629 H1641 0.930 . S
C1630 C1626 1.524 . S
C1630 H1642 0.956 . S
C1630 H1643 0.961 . S
C1630 H1644 0.961 . S
C1631 C1628 1.539 . S
C1631 H1645 0.958 . S
C1631 H1646 0.961 . S
C1631 H1647 0.960 . S
H1632 C1616 0.931 . S
H1633 C1621 0.929 . S
H1634 C1622 0.960 . S
H1635 C1622 0.962 . S
H1636 C1622 0.960 . S
H1637 C1623 0.961 . S
H1638 C1623 0.961 . S
H1639 C1623 0.961 . S
H1640 C1624 0.931 . S
H1641 C1629 0.930 . S
H1642 C1630 0.956 . S
H1643 C1630 0.961 . S
H1644 C1630 0.961 . S
H1645 C1631 0.958 . S
H1646 C1631 0.961 . S
H1647 C1631 0.960 . S
C1648 C1649 1.391 . S
C1648 C1650 1.394 . S
C1648 H1664 0.931 . S
C1649 C1648 1.391 . S
C1649 C1653 1.376 . S
C1650 C1648 1.394 . S
C1650 C1651 1.369 . S
C1650 C1654 1.531 . S
C1651 C1650 1.369 . S
C1651 C1652 1.410 . S
C1651 C1659 1.503 . S
C1652 C1651 1.410 . S
C1652 C1653 1.392 . S
C1652 C1655 1.511 . S
C1653 C1649 1.376 . S
C1653 C1652 1.392 . S
C1653 H1665 0.929 . S
C1654 C1650 1.531 . S
C1654 H1666 0.960 . S
C1654 H1667 0.962 . S
C1654 H1668 0.960 . S
C1655 C1652 1.511 . S
C1655 H1669 0.961 . S
C1655 H1670 0.961 . S
C1655 H1671 0.961 . S
C1656 C1657 1.370 . S
C1656 C1658 1.363 . S
C1656 H1672 0.931 . S
C1657 C1656 1.370 . S
C1657 C1661 1.408 . S
C1658 C1656 1.363 . S
C1658 C1659 1.370 . S
C1658 C1662 1.524 . S
C1659 C1651 1.503 . S
C1659 C1658 1.370 . S
C1659 C1660 1.403 . S
C1660 C1659 1.403 . S
C1660 C1661 1.404 . S
C1660 C1663 1.539 . S
C1661 C1657 1.408 . S
C1661 C1660 1.404 . S
C1661 H1673 0.930 . S
C1662 C1658 1.524 . S
C1662 H1674 0.956 . S
C1662 H1675 0.961 . S
C1662 H1676 0.961 . S
C1663 C1660 1.539 . S
C1663 H1677 0.958 . S
C1663 H1678 0.961 . S
C1663 H1679 0.960 . S
H1664 C1648 0.931 . S
H1665 C1653 0.929 . S
H1666 C1654 0.960 . S
H1667 C1654 0.962 . S
H1668 C1654 0.960 . S
H1669 C1655 0.961 . S
H1670 C1655 0.961 . S
H1671 C1655 0.961 . S
H1672 C1656 0.931 . S
H1673 C1661 0.930 . S
H1674 C1662 0.956 . S
H1675 C1662 0.961 . S
H1676 C1662 0.961 . S
H1677 C1663 0.958 . S
H1678 C1663 0.961 . S
H1679 C1663 0.960 . S
C1680 C1681 1.391 . S
C1680 C1682 1.394 . S
C1680 H1696 0.931 . S
C1681 C1680 1.391 . S
C1681 C1685 1.376 . S
C1682 C1680 1.394 . S
C1682 C1683 1.369 . S
C1682 C1686 1.531 . S
C1683 C1682 1.369 . S
C1683 C1684 1.410 . S
C1683 C1691 1.503 . S
C1684 C1683 1.410 . S
C1684 C1685 1.392 . S
C1684 C1687 1.511 . S
C1685 C1681 1.376 . S
C1685 C1684 1.392 . S
C1685 H1697 0.929 . S
C1686 C1682 1.531 . S
C1686 H1698 0.960 . S
C1686 H1699 0.962 . S
C1686 H1700 0.960 . S
C1687 C1684 1.511 . S
C1687 H1701 0.961 . S
C1687 H1702 0.961 . S
C1687 H1703 0.961 . S
C1688 C1689 1.370 . S
C1688 C1690 1.363 . S
C1688 H1704 0.931 . S
C1689 C1688 1.370 . S
C1689 C1693 1.408 . S
C1690 C1688 1.363 . S
C1690 C1691 1.370 . S
C1690 C1694 1.524 . S
C1691 C1683 1.503 . S
C1691 C1690 1.370 . S
C1691 C1692 1.403 . S
C1692 C1691 1.403 . S
C1692 C1693 1.404 . S
C1692 C1695 1.539 . S
C1693 C1689 1.408 . S
C1693 C1692 1.404 . S
C1693 H1705 0.930 . S
C1694 C1690 1.524 . S
C1694 H1706 0.956 . S
C1694 H1707 0.961 . S
C1694 H1708 0.961 . S
C1695 C1692 1.539 . S
C1695 H1709 0.958 . S
C1695 H1710 0.961 . S
C1695 H1711 0.960 . S
H1696 C1680 0.931 . S
H1697 C1685 0.929 . S
H1698 C1686 0.960 . S
H1699 C1686 0.962 . S
H1700 C1686 0.960 . S
H1701 C1687 0.961 . S
H1702 C1687 0.961 . S
H1703 C1687 0.961 . S
H1704 C1688 0.931 . S
H1705 C1693 0.930 . S
H1706 C1694 0.956 . S
H1707 C1694 0.961 . S
H1708 C1694 0.961 . S
H1709 C1695 0.958 . S
H1710 C1695 0.961 . S
H1711 C1695 0.960 . S
C1712 C1713 1.391 . S
C1712 C1714 1.394 . S
C1712 H1728 0.931 . S
C1713 C1712 1.391 . S
C1713 C1717 1.376 . S
C1714 C1712 1.394 . S
C1714 C1715 1.369 . S
C1714 C1718 1.531 . S
C1715 C1714 1.369 . S
C1715 C1716 1.410 . S
C1715 C1723 1.503 . S
C1716 C1715 1.410 . S
C1716 C1717 1.392 . S
C1716 C1719 1.511 . S
C1717 C1713 1.376 . S
C1717 C1716 1.392 . S
C1717 H1729 0.929 . S
C1718 C1714 1.531 . S
C1718 H1730 0.960 . S
C1718 H1731 0.962 . S
C1718 H1732 0.960 . S
C1719 C1716 1.511 . S
C1719 H1733 0.961 . S
C1719 H1734 0.961 . S
C1719 H1735 0.961 . S
C1720 C1721 1.370 . S
C1720 C1722 1.363 . S
C1720 H1736 0.931 . S
C1721 C1720 1.370 . S
C1721 C1725 1.408 . S
C1722 C1720 1.363 . S
C1722 C1723 1.370 . S
C1722 C1726 1.524 . S
C1723 C1715 1.503 . S
C1723 C1722 1.370 . S
C1723 C1724 1.403 . S
C1724 C1723 1.403 . S
C1724 C1725 1.404 . S
C1724 C1727 1.539 . S
C1725 C1721 1.408 . S
C1725 C1724 1.404 . S
C1725 H1737 0.930 . S
C1726 C1722 1.524 . S
C1726 H1738 0.956 . S
C1726 H1739 0.961 . S
C1726 H1740 0.961 . S
C1727 C1724 1.539 . S
C1727 H1741 0.958 . S
C1727 H1742 0.961 . S
C1727 H1743 0.960 . S
H1728 C1712 0.931 . S
H1729 C1717 0.929 . S
H1730 C1718 0.960 . S
H1731 C1718 0.962 . S
H1732 C1718 0.960 . S
H1733 C1719 0.961 . S
H1734 C1719 0.961 . S
H1735 C1719 0.961 . S
H1736 C1720 0.931 . S
H1737 C1725 0.930 . S
H1738 C1726 0.956 . S
H1739 C1726 0.961 . S
H1740 C1726 0.961 . S
H1741 C1727 0.958 . S
H1742 C1727 0.961 . S
H1743 C1727 0.960 . S
C1744 C1745 1.391 . S
C1744 C1746 1.394 . S
C1744 H1760 0.931 . S
C1745 C1744 1.391 . S
C1745 C1749 1.376 . S
C1746 C1744 1.394 . S
C1746 C1747 1.369 . S
C1746 C1750 1.531 . S
C1747 C1746 1.369 . S
C1747 C1748 1.410 . S
C1747 C1755 1.503 . S
C1748 C1747 1.410 . S
C1748 C1749 1.392 . S
C1748 C1751 1.511 . S
C1749 C1745 1.376 . S
C1749 C1748 1.392 . S
C1749 H1761 0.929 . S
C1750 C1746 1.531 . S
C1750 H1762 0.960 . S
C1750 H1763 0.962 . S
C1750 H1764 0.960 . S
C1751 C1748 1.511 . S
C1751 H1765 0.961 . S
C1751 H1766 0.961 . S
C1751 H1767 0.961 . S
C1752 C1753 1.370 . S
C1752 C1754 1.363 . S
C1752 H1768 0.931 . S
C1753 C1752 1.370 . S
C1753 C1757 1.408 . S
C1754 C1752 1.363 . S
C1754 C1755 1.370 . S
C1754 C1758 1.524 . S
C1755 C1747 1.503 . S
C1755 C1754 1.370 . S
C1755 C1756 1.403 . S
C1756 C1755 1.403 . S
C1756 C1757 1.404 . S
C1756 C1759 1.539 . S
C1757 C1753 1.408 . S
C1757 C1756 1.404 . S
C1757 H1769 0.930 . S
C1758 C1754 1.524 . S
C1758 H1770 0.956 . S
C1758 H1771 0.961 . S
C1758 H1772 0.961 . S
C1759 C1756 1.539 . S
C1759 H1773 0.958 . S
C1759 H1774 0.961 . S
C1759 H1775 0.960 . S
H1760 C1744 0.931 . S
H1761 C1749 0.929 . S
H1762 C1750 0.960 . S
H1763 C1750 0.962 . S
H1764 C1750 0.960 . S
H1765 C1751 0.961 . S
H1766 C1751 0.961 . S
H1767 C1751 0.961 . S
H1768 C1752 0.931 . S
H1769 C1757 0.930 . S
H1770 C1758 0.956 . S
H1771 C1758 0.961 . S
H1772 C1758 0.961 . S
H1773 C1759 0.958 . S
H1774 C1759 0.961 . S
H1775 C1759 0.960 . S
C1776 C1777 1.391 . S
C1776 C1778 1.394 . S
C1776 H1792 0.931 . S
C1777 C1776 1.391 . S
C1777 C1781 1.376 . S
C1778 C1776 1.394 . S
C1778 C1779 1.369 . S
C1778 C1782 1.531 . S
C1779 C1778 1.369 . S
C1779 C1780 1.410 . S
C1779 C1787 1.503 . S
C1780 C1779 1.410 . S
C1780 C1781 1.392 . S
C1780 C1783 1.511 . S
C1781 C1777 1.376 . S
C1781 C1780 1.392 . S
C1781 H1793 0.929 . S
C1782 C1778 1.531 . S
C1782 H1794 0.960 . S
C1782 H1795 0.962 . S
C1782 H1796 0.960 . S
C1783 C1780 1.511 . S
C1783 H1797 0.961 . S
C1783 H1798 0.961 . S
C1783 H1799 0.961 . S
C1784 C1785 1.370 . S
C1784 C1786 1.363 . S
C1784 H1800 0.931 . S
C1785 C1784 1.370 . S
C1785 C1789 1.408 . S
C1786 C1784 1.363 . S
C1786 C1787 1.370 . S
C1786 C1790 1.524 . S
C1787 C1779 1.503 . S
C1787 C1786 1.370 . S
C1787 C1788 1.403 . S
C1788 C1787 1.403 . S
C1788 C1789 1.404 . S
C1788 C1791 1.539 . S
C1789 C1785 1.408 . S
C1789 C1788 1.404 . S
C1789 H1801 0.930 . S
C1790 C1786 1.524 . S
C1790 H1802 0.956 . S
C1790 H1803 0.961 . S
C1790 H1804 0.961 . S
C1791 C1788 1.539 . S
C1791 H1805 0.958 . S
C1791 H1806 0.961 . S
C1791 H1807 0.960 . S
H1792 C1776 0.931 . S
H1793 C1781 0.929 . S
H1794 C1782 0.960 . S
H1795 C1782 0.962 . S
H1796 C1782 0.960 . S
H1797 C1783 0.961 . S
H1798 C1783 0.961 . S
H1799 C1783 0.961 . S
H1800 C1784 0.931 . S
H1801 C1789 0.930 . S
H1802 C1790 0.956 . S
H1803 C1790 0.961 . S
H1804 C1790 0.961 . S
H1805 C1791 0.958 . S
H1806 C1791 0.961 . S
H1807 C1791 0.960 . S
C1808 C1809 1.391 . S
C1808 C1810 1.394 . S
C1808 H1824 0.931 . S
C1809 C1808 1.391 . S
C1809 C1813 1.376 . S
C1810 C1808 1.394 . S
C1810 C1811 1.369 . S
C1810 C1814 1.531 . S
C1811 C1810 1.369 . S
C1811 C1812 1.410 . S
C1811 C1819 1.503 . S
C1812 C1811 1.410 . S
C1812 C1813 1.392 . S
C1812 C1815 1.511 . S
C1813 C1809 1.376 . S
C1813 C1812 1.392 . S
C1813 H1825 0.929 . S
C1814 C1810 1.531 . S
C1814 H1826 0.960 . S
C1814 H1827 0.962 . S
C1814 H1828 0.960 . S
C1815 C1812 1.511 . S
C1815 H1829 0.961 . S
C1815 H1830 0.961 . S
C1815 H1831 0.961 . S
C1816 C1817 1.370 . S
C1816 C1818 1.363 . S
C1816 H1832 0.931 . S
C1817 C1816 1.370 . S
C1817 C1821 1.408 . S
C1818 C1816 1.363 . S
C1818 C1819 1.370 . S
C1818 C1822 1.524 . S
C1819 C1811 1.503 . S
C1819 C1818 1.370 . S
C1819 C1820 1.403 . S
C1820 C1819 1.403 . S
C1820 C1821 1.404 . S
C1820 C1823 1.539 . S
C1821 C1817 1.408 . S
C1821 C1820 1.404 . S
C1821 H1833 0.930 . S
C1822 C1818 1.524 . S
C1822 H1834 0.956 . S
C1822 H1835 0.961 . S
C1822 H1836 0.961 . S
C1823 C1820 1.539 . S
C1823 H1837 0.958 . S
C1823 H1838 0.961 . S
C1823 H1839 0.960 . S
H1824 C1808 0.931 . S
H1825 C1813 0.929 . S
H1826 C1814 0.960 . S
H1827 C1814 0.962 . S
H1828 C1814 0.960 . S
H1829 C1815 0.961 . S
H1830 C1815 0.961 . S
H1831 C1815 0.961 . S
H1832 C1816 0.931 . S
H1833 C1821 0.930 . S
H1834 C1822 0.956 . S
H1835 C1822 0.961 . S
H1836 C1822 0.961 . S
H1837 C1823 0.958 . S
H1838 C1823 0.961 . S
H1839 C1823 0.960 . S
C1840 C1841 1.391 . S
C1840 C1842 1.394 . S
C1840 H1856 0.931 . S
C1841 C1840 1.391 . S
C1841 C1845 1.376 . S
C1842 C1840 1.394 . S
C1842 C1843 1.369 . S
C1842 C1846 1.531 . S
C1843 C1842 1.369 . S
C1843 C1844 1.410 . S
C1843 C1851 1.503 . S
C1844 C1843 1.410 . S
C1844 C1845 1.392 . S
C1844 C1847 1.511 . S
C1845 C1841 1.376 . S
C1845 C1844 1.392 . S
C1845 H1857 0.929 . S
C1846 C1842 1.531 . S
C1846 H1858 0.960 . S
C1846 H1859 0.962 . S
C1846 H1860 0.960 . S
C1847 C1844 1.511 . S
C1847 H1861 0.961 . S
C1847 H1862 0.961 . S
C1847 H1863 0.961 . S
C1848 C1849 1.370 . S
C1848 C1850 1.363 . S
C1848 H1864 0.931 . S
C1849 C1848 1.370 . S
C1849 C1853 1.408 . S
C1850 C1848 1.363 . S
C1850 C1851 1.370 . S
C1850 C1854 1.524 . S
C1851 C1843 1.503 . S
C1851 C1850 1.370 . S
C1851 C1852 1.403 . S
C1852 C1851 1.403 . S
C1852 C1853 1.404 . S
C1852 C1855 1.539 . S
C1853 C1849 1.408 . S
C1853 C1852 1.404 . S
C1853 H1865 0.930 . S
C1854 C1850 1.524 . S
C1854 H1866 0.956 . S
C1854 H1867 0.961 . S
C1854 H1868 0.961 . S
C1855 C1852 1.539 . S
C1855 H1869 0.958 . S
C1855 H1870 0.961 . S
C1855 H1871 0.960 . S
H1856 C1840 0.931 . S
H1857 C1845 0.929 . S
H1858 C1846 0.960 . S
H1859 C1846 0.962 . S
H1860 C1846 0.960 . S
H1861 C1847 0.961 . S
H1862 C1847 0.961 . S
H1863 C1847 0.961 . S
H1864 C1848 0.931 . S
H1865 C1853 0.930 . S
H1866 C1854 0.956 . S
H1867 C1854 0.961 . S
H1868 C1854 0.961 . S
H1869 C1855 0.958 . S
H1870 C1855 0.961 . S
H1871 C1855 0.960 . S
C1872 C1873 1.391 . S
C1872 C1874 1.394 . S
C1872 H1888 0.931 . S
C1873 C1872 1.391 . S
C1873 C1877 1.376 . S
C1874 C1872 1.394 . S
C1874 C1875 1.369 . S
C1874 C1878 1.531 . S
C1875 C1874 1.369 . S
C1875 C1876 1.410 . S
C1875 C1883 1.503 . S
C1876 C1875 1.410 . S
C1876 C1877 1.392 . S
C1876 C1879 1.511 . S
C1877 C1873 1.376 . S
C1877 C1876 1.392 . S
C1877 H1889 0.929 . S
C1878 C1874 1.531 . S
C1878 H1890 0.960 . S
C1878 H1891 0.962 . S
C1878 H1892 0.960 . S
C1879 C1876 1.511 . S
C1879 H1893 0.961 . S
C1879 H1894 0.961 . S
C1879 H1895 0.961 . S
C1880 C1881 1.370 . S
C1880 C1882 1.363 . S
C1880 H1896 0.931 . S
C1881 C1880 1.370 . S
C1881 C1885 1.408 . S
C1882 C1880 1.363 . S
C1882 C1883 1.370 . S
C1882 C1886 1.524 . S
C1883 C1875 1.503 . S
C1883 C1882 1.370 . S
C1883 C1884 1.403 . S
C1884 C1883 1.403 . S
C1884 C1885 1.404 . S
C1884 C1887 1.539 . S
C1885 C1881 1.408 . S
C1885 C1884 1.404 . S
C1885 H1897 0.930 . S
C1886 C1882 1.524 . S
C1886 H1898 0.956 . S
C1886 H1899 0.961 . S
C1886 H1900 0.961 . S
C1887 C1884 1.539 . S
C1887 H1901 0.958 . S
C1887 H1902 0.961 . S
C1887 H1903 0.960 . S
H1888 C1872 0.931 . S
H1889 C1877 0.929 . S
H1890 C1878 0.960 . S
H1891 C1878 0.962 . S
H1892 C1878 0.960 . S
H1893 C1879 0.961 . S
H1894 C1879 0.961 . S
H1895 C1879 0.961 . S
H1896 C1880 0.931 . S
H1897 C1885 0.930 . S
H1898 C1886 0.956 . S
H1899 C1886 0.961 . S
H1900 C1886 0.961 . S
H1901 C1887 0.958 . S
H1902 C1887 0.961 . S
H1903 C1887 0.960 . S
C1904 C1905 1.391 . S
C1904 C1906 1.394 . S
C1904 H1920 0.931 . S
C1905 C1904 1.391 . S
C1905 C1909 1.376 . S
C1906 C1904 1.394 . S
C1906 C1907 1.369 . S
C1906 C1910 1.531 . S
C1907 C1906 1.369 . S
C1907 C1908 1.410 . S
C1907 C1915 1.503 . S
C1908 C1907 1.410 . S
C1908 C1909 1.392 . S
C1908 C1911 1.511 . S
C1909 C1905 1.376 . S
C1909 C1908 1.392 . S
C1909 H1921 0.929 . S
C1910 C1906 1.531 . S
C1910 H1922 0.960 . S
C1910 H1923 0.962 . S
C1910 H1924 0.960 . S
C1911 C1908 1.511 . S
C1911 H1925 0.961 . S
C1911 H1926 0.961 . S
C1911 H1927 0.961 . S
C1912 C1913 1.370 . S
C1912 C1914 1.363 . S
C1912 H1928 0.931 . S
C1913 C1912 1.370 . S
C1913 C1917 1.408 . S
C1914 C1912 1.363 . S
C1914 C1915 1.370 . S
C1914 C1918 1.524 . S
C1915 C1907 1.503 . S
C1915 C1914 1.370 . S
C1915 C1916 1.403 . S
C1916 C1915 1.403 . S
C1916 C1917 1.404 . S
C1916 C1919 1.539 . S
C1917 C1913 1.408 . S
C1917 C1916 1.404 . S
C1917 H1929 0.930 . S
C1918 C1914 1.524 . S
C1918 H1930 0.956 . S
C1918 H1931 0.961 . S
C1918 H1932 0.961 . S
C1919 C1916 1.539 . S
C1919 H1933 0.958 . S
C1919 H1934 0.961 . S
C1919 H1935 0.960 . S
H1920 C1904 0.931 . S
H1921 C1909 0.929 . S
H1922 C1910 0.960 . S
H1923 C1910 0.962 . S
H1924 C1910 0.960 . S
H1925 C1911 0.961 . S
H1926 C1911 0.961 . S
H1927 C1911 0.961 . S
H1928 C1912 0.931 . S
H1929 C1917 0.930 . S
H1930 C1918 0.956 . S
H1931 C1918 0.961 . S
H1932 C1918 0.961 . S
H1933 C1919 0.958 . S
H1934 C1919 0.961 . S
H1935 C1919 0.960 . S
C1936 C1937 1.391 . S
C1936 C1938 1.394 . S
C1936 H1952 0.931 . S
C1937 C1936 1.391 . S
C1937 C1941 1.376 . S
C1938 C1936 1.394 . S
C1938 C1939 1.369 . S
C1938 C1942 1.531 . S
C1939 C1938 1.369 . S
C1939 C1940 1.410 . S
C1939 C1947 1.503 . S
C1940 C1939 1.410 . S
C1940 C1941 1.392 . S
C1940 C1943 1.511 . S
C1941 C1937 1.376 . S
C1941 C1940 1.392 . S
C1941 H1953 0.929 . S
C1942 C1938 1.531 . S
C1942 H1954 0.960 . S
C1942 H1955 0.962 . S
C1942 H1956 0.960 . S
C1943 C1940 1.511 . S
C1943 H1957 0.961 . S
C1943 H1958 0.961 . S
C1943 H1959 0.961 . S
C1944 C1945 1.370 . S
C1944 C1946 1.363 . S
C1944 H1960 0.931 . S
C1945 C1944 1.370 . S
C1945 C1949 1.408 . S
C1946 C1944 1.363 . S
C1946 C1947 1.370 . S
C1946 C1950 1.524 . S
C1947 C1939 1.503 . S
C1947 C1946 1.370 . S
C1947 C1948 1.403 . S
C1948 C1947 1.403 . S
C1948 C1949 1.404 . S
C1948 C1951 1.539 . S
C1949 C1945 1.408 . S
C1949 C1948 1.404 . S
C1949 H1961 0.930 . S
C1950 C1946 1.524 . S
C1950 H1962 0.956 . S
C1950 H1963 0.961 . S
C1950 H1964 0.961 . S
C1951 C1948 1.539 . S
C1951 H1965 0.958 . S
C1951 H1966 0.961 . S
C1951 H1967 0.960 . S
H1952 C1936 0.931 . S
H1953 C1941 0.929 . S
H1954 C1942 0.960 . S
H1955 C1942 0.962 . S
H1956 C1942 0.960 . S
H1957 C1943 0.961 . S
H1958 C1943 0.961 . S
H1959 C1943 0.961 . S
H1960 C1944 0.931 . S
H1961 C1949 0.930 . S
H1962 C1950 0.956 . S
H1963 C1950 0.961 . S
H1964 C1950 0.961 . S
H1965 C1951 0.958 . S
H1966 C1951 0.961 . S
H1967 C1951 0.960 . S
C1968 C1969 1.391 . S
C1968 C1970 1.394 . S
C1968 H1984 0.931 . S
C1969 C1968 1.391 . S
C1969 C1973 1.376 . S
C1970 C1968 1.394 . S
C1970 C1971 1.369 . S
C1970 C1974 1.531 . S
C1971 C1970 1.369 . S
C1971 C1972 1.410 . S
C1971 C1979 1.503 . S
C1972 C1971 1.410 . S
C1972 C1973 1.392 . S
C1972 C1975 1.511 . S
C1973 C1969 1.376 . S
C1973 C1972 1.392 . S
C1973 H1985 0.929 . S
C1974 C1970 1.531 . S
C1974 H1986 0.960 . S
C1974 H1987 0.962 . S
C1974 H1988 0.960 . S
C1975 C1972 1.511 . S
C1975 H1989 0.961 . S
C1975 H1990 0.961 . S
C1975 H1991 0.961 . S
C1976 C1977 1.370 . S
C1976 C1978 1.363 . S
C1976 H1992 0.931 . S
C1977 C1976 1.370 . S
C1977 C1981 1.408 . S
C1978 C1976 1.363 . S
C1978 C1979 1.370 . S
C1978 C1982 1.524 . S
C1979 C1971 1.503 . S
C1979 C1978 1.370 . S
C1979 C1980 1.403 . S
C1980 C1979 1.403 . S
C1980 C1981 1.404 . S
C1980 C1983 1.539 . S
C1981 C1977 1.408 . S
C1981 C1980 1.404 . S
C1981 H1993 0.930 . S
C1982 C1978 1.524 . S
C1982 H1994 0.956 . S
C1982 H1995 0.961 . S
C1982 H1996 0.961 . S
C1983 C1980 1.539 . S
C1983 H1997 0.958 . S
C1983 H1998 0.961 . S
C1983 H1999 0.960 . S
H1984 C1968 0.931 . S
H1985 C1973 0.929 . S
H1986 C1974 0.960 . S
H1987 C1974 0.962 . S
H1988 C1974 0.960 . S
H1989 C1975 0.961 . S
H1990 C1975 0.961 . S
H1991 C1975 0.961 . S
H1992 C1976 0.931 . S
H1993 C1981 0.930 . S
H1994 C1982 0.956 . S
H1995 C1982 0.961 . S
H1996 C1982 0.961 . S
H1997 C1983 0.958 . S
H1998 C1983 0.961 . S
H1999 C1983 0.960 . S
C473 C289 0.280 . S
C465 C4 0.204 . S
C505 C294 1.529 . S
C497 C63 1.541 . S
C537 C295 1.163 . S
C529 C72 1.142 . S
C561 C102 1.546 . S
C569 C299 1.539 . S
C593 C136 1.517 . S
C601 C302 1.525 . S
C633 C303 1.171 . S
C625 C183 1.165 . S
C657 C233 1.535 . S
C665 C280 1.533 . S
C689 C251 0.400 . S
C697 C296 0.352 . S
C729 C334 1.463 . S
C721 C29 1.470 . S
C753 C42 1.944 . S
C761 C360 1.890 . S
C793 C312 1.466 . S
C785 C97 1.523 . S
C825 C367 1.123 . S
C817 C115 1.140 . S
C849 C149 1.143 . S
C857 C321 1.164 . S
C889 C363 1.500 . S
C881 C187 1.512 . S
C913 C212 1.957 . S
C921 C327 1.910 . S
C945 C255 1.476 . S
C953 C358 1.453 . S
C977 C8 1.490 . S
C985 C366 1.445 . S
C1009 C153 1.967 . S
C1017 C353 1.868 . S
C1049 C331 1.464 . S
C1041 C170 1.516 . S
C1081 C359 1.119 . S
C1073 C208 1.130 . S
C1105 C238 1.478 . S
C1113 C326 1.452 . S
C1137 C76 1.498 . S
C1145 C344 1.483 . S
C1177 C335 1.903 . S
C1169 C119 1.959 . S
C1201 C38 1.143 . S
C1209 C328 1.157 . S
C1233 C242 0.296 . S
C1241 C390 0.445 . S
C1265 C165 1.499 . S
C1273 C385 1.456 . S
C1305 C399 1.072 . S
C1297 C174 1.121 . S
C1337 C376 1.465 . S
C1329 C204 1.489 . S
C1361 C34 1.483 . S
C1369 C392 1.457 . S
C1401 C391 1.088 . S
C1393 C81 1.083 . S
C1425 C131 1.486 . S
C1433 C395 1.482 . S
C1457 C13 0.391 . S
C1465 C398 0.387 . S
C1489 C267 1.468 . S
C1497 C424 1.435 . S
C1529 C440 1.950 . S
C1521 C144 1.977 . S
C1553 C199 1.514 . S
C1561 C422 1.486 . S
C1585 C217 1.208 . S
C1593 C455 1.142 . S
C1625 C431 1.195 . S
C1617 C47 1.163 . S
C1649 C85 1.542 . S
C1657 C449 1.452 . S
C1689 C427 1.968 . S
C1681 C110 1.977 . S
C1721 C462 1.460 . S
C1713 C17 1.508 . S
C1753 C454 1.459 . S
C1745 C246 1.503 . S
C1777 C51 1.974 . S
C1785 C459 1.953 . S
C1809 C68 1.500 . S
C1817 C430 1.496 . S
C1849 C463 1.141 . S
C1841 C106 1.164 . S
C1873 C0 1.488 . S
C1881 C417 1.450 . S
C1905 C178 1.516 . S
C1913 C456 1.476 . S
C1945 C408 1.968 . S
C1937 C221 1.970 . S
C1977 C423 1.200 . S
C1969 C140 1.182 . S
