# Generated by pormake.
# Topology myd, (4,6)-cn, num edge types: 1
# Building blocks:
#     Node 0, Type 0, BuildingBlock: KOZSID_clean_sbu_0, # of connection points: 4
#     Node 1, Type 0, BuildingBlock: KOZSID_clean_sbu_0, # of connection points: 4
#     Node 2, Type 0, BuildingBlock: KOZSID_clean_sbu_0, # of connection points: 4
#     Node 3, Type 0, BuildingBlock: KOZSID_clean_sbu_0, # of connection points: 4
#     Node 4, Type 0, BuildingBlock: KOZSID_clean_sbu_0, # of connection points: 4
#     Node 5, Type 0, BuildingBlock: KOZSID_clean_sbu_0, # of connection points: 4
#     Node 6, Type 0, BuildingBlock: KOZSID_clean_sbu_0, # of connection points: 4
#     Node 7, Type 0, BuildingBlock: KOZSID_clean_sbu_0, # of connection points: 4
#     Node 8, Type 0, BuildingBlock: KOZSID_clean_sbu_0, # of connection points: 4
#     Node 9, Type 0, BuildingBlock: KOZSID_clean_sbu_0, # of connection points: 4
#     Node 10, Type 0, BuildingBlock: KOZSID_clean_sbu_0, # of connection points: 4
#     Node 11, Type 0, BuildingBlock: KOZSID_clean_sbu_0, # of connection points: 4
#     Node 12, Type 1, BuildingBlock: VOLQOD_clean_sbu_1, # of connection points: 6
#     Node 13, Type 1, BuildingBlock: VOLQOD_clean_sbu_1, # of connection points: 6
#     Node 14, Type 1, BuildingBlock: VOLQOD_clean_sbu_1, # of connection points: 6
#     Node 15, Type 1, BuildingBlock: VOLQOD_clean_sbu_1, # of connection points: 6
#     Node 16, Type 1, BuildingBlock: VOLQOD_clean_sbu_1, # of connection points: 6
#     Node 17, Type 1, BuildingBlock: VOLQOD_clean_sbu_1, # of connection points: 6
#     Node 18, Type 1, BuildingBlock: VOLQOD_clean_sbu_1, # of connection points: 6
#     Node 19, Type 1, BuildingBlock: VOLQOD_clean_sbu_1, # of connection points: 6
#     Edge 20, Type (0, 1), BuildingBlock: XUDNAN_clean_linker_2, # of connection points: 2
#     Edge 21, Type (0, 1), BuildingBlock: XUDNAN_clean_linker_2, # of connection points: 2
#     Edge 22, Type (0, 1), BuildingBlock: XUDNAN_clean_linker_2, # of connection points: 2
#     Edge 23, Type (0, 1), BuildingBlock: XUDNAN_clean_linker_2, # of connection points: 2
#     Edge 24, Type (0, 1), BuildingBlock: XUDNAN_clean_linker_2, # of connection points: 2
#     Edge 25, Type (0, 1), BuildingBlock: XUDNAN_clean_linker_2, # of connection points: 2
#     Edge 26, Type (0, 1), BuildingBlock: XUDNAN_clean_linker_2, # of connection points: 2
#     Edge 27, Type (0, 1), BuildingBlock: XUDNAN_clean_linker_2, # of connection points: 2
#     Edge 28, Type (0, 1), BuildingBlock: XUDNAN_clean_linker_2, # of connection points: 2
#     Edge 29, Type (0, 1), BuildingBlock: XUDNAN_clean_linker_2, # of connection points: 2
#     Edge 30, Type (0, 1), BuildingBlock: XUDNAN_clean_linker_2, # of connection points: 2
#     Edge 31, Type (0, 1), BuildingBlock: XUDNAN_clean_linker_2, # of connection points: 2
#     Edge 32, Type (0, 1), BuildingBlock: XUDNAN_clean_linker_2, # of connection points: 2
#     Edge 33, Type (0, 1), BuildingBlock: XUDNAN_clean_linker_2, # of connection points: 2
#     Edge 34, Type (0, 1), BuildingBlock: XUDNAN_clean_linker_2, # of connection points: 2
#     Edge 35, Type (0, 1), BuildingBlock: XUDNAN_clean_linker_2, # of connection points: 2
#     Edge 36, Type (0, 1), BuildingBlock: XUDNAN_clean_linker_2, # of connection points: 2
#     Edge 37, Type (0, 1), BuildingBlock: XUDNAN_clean_linker_2, # of connection points: 2
#     Edge 38, Type (0, 1), BuildingBlock: XUDNAN_clean_linker_2, # of connection points: 2
#     Edge 39, Type (0, 1), BuildingBlock: XUDNAN_clean_linker_2, # of connection points: 2
#     Edge 40, Type (0, 1), BuildingBlock: XUDNAN_clean_linker_2, # of connection points: 2
#     Edge 41, Type (0, 1), BuildingBlock: XUDNAN_clean_linker_2, # of connection points: 2
#     Edge 42, Type (0, 1), BuildingBlock: XUDNAN_clean_linker_2, # of connection points: 2
#     Edge 43, Type (0, 1), BuildingBlock: XUDNAN_clean_linker_2, # of connection points: 2
#     Edge 44, Type (0, 1), BuildingBlock: XUDNAN_clean_linker_2, # of connection points: 2
#     Edge 45, Type (0, 1), BuildingBlock: XUDNAN_clean_linker_2, # of connection points: 2
#     Edge 46, Type (0, 1), BuildingBlock: XUDNAN_clean_linker_2, # of connection points: 2
#     Edge 47, Type (0, 1), BuildingBlock: XUDNAN_clean_linker_2, # of connection points: 2
#     Edge 48, Type (0, 1), BuildingBlock: XUDNAN_clean_linker_2, # of connection points: 2
#     Edge 49, Type (0, 1), BuildingBlock: XUDNAN_clean_linker_2, # of connection points: 2
#     Edge 50, Type (0, 1), BuildingBlock: XUDNAN_clean_linker_2, # of connection points: 2
#     Edge 51, Type (0, 1), BuildingBlock: XUDNAN_clean_linker_2, # of connection points: 2
#     Edge 52, Type (0, 1), BuildingBlock: XUDNAN_clean_linker_2, # of connection points: 2
#     Edge 53, Type (0, 1), BuildingBlock: XUDNAN_clean_linker_2, # of connection points: 2
#     Edge 54, Type (0, 1), BuildingBlock: XUDNAN_clean_linker_2, # of connection points: 2
#     Edge 55, Type (0, 1), BuildingBlock: XUDNAN_clean_linker_2, # of connection points: 2
#     Edge 56, Type (0, 1), BuildingBlock: XUDNAN_clean_linker_2, # of connection points: 2
#     Edge 57, Type (0, 1), BuildingBlock: XUDNAN_clean_linker_2, # of connection points: 2
#     Edge 58, Type (0, 1), BuildingBlock: XUDNAN_clean_linker_2, # of connection points: 2
#     Edge 59, Type (0, 1), BuildingBlock: XUDNAN_clean_linker_2, # of connection points: 2
#     Edge 60, Type (0, 1), BuildingBlock: XUDNAN_clean_linker_2, # of connection points: 2
#     Edge 61, Type (0, 1), BuildingBlock: XUDNAN_clean_linker_2, # of connection points: 2
#     Edge 62, Type (0, 1), BuildingBlock: XUDNAN_clean_linker_2, # of connection points: 2
#     Edge 63, Type (0, 1), BuildingBlock: XUDNAN_clean_linker_2, # of connection points: 2
#     Edge 64, Type (0, 1), BuildingBlock: XUDNAN_clean_linker_2, # of connection points: 2
#     Edge 65, Type (0, 1), BuildingBlock: XUDNAN_clean_linker_2, # of connection points: 2
#     Edge 66, Type (0, 1), BuildingBlock: XUDNAN_clean_linker_2, # of connection points: 2
#     Edge 67, Type (0, 1), BuildingBlock: XUDNAN_clean_linker_2, # of connection points: 2
# Relax obj value: 0.174
# Max RMSD: 0.167
# Mean RMSD: 0.128
data_MOF--net-myd--node1-KOZSID_clean_sbu_0--node2-VOLQOD_clean_sbu_1--edge1-XUDNAN_clean_linker_2
_symmetry_space_group_name_H-M    P1
_symmetry_Int_Tables_number       1
_symmetry_cell_setting            triclinic
loop_
_symmetry_equiv_pos_as_xyz
'x, y, z'
_cell_length_a     51.837769
_cell_length_b     51.923536
_cell_length_c     51.940204
_cell_angle_alpha  92.601824
_cell_angle_beta   90.461243
_cell_angle_gamma 93.08566
loop_
_atom_site_label
_atom_site_type_symbol
_atom_site_fract_x
_atom_site_fract_y
_atom_site_fract_z
_atom_type_partial_charge
C0 C 0.98683 0.2896 0.34726 0.0
C1 C 0.96331 0.29471 0.35832 0.0
C2 C 0.94622 0.27479 0.35009 0.0
C3 C 0.96026 0.25874 0.33449 0.0
N4 N 0.98505 0.26735 0.33259 0.0
Co5 Co 0.01188 0.25151 0.3111 0.0
N6 N 0.9856 0.23191 0.28903 0.0
C7 C 0.96054 0.22743 0.29497 0.0
C8 C 0.94689 0.2133 0.27594 0.0
C9 C 0.96453 0.20826 0.25709 0.0
C10 C 0.98815 0.21948 0.26575 0.0
N11 N 0.03907 0.23578 0.28995 0.0
C12 C 0.03728 0.22283 0.26671 0.0
C13 C 0.06123 0.21422 0.25942 0.0
C14 C 0.07832 0.22179 0.27892 0.0
C15 C 0.06404 0.23454 0.29705 0.0
N16 N 0.03789 0.27126 0.33325 0.0
C17 C 0.06285 0.26618 0.33615 0.0
C18 C 0.07611 0.28423 0.35218 0.0
C19 C 0.05827 0.3017 0.35966 0.0
C20 C 0.03519 0.29324 0.3477 0.0
N21 N 0.01241 0.2223 0.33388 0.0
C22 C 0.01405 0.17939 0.36499 0.0
C23 C 0.01364 0.20461 0.37605 0.0
C24 C 0.01281 0.2258 0.36015 0.0
C25 C 0.01323 0.17633 0.33809 0.0
C26 C 0.01256 0.19779 0.32306 0.0
N27 N 0.01136 0.28017 0.28792 0.0
C28 C 0.03414 0.3084 0.25935 0.0
C29 C 0.01074 0.31543 0.2487 0.0
C30 C 0.98765 0.30579 0.25937 0.0
C31 C 0.98838 0.28817 0.27893 0.0
C32 C 0.03403 0.29091 0.27901 0.0
H33 H 0.97031 0.28019 0.28598 0.0
H34 H 0.05232 0.28528 0.28628 0.0
H35 H 0.01262 0.245 0.36905 0.0
H36 H 0.01219 0.19433 0.30251 0.0
C37 C 0.94996 0.23961 0.31683 0.0
C38 C 0.01075 0.3057 0.351 0.0
C39 C 0.01292 0.21515 0.25295 0.0
C40 C 0.07394 0.24829 0.31918 0.0
H41 H 0.95888 0.31124 0.3706 0.0
H42 H 0.92567 0.27317 0.35367 0.0
H43 H 0.92645 0.20778 0.27554 0.0
H44 H 0.96059 0.19706 0.23927 0.0
H45 H 0.06579 0.20297 0.24217 0.0
H46 H 0.09879 0.21868 0.27959 0.0
H47 H 0.09658 0.28546 0.35665 0.0
H48 H 0.06181 0.31878 0.37219 0.0
H49 H 0.01433 0.20804 0.39677 0.0
H50 H 0.01279 0.15736 0.32848 0.0
H51 H 0.05246 0.31578 0.25201 0.0
H52 H 0.96913 0.31067 0.25172 0.0
C53 C 0.99255 0.71351 0.14003 0.0
C54 C 0.96978 0.70476 0.12759 0.0
C55 C 0.95147 0.72171 0.13506 0.0
C56 C 0.96413 0.7397 0.15161 0.0
N57 N 0.98917 0.73506 0.15479 0.0
Co58 Co 0.01462 0.75482 0.17747 0.0
N59 N 0.98681 0.76985 0.1983 0.0
C60 C 0.9618 0.77051 0.19115 0.0
C61 C 0.9471 0.78253 0.20944 0.0
C62 C 0.96397 0.79024 0.22911 0.0
C63 C 0.98817 0.78252 0.22165 0.0
N64 N 0.04037 0.77471 0.19985 0.0
C65 C 0.03728 0.78711 0.22298 0.0
C66 C 0.06047 0.79926 0.23173 0.0
C67 C 0.07845 0.79465 0.21311 0.0
C68 C 0.06538 0.77995 0.1941 0.0
N69 N 0.04215 0.73963 0.15651 0.0
C70 C 0.06681 0.74867 0.15479 0.0
C71 C 0.08126 0.73281 0.13938 0.0
C72 C 0.06452 0.71261 0.13109 0.0
C73 C 0.04087 0.71742 0.14198 0.0
N74 N 0.01424 0.78388 0.15486 0.0
C75 C 0.01932 0.82688 0.12434 0.0
C76 C 0.01973 0.80177 0.11315 0.0
C77 C 0.01698 0.78049 0.12878 0.0
C78 C 0.01488 0.82978 0.15081 0.0
C79 C 0.01265 0.80824 0.16563 0.0
N80 N 0.01528 0.72607 0.20041 0.0
C81 C 0.03967 0.70053 0.22823 0.0
C82 C 0.01687 0.69008 0.23882 0.0
C83 C 0.99319 0.69667 0.2284 0.0
C84 C 0.99283 0.71462 0.20911 0.0
C85 C 0.03846 0.71849 0.2092 0.0
H86 H 0.97439 0.72001 0.20198 0.0
H87 H 0.05636 0.72693 0.20227 0.0
H88 H 0.01783 0.76134 0.11991 0.0
H89 H 0.01036 0.81153 0.18601 0.0
C90 C 0.95237 0.75696 0.16873 0.0
C91 C 0.01719 0.70136 0.13774 0.0
C92 C 0.01228 0.79085 0.23537 0.0
C93 C 0.07658 0.7681 0.17239 0.0
H94 H 0.96666 0.68775 0.1149 0.0
H95 H 0.93106 0.72009 0.13032 0.0
H96 H 0.92652 0.78505 0.20877 0.0
H97 H 0.95918 0.80101 0.24659 0.0
H98 H 0.06387 0.81087 0.24939 0.0
H99 H 0.09871 0.80093 0.2136 0.0
H100 H 0.10182 0.7348 0.13591 0.0
H101 H 0.06913 0.69616 0.11876 0.0
H102 H 0.02299 0.79858 0.09272 0.0
H103 H 0.01352 0.84868 0.16026 0.0
H104 H 0.05842 0.69551 0.23517 0.0
H105 H 0.97506 0.68906 0.23594 0.0
C106 C 0.35802 0.97594 0.29039 0.0
C107 C 0.36533 0.95078 0.29178 0.0
C108 C 0.35765 0.93821 0.26885 0.0
C109 C 0.34615 0.95642 0.25484 0.0
N110 N 0.34633 0.97953 0.26755 0.0
Co111 Co 0.33034 0.01081 0.25602 0.0
N112 N 0.30762 0.99036 0.23093 0.0
C113 C 0.31138 0.96613 0.22186 0.0
C114 C 0.29283 0.95704 0.20422 0.0
C115 C 0.27667 0.9769 0.2018 0.0
C116 C 0.2864 0.99718 0.21804 0.0
N117 N 0.31426 0.04235 0.24507 0.0
C118 C 0.29222 0.04479 0.23143 0.0
C119 C 0.28865 0.07058 0.22711 0.0
C120 C 0.30935 0.08459 0.23826 0.0
C121 C 0.32442 0.06669 0.24871 0.0
N122 N 0.35361 0.031 0.28071 0.0
C123 C 0.36018 0.05637 0.28028 0.0
C124 C 0.37585 0.06487 0.30078 0.0
C125 C 0.37914 0.04349 0.3149 0.0
C126 C 0.36529 0.02312 0.30212 0.0
N127 N 0.35621 0.01463 0.22886 0.0
C128 C 0.39128 0.01764 0.18789 0.0
C129 C 0.39928 0.01047 0.2124 0.0
C130 C 0.3815 0.00932 0.23268 0.0
C131 C 0.36557 0.02408 0.1849 0.0
C132 C 0.34846 0.02202 0.20523 0.0
N133 N 0.30426 0.0069 0.28276 0.0
C134 C 0.28074 0.02458 0.3186 0.0
C135 C 0.26686 1.00093 0.32084 0.0
C136 C 0.27212 0.98032 0.30378 0.0
C137 C 0.29108 0.98361 0.2851 0.0
C138 C 0.29913 0.02726 0.29921 0.0
H139 H 0.29507 0.96724 0.27257 0.0
H140 H 0.30919 0.04582 0.29751 0.0
H141 H 0.38805 0.00373 0.25131 0.0
H142 H 0.32876 0.02621 0.20147 0.0
C143 C 0.33008 0.95141 0.23311 0.0
C144 C 0.36334 0.99647 0.31031 0.0
C145 C 0.27632 0.02313 0.2194 0.0
C146 C 0.34636 0.07208 0.26448 0.0
H147 H 0.37493 0.94244 0.30774 0.0
H148 H 0.3589 0.91788 0.26375 0.0
H149 H 0.29081 0.938 0.1948 0.0
H150 H 0.25985 0.97651 0.1893 0.0
H151 H 0.27314 0.07839 0.21636 0.0
H152 H 0.3128 0.10535 0.23894 0.0
H153 H 0.3826 0.08454 0.30587 0.0
H154 H 0.38998 0.0431 0.33275 0.0
H155 H 0.41892 0.0053 0.21584 0.0
H156 H 0.35838 0.03073 0.16689 0.0
H157 H 0.27705 0.04098 0.33143 0.0
H158 H 0.2619 0.96168 0.3051 0.0
C159 C 0.65322 0.47122 0.22974 0.0
C160 C 0.6395 0.44872 0.22127 0.0
C161 C 0.64598 0.42997 0.23765 0.0
C162 C 0.66334 0.44201 0.25503 0.0
N163 N 0.66805 0.4671 0.25056 0.0
Co164 Co 0.693 0.49151 0.26947 0.0
N165 N 0.71187 0.46293 0.2833 0.0
C166 C 0.70283 0.43815 0.28414 0.0
C167 C 0.72013 0.42266 0.29505 0.0
C168 C 0.74116 0.43876 0.3018 0.0
C169 C 0.73543 0.46334 0.29477 0.0
N170 N 0.7178 0.51626 0.28812 0.0
C171 C 0.74104 0.5123 0.29886 0.0
C172 C 0.7517 0.53506 0.31067 0.0
C173 C 0.7343 0.55363 0.30745 0.0
C174 C 0.71403 0.54134 0.29393 0.0
N175 N 0.67382 0.51989 0.25585 0.0
C176 C 0.67408 0.54438 0.26542 0.0
C177 C 0.65882 0.55956 0.25134 0.0
C178 C 0.64844 0.5435 0.23172 0.0
C179 C 0.65806 0.51947 0.23503 0.0
N180 N 0.67077 0.4912 0.29992 0.0
C181 C 0.6397 0.49036 0.34434 0.0
C182 C 0.62866 0.48955 0.31939 0.0
C183 C 0.64446 0.4905 0.2976 0.0
C184 C 0.66681 0.4917 0.34611 0.0
C185 C 0.68176 0.49145 0.32394 0.0
N186 N 0.7155 0.49168 0.23931 0.0
C187 C 0.7446 0.51441 0.2111 0.0
C188 C 0.74975 0.49121 0.19788 0.0
C189 C 0.73718 0.46834 0.20547 0.0
C190 C 0.72036 0.46895 0.22636 0.0
C191 C 0.72716 0.51428 0.23156 0.0
H192 H 0.71148 0.45093 0.23217 0.0
H193 H 0.72329 0.53243 0.24129 0.0
H194 H 0.63535 0.49046 0.27883 0.0
H195 H 0.70237 0.49162 0.32645 0.0
C196 C 0.67974 0.4296 0.27145 0.0
C197 C 0.65163 0.49648 0.21852 0.0
C198 C 0.75156 0.48683 0.30175 0.0
C199 C 0.69286 0.5533 0.28369 0.0
H200 H 0.62651 0.44592 0.20489 0.0
H201 H 0.64001 0.40966 0.23601 0.0
H202 H 0.71801 0.40203 0.29727 0.0
H203 H 0.75852 0.43315 0.31128 0.0
H204 H 0.76977 0.53783 0.32126 0.0
H205 H 0.73638 0.57376 0.31391 0.0
H206 H 0.65667 0.58012 0.25407 0.0
H207 H 0.6356 0.54883 0.21655 0.0
H208 H 0.60797 0.48802 0.31638 0.0
H209 H 0.6769 0.49326 0.36444 0.0
H210 H 0.75384 0.5325 0.20554 0.0
H211 H 0.7407 0.45005 0.19561 0.0
C212 C 0.31336 0.37375 0.99037 0.0
C213 C 0.31994 0.38667 0.96839 0.0
C214 C 0.30117 0.37943 0.95022 0.0
C215 C 0.2843 0.36249 0.96207 0.0
N216 N 0.29131 0.35885 0.98654 0.0
Co217 Co 0.27397 0.33483 0.01032 0.0
N218 N 0.25676 0.3142 0.98143 0.0
C219 C 0.25391 0.32196 0.95721 0.0
C220 C 0.2411 0.30362 0.94128 0.0
C221 C 0.23519 0.28329 0.95655 0.0
C222 C 0.2446 0.29042 0.98112 0.0
N223 N 0.25664 0.31124 0.0345 0.0
C224 C 0.24426 0.28782 0.02991 0.0
C225 C 0.23405 0.27851 0.05259 0.0
C226 C 0.24 0.29691 0.07178 0.0
C227 C 0.25345 0.31643 0.05992 0.0
N228 N 0.29152 0.35548 0.03887 0.0
C229 C 0.28466 0.35631 0.06375 0.0
C230 C 0.30173 0.37156 0.07903 0.0
C231 C 0.32045 0.38067 0.06262 0.0
C232 C 0.31368 0.3704 0.03828 0.0
N233 N 0.24413 0.35665 0.01242 0.0
C234 C 0.2002 0.38637 0.01411 0.0
C235 C 0.1979 0.35943 0.01089 0.0
C236 C 0.21981 0.3451 0.01036 0.0
C237 C 0.22527 0.39817 0.0164 0.0
C238 C 0.24697 0.38297 0.01546 0.0
N239 N 0.30323 0.31261 0.00804 0.0
C240 C 0.33182 0.28399 0.02777 0.0
C241 C 0.34274 0.27813 0.00383 0.0
C242 C 0.3339 0.29016 0.98216 0.0
C243 C 0.31397 0.30709 0.98461 0.0
C244 C 0.31232 0.30159 0.02953 0.0
H245 H 0.30702 0.31543 0.96745 0.0
H246 H 0.30438 0.30604 0.04822 0.0
H247 H 0.21685 0.3245 0.008 0.0
H248 H 0.26602 0.39244 0.01713 0.0
C249 C 0.26627 0.34504 0.94947 0.0
C250 C 0.32794 0.37575 0.01474 0.0
C251 C 0.23862 0.27571 0.00414 0.0
C252 C 0.2662 0.3381 0.07245 0.0
H253 H 0.33672 0.39948 0.96556 0.0
H254 H 0.30096 0.38446 0.93023 0.0
H255 H 0.23695 0.30466 0.92091 0.0
H256 H 0.22454 0.26552 0.95046 0.0
H257 H 0.22281 0.26062 0.05497 0.0
H258 H 0.23543 0.29594 0.09202 0.0
H259 H 0.30153 0.37439 0.0998 0.0
H260 H 0.33726 0.39312 0.06789 0.0
H261 H 0.17923 0.34922 0.00831 0.0
H262 H 0.22818 0.41892 0.0191 0.0
H263 H 0.33845 0.2752 0.04498 0.0
H264 H 0.34194 0.28603 0.96332 0.0
C265 C 0.2186 0.63758 0.48375 0.0
C266 C 0.21301 0.6235 0.46085 0.0
C267 C 0.23195 0.63055 0.44382 0.0
C268 C 0.24786 0.64861 0.45714 0.0
N269 N 0.24008 0.65327 0.48146 0.0
Co270 Co 0.25605 0.67903 0.50696 0.0
N271 N 0.27416 0.69808 0.47956 0.0
C272 C 0.27805 0.68897 0.45526 0.0
C273 C 0.29124 0.7065 0.44058 0.0
C274 C 0.29634 0.72777 0.45675 0.0
C275 C 0.28607 0.72194 0.48056 0.0
N276 N 0.27191 0.70453 0.53275 0.0
C277 C 0.28417 0.72779 0.52938 0.0
C278 C 0.29302 0.73902 0.55287 0.0
C279 C 0.28643 0.72194 0.57136 0.0
C280 C 0.27394 0.70131 0.55829 0.0
N281 N 0.23804 0.65975 0.53414 0.0
C282 C 0.24414 0.66064 0.55937 0.0
C283 C 0.22771 0.64508 0.57331 0.0
C284 C 0.21024 0.63377 0.55563 0.0
C285 C 0.21707 0.64321 0.53196 0.0
N286 N 0.28603 0.65779 0.51041 0.0
C287 C 0.32962 0.62855 0.51704 0.0
C288 C 0.33221 0.6551 0.51319 0.0
C289 C 0.31039 0.66926 0.51023 0.0
C290 C 0.30447 0.6169 0.51704 0.0
C291 C 0.28301 0.63178 0.51347 0.0
N292 N 0.22638 0.70063 0.50359 0.0
C293 C 0.19459 0.72738 0.52311 0.0
C294 C 0.18657 0.73462 0.49883 0.0
C295 C 0.19835 0.72407 0.47696 0.0
C296 C 0.21798 0.70687 0.47974 0.0
C297 C 0.21467 0.71055 0.5251 0.0
H298 H 0.22661 0.69894 0.46254 0.0
H299 H 0.22097 0.70588 0.54406 0.0
H300 H 0.31341 0.68964 0.50789 0.0
H301 H 0.26396 0.6223 0.51349 0.0
C302 C 0.26612 0.66546 0.44609 0.0
C303 C 0.20388 0.63564 0.50763 0.0
C304 C 0.29127 0.73794 0.50428 0.0
C305 C 0.2615 0.68008 0.5696 0.0
H306 H 0.19686 0.60995 0.45653 0.0
H307 H 0.23298 0.62446 0.42367 0.0
H308 H 0.29614 0.70429 0.42041 0.0
H309 H 0.30708 0.74528 0.45182 0.0
H310 H 0.30388 0.75726 0.55625 0.0
H311 H 0.29008 0.72442 0.59189 0.0
H312 H 0.22755 0.64324 0.59398 0.0
H313 H 0.19421 0.62037 0.55964 0.0
H314 H 0.35102 0.66511 0.51226 0.0
H315 H 0.30123 0.59652 0.52016 0.0
H316 H 0.18579 0.73513 0.54044 0.0
H317 H 0.19241 0.72905 0.45786 0.0
C318 C 0.78747 0.83948 0.46554 0.0
C319 C 0.79143 0.84862 0.44112 0.0
C320 C 0.77131 0.83828 0.42589 0.0
C321 C 0.75622 0.82349 0.44183 0.0
N322 N 0.76569 0.82395 0.46604 0.0
Co323 Co 0.7505 0.80527 0.49511 0.0
N324 N 0.73038 0.78071 0.47142 0.0
C325 C 0.72445 0.78462 0.44666 0.0
C326 C 0.70954 0.76452 0.43527 0.0
C327 C 0.7057 0.74708 0.45413 0.0
C328 C 0.71859 0.75752 0.47605 0.0
N329 N 0.73541 0.78667 0.52436 0.0
C330 C 0.72343 0.76287 0.52463 0.0
C331 C 0.7161 0.75715 0.5495 0.0
C332 C 0.72319 0.77845 0.56507 0.0
C333 C 0.73462 0.79585 0.549 0.0
N334 N 0.77048 0.83009 0.51862 0.0
C335 C 0.76572 0.83509 0.54372 0.0
C336 C 0.78344 0.85279 0.55507 0.0
C337 C 0.80029 0.85929 0.53587 0.0
C338 C 0.79179 0.84522 0.51376 0.0
N339 N 0.7214 0.82785 0.49593 0.0
C340 C 0.67879 0.859 0.49685 0.0
C341 C 0.67556 0.83222 0.49876 0.0
C342 C 0.69693 0.81714 0.49842 0.0
C343 C 0.70397 0.86988 0.4942 0.0
C344 C 0.72502 0.85396 0.4938 0.0
N345 N 0.77923 0.78242 0.49423 0.0
C346 C 0.81192 0.76034 0.51624 0.0
C347 C 0.81856 0.74762 0.4931 0.0
C348 C 0.80545 0.75297 0.47048 0.0
C349 C 0.78609 0.77065 0.4714 0.0
C350 C 0.79202 0.77748 0.51644 0.0
H351 H 0.77648 0.7746 0.45366 0.0
H352 H 0.7868 0.78651 0.53461 0.0
H353 H 0.69348 0.79667 0.50006 0.0
H354 H 0.74422 0.86274 0.49182 0.0
C355 C 0.73639 0.80531 0.43397 0.0
C356 C 0.80357 0.84717 0.48825 0.0
C357 C 0.71696 0.74634 0.50149 0.0
C358 C 0.7483 0.81894 0.55682 0.0
H359 H 0.80717 0.86139 0.435 0.0
H360 H 0.7687 0.84035 0.40541 0.0
H361 H 0.70283 0.76246 0.41546 0.0
H362 H 0.69432 0.72899 0.45212 0.0
H363 H 0.70649 0.73957 0.5558 0.0
H364 H 0.72106 0.78059 0.58575 0.0
H365 H 0.78486 0.8591 0.57521 0.0
H366 H 0.81703 0.87259 0.53804 0.0
H367 H 0.65653 0.82274 0.50023 0.0
H368 H 0.70745 0.89052 0.4928 0.0
H369 H 0.82163 0.75662 0.53414 0.0
H370 H 0.8103 0.74373 0.45217 0.0
C371 C 0.49696 0.80614 0.86186 0.0
C372 C 0.47342 0.81039 0.87338 0.0
C373 C 0.4571 0.78948 0.8663 0.0
C374 C 0.47155 0.77364 0.85094 0.0
N375 N 0.49586 0.78335 0.84797 0.0
Co376 Co 0.523 0.76714 0.8272 0.0
N377 N 0.49713 0.74492 0.807 0.0
C378 C 0.47266 0.73919 0.81415 0.0
C379 C 0.45944 0.72263 0.7967 0.0
C380 C 0.47679 0.71746 0.77757 0.0
C381 C 0.4997 0.73125 0.78441 0.0
N382 N 0.55037 0.75109 0.8065 0.0
C383 C 0.54855 0.73704 0.78387 0.0
C384 C 0.57273 0.72961 0.77603 0.0
C385 C 0.59004 0.73882 0.79477 0.0
C386 C 0.57562 0.75149 0.81286 0.0
N387 N 0.5487 0.78931 0.84766 0.0
C388 C 0.57406 0.78545 0.84994 0.0
C389 C 0.58716 0.80463 0.86462 0.0
C390 C 0.56888 0.82154 0.87204 0.0
C391 C 0.54548 0.81159 0.86159 0.0
N392 N 0.52515 0.73985 0.85209 0.0
C393 C 0.52718 0.69943 0.88637 0.0
C394 C 0.52711 0.69454 0.85962 0.0
C395 C 0.52627 0.7148 0.84302 0.0
C396 C 0.52602 0.72523 0.89561 0.0
C397 C 0.52505 0.74515 0.87816 0.0
N398 N 0.52068 0.7939 0.80201 0.0
C399 C 0.54115 0.82434 0.77391 0.0
C400 C 0.51714 0.82949 0.76327 0.0
C401 C 0.49493 0.81691 0.77287 0.0
C402 C 0.49708 0.79946 0.79238 0.0
C403 C 0.54252 0.80634 0.79309 0.0
H404 H 0.47961 0.79016 0.79941 0.0
H405 H 0.56129 0.80219 0.80043 0.0
H406 H 0.52631 0.70995 0.82268 0.0
H407 H 0.52418 0.7648 0.88571 0.0
C408 C 0.46193 0.75253 0.83524 0.0
C409 C 0.52043 0.82305 0.86589 0.0
C410 C 0.52415 0.72867 0.77064 0.0
C411 C 0.58546 0.76711 0.83375 0.0
H412 H 0.46859 0.82683 0.88561 0.0
H413 H 0.43683 0.78677 0.87086 0.0
H414 H 0.43942 0.71563 0.79745 0.0
H415 H 0.47315 0.7046 0.7608 0.0
H416 H 0.57741 0.7185 0.75873 0.0
H417 H 0.61077 0.73716 0.79476 0.0
H418 H 0.60777 0.80691 0.86823 0.0
H419 H 0.57253 0.83929 0.8835 0.0
H420 H 0.52731 0.67504 0.85133 0.0
H421 H 0.52617 0.73007 0.9161 0.0
H422 H 0.55881 0.83362 0.76698 0.0
H423 H 0.47596 0.82062 0.76543 0.0
C424 C 0.53921 0.2987 0.66815 0.0
C425 C 0.56351 0.30625 0.65943 0.0
C426 C 0.57945 0.28689 0.66518 0.0
C427 C 0.56394 0.26872 0.67703 0.0
N428 N 0.53936 0.27549 0.67888 0.0
Co429 Co 0.5107 0.2563 0.69572 0.0
N430 N 0.53504 0.23686 0.71607 0.0
C431 C 0.56019 0.23424 0.71068 0.0
C432 C 0.57215 0.21905 0.72758 0.0
C433 C 0.55327 0.21131 0.74435 0.0
C434 C 0.5307 0.22225 0.73674 0.0
N435 N 0.48174 0.2372 0.71246 0.0
C436 C 0.48178 0.22251 0.73338 0.0
C437 C 0.45706 0.21223 0.73811 0.0
C438 C 0.44126 0.22025 0.7191 0.0
C439 C 0.45706 0.23507 0.70391 0.0
N440 N 0.48667 0.27576 0.67517 0.0
C441 C 0.46169 0.26922 0.66998 0.0
C442 C 0.45 0.28743 0.65616 0.0
C443 C 0.46887 0.30657 0.65263 0.0
C444 C 0.49101 0.29884 0.66451 0.0
N445 N 0.51061 0.22923 0.66832 0.0
C446 C 0.50645 0.18954 0.63009 0.0
C447 C 0.50687 0.18407 0.65619 0.0
C448 C 0.50879 0.20402 0.67485 0.0
C449 C 0.50947 0.21536 0.62336 0.0
C450 C 0.51154 0.235 0.64287 0.0
N451 N 0.51071 0.28318 0.7231 0.0
C452 C 0.48788 0.31347 0.74943 0.0
C453 C 0.511 0.32221 0.76171 0.0
C454 C 0.53396 0.31117 0.75431 0.0
C455 C 0.53344 0.29185 0.73479 0.0
C456 C 0.48811 0.29369 0.73036 0.0
H457 H 0.55145 0.284 0.72911 0.0
H458 H 0.47001 0.28694 0.72144 0.0
H459 H 0.50824 0.19886 0.69463 0.0
H460 H 0.51332 0.25483 0.63742 0.0
C461 C 0.57251 0.24881 0.69174 0.0
C462 C 0.51606 0.31327 0.66536 0.0
C463 C 0.50507 0.21532 0.74718 0.0
C464 C 0.44894 0.24964 0.6835 0.0
H465 H 0.56911 0.32396 0.65022 0.0
H466 H 0.60013 0.28691 0.66252 0.0
H467 H 0.59225 0.21442 0.72793 0.0
H468 H 0.55567 0.19845 0.75991 0.0
H469 H 0.45118 0.19968 0.75333 0.0
H470 H 0.42066 0.2161 0.7169 0.0
H471 H 0.4298 0.28767 0.65079 0.0
H472 H 0.46649 0.32429 0.6429 0.0
H473 H 0.5053 0.16436 0.66228 0.0
H474 H 0.5094 0.22035 0.60335 0.0
H475 H 0.46976 0.32153 0.75487 0.0
H476 H 0.55223 0.31766 0.76336 0.0
C477 C 0.87167 0.49151 0.79673 0.0
C478 C 0.88188 0.46825 0.80242 0.0
C479 C 0.87172 0.45014 0.7845 0.0
C480 C 0.856 0.46333 0.76889 0.0
N481 N 0.85575 0.48855 0.77589 0.0
Co482 Co 0.83532 0.51453 0.75939 0.0
N483 N 0.81114 0.48746 0.7432 0.0
C484 C 0.81564 0.46218 0.7401 0.0
C485 C 0.7955 0.44795 0.72821 0.0
C486 C 0.77742 0.46541 0.72313 0.0
C487 C 0.78764 0.48949 0.73207 0.0
N488 N 0.81495 0.54077 0.74304 0.0
C489 C 0.79121 0.53847 0.73174 0.0
C490 C 0.78472 0.56182 0.72205 0.0
C491 C 0.80525 0.57908 0.72716 0.0
C492 C 0.82312 0.56545 0.73963 0.0
N493 N 0.85971 0.54133 0.77562 0.0
C494 C 0.86337 0.56582 0.76848 0.0
C495 C 0.88069 0.58013 0.7842 0.0
C496 C 0.88833 0.56358 0.80232 0.0
C497 C 0.87533 0.53994 0.79649 0.0
N498 N 0.85708 0.51255 0.72868 0.0
C499 C 0.88685 0.51009 0.68373 0.0
C500 C 0.85986 0.50987 0.68243 0.0
C501 C 0.8455 0.51127 0.70488 0.0
C502 C 0.89867 0.51112 0.70824 0.0
C503 C 0.88342 0.51234 0.73049 0.0
N504 N 0.81328 0.51643 0.78963 0.0
C505 C 0.78975 0.54156 0.82059 0.0
C506 C 0.77786 0.51899 0.82975 0.0
C507 C 0.78475 0.49512 0.81914 0.0
C508 C 0.80271 0.49426 0.79932 0.0
C509 C 0.80727 0.53987 0.80036 0.0
H510 H 0.8076 0.47563 0.79146 0.0
H511 H 0.81549 0.55753 0.79301 0.0
H512 H 0.82488 0.5113 0.70278 0.0
H513 H 0.89289 0.51325 0.74913 0.0
C514 C 0.83727 0.45214 0.75163 0.0
C515 C 0.87847 0.51629 0.81047 0.0
C516 C 0.77605 0.51396 0.72652 0.0
C517 C 0.84616 0.57584 0.75111 0.0
H518 H 0.8951 0.46476 0.81795 0.0
H519 H 0.87438 0.42958 0.78386 0.0
H520 H 0.7939 0.42729 0.72417 0.0
H521 H 0.75911 0.46102 0.71331 0.0
H522 H 0.7673 0.56581 0.71169 0.0
H523 H 0.80678 0.59925 0.72264 0.0
H524 H 0.88589 0.60057 0.78362 0.0
H525 H 0.90155 0.5686 0.81818 0.0
H526 H 0.84966 0.50841 0.6641 0.0
H527 H 0.91949 0.51141 0.71025 0.0
H528 H 0.78485 0.56036 0.82837 0.0
H529 H 0.77618 0.47725 0.82602 0.0
C530 C 0.16978 0.02393 0.79453 0.0
C531 C 0.16065 0.04821 0.79991 0.0
C532 C 0.16777 0.06307 0.77961 0.0
C533 C 0.18074 0.04707 0.76301 0.0
N534 N 0.1821 0.02318 0.77169 0.0
Co535 Co 0.19948 0.9942 0.75458 0.0
N536 N 0.22112 0.01799 0.73404 0.0
C537 C 0.21576 0.04236 0.72896 0.0
C538 C 0.23368 0.05386 0.71322 0.0
C539 C 0.25119 0.03547 0.70791 0.0
C540 C 0.24297 0.01371 0.72084 0.0
N541 N 0.21706 0.96506 0.7377 0.0
C542 C 0.23956 0.96518 0.7246 0.0
C543 C 0.24492 0.94032 0.71607 0.0
C544 C 0.2247 0.92432 0.72364 0.0
C545 C 0.20825 0.94017 0.73649 0.0
N546 N 0.17741 0.97064 0.77488 0.0
C547 C 0.17235 0.94527 0.76958 0.0
C548 C 0.15759 0.93384 0.78819 0.0
C549 C 0.15321 0.95327 0.8062 0.0
C550 C 0.1654 0.97565 0.79744 0.0
N551 N 0.17356 0.99201 0.727 0.0
C552 C 0.13764 0.99126 0.68638 0.0
C553 C 0.12984 0.99528 0.71202 0.0
C554 C 0.14807 0.99529 0.73207 0.0
C555 C 0.16368 0.98686 0.68181 0.0
C556 C 0.18124 0.98775 0.70216 0.0
N557 N 0.22535 0.99647 0.78196 0.0
C558 C 0.24937 0.97632 0.8145 0.0
C559 C 0.26141 1.00019 0.82198 0.0
C560 C 0.25521 0.02216 0.8092 0.0
C561 C 0.23693 0.01992 0.78937 0.0
C562 C 0.23155 0.97481 0.79418 0.0
H563 H 0.23209 0.03717 0.78005 0.0
H564 H 0.22275 0.95616 0.78837 0.0
H565 H 0.14164 0.99834 0.75164 0.0
H566 H 0.20117 0.98517 0.69761 0.0
C567 C 0.1962 0.05482 0.74239 0.0
C568 C 0.16499 1.00148 0.81036 0.0
C569 C 0.25484 0.98867 0.71817 0.0
C570 C 0.1868 0.93212 0.75097 0.0
H571 H 0.15004 0.0545 0.8167 0.0
H572 H 0.16496 0.08343 0.77787 0.0
H573 H 0.23436 0.07345 0.70689 0.0
H574 H 0.26782 0.03768 0.69558 0.0
H575 H 0.26151 0.93432 0.7053 0.0
H576 H 0.22271 0.90352 0.72084 0.0
H577 H 0.15221 0.91352 0.7895 0.0
H578 H 0.14277 0.95096 0.82396 0.0
H579 H 0.10997 0.99879 0.71662 0.0
H580 H 0.17071 0.98265 0.6626 0.0
H581 H 0.25409 0.95896 0.82393 0.0
H582 H 0.26436 0.0409 0.81461 0.0
C583 C 0.73811 0.15457 0.97162 0.0
C584 C 0.73236 0.13976 0.94923 0.0
C585 C 0.75159 0.14581 0.93206 0.0
C586 C 0.76781 0.16398 0.94492 0.0
N587 N 0.75989 0.16962 0.96899 0.0
Co588 Co 0.77641 0.19516 0.9942 0.0
N589 N 0.79501 0.21309 0.96657 0.0
C590 C 0.7998 0.20297 0.94285 0.0
C591 C 0.81405 0.21973 0.92818 0.0
C592 C 0.81863 0.24158 0.94375 0.0
C593 C 0.80679 0.23693 0.96713 0.0
N594 N 0.79261 0.22078 0.01956 0.0
C595 C 0.80379 0.24438 0.01563 0.0
C596 C 0.812 0.25656 0.03888 0.0
C597 C 0.80633 0.23956 0.05777 0.0
C598 C 0.79477 0.21812 0.04515 0.0
N599 N 0.75833 0.17666 0.0217 0.0
C600 C 0.76456 0.17776 0.04691 0.0
C601 C 0.74773 0.16281 0.06107 0.0
C602 C 0.72992 0.15176 0.04356 0.0
C603 C 0.737 0.16068 0.01976 0.0
N604 N 0.80581 0.17343 0.99773 0.0
C605 C 0.8491 0.14328 1.00074 0.0
C606 C 0.82394 0.13173 0.99826 0.0
C607 C 0.80259 0.14712 0.9973 0.0
C608 C 0.8517 0.17035 1.00221 0.0
C609 C 0.83012 0.18487 1.00004 0.0
N610 N 0.74739 0.2174 0.99058 0.0
C611 C 0.71958 0.2485 0.00976 0.0
C612 C 0.71391 0.25734 0.98543 0.0
C613 C 0.72363 0.24446 0.96365 0.0
C614 C 0.73999 0.22426 0.96662 0.0
C615 C 0.73645 0.22853 0.01194 0.0
H616 H 0.74789 0.21523 0.94955 0.0
H617 H 0.74182 0.22315 0.03097 0.0
H618 H 0.78352 0.13773 0.99582 0.0
H619 H 0.83331 0.20552 1.00013 0.0
C620 C 0.78722 0.17962 0.93384 0.0
C621 C 0.72355 0.15356 0.99554 0.0
C622 C 0.80907 0.25446 0.99008 0.0
C623 C 0.7822 0.19716 0.05689 0.0
H624 H 0.71608 0.12613 0.94563 0.0
H625 H 0.75281 0.13877 0.9122 0.0
H626 H 0.81977 0.21676 0.90832 0.0
H627 H 0.82972 0.2588 0.93857 0.0
H628 H 0.82138 0.27559 0.04192 0.0
H629 H 0.80946 0.24285 0.07831 0.0
H630 H 0.74747 0.16134 0.08179 0.0
H631 H 0.71346 0.13896 0.04774 0.0
H632 H 0.82053 0.11099 0.99672 0.0
H633 H 0.87025 0.18065 0.00514 0.0
H634 H 0.7125 0.25813 0.02704 0.0
H635 H 0.71957 0.25078 0.94451 0.0
O636 O 0.11485 0.05181 0.09994 0.0
Zn637 Zn 0.08044 0.05244 0.08372 0.0
O638 O 0.0853 0.06633 0.05025 0.0
Zn639 Zn 0.07082 0.10028 0.05059 0.0
Zn640 Zn 0.12206 0.0677 0.03996 0.0
Zn641 Zn 0.06519 0.04361 0.02685 0.0
O642 O 0.03648 0.09916 0.03124 0.0
O643 O 0.03089 0.05755 0.01957 0.0
O644 O 0.05993 0.07546 0.10716 0.0
O645 O 0.06215 0.11234 0.08704 0.0
O646 O 0.09653 0.12612 0.03608 0.0
O647 O 0.13275 0.10501 0.03287 0.0
O648 O 0.12611 0.04759 0.00456 0.0
O649 O 0.0655 0.01556 0.08223 0.0
O650 O 0.08465 0.03853 0.99474 0.0
O651 O 0.05786 0.00868 0.04044 0.0
C652 C 0.13852 0.05313 0.09369 0.0
C653 C 0.02254 0.08011 0.02155 0.0
C654 C 0.12055 0.12557 0.03102 0.0
C655 C 0.05637 0.09955 0.10677 0.0
C656 C 0.10836 0.03913 0.9885 0.0
C657 C 0.05817 1.00061 0.06314 0.0
O658 O 0.14534 0.05713 0.07046 0.0
O659 O 0.91728 0.47545 0.09355 0.0
Zn660 Zn 0.9548 0.4706 0.08397 0.0
O661 O 0.95849 0.46215 0.04698 0.0
Zn662 Zn 0.97204 0.42778 0.0423 0.0
Zn663 Zn 0.92476 0.4636 0.03065 0.0
Zn664 Zn 0.98175 0.48701 0.03021 0.0
O665 O 0.00815 0.42973 0.02749 0.0
O666 O 0.01645 0.47171 0.02313 0.0
O667 O 0.96817 0.4427 0.10627 0.0
O668 O 0.97751 0.41252 0.07665 0.0
O669 O 0.94702 0.40343 0.02129 0.0
O670 O 0.91415 0.42868 0.01651 0.0
O671 O 0.92523 0.48505 0.99925 0.0
O672 O 0.97449 0.50439 0.09237 0.0
O673 O 0.9666 0.49749 0.99588 0.0
O674 O 0.98834 0.51823 0.05457 0.0
C675 C 0.89669 0.47683 0.08019 0.0
C676 C 0.02372 0.44861 0.02229 0.0
C677 C 0.92427 0.40706 0.01312 0.0
C678 C 0.97608 0.42043 0.10013 0.0
C679 C 0.94356 0.49586 0.98681 0.0
C680 C 0.98562 0.52159 0.07888 0.0
O681 O 0.89699 0.4738 0.05569 0.0
O682 O 0.08996 0.90132 0.4719 0.0
Zn683 Zn 0.0816 0.93873 0.46733 0.0
O684 O 0.04852 0.94079 0.44938 0.0
Zn685 Zn 0.05472 0.9566 0.4164 0.0
Zn686 Zn 0.03217 0.90598 0.44467 0.0
Zn687 Zn 0.02524 0.96203 0.46934 0.0
O688 O 0.04049 0.99229 0.41584 0.0
O689 O 0.02207 0.99708 0.45405 0.0
O690 O 0.11133 0.95507 0.44761 0.0
O691 O 0.09295 0.96194 0.40996 0.0
O692 O 0.03976 0.9333 0.3873 0.0
O693 O 0.02899 0.89702 0.4068 0.0
O694 O 0.99538 0.90382 0.45819 0.0
O695 O 0.07954 0.95604 0.50276 0.0
O696 O 0.98962 0.94445 0.47101 0.0
O697 O 0.03885 0.9677 0.50563 0.0
C698 C 0.07679 0.87989 0.46913 0.0
C699 C 0.02872 0.00603 0.43248 0.0
C700 C 0.03151 0.90969 0.38646 0.0
C701 C 0.11294 0.96191 0.42439 0.0
C702 C 0.98085 0.9212 0.46688 0.0
C703 C 0.0611 0.96545 0.51558 0.0
O704 O 0.0537 0.87889 0.46027 0.0
O705 O 0.99092 0.5917 0.41093 0.0
Zn706 Zn 0.98025 0.57995 0.4456 0.0
O707 O 0.96559 0.54495 0.44313 0.0
Zn708 Zn 0.93148 0.54526 0.45853 0.0
Zn709 Zn 0.9621 0.53368 0.40687 0.0
Zn710 Zn 0.9881 0.52231 0.46169 0.0
O711 O 0.93281 0.52999 0.49335 0.0
O712 O 0.97118 0.51295 0.49572 0.0
O713 O 0.95577 0.60541 0.46 0.0
O714 O 0.91943 0.58161 0.46444 0.0
O715 O 0.90493 0.52591 0.4355 0.0
O716 O 0.92473 0.52457 0.39768 0.0
O717 O 0.98057 0.50085 0.40075 0.0
O718 O 0.01169 0.58226 0.46751 0.0
O719 O 0.99447 0.4896 0.43915 0.0
O720 O 0.02258 0.54186 0.47207 0.0
C721 C 0.98783 0.58272 0.38785 0.0
C722 C 0.94947 0.51805 0.50569 0.0
C723 C 0.90464 0.52071 0.41127 0.0
C724 C 0.93191 0.60344 0.4655 0.0
C725 C 0.99122 0.48494 0.4149 0.0
C726 C 0.02736 0.56621 0.47525 0.0
O727 O 0.97635 0.56073 0.38281 0.0
O728 O 0.42081 0.97294 0.60036 0.0
Zn729 Zn 0.45418 0.96802 0.58256 0.0
O730 O 0.44772 0.9493 0.55 0.0
Zn731 Zn 0.46189 0.91588 0.55366 0.0
Zn732 Zn 0.41054 0.94545 0.54289 0.0
Zn733 Zn 0.46514 0.96756 0.52219 0.0
O734 O 0.49542 0.91472 0.53465 0.0
O735 O 0.49835 0.95036 0.51245 0.0
O736 O 0.47585 0.94923 0.60765 0.0
O737 O 0.47033 0.90927 0.59089 0.0
O738 O 0.43683 0.88758 0.5401 0.0
O739 O 0.40016 0.90769 0.53745 0.0
O740 O 0.40223 0.96067 0.50848 0.0
O741 O 0.46896 0.00343 0.57654 0.0
O742 O 0.44083 0.96877 0.49118 0.0
O743 O 0.47488 0.00465 0.53422 0.0
C744 C 0.39686 0.96951 0.59498 0.0
C745 C 0.50767 0.92947 0.51944 0.0
C746 C 0.41259 0.88718 0.53568 0.0
C747 C 0.47765 0.92498 0.60939 0.0
C748 C 0.41618 0.96706 0.48934 0.0
C749 C 0.47548 0.01564 0.55669 0.0
O750 O 0.38921 0.95979 0.57301 0.0
O751 O 0.60572 0.54106 0.62732 0.0
Zn752 Zn 0.56815 0.54564 0.61736 0.0
O753 O 0.56469 0.54913 0.58006 0.0
Zn754 Zn 0.55356 0.58331 0.57248 0.0
Zn755 Zn 0.59763 0.54302 0.56407 0.0
Zn756 Zn 0.53976 0.52336 0.56508 0.0
O757 O 0.51768 0.58101 0.55582 0.0
O758 O 0.50589 0.53934 0.55813 0.0
O759 O 0.5554 0.57743 0.63766 0.0
O760 O 0.54874 0.6034 0.60568 0.0
O761 O 0.58087 0.6036 0.55207 0.0
O762 O 0.61222 0.57602 0.55072 0.0
O763 O 0.59424 0.51913 0.53225 0.0
O764 O 0.54927 0.51209 0.62685 0.0
O765 O 0.55191 0.51034 0.53006 0.0
O766 O 0.53463 0.49398 0.58945 0.0
C767 C 0.62489 0.53374 0.61412 0.0
C768 C 0.5006 0.56236 0.55336 0.0
C769 C 0.60379 0.59791 0.54604 0.0
C770 C 0.54914 0.5992 0.62964 0.0
C771 C 0.57429 0.50941 0.52019 0.0
C772 C 0.53854 0.49296 0.61371 0.0
O773 O 0.62361 0.53154 0.58958 0.0
O774 O 0.62045 0.43534 0.98661 0.0
Zn775 Zn 0.60551 0.47023 0.9872 0.0
O776 O 0.57026 0.46742 0.97497 0.0
Zn777 Zn 0.5707 0.48264 0.94156 0.0
Zn778 Zn 0.55907 0.43094 0.97126 0.0
Zn779 Zn 0.54758 0.48599 0.99886 0.0
O780 O 0.55553 0.51717 0.9446 0.0
O781 O 0.53956 0.52121 0.9841 0.0
O782 O 0.62915 0.49176 0.96539 0.0
O783 O 0.60707 0.48935 0.92858 0.0
O784 O 0.55135 0.4598 0.91497 0.0
O785 O 0.54851 0.42243 0.93431 0.0
O786 O 0.52666 0.42419 0.99178 0.0
O787 O 0.60695 0.48495 0.02302 0.0
O788 O 0.51416 0.46331 0.00394 0.0
O789 O 0.56656 0.49291 0.0339 0.0
C790 C 0.61155 0.41203 0.98399 0.0
C791 C 0.54439 0.53039 0.96206 0.0
C792 C 0.54523 0.43571 0.91463 0.0
C793 C 0.62786 0.49499 0.94131 0.0
C794 C 0.50991 0.43878 1.00159 0.0
C795 C 0.59061 0.49242 0.0395 0.0
O796 O 0.58756 0.40668 0.97962 0.0
O797 O 0.49555 0.10863 0.90946 0.0
Zn798 Zn 0.49225 0.10157 0.94692 0.0
O799 O 0.47824 0.06697 0.95238 0.0
Zn800 Zn 0.44564 0.06999 0.97127 0.0
Zn801 Zn 0.47267 0.04911 0.91852 0.0
Zn802 Zn 0.50284 0.04822 0.9725 0.0
O803 O 0.44829 0.05436 0.00595 0.0
O804 O 0.48879 0.04239 0.00844 0.0
O805 O 0.47016 0.12863 0.96169 0.0
O806 O 0.43608 0.10756 0.97756 0.0
O807 O 0.41638 0.0515 0.95112 0.0
O808 O 0.4348 0.04059 0.91393 0.0
O809 O 0.48955 0.01454 0.91645 0.0
O810 O 0.52684 0.10712 0.96321 0.0
O811 O 0.50827 0.01295 0.95494 0.0
O812 O 0.5372 0.06908 0.97712 0.0
C813 C 0.49164 0.09528 0.88852 0.0
C814 C 0.46662 0.04503 0.01841 0.0
C815 C 0.415 0.04167 0.92821 0.0
C816 C 0.44841 0.12869 0.97277 0.0
C817 C 0.50219 1.00247 0.93283 0.0
C818 C 0.54277 0.09289 0.97362 0.0
O819 O 0.4836 0.07162 0.88873 0.0
H820 H 0.04025 0.13538 0.35475 0.0
H821 H 0.98978 0.17028 0.41111 0.0
H822 H 0.98879 0.13022 0.43522 0.0
H823 H 0.00836 0.07311 0.35256 0.0
H824 H 0.03759 0.05611 0.34869 0.0
H825 H 0.03593 0.08815 0.33713 0.0
H826 H 0.07632 0.10341 0.36457 0.0
H827 H 0.07821 0.07137 0.37612 0.0
H828 H 0.07647 0.09858 0.39873 0.0
H829 H 0.99195 0.08508 0.45213 0.0
H830 H 0.99959 0.03967 0.46072 0.0
H831 H 0.0464 0.03421 0.39195 0.0
C832 C 0.02889 0.13472 0.37213 0.0
C833 C 0.01499 0.15613 0.3809 0.0
C834 C 1.00086 0.15437 0.40408 0.0
C835 C 1.00003 0.13159 0.41782 0.0
C836 C 0.01345 0.11069 0.40819 0.0
C837 C 0.02769 0.11214 0.38591 0.0
C838 C 0.0398 0.08682 0.37911 0.0
C839 C 0.02981 0.07538 0.35282 0.0
C840 C 0.06946 0.09026 0.37968 0.0
C841 C 0.02997 0.07071 0.40092 0.0
C842 C 0.01492 0.08482 0.4176 0.0
C843 C 0.00374 0.07392 0.43919 0.0
C844 C 0.00818 0.04805 0.44389 0.0
C845 C 0.02353 0.0332 0.427 0.0
C846 C 0.03445 0.04486 0.40521 0.0
H847 H 1.00002 0.33123 0.39708 0.0
H848 H 0.02129 0.3434 0.3179 0.0
H849 H 0.02108 0.39073 0.32643 0.0
H850 H 0.95686 0.38275 0.40375 0.0
H851 H 0.9661 0.39173 0.4366 0.0
H852 H 0.96868 0.35894 0.42443 0.0
H853 H 0.0171 0.36123 0.43752 0.0
H854 H 0.01471 0.3941 0.4496 0.0
H855 H 0.03843 0.38648 0.42565 0.0
H856 H 0.01627 0.43619 0.34275 0.0
H857 H 0.00771 0.47736 0.36579 0.0
H858 H 0.99103 0.43662 0.43536 0.0
C859 C 0.00461 0.34399 0.38165 0.0
C860 C 0.01049 0.33393 0.35678 0.0
C861 C 0.01667 0.35095 0.33701 0.0
C862 C 0.01663 0.37777 0.34171 0.0
C863 C 0.01064 0.38721 0.3664 0.0
C864 C 0.00484 0.3709 0.3861 0.0
C865 C 0.99872 0.38619 0.41074 0.0
C866 C 0.97094 0.3795 0.41938 0.0
C867 C 0.01842 0.38173 0.43214 0.0
C868 C 1.00165 0.41361 0.40172 0.0
C869 C 0.00855 0.41366 0.37605 0.0
C870 C 0.01115 0.43642 0.36291 0.0
C871 C 0.00622 0.45972 0.37618 0.0
C872 C 0.99898 0.46027 0.40244 0.0
C873 C 0.99706 0.43688 0.41546 0.0
H874 H 0.04718 0.87126 0.13947 0.0
H875 H 0.00267 0.8354 0.07499 0.0
H876 H 0.00897 0.87566 0.05147 0.0
H877 H 0.0205 0.93243 0.13726 0.0
H878 H 0.05022 0.95026 0.14636 0.0
H879 H 0.04408 0.918 0.15696 0.0
H880 H 0.08697 0.9042 0.13655 0.0
H881 H 0.09333 0.93646 0.12597 0.0
H882 H 0.09281 0.90939 0.10296 0.0
H883 H 0.01894 0.9207 0.03593 0.0
H884 H 0.03157 0.9665 0.02953 0.0
H885 H 0.0672 0.97287 0.10566 0.0
C886 C 0.0386 0.87178 0.12044 0.0
C887 C 0.02424 0.85018 0.10915 0.0
C888 C 0.01392 0.85161 0.08395 0.0
C889 C 0.01728 0.87443 0.07053 0.0
C890 C 0.03099 0.89556 0.0826 0.0
C891 C 0.04149 0.89436 0.107 0.0
C892 C 0.05453 0.9199 0.11624 0.0
C893 C 0.04155 0.93078 0.14064 0.0
C894 C 0.08364 0.91732 0.12068 0.0
C895 C 0.04953 0.93588 0.09332 0.0
C896 C 0.03614 0.92147 0.074 0.0
C897 C 0.02944 0.93214 0.05092 0.0
C898 C 0.0367 0.95816 0.04749 0.0
C899 C 0.05029 0.9733 0.06715 0.0
C900 C 0.05667 0.9619 0.09035 0.0
H901 H 0.01231 0.67404 0.09174 0.0
H902 H 0.02268 0.66608 0.17373 0.0
H903 H 0.01935 0.61842 0.16717 0.0
H904 H 0.96517 0.62397 0.0821 0.0
H905 H 0.9763 0.61287 0.05095 0.0
H906 H 0.98243 0.64607 0.06173 0.0
H907 H 0.03152 0.64188 0.05485 0.0
H908 H 0.02555 0.60864 0.0439 0.0
H909 H 0.04777 0.61678 0.07025 0.0
H910 H 0.01011 0.57241 0.15227 0.0
H911 H 0.99734 0.53064 0.12996 0.0
H912 H 0.99402 0.56841 0.05722 0.0
C913 C 0.01442 0.66209 0.10811 0.0
C914 C 0.01792 0.67327 0.13317 0.0
C915 C 0.02023 0.65749 0.1544 0.0
C916 C 0.01835 0.63055 0.15083 0.0
C917 C 0.0144 0.61994 0.12588 0.0
C918 C 0.0127 0.63519 0.10483 0.0
C919 C 0.00691 0.61899 0.0803 0.0
C920 C 0.98117 0.62589 0.06806 0.0
C921 C 0.02927 0.62174 0.0612 0.0
C922 C 0.00496 0.5923 0.09092 0.0
C923 C 0.00944 0.59328 0.11723 0.0
C924 C 0.00697 0.57131 0.13161 0.0
C925 C 0.9996 0.54772 0.11879 0.0
C926 C 0.99489 0.54628 0.09185 0.0
C927 C 0.99795 0.56885 0.07775 0.0
H928 H 0.37894 0.00729 0.13668 0.0
H929 H 0.44398 0.03031 0.18742 0.0
H930 H 0.47181 0.03532 0.14933 0.0
H931 H 0.41356 0.97491 0.08521 0.0
H932 H 0.39401 0.98764 0.06042 0.0
H933 H 0.38049 0.98196 0.09164 0.0
H934 H 0.36792 0.02961 0.09602 0.0
H935 H 0.38136 0.03542 0.06487 0.0
H936 H 0.39247 0.05514 0.09264 0.0
H937 H 0.49192 0.04035 0.10472 0.0
H938 H 0.50123 0.04802 0.05885 0.0
H939 H 0.42138 0.02652 0.03877 0.0
C940 C 0.39899 0.01349 0.14006 0.0
C941 C 0.40906 0.01854 0.16533 0.0
C942 C 0.4357 0.02594 0.16843 0.0
C943 C 0.45168 0.02897 0.14684 0.0
C944 C 0.44074 0.02468 0.12226 0.0
C945 C 0.41492 0.01724 0.11888 0.0
C946 C 0.40703 0.01618 0.09072 0.0
C947 C 0.39826 0.98852 0.08146 0.0
C948 C 0.38596 0.03522 0.08579 0.0
C949 C 0.43235 0.02465 0.07868 0.0
C950 C 0.45177 0.02891 0.09703 0.0
C951 C 0.47682 0.03702 0.09025 0.0
C952 C 0.48196 0.04126 0.06417 0.0
C953 C 0.46199 0.03797 0.04534 0.0
C954 C 0.43699 0.02931 0.05278 0.0
H955 H 0.60592 0.48334 0.19207 0.0
H956 H 0.68351 0.51705 0.18328 0.0
H957 H 0.67424 0.52384 0.1374 0.0
H958 H 0.60303 0.44831 0.13089 0.0
H959 H 0.56933 0.45318 0.12516 0.0
H960 H 0.58154 0.45262 0.15767 0.0
H961 H 0.5638 0.49765 0.16775 0.0
H962 H 0.55185 0.49849 0.13513 0.0
H963 H 0.57352 0.52421 0.14818 0.0
H964 H 0.65776 0.5251 0.0928 0.0
H965 H 0.63611 0.51829 0.05053 0.0
H966 H 0.56881 0.483 0.08688 0.0
C967 C 0.62098 0.49184 0.18031 0.0
C968 C 0.64558 0.49935 0.19091 0.0
C969 C 0.66463 0.51109 0.1753 0.0
C970 C 0.65949 0.5151 0.14934 0.0
C971 C 0.63512 0.50737 0.13935 0.0
C972 C 0.61619 0.49583 0.15421 0.0
C973 C 0.59211 0.48819 0.1382 0.0
C974 C 0.58616 0.45883 0.13796 0.0
C975 C 0.56895 0.50302 0.1479 0.0
C976 C 0.60068 0.49681 0.11191 0.0
C977 C 0.62547 0.50811 0.11324 0.0
C978 C 0.63829 0.5165 0.0915 0.0
C979 C 0.62581 0.51255 0.06759 0.0
C980 C 0.60074 0.50032 0.0655 0.0
C981 C 0.58773 0.49291 0.08803 0.0
H982 H 0.40824 0.99768 0.33913 0.0
H983 H 0.32554 0.98178 0.34314 0.0
H984 H 0.32979 0.97312 0.38952 0.0
H985 H 0.42637 0.94863 0.38223 0.0
H986 H 0.45288 0.96815 0.39676 0.0
H987 H 0.44319 0.97292 0.36402 0.0
H988 H 0.43725 0.02127 0.37568 0.0
H989 H 0.44683 0.01662 0.40849 0.0
H990 H 0.41626 0.03003 0.40178 0.0
H991 H 0.34314 0.96697 0.43559 0.0
H992 H 0.3644 0.96195 0.47755 0.0
H993 H 0.43887 0.9816 0.44376 0.0
C994 C 0.39111 0.99235 0.34989 0.0
C995 C 0.36652 0.99046 0.33782 0.0
C996 C 0.34449 0.98327 0.35222 0.0
C997 C 0.34675 0.97841 0.37851 0.0
C998 C 0.37123 0.9807 0.39004 0.0
C999 C 0.39306 0.98736 0.37617 0.0
C1000 C 0.4171 0.98834 0.39316 0.0
C1001 C 0.436 0.96831 0.38346 0.0
C1002 C 0.43012 0.01569 0.39488 0.0
C1003 C 0.40542 0.9812 0.41876 0.0
C1004 C 0.37893 0.97697 0.41653 0.0
C1005 C 0.36387 0.9702 0.43753 0.0
C1006 C 0.37618 0.96745 0.46137 0.0
C1007 C 0.40339 0.97137 0.46416 0.0
C1008 C 0.41807 0.97847 0.44243 0.0
H1009 H 0.65295 0.47596 0.39371 0.0
H1010 H 0.58917 0.50518 0.35059 0.0
H1011 H 0.56357 0.50639 0.39004 0.0
H1012 H 0.61656 0.44011 0.44078 0.0
H1013 H 0.63826 0.45071 0.4669 0.0
H1014 H 0.65022 0.44757 0.43448 0.0
H1015 H 0.66806 0.49523 0.43759 0.0
H1016 H 0.65642 0.49841 0.47004 0.0
H1017 H 0.64661 0.52032 0.44633 0.0
H1018 H 0.54525 0.50657 0.43499 0.0
H1019 H 0.53839 0.51203 0.48187 0.0
H1020 H 0.61631 0.48926 0.4962 0.0
C1021 C 0.63375 0.48288 0.39213 0.0
C1022 C 0.62343 0.49025 0.36828 0.0
C1023 C 0.59774 0.49857 0.36796 0.0
C1024 C 0.58291 0.49952 0.39049 0.0
C1025 C 0.59401 0.49257 0.4135 0.0
C1026 C 0.61903 0.48487 0.41453 0.0
C1027 C 0.62765 0.48152 0.4421 0.0
C1028 C 0.63351 0.4533 0.4463 0.0
C1029 C 0.65106 0.49997 0.44944 0.0
C1030 C 0.60368 0.48899 0.4565 0.0
C1031 C 0.58422 0.49455 0.4396 0.0
C1032 C 0.56035 0.50222 0.44837 0.0
C1033 C 0.55657 0.50511 0.47507 0.0
C1034 C 0.57679 0.501 0.4927 0.0
C1035 C 0.60046 0.49238 0.4832 0.0
H1036 H 0.15262 0.37272 0.03431 0.0
H1037 H 0.19332 0.43431 0.99465 0.0
H1038 H 0.15286 0.45734 0.99261 0.0
H1039 H 0.09517 0.37164 0.9962 0.0
H1040 H 0.07402 0.36451 0.02263 0.0
H1041 H 0.10657 0.35403 0.02277 0.0
H1042 H 0.11521 0.37792 0.06715 0.0
H1043 H 0.08263 0.38833 0.06723 0.0
H1044 H 0.10945 0.41181 0.071 0.0
H1045 H 0.1069 0.47319 0.99425 0.0
H1046 H 0.06033 0.48026 0.99955 0.0
H1047 H 0.0499 0.40642 0.03504 0.0
C1048 C 0.15319 0.39098 0.02501 0.0
C1049 C 0.17639 0.40154 0.01454 0.0
C1050 C 0.17605 0.42585 0.00315 0.0
C1051 C 0.15304 0.439 1.0017 0.0
C1052 C 0.13046 0.4276 0.01161 0.0
C1053 C 0.13043 0.40411 0.02306 0.0
C1054 C 0.10358 0.39545 0.03156 0.0
C1055 C 0.09429 0.3699 0.01744 0.0
C1056 C 0.10268 0.39326 0.06098 0.0
C1057 C 0.08834 0.41767 0.02301 0.0
C1058 C 0.10416 0.43617 0.01173 0.0
C1059 C 0.09438 0.45875 0.00295 0.0
C1060 C 0.06788 0.46258 0.006 0.0
C1061 C 0.05134 0.44379 0.01744 0.0
C1062 C 0.06186 0.42099 0.02582 0.0
H1063 H 0.18023 0.58848 0.49184 0.0
H1064 H 0.16513 0.6645 0.52437 0.0
H1065 H 0.11836 0.65236 0.52468 0.0
H1066 H 0.12685 0.58427 0.4483 0.0
H1067 H 0.11996 0.55013 0.45116 0.0
H1068 H 0.15236 0.5637 0.45637 0.0
H1069 H 0.15316 0.5444 0.50149 0.0
H1070 H 0.1206 0.53099 0.49651 0.0
H1071 H 0.12841 0.55202 0.52437 0.0
H1072 H 0.07389 0.63371 0.51861 0.0
H1073 H 0.03331 0.61081 0.50396 0.0
H1074 H 0.07609 0.54685 0.47337 0.0
C1075 C 0.16698 0.60258 0.49877 0.0
C1076 C 0.17603 0.62759 0.50767 0.0
C1077 C 0.15837 0.64531 0.51739 0.0
C1078 C 0.13188 0.63855 0.51772 0.0
C1079 C 0.12344 0.61393 0.50834 0.0
C1080 C 0.14037 0.59623 0.4989 0.0
C1081 C 0.12593 0.57183 0.48811 0.0
C1082 C 0.13161 0.56722 0.45928 0.0
C1083 C 0.13241 0.54842 0.50355 0.0
C1084 C 0.09821 0.57888 0.49237 0.0
C1085 C 0.09738 0.60311 0.50449 0.0
C1086 C 0.07424 0.61465 0.50933 0.0
C1087 C 0.0513 0.60148 0.50088 0.0
C1088 C 0.05157 0.57704 0.48761 0.0
C1089 C 0.0753 0.56528 0.4839 0.0
H1090 H 0.85114 0.83004 0.4758 0.0
H1091 H 0.81077 0.89942 0.49365 0.0
H1092 H 0.85178 0.92581 0.49038 0.0
H1093 H 0.90958 0.84891 0.51086 0.0
H1094 H 0.93069 0.83476 0.4874 0.0
H1095 H 0.89817 0.82136 0.49074 0.0
H1096 H 0.8894 0.82697 0.44222 0.0
H1097 H 0.92193 0.84027 0.43867 0.0
H1098 H 0.89497 0.8583 0.42908 0.0
H1099 H 0.89709 0.94433 0.48657 0.0
H1100 H 0.94348 0.95448 0.48022 0.0
H1101 H 0.95495 0.87311 0.4638 0.0
C1102 C 0.85109 0.85081 0.47891 0.0
C1103 C 0.82807 0.86285 0.48527 0.0
C1104 C 0.82841 0.89001 0.48903 0.0
C1105 C 0.85154 0.90506 0.4872 0.0
C1106 C 0.87409 0.89264 0.48134 0.0
C1107 C 0.87406 0.86616 0.47703 0.0
C1108 C 0.90101 0.85775 0.47089 0.0
C1109 C 0.91041 0.83963 0.49119 0.0
C1110 C 0.90187 0.84508 0.44359 0.0
C1111 C 0.91619 0.88361 0.47258 0.0
C1112 C 0.90025 0.90343 0.4787 0.0
C1113 C 0.90975 0.92899 0.48166 0.0
C1114 C 0.93622 0.93454 0.47807 0.0
C1115 C 0.95301 0.91464 0.47147 0.0
C1116 C 0.94272 0.88881 0.46878 0.0
H1117 H 0.37596 0.64502 0.54079 0.0
H1118 H 0.33697 0.5777 0.502 0.0
H1119 H 0.37602 0.55338 0.50769 0.0
H1120 H 0.43739 0.63677 0.51092 0.0
H1121 H 0.45573 0.64818 0.53919 0.0
H1122 H 0.42417 0.65982 0.53349 0.0
H1123 H 0.40943 0.64513 0.57831 0.0
H1124 H 0.44095 0.63347 0.58417 0.0
H1125 H 0.4126 0.61204 0.58641 0.0
H1126 H 0.41964 0.53624 0.51784 0.0
H1127 H 0.46456 0.52825 0.53022 0.0
H1128 H 0.476 0.60788 0.55891 0.0
C1129 C 0.37552 0.62527 0.53315 0.0
C1130 C 0.35306 0.61343 0.52092 0.0
C1131 C 0.35355 0.58726 0.51186 0.0
C1132 C 0.37579 0.57328 0.51481 0.0
C1133 C 0.39757 0.58573 0.52663 0.0
C1134 C 0.39764 0.61119 0.53552 0.0
C1135 C 0.42376 0.62037 0.54687 0.0
C1136 C 0.43598 0.6426 0.5317 0.0
C1137 C 0.42154 0.62821 0.57565 0.0
C1138 C 0.43844 0.59607 0.54298 0.0
C1139 C 0.42292 0.57622 0.5315 0.0
C1140 C 0.43199 0.5517 0.52668 0.0
C1141 C 0.45752 0.54734 0.53381 0.0
C1142 C 0.47388 0.56748 0.54533 0.0
C1143 C 0.46412 0.59219 0.5498 0.0
H1144 H 0.5547 0.65593 0.87977 0.0
H1145 H 0.50212 0.69263 0.93271 0.0
H1146 H 0.50155 0.65416 0.95932 0.0
H1147 H 0.52403 0.59357 0.88015 0.0
H1148 H 0.55372 0.57711 0.87774 0.0
H1149 H 0.55163 0.60839 0.86456 0.0
H1150 H 0.59123 0.62577 0.89217 0.0
H1151 H 0.59353 0.59448 0.90536 0.0
H1152 H 0.59081 0.62261 0.92659 0.0
H1153 H 0.50571 0.60945 0.97919 0.0
H1154 H 0.51424 0.56443 0.98967 0.0
H1155 H 0.56198 0.55791 0.92167 0.0
C1156 C 0.54297 0.65602 0.89691 0.0
C1157 C 0.52833 0.67742 0.90396 0.0
C1158 C 0.51374 0.67668 0.92694 0.0
C1159 C 0.51317 0.6548 0.94211 0.0
C1160 C 0.52731 0.63377 0.9341 0.0
C1161 C 0.54198 0.63438 0.91201 0.0
C1162 C 0.55471 0.60918 0.90673 0.0
C1163 C 0.54546 0.59631 0.88076 0.0
C1164 C 0.58432 0.61327 0.90779 0.0
C1165 C 0.54476 0.59404 0.92912 0.0
C1166 C 0.52916 0.60844 0.94494 0.0
C1167 C 0.51793 0.59809 0.96687 0.0
C1168 C 0.52284 0.57249 0.97268 0.0
C1169 C 0.53861 0.55742 0.95645 0.0
C1170 C 0.54961 0.56862 0.93446 0.0
H1171 H 0.50394 0.8686 0.84832 0.0
H1172 H 0.53329 0.83425 0.91634 0.0
H1173 H 0.53306 0.87656 0.94035 0.0
H1174 H 0.5392 0.93011 0.85665 0.0
H1175 H 0.51307 0.9486 0.84583 0.0
H1176 H 0.51556 0.9157 0.83394 0.0
H1177 H 0.46912 0.90428 0.84932 0.0
H1178 H 0.46641 0.93719 0.8611 0.0
H1179 H 0.4609 0.91112 0.8825 0.0
H1180 H 0.53085 0.92278 0.95654 0.0
H1181 H 0.5236 0.9689 0.9651 0.0
H1182 H 0.49421 0.97358 0.88699 0.0
C1183 C 0.51026 0.87012 0.86828 0.0
C1184 C 0.51912 0.8484 0.88044 0.0
C1185 C 0.52689 0.85085 0.90666 0.0
C1186 C 0.5268 0.87476 0.92039 0.0
C1187 C 0.51852 0.89601 0.90775 0.0
C1188 C 0.5101 0.8939 0.88237 0.0
C1189 C 0.50166 0.91969 0.87358 0.0
C1190 C 0.51837 0.92907 0.85117 0.0
C1191 C 0.4728 0.91796 0.8662 0.0
C1192 C 0.50676 0.93663 0.89791 0.0
C1193 C 0.51663 0.92258 0.91732 0.0
C1194 C 0.52304 0.93395 0.94151 0.0
C1195 C 0.51892 0.96027 0.94616 0.0
C1196 C 0.50832 0.97508 0.92679 0.0
C1197 C 0.50237 0.96295 0.90227 0.0
H1198 H 0.51236 0.33997 0.62119 0.0
H1199 H 0.52503 0.34988 0.70362 0.0
H1200 H 0.5296 0.39737 0.69988 0.0
H1201 H 0.55831 0.38953 0.60352 0.0
H1202 H 0.53925 0.39993 0.57714 0.0
H1203 H 0.53571 0.36702 0.58663 0.0
H1204 H 0.48659 0.37166 0.59268 0.0
H1205 H 0.48998 0.40464 0.58326 0.0
H1206 H 0.47559 0.39729 0.61372 0.0
H1207 H 0.53427 0.44348 0.68679 0.0
H1208 H 0.54005 0.48487 0.66551 0.0
H1209 H 0.52422 0.44508 0.59124 0.0
C1210 C 0.51584 0.35229 0.63839 0.0
C1211 C 0.51814 0.34159 0.66274 0.0
C1212 C 0.5231 0.35798 0.68488 0.0
C1213 C 0.52565 0.38487 0.68291 0.0
C1214 C 0.52323 0.39496 0.65861 0.0
C1215 C 0.51848 0.37919 0.63672 0.0
C1216 C 0.51769 0.39489 0.61284 0.0
C1217 C 0.53901 0.3874 0.59392 0.0
C1218 C 0.49086 0.39194 0.59986 0.0
C1219 C 0.52299 0.42193 0.62464 0.0
C1220 C 0.52598 0.42154 0.65108 0.0
C1221 C 0.53182 0.44404 0.66612 0.0
C1222 C 0.53505 0.46749 0.65381 0.0
C1223 C 0.53249 0.46839 0.62666 0.0
C1224 C 0.52603 0.44522 0.61203 0.0
H1225 H 0.47042 0.15009 0.63231 0.0
H1226 H 0.53243 0.17988 0.58471 0.0
H1227 H 0.52843 0.13962 0.55688 0.0
H1228 H 0.49175 0.08908 0.63463 0.0
H1229 H 0.46011 0.07286 0.63459 0.0
H1230 H 0.46451 0.10561 0.64721 0.0
H1231 H 0.42956 0.1198 0.61559 0.0
H1232 H 0.4248 0.08695 0.60304 0.0
H1233 H 0.43256 0.11246 0.58152 0.0
H1234 H 0.52012 0.09326 0.53726 0.0
H1235 H 0.50909 0.04639 0.5288 0.0
H1236 H 0.45525 0.048 0.5922 0.0
C1237 C 0.48289 0.14838 0.61575 0.0
C1238 C 0.50181 0.16796 0.61067 0.0
C1239 C 0.51765 0.16513 0.58876 0.0
C1240 C 0.51554 0.14232 0.57294 0.0
C1241 C 0.49741 0.1228 0.57933 0.0
C1242 C 0.48127 0.12584 0.60019 0.0
C1243 C 0.46526 0.10144 0.60495 0.0
C1244 C 0.47076 0.09168 0.63193 0.0
C1245 C 0.43633 0.10541 0.60103 0.0
C1246 C 0.47537 0.08378 0.58401 0.0
C1247 C 0.4935 0.09637 0.56898 0.0
C1248 C 0.50582 0.08333 0.54884 0.0
C1249 C 0.49951 0.05678 0.54419 0.0
C1250 C 0.48158 0.04365 0.56007 0.0
C1251 C 0.46927 0.05749 0.57995 0.0
H1252 H 0.87713 0.53456 0.63932 0.0
H1253 H 0.9307 0.48371 0.67279 0.0
H1254 H 0.95317 0.48001 0.63094 0.0
H1255 H 0.87003 0.50018 0.57891 0.0
H1256 H 0.86768 0.5288 0.56082 0.0
H1257 H 0.85727 0.52878 0.5938 0.0
H1258 H 0.88822 0.56864 0.6052 0.0
H1259 H 0.89855 0.56892 0.5722 0.0
H1260 H 0.92205 0.56741 0.59778 0.0
H1261 H 0.9689 0.48122 0.58405 0.0
H1262 H 0.97668 0.48793 0.53774 0.0
H1263 H 0.9107 0.5359 0.53582 0.0
C1264 C 0.89352 0.52252 0.63797 0.0
C1265 C 0.902 0.50929 0.65942 0.0
C1266 C 0.92394 0.49425 0.65676 0.0
C1267 C 0.93671 0.49189 0.63299 0.0
C1268 C 0.9273 0.50467 0.61208 0.0
C1269 C 0.90623 0.51977 0.61448 0.0
C1270 C 0.89933 0.5311 0.58918 0.0
C1271 C 0.87196 0.52164 0.58015 0.0
C1272 C 0.90222 0.56077 0.59122 0.0
C1273 C 0.91969 0.51992 0.57197 0.0
C1274 C 0.93581 0.50485 0.58543 0.0
C1275 C 0.95632 0.49294 0.57338 0.0
C1276 C 0.96055 0.49681 0.54704 0.0
C1277 C 0.9442 0.51226 0.53298 0.0
C1278 C 0.92342 0.5237 0.54578 0.0
H1279 H 0.14738 0.00754 0.63769 0.0
H1280 H 0.08603 0.97457 0.68454 0.0
H1281 H 0.05735 0.97038 0.64625 0.0
H1282 H 0.10768 0.0395 0.59102 0.0
H1283 H 0.128 0.03021 0.56455 0.0
H1284 H 0.14165 0.03584 0.59646 0.0
H1285 H 0.15946 0.99008 0.59413 0.0
H1286 H 0.14586 0.9843 0.56232 0.0
H1287 H 0.13756 0.96241 0.5873 0.0
H1288 H 0.03674 0.96598 0.60176 0.0
H1289 H 0.02749 0.95825 0.55509 0.0
H1290 H 0.10459 0.98863 0.53767 0.0
C1291 C 0.12792 0.99949 0.64014 0.0
C1292 C 0.11913 0.99129 0.6643 0.0
C1293 C 0.09322 0.98141 0.66644 0.0
C1294 C 0.07678 0.97887 0.64473 0.0
C1295 C 0.08656 0.98614 0.62104 0.0
C1296 C 0.11162 0.99611 0.61867 0.0
C1297 C 0.11877 0.9993 0.5908 0.0
C1298 C 0.12434 0.02792 0.58539 0.0
C1299 C 0.14176 0.98305 0.5832 0.0
C1300 C 0.09406 0.98879 0.5777 0.0
C1301 C 0.0754 0.98203 0.59543 0.0
C1302 C 0.05115 0.97135 0.58774 0.0
C1303 C 0.04607 0.96706 0.56126 0.0
C1304 C 0.06542 0.97279 0.543 0.0
C1305 C 0.08953 0.98405 0.55134 0.0
H1306 H 0.85967 0.50264 0.85723 0.0
H1307 H 0.92962 0.52981 0.81972 0.0
H1308 H 0.95343 0.53025 0.86133 0.0
H1309 H 0.87033 0.53891 0.91824 0.0
H1310 H 0.85756 0.51307 0.93726 0.0
H1311 H 0.8459 0.51602 0.90481 0.0
H1312 H 0.85779 0.46913 0.89311 0.0
H1313 H 0.86936 0.46599 0.92554 0.0
H1314 H 0.89033 0.4599 0.89868 0.0
H1315 H 0.96973 0.52686 0.90717 0.0
H1316 H 0.97783 0.51763 0.95271 0.0
H1317 H 0.89722 0.49199 0.96021 0.0
C1318 C 0.87995 0.5089 0.85795 0.0
C1319 C 0.89274 0.51687 0.83554 0.0
C1320 C 0.9194 0.52433 0.83691 0.0
C1321 C 0.93305 0.52455 0.86041 0.0
C1322 C 0.91981 0.51698 0.88234 0.0
C1323 C 0.89388 0.50912 0.88127 0.0
C1324 C 0.88444 0.5009 0.90737 0.0
C1325 C 0.8633 0.51827 0.91751 0.0
C1326 C 0.87493 0.47228 0.90609 0.0
C1327 C 0.90911 0.50524 0.92328 0.0
C1328 C 0.92926 0.51465 0.90854 0.0
C1329 C 0.95405 0.51958 0.91891 0.0
C1330 C 0.95846 0.51434 0.94487 0.0
C1331 C 0.93821 0.50418 0.96025 0.0
C1332 C 0.91315 0.49995 0.94919 0.0
H1333 H 0.1874 0.02122 0.85583 0.0
H1334 H 0.1147 0.99088 0.82192 0.0
H1335 H 0.09378 0.99541 0.86429 0.0
H1336 H 0.1804 0.99232 0.91789 0.0
H1337 H 0.19411 0.02011 0.93625 0.0
H1338 H 0.20398 0.01386 0.90346 0.0
H1339 H 0.19128 0.05944 0.89175 0.0
H1340 H 0.1815 0.06591 0.92452 0.0
H1341 H 0.15905 0.0692 0.89834 0.0
H1342 H 0.08096 1.00191 0.9092 0.0
H1343 H 0.07463 0.01421 0.9545 0.0
H1344 H 0.15485 0.04317 0.96122 0.0
C1345 C 0.16712 0.01546 0.85755 0.0
C1346 C 0.1527 0.00494 0.83594 0.0
C1347 C 0.1261 0.99824 0.83849 0.0
C1348 C 0.1141 1.00081 0.86242 0.0
C1349 C 0.12889 0.0106 0.88352 0.0
C1350 C 0.15469 0.0182 0.88141 0.0
C1351 C 0.16556 0.02916 0.9072 0.0
C1352 C 0.1873 0.01289 0.91676 0.0
C1353 C 0.17489 0.05762 0.90533 0.0
C1354 C 0.14177 0.02645 0.92406 0.0
C1355 C 0.12105 0.01544 0.90981 0.0
C1356 C 0.09696 0.01071 0.92057 0.0
C1357 C 0.09362 0.01786 0.94648 0.0
C1358 C 0.11417 0.02994 0.96167 0.0
C1359 C 0.13876 0.03397 0.95028 0.0
H1360 H 0.63608 0.853 0.52713 0.0
H1361 H 0.66911 0.90104 0.46821 0.0
H1362 H 0.6291 0.92506 0.46756 0.0
H1363 H 0.57281 0.84647 0.50042 0.0
H1364 H 0.55708 0.84702 0.53125 0.0
H1365 H 0.58894 0.83511 0.52827 0.0
H1366 H 0.60595 0.86809 0.56426 0.0
H1367 H 0.57408 0.87997 0.5675 0.0
H1368 H 0.60115 0.90195 0.56115 0.0
H1369 H 0.58404 0.94279 0.47269 0.0
H1370 H 0.53919 0.95298 0.48377 0.0
H1371 H 0.53622 0.89132 0.53758 0.0
C1372 C 0.63499 0.86852 0.51398 0.0
C1373 C 0.65577 0.87501 0.49761 0.0
C1374 C 0.65359 0.89584 0.48114 0.0
C1375 C 0.63086 0.90947 0.48051 0.0
C1376 C 0.61051 0.90204 0.49647 0.0
C1377 C 0.6125 0.88208 0.51296 0.0
C1378 C 0.58785 0.87724 0.52774 0.0
C1379 C 0.57597 0.84984 0.52154 0.0
C1380 C 0.59255 0.88212 0.55688 0.0
C1381 C 0.57148 0.89748 0.51691 0.0
C1382 C 0.58481 0.91175 0.499 0.0
C1383 C 0.57346 0.9317 0.48669 0.0
C1384 C 0.54796 0.93731 0.49306 0.0
C1385 C 0.53404 0.92288 0.51143 0.0
C1386 C 0.54611 0.90263 0.52328 0.0
H1387 H 0.69654 0.10728 0.98545 0.0
H1388 H 0.68773 0.18817 0.00576 0.0
H1389 H 0.6402 0.18046 0.00563 0.0
H1390 H 0.64311 0.09924 0.9419 0.0
H1391 H 0.63353 0.06704 0.95098 0.0
H1392 H 0.66681 0.07865 0.95418 0.0
H1393 H 0.6663 0.06831 1.00253 0.0
H1394 H 0.63294 0.05679 0.99951 0.0
H1395 H 0.64239 0.08194 0.02332 0.0
H1396 H 0.59454 0.16493 1.00047 0.0
H1397 H 0.55234 0.14251 0.99059 0.0
H1398 H 0.58998 0.07094 0.97442 0.0
C1399 C 0.68445 0.12324 0.98982 0.0
C1400 C 0.69538 0.14834 0.99536 0.0
C1401 C 0.67937 0.16887 1.00138 0.0
C1402 C 0.6525 0.16464 1.00143 0.0
C1403 C 0.64217 0.13971 0.99566 0.0
C1404 C 0.65755 0.11931 0.99003 0.0
C1405 C 0.64135 0.09463 0.98364 0.0
C1406 C 0.64651 0.08429 0.95603 0.0
C1407 C 0.64603 0.07421 0.00344 0.0
C1408 C 0.61445 0.10451 0.98605 0.0
C1409 C 0.61549 0.13055 0.99313 0.0
C1410 C 0.5934 0.14449 0.9952 0.0
C1411 C 0.56957 0.1316 0.98947 0.0
C1412 C 0.56798 0.10501 0.98189 0.0
C1413 C 0.59067 0.09117 0.98062 0.0
H1414 H 0.35511 0.42183 0.00629 0.0
H1415 H 0.36455 0.34263 0.0258 0.0
H1416 H 0.41205 0.35097 0.02732 0.0
H1417 H 0.4099 0.42748 0.96483 0.0
H1418 H 0.41867 0.4605 0.97487 0.0
H1419 H 0.3855 0.4485 0.97632 0.0
H1420 H 0.38449 0.46241 0.02481 0.0
H1421 H 0.41775 0.4743 0.02355 0.0
H1422 H 0.40805 0.45073 0.04652 0.0
H1423 H 0.45831 0.36715 0.02437 0.0
H1424 H 0.50047 0.38991 0.01733 0.0
H1425 H 0.46178 0.45941 1.00073 0.0
C1426 C 0.36729 0.40632 0.01082 0.0
C1427 C 0.35636 0.3815 0.01572 0.0
C1428 C 0.3727 0.36171 0.02195 0.0
C1429 C 0.39963 0.3663 0.02287 0.0
C1430 C 0.40992 0.39091 0.01777 0.0
C1431 C 0.3943 0.41065 0.01193 0.0
C1432 C 0.41042 0.43515 0.00671 0.0
C1433 C 0.40585 0.44339 0.97904 0.0
C1434 C 0.40484 0.45693 0.02659 0.0
C1435 C 0.43754 0.42603 0.0102 0.0
C1436 C 0.43673 0.40044 0.01662 0.0
C1437 C 0.45918 0.38726 0.01962 0.0
C1438 C 0.48307 0.40037 0.01557 0.0
C1439 C 0.48452 0.42654 0.00876 0.0
C1440 C 0.46137 0.4396 0.00646 0.0
H1441 H 0.89946 0.15714 0.98702 0.0
H1442 H 0.85274 0.09369 0.01786 0.0
H1443 H 0.89163 0.06905 0.02134 0.0
H1444 H 0.9475 0.12077 0.9539 0.0
H1445 H 0.97374 0.14325 0.964 0.0
H1446 H 0.94174 0.15445 0.95983 0.0
H1447 H 0.94296 0.17385 0.00672 0.0
H1448 H 0.97498 0.16286 0.01099 0.0
H1449 H 0.94971 0.15344 0.03284 0.0
H1450 H 0.93594 0.05171 0.02293 0.0
H1451 H 0.9825 0.04518 0.0278 0.0
H1452 H 1.00061 0.12255 1.00262 0.0
C1453 C 0.89704 0.13822 0.99479 0.0
C1454 C 0.87249 0.12761 1.00202 0.0
C1455 C 0.87087 0.10232 0.01144 0.0
C1456 C 0.893 0.08811 0.01369 0.0
C1457 C 0.91677 0.09953 0.00693 0.0
C1458 C 0.91896 0.12418 0.99808 0.0
C1459 C 0.94698 0.13321 0.99481 0.0
C1460 C 0.95282 0.13821 0.96644 0.0
C1461 C 0.95407 0.15726 0.01239 0.0
C1462 C 0.96028 0.10984 0.00354 0.0
C1463 C 0.94247 0.09037 0.00976 0.0
C1464 C 0.95005 0.06683 0.01815 0.0
C1465 C 0.97653 0.06327 0.02075 0.0
C1466 C 0.99507 0.0834 0.0156 0.0
C1467 C 0.98681 0.1069 0.00671 0.0
H1468 H 0.02847 0.21979 0.20283 0.0
H1469 H 1.00097 0.16407 0.25727 0.0
H1470 H 0.00655 0.12859 0.22476 0.0
H1471 H 1.00006 0.18592 0.1442 0.0
H1472 H 0.02762 0.19432 0.12473 0.0
H1473 H 0.0191 0.21549 0.15142 0.0
H1474 H 0.06521 0.2135 0.17056 0.0
H1475 H 0.07384 0.19221 0.14407 0.0
H1476 H 0.0776 0.18256 0.17673 0.0
H1477 H 0.01818 0.09917 0.18793 0.0
H1478 H 0.03441 0.07735 0.14866 0.0
H1479 H 0.05467 0.15194 0.11753 0.0
C1480 C 0.02307 0.20013 0.20752 0.0
C1481 C 0.01372 0.19454 0.2322 0.0
C1482 C 0.00757 0.16863 0.23819 0.0
C1483 C 0.01078 0.14841 0.21991 0.0
C1484 C 0.02026 0.15445 0.19578 0.0
C1485 C 0.02623 0.17966 0.18946 0.0
C1486 C 0.0375 0.18064 0.16264 0.0
C1487 C 0.02002 0.19494 0.14468 0.0
C1488 C 0.06518 0.19295 0.16357 0.0
C1489 C 0.03725 0.15206 0.15506 0.0
C1490 C 0.02715 0.13735 0.17445 0.0
C1491 C 0.02589 0.11047 0.17248 0.0
C1492 C 0.03525 0.09825 0.1501 0.0
C1493 C 0.04574 0.11288 0.1299 0.0
C1494 C 0.04653 0.14017 0.13246 0.0
H1495 H 0.98062 0.35611 0.2378 0.0
H1496 H 0.03976 0.30831 0.2058 0.0
H1497 H 0.03799 0.33091 0.16518 0.0
H1498 H 0.94292 0.35823 0.18031 0.0
H1499 H 0.93501 0.39145 0.18543 0.0
H1500 H 0.94149 0.37234 0.2126 0.0
H1501 H 0.97722 0.40622 0.2286 0.0
H1502 H 0.97078 0.4255 0.20152 0.0
H1503 H 0.00299 0.41543 0.20722 0.0
H1504 H 0.02787 0.35604 0.12721 0.0
H1505 H 0.01216 0.38462 0.09466 0.0
H1506 H 0.96069 0.41811 0.15095 0.0
C1507 C 0.9933 0.35057 0.22227 0.0
C1508 C 0.01049 0.33055 0.22505 0.0
C1509 C 0.02678 0.32386 0.2043 0.0
C1510 C 0.0258 0.33647 0.18108 0.0
C1511 C 0.00857 0.35594 0.17889 0.0
C1512 C 0.99279 0.36322 0.19895 0.0
C1513 C 0.97595 0.38474 0.19129 0.0
C1514 C 0.94713 0.37617 0.19248 0.0
C1515 C 0.98211 0.40944 0.20816 0.0
C1516 C 0.98449 0.3881 0.16368 0.0
C1517 C 0.00324 0.37114 0.15699 0.0
C1518 C 0.0134 0.3696 0.13228 0.0
C1519 C 0.00424 0.38584 0.11389 0.0
C1520 C 0.98527 0.40367 0.12027 0.0
C1521 C 0.97541 0.40489 0.1456 0.0
H1522 H 0.01484 0.78774 0.28774 0.0
H1523 H 0.00844 0.84147 0.22693 0.0
H1524 H 0.01023 0.87805 0.25927 0.0
H1525 H 0.97611 0.82307 0.33543 0.0
H1526 H 0.99631 0.81535 0.3621 0.0
H1527 H 0.9927 0.79341 0.33426 0.0
H1528 H 0.04243 0.79501 0.32894 0.0
H1529 H 0.0462 0.81701 0.35666 0.0
H1530 H 0.0598 0.82578 0.32624 0.0
H1531 H 0.01621 0.90863 0.29765 0.0
H1532 H 0.02439 0.9314 0.33996 0.0
H1533 H 0.02576 0.8576 0.37598 0.0
C1534 C 0.01339 0.80722 0.28147 0.0
C1535 C 0.0113 0.8121 0.25515 0.0
C1536 C 0.00982 0.83767 0.24721 0.0
C1537 C 0.01083 0.85844 0.26537 0.0
C1538 C 0.01317 0.85316 0.2913 0.0
C1539 C 0.01422 0.8282 0.29939 0.0
C1540 C 0.0177 0.82794 0.32832 0.0
C1541 C 0.99431 0.81413 0.34076 0.0
C1542 C 0.04304 0.81572 0.33545 0.0
C1543 C 0.01894 0.85664 0.33511 0.0
C1544 C 0.01623 0.87085 0.31351 0.0
C1545 C 0.01803 0.89775 0.31479 0.0
C1546 C 0.02276 0.9105 0.33887 0.0
C1547 C 0.02553 0.89629 0.36127 0.0
C1548 C 0.02337 0.86902 0.35927 0.0
H1549 H 0.98648 0.64668 0.25047 0.0
H1550 H 0.04917 0.69877 0.28032 0.0
H1551 H 0.05039 0.67475 0.31995 0.0
H1552 H 0.95353 0.64128 0.30978 0.0
H1553 H 0.94373 0.60759 0.30463 0.0
H1554 H 0.94893 0.62752 0.27747 0.0
H1555 H 0.98183 0.59592 0.25893 0.0
H1556 H 0.97674 0.57588 0.28607 0.0
H1557 H 0.00889 0.58804 0.27855 0.0
H1558 H 0.04301 0.6479 0.35744 0.0
H1559 H 0.02775 0.6188 0.3909 0.0
H1560 H 0.97004 0.58308 0.33762 0.0
C1561 C 1.00057 0.65289 0.26528 0.0
C1562 C 0.01798 0.67444 0.26206 0.0
C1563 C 0.03607 0.68198 0.28197 0.0
C1564 C 0.03683 0.66854 0.30467 0.0
C1565 C 0.01942 0.64752 0.30726 0.0
C1566 C 1.00167 0.63959 0.28816 0.0
C1567 C 0.98449 0.61691 0.29648 0.0
C1568 C 0.95599 0.62374 0.29713 0.0
C1569 C 0.98822 0.59276 0.27896 0.0
C1570 C 0.9951 0.61374 0.32341 0.0
C1571 C 0.01529 0.63161 0.3291 0.0
C1572 C 0.02742 0.6336 0.35316 0.0
C1573 C 0.01855 0.61704 0.37206 0.0
C1574 C 0.99782 0.5986 0.36681 0.0
C1575 C 0.98619 0.59671 0.34202 0.0
H1576 H 0.27072 0.02201 0.16655 0.0
H1577 H 0.23033 0.03758 0.23783 0.0
H1578 H 0.19171 0.04828 0.21295 0.0
H1579 H 0.24387 0.07263 0.13051 0.0
H1580 H 0.24123 0.0537 0.10055 0.0
H1581 H 0.26593 0.04755 0.12375 0.0
H1582 H 0.24931 0.99966 0.12424 0.0
H1583 H 0.22464 0.00559 0.10094 0.0
H1584 H 0.21582 0.99195 0.13114 0.0
H1585 H 0.15806 0.05667 0.18126 0.0
H1586 H 0.12947 0.06167 0.14443 0.0
H1587 H 0.1905 0.04044 0.0919 0.0
C1588 C 0.25359 0.02751 0.17676 0.0
C1589 C 0.25312 0.0287 0.20405 0.0
C1590 C 0.23076 0.03636 0.21696 0.0
C1591 C 0.20887 0.04251 0.20299 0.0
C1592 C 0.2098 0.04099 0.17612 0.0
C1593 C 0.23147 0.03365 0.16305 0.0
C1594 C 0.22698 0.03333 0.13403 0.0
C1595 C 0.24561 0.05297 0.12147 0.0
C1596 C 0.22933 0.006 0.12187 0.0
C1597 C 0.1993 0.04152 0.13287 0.0
C1598 C 0.19001 0.04589 0.1575 0.0
C1599 C 0.16506 0.05327 0.1619 0.0
C1600 C 0.14893 0.05597 0.14068 0.0
C1601 C 0.15756 0.05127 0.11507 0.0
C1602 C 0.18332 0.04426 0.11113 0.0
H1603 H 0.80235 0.49937 0.20004 0.0
H1604 H 0.73827 0.4808 0.14721 0.0
H1605 H 0.76883 0.47759 0.11087 0.0
H1606 H 0.84324 0.53673 0.15648 0.0
H1607 H 0.87272 0.52396 0.16778 0.0
H1608 H 0.84573 0.5268 0.18919 0.0
H1609 H 0.84654 0.47812 0.19787 0.0
H1610 H 0.87349 0.47512 0.17649 0.0
H1611 H 0.84452 0.45473 0.17109 0.0
H1612 H 0.80637 0.47548 0.08061 0.0
H1613 H 0.84813 0.472 0.05871 0.0
H1614 H 0.88837 0.48986 0.13154 0.0
C1615 C 0.79486 0.49502 0.18071 0.0
C1616 C 0.76805 0.49065 0.17617 0.0
C1617 C 0.75879 0.4844 0.15086 0.0
C1618 C 0.77598 0.48258 0.13018 0.0
C1619 C 0.80238 0.48681 0.13524 0.0
C1620 C 0.81182 0.49274 0.1599 0.0
C1621 C 0.84115 0.49478 0.16029 0.0
C1622 C 0.8513 0.5222 0.16895 0.0
C1623 C 0.85206 0.47448 0.17745 0.0
C1624 C 0.84673 0.48893 0.13206 0.0
C1625 C 0.82408 0.4847 0.11792 0.0
C1626 C 0.82423 0.4788 0.09149 0.0
C1627 C 0.84811 0.47691 0.0792 0.0
C1628 C 0.87166 0.48063 0.09333 0.0
C1629 C 0.8708 0.48689 0.12013 0.0
H1630 H 0.21612 0.98551 0.31334 0.0
H1631 H 0.27262 0.00897 0.37295 0.0
H1632 H 0.23935 1.00183 0.40634 0.0
H1633 H 0.16238 0.01627 0.34423 0.0
H1634 H 0.13901 0.99107 0.33338 0.0
H1635 H 0.16733 0.99801 0.3145 0.0
H1636 H 0.1791 0.9502 0.31593 0.0
H1637 H 0.15087 0.94314 0.33486 0.0
H1638 H 0.18231 0.93582 0.34667 0.0
H1639 H 0.20014 0.9898 0.43313 0.0
H1640 H 0.15753 0.97706 0.4511 0.0
H1641 H 0.12631 0.9639 0.37354 0.0
C1642 C 0.2214 0.98915 0.33345 0.0
C1643 C 0.24683 0.99767 0.34073 0.0
C1644 C 0.25313 1.00253 0.36712 0.0
C1645 C 0.23441 0.99845 0.38615 0.0
C1646 C 0.20946 0.9899 0.37835 0.0
C1647 C 0.20287 0.98563 0.3526 0.0
C1648 C 0.17463 0.977 0.34924 0.0
C1649 C 0.15998 0.99677 0.33447 0.0
C1650 C 0.17156 0.94993 0.33589 0.0
C1651 C 0.16641 0.97663 0.37713 0.0
C1652 C 0.18678 0.98399 0.39366 0.0
C1653 C 0.184 0.98425 0.42035 0.0
C1654 C 0.15974 0.97691 0.43038 0.0
C1655 C 0.13852 0.96966 0.41375 0.0
C1656 C 0.14204 0.96963 0.38679 0.0
H1657 H 0.80317 0.49835 0.29507 0.0
H1658 H 0.74707 0.47349 0.35139 0.0
H1659 H 0.78119 0.47597 0.3851 0.0
H1660 H 0.859 0.46556 0.3217 0.0
H1661 H 0.8815 0.49202 0.31494 0.0
H1662 H 0.85335 0.48518 0.29467 0.0
H1663 H 0.84003 0.53221 0.30283 0.0
H1664 H 0.86796 0.53917 0.32326 0.0
H1665 H 0.83616 0.54463 0.33546 0.0
H1666 H 0.81991 0.48552 0.41329 0.0
H1667 H 0.86131 0.50033 0.43423 0.0
H1668 H 0.89269 0.51889 0.35962 0.0
C1669 C 0.79841 0.49274 0.31437 0.0
C1670 C 0.77284 0.48515 0.32072 0.0
C1671 C 0.76681 0.47874 0.34624 0.0
C1672 C 0.78599 0.48018 0.36544 0.0
C1673 C 0.81104 0.48809 0.35874 0.0
C1674 C 0.81738 0.4941 0.33381 0.0
C1675 C 0.84535 0.50385 0.33219 0.0
C1676 C 0.86071 0.48555 0.31485 0.0
C1677 C 0.84748 0.53161 0.32289 0.0
C1678 C 0.85355 0.50292 0.36018 0.0
C1679 C 0.8335 0.49365 0.37512 0.0
C1680 C 0.83591 0.49245 0.40177 0.0
C1681 C 0.85946 0.50102 0.41349 0.0
C1682 C 0.88029 0.51062 0.39856 0.0
C1683 C 0.87727 0.51131 0.37153 0.0
H1684 H 0.24258 0.22447 0.01388 0.0
H1685 H 0.18821 0.28028 0.99196 0.0
H1686 H 0.15239 0.24702 0.99374 0.0
H1687 H 0.2101 0.16745 0.97917 0.0
H1688 H 0.21707 0.14614 0.00446 0.0
H1689 H 0.23875 0.17359 0.99888 0.0
H1690 H 0.2344 0.18945 0.04657 0.0
H1691 H 0.21257 0.16221 0.05228 0.0
H1692 H 0.20277 0.19453 0.05939 0.0
H1693 H 0.12228 0.20932 1.00164 0.0
H1694 H 0.09951 0.16883 0.01377 0.0
H1695 H 0.17315 0.13672 0.03045 0.0
C1696 C 0.22318 0.22932 0.00881 0.0
C1697 C 0.21805 0.25462 1.0022 0.0
C1698 C 0.19243 0.26076 0.99647 0.0
C1699 C 0.17203 0.24206 0.99754 0.0
C1700 C 0.17758 0.21733 0.00443 0.0
C1701 C 0.20252 0.21082 0.00982 0.0
C1702 C 0.20289 0.18323 0.01817 0.0
C1703 C 0.21811 0.16662 0.99902 0.0
C1704 C 0.2138 0.18231 0.04574 0.0
C1705 C 0.17426 0.17544 0.01705 0.0
C1706 C 0.16006 0.19542 0.00901 0.0
C1707 C 0.13318 0.1934 0.00766 0.0
C1708 C 0.12042 0.17034 0.0147 0.0
C1709 C 0.13451 0.14951 0.02295 0.0
C1710 C 0.16183 0.15214 0.02392 0.0
H1711 H 0.19227 0.78497 0.48563 0.0
H1712 H 0.13497 0.72598 0.50648 0.0
H1713 H 0.1004 0.75672 0.50145 0.0
H1714 H 0.16262 0.83816 0.5197 0.0
H1715 H 0.17119 0.86109 0.49575 0.0
H1716 H 0.19114 0.83432 0.50057 0.0
H1717 H 0.18626 0.82034 0.45218 0.0
H1718 H 0.16631 0.84706 0.44721 0.0
H1719 H 0.1544 0.81462 0.43822 0.0
H1720 H 0.07203 0.79357 0.4921 0.0
H1721 H 0.05224 0.83431 0.48215 0.0
H1722 H 0.12845 0.87026 0.47024 0.0
C1723 C 0.17241 0.77865 0.48912 0.0
C1724 C 0.16608 0.75318 0.49629 0.0
C1725 C 0.14003 0.74546 0.50094 0.0
C1726 C 0.12035 0.76276 0.4981 0.0
C1727 C 0.12715 0.7878 0.49095 0.0
C1728 C 0.1526 0.79582 0.4868 0.0
C1729 C 0.15481 0.82391 0.47985 0.0
C1730 C 0.17089 0.84033 0.50018 0.0
C1731 C 0.16611 0.82663 0.45275 0.0
C1732 C 0.12663 0.83042 0.48049 0.0
C1733 C 0.11097 0.80927 0.48672 0.0
C1734 C 0.08415 0.81031 0.48746 0.0
C1735 C 0.07307 0.83353 0.48173 0.0
C1736 C 0.08876 0.85558 0.47566 0.0
C1737 C 0.11592 0.8539 0.47519 0.0
H1738 H 0.81508 0.69782 0.47335 0.0
H1739 H 0.86796 0.75512 0.5115 0.0
H1740 H 0.90262 0.72407 0.50942 0.0
H1741 H 0.83845 0.64285 0.50576 0.0
H1742 H 0.83411 0.62116 0.47778 0.0
H1743 H 0.81359 0.64789 0.48233 0.0
H1744 H 0.82648 0.66395 0.43746 0.0
H1745 H 0.84703 0.63729 0.43277 0.0
H1746 H 0.86017 0.66992 0.43022 0.0
H1747 H 0.93198 0.68775 0.50071 0.0
H1748 H 0.95344 0.64762 0.48886 0.0
H1749 H 0.88068 0.61285 0.45888 0.0
C1750 C 0.83399 0.70374 0.48125 0.0
C1751 C 0.83902 0.72881 0.49248 0.0
C1752 C 0.86382 0.73592 0.50291 0.0
C1753 C 0.88357 0.71847 0.50174 0.0
C1754 C 0.87802 0.69389 0.49044 0.0
C1755 C 0.85377 0.68641 0.48065 0.0
C1756 C 0.85279 0.65876 0.46984 0.0
C1757 C 0.8336 0.64166 0.48483 0.0
C1758 C 0.84624 0.65741 0.44085 0.0
C1759 C 0.8804 0.65196 0.47473 0.0
C1760 C 0.89467 0.67257 0.48647 0.0
C1761 C 0.92094 0.67139 0.49179 0.0
C1762 C 0.93297 0.64856 0.48492 0.0
C1763 C 0.91867 0.62708 0.47317 0.0
C1764 C 0.89199 0.62882 0.46822 0.0
H1765 H 0.28883 0.7902 0.51278 0.0
H1766 H 0.34187 0.72992 0.49691 0.0
H1767 H 0.37881 0.76203 0.50107 0.0
H1768 H 0.32537 0.84168 0.47949 0.0
H1769 H 0.3178 0.86627 0.50344 0.0
H1770 H 0.29548 0.83889 0.49691 0.0
H1771 H 0.29642 0.82865 0.54527 0.0
H1772 H 0.31889 0.85582 0.55194 0.0
H1773 H 0.32694 0.82405 0.56082 0.0
H1774 H 0.40981 0.79966 0.51022 0.0
H1775 H 0.43327 0.84106 0.52238 0.0
H1776 H 0.36011 0.87723 0.53225 0.0
C1777 C 0.30823 0.78405 0.50963 0.0
C1778 C 0.31273 0.75789 0.5041 0.0
C1779 C 0.33826 0.75008 0.50073 0.0
C1780 C 0.35926 0.76811 0.50312 0.0
C1781 C 0.35432 0.7938 0.50892 0.0
C1782 C 0.32946 0.80184 0.51198 0.0
C1783 C 0.32965 0.83038 0.51942 0.0
C1784 C 0.31629 0.84518 0.49857 0.0
C1785 C 0.31725 0.83498 0.54594 0.0
C1786 C 0.35846 0.83697 0.52043 0.0
C1787 C 0.37232 0.8156 0.51425 0.0
C1788 C 0.39921 0.81663 0.51485 0.0
C1789 C 0.41235 0.84021 0.52188 0.0
C1790 C 0.39856 0.86242 0.52817 0.0
C1791 C 0.37124 0.86068 0.52732 0.0
H1792 H 0.54032 0.67932 0.76508 0.0
H1793 H 0.50844 0.74036 0.72268 0.0
H1794 H 0.50976 0.713 0.68234 0.0
H1795 H 0.58457 0.65927 0.71662 0.0
H1796 H 0.5805 0.62539 0.7227 0.0
H1797 H 0.57579 0.64921 0.74829 0.0
H1798 H 0.52981 0.62904 0.7557 0.0
H1799 H 0.53435 0.60515 0.73011 0.0
H1800 H 0.50714 0.62529 0.72912 0.0
H1801 H 0.51613 0.67998 0.64683 0.0
H1802 H 0.52682 0.64356 0.61777 0.0
H1803 H 0.55518 0.60327 0.68293 0.0
C1804 C 0.53361 0.68679 0.74722 0.0
C1805 C 0.52452 0.71194 0.74667 0.0
C1806 C 0.51561 0.72117 0.72323 0.0
C1807 C 0.51628 0.70578 0.70035 0.0
C1808 C 0.52579 0.68119 0.70139 0.0
C1809 C 0.53426 0.6717 0.7242 0.0
C1810 C 0.54421 0.64488 0.71984 0.0
C1811 C 0.57298 0.64469 0.7273 0.0
C1812 C 0.5279 0.62491 0.73457 0.0
C1813 C 0.5402 0.64083 0.69094 0.0
C1814 C 0.52947 0.66202 0.68079 0.0
C1815 C 0.52445 0.66325 0.65456 0.0
C1816 C 0.53069 0.64239 0.63819 0.0
C1817 C 0.54191 0.62042 0.64797 0.0
C1818 C 0.54651 0.61964 0.67482 0.0
H1819 H 0.49062 0.8214 0.71751 0.0
H1820 H 0.53931 0.87843 0.76127 0.0
H1821 H 0.5352 0.90903 0.7264 0.0
H1822 H 0.51628 0.83624 0.65488 0.0
H1823 H 0.4855 0.83078 0.63859 0.0
H1824 H 0.4923 0.81358 0.66701 0.0
H1825 H 0.45125 0.83055 0.68862 0.0
H1826 H 0.44433 0.84778 0.66028 0.0
H1827 H 0.44717 0.86483 0.69128 0.0
H1828 H 0.52373 0.93413 0.6875 0.0
H1829 H 0.50821 0.95076 0.6466 0.0
H1830 H 0.46898 0.87637 0.62732 0.0
C1831 C 0.50036 0.84036 0.71974 0.0
C1832 C 0.51519 0.84765 0.74212 0.0
C1833 C 0.52796 0.87247 0.74422 0.0
C1834 C 0.52565 0.88997 0.72457 0.0
C1835 C 0.5108 0.88222 0.70278 0.0
C1836 C 0.49859 0.85789 0.70015 0.0
C1837 C 0.48411 0.85416 0.67467 0.0
C1838 C 0.49522 0.8324 0.65779 0.0
C1839 C 0.45499 0.84903 0.67898 0.0
C1840 C 0.48979 0.88028 0.66347 0.0
C1841 C 0.50508 0.89626 0.68003 0.0
C1842 C 0.51198 0.92168 0.67428 0.0
C1843 C 0.50302 0.93098 0.65103 0.0
C1844 C 0.48758 0.91483 0.63362 0.0
C1845 C 0.48107 0.8891 0.64 0.0
H1846 H 0.52967 0.31916 0.81039 0.0
H1847 H 0.49313 0.37058 0.75961 0.0
H1848 H 0.4959 0.40528 0.79414 0.0
H1849 H 0.49806 0.34163 0.86927 0.0
H1850 H 0.52625 0.33805 0.88905 0.0
H1851 H 0.52038 0.3173 0.86063 0.0
H1852 H 0.56562 0.33115 0.84344 0.0
H1853 H 0.57162 0.35193 0.87177 0.0
H1854 H 0.57416 0.36497 0.84026 0.0
H1855 H 0.5063 0.43513 0.83312 0.0
H1856 H 0.5208 0.45708 0.87443 0.0
H1857 H 0.54812 0.38488 0.90009 0.0
C1858 C 0.52213 0.33771 0.80668 0.0
C1859 C 0.51128 0.34244 0.78252 0.0
C1860 C 0.50139 0.36675 0.77818 0.0
C1861 C 0.50294 0.38648 0.7976 0.0
C1862 C 0.51401 0.38128 0.82124 0.0
C1863 C 0.52313 0.35738 0.82593 0.0
C1864 C 0.53436 0.35672 0.85281 0.0
C1865 C 0.51883 0.33727 0.86889 0.0
C1866 C 0.56314 0.35086 0.852 0.0
C1867 C 0.53069 0.38418 0.86238 0.0
C1868 C 0.519 0.3981 0.84392 0.0
C1869 C 0.51511 0.42433 0.84787 0.0
C1870 C 0.52346 0.43663 0.87131 0.0
C1871 C 0.5353 0.42259 0.8905 0.0
C1872 C 0.53868 0.39599 0.88598 0.0
H1873 H 0.51124 0.21685 0.79981 0.0
H1874 H 0.49418 0.16474 0.73368 0.0
H1875 H 0.49048 0.12778 0.76225 0.0
H1876 H 0.54962 0.17336 0.83497 0.0
H1877 H 0.53756 0.18358 0.86603 0.0
H1878 H 0.53926 0.20575 0.84032 0.0
H1879 H 0.49047 0.21314 0.84523 0.0
H1880 H 0.48865 0.1911 0.87101 0.0
H1881 H 0.46748 0.18579 0.84336 0.0
H1882 H 0.4876 0.09669 0.79835 0.0
H1883 H 0.48524 0.07396 0.83917 0.0
H1884 H 0.50475 0.14645 0.88168 0.0
C1885 C 0.50673 0.19761 0.7915 0.0
C1886 C 0.50275 0.19346 0.76472 0.0
C1887 C 0.49705 0.16813 0.75427 0.0
C1888 C 0.49501 0.14709 0.7703 0.0
C1889 C 0.4989 0.15174 0.79673 0.0
C1890 C 0.50465 0.17637 0.80727 0.0
C1891 C 0.50757 0.17612 0.8363 0.0
C1892 C 0.53514 0.18524 0.84491 0.0
C1893 C 0.48733 0.19251 0.84976 0.0
C1894 C 0.50233 0.14761 0.84046 0.0
C1895 C 0.49746 0.13383 0.81741 0.0
C1896 C 0.49152 0.10727 0.81652 0.0
C1897 C 0.49025 0.0945 0.83982 0.0
C1898 C 0.4949 0.10829 0.86372 0.0
C1899 C 0.50126 0.13519 0.86382 0.0
H1900 H 0.72573 0.52795 0.73198 0.0
H1901 H 0.7803 0.5 0.67594 0.0
H1902 H 0.74719 0.50083 0.6415 0.0
H1903 H 0.66833 0.49282 0.7042 0.0
H1904 H 0.64745 0.51893 0.71082 0.0
H1905 H 0.67506 0.51513 0.73133 0.0
H1906 H 0.69163 0.56202 0.72337 0.0
H1907 H 0.66412 0.56596 0.70281 0.0
H1908 H 0.69634 0.57176 0.69079 0.0
H1909 H 0.70907 0.50579 0.61314 0.0
H1910 H 0.66804 0.51466 0.59203 0.0
H1911 H 0.63738 0.53984 0.66606 0.0
C1912 C 0.73043 0.52173 0.71248 0.0
C1913 C 0.75529 0.51346 0.70651 0.0
C1914 C 0.76116 0.50595 0.68079 0.0
C1915 C 0.74254 0.50644 0.66117 0.0
C1916 C 0.71816 0.51463 0.66757 0.0
C1917 C 0.712 0.52216 0.69255 0.0
C1918 C 0.68451 0.53083 0.69391 0.0
C1919 C 0.66785 0.51338 0.71108 0.0
C1920 C 0.68414 0.55934 0.70327 0.0
C1921 C 0.6763 0.52711 0.66579 0.0
C1922 C 0.69605 0.5177 0.65102 0.0
C1923 C 0.69341 0.51307 0.6245 0.0
C1924 C 0.66997 0.51821 0.61268 0.0
C1925 C 0.64934 0.52793 0.62731 0.0
C1926 C 0.65265 0.53232 0.65429 0.0
H1927 H 0.26119 0.96858 0.66891 0.0
H1928 H 0.30275 0.0064 0.73405 0.0
H1929 H 0.34321 0.00683 0.70892 0.0
H1930 H 0.31241 0.92738 0.64828 0.0
H1931 H 0.30553 0.92989 0.61444 0.0
H1932 H 0.28002 0.93262 0.63759 0.0
H1933 H 0.26972 0.97695 0.62023 0.0
H1934 H 0.29538 0.97449 0.59719 0.0
H1935 H 0.29497 1.00217 0.6194 0.0
H1936 H 0.3785 0.00366 0.67694 0.0
H1937 H 0.40773 0.99532 0.64095 0.0
H1938 H 0.3438 0.95847 0.59595 0.0
C1939 C 0.27897 0.97654 0.6779 0.0
C1940 C 0.27921 0.98702 0.70351 0.0
C1941 C 0.30248 0.99796 0.71457 0.0
C1942 C 0.32541 0.99837 0.70042 0.0
C1943 C 0.32461 0.98782 0.67523 0.0
C1944 C 0.30208 0.97695 0.66407 0.0
C1945 C 0.30666 0.96679 0.6367 0.0
C1946 C 0.30081 0.93743 0.63411 0.0
C1947 C 0.29073 0.98095 0.61723 0.0
C1948 C 0.33534 0.97362 0.63422 0.0
C1949 C 0.34517 0.98587 0.65667 0.0
C1950 C 0.37106 0.99402 0.65929 0.0
C1951 C 0.38752 0.98916 0.63863 0.0
C1952 C 0.37818 0.97613 0.6155 0.0
C1953 C 0.35158 0.96855 0.61325 0.0
H1954 H 0.72922 0.49637 0.82697 0.0
H1955 H 0.78107 0.54446 0.87701 0.0
H1956 H 0.74741 0.54535 0.91065 0.0
H1957 H 0.6706 0.52807 0.84523 0.0
H1958 H 0.65075 0.49845 0.84315 0.0
H1959 H 0.67874 0.50213 0.82303 0.0
H1960 H 0.69653 0.46061 0.84071 0.0
H1961 H 0.6686 0.45678 0.86081 0.0
H1962 H 0.70052 0.45818 0.87501 0.0
H1963 H 0.70921 0.53806 0.93978 0.0
H1964 H 0.66848 0.52532 0.96143 0.0
H1965 H 0.64071 0.48432 0.89112 0.0
C1966 C 0.7334 0.50711 0.84503 0.0
C1967 C 0.75767 0.52023 0.84962 0.0
C1968 C 0.7625 0.53435 0.87325 0.0
C1969 C 0.74355 0.53492 0.8924 0.0
C1970 C 0.71981 0.52164 0.88733 0.0
C1971 C 0.71459 0.50823 0.86411 0.0
C1972 C 0.68759 0.49556 0.86345 0.0
C1973 C 0.67094 0.50673 0.84247 0.0
C1974 C 0.68837 0.46604 0.85979 0.0
C1975 C 0.67857 0.50346 0.89015 0.0
C1976 C 0.69745 0.51842 0.90366 0.0
C1977 C 0.69415 0.52668 0.92926 0.0
C1978 C 0.671 0.51931 0.9414 0.0
C1979 C 0.65137 0.50411 0.92784 0.0
C1980 C 0.65516 0.49639 0.90179 0.0
H1981 H 0.31215 0.01205 0.81565 0.0
H1982 H 0.25518 0.99328 0.87335 0.0
H1983 H 0.28893 1.00001 0.90761 0.0
H1984 H 0.36556 0.98074 0.84584 0.0
H1985 H 0.38918 0.00514 0.83631 0.0
H1986 H 0.36069 0.99758 0.81674 0.0
H1987 H 0.34961 0.04573 0.81991 0.0
H1988 H 0.37796 0.05342 0.83954 0.0
H1989 H 0.34668 0.06173 0.85121 0.0
H1990 H 0.32846 0.01272 0.93542 0.0
H1991 H 0.37106 0.02732 0.95437 0.0
H1992 H 0.40182 0.03528 0.87749 0.0
C1993 C 0.30698 0.0091 0.83551 0.0
C1994 C 0.28139 1.00222 0.84218 0.0
C1995 C 0.27492 0.99845 0.86816 0.0
C1996 C 0.29388 1.00226 0.88761 0.0
C1997 C 0.31906 0.00938 0.88046 0.0
C1998 C 0.32565 0.01241 0.85497 0.0
C1999 C 0.35385 0.0205 0.85225 0.0
C2000 C 0.36816 0.99975 0.83688 0.0
C2001 C 0.3572 0.04691 0.84001 0.0
C2002 C 0.36206 0.02215 0.88024 0.0
C2003 C 0.3418 0.01575 0.89628 0.0
C2004 C 0.34457 0.01739 0.92303 0.0
C2005 C 0.36875 0.02579 0.93361 0.0
C2006 C 0.38974 0.03216 0.91737 0.0
C2007 C 0.38627 0.03011 0.89039 0.0
H2008 H 0.66816 0.73767 0.52005 0.0
H2009 H 0.73326 0.69875 0.48802 0.0
H2010 H 0.70961 0.65642 0.49273 0.0
H2011 H 0.65343 0.69275 0.56803 0.0
H2012 H 0.61891 0.69496 0.56562 0.0
H2013 H 0.64012 0.722 0.55773 0.0
H2014 H 0.61851 0.72237 0.51261 0.0
H2015 H 0.59727 0.69522 0.5203 0.0
H2016 H 0.61712 0.69342 0.492 0.0
H2017 H 0.68019 0.61883 0.50325 0.0
H2018 H 0.64753 0.58777 0.51967 0.0
H2019 H 0.60119 0.65097 0.54569 0.0
C2020 C 0.67729 0.72014 0.51402 0.0
C2021 C 0.70255 0.72114 0.50398 0.0
C2022 C 0.71398 0.6981 0.49594 0.0
C2023 C 0.70067 0.67411 0.49847 0.0
C2024 C 0.67594 0.67369 0.50891 0.0
C2025 C 0.66434 0.69607 0.51658 0.0
C2026 C 0.63815 0.69019 0.52842 0.0
C2027 C 0.63763 0.70059 0.55662 0.0
C2028 C 0.61648 0.70094 0.51237 0.0
C2029 C 0.63697 0.66093 0.5266 0.0
C2030 C 0.6589 0.65189 0.51507 0.0
C2031 C 0.66287 0.62566 0.51214 0.0
C2032 C 0.64418 0.60817 0.52161 0.0
C2033 C 0.62174 0.61691 0.53397 0.0
C2034 C 0.61794 0.64368 0.53607 0.0
H2035 H 0.66407 0.26979 0.99766 0.0
H2036 H 0.7366 0.30092 0.96793 0.0
H2037 H 0.71827 0.34365 0.96516 0.0
H2038 H 0.62314 0.30592 0.95633 0.0
H2039 H 0.599 0.31088 0.98058 0.0
H2040 H 0.61783 0.28271 0.98078 0.0
H2041 H 0.63221 0.29482 0.02784 0.0
H2042 H 0.61352 0.32309 0.02774 0.0
H2043 H 0.64752 0.32625 0.03555 0.0
H2044 H 0.69346 0.38302 0.96756 0.0
H2045 H 0.66195 0.4167 0.97067 0.0
H2046 H 0.60345 0.36049 0.99576 0.0
C2047 C 0.67592 0.28568 0.9905 0.0
C2048 C 0.70171 0.28224 0.98295 0.0
C2049 C 0.71676 0.30327 0.9736 0.0
C2050 C 0.70656 0.32758 0.97208 0.0
C2051 C 0.68113 0.33046 0.97966 0.0
C2052 C 0.6658 0.3101 0.98833 0.0
C2053 C 0.6388 0.31855 0.99445 0.0
C2054 C 0.61849 0.30363 0.97699 0.0
C2055 C 0.63266 0.3155 0.0231 0.0
C2056 C 0.6415 0.34686 0.98808 0.0
C2057 C 0.66623 0.35324 0.9799 0.0
C2058 C 0.67396 0.37825 0.97374 0.0
C2059 C 0.6559 0.39729 0.97571 0.0
C2060 C 0.63019 0.39129 0.98343 0.0
C2061 C 0.6229 0.36564 0.98965 0.0
H2062 H 0.3397 0.22671 0.01388 0.0
H2063 H 0.39147 0.28773 0.98673 0.0
H2064 H 0.42515 0.25635 0.97893 0.0
H2065 H 0.38899 0.18917 0.04463 0.0
H2066 H 0.37348 0.15852 0.03419 0.0
H2067 H 0.35441 0.18614 0.04019 0.0
H2068 H 0.33512 0.18018 0.99401 0.0
H2069 H 0.35417 0.15263 0.98785 0.0
H2070 H 0.35652 0.17933 0.96683 0.0
H2071 H 0.45205 0.2186 0.97207 0.0
H2072 H 0.47059 0.17644 0.96469 0.0
H2073 H 0.40101 0.13856 0.99461 0.0
C2074 C 0.35836 0.23342 0.0068 0.0
C2075 C 0.3633 0.25959 1.00116 0.0
C2076 C 0.38756 0.26775 0.99127 0.0
C2077 C 0.40674 0.2501 0.98687 0.0
C2078 C 0.40122 0.22433 0.99226 0.0
C2079 C 0.37763 0.21592 1.00192 0.0
C2080 C 0.37613 0.18682 0.00422 0.0
C2081 C 0.37308 0.17975 0.03249 0.0
C2082 C 0.35418 0.17399 0.98721 0.0
C2083 C 0.40244 0.18018 0.99402 0.0
C2084 C 0.41662 0.20222 0.98755 0.0
C2085 C 0.4412 0.20121 0.97718 0.0
C2086 C 0.45154 0.17705 0.97303 0.0
C2087 C 0.43731 0.15401 0.97904 0.0
C2088 C 0.41246 0.15573 0.98992 0.0
H2089 H 0.85837 0.2659 0.00688 0.0
H2090 H 0.79393 0.29771 0.96795 0.0
H2091 H 0.81974 0.33894 0.96382 0.0
H2092 H 0.87577 0.32175 0.04486 0.0
H2093 H 0.91005 0.31755 0.04375 0.0
H2094 H 0.88768 0.28988 0.04045 0.0
H2095 H 0.90861 0.27655 0.99701 0.0
H2096 H 0.9309 0.30442 1.00005 0.0
H2097 H 0.91072 0.29915 0.97167 0.0
H2098 H 0.85083 0.37704 0.96715 0.0
H2099 H 0.88343 0.41122 0.98077 0.0
H2100 H 0.92756 0.35502 0.01893 0.0
C2101 C 0.84984 0.28164 0.99747 0.0
C2102 C 0.82422 0.27914 0.98802 0.0
C2103 C 0.81352 0.29969 0.97549 0.0
C2104 C 0.82808 0.32294 0.9729 0.0
C2105 C 0.85324 0.32501 0.98282 0.0
C2106 C 0.86398 0.30498 0.995 0.0
C2107 C 0.89045 0.31293 0.00611 0.0
C2108 C 0.891 0.31039 0.03553 0.0
C2109 C 0.91141 0.29733 0.99291 0.0
C2110 C 0.89263 0.34088 0.99898 0.0
C2111 C 0.87117 0.34724 0.98507 0.0
C2112 C 0.86784 0.37227 0.97777 0.0
C2113 C 0.88645 0.39153 0.98566 0.0
C2114 C 0.908 0.3857 1.0009 0.0
C2115 C 0.91153 0.35991 0.00692 0.0
loop_
_geom_bond_atom_site_label_1
_geom_bond_atom_site_label_2
_geom_bond_distance
_geom_bond_site_symmetry_2
_ccdc_geom_bond_type
C0 C1 1.443 . S
C0 N4 1.376 . S
C0 C38 1.389 . S
C1 C0 1.443 . S
C1 C2 1.340 . S
C1 H41 0.951 . S
C2 C1 1.340 . S
C2 C3 1.439 . S
C2 H42 0.950 . S
C3 C2 1.439 . S
C3 N4 1.374 . S
C3 C37 1.395 . S
N4 C0 1.376 . S
N4 C3 1.374 . S
N4 Co5 2.008 1_655 S
Co5 N4 2.008 1_455 S
Co5 N6 1.995 1_455 S
Co5 N11 2.008 . S
Co5 N16 1.995 . S
Co5 N21 2.282 . S
Co5 N27 2.282 1_455 S
N6 Co5 1.995 1_655 S
N6 C7 1.376 . S
N6 C10 1.383 . S
C7 N6 1.376 . S
C7 C8 1.446 . S
C7 C37 1.391 . S
C8 C7 1.446 . S
C8 C9 1.339 . S
C8 H43 0.949 . S
C9 C8 1.339 . S
C9 C10 1.439 . S
C9 H44 0.950 . S
C10 N6 1.383 . S
C10 C9 1.439 . S
C10 C39 1.392 1_655 S
N11 Co5 2.008 . S
N11 C12 1.376 . S
N11 C15 1.374 . S
C12 N11 1.376 . S
C12 C13 1.443 . S
C12 C39 1.389 . S
C13 C12 1.443 . S
C13 C14 1.340 . S
C13 H45 0.951 . S
C14 C13 1.340 . S
C14 C15 1.439 . S
C14 H46 0.950 . S
C15 N11 1.374 . S
C15 C14 1.439 . S
C15 C40 1.395 . S
N16 Co5 1.995 . S
N16 C17 1.376 . S
N16 C20 1.383 . S
C17 N16 1.376 . S
C17 C18 1.446 . S
C17 C40 1.391 . S
C18 C17 1.446 . S
C18 C19 1.339 . S
C18 H47 0.949 . S
C19 C18 1.339 . S
C19 C20 1.439 . S
C19 H48 0.950 . S
C20 N16 1.383 . S
C20 C19 1.439 . S
C20 C38 1.392 1_455 S
N21 Co5 2.282 . S
N21 C24 1.332 . S
N21 C26 1.332 1_455 S
C22 C23 1.386 . S
C22 C25 1.388 1_455 S
C23 C22 1.386 . S
C23 C24 1.382 . S
C23 H49 0.950 . S
C24 N21 1.332 . S
C24 C23 1.382 . S
C24 H35 0.952 . S
C25 C22 1.388 1_655 S
C25 C26 1.382 . S
C25 H50 0.950 . S
C26 N21 1.332 1_655 S
C26 C25 1.382 . S
C26 H36 0.948 . S
N27 Co5 2.282 1_655 S
N27 C31 1.332 . S
N27 C32 1.332 1_655 S
C28 C29 1.388 1_455 S
C28 C32 1.382 . S
C28 H51 0.950 . S
C29 C28 1.388 1_655 S
C29 C30 1.386 . S
C30 C29 1.386 . S
C30 C31 1.382 . S
C30 H52 0.950 . S
C31 N27 1.332 . S
C31 C30 1.382 . S
C31 H33 0.952 . S
C32 N27 1.332 1_455 S
C32 C28 1.382 . S
C32 H34 0.948 . S
H33 C31 0.952 . S
H34 C32 0.948 . S
H35 C24 0.952 . S
H36 C26 0.948 . S
C37 C3 1.395 . S
C37 C7 1.391 . S
C38 C0 1.389 . S
C38 C20 1.392 1_655 S
C39 C10 1.392 1_455 S
C39 C12 1.389 . S
C40 C15 1.395 . S
C40 C17 1.391 . S
H41 C1 0.951 . S
H42 C2 0.950 . S
H43 C8 0.949 . S
H44 C9 0.950 . S
H45 C13 0.951 . S
H46 C14 0.950 . S
H47 C18 0.949 . S
H48 C19 0.950 . S
H49 C23 0.950 . S
H50 C25 0.950 . S
H51 C28 0.950 . S
H52 C30 0.950 . S
C53 C54 1.443 . S
C53 N57 1.376 . S
C53 C91 1.389 1_655 S
C54 C53 1.443 . S
C54 C55 1.340 . S
C54 H94 0.951 . S
C55 C54 1.340 . S
C55 C56 1.439 . S
C55 H95 0.950 . S
C56 C55 1.439 . S
C56 N57 1.374 . S
C56 C90 1.395 . S
N57 C53 1.376 . S
N57 C56 1.374 . S
N57 Co58 2.008 1_655 S
Co58 N57 2.008 1_455 S
Co58 N59 1.985 1_455 S
Co58 N64 2.008 . S
Co58 N69 1.995 . S
Co58 N74 2.282 . S
Co58 N80 2.282 . S
N59 Co58 1.985 1_655 S
N59 C60 1.391 . S
N59 C63 1.379 1_655 S
C60 N59 1.391 . S
C60 C61 1.446 . S
C60 C90 1.391 . S
C61 C60 1.446 . S
C61 C62 1.339 . S
C61 H96 0.949 . S
C62 C61 1.339 . S
C62 C63 1.439 1_655 S
C62 H97 0.950 . S
C63 N59 1.379 1_455 S
C63 C62 1.439 1_455 S
C63 C92 1.392 . S
N64 Co58 2.008 . S
N64 C65 1.376 . S
N64 C68 1.374 . S
C65 N64 1.376 . S
C65 C66 1.443 . S
C65 C92 1.389 . S
C66 C65 1.443 . S
C66 C67 1.340 . S
C66 H98 0.951 . S
C67 C66 1.340 . S
C67 C68 1.439 . S
C67 H99 0.950 . S
C68 N64 1.374 . S
C68 C67 1.439 . S
C68 C93 1.395 . S
N69 Co58 1.995 . S
N69 C70 1.376 . S
N69 C73 1.383 . S
C70 N69 1.376 . S
C70 C71 1.446 . S
C70 C93 1.391 . S
C71 C70 1.446 . S
C71 C72 1.339 . S
C71 H100 0.949 . S
C72 C71 1.339 . S
C72 C73 1.439 . S
C72 H101 0.950 . S
C73 N69 1.383 . S
C73 C72 1.439 . S
C73 C91 1.392 . S
N74 Co58 2.282 . S
N74 C77 1.332 . S
N74 C79 1.332 . S
C75 C76 1.386 . S
C75 C78 1.388 . S
C76 C75 1.386 . S
C76 C77 1.382 . S
C76 H102 0.950 . S
C77 N74 1.332 . S
C77 C76 1.382 . S
C77 H88 0.952 . S
C78 C75 1.388 . S
C78 C79 1.382 . S
C78 H103 0.950 . S
C79 N74 1.332 . S
C79 C78 1.382 . S
C79 H89 0.948 1_455 S
N80 Co58 2.282 . S
N80 C84 1.332 1_455 S
N80 C85 1.332 . S
C81 C82 1.388 . S
C81 C85 1.382 . S
C81 H104 0.950 . S
C82 C81 1.388 . S
C82 C83 1.386 1_455 S
C83 C82 1.386 1_655 S
C83 C84 1.382 . S
C83 H105 0.950 . S
C84 N80 1.332 1_655 S
C84 C83 1.382 . S
C84 H86 0.952 . S
C85 N80 1.332 . S
C85 C81 1.382 . S
C85 H87 0.948 . S
H86 C84 0.952 . S
H87 C85 0.948 . S
H88 C77 0.952 . S
H89 C79 0.948 1_655 S
C90 C56 1.395 . S
C90 C60 1.391 . S
C91 C53 1.389 1_455 S
C91 C73 1.392 . S
C92 C63 1.392 . S
C92 C65 1.389 . S
C93 C68 1.395 . S
C93 C70 1.391 . S
H94 C54 0.951 . S
H95 C55 0.950 . S
H96 C61 0.949 . S
H97 C62 0.950 . S
H98 C66 0.951 . S
H99 C67 0.950 . S
H100 C71 0.949 . S
H101 C72 0.950 . S
H102 C76 0.950 . S
H103 C78 0.950 . S
H104 C81 0.950 . S
H105 C83 0.950 . S
C106 C107 1.443 . S
C106 N110 1.376 . S
C106 C144 1.389 . S
C107 C106 1.443 . S
C107 C108 1.340 . S
C107 H147 0.951 . S
C108 C107 1.340 . S
C108 C109 1.439 . S
C108 H148 0.950 . S
C109 C108 1.439 . S
C109 N110 1.374 . S
C109 C143 1.395 . S
N110 C106 1.376 . S
N110 C109 1.374 . S
N110 Co111 2.008 1_565 S
Co111 N110 2.008 1_545 S
Co111 N112 1.995 1_545 S
Co111 N117 2.008 . S
Co111 N122 1.995 . S
Co111 N127 2.282 . S
Co111 N133 2.278 1_545 S
N112 Co111 1.995 1_565 S
N112 C113 1.376 . S
N112 C116 1.383 . S
C113 N112 1.376 . S
C113 C114 1.446 . S
C113 C143 1.391 . S
C114 C113 1.446 . S
C114 C115 1.339 . S
C114 H149 0.949 . S
C115 C114 1.339 . S
C115 C116 1.439 . S
C115 H150 0.950 . S
C116 N112 1.383 . S
C116 C115 1.439 . S
C116 C145 1.392 1_565 S
N117 Co111 2.008 . S
N117 C118 1.376 . S
N117 C121 1.374 . S
C118 N117 1.376 . S
C118 C119 1.443 . S
C118 C145 1.389 . S
C119 C118 1.443 . S
C119 C120 1.340 . S
C119 H151 0.951 . S
C120 C119 1.340 . S
C120 C121 1.439 . S
C120 H152 0.950 . S
C121 N117 1.374 . S
C121 C120 1.439 . S
C121 C146 1.395 . S
N122 Co111 1.995 . S
N122 C123 1.376 . S
N122 C126 1.383 . S
C123 N122 1.376 . S
C123 C124 1.446 . S
C123 C146 1.391 . S
C124 C123 1.446 . S
C124 C125 1.339 . S
C124 H153 0.949 . S
C125 C124 1.339 . S
C125 C126 1.439 . S
C125 H154 0.950 . S
C126 N122 1.383 . S
C126 C125 1.439 . S
C126 C144 1.392 1_545 S
N127 Co111 2.282 . S
N127 C130 1.332 . S
N127 C132 1.332 1_545 S
C128 C129 1.386 . S
C128 C131 1.388 . S
C129 C128 1.386 . S
C129 C130 1.382 . S
C129 H155 0.950 . S
C130 N127 1.332 . S
C130 C129 1.382 . S
C130 H141 0.952 . S
C131 C128 1.388 . S
C131 C132 1.382 1_545 S
C131 H156 0.950 1_545 S
C132 N127 1.332 1_565 S
C132 C131 1.382 1_565 S
C132 H142 0.948 . S
N133 Co111 2.278 1_565 S
N133 C137 1.360 . S
N133 C138 1.313 1_565 S
C134 C135 1.388 1_545 S
C134 C138 1.382 . S
C134 H157 0.950 . S
C135 C134 1.388 1_565 S
C135 C136 1.386 . S
C136 C135 1.386 . S
C136 C137 1.382 . S
C136 H158 0.950 . S
C137 N133 1.360 . S
C137 C136 1.382 . S
C137 H139 0.952 . S
C138 N133 1.313 1_545 S
C138 C134 1.382 . S
C138 H140 0.948 . S
H139 C137 0.952 . S
H140 C138 0.948 . S
H141 C130 0.952 . S
H142 C132 0.948 . S
C143 C109 1.395 . S
C143 C113 1.391 . S
C144 C106 1.389 . S
C144 C126 1.392 1_565 S
C145 C116 1.392 1_545 S
C145 C118 1.389 . S
C146 C121 1.395 . S
C146 C123 1.391 . S
H147 C107 0.951 . S
H148 C108 0.950 . S
H149 C114 0.949 . S
H150 C115 0.950 . S
H151 C119 0.951 . S
H152 C120 0.950 . S
H153 C124 0.949 . S
H154 C125 0.950 . S
H155 C129 0.950 . S
H156 C131 0.950 1_565 S
H157 C134 0.950 . S
H158 C136 0.950 . S
C159 C160 1.443 . S
C159 N163 1.376 . S
C159 C197 1.389 . S
C160 C159 1.443 . S
C160 C161 1.340 . S
C160 H200 0.951 . S
C161 C160 1.340 . S
C161 C162 1.439 . S
C161 H201 0.950 . S
C162 C161 1.439 . S
C162 N163 1.374 . S
C162 C196 1.395 . S
N163 C159 1.376 . S
N163 C162 1.374 . S
N163 Co164 2.008 . S
Co164 N163 2.008 . S
Co164 N165 1.995 . S
Co164 N170 2.008 . S
Co164 N175 1.995 . S
Co164 N180 2.282 . S
Co164 N186 2.282 . S
N165 Co164 1.995 . S
N165 C166 1.376 . S
N165 C169 1.383 . S
C166 N165 1.376 . S
C166 C167 1.446 . S
C166 C196 1.391 . S
C167 C166 1.446 . S
C167 C168 1.339 . S
C167 H202 0.949 . S
C168 C167 1.339 . S
C168 C169 1.439 . S
C168 H203 0.950 . S
C169 N165 1.383 . S
C169 C168 1.439 . S
C169 C198 1.392 . S
N170 Co164 2.008 . S
N170 C171 1.376 . S
N170 C174 1.374 . S
C171 N170 1.376 . S
C171 C172 1.443 . S
C171 C198 1.389 . S
C172 C171 1.443 . S
C172 C173 1.340 . S
C172 H204 0.951 . S
C173 C172 1.340 . S
C173 C174 1.439 . S
C173 H205 0.950 . S
C174 N170 1.374 . S
C174 C173 1.439 . S
C174 C199 1.395 . S
N175 Co164 1.995 . S
N175 C176 1.376 . S
N175 C179 1.383 . S
C176 N175 1.376 . S
C176 C177 1.446 . S
C176 C199 1.391 . S
C177 C176 1.446 . S
C177 C178 1.339 . S
C177 H206 0.949 . S
C178 C177 1.339 . S
C178 C179 1.439 . S
C178 H207 0.950 . S
C179 N175 1.383 . S
C179 C178 1.439 . S
C179 C197 1.392 . S
N180 Co164 2.282 . S
N180 C183 1.332 . S
N180 C185 1.332 . S
C181 C182 1.386 . S
C181 C184 1.388 . S
C182 C181 1.386 . S
C182 C183 1.382 . S
C182 H208 0.950 . S
C183 N180 1.332 . S
C183 C182 1.382 . S
C183 H194 0.952 . S
C184 C181 1.388 . S
C184 C185 1.382 . S
C184 H209 0.950 . S
C185 N180 1.332 . S
C185 C184 1.382 . S
C185 H195 0.948 . S
N186 Co164 2.282 . S
N186 C190 1.332 . S
N186 C191 1.332 . S
C187 C188 1.388 . S
C187 C191 1.382 . S
C187 H210 0.950 . S
C188 C187 1.388 . S
C188 C189 1.386 . S
C189 C188 1.386 . S
C189 C190 1.382 . S
C189 H211 0.950 . S
C190 N186 1.332 . S
C190 C189 1.382 . S
C190 H192 0.952 . S
C191 N186 1.332 . S
C191 C187 1.382 . S
C191 H193 0.948 . S
H192 C190 0.952 . S
H193 C191 0.948 . S
H194 C183 0.952 . S
H195 C185 0.948 . S
C196 C162 1.395 . S
C196 C166 1.391 . S
C197 C159 1.389 . S
C197 C179 1.392 . S
C198 C169 1.392 . S
C198 C171 1.389 . S
C199 C174 1.395 . S
C199 C176 1.391 . S
H200 C160 0.951 . S
H201 C161 0.950 . S
H202 C167 0.949 . S
H203 C168 0.950 . S
H204 C172 0.951 . S
H205 C173 0.950 . S
H206 C177 0.949 . S
H207 C178 0.950 . S
H208 C182 0.950 . S
H209 C184 0.950 . S
H210 C187 0.950 . S
H211 C189 0.950 . S
C212 C213 1.443 . S
C212 N216 1.376 . S
C212 C250 1.389 1_556 S
C213 C212 1.443 . S
C213 C214 1.340 . S
C213 H253 0.951 . S
C214 C213 1.340 . S
C214 C215 1.439 . S
C214 H254 0.950 . S
C215 C214 1.439 . S
C215 N216 1.374 . S
C215 C249 1.395 . S
N216 C212 1.376 . S
N216 C215 1.374 . S
N216 Co217 2.008 1_556 S
Co217 N216 2.008 1_554 S
Co217 N218 1.995 1_554 S
Co217 N223 2.008 . S
Co217 N228 1.995 . S
Co217 N233 2.282 . S
Co217 N239 2.282 . S
N218 Co217 1.995 1_556 S
N218 C219 1.376 . S
N218 C222 1.383 1_556 S
C219 N218 1.376 . S
C219 C220 1.446 . S
C219 C249 1.391 . S
C220 C219 1.446 . S
C220 C221 1.339 . S
C220 H255 0.949 . S
C221 C220 1.339 . S
C221 C222 1.439 1_556 S
C221 H256 0.950 . S
C222 N218 1.383 1_554 S
C222 C221 1.439 1_554 S
C222 C251 1.392 . S
N223 Co217 2.008 . S
N223 C224 1.376 . S
N223 C227 1.374 . S
C224 N223 1.376 . S
C224 C225 1.443 . S
C224 C251 1.389 . S
C225 C224 1.443 . S
C225 C226 1.340 . S
C225 H257 0.951 . S
C226 C225 1.340 . S
C226 C227 1.439 . S
C226 H258 0.950 . S
C227 N223 1.374 . S
C227 C226 1.439 . S
C227 C252 1.395 . S
N228 Co217 1.995 . S
N228 C229 1.376 . S
N228 C232 1.383 . S
C229 N228 1.376 . S
C229 C230 1.446 . S
C229 C252 1.391 . S
C230 C229 1.446 . S
C230 C231 1.339 . S
C230 H259 0.949 . S
C231 C230 1.339 . S
C231 C232 1.439 . S
C231 H260 0.950 . S
C232 N228 1.383 . S
C232 C231 1.439 . S
C232 C250 1.392 . S
N233 Co217 2.282 . S
N233 C236 1.332 . S
N233 C238 1.332 . S
C234 C235 1.386 . S
C234 C237 1.388 . S
C235 C234 1.386 . S
C235 C236 1.382 . S
C235 H261 0.950 . S
C236 N233 1.332 . S
C236 C235 1.382 . S
C236 H247 0.952 . S
C237 C234 1.388 . S
C237 C238 1.382 . S
C237 H262 0.942 1_554 S
C238 N233 1.332 . S
C238 C237 1.382 . S
C238 H248 0.948 1_554 S
N239 Co217 2.282 . S
N239 C243 1.332 1_554 S
N239 C244 1.332 . S
C240 C241 1.388 . S
C240 C244 1.382 . S
C240 H263 0.950 . S
C241 C240 1.388 . S
C241 C242 1.386 1_554 S
C242 C241 1.386 1_556 S
C242 C243 1.382 . S
C242 H264 0.950 . S
C243 N239 1.332 1_556 S
C243 C242 1.382 . S
C243 H245 0.952 . S
C244 N239 1.332 . S
C244 C240 1.382 . S
C244 H246 0.948 . S
H245 C243 0.952 . S
H246 C244 0.948 . S
H247 C236 0.952 . S
H248 C238 0.948 1_556 S
C249 C215 1.395 . S
C249 C219 1.391 . S
C250 C212 1.389 1_554 S
C250 C232 1.392 . S
C251 C222 1.392 . S
C251 C224 1.389 . S
C252 C227 1.395 . S
C252 C229 1.391 . S
H253 C213 0.951 . S
H254 C214 0.950 . S
H255 C220 0.949 . S
H256 C221 0.950 . S
H257 C225 0.951 . S
H258 C226 0.950 . S
H259 C230 0.949 . S
H260 C231 0.950 . S
H261 C235 0.950 . S
H262 C237 0.942 1_556 S
H263 C240 0.950 . S
H264 C242 0.950 . S
C265 C266 1.443 . S
C265 N269 1.376 . S
C265 C303 1.389 . S
C266 C265 1.443 . S
C266 C267 1.340 . S
C266 H306 0.951 . S
C267 C266 1.340 . S
C267 C268 1.439 . S
C267 H307 0.950 . S
C268 C267 1.439 . S
C268 N269 1.374 . S
C268 C302 1.395 . S
N269 C265 1.376 . S
N269 C268 1.374 . S
N269 Co270 2.008 . S
Co270 N269 2.008 . S
Co270 N271 1.995 . S
Co270 N276 2.008 . S
Co270 N281 1.995 . S
Co270 N286 2.282 . S
Co270 N292 2.282 . S
N271 Co270 1.995 . S
N271 C272 1.376 . S
N271 C275 1.383 . S
C272 N271 1.376 . S
C272 C273 1.446 . S
C272 C302 1.391 . S
C273 C272 1.446 . S
C273 C274 1.339 . S
C273 H308 0.949 . S
C274 C273 1.339 . S
C274 C275 1.439 . S
C274 H309 0.950 . S
C275 N271 1.383 . S
C275 C274 1.439 . S
C275 C304 1.392 . S
N276 Co270 2.008 . S
N276 C277 1.376 . S
N276 C280 1.374 . S
C277 N276 1.376 . S
C277 C278 1.443 . S
C277 C304 1.389 . S
C278 C277 1.443 . S
C278 C279 1.340 . S
C278 H310 0.951 . S
C279 C278 1.340 . S
C279 C280 1.439 . S
C279 H311 0.950 . S
C280 N276 1.374 . S
C280 C279 1.439 . S
C280 C305 1.395 . S
N281 Co270 1.995 . S
N281 C282 1.376 . S
N281 C285 1.383 . S
C282 N281 1.376 . S
C282 C283 1.446 . S
C282 C305 1.391 . S
C283 C282 1.446 . S
C283 C284 1.339 . S
C283 H312 0.949 . S
C284 C283 1.339 . S
C284 C285 1.439 . S
C284 H313 0.950 . S
C285 N281 1.383 . S
C285 C284 1.439 . S
C285 C303 1.392 . S
N286 Co270 2.282 . S
N286 C289 1.332 . S
N286 C291 1.332 . S
C287 C288 1.386 . S
C287 C290 1.388 . S
C288 C287 1.386 . S
C288 C289 1.382 . S
C288 H314 0.950 . S
C289 N286 1.332 . S
C289 C288 1.382 . S
C289 H300 0.952 . S
C290 C287 1.388 . S
C290 C291 1.382 . S
C290 H315 0.950 . S
C291 N286 1.332 . S
C291 C290 1.382 . S
C291 H301 0.948 . S
N292 Co270 2.282 . S
N292 C296 1.332 . S
N292 C297 1.332 . S
C293 C294 1.388 . S
C293 C297 1.382 . S
C293 H316 0.950 . S
C294 C293 1.388 . S
C294 C295 1.386 . S
C295 C294 1.386 . S
C295 C296 1.382 . S
C295 H317 0.950 . S
C296 N292 1.332 . S
C296 C295 1.382 . S
C296 H298 0.952 . S
C297 N292 1.332 . S
C297 C293 1.382 . S
C297 H299 0.948 . S
H298 C296 0.952 . S
H299 C297 0.948 . S
H300 C289 0.952 . S
H301 C291 0.948 . S
C302 C268 1.395 . S
C302 C272 1.391 . S
C303 C265 1.389 . S
C303 C285 1.392 . S
C304 C275 1.392 . S
C304 C277 1.389 . S
C305 C280 1.395 . S
C305 C282 1.391 . S
H306 C266 0.951 . S
H307 C267 0.950 . S
H308 C273 0.949 . S
H309 C274 0.950 . S
H310 C278 0.951 . S
H311 C279 0.950 . S
H312 C283 0.949 . S
H313 C284 0.950 . S
H314 C288 0.950 . S
H315 C290 0.950 . S
H316 C293 0.950 . S
H317 C295 0.950 . S
C318 C319 1.443 . S
C318 N322 1.376 . S
C318 C356 1.389 . S
C319 C318 1.443 . S
C319 C320 1.340 . S
C319 H359 0.951 . S
C320 C319 1.340 . S
C320 C321 1.439 . S
C320 H360 0.950 . S
C321 C320 1.439 . S
C321 N322 1.374 . S
C321 C355 1.395 . S
N322 C318 1.376 . S
N322 C321 1.374 . S
N322 Co323 2.008 . S
Co323 N322 2.008 . S
Co323 N324 1.995 . S
Co323 N329 2.008 . S
Co323 N334 1.995 . S
Co323 N339 2.282 . S
Co323 N345 2.282 . S
N324 Co323 1.995 . S
N324 C325 1.376 . S
N324 C328 1.383 . S
C325 N324 1.376 . S
C325 C326 1.446 . S
C325 C355 1.391 . S
C326 C325 1.446 . S
C326 C327 1.339 . S
C326 H361 0.949 . S
C327 C326 1.339 . S
C327 C328 1.439 . S
C327 H362 0.950 . S
C328 N324 1.383 . S
C328 C327 1.439 . S
C328 C357 1.392 . S
N329 Co323 2.008 . S
N329 C330 1.376 . S
N329 C333 1.374 . S
C330 N329 1.376 . S
C330 C331 1.443 . S
C330 C357 1.389 . S
C331 C330 1.443 . S
C331 C332 1.340 . S
C331 H363 0.951 . S
C332 C331 1.340 . S
C332 C333 1.439 . S
C332 H364 0.950 . S
C333 N329 1.374 . S
C333 C332 1.439 . S
C333 C358 1.395 . S
N334 Co323 1.995 . S
N334 C335 1.376 . S
N334 C338 1.383 . S
C335 N334 1.376 . S
C335 C336 1.446 . S
C335 C358 1.391 . S
C336 C335 1.446 . S
C336 C337 1.339 . S
C336 H365 0.949 . S
C337 C336 1.339 . S
C337 C338 1.439 . S
C337 H366 0.950 . S
C338 N334 1.383 . S
C338 C337 1.439 . S
C338 C356 1.392 . S
N339 Co323 2.282 . S
N339 C342 1.332 . S
N339 C344 1.332 . S
C340 C341 1.386 . S
C340 C343 1.388 . S
C341 C340 1.386 . S
C341 C342 1.382 . S
C341 H367 0.950 . S
C342 N339 1.332 . S
C342 C341 1.382 . S
C342 H353 0.952 . S
C343 C340 1.388 . S
C343 C344 1.382 . S
C343 H368 0.950 . S
C344 N339 1.332 . S
C344 C343 1.382 . S
C344 H354 0.948 . S
N345 Co323 2.282 . S
N345 C349 1.332 . S
N345 C350 1.332 . S
C346 C347 1.388 . S
C346 C350 1.382 . S
C346 H369 0.950 . S
C347 C346 1.388 . S
C347 C348 1.386 . S
C348 C347 1.386 . S
C348 C349 1.382 . S
C348 H370 0.950 . S
C349 N345 1.332 . S
C349 C348 1.382 . S
C349 H351 0.952 . S
C350 N345 1.332 . S
C350 C346 1.382 . S
C350 H352 0.948 . S
H351 C349 0.952 . S
H352 C350 0.948 . S
H353 C342 0.952 . S
H354 C344 0.948 . S
C355 C321 1.395 . S
C355 C325 1.391 . S
C356 C318 1.389 . S
C356 C338 1.392 . S
C357 C328 1.392 . S
C357 C330 1.389 . S
C358 C333 1.395 . S
C358 C335 1.391 . S
H359 C319 0.951 . S
H360 C320 0.950 . S
H361 C326 0.949 . S
H362 C327 0.950 . S
H363 C331 0.951 . S
H364 C332 0.950 . S
H365 C336 0.949 . S
H366 C337 0.950 . S
H367 C341 0.950 . S
H368 C343 0.950 . S
H369 C346 0.950 . S
H370 C348 0.950 . S
C371 C372 1.443 . S
C371 N375 1.376 . S
C371 C409 1.389 . S
C372 C371 1.443 . S
C372 C373 1.340 . S
C372 H412 0.951 . S
C373 C372 1.340 . S
C373 C374 1.439 . S
C373 H413 0.950 . S
C374 C373 1.439 . S
C374 N375 1.374 . S
C374 C408 1.395 . S
N375 C371 1.376 . S
N375 C374 1.374 . S
N375 Co376 2.008 . S
Co376 N375 2.008 . S
Co376 N377 1.995 . S
Co376 N382 2.008 . S
Co376 N387 1.995 . S
Co376 N392 2.282 . S
Co376 N398 2.282 . S
N377 Co376 1.995 . S
N377 C378 1.376 . S
N377 C381 1.383 . S
C378 N377 1.376 . S
C378 C379 1.446 . S
C378 C408 1.391 . S
C379 C378 1.446 . S
C379 C380 1.339 . S
C379 H414 0.949 . S
C380 C379 1.339 . S
C380 C381 1.439 . S
C380 H415 0.950 . S
C381 N377 1.383 . S
C381 C380 1.439 . S
C381 C410 1.392 . S
N382 Co376 2.008 . S
N382 C383 1.376 . S
N382 C386 1.374 . S
C383 N382 1.376 . S
C383 C384 1.443 . S
C383 C410 1.389 . S
C384 C383 1.443 . S
C384 C385 1.340 . S
C384 H416 0.951 . S
C385 C384 1.340 . S
C385 C386 1.439 . S
C385 H417 0.950 . S
C386 N382 1.374 . S
C386 C385 1.439 . S
C386 C411 1.395 . S
N387 Co376 1.995 . S
N387 C388 1.376 . S
N387 C391 1.383 . S
C388 N387 1.376 . S
C388 C389 1.446 . S
C388 C411 1.391 . S
C389 C388 1.446 . S
C389 C390 1.339 . S
C389 H418 0.949 . S
C390 C389 1.339 . S
C390 C391 1.439 . S
C390 H419 0.950 . S
C391 N387 1.383 . S
C391 C390 1.439 . S
C391 C409 1.392 . S
N392 Co376 2.282 . S
N392 C395 1.332 . S
N392 C397 1.332 . S
C393 C394 1.386 . S
C393 C396 1.388 . S
C394 C393 1.386 . S
C394 C395 1.382 . S
C394 H420 0.950 . S
C395 N392 1.332 . S
C395 C394 1.382 . S
C395 H406 0.952 . S
C396 C393 1.388 . S
C396 C397 1.382 . S
C396 H421 0.950 . S
C397 N392 1.332 . S
C397 C396 1.382 . S
C397 H407 0.948 . S
N398 Co376 2.282 . S
N398 C402 1.332 . S
N398 C403 1.332 . S
C399 C400 1.388 . S
C399 C403 1.382 . S
C399 H422 0.950 . S
C400 C399 1.388 . S
C400 C401 1.386 . S
C401 C400 1.386 . S
C401 C402 1.382 . S
C401 H423 0.950 . S
C402 N398 1.332 . S
C402 C401 1.382 . S
C402 H404 0.952 . S
C403 N398 1.332 . S
C403 C399 1.382 . S
C403 H405 0.948 . S
H404 C402 0.952 . S
H405 C403 0.948 . S
H406 C395 0.952 . S
H407 C397 0.948 . S
C408 C374 1.395 . S
C408 C378 1.391 . S
C409 C371 1.389 . S
C409 C391 1.392 . S
C410 C381 1.392 . S
C410 C383 1.389 . S
C411 C386 1.395 . S
C411 C388 1.391 . S
H412 C372 0.951 . S
H413 C373 0.950 . S
H414 C379 0.949 . S
H415 C380 0.950 . S
H416 C384 0.951 . S
H417 C385 0.950 . S
H418 C389 0.949 . S
H419 C390 0.950 . S
H420 C394 0.950 . S
H421 C396 0.950 . S
H422 C399 0.950 . S
H423 C401 0.950 . S
C424 C425 1.443 . S
C424 N428 1.376 . S
C424 C462 1.389 . S
C425 C424 1.443 . S
C425 C426 1.340 . S
C425 H465 0.951 . S
C426 C425 1.340 . S
C426 C427 1.439 . S
C426 H466 0.950 . S
C427 C426 1.439 . S
C427 N428 1.374 . S
C427 C461 1.395 . S
N428 C424 1.376 . S
N428 C427 1.374 . S
N428 Co429 2.008 . S
Co429 N428 2.008 . S
Co429 N430 1.995 . S
Co429 N435 2.008 . S
Co429 N440 1.995 . S
Co429 N445 2.282 . S
Co429 N451 2.282 . S
N430 Co429 1.995 . S
N430 C431 1.376 . S
N430 C434 1.383 . S
C431 N430 1.376 . S
C431 C432 1.446 . S
C431 C461 1.391 . S
C432 C431 1.446 . S
C432 C433 1.339 . S
C432 H467 0.949 . S
C433 C432 1.339 . S
C433 C434 1.439 . S
C433 H468 0.950 . S
C434 N430 1.383 . S
C434 C433 1.439 . S
C434 C463 1.392 . S
N435 Co429 2.008 . S
N435 C436 1.376 . S
N435 C439 1.374 . S
C436 N435 1.376 . S
C436 C437 1.443 . S
C436 C463 1.389 . S
C437 C436 1.443 . S
C437 C438 1.340 . S
C437 H469 0.951 . S
C438 C437 1.340 . S
C438 C439 1.439 . S
C438 H470 0.950 . S
C439 N435 1.374 . S
C439 C438 1.439 . S
C439 C464 1.395 . S
N440 Co429 1.995 . S
N440 C441 1.376 . S
N440 C444 1.383 . S
C441 N440 1.376 . S
C441 C442 1.446 . S
C441 C464 1.391 . S
C442 C441 1.446 . S
C442 C443 1.339 . S
C442 H471 0.949 . S
C443 C442 1.339 . S
C443 C444 1.439 . S
C443 H472 0.950 . S
C444 N440 1.383 . S
C444 C443 1.439 . S
C444 C462 1.392 . S
N445 Co429 2.282 . S
N445 C448 1.332 . S
N445 C450 1.332 . S
C446 C447 1.386 . S
C446 C449 1.388 . S
C447 C446 1.386 . S
C447 C448 1.382 . S
C447 H473 0.950 . S
C448 N445 1.332 . S
C448 C447 1.382 . S
C448 H459 0.952 . S
C449 C446 1.388 . S
C449 C450 1.382 . S
C449 H474 0.950 . S
C450 N445 1.332 . S
C450 C449 1.382 . S
C450 H460 0.948 . S
N451 Co429 2.282 . S
N451 C455 1.332 . S
N451 C456 1.332 . S
C452 C453 1.388 . S
C452 C456 1.382 . S
C452 H475 0.950 . S
C453 C452 1.388 . S
C453 C454 1.386 . S
C454 C453 1.386 . S
C454 C455 1.382 . S
C454 H476 0.950 . S
C455 N451 1.332 . S
C455 C454 1.382 . S
C455 H457 0.952 . S
C456 N451 1.332 . S
C456 C452 1.382 . S
C456 H458 0.948 . S
H457 C455 0.952 . S
H458 C456 0.948 . S
H459 C448 0.952 . S
H460 C450 0.948 . S
C461 C427 1.395 . S
C461 C431 1.391 . S
C462 C424 1.389 . S
C462 C444 1.392 . S
C463 C434 1.392 . S
C463 C436 1.389 . S
C464 C439 1.395 . S
C464 C441 1.391 . S
H465 C425 0.951 . S
H466 C426 0.950 . S
H467 C432 0.949 . S
H468 C433 0.950 . S
H469 C437 0.951 . S
H470 C438 0.950 . S
H471 C442 0.949 . S
H472 C443 0.950 . S
H473 C447 0.950 . S
H474 C449 0.950 . S
H475 C452 0.950 . S
H476 C454 0.950 . S
C477 C478 1.443 . S
C477 N481 1.376 . S
C477 C515 1.389 . S
C478 C477 1.443 . S
C478 C479 1.340 . S
C478 H518 0.951 . S
C479 C478 1.340 . S
C479 C480 1.439 . S
C479 H519 0.950 . S
C480 C479 1.439 . S
C480 N481 1.374 . S
C480 C514 1.395 . S
N481 C477 1.376 . S
N481 C480 1.374 . S
N481 Co482 2.008 . S
Co482 N481 2.008 . S
Co482 N483 1.995 . S
Co482 N488 2.008 . S
Co482 N493 1.995 . S
Co482 N498 2.282 . S
Co482 N504 2.282 . S
N483 Co482 1.995 . S
N483 C484 1.376 . S
N483 C487 1.383 . S
C484 N483 1.376 . S
C484 C485 1.446 . S
C484 C514 1.391 . S
C485 C484 1.446 . S
C485 C486 1.339 . S
C485 H520 0.949 . S
C486 C485 1.339 . S
C486 C487 1.439 . S
C486 H521 0.950 . S
C487 N483 1.383 . S
C487 C486 1.439 . S
C487 C516 1.392 . S
N488 Co482 2.008 . S
N488 C489 1.376 . S
N488 C492 1.374 . S
C489 N488 1.376 . S
C489 C490 1.443 . S
C489 C516 1.389 . S
C490 C489 1.443 . S
C490 C491 1.340 . S
C490 H522 0.951 . S
C491 C490 1.340 . S
C491 C492 1.439 . S
C491 H523 0.950 . S
C492 N488 1.374 . S
C492 C491 1.439 . S
C492 C517 1.395 . S
N493 Co482 1.995 . S
N493 C494 1.376 . S
N493 C497 1.383 . S
C494 N493 1.376 . S
C494 C495 1.446 . S
C494 C517 1.391 . S
C495 C494 1.446 . S
C495 C496 1.339 . S
C495 H524 0.949 . S
C496 C495 1.339 . S
C496 C497 1.439 . S
C496 H525 0.950 . S
C497 N493 1.383 . S
C497 C496 1.439 . S
C497 C515 1.392 . S
N498 Co482 2.282 . S
N498 C501 1.332 . S
N498 C503 1.332 . S
C499 C500 1.386 . S
C499 C502 1.388 . S
C500 C499 1.386 . S
C500 C501 1.382 . S
C500 H526 0.950 . S
C501 N498 1.332 . S
C501 C500 1.382 . S
C501 H512 0.952 . S
C502 C499 1.388 . S
C502 C503 1.382 . S
C502 H527 0.950 . S
C503 N498 1.332 . S
C503 C502 1.382 . S
C503 H513 0.948 . S
N504 Co482 2.282 . S
N504 C508 1.332 . S
N504 C509 1.332 . S
C505 C506 1.388 . S
C505 C509 1.382 . S
C505 H528 0.950 . S
C506 C505 1.388 . S
C506 C507 1.386 . S
C507 C506 1.386 . S
C507 C508 1.382 . S
C507 H529 0.950 . S
C508 N504 1.332 . S
C508 C507 1.382 . S
C508 H510 0.952 . S
C509 N504 1.332 . S
C509 C505 1.382 . S
C509 H511 0.948 . S
H510 C508 0.952 . S
H511 C509 0.948 . S
H512 C501 0.952 . S
H513 C503 0.948 . S
C514 C480 1.395 . S
C514 C484 1.391 . S
C515 C477 1.389 . S
C515 C497 1.392 . S
C516 C487 1.392 . S
C516 C489 1.389 . S
C517 C492 1.395 . S
C517 C494 1.391 . S
H518 C478 0.951 . S
H519 C479 0.950 . S
H520 C485 0.949 . S
H521 C486 0.950 . S
H522 C490 0.951 . S
H523 C491 0.950 . S
H524 C495 0.949 . S
H525 C496 0.950 . S
H526 C500 0.950 . S
H527 C502 0.950 . S
H528 C505 0.950 . S
H529 C507 0.950 . S
C530 C531 1.443 . S
C530 N534 1.376 . S
C530 C568 1.389 . S
C531 C530 1.443 . S
C531 C532 1.340 . S
C531 H571 0.951 . S
C532 C531 1.340 . S
C532 C533 1.439 . S
C532 H572 0.950 . S
C533 C532 1.439 . S
C533 N534 1.374 . S
C533 C567 1.395 . S
N534 C530 1.376 . S
N534 C533 1.374 . S
N534 Co535 2.008 . S
Co535 N534 2.008 . S
Co535 N536 1.995 . S
Co535 N541 2.008 1_545 S
Co535 N546 1.995 1_545 S
Co535 N551 2.282 . S
Co535 N557 2.282 . S
N536 Co535 1.995 . S
N536 C537 1.376 . S
N536 C540 1.383 . S
C537 N536 1.376 . S
C537 C538 1.446 . S
C537 C567 1.391 . S
C538 C537 1.446 . S
C538 C539 1.339 . S
C538 H573 0.949 . S
C539 C538 1.339 . S
C539 C540 1.439 . S
C539 H574 0.950 . S
C540 N536 1.383 . S
C540 C539 1.439 . S
C540 C569 1.366 1_545 S
N541 Co535 2.008 1_565 S
N541 C542 1.376 . S
N541 C545 1.374 . S
C542 N541 1.376 . S
C542 C543 1.443 . S
C542 C569 1.410 . S
C543 C542 1.443 . S
C543 C544 1.340 . S
C543 H575 0.951 . S
C544 C543 1.340 . S
C544 C545 1.439 . S
C544 H576 0.950 . S
C545 N541 1.374 . S
C545 C544 1.439 . S
C545 C570 1.395 . S
N546 Co535 1.995 1_565 S
N546 C547 1.376 . S
N546 C550 1.383 1_565 S
C547 N546 1.376 . S
C547 C548 1.446 . S
C547 C570 1.391 . S
C548 C547 1.446 . S
C548 C549 1.339 . S
C548 H577 0.949 . S
C549 C548 1.339 . S
C549 C550 1.439 1_565 S
C549 H578 0.950 . S
C550 N546 1.383 1_545 S
C550 C549 1.439 1_545 S
C550 C568 1.392 . S
N551 Co535 2.282 . S
N551 C554 1.332 1_545 S
N551 C556 1.332 . S
C552 C553 1.386 . S
C552 C555 1.388 1_565 S
C553 C552 1.386 . S
C553 C554 1.382 . S
C553 H579 0.950 . S
C554 N551 1.332 1_565 S
C554 C553 1.382 . S
C554 H565 0.952 . S
C555 C552 1.388 1_545 S
C555 C556 1.382 . S
C555 H580 0.950 . S
C556 N551 1.332 . S
C556 C555 1.382 . S
C556 H566 0.948 . S
N557 Co535 2.282 . S
N557 C561 1.332 . S
N557 C562 1.332 . S
C558 C559 1.388 . S
C558 C562 1.382 . S
C558 H581 0.950 1_545 S
C559 C558 1.388 . S
C559 C560 1.386 . S
C560 C559 1.386 . S
C560 C561 1.382 . S
C560 H582 0.950 . S
C561 N557 1.332 . S
C561 C560 1.382 . S
C561 H563 0.952 . S
C562 N557 1.332 . S
C562 C558 1.382 . S
C562 H564 0.948 1_545 S
H563 C561 0.952 . S
H564 C562 0.948 1_565 S
H565 C554 0.952 . S
H566 C556 0.948 . S
C567 C533 1.395 . S
C567 C537 1.391 . S
C568 C530 1.389 . S
C568 C550 1.392 . S
C569 C540 1.366 1_565 S
C569 C542 1.410 . S
C570 C545 1.395 . S
C570 C547 1.391 . S
H571 C531 0.951 . S
H572 C532 0.950 . S
H573 C538 0.949 . S
H574 C539 0.950 . S
H575 C543 0.951 . S
H576 C544 0.950 . S
H577 C548 0.949 . S
H578 C549 0.950 . S
H579 C553 0.950 . S
H580 C555 0.950 . S
H581 C558 0.950 1_565 S
H582 C560 0.950 . S
C583 C584 1.443 . S
C583 N587 1.376 . S
C583 C621 1.389 . S
C584 C583 1.443 . S
C584 C585 1.340 . S
C584 H624 0.951 . S
C585 C584 1.340 . S
C585 C586 1.439 . S
C585 H625 0.950 . S
C586 C585 1.439 . S
C586 N587 1.374 . S
C586 C620 1.395 . S
N587 C583 1.376 . S
N587 C586 1.374 . S
N587 Co588 2.008 1_556 S
Co588 N587 2.008 1_554 S
Co588 N589 1.995 1_554 S
Co588 N594 2.008 . S
Co588 N599 1.995 . S
Co588 N604 2.282 . S
Co588 N610 2.282 1_554 S
N589 Co588 1.995 1_556 S
N589 C590 1.376 . S
N589 C593 1.383 . S
C590 N589 1.376 . S
C590 C591 1.446 . S
C590 C620 1.391 . S
C591 C590 1.446 . S
C591 C592 1.339 . S
C591 H626 0.949 . S
C592 C591 1.339 . S
C592 C593 1.439 . S
C592 H627 0.950 . S
C593 N589 1.383 . S
C593 C592 1.439 . S
C593 C622 1.392 1_556 S
N594 Co588 2.008 . S
N594 C595 1.376 . S
N594 C598 1.374 . S
C595 N594 1.376 . S
C595 C596 1.443 . S
C595 C622 1.389 . S
C596 C595 1.443 . S
C596 C597 1.340 . S
C596 H628 0.951 . S
C597 C596 1.340 . S
C597 C598 1.439 . S
C597 H629 0.950 . S
C598 N594 1.374 . S
C598 C597 1.439 . S
C598 C623 1.395 . S
N599 Co588 1.995 . S
N599 C600 1.376 . S
N599 C603 1.383 . S
C600 N599 1.376 . S
C600 C601 1.446 . S
C600 C623 1.391 . S
C601 C600 1.446 . S
C601 C602 1.339 . S
C601 H630 0.949 . S
C602 C601 1.339 . S
C602 C603 1.439 . S
C602 H631 0.950 . S
C603 N599 1.383 . S
C603 C602 1.439 . S
C603 C621 1.392 1_554 S
N604 Co588 2.282 . S
N604 C607 1.332 . S
N604 C609 1.332 1_554 S
C605 C606 1.386 . S
C605 C608 1.388 1_554 S
C606 C605 1.386 . S
C606 C607 1.382 . S
C606 H632 0.950 . S
C607 N604 1.332 . S
C607 C606 1.382 . S
C607 H618 0.952 . S
C608 C605 1.388 1_556 S
C608 C609 1.382 . S
C608 H633 0.950 . S
C609 N604 1.332 1_556 S
C609 C608 1.382 . S
C609 H619 0.948 . S
N610 Co588 2.282 1_556 S
N610 C614 1.332 . S
N610 C615 1.332 1_556 S
C611 C612 1.388 1_554 S
C611 C615 1.382 . S
C611 H634 0.950 . S
C612 C611 1.388 1_556 S
C612 C613 1.386 . S
C613 C612 1.386 . S
C613 C614 1.382 . S
C613 H635 0.950 . S
C614 N610 1.332 . S
C614 C613 1.382 . S
C614 H616 0.952 . S
C615 N610 1.332 1_554 S
C615 C611 1.382 . S
C615 H617 0.948 . S
H616 C614 0.952 . S
H617 C615 0.948 . S
H618 C607 0.952 . S
H619 C609 0.948 . S
C620 C586 1.395 . S
C620 C590 1.391 . S
C621 C583 1.389 . S
C621 C603 1.392 1_556 S
C622 C593 1.392 1_554 S
C622 C595 1.389 . S
C623 C598 1.395 . S
C623 C600 1.391 . S
H624 C584 0.951 . S
H625 C585 0.950 . S
H626 C591 0.949 . S
H627 C592 0.950 . S
H628 C596 0.951 . S
H629 C597 0.950 . S
H630 C601 0.949 . S
H631 C602 0.950 . S
H632 C606 0.950 . S
H633 C608 0.950 . S
H634 C611 0.950 . S
H635 C613 0.950 . S
O636 Zn637 1.953 . S
O636 C652 1.225 . S
Zn637 O636 1.953 . S
Zn637 O638 1.949 . S
Zn637 O644 1.919 . S
Zn637 O649 1.924 . S
O638 Zn637 1.949 . S
O638 Zn639 1.923 . S
O638 Zn640 1.950 . S
O638 Zn641 1.945 . S
Zn639 O638 1.923 . S
Zn639 O642 1.933 . S
Zn639 O645 1.941 . S
Zn639 O646 1.965 . S
Zn640 O638 1.950 . S
Zn640 O647 1.938 . S
Zn640 O648 1.906 . S
Zn640 O658 1.953 . S
Zn641 O638 1.945 . S
Zn641 O643 1.932 . S
Zn641 O650 1.977 . S
Zn641 O651 1.910 . S
O642 Zn639 1.933 . S
O642 C653 1.226 . S
O643 Zn641 1.932 . S
O643 C653 1.307 . S
O644 Zn637 1.919 . S
O644 C655 1.253 . S
O645 Zn639 1.941 . S
O645 C655 1.283 . S
O646 Zn639 1.965 . S
O646 C654 1.303 . S
O647 Zn640 1.938 . S
O647 C654 1.247 . S
O648 Zn640 1.906 . S
O648 C656 1.304 1_554 S
O649 Zn637 1.924 . S
O649 C657 1.311 . S
O650 Zn641 1.977 . S
O650 C656 1.272 1_554 S
O651 Zn641 1.910 . S
O651 C657 1.231 . S
C652 O636 1.225 . S
C652 O658 1.298 . S
C653 O642 1.226 . S
C653 O643 1.307 . S
C654 O646 1.303 . S
C654 O647 1.247 . S
C655 O644 1.253 . S
C655 O645 1.283 . S
C656 O648 1.304 1_556 S
C656 O650 1.272 1_556 S
C657 O649 1.311 . S
C657 O651 1.231 . S
O658 Zn640 1.953 . S
O658 C652 1.298 . S
O659 Zn660 1.953 . S
O659 C675 1.225 . S
Zn660 O659 1.953 . S
Zn660 O661 1.949 . S
Zn660 O667 1.919 . S
Zn660 O672 1.924 . S
O661 Zn660 1.949 . S
O661 Zn662 1.923 . S
O661 Zn663 1.950 . S
O661 Zn664 1.945 . S
Zn662 O661 1.923 . S
Zn662 O665 1.933 . S
Zn662 O668 1.941 . S
Zn662 O669 1.965 . S
Zn663 O661 1.950 . S
Zn663 O670 1.938 . S
Zn663 O671 1.906 1_554 S
Zn663 O681 1.953 . S
Zn664 O661 1.945 . S
Zn664 O666 1.932 1_655 S
Zn664 O673 2.000 . S
Zn664 O674 1.910 . S
O665 Zn662 1.933 . S
O665 C676 1.226 1_655 S
O666 Zn664 1.932 1_455 S
O666 C676 1.307 . S
O667 Zn660 1.919 . S
O667 C678 1.253 . S
O668 Zn662 1.941 . S
O668 C678 1.283 . S
O669 Zn662 1.965 . S
O669 C677 1.303 . S
O670 Zn663 1.938 . S
O670 C677 1.247 . S
O671 Zn663 1.906 1_556 S
O671 C679 1.304 . S
O672 Zn660 1.924 . S
O672 C680 1.311 . S
O673 Zn664 2.000 . S
O673 C679 1.257 1_554 S
O674 Zn664 1.910 . S
O674 C680 1.231 . S
C675 O659 1.225 . S
C675 O681 1.298 . S
C676 O665 1.226 1_455 S
C676 O666 1.307 . S
C677 O669 1.303 . S
C677 O670 1.247 . S
C678 O667 1.253 . S
C678 O668 1.283 . S
C679 O671 1.304 . S
C679 O673 1.257 1_556 S
C680 O672 1.311 . S
C680 O674 1.231 . S
O681 Zn663 1.953 . S
O681 C675 1.298 . S
O682 Zn683 1.953 . S
O682 C698 1.225 . S
Zn683 O682 1.953 . S
Zn683 O684 1.949 . S
Zn683 O690 1.919 . S
Zn683 O695 1.924 . S
O684 Zn683 1.949 . S
O684 Zn685 1.923 . S
O684 Zn686 1.950 . S
O684 Zn687 1.945 . S
Zn685 O684 1.923 . S
Zn685 O688 1.933 . S
Zn685 O691 1.941 . S
Zn685 O692 1.965 . S
Zn686 O684 1.950 . S
Zn686 O693 1.938 . S
Zn686 O694 1.932 . S
Zn686 O704 1.953 . S
Zn687 O684 1.945 . S
Zn687 O689 1.932 . S
Zn687 O696 1.977 . S
Zn687 O697 1.910 . S
O688 Zn685 1.933 . S
O688 C699 1.226 . S
O689 Zn687 1.932 . S
O689 C699 1.307 . S
O690 Zn683 1.919 . S
O690 C701 1.253 . S
O691 Zn685 1.941 . S
O691 C701 1.283 . S
O692 Zn685 1.965 . S
O692 C700 1.303 . S
O693 Zn686 1.938 . S
O693 C700 1.247 . S
O694 Zn686 1.932 . S
O694 C702 1.292 1_455 S
O695 Zn683 1.924 . S
O695 C703 1.311 . S
O696 Zn687 1.977 . S
O696 C702 1.272 1_455 S
O697 Zn687 1.910 . S
O697 C703 1.231 . S
C698 O682 1.225 . S
C698 O704 1.298 . S
C699 O688 1.226 . S
C699 O689 1.307 . S
C700 O692 1.303 . S
C700 O693 1.247 . S
C701 O690 1.253 . S
C701 O691 1.283 . S
C702 O694 1.292 1_655 S
C702 O696 1.272 1_655 S
C703 O695 1.311 . S
C703 O697 1.231 . S
O704 Zn686 1.953 . S
O704 C698 1.298 . S
O705 Zn706 1.953 . S
O705 C721 1.225 . S
Zn706 O705 1.953 . S
Zn706 O707 1.949 . S
Zn706 O713 1.919 . S
Zn706 O718 1.946 . S
O707 Zn706 1.949 . S
O707 Zn708 1.923 . S
O707 Zn709 1.950 . S
O707 Zn710 1.945 . S
Zn708 O707 1.923 . S
Zn708 O711 1.933 . S
Zn708 O714 1.941 . S
Zn708 O715 1.965 . S
Zn709 O707 1.950 . S
Zn709 O716 1.938 . S
Zn709 O717 1.906 . S
Zn709 O727 1.953 . S
Zn710 O707 1.945 . S
Zn710 O712 1.932 . S
Zn710 O719 1.977 . S
Zn710 O720 1.910 1_655 S
O711 Zn708 1.933 . S
O711 C722 1.226 . S
O712 Zn710 1.932 . S
O712 C722 1.307 . S
O713 Zn706 1.919 . S
O713 C724 1.253 . S
O714 Zn708 1.941 . S
O714 C724 1.283 . S
O715 Zn708 1.965 . S
O715 C723 1.303 . S
O716 Zn709 1.938 . S
O716 C723 1.247 . S
O717 Zn709 1.906 . S
O717 C725 1.304 . S
O718 Zn706 1.946 . S
O718 C726 1.297 1_655 S
O719 Zn710 1.977 . S
O719 C725 1.272 . S
O720 Zn710 1.910 1_455 S
O720 C726 1.231 . S
C721 O705 1.225 . S
C721 O727 1.298 . S
C722 O711 1.226 . S
C722 O712 1.307 . S
C723 O715 1.303 . S
C723 O716 1.247 . S
C724 O713 1.253 . S
C724 O714 1.283 . S
C725 O717 1.304 . S
C725 O719 1.272 . S
C726 O718 1.297 1_455 S
C726 O720 1.231 . S
O727 Zn709 1.953 . S
O727 C721 1.298 . S
O728 Zn729 1.953 . S
O728 C744 1.225 . S
Zn729 O728 1.953 . S
Zn729 O730 1.949 . S
Zn729 O736 1.919 . S
Zn729 O741 1.924 . S
O730 Zn729 1.949 . S
O730 Zn731 1.923 . S
O730 Zn732 1.950 . S
O730 Zn733 1.945 . S
Zn731 O730 1.923 . S
Zn731 O734 1.933 . S
Zn731 O737 1.941 . S
Zn731 O738 1.965 . S
Zn732 O730 1.950 . S
Zn732 O739 1.938 . S
Zn732 O740 1.906 . S
Zn732 O750 1.953 . S
Zn733 O730 1.945 . S
Zn733 O735 1.932 . S
Zn733 O742 1.977 . S
Zn733 O743 1.910 . S
O734 Zn731 1.933 . S
O734 C745 1.226 . S
O735 Zn733 1.932 . S
O735 C745 1.307 . S
O736 Zn729 1.919 . S
O736 C747 1.253 . S
O737 Zn731 1.941 . S
O737 C747 1.283 . S
O738 Zn731 1.965 . S
O738 C746 1.303 . S
O739 Zn732 1.938 . S
O739 C746 1.247 . S
O740 Zn732 1.906 . S
O740 C748 1.304 . S
O741 Zn729 1.924 . S
O741 C749 1.311 . S
O742 Zn733 1.977 . S
O742 C748 1.272 . S
O743 Zn733 1.910 . S
O743 C749 1.231 . S
C744 O728 1.225 . S
C744 O750 1.298 . S
C745 O734 1.226 . S
C745 O735 1.307 . S
C746 O738 1.303 . S
C746 O739 1.247 . S
C747 O736 1.253 . S
C747 O737 1.283 . S
C748 O740 1.304 . S
C748 O742 1.272 . S
C749 O741 1.311 . S
C749 O743 1.231 . S
O750 Zn732 1.953 . S
O750 C744 1.298 . S
O751 Zn752 1.953 . S
O751 C767 1.225 . S
Zn752 O751 1.953 . S
Zn752 O753 1.949 . S
Zn752 O759 1.919 . S
Zn752 O764 1.924 . S
O753 Zn752 1.949 . S
O753 Zn754 1.923 . S
O753 Zn755 1.950 . S
O753 Zn756 1.945 . S
Zn754 O753 1.923 . S
Zn754 O757 1.933 . S
Zn754 O760 1.941 . S
Zn754 O761 1.965 . S
Zn755 O753 1.950 . S
Zn755 O762 1.938 . S
Zn755 O763 1.906 . S
Zn755 O773 1.953 . S
Zn756 O753 1.945 . S
Zn756 O758 1.932 . S
Zn756 O765 1.977 . S
Zn756 O766 1.910 . S
O757 Zn754 1.933 . S
O757 C768 1.226 . S
O758 Zn756 1.932 . S
O758 C768 1.307 . S
O759 Zn752 1.919 . S
O759 C770 1.253 . S
O760 Zn754 1.941 . S
O760 C770 1.283 . S
O761 Zn754 1.965 . S
O761 C769 1.303 . S
O762 Zn755 1.938 . S
O762 C769 1.247 . S
O763 Zn755 1.906 . S
O763 C771 1.304 . S
O764 Zn752 1.924 . S
O764 C772 1.311 . S
O765 Zn756 1.977 . S
O765 C771 1.272 . S
O766 Zn756 1.910 . S
O766 C772 1.231 . S
C767 O751 1.225 . S
C767 O773 1.298 . S
C768 O757 1.226 . S
C768 O758 1.307 . S
C769 O761 1.303 . S
C769 O762 1.247 . S
C770 O759 1.253 . S
C770 O760 1.283 . S
C771 O763 1.304 . S
C771 O765 1.272 . S
C772 O764 1.311 . S
C772 O766 1.231 . S
O773 Zn755 1.953 . S
O773 C767 1.298 . S
O774 Zn775 1.953 . S
O774 C790 1.225 . S
Zn775 O774 1.953 . S
Zn775 O776 1.949 . S
Zn775 O782 1.919 . S
Zn775 O787 1.924 1_556 S
O776 Zn775 1.949 . S
O776 Zn777 1.923 . S
O776 Zn778 1.950 . S
O776 Zn779 1.945 . S
Zn777 O776 1.923 . S
Zn777 O780 1.933 . S
Zn777 O783 1.941 . S
Zn777 O784 1.965 . S
Zn778 O776 1.950 . S
Zn778 O785 1.938 . S
Zn778 O786 1.906 . S
Zn778 O796 1.953 . S
Zn779 O776 1.945 . S
Zn779 O781 1.932 . S
Zn779 O788 1.977 . S
Zn779 O789 1.910 1_556 S
O780 Zn777 1.933 . S
O780 C791 1.226 . S
O781 Zn779 1.932 . S
O781 C791 1.307 . S
O782 Zn775 1.919 . S
O782 C793 1.253 . S
O783 Zn777 1.941 . S
O783 C793 1.283 . S
O784 Zn777 1.965 . S
O784 C792 1.303 . S
O785 Zn778 1.938 . S
O785 C792 1.247 . S
O786 Zn778 1.906 . S
O786 C794 1.304 . S
O787 Zn775 1.924 1_554 S
O787 C795 1.311 . S
O788 Zn779 1.977 . S
O788 C794 1.272 . S
O789 Zn779 1.910 1_554 S
O789 C795 1.231 . S
C790 O774 1.225 . S
C790 O796 1.298 . S
C791 O780 1.226 . S
C791 O781 1.307 . S
C792 O784 1.303 . S
C792 O785 1.247 . S
C793 O782 1.253 . S
C793 O783 1.283 . S
C794 O786 1.304 . S
C794 O788 1.272 . S
C795 O787 1.311 . S
C795 O789 1.231 . S
O796 Zn778 1.953 . S
O796 C790 1.298 . S
O797 Zn798 1.953 . S
O797 C813 1.225 . S
Zn798 O797 1.953 . S
Zn798 O799 1.949 . S
Zn798 O805 1.919 . S
Zn798 O810 1.924 . S
O799 Zn798 1.949 . S
O799 Zn800 1.923 . S
O799 Zn801 1.950 . S
O799 Zn802 1.945 . S
Zn800 O799 1.923 . S
Zn800 O803 1.933 . S
Zn800 O806 1.941 . S
Zn800 O807 1.965 . S
Zn801 O799 1.950 . S
Zn801 O808 1.938 . S
Zn801 O809 1.906 . S
Zn801 O819 1.953 . S
Zn802 O799 1.945 . S
Zn802 O804 1.932 . S
Zn802 O811 1.977 . S
Zn802 O812 1.910 . S
O803 Zn800 1.933 . S
O803 C814 1.226 . S
O804 Zn802 1.932 . S
O804 C814 1.307 . S
O805 Zn798 1.919 . S
O805 C816 1.253 . S
O806 Zn800 1.941 . S
O806 C816 1.283 . S
O807 Zn800 1.965 . S
O807 C815 1.303 . S
O808 Zn801 1.938 . S
O808 C815 1.247 . S
O809 Zn801 1.906 . S
O809 C817 1.304 . S
O810 Zn798 1.924 . S
O810 C818 1.311 . S
O811 Zn802 1.977 . S
O811 C817 1.272 . S
O812 Zn802 1.910 . S
O812 C818 1.231 . S
C813 O797 1.225 . S
C813 O819 1.298 . S
C814 O803 1.226 . S
C814 O804 1.307 . S
C815 O807 1.303 . S
C815 O808 1.247 . S
C816 O805 1.253 . S
C816 O806 1.283 . S
C817 O809 1.304 . S
C817 O811 1.272 . S
C818 O810 1.311 . S
C818 O812 1.231 . S
O819 Zn801 1.953 . S
O819 C813 1.298 . S
H820 C832 0.930 . S
H821 C834 0.930 . S
H822 C835 0.930 . S
H823 C839 0.959 . S
H824 C839 0.959 . S
H825 C839 0.961 . S
H826 C840 0.960 . S
H827 C840 0.961 . S
H828 C840 0.959 . S
H829 C843 0.929 . S
H830 C844 0.931 . S
H831 C846 0.930 . S
C832 H820 0.930 . S
C832 C833 1.399 . S
C832 C837 1.399 . S
C833 C832 1.399 . S
C833 C834 1.376 . S
C834 H821 0.930 . S
C834 C833 1.376 . S
C834 C835 1.388 . S
C835 H822 0.930 . S
C835 C834 1.388 . S
C835 C836 1.390 . S
C836 C835 1.390 . S
C836 C837 1.394 . S
C836 C842 1.465 . S
C837 C832 1.399 . S
C837 C836 1.394 . S
C837 C838 1.516 . S
C838 C837 1.516 . S
C838 C839 1.502 1_455 S
C838 C840 1.561 . S
C838 C841 1.526 . S
C839 H823 0.959 . S
C839 H824 0.959 . S
C839 H825 0.961 . S
C839 C838 1.502 1_655 S
C840 H826 0.960 . S
C840 H827 0.961 . S
C840 H828 0.959 . S
C840 C838 1.561 . S
C841 C838 1.526 . S
C841 C842 1.396 . S
C841 C846 1.390 . S
C842 C836 1.465 . S
C842 C841 1.396 . S
C842 C843 1.399 . S
C843 H829 0.929 . S
C843 C842 1.399 . S
C843 C844 1.385 . S
C844 H830 0.931 . S
C844 C843 1.385 . S
C844 C845 1.389 . S
C845 C844 1.389 . S
C845 C846 1.387 . S
C846 H831 0.930 . S
C846 C841 1.390 . S
C846 C845 1.387 . S
H847 C859 0.930 . S
H848 C861 0.930 1_455 S
H849 C862 0.930 1_455 S
H850 C866 0.959 . S
H851 C866 0.959 . S
H852 C866 0.961 . S
H853 C867 0.960 . S
H854 C867 0.961 . S
H855 C867 0.959 1_455 S
H856 C870 0.929 1_455 S
H857 C871 0.931 . S
H858 C873 0.930 . S
C859 H847 0.930 . S
C859 C860 1.399 . S
C859 C864 1.399 . S
C860 C859 1.399 . S
C860 C861 1.376 . S
C861 H848 0.930 1_655 S
C861 C860 1.376 . S
C861 C862 1.388 . S
C862 H849 0.930 1_655 S
C862 C861 1.388 . S
C862 C863 1.390 . S
C863 C862 1.390 . S
C863 C864 1.394 . S
C863 C869 1.465 . S
C864 C859 1.399 . S
C864 C863 1.394 . S
C864 C865 1.516 . S
C865 C864 1.516 . S
C865 C866 1.502 . S
C865 C867 1.561 . S
C865 C868 1.526 . S
C866 H850 0.959 . S
C866 H851 0.959 . S
C866 H852 0.961 . S
C866 C865 1.502 . S
C867 H853 0.960 . S
C867 H854 0.961 . S
C867 H855 0.959 1_655 S
C867 C865 1.561 . S
C868 C865 1.526 . S
C868 C869 1.396 . S
C868 C873 1.390 . S
C869 C863 1.465 . S
C869 C868 1.396 . S
C869 C870 1.399 . S
C870 H856 0.929 1_655 S
C870 C869 1.399 . S
C870 C871 1.385 . S
C871 H857 0.931 . S
C871 C870 1.385 . S
C871 C872 1.389 . S
C872 C871 1.389 . S
C872 C873 1.387 . S
C873 H858 0.930 . S
C873 C868 1.390 . S
C873 C872 1.387 . S
H874 C886 0.930 . S
H875 C888 0.930 . S
H876 C889 0.930 . S
H877 C893 0.959 . S
H878 C893 0.959 . S
H879 C893 0.961 . S
H880 C894 0.960 . S
H881 C894 0.961 . S
H882 C894 0.959 . S
H883 C897 0.929 . S
H884 C898 0.931 . S
H885 C900 0.930 . S
C886 H874 0.930 . S
C886 C887 1.399 . S
C886 C891 1.399 . S
C887 C886 1.399 . S
C887 C888 1.376 . S
C888 H875 0.930 . S
C888 C887 1.376 . S
C888 C889 1.388 . S
C889 H876 0.930 . S
C889 C888 1.388 . S
C889 C890 1.390 . S
C890 C889 1.390 . S
C890 C891 1.394 . S
C890 C896 1.465 . S
C891 C886 1.399 . S
C891 C890 1.394 . S
C891 C892 1.516 . S
C892 C891 1.516 . S
C892 C893 1.502 . S
C892 C894 1.561 . S
C892 C895 1.526 . S
C893 H877 0.959 . S
C893 H878 0.959 . S
C893 H879 0.961 . S
C893 C892 1.502 . S
C894 H880 0.960 . S
C894 H881 0.961 . S
C894 H882 0.959 . S
C894 C892 1.561 . S
C895 C892 1.526 . S
C895 C896 1.396 . S
C895 C900 1.390 . S
C896 C890 1.465 . S
C896 C895 1.396 . S
C896 C897 1.399 . S
C897 H883 0.929 . S
C897 C896 1.399 . S
C897 C898 1.385 . S
C898 H884 0.931 . S
C898 C897 1.385 . S
C898 C899 1.389 . S
C899 C898 1.389 . S
C899 C900 1.387 . S
C900 H885 0.930 . S
C900 C895 1.390 . S
C900 C899 1.387 . S
H901 C913 0.930 . S
H902 C915 0.930 . S
H903 C916 0.930 . S
H904 C920 0.959 . S
H905 C920 0.959 . S
H906 C920 0.961 . S
H907 C921 0.960 . S
H908 C921 0.961 . S
H909 C921 0.959 . S
H910 C924 0.928 . S
H911 C925 0.931 . S
H912 C927 0.930 . S
C913 H901 0.930 . S
C913 C914 1.399 1_655 S
C913 C918 1.399 . S
C914 C913 1.399 1_455 S
C914 C915 1.376 . S
C915 H902 0.930 . S
C915 C914 1.376 . S
C915 C916 1.388 . S
C916 H903 0.930 . S
C916 C915 1.388 . S
C916 C917 1.390 . S
C917 C916 1.390 . S
C917 C918 1.394 1_455 S
C917 C923 1.465 1_455 S
C918 C913 1.399 . S
C918 C917 1.394 1_655 S
C918 C919 1.516 . S
C919 C918 1.516 . S
C919 C920 1.502 . S
C919 C921 1.561 1_655 S
C919 C922 1.526 . S
C920 H904 0.959 . S
C920 H905 0.959 . S
C920 H906 0.961 . S
C920 C919 1.502 . S
C921 H907 0.960 . S
C921 H908 0.961 . S
C921 H909 0.959 . S
C921 C919 1.561 1_455 S
C922 C919 1.526 . S
C922 C923 1.396 . S
C922 C927 1.390 . S
C923 C917 1.465 1_655 S
C923 C922 1.396 . S
C923 C924 1.399 1_655 S
C924 H910 0.928 . S
C924 C923 1.399 1_455 S
C924 C925 1.386 1_455 S
C925 H911 0.931 . S
C925 C924 1.386 1_655 S
C925 C926 1.389 . S
C926 C925 1.389 . S
C926 C927 1.387 . S
C927 H912 0.930 . S
C927 C922 1.390 . S
C927 C926 1.387 . S
H928 C940 0.930 1_565 S
H929 C942 0.930 . S
H930 C943 0.930 . S
H931 C947 0.959 1_545 S
H932 C947 0.959 . S
H933 C947 0.961 . S
H934 C948 0.960 . S
H935 C948 0.961 . S
H936 C948 0.959 . S
H937 C951 0.929 . S
H938 C952 0.931 . S
H939 C954 0.930 1_565 S
C940 H928 0.930 1_545 S
C940 C941 1.399 . S
C940 C945 1.399 . S
C941 C940 1.399 . S
C941 C942 1.376 . S
C942 H929 0.930 . S
C942 C941 1.376 . S
C942 C943 1.388 . S
C943 H930 0.930 . S
C943 C942 1.388 . S
C943 C944 1.390 . S
C944 C943 1.390 . S
C944 C945 1.394 . S
C944 C950 1.465 . S
C945 C940 1.399 . S
C945 C944 1.394 . S
C945 C946 1.513 1_545 S
C946 C945 1.513 1_565 S
C946 C947 1.505 . S
C946 C948 1.566 . S
C946 C949 1.522 1_565 S
C947 H931 0.959 1_565 S
C947 H932 0.959 . S
C947 H933 0.961 . S
C947 C946 1.505 . S
C948 H934 0.960 . S
C948 H935 0.961 . S
C948 H936 0.959 . S
C948 C946 1.566 . S
C949 C946 1.522 1_545 S
C949 C950 1.396 . S
C949 C954 1.390 . S
C950 C944 1.465 . S
C950 C949 1.396 . S
C950 C951 1.399 . S
C951 H937 0.929 . S
C951 C950 1.399 . S
C951 C952 1.385 . S
C952 H938 0.931 . S
C952 C951 1.385 . S
C952 C953 1.389 . S
C953 C952 1.389 . S
C953 C954 1.387 . S
C954 H939 0.930 1_545 S
C954 C949 1.390 . S
C954 C953 1.387 . S
H955 C967 0.930 . S
H956 C969 0.930 . S
H957 C970 0.930 . S
H958 C974 0.959 . S
H959 C974 0.959 . S
H960 C974 0.961 . S
H961 C975 0.960 . S
H962 C975 0.961 . S
H963 C975 0.959 . S
H964 C978 0.929 . S
H965 C979 0.931 . S
H966 C981 0.930 . S
C967 H955 0.930 . S
C967 C968 1.399 . S
C967 C972 1.399 . S
C968 C967 1.399 . S
C968 C969 1.376 . S
C969 H956 0.930 . S
C969 C968 1.376 . S
C969 C970 1.388 . S
C970 H957 0.930 . S
C970 C969 1.388 . S
C970 C971 1.390 . S
C971 C970 1.390 . S
C971 C972 1.394 . S
C971 C977 1.465 . S
C972 C967 1.399 . S
C972 C971 1.394 . S
C972 C973 1.516 . S
C973 C972 1.516 . S
C973 C974 1.502 . S
C973 C975 1.561 . S
C973 C976 1.526 . S
C974 H958 0.959 . S
C974 H959 0.959 . S
C974 H960 0.961 . S
C974 C973 1.502 . S
C975 H961 0.960 . S
C975 H962 0.961 . S
C975 H963 0.959 . S
C975 C973 1.561 . S
C976 C973 1.526 . S
C976 C977 1.396 . S
C976 C981 1.390 . S
C977 C971 1.465 . S
C977 C976 1.396 . S
C977 C978 1.399 . S
C978 H964 0.929 . S
C978 C977 1.399 . S
C978 C979 1.385 . S
C979 H965 0.931 . S
C979 C978 1.385 . S
C979 C980 1.389 . S
C980 C979 1.389 . S
C980 C981 1.387 . S
C981 H966 0.930 . S
C981 C976 1.390 . S
C981 C980 1.387 . S
H982 C994 0.930 1_545 S
H983 C996 0.930 . S
H984 C997 0.930 . S
H985 C1001 0.959 1_565 S
H986 C1001 0.959 . S
H987 C1001 0.961 . S
H988 C1002 0.960 . S
H989 C1002 0.961 . S
H990 C1002 0.959 . S
H991 C1005 0.929 . S
H992 C1006 0.931 . S
H993 C1008 0.930 . S
C994 H982 0.930 1_565 S
C994 C995 1.399 . S
C994 C999 1.399 . S
C995 C994 1.399 . S
C995 C996 1.376 . S
C996 H983 0.930 . S
C996 C995 1.376 . S
C996 C997 1.388 . S
C997 H984 0.930 . S
C997 C996 1.388 . S
C997 C998 1.390 . S
C998 C997 1.390 . S
C998 C999 1.394 . S
C998 C1004 1.465 . S
C999 C994 1.399 . S
C999 C998 1.394 . S
C999 C1000 1.516 1_565 S
C1000 C999 1.516 1_545 S
C1000 C1001 1.502 . S
C1000 C1002 1.561 . S
C1000 C1003 1.526 1_545 S
C1001 H985 0.959 1_545 S
C1001 H986 0.959 . S
C1001 H987 0.961 . S
C1001 C1000 1.502 . S
C1002 H988 0.960 . S
C1002 H989 0.961 . S
C1002 H990 0.959 . S
C1002 C1000 1.561 . S
C1003 C1000 1.526 1_565 S
C1003 C1004 1.396 . S
C1003 C1008 1.390 . S
C1004 C998 1.465 . S
C1004 C1003 1.396 . S
C1004 C1005 1.399 . S
C1005 H991 0.929 . S
C1005 C1004 1.399 . S
C1005 C1006 1.385 . S
C1006 H992 0.931 . S
C1006 C1005 1.385 . S
C1006 C1007 1.389 . S
C1007 C1006 1.389 . S
C1007 C1008 1.387 . S
C1008 H993 0.930 . S
C1008 C1003 1.390 . S
C1008 C1007 1.387 . S
H1009 C1021 0.930 . S
H1010 C1023 0.930 . S
H1011 C1024 0.930 . S
H1012 C1028 0.959 . S
H1013 C1028 0.959 . S
H1014 C1028 0.961 . S
H1015 C1029 0.960 . S
H1016 C1029 0.961 . S
H1017 C1029 0.959 . S
H1018 C1032 0.929 . S
H1019 C1033 0.931 . S
H1020 C1035 0.930 . S
C1021 H1009 0.930 . S
C1021 C1022 1.399 . S
C1021 C1026 1.399 . S
C1022 C1021 1.399 . S
C1022 C1023 1.376 . S
C1023 H1010 0.930 . S
C1023 C1022 1.376 . S
C1023 C1024 1.388 . S
C1024 H1011 0.930 . S
C1024 C1023 1.388 . S
C1024 C1025 1.390 . S
C1025 C1024 1.390 . S
C1025 C1026 1.394 . S
C1025 C1031 1.465 . S
C1026 C1021 1.399 . S
C1026 C1025 1.394 . S
C1026 C1027 1.516 . S
C1027 C1026 1.516 . S
C1027 C1028 1.502 . S
C1027 C1029 1.561 . S
C1027 C1030 1.526 . S
C1028 H1012 0.959 . S
C1028 H1013 0.959 . S
C1028 H1014 0.961 . S
C1028 C1027 1.502 . S
C1029 H1015 0.960 . S
C1029 H1016 0.961 . S
C1029 H1017 0.959 . S
C1029 C1027 1.561 . S
C1030 C1027 1.526 . S
C1030 C1031 1.396 . S
C1030 C1035 1.390 . S
C1031 C1025 1.465 . S
C1031 C1030 1.396 . S
C1031 C1032 1.399 . S
C1032 H1018 0.929 . S
C1032 C1031 1.399 . S
C1032 C1033 1.385 . S
C1033 H1019 0.931 . S
C1033 C1032 1.385 . S
C1033 C1034 1.389 . S
C1034 C1033 1.389 . S
C1034 C1035 1.387 . S
C1035 H1020 0.930 . S
C1035 C1030 1.390 . S
C1035 C1034 1.387 . S
H1036 C1048 0.930 . S
H1037 C1050 0.932 1_556 S
H1038 C1051 0.930 1_556 S
H1039 C1055 0.959 . S
H1040 C1055 0.959 . S
H1041 C1055 0.961 . S
H1042 C1056 0.960 . S
H1043 C1056 0.961 . S
H1044 C1056 0.959 . S
H1045 C1059 0.929 . S
H1046 C1060 0.931 . S
H1047 C1062 0.930 . S
C1048 H1036 0.930 . S
C1048 C1049 1.399 . S
C1048 C1053 1.399 . S
C1049 C1048 1.399 . S
C1049 C1050 1.376 . S
C1050 H1037 0.932 1_554 S
C1050 C1049 1.376 . S
C1050 C1051 1.388 . S
C1051 H1038 0.930 1_554 S
C1051 C1050 1.388 . S
C1051 C1052 1.390 . S
C1052 C1051 1.390 . S
C1052 C1053 1.394 . S
C1052 C1058 1.465 . S
C1053 C1048 1.399 . S
C1053 C1052 1.394 . S
C1053 C1054 1.516 . S
C1054 C1053 1.516 . S
C1054 C1055 1.502 . S
C1054 C1056 1.561 . S
C1054 C1057 1.526 . S
C1055 H1039 0.959 . S
C1055 H1040 0.959 . S
C1055 H1041 0.961 . S
C1055 C1054 1.502 . S
C1056 H1042 0.960 . S
C1056 H1043 0.961 . S
C1056 H1044 0.959 . S
C1056 C1054 1.561 . S
C1057 C1054 1.526 . S
C1057 C1058 1.396 . S
C1057 C1062 1.390 . S
C1058 C1052 1.465 . S
C1058 C1057 1.396 . S
C1058 C1059 1.399 1_554 S
C1059 H1045 0.929 . S
C1059 C1058 1.399 1_556 S
C1059 C1060 1.385 . S
C1060 H1046 0.931 . S
C1060 C1059 1.385 . S
C1060 C1061 1.389 1_556 S
C1061 C1060 1.389 1_554 S
C1061 C1062 1.387 . S
C1062 H1047 0.930 . S
C1062 C1057 1.390 . S
C1062 C1061 1.387 . S
H1063 C1075 0.930 . S
H1064 C1077 0.930 . S
H1065 C1078 0.930 . S
H1066 C1082 0.959 . S
H1067 C1082 0.959 . S
H1068 C1082 0.961 . S
H1069 C1083 0.960 . S
H1070 C1083 0.961 . S
H1071 C1083 0.959 . S
H1072 C1086 0.929 . S
H1073 C1087 0.931 . S
H1074 C1089 0.930 . S
C1075 H1063 0.930 . S
C1075 C1076 1.399 . S
C1075 C1080 1.399 . S
C1076 C1075 1.399 . S
C1076 C1077 1.376 . S
C1077 H1064 0.930 . S
C1077 C1076 1.376 . S
C1077 C1078 1.388 . S
C1078 H1065 0.930 . S
C1078 C1077 1.388 . S
C1078 C1079 1.390 . S
C1079 C1078 1.390 . S
C1079 C1080 1.394 . S
C1079 C1085 1.465 . S
C1080 C1075 1.399 . S
C1080 C1079 1.394 . S
C1080 C1081 1.516 . S
C1081 C1080 1.516 . S
C1081 C1082 1.502 . S
C1081 C1083 1.561 . S
C1081 C1084 1.526 . S
C1082 H1066 0.959 . S
C1082 H1067 0.959 . S
C1082 H1068 0.961 . S
C1082 C1081 1.502 . S
C1083 H1069 0.960 . S
C1083 H1070 0.961 . S
C1083 H1071 0.959 . S
C1083 C1081 1.561 . S
C1084 C1081 1.526 . S
C1084 C1085 1.396 . S
C1084 C1089 1.390 . S
C1085 C1079 1.465 . S
C1085 C1084 1.396 . S
C1085 C1086 1.399 . S
C1086 H1072 0.929 . S
C1086 C1085 1.399 . S
C1086 C1087 1.385 . S
C1087 H1073 0.931 . S
C1087 C1086 1.385 . S
C1087 C1088 1.389 . S
C1088 C1087 1.389 . S
C1088 C1089 1.387 . S
C1089 H1074 0.930 . S
C1089 C1084 1.390 . S
C1089 C1088 1.387 . S
H1090 C1102 0.930 . S
H1091 C1104 0.930 . S
H1092 C1105 0.930 . S
H1093 C1109 0.959 . S
H1094 C1109 0.959 . S
H1095 C1109 0.961 . S
H1096 C1110 0.960 . S
H1097 C1110 0.961 . S
H1098 C1110 0.959 . S
H1099 C1113 0.929 . S
H1100 C1114 0.931 . S
H1101 C1116 0.930 . S
C1102 H1090 0.930 . S
C1102 C1103 1.399 . S
C1102 C1107 1.399 . S
C1103 C1102 1.399 . S
C1103 C1104 1.376 . S
C1104 H1091 0.930 . S
C1104 C1103 1.376 . S
C1104 C1105 1.388 . S
C1105 H1092 0.930 . S
C1105 C1104 1.388 . S
C1105 C1106 1.390 . S
C1106 C1105 1.390 . S
C1106 C1107 1.394 . S
C1106 C1112 1.465 . S
C1107 C1102 1.399 . S
C1107 C1106 1.394 . S
C1107 C1108 1.516 . S
C1108 C1107 1.516 . S
C1108 C1109 1.502 . S
C1108 C1110 1.561 . S
C1108 C1111 1.526 . S
C1109 H1093 0.959 . S
C1109 H1094 0.959 . S
C1109 H1095 0.961 . S
C1109 C1108 1.502 . S
C1110 H1096 0.960 . S
C1110 H1097 0.961 . S
C1110 H1098 0.959 . S
C1110 C1108 1.561 . S
C1111 C1108 1.526 . S
C1111 C1112 1.396 . S
C1111 C1116 1.390 . S
C1112 C1106 1.465 . S
C1112 C1111 1.396 . S
C1112 C1113 1.399 . S
C1113 H1099 0.929 . S
C1113 C1112 1.399 . S
C1113 C1114 1.385 . S
C1114 H1100 0.931 . S
C1114 C1113 1.385 . S
C1114 C1115 1.389 . S
C1115 C1114 1.389 . S
C1115 C1116 1.387 . S
C1116 H1101 0.930 . S
C1116 C1111 1.390 . S
C1116 C1115 1.387 . S
H1117 C1129 0.930 . S
H1118 C1131 0.930 . S
H1119 C1132 0.930 . S
H1120 C1136 0.959 . S
H1121 C1136 0.959 . S
H1122 C1136 0.961 . S
H1123 C1137 0.960 . S
H1124 C1137 0.961 . S
H1125 C1137 0.959 . S
H1126 C1140 0.929 . S
H1127 C1141 0.931 . S
H1128 C1143 0.930 . S
C1129 H1117 0.930 . S
C1129 C1130 1.399 . S
C1129 C1134 1.399 . S
C1130 C1129 1.399 . S
C1130 C1131 1.376 . S
C1131 H1118 0.930 . S
C1131 C1130 1.376 . S
C1131 C1132 1.388 . S
C1132 H1119 0.930 . S
C1132 C1131 1.388 . S
C1132 C1133 1.390 . S
C1133 C1132 1.390 . S
C1133 C1134 1.394 . S
C1133 C1139 1.465 . S
C1134 C1129 1.399 . S
C1134 C1133 1.394 . S
C1134 C1135 1.516 . S
C1135 C1134 1.516 . S
C1135 C1136 1.502 . S
C1135 C1137 1.561 . S
C1135 C1138 1.526 . S
C1136 H1120 0.959 . S
C1136 H1121 0.959 . S
C1136 H1122 0.961 . S
C1136 C1135 1.502 . S
C1137 H1123 0.960 . S
C1137 H1124 0.961 . S
C1137 H1125 0.959 . S
C1137 C1135 1.561 . S
C1138 C1135 1.526 . S
C1138 C1139 1.396 . S
C1138 C1143 1.390 . S
C1139 C1133 1.465 . S
C1139 C1138 1.396 . S
C1139 C1140 1.399 . S
C1140 H1126 0.929 . S
C1140 C1139 1.399 . S
C1140 C1141 1.385 . S
C1141 H1127 0.931 . S
C1141 C1140 1.385 . S
C1141 C1142 1.389 . S
C1142 C1141 1.389 . S
C1142 C1143 1.387 . S
C1143 H1128 0.930 . S
C1143 C1138 1.390 . S
C1143 C1142 1.387 . S
H1144 C1156 0.930 . S
H1145 C1158 0.930 . S
H1146 C1159 0.930 . S
H1147 C1163 0.959 . S
H1148 C1163 0.959 . S
H1149 C1163 0.961 . S
H1150 C1164 0.960 . S
H1151 C1164 0.961 . S
H1152 C1164 0.959 . S
H1153 C1167 0.929 . S
H1154 C1168 0.931 . S
H1155 C1170 0.930 . S
C1156 H1144 0.930 . S
C1156 C1157 1.399 . S
C1156 C1161 1.399 . S
C1157 C1156 1.399 . S
C1157 C1158 1.376 . S
C1158 H1145 0.930 . S
C1158 C1157 1.376 . S
C1158 C1159 1.388 . S
C1159 H1146 0.930 . S
C1159 C1158 1.388 . S
C1159 C1160 1.390 . S
C1160 C1159 1.390 . S
C1160 C1161 1.394 . S
C1160 C1166 1.465 . S
C1161 C1156 1.399 . S
C1161 C1160 1.394 . S
C1161 C1162 1.516 . S
C1162 C1161 1.516 . S
C1162 C1163 1.502 . S
C1162 C1164 1.561 . S
C1162 C1165 1.526 . S
C1163 H1147 0.959 . S
C1163 H1148 0.959 . S
C1163 H1149 0.961 . S
C1163 C1162 1.502 . S
C1164 H1150 0.960 . S
C1164 H1151 0.961 . S
C1164 H1152 0.959 . S
C1164 C1162 1.561 . S
C1165 C1162 1.526 . S
C1165 C1166 1.396 . S
C1165 C1170 1.390 . S
C1166 C1160 1.465 . S
C1166 C1165 1.396 . S
C1166 C1167 1.399 . S
C1167 H1153 0.929 . S
C1167 C1166 1.399 . S
C1167 C1168 1.385 . S
C1168 H1154 0.931 . S
C1168 C1167 1.385 . S
C1168 C1169 1.389 . S
C1169 C1168 1.389 . S
C1169 C1170 1.387 . S
C1170 H1155 0.930 . S
C1170 C1165 1.390 . S
C1170 C1169 1.387 . S
H1171 C1183 0.930 . S
H1172 C1185 0.930 . S
H1173 C1186 0.930 . S
H1174 C1190 0.959 . S
H1175 C1190 0.959 . S
H1176 C1190 0.961 . S
H1177 C1191 0.960 . S
H1178 C1191 0.961 . S
H1179 C1191 0.959 . S
H1180 C1194 0.929 . S
H1181 C1195 0.931 . S
H1182 C1197 0.930 . S
C1183 H1171 0.930 . S
C1183 C1184 1.399 . S
C1183 C1188 1.399 . S
C1184 C1183 1.399 . S
C1184 C1185 1.376 . S
C1185 H1172 0.930 . S
C1185 C1184 1.376 . S
C1185 C1186 1.388 . S
C1186 H1173 0.930 . S
C1186 C1185 1.388 . S
C1186 C1187 1.390 . S
C1187 C1186 1.390 . S
C1187 C1188 1.394 . S
C1187 C1193 1.465 . S
C1188 C1183 1.399 . S
C1188 C1187 1.394 . S
C1188 C1189 1.516 . S
C1189 C1188 1.516 . S
C1189 C1190 1.502 . S
C1189 C1191 1.561 . S
C1189 C1192 1.526 . S
C1190 H1174 0.959 . S
C1190 H1175 0.959 . S
C1190 H1176 0.961 . S
C1190 C1189 1.502 . S
C1191 H1177 0.960 . S
C1191 H1178 0.961 . S
C1191 H1179 0.959 . S
C1191 C1189 1.561 . S
C1192 C1189 1.526 . S
C1192 C1193 1.396 . S
C1192 C1197 1.390 . S
C1193 C1187 1.465 . S
C1193 C1192 1.396 . S
C1193 C1194 1.399 . S
C1194 H1180 0.929 . S
C1194 C1193 1.399 . S
C1194 C1195 1.385 . S
C1195 H1181 0.931 . S
C1195 C1194 1.385 . S
C1195 C1196 1.389 . S
C1196 C1195 1.389 . S
C1196 C1197 1.387 . S
C1197 H1182 0.930 . S
C1197 C1192 1.390 . S
C1197 C1196 1.387 . S
H1198 C1210 0.930 . S
H1199 C1212 0.930 . S
H1200 C1213 0.930 . S
H1201 C1217 0.959 . S
H1202 C1217 0.959 . S
H1203 C1217 0.961 . S
H1204 C1218 0.960 . S
H1205 C1218 0.961 . S
H1206 C1218 0.959 . S
H1207 C1221 0.929 . S
H1208 C1222 0.931 . S
H1209 C1224 0.930 . S
C1210 H1198 0.930 . S
C1210 C1211 1.399 . S
C1210 C1215 1.399 . S
C1211 C1210 1.399 . S
C1211 C1212 1.376 . S
C1212 H1199 0.930 . S
C1212 C1211 1.376 . S
C1212 C1213 1.388 . S
C1213 H1200 0.930 . S
C1213 C1212 1.388 . S
C1213 C1214 1.390 . S
C1214 C1213 1.390 . S
C1214 C1215 1.394 . S
C1214 C1220 1.465 . S
C1215 C1210 1.399 . S
C1215 C1214 1.394 . S
C1215 C1216 1.516 . S
C1216 C1215 1.516 . S
C1216 C1217 1.502 . S
C1216 C1218 1.561 . S
C1216 C1219 1.526 . S
C1217 H1201 0.959 . S
C1217 H1202 0.959 . S
C1217 H1203 0.961 . S
C1217 C1216 1.502 . S
C1218 H1204 0.960 . S
C1218 H1205 0.961 . S
C1218 H1206 0.959 . S
C1218 C1216 1.561 . S
C1219 C1216 1.526 . S
C1219 C1220 1.396 . S
C1219 C1224 1.390 . S
C1220 C1214 1.465 . S
C1220 C1219 1.396 . S
C1220 C1221 1.399 . S
C1221 H1207 0.929 . S
C1221 C1220 1.399 . S
C1221 C1222 1.385 . S
C1222 H1208 0.931 . S
C1222 C1221 1.385 . S
C1222 C1223 1.389 . S
C1223 C1222 1.389 . S
C1223 C1224 1.387 . S
C1224 H1209 0.930 . S
C1224 C1219 1.390 . S
C1224 C1223 1.387 . S
H1225 C1237 0.930 . S
H1226 C1239 0.930 . S
H1227 C1240 0.930 . S
H1228 C1244 0.959 . S
H1229 C1244 0.959 . S
H1230 C1244 0.961 . S
H1231 C1245 0.960 . S
H1232 C1245 0.961 . S
H1233 C1245 0.959 . S
H1234 C1248 0.929 . S
H1235 C1249 0.931 . S
H1236 C1251 0.930 . S
C1237 H1225 0.930 . S
C1237 C1238 1.399 . S
C1237 C1242 1.399 . S
C1238 C1237 1.399 . S
C1238 C1239 1.376 . S
C1239 H1226 0.930 . S
C1239 C1238 1.376 . S
C1239 C1240 1.388 . S
C1240 H1227 0.930 . S
C1240 C1239 1.388 . S
C1240 C1241 1.390 . S
C1241 C1240 1.390 . S
C1241 C1242 1.394 . S
C1241 C1247 1.465 . S
C1242 C1237 1.399 . S
C1242 C1241 1.394 . S
C1242 C1243 1.516 . S
C1243 C1242 1.516 . S
C1243 C1244 1.502 . S
C1243 C1245 1.561 . S
C1243 C1246 1.526 . S
C1244 H1228 0.959 . S
C1244 H1229 0.959 . S
C1244 H1230 0.961 . S
C1244 C1243 1.502 . S
C1245 H1231 0.960 . S
C1245 H1232 0.961 . S
C1245 H1233 0.959 . S
C1245 C1243 1.561 . S
C1246 C1243 1.526 . S
C1246 C1247 1.396 . S
C1246 C1251 1.390 . S
C1247 C1241 1.465 . S
C1247 C1246 1.396 . S
C1247 C1248 1.399 . S
C1248 H1234 0.929 . S
C1248 C1247 1.399 . S
C1248 C1249 1.385 . S
C1249 H1235 0.931 . S
C1249 C1248 1.385 . S
C1249 C1250 1.389 . S
C1250 C1249 1.389 . S
C1250 C1251 1.387 . S
C1251 H1236 0.930 . S
C1251 C1246 1.390 . S
C1251 C1250 1.387 . S
H1252 C1264 0.930 . S
H1253 C1266 0.930 . S
H1254 C1267 0.930 . S
H1255 C1271 0.959 . S
H1256 C1271 0.959 . S
H1257 C1271 0.961 . S
H1258 C1272 0.960 . S
H1259 C1272 0.961 . S
H1260 C1272 0.959 . S
H1261 C1275 0.929 . S
H1262 C1276 0.931 . S
H1263 C1278 0.930 . S
C1264 H1252 0.930 . S
C1264 C1265 1.399 . S
C1264 C1269 1.399 . S
C1265 C1264 1.399 . S
C1265 C1266 1.376 . S
C1266 H1253 0.930 . S
C1266 C1265 1.376 . S
C1266 C1267 1.388 . S
C1267 H1254 0.930 . S
C1267 C1266 1.388 . S
C1267 C1268 1.390 . S
C1268 C1267 1.390 . S
C1268 C1269 1.394 . S
C1268 C1274 1.465 . S
C1269 C1264 1.399 . S
C1269 C1268 1.394 . S
C1269 C1270 1.516 . S
C1270 C1269 1.516 . S
C1270 C1271 1.502 . S
C1270 C1272 1.561 . S
C1270 C1273 1.526 . S
C1271 H1255 0.959 . S
C1271 H1256 0.959 . S
C1271 H1257 0.961 . S
C1271 C1270 1.502 . S
C1272 H1258 0.960 . S
C1272 H1259 0.961 . S
C1272 H1260 0.959 . S
C1272 C1270 1.561 . S
C1273 C1270 1.526 . S
C1273 C1274 1.396 . S
C1273 C1278 1.390 . S
C1274 C1268 1.465 . S
C1274 C1273 1.396 . S
C1274 C1275 1.399 . S
C1275 H1261 0.929 . S
C1275 C1274 1.399 . S
C1275 C1276 1.385 . S
C1276 H1262 0.931 . S
C1276 C1275 1.385 . S
C1276 C1277 1.389 . S
C1277 C1276 1.389 . S
C1277 C1278 1.387 . S
C1278 H1263 0.930 . S
C1278 C1273 1.390 . S
C1278 C1277 1.387 . S
H1279 C1291 0.930 . S
H1280 C1293 0.930 . S
H1281 C1294 0.930 . S
H1282 C1298 0.959 . S
H1283 C1298 0.959 . S
H1284 C1298 0.961 . S
H1285 C1299 0.960 . S
H1286 C1299 0.961 . S
H1287 C1299 0.959 . S
H1288 C1302 0.929 . S
H1289 C1303 0.931 . S
H1290 C1305 0.930 . S
C1291 H1279 0.930 . S
C1291 C1292 1.399 1_545 S
C1291 C1296 1.399 1_545 S
C1292 C1291 1.399 1_565 S
C1292 C1293 1.376 . S
C1293 H1280 0.930 . S
C1293 C1292 1.376 . S
C1293 C1294 1.388 . S
C1294 H1281 0.930 . S
C1294 C1293 1.388 . S
C1294 C1295 1.390 . S
C1295 C1294 1.390 . S
C1295 C1296 1.394 . S
C1295 C1301 1.465 . S
C1296 C1291 1.399 1_565 S
C1296 C1295 1.394 . S
C1296 C1297 1.516 1_565 S
C1297 C1296 1.516 1_545 S
C1297 C1298 1.502 . S
C1297 C1299 1.561 . S
C1297 C1300 1.526 1_545 S
C1298 H1282 0.959 . S
C1298 H1283 0.959 . S
C1298 H1284 0.961 . S
C1298 C1297 1.502 . S
C1299 H1285 0.960 . S
C1299 H1286 0.961 . S
C1299 H1287 0.959 . S
C1299 C1297 1.561 . S
C1300 C1297 1.526 1_565 S
C1300 C1301 1.396 . S
C1300 C1305 1.390 . S
C1301 C1295 1.465 . S
C1301 C1300 1.396 . S
C1301 C1302 1.399 . S
C1302 H1288 0.929 . S
C1302 C1301 1.399 . S
C1302 C1303 1.385 . S
C1303 H1289 0.931 . S
C1303 C1302 1.385 . S
C1303 C1304 1.389 . S
C1304 C1303 1.389 . S
C1304 C1305 1.387 . S
C1305 H1290 0.930 . S
C1305 C1300 1.390 . S
C1305 C1304 1.387 . S
H1306 C1318 0.930 . S
H1307 C1320 0.930 . S
H1308 C1321 0.930 . S
H1309 C1325 0.959 . S
H1310 C1325 0.959 . S
H1311 C1325 0.961 . S
H1312 C1326 0.960 . S
H1313 C1326 0.961 . S
H1314 C1326 0.959 . S
H1315 C1329 0.929 . S
H1316 C1330 0.931 . S
H1317 C1332 0.930 . S
C1318 H1306 0.930 . S
C1318 C1319 1.399 . S
C1318 C1323 1.399 . S
C1319 C1318 1.399 . S
C1319 C1320 1.376 . S
C1320 H1307 0.930 . S
C1320 C1319 1.376 . S
C1320 C1321 1.388 . S
C1321 H1308 0.930 . S
C1321 C1320 1.388 . S
C1321 C1322 1.390 . S
C1322 C1321 1.390 . S
C1322 C1323 1.394 . S
C1322 C1328 1.465 . S
C1323 C1318 1.399 . S
C1323 C1322 1.394 . S
C1323 C1324 1.516 . S
C1324 C1323 1.516 . S
C1324 C1325 1.502 . S
C1324 C1326 1.561 . S
C1324 C1327 1.526 . S
C1325 H1309 0.959 . S
C1325 H1310 0.959 . S
C1325 H1311 0.961 . S
C1325 C1324 1.502 . S
C1326 H1312 0.960 . S
C1326 H1313 0.961 . S
C1326 H1314 0.959 . S
C1326 C1324 1.561 . S
C1327 C1324 1.526 . S
C1327 C1328 1.396 . S
C1327 C1332 1.390 . S
C1328 C1322 1.465 . S
C1328 C1327 1.396 . S
C1328 C1329 1.399 . S
C1329 H1315 0.929 . S
C1329 C1328 1.399 . S
C1329 C1330 1.385 . S
C1330 H1316 0.931 . S
C1330 C1329 1.385 . S
C1330 C1331 1.389 . S
C1331 C1330 1.389 . S
C1331 C1332 1.387 . S
C1332 H1317 0.930 . S
C1332 C1327 1.390 . S
C1332 C1331 1.387 . S
H1333 C1345 0.930 . S
H1334 C1347 0.930 1_565 S
H1335 C1348 0.930 1_565 S
H1336 C1352 0.959 . S
H1337 C1352 0.959 . S
H1338 C1352 0.961 . S
H1339 C1353 0.960 . S
H1340 C1353 0.961 . S
H1341 C1353 0.959 . S
H1342 C1356 0.929 1_565 S
H1343 C1357 0.931 1_565 S
H1344 C1359 0.930 . S
C1345 H1333 0.930 . S
C1345 C1346 1.399 . S
C1345 C1350 1.399 . S
C1346 C1345 1.399 . S
C1346 C1347 1.376 . S
C1347 H1334 0.930 1_545 S
C1347 C1346 1.376 . S
C1347 C1348 1.388 . S
C1348 H1335 0.930 1_545 S
C1348 C1347 1.388 . S
C1348 C1349 1.390 . S
C1349 C1348 1.390 . S
C1349 C1350 1.394 . S
C1349 C1355 1.465 . S
C1350 C1345 1.399 . S
C1350 C1349 1.394 . S
C1350 C1351 1.516 . S
C1351 C1350 1.516 . S
C1351 C1352 1.502 . S
C1351 C1353 1.561 . S
C1351 C1354 1.526 . S
C1352 H1336 0.959 . S
C1352 H1337 0.959 . S
C1352 H1338 0.961 . S
C1352 C1351 1.502 . S
C1353 H1339 0.960 . S
C1353 H1340 0.961 . S
C1353 H1341 0.959 . S
C1353 C1351 1.561 . S
C1354 C1351 1.526 . S
C1354 C1355 1.396 . S
C1354 C1359 1.390 . S
C1355 C1349 1.465 . S
C1355 C1354 1.396 . S
C1355 C1356 1.399 . S
C1356 H1342 0.929 1_545 S
C1356 C1355 1.399 . S
C1356 C1357 1.385 . S
C1357 H1343 0.931 1_545 S
C1357 C1356 1.385 . S
C1357 C1358 1.389 . S
C1358 C1357 1.389 . S
C1358 C1359 1.387 . S
C1359 H1344 0.930 . S
C1359 C1354 1.390 . S
C1359 C1358 1.387 . S
H1360 C1372 0.930 . S
H1361 C1374 0.930 . S
H1362 C1375 0.930 . S
H1363 C1379 0.959 . S
H1364 C1379 0.959 . S
H1365 C1379 0.961 . S
H1366 C1380 0.960 . S
H1367 C1380 0.961 . S
H1368 C1380 0.959 . S
H1369 C1383 0.929 . S
H1370 C1384 0.931 . S
H1371 C1386 0.930 . S
C1372 H1360 0.930 . S
C1372 C1373 1.399 . S
C1372 C1377 1.399 . S
C1373 C1372 1.399 . S
C1373 C1374 1.376 . S
C1374 H1361 0.930 . S
C1374 C1373 1.376 . S
C1374 C1375 1.388 . S
C1375 H1362 0.930 . S
C1375 C1374 1.388 . S
C1375 C1376 1.390 . S
C1376 C1375 1.390 . S
C1376 C1377 1.394 . S
C1376 C1382 1.465 . S
C1377 C1372 1.399 . S
C1377 C1376 1.394 . S
C1377 C1378 1.516 . S
C1378 C1377 1.516 . S
C1378 C1379 1.502 . S
C1378 C1380 1.561 . S
C1378 C1381 1.526 . S
C1379 H1363 0.959 . S
C1379 H1364 0.959 . S
C1379 H1365 0.961 . S
C1379 C1378 1.502 . S
C1380 H1366 0.960 . S
C1380 H1367 0.961 . S
C1380 H1368 0.959 . S
C1380 C1378 1.561 . S
C1381 C1378 1.526 . S
C1381 C1382 1.396 . S
C1381 C1386 1.390 . S
C1382 C1376 1.465 . S
C1382 C1381 1.396 . S
C1382 C1383 1.399 . S
C1383 H1369 0.929 . S
C1383 C1382 1.399 . S
C1383 C1384 1.385 . S
C1384 H1370 0.931 . S
C1384 C1383 1.385 . S
C1384 C1385 1.389 . S
C1385 C1384 1.389 . S
C1385 C1386 1.387 . S
C1386 H1371 0.930 . S
C1386 C1381 1.390 . S
C1386 C1385 1.387 . S
H1387 C1399 0.930 1_554 S
H1388 C1401 0.930 . S
H1389 C1402 0.930 . S
H1390 C1406 0.959 . S
H1391 C1406 0.971 . S
H1392 C1406 0.961 1_554 S
H1393 C1407 0.960 . S
H1394 C1407 0.961 . S
H1395 C1407 0.959 . S
H1396 C1410 0.929 . S
H1397 C1411 0.931 . S
H1398 C1413 0.930 . S
C1399 H1387 0.930 1_556 S
C1399 C1400 1.399 . S
C1399 C1404 1.399 . S
C1400 C1399 1.399 . S
C1400 C1401 1.376 . S
C1401 H1388 0.930 . S
C1401 C1400 1.376 . S
C1401 C1402 1.388 . S
C1402 H1389 0.930 . S
C1402 C1401 1.388 . S
C1402 C1403 1.390 . S
C1403 C1402 1.390 . S
C1403 C1404 1.394 . S
C1403 C1409 1.465 . S
C1404 C1399 1.399 . S
C1404 C1403 1.394 . S
C1404 C1405 1.516 . S
C1405 C1404 1.516 . S
C1405 C1406 1.502 . S
C1405 C1407 1.561 1_556 S
C1405 C1408 1.526 . S
C1406 H1390 0.959 . S
C1406 H1391 0.971 . S
C1406 H1392 0.961 1_556 S
C1406 C1405 1.502 . S
C1407 H1393 0.960 . S
C1407 H1394 0.961 . S
C1407 H1395 0.959 . S
C1407 C1405 1.561 1_554 S
C1408 C1405 1.526 . S
C1408 C1409 1.396 . S
C1408 C1413 1.390 . S
C1409 C1403 1.465 . S
C1409 C1408 1.396 . S
C1409 C1410 1.399 . S
C1410 H1396 0.929 . S
C1410 C1409 1.399 . S
C1410 C1411 1.385 . S
C1411 H1397 0.931 . S
C1411 C1410 1.385 . S
C1411 C1412 1.389 . S
C1412 C1411 1.389 . S
C1412 C1413 1.387 . S
C1413 H1398 0.930 . S
C1413 C1408 1.390 . S
C1413 C1412 1.387 . S
H1414 C1426 0.930 . S
H1415 C1428 0.930 . S
H1416 C1429 0.930 . S
H1417 C1433 0.959 . S
H1418 C1433 0.959 . S
H1419 C1433 0.961 . S
H1420 C1434 0.960 . S
H1421 C1434 0.961 . S
H1422 C1434 0.959 . S
H1423 C1437 0.929 . S
H1424 C1438 0.931 . S
H1425 C1440 0.930 . S
C1426 H1414 0.930 . S
C1426 C1427 1.399 . S
C1426 C1431 1.399 . S
C1427 C1426 1.399 . S
C1427 C1428 1.376 1_554 S
C1428 H1415 0.930 . S
C1428 C1427 1.376 1_556 S
C1428 C1429 1.388 . S
C1429 H1416 0.930 . S
C1429 C1428 1.388 . S
C1429 C1430 1.390 . S
C1430 C1429 1.390 . S
C1430 C1431 1.394 1_556 S
C1430 C1436 1.465 . S
C1431 C1426 1.399 . S
C1431 C1430 1.394 1_554 S
C1431 C1432 1.516 . S
C1432 C1431 1.516 . S
C1432 C1433 1.502 . S
C1432 C1434 1.561 . S
C1432 C1435 1.526 . S
C1433 H1417 0.959 . S
C1433 H1418 0.959 . S
C1433 H1419 0.961 . S
C1433 C1432 1.502 . S
C1434 H1420 0.960 . S
C1434 H1421 0.961 . S
C1434 H1422 0.959 . S
C1434 C1432 1.561 . S
C1435 C1432 1.526 . S
C1435 C1436 1.396 1_554 S
C1435 C1440 1.390 . S
C1436 C1430 1.465 . S
C1436 C1435 1.396 1_556 S
C1436 C1437 1.399 . S
C1437 H1423 0.929 . S
C1437 C1436 1.399 . S
C1437 C1438 1.385 . S
C1438 H1424 0.931 . S
C1438 C1437 1.385 . S
C1438 C1439 1.389 . S
C1439 C1438 1.389 . S
C1439 C1440 1.387 1_556 S
C1440 H1425 0.930 . S
C1440 C1435 1.390 . S
C1440 C1439 1.387 1_554 S
H1441 C1453 0.903 1_556 S
H1442 C1455 0.930 . S
H1443 C1456 0.930 . S
H1444 C1460 0.959 . S
H1445 C1460 0.959 . S
H1446 C1460 0.961 . S
H1447 C1461 0.960 . S
H1448 C1461 0.961 . S
H1449 C1461 0.959 . S
H1450 C1464 0.929 . S
H1451 C1465 0.931 1_455 S
H1452 C1467 0.930 1_556 S
C1453 H1441 0.903 1_554 S
C1453 C1454 1.420 . S
C1453 C1458 1.406 . S
C1454 C1453 1.420 . S
C1454 C1455 1.376 . S
C1455 H1442 0.930 . S
C1455 C1454 1.376 . S
C1455 C1456 1.388 . S
C1456 H1443 0.930 . S
C1456 C1455 1.388 . S
C1456 C1457 1.390 . S
C1457 C1456 1.390 . S
C1457 C1458 1.394 . S
C1457 C1463 1.465 . S
C1458 C1453 1.406 . S
C1458 C1457 1.394 . S
C1458 C1459 1.516 1_554 S
C1459 C1458 1.516 1_556 S
C1459 C1460 1.502 . S
C1459 C1461 1.561 . S
C1459 C1462 1.526 1_556 S
C1460 H1444 0.959 . S
C1460 H1445 0.959 . S
C1460 H1446 0.961 . S
C1460 C1459 1.502 . S
C1461 H1447 0.960 . S
C1461 H1448 0.961 . S
C1461 H1449 0.959 . S
C1461 C1459 1.561 . S
C1462 C1459 1.526 1_554 S
C1462 C1463 1.396 . S
C1462 C1467 1.390 . S
C1463 C1457 1.465 . S
C1463 C1462 1.396 . S
C1463 C1464 1.399 . S
C1464 H1450 0.929 . S
C1464 C1463 1.399 . S
C1464 C1465 1.385 . S
C1465 H1451 0.931 1_655 S
C1465 C1464 1.385 . S
C1465 C1466 1.389 . S
C1466 C1465 1.389 . S
C1466 C1467 1.387 . S
C1467 H1452 0.930 1_554 S
C1467 C1462 1.390 . S
C1467 C1466 1.387 . S
H1468 C1480 0.930 . S
H1469 C1482 0.917 1_655 S
H1470 C1483 0.930 1_655 S
H1471 C1487 0.959 . S
H1472 C1487 0.959 . S
H1473 C1487 0.961 . S
H1474 C1488 0.960 . S
H1475 C1488 0.961 . S
H1476 C1488 0.959 . S
H1477 C1491 0.908 1_655 S
H1478 C1492 0.931 . S
H1479 C1494 0.930 . S
C1480 H1468 0.930 . S
C1480 C1481 1.399 . S
C1480 C1485 1.399 . S
C1481 C1480 1.399 . S
C1481 C1482 1.388 . S
C1482 H1469 0.917 1_455 S
C1482 C1481 1.388 . S
C1482 C1483 1.390 . S
C1483 H1470 0.930 1_455 S
C1483 C1482 1.390 . S
C1483 C1484 1.390 . S
C1484 C1483 1.390 . S
C1484 C1485 1.394 . S
C1484 C1490 1.465 . S
C1485 C1480 1.399 . S
C1485 C1484 1.394 . S
C1485 C1486 1.516 . S
C1486 C1485 1.516 . S
C1486 C1487 1.502 . S
C1486 C1488 1.561 . S
C1486 C1489 1.526 . S
C1487 H1471 0.959 . S
C1487 H1472 0.959 . S
C1487 H1473 0.961 . S
C1487 C1486 1.502 . S
C1488 H1474 0.960 . S
C1488 H1475 0.961 . S
C1488 H1476 0.959 . S
C1488 C1486 1.561 . S
C1489 C1486 1.526 . S
C1489 C1490 1.396 . S
C1489 C1494 1.390 . S
C1490 C1484 1.465 . S
C1490 C1489 1.396 . S
C1490 C1491 1.399 . S
C1491 H1477 0.908 1_455 S
C1491 C1490 1.399 . S
C1491 C1492 1.385 . S
C1492 H1478 0.931 . S
C1492 C1491 1.385 . S
C1492 C1493 1.389 . S
C1493 C1492 1.389 . S
C1493 C1494 1.387 . S
C1494 H1479 0.930 . S
C1494 C1489 1.390 . S
C1494 C1493 1.387 . S
H1495 C1507 0.930 1_455 S
H1496 C1509 0.930 . S
H1497 C1510 0.930 . S
H1498 C1514 0.959 . S
H1499 C1514 0.959 . S
H1500 C1514 0.961 . S
H1501 C1515 0.960 . S
H1502 C1515 0.961 . S
H1503 C1515 0.959 . S
H1504 C1518 0.929 . S
H1505 C1519 0.931 . S
H1506 C1521 0.930 1_455 S
C1507 H1495 0.930 1_655 S
C1507 C1508 1.399 . S
C1507 C1512 1.399 . S
C1508 C1507 1.399 . S
C1508 C1509 1.376 . S
C1509 H1496 0.930 . S
C1509 C1508 1.376 . S
C1509 C1510 1.388 . S
C1510 H1497 0.930 . S
C1510 C1509 1.388 . S
C1510 C1511 1.390 . S
C1511 C1510 1.390 . S
C1511 C1512 1.394 . S
C1511 C1517 1.465 . S
C1512 C1507 1.399 . S
C1512 C1511 1.394 . S
C1512 C1513 1.516 1_655 S
C1513 C1512 1.516 1_455 S
C1513 C1514 1.502 . S
C1513 C1515 1.561 . S
C1513 C1516 1.526 1_455 S
C1514 H1498 0.959 . S
C1514 H1499 0.959 . S
C1514 H1500 0.961 . S
C1514 C1513 1.502 . S
C1515 H1501 0.960 . S
C1515 H1502 0.961 . S
C1515 H1503 0.959 . S
C1515 C1513 1.561 . S
C1516 C1513 1.526 1_655 S
C1516 C1517 1.396 . S
C1516 C1521 1.390 . S
C1517 C1511 1.465 . S
C1517 C1516 1.396 . S
C1517 C1518 1.399 . S
C1518 H1504 0.929 . S
C1518 C1517 1.399 . S
C1518 C1519 1.385 . S
C1519 H1505 0.931 . S
C1519 C1518 1.385 . S
C1519 C1520 1.389 . S
C1520 C1519 1.389 . S
C1520 C1521 1.387 . S
C1521 H1506 0.930 1_655 S
C1521 C1516 1.390 . S
C1521 C1520 1.387 . S
H1522 C1534 0.930 . S
H1523 C1536 0.930 . S
H1524 C1537 0.930 . S
H1525 C1541 0.959 . S
H1526 C1541 0.959 . S
H1527 C1541 0.961 . S
H1528 C1542 0.960 . S
H1529 C1542 0.961 . S
H1530 C1542 0.959 . S
H1531 C1545 0.929 . S
H1532 C1546 0.931 . S
H1533 C1548 0.930 . S
C1534 H1522 0.930 . S
C1534 C1535 1.399 . S
C1534 C1539 1.399 . S
C1535 C1534 1.399 . S
C1535 C1536 1.376 . S
C1536 H1523 0.930 . S
C1536 C1535 1.376 . S
C1536 C1537 1.388 . S
C1537 H1524 0.930 . S
C1537 C1536 1.388 . S
C1537 C1538 1.390 . S
C1538 C1537 1.390 . S
C1538 C1539 1.394 . S
C1538 C1544 1.465 . S
C1539 C1534 1.399 . S
C1539 C1538 1.394 . S
C1539 C1540 1.516 . S
C1540 C1539 1.516 . S
C1540 C1541 1.502 . S
C1540 C1542 1.561 . S
C1540 C1543 1.526 . S
C1541 H1525 0.959 . S
C1541 H1526 0.959 . S
C1541 H1527 0.961 . S
C1541 C1540 1.502 . S
C1542 H1528 0.960 . S
C1542 H1529 0.961 . S
C1542 H1530 0.959 . S
C1542 C1540 1.561 . S
C1543 C1540 1.526 . S
C1543 C1544 1.396 . S
C1543 C1548 1.390 . S
C1544 C1538 1.465 . S
C1544 C1543 1.396 . S
C1544 C1545 1.399 . S
C1545 H1531 0.929 . S
C1545 C1544 1.399 . S
C1545 C1546 1.385 . S
C1546 H1532 0.931 . S
C1546 C1545 1.385 . S
C1546 C1547 1.389 . S
C1547 C1546 1.389 . S
C1547 C1548 1.387 . S
C1548 H1533 0.930 . S
C1548 C1543 1.390 . S
C1548 C1547 1.387 . S
H1549 C1561 0.930 . S
H1550 C1563 0.930 . S
H1551 C1564 0.930 . S
H1552 C1568 0.959 . S
H1553 C1568 0.959 . S
H1554 C1568 0.961 . S
H1555 C1569 0.960 . S
H1556 C1569 0.961 . S
H1557 C1569 0.959 . S
H1558 C1572 0.929 . S
H1559 C1573 0.931 . S
H1560 C1575 0.930 . S
C1561 H1549 0.930 . S
C1561 C1562 1.399 1_655 S
C1561 C1566 1.399 . S
C1562 C1561 1.399 1_455 S
C1562 C1563 1.377 . S
C1563 H1550 0.930 . S
C1563 C1562 1.377 . S
C1563 C1564 1.388 . S
C1564 H1551 0.930 . S
C1564 C1563 1.388 . S
C1564 C1565 1.390 1_455 S
C1565 C1564 1.390 1_655 S
C1565 C1566 1.394 . S
C1565 C1571 1.465 . S
C1566 C1561 1.399 . S
C1566 C1565 1.394 . S
C1566 C1567 1.516 . S
C1567 C1566 1.516 . S
C1567 C1568 1.502 . S
C1567 C1569 1.561 1_655 S
C1567 C1570 1.526 . S
C1568 H1552 0.959 . S
C1568 H1553 0.959 . S
C1568 H1554 0.961 . S
C1568 C1567 1.502 . S
C1569 H1555 0.960 . S
C1569 H1556 0.961 . S
C1569 H1557 0.959 . S
C1569 C1567 1.561 1_455 S
C1570 C1567 1.526 . S
C1570 C1571 1.396 . S
C1570 C1575 1.390 . S
C1571 C1565 1.465 . S
C1571 C1570 1.396 . S
C1571 C1572 1.399 . S
C1572 H1558 0.929 . S
C1572 C1571 1.399 . S
C1572 C1573 1.385 . S
C1573 H1559 0.931 . S
C1573 C1572 1.385 . S
C1573 C1574 1.389 . S
C1574 C1573 1.389 . S
C1574 C1575 1.387 . S
C1575 H1560 0.930 . S
C1575 C1570 1.390 . S
C1575 C1574 1.387 . S
H1576 C1588 0.912 1_565 S
H1577 C1590 0.930 . S
H1578 C1591 0.930 . S
H1579 C1595 0.959 . S
H1580 C1595 0.959 1_565 S
H1581 C1595 0.961 1_565 S
H1582 C1596 0.960 . S
H1583 C1596 0.961 . S
H1584 C1596 0.959 . S
H1585 C1599 0.929 . S
H1586 C1600 0.931 . S
H1587 C1602 0.930 . S
C1588 H1576 0.912 1_545 S
C1588 C1589 1.399 . S
C1588 C1593 1.399 . S
C1589 C1588 1.399 . S
C1589 C1590 1.376 . S
C1590 H1577 0.930 . S
C1590 C1589 1.376 . S
C1590 C1591 1.388 . S
C1591 H1578 0.930 . S
C1591 C1590 1.388 . S
C1591 C1592 1.390 . S
C1592 C1591 1.390 . S
C1592 C1593 1.394 . S
C1592 C1598 1.465 . S
C1593 C1588 1.399 . S
C1593 C1592 1.394 . S
C1593 C1594 1.516 . S
C1594 C1593 1.516 . S
C1594 C1595 1.502 . S
C1594 C1596 1.561 1_545 S
C1594 C1597 1.526 . S
C1595 H1579 0.959 . S
C1595 H1580 0.959 1_545 S
C1595 H1581 0.961 1_545 S
C1595 C1594 1.502 . S
C1596 H1582 0.960 . S
C1596 H1583 0.961 . S
C1596 H1584 0.959 . S
C1596 C1594 1.561 1_565 S
C1597 C1594 1.526 . S
C1597 C1598 1.396 . S
C1597 C1602 1.390 . S
C1598 C1592 1.465 . S
C1598 C1597 1.396 . S
C1598 C1599 1.399 . S
C1599 H1585 0.929 . S
C1599 C1598 1.399 . S
C1599 C1600 1.385 . S
C1600 H1586 0.931 . S
C1600 C1599 1.385 . S
C1600 C1601 1.389 . S
C1601 C1600 1.389 . S
C1601 C1602 1.387 . S
C1602 H1587 0.930 . S
C1602 C1597 1.390 . S
C1602 C1601 1.387 . S
H1603 C1615 0.930 . S
H1604 C1617 0.930 . S
H1605 C1618 0.930 . S
H1606 C1622 0.959 . S
H1607 C1622 0.959 . S
H1608 C1622 0.961 . S
H1609 C1623 0.960 . S
H1610 C1623 0.961 . S
H1611 C1623 0.959 . S
H1612 C1626 0.929 . S
H1613 C1627 0.931 . S
H1614 C1629 0.930 . S
C1615 H1603 0.930 . S
C1615 C1616 1.399 . S
C1615 C1620 1.399 . S
C1616 C1615 1.399 . S
C1616 C1617 1.376 . S
C1617 H1604 0.930 . S
C1617 C1616 1.376 . S
C1617 C1618 1.388 . S
C1618 H1605 0.930 . S
C1618 C1617 1.388 . S
C1618 C1619 1.390 . S
C1619 C1618 1.390 . S
C1619 C1620 1.394 . S
C1619 C1625 1.465 . S
C1620 C1615 1.399 . S
C1620 C1619 1.394 . S
C1620 C1621 1.516 . S
C1621 C1620 1.516 . S
C1621 C1622 1.502 . S
C1621 C1623 1.561 . S
C1621 C1624 1.526 . S
C1622 H1606 0.959 . S
C1622 H1607 0.959 . S
C1622 H1608 0.961 . S
C1622 C1621 1.502 . S
C1623 H1609 0.960 . S
C1623 H1610 0.961 . S
C1623 H1611 0.959 . S
C1623 C1621 1.561 . S
C1624 C1621 1.526 . S
C1624 C1625 1.396 . S
C1624 C1629 1.390 . S
C1625 C1619 1.465 . S
C1625 C1624 1.396 . S
C1625 C1626 1.399 . S
C1626 H1612 0.929 . S
C1626 C1625 1.399 . S
C1626 C1627 1.385 . S
C1627 H1613 0.931 . S
C1627 C1626 1.385 . S
C1627 C1628 1.389 . S
C1628 C1627 1.389 . S
C1628 C1629 1.387 . S
C1629 H1614 0.930 . S
C1629 C1624 1.390 . S
C1629 C1628 1.387 . S
H1630 C1642 0.930 1_545 S
H1631 C1644 0.930 . S
H1632 C1645 0.930 . S
H1633 C1649 0.959 . S
H1634 C1649 0.959 . S
H1635 C1649 0.961 . S
H1636 C1650 0.960 . S
H1637 C1650 0.961 . S
H1638 C1650 0.959 . S
H1639 C1653 0.929 . S
H1640 C1654 0.931 . S
H1641 C1656 0.930 1_545 S
C1642 H1630 0.930 1_565 S
C1642 C1643 1.399 . S
C1642 C1647 1.399 . S
C1643 C1642 1.399 . S
C1643 C1644 1.376 . S
C1644 H1631 0.930 . S
C1644 C1643 1.376 . S
C1644 C1645 1.388 . S
C1645 H1632 0.930 . S
C1645 C1644 1.388 . S
C1645 C1646 1.390 . S
C1646 C1645 1.390 . S
C1646 C1647 1.394 . S
C1646 C1652 1.465 . S
C1647 C1642 1.399 . S
C1647 C1646 1.394 . S
C1647 C1648 1.516 1_565 S
C1648 C1647 1.516 1_545 S
C1648 C1649 1.502 . S
C1648 C1650 1.561 . S
C1648 C1651 1.526 1_545 S
C1649 H1633 0.959 . S
C1649 H1634 0.959 . S
C1649 H1635 0.961 . S
C1649 C1648 1.502 . S
C1650 H1636 0.960 . S
C1650 H1637 0.961 . S
C1650 H1638 0.959 . S
C1650 C1648 1.561 . S
C1651 C1648 1.526 1_565 S
C1651 C1652 1.396 . S
C1651 C1656 1.390 . S
C1652 C1646 1.465 . S
C1652 C1651 1.396 . S
C1652 C1653 1.399 . S
C1653 H1639 0.929 . S
C1653 C1652 1.399 . S
C1653 C1654 1.385 . S
C1654 H1640 0.931 . S
C1654 C1653 1.385 . S
C1654 C1655 1.389 . S
C1655 C1654 1.389 . S
C1655 C1656 1.387 . S
C1656 H1641 0.930 1_565 S
C1656 C1651 1.390 . S
C1656 C1655 1.387 . S
H1657 C1669 0.930 . S
H1658 C1671 0.930 . S
H1659 C1672 0.930 . S
H1660 C1676 0.959 . S
H1661 C1676 0.959 . S
H1662 C1676 0.961 . S
H1663 C1677 0.960 . S
H1664 C1677 0.961 . S
H1665 C1677 0.959 . S
H1666 C1680 0.929 . S
H1667 C1681 0.931 . S
H1668 C1683 0.930 . S
C1669 H1657 0.930 . S
C1669 C1670 1.399 . S
C1669 C1674 1.399 . S
C1670 C1669 1.399 . S
C1670 C1671 1.376 . S
C1671 H1658 0.930 . S
C1671 C1670 1.376 . S
C1671 C1672 1.388 . S
C1672 H1659 0.930 . S
C1672 C1671 1.388 . S
C1672 C1673 1.390 . S
C1673 C1672 1.390 . S
C1673 C1674 1.394 . S
C1673 C1679 1.465 . S
C1674 C1669 1.399 . S
C1674 C1673 1.394 . S
C1674 C1675 1.516 . S
C1675 C1674 1.516 . S
C1675 C1676 1.502 . S
C1675 C1677 1.561 . S
C1675 C1678 1.526 . S
C1676 H1660 0.959 . S
C1676 H1661 0.959 . S
C1676 H1662 0.961 . S
C1676 C1675 1.502 . S
C1677 H1663 0.960 . S
C1677 H1664 0.961 . S
C1677 H1665 0.959 . S
C1677 C1675 1.561 . S
C1678 C1675 1.526 . S
C1678 C1679 1.396 . S
C1678 C1683 1.390 . S
C1679 C1673 1.465 . S
C1679 C1678 1.396 . S
C1679 C1680 1.399 . S
C1680 H1666 0.929 . S
C1680 C1679 1.399 . S
C1680 C1681 1.385 . S
C1681 H1667 0.931 . S
C1681 C1680 1.385 . S
C1681 C1682 1.389 . S
C1682 C1681 1.389 . S
C1682 C1683 1.387 . S
C1683 H1668 0.930 . S
C1683 C1678 1.390 . S
C1683 C1682 1.387 . S
H1684 C1696 0.930 . S
H1685 C1698 0.930 . S
H1686 C1699 0.930 . S
H1687 C1703 0.959 . S
H1688 C1703 0.959 . S
H1689 C1703 0.961 . S
H1690 C1704 0.960 1_556 S
H1691 C1704 0.961 1_556 S
H1692 C1704 0.959 . S
H1693 C1707 0.929 . S
H1694 C1708 0.931 . S
H1695 C1710 0.930 . S
C1696 H1684 0.930 . S
C1696 C1697 1.399 . S
C1696 C1701 1.399 . S
C1697 C1696 1.399 . S
C1697 C1698 1.376 . S
C1698 H1685 0.930 . S
C1698 C1697 1.376 . S
C1698 C1699 1.388 . S
C1699 H1686 0.930 . S
C1699 C1698 1.388 . S
C1699 C1700 1.390 . S
C1700 C1699 1.390 . S
C1700 C1701 1.394 . S
C1700 C1706 1.465 . S
C1701 C1696 1.399 . S
C1701 C1700 1.394 . S
C1701 C1702 1.516 . S
C1702 C1701 1.516 . S
C1702 C1703 1.502 1_554 S
C1702 C1704 1.561 . S
C1702 C1705 1.526 . S
C1703 H1687 0.959 . S
C1703 H1688 0.959 . S
C1703 H1689 0.961 . S
C1703 C1702 1.502 1_556 S
C1704 H1690 0.960 1_554 S
C1704 H1691 0.961 1_554 S
C1704 H1692 0.959 . S
C1704 C1702 1.561 . S
C1705 C1702 1.526 . S
C1705 C1706 1.396 . S
C1705 C1710 1.390 . S
C1706 C1700 1.465 . S
C1706 C1705 1.396 . S
C1706 C1707 1.399 . S
C1707 H1693 0.929 . S
C1707 C1706 1.399 . S
C1707 C1708 1.385 . S
C1708 H1694 0.931 . S
C1708 C1707 1.385 . S
C1708 C1709 1.389 . S
C1709 C1708 1.389 . S
C1709 C1710 1.387 . S
C1710 H1695 0.930 . S
C1710 C1705 1.390 . S
C1710 C1709 1.387 . S
H1711 C1723 0.930 . S
H1712 C1725 0.930 . S
H1713 C1726 0.930 . S
H1714 C1730 0.959 . S
H1715 C1730 0.959 . S
H1716 C1730 0.961 . S
H1717 C1731 0.960 . S
H1718 C1731 0.961 . S
H1719 C1731 0.959 . S
H1720 C1734 0.929 . S
H1721 C1735 0.931 . S
H1722 C1737 0.930 . S
C1723 H1711 0.930 . S
C1723 C1724 1.399 . S
C1723 C1728 1.399 . S
C1724 C1723 1.399 . S
C1724 C1725 1.376 . S
C1725 H1712 0.930 . S
C1725 C1724 1.376 . S
C1725 C1726 1.388 . S
C1726 H1713 0.930 . S
C1726 C1725 1.388 . S
C1726 C1727 1.390 . S
C1727 C1726 1.390 . S
C1727 C1728 1.394 . S
C1727 C1733 1.465 . S
C1728 C1723 1.399 . S
C1728 C1727 1.394 . S
C1728 C1729 1.516 . S
C1729 C1728 1.516 . S
C1729 C1730 1.502 . S
C1729 C1731 1.561 . S
C1729 C1732 1.526 . S
C1730 H1714 0.959 . S
C1730 H1715 0.959 . S
C1730 H1716 0.961 . S
C1730 C1729 1.502 . S
C1731 H1717 0.960 . S
C1731 H1718 0.961 . S
C1731 H1719 0.959 . S
C1731 C1729 1.561 . S
C1732 C1729 1.526 . S
C1732 C1733 1.396 . S
C1732 C1737 1.390 . S
C1733 C1727 1.465 . S
C1733 C1732 1.396 . S
C1733 C1734 1.399 . S
C1734 H1720 0.929 . S
C1734 C1733 1.399 . S
C1734 C1735 1.385 . S
C1735 H1721 0.931 . S
C1735 C1734 1.385 . S
C1735 C1736 1.389 . S
C1736 C1735 1.389 . S
C1736 C1737 1.387 . S
C1737 H1722 0.930 . S
C1737 C1732 1.390 . S
C1737 C1736 1.387 . S
H1738 C1750 0.930 . S
H1739 C1752 0.930 . S
H1740 C1753 0.930 . S
H1741 C1757 0.959 . S
H1742 C1757 0.959 . S
H1743 C1757 0.961 . S
H1744 C1758 0.960 . S
H1745 C1758 0.961 . S
H1746 C1758 0.959 . S
H1747 C1761 0.929 . S
H1748 C1762 0.931 . S
H1749 C1764 0.930 . S
C1750 H1738 0.930 . S
C1750 C1751 1.399 . S
C1750 C1755 1.399 . S
C1751 C1750 1.399 . S
C1751 C1752 1.376 . S
C1752 H1739 0.930 . S
C1752 C1751 1.376 . S
C1752 C1753 1.388 . S
C1753 H1740 0.930 . S
C1753 C1752 1.388 . S
C1753 C1754 1.390 . S
C1754 C1753 1.390 . S
C1754 C1755 1.394 . S
C1754 C1760 1.465 . S
C1755 C1750 1.399 . S
C1755 C1754 1.394 . S
C1755 C1756 1.516 . S
C1756 C1755 1.516 . S
C1756 C1757 1.502 . S
C1756 C1758 1.561 . S
C1756 C1759 1.526 . S
C1757 H1741 0.959 . S
C1757 H1742 0.959 . S
C1757 H1743 0.961 . S
C1757 C1756 1.502 . S
C1758 H1744 0.960 . S
C1758 H1745 0.961 . S
C1758 H1746 0.959 . S
C1758 C1756 1.561 . S
C1759 C1756 1.526 . S
C1759 C1760 1.396 . S
C1759 C1764 1.390 . S
C1760 C1754 1.465 . S
C1760 C1759 1.396 . S
C1760 C1761 1.399 . S
C1761 H1747 0.929 . S
C1761 C1760 1.399 . S
C1761 C1762 1.385 . S
C1762 H1748 0.931 . S
C1762 C1761 1.385 . S
C1762 C1763 1.389 . S
C1763 C1762 1.389 . S
C1763 C1764 1.387 . S
C1764 H1749 0.930 . S
C1764 C1759 1.390 . S
C1764 C1763 1.387 . S
H1765 C1777 0.930 . S
H1766 C1779 0.930 . S
H1767 C1780 0.930 . S
H1768 C1784 0.959 . S
H1769 C1784 0.959 . S
H1770 C1784 0.961 . S
H1771 C1785 0.960 . S
H1772 C1785 0.961 . S
H1773 C1785 0.959 . S
H1774 C1788 0.929 . S
H1775 C1789 0.931 . S
H1776 C1791 0.930 . S
C1777 H1765 0.930 . S
C1777 C1778 1.399 . S
C1777 C1782 1.399 . S
C1778 C1777 1.399 . S
C1778 C1779 1.376 . S
C1779 H1766 0.930 . S
C1779 C1778 1.376 . S
C1779 C1780 1.388 . S
C1780 H1767 0.930 . S
C1780 C1779 1.388 . S
C1780 C1781 1.390 . S
C1781 C1780 1.390 . S
C1781 C1782 1.394 . S
C1781 C1787 1.465 . S
C1782 C1777 1.399 . S
C1782 C1781 1.394 . S
C1782 C1783 1.516 . S
C1783 C1782 1.516 . S
C1783 C1784 1.502 . S
C1783 C1785 1.561 . S
C1783 C1786 1.526 . S
C1784 H1768 0.959 . S
C1784 H1769 0.959 . S
C1784 H1770 0.961 . S
C1784 C1783 1.502 . S
C1785 H1771 0.960 . S
C1785 H1772 0.961 . S
C1785 H1773 0.959 . S
C1785 C1783 1.561 . S
C1786 C1783 1.526 . S
C1786 C1787 1.396 . S
C1786 C1791 1.390 . S
C1787 C1781 1.465 . S
C1787 C1786 1.396 . S
C1787 C1788 1.399 . S
C1788 H1774 0.929 . S
C1788 C1787 1.399 . S
C1788 C1789 1.385 . S
C1789 H1775 0.931 . S
C1789 C1788 1.385 . S
C1789 C1790 1.389 . S
C1790 C1789 1.389 . S
C1790 C1791 1.387 . S
C1791 H1776 0.930 . S
C1791 C1786 1.390 . S
C1791 C1790 1.387 . S
H1792 C1804 0.930 . S
H1793 C1806 0.930 . S
H1794 C1807 0.930 . S
H1795 C1811 0.959 . S
H1796 C1811 0.959 . S
H1797 C1811 0.961 . S
H1798 C1812 0.960 . S
H1799 C1812 0.961 . S
H1800 C1812 0.959 . S
H1801 C1815 0.929 . S
H1802 C1816 0.931 . S
H1803 C1818 0.930 . S
C1804 H1792 0.930 . S
C1804 C1805 1.399 . S
C1804 C1809 1.399 . S
C1805 C1804 1.399 . S
C1805 C1806 1.376 . S
C1806 H1793 0.930 . S
C1806 C1805 1.376 . S
C1806 C1807 1.388 . S
C1807 H1794 0.930 . S
C1807 C1806 1.388 . S
C1807 C1808 1.390 . S
C1808 C1807 1.390 . S
C1808 C1809 1.394 . S
C1808 C1814 1.465 . S
C1809 C1804 1.399 . S
C1809 C1808 1.394 . S
C1809 C1810 1.516 . S
C1810 C1809 1.516 . S
C1810 C1811 1.502 . S
C1810 C1812 1.561 . S
C1810 C1813 1.526 . S
C1811 H1795 0.959 . S
C1811 H1796 0.959 . S
C1811 H1797 0.961 . S
C1811 C1810 1.502 . S
C1812 H1798 0.960 . S
C1812 H1799 0.961 . S
C1812 H1800 0.959 . S
C1812 C1810 1.561 . S
C1813 C1810 1.526 . S
C1813 C1814 1.396 . S
C1813 C1818 1.390 . S
C1814 C1808 1.465 . S
C1814 C1813 1.396 . S
C1814 C1815 1.399 . S
C1815 H1801 0.929 . S
C1815 C1814 1.399 . S
C1815 C1816 1.385 . S
C1816 H1802 0.931 . S
C1816 C1815 1.385 . S
C1816 C1817 1.389 . S
C1817 C1816 1.389 . S
C1817 C1818 1.387 . S
C1818 H1803 0.930 . S
C1818 C1813 1.390 . S
C1818 C1817 1.387 . S
H1819 C1831 0.930 . S
H1820 C1833 0.930 . S
H1821 C1834 0.930 . S
H1822 C1838 0.959 . S
H1823 C1838 0.959 . S
H1824 C1838 0.961 . S
H1825 C1839 0.960 . S
H1826 C1839 0.961 . S
H1827 C1839 0.959 . S
H1828 C1842 0.929 . S
H1829 C1843 0.931 . S
H1830 C1845 0.930 . S
C1831 H1819 0.930 . S
C1831 C1832 1.399 . S
C1831 C1836 1.399 . S
C1832 C1831 1.399 . S
C1832 C1833 1.376 . S
C1833 H1820 0.930 . S
C1833 C1832 1.376 . S
C1833 C1834 1.388 . S
C1834 H1821 0.930 . S
C1834 C1833 1.388 . S
C1834 C1835 1.390 . S
C1835 C1834 1.390 . S
C1835 C1836 1.394 . S
C1835 C1841 1.465 . S
C1836 C1831 1.399 . S
C1836 C1835 1.394 . S
C1836 C1837 1.516 . S
C1837 C1836 1.516 . S
C1837 C1838 1.502 . S
C1837 C1839 1.561 . S
C1837 C1840 1.526 . S
C1838 H1822 0.959 . S
C1838 H1823 0.959 . S
C1838 H1824 0.961 . S
C1838 C1837 1.502 . S
C1839 H1825 0.960 . S
C1839 H1826 0.961 . S
C1839 H1827 0.959 . S
C1839 C1837 1.561 . S
C1840 C1837 1.526 . S
C1840 C1841 1.396 . S
C1840 C1845 1.390 . S
C1841 C1835 1.465 . S
C1841 C1840 1.396 . S
C1841 C1842 1.399 . S
C1842 H1828 0.929 . S
C1842 C1841 1.399 . S
C1842 C1843 1.385 . S
C1843 H1829 0.931 . S
C1843 C1842 1.385 . S
C1843 C1844 1.389 . S
C1844 C1843 1.389 . S
C1844 C1845 1.387 . S
C1845 H1830 0.930 . S
C1845 C1840 1.390 . S
C1845 C1844 1.387 . S
H1846 C1858 0.930 . S
H1847 C1860 0.930 . S
H1848 C1861 0.930 . S
H1849 C1865 0.959 . S
H1850 C1865 0.959 . S
H1851 C1865 0.961 . S
H1852 C1866 0.960 . S
H1853 C1866 0.961 . S
H1854 C1866 0.959 . S
H1855 C1869 0.929 . S
H1856 C1870 0.931 . S
H1857 C1872 0.930 . S
C1858 H1846 0.930 . S
C1858 C1859 1.399 . S
C1858 C1863 1.399 . S
C1859 C1858 1.399 . S
C1859 C1860 1.376 . S
C1860 H1847 0.930 . S
C1860 C1859 1.376 . S
C1860 C1861 1.388 . S
C1861 H1848 0.930 . S
C1861 C1860 1.388 . S
C1861 C1862 1.390 . S
C1862 C1861 1.390 . S
C1862 C1863 1.394 . S
C1862 C1868 1.465 . S
C1863 C1858 1.399 . S
C1863 C1862 1.394 . S
C1863 C1864 1.516 . S
C1864 C1863 1.516 . S
C1864 C1865 1.502 . S
C1864 C1866 1.561 . S
C1864 C1867 1.526 . S
C1865 H1849 0.959 . S
C1865 H1850 0.959 . S
C1865 H1851 0.961 . S
C1865 C1864 1.502 . S
C1866 H1852 0.960 . S
C1866 H1853 0.961 . S
C1866 H1854 0.959 . S
C1866 C1864 1.561 . S
C1867 C1864 1.526 . S
C1867 C1868 1.396 . S
C1867 C1872 1.390 . S
C1868 C1862 1.465 . S
C1868 C1867 1.396 . S
C1868 C1869 1.399 . S
C1869 H1855 0.929 . S
C1869 C1868 1.399 . S
C1869 C1870 1.385 . S
C1870 H1856 0.931 . S
C1870 C1869 1.385 . S
C1870 C1871 1.389 . S
C1871 C1870 1.389 . S
C1871 C1872 1.387 . S
C1872 H1857 0.930 . S
C1872 C1867 1.390 . S
C1872 C1871 1.387 . S
H1873 C1885 0.930 . S
H1874 C1887 0.930 . S
H1875 C1888 0.930 . S
H1876 C1892 0.959 . S
H1877 C1892 0.959 . S
H1878 C1892 0.961 . S
H1879 C1893 0.960 . S
H1880 C1893 0.961 . S
H1881 C1893 0.959 . S
H1882 C1896 0.929 . S
H1883 C1897 0.931 . S
H1884 C1899 0.930 . S
C1885 H1873 0.930 . S
C1885 C1886 1.399 . S
C1885 C1890 1.399 . S
C1886 C1885 1.399 . S
C1886 C1887 1.376 . S
C1887 H1874 0.930 . S
C1887 C1886 1.376 . S
C1887 C1888 1.388 . S
C1888 H1875 0.930 . S
C1888 C1887 1.388 . S
C1888 C1889 1.390 . S
C1889 C1888 1.390 . S
C1889 C1890 1.394 . S
C1889 C1895 1.465 . S
C1890 C1885 1.399 . S
C1890 C1889 1.394 . S
C1890 C1891 1.516 . S
C1891 C1890 1.516 . S
C1891 C1892 1.502 . S
C1891 C1893 1.561 . S
C1891 C1894 1.526 . S
C1892 H1876 0.959 . S
C1892 H1877 0.959 . S
C1892 H1878 0.961 . S
C1892 C1891 1.502 . S
C1893 H1879 0.960 . S
C1893 H1880 0.961 . S
C1893 H1881 0.959 . S
C1893 C1891 1.561 . S
C1894 C1891 1.526 . S
C1894 C1895 1.396 . S
C1894 C1899 1.390 . S
C1895 C1889 1.465 . S
C1895 C1894 1.396 . S
C1895 C1896 1.399 . S
C1896 H1882 0.929 . S
C1896 C1895 1.399 . S
C1896 C1897 1.385 . S
C1897 H1883 0.931 . S
C1897 C1896 1.385 . S
C1897 C1898 1.389 . S
C1898 C1897 1.389 . S
C1898 C1899 1.387 . S
C1899 H1884 0.930 . S
C1899 C1894 1.390 . S
C1899 C1898 1.387 . S
H1900 C1912 0.930 . S
H1901 C1914 0.930 . S
H1902 C1915 0.930 . S
H1903 C1919 0.959 . S
H1904 C1919 0.959 . S
H1905 C1919 0.961 . S
H1906 C1920 0.960 . S
H1907 C1920 0.961 . S
H1908 C1920 0.959 . S
H1909 C1923 0.929 . S
H1910 C1924 0.931 . S
H1911 C1926 0.930 . S
C1912 H1900 0.930 . S
C1912 C1913 1.399 . S
C1912 C1917 1.399 . S
C1913 C1912 1.399 . S
C1913 C1914 1.376 . S
C1914 H1901 0.930 . S
C1914 C1913 1.376 . S
C1914 C1915 1.388 . S
C1915 H1902 0.930 . S
C1915 C1914 1.388 . S
C1915 C1916 1.390 . S
C1916 C1915 1.390 . S
C1916 C1917 1.394 . S
C1916 C1922 1.465 . S
C1917 C1912 1.399 . S
C1917 C1916 1.394 . S
C1917 C1918 1.516 . S
C1918 C1917 1.516 . S
C1918 C1919 1.502 . S
C1918 C1920 1.561 . S
C1918 C1921 1.526 . S
C1919 H1903 0.959 . S
C1919 H1904 0.959 . S
C1919 H1905 0.961 . S
C1919 C1918 1.502 . S
C1920 H1906 0.960 . S
C1920 H1907 0.961 . S
C1920 H1908 0.959 . S
C1920 C1918 1.561 . S
C1921 C1918 1.526 . S
C1921 C1922 1.396 . S
C1921 C1926 1.390 . S
C1922 C1916 1.465 . S
C1922 C1921 1.396 . S
C1922 C1923 1.399 . S
C1923 H1909 0.929 . S
C1923 C1922 1.399 . S
C1923 C1924 1.385 . S
C1924 H1910 0.931 . S
C1924 C1923 1.385 . S
C1924 C1925 1.389 . S
C1925 C1924 1.389 . S
C1925 C1926 1.387 . S
C1926 H1911 0.930 . S
C1926 C1921 1.390 . S
C1926 C1925 1.387 . S
H1927 C1939 0.930 . S
H1928 C1941 0.930 . S
H1929 C1942 0.930 . S
H1930 C1946 0.959 1_565 S
H1931 C1946 0.959 . S
H1932 C1946 0.961 . S
H1933 C1947 0.960 . S
H1934 C1947 0.961 . S
H1935 C1947 0.959 . S
H1936 C1950 0.929 . S
H1937 C1951 0.931 . S
H1938 C1953 0.930 . S
C1939 H1927 0.930 . S
C1939 C1940 1.399 1_545 S
C1939 C1944 1.399 1_545 S
C1940 C1939 1.399 1_565 S
C1940 C1941 1.376 . S
C1941 H1928 0.930 . S
C1941 C1940 1.376 . S
C1941 C1942 1.388 . S
C1942 H1929 0.930 . S
C1942 C1941 1.388 . S
C1942 C1943 1.390 . S
C1943 C1942 1.390 . S
C1943 C1944 1.394 . S
C1943 C1949 1.465 . S
C1944 C1939 1.399 1_565 S
C1944 C1943 1.394 . S
C1944 C1945 1.516 1_565 S
C1945 C1944 1.516 1_545 S
C1945 C1946 1.502 . S
C1945 C1947 1.561 . S
C1945 C1948 1.526 1_545 S
C1946 H1930 0.959 1_545 S
C1946 H1931 0.959 . S
C1946 H1932 0.961 . S
C1946 C1945 1.502 . S
C1947 H1933 0.960 . S
C1947 H1934 0.961 . S
C1947 H1935 0.959 . S
C1947 C1945 1.561 . S
C1948 C1945 1.526 1_565 S
C1948 C1949 1.396 . S
C1948 C1953 1.390 . S
C1949 C1943 1.465 . S
C1949 C1948 1.396 . S
C1949 C1950 1.399 . S
C1950 H1936 0.929 . S
C1950 C1949 1.399 . S
C1950 C1951 1.385 . S
C1951 H1937 0.931 . S
C1951 C1950 1.385 . S
C1951 C1952 1.389 . S
C1952 C1951 1.389 . S
C1952 C1953 1.387 . S
C1953 H1938 0.930 . S
C1953 C1948 1.390 . S
C1953 C1952 1.387 . S
H1954 C1966 0.930 . S
H1955 C1968 0.930 . S
H1956 C1969 0.930 . S
H1957 C1973 0.959 . S
H1958 C1973 0.959 . S
H1959 C1973 0.961 . S
H1960 C1974 0.960 . S
H1961 C1974 0.961 . S
H1962 C1974 0.959 . S
H1963 C1977 0.929 . S
H1964 C1978 0.931 . S
H1965 C1980 0.930 . S
C1966 H1954 0.930 . S
C1966 C1967 1.399 . S
C1966 C1971 1.399 . S
C1967 C1966 1.399 . S
C1967 C1968 1.376 . S
C1968 H1955 0.930 . S
C1968 C1967 1.376 . S
C1968 C1969 1.388 . S
C1969 H1956 0.930 . S
C1969 C1968 1.388 . S
C1969 C1970 1.390 . S
C1970 C1969 1.390 . S
C1970 C1971 1.394 . S
C1970 C1976 1.465 . S
C1971 C1966 1.399 . S
C1971 C1970 1.394 . S
C1971 C1972 1.516 . S
C1972 C1971 1.516 . S
C1972 C1973 1.502 . S
C1972 C1974 1.561 . S
C1972 C1975 1.526 . S
C1973 H1957 0.959 . S
C1973 H1958 0.959 . S
C1973 H1959 0.961 . S
C1973 C1972 1.502 . S
C1974 H1960 0.960 . S
C1974 H1961 0.961 . S
C1974 H1962 0.959 . S
C1974 C1972 1.561 . S
C1975 C1972 1.526 . S
C1975 C1976 1.396 . S
C1975 C1980 1.390 . S
C1976 C1970 1.465 . S
C1976 C1975 1.396 . S
C1976 C1977 1.399 . S
C1977 H1963 0.929 . S
C1977 C1976 1.399 . S
C1977 C1978 1.385 . S
C1978 H1964 0.931 . S
C1978 C1977 1.385 . S
C1978 C1979 1.389 . S
C1979 C1978 1.389 . S
C1979 C1980 1.387 . S
C1980 H1965 0.930 . S
C1980 C1975 1.390 . S
C1980 C1979 1.387 . S
H1981 C1993 0.930 . S
H1982 C1995 0.930 . S
H1983 C1996 0.907 1_565 S
H1984 C2000 0.959 . S
H1985 C2000 0.959 . S
H1986 C2000 0.961 . S
H1987 C2001 0.960 . S
H1988 C2001 0.961 . S
H1989 C2001 0.959 . S
H1990 C2004 0.929 . S
H1991 C2005 0.931 . S
H1992 C2007 0.930 . S
C1993 H1981 0.930 . S
C1993 C1994 1.399 . S
C1993 C1998 1.399 . S
C1994 C1993 1.399 . S
C1994 C1995 1.376 . S
C1995 H1982 0.930 . S
C1995 C1994 1.376 . S
C1995 C1996 1.388 . S
C1996 H1983 0.907 1_545 S
C1996 C1995 1.388 . S
C1996 C1997 1.390 . S
C1997 C1996 1.390 . S
C1997 C1998 1.394 . S
C1997 C2003 1.465 . S
C1998 C1993 1.399 . S
C1998 C1997 1.394 . S
C1998 C1999 1.516 . S
C1999 C1998 1.516 . S
C1999 C2000 1.502 . S
C1999 C2001 1.561 . S
C1999 C2002 1.526 . S
C2000 H1984 0.959 . S
C2000 H1985 0.959 . S
C2000 H1986 0.961 . S
C2000 C1999 1.502 . S
C2001 H1987 0.960 . S
C2001 H1988 0.961 . S
C2001 H1989 0.959 . S
C2001 C1999 1.561 . S
C2002 C1999 1.526 . S
C2002 C2003 1.396 . S
C2002 C2007 1.390 . S
C2003 C1997 1.465 . S
C2003 C2002 1.396 . S
C2003 C2004 1.399 . S
C2004 H1990 0.929 . S
C2004 C2003 1.399 . S
C2004 C2005 1.385 . S
C2005 H1991 0.931 . S
C2005 C2004 1.385 . S
C2005 C2006 1.389 . S
C2006 C2005 1.389 . S
C2006 C2007 1.387 . S
C2007 H1992 0.930 . S
C2007 C2002 1.390 . S
C2007 C2006 1.387 . S
H2008 C2020 0.930 . S
H2009 C2022 0.930 . S
H2010 C2023 0.930 . S
H2011 C2027 0.959 . S
H2012 C2027 0.959 . S
H2013 C2027 0.961 . S
H2014 C2028 0.960 . S
H2015 C2028 0.961 . S
H2016 C2028 0.959 . S
H2017 C2031 0.929 . S
H2018 C2032 0.931 . S
H2019 C2034 0.930 . S
C2020 H2008 0.930 . S
C2020 C2021 1.399 . S
C2020 C2025 1.399 . S
C2021 C2020 1.399 . S
C2021 C2022 1.376 . S
C2022 H2009 0.930 . S
C2022 C2021 1.376 . S
C2022 C2023 1.388 . S
C2023 H2010 0.930 . S
C2023 C2022 1.388 . S
C2023 C2024 1.390 . S
C2024 C2023 1.390 . S
C2024 C2025 1.394 . S
C2024 C2030 1.465 . S
C2025 C2020 1.399 . S
C2025 C2024 1.394 . S
C2025 C2026 1.516 . S
C2026 C2025 1.516 . S
C2026 C2027 1.502 . S
C2026 C2028 1.561 . S
C2026 C2029 1.526 . S
C2027 H2011 0.959 . S
C2027 H2012 0.959 . S
C2027 H2013 0.961 . S
C2027 C2026 1.502 . S
C2028 H2014 0.960 . S
C2028 H2015 0.961 . S
C2028 H2016 0.959 . S
C2028 C2026 1.561 . S
C2029 C2026 1.526 . S
C2029 C2030 1.396 . S
C2029 C2034 1.390 . S
C2030 C2024 1.465 . S
C2030 C2029 1.396 . S
C2030 C2031 1.399 . S
C2031 H2017 0.929 . S
C2031 C2030 1.399 . S
C2031 C2032 1.385 . S
C2032 H2018 0.931 . S
C2032 C2031 1.385 . S
C2032 C2033 1.389 . S
C2033 C2032 1.389 . S
C2033 C2034 1.387 . S
C2034 H2019 0.930 . S
C2034 C2029 1.390 . S
C2034 C2033 1.387 . S
H2035 C2047 0.930 1_554 S
H2036 C2049 0.930 . S
H2037 C2050 0.930 . S
H2038 C2054 0.959 1_556 S
H2039 C2054 0.959 . S
H2040 C2054 0.961 . S
H2041 C2055 0.960 . S
H2042 C2055 0.961 . S
H2043 C2055 0.959 . S
H2044 C2058 0.929 . S
H2045 C2059 0.931 . S
H2046 C2061 0.930 1_554 S
C2047 H2035 0.930 1_556 S
C2047 C2048 1.399 . S
C2047 C2052 1.399 . S
C2048 C2047 1.399 . S
C2048 C2049 1.376 . S
C2049 H2036 0.930 . S
C2049 C2048 1.376 . S
C2049 C2050 1.388 . S
C2050 H2037 0.930 . S
C2050 C2049 1.388 . S
C2050 C2051 1.390 . S
C2051 C2050 1.390 . S
C2051 C2052 1.394 . S
C2051 C2057 1.465 . S
C2052 C2047 1.399 . S
C2052 C2051 1.394 . S
C2052 C2053 1.516 1_556 S
C2053 C2052 1.516 1_554 S
C2053 C2054 1.502 . S
C2053 C2055 1.561 . S
C2053 C2056 1.526 1_554 S
C2054 H2038 0.959 1_554 S
C2054 H2039 0.959 . S
C2054 H2040 0.961 . S
C2054 C2053 1.502 . S
C2055 H2041 0.960 . S
C2055 H2042 0.961 . S
C2055 H2043 0.959 . S
C2055 C2053 1.561 . S
C2056 C2053 1.526 1_556 S
C2056 C2057 1.396 . S
C2056 C2061 1.390 . S
C2057 C2051 1.465 . S
C2057 C2056 1.396 . S
C2057 C2058 1.399 . S
C2058 H2044 0.929 . S
C2058 C2057 1.399 . S
C2058 C2059 1.385 . S
C2059 H2045 0.931 . S
C2059 C2058 1.385 . S
C2059 C2060 1.389 . S
C2060 C2059 1.389 . S
C2060 C2061 1.387 . S
C2061 H2046 0.930 1_556 S
C2061 C2056 1.390 . S
C2061 C2060 1.387 . S
H2062 C2074 0.930 . S
H2063 C2076 0.930 . S
H2064 C2077 0.930 . S
H2065 C2081 0.959 . S
H2066 C2081 0.959 . S
H2067 C2081 0.961 . S
H2068 C2082 0.960 . S
H2069 C2082 0.961 . S
H2070 C2082 0.959 . S
H2071 C2085 0.929 . S
H2072 C2086 0.931 . S
H2073 C2088 0.930 1_554 S
C2074 H2062 0.930 . S
C2074 C2075 1.399 1_554 S
C2074 C2079 1.399 . S
C2075 C2074 1.399 1_556 S
C2075 C2076 1.376 . S
C2076 H2063 0.930 . S
C2076 C2075 1.376 . S
C2076 C2077 1.388 . S
C2077 H2064 0.930 . S
C2077 C2076 1.388 . S
C2077 C2078 1.390 . S
C2078 C2077 1.390 . S
C2078 C2079 1.394 1_556 S
C2078 C2084 1.465 . S
C2079 C2074 1.399 . S
C2079 C2078 1.394 1_554 S
C2079 C2080 1.516 . S
C2080 C2079 1.516 . S
C2080 C2081 1.502 . S
C2080 C2082 1.561 . S
C2080 C2083 1.526 1_554 S
C2081 H2065 0.959 . S
C2081 H2066 0.959 . S
C2081 H2067 0.961 . S
C2081 C2080 1.502 . S
C2082 H2068 0.960 . S
C2082 H2069 0.961 . S
C2082 H2070 0.959 . S
C2082 C2080 1.561 . S
C2083 C2080 1.526 1_556 S
C2083 C2084 1.396 . S
C2083 C2088 1.390 . S
C2084 C2078 1.465 . S
C2084 C2083 1.396 . S
C2084 C2085 1.399 . S
C2085 H2071 0.929 . S
C2085 C2084 1.399 . S
C2085 C2086 1.385 . S
C2086 H2072 0.931 . S
C2086 C2085 1.385 . S
C2086 C2087 1.389 . S
C2087 C2086 1.389 . S
C2087 C2088 1.387 . S
C2088 H2073 0.930 1_556 S
C2088 C2083 1.390 . S
C2088 C2087 1.387 . S
H2089 C2101 0.930 1_556 S
H2090 C2103 0.930 . S
H2091 C2104 0.930 . S
H2092 C2108 0.959 1_554 S
H2093 C2108 0.959 . S
H2094 C2108 0.961 . S
H2095 C2109 0.960 . S
H2096 C2109 0.961 . S
H2097 C2109 0.959 . S
H2098 C2112 0.929 . S
H2099 C2113 0.931 . S
H2100 C2115 0.922 1_556 S
C2101 H2089 0.930 1_554 S
C2101 C2102 1.399 . S
C2101 C2106 1.399 . S
C2102 C2101 1.399 . S
C2102 C2103 1.376 . S
C2103 H2090 0.930 . S
C2103 C2102 1.376 . S
C2103 C2104 1.388 . S
C2104 H2091 0.930 . S
C2104 C2103 1.388 . S
C2104 C2105 1.390 . S
C2105 C2104 1.390 . S
C2105 C2106 1.394 . S
C2105 C2111 1.465 . S
C2106 C2101 1.399 . S
C2106 C2105 1.394 . S
C2106 C2107 1.516 1_554 S
C2107 C2106 1.516 1_556 S
C2107 C2108 1.502 . S
C2107 C2109 1.561 . S
C2107 C2110 1.526 1_556 S
C2108 H2092 0.959 1_556 S
C2108 H2093 0.959 . S
C2108 H2094 0.961 . S
C2108 C2107 1.502 . S
C2109 H2095 0.960 . S
C2109 H2096 0.961 . S
C2109 H2097 0.959 . S
C2109 C2107 1.561 . S
C2110 C2107 1.526 1_554 S
C2110 C2111 1.396 . S
C2110 C2115 1.390 . S
C2111 C2105 1.465 . S
C2111 C2110 1.396 . S
C2111 C2112 1.399 . S
C2112 H2098 0.929 . S
C2112 C2111 1.399 . S
C2112 C2113 1.385 . S
C2113 H2099 0.931 . S
C2113 C2112 1.385 . S
C2113 C2114 1.389 . S
C2114 C2113 1.389 . S
C2114 C2115 1.387 . S
C2115 H2100 0.922 1_554 S
C2115 C2110 1.390 . S
C2115 C2114 1.387 . S
C833 C22 1.678 . S
C845 C699 1.648 1_545 S
C872 C725 1.756 . S
C860 C38 1.779 . S
C899 C657 1.750 1_565 S
C887 C75 1.743 . S
C914 C91 1.504 . S
C926 C680 1.523 . S
C941 C128 1.600 . S
C953 C814 1.597 1_554 S
C968 C197 1.413 . S
C980 C795 1.451 . S
C1007 C748 1.815 . S
C995 C144 1.835 . S
C1022 C181 1.731 . S
C1034 C771 1.725 . S
C1061 C676 1.821 . S
C1049 C234 1.803 . S
C1088 C726 1.566 . S
C1076 C303 1.553 . S
C1103 C356 1.705 . S
C1115 C702 1.678 . S
C1130 C287 1.816 . S
C1142 C768 1.839 . S
C1169 C791 1.616 . S
C1157 C393 1.587 . S
C1196 C817 1.839 1_565 S
C1184 C409 1.849 . S
C1211 C462 1.903 . S
C1223 C772 1.939 . S
C1250 C749 1.424 1_545 S
C1238 C446 1.397 . S
C1265 C499 1.593 . S
C1277 C722 1.611 . S
C1292 C552 1.408 . S
C1304 C703 1.445 . S
C1331 C679 1.696 . S
C1319 C515 1.725 . S
C1346 C568 1.989 . S
C1358 C656 1.996 . S
C1385 C745 1.899 . S
C1373 C340 1.860 . S
C1412 C818 1.474 . S
C1400 C621 1.446 . S
C1427 C250 1.597 . S
C1439 C794 1.565 . S
C1454 C605 1.752 . S
C1466 C653 1.742 1_655 S
C1493 C655 1.459 . S
C1481 C39 1.471 . S
C1508 C29 1.245 . S
C1520 C678 1.177 . S
C1547 C700 1.335 . S
C1535 C92 1.359 . S
C1574 C721 1.193 . S
C1562 C82 1.146 . S
C1589 C145 1.521 . S
C1601 C652 1.535 . S
C1616 C188 1.223 . S
C1628 C675 1.243 . S
C1655 C701 1.253 . S
C1643 C135 1.309 . S
C1670 C198 1.461 . S
C1682 C723 1.486 . S
C1697 C251 1.355 . S
C1709 C654 1.392 . S
C1736 C698 1.224 . S
C1724 C294 1.233 . S
C1751 C347 1.295 . S
C1763 C724 1.249 . S
C1778 C304 1.405 . S
C1790 C746 1.363 . S
C1817 C770 1.425 . S
C1805 C410 1.438 . S
C1832 C400 1.304 . S
C1844 C747 1.281 . S
C1859 C453 1.098 . S
C1871 C792 1.071 . S
C1886 C463 1.499 . S
C1898 C813 1.492 . S
C1913 C516 1.538 . S
C1925 C767 1.555 . S
C1952 C744 1.543 . S
C1940 C569 1.539 . S
C1967 C506 1.271 . S
C1979 C793 1.162 . S
C2006 C815 1.216 . S
C1994 C559 1.251 . S
C2033 C769 1.367 . S
C2021 C357 1.315 . S
C2060 C790 1.204 . S
C2048 C612 1.181 . S
C2087 C816 1.209 . S
C2075 C241 1.252 1_556 S
C2102 C622 1.232 . S
C2114 C677 1.311 . S
