# Generated by pormake.
# Topology gar, (4,6)-cn, num edge types: 1
# Building blocks:
#     Node 0, Type 0, BuildingBlock: NAHDIM_clean_sbu_0, # of connection points: 4
#     Node 1, Type 0, BuildingBlock: NAHDIM_clean_sbu_0, # of connection points: 4
#     Node 2, Type 0, BuildingBlock: NAHDIM_clean_sbu_0, # of connection points: 4
#     Node 3, Type 0, BuildingBlock: NAHDIM_clean_sbu_0, # of connection points: 4
#     Node 4, Type 0, BuildingBlock: NAHDIM_clean_sbu_0, # of connection points: 4
#     Node 5, Type 0, BuildingBlock: NAHDIM_clean_sbu_0, # of connection points: 4
#     Node 6, Type 0, BuildingBlock: NAHDIM_clean_sbu_0, # of connection points: 4
#     Node 7, Type 0, BuildingBlock: NAHDIM_clean_sbu_0, # of connection points: 4
#     Node 8, Type 0, BuildingBlock: NAHDIM_clean_sbu_0, # of connection points: 4
#     Node 9, Type 0, BuildingBlock: NAHDIM_clean_sbu_0, # of connection points: 4
#     Node 10, Type 0, BuildingBlock: NAHDIM_clean_sbu_0, # of connection points: 4
#     Node 11, Type 0, BuildingBlock: NAHDIM_clean_sbu_0, # of connection points: 4
#     Node 12, Type 0, BuildingBlock: NAHDIM_clean_sbu_0, # of connection points: 4
#     Node 13, Type 0, BuildingBlock: NAHDIM_clean_sbu_0, # of connection points: 4
#     Node 14, Type 0, BuildingBlock: NAHDIM_clean_sbu_0, # of connection points: 4
#     Node 15, Type 0, BuildingBlock: NAHDIM_clean_sbu_0, # of connection points: 4
#     Node 16, Type 0, BuildingBlock: NAHDIM_clean_sbu_0, # of connection points: 4
#     Node 17, Type 0, BuildingBlock: NAHDIM_clean_sbu_0, # of connection points: 4
#     Node 18, Type 0, BuildingBlock: NAHDIM_clean_sbu_0, # of connection points: 4
#     Node 19, Type 0, BuildingBlock: NAHDIM_clean_sbu_0, # of connection points: 4
#     Node 20, Type 0, BuildingBlock: NAHDIM_clean_sbu_0, # of connection points: 4
#     Node 21, Type 0, BuildingBlock: NAHDIM_clean_sbu_0, # of connection points: 4
#     Node 22, Type 0, BuildingBlock: NAHDIM_clean_sbu_0, # of connection points: 4
#     Node 23, Type 0, BuildingBlock: NAHDIM_clean_sbu_0, # of connection points: 4
#     Node 24, Type 1, BuildingBlock: NUHQIS_clean_sbu_0, # of connection points: 6
#     Node 25, Type 1, BuildingBlock: NUHQIS_clean_sbu_0, # of connection points: 6
#     Node 26, Type 1, BuildingBlock: NUHQIS_clean_sbu_0, # of connection points: 6
#     Node 27, Type 1, BuildingBlock: NUHQIS_clean_sbu_0, # of connection points: 6
#     Node 28, Type 1, BuildingBlock: NUHQIS_clean_sbu_0, # of connection points: 6
#     Node 29, Type 1, BuildingBlock: NUHQIS_clean_sbu_0, # of connection points: 6
#     Node 30, Type 1, BuildingBlock: NUHQIS_clean_sbu_0, # of connection points: 6
#     Node 31, Type 1, BuildingBlock: NUHQIS_clean_sbu_0, # of connection points: 6
#     Node 32, Type 1, BuildingBlock: NUHQIS_clean_sbu_0, # of connection points: 6
#     Node 33, Type 1, BuildingBlock: NUHQIS_clean_sbu_0, # of connection points: 6
#     Node 34, Type 1, BuildingBlock: NUHQIS_clean_sbu_0, # of connection points: 6
#     Node 35, Type 1, BuildingBlock: NUHQIS_clean_sbu_0, # of connection points: 6
#     Node 36, Type 1, BuildingBlock: NUHQIS_clean_sbu_0, # of connection points: 6
#     Node 37, Type 1, BuildingBlock: NUHQIS_clean_sbu_0, # of connection points: 6
#     Node 38, Type 1, BuildingBlock: NUHQIS_clean_sbu_0, # of connection points: 6
#     Node 39, Type 1, BuildingBlock: NUHQIS_clean_sbu_0, # of connection points: 6
#     Edge 40, Type (0, 1), BuildingBlock: XIVTED_clean_linker_0, # of connection points: 2
#     Edge 41, Type (0, 1), BuildingBlock: XIVTED_clean_linker_0, # of connection points: 2
#     Edge 42, Type (0, 1), BuildingBlock: XIVTED_clean_linker_0, # of connection points: 2
#     Edge 43, Type (0, 1), BuildingBlock: XIVTED_clean_linker_0, # of connection points: 2
#     Edge 44, Type (0, 1), BuildingBlock: XIVTED_clean_linker_0, # of connection points: 2
#     Edge 45, Type (0, 1), BuildingBlock: XIVTED_clean_linker_0, # of connection points: 2
#     Edge 46, Type (0, 1), BuildingBlock: XIVTED_clean_linker_0, # of connection points: 2
#     Edge 47, Type (0, 1), BuildingBlock: XIVTED_clean_linker_0, # of connection points: 2
#     Edge 48, Type (0, 1), BuildingBlock: XIVTED_clean_linker_0, # of connection points: 2
#     Edge 49, Type (0, 1), BuildingBlock: XIVTED_clean_linker_0, # of connection points: 2
#     Edge 50, Type (0, 1), BuildingBlock: XIVTED_clean_linker_0, # of connection points: 2
#     Edge 51, Type (0, 1), BuildingBlock: XIVTED_clean_linker_0, # of connection points: 2
#     Edge 52, Type (0, 1), BuildingBlock: XIVTED_clean_linker_0, # of connection points: 2
#     Edge 53, Type (0, 1), BuildingBlock: XIVTED_clean_linker_0, # of connection points: 2
#     Edge 54, Type (0, 1), BuildingBlock: XIVTED_clean_linker_0, # of connection points: 2
#     Edge 55, Type (0, 1), BuildingBlock: XIVTED_clean_linker_0, # of connection points: 2
#     Edge 56, Type (0, 1), BuildingBlock: XIVTED_clean_linker_0, # of connection points: 2
#     Edge 57, Type (0, 1), BuildingBlock: XIVTED_clean_linker_0, # of connection points: 2
#     Edge 58, Type (0, 1), BuildingBlock: XIVTED_clean_linker_0, # of connection points: 2
#     Edge 59, Type (0, 1), BuildingBlock: XIVTED_clean_linker_0, # of connection points: 2
#     Edge 60, Type (0, 1), BuildingBlock: XIVTED_clean_linker_0, # of connection points: 2
#     Edge 61, Type (0, 1), BuildingBlock: XIVTED_clean_linker_0, # of connection points: 2
#     Edge 62, Type (0, 1), BuildingBlock: XIVTED_clean_linker_0, # of connection points: 2
#     Edge 63, Type (0, 1), BuildingBlock: XIVTED_clean_linker_0, # of connection points: 2
#     Edge 64, Type (0, 1), BuildingBlock: XIVTED_clean_linker_0, # of connection points: 2
#     Edge 65, Type (0, 1), BuildingBlock: XIVTED_clean_linker_0, # of connection points: 2
#     Edge 66, Type (0, 1), BuildingBlock: XIVTED_clean_linker_0, # of connection points: 2
#     Edge 67, Type (0, 1), BuildingBlock: XIVTED_clean_linker_0, # of connection points: 2
#     Edge 68, Type (0, 1), BuildingBlock: XIVTED_clean_linker_0, # of connection points: 2
#     Edge 69, Type (0, 1), BuildingBlock: XIVTED_clean_linker_0, # of connection points: 2
#     Edge 70, Type (0, 1), BuildingBlock: XIVTED_clean_linker_0, # of connection points: 2
#     Edge 71, Type (0, 1), BuildingBlock: XIVTED_clean_linker_0, # of connection points: 2
#     Edge 72, Type (0, 1), BuildingBlock: XIVTED_clean_linker_0, # of connection points: 2
#     Edge 73, Type (0, 1), BuildingBlock: XIVTED_clean_linker_0, # of connection points: 2
#     Edge 74, Type (0, 1), BuildingBlock: XIVTED_clean_linker_0, # of connection points: 2
#     Edge 75, Type (0, 1), BuildingBlock: XIVTED_clean_linker_0, # of connection points: 2
#     Edge 76, Type (0, 1), BuildingBlock: XIVTED_clean_linker_0, # of connection points: 2
#     Edge 77, Type (0, 1), BuildingBlock: XIVTED_clean_linker_0, # of connection points: 2
#     Edge 78, Type (0, 1), BuildingBlock: XIVTED_clean_linker_0, # of connection points: 2
#     Edge 79, Type (0, 1), BuildingBlock: XIVTED_clean_linker_0, # of connection points: 2
#     Edge 80, Type (0, 1), BuildingBlock: XIVTED_clean_linker_0, # of connection points: 2
#     Edge 81, Type (0, 1), BuildingBlock: XIVTED_clean_linker_0, # of connection points: 2
#     Edge 82, Type (0, 1), BuildingBlock: XIVTED_clean_linker_0, # of connection points: 2
#     Edge 83, Type (0, 1), BuildingBlock: XIVTED_clean_linker_0, # of connection points: 2
#     Edge 84, Type (0, 1), BuildingBlock: XIVTED_clean_linker_0, # of connection points: 2
#     Edge 85, Type (0, 1), BuildingBlock: XIVTED_clean_linker_0, # of connection points: 2
#     Edge 86, Type (0, 1), BuildingBlock: XIVTED_clean_linker_0, # of connection points: 2
#     Edge 87, Type (0, 1), BuildingBlock: XIVTED_clean_linker_0, # of connection points: 2
#     Edge 88, Type (0, 1), BuildingBlock: XIVTED_clean_linker_0, # of connection points: 2
#     Edge 89, Type (0, 1), BuildingBlock: XIVTED_clean_linker_0, # of connection points: 2
#     Edge 90, Type (0, 1), BuildingBlock: XIVTED_clean_linker_0, # of connection points: 2
#     Edge 91, Type (0, 1), BuildingBlock: XIVTED_clean_linker_0, # of connection points: 2
#     Edge 92, Type (0, 1), BuildingBlock: XIVTED_clean_linker_0, # of connection points: 2
#     Edge 93, Type (0, 1), BuildingBlock: XIVTED_clean_linker_0, # of connection points: 2
#     Edge 94, Type (0, 1), BuildingBlock: XIVTED_clean_linker_0, # of connection points: 2
#     Edge 95, Type (0, 1), BuildingBlock: XIVTED_clean_linker_0, # of connection points: 2
#     Edge 96, Type (0, 1), BuildingBlock: XIVTED_clean_linker_0, # of connection points: 2
#     Edge 97, Type (0, 1), BuildingBlock: XIVTED_clean_linker_0, # of connection points: 2
#     Edge 98, Type (0, 1), BuildingBlock: XIVTED_clean_linker_0, # of connection points: 2
#     Edge 99, Type (0, 1), BuildingBlock: XIVTED_clean_linker_0, # of connection points: 2
#     Edge 100, Type (0, 1), BuildingBlock: XIVTED_clean_linker_0, # of connection points: 2
#     Edge 101, Type (0, 1), BuildingBlock: XIVTED_clean_linker_0, # of connection points: 2
#     Edge 102, Type (0, 1), BuildingBlock: XIVTED_clean_linker_0, # of connection points: 2
#     Edge 103, Type (0, 1), BuildingBlock: XIVTED_clean_linker_0, # of connection points: 2
#     Edge 104, Type (0, 1), BuildingBlock: XIVTED_clean_linker_0, # of connection points: 2
#     Edge 105, Type (0, 1), BuildingBlock: XIVTED_clean_linker_0, # of connection points: 2
#     Edge 106, Type (0, 1), BuildingBlock: XIVTED_clean_linker_0, # of connection points: 2
#     Edge 107, Type (0, 1), BuildingBlock: XIVTED_clean_linker_0, # of connection points: 2
#     Edge 108, Type (0, 1), BuildingBlock: XIVTED_clean_linker_0, # of connection points: 2
#     Edge 109, Type (0, 1), BuildingBlock: XIVTED_clean_linker_0, # of connection points: 2
#     Edge 110, Type (0, 1), BuildingBlock: XIVTED_clean_linker_0, # of connection points: 2
#     Edge 111, Type (0, 1), BuildingBlock: XIVTED_clean_linker_0, # of connection points: 2
#     Edge 112, Type (0, 1), BuildingBlock: XIVTED_clean_linker_0, # of connection points: 2
#     Edge 113, Type (0, 1), BuildingBlock: XIVTED_clean_linker_0, # of connection points: 2
#     Edge 114, Type (0, 1), BuildingBlock: XIVTED_clean_linker_0, # of connection points: 2
#     Edge 115, Type (0, 1), BuildingBlock: XIVTED_clean_linker_0, # of connection points: 2
#     Edge 116, Type (0, 1), BuildingBlock: XIVTED_clean_linker_0, # of connection points: 2
#     Edge 117, Type (0, 1), BuildingBlock: XIVTED_clean_linker_0, # of connection points: 2
#     Edge 118, Type (0, 1), BuildingBlock: XIVTED_clean_linker_0, # of connection points: 2
#     Edge 119, Type (0, 1), BuildingBlock: XIVTED_clean_linker_0, # of connection points: 2
#     Edge 120, Type (0, 1), BuildingBlock: XIVTED_clean_linker_0, # of connection points: 2
#     Edge 121, Type (0, 1), BuildingBlock: XIVTED_clean_linker_0, # of connection points: 2
#     Edge 122, Type (0, 1), BuildingBlock: XIVTED_clean_linker_0, # of connection points: 2
#     Edge 123, Type (0, 1), BuildingBlock: XIVTED_clean_linker_0, # of connection points: 2
#     Edge 124, Type (0, 1), BuildingBlock: XIVTED_clean_linker_0, # of connection points: 2
#     Edge 125, Type (0, 1), BuildingBlock: XIVTED_clean_linker_0, # of connection points: 2
#     Edge 126, Type (0, 1), BuildingBlock: XIVTED_clean_linker_0, # of connection points: 2
#     Edge 127, Type (0, 1), BuildingBlock: XIVTED_clean_linker_0, # of connection points: 2
#     Edge 128, Type (0, 1), BuildingBlock: XIVTED_clean_linker_0, # of connection points: 2
#     Edge 129, Type (0, 1), BuildingBlock: XIVTED_clean_linker_0, # of connection points: 2
#     Edge 130, Type (0, 1), BuildingBlock: XIVTED_clean_linker_0, # of connection points: 2
#     Edge 131, Type (0, 1), BuildingBlock: XIVTED_clean_linker_0, # of connection points: 2
#     Edge 132, Type (0, 1), BuildingBlock: XIVTED_clean_linker_0, # of connection points: 2
#     Edge 133, Type (0, 1), BuildingBlock: XIVTED_clean_linker_0, # of connection points: 2
#     Edge 134, Type (0, 1), BuildingBlock: XIVTED_clean_linker_0, # of connection points: 2
#     Edge 135, Type (0, 1), BuildingBlock: XIVTED_clean_linker_0, # of connection points: 2
# Relax obj value: 0.234
# Max RMSD: 0.323
# Mean RMSD: 0.166
data_MOF--net-gar--node1-NAHDIM_clean_sbu_0--node2-NUHQIS_clean_sbu_0--edge1-XIVTED_clean_linker_0
_symmetry_space_group_name_H-M    P1
_symmetry_Int_Tables_number       1
_symmetry_cell_setting            triclinic
loop_
_symmetry_equiv_pos_as_xyz
'x, y, z'
_cell_length_a     57.729717
_cell_length_b     59.343015
_cell_length_c     55.717072
_cell_angle_alpha  93.413229
_cell_angle_beta   96.884776
_cell_angle_gamma 100.84275
loop_
_atom_site_label
_atom_site_type_symbol
_atom_site_fract_x
_atom_site_fract_y
_atom_site_fract_z
_atom_type_partial_charge
C0 C 0.13809 0.29627 0.3845 0.0
O1 O 0.12198 0.27775 0.3766 0.0
O2 O 0.09835 0.27117 0.43712 0.0
Zn3 Zn 0.10082 0.30493 0.42032 0.0
O4 O 0.10202 0.33666 0.44457 0.0
C5 C 0.04773 0.29672 0.40139 0.0
O6 O 0.0464 0.29027 0.42341 0.0
O7 O 0.13323 0.30972 0.40155 0.0
C8 C 0.09332 0.35383 0.43655 0.0
O9 O 0.08393 0.35158 0.41366 0.0
C10 C 0.09404 0.26502 0.45832 0.0
O11 O 0.09037 0.28096 0.47402 0.0
O12 O 0.06862 0.30298 0.39518 0.0
C13 C 1.02388 0.80013 0.67735 0.0
O14 O 1.01835 0.78719 0.65673 0.0
O15 O 0.07068 0.77868 0.63779 0.0
Zn16 Zn 0.07468 0.81203 0.6597 0.0
O17 O 0.07637 0.84298 0.63832 0.0
C18 C 0.12845 0.81871 0.67349 0.0
O19 O 0.12783 0.82242 0.65043 0.0
O20 O 0.04555 0.81144 0.68244 0.0
C21 C 0.08101 0.86411 0.64776 0.0
O22 O 0.08513 0.86729 0.67155 0.0
C23 C 0.07728 0.76093 0.64683 0.0
O24 O 0.08592 0.76324 0.66995 0.0
O25 O 0.10851 0.81468 0.68212 0.0
C26 C 0.64686 0.81225 0.89687 0.0
O27 O 0.64959 0.83033 0.91248 0.0
O28 O 0.59424 0.76236 0.93437 0.0
Zn29 Zn 0.59697 0.79572 0.91677 0.0
O30 O 0.60002 0.82844 0.93991 0.0
C31 C 0.54643 0.80185 0.89893 0.0
O32 O 0.5492 0.81275 0.92061 0.0
O33 O 0.62736 0.79707 0.89551 0.0
C34 C 0.59799 0.84758 0.93056 0.0
O35 O 0.59515 0.84703 0.90676 0.0
C36 C 0.59185 0.75653 0.95611 0.0
O37 O 0.59079 0.77292 0.97262 0.0
O38 O 0.56377 0.79292 0.89279 0.0
C39 C 0.52487 0.29067 0.1781 0.0
O40 O 0.52147 0.27325 0.16153 0.0
O41 O 0.57212 0.26921 0.13986 0.0
Zn42 Zn 0.57473 0.30444 0.15801 0.0
O43 O 0.57602 0.33408 0.13482 0.0
C44 C 0.6201 0.29411 0.18626 0.0
O45 O 0.60887 0.2729 0.17949 0.0
O46 O 0.54501 0.30507 0.18019 0.0
C47 C 0.57725 0.35499 0.14388 0.0
O48 O 0.57739 0.35799 0.16745 0.0
C49 C 0.57464 0.26168 0.11822 0.0
O50 O 0.57811 0.27682 0.1021 0.0
O51 O 0.60927 0.31049 0.18042 0.0
C52 C 0.10742 0.85392 0.1963 0.0
O53 O 0.10778 0.84671 0.17363 0.0
O54 O 0.16202 0.84705 0.17762 0.0
Zn55 Zn 0.15496 0.87641 0.19229 0.0
O56 O 0.14917 0.89862 0.1678 0.0
C57 C 0.19836 0.90711 0.21935 0.0
O58 O 0.20008 0.91915 0.2004 0.0
O59 O 0.12555 0.86743 0.20782 0.0
C60 C 0.16302 0.90538 0.1525 0.0
O61 O 0.18278 0.89751 0.15202 0.0
C62 C 0.1561 0.8391 0.1556 0.0
O63 O 0.14585 0.85124 0.14012 0.0
O64 O 0.18135 0.88996 0.21888 0.0
C65 C 0.56022 0.76239 0.38877 0.0
O66 O 0.55885 0.77383 0.40931 0.0
O67 O 0.51569 0.71515 0.41736 0.0
Zn68 Zn 0.51299 0.73966 0.39481 0.0
O69 O 0.50881 0.76906 0.41205 0.0
C70 C 0.46828 0.71266 0.36934 0.0
O71 O 0.46588 0.70299 0.38974 0.0
O72 O 0.54284 0.74668 0.3794 0.0
C73 C 0.5015 0.78412 0.39945 0.0
O74 O 0.49505 0.77916 0.37602 0.0
C75 C 0.53001 0.71873 0.43695 0.0
O76 O 0.54278 0.73945 0.44328 0.0
O77 O 0.48633 0.72829 0.36809 0.0
C78 C 0.60965 0.36366 0.71436 0.0
O79 O 0.60864 0.36176 0.69064 0.0
O80 O 0.66335 0.35134 0.6951 0.0
Zn81 Zn 0.65777 0.38136 0.71012 0.0
O82 O 0.64983 0.40263 0.6851 0.0
C83 C 0.70646 0.40305 0.73118 0.0
O84 O 0.71025 0.40618 0.70873 0.0
O85 O 0.62927 0.37262 0.72722 0.0
C86 C 0.65991 0.4062 0.66626 0.0
O87 O 0.6783 0.39681 0.663 0.0
C88 C 0.65454 0.3424 0.67389 0.0
O89 O 0.64222 0.35381 0.65942 0.0
O90 O 0.68557 0.3946 0.73535 0.0
C91 C 0.05442 0.25904 0.8762 0.0
O92 O 0.05431 0.26693 0.89871 0.0
O93 O 1.02159 0.2131 0.90928 0.0
Zn94 Zn 1.01024 0.23322 0.88482 0.0
O95 O 1.00274 0.26158 0.90094 0.0
C96 C 0.96641 0.20012 0.86687 0.0
O97 O 0.9669 0.19405 0.88919 0.0
O98 O 0.03699 0.24386 0.8659 0.0
C99 C 0.99486 0.27622 0.88816 0.0
O100 O 0.98927 0.27132 0.86463 0.0
C101 C 1.03042 0.22058 0.93093 0.0
O102 O 1.03092 0.24211 0.93834 0.0
O103 O 0.98264 0.216 0.86172 0.0
C104 C 0.47069 0.11225 0.31091 0.0
O105 O 0.48029 0.09819 0.29792 0.0
O106 O 0.53392 0.11307 0.3197 0.0
Zn107 Zn 0.5111 0.11056 0.34413 0.0
O108 O 0.5269 0.12827 0.37547 0.0
C109 C 0.5132 0.06209 0.34372 0.0
O110 O 0.53426 0.069 0.33702 0.0
O111 O 0.4814 0.12093 0.3316 0.0
C112 C 0.5466 0.14246 0.377 0.0
O113 O 0.5566 0.14663 0.35735 0.0
C114 C 0.53623 0.1278 0.30412 0.0
O115 O 0.52273 0.14333 0.30306 0.0
O116 O 0.50089 0.07694 0.34881 0.0
C117 C 0.40483 0.16137 0.55026 0.0
O118 O 0.40623 0.17624 0.56907 0.0
O119 O 0.3611 0.19988 0.56754 0.0
Zn120 Zn 0.35691 0.17788 0.53429 0.0
O121 O 0.35386 0.1954 0.50093 0.0
C122 C 0.30492 0.1521 0.51934 0.0
O123 O 0.30715 0.1615 0.49877 0.0
O124 O 0.38634 0.15893 0.53408 0.0
C125 C 0.36779 0.21304 0.49461 0.0
O126 O 0.38639 0.22288 0.51018 0.0
C127 C 0.34335 0.20687 0.57535 0.0
O128 O 0.32275 0.20187 0.56137 0.0
O129 O 0.32319 0.15556 0.53571 0.0
C130 C 0.26047 0.04481 0.80088 0.0
O131 O 0.2443 0.05385 0.7883 0.0
O132 O 0.20415 0.04641 0.81866 0.0
Zn133 Zn 0.23583 0.05669 0.83918 0.0
O134 O 0.23291 0.04544 0.87178 0.0
C135 C 0.23349 0.10438 0.83173 0.0
O136 O 0.21304 0.09538 0.8186 0.0
O137 O 0.26034 0.04386 0.82358 0.0
C138 C 0.24722 0.05416 0.89053 0.0
O139 O 0.2657 0.07023 0.88828 0.0
C140 C 0.18475 0.04839 0.82643 0.0
O141 O 0.18526 0.0574 0.84865 0.0
O142 O 0.24575 0.09124 0.84223 0.0
C143 C 0.30827 0.94111 0.06126 0.0
O144 O 0.30998 0.92623 0.07758 0.0
O145 O 0.338 0.89491 0.06435 0.0
Zn146 Zn 0.33689 0.9146 0.0361 0.0
O147 O 0.32637 0.8964 1.0034 0.0
C148 C 0.3821 0.94334 0.05433 0.0
O149 O 0.3728 0.94357 0.07472 0.0
O150 O 0.31733 0.9388 0.04177 0.0
C151 C 0.32783 0.90769 0.98472 0.0
O152 O 0.3345 0.93021 0.98777 0.0
C153 C 0.32524 0.87526 0.06584 0.0
O154 O 0.30968 0.86551 0.04722 0.0
O155 O 0.37002 0.93181 0.03551 0.0
C156 C 0.26909 0.45883 0.05575 0.0
O157 O 0.27661 0.45506 0.07808 0.0
O158 O 0.31194 0.4188 0.0777 0.0
Zn159 Zn 0.31115 0.43505 0.04349 0.0
O160 O 0.30913 0.41132 1.01172 0.0
C161 C 0.3639 0.45026 0.04261 0.0
O162 O 0.36167 0.42777 0.03985 0.0
O163 O 0.28055 0.45252 0.03882 0.0
C164 C 0.319 0.41789 0.99308 0.0
O165 O 0.32981 0.43951 0.99375 0.0
C166 C 0.30991 0.39728 0.08107 0.0
O167 O 0.30656 0.38259 0.06179 0.0
O168 O 0.34502 0.4583 0.04499 0.0
C169 C 0.88106 0.17321 0.01663 0.0
O170 O 0.8817 0.19292 1.00693 0.0
O171 O 0.84668 0.2006 0.07068 0.0
Zn172 Zn 0.84074 0.18591 0.03623 0.0
O173 O 0.83981 0.20856 1.01052 0.0
C174 C 0.80402 0.14472 0.03745 0.0
O175 O 0.82127 0.13545 0.04768 0.0
O176 O 0.86537 0.16682 0.03033 0.0
C177 C 0.82025 0.21275 1.0005 0.0
O178 O 0.80045 0.20443 1.00907 0.0
C179 C 0.85491 0.22183 0.07679 0.0
O180 O 0.86058 0.23568 0.05996 0.0
O181 O 0.80864 0.16526 0.03157 0.0
C182 C 0.17732 0.46543 0.24596 0.0
O183 O 0.17645 0.47958 0.22876 0.0
O184 O 0.11508 0.45641 0.20923 0.0
Zn185 Zn 0.12954 0.46969 0.24278 0.0
O186 O 0.1057 0.465 0.26616 0.0
C187 C 0.13424 0.51682 0.22711 0.0
O188 O 0.11778 0.50794 0.20891 0.0
O189 O 0.15832 0.45725 0.25446 0.0
C190 C 0.08789 0.47475 0.26299 0.0
O191 O 0.08516 0.48645 0.2439 0.0
C192 C 0.09458 0.44356 0.20421 0.0
O193 O 0.08238 0.43682 0.22181 0.0
O194 O 0.14105 0.50391 0.24278 0.0
C195 C 0.76523 0.94891 0.54107 0.0
O196 O 0.75935 0.92796 0.53024 0.0
O197 O 0.81905 0.91837 0.58184 0.0
Zn198 Zn 0.81604 0.93669 0.54909 0.0
O199 O 0.81123 0.91505 0.51542 0.0
C200 C 0.86872 0.96043 0.56296 0.0
O201 O 0.86749 0.94782 0.58153 0.0
O202 O 0.78725 0.95621 0.54997 0.0
C203 C 0.82926 0.91123 0.5054 0.0
O204 O 0.85055 0.91952 0.51722 0.0
C205 C 0.80491 0.90073 0.58787 0.0
O206 O 0.786 0.89155 0.57242 0.0
O207 O 0.84967 0.9594 0.54806 0.0
C208 C 0.93028 0.0605 0.25595 0.0
O209 O 0.94392 0.05059 0.27079 0.0
O210 O 0.96111 0.04755 0.18976 0.0
Zn211 Zn 0.94971 0.03616 0.22004 0.0
O212 O 0.97871 0.03726 0.24427 0.0
C213 C 0.9319 0.98685 0.20319 0.0
O214 O 0.94937 0.98815 0.18993 0.0
O215 O 0.93008 0.05709 0.23319 0.0
C216 C 0.99304 0.02352 0.24321 0.0
O217 O 0.98892 1.0069 0.2257 0.0
C218 C 0.97444 0.0674 0.1933 0.0
O219 O 0.97778 0.07834 0.21503 0.0
O220 O 0.92947 1.00457 0.2158 0.0
C221 C 0.36363 0.67229 0.5052 0.0
O222 O 0.36453 0.68785 0.48936 0.0
O223 O 0.33035 0.71128 0.55531 0.0
Zn224 Zn 0.32635 0.69387 0.52205 0.0
O225 O 0.32815 0.71435 0.49396 0.0
C226 C 0.27565 0.68325 0.51844 0.0
O227 O 0.27888 0.70572 0.52274 0.0
O228 O 0.34948 0.67229 0.52103 0.0
C229 C 0.31638 0.70532 0.47376 0.0
O230 O 0.30453 0.68401 0.47246 0.0
C231 C 0.34987 0.72009 0.56853 0.0
O232 O 0.37006 0.71947 0.56011 0.0
O233 O 0.29365 0.67394 0.51759 0.0
C234 C 0.38459 0.55006 0.71907 0.0
O235 O 0.37939 0.53936 0.6972 0.0
O236 O 0.4408 0.54827 0.69054 0.0
Zn237 Zn 0.4276 0.5331 0.7182 0.0
O238 O 0.4549 0.5331 0.74409 0.0
C239 C 0.4234 0.48519 0.70361 0.0
O240 O 0.44643 0.49135 0.70316 0.0
O241 O 0.40453 0.5499 0.73137 0.0
C242 C 0.4544 0.51756 0.75882 0.0
O243 O 0.43513 0.50155 0.75788 0.0
C244 C 0.45854 0.56487 0.69527 0.0
O245 O 0.46632 0.57247 0.71798 0.0
O246 O 0.41151 0.50052 0.70819 0.0
C247 C 0.66497 0.94611 0.74422 0.0
O248 O 0.66401 0.96059 0.72734 0.0
O249 O 0.60528 0.9403 0.70554 0.0
Zn250 Zn 0.61761 0.9506 0.74044 0.0
O251 O 0.59191 0.94446 0.76178 0.0
C252 C 0.62364 0.99931 0.72932 0.0
O253 O 0.60765 0.99198 0.71028 0.0
O254 O 0.6459 0.93743 0.75234 0.0
C255 C 0.57366 0.95334 0.75699 0.0
O256 O 0.57167 0.96455 0.73745 0.0
C257 C 0.58522 0.92735 0.69813 0.0
O258 O 0.57197 0.91804 0.71392 0.0
O259 O 0.6297 0.98499 0.74374 0.0
C260 C 0.88716 0.64184 0.02805 0.0
O261 O 0.86961 0.63087 1.01187 0.0
O262 O 0.8552 0.69704 0.07233 0.0
Zn263 Zn 0.85292 0.67676 0.03807 0.0
O264 O 0.85379 0.69791 1.00729 0.0
C265 C 0.80766 0.64749 0.05205 0.0
O266 O 0.81899 0.65363 0.07403 0.0
O267 O 0.88382 0.65985 0.04028 0.0
C268 C 0.85072 0.68959 0.98496 0.0
O269 O 0.84687 0.66709 0.98076 0.0
C270 C 0.83905 0.70756 0.0787 0.0
O271 O 0.82022 0.70713 0.06276 0.0
O272 O 0.81858 0.65393 0.03404 0.0
C273 C 0.96151 0.59137 0.82802 0.0
O274 O 0.9601 0.58109 0.84818 0.0
O275 O 1.02442 0.56653 0.80853 0.0
Zn276 Zn 1.00702 0.57885 0.83371 0.0
O277 O 1.02924 0.6016 0.85814 0.0
C278 C 1.00546 0.53683 0.85713 0.0
O279 O 1.02849 0.54158 0.85625 0.0
O280 O 0.98046 0.59295 0.8182 0.0
C281 C 0.05152 0.60717 0.85752 0.0
O282 O 0.06085 0.59832 0.83969 0.0
C283 C 1.0132 0.54931 0.79442 0.0
O284 O 0.99052 0.54167 0.79565 0.0
O285 O 0.99287 0.55113 0.84985 0.0
C286 C 0.80161 0.41218 0.54845 0.0
O287 O 0.79265 0.3924 0.53584 0.0
O288 O 0.84672 0.37531 0.58045 0.0
Zn289 Zn 0.84625 0.39547 0.55265 0.0
O290 O 0.83714 0.37727 0.51988 0.0
C291 C 0.89423 0.42074 0.57146 0.0
O292 O 0.89068 0.41058 0.59139 0.0
O293 O 0.82346 0.4166 0.55726 0.0
C294 C 0.83619 0.38935 0.50182 0.0
O295 O 0.84067 0.4119 0.50588 0.0
C296 C 0.82983 0.35862 0.58227 0.0
O297 O 0.81181 0.35339 0.5648 0.0
O298 O 0.87825 0.41624 0.55311 0.0
C299 C 0.79614 0.55788 0.3936 0.0
O300 O 0.78202 0.55517 0.41047 0.0
O301 O 0.75136 0.58298 0.33755 0.0
Zn302 Zn 0.7626 0.58389 0.373 0.0
O303 O 0.7369 0.56554 0.3893 0.0
C304 C 0.75276 0.62795 0.38125 0.0
O305 O 0.73142 0.6164 0.37248 0.0
O306 O 0.79182 0.57041 0.3766 0.0
C307 C 0.71526 0.56033 0.37969 0.0
O308 O 0.70895 0.56762 0.35856 0.0
C309 C 0.74429 0.56442 0.32395 0.0
O310 O 0.74486 0.54461 0.33311 0.0
O311 O 0.76958 0.61702 0.38523 0.0
Tb312 Tb 0.10174 0.0663 0.03186 0.0
Eu313 Eu 0.14591 0.09807 0.0694 0.0
C314 C 0.1538 0.06819 0.02184 0.0
C315 C 0.13128 0.04342 0.07085 0.0
C316 C 0.04411 0.05774 0.99629 0.0
C317 C 1.00123 0.05468 0.9902 0.0
C318 C 1.02111 0.04422 0.99285 0.0
C319 C 0.047 0.08176 0.99617 0.0
C320 C 1.02724 0.09219 0.99344 0.0
C321 C 1.00411 0.07883 0.99101 0.0
C322 C 0.06487 0.0475 1.00378 0.0
O323 O 0.08652 0.08821 0.05549 0.0
O324 O 0.11404 0.09255 0.08935 0.0
O325 O 0.12566 0.12269 0.05122 0.0
O326 O 0.11458 0.09848 0.01681 0.0
C327 C 0.09223 0.09182 0.07905 0.0
O328 O 0.1669 0.10511 0.10526 0.0
O329 O 0.17716 0.12595 0.07621 0.0
O330 O 0.15981 0.08801 0.03508 0.0
O331 O 0.13278 0.05481 0.0212 0.0
O332 O 0.10997 0.04387 0.05979 0.0
O333 O 0.14887 0.0612 0.07245 0.0
C334 C 0.11713 0.11896 0.02815 0.0
O335 O 0.08473 0.05681 0.99619 0.0
O336 O 0.06807 0.04446 0.02682 0.0
C337 C 0.20693 0.11038 0.09896 0.0
C338 C 0.23951 0.08042 0.09792 0.0
C339 C 0.23093 0.08598 0.11968 0.0
C340 C 0.21479 0.10084 0.12019 0.0
C341 C 0.21747 0.10673 0.07794 0.0
C342 C 0.23348 0.09186 0.0774 0.0
C343 C 0.1842 0.11868 0.09705 0.0
H344 H 0.98363 0.04392 0.98815 0.0
H345 H 1.01853 0.02569 0.99323 0.0
H346 H 0.06457 0.09261 0.99936 0.0
H347 H 1.03018 0.11082 0.99459 0.0
H348 H 0.23566 0.07787 0.13598 0.0
H349 H 0.20698 0.10335 0.13665 0.0
H350 H 0.21189 0.11377 0.06121 0.0
H351 H 0.23957 0.08797 0.06027 0.0
Tb352 Tb 0.35418 0.80534 0.27993 0.0
Eu353 Eu 0.29992 0.7751 0.25981 0.0
C354 C 0.30948 0.82893 0.27996 0.0
C355 C 0.32293 0.77652 0.31544 0.0
C356 C 0.40922 0.85016 0.29841 0.0
C357 C 0.40974 0.89113 0.29819 0.0
C358 C 0.39765 0.86832 0.2928 0.0
C359 C 0.433 0.85499 0.30916 0.0
C360 C 0.4451 0.87776 0.31456 0.0
C361 C 0.43356 0.89611 0.30932 0.0
C362 C 0.39637 0.82619 0.29453 0.0
O363 O 0.35617 0.77315 0.26006 0.0
O364 O 0.32318 0.74996 0.2697 0.0
O365 O 0.3184 0.78746 0.22826 0.0
O366 O 0.34303 0.82014 0.24676 0.0
C367 C 0.34515 0.7529 0.26504 0.0
O368 O 0.27815 0.75119 0.23097 0.0
O369 O 0.26157 0.76502 0.25996 0.0
O370 O 0.29591 0.81175 0.26581 0.0
O371 O 0.33153 0.829 0.28923 0.0
O372 O 0.34407 0.78411 0.30909 0.0
O373 O 0.30319 0.77452 0.30033 0.0
C374 C 0.33123 0.808 0.22714 0.0
O375 O 0.38026 0.8205 0.30872 0.0
O376 O 0.38876 0.81811 0.27212 0.0
C377 C 0.24388 0.72774 0.24131 0.0
C378 C 0.21729 0.68262 0.24061 0.0
C379 C 0.23119 0.69367 0.2621 0.0
C380 C 0.24448 0.716 0.26242 0.0
C381 C 0.22975 0.71702 0.22002 0.0
C382 C 0.21661 0.69467 0.21962 0.0
C383 C 0.2586 0.75069 0.24062 0.0
H384 H 0.40044 0.90486 0.29364 0.0
H385 H 0.37922 0.86484 0.28455 0.0
H386 H 0.44209 0.84112 0.31379 0.0
H387 H 0.46331 0.88098 0.32339 0.0
H388 H 0.23188 0.68505 0.27869 0.0
H389 H 0.25539 0.72397 0.27904 0.0
H390 H 0.22923 0.7258 0.20351 0.0
H391 H 0.20647 0.68664 0.20265 0.0
Tb392 Tb 0.57722 0.04518 0.52186 0.0
Eu393 Eu 0.60092 0.07474 0.57335 0.0
C394 C 0.57118 0.02256 0.57159 0.0
C395 C 0.54831 0.08017 0.54757 0.0
C396 C 0.55265 0.99838 0.47382 0.0
C397 C 0.54446 0.95856 0.48349 0.0
C398 C 0.55154 0.98198 0.49097 0.0
C399 C 0.54696 0.99113 0.4491 0.0
C400 C 0.54002 0.96766 0.44156 0.0
C401 C 0.53856 0.95109 0.45868 0.0
C402 C 0.5592 0.02303 0.48173 0.0
O403 O 0.60299 0.07474 0.51418 0.0
O404 O 0.59914 0.09981 0.54512 0.0
O405 O 0.6297 0.05671 0.56022 0.0
O406 O 0.60663 0.02767 0.53402 0.0
C407 C 0.60404 0.09583 0.52322 0.0
O408 O 0.63275 0.09693 0.59289 0.0
O409 O 0.60154 0.08761 0.61102 0.0
O410 O 0.58582 0.03994 0.5843 0.0
O411 O 0.56458 0.02195 0.54817 0.0
O412 O 0.55255 0.06916 0.52763 0.0
O413 O 0.56318 0.08211 0.56791 0.0
C414 C 0.62727 0.03691 0.54706 0.0
O415 O 0.54684 0.03012 0.49767 0.0
O416 O 0.58186 0.03135 0.48749 0.0
C417 C 0.62518 0.12484 0.62059 0.0
C418 C 0.6334 0.17268 0.63285 0.0
C419 C 0.61352 0.16174 0.61632 0.0
C420 C 0.60952 0.13805 0.61014 0.0
C421 C 0.64462 0.13547 0.63757 0.0
C422 C 0.64871 0.1592 0.64369 0.0
C423 C 0.62269 0.10053 0.61212 0.0
H424 H 0.54324 0.94636 0.49721 0.0
H425 H 0.55588 0.9873 0.51018 0.0
H426 H 0.54782 1.0036 0.43564 0.0
H427 H 0.53601 0.96253 0.4223 0.0
H428 H 0.60113 0.17151 0.60796 0.0
H429 H 0.5945 0.13012 0.59682 0.0
H430 H 0.65703 0.12552 0.64557 0.0
H431 H 0.66431 0.16707 0.65629 0.0
Tb432 Tb 0.30458 0.30886 0.77819 0.0
Eu433 Eu 0.35612 0.29885 0.80017 0.0
C434 C 0.35177 0.34048 0.7677 0.0
C435 C 0.33391 0.28305 0.7434 0.0
C436 C 0.24189 0.31312 0.77437 0.0
C437 C 0.19971 0.3132 0.77197 0.0
C438 C 0.22083 0.31703 0.76156 0.0
C439 C 0.24174 0.30533 0.79762 0.0
C440 C 0.22076 0.30165 0.80808 0.0
C441 C 0.19953 0.30557 0.79539 0.0
C442 C 0.26407 0.31697 0.76363 0.0
O443 O 0.29725 0.27371 0.78791 0.0
O444 O 0.32917 0.27431 0.81673 0.0
O445 O 0.3471 0.32549 0.82689 0.0
O446 O 0.30671 0.3161 0.81798 0.0
C447 C 0.30774 0.26488 0.8062 0.0
O448 O 0.38038 0.27533 0.80796 0.0
O449 O 0.39125 0.31151 0.82046 0.0
O450 O 0.36409 0.32463 0.77299 0.0
O451 O 0.33035 0.33946 0.7737 0.0
O452 O 0.31842 0.29669 0.74544 0.0
O453 O 0.34781 0.27906 0.76265 0.0
C454 C 0.32586 0.32618 0.83291 0.0
O455 O 0.28136 0.33215 0.77582 0.0
O456 O 0.27129 0.29839 0.75682 0.0
C457 C 0.42005 0.29319 0.80677 0.0
C458 C 0.46322 0.30112 0.7872 0.0
C459 C 0.46285 0.29646 0.81165 0.0
C460 C 0.44137 0.29256 0.82138 0.0
C461 C 0.42021 0.29708 0.78223 0.0
C462 C 0.44161 0.30101 0.77251 0.0
C463 C 0.39795 0.29186 0.81742 0.0
H464 H 0.1836 0.31644 0.76186 0.0
H465 H 0.22072 0.32302 0.74356 0.0
H466 H 0.25785 0.30201 0.80765 0.0
H467 H 0.22106 0.29538 0.82596 0.0
H468 H 0.47919 0.2962 0.82333 0.0
H469 H 0.44147 0.28966 0.8404 0.0
H470 H 0.40385 0.29784 0.77079 0.0
H471 H 0.44128 0.30492 0.75375 0.0
Tb472 Tb 0.08295 0.04738 0.51787 0.0
Eu473 Eu 0.08923 0.07356 0.57148 0.0
C474 C 0.13506 0.07639 0.54157 0.0
C475 C 0.0887 1.01796 0.56585 0.0
C476 C 0.08391 0.03016 0.45201 0.0
C477 C 0.09356 1.0148 0.41391 0.0
C478 C 0.09221 1.01329 0.43865 0.0
C479 C 0.07872 0.0495 0.44077 0.0
C480 C 0.07975 0.05088 0.416 0.0
C481 C 0.08625 0.03307 0.40204 0.0
C482 C 0.07808 0.02593 0.47654 0.0
O483 O 0.04586 0.04438 0.52569 0.0
O484 O 0.05242 0.0508 0.56693 0.0
O485 O 0.0837 0.10169 0.54585 0.0
O486 O 0.08523 0.08374 0.50858 0.0
C487 C 0.03796 0.04311 0.5469 0.0
O488 O 0.07355 0.0929 0.59763 0.0
O489 O 0.10937 0.08689 0.60657 0.0
O490 O 0.12687 0.08128 0.56189 0.0
O491 O 0.1211 0.06389 0.52308 0.0
O492 O 0.08367 0.01858 0.54205 0.0
O493 O 0.09347 0.03722 0.58025 0.0
C494 C 0.08457 0.1026 0.5223 0.0
O495 O 0.0957 0.02564 0.49342 0.0
O496 O 0.06236 0.03671 0.48428 0.0
C497 C 0.086 0.08619 0.63794 0.0
C498 C 0.08401 0.06837 0.68343 0.0
C499 C 0.09336 0.09183 0.68177 0.0
C500 C 0.09439 0.10064 0.65916 0.0
C501 C 0.07509 0.0632 0.63944 0.0
C502 C 0.07402 0.05436 0.66205 0.0
C503 C 0.09156 0.09423 0.61458 0.0
H504 H 0.09922 1.00108 0.40388 0.0
H505 H 0.09652 0.99834 0.44708 0.0
H506 H 0.07251 0.06291 0.45075 0.0
H507 H 0.07379 0.06514 0.40761 0.0
H508 H 0.10153 0.10304 0.69779 0.0
H509 H 0.10299 0.11839 0.65824 0.0
H510 H 0.06856 0.0518 0.62313 0.0
H511 H 0.0665 0.03629 0.66274 0.0
Tb512 Tb 0.32747 0.78261 0.78943 0.0
Eu513 Eu 0.35092 0.83073 0.7701 0.0
C514 C 0.32997 0.82944 0.82066 0.0
C515 C 0.29368 0.81155 0.76079 0.0
C516 C 0.30968 0.72024 0.79457 0.0
C517 C 0.30346 0.67969 0.80133 0.0
C518 C 0.3023 0.7023 0.80887 0.0
C519 C 0.31788 0.71542 0.77252 0.0
C520 C 0.3189 0.69288 0.76492 0.0
C521 C 0.31189 0.67481 0.77933 0.0
C522 C 0.3091 0.74399 0.80271 0.0
O523 O 0.32976 0.77511 0.75109 0.0
O524 O 0.36227 0.80258 0.7483 0.0
O525 O 0.37945 0.82246 0.79794 0.0
O526 O 0.36654 0.78347 0.7956 0.0
C527 C 0.34756 0.78352 0.73961 0.0
O528 O 0.35831 0.85063 0.73931 0.0
O529 O 0.37286 0.86526 0.77576 0.0
O530 O 0.33251 0.84093 0.80137 0.0
O531 O 0.33147 0.80762 0.82046 0.0
O532 O 0.29671 0.79901 0.77929 0.0
O533 O 0.31235 0.8226 0.75186 0.0
C534 C 0.38344 0.80193 0.80245 0.0
O535 O 0.32925 0.7564 0.81302 0.0
O536 O 0.29836 0.75511 0.7869 0.0
C537 C 0.36248 0.8906 0.74765 0.0
C538 C 0.34882 0.93334 0.74366 0.0
C539 C 0.37302 0.93194 0.74606 0.0
C540 C 0.37979 0.91067 0.74801 0.0
C541 C 0.33831 0.89177 0.7442 0.0
C542 C 0.33152 0.91298 0.74211 0.0
C543 C 0.36981 0.86892 0.75287 0.0
H544 H 0.29793 0.66606 0.81275 0.0
H545 H 0.2959 0.70581 0.82593 0.0
H546 H 0.32378 0.72912 0.76133 0.0
H547 H 0.32594 0.68974 0.74813 0.0
H548 H 0.38669 0.94737 0.74723 0.0
H549 H 0.39854 0.90999 0.75069 0.0
H550 H 0.32472 0.87642 0.74409 0.0
H551 H 0.31276 0.91354 0.74072 0.0
Tb552 Tb 0.59745 0.04621 0.057 0.0
Eu553 Eu 0.57851 0.05977 1.00408 0.0
C554 C 0.59123 1.00814 1.01142 0.0
C555 C 0.63245 0.06937 0.024 0.0
C556 C 0.61486 0.05254 0.12256 0.0
C557 C 0.6171 0.08894 0.14595 0.0
C558 C 0.61921 0.07674 0.12444 0.0
C559 C 0.60913 0.04077 0.14276 0.0
C560 C 0.60694 0.05299 0.16432 0.0
C561 C 0.61045 0.07719 0.16595 0.0
C562 C 0.61448 0.03961 0.09915 0.0
O563 O 0.59594 0.08345 0.06399 0.0
O564 O 0.57296 0.08958 0.02939 0.0
O565 O 0.54972 0.03354 0.01536 0.0
O566 O 0.55909 0.04237 0.05606 0.0
C567 C 0.58352 0.0967 0.05163 0.0
O568 O 0.58379 0.06596 0.96679 0.0
O569 O 0.55044 0.0695 0.97955 0.0
O570 O 0.58924 0.02473 0.9968 0.0
O571 O 0.59197 1.01236 0.03522 0.0
O572 O 0.62665 0.05097 0.03543 0.0
O573 O 0.61586 0.07942 0.01414 0.0
C574 C 0.54376 0.03301 0.03722 0.0
O575 O 0.59355 0.02892 0.08865 0.0
O576 O 0.62691 0.05054 0.08387 0.0
C577 C 0.54887 0.05292 0.93993 0.0
C578 C 0.53063 0.0213 0.89944 0.0
C579 C 0.54017 0.04446 0.8964 0.0
C580 C 0.54925 0.06013 0.91653 0.0
C581 C 0.5382 0.03021 0.94314 0.0
C582 C 0.52904 1.01454 0.92304 0.0
C583 C 0.56182 0.06821 0.96078 0.0
H584 H 0.62019 0.10757 0.14675 0.0
H585 H 0.62366 0.0863 0.10911 0.0
H586 H 0.60559 0.02212 0.14161 0.0
H587 H 0.60148 0.04342 0.17932 0.0
H588 H 0.54205 0.05018 0.87851 0.0
H589 H 0.55759 0.07757 0.9138 0.0
H590 H 0.53787 0.02434 0.96116 0.0
H591 H 0.52161 0.99692 0.92598 0.0
Tb592 Tb 0.34839 0.3268 0.30089 0.0
Eu593 Eu 0.32279 0.27807 0.27201 0.0
C594 C 0.34739 0.28101 0.32898 0.0
C595 C 0.37971 0.29861 0.2697 0.0
C596 C 0.35707 0.388 0.31905 0.0
C597 C 0.33564 0.41559 0.33538 0.0
C598 C 0.34983 0.39911 0.33896 0.0
C599 C 0.35196 0.3953 0.2958 0.0
C600 C 0.33783 0.41173 0.29222 0.0
C601 C 0.32851 0.42117 0.3118 0.0
C602 C 0.36569 0.36635 0.32192 0.0
O603 O 0.33165 0.33757 0.26641 0.0
O604 O 0.32081 0.30318 0.24303 0.0
O605 O 0.29158 0.29246 0.28411 0.0
O606 O 0.31238 0.32022 0.313 0.0
C607 C 0.32443 0.32581 0.245 0.0
O608 O 0.31981 0.2517 0.2421 0.0
O609 O 0.295 0.24707 0.26822 0.0
O610 O 0.33229 0.26935 0.31088 0.0
O611 O 0.35856 0.30224 0.32675 0.0
O612 O 0.37745 0.31786 0.28163 0.0
O613 O 0.36211 0.28045 0.26692 0.0
C614 C 0.29201 0.30688 0.30319 0.0
O615 O 0.35152 0.35056 0.33124 0.0
O616 O 0.37361 0.35772 0.30328 0.0
C617 C 0.30916 0.21465 0.25434 0.0
C618 C 0.32907 0.17529 0.26068 0.0
C619 C 0.31863 0.17931 0.23758 0.0
C620 C 0.30877 0.19891 0.23444 0.0
C621 C 0.31822 0.20993 0.27759 0.0
C622 C 0.32801 0.19044 0.28073 0.0
C623 C 0.30343 0.23734 0.25052 0.0
H624 H 0.32903 0.42288 0.35086 0.0
H625 H 0.35365 0.39381 0.35706 0.0
H626 H 0.3573 0.3871 0.28004 0.0
H627 H 0.33258 0.41548 0.2738 0.0
H628 H 0.31903 0.16786 0.22181 0.0
H629 H 0.30195 0.20238 0.21634 0.0
H630 H 0.319 0.22198 0.29319 0.0
H631 H 0.33625 0.18822 0.29871 0.0
Tb632 Tb 0.58378 0.53917 0.01599 0.0
Eu633 Eu 0.58397 0.56465 0.0683 0.0
C634 C 0.63282 0.56745 0.04447 0.0
C635 C 0.58716 0.50941 0.06284 0.0
C636 C 0.58522 0.52334 0.94979 0.0
C637 C 0.58683 0.50715 0.90922 0.0
C638 C 0.59042 0.50605 0.93431 0.0
C639 C 0.57901 0.54303 0.94015 0.0
C640 C 0.5752 0.54406 0.91506 0.0
C641 C 0.57766 0.52544 0.89934 0.0
C642 C 0.58196 0.5185 0.97479 0.0
O643 O 0.5484 0.52609 0.02677 0.0
O644 O 0.54454 0.55518 0.05363 0.0
O645 O 0.58296 0.59381 0.04334 0.0
O646 O 0.57899 0.5742 1.00582 0.0
C647 C 0.53497 0.53634 0.03957 0.0
O648 O 0.57352 0.5646 0.10473 0.0
O649 O 0.59574 0.59488 0.0941 0.0
O650 O 0.62309 0.56541 0.06464 0.0
O651 O 0.61961 0.56103 0.02336 0.0
O652 O 0.59112 0.51186 0.04011 0.0
O653 O 0.58295 0.52696 0.07618 0.0
C654 C 0.58089 0.59378 0.01948 0.0
O655 O 0.6008 0.52215 0.99103 0.0
O656 O 0.56397 0.52539 0.98292 0.0
C657 C 0.60462 0.58433 0.13386 0.0
C658 C 0.63698 0.57964 0.17436 0.0
C659 C 0.61239 0.57548 0.17568 0.0
C660 C 0.59635 0.57789 0.15559 0.0
C661 C 0.62923 0.5888 0.13265 0.0
C662 C 0.64526 0.58661 0.15277 0.0
C663 C 0.58748 0.58432 0.11206 0.0
H664 H 0.58943 0.49282 0.89757 0.0
H665 H 0.59544 0.49082 0.94149 0.0
H666 H 0.57511 0.55668 0.95189 0.0
H667 H 0.56813 0.5584 0.90813 0.0
H668 H 0.60559 0.57029 0.19223 0.0
H669 H 0.57744 0.57422 0.15684 0.0
H670 H 0.63614 0.59347 0.116 0.0
H671 H 0.66409 0.5897 0.15119 0.0
Tb672 Tb 0.82838 0.27952 0.2963 0.0
Eu673 Eu 0.84827 0.33059 0.28033 0.0
C674 C 0.83006 0.3228 0.33144 0.0
C675 C 0.79173 0.30687 0.26905 0.0
C676 C 0.82406 0.21929 0.31174 0.0
C677 C 0.81856 0.17768 0.3086 0.0
C678 C 0.809 0.1976 0.30925 0.0
C679 C 0.84881 0.22096 0.31452 0.0
C680 C 0.85838 0.20107 0.31405 0.0
C681 C 0.84332 0.17926 0.31052 0.0
C682 C 0.8138 0.23991 0.30942 0.0
O683 O 0.84641 0.2734 0.26474 0.0
O684 O 0.84582 0.30726 0.24692 0.0
O685 O 0.88186 0.31618 0.29092 0.0
O686 O 0.86571 0.28799 0.31388 0.0
C687 C 0.84814 0.28571 0.24586 0.0
O688 O 0.84274 0.36036 0.26069 0.0
O689 O 0.87624 0.36134 0.28278 0.0
O690 O 0.84666 0.33398 0.32022 0.0
O691 O 0.81679 0.30324 0.32168 0.0
O692 O 0.79785 0.28693 0.27273 0.0
O693 O 0.80747 0.32625 0.27498 0.0
C694 C 0.88452 0.30134 0.3073 0.0
O695 O 0.82388 0.2577 0.32437 0.0
O696 O 0.80966 0.24558 0.28733 0.0
C697 C 0.85938 0.39386 0.2857 0.0
C698 C 0.85418 0.43204 0.31567 0.0
C699 C 0.86604 0.43521 0.29502 0.0
C700 C 0.86882 0.41618 0.28024 0.0
C701 C 0.8473 0.39072 0.30592 0.0
C702 C 0.84517 0.40947 0.32102 0.0
C703 C 0.86242 0.37337 0.27141 0.0
H704 H 0.8066 0.16106 0.30596 0.0
H705 H 0.78985 0.19608 0.30702 0.0
H706 H 0.8607 0.23761 0.31622 0.0
H707 H 0.87751 0.20278 0.3152 0.0
H708 H 0.8729 0.4523 0.29005 0.0
H709 H 0.87818 0.41886 0.2646 0.0
H710 H 0.83957 0.37362 0.31012 0.0
H711 H 0.8365 0.40608 0.33697 0.0
Tb712 Tb 0.09789 0.55169 0.56811 0.0
Eu713 Eu 0.06692 0.56069 0.51846 0.0
C714 C 0.08695 0.51238 0.52264 0.0
C715 C 0.12248 0.57837 0.5283 0.0
C716 C 0.1181 0.52857 0.62569 0.0
C717 C 0.12076 0.52445 0.66879 0.0
C718 C 0.12966 0.5351 0.64926 0.0
C719 C 0.09944 0.50931 0.62143 0.0
C720 C 0.09066 0.4984 0.64097 0.0
C721 C 0.10009 0.50702 0.66498 0.0
C722 C 0.12131 0.54533 0.60758 0.0
O723 O 0.08476 0.58386 0.5775 0.0
O724 O 0.07421 0.59589 0.54008 0.0
O725 O 0.0422 0.55196 0.54629 0.0
O726 O 0.06347 0.52948 0.56765 0.0
C727 C 0.07908 0.60016 0.56386 0.0
O728 O 0.06242 0.57569 0.48369 0.0
O729 O 1.03216 0.55502 0.49665 0.0
O730 O 0.07106 0.52322 0.51195 0.0
O731 O 0.10093 0.52201 0.54274 0.0
O732 O 0.12081 0.57745 0.55141 0.0
O733 O 0.10528 0.56771 0.51173 0.0
C734 C 0.04313 0.53509 0.56024 0.0
O735 O 0.12593 0.53837 0.58636 0.0
O736 O 0.10495 0.55772 0.60575 0.0
C737 C 1.03452 0.55111 0.4548 0.0
C738 C 1.02896 0.52506 0.40987 0.0
C739 C 1.03208 0.54923 0.41097 0.0
C740 C 0.0348 0.56213 0.43328 0.0
C741 C 1.03042 0.52695 0.4537 0.0
C742 C 1.02749 0.51405 0.43143 0.0
C743 C 0.04037 0.56488 0.47829 0.0
H744 H 0.1286 0.53174 0.68686 0.0
H745 H 0.14401 0.55005 0.65283 0.0
H746 H 0.09027 0.50408 0.60325 0.0
H747 H 0.07518 0.48459 0.63731 0.0
H748 H 1.03366 0.55829 0.39476 0.0
H749 H 0.03806 0.58075 0.4338 0.0
H750 H 1.03019 0.51801 0.4701 0.0
H751 H 1.0248 0.49547 0.43119 0.0
Tb752 Tb 0.80844 0.81247 0.28295 0.0
Eu753 Eu 0.86155 0.80476 0.30276 0.0
C754 C 0.85373 0.84469 0.26898 0.0
C755 C 0.83608 0.7848 0.24824 0.0
C756 C 0.74526 0.81322 0.28129 0.0
C757 C 0.70271 0.81014 0.28049 0.0
C758 C 0.7231 0.81478 0.26895 0.0
C759 C 0.74693 0.80697 0.30522 0.0
C760 C 0.72666 0.80248 0.3168 0.0
C761 C 0.70434 0.804 0.30456 0.0
C762 C 0.76666 0.81764 0.26928 0.0
O763 O 0.80297 0.77926 0.29824 0.0
O764 O 0.83726 0.78371 0.32475 0.0
O765 O 0.8532 0.83132 0.33016 0.0
O766 O 0.81252 0.82333 0.32218 0.0
C767 C 0.81521 0.77355 0.31754 0.0
O768 O 0.88637 0.78189 0.311 0.0
O769 O 0.89799 0.81885 0.31886 0.0
O770 O 0.86651 0.82914 0.27389 0.0
O771 O 0.83264 0.84346 0.27594 0.0
O772 O 0.82118 0.79905 0.25008 0.0
O773 O 0.8503 0.7814 0.2675 0.0
C774 C 0.83223 0.83279 0.33663 0.0
O775 O 0.78358 0.83413 0.27996 0.0
O776 O 0.77481 0.79941 0.26313 0.0
C777 C 0.92528 0.79847 0.30513 0.0
C778 C 0.96643 0.80301 0.28216 0.0
C779 C 0.96763 0.79978 0.30707 0.0
C780 C 0.94716 0.79758 0.31848 0.0
C781 C 0.92378 0.80076 0.28013 0.0
C782 C 0.9442 0.80301 0.26871 0.0
C783 C 0.90441 0.79891 0.31746 0.0
H784 H 0.68574 0.81157 0.27071 0.0
H785 H 0.72157 0.81953 0.25043 0.0
H786 H 0.76392 0.80544 0.31491 0.0
H787 H 0.72839 0.79743 0.33519 0.0
H788 H 0.98446 0.79941 0.31781 0.0
H789 H 0.94851 0.79582 0.33782 0.0
H790 H 0.90695 0.80162 0.26962 0.0
H791 H 0.94271 0.80579 0.2496 0.0
Tb792 Tb 0.84686 0.28439 0.79345 0.0
Eu793 Eu 0.79128 0.25675 0.7756 0.0
C794 C 0.80409 0.31047 0.79543 0.0
C795 C 0.81632 0.25815 0.82998 0.0
C796 C 0.90133 0.32766 0.81675 0.0
C797 C 0.90041 0.36534 0.83568 0.0
C798 C 0.88878 0.34307 0.82693 0.0
C799 C 0.9256 0.33489 0.81522 0.0
C800 C 0.93723 0.3573 0.82373 0.0
C801 C 0.92477 0.37282 0.83409 0.0
C802 C 0.88939 0.30387 0.80853 0.0
O803 O 0.84687 0.25285 0.77137 0.0
O804 O 0.814 0.2304 0.78233 0.0
O805 O 0.80784 0.26935 0.74284 0.0
O806 O 0.83601 0.30002 0.76094 0.0
C807 C 0.83528 0.2326 0.77576 0.0
O808 O 0.7667 0.23572 0.74647 0.0
O809 O 0.75367 0.24599 0.77951 0.0
O810 O 0.78958 0.29406 0.78109 0.0
O811 O 0.82568 0.30881 0.80481 0.0
O812 O 0.8366 0.26163 0.82108 0.0
O813 O 0.7962 0.25875 0.8165 0.0
C814 C 0.82262 0.28888 0.7416 0.0
O815 O 0.87436 0.29423 0.8223 0.0
O816 O 0.88086 0.29974 0.78562 0.0
C817 C 0.73392 0.21054 0.75758 0.0
C818 C 0.70689 0.16526 0.75345 0.0
C819 C 0.70636 0.17893 0.73367 0.0
C820 C 0.71968 0.20133 0.73578 0.0
C821 C 0.73445 0.19714 0.77748 0.0
C822 C 0.72096 0.17473 0.77546 0.0
C823 C 0.74859 0.23379 0.75861 0.0
H824 H 0.89029 0.37661 0.84388 0.0
H825 H 0.87002 0.33781 0.82835 0.0
H826 H 0.93556 0.3232 0.80742 0.0
H827 H 0.95588 0.36254 0.82182 0.0
H828 H 0.69612 0.17216 0.71633 0.0
H829 H 0.71917 0.21138 0.72017 0.0
H830 H 0.7454 0.20389 0.79448 0.0
H831 H 0.72156 0.16485 0.79117 0.0
Tb832 Tb 0.84847 0.82462 0.804 0.0
Eu833 Eu 0.82322 0.77623 0.77448 0.0
C834 C 0.84726 0.77762 0.83095 0.0
C835 C 0.87965 0.79905 0.77183 0.0
C836 C 0.85408 0.8848 0.82337 0.0
C837 C 0.82691 0.90687 0.83902 0.0
C838 C 0.84352 0.89266 0.84284 0.0
C839 C 0.84993 0.89363 0.80072 0.0
C840 C 0.83341 0.90785 0.79692 0.0
C841 C 0.82074 0.91353 0.81568 0.0
C842 C 0.86477 0.86413 0.82533 0.0
O843 O 0.839 0.83419 0.7667 0.0
O844 O 0.81223 0.80225 0.74909 0.0
O845 O 0.79476 0.78476 0.79671 0.0
O846 O 0.81 0.82301 0.8071 0.0
C847 C 0.82357 0.82361 0.74816 0.0
O848 O 0.82278 0.75031 0.74481 0.0
O849 O 0.79598 0.74466 0.76874 0.0
O850 O 0.84099 0.76558 0.80972 0.0
O851 O 0.85011 0.80028 0.83249 0.0
O852 O 0.87964 0.81231 0.79181 0.0
O853 O 0.85963 0.78576 0.76141 0.0
C854 C 0.79266 0.80478 0.80681 0.0
O855 O 0.85245 0.84742 0.83526 0.0
O856 O 0.87227 0.85644 0.80593 0.0
C857 C 0.81296 0.71312 0.75695 0.0
C858 C 0.83577 0.67595 0.76646 0.0
C859 C 0.82898 0.68059 0.74243 0.0
C860 C 0.81767 0.69905 0.73773 0.0
C861 C 0.81842 0.70765 0.78089 0.0
C862 C 0.82965 0.68923 0.78559 0.0
C863 C 0.80626 0.73534 0.75225 0.0
H864 H 0.81776 0.91138 0.85394 0.0
H865 H 0.84656 0.88625 0.86052 0.0
H866 H 0.85784 0.88805 0.7853 0.0
H867 H 0.82907 0.9126 0.7787 0.0
H868 H 0.83321 0.6705 0.72731 0.0
H869 H 0.81375 0.70308 0.71915 0.0
H870 H 0.81523 0.71837 0.79609 0.0
H871 H 0.83488 0.68636 0.80431 0.0
Tb872 Tb 0.55702 0.52842 0.51829 0.0
Eu873 Eu 0.60868 0.55756 0.54635 0.0
C874 C 0.60283 0.53025 0.49363 0.0
C875 C 0.59274 0.50443 0.54893 0.0
C876 C 0.49375 0.51992 0.49864 0.0
C877 C 0.46562 0.53877 0.47536 0.0
C878 C 0.48309 0.52526 0.47625 0.0
C879 C 0.48556 0.5272 0.52003 0.0
C880 C 0.46814 0.54065 0.51914 0.0
C881 C 0.45843 0.54714 0.49686 0.0
C882 C 0.51541 0.50983 0.49986 0.0
O883 O 0.54916 0.55239 0.54544 0.0
O884 O 0.58235 0.55544 0.57322 0.0
O885 O 0.58919 0.58472 0.53374 0.0
O886 O 0.56344 0.56182 0.50322 0.0
C887 C 0.56009 0.55724 0.56764 0.0
O888 O 0.63549 0.56179 0.57823 0.0
O889 O 0.64188 0.5827 0.54815 0.0
O890 O 0.61297 0.54891 0.50765 0.0
O891 O 0.58261 0.51729 0.49705 0.0
O892 O 0.57054 0.50704 0.54523 0.0
O893 O 0.60989 0.52021 0.54363 0.0
C894 C 0.57361 0.58222 0.51411 0.0
O895 O 0.53164 0.51927 0.48714 0.0
O896 O 0.5248 0.50625 0.52145 0.0
C897 C 0.67282 0.56509 0.5652 0.0
C898 C 0.70601 0.53611 0.56196 0.0
C899 C 0.70399 0.54719 0.58444 0.0
C900 C 0.68744 0.56151 0.58604 0.0
C901 C 0.676 0.55525 0.54254 0.0
C902 C 0.69245 0.54097 0.54094 0.0
C903 C 0.65139 0.57471 0.56755 0.0
H904 H 0.45821 0.54318 0.45787 0.0
H905 H 0.48904 0.51986 0.4595 0.0
H906 H 0.49339 0.52351 0.53765 0.0
H907 H 0.46323 0.54697 0.53607 0.0
H908 H 0.71412 0.54367 0.60097 0.0
H909 H 0.68503 0.56862 0.60373 0.0
H910 H 0.66481 0.55748 0.52615 0.0
H911 H 0.6939 0.53301 0.52331 0.0
Tb912 Tb 0.06809 0.53825 0.01358 0.0
Eu913 Eu 0.09251 0.57 0.06308 0.0
C914 C 0.06445 0.51831 0.06357 0.0
C915 C 0.04016 0.57429 0.03786 0.0
C916 C 0.04393 0.48942 0.96631 0.0
C917 C 1.03004 0.45991 0.93296 0.0
C918 C 0.03596 0.48314 0.94165 0.0
C919 C 0.04646 0.4723 0.98216 0.0
C920 C 0.04038 0.4491 0.97356 0.0
C921 C 1.03187 0.44259 0.94889 0.0
C922 C 0.04758 0.51363 0.97563 0.0
O923 O 0.0771 0.57285 1.00277 0.0
O924 O 0.10732 0.58907 0.03285 0.0
O925 O 0.11575 0.54316 0.05885 0.0
O926 O 0.10545 0.53243 0.01817 0.0
C927 C 0.09562 0.58885 1.01124 0.0
O928 O 0.12437 0.58829 0.08641 0.0
O929 O 0.0898 0.58684 0.09824 0.0
O930 O 0.06768 0.53934 0.07378 0.0
O931 O 0.06847 0.51427 0.04128 0.0
O932 O 0.03916 0.55368 0.02676 0.0
O933 O 0.0605 0.58573 0.04979 0.0
C934 C 0.12005 0.53294 0.0386 0.0
O935 O 0.03735 0.51736 0.99469 0.0
O936 O 0.06918 0.52571 0.97759 0.0
C937 C 0.11851 0.621 0.10863 0.0
C938 C 0.13231 0.6691 0.11865 0.0
C939 C 0.11284 0.65955 0.10099 0.0
C940 C 0.1061 0.63574 0.09592 0.0
C941 C 0.13775 0.63034 0.12641 0.0
C942 C 0.14463 0.6542 0.13139 0.0
C943 C 0.11242 0.59605 0.10238 0.0
H944 H 1.02395 0.45557 0.9138 0.0
H945 H 1.03386 0.49618 0.92919 0.0
H946 H 0.05247 0.47686 1.00132 0.0
H947 H 0.04169 0.4363 0.98645 0.0
H948 H 0.10267 0.67045 0.09113 0.0
H949 H 0.0913 0.62883 0.08196 0.0
H950 H 0.14769 0.61918 0.13618 0.0
H951 H 0.15986 0.66095 0.14489 0.0
H952 H 0.03538 0.17665 0.91942 0.0
H953 H 0.10709 0.15976 0.04629 0.0
H954 H 0.05294 0.23082 0.97774 0.0
H955 H 0.10545 0.11831 0.97947 0.0
H956 H 0.0857 0.18548 0.02336 0.0
H957 H 0.058 0.15346 0.94364 0.0
C958 C 0.0439 0.18365 0.9374 0.0
C959 C 0.0424 0.20579 0.9465 0.0
C960 C 0.0903 0.17086 0.0138 0.0
C961 C 0.06859 0.1793 0.97434 0.0
C962 C 0.10262 0.1563 0.02681 0.0
C963 C 0.1079 0.13681 0.01478 0.0
C964 C 0.08319 0.16566 0.98876 0.0
C965 C 0.10156 0.13301 0.98956 0.0
C966 C 0.05696 0.17043 0.95119 0.0
C967 C 0.05375 0.21387 0.97 0.0
N968 N 0.08937 0.14715 0.97747 0.0
N969 N 0.06645 0.2006 0.98317 0.0
H970 H 0.19706 0.89599 0.26583 0.0
H971 H 0.32694 0.87211 0.26809 0.0
H972 H 0.24569 0.92261 0.2166 0.0
H973 H 0.26929 0.83216 0.299 0.0
H974 H 0.30394 0.90286 0.26315 0.0
H975 H 0.23019 0.88667 0.29224 0.0
C976 C 0.21487 0.90052 0.26098 0.0
C977 C 0.21861 0.90933 0.23867 0.0
C978 C 0.29673 0.88772 0.27183 0.0
C979 C 0.25635 0.89817 0.26836 0.0
C980 C 0.30984 0.87029 0.27472 0.0
C981 C 0.29968 0.84967 0.28365 0.0
C982 C 0.27353 0.88433 0.2781 0.0
C983 C 0.27749 0.84782 0.2918 0.0
C984 C 0.23376 0.89517 0.27602 0.0
C985 C 0.24204 0.91537 0.23345 0.0
N986 N 0.26499 0.86482 0.28854 0.0
N987 N 0.26002 0.909 0.24784 0.0
H988 H 0.52282 0.80272 0.44469 0.0
H989 H 0.50419 0.93026 0.42138 0.0
H990 H 0.48505 0.81973 0.37869 0.0
H991 H 0.55552 0.91485 0.4779 0.0
H992 H 0.49271 0.88923 0.40822 0.0
H993 H 0.52994 0.84313 0.46029 0.0
C994 C 0.51576 0.81489 0.43359 0.0
C995 C 0.50346 0.80787 0.41026 0.0
C996 C 0.50643 0.89486 0.42355 0.0
C997 C 0.51169 0.85415 0.42797 0.0
C998 C 0.51313 0.91831 0.43098 0.0
C999 C 0.53097 0.92613 0.45074 0.0
C1000 C 0.51752 0.87905 0.43601 0.0
C1001 C 0.54149 0.90969 0.46279 0.0
C1002 C 0.51996 0.83798 0.44246 0.0
C1003 C 0.49477 0.82442 0.39669 0.0
N1004 N 0.53464 0.88696 0.45521 0.0
N1005 N 0.49914 0.84681 0.40571 0.0
H1006 H 0.60438 0.36713 0.76258 0.0
H1007 H 0.47385 0.28847 0.74231 0.0
H1008 H 0.56725 0.33816 0.69238 0.0
H1009 H 0.50444 0.32897 0.80948 0.0
H1010 H 0.51007 0.30294 0.72492 0.0
H1011 H 0.56966 0.35006 0.7812 0.0
C1012 C 0.58892 0.35722 0.75108 0.0
C1013 C 0.58866 0.35413 0.72588 0.0
C1014 C 0.50889 0.30857 0.7435 0.0
C1015 C 0.54905 0.33442 0.74706 0.0
C1016 C 0.48822 0.30034 0.75343 0.0
C1017 C 0.48603 0.30766 0.77733 0.0
C1018 C 0.52756 0.32419 0.75757 0.0
C1019 C 0.50542 0.3227 0.79106 0.0
C1020 C 0.56914 0.34748 0.76172 0.0
C1021 C 0.56819 0.34109 0.71187 0.0
N1022 N 0.52533 0.33057 0.78093 0.0
N1023 N 0.54922 0.33168 0.72266 0.0
H1024 H 0.07315 0.86907 0.5969 0.0
H1025 H 0.09678 1.00935 0.61438 0.0
H1026 H 0.09116 0.9096 0.66569 0.0
H1027 H 0.0789 0.97265 0.54352 0.0
H1028 H 0.09486 0.97254 0.6325 0.0
H1029 H 0.07509 0.90533 0.57644 0.0
C1030 C 0.07752 0.88538 0.60782 0.0
C1031 C 0.08196 0.88567 0.6334 0.0
C1032 C 0.09139 0.97235 0.61295 0.0
C1033 C 0.08425 0.92798 0.60969 0.0
C1034 C 0.09254 0.99364 0.60245 0.0
C1035 C 0.08815 0.99474 0.57708 0.0
C1036 C 0.08572 0.95126 0.59834 0.0
C1037 C 0.08258 0.97317 0.56307 0.0
C1038 C 0.07863 0.90626 0.59603 0.0
C1039 C 0.08752 0.90787 0.64609 0.0
N1040 N 0.08154 0.95262 0.57375 0.0
N1041 N 0.08847 0.92763 0.63432 0.0
H1042 H 0.51757 0.83325 0.89936 0.0
H1043 H 0.40538 0.76369 0.80732 0.0
H1044 H 0.52174 0.76917 0.86112 0.0
H1045 H 0.41744 0.83654 0.82784 0.0
H1046 H 0.44531 0.76285 0.82883 0.0
H1047 H 0.47903 0.83235 0.87567 0.0
C1048 C 0.51047 0.81892 0.88588 0.0
C1049 C 0.52337 0.80132 0.88239 0.0
C1050 C 0.43919 0.779 0.82853 0.0
C1051 C 0.47801 0.79997 0.85492 0.0
C1052 C 0.41626 0.77949 0.81631 0.0
C1053 C 0.40766 0.80024 0.81555 0.0
C1054 C 0.45366 0.79932 0.8406 0.0
C1055 C 0.42295 0.82009 0.82764 0.0
C1056 C 0.48826 0.81845 0.87224 0.0
C1057 C 0.51278 0.78329 0.86444 0.0
N1058 N 0.44479 0.81907 0.83962 0.0
N1059 N 0.49074 0.78296 0.85162 0.0
H1060 H 0.5813 0.22433 0.14607 0.0
H1061 H 0.56655 0.1318 0.02884 0.0
H1062 H 0.56829 0.2404 0.07191 0.0
H1063 H 0.59621 0.11732 0.0996 0.0
H1064 H 0.56388 0.17019 0.04561 0.0
H1065 H 0.58351 0.18463 0.1312 0.0
C1066 C 0.57865 0.21964 0.12672 0.0
C1067 C 0.5745 0.2363 0.11043 0.0
C1068 C 0.57097 0.15872 0.05762 0.0
C1069 C 0.57703 0.19011 0.09299 0.0
C1070 C 0.5725 0.1365 0.04797 0.0
C1071 C 0.58172 0.1207 0.06254 0.0
C1072 C 0.57841 0.16583 0.08243 0.0
C1073 C 0.58905 0.12854 0.08734 0.0
C1074 C 0.58008 0.19683 0.11818 0.0
C1075 C 0.57153 0.22864 0.08547 0.0
N1076 N 0.58716 0.15023 0.09638 0.0
N1077 N 0.57274 0.20652 0.07774 0.0
H1078 H 0.18108 0.32936 0.3972 0.0
H1079 H 0.24687 0.27994 0.2898 0.0
H1080 H 0.14915 0.27207 0.34514 0.0
H1081 H 0.28406 0.33389 0.34351 0.0
H1082 H 0.21085 0.2787 0.3093 0.0
H1083 H 0.21804 0.3331 0.3779 0.0
C1084 C 0.18161 0.31761 0.38175 0.0
C1085 C 0.16141 0.30031 0.37309 0.0
C1086 C 0.22679 0.29094 0.31691 0.0
C1087 C 0.20435 0.30457 0.35052 0.0
C1088 C 0.2476 0.29172 0.3056 0.0
C1089 C 0.26908 0.30711 0.31466 0.0
C1090 C 0.22678 0.30566 0.33779 0.0
C1091 C 0.26824 0.32172 0.33553 0.0
C1092 C 0.2029 0.31973 0.37068 0.0
C1093 C 0.16383 0.2857 0.35285 0.0
N1094 N 0.24772 0.32063 0.34623 0.0
N1095 N 0.18448 0.28817 0.34251 0.0
H1096 H 1.0128 0.10292 0.19908 0.0
H1097 H 0.04421 0.08117 0.06521 0.0
H1098 H 0.96911 0.05237 0.14516 0.0
H1099 H 0.09711 0.10699 0.12714 0.0
H1100 H 1.01311 0.07998 0.09149 0.0
H1101 H 0.04009 0.11387 0.16958 0.0
C1102 C 1.00871 0.09438 0.18092 0.0
C1103 C 0.98885 0.07645 0.17462 0.0
C1104 C 1.03152 0.08616 0.09921 0.0
C1105 C 1.01991 0.089 0.14093 0.0
C1106 C 0.04929 0.08693 0.08426 0.0
C1107 C 0.07332 0.09391 0.09412 0.0
C1108 C 0.03783 0.09268 0.12408 0.0
C1109 C 0.07882 0.10122 0.11889 0.0
C1110 C 1.02435 0.1006 0.16417 0.0
C1111 C 0.98439 0.06607 0.15082 0.0
N1112 N 0.06118 0.10029 0.13308 0.0
N1113 N 0.99993 0.0724 0.13483 0.0
H1114 H 0.2843 0.69565 0.43286 0.0
H1115 H 0.35808 0.78353 0.35442 0.0
H1116 H 0.34815 0.74349 0.46415 0.0
H1117 H 0.28467 0.75058 0.33229 0.0
H1118 H 0.35589 0.76817 0.39408 0.0
H1119 H 0.28515 0.71464 0.3953 0.0
C1120 C 0.29849 0.71023 0.43186 0.0
C1121 C 0.31625 0.71794 0.45165 0.0
C1122 C 0.34023 0.76447 0.38059 0.0
C1123 C 0.31742 0.73971 0.40848 0.0
C1124 C 0.34147 0.77314 0.3579 0.0
C1125 C 0.32154 0.76828 0.33992 0.0
C1126 C 0.31901 0.75057 0.38524 0.0
C1127 C 0.30048 0.75482 0.34555 0.0
C1128 C 0.2989 0.72113 0.4104 0.0
C1129 C 0.33409 0.73703 0.44933 0.0
N1130 N 0.29984 0.74629 0.36762 0.0
N1131 N 0.33438 0.74714 0.42801 0.0
H1132 H 0.54081 0.93466 0.68393 0.0
H1133 H 0.57491 0.97879 0.5583 0.0
H1134 H 0.60581 0.92637 0.65672 0.0
H1135 H 0.55125 0.01992 0.61329 0.0
H1136 H 0.57042 0.94625 0.58395 0.0
H1137 H 0.52875 0.95168 0.64653 0.0
C1138 C 0.55199 0.93539 0.66959 0.0
C1139 C 0.57443 0.92941 0.67335 0.0
C1140 C 0.56546 0.96218 0.58991 0.0
C1141 C 0.56072 0.94853 0.63089 0.0
C1142 C 0.56798 0.98064 0.57539 0.0
C1143 C 0.56362 1.00192 0.584 0.0
C1144 C 0.55792 0.96506 0.6127 0.0
C1145 C 0.55494 1.00374 0.60627 0.0
C1146 C 0.54517 0.94521 0.64841 0.0
C1147 C 0.58845 0.931 0.65443 0.0
N1148 N 0.55248 0.98552 0.61999 0.0
N1149 N 0.58151 0.94074 0.63404 0.0
H1150 H 0.35291 0.42219 0.9627 0.0
H1151 H 0.28617 0.32508 0.85736 0.0
H1152 H 0.28689 0.37782 0.97175 0.0
H1153 H 0.36081 0.35554 0.86421 0.0
H1154 H 0.28398 0.34538 0.89681 0.0
H1155 H 0.35406 0.39951 0.92505 0.0
C1156 C 0.33859 0.40758 0.95688 0.0
C1157 C 0.31979 0.40209 0.97084 0.0
C1158 C 0.30084 0.34756 0.8897 0.0
C1159 C 0.32084 0.37575 0.92654 0.0
C1160 C 0.30212 0.336 0.86703 0.0
C1161 C 0.32375 0.33843 0.85708 0.0
C1162 C 0.32124 0.3621 0.9026 0.0
C1163 C 0.34371 0.35291 0.87083 0.0
C1164 C 0.3393 0.39453 0.93519 0.0
C1165 C 0.30188 0.38275 0.96193 0.0
N1166 N 0.3419 0.36417 0.8925 0.0
N1167 N 0.30271 0.3705 0.94034 0.0
H1168 H 1.01787 0.99028 0.25674 0.0
H1169 H 0.09185 0.06877 0.37233 0.0
H1170 H 1.01433 0.06141 0.27348 0.0
H1171 H 0.07005 0.99481 0.37001 0.0
H1172 H 0.07492 0.06707 0.32972 0.0
H1173 H 0.04824 0.99302 0.29215 0.0
C1174 C 1.02377 1.00656 0.26762 0.0
C1175 C 1.01333 0.02554 0.2625 0.0
C1176 C 0.07434 0.05122 0.33852 0.0
C1177 C 0.04808 0.02882 0.30259 0.0
C1178 C 0.0839 0.05215 0.36285 0.0
C1179 C 0.08186 0.03198 0.37509 0.0
C1180 C 0.06293 0.02996 0.32628 0.0
C1181 C 0.07207 1.01086 0.36153 0.0
C1182 C 0.04104 1.00809 0.28778 0.0
C1183 C 1.02166 0.04625 0.27709 0.0
N1184 N 0.06266 1.01045 0.33795 0.0
N1185 N 0.03845 0.04731 0.29659 0.0
H1186 H 0.31208 0.71649 0.59444 0.0
H1187 H 0.38389 0.79375 0.71192 0.0
H1188 H 0.38727 0.74493 0.60044 0.0
H1189 H 0.31557 0.74908 0.71174 0.0
H1190 H 0.38501 0.77807 0.67049 0.0
H1191 H 0.3123 0.73082 0.63649 0.0
C1192 C 0.32865 0.72584 0.60455 0.0
C1193 C 0.34971 0.7295 0.59382 0.0
C1194 C 0.36986 0.77161 0.6796 0.0
C1195 C 0.35005 0.74601 0.64215 0.0
C1196 C 0.3692 0.78054 0.70327 0.0
C1197 C 0.34957 0.77278 0.71537 0.0
C1198 C 0.35062 0.75501 0.66778 0.0
C1199 C 0.33107 0.75561 0.70318 0.0
C1200 C 0.32877 0.73391 0.62864 0.0
C1201 C 0.37063 0.74167 0.60794 0.0
N1202 N 0.33196 0.74747 0.68003 0.0
N1203 N 0.37025 0.74956 0.63133 0.0
H1204 H 0.53613 0.97559 0.75503 0.0
H1205 H 0.54132 0.9783 0.89737 0.0
H1206 H 0.57412 0.93449 0.80068 0.0
H1207 H 0.50942 0.02467 0.8532 0.0
H1208 H 0.54218 0.95396 0.86095 0.0
H1209 H 0.51571 0.98522 0.78899 0.0
C1210 C 0.53984 0.9682 0.77205 0.0
C1211 C 0.55739 0.95478 0.77527 0.0
C1212 C 0.53453 0.9692 0.85922 0.0
C1213 C 0.53421 0.96586 0.81419 0.0
C1214 C 0.53383 0.98306 0.88009 0.0
C1215 C 0.52577 1.00388 0.87831 0.0
C1216 C 0.52739 0.97633 0.8364 0.0
C1217 C 0.51644 1.00912 0.85534 0.0
C1218 C 0.52817 0.97372 0.79144 0.0
C1219 C 0.56113 0.94534 0.79756 0.0
N1220 N 0.51795 0.99568 0.83521 0.0
N1221 N 0.54998 0.95143 0.81633 0.0
H1222 H 0.30284 0.3522 0.09193 0.0
H1223 H 0.33135 0.37311 0.23829 0.0
H1224 H 0.32038 0.42068 0.12802 0.0
H1225 H 0.30986 0.30664 0.19799 0.0
H1226 H 0.32758 0.39145 0.19967 0.0
H1227 H 0.30558 0.33628 0.13119 0.0
C1228 C 0.30728 0.36407 0.10808 0.0
C1229 C 0.31136 0.38805 0.10612 0.0
C1230 C 0.3236 0.37286 0.19931 0.0
C1231 C 0.31467 0.36937 0.15239 0.0
C1232 C 0.3257 0.36229 0.22149 0.0
C1233 C 0.32092 0.33806 0.22187 0.0
C1234 C 0.3167 0.35925 0.17701 0.0
C1235 C 0.31377 0.32527 0.19911 0.0
C1236 C 0.30884 0.35481 0.13075 0.0
C1237 C 0.31701 0.40213 0.12826 0.0
N1238 N 0.31199 0.33589 0.17799 0.0
N1239 N 0.31855 0.39265 0.15027 0.0
H1240 H 0.31037 0.97977 0.03646 0.0
H1241 H 0.23089 0.03918 0.11823 0.0
H1242 H 0.28304 0.94927 0.09838 0.0
H1243 H 0.2762 0.07654 0.07154 0.0
H1244 H 0.24809 1.00544 0.11009 0.0
H1245 H 0.29525 1.01435 0.04699 0.0
C1246 C 0.30106 0.98027 0.05218 0.0
C1247 C 0.29795 0.96157 0.06655 0.0
C1248 C 0.25443 0.0211 0.10183 0.0
C1249 C 0.2807 1.00117 0.07875 0.0
C1250 C 0.2448 0.0405 0.10666 0.0
C1251 C 0.2521 0.06086 0.09559 0.0
C1252 C 0.2713 0.0219 0.08558 0.0
C1253 C 0.26976 0.06119 0.08023 0.0
C1254 C 0.29259 1.0001 0.05828 0.0
C1255 C 0.28585 0.96327 0.0868 0.0
N1256 N 0.2786 0.04196 0.07553 0.0
N1257 N 0.2776 0.9827 0.09225 0.0
H1258 H 0.77492 0.63244 1.01006 0.0
H1259 H 0.66684 0.58233 0.08457 0.0
H1260 H 0.7813 0.63259 0.08796 0.0
H1261 H 0.65909 0.57744 1.00641 0.0
H1262 H 0.70872 0.60074 0.0856 0.0
H1263 H 0.73296 0.61248 1.00769 0.0
C1264 C 0.76768 0.62825 0.02665 0.0
C1265 C 0.78208 0.63437 0.04925 0.0
C1266 C 0.69795 0.59561 0.06817 0.0
C1267 C 0.73357 0.61145 0.04667 0.0
C1268 C 0.67386 0.585 0.06757 0.0
C1269 C 0.65902 0.57808 0.04537 0.0
C1270 C 0.70773 0.59966 0.04642 0.0
C1271 C 0.66958 0.58228 0.02403 0.0
C1272 C 0.7436 0.61684 0.02529 0.0
C1273 C 0.77127 0.62839 0.07005 0.0
N1274 N 0.69305 0.59275 0.02509 0.0
N1275 N 0.74798 0.61746 0.06824 0.0
H1276 H 0.79673 0.517 0.41342 0.0
H1277 H 0.88316 0.47517 0.32672 0.0
H1278 H 0.83279 0.56275 0.36626 0.0
H1279 H 0.81624 0.43458 0.34036 0.0
H1280 H 0.87521 0.50756 0.35182 0.0
H1281 H 0.81647 0.48676 0.39908 0.0
C1282 C 0.80935 0.52093 0.40063 0.0
C1283 C 0.81273 0.54219 0.39055 0.0
C1284 C 0.86262 0.49132 0.3495 0.0
C1285 C 0.83521 0.50781 0.3742 0.0
C1286 C 0.86692 0.47291 0.33497 0.0
C1287 C 0.85041 0.45191 0.33132 0.0
C1288 C 0.84199 0.48848 0.36084 0.0
C1289 C 0.82991 0.45004 0.34299 0.0
C1290 C 0.82047 0.50364 0.39237 0.0
C1291 C 0.82937 0.54638 0.37409 0.0
N1292 N 0.82635 0.46802 0.35722 0.0
N1293 N 0.83978 0.52916 0.3661 0.0
H1294 H 0.90304 0.45087 0.5369 0.0
H1295 H 0.03756 0.50202 0.59258 0.0
H1296 H 0.93491 0.43072 0.60434 0.0
H1297 H 0.99782 0.53447 0.53881 0.0
H1298 H 1.00095 0.47486 0.59667 0.0
H1299 H 0.93867 0.48024 0.53619 0.0
C1300 C 0.91756 0.45256 0.55154 0.0
C1301 C 0.916 0.43826 0.57069 0.0
C1302 C 1.00023 0.48808 0.58417 0.0
C1303 C 0.95691 0.47194 0.56997 0.0
C1304 C 1.02111 0.5036 0.58182 0.0
C1305 C 1.02078 0.5205 0.56524 0.0
C1306 C 0.97897 0.48928 0.56958 0.0
C1307 C 0.99894 0.52176 0.55183 0.0
C1308 C 0.93785 0.46945 0.55119 0.0
C1309 C 0.93536 0.44137 0.58923 0.0
N1310 N 0.97898 0.5062 0.5541 0.0
N1311 N 0.95509 0.4578 0.58835 0.0
H1312 H 0.43897 0.12621 0.33798 0.0
H1313 H 0.3598 0.16342 0.23051 0.0
H1314 H 0.44889 0.10881 0.26408 0.0
H1315 H 0.33336 0.14764 0.29811 0.0
H1316 H 0.39164 0.14249 0.24099 0.0
H1317 H 0.40026 0.13473 0.32333 0.0
C1318 C 0.43296 0.12419 0.31865 0.0
C1319 C 0.44718 0.11704 0.30217 0.0
C1320 C 0.37853 0.14318 0.25325 0.0
C1321 C 0.40298 0.12674 0.28531 0.0
C1322 C 0.3602 0.15498 0.24722 0.0
C1323 C 0.34414 0.15772 0.26371 0.0
C1324 C 0.381 0.13446 0.27607 0.0
C1325 C 0.34577 0.14655 0.28519 0.0
C1326 C 0.41077 0.1288 0.31033 0.0
C1327 C 0.43844 0.11438 0.27735 0.0
N1328 N 0.36423 0.13586 0.29102 0.0
N1329 N 0.41699 0.11959 0.26959 0.0
H1330 H 0.44296 0.16139 0.58488 0.0
H1331 H 0.5115 0.07948 0.50976 0.0
H1332 H 0.4142 0.13121 0.51268 0.0
H1333 H 0.53461 0.10714 0.58384 0.0
H1334 H 0.47666 0.09804 0.50946 0.0
H1335 H 0.47641 0.14189 0.58371 0.0
C1336 C 0.44349 0.15064 0.56864 0.0
C1337 C 0.42518 0.14823 0.54885 0.0
C1338 C 0.48931 0.10005 0.5258 0.0
C1339 C 0.4647 0.12529 0.5474 0.0
C1340 C 0.50939 0.08939 0.52602 0.0
C1341 C 0.52647 0.09147 0.5469 0.0
C1342 C 0.48592 0.11319 0.54659 0.0
C1343 C 0.52226 0.10476 0.56725 0.0
C1344 C 0.46288 0.13938 0.56804 0.0
C1345 C 0.42755 0.13378 0.5285 0.0
N1346 N 0.50273 0.11495 0.56652 0.0
N1347 N 0.44678 0.12303 0.5283 0.0
H1348 H 0.7242 0.65568 0.36108 0.0
H1349 H 0.83557 0.75696 0.35781 0.0
H1350 H 0.79461 0.65746 0.39843 0.0
H1351 H 0.76935 0.74875 0.30993 0.0
H1352 H 0.8178 0.72542 0.37985 0.0
H1353 H 0.73738 0.69486 0.35023 0.0
C1354 C 0.74227 0.66449 0.36751 0.0
C1355 C 0.75853 0.65311 0.38018 0.0
C1356 C 0.80709 0.73061 0.36463 0.0
C1357 C 0.77369 0.69775 0.36762 0.0
C1358 C 0.81725 0.74858 0.35193 0.0
C1359 C 0.80408 0.7552 0.33163 0.0
C1360 C 0.7836 0.7191 0.35698 0.0
C1361 C 0.7803 0.74394 0.32519 0.0
C1362 C 0.74981 0.6868 0.36116 0.0
C1363 C 0.78163 0.66544 0.38823 0.0
N1364 N 0.77087 0.72625 0.33769 0.0
N1365 N 0.78864 0.68699 0.38148 0.0
H1366 H 0.95793 0.52057 0.85714 0.0
H1367 H 0.97079 0.38877 0.85644 0.0
H1368 H 1.02588 0.49955 0.86689 0.0
H1369 H 0.90638 0.41207 0.83085 0.0
H1370 H 0.99052 0.42887 0.86792 0.0
H1371 H 0.93807 0.48048 0.85658 0.0
C1372 C 0.96871 0.50757 0.85953 0.0
C1373 C 0.99361 0.5134 0.86157 0.0
C1374 C 0.97199 0.4251 0.86003 0.0
C1375 C 0.97091 0.46736 0.86067 0.0
C1376 C 0.96074 0.40223 0.85328 0.0
C1377 C 0.93684 0.39691 0.84252 0.0
C1378 C 0.95922 0.44277 0.85611 0.0
C1379 C 0.92467 0.41514 0.83936 0.0
C1380 C 0.95733 0.48465 0.8591 0.0
C1381 C 1.00663 0.4958 0.86492 0.0
N1382 N 0.93601 0.43718 0.84602 0.0
N1383 N 0.99511 0.4735 0.86405 0.0
H1384 H 0.12013 0.91759 0.14114 0.0
H1385 H 0.17449 0.03272 0.0856 0.0
H1386 H 0.19353 0.93419 0.12859 0.0
H1387 H 0.09894 1.00529 0.07839 0.0
H1388 H 0.18204 0.99734 0.10238 0.0
H1389 H 0.11205 0.94997 0.11876 0.0
C1390 C 0.13452 0.92798 0.1335 0.0
C1391 C 0.15759 0.92337 0.13687 0.0
C1392 C 0.16382 0.99901 0.09698 0.0
C1393 C 0.1485 0.96054 0.11148 0.0
C1394 C 0.15947 0.01926 0.08756 0.0
C1395 C 0.13601 0.02201 0.08076 0.0
C1396 C 0.14458 0.98152 0.09992 0.0
C1397 C 0.11729 1.00392 0.08347 0.0
C1398 C 0.12987 0.94641 0.12068 0.0
C1399 C 0.17551 0.93721 0.12642 0.0
N1400 N 0.12198 0.98449 0.09304 0.0
N1401 N 0.17065 0.9554 0.11442 0.0
H1402 H 0.92149 0.17909 0.8741 0.0
H1403 H 0.87322 0.22503 0.75397 0.0
H1404 H 0.96366 0.20166 0.81793 0.0
H1405 H 0.82909 0.1993 0.80744 0.0
H1406 H 0.90327 0.20428 0.77057 0.0
H1407 H 0.8855 0.17444 0.84474 0.0
C1408 C 0.92321 0.18248 0.85544 0.0
C1409 C 0.94545 0.19155 0.84858 0.0
C1410 C 0.88677 0.20262 0.77834 0.0
C1411 C 0.90452 0.18647 0.81504 0.0
C1412 C 0.86958 0.21442 0.76876 0.0
C1413 C 0.84902 0.21435 0.77979 0.0
C1414 C 0.88362 0.19132 0.79953 0.0
C1415 C 0.84494 0.20007 0.79866 0.0
C1416 C 0.90267 0.17984 0.83867 0.0
C1417 C 0.94675 0.19534 0.82414 0.0
N1418 N 0.86246 0.18968 0.80847 0.0
N1419 N 0.92653 0.19323 0.80837 0.0
H1420 H 0.6727 0.31169 0.70184 0.0
H1421 H 0.62814 0.20555 0.60118 0.0
H1422 H 0.63788 0.31773 0.63013 0.0
H1423 H 0.65064 0.19788 0.67651 0.0
H1424 H 0.63586 0.2472 0.61026 0.0
H1425 H 0.6697 0.2706 0.69135 0.0
C1426 C 0.66465 0.30445 0.6838 0.0
C1427 C 0.65535 0.31816 0.66689 0.0
C1428 C 0.63914 0.23641 0.6248 0.0
C1429 C 0.65175 0.27109 0.65485 0.0
C1430 C 0.63456 0.21259 0.61968 0.0
C1431 C 0.63849 0.1981 0.63816 0.0
C1432 C 0.64783 0.24592 0.64856 0.0
C1433 C 0.64747 0.20833 0.66164 0.0
C1434 C 0.66285 0.28095 0.67787 0.0
C1435 C 0.64515 0.3078 0.64379 0.0
N1436 N 0.65177 0.2316 0.66618 0.0
N1437 N 0.64351 0.28487 0.63849 0.0
H1438 H 0.56701 0.74503 0.34412 0.0
H1439 H 0.69918 0.81827 0.35083 0.0
H1440 H 0.60156 0.79321 0.40475 0.0
H1441 H 0.66078 0.7779 0.28636 0.0
H1442 H 0.66411 0.80815 0.37149 0.0
H1443 H 0.60186 0.75561 0.32331 0.0
C1444 C 0.58195 0.7578 0.35309 0.0
C1445 C 0.58138 0.76826 0.37622 0.0
C1446 C 0.66331 0.80157 0.3528 0.0
C1447 C 0.6213 0.78045 0.35247 0.0
C1448 C 0.68334 0.80725 0.34104 0.0
C1449 C 0.68286 0.79885 0.31688 0.0
C1450 C 0.64269 0.78726 0.34036 0.0
C1451 C 0.66181 0.7849 0.30494 0.0
C1452 C 0.60181 0.76388 0.34116 0.0
C1453 C 0.60123 0.78472 0.38693 0.0
N1454 N 0.64258 0.77945 0.31684 0.0
N1455 N 0.6204 0.79029 0.37497 0.0
H1456 H 0.08753 0.24976 0.50322 0.0
H1457 H 0.08916 0.11422 0.47453 0.0
H1458 H 0.09779 0.22305 0.43251 0.0
H1459 H 0.08239 0.14535 0.5445 0.0
H1460 H 0.09167 0.15231 0.45815 0.0
H1461 H 0.08514 0.21141 0.51736 0.0
C1462 C 0.08932 0.23592 0.49044 0.0
C1463 C 0.09293 0.24039 0.46635 0.0
C1464 C 0.08959 0.15085 0.47708 0.0
C1465 C 0.09002 0.19486 0.48308 0.0
C1466 C 0.08809 0.12889 0.48656 0.0
C1467 C 0.08544 0.12594 0.51122 0.0
C1468 C 0.08845 0.17055 0.49214 0.0
C1469 C 0.08434 0.14618 0.52548 0.0
C1470 C 0.08792 0.2137 0.49872 0.0
C1471 C 0.09504 0.221 0.45119 0.0
N1472 N 0.08581 0.16716 0.51586 0.0
N1473 N 0.09354 0.19937 0.45971 0.0
H1474 H 0.64398 0.26135 0.20312 0.0
H1475 H 0.77018 0.34381 0.25587 0.0
H1476 H 0.65452 0.33497 0.2004 0.0
H1477 H 0.75473 0.26986 0.25572 0.0
H1478 H 0.72894 0.34225 0.23663 0.0
H1479 H 0.68448 0.26546 0.22309 0.0
C1480 C 0.65471 0.27853 0.20673 0.0
C1481 C 0.64527 0.29781 0.19979 0.0
C1482 C 0.73459 0.32639 0.24086 0.0
C1483 C 0.69304 0.30271 0.22324 0.0
C1484 C 0.75825 0.32725 0.25192 0.0
C1485 C 0.76639 0.30694 0.25764 0.0
C1486 C 0.71864 0.30505 0.23535 0.0
C1487 C 0.74972 0.28608 0.25185 0.0
C1488 C 0.67814 0.28086 0.21827 0.0
C1489 C 0.66066 0.31952 0.20531 0.0
N1490 N 0.72703 0.28574 0.24118 0.0
N1491 N 0.68364 0.32136 0.21658 0.0
H1492 H 0.60053 0.85963 0.98135 0.0
H1493 H 0.58927 0.9926 0.96308 0.0
H1494 H 0.59483 0.88917 0.91261 0.0
H1495 H 0.59605 0.96775 0.03416 0.0
H1496 H 0.59125 0.9544 0.9453 0.0
H1497 H 0.59908 0.89767 1.00168 0.0
C1498 C 0.59906 0.87391 0.97043 0.0
C1499 C 0.59786 0.87058 0.94491 0.0
C1500 C 0.59235 0.95712 0.96482 0.0
C1501 C 0.59606 0.91485 0.96842 0.0
C1502 C 0.59122 0.97922 0.97513 0.0
C1503 C 0.59253 0.98404 1.00044 0.0
C1504 C 0.59483 0.93895 0.9796 0.0
C1505 C 0.59498 0.96531 0.01462 0.0
C1506 C 0.59819 0.89579 0.98213 0.0
C1507 C 0.59586 0.89027 0.93217 0.0
N1508 N 0.59603 0.9439 1.00413 0.0
N1509 N 0.59503 0.91105 0.94386 0.0
H1510 H 1.0238 0.82691 0.72142 0.0
H1511 H 0.88543 0.77244 0.73145 0.0
H1512 H 0.97808 0.77511 0.67056 0.0
H1513 H 0.92604 0.82607 0.78373 0.0
H1514 H 0.92026 0.77327 0.71045 0.0
H1515 H 0.99021 0.82708 0.74537 0.0
C1516 C 1.00689 0.81553 0.7152 0.0
C1517 C 1.00425 0.80097 0.69358 0.0
C1518 C 0.9218 0.7849 0.72654 0.0
C1519 C 0.96517 0.80108 0.72131 0.0
C1520 C 0.90167 0.78441 0.73875 0.0
C1521 C 0.90226 0.79915 0.75977 0.0
C1522 C 0.9434 0.80029 0.73496 0.0
C1523 C 0.92435 0.81422 0.76779 0.0
C1524 C 0.98758 0.81566 0.72897 0.0
C1525 C 0.9815 0.78674 0.68685 0.0
N1526 N 0.94379 0.81441 0.75549 0.0
N1527 N 0.96328 0.78719 0.70043 0.0
H1528 H 0.26575 0.07823 0.93429 0.0
H1529 H 0.14771 0.02991 0.98991 0.0
H1530 H 0.21163 0.02069 0.90143 0.0
H1531 H 0.19949 0.09035 0.02002 0.0
H1532 H 0.17538 0.02088 0.96263 0.0
H1533 H 0.24674 0.07688 0.97119 0.0
C1534 C 0.25021 0.06497 0.93502 0.0
C1535 C 0.23986 0.04996 0.91456 0.0
C1536 C 0.18079 0.03598 0.97541 0.0
C1537 C 0.21788 0.04853 0.95648 0.0
C1538 C 0.16495 0.04119 0.99093 0.0
C1539 C 0.17106 0.06123 1.00685 0.0
C1540 C 0.20281 0.05097 0.97576 0.0
C1541 C 0.19381 0.07498 1.00769 0.0
C1542 C 0.23928 0.06428 0.95605 0.0
C1543 C 0.21987 0.03296 0.91661 0.0
N1544 N 0.20874 0.06975 0.99212 0.0
N1545 N 0.20927 0.03298 0.93704 0.0
H1546 H 0.79723 0.32155 0.59227 0.0
H1547 H 0.85395 0.32657 0.73116 0.0
H1548 H 0.8618 0.36836 0.62372 0.0
H1549 H 0.79544 0.27323 0.6978 0.0
H1550 H 0.85655 0.3424 0.69197 0.0
H1551 H 0.79593 0.30366 0.63066 0.0
C1552 C 0.81121 0.32799 0.60718 0.0
C1553 C 0.8296 0.34655 0.60478 0.0
C1554 C 0.84318 0.32719 0.69318 0.0
C1555 C 0.82812 0.32627 0.64882 0.0
C1556 C 0.84163 0.31815 0.7156 0.0
C1557 C 0.82441 0.29852 0.71783 0.0
C1558 C 0.82732 0.31665 0.67277 0.0
C1559 C 0.809 0.28837 0.69696 0.0
C1560 C 0.81045 0.31777 0.6291 0.0
C1561 C 0.84725 0.35413 0.62472 0.0
N1562 N 0.81076 0.2976 0.67533 0.0
N1563 N 0.84599 0.34405 0.64591 0.0
H1564 H 0.52973 0.14907 0.41995 0.0
H1565 H 0.62708 0.09916 0.48326 0.0
H1566 H 0.59487 0.15121 0.3887 0.0
H1567 H 0.58431 0.13401 0.52535 0.0
H1568 H 0.61989 0.12329 0.45027 0.0
H1569 H 0.5519 0.14962 0.46021 0.0
C1570 C 0.54883 0.15032 0.42168 0.0
C1571 C 0.56044 0.14952 0.40106 0.0
C1572 C 0.61272 0.12623 0.46702 0.0
C1573 C 0.58574 0.14954 0.44679 0.0
C1574 C 0.61675 0.11238 0.48579 0.0
C1575 C 0.60582 0.11431 0.50672 0.0
C1576 C 0.59699 0.14145 0.46898 0.0
C1577 C 0.59281 0.13183 0.5093 0.0
C1578 C 0.56152 0.15074 0.44465 0.0
C1579 C 0.58522 0.15146 0.4042 0.0
N1580 N 0.58808 0.14427 0.49027 0.0
N1581 N 0.59699 0.15061 0.42664 0.0
H1582 H 0.80896 0.73425 0.09441 0.0
H1583 H 0.86721 0.75697 0.23514 0.0
H1584 H 0.87119 0.70829 0.12118 0.0
H1585 H 0.80813 0.78554 0.20433 0.0
H1586 H 0.86911 0.73862 0.19475 0.0
H1587 H 0.80875 0.75243 0.13475 0.0
C1588 C 0.82273 0.73234 0.10871 0.0
C1589 C 0.84016 0.71952 0.10389 0.0
C1590 C 0.85572 0.74888 0.19681 0.0
C1591 C 0.83988 0.7407 0.15128 0.0
C1592 C 0.85455 0.7594 0.22001 0.0
C1593 C 0.8374 0.77297 0.22358 0.0
C1594 C 0.83958 0.75173 0.17666 0.0
C1595 C 0.82168 0.77535 0.20287 0.0
C1596 C 0.82256 0.74284 0.13198 0.0
C1597 C 0.85741 0.71797 0.12367 0.0
N1598 N 0.82314 0.76493 0.18062 0.0
N1599 N 0.85678 0.72829 0.14633 0.0
H1600 H 0.14451 0.06597 0.82971 0.0
H1601 H 0.09841 0.02769 0.69049 0.0
H1602 H 0.17477 0.02123 0.78391 0.0
H1603 H 0.08062 0.08576 0.72956 0.0
H1604 H 0.1156 1.01598 0.72863 0.0
H1605 H 0.11149 0.06437 0.79719 0.0
C1606 C 0.14392 0.05539 0.81304 0.0
C1607 C 0.16261 0.04409 0.80924 0.0
C1608 C 0.10748 0.03102 0.72894 0.0
C1609 C 0.12503 0.04215 0.7722 0.0
C1610 C 0.09742 0.03762 0.70714 0.0
C1611 C 0.08849 0.05806 0.70674 0.0
C1612 C 0.10881 0.04501 0.75045 0.0
C1613 C 0.08791 0.07024 0.72899 0.0
C1614 C 0.12512 0.05454 0.7945 0.0
C1615 C 0.16094 0.03056 0.78737 0.0
N1616 N 0.09839 0.06378 0.74994 0.0
N1617 N 0.14263 0.03018 0.76957 0.0
H1618 H 0.82397 0.34322 0.48582 0.0
H1619 H 0.84707 0.36656 0.35151 0.0
H1620 H 0.83776 0.41107 0.46017 0.0
H1621 H 0.80738 0.30116 0.36727 0.0
H1622 H 0.84517 0.38229 0.39216 0.0
H1623 H 0.81901 0.32646 0.44363 0.0
C1624 C 0.82581 0.35458 0.47136 0.0
C1625 C 0.83151 0.3786 0.47658 0.0
C1626 C 0.83661 0.36456 0.38675 0.0
C1627 C 0.826 0.35957 0.42851 0.0
C1628 C 0.83763 0.35552 0.3634 0.0
C1629 C 0.82716 0.33252 0.35578 0.0
C1630 C 0.82552 0.35042 0.40304 0.0
C1631 C 0.81554 0.31904 0.37233 0.0
C1632 C 0.82289 0.345 0.44733 0.0
C1633 C 0.83354 0.39248 0.45712 0.0
N1634 N 0.81526 0.32812 0.39536 0.0
N1635 N 0.83102 0.38277 0.43406 0.0
H1636 H 0.57176 0.10335 0.30644 0.0
H1637 H 0.58716 0.11326 0.16755 0.0
H1638 H 0.53821 0.14781 0.26109 0.0
H1639 H 0.62159 0.07003 0.21378 0.0
H1640 H 0.57438 0.13089 0.20302 0.0
H1641 H 0.5952 0.09582 0.27444 0.0
C1642 C 0.56949 0.11172 0.28979 0.0
C1643 C 0.5527 0.12589 0.2862 0.0
C1644 C 0.585 0.11777 0.20547 0.0
C1645 C 0.57937 0.11718 0.24938 0.0
C1646 C 0.59244 0.10777 0.18523 0.0
C1647 C 0.60525 0.08993 0.18769 0.0
C1648 C 0.59025 0.10977 0.2283 0.0
C1649 C 0.61131 0.08337 0.21101 0.0
C1650 C 0.58292 0.10743 0.27153 0.0
C1651 C 0.55079 0.13658 0.26448 0.0
N1652 N 0.60353 0.09312 0.23038 0.0
N1653 N 0.56373 0.13172 0.2467 0.0
H1654 H 0.85737 0.73782 0.98299 0.0
H1655 H 0.8439 0.73086 0.83579 0.0
H1656 H 0.84524 0.67485 0.93655 0.0
H1657 H 0.85591 0.79544 0.87944 0.0
H1658 H 0.84527 0.71074 0.87291 0.0
H1659 H 0.85762 0.7596 0.94643 0.0
C1660 C 0.85478 0.72849 0.96527 0.0
C1661 C 0.85126 0.70421 0.96329 0.0
C1662 C 0.84771 0.72933 0.87451 0.0
C1663 C 0.85155 0.72932 0.92085 0.0
C1664 C 0.84698 0.74095 0.85311 0.0
C1665 C 0.84984 0.76513 0.85402 0.0
C1666 C 0.85129 0.74169 0.89753 0.0
C1667 C 0.85371 0.77688 0.87747 0.0
C1668 C 0.85493 0.741 0.94427 0.0
C1669 C 0.84801 0.69341 0.93946 0.0
N1670 N 0.85425 0.76516 0.89805 0.0
N1671 N 0.84823 0.70587 0.91955 0.0
H1672 H 0.91604 0.18149 0.9874 0.0
H1673 H 0.96549 0.06723 0.01519 0.0
H1674 H 0.88485 0.13126 0.03325 0.0
H1675 H 0.99581 0.11704 0.96848 0.0
H1676 H 0.9341 0.08896 0.0197 0.0
H1677 H 0.94412 0.15709 0.97865 0.0
C1678 C 0.91508 0.16532 0.99564 0.0
C1679 C 0.89812 0.15848 1.0112 0.0
C1680 C 0.94751 0.09504 1.0083 0.0
C1681 C 0.93025 0.13037 1.00117 0.0
C1682 C 0.96533 0.08251 1.00553 0.0
C1683 C 0.98341 0.09035 0.9915 0.0
C1684 C 0.94775 0.11562 0.99703 0.0
C1685 C 0.98246 0.11052 0.97976 0.0
C1686 C 0.93111 0.15135 0.99058 0.0
C1687 C 0.89768 0.13728 0.02124 0.0
N1688 N 0.96504 0.12252 0.98291 0.0
N1689 N 0.91355 0.12401 0.01611 0.0
H1690 H 0.38132 0.49746 0.05649 0.0
H1691 H 0.51117 0.49443 0.01711 0.0
H1692 H 0.40278 0.43698 0.02696 0.0
H1693 H 0.49895 0.55204 0.06134 0.0
H1694 H 0.47 0.4752 0.01761 0.0
H1695 H 0.4222 0.51945 0.05572 0.0
C1696 C 0.39444 0.48878 0.04975 0.0
C1697 C 0.38825 0.46512 0.04186 0.0
C1698 C 0.47617 0.49208 0.02721 0.0
C1699 C 0.43534 0.4904 0.04076 0.0
C1700 C 0.49988 0.50322 0.02688 0.0
C1701 C 0.509 0.52509 0.03921 0.0
C1702 C 0.4608 0.5027 0.03982 0.0
C1703 C 0.49299 0.53525 0.05154 0.0
C1704 C 0.41788 0.50136 0.0494 0.0
C1705 C 0.40636 0.45503 0.0334 0.0
N1706 N 0.46984 0.52406 0.0515 0.0
N1707 N 0.42869 0.46758 0.03303 0.0
H1708 H 0.34559 0.56283 0.69475 0.0
H1709 H 0.33083 0.64527 0.808 0.0
H1710 H 0.3863 0.56754 0.76575 0.0
H1711 H 0.30124 0.65131 0.73432 0.0
H1712 H 0.34295 0.60987 0.79452 0.0
H1713 H 0.32161 0.58867 0.71076 0.0
C1714 C 0.34928 0.56906 0.71375 0.0
C1715 C 0.36822 0.5634 0.72885 0.0
C1716 C 0.3335 0.61876 0.78136 0.0
C1717 C 0.3409 0.59276 0.74723 0.0
C1718 C 0.32641 0.63886 0.78907 0.0
C1719 C 0.31536 0.6514 0.77217 0.0
C1720 C 0.32955 0.61121 0.75657 0.0
C1721 C 0.31019 0.64239 0.74783 0.0
C1722 C 0.33562 0.5838 0.72286 0.0
C1723 C 0.37214 0.5718 0.75337 0.0
N1724 N 0.31761 0.62296 0.74069 0.0
N1725 N 0.35872 0.58622 0.76174 0.0
H1726 H 0.23465 0.69608 0.52861 0.0
H1727 H 0.15093 0.57204 0.49317 0.0
H1728 H 0.26158 0.63788 0.50117 0.0
H1729 H 0.13987 0.62137 0.54854 0.0
H1730 H 0.18749 0.59881 0.48655 0.0
H1731 H 0.19532 0.67143 0.5263 0.0
C1732 C 0.23226 0.67817 0.5219 0.0
C1733 C 0.25148 0.66892 0.51542 0.0
C1734 C 0.17682 0.60376 0.49993 0.0
C1735 C 0.20652 0.64073 0.51254 0.0
C1736 C 0.15603 0.58862 0.50359 0.0
C1737 C 0.14272 0.59455 0.52157 0.0
C1738 C 0.18374 0.625 0.51398 0.0
C1739 C 0.14992 0.61612 0.53471 0.0
C1740 C 0.20983 0.66413 0.52061 0.0
C1741 C 0.24729 0.6456 0.50668 0.0
N1742 N 0.16994 0.63056 0.53066 0.0
N1743 N 0.22523 0.63223 0.50558 0.0
H1744 H 0.709 0.96456 0.73304 0.0
H1745 H 0.77781 0.90003 0.83173 0.0
H1746 H 0.674 0.91934 0.78134 0.0
H1747 H 0.81319 0.94704 0.78525 0.0
H1748 H 0.73999 0.90958 0.816 0.0
H1749 H 0.74744 0.95983 0.75328 0.0
C1750 C 0.70938 0.95353 0.74783 0.0
C1751 C 0.68823 0.94223 0.75543 0.0
C1752 C 0.75605 0.91804 0.80944 0.0
C1753 C 0.73224 0.93694 0.77886 0.0
C1754 C 0.77775 0.91282 0.81866 0.0
C1755 C 0.79875 0.9227 0.80974 0.0
C1756 C 0.75526 0.93313 0.79103 0.0
C1757 C 0.7974 0.93879 0.7924 0.0
C1758 C 0.73136 0.95096 0.75948 0.0
C1759 C 0.68984 0.92829 0.7748 0.0
N1760 N 0.77598 0.94333 0.78343 0.0
N1761 N 0.71148 0.92601 0.78582 0.0
H1762 H 0.71833 0.93705 0.5209 0.0
H1763 H 0.67406 0.05082 0.56995 0.0
H1764 H 0.7665 0.99312 0.56415 0.0
H1765 H 0.62932 0.99473 0.52361 0.0
H1766 H 0.70768 0.03073 0.56896 0.0
H1767 H 0.68617 0.95821 0.52261 0.0
C1768 C 0.72235 0.95387 0.53083 0.0
C1769 C 0.74568 0.96302 0.54238 0.0
C1770 C 0.69053 0.02279 0.55899 0.0
C1771 C 0.70777 0.98795 0.54447 0.0
C1772 C 0.67114 0.0343 0.55955 0.0
C1773 C 0.64837 0.0247 0.54683 0.0
C1774 C 0.68751 1.00123 0.54566 0.0
C1775 C 0.64623 1.00311 0.53374 0.0
C1776 C 0.7037 0.96605 0.53177 0.0
C1777 C 0.74908 0.98511 0.55487 0.0
N1778 N 0.66528 0.9923 0.53355 0.0
N1779 N 0.7305 0.99667 0.55559 0.0
H1780 H 0.44578 0.44875 0.71046 0.0
H1781 H 0.32888 0.37249 0.74787 0.0
H1782 H 0.37622 0.46637 0.70081 0.0
H1783 H 0.39733 0.35238 0.75641 0.0
H1784 H 0.34543 0.40477 0.72625 0.0
H1785 H 0.42778 0.4109 0.72193 0.0
C1786 C 0.42666 0.44448 0.7102 0.0
C1787 C 0.4125 0.46085 0.70507 0.0
C1788 C 0.35687 0.39328 0.73273 0.0
C1789 C 0.39192 0.41783 0.71849 0.0
C1790 C 0.34745 0.37488 0.74525 0.0
C1791 C 0.36184 0.35989 0.7543 0.0
C1792 C 0.38095 0.39693 0.72936 0.0
C1793 C 0.38566 0.36366 0.74995 0.0
C1794 C 0.41643 0.42293 0.71692 0.0
C1795 C 0.38785 0.4544 0.70501 0.0
N1796 N 0.39456 0.38197 0.73796 0.0
N1797 N 0.3784 0.43351 0.71195 0.0
H1798 H 0.12185 0.55083 0.19978 0.0
H1799 H 0.23165 0.64688 0.2634 0.0
H1800 H 0.17218 0.53915 0.25932 0.0
H1801 H 0.17336 0.66282 0.21559 0.0
H1802 H 0.21077 0.60695 0.26074 0.0
H1803 H 0.14133 0.59154 0.20359 0.0
C1804 C 0.13695 0.55681 0.21366 0.0
C1805 C 0.14539 0.54155 0.22925 0.0
C1806 C 0.20248 0.6192 0.25091 0.0
C1807 C 0.16777 0.588 0.23363 0.0
C1808 C 0.21434 0.6421 0.25255 0.0
C1809 C 0.20428 0.65837 0.23976 0.0
C1810 C 0.18044 0.61236 0.23621 0.0
C1811 C 0.182 0.65088 0.22552 0.0
C1812 C 0.14802 0.58005 0.21586 0.0
C1813 C 0.16501 0.55027 0.24692 0.0
N1814 N 0.17088 0.62841 0.22407 0.0
N1815 N 0.17556 0.57286 0.24856 0.0
H1816 H 0.50573 0.67423 0.42928 0.0
H1817 H 0.59274 0.62756 0.52861 0.0
H1818 H 0.56355 0.71849 0.47614 0.0
H1819 H 0.53835 0.58387 0.47725 0.0
H1820 H 0.58043 0.66133 0.51203 0.0
H1821 H 0.51517 0.64123 0.44959 0.0
C1822 C 0.52032 0.67704 0.44398 0.0
C1823 C 0.53403 0.69912 0.45087 0.0
C1824 C 0.5712 0.64434 0.50443 0.0
C1825 C 0.54506 0.66134 0.47409 0.0
C1826 C 0.57824 0.62505 0.51384 0.0
C1827 C 0.56669 0.60285 0.50417 0.0
C1828 C 0.55245 0.64138 0.48527 0.0
C1829 C 0.54794 0.60064 0.48514 0.0
C1830 C 0.52574 0.65816 0.45553 0.0
C1831 C 0.5526 0.70175 0.47016 0.0
N1832 N 0.54143 0.61967 0.47631 0.0
N1833 N 0.55769 0.68302 0.481 0.0
H1834 H 0.70479 0.39548 0.77895 0.0
H1835 H 0.82703 0.35233 0.78496 0.0
H1836 H 0.75407 0.40898 0.72663 0.0
H1837 H 0.76342 0.31811 0.8111 0.0
H1838 H 0.8084 0.38583 0.77801 0.0
H1839 H 0.73496 0.3814 0.80516 0.0
C1840 C 0.72219 0.39616 0.77326 0.0
C1841 C 0.7266 0.40252 0.7501 0.0
C1842 C 0.79893 0.37132 0.78612 0.0
C1843 C 0.76106 0.38642 0.78003 0.0
C1844 C 0.80955 0.35233 0.79019 0.0
C1845 C 0.79652 0.33256 0.79838 0.0
C1846 C 0.77537 0.37042 0.79065 0.0
C1847 C 0.77386 0.33308 0.8046 0.0
C1848 C 0.73938 0.3881 0.78826 0.0
C1849 C 0.74967 0.4036 0.74403 0.0
N1850 N 0.76387 0.35163 0.80036 0.0
N1851 N 0.7659 0.395 0.75865 0.0
H1852 H 1.01547 0.29474 0.93348 0.0
H1853 H 0.99442 0.42189 0.91446 0.0
H1854 H 0.97782 0.31167 0.86734 0.0
H1855 H 0.05244 0.40661 0.96321 0.0
H1856 H 0.98269 0.38093 0.90061 0.0
H1857 H 1.02264 0.33509 0.94898 0.0
C1858 C 1.0084 0.30687 0.92233 0.0
C1859 C 0.99621 0.29985 0.89897 0.0
C1860 C 0.99798 0.38665 0.91432 0.0
C1861 C 1.0045 0.3461 0.91662 0.0
C1862 C 1.00483 0.41003 0.92213 0.0
C1863 C 1.02455 0.41782 0.94001 0.0
C1864 C 1.01075 0.37093 0.92466 0.0
C1865 C 0.03692 0.40147 0.94969 0.0
C1866 C 1.01266 0.32993 0.93115 0.0
C1867 C 0.98747 0.31638 0.88538 0.0
N1868 N 1.02979 0.37884 0.94193 0.0
N1869 N 0.99187 0.33881 0.89437 0.0
H1870 H 0.06645 0.82344 0.17792 0.0
H1871 H 1.00881 0.83079 0.30096 0.0
H1872 H 0.1013 0.86513 0.24308 0.0
H1873 H 0.97394 0.78756 0.23682 0.0
H1874 H 0.04364 0.84204 0.28047 0.0
H1875 H 1.03277 0.80923 0.19933 0.0
C1876 C 0.067 0.82965 0.1967 0.0
C1877 C 0.08668 0.84555 0.20872 0.0
C1878 C 1.02844 0.82998 0.2709 0.0
C1879 C 0.04831 0.82928 0.23331 0.0
C1880 C 1.00861 0.82337 0.28268 0.0
C1881 C 0.98841 0.80822 0.27058 0.0
C1882 C 1.02809 0.82146 0.24678 0.0
C1883 C 0.98902 0.79953 0.24672 0.0
C1884 C 0.0478 0.82147 0.20893 0.0
C1885 C 0.08648 0.85292 0.23307 0.0
N1886 N 1.00851 0.80636 0.23554 0.0
N1887 N 0.06759 0.84474 0.24455 0.0
H1888 H 0.5812 0.36115 0.09386 0.0
H1889 H 0.58222 0.49883 0.11003 0.0
H1890 H 0.57667 0.39929 0.16083 0.0
H1891 H 0.59054 0.4659 0.04147 0.0
H1892 H 0.57988 0.46187 0.12776 0.0
H1893 H 0.58411 0.39758 0.07353 0.0
C1894 C 0.58074 0.37695 0.10439 0.0
C1895 C 0.57864 0.37653 0.12944 0.0
C1896 C 0.58227 0.46253 0.10882 0.0
C1897 C 0.58204 0.41901 0.1059 0.0
C1898 C 0.58367 0.48393 0.09854 0.0
C1899 C 0.58672 0.48614 0.07395 0.0
C1900 C 0.58378 0.44239 0.09473 0.0
C1901 C 0.58832 0.46554 0.06046 0.0
C1902 C 0.58246 0.39793 0.09269 0.0
C1903 C 0.57826 0.3981 0.14166 0.0
N1904 N 0.5868 0.44482 0.07089 0.0
N1905 N 0.57989 0.41794 0.12999 0.0
H1906 H 0.0397 0.31781 0.35796 0.0
H1907 H 0.89657 0.27457 0.34386 0.0
H1908 H 1.00238 0.27629 0.4075 0.0
H1909 H 0.92938 0.32502 0.29935 0.0
H1910 H 0.93588 0.27321 0.36486 0.0
H1911 H 1.00089 0.31892 0.33415 0.0
C1912 C 1.02351 0.30877 0.36379 0.0
C1913 C 1.0247 0.29692 0.385 0.0
C1914 C 0.93464 0.2846 0.35048 0.0
C1915 C 0.97979 0.29813 0.35758 0.0
C1916 C 0.91199 0.28537 0.33833 0.0
C1917 C 0.90919 0.29998 0.31959 0.0
C1918 C 0.95526 0.29844 0.34408 0.0
C1919 C 0.93033 0.31346 0.31359 0.0
C1920 C 1.00124 0.30951 0.3502 0.0
C1921 C 1.00276 0.28573 0.39148 0.0
N1922 N 0.95227 0.31236 0.32568 0.0
N1923 N 0.98158 0.28659 0.37799 0.0
H1924 H 0.06425 0.74621 0.59661 0.0
H1925 H 0.08858 0.61667 0.61259 0.0
H1926 H 0.08787 0.7213 0.66456 0.0
H1927 H 0.06739 0.6389 0.54253 0.0
H1928 H 0.08743 0.65488 0.63124 0.0
H1929 H 0.06419 0.7079 0.57609 0.0
C1930 C 0.06934 0.73287 0.60733 0.0
C1931 C 0.07607 0.73757 0.63265 0.0
C1932 C 0.08297 0.65153 0.61176 0.0
C1933 C 0.07608 0.69301 0.60893 0.0
C1934 C 0.08361 0.62946 0.60098 0.0
C1935 C 0.07806 0.62397 0.57569 0.0
C1936 C 0.07668 0.6689 0.59745 0.0
C1937 C 0.07183 0.64189 0.56203 0.0
C1938 C 0.06936 0.71085 0.59552 0.0
C1939 C 0.08253 0.71908 0.64514 0.0
N1940 N 0.07131 0.66324 0.57295 0.0
N1941 N 0.08235 0.69808 0.63335 0.0
H1942 H 0.65364 0.77549 0.86537 0.0
H1943 H 0.78138 0.84219 0.83275 0.0
H1944 H 0.68733 0.84454 0.8937 0.0
H1945 H 0.75221 0.77107 0.80867 0.0
H1946 H 0.74615 0.84362 0.85325 0.0
H1947 H 0.68793 0.77368 0.84303 0.0
C1948 C 0.66804 0.79033 0.86691 0.0
C1949 C 0.6671 0.81021 0.88176 0.0
C1950 C 0.74733 0.82766 0.84343 0.0
C1951 C 0.70708 0.80825 0.8558 0.0
C1952 C 0.76761 0.82685 0.83154 0.0
C1953 C 0.77025 0.80648 0.81862 0.0
C1954 C 0.72901 0.80799 0.84265 0.0
C1955 C 0.75136 0.78727 0.81818 0.0
C1956 C 0.68779 0.78927 0.8541 0.0
C1957 C 0.6868 0.82873 0.88274 0.0
N1958 N 0.73186 0.7885 0.82985 0.0
N1959 N 0.70558 0.82728 0.87015 0.0
H1960 H 0.44423 0.56049 0.64655 0.0
H1961 H 0.57503 0.56804 0.61639 0.0
H1962 H 0.50568 0.58484 0.70021 0.0
H1963 H 0.51444 0.56406 0.56154 0.0
H1964 H 0.55064 0.57703 0.64732 0.0
H1965 H 0.46994 0.56496 0.61478 0.0
C1966 C 0.4631 0.56717 0.65157 0.0
C1967 C 0.47293 0.57199 0.67599 0.0
C1968 C 0.54283 0.5745 0.62845 0.0
C1969 C 0.50251 0.57668 0.63989 0.0
C1970 C 0.55671 0.56926 0.61083 0.0
C1971 C 0.54664 0.56484 0.58643 0.0
C1972 C 0.51874 0.57507 0.62157 0.0
C1973 C 0.52287 0.5669 0.58018 0.0
C1974 C 0.47779 0.56973 0.63346 0.0
C1975 C 0.49744 0.5808 0.68157 0.0
N1976 N 0.50966 0.57156 0.59768 0.0
N1977 N 0.51152 0.58242 0.66365 0.0
H1978 H 0.78088 0.21934 0.97103 0.0
H1979 H 0.85504 0.25681 0.8627 0.0
H1980 H 0.85743 0.22969 0.97618 0.0
H1981 H 0.77846 0.24759 0.85599 0.0
H1982 H 0.85593 0.24858 0.90492 0.0
H1983 H 0.77945 0.23194 0.92996 0.0
C1984 C 0.79742 0.22454 0.96367 0.0
C1985 C 0.81931 0.2233 0.97706 0.0
C1986 C 0.8389 0.24836 0.8943 0.0
C1987 C 0.81774 0.23752 0.92994 0.0
C1988 C 0.83833 0.253 0.87006 0.0
C1989 C 0.81659 0.25278 0.85563 0.0
C1990 C 0.81756 0.24338 0.90438 0.0
C1991 C 0.79561 0.24786 0.86638 0.0
C1992 C 0.79656 0.23164 0.94016 0.0
C1993 C 0.84014 0.23025 0.96654 0.0
N1994 N 0.79661 0.24328 0.89011 0.0
N1995 N 0.8388 0.23689 0.94359 0.0
H1996 H 0.04847 0.44602 0.18974 0.0
H1997 H 0.07762 0.47672 0.05822 0.0
H1998 H 0.1138 0.43923 0.16231 0.0
H1999 H 0.0413 0.51603 0.10357 0.0
H2000 H 0.07762 0.44839 0.08847 0.0
H2001 H 1.03295 0.45633 0.14983 0.0
C2002 C 0.05914 0.44574 0.17503 0.0
C2003 C 0.08256 0.44217 0.17925 0.0
C2004 C 0.06904 0.46288 0.09137 0.0
C2005 C 0.06496 0.45374 0.13396 0.0
C2006 C 0.06901 0.47903 0.07419 0.0
C2007 C 0.05987 0.49894 0.07876 0.0
C2008 C 0.05949 0.46655 0.11291 0.0
C2009 C 0.04893 0.5011 0.09967 0.0
C2010 C 0.05033 0.45175 0.15239 0.0
C2011 C 0.09576 0.44219 0.15973 0.0
N2012 N 0.04926 0.4852 0.11616 0.0
N2013 N 0.08689 0.44825 0.13792 0.0
H2014 H 0.78919 0.89238 0.47104 0.0
H2015 H 0.86911 0.85316 0.37204 0.0
H2016 H 0.86568 0.90131 0.48202 0.0
H2017 H 0.79247 0.83939 0.35827 0.0
H2018 H 0.86722 0.8713 0.41209 0.0
H2019 H 0.78892 0.87339 0.43014 0.0
C2020 C 0.8059 0.89034 0.46505 0.0
C2021 C 0.82748 0.89864 0.48044 0.0
C2022 C 0.85072 0.86437 0.40041 0.0
C2023 C 0.82732 0.87687 0.43318 0.0
C2024 C 0.8518 0.85395 0.3773 0.0
C2025 C 0.83095 0.84458 0.3613 0.0
C2026 C 0.8286 0.86571 0.40814 0.0
C2027 C 0.80912 0.84631 0.3697 0.0
C2028 C 0.80574 0.87949 0.44158 0.0
C2029 C 0.84849 0.89538 0.47122 0.0
N2030 N 0.80852 0.85659 0.39235 0.0
N2031 N 0.84784 0.88495 0.44855 0.0
H2032 H 0.46261 0.48306 0.78696 0.0
H2033 H 0.57703 0.55868 0.8668 0.0
H2034 H 0.4943 0.55134 0.7706 0.0
H2035 H 0.55087 0.48663 0.8741 0.0
H2036 H 0.54969 0.55563 0.82906 0.0
H2037 H 0.497 0.48337 0.81704 0.0
C2038 C 0.47683 0.49812 0.78969 0.0
C2039 C 0.47547 0.51731 0.77651 0.0
C2040 C 0.55033 0.5404 0.83871 0.0
C2041 C 0.51496 0.51781 0.81091 0.0
C2042 C 0.56592 0.54214 0.86023 0.0
C2043 C 0.56609 0.52297 0.87382 0.0
C2044 C 0.53467 0.51941 0.83092 0.0
C2045 C 0.55154 0.50188 0.86427 0.0
C2046 C 0.49657 0.49824 0.80676 0.0
C2047 C 0.49457 0.53624 0.78054 0.0
N2048 N 0.53618 0.50077 0.84365 0.0
N2049 N 0.51344 0.53612 0.7976 0.0
H2050 H 0.86962 0.26655 0.09598 0.0
H2051 H 0.8444 0.23979 0.23102 0.0
H2052 H 0.84475 0.19796 0.11624 0.0
H2053 H 0.86173 0.30803 0.20695 0.0
H2054 H 0.8485 0.22362 0.19047 0.0
H2055 H 0.8708 0.28154 0.13794 0.0
C2056 C 0.86451 0.2546 0.10926 0.0
C2057 C 0.85692 0.23097 0.10248 0.0
C2058 C 0.85153 0.24213 0.19418 0.0
C2059 C 0.85819 0.24806 0.15073 0.0
C2060 C 0.84929 0.25137 0.21734 0.0
C2061 C 0.85252 0.2753 0.22237 0.0
C2062 C 0.85719 0.25696 0.17603 0.0
C2063 C 0.85881 0.28947 0.2039 0.0
C2064 C 0.86516 0.26318 0.13326 0.0
C2065 C 0.8506 0.21634 0.12059 0.0
N2066 N 0.86083 0.2801 0.18162 0.0
N2067 N 0.85127 0.22512 0.14385 0.0
H2068 H 0.08834 0.45227 0.30442 0.0
H2069 H 1.00937 0.53099 0.3637 0.0
H2070 H 0.05215 0.49896 0.26508 0.0
H2071 H 0.05144 0.48896 0.40338 0.0
H2072 H 1.01753 0.51311 0.32573 0.0
H2073 H 0.06727 0.45885 0.33878 0.0
C2074 C 0.07572 0.46367 0.30288 0.0
C2075 C 0.07238 0.47549 0.28208 0.0
C2076 C 1.02461 0.50755 0.34277 0.0
C2077 C 0.04838 0.48325 0.3214 0.0
C2078 C 1.02006 0.51782 0.36444 0.0
C2079 C 1.03003 0.51174 0.38678 0.0
C2080 C 0.03932 0.49118 0.34349 0.0
C2081 C 0.04329 0.49419 0.38664 0.0
C2082 C 0.06369 0.46743 0.32252 0.0
C2083 C 0.05554 0.48977 0.28094 0.0
N2084 N 0.0478 0.48476 0.36535 0.0
N2085 N 0.04443 0.49355 0.30051 0.0
H2086 H 0.83926 0.91595 0.62872 0.0
H2087 H 0.79226 0.80873 0.70588 0.0
H2088 H 0.77945 0.86124 0.60289 0.0
H2089 H 0.84709 0.86631 0.7367 0.0
H2090 H 0.78835 0.82757 0.668 0.0
H2091 H 0.84364 0.89815 0.66761 0.0
C2092 C 0.82707 0.90022 0.63105 0.0
C2093 C 0.80891 0.89029 0.61206 0.0
C2094 C 0.80122 0.8362 0.68302 0.0
C2095 C 0.81389 0.86953 0.65708 0.0
C2096 C 0.80345 0.82538 0.70487 0.0
C2097 C 0.82 0.83575 0.725 0.0
C2098 C 0.81574 0.85772 0.6807 0.0
C2099 C 0.83397 0.85746 0.72199 0.0
C2100 C 0.82955 0.89003 0.65341 0.0
C2101 C 0.79374 0.86979 0.61665 0.0
N2102 N 0.8316 0.86755 0.70048 0.0
N2103 N 0.79659 0.86026 0.63834 0.0
H2104 H 0.75506 0.41 0.52966 0.0
H2105 H 0.75097 0.53679 0.58514 0.0
H2106 H 0.81461 0.45449 0.57393 0.0
H2107 H 0.69388 0.49417 0.53602 0.0
H2108 H 0.77401 0.50618 0.58292 0.0
H2109 H 0.73166 0.44 0.53352 0.0
C2110 C 0.7632 0.42603 0.54027 0.0
C2111 C 0.78685 0.42975 0.55142 0.0
C2112 C 0.75646 0.50357 0.57258 0.0
C2113 C 0.7602 0.46422 0.55587 0.0
C2114 C 0.74331 0.521 0.57391 0.0
C2115 C 0.72059 0.51811 0.56057 0.0
C2116 C 0.74674 0.48305 0.55796 0.0
C2117 C 0.71152 0.49733 0.54623 0.0
C2118 C 0.74984 0.44319 0.54243 0.0
C2119 C 0.79645 0.45088 0.56496 0.0
N2120 N 0.7246 0.48061 0.54532 0.0
N2121 N 0.7831 0.46732 0.56676 0.0
H2122 H 0.2668 0.13386 0.48497 0.0
H2123 H 0.17178 0.09758 0.57722 0.0
H2124 H 0.28709 0.14018 0.56243 0.0
H2125 H 0.1578 0.07772 0.50038 0.0
H2126 H 0.21313 0.1144 0.5726 0.0
H2127 H 0.22671 0.11471 0.49061 0.0
C2128 C 0.26295 0.13115 0.50325 0.0
C2129 C 0.28075 0.13875 0.52321 0.0
C2130 C 0.20108 0.10628 0.55675 0.0
C2131 C 0.23391 0.11674 0.52989 0.0
C2132 C 0.1773 0.09663 0.55935 0.0
C2133 C 0.16089 0.08601 0.53918 0.0
C2134 C 0.20879 0.10574 0.53372 0.0
C2135 C 0.16952 0.08552 0.51656 0.0
C2136 C 0.23987 0.12012 0.50644 0.0
C2137 C 0.27423 0.13457 0.5464 0.0
N2138 N 0.1926 0.09529 0.51447 0.0
N2139 N 0.25145 0.12409 0.54909 0.0
H2140 H 0.25762 0.031 0.75268 0.0
H2141 H 0.36888 0.96979 0.77638 0.0
H2142 H 0.30229 0.03498 0.82132 0.0
H2143 H 0.31189 0.94787 0.71732 0.0
H2144 H 0.35157 1.003 0.78654 0.0
H2145 H 0.28396 1.00931 0.73398 0.0
C2146 C 0.27316 0.02763 0.76371 0.0
C2147 C 0.27759 0.03438 0.78866 0.0
C2148 C 0.34311 0.99116 0.77106 0.0
C2149 C 0.30773 1.00994 0.76742 0.0
C2150 C 0.35309 0.97231 0.7651 0.0
C2151 C 0.34156 0.95588 0.74621 0.0
C2152 C 0.32146 0.99354 0.75807 0.0
C2153 C 0.32103 0.95993 0.73235 0.0
C2154 C 0.28813 1.01527 0.75304 0.0
C2155 C 0.29801 0.02971 0.80211 0.0
N2156 N 0.3114 0.97822 0.73877 0.0
N2157 N 0.31224 1.01761 0.79135 0.0
H2158 H 0.41415 0.96852 0.09117 0.0
H2159 H 0.50835 1.0123 1.00168 0.0
H2160 H 0.40459 0.94906 0.01416 0.0
H2161 H 0.52411 0.02598 0.07955 0.0
H2162 H 0.46921 0.99102 1.00638 0.0
H2163 H 0.45357 0.99123 0.08774 0.0
C2164 C 0.42033 0.969 0.07357 0.0
C2165 C 0.40606 0.95686 0.05292 0.0
C2166 C 0.48116 0.99865 0.02249 0.0
C2167 C 0.45094 0.98282 0.04889 0.0
C2168 C 0.50358 1.01089 0.01983 0.0
C2169 C 0.51962 0.02091 0.04028 0.0
C2170 C 0.47455 0.99634 0.04578 0.0
C2171 C 0.51231 0.01851 0.0633 0.0
C2172 C 0.44281 0.98195 0.07165 0.0
C2173 C 0.41495 0.95809 0.03059 0.0
N2174 N 0.49026 1.0064 0.06544 0.0
N2175 N 0.43676 0.97085 0.02919 0.0
H2176 H 0.91844 0.59027 0.84417 0.0
H2177 H 0.87384 0.66908 0.74406 0.0
H2178 H 0.95848 0.61451 0.78694 0.0
H2179 H 0.834 0.64527 0.80157 0.0
H2180 H 0.90291 0.64574 0.75682 0.0
H2181 H 0.88575 0.60745 0.82669 0.0
C2182 C 0.92035 0.59916 0.82788 0.0
C2183 C 0.94133 0.60111 0.81711 0.0
C2184 C 0.88768 0.64542 0.76651 0.0
C2185 C 0.90389 0.62081 0.79696 0.0
C2186 C 0.87092 0.65858 0.75907 0.0
C2187 C 0.85148 0.65925 0.77184 0.0
C2188 C 0.88508 0.63288 0.78693 0.0
C2189 C 0.8489 0.64556 0.79143 0.0
C2190 C 0.90163 0.60893 0.81788 0.0
C2191 C 0.94271 0.6127 0.79593 0.0
N2192 N 0.86561 0.63309 0.79849 0.0
N2193 N 0.92429 0.62221 0.78663 0.0
H2194 H 0.93119 0.66024 0.05672 0.0
H2195 H 0.99499 0.55664 0.01349 0.0
H2196 H 0.89692 0.60243 1.0062 0.0
H2197 H 1.03335 0.61567 0.0602 0.0
H2198 H 0.95904 0.57314 1.01197 0.0
H2199 H 0.96816 0.64456 0.05963 0.0
C2200 C 0.93126 0.64428 0.04628 0.0
C2201 C 0.91044 0.63284 0.03116 0.0
C2202 C 0.97526 0.58258 0.02261 0.0
C2203 C 0.95329 0.61453 0.03446 0.0
C2204 C 0.996 0.57307 0.02352 0.0
C2205 C 1.01769 0.58455 0.03702 0.0
C2206 C 0.97563 0.60397 0.03535 0.0
C2207 C 1.01731 0.60596 0.04949 0.0
C2208 C 0.95252 0.6353 0.04792 0.0
C2209 C 0.91216 0.61214 0.01813 0.0
N2210 N 0.99684 0.61484 0.04838 0.0
N2211 N 0.93286 0.60383 0.0201 0.0
H2212 H 0.27672 0.12832 0.85418 0.0
H2213 H 0.26113 0.24409 0.79373 0.0
H2214 H 0.21231 0.13729 0.81099 0.0
H2215 H 0.326 0.23594 0.83667 0.0
H2216 H 0.2417 0.20639 0.80372 0.0
H2217 H 0.29373 0.16894 0.8518 0.0
C2218 C 0.26606 0.13887 0.84438 0.0
C2219 C 0.24315 0.12933 0.8325 0.0
C2220 C 0.26014 0.21287 0.81111 0.0
C2221 C 0.26254 0.17578 0.82967 0.0
C2222 C 0.27128 0.23441 0.80537 0.0
C2223 C 0.29534 0.24305 0.81411 0.0
C2224 C 0.27315 0.19975 0.82557 0.0
C2225 C 0.30747 0.22988 0.82941 0.0
C2226 C 0.2758 0.16206 0.84302 0.0
C2227 C 0.23013 0.14384 0.82021 0.0
N2228 N 0.2963 0.20875 0.83446 0.0
N2229 N 0.24008 0.16629 0.81896 0.0
H2230 H 0.46927 0.04195 0.35423 0.0
H2231 H 0.47981 0.91532 0.30487 0.0
H2232 H 0.53273 0.02561 0.32954 0.0
H2233 H 0.41622 0.93204 0.32885 0.0
H2234 H 0.50027 0.95516 0.31599 0.0
H2235 H 0.45048 1.00127 0.3476 0.0
C2236 C 0.47935 0.02979 0.34763 0.0
C2237 C 0.50258 0.03725 0.34229 0.0
C2238 C 0.48186 0.95011 0.31887 0.0
C2239 C 0.48106 0.9906 0.33444 0.0
C2240 C 0.47018 0.92733 0.3126 0.0
C2241 C 0.44621 0.92031 0.31584 0.0
C2242 C 0.46951 0.96604 0.32847 0.0
C2243 C 0.43457 0.93674 0.32566 0.0
C2244 C 0.46857 1.00655 0.34377 0.0
C2245 C 0.51477 0.02067 0.33382 0.0
N2246 N 0.44632 0.95882 0.33159 0.0
N2247 N 0.50381 0.99815 0.33001 0.0
H2248 H 0.67774 0.4197 0.62482 0.0
H2249 H 0.56734 0.47733 0.57885 0.0
H2250 H 0.61768 0.42094 0.66389 0.0
H2251 H 0.6339 0.48847 0.54915 0.0
H2252 H 0.58254 0.45067 0.60579 0.0
H2253 H 0.65926 0.43992 0.59309 0.0
C2254 C 0.6607 0.42424 0.62674 0.0
C2255 C 0.64936 0.41883 0.64714 0.0
C2256 C 0.59367 0.45878 0.59316 0.0
C2257 C 0.628 0.44167 0.61082 0.0
C2258 C 0.58493 0.47381 0.57767 0.0
C2259 C 0.59949 0.48528 0.56199 0.0
C2260 C 0.61702 0.45515 0.59276 0.0
C2261 C 0.62219 0.48019 0.56121 0.0
C2262 C 0.65013 0.43571 0.60861 0.0
C2263 C 0.6272 0.42498 0.6486 0.0
N2264 N 0.63032 0.46564 0.57652 0.0
N2265 N 0.61725 0.43609 0.6307 0.0
H2266 H 0.42164 0.6915 0.36905 0.0
H2267 H 0.38704 0.74817 0.24932 0.0
H2268 H 0.47123 0.72239 0.32258 0.0
H2269 H 0.33631 0.71862 0.2953 0.0
H2270 H 0.41599 0.72782 0.26906 0.0
H2271 H 0.38897 0.69081 0.33646 0.0
C2272 C 0.42569 0.69767 0.35182 0.0
C2273 C 0.44905 0.70766 0.34871 0.0
C2274 C 0.39836 0.72532 0.2745 0.0
C2275 C 0.41193 0.70696 0.31151 0.0
C2276 C 0.38181 0.73689 0.26315 0.0
C2277 C 0.35953 0.73551 0.27114 0.0
C2278 C 0.39273 0.71278 0.29434 0.0
C2279 C 0.35347 0.72039 0.28884 0.0
C2280 C 0.40706 0.69727 0.33323 0.0
C2281 C 0.45338 0.71513 0.32597 0.0
N2282 N 0.37024 0.71008 0.30035 0.0
N2283 N 0.43496 0.71498 0.30839 0.0
H2284 H 0.14368 0.81542 0.11067 0.0
H2285 H 0.14827 0.69392 0.16267 0.0
H2286 H 0.17106 0.80765 0.18468 0.0
H2287 H 0.13301 0.7023 0.08628 0.0
H2288 H 0.15822 0.73569 0.17077 0.0
H2289 H 0.1412 0.77425 0.1009 0.0
C2290 C 0.14943 0.80513 0.1248 0.0
C2291 C 0.15737 0.81498 0.14858 0.0
C2292 C 0.15284 0.72839 0.15221 0.0
C2293 C 0.15434 0.76783 0.13759 0.0
C2294 C 0.14724 0.7045 0.14755 0.0
C2295 C 0.13956 0.6945 0.12376 0.0
C2296 C 0.15058 0.74246 0.133 0.0
C2297 C 0.1383 0.70919 0.10497 0.0
C2298 C 0.14799 0.78162 0.11922 0.0
C2299 C 0.16467 0.8008 0.16613 0.0
N2300 N 0.14357 0.73241 0.11001 0.0
N2301 N 0.16273 0.77792 0.16034 0.0
H2302 H 0.05943 0.24816 0.82887 0.0
H2303 H 0.19341 0.31813 0.84179 0.0
H2304 H 0.09574 0.28902 0.89398 0.0
H2305 H 0.15522 0.2831 0.77446 0.0
H2306 H 0.15735 0.30835 0.86091 0.0
H2307 H 0.09392 0.26141 0.80825 0.0
C2308 C 0.07463 0.25996 0.83882 0.0
C2309 C 0.07478 0.2674 0.86323 0.0
C2310 C 0.15677 0.30291 0.84191 0.0
C2311 C 0.11426 0.2826 0.83976 0.0
C2312 C 0.17738 0.30841 0.83103 0.0
C2313 C 0.17731 0.30126 0.80657 0.0
C2314 C 0.13596 0.29003 0.82828 0.0
C2315 C 0.15598 0.28904 0.79334 0.0
C2316 C 0.09429 0.26756 0.82702 0.0
C2317 C 0.09489 0.28277 0.87518 0.0
N2318 N 0.13618 0.28364 0.80443 0.0
N2319 N 0.11387 0.28977 0.86335 0.0
H2320 H 0.58872 0.74158 1.00168 0.0
H2321 H 0.58119 0.60454 0.97072 0.0
H2322 H 0.59097 0.71389 0.92895 0.0
H2323 H 0.58239 0.6371 0.04215 0.0
H2324 H 0.58383 0.6427 0.95429 0.0
H2325 H 0.5857 0.70306 0.01545 0.0
C2326 C 0.5886 0.72749 0.98838 0.0
C2327 C 0.59017 0.73174 0.96384 0.0
C2328 C 0.58345 0.64151 0.97356 0.0
C2329 C 0.58653 0.68599 0.98013 0.0
C2330 C 0.58185 0.61952 0.98306 0.0
C2331 C 0.58143 0.61697 1.00814 0.0
C2332 C 0.58463 0.66159 0.98905 0.0
C2333 C 0.58256 0.63759 0.02279 0.0
C2334 C 0.58685 0.70517 0.99644 0.0
C2335 C 0.58986 0.71201 0.94799 0.0
N2336 N 0.58406 0.65855 0.01316 0.0
N2337 N 0.58807 0.69028 0.95633 0.0
H2338 H 0.17279 0.83469 0.66126 0.0
H2339 H 0.24976 0.79316 0.77492 0.0
H2340 H 0.13958 0.8027 0.71927 0.0
H2341 H 0.28015 0.83364 0.72057 0.0
H2342 H 0.20971 0.79542 0.7554 0.0
H2343 H 0.21174 0.83344 0.68289 0.0
C2344 C 0.17356 0.82742 0.67864 0.0
C2345 C 0.15242 0.81882 0.68824 0.0
C2346 C 0.22513 0.80387 0.74778 0.0
C2347 C 0.19805 0.81713 0.71354 0.0
C2348 C 0.24815 0.80259 0.75896 0.0
C2349 C 0.26878 0.81322 0.74957 0.0
C2350 C 0.22236 0.81575 0.72678 0.0
C2351 C 0.2651 0.82513 0.7287 0.0
C2352 C 0.19606 0.82673 0.69108 0.0
C2353 C 0.15514 0.80968 0.71102 0.0
N2354 N 0.24263 0.82595 0.71813 0.0
N2355 N 0.17737 0.80896 0.72274 0.0
H2356 H 0.069 0.38756 0.42341 0.0
H2357 H 0.11503 0.48106 0.53958 0.0
H2358 H 0.11642 0.3731 0.48378 0.0
H2359 H 0.06335 0.48838 0.47953 0.0
H2360 H 0.11709 0.4428 0.52067 0.0
H2361 H 0.06808 0.4244 0.44436 0.0
C2362 C 0.07933 0.39194 0.44117 0.0
C2363 C 0.09285 0.37647 0.45145 0.0
C2364 C 0.10529 0.45275 0.51161 0.0
C2365 C 0.09185 0.42032 0.47631 0.0
C2366 C 0.1041 0.47482 0.52244 0.0
C2367 C 0.08896 0.48857 0.51139 0.0
C2368 C 0.09134 0.44393 0.48925 0.0
C2369 C 0.07534 0.47892 0.48909 0.0
C2370 C 0.07873 0.41334 0.45326 0.0
C2371 C 0.10561 0.38397 0.4748 0.0
N2372 N 0.07691 0.45763 0.47899 0.0
N2373 N 0.10486 0.40516 0.48626 0.0
H2374 H 0.48365 0.25906 0.17944 0.0
H2375 H 0.42106 0.33239 0.27112 0.0
H2376 H 0.51871 0.3264 0.21193 0.0
H2377 H 0.39098 0.26313 0.24078 0.0
H2378 H 0.45638 0.33124 0.25049 0.0
H2379 H 0.45025 0.26109 0.20188 0.0
C2380 C 0.48455 0.27441 0.19132 0.0
C2381 C 0.50466 0.29257 0.19341 0.0
C2382 C 0.44214 0.31623 0.24839 0.0
C2383 C 0.46506 0.29503 0.21989 0.0
C2384 C 0.42177 0.31682 0.2603 0.0
C2385 C 0.40249 0.29777 0.2581 0.0
C2386 C 0.4437 0.29647 0.23374 0.0
C2387 C 0.40503 0.27831 0.24344 0.0
C2388 C 0.46516 0.2755 0.20429 0.0
C2389 C 0.504 0.31182 0.20947 0.0
N2390 N 0.42488 0.27824 0.232 0.0
N2391 N 0.48471 0.31254 0.22186 0.0
H2392 H 0.66691 0.55021 0.36682 0.0
H2393 H 0.64598 0.51901 0.49958 0.0
H2394 H 0.72224 0.54145 0.42286 0.0
H2395 H 0.5897 0.52736 0.44473 0.0
H2396 H 0.67235 0.51802 0.4686 0.0
H2397 H 0.63707 0.53363 0.39177 0.0
C2398 C 0.67279 0.54455 0.38424 0.0
C2399 C 0.6971 0.54772 0.39305 0.0
C2400 C 0.65411 0.51957 0.46312 0.0
C2401 C 0.66309 0.52873 0.4216 0.0
C2402 C 0.6391 0.52004 0.48079 0.0
C2403 C 0.61591 0.52344 0.47449 0.0
C2404 C 0.64596 0.52315 0.43913 0.0
C2405 C 0.60757 0.52468 0.45008 0.0
C2406 C 0.65573 0.53502 0.39844 0.0
C2407 C 0.70369 0.53977 0.41557 0.0
N2408 N 0.62281 0.52502 0.43324 0.0
N2409 N 0.68678 0.53093 0.4292 0.0
H2410 H 0.30156 0.83298 0.07599 0.0
H2411 H 0.35581 0.8498 0.2167 0.0
H2412 H 0.35321 0.89253 0.10856 0.0
H2413 H 0.30804 0.78817 0.18301 0.0
H2414 H 0.35541 0.86561 0.17714 0.0
H2415 H 0.30403 0.81606 0.11497 0.0
C2416 C 0.31348 0.84247 0.09129 0.0
C2417 C 0.32715 0.86423 0.08898 0.0
C2418 C 0.34509 0.84859 0.1784 0.0
C2419 C 0.33 0.84501 0.13371 0.0
C2420 C 0.34531 0.83955 0.20101 0.0
C2421 C 0.33192 0.81763 0.20324 0.0
C2422 C 0.33131 0.83567 0.15788 0.0
C2423 C 0.31864 0.80515 0.18222 0.0
C2424 C 0.31488 0.8328 0.11356 0.0
C2425 C 0.34231 0.87571 0.10946 0.0
N2426 N 0.31862 0.81437 0.16048 0.0
N2427 N 0.34325 0.86601 0.13094 0.0
H2428 H 0.03976 0.63544 0.89256 0.0
H2429 H 0.13106 0.59333 0.98301 0.0
H2430 H 0.09827 0.60615 0.87223 0.0
H2431 H 0.0735 0.62425 1.00256 0.0
H2432 H 0.1294 0.6119 0.94496 0.0
H2433 H 0.06112 0.64556 0.93337 0.0
C2434 C 0.05738 0.63162 0.89656 0.0
C2435 C 0.06691 0.6192 0.87932 0.0
C2436 C 0.11775 0.61545 0.95796 0.0
C2437 C 0.09118 0.6301 0.92614 0.0
C2438 C 0.11891 0.60503 0.97978 0.0
C2439 C 0.10224 0.60722 0.99559 0.0
C2440 C 0.09937 0.62751 0.9519 0.0
C2441 C 0.08656 0.62216 0.9906 0.0
C2442 C 0.06962 0.63743 0.91988 0.0
C2443 C 0.09003 0.61523 0.88521 0.0
N2444 N 0.08508 0.63131 0.96887 0.0
N2445 N 0.1011 0.62002 0.90839 0.0
H2446 H 0.37827 0.2126 0.61625 0.0
H2447 H 0.30565 0.2833 0.69965 0.0
H2448 H 0.31064 0.22996 0.59174 0.0
H2449 H 0.36739 0.2582 0.72965 0.0
H2450 H 0.30926 0.26593 0.65963 0.0
H2451 H 0.37686 0.23115 0.65689 0.0
C2452 C 0.36325 0.22044 0.61921 0.0
C2453 C 0.34457 0.21955 0.60015 0.0
C2454 C 0.32208 0.26417 0.6749 0.0
C2455 C 0.34278 0.24096 0.64708 0.0
C2456 C 0.32003 0.27418 0.69795 0.0
C2457 C 0.33614 0.27232 0.7185 0.0
C2458 C 0.34054 0.25214 0.67182 0.0
C2459 C 0.35438 0.26013 0.71462 0.0
C2460 C 0.36239 0.23096 0.64256 0.0
C2461 C 0.32552 0.23 0.60555 0.0
N2462 N 0.35609 0.25063 0.69194 0.0
N2463 N 0.32518 0.24012 0.62818 0.0
H2464 H 0.74673 0.60139 0.29696 0.0
H2465 H 0.63382 0.54336 0.20261 0.0
H2466 H 0.71325 0.52977 0.29548 0.0
H2467 H 0.67885 0.60818 0.19334 0.0
H2468 H 0.66219 0.53823 0.2372 0.0
H2469 H 0.72205 0.60423 0.25897 0.0
C2470 C 0.73436 0.58618 0.28847 0.0
C2471 C 0.73191 0.56534 0.29943 0.0
C2472 C 0.66593 0.5535 0.22751 0.0
C2473 C 0.70337 0.56857 0.25617 0.0
C2474 C 0.64965 0.55653 0.20794 0.0
C2475 C 0.65398 0.57629 0.19525 0.0
C2476 C 0.6865 0.57048 0.23456 0.0
C2477 C 0.67493 0.59266 0.20261 0.0
C2478 C 0.72028 0.58782 0.26679 0.0
C2479 C 0.7157 0.54616 0.28762 0.0
N2480 N 0.69034 0.58947 0.22191 0.0
N2481 N 0.7018 0.54831 0.26673 0.0
H2482 H 0.31741 0.86115 0.97159 0.0
H2483 H 0.33101 0.87561 0.83136 0.0
H2484 H 0.33063 0.92699 0.94147 0.0
H2485 H 0.32086 0.81029 0.86283 0.0
H2486 H 0.3276 0.89463 0.87069 0.0
H2487 H 0.31517 0.84208 0.93101 0.0
C2488 C 0.31965 0.8716 0.95644 0.0
C2489 C 0.32437 0.89573 0.96002 0.0
C2490 C 0.32599 0.87612 0.86892 0.0
C2491 C 0.32196 0.87399 0.91343 0.0
C2492 C 0.3279 0.86524 0.84644 0.0
C2493 C 0.32639 0.84131 0.84375 0.0
C2494 C 0.32252 0.86298 0.88885 0.0
C2495 C 0.32233 0.82878 0.864 0.0
C2496 C 0.31843 0.8607 0.93325 0.0
C2497 C 0.32708 0.90836 0.93963 0.0
N2498 N 0.32064 0.83976 0.88564 0.0
N2499 N 0.32598 0.89736 0.91728 0.0
H2500 H 0.06115 0.55264 0.79528 0.0
H2501 H 0.05145 0.49844 0.66318 0.0
H2502 H 0.9936 0.51884 0.7553 0.0
H2503 H 0.11589 0.50511 0.71358 0.0
H2504 H 1.02944 0.50237 0.69703 0.0
H2505 H 0.08147 0.53401 0.76611 0.0
C2506 C 0.0506 0.54125 0.78038 0.0
C2507 C 1.02567 0.53754 0.77745 0.0
C2508 C 0.04831 0.50247 0.70074 0.0
C2509 C 0.04878 0.51614 0.74411 0.0
C2510 C 0.06099 0.49995 0.68133 0.0
C2511 C 0.08586 0.50205 0.68533 0.0
C2512 C 0.06058 0.50758 0.72429 0.0
C2513 C 0.09693 0.50425 0.70949 0.0
C2514 C 0.0622 0.53042 0.7639 0.0
C2515 C 1.01287 0.52233 0.75808 0.0
N2516 N 0.08433 0.50761 0.72803 0.0
N2517 N 1.02458 0.51246 0.7419 0.0
H2518 H 0.39242 0.25271 0.47918 0.0
H2519 H 0.32513 0.23849 0.34165 0.0
H2520 H 0.33482 0.19594 0.45303 0.0
H2521 H 0.37743 0.29826 0.37182 0.0
H2522 H 0.32928 0.22188 0.38093 0.0
H2523 H 0.38784 0.26846 0.43975 0.0
C2524 C 0.3787 0.24343 0.46522 0.0
C2525 C 0.364 0.22274 0.46996 0.0
C2526 C 0.33993 0.2386 0.37901 0.0
C2527 C 0.3587 0.24112 0.42363 0.0
C2528 C 0.33765 0.24817 0.35638 0.0
C2529 C 0.35099 0.27001 0.35291 0.0
C2530 C 0.35578 0.25071 0.39879 0.0
C2531 C 0.36675 0.28144 0.37319 0.0
C2532 C 0.37611 0.25257 0.44249 0.0
C2533 C 0.34661 0.21188 0.45063 0.0
N2534 N 0.36867 0.27174 0.39495 0.0
N2535 N 0.34453 0.22109 0.42852 0.0
H2536 H 0.39532 0.66679 0.47347 0.0
H2537 H 0.4223 0.54956 0.52426 0.0
H2538 H 0.36382 0.63579 0.5331 0.0
H2539 H 0.45832 0.58356 0.46884 0.0
H2540 H 0.39898 0.57982 0.52608 0.0
H2541 H 0.41718 0.6355 0.47016 0.0
C2542 C 0.39305 0.65346 0.48593 0.0
C2543 C 0.37773 0.65396 0.50362 0.0
C2544 C 0.4119 0.5806 0.51343 0.0
C2545 C 0.4026 0.61797 0.49981 0.0
C2546 C 0.42525 0.56334 0.5124 0.0
C2547 C 0.44237 0.56402 0.49642 0.0
C2548 C 0.41567 0.59875 0.49838 0.0
C2549 C 0.44514 0.58214 0.48123 0.0
C2550 C 0.40551 0.63556 0.48399 0.0
C2551 C 0.37547 0.63616 0.51921 0.0
N2552 N 0.43203 0.59882 0.48267 0.0
N2553 N 0.38774 0.61889 0.51692 0.0
H2554 H 0.88392 0.98008 0.52161 0.0
H2555 H 1.01719 0.03276 0.58792 0.0
H2556 H 0.90881 0.97294 0.59631 0.0
H2557 H 0.99969 0.0282 0.51013 0.0
H2558 H 0.97631 1.01414 0.59112 0.0
H2559 H 0.92432 1.0007 0.5169 0.0
C2560 C 0.89769 0.98299 0.53709 0.0
C2561 C 0.89262 0.97462 0.55945 0.0
C2562 C 0.98128 1.01721 0.57329 0.0
C2563 C 0.93926 0.9984 0.55413 0.0
C2564 C 1.00479 0.02799 0.57141 0.0
C2565 C 1.01231 0.03225 0.54868 0.0
C2566 C 0.96455 1.01055 0.55233 0.0
C2567 C 0.99499 0.02538 0.52809 0.0
C2568 C 0.92087 0.99469 0.53434 0.0
C2569 C 0.91156 0.97889 0.57869 0.0
N2570 N 0.97208 1.01499 0.5304 0.0
N2571 N 0.93371 0.99038 0.57561 0.0
H2572 H 0.89273 0.07489 0.23139 0.0
H2573 H 0.88205 0.16705 0.33606 0.0
H2574 H 0.93381 0.08019 0.30226 0.0
H2575 H 0.82784 0.14474 0.27455 0.0
H2576 H 0.90154 0.13548 0.32456 0.0
H2577 H 0.86906 0.10097 0.24703 0.0
C2578 C 0.89673 0.08152 0.25027 0.0
C2579 C 0.91535 0.07554 0.26552 0.0
C2580 C 0.88517 0.13731 0.31383 0.0
C2581 C 0.8884 0.10542 0.28353 0.0
C2582 C 0.87412 0.15531 0.32033 0.0
C2583 C 0.8534 0.15851 0.30616 0.0
C2584 C 0.8756 0.12272 0.29281 0.0
C2585 C 0.8437 0.14278 0.28607 0.0
C2586 C 0.88312 0.09629 0.25923 0.0
C2587 C 0.91962 0.08444 0.28989 0.0
N2588 N 0.85506 0.12574 0.2798 0.0
N2589 N 0.90639 0.09918 0.29811 0.0
H2590 H 0.78626 0.10159 0.05053 0.0
H2591 H 0.6513 0.10805 1.0031 0.0
H2592 H 0.76513 0.15859 0.01484 0.0
H2593 H 0.67129 0.05269 0.04263 0.0
H2594 H 0.69336 0.12509 1.00414 0.0
H2595 H 0.74456 0.0817 0.04486 0.0
C2596 C 0.7729 0.10988 0.04142 0.0
C2597 C 0.77917 0.13185 0.03332 0.0
C2598 C 0.68855 0.10915 1.01248 0.0
C2599 C 0.73152 0.10924 0.02677 0.0
C2600 C 0.66453 0.09939 1.01185 0.0
C2601 C 0.65777 0.07899 0.02291 0.0
C2602 C 0.70595 0.09846 0.02429 0.0
C2603 C 0.6757 0.0685 0.03395 0.0
C2604 C 0.7491 0.09853 0.0382 0.0
C2605 C 0.76112 0.14174 0.02155 0.0
N2606 N 0.69897 0.07842 0.03447 0.0
N2607 N 0.73814 0.1304 0.01872 0.0
H2608 H 0.22127 0.48094 0.2327 0.0
H2609 H 0.28768 0.41589 0.33277 0.0
H2610 H 0.18606 0.44006 0.28428 0.0
H2611 H 0.32311 0.45329 0.27898 0.0
H2612 H 0.25153 0.42937 0.3188 0.0
H2613 H 0.25948 0.47441 0.25189 0.0
C2614 C 0.22156 0.47054 0.24801 0.0
C2615 C 0.20042 0.46088 0.25679 0.0
C2616 C 0.26728 0.43489 0.31023 0.0
C2617 C 0.2441 0.45357 0.27898 0.0
C2618 C 0.28808 0.42745 0.31843 0.0
C2619 C 0.30846 0.43333 0.3069 0.0
C2620 C 0.26675 0.44821 0.29026 0.0
C2621 C 0.30769 0.44803 0.28811 0.0
C2622 C 0.2434 0.46692 0.25903 0.0
C2623 C 0.20188 0.4477 0.27679 0.0
N2624 N 0.28707 0.45476 0.28018 0.0
N2625 N 0.22335 0.4444 0.28718 0.0
H2626 H 0.24629 0.47788 0.08987 0.0
H2627 H 0.1389 0.51192 1.00081 0.0
H2628 H 0.24132 0.46602 1.0122 0.0
H2629 H 0.15195 0.52799 0.07826 0.0
H2630 H 0.17467 0.49439 1.00345 0.0
H2631 H 0.21118 0.49517 0.08484 0.0
C2632 C 0.23793 0.47886 0.0716 0.0
C2633 C 0.24736 0.47022 0.05149 0.0
C2634 C 0.16972 0.50176 0.01987 0.0
C2635 C 0.20579 0.49053 0.0455 0.0
C2636 C 0.14913 0.51182 0.0184 0.0
C2637 C 0.14194 0.5217 0.03933 0.0
C2638 C 0.18351 0.50128 0.0425 0.0
C2639 C 0.15637 0.52081 0.06148 0.0
C2640 C 0.21761 0.48889 0.06876 0.0
C2641 C 0.23512 0.47235 0.02839 0.0
N2642 N 0.17607 0.5109 0.06241 0.0
N2643 N 0.21512 0.48213 0.02607 0.0
H2644 H 0.88867 0.97928 0.21926 0.0
H2645 H 0.89445 0.85073 0.24749 0.0
H2646 H 0.94164 0.94371 0.19548 0.0
H2647 H 0.83512 0.88287 0.25936 0.0
H2648 H 0.911 0.88373 0.22648 0.0
H2649 H 0.8674 0.94321 0.23144 0.0
C2650 C 0.89565 0.96376 0.2163 0.0
C2651 C 0.91708 0.96449 0.2066 0.0
C2652 C 0.89427 0.88348 0.23351 0.0
C2653 C 0.89301 0.92319 0.22087 0.0
C2654 C 0.88485 0.86469 0.24564 0.0
C2655 C 0.86348 0.86416 0.25546 0.0
C2656 C 0.88234 0.90194 0.23135 0.0
C2657 C 0.85172 0.88262 0.25225 0.0
C2658 C 0.88349 0.94317 0.22327 0.0
C2659 C 0.9252 0.94388 0.20295 0.0
N2660 N 0.86142 0.90085 0.24066 0.0
N2661 N 0.91333 0.92408 0.21046 0.0
H2662 H 0.66133 0.01891 0.7633 0.0
H2663 H 0.66274 0.14766 0.72771 0.0
H2664 H 0.61239 0.03582 0.70546 0.0
H2665 H 0.72024 0.12745 0.77294 0.0
H2666 H 0.64194 0.10748 0.72205 0.0
H2667 H 0.68082 0.05937 0.76997 0.0
C2668 C 0.65461 0.03114 0.75203 0.0
C2669 C 0.63519 0.02392 0.73375 0.0
C2670 C 0.65909 0.11188 0.73325 0.0
C2671 C 0.65749 0.07039 0.74135 0.0
C2672 C 0.67106 0.13482 0.73642 0.0
C2673 C 0.69339 0.14106 0.75079 0.0
C2674 C 0.66939 0.09501 0.74465 0.0
C2675 C 0.70296 0.12363 0.76201 0.0
C2676 C 0.66581 0.05425 0.75582 0.0
C2677 C 0.62733 0.04059 0.71971 0.0
N2678 N 0.69092 0.10145 0.75868 0.0
N2679 N 0.6385 0.06306 0.72382 0.0
loop_
_geom_bond_atom_site_label_1
_geom_bond_atom_site_label_2
_geom_bond_distance
_geom_bond_site_symmetry_2
_ccdc_geom_bond_type
C0 O1 1.160 . S
C0 O7 1.185 . S
O1 C0 1.160 . S
O2 Zn3 1.899 . S
O2 C10 1.284 . S
Zn3 O2 1.899 . S
Zn3 O4 2.032 . S
Zn3 O7 2.086 . S
Zn3 O12 1.977 . S
O4 Zn3 2.032 . S
O4 C8 1.278 . S
C5 O6 1.203 . S
C5 O12 1.267 . S
O6 C5 1.203 . S
O7 C0 1.185 . S
O7 Zn3 2.086 . S
C8 O4 1.278 . S
C8 O9 1.211 . S
O9 C8 1.211 . S
C10 O2 1.284 . S
C10 O11 1.273 . S
O11 C10 1.273 . S
O12 Zn3 1.977 . S
O12 C5 1.267 . S
C13 O14 1.160 1_455 S
C13 O20 1.185 . S
O14 C13 1.160 1_655 S
O15 Zn16 1.899 . S
O15 C23 1.284 . S
Zn16 O15 1.899 . S
Zn16 O17 2.032 . S
Zn16 O20 2.086 . S
Zn16 O25 1.977 . S
O17 Zn16 2.032 . S
O17 C21 1.278 . S
C18 O19 1.203 . S
C18 O25 1.267 . S
O19 C18 1.203 . S
O20 C13 1.185 . S
O20 Zn16 2.086 . S
C21 O17 1.278 . S
C21 O22 1.211 . S
O22 C21 1.211 . S
C23 O15 1.284 . S
C23 O24 1.273 . S
O24 C23 1.273 . S
O25 Zn16 1.977 . S
O25 C18 1.267 . S
C26 O27 1.160 . S
C26 O33 1.185 . S
O27 C26 1.160 . S
O28 Zn29 1.899 . S
O28 C36 1.284 . S
Zn29 O28 1.899 . S
Zn29 O30 2.032 . S
Zn29 O33 2.086 . S
Zn29 O38 1.977 . S
O30 Zn29 2.032 . S
O30 C34 1.278 . S
C31 O32 1.203 . S
C31 O38 1.267 . S
O32 C31 1.203 . S
O33 C26 1.185 . S
O33 Zn29 2.086 . S
C34 O30 1.278 . S
C34 O35 1.211 . S
O35 C34 1.211 . S
C36 O28 1.284 . S
C36 O37 1.273 . S
O37 C36 1.273 . S
O38 Zn29 1.977 . S
O38 C31 1.267 . S
C39 O40 1.160 . S
C39 O46 1.185 . S
O40 C39 1.160 . S
O41 Zn42 1.899 . S
O41 C49 1.284 . S
Zn42 O41 1.899 . S
Zn42 O43 2.032 . S
Zn42 O46 2.086 . S
Zn42 O51 1.977 . S
O43 Zn42 2.032 . S
O43 C47 1.278 . S
C44 O45 1.203 . S
C44 O51 1.267 . S
O45 C44 1.203 . S
O46 C39 1.185 . S
O46 Zn42 2.086 . S
C47 O43 1.278 . S
C47 O48 1.211 . S
O48 C47 1.211 . S
C49 O41 1.284 . S
C49 O50 1.273 . S
O50 C49 1.273 . S
O51 Zn42 1.977 . S
O51 C44 1.267 . S
C52 O53 1.160 . S
C52 O59 1.185 . S
O53 C52 1.160 . S
O54 Zn55 1.899 . S
O54 C62 1.284 . S
Zn55 O54 1.899 . S
Zn55 O56 2.032 . S
Zn55 O59 2.086 . S
Zn55 O64 1.977 . S
O56 Zn55 2.032 . S
O56 C60 1.278 . S
C57 O58 1.203 . S
C57 O64 1.267 . S
O58 C57 1.203 . S
O59 C52 1.185 . S
O59 Zn55 2.086 . S
C60 O56 1.278 . S
C60 O61 1.211 . S
O61 C60 1.211 . S
C62 O54 1.284 . S
C62 O63 1.273 . S
O63 C62 1.273 . S
O64 Zn55 1.977 . S
O64 C57 1.267 . S
C65 O66 1.160 . S
C65 O72 1.185 . S
O66 C65 1.160 . S
O67 Zn68 1.899 . S
O67 C75 1.284 . S
Zn68 O67 1.899 . S
Zn68 O69 2.032 . S
Zn68 O72 2.086 . S
Zn68 O77 1.977 . S
O69 Zn68 2.032 . S
O69 C73 1.278 . S
C70 O71 1.203 . S
C70 O77 1.267 . S
O71 C70 1.203 . S
O72 C65 1.185 . S
O72 Zn68 2.086 . S
C73 O69 1.278 . S
C73 O74 1.211 . S
O74 C73 1.211 . S
C75 O67 1.284 . S
C75 O76 1.273 . S
O76 C75 1.273 . S
O77 Zn68 1.977 . S
O77 C70 1.267 . S
C78 O79 1.160 . S
C78 O85 1.185 . S
O79 C78 1.160 . S
O80 Zn81 1.899 . S
O80 C88 1.284 . S
Zn81 O80 1.899 . S
Zn81 O82 2.032 . S
Zn81 O85 2.086 . S
Zn81 O90 1.977 . S
O82 Zn81 2.032 . S
O82 C86 1.278 . S
C83 O84 1.203 . S
C83 O90 1.267 . S
O84 C83 1.203 . S
O85 C78 1.185 . S
O85 Zn81 2.086 . S
C86 O82 1.278 . S
C86 O87 1.211 . S
O87 C86 1.211 . S
C88 O80 1.284 . S
C88 O89 1.273 . S
O89 C88 1.273 . S
O90 Zn81 1.977 . S
O90 C83 1.267 . S
C91 O92 1.160 . S
C91 O98 1.185 . S
O92 C91 1.160 . S
O93 Zn94 1.900 1_655 S
O93 C101 1.287 . S
Zn94 O93 1.900 1_455 S
Zn94 O95 2.032 . S
Zn94 O98 2.086 . S
Zn94 O103 1.977 1_455 S
O95 Zn94 2.032 . S
O95 C99 1.278 . S
C96 O97 1.203 . S
C96 O103 1.267 . S
O97 C96 1.203 . S
O98 C91 1.185 . S
O98 Zn94 2.086 . S
C99 O95 1.278 . S
C99 O100 1.211 1_455 S
O100 C99 1.211 1_655 S
C101 O93 1.287 . S
C101 O102 1.273 . S
O102 C101 1.273 . S
O103 Zn94 1.977 1_655 S
O103 C96 1.267 . S
C104 O105 1.160 . S
C104 O111 1.185 . S
O105 C104 1.160 . S
O106 Zn107 1.899 . S
O106 C114 1.284 . S
Zn107 O106 1.899 . S
Zn107 O108 2.032 . S
Zn107 O111 2.086 . S
Zn107 O116 1.977 . S
O108 Zn107 2.032 . S
O108 C112 1.278 . S
C109 O110 1.203 . S
C109 O116 1.267 . S
O110 C109 1.203 . S
O111 C104 1.185 . S
O111 Zn107 2.086 . S
C112 O108 1.278 . S
C112 O113 1.211 . S
O113 C112 1.211 . S
C114 O106 1.284 . S
C114 O115 1.273 . S
O115 C114 1.273 . S
O116 Zn107 1.977 . S
O116 C109 1.267 . S
C117 O118 1.160 . S
C117 O124 1.185 . S
O118 C117 1.160 . S
O119 Zn120 1.899 . S
O119 C127 1.284 . S
Zn120 O119 1.899 . S
Zn120 O121 2.032 . S
Zn120 O124 2.086 . S
Zn120 O129 1.977 . S
O121 Zn120 2.032 . S
O121 C125 1.278 . S
C122 O123 1.203 . S
C122 O129 1.267 . S
O123 C122 1.203 . S
O124 C117 1.185 . S
O124 Zn120 2.086 . S
C125 O121 1.278 . S
C125 O126 1.211 . S
O126 C125 1.211 . S
C127 O119 1.284 . S
C127 O128 1.273 . S
O128 C127 1.273 . S
O129 Zn120 1.977 . S
O129 C122 1.267 . S
C130 O131 1.160 . S
C130 O137 1.185 . S
O131 C130 1.160 . S
O132 Zn133 1.899 . S
O132 C140 1.284 . S
Zn133 O132 1.899 . S
Zn133 O134 2.032 . S
Zn133 O137 2.086 . S
Zn133 O142 1.977 . S
O134 Zn133 2.032 . S
O134 C138 1.278 . S
C135 O136 1.203 . S
C135 O142 1.267 . S
O136 C135 1.203 . S
O137 C130 1.185 . S
O137 Zn133 2.086 . S
C138 O134 1.278 . S
C138 O139 1.211 . S
O139 C138 1.211 . S
C140 O132 1.284 . S
C140 O141 1.273 . S
O141 C140 1.273 . S
O142 Zn133 1.977 . S
O142 C135 1.267 . S
C143 O144 1.160 . S
C143 O150 1.185 . S
O144 C143 1.160 . S
O145 Zn146 1.899 . S
O145 C153 1.284 . S
Zn146 O145 1.899 . S
Zn146 O147 2.032 . S
Zn146 O150 2.086 . S
Zn146 O155 1.977 . S
O147 Zn146 2.032 . S
O147 C151 1.278 . S
C148 O149 1.203 . S
C148 O155 1.267 . S
O149 C148 1.203 . S
O150 C143 1.185 . S
O150 Zn146 2.086 . S
C151 O147 1.278 . S
C151 O152 1.211 . S
O152 C151 1.211 . S
C153 O145 1.284 . S
C153 O154 1.273 . S
O154 C153 1.273 . S
O155 Zn146 1.977 . S
O155 C148 1.267 . S
C156 O157 1.160 . S
C156 O163 1.185 . S
O157 C156 1.160 . S
O158 Zn159 1.899 . S
O158 C166 1.284 . S
Zn159 O158 1.899 . S
Zn159 O160 2.032 . S
Zn159 O163 2.086 . S
Zn159 O168 1.977 . S
O160 Zn159 2.032 . S
O160 C164 1.278 1_554 S
C161 O162 1.203 . S
C161 O168 1.267 . S
O162 C161 1.203 . S
O163 C156 1.185 . S
O163 Zn159 2.086 . S
C164 O160 1.278 1_556 S
C164 O165 1.211 . S
O165 C164 1.211 . S
C166 O158 1.284 . S
C166 O167 1.273 . S
O167 C166 1.273 . S
O168 Zn159 1.977 . S
O168 C161 1.267 . S
C169 O170 1.160 . S
C169 O176 1.185 1_554 S
O170 C169 1.160 . S
O171 Zn172 1.899 . S
O171 C179 1.284 . S
Zn172 O171 1.899 . S
Zn172 O173 2.032 1_554 S
Zn172 O176 2.086 1_554 S
Zn172 O181 1.977 1_554 S
O173 Zn172 2.032 1_556 S
O173 C177 1.278 . S
C174 O175 1.187 1_556 S
C174 O181 1.280 . S
O175 C174 1.187 1_554 S
O176 C169 1.185 1_556 S
O176 Zn172 2.086 1_556 S
C177 O173 1.278 . S
C177 O178 1.211 . S
O178 C177 1.211 . S
C179 O171 1.284 . S
C179 O180 1.273 . S
O180 C179 1.273 . S
O181 Zn172 1.977 1_556 S
O181 C174 1.280 . S
C182 O183 1.160 . S
C182 O189 1.185 . S
O183 C182 1.160 . S
O184 Zn185 1.899 . S
O184 C192 1.284 . S
Zn185 O184 1.899 . S
Zn185 O186 2.032 . S
Zn185 O189 2.086 . S
Zn185 O194 1.977 . S
O186 Zn185 2.032 . S
O186 C190 1.278 . S
C187 O188 1.203 . S
C187 O194 1.267 . S
O188 C187 1.203 . S
O189 C182 1.185 . S
O189 Zn185 2.086 . S
C190 O186 1.278 . S
C190 O191 1.211 . S
O191 C190 1.211 . S
C192 O184 1.284 . S
C192 O193 1.273 . S
O193 C192 1.273 . S
O194 Zn185 1.977 . S
O194 C187 1.267 . S
C195 O196 1.160 . S
C195 O202 1.185 . S
O196 C195 1.160 . S
O197 Zn198 1.899 . S
O197 C205 1.284 . S
Zn198 O197 1.899 . S
Zn198 O199 2.032 . S
Zn198 O202 2.086 . S
Zn198 O207 1.977 . S
O199 Zn198 2.032 . S
O199 C203 1.278 . S
C200 O201 1.203 . S
C200 O207 1.267 . S
O201 C200 1.203 . S
O202 C195 1.185 . S
O202 Zn198 2.086 . S
C203 O199 1.278 . S
C203 O204 1.211 . S
O204 C203 1.211 . S
C205 O197 1.284 . S
C205 O206 1.273 . S
O206 C205 1.273 . S
O207 Zn198 1.977 . S
O207 C200 1.267 . S
C208 O209 1.160 . S
C208 O215 1.185 . S
O209 C208 1.160 . S
O210 Zn211 1.899 . S
O210 C218 1.283 . S
Zn211 O210 1.899 . S
Zn211 O212 2.032 . S
Zn211 O215 2.086 . S
Zn211 O220 1.977 1_545 S
O212 Zn211 2.032 . S
O212 C216 1.309 . S
C213 O214 1.203 . S
C213 O220 1.267 . S
O214 C213 1.203 . S
O215 C208 1.185 . S
O215 Zn211 2.086 . S
C216 O212 1.309 . S
C216 O217 1.170 1_545 S
O217 C216 1.170 1_565 S
C218 O210 1.283 . S
C218 O219 1.274 1_545 S
O219 C218 1.274 1_565 S
O220 Zn211 1.977 1_565 S
O220 C213 1.267 . S
C221 O222 1.160 . S
C221 O228 1.185 . S
O222 C221 1.160 . S
O223 Zn224 1.899 . S
O223 C231 1.284 . S
Zn224 O223 1.899 . S
Zn224 O225 2.032 . S
Zn224 O228 2.086 . S
Zn224 O233 1.977 . S
O225 Zn224 2.032 . S
O225 C229 1.278 . S
C226 O227 1.203 . S
C226 O233 1.267 . S
O227 C226 1.203 . S
O228 C221 1.185 . S
O228 Zn224 2.086 . S
C229 O225 1.278 . S
C229 O230 1.211 . S
O230 C229 1.211 . S
C231 O223 1.284 . S
C231 O232 1.273 . S
O232 C231 1.273 . S
O233 Zn224 1.977 . S
O233 C226 1.267 . S
C234 O235 1.160 . S
C234 O241 1.185 . S
O235 C234 1.160 . S
O236 Zn237 1.899 . S
O236 C244 1.284 . S
Zn237 O236 1.899 . S
Zn237 O238 2.032 . S
Zn237 O241 2.086 . S
Zn237 O246 1.977 . S
O238 Zn237 2.032 . S
O238 C242 1.278 . S
C239 O240 1.203 . S
C239 O246 1.267 . S
O240 C239 1.203 . S
O241 C234 1.185 . S
O241 Zn237 2.086 . S
C242 O238 1.278 . S
C242 O243 1.211 . S
O243 C242 1.211 . S
C244 O236 1.284 . S
C244 O245 1.273 . S
O245 C244 1.273 . S
O246 Zn237 1.977 . S
O246 C239 1.267 . S
C247 O248 1.160 . S
C247 O254 1.185 . S
O248 C247 1.160 . S
O249 Zn250 1.900 1_565 S
O249 C257 1.284 . S
Zn250 O249 1.900 1_545 S
Zn250 O251 2.030 1_545 S
Zn250 O254 2.082 1_545 S
Zn250 O259 1.981 . S
O251 Zn250 2.030 1_565 S
O251 C255 1.278 1_565 S
C252 O253 1.203 . S
C252 O259 1.267 . S
O253 C252 1.203 . S
O254 C247 1.185 . S
O254 Zn250 2.082 1_565 S
C255 O251 1.278 1_545 S
C255 O256 1.211 . S
O256 C255 1.211 . S
C257 O249 1.284 . S
C257 O258 1.273 1_565 S
O258 C257 1.273 1_545 S
O259 Zn250 1.981 . S
O259 C252 1.267 . S
C260 O261 1.160 . S
C260 O267 1.185 . S
O261 C260 1.160 . S
O262 Zn263 1.899 . S
O262 C270 1.284 . S
Zn263 O262 1.899 . S
Zn263 O264 2.032 1_554 S
Zn263 O267 2.086 . S
Zn263 O272 1.977 . S
O264 Zn263 2.032 1_556 S
O264 C268 1.278 . S
C265 O266 1.203 . S
C265 O272 1.267 . S
O266 C265 1.203 . S
O267 C260 1.185 . S
O267 Zn263 2.086 . S
C268 O264 1.278 . S
C268 O269 1.211 . S
O269 C268 1.211 . S
C270 O262 1.284 . S
C270 O271 1.273 . S
O271 C270 1.273 . S
O272 Zn263 1.977 . S
O272 C265 1.267 . S
C273 O274 1.160 . S
C273 O280 1.185 . S
O274 C273 1.160 . S
O275 Zn276 1.899 . S
O275 C283 1.284 1_655 S
Zn276 O275 1.899 . S
Zn276 O277 2.032 1_655 S
Zn276 O280 2.086 . S
Zn276 O285 1.977 . S
O277 Zn276 2.032 1_455 S
O277 C281 1.278 . S
C278 O279 1.203 . S
C278 O285 1.267 . S
O279 C278 1.203 . S
O280 C273 1.185 . S
O280 Zn276 2.086 . S
C281 O277 1.278 . S
C281 O282 1.211 . S
O282 C281 1.211 . S
C283 O275 1.284 1_455 S
C283 O284 1.273 . S
O284 C283 1.273 . S
O285 Zn276 1.977 . S
O285 C278 1.267 . S
C286 O287 1.160 . S
C286 O293 1.185 . S
O287 C286 1.160 . S
O288 Zn289 1.899 . S
O288 C296 1.284 . S
Zn289 O288 1.899 . S
Zn289 O290 2.032 . S
Zn289 O293 2.086 . S
Zn289 O298 1.977 . S
O290 Zn289 2.032 . S
O290 C294 1.278 . S
C291 O292 1.203 . S
C291 O298 1.267 . S
O292 C291 1.203 . S
O293 C286 1.185 . S
O293 Zn289 2.086 . S
C294 O290 1.278 . S
C294 O295 1.211 . S
O295 C294 1.211 . S
C296 O288 1.284 . S
C296 O297 1.273 . S
O297 C296 1.273 . S
O298 Zn289 1.977 . S
O298 C291 1.267 . S
C299 O300 1.160 . S
C299 O306 1.185 . S
O300 C299 1.160 . S
O301 Zn302 1.899 . S
O301 C309 1.284 . S
Zn302 O301 1.899 . S
Zn302 O303 2.032 . S
Zn302 O306 2.086 . S
Zn302 O311 1.977 . S
O303 Zn302 2.032 . S
O303 C307 1.278 . S
C304 O305 1.203 . S
C304 O311 1.267 . S
O305 C304 1.203 . S
O306 C299 1.185 . S
O306 Zn302 2.086 . S
C307 O303 1.278 . S
C307 O308 1.211 . S
O308 C307 1.211 . S
C309 O301 1.284 . S
C309 O310 1.273 . S
O310 C309 1.273 . S
O311 Zn302 1.977 . S
O311 C304 1.267 . S
Tb312 C322 2.828 1_455 S
Tb312 O323 2.336 1_556 S
Tb312 O326 2.368 . S
Tb312 O331 2.429 . S
Tb312 O332 2.380 1_546 S
Tb312 O335 2.487 1_455 S
Tb312 O336 2.469 1_456 S
Eu313 O324 2.418 . S
Eu313 O325 2.384 . S
Eu313 O328 2.479 . S
Eu313 O329 2.471 . S
Eu313 O330 2.334 1_554 S
Eu313 O333 2.379 . S
Eu313 C343 2.825 . S
C314 O330 1.273 . S
C314 O331 1.265 . S
C315 O332 1.255 . S
C315 O333 1.256 1_565 S
C316 C318 1.380 . S
C316 C319 1.374 . S
C316 C322 1.507 . S
C317 C318 1.384 . S
C317 C321 1.387 . S
C317 H344 0.930 . S
C318 C316 1.380 . S
C318 C317 1.384 . S
C318 H345 0.931 . S
C319 C316 1.374 . S
C319 C320 1.390 . S
C319 H346 0.930 1_556 S
C320 C319 1.390 . S
C320 C321 1.391 . S
C320 H347 0.930 . S
C321 C317 1.387 . S
C321 C320 1.391 . S
C322 Tb312 2.828 1_655 S
C322 C316 1.507 . S
C322 O335 1.238 . S
C322 O336 1.247 1_556 S
O323 Tb312 2.336 1_554 S
O323 C327 1.259 . S
O324 Eu313 2.418 . S
O324 C327 1.265 . S
O325 Eu313 2.384 . S
O325 C334 1.255 . S
O326 Tb312 2.368 . S
O326 C334 1.265 1_556 S
C327 O323 1.259 . S
C327 O324 1.265 . S
O328 Eu313 2.479 . S
O328 C343 1.238 . S
O329 Eu313 2.471 . S
O329 C343 1.247 . S
O330 Eu313 2.334 1_556 S
O330 C314 1.273 . S
O331 Tb312 2.429 . S
O331 C314 1.265 . S
O332 Tb312 2.380 1_564 S
O332 C315 1.255 . S
O333 Eu313 2.379 . S
O333 C315 1.256 1_545 S
C334 O325 1.255 . S
C334 O326 1.265 1_554 S
O335 Tb312 2.487 1_655 S
O335 C322 1.238 . S
O336 Tb312 2.469 1_654 S
O336 C322 1.247 1_554 S
C337 C340 1.380 . S
C337 C341 1.376 1_545 S
C337 C343 1.507 . S
C338 C339 1.387 1_565 S
C338 C342 1.391 . S
C339 C338 1.387 1_545 S
C339 C340 1.384 . S
C339 H348 0.930 . S
C340 C337 1.380 . S
C340 C339 1.384 . S
C340 H349 0.931 . S
C341 C337 1.376 1_565 S
C341 C342 1.388 . S
C341 H350 0.930 . S
C342 C338 1.391 . S
C342 C341 1.388 . S
C342 H351 0.930 . S
C343 Eu313 2.825 . S
C343 O328 1.238 . S
C343 O329 1.247 . S
C343 C337 1.507 . S
H344 C317 0.930 . S
H345 C318 0.931 . S
H346 C319 0.930 1_554 S
H347 C320 0.930 . S
H348 C339 0.930 . S
H349 C340 0.931 . S
H350 C341 0.930 . S
H351 C342 0.930 . S
Tb352 C362 2.825 . S
Tb352 O363 2.347 . S
Tb352 O366 2.366 . S
Tb352 O371 2.418 . S
Tb352 O372 2.384 . S
Tb352 O375 2.479 . S
Tb352 O376 2.471 . S
Eu353 O364 2.418 . S
Eu353 O365 2.384 . S
Eu353 O368 2.479 . S
Eu353 O369 2.471 . S
Eu353 O370 2.347 . S
Eu353 O373 2.366 . S
Eu353 C383 2.825 . S
C354 O370 1.259 . S
C354 O371 1.265 . S
C355 O372 1.255 . S
C355 O373 1.265 . S
C356 C358 1.380 . S
C356 C359 1.374 . S
C356 C362 1.507 . S
C357 C358 1.384 . S
C357 C361 1.387 . S
C357 H384 0.930 . S
C358 C356 1.380 . S
C358 C357 1.384 . S
C358 H385 0.931 . S
C359 C356 1.374 . S
C359 C360 1.390 . S
C359 H386 0.930 . S
C360 C359 1.390 . S
C360 C361 1.391 . S
C360 H387 0.930 . S
C361 C357 1.387 . S
C361 C360 1.391 . S
C362 Tb352 2.825 . S
C362 C356 1.507 . S
C362 O375 1.238 . S
C362 O376 1.247 . S
O363 Tb352 2.347 . S
O363 C367 1.259 . S
O364 Eu353 2.418 . S
O364 C367 1.265 . S
O365 Eu353 2.384 . S
O365 C374 1.255 . S
O366 Tb352 2.366 . S
O366 C374 1.265 . S
C367 O363 1.259 . S
C367 O364 1.265 . S
O368 Eu353 2.479 . S
O368 C383 1.238 . S
O369 Eu353 2.471 . S
O369 C383 1.247 . S
O370 Eu353 2.347 . S
O370 C354 1.259 . S
O371 Tb352 2.418 . S
O371 C354 1.265 . S
O372 Tb352 2.384 . S
O372 C355 1.255 . S
O373 Eu353 2.366 . S
O373 C355 1.265 . S
C374 O365 1.255 . S
C374 O366 1.265 . S
O375 Tb352 2.479 . S
O375 C362 1.238 . S
O376 Tb352 2.471 . S
O376 C362 1.247 . S
C377 C380 1.380 . S
C377 C381 1.374 . S
C377 C383 1.507 . S
C378 C379 1.387 . S
C378 C382 1.391 . S
C379 C378 1.387 . S
C379 C380 1.384 . S
C379 H388 0.930 . S
C380 C377 1.380 . S
C380 C379 1.384 . S
C380 H389 0.931 . S
C381 C377 1.374 . S
C381 C382 1.390 . S
C381 H390 0.930 . S
C382 C378 1.391 . S
C382 C381 1.390 . S
C382 H391 0.930 . S
C383 Eu353 2.825 . S
C383 O368 1.238 . S
C383 O369 1.247 . S
C383 C377 1.507 . S
H384 C357 0.930 . S
H385 C358 0.931 . S
H386 C359 0.930 . S
H387 C360 0.930 . S
H388 C379 0.930 . S
H389 C380 0.931 . S
H390 C381 0.930 . S
H391 C382 0.930 . S
Tb392 C402 2.825 1_545 S
Tb392 O403 2.347 . S
Tb392 O406 2.366 . S
Tb392 O411 2.418 . S
Tb392 O412 2.384 . S
Tb392 O415 2.479 1_545 S
Tb392 O416 2.471 1_545 S
Eu393 O404 2.418 . S
Eu393 O405 2.384 . S
Eu393 O408 2.479 . S
Eu393 O409 2.471 . S
Eu393 O410 2.347 . S
Eu393 O413 2.366 . S
Eu393 C423 2.825 . S
C394 O410 1.259 . S
C394 O411 1.265 . S
C395 O412 1.255 . S
C395 O413 1.265 . S
C396 C398 1.380 . S
C396 C399 1.374 . S
C396 C402 1.507 . S
C397 C398 1.384 . S
C397 C401 1.387 . S
C397 H424 0.930 . S
C398 C396 1.380 . S
C398 C397 1.384 . S
C398 H425 0.931 . S
C399 C396 1.374 . S
C399 C400 1.390 . S
C399 H426 0.930 . S
C400 C399 1.390 . S
C400 C401 1.391 . S
C400 H427 0.930 . S
C401 C397 1.387 . S
C401 C400 1.391 . S
C402 Tb392 2.825 1_565 S
C402 C396 1.507 . S
C402 O415 1.238 . S
C402 O416 1.247 . S
O403 Tb392 2.347 . S
O403 C407 1.259 . S
O404 Eu393 2.418 . S
O404 C407 1.265 . S
O405 Eu393 2.384 . S
O405 C414 1.255 . S
O406 Tb392 2.366 . S
O406 C414 1.265 . S
C407 O403 1.259 . S
C407 O404 1.265 . S
O408 Eu393 2.479 . S
O408 C423 1.238 . S
O409 Eu393 2.471 . S
O409 C423 1.247 . S
O410 Eu393 2.347 . S
O410 C394 1.259 . S
O411 Tb392 2.418 . S
O411 C394 1.265 . S
O412 Tb392 2.384 . S
O412 C395 1.255 . S
O413 Eu393 2.366 . S
O413 C395 1.265 . S
C414 O405 1.255 . S
C414 O406 1.265 . S
O415 Tb392 2.479 1_565 S
O415 C402 1.238 . S
O416 Tb392 2.471 1_565 S
O416 C402 1.247 . S
C417 C420 1.380 . S
C417 C421 1.374 . S
C417 C423 1.507 . S
C418 C419 1.387 . S
C418 C422 1.391 . S
C419 C418 1.387 . S
C419 C420 1.384 . S
C419 H428 0.930 . S
C420 C417 1.380 . S
C420 C419 1.384 . S
C420 H429 0.931 . S
C421 C417 1.374 . S
C421 C422 1.390 . S
C421 H430 0.930 . S
C422 C418 1.391 . S
C422 C421 1.390 . S
C422 H431 0.930 . S
C423 Eu393 2.825 . S
C423 O408 1.238 . S
C423 O409 1.247 . S
C423 C417 1.507 . S
H424 C397 0.930 . S
H425 C398 0.931 . S
H426 C399 0.930 . S
H427 C400 0.930 . S
H428 C419 0.930 . S
H429 C420 0.931 . S
H430 C421 0.930 . S
H431 C422 0.930 . S
Tb432 C442 2.825 . S
Tb432 O443 2.347 . S
Tb432 O446 2.366 . S
Tb432 O451 2.418 . S
Tb432 O452 2.384 . S
Tb432 O455 2.479 . S
Tb432 O456 2.471 . S
Eu433 O444 2.418 . S
Eu433 O445 2.384 . S
Eu433 O448 2.479 . S
Eu433 O449 2.471 . S
Eu433 O450 2.347 . S
Eu433 O453 2.366 . S
Eu433 C463 2.825 . S
C434 O450 1.259 . S
C434 O451 1.265 . S
C435 O452 1.255 . S
C435 O453 1.265 . S
C436 C438 1.380 . S
C436 C439 1.374 . S
C436 C442 1.507 . S
C437 C438 1.384 . S
C437 C441 1.387 . S
C437 H464 0.930 . S
C438 C436 1.380 . S
C438 C437 1.384 . S
C438 H465 0.931 . S
C439 C436 1.374 . S
C439 C440 1.390 . S
C439 H466 0.930 . S
C440 C439 1.390 . S
C440 C441 1.391 . S
C440 H467 0.930 . S
C441 C437 1.387 . S
C441 C440 1.391 . S
C442 Tb432 2.825 . S
C442 C436 1.507 . S
C442 O455 1.238 . S
C442 O456 1.247 . S
O443 Tb432 2.347 . S
O443 C447 1.259 . S
O444 Eu433 2.418 . S
O444 C447 1.265 . S
O445 Eu433 2.384 . S
O445 C454 1.255 . S
O446 Tb432 2.366 . S
O446 C454 1.265 . S
C447 O443 1.259 . S
C447 O444 1.265 . S
O448 Eu433 2.479 . S
O448 C463 1.238 . S
O449 Eu433 2.471 . S
O449 C463 1.247 . S
O450 Eu433 2.347 . S
O450 C434 1.259 . S
O451 Tb432 2.418 . S
O451 C434 1.265 . S
O452 Tb432 2.384 . S
O452 C435 1.255 . S
O453 Eu433 2.366 . S
O453 C435 1.265 . S
C454 O445 1.255 . S
C454 O446 1.265 . S
O455 Tb432 2.479 . S
O455 C442 1.238 . S
O456 Tb432 2.471 . S
O456 C442 1.247 . S
C457 C460 1.380 . S
C457 C461 1.374 . S
C457 C463 1.507 . S
C458 C459 1.387 . S
C458 C462 1.391 . S
C459 C458 1.387 . S
C459 C460 1.384 . S
C459 H468 0.930 . S
C460 C457 1.380 . S
C460 C459 1.384 . S
C460 H469 0.931 . S
C461 C457 1.374 . S
C461 C462 1.390 . S
C461 H470 0.930 . S
C462 C458 1.391 . S
C462 C461 1.390 . S
C462 H471 0.930 . S
C463 Eu433 2.825 . S
C463 O448 1.238 . S
C463 O449 1.247 . S
C463 C457 1.507 . S
H464 C437 0.930 . S
H465 C438 0.931 . S
H466 C439 0.930 . S
H467 C440 0.930 . S
H468 C459 0.930 . S
H469 C460 0.931 . S
H470 C461 0.930 . S
H471 C462 0.930 . S
Tb472 C482 2.825 . S
Tb472 O483 2.347 . S
Tb472 O486 2.366 . S
Tb472 O491 2.418 . S
Tb472 O492 2.384 1_545 S
Tb472 O495 2.479 . S
Tb472 O496 2.471 . S
Eu473 O484 2.418 . S
Eu473 O485 2.384 . S
Eu473 O488 2.479 . S
Eu473 O489 2.471 . S
Eu473 O490 2.347 . S
Eu473 O493 2.366 . S
Eu473 C503 2.825 . S
C474 O490 1.259 . S
C474 O491 1.265 . S
C475 O492 1.255 . S
C475 O493 1.265 1_565 S
C476 C478 1.380 . S
C476 C479 1.374 1_455 S
C476 C482 1.507 . S
C477 C478 1.384 . S
C477 C481 1.387 1_455 S
C477 H504 0.930 . S
C478 C476 1.380 . S
C478 C477 1.384 . S
C478 H505 0.931 . S
C479 C476 1.374 1_655 S
C479 C480 1.390 . S
C479 H506 0.930 . S
C480 C479 1.390 . S
C480 C481 1.391 . S
C480 H507 0.930 . S
C481 C477 1.387 1_655 S
C481 C480 1.391 . S
C482 Tb472 2.825 . S
C482 C476 1.507 . S
C482 O495 1.238 . S
C482 O496 1.247 . S
O483 Tb472 2.347 . S
O483 C487 1.259 . S
O484 Eu473 2.418 . S
O484 C487 1.265 . S
O485 Eu473 2.384 . S
O485 C494 1.255 . S
O486 Tb472 2.366 . S
O486 C494 1.265 . S
C487 O483 1.259 . S
C487 O484 1.265 . S
O488 Eu473 2.479 . S
O488 C503 1.238 . S
O489 Eu473 2.471 . S
O489 C503 1.247 . S
O490 Eu473 2.347 . S
O490 C474 1.259 . S
O491 Tb472 2.418 . S
O491 C474 1.265 . S
O492 Tb472 2.384 1_565 S
O492 C475 1.255 . S
O493 Eu473 2.366 . S
O493 C475 1.265 1_545 S
C494 O485 1.255 . S
C494 O486 1.265 . S
O495 Tb472 2.479 . S
O495 C482 1.238 . S
O496 Tb472 2.471 . S
O496 C482 1.247 . S
C497 C500 1.380 . S
C497 C501 1.374 . S
C497 C503 1.507 . S
C498 C499 1.387 . S
C498 C502 1.391 . S
C499 C498 1.387 . S
C499 C500 1.384 . S
C499 H508 0.930 . S
C500 C497 1.380 . S
C500 C499 1.384 . S
C500 H509 0.931 . S
C501 C497 1.374 . S
C501 C502 1.390 . S
C501 H510 0.930 . S
C502 C498 1.391 . S
C502 C501 1.390 . S
C502 H511 0.930 . S
C503 Eu473 2.825 . S
C503 O488 1.238 . S
C503 O489 1.247 . S
C503 C497 1.507 . S
H504 C477 0.930 . S
H505 C478 0.931 . S
H506 C479 0.930 . S
H507 C480 0.930 . S
H508 C499 0.930 . S
H509 C500 0.931 . S
H510 C501 0.930 . S
H511 C502 0.930 . S
Tb512 C522 2.825 . S
Tb512 O523 2.347 . S
Tb512 O526 2.366 . S
Tb512 O531 2.418 . S
Tb512 O532 2.384 . S
Tb512 O535 2.479 . S
Tb512 O536 2.471 . S
Eu513 O524 2.418 . S
Eu513 O525 2.384 . S
Eu513 O528 2.479 . S
Eu513 O529 2.471 . S
Eu513 O530 2.347 . S
Eu513 O533 2.366 . S
Eu513 C543 2.825 . S
C514 O530 1.259 . S
C514 O531 1.265 . S
C515 O532 1.255 . S
C515 O533 1.265 . S
C516 C518 1.380 . S
C516 C519 1.374 . S
C516 C522 1.507 . S
C517 C518 1.384 . S
C517 C521 1.387 . S
C517 H544 0.930 . S
C518 C516 1.380 . S
C518 C517 1.384 . S
C518 H545 0.931 . S
C519 C516 1.374 . S
C519 C520 1.390 . S
C519 H546 0.930 . S
C520 C519 1.390 . S
C520 C521 1.391 . S
C520 H547 0.930 . S
C521 C517 1.387 . S
C521 C520 1.391 . S
C522 Tb512 2.825 . S
C522 C516 1.507 . S
C522 O535 1.238 . S
C522 O536 1.247 . S
O523 Tb512 2.347 . S
O523 C527 1.259 . S
O524 Eu513 2.418 . S
O524 C527 1.265 . S
O525 Eu513 2.384 . S
O525 C534 1.255 . S
O526 Tb512 2.366 . S
O526 C534 1.265 . S
C527 O523 1.259 . S
C527 O524 1.265 . S
O528 Eu513 2.479 . S
O528 C543 1.238 . S
O529 Eu513 2.471 . S
O529 C543 1.247 . S
O530 Eu513 2.347 . S
O530 C514 1.259 . S
O531 Tb512 2.418 . S
O531 C514 1.265 . S
O532 Tb512 2.384 . S
O532 C515 1.255 . S
O533 Eu513 2.366 . S
O533 C515 1.265 . S
C534 O525 1.255 . S
C534 O526 1.265 . S
O535 Tb512 2.479 . S
O535 C522 1.238 . S
O536 Tb512 2.471 . S
O536 C522 1.247 . S
C537 C540 1.380 . S
C537 C541 1.374 . S
C537 C543 1.507 . S
C538 C539 1.387 . S
C538 C542 1.391 . S
C539 C538 1.387 . S
C539 C540 1.384 . S
C539 H548 0.930 . S
C540 C537 1.380 . S
C540 C539 1.384 . S
C540 H549 0.931 . S
C541 C537 1.374 . S
C541 C542 1.390 . S
C541 H550 0.930 . S
C542 C538 1.391 . S
C542 C541 1.390 . S
C542 H551 0.930 . S
C543 Eu513 2.825 . S
C543 O528 1.238 . S
C543 O529 1.247 . S
C543 C537 1.507 . S
H544 C517 0.930 . S
H545 C518 0.931 . S
H546 C519 0.930 . S
H547 C520 0.930 . S
H548 C539 0.930 . S
H549 C540 0.931 . S
H550 C541 0.930 . S
H551 C542 0.930 . S
Tb552 C562 2.825 . S
Tb552 O563 2.347 . S
Tb552 O566 2.366 . S
Tb552 O571 2.418 1_545 S
Tb552 O572 2.384 . S
Tb552 O575 2.479 . S
Tb552 O576 2.471 . S
Eu553 O564 2.418 1_556 S
Eu553 O565 2.384 1_556 S
Eu553 O568 2.479 . S
Eu553 O569 2.471 . S
Eu553 O570 2.347 1_556 S
Eu553 O573 2.366 1_556 S
Eu553 C583 2.825 . S
C554 O570 1.259 1_565 S
C554 O571 1.265 . S
C555 O572 1.255 . S
C555 O573 1.265 . S
C556 C558 1.380 1_545 S
C556 C559 1.374 . S
C556 C562 1.507 . S
C557 C558 1.384 . S
C557 C561 1.387 1_565 S
C557 H584 0.930 . S
C558 C556 1.380 1_565 S
C558 C557 1.384 . S
C558 H585 0.931 . S
C559 C556 1.374 . S
C559 C560 1.390 . S
C559 H586 0.930 . S
C560 C559 1.390 . S
C560 C561 1.391 . S
C560 H587 0.930 . S
C561 C557 1.387 1_545 S
C561 C560 1.391 . S
C562 Tb552 2.825 . S
C562 C556 1.507 . S
C562 O575 1.238 . S
C562 O576 1.247 . S
O563 Tb552 2.347 . S
O563 C567 1.259 . S
O564 Eu553 2.418 1_554 S
O564 C567 1.265 . S
O565 Eu553 2.384 1_554 S
O565 C574 1.255 . S
O566 Tb552 2.366 . S
O566 C574 1.265 . S
C567 O563 1.259 . S
C567 O564 1.265 . S
O568 Eu553 2.479 . S
O568 C583 1.238 . S
O569 Eu553 2.471 . S
O569 C583 1.247 . S
O570 Eu553 2.347 1_554 S
O570 C554 1.259 1_545 S
O571 Tb552 2.418 1_565 S
O571 C554 1.265 . S
O572 Tb552 2.384 . S
O572 C555 1.255 . S
O573 Eu553 2.366 1_554 S
O573 C555 1.265 . S
C574 O565 1.255 . S
C574 O566 1.265 . S
O575 Tb552 2.479 . S
O575 C562 1.238 . S
O576 Tb552 2.471 . S
O576 C562 1.247 . S
C577 C580 1.380 . S
C577 C581 1.374 . S
C577 C583 1.507 . S
C578 C579 1.387 . S
C578 C582 1.391 . S
C579 C578 1.387 . S
C579 C580 1.384 . S
C579 H588 0.930 . S
C580 C577 1.380 . S
C580 C579 1.384 . S
C580 H589 0.931 . S
C581 C577 1.374 . S
C581 C582 1.390 . S
C581 H590 0.930 . S
C582 C578 1.391 . S
C582 C581 1.390 . S
C582 H591 0.930 . S
C583 Eu553 2.825 . S
C583 O568 1.238 . S
C583 O569 1.247 . S
C583 C577 1.507 . S
H584 C557 0.930 . S
H585 C558 0.931 . S
H586 C559 0.930 . S
H587 C560 0.930 . S
H588 C579 0.930 . S
H589 C580 0.931 . S
H590 C581 0.930 . S
H591 C582 0.930 . S
Tb592 C602 2.825 . S
Tb592 O603 2.347 . S
Tb592 O606 2.366 . S
Tb592 O611 2.418 . S
Tb592 O612 2.384 . S
Tb592 O615 2.479 . S
Tb592 O616 2.471 . S
Eu593 O604 2.418 . S
Eu593 O605 2.384 . S
Eu593 O608 2.479 . S
Eu593 O609 2.471 . S
Eu593 O610 2.347 . S
Eu593 O613 2.366 . S
Eu593 C623 2.825 . S
C594 O610 1.259 . S
C594 O611 1.265 . S
C595 O612 1.255 . S
C595 O613 1.265 . S
C596 C598 1.380 . S
C596 C599 1.374 . S
C596 C602 1.507 . S
C597 C598 1.384 . S
C597 C601 1.387 . S
C597 H624 0.930 . S
C598 C596 1.380 . S
C598 C597 1.384 . S
C598 H625 0.931 . S
C599 C596 1.374 . S
C599 C600 1.390 . S
C599 H626 0.930 . S
C600 C599 1.390 . S
C600 C601 1.391 . S
C600 H627 0.930 . S
C601 C597 1.387 . S
C601 C600 1.391 . S
C602 Tb592 2.825 . S
C602 C596 1.507 . S
C602 O615 1.238 . S
C602 O616 1.247 . S
O603 Tb592 2.347 . S
O603 C607 1.259 . S
O604 Eu593 2.418 . S
O604 C607 1.265 . S
O605 Eu593 2.384 . S
O605 C614 1.255 . S
O606 Tb592 2.366 . S
O606 C614 1.265 . S
C607 O603 1.259 . S
C607 O604 1.265 . S
O608 Eu593 2.479 . S
O608 C623 1.238 . S
O609 Eu593 2.471 . S
O609 C623 1.247 . S
O610 Eu593 2.347 . S
O610 C594 1.259 . S
O611 Tb592 2.418 . S
O611 C594 1.265 . S
O612 Tb592 2.384 . S
O612 C595 1.255 . S
O613 Eu593 2.366 . S
O613 C595 1.265 . S
C614 O605 1.255 . S
C614 O606 1.265 . S
O615 Tb592 2.479 . S
O615 C602 1.238 . S
O616 Tb592 2.471 . S
O616 C602 1.247 . S
C617 C620 1.380 . S
C617 C621 1.374 . S
C617 C623 1.507 . S
C618 C619 1.387 . S
C618 C622 1.391 . S
C619 C618 1.387 . S
C619 C620 1.384 . S
C619 H628 0.930 . S
C620 C617 1.380 . S
C620 C619 1.384 . S
C620 H629 0.931 . S
C621 C617 1.374 . S
C621 C622 1.390 . S
C621 H630 0.930 . S
C622 C618 1.391 . S
C622 C621 1.390 . S
C622 H631 0.930 . S
C623 Eu593 2.825 . S
C623 O608 1.238 . S
C623 O609 1.247 . S
C623 C617 1.507 . S
H624 C597 0.930 . S
H625 C598 0.931 . S
H626 C599 0.930 . S
H627 C600 0.930 . S
H628 C619 0.930 . S
H629 C620 0.931 . S
H630 C621 0.930 . S
H631 C622 0.930 . S
Tb632 C642 2.825 . S
Tb632 O643 2.347 1_556 S
Tb632 O646 2.366 . S
Tb632 O651 2.416 . S
Tb632 O652 2.384 1_556 S
Tb632 O655 2.479 . S
Tb632 O656 2.471 . S
Eu633 O644 2.418 . S
Eu633 O645 2.384 . S
Eu633 O648 2.479 . S
Eu633 O649 2.471 . S
Eu633 O650 2.347 . S
Eu633 O653 2.366 . S
Eu633 C663 2.825 . S
C634 O650 1.259 . S
C634 O651 1.246 1_554 S
C635 O652 1.255 . S
C635 O653 1.265 . S
C636 C638 1.380 . S
C636 C639 1.374 . S
C636 C642 1.507 . S
C637 C638 1.384 . S
C637 C641 1.387 . S
C637 H664 0.930 . S
C638 C636 1.380 . S
C638 C637 1.384 . S
C638 H665 0.931 . S
C639 C636 1.374 . S
C639 C640 1.390 . S
C639 H666 0.930 . S
C640 C639 1.390 . S
C640 C641 1.391 . S
C640 H667 0.930 . S
C641 C637 1.387 . S
C641 C640 1.391 . S
C642 Tb632 2.825 . S
C642 C636 1.507 . S
C642 O655 1.238 . S
C642 O656 1.247 . S
O643 Tb632 2.347 1_554 S
O643 C647 1.259 . S
O644 Eu633 2.418 . S
O644 C647 1.265 . S
O645 Eu633 2.384 . S
O645 C654 1.255 . S
O646 Tb632 2.366 . S
O646 C654 1.265 1_556 S
C647 O643 1.259 . S
C647 O644 1.265 . S
O648 Eu633 2.479 . S
O648 C663 1.238 . S
O649 Eu633 2.471 . S
O649 C663 1.247 . S
O650 Eu633 2.347 . S
O650 C634 1.259 . S
O651 Tb632 2.416 . S
O651 C634 1.246 1_556 S
O652 Tb632 2.384 1_554 S
O652 C635 1.255 . S
O653 Eu633 2.366 . S
O653 C635 1.265 . S
C654 O645 1.255 . S
C654 O646 1.265 1_554 S
O655 Tb632 2.479 . S
O655 C642 1.238 . S
O656 Tb632 2.471 . S
O656 C642 1.247 . S
C657 C660 1.380 . S
C657 C661 1.374 . S
C657 C663 1.507 . S
C658 C659 1.387 . S
C658 C662 1.391 . S
C659 C658 1.387 . S
C659 C660 1.384 . S
C659 H668 0.930 . S
C660 C657 1.380 . S
C660 C659 1.384 . S
C660 H669 0.931 . S
C661 C657 1.374 . S
C661 C662 1.390 . S
C661 H670 0.930 . S
C662 C658 1.391 . S
C662 C661 1.390 . S
C662 H671 0.930 . S
C663 Eu633 2.825 . S
C663 O648 1.238 . S
C663 O649 1.247 . S
C663 C657 1.507 . S
H664 C637 0.930 . S
H665 C638 0.931 . S
H666 C639 0.930 . S
H667 C640 0.930 . S
H668 C659 0.930 . S
H669 C660 0.931 . S
H670 C661 0.930 . S
H671 C662 0.930 . S
Tb672 C682 2.825 . S
Tb672 O683 2.347 . S
Tb672 O686 2.366 . S
Tb672 O691 2.418 . S
Tb672 O692 2.384 . S
Tb672 O695 2.479 . S
Tb672 O696 2.471 . S
Eu673 O684 2.418 . S
Eu673 O685 2.384 . S
Eu673 O688 2.479 . S
Eu673 O689 2.471 . S
Eu673 O690 2.347 . S
Eu673 O693 2.366 . S
Eu673 C703 2.825 . S
C674 O690 1.259 . S
C674 O691 1.265 . S
C675 O692 1.255 . S
C675 O693 1.265 . S
C676 C678 1.380 . S
C676 C679 1.374 . S
C676 C682 1.507 . S
C677 C678 1.384 . S
C677 C681 1.387 . S
C677 H704 0.930 . S
C678 C676 1.380 . S
C678 C677 1.384 . S
C678 H705 0.931 . S
C679 C676 1.374 . S
C679 C680 1.390 . S
C679 H706 0.930 . S
C680 C679 1.390 . S
C680 C681 1.391 . S
C680 H707 0.930 . S
C681 C677 1.387 . S
C681 C680 1.391 . S
C682 Tb672 2.825 . S
C682 C676 1.507 . S
C682 O695 1.238 . S
C682 O696 1.247 . S
O683 Tb672 2.347 . S
O683 C687 1.259 . S
O684 Eu673 2.418 . S
O684 C687 1.265 . S
O685 Eu673 2.384 . S
O685 C694 1.255 . S
O686 Tb672 2.366 . S
O686 C694 1.265 . S
C687 O683 1.259 . S
C687 O684 1.265 . S
O688 Eu673 2.479 . S
O688 C703 1.238 . S
O689 Eu673 2.471 . S
O689 C703 1.247 . S
O690 Eu673 2.347 . S
O690 C674 1.259 . S
O691 Tb672 2.418 . S
O691 C674 1.265 . S
O692 Tb672 2.384 . S
O692 C675 1.255 . S
O693 Eu673 2.366 . S
O693 C675 1.265 . S
C694 O685 1.255 . S
C694 O686 1.265 . S
O695 Tb672 2.479 . S
O695 C682 1.238 . S
O696 Tb672 2.471 . S
O696 C682 1.247 . S
C697 C700 1.380 . S
C697 C701 1.374 . S
C697 C703 1.507 . S
C698 C699 1.387 . S
C698 C702 1.391 . S
C699 C698 1.387 . S
C699 C700 1.384 . S
C699 H708 0.930 . S
C700 C697 1.380 . S
C700 C699 1.384 . S
C700 H709 0.931 . S
C701 C697 1.374 . S
C701 C702 1.390 . S
C701 H710 0.930 . S
C702 C698 1.391 . S
C702 C701 1.390 . S
C702 H711 0.930 . S
C703 Eu673 2.825 . S
C703 O688 1.238 . S
C703 O689 1.247 . S
C703 C697 1.507 . S
H704 C677 0.930 . S
H705 C678 0.931 . S
H706 C679 0.930 . S
H707 C680 0.930 . S
H708 C699 0.930 . S
H709 C700 0.931 . S
H710 C701 0.930 . S
H711 C702 0.930 . S
Tb712 C722 2.825 . S
Tb712 O723 2.347 . S
Tb712 O726 2.366 . S
Tb712 O731 2.418 . S
Tb712 O732 2.384 . S
Tb712 O735 2.479 . S
Tb712 O736 2.471 . S
Eu713 O724 2.418 . S
Eu713 O725 2.384 . S
Eu713 O728 2.479 . S
Eu713 O729 2.471 . S
Eu713 O730 2.347 . S
Eu713 O733 2.366 . S
Eu713 C743 2.825 . S
C714 O730 1.259 . S
C714 O731 1.265 . S
C715 O732 1.255 . S
C715 O733 1.265 . S
C716 C718 1.380 . S
C716 C719 1.374 . S
C716 C722 1.507 . S
C717 C718 1.384 . S
C717 C721 1.387 . S
C717 H744 0.930 . S
C718 C716 1.380 . S
C718 C717 1.384 . S
C718 H745 0.931 . S
C719 C716 1.374 . S
C719 C720 1.390 . S
C719 H746 0.930 . S
C720 C719 1.390 . S
C720 C721 1.391 . S
C720 H747 0.930 . S
C721 C717 1.387 . S
C721 C720 1.391 . S
C722 Tb712 2.825 . S
C722 C716 1.507 . S
C722 O735 1.238 . S
C722 O736 1.247 . S
O723 Tb712 2.347 . S
O723 C727 1.259 . S
O724 Eu713 2.418 . S
O724 C727 1.265 . S
O725 Eu713 2.384 . S
O725 C734 1.255 . S
O726 Tb712 2.366 . S
O726 C734 1.265 . S
C727 O723 1.259 . S
C727 O724 1.265 . S
O728 Eu713 2.479 . S
O728 C743 1.238 . S
O729 Eu713 2.471 . S
O729 C743 1.247 . S
O730 Eu713 2.347 . S
O730 C714 1.259 . S
O731 Tb712 2.418 . S
O731 C714 1.265 . S
O732 Tb712 2.384 . S
O732 C715 1.255 . S
O733 Eu713 2.366 . S
O733 C715 1.265 . S
C734 O725 1.255 . S
C734 O726 1.265 . S
O735 Tb712 2.479 . S
O735 C722 1.238 . S
O736 Tb712 2.471 . S
O736 C722 1.247 . S
C737 C740 1.380 . S
C737 C741 1.374 . S
C737 C743 1.507 . S
C738 C739 1.387 . S
C738 C742 1.391 . S
C739 C738 1.387 . S
C739 C740 1.384 . S
C739 H748 0.930 . S
C740 C737 1.380 . S
C740 C739 1.384 . S
C740 H749 0.931 . S
C741 C737 1.374 . S
C741 C742 1.390 . S
C741 H750 0.930 . S
C742 C738 1.391 . S
C742 C741 1.390 . S
C742 H751 0.930 . S
C743 Eu713 2.825 . S
C743 O728 1.238 . S
C743 O729 1.247 . S
C743 C737 1.507 . S
H744 C717 0.930 . S
H745 C718 0.931 . S
H746 C719 0.930 . S
H747 C720 0.930 . S
H748 C739 0.930 . S
H749 C740 0.931 . S
H750 C741 0.930 . S
H751 C742 0.930 . S
Tb752 C762 2.825 . S
Tb752 O763 2.347 . S
Tb752 O766 2.366 . S
Tb752 O771 2.418 . S
Tb752 O772 2.384 . S
Tb752 O775 2.479 . S
Tb752 O776 2.471 . S
Eu753 O764 2.418 . S
Eu753 O765 2.384 . S
Eu753 O768 2.479 . S
Eu753 O769 2.471 . S
Eu753 O770 2.347 . S
Eu753 O773 2.366 . S
Eu753 C783 2.825 . S
C754 O770 1.259 . S
C754 O771 1.265 . S
C755 O772 1.255 . S
C755 O773 1.265 . S
C756 C758 1.380 . S
C756 C759 1.374 . S
C756 C762 1.507 . S
C757 C758 1.384 . S
C757 C761 1.387 . S
C757 H784 0.930 . S
C758 C756 1.380 . S
C758 C757 1.384 . S
C758 H785 0.931 . S
C759 C756 1.374 . S
C759 C760 1.390 . S
C759 H786 0.930 . S
C760 C759 1.390 . S
C760 C761 1.391 . S
C760 H787 0.930 . S
C761 C757 1.387 . S
C761 C760 1.391 . S
C762 Tb752 2.825 . S
C762 C756 1.507 . S
C762 O775 1.238 . S
C762 O776 1.247 . S
O763 Tb752 2.347 . S
O763 C767 1.259 . S
O764 Eu753 2.418 . S
O764 C767 1.265 . S
O765 Eu753 2.384 . S
O765 C774 1.255 . S
O766 Tb752 2.366 . S
O766 C774 1.265 . S
C767 O763 1.259 . S
C767 O764 1.265 . S
O768 Eu753 2.479 . S
O768 C783 1.238 . S
O769 Eu753 2.471 . S
O769 C783 1.247 . S
O770 Eu753 2.347 . S
O770 C754 1.259 . S
O771 Tb752 2.418 . S
O771 C754 1.265 . S
O772 Tb752 2.384 . S
O772 C755 1.255 . S
O773 Eu753 2.366 . S
O773 C755 1.265 . S
C774 O765 1.255 . S
C774 O766 1.265 . S
O775 Tb752 2.479 . S
O775 C762 1.238 . S
O776 Tb752 2.471 . S
O776 C762 1.247 . S
C777 C780 1.380 . S
C777 C781 1.374 . S
C777 C783 1.507 . S
C778 C779 1.387 . S
C778 C782 1.391 . S
C779 C778 1.387 . S
C779 C780 1.384 . S
C779 H788 0.930 . S
C780 C777 1.380 . S
C780 C779 1.384 . S
C780 H789 0.931 . S
C781 C777 1.374 . S
C781 C782 1.390 . S
C781 H790 0.930 . S
C782 C778 1.391 . S
C782 C781 1.390 . S
C782 H791 0.930 . S
C783 Eu753 2.825 . S
C783 O768 1.238 . S
C783 O769 1.247 . S
C783 C777 1.507 . S
H784 C757 0.930 . S
H785 C758 0.931 . S
H786 C759 0.930 . S
H787 C760 0.930 . S
H788 C779 0.930 . S
H789 C780 0.931 . S
H790 C781 0.930 . S
H791 C782 0.930 . S
Tb792 C802 2.825 . S
Tb792 O803 2.347 . S
Tb792 O806 2.366 . S
Tb792 O811 2.418 . S
Tb792 O812 2.384 . S
Tb792 O815 2.479 . S
Tb792 O816 2.471 . S
Eu793 O804 2.418 . S
Eu793 O805 2.384 . S
Eu793 O808 2.479 . S
Eu793 O809 2.471 . S
Eu793 O810 2.347 . S
Eu793 O813 2.366 . S
Eu793 C823 2.825 . S
C794 O810 1.259 . S
C794 O811 1.265 . S
C795 O812 1.255 . S
C795 O813 1.265 . S
C796 C798 1.380 . S
C796 C799 1.374 . S
C796 C802 1.507 . S
C797 C798 1.384 . S
C797 C801 1.387 . S
C797 H824 0.930 . S
C798 C796 1.380 . S
C798 C797 1.384 . S
C798 H825 0.931 . S
C799 C796 1.374 . S
C799 C800 1.390 . S
C799 H826 0.930 . S
C800 C799 1.390 . S
C800 C801 1.391 . S
C800 H827 0.930 . S
C801 C797 1.387 . S
C801 C800 1.391 . S
C802 Tb792 2.825 . S
C802 C796 1.507 . S
C802 O815 1.238 . S
C802 O816 1.247 . S
O803 Tb792 2.347 . S
O803 C807 1.259 . S
O804 Eu793 2.418 . S
O804 C807 1.265 . S
O805 Eu793 2.384 . S
O805 C814 1.255 . S
O806 Tb792 2.366 . S
O806 C814 1.265 . S
C807 O803 1.259 . S
C807 O804 1.265 . S
O808 Eu793 2.479 . S
O808 C823 1.238 . S
O809 Eu793 2.471 . S
O809 C823 1.247 . S
O810 Eu793 2.347 . S
O810 C794 1.259 . S
O811 Tb792 2.418 . S
O811 C794 1.265 . S
O812 Tb792 2.384 . S
O812 C795 1.255 . S
O813 Eu793 2.366 . S
O813 C795 1.265 . S
C814 O805 1.255 . S
C814 O806 1.265 . S
O815 Tb792 2.479 . S
O815 C802 1.238 . S
O816 Tb792 2.471 . S
O816 C802 1.247 . S
C817 C820 1.380 . S
C817 C821 1.374 . S
C817 C823 1.507 . S
C818 C819 1.387 . S
C818 C822 1.391 . S
C819 C818 1.387 . S
C819 C820 1.384 . S
C819 H828 0.930 . S
C820 C817 1.380 . S
C820 C819 1.384 . S
C820 H829 0.931 . S
C821 C817 1.374 . S
C821 C822 1.390 . S
C821 H830 0.930 . S
C822 C818 1.391 . S
C822 C821 1.390 . S
C822 H831 0.930 . S
C823 Eu793 2.825 . S
C823 O808 1.238 . S
C823 O809 1.247 . S
C823 C817 1.507 . S
H824 C797 0.930 . S
H825 C798 0.931 . S
H826 C799 0.930 . S
H827 C800 0.930 . S
H828 C819 0.930 . S
H829 C820 0.931 . S
H830 C821 0.930 . S
H831 C822 0.930 . S
Tb832 C842 2.825 . S
Tb832 O843 2.347 . S
Tb832 O846 2.366 . S
Tb832 O851 2.418 . S
Tb832 O852 2.384 . S
Tb832 O855 2.479 . S
Tb832 O856 2.471 . S
Eu833 O844 2.418 . S
Eu833 O845 2.384 . S
Eu833 O848 2.479 . S
Eu833 O849 2.471 . S
Eu833 O850 2.347 . S
Eu833 O853 2.366 . S
Eu833 C863 2.825 . S
C834 O850 1.259 . S
C834 O851 1.265 . S
C835 O852 1.255 . S
C835 O853 1.265 . S
C836 C838 1.380 . S
C836 C839 1.374 . S
C836 C842 1.507 . S
C837 C838 1.384 . S
C837 C841 1.387 . S
C837 H864 0.930 . S
C838 C836 1.380 . S
C838 C837 1.384 . S
C838 H865 0.931 . S
C839 C836 1.374 . S
C839 C840 1.390 . S
C839 H866 0.930 . S
C840 C839 1.390 . S
C840 C841 1.391 . S
C840 H867 0.930 . S
C841 C837 1.387 . S
C841 C840 1.391 . S
C842 Tb832 2.825 . S
C842 C836 1.507 . S
C842 O855 1.238 . S
C842 O856 1.247 . S
O843 Tb832 2.347 . S
O843 C847 1.259 . S
O844 Eu833 2.418 . S
O844 C847 1.265 . S
O845 Eu833 2.384 . S
O845 C854 1.255 . S
O846 Tb832 2.366 . S
O846 C854 1.265 . S
C847 O843 1.259 . S
C847 O844 1.265 . S
O848 Eu833 2.479 . S
O848 C863 1.238 . S
O849 Eu833 2.471 . S
O849 C863 1.247 . S
O850 Eu833 2.347 . S
O850 C834 1.259 . S
O851 Tb832 2.418 . S
O851 C834 1.265 . S
O852 Tb832 2.384 . S
O852 C835 1.255 . S
O853 Eu833 2.366 . S
O853 C835 1.265 . S
C854 O845 1.255 . S
C854 O846 1.265 . S
O855 Tb832 2.479 . S
O855 C842 1.238 . S
O856 Tb832 2.471 . S
O856 C842 1.247 . S
C857 C860 1.380 . S
C857 C861 1.374 . S
C857 C863 1.507 . S
C858 C859 1.387 . S
C858 C862 1.391 . S
C859 C858 1.387 . S
C859 C860 1.384 . S
C859 H868 0.930 . S
C860 C857 1.380 . S
C860 C859 1.384 . S
C860 H869 0.931 . S
C861 C857 1.374 . S
C861 C862 1.390 . S
C861 H870 0.930 . S
C862 C858 1.391 . S
C862 C861 1.390 . S
C862 H871 0.930 . S
C863 Eu833 2.825 . S
C863 O848 1.238 . S
C863 O849 1.247 . S
C863 C857 1.507 . S
H864 C837 0.930 . S
H865 C838 0.931 . S
H866 C839 0.930 . S
H867 C840 0.930 . S
H868 C859 0.930 . S
H869 C860 0.931 . S
H870 C861 0.930 . S
H871 C862 0.930 . S
Tb872 C882 2.825 . S
Tb872 O883 2.347 . S
Tb872 O886 2.366 . S
Tb872 O891 2.418 . S
Tb872 O892 2.384 . S
Tb872 O895 2.479 . S
Tb872 O896 2.471 . S
Eu873 O884 2.418 . S
Eu873 O885 2.384 . S
Eu873 O888 2.479 . S
Eu873 O889 2.471 . S
Eu873 O890 2.347 . S
Eu873 O893 2.366 . S
Eu873 C903 2.825 . S
C874 O890 1.259 . S
C874 O891 1.265 . S
C875 O892 1.255 . S
C875 O893 1.265 . S
C876 C878 1.380 . S
C876 C879 1.374 . S
C876 C882 1.507 . S
C877 C878 1.384 . S
C877 C881 1.387 . S
C877 H904 0.930 . S
C878 C876 1.380 . S
C878 C877 1.384 . S
C878 H905 0.931 . S
C879 C876 1.374 . S
C879 C880 1.390 . S
C879 H906 0.930 . S
C880 C879 1.390 . S
C880 C881 1.391 . S
C880 H907 0.930 . S
C881 C877 1.387 . S
C881 C880 1.391 . S
C882 Tb872 2.825 . S
C882 C876 1.507 . S
C882 O895 1.238 . S
C882 O896 1.247 . S
O883 Tb872 2.347 . S
O883 C887 1.259 . S
O884 Eu873 2.418 . S
O884 C887 1.265 . S
O885 Eu873 2.384 . S
O885 C894 1.255 . S
O886 Tb872 2.366 . S
O886 C894 1.265 . S
C887 O883 1.259 . S
C887 O884 1.265 . S
O888 Eu873 2.479 . S
O888 C903 1.238 . S
O889 Eu873 2.471 . S
O889 C903 1.247 . S
O890 Eu873 2.347 . S
O890 C874 1.259 . S
O891 Tb872 2.418 . S
O891 C874 1.265 . S
O892 Tb872 2.384 . S
O892 C875 1.255 . S
O893 Eu873 2.366 . S
O893 C875 1.265 . S
C894 O885 1.255 . S
C894 O886 1.265 . S
O895 Tb872 2.479 . S
O895 C882 1.238 . S
O896 Tb872 2.471 . S
O896 C882 1.247 . S
C897 C900 1.380 . S
C897 C901 1.374 . S
C897 C903 1.507 . S
C898 C899 1.387 . S
C898 C902 1.391 . S
C899 C898 1.387 . S
C899 C900 1.384 . S
C899 H908 0.930 . S
C900 C897 1.380 . S
C900 C899 1.384 . S
C900 H909 0.931 . S
C901 C897 1.374 . S
C901 C902 1.390 . S
C901 H910 0.930 . S
C902 C898 1.391 . S
C902 C901 1.390 . S
C902 H911 0.930 . S
C903 Eu873 2.825 . S
C903 O888 1.238 . S
C903 O889 1.247 . S
C903 C897 1.507 . S
H904 C877 0.930 . S
H905 C878 0.931 . S
H906 C879 0.930 . S
H907 C880 0.930 . S
H908 C899 0.930 . S
H909 C900 0.931 . S
H910 C901 0.930 . S
H911 C902 0.930 . S
Tb912 C922 2.811 1_554 S
Tb912 O923 2.347 1_554 S
Tb912 O926 2.366 . S
Tb912 O931 2.418 . S
Tb912 O932 2.384 . S
Tb912 O935 2.479 . S
Tb912 O936 2.471 1_554 S
Eu913 O924 2.418 1_554 S
Eu913 O925 2.384 . S
Eu913 O928 2.479 . S
Eu913 O929 2.471 . S
Eu913 O930 2.347 . S
Eu913 O933 2.366 . S
Eu913 C943 2.825 . S
C914 O930 1.259 . S
C914 O931 1.265 . S
C915 O932 1.255 . S
C915 O933 1.265 . S
C916 C918 1.361 1_556 S
C916 C919 1.374 . S
C916 C922 1.521 . S
C917 C918 1.373 1_556 S
C917 C921 1.387 . S
C917 H944 0.930 . S
C918 C916 1.361 1_554 S
C918 C917 1.373 1_554 S
C918 H945 0.962 . S
C919 C916 1.374 . S
C919 C920 1.390 . S
C919 H946 0.930 . S
C920 C919 1.390 . S
C920 C921 1.391 . S
C920 H947 0.930 . S
C921 C917 1.387 . S
C921 C920 1.391 . S
C922 Tb912 2.811 1_556 S
C922 C916 1.521 . S
C922 O935 1.197 1_556 S
C922 O936 1.274 . S
O923 Tb912 2.347 1_556 S
O923 C927 1.259 . S
O924 Eu913 2.418 1_556 S
O924 C927 1.265 . S
O925 Eu913 2.384 . S
O925 C934 1.255 . S
O926 Tb912 2.366 . S
O926 C934 1.265 . S
C927 O923 1.259 . S
C927 O924 1.265 . S
O928 Eu913 2.479 . S
O928 C943 1.238 . S
O929 Eu913 2.471 . S
O929 C943 1.247 . S
O930 Eu913 2.347 . S
O930 C914 1.259 . S
O931 Tb912 2.418 . S
O931 C914 1.265 . S
O932 Tb912 2.384 . S
O932 C915 1.255 . S
O933 Eu913 2.366 . S
O933 C915 1.265 . S
C934 O925 1.255 . S
C934 O926 1.265 . S
O935 Tb912 2.479 . S
O935 C922 1.197 1_554 S
O936 Tb912 2.471 1_556 S
O936 C922 1.274 . S
C937 C940 1.380 . S
C937 C941 1.374 . S
C937 C943 1.507 . S
C938 C939 1.387 . S
C938 C942 1.391 . S
C939 C938 1.387 . S
C939 C940 1.384 . S
C939 H948 0.930 . S
C940 C937 1.380 . S
C940 C939 1.384 . S
C940 H949 0.931 . S
C941 C937 1.374 . S
C941 C942 1.390 . S
C941 H950 0.930 . S
C942 C938 1.391 . S
C942 C941 1.390 . S
C942 H951 0.930 . S
C943 Eu913 2.825 . S
C943 O928 1.238 . S
C943 O929 1.247 . S
C943 C937 1.507 . S
H944 C917 0.930 . S
H945 C918 0.962 . S
H946 C919 0.930 . S
H947 C920 0.930 . S
H948 C939 0.930 . S
H949 C940 0.931 . S
H950 C941 0.930 . S
H951 C942 0.930 . S
H952 C958 0.930 . S
H953 C962 0.966 . S
H954 C967 0.929 . S
H955 C965 0.929 . S
H956 C960 0.929 1_655 S
H957 C966 0.929 . S
C958 H952 0.930 . S
C958 C959 1.408 . S
C958 C966 1.378 . S
C959 C958 1.408 . S
C959 C967 1.407 1_455 S
C960 H956 0.929 1_455 S
C960 C962 1.354 1_556 S
C960 C964 1.350 . S
C961 C964 1.463 . S
C961 C966 1.350 . S
C961 N969 1.427 1_455 S
C962 H953 0.966 . S
C962 C960 1.354 1_554 S
C962 C963 1.356 1_554 S
C963 C962 1.356 1_556 S
C963 C965 1.433 . S
C964 C960 1.350 . S
C964 C961 1.463 . S
C964 N968 1.427 . S
C965 H955 0.929 . S
C965 C963 1.433 . S
C965 N968 1.384 . S
C966 H957 0.929 . S
C966 C958 1.378 . S
C966 C961 1.350 . S
C967 H954 0.929 . S
C967 C959 1.407 1_655 S
C967 N969 1.384 . S
N968 C964 1.427 . S
N968 C965 1.384 . S
N969 C961 1.427 1_655 S
N969 C967 1.384 . S
H970 C976 0.930 . S
H971 C980 0.930 . S
H972 C985 0.929 . S
H973 C983 0.929 . S
H974 C978 0.929 . S
H975 C984 0.929 . S
C976 H970 0.930 . S
C976 C977 1.367 . S
C976 C984 1.378 . S
C977 C976 1.367 . S
C977 C985 1.433 . S
C978 H974 0.929 . S
C978 C980 1.378 . S
C978 C982 1.350 . S
C979 C982 1.463 . S
C979 C984 1.350 . S
C979 N987 1.427 . S
C980 H971 0.930 . S
C980 C978 1.378 . S
C980 C981 1.367 . S
C981 C980 1.367 . S
C981 C983 1.433 . S
C982 C978 1.350 . S
C982 C979 1.463 . S
C982 N986 1.427 . S
C983 H973 0.929 . S
C983 C981 1.433 . S
C983 N986 1.384 . S
C984 H975 0.929 . S
C984 C976 1.378 . S
C984 C979 1.350 . S
C985 H972 0.929 . S
C985 C977 1.433 . S
C985 N987 1.384 . S
N986 C982 1.427 . S
N986 C983 1.384 . S
N987 C979 1.427 . S
N987 C985 1.384 . S
H988 C994 0.930 . S
H989 C998 0.930 . S
H990 C1003 0.929 . S
H991 C1001 0.929 . S
H992 C996 0.929 . S
H993 C1002 0.929 . S
C994 H988 0.930 . S
C994 C995 1.367 . S
C994 C1002 1.378 . S
C995 C994 1.367 . S
C995 C1003 1.433 . S
C996 H992 0.929 . S
C996 C998 1.378 . S
C996 C1000 1.350 . S
C997 C1000 1.463 . S
C997 C1002 1.350 . S
C997 N1005 1.427 . S
C998 H989 0.930 . S
C998 C996 1.378 . S
C998 C999 1.367 . S
C999 C998 1.367 . S
C999 C1001 1.433 . S
C1000 C996 1.350 . S
C1000 C997 1.463 . S
C1000 N1004 1.427 . S
C1001 H991 0.929 . S
C1001 C999 1.433 . S
C1001 N1004 1.384 . S
C1002 H993 0.929 . S
C1002 C994 1.378 . S
C1002 C997 1.350 . S
C1003 H990 0.929 . S
C1003 C995 1.433 . S
C1003 N1005 1.384 . S
N1004 C1000 1.427 . S
N1004 C1001 1.384 . S
N1005 C997 1.427 . S
N1005 C1003 1.384 . S
H1006 C1012 0.930 . S
H1007 C1016 0.930 . S
H1008 C1021 0.929 . S
H1009 C1019 0.929 . S
H1010 C1014 0.929 . S
H1011 C1020 0.929 . S
C1012 H1006 0.930 . S
C1012 C1013 1.367 . S
C1012 C1020 1.378 . S
C1013 C1012 1.367 . S
C1013 C1021 1.433 . S
C1014 H1010 0.929 . S
C1014 C1016 1.378 . S
C1014 C1018 1.350 . S
C1015 C1018 1.463 . S
C1015 C1020 1.350 . S
C1015 N1023 1.427 . S
C1016 H1007 0.930 . S
C1016 C1014 1.378 . S
C1016 C1017 1.367 . S
C1017 C1016 1.367 . S
C1017 C1019 1.433 . S
C1018 C1014 1.350 . S
C1018 C1015 1.463 . S
C1018 N1022 1.427 . S
C1019 H1009 0.929 . S
C1019 C1017 1.433 . S
C1019 N1022 1.384 . S
C1020 H1011 0.929 . S
C1020 C1012 1.378 . S
C1020 C1015 1.350 . S
C1021 H1008 0.929 . S
C1021 C1013 1.433 . S
C1021 N1023 1.384 . S
N1022 C1018 1.427 . S
N1022 C1019 1.384 . S
N1023 C1015 1.427 . S
N1023 C1021 1.384 . S
H1024 C1030 0.930 . S
H1025 C1034 0.930 . S
H1026 C1039 0.929 . S
H1027 C1037 0.929 . S
H1028 C1032 0.929 . S
H1029 C1038 0.929 . S
C1030 H1024 0.930 . S
C1030 C1031 1.367 . S
C1030 C1038 1.378 . S
C1031 C1030 1.367 . S
C1031 C1039 1.433 . S
C1032 H1028 0.929 . S
C1032 C1034 1.378 . S
C1032 C1036 1.350 . S
C1033 C1036 1.463 . S
C1033 C1038 1.350 . S
C1033 N1041 1.427 . S
C1034 H1025 0.930 . S
C1034 C1032 1.378 . S
C1034 C1035 1.367 . S
C1035 C1034 1.367 . S
C1035 C1037 1.433 . S
C1036 C1032 1.350 . S
C1036 C1033 1.463 . S
C1036 N1040 1.427 . S
C1037 H1027 0.929 . S
C1037 C1035 1.433 . S
C1037 N1040 1.384 . S
C1038 H1029 0.929 . S
C1038 C1030 1.378 . S
C1038 C1033 1.350 . S
C1039 H1026 0.929 . S
C1039 C1031 1.433 . S
C1039 N1041 1.384 . S
N1040 C1036 1.427 . S
N1040 C1037 1.384 . S
N1041 C1033 1.427 . S
N1041 C1039 1.384 . S
H1042 C1048 0.930 . S
H1043 C1052 0.930 . S
H1044 C1057 0.929 . S
H1045 C1055 0.929 . S
H1046 C1050 0.929 . S
H1047 C1056 0.929 . S
C1048 H1042 0.930 . S
C1048 C1049 1.367 . S
C1048 C1056 1.378 . S
C1049 C1048 1.367 . S
C1049 C1057 1.433 . S
C1050 H1046 0.929 . S
C1050 C1052 1.378 . S
C1050 C1054 1.350 . S
C1051 C1054 1.463 . S
C1051 C1056 1.350 . S
C1051 N1059 1.427 . S
C1052 H1043 0.930 . S
C1052 C1050 1.378 . S
C1052 C1053 1.367 . S
C1053 C1052 1.367 . S
C1053 C1055 1.433 . S
C1054 C1050 1.350 . S
C1054 C1051 1.463 . S
C1054 N1058 1.427 . S
C1055 H1045 0.929 . S
C1055 C1053 1.433 . S
C1055 N1058 1.384 . S
C1056 H1047 0.929 . S
C1056 C1048 1.378 . S
C1056 C1051 1.350 . S
C1057 H1044 0.929 . S
C1057 C1049 1.433 . S
C1057 N1059 1.384 . S
N1058 C1054 1.427 . S
N1058 C1055 1.384 . S
N1059 C1051 1.427 . S
N1059 C1057 1.384 . S
H1060 C1066 0.930 . S
H1061 C1070 0.930 . S
H1062 C1075 0.929 . S
H1063 C1073 0.929 . S
H1064 C1068 0.929 . S
H1065 C1074 0.929 . S
C1066 H1060 0.930 . S
C1066 C1067 1.367 . S
C1066 C1074 1.378 . S
C1067 C1066 1.367 . S
C1067 C1075 1.433 . S
C1068 H1064 0.929 . S
C1068 C1070 1.378 . S
C1068 C1072 1.350 . S
C1069 C1072 1.463 . S
C1069 C1074 1.350 . S
C1069 N1077 1.427 . S
C1070 H1061 0.930 . S
C1070 C1068 1.378 . S
C1070 C1071 1.367 . S
C1071 C1070 1.367 . S
C1071 C1073 1.433 . S
C1072 C1068 1.350 . S
C1072 C1069 1.463 . S
C1072 N1076 1.427 . S
C1073 H1063 0.929 . S
C1073 C1071 1.433 . S
C1073 N1076 1.384 . S
C1074 H1065 0.929 . S
C1074 C1066 1.378 . S
C1074 C1069 1.350 . S
C1075 H1062 0.929 . S
C1075 C1067 1.433 . S
C1075 N1077 1.384 . S
N1076 C1072 1.427 . S
N1076 C1073 1.384 . S
N1077 C1069 1.427 . S
N1077 C1075 1.384 . S
H1078 C1084 0.930 . S
H1079 C1088 0.930 . S
H1080 C1093 0.929 . S
H1081 C1091 0.929 . S
H1082 C1086 0.929 . S
H1083 C1092 0.929 . S
C1084 H1078 0.930 . S
C1084 C1085 1.367 . S
C1084 C1092 1.378 . S
C1085 C1084 1.367 . S
C1085 C1093 1.433 . S
C1086 H1082 0.929 . S
C1086 C1088 1.378 . S
C1086 C1090 1.350 . S
C1087 C1090 1.463 . S
C1087 C1092 1.350 . S
C1087 N1095 1.427 . S
C1088 H1079 0.930 . S
C1088 C1086 1.378 . S
C1088 C1089 1.367 . S
C1089 C1088 1.367 . S
C1089 C1091 1.433 . S
C1090 C1086 1.350 . S
C1090 C1087 1.463 . S
C1090 N1094 1.427 . S
C1091 H1081 0.929 . S
C1091 C1089 1.433 . S
C1091 N1094 1.384 . S
C1092 H1083 0.929 . S
C1092 C1084 1.378 . S
C1092 C1087 1.350 . S
C1093 H1080 0.929 . S
C1093 C1085 1.433 . S
C1093 N1095 1.384 . S
N1094 C1090 1.427 . S
N1094 C1091 1.384 . S
N1095 C1087 1.427 . S
N1095 C1093 1.384 . S
H1096 C1102 0.930 . S
H1097 C1106 0.930 . S
H1098 C1111 0.929 . S
H1099 C1109 0.929 . S
H1100 C1104 0.929 . S
H1101 C1110 0.934 . S
C1102 H1096 0.930 . S
C1102 C1103 1.367 1_565 S
C1102 C1110 1.378 1_565 S
C1103 C1102 1.367 1_545 S
C1103 C1111 1.433 . S
C1104 H1100 0.929 . S
C1104 C1106 1.378 . S
C1104 C1108 1.350 . S
C1105 C1108 1.463 . S
C1105 C1110 1.350 . S
C1105 N1113 1.427 . S
C1106 H1097 0.930 . S
C1106 C1104 1.378 . S
C1106 C1107 1.367 1_655 S
C1107 C1106 1.367 1_455 S
C1107 C1109 1.433 . S
C1108 C1104 1.350 . S
C1108 C1105 1.463 . S
C1108 N1112 1.427 1_655 S
C1109 H1099 0.929 . S
C1109 C1107 1.433 . S
C1109 N1112 1.384 . S
C1110 H1101 0.934 . S
C1110 C1102 1.378 1_545 S
C1110 C1105 1.350 . S
C1111 H1098 0.929 . S
C1111 C1103 1.433 . S
C1111 N1113 1.384 . S
N1112 C1108 1.427 1_455 S
N1112 C1109 1.384 . S
N1113 C1105 1.427 . S
N1113 C1111 1.384 . S
H1114 C1120 0.930 . S
H1115 C1124 0.930 . S
H1116 C1129 0.929 . S
H1117 C1127 0.929 . S
H1118 C1122 0.929 . S
H1119 C1128 0.929 . S
C1120 H1114 0.930 . S
C1120 C1121 1.367 . S
C1120 C1128 1.378 . S
C1121 C1120 1.367 . S
C1121 C1129 1.433 . S
C1122 H1118 0.929 . S
C1122 C1124 1.378 . S
C1122 C1126 1.350 . S
C1123 C1126 1.463 . S
C1123 C1128 1.350 . S
C1123 N1131 1.427 . S
C1124 H1115 0.930 . S
C1124 C1122 1.378 . S
C1124 C1125 1.367 . S
C1125 C1124 1.367 . S
C1125 C1127 1.433 . S
C1126 C1122 1.350 . S
C1126 C1123 1.463 . S
C1126 N1130 1.427 . S
C1127 H1117 0.929 . S
C1127 C1125 1.433 . S
C1127 N1130 1.384 . S
C1128 H1119 0.929 . S
C1128 C1120 1.378 . S
C1128 C1123 1.350 . S
C1129 H1116 0.929 . S
C1129 C1121 1.433 . S
C1129 N1131 1.384 . S
N1130 C1126 1.427 . S
N1130 C1127 1.384 . S
N1131 C1123 1.427 . S
N1131 C1129 1.384 . S
H1132 C1138 0.930 . S
H1133 C1142 0.930 1_565 S
H1134 C1147 0.929 . S
H1135 C1145 0.929 . S
H1136 C1140 0.964 . S
H1137 C1146 0.929 . S
C1138 H1132 0.930 . S
C1138 C1139 1.367 1_545 S
C1138 C1146 1.378 . S
C1139 C1138 1.367 1_565 S
C1139 C1147 1.433 . S
C1140 H1136 0.964 . S
C1140 C1142 1.365 1_565 S
C1140 C1144 1.328 1_565 S
C1141 C1144 1.463 . S
C1141 C1146 1.350 . S
C1141 N1149 1.427 1_545 S
C1142 H1133 0.930 1_545 S
C1142 C1140 1.365 1_545 S
C1142 C1143 1.367 . S
C1143 C1142 1.367 . S
C1143 C1145 1.433 . S
C1144 C1140 1.328 1_545 S
C1144 C1141 1.463 . S
C1144 N1148 1.427 . S
C1145 H1135 0.929 . S
C1145 C1143 1.433 . S
C1145 N1148 1.384 . S
C1146 H1137 0.929 . S
C1146 C1138 1.378 . S
C1146 C1141 1.350 . S
C1147 H1134 0.929 . S
C1147 C1139 1.433 . S
C1147 N1149 1.384 . S
N1148 C1144 1.427 . S
N1148 C1145 1.384 . S
N1149 C1141 1.427 1_565 S
N1149 C1147 1.384 . S
H1150 C1156 0.930 . S
H1151 C1160 0.930 . S
H1152 C1165 0.929 . S
H1153 C1163 0.929 . S
H1154 C1158 0.929 . S
H1155 C1164 0.929 . S
C1156 H1150 0.930 . S
C1156 C1157 1.367 . S
C1156 C1164 1.378 . S
C1157 C1156 1.367 . S
C1157 C1165 1.433 . S
C1158 H1154 0.929 . S
C1158 C1160 1.378 . S
C1158 C1162 1.350 . S
C1159 C1162 1.463 . S
C1159 C1164 1.350 . S
C1159 N1167 1.427 . S
C1160 H1151 0.930 . S
C1160 C1158 1.378 . S
C1160 C1161 1.367 . S
C1161 C1160 1.367 . S
C1161 C1163 1.433 . S
C1162 C1158 1.350 . S
C1162 C1159 1.463 . S
C1162 N1166 1.427 . S
C1163 H1153 0.929 . S
C1163 C1161 1.433 . S
C1163 N1166 1.384 . S
C1164 H1155 0.929 . S
C1164 C1156 1.378 . S
C1164 C1159 1.350 . S
C1165 H1152 0.929 . S
C1165 C1157 1.433 . S
C1165 N1167 1.384 . S
N1166 C1162 1.427 . S
N1166 C1163 1.384 . S
N1167 C1159 1.427 . S
N1167 C1165 1.384 . S
H1168 C1174 0.930 . S
H1169 C1178 0.930 . S
H1170 C1183 0.929 . S
H1171 C1181 0.929 . S
H1172 C1176 0.929 . S
H1173 C1182 0.913 1_565 S
C1174 H1168 0.930 . S
C1174 C1175 1.367 1_565 S
C1174 C1182 1.376 1_565 S
C1175 C1174 1.367 1_545 S
C1175 C1183 1.433 . S
C1176 H1172 0.929 . S
C1176 C1178 1.378 . S
C1176 C1180 1.350 . S
C1177 C1180 1.463 . S
C1177 C1182 1.368 . S
C1177 N1185 1.427 . S
C1178 H1169 0.930 . S
C1178 C1176 1.378 . S
C1178 C1179 1.367 . S
C1179 C1178 1.367 . S
C1179 C1181 1.433 1_655 S
C1180 C1176 1.350 . S
C1180 C1177 1.463 . S
C1180 N1184 1.427 . S
C1181 H1171 0.929 . S
C1181 C1179 1.433 1_455 S
C1181 N1184 1.384 1_455 S
C1182 H1173 0.913 1_545 S
C1182 C1174 1.376 1_545 S
C1182 C1177 1.368 . S
C1183 H1170 0.929 . S
C1183 C1175 1.433 . S
C1183 N1185 1.384 . S
N1184 C1180 1.427 . S
N1184 C1181 1.384 1_655 S
N1185 C1177 1.427 . S
N1185 C1183 1.384 . S
H1186 C1192 0.930 . S
H1187 C1196 0.930 . S
H1188 C1201 0.929 . S
H1189 C1199 0.929 . S
H1190 C1194 0.929 . S
H1191 C1200 0.929 . S
C1192 H1186 0.930 . S
C1192 C1193 1.367 . S
C1192 C1200 1.378 . S
C1193 C1192 1.367 . S
C1193 C1201 1.433 . S
C1194 H1190 0.929 . S
C1194 C1196 1.378 . S
C1194 C1198 1.350 . S
C1195 C1198 1.463 . S
C1195 C1200 1.350 . S
C1195 N1203 1.427 . S
C1196 H1187 0.930 . S
C1196 C1194 1.378 . S
C1196 C1197 1.367 . S
C1197 C1196 1.367 . S
C1197 C1199 1.433 . S
C1198 C1194 1.350 . S
C1198 C1195 1.463 . S
C1198 N1202 1.427 . S
C1199 H1189 0.929 . S
C1199 C1197 1.433 . S
C1199 N1202 1.384 . S
C1200 H1191 0.929 . S
C1200 C1192 1.378 . S
C1200 C1195 1.350 . S
C1201 H1188 0.929 . S
C1201 C1193 1.433 . S
C1201 N1203 1.384 . S
N1202 C1198 1.427 . S
N1202 C1199 1.384 . S
N1203 C1195 1.427 . S
N1203 C1201 1.384 . S
H1204 C1210 0.939 . S
H1205 C1214 0.930 . S
H1206 C1219 0.929 . S
H1207 C1217 0.929 . S
H1208 C1212 0.929 . S
H1209 C1218 0.929 . S
C1210 H1204 0.939 . S
C1210 C1211 1.383 . S
C1210 C1218 1.355 1_565 S
C1211 C1210 1.383 . S
C1211 C1219 1.433 1_565 S
C1212 H1208 0.929 . S
C1212 C1214 1.378 . S
C1212 C1216 1.350 . S
C1213 C1216 1.463 . S
C1213 C1218 1.350 . S
C1213 N1221 1.427 . S
C1214 H1205 0.930 . S
C1214 C1212 1.378 . S
C1214 C1215 1.367 . S
C1215 C1214 1.367 . S
C1215 C1217 1.433 . S
C1216 C1212 1.350 . S
C1216 C1213 1.463 . S
C1216 N1220 1.427 . S
C1217 H1207 0.929 . S
C1217 C1215 1.433 . S
C1217 N1220 1.384 . S
C1218 H1209 0.929 . S
C1218 C1210 1.355 1_545 S
C1218 C1213 1.350 . S
C1219 H1206 0.929 . S
C1219 C1211 1.433 1_545 S
C1219 N1221 1.384 . S
N1220 C1216 1.427 . S
N1220 C1217 1.384 . S
N1221 C1213 1.427 . S
N1221 C1219 1.384 . S
H1222 C1228 0.930 . S
H1223 C1232 0.930 . S
H1224 C1237 0.929 . S
H1225 C1235 0.929 . S
H1226 C1230 0.929 . S
H1227 C1236 0.929 . S
C1228 H1222 0.930 . S
C1228 C1229 1.367 . S
C1228 C1236 1.378 . S
C1229 C1228 1.367 . S
C1229 C1237 1.433 . S
C1230 H1226 0.929 . S
C1230 C1232 1.378 . S
C1230 C1234 1.350 . S
C1231 C1234 1.463 . S
C1231 C1236 1.350 . S
C1231 N1239 1.427 . S
C1232 H1223 0.930 . S
C1232 C1230 1.378 . S
C1232 C1233 1.367 . S
C1233 C1232 1.367 . S
C1233 C1235 1.433 . S
C1234 C1230 1.350 . S
C1234 C1231 1.463 . S
C1234 N1238 1.427 . S
C1235 H1225 0.929 . S
C1235 C1233 1.433 . S
C1235 N1238 1.384 . S
C1236 H1227 0.929 . S
C1236 C1228 1.378 . S
C1236 C1231 1.350 . S
C1237 H1224 0.929 . S
C1237 C1229 1.433 . S
C1237 N1239 1.384 . S
N1238 C1234 1.427 . S
N1238 C1235 1.384 . S
N1239 C1231 1.427 . S
N1239 C1237 1.384 . S
H1240 C1246 0.930 . S
H1241 C1250 0.930 . S
H1242 C1255 0.929 . S
H1243 C1253 0.929 . S
H1244 C1248 0.929 . S
H1245 C1254 0.929 . S
C1246 H1240 0.930 . S
C1246 C1247 1.367 . S
C1246 C1254 1.378 . S
C1247 C1246 1.367 . S
C1247 C1255 1.433 . S
C1248 H1244 0.929 . S
C1248 C1250 1.378 . S
C1248 C1252 1.350 . S
C1249 C1252 1.463 . S
C1249 C1254 1.350 . S
C1249 N1257 1.427 . S
C1250 H1241 0.930 . S
C1250 C1248 1.378 . S
C1250 C1251 1.367 . S
C1251 C1250 1.367 . S
C1251 C1253 1.433 . S
C1252 C1248 1.350 . S
C1252 C1249 1.463 . S
C1252 N1256 1.427 . S
C1253 H1243 0.929 . S
C1253 C1251 1.433 . S
C1253 N1256 1.384 . S
C1254 H1245 0.929 . S
C1254 C1246 1.378 . S
C1254 C1249 1.350 . S
C1255 H1242 0.929 . S
C1255 C1247 1.433 . S
C1255 N1257 1.384 . S
N1256 C1252 1.427 . S
N1256 C1253 1.384 . S
N1257 C1249 1.427 . S
N1257 C1255 1.384 . S
H1258 C1264 0.945 . S
H1259 C1268 0.930 . S
H1260 C1273 0.929 . S
H1261 C1271 0.929 . S
H1262 C1266 0.929 . S
H1263 C1272 0.929 . S
C1264 H1258 0.945 . S
C1264 C1265 1.367 . S
C1264 C1272 1.378 . S
C1265 C1264 1.367 . S
C1265 C1273 1.433 . S
C1266 H1262 0.929 . S
C1266 C1268 1.378 . S
C1266 C1270 1.350 . S
C1267 C1270 1.463 . S
C1267 C1272 1.350 . S
C1267 N1275 1.427 . S
C1268 H1259 0.930 . S
C1268 C1266 1.378 . S
C1268 C1269 1.367 . S
C1269 C1268 1.367 . S
C1269 C1271 1.433 . S
C1270 C1266 1.350 . S
C1270 C1267 1.463 . S
C1270 N1274 1.427 . S
C1271 H1261 0.929 . S
C1271 C1269 1.433 . S
C1271 N1274 1.384 . S
C1272 H1263 0.929 . S
C1272 C1264 1.378 . S
C1272 C1267 1.350 . S
C1273 H1260 0.929 . S
C1273 C1265 1.433 . S
C1273 N1275 1.384 . S
N1274 C1270 1.427 . S
N1274 C1271 1.384 . S
N1275 C1267 1.427 . S
N1275 C1273 1.384 . S
H1276 C1282 0.930 . S
H1277 C1286 0.930 . S
H1278 C1291 0.929 . S
H1279 C1289 0.929 . S
H1280 C1284 0.929 . S
H1281 C1290 0.929 . S
C1282 H1276 0.930 . S
C1282 C1283 1.367 . S
C1282 C1290 1.378 . S
C1283 C1282 1.367 . S
C1283 C1291 1.433 . S
C1284 H1280 0.929 . S
C1284 C1286 1.378 . S
C1284 C1288 1.350 . S
C1285 C1288 1.463 . S
C1285 C1290 1.350 . S
C1285 N1293 1.427 . S
C1286 H1277 0.930 . S
C1286 C1284 1.378 . S
C1286 C1287 1.367 . S
C1287 C1286 1.367 . S
C1287 C1289 1.433 . S
C1288 C1284 1.350 . S
C1288 C1285 1.463 . S
C1288 N1292 1.427 . S
C1289 H1279 0.929 . S
C1289 C1287 1.433 . S
C1289 N1292 1.384 . S
C1290 H1281 0.929 . S
C1290 C1282 1.378 . S
C1290 C1285 1.350 . S
C1291 H1278 0.929 . S
C1291 C1283 1.433 . S
C1291 N1293 1.384 . S
N1292 C1288 1.427 . S
N1292 C1289 1.384 . S
N1293 C1285 1.427 . S
N1293 C1291 1.384 . S
H1294 C1300 0.930 . S
H1295 C1304 0.930 1_455 S
H1296 C1309 0.929 . S
H1297 C1307 0.929 . S
H1298 C1302 0.929 . S
H1299 C1308 0.929 . S
C1300 H1294 0.930 . S
C1300 C1301 1.367 . S
C1300 C1308 1.378 . S
C1301 C1300 1.367 . S
C1301 C1309 1.433 . S
C1302 H1298 0.929 . S
C1302 C1304 1.378 . S
C1302 C1306 1.350 . S
C1303 C1306 1.463 . S
C1303 C1308 1.350 . S
C1303 N1311 1.427 . S
C1304 H1295 0.930 1_655 S
C1304 C1302 1.378 . S
C1304 C1305 1.367 . S
C1305 C1304 1.367 . S
C1305 C1307 1.433 . S
C1306 C1302 1.350 . S
C1306 C1303 1.463 . S
C1306 N1310 1.427 . S
C1307 H1297 0.929 . S
C1307 C1305 1.433 . S
C1307 N1310 1.384 . S
C1308 H1299 0.929 . S
C1308 C1300 1.378 . S
C1308 C1303 1.350 . S
C1309 H1296 0.929 . S
C1309 C1301 1.433 . S
C1309 N1311 1.384 . S
N1310 C1306 1.427 . S
N1310 C1307 1.384 . S
N1311 C1303 1.427 . S
N1311 C1309 1.384 . S
H1312 C1318 0.930 . S
H1313 C1322 0.930 . S
H1314 C1327 0.929 . S
H1315 C1325 0.929 . S
H1316 C1320 0.929 . S
H1317 C1326 0.929 . S
C1318 H1312 0.930 . S
C1318 C1319 1.367 . S
C1318 C1326 1.378 . S
C1319 C1318 1.367 . S
C1319 C1327 1.433 . S
C1320 H1316 0.929 . S
C1320 C1322 1.378 . S
C1320 C1324 1.350 . S
C1321 C1324 1.463 . S
C1321 C1326 1.350 . S
C1321 N1329 1.427 . S
C1322 H1313 0.930 . S
C1322 C1320 1.378 . S
C1322 C1323 1.367 . S
C1323 C1322 1.367 . S
C1323 C1325 1.433 . S
C1324 C1320 1.350 . S
C1324 C1321 1.463 . S
C1324 N1328 1.427 . S
C1325 H1315 0.929 . S
C1325 C1323 1.433 . S
C1325 N1328 1.384 . S
C1326 H1317 0.929 . S
C1326 C1318 1.378 . S
C1326 C1321 1.350 . S
C1327 H1314 0.929 . S
C1327 C1319 1.433 . S
C1327 N1329 1.384 . S
N1328 C1324 1.427 . S
N1328 C1325 1.384 . S
N1329 C1321 1.427 . S
N1329 C1327 1.384 . S
H1330 C1336 0.930 . S
H1331 C1340 0.930 . S
H1332 C1345 0.929 . S
H1333 C1343 0.929 . S
H1334 C1338 0.929 . S
H1335 C1344 0.929 . S
C1336 H1330 0.930 . S
C1336 C1337 1.367 . S
C1336 C1344 1.378 . S
C1337 C1336 1.367 . S
C1337 C1345 1.433 . S
C1338 H1334 0.929 . S
C1338 C1340 1.378 . S
C1338 C1342 1.350 . S
C1339 C1342 1.463 . S
C1339 C1344 1.350 . S
C1339 N1347 1.427 . S
C1340 H1331 0.930 . S
C1340 C1338 1.378 . S
C1340 C1341 1.367 . S
C1341 C1340 1.367 . S
C1341 C1343 1.433 . S
C1342 C1338 1.350 . S
C1342 C1339 1.463 . S
C1342 N1346 1.427 . S
C1343 H1333 0.929 . S
C1343 C1341 1.433 . S
C1343 N1346 1.384 . S
C1344 H1335 0.929 . S
C1344 C1336 1.378 . S
C1344 C1339 1.350 . S
C1345 H1332 0.929 . S
C1345 C1337 1.433 . S
C1345 N1347 1.384 . S
N1346 C1342 1.427 . S
N1346 C1343 1.384 . S
N1347 C1339 1.427 . S
N1347 C1345 1.384 . S
H1348 C1354 0.930 . S
H1349 C1358 0.930 . S
H1350 C1363 0.929 . S
H1351 C1361 0.929 . S
H1352 C1356 0.929 . S
H1353 C1362 0.929 . S
C1354 H1348 0.930 . S
C1354 C1355 1.367 . S
C1354 C1362 1.378 . S
C1355 C1354 1.367 . S
C1355 C1363 1.433 . S
C1356 H1352 0.929 . S
C1356 C1358 1.378 . S
C1356 C1360 1.350 . S
C1357 C1360 1.463 . S
C1357 C1362 1.350 . S
C1357 N1365 1.427 . S
C1358 H1349 0.930 . S
C1358 C1356 1.378 . S
C1358 C1359 1.367 . S
C1359 C1358 1.367 . S
C1359 C1361 1.433 . S
C1360 C1356 1.350 . S
C1360 C1357 1.463 . S
C1360 N1364 1.427 . S
C1361 H1351 0.929 . S
C1361 C1359 1.433 . S
C1361 N1364 1.384 . S
C1362 H1353 0.929 . S
C1362 C1354 1.378 . S
C1362 C1357 1.350 . S
C1363 H1350 0.929 . S
C1363 C1355 1.433 . S
C1363 N1365 1.384 . S
N1364 C1360 1.427 . S
N1364 C1361 1.384 . S
N1365 C1357 1.427 . S
N1365 C1363 1.384 . S
H1366 C1372 0.930 . S
H1367 C1376 0.930 . S
H1368 C1381 0.929 . S
H1369 C1379 0.929 . S
H1370 C1374 0.929 . S
H1371 C1380 0.929 . S
C1372 H1366 0.930 . S
C1372 C1373 1.367 . S
C1372 C1380 1.378 . S
C1373 C1372 1.367 . S
C1373 C1381 1.433 . S
C1374 H1370 0.929 . S
C1374 C1376 1.378 . S
C1374 C1378 1.350 . S
C1375 C1378 1.463 . S
C1375 C1380 1.350 . S
C1375 N1383 1.427 . S
C1376 H1367 0.930 . S
C1376 C1374 1.378 . S
C1376 C1377 1.367 . S
C1377 C1376 1.367 . S
C1377 C1379 1.433 . S
C1378 C1374 1.350 . S
C1378 C1375 1.463 . S
C1378 N1382 1.427 . S
C1379 H1369 0.929 . S
C1379 C1377 1.433 . S
C1379 N1382 1.384 . S
C1380 H1371 0.929 . S
C1380 C1372 1.378 . S
C1380 C1375 1.350 . S
C1381 H1368 0.929 . S
C1381 C1373 1.433 . S
C1381 N1383 1.384 . S
N1382 C1378 1.427 . S
N1382 C1379 1.384 . S
N1383 C1375 1.427 . S
N1383 C1381 1.384 . S
H1384 C1390 0.930 . S
H1385 C1394 0.930 . S
H1386 C1399 0.929 . S
H1387 C1397 0.929 . S
H1388 C1392 0.929 . S
H1389 C1398 0.929 . S
C1390 H1384 0.930 . S
C1390 C1391 1.367 . S
C1390 C1398 1.378 . S
C1391 C1390 1.367 . S
C1391 C1399 1.433 . S
C1392 H1388 0.929 . S
C1392 C1394 1.378 . S
C1392 C1396 1.350 . S
C1393 C1396 1.463 . S
C1393 C1398 1.350 . S
C1393 N1401 1.427 . S
C1394 H1385 0.930 . S
C1394 C1392 1.378 . S
C1394 C1395 1.367 . S
C1395 C1394 1.367 . S
C1395 C1397 1.433 . S
C1396 C1392 1.350 . S
C1396 C1393 1.463 . S
C1396 N1400 1.427 . S
C1397 H1387 0.929 . S
C1397 C1395 1.433 . S
C1397 N1400 1.384 . S
C1398 H1389 0.929 . S
C1398 C1390 1.378 . S
C1398 C1393 1.350 . S
C1399 H1386 0.929 . S
C1399 C1391 1.433 . S
C1399 N1401 1.384 . S
N1400 C1396 1.427 . S
N1400 C1397 1.384 . S
N1401 C1393 1.427 . S
N1401 C1399 1.384 . S
H1402 C1408 0.930 . S
H1403 C1412 0.930 . S
H1404 C1417 0.929 . S
H1405 C1415 0.929 . S
H1406 C1410 0.929 . S
H1407 C1416 0.929 . S
C1408 H1402 0.930 . S
C1408 C1409 1.367 . S
C1408 C1416 1.378 . S
C1409 C1408 1.367 . S
C1409 C1417 1.433 . S
C1410 H1406 0.929 . S
C1410 C1412 1.378 . S
C1410 C1414 1.350 . S
C1411 C1414 1.463 . S
C1411 C1416 1.350 . S
C1411 N1419 1.427 . S
C1412 H1403 0.930 . S
C1412 C1410 1.378 . S
C1412 C1413 1.367 . S
C1413 C1412 1.367 . S
C1413 C1415 1.433 . S
C1414 C1410 1.350 . S
C1414 C1411 1.463 . S
C1414 N1418 1.427 . S
C1415 H1405 0.929 . S
C1415 C1413 1.433 . S
C1415 N1418 1.384 . S
C1416 H1407 0.929 . S
C1416 C1408 1.378 . S
C1416 C1411 1.350 . S
C1417 H1404 0.929 . S
C1417 C1409 1.433 . S
C1417 N1419 1.384 . S
N1418 C1414 1.427 . S
N1418 C1415 1.384 . S
N1419 C1411 1.427 . S
N1419 C1417 1.384 . S
H1420 C1426 0.930 . S
H1421 C1430 0.930 . S
H1422 C1435 0.929 . S
H1423 C1433 0.929 . S
H1424 C1428 0.929 . S
H1425 C1434 0.929 . S
C1426 H1420 0.930 . S
C1426 C1427 1.367 . S
C1426 C1434 1.378 . S
C1427 C1426 1.367 . S
C1427 C1435 1.433 . S
C1428 H1424 0.929 . S
C1428 C1430 1.378 . S
C1428 C1432 1.350 . S
C1429 C1432 1.463 . S
C1429 C1434 1.350 . S
C1429 N1437 1.427 . S
C1430 H1421 0.930 . S
C1430 C1428 1.378 . S
C1430 C1431 1.367 . S
C1431 C1430 1.367 . S
C1431 C1433 1.433 . S
C1432 C1428 1.350 . S
C1432 C1429 1.463 . S
C1432 N1436 1.427 . S
C1433 H1423 0.929 . S
C1433 C1431 1.433 . S
C1433 N1436 1.384 . S
C1434 H1425 0.929 . S
C1434 C1426 1.378 . S
C1434 C1429 1.350 . S
C1435 H1422 0.929 . S
C1435 C1427 1.433 . S
C1435 N1437 1.384 . S
N1436 C1432 1.427 . S
N1436 C1433 1.384 . S
N1437 C1429 1.427 . S
N1437 C1435 1.384 . S
H1438 C1444 0.930 . S
H1439 C1448 0.930 . S
H1440 C1453 0.929 . S
H1441 C1451 0.929 . S
H1442 C1446 0.929 . S
H1443 C1452 0.929 . S
C1444 H1438 0.930 . S
C1444 C1445 1.367 . S
C1444 C1452 1.378 . S
C1445 C1444 1.367 . S
C1445 C1453 1.433 . S
C1446 H1442 0.929 . S
C1446 C1448 1.378 . S
C1446 C1450 1.350 . S
C1447 C1450 1.463 . S
C1447 C1452 1.350 . S
C1447 N1455 1.427 . S
C1448 H1439 0.930 . S
C1448 C1446 1.378 . S
C1448 C1449 1.367 . S
C1449 C1448 1.367 . S
C1449 C1451 1.433 . S
C1450 C1446 1.350 . S
C1450 C1447 1.463 . S
C1450 N1454 1.427 . S
C1451 H1441 0.929 . S
C1451 C1449 1.433 . S
C1451 N1454 1.384 . S
C1452 H1443 0.929 . S
C1452 C1444 1.378 . S
C1452 C1447 1.350 . S
C1453 H1440 0.929 . S
C1453 C1445 1.433 . S
C1453 N1455 1.384 . S
N1454 C1450 1.427 . S
N1454 C1451 1.384 . S
N1455 C1447 1.427 . S
N1455 C1453 1.384 . S
H1456 C1462 0.930 . S
H1457 C1466 0.930 . S
H1458 C1471 0.929 . S
H1459 C1469 0.929 . S
H1460 C1464 0.929 . S
H1461 C1470 0.929 . S
C1462 H1456 0.930 . S
C1462 C1463 1.367 . S
C1462 C1470 1.378 . S
C1463 C1462 1.367 . S
C1463 C1471 1.433 . S
C1464 H1460 0.929 . S
C1464 C1466 1.378 . S
C1464 C1468 1.350 . S
C1465 C1468 1.463 . S
C1465 C1470 1.350 . S
C1465 N1473 1.427 . S
C1466 H1457 0.930 . S
C1466 C1464 1.378 . S
C1466 C1467 1.367 . S
C1467 C1466 1.367 . S
C1467 C1469 1.433 . S
C1468 C1464 1.350 . S
C1468 C1465 1.463 . S
C1468 N1472 1.427 . S
C1469 H1459 0.929 . S
C1469 C1467 1.433 . S
C1469 N1472 1.384 . S
C1470 H1461 0.929 . S
C1470 C1462 1.378 . S
C1470 C1465 1.350 . S
C1471 H1458 0.929 . S
C1471 C1463 1.433 . S
C1471 N1473 1.384 . S
N1472 C1468 1.427 . S
N1472 C1469 1.384 . S
N1473 C1465 1.427 . S
N1473 C1471 1.384 . S
H1474 C1480 0.930 . S
H1475 C1484 0.930 . S
H1476 C1489 0.929 . S
H1477 C1487 0.929 . S
H1478 C1482 0.929 . S
H1479 C1488 0.929 . S
C1480 H1474 0.930 . S
C1480 C1481 1.367 . S
C1480 C1488 1.378 . S
C1481 C1480 1.367 . S
C1481 C1489 1.433 . S
C1482 H1478 0.929 . S
C1482 C1484 1.378 . S
C1482 C1486 1.350 . S
C1483 C1486 1.463 . S
C1483 C1488 1.350 . S
C1483 N1491 1.427 . S
C1484 H1475 0.930 . S
C1484 C1482 1.378 . S
C1484 C1485 1.367 . S
C1485 C1484 1.367 . S
C1485 C1487 1.433 . S
C1486 C1482 1.350 . S
C1486 C1483 1.463 . S
C1486 N1490 1.427 . S
C1487 H1477 0.929 . S
C1487 C1485 1.433 . S
C1487 N1490 1.384 . S
C1488 H1479 0.929 . S
C1488 C1480 1.378 . S
C1488 C1483 1.350 . S
C1489 H1476 0.929 . S
C1489 C1481 1.433 . S
C1489 N1491 1.384 . S
N1490 C1486 1.427 . S
N1490 C1487 1.384 . S
N1491 C1483 1.427 . S
N1491 C1489 1.384 . S
H1492 C1498 0.930 . S
H1493 C1502 0.930 . S
H1494 C1507 0.929 . S
H1495 C1505 0.929 . S
H1496 C1500 0.929 . S
H1497 C1506 0.929 . S
C1498 H1492 0.930 . S
C1498 C1499 1.367 . S
C1498 C1506 1.378 . S
C1499 C1498 1.367 . S
C1499 C1507 1.433 . S
C1500 H1496 0.929 . S
C1500 C1502 1.378 . S
C1500 C1504 1.350 . S
C1501 C1504 1.463 . S
C1501 C1506 1.350 . S
C1501 N1509 1.427 . S
C1502 H1493 0.930 . S
C1502 C1500 1.378 . S
C1502 C1503 1.367 . S
C1503 C1502 1.367 . S
C1503 C1505 1.433 1_556 S
C1504 C1500 1.350 . S
C1504 C1501 1.463 . S
C1504 N1508 1.427 . S
C1505 H1495 0.929 . S
C1505 C1503 1.433 1_554 S
C1505 N1508 1.384 1_554 S
C1506 H1497 0.929 . S
C1506 C1498 1.378 . S
C1506 C1501 1.350 . S
C1507 H1494 0.929 . S
C1507 C1499 1.433 . S
C1507 N1509 1.384 . S
N1508 C1504 1.427 . S
N1508 C1505 1.384 1_556 S
N1509 C1501 1.427 . S
N1509 C1507 1.384 . S
H1510 C1516 0.930 . S
H1511 C1520 0.930 . S
H1512 C1525 0.929 . S
H1513 C1523 0.929 . S
H1514 C1518 0.929 . S
H1515 C1524 0.929 . S
C1516 H1510 0.930 . S
C1516 C1517 1.367 . S
C1516 C1524 1.378 . S
C1517 C1516 1.367 . S
C1517 C1525 1.433 . S
C1518 H1514 0.929 . S
C1518 C1520 1.378 . S
C1518 C1522 1.350 . S
C1519 C1522 1.463 . S
C1519 C1524 1.350 . S
C1519 N1527 1.427 . S
C1520 H1511 0.930 . S
C1520 C1518 1.378 . S
C1520 C1521 1.367 . S
C1521 C1520 1.367 . S
C1521 C1523 1.433 . S
C1522 C1518 1.350 . S
C1522 C1519 1.463 . S
C1522 N1526 1.427 . S
C1523 H1513 0.929 . S
C1523 C1521 1.433 . S
C1523 N1526 1.384 . S
C1524 H1515 0.929 . S
C1524 C1516 1.378 . S
C1524 C1519 1.350 . S
C1525 H1512 0.929 . S
C1525 C1517 1.433 . S
C1525 N1527 1.384 . S
N1526 C1522 1.427 . S
N1526 C1523 1.384 . S
N1527 C1519 1.427 . S
N1527 C1525 1.384 . S
H1528 C1534 0.930 . S
H1529 C1538 0.919 1_565 S
H1530 C1543 0.929 . S
H1531 C1541 0.929 . S
H1532 C1536 0.929 . S
H1533 C1542 0.929 . S
C1534 H1528 0.930 . S
C1534 C1535 1.367 . S
C1534 C1542 1.378 . S
C1535 C1534 1.367 . S
C1535 C1543 1.433 . S
C1536 H1532 0.929 . S
C1536 C1538 1.378 . S
C1536 C1540 1.350 . S
C1537 C1540 1.463 . S
C1537 C1542 1.350 . S
C1537 N1545 1.427 . S
C1538 H1529 0.919 1_545 S
C1538 C1536 1.378 . S
C1538 C1539 1.367 . S
C1539 C1538 1.367 . S
C1539 C1541 1.433 . S
C1540 C1536 1.350 . S
C1540 C1537 1.463 . S
C1540 N1544 1.427 . S
C1541 H1531 0.929 . S
C1541 C1539 1.433 . S
C1541 N1544 1.384 . S
C1542 H1533 0.929 . S
C1542 C1534 1.378 . S
C1542 C1537 1.350 . S
C1543 H1530 0.929 . S
C1543 C1535 1.433 . S
C1543 N1545 1.384 . S
N1544 C1540 1.427 . S
N1544 C1541 1.384 . S
N1545 C1537 1.427 . S
N1545 C1543 1.384 . S
H1546 C1552 0.930 . S
H1547 C1556 0.930 . S
H1548 C1561 0.929 . S
H1549 C1559 0.929 . S
H1550 C1554 0.929 . S
H1551 C1560 0.929 . S
C1552 H1546 0.930 . S
C1552 C1553 1.367 . S
C1552 C1560 1.378 . S
C1553 C1552 1.367 . S
C1553 C1561 1.433 . S
C1554 H1550 0.929 . S
C1554 C1556 1.378 . S
C1554 C1558 1.350 . S
C1555 C1558 1.463 . S
C1555 C1560 1.350 . S
C1555 N1563 1.427 . S
C1556 H1547 0.930 . S
C1556 C1554 1.378 . S
C1556 C1557 1.367 . S
C1557 C1556 1.367 . S
C1557 C1559 1.433 . S
C1558 C1554 1.350 . S
C1558 C1555 1.463 . S
C1558 N1562 1.427 . S
C1559 H1549 0.929 . S
C1559 C1557 1.433 . S
C1559 N1562 1.384 . S
C1560 H1551 0.929 . S
C1560 C1552 1.378 . S
C1560 C1555 1.350 . S
C1561 H1548 0.929 . S
C1561 C1553 1.433 . S
C1561 N1563 1.384 . S
N1562 C1558 1.427 . S
N1562 C1559 1.384 . S
N1563 C1555 1.427 . S
N1563 C1561 1.384 . S
H1564 C1570 0.930 . S
H1565 C1574 0.930 . S
H1566 C1579 0.929 . S
H1567 C1577 0.929 . S
H1568 C1572 0.929 . S
H1569 C1578 0.929 . S
C1570 H1564 0.930 . S
C1570 C1571 1.367 . S
C1570 C1578 1.378 . S
C1571 C1570 1.367 . S
C1571 C1579 1.433 . S
C1572 H1568 0.929 . S
C1572 C1574 1.378 . S
C1572 C1576 1.350 . S
C1573 C1576 1.463 . S
C1573 C1578 1.350 . S
C1573 N1581 1.427 . S
C1574 H1565 0.930 . S
C1574 C1572 1.378 . S
C1574 C1575 1.367 . S
C1575 C1574 1.367 . S
C1575 C1577 1.433 . S
C1576 C1572 1.350 . S
C1576 C1573 1.463 . S
C1576 N1580 1.427 . S
C1577 H1567 0.929 . S
C1577 C1575 1.433 . S
C1577 N1580 1.384 . S
C1578 H1569 0.929 . S
C1578 C1570 1.378 . S
C1578 C1573 1.350 . S
C1579 H1566 0.929 . S
C1579 C1571 1.433 . S
C1579 N1581 1.384 . S
N1580 C1576 1.427 . S
N1580 C1577 1.384 . S
N1581 C1573 1.427 . S
N1581 C1579 1.384 . S
H1582 C1588 0.930 . S
H1583 C1592 0.930 . S
H1584 C1597 0.929 . S
H1585 C1595 0.929 . S
H1586 C1590 0.929 . S
H1587 C1596 0.929 . S
C1588 H1582 0.930 . S
C1588 C1589 1.367 . S
C1588 C1596 1.378 . S
C1589 C1588 1.367 . S
C1589 C1597 1.433 . S
C1590 H1586 0.929 . S
C1590 C1592 1.378 . S
C1590 C1594 1.350 . S
C1591 C1594 1.463 . S
C1591 C1596 1.350 . S
C1591 N1599 1.427 . S
C1592 H1583 0.930 . S
C1592 C1590 1.378 . S
C1592 C1593 1.367 . S
C1593 C1592 1.367 . S
C1593 C1595 1.433 . S
C1594 C1590 1.350 . S
C1594 C1591 1.463 . S
C1594 N1598 1.427 . S
C1595 H1585 0.929 . S
C1595 C1593 1.433 . S
C1595 N1598 1.384 . S
C1596 H1587 0.929 . S
C1596 C1588 1.378 . S
C1596 C1591 1.350 . S
C1597 H1584 0.929 . S
C1597 C1589 1.433 . S
C1597 N1599 1.384 . S
N1598 C1594 1.427 . S
N1598 C1595 1.384 . S
N1599 C1591 1.427 . S
N1599 C1597 1.384 . S
H1600 C1606 0.930 . S
H1601 C1610 0.930 . S
H1602 C1615 0.929 . S
H1603 C1613 0.929 . S
H1604 C1608 0.929 . S
H1605 C1614 0.929 . S
C1606 H1600 0.930 . S
C1606 C1607 1.367 . S
C1606 C1614 1.378 . S
C1607 C1606 1.367 . S
C1607 C1615 1.433 . S
C1608 H1604 0.929 . S
C1608 C1610 1.378 . S
C1608 C1612 1.350 . S
C1609 C1612 1.463 . S
C1609 C1614 1.350 . S
C1609 N1617 1.427 . S
C1610 H1601 0.930 . S
C1610 C1608 1.378 . S
C1610 C1611 1.367 . S
C1611 C1610 1.367 . S
C1611 C1613 1.433 . S
C1612 C1608 1.350 . S
C1612 C1609 1.463 . S
C1612 N1616 1.427 . S
C1613 H1603 0.929 . S
C1613 C1611 1.433 . S
C1613 N1616 1.384 . S
C1614 H1605 0.929 . S
C1614 C1606 1.378 . S
C1614 C1609 1.350 . S
C1615 H1602 0.929 . S
C1615 C1607 1.433 . S
C1615 N1617 1.384 . S
N1616 C1612 1.427 . S
N1616 C1613 1.384 . S
N1617 C1609 1.427 . S
N1617 C1615 1.384 . S
H1618 C1624 0.930 . S
H1619 C1628 0.930 . S
H1620 C1633 0.929 . S
H1621 C1631 0.929 . S
H1622 C1626 0.929 . S
H1623 C1632 0.929 . S
C1624 H1618 0.930 . S
C1624 C1625 1.367 . S
C1624 C1632 1.378 . S
C1625 C1624 1.367 . S
C1625 C1633 1.433 . S
C1626 H1622 0.929 . S
C1626 C1628 1.378 . S
C1626 C1630 1.350 . S
C1627 C1630 1.463 . S
C1627 C1632 1.350 . S
C1627 N1635 1.427 . S
C1628 H1619 0.930 . S
C1628 C1626 1.378 . S
C1628 C1629 1.367 . S
C1629 C1628 1.367 . S
C1629 C1631 1.433 . S
C1630 C1626 1.350 . S
C1630 C1627 1.463 . S
C1630 N1634 1.427 . S
C1631 H1621 0.929 . S
C1631 C1629 1.433 . S
C1631 N1634 1.384 . S
C1632 H1623 0.929 . S
C1632 C1624 1.378 . S
C1632 C1627 1.350 . S
C1633 H1620 0.929 . S
C1633 C1625 1.433 . S
C1633 N1635 1.384 . S
N1634 C1630 1.427 . S
N1634 C1631 1.384 . S
N1635 C1627 1.427 . S
N1635 C1633 1.384 . S
H1636 C1642 0.930 . S
H1637 C1646 0.930 1_565 S
H1638 C1651 0.929 . S
H1639 C1649 0.929 . S
H1640 C1644 0.929 . S
H1641 C1650 0.929 . S
C1642 H1636 0.930 . S
C1642 C1643 1.367 . S
C1642 C1650 1.378 . S
C1643 C1642 1.367 . S
C1643 C1651 1.433 . S
C1644 H1640 0.929 . S
C1644 C1646 1.378 . S
C1644 C1648 1.350 . S
C1645 C1648 1.463 . S
C1645 C1650 1.350 . S
C1645 N1653 1.427 . S
C1646 H1637 0.930 1_545 S
C1646 C1644 1.378 . S
C1646 C1647 1.367 . S
C1647 C1646 1.367 . S
C1647 C1649 1.432 . S
C1648 C1644 1.350 . S
C1648 C1645 1.463 . S
C1648 N1652 1.427 . S
C1649 H1639 0.929 . S
C1649 C1647 1.432 . S
C1649 N1652 1.384 . S
C1650 H1641 0.929 . S
C1650 C1642 1.378 . S
C1650 C1645 1.350 . S
C1651 H1638 0.929 . S
C1651 C1643 1.433 . S
C1651 N1653 1.384 . S
N1652 C1648 1.427 . S
N1652 C1649 1.384 . S
N1653 C1645 1.427 . S
N1653 C1651 1.384 . S
H1654 C1660 0.930 . S
H1655 C1664 0.930 . S
H1656 C1669 0.929 . S
H1657 C1667 0.929 . S
H1658 C1662 0.929 . S
H1659 C1668 0.929 . S
C1660 H1654 0.930 . S
C1660 C1661 1.367 . S
C1660 C1668 1.378 . S
C1661 C1660 1.367 . S
C1661 C1669 1.433 . S
C1662 H1658 0.929 . S
C1662 C1664 1.378 . S
C1662 C1666 1.350 . S
C1663 C1666 1.463 . S
C1663 C1668 1.350 . S
C1663 N1671 1.427 . S
C1664 H1655 0.930 . S
C1664 C1662 1.378 . S
C1664 C1665 1.367 . S
C1665 C1664 1.367 . S
C1665 C1667 1.433 . S
C1666 C1662 1.350 . S
C1666 C1663 1.463 . S
C1666 N1670 1.427 . S
C1667 H1657 0.929 . S
C1667 C1665 1.433 . S
C1667 N1670 1.384 . S
C1668 H1659 0.929 . S
C1668 C1660 1.378 . S
C1668 C1663 1.350 . S
C1669 H1656 0.929 . S
C1669 C1661 1.433 . S
C1669 N1671 1.384 . S
N1670 C1666 1.427 . S
N1670 C1667 1.384 . S
N1671 C1663 1.427 . S
N1671 C1669 1.384 . S
H1672 C1678 0.930 . S
H1673 C1682 0.930 . S
H1674 C1687 0.929 . S
H1675 C1685 0.929 . S
H1676 C1680 0.929 . S
H1677 C1686 0.929 . S
C1678 H1672 0.930 . S
C1678 C1679 1.367 . S
C1678 C1686 1.378 . S
C1679 C1678 1.367 . S
C1679 C1687 1.433 . S
C1680 H1676 0.929 . S
C1680 C1682 1.378 . S
C1680 C1684 1.350 . S
C1681 C1684 1.463 . S
C1681 C1686 1.350 . S
C1681 N1689 1.427 . S
C1682 H1673 0.930 . S
C1682 C1680 1.378 . S
C1682 C1683 1.367 . S
C1683 C1682 1.367 . S
C1683 C1685 1.433 . S
C1684 C1680 1.350 . S
C1684 C1681 1.463 . S
C1684 N1688 1.427 . S
C1685 H1675 0.929 . S
C1685 C1683 1.433 . S
C1685 N1688 1.384 . S
C1686 H1677 0.929 . S
C1686 C1678 1.378 . S
C1686 C1681 1.350 . S
C1687 H1674 0.929 . S
C1687 C1679 1.433 . S
C1687 N1689 1.384 . S
N1688 C1684 1.427 . S
N1688 C1685 1.384 . S
N1689 C1681 1.427 . S
N1689 C1687 1.384 . S
H1690 C1696 0.930 . S
H1691 C1700 0.930 . S
H1692 C1705 0.929 . S
H1693 C1703 0.929 . S
H1694 C1698 0.929 . S
H1695 C1704 0.929 . S
C1696 H1690 0.930 . S
C1696 C1697 1.367 . S
C1696 C1704 1.378 . S
C1697 C1696 1.367 . S
C1697 C1705 1.433 . S
C1698 H1694 0.929 . S
C1698 C1700 1.378 . S
C1698 C1702 1.350 . S
C1699 C1702 1.463 . S
C1699 C1704 1.350 . S
C1699 N1707 1.427 . S
C1700 H1691 0.930 . S
C1700 C1698 1.378 . S
C1700 C1701 1.367 . S
C1701 C1700 1.367 . S
C1701 C1703 1.433 . S
C1702 C1698 1.350 . S
C1702 C1699 1.463 . S
C1702 N1706 1.427 . S
C1703 H1693 0.929 . S
C1703 C1701 1.433 . S
C1703 N1706 1.384 . S
C1704 H1695 0.929 . S
C1704 C1696 1.378 . S
C1704 C1699 1.350 . S
C1705 H1692 0.929 . S
C1705 C1697 1.433 . S
C1705 N1707 1.384 . S
N1706 C1702 1.427 . S
N1706 C1703 1.384 . S
N1707 C1699 1.427 . S
N1707 C1705 1.384 . S
H1708 C1714 0.930 . S
H1709 C1718 0.930 . S
H1710 C1723 0.929 . S
H1711 C1721 0.929 . S
H1712 C1716 0.929 . S
H1713 C1722 0.929 . S
C1714 H1708 0.930 . S
C1714 C1715 1.367 . S
C1714 C1722 1.378 . S
C1715 C1714 1.367 . S
C1715 C1723 1.433 . S
C1716 H1712 0.929 . S
C1716 C1718 1.378 . S
C1716 C1720 1.350 . S
C1717 C1720 1.463 . S
C1717 C1722 1.350 . S
C1717 N1725 1.427 . S
C1718 H1709 0.930 . S
C1718 C1716 1.378 . S
C1718 C1719 1.367 . S
C1719 C1718 1.367 . S
C1719 C1721 1.433 . S
C1720 C1716 1.350 . S
C1720 C1717 1.463 . S
C1720 N1724 1.427 . S
C1721 H1711 0.929 . S
C1721 C1719 1.433 . S
C1721 N1724 1.384 . S
C1722 H1713 0.929 . S
C1722 C1714 1.378 . S
C1722 C1717 1.350 . S
C1723 H1710 0.929 . S
C1723 C1715 1.433 . S
C1723 N1725 1.384 . S
N1724 C1720 1.427 . S
N1724 C1721 1.384 . S
N1725 C1717 1.427 . S
N1725 C1723 1.384 . S
H1726 C1732 0.930 . S
H1727 C1736 0.930 . S
H1728 C1741 0.929 . S
H1729 C1739 0.929 . S
H1730 C1734 0.929 . S
H1731 C1740 0.929 . S
C1732 H1726 0.930 . S
C1732 C1733 1.367 . S
C1732 C1740 1.378 . S
C1733 C1732 1.367 . S
C1733 C1741 1.433 . S
C1734 H1730 0.929 . S
C1734 C1736 1.378 . S
C1734 C1738 1.350 . S
C1735 C1738 1.463 . S
C1735 C1740 1.350 . S
C1735 N1743 1.427 . S
C1736 H1727 0.930 . S
C1736 C1734 1.378 . S
C1736 C1737 1.367 . S
C1737 C1736 1.367 . S
C1737 C1739 1.433 . S
C1738 C1734 1.350 . S
C1738 C1735 1.463 . S
C1738 N1742 1.427 . S
C1739 H1729 0.929 . S
C1739 C1737 1.433 . S
C1739 N1742 1.384 . S
C1740 H1731 0.929 . S
C1740 C1732 1.378 . S
C1740 C1735 1.350 . S
C1741 H1728 0.929 . S
C1741 C1733 1.433 . S
C1741 N1743 1.384 . S
N1742 C1738 1.427 . S
N1742 C1739 1.384 . S
N1743 C1735 1.427 . S
N1743 C1741 1.384 . S
H1744 C1750 0.930 . S
H1745 C1754 0.930 . S
H1746 C1759 0.929 . S
H1747 C1757 0.929 . S
H1748 C1752 0.929 . S
H1749 C1758 0.929 . S
C1750 H1744 0.930 . S
C1750 C1751 1.367 . S
C1750 C1758 1.378 . S
C1751 C1750 1.367 . S
C1751 C1759 1.433 . S
C1752 H1748 0.929 . S
C1752 C1754 1.378 . S
C1752 C1756 1.350 . S
C1753 C1756 1.463 . S
C1753 C1758 1.350 . S
C1753 N1761 1.427 . S
C1754 H1745 0.930 . S
C1754 C1752 1.378 . S
C1754 C1755 1.367 . S
C1755 C1754 1.367 . S
C1755 C1757 1.433 . S
C1756 C1752 1.350 . S
C1756 C1753 1.463 . S
C1756 N1760 1.427 . S
C1757 H1747 0.929 . S
C1757 C1755 1.433 . S
C1757 N1760 1.384 . S
C1758 H1749 0.929 . S
C1758 C1750 1.378 . S
C1758 C1753 1.350 . S
C1759 H1746 0.929 . S
C1759 C1751 1.433 . S
C1759 N1761 1.384 . S
N1760 C1756 1.427 . S
N1760 C1757 1.384 . S
N1761 C1753 1.427 . S
N1761 C1759 1.384 . S
H1762 C1768 0.930 . S
H1763 C1772 0.916 1_545 S
H1764 C1777 0.929 . S
H1765 C1775 0.929 . S
H1766 C1770 0.929 . S
H1767 C1776 0.929 . S
C1768 H1762 0.930 . S
C1768 C1769 1.367 . S
C1768 C1776 1.378 . S
C1769 C1768 1.367 . S
C1769 C1777 1.433 . S
C1770 H1766 0.929 . S
C1770 C1772 1.393 . S
C1770 C1774 1.350 . S
C1771 C1774 1.463 . S
C1771 C1776 1.350 . S
C1771 N1779 1.427 . S
C1772 H1763 0.916 1_565 S
C1772 C1770 1.393 . S
C1772 C1773 1.366 . S
C1773 C1772 1.366 . S
C1773 C1775 1.433 . S
C1774 C1770 1.350 . S
C1774 C1771 1.463 . S
C1774 N1778 1.427 . S
C1775 H1765 0.929 . S
C1775 C1773 1.433 . S
C1775 N1778 1.384 . S
C1776 H1767 0.929 . S
C1776 C1768 1.378 . S
C1776 C1771 1.350 . S
C1777 H1764 0.929 . S
C1777 C1769 1.433 . S
C1777 N1779 1.384 . S
N1778 C1774 1.427 . S
N1778 C1775 1.384 . S
N1779 C1771 1.427 . S
N1779 C1777 1.384 . S
H1780 C1786 0.930 . S
H1781 C1790 0.930 . S
H1782 C1795 0.929 . S
H1783 C1793 0.929 . S
H1784 C1788 0.929 . S
H1785 C1794 0.929 . S
C1786 H1780 0.930 . S
C1786 C1787 1.367 . S
C1786 C1794 1.378 . S
C1787 C1786 1.367 . S
C1787 C1795 1.433 . S
C1788 H1784 0.929 . S
C1788 C1790 1.378 . S
C1788 C1792 1.350 . S
C1789 C1792 1.463 . S
C1789 C1794 1.350 . S
C1789 N1797 1.427 . S
C1790 H1781 0.930 . S
C1790 C1788 1.378 . S
C1790 C1791 1.367 . S
C1791 C1790 1.367 . S
C1791 C1793 1.433 . S
C1792 C1788 1.350 . S
C1792 C1789 1.463 . S
C1792 N1796 1.427 . S
C1793 H1783 0.929 . S
C1793 C1791 1.433 . S
C1793 N1796 1.384 . S
C1794 H1785 0.929 . S
C1794 C1786 1.378 . S
C1794 C1789 1.350 . S
C1795 H1782 0.929 . S
C1795 C1787 1.433 . S
C1795 N1797 1.384 . S
N1796 C1792 1.427 . S
N1796 C1793 1.384 . S
N1797 C1789 1.427 . S
N1797 C1795 1.384 . S
H1798 C1804 0.930 . S
H1799 C1808 0.930 . S
H1800 C1813 0.929 . S
H1801 C1811 0.929 . S
H1802 C1806 0.929 . S
H1803 C1812 0.929 . S
C1804 H1798 0.930 . S
C1804 C1805 1.367 . S
C1804 C1812 1.378 . S
C1805 C1804 1.367 . S
C1805 C1813 1.433 . S
C1806 H1802 0.929 . S
C1806 C1808 1.378 . S
C1806 C1810 1.350 . S
C1807 C1810 1.463 . S
C1807 C1812 1.350 . S
C1807 N1815 1.427 . S
C1808 H1799 0.930 . S
C1808 C1806 1.378 . S
C1808 C1809 1.367 . S
C1809 C1808 1.367 . S
C1809 C1811 1.433 . S
C1810 C1806 1.350 . S
C1810 C1807 1.463 . S
C1810 N1814 1.427 . S
C1811 H1801 0.929 . S
C1811 C1809 1.433 . S
C1811 N1814 1.384 . S
C1812 H1803 0.929 . S
C1812 C1804 1.378 . S
C1812 C1807 1.350 . S
C1813 H1800 0.929 . S
C1813 C1805 1.433 . S
C1813 N1815 1.384 . S
N1814 C1810 1.427 . S
N1814 C1811 1.384 . S
N1815 C1807 1.427 . S
N1815 C1813 1.384 . S
H1816 C1822 0.930 . S
H1817 C1826 0.930 . S
H1818 C1831 0.929 . S
H1819 C1829 0.929 . S
H1820 C1824 0.929 . S
H1821 C1830 0.929 . S
C1822 H1816 0.930 . S
C1822 C1823 1.367 . S
C1822 C1830 1.378 . S
C1823 C1822 1.367 . S
C1823 C1831 1.433 . S
C1824 H1820 0.929 . S
C1824 C1826 1.378 . S
C1824 C1828 1.350 . S
C1825 C1828 1.463 . S
C1825 C1830 1.350 . S
C1825 N1833 1.427 . S
C1826 H1817 0.930 . S
C1826 C1824 1.378 . S
C1826 C1827 1.367 . S
C1827 C1826 1.367 . S
C1827 C1829 1.433 . S
C1828 C1824 1.350 . S
C1828 C1825 1.463 . S
C1828 N1832 1.427 . S
C1829 H1819 0.929 . S
C1829 C1827 1.433 . S
C1829 N1832 1.384 . S
C1830 H1821 0.929 . S
C1830 C1822 1.378 . S
C1830 C1825 1.350 . S
C1831 H1818 0.929 . S
C1831 C1823 1.433 . S
C1831 N1833 1.384 . S
N1832 C1828 1.427 . S
N1832 C1829 1.384 . S
N1833 C1825 1.427 . S
N1833 C1831 1.384 . S
H1834 C1840 0.930 . S
H1835 C1844 0.930 . S
H1836 C1849 0.929 . S
H1837 C1847 0.929 . S
H1838 C1842 0.929 . S
H1839 C1848 0.929 . S
C1840 H1834 0.930 . S
C1840 C1841 1.367 . S
C1840 C1848 1.378 . S
C1841 C1840 1.367 . S
C1841 C1849 1.433 . S
C1842 H1838 0.929 . S
C1842 C1844 1.378 . S
C1842 C1846 1.350 . S
C1843 C1846 1.463 . S
C1843 C1848 1.350 . S
C1843 N1851 1.427 . S
C1844 H1835 0.930 . S
C1844 C1842 1.378 . S
C1844 C1845 1.367 . S
C1845 C1844 1.367 . S
C1845 C1847 1.433 . S
C1846 C1842 1.350 . S
C1846 C1843 1.463 . S
C1846 N1850 1.427 . S
C1847 H1837 0.929 . S
C1847 C1845 1.433 . S
C1847 N1850 1.384 . S
C1848 H1839 0.929 . S
C1848 C1840 1.378 . S
C1848 C1843 1.350 . S
C1849 H1836 0.929 . S
C1849 C1841 1.433 . S
C1849 N1851 1.384 . S
N1850 C1846 1.427 . S
N1850 C1847 1.384 . S
N1851 C1843 1.427 . S
N1851 C1849 1.384 . S
H1852 C1858 0.930 . S
H1853 C1862 0.930 . S
H1854 C1867 0.933 . S
H1855 C1865 0.929 . S
H1856 C1860 0.929 . S
H1857 C1866 0.929 . S
C1858 H1852 0.930 . S
C1858 C1859 1.367 . S
C1858 C1866 1.378 . S
C1859 C1858 1.367 . S
C1859 C1867 1.433 . S
C1860 H1856 0.929 . S
C1860 C1862 1.378 . S
C1860 C1864 1.350 . S
C1861 C1864 1.463 . S
C1861 C1866 1.350 . S
C1861 N1869 1.427 . S
C1862 H1853 0.930 . S
C1862 C1860 1.378 . S
C1862 C1863 1.367 . S
C1863 C1862 1.367 . S
C1863 C1865 1.433 . S
C1864 C1860 1.350 . S
C1864 C1861 1.463 . S
C1864 N1868 1.427 . S
C1865 H1855 0.929 . S
C1865 C1863 1.433 . S
C1865 N1868 1.384 . S
C1866 H1857 0.929 . S
C1866 C1858 1.378 . S
C1866 C1861 1.350 . S
C1867 H1854 0.933 . S
C1867 C1859 1.433 . S
C1867 N1869 1.384 . S
N1868 C1864 1.427 . S
N1868 C1865 1.384 . S
N1869 C1861 1.427 . S
N1869 C1867 1.384 . S
H1870 C1876 0.930 . S
H1871 C1880 0.930 . S
H1872 C1885 0.929 . S
H1873 C1883 0.929 . S
H1874 C1878 0.929 . S
H1875 C1884 0.929 1_655 S
C1876 H1870 0.930 . S
C1876 C1877 1.367 . S
C1876 C1884 1.378 . S
C1877 C1876 1.367 . S
C1877 C1885 1.433 . S
C1878 H1874 0.929 . S
C1878 C1880 1.378 . S
C1878 C1882 1.350 . S
C1879 C1882 1.463 1_455 S
C1879 C1884 1.350 . S
C1879 N1887 1.427 . S
C1880 H1871 0.930 . S
C1880 C1878 1.378 . S
C1880 C1881 1.367 . S
C1881 C1880 1.367 . S
C1881 C1883 1.433 . S
C1882 C1878 1.350 . S
C1882 C1879 1.463 1_655 S
C1882 N1886 1.427 . S
C1883 H1873 0.929 . S
C1883 C1881 1.433 . S
C1883 N1886 1.384 . S
C1884 H1875 0.929 1_455 S
C1884 C1876 1.378 . S
C1884 C1879 1.350 . S
C1885 H1872 0.929 . S
C1885 C1877 1.433 . S
C1885 N1887 1.384 . S
N1886 C1882 1.427 . S
N1886 C1883 1.384 . S
N1887 C1879 1.427 . S
N1887 C1885 1.384 . S
H1888 C1894 0.930 . S
H1889 C1898 0.930 . S
H1890 C1903 0.929 . S
H1891 C1901 0.929 . S
H1892 C1896 0.929 . S
H1893 C1902 0.929 . S
C1894 H1888 0.930 . S
C1894 C1895 1.367 . S
C1894 C1902 1.378 . S
C1895 C1894 1.367 . S
C1895 C1903 1.433 . S
C1896 H1892 0.929 . S
C1896 C1898 1.378 . S
C1896 C1900 1.350 . S
C1897 C1900 1.463 . S
C1897 C1902 1.350 . S
C1897 N1905 1.427 . S
C1898 H1889 0.930 . S
C1898 C1896 1.378 . S
C1898 C1899 1.367 . S
C1899 C1898 1.367 . S
C1899 C1901 1.433 . S
C1900 C1896 1.350 . S
C1900 C1897 1.463 . S
C1900 N1904 1.427 . S
C1901 H1891 0.929 . S
C1901 C1899 1.433 . S
C1901 N1904 1.384 . S
C1902 H1893 0.929 . S
C1902 C1894 1.378 . S
C1902 C1897 1.350 . S
C1903 H1890 0.929 . S
C1903 C1895 1.433 . S
C1903 N1905 1.384 . S
N1904 C1900 1.427 . S
N1904 C1901 1.384 . S
N1905 C1897 1.427 . S
N1905 C1903 1.384 . S
H1906 C1912 0.930 . S
H1907 C1916 0.930 . S
H1908 C1921 0.929 . S
H1909 C1919 0.929 . S
H1910 C1914 0.929 . S
H1911 C1920 0.929 . S
C1912 H1906 0.930 . S
C1912 C1913 1.367 . S
C1912 C1920 1.378 . S
C1913 C1912 1.367 . S
C1913 C1921 1.433 . S
C1914 H1910 0.929 . S
C1914 C1916 1.378 . S
C1914 C1918 1.350 . S
C1915 C1918 1.463 . S
C1915 C1920 1.350 . S
C1915 N1923 1.427 . S
C1916 H1907 0.930 . S
C1916 C1914 1.378 . S
C1916 C1917 1.367 . S
C1917 C1916 1.367 . S
C1917 C1919 1.433 . S
C1918 C1914 1.350 . S
C1918 C1915 1.463 . S
C1918 N1922 1.427 . S
C1919 H1909 0.929 . S
C1919 C1917 1.433 . S
C1919 N1922 1.384 . S
C1920 H1911 0.929 . S
C1920 C1912 1.378 . S
C1920 C1915 1.350 . S
C1921 H1908 0.929 . S
C1921 C1913 1.433 . S
C1921 N1923 1.384 . S
N1922 C1918 1.427 . S
N1922 C1919 1.384 . S
N1923 C1915 1.427 . S
N1923 C1921 1.384 . S
H1924 C1930 0.930 . S
H1925 C1934 0.930 . S
H1926 C1939 0.929 . S
H1927 C1937 0.929 . S
H1928 C1932 0.929 . S
H1929 C1938 0.929 . S
C1930 H1924 0.930 . S
C1930 C1931 1.367 . S
C1930 C1938 1.378 . S
C1931 C1930 1.367 . S
C1931 C1939 1.433 . S
C1932 H1928 0.929 . S
C1932 C1934 1.378 . S
C1932 C1936 1.350 . S
C1933 C1936 1.463 . S
C1933 C1938 1.350 . S
C1933 N1941 1.427 . S
C1934 H1925 0.930 . S
C1934 C1932 1.378 . S
C1934 C1935 1.367 . S
C1935 C1934 1.367 . S
C1935 C1937 1.433 . S
C1936 C1932 1.350 . S
C1936 C1933 1.463 . S
C1936 N1940 1.427 . S
C1937 H1927 0.929 . S
C1937 C1935 1.433 . S
C1937 N1940 1.384 . S
C1938 H1929 0.929 . S
C1938 C1930 1.378 . S
C1938 C1933 1.350 . S
C1939 H1926 0.929 . S
C1939 C1931 1.433 . S
C1939 N1941 1.384 . S
N1940 C1936 1.427 . S
N1940 C1937 1.384 . S
N1941 C1933 1.427 . S
N1941 C1939 1.384 . S
H1942 C1948 0.930 . S
H1943 C1952 0.930 . S
H1944 C1957 0.929 . S
H1945 C1955 0.929 . S
H1946 C1950 0.929 . S
H1947 C1956 0.929 . S
C1948 H1942 0.930 . S
C1948 C1949 1.367 . S
C1948 C1956 1.378 . S
C1949 C1948 1.367 . S
C1949 C1957 1.433 . S
C1950 H1946 0.929 . S
C1950 C1952 1.378 . S
C1950 C1954 1.350 . S
C1951 C1954 1.463 . S
C1951 C1956 1.350 . S
C1951 N1959 1.427 . S
C1952 H1943 0.930 . S
C1952 C1950 1.378 . S
C1952 C1953 1.367 . S
C1953 C1952 1.367 . S
C1953 C1955 1.433 . S
C1954 C1950 1.350 . S
C1954 C1951 1.463 . S
C1954 N1958 1.427 . S
C1955 H1945 0.929 . S
C1955 C1953 1.433 . S
C1955 N1958 1.384 . S
C1956 H1947 0.929 . S
C1956 C1948 1.378 . S
C1956 C1951 1.350 . S
C1957 H1944 0.929 . S
C1957 C1949 1.433 . S
C1957 N1959 1.384 . S
N1958 C1954 1.427 . S
N1958 C1955 1.384 . S
N1959 C1951 1.427 . S
N1959 C1957 1.384 . S
H1960 C1966 0.930 . S
H1961 C1970 0.930 . S
H1962 C1975 0.929 . S
H1963 C1973 0.929 . S
H1964 C1968 0.929 . S
H1965 C1974 0.929 . S
C1966 H1960 0.930 . S
C1966 C1967 1.367 . S
C1966 C1974 1.378 . S
C1967 C1966 1.367 . S
C1967 C1975 1.433 . S
C1968 H1964 0.929 . S
C1968 C1970 1.378 . S
C1968 C1972 1.350 . S
C1969 C1972 1.463 . S
C1969 C1974 1.350 . S
C1969 N1977 1.427 . S
C1970 H1961 0.930 . S
C1970 C1968 1.378 . S
C1970 C1971 1.367 . S
C1971 C1970 1.367 . S
C1971 C1973 1.433 . S
C1972 C1968 1.350 . S
C1972 C1969 1.463 . S
C1972 N1976 1.427 . S
C1973 H1963 0.929 . S
C1973 C1971 1.433 . S
C1973 N1976 1.384 . S
C1974 H1965 0.929 . S
C1974 C1966 1.378 . S
C1974 C1969 1.350 . S
C1975 H1962 0.929 . S
C1975 C1967 1.433 . S
C1975 N1977 1.384 . S
N1976 C1972 1.427 . S
N1976 C1973 1.384 . S
N1977 C1969 1.427 . S
N1977 C1975 1.384 . S
H1978 C1984 0.930 . S
H1979 C1988 0.930 . S
H1980 C1993 0.929 . S
H1981 C1991 0.929 . S
H1982 C1986 0.929 . S
H1983 C1992 0.929 . S
C1984 H1978 0.930 . S
C1984 C1985 1.367 . S
C1984 C1992 1.378 . S
C1985 C1984 1.367 . S
C1985 C1993 1.433 . S
C1986 H1982 0.929 . S
C1986 C1988 1.378 . S
C1986 C1990 1.350 . S
C1987 C1990 1.463 . S
C1987 C1992 1.350 . S
C1987 N1995 1.427 . S
C1988 H1979 0.930 . S
C1988 C1986 1.378 . S
C1988 C1989 1.367 . S
C1989 C1988 1.367 . S
C1989 C1991 1.433 . S
C1990 C1986 1.350 . S
C1990 C1987 1.463 . S
C1990 N1994 1.427 . S
C1991 H1981 0.929 . S
C1991 C1989 1.433 . S
C1991 N1994 1.384 . S
C1992 H1983 0.929 . S
C1992 C1984 1.378 . S
C1992 C1987 1.350 . S
C1993 H1980 0.929 . S
C1993 C1985 1.433 . S
C1993 N1995 1.384 . S
N1994 C1990 1.427 . S
N1994 C1991 1.384 . S
N1995 C1987 1.427 . S
N1995 C1993 1.384 . S
H1996 C2002 0.930 . S
H1997 C2006 0.930 . S
H1998 C2011 0.929 . S
H1999 C2009 0.929 . S
H2000 C2004 0.929 . S
H2001 C2010 0.929 . S
C2002 H1996 0.930 . S
C2002 C2003 1.367 . S
C2002 C2010 1.378 . S
C2003 C2002 1.367 . S
C2003 C2011 1.433 . S
C2004 H2000 0.929 . S
C2004 C2006 1.378 . S
C2004 C2008 1.350 . S
C2005 C2008 1.463 . S
C2005 C2010 1.350 . S
C2005 N2013 1.427 . S
C2006 H1997 0.930 . S
C2006 C2004 1.378 . S
C2006 C2007 1.367 . S
C2007 C2006 1.367 . S
C2007 C2009 1.433 . S
C2008 C2004 1.350 . S
C2008 C2005 1.463 . S
C2008 N2012 1.427 . S
C2009 H1999 0.929 . S
C2009 C2007 1.433 . S
C2009 N2012 1.384 . S
C2010 H2001 0.929 . S
C2010 C2002 1.378 . S
C2010 C2005 1.350 . S
C2011 H1998 0.929 . S
C2011 C2003 1.433 . S
C2011 N2013 1.384 . S
N2012 C2008 1.427 . S
N2012 C2009 1.384 . S
N2013 C2005 1.427 . S
N2013 C2011 1.384 . S
H2014 C2020 0.930 . S
H2015 C2024 0.930 . S
H2016 C2029 0.929 . S
H2017 C2027 0.929 . S
H2018 C2022 0.929 . S
H2019 C2028 0.929 . S
C2020 H2014 0.930 . S
C2020 C2021 1.367 . S
C2020 C2028 1.378 . S
C2021 C2020 1.367 . S
C2021 C2029 1.433 . S
C2022 H2018 0.929 . S
C2022 C2024 1.378 . S
C2022 C2026 1.350 . S
C2023 C2026 1.463 . S
C2023 C2028 1.350 . S
C2023 N2031 1.427 . S
C2024 H2015 0.930 . S
C2024 C2022 1.378 . S
C2024 C2025 1.367 . S
C2025 C2024 1.367 . S
C2025 C2027 1.433 . S
C2026 C2022 1.350 . S
C2026 C2023 1.463 . S
C2026 N2030 1.427 . S
C2027 H2017 0.929 . S
C2027 C2025 1.433 . S
C2027 N2030 1.384 . S
C2028 H2019 0.929 . S
C2028 C2020 1.378 . S
C2028 C2023 1.350 . S
C2029 H2016 0.929 . S
C2029 C2021 1.433 . S
C2029 N2031 1.384 . S
N2030 C2026 1.427 . S
N2030 C2027 1.384 . S
N2031 C2023 1.427 . S
N2031 C2029 1.384 . S
H2032 C2038 0.930 . S
H2033 C2042 0.930 . S
H2034 C2047 0.929 . S
H2035 C2045 0.929 . S
H2036 C2040 0.929 . S
H2037 C2046 0.929 . S
C2038 H2032 0.930 . S
C2038 C2039 1.367 . S
C2038 C2046 1.378 . S
C2039 C2038 1.367 . S
C2039 C2047 1.433 . S
C2040 H2036 0.929 . S
C2040 C2042 1.378 . S
C2040 C2044 1.350 . S
C2041 C2044 1.463 . S
C2041 C2046 1.350 . S
C2041 N2049 1.427 . S
C2042 H2033 0.930 . S
C2042 C2040 1.378 . S
C2042 C2043 1.367 . S
C2043 C2042 1.367 . S
C2043 C2045 1.433 . S
C2044 C2040 1.350 . S
C2044 C2041 1.463 . S
C2044 N2048 1.427 . S
C2045 H2035 0.929 . S
C2045 C2043 1.433 . S
C2045 N2048 1.384 . S
C2046 H2037 0.929 . S
C2046 C2038 1.378 . S
C2046 C2041 1.350 . S
C2047 H2034 0.929 . S
C2047 C2039 1.433 . S
C2047 N2049 1.384 . S
N2048 C2044 1.427 . S
N2048 C2045 1.384 . S
N2049 C2041 1.427 . S
N2049 C2047 1.384 . S
H2050 C2056 0.930 . S
H2051 C2060 0.930 . S
H2052 C2065 0.929 . S
H2053 C2063 0.929 . S
H2054 C2058 0.929 . S
H2055 C2064 0.929 . S
C2056 H2050 0.930 . S
C2056 C2057 1.367 . S
C2056 C2064 1.378 . S
C2057 C2056 1.367 . S
C2057 C2065 1.433 . S
C2058 H2054 0.929 . S
C2058 C2060 1.378 . S
C2058 C2062 1.350 . S
C2059 C2062 1.463 . S
C2059 C2064 1.350 . S
C2059 N2067 1.427 . S
C2060 H2051 0.930 . S
C2060 C2058 1.378 . S
C2060 C2061 1.367 . S
C2061 C2060 1.367 . S
C2061 C2063 1.433 . S
C2062 C2058 1.350 . S
C2062 C2059 1.463 . S
C2062 N2066 1.427 . S
C2063 H2053 0.929 . S
C2063 C2061 1.433 . S
C2063 N2066 1.384 . S
C2064 H2055 0.929 . S
C2064 C2056 1.378 . S
C2064 C2059 1.350 . S
C2065 H2052 0.929 . S
C2065 C2057 1.433 . S
C2065 N2067 1.384 . S
N2066 C2062 1.427 . S
N2066 C2063 1.384 . S
N2067 C2059 1.427 . S
N2067 C2065 1.384 . S
H2068 C2074 0.930 . S
H2069 C2078 0.930 . S
H2070 C2083 0.929 . S
H2071 C2081 0.929 . S
H2072 C2076 0.929 . S
H2073 C2082 0.929 . S
C2074 H2068 0.930 . S
C2074 C2075 1.367 . S
C2074 C2082 1.378 . S
C2075 C2074 1.367 . S
C2075 C2083 1.433 . S
C2076 H2072 0.929 . S
C2076 C2078 1.378 . S
C2076 C2080 1.350 . S
C2077 C2080 1.463 . S
C2077 C2082 1.350 . S
C2077 N2085 1.427 . S
C2078 H2069 0.930 . S
C2078 C2076 1.378 . S
C2078 C2079 1.367 . S
C2079 C2078 1.367 . S
C2079 C2081 1.433 . S
C2080 C2076 1.350 . S
C2080 C2077 1.463 . S
C2080 N2084 1.427 . S
C2081 H2071 0.929 . S
C2081 C2079 1.433 . S
C2081 N2084 1.384 . S
C2082 H2073 0.929 . S
C2082 C2074 1.378 . S
C2082 C2077 1.350 . S
C2083 H2070 0.929 . S
C2083 C2075 1.433 . S
C2083 N2085 1.384 . S
N2084 C2080 1.427 . S
N2084 C2081 1.384 . S
N2085 C2077 1.427 . S
N2085 C2083 1.384 . S
H2086 C2092 0.930 . S
H2087 C2096 0.930 . S
H2088 C2101 0.929 . S
H2089 C2099 0.929 . S
H2090 C2094 0.929 . S
H2091 C2100 0.929 . S
C2092 H2086 0.930 . S
C2092 C2093 1.367 . S
C2092 C2100 1.378 . S
C2093 C2092 1.367 . S
C2093 C2101 1.433 . S
C2094 H2090 0.929 . S
C2094 C2096 1.378 . S
C2094 C2098 1.350 . S
C2095 C2098 1.463 . S
C2095 C2100 1.350 . S
C2095 N2103 1.427 . S
C2096 H2087 0.930 . S
C2096 C2094 1.378 . S
C2096 C2097 1.367 . S
C2097 C2096 1.367 . S
C2097 C2099 1.433 . S
C2098 C2094 1.350 . S
C2098 C2095 1.463 . S
C2098 N2102 1.427 . S
C2099 H2089 0.929 . S
C2099 C2097 1.433 . S
C2099 N2102 1.384 . S
C2100 H2091 0.929 . S
C2100 C2092 1.378 . S
C2100 C2095 1.350 . S
C2101 H2088 0.929 . S
C2101 C2093 1.433 . S
C2101 N2103 1.384 . S
N2102 C2098 1.427 . S
N2102 C2099 1.384 . S
N2103 C2095 1.427 . S
N2103 C2101 1.384 . S
H2104 C2110 0.930 . S
H2105 C2114 0.930 . S
H2106 C2119 0.929 . S
H2107 C2117 0.929 . S
H2108 C2112 0.929 . S
H2109 C2118 0.929 . S
C2110 H2104 0.930 . S
C2110 C2111 1.367 . S
C2110 C2118 1.378 . S
C2111 C2110 1.367 . S
C2111 C2119 1.433 . S
C2112 H2108 0.929 . S
C2112 C2114 1.378 . S
C2112 C2116 1.350 . S
C2113 C2116 1.463 . S
C2113 C2118 1.350 . S
C2113 N2121 1.427 . S
C2114 H2105 0.930 . S
C2114 C2112 1.378 . S
C2114 C2115 1.367 . S
C2115 C2114 1.367 . S
C2115 C2117 1.433 . S
C2116 C2112 1.350 . S
C2116 C2113 1.463 . S
C2116 N2120 1.427 . S
C2117 H2107 0.929 . S
C2117 C2115 1.433 . S
C2117 N2120 1.384 . S
C2118 H2109 0.929 . S
C2118 C2110 1.378 . S
C2118 C2113 1.350 . S
C2119 H2106 0.929 . S
C2119 C2111 1.433 . S
C2119 N2121 1.384 . S
N2120 C2116 1.427 . S
N2120 C2117 1.384 . S
N2121 C2113 1.427 . S
N2121 C2119 1.384 . S
H2122 C2128 0.930 . S
H2123 C2132 0.930 . S
H2124 C2137 0.929 . S
H2125 C2135 0.929 . S
H2126 C2130 0.929 . S
H2127 C2136 0.929 . S
C2128 H2122 0.930 . S
C2128 C2129 1.367 . S
C2128 C2136 1.378 . S
C2129 C2128 1.367 . S
C2129 C2137 1.433 . S
C2130 H2126 0.929 . S
C2130 C2132 1.378 . S
C2130 C2134 1.350 . S
C2131 C2134 1.463 . S
C2131 C2136 1.350 . S
C2131 N2139 1.427 . S
C2132 H2123 0.930 . S
C2132 C2130 1.378 . S
C2132 C2133 1.367 . S
C2133 C2132 1.367 . S
C2133 C2135 1.433 . S
C2134 C2130 1.350 . S
C2134 C2131 1.463 . S
C2134 N2138 1.427 . S
C2135 H2125 0.929 . S
C2135 C2133 1.433 . S
C2135 N2138 1.384 . S
C2136 H2127 0.929 . S
C2136 C2128 1.378 . S
C2136 C2131 1.350 . S
C2137 H2124 0.929 . S
C2137 C2129 1.433 . S
C2137 N2139 1.384 . S
N2138 C2134 1.427 . S
N2138 C2135 1.384 . S
N2139 C2131 1.427 . S
N2139 C2137 1.384 . S
H2140 C2146 0.930 . S
H2141 C2150 0.930 . S
H2142 C2155 0.929 . S
H2143 C2153 0.929 . S
H2144 C2148 0.929 . S
H2145 C2154 0.929 . S
C2146 H2140 0.930 . S
C2146 C2147 1.367 . S
C2146 C2154 1.378 1_545 S
C2147 C2146 1.367 . S
C2147 C2155 1.433 1_545 S
C2148 H2144 0.929 . S
C2148 C2150 1.378 . S
C2148 C2152 1.350 . S
C2149 C2152 1.463 . S
C2149 C2154 1.350 . S
C2149 N2157 1.427 . S
C2150 H2141 0.930 . S
C2150 C2148 1.378 . S
C2150 C2151 1.367 . S
C2151 C2150 1.367 . S
C2151 C2153 1.433 . S
C2152 C2148 1.350 . S
C2152 C2149 1.463 . S
C2152 N2156 1.427 . S
C2153 H2143 0.929 . S
C2153 C2151 1.433 . S
C2153 N2156 1.384 . S
C2154 H2145 0.929 . S
C2154 C2146 1.378 1_565 S
C2154 C2149 1.350 . S
C2155 H2142 0.929 . S
C2155 C2147 1.433 1_565 S
C2155 N2157 1.384 . S
N2156 C2152 1.427 . S
N2156 C2153 1.384 . S
N2157 C2149 1.427 . S
N2157 C2155 1.384 . S
H2158 C2164 0.930 . S
H2159 C2168 0.930 . S
H2160 C2173 0.929 . S
H2161 C2171 0.929 1_545 S
H2162 C2166 0.929 . S
H2163 C2172 0.929 . S
C2164 H2158 0.930 . S
C2164 C2165 1.367 . S
C2164 C2172 1.378 . S
C2165 C2164 1.367 . S
C2165 C2173 1.433 . S
C2166 H2162 0.929 . S
C2166 C2168 1.378 . S
C2166 C2170 1.350 . S
C2167 C2170 1.463 . S
C2167 C2172 1.350 . S
C2167 N2175 1.427 . S
C2168 H2159 0.930 . S
C2168 C2166 1.378 . S
C2168 C2169 1.367 . S
C2169 C2168 1.367 . S
C2169 C2171 1.433 . S
C2170 C2166 1.350 . S
C2170 C2167 1.463 . S
C2170 N2174 1.427 . S
C2171 H2161 0.929 1_565 S
C2171 C2169 1.433 . S
C2171 N2174 1.384 . S
C2172 H2163 0.929 . S
C2172 C2164 1.378 . S
C2172 C2167 1.350 . S
C2173 H2160 0.929 . S
C2173 C2165 1.433 . S
C2173 N2175 1.384 . S
N2174 C2170 1.427 . S
N2174 C2171 1.384 . S
N2175 C2167 1.427 . S
N2175 C2173 1.384 . S
H2176 C2182 0.930 . S
H2177 C2186 0.930 . S
H2178 C2191 0.929 . S
H2179 C2189 0.929 . S
H2180 C2184 0.929 . S
H2181 C2190 0.929 . S
C2182 H2176 0.930 . S
C2182 C2183 1.367 . S
C2182 C2190 1.378 . S
C2183 C2182 1.367 . S
C2183 C2191 1.433 . S
C2184 H2180 0.929 . S
C2184 C2186 1.378 . S
C2184 C2188 1.350 . S
C2185 C2188 1.463 . S
C2185 C2190 1.350 . S
C2185 N2193 1.427 . S
C2186 H2177 0.930 . S
C2186 C2184 1.378 . S
C2186 C2187 1.367 . S
C2187 C2186 1.367 . S
C2187 C2189 1.433 . S
C2188 C2184 1.350 . S
C2188 C2185 1.463 . S
C2188 N2192 1.427 . S
C2189 H2179 0.929 . S
C2189 C2187 1.433 . S
C2189 N2192 1.384 . S
C2190 H2181 0.929 . S
C2190 C2182 1.378 . S
C2190 C2185 1.350 . S
C2191 H2178 0.929 . S
C2191 C2183 1.433 . S
C2191 N2193 1.384 . S
N2192 C2188 1.427 . S
N2192 C2189 1.384 . S
N2193 C2185 1.427 . S
N2193 C2191 1.384 . S
H2194 C2200 0.930 1_556 S
H2195 C2204 0.930 . S
H2196 C2209 0.929 . S
H2197 C2207 0.929 1_556 S
H2198 C2202 0.929 . S
H2199 C2208 0.929 1_556 S
C2200 H2194 0.930 1_554 S
C2200 C2201 1.367 . S
C2200 C2208 1.378 . S
C2201 C2200 1.367 . S
C2201 C2209 1.433 . S
C2202 H2198 0.929 . S
C2202 C2204 1.378 . S
C2202 C2206 1.350 . S
C2203 C2206 1.463 . S
C2203 C2208 1.350 . S
C2203 N2211 1.427 . S
C2204 H2195 0.930 . S
C2204 C2202 1.378 . S
C2204 C2205 1.367 . S
C2205 C2204 1.367 . S
C2205 C2207 1.433 . S
C2206 C2202 1.350 . S
C2206 C2203 1.463 . S
C2206 N2210 1.427 . S
C2207 H2197 0.929 1_554 S
C2207 C2205 1.433 . S
C2207 N2210 1.384 . S
C2208 H2199 0.929 1_554 S
C2208 C2200 1.378 . S
C2208 C2203 1.350 . S
C2209 H2196 0.929 . S
C2209 C2201 1.433 . S
C2209 N2211 1.384 . S
N2210 C2206 1.427 . S
N2210 C2207 1.384 . S
N2211 C2203 1.427 . S
N2211 C2209 1.384 . S
H2212 C2218 0.930 . S
H2213 C2222 0.930 . S
H2214 C2227 0.929 . S
H2215 C2225 0.929 . S
H2216 C2220 0.929 . S
H2217 C2226 0.929 . S
C2218 H2212 0.930 . S
C2218 C2219 1.367 . S
C2218 C2226 1.378 . S
C2219 C2218 1.367 . S
C2219 C2227 1.433 . S
C2220 H2216 0.929 . S
C2220 C2222 1.378 . S
C2220 C2224 1.350 . S
C2221 C2224 1.463 . S
C2221 C2226 1.350 . S
C2221 N2229 1.427 . S
C2222 H2213 0.930 . S
C2222 C2220 1.378 . S
C2222 C2223 1.367 . S
C2223 C2222 1.367 . S
C2223 C2225 1.433 . S
C2224 C2220 1.350 . S
C2224 C2221 1.463 . S
C2224 N2228 1.427 . S
C2225 H2215 0.929 . S
C2225 C2223 1.433 . S
C2225 N2228 1.384 . S
C2226 H2217 0.929 . S
C2226 C2218 1.378 . S
C2226 C2221 1.350 . S
C2227 H2214 0.929 . S
C2227 C2219 1.433 . S
C2227 N2229 1.384 . S
N2228 C2224 1.427 . S
N2228 C2225 1.384 . S
N2229 C2221 1.427 . S
N2229 C2227 1.384 . S
H2230 C2236 0.930 . S
H2231 C2240 0.930 . S
H2232 C2245 0.929 . S
H2233 C2243 0.929 . S
H2234 C2238 0.929 . S
H2235 C2244 0.929 . S
C2236 H2230 0.930 . S
C2236 C2237 1.367 . S
C2236 C2244 1.378 1_545 S
C2237 C2236 1.367 . S
C2237 C2245 1.433 1_545 S
C2238 H2234 0.929 . S
C2238 C2240 1.378 . S
C2238 C2242 1.350 . S
C2239 C2242 1.463 . S
C2239 C2244 1.350 . S
C2239 N2247 1.427 . S
C2240 H2231 0.930 . S
C2240 C2238 1.378 . S
C2240 C2241 1.367 . S
C2241 C2240 1.367 . S
C2241 C2243 1.433 . S
C2242 C2238 1.350 . S
C2242 C2239 1.463 . S
C2242 N2246 1.427 . S
C2243 H2233 0.929 . S
C2243 C2241 1.433 . S
C2243 N2246 1.384 . S
C2244 H2235 0.929 . S
C2244 C2236 1.378 1_565 S
C2244 C2239 1.350 . S
C2245 H2232 0.929 . S
C2245 C2237 1.433 1_565 S
C2245 N2247 1.384 . S
N2246 C2242 1.427 . S
N2246 C2243 1.384 . S
N2247 C2239 1.427 . S
N2247 C2245 1.384 . S
H2248 C2254 0.930 . S
H2249 C2258 0.930 . S
H2250 C2263 0.929 . S
H2251 C2261 0.929 . S
H2252 C2256 0.929 . S
H2253 C2262 0.929 . S
C2254 H2248 0.930 . S
C2254 C2255 1.367 . S
C2254 C2262 1.378 . S
C2255 C2254 1.367 . S
C2255 C2263 1.433 . S
C2256 H2252 0.929 . S
C2256 C2258 1.378 . S
C2256 C2260 1.350 . S
C2257 C2260 1.463 . S
C2257 C2262 1.350 . S
C2257 N2265 1.427 . S
C2258 H2249 0.930 . S
C2258 C2256 1.378 . S
C2258 C2259 1.367 . S
C2259 C2258 1.367 . S
C2259 C2261 1.433 . S
C2260 C2256 1.350 . S
C2260 C2257 1.463 . S
C2260 N2264 1.427 . S
C2261 H2251 0.929 . S
C2261 C2259 1.433 . S
C2261 N2264 1.384 . S
C2262 H2253 0.929 . S
C2262 C2254 1.378 . S
C2262 C2257 1.350 . S
C2263 H2250 0.929 . S
C2263 C2255 1.433 . S
C2263 N2265 1.384 . S
N2264 C2260 1.427 . S
N2264 C2261 1.384 . S
N2265 C2257 1.427 . S
N2265 C2263 1.384 . S
H2266 C2272 0.930 . S
H2267 C2276 0.930 . S
H2268 C2281 0.929 . S
H2269 C2279 0.929 . S
H2270 C2274 0.929 . S
H2271 C2280 0.929 . S
C2272 H2266 0.930 . S
C2272 C2273 1.367 . S
C2272 C2280 1.378 . S
C2273 C2272 1.367 . S
C2273 C2281 1.433 . S
C2274 H2270 0.929 . S
C2274 C2276 1.378 . S
C2274 C2278 1.350 . S
C2275 C2278 1.463 . S
C2275 C2280 1.350 . S
C2275 N2283 1.427 . S
C2276 H2267 0.930 . S
C2276 C2274 1.378 . S
C2276 C2277 1.367 . S
C2277 C2276 1.367 . S
C2277 C2279 1.433 . S
C2278 C2274 1.350 . S
C2278 C2275 1.463 . S
C2278 N2282 1.427 . S
C2279 H2269 0.929 . S
C2279 C2277 1.433 . S
C2279 N2282 1.384 . S
C2280 H2271 0.929 . S
C2280 C2272 1.378 . S
C2280 C2275 1.350 . S
C2281 H2268 0.929 . S
C2281 C2273 1.433 . S
C2281 N2283 1.384 . S
N2282 C2278 1.427 . S
N2282 C2279 1.384 . S
N2283 C2275 1.427 . S
N2283 C2281 1.384 . S
H2284 C2290 0.930 . S
H2285 C2294 0.930 . S
H2286 C2299 0.929 . S
H2287 C2297 0.929 . S
H2288 C2292 0.929 . S
H2289 C2298 0.929 . S
C2290 H2284 0.930 . S
C2290 C2291 1.367 . S
C2290 C2298 1.378 . S
C2291 C2290 1.367 . S
C2291 C2299 1.433 . S
C2292 H2288 0.929 . S
C2292 C2294 1.378 . S
C2292 C2296 1.350 . S
C2293 C2296 1.463 . S
C2293 C2298 1.350 . S
C2293 N2301 1.427 . S
C2294 H2285 0.930 . S
C2294 C2292 1.378 . S
C2294 C2295 1.367 . S
C2295 C2294 1.367 . S
C2295 C2297 1.433 . S
C2296 C2292 1.350 . S
C2296 C2293 1.463 . S
C2296 N2300 1.427 . S
C2297 H2287 0.929 . S
C2297 C2295 1.433 . S
C2297 N2300 1.384 . S
C2298 H2289 0.929 . S
C2298 C2290 1.378 . S
C2298 C2293 1.350 . S
C2299 H2286 0.929 . S
C2299 C2291 1.433 . S
C2299 N2301 1.384 . S
N2300 C2296 1.427 . S
N2300 C2297 1.384 . S
N2301 C2293 1.427 . S
N2301 C2299 1.384 . S
H2302 C2308 0.930 . S
H2303 C2312 0.930 . S
H2304 C2317 0.929 . S
H2305 C2315 0.929 . S
H2306 C2310 0.929 . S
H2307 C2316 0.929 . S
C2308 H2302 0.930 . S
C2308 C2309 1.367 . S
C2308 C2316 1.378 . S
C2309 C2308 1.367 . S
C2309 C2317 1.433 . S
C2310 H2306 0.929 . S
C2310 C2312 1.378 . S
C2310 C2314 1.350 . S
C2311 C2314 1.463 . S
C2311 C2316 1.350 . S
C2311 N2319 1.427 . S
C2312 H2303 0.930 . S
C2312 C2310 1.378 . S
C2312 C2313 1.367 . S
C2313 C2312 1.367 . S
C2313 C2315 1.433 . S
C2314 C2310 1.350 . S
C2314 C2311 1.463 . S
C2314 N2318 1.427 . S
C2315 H2305 0.929 . S
C2315 C2313 1.433 . S
C2315 N2318 1.384 . S
C2316 H2307 0.929 . S
C2316 C2308 1.378 . S
C2316 C2311 1.350 . S
C2317 H2304 0.929 . S
C2317 C2309 1.433 . S
C2317 N2319 1.384 . S
N2318 C2314 1.427 . S
N2318 C2315 1.384 . S
N2319 C2311 1.427 . S
N2319 C2317 1.384 . S
H2320 C2326 0.930 . S
H2321 C2330 0.930 . S
H2322 C2335 0.929 . S
H2323 C2333 0.930 . S
H2324 C2328 0.929 . S
H2325 C2334 0.929 . S
C2326 H2320 0.930 . S
C2326 C2327 1.367 . S
C2326 C2334 1.378 . S
C2327 C2326 1.367 . S
C2327 C2335 1.433 . S
C2328 H2324 0.929 . S
C2328 C2330 1.378 . S
C2328 C2332 1.350 . S
C2329 C2332 1.463 . S
C2329 C2334 1.350 . S
C2329 N2337 1.427 . S
C2330 H2321 0.930 . S
C2330 C2328 1.378 . S
C2330 C2331 1.367 . S
C2331 C2330 1.367 . S
C2331 C2333 1.433 1_556 S
C2332 C2328 1.350 . S
C2332 C2329 1.463 . S
C2332 N2336 1.427 . S
C2333 H2323 0.930 . S
C2333 C2331 1.433 1_554 S
C2333 N2336 1.383 1_554 S
C2334 H2325 0.929 . S
C2334 C2326 1.378 . S
C2334 C2329 1.350 . S
C2335 H2322 0.929 . S
C2335 C2327 1.433 . S
C2335 N2337 1.384 . S
N2336 C2332 1.427 . S
N2336 C2333 1.383 1_556 S
N2337 C2329 1.427 . S
N2337 C2335 1.384 . S
H2338 C2344 0.930 . S
H2339 C2348 0.930 . S
H2340 C2353 0.929 . S
H2341 C2351 0.929 . S
H2342 C2346 0.929 . S
H2343 C2352 0.929 . S
C2344 H2338 0.930 . S
C2344 C2345 1.367 . S
C2344 C2352 1.378 . S
C2345 C2344 1.367 . S
C2345 C2353 1.433 . S
C2346 H2342 0.929 . S
C2346 C2348 1.378 . S
C2346 C2350 1.350 . S
C2347 C2350 1.463 . S
C2347 C2352 1.350 . S
C2347 N2355 1.427 . S
C2348 H2339 0.930 . S
C2348 C2346 1.378 . S
C2348 C2349 1.367 . S
C2349 C2348 1.367 . S
C2349 C2351 1.433 . S
C2350 C2346 1.350 . S
C2350 C2347 1.463 . S
C2350 N2354 1.427 . S
C2351 H2341 0.929 . S
C2351 C2349 1.433 . S
C2351 N2354 1.384 . S
C2352 H2343 0.929 . S
C2352 C2344 1.378 . S
C2352 C2347 1.350 . S
C2353 H2340 0.929 . S
C2353 C2345 1.433 . S
C2353 N2355 1.384 . S
N2354 C2350 1.427 . S
N2354 C2351 1.384 . S
N2355 C2347 1.427 . S
N2355 C2353 1.384 . S
H2356 C2362 0.930 . S
H2357 C2366 0.930 . S
H2358 C2371 0.929 . S
H2359 C2369 0.929 . S
H2360 C2364 0.929 . S
H2361 C2370 0.929 . S
C2362 H2356 0.930 . S
C2362 C2363 1.367 . S
C2362 C2370 1.378 . S
C2363 C2362 1.367 . S
C2363 C2371 1.433 . S
C2364 H2360 0.929 . S
C2364 C2366 1.378 . S
C2364 C2368 1.350 . S
C2365 C2368 1.463 . S
C2365 C2370 1.350 . S
C2365 N2373 1.427 . S
C2366 H2357 0.930 . S
C2366 C2364 1.378 . S
C2366 C2367 1.367 . S
C2367 C2366 1.367 . S
C2367 C2369 1.433 . S
C2368 C2364 1.350 . S
C2368 C2365 1.463 . S
C2368 N2372 1.427 . S
C2369 H2359 0.929 . S
C2369 C2367 1.433 . S
C2369 N2372 1.384 . S
C2370 H2361 0.929 . S
C2370 C2362 1.378 . S
C2370 C2365 1.350 . S
C2371 H2358 0.929 . S
C2371 C2363 1.433 . S
C2371 N2373 1.384 . S
N2372 C2368 1.427 . S
N2372 C2369 1.384 . S
N2373 C2365 1.427 . S
N2373 C2371 1.384 . S
H2374 C2380 0.930 . S
H2375 C2384 0.930 . S
H2376 C2389 0.929 . S
H2377 C2387 0.929 . S
H2378 C2382 0.929 . S
H2379 C2388 0.929 . S
C2380 H2374 0.930 . S
C2380 C2381 1.367 . S
C2380 C2388 1.378 . S
C2381 C2380 1.367 . S
C2381 C2389 1.433 . S
C2382 H2378 0.929 . S
C2382 C2384 1.378 . S
C2382 C2386 1.350 . S
C2383 C2386 1.463 . S
C2383 C2388 1.350 . S
C2383 N2391 1.427 . S
C2384 H2375 0.930 . S
C2384 C2382 1.378 . S
C2384 C2385 1.367 . S
C2385 C2384 1.367 . S
C2385 C2387 1.433 . S
C2386 C2382 1.350 . S
C2386 C2383 1.463 . S
C2386 N2390 1.427 . S
C2387 H2377 0.929 . S
C2387 C2385 1.433 . S
C2387 N2390 1.384 . S
C2388 H2379 0.929 . S
C2388 C2380 1.378 . S
C2388 C2383 1.350 . S
C2389 H2376 0.929 . S
C2389 C2381 1.433 . S
C2389 N2391 1.384 . S
N2390 C2386 1.427 . S
N2390 C2387 1.384 . S
N2391 C2383 1.427 . S
N2391 C2389 1.384 . S
H2392 C2398 0.930 . S
H2393 C2402 0.930 . S
H2394 C2407 0.929 . S
H2395 C2405 0.929 . S
H2396 C2400 0.929 . S
H2397 C2406 0.929 . S
C2398 H2392 0.930 . S
C2398 C2399 1.367 . S
C2398 C2406 1.378 . S
C2399 C2398 1.367 . S
C2399 C2407 1.433 . S
C2400 H2396 0.929 . S
C2400 C2402 1.378 . S
C2400 C2404 1.350 . S
C2401 C2404 1.463 . S
C2401 C2406 1.350 . S
C2401 N2409 1.427 . S
C2402 H2393 0.930 . S
C2402 C2400 1.378 . S
C2402 C2403 1.367 . S
C2403 C2402 1.367 . S
C2403 C2405 1.433 . S
C2404 C2400 1.350 . S
C2404 C2401 1.463 . S
C2404 N2408 1.427 . S
C2405 H2395 0.929 . S
C2405 C2403 1.433 . S
C2405 N2408 1.384 . S
C2406 H2397 0.929 . S
C2406 C2398 1.378 . S
C2406 C2401 1.350 . S
C2407 H2394 0.929 . S
C2407 C2399 1.433 . S
C2407 N2409 1.384 . S
N2408 C2404 1.427 . S
N2408 C2405 1.384 . S
N2409 C2401 1.427 . S
N2409 C2407 1.384 . S
H2410 C2416 0.930 . S
H2411 C2420 0.930 . S
H2412 C2425 0.929 . S
H2413 C2423 0.929 . S
H2414 C2418 0.929 . S
H2415 C2424 0.929 . S
C2416 H2410 0.930 . S
C2416 C2417 1.367 . S
C2416 C2424 1.378 . S
C2417 C2416 1.367 . S
C2417 C2425 1.433 . S
C2418 H2414 0.929 . S
C2418 C2420 1.378 . S
C2418 C2422 1.350 . S
C2419 C2422 1.463 . S
C2419 C2424 1.350 . S
C2419 N2427 1.427 . S
C2420 H2411 0.930 . S
C2420 C2418 1.378 . S
C2420 C2421 1.367 . S
C2421 C2420 1.367 . S
C2421 C2423 1.433 . S
C2422 C2418 1.350 . S
C2422 C2419 1.463 . S
C2422 N2426 1.427 . S
C2423 H2413 0.929 . S
C2423 C2421 1.433 . S
C2423 N2426 1.384 . S
C2424 H2415 0.929 . S
C2424 C2416 1.378 . S
C2424 C2419 1.350 . S
C2425 H2412 0.929 . S
C2425 C2417 1.433 . S
C2425 N2427 1.384 . S
N2426 C2422 1.427 . S
N2426 C2423 1.384 . S
N2427 C2419 1.427 . S
N2427 C2425 1.384 . S
H2428 C2434 0.930 1_655 S
H2429 C2438 0.930 . S
H2430 C2443 0.929 . S
H2431 C2441 0.929 . S
H2432 C2436 0.929 . S
H2433 C2442 0.929 . S
C2434 H2428 0.930 1_455 S
C2434 C2435 1.367 . S
C2434 C2442 1.378 . S
C2435 C2434 1.367 . S
C2435 C2443 1.433 . S
C2436 H2432 0.929 . S
C2436 C2438 1.378 . S
C2436 C2440 1.350 . S
C2437 C2440 1.463 . S
C2437 C2442 1.350 . S
C2437 N2445 1.427 . S
C2438 H2429 0.930 . S
C2438 C2436 1.378 . S
C2438 C2439 1.367 . S
C2439 C2438 1.367 . S
C2439 C2441 1.433 . S
C2440 C2436 1.350 . S
C2440 C2437 1.463 . S
C2440 N2444 1.427 . S
C2441 H2431 0.929 . S
C2441 C2439 1.433 . S
C2441 N2444 1.384 . S
C2442 H2433 0.929 . S
C2442 C2434 1.378 . S
C2442 C2437 1.350 . S
C2443 H2430 0.929 . S
C2443 C2435 1.433 . S
C2443 N2445 1.384 . S
N2444 C2440 1.427 . S
N2444 C2441 1.384 . S
N2445 C2437 1.427 . S
N2445 C2443 1.384 . S
H2446 C2452 0.930 . S
H2447 C2456 0.930 . S
H2448 C2461 0.929 . S
H2449 C2459 0.929 . S
H2450 C2454 0.929 . S
H2451 C2460 0.929 . S
C2452 H2446 0.930 . S
C2452 C2453 1.367 . S
C2452 C2460 1.378 . S
C2453 C2452 1.367 . S
C2453 C2461 1.433 . S
C2454 H2450 0.929 . S
C2454 C2456 1.378 . S
C2454 C2458 1.350 . S
C2455 C2458 1.463 . S
C2455 C2460 1.350 . S
C2455 N2463 1.427 . S
C2456 H2447 0.930 . S
C2456 C2454 1.378 . S
C2456 C2457 1.367 . S
C2457 C2456 1.367 . S
C2457 C2459 1.433 . S
C2458 C2454 1.350 . S
C2458 C2455 1.463 . S
C2458 N2462 1.427 . S
C2459 H2449 0.929 . S
C2459 C2457 1.433 . S
C2459 N2462 1.384 . S
C2460 H2451 0.929 . S
C2460 C2452 1.378 . S
C2460 C2455 1.350 . S
C2461 H2448 0.929 . S
C2461 C2453 1.433 . S
C2461 N2463 1.384 . S
N2462 C2458 1.427 . S
N2462 C2459 1.384 . S
N2463 C2455 1.427 . S
N2463 C2461 1.384 . S
H2464 C2470 0.930 . S
H2465 C2474 0.930 . S
H2466 C2479 0.929 . S
H2467 C2477 0.929 . S
H2468 C2472 0.929 . S
H2469 C2478 0.929 . S
C2470 H2464 0.930 . S
C2470 C2471 1.367 . S
C2470 C2478 1.378 . S
C2471 C2470 1.367 . S
C2471 C2479 1.433 . S
C2472 H2468 0.929 . S
C2472 C2474 1.378 . S
C2472 C2476 1.350 . S
C2473 C2476 1.463 . S
C2473 C2478 1.350 . S
C2473 N2481 1.427 . S
C2474 H2465 0.930 . S
C2474 C2472 1.378 . S
C2474 C2475 1.367 . S
C2475 C2474 1.367 . S
C2475 C2477 1.433 . S
C2476 C2472 1.350 . S
C2476 C2473 1.463 . S
C2476 N2480 1.427 . S
C2477 H2467 0.929 . S
C2477 C2475 1.433 . S
C2477 N2480 1.384 . S
C2478 H2469 0.929 . S
C2478 C2470 1.378 . S
C2478 C2473 1.350 . S
C2479 H2466 0.929 . S
C2479 C2471 1.433 . S
C2479 N2481 1.384 . S
N2480 C2476 1.427 . S
N2480 C2477 1.384 . S
N2481 C2473 1.427 . S
N2481 C2479 1.384 . S
H2482 C2488 0.930 . S
H2483 C2492 0.930 . S
H2484 C2497 0.929 . S
H2485 C2495 0.929 . S
H2486 C2490 0.929 . S
H2487 C2496 0.929 . S
C2488 H2482 0.930 . S
C2488 C2489 1.367 . S
C2488 C2496 1.378 . S
C2489 C2488 1.367 . S
C2489 C2497 1.433 . S
C2490 H2486 0.929 . S
C2490 C2492 1.378 . S
C2490 C2494 1.350 . S
C2491 C2494 1.463 . S
C2491 C2496 1.350 . S
C2491 N2499 1.427 . S
C2492 H2483 0.930 . S
C2492 C2490 1.378 . S
C2492 C2493 1.367 . S
C2493 C2492 1.367 . S
C2493 C2495 1.433 . S
C2494 C2490 1.350 . S
C2494 C2491 1.463 . S
C2494 N2498 1.427 . S
C2495 H2485 0.929 . S
C2495 C2493 1.433 . S
C2495 N2498 1.384 . S
C2496 H2487 0.929 . S
C2496 C2488 1.378 . S
C2496 C2491 1.350 . S
C2497 H2484 0.929 . S
C2497 C2489 1.433 . S
C2497 N2499 1.384 . S
N2498 C2494 1.427 . S
N2498 C2495 1.384 . S
N2499 C2491 1.427 . S
N2499 C2497 1.384 . S
H2500 C2506 0.930 . S
H2501 C2510 0.930 . S
H2502 C2515 0.929 . S
H2503 C2513 0.929 . S
H2504 C2508 0.929 . S
H2505 C2514 0.929 . S
C2506 H2500 0.930 . S
C2506 C2507 1.367 . S
C2506 C2514 1.378 . S
C2507 C2506 1.367 . S
C2507 C2515 1.433 . S
C2508 H2504 0.929 . S
C2508 C2510 1.378 . S
C2508 C2512 1.350 . S
C2509 C2512 1.463 . S
C2509 C2514 1.350 . S
C2509 N2517 1.427 . S
C2510 H2501 0.930 . S
C2510 C2508 1.378 . S
C2510 C2511 1.367 . S
C2511 C2510 1.367 . S
C2511 C2513 1.433 . S
C2512 C2508 1.350 . S
C2512 C2509 1.463 . S
C2512 N2516 1.427 . S
C2513 H2503 0.929 . S
C2513 C2511 1.433 . S
C2513 N2516 1.384 . S
C2514 H2505 0.929 . S
C2514 C2506 1.378 . S
C2514 C2509 1.350 . S
C2515 H2502 0.929 . S
C2515 C2507 1.433 . S
C2515 N2517 1.384 . S
N2516 C2512 1.427 . S
N2516 C2513 1.384 . S
N2517 C2509 1.427 . S
N2517 C2515 1.384 . S
H2518 C2524 0.930 . S
H2519 C2528 0.930 . S
H2520 C2533 0.929 . S
H2521 C2531 0.929 . S
H2522 C2526 0.929 . S
H2523 C2532 0.929 . S
C2524 H2518 0.930 . S
C2524 C2525 1.367 . S
C2524 C2532 1.378 . S
C2525 C2524 1.367 . S
C2525 C2533 1.433 . S
C2526 H2522 0.929 . S
C2526 C2528 1.378 . S
C2526 C2530 1.350 . S
C2527 C2530 1.463 . S
C2527 C2532 1.350 . S
C2527 N2535 1.427 . S
C2528 H2519 0.930 . S
C2528 C2526 1.378 . S
C2528 C2529 1.367 . S
C2529 C2528 1.367 . S
C2529 C2531 1.433 . S
C2530 C2526 1.350 . S
C2530 C2527 1.463 . S
C2530 N2534 1.427 . S
C2531 H2521 0.929 . S
C2531 C2529 1.433 . S
C2531 N2534 1.384 . S
C2532 H2523 0.929 . S
C2532 C2524 1.378 . S
C2532 C2527 1.350 . S
C2533 H2520 0.929 . S
C2533 C2525 1.433 . S
C2533 N2535 1.384 . S
N2534 C2530 1.427 . S
N2534 C2531 1.384 . S
N2535 C2527 1.427 . S
N2535 C2533 1.384 . S
H2536 C2542 0.930 . S
H2537 C2546 0.930 . S
H2538 C2551 0.929 . S
H2539 C2549 0.929 . S
H2540 C2544 0.929 . S
H2541 C2550 0.929 . S
C2542 H2536 0.930 . S
C2542 C2543 1.367 . S
C2542 C2550 1.378 . S
C2543 C2542 1.367 . S
C2543 C2551 1.433 . S
C2544 H2540 0.929 . S
C2544 C2546 1.378 . S
C2544 C2548 1.350 . S
C2545 C2548 1.463 . S
C2545 C2550 1.350 . S
C2545 N2553 1.427 . S
C2546 H2537 0.930 . S
C2546 C2544 1.378 . S
C2546 C2547 1.367 . S
C2547 C2546 1.367 . S
C2547 C2549 1.433 . S
C2548 C2544 1.350 . S
C2548 C2545 1.463 . S
C2548 N2552 1.427 . S
C2549 H2539 0.929 . S
C2549 C2547 1.433 . S
C2549 N2552 1.384 . S
C2550 H2541 0.929 . S
C2550 C2542 1.378 . S
C2550 C2545 1.350 . S
C2551 H2538 0.929 . S
C2551 C2543 1.433 . S
C2551 N2553 1.384 . S
N2552 C2548 1.427 . S
N2552 C2549 1.384 . S
N2553 C2545 1.427 . S
N2553 C2551 1.384 . S
H2554 C2560 0.930 . S
H2555 C2564 0.930 . S
H2556 C2569 0.929 . S
H2557 C2567 0.929 . S
H2558 C2562 0.929 . S
H2559 C2568 0.929 . S
C2560 H2554 0.930 . S
C2560 C2561 1.367 . S
C2560 C2568 1.378 . S
C2561 C2560 1.367 . S
C2561 C2569 1.433 . S
C2562 H2558 0.929 . S
C2562 C2564 1.378 . S
C2562 C2566 1.350 . S
C2563 C2566 1.463 . S
C2563 C2568 1.350 . S
C2563 N2571 1.427 . S
C2564 H2555 0.930 . S
C2564 C2562 1.378 . S
C2564 C2565 1.367 1_565 S
C2565 C2564 1.367 1_545 S
C2565 C2567 1.433 . S
C2566 C2562 1.350 . S
C2566 C2563 1.463 . S
C2566 N2570 1.453 . S
C2567 H2557 0.929 . S
C2567 C2565 1.433 . S
C2567 N2570 1.374 1_545 S
C2568 H2559 0.929 . S
C2568 C2560 1.378 . S
C2568 C2563 1.350 . S
C2569 H2556 0.929 . S
C2569 C2561 1.433 . S
C2569 N2571 1.384 . S
N2570 C2566 1.453 . S
N2570 C2567 1.374 1_565 S
N2571 C2563 1.427 . S
N2571 C2569 1.384 . S
H2572 C2578 0.930 . S
H2573 C2582 0.930 . S
H2574 C2587 0.929 . S
H2575 C2585 0.929 . S
H2576 C2580 0.929 . S
H2577 C2586 0.929 . S
C2578 H2572 0.930 . S
C2578 C2579 1.367 . S
C2578 C2586 1.378 . S
C2579 C2578 1.367 . S
C2579 C2587 1.433 . S
C2580 H2576 0.929 . S
C2580 C2582 1.378 . S
C2580 C2584 1.350 . S
C2581 C2584 1.463 . S
C2581 C2586 1.350 . S
C2581 N2589 1.427 . S
C2582 H2573 0.930 . S
C2582 C2580 1.378 . S
C2582 C2583 1.367 . S
C2583 C2582 1.367 . S
C2583 C2585 1.433 . S
C2584 C2580 1.350 . S
C2584 C2581 1.463 . S
C2584 N2588 1.427 . S
C2585 H2575 0.929 . S
C2585 C2583 1.433 . S
C2585 N2588 1.384 . S
C2586 H2577 0.929 . S
C2586 C2578 1.378 . S
C2586 C2581 1.350 . S
C2587 H2574 0.929 . S
C2587 C2579 1.433 . S
C2587 N2589 1.384 . S
N2588 C2584 1.427 . S
N2588 C2585 1.384 . S
N2589 C2581 1.427 . S
N2589 C2587 1.384 . S
H2590 C2596 0.930 . S
H2591 C2600 0.930 . S
H2592 C2605 0.929 . S
H2593 C2603 0.929 . S
H2594 C2598 0.929 . S
H2595 C2604 0.929 . S
C2596 H2590 0.930 . S
C2596 C2597 1.367 1_554 S
C2596 C2604 1.378 . S
C2597 C2596 1.367 1_556 S
C2597 C2605 1.433 . S
C2598 H2594 0.929 . S
C2598 C2600 1.378 . S
C2598 C2602 1.350 1_556 S
C2599 C2602 1.463 . S
C2599 C2604 1.350 . S
C2599 N2607 1.427 1_554 S
C2600 H2591 0.930 . S
C2600 C2598 1.378 . S
C2600 C2601 1.367 1_556 S
C2601 C2600 1.367 1_554 S
C2601 C2603 1.433 . S
C2602 C2598 1.350 1_554 S
C2602 C2599 1.463 . S
C2602 N2606 1.427 . S
C2603 H2593 0.929 . S
C2603 C2601 1.433 . S
C2603 N2606 1.384 . S
C2604 H2595 0.929 . S
C2604 C2596 1.378 . S
C2604 C2599 1.350 . S
C2605 H2592 0.929 . S
C2605 C2597 1.433 . S
C2605 N2607 1.384 . S
N2606 C2602 1.427 . S
N2606 C2603 1.384 . S
N2607 C2599 1.427 1_556 S
N2607 C2605 1.384 . S
H2608 C2614 0.930 . S
H2609 C2618 0.930 . S
H2610 C2623 0.929 . S
H2611 C2621 0.929 . S
H2612 C2616 0.929 . S
H2613 C2622 0.929 . S
C2614 H2608 0.930 . S
C2614 C2615 1.367 . S
C2614 C2622 1.378 . S
C2615 C2614 1.367 . S
C2615 C2623 1.433 . S
C2616 H2612 0.929 . S
C2616 C2618 1.378 . S
C2616 C2620 1.350 . S
C2617 C2620 1.463 . S
C2617 C2622 1.350 . S
C2617 N2625 1.427 . S
C2618 H2609 0.930 . S
C2618 C2616 1.378 . S
C2618 C2619 1.367 . S
C2619 C2618 1.367 . S
C2619 C2621 1.433 . S
C2620 C2616 1.350 . S
C2620 C2617 1.463 . S
C2620 N2624 1.427 . S
C2621 H2611 0.929 . S
C2621 C2619 1.433 . S
C2621 N2624 1.384 . S
C2622 H2613 0.929 . S
C2622 C2614 1.378 . S
C2622 C2617 1.350 . S
C2623 H2610 0.929 . S
C2623 C2615 1.433 . S
C2623 N2625 1.384 . S
N2624 C2620 1.427 . S
N2624 C2621 1.384 . S
N2625 C2617 1.427 . S
N2625 C2623 1.384 . S
H2626 C2632 0.930 . S
H2627 C2636 0.930 . S
H2628 C2641 0.929 1_556 S
H2629 C2639 0.929 . S
H2630 C2634 0.929 . S
H2631 C2640 0.929 . S
C2632 H2626 0.930 . S
C2632 C2633 1.367 . S
C2632 C2640 1.378 . S
C2633 C2632 1.367 . S
C2633 C2641 1.433 . S
C2634 H2630 0.929 . S
C2634 C2636 1.378 . S
C2634 C2638 1.350 1_556 S
C2635 C2638 1.463 . S
C2635 C2640 1.350 . S
C2635 N2643 1.460 . S
C2636 H2627 0.930 . S
C2636 C2634 1.378 . S
C2636 C2637 1.367 1_556 S
C2637 C2636 1.367 1_554 S
C2637 C2639 1.433 . S
C2638 C2634 1.350 1_554 S
C2638 C2635 1.463 . S
C2638 N2642 1.427 . S
C2639 H2629 0.929 . S
C2639 C2637 1.433 . S
C2639 N2642 1.384 . S
C2640 H2631 0.929 . S
C2640 C2632 1.378 . S
C2640 C2635 1.350 . S
C2641 H2628 0.929 1_554 S
C2641 C2633 1.433 . S
C2641 N2643 1.383 . S
N2642 C2638 1.427 . S
N2642 C2639 1.384 . S
N2643 C2635 1.460 . S
N2643 C2641 1.383 . S
H2644 C2650 0.930 . S
H2645 C2654 0.930 . S
H2646 C2659 0.929 . S
H2647 C2657 0.929 . S
H2648 C2652 0.929 . S
H2649 C2658 0.929 . S
C2650 H2644 0.930 . S
C2650 C2651 1.367 . S
C2650 C2658 1.378 . S
C2651 C2650 1.367 . S
C2651 C2659 1.433 . S
C2652 H2648 0.929 . S
C2652 C2654 1.378 . S
C2652 C2656 1.350 . S
C2653 C2656 1.463 . S
C2653 C2658 1.350 . S
C2653 N2661 1.427 . S
C2654 H2645 0.930 . S
C2654 C2652 1.378 . S
C2654 C2655 1.367 . S
C2655 C2654 1.367 . S
C2655 C2657 1.433 . S
C2656 C2652 1.350 . S
C2656 C2653 1.463 . S
C2656 N2660 1.427 . S
C2657 H2647 0.929 . S
C2657 C2655 1.433 . S
C2657 N2660 1.384 . S
C2658 H2649 0.929 . S
C2658 C2650 1.378 . S
C2658 C2653 1.350 . S
C2659 H2646 0.929 . S
C2659 C2651 1.433 . S
C2659 N2661 1.384 . S
N2660 C2656 1.427 . S
N2660 C2657 1.384 . S
N2661 C2653 1.427 . S
N2661 C2659 1.384 . S
H2662 C2668 0.930 . S
H2663 C2672 0.930 . S
H2664 C2677 0.929 . S
H2665 C2675 0.929 . S
H2666 C2670 0.929 . S
H2667 C2676 0.929 . S
C2668 H2662 0.930 . S
C2668 C2669 1.367 . S
C2668 C2676 1.378 . S
C2669 C2668 1.367 . S
C2669 C2677 1.433 . S
C2670 H2666 0.929 . S
C2670 C2672 1.378 . S
C2670 C2674 1.350 . S
C2671 C2674 1.463 . S
C2671 C2676 1.350 . S
C2671 N2679 1.427 . S
C2672 H2663 0.930 . S
C2672 C2670 1.378 . S
C2672 C2673 1.367 . S
C2673 C2672 1.367 . S
C2673 C2675 1.433 . S
C2674 C2670 1.350 . S
C2674 C2671 1.463 . S
C2674 N2678 1.427 . S
C2675 H2665 0.929 . S
C2675 C2673 1.433 . S
C2675 N2678 1.384 . S
C2676 H2667 0.929 . S
C2676 C2668 1.378 . S
C2676 C2671 1.350 . S
C2677 H2664 0.929 . S
C2677 C2669 1.433 . S
C2677 N2679 1.384 . S
N2678 C2674 1.427 . S
N2678 C2675 1.384 . S
N2679 C2671 1.427 . S
N2679 C2677 1.384 . S
C959 C101 1.783 1_455 S
C963 C334 1.806 1_556 S
C977 C57 1.169 . S
C981 C354 1.208 . S
C995 C73 0.785 . S
C999 C401 0.778 . S
C1017 C458 1.031 . S
C1013 C78 0.986 . S
C1031 C21 2.653 . S
C1035 C475 2.688 . S
C1053 C534 1.859 . S
C1049 C31 1.811 . S
C1071 C567 2.729 . S
C1067 C49 2.738 . S
C1085 C0 2.391 . S
C1089 C614 2.436 . S
C1107 C327 1.487 . S
C1103 C218 1.456 . S
C1121 C229 1.454 . S
C1125 C355 1.475 . S
C1143 C394 0.558 . S
C1139 C257 0.545 . S
C1161 C454 2.167 . S
C1157 C164 2.052 . S
C1175 C216 0.469 . S
C1179 C481 0.461 . S
C1197 C527 2.320 . S
C1193 C231 2.341 . S
C1215 C578 0.584 . S
C1211 C255 0.704 1_565 S
C1233 C607 2.307 . S
C1229 C166 2.305 . S
C1251 C338 1.685 . S
C1247 C143 1.666 . S
C1265 C265 2.177 . S
C1269 C634 2.212 . S
C1287 C698 1.259 . S
C1283 C299 1.165 . S
C1305 C734 1.387 1_655 S
C1301 C291 1.398 . S
C1319 C104 1.193 . S
C1323 C618 1.237 . S
C1337 C117 2.541 . S
C1341 C395 2.582 . S
C1355 C304 1.294 . S
C1359 C767 1.380 . S
C1377 C801 0.337 . S
C1373 C278 0.345 . S
C1395 C315 1.784 . S
C1391 C60 1.841 . S
C1413 C807 1.109 . S
C1409 C96 1.117 . S
C1427 C88 0.659 . S
C1431 C418 0.657 . S
C1445 C65 1.025 . S
C1449 C761 1.003 . S
C1467 C494 2.559 . S
C1463 C10 2.573 . S
C1481 C44 1.744 . S
C1485 C675 1.808 . S
C1503 C554 2.639 1_556 S
C1499 C34 2.565 . S
C1521 C835 2.417 . S
C1517 C13 2.424 1_655 S
C1539 C314 1.493 . S
C1535 C138 1.491 . S
C1557 C814 1.300 . S
C1553 C296 1.312 . S
C1571 C112 0.615 . S
C1575 C407 0.499 . S
C1589 C270 2.078 . S
C1593 C755 2.092 . S
C1607 C140 0.342 . S
C1611 C498 0.370 . S
C1629 C674 2.229 . S
C1625 C294 2.184 . S
C1643 C114 0.472 . S
C1647 C561 0.550 . S
C1661 C268 2.207 . S
C1665 C834 2.242 . S
C1679 C169 1.828 1_556 S
C1683 C321 1.753 . S
C1697 C161 2.149 . S
C1701 C647 2.155 . S
C1715 C234 1.253 . S
C1719 C521 1.228 . S
C1733 C226 1.311 . S
C1737 C715 1.330 . S
C1755 C841 1.290 . S
C1751 C247 1.342 . S
C1769 C195 2.474 . S
C1773 C414 2.500 1_565 S
C1791 C434 1.271 . S
C1787 C239 1.244 . S
C1809 C378 0.304 . S
C1805 C187 0.170 . S
C1823 C75 1.796 . S
C1827 C894 1.808 . S
C1845 C794 1.190 . S
C1841 C83 1.150 . S
C1859 C99 0.767 . S
C1863 C921 0.772 . S
C1877 C52 0.978 . S
C1881 C778 1.028 . S
C1895 C47 2.653 . S
C1899 C635 2.688 . S
C1917 C694 1.858 . S
C1913 C5 1.812 1_655 S
C1935 C727 2.732 . S
C1931 C23 2.735 . S
C1953 C854 2.433 . S
C1949 C26 2.391 . S
C1971 C887 1.481 . S
C1967 C244 1.459 . S
C1985 C177 1.454 . S
C1989 C795 1.479 . S
C2007 C914 0.565 . S
C2003 C192 0.552 . S
C2025 C774 2.166 . S
C2021 C203 2.064 . S
C2043 C641 0.459 . S
C2039 C242 0.450 . S
C2057 C179 2.341 . S
C2061 C687 2.318 . S
C2079 C738 0.580 . S
C2075 C190 0.697 . S
C2093 C205 2.308 . S
C2097 C847 2.303 . S
C2115 C898 1.686 . S
C2111 C286 1.662 . S
C2129 C122 2.172 . S
C2133 C474 2.213 . S
C2151 C538 1.247 . S
C2147 C130 1.144 . S
C2169 C574 1.388 1_565 S
C2165 C148 1.396 . S
C2187 C858 1.237 . S
C2183 C273 1.193 . S
C2201 C260 2.546 . S
C2205 C915 2.584 1_655 S
C2223 C447 1.387 . S
C2219 C135 1.311 . S
C2241 C361 0.356 . S
C2237 C109 0.364 . S
C2255 C86 1.841 . S
C2259 C875 1.783 . S
C2277 C367 1.117 . S
C2273 C70 1.126 . S
C2291 C62 0.660 . S
C2295 C938 0.668 . S
C2309 C91 1.025 . S
C2313 C441 0.996 . S
C2327 C36 2.573 . S
C2331 C654 2.560 1_556 S
C2349 C515 1.810 . S
C2345 C18 1.745 . S
C2363 C8 2.555 . S
C2367 C714 2.638 . S
C2381 C39 2.420 . S
C2385 C595 2.423 . S
C2403 C874 1.492 . S
C2399 C307 1.491 . S
C2417 C153 1.312 . S
C2421 C374 1.298 . S
C2439 C927 0.461 . S
C2435 C281 0.571 . S
C2453 C127 2.080 . S
C2457 C435 2.092 . S
C2471 C309 0.362 . S
C2475 C658 0.386 . S
C2493 C514 2.230 . S
C2489 C151 2.184 1_556 S
C2507 C283 0.451 . S
C2511 C721 0.530 . S
C2529 C594 2.244 . S
C2525 C125 2.200 . S
C2547 C881 1.745 . S
C2543 C221 1.829 . S
C2565 C487 2.154 1_655 S
C2561 C200 2.148 . S
C2579 C208 1.257 . S
C2583 C681 1.224 . S
C2601 C555 1.332 . S
C2597 C174 1.308 . S
C2615 C182 1.342 . S
C2619 C601 1.291 . S
C2633 C156 2.469 . S
C2637 C934 2.503 . S
C2655 C754 1.272 . S
C2651 C213 1.255 . S
C2673 C818 0.280 . S
C2669 C252 0.180 . S
