# Generated by pormake.
# Topology ssb, (4,4)-cn, num edge types: 1
# Building blocks:
#     Node 0, Type 0, BuildingBlock: ESEHIV_clean_sbu_0, # of connection points: 4
#     Node 1, Type 0, BuildingBlock: ESEHIV_clean_sbu_0, # of connection points: 4
#     Node 2, Type 0, BuildingBlock: ESEHIV_clean_sbu_0, # of connection points: 4
#     Node 3, Type 0, BuildingBlock: ESEHIV_clean_sbu_0, # of connection points: 4
#     Node 4, Type 0, BuildingBlock: ESEHIV_clean_sbu_0, # of connection points: 4
#     Node 5, Type 0, BuildingBlock: ESEHIV_clean_sbu_0, # of connection points: 4
#     Node 6, Type 0, BuildingBlock: ESEHIV_clean_sbu_0, # of connection points: 4
#     Node 7, Type 0, BuildingBlock: ESEHIV_clean_sbu_0, # of connection points: 4
#     Node 8, Type 1, BuildingBlock: NAWXER_clean_sbu_0, # of connection points: 4
#     Node 9, Type 1, BuildingBlock: NAWXER_clean_sbu_0, # of connection points: 4
#     Node 10, Type 1, BuildingBlock: NAWXER_clean_sbu_0, # of connection points: 4
#     Node 11, Type 1, BuildingBlock: NAWXER_clean_sbu_0, # of connection points: 4
#     Node 12, Type 1, BuildingBlock: NAWXER_clean_sbu_0, # of connection points: 4
#     Node 13, Type 1, BuildingBlock: NAWXER_clean_sbu_0, # of connection points: 4
#     Node 14, Type 1, BuildingBlock: NAWXER_clean_sbu_0, # of connection points: 4
#     Node 15, Type 1, BuildingBlock: NAWXER_clean_sbu_0, # of connection points: 4
#     Edge 16, Type (0, 1), BuildingBlock: ZUJKAS_clean_linker_0, # of connection points: 2
#     Edge 17, Type (0, 1), BuildingBlock: ZUJKAS_clean_linker_0, # of connection points: 2
#     Edge 18, Type (0, 1), BuildingBlock: ZUJKAS_clean_linker_0, # of connection points: 2
#     Edge 19, Type (0, 1), BuildingBlock: ZUJKAS_clean_linker_0, # of connection points: 2
#     Edge 20, Type (0, 1), BuildingBlock: ZUJKAS_clean_linker_0, # of connection points: 2
#     Edge 21, Type (0, 1), BuildingBlock: ZUJKAS_clean_linker_0, # of connection points: 2
#     Edge 22, Type (0, 1), BuildingBlock: ZUJKAS_clean_linker_0, # of connection points: 2
#     Edge 23, Type (0, 1), BuildingBlock: ZUJKAS_clean_linker_0, # of connection points: 2
#     Edge 24, Type (0, 1), BuildingBlock: ZUJKAS_clean_linker_0, # of connection points: 2
#     Edge 25, Type (0, 1), BuildingBlock: ZUJKAS_clean_linker_0, # of connection points: 2
#     Edge 26, Type (0, 1), BuildingBlock: ZUJKAS_clean_linker_0, # of connection points: 2
#     Edge 27, Type (0, 1), BuildingBlock: ZUJKAS_clean_linker_0, # of connection points: 2
#     Edge 28, Type (0, 1), BuildingBlock: ZUJKAS_clean_linker_0, # of connection points: 2
#     Edge 29, Type (0, 1), BuildingBlock: ZUJKAS_clean_linker_0, # of connection points: 2
#     Edge 30, Type (0, 1), BuildingBlock: ZUJKAS_clean_linker_0, # of connection points: 2
#     Edge 31, Type (0, 1), BuildingBlock: ZUJKAS_clean_linker_0, # of connection points: 2
#     Edge 32, Type (0, 1), BuildingBlock: ZUJKAS_clean_linker_0, # of connection points: 2
#     Edge 33, Type (0, 1), BuildingBlock: ZUJKAS_clean_linker_0, # of connection points: 2
#     Edge 34, Type (0, 1), BuildingBlock: ZUJKAS_clean_linker_0, # of connection points: 2
#     Edge 35, Type (0, 1), BuildingBlock: ZUJKAS_clean_linker_0, # of connection points: 2
#     Edge 36, Type (0, 1), BuildingBlock: ZUJKAS_clean_linker_0, # of connection points: 2
#     Edge 37, Type (0, 1), BuildingBlock: ZUJKAS_clean_linker_0, # of connection points: 2
#     Edge 38, Type (0, 1), BuildingBlock: ZUJKAS_clean_linker_0, # of connection points: 2
#     Edge 39, Type (0, 1), BuildingBlock: ZUJKAS_clean_linker_0, # of connection points: 2
#     Edge 40, Type (0, 1), BuildingBlock: ZUJKAS_clean_linker_0, # of connection points: 2
#     Edge 41, Type (0, 1), BuildingBlock: ZUJKAS_clean_linker_0, # of connection points: 2
#     Edge 42, Type (0, 1), BuildingBlock: ZUJKAS_clean_linker_0, # of connection points: 2
#     Edge 43, Type (0, 1), BuildingBlock: ZUJKAS_clean_linker_0, # of connection points: 2
#     Edge 44, Type (0, 1), BuildingBlock: ZUJKAS_clean_linker_0, # of connection points: 2
#     Edge 45, Type (0, 1), BuildingBlock: ZUJKAS_clean_linker_0, # of connection points: 2
#     Edge 46, Type (0, 1), BuildingBlock: ZUJKAS_clean_linker_0, # of connection points: 2
#     Edge 47, Type (0, 1), BuildingBlock: ZUJKAS_clean_linker_0, # of connection points: 2
# Relax obj value: 0.002
# Max RMSD: 0.102
# Mean RMSD: 0.051
data_MOF--net-ssb--node1-ESEHIV_clean_sbu_0--node2-NAWXER_clean_sbu_0--edge1-ZUJKAS_clean_linker_0
_symmetry_space_group_name_H-M    P1
_symmetry_Int_Tables_number       1
_symmetry_cell_setting            triclinic
loop_
_symmetry_equiv_pos_as_xyz
'x, y, z'
_cell_length_a     59.067668
_cell_length_b     59.622419
_cell_length_c     51.211374
_cell_angle_alpha  90.091011
_cell_angle_beta   89.959006
_cell_angle_gamma 90.12095
loop_
_atom_site_label
_atom_site_type_symbol
_atom_site_fract_x
_atom_site_fract_y
_atom_site_fract_z
_atom_type_partial_charge
Cu0 Cu 0.29093 0.29113 0.26542 0.0
N1 N 0.2977 0.26054 0.26477 0.0
N2 N 0.30591 0.22625 0.27947 0.0
C3 C 0.30177 0.24782 0.28592 0.0
C4 C 0.3042 0.22536 0.2532 0.0
C5 C 0.2992 0.2466 0.24417 0.0
O6 O 0.2692 0.2964 0.29345 0.0
C7 C 0.33833 0.30036 0.26765 0.0
O8 O 0.34072 0.27899 0.27307 0.0
H9 H 0.30136 0.25427 0.30568 0.0
H10 H 0.29678 0.25153 0.22405 0.0
N11 N 0.2784 0.30036 0.23381 0.0
N12 N 0.2731 0.32245 0.19912 0.0
C13 C 0.285 0.31903 0.2212 0.0
C14 C 0.26167 0.2915 0.21921 0.0
C15 C 0.25828 0.3052 0.19779 0.0
C16 C 0.25226 0.28314 0.29448 0.0
O17 O 0.2504 0.26736 0.27667 0.0
H18 H 0.29789 0.33029 0.22854 0.0
H19 H 0.25252 0.2763 0.22386 0.0
O20 O 0.31859 0.3089 0.2679 0.0
H21 H 0.3066 0.21051 0.24135 0.0
H22 H 0.24594 0.30264 0.18246 0.0
Cu23 Cu 0.76274 0.28739 0.29897 0.0
N24 N 0.73161 0.29199 0.29458 0.0
N25 N 0.69797 0.29277 0.27433 0.0
C26 C 0.72067 0.29448 0.27167 0.0
C27 C 0.6945 0.28937 0.3001 0.0
C28 C 0.71524 0.2888 0.31247 0.0
O29 O 0.77835 0.29906 0.26847 0.0
C30 C 0.78493 0.24654 0.31376 0.0
O31 O 0.80376 0.25825 0.31301 0.0
H32 H 0.72923 0.29603 0.25314 0.0
H33 H 0.71821 0.28493 0.3328 0.0
N34 N 0.77416 0.30353 0.32745 0.0
N35 N 0.79991 0.31831 0.35459 0.0
C36 C 0.79632 0.30715 0.332 0.0
C37 C 0.76323 0.31301 0.34771 0.0
C38 C 0.77908 0.32217 0.36448 0.0
C39 C 0.7761 0.29266 0.24492 0.0
O40 O 0.76463 0.27427 0.23979 0.0
H41 H 0.80958 0.30166 0.3189 0.0
H42 H 0.74508 0.31299 0.35037 0.0
O43 O 0.76654 0.25558 0.30631 0.0
H44 H 0.67824 0.2866 0.3093 0.0
H45 H 0.77556 0.33039 0.3829 0.0
Cu46 Cu 0.81807 0.78343 0.25664 0.0
N47 N 0.83327 0.77092 0.22809 0.0
N48 N 0.84244 0.74504 0.19821 0.0
C49 C 0.82799 0.75092 0.21748 0.0
C50 C 0.85744 0.76213 0.19665 0.0
C51 C 0.85173 0.77807 0.21509 0.0
O52 O 0.78575 0.78213 0.24789 0.0
C53 C 0.8489 0.76768 0.29152 0.0
O54 O 0.86136 0.77884 0.27469 0.0
H55 H 0.81419 0.74057 0.22447 0.0
H56 H 0.86076 0.79347 0.21915 0.0
N57 N 0.82651 0.81329 0.26313 0.0
N58 N 0.83275 0.84474 0.28598 0.0
C59 C 0.82577 0.82317 0.2868 0.0
C60 C 0.83437 0.82914 0.24674 0.0
C61 C 0.83811 0.8486 0.26076 0.0
C62 C 0.77937 0.79544 0.22984 0.0
O63 O 0.79432 0.80922 0.21969 0.0
H64 H 0.81988 0.81471 0.30422 0.0
H65 H 0.83705 0.82681 0.22602 0.0
O66 O 0.82757 0.76669 0.28759 0.0
H67 H 0.87157 0.76304 0.18324 0.0
H68 H 0.84449 0.86427 0.25303 0.0
Cu69 Cu 0.27967 0.77599 0.27344 0.0
N70 N 0.31053 0.7691 0.26818 0.0
N71 N 0.344 0.76245 0.24881 0.0
C72 C 0.32203 0.76817 0.24536 0.0
C73 C 0.34634 0.75962 0.27482 0.0
C74 C 0.32575 0.76363 0.28663 0.0
O75 O 0.262 0.76126 0.24638 0.0
C76 C 0.28827 0.81957 0.29056 0.0
O77 O 0.30718 0.81005 0.29811 0.0
H78 H 0.31454 0.77183 0.22663 0.0
H79 H 0.32213 0.76265 0.3073 0.0
N80 N 0.26906 0.76432 0.30499 0.0
N81 N 0.24632 0.76021 0.33969 0.0
C82 C 0.25197 0.77317 0.31905 0.0
C83 C 0.27452 0.74507 0.31708 0.0
C84 C 0.26055 0.74251 0.33852 0.0
C85 C 0.26254 0.7656 0.22208 0.0
O86 O 0.27423 0.78293 0.21373 0.0
H87 H 0.24321 0.78836 0.31352 0.0
H88 H 0.28731 0.73345 0.31038 0.0
O89 O 0.27442 0.80819 0.27679 0.0
H90 H 0.36175 0.75466 0.28464 0.0
H91 H 0.26071 0.72854 0.35198 0.0
Cu92 Cu 0.31509 0.77652 0.7419 0.0
N93 N 0.34604 0.77204 0.74804 0.0
N94 N 0.37854 0.77285 0.77059 0.0
C95 C 0.35669 0.77948 0.76962 0.0
C96 C 0.38168 0.76067 0.74858 0.0
C97 C 0.36159 0.76017 0.73474 0.0
O98 O 0.30052 0.7634 0.7723 0.0
C99 C 0.32415 0.81841 0.72162 0.0
O100 O 0.34189 0.80722 0.71333 0.0
H101 H 0.34819 0.78889 0.7848 0.0
H102 H 0.35845 0.75139 0.71662 0.0
N103 N 0.30375 0.76188 0.71224 0.0
N104 N 0.27741 0.7486 0.68478 0.0
C105 C 0.28214 0.75493 0.70952 0.0
C106 C 0.31308 0.7599 0.68838 0.0
C107 C 0.29688 0.75168 0.6714 0.0
C108 C 0.30374 0.7423 0.77365 0.0
O109 O 0.31462 0.73241 0.75444 0.0
H110 H 0.26974 0.75592 0.72505 0.0
H111 H 0.33005 0.7652 0.68335 0.0
O112 O 0.30978 0.80841 0.73613 0.0
H113 H 0.39728 0.75253 0.74292 0.0
H114 H 0.29907 0.7489 0.65066 0.0
Cu115 Cu 0.28141 0.29066 0.7635 0.0
N116 N 0.28837 0.32112 0.76814 0.0
N117 N 0.28611 0.35537 0.78589 0.0
C118 C 0.27902 0.33386 0.78699 0.0
C119 C 0.30066 0.35616 0.76556 0.0
C120 C 0.30195 0.33502 0.75457 0.0
O121 O 0.29478 0.27539 0.79352 0.0
C122 C 0.23976 0.30316 0.74503 0.0
O123 O 0.25281 0.31878 0.73502 0.0
H124 H 0.26719 0.32735 0.80125 0.0
H125 H 0.31178 0.33035 0.73764 0.0
N126 N 0.29287 0.27796 0.73267 0.0
N127 N 0.29521 0.25345 0.69956 0.0
C128 C 0.28309 0.26043 0.7204 0.0
C129 C 0.31185 0.28235 0.71902 0.0
C130 C 0.31336 0.26724 0.69864 0.0
C131 C 0.3163 0.27707 0.79467 0.0
O132 O 0.32683 0.28757 0.77568 0.0
H133 H 0.26772 0.25246 0.72727 0.0
H134 H 0.3241 0.29517 0.72383 0.0
O135 O 0.24856 0.28832 0.75979 0.0
H136 H 0.30933 0.37104 0.7587 0.0
H137 H 0.32687 0.26639 0.68439 0.0
Cu138 Cu 0.77494 0.28382 0.76403 0.0
N139 N 0.78718 0.2985 0.73501 0.0
N140 N 0.80986 0.30268 0.70044 0.0
C141 C 0.80595 0.29136 0.72272 0.0
C142 C 0.79279 0.3176 0.69851 0.0
C143 C 0.77879 0.31502 0.71999 0.0
O144 O 0.77999 0.25197 0.75692 0.0
C145 C 0.80698 0.30702 0.79631 0.0
O146 O 0.81879 0.30936 0.77476 0.0
H147 H 0.81599 0.27735 0.72948 0.0
H148 H 0.76325 0.32399 0.72388 0.0
N149 N 0.74391 0.2894 0.7674 0.0
N150 N 0.71037 0.29507 0.78663 0.0
C151 C 0.73266 0.29108 0.79021 0.0
C152 C 0.72825 0.29253 0.7487 0.0
C153 C 0.70752 0.29594 0.76049 0.0
C154 C 0.77346 0.24588 0.73425 0.0
O155 O 0.76224 0.26027 0.71984 0.0
H156 H 0.74067 0.28908 0.80906 0.0
H157 H 0.73162 0.29243 0.72794 0.0
O158 O 0.78901 0.29515 0.79596 0.0
H159 H 0.79045 0.32932 0.68263 0.0
H160 H 0.69167 0.29911 0.75059 0.0
Cu161 Cu 0.76049 0.76674 0.77377 0.0
N162 N 0.76348 0.75753 0.80849 0.0
N163 N 0.76456 0.73446 0.84289 0.0
C164 C 0.76324 0.73607 0.81664 0.0
C165 C 0.7661 0.75581 0.85155 0.0
C166 C 0.76549 0.76999 0.83029 0.0
O167 O 0.74078 0.74587 0.75514 0.0
C168 C 0.79901 0.75061 0.74515 0.0
O169 O 0.78838 0.73123 0.7453 0.0
H170 H 0.762 0.72192 0.80345 0.0
H171 H 0.7663 0.78809 0.83076 0.0
N172 N 0.74929 0.79591 0.77008 0.0
N173 N 0.74255 0.82875 0.75035 0.0
C174 C 0.75087 0.80776 0.74779 0.0
C175 C 0.73957 0.80983 0.78748 0.0
C176 C 0.73533 0.83006 0.77535 0.0
C177 C 0.72395 0.7341 0.76285 0.0
O178 O 0.71493 0.71979 0.74631 0.0
H179 H 0.75809 0.80097 0.73005 0.0
H180 H 0.73591 0.80569 0.80758 0.0
O181 O 0.79017 0.76727 0.7569 0.0
H182 H 0.76714 0.76089 0.87181 0.0
H183 H 0.72801 0.84472 0.7845 0.0
C184 C 1.006 0.28226 0.54192 0.0
C185 C 0.06978 0.28955 0.4811 0.0
O186 O 1.01397 0.30219 0.54005 0.0
Zn187 Zn 0.03948 0.32019 0.51914 0.0
O188 O 0.0147 0.2665 0.52847 0.0
Zn189 Zn 0.03769 0.28499 0.51142 0.0
O190 O 0.05911 0.29446 0.54366 0.0
O191 O 0.05805 0.33132 0.54747 0.0
O192 O 0.05877 0.27184 0.48667 0.0
O193 O 0.06412 0.30819 0.49178 0.0
O194 O 0.02081 0.34077 0.49902 0.0
O195 O 0.01648 0.3054 0.48734 0.0
C196 C 0.06535 0.31246 0.55543 0.0
C197 C 1.01122 0.32611 0.4847 0.0
C198 C 0.80254 0.05765 0.56658 0.0
C199 C 0.81048 1.00278 0.49567 0.0
O200 O 0.82089 0.04966 0.5575 0.0
Zn201 Zn 0.80722 0.0306 0.53091 0.0
O202 O 0.78361 0.05194 0.55623 0.0
Zn203 Zn 0.77152 0.03081 0.52516 0.0
O204 O 0.75219 0.01007 0.54407 0.0
O205 O 0.78835 1.00689 0.55415 0.0
O206 O 0.78994 1.00879 0.49973 0.0
O207 O 0.82619 0.01116 0.50961 0.0
O208 O 0.79536 0.05476 0.50302 0.0
O209 O 0.7582 0.05202 0.50081 0.0
C210 C 0.76769 1.00075 0.5574 0.0
C211 C 0.77648 0.06127 0.49328 0.0
C212 C 0.99463 0.76353 0.57689 0.0
C213 C 0.05314 0.76838 0.50818 0.0
O214 O 1.00353 0.78131 0.56772 0.0
Zn215 Zn 0.02402 0.76716 0.54251 0.0
O216 O 1.00134 0.74443 0.56836 0.0
Zn217 Zn 0.02471 0.73118 0.54041 0.0
O218 O 0.04669 0.7148 0.56174 0.0
O219 O 0.04913 0.75148 0.56636 0.0
O220 O 0.04718 0.74835 0.51423 0.0
O221 O 0.04367 0.7849 0.51957 0.0
O222 O 1.00098 0.75251 0.51503 0.0
O223 O 1.00435 0.71569 0.51619 0.0
C224 C 0.05644 0.73181 0.57181 0.0
C225 C 0.99494 0.73308 0.50677 0.0
C226 C 0.27081 0.05946 0.53599 0.0
C227 C 0.26694 0.99694 0.47305 0.0
O228 O 0.2901 0.05123 0.52975 0.0
Zn229 Zn 0.30387 0.02525 0.50568 0.0
O230 O 0.2529 0.05087 0.52637 0.0
Zn231 Zn 0.26772 0.02782 0.50515 0.0
O232 O 0.28111 1.00557 0.53423 0.0
O233 O 0.31833 1.00578 0.5309 0.0
O234 O 0.25026 1.00772 0.48254 0.0
O235 O 0.28707 1.00199 0.48036 0.0
O236 O 0.32207 0.04254 0.48124 0.0
O237 O 0.28531 0.04793 0.47699 0.0
C238 C 0.30049 0.99866 0.54209 0.0
C239 C 0.30566 0.05218 0.46977 0.0
C240 C 0.52442 0.75172 0.05937 0.0
C241 C 0.58551 0.74805 0.99324 0.0
O242 O 0.53189 0.77092 0.05203 0.0
Zn243 Zn 0.55683 0.78455 0.02589 0.0
O244 O 0.53317 0.73403 0.04974 0.0
Zn245 Zn 0.55536 0.74864 0.02687 0.0
O246 O 0.57854 0.76346 0.05424 0.0
O247 O 0.57744 0.80018 0.04951 0.0
O248 O 0.57566 0.7314 1.00395 0.0
O249 O 0.57988 0.76796 1.00007 0.0
O250 O 0.53814 0.80094 1.0008 0.0
O251 O 0.53376 0.76425 0.99865 0.0
C252 C 0.58549 0.78303 0.06096 0.0
C253 C 0.52871 0.7839 0.99041 0.0
C254 C 0.24335 0.58095 0.04738 0.0
C255 C 0.24767 0.5276 0.97418 0.0
O256 O 0.26355 0.57541 0.04089 0.0
Zn257 Zn 0.28059 0.55429 1.0135 0.0
O258 O 0.22664 0.57197 0.0356 0.0
Zn259 Zn 0.24423 0.55362 1.01134 0.0
O260 O 0.25885 0.52865 0.03593 0.0
O261 O 0.29598 0.53251 0.03552 0.0
O262 O 0.22962 0.53511 0.9846 0.0
O263 O 0.26692 0.53366 0.98332 0.0
O264 O 0.29761 0.57617 0.99324 0.0
O265 O 0.26055 0.57903 0.98856 0.0
C266 C 0.27844 0.52213 0.04347 0.0
C267 C 0.28058 0.58602 0.98329 0.0
C268 C 0.54024 0.30765 0.98737 0.0
C269 C 0.48495 0.31777 0.05774 0.0
O270 O 0.53216 0.32593 0.9961 0.0
Zn271 Zn 0.51226 0.31321 0.02233 0.0
O272 O 0.53366 0.28901 0.99735 0.0
Zn273 Zn 0.51097 0.27785 0.02754 0.0
O274 O 0.48888 0.25999 1.00856 0.0
O275 O 0.48678 0.29609 0.9996 0.0
O276 O 0.48967 0.29714 0.05318 0.0
O277 O 0.49432 0.33305 0.04419 0.0
O278 O 0.53554 0.30012 0.0506 0.0
O279 O 0.53123 0.26343 0.05236 0.0
C280 C 0.47955 0.27598 0.99619 0.0
C281 C 0.54107 0.28114 0.06042 0.0
C282 C 0.82532 0.53642 0.05991 0.0
C283 C 0.81912 0.47765 0.99334 0.0
O284 O 0.84133 0.52663 0.04786 0.0
Zn285 Zn 0.82271 0.50648 0.02722 0.0
O286 O 0.80483 0.53016 0.05583 0.0
Zn287 Zn 0.78701 0.50631 0.03177 0.0
O288 O 0.77299 0.48617 0.05671 0.0
O289 O 0.81011 0.48275 0.05534 0.0
O290 O 0.79989 0.48347 1.0028 0.0
O291 O 0.83704 0.48702 1.00178 0.0
O292 O 0.80452 0.53 1.00317 0.0
O293 O 0.76804 0.52609 1.01124 0.0
C294 C 0.79091 0.47656 0.0646 0.0
C295 C 0.78396 0.53595 0.99904 0.0
H296 H 0.21834 0.25352 0.30481 0.0
H297 H 0.18905 0.25602 0.33825 0.0
H298 H 0.21708 0.31878 0.36498 0.0
H299 H 0.24674 0.31643 0.33135 0.0
H300 H 0.19542 0.26059 0.39495 0.0
H301 H 0.14808 0.33118 0.34962 0.0
H302 H 0.16778 0.31414 0.33134 0.0
H303 H 0.17812 0.33474 0.35395 0.0
C304 C 0.21836 0.26792 0.31773 0.0
C305 C 0.23485 0.28486 0.31529 0.0
C306 C 0.2016 0.26926 0.3369 0.0
C307 C 0.20078 0.28765 0.35392 0.0
C308 C 0.2173 0.30455 0.35181 0.0
H309 H 0.09957 0.32337 0.47032 0.0
H310 H 0.13196 0.32265 0.44075 0.0
C311 C 0.23426 0.30315 0.33268 0.0
C312 C 0.18249 0.28891 0.37373 0.0
H313 H 0.13365 0.31657 0.3889 0.0
C314 C 0.18195 0.27288 0.39375 0.0
C315 C 0.16498 0.30496 0.37206 0.0
C316 C 0.16453 0.3222 0.35054 0.0
C317 C 0.16437 0.27251 0.41227 0.0
C318 C 0.14651 0.28822 0.41026 0.0
C319 C 0.14726 0.30446 0.39039 0.0
C320 C 0.12693 0.28824 0.42857 0.0
C321 C 0.16535 0.25552 0.43405 0.0
C322 C 0.11308 0.26919 0.43143 0.0
C323 C 0.09455 0.26948 0.44854 0.0
C324 C 0.08932 0.28895 0.46283 0.0
C325 C 0.10305 0.30807 0.45963 0.0
C326 C 0.12162 0.30771 0.4427 0.0
H327 H 0.1829 0.24949 0.43734 0.0
H328 H 0.1588 0.26265 0.45261 0.0
H329 H 0.15478 0.24079 0.42876 0.0
H330 H 0.11646 0.25414 0.42024 0.0
H331 H 0.08424 0.25452 0.45039 0.0
H332 H 0.74792 0.22012 0.32405 0.0
H333 H 0.74617 0.18721 0.35245 0.0
H334 H 0.81849 0.19028 0.36317 0.0
H335 H 0.82041 0.2234 0.33513 0.0
H336 H 0.76689 0.14484 0.35175 0.0
H337 H 0.7941 0.19471 0.43784 0.0
H338 H 0.78544 0.20754 0.40757 0.0
H339 H 0.81338 0.19595 0.41076 0.0
C340 C 0.76353 0.21365 0.33216 0.0
C341 C 0.78429 0.2246 0.32751 0.0
C342 C 0.76247 0.19483 0.34843 0.0
C343 C 0.78212 0.18659 0.36042 0.0
C344 C 0.80303 0.19667 0.35462 0.0
H345 H 0.8128 0.08452 0.47435 0.0
H346 H 0.81313 0.11412 0.44154 0.0
C347 C 0.80412 0.21553 0.3384 0.0
C348 C 0.7806 0.1681 0.3798 0.0
H349 H 0.79106 0.15542 0.44372 0.0
C350 C 0.77209 0.14715 0.37189 0.0
C351 C 0.78722 0.17119 0.40614 0.0
C352 C 0.79535 0.1936 0.41622 0.0
C353 C 0.77062 0.12904 0.38942 0.0
C354 C 0.77753 0.13208 0.41565 0.0
C355 C 0.78583 0.15309 0.42359 0.0
C356 C 0.77696 0.11359 0.4351 0.0
C357 C 0.76227 0.10665 0.37958 0.0
C358 C 0.75644 0.10352 0.44262 0.0
C359 C 0.75615 0.08651 0.46151 0.0
C360 C 0.7764 0.07932 0.47329 0.0
C361 C 0.79687 0.08956 0.46572 0.0
C362 C 0.79712 0.10653 0.44693 0.0
H363 H 0.76257 0.10569 0.35791 0.0
H364 H 0.77269 0.09278 0.38755 0.0
H365 H 0.74455 0.10407 0.38614 0.0
H366 H 0.74061 0.109 0.43412 0.0
H367 H 0.74009 0.07905 0.46693 0.0
H368 H 0.82941 0.74672 0.33436 0.0
H369 H 0.84907 0.73303 0.37363 0.0
H370 H 0.91302 0.75354 0.34062 0.0
H371 H 0.8939 0.76654 0.30165 0.0
H372 H 0.91614 0.71277 0.36364 0.0
H373 H 0.87436 0.77383 0.43037 0.0
H374 H 0.85606 0.75505 0.41274 0.0
H375 H 0.87205 0.77587 0.39534 0.0
C376 C 0.84767 0.7481 0.33546 0.0
C377 C 0.86001 0.75789 0.3149 0.0
C378 C 0.85888 0.74041 0.35797 0.0
C379 C 0.88255 0.74252 0.36027 0.0
C380 C 0.89479 0.75169 0.3394 0.0
H381 H 0.97682 0.76736 0.47878 0.0
H382 H 0.94768 0.76574 0.44535 0.0
C383 C 0.88373 0.75924 0.31707 0.0
C384 C 0.89503 0.73615 0.38442 0.0
H385 H 0.90399 0.75248 0.44757 0.0
C386 C 0.91327 0.72115 0.38216 0.0
C387 C 0.89136 0.7472 0.40853 0.0
C388 C 0.87253 0.76401 0.41203 0.0
C389 C 0.92867 0.7179 0.40275 0.0
C390 C 0.92545 0.72955 0.42657 0.0
C391 C 0.90645 0.74354 0.42932 0.0
C392 C 0.94294 0.7298 0.44755 0.0
C393 C 0.94906 0.70318 0.39817 0.0
C394 C 0.95011 0.71009 0.46014 0.0
C395 C 0.96715 0.71092 0.47927 0.0
C396 C 0.97709 0.73152 0.48636 0.0
C397 C 0.96959 0.75118 0.47391 0.0
C398 C 0.95281 0.7503 0.45478 0.0
H399 H 0.95135 0.69903 0.37717 0.0
H400 H 0.96471 0.71147 0.40536 0.0
H401 H 0.94688 0.68722 0.40901 0.0
H402 H 0.94248 0.69409 0.45529 0.0
H403 H 0.97237 0.6955 0.48863 0.0
H404 H 0.31592 0.85026 0.31352 0.0
H405 H 0.30492 0.88168 0.34138 0.0
H406 H 0.23463 0.86893 0.32442 0.0
H407 H 0.24549 0.83722 0.29631 0.0
H408 H 0.25876 0.92087 0.3272 0.0
H409 H 0.26337 0.8626 0.41189 0.0
H410 H 0.28467 0.85999 0.38686 0.0
H411 H 0.2558 0.85317 0.37948 0.0
C412 C 0.29812 0.85439 0.31519 0.0
C413 C 0.28158 0.84117 0.30274 0.0
C414 C 0.29189 0.87237 0.33113 0.0
C415 C 0.269 0.87751 0.33503 0.0
C416 C 0.2524 0.86523 0.32154 0.0
H417 H 0.22838 0.98568 0.44538 0.0
H418 H 0.22469 0.95662 0.4114 0.0
C419 C 0.25865 0.84719 0.30542 0.0
C420 C 0.26279 0.89431 0.35516 0.0
H421 H 0.26203 0.90144 0.42133 0.0
C422 C 0.25895 0.91663 0.34779 0.0
C423 C 0.26313 0.88865 0.38195 0.0
C424 C 0.26683 0.86479 0.39071 0.0
C425 C 0.25656 0.93368 0.36668 0.0
C426 C 0.25801 0.92814 0.3935 0.0
C427 C 0.26085 0.90564 0.40077 0.0
C428 C 0.25949 0.94562 0.41414 0.0
C429 C 0.25382 0.95765 0.35793 0.0
C430 C 0.2801 0.94879 0.42718 0.0
C431 C 0.28226 0.96525 0.44641 0.0
C432 C 0.26378 0.97891 0.4533 0.0
C433 C 0.24293 0.97546 0.44056 0.0
C434 C 0.24083 0.95897 0.42106 0.0
H435 H 0.25507 0.9594 0.33638 0.0
H436 H 0.23704 0.96397 0.36428 0.0
H437 H 0.26695 0.9684 0.36717 0.0
H438 H 0.29469 0.93864 0.42222 0.0
H439 H 0.29855 0.96731 0.45582 0.0
H440 H 0.26112 0.75755 0.63638 0.0
H441 H 0.22292 0.75013 0.6201 0.0
H442 H 0.2056 0.71844 0.69311 0.0
H443 H 0.24369 0.72637 0.7097 0.0
H444 H 0.1985 0.71311 0.61161 0.0
H445 H 0.15602 0.76396 0.68802 0.0
H446 H 0.1863 0.76414 0.68359 0.0
H447 H 0.17279 0.7415 0.70087 0.0
C448 C 0.24926 0.74883 0.64889 0.0
C449 C 0.25541 0.74273 0.67444 0.0
C450 C 0.22736 0.74463 0.63958 0.0
C451 C 0.21113 0.73413 0.65553 0.0
C452 C 0.21753 0.72717 0.68067 0.0
H453 H 0.0799 0.69343 0.58527 0.0
H454 H 0.11665 0.6913 0.60759 0.0
C455 C 0.23935 0.73162 0.69011 0.0
C456 C 0.18748 0.73097 0.64588 0.0
H457 H 0.13233 0.74437 0.65874 0.0
C458 C 0.18401 0.71986 0.62197 0.0
C459 C 0.16854 0.73996 0.65925 0.0
C460 C 0.17104 0.75324 0.68421 0.0
C461 C 0.1623 0.71788 0.61086 0.0
C462 C 0.14335 0.72671 0.62435 0.0
C463 C 0.14678 0.73738 0.64851 0.0
C464 C 0.12023 0.72722 0.6126 0.0
C465 C 0.16006 0.70726 0.58421 0.0
C466 C 0.10946 0.74793 0.60906 0.0
C467 C 0.0884 0.74915 0.5968 0.0
C468 C 0.07748 0.72966 0.58761 0.0
C469 C 0.08785 0.70877 0.59199 0.0
C470 C 0.10899 0.70756 0.60451 0.0
H471 H 0.17663 0.70611 0.57401 0.0
H472 H 0.15326 0.69 0.58636 0.0
H473 H 0.14822 0.71693 0.57175 0.0
H474 H 0.11765 0.76335 0.61517 0.0
H475 H 0.08099 0.76556 0.59388 0.0
H476 H 0.25399 0.23583 0.68786 0.0
H477 H 0.24616 0.20245 0.66129 0.0
H478 H 0.31758 0.19455 0.64677 0.0
H479 H 0.32558 0.22762 0.67354 0.0
H480 H 0.25882 0.1934 0.60703 0.0
H481 H 0.29641 0.13305 0.67698 0.0
H482 H 0.28833 0.16115 0.68627 0.0
H483 H 0.31433 0.15643 0.66888 0.0
C484 C 0.26804 0.22692 0.67913 0.0
C485 C 0.29045 0.23436 0.68299 0.0
C486 C 0.26351 0.20792 0.66384 0.0
C487 C 0.2813 0.19586 0.65235 0.0
C488 C 0.30362 0.20345 0.65574 0.0
H489 H 0.30664 0.08156 0.55739 0.0
H490 H 0.30635 0.11427 0.58578 0.0
C491 C 0.30815 0.2225 0.67087 0.0
C492 C 0.27669 0.17527 0.63684 0.0
H493 H 0.28801 0.11916 0.63454 0.0
C494 C 0.26495 0.1771 0.61311 0.0
C495 C 0.2846 0.15402 0.64494 0.0
C496 C 0.29645 0.15089 0.67077 0.0
C497 C 0.26192 0.15841 0.59662 0.0
C498 C 0.27046 0.13726 0.60437 0.0
C499 C 0.2815 0.13536 0.62856 0.0
C500 C 0.26989 0.11728 0.5869 0.0
C501 C 0.25054 0.16166 0.57054 0.0
C502 C 0.2494 0.10785 0.57813 0.0
C503 C 0.24948 0.08899 0.56163 0.0
C504 C 0.27005 0.07917 0.5538 0.0
C505 C 0.29044 0.08859 0.56294 0.0
C506 C 0.29034 0.10735 0.57926 0.0
H507 H 0.24921 0.17968 0.56525 0.0
H508 H 0.25994 0.15278 0.55487 0.0
H509 H 0.23316 0.15459 0.57137 0.0
H510 H 0.23337 0.11496 0.58416 0.0
H511 H 0.23348 0.08212 0.55505 0.0
H512 H 0.80844 0.30652 0.64767 0.0
H513 H 0.839 0.29762 0.61685 0.0
H514 H 0.88272 0.28081 0.68135 0.0
H515 H 0.85222 0.2892 0.71196 0.0
H516 H 0.87902 0.31611 0.61068 0.0
H517 H 0.89262 0.2272 0.63572 0.0
H518 H 0.86814 0.24259 0.64682 0.0
H519 H 0.89454 0.2444 0.66436 0.0
C520 C 0.8246 0.30093 0.65519 0.0
C521 C 0.82792 0.29841 0.68219 0.0
C522 C 0.84198 0.2957 0.6376 0.0
C523 C 0.86299 0.28793 0.64672 0.0
C524 C 0.86643 0.28592 0.67373 0.0
H525 H 0.99333 0.30721 0.58356 0.0
H526 H 0.95747 0.30595 0.60699 0.0
C527 C 0.84904 0.29091 0.69124 0.0
C528 C 0.88193 0.28345 0.62831 0.0
H529 H 0.92417 0.24608 0.61465 0.0
C530 C 0.88862 0.30063 0.61126 0.0
C531 C 0.89425 0.26307 0.62855 0.0
C532 C 0.88683 0.2432 0.64465 0.0
C533 C 0.90806 0.29855 0.59572 0.0
C534 C 0.92153 0.27902 0.5978 0.0
C535 C 0.91408 0.26123 0.6135 0.0
C536 C 0.94414 0.27771 0.58529 0.0
C537 C 0.91422 0.31751 0.57754 0.0
C538 C 0.94912 0.26133 0.56638 0.0
C539 C 0.96991 0.26181 0.55309 0.0
C540 C 0.98586 0.27871 0.55857 0.0
C541 C 0.98126 0.29417 0.57862 0.0
C542 C 0.96071 0.29357 0.59194 0.0
H543 H 0.89906 0.32741 0.57197 0.0
H544 H 0.9262 0.329 0.58757 0.0
H545 H 0.92246 0.31116 0.5595 0.0
H546 H 0.93662 0.24877 0.56121 0.0
H547 H 0.97301 0.24971 0.5377 0.0
H548 H 0.71546 0.86567 0.7489 0.0
H549 H 0.71555 0.89537 0.71596 0.0
H550 H 0.76881 0.8614 0.67424 0.0
H551 H 0.76918 0.83193 0.70711 0.0
H552 H 0.75184 0.92347 0.70131 0.0
H553 H 0.7212 0.87324 0.61723 0.0
H554 H 0.71836 0.86394 0.65063 0.0
H555 H 0.74491 0.86096 0.63379 0.0
C556 C 0.72726 0.8645 0.7328 0.0
C557 C 0.74222 0.84621 0.73073 0.0
C558 C 0.72718 0.88146 0.71389 0.0
C559 C 0.7419 0.8804 0.6924 0.0
C560 C 0.75691 0.86229 0.69031 0.0
H561 H 0.79678 0.98062 0.59139 0.0
H562 H 0.78825 0.95238 0.62435 0.0
C563 C 0.75707 0.84539 0.7092 0.0
C564 C 0.74238 0.89867 0.67271 0.0
H565 H 0.73768 0.90892 0.60728 0.0
C566 C 0.7485 0.92035 0.6808 0.0
C567 C 0.73774 0.89465 0.64599 0.0
C568 C 0.72997 0.87199 0.63636 0.0
C569 C 0.75106 0.93788 0.66273 0.0
C570 C 0.74761 0.93356 0.63584 0.0
C571 C 0.74052 0.91214 0.62787 0.0
C572 C 0.75246 0.95075 0.61564 0.0
C573 C 0.75762 0.96086 0.67253 0.0
C574 C 0.73524 0.95887 0.59931 0.0
C575 C 0.74006 0.97511 0.5803 0.0
C576 C 0.76227 0.98329 0.57712 0.0
C577 C 0.77948 0.97479 0.59329 0.0
C578 C 0.77463 0.95871 0.6123 0.0
H579 H 0.75361 0.96294 0.6936 0.0
H580 H 0.77613 0.96324 0.67001 0.0
H581 H 0.74882 0.97419 0.66134 0.0
H582 H 0.71804 0.95281 0.60146 0.0
H583 H 0.72643 0.98124 0.56814 0.0
H584 H 0.82294 0.71838 0.71884 0.0
H585 H 0.85694 0.72325 0.69218 0.0
H586 H 0.85715 0.79403 0.70956 0.0
H587 H 0.82333 0.78925 0.73664 0.0
H588 H 0.86192 0.74889 0.64831 0.0
H589 H 0.92258 0.77752 0.72421 0.0
H590 H 0.89562 0.76497 0.73222 0.0
H591 H 0.89712 0.79383 0.72225 0.0
C592 C 0.83032 0.73497 0.71726 0.0
C593 C 0.82039 0.7534 0.73003 0.0
C594 C 0.84978 0.73773 0.70194 0.0
C595 C 0.85985 0.75896 0.69907 0.0
C596 C 0.85005 0.77739 0.71189 0.0
H597 H 0.97459 0.80061 0.59958 0.0
H598 H 0.94188 0.80111 0.62935 0.0
C599 C 0.8306 0.77464 0.72729 0.0
C600 C 0.87993 0.76181 0.68166 0.0
H601 H 0.9355 0.77824 0.68037 0.0
C602 C 0.87799 0.7553 0.65538 0.0
C603 C 0.90091 0.77035 0.69075 0.0
C604 C 0.90434 0.7769 0.71894 0.0
C605 C 0.89638 0.75694 0.63805 0.0
C606 C 0.91745 0.76506 0.64725 0.0
C607 C 0.91933 0.77206 0.67335 0.0
C608 C 0.93796 0.76504 0.63033 0.0
C609 C 0.89312 0.74999 0.60996 0.0
C610 C 0.94692 0.74463 0.62151 0.0
C611 C 0.96556 0.74428 0.6047 0.0
C612 C 0.97578 0.76436 0.59623 0.0
C613 C 0.96714 0.78484 0.60564 0.0
C614 C 0.94845 0.78516 0.62265 0.0
H615 H 0.87494 0.74964 0.60445 0.0
H616 H 0.90224 0.76154 0.59658 0.0
H617 H 0.90008 0.73289 0.60712 0.0
H618 H 0.93934 0.72889 0.62749 0.0
H619 H 0.97173 0.72816 0.59803 0.0
H620 H 0.35529 0.8466 0.70073 0.0
H621 H 0.34846 0.88081 0.67611 0.0
H622 H 0.27706 0.87582 0.6928 0.0
H623 H 0.28381 0.84116 0.71754 0.0
H624 H 0.28717 0.87965 0.63971 0.0
H625 H 0.33277 0.94521 0.69542 0.0
H626 H 0.34983 0.92086 0.68952 0.0
H627 H 0.3249 0.91858 0.70958 0.0
C628 C 0.33817 0.853 0.69969 0.0
C629 C 0.32007 0.84114 0.71104 0.0
C630 C 0.33432 0.8727 0.68573 0.0
C631 C 0.3123 0.88104 0.68282 0.0
C632 C 0.29423 0.86975 0.69499 0.0
H633 H 0.26553 0.98232 0.57143 0.0
H634 H 0.26717 0.95494 0.60676 0.0
C635 C 0.2981 0.85003 0.70921 0.0
C636 C 0.30817 0.89999 0.66465 0.0
H637 H 0.32518 0.95338 0.65029 0.0
C638 C 0.29513 0.89592 0.64223 0.0
C639 C 0.31875 0.92112 0.66785 0.0
C640 C 0.33217 0.92681 0.69203 0.0
C641 C 0.2932 0.91204 0.62238 0.0
C642 C 0.30429 0.93297 0.62527 0.0
C643 C 0.31682 0.93728 0.64803 0.0
C644 C 0.30344 0.9504 0.6046 0.0
C645 C 0.28014 0.90613 0.59799 0.0
C646 C 0.3234 0.95749 0.59214 0.0
C647 C 0.32257 0.97331 0.57196 0.0
C648 C 0.30174 0.98237 0.56394 0.0
C649 C 0.28185 0.97556 0.5769 0.0
C650 C 0.28272 0.95982 0.59707 0.0
H651 H 0.27741 0.88775 0.59612 0.0
H652 H 0.2633 0.91431 0.59872 0.0
H653 H 0.2891 0.91219 0.58027 0.0
H654 H 0.33959 0.9505 0.59773 0.0
H655 H 0.3382 0.97824 0.56249 0.0
H656 H 0.21157 0.33781 0.73662 0.0
H657 H 0.17748 0.33759 0.70972 0.0
H658 H 0.18173 0.2656 0.70285 0.0
H659 H 0.21579 0.26576 0.73041 0.0
H660 H 0.18156 0.32265 0.65892 0.0
H661 H 0.11311 0.27622 0.71025 0.0
H662 H 0.13724 0.28791 0.72719 0.0
H663 H 0.14007 0.26232 0.70895 0.0
C664 C 0.20472 0.32185 0.7302 0.0
C665 C 0.21621 0.3018 0.73562 0.0
C666 C 0.1853 0.32175 0.71475 0.0
C667 C 0.17705 0.30161 0.70421 0.0
C668 C 0.18756 0.28131 0.71111 0.0
H669 H 0.08402 0.2747 0.57653 0.0
H670 H 0.11035 0.27211 0.61316 0.0
C671 C 0.20698 0.28139 0.72691 0.0
C672 C 0.15977 0.3025 0.68318 0.0
H673 H 0.10653 0.28566 0.66583 0.0
C674 C 0.16509 0.31467 0.66052 0.0
C675 C 0.13843 0.29186 0.68516 0.0
C676 C 0.1317 0.27896 0.70925 0.0
C677 C 0.14975 0.31646 0.63976 0.0
C678 C 0.12825 0.30615 0.64185 0.0
C679 C 0.12296 0.29371 0.66437 0.0
C680 C 0.11129 0.30781 0.62056 0.0
C681 C 0.15691 0.32898 0.61551 0.0
C682 C 0.10279 0.32875 0.61277 0.0
C683 C 0.08779 0.33034 0.5917 0.0
C684 C 0.0809 0.31098 0.57812 0.0
C685 C 0.08905 0.28998 0.58642 0.0
C686 C 0.10404 0.28843 0.60745 0.0
H687 H 0.1756 0.33089 0.61435 0.0
H688 H 0.15094 0.32025 0.59762 0.0
H689 H 0.14938 0.34601 0.61583 0.0
H690 H 0.10787 0.34389 0.62291 0.0
H691 H 0.08171 0.34673 0.58599 0.0
H692 H 0.78492 0.23988 0.68393 0.0
H693 H 0.79293 0.20489 0.66124 0.0
H694 H 0.78628 0.16854 0.73359 0.0
H695 H 0.77879 0.20411 0.75685 0.0
H696 H 0.82186 0.15232 0.69955 0.0
H697 H 0.74038 0.16157 0.64738 0.0
H698 H 0.75815 0.18583 0.64405 0.0
H699 H 0.7475 0.17812 0.67575 0.0
C700 C 0.78531 0.22447 0.69512 0.0
C701 C 0.78078 0.22461 0.72206 0.0
C702 C 0.7899 0.20448 0.6821 0.0
C703 C 0.78961 0.18405 0.69557 0.0
C704 C 0.78638 0.18415 0.7228 0.0
H705 H 0.7683 0.06497 0.60087 0.0
H706 H 0.76641 0.09282 0.63568 0.0
C707 C 0.7821 0.20439 0.73605 0.0
C708 C 0.7912 0.16281 0.68049 0.0
H709 H 0.7666 0.13547 0.62927 0.0
C710 C 0.80966 0.1484 0.68439 0.0
C711 C 0.77506 0.15751 0.66101 0.0
C712 C 0.75404 0.17145 0.65695 0.0
C713 C 0.81285 0.12928 0.66858 0.0
C714 C 0.79743 0.12482 0.64799 0.0
C715 C 0.77859 0.13888 0.64482 0.0
C716 C 0.8002 0.10586 0.62926 0.0
C717 C 0.83257 0.11403 0.67424 0.0
C718 C 0.82001 0.10348 0.61421 0.0
C719 C 0.82126 0.0872 0.59444 0.0
C720 C 0.80251 0.07342 0.58896 0.0
C721 C 0.78296 0.0755 0.60442 0.0
C722 C 0.78188 0.0914 0.62441 0.0
H723 H 0.83799 0.1154 0.69495 0.0
H724 H 0.82831 0.09625 0.66999 0.0
H725 H 0.84713 0.11899 0.66182 0.0
H726 H 0.83418 0.11476 0.61702 0.0
H727 H 0.83649 0.08607 0.58274 0.0
H728 H 0.83924 0.29556 0.34851 0.0
H729 H 0.87557 0.30365 0.36911 0.0
H730 H 0.84634 0.36086 0.40808 0.0
H731 H 0.80973 0.35272 0.38757 0.0
H732 H 0.90318 0.3406 0.36664 0.0
H733 H 0.87395 0.32673 0.46861 0.0
H734 H 0.85718 0.31871 0.44068 0.0
H735 H 0.85848 0.34757 0.45078 0.0
C736 C 0.84052 0.31 0.36126 0.0
C737 C 0.82151 0.32348 0.3664 0.0
C738 C 0.86133 0.31456 0.37312 0.0
C739 C 0.86366 0.33269 0.39043 0.0
C740 C 0.84485 0.34648 0.39526 0.0
H741 H 0.98375 0.36322 0.48643 0.0
H742 H 0.94855 0.36903 0.46181 0.0
C743 C 0.82393 0.34183 0.38349 0.0
C744 C 0.88582 0.33683 0.40339 0.0
H745 H 0.91209 0.33705 0.46285 0.0
C746 C 0.90508 0.34001 0.3877 0.0
C747 C 0.88833 0.33613 0.43088 0.0
C748 C 0.86846 0.33192 0.44878 0.0
C749 C 0.92679 0.34196 0.39868 0.0
C750 C 0.92935 0.34053 0.42607 0.0
C751 C 0.91005 0.33826 0.44185 0.0
C752 C 0.95196 0.33889 0.43857 0.0
C753 C 0.94687 0.34522 0.38087 0.0
C754 C 0.96566 0.32021 0.43341 0.0
C755 C 0.98559 0.3168 0.44748 0.0
C756 C 0.99232 0.33203 0.467 0.0
C757 C 0.97914 0.35131 0.47135 0.0
C758 C 0.95898 0.35459 0.4574 0.0
H759 H 0.94175 0.35249 0.36181 0.0
H760 H 0.95974 0.35634 0.39 0.0
H761 H 0.95486 0.32871 0.37702 0.0
H762 H 0.96041 0.30769 0.4193 0.0
H763 H 0.99533 0.30176 0.44369 0.0
H764 H 0.82714 0.88982 0.28406 0.0
H765 H 0.82721 0.91599 0.32088 0.0
H766 H 0.84098 0.86135 0.3736 0.0
H767 H 0.84056 0.83508 0.33687 0.0
H768 H 0.80774 0.88659 0.39178 0.0
H769 H 0.87831 0.94233 0.36266 0.0
H770 H 0.8571 0.94031 0.33774 0.0
H771 H 0.87299 0.91578 0.34681 0.0
C772 C 0.83051 0.88344 0.30344 0.0
C773 C 0.83383 0.86036 0.30752 0.0
C774 C 0.83065 0.89844 0.3245 0.0
C775 C 0.8345 0.89075 0.35003 0.0
C776 C 0.83804 0.86773 0.3541 0.0
H777 H 0.85106 0.9824 0.48384 0.0
H778 H 0.8582 0.95431 0.44967 0.0
C779 C 0.8377 0.8527 0.33309 0.0
C780 C 0.83336 0.90643 0.37266 0.0
H781 H 0.85359 0.9563 0.39617 0.0
C782 C 0.81796 0.90171 0.39283 0.0
C783 C 0.84694 0.926 0.37436 0.0
C784 C 0.86493 0.9313 0.35437 0.0
C785 C 0.81517 0.91634 0.41409 0.0
C786 C 0.82771 0.93659 0.41495 0.0
C787 C 0.84375 0.94094 0.39534 0.0
C788 C 0.8237 0.95381 0.43548 0.0
C789 C 0.79883 0.90988 0.43548 0.0
C790 C 0.80209 0.96317 0.43851 0.0
C791 C 0.79795 0.97904 0.458 0.0
C792 C 0.81541 0.98618 0.47478 0.0
C793 C 0.83723 0.97721 0.47133 0.0
C794 C 0.84133 0.96118 0.45181 0.0
H795 H 0.79629 0.89142 0.43628 0.0
H796 H 0.80487 0.91573 0.45487 0.0
H797 H 0.78215 0.91769 0.43157 0.0
H798 H 0.78836 0.95823 0.42571 0.0
H799 H 0.781 0.98574 0.45983 0.0
H800 H 0.2275 0.80002 0.35384 0.0
H801 H 0.19545 0.80582 0.38345 0.0
H802 H 0.19089 0.73446 0.39594 0.0
H803 H 0.22281 0.72854 0.36649 0.0
H804 H 0.15164 0.79046 0.38019 0.0
H805 H 0.19165 0.75802 0.47013 0.0
H806 H 0.20777 0.76465 0.44118 0.0
H807 H 0.19307 0.73825 0.44375 0.0
C808 C 0.21968 0.78555 0.36288 0.0
C809 C 0.22788 0.76379 0.35783 0.0
C810 C 0.20139 0.78891 0.37988 0.0
C811 C 0.19096 0.77063 0.39231 0.0
C812 C 0.19901 0.74891 0.38717 0.0
H813 H 0.07522 0.73587 0.48095 0.0
H814 H 0.1083 0.73967 0.45299 0.0
C815 C 0.21731 0.74553 0.37027 0.0
C816 C 0.17123 0.77403 0.41 0.0
H817 H 0.15114 0.76098 0.47071 0.0
C818 C 0.15163 0.78434 0.40012 0.0
C819 C 0.17126 0.76624 0.4361 0.0
C820 C 0.19215 0.75639 0.44852 0.0
C821 C 0.13175 0.78595 0.4152 0.0
C822 C 0.13151 0.77714 0.4408 0.0
C823 C 0.15133 0.76763 0.451 0.0
C824 C 0.11044 0.77573 0.45656 0.0
C825 C 0.11079 0.79611 0.40334 0.0
C826 C 0.10042 0.79486 0.4677 0.0
C827 C 0.08133 0.79277 0.48395 0.0
C828 C 0.07201 0.7715 0.48926 0.0
C829 C 0.08187 0.75254 0.47743 0.0
C830 C 0.10087 0.75463 0.46141 0.0
H831 H 0.11311 0.80024 0.38236 0.0
H832 H 0.09627 0.78437 0.40531 0.0
H833 H 0.1064 0.81172 0.414 0.0
H834 H 0.10768 0.8113 0.46435 0.0
H835 H 0.07424 0.80769 0.4928 0.0
H836 H 0.32706 0.22903 0.32623 0.0
H837 H 0.33283 0.19876 0.35764 0.0
H838 H 0.30094 0.1521 0.30468 0.0
H839 H 0.29533 0.18231 0.27307 0.0
H840 H 0.30046 0.17518 0.38143 0.0
H841 H 0.3559 0.1167 0.32706 0.0
H842 H 0.35119 0.14524 0.31665 0.0
H843 H 0.33076 0.12371 0.30923 0.0
C844 C 0.32138 0.2123 0.32121 0.0
C845 C 0.31064 0.20809 0.2972 0.0
C846 C 0.32482 0.19499 0.33912 0.0
C847 C 0.31761 0.17307 0.33341 0.0
C848 C 0.3072 0.16872 0.30926 0.0
H849 H 0.27374 0.07215 0.43949 0.0
H850 H 0.27906 0.10124 0.40678 0.0
C851 C 0.3039 0.18603 0.29124 0.0
C852 C 0.31914 0.15531 0.35365 0.0
H853 H 0.33702 0.10167 0.36484 0.0
C854 C 0.30871 0.15923 0.37787 0.0
C855 C 0.33015 0.13457 0.34918 0.0
C856 C 0.34284 0.12986 0.32421 0.0
C857 C 0.30821 0.14272 0.39732 0.0
C858 C 0.31803 0.12154 0.39228 0.0
C859 C 0.32929 0.11786 0.36852 0.0
C860 C 0.31546 0.10273 0.41093 0.0
C861 C 0.29697 0.14804 0.42307 0.0
C862 C 0.3343 0.09331 0.42348 0.0
C863 C 0.33135 0.07647 0.4423 0.0
C864 C 0.30949 0.06879 0.4487 0.0
C865 C 0.29081 0.07779 0.43532 0.0
C866 C 0.29378 0.0945 0.41661 0.0
H867 H 0.29612 0.16642 0.42659 0.0
H868 H 0.27939 0.14144 0.42286 0.0
H869 H 0.30613 0.1401 0.43956 0.0
H870 H 0.3512 0.09937 0.4192 0.0
H871 H 0.34608 0.06983 0.45217 0.0
H872 H 0.7143 0.77154 0.79174 0.0
H873 H 0.6949 0.7733 0.83415 0.0
H874 H 0.69039 0.70111 0.83513 0.0
H875 H 0.7103 0.69946 0.79326 0.0
H876 H 0.65128 0.75715 0.84235 0.0
H877 H 0.71075 0.71449 0.90984 0.0
H878 H 0.71965 0.72675 0.87929 0.0
H879 H 0.70569 0.69994 0.87966 0.0
C880 C 0.70997 0.75613 0.80157 0.0
C881 C 0.71442 0.73542 0.7896 0.0
C882 C 0.69864 0.75708 0.82563 0.0
C883 C 0.6915 0.7373 0.83815 0.0
C884 C 0.69618 0.71658 0.82629 0.0
H885 H 0.59959 0.709 0.96892 0.0
H886 H 0.62595 0.70566 0.93186 0.0
C887 C 0.70741 0.71567 0.80223 0.0
C888 C 0.67716 0.73834 0.8621 0.0
H889 H 0.67341 0.72083 0.9256 0.0
C890 C 0.65622 0.74934 0.86059 0.0
C891 C 0.68348 0.72795 0.88586 0.0
C892 C 0.70618 0.71675 0.88897 0.0
C893 C 0.64133 0.75003 0.88199 0.0
C894 C 0.64762 0.73971 0.90578 0.0
C895 C 0.66853 0.72861 0.90733 0.0
C896 C 0.63298 0.74122 0.92942 0.0
C897 C 0.61875 0.76153 0.87883 0.0
C898 C 0.62863 0.76219 0.94076 0.0
C899 C 0.61368 0.76414 0.96179 0.0
C900 C 0.60269 0.74514 0.97217 0.0
C901 C 0.60768 0.72397 0.9614 0.0
C902 C 0.62275 0.72204 0.94024 0.0
H903 H 0.6141 0.76352 0.85795 0.0
H904 H 0.60512 0.75199 0.88885 0.0
H905 H 0.61965 0.77848 0.88774 0.0
H906 H 0.6366 0.77717 0.93306 0.0
H907 H 0.61049 0.78072 0.96963 0.0
H908 H 0.28996 0.75718 0.82223 0.0
H909 H 0.2839 0.73412 0.86146 0.0
H910 H 0.29869 0.6745 0.81685 0.0
H911 H 0.30424 0.69706 0.77793 0.0
H912 H 0.26175 0.66934 0.84823 0.0
H913 H 0.33469 0.70427 0.90381 0.0
H914 H 0.31402 0.72423 0.89281 0.0
H915 H 0.33082 0.70928 0.86935 0.0
C916 C 0.29164 0.73914 0.82081 0.0
C917 C 0.2977 0.72897 0.79701 0.0
C918 C 0.28841 0.72602 0.84325 0.0
C919 C 0.29126 0.70262 0.84215 0.0
C920 C 0.29654 0.69251 0.81821 0.0
H921 H 0.31825 0.5989 0.9554 0.0
H922 H 0.32053 0.62896 0.9227 0.0
C923 C 0.29973 0.70549 0.79594 0.0
C924 C 0.28892 0.68825 0.86562 0.0
H925 H 0.31364 0.67547 0.92406 0.0
C926 C 0.27295 0.67081 0.86493 0.0
C927 C 0.30383 0.68997 0.88716 0.0
C928 C 0.32196 0.70781 0.8884 0.0
C929 C 0.27171 0.6548 0.8849 0.0
C930 C 0.28648 0.6566 0.90658 0.0
C931 C 0.30228 0.67421 0.90749 0.0
C932 C 0.28594 0.63999 0.92811 0.0
C933 C 0.25517 0.63559 0.88205 0.0
C934 C 0.26603 0.63674 0.94252 0.0
C935 C 0.26461 0.61951 0.96083 0.0
C936 C 0.28322 0.60538 0.96548 0.0
C937 C 0.30362 0.60945 0.95214 0.0
C938 C 0.30494 0.62661 0.93351 0.0
H939 H 0.24961 0.63338 0.86148 0.0
H940 H 0.26272 0.61961 0.88889 0.0
H941 H 0.23992 0.63908 0.89403 0.0
H942 H 0.25137 0.64722 0.93916 0.0
H943 H 0.24877 0.61708 0.97112 0.0
H944 H 0.36191 0.27324 0.7976 0.0
H945 H 0.38498 0.2658 0.83575 0.0
H946 H 0.32477 0.25626 0.88216 0.0
H947 H 0.30123 0.26428 0.84362 0.0
H948 H 0.35404 0.28452 0.90561 0.0
H949 H 0.40175 0.2099 0.87439 0.0
H950 H 0.4038 0.23129 0.84998 0.0
H951 H 0.3766 0.21915 0.85757 0.0
C952 C 0.35344 0.26923 0.81577 0.0
C953 C 0.32967 0.26941 0.81752 0.0
C954 C 0.36674 0.26473 0.83761 0.0
C955 C 0.35671 0.26004 0.86182 0.0
C956 C 0.33292 0.25962 0.86361 0.0
H957 H 0.45633 0.23654 0.9876 0.0
H958 H 0.42406 0.23043 0.95824 0.0
C959 C 0.31948 0.26413 0.84158 0.0
C960 C 0.37135 0.25789 0.88536 0.0
H961 H 0.42062 0.23394 0.90625 0.0
C962 C 0.36832 0.27312 0.90601 0.0
C963 C 0.38979 0.24275 0.8863 0.0
C964 C 0.39301 0.2247 0.86597 0.0
C965 C 0.38409 0.27471 0.92649 0.0
C966 C 0.40373 0.26111 0.926 0.0
C967 C 0.40586 0.24473 0.90642 0.0
C968 C 0.42291 0.26471 0.94443 0.0
C969 C 0.37967 0.29124 0.94822 0.0
C970 C 0.43333 0.28585 0.94611 0.0
C971 C 0.45165 0.28939 0.96288 0.0
C972 C 0.46027 0.27179 0.97817 0.0
C973 C 0.45011 0.25047 0.97615 0.0
C974 C 0.43163 0.24697 0.9594 0.0
H975 H 0.36122 0.29409 0.95089 0.0
H976 H 0.38691 0.2854 0.96702 0.0
H977 H 0.38751 0.3076 0.94317 0.0
H978 H 0.42746 0.29964 0.93418 0.0
H979 H 0.45914 0.30597 0.96369 0.0
H980 H 0.78477 0.30882 0.84341 0.0
H981 H 0.79014 0.33653 0.87829 0.0
H982 H 0.84586 0.36573 0.83586 0.0
H983 H 0.84083 0.33811 0.80102 0.0
H984 H 0.83433 0.35062 0.90829 0.0
H985 H 0.79326 0.41541 0.84609 0.0
H986 H 0.78875 0.38575 0.84101 0.0
H987 H 0.81503 0.39841 0.83143 0.0
C988 C 0.79846 0.32084 0.8417 0.0
C989 C 0.81227 0.3213 0.81929 0.0
C990 C 0.80148 0.33666 0.86166 0.0
C991 C 0.81826 0.35324 0.85947 0.0
C992 C 0.83275 0.3531 0.8378 0.0
H993 H 0.85679 0.45759 0.97208 0.0
H994 H 0.85779 0.42718 0.93974 0.0
C995 C 0.82985 0.33725 0.81793 0.0
C996 C 0.81955 0.37168 0.87884 0.0
H997 H 0.80663 0.42702 0.88724 0.0
C998 C 0.82838 0.36736 0.90374 0.0
C999 C 0.81159 0.3934 0.87279 0.0
C1000 C 0.80148 0.39867 0.84646 0.0
C1001 C 0.8295 0.38433 0.92282 0.0
C1002 C 0.82166 0.40611 0.91671 0.0
C1003 C 0.81278 0.41035 0.89179 0.0
C1004 C 0.82138 0.42449 0.93627 0.0
C1005 C 0.83853 0.37875 0.94957 0.0
C1006 C 0.80062 0.43334 0.94461 0.0
C1007 C 0.79999 0.45068 0.96297 0.0
C1008 C 0.82014 0.4597 0.97326 0.0
C1009 C 0.84097 0.45102 0.96458 0.0
C1010 C 0.84157 0.43355 0.94624 0.0
H1011 H 0.83992 0.36036 0.95264 0.0
H1012 H 0.85563 0.38623 0.95186 0.0
H1013 H 0.82745 0.38591 0.96499 0.0
H1014 H 0.78485 0.42667 0.93706 0.0
H1015 H 0.78364 0.45696 0.96912 0.0
H1016 H 0.65674 0.2722 0.27542 0.0
H1017 H 0.63004 0.26827 0.23931 0.0
H1018 H 0.67488 0.306 0.18947 0.0
H1019 H 0.70159 0.31032 0.22553 0.0
H1020 H 0.60806 0.30126 0.20981 0.0
H1021 H 0.66311 0.24821 0.1474 0.0
H1022 H 0.66871 0.25291 0.18164 0.0
H1023 H 0.6761 0.27393 0.15798 0.0
C1024 C 0.66089 0.27992 0.25693 0.0
C1025 C 0.68149 0.29149 0.25347 0.0
C1026 C 0.64563 0.2775 0.23621 0.0
C1027 C 0.65066 0.28644 0.21155 0.0
C1028 C 0.6709 0.29846 0.20815 0.0
H1029 H 0.56312 0.31655 0.08262 0.0
H1030 H 0.58924 0.31625 0.11942 0.0
C1031 C 0.68616 0.30094 0.22885 0.0
C1032 C 0.63453 0.28359 0.18953 0.0
H1033 H 0.62962 0.26255 0.12763 0.0
C1034 C 0.61273 0.29268 0.19191 0.0
C1035 C 0.64053 0.2721 0.16632 0.0
C1036 C 0.66331 0.26102 0.16317 0.0
C1037 C 0.59702 0.29123 0.17139 0.0
C1038 C 0.60335 0.28059 0.14778 0.0
C1039 C 0.62488 0.27085 0.14568 0.0
C1040 C 0.58811 0.28031 0.12474 0.0
C1041 C 0.57375 0.30113 0.17511 0.0
C1042 C 0.57928 0.26007 0.11498 0.0
C1043 C 0.56424 0.26013 0.09379 0.0
C1044 C 0.55797 0.28045 0.08187 0.0
C1045 C 0.56743 0.30058 0.09133 0.0
C1046 C 0.58232 0.30049 0.11249 0.0
H1047 H 0.56965 0.30352 0.19611 0.0
H1048 H 0.57307 0.31777 0.16546 0.0
H1049 H 0.56059 0.29026 0.16613 0.0
H1050 H 0.58369 0.24428 0.12409 0.0
H1051 H 0.55733 0.24434 0.08697 0.0
H1052 H 0.87827 0.72451 0.17492 0.0
H1053 H 0.87783 0.68911 0.15057 0.0
H1054 H 0.80608 0.68286 0.1643 0.0
H1055 H 0.80623 0.71843 0.18791 0.0
H1056 H 0.8647 0.64631 0.16799 0.0
H1057 H 0.81116 0.67413 0.08538 0.0
H1058 H 0.82451 0.69361 0.10761 0.0
H1059 H 0.79871 0.67957 0.11673 0.0
C1060 C 0.86234 0.71579 0.17244 0.0
C1061 C 0.84227 0.72441 0.18336 0.0
C1062 C 0.86215 0.69546 0.15868 0.0
C1063 C 0.84188 0.68347 0.15534 0.0
C1064 C 0.82186 0.69199 0.16625 0.0
H1065 H 0.79475 0.55981 0.08911 0.0
H1066 H 0.80076 0.5948 0.11286 0.0
C1067 C 0.82202 0.71225 0.18001 0.0
C1068 C 0.8416 0.66179 0.141 0.0
H1069 H 0.81649 0.63469 0.08984 0.0
C1070 C 0.85436 0.64379 0.15073 0.0
C1071 C 0.82816 0.65858 0.11845 0.0
C1072 C 0.81502 0.67755 0.10624 0.0
C1073 C 0.85331 0.62242 0.1391 0.0
C1074 C 0.83936 0.61909 0.11699 0.0
C1075 C 0.82706 0.63724 0.10691 0.0
C1076 C 0.83658 0.59679 0.10439 0.0
C1077 C 0.86649 0.60339 0.15108 0.0
C1078 C 0.85482 0.58608 0.09198 0.0
C1079 C 0.85146 0.56593 0.07835 0.0
C1080 C 0.82975 0.55624 0.07678 0.0
C1081 C 0.81169 0.56676 0.08987 0.0
C1082 C 0.81507 0.58682 0.10344 0.0
H1083 H 0.87252 0.60755 0.17106 0.0
H1084 H 0.85598 0.58794 0.15203 0.0
H1085 H 0.88149 0.59975 0.13875 0.0
H1086 H 0.8715 0.59366 0.09212 0.0
H1087 H 0.8657 0.55837 0.06836 0.0
H1088 H 0.33831 0.75112 0.1977 0.0
H1089 H 0.3679 0.74629 0.16463 0.0
H1090 H 0.41872 0.76344 0.2217 0.0
H1091 H 0.38933 0.76806 0.25479 0.0
H1092 H 0.39787 0.77508 0.1446 0.0
H1093 H 0.44509 0.70659 0.19251 0.0
H1094 H 0.41737 0.71527 0.20332 0.0
H1095 H 0.4422 0.73057 0.21341 0.0
C1096 C 0.35577 0.75389 0.20322 0.0
C1097 C 0.36138 0.75982 0.22905 0.0
C1098 C 0.37272 0.75102 0.18429 0.0
C1099 C 0.39568 0.75399 0.19071 0.0
C1100 C 0.40126 0.76031 0.21635 0.0
H1101 H 0.50585 0.78645 0.08669 0.0
H1102 H 0.47436 0.78558 0.11739 0.0
C1103 C 0.38437 0.76304 0.23531 0.0
C1104 C 0.41372 0.75138 0.17043 0.0
H1105 H 0.46436 0.72571 0.15781 0.0
C1106 C 0.41229 0.76412 0.14744 0.0
C1107 C 0.43241 0.73677 0.17372 0.0
C1108 C 0.43427 0.72134 0.19694 0.0
C1109 C 0.42933 0.76331 0.12823 0.0
C1110 C 0.4487 0.74977 0.13229 0.0
C1111 C 0.44973 0.73635 0.15479 0.0
C1112 C 0.46834 0.7499 0.11387 0.0
C1113 C 0.42626 0.7769 0.10365 0.0
C1114 C 0.47623 0.72996 0.1023 0.0
C1115 C 0.49458 0.73034 0.08481 0.0
C1116 C 0.50547 0.75068 0.0786 0.0
C1117 C 0.49779 0.77049 0.0907 0.0
C1118 C 0.4796 0.77007 0.1082 0.0
H1119 H 0.40808 0.78022 0.09972 0.0
H1120 H 0.43488 0.79333 0.10601 0.0
H1121 H 0.43364 0.76823 0.08644 0.0
H1122 H 0.46798 0.71413 0.10652 0.0
H1123 H 0.50006 0.71477 0.07594 0.0
H1124 H 0.31119 0.34621 0.18874 0.0
H1125 H 0.31426 0.38024 0.16227 0.0
H1126 H 0.24329 0.37558 0.14338 0.0
H1127 H 0.24001 0.34165 0.17012 0.0
H1128 H 0.30235 0.38764 0.10723 0.0
H1129 H 0.25231 0.43922 0.17682 0.0
H1130 H 0.26491 0.41278 0.18585 0.0
H1131 H 0.23934 0.41326 0.16692 0.0
C1132 C 0.29621 0.35244 0.17898 0.0
C1133 C 0.27527 0.34136 0.18176 0.0
C1134 C 0.29804 0.3718 0.16375 0.0
C1135 C 0.27894 0.38057 0.1512 0.0
C1136 C 0.25817 0.3692 0.15321 0.0
H1137 H 0.24389 0.49576 0.06075 0.0
H1138 H 0.24606 0.46184 0.08693 0.0
C1139 C 0.25636 0.34973 0.1683 0.0
C1140 C 0.28059 0.40193 0.13653 0.0
H1141 H 0.26171 0.45599 0.13637 0.0
C1142 C 0.2936 0.40266 0.11361 0.0
C1143 C 0.26927 0.42147 0.14507 0.0
C1144 C 0.2558 0.42184 0.17012 0.0
C1145 C 0.29487 0.42225 0.0984 0.0
C1146 C 0.28321 0.44173 0.10672 0.0
C1147 C 0.27063 0.44107 0.13 0.0
C1148 C 0.28252 0.46255 0.09082 0.0
C1149 C 0.30795 0.42166 0.07309 0.0
C1150 C 0.30232 0.47449 0.0845 0.0
C1151 C 0.30117 0.49402 0.0693 0.0
C1152 C 0.28015 0.50201 0.06039 0.0
C1153 C 0.26038 0.49016 0.06722 0.0
C1154 C 0.26157 0.4707 0.08223 0.0
H1155 H 0.31145 0.40421 0.06662 0.0
H1156 H 0.29856 0.43044 0.05737 0.0
H1157 H 0.32442 0.43033 0.07584 0.0
H1158 H 0.31865 0.46878 0.09139 0.0
H1159 H 0.31669 0.50278 0.06448 0.0
H1160 H 0.38162 0.28589 0.25949 0.0
H1161 H 0.40815 0.30002 0.22702 0.0
H1162 H 0.36357 0.35547 0.21085 0.0
H1163 H 0.33677 0.34136 0.24329 0.0
H1164 H 0.37255 0.33099 0.16768 0.0
H1165 H 0.45328 0.35037 0.21714 0.0
H1166 H 0.44285 0.32327 0.22645 0.0
H1167 H 0.42682 0.34797 0.23468 0.0
C1168 C 0.37774 0.3015 0.2497 0.0
C1169 C 0.35686 0.31227 0.25376 0.0
C1170 C 0.39305 0.30966 0.23117 0.0
C1171 C 0.38793 0.32887 0.21651 0.0
C1172 C 0.36791 0.34065 0.22197 0.0
H1173 H 0.47923 0.35814 0.08306 0.0
H1174 H 0.45483 0.36567 0.12107 0.0
C1175 C 0.3526 0.33254 0.24058 0.0
C1176 C 0.40156 0.33429 0.19294 0.0
H1177 H 0.45602 0.33971 0.17129 0.0
C1178 C 0.39073 0.33347 0.16854 0.0
C1179 C 0.42526 0.33771 0.19395 0.0
C1180 C 0.43768 0.34012 0.21951 0.0
C1181 C 0.40314 0.3343 0.1452 0.0
C1182 C 0.42699 0.33583 0.14626 0.0
C1183 C 0.43772 0.33832 0.17054 0.0
C1184 C 0.44107 0.33206 0.12272 0.0
C1185 C 0.39073 0.33259 0.11953 0.0
C1186 C 0.44138 0.31072 0.11122 0.0
C1187 C 0.4553 0.30635 0.08982 0.0
C1188 C 0.46919 0.32327 0.07934 0.0
C1189 C 0.46861 0.34481 0.09059 0.0
C1190 C 0.45478 0.34912 0.11232 0.0
H1191 H 0.37272 0.33764 0.12154 0.0
H1192 H 0.39891 0.34324 0.10445 0.0
H1193 H 0.39116 0.31494 0.11263 0.0
H1194 H 0.43111 0.29727 0.11915 0.0
H1195 H 0.45531 0.28958 0.08164 0.0
H1196 H 0.76219 0.29197 0.19378 0.0
H1197 H 0.76637 0.32205 0.16162 0.0
H1198 H 0.80692 0.35987 0.21617 0.0
H1199 H 0.8026 0.3301 0.24849 0.0
H1200 H 0.77141 0.38421 0.1965 0.0
H1201 H 0.81893 0.34328 0.11602 0.0
H1202 H 0.79402 0.32835 0.12621 0.0
H1203 H 0.81734 0.33153 0.14844 0.0
C1204 C 0.77248 0.30643 0.19871 0.0
C1205 C 0.78203 0.30862 0.22375 0.0
C1206 C 0.77486 0.32363 0.18027 0.0
C1207 C 0.78703 0.3432 0.18643 0.0
C1208 C 0.79742 0.34495 0.21099 0.0
H1209 H 0.82622 0.45273 0.0849 0.0
H1210 H 0.82462 0.42068 0.11448 0.0
C1211 C 0.79499 0.32785 0.22942 0.0
C1212 C 0.78746 0.36265 0.16828 0.0
H1213 H 0.80356 0.37929 0.1072 0.0
C1214 C 0.77849 0.38315 0.17699 0.0
C1215 C 0.79682 0.36128 0.14289 0.0
C1216 C 0.80752 0.34 0.13284 0.0
C1217 C 0.77852 0.40227 0.16101 0.0
C1218 C 0.78743 0.4008 0.13542 0.0
C1219 C 0.79655 0.38034 0.12675 0.0
C1220 C 0.78811 0.42048 0.11765 0.0
C1221 C 0.76946 0.42402 0.17188 0.0
C1222 C 0.76808 0.43104 0.10952 0.0
C1223 C 0.76892 0.4495 0.09263 0.0
C1224 C 0.78982 0.45766 0.08343 0.0
C1225 C 0.80982 0.44699 0.09164 0.0
C1226 C 0.80896 0.42858 0.10849 0.0
H1227 H 0.76849 0.42373 0.19355 0.0
H1228 H 0.78022 0.4384 0.16585 0.0
H1229 H 0.75213 0.42684 0.16422 0.0
H1230 H 0.75177 0.42485 0.11598 0.0
H1231 H 0.75318 0.45718 0.08656 0.0
H1232 H 0.74889 0.76025 0.22868 0.0
H1233 H 0.71377 0.75817 0.20285 0.0
H1234 H 0.72293 0.82698 0.17925 0.0
H1235 H 0.75795 0.82898 0.20429 0.0
H1236 H 0.67298 0.78262 0.20147 0.0
H1237 H 0.72114 0.79434 0.10958 0.0
H1238 H 0.73477 0.78826 0.14027 0.0
H1239 H 0.72593 0.8164 0.1328 0.0
C1240 C 0.74318 0.775 0.2183 0.0
C1241 C 0.75634 0.79468 0.21827 0.0
C1242 C 0.72317 0.77378 0.20347 0.0
C1243 C 0.71603 0.79225 0.18851 0.0
C1244 C 0.7284 0.81231 0.18997 0.0
H1245 H 0.60964 0.8206 0.07542 0.0
H1246 H 0.64019 0.82304 0.10779 0.0
C1247 C 0.74838 0.81346 0.20446 0.0
C1248 C 0.69629 0.79053 0.17048 0.0
H1249 H 0.68109 0.79698 0.10648 0.0
C1250 C 0.67476 0.78561 0.18068 0.0
C1251 C 0.69859 0.79438 0.14329 0.0
C1252 C 0.72138 0.79842 0.13076 0.0
C1253 C 0.65546 0.78501 0.16454 0.0
C1254 C 0.65776 0.78925 0.13747 0.0
C1255 C 0.67929 0.79399 0.12727 0.0
C1256 C 0.63825 0.78815 0.11912 0.0
C1257 C 0.63265 0.78029 0.17663 0.0
C1258 C 0.62706 0.76773 0.11465 0.0
C1259 C 0.60974 0.76625 0.09609 0.0
C1260 C 0.60317 0.78518 0.08154 0.0
C1261 C 0.61419 0.80573 0.08632 0.0
C1262 C 0.63167 0.80714 0.1048 0.0
H1263 H 0.63288 0.7827 0.19814 0.0
H1264 H 0.61945 0.7913 0.1681 0.0
H1265 H 0.62783 0.76262 0.17258 0.0
H1266 H 0.63209 0.75276 0.12509 0.0
H1267 H 0.60168 0.75014 0.09296 0.0
H1268 H 0.23204 0.7321 0.23194 0.0
H1269 H 0.22132 0.70119 0.203 0.0
H1270 H 0.262 0.72977 0.14147 0.0
H1271 H 0.27225 0.76111 0.17004 0.0
H1272 H 0.2228 0.71091 0.12256 0.0
H1273 H 0.26651 0.65171 0.18925 0.0
H1274 H 0.24389 0.66717 0.20416 0.0
H1275 H 0.26874 0.68171 0.19285 0.0
C1276 C 0.23842 0.73201 0.21211 0.0
C1277 C 0.25323 0.74894 0.20339 0.0
C1278 C 0.23238 0.71424 0.19564 0.0
C1279 C 0.24133 0.71282 0.17029 0.0
C1280 C 0.25499 0.73042 0.16101 0.0
H1281 H 0.27608 0.60147 0.07612 0.0
H1282 H 0.27219 0.63273 0.10622 0.0
C1283 C 0.26084 0.74835 0.17738 0.0
C1284 C 0.23788 0.69237 0.15407 0.0
H1285 H 0.24926 0.63623 0.15202 0.0
C1286 C 0.2284 0.69453 0.12905 0.0
C1287 C 0.24542 0.67103 0.16248 0.0
C1288 C 0.25689 0.6677 0.18853 0.0
C1289 C 0.2267 0.67605 0.11202 0.0
C1290 C 0.23432 0.65476 0.12043 0.0
C1291 C 0.24322 0.65251 0.1457 0.0
C1292 C 0.2358 0.63518 0.10248 0.0
C1293 C 0.21778 0.67969 0.08476 0.0
C1294 C 0.21653 0.62578 0.09056 0.0
C1295 C 0.2187 0.60774 0.07306 0.0
C1296 C 0.24017 0.59878 0.06733 0.0
C1297 C 0.25926 0.60791 0.07993 0.0
C1298 C 0.25709 0.62584 0.09724 0.0
H1299 H 0.21669 0.69778 0.07975 0.0
H1300 H 0.22874 0.67123 0.07015 0.0
H1301 H 0.20055 0.67237 0.08321 0.0
H1302 H 0.19987 0.63243 0.09471 0.0
H1303 H 0.20367 0.60108 0.06375 0.0
H1304 H 0.41588 0.74826 0.78286 0.0
H1305 H 0.4414 0.75399 0.81987 0.0
H1306 H 0.40302 0.81198 0.84345 0.0
H1307 H 0.37763 0.80665 0.80632 0.0
H1308 H 0.46831 0.79249 0.83492 0.0
H1309 H 0.40271 0.7707 0.90864 0.0
H1310 H 0.39959 0.76407 0.87442 0.0
H1311 H 0.39506 0.79222 0.88576 0.0
C1312 C 0.41297 0.76241 0.79566 0.0
C1313 C 0.39445 0.77683 0.79162 0.0
C1314 C 0.42756 0.76562 0.8169 0.0
C1315 C 0.42392 0.78322 0.83465 0.0
C1316 C 0.4059 0.79803 0.83029 0.0
H1317 H 0.51878 0.8213 0.9608 0.0
H1318 H 0.49315 0.82336 0.92303 0.0
C1319 C 0.39134 0.79489 0.80904 0.0
C1320 C 0.43864 0.78572 0.85803 0.0
H1321 H 0.43837 0.78204 0.92463 0.0
C1322 C 0.46177 0.79036 0.85456 0.0
C1323 C 0.43008 0.78276 0.88362 0.0
C1324 C 0.40555 0.77698 0.88849 0.0
C1325 C 0.47659 0.79198 0.876 0.0
C1326 C 0.46801 0.78903 0.90158 0.0
C1327 C 0.44486 0.78455 0.90503 0.0
C1328 C 0.48308 0.78847 0.92483 0.0
C1329 C 0.50144 0.79609 0.87113 0.0
C1330 C 0.48553 0.76837 0.93868 0.0
C1331 C 0.50006 0.76716 0.96012 0.0
C1332 C 0.51242 0.78609 0.96843 0.0
C1333 C 0.50955 0.80642 0.95492 0.0
C1334 C 0.49502 0.80759 0.93325 0.0
H1335 H 0.50592 0.79436 0.85015 0.0
H1336 H 0.50588 0.81334 0.87751 0.0
H1337 H 0.51188 0.78418 0.88262 0.0
H1338 H 0.47644 0.75345 0.93261 0.0
H1339 H 0.50171 0.75123 0.97007 0.0
H1340 H 0.24612 0.35966 0.81154 0.0
H1341 H 0.23478 0.39008 0.84078 0.0
H1342 H 0.299 0.42281 0.82795 0.0
H1343 H 0.31039 0.39248 0.79858 0.0
H1344 H 0.25386 0.40362 0.88617 0.0
H1345 H 0.25543 0.47387 0.81573 0.0
H1346 H 0.25635 0.4449 0.80552 0.0
H1347 H 0.2817 0.45886 0.81644 0.0
C1348 C 0.25786 0.3733 0.81495 0.0
C1349 C 0.27919 0.37361 0.80267 0.0
C1350 C 0.25128 0.39076 0.83157 0.0
C1351 C 0.26585 0.40896 0.83624 0.0
C1352 C 0.28719 0.40928 0.8241 0.0
H1353 H 0.28253 0.51675 0.94201 0.0
H1354 H 0.28343 0.48837 0.90778 0.0
C1355 C 0.29373 0.39188 0.80736 0.0
C1356 C 0.25921 0.42703 0.85477 0.0
H1357 H 0.25522 0.48395 0.86115 0.0
C1358 C 0.25379 0.42116 0.8806 0.0
C1359 C 0.25897 0.44992 0.84747 0.0
C1360 C 0.26319 0.45727 0.81971 0.0
C1361 C 0.24929 0.43761 0.8996 0.0
C1362 C 0.25003 0.46051 0.89251 0.0
C1363 C 0.25467 0.46636 0.86652 0.0
C1364 C 0.24839 0.47862 0.91232 0.0
C1365 C 0.24485 0.43048 0.92739 0.0
C1366 C 0.22817 0.48289 0.92594 0.0
C1367 C 0.22753 0.49931 0.94562 0.0
C1368 C 0.24715 0.51154 0.95203 0.0
C1369 C 0.26713 0.50754 0.93777 0.0
C1370 C 0.26769 0.49135 0.9181 0.0
H1371 H 0.24776 0.41225 0.93034 0.0
H1372 H 0.25588 0.44 0.94103 0.0
H1373 H 0.227 0.43424 0.93254 0.0
H1374 H 0.21301 0.47336 0.92156 0.0
H1375 H 0.2119 0.502 0.95623 0.0
H1376 H 0.71605 0.311 0.83584 0.0
H1377 H 0.68714 0.31456 0.8698 0.0
H1378 H 0.63688 0.28843 0.81677 0.0
H1379 H 0.66568 0.28504 0.78264 0.0
H1380 H 0.62116 0.32446 0.84391 0.0
H1381 H 0.66044 0.26366 0.91196 0.0
H1382 H 0.67895 0.28626 0.90295 0.0
H1383 H 0.66957 0.26662 0.87852 0.0
C1384 C 0.69889 0.30584 0.83146 0.0
C1385 C 0.69323 0.29757 0.80656 0.0
C1386 C 0.68237 0.30787 0.85092 0.0
C1387 C 0.6599 0.30137 0.84602 0.0
C1388 C 0.65411 0.29349 0.82104 0.0
H1389 H 0.5573 0.27137 0.96145 0.0
H1390 H 0.58572 0.27087 0.92686 0.0
C1391 C 0.67059 0.29161 0.80151 0.0
C1392 C 0.64239 0.30281 0.86686 0.0
H1393 H 0.62924 0.28442 0.92819 0.0
C1394 C 0.6229 0.31569 0.86234 0.0
C1395 C 0.64453 0.29113 0.89078 0.0
C1396 C 0.66438 0.27596 0.89632 0.0
C1397 C 0.60558 0.31732 0.8811 0.0
C1398 C 0.60802 0.30613 0.9053 0.0
C1399 C 0.62746 0.29317 0.90975 0.0
C1400 C 0.59027 0.30688 0.92593 0.0
C1401 C 0.58457 0.33051 0.87452 0.0
C1402 C 0.58337 0.3273 0.93708 0.0
C1403 C 0.56693 0.32767 0.95683 0.0
C1404 C 0.55728 0.30758 0.96603 0.0
C1405 C 0.56435 0.28717 0.95489 0.0
C1406 C 0.58064 0.28684 0.93509 0.0
H1407 H 0.58271 0.33289 0.85311 0.0
H1408 H 0.56914 0.32204 0.88205 0.0
H1409 H 0.58571 0.34735 0.88369 0.0
H1410 H 0.59091 0.34295 0.93077 0.0
H1411 H 0.56201 0.34366 0.96511 0.0
H1412 H 0.78237 0.72819 0.89119 0.0
H1413 H 0.78215 0.69358 0.91674 0.0
H1414 H 0.74468 0.66027 0.85567 0.0
H1415 H 0.74512 0.69466 0.82991 0.0
H1416 H 0.74774 0.66743 0.93613 0.0
H1417 H 0.79881 0.61928 0.8644 0.0
H1418 H 0.79548 0.64929 0.86248 0.0
H1419 H 0.77331 0.63098 0.85119 0.0
C1420 C 0.77399 0.71355 0.88322 0.0
C1421 C 0.764 0.7142 0.85831 0.0
C1422 C 0.77388 0.69376 0.89786 0.0
C1423 C 0.76377 0.6742 0.88793 0.0
C1424 C 0.75313 0.67497 0.86345 0.0
H1425 H 0.74274 0.55377 0.98499 0.0
H1426 H 0.73592 0.58662 0.95732 0.0
C1427 C 0.7534 0.69469 0.84872 0.0
C1428 C 0.76478 0.65294 0.90301 0.0
H1429 H 0.78475 0.59925 0.90072 0.0
C1430 C 0.75577 0.65248 0.92839 0.0
C1431 C 0.77546 0.63352 0.89296 0.0
C1432 C 0.78651 0.63325 0.86637 0.0
C1433 C 0.75732 0.6332 0.94408 0.0
C1434 C 0.76777 0.61371 0.9339 0.0
C1435 C 0.77655 0.61412 0.90841 0.0
C1436 C 0.7714 0.59327 0.94995 0.0
C1437 C 0.74851 0.63418 0.97172 0.0
C1438 C 0.79352 0.58562 0.95428 0.0
C1439 C 0.79744 0.56677 0.96975 0.0
C1440 C 0.77931 0.55506 0.9813 0.0
C1441 C 0.75709 0.56245 0.9765 0.0
C1442 C 0.75317 0.58133 0.96086 0.0
H1443 H 0.74584 0.65171 0.9784 0.0
H1444 H 0.73201 0.6253 0.97275 0.0
H1445 H 0.76038 0.62583 0.98539 0.0
H1446 H 0.80785 0.59448 0.94602 0.0
H1447 H 0.81479 0.56161 0.97297 0.0
loop_
_geom_bond_atom_site_label_1
_geom_bond_atom_site_label_2
_geom_bond_distance
_geom_bond_site_symmetry_2
_ccdc_geom_bond_type
Cu0 N1 1.999 . S
Cu0 O6 1.974 . S
Cu0 N11 1.985 . S
Cu0 O20 1.959 . S
N1 Cu0 1.999 . S
N1 C3 1.263 . S
N1 C5 1.389 . S
N2 C3 1.358 . S
N2 C4 1.400 . S
C3 N1 1.263 . S
C3 N2 1.358 . S
C3 H9 0.930 . S
C4 N2 1.400 . S
C4 C5 1.351 . S
C4 H21 0.930 . S
C5 N1 1.389 . S
C5 C4 1.351 . S
C5 H10 0.930 . S
O6 Cu0 1.974 . S
O6 C16 1.282 . S
C7 O8 1.261 . S
C7 O20 1.251 . S
O8 C7 1.261 . S
H9 C3 0.930 . S
H10 C5 0.930 . S
N11 Cu0 1.985 . S
N11 C13 1.335 . S
N11 C14 1.390 . S
N12 C13 1.345 . S
N12 C15 1.336 . S
C13 N11 1.335 . S
C13 N12 1.345 . S
C13 H18 0.930 . S
C14 N11 1.390 . S
C14 C15 1.346 . S
C14 H19 0.930 . S
C15 N12 1.336 . S
C15 C14 1.346 . S
C15 H22 0.929 . S
C16 O6 1.282 . S
C16 O17 1.216 . S
O17 C16 1.216 . S
H18 C13 0.930 . S
H19 C14 0.930 . S
O20 Cu0 1.959 . S
O20 C7 1.251 . S
H21 C4 0.930 . S
H22 C15 0.929 . S
Cu23 N24 1.999 . S
Cu23 O29 1.974 . S
Cu23 N34 1.985 . S
Cu23 O43 1.959 . S
N24 Cu23 1.999 . S
N24 C26 1.263 . S
N24 C28 1.389 . S
N25 C26 1.358 . S
N25 C27 1.400 . S
C26 N24 1.263 . S
C26 N25 1.358 . S
C26 H32 0.930 . S
C27 N25 1.400 . S
C27 C28 1.351 . S
C27 H44 0.930 . S
C28 N24 1.389 . S
C28 C27 1.351 . S
C28 H33 0.930 . S
O29 Cu23 1.974 . S
O29 C39 1.282 . S
C30 O31 1.261 . S
C30 O43 1.251 . S
O31 C30 1.261 . S
H32 C26 0.930 . S
H33 C28 0.930 . S
N34 Cu23 1.985 . S
N34 C36 1.335 . S
N34 C37 1.390 . S
N35 C36 1.345 . S
N35 C38 1.336 . S
C36 N34 1.335 . S
C36 N35 1.345 . S
C36 H41 0.930 . S
C37 N34 1.390 . S
C37 C38 1.346 . S
C37 H42 0.930 . S
C38 N35 1.336 . S
C38 C37 1.346 . S
C38 H45 0.929 . S
C39 O29 1.282 . S
C39 O40 1.216 . S
O40 C39 1.216 . S
H41 C36 0.930 . S
H42 C37 0.930 . S
O43 Cu23 1.959 . S
O43 C30 1.251 . S
H44 C27 0.930 . S
H45 C38 0.929 . S
Cu46 N47 1.999 . S
Cu46 O52 1.974 . S
Cu46 N57 1.985 . S
Cu46 O66 1.959 . S
N47 Cu46 1.999 . S
N47 C49 1.263 . S
N47 C51 1.389 . S
N48 C49 1.358 . S
N48 C50 1.400 . S
C49 N47 1.263 . S
C49 N48 1.358 . S
C49 H55 0.930 . S
C50 N48 1.400 . S
C50 C51 1.351 . S
C50 H67 0.930 . S
C51 N47 1.389 . S
C51 C50 1.351 . S
C51 H56 0.930 . S
O52 Cu46 1.974 . S
O52 C62 1.282 . S
C53 O54 1.261 . S
C53 O66 1.251 . S
O54 C53 1.261 . S
H55 C49 0.930 . S
H56 C51 0.930 . S
N57 Cu46 1.985 . S
N57 C59 1.335 . S
N57 C60 1.390 . S
N58 C59 1.345 . S
N58 C61 1.336 . S
C59 N57 1.335 . S
C59 N58 1.345 . S
C59 H64 0.930 . S
C60 N57 1.390 . S
C60 C61 1.346 . S
C60 H65 0.930 . S
C61 N58 1.336 . S
C61 C60 1.346 . S
C61 H68 0.929 . S
C62 O52 1.282 . S
C62 O63 1.216 . S
O63 C62 1.216 . S
H64 C59 0.930 . S
H65 C60 0.930 . S
O66 Cu46 1.959 . S
O66 C53 1.251 . S
H67 C50 0.930 . S
H68 C61 0.929 . S
Cu69 N70 1.999 . S
Cu69 O75 1.974 . S
Cu69 N80 1.985 . S
Cu69 O89 1.959 . S
N70 Cu69 1.999 . S
N70 C72 1.263 . S
N70 C74 1.389 . S
N71 C72 1.358 . S
N71 C73 1.400 . S
C72 N70 1.263 . S
C72 N71 1.358 . S
C72 H78 0.930 . S
C73 N71 1.400 . S
C73 C74 1.351 . S
C73 H90 0.930 . S
C74 N70 1.389 . S
C74 C73 1.351 . S
C74 H79 0.930 . S
O75 Cu69 1.974 . S
O75 C85 1.282 . S
C76 O77 1.261 . S
C76 O89 1.251 . S
O77 C76 1.261 . S
H78 C72 0.930 . S
H79 C74 0.930 . S
N80 Cu69 1.985 . S
N80 C82 1.335 . S
N80 C83 1.390 . S
N81 C82 1.345 . S
N81 C84 1.336 . S
C82 N80 1.335 . S
C82 N81 1.345 . S
C82 H87 0.930 . S
C83 N80 1.390 . S
C83 C84 1.346 . S
C83 H88 0.930 . S
C84 N81 1.336 . S
C84 C83 1.346 . S
C84 H91 0.929 . S
C85 O75 1.282 . S
C85 O86 1.216 . S
O86 C85 1.216 . S
H87 C82 0.930 . S
H88 C83 0.930 . S
O89 Cu69 1.959 . S
O89 C76 1.251 . S
H90 C73 0.930 . S
H91 C84 0.929 . S
Cu92 N93 1.999 . S
Cu92 O98 1.974 . S
Cu92 N103 1.985 . S
Cu92 O112 1.959 . S
N93 Cu92 1.999 . S
N93 C95 1.263 . S
N93 C97 1.389 . S
N94 C95 1.358 . S
N94 C96 1.400 . S
C95 N93 1.263 . S
C95 N94 1.358 . S
C95 H101 0.930 . S
C96 N94 1.400 . S
C96 C97 1.351 . S
C96 H113 0.930 . S
C97 N93 1.389 . S
C97 C96 1.351 . S
C97 H102 0.930 . S
O98 Cu92 1.974 . S
O98 C108 1.282 . S
C99 O100 1.261 . S
C99 O112 1.251 . S
O100 C99 1.261 . S
H101 C95 0.930 . S
H102 C97 0.930 . S
N103 Cu92 1.985 . S
N103 C105 1.335 . S
N103 C106 1.390 . S
N104 C105 1.345 . S
N104 C107 1.336 . S
C105 N103 1.335 . S
C105 N104 1.345 . S
C105 H110 0.930 . S
C106 N103 1.390 . S
C106 C107 1.346 . S
C106 H111 0.930 . S
C107 N104 1.336 . S
C107 C106 1.346 . S
C107 H114 0.929 . S
C108 O98 1.282 . S
C108 O109 1.216 . S
O109 C108 1.216 . S
H110 C105 0.930 . S
H111 C106 0.930 . S
O112 Cu92 1.959 . S
O112 C99 1.251 . S
H113 C96 0.930 . S
H114 C107 0.929 . S
Cu115 N116 1.999 . S
Cu115 O121 1.974 . S
Cu115 N126 1.985 . S
Cu115 O135 1.959 . S
N116 Cu115 1.999 . S
N116 C118 1.263 . S
N116 C120 1.389 . S
N117 C118 1.358 . S
N117 C119 1.400 . S
C118 N116 1.263 . S
C118 N117 1.358 . S
C118 H124 0.930 . S
C119 N117 1.400 . S
C119 C120 1.351 . S
C119 H136 0.930 . S
C120 N116 1.389 . S
C120 C119 1.351 . S
C120 H125 0.930 . S
O121 Cu115 1.974 . S
O121 C131 1.282 . S
C122 O123 1.261 . S
C122 O135 1.251 . S
O123 C122 1.261 . S
H124 C118 0.930 . S
H125 C120 0.930 . S
N126 Cu115 1.985 . S
N126 C128 1.335 . S
N126 C129 1.390 . S
N127 C128 1.345 . S
N127 C130 1.336 . S
C128 N126 1.335 . S
C128 N127 1.345 . S
C128 H133 0.930 . S
C129 N126 1.390 . S
C129 C130 1.346 . S
C129 H134 0.930 . S
C130 N127 1.336 . S
C130 C129 1.346 . S
C130 H137 0.929 . S
C131 O121 1.282 . S
C131 O132 1.216 . S
O132 C131 1.216 . S
H133 C128 0.930 . S
H134 C129 0.930 . S
O135 Cu115 1.959 . S
O135 C122 1.251 . S
H136 C119 0.930 . S
H137 C130 0.929 . S
Cu138 N139 1.999 . S
Cu138 O144 1.974 . S
Cu138 N149 1.985 . S
Cu138 O158 1.959 . S
N139 Cu138 1.999 . S
N139 C141 1.263 . S
N139 C143 1.389 . S
N140 C141 1.358 . S
N140 C142 1.400 . S
C141 N139 1.263 . S
C141 N140 1.358 . S
C141 H147 0.930 . S
C142 N140 1.400 . S
C142 C143 1.351 . S
C142 H159 0.930 . S
C143 N139 1.389 . S
C143 C142 1.351 . S
C143 H148 0.930 . S
O144 Cu138 1.974 . S
O144 C154 1.282 . S
C145 O146 1.261 . S
C145 O158 1.251 . S
O146 C145 1.261 . S
H147 C141 0.930 . S
H148 C143 0.930 . S
N149 Cu138 1.985 . S
N149 C151 1.335 . S
N149 C152 1.390 . S
N150 C151 1.345 . S
N150 C153 1.336 . S
C151 N149 1.335 . S
C151 N150 1.345 . S
C151 H156 0.930 . S
C152 N149 1.390 . S
C152 C153 1.346 . S
C152 H157 0.930 . S
C153 N150 1.336 . S
C153 C152 1.346 . S
C153 H160 0.929 . S
C154 O144 1.282 . S
C154 O155 1.216 . S
O155 C154 1.216 . S
H156 C151 0.930 . S
H157 C152 0.930 . S
O158 Cu138 1.959 . S
O158 C145 1.251 . S
H159 C142 0.930 . S
H160 C153 0.929 . S
Cu161 N162 1.999 . S
Cu161 O167 1.974 . S
Cu161 N172 1.985 . S
Cu161 O181 1.959 . S
N162 Cu161 1.999 . S
N162 C164 1.263 . S
N162 C166 1.389 . S
N163 C164 1.358 . S
N163 C165 1.400 . S
C164 N162 1.263 . S
C164 N163 1.358 . S
C164 H170 0.930 . S
C165 N163 1.400 . S
C165 C166 1.351 . S
C165 H182 0.930 . S
C166 N162 1.389 . S
C166 C165 1.351 . S
C166 H171 0.930 . S
O167 Cu161 1.974 . S
O167 C177 1.282 . S
C168 O169 1.261 . S
C168 O181 1.251 . S
O169 C168 1.261 . S
H170 C164 0.930 . S
H171 C166 0.930 . S
N172 Cu161 1.985 . S
N172 C174 1.335 . S
N172 C175 1.390 . S
N173 C174 1.345 . S
N173 C176 1.336 . S
C174 N172 1.335 . S
C174 N173 1.345 . S
C174 H179 0.930 . S
C175 N172 1.390 . S
C175 C176 1.346 . S
C175 H180 0.930 . S
C176 N173 1.336 . S
C176 C175 1.346 . S
C176 H183 0.929 . S
C177 O167 1.282 . S
C177 O178 1.216 . S
O178 C177 1.216 . S
H179 C174 0.930 . S
H180 C175 0.930 . S
O181 Cu161 1.959 . S
O181 C168 1.251 . S
H182 C165 0.930 . S
H183 C176 0.929 . S
C184 O186 1.247 . S
C184 O188 1.258 . S
C185 O192 1.247 . S
C185 O193 1.258 . S
O186 C184 1.247 . S
O186 Zn187 2.028 . S
Zn187 O186 2.028 . S
Zn187 O191 2.035 . S
Zn187 O193 2.035 . S
Zn187 O194 2.028 . S
O188 C184 1.258 . S
O188 Zn189 2.035 . S
Zn189 O188 2.035 . S
Zn189 O190 2.028 . S
Zn189 O192 2.028 . S
Zn189 O195 2.035 . S
O190 Zn189 2.028 . S
O190 C196 1.247 . S
O191 Zn187 2.035 . S
O191 C196 1.258 . S
O192 C185 1.247 . S
O192 Zn189 2.028 . S
O193 C185 1.258 . S
O193 Zn187 2.035 . S
O194 Zn187 2.028 . S
O194 C197 1.247 . S
O195 Zn189 2.035 . S
O195 C197 1.258 . S
C196 O190 1.247 . S
C196 O191 1.258 . S
C197 O194 1.247 . S
C197 O195 1.258 . S
C198 O200 1.247 . S
C198 O202 1.258 . S
C199 O206 1.247 . S
C199 O207 1.258 . S
O200 C198 1.247 . S
O200 Zn201 2.028 . S
Zn201 O200 2.028 . S
Zn201 O205 2.035 . S
Zn201 O207 2.035 . S
Zn201 O208 2.028 . S
O202 C198 1.258 . S
O202 Zn203 2.035 . S
Zn203 O202 2.035 . S
Zn203 O204 2.028 . S
Zn203 O206 2.028 . S
Zn203 O209 2.035 . S
O204 Zn203 2.028 . S
O204 C210 1.247 . S
O205 Zn201 2.035 . S
O205 C210 1.258 . S
O206 C199 1.247 . S
O206 Zn203 2.028 . S
O207 C199 1.258 . S
O207 Zn201 2.035 . S
O208 Zn201 2.028 . S
O208 C211 1.247 . S
O209 Zn203 2.035 . S
O209 C211 1.258 . S
C210 O204 1.247 . S
C210 O205 1.258 . S
C211 O208 1.247 . S
C211 O209 1.258 . S
C212 O214 1.247 . S
C212 O216 1.258 . S
C213 O220 1.247 . S
C213 O221 1.258 . S
O214 C212 1.247 . S
O214 Zn215 2.028 1_655 S
Zn215 O214 2.028 1_455 S
Zn215 O219 2.035 . S
Zn215 O221 2.035 . S
Zn215 O222 2.028 1_455 S
O216 C212 1.258 . S
O216 Zn217 2.035 1_655 S
Zn217 O216 2.035 1_455 S
Zn217 O218 2.028 . S
Zn217 O220 2.028 . S
Zn217 O223 2.035 1_455 S
O218 Zn217 2.028 . S
O218 C224 1.247 . S
O219 Zn215 2.035 . S
O219 C224 1.258 . S
O220 C213 1.247 . S
O220 Zn217 2.028 . S
O221 C213 1.258 . S
O221 Zn215 2.035 . S
O222 Zn215 2.028 1_655 S
O222 C225 1.247 . S
O223 Zn217 2.035 1_655 S
O223 C225 1.258 . S
C224 O218 1.247 . S
C224 O219 1.258 . S
C225 O222 1.247 . S
C225 O223 1.258 . S
C226 O228 1.247 . S
C226 O230 1.258 . S
C227 O234 1.247 . S
C227 O235 1.258 . S
O228 C226 1.247 . S
O228 Zn229 2.028 . S
Zn229 O228 2.028 . S
Zn229 O233 2.035 1_545 S
Zn229 O235 2.035 1_545 S
Zn229 O236 2.028 . S
O230 C226 1.258 . S
O230 Zn231 2.035 . S
Zn231 O230 2.035 . S
Zn231 O232 2.028 1_545 S
Zn231 O234 2.028 1_545 S
Zn231 O237 2.035 . S
O232 Zn231 2.028 1_565 S
O232 C238 1.247 . S
O233 Zn229 2.035 1_565 S
O233 C238 1.258 . S
O234 C227 1.247 . S
O234 Zn231 2.028 1_565 S
O235 C227 1.258 . S
O235 Zn229 2.035 1_565 S
O236 Zn229 2.028 . S
O236 C239 1.247 . S
O237 Zn231 2.035 . S
O237 C239 1.258 . S
C238 O232 1.247 . S
C238 O233 1.258 . S
C239 O236 1.247 . S
C239 O237 1.258 . S
C240 O242 1.247 . S
C240 O244 1.258 . S
C241 O248 1.247 . S
C241 O249 1.258 . S
O242 C240 1.247 . S
O242 Zn243 2.046 . S
Zn243 O242 2.046 . S
Zn243 O247 2.053 . S
Zn243 O249 2.017 1_554 S
Zn243 O250 2.010 1_554 S
O244 C240 1.258 . S
O244 Zn245 2.067 . S
Zn245 O244 2.067 . S
Zn245 O246 2.061 . S
Zn245 O248 1.996 1_554 S
Zn245 O251 2.003 1_554 S
O246 Zn245 2.061 . S
O246 C252 1.247 . S
O247 Zn243 2.053 . S
O247 C252 1.258 . S
O248 C241 1.247 . S
O248 Zn245 1.996 1_556 S
O249 C241 1.258 . S
O249 Zn243 2.017 1_556 S
O250 Zn243 2.010 1_556 S
O250 C253 1.247 . S
O251 Zn245 2.003 1_556 S
O251 C253 1.258 . S
C252 O246 1.247 . S
C252 O247 1.258 . S
C253 O250 1.247 . S
C253 O251 1.258 . S
C254 O256 1.247 . S
C254 O258 1.258 . S
C255 O262 1.247 . S
C255 O263 1.258 . S
O256 C254 1.247 . S
O256 Zn257 2.028 . S
Zn257 O256 2.028 . S
Zn257 O261 2.035 . S
Zn257 O263 2.035 1_554 S
Zn257 O264 2.028 1_554 S
O258 C254 1.258 . S
O258 Zn259 2.035 . S
Zn259 O258 2.035 . S
Zn259 O260 2.028 . S
Zn259 O262 2.028 1_554 S
Zn259 O265 2.035 1_554 S
O260 Zn259 2.028 . S
O260 C266 1.247 . S
O261 Zn257 2.035 . S
O261 C266 1.258 . S
O262 C255 1.247 . S
O262 Zn259 2.028 1_556 S
O263 C255 1.258 . S
O263 Zn257 2.035 1_556 S
O264 Zn257 2.028 1_556 S
O264 C267 1.247 . S
O265 Zn259 2.035 1_556 S
O265 C267 1.258 . S
C266 O260 1.247 . S
C266 O261 1.258 . S
C267 O264 1.247 . S
C267 O265 1.258 . S
C268 O270 1.247 . S
C268 O272 1.258 . S
C269 O276 1.247 . S
C269 O277 1.258 . S
O270 C268 1.247 . S
O270 Zn271 2.028 1_556 S
Zn271 O270 2.028 1_554 S
Zn271 O275 2.035 1_554 S
Zn271 O277 2.035 . S
Zn271 O278 2.028 . S
O272 C268 1.258 . S
O272 Zn273 2.035 1_556 S
Zn273 O272 2.035 1_554 S
Zn273 O274 2.028 1_554 S
Zn273 O276 2.028 . S
Zn273 O279 2.035 . S
O274 Zn273 2.028 1_556 S
O274 C280 1.247 . S
O275 Zn271 2.035 1_556 S
O275 C280 1.258 . S
O276 C269 1.247 . S
O276 Zn273 2.028 . S
O277 C269 1.258 . S
O277 Zn271 2.035 . S
O278 Zn271 2.028 . S
O278 C281 1.247 . S
O279 Zn273 2.035 . S
O279 C281 1.258 . S
C280 O274 1.247 . S
C280 O275 1.258 . S
C281 O278 1.247 . S
C281 O279 1.258 . S
C282 O284 1.247 . S
C282 O286 1.258 . S
C283 O290 1.247 . S
C283 O291 1.258 . S
O284 C282 1.247 . S
O284 Zn285 2.028 . S
Zn285 O284 2.028 . S
Zn285 O289 2.035 . S
Zn285 O291 2.035 1_554 S
Zn285 O292 2.028 1_554 S
O286 C282 1.258 . S
O286 Zn287 2.035 . S
Zn287 O286 2.035 . S
Zn287 O288 2.028 . S
Zn287 O290 2.028 1_554 S
Zn287 O293 2.035 1_554 S
O288 Zn287 2.028 . S
O288 C294 1.247 . S
O289 Zn285 2.035 . S
O289 C294 1.258 . S
O290 C283 1.247 . S
O290 Zn287 2.028 1_556 S
O291 C283 1.258 . S
O291 Zn285 2.035 1_556 S
O292 Zn285 2.028 1_556 S
O292 C295 1.247 . S
O293 Zn287 2.035 1_556 S
O293 C295 1.258 . S
C294 O288 1.247 . S
C294 O289 1.258 . S
C295 O292 1.247 . S
C295 O293 1.258 . S
H296 C304 0.929 . S
H297 C306 0.930 . S
H298 C308 0.930 . S
H299 C311 0.929 . S
H300 C314 0.930 . S
H301 C316 0.960 . S
H302 C316 0.960 . S
H303 C316 0.960 . S
C304 H296 0.929 . S
C304 C305 1.377 . S
C304 C306 1.384 . S
C305 C304 1.377 . S
C305 C311 1.390 . S
C306 H297 0.930 . S
C306 C304 1.384 . S
C306 C307 1.372 . S
C307 C306 1.372 . S
C307 C308 1.400 . S
C307 C312 1.490 . S
C308 H298 0.930 . S
C308 C307 1.400 . S
C308 C311 1.386 . S
H309 C325 0.930 . S
H310 C326 0.931 . S
C311 H299 0.929 . S
C311 C305 1.390 . S
C311 C308 1.386 . S
C312 C307 1.490 . S
C312 C314 1.395 . S
C312 C315 1.403 . S
H313 C319 0.930 . S
C314 H300 0.930 . S
C314 C312 1.395 . S
C314 C317 1.403 . S
C315 C312 1.403 . S
C315 C316 1.524 . S
C315 C319 1.400 . S
C316 H301 0.960 . S
C316 H302 0.960 . S
C316 H303 0.960 . S
C316 C315 1.524 . S
C317 C314 1.403 . S
C317 C318 1.392 . S
C317 C321 1.495 . S
C318 C317 1.392 . S
C318 C319 1.385 . S
C318 C320 1.478 . S
C319 H313 0.930 . S
C319 C315 1.400 . S
C319 C318 1.385 . S
C320 C318 1.478 . S
C320 C322 1.381 . S
C320 C326 1.383 . S
C321 C317 1.495 . S
C321 H327 0.959 . S
C321 H328 0.961 . S
C321 H329 0.960 . S
C322 C320 1.381 . S
C322 C323 1.394 . S
C322 H330 0.930 . S
C323 C322 1.394 . S
C323 C324 1.383 . S
C323 H331 0.929 . S
C324 C323 1.383 . S
C324 C325 1.377 . S
C325 H309 0.930 . S
C325 C324 1.377 . S
C325 C326 1.379 . S
C326 H310 0.931 . S
C326 C320 1.383 . S
C326 C325 1.379 . S
H327 C321 0.959 . S
H328 C321 0.961 . S
H329 C321 0.960 . S
H330 C322 0.930 . S
H331 C323 0.929 . S
H332 C340 0.929 . S
H333 C342 0.930 . S
H334 C344 0.930 . S
H335 C347 0.929 . S
H336 C350 0.930 . S
H337 C352 0.960 . S
H338 C352 0.960 . S
H339 C352 0.960 . S
C340 H332 0.929 . S
C340 C341 1.377 . S
C340 C342 1.384 . S
C341 C340 1.377 . S
C341 C347 1.390 . S
C342 H333 0.930 . S
C342 C340 1.384 . S
C342 C343 1.372 . S
C343 C342 1.372 . S
C343 C344 1.400 . S
C343 C348 1.490 . S
C344 H334 0.930 . S
C344 C343 1.400 . S
C344 C347 1.386 . S
H345 C361 0.930 . S
H346 C362 0.931 . S
C347 H335 0.929 . S
C347 C341 1.390 . S
C347 C344 1.386 . S
C348 C343 1.490 . S
C348 C350 1.395 . S
C348 C351 1.403 . S
H349 C355 0.930 . S
C350 H336 0.930 . S
C350 C348 1.395 . S
C350 C353 1.403 . S
C351 C348 1.403 . S
C351 C352 1.524 . S
C351 C355 1.400 . S
C352 H337 0.960 . S
C352 H338 0.960 . S
C352 H339 0.960 . S
C352 C351 1.524 . S
C353 C350 1.403 . S
C353 C354 1.392 . S
C353 C357 1.495 . S
C354 C353 1.392 . S
C354 C355 1.385 . S
C354 C356 1.478 . S
C355 H349 0.930 . S
C355 C351 1.400 . S
C355 C354 1.385 . S
C356 C354 1.478 . S
C356 C358 1.381 . S
C356 C362 1.383 . S
C357 C353 1.495 . S
C357 H363 0.959 . S
C357 H364 0.961 . S
C357 H365 0.960 . S
C358 C356 1.381 . S
C358 C359 1.394 . S
C358 H366 0.930 . S
C359 C358 1.394 . S
C359 C360 1.383 . S
C359 H367 0.929 . S
C360 C359 1.383 . S
C360 C361 1.377 . S
C361 H345 0.930 . S
C361 C360 1.377 . S
C361 C362 1.379 . S
C362 H346 0.931 . S
C362 C356 1.383 . S
C362 C361 1.379 . S
H363 C357 0.959 . S
H364 C357 0.961 . S
H365 C357 0.960 . S
H366 C358 0.930 . S
H367 C359 0.929 . S
H368 C376 0.929 . S
H369 C378 0.930 . S
H370 C380 0.930 . S
H371 C383 0.929 . S
H372 C386 0.930 . S
H373 C388 0.960 . S
H374 C388 0.960 . S
H375 C388 0.960 . S
C376 H368 0.929 . S
C376 C377 1.377 . S
C376 C378 1.384 . S
C377 C376 1.377 . S
C377 C383 1.390 . S
C378 H369 0.930 . S
C378 C376 1.384 . S
C378 C379 1.372 . S
C379 C378 1.372 . S
C379 C380 1.400 . S
C379 C384 1.490 . S
C380 H370 0.930 . S
C380 C379 1.400 . S
C380 C383 1.386 . S
H381 C397 0.930 . S
H382 C398 0.931 . S
C383 H371 0.929 . S
C383 C377 1.390 . S
C383 C380 1.386 . S
C384 C379 1.490 . S
C384 C386 1.395 . S
C384 C387 1.403 . S
H385 C391 0.930 . S
C386 H372 0.930 . S
C386 C384 1.395 . S
C386 C389 1.403 . S
C387 C384 1.403 . S
C387 C388 1.524 . S
C387 C391 1.400 . S
C388 H373 0.960 . S
C388 H374 0.960 . S
C388 H375 0.960 . S
C388 C387 1.524 . S
C389 C386 1.403 . S
C389 C390 1.392 . S
C389 C393 1.495 . S
C390 C389 1.392 . S
C390 C391 1.385 . S
C390 C392 1.478 . S
C391 H385 0.930 . S
C391 C387 1.400 . S
C391 C390 1.385 . S
C392 C390 1.478 . S
C392 C394 1.381 . S
C392 C398 1.383 . S
C393 C389 1.495 . S
C393 H399 0.959 . S
C393 H400 0.961 . S
C393 H401 0.960 . S
C394 C392 1.381 . S
C394 C395 1.394 . S
C394 H402 0.930 . S
C395 C394 1.394 . S
C395 C396 1.383 . S
C395 H403 0.929 . S
C396 C395 1.383 . S
C396 C397 1.377 . S
C397 H381 0.930 . S
C397 C396 1.377 . S
C397 C398 1.379 . S
C398 H382 0.931 . S
C398 C392 1.383 . S
C398 C397 1.379 . S
H399 C393 0.959 . S
H400 C393 0.961 . S
H401 C393 0.960 . S
H402 C394 0.930 . S
H403 C395 0.929 . S
H404 C412 0.929 . S
H405 C414 0.930 . S
H406 C416 0.930 . S
H407 C419 0.929 . S
H408 C422 0.930 . S
H409 C424 0.960 . S
H410 C424 0.960 . S
H411 C424 0.960 . S
C412 H404 0.929 . S
C412 C413 1.377 . S
C412 C414 1.384 . S
C413 C412 1.377 . S
C413 C419 1.390 . S
C414 H405 0.930 . S
C414 C412 1.384 . S
C414 C415 1.372 . S
C415 C414 1.372 . S
C415 C416 1.400 . S
C415 C420 1.490 . S
C416 H406 0.930 . S
C416 C415 1.400 . S
C416 C419 1.386 . S
H417 C433 0.930 . S
H418 C434 0.931 . S
C419 H407 0.929 . S
C419 C413 1.390 . S
C419 C416 1.386 . S
C420 C415 1.490 . S
C420 C422 1.395 . S
C420 C423 1.403 . S
H421 C427 0.930 . S
C422 H408 0.930 . S
C422 C420 1.395 . S
C422 C425 1.403 . S
C423 C420 1.403 . S
C423 C424 1.524 . S
C423 C427 1.400 . S
C424 H409 0.960 . S
C424 H410 0.960 . S
C424 H411 0.960 . S
C424 C423 1.524 . S
C425 C422 1.403 . S
C425 C426 1.392 . S
C425 C429 1.495 . S
C426 C425 1.392 . S
C426 C427 1.385 . S
C426 C428 1.478 . S
C427 H421 0.930 . S
C427 C423 1.400 . S
C427 C426 1.385 . S
C428 C426 1.478 . S
C428 C430 1.381 . S
C428 C434 1.383 . S
C429 C425 1.495 . S
C429 H435 0.959 . S
C429 H436 0.961 . S
C429 H437 0.960 . S
C430 C428 1.381 . S
C430 C431 1.394 . S
C430 H438 0.930 . S
C431 C430 1.394 . S
C431 C432 1.383 . S
C431 H439 0.929 . S
C432 C431 1.383 . S
C432 C433 1.377 . S
C433 H417 0.930 . S
C433 C432 1.377 . S
C433 C434 1.379 . S
C434 H418 0.931 . S
C434 C428 1.383 . S
C434 C433 1.379 . S
H435 C429 0.959 . S
H436 C429 0.961 . S
H437 C429 0.960 . S
H438 C430 0.930 . S
H439 C431 0.929 . S
H440 C448 0.929 . S
H441 C450 0.930 . S
H442 C452 0.930 . S
H443 C455 0.929 . S
H444 C458 0.930 . S
H445 C460 0.960 . S
H446 C460 0.960 . S
H447 C460 0.960 . S
C448 H440 0.929 . S
C448 C449 1.377 . S
C448 C450 1.384 . S
C449 C448 1.377 . S
C449 C455 1.390 . S
C450 H441 0.930 . S
C450 C448 1.384 . S
C450 C451 1.372 . S
C451 C450 1.372 . S
C451 C452 1.400 . S
C451 C456 1.490 . S
C452 H442 0.930 . S
C452 C451 1.400 . S
C452 C455 1.386 . S
H453 C469 0.930 . S
H454 C470 0.931 . S
C455 H443 0.929 . S
C455 C449 1.390 . S
C455 C452 1.386 . S
C456 C451 1.490 . S
C456 C458 1.395 . S
C456 C459 1.403 . S
H457 C463 0.930 . S
C458 H444 0.930 . S
C458 C456 1.395 . S
C458 C461 1.403 . S
C459 C456 1.403 . S
C459 C460 1.524 . S
C459 C463 1.400 . S
C460 H445 0.960 . S
C460 H446 0.960 . S
C460 H447 0.960 . S
C460 C459 1.524 . S
C461 C458 1.403 . S
C461 C462 1.392 . S
C461 C465 1.495 . S
C462 C461 1.392 . S
C462 C463 1.385 . S
C462 C464 1.478 . S
C463 H457 0.930 . S
C463 C459 1.400 . S
C463 C462 1.385 . S
C464 C462 1.478 . S
C464 C466 1.381 . S
C464 C470 1.383 . S
C465 C461 1.495 . S
C465 H471 0.959 . S
C465 H472 0.961 . S
C465 H473 0.960 . S
C466 C464 1.381 . S
C466 C467 1.394 . S
C466 H474 0.930 . S
C467 C466 1.394 . S
C467 C468 1.383 . S
C467 H475 0.929 . S
C468 C467 1.383 . S
C468 C469 1.377 . S
C469 H453 0.930 . S
C469 C468 1.377 . S
C469 C470 1.379 . S
C470 H454 0.931 . S
C470 C464 1.383 . S
C470 C469 1.379 . S
H471 C465 0.959 . S
H472 C465 0.961 . S
H473 C465 0.960 . S
H474 C466 0.930 . S
H475 C467 0.929 . S
H476 C484 0.929 . S
H477 C486 0.930 . S
H478 C488 0.930 . S
H479 C491 0.929 . S
H480 C494 0.930 . S
H481 C496 0.960 . S
H482 C496 0.960 . S
H483 C496 0.960 . S
C484 H476 0.929 . S
C484 C485 1.377 . S
C484 C486 1.384 . S
C485 C484 1.377 . S
C485 C491 1.390 . S
C486 H477 0.930 . S
C486 C484 1.384 . S
C486 C487 1.372 . S
C487 C486 1.372 . S
C487 C488 1.400 . S
C487 C492 1.490 . S
C488 H478 0.930 . S
C488 C487 1.400 . S
C488 C491 1.386 . S
H489 C505 0.930 . S
H490 C506 0.931 . S
C491 H479 0.929 . S
C491 C485 1.390 . S
C491 C488 1.386 . S
C492 C487 1.490 . S
C492 C494 1.395 . S
C492 C495 1.403 . S
H493 C499 0.930 . S
C494 H480 0.930 . S
C494 C492 1.395 . S
C494 C497 1.403 . S
C495 C492 1.403 . S
C495 C496 1.524 . S
C495 C499 1.400 . S
C496 H481 0.960 . S
C496 H482 0.960 . S
C496 H483 0.960 . S
C496 C495 1.524 . S
C497 C494 1.403 . S
C497 C498 1.392 . S
C497 C501 1.495 . S
C498 C497 1.392 . S
C498 C499 1.385 . S
C498 C500 1.478 . S
C499 H493 0.930 . S
C499 C495 1.400 . S
C499 C498 1.385 . S
C500 C498 1.478 . S
C500 C502 1.381 . S
C500 C506 1.383 . S
C501 C497 1.495 . S
C501 H507 0.959 . S
C501 H508 0.961 . S
C501 H509 0.960 . S
C502 C500 1.381 . S
C502 C503 1.394 . S
C502 H510 0.930 . S
C503 C502 1.394 . S
C503 C504 1.383 . S
C503 H511 0.929 . S
C504 C503 1.383 . S
C504 C505 1.377 . S
C505 H489 0.930 . S
C505 C504 1.377 . S
C505 C506 1.379 . S
C506 H490 0.931 . S
C506 C500 1.383 . S
C506 C505 1.379 . S
H507 C501 0.959 . S
H508 C501 0.961 . S
H509 C501 0.960 . S
H510 C502 0.930 . S
H511 C503 0.929 . S
H512 C520 0.929 . S
H513 C522 0.930 . S
H514 C524 0.930 . S
H515 C527 0.929 . S
H516 C530 0.930 . S
H517 C532 0.960 . S
H518 C532 0.960 . S
H519 C532 0.960 . S
C520 H512 0.929 . S
C520 C521 1.377 . S
C520 C522 1.384 . S
C521 C520 1.377 . S
C521 C527 1.390 . S
C522 H513 0.930 . S
C522 C520 1.384 . S
C522 C523 1.372 . S
C523 C522 1.372 . S
C523 C524 1.400 . S
C523 C528 1.490 . S
C524 H514 0.930 . S
C524 C523 1.400 . S
C524 C527 1.386 . S
H525 C541 0.930 1_455 S
H526 C542 0.931 . S
C527 H515 0.929 . S
C527 C521 1.390 . S
C527 C524 1.386 . S
C528 C523 1.490 . S
C528 C530 1.395 . S
C528 C531 1.403 . S
H529 C535 0.930 . S
C530 H516 0.930 . S
C530 C528 1.395 . S
C530 C533 1.403 . S
C531 C528 1.403 . S
C531 C532 1.524 . S
C531 C535 1.400 . S
C532 H517 0.960 . S
C532 H518 0.960 . S
C532 H519 0.960 . S
C532 C531 1.524 . S
C533 C530 1.403 . S
C533 C534 1.392 . S
C533 C537 1.495 . S
C534 C533 1.392 . S
C534 C535 1.385 . S
C534 C536 1.478 . S
C535 H529 0.930 . S
C535 C531 1.400 . S
C535 C534 1.385 . S
C536 C534 1.478 . S
C536 C538 1.381 . S
C536 C542 1.383 . S
C537 C533 1.495 . S
C537 H543 0.959 . S
C537 H544 0.961 . S
C537 H545 0.960 . S
C538 C536 1.381 . S
C538 C539 1.394 . S
C538 H546 0.930 . S
C539 C538 1.394 . S
C539 C540 1.383 . S
C539 H547 0.929 . S
C540 C539 1.383 . S
C540 C541 1.377 . S
C541 H525 0.930 1_655 S
C541 C540 1.377 . S
C541 C542 1.379 . S
C542 H526 0.931 . S
C542 C536 1.383 . S
C542 C541 1.379 . S
H543 C537 0.959 . S
H544 C537 0.961 . S
H545 C537 0.960 . S
H546 C538 0.930 . S
H547 C539 0.929 . S
H548 C556 0.929 . S
H549 C558 0.930 . S
H550 C560 0.930 . S
H551 C563 0.929 . S
H552 C566 0.930 . S
H553 C568 0.960 . S
H554 C568 0.960 . S
H555 C568 0.960 . S
C556 H548 0.929 . S
C556 C557 1.377 . S
C556 C558 1.384 . S
C557 C556 1.377 . S
C557 C563 1.390 . S
C558 H549 0.930 . S
C558 C556 1.384 . S
C558 C559 1.372 . S
C559 C558 1.372 . S
C559 C560 1.400 . S
C559 C564 1.490 . S
C560 H550 0.930 . S
C560 C559 1.400 . S
C560 C563 1.386 . S
H561 C577 0.930 . S
H562 C578 0.931 . S
C563 H551 0.929 . S
C563 C557 1.390 . S
C563 C560 1.386 . S
C564 C559 1.490 . S
C564 C566 1.395 . S
C564 C567 1.403 . S
H565 C571 0.930 . S
C566 H552 0.930 . S
C566 C564 1.395 . S
C566 C569 1.403 . S
C567 C564 1.403 . S
C567 C568 1.524 . S
C567 C571 1.400 . S
C568 H553 0.960 . S
C568 H554 0.960 . S
C568 H555 0.960 . S
C568 C567 1.524 . S
C569 C566 1.403 . S
C569 C570 1.392 . S
C569 C573 1.495 . S
C570 C569 1.392 . S
C570 C571 1.385 . S
C570 C572 1.478 . S
C571 H565 0.930 . S
C571 C567 1.400 . S
C571 C570 1.385 . S
C572 C570 1.478 . S
C572 C574 1.381 . S
C572 C578 1.383 . S
C573 C569 1.495 . S
C573 H579 0.959 . S
C573 H580 0.961 . S
C573 H581 0.960 . S
C574 C572 1.381 . S
C574 C575 1.394 . S
C574 H582 0.930 . S
C575 C574 1.394 . S
C575 C576 1.383 . S
C575 H583 0.929 . S
C576 C575 1.383 . S
C576 C577 1.377 . S
C577 H561 0.930 . S
C577 C576 1.377 . S
C577 C578 1.379 . S
C578 H562 0.931 . S
C578 C572 1.383 . S
C578 C577 1.379 . S
H579 C573 0.959 . S
H580 C573 0.961 . S
H581 C573 0.960 . S
H582 C574 0.930 . S
H583 C575 0.929 . S
H584 C592 0.929 . S
H585 C594 0.930 . S
H586 C596 0.930 . S
H587 C599 0.929 . S
H588 C602 0.930 . S
H589 C604 0.960 . S
H590 C604 0.960 . S
H591 C604 0.960 . S
C592 H584 0.929 . S
C592 C593 1.377 . S
C592 C594 1.384 . S
C593 C592 1.377 . S
C593 C599 1.390 . S
C594 H585 0.930 . S
C594 C592 1.384 . S
C594 C595 1.372 . S
C595 C594 1.372 . S
C595 C596 1.400 . S
C595 C600 1.490 . S
C596 H586 0.930 . S
C596 C595 1.400 . S
C596 C599 1.386 . S
H597 C613 0.930 . S
H598 C614 0.931 . S
C599 H587 0.929 . S
C599 C593 1.390 . S
C599 C596 1.386 . S
C600 C595 1.490 . S
C600 C602 1.395 . S
C600 C603 1.403 . S
H601 C607 0.930 . S
C602 H588 0.930 . S
C602 C600 1.395 . S
C602 C605 1.403 . S
C603 C600 1.403 . S
C603 C604 1.524 . S
C603 C607 1.400 . S
C604 H589 0.960 . S
C604 H590 0.960 . S
C604 H591 0.960 . S
C604 C603 1.524 . S
C605 C602 1.403 . S
C605 C606 1.392 . S
C605 C609 1.495 . S
C606 C605 1.392 . S
C606 C607 1.385 . S
C606 C608 1.478 . S
C607 H601 0.930 . S
C607 C603 1.400 . S
C607 C606 1.385 . S
C608 C606 1.478 . S
C608 C610 1.381 . S
C608 C614 1.383 . S
C609 C605 1.495 . S
C609 H615 0.959 . S
C609 H616 0.961 . S
C609 H617 0.960 . S
C610 C608 1.381 . S
C610 C611 1.394 . S
C610 H618 0.930 . S
C611 C610 1.394 . S
C611 C612 1.383 . S
C611 H619 0.929 . S
C612 C611 1.383 . S
C612 C613 1.377 . S
C613 H597 0.930 . S
C613 C612 1.377 . S
C613 C614 1.379 . S
C614 H598 0.931 . S
C614 C608 1.383 . S
C614 C613 1.379 . S
H615 C609 0.959 . S
H616 C609 0.961 . S
H617 C609 0.960 . S
H618 C610 0.930 . S
H619 C611 0.929 . S
H620 C628 0.929 . S
H621 C630 0.930 . S
H622 C632 0.930 . S
H623 C635 0.929 . S
H624 C638 0.930 . S
H625 C640 0.960 . S
H626 C640 0.960 . S
H627 C640 0.960 . S
C628 H620 0.929 . S
C628 C629 1.377 . S
C628 C630 1.384 . S
C629 C628 1.377 . S
C629 C635 1.390 . S
C630 H621 0.930 . S
C630 C628 1.384 . S
C630 C631 1.372 . S
C631 C630 1.372 . S
C631 C632 1.400 . S
C631 C636 1.490 . S
C632 H622 0.930 . S
C632 C631 1.400 . S
C632 C635 1.386 . S
H633 C649 0.930 . S
H634 C650 0.931 . S
C635 H623 0.929 . S
C635 C629 1.390 . S
C635 C632 1.386 . S
C636 C631 1.490 . S
C636 C638 1.395 . S
C636 C639 1.403 . S
H637 C643 0.930 . S
C638 H624 0.930 . S
C638 C636 1.395 . S
C638 C641 1.403 . S
C639 C636 1.403 . S
C639 C640 1.524 . S
C639 C643 1.400 . S
C640 H625 0.960 . S
C640 H626 0.960 . S
C640 H627 0.960 . S
C640 C639 1.524 . S
C641 C638 1.403 . S
C641 C642 1.392 . S
C641 C645 1.495 . S
C642 C641 1.392 . S
C642 C643 1.385 . S
C642 C644 1.478 . S
C643 H637 0.930 . S
C643 C639 1.400 . S
C643 C642 1.385 . S
C644 C642 1.478 . S
C644 C646 1.381 . S
C644 C650 1.383 . S
C645 C641 1.495 . S
C645 H651 0.959 . S
C645 H652 0.961 . S
C645 H653 0.960 . S
C646 C644 1.381 . S
C646 C647 1.394 . S
C646 H654 0.930 . S
C647 C646 1.394 . S
C647 C648 1.383 . S
C647 H655 0.929 . S
C648 C647 1.383 . S
C648 C649 1.377 . S
C649 H633 0.930 . S
C649 C648 1.377 . S
C649 C650 1.379 . S
C650 H634 0.931 . S
C650 C644 1.383 . S
C650 C649 1.379 . S
H651 C645 0.959 . S
H652 C645 0.961 . S
H653 C645 0.960 . S
H654 C646 0.930 . S
H655 C647 0.929 . S
H656 C664 0.929 . S
H657 C666 0.930 . S
H658 C668 0.930 . S
H659 C671 0.929 . S
H660 C674 0.930 . S
H661 C676 0.960 . S
H662 C676 0.960 . S
H663 C676 0.960 . S
C664 H656 0.929 . S
C664 C665 1.377 . S
C664 C666 1.384 . S
C665 C664 1.377 . S
C665 C671 1.390 . S
C666 H657 0.930 . S
C666 C664 1.384 . S
C666 C667 1.372 . S
C667 C666 1.372 . S
C667 C668 1.400 . S
C667 C672 1.490 . S
C668 H658 0.930 . S
C668 C667 1.400 . S
C668 C671 1.386 . S
H669 C685 0.930 . S
H670 C686 0.931 . S
C671 H659 0.929 . S
C671 C665 1.390 . S
C671 C668 1.386 . S
C672 C667 1.490 . S
C672 C674 1.395 . S
C672 C675 1.403 . S
H673 C679 0.930 . S
C674 H660 0.930 . S
C674 C672 1.395 . S
C674 C677 1.403 . S
C675 C672 1.403 . S
C675 C676 1.524 . S
C675 C679 1.400 . S
C676 H661 0.960 . S
C676 H662 0.960 . S
C676 H663 0.960 . S
C676 C675 1.524 . S
C677 C674 1.403 . S
C677 C678 1.392 . S
C677 C681 1.495 . S
C678 C677 1.392 . S
C678 C679 1.385 . S
C678 C680 1.478 . S
C679 H673 0.930 . S
C679 C675 1.400 . S
C679 C678 1.385 . S
C680 C678 1.478 . S
C680 C682 1.381 . S
C680 C686 1.383 . S
C681 C677 1.495 . S
C681 H687 0.959 . S
C681 H688 0.961 . S
C681 H689 0.960 . S
C682 C680 1.381 . S
C682 C683 1.394 . S
C682 H690 0.930 . S
C683 C682 1.394 . S
C683 C684 1.383 . S
C683 H691 0.929 . S
C684 C683 1.383 . S
C684 C685 1.377 . S
C685 H669 0.930 . S
C685 C684 1.377 . S
C685 C686 1.379 . S
C686 H670 0.931 . S
C686 C680 1.383 . S
C686 C685 1.379 . S
H687 C681 0.959 . S
H688 C681 0.961 . S
H689 C681 0.960 . S
H690 C682 0.930 . S
H691 C683 0.929 . S
H692 C700 0.929 . S
H693 C702 0.930 . S
H694 C704 0.930 . S
H695 C707 0.929 . S
H696 C710 0.930 . S
H697 C712 0.960 . S
H698 C712 0.960 . S
H699 C712 0.960 . S
C700 H692 0.929 . S
C700 C701 1.377 . S
C700 C702 1.384 . S
C701 C700 1.377 . S
C701 C707 1.390 . S
C702 H693 0.930 . S
C702 C700 1.384 . S
C702 C703 1.372 . S
C703 C702 1.372 . S
C703 C704 1.400 . S
C703 C708 1.490 . S
C704 H694 0.930 . S
C704 C703 1.400 . S
C704 C707 1.386 . S
H705 C721 0.930 . S
H706 C722 0.931 . S
C707 H695 0.929 . S
C707 C701 1.390 . S
C707 C704 1.386 . S
C708 C703 1.490 . S
C708 C710 1.395 . S
C708 C711 1.403 . S
H709 C715 0.930 . S
C710 H696 0.930 . S
C710 C708 1.395 . S
C710 C713 1.403 . S
C711 C708 1.403 . S
C711 C712 1.524 . S
C711 C715 1.400 . S
C712 H697 0.960 . S
C712 H698 0.960 . S
C712 H699 0.960 . S
C712 C711 1.524 . S
C713 C710 1.403 . S
C713 C714 1.392 . S
C713 C717 1.495 . S
C714 C713 1.392 . S
C714 C715 1.385 . S
C714 C716 1.478 . S
C715 H709 0.930 . S
C715 C711 1.400 . S
C715 C714 1.385 . S
C716 C714 1.478 . S
C716 C718 1.381 . S
C716 C722 1.383 . S
C717 C713 1.495 . S
C717 H723 0.959 . S
C717 H724 0.961 . S
C717 H725 0.960 . S
C718 C716 1.381 . S
C718 C719 1.394 . S
C718 H726 0.930 . S
C719 C718 1.394 . S
C719 C720 1.383 . S
C719 H727 0.929 . S
C720 C719 1.383 . S
C720 C721 1.377 . S
C721 H705 0.930 . S
C721 C720 1.377 . S
C721 C722 1.379 . S
C722 H706 0.931 . S
C722 C716 1.383 . S
C722 C721 1.379 . S
H723 C717 0.959 . S
H724 C717 0.961 . S
H725 C717 0.960 . S
H726 C718 0.930 . S
H727 C719 0.929 . S
H728 C736 0.929 . S
H729 C738 0.930 . S
H730 C740 0.930 . S
H731 C743 0.929 . S
H732 C746 0.930 . S
H733 C748 0.960 . S
H734 C748 0.960 . S
H735 C748 0.960 . S
C736 H728 0.929 . S
C736 C737 1.377 . S
C736 C738 1.384 . S
C737 C736 1.377 . S
C737 C743 1.390 . S
C738 H729 0.930 . S
C738 C736 1.384 . S
C738 C739 1.372 . S
C739 C738 1.372 . S
C739 C740 1.400 . S
C739 C744 1.490 . S
C740 H730 0.930 . S
C740 C739 1.400 . S
C740 C743 1.386 . S
H741 C757 0.930 . S
H742 C758 0.931 . S
C743 H731 0.929 . S
C743 C737 1.390 . S
C743 C740 1.386 . S
C744 C739 1.490 . S
C744 C746 1.395 . S
C744 C747 1.403 . S
H745 C751 0.930 . S
C746 H732 0.930 . S
C746 C744 1.395 . S
C746 C749 1.403 . S
C747 C744 1.403 . S
C747 C748 1.524 . S
C747 C751 1.400 . S
C748 H733 0.960 . S
C748 H734 0.960 . S
C748 H735 0.960 . S
C748 C747 1.524 . S
C749 C746 1.403 . S
C749 C750 1.392 . S
C749 C753 1.495 . S
C750 C749 1.392 . S
C750 C751 1.385 . S
C750 C752 1.478 . S
C751 H745 0.930 . S
C751 C747 1.400 . S
C751 C750 1.385 . S
C752 C750 1.478 . S
C752 C754 1.381 . S
C752 C758 1.383 . S
C753 C749 1.495 . S
C753 H759 0.959 . S
C753 H760 0.961 . S
C753 H761 0.960 . S
C754 C752 1.381 . S
C754 C755 1.394 . S
C754 H762 0.930 . S
C755 C754 1.394 . S
C755 C756 1.383 . S
C755 H763 0.929 . S
C756 C755 1.383 . S
C756 C757 1.377 . S
C757 H741 0.930 . S
C757 C756 1.377 . S
C757 C758 1.379 . S
C758 H742 0.931 . S
C758 C752 1.383 . S
C758 C757 1.379 . S
H759 C753 0.959 . S
H760 C753 0.961 . S
H761 C753 0.960 . S
H762 C754 0.930 . S
H763 C755 0.929 . S
H764 C772 0.929 . S
H765 C774 0.930 . S
H766 C776 0.930 . S
H767 C779 0.929 . S
H768 C782 0.930 . S
H769 C784 0.960 . S
H770 C784 0.960 . S
H771 C784 0.960 . S
C772 H764 0.929 . S
C772 C773 1.377 . S
C772 C774 1.384 . S
C773 C772 1.377 . S
C773 C779 1.390 . S
C774 H765 0.930 . S
C774 C772 1.384 . S
C774 C775 1.372 . S
C775 C774 1.372 . S
C775 C776 1.400 . S
C775 C780 1.490 . S
C776 H766 0.930 . S
C776 C775 1.400 . S
C776 C779 1.386 . S
H777 C793 0.930 . S
H778 C794 0.931 . S
C779 H767 0.929 . S
C779 C773 1.390 . S
C779 C776 1.386 . S
C780 C775 1.490 . S
C780 C782 1.395 . S
C780 C783 1.403 . S
H781 C787 0.930 . S
C782 H768 0.930 . S
C782 C780 1.395 . S
C782 C785 1.403 . S
C783 C780 1.403 . S
C783 C784 1.524 . S
C783 C787 1.400 . S
C784 H769 0.960 . S
C784 H770 0.960 . S
C784 H771 0.960 . S
C784 C783 1.524 . S
C785 C782 1.403 . S
C785 C786 1.392 . S
C785 C789 1.495 . S
C786 C785 1.392 . S
C786 C787 1.385 . S
C786 C788 1.478 . S
C787 H781 0.930 . S
C787 C783 1.400 . S
C787 C786 1.385 . S
C788 C786 1.478 . S
C788 C790 1.381 . S
C788 C794 1.383 . S
C789 C785 1.495 . S
C789 H795 0.959 . S
C789 H796 0.961 . S
C789 H797 0.960 . S
C790 C788 1.381 . S
C790 C791 1.394 . S
C790 H798 0.930 . S
C791 C790 1.394 . S
C791 C792 1.383 . S
C791 H799 0.929 . S
C792 C791 1.383 . S
C792 C793 1.377 . S
C793 H777 0.930 . S
C793 C792 1.377 . S
C793 C794 1.379 . S
C794 H778 0.931 . S
C794 C788 1.383 . S
C794 C793 1.379 . S
H795 C789 0.959 . S
H796 C789 0.961 . S
H797 C789 0.960 . S
H798 C790 0.930 . S
H799 C791 0.929 . S
H800 C808 0.929 . S
H801 C810 0.930 . S
H802 C812 0.930 . S
H803 C815 0.929 . S
H804 C818 0.930 . S
H805 C820 0.960 . S
H806 C820 0.960 . S
H807 C820 0.960 . S
C808 H800 0.929 . S
C808 C809 1.377 . S
C808 C810 1.384 . S
C809 C808 1.377 . S
C809 C815 1.390 . S
C810 H801 0.930 . S
C810 C808 1.384 . S
C810 C811 1.372 . S
C811 C810 1.372 . S
C811 C812 1.400 . S
C811 C816 1.490 . S
C812 H802 0.930 . S
C812 C811 1.400 . S
C812 C815 1.386 . S
H813 C829 0.930 . S
H814 C830 0.931 . S
C815 H803 0.929 . S
C815 C809 1.390 . S
C815 C812 1.386 . S
C816 C811 1.490 . S
C816 C818 1.395 . S
C816 C819 1.403 . S
H817 C823 0.930 . S
C818 H804 0.930 . S
C818 C816 1.395 . S
C818 C821 1.403 . S
C819 C816 1.403 . S
C819 C820 1.524 . S
C819 C823 1.400 . S
C820 H805 0.960 . S
C820 H806 0.960 . S
C820 H807 0.960 . S
C820 C819 1.524 . S
C821 C818 1.403 . S
C821 C822 1.392 . S
C821 C825 1.495 . S
C822 C821 1.392 . S
C822 C823 1.385 . S
C822 C824 1.478 . S
C823 H817 0.930 . S
C823 C819 1.400 . S
C823 C822 1.385 . S
C824 C822 1.478 . S
C824 C826 1.381 . S
C824 C830 1.383 . S
C825 C821 1.495 . S
C825 H831 0.959 . S
C825 H832 0.961 . S
C825 H833 0.960 . S
C826 C824 1.381 . S
C826 C827 1.394 . S
C826 H834 0.930 . S
C827 C826 1.394 . S
C827 C828 1.383 . S
C827 H835 0.929 . S
C828 C827 1.383 . S
C828 C829 1.377 . S
C829 H813 0.930 . S
C829 C828 1.377 . S
C829 C830 1.379 . S
C830 H814 0.931 . S
C830 C824 1.383 . S
C830 C829 1.379 . S
H831 C825 0.959 . S
H832 C825 0.961 . S
H833 C825 0.960 . S
H834 C826 0.930 . S
H835 C827 0.929 . S
H836 C844 0.929 . S
H837 C846 0.930 . S
H838 C848 0.930 . S
H839 C851 0.929 . S
H840 C854 0.930 . S
H841 C856 0.960 . S
H842 C856 0.960 . S
H843 C856 0.960 . S
C844 H836 0.929 . S
C844 C845 1.377 . S
C844 C846 1.384 . S
C845 C844 1.377 . S
C845 C851 1.390 . S
C846 H837 0.930 . S
C846 C844 1.384 . S
C846 C847 1.372 . S
C847 C846 1.372 . S
C847 C848 1.400 . S
C847 C852 1.490 . S
C848 H838 0.930 . S
C848 C847 1.400 . S
C848 C851 1.386 . S
H849 C865 0.930 . S
H850 C866 0.931 . S
C851 H839 0.929 . S
C851 C845 1.390 . S
C851 C848 1.386 . S
C852 C847 1.490 . S
C852 C854 1.395 . S
C852 C855 1.403 . S
H853 C859 0.930 . S
C854 H840 0.930 . S
C854 C852 1.395 . S
C854 C857 1.403 . S
C855 C852 1.403 . S
C855 C856 1.524 . S
C855 C859 1.400 . S
C856 H841 0.960 . S
C856 H842 0.960 . S
C856 H843 0.960 . S
C856 C855 1.524 . S
C857 C854 1.403 . S
C857 C858 1.392 . S
C857 C861 1.495 . S
C858 C857 1.392 . S
C858 C859 1.385 . S
C858 C860 1.478 . S
C859 H853 0.930 . S
C859 C855 1.400 . S
C859 C858 1.385 . S
C860 C858 1.478 . S
C860 C862 1.381 . S
C860 C866 1.383 . S
C861 C857 1.495 . S
C861 H867 0.959 . S
C861 H868 0.961 . S
C861 H869 0.960 . S
C862 C860 1.381 . S
C862 C863 1.394 . S
C862 H870 0.930 . S
C863 C862 1.394 . S
C863 C864 1.383 . S
C863 H871 0.929 . S
C864 C863 1.383 . S
C864 C865 1.377 . S
C865 H849 0.930 . S
C865 C864 1.377 . S
C865 C866 1.379 . S
C866 H850 0.931 . S
C866 C860 1.383 . S
C866 C865 1.379 . S
H867 C861 0.959 . S
H868 C861 0.961 . S
H869 C861 0.960 . S
H870 C862 0.930 . S
H871 C863 0.929 . S
H872 C880 0.929 . S
H873 C882 0.930 . S
H874 C884 0.930 . S
H875 C887 0.929 . S
H876 C890 0.930 . S
H877 C892 0.960 . S
H878 C892 0.960 . S
H879 C892 0.960 . S
C880 H872 0.929 . S
C880 C881 1.377 . S
C880 C882 1.384 . S
C881 C880 1.377 . S
C881 C887 1.390 . S
C882 H873 0.930 . S
C882 C880 1.384 . S
C882 C883 1.372 . S
C883 C882 1.372 . S
C883 C884 1.400 . S
C883 C888 1.490 . S
C884 H874 0.930 . S
C884 C883 1.400 . S
C884 C887 1.386 . S
H885 C901 0.930 . S
H886 C902 0.931 . S
C887 H875 0.929 . S
C887 C881 1.390 . S
C887 C884 1.386 . S
C888 C883 1.490 . S
C888 C890 1.395 . S
C888 C891 1.403 . S
H889 C895 0.930 . S
C890 H876 0.930 . S
C890 C888 1.395 . S
C890 C893 1.403 . S
C891 C888 1.403 . S
C891 C892 1.524 . S
C891 C895 1.400 . S
C892 H877 0.960 . S
C892 H878 0.960 . S
C892 H879 0.960 . S
C892 C891 1.524 . S
C893 C890 1.403 . S
C893 C894 1.392 . S
C893 C897 1.495 . S
C894 C893 1.392 . S
C894 C895 1.385 . S
C894 C896 1.478 . S
C895 H889 0.930 . S
C895 C891 1.400 . S
C895 C894 1.385 . S
C896 C894 1.478 . S
C896 C898 1.381 . S
C896 C902 1.383 . S
C897 C893 1.495 . S
C897 H903 0.959 . S
C897 H904 0.961 . S
C897 H905 0.960 . S
C898 C896 1.381 . S
C898 C899 1.394 . S
C898 H906 0.930 . S
C899 C898 1.394 . S
C899 C900 1.383 . S
C899 H907 0.929 . S
C900 C899 1.383 . S
C900 C901 1.377 . S
C901 H885 0.930 . S
C901 C900 1.377 . S
C901 C902 1.379 . S
C902 H886 0.931 . S
C902 C896 1.383 . S
C902 C901 1.379 . S
H903 C897 0.959 . S
H904 C897 0.961 . S
H905 C897 0.960 . S
H906 C898 0.930 . S
H907 C899 0.929 . S
H908 C916 0.929 . S
H909 C918 0.930 . S
H910 C920 0.930 . S
H911 C923 0.929 . S
H912 C926 0.930 . S
H913 C928 0.960 . S
H914 C928 0.960 . S
H915 C928 0.960 . S
C916 H908 0.929 . S
C916 C917 1.377 . S
C916 C918 1.384 . S
C917 C916 1.377 . S
C917 C923 1.390 . S
C918 H909 0.930 . S
C918 C916 1.384 . S
C918 C919 1.372 . S
C919 C918 1.372 . S
C919 C920 1.400 . S
C919 C924 1.490 . S
C920 H910 0.930 . S
C920 C919 1.400 . S
C920 C923 1.386 . S
H921 C937 0.930 . S
H922 C938 0.931 . S
C923 H911 0.929 . S
C923 C917 1.390 . S
C923 C920 1.386 . S
C924 C919 1.490 . S
C924 C926 1.395 . S
C924 C927 1.403 . S
H925 C931 0.930 . S
C926 H912 0.930 . S
C926 C924 1.395 . S
C926 C929 1.403 . S
C927 C924 1.403 . S
C927 C928 1.524 . S
C927 C931 1.400 . S
C928 H913 0.960 . S
C928 H914 0.960 . S
C928 H915 0.960 . S
C928 C927 1.524 . S
C929 C926 1.403 . S
C929 C930 1.392 . S
C929 C933 1.495 . S
C930 C929 1.392 . S
C930 C931 1.385 . S
C930 C932 1.478 . S
C931 H925 0.930 . S
C931 C927 1.400 . S
C931 C930 1.385 . S
C932 C930 1.478 . S
C932 C934 1.381 . S
C932 C938 1.383 . S
C933 C929 1.495 . S
C933 H939 0.959 . S
C933 H940 0.961 . S
C933 H941 0.960 . S
C934 C932 1.381 . S
C934 C935 1.394 . S
C934 H942 0.930 . S
C935 C934 1.394 . S
C935 C936 1.383 . S
C935 H943 0.929 . S
C936 C935 1.383 . S
C936 C937 1.377 . S
C937 H921 0.930 . S
C937 C936 1.377 . S
C937 C938 1.379 . S
C938 H922 0.931 . S
C938 C932 1.383 . S
C938 C937 1.379 . S
H939 C933 0.959 . S
H940 C933 0.961 . S
H941 C933 0.960 . S
H942 C934 0.930 . S
H943 C935 0.929 . S
H944 C952 0.929 . S
H945 C954 0.930 . S
H946 C956 0.930 . S
H947 C959 0.929 . S
H948 C962 0.930 . S
H949 C964 0.960 . S
H950 C964 0.960 . S
H951 C964 0.960 . S
C952 H944 0.929 . S
C952 C953 1.377 . S
C952 C954 1.384 . S
C953 C952 1.377 . S
C953 C959 1.390 . S
C954 H945 0.930 . S
C954 C952 1.384 . S
C954 C955 1.372 . S
C955 C954 1.372 . S
C955 C956 1.400 . S
C955 C960 1.490 . S
C956 H946 0.930 . S
C956 C955 1.400 . S
C956 C959 1.386 . S
H957 C973 0.930 . S
H958 C974 0.931 . S
C959 H947 0.929 . S
C959 C953 1.390 . S
C959 C956 1.386 . S
C960 C955 1.490 . S
C960 C962 1.395 . S
C960 C963 1.403 . S
H961 C967 0.930 . S
C962 H948 0.930 . S
C962 C960 1.395 . S
C962 C965 1.403 . S
C963 C960 1.403 . S
C963 C964 1.524 . S
C963 C967 1.400 . S
C964 H949 0.960 . S
C964 H950 0.960 . S
C964 H951 0.960 . S
C964 C963 1.524 . S
C965 C962 1.403 . S
C965 C966 1.392 . S
C965 C969 1.495 . S
C966 C965 1.392 . S
C966 C967 1.385 . S
C966 C968 1.478 . S
C967 H961 0.930 . S
C967 C963 1.400 . S
C967 C966 1.385 . S
C968 C966 1.478 . S
C968 C970 1.381 . S
C968 C974 1.383 . S
C969 C965 1.495 . S
C969 H975 0.959 . S
C969 H976 0.961 . S
C969 H977 0.960 . S
C970 C968 1.381 . S
C970 C971 1.394 . S
C970 H978 0.930 . S
C971 C970 1.394 . S
C971 C972 1.383 . S
C971 H979 0.929 . S
C972 C971 1.383 . S
C972 C973 1.377 . S
C973 H957 0.930 . S
C973 C972 1.377 . S
C973 C974 1.379 . S
C974 H958 0.931 . S
C974 C968 1.383 . S
C974 C973 1.379 . S
H975 C969 0.959 . S
H976 C969 0.961 . S
H977 C969 0.960 . S
H978 C970 0.930 . S
H979 C971 0.929 . S
H980 C988 0.929 . S
H981 C990 0.930 . S
H982 C992 0.930 . S
H983 C995 0.929 . S
H984 C998 0.930 . S
H985 C1000 0.960 . S
H986 C1000 0.960 . S
H987 C1000 0.960 . S
C988 H980 0.929 . S
C988 C989 1.377 . S
C988 C990 1.384 . S
C989 C988 1.377 . S
C989 C995 1.390 . S
C990 H981 0.930 . S
C990 C988 1.384 . S
C990 C991 1.372 . S
C991 C990 1.372 . S
C991 C992 1.400 . S
C991 C996 1.490 . S
C992 H982 0.930 . S
C992 C991 1.400 . S
C992 C995 1.386 . S
H993 C1009 0.930 . S
H994 C1010 0.931 . S
C995 H983 0.929 . S
C995 C989 1.390 . S
C995 C992 1.386 . S
C996 C991 1.490 . S
C996 C998 1.395 . S
C996 C999 1.403 . S
H997 C1003 0.930 . S
C998 H984 0.930 . S
C998 C996 1.395 . S
C998 C1001 1.403 . S
C999 C996 1.403 . S
C999 C1000 1.524 . S
C999 C1003 1.400 . S
C1000 H985 0.960 . S
C1000 H986 0.960 . S
C1000 H987 0.960 . S
C1000 C999 1.524 . S
C1001 C998 1.403 . S
C1001 C1002 1.392 . S
C1001 C1005 1.495 . S
C1002 C1001 1.392 . S
C1002 C1003 1.385 . S
C1002 C1004 1.478 . S
C1003 H997 0.930 . S
C1003 C999 1.400 . S
C1003 C1002 1.385 . S
C1004 C1002 1.478 . S
C1004 C1006 1.381 . S
C1004 C1010 1.383 . S
C1005 C1001 1.495 . S
C1005 H1011 0.959 . S
C1005 H1012 0.961 . S
C1005 H1013 0.960 . S
C1006 C1004 1.381 . S
C1006 C1007 1.394 . S
C1006 H1014 0.930 . S
C1007 C1006 1.394 . S
C1007 C1008 1.383 . S
C1007 H1015 0.929 . S
C1008 C1007 1.383 . S
C1008 C1009 1.377 . S
C1009 H993 0.930 . S
C1009 C1008 1.377 . S
C1009 C1010 1.379 . S
C1010 H994 0.931 . S
C1010 C1004 1.383 . S
C1010 C1009 1.379 . S
H1011 C1005 0.959 . S
H1012 C1005 0.961 . S
H1013 C1005 0.960 . S
H1014 C1006 0.930 . S
H1015 C1007 0.929 . S
H1016 C1024 0.929 . S
H1017 C1026 0.930 . S
H1018 C1028 0.930 . S
H1019 C1031 0.929 . S
H1020 C1034 0.930 . S
H1021 C1036 0.960 . S
H1022 C1036 0.960 . S
H1023 C1036 0.960 . S
C1024 H1016 0.929 . S
C1024 C1025 1.377 . S
C1024 C1026 1.384 . S
C1025 C1024 1.377 . S
C1025 C1031 1.390 . S
C1026 H1017 0.930 . S
C1026 C1024 1.384 . S
C1026 C1027 1.372 . S
C1027 C1026 1.372 . S
C1027 C1028 1.400 . S
C1027 C1032 1.490 . S
C1028 H1018 0.930 . S
C1028 C1027 1.400 . S
C1028 C1031 1.386 . S
H1029 C1045 0.930 . S
H1030 C1046 0.931 . S
C1031 H1019 0.929 . S
C1031 C1025 1.390 . S
C1031 C1028 1.386 . S
C1032 C1027 1.490 . S
C1032 C1034 1.395 . S
C1032 C1035 1.403 . S
H1033 C1039 0.930 . S
C1034 H1020 0.930 . S
C1034 C1032 1.395 . S
C1034 C1037 1.403 . S
C1035 C1032 1.403 . S
C1035 C1036 1.524 . S
C1035 C1039 1.400 . S
C1036 H1021 0.960 . S
C1036 H1022 0.960 . S
C1036 H1023 0.960 . S
C1036 C1035 1.524 . S
C1037 C1034 1.403 . S
C1037 C1038 1.392 . S
C1037 C1041 1.495 . S
C1038 C1037 1.392 . S
C1038 C1039 1.385 . S
C1038 C1040 1.478 . S
C1039 H1033 0.930 . S
C1039 C1035 1.400 . S
C1039 C1038 1.385 . S
C1040 C1038 1.478 . S
C1040 C1042 1.381 . S
C1040 C1046 1.383 . S
C1041 C1037 1.495 . S
C1041 H1047 0.959 . S
C1041 H1048 0.961 . S
C1041 H1049 0.960 . S
C1042 C1040 1.381 . S
C1042 C1043 1.394 . S
C1042 H1050 0.930 . S
C1043 C1042 1.394 . S
C1043 C1044 1.383 . S
C1043 H1051 0.929 . S
C1044 C1043 1.383 . S
C1044 C1045 1.377 . S
C1045 H1029 0.930 . S
C1045 C1044 1.377 . S
C1045 C1046 1.379 . S
C1046 H1030 0.931 . S
C1046 C1040 1.383 . S
C1046 C1045 1.379 . S
H1047 C1041 0.959 . S
H1048 C1041 0.961 . S
H1049 C1041 0.960 . S
H1050 C1042 0.930 . S
H1051 C1043 0.929 . S
H1052 C1060 0.929 . S
H1053 C1062 0.930 . S
H1054 C1064 0.930 . S
H1055 C1067 0.929 . S
H1056 C1070 0.930 . S
H1057 C1072 0.960 . S
H1058 C1072 0.960 . S
H1059 C1072 0.960 . S
C1060 H1052 0.929 . S
C1060 C1061 1.377 . S
C1060 C1062 1.384 . S
C1061 C1060 1.377 . S
C1061 C1067 1.390 . S
C1062 H1053 0.930 . S
C1062 C1060 1.384 . S
C1062 C1063 1.372 . S
C1063 C1062 1.372 . S
C1063 C1064 1.400 . S
C1063 C1068 1.490 . S
C1064 H1054 0.930 . S
C1064 C1063 1.400 . S
C1064 C1067 1.386 . S
H1065 C1081 0.930 . S
H1066 C1082 0.931 . S
C1067 H1055 0.929 . S
C1067 C1061 1.390 . S
C1067 C1064 1.386 . S
C1068 C1063 1.490 . S
C1068 C1070 1.395 . S
C1068 C1071 1.403 . S
H1069 C1075 0.930 . S
C1070 H1056 0.930 . S
C1070 C1068 1.395 . S
C1070 C1073 1.403 . S
C1071 C1068 1.403 . S
C1071 C1072 1.524 . S
C1071 C1075 1.400 . S
C1072 H1057 0.960 . S
C1072 H1058 0.960 . S
C1072 H1059 0.960 . S
C1072 C1071 1.524 . S
C1073 C1070 1.403 . S
C1073 C1074 1.392 . S
C1073 C1077 1.495 . S
C1074 C1073 1.392 . S
C1074 C1075 1.385 . S
C1074 C1076 1.478 . S
C1075 H1069 0.930 . S
C1075 C1071 1.400 . S
C1075 C1074 1.385 . S
C1076 C1074 1.478 . S
C1076 C1078 1.381 . S
C1076 C1082 1.383 . S
C1077 C1073 1.495 . S
C1077 H1083 0.959 . S
C1077 H1084 0.961 . S
C1077 H1085 0.960 . S
C1078 C1076 1.381 . S
C1078 C1079 1.394 . S
C1078 H1086 0.930 . S
C1079 C1078 1.394 . S
C1079 C1080 1.383 . S
C1079 H1087 0.929 . S
C1080 C1079 1.383 . S
C1080 C1081 1.377 . S
C1081 H1065 0.930 . S
C1081 C1080 1.377 . S
C1081 C1082 1.379 . S
C1082 H1066 0.931 . S
C1082 C1076 1.383 . S
C1082 C1081 1.379 . S
H1083 C1077 0.959 . S
H1084 C1077 0.961 . S
H1085 C1077 0.960 . S
H1086 C1078 0.930 . S
H1087 C1079 0.929 . S
H1088 C1096 0.929 . S
H1089 C1098 0.930 . S
H1090 C1100 0.930 . S
H1091 C1103 0.929 . S
H1092 C1106 0.930 . S
H1093 C1108 0.960 . S
H1094 C1108 0.960 . S
H1095 C1108 0.960 . S
C1096 H1088 0.929 . S
C1096 C1097 1.377 . S
C1096 C1098 1.384 . S
C1097 C1096 1.377 . S
C1097 C1103 1.390 . S
C1098 H1089 0.930 . S
C1098 C1096 1.384 . S
C1098 C1099 1.372 . S
C1099 C1098 1.372 . S
C1099 C1100 1.400 . S
C1099 C1104 1.490 . S
C1100 H1090 0.930 . S
C1100 C1099 1.400 . S
C1100 C1103 1.386 . S
H1101 C1117 0.930 . S
H1102 C1118 0.931 . S
C1103 H1091 0.929 . S
C1103 C1097 1.390 . S
C1103 C1100 1.386 . S
C1104 C1099 1.490 . S
C1104 C1106 1.395 . S
C1104 C1107 1.403 . S
H1105 C1111 0.930 . S
C1106 H1092 0.930 . S
C1106 C1104 1.395 . S
C1106 C1109 1.403 . S
C1107 C1104 1.403 . S
C1107 C1108 1.524 . S
C1107 C1111 1.400 . S
C1108 H1093 0.960 . S
C1108 H1094 0.960 . S
C1108 H1095 0.960 . S
C1108 C1107 1.524 . S
C1109 C1106 1.403 . S
C1109 C1110 1.392 . S
C1109 C1113 1.495 . S
C1110 C1109 1.392 . S
C1110 C1111 1.385 . S
C1110 C1112 1.478 . S
C1111 H1105 0.930 . S
C1111 C1107 1.400 . S
C1111 C1110 1.385 . S
C1112 C1110 1.478 . S
C1112 C1114 1.381 . S
C1112 C1118 1.383 . S
C1113 C1109 1.495 . S
C1113 H1119 0.959 . S
C1113 H1120 0.961 . S
C1113 H1121 0.960 . S
C1114 C1112 1.381 . S
C1114 C1115 1.394 . S
C1114 H1122 0.930 . S
C1115 C1114 1.394 . S
C1115 C1116 1.383 . S
C1115 H1123 0.929 . S
C1116 C1115 1.383 . S
C1116 C1117 1.377 . S
C1117 H1101 0.930 . S
C1117 C1116 1.377 . S
C1117 C1118 1.379 . S
C1118 H1102 0.931 . S
C1118 C1112 1.383 . S
C1118 C1117 1.379 . S
H1119 C1113 0.959 . S
H1120 C1113 0.961 . S
H1121 C1113 0.960 . S
H1122 C1114 0.930 . S
H1123 C1115 0.929 . S
H1124 C1132 0.929 . S
H1125 C1134 0.930 . S
H1126 C1136 0.930 . S
H1127 C1139 0.929 . S
H1128 C1142 0.930 . S
H1129 C1144 0.960 . S
H1130 C1144 0.960 . S
H1131 C1144 0.960 . S
C1132 H1124 0.929 . S
C1132 C1133 1.377 . S
C1132 C1134 1.384 . S
C1133 C1132 1.377 . S
C1133 C1139 1.390 . S
C1134 H1125 0.930 . S
C1134 C1132 1.384 . S
C1134 C1135 1.372 . S
C1135 C1134 1.372 . S
C1135 C1136 1.400 . S
C1135 C1140 1.490 . S
C1136 H1126 0.930 . S
C1136 C1135 1.400 . S
C1136 C1139 1.386 . S
H1137 C1153 0.930 . S
H1138 C1154 0.931 . S
C1139 H1127 0.929 . S
C1139 C1133 1.390 . S
C1139 C1136 1.386 . S
C1140 C1135 1.490 . S
C1140 C1142 1.395 . S
C1140 C1143 1.403 . S
H1141 C1147 0.930 . S
C1142 H1128 0.930 . S
C1142 C1140 1.395 . S
C1142 C1145 1.403 . S
C1143 C1140 1.403 . S
C1143 C1144 1.524 . S
C1143 C1147 1.400 . S
C1144 H1129 0.960 . S
C1144 H1130 0.960 . S
C1144 H1131 0.960 . S
C1144 C1143 1.524 . S
C1145 C1142 1.403 . S
C1145 C1146 1.392 . S
C1145 C1149 1.495 . S
C1146 C1145 1.392 . S
C1146 C1147 1.385 . S
C1146 C1148 1.478 . S
C1147 H1141 0.930 . S
C1147 C1143 1.400 . S
C1147 C1146 1.385 . S
C1148 C1146 1.478 . S
C1148 C1150 1.381 . S
C1148 C1154 1.383 . S
C1149 C1145 1.495 . S
C1149 H1155 0.959 . S
C1149 H1156 0.961 . S
C1149 H1157 0.960 . S
C1150 C1148 1.381 . S
C1150 C1151 1.394 . S
C1150 H1158 0.930 . S
C1151 C1150 1.394 . S
C1151 C1152 1.383 . S
C1151 H1159 0.929 . S
C1152 C1151 1.383 . S
C1152 C1153 1.377 . S
C1153 H1137 0.930 . S
C1153 C1152 1.377 . S
C1153 C1154 1.379 . S
C1154 H1138 0.931 . S
C1154 C1148 1.383 . S
C1154 C1153 1.379 . S
H1155 C1149 0.959 . S
H1156 C1149 0.961 . S
H1157 C1149 0.960 . S
H1158 C1150 0.930 . S
H1159 C1151 0.929 . S
H1160 C1168 0.929 . S
H1161 C1170 0.930 . S
H1162 C1172 0.930 . S
H1163 C1175 0.929 . S
H1164 C1178 0.930 . S
H1165 C1180 0.960 . S
H1166 C1180 0.960 . S
H1167 C1180 0.960 . S
C1168 H1160 0.929 . S
C1168 C1169 1.377 . S
C1168 C1170 1.384 . S
C1169 C1168 1.377 . S
C1169 C1175 1.390 . S
C1170 H1161 0.930 . S
C1170 C1168 1.384 . S
C1170 C1171 1.372 . S
C1171 C1170 1.372 . S
C1171 C1172 1.400 . S
C1171 C1176 1.490 . S
C1172 H1162 0.930 . S
C1172 C1171 1.400 . S
C1172 C1175 1.386 . S
H1173 C1189 0.930 . S
H1174 C1190 0.931 . S
C1175 H1163 0.929 . S
C1175 C1169 1.390 . S
C1175 C1172 1.386 . S
C1176 C1171 1.490 . S
C1176 C1178 1.395 . S
C1176 C1179 1.403 . S
H1177 C1183 0.930 . S
C1178 H1164 0.930 . S
C1178 C1176 1.395 . S
C1178 C1181 1.403 . S
C1179 C1176 1.403 . S
C1179 C1180 1.524 . S
C1179 C1183 1.400 . S
C1180 H1165 0.960 . S
C1180 H1166 0.960 . S
C1180 H1167 0.960 . S
C1180 C1179 1.524 . S
C1181 C1178 1.403 . S
C1181 C1182 1.392 . S
C1181 C1185 1.495 . S
C1182 C1181 1.392 . S
C1182 C1183 1.385 . S
C1182 C1184 1.478 . S
C1183 H1177 0.930 . S
C1183 C1179 1.400 . S
C1183 C1182 1.385 . S
C1184 C1182 1.478 . S
C1184 C1186 1.381 . S
C1184 C1190 1.383 . S
C1185 C1181 1.495 . S
C1185 H1191 0.959 . S
C1185 H1192 0.961 . S
C1185 H1193 0.960 . S
C1186 C1184 1.381 . S
C1186 C1187 1.394 . S
C1186 H1194 0.930 . S
C1187 C1186 1.394 . S
C1187 C1188 1.383 . S
C1187 H1195 0.929 . S
C1188 C1187 1.383 . S
C1188 C1189 1.377 . S
C1189 H1173 0.930 . S
C1189 C1188 1.377 . S
C1189 C1190 1.379 . S
C1190 H1174 0.931 . S
C1190 C1184 1.383 . S
C1190 C1189 1.379 . S
H1191 C1185 0.959 . S
H1192 C1185 0.961 . S
H1193 C1185 0.960 . S
H1194 C1186 0.930 . S
H1195 C1187 0.929 . S
H1196 C1204 0.929 . S
H1197 C1206 0.930 . S
H1198 C1208 0.930 . S
H1199 C1211 0.929 . S
H1200 C1214 0.930 . S
H1201 C1216 0.960 . S
H1202 C1216 0.960 . S
H1203 C1216 0.960 . S
C1204 H1196 0.929 . S
C1204 C1205 1.377 . S
C1204 C1206 1.384 . S
C1205 C1204 1.377 . S
C1205 C1211 1.390 . S
C1206 H1197 0.930 . S
C1206 C1204 1.384 . S
C1206 C1207 1.372 . S
C1207 C1206 1.372 . S
C1207 C1208 1.400 . S
C1207 C1212 1.490 . S
C1208 H1198 0.930 . S
C1208 C1207 1.400 . S
C1208 C1211 1.386 . S
H1209 C1225 0.930 . S
H1210 C1226 0.931 . S
C1211 H1199 0.929 . S
C1211 C1205 1.390 . S
C1211 C1208 1.386 . S
C1212 C1207 1.490 . S
C1212 C1214 1.395 . S
C1212 C1215 1.403 . S
H1213 C1219 0.930 . S
C1214 H1200 0.930 . S
C1214 C1212 1.395 . S
C1214 C1217 1.403 . S
C1215 C1212 1.403 . S
C1215 C1216 1.524 . S
C1215 C1219 1.400 . S
C1216 H1201 0.960 . S
C1216 H1202 0.960 . S
C1216 H1203 0.960 . S
C1216 C1215 1.524 . S
C1217 C1214 1.403 . S
C1217 C1218 1.392 . S
C1217 C1221 1.495 . S
C1218 C1217 1.392 . S
C1218 C1219 1.385 . S
C1218 C1220 1.478 . S
C1219 H1213 0.930 . S
C1219 C1215 1.400 . S
C1219 C1218 1.385 . S
C1220 C1218 1.478 . S
C1220 C1222 1.381 . S
C1220 C1226 1.383 . S
C1221 C1217 1.495 . S
C1221 H1227 0.959 . S
C1221 H1228 0.961 . S
C1221 H1229 0.960 . S
C1222 C1220 1.381 . S
C1222 C1223 1.394 . S
C1222 H1230 0.930 . S
C1223 C1222 1.394 . S
C1223 C1224 1.383 . S
C1223 H1231 0.929 . S
C1224 C1223 1.383 . S
C1224 C1225 1.377 . S
C1225 H1209 0.930 . S
C1225 C1224 1.377 . S
C1225 C1226 1.379 . S
C1226 H1210 0.931 . S
C1226 C1220 1.383 . S
C1226 C1225 1.379 . S
H1227 C1221 0.959 . S
H1228 C1221 0.961 . S
H1229 C1221 0.960 . S
H1230 C1222 0.930 . S
H1231 C1223 0.929 . S
H1232 C1240 0.929 . S
H1233 C1242 0.930 . S
H1234 C1244 0.930 . S
H1235 C1247 0.929 . S
H1236 C1250 0.930 . S
H1237 C1252 0.960 . S
H1238 C1252 0.960 . S
H1239 C1252 0.960 . S
C1240 H1232 0.929 . S
C1240 C1241 1.377 . S
C1240 C1242 1.384 . S
C1241 C1240 1.377 . S
C1241 C1247 1.390 . S
C1242 H1233 0.930 . S
C1242 C1240 1.384 . S
C1242 C1243 1.372 . S
C1243 C1242 1.372 . S
C1243 C1244 1.400 . S
C1243 C1248 1.490 . S
C1244 H1234 0.930 . S
C1244 C1243 1.400 . S
C1244 C1247 1.386 . S
H1245 C1261 0.930 . S
H1246 C1262 0.931 . S
C1247 H1235 0.929 . S
C1247 C1241 1.390 . S
C1247 C1244 1.386 . S
C1248 C1243 1.490 . S
C1248 C1250 1.395 . S
C1248 C1251 1.403 . S
H1249 C1255 0.930 . S
C1250 H1236 0.930 . S
C1250 C1248 1.395 . S
C1250 C1253 1.403 . S
C1251 C1248 1.403 . S
C1251 C1252 1.524 . S
C1251 C1255 1.400 . S
C1252 H1237 0.960 . S
C1252 H1238 0.960 . S
C1252 H1239 0.960 . S
C1252 C1251 1.524 . S
C1253 C1250 1.403 . S
C1253 C1254 1.392 . S
C1253 C1257 1.495 . S
C1254 C1253 1.392 . S
C1254 C1255 1.385 . S
C1254 C1256 1.478 . S
C1255 H1249 0.930 . S
C1255 C1251 1.400 . S
C1255 C1254 1.385 . S
C1256 C1254 1.478 . S
C1256 C1258 1.381 . S
C1256 C1262 1.383 . S
C1257 C1253 1.495 . S
C1257 H1263 0.959 . S
C1257 H1264 0.961 . S
C1257 H1265 0.960 . S
C1258 C1256 1.381 . S
C1258 C1259 1.394 . S
C1258 H1266 0.930 . S
C1259 C1258 1.394 . S
C1259 C1260 1.383 . S
C1259 H1267 0.929 . S
C1260 C1259 1.383 . S
C1260 C1261 1.377 . S
C1261 H1245 0.930 . S
C1261 C1260 1.377 . S
C1261 C1262 1.379 . S
C1262 H1246 0.931 . S
C1262 C1256 1.383 . S
C1262 C1261 1.379 . S
H1263 C1257 0.959 . S
H1264 C1257 0.961 . S
H1265 C1257 0.960 . S
H1266 C1258 0.930 . S
H1267 C1259 0.929 . S
H1268 C1276 0.929 . S
H1269 C1278 0.930 . S
H1270 C1280 0.930 . S
H1271 C1283 0.929 . S
H1272 C1286 0.930 . S
H1273 C1288 0.960 . S
H1274 C1288 0.960 . S
H1275 C1288 0.960 . S
C1276 H1268 0.929 . S
C1276 C1277 1.377 . S
C1276 C1278 1.384 . S
C1277 C1276 1.377 . S
C1277 C1283 1.390 . S
C1278 H1269 0.930 . S
C1278 C1276 1.384 . S
C1278 C1279 1.372 . S
C1279 C1278 1.372 . S
C1279 C1280 1.400 . S
C1279 C1284 1.490 . S
C1280 H1270 0.930 . S
C1280 C1279 1.400 . S
C1280 C1283 1.386 . S
H1281 C1297 0.930 . S
H1282 C1298 0.931 . S
C1283 H1271 0.929 . S
C1283 C1277 1.390 . S
C1283 C1280 1.386 . S
C1284 C1279 1.490 . S
C1284 C1286 1.395 . S
C1284 C1287 1.403 . S
H1285 C1291 0.930 . S
C1286 H1272 0.930 . S
C1286 C1284 1.395 . S
C1286 C1289 1.403 . S
C1287 C1284 1.403 . S
C1287 C1288 1.524 . S
C1287 C1291 1.400 . S
C1288 H1273 0.960 . S
C1288 H1274 0.960 . S
C1288 H1275 0.960 . S
C1288 C1287 1.524 . S
C1289 C1286 1.403 . S
C1289 C1290 1.392 . S
C1289 C1293 1.495 . S
C1290 C1289 1.392 . S
C1290 C1291 1.385 . S
C1290 C1292 1.478 . S
C1291 H1285 0.930 . S
C1291 C1287 1.400 . S
C1291 C1290 1.385 . S
C1292 C1290 1.478 . S
C1292 C1294 1.381 . S
C1292 C1298 1.383 . S
C1293 C1289 1.495 . S
C1293 H1299 0.959 . S
C1293 H1300 0.961 . S
C1293 H1301 0.960 . S
C1294 C1292 1.381 . S
C1294 C1295 1.394 . S
C1294 H1302 0.930 . S
C1295 C1294 1.394 . S
C1295 C1296 1.383 . S
C1295 H1303 0.929 . S
C1296 C1295 1.383 . S
C1296 C1297 1.377 . S
C1297 H1281 0.930 . S
C1297 C1296 1.377 . S
C1297 C1298 1.379 . S
C1298 H1282 0.931 . S
C1298 C1292 1.383 . S
C1298 C1297 1.379 . S
H1299 C1293 0.959 . S
H1300 C1293 0.961 . S
H1301 C1293 0.960 . S
H1302 C1294 0.930 . S
H1303 C1295 0.929 . S
H1304 C1312 0.929 . S
H1305 C1314 0.930 . S
H1306 C1316 0.930 . S
H1307 C1319 0.929 . S
H1308 C1322 0.930 . S
H1309 C1324 0.960 . S
H1310 C1324 0.960 . S
H1311 C1324 0.960 . S
C1312 H1304 0.929 . S
C1312 C1313 1.377 . S
C1312 C1314 1.384 . S
C1313 C1312 1.377 . S
C1313 C1319 1.390 . S
C1314 H1305 0.930 . S
C1314 C1312 1.384 . S
C1314 C1315 1.372 . S
C1315 C1314 1.372 . S
C1315 C1316 1.400 . S
C1315 C1320 1.490 . S
C1316 H1306 0.930 . S
C1316 C1315 1.400 . S
C1316 C1319 1.386 . S
H1317 C1333 0.930 . S
H1318 C1334 0.931 . S
C1319 H1307 0.929 . S
C1319 C1313 1.390 . S
C1319 C1316 1.386 . S
C1320 C1315 1.490 . S
C1320 C1322 1.395 . S
C1320 C1323 1.403 . S
H1321 C1327 0.930 . S
C1322 H1308 0.930 . S
C1322 C1320 1.395 . S
C1322 C1325 1.403 . S
C1323 C1320 1.403 . S
C1323 C1324 1.524 . S
C1323 C1327 1.400 . S
C1324 H1309 0.960 . S
C1324 H1310 0.960 . S
C1324 H1311 0.960 . S
C1324 C1323 1.524 . S
C1325 C1322 1.403 . S
C1325 C1326 1.392 . S
C1325 C1329 1.495 . S
C1326 C1325 1.392 . S
C1326 C1327 1.385 . S
C1326 C1328 1.478 . S
C1327 H1321 0.930 . S
C1327 C1323 1.400 . S
C1327 C1326 1.385 . S
C1328 C1326 1.478 . S
C1328 C1330 1.381 . S
C1328 C1334 1.383 . S
C1329 C1325 1.495 . S
C1329 H1335 0.959 . S
C1329 H1336 0.961 . S
C1329 H1337 0.960 . S
C1330 C1328 1.381 . S
C1330 C1331 1.394 . S
C1330 H1338 0.930 . S
C1331 C1330 1.394 . S
C1331 C1332 1.383 . S
C1331 H1339 0.929 . S
C1332 C1331 1.383 . S
C1332 C1333 1.377 . S
C1333 H1317 0.930 . S
C1333 C1332 1.377 . S
C1333 C1334 1.379 . S
C1334 H1318 0.931 . S
C1334 C1328 1.383 . S
C1334 C1333 1.379 . S
H1335 C1329 0.959 . S
H1336 C1329 0.961 . S
H1337 C1329 0.960 . S
H1338 C1330 0.930 . S
H1339 C1331 0.929 . S
H1340 C1348 0.929 . S
H1341 C1350 0.930 . S
H1342 C1352 0.930 . S
H1343 C1355 0.929 . S
H1344 C1358 0.930 . S
H1345 C1360 0.960 . S
H1346 C1360 0.960 . S
H1347 C1360 0.960 . S
C1348 H1340 0.929 . S
C1348 C1349 1.377 . S
C1348 C1350 1.384 . S
C1349 C1348 1.377 . S
C1349 C1355 1.390 . S
C1350 H1341 0.930 . S
C1350 C1348 1.384 . S
C1350 C1351 1.372 . S
C1351 C1350 1.372 . S
C1351 C1352 1.400 . S
C1351 C1356 1.490 . S
C1352 H1342 0.930 . S
C1352 C1351 1.400 . S
C1352 C1355 1.386 . S
H1353 C1369 0.930 . S
H1354 C1370 0.931 . S
C1355 H1343 0.929 . S
C1355 C1349 1.390 . S
C1355 C1352 1.386 . S
C1356 C1351 1.490 . S
C1356 C1358 1.395 . S
C1356 C1359 1.403 . S
H1357 C1363 0.930 . S
C1358 H1344 0.930 . S
C1358 C1356 1.395 . S
C1358 C1361 1.403 . S
C1359 C1356 1.403 . S
C1359 C1360 1.524 . S
C1359 C1363 1.400 . S
C1360 H1345 0.960 . S
C1360 H1346 0.960 . S
C1360 H1347 0.960 . S
C1360 C1359 1.524 . S
C1361 C1358 1.403 . S
C1361 C1362 1.392 . S
C1361 C1365 1.495 . S
C1362 C1361 1.392 . S
C1362 C1363 1.385 . S
C1362 C1364 1.478 . S
C1363 H1357 0.930 . S
C1363 C1359 1.400 . S
C1363 C1362 1.385 . S
C1364 C1362 1.478 . S
C1364 C1366 1.381 . S
C1364 C1370 1.383 . S
C1365 C1361 1.495 . S
C1365 H1371 0.959 . S
C1365 H1372 0.961 . S
C1365 H1373 0.960 . S
C1366 C1364 1.381 . S
C1366 C1367 1.394 . S
C1366 H1374 0.930 . S
C1367 C1366 1.394 . S
C1367 C1368 1.383 . S
C1367 H1375 0.929 . S
C1368 C1367 1.383 . S
C1368 C1369 1.377 . S
C1369 H1353 0.930 . S
C1369 C1368 1.377 . S
C1369 C1370 1.379 . S
C1370 H1354 0.931 . S
C1370 C1364 1.383 . S
C1370 C1369 1.379 . S
H1371 C1365 0.959 . S
H1372 C1365 0.961 . S
H1373 C1365 0.960 . S
H1374 C1366 0.930 . S
H1375 C1367 0.929 . S
H1376 C1384 0.929 . S
H1377 C1386 0.930 . S
H1378 C1388 0.930 . S
H1379 C1391 0.929 . S
H1380 C1394 0.930 . S
H1381 C1396 0.960 . S
H1382 C1396 0.960 . S
H1383 C1396 0.960 . S
C1384 H1376 0.929 . S
C1384 C1385 1.377 . S
C1384 C1386 1.384 . S
C1385 C1384 1.377 . S
C1385 C1391 1.390 . S
C1386 H1377 0.930 . S
C1386 C1384 1.384 . S
C1386 C1387 1.372 . S
C1387 C1386 1.372 . S
C1387 C1388 1.400 . S
C1387 C1392 1.490 . S
C1388 H1378 0.930 . S
C1388 C1387 1.400 . S
C1388 C1391 1.386 . S
H1389 C1405 0.930 . S
H1390 C1406 0.931 . S
C1391 H1379 0.929 . S
C1391 C1385 1.390 . S
C1391 C1388 1.386 . S
C1392 C1387 1.490 . S
C1392 C1394 1.395 . S
C1392 C1395 1.403 . S
H1393 C1399 0.930 . S
C1394 H1380 0.930 . S
C1394 C1392 1.395 . S
C1394 C1397 1.403 . S
C1395 C1392 1.403 . S
C1395 C1396 1.524 . S
C1395 C1399 1.400 . S
C1396 H1381 0.960 . S
C1396 H1382 0.960 . S
C1396 H1383 0.960 . S
C1396 C1395 1.524 . S
C1397 C1394 1.403 . S
C1397 C1398 1.392 . S
C1397 C1401 1.495 . S
C1398 C1397 1.392 . S
C1398 C1399 1.385 . S
C1398 C1400 1.478 . S
C1399 H1393 0.930 . S
C1399 C1395 1.400 . S
C1399 C1398 1.385 . S
C1400 C1398 1.478 . S
C1400 C1402 1.381 . S
C1400 C1406 1.383 . S
C1401 C1397 1.495 . S
C1401 H1407 0.959 . S
C1401 H1408 0.961 . S
C1401 H1409 0.960 . S
C1402 C1400 1.381 . S
C1402 C1403 1.394 . S
C1402 H1410 0.930 . S
C1403 C1402 1.394 . S
C1403 C1404 1.383 . S
C1403 H1411 0.929 . S
C1404 C1403 1.383 . S
C1404 C1405 1.377 . S
C1405 H1389 0.930 . S
C1405 C1404 1.377 . S
C1405 C1406 1.379 . S
C1406 H1390 0.931 . S
C1406 C1400 1.383 . S
C1406 C1405 1.379 . S
H1407 C1401 0.959 . S
H1408 C1401 0.961 . S
H1409 C1401 0.960 . S
H1410 C1402 0.930 . S
H1411 C1403 0.929 . S
H1412 C1420 0.929 . S
H1413 C1422 0.930 . S
H1414 C1424 0.930 . S
H1415 C1427 0.929 . S
H1416 C1430 0.930 . S
H1417 C1432 0.960 . S
H1418 C1432 0.960 . S
H1419 C1432 0.960 . S
C1420 H1412 0.929 . S
C1420 C1421 1.377 . S
C1420 C1422 1.384 . S
C1421 C1420 1.377 . S
C1421 C1427 1.390 . S
C1422 H1413 0.930 . S
C1422 C1420 1.384 . S
C1422 C1423 1.372 . S
C1423 C1422 1.372 . S
C1423 C1424 1.400 . S
C1423 C1428 1.490 . S
C1424 H1414 0.930 . S
C1424 C1423 1.400 . S
C1424 C1427 1.386 . S
H1425 C1441 0.930 . S
H1426 C1442 0.931 . S
C1427 H1415 0.929 . S
C1427 C1421 1.390 . S
C1427 C1424 1.386 . S
C1428 C1423 1.490 . S
C1428 C1430 1.395 . S
C1428 C1431 1.403 . S
H1429 C1435 0.930 . S
C1430 H1416 0.930 . S
C1430 C1428 1.395 . S
C1430 C1433 1.403 . S
C1431 C1428 1.403 . S
C1431 C1432 1.524 . S
C1431 C1435 1.400 . S
C1432 H1417 0.960 . S
C1432 H1418 0.960 . S
C1432 H1419 0.960 . S
C1432 C1431 1.524 . S
C1433 C1430 1.403 . S
C1433 C1434 1.392 . S
C1433 C1437 1.495 . S
C1434 C1433 1.392 . S
C1434 C1435 1.385 . S
C1434 C1436 1.478 . S
C1435 H1429 0.930 . S
C1435 C1431 1.400 . S
C1435 C1434 1.385 . S
C1436 C1434 1.478 . S
C1436 C1438 1.381 . S
C1436 C1442 1.383 . S
C1437 C1433 1.495 . S
C1437 H1443 0.959 . S
C1437 H1444 0.961 . S
C1437 H1445 0.960 . S
C1438 C1436 1.381 . S
C1438 C1439 1.394 . S
C1438 H1446 0.930 . S
C1439 C1438 1.394 . S
C1439 C1440 1.383 . S
C1439 H1447 0.929 . S
C1440 C1439 1.383 . S
C1440 C1441 1.377 . S
C1441 H1425 0.930 . S
C1441 C1440 1.377 . S
C1441 C1442 1.379 . S
C1442 H1426 0.931 . S
C1442 C1436 1.383 . S
C1442 C1441 1.379 . S
H1443 C1437 0.959 . S
H1444 C1437 0.961 . S
H1445 C1437 0.960 . S
H1446 C1438 0.930 . S
H1447 C1439 0.929 . S
C324 C185 1.572 . S
C305 C16 1.569 . S
C360 C211 1.560 . S
C341 C30 1.576 . S
C396 C225 1.579 . S
C377 C53 1.585 . S
C432 C227 1.595 . S
C413 C76 1.615 . S
C449 N104 1.435 . S
C468 C224 1.468 . S
C504 C226 1.496 . S
C485 N127 1.464 . S
C540 C184 1.473 1_655 S
C521 N140 1.438 . S
C576 C210 1.457 1_565 S
C557 N173 1.424 . S
C612 C212 1.583 . S
C593 C168 1.586 . S
C648 C238 1.581 . S
C629 C99 1.590 . S
C684 C196 1.578 . S
C665 C122 1.578 . S
C720 C198 1.547 . S
C701 C154 1.549 . S
C756 C197 1.471 1_655 S
C737 N35 1.446 . S
C792 C199 1.462 1_565 S
C773 N58 1.419 . S
C828 C213 1.465 . S
C809 N81 1.437 . S
C864 C239 1.485 . S
C845 N2 1.450 . S
C900 C241 1.551 . S
C881 C177 1.565 . S
C917 C108 1.575 . S
C936 C267 1.571 . S
C953 C131 1.572 . S
C972 C280 1.575 . S
C989 C145 1.603 . S
C1008 C283 1.602 . S
C1025 N25 1.438 . S
C1044 C281 1.462 . S
C1061 N48 1.470 . S
C1080 C282 1.495 . S
C1097 N71 1.444 . S
C1116 C240 1.478 . S
C1152 C266 1.466 . S
C1133 N12 1.437 . S
C1188 C269 1.582 . S
C1169 C7 1.583 . S
C1205 C39 1.578 . S
C1224 C294 1.570 . S
C1241 C62 1.569 . S
C1260 C252 1.563 . S
C1277 C85 1.558 . S
C1296 C254 1.563 . S
C1332 C253 1.474 . S
C1313 N94 1.442 . S
C1368 C255 1.461 . S
C1349 N117 1.426 . S
C1385 N150 1.442 . S
C1404 C268 1.462 . S
C1440 C295 1.487 . S
C1421 N163 1.449 . S
