# Generated by pormake.
# Topology gar, (4,6)-cn, num edge types: 1
# Building blocks:
#     Node 0, Type 0, BuildingBlock: KUFVIS_clean_sbu_0, # of connection points: 4
#     Node 1, Type 0, BuildingBlock: KUFVIS_clean_sbu_0, # of connection points: 4
#     Node 2, Type 0, BuildingBlock: KUFVIS_clean_sbu_0, # of connection points: 4
#     Node 3, Type 0, BuildingBlock: KUFVIS_clean_sbu_0, # of connection points: 4
#     Node 4, Type 0, BuildingBlock: KUFVIS_clean_sbu_0, # of connection points: 4
#     Node 5, Type 0, BuildingBlock: KUFVIS_clean_sbu_0, # of connection points: 4
#     Node 6, Type 0, BuildingBlock: KUFVIS_clean_sbu_0, # of connection points: 4
#     Node 7, Type 0, BuildingBlock: KUFVIS_clean_sbu_0, # of connection points: 4
#     Node 8, Type 0, BuildingBlock: KUFVIS_clean_sbu_0, # of connection points: 4
#     Node 9, Type 0, BuildingBlock: KUFVIS_clean_sbu_0, # of connection points: 4
#     Node 10, Type 0, BuildingBlock: KUFVIS_clean_sbu_0, # of connection points: 4
#     Node 11, Type 0, BuildingBlock: KUFVIS_clean_sbu_0, # of connection points: 4
#     Node 12, Type 0, BuildingBlock: KUFVIS_clean_sbu_0, # of connection points: 4
#     Node 13, Type 0, BuildingBlock: KUFVIS_clean_sbu_0, # of connection points: 4
#     Node 14, Type 0, BuildingBlock: KUFVIS_clean_sbu_0, # of connection points: 4
#     Node 15, Type 0, BuildingBlock: KUFVIS_clean_sbu_0, # of connection points: 4
#     Node 16, Type 0, BuildingBlock: KUFVIS_clean_sbu_0, # of connection points: 4
#     Node 17, Type 0, BuildingBlock: KUFVIS_clean_sbu_0, # of connection points: 4
#     Node 18, Type 0, BuildingBlock: KUFVIS_clean_sbu_0, # of connection points: 4
#     Node 19, Type 0, BuildingBlock: KUFVIS_clean_sbu_0, # of connection points: 4
#     Node 20, Type 0, BuildingBlock: KUFVIS_clean_sbu_0, # of connection points: 4
#     Node 21, Type 0, BuildingBlock: KUFVIS_clean_sbu_0, # of connection points: 4
#     Node 22, Type 0, BuildingBlock: KUFVIS_clean_sbu_0, # of connection points: 4
#     Node 23, Type 0, BuildingBlock: KUFVIS_clean_sbu_0, # of connection points: 4
#     Node 24, Type 1, BuildingBlock: MIFKUJ_clean_sbu_0, # of connection points: 6
#     Node 25, Type 1, BuildingBlock: MIFKUJ_clean_sbu_0, # of connection points: 6
#     Node 26, Type 1, BuildingBlock: MIFKUJ_clean_sbu_0, # of connection points: 6
#     Node 27, Type 1, BuildingBlock: MIFKUJ_clean_sbu_0, # of connection points: 6
#     Node 28, Type 1, BuildingBlock: MIFKUJ_clean_sbu_0, # of connection points: 6
#     Node 29, Type 1, BuildingBlock: MIFKUJ_clean_sbu_0, # of connection points: 6
#     Node 30, Type 1, BuildingBlock: MIFKUJ_clean_sbu_0, # of connection points: 6
#     Node 31, Type 1, BuildingBlock: MIFKUJ_clean_sbu_0, # of connection points: 6
#     Node 32, Type 1, BuildingBlock: MIFKUJ_clean_sbu_0, # of connection points: 6
#     Node 33, Type 1, BuildingBlock: MIFKUJ_clean_sbu_0, # of connection points: 6
#     Node 34, Type 1, BuildingBlock: MIFKUJ_clean_sbu_0, # of connection points: 6
#     Node 35, Type 1, BuildingBlock: MIFKUJ_clean_sbu_0, # of connection points: 6
#     Node 36, Type 1, BuildingBlock: MIFKUJ_clean_sbu_0, # of connection points: 6
#     Node 37, Type 1, BuildingBlock: MIFKUJ_clean_sbu_0, # of connection points: 6
#     Node 38, Type 1, BuildingBlock: MIFKUJ_clean_sbu_0, # of connection points: 6
#     Node 39, Type 1, BuildingBlock: MIFKUJ_clean_sbu_0, # of connection points: 6
#     Edge 40, Type (0, 1), BuildingBlock: XUDNAN_clean_linker_2, # of connection points: 2
#     Edge 41, Type (0, 1), BuildingBlock: XUDNAN_clean_linker_2, # of connection points: 2
#     Edge 42, Type (0, 1), BuildingBlock: XUDNAN_clean_linker_2, # of connection points: 2
#     Edge 43, Type (0, 1), BuildingBlock: XUDNAN_clean_linker_2, # of connection points: 2
#     Edge 44, Type (0, 1), BuildingBlock: XUDNAN_clean_linker_2, # of connection points: 2
#     Edge 45, Type (0, 1), BuildingBlock: XUDNAN_clean_linker_2, # of connection points: 2
#     Edge 46, Type (0, 1), BuildingBlock: XUDNAN_clean_linker_2, # of connection points: 2
#     Edge 47, Type (0, 1), BuildingBlock: XUDNAN_clean_linker_2, # of connection points: 2
#     Edge 48, Type (0, 1), BuildingBlock: XUDNAN_clean_linker_2, # of connection points: 2
#     Edge 49, Type (0, 1), BuildingBlock: XUDNAN_clean_linker_2, # of connection points: 2
#     Edge 50, Type (0, 1), BuildingBlock: XUDNAN_clean_linker_2, # of connection points: 2
#     Edge 51, Type (0, 1), BuildingBlock: XUDNAN_clean_linker_2, # of connection points: 2
#     Edge 52, Type (0, 1), BuildingBlock: XUDNAN_clean_linker_2, # of connection points: 2
#     Edge 53, Type (0, 1), BuildingBlock: XUDNAN_clean_linker_2, # of connection points: 2
#     Edge 54, Type (0, 1), BuildingBlock: XUDNAN_clean_linker_2, # of connection points: 2
#     Edge 55, Type (0, 1), BuildingBlock: XUDNAN_clean_linker_2, # of connection points: 2
#     Edge 56, Type (0, 1), BuildingBlock: XUDNAN_clean_linker_2, # of connection points: 2
#     Edge 57, Type (0, 1), BuildingBlock: XUDNAN_clean_linker_2, # of connection points: 2
#     Edge 58, Type (0, 1), BuildingBlock: XUDNAN_clean_linker_2, # of connection points: 2
#     Edge 59, Type (0, 1), BuildingBlock: XUDNAN_clean_linker_2, # of connection points: 2
#     Edge 60, Type (0, 1), BuildingBlock: XUDNAN_clean_linker_2, # of connection points: 2
#     Edge 61, Type (0, 1), BuildingBlock: XUDNAN_clean_linker_2, # of connection points: 2
#     Edge 62, Type (0, 1), BuildingBlock: XUDNAN_clean_linker_2, # of connection points: 2
#     Edge 63, Type (0, 1), BuildingBlock: XUDNAN_clean_linker_2, # of connection points: 2
#     Edge 64, Type (0, 1), BuildingBlock: XUDNAN_clean_linker_2, # of connection points: 2
#     Edge 65, Type (0, 1), BuildingBlock: XUDNAN_clean_linker_2, # of connection points: 2
#     Edge 66, Type (0, 1), BuildingBlock: XUDNAN_clean_linker_2, # of connection points: 2
#     Edge 67, Type (0, 1), BuildingBlock: XUDNAN_clean_linker_2, # of connection points: 2
#     Edge 68, Type (0, 1), BuildingBlock: XUDNAN_clean_linker_2, # of connection points: 2
#     Edge 69, Type (0, 1), BuildingBlock: XUDNAN_clean_linker_2, # of connection points: 2
#     Edge 70, Type (0, 1), BuildingBlock: XUDNAN_clean_linker_2, # of connection points: 2
#     Edge 71, Type (0, 1), BuildingBlock: XUDNAN_clean_linker_2, # of connection points: 2
#     Edge 72, Type (0, 1), BuildingBlock: XUDNAN_clean_linker_2, # of connection points: 2
#     Edge 73, Type (0, 1), BuildingBlock: XUDNAN_clean_linker_2, # of connection points: 2
#     Edge 74, Type (0, 1), BuildingBlock: XUDNAN_clean_linker_2, # of connection points: 2
#     Edge 75, Type (0, 1), BuildingBlock: XUDNAN_clean_linker_2, # of connection points: 2
#     Edge 76, Type (0, 1), BuildingBlock: XUDNAN_clean_linker_2, # of connection points: 2
#     Edge 77, Type (0, 1), BuildingBlock: XUDNAN_clean_linker_2, # of connection points: 2
#     Edge 78, Type (0, 1), BuildingBlock: XUDNAN_clean_linker_2, # of connection points: 2
#     Edge 79, Type (0, 1), BuildingBlock: XUDNAN_clean_linker_2, # of connection points: 2
#     Edge 80, Type (0, 1), BuildingBlock: XUDNAN_clean_linker_2, # of connection points: 2
#     Edge 81, Type (0, 1), BuildingBlock: XUDNAN_clean_linker_2, # of connection points: 2
#     Edge 82, Type (0, 1), BuildingBlock: XUDNAN_clean_linker_2, # of connection points: 2
#     Edge 83, Type (0, 1), BuildingBlock: XUDNAN_clean_linker_2, # of connection points: 2
#     Edge 84, Type (0, 1), BuildingBlock: XUDNAN_clean_linker_2, # of connection points: 2
#     Edge 85, Type (0, 1), BuildingBlock: XUDNAN_clean_linker_2, # of connection points: 2
#     Edge 86, Type (0, 1), BuildingBlock: XUDNAN_clean_linker_2, # of connection points: 2
#     Edge 87, Type (0, 1), BuildingBlock: XUDNAN_clean_linker_2, # of connection points: 2
#     Edge 88, Type (0, 1), BuildingBlock: XUDNAN_clean_linker_2, # of connection points: 2
#     Edge 89, Type (0, 1), BuildingBlock: XUDNAN_clean_linker_2, # of connection points: 2
#     Edge 90, Type (0, 1), BuildingBlock: XUDNAN_clean_linker_2, # of connection points: 2
#     Edge 91, Type (0, 1), BuildingBlock: XUDNAN_clean_linker_2, # of connection points: 2
#     Edge 92, Type (0, 1), BuildingBlock: XUDNAN_clean_linker_2, # of connection points: 2
#     Edge 93, Type (0, 1), BuildingBlock: XUDNAN_clean_linker_2, # of connection points: 2
#     Edge 94, Type (0, 1), BuildingBlock: XUDNAN_clean_linker_2, # of connection points: 2
#     Edge 95, Type (0, 1), BuildingBlock: XUDNAN_clean_linker_2, # of connection points: 2
#     Edge 96, Type (0, 1), BuildingBlock: XUDNAN_clean_linker_2, # of connection points: 2
#     Edge 97, Type (0, 1), BuildingBlock: XUDNAN_clean_linker_2, # of connection points: 2
#     Edge 98, Type (0, 1), BuildingBlock: XUDNAN_clean_linker_2, # of connection points: 2
#     Edge 99, Type (0, 1), BuildingBlock: XUDNAN_clean_linker_2, # of connection points: 2
#     Edge 100, Type (0, 1), BuildingBlock: XUDNAN_clean_linker_2, # of connection points: 2
#     Edge 101, Type (0, 1), BuildingBlock: XUDNAN_clean_linker_2, # of connection points: 2
#     Edge 102, Type (0, 1), BuildingBlock: XUDNAN_clean_linker_2, # of connection points: 2
#     Edge 103, Type (0, 1), BuildingBlock: XUDNAN_clean_linker_2, # of connection points: 2
#     Edge 104, Type (0, 1), BuildingBlock: XUDNAN_clean_linker_2, # of connection points: 2
#     Edge 105, Type (0, 1), BuildingBlock: XUDNAN_clean_linker_2, # of connection points: 2
#     Edge 106, Type (0, 1), BuildingBlock: XUDNAN_clean_linker_2, # of connection points: 2
#     Edge 107, Type (0, 1), BuildingBlock: XUDNAN_clean_linker_2, # of connection points: 2
#     Edge 108, Type (0, 1), BuildingBlock: XUDNAN_clean_linker_2, # of connection points: 2
#     Edge 109, Type (0, 1), BuildingBlock: XUDNAN_clean_linker_2, # of connection points: 2
#     Edge 110, Type (0, 1), BuildingBlock: XUDNAN_clean_linker_2, # of connection points: 2
#     Edge 111, Type (0, 1), BuildingBlock: XUDNAN_clean_linker_2, # of connection points: 2
#     Edge 112, Type (0, 1), BuildingBlock: XUDNAN_clean_linker_2, # of connection points: 2
#     Edge 113, Type (0, 1), BuildingBlock: XUDNAN_clean_linker_2, # of connection points: 2
#     Edge 114, Type (0, 1), BuildingBlock: XUDNAN_clean_linker_2, # of connection points: 2
#     Edge 115, Type (0, 1), BuildingBlock: XUDNAN_clean_linker_2, # of connection points: 2
#     Edge 116, Type (0, 1), BuildingBlock: XUDNAN_clean_linker_2, # of connection points: 2
#     Edge 117, Type (0, 1), BuildingBlock: XUDNAN_clean_linker_2, # of connection points: 2
#     Edge 118, Type (0, 1), BuildingBlock: XUDNAN_clean_linker_2, # of connection points: 2
#     Edge 119, Type (0, 1), BuildingBlock: XUDNAN_clean_linker_2, # of connection points: 2
#     Edge 120, Type (0, 1), BuildingBlock: XUDNAN_clean_linker_2, # of connection points: 2
#     Edge 121, Type (0, 1), BuildingBlock: XUDNAN_clean_linker_2, # of connection points: 2
#     Edge 122, Type (0, 1), BuildingBlock: XUDNAN_clean_linker_2, # of connection points: 2
#     Edge 123, Type (0, 1), BuildingBlock: XUDNAN_clean_linker_2, # of connection points: 2
#     Edge 124, Type (0, 1), BuildingBlock: XUDNAN_clean_linker_2, # of connection points: 2
#     Edge 125, Type (0, 1), BuildingBlock: XUDNAN_clean_linker_2, # of connection points: 2
#     Edge 126, Type (0, 1), BuildingBlock: XUDNAN_clean_linker_2, # of connection points: 2
#     Edge 127, Type (0, 1), BuildingBlock: XUDNAN_clean_linker_2, # of connection points: 2
#     Edge 128, Type (0, 1), BuildingBlock: XUDNAN_clean_linker_2, # of connection points: 2
#     Edge 129, Type (0, 1), BuildingBlock: XUDNAN_clean_linker_2, # of connection points: 2
#     Edge 130, Type (0, 1), BuildingBlock: XUDNAN_clean_linker_2, # of connection points: 2
#     Edge 131, Type (0, 1), BuildingBlock: XUDNAN_clean_linker_2, # of connection points: 2
#     Edge 132, Type (0, 1), BuildingBlock: XUDNAN_clean_linker_2, # of connection points: 2
#     Edge 133, Type (0, 1), BuildingBlock: XUDNAN_clean_linker_2, # of connection points: 2
#     Edge 134, Type (0, 1), BuildingBlock: XUDNAN_clean_linker_2, # of connection points: 2
#     Edge 135, Type (0, 1), BuildingBlock: XUDNAN_clean_linker_2, # of connection points: 2
# Relax obj value: 0.095
# Max RMSD: 0.280
# Mean RMSD: 0.125
data_MOF--net-gar--node1-KUFVIS_clean_sbu_0--node2-MIFKUJ_clean_sbu_0--edge1-XUDNAN_clean_linker_2
_symmetry_space_group_name_H-M    P1
_symmetry_Int_Tables_number       1
_symmetry_cell_setting            triclinic
loop_
_symmetry_equiv_pos_as_xyz
'x, y, z'
_cell_length_a     55.643036
_cell_length_b     55.931534
_cell_length_c     55.24343
_cell_angle_alpha  94.485517
_cell_angle_beta   94.62042
_cell_angle_gamma 99.299542
loop_
_atom_site_label
_atom_site_type_symbol
_atom_site_fract_x
_atom_site_fract_y
_atom_site_fract_z
_atom_type_partial_charge
Mn0 Mn 0.02353 0.27287 0.4059 0.0
Mn1 Mn 0.02976 0.3131 0.36324 0.0
C2 C 0.98931 0.28246 0.38465 0.0
C3 C 0.02089 0.23372 0.41825 0.0
C4 C 0.03825 0.32769 0.41766 0.0
O5 O 0.05872 0.27361 0.39771 0.0
O6 O 0.05977 0.29831 0.36724 0.0
C7 C 0.03204 0.28002 0.3192 0.0
N8 N 0.02122 0.29706 0.33112 0.0
C9 C 0.99259 0.29745 0.29613 0.0
C10 C 0.00351 0.27999 0.28347 0.0
C11 C 0.02329 0.27121 0.29507 0.0
C12 C 0.00224 0.30571 0.32008 0.0
H13 H 0.04721 0.27316 0.32804 0.0
C14 C 0.06924 0.28378 0.3805 0.0
O15 O 0.02838 0.25284 0.43343 0.0
O16 O 0.0154 0.23726 0.39564 0.0
N17 N 0.00141 0.32795 0.35733 0.0
C18 C 0.99171 0.34328 0.37268 0.0
C19 C 0.97111 0.35288 0.36424 0.0
C20 C 0.96081 0.34673 0.34006 0.0
C21 C 0.97107 0.3309 0.3246 0.0
C22 C 0.9917 0.32202 0.33399 0.0
H23 H 0.99958 0.34814 0.39122 0.0
O24 O 0.98767 0.27406 0.40584 0.0
O25 O 0.01088 0.28536 0.37689 0.0
O26 O 0.03218 0.30656 0.42444 0.0
O27 O 0.03863 0.33212 0.3954 0.0
C28 C 0.96136 0.32319 0.30039 0.0
C29 C 0.97212 0.30649 0.28616 0.0
H30 H 0.99669 0.27299 0.26492 0.0
H31 H 0.03175 0.25765 0.28545 0.0
H32 H 0.96321 0.36499 0.37633 0.0
H33 H 0.94491 0.35415 0.3336 0.0
H34 H 0.94537 0.3297 0.29266 0.0
H35 H 0.96423 0.3004 0.26771 0.0
Mn36 Mn 0.00411 0.74505 0.64128 0.0
Mn37 Mn 0.02901 0.78295 0.69087 0.0
C38 C 0.0453 0.74941 0.65357 0.0
C39 C 0.98656 0.7071 0.62147 0.0
C40 C 0.0172 0.80048 0.64175 0.0
O41 O 0.974 0.74998 0.65849 0.0
O42 O 0.99297 0.77593 0.69008 0.0
C43 C 0.01579 0.75115 0.72974 0.0
N44 N 0.0331 0.76533 0.71868 0.0
C45 C 0.06322 0.76588 0.75257 0.0
C46 C 0.04577 0.75116 0.7643 0.0
C47 C 0.02204 0.74352 0.7527 0.0
C48 C 0.05622 0.77202 0.72928 0.0
H49 H 0.99728 0.74609 0.72129 0.0
C50 C 0.9737 0.76381 0.67797 0.0
O51 O 0.98405 0.72715 0.61196 0.0
O52 O 0.99766 0.70917 0.64331 0.0
N53 N 0.06384 0.79179 0.69449 0.0
C54 C 0.07847 0.80591 0.68065 0.0
C55 C 0.10315 0.81408 0.68907 0.0
C56 C 0.11222 0.80864 0.71211 0.0
C57 C 0.0966 0.79469 0.72632 0.0
C58 C 0.07251 0.78605 0.71645 0.0
H59 H 0.07131 0.81096 0.66337 0.0
O60 O 0.03698 0.74214 0.63115 0.0
O61 O 0.02939 0.75391 0.66856 0.0
O62 O 0.00761 0.77984 0.63077 0.0
O63 O 0.02609 0.80325 0.66392 0.0
C64 C 0.10378 0.78958 0.75015 0.0
C65 C 0.08712 0.7751 0.76325 0.0
H66 H 0.05034 0.74574 0.78227 0.0
H67 H 0.00843 0.73227 0.76169 0.0
H68 H 0.115 0.82507 0.6781 0.0
H69 H 0.13109 0.81553 0.71883 0.0
H70 H 0.12218 0.79637 0.75845 0.0
H71 H 0.09296 0.77098 0.7814 0.0
Mn72 Mn 0.52227 0.7774 0.90584 0.0
Mn73 Mn 0.52963 0.81755 0.86337 0.0
C74 C 0.48858 0.78849 0.88525 0.0
C75 C 0.5173 0.73776 0.91695 0.0
C76 C 0.53939 0.832 0.91782 0.0
O77 O 0.55709 0.77652 0.89706 0.0
O78 O 0.55891 0.80171 0.86699 0.0
C79 C 0.53027 0.78403 0.81929 0.0
N80 N 0.5202 0.80158 0.83136 0.0
C81 C 0.49083 0.80211 0.79704 0.0
C82 C 0.50095 0.78413 0.78423 0.0
C83 C 0.52074 0.77504 0.79541 0.0
C84 C 0.50128 0.81059 0.8207 0.0
H85 H 0.5454 0.77688 0.82784 0.0
C86 C 0.56788 0.78667 0.87998 0.0
O87 O 0.52598 0.75615 0.93276 0.0
O88 O 0.51233 0.74234 0.89461 0.0
N89 N 0.50186 0.83335 0.85795 0.0
C90 C 0.49269 0.84881 0.87364 0.0
C91 C 0.47203 0.85858 0.86572 0.0
C92 C 0.46105 0.85239 0.84177 0.0
C93 C 0.47074 0.83635 0.82599 0.0
C94 C 0.49148 0.82734 0.83483 0.0
H95 H 0.50097 0.8535 0.89211 0.0
O96 O 0.48684 0.78019 0.90646 0.0
O97 O 0.51003 0.7906 0.87725 0.0
O98 O 0.53263 0.81094 0.92467 0.0
O99 O 0.53964 0.83628 0.89547 0.0
C100 C 0.46024 0.82846 0.80205 0.0
C101 C 0.4703 0.81139 0.78758 0.0
H102 H 0.49348 0.77694 0.76591 0.0
H103 H 0.52856 0.76106 0.78569 0.0
H104 H 0.46451 0.87078 0.87806 0.0
H105 H 0.44503 0.85985 0.83577 0.0
H106 H 0.44414 0.83506 0.79475 0.0
H107 H 0.46178 0.80512 0.76937 0.0
Mn108 Mn 0.50758 0.24228 0.12801 0.0
Mn109 Mn 0.45712 0.22579 0.08868 0.0
C110 C 0.49141 0.20174 0.11807 0.0
C111 C 0.54968 0.25079 0.13717 0.0
C112 C 0.45519 0.24225 0.14156 0.0
O113 O 0.5064 0.27328 0.11143 0.0
O114 O 0.47063 0.26086 0.08842 0.0
C115 C 0.48094 0.2328 0.04313 0.0
N116 N 0.46687 0.2182 0.05701 0.0
C117 C 0.45793 0.18607 0.0244 0.0
C118 C 0.47229 0.20076 0.00973 0.0
C119 C 0.484 0.22416 0.01921 0.0
C120 C 0.45603 0.19545 0.04827 0.0
H121 H 0.4896 0.25096 0.05018 0.0
C122 C 0.489 0.27716 0.0966 0.0
O123 O 0.5351 0.25875 0.15192 0.0
O124 O 0.53988 0.23917 0.11661 0.0
N125 N 0.44186 0.19241 0.08659 0.0
C126 C 0.42901 0.1804 0.10326 0.0
C127 C 0.41705 0.15636 0.09699 0.0
C128 C 0.4178 0.14519 0.07345 0.0
C129 C 0.43066 0.15813 0.05644 0.0
C130 C 0.44274 0.18181 0.06392 0.0
H131 H 0.42807 0.18904 0.12125 0.0
O132 O 0.50488 0.20882 0.13842 0.0
O133 O 0.48779 0.21855 0.10386 0.0
O134 O 0.47826 0.24817 0.14677 0.0
O135 O 0.4454 0.23275 0.1206 0.0
C136 C 0.43171 0.14857 0.03226 0.0
C137 C 0.44535 0.16252 0.01625 0.0
H138 H 0.47445 0.19426 0.99117 0.0
H139 H 0.49511 0.23561 0.00801 0.0
H140 H 0.40705 0.14655 0.11019 0.0
H141 H 0.40832 0.12674 0.06859 0.0
H142 H 0.42235 0.13039 0.02587 0.0
H143 H 0.4463 0.15485 0.9978 0.0
Mn144 Mn 0.0227 0.7699 0.15082 0.0
Mn145 Mn 0.97781 0.74857 0.10594 0.0
C146 C 0.01118 0.7287 0.14109 0.0
C147 C 0.06426 0.78145 0.16333 0.0
C148 C 0.968 0.76531 0.15695 0.0
O149 O 0.01995 0.80013 0.13343 0.0
O150 O 0.98895 0.78396 0.10506 0.0
C151 C 0.00699 0.7559 0.06385 0.0
N152 N 0.99198 0.74092 0.07658 0.0
C153 C 0.98743 0.70833 0.04461 0.0
C154 C 0.00285 0.72338 0.03112 0.0
C155 C 0.01286 0.74719 0.0409 0.0
C156 C 0.98286 0.71777 0.06768 0.0
H157 H 0.01419 0.77441 0.07104 0.0
C158 C 0.00451 0.8018 0.11558 0.0
O159 O 0.04793 0.78809 0.17681 0.0
O160 O 0.05632 0.77014 0.14216 0.0
N161 N 0.96477 0.71462 0.10409 0.0
C162 C 0.95054 0.70238 0.11961 0.0
C163 C 0.94003 0.67793 0.11307 0.0
C164 C 0.94343 0.66665 0.09026 0.0
C165 C 0.95761 0.67984 0.07433 0.0
C166 C 0.96839 0.70385 0.08223 0.0
H167 H 0.94729 0.71123 0.13684 0.0
O168 O 0.02241 0.73727 0.16217 0.0
O169 O 0.00739 0.74448 0.12568 0.0
O170 O 0.99023 0.77216 0.16584 0.0
O171 O 0.96171 0.75568 0.13519 0.0
C172 C 0.96116 0.67026 0.05077 0.0
C173 C 0.97616 0.68445 0.03596 0.0
H174 H 0.00707 0.71687 0.01323 0.0
H175 H 0.02474 0.75894 0.03059 0.0
H176 H 0.92894 0.66794 0.12538 0.0
H177 H 0.9349 0.64794 0.08507 0.0
H178 H 0.95276 0.65186 0.04401 0.0
H179 H 0.97909 0.67674 0.01806 0.0
Mn180 Mn 0.49464 0.74294 0.38344 0.0
Mn181 Mn 0.48031 0.77843 0.33914 0.0
C182 C 0.45393 0.74315 0.37079 0.0
C183 C 0.5063 0.70822 0.3981 0.0
C184 C 0.49532 0.79776 0.39163 0.0
O185 O 0.52704 0.75159 0.36856 0.0
O186 O 0.51433 0.77284 0.33865 0.0
C187 C 0.48333 0.74435 0.29622 0.0
N188 N 0.47056 0.75906 0.30893 0.0
C189 C 0.43998 0.75638 0.27509 0.0
C190 C 0.45271 0.74108 0.26162 0.0
C191 C 0.4743 0.73477 0.27236 0.0
C192 C 0.44918 0.76429 0.29921 0.0
H193 H 0.50043 0.74027 0.30414 0.0
C194 C 0.53083 0.76348 0.35006 0.0
O195 O 0.5114 0.72927 0.41053 0.0
O196 O 0.49464 0.70717 0.37653 0.0
N197 N 0.44815 0.7864 0.3365 0.0
C198 C 0.43906 0.8028 0.35126 0.0
C199 C 0.41732 0.81074 0.3434 0.0
C200 C 0.40593 0.80291 0.31991 0.0
C201 C 0.41637 0.78721 0.30448 0.0
C202 C 0.43742 0.77897 0.31373 0.0
H203 H 0.44831 0.80979 0.36893 0.0
O204 O 0.46021 0.73579 0.39172 0.0
O205 O 0.47151 0.74943 0.35713 0.0
O206 O 0.49773 0.77744 0.39945 0.0
O207 O 0.48966 0.80034 0.36929 0.0
C208 C 0.40736 0.78036 0.27993 0.0
C209 C 0.41904 0.76475 0.2653 0.0
H210 H 0.4462 0.73429 0.24295 0.0
H211 H 0.4843 0.72309 0.26205 0.0
H212 H 0.40969 0.82333 0.35521 0.0
H213 H 0.38956 0.80955 0.3137 0.0
H214 H 0.3913 0.78673 0.27219 0.0
H215 H 0.41174 0.75931 0.24655 0.0
Mn216 Mn 0.52754 0.26407 0.65275 0.0
Mn217 Mn 0.48625 0.24492 0.60385 0.0
C218 C 0.52108 0.22397 0.63697 0.0
C219 C 0.56642 0.28092 0.67044 0.0
C220 C 0.47248 0.2537 0.65521 0.0
O221 O 0.5214 0.29569 0.63955 0.0
O222 O 0.49627 0.28074 0.60572 0.0
C223 C 0.51835 0.25674 0.56474 0.0
N224 N 0.50297 0.24016 0.57545 0.0
C225 C 0.50377 0.20921 0.54292 0.0
C226 C 0.51954 0.22597 0.53145 0.0
C227 C 0.52705 0.24978 0.54254 0.0
C228 C 0.49631 0.21699 0.56537 0.0
H229 H 0.52381 0.27515 0.57302 0.0
C230 C 0.50877 0.2983 0.61992 0.0
O231 O 0.54721 0.28204 0.682 0.0
O232 O 0.56304 0.27097 0.6481 0.0
N233 N 0.47463 0.21059 0.59925 0.0
C234 C 0.45836 0.19695 0.61199 0.0
C235 C 0.44946 0.17252 0.60359 0.0
C236 C 0.45669 0.16258 0.58176 0.0
C237 C 0.47261 0.17725 0.56842 0.0
C238 C 0.48124 0.20135 0.57792 0.0
H239 H 0.45225 0.2046 0.62847 0.0
O240 O 0.53098 0.23018 0.6591 0.0
O241 O 0.51585 0.24143 0.62435 0.0
O242 O 0.49409 0.2594 0.66554 0.0
O243 O 0.46725 0.24858 0.63228 0.0
C244 C 0.47961 0.16912 0.54568 0.0
C245 C 0.49497 0.18517 0.53282 0.0
H246 H 0.52599 0.22077 0.51414 0.0
H247 H 0.53925 0.26282 0.53384 0.0
H248 H 0.43684 0.16146 0.6138 0.0
H249 H 0.44958 0.14381 0.5752 0.0
H250 H 0.47313 0.15062 0.53782 0.0
H251 H 0.50021 0.17872 0.51533 0.0
Mn252 Mn 0.99212 0.24783 0.89823 0.0
Mn253 Mn 0.99353 0.28399 0.85205 0.0
C254 C 0.95676 0.24828 0.87381 0.0
C255 C 0.99858 0.21218 0.91441 0.0
C256 C 0.99491 0.30249 0.90528 0.0
O257 O 0.02823 0.25667 0.89383 0.0
O258 O 0.02665 0.27593 0.85953 0.0
C259 C 0.00396 0.25023 0.81178 0.0
N260 N 0.98941 0.26533 0.8211 0.0
C261 C 0.9625 0.25901 0.784 0.0
C262 C 0.97725 0.24346 0.77396 0.0
C263 C 0.99803 0.239 0.78794 0.0
C264 C 0.96936 0.26971 0.80784 0.0
H265 H 0.01997 0.24679 0.82246 0.0
C266 C 0.03824 0.26631 0.87614 0.0
O267 O 0.9995 0.23223 0.92817 0.0
O268 O 0.99384 0.21271 0.89104 0.0
N269 N 0.96255 0.29289 0.84268 0.0
C270 C 0.94968 0.3075 0.85544 0.0
C271 C 0.92819 0.31349 0.84419 0.0
C272 C 0.92017 0.30444 0.81995 0.0
C273 C 0.93375 0.28952 0.80716 0.0
C274 C 0.9552 0.28443 0.81922 0.0
H275 H 0.95577 0.31463 0.87402 0.0
O276 O 0.95574 0.24048 0.8953 0.0
O277 O 0.97847 0.25505 0.86699 0.0
O278 O 0.99148 0.2818 0.91355 0.0
O279 O 0.9974 0.30533 0.88286 0.0
C280 C 0.92672 0.27929 0.78301 0.0
C281 C 0.94106 0.264 0.77146 0.0
H282 H 0.9727 0.2347 0.7556 0.0
H283 H 0.00946 0.22696 0.78034 0.0
H284 H 0.91784 0.32506 0.85417 0.0
H285 H 0.9035 0.30898 0.81137 0.0
H286 H 0.91017 0.28282 0.77326 0.0
H287 H 0.93529 0.25599 0.753 0.0
Mn288 Mn 0.3937 0.02245 0.28509 0.0
Mn289 Mn 0.35197 0.00892 0.32505 0.0
C290 C 0.38292 0.98298 0.29437 0.0
C291 C 0.40386 0.02739 0.24586 0.0
C292 C 0.40523 0.0297 0.34058 0.0
O293 O 0.37735 0.05245 0.28649 0.0
O294 O 0.35092 0.04174 0.314 0.0
C295 C 0.30762 0.00703 0.29093 0.0
N296 N 0.321 0.99625 0.3073 0.0
C297 C 0.2889 0.9616 0.30571 0.0
C298 C 0.27473 0.97238 0.28894 0.0
C299 C 0.28423 0.9951 0.28136 0.0
C300 C 0.31232 0.97408 0.31416 0.0
H301 H 0.31465 0.02464 0.28527 0.0
C302 C 0.36006 0.05647 0.29923 0.0
O303 O 0.41879 0.03727 0.26454 0.0
O304 O 0.38281 0.01547 0.24989 0.0
N305 N 0.34991 0.97749 0.33705 0.0
C306 C 0.36613 0.96916 0.35274 0.0
C307 C 0.35979 0.94622 0.36131 0.0
C308 C 0.33662 0.9323 0.35412 0.0
C309 C 0.32005 0.94141 0.33832 0.0
C310 C 0.32757 0.96419 0.32999 0.0
H311 H 0.38399 0.97967 0.3582 0.0
O312 O 0.40354 0.9899 0.28557 0.0
O313 O 0.36874 0.99917 0.29703 0.0
O314 O 0.41163 0.03246 0.31918 0.0
O315 O 0.38342 0.02106 0.34481 0.0
C316 C 0.29625 0.9289 0.33071 0.0
C317 C 0.28069 0.93898 0.31441 0.0
H318 H 0.25657 0.96335 0.28173 0.0
H319 H 0.27345 0.00352 0.26837 0.0
H320 H 0.37272 0.93932 0.37349 0.0
H321 H 0.33172 0.91468 0.3609 0.0
H322 H 0.28985 0.91134 0.33702 0.0
H323 H 0.26257 0.929 0.30838 0.0
Mn324 Mn 0.2586 0.14041 0.50603 0.0
Mn325 Mn 0.25434 0.09683 0.45933 0.0
C326 C 0.22087 0.11731 0.49171 0.0
C327 C 0.26288 0.15356 0.5477 0.0
C328 C 0.26358 0.15089 0.4527 0.0
O329 O 0.29343 0.13299 0.5065 0.0
O330 O 0.28831 0.10255 0.47608 0.0
C331 C 0.26146 0.05409 0.48581 0.0
N332 N 0.24727 0.06516 0.4705 0.0
C333 C 0.21528 0.03012 0.46572 0.0
C334 C 0.22959 0.01834 0.4814 0.0
C335 C 0.25279 0.03038 0.49146 0.0
C336 C 0.22505 0.05361 0.46043 0.0
H337 H 0.27925 0.06329 0.49374 0.0
C338 C 0.30135 0.1163 0.49372 0.0
O339 O 0.26824 0.16857 0.53141 0.0
O340 O 0.25606 0.1308 0.53986 0.0
N341 N 0.22202 0.08961 0.44282 0.0
C342 C 0.20961 0.10431 0.42991 0.0
C343 C 0.18557 0.09549 0.41973 0.0
C344 C 0.17452 0.0717 0.42296 0.0
C345 C 0.1876 0.05693 0.43638 0.0
C346 C 0.21159 0.06664 0.44595 0.0
H347 H 0.21788 0.12273 0.42763 0.0
O348 O 0.22213 0.13904 0.50246 0.0
O349 O 0.24175 0.11057 0.48855 0.0
O350 O 0.26266 0.15812 0.47502 0.0
O351 O 0.26111 0.12842 0.44504 0.0
C352 C 0.17754 0.0332 0.4412 0.0
C353 C 0.19141 0.01977 0.45578 0.0
H354 H 0.22283 1.00018 0.48607 0.0
H355 H 0.26389 0.02144 0.50366 0.0
H356 H 0.17551 0.10707 0.40957 0.0
H357 H 0.15587 0.06505 0.4153 0.0
H358 H 0.15902 0.02525 0.4341 0.0
H359 H 0.18333 0.00169 0.45966 0.0
Mn360 Mn 0.13633 0.01005 0.78838 0.0
Mn361 Mn 0.18022 0.01493 0.83522 0.0
C362 C 0.15873 0.04786 0.80323 0.0
C363 C 0.12248 0.00674 0.74702 0.0
C364 C 0.12591 0.00472 0.84172 0.0
O365 O 0.14504 0.97577 0.7872 0.0
O366 O 0.17481 0.98117 0.81852 0.0
C367 C 0.22314 0.00829 0.80857 0.0
N368 N 0.21198 0.02223 0.82398 0.0
C369 C 0.24709 0.05419 0.82885 0.0
C370 C 0.25895 0.04014 0.81308 0.0
C371 C 0.24693 0.01709 0.80292 0.0
C372 C 0.22352 0.04432 0.83412 0.0
H373 H 0.21397 0.99062 0.80057 0.0
C374 C 0.16177 0.96814 0.80041 0.0
O375 O 0.10785 1.00016 0.7633 0.0
O376 O 0.14538 0.01404 0.75449 0.0
N377 N 0.18732 0.04707 0.85172 0.0
C378 C 0.17249 0.0593 0.86462 0.0
C379 C 0.18132 0.08314 0.87499 0.0
C380 C 0.20525 0.0942 0.87193 0.0
C381 C 0.22011 0.08135 0.8584 0.0
C382 C 0.2104 0.05754 0.84868 0.0
H383 H 0.15394 0.05106 0.86672 0.0
O384 O 0.13671 0.04621 0.79271 0.0
O385 O 0.16611 0.02731 0.80601 0.0
O386 O 0.11866 0.00479 0.81927 0.0
O387 O 0.14851 0.00809 0.84959 0.0
C388 C 0.24393 0.09149 0.85364 0.0
C389 C 0.25744 0.07789 0.83894 0.0
H390 H 0.27718 0.04698 0.80843 0.0
H391 H 0.25593 0.00618 0.79065 0.0
H392 H 0.16965 0.09304 0.88517 0.0
H393 H 0.21193 0.11267 0.87977 0.0
H394 H 0.25188 0.10988 0.86085 0.0
H395 H 0.27559 0.08603 0.83509 0.0
Mn396 Mn 0.25804 0.86956 0.00887 0.0
Mn397 Mn 0.26794 0.91444 0.97163 0.0
C398 C 0.29708 0.884 0.99928 0.0
C399 C 0.2548 0.85225 0.0456 0.0
C400 C 0.2509 0.8624 0.95285 0.0
O401 O 0.22654 0.88361 0.01021 0.0
O402 O 0.23404 0.90907 0.98108 0.0
C403 C 0.26291 0.95426 0.00858 0.0
N404 N 0.27609 0.94455 0.99175 0.0
C405 C 0.30646 0.98085 0.99616 0.0
C406 C 0.29322 0.99125 0.01351 0.0
C407 C 0.27146 0.9778 0.01991 0.0
C408 C 0.29746 0.95702 0.98608 0.0
H409 H 0.24593 0.94423 0.01323 0.0
C410 C 0.22005 0.89858 0.99575 0.0
O411 O 0.24452 0.84089 0.02514 0.0
O412 O 0.26566 0.87461 0.04511 0.0
N413 N 0.2997 0.92249 0.96052 0.0
C414 C 0.30983 0.91027 0.94274 0.0
C415 C 0.33189 0.92108 0.93453 0.0
C416 C 0.34273 0.94478 0.94384 0.0
C417 C 0.33137 0.95746 0.96126 0.0
C418 C 0.30983 0.94545 0.96935 0.0
H419 H 0.30127 0.8923 0.93506 0.0
O420 O 0.29149 0.86217 0.00578 0.0
O421 O 0.27985 0.89722 0.99873 0.0
O422 O 0.24737 0.85531 0.97379 0.0
O423 O 0.26026 0.88415 0.94957 0.0
C424 C 0.34024 0.98177 0.97043 0.0
C425 C 0.32799 0.99335 0.98812 0.0
H426 H 0.29952 0.00957 0.02196 0.0
H427 H 0.26111 0.9857 0.03327 0.0
H428 H 0.34033 0.91129 0.9208 0.0
H429 H 0.35955 0.95321 0.93719 0.0
H430 H 0.35671 0.9916 0.96431 0.0
H431 H 0.33524 0.0119 0.99536 0.0
Mn432 Mn 0.2804 0.38493 0.05013 0.0
Mn433 Mn 0.28726 0.43491 0.0188 0.0
C434 C 0.31986 0.40587 0.0464 0.0
C435 C 0.27244 0.36726 0.08676 0.0
C436 C 0.27587 0.38305 0.99447 0.0
O437 O 0.24576 0.39357 0.04626 0.0
O438 O 0.2542 0.42946 0.03042 0.0
C439 C 0.28505 0.47282 0.0586 0.0
N440 N 0.29695 0.4639 0.04022 0.0
C441 C 0.32618 0.50089 0.04289 0.0
C442 C 0.31432 0.51052 0.0619 0.0
C443 C 0.29382 0.49631 0.06998 0.0
C444 C 0.3172 0.47704 0.03295 0.0
H445 H 0.26885 0.46219 0.06431 0.0
C446 C 0.23949 0.41314 0.03923 0.0
O447 O 0.26808 0.35448 0.06577 0.0
O448 O 0.28129 0.39017 0.08642 0.0
N449 N 0.31808 0.44321 0.00589 0.0
C450 C 0.32714 0.43145 0.98701 0.0
C451 C 0.34805 0.4429 0.97722 0.0
C452 C 0.35877 0.46674 0.98617 0.0
C453 C 0.34856 0.47883 0.00494 0.0
C454 C 0.32829 0.46616 0.01463 0.0
H455 H 0.31855 0.41343 0.97951 0.0
O456 O 0.3164 0.38381 0.05273 0.0
O457 O 0.30021 0.41562 0.04349 0.0
O458 O 0.27725 0.37189 0.01374 0.0
O459 O 0.27785 0.40616 0.99498 0.0
C460 C 0.35725 0.50322 0.01392 0.0
C461 C 0.3462 0.51419 0.03303 0.0
H462 H 0.3207 0.52883 0.07034 0.0
H463 H 0.28451 0.50363 0.08459 0.0
H464 H 0.35559 0.43354 0.96251 0.0
H465 H 0.37461 0.4757 0.97825 0.0
H466 H 0.37268 0.51361 0.00654 0.0
H467 H 0.35334 0.53282 0.04007 0.0
Mn468 Mn 0.77905 0.15408 0.02565 0.0
Mn469 Mn 0.76674 0.10422 0.98527 0.0
C470 C 0.73854 0.13476 0.01528 0.0
C471 C 0.78867 0.17447 0.0647 0.0
C472 C 0.78069 0.15519 0.97066 0.0
O473 O 0.81209 0.14243 0.02591 0.0
O474 O 0.80072 0.10847 1.00016 0.0
C475 C 0.77015 0.06656 0.01956 0.0
N476 N 0.75729 0.07584 0.00159 0.0
C477 C 0.72567 0.04058 0.99718 0.0
C478 C 0.73852 0.03062 0.0157 0.0
C479 C 0.76075 0.04377 0.02709 0.0
C480 C 0.73549 0.06375 0.99113 0.0
H481 H 0.78756 0.07636 0.02788 0.0
C482 C 0.81658 0.12307 0.01457 0.0
O483 O 0.79384 0.18489 0.04521 0.0
O484 O 0.7785 0.15167 0.06168 0.0
N485 N 0.73449 0.09731 0.9689 0.0
C486 C 0.72507 0.10897 0.95052 0.0
C487 C 0.70378 0.09757 0.93609 0.0
C488 C 0.69272 0.07409 0.94032 0.0
C489 C 0.70257 0.06251 0.95948 0.0
C490 C 0.72374 0.07483 0.97334 0.0
H491 H 0.73407 0.12658 0.94644 0.0
O492 O 0.74383 0.15761 0.02333 0.0
O493 O 0.75736 0.12401 0.01295 0.0
O494 O 0.78222 0.16583 0.992 0.0
O495 O 0.77576 0.13215 0.96618 0.0
C496 C 0.69257 0.03897 0.96493 0.0
C497 C 0.70388 0.02817 0.98404 0.0
H498 H 0.73162 0.01279 0.02114 0.0
H499 H 0.77084 0.03617 0.04131 0.0
H500 H 0.69625 0.10663 0.92138 0.0
H501 H 0.67653 0.06517 0.92887 0.0
H502 H 0.67614 0.02903 0.95457 0.0
H503 H 0.69596 0.01012 0.98814 0.0
Mn504 Mn 0.13335 0.504 0.26425 0.0
Mn505 Mn 0.17544 0.52967 0.31048 0.0
C506 C 0.14595 0.54593 0.27022 0.0
C507 C 0.11892 0.48875 0.22433 0.0
C508 C 0.12325 0.51018 0.318 0.0
O509 O 0.15032 0.47514 0.27214 0.0
O510 O 0.17605 0.49459 0.30383 0.0
C511 C 0.21964 0.52376 0.28558 0.0
N512 N 0.20626 0.53835 0.29765 0.0
C513 C 0.23712 0.57358 0.29611 0.0
C514 C 0.25126 0.55891 0.28377 0.0
C515 C 0.24244 0.53391 0.2784 0.0
C516 C 0.21449 0.56246 0.3027 0.0
H517 H 0.21299 0.50454 0.28145 0.0
C518 C 0.16718 0.47554 0.2895 0.0
O519 O 0.10671 0.48302 0.24261 0.0
O520 O 0.14053 0.50191 0.22928 0.0
N521 N 0.17717 0.56385 0.31854 0.0
C522 C 0.161 0.57559 0.32995 0.0
C523 C 0.16721 0.60066 0.33689 0.0
C524 C 0.18995 0.61339 0.33204 0.0
C525 C 0.20619 0.60098 0.32008 0.0
C526 C 0.19919 0.57591 0.31399 0.0
H527 H 0.1436 0.56585 0.33394 0.0
O528 O 0.12434 0.53695 0.25963 0.0
O529 O 0.1589 0.53033 0.2779 0.0
O530 O 0.11725 0.50207 0.29587 0.0
O531 O 0.14442 0.52191 0.32575 0.0
C532 C 0.22906 0.61251 0.314 0.0
C533 C 0.24445 0.59884 0.30189 0.0
H534 H 0.26886 0.56666 0.2782 0.0
H535 H 0.25321 0.52248 0.2688 0.0
H536 H 0.15453 0.61015 0.34604 0.0
H537 H 0.19473 0.63271 0.33748 0.0
H538 H 0.23489 0.63191 0.31836 0.0
H539 H 0.26186 0.60794 0.29704 0.0
Mn540 Mn 0.77721 0.87771 0.54742 0.0
Mn541 Mn 0.78376 0.92758 0.51547 0.0
C542 C 0.81566 0.90197 0.54746 0.0
C543 C 0.76738 0.85555 0.58103 0.0
C544 C 0.77786 0.87602 0.49179 0.0
O545 O 0.74193 0.88424 0.54125 0.0
O546 O 0.74938 0.91891 0.52267 0.0
C547 C 0.77372 0.96409 0.55343 0.0
N548 N 0.78864 0.95669 0.53703 0.0
C549 C 0.81714 0.99421 0.54551 0.0
C550 C 0.80205 0.00228 0.56245 0.0
C551 C 0.7803 0.98711 0.56649 0.0
C552 C 0.8097 0.97105 0.53316 0.0
H553 H 0.75692 0.95253 0.55644 0.0
C554 C 0.73504 0.90244 0.53168 0.0
O555 O 0.76544 0.84562 0.5589 0.0
O556 O 0.775 0.87897 0.58405 0.0
N557 N 0.81602 0.93854 0.50688 0.0
C558 C 0.8285 0.92796 0.48997 0.0
C559 C 0.85042 0.94088 0.48344 0.0
C560 C 0.85943 0.96446 0.49448 0.0
C561 C 0.84608 0.97511 0.51156 0.0
C562 C 0.82404 0.96155 0.51693 0.0
H563 H 0.82162 0.90994 0.48122 0.0
O564 O 0.81372 0.87952 0.55268 0.0
O565 O 0.79515 0.90979 0.54272 0.0
O566 O 0.7775 0.86594 0.51161 0.0
O567 O 0.77929 0.89893 0.49103 0.0
C568 C 0.85376 0.99865 0.52348 0.0
C569 C 0.83936 0.00814 0.54054 0.0
H570 H 0.80703 0.02005 0.57253 0.0
H571 H 0.76858 0.9932 0.57955 0.0
H572 H 0.86026 0.93271 0.4698 0.0
H573 H 0.87653 0.97425 0.48961 0.0
H574 H 0.87081 0.0095 0.51982 0.0
H575 H 0.84558 0.02614 0.54979 0.0
Mn576 Mn 0.89822 0.99495 0.24463 0.0
Mn577 Mn 0.84751 0.9905 0.27545 0.0
C578 C 0.87395 0.95704 0.24642 0.0
C579 C 0.92133 0.00152 0.21116 0.0
C580 C 0.89895 0.99766 0.30013 0.0
O581 O 0.89136 0.03024 0.24824 0.0
O582 O 0.85585 0.02386 0.26565 0.0
C583 C 0.81062 0.99732 0.23603 0.0
N584 N 0.81838 0.98375 0.25356 0.0
C585 C 0.78123 0.95443 0.24621 0.0
C586 C 0.77281 0.9681 0.22809 0.0
C587 C 0.7876 0.9896 0.22293 0.0
C588 C 0.80434 0.963 0.25861 0.0
H589 H 0.82188 0.01394 0.23215 0.0
C590 C 0.8726 0.03769 0.25635 0.0
O591 O 0.93086 0.00524 0.2335 0.0
O592 O 0.89765 0.9949 0.20781 0.0
N593 N 0.83704 0.95914 0.28619 0.0
C594 C 0.84808 0.94784 0.30387 0.0
C595 C 0.8357 0.92614 0.31128 0.0
C596 C 0.81214 0.91622 0.30041 0.0
C597 C 0.80105 0.92829 0.28242 0.0
C598 C 0.81413 0.95009 0.27607 0.0
H599 H 0.86611 0.95542 0.31245 0.0
O600 O 0.89662 0.95867 0.24171 0.0
O601 O 0.86586 0.97755 0.24946 0.0
O602 O 0.90947 0.99627 0.28069 0.0
O603 O 0.87599 0.99708 0.30039 0.0
C604 C 0.7776 0.91949 0.27045 0.0
C605 C 0.76773 0.93252 0.2523 0.0
H606 H 0.75507 0.96222 0.21796 0.0
H607 H 0.78123 1.00023 0.20896 0.0
H608 H 0.84429 0.91713 0.32541 0.0
H609 H 0.80273 0.89934 0.30602 0.0
H610 H 0.7671 0.90262 0.27489 0.0
H611 H 0.74979 0.92544 0.24304 0.0
Mn612 Mn 0.27243 0.64198 0.53474 0.0
Mn613 Mn 0.25485 0.59814 0.4878 0.0
C614 C 0.23138 0.62729 0.52426 0.0
C615 C 0.28496 0.65494 0.57555 0.0
C616 C 0.26899 0.65146 0.48078 0.0
O617 O 0.3042 0.62942 0.5294 0.0
O618 O 0.28992 0.6004 0.49872 0.0
C619 C 0.26108 0.55587 0.51528 0.0
N620 N 0.24673 0.56749 0.5007 0.0
C621 C 0.21419 0.53304 0.49613 0.0
C622 C 0.22859 0.52066 0.5111 0.0
C623 C 0.25206 0.53222 0.52089 0.0
C624 C 0.22383 0.55687 0.49187 0.0
H625 H 0.27931 0.56451 0.52242 0.0
C626 C 0.30703 0.61226 0.51387 0.0
O627 O 0.28979 0.66906 0.55842 0.0
O628 O 0.27374 0.63289 0.56889 0.0
N629 N 0.22142 0.5931 0.47446 0.0
C630 C 0.21043 0.60692 0.45913 0.0
C631 C 0.18679 0.59804 0.4479 0.0
C632 C 0.17514 0.57459 0.45157 0.0
C633 C 0.1873 0.5602 0.46638 0.0
C634 C 0.21053 0.57031 0.47774 0.0
H635 H 0.2196 0.62464 0.45555 0.0
O636 O 0.23849 0.64807 0.53698 0.0
O637 O 0.2484 0.61488 0.51873 0.0
O638 O 0.27392 0.65902 0.50329 0.0
O639 O 0.2622 0.62908 0.47305 0.0
C640 C 0.17761 0.53594 0.46969 0.0
C641 C 0.19088 0.52248 0.48484 0.0
H642 H 0.22188 0.50224 0.51507 0.0
H643 H 0.26332 0.52279 0.53242 0.0
H644 H 0.17775 0.60909 0.43608 0.0
H645 H 0.15707 0.56763 0.44254 0.0
H646 H 0.1598 0.52755 0.46092 0.0
H647 H 0.18305 0.50396 0.48754 0.0
Mn648 Mn 0.39048 0.4892 0.74181 0.0
Mn649 Mn 0.34435 0.48704 0.77856 0.0
C650 C 0.36488 0.4522 0.74486 0.0
C651 C 0.40729 0.49687 0.70483 0.0
C652 C 0.39792 0.49204 0.79728 0.0
O653 O 0.38629 0.5251 0.74836 0.0
O654 O 0.35215 0.52012 0.7681 0.0
C655 C 0.30377 0.49491 0.74369 0.0
N656 N 0.31307 0.48116 0.7602 0.0
C657 C 0.27514 0.45303 0.75713 0.0
C658 C 0.26511 0.46691 0.74012 0.0
C659 C 0.27952 0.48789 0.73331 0.0
C660 C 0.29942 0.46089 0.76679 0.0
H661 H 0.31476 0.51114 0.73855 0.0
C662 C 0.36869 0.53337 0.75799 0.0
O663 O 0.42081 0.49835 0.72526 0.0
O664 O 0.3838 0.491 0.7057 0.0
N665 N 0.33466 0.45596 0.79021 0.0
C666 C 0.34733 0.44427 0.80631 0.0
C667 C 0.33557 0.42294 0.81498 0.0
C668 C 0.31094 0.41383 0.80702 0.0
C669 C 0.29823 0.42626 0.79057 0.0
C670 C 0.3108 0.44765 0.78285 0.0
H671 H 0.36619 0.45127 0.81269 0.0
O672 O 0.38629 0.45263 0.73694 0.0
O673 O 0.35883 0.47336 0.75024 0.0
O674 O 0.40612 0.48897 0.77662 0.0
O675 O 0.37549 0.49298 0.79982 0.0
C676 C 0.27363 0.41821 0.78142 0.0
C677 C 0.26212 0.43154 0.76464 0.0
H678 H 0.24641 0.46155 0.73207 0.0
H679 H 0.27191 0.49868 0.72017 0.0
H680 H 0.34547 0.41357 0.82784 0.0
H681 H 0.30197 0.39727 0.81363 0.0
H682 H 0.26348 0.40165 0.78696 0.0
H683 H 0.2433 0.425 0.7575 0.0
Mn684 Mn 0.62961 0.00173 0.76902 0.0
Mn685 Mn 0.6787 0.02207 0.80962 0.0
C686 C 0.64517 0.04279 0.77573 0.0
C687 C 0.60809 0.98932 0.73106 0.0
C688 C 0.62808 0.01108 0.82435 0.0
O689 O 0.64345 0.97044 0.77272 0.0
O690 O 0.67176 0.98607 0.80366 0.0
C691 C 0.71496 0.00623 0.77813 0.0
N692 N 0.70715 0.02404 0.79216 0.0
C693 C 0.74417 0.05201 0.78897 0.0
C694 C 0.75262 0.03397 0.77449 0.0
C695 C 0.73784 0.01105 0.76886 0.0
C696 C 0.72084 0.04642 0.79696 0.0
H697 H 0.70395 0.98841 0.77419 0.0
C698 C 0.65972 0.96812 0.78962 0.0
O699 O 0.59881 0.98423 0.75118 0.0
O700 O 0.63098 0.99945 0.73275 0.0
N701 N 0.68863 0.05631 0.81796 0.0
C702 C 0.67853 0.07126 0.8334 0.0
C703 C 0.69094 0.09496 0.84066 0.0
C704 C 0.7142 0.10262 0.83309 0.0
C705 C 0.72483 0.08648 0.81834 0.0
C706 C 0.71118 0.06341 0.81086 0.0
H707 H 0.66107 0.06518 0.84007 0.0
O708 O 0.62252 0.0352 0.7676 0.0
O709 O 0.65873 0.02625 0.77959 0.0
O710 O 0.61862 0.00115 0.80352 0.0
O711 O 0.65034 0.02126 0.82879 0.0
C712 C 0.74874 0.09214 0.81134 0.0
C713 C 0.75824 0.07509 0.7963 0.0
H714 H 0.77049 0.03746 0.76775 0.0
H715 H 0.74424 0.99701 0.75775 0.0
H716 H 0.6828 0.10713 0.85247 0.0
H717 H 0.72394 0.12075 0.83912 0.0
H718 H 0.75984 0.10973 0.81709 0.0
H719 H 0.77648 0.07982 0.79069 0.0
Mn720 Mn 0.76037 0.64026 0.00719 0.0
Mn721 Mn 0.75324 0.59475 0.96205 0.0
C722 C 0.72131 0.6204 0.99241 0.0
C723 C 0.76612 0.65746 0.0477 0.0
C724 C 0.76606 0.64803 0.95329 0.0
O725 O 0.79411 0.62992 0.00874 0.0
O726 O 0.78704 0.59891 0.97904 0.0
C727 C 0.75726 0.55277 0.99075 0.0
N728 N 0.74419 0.56398 0.97452 0.0
C729 C 0.71234 0.52892 0.96741 0.0
C730 C 0.72547 0.51697 0.984 0.0
C731 C 0.74795 0.52902 0.99584 0.0
C732 C 0.72235 0.55271 0.96334 0.0
H733 H 0.77473 0.56179 0.99962 0.0
C734 C 0.80087 0.61223 0.9964 0.0
O735 O 0.77254 0.66973 0.02969 0.0
O736 O 0.75709 0.63451 0.04242 0.0
N737 N 0.72134 0.58847 0.94472 0.0
C738 C 0.71058 0.60282 0.92983 0.0
C739 C 0.68738 0.59391 0.91758 0.0
C740 C 0.67568 0.57023 0.92042 0.0
C741 C 0.68727 0.55571 0.93559 0.0
C742 C 0.71021 0.5657 0.94765 0.0
H743 H 0.71955 0.62096 0.92741 0.0
O744 O 0.72483 0.64248 0.00282 0.0
O745 O 0.74085 0.61057 0.99063 0.0
O746 O 0.76596 0.6559 0.97547 0.0
O747 O 0.76199 0.62536 0.9462 0.0
C748 C 0.67702 0.53165 0.9391 0.0
C749 C 0.68968 0.51818 0.95479 0.0
H750 H 0.71842 0.4986 0.98786 0.0
H751 H 0.75818 0.51994 0.0087 0.0
H752 H 0.67859 0.60522 0.90586 0.0
H753 H 0.65785 0.56336 0.91082 0.0
H754 H 0.65938 0.52335 0.92989 0.0
H755 H 0.68156 0.49973 0.95744 0.0
Mn756 Mn 0.9019 0.51705 0.78396 0.0
Mn757 Mn 0.86059 0.51428 0.8256 0.0
C758 C 0.88245 0.47985 0.79392 0.0
C759 C 0.91478 0.51791 0.74527 0.0
C760 C 0.91528 0.52757 0.83889 0.0
O761 O 0.89181 0.55065 0.78429 0.0
O762 O 0.86326 0.54591 0.81118 0.0
C763 C 0.81553 0.51473 0.79321 0.0
N764 N 0.82814 0.50389 0.81015 0.0
C765 C 0.79401 0.47147 0.81058 0.0
C766 C 0.78054 0.48255 0.79347 0.0
C767 C 0.79138 0.50423 0.7847 0.0
C768 C 0.81789 0.48297 0.81868 0.0
H769 H 0.82387 0.53113 0.78605 0.0
C770 C 0.87482 0.55805 0.79566 0.0
O771 O 0.92942 0.52631 0.76449 0.0
O772 O 0.89196 0.51018 0.74817 0.0
N773 N 0.85595 0.48399 0.83995 0.0
C774 C 0.87225 0.47428 0.85432 0.0
C775 C 0.86478 0.45176 0.86336 0.0
C776 C 0.84066 0.4395 0.85761 0.0
C777 C 0.82425 0.44978 0.84271 0.0
C778 C 0.83267 0.47237 0.83438 0.0
H779 H 0.89085 0.48355 0.8587 0.0
O780 O 0.90377 0.4817 0.78557 0.0
O781 O 0.87364 0.49987 0.79691 0.0
O782 O 0.92085 0.5253 0.81716 0.0
O783 O 0.89319 0.52463 0.84428 0.0
C784 C 0.80008 0.43819 0.83529 0.0
C785 C 0.78496 0.44904 0.81926 0.0
H786 H 0.76201 0.47434 0.78662 0.0
H787 H 0.78122 0.51274 0.77127 0.0
H788 H 0.87761 0.44382 0.87467 0.0
H789 H 0.83502 0.42206 0.86449 0.0
H790 H 0.7931 0.42069 0.8414 0.0
H791 H 0.76658 0.43971 0.81328 0.0
Mn792 Mn 0.76344 0.36869 0.5116 0.0
Mn793 Mn 0.76336 0.41198 0.47249 0.0
C794 C 0.79976 0.38796 0.49958 0.0
C795 C 0.7643 0.35311 0.54906 0.0
C796 C 0.75201 0.35826 0.45625 0.0
O797 O 0.73001 0.37828 0.51439 0.0
O798 O 0.73128 0.40583 0.48667 0.0
C799 C 0.7602 0.45294 0.50895 0.0
N800 N 0.77216 0.44292 0.49119 0.0
C801 C 0.80385 0.47818 0.49529 0.0
C802 C 0.79183 0.48887 0.51354 0.0
C803 C 0.76995 0.47616 0.52044 0.0
C804 C 0.79341 0.45488 0.48466 0.0
H805 H 0.74336 0.44334 0.51437 0.0
C806 C 0.72058 0.39388 0.50281 0.0
O807 O 0.755 0.33991 0.52923 0.0
O808 O 0.77215 0.37613 0.54756 0.0
N809 N 0.79331 0.42053 0.45795 0.0
C810 C 0.80222 0.4081 0.43942 0.0
C811 C 0.82402 0.41842 0.43034 0.0
C812 C 0.83622 0.44154 0.44012 0.0
C813 C 0.82631 0.45429 0.45865 0.0
C814 C 0.8045 0.44312 0.46693 0.0
H815 H 0.79291 0.39036 0.43174 0.0
O816 O 0.79821 0.36647 0.50724 0.0
O817 O 0.78003 0.39771 0.49927 0.0
O818 O 0.7533 0.35203 0.4778 0.0
O819 O 0.75512 0.38048 0.45146 0.0
C820 C 0.83705 0.47778 0.46899 0.0
C821 C 0.82578 0.48975 0.48723 0.0
H822 H 0.79925 0.50681 0.52239 0.0
H823 H 0.76058 0.48425 0.53456 0.0
H824 H 0.83142 0.40856 0.41587 0.0
H825 H 0.85307 0.4494 0.43313 0.0
H826 H 0.85396 0.48684 0.46301 0.0
H827 H 0.83422 0.50781 0.49506 0.0
Mn828 Mn 0.64717 0.51268 0.29699 0.0
Mn829 Mn 0.68737 0.52619 0.34724 0.0
C830 C 0.66355 0.55292 0.30985 0.0
C831 C 0.6382 0.50307 0.25505 0.0
C832 C 0.6326 0.51216 0.34931 0.0
O833 O 0.6584 0.48009 0.3016 0.0
O834 O 0.68624 0.49195 0.33392 0.0
C835 C 0.73339 0.52172 0.32517 0.0
N836 N 0.71984 0.53523 0.33835 0.0
C837 C 0.75407 0.56777 0.34774 0.0
C838 C 0.76844 0.55417 0.33437 0.0
C839 C 0.75799 0.53113 0.32286 0.0
C840 C 0.72956 0.55765 0.34899 0.0
H841 H 0.72557 0.50384 0.31662 0.0
C842 C 0.67535 0.476 0.31698 0.0
O843 O 0.62175 0.49795 0.27007 0.0
O844 O 0.66001 0.51301 0.26438 0.0
N845 N 0.69085 0.55897 0.36161 0.0
C846 C 0.67428 0.57014 0.37304 0.0
C847 C 0.68144 0.59393 0.38422 0.0
C848 C 0.7057 0.60574 0.38411 0.0
C849 C 0.72253 0.59372 0.37261 0.0
C850 C 0.71419 0.57025 0.36125 0.0
H851 H 0.65575 0.561 0.37355 0.0
O852 O 0.64315 0.54733 0.29597 0.0
O853 O 0.67413 0.53478 0.31568 0.0
O854 O 0.62672 0.50994 0.32636 0.0
O855 O 0.65462 0.5177 0.35892 0.0
C856 C 0.74731 0.60402 0.37213 0.0
C857 C 0.76311 0.59099 0.35984 0.0
H858 H 0.78748 0.56128 0.33275 0.0
H859 H 0.76893 0.52053 0.31247 0.0
H860 H 0.66835 0.60304 0.39314 0.0
H861 H 0.71123 0.62399 0.39298 0.0
H862 H 0.75436 0.62204 0.38098 0.0
H863 H 0.78206 0.59921 0.35937 0.0
Zn864 Zn 0.0422 0.9998 0.03191 0.0
Zn865 Zn 0.99397 0.02131 0.01191 0.0
C866 C 0.02489 0.95785 0.04956 0.0
O867 O 0.04379 0.96844 0.06455 0.0
C868 C 0.0044 0.07346 0.00997 0.0
O869 O 0.98667 0.07373 0.02427 0.0
O870 O 0.07506 0.98814 0.03263 0.0
O871 O 0.04144 0.01653 1.00079 0.0
O872 O 0.00491 0.99838 0.98583 0.0
C873 C 0.07443 0.97304 0.01399 0.0
O874 O 0.05428 0.9677 0.99916 0.0
O875 O 0.0183 0.96842 0.03118 0.0
C876 C 0.94416 0.02264 0.02136 0.0
O877 O 0.94965 0.00982 0.03928 0.0
O878 O 0.95875 0.02607 0.0049 0.0
O879 O 0.99791 0.01728 0.04837 0.0
O880 O 0.03619 0.01812 0.0631 0.0
O881 O 0.01213 0.05367 0.00505 0.0
C882 C 0.0272 0.0059 0.98266 0.0
C883 C 0.01387 0.01852 0.06647 0.0
Zn884 Zn 0.24576 0.76116 0.29441 0.0
Zn885 Zn 0.2765 0.77235 0.24896 0.0
C886 C 0.21528 0.7178 0.27666 0.0
O887 O 0.20024 0.73028 0.28715 0.0
C888 C 0.31499 0.81033 0.26677 0.0
O889 O 0.32753 0.79288 0.26176 0.0
O890 O 0.23935 0.75516 0.32914 0.0
O891 O 0.28168 0.7737 0.29799 0.0
O892 O 0.29229 0.74927 0.26944 0.0
C893 C 0.24986 0.73763 0.33528 0.0
O894 O 0.26161 0.72674 0.31922 0.0
O895 O 0.23741 0.72783 0.27605 0.0
C896 C 0.27887 0.79128 0.20521 0.0
O897 O 0.27012 0.80701 0.21948 0.0
O898 O 0.28456 0.77223 0.21388 0.0
O899 O 0.23989 0.7691 0.24447 0.0
O900 O 0.22344 0.78084 0.27754 0.0
O901 O 0.29178 0.80602 0.26347 0.0
C902 C 0.29557 0.75902 0.2913 0.0
C903 C 0.22187 0.7754 0.25462 0.0
Zn904 Zn 0.49738 0.03045 0.53387 0.0
Zn905 Zn 0.54438 0.99618 0.51764 0.0
C906 C 0.53626 0.07121 0.54645 0.0
O907 O 0.54992 0.05611 0.55485 0.0
C908 C 0.52395 0.95728 0.48419 0.0
O909 O 0.53614 0.97213 0.47043 0.0
O910 O 0.46367 0.0401 0.53732 0.0
O911 O 0.49611 0.00834 0.50332 0.0
O912 O 0.53358 0.0197 0.49397 0.0
C913 C 0.45194 0.04619 0.51863 0.0
O914 O 0.46094 0.04423 0.49746 0.0
O915 O 0.51816 0.06283 0.53098 0.0
C916 C 0.59392 0.98549 0.52948 0.0
O917 O 0.59082 0.99352 0.55177 0.0
O918 O 0.578 0.98746 0.51215 0.0
O919 O 0.54191 0.00171 0.55402 0.0
O920 O 0.50956 0.01734 0.56465 0.0
O921 O 0.52334 0.96415 0.50656 0.0
C922 C 0.51059 0.01661 0.48818 0.0
C923 C 0.52847 0.00801 0.57017 0.0
Zn924 Zn 0.28532 0.24314 0.7651 0.0
Zn925 Zn 0.23734 0.26168 0.79188 0.0
C926 C 0.27289 0.239 0.71182 0.0
O927 O 0.2888 0.25916 0.71237 0.0
C928 C 0.2627 0.27282 0.84397 0.0
O929 O 0.25872 0.24981 0.84823 0.0
O930 O 0.31998 0.23993 0.75954 0.0
O931 O 0.28618 0.27889 0.77531 0.0
O932 O 0.2482 0.28301 0.76494 0.0
C933 C 0.33395 0.25747 0.7519 0.0
O934 O 0.32613 0.27815 0.74963 0.0
O935 O 0.26704 0.23093 0.73185 0.0
C936 C 0.19675 0.25081 0.81647 0.0
O937 O 0.21254 0.23786 0.82512 0.0
O938 O 0.20264 0.26422 0.79954 0.0
O939 O 0.23619 0.22499 0.78773 0.0
O940 O 0.27413 0.21808 0.78778 0.0
O941 O 0.25676 0.27891 0.82286 0.0
C942 C 0.27102 0.29145 0.76666 0.0
C943 C 0.25167 0.21076 0.79003 0.0
Zn944 Zn 0.02698 0.98587 0.53079 0.0
Zn945 Zn 0.0084 0.03351 0.50965 0.0
C946 C 0.05534 0.99689 0.57628 0.0
O947 O 0.06768 0.98241 0.56446 0.0
C948 C 0.97689 0.01807 0.46782 0.0
O949 O 0.964 0.03056 0.48133 0.0
O950 O 0.03256 0.95204 0.53639 0.0
O951 O 0.99067 0.98216 0.52109 0.0
O952 O 0.98578 0.01902 0.53413 0.0
C953 C 0.01737 0.93223 0.53396 0.0
O954 O 0.99614 0.93087 0.52127 0.0
O955 O 0.03654 0.00305 0.56525 0.0
C956 C 0.0165 0.08625 0.50431 0.0
O957 O 0.03816 0.08689 0.51596 0.0
O958 O 1.00106 0.06662 0.50211 0.0
O959 O 0.04536 0.03816 0.51589 0.0
O960 O 0.05173 1.00036 0.50898 0.0
O961 O 0.99767 0.01452 0.47684 0.0
C962 C 0.9777 0.99625 0.53084 0.0
C963 C 0.05927 0.02316 0.51 0.0
Zn964 Zn 0.25004 0.77554 0.75356 0.0
Zn965 Zn 0.28516 0.72723 0.77943 0.0
C966 C 0.20218 0.74112 0.73638 0.0
O967 O 0.20226 0.72844 0.75541 0.0
C968 C 0.32467 0.76368 0.80428 0.0
O969 O 0.31086 0.76287 0.82247 0.0
O970 O 0.24496 0.81132 0.75427 0.0
O971 O 0.2527 0.76369 0.78769 0.0
O972 O 0.26629 0.73475 0.80756 0.0
C973 C 0.23957 0.82296 0.77334 0.0
O974 O 0.24079 0.81324 0.79415 0.0
O975 O 0.21903 0.75902 0.73501 0.0
C976 C 0.31507 0.69322 0.76515 0.0
O977 O 0.32438 0.7129 0.75539 0.0
O978 O 0.29651 0.69392 0.77722 0.0
O979 O 0.26464 0.73175 0.74934 0.0
O980 O 0.27428 0.76446 0.73098 0.0
O981 O 0.31647 0.75174 0.78393 0.0
C982 C 0.25577 0.75335 0.80723 0.0
C983 C 0.27527 0.74205 0.73256 0.0
Zn984 Zn 0.53286 0.02019 0.01429 0.0
Zn985 Zn 0.4994 0.98675 0.05812 0.0
C986 C 0.5757 0.05098 0.04296 0.0
O987 O 0.56517 0.04579 0.06277 0.0
C988 C 0.46891 0.95917 0.01638 0.0
O989 O 0.48623 0.94585 0.01567 0.0
O990 O 0.52841 0.01923 0.9778 0.0
O991 O 0.53703 0.98735 0.02471 0.0
O992 O 0.52361 0.96416 0.05274 0.0
C993 C 0.53278 0.00136 0.96421 0.0
O994 O 0.53586 0.98125 0.97391 0.0
O995 O 0.56526 0.04199 0.0222 0.0
C996 C 0.46373 0.99388 0.08725 0.0
O997 O 0.45913 0.00445 0.06739 0.0
O998 O 0.48145 0.98198 0.08826 0.0
O999 O 0.51365 0.02248 0.06493 0.0
O1000 O 0.50832 0.03751 0.02961 0.0
O1001 O 0.4723 0.97871 0.03054 0.0
C1002 C 0.53674 0.96791 0.03519 0.0
C1003 C 0.50703 0.03882 0.05248 0.0
Zn1004 Zn 0.27285 0.23751 0.25605 0.0
Zn1005 Zn 0.2576 0.28373 0.28783 0.0
C1006 C 0.31276 0.25467 0.23067 0.0
O1007 O 0.29442 0.2503 0.21355 0.0
C1008 C 0.22053 0.26252 0.31291 0.0
O1009 O 0.2378 0.27283 0.32984 0.0
O1010 O 0.26951 0.201 0.24677 0.0
O1011 O 0.26748 0.23515 0.29221 0.0
O1012 O 0.2824 0.27154 0.31016 0.0
C1013 C 0.2861 0.19046 0.23823 0.0
O1014 O 0.30333 0.20309 0.2274 0.0
O1015 O 0.30839 0.25154 0.25256 0.0
C1016 C 0.2329 0.32255 0.28843 0.0
O1017 O 0.2206 0.30703 0.27094 0.0
O1018 O 0.2515 0.3168 0.30016 0.0
O1019 O 0.26628 0.28983 0.25418 0.0
O1020 O 0.25199 0.25512 0.23239 0.0
O1021 O 0.22449 0.26332 0.29057 0.0
C1022 C 0.27724 0.24869 0.3112 0.0
C1023 C 0.25721 0.2783 0.23399 0.0
Zn1024 Zn 0.53786 0.49016 0.04493 0.0
Zn1025 Zn 0.5076 0.53752 0.00675 0.0
C1026 C 0.57422 0.49237 0.08256 0.0
O1027 O 0.583 0.4827 0.06343 0.0
C1028 C 0.48041 0.5208 0.9632 0.0
O1029 O 0.46614 0.53205 0.97623 0.0
O1030 O 0.53333 0.45351 0.04094 0.0
O1031 O 0.50388 0.49799 0.03961 0.0
O1032 O 0.4799 0.52186 0.02553 0.0
C1033 C 0.51719 0.44525 0.05461 0.0
O1034 O 0.50706 0.46056 0.06803 0.0
O1035 O 0.5534 0.49895 0.07965 0.0
C1036 C 0.51011 0.57937 0.9806 0.0
O1037 O 0.52023 0.56518 0.96595 0.0
O1038 O 0.50295 0.57191 1.00042 0.0
O1039 O 0.54273 0.54003 0.02299 0.0
O1040 O 0.56072 0.50759 0.02239 0.0
O1041 O 0.50144 0.51879 0.97302 0.0
C1042 C 0.48254 0.50307 0.03621 0.0
C1043 C 0.55987 0.52904 0.01637 0.0
Zn1044 Zn 0.75202 0.28009 0.25695 0.0
Zn1045 Zn 0.78567 0.22997 0.27431 0.0
C1046 C 0.71573 0.27461 0.21776 0.0
O1047 O 0.73042 0.2939 0.2124 0.0
C1048 C 0.8262 0.26401 0.30085 0.0
O1049 O 0.8117 0.26381 0.31846 0.0
O1050 O 0.75078 0.31644 0.26353 0.0
O1051 O 0.75261 0.26776 0.28997 0.0
O1052 O 0.76666 0.23595 0.30334 0.0
C1053 C 0.72994 0.32285 0.26537 0.0
O1054 O 0.71014 0.30622 0.26218 0.0
O1055 O 0.72081 0.26466 0.23699 0.0
C1056 C 0.8125 0.19461 0.25695 0.0
O1057 O 0.81913 0.21312 0.24431 0.0
O1058 O 0.79645 0.19645 0.27196 0.0
O1059 O 0.76829 0.23358 0.24161 0.0
O1060 O 0.77855 0.27227 0.23605 0.0
O1061 O 0.81805 0.25288 0.28011 0.0
C1062 C 0.75598 0.25426 0.30692 0.0
C1063 C 0.77806 0.24993 0.22902 0.0
Zn1064 Zn 0.01788 0.52093 0.49869 0.0
Zn1065 Zn 0.01167 0.5083 0.54881 0.0
C1066 C 0.05678 0.55835 0.5031 0.0
O1067 O 0.03889 0.56662 0.49121 0.0
C1068 C 0.96416 0.47781 0.53969 0.0
O1069 O 0.97091 0.47015 0.56062 0.0
O1070 O 0.01876 0.52279 0.46253 0.0
O1071 O 0.01325 0.4849 0.50259 0.0
O1072 O 0.03596 0.48751 0.53733 0.0
C1073 C 0.01206 0.50434 0.44715 0.0
O1074 O 0.99927 0.48459 0.45403 0.0
O1075 O 0.05238 0.53726 0.51054 0.0
C1076 C 0.99108 0.51705 0.59209 0.0
O1077 O 0.98016 0.53002 0.57723 0.0
O1078 O 0.0071 0.50533 0.58421 0.0
O1079 O 0.01913 0.54435 0.54681 0.0
O1080 O 0.99518 0.54227 0.51298 0.0
O1081 O 0.97834 0.49426 0.53068 0.0
C1082 C 0.02757 0.47589 0.51694 0.0
C1083 C 0.00392 0.55346 0.53354 0.0
Zn1084 Zn 0.78744 0.74448 0.26661 0.0
Zn1085 Zn 0.74172 0.76641 0.28243 0.0
C1086 C 0.76979 0.71608 0.22097 0.0
O1087 O 0.77363 0.69813 0.23396 0.0
C1088 C 0.7612 0.79733 0.32454 0.0
O1089 O 0.75343 0.81273 0.31021 0.0
O1090 O 0.8204 0.73549 0.26264 0.0
O1091 O 0.79405 0.78155 0.27459 0.0
O1092 O 0.75828 0.7871 0.25842 0.0
C1093 C 0.84024 0.7502 0.26883 0.0
O1094 O 0.84059 0.7681 0.28576 0.0
O1095 O 0.77246 0.73754 0.23156 0.0
C1096 C 0.69853 0.76749 0.30479 0.0
O1097 O 0.71054 0.75552 0.31982 0.0
O1098 O 0.70866 0.77536 0.28644 0.0
O1099 O 0.7335 0.73037 0.27416 0.0
O1100 O 0.76866 0.72076 0.28753 0.0
O1101 O 0.75981 0.77526 0.31609 0.0
C1102 C 0.78107 0.79465 0.26326 0.0
C1103 C 0.74549 0.71549 0.28369 0.0
Zn1104 Zn 0.74896 0.26153 0.80177 0.0
Zn1105 Zn 0.7688 0.26764 0.75188 0.0
C1106 C 0.72961 0.21049 0.77895 0.0
O1107 O 0.74681 0.21237 0.76397 0.0
C1108 C 0.80194 0.31028 0.77483 0.0
O1109 O 0.81897 0.29751 0.76951 0.0
O1110 O 0.74544 0.26831 0.8374 0.0
O1111 O 0.78489 0.25937 0.80122 0.0
O1112 O 0.78981 0.24484 0.76413 0.0
C1113 C 0.76489 0.27338 0.85184 0.0
O1114 O 0.78362 0.2878 0.84496 0.0
O1115 O 0.72847 0.22816 0.79451 0.0
C1116 C 0.76829 0.29187 0.70986 0.0
O1117 O 0.75776 0.30583 0.72443 0.0
O1118 O 0.77526 0.27308 0.71764 0.0
O1119 O 0.73246 0.25824 0.75025 0.0
O1120 O 0.73195 0.28401 0.78204 0.0
O1121 O 0.77955 0.30069 0.77031 0.0
C1122 C 0.79721 0.24887 0.78659 0.0
C1123 C 0.72221 0.27394 0.76137 0.0
Zn1124 Zn 0.77003 0.73224 0.75691 0.0
Zn1125 Zn 0.75449 0.77934 0.78295 0.0
C1126 C 0.80995 0.74807 0.73405 0.0
O1127 O 0.79446 0.73452 0.71728 0.0
C1128 C 0.71623 0.76132 0.80799 0.0
O1129 O 0.73337 0.77202 0.82487 0.0
O1130 O 0.77767 0.69909 0.74547 0.0
O1131 O 0.76211 0.72918 0.79183 0.0
O1132 O 0.77745 0.76634 0.80761 0.0
C1133 C 0.77334 0.68041 0.75715 0.0
O1134 O 0.75796 0.68025 0.77397 0.0
O1135 O 0.80322 0.75222 0.75525 0.0
C1136 C 0.73267 0.82023 0.78004 0.0
O1137 O 0.72373 0.80653 0.7599 0.0
O1138 O 0.74869 0.81304 0.79427 0.0
O1139 O 0.76293 0.78247 0.74801 0.0
O1140 O 0.74764 0.74535 0.73202 0.0
O1141 O 0.72067 0.7607 0.78571 0.0
C1142 C 0.77196 0.74369 0.81009 0.0
C1143 C 0.75372 0.76795 0.72954 0.0
Zn1144 Zn 0.53851 0.4947 0.53801 0.0
Zn1145 Zn 0.49015 0.51844 0.50529 0.0
C1146 C 0.51765 0.45531 0.55755 0.0
O1147 O 0.53079 0.46989 0.57525 0.0
C1148 C 0.49611 0.55629 0.47501 0.0
O1149 O 0.48196 0.53881 0.46078 0.0
O1150 O 0.57195 0.48554 0.54701 0.0
O1151 O 0.54269 0.50972 0.50572 0.0
O1152 O 0.5072 0.49562 0.48491 0.0
C1153 C 0.57878 0.47322 0.52916 0.0
O1154 O 0.56471 0.46907 0.50852 0.0
O1155 O 0.51714 0.46163 0.53587 0.0
C1156 C 0.43799 0.51598 0.50862 0.0
O1157 O 0.44227 0.50875 0.53035 0.0
O1158 O 0.45443 0.51641 0.49388 0.0
O1159 O 0.49237 0.51908 0.54203 0.0
O1160 O 0.5249 0.51393 0.56545 0.0
O1161 O 0.5036 0.55198 0.49638 0.0
C1162 C 0.5303 0.5016 0.4856 0.0
C1163 C 0.50321 0.51862 0.5631 0.0
Zn1164 Zn 0.99745 0.52916 0.0419 0.0
Zn1165 Zn 0.04733 0.50348 0.02215 0.0
C1166 C 0.01221 0.56077 0.08298 0.0
O1167 O 0.99967 0.54167 0.0913 0.0
C1168 C 0.02277 0.46355 0.99248 0.0
O1169 O 0.03557 0.47646 0.97762 0.0
O1170 O 0.96214 0.53539 0.04414 0.0
O1171 O 0.00378 0.53036 0.00663 0.0
O1172 O 0.03968 0.5241 0.9949 0.0
C1173 C 0.94575 0.53289 0.02615 0.0
O1174 O 0.94941 0.52115 0.00562 0.0
O1175 O 0.0158 0.55973 0.06052 0.0
C1176 C 0.08184 0.47335 0.03355 0.0
O1177 O 0.06272 0.46446 0.04451 0.0
O1178 O 0.08085 0.49217 0.02205 0.0
O1179 O 0.0453 0.51841 0.05593 0.0
O1180 O 0.00769 0.50169 0.06076 0.0
O1181 O 0.02336 0.47203 0.01459 0.0
C1182 C 0.01872 0.53008 0.99038 0.0
C1183 C 0.03043 0.50577 0.06806 0.0
H1184 H 0.99018 0.20031 0.9601 0.0
H1185 H 0.01644 0.17381 0.89294 0.0
H1186 H 0.0249 0.13698 0.91198 0.0
H1187 H 0.03203 0.17752 0.00262 0.0
H1188 H 0.00914 0.169 0.0231 0.0
H1189 H 0.00689 0.19402 0.00485 0.0
H1190 H 0.96331 0.17342 0.98683 0.0
H1191 H 0.96531 0.14853 0.00524 0.0
H1192 H 0.95864 0.14267 0.97265 0.0
H1193 H 0.03054 0.10338 0.93852 0.0
H1194 H 0.02725 0.07241 0.96797 0.0
H1195 H 0.99462 0.11989 0.01685 0.0
C1196 C 0.99791 0.18683 0.94948 0.0
C1197 C 0.00294 0.18987 0.92519 0.0
C1198 C 0.01253 0.17171 0.91162 0.0
C1199 C 0.01754 0.15089 0.92233 0.0
C1200 C 0.01255 0.14852 0.94646 0.0
C1201 C 0.00254 0.16579 0.95971 0.0
C1202 C 0.99699 0.15803 0.98458 0.0
C1203 C 0.01217 0.1757 0.00499 0.0
C1204 C 0.96943 0.1555 0.98748 0.0
C1205 C 0.0053 0.13356 0.98325 0.0
C1206 C 0.01468 0.12865 0.96131 0.0
C1207 C 0.02324 0.10702 0.95574 0.0
C1208 C 0.0214 0.0896 0.9727 0.0
C1209 C 0.01065 0.09374 0.99475 0.0
C1210 C 0.00301 0.11625 1.00023 0.0
H1211 H 0.08953 0.80433 0.20692 0.0
H1212 H 0.09718 0.75909 0.1412 0.0
H1213 H 0.13736 0.75305 0.15823 0.0
H1214 H 0.15618 0.83269 0.215 0.0
H1215 H 0.15753 0.83434 0.2478 0.0
H1216 H 0.12942 0.83665 0.23018 0.0
H1217 H 0.10688 0.80085 0.25114 0.0
H1218 H 0.13498 0.79819 0.26852 0.0
H1219 H 0.11789 0.7722 0.24976 0.0
H1220 H 0.1738 0.74794 0.18248 0.0
H1221 H 0.20957 0.74883 0.21136 0.0
H1222 H 0.18212 0.79914 0.262 0.0
C1223 C 0.09995 0.79362 0.19598 0.0
C1224 C 0.09006 0.78216 0.1727 0.0
C1225 C 0.10423 0.76819 0.15898 0.0
C1226 C 0.12713 0.7645 0.16853 0.0
C1227 C 0.13602 0.77532 0.19166 0.0
C1228 C 0.12339 0.79013 0.20508 0.0
C1229 C 0.13797 0.79974 0.2294 0.0
C1230 C 0.14573 0.8275 0.23067 0.0
C1231 C 0.12356 0.79228 0.25098 0.0
C1232 C 0.16 0.78692 0.22782 0.0
C1233 C 0.15826 0.77307 0.20573 0.0
C1234 C 0.1757 0.75908 0.19967 0.0
C1235 C 0.19599 0.75975 0.2163 0.0
C1236 C 0.19889 0.77435 0.23885 0.0
C1237 C 0.18042 0.78787 0.2449 0.0
H1238 H 0.50315 0.84574 0.38276 0.0
H1239 H 0.49331 0.79824 0.44101 0.0
H1240 H 0.496 0.83408 0.47076 0.0
H1241 H 0.54761 0.89143 0.41694 0.0
H1242 H 0.53669 0.91625 0.40305 0.0
H1243 H 0.53263 0.88671 0.38636 0.0
H1244 H 0.48593 0.88669 0.37969 0.0
H1245 H 0.48984 0.91614 0.39664 0.0
H1246 H 0.46899 0.89101 0.4057 0.0
H1247 H 0.50013 0.87511 0.49418 0.0
H1248 H 0.50978 0.91844 0.51012 0.0
H1249 H 0.51785 0.93875 0.43658 0.0
C1250 C 0.50145 0.84285 0.40175 0.0
C1251 C 0.49795 0.81922 0.40956 0.0
C1252 C 0.4961 0.81621 0.43462 0.0
C1253 C 0.49741 0.83643 0.45163 0.0
C1254 C 0.50068 0.85947 0.44328 0.0
C1255 C 0.50295 0.86279 0.41898 0.0
C1256 C 0.50777 0.88948 0.41492 0.0
C1257 C 0.53265 0.89636 0.40472 0.0
C1258 C 0.48689 0.89622 0.39825 0.0
C1259 C 0.50809 0.90067 0.44078 0.0
C1260 C 0.50361 0.88308 0.45683 0.0
C1261 C 0.50359 0.88907 0.48179 0.0
C1262 C 0.50897 0.9137 0.49065 0.0
C1263 C 0.51457 0.9319 0.47457 0.0
C1264 C 0.5136 0.92524 0.4493 0.0
H1265 H 0.44368 0.2864 0.6691 0.0
H1266 H 0.4577 0.21332 0.67705 0.0
H1267 H 0.42534 0.20708 0.70532 0.0
H1268 H 0.43156 0.30002 0.7321 0.0
H1269 H 0.40767 0.31705 0.72409 0.0
H1270 H 0.43233 0.31602 0.705 0.0
H1271 H 0.40107 0.29984 0.66763 0.0
H1272 H 0.37638 0.30109 0.68658 0.0
H1273 H 0.37872 0.27297 0.66935 0.0
H1274 H 0.39084 0.2084 0.73134 0.0
H1275 H 0.35515 0.21654 0.75245 0.0
H1276 H 0.36426 0.28924 0.72823 0.0
C1277 C 0.43976 0.26914 0.67684 0.0
C1278 C 0.45271 0.25018 0.67102 0.0
C1279 C 0.44758 0.22785 0.68139 0.0
C1280 C 0.42942 0.22424 0.69748 0.0
C1281 C 0.41689 0.24329 0.70305 0.0
C1282 C 0.42178 0.2653 0.69305 0.0
C1283 C 0.40524 0.28254 0.70164 0.0
C1284 C 0.42009 0.30525 0.7166 0.0
C1285 C 0.38941 0.2895 0.68001 0.0
C1286 C 0.39 0.26661 0.7176 0.0
C1287 C 0.39715 0.24413 0.71833 0.0
C1288 C 0.38516 0.22599 0.73109 0.0
C1289 C 0.36495 0.2308 0.74304 0.0
C1290 C 0.35698 0.25353 0.74204 0.0
C1291 C 0.37002 0.27176 0.72953 0.0
H1292 H 0.00287 0.80444 0.59305 0.0
H1293 H 0.03517 0.84693 0.66058 0.0
H1294 H 0.03923 0.88401 0.63953 0.0
H1295 H 0.041 0.83918 0.5533 0.0
H1296 H 0.01692 0.8375 0.52907 0.0
H1297 H 0.01643 0.81349 0.54906 0.0
H1298 H 0.97315 0.81928 0.55985 0.0
H1299 H 0.97346 0.84321 0.53981 0.0
H1300 H 0.9681 0.84896 0.57132 0.0
H1301 H 0.04085 0.91615 0.61242 0.0
H1302 H 0.03731 0.94331 0.58009 0.0
H1303 H 0.00307 0.882 0.52919 0.0
C1304 C 0.01073 0.82155 0.60338 0.0
C1305 C 0.01874 0.82261 0.62851 0.0
C1306 C 0.02894 0.84544 0.64135 0.0
C1307 C 0.03139 0.86671 0.62956 0.0
C1308 C 0.02356 0.86501 0.6049 0.0
C1309 C 0.0133 0.84319 0.59186 0.0
C1310 C 0.00626 0.84696 0.56543 0.0
C1311 C 0.02103 0.83348 0.5482 0.0
C1312 C 0.97859 0.83914 0.55872 0.0
C1313 C 0.01384 0.87434 0.56596 0.0
C1314 C 0.02411 0.88412 0.58893 0.0
C1315 C 0.03296 0.90877 0.59431 0.0
C1316 C 0.03113 0.92402 0.57574 0.0
C1317 C 0.02044 0.91471 0.55207 0.0
C1318 C 0.01151 0.88952 0.5471 0.0
H1319 H 0.44567 0.80479 0.89375 0.0
H1320 H 0.48084 0.76567 0.83996 0.0
H1321 H 0.44444 0.7622 0.81064 0.0
H1322 H 0.38905 0.76577 0.88075 0.0
H1323 H 0.37053 0.78891 0.88625 0.0
H1324 H 0.40084 0.79233 0.90152 0.0
H1325 H 0.41248 0.8342 0.88409 0.0
H1326 H 0.38185 0.83062 0.86927 0.0
H1327 H 0.40773 0.83599 0.85166 0.0
H1328 H 0.40475 0.76203 0.78753 0.0
H1329 H 0.36058 0.75582 0.77519 0.0
H1330 H 0.34872 0.79102 0.84513 0.0
C1331 C 0.44577 0.7961 0.87555 0.0
C1332 C 0.46654 0.78699 0.86834 0.0
C1333 C 0.46561 0.77416 0.84512 0.0
C1334 C 0.44502 0.77204 0.82839 0.0
C1335 C 0.42521 0.78222 0.83549 0.0
C1336 C 0.42504 0.79336 0.85873 0.0
C1337 C 0.39988 0.79902 0.86288 0.0
C1338 C 0.38946 0.78571 0.88409 0.0
C1339 C 0.40055 0.8266 0.86724 0.0
C1340 C 0.38595 0.78884 0.83856 0.0
C1341 C 0.40119 0.78004 0.8228 0.0
C1342 C 0.39256 0.76889 0.79963 0.0
C1343 C 0.36742 0.76553 0.79276 0.0
C1344 C 0.35117 0.7728 0.80925 0.0
C1345 C 0.36071 0.78537 0.8321 0.0
H1346 H 0.50187 0.1803 0.07524 0.0
H1347 H 0.472 0.16497 0.14346 0.0
H1348 H 0.47015 0.12085 0.13273 0.0
H1349 H 0.47077 0.12457 0.03587 0.0
H1350 H 0.49822 0.12283 0.02129 0.0
H1351 H 0.49219 0.15202 0.03288 0.0
H1352 H 0.53486 0.15888 0.05775 0.0
H1353 H 0.53959 0.1289 0.0471 0.0
H1354 H 0.54121 0.13764 0.07936 0.0
H1355 H 0.47627 0.07935 0.11705 0.0
H1356 H 0.48768 0.04276 0.09622 0.0
H1357 H 0.51344 0.0849 0.03794 0.0
C1358 C 0.49402 0.1675 0.08737 0.0
C1359 C 0.48626 0.17571 0.10977 0.0
C1360 C 0.47745 0.15876 0.12598 0.0
C1361 C 0.47637 0.13377 0.12005 0.0
C1362 C 0.48468 0.1262 0.09806 0.0
C1363 C 0.49327 0.14253 0.08189 0.0
C1364 C 0.50393 0.12993 0.061 0.0
C1365 C 0.49042 0.13254 0.0363 0.0
C1366 C 0.53153 0.1394 0.06134 0.0
C1367 C 0.4992 0.10394 0.06749 0.0
C1368 C 0.48844 0.10222 0.08911 0.0
C1369 C 0.48412 0.08037 0.09978 0.0
C1370 C 0.49061 0.05967 0.0878 0.0
C1371 C 0.50068 0.06084 0.0651 0.0
C1372 C 0.50508 0.08332 0.05491 0.0
H1373 H 0.09462 0.29794 0.34204 0.0
H1374 H 0.09602 0.25269 0.40246 0.0
H1375 H 0.13236 0.23794 0.38802 0.0
H1376 H 0.11254 0.2554 0.29722 0.0
H1377 H 0.13092 0.27877 0.2828 0.0
H1378 H 0.10475 0.28547 0.29759 0.0
H1379 H 0.13208 0.32115 0.32471 0.0
H1380 H 0.15813 0.31486 0.30962 0.0
H1381 H 0.15896 0.31555 0.34236 0.0
H1382 H 0.16984 0.23008 0.36847 0.0
H1383 H 0.20731 0.23202 0.34693 0.0
H1384 H 0.17986 0.28029 0.29798 0.0
C1385 C 0.10254 0.28501 0.35241 0.0
C1386 C 0.09241 0.27656 0.3735 0.0
C1387 C 0.10345 0.25956 0.38634 0.0
C1388 C 0.12398 0.25091 0.37816 0.0
C1389 C 0.13309 0.25925 0.35701 0.0
C1390 C 0.12283 0.27606 0.34441 0.0
C1391 C 0.13657 0.2828 0.32268 0.0
C1392 C 0.12022 0.27514 0.29865 0.0
C1393 C 0.14707 0.3102 0.325 0.0
C1394 C 0.15659 0.26755 0.32531 0.0
C1395 C 0.15414 0.25394 0.34513 0.0
C1396 C 0.17168 0.24021 0.35263 0.0
C1397 C 0.19277 0.24125 0.34022 0.0
C1398 C 0.19589 0.25561 0.32039 0.0
C1399 C 0.17727 0.26829 0.31237 0.0
H1400 H 0.91411 0.01628 0.16425 0.0
H1401 H 0.96611 0.98911 0.21331 0.0
H1402 H 0.9957 0.99179 0.18249 0.0
H1403 H 0.92878 0.98659 0.10791 0.0
H1404 H 0.92639 0.01211 0.09042 0.0
H1405 H 0.90868 0.00757 0.11605 0.0
H1406 H 0.92716 0.05104 0.13507 0.0
H1407 H 0.94515 0.05576 0.10964 0.0
H1408 H 0.95992 0.05979 0.14026 0.0
H1409 H 0.02012 0.99732 0.14674 0.0
H1410 H 0.03704 0.00429 0.10736 0.0
H1411 H 0.97076 0.0297 0.08157 0.0
C1412 C 0.93164 0.01071 0.16831 0.0
C1413 C 0.93777 0.00244 0.19122 0.0
C1414 C 0.96104 0.99564 0.19598 0.0
C1415 C 0.97803 0.99707 0.17857 0.0
C1416 C 0.97175 0.00568 0.1564 0.0
C1417 C 0.94917 0.01245 0.15114 0.0
C1418 C 0.94758 0.02169 0.12599 0.0
C1419 C 0.92662 0.00605 0.1091 0.0
C1420 C 0.94478 0.04867 0.12785 0.0
C1421 C 0.97246 0.01843 0.11791 0.0
C1422 C 0.98615 0.00933 0.13582 0.0
C1423 C 0.00962 0.00457 0.13257 0.0
C1424 C 0.01919 0.00876 0.1102 0.0
C1425 C 0.00529 0.01753 0.09128 0.0
C1426 C 0.98179 0.02279 0.09552 0.0
H1427 H 0.26778 0.64302 0.43134 0.0
H1428 H 0.26903 0.7006 0.48914 0.0
H1429 H 0.2631 0.72932 0.45821 0.0
H1430 H 0.30011 0.68074 0.38965 0.0
H1431 H 0.28207 0.66423 0.3632 0.0
H1432 H 0.28755 0.649 0.39012 0.0
H1433 H 0.2407 0.63601 0.39098 0.0
H1434 H 0.23519 0.65162 0.36434 0.0
H1435 H 0.22139 0.65896 0.39178 0.0
H1436 H 0.25412 0.75102 0.42029 0.0
H1437 H 0.24793 0.76462 0.3788 0.0
H1438 H 0.2533 0.69244 0.34721 0.0
C1439 C 0.26712 0.66173 0.43758 0.0
C1440 C 0.26884 0.66954 0.46266 0.0
C1441 C 0.26792 0.69422 0.47 0.0
C1442 C 0.26437 0.71063 0.45258 0.0
C1443 C 0.26199 0.70207 0.42798 0.0
C1444 C 0.26372 0.67827 0.42055 0.0
C1445 C 0.26063 0.67343 0.39312 0.0
C1446 C 0.28398 0.66646 0.38346 0.0
C1447 C 0.23814 0.65385 0.38458 0.0
C1448 C 0.25665 0.69817 0.38623 0.0
C1449 C 0.2573 0.71449 0.40647 0.0
C1450 C 0.25371 0.73842 0.40431 0.0
C1451 C 0.24999 0.74593 0.38077 0.0
C1452 C 0.25017 0.72955 0.35997 0.0
C1453 C 0.2532 0.70537 0.36286 0.0
H1454 H 0.61524 0.9778 0.68263 0.0
H1455 H 0.56409 0.00321 0.72977 0.0
H1456 H 0.53765 0.00981 0.69388 0.0
H1457 H 0.61063 0.01702 0.63663 0.0
H1458 H 0.61051 0.99466 0.61125 0.0
H1459 H 0.62531 0.99092 0.64056 0.0
H1460 H 0.5987 0.94835 0.64034 0.0
H1461 H 0.58398 0.95198 0.61089 0.0
H1462 H 0.56585 0.94529 0.63589 0.0
H1463 H 0.51876 0.01753 0.6535 0.0
H1464 H 0.50618 0.02163 0.61037 0.0
H1465 H 0.56698 0.98759 0.58881 0.0
C1466 C 0.59827 0.98434 0.68525 0.0
C1467 C 0.59159 0.98986 0.70891 0.0
C1468 C 0.56932 0.99849 0.71176 0.0
C1469 C 0.55423 0.00246 0.69151 0.0
C1470 C 0.56131 0.99708 0.66843 0.0
C1471 C 0.58245 0.98764 0.66508 0.0
C1472 C 0.58527 0.98291 0.63812 0.0
C1473 C 0.60936 0.99725 0.63125 0.0
C1474 C 0.58333 0.95551 0.63089 0.0
C1475 C 0.56321 0.99245 0.6271 0.0
C1476 C 0.5496 1.00044 0.64491 0.0
C1477 C 0.529 0.01094 0.63929 0.0
C1478 C 0.522 0.0132 0.61473 0.0
C1479 C 0.53552 0.00492 0.59607 0.0
C1480 C 0.55627 0.99423 0.6025 0.0
H1481 H 0.27029 0.33289 0.98209 0.0
H1482 H 0.27684 0.40236 0.9507 0.0
H1483 H 0.27711 0.38161 0.91016 0.0
H1484 H 0.30847 0.30497 0.94252 0.0
H1485 H 0.28955 0.27531 0.93913 0.0
H1486 H 0.29013 0.29522 0.96653 0.0
H1487 H 0.24305 0.29213 0.96017 0.0
H1488 H 0.24232 0.27194 0.93298 0.0
H1489 H 0.22917 0.29927 0.93159 0.0
H1490 H 0.27814 0.35461 0.87321 0.0
H1491 H 0.27413 0.32154 0.84041 0.0
H1492 H 0.26497 0.2684 0.89373 0.0
C1493 C 0.27167 0.3437 0.96668 0.0
C1494 C 0.27379 0.36939 0.9699 0.0
C1495 C 0.27534 0.38274 0.94906 0.0
C1496 C 0.27563 0.37114 0.9258 0.0
C1497 C 0.27406 0.34603 0.92334 0.0
C1498 C 0.27166 0.33231 0.94301 0.0
C1499 C 0.26929 0.30537 0.93471 0.0
C1500 C 0.29063 0.29459 0.94643 0.0
C1501 C 0.24448 0.29135 0.94019 0.0
C1502 C 0.27077 0.30632 0.90741 0.0
C1503 C 0.27384 0.33006 0.90145 0.0
C1504 C 0.27561 0.3359 0.87757 0.0
C1505 C 0.27338 0.31693 0.85905 0.0
C1506 C 0.26917 0.2923 0.86439 0.0
C1507 C 0.26837 0.287 0.88903 0.0
H1508 H 0.89772 0.02592 0.3427 0.0
H1509 H 0.93396 0.97027 0.30981 0.0
H1510 H 0.95833 0.96929 0.3491 0.0
H1511 H 0.95338 0.05752 0.38021 0.0
H1512 H 0.93655 0.0661 0.40508 0.0
H1513 H 0.9224 0.06266 0.37422 0.0
H1514 H 0.88664 0.03167 0.38658 0.0
H1515 H 0.9007 0.03491 0.41742 0.0
H1516 H 0.89318 0.0052 0.40083 0.0
H1517 H 0.97781 0.97355 0.39257 0.0
H1518 H 0.9918 0.98389 0.43646 0.0
H1519 H 0.94335 0.0373 0.44025 0.0
C1520 C 0.91083 0.01359 0.34386 0.0
C1521 C 0.91397 0.99808 0.32342 0.0
C1522 C 0.93146 0.98238 0.32536 0.0
C1523 C 0.94532 0.98166 0.34756 0.0
C1524 C 0.94179 0.99713 0.36748 0.0
C1525 C 0.92524 0.01307 0.36574 0.0
C1526 C 0.92541 0.02822 0.38968 0.0
C1527 C 0.935 0.05522 0.38714 0.0
C1528 C 0.89997 0.02477 0.39918 0.0
C1529 C 0.94352 0.01732 0.4055 0.0
C1530 C 0.95312 0.99971 0.39232 0.0
C1531 C 0.97046 0.98736 0.40308 0.0
C1532 C 0.97827 0.99329 0.42797 0.0
C1533 C 0.96846 0.01115 0.44179 0.0
C1534 C 0.9509 0.02325 0.43029 0.0
H1535 H 0.29478 0.70257 0.59482 0.0
H1536 H 0.28466 0.62837 0.61489 0.0
H1537 H 0.28698 0.64373 0.65824 0.0
H1538 H 0.33588 0.73113 0.65046 0.0
H1539 H 0.32166 0.75791 0.65182 0.0
H1540 H 0.32349 0.74152 0.62278 0.0
H1541 H 0.27651 0.73713 0.61353 0.0
H1542 H 0.27453 0.75333 0.64253 0.0
H1543 H 0.25676 0.7234 0.63477 0.0
H1544 H 0.28358 0.6659 0.69755 0.0
H1545 H 0.27551 0.69353 0.73125 0.0
H1546 H 0.28942 0.75457 0.68747 0.0
C1547 C 0.29386 0.68961 0.60843 0.0
C1548 C 0.28981 0.66425 0.60155 0.0
C1549 C 0.28794 0.64783 0.61978 0.0
C1550 C 0.28931 0.6564 0.64444 0.0
C1551 C 0.29262 0.68145 0.65057 0.0
C1552 C 0.29503 0.69789 0.63317 0.0
C1553 C 0.29584 0.72369 0.6445 0.0
C1554 C 0.3207 0.7395 0.64226 0.0
C1555 C 0.27465 0.73504 0.63316 0.0
C1556 C 0.29262 0.71906 0.67084 0.0
C1557 C 0.2911 0.69455 0.67384 0.0
C1558 C 0.28557 0.68521 0.69566 0.0
C1559 C 0.28119 0.70121 0.71485 0.0
C1560 C 0.28286 0.7265 0.71253 0.0
C1561 C 0.28889 0.73553 0.69018 0.0
H1562 H 0.6086 0.97579 0.85193 0.0
H1563 H 0.61097 0.05156 0.8393 0.0
H1564 H 0.58218 0.05591 0.87068 0.0
H1565 H 0.54458 0.96234 0.86482 0.0
H1566 H 0.5508 0.94355 0.88886 0.0
H1567 H 0.56977 0.94577 0.86391 0.0
H1568 H 0.60835 0.95952 0.89446 0.0
H1569 H 0.5895 0.95706 0.91943 0.0
H1570 H 0.60934 0.98532 0.91645 0.0
H1571 H 0.55461 0.05237 0.90409 0.0
H1572 H 0.53385 0.04283 0.94076 0.0
H1573 H 0.55052 0.96953 0.93282 0.0
C1574 C 0.60282 0.99317 0.85578 0.0
C1575 C 0.61166 0.01337 0.84342 0.0
C1576 C 0.6042 0.036 0.84883 0.0
C1577 C 0.58778 0.03854 0.8664 0.0
C1578 C 0.57924 0.01828 0.87838 0.0
C1579 C 0.58672 0.99611 0.87356 0.0
C1580 C 0.57644 0.97784 0.89049 0.0
C1581 C 0.55938 0.95609 0.87615 0.0
C1582 C 0.59713 0.96946 0.90614 0.0
C1583 C 0.56226 0.99329 0.90574 0.0
C1584 C 0.56379 0.01642 0.89817 0.0
C1585 C 0.55313 0.03429 0.91012 0.0
C1586 C 0.5413 0.02864 0.9309 0.0
C1587 C 0.54051 0.00541 0.93967 0.0
C1588 C 0.55055 0.98735 0.92645 0.0
H1589 H 0.26681 0.31871 0.097 0.0
H1590 H 0.26668 0.39188 0.12958 0.0
H1591 H 0.25897 0.37577 0.16892 0.0
H1592 H 0.21967 0.28723 0.13248 0.0
H1593 H 0.23487 0.26144 0.13606 0.0
H1594 H 0.2384 0.27801 0.1095 0.0
H1595 H 0.28545 0.28503 0.11899 0.0
H1596 H 0.28206 0.26845 0.14552 0.0
H1597 H 0.29893 0.29904 0.14852 0.0
H1598 H 0.25269 0.35309 0.20464 0.0
H1599 H 0.25157 0.32534 0.23673 0.0
H1600 H 0.25695 0.26546 0.18347 0.0
C1601 C 0.26486 0.33124 0.11238 0.0
C1602 C 0.2672 0.35665 0.1101 0.0
C1603 C 0.26496 0.37245 0.13078 0.0
C1604 C 0.26045 0.36344 0.15322 0.0
C1605 C 0.25836 0.33848 0.15495 0.0
C1606 C 0.26066 0.32251 0.13526 0.0
C1607 C 0.25913 0.29667 0.14292 0.0
C1608 C 0.23668 0.27984 0.12943 0.0
C1609 C 0.2828 0.28672 0.13874 0.0
C1610 C 0.25611 0.30085 0.17006 0.0
C1611 C 0.25533 0.32513 0.17625 0.0
C1612 C 0.25324 0.33403 0.20003 0.0
C1613 C 0.25261 0.31798 0.21819 0.0
C1614 C 0.25421 0.29307 0.21285 0.0
C1615 C 0.25545 0.28427 0.18822 0.0
H1616 H 0.19398 0.91063 0.03416 0.0
H1617 H 0.1912 0.90158 0.9552 0.0
H1618 H 0.15338 0.91904 0.95196 0.0
H1619 H 0.12579 0.89826 0.03711 0.0
H1620 H 0.12714 0.92083 0.06253 0.0
H1621 H 0.15241 0.90475 0.05894 0.0
H1622 H 0.18167 0.94595 0.06013 0.0
H1623 H 0.15647 0.96215 0.06326 0.0
H1624 H 0.17547 0.96732 0.0386 0.0
H1625 H 0.11861 0.93987 0.95649 0.0
H1626 H 0.08575 0.96142 0.96874 0.0
H1627 H 0.11035 0.95915 0.045 0.0
C1628 C 0.18485 0.91162 0.01629 0.0
C1629 C 0.19524 0.90456 0.99489 0.0
C1630 C 0.18334 0.90676 0.97175 0.0
C1631 C 0.16191 0.91668 0.96972 0.0
C1632 C 0.15258 0.92434 0.99103 0.0
C1633 C 0.16332 0.92172 0.01391 0.0
C1634 C 0.14986 0.93275 0.0337 0.0
C1635 C 0.13811 0.91297 0.04897 0.0
C1636 C 0.16689 0.95326 0.04987 0.0
C1637 C 0.13051 0.94261 0.01825 0.0
C1638 C 0.1324 0.93719 0.99371 0.0
C1639 C 0.11677 0.94409 0.97564 0.0
C1640 C 0.09824 0.95639 0.98278 0.0
C1641 C 0.09568 0.96202 0.00776 0.0
C1642 C 0.11219 0.95532 0.02578 0.0
H1643 H 0.70343 0.57698 0.00998 0.0
H1644 H 0.68201 0.63378 0.96826 0.0
H1645 H 0.63856 0.61485 0.96755 0.0
H1646 H 0.65348 0.52503 0.9843 0.0
H1647 H 0.65117 0.5144 0.014 0.0
H1648 H 0.68005 0.53016 0.00647 0.0
H1649 H 0.68021 0.55995 0.04528 0.0
H1650 H 0.65046 0.54469 0.05106 0.0
H1651 H 0.65539 0.57685 0.04769 0.0
H1652 H 0.59745 0.59281 0.97536 0.0
H1653 H 0.56143 0.56767 0.98921 0.0
H1654 H 0.60854 0.52444 0.02579 0.0
C1655 C 0.68959 0.5848 0.9999 0.0
C1656 C 0.69606 0.60642 0.98842 0.0
C1657 C 0.67742 0.61695 0.97662 0.0
C1658 C 0.65272 0.60634 0.97618 0.0
C1659 C 0.64682 0.58537 0.98809 0.0
C1660 C 0.66469 0.57458 0.99966 0.0
C1661 C 0.65314 0.55371 0.01336 0.0
C1662 C 0.65993 0.5294 0.00393 0.0
C1663 C 0.66022 0.55914 0.04098 0.0
C1664 C 0.62612 0.55405 0.00707 0.0
C1665 C 0.62294 0.57267 0.99274 0.0
C1666 C 0.59975 0.5778 0.98606 0.0
C1667 C 0.57933 0.56336 0.99394 0.0
C1668 C 0.58195 0.5436 0.00789 0.0
C1669 C 0.60579 0.53894 0.01451 0.0
H1670 H 0.66066 0.43687 0.28181 0.0
H1671 H 0.71348 0.46299 0.34439 0.0
H1672 H 0.73437 0.42823 0.33615 0.0
H1673 H 0.65647 0.37251 0.29051 0.0
H1674 H 0.65382 0.36318 0.25828 0.0
H1675 H 0.64287 0.39031 0.26904 0.0
H1676 H 0.6703 0.41502 0.2408 0.0
H1677 H 0.68167 0.38802 0.23032 0.0
H1678 H 0.70273 0.41466 0.24341 0.0
H1679 H 0.75205 0.39267 0.31928 0.0
H1680 H 0.76019 0.35384 0.29959 0.0
H1681 H 0.69415 0.34819 0.25069 0.0
C1682 C 0.67639 0.43512 0.29401 0.0
C1683 C 0.68538 0.45293 0.3137 0.0
C1684 C 0.70612 0.4498 0.32913 0.0
C1685 C 0.71831 0.43013 0.32453 0.0
C1686 C 0.70949 0.41342 0.30459 0.0
C1687 C 0.68869 0.41531 0.2899 0.0
C1688 C 0.68276 0.39431 0.27006 0.0
C1689 C 0.65748 0.37918 0.27212 0.0
C1690 C 0.68447 0.40356 0.24465 0.0
C1691 C 0.70323 0.38021 0.27625 0.0
C1692 C 0.71886 0.39197 0.29578 0.0
C1693 C 0.73977 0.38311 0.30415 0.0
C1694 C 0.74436 0.36118 0.29277 0.0
C1695 C 0.72767 0.348 0.27389 0.0
C1696 C 0.70708 0.35787 0.26528 0.0
H1697 H 0.82167 0.42713 0.52973 0.0
H1698 H 0.83322 0.37887 0.46825 0.0
H1699 H 0.87559 0.40108 0.46836 0.0
H1700 H 0.8645 0.48424 0.51971 0.0
H1701 H 0.87345 0.48888 0.55191 0.0
H1702 H 0.84308 0.47343 0.54093 0.0
H1703 H 0.85297 0.43804 0.56692 0.0
H1704 H 0.88384 0.4535 0.57511 0.0
H1705 H 0.87833 0.42314 0.55996 0.0
H1706 H 0.91694 0.42841 0.4758 0.0
H1707 H 0.95625 0.45248 0.4949 0.0
H1708 H 0.91941 0.47726 0.55584 0.0
C1709 C 0.83295 0.42191 0.5158 0.0
C1710 C 0.82403 0.4023 0.49807 0.0
C1711 C 0.83964 0.39457 0.48126 0.0
C1712 C 0.86361 0.40708 0.48119 0.0
C1713 C 0.87194 0.42654 0.49883 0.0
C1714 C 0.85726 0.43347 0.51626 0.0
C1715 C 0.87189 0.45149 0.53608 0.0
C1716 C 0.86261 0.47594 0.53721 0.0
C1717 C 0.87175 0.4409 0.56097 0.0
C1718 C 0.89696 0.45392 0.52686 0.0
C1719 C 0.89649 0.43995 0.50499 0.0
C1720 C 0.91752 0.43941 0.49292 0.0
C1721 C 0.93967 0.45315 0.50377 0.0
C1722 C 0.94056 0.46658 0.52667 0.0
C1723 C 0.91898 0.46712 0.53823 0.0
H1724 H 0.3669 0.08805 0.26338 0.0
H1725 H 0.3239 0.07173 0.32415 0.0
H1726 H 0.29841 0.10195 0.31298 0.0
H1727 H 0.36586 0.15315 0.26855 0.0
H1728 H 0.36369 0.1548 0.236 0.0
H1729 H 0.37886 0.13214 0.2492 0.0
H1730 H 0.35009 0.09853 0.22083 0.0
H1731 H 0.33448 0.12107 0.20794 0.0
H1732 H 0.31744 0.09607 0.22134 0.0
H1733 H 0.27619 0.13237 0.29427 0.0
H1734 H 0.26282 0.16584 0.27313 0.0
H1735 H 0.32036 0.16304 0.2248 0.0
C1736 C 0.3524 0.09109 0.27461 0.0
C1737 C 0.34748 0.07739 0.29466 0.0
C1738 C 0.32813 0.0819 0.3087 0.0
C1739 C 0.31338 0.09894 0.30241 0.0
C1740 C 0.31819 0.11146 0.28208 0.0
C1741 C 0.33748 0.10812 0.26864 0.0
C1742 C 0.33887 0.12432 0.24786 0.0
C1743 C 0.36326 0.14216 0.25058 0.0
C1744 C 0.33499 0.10908 0.22303 0.0
C1745 C 0.31747 0.13737 0.25189 0.0
C1746 C 0.30558 0.12941 0.27151 0.0
C1747 C 0.2854 0.13887 0.27893 0.0
C1748 C 0.27778 0.15774 0.26662 0.0
C1749 C 0.29048 0.16711 0.24723 0.0
C1750 C 0.31016 0.15624 0.23943 0.0
H1751 H 0.32887 0.08877 0.46743 0.0
H1752 H 0.32926 0.13003 0.53742 0.0
H1753 H 0.3673 0.116 0.55193 0.0
H1754 H 0.34998 0.03753 0.4895 0.0
H1755 H 0.36899 0.03312 0.46516 0.0
H1756 H 0.34233 0.04713 0.45986 0.0
H1757 H 0.369 0.08475 0.44538 0.0
H1758 H 0.39564 0.07062 0.45027 0.0
H1759 H 0.39524 0.10051 0.46486 0.0
H1760 H 0.40413 0.09477 0.55984 0.0
H1761 H 0.439 0.07224 0.55846 0.0
H1762 H 0.41503 0.0464 0.4831 0.0
C1763 C 0.33709 0.09516 0.48571 0.0
C1764 C 0.32597 0.11059 0.50123 0.0
C1765 C 0.33744 0.11842 0.52504 0.0
C1766 C 0.359 0.11039 0.53354 0.0
C1767 C 0.36912 0.09472 0.51797 0.0
C1768 C 0.35875 0.08755 0.49439 0.0
C1769 C 0.37332 0.07083 0.48119 0.0
C1770 C 0.35772 0.04566 0.47348 0.0
C1771 C 0.38394 0.08237 0.45913 0.0
C1772 C 0.3933 0.06943 0.50111 0.0
C1773 C 0.39051 0.08315 0.52227 0.0
C1774 C 0.40655 0.08411 0.54327 0.0
C1775 C 0.42619 0.07111 0.54241 0.0
C1776 C 0.42977 0.0576 0.52061 0.0
C1777 C 0.41291 0.05669 0.49989 0.0
H1778 H 0.70969 0.57321 0.30012 0.0
H1779 H 0.64263 0.59043 0.32638 0.0
H1780 H 0.65808 0.63423 0.32532 0.0
H1781 H 0.75301 0.62872 0.33002 0.0
H1782 H 0.76968 0.63119 0.30354 0.0
H1783 H 0.75527 0.6017 0.31055 0.0
H1784 H 0.7324 0.59478 0.26733 0.0
H1785 H 0.74626 0.62465 0.26074 0.0
H1786 H 0.71342 0.61621 0.25771 0.0
H1787 H 0.6773 0.67474 0.31565 0.0
H1788 H 0.70136 0.71103 0.30177 0.0
H1789 H 0.75754 0.66931 0.28287 0.0
C1790 C 0.69885 0.58636 0.30669 0.0
C1791 C 0.6753 0.57865 0.31413 0.0
C1792 C 0.66092 0.59613 0.32122 0.0
C1793 C 0.66953 0.62099 0.32062 0.0
C1794 C 0.69249 0.62806 0.31258 0.0
C1795 C 0.70717 0.61138 0.30598 0.0
C1796 C 0.72992 0.6239 0.29553 0.0
C1797 C 0.75335 0.62117 0.31088 0.0
C1798 C 0.73052 0.61431 0.26874 0.0
C1799 C 0.7258 0.65011 0.29761 0.0
C1800 C 0.70391 0.65193 0.30721 0.0
C1801 C 0.69484 0.67369 0.30885 0.0
C1802 C 0.70869 0.69425 0.30092 0.0
C1803 C 0.73169 0.69321 0.29199 0.0
C1804 C 0.74038 0.67079 0.29035 0.0
H1805 H 0.89352 0.43626 0.80758 0.0
H1806 H 0.83614 0.46947 0.77309 0.0
H1807 H 0.80785 0.43044 0.7699 0.0
H1808 H 0.87909 0.38199 0.76722 0.0
H1809 H 0.88672 0.36203 0.78968 0.0
H1810 H 0.90158 0.39332 0.79258 0.0
H1811 H 0.8873 0.3994 0.83606 0.0
H1812 H 0.87291 0.36788 0.833 0.0
H1813 H 0.85528 0.39136 0.84016 0.0
H1814 H 0.78562 0.38877 0.77102 0.0
H1815 H 0.77302 0.34428 0.76715 0.0
H1816 H 0.84589 0.33602 0.79597 0.0
C1817 C 0.87484 0.43525 0.79983 0.0
C1818 C 0.86634 0.45611 0.7921 0.0
C1819 C 0.84237 0.45398 0.78057 0.0
C1820 C 0.82624 0.43189 0.77857 0.0
C1821 C 0.83467 0.41189 0.78744 0.0
C1822 C 0.85858 0.41307 0.79715 0.0
C1823 C 0.86371 0.38799 0.80209 0.0
C1824 C 0.88397 0.38092 0.78698 0.0
C1825 C 0.87019 0.38659 0.82946 0.0
C1826 C 0.83902 0.37265 0.79338 0.0
C1827 C 0.8224 0.387 0.78574 0.0
C1828 C 0.79844 0.37724 0.77684 0.0
C1829 C 0.79143 0.35196 0.77483 0.0
C1830 C 0.80852 0.33675 0.78117 0.0
C1831 C 0.83248 0.34727 0.79099 0.0
H1832 H 0.03618 0.82752 0.08822 0.0
H1833 H 0.96914 0.82858 0.12274 0.0
H1834 H 0.96418 0.86711 0.10514 0.0
H1835 H 0.0589 0.89112 0.09611 0.0
H1836 H 0.07081 0.89201 0.06673 0.0
H1837 H 0.06833 0.8645 0.08182 0.0
H1838 H 0.04239 0.84115 0.04353 0.0
H1839 H 0.04432 0.86884 0.0286 0.0
H1840 H 0.01486 0.85134 0.03217 0.0
H1841 H 0.96745 0.90611 0.08505 0.0
H1842 H 0.9808 0.94465 0.0668 0.0
H1843 H 0.04492 0.91741 0.04455 0.0
C1844 C 0.02067 0.83613 0.09219 0.0
C1845 C 0.0032 0.82563 0.107 0.0
C1846 C 0.98277 0.83679 0.11157 0.0
C1847 C 0.97972 0.85846 0.10151 0.0
C1848 C 0.99706 0.86831 0.08659 0.0
C1849 C 0.01719 0.85758 0.08202 0.0
C1850 C 0.03335 0.8721 0.06574 0.0
C1851 C 0.05937 0.88044 0.07837 0.0
C1852 C 0.03374 0.85748 0.04105 0.0
C1853 C 0.0198 0.89324 0.06285 0.0
C1854 C 0.9986 0.89046 0.07453 0.0
C1855 C 0.98375 0.90832 0.07545 0.0
C1856 C 0.99126 0.92998 0.06487 0.0
C1857 C 0.01339 0.93339 0.05378 0.0
C1858 C 0.02751 0.91468 0.0523 0.0
H1859 H 0.91341 0.26181 0.88317 0.0
H1860 H 0.94949 0.22567 0.82798 0.0
H1861 H 0.91192 0.2204 0.79948 0.0
H1862 H 0.85439 0.22164 0.86824 0.0
H1863 H 0.83685 0.24537 0.87484 0.0
H1864 H 0.8666 0.24656 0.89087 0.0
H1865 H 0.87637 0.29388 0.84453 0.0
H1866 H 0.88188 0.28974 0.87645 0.0
H1867 H 0.85113 0.2882 0.86275 0.0
H1868 H 0.8715 0.22217 0.7762 0.0
H1869 H 0.82982 0.22751 0.76096 0.0
H1870 H 0.8196 0.25964 0.83277 0.0
C1871 C 0.9133 0.25293 0.86501 0.0
C1872 C 0.93446 0.2452 0.8571 0.0
C1873 C 0.93363 0.23271 0.83374 0.0
C1874 C 0.91237 0.22942 0.81761 0.0
C1875 C 0.89199 0.23812 0.82555 0.0
C1876 C 0.89212 0.24924 0.84885 0.0
C1877 C 0.86749 0.25604 0.85317 0.0
C1878 C 0.85564 0.24153 0.87295 0.0
C1879 C 0.86939 0.28359 0.85961 0.0
C1880 C 0.85391 0.24803 0.82832 0.0
C1881 C 0.86826 0.23765 0.81266 0.0
C1882 C 0.85993 0.22995 0.78838 0.0
C1883 C 0.83628 0.23308 0.77989 0.0
C1884 C 0.82139 0.24385 0.79568 0.0
C1885 C 0.83036 0.25112 0.82025 0.0
H1886 H 0.54811 0.20894 0.60189 0.0
H1887 H 0.49366 0.18331 0.64988 0.0
H1888 H 0.4922 0.14096 0.63211 0.0
H1889 H 0.53226 0.16503 0.54757 0.0
H1890 H 0.5641 0.16467 0.54565 0.0
H1891 H 0.55455 0.19125 0.55981 0.0
H1892 H 0.58602 0.18428 0.59675 0.0
H1893 H 0.59041 0.15559 0.58203 0.0
H1894 H 0.57952 0.15685 0.61186 0.0
H1895 H 0.49384 0.10274 0.60651 0.0
H1896 H 0.50289 0.06908 0.57891 0.0
H1897 H 0.56085 0.11831 0.55174 0.0
C1898 C 0.53564 0.19432 0.60823 0.0
C1899 C 0.51998 0.19909 0.62619 0.0
C1900 C 0.50505 0.17974 0.63545 0.0
C1901 C 0.5042 0.15578 0.62556 0.0
C1902 C 0.51947 0.15159 0.60745 0.0
C1903 C 0.53547 0.17017 0.59938 0.0
C1904 C 0.55207 0.16024 0.58205 0.0
C1905 C 0.55064 0.17105 0.55736 0.0
C1906 C 0.57857 0.16449 0.59389 0.0
C1907 C 0.54109 0.13347 0.57967 0.0
C1908 C 0.5225 0.12893 0.59476 0.0
C1909 C 0.50863 0.10592 0.59496 0.0
C1910 C 0.51381 0.08703 0.57922 0.0
C1911 C 0.53263 0.09132 0.56356 0.0
C1912 C 0.54661 0.1147 0.56388 0.0
H1913 H 0.57198 0.74443 0.36534 0.0
H1914 H 0.5452 0.79101 0.31355 0.0
H1915 H 0.58511 0.79745 0.29721 0.0
H1916 H 0.63336 0.77895 0.37729 0.0
H1917 H 0.64778 0.75242 0.37895 0.0
H1918 H 0.617 0.75148 0.38721 0.0
H1919 H 0.60214 0.71405 0.35583 0.0
H1920 H 0.63287 0.7149 0.34744 0.0
H1921 H 0.60829 0.71595 0.32443 0.0
H1922 H 0.62722 0.79869 0.28562 0.0
H1923 H 0.66985 0.79439 0.27967 0.0
H1924 H 0.67003 0.74735 0.33864 0.0
C1925 C 0.57454 0.75605 0.35065 0.0
C1926 C 0.55532 0.76717 0.34083 0.0
C1927 C 0.55949 0.78218 0.32148 0.0
C1928 C 0.58216 0.78604 0.31201 0.0
C1929 C 0.60062 0.77481 0.32199 0.0
C1930 C 0.59718 0.76012 0.34084 0.0
C1931 C 0.62019 0.75002 0.34787 0.0
C1932 C 0.63017 0.75875 0.37441 0.0
C1933 C 0.61559 0.72207 0.34363 0.0
C1934 C 0.63693 0.76139 0.33001 0.0
C1935 C 0.62522 0.7756 0.31526 0.0
C1936 C 0.6367 0.78768 0.2971 0.0
C1937 C 0.66088 0.78513 0.29384 0.0
C1938 C 0.67328 0.77065 0.30873 0.0
C1939 C 0.6611 0.75871 0.32708 0.0
H1940 H 0.04352 0.21929 0.45903 0.0
H1941 H 0.99054 0.19289 0.39691 0.0
H1942 H 0.98235 0.15267 0.4132 0.0
H1943 H 0.06812 0.1631 0.46201 0.0
H1944 H 0.07294 0.16641 0.49484 0.0
H1945 H 0.07431 0.193 0.47826 0.0
H1946 H 0.04125 0.20768 0.50347 0.0
H1947 H 0.03955 0.18099 0.51992 0.0
H1948 H 0.0123 0.18799 0.50409 0.0
H1949 H 0.97835 0.1162 0.43756 0.0
H1950 H 0.98276 0.08418 0.46506 0.0
H1951 H 0.04033 0.13363 0.51001 0.0
C1952 C 0.03028 0.20499 0.44882 0.0
C1953 C 0.01753 0.20916 0.4268 0.0
C1954 C 1.00054 0.19 0.41378 0.0
C1955 C 0.99567 0.16718 0.42297 0.0
C1956 C 0.00825 0.16378 0.44497 0.0
C1957 C 0.02556 0.18201 0.45747 0.0
C1958 C 0.03719 0.1734 0.48023 0.0
C1959 C 0.06477 0.17401 0.47873 0.0
C1960 C 0.03227 0.18841 0.50329 0.0
C1961 C 0.02353 0.14754 0.47874 0.0
C1962 C 0.0067 0.14246 0.45843 0.0
C1963 C 0.99158 0.11992 0.45343 0.0
C1964 C 0.9941 0.10191 0.46929 0.0
C1965 C 0.01188 0.10642 0.48973 0.0
C1966 C 0.02659 0.12965 0.49456 0.0
H1967 H 0.57983 0.28537 0.16866 0.0
H1968 H 0.57805 0.21806 0.1233 0.0
H1969 H 0.62044 0.21659 0.1393 0.0
H1970 H 0.6436 0.31025 0.16033 0.0
H1971 H 0.64975 0.32475 0.19101 0.0
H1972 H 0.61931 0.3206 0.17576 0.0
H1973 H 0.60252 0.29783 0.21159 0.0
H1974 H 0.63296 0.30171 0.22677 0.0
H1975 H 0.61507 0.27166 0.22037 0.0
H1976 H 0.66147 0.22039 0.16294 0.0
H1977 H 0.70103 0.23265 0.18847 0.0
H1978 H 0.67767 0.29921 0.21538 0.0
C1979 C 0.58854 0.27052 0.16193 0.0
C1980 C 0.57581 0.25184 0.14478 0.0
C1981 C 0.58767 0.23268 0.13627 0.0
C1982 C 0.61164 0.23159 0.14537 0.0
C1983 C 0.62363 0.25008 0.16254 0.0
C1984 C 0.61273 0.26949 0.17034 0.0
C1985 C 0.62998 0.28732 0.18842 0.0
C1986 C 0.63602 0.3122 0.17826 0.0
C1987 C 0.6195 0.28975 0.21326 0.0
C1988 C 0.65202 0.27461 0.18991 0.0
C1989 C 0.64788 0.25299 0.17507 0.0
C1990 C 0.66512 0.23746 0.17433 0.0
C1991 C 0.68738 0.24443 0.18887 0.0
C1992 C 0.69213 0.26683 0.20347 0.0
C1993 C 0.67433 0.28208 0.20404 0.0
H1994 H 0.52001 0.83931 0.96125 0.0
H1995 H 0.57412 0.87208 0.91606 0.0
H1996 H 0.58447 0.90816 0.94614 0.0
H1997 H 0.49775 0.89326 0.97563 0.0
H1998 H 0.49134 0.88681 0.00613 0.0
H1999 H 0.49098 0.86221 0.98304 0.0
H2000 H 0.52288 0.84505 0.01059 0.0
H2001 H 0.52351 0.86985 0.03367 0.0
H2002 H 0.55149 0.86423 0.02172 0.0
H2003 H 0.58629 0.94192 0.97873 0.0
H2004 H 0.57618 0.97284 0.0088 0.0
H2005 H 0.52033 0.91881 0.03279 0.0
C2006 C 0.53452 0.85381 0.95808 0.0
C2007 C 0.54663 0.85278 0.9366 0.0
C2008 C 0.56481 0.87248 0.93254 0.0
C2009 C 0.57092 0.89293 0.94959 0.0
C2010 C 0.55854 0.8935 0.97054 0.0
C2011 C 0.54051 0.87458 0.97472 0.0
C2012 C 0.52778 0.88107 0.99699 0.0
C2013 C 0.50036 0.88083 0.99002 0.0
C2014 C 0.53166 0.86403 0.01692 0.0
C2015 C 0.54129 0.90668 0.00453 0.0
C2016 C 0.55921 0.91333 0.98921 0.0
C2017 C 0.57262 0.9368 0.99109 0.0
C2018 C 0.56682 0.95422 0.00831 0.0
C2019 C 0.54762 0.94817 0.02325 0.0
C2020 C 0.53549 0.92382 0.02205 0.0
H2021 H 0.92953 0.73277 0.66885 0.0
H2022 H 0.96494 0.80067 0.70947 0.0
H2023 H 0.92687 0.80438 0.72807 0.0
H2024 H 0.87004 0.74966 0.65675 0.0
H2025 H 0.85363 0.72 0.66106 0.0
H2026 H 0.88361 0.72294 0.6504 0.0
H2027 H 0.89829 0.69992 0.68624 0.0
H2028 H 0.86839 0.69705 0.69712 0.0
H2029 H 0.89498 0.71105 0.7171 0.0
H2030 H 0.88558 0.79987 0.74398 0.0
H2031 H 0.84283 0.7881 0.75403 0.0
H2032 H 0.83438 0.72408 0.70239 0.0
C2033 C 0.92917 0.74854 0.68142 0.0
C2034 C 0.95021 0.76637 0.6877 0.0
C2035 C 0.94908 0.78664 0.70448 0.0
C2036 C 0.92754 0.78898 0.71515 0.0
C2037 C 0.90725 0.7709 0.70892 0.0
C2038 C 0.90781 0.75113 0.69239 0.0
C2039 C 0.88357 0.734 0.68932 0.0
C2040 C 0.87203 0.73152 0.66281 0.0
C2041 C 0.88649 0.70903 0.69796 0.0
C2042 C 0.86928 0.74751 0.70632 0.0
C2043 C 0.88331 0.76859 0.71772 0.0
C2044 C 0.87428 0.78351 0.73501 0.0
C2045 C 0.85011 0.77671 0.74066 0.0
C2046 C 0.83538 0.75545 0.72872 0.0
C2047 C 0.84515 0.74073 0.71142 0.0
H2048 H 0.13179 0.01901 0.89099 0.0
H2049 H 0.07753 0.98342 0.83306 0.0
H2050 H 0.04629 0.97902 0.86259 0.0
H2051 H 0.11137 0.98412 0.93864 0.0
H2052 H 0.11625 0.00924 0.96204 0.0
H2053 H 0.13485 0.00997 0.9368 0.0
H2054 H 0.12291 0.05052 0.9253 0.0
H2055 H 0.10494 0.05097 0.95097 0.0
H2056 H 0.09106 0.05324 0.9208 0.0
H2057 H 0.02059 0.9789 0.89914 0.0
H2058 H 0.00311 0.98388 0.93879 0.0
H2059 H 0.07425 0.02043 0.97195 0.0
C2060 C 0.11339 0.01012 0.88449 0.0
C2061 C 0.10723 0.00142 0.85964 0.0
C2062 C 0.08277 0.99023 0.85196 0.0
C2063 C 0.06488 0.98763 0.86862 0.0
C2064 C 0.07155 0.99657 0.89294 0.0
C2065 C 0.09523 0.00775 0.90077 0.0
C2066 C 0.09758 0.01659 0.92764 0.0
C2067 C 0.1161 0.00424 0.94215 0.0
C2068 C 0.10453 0.04448 0.93139 0.0
C2069 C 0.07168 0.00825 0.93385 0.0
C2070 C 0.05685 0.9968 0.91364 0.0
C2071 C 0.03209 0.98787 0.91506 0.0
C2072 C 0.02228 0.99079 0.93766 0.0
C2073 C 0.03718 0.00259 0.95857 0.0
C2074 C 0.06222 0.01133 0.95641 0.0
H2075 H 0.76246 0.37159 0.5965 0.0
H2076 H 0.7737 0.30769 0.55187 0.0
H2077 H 0.77861 0.28608 0.58859 0.0
H2078 H 0.80427 0.36536 0.64948 0.0
H2079 H 0.78429 0.37454 0.67125 0.0
H2080 H 0.7838 0.38607 0.64168 0.0
H2081 H 0.73718 0.37007 0.63411 0.0
H2082 H 0.73754 0.35851 0.66362 0.0
H2083 H 0.72581 0.33839 0.6367 0.0
H2084 H 0.78137 0.2709 0.62931 0.0
H2085 H 0.77896 0.26199 0.67217 0.0
H2086 H 0.76367 0.33462 0.69059 0.0
C2087 C 0.7663 0.35319 0.59464 0.0
C2088 C 0.76785 0.34128 0.57153 0.0
C2089 C 0.77239 0.31705 0.56953 0.0
C2090 C 0.77534 0.30466 0.59023 0.0
C2091 C 0.77344 0.3167 0.61278 0.0
C2092 C 0.76881 0.34031 0.61519 0.0
C2093 C 0.76583 0.34819 0.64147 0.0
C2094 C 0.78574 0.36982 0.65156 0.0
C2095 C 0.74006 0.35413 0.64412 0.0
C2096 C 0.76939 0.32529 0.65325 0.0
C2097 C 0.77409 0.3075 0.63639 0.0
C2098 C 0.77777 0.28467 0.64277 0.0
C2099 C 0.7764 0.27979 0.66712 0.0
C2100 C 0.77108 0.29758 0.68461 0.0
C2101 C 0.7677 0.32065 0.67756 0.0
H2102 H 0.40251 0.01167 0.38491 0.0
H2103 H 0.45202 0.05613 0.34307 0.0
H2104 H 0.48525 0.05814 0.37631 0.0
H2105 H 0.42428 0.0377 0.44344 0.0
H2106 H 0.42167 0.00932 0.45737 0.0
H2107 H 0.40153 0.01214 0.43096 0.0
H2108 H 0.41484 0.97571 0.40719 0.0
H2109 H 0.43457 0.97175 0.43353 0.0
H2110 H 0.44689 0.97548 0.40461 0.0
H2111 H 0.51341 0.054 0.41495 0.0
H2112 H 0.53283 0.0445 0.45437 0.0
H2113 H 0.4646 0.99974 0.46716 0.0
C2114 C 0.42025 0.02189 0.38254 0.0
C2115 C 0.42458 0.03371 0.36129 0.0
C2116 C 0.44821 0.04697 0.35924 0.0
C2117 C 0.46722 0.0481 0.37797 0.0
C2118 C 0.46242 0.03539 0.39829 0.0
C2119 C 0.43949 0.02237 0.40042 0.0
C2120 C 0.43898 0.00912 0.42315 0.0
C2121 C 0.42052 0.01757 0.43974 0.0
C2122 C 0.4335 0.98138 0.41673 0.0
C2123 C 0.46502 0.01735 0.43412 0.0
C2124 C 0.47844 0.0324 0.41959 0.0
C2125 C 0.50302 0.04219 0.4264 0.0
C2126 C 0.51393 0.03665 0.44874 0.0
C2127 C 0.50019 0.02155 0.46392 0.0
C2128 C 0.47558 0.01156 0.45614 0.0
H2129 H 0.75609 0.6377 0.09112 0.0
H2130 H 0.77945 0.70596 0.06058 0.0
H2131 H 0.78021 0.72818 0.10085 0.0
H2132 H 0.7174 0.66103 0.13394 0.0
H2133 H 0.72594 0.643 0.15785 0.0
H2134 H 0.72643 0.63203 0.12636 0.0
H2135 H 0.77188 0.62745 0.13459 0.0
H2136 H 0.77145 0.63815 0.16613 0.0
H2137 H 0.79387 0.65324 0.14812 0.0
H2138 H 0.77797 0.74347 0.14397 0.0
H2139 H 0.77716 0.75038 0.1885 0.0
H2140 H 0.75692 0.67256 0.19234 0.0
C2141 C 0.7614 0.6573 0.09296 0.0
C2142 C 0.76764 0.67004 0.07259 0.0
C2143 C 0.77458 0.69571 0.07582 0.0
C2144 C 0.77496 0.70858 0.09864 0.0
C2145 C 0.76848 0.6956 0.11826 0.0
C2146 C 0.76211 0.67053 0.11581 0.0
C2147 C 0.75684 0.66111 0.14021 0.0
C2148 C 0.73006 0.64855 0.13954 0.0
C2149 C 0.77458 0.64398 0.1477 0.0
C2150 C 0.76158 0.68477 0.15668 0.0
C2151 C 0.76786 0.70445 0.1435 0.0
C2152 C 0.77308 0.72821 0.15453 0.0
C2153 C 0.77242 0.73197 0.17985 0.0
C2154 C 0.76693 0.71205 0.19395 0.0
C2155 C 0.76113 0.68817 0.18207 0.0
H2156 H 0.10305 0.97125 0.71033 0.0
H2157 H 0.11993 0.0493 0.72801 0.0
H2158 H 0.10145 0.05561 0.68716 0.0
H2159 H 0.11858 0.9725 0.64849 0.0
H2160 H 0.0948 0.94749 0.63673 0.0
H2161 H 0.10773 0.9494 0.66789 0.0
H2162 H 0.06433 0.94722 0.68233 0.0
H2163 H 0.05134 0.94573 0.65119 0.0
H2164 H 0.04571 0.96915 0.67327 0.0
H2165 H 0.07969 0.05316 0.64447 0.0
H2166 H 0.06266 0.04226 0.60127 0.0
H2167 H 0.0646 0.96633 0.61036 0.0
C2168 C 0.10281 0.98961 0.70547 0.0
C2169 C 0.11276 0.00985 0.72211 0.0
C2170 C 0.11239 0.03364 0.71529 0.0
C2171 C 0.10179 0.03737 0.69226 0.0
C2172 C 0.09197 0.01706 0.67615 0.0
C2173 C 0.09284 0.99365 0.68228 0.0
C2174 C 0.08259 0.97504 0.66105 0.0
C2175 C 0.10209 0.96025 0.65307 0.0
C2176 C 0.05963 0.9583 0.66735 0.0
C2177 C 0.07617 0.99164 0.64198 0.0
C2178 C 0.08103 0.01577 0.6512 0.0
C2179 C 0.07595 0.03431 0.63701 0.0
C2180 C 0.06619 0.02802 0.6126 0.0
C2181 C 0.06231 0.00352 0.60259 0.0
C2182 C 0.06726 0.9852 0.61757 0.0
H2183 H 0.73411 0.35636 0.40736 0.0
H2184 H 0.76658 0.31483 0.4606 0.0
H2185 H 0.76636 0.28159 0.42898 0.0
H2186 H 0.69491 0.30145 0.37239 0.0
H2187 H 0.69852 0.3138 0.34348 0.0
H2188 H 0.69896 0.3339 0.37074 0.0
H2189 H 0.74119 0.35722 0.36249 0.0
H2190 H 0.74068 0.33712 0.33537 0.0
H2191 H 0.76609 0.34066 0.35848 0.0
H2192 H 0.76663 0.25437 0.39153 0.0
H2193 H 0.76791 0.23548 0.34989 0.0
H2194 H 0.73378 0.29297 0.32048 0.0
C2195 C 0.74081 0.34012 0.41234 0.0
C2196 C 0.75009 0.33822 0.43656 0.0
C2197 C 0.75892 0.31668 0.44231 0.0
C2198 C 0.75891 0.29757 0.42446 0.0
C2199 C 0.74962 0.2999 0.40086 0.0
C2200 C 0.74051 0.32046 0.39471 0.0
C2201 C 0.73243 0.3184 0.36765 0.0
C2202 C 0.70455 0.31679 0.36332 0.0
C2203 C 0.74595 0.33963 0.35531 0.0
C2204 C 0.74002 0.29436 0.35948 0.0
C2205 C 0.74938 0.28374 0.37904 0.0
C2206 C 0.75893 0.26224 0.37603 0.0
C2207 C 0.75952 0.25157 0.35229 0.0
C2208 C 0.75082 0.26256 0.33185 0.0
C2209 C 0.74034 0.28389 0.33568 0.0
H2210 H 0.4403 0.00643 0.22836 0.0
H2211 H 0.38265 0.04658 0.20776 0.0
H2212 H 0.39194 0.04214 0.16465 0.0
H2213 H 0.48324 0.02783 0.18532 0.0
H2214 H 0.4919 0.99844 0.17898 0.0
H2215 H 0.48202 0.00659 0.20831 0.0
H2216 H 0.44875 0.9679 0.2027 0.0
H2217 H 0.4583 0.95979 0.1732 0.0
H2218 H 0.42691 0.96292 0.17613 0.0
H2219 H 0.40627 0.03213 0.12434 0.0
H2220 H 0.4254 0.01828 0.08848 0.0
H2221 H 0.47304 0.98276 0.13467 0.0
C2222 C 0.43013 0.01475 0.21474 0.0
C2223 C 0.41121 0.02735 0.22108 0.0
C2224 C 0.39747 0.03724 0.20299 0.0
C2225 C 0.40256 0.03471 0.17859 0.0
C2226 C 0.42105 0.02177 0.17275 0.0
C2227 C 0.43461 0.01189 0.19024 0.0
C2228 C 0.4524 0.99754 0.17881 0.0
C2229 C 0.47896 0.00825 0.18842 0.0
C2230 C 0.44621 0.97043 0.18297 0.0
C2231 C 0.44713 0.00141 0.15221 0.0
C2232 C 0.42887 0.0153 0.14921 0.0
C2233 C 0.4206 0.02126 0.12643 0.0
C2234 C 0.43158 0.0132 0.10616 0.0
C2235 C 0.45074 0.99938 0.10875 0.0
C2236 C 0.45837 0.99315 0.13209 0.0
H2237 H 0.76224 0.64012 0.90282 0.0
H2238 H 0.77864 0.69766 0.96219 0.0
H2239 H 0.7832 0.7283 0.93244 0.0
H2240 H 0.80481 0.66926 0.863 0.0
H2241 H 0.78503 0.65952 0.8354 0.0
H2242 H 0.78349 0.64108 0.86083 0.0
H2243 H 0.73732 0.64193 0.86171 0.0
H2244 H 0.73821 0.65944 0.83571 0.0
H2245 H 0.72668 0.67076 0.86317 0.0
H2246 H 0.78508 0.75324 0.89571 0.0
H2247 H 0.78345 0.76965 0.85533 0.0
H2248 H 0.76545 0.69599 0.82035 0.0
C2249 C 0.76702 0.65913 0.90962 0.0
C2250 C 0.77011 0.6663 0.93501 0.0
C2251 C 0.77617 0.69151 0.94294 0.0
C2252 C 0.77883 0.70916 0.92614 0.0
C2253 C 0.77543 0.70149 0.90132 0.0
C2254 C 0.76971 0.67706 0.89309 0.0
C2255 C 0.76661 0.67369 0.86545 0.0
C2256 C 0.78615 0.66004 0.8556 0.0
C2257 C 0.74066 0.66069 0.85596 0.0
C2258 C 0.77089 0.69995 0.85946 0.0
C2259 C 0.77624 0.71577 0.88035 0.0
C2260 C 0.78096 0.74095 0.87924 0.0
C2261 C 0.78006 0.75013 0.8562 0.0
C2262 C 0.77432 0.7342 0.83453 0.0
C2263 C 0.76984 0.70877 0.83642 0.0
H2264 H 0.83927 0.09721 0.98262 0.0
H2265 H 0.84682 0.12999 0.05722 0.0
H2266 H 0.88158 0.10851 0.06679 0.0
H2267 H 0.84908 0.04017 0.99584 0.0
H2268 H 0.86602 0.03436 0.97017 0.0
H2269 H 0.84401 0.0546 0.96826 0.0
H2270 H 0.87718 0.08914 0.95728 0.0
H2271 H 0.89922 0.06885 0.95855 0.0
H2272 H 0.90532 0.09769 0.97683 0.0
H2273 H 0.91077 0.07845 0.06943 0.0
H2274 H 0.93717 0.04743 0.06361 0.0
H2275 H 0.91197 0.03594 0.98664 0.0
C2276 C 0.8487 0.10044 1.00081 0.0
C2277 C 0.84048 0.11529 0.01922 0.0
C2278 C 0.85309 0.11894 0.04282 0.0
C2279 C 0.87266 0.10665 0.04843 0.0
C2280 C 0.87952 0.0912 0.03009 0.0
C2281 C 0.8683 0.08856 0.00659 0.0
C2282 C 0.87832 0.07012 0.99041 0.0
C2283 C 0.85816 0.04855 0.9806 0.0
C2284 C 0.89076 0.08218 0.96954 0.0
C2285 C 0.89674 0.06243 0.00855 0.0
C2286 C 0.89693 0.07458 0.0314 0.0
C2287 C 0.91107 0.06918 0.05154 0.0
C2288 C 0.92577 0.05132 0.04811 0.0
C2289 C 0.92647 0.03929 0.0247 0.0
C2290 C 0.91181 0.04498 0.00468 0.0
H2291 H 0.34834 0.44735 0.07081 0.0
H2292 H 0.34832 0.3896 0.01379 0.0
H2293 H 0.39063 0.40705 0.0068 0.0
H2294 H 0.38961 0.49969 0.04973 0.0
H2295 H 0.4022 0.50699 0.08061 0.0
H2296 H 0.37134 0.49081 0.07428 0.0
H2297 H 0.38961 0.46042 0.10354 0.0
H2298 H 0.42051 0.47618 0.1031 0.0
H2299 H 0.41278 0.44435 0.0926 0.0
H2300 H 0.4319 0.43147 0.00445 0.0
H2301 H 0.47026 0.46122 0.00744 0.0
H2302 H 0.44558 0.50267 0.06734 0.0
C2303 C 0.35722 0.43877 0.05659 0.0
C2304 C 0.34479 0.4177 0.04205 0.0
C2305 C 0.35736 0.40606 0.02462 0.0
C2306 C 0.3814 0.41581 0.02059 0.0
C2307 C 0.39312 0.43669 0.03492 0.0
C2308 C 0.38169 0.4479 0.05287 0.0
C2309 C 0.39962 0.46871 0.0672 0.0
C2310 C 0.38996 0.49291 0.06799 0.0
C2311 C 0.406 0.46201 0.09314 0.0
C2312 C 0.4216 0.46938 0.05239 0.0
C2313 C 0.41772 0.45008 0.0345 0.0
C2314 C 0.43517 0.44659 0.01844 0.0
C2315 C 0.45691 0.46356 0.02027 0.0
C2316 C 0.46087 0.48412 0.03762 0.0
C2317 C 0.44305 0.48699 0.05403 0.0
H2318 H 0.33875 0.55816 0.78344 0.0
H2319 H 0.39204 0.56741 0.73017 0.0
H2320 H 0.38425 0.60945 0.72661 0.0
H2321 H 0.29578 0.58967 0.75524 0.0
H2322 H 0.2875 0.60322 0.7834 0.0
H2323 H 0.29827 0.57452 0.78274 0.0
H2324 H 0.33244 0.59226 0.81707 0.0
H2325 H 0.32166 0.62097 0.81801 0.0
H2326 H 0.35311 0.61974 0.81321 0.0
H2327 H 0.36907 0.64977 0.72766 0.0
H2328 H 0.34943 0.68582 0.73422 0.0
H2329 H 0.30571 0.64997 0.78682 0.0
C2330 C 0.34901 0.56899 0.7711 0.0
C2331 C 0.36606 0.55935 0.75703 0.0
C2332 C 0.37903 0.57434 0.74123 0.0
C2333 C 0.37463 0.59821 0.73904 0.0
C2334 C 0.35734 0.60685 0.75287 0.0
C2335 C 0.3449 0.59273 0.76875 0.0
C2336 C 0.327 0.60608 0.78134 0.0
C2337 C 0.30058 0.59257 0.77531 0.0
C2338 C 0.33398 0.61 0.80905 0.0
C2339 C 0.33098 0.62992 0.76981 0.0
C2340 C 0.34862 0.63 0.75351 0.0
C2341 C 0.35537 0.64992 0.74049 0.0
C2342 C 0.34405 0.67036 0.74438 0.0
C2343 C 0.32604 0.67085 0.76114 0.0
C2344 C 0.31936 0.65021 0.77389 0.0
H2345 H 0.20194 0.58747 0.53795 0.0
H2346 H 0.20202 0.65049 0.49706 0.0
H2347 H 0.15722 0.63962 0.48755 0.0
H2348 H 0.1493 0.54375 0.50426 0.0
H2349 H 0.1409 0.53445 0.53308 0.0
H2350 H 0.17246 0.54616 0.52973 0.0
H2351 H 0.16751 0.57624 0.56835 0.0
H2352 H 0.13499 0.56568 0.56657 0.0
H2353 H 0.14654 0.59743 0.56475 0.0
H2354 H 0.11346 0.62181 0.4816 0.0
H2355 H 0.07171 0.59933 0.4813 0.0
H2356 H 0.09844 0.54943 0.52929 0.0
C2357 C 0.19243 0.59849 0.52649 0.0
C2358 C 0.20524 0.61917 0.5172 0.0
C2359 C 0.19235 0.63422 0.50363 0.0
C2360 C 0.16702 0.6282 0.4982 0.0
C2361 C 0.15481 0.60766 0.50745 0.0
C2362 C 0.1669 0.59318 0.52162 0.0
C2363 C 0.14881 0.57391 0.53159 0.0
C2364 C 0.15326 0.54806 0.52423 0.0
C2365 C 0.14951 0.57861 0.55947 0.0
C2366 C 0.12496 0.57864 0.51912 0.0
C2367 C 0.12895 0.59845 0.50564 0.0
C2368 C 0.11003 0.60633 0.49218 0.0
C2369 C 0.08635 0.59339 0.49215 0.0
C2370 C 0.08177 0.5726 0.50528 0.0
C2371 C 0.10136 0.56528 0.51913 0.0
H2372 H 0.66107 0.93009 0.75497 0.0
H2373 H 0.67513 0.95265 0.83246 0.0
H2374 H 0.69393 0.91641 0.83871 0.0
H2375 H 0.64861 0.86314 0.76104 0.0
H2376 H 0.66373 0.85627 0.73433 0.0
H2377 H 0.6486 0.88243 0.73637 0.0
H2378 H 0.6889 0.90984 0.72853 0.0
H2379 H 0.70426 0.88389 0.72694 0.0
H2380 H 0.71629 0.90988 0.74835 0.0
H2381 H 0.71537 0.8806 0.83618 0.0
H2382 H 0.73491 0.84505 0.8252 0.0
H2383 H 0.70682 0.84516 0.74959 0.0
C2384 C 0.66738 0.92692 0.77332 0.0
C2385 C 0.66655 0.9441 0.79324 0.0
C2386 C 0.6756 0.9397 0.81693 0.0
C2387 C 0.68632 0.91917 0.82069 0.0
C2388 C 0.6878 0.90308 0.8006 0.0
C2389 C 0.67829 0.90645 0.77742 0.0
C2390 C 0.68359 0.88702 0.75884 0.0
C2391 C 0.65971 0.87128 0.74695 0.0
C2392 C 0.69919 0.89834 0.73953 0.0
C2393 C 0.69797 0.87268 0.77515 0.0
C2394 C 0.70015 0.88222 0.79918 0.0
C2395 C 0.71356 0.87275 0.81746 0.0
C2396 C 0.72477 0.85271 0.81104 0.0
C2397 C 0.72239 0.84237 0.78659 0.0
C2398 C 0.70884 0.85259 0.76848 0.0
H2399 H 0.7125 0.92682 0.5652 0.0
H2400 H 0.70124 0.88805 0.49322 0.0
H2401 H 0.66283 0.90427 0.485 0.0
H2402 H 0.64575 0.9209 0.57634 0.0
H2403 H 0.65044 0.951 0.59204 0.0
H2404 H 0.67469 0.93319 0.5934 0.0
H2405 H 0.70345 0.96838 0.57733 0.0
H2406 H 0.67918 0.98606 0.57531 0.0
H2407 H 0.69464 0.9795 0.54874 0.0
H2408 H 0.62902 0.9293 0.48262 0.0
H2409 H 0.59926 0.95717 0.488 0.0
H2410 H 0.63226 0.97957 0.5619 0.0
C2411 C 0.70121 0.9208 0.54825 0.0
C2412 C 0.70921 0.90548 0.53014 0.0
C2413 C 0.69483 0.89902 0.50759 0.0
C2414 C 0.67317 0.90838 0.5027 0.0
C2415 C 0.66618 0.92419 0.52059 0.0
C2416 C 0.67948 0.92995 0.54314 0.0
C2417 C 0.66887 0.94858 0.55858 0.0
C2418 C 0.65937 0.93777 0.58144 0.0
C2419 C 0.68766 0.97201 0.56538 0.0
C2420 C 0.64798 0.9529 0.54098 0.0
C2421 C 0.64674 0.93867 0.51917 0.0
C2422 C 0.6296 0.94026 0.49975 0.0
C2423 C 0.61289 0.95634 0.50291 0.0
C2424 C 0.61336 0.97063 0.52536 0.0
C2425 C 0.63134 0.96892 0.54451 0.0
H2426 H 0.37303 0.40948 0.76283 0.0
H2427 H 0.3183 0.44212 0.72325 0.0
H2428 H 0.28805 0.40448 0.72372 0.0
H2429 H 0.35181 0.34863 0.72928 0.0
H2430 H 0.35932 0.33256 0.7551 0.0
H2431 H 0.37685 0.3619 0.75152 0.0
H2432 H 0.36685 0.37966 0.79482 0.0
H2433 H 0.35257 0.34888 0.79767 0.0
H2434 H 0.33551 0.37315 0.80203 0.0
H2435 H 0.26255 0.36446 0.73253 0.0
H2436 H 0.24579 0.32327 0.74345 0.0
H2437 H 0.31788 0.31649 0.77561 0.0
C2438 C 0.35464 0.40861 0.75435 0.0
C2439 C 0.3475 0.42904 0.74409 0.0
C2440 C 0.32369 0.42698 0.73216 0.0
C2441 C 0.30648 0.40563 0.7322 0.0
C2442 C 0.31359 0.38622 0.74368 0.0
C2443 C 0.33729 0.38728 0.75402 0.0
C2444 C 0.34061 0.36332 0.76384 0.0
C2445 C 0.35818 0.35087 0.74905 0.0
C2446 C 0.34943 0.36654 0.79119 0.0
C2447 C 0.31467 0.34942 0.75915 0.0
C2448 C 0.29938 0.36274 0.74723 0.0
C2449 C 0.27446 0.35373 0.74156 0.0
C2450 C 0.26505 0.33037 0.74797 0.0
C2451 C 0.28048 0.31636 0.76008 0.0
C2452 C 0.30557 0.32632 0.76585 0.0
H2453 H 0.12912 0.58962 0.27705 0.0
H2454 H 0.18948 0.55695 0.25247 0.0
H2455 H 0.21254 0.59752 0.24788 0.0
H2456 H 0.13742 0.63832 0.23391 0.0
H2457 H 0.12837 0.66081 0.25486 0.0
H2458 H 0.11552 0.62911 0.25516 0.0
H2459 H 0.13106 0.62968 0.30176 0.0
H2460 H 0.14041 0.66182 0.30025 0.0
H2461 H 0.16217 0.644 0.3113 0.0
H2462 H 0.23109 0.64098 0.25098 0.0
H2463 H 0.24298 0.68554 0.2586 0.0
H2464 H 0.16991 0.69078 0.27843 0.0
C2465 C 0.14709 0.59118 0.27053 0.0
C2466 C 0.15803 0.57042 0.26597 0.0
C2467 C 0.18124 0.57284 0.25683 0.0
C2468 C 0.19438 0.59574 0.25397 0.0
C2469 C 0.18369 0.61602 0.25962 0.0
C2470 C 0.16043 0.61406 0.26728 0.0
C2471 C 0.15329 0.63898 0.27168 0.0
C2472 C 0.13241 0.64198 0.25277 0.0
C2473 C 0.14632 0.64381 0.29779 0.0
C2474 C 0.17698 0.65507 0.26742 0.0
C2475 C 0.19405 0.64141 0.25997 0.0
C2476 C 0.21777 0.652 0.25633 0.0
C2477 C 0.22437 0.6773 0.26075 0.0
C2478 C 0.20736 0.69165 0.26897 0.0
C2479 C 0.18325 0.68035 0.27188 0.0
H2480 H 0.48506 0.66036 0.38629 0.0
H2481 H 0.54005 0.70753 0.43624 0.0
H2482 H 0.54579 0.6729 0.45975 0.0
H2483 H 0.45703 0.62807 0.43036 0.0
H2484 H 0.45071 0.59892 0.41265 0.0
H2485 H 0.45324 0.62643 0.39752 0.0
H2486 H 0.48707 0.61269 0.37275 0.0
H2487 H 0.48444 0.58496 0.38764 0.0
H2488 H 0.51371 0.60448 0.38862 0.0
H2489 H 0.5422 0.63459 0.48065 0.0
H2490 H 0.53069 0.59444 0.49623 0.0
H2491 H 0.47817 0.57217 0.43283 0.0
C2492 C 0.49884 0.66317 0.40171 0.0
C2493 C 0.51223 0.68655 0.40935 0.0
C2494 C 0.52964 0.68972 0.43003 0.0
C2495 C 0.53307 0.67016 0.4435 0.0
C2496 C 0.51901 0.6475 0.43604 0.0
C2497 C 0.50241 0.64381 0.4155 0.0
C2498 C 0.48832 0.61807 0.41255 0.0
C2499 C 0.4607 0.61788 0.41332 0.0
C2500 C 0.49372 0.60423 0.38899 0.0
C2501 C 0.49915 0.60815 0.43493 0.0
C2502 C 0.51694 0.62535 0.44816 0.0
C2503 C 0.52855 0.62082 0.47026 0.0
C2504 C 0.52181 0.59804 0.47904 0.0
C2505 C 0.50363 0.58017 0.46572 0.0
C2506 C 0.49234 0.58535 0.44332 0.0
H2507 H 0.60508 0.25758 0.66522 0.0
H2508 H 0.58213 0.31779 0.70627 0.0
H2509 H 0.62124 0.32462 0.73263 0.0
H2510 H 0.62967 0.23416 0.71671 0.0
H2511 H 0.65439 0.22357 0.70225 0.0
H2512 H 0.62652 0.22579 0.68429 0.0
H2513 H 0.65098 0.25368 0.65622 0.0
H2514 H 0.67899 0.25127 0.67392 0.0
H2515 H 0.67126 0.28081 0.66949 0.0
H2516 H 0.66118 0.3224 0.75665 0.0
H2517 H 0.69898 0.3115 0.7763 0.0
H2518 H 0.69446 0.25148 0.7204 0.0
C2519 C 0.60872 0.27275 0.6792 0.0
C2520 C 0.591 0.28758 0.68345 0.0
C2521 C 0.59577 0.30653 0.70259 0.0
C2522 C 0.61786 0.31049 0.71762 0.0
C2523 C 0.63472 0.29506 0.71344 0.0
C2524 C 0.63038 0.27655 0.6947 0.0
C2525 C 0.65015 0.26089 0.69565 0.0
C2526 C 0.63954 0.23456 0.69998 0.0
C2527 C 0.66365 0.26174 0.67244 0.0
C2528 C 0.66642 0.27363 0.71768 0.0
C2529 C 0.65726 0.29329 0.72771 0.0
C2530 C 0.66865 0.30716 0.74883 0.0
C2531 C 0.69002 0.30078 0.75992 0.0
C2532 C 0.69969 0.28071 0.74985 0.0
C2533 C 0.68767 0.26707 0.72843 0.0
H2534 H 0.9984 0.34995 0.89467 0.0
H2535 H 0.99311 0.30434 0.95485 0.0
H2536 H 0.99449 0.34068 0.9835 0.0
H2537 H 0.04112 0.39768 0.92505 0.0
H2538 H 0.02811 0.42138 0.91118 0.0
H2539 H 0.02432 0.39152 0.89531 0.0
H2540 H 0.97724 0.38949 0.89146 0.0
H2541 H 0.98098 0.41936 0.90755 0.0
H2542 H 0.96188 0.39408 0.91853 0.0
H2543 H 0.99867 0.38223 0.00595 0.0
H2544 H 0.00938 0.42596 0.02055 0.0
H2545 H 0.01213 0.44383 0.94567 0.0
C2546 C 0.99732 0.34751 0.91384 0.0
C2547 C 0.99556 0.32425 0.92246 0.0
C2548 C 0.99433 0.32195 0.94774 0.0
C2549 C 0.99497 0.34247 0.96418 0.0
C2550 C 0.99665 0.36512 0.95504 0.0
C2551 C 0.9979 0.36775 0.93047 0.0
C2552 C 1.00129 0.3942 0.9255 0.0
C2553 C 0.02513 0.40162 0.91358 0.0
C2554 C 0.97902 0.39959 0.90983 0.0
C2555 C 0.0027 0.40607 0.95124 0.0
C2556 C 0.99944 0.38903 0.96799 0.0
C2557 C 1.00106 0.39578 0.993 0.0
C2558 C 0.00703 0.42063 0.00112 0.0
C2559 C 0.01162 0.4382 0.98422 0.0
C2560 C 0.00867 0.43078 0.959 0.0
H2561 H 0.96673 0.76376 0.20691 0.0
H2562 H 0.92329 0.7731 0.14044 0.0
H2563 H 0.88689 0.77194 0.16279 0.0
H2564 H 0.92237 0.72185 0.22945 0.0
H2565 H 0.92855 0.73339 0.26111 0.0
H2566 H 0.95247 0.73763 0.24097 0.0
H2567 H 0.95926 0.78421 0.25213 0.0
H2568 H 0.9356 0.78012 0.27262 0.0
H2569 H 0.93372 0.80023 0.24883 0.0
H2570 H 0.85463 0.76455 0.18963 0.0
H2571 H 0.82764 0.75603 0.22213 0.0
H2572 H 0.89061 0.75343 0.27303 0.0
C2573 C 0.94968 0.76624 0.19732 0.0
C2574 C 0.94778 0.76841 0.17193 0.0
C2575 C 0.9251 0.7712 0.15984 0.0
C2576 C 0.90431 0.77063 0.17237 0.0
C2577 C 0.90647 0.7675 0.19708 0.0
C2578 C 0.92852 0.76577 0.20967 0.0
C2579 C 0.9251 0.76142 0.23609 0.0
C2580 C 0.93257 0.73713 0.24225 0.0
C2581 C 0.93926 0.78278 0.25344 0.0
C2582 C 0.89764 0.76043 0.23602 0.0
C2583 C 0.88744 0.7639 0.21318 0.0
C2584 C 0.86237 0.76221 0.20773 0.0
C2585 C 0.8472 0.75714 0.22621 0.0
C2586 C 0.85715 0.75403 0.24991 0.0
C2587 C 0.8827 0.75586 0.25502 0.0
H2588 H 0.52881 0.31197 0.09057 0.0
H2589 H 0.44939 0.2977 0.08456 0.0
H2590 H 0.44843 0.33813 0.07031 0.0
H2591 H 0.53664 0.37516 0.1117 0.0
H2592 H 0.56197 0.3843 0.09419 0.0
H2593 H 0.5566 0.354 0.10372 0.0
H2594 H 0.55499 0.33618 0.05879 0.0
H2595 H 0.56012 0.36647 0.04908 0.0
H2596 H 0.53373 0.34489 0.0361 0.0
H2597 H 0.45548 0.38021 0.05933 0.0
H2598 H 0.47052 0.42261 0.05162 0.0
H2599 H 0.54535 0.40986 0.0616 0.0
C2600 C 0.51128 0.31746 0.08627 0.0
C2601 C 0.48916 0.30173 0.08863 0.0
C2602 C 0.46654 0.30939 0.08269 0.0
C2603 C 0.46579 0.33231 0.07458 0.0
C2604 C 0.48781 0.34726 0.07214 0.0
C2605 C 0.51016 0.34024 0.07768 0.0
C2606 C 0.53103 0.36009 0.07341 0.0
C2607 C 0.54752 0.36891 0.09717 0.0
C2608 C 0.54584 0.35138 0.05314 0.0
C2609 C 0.51683 0.3795 0.06522 0.0
C2610 C 0.49191 0.37156 0.06462 0.0
C2611 C 0.4749 0.38655 0.05928 0.0
C2612 C 0.48358 0.41052 0.05488 0.0
C2613 C 0.50896 0.41911 0.05549 0.0
C2614 C 0.52583 0.40335 0.06029 0.0
H2615 H 0.94631 0.29854 0.3933 0.0
H2616 H 0.98181 0.26051 0.33894 0.0
H2617 H 0.94569 0.25797 0.30937 0.0
H2618 H 0.88894 0.26019 0.37831 0.0
H2619 H 0.87087 0.2836 0.3844 0.0
H2620 H 0.90086 0.28589 0.40014 0.0
H2621 H 0.91404 0.32846 0.38451 0.0
H2622 H 0.8836 0.32599 0.36952 0.0
H2623 H 0.90969 0.33157 0.35228 0.0
H2624 H 0.90631 0.25918 0.28584 0.0
H2625 H 0.86244 0.25513 0.27253 0.0
H2626 H 0.85025 0.28869 0.34311 0.0
C2627 C 0.94651 0.29018 0.37498 0.0
C2628 C 0.9673 0.28112 0.36772 0.0
C2629 C 0.96653 0.26886 0.34423 0.0
C2630 C 0.94611 0.26728 0.32736 0.0
C2631 C 0.9263 0.27743 0.33455 0.0
C2632 C 0.92597 0.28802 0.35798 0.0
C2633 C 0.90094 0.29412 0.36198 0.0
C2634 C 0.88974 0.2801 0.38241 0.0
C2635 C 0.90217 0.32168 0.3674 0.0
C2636 C 0.88731 0.28506 0.33723 0.0
C2637 C 0.90254 0.27618 0.32151 0.0
C2638 C 0.89413 0.26609 0.29792 0.0
C2639 C 0.86917 0.26398 0.29049 0.0
C2640 C 0.85287 0.2715 0.3068 0.0
C2641 C 0.86226 0.28288 0.33018 0.0
H2642 H 1.00107 0.66432 0.63201 0.0
H2643 H 0.96068 0.69674 0.5765 0.0
H2644 H 0.95801 0.6595 0.54852 0.0
H2645 H 0.03755 0.63889 0.59358 0.0
H2646 H 0.03815 0.61145 0.60852 0.0
H2647 H 0.03342 0.63873 0.62561 0.0
H2648 H 0.99292 0.61594 0.63893 0.0
H2649 H 0.9977 0.58843 0.62211 0.0
H2650 H 0.96966 0.60005 0.61606 0.0
H2651 H 0.96352 0.62017 0.52509 0.0
H2652 H 0.97602 0.58192 0.50886 0.0
H2653 H 0.01406 0.57659 0.57948 0.0
C2654 C 0.99093 0.6633 0.61427 0.0
C2655 C 0.98083 0.68335 0.60654 0.0
C2656 C 0.96834 0.68151 0.58291 0.0
C2657 C 0.96676 0.66043 0.56687 0.0
C2658 C 0.97774 0.64133 0.57474 0.0
C2659 C 0.98937 0.6425 0.598 0.0
C2660 C 0.00147 0.62044 0.60136 0.0
C2661 C 0.02929 0.62784 0.60763 0.0
C2662 C 0.98974 0.60533 0.62076 0.0
C2663 C 0.99547 0.60708 0.57616 0.0
C2664 C 0.98147 0.61916 0.56112 0.0
C2665 C 0.97429 0.61044 0.5368 0.0
C2666 C 0.98152 0.58876 0.52771 0.0
C2667 C 0.99604 0.57627 0.54283 0.0
C2668 C 0.00299 0.58568 0.56736 0.0
H2669 H 0.59795 0.80699 0.84756 0.0
H2670 H 0.58905 0.74838 0.89498 0.0
H2671 H 0.624 0.73273 0.87826 0.0
H2672 H 0.61267 0.77265 0.79561 0.0
H2673 H 0.63498 0.79691 0.78711 0.0
H2674 H 0.60974 0.80391 0.80324 0.0
H2675 H 0.63983 0.83007 0.83714 0.0
H2676 H 0.66506 0.82363 0.82075 0.0
H2677 H 0.66389 0.81691 0.85205 0.0
H2678 H 0.66062 0.72417 0.85689 0.0
H2679 H 0.69785 0.72539 0.83488 0.0
H2680 H 0.6807 0.78796 0.79993 0.0
C2681 C 0.60339 0.79096 0.85466 0.0
C2682 C 0.5907 0.77894 0.87265 0.0
C2683 C 0.59856 0.75804 0.88137 0.0
C2684 C 0.61825 0.74888 0.87181 0.0
C2685 C 0.62981 0.7608 0.85355 0.0
C2686 C 0.62283 0.78156 0.8453 0.0
C2687 C 0.63848 0.79134 0.82593 0.0
C2688 C 0.62303 0.79118 0.80153 0.0
C2689 C 0.65266 0.81699 0.83449 0.0
C2690 C 0.65539 0.77277 0.82447 0.0
C2691 C 0.65013 0.75529 0.84055 0.0
C2692 C 0.66461 0.73744 0.8439 0.0
C2693 C 0.6855 0.73807 0.83118 0.0
C2694 C 0.69131 0.75609 0.81505 0.0
C2695 C 0.67582 0.77328 0.81125 0.0
H2696 H 0.45134 0.48726 0.69081 0.0
H2697 H 0.38835 0.51905 0.66714 0.0
H2698 H 0.40794 0.5309 0.63016 0.0
H2699 H 0.49816 0.52992 0.66888 0.0
H2700 H 0.51559 0.50734 0.65827 0.0
H2701 H 0.49722 0.50203 0.68335 0.0
H2702 H 0.47408 0.46161 0.66033 0.0
H2703 H 0.49291 0.46666 0.6356 0.0
H2704 H 0.46006 0.46183 0.62979 0.0
H2705 H 0.43503 0.54079 0.59678 0.0
H2706 H 0.46442 0.54245 0.56573 0.0
H2707 H 0.50875 0.50102 0.60865 0.0
C2708 C 0.44172 0.49673 0.6778 0.0
C2709 C 0.41838 0.50246 0.6819 0.0
C2710 C 0.40617 0.51448 0.66432 0.0
C2711 C 0.41725 0.52141 0.64337 0.0
C2712 C 0.44037 0.51575 0.63999 0.0
C2713 C 0.45224 0.50318 0.65641 0.0
C2714 C 0.47625 0.49796 0.64754 0.0
C2715 C 0.49809 0.51004 0.66559 0.0
C2716 C 0.47578 0.47038 0.64304 0.0
C2717 C 0.47622 0.50991 0.62375 0.0
C2718 C 0.45545 0.52031 0.61999 0.0
C2719 C 0.4512 0.53249 0.59945 0.0
C2720 C 0.46807 0.53332 0.58187 0.0
C2721 C 0.48888 0.5217 0.58452 0.0
C2722 C 0.49324 0.51032 0.60612 0.0
H2723 H 0.77925 0.20398 0.97111 0.0
H2724 H 0.78635 0.14061 0.92321 0.0
H2725 H 0.78617 0.16524 0.88806 0.0
H2726 H 0.73735 0.22552 0.93152 0.0
H2727 H 0.74927 0.25734 0.93947 0.0
H2728 H 0.75286 0.23568 0.96136 0.0
H2729 H 0.79982 0.24998 0.96587 0.0
H2730 H 0.79637 0.27187 0.94412 0.0
H2731 H 0.81635 0.24997 0.9391 0.0
H2732 H 0.7814 0.1953 0.8579 0.0
H2733 H 0.77279 0.22924 0.83448 0.0
H2734 H 0.7691 0.27343 0.90168 0.0
C2735 C 0.78135 0.19537 0.95333 0.0
C2736 C 0.78302 0.17037 0.94995 0.0
C2737 C 0.78515 0.15972 0.92627 0.0
C2738 C 0.78512 0.17358 0.90621 0.0
C2739 C 0.78296 0.19802 0.91014 0.0
C2740 C 0.7812 0.20887 0.9331 0.0
C2741 C 0.77725 0.23498 0.93212 0.0
C2742 C 0.75273 0.23858 0.94168 0.0
C2743 C 0.79874 0.25275 0.94613 0.0
C2744 C 0.7767 0.23702 0.90493 0.0
C2745 C 0.78017 0.21549 0.89265 0.0
C2746 C 0.77902 0.21234 0.86733 0.0
C2747 C 0.77409 0.23166 0.8542 0.0
C2748 C 0.77053 0.25383 0.86642 0.0
C2749 C 0.77205 0.25667 0.89206 0.0
H2750 H 0.12087 0.52048 0.18944 0.0
H2751 H 0.08721 0.44837 0.20423 0.0
H2752 H 0.06055 0.44438 0.16544 0.0
H2753 H 0.06484 0.53717 0.16693 0.0
H2754 H 0.07814 0.55575 0.14461 0.0
H2755 H 0.09633 0.55196 0.17209 0.0
H2756 H 0.12861 0.53617 0.14654 0.0
H2757 H 0.11077 0.54041 0.11903 0.0
H2758 H 0.11906 0.51108 0.12342 0.0
H2759 H 0.03543 0.44974 0.12612 0.0
H2760 H 0.01625 0.46306 0.0884 0.0
H2761 H 0.06591 0.53193 0.10056 0.0
C2762 C 0.1085 0.50352 0.18404 0.0
C2763 C 0.10653 0.48441 0.19937 0.0
C2764 C 0.08928 0.46297 0.19239 0.0
C2765 C 0.07398 0.46064 0.17052 0.0
C2766 C 0.07583 0.48014 0.15612 0.0
C2767 C 0.09271 0.50116 0.1626 0.0
C2768 C 0.08985 0.52018 0.14502 0.0
C2769 C 0.08182 0.54258 0.15794 0.0
C2770 C 0.11348 0.52736 0.13277 0.0
C2771 C 0.06945 0.50625 0.12709 0.0
C2772 C 0.06123 0.48335 0.13396 0.0
C2773 C 0.04183 0.4676 0.12052 0.0
C2774 C 0.03092 0.47532 0.09927 0.0
C2775 C 0.03971 0.4984 0.09163 0.0
C2776 C 0.05903 0.51405 0.10589 0.0
H2777 H 0.77529 0.88916 0.44463 0.0
H2778 H 0.77865 0.82698 0.4865 0.0
H2779 H 0.7776 0.80065 0.44843 0.0
H2780 H 0.73326 0.85757 0.39612 0.0
H2781 H 0.74731 0.87404 0.3727 0.0
H2782 H 0.74952 0.88822 0.40337 0.0
H2783 H 0.79681 0.89657 0.40416 0.0
H2784 H 0.79471 0.88224 0.37351 0.0
H2785 H 0.81285 0.87161 0.39764 0.0
H2786 H 0.77521 0.78066 0.40562 0.0
H2787 H 0.76926 0.76839 0.36129 0.0
H2788 H 0.76714 0.8434 0.34743 0.0
C2789 C 0.77593 0.87004 0.44586 0.0
C2790 C 0.77711 0.86025 0.46869 0.0
C2791 C 0.77775 0.83503 0.46932 0.0
C2792 C 0.77726 0.81988 0.44777 0.0
C2793 C 0.77613 0.83013 0.42562 0.0
C2794 C 0.77537 0.8546 0.4245 0.0
C2795 C 0.77322 0.86085 0.39831 0.0
C2796 C 0.74941 0.87075 0.39228 0.0
C2797 C 0.79574 0.87889 0.3931 0.0
C2798 C 0.77258 0.83603 0.38491 0.0
C2799 C 0.77454 0.81858 0.40098 0.0
C2800 C 0.77379 0.7942 0.39285 0.0
C2801 C 0.7705 0.78741 0.36763 0.0
C2802 C 0.7678 0.80492 0.35086 0.0
C2803 C 0.76925 0.82957 0.35974 0.0
H2804 H 0.39665 0.52008 0.83959 0.0
H2805 H 0.43763 0.46934 0.80531 0.0
H2806 H 0.46449 0.47161 0.8438 0.0
H2807 H 0.45043 0.55746 0.87527 0.0
H2808 H 0.43327 0.56372 0.90064 0.0
H2809 H 0.41828 0.55875 0.87007 0.0
H2810 H 0.38645 0.52426 0.88337 0.0
H2811 H 0.40135 0.52903 0.91389 0.0
H2812 H 0.39686 0.49927 0.89745 0.0
H2813 H 0.48563 0.47828 0.88752 0.0
H2814 H 0.49943 0.48966 0.93142 0.0
H2815 H 0.44443 0.53629 0.93556 0.0
C2816 C 0.41136 0.50953 0.84016 0.0
C2817 C 0.41502 0.49442 0.8196 0.0
C2818 C 0.43462 0.48111 0.82089 0.0
C2819 C 0.44992 0.48226 0.84267 0.0
C2820 C 0.44563 0.49718 0.86276 0.0
C2821 C 0.42701 0.51085 0.8615 0.0
C2822 C 0.42616 0.52557 0.88546 0.0
C2823 C 0.4324 0.55299 0.88269 0.0
C2824 C 0.40123 0.51912 0.89564 0.0
C2825 C 0.44632 0.51711 0.90083 0.0
C2826 C 0.45769 0.50106 0.88745 0.0
C2827 C 0.47689 0.49093 0.8981 0.0
C2828 C 0.4846 0.49744 0.92301 0.0
C2829 C 0.47287 0.51365 0.93696 0.0
C2830 C 0.4536 0.52359 0.92554 0.0
H2831 H 0.77565 0.1597 0.10908 0.0
H2832 H 0.81018 0.22191 0.07476 0.0
H2833 H 0.81336 0.24745 0.11363 0.0
H2834 H 0.73963 0.19125 0.14506 0.0
H2835 H 0.74299 0.17452 0.17137 0.0
H2836 H 0.74529 0.16038 0.14143 0.0
H2837 H 0.78812 0.15115 0.15571 0.0
H2838 H 0.78588 0.16521 0.18575 0.0
H2839 H 0.81163 0.17565 0.16926 0.0
H2840 H 0.80965 0.26726 0.15514 0.0
H2841 H 0.80071 0.27931 0.19706 0.0
H2842 H 0.76954 0.20425 0.20479 0.0
C2843 C 0.78431 0.17857 0.10988 0.0
C2844 C 0.79272 0.18876 0.08885 0.0
C2845 C 0.80364 0.21364 0.0906 0.0
C2846 C 0.80556 0.22834 0.11263 0.0
C2847 C 0.79666 0.21791 0.13288 0.0
C2848 C 0.78647 0.19355 0.13183 0.0
C2849 C 0.77743 0.18718 0.15607 0.0
C2850 C 0.74969 0.17779 0.1533 0.0
C2851 C 0.79162 0.16871 0.16736 0.0
C2852 C 0.78361 0.21186 0.17062 0.0
C2853 C 0.79478 0.22932 0.15696 0.0
C2854 C 0.80118 0.25368 0.16615 0.0
C2855 C 0.79598 0.26038 0.18995 0.0
C2856 C 0.78451 0.24277 0.20428 0.0
C2857 C 0.7785 0.21817 0.19443 0.0
H2858 H 0.1186 0.53712 0.36085 0.0
H2859 H 0.08506 0.47263 0.31368 0.0
H2860 H 0.052 0.46523 0.34062 0.0
H2861 H 0.10434 0.51379 0.41805 0.0
H2862 H 0.09786 0.54225 0.43135 0.0
H2863 H 0.11924 0.54215 0.40858 0.0
H2864 H 0.09402 0.56767 0.38258 0.0
H2865 H 0.07239 0.56759 0.40517 0.0
H2866 H 0.06198 0.5566 0.37393 0.0
H2867 H 0.02293 0.46429 0.37264 0.0
H2868 H 0.99997 0.46957 0.40857 0.0
H2869 H 0.05109 0.53564 0.43407 0.0
C2870 C 0.1044 0.52137 0.35634 0.0
C2871 C 0.10438 0.50547 0.33517 0.0
C2872 C 0.08534 0.48515 0.32972 0.0
C2873 C 0.06648 0.48077 0.3449 0.0
C2874 C 0.06674 0.497 0.36535 0.0
C2875 C 0.08516 0.51688 0.37115 0.0
C2876 C 0.08079 0.53164 0.39408 0.0
C2877 C 0.1018 0.53249 0.4142 0.0
C2878 C 0.07707 0.5574 0.3886 0.0
C2879 C 0.05725 0.51671 0.40036 0.0
C2880 C 0.04947 0.49683 0.38353 0.0
C2881 C 0.02867 0.4799 0.38587 0.0
C2882 C 0.0157 0.4831 0.40627 0.0
C2883 C 0.02351 0.50315 0.42396 0.0
C2884 C 0.04434 0.52036 0.42065 0.0
H2885 H 0.77709 0.8667 0.63153 0.0
H2886 H 0.74421 0.80869 0.57615 0.0
H2887 H 0.73607 0.78085 0.60784 0.0
H2888 H 0.80683 0.82935 0.6696 0.0
H2889 H 0.8014 0.84471 0.69805 0.0
H2890 H 0.80362 0.86099 0.67122 0.0
H2891 H 0.76102 0.87279 0.67614 0.0
H2892 H 0.75871 0.85659 0.70302 0.0
H2893 H 0.73513 0.84926 0.67799 0.0
H2894 H 0.7331 0.75818 0.64495 0.0
H2895 H 0.73484 0.7427 0.68562 0.0
H2896 H 0.76911 0.8147 0.71779 0.0
C2897 C 0.7679 0.84825 0.62616 0.0
C2898 C 0.76132 0.84001 0.60121 0.0
C2899 C 0.74954 0.81558 0.59501 0.0
C2900 C 0.74476 0.79951 0.61293 0.0
C2901 C 0.75176 0.80798 0.63721 0.0
C2902 C 0.76296 0.83177 0.64396 0.0
C2903 C 0.76914 0.83576 0.67147 0.0
C2904 C 0.7969 0.84314 0.67796 0.0
C2905 C 0.75517 0.85473 0.68282 0.0
C2906 C 0.75994 0.81049 0.67888 0.0
C2907 C 0.74992 0.79479 0.65881 0.0
C2908 C 0.74074 0.77036 0.66087 0.0
C2909 C 0.74182 0.76169 0.68408 0.0
C2910 C 0.75199 0.77738 0.70503 0.0
C2911 C 0.76106 0.80217 0.70223 0.0
H2912 H 0.68802 0.41609 0.47653 0.0
H2913 H 0.70211 0.38945 0.54711 0.0
H2914 H 0.66811 0.40799 0.56232 0.0
H2915 H 0.67357 0.47273 0.49736 0.0
H2916 H 0.64934 0.47248 0.47358 0.0
H2917 H 0.67418 0.45639 0.46802 0.0
H2918 H 0.64344 0.41654 0.45564 0.0
H2919 H 0.61844 0.43243 0.46093 0.0
H2920 H 0.62154 0.40574 0.47633 0.0
H2921 H 0.63452 0.43291 0.57078 0.0
H2922 H 0.6002 0.45634 0.56961 0.0
H2923 H 0.60724 0.4644 0.49295 0.0
C2924 C 0.68373 0.41381 0.49507 0.0
C2925 C 0.69772 0.40125 0.51059 0.0
C2926 C 0.69148 0.39872 0.53476 0.0
C2927 C 0.67235 0.40941 0.54365 0.0
C2928 C 0.65941 0.4223 0.52807 0.0
C2929 C 0.66453 0.42404 0.50412 0.0
C2930 C 0.64763 0.43839 0.49088 0.0
C2931 C 0.66205 0.46136 0.48194 0.0
C2932 C 0.63182 0.42231 0.4697 0.0
C2933 C 0.63244 0.44482 0.5112 0.0
C2934 C 0.63964 0.43566 0.53262 0.0
C2935 C 0.62861 0.43998 0.55403 0.0
C2936 C 0.60932 0.45347 0.55329 0.0
C2937 C 0.60113 0.46212 0.53123 0.0
C2938 C 0.61308 0.4579 0.51007 0.0
H2939 H 0.17248 0.12128 0.47998 0.0
H2940 H 0.21917 0.07342 0.50918 0.0
H2941 H 0.18304 0.04275 0.51328 0.0
H2942 H 0.12778 0.10891 0.52183 0.0
H2943 H 0.10187 0.11045 0.50057 0.0
H2944 H 0.13142 0.1275 0.49671 0.0
H2945 H 0.12935 0.10668 0.45275 0.0
H2946 H 0.09963 0.0898 0.45653 0.0
H2947 H 0.12382 0.07393 0.4479 0.0
H2948 H 0.14219 0.01731 0.51469 0.0
H2949 H 0.09884 1.00086 0.51849 0.0
H2950 H 0.07778 0.06651 0.49266 0.0
C2951 C 0.17498 0.1041 0.48672 0.0
C2952 C 0.19868 0.09902 0.49281 0.0
C2953 C 0.20126 0.07699 0.50293 0.0
C2954 C 0.18082 0.05954 0.50557 0.0
C2955 C 0.15773 0.06469 0.49876 0.0
C2956 C 0.15459 0.08657 0.48995 0.0
C2957 C 0.12761 0.08834 0.48633 0.0
C2958 C 0.12184 0.11009 0.50232 0.0
C2959 C 0.11963 0.08977 0.45926 0.0
C2960 C 0.11625 0.06428 0.49492 0.0
C2961 C 0.13398 0.05071 0.50143 0.0
C2962 C 0.1281 0.02776 0.5097 0.0
C2963 C 0.10344 0.01853 0.51173 0.0
C2964 C 0.08499 0.03242 0.50598 0.0
C2965 C 0.09154 0.05555 0.49734 0.0
H2966 H 0.19395 0.94377 0.82515 0.0
H2967 H 0.146 0.93823 0.75818 0.0
H2968 H 0.16174 0.90146 0.74335 0.0
H2969 H 0.2449 0.92572 0.79845 0.0
H2970 H 0.25347 0.90859 0.82312 0.0
H2971 H 0.23785 0.93396 0.82896 0.0
H2972 H 0.20383 0.90619 0.84796 0.0
H2973 H 0.21972 0.88096 0.84262 0.0
H2974 H 0.18821 0.87857 0.83072 0.0
H2975 H 0.1851 0.86658 0.73454 0.0
H2976 H 0.20992 0.83359 0.735 0.0
H2977 H 0.24138 0.8612 0.8081 0.0
C2978 C 0.18643 0.93469 0.80749 0.0
C2979 C 0.16861 0.94405 0.7929 0.0
C2980 C 0.15948 0.93148 0.76986 0.0
C2981 C 0.16846 0.91062 0.76117 0.0
C2982 C 0.18649 0.90234 0.77574 0.0
C2983 C 0.19505 0.91376 0.79861 0.0
C2984 C 0.21436 0.90117 0.81076 0.0
C2985 C 0.23911 0.91839 0.8156 0.0
C2986 C 0.20602 0.89112 0.83441 0.0
C2987 C 0.21531 0.88083 0.79119 0.0
C2988 C 0.19936 0.882 0.77098 0.0
C2989 C 0.19753 0.86545 0.75036 0.0
C2990 C 0.21188 0.8469 0.75068 0.0
C2991 C 0.22761 0.84479 0.7716 0.0
C2992 C 0.22944 0.86222 0.79194 0.0
H2993 H 0.32561 0.9239 0.02389 0.0
H2994 H 0.32619 0.86433 0.96906 0.0
H2995 H 0.36979 0.87965 0.96447 0.0
H2996 H 0.37238 0.97326 0.00457 0.0
H2997 H 0.38277 0.98074 0.03612 0.0
H2998 H 0.35132 0.9671 0.02756 0.0
H2999 H 0.36197 0.93523 0.0588 0.0
H3000 H 0.39394 0.9484 0.06203 0.0
H3001 H 0.38454 0.91671 0.05147 0.0
H3002 H 0.41326 0.90131 0.96619 0.0
H3003 H 0.45498 0.92432 0.97811 0.0
H3004 H 0.42649 0.96767 0.03415 0.0
C3005 C 0.33488 0.91456 0.0105 0.0
C3006 C 0.32257 0.89367 0.99595 0.0
C3007 C 0.3354 0.88078 0.97979 0.0
C3008 C 0.36002 0.88939 0.97703 0.0
C3009 C 0.37167 0.91032 0.99134 0.0
C3010 C 0.3597 0.9224 0.00822 0.0
C3011 C 0.37742 0.94186 0.02418 0.0
C3012 C 0.37042 0.9672 0.02302 0.0
C3013 C 0.3796 0.93514 0.05068 0.0
C3014 C 0.4007 0.94014 0.0123 0.0
C3015 C 0.3971 0.9217 0.99357 0.0
C3016 C 0.41627 0.91596 0.98068 0.0
C3017 C 0.43982 0.92919 0.98744 0.0
C3018 C 0.44383 0.94809 0.00664 0.0
C3019 C 0.4239 0.95381 0.01891 0.0
H3020 H 0.83223 0.57221 0.80737 0.0
H3021 H 0.89428 0.59251 0.76593 0.0
H3022 H 0.87411 0.6251 0.74953 0.0
H3023 H 0.78752 0.57956 0.75925 0.0
H3024 H 0.76703 0.58972 0.77994 0.0
H3025 H 0.78707 0.56917 0.7893 0.0
H3026 H 0.80586 0.59928 0.827 0.0
H3027 H 0.7845 0.61851 0.81794 0.0
H3028 H 0.81685 0.63061 0.8225 0.0
H3029 H 0.84607 0.65524 0.73741 0.0
H3030 H 0.81461 0.68146 0.73273 0.0
H3031 H 0.7706 0.6389 0.78077 0.0
C3032 C 0.84192 0.5836 0.7951 0.0
C3033 C 0.86503 0.57982 0.78813 0.0
C3034 C 0.87668 0.59512 0.77173 0.0
C3035 C 0.86526 0.61355 0.76219 0.0
C3036 C 0.84206 0.61609 0.76889 0.0
C3037 C 0.83059 0.60144 0.78497 0.0
C3038 C 0.80534 0.60689 0.78865 0.0
C3039 C 0.78558 0.58504 0.77869 0.0
C3040 C 0.80306 0.61431 0.81564 0.0
C3041 C 0.80474 0.62793 0.77317 0.0
C3042 C 0.82586 0.63272 0.76151 0.0
C3043 C 0.82947 0.65155 0.7464 0.0
C3044 C 0.81138 0.66628 0.74375 0.0
C3045 C 0.79002 0.66222 0.75632 0.0
C3046 C 0.78657 0.64243 0.77077 0.0
H3047 H 0.8226 0.57623 0.97435 0.0
H3048 H 0.83392 0.63171 0.03562 0.0
H3049 H 0.87167 0.61718 0.05018 0.0
H3050 H 0.84231 0.5293 0.00613 0.0
H3051 H 0.85733 0.51716 0.98139 0.0
H3052 H 0.83186 0.53261 0.97502 0.0
H3053 H 0.8584 0.56254 0.95032 0.0
H3054 H 0.88376 0.54685 0.95634 0.0
H3055 H 0.88729 0.57915 0.96437 0.0
H3056 H 0.90734 0.59489 0.05939 0.0
H3057 H 0.93946 0.5691 0.0605 0.0
H3058 H 0.90516 0.52857 0.99295 0.0
C3059 C 0.83312 0.5856 0.99067 0.0
C3060 C 0.82509 0.60524 0.00376 0.0
C3061 C 0.83955 0.61675 0.02512 0.0
C3062 C 0.86104 0.60854 0.03362 0.0
C3063 C 0.86806 0.58883 0.02057 0.0
C3064 C 0.85468 0.57773 0.99936 0.0
C3065 C 0.86607 0.5568 0.98877 0.0
C3066 C 0.84833 0.53254 0.98778 0.0
C3067 C 0.87438 0.56164 0.96345 0.0
C3068 C 0.88782 0.55767 0.00746 0.0
C3069 C 0.88861 0.57622 0.02571 0.0
C3070 C 0.90689 0.58037 0.04513 0.0
C3071 C 0.925 0.56547 0.04569 0.0
C3072 C 0.92491 0.54666 0.02688 0.0
C3073 C 0.90585 0.54273 0.00764 0.0
H3074 H 0.15396 0.09563 0.8161 0.0
H3075 H 0.20279 0.05086 0.78558 0.0
H3076 H 0.23333 0.08737 0.78271 0.0
H3077 H 0.16655 0.14197 0.77586 0.0
H3078 H 0.1645 0.16689 0.79793 0.0
H3079 H 0.14751 0.13709 0.80053 0.0
H3080 H 0.16798 0.13759 0.84463 0.0
H3081 H 0.18454 0.16761 0.84198 0.0
H3082 H 0.20088 0.1436 0.84992 0.0
H3083 H 0.25866 0.12842 0.78287 0.0
H3084 H 0.27482 0.17191 0.7806 0.0
H3085 H 0.20835 0.19091 0.80711 0.0
C3086 C 0.1713 0.09362 0.80927 0.0
C3087 C 0.17668 0.07033 0.80242 0.0
C3088 C 0.19894 0.06843 0.79228 0.0
C3089 C 0.21633 0.08908 0.79039 0.0
C3090 C 0.21094 0.11173 0.79802 0.0
C3091 C 0.18881 0.11425 0.80684 0.0
C3092 C 0.1868 0.14094 0.81141 0.0
C3093 C 0.16505 0.14708 0.79548 0.0
C3094 C 0.18493 0.14783 0.8386 0.0
C3095 C 0.21108 0.15287 0.80352 0.0
C3096 C 0.22491 0.13565 0.79638 0.0
C3097 C 0.24801 0.14213 0.78839 0.0
C3098 C 0.25708 0.16689 0.78725 0.0
C3099 C 0.24292 0.18488 0.79366 0.0
C3100 C 0.21968 0.17766 0.80209 0.0
H3101 H 0.34264 0.95463 0.27038 0.0
H3102 H 0.40652 0.95305 0.32009 0.0
H3103 H 0.39503 0.90833 0.31987 0.0
H3104 H 0.29862 0.90266 0.28783 0.0
H3105 H 0.28883 0.89449 0.25618 0.0
H3106 H 0.30073 0.92581 0.26655 0.0
H3107 H 0.33096 0.9223 0.23218 0.0
H3108 H 0.32003 0.89012 0.22584 0.0
H3109 H 0.35202 0.90108 0.2347 0.0
H3110 H 0.37692 0.86398 0.31367 0.0
H3111 H 0.35435 0.82251 0.30002 0.0
H3112 H 0.30443 0.85291 0.25187 0.0
C3113 C 0.35367 0.94482 0.28176 0.0
C3114 C 0.37477 0.95705 0.29617 0.0
C3115 C 0.38988 0.94378 0.30959 0.0
C3116 C 0.38351 0.91851 0.30954 0.0
C3117 C 0.36255 0.90687 0.29514 0.0
C3118 C 0.34804 0.91951 0.28119 0.0
C3119 C 0.32855 0.90232 0.26473 0.0
C3120 C 0.30267 0.90669 0.26912 0.0
C3121 C 0.33318 0.90407 0.23777 0.0
C3122 C 0.33317 0.87824 0.27305 0.0
C3123 C 0.35311 0.8812 0.29028 0.0
C3124 C 0.36125 0.86145 0.30023 0.0
C3125 C 0.34849 0.83808 0.2924 0.0
C3126 C 0.32783 0.83484 0.27515 0.0
C3127 C 0.32003 0.85511 0.26541 0.0
H3128 H 0.52604 0.31983 0.58085 0.0
H3129 H 0.48693 0.33137 0.6443 0.0
H3130 H 0.47937 0.37102 0.63096 0.0
H3131 H 0.55623 0.3821 0.58289 0.0
H3132 H 0.55539 0.3819 0.55019 0.0
H3133 H 0.55624 0.35411 0.56434 0.0
H3134 H 0.51688 0.33401 0.53718 0.0
H3135 H 0.51558 0.362 0.52342 0.0
H3136 H 0.48975 0.34774 0.53784 0.0
H3137 H 0.47695 0.40925 0.61146 0.0
H3138 H 0.48544 0.44685 0.59077 0.0
H3139 H 0.52679 0.41111 0.54019 0.0
C3140 C 0.51596 0.33083 0.59188 0.0
C3141 C 0.50702 0.32287 0.61354 0.0
C3142 C 0.49406 0.33754 0.62777 0.0
C3143 C 0.48945 0.35983 0.62017 0.0
C3144 C 0.49813 0.36707 0.59844 0.0
C3145 C 0.51159 0.35331 0.58478 0.0
C3146 C 0.52062 0.36622 0.56331 0.0
C3147 C 0.54878 0.3714 0.56531 0.0
C3148 C 0.51007 0.35162 0.539 0.0
C3149 C 0.51009 0.38944 0.56698 0.0
C3150 C 0.49689 0.38935 0.58719 0.0
C3151 C 0.48693 0.40942 0.59543 0.0
C3152 C 0.49163 0.43059 0.58348 0.0
C3153 C 0.50609 0.43143 0.56357 0.0
C3154 C 0.51477 0.41043 0.55469 0.0
H3155 H 0.42242 0.71829 0.33285 0.0
H3156 H 0.42756 0.77107 0.39556 0.0
H3157 H 0.38544 0.77761 0.3841 0.0
H3158 H 0.3844 0.7381 0.28734 0.0
H3159 H 0.36677 0.70858 0.27976 0.0
H3160 H 0.39759 0.71162 0.29381 0.0
H3161 H 0.37558 0.68394 0.32557 0.0
H3162 H 0.34564 0.68636 0.31182 0.0
H3163 H 0.354 0.69606 0.34365 0.0
H3164 H 0.34774 0.78459 0.36168 0.0
H3165 H 0.31189 0.78663 0.3337 0.0
H3166 H 0.32738 0.7256 0.28734 0.0
C3167 C 0.41444 0.73112 0.34403 0.0
C3168 C 0.42831 0.7452 0.36434 0.0
C3169 C 0.41722 0.76074 0.37959 0.0
C3170 C 0.39335 0.76445 0.3733 0.0
C3171 C 0.38043 0.75126 0.35255 0.0
C3172 C 0.39001 0.73404 0.33874 0.0
C3173 C 0.37095 0.72102 0.31867 0.0
C3174 C 0.38064 0.71975 0.29346 0.0
C3175 C 0.36095 0.69533 0.32533 0.0
C3176 C 0.35155 0.73721 0.3203 0.0
C3177 C 0.35697 0.75365 0.34081 0.0
C3178 C 0.34287 0.77142 0.34593 0.0
C3179 C 0.32262 0.77253 0.32971 0.0
C3180 C 0.31678 0.75628 0.30824 0.0
C3181 C 0.33135 0.73821 0.30361 0.0
H3182 H 0.02529 0.70454 0.10104 0.0
H3183 H 0.99157 0.69428 0.16836 0.0
H3184 H 0.99326 0.65037 0.16306 0.0
H3185 H 0.99689 0.64671 0.06655 0.0
H3186 H 0.02458 0.6441 0.05274 0.0
H3187 H 0.01836 0.67376 0.06228 0.0
H3188 H 0.06102 0.68134 0.08755 0.0
H3189 H 0.06529 0.65057 0.07937 0.0
H3190 H 0.06667 0.66174 0.11103 0.0
H3191 H 0.99884 0.60848 0.15119 0.0
H3192 H 0.00159 0.56898 0.12981 0.0
H3193 H 0.0322 0.60571 0.07 0.0
C3194 C 0.01763 0.6928 0.11418 0.0
C3195 C 0.00768 0.7024 0.13478 0.0
C3196 C 0.99878 0.68695 0.15226 0.0
C3197 C 0.99993 0.66214 0.14954 0.0
C3198 C 0.0105 0.65326 0.12947 0.0
C3199 C 0.0189 0.66794 0.11187 0.0
C3200 C 0.02961 0.65354 0.09225 0.0
C3201 C 0.01653 0.65465 0.06694 0.0
C3202 C 0.05729 0.66233 0.09259 0.0
C3203 C 0.02425 0.62828 0.10073 0.0
C3204 C 0.01405 0.62879 0.12271 0.0
C3205 C 0.00671 0.60777 0.13392 0.0
C3206 C 0.00837 0.58541 0.1216 0.0
C3207 C 0.01674 0.58427 0.09806 0.0
C3208 C 0.02577 0.60603 0.08798 0.0
H3209 H 0.06903 0.28969 0.84561 0.0
H3210 H 0.06498 0.23612 0.89872 0.0
H3211 H 0.10508 0.22693 0.88902 0.0
H3212 H 0.09554 0.25722 0.80122 0.0
H3213 H 0.11566 0.28305 0.79245 0.0
H3214 H 0.08742 0.28714 0.80468 0.0
H3215 H 0.11105 0.31897 0.83848 0.0
H3216 H 0.13937 0.31529 0.82613 0.0
H3217 H 0.13574 0.31104 0.85771 0.0
H3218 H 0.14306 0.22067 0.87129 0.0
H3219 H 0.17994 0.22077 0.84982 0.0
H3220 H 0.16089 0.27925 0.80862 0.0
C3221 C 0.07678 0.27634 0.85553 0.0
C3222 C 0.06383 0.26365 0.87297 0.0
C3223 C 0.07458 0.24626 0.88547 0.0
C3224 C 0.09731 0.24079 0.87999 0.0
C3225 C 0.10918 0.25309 0.86222 0.0
C3226 C 0.0996 0.27082 0.85048 0.0
C3227 C 0.11617 0.28107 0.83192 0.0
C3228 C 0.1029 0.27686 0.80604 0.0
C3229 C 0.12618 0.3082 0.83899 0.0
C3230 C 0.13622 0.26581 0.83464 0.0
C3231 C 0.1317 0.24982 0.85224 0.0
C3232 C 0.14704 0.23334 0.85774 0.0
C3233 C 0.16795 0.23355 0.84534 0.0
C3234 C 0.17346 0.2502 0.82767 0.0
C3235 C 0.1572 0.26638 0.82207 0.0
H3236 H 0.53792 0.71894 0.95652 0.0
H3237 H 0.48409 0.70037 0.89376 0.0
H3238 H 0.47343 0.65885 0.9062 0.0
H3239 H 0.55911 0.66179 0.95233 0.0
H3240 H 0.56446 0.66095 0.98484 0.0
H3241 H 0.56654 0.68974 0.97201 0.0
H3242 H 0.53457 0.70213 1.00005 0.0
H3243 H 0.5322 0.67323 0.01276 0.0
H3244 H 0.50518 0.68285 0.99928 0.0
H3245 H 0.46971 0.61919 0.92405 0.0
H3246 H 0.47567 0.58254 0.94456 0.0
H3247 H 0.5322 0.62601 0.99553 0.0
C3248 C 0.52377 0.70614 0.94555 0.0
C3249 C 0.51171 0.71282 0.92426 0.0
C3250 C 0.49359 0.69555 0.91009 0.0
C3251 C 0.48728 0.672 0.9171 0.0
C3252 C 0.49943 0.66596 0.93821 0.0
C3253 C 0.51751 0.68239 0.95209 0.0
C3254 C 0.52902 0.67059 0.97287 0.0
C3255 C 0.5564 0.67078 0.97035 0.0
C3256 C 0.52499 0.68294 0.99771 0.0
C3257 C 0.51453 0.645 0.9685 0.0
C3258 C 0.49741 0.64284 0.94851 0.0
C3259 C 0.4828 0.6207 0.93991 0.0
C3260 C 0.4862 0.60006 0.95167 0.0
C3261 C 0.50391 0.60182 0.97183 0.0
C3262 C 0.51801 0.62454 0.9806 0.0
H3263 H 0.06217 0.72684 0.69195 0.0
H3264 H 0.08505 0.76785 0.63197 0.0
H3265 H 0.12794 0.76352 0.64306 0.0
H3266 H 0.11333 0.74635 0.73689 0.0
H3267 H 0.11166 0.71626 0.74618 0.0
H3268 H 0.08458 0.72534 0.73239 0.0
H3269 H 0.08318 0.68597 0.70187 0.0
H3270 H 0.11259 0.68109 0.71488 0.0
H3271 H 0.10787 0.68475 0.68283 0.0
H3272 H 0.16759 0.75878 0.66254 0.0
H3273 H 0.20292 0.75663 0.69123 0.0
H3274 H 0.15521 0.71654 0.73805 0.0
C3275 C 0.07638 0.73502 0.6814 0.0
C3276 C 0.07075 0.74823 0.66155 0.0
C3277 C 0.08934 0.758 0.64745 0.0
C3278 C 0.11359 0.75542 0.65346 0.0
C3279 C 0.11865 0.74216 0.67301 0.0
C3280 C 0.10066 0.73196 0.68674 0.0
C3281 C 0.11136 0.71859 0.70677 0.0
C3282 C 0.10472 0.72717 0.73204 0.0
C3283 C 0.10327 0.69096 0.70124 0.0
C3284 C 0.13843 0.72588 0.70422 0.0
C3285 C 0.14201 0.73841 0.68382 0.0
C3286 C 0.16511 0.7488 0.67841 0.0
C3287 C 0.18504 0.74763 0.69498 0.0
C3288 C 0.18171 0.73669 0.71703 0.0
C3289 C 0.15827 0.72473 0.7212 0.0
H3290 H 0.00336 0.35035 0.43553 0.0
H3291 H 0.0816 0.35162 0.44124 0.0
H3292 H 0.08737 0.38767 0.47183 0.0
H3293 H 0.00642 0.41366 0.43645 0.0
H3294 H 0.98011 0.41448 0.45333 0.0
H3295 H 0.98252 0.38745 0.43444 0.0
H3296 H 0.97737 0.36227 0.47179 0.0
H3297 H 0.97525 0.3894 0.49081 0.0
H3298 H 0.99793 0.37108 0.49909 0.0
H3299 H 0.08411 0.42495 0.50066 0.0
H3300 H 0.07277 0.46211 0.52119 0.0
H3301 H 0.99701 0.43694 0.49384 0.0
C3302 C 0.02166 0.35816 0.44342 0.0
C3303 C 0.04207 0.34842 0.43633 0.0
C3304 C 0.06581 0.35897 0.44674 0.0
C3305 C 0.06918 0.3793 0.46412 0.0
C3306 C 0.0486 0.38872 0.47067 0.0
C3307 C 0.02531 0.37854 0.46042 0.0
C3308 C 0.00638 0.39312 0.46873 0.0
C3309 C 0.99309 0.40275 0.44694 0.0
C3310 C 0.98816 0.37807 0.48348 0.0
C3311 C 0.02262 0.41346 0.48484 0.0
C3312 C 0.04685 0.41041 0.48627 0.0
C3313 C 0.06518 0.4274 0.49977 0.0
C3314 C 0.0586 0.44834 0.51149 0.0
C3315 C 0.03405 0.45217 0.50911 0.0
C3316 C 0.0159 0.43429 0.49602 0.0
H3317 H 0.40757 0.22145 0.1409 0.0
H3318 H 0.46492 0.27195 0.18491 0.0
H3319 H 0.43528 0.27963 0.21469 0.0
H3320 H 0.36063 0.2541 0.14697 0.0
H3321 H 0.33741 0.2279 0.14852 0.0
H3322 H 0.36375 0.22487 0.13247 0.0
H3323 H 0.37358 0.19092 0.15925 0.0
H3324 H 0.34711 0.19372 0.17532 0.0
H3325 H 0.3768 0.19682 0.192 0.0
H3326 H 0.39753 0.28252 0.23889 0.0
H3327 H 0.35612 0.28109 0.2535 0.0
H3328 H 0.32543 0.23015 0.19134 0.0
C3329 C 0.41412 0.23401 0.15685 0.0
C3330 C 0.43854 0.24617 0.16051 0.0
C3331 C 0.44626 0.26235 0.18178 0.0
C3332 C 0.42957 0.2668 0.19878 0.0
C3333 C 0.40543 0.2547 0.1943 0.0
C3334 C 0.39791 0.23852 0.17385 0.0
C3335 C 0.371 0.22837 0.17233 0.0
C3336 C 0.35742 0.23418 0.14868 0.0
C3337 C 0.36689 0.20083 0.17488 0.0
C3338 C 0.36413 0.24225 0.19446 0.0
C3339 C 0.38415 0.25691 0.20742 0.0
C3340 C 0.38178 0.27109 0.22882 0.0
C3341 C 0.3583 0.27023 0.23697 0.0
C3342 C 0.3377 0.25583 0.22329 0.0
C3343 C 0.34083 0.24168 0.20193 0.0
H3344 H 0.61234 0.47621 0.37675 0.0
H3345 H 0.61003 0.55016 0.3597 0.0
H3346 H 0.58176 0.55478 0.3914 0.0
H3347 H 0.54652 0.46244 0.38866 0.0
H3348 H 0.55264 0.44381 0.41287 0.0
H3349 H 0.57164 0.44577 0.38792 0.0
H3350 H 0.6099 0.4592 0.41876 0.0
H3351 H 0.591 0.45782 0.44375 0.0
H3352 H 0.61133 0.48557 0.44015 0.0
H3353 H 0.55916 0.55346 0.42857 0.0
H3354 H 0.53879 0.54446 0.46558 0.0
H3355 H 0.55035 0.46981 0.45606 0.0
C3356 C 0.60536 0.49312 0.37942 0.0
C3357 C 0.61312 0.51285 0.3658 0.0
C3358 C 0.60403 0.53485 0.36987 0.0
C3359 C 0.58805 0.53763 0.38785 0.0
C3360 C 0.58094 0.51804 0.40128 0.0
C3361 C 0.58883 0.49601 0.39699 0.0
C3362 C 0.57839 0.47801 0.41426 0.0
C3363 C 0.56128 0.45622 0.40008 0.0
C3364 C 0.5989 0.46967 0.43016 0.0
C3365 C 0.56416 0.49364 0.42943 0.0
C3366 C 0.56605 0.51671 0.42165 0.0
C3367 C 0.55666 0.53518 0.43419 0.0
C3368 C 0.5448 0.52987 0.45504 0.0
C3369 C 0.54166 0.50617 0.46276 0.0
C3370 C 0.55161 0.48783 0.44987 0.0
H3371 H 0.26888 0.87098 0.0932 0.0
H3372 H 0.24566 0.8032 0.04733 0.0
H3373 H 0.25289 0.78008 0.08258 0.0
H3374 H 0.31614 0.85163 0.13129 0.0
H3375 H 0.30926 0.8674 0.15893 0.0
H3376 H 0.30293 0.87895 0.12996 0.0
H3377 H 0.25754 0.87781 0.13816 0.0
H3378 H 0.26387 0.86671 0.16731 0.0
H3379 H 0.23993 0.84986 0.14571 0.0
H3380 H 0.26382 0.7641 0.12261 0.0
H3381 H 0.27142 0.75674 0.16604 0.0
H3382 H 0.28554 0.83463 0.18592 0.0
C3383 C 0.26521 0.85129 0.09064 0.0
C3384 C 0.25679 0.83892 0.06752 0.0
C3385 C 0.25203 0.81311 0.06491 0.0
C3386 C 0.25628 0.79977 0.08477 0.0
C3387 C 0.26504 0.81247 0.10722 0.0
C3388 C 0.26898 0.83764 0.11039 0.0
C3389 C 0.27709 0.84678 0.13675 0.0
C3390 C 0.30289 0.86209 0.13937 0.0
C3391 C 0.2585 0.86113 0.14762 0.0
C3392 C 0.27708 0.82284 0.14781 0.0
C3393 C 0.27049 0.80325 0.13043 0.0
C3394 C 0.269 0.77929 0.13643 0.0
C3395 C 0.27355 0.77525 0.16104 0.0
C3396 C 0.27909 0.7951 0.17917 0.0
C3397 C 0.28138 0.81912 0.17234 0.0
H3398 H 0.91392 0.54105 0.88792 0.0
H3399 H 0.96287 0.52287 0.83453 0.0
H3400 H 0.99623 0.52592 0.86716 0.0
H3401 H 0.96094 0.58459 0.92803 0.0
H3402 H 0.94813 0.57513 0.95539 0.0
H3403 H 0.92854 0.57381 0.92754 0.0
H3404 H 0.91293 0.52787 0.93043 0.0
H3405 H 0.93217 0.52951 0.95845 0.0
H3406 H 0.93478 0.50752 0.93357 0.0
H3407 H 0.02308 0.5261 0.90595 0.0
H3408 H 0.04119 0.5245 0.94806 0.0
H3409 H 0.97601 0.54535 0.97586 0.0
C3410 C 0.93177 0.53816 0.88305 0.0
C3411 C 0.93568 0.53182 0.85859 0.0
C3412 C 0.95934 0.52798 0.85306 0.0
C3413 C 0.9785 0.52966 0.87148 0.0
C3414 C 0.97397 0.53562 0.8954 0.0
C3415 C 0.95128 0.54012 0.90121 0.0
C3416 C 0.95097 0.54506 0.92851 0.0
C3417 C 0.94691 0.57121 0.93525 0.0
C3418 C 0.93157 0.52637 0.9383 0.0
C3419 C 0.9767 0.54174 0.93708 0.0
C3420 C 0.98975 0.53644 0.91774 0.0
C3421 C 0.01323 0.53072 0.92128 0.0
C3422 C 0.02341 0.52991 0.94527 0.0
C3423 C 0.01009 0.53478 0.96535 0.0
C3424 C 0.98674 0.54147 0.96101 0.0
H3425 H 0.2787 0.19979 0.57023 0.0
H3426 H 0.24608 0.12685 0.58407 0.0
H3427 H 0.24275 0.14142 0.62681 0.0
H3428 H 0.31465 0.21477 0.62838 0.0
H3429 H 0.31033 0.24609 0.63081 0.0
H3430 H 0.30974 0.22992 0.60122 0.0
H3431 H 0.26691 0.2404 0.58935 0.0
H3432 H 0.26723 0.25635 0.61904 0.0
H3433 H 0.24242 0.23204 0.60814 0.0
H3434 H 0.24217 0.164 0.66787 0.0
H3435 H 0.24838 0.19198 0.70547 0.0
H3436 H 0.28238 0.25016 0.66546 0.0
C3437 C 0.27096 0.18686 0.58228 0.0
C3438 C 0.26262 0.16216 0.57376 0.0
C3439 C 0.25265 0.14583 0.59015 0.0
C3440 C 0.25055 0.15397 0.61445 0.0
C3441 C 0.2586 0.17848 0.62217 0.0
C3442 C 0.26888 0.19465 0.60668 0.0
C3443 C 0.27674 0.21991 0.61982 0.0
C3444 C 0.30451 0.22815 0.62008 0.0
C3445 C 0.26247 0.23825 0.6084 0.0
C3446 C 0.26944 0.21535 0.64515 0.0
C3447 C 0.25872 0.19141 0.64601 0.0
C3448 C 0.25058 0.1828 0.66743 0.0
C3449 C 0.25408 0.1989 0.6887 0.0
C3450 C 0.26586 0.22333 0.68851 0.0
C3451 C 0.27323 0.23166 0.66626 0.0
H3452 H 0.59616 0.5093 0.22875 0.0
H3453 H 0.66721 0.48858 0.22143 0.0
H3454 H 0.65837 0.48368 0.17652 0.0
H3455 H 0.56175 0.47022 0.17844 0.0
H3456 H 0.54411 0.49275 0.16889 0.0
H3457 H 0.5555 0.49345 0.20044 0.0
H3458 H 0.57701 0.538 0.19949 0.0
H3459 H 0.56583 0.53737 0.16788 0.0
H3460 H 0.59816 0.54521 0.17701 0.0
H3461 H 0.64203 0.48106 0.13288 0.0
H3462 H 0.61966 0.48141 0.0927 0.0
H3463 H 0.55965 0.50596 0.12767 0.0
C3464 C 0.60965 0.50339 0.21763 0.0
C3465 C 0.63224 0.49895 0.2284 0.0
C3466 C 0.64978 0.49193 0.2134 0.0
C3467 C 0.64492 0.48912 0.18795 0.0
C3468 C 0.62262 0.49393 0.17782 0.0
C3469 C 0.60532 0.5011 0.19212 0.0
C3470 C 0.58339 0.50632 0.17647 0.0
C3471 C 0.5598 0.48968 0.18135 0.0
C3472 C 0.58096 0.53333 0.18046 0.0
C3473 C 0.59074 0.5002 0.15116 0.0
C3474 C 0.6135 0.49322 0.15245 0.0
C3475 C 0.62424 0.48657 0.13163 0.0
C3476 C 0.61133 0.48685 0.10885 0.0
C3477 C 0.58787 0.49375 0.10696 0.0
C3478 C 0.57757 0.5007 0.12848 0.0
H3479 H 0.27065 0.86364 0.90911 0.0
H3480 H 0.21982 0.81876 0.94937 0.0
H3481 H 0.21452 0.78575 0.91597 0.0
H3482 H 0.24142 0.84378 0.84825 0.0
H3483 H 0.27035 0.84441 0.83548 0.0
H3484 H 0.26805 0.86475 0.86178 0.0
H3485 H 0.30341 0.8479 0.88483 0.0
H3486 H 0.30511 0.82715 0.85865 0.0
H3487 H 0.30031 0.8157 0.88778 0.0
H3488 H 0.217 0.75653 0.87908 0.0
H3489 H 0.22564 0.73468 0.84059 0.0
H3490 H 0.27495 0.79887 0.8256 0.0
C3491 C 0.25806 0.84708 0.91076 0.0
C3492 C 0.24558 0.84383 0.93178 0.0
C3493 C 0.22958 0.82164 0.93337 0.0
C3494 C 0.22646 0.80278 0.91453 0.0
C3495 C 0.23959 0.80635 0.89433 0.0
C3496 C 0.25503 0.82798 0.89234 0.0
C3497 C 0.268 0.82688 0.86942 0.0
C3498 C 0.26155 0.84611 0.85275 0.0
C3499 C 0.29585 0.82956 0.87554 0.0
C3500 C 0.25714 0.80142 0.85858 0.0
C3501 C 0.24094 0.78971 0.87325 0.0
C3502 C 0.22943 0.76562 0.86729 0.0
C3503 C 0.23443 0.75334 0.84556 0.0
C3504 C 0.25047 0.76543 0.83017 0.0
C3505 C 0.26208 0.78958 0.83689 0.0
H3506 H 0.91094 0.54002 0.70268 0.0
H3507 H 0.94328 0.48456 0.73764 0.0
H3508 H 0.96619 0.47785 0.70195 0.0
H3509 H 0.90585 0.51102 0.63974 0.0
H3510 H 0.91391 0.53955 0.62688 0.0
H3511 H 0.89848 0.53855 0.65433 0.0
H3512 H 0.93337 0.57132 0.67636 0.0
H3513 H 0.94896 0.57216 0.64903 0.0
H3514 H 0.96451 0.56595 0.67716 0.0
H3515 H 0.98736 0.4788 0.6641 0.0
H3516 H 0.00401 0.48581 0.62468 0.0
H3517 H 0.95867 0.54123 0.61431 0.0
C3518 C 0.92241 0.52611 0.70238 0.0
C3519 C 0.92523 0.51246 0.72247 0.0
C3520 C 0.94083 0.49488 0.72208 0.0
C3521 C 0.95392 0.49102 0.702 0.0
C3522 C 0.95128 0.50506 0.68259 0.0
C3523 C 0.93583 0.52215 0.68246 0.0
C3524 C 0.93725 0.53545 0.65963 0.0
C3525 C 0.91239 0.53086 0.64424 0.0
C3526 C 0.94658 0.56284 0.66594 0.0
C3527 C 0.95594 0.52323 0.64716 0.0
C3528 C 0.96379 0.50578 0.66073 0.0
C3529 C 0.98128 0.49232 0.65317 0.0
C3530 C 0.99072 0.49651 0.63085 0.0
C3531 C 0.9826 0.51399 0.61643 0.0
C3532 C 0.96517 0.52765 0.62488 0.0
H3533 H 0.2561 0.14395 0.40237 0.0
H3534 H 0.28009 0.19997 0.46224 0.0
H3535 H 0.28705 0.23075 0.43274 0.0
H3536 H 0.29839 0.16724 0.36053 0.0
H3537 H 0.27662 0.15986 0.33398 0.0
H3538 H 0.27364 0.14192 0.35961 0.0
H3539 H 0.22942 0.15013 0.36256 0.0
H3540 H 0.23215 0.16778 0.33671 0.0
H3541 H 0.22384 0.18106 0.36497 0.0
H3542 H 0.29174 0.25564 0.39653 0.0
H3543 H 0.29215 0.27278 0.35664 0.0
H3544 H 0.26441 0.20076 0.32033 0.0
C3545 C 0.26293 0.16266 0.40932 0.0
C3546 C 0.26765 0.16943 0.43476 0.0
C3547 C 0.27629 0.19424 0.44294 0.0
C3548 C 0.28037 0.21189 0.42629 0.0
C3549 C 0.27558 0.2046 0.40141 0.0
C3550 C 0.26689 0.18059 0.39294 0.0
C3551 C 0.2626 0.17768 0.36529 0.0
C3552 C 0.27879 0.16066 0.35421 0.0
C3553 C 0.23539 0.16863 0.3569 0.0
C3554 C 0.27051 0.20372 0.35953 0.0
C3555 C 0.27795 0.21897 0.38061 0.0
C3556 C 0.28595 0.24385 0.37991 0.0
C3557 C 0.28619 0.25342 0.35712 0.0
C3558 C 0.27838 0.23821 0.33522 0.0
C3559 C 0.27058 0.21297 0.33663 0.0
H3560 H 0.32762 0.58326 0.54374 0.0
H3561 H 0.33827 0.62238 0.47979 0.0
H3562 H 0.37304 0.60148 0.47119 0.0
H3563 H 0.39334 0.58107 0.56136 0.0
H3564 H 0.38633 0.55073 0.57063 0.0
H3565 H 0.36454 0.57115 0.57328 0.0
H3566 H 0.33175 0.53898 0.54748 0.0
H3567 H 0.35359 0.51873 0.54417 0.0
H3568 H 0.33774 0.52767 0.51749 0.0
H3569 H 0.40321 0.57325 0.46705 0.0
H3570 H 0.43107 0.54343 0.47051 0.0
H3571 H 0.40091 0.52223 0.53733 0.0
C3572 C 0.33804 0.58811 0.52858 0.0
C3573 C 0.331 0.60488 0.51278 0.0
C3574 C 0.34405 0.61005 0.49239 0.0
C3575 C 0.36359 0.5981 0.48728 0.0
C3576 C 0.3696 0.58095 0.50268 0.0
C3577 C 0.35754 0.57623 0.52317 0.0
C3578 C 0.3668 0.55599 0.53592 0.0
C3579 C 0.37845 0.5653 0.56183 0.0
C3580 C 0.34624 0.53405 0.53628 0.0
C3581 C 0.38581 0.55 0.51932 0.0
C3582 C 0.38697 0.56449 0.50018 0.0
C3583 C 0.40267 0.56196 0.48211 0.0
C3584 C 0.41828 0.54477 0.48413 0.0
C3585 C 0.41824 0.53043 0.50421 0.0
C3586 C 0.40138 0.53283 0.52173 0.0
H3587 H 0.85904 0.89376 0.53024 0.0
H3588 H 0.82687 0.94622 0.57324 0.0
H3589 H 0.86541 0.97576 0.57544 0.0
H3590 H 0.92047 0.91232 0.56603 0.0
H3591 H 0.93698 0.90626 0.54012 0.0
H3592 H 0.90727 0.88862 0.54247 0.0
H3593 H 0.88984 0.90136 0.49987 0.0
H3594 H 0.92117 0.91502 0.49817 0.0
H3595 H 0.89757 0.93303 0.49452 0.0
H3596 H 0.90496 0.0018 0.56687 0.0
H3597 H 0.94578 0.01961 0.55563 0.0
H3598 H 0.95369 0.94909 0.52149 0.0
C3599 C 0.86026 0.91147 0.54015 0.0
C3600 C 0.83967 0.91833 0.5505 0.0
C3601 C 0.84216 0.94114 0.56427 0.0
C3602 C 0.86401 0.95794 0.56575 0.0
C3603 C 0.88349 0.95135 0.55394 0.0
C3604 C 0.88215 0.92837 0.54207 0.0
C3605 C 0.90635 0.92552 0.53222 0.0
C3606 C 0.91849 0.90709 0.54604 0.0
C3607 C 0.90345 0.91827 0.50458 0.0
C3608 C 0.92053 0.95113 0.53834 0.0
C3609 C 0.90714 0.96569 0.55109 0.0
C3610 C 0.91586 0.99042 0.55739 0.0
C3611 C 0.93901 1.00044 0.55077 0.0
C3612 C 0.95317 0.98579 0.53788 0.0
C3613 C 0.94363 0.96079 0.53168 0.0
H3614 H 0.83824 0.06044 0.27723 0.0
H3615 H 0.89798 0.07315 0.23131 0.0
H3616 H 0.88914 0.1147 0.22674 0.0
H3617 H 0.7973 0.09136 0.24421 0.0
H3618 H 0.7852 0.10349 0.27097 0.0
H3619 H 0.79681 0.07526 0.27124 0.0
H3620 H 0.82658 0.09276 0.30927 0.0
H3621 H 0.81498 0.12102 0.30922 0.0
H3622 H 0.84729 0.12094 0.30835 0.0
H3623 H 0.87231 0.15426 0.22587 0.0
H3624 H 0.85076 0.18925 0.23022 0.0
H3625 H 0.80226 0.15071 0.27739 0.0
C3626 C 0.84968 0.0719 0.26628 0.0
C3627 C 0.86889 0.06336 0.25459 0.0
C3628 C 0.88328 0.07918 0.24053 0.0
C3629 C 0.87831 0.1028 0.23778 0.0
C3630 C 0.85899 0.11038 0.2493 0.0
C3631 C 0.84504 0.09542 0.26343 0.0
C3632 C 0.82519 0.10771 0.27378 0.0
C3633 C 0.79962 0.09361 0.26449 0.0
C3634 C 0.82873 0.1108 0.30182 0.0
C3635 C 0.83002 0.13205 0.26323 0.0
C3636 C 0.84953 0.13316 0.24908 0.0
C3637 C 0.85713 0.15358 0.23702 0.0
C3638 C 0.84466 0.1734 0.2396 0.0
C3639 C 0.82477 0.17288 0.25424 0.0
C3640 C 0.8174 0.1518 0.26616 0.0
H3641 H 0.69437 0.1167 0.98769 0.0
H3642 H 0.7315 0.12384 0.06058 0.0
H3643 H 0.69316 0.1058 0.07652 0.0
H3644 H 0.63684 0.12957 0.00386 0.0
H3645 H 0.6186 0.10688 0.98194 0.0
H3646 H 0.64891 0.12037 0.97592 0.0
H3647 H 0.65848 0.07796 0.96905 0.0
H3648 H 0.62999 0.06288 0.97734 0.0
H3649 H 0.65806 0.05807 0.99338 0.0
H3650 H 0.6507 0.08748 0.08478 0.0
H3651 H 0.60797 0.06615 0.08372 0.0
H3652 H 0.59895 0.06972 0.00539 0.0
C3653 C 0.69452 0.11383 0.00681 0.0
C3654 C 0.71593 0.12115 0.02289 0.0
C3655 C 0.71528 0.11791 0.04799 0.0
C3656 C 0.6936 0.10785 0.05723 0.0
C3657 C 0.67273 0.10086 0.04105 0.0
C3658 C 0.67304 0.10326 0.0163 0.0
C3659 C 0.64802 0.09369 0.00295 0.0
C3660 C 0.63747 0.11384 0.99045 0.0
C3661 C 0.64875 0.07179 0.98465 0.0
C3662 C 0.63385 0.08576 0.02397 0.0
C3663 C 0.6483 0.09018 0.04584 0.0
C3664 C 0.63923 0.08377 0.06769 0.0
C3665 C 0.61496 0.0717 0.06693 0.0
C3666 C 0.60026 0.06601 0.04444 0.0
C3667 C 0.60977 0.07366 0.02286 0.0
H3668 H 0.15452 0.4284 0.26643 0.0
H3669 H 0.20655 0.47338 0.32133 0.0
H3670 H 0.22745 0.43899 0.32778 0.0
H3671 H 0.15168 0.37242 0.29783 0.0
H3672 H 0.14976 0.35287 0.26998 0.0
H3673 H 0.13758 0.38084 0.26993 0.0
H3674 H 0.16465 0.39445 0.23576 0.0
H3675 H 0.17687 0.36654 0.23573 0.0
H3676 H 0.19725 0.39536 0.24036 0.0
H3677 H 0.24425 0.40096 0.32787 0.0
H3678 H 0.25574 0.36033 0.32104 0.0
H3679 H 0.19341 0.33901 0.26672 0.0
C3680 C 0.17016 0.43093 0.27992 0.0
C3681 C 0.17865 0.45374 0.29336 0.0
C3682 C 0.19936 0.4562 0.31079 0.0
C3683 C 0.21152 0.43672 0.31468 0.0
C3684 C 0.20282 0.41465 0.30119 0.0
C3685 C 0.1826 0.41146 0.28423 0.0
C3686 C 0.17759 0.38567 0.272 0.0
C3687 C 0.15267 0.37216 0.27778 0.0
C3688 C 0.1792 0.38551 0.24432 0.0
C3689 C 0.19848 0.37532 0.28438 0.0
C3690 C 0.21265 0.39234 0.30129 0.0
C3691 C 0.23324 0.38733 0.31478 0.0
C3692 C 0.23963 0.36423 0.31079 0.0
C3693 C 0.22552 0.34652 0.2934 0.0
C3694 C 0.20458 0.35216 0.28018 0.0
H3695 H 0.22256 0.45644 0.0366 0.0
H3696 H 0.19824 0.37989 0.04439 0.0
H3697 H 0.15546 0.38719 0.04336 0.0
H3698 H 0.17868 0.47901 0.07445 0.0
H3699 H 0.17492 0.50349 0.05589 0.0
H3700 H 0.20351 0.49225 0.05809 0.0
H3701 H 0.20036 0.48432 0.01104 0.0
H3702 H 0.17165 0.4953 0.00868 0.0
H3703 H 0.17355 0.46532 0.99522 0.0
H3704 H 0.11532 0.40275 0.04055 0.0
H3705 H 0.08079 0.42527 0.03758 0.0
H3706 H 0.13096 0.49186 0.03086 0.0
C3707 C 0.20829 0.44115 0.03819 0.0
C3708 C 0.21386 0.41749 0.0405 0.0
C3709 C 0.19455 0.39815 0.04273 0.0
C3710 C 0.17017 0.40213 0.04206 0.0
C3711 C 0.16538 0.4256 0.03937 0.0
C3712 C 0.18393 0.44482 0.0377 0.0
C3713 C 0.17393 0.46832 0.03506 0.0
C3714 C 0.18332 0.48686 0.05719 0.0
C3715 C 0.18025 0.47893 0.01106 0.0
C3716 C 0.14669 0.45922 0.03479 0.0
C3717 C 0.14224 0.43455 0.03756 0.0
C3718 C 0.11863 0.42204 0.03841 0.0
C3719 C 0.09912 0.43504 0.03672 0.0
C3720 C 0.10312 0.46033 0.03392 0.0
C3721 C 0.12728 0.47251 0.0327 0.0
H3722 H 0.88238 0.91518 0.26648 0.0
H3723 H 0.82996 0.94436 0.21996 0.0
H3724 H 0.80112 0.90554 0.21807 0.0
H3725 H 0.86724 0.85341 0.23296 0.0
H3726 H 0.87239 0.83795 0.25983 0.0
H3727 H 0.88943 0.86784 0.2575 0.0
H3728 H 0.87367 0.88512 0.29823 0.0
H3729 H 0.8599 0.85402 0.30036 0.0
H3730 H 0.8414 0.8774 0.30165 0.0
H3731 H 0.77613 0.86593 0.2256 0.0
H3732 H 0.75869 0.8252 0.2363 0.0
H3733 H 0.82827 0.81951 0.27516 0.0
C3734 C 0.86479 0.91326 0.25594 0.0
C3735 C 0.85774 0.93308 0.24435 0.0
C3736 C 0.83514 0.92971 0.22984 0.0
C3737 C 0.81876 0.90768 0.22852 0.0
C3738 C 0.82558 0.88893 0.24127 0.0
C3739 C 0.84828 0.89117 0.2542 0.0
C3740 C 0.85137 0.86756 0.26509 0.0
C3741 C 0.87129 0.85601 0.25313 0.0
C3742 C 0.85694 0.87134 0.29297 0.0
C3743 C 0.82622 0.85247 0.2578 0.0
C3744 C 0.81174 0.86514 0.24392 0.0
C3745 C 0.78742 0.85563 0.23605 0.0
C3746 C 0.77764 0.83248 0.24236 0.0
C3747 C 0.79208 0.81899 0.25648 0.0
C3748 C 0.81678 0.82919 0.26416 0.0
H3749 H 0.68318 0.06742 0.75437 0.0
H3750 H 0.62647 0.07689 0.80186 0.0
H3751 H 0.64048 0.12142 0.80597 0.0
H3752 H 0.7325 0.11835 0.7788 0.0
H3753 H 0.73875 0.12275 0.7481 0.0
H3754 H 0.72519 0.09304 0.75542 0.0
H3755 H 0.692 0.09826 0.71888 0.0
H3756 H 0.7052 0.12971 0.7175 0.0
H3757 H 0.67365 0.12175 0.72333 0.0
H3758 H 0.66296 0.16373 0.80815 0.0
H3759 H 0.6902 0.20249 0.80537 0.0
H3760 H 0.72946 0.1667 0.75238 0.0
C3761 C 0.67408 0.079 0.76588 0.0
C3762 C 0.65447 0.06898 0.77867 0.0
C3763 C 0.64192 0.08444 0.79249 0.0
C3764 C 0.6497 0.10964 0.79485 0.0
C3765 C 0.66926 0.11905 0.78228 0.0
C3766 C 0.68099 0.10435 0.76763 0.0
C3767 C 0.70006 0.1195 0.75445 0.0
C3768 C 0.7256 0.11287 0.75949 0.0
C3769 C 0.69225 0.11717 0.72691 0.0
C3770 C 0.69891 0.14473 0.76599 0.0
C3771 C 0.6807 0.14402 0.78165 0.0
C3772 C 0.67706 0.16464 0.79569 0.0
C3773 C 0.69275 0.18655 0.79408 0.0
C3774 C 0.71199 0.18765 0.77867 0.0
C3775 C 0.71477 0.16651 0.76412 0.0
loop_
_geom_bond_atom_site_label_1
_geom_bond_atom_site_label_2
_geom_bond_distance
_geom_bond_site_symmetry_2
_ccdc_geom_bond_type
Mn0 O5 2.095 . S
Mn0 O15 2.162 . S
Mn0 O16 2.297 . S
Mn0 O24 2.385 1_455 S
Mn0 O25 2.209 . S
Mn0 O26 2.094 . S
Mn1 O6 2.121 . S
Mn1 N8 2.257 . S
Mn1 N17 2.282 1_455 S
Mn1 O25 2.215 . S
Mn1 O27 2.117 . S
C2 O24 1.234 . S
C2 O25 1.283 1_655 S
C3 O15 1.281 . S
C3 O16 1.236 . S
C4 O26 1.240 . S
C4 O27 1.264 . S
O5 Mn0 2.095 . S
O5 C14 1.250 . S
O6 Mn1 2.121 . S
O6 C14 1.258 . S
C7 N8 1.326 . S
C7 C11 1.460 . S
C7 H13 0.929 . S
N8 Mn1 2.257 . S
N8 C7 1.326 . S
N8 C12 1.362 1_455 S
C9 C10 1.258 . S
C9 C12 1.431 . S
C9 C29 1.449 . S
C10 C9 1.258 . S
C10 C11 1.477 1_655 S
C10 H30 0.931 . S
C11 C7 1.460 . S
C11 C10 1.477 1_455 S
C11 H31 0.930 . S
C12 N8 1.362 1_655 S
C12 C9 1.431 . S
C12 C22 1.476 . S
H13 C7 0.929 . S
C14 O5 1.250 . S
C14 O6 1.258 . S
O15 Mn0 2.162 . S
O15 C3 1.281 . S
O16 Mn0 2.297 . S
O16 C3 1.236 . S
N17 Mn1 2.282 1_655 S
N17 C18 1.328 . S
N17 C22 1.318 . S
C18 N17 1.328 . S
C18 C19 1.457 . S
C18 H23 0.929 . S
C19 C18 1.457 . S
C19 C20 1.291 . S
C19 H32 0.931 . S
C20 C19 1.291 . S
C20 C21 1.373 . S
C20 H33 0.929 . S
C21 C20 1.373 . S
C21 C22 1.396 . S
C21 C28 1.403 . S
C22 C12 1.476 . S
C22 N17 1.318 . S
C22 C21 1.396 . S
H23 C18 0.929 . S
O24 Mn0 2.385 1_655 S
O24 C2 1.234 . S
O25 Mn0 2.209 . S
O25 Mn1 2.215 . S
O25 C2 1.283 1_455 S
O26 Mn0 2.094 . S
O26 C4 1.240 . S
O27 Mn1 2.117 . S
O27 C4 1.264 . S
C28 C21 1.403 . S
C28 C29 1.399 . S
C28 H34 0.929 . S
C29 C9 1.449 . S
C29 C28 1.399 . S
C29 H35 0.930 . S
H30 C10 0.931 . S
H31 C11 0.930 . S
H32 C19 0.931 . S
H33 C20 0.929 . S
H34 C28 0.929 . S
H35 C29 0.930 . S
Mn36 O41 2.095 1_455 S
Mn36 O51 2.162 . S
Mn36 O52 2.297 . S
Mn36 O60 2.385 . S
Mn36 O61 2.209 . S
Mn36 O62 2.094 . S
Mn37 O42 2.121 1_455 S
Mn37 N44 2.257 . S
Mn37 N53 2.282 . S
Mn37 O61 2.215 . S
Mn37 O63 2.117 . S
C38 O60 1.234 . S
C38 O61 1.283 . S
C39 O51 1.281 . S
C39 O52 1.236 . S
C40 O62 1.240 . S
C40 O63 1.264 . S
O41 Mn36 2.095 1_655 S
O41 C50 1.250 . S
O42 Mn37 2.121 1_655 S
O42 C50 1.258 . S
C43 N44 1.326 . S
C43 C47 1.460 . S
C43 H49 0.929 1_455 S
N44 Mn37 2.257 . S
N44 C43 1.326 . S
N44 C48 1.362 . S
C45 C46 1.258 . S
C45 C48 1.431 . S
C45 C65 1.449 . S
C46 C45 1.258 . S
C46 C47 1.477 . S
C46 H66 0.931 . S
C47 C43 1.460 . S
C47 C46 1.477 . S
C47 H67 0.930 . S
C48 N44 1.362 . S
C48 C45 1.431 . S
C48 C58 1.476 . S
H49 C43 0.929 1_655 S
C50 O41 1.250 . S
C50 O42 1.258 . S
O51 Mn36 2.162 . S
O51 C39 1.281 . S
O52 Mn36 2.297 . S
O52 C39 1.236 . S
N53 Mn37 2.282 . S
N53 C54 1.328 . S
N53 C58 1.318 . S
C54 N53 1.328 . S
C54 C55 1.457 . S
C54 H59 0.929 . S
C55 C54 1.457 . S
C55 C56 1.291 . S
C55 H68 0.931 . S
C56 C55 1.291 . S
C56 C57 1.373 . S
C56 H69 0.929 . S
C57 C56 1.373 . S
C57 C58 1.396 . S
C57 C64 1.403 . S
C58 C48 1.476 . S
C58 N53 1.318 . S
C58 C57 1.396 . S
H59 C54 0.929 . S
O60 Mn36 2.385 . S
O60 C38 1.234 . S
O61 Mn36 2.209 . S
O61 Mn37 2.215 . S
O61 C38 1.283 . S
O62 Mn36 2.094 . S
O62 C40 1.240 . S
O63 Mn37 2.117 . S
O63 C40 1.264 . S
C64 C57 1.403 . S
C64 C65 1.399 . S
C64 H70 0.929 . S
C65 C45 1.449 . S
C65 C64 1.399 . S
C65 H71 0.930 . S
H66 C46 0.931 . S
H67 C47 0.930 . S
H68 C55 0.931 . S
H69 C56 0.929 . S
H70 C64 0.929 . S
H71 C65 0.930 . S
Mn72 O77 2.095 . S
Mn72 O87 2.162 . S
Mn72 O88 2.297 . S
Mn72 O96 2.385 . S
Mn72 O97 2.209 . S
Mn72 O98 2.094 . S
Mn73 O78 2.121 . S
Mn73 N80 2.257 . S
Mn73 N89 2.282 . S
Mn73 O97 2.215 . S
Mn73 O99 2.117 . S
C74 O96 1.234 . S
C74 O97 1.283 . S
C75 O87 1.281 . S
C75 O88 1.236 . S
C76 O98 1.240 . S
C76 O99 1.264 . S
O77 Mn72 2.095 . S
O77 C86 1.250 . S
O78 Mn73 2.121 . S
O78 C86 1.258 . S
C79 N80 1.326 . S
C79 C83 1.460 . S
C79 H85 0.929 . S
N80 Mn73 2.257 . S
N80 C79 1.326 . S
N80 C84 1.362 . S
C81 C82 1.258 . S
C81 C84 1.431 . S
C81 C101 1.449 . S
C82 C81 1.258 . S
C82 C83 1.477 . S
C82 H102 0.931 . S
C83 C79 1.460 . S
C83 C82 1.477 . S
C83 H103 0.930 . S
C84 N80 1.362 . S
C84 C81 1.431 . S
C84 C94 1.476 . S
H85 C79 0.929 . S
C86 O77 1.250 . S
C86 O78 1.258 . S
O87 Mn72 2.162 . S
O87 C75 1.281 . S
O88 Mn72 2.297 . S
O88 C75 1.236 . S
N89 Mn73 2.282 . S
N89 C90 1.328 . S
N89 C94 1.318 . S
C90 N89 1.328 . S
C90 C91 1.457 . S
C90 H95 0.929 . S
C91 C90 1.457 . S
C91 C92 1.291 . S
C91 H104 0.931 . S
C92 C91 1.291 . S
C92 C93 1.373 . S
C92 H105 0.929 . S
C93 C92 1.373 . S
C93 C94 1.396 . S
C93 C100 1.403 . S
C94 C84 1.476 . S
C94 N89 1.318 . S
C94 C93 1.396 . S
H95 C90 0.929 . S
O96 Mn72 2.385 . S
O96 C74 1.234 . S
O97 Mn72 2.209 . S
O97 Mn73 2.215 . S
O97 C74 1.283 . S
O98 Mn72 2.094 . S
O98 C76 1.240 . S
O99 Mn73 2.117 . S
O99 C76 1.264 . S
C100 C93 1.403 . S
C100 C101 1.399 . S
C100 H106 0.929 . S
C101 C81 1.449 . S
C101 C100 1.399 . S
C101 H107 0.930 . S
H102 C82 0.931 . S
H103 C83 0.930 . S
H104 C91 0.931 . S
H105 C92 0.929 . S
H106 C100 0.929 . S
H107 C101 0.930 . S
Mn108 O113 2.095 . S
Mn108 O123 2.162 . S
Mn108 O124 2.297 . S
Mn108 O132 2.385 . S
Mn108 O133 2.209 . S
Mn108 O134 2.094 . S
Mn109 O114 2.121 . S
Mn109 N116 2.257 . S
Mn109 N125 2.282 . S
Mn109 O133 2.215 . S
Mn109 O135 2.117 . S
C110 O132 1.234 . S
C110 O133 1.283 . S
C111 O123 1.281 . S
C111 O124 1.236 . S
C112 O134 1.240 . S
C112 O135 1.264 . S
O113 Mn108 2.095 . S
O113 C122 1.250 . S
O114 Mn109 2.121 . S
O114 C122 1.258 . S
C115 N116 1.326 . S
C115 C119 1.460 . S
C115 H121 0.929 . S
N116 Mn109 2.257 . S
N116 C115 1.326 . S
N116 C120 1.362 . S
C117 C118 1.258 . S
C117 C120 1.431 . S
C117 C137 1.449 . S
C118 C117 1.258 . S
C118 C119 1.477 . S
C118 H138 0.932 . S
C119 C115 1.460 . S
C119 C118 1.477 . S
C119 H139 0.930 . S
C120 N116 1.362 . S
C120 C117 1.431 . S
C120 C130 1.476 . S
H121 C115 0.929 . S
C122 O113 1.250 . S
C122 O114 1.258 . S
O123 Mn108 2.162 . S
O123 C111 1.281 . S
O124 Mn108 2.297 . S
O124 C111 1.236 . S
N125 Mn109 2.282 . S
N125 C126 1.328 . S
N125 C130 1.318 . S
C126 N125 1.328 . S
C126 C127 1.457 . S
C126 H131 0.929 . S
C127 C126 1.457 . S
C127 C128 1.291 . S
C127 H140 0.931 . S
C128 C127 1.291 . S
C128 C129 1.373 . S
C128 H141 0.929 . S
C129 C128 1.373 . S
C129 C130 1.396 . S
C129 C136 1.403 . S
C130 C120 1.476 . S
C130 N125 1.318 . S
C130 C129 1.396 . S
H131 C126 0.929 . S
O132 Mn108 2.385 . S
O132 C110 1.234 . S
O133 Mn108 2.209 . S
O133 Mn109 2.215 . S
O133 C110 1.283 . S
O134 Mn108 2.094 . S
O134 C112 1.240 . S
O135 Mn109 2.117 . S
O135 C112 1.264 . S
C136 C129 1.403 . S
C136 C137 1.399 . S
C136 H142 0.929 . S
C137 C117 1.449 . S
C137 C136 1.399 . S
C137 H143 0.930 . S
H138 C118 0.932 . S
H139 C119 0.930 . S
H140 C127 0.931 . S
H141 C128 0.929 . S
H142 C136 0.929 . S
H143 C137 0.930 . S
Mn144 O149 2.095 . S
Mn144 O159 2.162 . S
Mn144 O160 2.297 . S
Mn144 O168 2.385 . S
Mn144 O169 2.209 . S
Mn144 O170 2.094 . S
Mn145 O150 2.121 1_655 S
Mn145 N152 2.257 . S
Mn145 N161 2.282 . S
Mn145 O169 2.215 1_655 S
Mn145 O171 2.117 . S
C146 O168 1.234 . S
C146 O169 1.283 . S
C147 O159 1.281 . S
C147 O160 1.236 . S
C148 O170 1.240 1_655 S
C148 O171 1.264 . S
O149 Mn144 2.095 . S
O149 C158 1.250 . S
O150 Mn145 2.121 1_455 S
O150 C158 1.258 . S
C151 N152 1.326 1_455 S
C151 C155 1.458 . S
C151 H157 0.929 . S
N152 Mn145 2.257 . S
N152 C151 1.326 1_655 S
N152 C156 1.362 . S
C153 C154 1.258 . S
C153 C156 1.431 . S
C153 C173 1.449 . S
C154 C153 1.258 . S
C154 C155 1.470 1_655 S
C154 H174 0.931 . S
C155 C151 1.458 . S
C155 C154 1.470 1_455 S
C155 H175 0.939 . S
C156 N152 1.362 . S
C156 C153 1.431 . S
C156 C166 1.476 . S
H157 C151 0.929 . S
C158 O149 1.250 . S
C158 O150 1.258 . S
O159 Mn144 2.162 . S
O159 C147 1.281 . S
O160 Mn144 2.297 . S
O160 C147 1.236 . S
N161 Mn145 2.282 . S
N161 C162 1.328 . S
N161 C166 1.318 . S
C162 N161 1.328 . S
C162 C163 1.457 . S
C162 H167 0.929 . S
C163 C162 1.457 . S
C163 C164 1.291 . S
C163 H176 0.931 . S
C164 C163 1.291 . S
C164 C165 1.373 . S
C164 H177 0.929 . S
C165 C164 1.373 . S
C165 C166 1.396 . S
C165 C172 1.403 . S
C166 C156 1.476 . S
C166 N161 1.318 . S
C166 C165 1.396 . S
H167 C162 0.929 . S
O168 Mn144 2.385 . S
O168 C146 1.234 . S
O169 Mn144 2.209 . S
O169 Mn145 2.215 1_455 S
O169 C146 1.283 . S
O170 Mn144 2.094 . S
O170 C148 1.240 1_455 S
O171 Mn145 2.117 . S
O171 C148 1.264 . S
C172 C165 1.403 . S
C172 C173 1.399 . S
C172 H178 0.929 . S
C173 C153 1.449 . S
C173 C172 1.399 . S
C173 H179 0.930 . S
H174 C154 0.931 . S
H175 C155 0.939 . S
H176 C163 0.931 . S
H177 C164 0.929 . S
H178 C172 0.929 . S
H179 C173 0.930 . S
Mn180 O185 2.095 . S
Mn180 O195 2.162 . S
Mn180 O196 2.297 . S
Mn180 O204 2.385 . S
Mn180 O205 2.209 . S
Mn180 O206 2.094 . S
Mn181 O186 2.121 . S
Mn181 N188 2.257 . S
Mn181 N197 2.282 . S
Mn181 O205 2.215 . S
Mn181 O207 2.117 . S
C182 O204 1.234 . S
C182 O205 1.283 . S
C183 O195 1.281 . S
C183 O196 1.236 . S
C184 O206 1.240 . S
C184 O207 1.264 . S
O185 Mn180 2.095 . S
O185 C194 1.250 . S
O186 Mn181 2.121 . S
O186 C194 1.258 . S
C187 N188 1.326 . S
C187 C191 1.460 . S
C187 H193 0.929 . S
N188 Mn181 2.257 . S
N188 C187 1.326 . S
N188 C192 1.362 . S
C189 C190 1.258 . S
C189 C192 1.431 . S
C189 C209 1.449 . S
C190 C189 1.258 . S
C190 C191 1.477 . S
C190 H210 0.931 . S
C191 C187 1.460 . S
C191 C190 1.477 . S
C191 H211 0.930 . S
C192 N188 1.362 . S
C192 C189 1.431 . S
C192 C202 1.476 . S
H193 C187 0.929 . S
C194 O185 1.250 . S
C194 O186 1.258 . S
O195 Mn180 2.162 . S
O195 C183 1.281 . S
O196 Mn180 2.297 . S
O196 C183 1.236 . S
N197 Mn181 2.282 . S
N197 C198 1.328 . S
N197 C202 1.318 . S
C198 N197 1.328 . S
C198 C199 1.457 . S
C198 H203 0.929 . S
C199 C198 1.457 . S
C199 C200 1.291 . S
C199 H212 0.931 . S
C200 C199 1.291 . S
C200 C201 1.373 . S
C200 H213 0.929 . S
C201 C200 1.373 . S
C201 C202 1.396 . S
C201 C208 1.403 . S
C202 C192 1.476 . S
C202 N197 1.318 . S
C202 C201 1.396 . S
H203 C198 0.929 . S
O204 Mn180 2.385 . S
O204 C182 1.234 . S
O205 Mn180 2.209 . S
O205 Mn181 2.215 . S
O205 C182 1.283 . S
O206 Mn180 2.094 . S
O206 C184 1.240 . S
O207 Mn181 2.117 . S
O207 C184 1.264 . S
C208 C201 1.403 . S
C208 C209 1.399 . S
C208 H214 0.929 . S
C209 C189 1.449 . S
C209 C208 1.399 . S
C209 H215 0.930 . S
H210 C190 0.931 . S
H211 C191 0.930 . S
H212 C199 0.931 . S
H213 C200 0.929 . S
H214 C208 0.929 . S
H215 C209 0.930 . S
Mn216 O221 2.095 . S
Mn216 O231 2.162 . S
Mn216 O232 2.297 . S
Mn216 O240 2.385 . S
Mn216 O241 2.209 . S
Mn216 O242 2.094 . S
Mn217 O222 2.121 . S
Mn217 N224 2.257 . S
Mn217 N233 2.282 . S
Mn217 O241 2.215 . S
Mn217 O243 2.117 . S
C218 O240 1.234 . S
C218 O241 1.283 . S
C219 O231 1.281 . S
C219 O232 1.236 . S
C220 O242 1.240 . S
C220 O243 1.264 . S
O221 Mn216 2.095 . S
O221 C230 1.250 . S
O222 Mn217 2.121 . S
O222 C230 1.258 . S
C223 N224 1.326 . S
C223 C227 1.460 . S
C223 H229 0.929 . S
N224 Mn217 2.257 . S
N224 C223 1.326 . S
N224 C228 1.362 . S
C225 C226 1.258 . S
C225 C228 1.431 . S
C225 C245 1.449 . S
C226 C225 1.258 . S
C226 C227 1.477 . S
C226 H246 0.931 . S
C227 C223 1.460 . S
C227 C226 1.477 . S
C227 H247 0.930 . S
C228 N224 1.362 . S
C228 C225 1.431 . S
C228 C238 1.476 . S
H229 C223 0.929 . S
C230 O221 1.250 . S
C230 O222 1.258 . S
O231 Mn216 2.162 . S
O231 C219 1.281 . S
O232 Mn216 2.297 . S
O232 C219 1.236 . S
N233 Mn217 2.282 . S
N233 C234 1.328 . S
N233 C238 1.318 . S
C234 N233 1.328 . S
C234 C235 1.457 . S
C234 H239 0.929 . S
C235 C234 1.457 . S
C235 C236 1.291 . S
C235 H248 0.931 . S
C236 C235 1.291 . S
C236 C237 1.373 . S
C236 H249 0.929 . S
C237 C236 1.373 . S
C237 C238 1.396 . S
C237 C244 1.403 . S
C238 C228 1.476 . S
C238 N233 1.318 . S
C238 C237 1.396 . S
H239 C234 0.929 . S
O240 Mn216 2.385 . S
O240 C218 1.234 . S
O241 Mn216 2.209 . S
O241 Mn217 2.215 . S
O241 C218 1.283 . S
O242 Mn216 2.094 . S
O242 C220 1.240 . S
O243 Mn217 2.117 . S
O243 C220 1.264 . S
C244 C237 1.403 . S
C244 C245 1.399 . S
C244 H250 0.929 . S
C245 C225 1.449 . S
C245 C244 1.399 . S
C245 H251 0.930 . S
H246 C226 0.931 . S
H247 C227 0.930 . S
H248 C235 0.931 . S
H249 C236 0.929 . S
H250 C244 0.929 . S
H251 C245 0.930 . S
Mn252 O257 2.054 1_655 S
Mn252 O267 2.156 1_655 S
Mn252 O268 2.294 . S
Mn252 O276 2.430 . S
Mn252 O277 2.229 . S
Mn252 O278 2.098 1_655 S
Mn253 O258 2.121 1_655 S
Mn253 N260 2.257 . S
Mn253 N269 2.282 . S
Mn253 O277 2.215 . S
Mn253 O279 2.117 1_655 S
C254 O276 1.234 . S
C254 O277 1.283 . S
C255 O267 1.282 1_655 S
C255 O268 1.236 . S
C256 O278 1.240 . S
C256 O279 1.264 . S
O257 Mn252 2.054 1_455 S
O257 C266 1.250 . S
O258 Mn253 2.121 1_455 S
O258 C266 1.258 . S
C259 N260 1.326 . S
C259 C263 1.460 . S
C259 H265 0.929 1_655 S
N260 Mn253 2.257 . S
N260 C259 1.326 . S
N260 C264 1.362 . S
C261 C262 1.258 . S
C261 C264 1.431 . S
C261 C281 1.449 . S
C262 C261 1.258 . S
C262 C263 1.477 . S
C262 H282 0.931 . S
C263 C259 1.460 . S
C263 C262 1.477 . S
C263 H283 0.930 . S
C264 N260 1.362 . S
C264 C261 1.431 . S
C264 C274 1.476 . S
H265 C259 0.929 1_455 S
C266 O257 1.250 . S
C266 O258 1.258 . S
O267 Mn252 2.156 1_455 S
O267 C255 1.282 1_455 S
O268 Mn252 2.294 . S
O268 C255 1.236 . S
N269 Mn253 2.282 . S
N269 C270 1.328 . S
N269 C274 1.318 . S
C270 N269 1.328 . S
C270 C271 1.457 . S
C270 H275 0.929 . S
C271 C270 1.457 . S
C271 C272 1.291 . S
C271 H284 0.931 . S
C272 C271 1.291 . S
C272 C273 1.373 . S
C272 H285 0.929 . S
C273 C272 1.373 . S
C273 C274 1.396 . S
C273 C280 1.403 . S
C274 C264 1.476 . S
C274 N269 1.318 . S
C274 C273 1.396 . S
H275 C270 0.929 . S
O276 Mn252 2.430 . S
O276 C254 1.234 . S
O277 Mn252 2.229 . S
O277 Mn253 2.215 . S
O277 C254 1.283 . S
O278 Mn252 2.098 1_455 S
O278 C256 1.240 . S
O279 Mn253 2.117 1_455 S
O279 C256 1.264 . S
C280 C273 1.403 . S
C280 C281 1.399 . S
C280 H286 0.929 . S
C281 C261 1.449 . S
C281 C280 1.399 . S
C281 H287 0.930 . S
H282 C262 0.931 . S
H283 C263 0.930 . S
H284 C271 0.931 . S
H285 C272 0.929 . S
H286 C280 0.929 . S
H287 C281 0.930 . S
Mn288 O293 2.095 . S
Mn288 O303 2.162 . S
Mn288 O304 2.297 . S
Mn288 O312 2.385 1_545 S
Mn288 O313 2.209 1_545 S
Mn288 O314 2.094 . S
Mn289 O294 2.121 . S
Mn289 N296 2.253 1_545 S
Mn289 N305 2.282 1_545 S
Mn289 O313 2.215 1_545 S
Mn289 O315 2.117 . S
C290 O312 1.234 . S
C290 O313 1.283 . S
C291 O303 1.281 . S
C291 O304 1.236 . S
C292 O314 1.240 . S
C292 O315 1.264 . S
O293 Mn288 2.095 . S
O293 C302 1.250 . S
O294 Mn289 2.121 . S
O294 C302 1.258 . S
C295 N296 1.314 1_545 S
C295 C299 1.460 1_545 S
C295 H301 0.929 . S
N296 Mn289 2.253 1_565 S
N296 C295 1.314 1_565 S
N296 C300 1.380 . S
C297 C298 1.258 . S
C297 C300 1.431 . S
C297 C317 1.449 . S
C298 C297 1.258 . S
C298 C299 1.476 . S
C298 H318 0.931 . S
C299 C295 1.460 1_565 S
C299 C298 1.476 . S
C299 H319 0.931 1_565 S
C300 N296 1.380 . S
C300 C297 1.431 . S
C300 C310 1.476 . S
H301 C295 0.929 . S
C302 O293 1.250 . S
C302 O294 1.258 . S
O303 Mn288 2.162 . S
O303 C291 1.281 . S
O304 Mn288 2.297 . S
O304 C291 1.236 . S
N305 Mn289 2.282 1_565 S
N305 C306 1.328 . S
N305 C310 1.318 . S
C306 N305 1.328 . S
C306 C307 1.457 . S
C306 H311 0.929 . S
C307 C306 1.457 . S
C307 C308 1.291 . S
C307 H320 0.931 . S
C308 C307 1.291 . S
C308 C309 1.373 . S
C308 H321 0.929 . S
C309 C308 1.373 . S
C309 C310 1.396 . S
C309 C316 1.403 . S
C310 C300 1.476 . S
C310 N305 1.318 . S
C310 C309 1.396 . S
H311 C306 0.929 . S
O312 Mn288 2.385 1_565 S
O312 C290 1.234 . S
O313 Mn288 2.209 1_565 S
O313 Mn289 2.215 1_565 S
O313 C290 1.283 . S
O314 Mn288 2.094 . S
O314 C292 1.240 . S
O315 Mn289 2.117 . S
O315 C292 1.264 . S
C316 C309 1.403 . S
C316 C317 1.399 . S
C316 H322 0.929 . S
C317 C297 1.449 . S
C317 C316 1.399 . S
C317 H323 0.930 . S
H318 C298 0.931 . S
H319 C299 0.931 1_545 S
H320 C307 0.931 . S
H321 C308 0.929 . S
H322 C316 0.929 . S
H323 C317 0.930 . S
Mn324 O329 2.095 . S
Mn324 O339 2.162 . S
Mn324 O340 2.297 . S
Mn324 O348 2.385 . S
Mn324 O349 2.209 . S
Mn324 O350 2.094 . S
Mn325 O330 2.121 . S
Mn325 N332 2.257 . S
Mn325 N341 2.282 . S
Mn325 O349 2.215 . S
Mn325 O351 2.117 . S
C326 O348 1.234 . S
C326 O349 1.283 . S
C327 O339 1.281 . S
C327 O340 1.236 . S
C328 O350 1.240 . S
C328 O351 1.264 . S
O329 Mn324 2.095 . S
O329 C338 1.250 . S
O330 Mn325 2.121 . S
O330 C338 1.258 . S
C331 N332 1.326 . S
C331 C335 1.460 . S
C331 H337 0.929 . S
N332 Mn325 2.257 . S
N332 C331 1.326 . S
N332 C336 1.362 . S
C333 C334 1.258 . S
C333 C336 1.431 . S
C333 C353 1.449 . S
C334 C333 1.258 . S
C334 C335 1.477 . S
C334 H354 0.931 1_545 S
C335 C331 1.460 . S
C335 C334 1.477 . S
C335 H355 0.930 . S
C336 N332 1.362 . S
C336 C333 1.431 . S
C336 C346 1.476 . S
H337 C331 0.929 . S
C338 O329 1.250 . S
C338 O330 1.258 . S
O339 Mn324 2.162 . S
O339 C327 1.281 . S
O340 Mn324 2.297 . S
O340 C327 1.236 . S
N341 Mn325 2.282 . S
N341 C342 1.328 . S
N341 C346 1.318 . S
C342 N341 1.328 . S
C342 C343 1.457 . S
C342 H347 0.929 . S
C343 C342 1.457 . S
C343 C344 1.291 . S
C343 H356 0.931 . S
C344 C343 1.291 . S
C344 C345 1.373 . S
C344 H357 0.929 . S
C345 C344 1.373 . S
C345 C346 1.396 . S
C345 C352 1.403 . S
C346 C336 1.476 . S
C346 N341 1.318 . S
C346 C345 1.396 . S
H347 C342 0.929 . S
O348 Mn324 2.385 . S
O348 C326 1.234 . S
O349 Mn324 2.209 . S
O349 Mn325 2.215 . S
O349 C326 1.283 . S
O350 Mn324 2.094 . S
O350 C328 1.240 . S
O351 Mn325 2.117 . S
O351 C328 1.264 . S
C352 C345 1.403 . S
C352 C353 1.399 . S
C352 H358 0.929 . S
C353 C333 1.449 . S
C353 C352 1.399 . S
C353 H359 0.930 . S
H354 C334 0.931 1_565 S
H355 C335 0.930 . S
H356 C343 0.931 . S
H357 C344 0.929 . S
H358 C352 0.929 . S
H359 C353 0.930 . S
Mn360 O365 2.095 1_545 S
Mn360 O375 2.162 1_545 S
Mn360 O376 2.297 . S
Mn360 O384 2.385 . S
Mn360 O385 2.209 . S
Mn360 O386 2.094 . S
Mn361 O366 2.121 1_545 S
Mn361 N368 2.257 . S
Mn361 N377 2.282 . S
Mn361 O385 2.215 . S
Mn361 O387 2.117 . S
C362 O384 1.234 . S
C362 O385 1.283 . S
C363 O375 1.280 1_545 S
C363 O376 1.236 . S
C364 O386 1.240 . S
C364 O387 1.264 . S
O365 Mn360 2.095 1_565 S
O365 C374 1.250 . S
O366 Mn361 2.121 1_565 S
O366 C374 1.258 . S
C367 N368 1.326 . S
C367 C371 1.460 . S
C367 H373 0.929 . S
N368 Mn361 2.257 . S
N368 C367 1.326 . S
N368 C372 1.362 . S
C369 C370 1.258 . S
C369 C372 1.431 . S
C369 C389 1.449 . S
C370 C369 1.258 . S
C370 C371 1.477 . S
C370 H390 0.931 . S
C371 C367 1.460 . S
C371 C370 1.477 . S
C371 H391 0.930 . S
C372 N368 1.362 . S
C372 C369 1.431 . S
C372 C382 1.476 . S
H373 C367 0.929 . S
C374 O365 1.250 . S
C374 O366 1.258 . S
O375 Mn360 2.162 1_565 S
O375 C363 1.280 1_565 S
O376 Mn360 2.297 . S
O376 C363 1.236 . S
N377 Mn361 2.282 . S
N377 C378 1.328 . S
N377 C382 1.318 . S
C378 N377 1.328 . S
C378 C379 1.457 . S
C378 H383 0.929 . S
C379 C378 1.457 . S
C379 C380 1.291 . S
C379 H392 0.931 . S
C380 C379 1.291 . S
C380 C381 1.373 . S
C380 H393 0.929 . S
C381 C380 1.373 . S
C381 C382 1.396 . S
C381 C388 1.403 . S
C382 C372 1.476 . S
C382 N377 1.318 . S
C382 C381 1.396 . S
H383 C378 0.929 . S
O384 Mn360 2.385 . S
O384 C362 1.234 . S
O385 Mn360 2.209 . S
O385 Mn361 2.215 . S
O385 C362 1.283 . S
O386 Mn360 2.094 . S
O386 C364 1.240 . S
O387 Mn361 2.117 . S
O387 C364 1.264 . S
C388 C381 1.403 . S
C388 C389 1.399 . S
C388 H394 0.929 . S
C389 C369 1.449 . S
C389 C388 1.399 . S
C389 H395 0.930 . S
H390 C370 0.931 . S
H391 C371 0.930 . S
H392 C379 0.931 . S
H393 C380 0.929 . S
H394 C388 0.929 . S
H395 C389 0.930 . S
Mn396 O401 2.095 . S
Mn396 O411 2.162 . S
Mn396 O412 2.297 . S
Mn396 O420 2.385 . S
Mn396 O421 2.209 . S
Mn396 O422 2.094 1_554 S
Mn397 O402 2.121 . S
Mn397 N404 2.257 . S
Mn397 N413 2.282 . S
Mn397 O421 2.215 1_556 S
Mn397 O423 2.117 . S
C398 O420 1.234 . S
C398 O421 1.283 . S
C399 O411 1.281 . S
C399 O412 1.236 . S
C400 O422 1.240 . S
C400 O423 1.264 . S
O401 Mn396 2.095 . S
O401 C410 1.250 . S
O402 Mn397 2.121 . S
O402 C410 1.258 1_556 S
C403 N404 1.339 . S
C403 C407 1.460 1_556 S
C403 H409 0.917 1_556 S
N404 Mn397 2.257 . S
N404 C403 1.339 . S
N404 C408 1.362 . S
C405 C406 1.268 . S
C405 C408 1.431 . S
C405 C425 1.449 . S
C406 C405 1.268 . S
C406 C407 1.480 1_556 S
C406 H426 0.918 1_565 S
C407 C403 1.460 1_554 S
C407 C406 1.480 1_554 S
C407 H427 0.930 1_565 S
C408 N404 1.362 . S
C408 C405 1.431 . S
C408 C418 1.476 . S
H409 C403 0.917 1_554 S
C410 O401 1.250 . S
C410 O402 1.258 1_554 S
O411 Mn396 2.162 . S
O411 C399 1.281 . S
O412 Mn396 2.297 . S
O412 C399 1.236 . S
N413 Mn397 2.282 . S
N413 C414 1.328 . S
N413 C418 1.318 . S
C414 N413 1.328 . S
C414 C415 1.457 . S
C414 H419 0.929 . S
C415 C414 1.457 . S
C415 C416 1.291 . S
C415 H428 0.931 . S
C416 C415 1.291 . S
C416 C417 1.373 . S
C416 H429 0.929 . S
C417 C416 1.373 . S
C417 C418 1.396 . S
C417 C424 1.403 . S
C418 C408 1.476 . S
C418 N413 1.318 . S
C418 C417 1.396 . S
H419 C414 0.929 . S
O420 Mn396 2.385 . S
O420 C398 1.234 . S
O421 Mn396 2.209 . S
O421 Mn397 2.215 1_554 S
O421 C398 1.283 . S
O422 Mn396 2.094 1_556 S
O422 C400 1.240 . S
O423 Mn397 2.117 . S
O423 C400 1.264 . S
C424 C417 1.403 . S
C424 C425 1.399 . S
C424 H430 0.929 . S
C425 C405 1.449 . S
C425 C424 1.399 . S
C425 H431 0.930 1_565 S
H426 C406 0.918 1_545 S
H427 C407 0.930 1_545 S
H428 C415 0.931 . S
H429 C416 0.929 . S
H430 C424 0.929 . S
H431 C425 0.930 1_545 S
Mn432 O437 2.095 . S
Mn432 O447 2.162 . S
Mn432 O448 2.297 . S
Mn432 O456 2.385 . S
Mn432 O457 2.209 . S
Mn432 O458 2.094 . S
Mn433 O438 2.121 . S
Mn433 N440 2.257 . S
Mn433 N449 2.282 1_554 S
Mn433 O457 2.215 . S
Mn433 O459 2.117 1_554 S
C434 O456 1.234 . S
C434 O457 1.283 . S
C435 O447 1.281 . S
C435 O448 1.236 . S
C436 O458 1.240 1_556 S
C436 O459 1.264 . S
O437 Mn432 2.095 . S
O437 C446 1.250 . S
O438 Mn433 2.121 . S
O438 C446 1.258 . S
C439 N440 1.326 . S
C439 C443 1.460 . S
C439 H445 0.929 . S
N440 Mn433 2.257 . S
N440 C439 1.326 . S
N440 C444 1.362 . S
C441 C442 1.258 . S
C441 C444 1.431 . S
C441 C461 1.441 1_554 S
C442 C441 1.258 . S
C442 C443 1.477 . S
C442 H462 0.931 . S
C443 C439 1.460 . S
C443 C442 1.477 . S
C443 H463 0.930 . S
C444 N440 1.362 . S
C444 C441 1.431 . S
C444 C454 1.476 1_554 S
H445 C439 0.929 . S
C446 O437 1.250 . S
C446 O438 1.258 . S
O447 Mn432 2.162 . S
O447 C435 1.281 . S
O448 Mn432 2.297 . S
O448 C435 1.236 . S
N449 Mn433 2.282 1_556 S
N449 C450 1.328 . S
N449 C454 1.318 . S
C450 N449 1.328 . S
C450 C451 1.457 . S
C450 H455 0.929 . S
C451 C450 1.457 . S
C451 C452 1.291 . S
C451 H464 0.931 . S
C452 C451 1.291 . S
C452 C453 1.373 . S
C452 H465 0.929 . S
C453 C452 1.373 . S
C453 C454 1.396 . S
C453 C460 1.403 . S
C454 C444 1.476 1_556 S
C454 N449 1.318 . S
C454 C453 1.396 . S
H455 C450 0.929 . S
O456 Mn432 2.385 . S
O456 C434 1.234 . S
O457 Mn432 2.209 . S
O457 Mn433 2.215 . S
O457 C434 1.283 . S
O458 Mn432 2.094 . S
O458 C436 1.240 1_554 S
O459 Mn433 2.117 1_556 S
O459 C436 1.264 . S
C460 C453 1.403 . S
C460 C461 1.407 . S
C460 H466 0.929 . S
C461 C441 1.441 1_556 S
C461 C460 1.407 . S
C461 H467 0.934 1_556 S
H462 C442 0.931 . S
H463 C443 0.930 . S
H464 C451 0.931 . S
H465 C452 0.929 . S
H466 C460 0.929 . S
H467 C461 0.934 1_554 S
Mn468 O473 2.095 . S
Mn468 O483 2.162 . S
Mn468 O484 2.297 . S
Mn468 O492 2.385 . S
Mn468 O493 2.209 . S
Mn468 O494 2.096 1_554 S
Mn469 O474 2.121 1_556 S
Mn469 N476 2.257 . S
Mn469 N485 2.282 . S
Mn469 O493 2.215 1_556 S
Mn469 O495 2.117 . S
C470 O492 1.234 . S
C470 O493 1.283 . S
C471 O483 1.281 . S
C471 O484 1.236 . S
C472 O494 1.238 . S
C472 O495 1.264 . S
O473 Mn468 2.095 . S
O473 C482 1.250 . S
O474 Mn469 2.121 1_554 S
O474 C482 1.258 . S
C475 N476 1.338 . S
C475 C479 1.458 . S
C475 H481 0.920 1_556 S
N476 Mn469 2.257 . S
N476 C475 1.338 . S
N476 C480 1.362 . S
C477 C478 1.258 . S
C477 C480 1.431 . S
C477 C497 1.449 . S
C478 C477 1.258 . S
C478 C479 1.477 . S
C478 H498 0.908 1_545 S
C479 C475 1.458 . S
C479 C478 1.477 . S
C479 H499 0.930 1_556 S
C480 N476 1.362 . S
C480 C477 1.431 . S
C480 C490 1.476 . S
H481 C475 0.920 1_554 S
C482 O473 1.250 . S
C482 O474 1.258 . S
O483 Mn468 2.162 . S
O483 C471 1.281 . S
O484 Mn468 2.297 . S
O484 C471 1.236 . S
N485 Mn469 2.282 . S
N485 C486 1.328 . S
N485 C490 1.318 . S
C486 N485 1.328 . S
C486 C487 1.457 . S
C486 H491 0.929 . S
C487 C486 1.457 . S
C487 C488 1.291 . S
C487 H500 0.931 . S
C488 C487 1.291 . S
C488 C489 1.373 . S
C488 H501 0.929 . S
C489 C488 1.373 . S
C489 C490 1.396 . S
C489 C496 1.403 . S
C490 C480 1.476 . S
C490 N485 1.318 . S
C490 C489 1.396 . S
H491 C486 0.929 . S
O492 Mn468 2.385 . S
O492 C470 1.234 . S
O493 Mn468 2.209 . S
O493 Mn469 2.215 1_554 S
O493 C470 1.283 . S
O494 Mn468 2.096 1_556 S
O494 C472 1.238 . S
O495 Mn469 2.117 . S
O495 C472 1.264 . S
C496 C489 1.403 . S
C496 C497 1.399 . S
C496 H502 0.929 . S
C497 C477 1.449 . S
C497 C496 1.399 . S
C497 H503 0.930 . S
H498 C478 0.908 1_565 S
H499 C479 0.930 1_554 S
H500 C487 0.931 . S
H501 C488 0.929 . S
H502 C496 0.929 . S
H503 C497 0.930 . S
Mn504 O509 2.095 . S
Mn504 O519 2.162 . S
Mn504 O520 2.297 . S
Mn504 O528 2.385 . S
Mn504 O529 2.209 . S
Mn504 O530 2.094 . S
Mn505 O510 2.121 . S
Mn505 N512 2.257 . S
Mn505 N521 2.282 . S
Mn505 O529 2.215 . S
Mn505 O531 2.117 . S
C506 O528 1.234 . S
C506 O529 1.283 . S
C507 O519 1.281 . S
C507 O520 1.236 . S
C508 O530 1.240 . S
C508 O531 1.264 . S
O509 Mn504 2.095 . S
O509 C518 1.250 . S
O510 Mn505 2.121 . S
O510 C518 1.258 . S
C511 N512 1.326 . S
C511 C515 1.460 . S
C511 H517 0.929 . S
N512 Mn505 2.257 . S
N512 C511 1.326 . S
N512 C516 1.362 . S
C513 C514 1.258 . S
C513 C516 1.431 . S
C513 C533 1.449 . S
C514 C513 1.258 . S
C514 C515 1.477 . S
C514 H534 0.931 . S
C515 C511 1.460 . S
C515 C514 1.477 . S
C515 H535 0.930 . S
C516 N512 1.362 . S
C516 C513 1.431 . S
C516 C526 1.476 . S
H517 C511 0.929 . S
C518 O509 1.250 . S
C518 O510 1.258 . S
O519 Mn504 2.162 . S
O519 C507 1.281 . S
O520 Mn504 2.297 . S
O520 C507 1.236 . S
N521 Mn505 2.282 . S
N521 C522 1.328 . S
N521 C526 1.318 . S
C522 N521 1.328 . S
C522 C523 1.457 . S
C522 H527 0.929 . S
C523 C522 1.457 . S
C523 C524 1.291 . S
C523 H536 0.931 . S
C524 C523 1.291 . S
C524 C525 1.373 . S
C524 H537 0.929 . S
C525 C524 1.373 . S
C525 C526 1.396 . S
C525 C532 1.403 . S
C526 C516 1.476 . S
C526 N521 1.318 . S
C526 C525 1.396 . S
H527 C522 0.929 . S
O528 Mn504 2.385 . S
O528 C506 1.234 . S
O529 Mn504 2.209 . S
O529 Mn505 2.215 . S
O529 C506 1.283 . S
O530 Mn504 2.094 . S
O530 C508 1.240 . S
O531 Mn505 2.117 . S
O531 C508 1.264 . S
C532 C525 1.403 . S
C532 C533 1.399 . S
C532 H538 0.929 . S
C533 C513 1.449 . S
C533 C532 1.399 . S
C533 H539 0.930 . S
H534 C514 0.931 . S
H535 C515 0.930 . S
H536 C523 0.931 . S
H537 C524 0.929 . S
H538 C532 0.929 . S
H539 C533 0.930 . S
Mn540 O545 2.095 . S
Mn540 O555 2.162 . S
Mn540 O556 2.297 . S
Mn540 O564 2.385 . S
Mn540 O565 2.209 . S
Mn540 O566 2.094 . S
Mn541 O546 2.121 . S
Mn541 N548 2.257 . S
Mn541 N557 2.282 . S
Mn541 O565 2.215 . S
Mn541 O567 2.117 . S
C542 O564 1.234 . S
C542 O565 1.283 . S
C543 O555 1.281 . S
C543 O556 1.236 . S
C544 O566 1.240 . S
C544 O567 1.264 . S
O545 Mn540 2.095 . S
O545 C554 1.250 . S
O546 Mn541 2.121 . S
O546 C554 1.258 . S
C547 N548 1.326 . S
C547 C551 1.460 . S
C547 H553 0.929 . S
N548 Mn541 2.257 . S
N548 C547 1.326 . S
N548 C552 1.362 . S
C549 C550 1.258 1_565 S
C549 C552 1.431 . S
C549 C569 1.449 . S
C550 C549 1.258 1_545 S
C550 C551 1.477 1_545 S
C550 H570 0.931 . S
C551 C547 1.460 . S
C551 C550 1.477 1_565 S
C551 H571 0.930 1_565 S
C552 N548 1.362 . S
C552 C549 1.431 . S
C552 C562 1.476 . S
H553 C547 0.929 . S
C554 O545 1.250 . S
C554 O546 1.258 . S
O555 Mn540 2.162 . S
O555 C543 1.281 . S
O556 Mn540 2.297 . S
O556 C543 1.236 . S
N557 Mn541 2.282 . S
N557 C558 1.328 . S
N557 C562 1.318 . S
C558 N557 1.328 . S
C558 C559 1.457 . S
C558 H563 0.929 . S
C559 C558 1.457 . S
C559 C560 1.291 . S
C559 H572 0.931 . S
C560 C559 1.291 . S
C560 C561 1.373 . S
C560 H573 0.929 . S
C561 C560 1.373 . S
C561 C562 1.396 . S
C561 C568 1.403 . S
C562 C552 1.476 . S
C562 N557 1.318 . S
C562 C561 1.396 . S
H563 C558 0.929 . S
O564 Mn540 2.385 . S
O564 C542 1.234 . S
O565 Mn540 2.209 . S
O565 Mn541 2.215 . S
O565 C542 1.283 . S
O566 Mn540 2.094 . S
O566 C544 1.240 . S
O567 Mn541 2.117 . S
O567 C544 1.264 . S
C568 C561 1.403 . S
C568 C569 1.399 . S
C568 H574 0.929 . S
C569 C549 1.449 . S
C569 C568 1.399 . S
C569 H575 0.930 1_565 S
H570 C550 0.931 . S
H571 C551 0.930 1_545 S
H572 C559 0.931 . S
H573 C560 0.929 . S
H574 C568 0.929 . S
H575 C569 0.930 1_545 S
Mn576 O581 2.095 . S
Mn576 O591 2.162 . S
Mn576 O592 2.297 . S
Mn576 O600 2.385 1_545 S
Mn576 O601 2.209 1_545 S
Mn576 O602 2.094 . S
Mn577 O582 2.121 . S
Mn577 N584 2.257 1_545 S
Mn577 N593 2.282 1_545 S
Mn577 O601 2.215 1_545 S
Mn577 O603 2.117 . S
C578 O600 1.234 . S
C578 O601 1.283 . S
C579 O591 1.281 . S
C579 O592 1.236 . S
C580 O602 1.240 . S
C580 O603 1.264 . S
O581 Mn576 2.095 . S
O581 C590 1.250 . S
O582 Mn577 2.121 . S
O582 C590 1.258 . S
C583 N584 1.334 . S
C583 C587 1.462 . S
C583 H589 0.920 1_565 S
N584 Mn577 2.257 1_565 S
N584 C583 1.334 . S
N584 C588 1.362 . S
C585 C586 1.258 . S
C585 C588 1.431 . S
C585 C605 1.449 . S
C586 C585 1.258 . S
C586 C587 1.477 . S
C586 H606 0.931 . S
C587 C583 1.462 . S
C587 C586 1.477 . S
C587 H607 0.930 . S
C588 N584 1.362 . S
C588 C585 1.431 . S
C588 C598 1.476 . S
H589 C583 0.920 1_545 S
C590 O581 1.250 . S
C590 O582 1.258 . S
O591 Mn576 2.162 . S
O591 C579 1.281 . S
O592 Mn576 2.297 . S
O592 C579 1.236 . S
N593 Mn577 2.282 1_565 S
N593 C594 1.328 . S
N593 C598 1.318 . S
C594 N593 1.328 . S
C594 C595 1.457 . S
C594 H599 0.929 . S
C595 C594 1.457 . S
C595 C596 1.291 . S
C595 H608 0.931 . S
C596 C595 1.291 . S
C596 C597 1.373 . S
C596 H609 0.929 . S
C597 C596 1.373 . S
C597 C598 1.396 . S
C597 C604 1.403 . S
C598 C588 1.476 . S
C598 N593 1.318 . S
C598 C597 1.396 . S
H599 C594 0.929 . S
O600 Mn576 2.385 1_565 S
O600 C578 1.234 . S
O601 Mn576 2.209 1_565 S
O601 Mn577 2.215 1_565 S
O601 C578 1.283 . S
O602 Mn576 2.094 . S
O602 C580 1.240 . S
O603 Mn577 2.117 . S
O603 C580 1.264 . S
C604 C597 1.403 . S
C604 C605 1.399 . S
C604 H610 0.929 . S
C605 C585 1.449 . S
C605 C604 1.399 . S
C605 H611 0.930 . S
H606 C586 0.931 . S
H607 C587 0.930 . S
H608 C595 0.931 . S
H609 C596 0.929 . S
H610 C604 0.929 . S
H611 C605 0.930 . S
Mn612 O617 2.095 . S
Mn612 O627 2.162 . S
Mn612 O628 2.297 . S
Mn612 O636 2.385 . S
Mn612 O637 2.209 . S
Mn612 O638 2.094 . S
Mn613 O618 2.121 . S
Mn613 N620 2.257 . S
Mn613 N629 2.282 . S
Mn613 O637 2.215 . S
Mn613 O639 2.117 . S
C614 O636 1.234 . S
C614 O637 1.283 . S
C615 O627 1.281 . S
C615 O628 1.236 . S
C616 O638 1.240 . S
C616 O639 1.264 . S
O617 Mn612 2.095 . S
O617 C626 1.250 . S
O618 Mn613 2.121 . S
O618 C626 1.258 . S
C619 N620 1.326 . S
C619 C623 1.460 . S
C619 H625 0.929 . S
N620 Mn613 2.257 . S
N620 C619 1.326 . S
N620 C624 1.362 . S
C621 C622 1.258 . S
C621 C624 1.431 . S
C621 C641 1.449 . S
C622 C621 1.258 . S
C622 C623 1.477 . S
C622 H642 0.931 . S
C623 C619 1.460 . S
C623 C622 1.477 . S
C623 H643 0.930 . S
C624 N620 1.362 . S
C624 C621 1.431 . S
C624 C634 1.476 . S
H625 C619 0.929 . S
C626 O617 1.250 . S
C626 O618 1.258 . S
O627 Mn612 2.162 . S
O627 C615 1.281 . S
O628 Mn612 2.297 . S
O628 C615 1.236 . S
N629 Mn613 2.282 . S
N629 C630 1.328 . S
N629 C634 1.318 . S
C630 N629 1.328 . S
C630 C631 1.457 . S
C630 H635 0.929 . S
C631 C630 1.457 . S
C631 C632 1.291 . S
C631 H644 0.931 . S
C632 C631 1.291 . S
C632 C633 1.373 . S
C632 H645 0.929 . S
C633 C632 1.373 . S
C633 C634 1.396 . S
C633 C640 1.403 . S
C634 C624 1.476 . S
C634 N629 1.318 . S
C634 C633 1.396 . S
H635 C630 0.929 . S
O636 Mn612 2.385 . S
O636 C614 1.234 . S
O637 Mn612 2.209 . S
O637 Mn613 2.215 . S
O637 C614 1.283 . S
O638 Mn612 2.094 . S
O638 C616 1.240 . S
O639 Mn613 2.117 . S
O639 C616 1.264 . S
C640 C633 1.403 . S
C640 C641 1.399 . S
C640 H646 0.929 . S
C641 C621 1.449 . S
C641 C640 1.399 . S
C641 H647 0.930 . S
H642 C622 0.931 . S
H643 C623 0.930 . S
H644 C631 0.931 . S
H645 C632 0.929 . S
H646 C640 0.929 . S
H647 C641 0.930 . S
Mn648 O653 2.095 . S
Mn648 O663 2.162 . S
Mn648 O664 2.297 . S
Mn648 O672 2.385 . S
Mn648 O673 2.209 . S
Mn648 O674 2.094 . S
Mn649 O654 2.121 . S
Mn649 N656 2.257 . S
Mn649 N665 2.282 . S
Mn649 O673 2.215 . S
Mn649 O675 2.117 . S
C650 O672 1.234 . S
C650 O673 1.283 . S
C651 O663 1.281 . S
C651 O664 1.236 . S
C652 O674 1.240 . S
C652 O675 1.264 . S
O653 Mn648 2.095 . S
O653 C662 1.250 . S
O654 Mn649 2.121 . S
O654 C662 1.258 . S
C655 N656 1.326 . S
C655 C659 1.460 . S
C655 H661 0.929 . S
N656 Mn649 2.257 . S
N656 C655 1.326 . S
N656 C660 1.362 . S
C657 C658 1.258 . S
C657 C660 1.431 . S
C657 C677 1.449 . S
C658 C657 1.258 . S
C658 C659 1.477 . S
C658 H678 0.931 . S
C659 C655 1.460 . S
C659 C658 1.477 . S
C659 H679 0.930 . S
C660 N656 1.362 . S
C660 C657 1.431 . S
C660 C670 1.476 . S
H661 C655 0.929 . S
C662 O653 1.250 . S
C662 O654 1.258 . S
O663 Mn648 2.162 . S
O663 C651 1.281 . S
O664 Mn648 2.297 . S
O664 C651 1.236 . S
N665 Mn649 2.282 . S
N665 C666 1.328 . S
N665 C670 1.318 . S
C666 N665 1.328 . S
C666 C667 1.457 . S
C666 H671 0.929 . S
C667 C666 1.457 . S
C667 C668 1.291 . S
C667 H680 0.931 . S
C668 C667 1.291 . S
C668 C669 1.373 . S
C668 H681 0.929 . S
C669 C668 1.373 . S
C669 C670 1.396 . S
C669 C676 1.403 . S
C670 C660 1.476 . S
C670 N665 1.318 . S
C670 C669 1.396 . S
H671 C666 0.929 . S
O672 Mn648 2.385 . S
O672 C650 1.234 . S
O673 Mn648 2.209 . S
O673 Mn649 2.215 . S
O673 C650 1.283 . S
O674 Mn648 2.094 . S
O674 C652 1.240 . S
O675 Mn649 2.117 . S
O675 C652 1.264 . S
C676 C669 1.403 . S
C676 C677 1.399 . S
C676 H682 0.929 . S
C677 C657 1.449 . S
C677 C676 1.399 . S
C677 H683 0.930 . S
H678 C658 0.931 . S
H679 C659 0.930 . S
H680 C667 0.931 . S
H681 C668 0.929 . S
H682 C676 0.929 . S
H683 C677 0.930 . S
Mn684 O689 2.081 1_545 S
Mn684 O699 2.162 1_545 S
Mn684 O700 2.298 1_545 S
Mn684 O708 2.400 . S
Mn684 O709 2.214 . S
Mn684 O710 2.094 1_545 S
Mn685 O690 2.121 1_545 S
Mn685 N692 2.257 . S
Mn685 N701 2.282 . S
Mn685 O709 2.215 . S
Mn685 O711 2.117 . S
C686 O708 1.234 . S
C686 O709 1.283 . S
C687 O699 1.281 . S
C687 O700 1.235 . S
C688 O710 1.241 1_545 S
C688 O711 1.264 . S
O689 Mn684 2.081 1_565 S
O689 C698 1.250 . S
O690 Mn685 2.121 1_565 S
O690 C698 1.258 . S
C691 N692 1.326 . S
C691 C695 1.460 . S
C691 H697 0.929 1_545 S
N692 Mn685 2.257 . S
N692 C691 1.326 . S
N692 C696 1.362 . S
C693 C694 1.258 . S
C693 C696 1.431 . S
C693 C713 1.449 . S
C694 C693 1.258 . S
C694 C695 1.477 . S
C694 H714 0.931 . S
C695 C691 1.460 . S
C695 C694 1.477 . S
C695 H715 0.930 . S
C696 N692 1.362 . S
C696 C693 1.431 . S
C696 C706 1.476 . S
H697 C691 0.929 1_565 S
C698 O689 1.250 . S
C698 O690 1.258 . S
O699 Mn684 2.162 1_565 S
O699 C687 1.281 . S
O700 Mn684 2.298 1_565 S
O700 C687 1.235 . S
N701 Mn685 2.282 . S
N701 C702 1.328 . S
N701 C706 1.318 . S
C702 N701 1.328 . S
C702 C703 1.457 . S
C702 H707 0.929 . S
C703 C702 1.457 . S
C703 C704 1.291 . S
C703 H716 0.931 . S
C704 C703 1.291 . S
C704 C705 1.373 . S
C704 H717 0.929 . S
C705 C704 1.373 . S
C705 C706 1.396 . S
C705 C712 1.403 . S
C706 C696 1.476 . S
C706 N701 1.318 . S
C706 C705 1.396 . S
H707 C702 0.929 . S
O708 Mn684 2.400 . S
O708 C686 1.234 . S
O709 Mn684 2.214 . S
O709 Mn685 2.215 . S
O709 C686 1.283 . S
O710 Mn684 2.094 1_565 S
O710 C688 1.241 1_565 S
O711 Mn685 2.117 . S
O711 C688 1.264 . S
C712 C705 1.403 . S
C712 C713 1.399 . S
C712 H718 0.929 . S
C713 C693 1.449 . S
C713 C712 1.399 . S
C713 H719 0.930 . S
H714 C694 0.931 . S
H715 C695 0.930 . S
H716 C703 0.931 . S
H717 C704 0.929 . S
H718 C712 0.929 . S
H719 C713 0.930 . S
Mn720 O725 2.095 1_554 S
Mn720 O735 2.162 . S
Mn720 O736 2.297 . S
Mn720 O744 2.385 . S
Mn720 O745 2.209 1_554 S
Mn720 O746 2.094 1_554 S
Mn721 O726 2.121 . S
Mn721 N728 2.257 . S
Mn721 N737 2.282 . S
Mn721 O745 2.215 . S
Mn721 O747 2.117 . S
C722 O744 1.234 1_556 S
C722 O745 1.283 . S
C723 O735 1.281 . S
C723 O736 1.236 . S
C724 O746 1.240 . S
C724 O747 1.264 . S
O725 Mn720 2.095 1_556 S
O725 C734 1.250 . S
O726 Mn721 2.121 . S
O726 C734 1.258 . S
C727 N728 1.326 . S
C727 C731 1.460 . S
C727 H733 0.929 . S
N728 Mn721 2.257 . S
N728 C727 1.326 . S
N728 C732 1.362 . S
C729 C730 1.258 . S
C729 C732 1.431 . S
C729 C749 1.449 . S
C730 C729 1.258 . S
C730 C731 1.477 . S
C730 H750 0.931 . S
C731 C727 1.460 . S
C731 C730 1.477 . S
C731 H751 0.930 . S
C732 N728 1.362 . S
C732 C729 1.431 . S
C732 C742 1.476 . S
H733 C727 0.929 . S
C734 O725 1.250 . S
C734 O726 1.258 . S
O735 Mn720 2.162 . S
O735 C723 1.281 . S
O736 Mn720 2.297 . S
O736 C723 1.236 . S
N737 Mn721 2.282 . S
N737 C738 1.328 . S
N737 C742 1.318 . S
C738 N737 1.328 . S
C738 C739 1.457 . S
C738 H743 0.929 . S
C739 C738 1.457 . S
C739 C740 1.291 . S
C739 H752 0.931 . S
C740 C739 1.291 . S
C740 C741 1.373 . S
C740 H753 0.929 . S
C741 C740 1.373 . S
C741 C742 1.396 . S
C741 C748 1.403 . S
C742 C732 1.476 . S
C742 N737 1.318 . S
C742 C741 1.396 . S
H743 C738 0.929 . S
O744 Mn720 2.385 . S
O744 C722 1.234 1_554 S
O745 Mn720 2.209 1_556 S
O745 Mn721 2.215 . S
O745 C722 1.283 . S
O746 Mn720 2.094 1_556 S
O746 C724 1.240 . S
O747 Mn721 2.117 . S
O747 C724 1.264 . S
C748 C741 1.403 . S
C748 C749 1.399 . S
C748 H754 0.929 . S
C749 C729 1.449 . S
C749 C748 1.399 . S
C749 H755 0.930 . S
H750 C730 0.931 . S
H751 C731 0.930 . S
H752 C739 0.931 . S
H753 C740 0.929 . S
H754 C748 0.929 . S
H755 C749 0.930 . S
Mn756 O761 2.095 . S
Mn756 O771 2.162 . S
Mn756 O772 2.297 . S
Mn756 O780 2.385 . S
Mn756 O781 2.209 . S
Mn756 O782 2.094 . S
Mn757 O762 2.121 . S
Mn757 N764 2.257 . S
Mn757 N773 2.282 . S
Mn757 O781 2.215 . S
Mn757 O783 2.117 . S
C758 O780 1.234 . S
C758 O781 1.283 . S
C759 O771 1.281 . S
C759 O772 1.236 . S
C760 O782 1.240 . S
C760 O783 1.264 . S
O761 Mn756 2.095 . S
O761 C770 1.250 . S
O762 Mn757 2.121 . S
O762 C770 1.258 . S
C763 N764 1.326 . S
C763 C767 1.460 . S
C763 H769 0.929 . S
N764 Mn757 2.257 . S
N764 C763 1.326 . S
N764 C768 1.362 . S
C765 C766 1.258 . S
C765 C768 1.431 . S
C765 C785 1.449 . S
C766 C765 1.258 . S
C766 C767 1.477 . S
C766 H786 0.931 . S
C767 C763 1.460 . S
C767 C766 1.477 . S
C767 H787 0.930 . S
C768 N764 1.362 . S
C768 C765 1.431 . S
C768 C778 1.476 . S
H769 C763 0.929 . S
C770 O761 1.250 . S
C770 O762 1.258 . S
O771 Mn756 2.162 . S
O771 C759 1.281 . S
O772 Mn756 2.297 . S
O772 C759 1.236 . S
N773 Mn757 2.282 . S
N773 C774 1.328 . S
N773 C778 1.318 . S
C774 N773 1.328 . S
C774 C775 1.457 . S
C774 H779 0.929 . S
C775 C774 1.457 . S
C775 C776 1.291 . S
C775 H788 0.931 . S
C776 C775 1.291 . S
C776 C777 1.373 . S
C776 H789 0.929 . S
C777 C776 1.373 . S
C777 C778 1.396 . S
C777 C784 1.403 . S
C778 C768 1.476 . S
C778 N773 1.318 . S
C778 C777 1.396 . S
H779 C774 0.929 . S
O780 Mn756 2.385 . S
O780 C758 1.234 . S
O781 Mn756 2.209 . S
O781 Mn757 2.215 . S
O781 C758 1.283 . S
O782 Mn756 2.094 . S
O782 C760 1.240 . S
O783 Mn757 2.117 . S
O783 C760 1.264 . S
C784 C777 1.403 . S
C784 C785 1.399 . S
C784 H790 0.929 . S
C785 C765 1.449 . S
C785 C784 1.399 . S
C785 H791 0.930 . S
H786 C766 0.931 . S
H787 C767 0.930 . S
H788 C775 0.931 . S
H789 C776 0.929 . S
H790 C784 0.929 . S
H791 C785 0.930 . S
Mn792 O797 2.095 . S
Mn792 O807 2.162 . S
Mn792 O808 2.297 . S
Mn792 O816 2.385 . S
Mn792 O817 2.209 . S
Mn792 O818 2.094 . S
Mn793 O798 2.121 . S
Mn793 N800 2.257 . S
Mn793 N809 2.282 . S
Mn793 O817 2.215 . S
Mn793 O819 2.117 . S
C794 O816 1.234 . S
C794 O817 1.283 . S
C795 O807 1.281 . S
C795 O808 1.236 . S
C796 O818 1.240 . S
C796 O819 1.264 . S
O797 Mn792 2.095 . S
O797 C806 1.250 . S
O798 Mn793 2.121 . S
O798 C806 1.258 . S
C799 N800 1.326 . S
C799 C803 1.460 . S
C799 H805 0.929 . S
N800 Mn793 2.257 . S
N800 C799 1.326 . S
N800 C804 1.362 . S
C801 C802 1.258 . S
C801 C804 1.431 . S
C801 C821 1.449 . S
C802 C801 1.258 . S
C802 C803 1.477 . S
C802 H822 0.931 . S
C803 C799 1.460 . S
C803 C802 1.477 . S
C803 H823 0.930 . S
C804 N800 1.362 . S
C804 C801 1.431 . S
C804 C814 1.476 . S
H805 C799 0.929 . S
C806 O797 1.250 . S
C806 O798 1.258 . S
O807 Mn792 2.162 . S
O807 C795 1.281 . S
O808 Mn792 2.297 . S
O808 C795 1.236 . S
N809 Mn793 2.282 . S
N809 C810 1.328 . S
N809 C814 1.318 . S
C810 N809 1.328 . S
C810 C811 1.457 . S
C810 H815 0.929 . S
C811 C810 1.457 . S
C811 C812 1.291 . S
C811 H824 0.931 . S
C812 C811 1.291 . S
C812 C813 1.373 . S
C812 H825 0.929 . S
C813 C812 1.373 . S
C813 C814 1.396 . S
C813 C820 1.403 . S
C814 C804 1.476 . S
C814 N809 1.318 . S
C814 C813 1.396 . S
H815 C810 0.929 . S
O816 Mn792 2.385 . S
O816 C794 1.234 . S
O817 Mn792 2.209 . S
O817 Mn793 2.215 . S
O817 C794 1.283 . S
O818 Mn792 2.094 . S
O818 C796 1.240 . S
O819 Mn793 2.117 . S
O819 C796 1.264 . S
C820 C813 1.403 . S
C820 C821 1.399 . S
C820 H826 0.929 . S
C821 C801 1.449 . S
C821 C820 1.399 . S
C821 H827 0.930 . S
H822 C802 0.931 . S
H823 C803 0.930 . S
H824 C811 0.931 . S
H825 C812 0.929 . S
H826 C820 0.929 . S
H827 C821 0.930 . S
Mn828 O833 2.095 . S
Mn828 O843 2.162 . S
Mn828 O844 2.297 . S
Mn828 O852 2.385 . S
Mn828 O853 2.209 . S
Mn828 O854 2.094 . S
Mn829 O834 2.121 . S
Mn829 N836 2.257 . S
Mn829 N845 2.282 . S
Mn829 O853 2.215 . S
Mn829 O855 2.117 . S
C830 O852 1.234 . S
C830 O853 1.283 . S
C831 O843 1.281 . S
C831 O844 1.236 . S
C832 O854 1.240 . S
C832 O855 1.264 . S
O833 Mn828 2.095 . S
O833 C842 1.250 . S
O834 Mn829 2.121 . S
O834 C842 1.258 . S
C835 N836 1.326 . S
C835 C839 1.460 . S
C835 H841 0.929 . S
N836 Mn829 2.257 . S
N836 C835 1.326 . S
N836 C840 1.362 . S
C837 C838 1.258 . S
C837 C840 1.431 . S
C837 C857 1.449 . S
C838 C837 1.258 . S
C838 C839 1.477 . S
C838 H858 0.931 . S
C839 C835 1.460 . S
C839 C838 1.477 . S
C839 H859 0.930 . S
C840 N836 1.362 . S
C840 C837 1.431 . S
C840 C850 1.476 . S
H841 C835 0.929 . S
C842 O833 1.250 . S
C842 O834 1.258 . S
O843 Mn828 2.162 . S
O843 C831 1.281 . S
O844 Mn828 2.297 . S
O844 C831 1.236 . S
N845 Mn829 2.282 . S
N845 C846 1.328 . S
N845 C850 1.318 . S
C846 N845 1.328 . S
C846 C847 1.457 . S
C846 H851 0.929 . S
C847 C846 1.457 . S
C847 C848 1.291 . S
C847 H860 0.931 . S
C848 C847 1.291 . S
C848 C849 1.373 . S
C848 H861 0.929 . S
C849 C848 1.373 . S
C849 C850 1.396 . S
C849 C856 1.403 . S
C850 C840 1.476 . S
C850 N845 1.318 . S
C850 C849 1.396 . S
H851 C846 0.929 . S
O852 Mn828 2.385 . S
O852 C830 1.234 . S
O853 Mn828 2.209 . S
O853 Mn829 2.215 . S
O853 C830 1.283 . S
O854 Mn828 2.094 . S
O854 C832 1.240 . S
O855 Mn829 2.117 . S
O855 C832 1.264 . S
C856 C849 1.403 . S
C856 C857 1.399 . S
C856 H862 0.929 . S
C857 C837 1.449 . S
C857 C856 1.399 . S
C857 H863 0.930 . S
H858 C838 0.931 . S
H859 C839 0.930 . S
H860 C847 0.931 . S
H861 C848 0.929 . S
H862 C856 0.929 . S
H863 C857 0.930 . S
Zn864 O870 1.969 . S
Zn864 O871 1.965 . S
Zn864 O875 2.024 . S
Zn864 O880 1.969 . S
Zn865 O872 1.969 1_654 S
Zn865 O878 1.969 1_554 S
Zn865 O879 1.965 . S
Zn865 O881 2.024 1_655 S
C866 O867 1.229 . S
C866 O875 1.058 . S
O867 C866 1.229 . S
C868 O869 1.229 1_454 S
C868 O881 1.058 . S
O869 C868 1.229 1_656 S
O870 Zn864 1.969 . S
O870 C873 1.267 . S
O871 Zn864 1.965 . S
O871 C882 1.260 1_554 S
O872 Zn865 1.969 1_456 S
O872 C882 1.258 1_545 S
C873 O870 1.267 . S
C873 O874 1.228 . S
O874 C873 1.228 . S
O875 Zn864 2.024 . S
O875 C866 1.058 . S
C876 O877 1.228 . S
C876 O878 1.267 1_554 S
O877 C876 1.228 . S
O878 Zn865 1.969 1_556 S
O878 C876 1.267 1_556 S
O879 Zn865 1.965 . S
O879 C883 1.250 1_655 S
O880 Zn864 1.969 . S
O880 C883 1.276 1_565 S
O881 Zn865 2.024 1_455 S
O881 C868 1.058 . S
C882 O871 1.260 1_556 S
C882 O872 1.258 1_565 S
C883 O879 1.250 1_455 S
C883 O880 1.276 1_545 S
Zn884 O890 1.969 . S
Zn884 O891 1.965 . S
Zn884 O895 2.024 . S
Zn884 O900 1.969 . S
Zn885 O892 1.969 . S
Zn885 O898 1.969 . S
Zn885 O899 1.965 . S
Zn885 O901 2.024 . S
C886 O887 1.229 . S
C886 O895 1.058 . S
O887 C886 1.229 . S
C888 O889 1.229 . S
C888 O901 1.058 . S
O889 C888 1.229 . S
O890 Zn884 1.969 . S
O890 C893 1.267 . S
O891 Zn884 1.965 . S
O891 C902 1.260 . S
O892 Zn885 1.969 . S
O892 C902 1.258 . S
C893 O890 1.267 . S
C893 O894 1.228 . S
O894 C893 1.228 . S
O895 Zn884 2.024 . S
O895 C886 1.058 . S
C896 O897 1.228 . S
C896 O898 1.267 . S
O897 C896 1.228 . S
O898 Zn885 1.969 . S
O898 C896 1.267 . S
O899 Zn885 1.965 . S
O899 C903 1.260 . S
O900 Zn884 1.969 . S
O900 C903 1.258 . S
O901 Zn885 2.024 . S
O901 C888 1.058 . S
C902 O891 1.260 . S
C902 O892 1.258 . S
C903 O899 1.260 . S
C903 O900 1.258 . S
Zn904 O910 1.969 . S
Zn904 O911 1.965 . S
Zn904 O915 2.024 . S
Zn904 O920 1.969 . S
Zn905 O912 1.969 1_565 S
Zn905 O918 1.969 . S
Zn905 O919 1.965 1_565 S
Zn905 O921 2.024 . S
C906 O907 1.229 . S
C906 O915 1.058 . S
O907 C906 1.229 . S
C908 O909 1.229 . S
C908 O921 1.058 . S
O909 C908 1.229 . S
O910 Zn904 1.969 . S
O910 C913 1.267 . S
O911 Zn904 1.965 . S
O911 C922 1.260 . S
O912 Zn905 1.969 1_545 S
O912 C922 1.258 . S
C913 O910 1.267 . S
C913 O914 1.228 . S
O914 C913 1.228 . S
O915 Zn904 2.024 . S
O915 C906 1.058 . S
C916 O917 1.228 . S
C916 O918 1.267 . S
O917 C916 1.228 . S
O918 Zn905 1.969 . S
O918 C916 1.267 . S
O919 Zn905 1.965 1_545 S
O919 C923 1.260 . S
O920 Zn904 1.969 . S
O920 C923 1.258 . S
O921 Zn905 2.024 . S
O921 C908 1.058 . S
C922 O911 1.260 . S
C922 O912 1.258 . S
C923 O919 1.260 . S
C923 O920 1.258 . S
Zn924 O930 1.969 . S
Zn924 O931 1.965 . S
Zn924 O935 2.024 . S
Zn924 O940 1.969 . S
Zn925 O932 1.969 . S
Zn925 O938 1.969 . S
Zn925 O939 1.965 . S
Zn925 O941 2.024 . S
C926 O927 1.229 . S
C926 O935 1.058 . S
O927 C926 1.229 . S
C928 O929 1.229 . S
C928 O941 1.058 . S
O929 C928 1.229 . S
O930 Zn924 1.969 . S
O930 C933 1.267 . S
O931 Zn924 1.965 . S
O931 C942 1.260 . S
O932 Zn925 1.969 . S
O932 C942 1.258 . S
C933 O930 1.267 . S
C933 O934 1.228 . S
O934 C933 1.228 . S
O935 Zn924 2.024 . S
O935 C926 1.058 . S
C936 O937 1.228 . S
C936 O938 1.267 . S
O937 C936 1.228 . S
O938 Zn925 1.969 . S
O938 C936 1.267 . S
O939 Zn925 1.965 . S
O939 C943 1.260 . S
O940 Zn924 1.969 . S
O940 C943 1.258 . S
O941 Zn925 2.024 . S
O941 C928 1.058 . S
C942 O931 1.260 . S
C942 O932 1.258 . S
C943 O939 1.260 . S
C943 O940 1.258 . S
Zn944 O950 1.969 . S
Zn944 O951 1.965 1_455 S
Zn944 O955 2.024 1_565 S
Zn944 O960 1.969 1_565 S
Zn945 O952 1.969 1_455 S
Zn945 O958 1.969 1_455 S
Zn945 O959 1.965 . S
Zn945 O961 2.024 . S
C946 O947 1.229 1_545 S
C946 O955 1.058 . S
O947 C946 1.229 1_565 S
C948 O949 1.229 . S
C948 O961 1.058 1_655 S
O949 C948 1.229 . S
O950 Zn944 1.969 . S
O950 C953 1.267 . S
O951 Zn944 1.965 1_655 S
O951 C962 1.260 . S
O952 Zn945 1.969 1_655 S
O952 C962 1.258 1_545 S
C953 O950 1.267 . S
C953 O954 1.228 . S
O954 C953 1.228 . S
O955 Zn944 2.024 1_545 S
O955 C946 1.058 . S
C956 O957 1.228 . S
C956 O958 1.267 1_455 S
O957 C956 1.228 . S
O958 Zn945 1.969 1_655 S
O958 C956 1.267 1_655 S
O959 Zn945 1.965 . S
O959 C963 1.260 . S
O960 Zn944 1.969 1_545 S
O960 C963 1.258 . S
O961 Zn945 2.024 . S
O961 C948 1.058 1_455 S
C962 O951 1.260 . S
C962 O952 1.258 1_565 S
C963 O959 1.260 . S
C963 O960 1.258 . S
Zn964 O970 1.969 . S
Zn964 O971 1.965 . S
Zn964 O975 2.024 . S
Zn964 O980 1.969 . S
Zn965 O972 1.969 . S
Zn965 O978 1.969 . S
Zn965 O979 1.965 . S
Zn965 O981 2.024 . S
C966 O967 1.229 . S
C966 O975 1.058 . S
O967 C966 1.229 . S
C968 O969 1.229 . S
C968 O981 1.058 . S
O969 C968 1.229 . S
O970 Zn964 1.969 . S
O970 C973 1.267 . S
O971 Zn964 1.965 . S
O971 C982 1.260 . S
O972 Zn965 1.969 . S
O972 C982 1.258 . S
C973 O970 1.267 . S
C973 O974 1.228 . S
O974 C973 1.228 . S
O975 Zn964 2.024 . S
O975 C966 1.058 . S
C976 O977 1.228 . S
C976 O978 1.267 . S
O977 C976 1.228 . S
O978 Zn965 1.969 . S
O978 C976 1.267 . S
O979 Zn965 1.965 . S
O979 C983 1.260 . S
O980 Zn964 1.969 . S
O980 C983 1.258 . S
O981 Zn965 2.024 . S
O981 C968 1.058 . S
C982 O971 1.260 . S
C982 O972 1.258 . S
C983 O979 1.260 . S
C983 O980 1.258 . S
Zn984 O990 1.969 . S
Zn984 O991 1.965 1_545 S
Zn984 O995 2.024 1_556 S
Zn984 O1000 1.969 1_556 S
Zn985 O992 1.999 . S
Zn985 O998 1.984 . S
Zn985 O999 1.935 1_565 S
Zn985 O1001 2.013 1_565 S
C986 O987 1.229 . S
C986 O995 1.058 . S
O987 C986 1.229 . S
C988 O989 1.229 . S
C988 O1001 1.058 1_565 S
O989 C988 1.229 . S
O990 Zn984 1.969 . S
O990 C993 1.267 . S
O991 Zn984 1.965 1_565 S
O991 C1002 1.260 1_556 S
O992 Zn985 1.999 . S
O992 C1002 1.258 . S
C993 O990 1.267 . S
C993 O994 1.228 . S
O994 C993 1.228 . S
O995 Zn984 2.024 1_554 S
O995 C986 1.058 . S
C996 O997 1.228 . S
C996 O998 1.267 1_545 S
O997 C996 1.228 . S
O998 Zn985 1.984 . S
O998 C996 1.267 1_565 S
O999 Zn985 1.935 1_545 S
O999 C1003 1.260 . S
O1000 Zn984 1.969 1_554 S
O1000 C1003 1.258 . S
O1001 Zn985 2.013 1_545 S
O1001 C988 1.058 1_545 S
C1002 O991 1.260 1_554 S
C1002 O992 1.258 . S
C1003 O999 1.260 . S
C1003 O1000 1.258 . S
Zn1004 O1010 1.969 . S
Zn1004 O1011 1.965 . S
Zn1004 O1015 2.024 . S
Zn1004 O1020 1.969 . S
Zn1005 O1012 1.969 . S
Zn1005 O1018 1.969 . S
Zn1005 O1019 1.965 . S
Zn1005 O1021 2.024 . S
C1006 O1007 1.229 . S
C1006 O1015 1.058 . S
O1007 C1006 1.229 . S
C1008 O1009 1.229 . S
C1008 O1021 1.058 . S
O1009 C1008 1.229 . S
O1010 Zn1004 1.969 . S
O1010 C1013 1.267 . S
O1011 Zn1004 1.965 . S
O1011 C1022 1.260 . S
O1012 Zn1005 1.969 . S
O1012 C1022 1.258 . S
C1013 O1010 1.267 . S
C1013 O1014 1.228 . S
O1014 C1013 1.228 . S
O1015 Zn1004 2.024 . S
O1015 C1006 1.058 . S
C1016 O1017 1.228 . S
C1016 O1018 1.267 . S
O1017 C1016 1.228 . S
O1018 Zn1005 1.969 . S
O1018 C1016 1.267 . S
O1019 Zn1005 1.965 . S
O1019 C1023 1.260 . S
O1020 Zn1004 1.969 . S
O1020 C1023 1.258 . S
O1021 Zn1005 2.024 . S
O1021 C1008 1.058 . S
C1022 O1011 1.260 . S
C1022 O1012 1.258 . S
C1023 O1019 1.260 . S
C1023 O1020 1.258 . S
Zn1024 O1030 1.969 . S
Zn1024 O1031 1.965 . S
Zn1024 O1035 2.024 . S
Zn1024 O1040 1.969 . S
Zn1025 O1032 1.969 1_556 S
Zn1025 O1038 1.969 1_556 S
Zn1025 O1039 1.965 1_556 S
Zn1025 O1041 2.024 . S
C1026 O1027 1.229 . S
C1026 O1035 1.058 . S
O1027 C1026 1.229 . S
C1028 O1029 1.229 . S
C1028 O1041 1.058 . S
O1029 C1028 1.229 . S
O1030 Zn1024 1.969 . S
O1030 C1033 1.267 . S
O1031 Zn1024 1.965 . S
O1031 C1042 1.260 . S
O1032 Zn1025 1.969 1_554 S
O1032 C1042 1.258 . S
C1033 O1030 1.267 . S
C1033 O1034 1.228 . S
O1034 C1033 1.228 . S
O1035 Zn1024 2.024 . S
O1035 C1026 1.058 . S
C1036 O1037 1.228 . S
C1036 O1038 1.267 1_556 S
O1037 C1036 1.228 . S
O1038 Zn1025 1.969 1_554 S
O1038 C1036 1.267 1_554 S
O1039 Zn1025 1.965 1_554 S
O1039 C1043 1.260 . S
O1040 Zn1024 1.969 . S
O1040 C1043 1.258 . S
O1041 Zn1025 2.024 . S
O1041 C1028 1.058 . S
C1042 O1031 1.260 . S
C1042 O1032 1.258 . S
C1043 O1039 1.260 . S
C1043 O1040 1.258 . S
Zn1044 O1050 1.969 . S
Zn1044 O1051 1.965 . S
Zn1044 O1055 2.024 . S
Zn1044 O1060 1.969 . S
Zn1045 O1052 1.969 . S
Zn1045 O1058 1.969 . S
Zn1045 O1059 1.965 . S
Zn1045 O1061 2.024 . S
C1046 O1047 1.229 . S
C1046 O1055 1.058 . S
O1047 C1046 1.229 . S
C1048 O1049 1.229 . S
C1048 O1061 1.058 . S
O1049 C1048 1.229 . S
O1050 Zn1044 1.969 . S
O1050 C1053 1.267 . S
O1051 Zn1044 1.965 . S
O1051 C1062 1.260 . S
O1052 Zn1045 1.969 . S
O1052 C1062 1.258 . S
C1053 O1050 1.267 . S
C1053 O1054 1.228 . S
O1054 C1053 1.228 . S
O1055 Zn1044 2.024 . S
O1055 C1046 1.058 . S
C1056 O1057 1.228 . S
C1056 O1058 1.267 . S
O1057 C1056 1.228 . S
O1058 Zn1045 1.969 . S
O1058 C1056 1.267 . S
O1059 Zn1045 1.965 . S
O1059 C1063 1.260 . S
O1060 Zn1044 1.969 . S
O1060 C1063 1.258 . S
O1061 Zn1045 2.024 . S
O1061 C1048 1.058 . S
C1062 O1051 1.260 . S
C1062 O1052 1.258 . S
C1063 O1059 1.260 . S
C1063 O1060 1.258 . S
Zn1064 O1070 1.969 . S
Zn1064 O1071 1.965 . S
Zn1064 O1075 2.024 . S
Zn1064 O1080 1.969 . S
Zn1065 O1072 1.969 1_655 S
Zn1065 O1078 1.969 . S
Zn1065 O1079 1.965 1_655 S
Zn1065 O1081 2.024 . S
C1066 O1067 1.229 . S
C1066 O1075 1.058 . S
O1067 C1066 1.229 . S
C1068 O1069 1.229 . S
C1068 O1081 1.058 . S
O1069 C1068 1.229 . S
O1070 Zn1064 1.969 . S
O1070 C1073 1.267 . S
O1071 Zn1064 1.965 . S
O1071 C1082 1.260 . S
O1072 Zn1065 1.969 1_455 S
O1072 C1082 1.258 . S
C1073 O1070 1.267 . S
C1073 O1074 1.228 . S
O1074 C1073 1.228 . S
O1075 Zn1064 2.024 . S
O1075 C1066 1.058 . S
C1076 O1077 1.228 . S
C1076 O1078 1.267 . S
O1077 C1076 1.228 . S
O1078 Zn1065 1.969 . S
O1078 C1076 1.267 . S
O1079 Zn1065 1.965 1_455 S
O1079 C1083 1.260 . S
O1080 Zn1064 1.969 . S
O1080 C1083 1.258 . S
O1081 Zn1065 2.024 . S
O1081 C1068 1.058 . S
C1082 O1071 1.260 . S
C1082 O1072 1.258 . S
C1083 O1079 1.260 . S
C1083 O1080 1.258 . S
Zn1084 O1090 1.969 . S
Zn1084 O1091 1.965 . S
Zn1084 O1095 2.024 . S
Zn1084 O1100 1.969 . S
Zn1085 O1092 1.969 . S
Zn1085 O1098 1.969 . S
Zn1085 O1099 1.965 . S
Zn1085 O1101 2.024 . S
C1086 O1087 1.229 . S
C1086 O1095 1.058 . S
O1087 C1086 1.229 . S
C1088 O1089 1.229 . S
C1088 O1101 1.058 . S
O1089 C1088 1.229 . S
O1090 Zn1084 1.969 . S
O1090 C1093 1.267 . S
O1091 Zn1084 1.965 . S
O1091 C1102 1.260 . S
O1092 Zn1085 1.969 . S
O1092 C1102 1.258 . S
C1093 O1090 1.267 . S
C1093 O1094 1.228 . S
O1094 C1093 1.228 . S
O1095 Zn1084 2.024 . S
O1095 C1086 1.058 . S
C1096 O1097 1.228 . S
C1096 O1098 1.267 . S
O1097 C1096 1.228 . S
O1098 Zn1085 1.969 . S
O1098 C1096 1.267 . S
O1099 Zn1085 1.965 . S
O1099 C1103 1.260 . S
O1100 Zn1084 1.969 . S
O1100 C1103 1.258 . S
O1101 Zn1085 2.024 . S
O1101 C1088 1.058 . S
C1102 O1091 1.260 . S
C1102 O1092 1.258 . S
C1103 O1099 1.260 . S
C1103 O1100 1.258 . S
Zn1104 O1110 1.969 . S
Zn1104 O1111 1.965 . S
Zn1104 O1115 2.024 . S
Zn1104 O1120 1.969 . S
Zn1105 O1112 1.969 . S
Zn1105 O1118 1.969 . S
Zn1105 O1119 1.965 . S
Zn1105 O1121 2.024 . S
C1106 O1107 1.229 . S
C1106 O1115 1.058 . S
O1107 C1106 1.229 . S
C1108 O1109 1.229 . S
C1108 O1121 1.058 . S
O1109 C1108 1.229 . S
O1110 Zn1104 1.969 . S
O1110 C1113 1.267 . S
O1111 Zn1104 1.965 . S
O1111 C1122 1.260 . S
O1112 Zn1105 1.969 . S
O1112 C1122 1.258 . S
C1113 O1110 1.267 . S
C1113 O1114 1.228 . S
O1114 C1113 1.228 . S
O1115 Zn1104 2.024 . S
O1115 C1106 1.058 . S
C1116 O1117 1.228 . S
C1116 O1118 1.267 . S
O1117 C1116 1.228 . S
O1118 Zn1105 1.969 . S
O1118 C1116 1.267 . S
O1119 Zn1105 1.965 . S
O1119 C1123 1.260 . S
O1120 Zn1104 1.969 . S
O1120 C1123 1.258 . S
O1121 Zn1105 2.024 . S
O1121 C1108 1.058 . S
C1122 O1111 1.260 . S
C1122 O1112 1.258 . S
C1123 O1119 1.260 . S
C1123 O1120 1.258 . S
Zn1124 O1130 1.969 . S
Zn1124 O1131 1.965 . S
Zn1124 O1135 2.024 . S
Zn1124 O1140 1.969 . S
Zn1125 O1132 1.969 . S
Zn1125 O1138 1.969 . S
Zn1125 O1139 1.965 . S
Zn1125 O1141 2.024 . S
C1126 O1127 1.229 . S
C1126 O1135 1.058 . S
O1127 C1126 1.229 . S
C1128 O1129 1.229 . S
C1128 O1141 1.058 . S
O1129 C1128 1.229 . S
O1130 Zn1124 1.969 . S
O1130 C1133 1.267 . S
O1131 Zn1124 1.965 . S
O1131 C1142 1.260 . S
O1132 Zn1125 1.969 . S
O1132 C1142 1.258 . S
C1133 O1130 1.267 . S
C1133 O1134 1.228 . S
O1134 C1133 1.228 . S
O1135 Zn1124 2.024 . S
O1135 C1126 1.058 . S
C1136 O1137 1.228 . S
C1136 O1138 1.267 . S
O1137 C1136 1.228 . S
O1138 Zn1125 1.969 . S
O1138 C1136 1.267 . S
O1139 Zn1125 1.965 . S
O1139 C1143 1.260 . S
O1140 Zn1124 1.969 . S
O1140 C1143 1.258 . S
O1141 Zn1125 2.024 . S
O1141 C1128 1.058 . S
C1142 O1131 1.260 . S
C1142 O1132 1.258 . S
C1143 O1139 1.260 . S
C1143 O1140 1.258 . S
Zn1144 O1150 1.969 . S
Zn1144 O1151 1.965 . S
Zn1144 O1155 2.024 . S
Zn1144 O1160 1.969 . S
Zn1145 O1152 1.969 . S
Zn1145 O1158 1.969 . S
Zn1145 O1159 1.965 . S
Zn1145 O1161 2.024 . S
C1146 O1147 1.229 . S
C1146 O1155 1.058 . S
O1147 C1146 1.229 . S
C1148 O1149 1.229 . S
C1148 O1161 1.058 . S
O1149 C1148 1.229 . S
O1150 Zn1144 1.969 . S
O1150 C1153 1.267 . S
O1151 Zn1144 1.965 . S
O1151 C1162 1.260 . S
O1152 Zn1145 1.969 . S
O1152 C1162 1.258 . S
C1153 O1150 1.267 . S
C1153 O1154 1.228 . S
O1154 C1153 1.228 . S
O1155 Zn1144 2.024 . S
O1155 C1146 1.058 . S
C1156 O1157 1.228 . S
C1156 O1158 1.267 . S
O1157 C1156 1.228 . S
O1158 Zn1145 1.969 . S
O1158 C1156 1.267 . S
O1159 Zn1145 1.965 . S
O1159 C1163 1.260 . S
O1160 Zn1144 1.969 . S
O1160 C1163 1.258 . S
O1161 Zn1145 2.024 . S
O1161 C1148 1.058 . S
C1162 O1151 1.260 . S
C1162 O1152 1.258 . S
C1163 O1159 1.260 . S
C1163 O1160 1.258 . S
Zn1164 O1170 1.969 . S
Zn1164 O1171 1.965 . S
Zn1164 O1175 2.024 1_655 S
Zn1164 O1180 1.969 1_655 S
Zn1165 O1172 1.969 1_554 S
Zn1165 O1178 1.973 . S
Zn1165 O1179 1.965 . S
Zn1165 O1181 2.024 . S
C1166 O1167 1.229 . S
C1166 O1175 1.058 . S
O1167 C1166 1.229 . S
C1168 O1169 1.229 . S
C1168 O1181 1.058 1_556 S
O1169 C1168 1.229 . S
O1170 Zn1164 1.969 . S
O1170 C1173 1.267 . S
O1171 Zn1164 1.965 . S
O1171 C1182 1.260 1_654 S
O1172 Zn1165 1.969 1_556 S
O1172 C1182 1.258 . S
C1173 O1170 1.267 . S
C1173 O1174 1.228 . S
O1174 C1173 1.228 . S
O1175 Zn1164 2.024 1_455 S
O1175 C1166 1.058 . S
C1176 O1177 1.228 . S
C1176 O1178 1.274 . S
O1177 C1176 1.228 . S
O1178 Zn1165 1.973 . S
O1178 C1176 1.274 . S
O1179 Zn1165 1.965 . S
O1179 C1183 1.260 . S
O1180 Zn1164 1.969 1_455 S
O1180 C1183 1.258 . S
O1181 Zn1165 2.024 . S
O1181 C1168 1.058 1_554 S
C1182 O1171 1.260 1_456 S
C1182 O1172 1.258 . S
C1183 O1179 1.260 . S
C1183 O1180 1.258 . S
H1184 C1196 0.930 . S
H1185 C1198 0.930 . S
H1186 C1199 0.919 1_455 S
H1187 C1203 0.959 1_556 S
H1188 C1203 0.959 . S
H1189 C1203 0.961 . S
H1190 C1204 0.960 . S
H1191 C1204 0.961 1_554 S
H1192 C1204 0.959 . S
H1193 C1207 0.929 . S
H1194 C1208 0.931 . S
H1195 C1210 0.930 . S
C1196 H1184 0.930 . S
C1196 C1197 1.399 . S
C1196 C1201 1.399 . S
C1197 C1196 1.399 . S
C1197 C1198 1.376 . S
C1198 H1185 0.930 . S
C1198 C1197 1.376 . S
C1198 C1199 1.399 . S
C1199 H1186 0.919 1_655 S
C1199 C1198 1.399 . S
C1199 C1200 1.392 1_655 S
C1200 C1199 1.392 1_455 S
C1200 C1201 1.389 1_455 S
C1200 C1206 1.469 . S
C1201 C1196 1.399 . S
C1201 C1200 1.389 1_655 S
C1201 C1202 1.516 . S
C1202 C1201 1.516 . S
C1202 C1203 1.485 1_656 S
C1202 C1204 1.592 . S
C1202 C1205 1.515 1_655 S
C1203 H1187 0.959 1_554 S
C1203 H1188 0.959 . S
C1203 H1189 0.961 . S
C1203 C1202 1.485 1_454 S
C1204 H1190 0.960 . S
C1204 H1191 0.961 1_556 S
C1204 H1192 0.959 . S
C1204 C1202 1.592 . S
C1205 C1202 1.515 1_455 S
C1205 C1206 1.396 . S
C1205 C1210 1.390 1_556 S
C1206 C1200 1.469 . S
C1206 C1205 1.396 . S
C1206 C1207 1.399 . S
C1207 H1193 0.929 . S
C1207 C1206 1.399 . S
C1207 C1208 1.385 . S
C1208 H1194 0.931 . S
C1208 C1207 1.385 . S
C1208 C1209 1.389 . S
C1209 C1208 1.389 . S
C1209 C1210 1.387 1_556 S
C1210 H1195 0.930 . S
C1210 C1205 1.390 1_554 S
C1210 C1209 1.387 1_554 S
H1211 C1223 0.930 . S
H1212 C1225 0.930 . S
H1213 C1226 0.930 . S
H1214 C1230 0.959 . S
H1215 C1230 0.959 . S
H1216 C1230 0.961 . S
H1217 C1231 0.960 . S
H1218 C1231 0.961 . S
H1219 C1231 0.959 . S
H1220 C1234 0.929 . S
H1221 C1235 0.931 . S
H1222 C1237 0.930 . S
C1223 H1211 0.930 . S
C1223 C1224 1.399 . S
C1223 C1228 1.399 . S
C1224 C1223 1.399 . S
C1224 C1225 1.376 . S
C1225 H1212 0.930 . S
C1225 C1224 1.376 . S
C1225 C1226 1.388 . S
C1226 H1213 0.930 . S
C1226 C1225 1.388 . S
C1226 C1227 1.390 . S
C1227 C1226 1.390 . S
C1227 C1228 1.394 . S
C1227 C1233 1.465 . S
C1228 C1223 1.399 . S
C1228 C1227 1.394 . S
C1228 C1229 1.516 . S
C1229 C1228 1.516 . S
C1229 C1230 1.502 . S
C1229 C1231 1.561 . S
C1229 C1232 1.526 . S
C1230 H1214 0.959 . S
C1230 H1215 0.959 . S
C1230 H1216 0.961 . S
C1230 C1229 1.502 . S
C1231 H1217 0.960 . S
C1231 H1218 0.961 . S
C1231 H1219 0.959 . S
C1231 C1229 1.561 . S
C1232 C1229 1.526 . S
C1232 C1233 1.396 . S
C1232 C1237 1.390 . S
C1233 C1227 1.465 . S
C1233 C1232 1.396 . S
C1233 C1234 1.399 . S
C1234 H1220 0.929 . S
C1234 C1233 1.399 . S
C1234 C1235 1.385 . S
C1235 H1221 0.931 . S
C1235 C1234 1.385 . S
C1235 C1236 1.389 . S
C1236 C1235 1.389 . S
C1236 C1237 1.387 . S
C1237 H1222 0.930 . S
C1237 C1232 1.390 . S
C1237 C1236 1.387 . S
H1238 C1250 0.930 . S
H1239 C1252 0.930 . S
H1240 C1253 0.930 . S
H1241 C1257 0.959 . S
H1242 C1257 0.959 . S
H1243 C1257 0.961 . S
H1244 C1258 0.960 . S
H1245 C1258 0.961 . S
H1246 C1258 0.959 . S
H1247 C1261 0.929 . S
H1248 C1262 0.931 . S
H1249 C1264 0.930 . S
C1250 H1238 0.930 . S
C1250 C1251 1.399 . S
C1250 C1255 1.399 . S
C1251 C1250 1.399 . S
C1251 C1252 1.376 . S
C1252 H1239 0.930 . S
C1252 C1251 1.376 . S
C1252 C1253 1.388 . S
C1253 H1240 0.930 . S
C1253 C1252 1.388 . S
C1253 C1254 1.390 . S
C1254 C1253 1.390 . S
C1254 C1255 1.394 . S
C1254 C1260 1.465 . S
C1255 C1250 1.399 . S
C1255 C1254 1.394 . S
C1255 C1256 1.516 . S
C1256 C1255 1.516 . S
C1256 C1257 1.502 . S
C1256 C1258 1.561 . S
C1256 C1259 1.526 . S
C1257 H1241 0.959 . S
C1257 H1242 0.959 . S
C1257 H1243 0.961 . S
C1257 C1256 1.502 . S
C1258 H1244 0.960 . S
C1258 H1245 0.961 . S
C1258 H1246 0.959 . S
C1258 C1256 1.561 . S
C1259 C1256 1.526 . S
C1259 C1260 1.396 . S
C1259 C1264 1.390 . S
C1260 C1254 1.465 . S
C1260 C1259 1.396 . S
C1260 C1261 1.399 . S
C1261 H1247 0.929 . S
C1261 C1260 1.399 . S
C1261 C1262 1.385 . S
C1262 H1248 0.931 . S
C1262 C1261 1.385 . S
C1262 C1263 1.389 . S
C1263 C1262 1.389 . S
C1263 C1264 1.387 . S
C1264 H1249 0.930 . S
C1264 C1259 1.390 . S
C1264 C1263 1.387 . S
H1265 C1277 0.930 . S
H1266 C1279 0.930 . S
H1267 C1280 0.930 . S
H1268 C1284 0.959 . S
H1269 C1284 0.959 . S
H1270 C1284 0.961 . S
H1271 C1285 0.960 . S
H1272 C1285 0.961 . S
H1273 C1285 0.959 . S
H1274 C1288 0.929 . S
H1275 C1289 0.931 . S
H1276 C1291 0.930 . S
C1277 H1265 0.930 . S
C1277 C1278 1.399 . S
C1277 C1282 1.399 . S
C1278 C1277 1.399 . S
C1278 C1279 1.376 . S
C1279 H1266 0.930 . S
C1279 C1278 1.376 . S
C1279 C1280 1.388 . S
C1280 H1267 0.930 . S
C1280 C1279 1.388 . S
C1280 C1281 1.390 . S
C1281 C1280 1.390 . S
C1281 C1282 1.394 . S
C1281 C1287 1.465 . S
C1282 C1277 1.399 . S
C1282 C1281 1.394 . S
C1282 C1283 1.516 . S
C1283 C1282 1.516 . S
C1283 C1284 1.502 . S
C1283 C1285 1.561 . S
C1283 C1286 1.526 . S
C1284 H1268 0.959 . S
C1284 H1269 0.959 . S
C1284 H1270 0.961 . S
C1284 C1283 1.502 . S
C1285 H1271 0.960 . S
C1285 H1272 0.961 . S
C1285 H1273 0.959 . S
C1285 C1283 1.561 . S
C1286 C1283 1.526 . S
C1286 C1287 1.396 . S
C1286 C1291 1.390 . S
C1287 C1281 1.465 . S
C1287 C1286 1.396 . S
C1287 C1288 1.399 . S
C1288 H1274 0.929 . S
C1288 C1287 1.399 . S
C1288 C1289 1.385 . S
C1289 H1275 0.931 . S
C1289 C1288 1.385 . S
C1289 C1290 1.389 . S
C1290 C1289 1.389 . S
C1290 C1291 1.387 . S
C1291 H1276 0.930 . S
C1291 C1286 1.390 . S
C1291 C1290 1.387 . S
H1292 C1304 0.930 . S
H1293 C1306 0.930 . S
H1294 C1307 0.930 . S
H1295 C1311 0.959 . S
H1296 C1311 0.959 . S
H1297 C1311 0.961 . S
H1298 C1312 0.960 . S
H1299 C1312 0.961 . S
H1300 C1312 0.959 . S
H1301 C1315 0.929 . S
H1302 C1316 0.931 . S
H1303 C1318 0.930 . S
C1304 H1292 0.930 . S
C1304 C1305 1.399 . S
C1304 C1309 1.399 . S
C1305 C1304 1.399 . S
C1305 C1306 1.376 . S
C1306 H1293 0.930 . S
C1306 C1305 1.376 . S
C1306 C1307 1.388 . S
C1307 H1294 0.930 . S
C1307 C1306 1.388 . S
C1307 C1308 1.390 . S
C1308 C1307 1.390 . S
C1308 C1309 1.394 . S
C1308 C1314 1.465 . S
C1309 C1304 1.399 . S
C1309 C1308 1.394 . S
C1309 C1310 1.516 . S
C1310 C1309 1.516 . S
C1310 C1311 1.502 . S
C1310 C1312 1.561 1_455 S
C1310 C1313 1.526 . S
C1311 H1295 0.959 . S
C1311 H1296 0.959 . S
C1311 H1297 0.961 . S
C1311 C1310 1.502 . S
C1312 H1298 0.960 . S
C1312 H1299 0.961 . S
C1312 H1300 0.959 . S
C1312 C1310 1.561 1_655 S
C1313 C1310 1.526 . S
C1313 C1314 1.396 . S
C1313 C1318 1.390 . S
C1314 C1308 1.465 . S
C1314 C1313 1.396 . S
C1314 C1315 1.399 . S
C1315 H1301 0.929 . S
C1315 C1314 1.399 . S
C1315 C1316 1.385 . S
C1316 H1302 0.931 . S
C1316 C1315 1.385 . S
C1316 C1317 1.389 . S
C1317 C1316 1.389 . S
C1317 C1318 1.387 . S
C1318 H1303 0.930 . S
C1318 C1313 1.390 . S
C1318 C1317 1.387 . S
H1319 C1331 0.930 . S
H1320 C1333 0.930 . S
H1321 C1334 0.930 . S
H1322 C1338 0.959 . S
H1323 C1338 0.959 . S
H1324 C1338 0.961 . S
H1325 C1339 0.960 . S
H1326 C1339 0.961 . S
H1327 C1339 0.959 . S
H1328 C1342 0.929 . S
H1329 C1343 0.931 . S
H1330 C1345 0.930 . S
C1331 H1319 0.930 . S
C1331 C1332 1.399 . S
C1331 C1336 1.399 . S
C1332 C1331 1.399 . S
C1332 C1333 1.376 . S
C1333 H1320 0.930 . S
C1333 C1332 1.376 . S
C1333 C1334 1.388 . S
C1334 H1321 0.930 . S
C1334 C1333 1.388 . S
C1334 C1335 1.390 . S
C1335 C1334 1.390 . S
C1335 C1336 1.394 . S
C1335 C1341 1.465 . S
C1336 C1331 1.399 . S
C1336 C1335 1.394 . S
C1336 C1337 1.516 . S
C1337 C1336 1.516 . S
C1337 C1338 1.502 . S
C1337 C1339 1.561 . S
C1337 C1340 1.526 . S
C1338 H1322 0.959 . S
C1338 H1323 0.959 . S
C1338 H1324 0.961 . S
C1338 C1337 1.502 . S
C1339 H1325 0.960 . S
C1339 H1326 0.961 . S
C1339 H1327 0.959 . S
C1339 C1337 1.561 . S
C1340 C1337 1.526 . S
C1340 C1341 1.396 . S
C1340 C1345 1.390 . S
C1341 C1335 1.465 . S
C1341 C1340 1.396 . S
C1341 C1342 1.399 . S
C1342 H1328 0.929 . S
C1342 C1341 1.399 . S
C1342 C1343 1.385 . S
C1343 H1329 0.931 . S
C1343 C1342 1.385 . S
C1343 C1344 1.389 . S
C1344 C1343 1.389 . S
C1344 C1345 1.387 . S
C1345 H1330 0.930 . S
C1345 C1340 1.390 . S
C1345 C1344 1.387 . S
H1346 C1358 0.930 . S
H1347 C1360 0.930 . S
H1348 C1361 0.930 . S
H1349 C1365 0.959 . S
H1350 C1365 0.959 . S
H1351 C1365 0.961 . S
H1352 C1366 0.960 . S
H1353 C1366 0.961 . S
H1354 C1366 0.959 . S
H1355 C1369 0.929 . S
H1356 C1370 0.931 . S
H1357 C1372 0.930 . S
C1358 H1346 0.930 . S
C1358 C1359 1.399 . S
C1358 C1363 1.399 . S
C1359 C1358 1.399 . S
C1359 C1360 1.376 . S
C1360 H1347 0.930 . S
C1360 C1359 1.376 . S
C1360 C1361 1.388 . S
C1361 H1348 0.930 . S
C1361 C1360 1.388 . S
C1361 C1362 1.390 . S
C1362 C1361 1.390 . S
C1362 C1363 1.394 . S
C1362 C1368 1.465 . S
C1363 C1358 1.399 . S
C1363 C1362 1.394 . S
C1363 C1364 1.516 . S
C1364 C1363 1.516 . S
C1364 C1365 1.502 . S
C1364 C1366 1.561 . S
C1364 C1367 1.526 . S
C1365 H1349 0.959 . S
C1365 H1350 0.959 . S
C1365 H1351 0.961 . S
C1365 C1364 1.502 . S
C1366 H1352 0.960 . S
C1366 H1353 0.961 . S
C1366 H1354 0.959 . S
C1366 C1364 1.561 . S
C1367 C1364 1.526 . S
C1367 C1368 1.396 . S
C1367 C1372 1.390 . S
C1368 C1362 1.465 . S
C1368 C1367 1.396 . S
C1368 C1369 1.399 . S
C1369 H1355 0.929 . S
C1369 C1368 1.399 . S
C1369 C1370 1.385 . S
C1370 H1356 0.931 . S
C1370 C1369 1.385 . S
C1370 C1371 1.389 . S
C1371 C1370 1.389 . S
C1371 C1372 1.387 . S
C1372 H1357 0.930 . S
C1372 C1367 1.390 . S
C1372 C1371 1.387 . S
H1373 C1385 0.930 . S
H1374 C1387 0.930 . S
H1375 C1388 0.930 . S
H1376 C1392 0.959 . S
H1377 C1392 0.959 . S
H1378 C1392 0.961 . S
H1379 C1393 0.960 . S
H1380 C1393 0.961 . S
H1381 C1393 0.959 . S
H1382 C1396 0.929 . S
H1383 C1397 0.931 . S
H1384 C1399 0.930 . S
C1385 H1373 0.930 . S
C1385 C1386 1.399 . S
C1385 C1390 1.399 . S
C1386 C1385 1.399 . S
C1386 C1387 1.376 . S
C1387 H1374 0.930 . S
C1387 C1386 1.376 . S
C1387 C1388 1.388 . S
C1388 H1375 0.930 . S
C1388 C1387 1.388 . S
C1388 C1389 1.390 . S
C1389 C1388 1.390 . S
C1389 C1390 1.394 . S
C1389 C1395 1.465 . S
C1390 C1385 1.399 . S
C1390 C1389 1.394 . S
C1390 C1391 1.516 . S
C1391 C1390 1.516 . S
C1391 C1392 1.502 . S
C1391 C1393 1.561 . S
C1391 C1394 1.526 . S
C1392 H1376 0.959 . S
C1392 H1377 0.959 . S
C1392 H1378 0.961 . S
C1392 C1391 1.502 . S
C1393 H1379 0.960 . S
C1393 H1380 0.961 . S
C1393 H1381 0.959 . S
C1393 C1391 1.561 . S
C1394 C1391 1.526 . S
C1394 C1395 1.396 . S
C1394 C1399 1.390 . S
C1395 C1389 1.465 . S
C1395 C1394 1.396 . S
C1395 C1396 1.399 . S
C1396 H1382 0.929 . S
C1396 C1395 1.399 . S
C1396 C1397 1.385 . S
C1397 H1383 0.931 . S
C1397 C1396 1.385 . S
C1397 C1398 1.389 . S
C1398 C1397 1.389 . S
C1398 C1399 1.387 . S
C1399 H1384 0.930 . S
C1399 C1394 1.390 . S
C1399 C1398 1.387 . S
H1400 C1412 0.930 . S
H1401 C1414 0.930 . S
H1402 C1415 0.930 . S
H1403 C1419 0.959 . S
H1404 C1419 0.959 . S
H1405 C1419 0.961 . S
H1406 C1420 0.960 . S
H1407 C1420 0.961 . S
H1408 C1420 0.959 . S
H1409 C1423 0.929 . S
H1410 C1424 0.931 . S
H1411 C1426 0.930 . S
C1412 H1400 0.930 . S
C1412 C1413 1.399 . S
C1412 C1417 1.399 . S
C1413 C1412 1.399 . S
C1413 C1414 1.376 1_545 S
C1414 H1401 0.930 . S
C1414 C1413 1.376 1_565 S
C1414 C1415 1.388 . S
C1415 H1402 0.930 . S
C1415 C1414 1.388 . S
C1415 C1416 1.390 . S
C1416 C1415 1.390 . S
C1416 C1417 1.394 1_565 S
C1416 C1422 1.465 . S
C1417 C1412 1.399 . S
C1417 C1416 1.394 1_545 S
C1417 C1418 1.516 . S
C1418 C1417 1.516 . S
C1418 C1419 1.502 . S
C1418 C1420 1.561 . S
C1418 C1421 1.526 . S
C1419 H1403 0.959 . S
C1419 H1404 0.959 . S
C1419 H1405 0.961 . S
C1419 C1418 1.502 . S
C1420 H1406 0.960 . S
C1420 H1407 0.961 . S
C1420 H1408 0.959 . S
C1420 C1418 1.561 . S
C1421 C1418 1.526 . S
C1421 C1422 1.396 1_545 S
C1421 C1426 1.390 . S
C1422 C1416 1.465 . S
C1422 C1421 1.396 1_565 S
C1422 C1423 1.399 . S
C1423 H1409 0.929 . S
C1423 C1422 1.399 . S
C1423 C1424 1.385 . S
C1424 H1410 0.931 . S
C1424 C1423 1.385 . S
C1424 C1425 1.389 1_565 S
C1425 C1424 1.389 1_545 S
C1425 C1426 1.387 . S
C1426 H1411 0.930 . S
C1426 C1421 1.390 . S
C1426 C1425 1.387 . S
H1427 C1439 0.930 . S
H1428 C1441 0.930 . S
H1429 C1442 0.930 . S
H1430 C1446 0.959 . S
H1431 C1446 0.959 . S
H1432 C1446 0.961 . S
H1433 C1447 0.960 . S
H1434 C1447 0.961 . S
H1435 C1447 0.959 . S
H1436 C1450 0.929 . S
H1437 C1451 0.931 . S
H1438 C1453 0.930 . S
C1439 H1427 0.930 . S
C1439 C1440 1.399 . S
C1439 C1444 1.399 . S
C1440 C1439 1.399 . S
C1440 C1441 1.376 . S
C1441 H1428 0.930 . S
C1441 C1440 1.376 . S
C1441 C1442 1.388 . S
C1442 H1429 0.930 . S
C1442 C1441 1.388 . S
C1442 C1443 1.390 . S
C1443 C1442 1.390 . S
C1443 C1444 1.394 . S
C1443 C1449 1.465 . S
C1444 C1439 1.399 . S
C1444 C1443 1.394 . S
C1444 C1445 1.516 . S
C1445 C1444 1.516 . S
C1445 C1446 1.502 . S
C1445 C1447 1.561 . S
C1445 C1448 1.526 . S
C1446 H1430 0.959 . S
C1446 H1431 0.959 . S
C1446 H1432 0.961 . S
C1446 C1445 1.502 . S
C1447 H1433 0.960 . S
C1447 H1434 0.961 . S
C1447 H1435 0.959 . S
C1447 C1445 1.561 . S
C1448 C1445 1.526 . S
C1448 C1449 1.396 . S
C1448 C1453 1.390 . S
C1449 C1443 1.465 . S
C1449 C1448 1.396 . S
C1449 C1450 1.399 . S
C1450 H1436 0.929 . S
C1450 C1449 1.399 . S
C1450 C1451 1.385 . S
C1451 H1437 0.931 . S
C1451 C1450 1.385 . S
C1451 C1452 1.389 . S
C1452 C1451 1.389 . S
C1452 C1453 1.387 . S
C1453 H1438 0.930 . S
C1453 C1448 1.390 . S
C1453 C1452 1.387 . S
H1454 C1466 0.930 . S
H1455 C1468 0.930 . S
H1456 C1469 0.930 . S
H1457 C1473 0.959 . S
H1458 C1473 0.959 . S
H1459 C1473 0.961 . S
H1460 C1474 0.960 . S
H1461 C1474 0.961 . S
H1462 C1474 0.959 . S
H1463 C1477 0.929 . S
H1464 C1478 0.931 . S
H1465 C1480 0.930 . S
C1466 H1454 0.930 . S
C1466 C1467 1.399 . S
C1466 C1471 1.399 . S
C1467 C1466 1.399 . S
C1467 C1468 1.376 1_565 S
C1468 H1455 0.930 . S
C1468 C1467 1.376 1_545 S
C1468 C1469 1.388 . S
C1469 H1456 0.930 . S
C1469 C1468 1.388 . S
C1469 C1470 1.390 . S
C1470 C1469 1.390 . S
C1470 C1471 1.394 1_545 S
C1470 C1476 1.465 . S
C1471 C1466 1.399 . S
C1471 C1470 1.394 1_565 S
C1471 C1472 1.516 . S
C1472 C1471 1.516 . S
C1472 C1473 1.502 . S
C1472 C1474 1.561 . S
C1472 C1475 1.526 . S
C1473 H1457 0.959 . S
C1473 H1458 0.959 . S
C1473 H1459 0.961 . S
C1473 C1472 1.502 . S
C1474 H1460 0.960 . S
C1474 H1461 0.961 . S
C1474 H1462 0.959 . S
C1474 C1472 1.561 . S
C1475 C1472 1.526 . S
C1475 C1476 1.396 1_565 S
C1475 C1480 1.390 . S
C1476 C1470 1.465 . S
C1476 C1475 1.396 1_545 S
C1476 C1477 1.399 . S
C1477 H1463 0.929 . S
C1477 C1476 1.399 . S
C1477 C1478 1.385 . S
C1478 H1464 0.931 . S
C1478 C1477 1.385 . S
C1478 C1479 1.389 . S
C1479 C1478 1.389 . S
C1479 C1480 1.387 1_545 S
C1480 H1465 0.930 . S
C1480 C1475 1.390 . S
C1480 C1479 1.387 1_565 S
H1481 C1493 0.930 . S
H1482 C1495 0.930 . S
H1483 C1496 0.930 . S
H1484 C1500 0.959 . S
H1485 C1500 0.959 . S
H1486 C1500 0.961 . S
H1487 C1501 0.960 . S
H1488 C1501 0.961 . S
H1489 C1501 0.959 . S
H1490 C1504 0.929 . S
H1491 C1505 0.931 . S
H1492 C1507 0.930 . S
C1493 H1481 0.930 . S
C1493 C1494 1.399 . S
C1493 C1498 1.399 . S
C1494 C1493 1.399 . S
C1494 C1495 1.376 . S
C1495 H1482 0.930 . S
C1495 C1494 1.376 . S
C1495 C1496 1.388 . S
C1496 H1483 0.930 . S
C1496 C1495 1.388 . S
C1496 C1497 1.390 . S
C1497 C1496 1.390 . S
C1497 C1498 1.394 . S
C1497 C1503 1.465 . S
C1498 C1493 1.399 . S
C1498 C1497 1.394 . S
C1498 C1499 1.516 . S
C1499 C1498 1.516 . S
C1499 C1500 1.502 . S
C1499 C1501 1.561 . S
C1499 C1502 1.526 . S
C1500 H1484 0.959 . S
C1500 H1485 0.959 . S
C1500 H1486 0.961 . S
C1500 C1499 1.502 . S
C1501 H1487 0.960 . S
C1501 H1488 0.961 . S
C1501 H1489 0.959 . S
C1501 C1499 1.561 . S
C1502 C1499 1.526 . S
C1502 C1503 1.396 . S
C1502 C1507 1.390 . S
C1503 C1497 1.465 . S
C1503 C1502 1.396 . S
C1503 C1504 1.399 . S
C1504 H1490 0.929 . S
C1504 C1503 1.399 . S
C1504 C1505 1.385 . S
C1505 H1491 0.931 . S
C1505 C1504 1.385 . S
C1505 C1506 1.389 . S
C1506 C1505 1.389 . S
C1506 C1507 1.387 . S
C1507 H1492 0.930 . S
C1507 C1502 1.390 . S
C1507 C1506 1.387 . S
H1508 C1520 0.930 . S
H1509 C1522 0.930 . S
H1510 C1523 0.930 . S
H1511 C1527 0.977 . S
H1512 C1527 0.953 1_455 S
H1513 C1527 0.961 . S
H1514 C1528 0.960 . S
H1515 C1528 0.961 . S
H1516 C1528 0.959 . S
H1517 C1531 0.929 . S
H1518 C1532 0.931 . S
H1519 C1534 0.930 . S
C1520 H1508 0.930 . S
C1520 C1521 1.399 . S
C1520 C1525 1.399 . S
C1521 C1520 1.399 . S
C1521 C1522 1.376 1_545 S
C1522 H1509 0.930 . S
C1522 C1521 1.376 1_565 S
C1522 C1523 1.388 . S
C1523 H1510 0.930 . S
C1523 C1522 1.388 . S
C1523 C1524 1.390 . S
C1524 C1523 1.390 . S
C1524 C1525 1.394 1_565 S
C1524 C1530 1.465 . S
C1525 C1520 1.399 . S
C1525 C1524 1.394 1_545 S
C1525 C1526 1.516 . S
C1526 C1525 1.516 . S
C1526 C1527 1.502 . S
C1526 C1528 1.561 . S
C1526 C1529 1.526 . S
C1527 H1511 0.977 . S
C1527 H1512 0.953 1_655 S
C1527 H1513 0.961 . S
C1527 C1526 1.502 . S
C1528 H1514 0.960 . S
C1528 H1515 0.961 . S
C1528 H1516 0.959 . S
C1528 C1526 1.561 . S
C1529 C1526 1.526 . S
C1529 C1530 1.396 1_545 S
C1529 C1534 1.390 . S
C1530 C1524 1.465 . S
C1530 C1529 1.396 1_565 S
C1530 C1531 1.399 . S
C1531 H1517 0.929 . S
C1531 C1530 1.399 . S
C1531 C1532 1.385 . S
C1532 H1518 0.931 . S
C1532 C1531 1.385 . S
C1532 C1533 1.389 1_565 S
C1533 C1532 1.389 1_545 S
C1533 C1534 1.387 . S
C1534 H1519 0.930 . S
C1534 C1529 1.390 . S
C1534 C1533 1.387 . S
H1535 C1547 0.930 . S
H1536 C1549 0.930 . S
H1537 C1550 0.930 . S
H1538 C1554 0.959 . S
H1539 C1554 0.959 . S
H1540 C1554 0.961 . S
H1541 C1555 0.960 . S
H1542 C1555 0.961 . S
H1543 C1555 0.959 . S
H1544 C1558 0.929 . S
H1545 C1559 0.931 . S
H1546 C1561 0.930 . S
C1547 H1535 0.930 . S
C1547 C1548 1.399 . S
C1547 C1552 1.399 . S
C1548 C1547 1.399 . S
C1548 C1549 1.376 . S
C1549 H1536 0.930 . S
C1549 C1548 1.376 . S
C1549 C1550 1.388 . S
C1550 H1537 0.930 . S
C1550 C1549 1.388 . S
C1550 C1551 1.390 . S
C1551 C1550 1.390 . S
C1551 C1552 1.394 . S
C1551 C1557 1.465 . S
C1552 C1547 1.399 . S
C1552 C1551 1.394 . S
C1552 C1553 1.516 . S
C1553 C1552 1.516 . S
C1553 C1554 1.502 . S
C1553 C1555 1.561 . S
C1553 C1556 1.526 . S
C1554 H1538 0.959 . S
C1554 H1539 0.959 . S
C1554 H1540 0.961 . S
C1554 C1553 1.502 . S
C1555 H1541 0.960 . S
C1555 H1542 0.961 . S
C1555 H1543 0.959 . S
C1555 C1553 1.561 . S
C1556 C1553 1.526 . S
C1556 C1557 1.396 . S
C1556 C1561 1.390 . S
C1557 C1551 1.465 . S
C1557 C1556 1.396 . S
C1557 C1558 1.399 . S
C1558 H1544 0.929 . S
C1558 C1557 1.399 . S
C1558 C1559 1.385 . S
C1559 H1545 0.931 . S
C1559 C1558 1.385 . S
C1559 C1560 1.389 . S
C1560 C1559 1.389 . S
C1560 C1561 1.387 . S
C1561 H1546 0.930 . S
C1561 C1556 1.390 . S
C1561 C1560 1.387 . S
H1562 C1574 0.930 . S
H1563 C1576 0.930 . S
H1564 C1577 0.930 . S
H1565 C1581 0.959 . S
H1566 C1581 0.959 . S
H1567 C1581 0.961 . S
H1568 C1582 0.960 . S
H1569 C1582 0.961 . S
H1570 C1582 0.959 . S
H1571 C1585 0.929 . S
H1572 C1586 0.931 . S
H1573 C1588 0.930 1_565 S
C1574 H1562 0.930 . S
C1574 C1575 1.399 1_565 S
C1574 C1579 1.399 . S
C1575 C1574 1.399 1_545 S
C1575 C1576 1.376 . S
C1576 H1563 0.930 . S
C1576 C1575 1.376 . S
C1576 C1577 1.388 . S
C1577 H1564 0.930 . S
C1577 C1576 1.388 . S
C1577 C1578 1.390 . S
C1578 C1577 1.390 . S
C1578 C1579 1.394 1_545 S
C1578 C1584 1.465 . S
C1579 C1574 1.399 . S
C1579 C1578 1.394 1_565 S
C1579 C1580 1.516 . S
C1580 C1579 1.516 . S
C1580 C1581 1.502 . S
C1580 C1582 1.561 . S
C1580 C1583 1.526 1_565 S
C1581 H1565 0.959 . S
C1581 H1566 0.959 . S
C1581 H1567 0.961 . S
C1581 C1580 1.502 . S
C1582 H1568 0.960 . S
C1582 H1569 0.961 . S
C1582 H1570 0.959 . S
C1582 C1580 1.561 . S
C1583 C1580 1.526 1_545 S
C1583 C1584 1.396 . S
C1583 C1588 1.390 . S
C1584 C1578 1.465 . S
C1584 C1583 1.396 . S
C1584 C1585 1.399 . S
C1585 H1571 0.929 . S
C1585 C1584 1.399 . S
C1585 C1586 1.385 . S
C1586 H1572 0.931 . S
C1586 C1585 1.385 . S
C1586 C1587 1.389 . S
C1587 C1586 1.389 . S
C1587 C1588 1.387 . S
C1588 H1573 0.930 1_545 S
C1588 C1583 1.390 . S
C1588 C1587 1.387 . S
H1589 C1601 0.930 . S
H1590 C1603 0.930 . S
H1591 C1604 0.930 . S
H1592 C1608 0.959 . S
H1593 C1608 0.959 . S
H1594 C1608 0.961 . S
H1595 C1609 0.960 . S
H1596 C1609 0.961 . S
H1597 C1609 0.959 . S
H1598 C1612 0.929 . S
H1599 C1613 0.931 . S
H1600 C1615 0.930 . S
C1601 H1589 0.930 . S
C1601 C1602 1.399 . S
C1601 C1606 1.399 . S
C1602 C1601 1.399 . S
C1602 C1603 1.376 . S
C1603 H1590 0.930 . S
C1603 C1602 1.376 . S
C1603 C1604 1.388 . S
C1604 H1591 0.930 . S
C1604 C1603 1.388 . S
C1604 C1605 1.390 . S
C1605 C1604 1.390 . S
C1605 C1606 1.394 . S
C1605 C1611 1.465 . S
C1606 C1601 1.399 . S
C1606 C1605 1.394 . S
C1606 C1607 1.516 . S
C1607 C1606 1.516 . S
C1607 C1608 1.502 . S
C1607 C1609 1.561 . S
C1607 C1610 1.526 . S
C1608 H1592 0.959 . S
C1608 H1593 0.959 . S
C1608 H1594 0.961 . S
C1608 C1607 1.502 . S
C1609 H1595 0.960 . S
C1609 H1596 0.961 . S
C1609 H1597 0.959 . S
C1609 C1607 1.561 . S
C1610 C1607 1.526 . S
C1610 C1611 1.396 . S
C1610 C1615 1.390 . S
C1611 C1605 1.465 . S
C1611 C1610 1.396 . S
C1611 C1612 1.399 . S
C1612 H1598 0.929 . S
C1612 C1611 1.399 . S
C1612 C1613 1.385 . S
C1613 H1599 0.931 . S
C1613 C1612 1.385 . S
C1613 C1614 1.389 . S
C1614 C1613 1.389 . S
C1614 C1615 1.387 . S
C1615 H1600 0.930 . S
C1615 C1610 1.390 . S
C1615 C1614 1.387 . S
H1616 C1628 0.930 . S
H1617 C1630 0.930 . S
H1618 C1631 0.930 . S
H1619 C1635 0.959 . S
H1620 C1635 0.959 . S
H1621 C1635 0.961 . S
H1622 C1636 0.960 . S
H1623 C1636 0.961 . S
H1624 C1636 0.959 . S
H1625 C1639 0.929 1_556 S
H1626 C1640 0.942 . S
H1627 C1642 0.930 . S
C1628 H1616 0.930 . S
C1628 C1629 1.399 . S
C1628 C1633 1.399 . S
C1629 C1628 1.399 . S
C1629 C1630 1.376 1_554 S
C1630 H1617 0.930 . S
C1630 C1629 1.376 1_556 S
C1630 C1631 1.388 . S
C1631 H1618 0.930 . S
C1631 C1630 1.388 . S
C1631 C1632 1.390 1_556 S
C1632 C1631 1.390 1_554 S
C1632 C1633 1.394 . S
C1632 C1638 1.465 . S
C1633 C1628 1.399 . S
C1633 C1632 1.394 . S
C1633 C1634 1.516 . S
C1634 C1633 1.516 . S
C1634 C1635 1.502 . S
C1634 C1636 1.561 . S
C1634 C1637 1.526 . S
C1635 H1619 0.959 . S
C1635 H1620 0.959 . S
C1635 H1621 0.961 . S
C1635 C1634 1.502 . S
C1636 H1622 0.960 . S
C1636 H1623 0.961 . S
C1636 H1624 0.959 . S
C1636 C1634 1.561 . S
C1637 C1634 1.526 . S
C1637 C1638 1.396 . S
C1637 C1642 1.390 . S
C1638 C1632 1.465 . S
C1638 C1637 1.396 . S
C1638 C1639 1.399 . S
C1639 H1625 0.929 1_554 S
C1639 C1638 1.399 . S
C1639 C1640 1.385 . S
C1640 H1626 0.942 . S
C1640 C1639 1.385 . S
C1640 C1641 1.389 . S
C1641 C1640 1.389 . S
C1641 C1642 1.387 . S
C1642 H1627 0.930 . S
C1642 C1637 1.390 . S
C1642 C1641 1.387 . S
H1643 C1655 0.930 . S
H1644 C1657 0.932 . S
H1645 C1658 0.930 . S
H1646 C1662 0.959 . S
H1647 C1662 0.959 . S
H1648 C1662 0.961 . S
H1649 C1663 0.960 . S
H1650 C1663 0.961 . S
H1651 C1663 0.959 . S
H1652 C1666 0.929 . S
H1653 C1667 0.931 . S
H1654 C1669 0.930 . S
C1655 H1643 0.930 . S
C1655 C1656 1.395 1_554 S
C1655 C1660 1.399 . S
C1656 C1655 1.395 1_556 S
C1656 C1657 1.375 1_556 S
C1657 H1644 0.932 . S
C1657 C1656 1.375 1_554 S
C1657 C1658 1.388 . S
C1658 H1645 0.930 . S
C1658 C1657 1.388 . S
C1658 C1659 1.390 . S
C1659 C1658 1.390 . S
C1659 C1660 1.394 . S
C1659 C1665 1.465 . S
C1660 C1655 1.399 . S
C1660 C1659 1.394 . S
C1660 C1661 1.516 . S
C1661 C1660 1.516 . S
C1661 C1662 1.502 1_554 S
C1661 C1663 1.561 . S
C1661 C1664 1.526 . S
C1662 H1646 0.959 . S
C1662 H1647 0.959 . S
C1662 H1648 0.961 . S
C1662 C1661 1.502 1_556 S
C1663 H1649 0.960 . S
C1663 H1650 0.961 . S
C1663 H1651 0.959 . S
C1663 C1661 1.561 . S
C1664 C1661 1.526 . S
C1664 C1665 1.396 . S
C1664 C1669 1.390 . S
C1665 C1659 1.465 . S
C1665 C1664 1.396 . S
C1665 C1666 1.399 . S
C1666 H1652 0.929 . S
C1666 C1665 1.399 . S
C1666 C1667 1.385 . S
C1667 H1653 0.931 . S
C1667 C1666 1.385 . S
C1667 C1668 1.389 . S
C1668 C1667 1.389 . S
C1668 C1669 1.387 . S
C1669 H1654 0.930 . S
C1669 C1664 1.390 . S
C1669 C1668 1.387 . S
H1670 C1682 0.930 . S
H1671 C1684 0.930 . S
H1672 C1685 0.930 . S
H1673 C1689 0.959 . S
H1674 C1689 0.959 . S
H1675 C1689 0.961 . S
H1676 C1690 0.960 . S
H1677 C1690 0.961 . S
H1678 C1690 0.959 . S
H1679 C1693 0.929 . S
H1680 C1694 0.931 . S
H1681 C1696 0.930 . S
C1682 H1670 0.930 . S
C1682 C1683 1.399 . S
C1682 C1687 1.399 . S
C1683 C1682 1.399 . S
C1683 C1684 1.376 . S
C1684 H1671 0.930 . S
C1684 C1683 1.376 . S
C1684 C1685 1.388 . S
C1685 H1672 0.930 . S
C1685 C1684 1.388 . S
C1685 C1686 1.390 . S
C1686 C1685 1.390 . S
C1686 C1687 1.394 . S
C1686 C1692 1.465 . S
C1687 C1682 1.399 . S
C1687 C1686 1.394 . S
C1687 C1688 1.516 . S
C1688 C1687 1.516 . S
C1688 C1689 1.502 . S
C1688 C1690 1.561 . S
C1688 C1691 1.526 . S
C1689 H1673 0.959 . S
C1689 H1674 0.959 . S
C1689 H1675 0.961 . S
C1689 C1688 1.502 . S
C1690 H1676 0.960 . S
C1690 H1677 0.961 . S
C1690 H1678 0.959 . S
C1690 C1688 1.561 . S
C1691 C1688 1.526 . S
C1691 C1692 1.396 . S
C1691 C1696 1.390 . S
C1692 C1686 1.465 . S
C1692 C1691 1.396 . S
C1692 C1693 1.399 . S
C1693 H1679 0.929 . S
C1693 C1692 1.399 . S
C1693 C1694 1.385 . S
C1694 H1680 0.931 . S
C1694 C1693 1.385 . S
C1694 C1695 1.389 . S
C1695 C1694 1.389 . S
C1695 C1696 1.387 . S
C1696 H1681 0.930 . S
C1696 C1691 1.390 . S
C1696 C1695 1.387 . S
H1697 C1709 0.930 . S
H1698 C1711 0.930 . S
H1699 C1712 0.930 . S
H1700 C1716 0.959 . S
H1701 C1716 0.959 . S
H1702 C1716 0.961 . S
H1703 C1717 0.960 . S
H1704 C1717 0.961 . S
H1705 C1717 0.959 . S
H1706 C1720 0.929 . S
H1707 C1721 0.931 . S
H1708 C1723 0.930 . S
C1709 H1697 0.930 . S
C1709 C1710 1.399 . S
C1709 C1714 1.399 . S
C1710 C1709 1.399 . S
C1710 C1711 1.376 . S
C1711 H1698 0.930 . S
C1711 C1710 1.376 . S
C1711 C1712 1.388 . S
C1712 H1699 0.930 . S
C1712 C1711 1.388 . S
C1712 C1713 1.390 . S
C1713 C1712 1.390 . S
C1713 C1714 1.394 . S
C1713 C1719 1.465 . S
C1714 C1709 1.399 . S
C1714 C1713 1.394 . S
C1714 C1715 1.516 . S
C1715 C1714 1.516 . S
C1715 C1716 1.502 . S
C1715 C1717 1.561 . S
C1715 C1718 1.526 . S
C1716 H1700 0.959 . S
C1716 H1701 0.959 . S
C1716 H1702 0.961 . S
C1716 C1715 1.502 . S
C1717 H1703 0.960 . S
C1717 H1704 0.961 . S
C1717 H1705 0.959 . S
C1717 C1715 1.561 . S
C1718 C1715 1.526 . S
C1718 C1719 1.396 . S
C1718 C1723 1.390 . S
C1719 C1713 1.465 . S
C1719 C1718 1.396 . S
C1719 C1720 1.399 . S
C1720 H1706 0.929 . S
C1720 C1719 1.399 . S
C1720 C1721 1.385 . S
C1721 H1707 0.931 . S
C1721 C1720 1.385 . S
C1721 C1722 1.389 . S
C1722 C1721 1.389 . S
C1722 C1723 1.387 . S
C1723 H1708 0.930 . S
C1723 C1718 1.390 . S
C1723 C1722 1.387 . S
H1724 C1736 0.930 . S
H1725 C1738 0.930 . S
H1726 C1739 0.930 . S
H1727 C1743 0.959 . S
H1728 C1743 0.959 . S
H1729 C1743 0.961 . S
H1730 C1744 0.960 . S
H1731 C1744 0.961 . S
H1732 C1744 0.959 . S
H1733 C1747 0.929 . S
H1734 C1748 0.931 . S
H1735 C1750 0.930 . S
C1736 H1724 0.930 . S
C1736 C1737 1.399 . S
C1736 C1741 1.399 . S
C1737 C1736 1.399 . S
C1737 C1738 1.376 . S
C1738 H1725 0.930 . S
C1738 C1737 1.376 . S
C1738 C1739 1.388 . S
C1739 H1726 0.930 . S
C1739 C1738 1.388 . S
C1739 C1740 1.390 . S
C1740 C1739 1.390 . S
C1740 C1741 1.394 . S
C1740 C1746 1.465 . S
C1741 C1736 1.399 . S
C1741 C1740 1.394 . S
C1741 C1742 1.516 . S
C1742 C1741 1.516 . S
C1742 C1743 1.502 . S
C1742 C1744 1.561 . S
C1742 C1745 1.526 . S
C1743 H1727 0.959 . S
C1743 H1728 0.959 . S
C1743 H1729 0.961 . S
C1743 C1742 1.502 . S
C1744 H1730 0.960 . S
C1744 H1731 0.961 . S
C1744 H1732 0.959 . S
C1744 C1742 1.561 . S
C1745 C1742 1.526 . S
C1745 C1746 1.396 . S
C1745 C1750 1.390 . S
C1746 C1740 1.465 . S
C1746 C1745 1.396 . S
C1746 C1747 1.399 . S
C1747 H1733 0.929 . S
C1747 C1746 1.399 . S
C1747 C1748 1.385 . S
C1748 H1734 0.931 . S
C1748 C1747 1.385 . S
C1748 C1749 1.389 . S
C1749 C1748 1.389 . S
C1749 C1750 1.387 . S
C1750 H1735 0.930 . S
C1750 C1745 1.390 . S
C1750 C1749 1.387 . S
H1751 C1763 0.930 . S
H1752 C1765 0.930 . S
H1753 C1766 0.930 . S
H1754 C1770 0.959 . S
H1755 C1770 0.959 . S
H1756 C1770 0.961 . S
H1757 C1771 0.960 . S
H1758 C1771 0.961 . S
H1759 C1771 0.959 . S
H1760 C1774 0.929 . S
H1761 C1775 0.931 . S
H1762 C1777 0.930 . S
C1763 H1751 0.930 . S
C1763 C1764 1.399 . S
C1763 C1768 1.399 . S
C1764 C1763 1.399 . S
C1764 C1765 1.376 . S
C1765 H1752 0.930 . S
C1765 C1764 1.376 . S
C1765 C1766 1.388 . S
C1766 H1753 0.930 . S
C1766 C1765 1.388 . S
C1766 C1767 1.390 . S
C1767 C1766 1.390 . S
C1767 C1768 1.394 . S
C1767 C1773 1.465 . S
C1768 C1763 1.399 . S
C1768 C1767 1.394 . S
C1768 C1769 1.516 . S
C1769 C1768 1.516 . S
C1769 C1770 1.502 . S
C1769 C1771 1.561 . S
C1769 C1772 1.526 . S
C1770 H1754 0.959 . S
C1770 H1755 0.959 . S
C1770 H1756 0.961 . S
C1770 C1769 1.502 . S
C1771 H1757 0.960 . S
C1771 H1758 0.961 . S
C1771 H1759 0.959 . S
C1771 C1769 1.561 . S
C1772 C1769 1.526 . S
C1772 C1773 1.396 . S
C1772 C1777 1.390 . S
C1773 C1767 1.465 . S
C1773 C1772 1.396 . S
C1773 C1774 1.399 . S
C1774 H1760 0.929 . S
C1774 C1773 1.399 . S
C1774 C1775 1.385 . S
C1775 H1761 0.931 . S
C1775 C1774 1.385 . S
C1775 C1776 1.389 . S
C1776 C1775 1.389 . S
C1776 C1777 1.387 . S
C1777 H1762 0.930 . S
C1777 C1772 1.390 . S
C1777 C1776 1.387 . S
H1778 C1790 0.930 . S
H1779 C1792 0.930 . S
H1780 C1793 0.930 . S
H1781 C1797 0.959 . S
H1782 C1797 0.959 . S
H1783 C1797 0.961 . S
H1784 C1798 0.960 . S
H1785 C1798 0.961 . S
H1786 C1798 0.959 . S
H1787 C1801 0.929 . S
H1788 C1802 0.931 . S
H1789 C1804 0.930 . S
C1790 H1778 0.930 . S
C1790 C1791 1.399 . S
C1790 C1795 1.399 . S
C1791 C1790 1.399 . S
C1791 C1792 1.376 . S
C1792 H1779 0.930 . S
C1792 C1791 1.376 . S
C1792 C1793 1.388 . S
C1793 H1780 0.930 . S
C1793 C1792 1.388 . S
C1793 C1794 1.390 . S
C1794 C1793 1.390 . S
C1794 C1795 1.394 . S
C1794 C1800 1.465 . S
C1795 C1790 1.399 . S
C1795 C1794 1.394 . S
C1795 C1796 1.516 . S
C1796 C1795 1.516 . S
C1796 C1797 1.502 . S
C1796 C1798 1.561 . S
C1796 C1799 1.526 . S
C1797 H1781 0.959 . S
C1797 H1782 0.959 . S
C1797 H1783 0.961 . S
C1797 C1796 1.502 . S
C1798 H1784 0.960 . S
C1798 H1785 0.961 . S
C1798 H1786 0.959 . S
C1798 C1796 1.561 . S
C1799 C1796 1.526 . S
C1799 C1800 1.396 . S
C1799 C1804 1.390 . S
C1800 C1794 1.465 . S
C1800 C1799 1.396 . S
C1800 C1801 1.399 . S
C1801 H1787 0.929 . S
C1801 C1800 1.399 . S
C1801 C1802 1.385 . S
C1802 H1788 0.931 . S
C1802 C1801 1.385 . S
C1802 C1803 1.389 . S
C1803 C1802 1.389 . S
C1803 C1804 1.387 . S
C1804 H1789 0.930 . S
C1804 C1799 1.390 . S
C1804 C1803 1.387 . S
H1805 C1817 0.930 . S
H1806 C1819 0.930 . S
H1807 C1820 0.930 . S
H1808 C1824 0.959 . S
H1809 C1824 0.959 . S
H1810 C1824 0.961 . S
H1811 C1825 0.960 . S
H1812 C1825 0.961 . S
H1813 C1825 0.959 . S
H1814 C1828 0.929 . S
H1815 C1829 0.931 . S
H1816 C1831 0.930 . S
C1817 H1805 0.930 . S
C1817 C1818 1.399 . S
C1817 C1822 1.399 . S
C1818 C1817 1.399 . S
C1818 C1819 1.376 . S
C1819 H1806 0.930 . S
C1819 C1818 1.376 . S
C1819 C1820 1.388 . S
C1820 H1807 0.930 . S
C1820 C1819 1.388 . S
C1820 C1821 1.390 . S
C1821 C1820 1.390 . S
C1821 C1822 1.394 . S
C1821 C1827 1.465 . S
C1822 C1817 1.399 . S
C1822 C1821 1.394 . S
C1822 C1823 1.516 . S
C1823 C1822 1.516 . S
C1823 C1824 1.502 . S
C1823 C1825 1.561 . S
C1823 C1826 1.526 . S
C1824 H1808 0.959 . S
C1824 H1809 0.959 . S
C1824 H1810 0.961 . S
C1824 C1823 1.502 . S
C1825 H1811 0.960 . S
C1825 H1812 0.961 . S
C1825 H1813 0.959 . S
C1825 C1823 1.561 . S
C1826 C1823 1.526 . S
C1826 C1827 1.396 . S
C1826 C1831 1.390 . S
C1827 C1821 1.465 . S
C1827 C1826 1.396 . S
C1827 C1828 1.399 . S
C1828 H1814 0.929 . S
C1828 C1827 1.399 . S
C1828 C1829 1.385 . S
C1829 H1815 0.931 . S
C1829 C1828 1.385 . S
C1829 C1830 1.389 . S
C1830 C1829 1.389 . S
C1830 C1831 1.387 . S
C1831 H1816 0.930 . S
C1831 C1826 1.390 . S
C1831 C1830 1.387 . S
H1832 C1844 0.930 . S
H1833 C1846 0.930 . S
H1834 C1847 0.930 1_655 S
H1835 C1851 0.959 . S
H1836 C1851 0.959 . S
H1837 C1851 0.961 . S
H1838 C1852 0.960 . S
H1839 C1852 0.961 . S
H1840 C1852 0.959 1_655 S
H1841 C1855 0.929 . S
H1842 C1856 0.931 . S
H1843 C1858 0.930 . S
C1844 H1832 0.930 . S
C1844 C1845 1.399 . S
C1844 C1849 1.399 . S
C1845 C1844 1.399 . S
C1845 C1846 1.376 . S
C1846 H1833 0.930 . S
C1846 C1845 1.376 . S
C1846 C1847 1.388 . S
C1847 H1834 0.930 1_455 S
C1847 C1846 1.388 . S
C1847 C1848 1.390 . S
C1848 C1847 1.390 . S
C1848 C1849 1.394 . S
C1848 C1854 1.465 . S
C1849 C1844 1.399 . S
C1849 C1848 1.394 . S
C1849 C1850 1.516 . S
C1850 C1849 1.516 . S
C1850 C1851 1.502 . S
C1850 C1852 1.561 . S
C1850 C1853 1.526 . S
C1851 H1835 0.959 . S
C1851 H1836 0.959 . S
C1851 H1837 0.961 . S
C1851 C1850 1.502 . S
C1852 H1838 0.960 . S
C1852 H1839 0.961 . S
C1852 H1840 0.959 1_455 S
C1852 C1850 1.561 . S
C1853 C1850 1.526 . S
C1853 C1854 1.396 . S
C1853 C1858 1.390 . S
C1854 C1848 1.465 . S
C1854 C1853 1.396 . S
C1854 C1855 1.399 1_455 S
C1855 H1841 0.929 . S
C1855 C1854 1.399 1_655 S
C1855 C1856 1.385 . S
C1856 H1842 0.931 . S
C1856 C1855 1.385 . S
C1856 C1857 1.389 1_655 S
C1857 C1856 1.389 1_455 S
C1857 C1858 1.387 . S
C1858 H1843 0.930 . S
C1858 C1853 1.390 . S
C1858 C1857 1.387 . S
H1859 C1871 0.930 . S
H1860 C1873 0.930 . S
H1861 C1874 0.930 . S
H1862 C1878 0.959 . S
H1863 C1878 0.959 . S
H1864 C1878 0.961 . S
H1865 C1879 0.960 . S
H1866 C1879 0.961 . S
H1867 C1879 0.959 . S
H1868 C1882 0.929 . S
H1869 C1883 0.931 . S
H1870 C1885 0.930 . S
C1871 H1859 0.930 . S
C1871 C1872 1.399 . S
C1871 C1876 1.399 . S
C1872 C1871 1.399 . S
C1872 C1873 1.376 . S
C1873 H1860 0.930 . S
C1873 C1872 1.376 . S
C1873 C1874 1.388 . S
C1874 H1861 0.930 . S
C1874 C1873 1.388 . S
C1874 C1875 1.390 . S
C1875 C1874 1.390 . S
C1875 C1876 1.394 . S
C1875 C1881 1.465 . S
C1876 C1871 1.399 . S
C1876 C1875 1.394 . S
C1876 C1877 1.516 . S
C1877 C1876 1.516 . S
C1877 C1878 1.502 . S
C1877 C1879 1.561 . S
C1877 C1880 1.526 . S
C1878 H1862 0.959 . S
C1878 H1863 0.959 . S
C1878 H1864 0.961 . S
C1878 C1877 1.502 . S
C1879 H1865 0.960 . S
C1879 H1866 0.961 . S
C1879 H1867 0.959 . S
C1879 C1877 1.561 . S
C1880 C1877 1.526 . S
C1880 C1881 1.396 . S
C1880 C1885 1.390 . S
C1881 C1875 1.465 . S
C1881 C1880 1.396 . S
C1881 C1882 1.399 . S
C1882 H1868 0.929 . S
C1882 C1881 1.399 . S
C1882 C1883 1.385 . S
C1883 H1869 0.931 . S
C1883 C1882 1.385 . S
C1883 C1884 1.389 . S
C1884 C1883 1.389 . S
C1884 C1885 1.387 . S
C1885 H1870 0.930 . S
C1885 C1880 1.390 . S
C1885 C1884 1.387 . S
H1886 C1898 0.930 . S
H1887 C1900 0.930 . S
H1888 C1901 0.930 . S
H1889 C1905 0.959 . S
H1890 C1905 0.959 . S
H1891 C1905 0.961 . S
H1892 C1906 0.960 . S
H1893 C1906 0.961 . S
H1894 C1906 0.959 . S
H1895 C1909 0.929 . S
H1896 C1910 0.931 . S
H1897 C1912 0.930 . S
C1898 H1886 0.930 . S
C1898 C1899 1.399 . S
C1898 C1903 1.399 . S
C1899 C1898 1.399 . S
C1899 C1900 1.376 . S
C1900 H1887 0.930 . S
C1900 C1899 1.376 . S
C1900 C1901 1.388 . S
C1901 H1888 0.930 . S
C1901 C1900 1.388 . S
C1901 C1902 1.390 . S
C1902 C1901 1.390 . S
C1902 C1903 1.394 . S
C1902 C1908 1.465 . S
C1903 C1898 1.399 . S
C1903 C1902 1.394 . S
C1903 C1904 1.516 . S
C1904 C1903 1.516 . S
C1904 C1905 1.502 . S
C1904 C1906 1.561 . S
C1904 C1907 1.526 . S
C1905 H1889 0.959 . S
C1905 H1890 0.959 . S
C1905 H1891 0.961 . S
C1905 C1904 1.502 . S
C1906 H1892 0.960 . S
C1906 H1893 0.961 . S
C1906 H1894 0.959 . S
C1906 C1904 1.561 . S
C1907 C1904 1.526 . S
C1907 C1908 1.396 . S
C1907 C1912 1.390 . S
C1908 C1902 1.465 . S
C1908 C1907 1.396 . S
C1908 C1909 1.399 . S
C1909 H1895 0.929 . S
C1909 C1908 1.399 . S
C1909 C1910 1.385 . S
C1910 H1896 0.931 . S
C1910 C1909 1.385 . S
C1910 C1911 1.389 . S
C1911 C1910 1.389 . S
C1911 C1912 1.387 . S
C1912 H1897 0.930 . S
C1912 C1907 1.390 . S
C1912 C1911 1.387 . S
H1913 C1925 0.930 . S
H1914 C1927 0.930 . S
H1915 C1928 0.930 . S
H1916 C1932 0.959 . S
H1917 C1932 0.959 . S
H1918 C1932 0.961 . S
H1919 C1933 0.960 . S
H1920 C1933 0.961 . S
H1921 C1933 0.959 . S
H1922 C1936 0.929 . S
H1923 C1937 0.931 . S
H1924 C1939 0.930 . S
C1925 H1913 0.930 . S
C1925 C1926 1.399 . S
C1925 C1930 1.399 . S
C1926 C1925 1.399 . S
C1926 C1927 1.376 . S
C1927 H1914 0.930 . S
C1927 C1926 1.376 . S
C1927 C1928 1.388 . S
C1928 H1915 0.930 . S
C1928 C1927 1.388 . S
C1928 C1929 1.390 . S
C1929 C1928 1.390 . S
C1929 C1930 1.394 . S
C1929 C1935 1.465 . S
C1930 C1925 1.399 . S
C1930 C1929 1.394 . S
C1930 C1931 1.516 . S
C1931 C1930 1.516 . S
C1931 C1932 1.502 . S
C1931 C1933 1.561 . S
C1931 C1934 1.526 . S
C1932 H1916 0.959 . S
C1932 H1917 0.959 . S
C1932 H1918 0.961 . S
C1932 C1931 1.502 . S
C1933 H1919 0.960 . S
C1933 H1920 0.961 . S
C1933 H1921 0.959 . S
C1933 C1931 1.561 . S
C1934 C1931 1.526 . S
C1934 C1935 1.396 . S
C1934 C1939 1.390 . S
C1935 C1929 1.465 . S
C1935 C1934 1.396 . S
C1935 C1936 1.399 . S
C1936 H1922 0.929 . S
C1936 C1935 1.399 . S
C1936 C1937 1.385 . S
C1937 H1923 0.931 . S
C1937 C1936 1.385 . S
C1937 C1938 1.389 . S
C1938 C1937 1.389 . S
C1938 C1939 1.387 . S
C1939 H1924 0.930 . S
C1939 C1934 1.390 . S
C1939 C1938 1.387 . S
H1940 C1952 0.930 . S
H1941 C1954 0.930 . S
H1942 C1955 0.930 . S
H1943 C1959 0.959 . S
H1944 C1959 0.959 . S
H1945 C1959 0.961 . S
H1946 C1960 0.960 . S
H1947 C1960 0.961 . S
H1948 C1960 0.959 1_655 S
H1949 C1963 0.929 . S
H1950 C1964 0.931 . S
H1951 C1966 0.930 . S
C1952 H1940 0.930 . S
C1952 C1953 1.399 . S
C1952 C1957 1.399 . S
C1953 C1952 1.399 . S
C1953 C1954 1.376 1_455 S
C1954 H1941 0.930 . S
C1954 C1953 1.376 1_655 S
C1954 C1955 1.388 . S
C1955 H1942 0.930 . S
C1955 C1954 1.388 . S
C1955 C1956 1.370 1_655 S
C1956 C1955 1.370 1_455 S
C1956 C1957 1.420 . S
C1956 C1962 1.467 1_455 S
C1957 C1952 1.399 . S
C1957 C1956 1.420 . S
C1957 C1958 1.516 . S
C1958 C1957 1.516 . S
C1958 C1959 1.502 . S
C1958 C1960 1.561 . S
C1958 C1961 1.526 . S
C1959 H1943 0.959 . S
C1959 H1944 0.959 . S
C1959 H1945 0.961 . S
C1959 C1958 1.502 . S
C1960 H1946 0.960 . S
C1960 H1947 0.961 . S
C1960 H1948 0.959 1_455 S
C1960 C1958 1.561 . S
C1961 C1958 1.526 . S
C1961 C1962 1.396 1_455 S
C1961 C1966 1.390 . S
C1962 C1956 1.467 1_655 S
C1962 C1961 1.396 1_655 S
C1962 C1963 1.399 . S
C1963 H1949 0.929 . S
C1963 C1962 1.399 . S
C1963 C1964 1.385 . S
C1964 H1950 0.931 . S
C1964 C1963 1.385 . S
C1964 C1965 1.389 1_655 S
C1965 C1964 1.389 1_455 S
C1965 C1966 1.387 . S
C1966 H1951 0.930 . S
C1966 C1961 1.390 . S
C1966 C1965 1.387 . S
H1967 C1979 0.930 . S
H1968 C1981 0.930 . S
H1969 C1982 0.930 . S
H1970 C1986 0.959 . S
H1971 C1986 0.959 . S
H1972 C1986 0.961 . S
H1973 C1987 0.960 . S
H1974 C1987 0.961 . S
H1975 C1987 0.959 . S
H1976 C1990 0.929 . S
H1977 C1991 0.931 . S
H1978 C1993 0.930 . S
C1979 H1967 0.930 . S
C1979 C1980 1.399 . S
C1979 C1984 1.399 . S
C1980 C1979 1.399 . S
C1980 C1981 1.376 . S
C1981 H1968 0.930 . S
C1981 C1980 1.376 . S
C1981 C1982 1.388 . S
C1982 H1969 0.930 . S
C1982 C1981 1.388 . S
C1982 C1983 1.390 . S
C1983 C1982 1.390 . S
C1983 C1984 1.394 . S
C1983 C1989 1.465 . S
C1984 C1979 1.399 . S
C1984 C1983 1.394 . S
C1984 C1985 1.516 . S
C1985 C1984 1.516 . S
C1985 C1986 1.502 . S
C1985 C1987 1.561 . S
C1985 C1988 1.526 . S
C1986 H1970 0.959 . S
C1986 H1971 0.959 . S
C1986 H1972 0.961 . S
C1986 C1985 1.502 . S
C1987 H1973 0.960 . S
C1987 H1974 0.961 . S
C1987 H1975 0.959 . S
C1987 C1985 1.561 . S
C1988 C1985 1.526 . S
C1988 C1989 1.396 . S
C1988 C1993 1.390 . S
C1989 C1983 1.465 . S
C1989 C1988 1.396 . S
C1989 C1990 1.399 . S
C1990 H1976 0.929 . S
C1990 C1989 1.399 . S
C1990 C1991 1.385 . S
C1991 H1977 0.931 . S
C1991 C1990 1.385 . S
C1991 C1992 1.389 . S
C1992 C1991 1.389 . S
C1992 C1993 1.387 . S
C1993 H1978 0.930 . S
C1993 C1988 1.390 . S
C1993 C1992 1.387 . S
H1994 C2006 0.930 . S
H1995 C2008 0.930 . S
H1996 C2009 0.930 . S
H1997 C2013 0.959 . S
H1998 C2013 0.959 1_554 S
H1999 C2013 0.961 . S
H2000 C2014 0.960 . S
H2001 C2014 0.961 . S
H2002 C2014 0.959 . S
H2003 C2017 0.929 . S
H2004 C2018 0.931 . S
H2005 C2020 0.930 . S
C2006 H1994 0.930 . S
C2006 C2007 1.399 . S
C2006 C2011 1.399 . S
C2007 C2006 1.399 . S
C2007 C2008 1.376 . S
C2008 H1995 0.930 . S
C2008 C2007 1.376 . S
C2008 C2009 1.388 . S
C2009 H1996 0.930 . S
C2009 C2008 1.388 . S
C2009 C2010 1.390 . S
C2010 C2009 1.390 . S
C2010 C2011 1.394 . S
C2010 C2016 1.465 . S
C2011 C2006 1.399 . S
C2011 C2010 1.394 . S
C2011 C2012 1.516 . S
C2012 C2011 1.516 . S
C2012 C2013 1.502 . S
C2012 C2014 1.561 1_556 S
C2012 C2015 1.526 . S
C2013 H1997 0.959 . S
C2013 H1998 0.959 1_556 S
C2013 H1999 0.961 . S
C2013 C2012 1.502 . S
C2014 H2000 0.960 . S
C2014 H2001 0.961 . S
C2014 H2002 0.959 . S
C2014 C2012 1.561 1_554 S
C2015 C2012 1.526 . S
C2015 C2016 1.396 . S
C2015 C2020 1.390 1_556 S
C2016 C2010 1.465 . S
C2016 C2015 1.396 . S
C2016 C2017 1.399 . S
C2017 H2003 0.929 . S
C2017 C2016 1.399 . S
C2017 C2018 1.385 . S
C2018 H2004 0.931 . S
C2018 C2017 1.385 . S
C2018 C2019 1.389 . S
C2019 C2018 1.389 . S
C2019 C2020 1.387 1_556 S
C2020 H2005 0.930 . S
C2020 C2015 1.390 1_554 S
C2020 C2019 1.387 1_554 S
H2021 C2033 0.930 . S
H2022 C2035 0.930 . S
H2023 C2036 0.930 . S
H2024 C2040 0.959 . S
H2025 C2040 0.959 . S
H2026 C2040 0.961 . S
H2027 C2041 0.960 . S
H2028 C2041 0.961 . S
H2029 C2041 0.959 . S
H2030 C2044 0.929 . S
H2031 C2045 0.931 . S
H2032 C2047 0.930 . S
C2033 H2021 0.930 . S
C2033 C2034 1.399 . S
C2033 C2038 1.399 . S
C2034 C2033 1.399 . S
C2034 C2035 1.376 . S
C2035 H2022 0.930 . S
C2035 C2034 1.376 . S
C2035 C2036 1.388 . S
C2036 H2023 0.930 . S
C2036 C2035 1.388 . S
C2036 C2037 1.390 . S
C2037 C2036 1.390 . S
C2037 C2038 1.394 . S
C2037 C2043 1.465 . S
C2038 C2033 1.399 . S
C2038 C2037 1.394 . S
C2038 C2039 1.516 . S
C2039 C2038 1.516 . S
C2039 C2040 1.502 . S
C2039 C2041 1.561 . S
C2039 C2042 1.526 . S
C2040 H2024 0.959 . S
C2040 H2025 0.959 . S
C2040 H2026 0.961 . S
C2040 C2039 1.502 . S
C2041 H2027 0.960 . S
C2041 H2028 0.961 . S
C2041 H2029 0.959 . S
C2041 C2039 1.561 . S
C2042 C2039 1.526 . S
C2042 C2043 1.396 . S
C2042 C2047 1.390 . S
C2043 C2037 1.465 . S
C2043 C2042 1.396 . S
C2043 C2044 1.399 . S
C2044 H2030 0.929 . S
C2044 C2043 1.399 . S
C2044 C2045 1.385 . S
C2045 H2031 0.931 . S
C2045 C2044 1.385 . S
C2045 C2046 1.389 . S
C2046 C2045 1.389 . S
C2046 C2047 1.387 . S
C2047 H2032 0.930 . S
C2047 C2042 1.390 . S
C2047 C2046 1.387 . S
H2048 C2060 0.930 . S
H2049 C2062 0.930 . S
H2050 C2063 0.930 . S
H2051 C2067 0.959 . S
H2052 C2067 0.959 . S
H2053 C2067 0.961 . S
H2054 C2068 0.960 . S
H2055 C2068 0.961 . S
H2056 C2068 0.959 . S
H2057 C2071 0.929 . S
H2058 C2072 0.931 . S
H2059 C2074 0.930 . S
C2060 H2048 0.930 . S
C2060 C2061 1.399 . S
C2060 C2065 1.399 . S
C2061 C2060 1.399 . S
C2061 C2062 1.376 1_545 S
C2062 H2049 0.930 . S
C2062 C2061 1.376 1_565 S
C2062 C2063 1.388 . S
C2063 H2050 0.930 . S
C2063 C2062 1.388 . S
C2063 C2064 1.390 . S
C2064 C2063 1.390 . S
C2064 C2065 1.394 1_565 S
C2064 C2070 1.465 . S
C2065 C2060 1.399 . S
C2065 C2064 1.394 1_545 S
C2065 C2066 1.516 . S
C2066 C2065 1.516 . S
C2066 C2067 1.502 . S
C2066 C2068 1.561 . S
C2066 C2069 1.526 . S
C2067 H2051 0.959 . S
C2067 H2052 0.959 . S
C2067 H2053 0.961 . S
C2067 C2066 1.502 . S
C2068 H2054 0.960 . S
C2068 H2055 0.961 . S
C2068 H2056 0.959 . S
C2068 C2066 1.561 . S
C2069 C2066 1.526 . S
C2069 C2070 1.396 1_545 S
C2069 C2074 1.390 . S
C2070 C2064 1.465 . S
C2070 C2069 1.396 1_565 S
C2070 C2071 1.399 . S
C2071 H2057 0.929 . S
C2071 C2070 1.399 . S
C2071 C2072 1.385 . S
C2072 H2058 0.931 . S
C2072 C2071 1.385 . S
C2072 C2073 1.389 . S
C2073 C2072 1.389 . S
C2073 C2074 1.387 1_565 S
C2074 H2059 0.930 . S
C2074 C2069 1.390 . S
C2074 C2073 1.387 1_545 S
H2075 C2087 0.930 . S
H2076 C2089 0.930 . S
H2077 C2090 0.930 . S
H2078 C2094 0.959 . S
H2079 C2094 0.959 . S
H2080 C2094 0.961 . S
H2081 C2095 0.960 . S
H2082 C2095 0.961 . S
H2083 C2095 0.959 . S
H2084 C2098 0.929 . S
H2085 C2099 0.931 . S
H2086 C2101 0.930 . S
C2087 H2075 0.930 . S
C2087 C2088 1.399 . S
C2087 C2092 1.399 . S
C2088 C2087 1.399 . S
C2088 C2089 1.376 . S
C2089 H2076 0.930 . S
C2089 C2088 1.376 . S
C2089 C2090 1.388 . S
C2090 H2077 0.930 . S
C2090 C2089 1.388 . S
C2090 C2091 1.390 . S
C2091 C2090 1.390 . S
C2091 C2092 1.394 . S
C2091 C2097 1.465 . S
C2092 C2087 1.399 . S
C2092 C2091 1.394 . S
C2092 C2093 1.516 . S
C2093 C2092 1.516 . S
C2093 C2094 1.502 . S
C2093 C2095 1.561 . S
C2093 C2096 1.526 . S
C2094 H2078 0.959 . S
C2094 H2079 0.959 . S
C2094 H2080 0.961 . S
C2094 C2093 1.502 . S
C2095 H2081 0.960 . S
C2095 H2082 0.961 . S
C2095 H2083 0.959 . S
C2095 C2093 1.561 . S
C2096 C2093 1.526 . S
C2096 C2097 1.396 . S
C2096 C2101 1.390 . S
C2097 C2091 1.465 . S
C2097 C2096 1.396 . S
C2097 C2098 1.399 . S
C2098 H2084 0.929 . S
C2098 C2097 1.399 . S
C2098 C2099 1.385 . S
C2099 H2085 0.931 . S
C2099 C2098 1.385 . S
C2099 C2100 1.389 . S
C2100 C2099 1.389 . S
C2100 C2101 1.387 . S
C2101 H2086 0.930 . S
C2101 C2096 1.390 . S
C2101 C2100 1.387 . S
H2102 C2114 0.930 1_565 S
H2103 C2116 0.930 . S
H2104 C2117 0.930 . S
H2105 C2121 0.959 1_545 S
H2106 C2121 0.959 . S
H2107 C2121 0.961 . S
H2108 C2122 0.960 . S
H2109 C2122 0.961 . S
H2110 C2122 0.959 . S
H2111 C2125 0.929 . S
H2112 C2126 0.931 . S
H2113 C2128 0.930 1_565 S
C2114 H2102 0.930 1_545 S
C2114 C2115 1.399 . S
C2114 C2119 1.399 . S
C2115 C2114 1.399 . S
C2115 C2116 1.376 . S
C2116 H2103 0.930 . S
C2116 C2115 1.376 . S
C2116 C2117 1.388 . S
C2117 H2104 0.930 . S
C2117 C2116 1.388 . S
C2117 C2118 1.390 . S
C2118 C2117 1.390 . S
C2118 C2119 1.394 . S
C2118 C2124 1.465 . S
C2119 C2114 1.399 . S
C2119 C2118 1.394 . S
C2119 C2120 1.516 1_545 S
C2120 C2119 1.516 1_565 S
C2120 C2121 1.502 . S
C2120 C2122 1.561 . S
C2120 C2123 1.526 1_565 S
C2121 H2105 0.959 1_565 S
C2121 H2106 0.959 . S
C2121 H2107 0.961 . S
C2121 C2120 1.502 . S
C2122 H2108 0.960 . S
C2122 H2109 0.961 . S
C2122 H2110 0.959 . S
C2122 C2120 1.561 . S
C2123 C2120 1.526 1_545 S
C2123 C2124 1.396 . S
C2123 C2128 1.390 . S
C2124 C2118 1.465 . S
C2124 C2123 1.396 . S
C2124 C2125 1.399 . S
C2125 H2111 0.929 . S
C2125 C2124 1.399 . S
C2125 C2126 1.385 . S
C2126 H2112 0.931 . S
C2126 C2125 1.385 . S
C2126 C2127 1.389 . S
C2127 C2126 1.389 . S
C2127 C2128 1.387 . S
C2128 H2113 0.930 1_545 S
C2128 C2123 1.390 . S
C2128 C2127 1.387 . S
H2129 C2141 0.930 . S
H2130 C2143 0.930 . S
H2131 C2144 0.930 . S
H2132 C2148 0.959 . S
H2133 C2148 0.959 . S
H2134 C2148 0.961 . S
H2135 C2149 0.960 . S
H2136 C2149 0.961 . S
H2137 C2149 0.959 . S
H2138 C2152 0.929 . S
H2139 C2153 0.931 . S
H2140 C2155 0.930 . S
C2141 H2129 0.930 . S
C2141 C2142 1.399 . S
C2141 C2146 1.399 . S
C2142 C2141 1.399 . S
C2142 C2143 1.376 . S
C2143 H2130 0.930 . S
C2143 C2142 1.376 . S
C2143 C2144 1.388 . S
C2144 H2131 0.930 . S
C2144 C2143 1.388 . S
C2144 C2145 1.390 . S
C2145 C2144 1.390 . S
C2145 C2146 1.394 . S
C2145 C2151 1.465 . S
C2146 C2141 1.399 . S
C2146 C2145 1.394 . S
C2146 C2147 1.516 . S
C2147 C2146 1.516 . S
C2147 C2148 1.502 . S
C2147 C2149 1.561 . S
C2147 C2150 1.526 . S
C2148 H2132 0.959 . S
C2148 H2133 0.959 . S
C2148 H2134 0.961 . S
C2148 C2147 1.502 . S
C2149 H2135 0.960 . S
C2149 H2136 0.961 . S
C2149 H2137 0.959 . S
C2149 C2147 1.561 . S
C2150 C2147 1.526 . S
C2150 C2151 1.396 . S
C2150 C2155 1.390 . S
C2151 C2145 1.465 . S
C2151 C2150 1.396 . S
C2151 C2152 1.399 . S
C2152 H2138 0.929 . S
C2152 C2151 1.399 . S
C2152 C2153 1.385 . S
C2153 H2139 0.931 . S
C2153 C2152 1.385 . S
C2153 C2154 1.389 . S
C2154 C2153 1.389 . S
C2154 C2155 1.387 . S
C2155 H2140 0.930 . S
C2155 C2150 1.390 . S
C2155 C2154 1.387 . S
H2156 C2168 0.930 . S
H2157 C2170 0.930 . S
H2158 C2171 0.930 . S
H2159 C2175 0.959 . S
H2160 C2175 0.959 . S
H2161 C2175 0.961 . S
H2162 C2176 0.960 . S
H2163 C2176 0.961 . S
H2164 C2176 0.959 . S
H2165 C2179 0.929 . S
H2166 C2180 0.931 . S
H2167 C2182 0.930 . S
C2168 H2156 0.930 . S
C2168 C2169 1.399 1_565 S
C2168 C2173 1.399 . S
C2169 C2168 1.399 1_545 S
C2169 C2170 1.376 . S
C2170 H2157 0.930 . S
C2170 C2169 1.376 . S
C2170 C2171 1.388 . S
C2171 H2158 0.930 . S
C2171 C2170 1.388 . S
C2171 C2172 1.390 . S
C2172 C2171 1.390 . S
C2172 C2173 1.394 1_545 S
C2172 C2178 1.465 . S
C2173 C2168 1.399 . S
C2173 C2172 1.394 1_565 S
C2173 C2174 1.516 . S
C2174 C2173 1.516 . S
C2174 C2175 1.502 . S
C2174 C2176 1.561 . S
C2174 C2177 1.526 . S
C2175 H2159 0.959 . S
C2175 H2160 0.959 . S
C2175 H2161 0.961 . S
C2175 C2174 1.502 . S
C2176 H2162 0.960 . S
C2176 H2163 0.961 . S
C2176 H2164 0.959 . S
C2176 C2174 1.561 . S
C2177 C2174 1.526 . S
C2177 C2178 1.396 1_565 S
C2177 C2182 1.390 . S
C2178 C2172 1.465 . S
C2178 C2177 1.396 1_545 S
C2178 C2179 1.399 . S
C2179 H2165 0.929 . S
C2179 C2178 1.399 . S
C2179 C2180 1.385 . S
C2180 H2166 0.931 . S
C2180 C2179 1.385 . S
C2180 C2181 1.389 . S
C2181 C2180 1.389 . S
C2181 C2182 1.387 1_545 S
C2182 H2167 0.930 . S
C2182 C2177 1.390 . S
C2182 C2181 1.387 1_565 S
H2183 C2195 0.930 . S
H2184 C2197 0.930 . S
H2185 C2198 0.930 . S
H2186 C2202 0.959 . S
H2187 C2202 0.959 . S
H2188 C2202 0.961 . S
H2189 C2203 0.960 . S
H2190 C2203 0.961 . S
H2191 C2203 0.959 . S
H2192 C2206 0.929 . S
H2193 C2207 0.931 . S
H2194 C2209 0.930 . S
C2195 H2183 0.930 . S
C2195 C2196 1.399 . S
C2195 C2200 1.399 . S
C2196 C2195 1.399 . S
C2196 C2197 1.376 . S
C2197 H2184 0.930 . S
C2197 C2196 1.376 . S
C2197 C2198 1.388 . S
C2198 H2185 0.930 . S
C2198 C2197 1.388 . S
C2198 C2199 1.390 . S
C2199 C2198 1.390 . S
C2199 C2200 1.394 . S
C2199 C2205 1.465 . S
C2200 C2195 1.399 . S
C2200 C2199 1.394 . S
C2200 C2201 1.516 . S
C2201 C2200 1.516 . S
C2201 C2202 1.502 . S
C2201 C2203 1.561 . S
C2201 C2204 1.526 . S
C2202 H2186 0.959 . S
C2202 H2187 0.959 . S
C2202 H2188 0.961 . S
C2202 C2201 1.502 . S
C2203 H2189 0.960 . S
C2203 H2190 0.961 . S
C2203 H2191 0.959 . S
C2203 C2201 1.561 . S
C2204 C2201 1.526 . S
C2204 C2205 1.396 . S
C2204 C2209 1.390 . S
C2205 C2199 1.465 . S
C2205 C2204 1.396 . S
C2205 C2206 1.399 . S
C2206 H2192 0.929 . S
C2206 C2205 1.399 . S
C2206 C2207 1.385 . S
C2207 H2193 0.931 . S
C2207 C2206 1.385 . S
C2207 C2208 1.389 . S
C2208 C2207 1.389 . S
C2208 C2209 1.387 . S
C2209 H2194 0.930 . S
C2209 C2204 1.390 . S
C2209 C2208 1.387 . S
H2210 C2222 0.930 1_565 S
H2211 C2224 0.930 . S
H2212 C2225 0.930 . S
H2213 C2229 0.959 . S
H2214 C2229 0.959 . S
H2215 C2229 0.961 . S
H2216 C2230 0.960 . S
H2217 C2230 0.961 . S
H2218 C2230 0.959 . S
H2219 C2233 0.929 . S
H2220 C2234 0.931 . S
H2221 C2236 0.930 . S
C2222 H2210 0.930 1_545 S
C2222 C2223 1.399 . S
C2222 C2227 1.399 . S
C2223 C2222 1.399 . S
C2223 C2224 1.376 . S
C2224 H2211 0.930 . S
C2224 C2223 1.376 . S
C2224 C2225 1.388 . S
C2225 H2212 0.930 . S
C2225 C2224 1.388 . S
C2225 C2226 1.390 . S
C2226 C2225 1.390 . S
C2226 C2227 1.394 . S
C2226 C2232 1.465 . S
C2227 C2222 1.399 . S
C2227 C2226 1.394 . S
C2227 C2228 1.516 1_545 S
C2228 C2227 1.516 1_565 S
C2228 C2229 1.502 . S
C2228 C2230 1.561 . S
C2228 C2231 1.526 . S
C2229 H2213 0.959 . S
C2229 H2214 0.959 . S
C2229 H2215 0.961 . S
C2229 C2228 1.502 . S
C2230 H2216 0.960 . S
C2230 H2217 0.961 . S
C2230 H2218 0.959 . S
C2230 C2228 1.561 . S
C2231 C2228 1.526 . S
C2231 C2232 1.396 1_565 S
C2231 C2236 1.390 . S
C2232 C2226 1.465 . S
C2232 C2231 1.396 1_545 S
C2232 C2233 1.399 . S
C2233 H2219 0.929 . S
C2233 C2232 1.399 . S
C2233 C2234 1.385 . S
C2234 H2220 0.931 . S
C2234 C2233 1.385 . S
C2234 C2235 1.389 . S
C2235 C2234 1.389 . S
C2235 C2236 1.387 1_545 S
C2236 H2221 0.930 . S
C2236 C2231 1.390 . S
C2236 C2235 1.387 1_565 S
H2237 C2249 0.930 . S
H2238 C2251 0.930 . S
H2239 C2252 0.930 . S
H2240 C2256 0.959 . S
H2241 C2256 0.959 . S
H2242 C2256 0.961 . S
H2243 C2257 0.960 . S
H2244 C2257 0.961 . S
H2245 C2257 0.959 . S
H2246 C2260 0.929 . S
H2247 C2261 0.931 . S
H2248 C2263 0.930 . S
C2249 H2237 0.930 . S
C2249 C2250 1.399 . S
C2249 C2254 1.399 . S
C2250 C2249 1.399 . S
C2250 C2251 1.376 . S
C2251 H2238 0.930 . S
C2251 C2250 1.376 . S
C2251 C2252 1.388 . S
C2252 H2239 0.930 . S
C2252 C2251 1.388 . S
C2252 C2253 1.390 . S
C2253 C2252 1.390 . S
C2253 C2254 1.394 . S
C2253 C2259 1.465 . S
C2254 C2249 1.399 . S
C2254 C2253 1.394 . S
C2254 C2255 1.516 . S
C2255 C2254 1.516 . S
C2255 C2256 1.502 . S
C2255 C2257 1.561 . S
C2255 C2258 1.526 . S
C2256 H2240 0.959 . S
C2256 H2241 0.959 . S
C2256 H2242 0.961 . S
C2256 C2255 1.502 . S
C2257 H2243 0.960 . S
C2257 H2244 0.961 . S
C2257 H2245 0.959 . S
C2257 C2255 1.561 . S
C2258 C2255 1.526 . S
C2258 C2259 1.396 . S
C2258 C2263 1.390 . S
C2259 C2253 1.465 . S
C2259 C2258 1.396 . S
C2259 C2260 1.399 . S
C2260 H2246 0.929 . S
C2260 C2259 1.399 . S
C2260 C2261 1.385 . S
C2261 H2247 0.931 . S
C2261 C2260 1.385 . S
C2261 C2262 1.389 . S
C2262 C2261 1.389 . S
C2262 C2263 1.387 . S
C2263 H2248 0.930 . S
C2263 C2258 1.390 . S
C2263 C2262 1.387 . S
H2264 C2276 0.930 1_556 S
H2265 C2278 0.930 . S
H2266 C2279 0.930 . S
H2267 C2283 0.959 1_554 S
H2268 C2283 0.959 . S
H2269 C2283 0.961 . S
H2270 C2284 0.960 . S
H2271 C2284 0.961 . S
H2272 C2284 0.959 . S
H2273 C2287 0.929 . S
H2274 C2288 0.931 . S
H2275 C2290 0.930 . S
C2276 H2264 0.930 1_554 S
C2276 C2277 1.399 . S
C2276 C2281 1.399 . S
C2277 C2276 1.399 . S
C2277 C2278 1.376 . S
C2278 H2265 0.930 . S
C2278 C2277 1.376 . S
C2278 C2279 1.388 . S
C2279 H2266 0.930 . S
C2279 C2278 1.388 . S
C2279 C2280 1.390 . S
C2280 C2279 1.390 . S
C2280 C2281 1.394 . S
C2280 C2286 1.465 . S
C2281 C2276 1.399 . S
C2281 C2280 1.394 . S
C2281 C2282 1.516 1_554 S
C2282 C2281 1.516 1_556 S
C2282 C2283 1.502 . S
C2282 C2284 1.561 . S
C2282 C2285 1.526 . S
C2283 H2267 0.959 1_556 S
C2283 H2268 0.959 . S
C2283 H2269 0.961 . S
C2283 C2282 1.502 . S
C2284 H2270 0.960 . S
C2284 H2271 0.961 . S
C2284 H2272 0.959 . S
C2284 C2282 1.561 . S
C2285 C2282 1.526 . S
C2285 C2286 1.396 1_556 S
C2285 C2290 1.390 . S
C2286 C2280 1.465 . S
C2286 C2285 1.396 1_554 S
C2286 C2287 1.399 . S
C2287 H2273 0.929 . S
C2287 C2286 1.399 . S
C2287 C2288 1.385 . S
C2288 H2274 0.931 . S
C2288 C2287 1.385 . S
C2288 C2289 1.389 . S
C2289 C2288 1.389 . S
C2289 C2290 1.387 1_554 S
C2290 H2275 0.930 . S
C2290 C2285 1.390 . S
C2290 C2289 1.387 1_556 S
H2291 C2303 0.930 . S
H2292 C2305 0.930 . S
H2293 C2306 0.930 1_556 S
H2294 C2310 0.959 . S
H2295 C2310 0.959 . S
H2296 C2310 0.961 . S
H2297 C2311 0.960 . S
H2298 C2311 0.961 . S
H2299 C2311 0.959 . S
H2300 C2314 0.929 1_556 S
H2301 C2315 0.931 1_556 S
H2302 C2317 0.930 . S
C2303 H2291 0.930 . S
C2303 C2304 1.399 . S
C2303 C2308 1.399 . S
C2304 C2303 1.399 . S
C2304 C2305 1.376 . S
C2305 H2292 0.930 . S
C2305 C2304 1.376 . S
C2305 C2306 1.388 . S
C2306 H2293 0.930 1_554 S
C2306 C2305 1.388 . S
C2306 C2307 1.390 . S
C2307 C2306 1.390 . S
C2307 C2308 1.394 . S
C2307 C2313 1.465 . S
C2308 C2303 1.399 . S
C2308 C2307 1.394 . S
C2308 C2309 1.516 . S
C2309 C2308 1.516 . S
C2309 C2310 1.502 . S
C2309 C2311 1.561 . S
C2309 C2312 1.526 . S
C2310 H2294 0.959 . S
C2310 H2295 0.959 . S
C2310 H2296 0.961 . S
C2310 C2309 1.502 . S
C2311 H2297 0.960 . S
C2311 H2298 0.961 . S
C2311 H2299 0.959 . S
C2311 C2309 1.561 . S
C2312 C2309 1.526 . S
C2312 C2313 1.396 . S
C2312 C2317 1.390 . S
C2313 C2307 1.465 . S
C2313 C2312 1.396 . S
C2313 C2314 1.399 . S
C2314 H2300 0.929 1_554 S
C2314 C2313 1.399 . S
C2314 C2315 1.385 . S
C2315 H2301 0.931 1_554 S
C2315 C2314 1.385 . S
C2315 C2316 1.389 . S
C2316 C2315 1.389 . S
C2316 C2317 1.387 . S
C2317 H2302 0.930 . S
C2317 C2312 1.390 . S
C2317 C2316 1.387 . S
H2318 C2330 0.930 . S
H2319 C2332 0.930 . S
H2320 C2333 0.930 . S
H2321 C2337 0.959 . S
H2322 C2337 0.959 . S
H2323 C2337 0.961 . S
H2324 C2338 0.960 . S
H2325 C2338 0.961 . S
H2326 C2338 0.959 . S
H2327 C2341 0.929 . S
H2328 C2342 0.931 . S
H2329 C2344 0.930 . S
C2330 H2318 0.930 . S
C2330 C2331 1.399 . S
C2330 C2335 1.399 . S
C2331 C2330 1.399 . S
C2331 C2332 1.376 . S
C2332 H2319 0.930 . S
C2332 C2331 1.376 . S
C2332 C2333 1.388 . S
C2333 H2320 0.930 . S
C2333 C2332 1.388 . S
C2333 C2334 1.390 . S
C2334 C2333 1.390 . S
C2334 C2335 1.394 . S
C2334 C2340 1.465 . S
C2335 C2330 1.399 . S
C2335 C2334 1.394 . S
C2335 C2336 1.516 . S
C2336 C2335 1.516 . S
C2336 C2337 1.502 . S
C2336 C2338 1.561 . S
C2336 C2339 1.526 . S
C2337 H2321 0.959 . S
C2337 H2322 0.959 . S
C2337 H2323 0.961 . S
C2337 C2336 1.502 . S
C2338 H2324 0.960 . S
C2338 H2325 0.961 . S
C2338 H2326 0.959 . S
C2338 C2336 1.561 . S
C2339 C2336 1.526 . S
C2339 C2340 1.396 . S
C2339 C2344 1.390 . S
C2340 C2334 1.465 . S
C2340 C2339 1.396 . S
C2340 C2341 1.399 . S
C2341 H2327 0.929 . S
C2341 C2340 1.399 . S
C2341 C2342 1.385 . S
C2342 H2328 0.931 . S
C2342 C2341 1.385 . S
C2342 C2343 1.389 . S
C2343 C2342 1.389 . S
C2343 C2344 1.387 . S
C2344 H2329 0.930 . S
C2344 C2339 1.390 . S
C2344 C2343 1.387 . S
H2345 C2357 0.930 . S
H2346 C2359 0.930 . S
H2347 C2360 0.930 . S
H2348 C2364 0.959 . S
H2349 C2364 0.959 . S
H2350 C2364 0.961 . S
H2351 C2365 0.960 . S
H2352 C2365 0.961 . S
H2353 C2365 0.959 . S
H2354 C2368 0.929 . S
H2355 C2369 0.931 . S
H2356 C2371 0.930 . S
C2357 H2345 0.930 . S
C2357 C2358 1.399 . S
C2357 C2362 1.399 . S
C2358 C2357 1.399 . S
C2358 C2359 1.376 . S
C2359 H2346 0.930 . S
C2359 C2358 1.376 . S
C2359 C2360 1.388 . S
C2360 H2347 0.930 . S
C2360 C2359 1.388 . S
C2360 C2361 1.390 . S
C2361 C2360 1.390 . S
C2361 C2362 1.394 . S
C2361 C2367 1.465 . S
C2362 C2357 1.399 . S
C2362 C2361 1.394 . S
C2362 C2363 1.516 . S
C2363 C2362 1.516 . S
C2363 C2364 1.502 . S
C2363 C2365 1.561 . S
C2363 C2366 1.526 . S
C2364 H2348 0.959 . S
C2364 H2349 0.959 . S
C2364 H2350 0.961 . S
C2364 C2363 1.502 . S
C2365 H2351 0.960 . S
C2365 H2352 0.961 . S
C2365 H2353 0.959 . S
C2365 C2363 1.561 . S
C2366 C2363 1.526 . S
C2366 C2367 1.396 . S
C2366 C2371 1.390 . S
C2367 C2361 1.465 . S
C2367 C2366 1.396 . S
C2367 C2368 1.399 . S
C2368 H2354 0.929 . S
C2368 C2367 1.399 . S
C2368 C2369 1.385 . S
C2369 H2355 0.931 . S
C2369 C2368 1.385 . S
C2369 C2370 1.389 . S
C2370 C2369 1.389 . S
C2370 C2371 1.387 . S
C2371 H2356 0.930 . S
C2371 C2366 1.390 . S
C2371 C2370 1.387 . S
H2372 C2384 0.930 . S
H2373 C2386 0.930 . S
H2374 C2387 0.930 . S
H2375 C2391 0.959 . S
H2376 C2391 0.959 . S
H2377 C2391 0.961 . S
H2378 C2392 0.960 . S
H2379 C2392 0.961 . S
H2380 C2392 0.959 . S
H2381 C2395 0.929 . S
H2382 C2396 0.931 . S
H2383 C2398 0.930 . S
C2384 H2372 0.930 . S
C2384 C2385 1.399 . S
C2384 C2389 1.399 . S
C2385 C2384 1.399 . S
C2385 C2386 1.376 . S
C2386 H2373 0.930 . S
C2386 C2385 1.376 . S
C2386 C2387 1.388 . S
C2387 H2374 0.930 . S
C2387 C2386 1.388 . S
C2387 C2388 1.390 . S
C2388 C2387 1.390 . S
C2388 C2389 1.394 . S
C2388 C2394 1.465 . S
C2389 C2384 1.399 . S
C2389 C2388 1.394 . S
C2389 C2390 1.516 . S
C2390 C2389 1.516 . S
C2390 C2391 1.502 . S
C2390 C2392 1.561 . S
C2390 C2393 1.526 . S
C2391 H2375 0.959 . S
C2391 H2376 0.959 . S
C2391 H2377 0.961 . S
C2391 C2390 1.502 . S
C2392 H2378 0.960 . S
C2392 H2379 0.961 . S
C2392 H2380 0.959 . S
C2392 C2390 1.561 . S
C2393 C2390 1.526 . S
C2393 C2394 1.396 . S
C2393 C2398 1.390 . S
C2394 C2388 1.465 . S
C2394 C2393 1.396 . S
C2394 C2395 1.399 . S
C2395 H2381 0.929 . S
C2395 C2394 1.399 . S
C2395 C2396 1.385 . S
C2396 H2382 0.931 . S
C2396 C2395 1.385 . S
C2396 C2397 1.389 . S
C2397 C2396 1.389 . S
C2397 C2398 1.387 . S
C2398 H2383 0.930 . S
C2398 C2393 1.390 . S
C2398 C2397 1.387 . S
H2399 C2411 0.930 . S
H2400 C2413 0.930 . S
H2401 C2414 0.930 . S
H2402 C2418 0.959 . S
H2403 C2418 0.959 . S
H2404 C2418 0.961 . S
H2405 C2419 0.960 . S
H2406 C2419 0.961 . S
H2407 C2419 0.959 . S
H2408 C2422 0.929 . S
H2409 C2423 0.931 . S
H2410 C2425 0.930 . S
C2411 H2399 0.930 . S
C2411 C2412 1.399 . S
C2411 C2416 1.399 . S
C2412 C2411 1.399 . S
C2412 C2413 1.376 . S
C2413 H2400 0.930 . S
C2413 C2412 1.376 . S
C2413 C2414 1.388 . S
C2414 H2401 0.930 . S
C2414 C2413 1.388 . S
C2414 C2415 1.390 . S
C2415 C2414 1.390 . S
C2415 C2416 1.394 . S
C2415 C2421 1.465 . S
C2416 C2411 1.399 . S
C2416 C2415 1.394 . S
C2416 C2417 1.516 . S
C2417 C2416 1.516 . S
C2417 C2418 1.502 . S
C2417 C2419 1.561 . S
C2417 C2420 1.526 . S
C2418 H2402 0.959 . S
C2418 H2403 0.959 . S
C2418 H2404 0.961 . S
C2418 C2417 1.502 . S
C2419 H2405 0.960 . S
C2419 H2406 0.961 . S
C2419 H2407 0.959 . S
C2419 C2417 1.561 . S
C2420 C2417 1.526 . S
C2420 C2421 1.396 . S
C2420 C2425 1.390 . S
C2421 C2415 1.465 . S
C2421 C2420 1.396 . S
C2421 C2422 1.399 . S
C2422 H2408 0.929 . S
C2422 C2421 1.399 . S
C2422 C2423 1.385 . S
C2423 H2409 0.931 . S
C2423 C2422 1.385 . S
C2423 C2424 1.389 . S
C2424 C2423 1.389 . S
C2424 C2425 1.387 . S
C2425 H2410 0.930 . S
C2425 C2420 1.390 . S
C2425 C2424 1.387 . S
H2426 C2438 0.930 . S
H2427 C2440 0.930 . S
H2428 C2441 0.930 . S
H2429 C2445 0.959 . S
H2430 C2445 0.959 . S
H2431 C2445 0.961 . S
H2432 C2446 0.960 . S
H2433 C2446 0.961 . S
H2434 C2446 0.959 . S
H2435 C2449 0.929 . S
H2436 C2450 0.931 . S
H2437 C2452 0.930 . S
C2438 H2426 0.930 . S
C2438 C2439 1.399 . S
C2438 C2443 1.399 . S
C2439 C2438 1.399 . S
C2439 C2440 1.376 . S
C2440 H2427 0.930 . S
C2440 C2439 1.376 . S
C2440 C2441 1.388 . S
C2441 H2428 0.930 . S
C2441 C2440 1.388 . S
C2441 C2442 1.390 . S
C2442 C2441 1.390 . S
C2442 C2443 1.394 . S
C2442 C2448 1.465 . S
C2443 C2438 1.399 . S
C2443 C2442 1.394 . S
C2443 C2444 1.516 . S
C2444 C2443 1.516 . S
C2444 C2445 1.502 . S
C2444 C2446 1.561 . S
C2444 C2447 1.526 . S
C2445 H2429 0.959 . S
C2445 H2430 0.959 . S
C2445 H2431 0.961 . S
C2445 C2444 1.502 . S
C2446 H2432 0.960 . S
C2446 H2433 0.961 . S
C2446 H2434 0.959 . S
C2446 C2444 1.561 . S
C2447 C2444 1.526 . S
C2447 C2448 1.396 . S
C2447 C2452 1.390 . S
C2448 C2442 1.465 . S
C2448 C2447 1.396 . S
C2448 C2449 1.399 . S
C2449 H2435 0.929 . S
C2449 C2448 1.399 . S
C2449 C2450 1.385 . S
C2450 H2436 0.931 . S
C2450 C2449 1.385 . S
C2450 C2451 1.389 . S
C2451 C2450 1.389 . S
C2451 C2452 1.387 . S
C2452 H2437 0.930 . S
C2452 C2447 1.390 . S
C2452 C2451 1.387 . S
H2453 C2465 0.930 . S
H2454 C2467 0.930 . S
H2455 C2468 0.930 . S
H2456 C2472 0.959 . S
H2457 C2472 0.959 . S
H2458 C2472 0.961 . S
H2459 C2473 0.960 . S
H2460 C2473 0.961 . S
H2461 C2473 0.959 . S
H2462 C2476 0.929 . S
H2463 C2477 0.931 . S
H2464 C2479 0.930 . S
C2465 H2453 0.930 . S
C2465 C2466 1.399 . S
C2465 C2470 1.399 . S
C2466 C2465 1.399 . S
C2466 C2467 1.376 . S
C2467 H2454 0.930 . S
C2467 C2466 1.376 . S
C2467 C2468 1.388 . S
C2468 H2455 0.930 . S
C2468 C2467 1.388 . S
C2468 C2469 1.390 . S
C2469 C2468 1.390 . S
C2469 C2470 1.394 . S
C2469 C2475 1.465 . S
C2470 C2465 1.399 . S
C2470 C2469 1.394 . S
C2470 C2471 1.516 . S
C2471 C2470 1.516 . S
C2471 C2472 1.502 . S
C2471 C2473 1.561 . S
C2471 C2474 1.526 . S
C2472 H2456 0.959 . S
C2472 H2457 0.959 . S
C2472 H2458 0.961 . S
C2472 C2471 1.502 . S
C2473 H2459 0.960 . S
C2473 H2460 0.961 . S
C2473 H2461 0.959 . S
C2473 C2471 1.561 . S
C2474 C2471 1.526 . S
C2474 C2475 1.396 . S
C2474 C2479 1.390 . S
C2475 C2469 1.465 . S
C2475 C2474 1.396 . S
C2475 C2476 1.399 . S
C2476 H2462 0.929 . S
C2476 C2475 1.399 . S
C2476 C2477 1.385 . S
C2477 H2463 0.931 . S
C2477 C2476 1.385 . S
C2477 C2478 1.389 . S
C2478 C2477 1.389 . S
C2478 C2479 1.387 . S
C2479 H2464 0.930 . S
C2479 C2474 1.390 . S
C2479 C2478 1.387 . S
H2480 C2492 0.930 . S
H2481 C2494 0.930 . S
H2482 C2495 0.930 . S
H2483 C2499 0.959 . S
H2484 C2499 0.959 . S
H2485 C2499 0.961 . S
H2486 C2500 0.960 . S
H2487 C2500 0.961 . S
H2488 C2500 0.959 . S
H2489 C2503 0.929 . S
H2490 C2504 0.931 . S
H2491 C2506 0.930 . S
C2492 H2480 0.930 . S
C2492 C2493 1.399 . S
C2492 C2497 1.399 . S
C2493 C2492 1.399 . S
C2493 C2494 1.376 . S
C2494 H2481 0.930 . S
C2494 C2493 1.376 . S
C2494 C2495 1.388 . S
C2495 H2482 0.930 . S
C2495 C2494 1.388 . S
C2495 C2496 1.390 . S
C2496 C2495 1.390 . S
C2496 C2497 1.394 . S
C2496 C2502 1.465 . S
C2497 C2492 1.399 . S
C2497 C2496 1.394 . S
C2497 C2498 1.516 . S
C2498 C2497 1.516 . S
C2498 C2499 1.502 . S
C2498 C2500 1.561 . S
C2498 C2501 1.526 . S
C2499 H2483 0.959 . S
C2499 H2484 0.959 . S
C2499 H2485 0.961 . S
C2499 C2498 1.502 . S
C2500 H2486 0.960 . S
C2500 H2487 0.961 . S
C2500 H2488 0.959 . S
C2500 C2498 1.561 . S
C2501 C2498 1.526 . S
C2501 C2502 1.396 . S
C2501 C2506 1.390 . S
C2502 C2496 1.465 . S
C2502 C2501 1.396 . S
C2502 C2503 1.399 . S
C2503 H2489 0.929 . S
C2503 C2502 1.399 . S
C2503 C2504 1.385 . S
C2504 H2490 0.931 . S
C2504 C2503 1.385 . S
C2504 C2505 1.389 . S
C2505 C2504 1.389 . S
C2505 C2506 1.387 . S
C2506 H2491 0.930 . S
C2506 C2501 1.390 . S
C2506 C2505 1.387 . S
H2507 C2519 0.930 . S
H2508 C2521 0.930 . S
H2509 C2522 0.930 . S
H2510 C2526 0.959 . S
H2511 C2526 0.959 . S
H2512 C2526 0.961 . S
H2513 C2527 0.960 . S
H2514 C2527 0.961 . S
H2515 C2527 0.959 . S
H2516 C2530 0.929 . S
H2517 C2531 0.931 . S
H2518 C2533 0.930 . S
C2519 H2507 0.930 . S
C2519 C2520 1.399 . S
C2519 C2524 1.399 . S
C2520 C2519 1.399 . S
C2520 C2521 1.376 . S
C2521 H2508 0.930 . S
C2521 C2520 1.376 . S
C2521 C2522 1.388 . S
C2522 H2509 0.930 . S
C2522 C2521 1.388 . S
C2522 C2523 1.390 . S
C2523 C2522 1.390 . S
C2523 C2524 1.394 . S
C2523 C2529 1.465 . S
C2524 C2519 1.399 . S
C2524 C2523 1.394 . S
C2524 C2525 1.516 . S
C2525 C2524 1.516 . S
C2525 C2526 1.502 . S
C2525 C2527 1.561 . S
C2525 C2528 1.526 . S
C2526 H2510 0.959 . S
C2526 H2511 0.959 . S
C2526 H2512 0.961 . S
C2526 C2525 1.502 . S
C2527 H2513 0.960 . S
C2527 H2514 0.961 . S
C2527 H2515 0.959 . S
C2527 C2525 1.561 . S
C2528 C2525 1.526 . S
C2528 C2529 1.396 . S
C2528 C2533 1.390 . S
C2529 C2523 1.465 . S
C2529 C2528 1.396 . S
C2529 C2530 1.399 . S
C2530 H2516 0.929 . S
C2530 C2529 1.399 . S
C2530 C2531 1.385 . S
C2531 H2517 0.931 . S
C2531 C2530 1.385 . S
C2531 C2532 1.389 . S
C2532 C2531 1.389 . S
C2532 C2533 1.387 . S
C2533 H2518 0.930 . S
C2533 C2528 1.390 . S
C2533 C2532 1.387 . S
H2534 C2546 0.944 . S
H2535 C2548 0.930 . S
H2536 C2549 0.930 . S
H2537 C2553 0.959 . S
H2538 C2553 0.959 1_655 S
H2539 C2553 0.961 1_655 S
H2540 C2554 0.960 . S
H2541 C2554 0.961 . S
H2542 C2554 0.959 . S
H2543 C2557 0.929 . S
H2544 C2558 0.931 . S
H2545 C2560 0.928 1_655 S
C2546 H2534 0.944 . S
C2546 C2547 1.381 1_655 S
C2546 C2551 1.409 1_655 S
C2547 C2546 1.381 1_455 S
C2547 C2548 1.376 . S
C2548 H2535 0.930 . S
C2548 C2547 1.376 . S
C2548 C2549 1.388 . S
C2549 H2536 0.930 . S
C2549 C2548 1.388 . S
C2549 C2550 1.390 . S
C2550 C2549 1.390 . S
C2550 C2551 1.401 . S
C2550 C2556 1.465 . S
C2551 C2546 1.409 1_455 S
C2551 C2550 1.401 . S
C2551 C2552 1.506 1_455 S
C2552 C2551 1.506 1_655 S
C2552 C2553 1.502 1_655 S
C2552 C2554 1.561 . S
C2552 C2555 1.526 1_655 S
C2553 H2537 0.959 . S
C2553 H2538 0.959 1_455 S
C2553 H2539 0.961 1_455 S
C2553 C2552 1.502 1_455 S
C2554 H2540 0.960 . S
C2554 H2541 0.961 . S
C2554 H2542 0.959 . S
C2554 C2552 1.561 . S
C2555 C2552 1.526 1_455 S
C2555 C2556 1.396 . S
C2555 C2560 1.391 . S
C2556 C2550 1.465 . S
C2556 C2555 1.396 . S
C2556 C2557 1.399 1_556 S
C2557 H2543 0.929 . S
C2557 C2556 1.399 1_554 S
C2557 C2558 1.385 . S
C2558 H2544 0.931 . S
C2558 C2557 1.385 . S
C2558 C2559 1.389 1_554 S
C2559 C2558 1.389 1_556 S
C2559 C2560 1.388 . S
C2560 H2545 0.928 1_455 S
C2560 C2555 1.391 . S
C2560 C2559 1.388 . S
H2561 C2573 0.930 . S
H2562 C2575 0.930 . S
H2563 C2576 0.930 . S
H2564 C2580 0.959 . S
H2565 C2580 0.959 . S
H2566 C2580 0.961 . S
H2567 C2581 0.960 . S
H2568 C2581 0.961 . S
H2569 C2581 0.959 . S
H2570 C2584 0.929 . S
H2571 C2585 0.931 . S
H2572 C2587 0.930 . S
C2573 H2561 0.930 . S
C2573 C2574 1.399 . S
C2573 C2578 1.399 . S
C2574 C2573 1.399 . S
C2574 C2575 1.376 . S
C2575 H2562 0.930 . S
C2575 C2574 1.376 . S
C2575 C2576 1.388 . S
C2576 H2563 0.930 . S
C2576 C2575 1.388 . S
C2576 C2577 1.390 . S
C2577 C2576 1.390 . S
C2577 C2578 1.394 . S
C2577 C2583 1.465 . S
C2578 C2573 1.399 . S
C2578 C2577 1.394 . S
C2578 C2579 1.516 . S
C2579 C2578 1.516 . S
C2579 C2580 1.502 . S
C2579 C2581 1.561 . S
C2579 C2582 1.526 . S
C2580 H2564 0.959 . S
C2580 H2565 0.959 . S
C2580 H2566 0.961 . S
C2580 C2579 1.502 . S
C2581 H2567 0.960 . S
C2581 H2568 0.961 . S
C2581 H2569 0.959 . S
C2581 C2579 1.561 . S
C2582 C2579 1.526 . S
C2582 C2583 1.396 . S
C2582 C2587 1.390 . S
C2583 C2577 1.465 . S
C2583 C2582 1.396 . S
C2583 C2584 1.399 . S
C2584 H2570 0.929 . S
C2584 C2583 1.399 . S
C2584 C2585 1.385 . S
C2585 H2571 0.931 . S
C2585 C2584 1.385 . S
C2585 C2586 1.389 . S
C2586 C2585 1.389 . S
C2586 C2587 1.387 . S
C2587 H2572 0.930 . S
C2587 C2582 1.390 . S
C2587 C2586 1.387 . S
H2588 C2600 0.930 . S
H2589 C2602 0.930 . S
H2590 C2603 0.930 . S
H2591 C2607 0.959 . S
H2592 C2607 0.959 . S
H2593 C2607 0.961 . S
H2594 C2608 0.960 . S
H2595 C2608 0.961 . S
H2596 C2608 0.959 . S
H2597 C2611 0.929 . S
H2598 C2612 0.931 . S
H2599 C2614 0.930 . S
C2600 H2588 0.930 . S
C2600 C2601 1.399 . S
C2600 C2605 1.399 . S
C2601 C2600 1.399 . S
C2601 C2602 1.376 . S
C2602 H2589 0.930 . S
C2602 C2601 1.376 . S
C2602 C2603 1.388 . S
C2603 H2590 0.930 . S
C2603 C2602 1.388 . S
C2603 C2604 1.390 . S
C2604 C2603 1.390 . S
C2604 C2605 1.394 . S
C2604 C2610 1.465 . S
C2605 C2600 1.399 . S
C2605 C2604 1.394 . S
C2605 C2606 1.516 . S
C2606 C2605 1.516 . S
C2606 C2607 1.502 . S
C2606 C2608 1.561 . S
C2606 C2609 1.526 . S
C2607 H2591 0.959 . S
C2607 H2592 0.959 . S
C2607 H2593 0.961 . S
C2607 C2606 1.502 . S
C2608 H2594 0.960 . S
C2608 H2595 0.961 . S
C2608 H2596 0.959 . S
C2608 C2606 1.561 . S
C2609 C2606 1.526 . S
C2609 C2610 1.396 . S
C2609 C2614 1.390 . S
C2610 C2604 1.465 . S
C2610 C2609 1.396 . S
C2610 C2611 1.399 . S
C2611 H2597 0.929 . S
C2611 C2610 1.399 . S
C2611 C2612 1.385 . S
C2612 H2598 0.931 . S
C2612 C2611 1.385 . S
C2612 C2613 1.389 . S
C2613 C2612 1.389 . S
C2613 C2614 1.387 . S
C2614 H2599 0.930 . S
C2614 C2609 1.390 . S
C2614 C2613 1.387 . S
H2615 C2627 0.930 . S
H2616 C2629 0.930 . S
H2617 C2630 0.930 . S
H2618 C2634 0.959 . S
H2619 C2634 0.959 . S
H2620 C2634 0.961 . S
H2621 C2635 0.960 . S
H2622 C2635 0.961 . S
H2623 C2635 0.959 . S
H2624 C2638 0.929 . S
H2625 C2639 0.931 . S
H2626 C2641 0.930 . S
C2627 H2615 0.930 . S
C2627 C2628 1.399 . S
C2627 C2632 1.399 . S
C2628 C2627 1.399 . S
C2628 C2629 1.376 . S
C2629 H2616 0.930 . S
C2629 C2628 1.376 . S
C2629 C2630 1.388 . S
C2630 H2617 0.930 . S
C2630 C2629 1.388 . S
C2630 C2631 1.390 . S
C2631 C2630 1.390 . S
C2631 C2632 1.394 . S
C2631 C2637 1.465 . S
C2632 C2627 1.399 . S
C2632 C2631 1.394 . S
C2632 C2633 1.516 . S
C2633 C2632 1.516 . S
C2633 C2634 1.502 . S
C2633 C2635 1.561 . S
C2633 C2636 1.526 . S
C2634 H2618 0.959 . S
C2634 H2619 0.959 . S
C2634 H2620 0.961 . S
C2634 C2633 1.502 . S
C2635 H2621 0.960 . S
C2635 H2622 0.961 . S
C2635 H2623 0.959 . S
C2635 C2633 1.561 . S
C2636 C2633 1.526 . S
C2636 C2637 1.396 . S
C2636 C2641 1.390 . S
C2637 C2631 1.465 . S
C2637 C2636 1.396 . S
C2637 C2638 1.399 . S
C2638 H2624 0.929 . S
C2638 C2637 1.399 . S
C2638 C2639 1.385 . S
C2639 H2625 0.931 . S
C2639 C2638 1.385 . S
C2639 C2640 1.389 . S
C2640 C2639 1.389 . S
C2640 C2641 1.387 . S
C2641 H2626 0.930 . S
C2641 C2636 1.390 . S
C2641 C2640 1.387 . S
H2642 C2654 0.930 . S
H2643 C2656 0.930 . S
H2644 C2657 0.930 . S
H2645 C2661 0.959 . S
H2646 C2661 0.959 . S
H2647 C2661 0.961 . S
H2648 C2662 0.960 . S
H2649 C2662 0.961 . S
H2650 C2662 0.959 . S
H2651 C2665 0.929 . S
H2652 C2666 0.931 . S
H2653 C2668 0.930 . S
C2654 H2642 0.930 . S
C2654 C2655 1.410 . S
C2654 C2659 1.399 . S
C2655 C2654 1.410 . S
C2655 C2656 1.369 1_455 S
C2656 H2643 0.930 . S
C2656 C2655 1.369 1_655 S
C2656 C2657 1.388 . S
C2657 H2644 0.930 . S
C2657 C2656 1.388 . S
C2657 C2658 1.390 . S
C2658 C2657 1.390 . S
C2658 C2659 1.394 1_655 S
C2658 C2664 1.473 . S
C2659 C2654 1.399 . S
C2659 C2658 1.394 1_455 S
C2659 C2660 1.516 . S
C2660 C2659 1.516 . S
C2660 C2661 1.502 . S
C2660 C2662 1.561 1_455 S
C2660 C2663 1.526 . S
C2661 H2645 0.959 . S
C2661 H2646 0.959 . S
C2661 H2647 0.961 . S
C2661 C2660 1.502 . S
C2662 H2648 0.960 . S
C2662 H2649 0.961 . S
C2662 H2650 0.959 . S
C2662 C2660 1.561 1_655 S
C2663 C2660 1.526 . S
C2663 C2664 1.384 1_455 S
C2663 C2668 1.390 . S
C2664 C2658 1.473 . S
C2664 C2663 1.384 1_655 S
C2664 C2665 1.402 . S
C2665 H2651 0.929 . S
C2665 C2664 1.402 . S
C2665 C2666 1.385 . S
C2666 H2652 0.931 . S
C2666 C2665 1.385 . S
C2666 C2667 1.389 1_655 S
C2667 C2666 1.389 1_455 S
C2667 C2668 1.387 . S
C2668 H2653 0.930 . S
C2668 C2663 1.390 . S
C2668 C2667 1.387 . S
H2669 C2681 0.930 . S
H2670 C2683 0.930 . S
H2671 C2684 0.930 . S
H2672 C2688 0.959 . S
H2673 C2688 0.959 . S
H2674 C2688 0.961 . S
H2675 C2689 0.960 . S
H2676 C2689 0.961 . S
H2677 C2689 0.959 . S
H2678 C2692 0.929 . S
H2679 C2693 0.931 . S
H2680 C2695 0.930 . S
C2681 H2669 0.930 . S
C2681 C2682 1.399 . S
C2681 C2686 1.399 . S
C2682 C2681 1.399 . S
C2682 C2683 1.376 . S
C2683 H2670 0.930 . S
C2683 C2682 1.376 . S
C2683 C2684 1.388 . S
C2684 H2671 0.930 . S
C2684 C2683 1.388 . S
C2684 C2685 1.390 . S
C2685 C2684 1.390 . S
C2685 C2686 1.394 . S
C2685 C2691 1.465 . S
C2686 C2681 1.399 . S
C2686 C2685 1.394 . S
C2686 C2687 1.516 . S
C2687 C2686 1.516 . S
C2687 C2688 1.502 . S
C2687 C2689 1.561 . S
C2687 C2690 1.526 . S
C2688 H2672 0.959 . S
C2688 H2673 0.959 . S
C2688 H2674 0.961 . S
C2688 C2687 1.502 . S
C2689 H2675 0.960 . S
C2689 H2676 0.961 . S
C2689 H2677 0.959 . S
C2689 C2687 1.561 . S
C2690 C2687 1.526 . S
C2690 C2691 1.396 . S
C2690 C2695 1.390 . S
C2691 C2685 1.465 . S
C2691 C2690 1.396 . S
C2691 C2692 1.399 . S
C2692 H2678 0.929 . S
C2692 C2691 1.399 . S
C2692 C2693 1.385 . S
C2693 H2679 0.931 . S
C2693 C2692 1.385 . S
C2693 C2694 1.389 . S
C2694 C2693 1.389 . S
C2694 C2695 1.387 . S
C2695 H2680 0.930 . S
C2695 C2690 1.390 . S
C2695 C2694 1.387 . S
H2696 C2708 0.930 . S
H2697 C2710 0.930 . S
H2698 C2711 0.930 . S
H2699 C2715 0.959 . S
H2700 C2715 0.959 . S
H2701 C2715 0.961 . S
H2702 C2716 0.960 . S
H2703 C2716 0.961 . S
H2704 C2716 0.959 . S
H2705 C2719 0.929 . S
H2706 C2720 0.931 . S
H2707 C2722 0.930 . S
C2708 H2696 0.930 . S
C2708 C2709 1.399 . S
C2708 C2713 1.399 . S
C2709 C2708 1.399 . S
C2709 C2710 1.376 . S
C2710 H2697 0.930 . S
C2710 C2709 1.376 . S
C2710 C2711 1.388 . S
C2711 H2698 0.930 . S
C2711 C2710 1.388 . S
C2711 C2712 1.390 . S
C2712 C2711 1.390 . S
C2712 C2713 1.394 . S
C2712 C2718 1.465 . S
C2713 C2708 1.399 . S
C2713 C2712 1.394 . S
C2713 C2714 1.516 . S
C2714 C2713 1.516 . S
C2714 C2715 1.502 . S
C2714 C2716 1.561 . S
C2714 C2717 1.526 . S
C2715 H2699 0.959 . S
C2715 H2700 0.959 . S
C2715 H2701 0.961 . S
C2715 C2714 1.502 . S
C2716 H2702 0.960 . S
C2716 H2703 0.961 . S
C2716 H2704 0.959 . S
C2716 C2714 1.561 . S
C2717 C2714 1.526 . S
C2717 C2718 1.396 . S
C2717 C2722 1.390 . S
C2718 C2712 1.465 . S
C2718 C2717 1.396 . S
C2718 C2719 1.399 . S
C2719 H2705 0.929 . S
C2719 C2718 1.399 . S
C2719 C2720 1.385 . S
C2720 H2706 0.931 . S
C2720 C2719 1.385 . S
C2720 C2721 1.389 . S
C2721 C2720 1.389 . S
C2721 C2722 1.387 . S
C2722 H2707 0.930 . S
C2722 C2717 1.390 . S
C2722 C2721 1.387 . S
H2723 C2735 0.930 . S
H2724 C2737 0.930 . S
H2725 C2738 0.930 . S
H2726 C2742 0.959 . S
H2727 C2742 0.959 . S
H2728 C2742 0.961 . S
H2729 C2743 0.960 . S
H2730 C2743 0.961 . S
H2731 C2743 0.959 . S
H2732 C2746 0.929 . S
H2733 C2747 0.931 . S
H2734 C2749 0.930 . S
C2735 H2723 0.930 . S
C2735 C2736 1.399 . S
C2735 C2740 1.399 . S
C2736 C2735 1.399 . S
C2736 C2737 1.376 . S
C2737 H2724 0.930 . S
C2737 C2736 1.376 . S
C2737 C2738 1.388 . S
C2738 H2725 0.930 . S
C2738 C2737 1.388 . S
C2738 C2739 1.390 . S
C2739 C2738 1.390 . S
C2739 C2740 1.394 . S
C2739 C2745 1.465 . S
C2740 C2735 1.399 . S
C2740 C2739 1.394 . S
C2740 C2741 1.516 . S
C2741 C2740 1.516 . S
C2741 C2742 1.502 . S
C2741 C2743 1.561 . S
C2741 C2744 1.526 . S
C2742 H2726 0.959 . S
C2742 H2727 0.959 . S
C2742 H2728 0.961 . S
C2742 C2741 1.502 . S
C2743 H2729 0.960 . S
C2743 H2730 0.961 . S
C2743 H2731 0.959 . S
C2743 C2741 1.561 . S
C2744 C2741 1.526 . S
C2744 C2745 1.396 . S
C2744 C2749 1.390 . S
C2745 C2739 1.465 . S
C2745 C2744 1.396 . S
C2745 C2746 1.399 . S
C2746 H2732 0.929 . S
C2746 C2745 1.399 . S
C2746 C2747 1.385 . S
C2747 H2733 0.931 . S
C2747 C2746 1.385 . S
C2747 C2748 1.389 . S
C2748 C2747 1.389 . S
C2748 C2749 1.387 . S
C2749 H2734 0.930 . S
C2749 C2744 1.390 . S
C2749 C2748 1.387 . S
H2750 C2762 0.930 . S
H2751 C2764 0.930 . S
H2752 C2765 0.930 . S
H2753 C2769 0.959 . S
H2754 C2769 0.959 . S
H2755 C2769 0.961 . S
H2756 C2770 0.960 . S
H2757 C2770 0.961 . S
H2758 C2770 0.959 . S
H2759 C2773 0.929 . S
H2760 C2774 0.931 . S
H2761 C2776 0.930 . S
C2762 H2750 0.930 . S
C2762 C2763 1.399 . S
C2762 C2767 1.399 . S
C2763 C2762 1.399 . S
C2763 C2764 1.376 . S
C2764 H2751 0.930 . S
C2764 C2763 1.376 . S
C2764 C2765 1.388 . S
C2765 H2752 0.930 . S
C2765 C2764 1.388 . S
C2765 C2766 1.390 . S
C2766 C2765 1.390 . S
C2766 C2767 1.394 . S
C2766 C2772 1.465 . S
C2767 C2762 1.399 . S
C2767 C2766 1.394 . S
C2767 C2768 1.516 . S
C2768 C2767 1.516 . S
C2768 C2769 1.502 . S
C2768 C2770 1.561 . S
C2768 C2771 1.526 . S
C2769 H2753 0.959 . S
C2769 H2754 0.959 . S
C2769 H2755 0.961 . S
C2769 C2768 1.502 . S
C2770 H2756 0.960 . S
C2770 H2757 0.961 . S
C2770 H2758 0.959 . S
C2770 C2768 1.561 . S
C2771 C2768 1.526 . S
C2771 C2772 1.396 . S
C2771 C2776 1.390 . S
C2772 C2766 1.465 . S
C2772 C2771 1.396 . S
C2772 C2773 1.399 . S
C2773 H2759 0.929 . S
C2773 C2772 1.399 . S
C2773 C2774 1.385 . S
C2774 H2760 0.931 . S
C2774 C2773 1.385 . S
C2774 C2775 1.389 . S
C2775 C2774 1.389 . S
C2775 C2776 1.387 . S
C2776 H2761 0.930 . S
C2776 C2771 1.390 . S
C2776 C2775 1.387 . S
H2777 C2789 0.930 . S
H2778 C2791 0.930 . S
H2779 C2792 0.930 . S
H2780 C2796 0.959 . S
H2781 C2796 0.959 . S
H2782 C2796 0.961 . S
H2783 C2797 0.960 . S
H2784 C2797 0.961 . S
H2785 C2797 0.959 . S
H2786 C2800 0.929 . S
H2787 C2801 0.931 . S
H2788 C2803 0.930 . S
C2789 H2777 0.930 . S
C2789 C2790 1.399 . S
C2789 C2794 1.399 . S
C2790 C2789 1.399 . S
C2790 C2791 1.376 . S
C2791 H2778 0.930 . S
C2791 C2790 1.376 . S
C2791 C2792 1.388 . S
C2792 H2779 0.930 . S
C2792 C2791 1.388 . S
C2792 C2793 1.390 . S
C2793 C2792 1.390 . S
C2793 C2794 1.394 . S
C2793 C2799 1.465 . S
C2794 C2789 1.399 . S
C2794 C2793 1.394 . S
C2794 C2795 1.516 . S
C2795 C2794 1.516 . S
C2795 C2796 1.502 . S
C2795 C2797 1.561 . S
C2795 C2798 1.526 . S
C2796 H2780 0.959 . S
C2796 H2781 0.959 . S
C2796 H2782 0.961 . S
C2796 C2795 1.502 . S
C2797 H2783 0.960 . S
C2797 H2784 0.961 . S
C2797 H2785 0.959 . S
C2797 C2795 1.561 . S
C2798 C2795 1.526 . S
C2798 C2799 1.396 . S
C2798 C2803 1.390 . S
C2799 C2793 1.465 . S
C2799 C2798 1.396 . S
C2799 C2800 1.399 . S
C2800 H2786 0.929 . S
C2800 C2799 1.399 . S
C2800 C2801 1.385 . S
C2801 H2787 0.931 . S
C2801 C2800 1.385 . S
C2801 C2802 1.389 . S
C2802 C2801 1.389 . S
C2802 C2803 1.387 . S
C2803 H2788 0.930 . S
C2803 C2798 1.390 . S
C2803 C2802 1.387 . S
H2804 C2816 0.930 . S
H2805 C2818 0.930 . S
H2806 C2819 0.930 . S
H2807 C2823 0.959 . S
H2808 C2823 0.959 . S
H2809 C2823 0.961 . S
H2810 C2824 0.960 . S
H2811 C2824 0.961 . S
H2812 C2824 0.959 . S
H2813 C2827 0.929 . S
H2814 C2828 0.931 . S
H2815 C2830 0.930 . S
C2816 H2804 0.930 . S
C2816 C2817 1.399 . S
C2816 C2821 1.399 . S
C2817 C2816 1.399 . S
C2817 C2818 1.376 . S
C2818 H2805 0.930 . S
C2818 C2817 1.376 . S
C2818 C2819 1.388 . S
C2819 H2806 0.930 . S
C2819 C2818 1.388 . S
C2819 C2820 1.390 . S
C2820 C2819 1.390 . S
C2820 C2821 1.394 . S
C2820 C2826 1.465 . S
C2821 C2816 1.399 . S
C2821 C2820 1.394 . S
C2821 C2822 1.516 . S
C2822 C2821 1.516 . S
C2822 C2823 1.502 . S
C2822 C2824 1.561 . S
C2822 C2825 1.526 . S
C2823 H2807 0.959 . S
C2823 H2808 0.959 . S
C2823 H2809 0.961 . S
C2823 C2822 1.502 . S
C2824 H2810 0.960 . S
C2824 H2811 0.961 . S
C2824 H2812 0.959 . S
C2824 C2822 1.561 . S
C2825 C2822 1.526 . S
C2825 C2826 1.396 . S
C2825 C2830 1.390 . S
C2826 C2820 1.465 . S
C2826 C2825 1.396 . S
C2826 C2827 1.399 . S
C2827 H2813 0.929 . S
C2827 C2826 1.399 . S
C2827 C2828 1.385 . S
C2828 H2814 0.931 . S
C2828 C2827 1.385 . S
C2828 C2829 1.389 . S
C2829 C2828 1.389 . S
C2829 C2830 1.387 . S
C2830 H2815 0.930 . S
C2830 C2825 1.390 . S
C2830 C2829 1.387 . S
H2831 C2843 0.930 . S
H2832 C2845 0.930 . S
H2833 C2846 0.930 . S
H2834 C2850 0.959 . S
H2835 C2850 0.959 . S
H2836 C2850 0.961 . S
H2837 C2851 0.960 . S
H2838 C2851 0.961 . S
H2839 C2851 0.959 . S
H2840 C2854 0.929 . S
H2841 C2855 0.931 . S
H2842 C2857 0.930 . S
C2843 H2831 0.930 . S
C2843 C2844 1.399 . S
C2843 C2848 1.399 . S
C2844 C2843 1.399 . S
C2844 C2845 1.376 . S
C2845 H2832 0.930 . S
C2845 C2844 1.376 . S
C2845 C2846 1.388 . S
C2846 H2833 0.930 . S
C2846 C2845 1.388 . S
C2846 C2847 1.390 . S
C2847 C2846 1.390 . S
C2847 C2848 1.394 . S
C2847 C2853 1.465 . S
C2848 C2843 1.399 . S
C2848 C2847 1.394 . S
C2848 C2849 1.516 . S
C2849 C2848 1.516 . S
C2849 C2850 1.502 . S
C2849 C2851 1.561 . S
C2849 C2852 1.526 . S
C2850 H2834 0.959 . S
C2850 H2835 0.959 . S
C2850 H2836 0.961 . S
C2850 C2849 1.502 . S
C2851 H2837 0.960 . S
C2851 H2838 0.961 . S
C2851 H2839 0.959 . S
C2851 C2849 1.561 . S
C2852 C2849 1.526 . S
C2852 C2853 1.396 . S
C2852 C2857 1.390 . S
C2853 C2847 1.465 . S
C2853 C2852 1.396 . S
C2853 C2854 1.399 . S
C2854 H2840 0.929 . S
C2854 C2853 1.399 . S
C2854 C2855 1.385 . S
C2855 H2841 0.931 . S
C2855 C2854 1.385 . S
C2855 C2856 1.389 . S
C2856 C2855 1.389 . S
C2856 C2857 1.387 . S
C2857 H2842 0.930 . S
C2857 C2852 1.390 . S
C2857 C2856 1.387 . S
H2858 C2870 0.930 . S
H2859 C2872 0.930 . S
H2860 C2873 0.930 . S
H2861 C2877 0.959 . S
H2862 C2877 0.959 . S
H2863 C2877 0.961 . S
H2864 C2878 0.960 . S
H2865 C2878 0.961 . S
H2866 C2878 0.959 . S
H2867 C2881 0.929 . S
H2868 C2882 0.931 . S
H2869 C2884 0.930 . S
C2870 H2858 0.930 . S
C2870 C2871 1.399 . S
C2870 C2875 1.399 . S
C2871 C2870 1.399 . S
C2871 C2872 1.376 . S
C2872 H2859 0.930 . S
C2872 C2871 1.376 . S
C2872 C2873 1.388 . S
C2873 H2860 0.930 . S
C2873 C2872 1.388 . S
C2873 C2874 1.390 . S
C2874 C2873 1.390 . S
C2874 C2875 1.394 . S
C2874 C2880 1.465 . S
C2875 C2870 1.399 . S
C2875 C2874 1.394 . S
C2875 C2876 1.516 . S
C2876 C2875 1.516 . S
C2876 C2877 1.502 . S
C2876 C2878 1.561 . S
C2876 C2879 1.526 . S
C2877 H2861 0.959 . S
C2877 H2862 0.959 . S
C2877 H2863 0.961 . S
C2877 C2876 1.502 . S
C2878 H2864 0.960 . S
C2878 H2865 0.961 . S
C2878 H2866 0.959 . S
C2878 C2876 1.561 . S
C2879 C2876 1.526 . S
C2879 C2880 1.396 . S
C2879 C2884 1.390 . S
C2880 C2874 1.465 . S
C2880 C2879 1.396 . S
C2880 C2881 1.399 . S
C2881 H2867 0.929 . S
C2881 C2880 1.399 . S
C2881 C2882 1.385 . S
C2882 H2868 0.931 . S
C2882 C2881 1.385 . S
C2882 C2883 1.389 . S
C2883 C2882 1.389 . S
C2883 C2884 1.387 . S
C2884 H2869 0.930 . S
C2884 C2879 1.390 . S
C2884 C2883 1.387 . S
H2885 C2897 0.930 . S
H2886 C2899 0.930 . S
H2887 C2900 0.930 . S
H2888 C2904 0.959 . S
H2889 C2904 0.959 . S
H2890 C2904 0.961 . S
H2891 C2905 0.960 . S
H2892 C2905 0.961 . S
H2893 C2905 0.959 . S
H2894 C2908 0.929 . S
H2895 C2909 0.931 . S
H2896 C2911 0.930 . S
C2897 H2885 0.930 . S
C2897 C2898 1.399 . S
C2897 C2902 1.399 . S
C2898 C2897 1.399 . S
C2898 C2899 1.376 . S
C2899 H2886 0.930 . S
C2899 C2898 1.376 . S
C2899 C2900 1.388 . S
C2900 H2887 0.930 . S
C2900 C2899 1.388 . S
C2900 C2901 1.390 . S
C2901 C2900 1.390 . S
C2901 C2902 1.394 . S
C2901 C2907 1.465 . S
C2902 C2897 1.399 . S
C2902 C2901 1.394 . S
C2902 C2903 1.516 . S
C2903 C2902 1.516 . S
C2903 C2904 1.502 . S
C2903 C2905 1.561 . S
C2903 C2906 1.526 . S
C2904 H2888 0.959 . S
C2904 H2889 0.959 . S
C2904 H2890 0.961 . S
C2904 C2903 1.502 . S
C2905 H2891 0.960 . S
C2905 H2892 0.961 . S
C2905 H2893 0.959 . S
C2905 C2903 1.561 . S
C2906 C2903 1.526 . S
C2906 C2907 1.396 . S
C2906 C2911 1.390 . S
C2907 C2901 1.465 . S
C2907 C2906 1.396 . S
C2907 C2908 1.399 . S
C2908 H2894 0.929 . S
C2908 C2907 1.399 . S
C2908 C2909 1.385 . S
C2909 H2895 0.931 . S
C2909 C2908 1.385 . S
C2909 C2910 1.389 . S
C2910 C2909 1.389 . S
C2910 C2911 1.387 . S
C2911 H2896 0.930 . S
C2911 C2906 1.390 . S
C2911 C2910 1.387 . S
H2912 C2924 0.930 . S
H2913 C2926 0.930 . S
H2914 C2927 0.930 . S
H2915 C2931 0.959 . S
H2916 C2931 0.959 . S
H2917 C2931 0.961 . S
H2918 C2932 0.960 . S
H2919 C2932 0.961 . S
H2920 C2932 0.959 . S
H2921 C2935 0.929 . S
H2922 C2936 0.931 . S
H2923 C2938 0.930 . S
C2924 H2912 0.930 . S
C2924 C2925 1.399 . S
C2924 C2929 1.399 . S
C2925 C2924 1.399 . S
C2925 C2926 1.376 . S
C2926 H2913 0.930 . S
C2926 C2925 1.376 . S
C2926 C2927 1.388 . S
C2927 H2914 0.930 . S
C2927 C2926 1.388 . S
C2927 C2928 1.390 . S
C2928 C2927 1.390 . S
C2928 C2929 1.394 . S
C2928 C2934 1.465 . S
C2929 C2924 1.399 . S
C2929 C2928 1.394 . S
C2929 C2930 1.516 . S
C2930 C2929 1.516 . S
C2930 C2931 1.502 . S
C2930 C2932 1.561 . S
C2930 C2933 1.526 . S
C2931 H2915 0.959 . S
C2931 H2916 0.959 . S
C2931 H2917 0.961 . S
C2931 C2930 1.502 . S
C2932 H2918 0.960 . S
C2932 H2919 0.961 . S
C2932 H2920 0.959 . S
C2932 C2930 1.561 . S
C2933 C2930 1.526 . S
C2933 C2934 1.396 . S
C2933 C2938 1.390 . S
C2934 C2928 1.465 . S
C2934 C2933 1.396 . S
C2934 C2935 1.399 . S
C2935 H2921 0.929 . S
C2935 C2934 1.399 . S
C2935 C2936 1.385 . S
C2936 H2922 0.931 . S
C2936 C2935 1.385 . S
C2936 C2937 1.389 . S
C2937 C2936 1.389 . S
C2937 C2938 1.387 . S
C2938 H2923 0.930 . S
C2938 C2933 1.390 . S
C2938 C2937 1.387 . S
H2939 C2951 0.930 . S
H2940 C2953 0.930 . S
H2941 C2954 0.930 . S
H2942 C2958 0.959 . S
H2943 C2958 0.959 . S
H2944 C2958 0.961 . S
H2945 C2959 0.960 . S
H2946 C2959 0.961 . S
H2947 C2959 0.959 . S
H2948 C2962 0.929 . S
H2949 C2963 0.931 . S
H2950 C2965 0.930 . S
C2951 H2939 0.930 . S
C2951 C2952 1.399 . S
C2951 C2956 1.399 . S
C2952 C2951 1.399 . S
C2952 C2953 1.376 . S
C2953 H2940 0.930 . S
C2953 C2952 1.376 . S
C2953 C2954 1.388 . S
C2954 H2941 0.930 . S
C2954 C2953 1.388 . S
C2954 C2955 1.390 . S
C2955 C2954 1.390 . S
C2955 C2956 1.394 . S
C2955 C2961 1.465 . S
C2956 C2951 1.399 . S
C2956 C2955 1.394 . S
C2956 C2957 1.516 . S
C2957 C2956 1.516 . S
C2957 C2958 1.502 . S
C2957 C2959 1.561 . S
C2957 C2960 1.526 . S
C2958 H2942 0.959 . S
C2958 H2943 0.959 . S
C2958 H2944 0.961 . S
C2958 C2957 1.502 . S
C2959 H2945 0.960 . S
C2959 H2946 0.961 . S
C2959 H2947 0.959 . S
C2959 C2957 1.561 . S
C2960 C2957 1.526 . S
C2960 C2961 1.396 . S
C2960 C2965 1.390 . S
C2961 C2955 1.465 . S
C2961 C2960 1.396 . S
C2961 C2962 1.399 . S
C2962 H2948 0.929 . S
C2962 C2961 1.399 . S
C2962 C2963 1.385 . S
C2963 H2949 0.931 . S
C2963 C2962 1.385 . S
C2963 C2964 1.389 . S
C2964 C2963 1.389 . S
C2964 C2965 1.387 . S
C2965 H2950 0.930 . S
C2965 C2960 1.390 . S
C2965 C2964 1.387 . S
H2966 C2978 0.930 . S
H2967 C2980 0.930 . S
H2968 C2981 0.930 . S
H2969 C2985 0.959 . S
H2970 C2985 0.959 . S
H2971 C2985 0.961 . S
H2972 C2986 0.960 . S
H2973 C2986 0.961 . S
H2974 C2986 0.959 . S
H2975 C2989 0.929 . S
H2976 C2990 0.931 . S
H2977 C2992 0.930 . S
C2978 H2966 0.930 . S
C2978 C2979 1.399 . S
C2978 C2983 1.399 . S
C2979 C2978 1.399 . S
C2979 C2980 1.376 . S
C2980 H2967 0.930 . S
C2980 C2979 1.376 . S
C2980 C2981 1.388 . S
C2981 H2968 0.930 . S
C2981 C2980 1.388 . S
C2981 C2982 1.390 . S
C2982 C2981 1.390 . S
C2982 C2983 1.394 . S
C2982 C2988 1.465 . S
C2983 C2978 1.399 . S
C2983 C2982 1.394 . S
C2983 C2984 1.516 . S
C2984 C2983 1.516 . S
C2984 C2985 1.502 . S
C2984 C2986 1.561 . S
C2984 C2987 1.526 . S
C2985 H2969 0.959 . S
C2985 H2970 0.959 . S
C2985 H2971 0.961 . S
C2985 C2984 1.502 . S
C2986 H2972 0.960 . S
C2986 H2973 0.961 . S
C2986 H2974 0.959 . S
C2986 C2984 1.561 . S
C2987 C2984 1.526 . S
C2987 C2988 1.396 . S
C2987 C2992 1.390 . S
C2988 C2982 1.465 . S
C2988 C2987 1.396 . S
C2988 C2989 1.399 . S
C2989 H2975 0.929 . S
C2989 C2988 1.399 . S
C2989 C2990 1.385 . S
C2990 H2976 0.931 . S
C2990 C2989 1.385 . S
C2990 C2991 1.389 . S
C2991 C2990 1.389 . S
C2991 C2992 1.387 . S
C2992 H2977 0.930 . S
C2992 C2987 1.390 . S
C2992 C2991 1.387 . S
H2993 C3005 0.930 . S
H2994 C3007 0.930 . S
H2995 C3008 0.930 . S
H2996 C3012 0.959 . S
H2997 C3012 0.959 . S
H2998 C3012 0.961 . S
H2999 C3013 0.960 . S
H3000 C3013 0.961 . S
H3001 C3013 0.959 . S
H3002 C3016 0.929 . S
H3003 C3017 0.931 . S
H3004 C3019 0.930 . S
C3005 H2993 0.930 . S
C3005 C3006 1.399 . S
C3005 C3010 1.399 . S
C3006 C3005 1.399 . S
C3006 C3007 1.376 1_554 S
C3007 H2994 0.930 . S
C3007 C3006 1.376 1_556 S
C3007 C3008 1.388 . S
C3008 H2995 0.930 . S
C3008 C3007 1.388 . S
C3008 C3009 1.390 1_556 S
C3009 C3008 1.390 1_554 S
C3009 C3010 1.394 . S
C3009 C3015 1.465 . S
C3010 C3005 1.399 . S
C3010 C3009 1.394 . S
C3010 C3011 1.516 . S
C3011 C3010 1.516 . S
C3011 C3012 1.502 . S
C3011 C3013 1.561 . S
C3011 C3014 1.526 . S
C3012 H2996 0.959 . S
C3012 H2997 0.959 . S
C3012 H2998 0.961 . S
C3012 C3011 1.502 . S
C3013 H2999 0.960 . S
C3013 H3000 0.961 . S
C3013 H3001 0.959 . S
C3013 C3011 1.561 . S
C3014 C3011 1.526 . S
C3014 C3015 1.396 . S
C3014 C3019 1.390 . S
C3015 C3009 1.465 . S
C3015 C3014 1.396 . S
C3015 C3016 1.399 1_554 S
C3016 H3002 0.929 . S
C3016 C3015 1.399 1_556 S
C3016 C3017 1.385 . S
C3017 H3003 0.931 . S
C3017 C3016 1.385 . S
C3017 C3018 1.389 1_556 S
C3018 C3017 1.389 1_554 S
C3018 C3019 1.387 . S
C3019 H3004 0.930 . S
C3019 C3014 1.390 . S
C3019 C3018 1.387 . S
H3020 C3032 0.930 . S
H3021 C3034 0.930 . S
H3022 C3035 0.930 . S
H3023 C3039 0.959 . S
H3024 C3039 0.959 . S
H3025 C3039 0.961 . S
H3026 C3040 0.960 . S
H3027 C3040 0.961 . S
H3028 C3040 0.959 . S
H3029 C3043 0.929 . S
H3030 C3044 0.931 . S
H3031 C3046 0.930 . S
C3032 H3020 0.930 . S
C3032 C3033 1.399 . S
C3032 C3037 1.399 . S
C3033 C3032 1.399 . S
C3033 C3034 1.376 . S
C3034 H3021 0.930 . S
C3034 C3033 1.376 . S
C3034 C3035 1.388 . S
C3035 H3022 0.930 . S
C3035 C3034 1.388 . S
C3035 C3036 1.390 . S
C3036 C3035 1.390 . S
C3036 C3037 1.394 . S
C3036 C3042 1.465 . S
C3037 C3032 1.399 . S
C3037 C3036 1.394 . S
C3037 C3038 1.516 . S
C3038 C3037 1.516 . S
C3038 C3039 1.502 . S
C3038 C3040 1.561 . S
C3038 C3041 1.526 . S
C3039 H3023 0.959 . S
C3039 H3024 0.959 . S
C3039 H3025 0.961 . S
C3039 C3038 1.502 . S
C3040 H3026 0.960 . S
C3040 H3027 0.961 . S
C3040 H3028 0.959 . S
C3040 C3038 1.561 . S
C3041 C3038 1.526 . S
C3041 C3042 1.396 . S
C3041 C3046 1.390 . S
C3042 C3036 1.465 . S
C3042 C3041 1.396 . S
C3042 C3043 1.399 . S
C3043 H3029 0.929 . S
C3043 C3042 1.399 . S
C3043 C3044 1.385 . S
C3044 H3030 0.931 . S
C3044 C3043 1.385 . S
C3044 C3045 1.389 . S
C3045 C3044 1.389 . S
C3045 C3046 1.387 . S
C3046 H3031 0.930 . S
C3046 C3041 1.390 . S
C3046 C3045 1.387 . S
H3047 C3059 0.930 . S
H3048 C3061 0.930 . S
H3049 C3062 0.930 . S
H3050 C3066 0.959 1_554 S
H3051 C3066 0.959 . S
H3052 C3066 0.961 . S
H3053 C3067 0.960 . S
H3054 C3067 0.961 . S
H3055 C3067 0.959 . S
H3056 C3070 0.929 . S
H3057 C3071 0.931 . S
H3058 C3073 0.930 . S
C3059 H3047 0.930 . S
C3059 C3060 1.399 1_556 S
C3059 C3064 1.399 1_556 S
C3060 C3059 1.399 1_554 S
C3060 C3061 1.376 . S
C3061 H3048 0.930 . S
C3061 C3060 1.376 . S
C3061 C3062 1.388 . S
C3062 H3049 0.930 . S
C3062 C3061 1.388 . S
C3062 C3063 1.390 . S
C3063 C3062 1.390 . S
C3063 C3064 1.394 . S
C3063 C3069 1.465 . S
C3064 C3059 1.399 1_554 S
C3064 C3063 1.394 . S
C3064 C3065 1.516 1_554 S
C3065 C3064 1.516 1_556 S
C3065 C3066 1.502 . S
C3065 C3067 1.561 . S
C3065 C3068 1.526 1_556 S
C3066 H3050 0.959 1_556 S
C3066 H3051 0.959 . S
C3066 H3052 0.961 . S
C3066 C3065 1.502 . S
C3067 H3053 0.960 . S
C3067 H3054 0.961 . S
C3067 H3055 0.959 . S
C3067 C3065 1.561 . S
C3068 C3065 1.526 1_554 S
C3068 C3069 1.396 . S
C3068 C3073 1.390 . S
C3069 C3063 1.465 . S
C3069 C3068 1.396 . S
C3069 C3070 1.399 . S
C3070 H3056 0.929 . S
C3070 C3069 1.399 . S
C3070 C3071 1.385 . S
C3071 H3057 0.931 . S
C3071 C3070 1.385 . S
C3071 C3072 1.389 . S
C3072 C3071 1.389 . S
C3072 C3073 1.387 . S
C3073 H3058 0.930 . S
C3073 C3068 1.390 . S
C3073 C3072 1.387 . S
H3074 C3086 0.930 . S
H3075 C3088 0.930 . S
H3076 C3089 0.930 . S
H3077 C3093 0.959 . S
H3078 C3093 0.959 . S
H3079 C3093 0.961 . S
H3080 C3094 0.960 . S
H3081 C3094 0.961 . S
H3082 C3094 0.959 . S
H3083 C3097 0.929 . S
H3084 C3098 0.931 . S
H3085 C3100 0.930 . S
C3086 H3074 0.930 . S
C3086 C3087 1.399 . S
C3086 C3091 1.399 . S
C3087 C3086 1.399 . S
C3087 C3088 1.376 . S
C3088 H3075 0.930 . S
C3088 C3087 1.376 . S
C3088 C3089 1.388 . S
C3089 H3076 0.930 . S
C3089 C3088 1.388 . S
C3089 C3090 1.390 . S
C3090 C3089 1.390 . S
C3090 C3091 1.394 . S
C3090 C3096 1.465 . S
C3091 C3086 1.399 . S
C3091 C3090 1.394 . S
C3091 C3092 1.516 . S
C3092 C3091 1.516 . S
C3092 C3093 1.502 . S
C3092 C3094 1.561 . S
C3092 C3095 1.526 . S
C3093 H3077 0.959 . S
C3093 H3078 0.959 . S
C3093 H3079 0.961 . S
C3093 C3092 1.502 . S
C3094 H3080 0.960 . S
C3094 H3081 0.961 . S
C3094 H3082 0.959 . S
C3094 C3092 1.561 . S
C3095 C3092 1.526 . S
C3095 C3096 1.396 . S
C3095 C3100 1.390 . S
C3096 C3090 1.465 . S
C3096 C3095 1.396 . S
C3096 C3097 1.399 . S
C3097 H3083 0.929 . S
C3097 C3096 1.399 . S
C3097 C3098 1.385 . S
C3098 H3084 0.931 . S
C3098 C3097 1.385 . S
C3098 C3099 1.389 . S
C3099 C3098 1.389 . S
C3099 C3100 1.387 . S
C3100 H3085 0.930 . S
C3100 C3095 1.390 . S
C3100 C3099 1.387 . S
H3101 C3113 0.930 . S
H3102 C3115 0.930 . S
H3103 C3116 0.930 . S
H3104 C3120 0.959 . S
H3105 C3120 0.959 . S
H3106 C3120 0.961 . S
H3107 C3121 0.960 . S
H3108 C3121 0.961 . S
H3109 C3121 0.959 . S
H3110 C3124 0.929 . S
H3111 C3125 0.931 . S
H3112 C3127 0.930 . S
C3113 H3101 0.930 . S
C3113 C3114 1.399 . S
C3113 C3118 1.399 . S
C3114 C3113 1.399 . S
C3114 C3115 1.376 . S
C3115 H3102 0.930 . S
C3115 C3114 1.376 . S
C3115 C3116 1.388 . S
C3116 H3103 0.930 . S
C3116 C3115 1.388 . S
C3116 C3117 1.390 . S
C3117 C3116 1.390 . S
C3117 C3118 1.394 . S
C3117 C3123 1.465 . S
C3118 C3113 1.399 . S
C3118 C3117 1.394 . S
C3118 C3119 1.516 . S
C3119 C3118 1.516 . S
C3119 C3120 1.502 . S
C3119 C3121 1.561 . S
C3119 C3122 1.526 . S
C3120 H3104 0.959 . S
C3120 H3105 0.959 . S
C3120 H3106 0.961 . S
C3120 C3119 1.502 . S
C3121 H3107 0.960 . S
C3121 H3108 0.961 . S
C3121 H3109 0.959 . S
C3121 C3119 1.561 . S
C3122 C3119 1.526 . S
C3122 C3123 1.396 . S
C3122 C3127 1.390 . S
C3123 C3117 1.465 . S
C3123 C3122 1.396 . S
C3123 C3124 1.399 . S
C3124 H3110 0.929 . S
C3124 C3123 1.399 . S
C3124 C3125 1.385 . S
C3125 H3111 0.931 . S
C3125 C3124 1.385 . S
C3125 C3126 1.389 . S
C3126 C3125 1.389 . S
C3126 C3127 1.387 . S
C3127 H3112 0.930 . S
C3127 C3122 1.390 . S
C3127 C3126 1.387 . S
H3128 C3140 0.930 . S
H3129 C3142 0.930 . S
H3130 C3143 0.930 . S
H3131 C3147 0.959 . S
H3132 C3147 0.959 . S
H3133 C3147 0.961 . S
H3134 C3148 0.960 . S
H3135 C3148 0.961 . S
H3136 C3148 0.959 . S
H3137 C3151 0.929 . S
H3138 C3152 0.931 . S
H3139 C3154 0.930 . S
C3140 H3128 0.930 . S
C3140 C3141 1.399 . S
C3140 C3145 1.399 . S
C3141 C3140 1.399 . S
C3141 C3142 1.376 . S
C3142 H3129 0.930 . S
C3142 C3141 1.376 . S
C3142 C3143 1.388 . S
C3143 H3130 0.930 . S
C3143 C3142 1.388 . S
C3143 C3144 1.390 . S
C3144 C3143 1.390 . S
C3144 C3145 1.394 . S
C3144 C3150 1.465 . S
C3145 C3140 1.399 . S
C3145 C3144 1.394 . S
C3145 C3146 1.516 . S
C3146 C3145 1.516 . S
C3146 C3147 1.502 . S
C3146 C3148 1.561 . S
C3146 C3149 1.526 . S
C3147 H3131 0.959 . S
C3147 H3132 0.959 . S
C3147 H3133 0.961 . S
C3147 C3146 1.502 . S
C3148 H3134 0.960 . S
C3148 H3135 0.961 . S
C3148 H3136 0.959 . S
C3148 C3146 1.561 . S
C3149 C3146 1.526 . S
C3149 C3150 1.396 . S
C3149 C3154 1.390 . S
C3150 C3144 1.465 . S
C3150 C3149 1.396 . S
C3150 C3151 1.399 . S
C3151 H3137 0.929 . S
C3151 C3150 1.399 . S
C3151 C3152 1.385 . S
C3152 H3138 0.931 . S
C3152 C3151 1.385 . S
C3152 C3153 1.389 . S
C3153 C3152 1.389 . S
C3153 C3154 1.387 . S
C3154 H3139 0.930 . S
C3154 C3149 1.390 . S
C3154 C3153 1.387 . S
H3155 C3167 0.930 . S
H3156 C3169 0.930 . S
H3157 C3170 0.930 . S
H3158 C3174 0.959 . S
H3159 C3174 0.959 . S
H3160 C3174 0.961 . S
H3161 C3175 0.960 . S
H3162 C3175 0.961 . S
H3163 C3175 0.959 . S
H3164 C3178 0.929 . S
H3165 C3179 0.931 . S
H3166 C3181 0.930 . S
C3167 H3155 0.930 . S
C3167 C3168 1.399 . S
C3167 C3172 1.399 . S
C3168 C3167 1.399 . S
C3168 C3169 1.376 . S
C3169 H3156 0.930 . S
C3169 C3168 1.376 . S
C3169 C3170 1.388 . S
C3170 H3157 0.930 . S
C3170 C3169 1.388 . S
C3170 C3171 1.390 . S
C3171 C3170 1.390 . S
C3171 C3172 1.394 . S
C3171 C3177 1.465 . S
C3172 C3167 1.399 . S
C3172 C3171 1.394 . S
C3172 C3173 1.516 . S
C3173 C3172 1.516 . S
C3173 C3174 1.502 . S
C3173 C3175 1.561 . S
C3173 C3176 1.526 . S
C3174 H3158 0.959 . S
C3174 H3159 0.959 . S
C3174 H3160 0.961 . S
C3174 C3173 1.502 . S
C3175 H3161 0.960 . S
C3175 H3162 0.961 . S
C3175 H3163 0.959 . S
C3175 C3173 1.561 . S
C3176 C3173 1.526 . S
C3176 C3177 1.396 . S
C3176 C3181 1.390 . S
C3177 C3171 1.465 . S
C3177 C3176 1.396 . S
C3177 C3178 1.399 . S
C3178 H3164 0.929 . S
C3178 C3177 1.399 . S
C3178 C3179 1.385 . S
C3179 H3165 0.931 . S
C3179 C3178 1.385 . S
C3179 C3180 1.389 . S
C3180 C3179 1.389 . S
C3180 C3181 1.387 . S
C3181 H3166 0.930 . S
C3181 C3176 1.390 . S
C3181 C3180 1.387 . S
H3182 C3194 0.930 . S
H3183 C3196 0.930 . S
H3184 C3197 0.930 . S
H3185 C3201 0.959 . S
H3186 C3201 0.959 . S
H3187 C3201 0.961 . S
H3188 C3202 0.960 . S
H3189 C3202 0.961 . S
H3190 C3202 0.959 . S
H3191 C3205 0.929 . S
H3192 C3206 0.931 . S
H3193 C3208 0.930 . S
C3194 H3182 0.930 . S
C3194 C3195 1.399 . S
C3194 C3199 1.399 . S
C3195 C3194 1.399 . S
C3195 C3196 1.376 . S
C3196 H3183 0.930 . S
C3196 C3195 1.376 . S
C3196 C3197 1.388 . S
C3197 H3184 0.930 . S
C3197 C3196 1.388 . S
C3197 C3198 1.390 . S
C3198 C3197 1.390 . S
C3198 C3199 1.394 . S
C3198 C3204 1.465 . S
C3199 C3194 1.399 . S
C3199 C3198 1.394 . S
C3199 C3200 1.516 . S
C3200 C3199 1.516 . S
C3200 C3201 1.502 1_455 S
C3200 C3202 1.561 . S
C3200 C3203 1.526 . S
C3201 H3185 0.959 . S
C3201 H3186 0.959 . S
C3201 H3187 0.961 . S
C3201 C3200 1.502 1_655 S
C3202 H3188 0.960 . S
C3202 H3189 0.961 . S
C3202 H3190 0.959 . S
C3202 C3200 1.561 . S
C3203 C3200 1.526 . S
C3203 C3204 1.396 . S
C3203 C3208 1.390 . S
C3204 C3198 1.465 . S
C3204 C3203 1.396 . S
C3204 C3205 1.399 . S
C3205 H3191 0.929 . S
C3205 C3204 1.399 . S
C3205 C3206 1.385 . S
C3206 H3192 0.931 . S
C3206 C3205 1.385 . S
C3206 C3207 1.389 . S
C3207 C3206 1.389 . S
C3207 C3208 1.387 . S
C3208 H3193 0.930 . S
C3208 C3203 1.390 . S
C3208 C3207 1.387 . S
H3209 C3221 0.930 . S
H3210 C3223 0.930 . S
H3211 C3224 0.930 . S
H3212 C3228 0.959 . S
H3213 C3228 0.959 . S
H3214 C3228 0.961 . S
H3215 C3229 0.960 . S
H3216 C3229 0.961 . S
H3217 C3229 0.959 . S
H3218 C3232 0.929 . S
H3219 C3233 0.931 . S
H3220 C3235 0.930 . S
C3221 H3209 0.930 . S
C3221 C3222 1.399 . S
C3221 C3226 1.399 . S
C3222 C3221 1.399 . S
C3222 C3223 1.376 . S
C3223 H3210 0.930 . S
C3223 C3222 1.376 . S
C3223 C3224 1.388 . S
C3224 H3211 0.930 . S
C3224 C3223 1.388 . S
C3224 C3225 1.390 . S
C3225 C3224 1.390 . S
C3225 C3226 1.394 . S
C3225 C3231 1.465 . S
C3226 C3221 1.399 . S
C3226 C3225 1.394 . S
C3226 C3227 1.516 . S
C3227 C3226 1.516 . S
C3227 C3228 1.502 . S
C3227 C3229 1.561 . S
C3227 C3230 1.526 . S
C3228 H3212 0.959 . S
C3228 H3213 0.959 . S
C3228 H3214 0.961 . S
C3228 C3227 1.502 . S
C3229 H3215 0.960 . S
C3229 H3216 0.961 . S
C3229 H3217 0.959 . S
C3229 C3227 1.561 . S
C3230 C3227 1.526 . S
C3230 C3231 1.396 . S
C3230 C3235 1.390 . S
C3231 C3225 1.465 . S
C3231 C3230 1.396 . S
C3231 C3232 1.399 . S
C3232 H3218 0.929 . S
C3232 C3231 1.399 . S
C3232 C3233 1.385 . S
C3233 H3219 0.931 . S
C3233 C3232 1.385 . S
C3233 C3234 1.389 . S
C3234 C3233 1.389 . S
C3234 C3235 1.387 . S
C3235 H3220 0.930 . S
C3235 C3230 1.390 . S
C3235 C3234 1.387 . S
H3236 C3248 0.930 . S
H3237 C3250 0.930 . S
H3238 C3251 0.930 . S
H3239 C3255 0.959 . S
H3240 C3255 0.959 . S
H3241 C3255 0.961 . S
H3242 C3256 0.960 . S
H3243 C3256 0.961 . S
H3244 C3256 0.959 . S
H3245 C3259 0.929 . S
H3246 C3260 0.931 . S
H3247 C3262 0.930 1_554 S
C3248 H3236 0.930 . S
C3248 C3249 1.399 . S
C3248 C3253 1.399 . S
C3249 C3248 1.399 . S
C3249 C3250 1.376 . S
C3250 H3237 0.930 . S
C3250 C3249 1.376 . S
C3250 C3251 1.388 . S
C3251 H3238 0.930 . S
C3251 C3250 1.388 . S
C3251 C3252 1.390 . S
C3252 C3251 1.390 . S
C3252 C3253 1.394 . S
C3252 C3258 1.465 . S
C3253 C3248 1.399 . S
C3253 C3252 1.394 . S
C3253 C3254 1.516 . S
C3254 C3253 1.516 . S
C3254 C3255 1.502 . S
C3254 C3256 1.561 1_556 S
C3254 C3257 1.526 . S
C3255 H3239 0.959 . S
C3255 H3240 0.959 . S
C3255 H3241 0.961 . S
C3255 C3254 1.502 . S
C3256 H3242 0.960 . S
C3256 H3243 0.961 . S
C3256 H3244 0.959 . S
C3256 C3254 1.561 1_554 S
C3257 C3254 1.526 . S
C3257 C3258 1.396 . S
C3257 C3262 1.390 . S
C3258 C3252 1.465 . S
C3258 C3257 1.396 . S
C3258 C3259 1.399 . S
C3259 H3245 0.929 . S
C3259 C3258 1.399 . S
C3259 C3260 1.385 . S
C3260 H3246 0.931 . S
C3260 C3259 1.385 . S
C3260 C3261 1.389 . S
C3261 C3260 1.389 . S
C3261 C3262 1.387 . S
C3262 H3247 0.930 1_556 S
C3262 C3257 1.390 . S
C3262 C3261 1.387 . S
H3263 C3275 0.930 . S
H3264 C3277 0.930 . S
H3265 C3278 0.930 . S
H3266 C3282 0.959 . S
H3267 C3282 0.959 . S
H3268 C3282 0.961 . S
H3269 C3283 0.960 . S
H3270 C3283 0.961 . S
H3271 C3283 0.959 . S
H3272 C3286 0.929 . S
H3273 C3287 0.931 . S
H3274 C3289 0.930 . S
C3275 H3263 0.930 . S
C3275 C3276 1.399 . S
C3275 C3280 1.399 . S
C3276 C3275 1.399 . S
C3276 C3277 1.376 . S
C3277 H3264 0.930 . S
C3277 C3276 1.376 . S
C3277 C3278 1.388 . S
C3278 H3265 0.930 . S
C3278 C3277 1.388 . S
C3278 C3279 1.390 . S
C3279 C3278 1.390 . S
C3279 C3280 1.394 . S
C3279 C3285 1.465 . S
C3280 C3275 1.399 . S
C3280 C3279 1.394 . S
C3280 C3281 1.516 . S
C3281 C3280 1.516 . S
C3281 C3282 1.502 . S
C3281 C3283 1.561 . S
C3281 C3284 1.526 . S
C3282 H3266 0.959 . S
C3282 H3267 0.959 . S
C3282 H3268 0.961 . S
C3282 C3281 1.502 . S
C3283 H3269 0.960 . S
C3283 H3270 0.961 . S
C3283 H3271 0.959 . S
C3283 C3281 1.561 . S
C3284 C3281 1.526 . S
C3284 C3285 1.396 . S
C3284 C3289 1.390 . S
C3285 C3279 1.465 . S
C3285 C3284 1.396 . S
C3285 C3286 1.399 . S
C3286 H3272 0.929 . S
C3286 C3285 1.399 . S
C3286 C3287 1.385 . S
C3287 H3273 0.931 . S
C3287 C3286 1.385 . S
C3287 C3288 1.389 . S
C3288 C3287 1.389 . S
C3288 C3289 1.387 . S
C3289 H3274 0.930 . S
C3289 C3284 1.390 . S
C3289 C3288 1.387 . S
H3290 C3302 0.930 1_655 S
H3291 C3304 0.930 . S
H3292 C3305 0.930 . S
H3293 C3309 0.959 . S
H3294 C3309 0.959 . S
H3295 C3309 0.961 . S
H3296 C3310 0.960 . S
H3297 C3310 0.961 . S
H3298 C3310 0.959 1_455 S
H3299 C3313 0.929 . S
H3300 C3314 0.931 . S
H3301 C3316 0.930 1_655 S
C3302 H3290 0.930 1_455 S
C3302 C3303 1.399 . S
C3302 C3307 1.399 . S
C3303 C3302 1.399 . S
C3303 C3304 1.376 . S
C3304 H3291 0.930 . S
C3304 C3303 1.376 . S
C3304 C3305 1.388 . S
C3305 H3292 0.930 . S
C3305 C3304 1.388 . S
C3305 C3306 1.390 . S
C3306 C3305 1.390 . S
C3306 C3307 1.394 . S
C3306 C3312 1.465 . S
C3307 C3302 1.399 . S
C3307 C3306 1.394 . S
C3307 C3308 1.516 1_455 S
C3308 C3307 1.516 1_655 S
C3308 C3309 1.502 . S
C3308 C3310 1.561 . S
C3308 C3311 1.526 1_655 S
C3309 H3293 0.959 . S
C3309 H3294 0.959 . S
C3309 H3295 0.961 . S
C3309 C3308 1.502 . S
C3310 H3296 0.960 . S
C3310 H3297 0.961 . S
C3310 H3298 0.959 1_655 S
C3310 C3308 1.561 . S
C3311 C3308 1.526 1_455 S
C3311 C3312 1.396 . S
C3311 C3316 1.390 . S
C3312 C3306 1.465 . S
C3312 C3311 1.396 . S
C3312 C3313 1.399 . S
C3313 H3299 0.929 . S
C3313 C3312 1.399 . S
C3313 C3314 1.385 . S
C3314 H3300 0.931 . S
C3314 C3313 1.385 . S
C3314 C3315 1.389 . S
C3315 C3314 1.389 . S
C3315 C3316 1.387 . S
C3316 H3301 0.930 1_455 S
C3316 C3311 1.390 . S
C3316 C3315 1.387 . S
H3317 C3329 0.930 . S
H3318 C3331 0.930 . S
H3319 C3332 0.930 . S
H3320 C3336 0.959 . S
H3321 C3336 0.959 . S
H3322 C3336 0.961 . S
H3323 C3337 0.960 . S
H3324 C3337 0.961 . S
H3325 C3337 0.959 . S
H3326 C3340 0.929 . S
H3327 C3341 0.931 . S
H3328 C3343 0.930 . S
C3329 H3317 0.930 . S
C3329 C3330 1.399 . S
C3329 C3334 1.399 . S
C3330 C3329 1.399 . S
C3330 C3331 1.376 . S
C3331 H3318 0.930 . S
C3331 C3330 1.376 . S
C3331 C3332 1.388 . S
C3332 H3319 0.930 . S
C3332 C3331 1.388 . S
C3332 C3333 1.390 . S
C3333 C3332 1.390 . S
C3333 C3334 1.394 . S
C3333 C3339 1.465 . S
C3334 C3329 1.399 . S
C3334 C3333 1.394 . S
C3334 C3335 1.516 . S
C3335 C3334 1.516 . S
C3335 C3336 1.502 . S
C3335 C3337 1.561 . S
C3335 C3338 1.526 . S
C3336 H3320 0.959 . S
C3336 H3321 0.959 . S
C3336 H3322 0.961 . S
C3336 C3335 1.502 . S
C3337 H3323 0.960 . S
C3337 H3324 0.961 . S
C3337 H3325 0.959 . S
C3337 C3335 1.561 . S
C3338 C3335 1.526 . S
C3338 C3339 1.396 . S
C3338 C3343 1.390 . S
C3339 C3333 1.465 . S
C3339 C3338 1.396 . S
C3339 C3340 1.399 . S
C3340 H3326 0.929 . S
C3340 C3339 1.399 . S
C3340 C3341 1.385 . S
C3341 H3327 0.931 . S
C3341 C3340 1.385 . S
C3341 C3342 1.389 . S
C3342 C3341 1.389 . S
C3342 C3343 1.387 . S
C3343 H3328 0.930 . S
C3343 C3338 1.390 . S
C3343 C3342 1.387 . S
H3344 C3356 0.930 . S
H3345 C3358 0.930 . S
H3346 C3359 0.930 . S
H3347 C3363 0.959 . S
H3348 C3363 0.959 . S
H3349 C3363 0.961 . S
H3350 C3364 0.960 . S
H3351 C3364 0.961 . S
H3352 C3364 0.959 . S
H3353 C3367 0.929 . S
H3354 C3368 0.931 . S
H3355 C3370 0.930 . S
C3356 H3344 0.930 . S
C3356 C3357 1.399 . S
C3356 C3361 1.399 . S
C3357 C3356 1.399 . S
C3357 C3358 1.376 . S
C3358 H3345 0.930 . S
C3358 C3357 1.376 . S
C3358 C3359 1.388 . S
C3359 H3346 0.930 . S
C3359 C3358 1.388 . S
C3359 C3360 1.390 . S
C3360 C3359 1.390 . S
C3360 C3361 1.394 . S
C3360 C3366 1.465 . S
C3361 C3356 1.399 . S
C3361 C3360 1.394 . S
C3361 C3362 1.516 . S
C3362 C3361 1.516 . S
C3362 C3363 1.502 . S
C3362 C3364 1.561 . S
C3362 C3365 1.526 . S
C3363 H3347 0.959 . S
C3363 H3348 0.959 . S
C3363 H3349 0.961 . S
C3363 C3362 1.502 . S
C3364 H3350 0.960 . S
C3364 H3351 0.961 . S
C3364 H3352 0.959 . S
C3364 C3362 1.561 . S
C3365 C3362 1.526 . S
C3365 C3366 1.396 . S
C3365 C3370 1.390 . S
C3366 C3360 1.465 . S
C3366 C3365 1.396 . S
C3366 C3367 1.399 . S
C3367 H3353 0.929 . S
C3367 C3366 1.399 . S
C3367 C3368 1.385 . S
C3368 H3354 0.931 . S
C3368 C3367 1.385 . S
C3368 C3369 1.389 . S
C3369 C3368 1.389 . S
C3369 C3370 1.387 . S
C3370 H3355 0.930 . S
C3370 C3365 1.390 . S
C3370 C3369 1.387 . S
H3371 C3383 0.930 . S
H3372 C3385 0.930 . S
H3373 C3386 0.930 . S
H3374 C3390 0.959 . S
H3375 C3390 0.959 . S
H3376 C3390 0.961 . S
H3377 C3391 0.960 . S
H3378 C3391 0.961 . S
H3379 C3391 0.959 . S
H3380 C3394 0.929 . S
H3381 C3395 0.931 . S
H3382 C3397 0.930 . S
C3383 H3371 0.930 . S
C3383 C3384 1.399 . S
C3383 C3388 1.399 . S
C3384 C3383 1.399 . S
C3384 C3385 1.376 . S
C3385 H3372 0.930 . S
C3385 C3384 1.376 . S
C3385 C3386 1.388 . S
C3386 H3373 0.930 . S
C3386 C3385 1.388 . S
C3386 C3387 1.390 . S
C3387 C3386 1.390 . S
C3387 C3388 1.394 . S
C3387 C3393 1.465 . S
C3388 C3383 1.399 . S
C3388 C3387 1.394 . S
C3388 C3389 1.516 . S
C3389 C3388 1.516 . S
C3389 C3390 1.502 . S
C3389 C3391 1.561 . S
C3389 C3392 1.526 . S
C3390 H3374 0.959 . S
C3390 H3375 0.959 . S
C3390 H3376 0.961 . S
C3390 C3389 1.502 . S
C3391 H3377 0.960 . S
C3391 H3378 0.961 . S
C3391 H3379 0.959 . S
C3391 C3389 1.561 . S
C3392 C3389 1.526 . S
C3392 C3393 1.396 . S
C3392 C3397 1.390 . S
C3393 C3387 1.465 . S
C3393 C3392 1.396 . S
C3393 C3394 1.399 . S
C3394 H3380 0.929 . S
C3394 C3393 1.399 . S
C3394 C3395 1.385 . S
C3395 H3381 0.931 . S
C3395 C3394 1.385 . S
C3395 C3396 1.389 . S
C3396 C3395 1.389 . S
C3396 C3397 1.387 . S
C3397 H3382 0.930 . S
C3397 C3392 1.390 . S
C3397 C3396 1.387 . S
H3398 C3410 0.930 . S
H3399 C3412 0.930 . S
H3400 C3413 0.930 . S
H3401 C3417 0.959 . S
H3402 C3417 0.959 . S
H3403 C3417 0.961 . S
H3404 C3418 0.960 . S
H3405 C3418 0.961 . S
H3406 C3418 0.959 . S
H3407 C3421 0.929 . S
H3408 C3422 0.931 . S
H3409 C3424 0.930 . S
C3410 H3398 0.930 . S
C3410 C3411 1.399 . S
C3410 C3415 1.399 . S
C3411 C3410 1.399 . S
C3411 C3412 1.376 . S
C3412 H3399 0.930 . S
C3412 C3411 1.376 . S
C3412 C3413 1.388 . S
C3413 H3400 0.930 . S
C3413 C3412 1.388 . S
C3413 C3414 1.390 . S
C3414 C3413 1.390 . S
C3414 C3415 1.394 . S
C3414 C3420 1.465 . S
C3415 C3410 1.399 . S
C3415 C3414 1.394 . S
C3415 C3416 1.516 . S
C3416 C3415 1.516 . S
C3416 C3417 1.502 . S
C3416 C3418 1.561 . S
C3416 C3419 1.526 . S
C3417 H3401 0.959 . S
C3417 H3402 0.959 . S
C3417 H3403 0.961 . S
C3417 C3416 1.502 . S
C3418 H3404 0.960 . S
C3418 H3405 0.961 . S
C3418 H3406 0.959 . S
C3418 C3416 1.561 . S
C3419 C3416 1.526 . S
C3419 C3420 1.396 . S
C3419 C3424 1.390 . S
C3420 C3414 1.465 . S
C3420 C3419 1.396 . S
C3420 C3421 1.399 . S
C3421 H3407 0.929 . S
C3421 C3420 1.399 . S
C3421 C3422 1.385 . S
C3422 H3408 0.931 . S
C3422 C3421 1.385 . S
C3422 C3423 1.389 . S
C3423 C3422 1.389 . S
C3423 C3424 1.387 . S
C3424 H3409 0.930 . S
C3424 C3419 1.390 . S
C3424 C3423 1.387 . S
H3425 C3437 0.930 . S
H3426 C3439 0.930 . S
H3427 C3440 0.930 . S
H3428 C3444 0.959 . S
H3429 C3444 0.959 . S
H3430 C3444 0.961 . S
H3431 C3445 0.960 . S
H3432 C3445 0.961 . S
H3433 C3445 0.959 . S
H3434 C3448 0.929 . S
H3435 C3449 0.931 . S
H3436 C3451 0.930 . S
C3437 H3425 0.930 . S
C3437 C3438 1.399 . S
C3437 C3442 1.399 . S
C3438 C3437 1.399 . S
C3438 C3439 1.376 . S
C3439 H3426 0.930 . S
C3439 C3438 1.376 . S
C3439 C3440 1.388 . S
C3440 H3427 0.930 . S
C3440 C3439 1.388 . S
C3440 C3441 1.390 . S
C3441 C3440 1.390 . S
C3441 C3442 1.394 . S
C3441 C3447 1.465 . S
C3442 C3437 1.399 . S
C3442 C3441 1.394 . S
C3442 C3443 1.516 . S
C3443 C3442 1.516 . S
C3443 C3444 1.502 . S
C3443 C3445 1.561 . S
C3443 C3446 1.526 . S
C3444 H3428 0.959 . S
C3444 H3429 0.959 . S
C3444 H3430 0.961 . S
C3444 C3443 1.502 . S
C3445 H3431 0.960 . S
C3445 H3432 0.961 . S
C3445 H3433 0.959 . S
C3445 C3443 1.561 . S
C3446 C3443 1.526 . S
C3446 C3447 1.396 . S
C3446 C3451 1.390 . S
C3447 C3441 1.465 . S
C3447 C3446 1.396 . S
C3447 C3448 1.399 . S
C3448 H3434 0.929 . S
C3448 C3447 1.399 . S
C3448 C3449 1.385 . S
C3449 H3435 0.931 . S
C3449 C3448 1.385 . S
C3449 C3450 1.389 . S
C3450 C3449 1.389 . S
C3450 C3451 1.387 . S
C3451 H3436 0.930 . S
C3451 C3446 1.390 . S
C3451 C3450 1.387 . S
H3452 C3464 0.930 . S
H3453 C3466 0.930 . S
H3454 C3467 0.930 . S
H3455 C3471 0.959 . S
H3456 C3471 0.959 . S
H3457 C3471 0.961 . S
H3458 C3472 0.960 . S
H3459 C3472 0.961 . S
H3460 C3472 0.959 . S
H3461 C3475 0.929 . S
H3462 C3476 0.931 . S
H3463 C3478 0.930 . S
C3464 H3452 0.930 . S
C3464 C3465 1.399 . S
C3464 C3469 1.399 . S
C3465 C3464 1.399 . S
C3465 C3466 1.376 . S
C3466 H3453 0.930 . S
C3466 C3465 1.376 . S
C3466 C3467 1.388 . S
C3467 H3454 0.930 . S
C3467 C3466 1.388 . S
C3467 C3468 1.390 . S
C3468 C3467 1.390 . S
C3468 C3469 1.394 . S
C3468 C3474 1.465 . S
C3469 C3464 1.399 . S
C3469 C3468 1.394 . S
C3469 C3470 1.516 . S
C3470 C3469 1.516 . S
C3470 C3471 1.502 . S
C3470 C3472 1.561 . S
C3470 C3473 1.526 . S
C3471 H3455 0.959 . S
C3471 H3456 0.959 . S
C3471 H3457 0.961 . S
C3471 C3470 1.502 . S
C3472 H3458 0.960 . S
C3472 H3459 0.961 . S
C3472 H3460 0.959 . S
C3472 C3470 1.561 . S
C3473 C3470 1.526 . S
C3473 C3474 1.396 . S
C3473 C3478 1.390 . S
C3474 C3468 1.465 . S
C3474 C3473 1.396 . S
C3474 C3475 1.399 . S
C3475 H3461 0.929 . S
C3475 C3474 1.399 . S
C3475 C3476 1.385 . S
C3476 H3462 0.931 . S
C3476 C3475 1.385 . S
C3476 C3477 1.389 . S
C3477 C3476 1.389 . S
C3477 C3478 1.387 . S
C3478 H3463 0.930 . S
C3478 C3473 1.390 . S
C3478 C3477 1.387 . S
H3479 C3491 0.930 . S
H3480 C3493 0.930 . S
H3481 C3494 0.930 . S
H3482 C3498 0.959 . S
H3483 C3498 0.959 . S
H3484 C3498 0.961 . S
H3485 C3499 0.960 . S
H3486 C3499 0.961 . S
H3487 C3499 0.959 . S
H3488 C3502 0.929 . S
H3489 C3503 0.931 . S
H3490 C3505 0.930 . S
C3491 H3479 0.930 . S
C3491 C3492 1.399 . S
C3491 C3496 1.399 . S
C3492 C3491 1.399 . S
C3492 C3493 1.376 . S
C3493 H3480 0.930 . S
C3493 C3492 1.376 . S
C3493 C3494 1.388 . S
C3494 H3481 0.930 . S
C3494 C3493 1.388 . S
C3494 C3495 1.390 . S
C3495 C3494 1.390 . S
C3495 C3496 1.394 . S
C3495 C3501 1.465 . S
C3496 C3491 1.399 . S
C3496 C3495 1.394 . S
C3496 C3497 1.516 . S
C3497 C3496 1.516 . S
C3497 C3498 1.502 . S
C3497 C3499 1.561 . S
C3497 C3500 1.526 . S
C3498 H3482 0.959 . S
C3498 H3483 0.959 . S
C3498 H3484 0.961 . S
C3498 C3497 1.502 . S
C3499 H3485 0.960 . S
C3499 H3486 0.961 . S
C3499 H3487 0.959 . S
C3499 C3497 1.561 . S
C3500 C3497 1.526 . S
C3500 C3501 1.396 . S
C3500 C3505 1.390 . S
C3501 C3495 1.465 . S
C3501 C3500 1.396 . S
C3501 C3502 1.399 . S
C3502 H3488 0.929 . S
C3502 C3501 1.399 . S
C3502 C3503 1.385 . S
C3503 H3489 0.931 . S
C3503 C3502 1.385 . S
C3503 C3504 1.389 . S
C3504 C3503 1.389 . S
C3504 C3505 1.387 . S
C3505 H3490 0.930 . S
C3505 C3500 1.390 . S
C3505 C3504 1.387 . S
H3506 C3518 0.930 . S
H3507 C3520 0.930 . S
H3508 C3521 0.930 . S
H3509 C3525 0.959 . S
H3510 C3525 0.959 . S
H3511 C3525 0.961 . S
H3512 C3526 0.960 . S
H3513 C3526 0.961 . S
H3514 C3526 0.959 . S
H3515 C3529 0.929 . S
H3516 C3530 0.907 1_455 S
H3517 C3532 0.930 . S
C3518 H3506 0.930 . S
C3518 C3519 1.399 . S
C3518 C3523 1.399 . S
C3519 C3518 1.399 . S
C3519 C3520 1.376 . S
C3520 H3507 0.930 . S
C3520 C3519 1.376 . S
C3520 C3521 1.388 . S
C3521 H3508 0.930 . S
C3521 C3520 1.388 . S
C3521 C3522 1.390 . S
C3522 C3521 1.390 . S
C3522 C3523 1.394 . S
C3522 C3528 1.465 . S
C3523 C3518 1.399 . S
C3523 C3522 1.394 . S
C3523 C3524 1.516 . S
C3524 C3523 1.516 . S
C3524 C3525 1.502 . S
C3524 C3526 1.561 . S
C3524 C3527 1.526 . S
C3525 H3509 0.959 . S
C3525 H3510 0.959 . S
C3525 H3511 0.961 . S
C3525 C3524 1.502 . S
C3526 H3512 0.960 . S
C3526 H3513 0.961 . S
C3526 H3514 0.959 . S
C3526 C3524 1.561 . S
C3527 C3524 1.526 . S
C3527 C3528 1.396 . S
C3527 C3532 1.390 . S
C3528 C3522 1.465 . S
C3528 C3527 1.396 . S
C3528 C3529 1.399 . S
C3529 H3515 0.929 . S
C3529 C3528 1.399 . S
C3529 C3530 1.385 . S
C3530 H3516 0.907 1_655 S
C3530 C3529 1.385 . S
C3530 C3531 1.389 . S
C3531 C3530 1.389 . S
C3531 C3532 1.387 . S
C3532 H3517 0.930 . S
C3532 C3527 1.390 . S
C3532 C3531 1.387 . S
H3533 C3545 0.930 . S
H3534 C3547 0.930 . S
H3535 C3548 0.930 . S
H3536 C3552 0.959 . S
H3537 C3552 0.959 . S
H3538 C3552 0.961 . S
H3539 C3553 0.960 . S
H3540 C3553 0.961 . S
H3541 C3553 0.959 . S
H3542 C3556 0.929 . S
H3543 C3557 0.931 . S
H3544 C3559 0.930 . S
C3545 H3533 0.930 . S
C3545 C3546 1.399 . S
C3545 C3550 1.399 . S
C3546 C3545 1.399 . S
C3546 C3547 1.376 . S
C3547 H3534 0.930 . S
C3547 C3546 1.376 . S
C3547 C3548 1.388 . S
C3548 H3535 0.930 . S
C3548 C3547 1.388 . S
C3548 C3549 1.390 . S
C3549 C3548 1.390 . S
C3549 C3550 1.394 . S
C3549 C3555 1.465 . S
C3550 C3545 1.399 . S
C3550 C3549 1.394 . S
C3550 C3551 1.516 . S
C3551 C3550 1.516 . S
C3551 C3552 1.502 . S
C3551 C3553 1.561 . S
C3551 C3554 1.526 . S
C3552 H3536 0.959 . S
C3552 H3537 0.959 . S
C3552 H3538 0.961 . S
C3552 C3551 1.502 . S
C3553 H3539 0.960 . S
C3553 H3540 0.961 . S
C3553 H3541 0.959 . S
C3553 C3551 1.561 . S
C3554 C3551 1.526 . S
C3554 C3555 1.396 . S
C3554 C3559 1.390 . S
C3555 C3549 1.465 . S
C3555 C3554 1.396 . S
C3555 C3556 1.399 . S
C3556 H3542 0.929 . S
C3556 C3555 1.399 . S
C3556 C3557 1.385 . S
C3557 H3543 0.931 . S
C3557 C3556 1.385 . S
C3557 C3558 1.389 . S
C3558 C3557 1.389 . S
C3558 C3559 1.387 . S
C3559 H3544 0.930 . S
C3559 C3554 1.390 . S
C3559 C3558 1.387 . S
H3560 C3572 0.930 . S
H3561 C3574 0.930 . S
H3562 C3575 0.930 . S
H3563 C3579 0.959 . S
H3564 C3579 0.959 . S
H3565 C3579 0.961 . S
H3566 C3580 0.960 . S
H3567 C3580 0.961 . S
H3568 C3580 0.959 . S
H3569 C3583 0.929 . S
H3570 C3584 0.931 . S
H3571 C3586 0.930 . S
C3572 H3560 0.930 . S
C3572 C3573 1.399 . S
C3572 C3577 1.399 . S
C3573 C3572 1.399 . S
C3573 C3574 1.376 . S
C3574 H3561 0.930 . S
C3574 C3573 1.376 . S
C3574 C3575 1.388 . S
C3575 H3562 0.930 . S
C3575 C3574 1.388 . S
C3575 C3576 1.390 . S
C3576 C3575 1.390 . S
C3576 C3577 1.394 . S
C3576 C3582 1.465 . S
C3577 C3572 1.399 . S
C3577 C3576 1.394 . S
C3577 C3578 1.516 . S
C3578 C3577 1.516 . S
C3578 C3579 1.502 . S
C3578 C3580 1.561 . S
C3578 C3581 1.526 . S
C3579 H3563 0.959 . S
C3579 H3564 0.959 . S
C3579 H3565 0.961 . S
C3579 C3578 1.502 . S
C3580 H3566 0.960 . S
C3580 H3567 0.961 . S
C3580 H3568 0.959 . S
C3580 C3578 1.561 . S
C3581 C3578 1.526 . S
C3581 C3582 1.396 . S
C3581 C3586 1.390 . S
C3582 C3576 1.465 . S
C3582 C3581 1.396 . S
C3582 C3583 1.399 . S
C3583 H3569 0.929 . S
C3583 C3582 1.399 . S
C3583 C3584 1.385 . S
C3584 H3570 0.931 . S
C3584 C3583 1.385 . S
C3584 C3585 1.389 . S
C3585 C3584 1.389 . S
C3585 C3586 1.387 . S
C3586 H3571 0.930 . S
C3586 C3581 1.390 . S
C3586 C3585 1.387 . S
H3587 C3599 0.930 . S
H3588 C3601 0.930 . S
H3589 C3602 0.930 . S
H3590 C3606 0.959 . S
H3591 C3606 0.959 . S
H3592 C3606 0.961 . S
H3593 C3607 0.960 . S
H3594 C3607 0.961 . S
H3595 C3607 0.959 . S
H3596 C3610 0.929 . S
H3597 C3611 0.931 1_545 S
H3598 C3613 0.930 . S
C3599 H3587 0.930 . S
C3599 C3600 1.399 . S
C3599 C3604 1.399 . S
C3600 C3599 1.399 . S
C3600 C3601 1.376 . S
C3601 H3588 0.930 . S
C3601 C3600 1.376 . S
C3601 C3602 1.388 . S
C3602 H3589 0.930 . S
C3602 C3601 1.388 . S
C3602 C3603 1.390 . S
C3603 C3602 1.390 . S
C3603 C3604 1.394 . S
C3603 C3609 1.465 . S
C3604 C3599 1.399 . S
C3604 C3603 1.394 . S
C3604 C3605 1.516 . S
C3605 C3604 1.516 . S
C3605 C3606 1.502 . S
C3605 C3607 1.561 . S
C3605 C3608 1.526 . S
C3606 H3590 0.959 . S
C3606 H3591 0.959 . S
C3606 H3592 0.961 . S
C3606 C3605 1.502 . S
C3607 H3593 0.960 . S
C3607 H3594 0.961 . S
C3607 H3595 0.959 . S
C3607 C3605 1.561 . S
C3608 C3605 1.526 . S
C3608 C3609 1.396 . S
C3608 C3613 1.390 . S
C3609 C3603 1.465 . S
C3609 C3608 1.396 . S
C3609 C3610 1.399 . S
C3610 H3596 0.929 . S
C3610 C3609 1.399 . S
C3610 C3611 1.385 . S
C3611 H3597 0.931 1_565 S
C3611 C3610 1.385 . S
C3611 C3612 1.389 . S
C3612 C3611 1.389 . S
C3612 C3613 1.387 . S
C3613 H3598 0.930 . S
C3613 C3608 1.390 . S
C3613 C3612 1.387 . S
H3614 C3626 0.930 . S
H3615 C3628 0.930 . S
H3616 C3629 0.930 . S
H3617 C3633 0.959 . S
H3618 C3633 0.959 . S
H3619 C3633 0.961 . S
H3620 C3634 0.960 . S
H3621 C3634 0.961 . S
H3622 C3634 0.959 . S
H3623 C3637 0.929 . S
H3624 C3638 0.931 . S
H3625 C3640 0.930 . S
C3626 H3614 0.930 . S
C3626 C3627 1.399 . S
C3626 C3631 1.399 . S
C3627 C3626 1.399 . S
C3627 C3628 1.376 . S
C3628 H3615 0.930 . S
C3628 C3627 1.376 . S
C3628 C3629 1.388 . S
C3629 H3616 0.930 . S
C3629 C3628 1.388 . S
C3629 C3630 1.390 . S
C3630 C3629 1.390 . S
C3630 C3631 1.394 . S
C3630 C3636 1.465 . S
C3631 C3626 1.399 . S
C3631 C3630 1.394 . S
C3631 C3632 1.516 . S
C3632 C3631 1.516 . S
C3632 C3633 1.502 . S
C3632 C3634 1.561 . S
C3632 C3635 1.526 . S
C3633 H3617 0.959 . S
C3633 H3618 0.959 . S
C3633 H3619 0.961 . S
C3633 C3632 1.502 . S
C3634 H3620 0.960 . S
C3634 H3621 0.961 . S
C3634 H3622 0.959 . S
C3634 C3632 1.561 . S
C3635 C3632 1.526 . S
C3635 C3636 1.396 . S
C3635 C3640 1.390 . S
C3636 C3630 1.465 . S
C3636 C3635 1.396 . S
C3636 C3637 1.399 . S
C3637 H3623 0.929 . S
C3637 C3636 1.399 . S
C3637 C3638 1.385 . S
C3638 H3624 0.931 . S
C3638 C3637 1.385 . S
C3638 C3639 1.389 . S
C3639 C3638 1.389 . S
C3639 C3640 1.387 . S
C3640 H3625 0.930 . S
C3640 C3635 1.390 . S
C3640 C3639 1.387 . S
H3641 C3653 0.930 1_556 S
H3642 C3655 0.930 . S
H3643 C3656 0.930 . S
H3644 C3660 0.959 . S
H3645 C3660 0.959 . S
H3646 C3660 0.961 . S
H3647 C3661 0.960 . S
H3648 C3661 0.961 . S
H3649 C3661 0.959 1_554 S
H3650 C3664 0.929 . S
H3651 C3665 0.931 . S
H3652 C3667 0.930 1_556 S
C3653 H3641 0.930 1_554 S
C3653 C3654 1.399 . S
C3653 C3658 1.399 . S
C3654 C3653 1.399 . S
C3654 C3655 1.376 . S
C3655 H3642 0.930 . S
C3655 C3654 1.376 . S
C3655 C3656 1.388 . S
C3656 H3643 0.930 . S
C3656 C3655 1.388 . S
C3656 C3657 1.390 . S
C3657 C3656 1.390 . S
C3657 C3658 1.394 . S
C3657 C3663 1.465 . S
C3658 C3653 1.399 . S
C3658 C3657 1.394 . S
C3658 C3659 1.516 1_554 S
C3659 C3658 1.516 1_556 S
C3659 C3660 1.502 . S
C3659 C3661 1.561 . S
C3659 C3662 1.526 1_556 S
C3660 H3644 0.959 . S
C3660 H3645 0.959 . S
C3660 H3646 0.961 . S
C3660 C3659 1.502 . S
C3661 H3647 0.960 . S
C3661 H3648 0.961 . S
C3661 H3649 0.959 1_556 S
C3661 C3659 1.561 . S
C3662 C3659 1.526 1_554 S
C3662 C3663 1.396 . S
C3662 C3667 1.390 . S
C3663 C3657 1.465 . S
C3663 C3662 1.396 . S
C3663 C3664 1.399 . S
C3664 H3650 0.929 . S
C3664 C3663 1.399 . S
C3664 C3665 1.385 . S
C3665 H3651 0.931 . S
C3665 C3664 1.385 . S
C3665 C3666 1.389 . S
C3666 C3665 1.389 . S
C3666 C3667 1.387 . S
C3667 H3652 0.930 1_554 S
C3667 C3662 1.390 . S
C3667 C3666 1.387 . S
H3668 C3680 0.930 . S
H3669 C3682 0.930 . S
H3670 C3683 0.930 . S
H3671 C3687 0.959 . S
H3672 C3687 0.959 . S
H3673 C3687 0.961 . S
H3674 C3688 0.960 . S
H3675 C3688 0.961 . S
H3676 C3688 0.959 . S
H3677 C3691 0.929 . S
H3678 C3692 0.931 . S
H3679 C3694 0.930 . S
C3680 H3668 0.930 . S
C3680 C3681 1.399 . S
C3680 C3685 1.399 . S
C3681 C3680 1.399 . S
C3681 C3682 1.376 . S
C3682 H3669 0.930 . S
C3682 C3681 1.376 . S
C3682 C3683 1.388 . S
C3683 H3670 0.930 . S
C3683 C3682 1.388 . S
C3683 C3684 1.390 . S
C3684 C3683 1.390 . S
C3684 C3685 1.394 . S
C3684 C3690 1.465 . S
C3685 C3680 1.399 . S
C3685 C3684 1.394 . S
C3685 C3686 1.516 . S
C3686 C3685 1.516 . S
C3686 C3687 1.502 . S
C3686 C3688 1.561 . S
C3686 C3689 1.526 . S
C3687 H3671 0.959 . S
C3687 H3672 0.959 . S
C3687 H3673 0.961 . S
C3687 C3686 1.502 . S
C3688 H3674 0.960 . S
C3688 H3675 0.961 . S
C3688 H3676 0.959 . S
C3688 C3686 1.561 . S
C3689 C3686 1.526 . S
C3689 C3690 1.396 . S
C3689 C3694 1.390 . S
C3690 C3684 1.465 . S
C3690 C3689 1.396 . S
C3690 C3691 1.399 . S
C3691 H3677 0.929 . S
C3691 C3690 1.399 . S
C3691 C3692 1.385 . S
C3692 H3678 0.931 . S
C3692 C3691 1.385 . S
C3692 C3693 1.389 . S
C3693 C3692 1.389 . S
C3693 C3694 1.387 . S
C3694 H3679 0.930 . S
C3694 C3689 1.390 . S
C3694 C3693 1.387 . S
H3695 C3707 0.930 . S
H3696 C3709 0.930 . S
H3697 C3710 0.930 1_556 S
H3698 C3714 0.959 . S
H3699 C3714 0.959 . S
H3700 C3714 0.961 . S
H3701 C3715 0.960 . S
H3702 C3715 0.961 . S
H3703 C3715 0.959 . S
H3704 C3718 0.929 . S
H3705 C3719 0.931 . S
H3706 C3721 0.930 . S
C3707 H3695 0.930 . S
C3707 C3708 1.399 . S
C3707 C3712 1.399 . S
C3708 C3707 1.399 . S
C3708 C3709 1.376 . S
C3709 H3696 0.930 . S
C3709 C3708 1.376 . S
C3709 C3710 1.388 . S
C3710 H3697 0.930 1_554 S
C3710 C3709 1.388 . S
C3710 C3711 1.390 . S
C3711 C3710 1.390 . S
C3711 C3712 1.394 . S
C3711 C3717 1.465 . S
C3712 C3707 1.399 . S
C3712 C3711 1.394 . S
C3712 C3713 1.516 . S
C3713 C3712 1.516 . S
C3713 C3714 1.502 . S
C3713 C3715 1.561 . S
C3713 C3716 1.526 . S
C3714 H3698 0.959 . S
C3714 H3699 0.959 . S
C3714 H3700 0.961 . S
C3714 C3713 1.502 . S
C3715 H3701 0.960 . S
C3715 H3702 0.961 . S
C3715 H3703 0.959 . S
C3715 C3713 1.561 . S
C3716 C3713 1.526 . S
C3716 C3717 1.396 . S
C3716 C3721 1.390 . S
C3717 C3711 1.465 . S
C3717 C3716 1.396 . S
C3717 C3718 1.399 1_554 S
C3718 H3704 0.929 . S
C3718 C3717 1.399 1_556 S
C3718 C3719 1.385 . S
C3719 H3705 0.931 . S
C3719 C3718 1.385 . S
C3719 C3720 1.389 1_556 S
C3720 C3719 1.389 1_554 S
C3720 C3721 1.387 . S
C3721 H3706 0.930 . S
C3721 C3716 1.390 . S
C3721 C3720 1.387 . S
H3722 C3734 0.930 . S
H3723 C3736 0.930 . S
H3724 C3737 0.930 . S
H3725 C3741 0.959 . S
H3726 C3741 0.959 . S
H3727 C3741 0.961 . S
H3728 C3742 0.960 . S
H3729 C3742 0.961 . S
H3730 C3742 0.959 . S
H3731 C3745 0.929 . S
H3732 C3746 0.931 . S
H3733 C3748 0.930 . S
C3734 H3722 0.930 . S
C3734 C3735 1.399 . S
C3734 C3739 1.399 . S
C3735 C3734 1.399 . S
C3735 C3736 1.376 . S
C3736 H3723 0.930 . S
C3736 C3735 1.376 . S
C3736 C3737 1.388 . S
C3737 H3724 0.930 . S
C3737 C3736 1.388 . S
C3737 C3738 1.390 . S
C3738 C3737 1.390 . S
C3738 C3739 1.394 . S
C3738 C3744 1.465 . S
C3739 C3734 1.399 . S
C3739 C3738 1.394 . S
C3739 C3740 1.516 . S
C3740 C3739 1.516 . S
C3740 C3741 1.502 . S
C3740 C3742 1.561 . S
C3740 C3743 1.526 . S
C3741 H3725 0.959 . S
C3741 H3726 0.959 . S
C3741 H3727 0.961 . S
C3741 C3740 1.502 . S
C3742 H3728 0.960 . S
C3742 H3729 0.961 . S
C3742 H3730 0.959 . S
C3742 C3740 1.561 . S
C3743 C3740 1.526 . S
C3743 C3744 1.396 . S
C3743 C3748 1.390 . S
C3744 C3738 1.465 . S
C3744 C3743 1.396 . S
C3744 C3745 1.399 . S
C3745 H3731 0.929 . S
C3745 C3744 1.399 . S
C3745 C3746 1.385 . S
C3746 H3732 0.931 . S
C3746 C3745 1.385 . S
C3746 C3747 1.389 . S
C3747 C3746 1.389 . S
C3747 C3748 1.387 . S
C3748 H3733 0.930 . S
C3748 C3743 1.390 . S
C3748 C3747 1.387 . S
H3749 C3761 0.930 . S
H3750 C3763 0.930 . S
H3751 C3764 0.930 . S
H3752 C3768 0.959 . S
H3753 C3768 0.959 . S
H3754 C3768 0.961 . S
H3755 C3769 0.960 . S
H3756 C3769 0.961 . S
H3757 C3769 0.959 . S
H3758 C3772 0.929 . S
H3759 C3773 0.931 . S
H3760 C3775 0.930 . S
C3761 H3749 0.930 . S
C3761 C3762 1.399 . S
C3761 C3766 1.399 . S
C3762 C3761 1.399 . S
C3762 C3763 1.376 . S
C3763 H3750 0.930 . S
C3763 C3762 1.376 . S
C3763 C3764 1.388 . S
C3764 H3751 0.930 . S
C3764 C3763 1.388 . S
C3764 C3765 1.390 . S
C3765 C3764 1.390 . S
C3765 C3766 1.394 . S
C3765 C3771 1.465 . S
C3766 C3761 1.399 . S
C3766 C3765 1.394 . S
C3766 C3767 1.516 . S
C3767 C3766 1.516 . S
C3767 C3768 1.502 . S
C3767 C3769 1.561 . S
C3767 C3770 1.526 . S
C3768 H3752 0.959 . S
C3768 H3753 0.959 . S
C3768 H3754 0.961 . S
C3768 C3767 1.502 . S
C3769 H3755 0.960 . S
C3769 H3756 0.961 . S
C3769 H3757 0.959 . S
C3769 C3767 1.561 . S
C3770 C3767 1.526 . S
C3770 C3771 1.396 . S
C3770 C3775 1.390 . S
C3771 C3765 1.465 . S
C3771 C3770 1.396 . S
C3771 C3772 1.399 . S
C3772 H3758 0.929 . S
C3772 C3771 1.399 . S
C3772 C3773 1.385 . S
C3773 H3759 0.931 . S
C3773 C3772 1.385 . S
C3773 C3774 1.389 . S
C3774 C3773 1.389 . S
C3774 C3775 1.387 . S
C3775 H3760 0.930 . S
C3775 C3770 1.390 . S
C3775 C3774 1.387 . S
C1197 C255 1.387 . S
C1209 C868 1.165 1_556 S
C1224 C147 1.455 . S
C1236 C903 1.403 . S
C1251 C184 1.055 . S
C1263 C908 1.053 . S
C1290 C933 1.373 . S
C1278 C220 1.423 . S
C1305 C40 1.394 . S
C1317 C953 1.265 . S
C1344 C968 1.007 . S
C1332 C74 1.150 . S
C1371 C1003 1.467 . S
C1359 C110 1.492 . S
C1386 C14 1.358 . S
C1398 C1008 1.179 . S
C1425 C883 1.502 1_655 S
C1413 C579 1.608 . S
C1440 C616 1.055 . S
C1452 C893 1.057 . S
C1479 C923 1.436 . S
C1467 C687 1.484 . S
C1506 C928 1.090 . S
C1494 C436 1.228 . S
C1521 C580 1.185 . S
C1533 C948 1.155 . S
C1560 C983 1.411 . S
C1548 C615 1.475 . S
C1587 C993 1.000 . S
C1575 C688 1.027 . S
C1614 C1023 1.476 . S
C1602 C435 1.601 . S
C1641 C873 1.309 . S
C1629 C410 1.363 . S
C1656 C722 1.778 . S
C1668 C1043 1.755 . S
C1695 C1053 1.465 . S
C1683 C842 1.548 . S
C1722 C1068 1.060 . S
C1710 C794 1.070 . S
C1737 C302 1.407 . S
C1749 C1013 1.304 . S
C1764 C338 1.562 . S
C1776 C913 1.467 . S
C1791 C830 1.808 . S
C1803 C1103 1.780 . S
C1830 C1108 1.008 . S
C1818 C758 1.136 . S
C1857 C866 1.193 . S
C1845 C158 1.262 . S
C1884 C1122 1.458 . S
C1872 C254 1.476 . S
C1899 C218 1.072 . S
C1911 C906 0.908 . S
C1926 C194 1.345 . S
C1938 C1096 1.385 . S
C1965 C956 1.286 . S
C1953 C3 1.390 . S
C1980 C111 1.002 . S
C1992 C1046 1.022 . S
C2019 C1002 1.435 1_556 S
C2007 C76 1.469 . S
C2046 C1126 1.300 . S
C2034 C50 1.269 . S
C2073 C882 1.538 . S
C2061 C364 1.582 . S
C2100 C1116 1.038 . S
C2088 C795 1.013 . S
C2115 C292 1.448 . S
C2127 C922 1.432 . S
C2142 C723 1.185 . S
C2154 C1086 1.065 . S
C2169 C363 1.182 . S
C2181 C946 1.162 . S
C2208 C1062 1.389 . S
C2196 C796 1.434 . S
C2223 C291 1.043 . S
C2235 C996 0.907 . S
C2250 C724 1.598 . S
C2262 C1142 1.518 . S
C2277 C482 1.392 . S
C2289 C876 1.225 . S
C2304 C434 1.747 . S
C2316 C1042 1.725 . S
C2331 C662 1.508 . S
C2343 C976 1.406 . S
C2358 C614 1.074 . S
C2370 C1066 0.924 . S
C2397 C1136 1.377 . S
C2385 C698 1.319 . S
C2412 C554 1.416 . S
C2424 C916 1.468 . S
C2451 C942 1.765 . S
C2439 C650 1.778 . S
C2478 C886 1.089 . S
C2466 C506 1.101 . S
C2493 C183 1.339 . S
C2505 C1148 1.285 . S
C2532 C1123 1.453 . S
C2520 C219 1.473 . S
C2547 C256 1.067 . S
C2559 C1168 1.000 . S
C2574 C148 1.432 . S
C2586 C1093 1.311 . S
C2601 C122 1.400 . S
C2613 C1033 1.345 . S
C2640 C1048 0.979 . S
C2628 C2 1.087 . S
C2667 C1083 1.395 . S
C2655 C39 1.392 . S
C2694 C1128 1.274 . S
C2682 C86 1.412 . S
C2721 C1163 1.576 . S
C2709 C651 1.625 . S
C2736 C472 1.054 . S
C2748 C1113 0.931 . S
C2775 C1183 1.457 . S
C2763 C507 1.488 . S
C2802 C1088 1.186 . S
C2790 C544 1.239 . S
C2829 C1028 1.161 . S
C2817 C652 1.186 . S
C2844 C471 1.452 . S
C2856 C1063 1.435 . S
C2883 C1073 0.976 . S
C2871 C508 1.068 . S
C2898 C543 1.588 . S
C2910 C1143 1.564 . S
C2937 C1153 1.340 . S
C2925 C806 1.450 . S
C2952 C326 1.783 . S
C2964 C963 1.749 . S
C2991 C973 1.447 . S
C2979 C374 1.571 . S
C3018 C988 1.062 . S
C3006 C398 1.093 . S
C3045 C1133 1.259 . S
C3033 C770 1.427 . S
C3060 C734 1.549 1_554 S
C3072 C1173 1.434 . S
C3099 C943 1.780 . S
C3087 C362 1.818 . S
C3126 C888 1.088 . S
C3114 C290 1.110 . S
C3141 C230 1.252 . S
C3153 C1146 1.206 . S
C3180 C902 1.393 . S
C3168 C182 1.447 . S
C3195 C146 1.052 . S
C3207 C1166 0.994 . S
C3222 C266 1.405 . S
C3234 C936 1.288 . S
C3249 C75 1.445 . S
C3261 C1036 1.346 . S
C3288 C966 0.984 . S
C3276 C38 1.092 . S
C3303 C4 1.403 . S
C3315 C1082 1.386 . S
C3330 C112 1.347 . S
C3342 C1006 1.256 . S
C3369 C1162 1.454 . S
C3357 C832 1.583 . S
C3384 C399 1.033 . S
C3396 C896 1.023 . S
C3423 C1182 1.355 1_655 S
C3411 C760 1.408 . S
C3438 C327 1.185 . S
C3450 C926 1.050 . S
C3465 C831 1.223 . S
C3477 C1026 1.042 . S
C3504 C982 1.453 . S
C3492 C400 1.468 . S
C3519 C759 1.021 . S
C3531 C1076 1.055 . S
C3558 C1022 1.544 . S
C3546 C328 1.600 . S
C3585 C1156 1.308 . S
C3573 C626 1.317 . S
C3612 C962 1.768 . S
C3600 C542 1.784 . S
C3627 C590 1.468 . S
C3639 C1056 1.385 . S
C3666 C986 1.070 . S
C3654 C470 1.080 . S
C3681 C518 1.319 . S
C3693 C1016 1.362 . S
C3708 C446 1.424 . S
C3720 C1176 1.420 . S
C3747 C1102 1.773 . S
C3735 C578 1.789 . S
C3774 C1106 0.910 . S
C3762 C686 1.064 . S
