# Generated by pormake.
# Topology gar, (4,6)-cn, num edge types: 1
# Building blocks:
#     Node 0, Type 0, BuildingBlock: QUQFOY_clean_sbu_3, # of connection points: 4
#     Node 1, Type 0, BuildingBlock: QUQFOY_clean_sbu_3, # of connection points: 4
#     Node 2, Type 0, BuildingBlock: QUQFOY_clean_sbu_3, # of connection points: 4
#     Node 3, Type 0, BuildingBlock: QUQFOY_clean_sbu_3, # of connection points: 4
#     Node 4, Type 0, BuildingBlock: QUQFOY_clean_sbu_3, # of connection points: 4
#     Node 5, Type 0, BuildingBlock: QUQFOY_clean_sbu_3, # of connection points: 4
#     Node 6, Type 0, BuildingBlock: QUQFOY_clean_sbu_3, # of connection points: 4
#     Node 7, Type 0, BuildingBlock: QUQFOY_clean_sbu_3, # of connection points: 4
#     Node 8, Type 0, BuildingBlock: QUQFOY_clean_sbu_3, # of connection points: 4
#     Node 9, Type 0, BuildingBlock: QUQFOY_clean_sbu_3, # of connection points: 4
#     Node 10, Type 0, BuildingBlock: QUQFOY_clean_sbu_3, # of connection points: 4
#     Node 11, Type 0, BuildingBlock: QUQFOY_clean_sbu_3, # of connection points: 4
#     Node 12, Type 0, BuildingBlock: QUQFOY_clean_sbu_3, # of connection points: 4
#     Node 13, Type 0, BuildingBlock: QUQFOY_clean_sbu_3, # of connection points: 4
#     Node 14, Type 0, BuildingBlock: QUQFOY_clean_sbu_3, # of connection points: 4
#     Node 15, Type 0, BuildingBlock: QUQFOY_clean_sbu_3, # of connection points: 4
#     Node 16, Type 0, BuildingBlock: QUQFOY_clean_sbu_3, # of connection points: 4
#     Node 17, Type 0, BuildingBlock: QUQFOY_clean_sbu_3, # of connection points: 4
#     Node 18, Type 0, BuildingBlock: QUQFOY_clean_sbu_3, # of connection points: 4
#     Node 19, Type 0, BuildingBlock: QUQFOY_clean_sbu_3, # of connection points: 4
#     Node 20, Type 0, BuildingBlock: QUQFOY_clean_sbu_3, # of connection points: 4
#     Node 21, Type 0, BuildingBlock: QUQFOY_clean_sbu_3, # of connection points: 4
#     Node 22, Type 0, BuildingBlock: QUQFOY_clean_sbu_3, # of connection points: 4
#     Node 23, Type 0, BuildingBlock: QUQFOY_clean_sbu_3, # of connection points: 4
#     Node 24, Type 1, BuildingBlock: MIFKUJ_clean_sbu_0, # of connection points: 6
#     Node 25, Type 1, BuildingBlock: MIFKUJ_clean_sbu_0, # of connection points: 6
#     Node 26, Type 1, BuildingBlock: MIFKUJ_clean_sbu_0, # of connection points: 6
#     Node 27, Type 1, BuildingBlock: MIFKUJ_clean_sbu_0, # of connection points: 6
#     Node 28, Type 1, BuildingBlock: MIFKUJ_clean_sbu_0, # of connection points: 6
#     Node 29, Type 1, BuildingBlock: MIFKUJ_clean_sbu_0, # of connection points: 6
#     Node 30, Type 1, BuildingBlock: MIFKUJ_clean_sbu_0, # of connection points: 6
#     Node 31, Type 1, BuildingBlock: MIFKUJ_clean_sbu_0, # of connection points: 6
#     Node 32, Type 1, BuildingBlock: MIFKUJ_clean_sbu_0, # of connection points: 6
#     Node 33, Type 1, BuildingBlock: MIFKUJ_clean_sbu_0, # of connection points: 6
#     Node 34, Type 1, BuildingBlock: MIFKUJ_clean_sbu_0, # of connection points: 6
#     Node 35, Type 1, BuildingBlock: MIFKUJ_clean_sbu_0, # of connection points: 6
#     Node 36, Type 1, BuildingBlock: MIFKUJ_clean_sbu_0, # of connection points: 6
#     Node 37, Type 1, BuildingBlock: MIFKUJ_clean_sbu_0, # of connection points: 6
#     Node 38, Type 1, BuildingBlock: MIFKUJ_clean_sbu_0, # of connection points: 6
#     Node 39, Type 1, BuildingBlock: MIFKUJ_clean_sbu_0, # of connection points: 6
#     Edge 40, Type (0, 1), BuildingBlock: ZUJKAS_clean_linker_0, # of connection points: 2
#     Edge 41, Type (0, 1), BuildingBlock: ZUJKAS_clean_linker_0, # of connection points: 2
#     Edge 42, Type (0, 1), BuildingBlock: ZUJKAS_clean_linker_0, # of connection points: 2
#     Edge 43, Type (0, 1), BuildingBlock: ZUJKAS_clean_linker_0, # of connection points: 2
#     Edge 44, Type (0, 1), BuildingBlock: ZUJKAS_clean_linker_0, # of connection points: 2
#     Edge 45, Type (0, 1), BuildingBlock: ZUJKAS_clean_linker_0, # of connection points: 2
#     Edge 46, Type (0, 1), BuildingBlock: ZUJKAS_clean_linker_0, # of connection points: 2
#     Edge 47, Type (0, 1), BuildingBlock: ZUJKAS_clean_linker_0, # of connection points: 2
#     Edge 48, Type (0, 1), BuildingBlock: ZUJKAS_clean_linker_0, # of connection points: 2
#     Edge 49, Type (0, 1), BuildingBlock: ZUJKAS_clean_linker_0, # of connection points: 2
#     Edge 50, Type (0, 1), BuildingBlock: ZUJKAS_clean_linker_0, # of connection points: 2
#     Edge 51, Type (0, 1), BuildingBlock: ZUJKAS_clean_linker_0, # of connection points: 2
#     Edge 52, Type (0, 1), BuildingBlock: ZUJKAS_clean_linker_0, # of connection points: 2
#     Edge 53, Type (0, 1), BuildingBlock: ZUJKAS_clean_linker_0, # of connection points: 2
#     Edge 54, Type (0, 1), BuildingBlock: ZUJKAS_clean_linker_0, # of connection points: 2
#     Edge 55, Type (0, 1), BuildingBlock: ZUJKAS_clean_linker_0, # of connection points: 2
#     Edge 56, Type (0, 1), BuildingBlock: ZUJKAS_clean_linker_0, # of connection points: 2
#     Edge 57, Type (0, 1), BuildingBlock: ZUJKAS_clean_linker_0, # of connection points: 2
#     Edge 58, Type (0, 1), BuildingBlock: ZUJKAS_clean_linker_0, # of connection points: 2
#     Edge 59, Type (0, 1), BuildingBlock: ZUJKAS_clean_linker_0, # of connection points: 2
#     Edge 60, Type (0, 1), BuildingBlock: ZUJKAS_clean_linker_0, # of connection points: 2
#     Edge 61, Type (0, 1), BuildingBlock: ZUJKAS_clean_linker_0, # of connection points: 2
#     Edge 62, Type (0, 1), BuildingBlock: ZUJKAS_clean_linker_0, # of connection points: 2
#     Edge 63, Type (0, 1), BuildingBlock: ZUJKAS_clean_linker_0, # of connection points: 2
#     Edge 64, Type (0, 1), BuildingBlock: ZUJKAS_clean_linker_0, # of connection points: 2
#     Edge 65, Type (0, 1), BuildingBlock: ZUJKAS_clean_linker_0, # of connection points: 2
#     Edge 66, Type (0, 1), BuildingBlock: ZUJKAS_clean_linker_0, # of connection points: 2
#     Edge 67, Type (0, 1), BuildingBlock: ZUJKAS_clean_linker_0, # of connection points: 2
#     Edge 68, Type (0, 1), BuildingBlock: ZUJKAS_clean_linker_0, # of connection points: 2
#     Edge 69, Type (0, 1), BuildingBlock: ZUJKAS_clean_linker_0, # of connection points: 2
#     Edge 70, Type (0, 1), BuildingBlock: ZUJKAS_clean_linker_0, # of connection points: 2
#     Edge 71, Type (0, 1), BuildingBlock: ZUJKAS_clean_linker_0, # of connection points: 2
#     Edge 72, Type (0, 1), BuildingBlock: ZUJKAS_clean_linker_0, # of connection points: 2
#     Edge 73, Type (0, 1), BuildingBlock: ZUJKAS_clean_linker_0, # of connection points: 2
#     Edge 74, Type (0, 1), BuildingBlock: ZUJKAS_clean_linker_0, # of connection points: 2
#     Edge 75, Type (0, 1), BuildingBlock: ZUJKAS_clean_linker_0, # of connection points: 2
#     Edge 76, Type (0, 1), BuildingBlock: ZUJKAS_clean_linker_0, # of connection points: 2
#     Edge 77, Type (0, 1), BuildingBlock: ZUJKAS_clean_linker_0, # of connection points: 2
#     Edge 78, Type (0, 1), BuildingBlock: ZUJKAS_clean_linker_0, # of connection points: 2
#     Edge 79, Type (0, 1), BuildingBlock: ZUJKAS_clean_linker_0, # of connection points: 2
#     Edge 80, Type (0, 1), BuildingBlock: ZUJKAS_clean_linker_0, # of connection points: 2
#     Edge 81, Type (0, 1), BuildingBlock: ZUJKAS_clean_linker_0, # of connection points: 2
#     Edge 82, Type (0, 1), BuildingBlock: ZUJKAS_clean_linker_0, # of connection points: 2
#     Edge 83, Type (0, 1), BuildingBlock: ZUJKAS_clean_linker_0, # of connection points: 2
#     Edge 84, Type (0, 1), BuildingBlock: ZUJKAS_clean_linker_0, # of connection points: 2
#     Edge 85, Type (0, 1), BuildingBlock: ZUJKAS_clean_linker_0, # of connection points: 2
#     Edge 86, Type (0, 1), BuildingBlock: ZUJKAS_clean_linker_0, # of connection points: 2
#     Edge 87, Type (0, 1), BuildingBlock: ZUJKAS_clean_linker_0, # of connection points: 2
#     Edge 88, Type (0, 1), BuildingBlock: ZUJKAS_clean_linker_0, # of connection points: 2
#     Edge 89, Type (0, 1), BuildingBlock: ZUJKAS_clean_linker_0, # of connection points: 2
#     Edge 90, Type (0, 1), BuildingBlock: ZUJKAS_clean_linker_0, # of connection points: 2
#     Edge 91, Type (0, 1), BuildingBlock: ZUJKAS_clean_linker_0, # of connection points: 2
#     Edge 92, Type (0, 1), BuildingBlock: ZUJKAS_clean_linker_0, # of connection points: 2
#     Edge 93, Type (0, 1), BuildingBlock: ZUJKAS_clean_linker_0, # of connection points: 2
#     Edge 94, Type (0, 1), BuildingBlock: ZUJKAS_clean_linker_0, # of connection points: 2
#     Edge 95, Type (0, 1), BuildingBlock: ZUJKAS_clean_linker_0, # of connection points: 2
#     Edge 96, Type (0, 1), BuildingBlock: ZUJKAS_clean_linker_0, # of connection points: 2
#     Edge 97, Type (0, 1), BuildingBlock: ZUJKAS_clean_linker_0, # of connection points: 2
#     Edge 98, Type (0, 1), BuildingBlock: ZUJKAS_clean_linker_0, # of connection points: 2
#     Edge 99, Type (0, 1), BuildingBlock: ZUJKAS_clean_linker_0, # of connection points: 2
#     Edge 100, Type (0, 1), BuildingBlock: ZUJKAS_clean_linker_0, # of connection points: 2
#     Edge 101, Type (0, 1), BuildingBlock: ZUJKAS_clean_linker_0, # of connection points: 2
#     Edge 102, Type (0, 1), BuildingBlock: ZUJKAS_clean_linker_0, # of connection points: 2
#     Edge 103, Type (0, 1), BuildingBlock: ZUJKAS_clean_linker_0, # of connection points: 2
#     Edge 104, Type (0, 1), BuildingBlock: ZUJKAS_clean_linker_0, # of connection points: 2
#     Edge 105, Type (0, 1), BuildingBlock: ZUJKAS_clean_linker_0, # of connection points: 2
#     Edge 106, Type (0, 1), BuildingBlock: ZUJKAS_clean_linker_0, # of connection points: 2
#     Edge 107, Type (0, 1), BuildingBlock: ZUJKAS_clean_linker_0, # of connection points: 2
#     Edge 108, Type (0, 1), BuildingBlock: ZUJKAS_clean_linker_0, # of connection points: 2
#     Edge 109, Type (0, 1), BuildingBlock: ZUJKAS_clean_linker_0, # of connection points: 2
#     Edge 110, Type (0, 1), BuildingBlock: ZUJKAS_clean_linker_0, # of connection points: 2
#     Edge 111, Type (0, 1), BuildingBlock: ZUJKAS_clean_linker_0, # of connection points: 2
#     Edge 112, Type (0, 1), BuildingBlock: ZUJKAS_clean_linker_0, # of connection points: 2
#     Edge 113, Type (0, 1), BuildingBlock: ZUJKAS_clean_linker_0, # of connection points: 2
#     Edge 114, Type (0, 1), BuildingBlock: ZUJKAS_clean_linker_0, # of connection points: 2
#     Edge 115, Type (0, 1), BuildingBlock: ZUJKAS_clean_linker_0, # of connection points: 2
#     Edge 116, Type (0, 1), BuildingBlock: ZUJKAS_clean_linker_0, # of connection points: 2
#     Edge 117, Type (0, 1), BuildingBlock: ZUJKAS_clean_linker_0, # of connection points: 2
#     Edge 118, Type (0, 1), BuildingBlock: ZUJKAS_clean_linker_0, # of connection points: 2
#     Edge 119, Type (0, 1), BuildingBlock: ZUJKAS_clean_linker_0, # of connection points: 2
#     Edge 120, Type (0, 1), BuildingBlock: ZUJKAS_clean_linker_0, # of connection points: 2
#     Edge 121, Type (0, 1), BuildingBlock: ZUJKAS_clean_linker_0, # of connection points: 2
#     Edge 122, Type (0, 1), BuildingBlock: ZUJKAS_clean_linker_0, # of connection points: 2
#     Edge 123, Type (0, 1), BuildingBlock: ZUJKAS_clean_linker_0, # of connection points: 2
#     Edge 124, Type (0, 1), BuildingBlock: ZUJKAS_clean_linker_0, # of connection points: 2
#     Edge 125, Type (0, 1), BuildingBlock: ZUJKAS_clean_linker_0, # of connection points: 2
#     Edge 126, Type (0, 1), BuildingBlock: ZUJKAS_clean_linker_0, # of connection points: 2
#     Edge 127, Type (0, 1), BuildingBlock: ZUJKAS_clean_linker_0, # of connection points: 2
#     Edge 128, Type (0, 1), BuildingBlock: ZUJKAS_clean_linker_0, # of connection points: 2
#     Edge 129, Type (0, 1), BuildingBlock: ZUJKAS_clean_linker_0, # of connection points: 2
#     Edge 130, Type (0, 1), BuildingBlock: ZUJKAS_clean_linker_0, # of connection points: 2
#     Edge 131, Type (0, 1), BuildingBlock: ZUJKAS_clean_linker_0, # of connection points: 2
#     Edge 132, Type (0, 1), BuildingBlock: ZUJKAS_clean_linker_0, # of connection points: 2
#     Edge 133, Type (0, 1), BuildingBlock: ZUJKAS_clean_linker_0, # of connection points: 2
#     Edge 134, Type (0, 1), BuildingBlock: ZUJKAS_clean_linker_0, # of connection points: 2
#     Edge 135, Type (0, 1), BuildingBlock: ZUJKAS_clean_linker_0, # of connection points: 2
# Relax obj value: 0.092
# Max RMSD: 0.268
# Mean RMSD: 0.123
data_MOF--net-gar--node1-QUQFOY_clean_sbu_3--node2-MIFKUJ_clean_sbu_0--edge1-ZUJKAS_clean_linker_0
_symmetry_space_group_name_H-M    P1
_symmetry_Int_Tables_number       1
_symmetry_cell_setting            triclinic
loop_
_symmetry_equiv_pos_as_xyz
'x, y, z'
_cell_length_a     72.504107
_cell_length_b     73.651752
_cell_length_c     70.898934
_cell_angle_alpha  95.161517
_cell_angle_beta   94.200418
_cell_angle_gamma 98.816295
loop_
_atom_site_label
_atom_site_type_symbol
_atom_site_fract_x
_atom_site_fract_y
_atom_site_fract_z
_atom_type_partial_charge
C0 C 0.98549 0.26578 0.36137 0.0
O1 O -0.00175 0.2749 0.35307 0.0
Cd2 Cd 0.03114 0.27869 0.36252 0.0
O3 O 0.98965 0.25762 0.37587 0.0
Cd4 Cd 0.01842 0.2536 0.39542 0.0
C5 C 0.03064 0.30002 0.40733 0.0
O6 O 0.03674 0.24852 0.36857 0.0
O7 O 0.05209 0.25158 0.39612 0.0
O8 O 0.00421 0.22215 0.40014 0.0
C9 C 0.05198 0.24807 0.37828 0.0
O10 O 0.0362 0.30108 0.39078 0.0
C11 C 0.00714 0.22433 0.41815 0.0
O12 O 0.02265 0.28471 0.41216 0.0
O13 O 0.0149 0.24024 0.42559 0.0
C14 C 0.96896 0.74498 0.66602 0.0
O15 O 0.97802 0.73456 0.67506 0.0
Cd16 Cd 0.0062 0.72481 0.66594 0.0
O17 O 0.97493 0.75142 0.65107 0.0
Cd18 Cd 0.00289 0.75064 0.63246 0.0
C19 C 0.99326 0.70424 0.62045 0.0
O20 O 0.02551 0.75269 0.65998 0.0
O21 O 0.0362 0.74742 0.63278 0.0
O22 O 0.00495 0.78341 0.62809 0.0
C23 C 0.03946 0.7508 0.65067 0.0
O24 O -0.00216 0.70248 0.63779 0.0
C25 C 0.00325 0.78115 0.61005 0.0
O26 O 0.99321 0.72016 0.6148 0.0
O27 O 0.00111 0.76463 0.60236 0.0
C28 C 0.48492 0.76841 0.86247 0.0
O29 O 0.49735 0.77771 0.85392 0.0
Cd30 Cd 0.53031 0.7816 0.86266 0.0
O31 O 0.48955 0.76014 0.87672 0.0
Cd32 Cd 0.51885 0.7559 0.89533 0.0
C33 C 0.53096 0.80218 0.90802 0.0
O34 O 0.53601 0.75112 0.8676 0.0
O35 O 0.5524 0.75354 0.89454 0.0
O36 O 0.50462 0.72446 0.89997 0.0
C37 C 0.55152 0.75027 0.87661 0.0
O38 O 0.53549 0.80372 0.89115 0.0
C39 C 0.50798 0.72645 0.91794 0.0
O40 O 0.52382 0.78659 0.91285 0.0
O41 O 0.51611 0.74223 0.92539 0.0
C42 C 0.4681 0.2476 0.16437 0.0
O43 O 0.47623 0.23573 0.17215 0.0
Cd44 Cd 0.50518 0.22684 0.16377 0.0
O45 O 0.47483 0.25541 0.15047 0.0
Cd46 Cd 0.5021 0.25398 0.13122 0.0
C47 C 0.49252 0.20746 0.11814 0.0
O48 O 0.52467 0.25501 0.15874 0.0
O49 O 0.5356 0.25185 0.13139 0.0
O50 O 0.50274 0.28662 0.12663 0.0
C51 C 0.53871 0.25389 0.14934 0.0
O52 O 0.49777 0.20526 0.13519 0.0
C53 C 0.50171 0.28425 0.1086 0.0
O54 O 0.49175 0.22356 0.11321 0.0
O55 O 0.50073 0.26778 0.1011 0.0
C56 C 0.98753 0.75653 0.17068 0.0
O57 O 0.00041 0.75051 0.18021 0.0
Cd58 Cd 0.03241 0.75366 0.17357 0.0
O59 O 0.991 0.76492 0.15602 0.0
Cd60 Cd 0.01805 0.77489 0.1374 0.0
C61 C 0.02652 0.73085 0.12821 0.0
O62 O 0.03863 0.78453 0.16568 0.0
O63 O 0.05249 0.78581 0.14004 0.0
O64 O 0.00409 0.80225 0.13237 0.0
C65 C 0.05372 0.78846 0.15804 0.0
O66 O 0.03242 0.73174 0.1457 0.0
C67 C 0.00543 0.80141 0.11457 0.0
O68 O 0.01968 0.74417 0.12161 0.0
O69 O 0.01244 0.78796 0.10718 0.0
C70 C 0.46985 0.7487 0.3545 0.0
O71 O 0.4817 0.75898 0.34621 0.0
Cd72 Cd 0.51285 0.77042 0.35838 0.0
O73 O 0.47441 0.74315 0.3705 0.0
Cd74 Cd 0.50402 0.74568 0.39213 0.0
C75 C 0.50501 0.79159 0.40185 0.0
O76 O 0.52345 0.7429 0.36638 0.0
O77 O 0.53904 0.75194 0.39335 0.0
O78 O 0.49535 0.71315 0.39649 0.0
C79 C 0.53918 0.74654 0.37588 0.0
O80 O 0.51021 0.79293 0.38519 0.0
C81 C 0.49899 0.71503 0.41441 0.0
O82 O 0.5011 0.77585 0.40796 0.0
O83 O 0.50437 0.73139 0.4222 0.0
C84 C 0.48883 0.25721 0.66778 0.0
O85 O 0.50128 0.25045 0.67716 0.0
Cd86 Cd 0.53316 0.25224 0.67051 0.0
O87 O 0.49272 0.26558 0.6532 0.0
Cd88 Cd 0.52042 0.27384 0.6348 0.0
C89 C 0.52601 0.22887 0.62568 0.0
O90 O 0.54088 0.2833 0.66332 0.0
O91 O 0.55516 0.28294 0.63792 0.0
O92 O 0.50762 0.30167 0.62837 0.0
C93 C 0.55615 0.28645 0.65583 0.0
O94 O 0.53235 0.22963 0.64301 0.0
C95 C 0.51018 0.30057 0.61081 0.0
O96 O 0.51979 0.24259 0.61927 0.0
O97 O 0.5172 0.28679 0.60426 0.0
C98 C 0.96865 0.25022 0.85369 0.0
O99 O 0.97949 0.26246 0.84652 0.0
Cd100 Cd 0.01191 0.27195 0.8561 0.0
O101 O 0.97462 0.24233 0.8677 0.0
Cd102 Cd 0.00499 0.24499 0.8876 0.0
C103 C 0.00728 0.29064 0.9008 0.0
O104 O 0.02272 0.24346 0.86012 0.0
O105 O 0.03964 0.25063 0.8867 0.0
O106 O -0.00434 0.21246 0.892 0.0
C107 C 0.03881 0.24607 0.86895 0.0
O108 O 0.01352 0.29327 0.88479 0.0
C109 C 0.00152 0.21407 0.90948 0.0
O110 O 0.00153 0.2744 0.90493 0.0
O111 O 0.00847 0.23021 0.91696 0.0
C112 C 0.41894 0.02323 0.30402 0.0
O113 O 0.4266 0.01248 0.29319 0.0
Cd114 Cd 0.41519 -0.00102 0.26221 0.0
O115 O 0.40326 0.02787 0.29867 0.0
Cd116 Cd 0.38098 0.02106 0.26917 0.0
C117 C 0.37326 0.97499 0.2725 0.0
O118 O 0.40541 0.02417 0.24785 0.0
O119 O 0.37812 0.01315 0.23413 0.0
O120 O 0.37426 0.05252 0.27316 0.0
C121 C 0.39526 0.01893 0.23253 0.0
O122 O 0.38944 0.97479 0.26669 0.0
C123 C 0.35659 0.04804 0.27032 0.0
O124 O 0.36707 0.99014 0.27569 0.0
O125 O 0.35017 0.03089 0.26779 0.0
C126 C 0.28069 0.10119 0.50533 0.0
O127 O 0.26763 0.0931 0.51408 0.0
Cd128 Cd 0.2362 0.099 0.5148 0.0
O129 O 0.27811 0.11468 0.49581 0.0
Cd130 Cd 0.25206 0.13263 0.48853 0.0
C131 C 0.24562 0.14388 0.53557 0.0
O132 O 0.22942 0.10489 0.48299 0.0
O133 O 0.21757 0.12946 0.47963 0.0
O134 O 0.26347 0.13819 0.45749 0.0
C135 C 0.215 0.11201 0.47924 0.0
O136 O 0.23847 0.12707 0.53634 0.0
C137 C 0.26392 0.15558 0.45965 0.0
O138 O 0.25235 0.14916 0.52048 0.0
O139 O 0.25935 0.16232 0.47542 0.0
C140 C 0.10299 0.00842 0.80578 0.0
O141 O 0.0952 0.01811 0.79463 0.0
Cd142 Cd 0.10431 0.02533 0.76419 0.0
O143 O 0.11729 0.00138 0.80117 0.0
Cd144 Cd 0.13653 0.00089 0.77296 0.0
C145 C 0.14929 0.04779 0.77631 0.0
O146 O 0.10982 -0.00331 0.74895 0.0
O147 O 0.13693 0.0014 0.73821 0.0
O148 O 0.14114 0.969 0.77678 0.0
C149 C 0.1193 -0.00216 0.73469 0.0
O150 O 0.13253 0.04851 0.77003 0.0
C151 C 0.1589 0.97227 0.7772 0.0
O152 O 0.15422 0.03241 0.77959 0.0
O153 O 0.16624 0.9889 0.77612 0.0
C154 C 0.27115 0.908 -0.00599 0.0
O155 O 0.25838 0.9157 0.98639 0.0
Cd156 Cd 0.22558 0.9069 0.98929 0.0
O157 O 0.26699 0.89455 0.00391 0.0
Cd158 Cd 0.2381 0.87647 0.01378 0.0
C159 C 0.2199 0.86295 0.96808 0.0
O160 O 0.22379 0.90332 0.02252 0.0
O161 O 0.20579 0.8772 0.02253 0.0
O162 O 0.25435 0.87125 0.04391 0.0
C163 C 0.20836 0.89459 0.02644 0.0
O164 O 0.21546 0.87893 0.96718 0.0
C165 C 0.25016 0.85376 0.04133 0.0
O166 O 0.22901 0.8592 0.98285 0.0
O167 O 0.24064 0.84696 0.02589 0.0
C168 C 0.28185 0.41405 0.0263 0.0
O169 O 0.2721 0.42154 0.01459 0.0
Cd170 Cd 0.24053 0.41054 0.00305 0.0
O171 O 0.2748 0.39933 0.03316 0.0
Cd172 Cd 0.2434 0.37859 0.02976 0.0
C173 C 0.2461 0.36793 0.98246 0.0
O174 O 0.22511 0.4036 0.03074 0.0
O175 O 0.20903 0.37684 0.02188 0.0
O176 O 0.24755 0.37415 0.06359 0.0
C177 C 0.20917 0.39391 0.02642 0.0
O178 O 0.24231 0.38401 0.98046 0.0
C179 C 0.24359 0.35665 0.06132 0.0
O180 O 0.24818 0.36256 -0.00104 0.0
O181 O 0.23982 0.34926 0.04431 0.0
C182 C 0.80035 0.10023 0.02333 0.0
O183 O 0.79182 0.09386 0.03694 0.0
Cd184 Cd 0.76535 0.10431 0.04982 0.0
O185 O 0.79554 0.11403 0.01567 0.0
Cd186 Cd 0.77137 0.13444 0.02039 0.0
C187 C 0.78325 0.14857 0.06748 0.0
O188 O 0.74628 0.10865 0.02212 0.0
O189 O 0.73837 0.13566 0.0259 0.0
O190 O 0.7704 0.13936 0.98656 0.0
C191 C 0.73344 0.1183 0.02431 0.0
O192 O 0.77613 0.13246 0.07098 0.0
C193 C 0.77275 0.15687 0.98947 0.0
O194 O 0.78433 0.1524 0.05041 0.0
O195 O 0.77489 0.16381 0.00668 0.0
C196 C 0.09594 0.50605 0.27825 0.0
O197 O 0.08768 0.51136 0.26381 0.0
Cd198 Cd 0.09567 0.50618 0.2321 0.0
O199 O 0.11001 0.49768 0.27662 0.0
Cd200 Cd 0.12918 0.48734 0.25108 0.0
C201 C 0.14016 0.53089 0.23831 0.0
O202 O 0.10133 0.47501 0.23093 0.0
O203 O 0.12647 0.47428 0.21703 0.0
O204 O 0.13543 0.46337 0.27138 0.0
C205 C 0.10878 0.47022 0.21616 0.0
O206 O 0.12346 0.52923 0.23065 0.0
C207 C 0.15247 0.46415 0.26796 0.0
O208 O 0.1454 0.51816 0.24739 0.0
O209 O 0.15864 0.4758 0.25686 0.0
C210 C 0.78063 0.91583 0.52834 0.0
O211 O 0.76977 0.92407 0.51856 0.0
Cd212 Cd 0.7379 0.91284 0.5088 0.0
O213 O 0.77457 0.90036 0.53434 0.0
Cd214 Cd 0.74319 0.87974 0.53322 0.0
C215 C 0.74245 0.87092 0.48538 0.0
O216 O 0.7258 0.90498 0.53781 0.0
O217 O 0.70845 0.879 0.52854 0.0
O218 O 0.75064 0.87397 0.5662 0.0
C219 C 0.70948 0.89591 0.53451 0.0
O220 O 0.73832 0.88705 0.48458 0.0
C221 C 0.74556 0.85659 0.56354 0.0
O222 O 0.74582 0.86495 0.50137 0.0
O223 O 0.73979 0.84985 0.54664 0.0
C224 C 0.90913 0.00218 0.27881 0.0
O225 O 0.91748 0.99357 0.2666 0.0
Cd226 Cd 0.9091 0.98967 0.23307 0.0
O227 O 0.8952 0.00982 0.27359 0.0
Cd228 Cd 0.87728 0.01349 0.24291 0.0
C229 C 0.8643 0.96693 0.23356 0.0
O230 O 0.90481 0.01973 0.22528 0.0
O231 O 0.87847 0.01505 0.20821 0.0
O232 O 0.87277 0.04419 0.25659 0.0
C233 C 0.89612 0.01959 0.20913 0.0
O234 O 0.88068 0.96645 0.22836 0.0
C235 C 0.85538 0.04206 0.25132 0.0
O236 O 0.85981 0.98201 0.24059 0.0
O237 O 0.84814 0.02655 0.24248 0.0
C238 C 0.29229 0.59874 0.52137 0.0
O239 O 0.28432 0.5912 0.5347 0.0
Cd240 Cd 0.25862 0.60109 0.54933 0.0
O241 O 0.28704 0.61302 0.51515 0.0
Cd242 Cd 0.26243 0.63246 0.52195 0.0
C243 C 0.27698 0.64473 0.56871 0.0
O244 O 0.23823 0.60571 0.52251 0.0
O245 O 0.2295 0.63213 0.52853 0.0
O246 O 0.26154 0.63771 0.48837 0.0
C247 C 0.22504 0.61476 0.52534 0.0
O248 O 0.27102 0.62814 0.57161 0.0
C249 C 0.26216 0.65506 0.49124 0.0
O250 O 0.27615 0.6497 0.552 0.0
O251 O 0.26327 0.66194 0.50842 0.0
C252 C 0.40693 0.50338 0.78162 0.0
O253 O 0.41578 0.49459 0.77005 0.0
Cd254 Cd 0.40833 0.48947 0.73647 0.0
O255 O 0.39307 0.51075 0.7756 0.0
Cd256 Cd 0.37624 0.51379 0.74407 0.0
C257 C 0.3631 0.4671 0.73584 0.0
O258 O 0.40437 0.51918 0.72727 0.0
O259 O 0.37849 0.51427 0.70937 0.0
O260 O 0.37193 0.54538 0.75484 0.0
C261 C 0.39618 0.51866 0.71081 0.0
O262 O 0.3799 0.46625 0.73216 0.0
C263 C 0.3543 0.54267 0.7508 0.0
O264 O 0.35831 0.48251 0.74132 0.0
O265 O 0.34685 0.52648 0.7439 0.0
C266 C 0.59574 0.00146 0.77236 0.0
O267 O 0.58645 0.00562 0.75794 0.0
Cd268 Cd 0.59449 0.00157 0.72611 0.0
O269 O 0.61062 0.99438 0.77057 0.0
Cd270 Cd 0.62966 0.98497 0.74454 0.0
C271 C 0.63754 0.02916 0.7327 0.0
O272 O 0.60272 0.97128 0.72377 0.0
O273 O 0.62813 0.97424 0.7099 0.0
O274 O 0.63725 0.95887 0.76091 0.0
C275 C 0.61069 0.96825 0.70884 0.0
O276 O 0.62074 0.02666 0.72513 0.0
C277 C 0.65487 0.96307 0.76056 0.0
O278 O 0.64377 0.01657 0.74124 0.0
O279 O 0.66074 0.97753 0.75288 0.0
C280 C 0.77564 0.60172 0.00797 0.0
O281 O 0.76174 0.59259 0.01465 0.0
Cd282 Cd 0.73061 0.59924 0.01305 0.0
O283 O 0.77371 0.6159 -0.00068 0.0
Cd284 Cd 0.74733 0.63305 0.99079 0.0
C285 C 0.73965 0.64255 0.03721 0.0
O286 O 0.7243 0.60562 0.98103 0.0
O287 O 0.71285 0.63076 0.98422 0.0
O288 O 0.76021 0.64008 0.96066 0.0
C289 C 0.71009 0.61352 0.9793 0.0
O290 O 0.73172 0.62581 0.03659 0.0
C291 C 0.75968 0.65729 0.9631 0.0
O292 O 0.74745 0.64848 0.02294 0.0
O293 O 0.75387 0.66324 0.97857 0.0
C294 C 0.91498 0.51975 0.79928 0.0
O295 O 0.92503 0.51067 0.78935 0.0
Cd296 Cd 0.91822 0.49787 0.75732 0.0
O297 O 0.89938 0.5234 0.79225 0.0
Cd298 Cd 0.88097 0.51864 0.76031 0.0
C299 C 0.87486 0.47198 0.76126 0.0
O300 O 0.90875 0.52363 0.74421 0.0
O301 O 0.88391 0.5151 0.72526 0.0
O302 O 0.873 0.54948 0.76633 0.0
C303 C 0.90151 0.52017 0.72733 0.0
O304 O 0.89205 0.47276 0.75819 0.0
C305 C 0.85571 0.54484 0.76086 0.0
O306 O 0.86756 0.48662 0.76336 0.0
O307 O 0.85 0.52782 0.75568 0.0
C308 C 0.77294 0.40605 0.5007 0.0
O309 O 0.76124 0.41423 0.49196 0.0
Cd310 Cd 0.72799 0.40637 0.49189 0.0
O311 O 0.76734 0.3924 0.50986 0.0
Cd312 Cd 0.73704 0.37446 0.51655 0.0
C313 C 0.72252 0.36286 0.46953 0.0
O314 O 0.72407 0.40205 0.52465 0.0
O315 O 0.70432 0.3769 0.52345 0.0
O316 O 0.75173 0.36804 0.5469 0.0
C317 C 0.70792 0.39427 0.5276 0.0
O318 O 0.71881 0.37911 0.46865 0.0
C319 C 0.74659 0.35066 0.54408 0.0
O320 O 0.73007 0.35835 0.4848 0.0
O321 O 0.73706 0.34444 0.52848 0.0
C322 C 0.60156 0.50714 0.30663 0.0
O323 O 0.59425 0.51741 0.29578 0.0
Cd324 Cd 0.60337 0.52457 0.26535 0.0
O325 O 0.61562 0.49976 0.30191 0.0
Cd326 Cd 0.63549 0.50022 0.27425 0.0
C327 C 0.64806 0.54717 0.27792 0.0
O328 O 0.60912 0.49608 0.24992 0.0
O329 O 0.63635 0.50117 0.23953 0.0
O330 O 0.64016 0.46827 0.27758 0.0
C331 C 0.61874 0.4975 0.23581 0.0
O332 O 0.63141 0.54775 0.27124 0.0
C333 C 0.65792 0.47157 0.27813 0.0
O334 O 0.653 0.53186 0.28149 0.0
O335 O 0.66526 0.48825 0.27742 0.0
Zn336 Zn 0.0203 -0.00016 0.02264 0.0
Zn337 Zn 0.98679 0.00889 -0.00255 0.0
C338 C 0.00019 0.97032 0.03827 0.0
O339 O 0.00632 0.98212 0.05324 0.0
C340 C 0.00171 0.03973 0.97961 0.0
O341 O -0.00282 0.02717 0.96496 0.0
O342 O 0.04448 0.995 0.03579 0.0
O343 O 0.02726 0.00561 -0.00328 0.0
O344 O 0.00054 0.99166 0.98193 0.0
C345 C 0.04896 0.9799 0.02886 0.0
O346 O 0.03836 0.97027 0.01444 0.0
O347 O 0.00334 0.97511 0.02186 0.0
C348 C 0.94656 0.0009 0.98948 0.0
O349 O 0.94769 0.98958 0.00267 0.0
O350 O 0.96155 0.00916 0.9839 0.0
O351 O 0.98157 0.00583 0.02471 0.0
O352 O 0.00914 0.01859 0.03873 0.0
O353 O -0.00046 0.03498 -0.00379 0.0
C354 C 0.01806 -0.00305 0.98184 0.0
C355 C 0.99146 0.01484 0.03907 0.0
Zn356 Zn 0.24873 0.75232 0.28493 0.0
Zn357 Zn 0.25834 0.75661 0.24517 0.0
C358 C 0.22618 0.71763 0.27649 0.0
O359 O 0.21526 0.72681 0.28629 0.0
C360 C 0.28161 0.79096 0.2527 0.0
O361 O 0.29241 0.78107 0.24355 0.0
O362 O 0.24609 0.75081 0.3129 0.0
O363 O 0.27598 0.76112 0.28334 0.0
O364 O 0.27714 0.74267 0.25755 0.0
C365 C 0.25705 0.74067 0.31982 0.0
O366 O 0.26801 0.73314 0.30855 0.0
O367 O 0.2422 0.72589 0.27337 0.0
C368 C 0.25106 0.76721 0.20934 0.0
O369 O 0.23964 0.77515 0.21969 0.0
O370 O 0.26147 0.7571 0.21719 0.0
O371 O 0.23078 0.7487 0.24696 0.0
O372 O 0.23021 0.76676 0.27322 0.0
O373 O 0.2653 0.78332 0.25569 0.0
C374 C 0.28477 0.75062 0.2735 0.0
C375 C 0.22239 0.75935 0.25714 0.0
Zn376 Zn 0.48173 0.00952 0.51697 0.0
Zn377 Zn 0.52208 0.00626 0.51485 0.0
C378 C 0.48796 0.0436 0.53966 0.0
O379 O 0.47594 0.0336 0.54911 0.0
C380 C 0.51853 0.97249 0.49266 0.0
O381 O 0.53092 0.98321 0.48429 0.0
O382 O 0.45406 0.01096 0.51513 0.0
O383 O 0.48796 0.00211 0.49059 0.0
O384 O 0.51442 0.02149 0.49414 0.0
C385 C 0.44963 0.0219 0.50326 0.0
O386 O 0.46263 0.02958 0.49319 0.0
O387 O 0.49351 0.03608 0.52473 0.0
C388 C 0.55589 -0.00258 0.5304 0.0
O389 O 0.54452 0.99273 0.54335 0.0
O390 O 0.54991 0.00536 0.5165 0.0
O391 O 0.51551 0.01339 0.54127 0.0
O392 O 0.48904 0.99404 0.5376 0.0
O393 O 0.51124 0.97947 0.50679 0.0
C394 C 0.49972 0.01385 0.48383 0.0
C395 C 0.5037 0.00167 0.54798 0.0
Zn396 Zn 0.27853 0.25454 0.75816 0.0
Zn397 Zn 0.2391 0.25827 0.76182 0.0
C398 C 0.27363 0.23372 0.72261 0.0
O399 O 0.28351 0.22417 0.73305 0.0
C400 C 0.24119 0.27849 0.79728 0.0
O401 O 0.23113 0.28741 0.78628 0.0
O402 O 0.30615 0.2547 0.75697 0.0
O403 O 0.27598 0.2807 0.76697 0.0
O404 O 0.25052 0.27953 0.74794 0.0
C405 C 0.3133 0.26602 0.74596 0.0
O406 O 0.30275 0.27691 0.73832 0.0
O407 O 0.26864 0.24822 0.73043 0.0
C408 C 0.20172 0.24381 0.76726 0.0
O409 O 0.21 0.22967 0.77081 0.0
O410 O 0.21124 0.25792 0.76155 0.0
O411 O 0.2425 0.23216 0.75332 0.0
O412 O 0.26767 0.23367 0.77282 0.0
O413 O 0.24759 0.26463 0.78986 0.0
C414 C 0.26557 0.28874 0.75643 0.0
C415 C 0.2528 0.2243 0.76416 0.0
Zn416 Zn 0.00865 0.98177 0.51175 0.0
Zn417 Zn -0.00063 0.02097 0.50989 0.0
C418 C 0.03438 0.9885 0.54389 0.0
O419 O 0.04415 0.98191 0.53075 0.0
C420 C 0.9749 0.01524 0.47672 0.0
O421 O 0.96516 0.02302 0.48914 0.0
O422 O 0.01129 0.95461 0.51031 0.0
O423 O 0.98108 0.98273 0.50675 0.0
O424 O 0.98075 0.00782 0.52589 0.0
C425 C -0.00204 0.94395 0.51633 0.0
O426 O 0.98326 0.95077 0.52167 0.0
O427 O 0.01758 0.99054 0.53925 0.0
C428 C 0.00764 0.05654 0.49963 0.0
O429 O 0.01852 0.0473 0.48983 0.0
O430 O -0.00262 0.04812 0.51097 0.0
O431 O 0.02679 0.01998 0.51557 0.0
O432 O 0.02653 0.99557 0.49525 0.0
O433 O 0.99101 0.0119 0.48232 0.0
C434 C 0.97261 0.9921 0.51819 0.0
C435 C 0.03485 0.01106 0.50336 0.0
Zn436 Zn 0.25783 0.779 0.76646 0.0
Zn437 Zn 0.25782 0.73847 0.76984 0.0
C438 C 0.22626 0.77591 0.74081 0.0
O439 O 0.23888 0.78693 0.73304 0.0
C440 C 0.29059 0.74317 0.79469 0.0
O441 O 0.27897 0.73205 0.80349 0.0
O442 O 0.25907 0.80685 0.76794 0.0
O443 O 0.26188 0.77284 0.79338 0.0
O444 O 0.24128 0.74734 0.78932 0.0
C445 C 0.24855 0.81295 0.77981 0.0
O446 O 0.23953 0.80134 0.79029 0.0
O447 O 0.23098 0.76975 0.75634 0.0
C448 C 0.26876 0.70527 0.75706 0.0
O449 O 0.27791 0.71735 0.74714 0.0
O450 O 0.25749 0.71077 0.76845 0.0
O451 O 0.25286 0.74442 0.74303 0.0
O452 O 0.27408 0.76951 0.74685 0.0
O453 O 0.28465 0.7487 0.77925 0.0
C454 C 0.24905 0.76186 0.7997 0.0
C455 C 0.26552 0.75533 0.73641 0.0
Zn456 Zn 0.50866 0.01205 0.98838 0.0
Zn457 Zn 0.49785 0.00067 0.02508 0.0
C458 C 0.54078 0.03801 0.00107 0.0
O459 O 0.53065 0.04809 0.99161 0.0
C460 C 0.46571 0.97582 0.01083 0.0
O461 O 0.4748 0.96579 0.02149 0.0
O462 O 0.51305 0.01575 0.96131 0.0
O463 O 0.50271 0.98439 0.98829 0.0
O464 O 0.51567 0.98357 0.01708 0.0
C465 C 0.52633 0.00775 0.95575 0.0
O466 O 0.53475 -0.00173 0.9676 0.0
O467 O 0.5341 0.02122 0.00239 0.0
C468 C 0.47733 0.00586 0.05526 0.0
O469 O 0.47044 0.01512 0.04217 0.0
O470 O 0.49088 -0.00262 0.0516 0.0
O471 O 0.50575 0.02803 0.02576 0.0
O472 O 0.49093 0.02892 -0.00207 0.0
O473 O 0.47323 0.99228 0.00912 0.0
C474 C 0.51133 0.97602 0.00018 0.0
C475 C 0.49663 0.03661 0.01453 0.0
Zn476 Zn 0.26098 0.23941 0.25123 0.0
Zn477 Zn 0.25382 0.27603 0.27305 0.0
C478 C 0.28974 0.24993 0.22899 0.0
O479 O 0.27683 0.23952 0.21705 0.0
C480 C 0.22579 0.26316 0.29507 0.0
O481 O 0.23918 0.27228 0.30738 0.0
O482 O 0.26215 0.21266 0.24296 0.0
O483 O 0.25827 0.23877 0.27917 0.0
O484 O 0.273 0.26644 0.29007 0.0
C485 C 0.27687 0.20806 0.25077 0.0
O486 O 0.28843 0.22052 0.26213 0.0
O487 O 0.28627 0.25306 0.2462 0.0
C488 C 0.23873 0.30784 0.27223 0.0
O489 O 0.22961 0.2966 0.25798 0.0
O490 O 0.25158 0.30226 0.2823 0.0
O491 O 0.25728 0.2769 0.24509 0.0
O492 O 0.24209 0.24934 0.2343 0.0
O493 O 0.2285 0.26202 0.2775 0.0
C494 C 0.26836 0.24946 0.29228 0.0
C495 C 0.24746 0.26615 0.2318 0.0
Zn496 Zn 0.50668 0.48456 0.01483 0.0
Zn497 Zn 0.49517 0.5228 0.01211 0.0
C498 C 0.53391 0.49305 0.0458 0.0
O499 O 0.54358 0.48696 0.03228 0.0
C500 C 0.46895 0.5147 0.98013 0.0
O501 O 0.45944 0.52269 0.99263 0.0
O502 O 0.51058 0.45793 0.01386 0.0
O503 O 0.47874 0.48421 0.012 0.0
O504 O 0.47865 0.50996 0.03024 0.0
C505 C 0.49761 0.44432 0.00874 0.0
O506 O 0.4814 0.44739 0.00127 0.0
O507 O 0.51678 0.49422 0.04174 0.0
C508 C 0.50101 0.55696 -0.00112 0.0
O509 O 0.51035 0.54672 0.98824 0.0
O510 O 0.49225 0.5497 0.01197 0.0
O511 O 0.52297 0.52344 0.01589 0.0
O512 O 0.52313 0.49815 -0.00294 0.0
O513 O 0.4854 0.51202 0.98534 0.0
C514 C 0.47075 0.49376 0.02376 0.0
C515 C 0.53085 0.51438 0.00363 0.0
Zn516 Zn 0.75709 0.27802 0.2639 0.0
Zn517 Zn 0.75864 0.23751 0.26848 0.0
C518 C 0.72541 0.27228 0.23813 0.0
O519 O 0.73799 0.2822 0.22923 0.0
C520 C 0.79149 0.24291 0.29321 0.0
O521 O 0.77985 0.23229 0.30247 0.0
O522 O 0.75742 0.30569 0.26484 0.0
O523 O 0.76253 0.2727 0.29088 0.0
O524 O 0.74227 0.24699 0.28791 0.0
C525 C 0.74697 0.31164 0.27688 0.0
O526 O 0.73842 0.29997 0.28762 0.0
O527 O 0.7302 0.26783 0.25449 0.0
C528 C 0.7652 0.20185 0.25478 0.0
O529 O 0.77051 0.21137 0.24078 0.0
O530 O 0.75824 0.20986 0.2686 0.0
O531 O 0.75376 0.24259 0.24128 0.0
O532 O 0.77327 0.26889 0.24417 0.0
O533 O 0.78552 0.24787 0.27747 0.0
C534 C 0.75026 0.26168 0.29788 0.0
C535 C 0.76566 0.25402 0.23424 0.0
Zn536 Zn -0.00062 0.50439 0.48488 0.0
Zn537 Zn 0.00333 0.50362 0.5252 0.0
C538 C 0.03421 0.52717 0.48361 0.0
O539 O 0.02337 0.53506 0.47232 0.0
C540 C 0.96843 0.48097 0.52622 0.0
O541 O 0.97927 0.47279 0.53721 0.0
O542 O -0.00329 0.50324 0.45644 0.0
O543 O 0.99325 0.47824 0.49157 0.0
O544 O 0.01635 0.48322 0.51413 0.0
C545 C 0.00543 0.49143 0.44839 0.0
O546 O 0.01295 0.48015 0.45883 0.0
O547 O 0.02713 0.51291 0.491 0.0
C548 C -0.00237 0.51819 0.56101 0.0
O549 O 0.98972 0.5285 0.5497 0.0
O550 O 0.00605 0.50571 0.55374 0.0
O551 O 0.0102 0.52949 0.51804 0.0
O552 O 0.9863 0.52473 0.4964 0.0
O553 O 0.9756 0.49527 0.51895 0.0
C554 C 0.00611 0.4723 0.50124 0.0
C555 C -0.00262 0.53566 0.5086 0.0
Zn556 Zn 0.77679 0.75413 0.26074 0.0
Zn557 Zn 0.73804 0.75962 0.26497 0.0
C558 C 0.77015 0.73178 0.22609 0.0
O559 O 0.77984 0.72231 0.23682 0.0
C560 C 0.74361 0.7827 0.29891 0.0
O561 O 0.73502 0.79212 0.28714 0.0
O562 O 0.8042 0.75345 0.25903 0.0
O563 O 0.77509 0.7807 0.26872 0.0
O564 O 0.74975 0.77957 0.2495 0.0
C565 C 0.81127 0.76405 0.24731 0.0
O566 O 0.80076 0.7747 0.23921 0.0
O567 O 0.7661 0.74696 0.23333 0.0
C568 C 0.70148 0.74705 0.27328 0.0
O569 O 0.71013 0.73344 0.27784 0.0
O570 O 0.71046 0.76039 0.26581 0.0
O571 O 0.74022 0.73295 0.25749 0.0
O572 O 0.76579 0.73409 0.27634 0.0
O573 O 0.74749 0.76711 0.29264 0.0
C574 C 0.76496 0.78864 0.25778 0.0
C575 C 0.75052 0.72499 0.26824 0.0
Zn576 Zn 0.74795 0.25034 0.78681 0.0
Zn577 Zn 0.75806 0.25311 0.74722 0.0
C578 C 0.72325 0.2164 0.77854 0.0
O579 O 0.71276 0.2261 0.78835 0.0
C580 C 0.7837 0.28616 0.75463 0.0
O581 O 0.79389 0.27511 0.7462 0.0
O582 O 0.74427 0.24946 0.81459 0.0
O583 O 0.77567 0.25648 0.78539 0.0
O584 O 0.77536 0.23764 0.75953 0.0
C585 C 0.75652 0.25763 0.82758 0.0
O586 O 0.77082 0.26907 0.82293 0.0
O587 O 0.7396 0.22397 0.77561 0.0
C588 C 0.75126 0.26419 0.71178 0.0
O589 O 0.74108 0.27319 0.7227 0.0
O590 O 0.76092 0.25317 0.71914 0.0
O591 O 0.73034 0.24691 0.749 0.0
O592 O 0.73091 0.26607 0.77463 0.0
O593 O 0.76695 0.27975 0.75745 0.0
C594 C 0.78353 0.24522 0.7754 0.0
C595 C 0.72266 0.25846 0.75881 0.0
Zn596 Zn 0.75956 0.73769 0.75418 0.0
Zn597 Zn 0.75516 0.77626 0.77385 0.0
C598 C 0.78951 0.74751 0.73289 0.0
O599 O 0.77601 0.73984 0.71993 0.0
C600 C 0.72505 0.76678 0.79481 0.0
O601 O 0.73805 0.77614 0.8074 0.0
O602 O 0.75903 0.71039 0.74701 0.0
O603 O 0.75492 0.739 0.78196 0.0
O604 O 0.77248 0.76559 0.792 0.0
C605 C 0.77043 0.70426 0.7584 0.0
O606 O 0.7803 0.71583 0.77196 0.0
O607 O 0.78612 0.74878 0.75027 0.0
C608 C 0.74257 0.8091 0.77102 0.0
O609 O 0.73246 0.7974 0.75772 0.0
O610 O 0.75495 0.80331 0.78154 0.0
O611 O 0.75968 0.77554 0.74612 0.0
O612 O 0.74262 0.74868 0.73588 0.0
O613 O 0.72885 0.76425 0.77763 0.0
C614 C 0.76563 0.74925 0.79497 0.0
C615 C 0.74907 0.7652 0.7331 0.0
Zn616 Zn 0.52256 0.50441 0.52101 0.0
Zn617 Zn 0.48534 0.50847 0.50135 0.0
C618 C 0.51263 0.47245 0.53799 0.0
O619 O 0.5205 0.48464 0.55208 0.0
C620 C 0.49507 0.54057 0.48425 0.0
O621 O 0.48752 0.52838 0.47003 0.0
O622 O 0.5494 0.50373 0.53024 0.0
O623 O 0.52377 0.51143 0.4942 0.0
O624 O 0.49798 0.49294 0.48278 0.0
C625 C 0.55658 0.49315 0.51871 0.0
O626 O 0.54649 0.48555 0.50304 0.0
O627 O 0.51081 0.47767 0.52142 0.0
C628 C 0.45182 0.5204 0.5029 0.0
O629 O 0.46226 0.52851 0.51816 0.0
O630 O 0.45855 0.50907 0.49178 0.0
O631 O 0.4838 0.50204 0.52829 0.0
O632 O 0.5101 0.51957 0.54002 0.0
O633 O 0.49693 0.53525 0.50077 0.0
C634 C 0.51444 0.50079 0.48055 0.0
C635 C 0.49334 0.5124 0.54202 0.0
Zn636 Zn 0.98095 0.51554 0.02656 0.0
Zn637 Zn 0.01622 0.49977 0.01115 0.0
C638 C 0.0014 0.54784 0.04733 0.0
O639 O -0.00568 0.53915 0.06121 0.0
C640 C -0.0045 0.4666 0.99064 0.0
O641 O -0.00244 0.47651 0.97622 0.0
O642 O 0.95572 0.52241 0.03168 0.0
O643 O 0.97767 0.5062 -0.00092 0.0
O644 O 0.00637 0.51552 0.99196 0.0
C645 C 0.95193 0.53528 0.02193 0.0
O646 O 0.96432 0.54219 0.01078 0.0
O647 O -0.00153 0.53992 0.03047 0.0
C648 C 0.04784 0.4843 0.01823 0.0
O649 O 0.03684 0.47891 0.03126 0.0
O650 O 0.04224 0.49471 0.00636 0.0
O651 O 0.01809 0.50951 0.03881 0.0
O652 O 0.9895 0.49851 0.04486 0.0
O653 O 0.00129 0.47398 0.00734 0.0
C654 C 0.98876 0.51335 0.98776 0.0
C655 C 0.00702 0.50142 0.04962 0.0
H656 H 0.01741 0.2127 0.94544 0.0
H657 H 0.01931 0.18514 0.96202 0.0
H658 H 0.98728 0.15114 0.91446 0.0
H659 H 0.98532 0.17853 0.89777 0.0
H660 H 0.97638 0.14388 0.95297 0.0
H661 H 0.05226 0.14531 0.94377 0.0
H662 H 0.04507 0.16627 0.95354 0.0
H663 H 0.03768 0.15746 0.92932 0.0
C664 C 0.01062 0.19938 0.93858 0.0
C665 C 0.00129 0.19776 0.92025 0.0
C666 C 0.01179 0.18367 0.94804 0.0
C667 C 0.0036 0.16615 0.93934 0.0
C668 C -0.00627 0.16457 0.92135 0.0
H669 H 0.01154 0.05378 0.9469 0.0
H670 H 0.01387 0.0859 0.93991 0.0
C671 C 0.99264 0.18022 0.91184 0.0
C672 C 0.00568 0.14931 0.94861 0.0
H673 H 0.03703 0.12051 0.95848 0.0
C674 C 0.98967 0.13886 0.95444 0.0
C675 C 0.02304 0.14282 0.95032 0.0
C676 C 0.04054 0.15342 0.94384 0.0
C677 C 0.99047 0.12181 0.96159 0.0
C678 C 0.00776 0.11516 0.96299 0.0
C679 C 0.02387 0.12579 0.95753 0.0
C680 C 0.00889 0.09637 0.96825 0.0
C681 C 0.97268 0.11064 0.96683 0.0
C682 C 0.00599 0.0918 0.98671 0.0
C683 C 0.00474 0.07343 0.99079 0.0
C684 C 0.00623 0.05941 0.97641 0.0
C685 C 0.01018 0.06425 0.95823 0.0
C686 C 0.01155 0.08259 0.95422 0.0
H687 H 0.96005 0.11663 0.96251 0.0
H688 H 0.97101 0.09623 0.96003 0.0
H689 H 0.97347 0.11012 0.98246 0.0
H690 H 0.00408 0.10232 -0.00224 0.0
H691 H 0.00171 0.07013 0.00494 0.0
H692 H 0.08869 0.78872 0.14565 0.0
H693 H 0.11775 0.78771 0.16524 0.0
H694 H 0.08882 0.79308 0.21596 0.0
H695 H 0.05975 0.79396 0.19658 0.0
H696 H 0.13869 0.81175 0.19801 0.0
H697 H 0.10726 0.74188 0.21479 0.0
H698 H 0.09761 0.753 0.19555 0.0
H699 H 0.09377 0.76005 0.21966 0.0
C700 C 0.08861 0.79005 0.16099 0.0
C701 C 0.0719 0.79113 0.16958 0.0
C702 C 0.1052 0.78949 0.17213 0.0
C703 C 0.10527 0.79003 0.19197 0.0
C704 C 0.08893 0.7924 0.20064 0.0
H705 H 0.20329 0.78624 0.27131 0.0
H706 H 0.17448 0.79487 0.25682 0.0
C707 C 0.07236 0.79292 0.18954 0.0
C708 C 0.12187 0.78636 0.20343 0.0
H709 H 0.13763 0.75374 0.22884 0.0
C710 C 0.13849 0.79917 0.2049 0.0
C711 C 0.12148 0.76981 0.21217 0.0
C712 C 0.10415 0.75528 0.21041 0.0
C713 C 0.15485 0.79576 0.21488 0.0
C714 C 0.15442 0.7792 0.22361 0.0
C715 C 0.13777 0.7665 0.22227 0.0
C716 C 0.1715 0.774 0.23281 0.0
C717 C 0.17264 0.80951 0.21551 0.0
C718 C 0.17898 0.75919 0.22428 0.0
C719 C 0.19529 0.75422 0.23247 0.0
C720 C 0.20437 0.76392 0.24945 0.0
C721 C 0.19658 0.7785 0.25825 0.0
C722 C 0.18025 0.78353 0.24994 0.0
H723 H 0.17125 0.82038 0.20584 0.0
H724 H 0.17625 0.81629 0.23022 0.0
H725 H 0.18444 0.80238 0.21153 0.0
H726 H 0.17233 0.75163 0.21109 0.0
H727 H 0.20089 0.7429 0.22535 0.0
H728 H 0.49967 0.79522 0.43988 0.0
H729 H 0.49745 0.82369 0.45982 0.0
H730 H 0.50425 0.85466 0.41132 0.0
H731 H 0.50654 0.82649 0.39137 0.0
H732 H 0.52572 0.85649 0.46532 0.0
H733 H 0.4574 0.87051 0.43468 0.0
H734 H 0.46429 0.84791 0.43198 0.0
H735 H 0.47296 0.86527 0.41711 0.0
C736 C 0.50057 0.80807 0.43344 0.0
C737 C 0.5033 0.80858 0.41403 0.0
C738 C 0.49927 0.82429 0.44485 0.0
C739 C 0.50038 0.84117 0.43694 0.0
C740 C 0.503 0.84169 0.41759 0.0
H741 H 0.53662 0.95326 0.46746 0.0
H742 H 0.5305 0.92026 0.45726 0.0
C743 C 0.50446 0.82558 0.40625 0.0
C744 C 0.50005 0.85859 0.44895 0.0
H745 H 0.47801 0.89639 0.45189 0.0
C746 C 0.51508 0.86506 0.4627 0.0
C747 C 0.48605 0.86964 0.44563 0.0
C748 C 0.46915 0.86293 0.43167 0.0
C749 C 0.51717 0.88288 0.47226 0.0
C750 C 0.50392 0.89443 0.46787 0.0
C751 C 0.4882 0.8875 0.45512 0.0
C752 C 0.50741 0.91433 0.47457 0.0
C753 C 0.53392 0.88953 0.48644 0.0
C754 C 0.49618 0.92194 0.48747 0.0
C755 C 0.49969 0.94091 0.49344 0.0
C756 C 0.51427 0.9525 0.48632 0.0
C757 C 0.52525 0.94476 0.47319 0.0
C758 C 0.52187 0.92588 0.46742 0.0
H759 H 0.54003 0.87782 0.49177 0.0
H760 H 0.54486 0.89811 0.47948 0.0
H761 H 0.53005 0.8982 0.49871 0.0
H762 H 0.48486 0.9132 0.493 0.0
H763 H 0.49099 0.94649 0.50355 0.0
H764 H 0.46054 0.27565 0.65637 0.0
H765 H 0.43059 0.27601 0.67018 0.0
H766 H 0.44442 0.23664 0.70824 0.0
H767 H 0.47444 0.23642 0.69484 0.0
H768 H 0.40084 0.24801 0.6735 0.0
H769 H 0.43383 0.27918 0.74457 0.0
H770 H 0.44675 0.27836 0.72378 0.0
H771 H 0.44173 0.2582 0.73623 0.0
C772 C 0.45715 0.26698 0.66759 0.0
C773 C 0.46997 0.25618 0.67466 0.0
C774 C 0.44006 0.26722 0.67547 0.0
C775 C 0.43552 0.25667 0.69051 0.0
C776 C 0.44789 0.24525 0.69698 0.0
H777 H 0.338 0.24307 0.75606 0.0
H778 H 0.36794 0.24035 0.74288 0.0
C779 C 0.465 0.24508 0.68922 0.0
C780 C 0.41796 0.2578 0.6996 0.0
H781 H 0.40093 0.26957 0.7419 0.0
C782 C 0.40085 0.25275 0.68843 0.0
C783 C 0.41806 0.264 0.71911 0.0
C784 C 0.43607 0.27041 0.73161 0.0
C785 C 0.38377 0.2536 0.6963 0.0
C786 C 0.38391 0.25984 0.71577 0.0
C787 C 0.40097 0.26472 0.72699 0.0
C788 C 0.36643 0.26207 0.7245 0.0
C789 C 0.3657 0.24771 0.68381 0.0
C790 C 0.35609 0.27555 0.71889 0.0
C791 C 0.33914 0.27722 0.72643 0.0
C792 C 0.33221 0.26542 0.73972 0.0
C793 C 0.34295 0.25234 0.74583 0.0
C794 C 0.36 0.25073 0.7383 0.0
H795 H 0.36779 0.23944 0.67046 0.0
H796 H 0.35508 0.23945 0.69145 0.0
H797 H 0.36002 0.26016 0.67993 0.0
H798 H 0.36104 0.28463 0.70849 0.0
H799 H 0.33127 0.28751 0.72149 0.0
H800 H 0.01356 0.81771 0.62243 0.0
H801 H 0.0141 0.844 0.60367 0.0
H802 H -0.00553 0.80694 0.55316 0.0
H803 H -0.00554 0.78047 0.57176 0.0
H804 H 0.02197 0.83466 0.54623 0.0
H805 H 0.96783 0.86369 0.5852 0.0
H806 H 0.98774 0.86085 0.60056 0.0
H807 H 0.97311 0.84087 0.58789 0.0
C808 C 0.00935 0.81514 0.60733 0.0
C809 C 0.00378 0.79703 0.5986 0.0
C810 C 0.0096 0.83019 0.59663 0.0
C811 C 0.00395 0.82746 0.57708 0.0
C812 C -0.0012 0.80937 0.56824 0.0
H813 H 0.96976 0.9154 0.51711 0.0
H814 H 0.9718 0.88567 0.52909 0.0
C815 C -0.00126 0.79427 0.5789 0.0
C816 C 0.00311 0.8435 0.56597 0.0
H817 H 0.98385 0.88282 0.56439 0.0
C818 C 0.01355 0.84516 0.5501 0.0
C819 C 0.9919 0.85703 0.57087 0.0
C820 C 0.97936 0.85546 0.58693 0.0
C821 C 0.01334 0.86018 0.5392 0.0
C822 C 0.00269 0.87406 0.54457 0.0
C823 C 0.99209 0.87223 0.56031 0.0
C824 C 0.00204 0.89064 0.5342 0.0
C825 C 0.02423 0.86084 0.52188 0.0
C826 C 0.01842 0.9031 0.53243 0.0
C827 C 0.01729 0.92004 0.52522 0.0
C828 C -0.00027 0.92487 0.52007 0.0
C829 C 0.98347 0.91203 0.52103 0.0
C830 C 0.98462 0.89506 0.52792 0.0
H831 H 0.02682 0.84689 0.51652 0.0
H832 H 0.01673 0.8667 0.51025 0.0
H833 H 0.03803 0.86972 0.5257 0.0
H834 H 0.03199 0.90021 0.53756 0.0
H835 H 0.03003 0.9298 0.52486 0.0
H836 H 0.45427 0.75001 0.87708 0.0
H837 H 0.4213 0.74773 0.86536 0.0
H838 H 0.43728 0.78189 0.82108 0.0
H839 H 0.47023 0.78414 0.83251 0.0
H840 H 0.39997 0.77698 0.86074 0.0
H841 H 0.40466 0.73537 0.79233 0.0
H842 H 0.42249 0.7379 0.81197 0.0
H843 H 0.42138 0.75627 0.7971 0.0
C844 C 0.45079 0.75701 0.86483 0.0
C845 C 0.46491 0.76716 0.85567 0.0
C846 C 0.43196 0.75572 0.85818 0.0
C847 C 0.42693 0.76444 0.84222 0.0
C848 C 0.44092 0.7748 0.83322 0.0
H849 H 0.31893 0.76432 0.7792 0.0
H850 H 0.35208 0.77131 0.79117 0.0
C851 C 0.45974 0.77612 0.83984 0.0
C852 C 0.40701 0.76277 0.83504 0.0
H853 H 0.3758 0.74553 0.79691 0.0
C854 C 0.39465 0.77011 0.84679 0.0
C855 C 0.40021 0.75388 0.81679 0.0
C856 C 0.4128 0.74526 0.80383 0.0
C857 C 0.37559 0.76884 0.84075 0.0
C858 C 0.36872 0.7597 0.82263 0.0
C859 C 0.38115 0.75259 0.81077 0.0
C860 C 0.34854 0.75652 0.81602 0.0
C861 C 0.36302 0.77747 0.85373 0.0
C862 C 0.33563 0.74586 0.82601 0.0
C863 C 0.31675 0.74187 0.81925 0.0
C864 C 0.31043 0.74835 0.80227 0.0
C865 C 0.32336 0.75917 0.79235 0.0
C866 C 0.34228 0.76316 0.79915 0.0
H867 H 0.37116 0.78838 0.86428 0.0
H868 H 0.35233 0.7836 0.84551 0.0
H869 H 0.35563 0.76667 0.86168 0.0
H870 H 0.34024 0.74025 0.83883 0.0
H871 H 0.30718 0.73342 0.82719 0.0
H872 H 0.48912 0.17114 0.12444 0.0
H873 H 0.48506 0.14431 0.10084 0.0
H874 H 0.48202 0.17961 0.05577 0.0
H875 H 0.4862 0.20673 0.07936 0.0
H876 H 0.45616 0.13082 0.0699 0.0
H877 H 0.52721 0.15195 0.04604 0.0
H878 H 0.52021 0.16188 0.06808 0.0
H879 H 0.51125 0.1684 0.04586 0.0
C880 C 0.48743 0.17326 0.10953 0.0
C881 C 0.48819 0.19113 0.10379 0.0
C882 C 0.48503 0.15788 0.09606 0.0
C883 C 0.48343 0.16002 0.0766 0.0
C884 C 0.48342 0.17772 0.07075 0.0
H885 H 0.47436 0.05818 -0.00337 0.0
H886 H 0.46908 0.08934 0.00826 0.0
C887 C 0.48575 0.19318 0.08425 0.0
C888 C 0.48306 0.14371 0.06268 0.0
H889 H 0.51129 0.12249 0.03445 0.0
C890 C 0.46799 0.12912 0.06176 0.0
C891 C 0.49861 0.14155 0.05224 0.0
C892 C 0.51534 0.15668 0.05308 0.0
C893 C 0.46846 0.11209 0.05133 0.0
C894 C 0.48439 0.10968 0.04165 0.0
C895 C 0.49904 0.12453 0.04179 0.0
C896 C 0.48746 0.09116 0.03403 0.0
C897 C 0.45254 0.09636 0.05166 0.0
C898 C 0.49958 0.08209 0.04466 0.0
C899 C 0.50252 0.06444 0.03819 0.0
C900 C 0.4935 0.05551 0.02084 0.0
C901 C 0.48151 0.06472 0.01003 0.0
C902 C 0.47846 0.08246 0.01664 0.0
H903 H 0.44111 0.10049 0.05987 0.0
H904 H 0.44667 0.09125 0.0369 0.0
H905 H 0.45782 0.08472 0.05806 0.0
H906 H 0.50663 0.08863 0.05812 0.0
H907 H 0.5119 0.05781 0.04685 0.0
H908 H 0.08695 0.24775 0.39539 0.0
H909 H 0.1159 0.24647 0.37995 0.0
H910 H 0.08514 0.24263 0.32495 0.0
H911 H 0.05608 0.24365 0.34024 0.0
H912 H 0.11246 0.21864 0.32701 0.0
H913 H 0.14141 0.29104 0.35508 0.0
H914 H 0.13425 0.27634 0.37299 0.0
H915 H 0.11703 0.28141 0.35553 0.0
C916 C 0.08633 0.24651 0.38001 0.0
C917 C 0.06928 0.24601 0.36904 0.0
C918 C 0.10287 0.24583 0.37122 0.0
C919 C 0.10267 0.24475 0.35134 0.0
C920 C 0.08558 0.24353 0.34032 0.0
H921 H 0.19158 0.25372 0.27435 0.0
H922 H 0.16094 0.24689 0.28706 0.0
C923 C 0.06902 0.24417 0.34909 0.0
C924 C 0.12039 0.24576 0.34209 0.0
H925 H 0.16189 0.2739 0.33942 0.0
C926 C 0.12328 0.23072 0.32964 0.0
C927 C 0.13435 0.26164 0.34543 0.0
C928 C 0.1316 0.27861 0.35784 0.0
C929 C 0.14009 0.23093 0.32088 0.0
C930 C 0.15416 0.24667 0.32455 0.0
C931 C 0.15111 0.26179 0.33676 0.0
C932 C 0.1724 0.24787 0.31627 0.0
C933 C 0.14287 0.21422 0.30814 0.0
C934 C 0.18892 0.25043 0.32844 0.0
C935 C 0.2063 0.25446 0.32128 0.0
C936 C 0.20753 0.25605 0.30179 0.0
C937 C 0.19104 0.2525 0.28942 0.0
C938 C 0.17356 0.24854 0.29665 0.0
H939 H 0.13242 0.20191 0.30986 0.0
H940 H 0.14137 0.21722 0.2931 0.0
H941 H 0.15716 0.2109 0.31114 0.0
H942 H 0.18831 0.24995 0.34362 0.0
H943 H 0.21877 0.25693 0.33115 0.0
H944 H 0.88162 0.01501 0.17189 0.0
H945 H 0.899 0.0169 0.14357 0.0
H946 H 0.95093 0.03171 0.17919 0.0
H947 H 0.93375 0.02953 0.20752 0.0
H948 H 0.92338 0.04584 0.13133 0.0
H949 H 0.96011 0.98687 0.14522 0.0
H950 H 0.94033 0.99179 0.15768 0.0
H951 H 0.96322 0.00496 0.16445 0.0
C952 C 0.89674 0.01872 0.17369 0.0
C953 C 0.90633 0.02193 0.19194 0.0
C954 C 0.90664 0.01981 0.1575 0.0
C955 C 0.92628 0.0241 0.15928 0.0
C956 C 0.93582 0.02796 0.17749 0.0
H957 H 0.00847 0.02723 0.0748 0.0
H958 H 0.9932 0.03144 0.10428 0.0
C959 C 0.92595 0.0268 0.19366 0.0
C960 C 0.9368 0.02427 0.1421 0.0
H961 H 0.9692 0.00342 0.11945 0.0
C962 C 0.9334 0.03657 0.12872 0.0
C963 C 0.94989 0.01218 0.13875 0.0
C964 C 0.95352 -0.00192 0.15217 0.0
C965 C 0.94282 0.03716 0.1121 0.0
C966 C 0.95577 0.02496 0.10869 0.0
C967 C 0.95935 0.01284 0.12218 0.0
C968 C 0.965 0.02378 0.09074 0.0
C969 C 0.93893 0.05093 0.09839 0.0
C970 C 0.9542 0.01807 0.07341 0.0
C971 C 0.96284 0.01561 0.05661 0.0
C972 C 0.9825 0.01876 0.0568 0.0
C973 C -0.00669 0.02478 0.07415 0.0
C974 C 0.98462 0.02716 0.091 0.0
H975 H 0.93286 0.06249 0.10539 0.0
H976 H 0.95191 0.05671 0.09218 0.0
H977 H 0.92868 0.04389 0.08661 0.0
H978 H 0.93906 0.01504 0.07293 0.0
H979 H 0.95408 0.01094 0.04351 0.0
H980 H 0.26085 0.64408 0.45332 0.0
H981 H 0.25858 0.66305 0.42694 0.0
H982 H 0.25836 0.71095 0.46662 0.0
H983 H 0.26093 0.69212 0.49316 0.0
H984 H 0.23045 0.68375 0.41755 0.0
H985 H 0.30029 0.72806 0.43319 0.0
H986 H 0.29415 0.70688 0.4439 0.0
H987 H 0.2853 0.72732 0.4523 0.0
C988 C 0.26043 0.65867 0.45645 0.0
C989 C 0.26118 0.66662 0.47532 0.0
C990 C 0.25907 0.66947 0.44137 0.0
C991 C 0.25847 0.68841 0.44485 0.0
C992 C 0.2591 0.69641 0.46365 0.0
H993 H 0.23241 0.74837 0.34605 0.0
H994 H 0.23166 0.73865 0.3783 0.0
C995 C 0.26052 0.68562 0.47878 0.0
C996 C 0.25708 0.69962 0.42865 0.0
H997 H 0.28159 0.73356 0.40643 0.0
C998 C 0.24151 0.6948 0.41519 0.0
C999 C 0.27157 0.71397 0.42567 0.0
C1000 C 0.28887 0.71935 0.43942 0.0
C1001 C 0.24035 0.70351 0.39844 0.0
C1002 C 0.25504 0.71759 0.39526 0.0
C1003 C 0.27028 0.72287 0.40905 0.0
C1004 C 0.25609 0.72516 0.37667 0.0
C1005 C 0.22394 0.6969 0.38381 0.0
C1006 C 0.27038 0.7213 0.36541 0.0
C1007 C 0.27087 0.72683 0.34717 0.0
C1008 C 0.25709 0.73641 0.33978 0.0
C1009 C 0.24316 0.74094 0.35133 0.0
C1010 C 0.24266 0.73533 0.36969 0.0
H1011 H 0.21531 0.68399 0.38721 0.0
H1012 H 0.21485 0.7077 0.38322 0.0
H1013 H 0.22887 0.69439 0.36949 0.0
H1014 H 0.28088 0.7135 0.37055 0.0
H1015 H 0.2819 0.72326 0.33872 0.0
H1016 H 0.61979 0.9773 0.6737 0.0
H1017 H 0.59778 0.97605 0.64552 0.0
H1018 H 0.55379 0.94708 0.67448 0.0
H1019 H 0.57555 0.94875 0.70284 0.0
H1020 H 0.57233 0.94938 0.62131 0.0
H1021 H 0.53616 -0.00376 0.6663 0.0
H1022 H 0.55872 0.99063 0.67381 0.0
H1023 H 0.53778 0.97433 0.67499 0.0
C1024 C 0.60557 0.97022 0.67386 0.0
C1025 C 0.59925 0.96342 0.69052 0.0
C1026 C 0.59301 0.96953 0.65777 0.0
C1027 C 0.57408 0.96188 0.65814 0.0
C1028 C 0.56825 0.9534 0.67409 0.0
H1029 H 0.49406 0.96708 0.55918 0.0
H1030 H 0.50859 0.95478 0.58672 0.0
C1031 C 0.5807 0.95431 0.69023 0.0
C1032 C 0.56013 0.9649 0.64292 0.0
H1033 H 0.52427 0.98902 0.63442 0.0
C1034 C 0.56164 0.95781 0.62416 0.0
C1035 C 0.54636 0.97614 0.64674 0.0
C1036 C 0.54468 0.98493 0.6665 0.0
C1037 C 0.54999 0.96205 0.609 0.0
C1038 C 0.5364 0.97344 0.61285 0.0
C1039 C 0.53455 0.98007 0.63164 0.0
C1040 C 0.52588 0.98079 0.59746 0.0
C1041 C 0.5529 0.95514 0.58892 0.0
C1042 C 0.53026 -0.00043 0.59497 0.0
C1043 C 0.52202 0.00657 0.57943 0.0
C1044 C 0.50914 0.99494 0.56617 0.0
C1045 C 0.50385 0.97636 0.56929 0.0
C1046 C 0.51226 0.96929 0.58485 0.0
H1047 H 0.56566 0.94855 0.58821 0.0
H1048 H 0.5406 0.94481 0.58294 0.0
H1049 H 0.55407 0.96668 0.57979 0.0
H1050 H 0.54068 0.00866 0.60463 0.0
H1051 H 0.52632 0.02096 0.57736 0.0
H1052 H 0.24838 0.33086 0.97975 0.0
H1053 H 0.25146 0.31078 0.95092 0.0
H1054 H 0.25197 0.35714 0.91782 0.0
H1055 H 0.24884 0.37719 0.94628 0.0
H1056 H 0.2258 0.30497 0.91673 0.0
H1057 H 0.29813 0.33359 0.90268 0.0
H1058 H 0.28938 0.33677 0.92578 0.0
H1059 H 0.28375 0.35098 0.90752 0.0
C1060 C 0.24928 0.33679 0.96634 0.0
C1061 C 0.24835 0.35564 0.96533 0.0
C1062 C 0.25105 0.32531 0.94992 0.0
C1063 C 0.25225 0.33256 0.93233 0.0
C1064 C 0.25143 0.35135 0.93133 0.0
H1065 H 0.22326 0.30257 0.81726 0.0
H1066 H 0.22723 0.31215 0.85128 0.0
C1067 C 0.24949 0.36276 0.94762 0.0
C1068 C 0.25313 0.32051 0.91465 0.0
H1069 H 0.27827 0.3169 0.87597 0.0
C1070 C 0.23744 0.30725 0.908 0.0
C1071 C 0.26841 0.32339 0.90337 0.0
C1072 C 0.28597 0.33684 0.91026 0.0
C1073 C 0.23608 0.29777 0.88974 0.0
C1074 C 0.25074 0.30174 0.8779 0.0
C1075 C 0.267 0.31399 0.88506 0.0
C1076 C 0.24835 0.29521 0.85739 0.0
C1077 C 0.21864 0.28415 0.8829 0.0
C1078 C 0.25916 0.28268 0.84951 0.0
C1079 C 0.25687 0.27705 0.82993 0.0
C1080 C 0.24397 0.28416 0.81798 0.0
C1081 C 0.23336 0.29685 0.82601 0.0
C1082 C 0.23551 0.30227 0.84549 0.0
H1083 H 0.21111 0.27905 0.89497 0.0
H1084 H 0.20904 0.29103 0.8741 0.0
H1085 H 0.22211 0.27217 0.87397 0.0
H1086 H 0.26927 0.27722 0.8585 0.0
H1087 H 0.26526 0.26729 0.82414 0.0
H1088 H 0.93979 0.98961 0.29437 0.0
H1089 H 0.95058 0.99083 0.32791 0.0
H1090 H 0.90422 0.01771 0.34326 0.0
H1091 H 0.89343 0.01687 0.30958 0.0
H1092 H 0.93792 0.03442 0.36228 0.0
H1093 H 0.92824 0.95882 0.36692 0.0
H1094 H 0.94248 0.96613 0.34847 0.0
H1095 H 0.91819 0.96883 0.34706 0.0
C1096 C 0.9318 0.99574 0.30484 0.0
C1097 C 0.91566 0.00307 0.29925 0.0
C1098 C 0.93794 -0.0037 0.32404 0.0
C1099 C 0.928 0.00401 0.33811 0.0
C1100 C 0.91202 0.01156 0.33262 0.0
H1101 H 0.94144 0.02173 0.46094 0.0
H1102 H 0.93029 0.01856 0.42732 0.0
C1103 C 0.90588 0.01107 0.31337 0.0
C1104 C 0.93465 0.00473 0.3585 0.0
H1105 H 0.94511 0.9779 0.39345 0.0
C1106 C 0.93938 0.02206 0.36912 0.0
C1107 C 0.93661 0.98857 0.36738 0.0
C1108 C 0.93095 0.96952 0.35694 0.0
C1109 C 0.94629 0.0237 0.38832 0.0
C1110 C 0.9483 0.00756 0.39716 0.0
C1111 C 0.94362 0.99023 0.38656 0.0
C1112 C 0.95477 0.00846 0.41757 0.0
C1113 C 0.95166 0.0427 0.39894 0.0
C1114 C 0.97201 0.00326 0.42325 0.0
C1115 C 0.97847 0.00504 0.44254 0.0
C1116 C 0.9677 0.01192 0.45642 0.0
C1117 C 0.95016 0.0165 0.45064 0.0
C1118 C 0.94377 0.01478 0.43141 0.0
H1119 H 0.95339 0.05366 0.38913 0.0
H1120 H 0.94049 0.04542 0.4082 0.0
H1121 H 0.96492 0.04365 0.40814 0.0
H1122 H 0.98063 -0.00176 0.41273 0.0
H1123 H 0.99201 0.00135 0.44653 0.0
H1124 H 0.27422 0.68128 0.57151 0.0
H1125 H 0.27995 0.703 0.60014 0.0
H1126 H 0.30068 0.66152 0.63142 0.0
H1127 H 0.29378 0.63937 0.603 0.0
H1128 H 0.27653 0.67417 0.64968 0.0
H1129 H 0.32208 0.73525 0.63024 0.0
H1130 H 0.30194 0.72982 0.61336 0.0
H1131 H 0.31808 0.71356 0.61538 0.0
C1132 C 0.28039 0.67693 0.5844 0.0
C1133 C 0.28345 0.65862 0.5851 0.0
C1134 C 0.28386 0.68945 0.60076 0.0
C1135 C 0.29105 0.68408 0.61798 0.0
C1136 C 0.29515 0.66605 0.61834 0.0
H1137 H 0.30101 0.75796 0.72499 0.0
H1138 H 0.31007 0.74182 0.696 0.0
C1139 C 0.29119 0.65338 0.60211 0.0
C1140 C 0.29159 0.69622 0.63602 0.0
H1141 H 0.30193 0.74112 0.65568 0.0
C1142 C 0.2825 0.68871 0.65105 0.0
C1143 C 0.29959 0.71518 0.63814 0.0
C1144 C 0.31115 0.72382 0.62346 0.0
C1145 C 0.28022 0.69976 0.66755 0.0
C1146 C 0.28651 0.71901 0.6688 0.0
C1147 C 0.29667 0.72642 0.65442 0.0
C1148 C 0.28153 0.73149 0.68447 0.0
C1149 C 0.27075 0.69071 0.68339 0.0
C1150 C 0.26257 0.73179 0.68699 0.0
C1151 C 0.25744 0.74073 0.70346 0.0
C1152 C 0.27118 0.74989 0.71751 0.0
C1153 C 0.29019 0.75106 0.71425 0.0
C1154 C 0.29536 0.74181 0.69779 0.0
H1155 H 0.2723 0.67591 0.68299 0.0
H1156 H 0.27659 0.69778 0.69755 0.0
H1157 H 0.25555 0.69143 0.6817 0.0
H1158 H 0.25171 0.72425 0.67665 0.0
H1159 H 0.24269 0.73978 0.70563 0.0
H1160 H 0.56605 0.01829 0.78138 0.0
H1161 H 0.5542 0.02289 0.8125 0.0
H1162 H 0.59778 -0.00365 0.83735 0.0
H1163 H 0.60997 0.99192 0.8063 0.0
H1164 H 0.54093 0.99583 0.83463 0.0
H1165 H 0.6012 0.04347 0.87327 0.0
H1166 H 0.59851 0.03895 0.84767 0.0
H1167 H 0.60765 0.02284 0.86198 0.0
C1168 C 0.57324 0.01355 0.79347 0.0
C1169 C 0.58898 0.00473 0.79135 0.0
C1170 C 0.56644 0.01621 0.81124 0.0
C1171 C 0.57527 0.0102 0.82723 0.0
C1172 C 0.59102 0.00146 0.82523 0.0
H1173 H 0.55519 0.99333 0.94114 0.0
H1174 H 0.56603 0.99561 0.90959 0.0
C1175 C 0.59788 -0.00117 0.80745 0.0
C1176 C 0.56737 0.01211 0.84579 0.0
H1177 H 0.57836 0.02909 0.89228 0.0
C1178 C 0.54899 0.00331 0.8472 0.0
C1179 C 0.57793 0.02195 0.8621 0.0
C1180 C 0.59735 0.0325 0.86119 0.0
C1181 C 0.54118 0.0034 0.86471 0.0
C1182 C 0.552 0.0127 0.88111 0.0
C1183 C 0.57015 0.02196 0.87962 0.0
C1184 C 0.54527 0.01179 0.90019 0.0
C1185 C 0.52175 0.99292 0.86572 0.0
C1186 C 0.53005 0.02026 0.90531 0.0
C1187 C 0.52377 0.01899 0.92341 0.0
C1188 C 0.53266 0.00924 0.93657 0.0
C1189 C 0.54798 0.0009 0.93134 0.0
C1190 C 0.55425 0.00222 0.91334 0.0
H1191 H 0.51645 0.98406 0.85232 0.0
H1192 H 0.5216 0.98409 0.87763 0.0
H1193 H 0.51197 0.00287 0.86843 0.0
H1194 H 0.5231 0.02788 0.89535 0.0
H1195 H 0.51199 0.02562 0.92708 0.0
H1196 H 0.23524 0.319 0.06078 0.0
H1197 H 0.23307 0.30085 0.08811 0.0
H1198 H 0.2484 0.35083 0.12618 0.0
H1199 H 0.25044 0.36906 0.09904 0.0
H1200 H 0.26046 0.29841 0.1177 0.0
H1201 H 0.19988 0.32612 0.1457 0.0
H1202 H 0.20652 0.32894 0.12195 0.0
H1203 H 0.21881 0.34382 0.14193 0.0
C1204 C 0.23815 0.32613 0.07497 0.0
C1205 C 0.24291 0.34549 0.07774 0.0
C1206 C 0.2369 0.31573 0.09057 0.0
C1207 C 0.24023 0.32451 0.10918 0.0
C1208 C 0.24536 0.3438 0.11195 0.0
H1209 H 0.25264 0.30195 0.22403 0.0
H1210 H 0.24926 0.31389 0.19324 0.0
C1211 C 0.24663 0.35419 0.09641 0.0
C1212 C 0.23869 0.31361 0.12578 0.0
H1213 H 0.21705 0.30988 0.16678 0.0
C1214 C 0.25079 0.30069 0.12832 0.0
C1215 C 0.22597 0.31654 0.13954 0.0
C1216 C 0.21192 0.32947 0.13709 0.0
C1217 C 0.2512 0.29133 0.14475 0.0
C1218 C 0.23899 0.29483 0.15884 0.0
C1219 C 0.22642 0.30724 0.15596 0.0
C1220 C 0.2402 0.2871 0.17743 0.0
C1221 C 0.26529 0.27847 0.14736 0.0
C1222 C 0.2359 0.26804 0.17884 0.0
C1223 C 0.23778 0.26109 0.19655 0.0
C1224 C 0.24404 0.27314 0.21309 0.0
C1225 C 0.2479 0.29225 0.21159 0.0
C1226 C 0.24594 0.29913 0.19399 0.0
H1227 H 0.27574 0.2796 0.13664 0.0
H1228 H 0.27283 0.28141 0.16178 0.0
H1229 H 0.25786 0.26401 0.14593 0.0
H1230 H 0.23118 0.25854 0.16625 0.0
H1231 H 0.23469 0.24632 0.19724 0.0
H1232 H 0.17106 0.8811 0.0266 0.0
H1233 H 0.14603 0.89863 0.0343 0.0
H1234 H 0.18693 0.94785 0.04923 0.0
H1235 H 0.21193 0.93058 0.04095 0.0
H1236 H 0.13828 0.91915 0.0663 0.0
H1237 H 0.15311 0.9639 0.00826 0.0
H1238 H 0.16358 0.94346 0.01062 0.0
H1239 H 0.1725 0.96442 0.02566 0.0
C1240 C 0.17472 0.89563 0.03163 0.0
C1241 C 0.19339 0.90454 0.03288 0.0
C1242 C 0.16042 0.90562 0.03607 0.0
C1243 C 0.1646 0.92463 0.04195 0.0
C1244 C 0.18336 0.93331 0.04424 0.0
H1245 H 0.08126 -0.00013 0.04754 0.0
H1246 H 0.1106 0.9882 0.0556 0.0
C1247 C 0.19761 0.9234 0.03957 0.0
C1248 C 0.1492 0.93545 0.04466 0.0
H1249 H 0.12832 0.96933 0.02634 0.0
C1250 C 0.13621 0.93025 0.05771 0.0
C1251 C 0.14655 0.95 0.03347 0.0
C1252 C 0.15956 0.95572 0.01859 0.0
C1253 C 0.12031 0.93881 0.05943 0.0
C1254 C 0.11735 0.95284 0.04775 0.0
C1255 C 0.13078 0.95867 0.03539 0.0
C1256 C 0.09925 0.95969 0.04592 0.0
C1257 C 0.10656 0.93248 0.07337 0.0
C1258 C 0.08326 0.9475 0.03798 0.0
C1259 C 0.06673 0.95412 0.03316 0.0
C1260 C 0.06585 0.97306 0.03626 0.0
C1261 C 0.08159 0.9852 0.04507 0.0
C1262 C 0.09829 0.97857 0.04967 0.0
H1263 H 0.11334 0.926 0.08502 0.0
H1264 H 0.10023 0.94419 0.07966 0.0
H1265 H 0.09512 0.92203 0.06584 0.0
H1266 H 0.08381 0.93296 0.03464 0.0
H1267 H 0.05477 0.94443 0.0265 0.0
H1268 H 0.67679 0.62517 0.98564 0.0
H1269 H 0.646 0.60593 0.98475 0.0
H1270 H 0.66946 0.5581 0.96473 0.0
H1271 H 0.70039 0.57713 0.96614 0.0
H1272 H 0.62258 0.58347 0.95713 0.0
H1273 H 0.64777 0.54221 0.01273 0.0
H1274 H 0.66153 0.56313 0.00684 0.0
H1275 H 0.66032 0.54187 0.99184 0.0
C1276 C 0.67535 0.61059 0.98086 0.0
C1277 C 0.69105 0.6026 0.97622 0.0
C1278 C 0.65776 0.59961 0.98036 0.0
C1279 C 0.65554 0.5805 0.97512 0.0
C1280 C 0.67096 0.57272 0.96933 0.0
H1281 H 0.5555 0.49779 0.98299 0.0
H1282 H 0.58562 0.51255 0.97332 0.0
C1283 C 0.68859 0.58364 0.97003 0.0
C1284 C 0.63731 0.5687 0.97661 0.0
H1285 H 0.61628 0.53389 0.00033 0.0
C1286 C 0.62123 0.57255 0.96647 0.0
C1287 C 0.63556 0.55445 0.98883 0.0
C1288 C 0.65216 0.55023 0.00082 0.0
C1289 C 0.60341 0.56273 0.96848 0.0
C1290 C 0.60167 0.5488 0.98099 0.0
C1291 C 0.61776 0.54451 0.99064 0.0
C1292 C 0.58317 0.53988 0.9858 0.0
C1293 C 0.58652 0.56749 0.95744 0.0
C1294 C 0.57206 0.55036 -0.00383 0.0
C1295 C 0.55509 0.542 0.00188 0.0
C1296 C 0.54882 0.52297 -0.00275 0.0
C1297 C 0.55992 0.51248 0.9867 0.0
C1298 C 0.57708 0.52087 0.98117 0.0
H1299 H 0.5905 0.57504 0.94509 0.0
H1300 H 0.57638 0.55483 0.95228 0.0
H1301 H 0.57938 0.57647 0.9669 0.0
H1302 H 0.57668 0.56499 0.00015 0.0
H1303 H 0.54689 0.55051 0.00996 0.0
H1304 H 0.69609 0.47463 0.27882 0.0
H1305 H 0.71484 0.44962 0.27792 0.0
H1306 H 0.66465 0.40976 0.27801 0.0
H1307 H 0.64579 0.43461 0.27871 0.0
H1308 H 0.71843 0.42292 0.30313 0.0
H1309 H 0.68916 0.39048 0.23146 0.0
H1310 H 0.68605 0.41346 0.24039 0.0
H1311 H 0.67154 0.39359 0.24745 0.0
C1312 C 0.68904 0.46054 0.27869 0.0
C1313 C 0.66942 0.4566 0.27873 0.0
C1314 C 0.69978 0.44628 0.27817 0.0
C1315 C 0.69111 0.42782 0.27754 0.0
C1316 C 0.67159 0.42388 0.27806 0.0
H1317 H 0.72939 0.32892 0.3041 0.0
H1318 H 0.71876 0.35872 0.30395 0.0
C1319 C 0.66085 0.43812 0.2786 0.0
C1320 C 0.70241 0.41263 0.27651 0.0
H1321 H 0.70672 0.37257 0.2502 0.0
C1322 C 0.71602 0.41201 0.29147 0.0
C1323 C 0.69953 0.3986 0.26111 0.0
C1324 C 0.68591 0.39911 0.24409 0.0
C1325 C 0.72619 0.39724 0.29187 0.0
C1326 C 0.72246 0.38263 0.27703 0.0
C1327 C 0.70949 0.38371 0.26164 0.0
C1328 C 0.73071 0.36544 0.27788 0.0
C1329 C 0.74072 0.39735 0.30825 0.0
C1330 C 0.74093 0.35921 0.26319 0.0
C1331 C 0.74703 0.34204 0.26319 0.0
C1332 C 0.74276 0.33074 0.27776 0.0
C1333 C 0.73293 0.33727 0.29266 0.0
C1334 C 0.72695 0.3544 0.29269 0.0
H1335 H 0.7461 0.41163 0.31483 0.0
H1336 H 0.73426 0.38941 0.31934 0.0
H1337 H 0.75271 0.39086 0.30361 0.0
H1338 H 0.74386 0.36747 0.25155 0.0
H1339 H 0.75447 0.33734 0.25146 0.0
H1340 H 0.80204 0.39319 0.51919 0.0
H1341 H 0.83536 0.4061 0.52118 0.0
H1342 H 0.82313 0.44726 0.48463 0.0
H1343 H 0.78979 0.43463 0.48268 0.0
H1344 H 0.85987 0.41165 0.49175 0.0
H1345 H 0.85167 0.47758 0.53262 0.0
H1346 H 0.83364 0.45747 0.5299 0.0
H1347 H 0.83699 0.47166 0.51072 0.0
C1348 C 0.80642 0.40494 0.5115 0.0
C1349 C 0.79322 0.41298 0.50091 0.0
C1350 C 0.82546 0.41228 0.51265 0.0
C1351 C 0.8316 0.42779 0.5033 0.0
C1352 C 0.81858 0.43549 0.49223 0.0
H1353 H 0.94207 0.49434 0.50411 0.0
H1354 H 0.90887 0.48121 0.4971 0.0
C1355 C 0.79955 0.42819 0.49108 0.0
C1356 C 0.85162 0.43608 0.50541 0.0
H1357 H 0.88189 0.47491 0.5235 0.0
C1358 C 0.86472 0.42548 0.49867 0.0
C1359 C 0.85781 0.45414 0.5144 0.0
C1360 C 0.84435 0.46587 0.52248 0.0
C1361 C 0.88394 0.43251 0.50065 0.0
C1362 C 0.89015 0.45046 0.5099 0.0
C1363 C 0.87702 0.46116 0.51638 0.0
C1364 C 0.91027 0.45814 0.51372 0.0
C1365 C 0.89742 0.42074 0.4927 0.0
C1366 C 0.9219 0.44962 0.52557 0.0
C1367 C 0.9408 0.45707 0.52962 0.0
C1368 C 0.94838 0.47325 0.52196 0.0
C1369 C 0.93665 0.48184 0.51019 0.0
C1370 C 0.91771 0.47437 0.50616 0.0
H1371 H 0.89025 0.40975 0.48167 0.0
H1372 H 0.90892 0.42927 0.48641 0.0
H1373 H 0.90373 0.41395 0.50435 0.0
H1374 H 0.9163 0.4373 0.53187 0.0
H1375 H 0.94944 0.45016 0.53881 0.0
H1376 H 0.36688 0.08543 0.2743 0.0
H1377 H 0.34729 0.10864 0.26759 0.0
H1378 H 0.29903 0.06599 0.25477 0.0
H1379 H 0.31856 0.04253 0.26157 0.0
H1380 H 0.32566 0.10773 0.23054 0.0
H1381 H 0.28203 0.10686 0.29217 0.0
H1382 H 0.30432 0.09872 0.29319 0.0
H1383 H 0.28443 0.08523 0.27931 0.0
C1384 C 0.35205 0.08096 0.27033 0.0
C1385 C 0.34427 0.06214 0.26844 0.0
C1386 C 0.3409 0.09424 0.26645 0.0
C1387 C 0.32176 0.08899 0.26071 0.0
C1388 C 0.31376 0.07029 0.25935 0.0
H1389 H 0.25251 0.1757 0.23986 0.0
H1390 H 0.26011 0.14413 0.23861 0.0
C1391 C 0.32494 0.05694 0.26322 0.0
C1392 C 0.31063 0.10321 0.25524 0.0
H1393 H 0.27929 0.12972 0.2715 0.0
C1394 C 0.31526 0.11233 0.23928 0.0
C1395 C 0.29692 0.10897 0.26655 0.0
C1396 C 0.29157 0.09955 0.28383 0.0
C1397 C 0.30732 0.12781 0.23496 0.0
C1398 C 0.29465 0.13441 0.24706 0.0
C1399 C 0.28901 0.12454 0.26225 0.0
C1400 C 0.28978 0.15308 0.24616 0.0
C1401 C 0.31318 0.13748 0.21798 0.0
C1402 C 0.30394 0.16838 0.25078 0.0
C1403 C 0.29966 0.1862 0.25167 0.0
C1404 C 0.28112 0.18911 0.24788 0.0
C1405 C 0.26694 0.17381 0.24271 0.0
C1406 C 0.27123 0.15584 0.24205 0.0
H1407 H 0.3182 0.12795 0.20717 0.0
H1408 H 0.30141 0.14336 0.21126 0.0
H1409 H 0.32484 0.14898 0.22267 0.0
H1410 H 0.31829 0.16652 0.25424 0.0
H1411 H 0.3109 0.19771 0.25565 0.0
H1412 H 0.29222 0.07616 0.5278 0.0
H1413 H 0.32097 0.06287 0.52722 0.0
H1414 H 0.3387 0.09621 0.48283 0.0
H1415 H 0.31 0.10992 0.48354 0.0
H1416 H 0.33254 0.04262 0.49739 0.0
H1417 H 0.38502 0.1053 0.52051 0.0
H1418 H 0.36032 0.10456 0.52296 0.0
H1419 H 0.36941 0.10762 0.50033 0.0
C1420 C 0.30228 0.08085 0.51801 0.0
C1421 C 0.29879 0.09415 0.50571 0.0
C1422 C 0.31871 0.07319 0.5177 0.0
C1423 C 0.33205 0.07865 0.50512 0.0
C1424 C 0.32876 0.09205 0.49292 0.0
H1425 H 0.43632 0.0437 0.47822 0.0
H1426 H 0.40711 0.05629 0.47821 0.0
C1427 C 0.31232 0.09983 0.49329 0.0
C1428 C 0.34898 0.06968 0.50431 0.0
H1429 H 0.39679 0.07826 0.5096 0.0
C1430 C 0.34659 0.0504 0.50013 0.0
C1431 C 0.36729 0.07985 0.50792 0.0
C1432 C 0.37073 0.10045 0.51336 0.0
C1433 C 0.36204 0.04105 0.49919 0.0
C1434 C 0.38031 0.05125 0.50271 0.0
C1435 C 0.38272 0.07051 0.50687 0.0
C1436 C 0.39721 0.04229 0.50196 0.0
C1437 C 0.35871 0.02041 0.49409 0.0
C1438 C 0.40121 0.03004 0.5152 0.0
C1439 C 0.41796 0.02276 0.51525 0.0
C1440 C 0.43098 0.02773 0.50212 0.0
C1441 C 0.42663 0.03961 0.48857 0.0
C1442 C 0.40995 0.04686 0.48854 0.0
H1443 H 0.34417 0.01525 0.48777 0.0
H1444 H 0.36865 0.01638 0.48389 0.0
H1445 H 0.36105 0.0135 0.50713 0.0
H1446 H 0.39165 0.02654 0.52584 0.0
H1447 H 0.42095 0.01373 0.52593 0.0
H1448 H 0.64119 0.58226 0.27519 0.0
H1449 H 0.66382 0.61065 0.27772 0.0
H1450 H 0.70876 0.58015 0.2899 0.0
H1451 H 0.68611 0.55142 0.28728 0.0
H1452 H 0.69099 0.62749 0.30859 0.0
H1453 H 0.723 0.60709 0.24237 0.0
H1454 H 0.7006 0.59543 0.24796 0.0
H1455 H 0.72177 0.5914 0.26045 0.0
C1456 C 0.65586 0.58151 0.27851 0.0
C1457 C 0.66183 0.5645 0.28088 0.0
C1458 C 0.66877 0.5978 0.28002 0.0
C1459 C 0.68795 0.59747 0.28382 0.0
C1460 C 0.69401 0.58065 0.28675 0.0
H1461 H 0.76421 0.70502 0.29552 0.0
H1462 H 0.75209 0.67308 0.30117 0.0
C1463 C 0.68104 0.56427 0.28531 0.0
C1464 C 0.70141 0.61478 0.28388 0.0
H1465 H 0.73262 0.63737 0.25669 0.0
C1466 C 0.7004 0.62958 0.29749 0.0
C1467 C 0.71353 0.61744 0.26927 0.0
C1468 C 0.71483 0.60209 0.25407 0.0
C1469 C 0.71065 0.6472 0.29643 0.0
C1470 C 0.72222 0.65001 0.28142 0.0
C1471 C 0.72383 0.63506 0.26826 0.0
C1472 C 0.73061 0.6688 0.27766 0.0
C1473 C 0.70823 0.66298 0.31067 0.0
C1474 C 0.72273 0.67674 0.26242 0.0
C1475 C 0.72949 0.69486 0.25923 0.0
C1476 C 0.74441 0.7054 0.27115 0.0
C1477 C 0.75271 0.69724 0.28611 0.0
C1478 C 0.74579 0.67905 0.28938 0.0
H1479 H 0.69769 0.65873 0.3207 0.0
H1480 H 0.72183 0.6684 0.31899 0.0
H1481 H 0.70383 0.67442 0.30316 0.0
H1482 H 0.71101 0.66902 0.25322 0.0
H1483 H 0.72285 0.70067 0.24752 0.0
H1484 H 0.88576 0.43806 0.757 0.0
H1485 H 0.86709 0.40806 0.75963 0.0
H1486 H 0.81953 0.4344 0.77186 0.0
H1487 H 0.83805 0.46462 0.76902 0.0
H1488 H 0.84884 0.39591 0.79125 0.0
H1489 H 0.79876 0.39471 0.72753 0.0
H1490 H 0.8205 0.4107 0.73158 0.0
H1491 H 0.80104 0.4145 0.74485 0.0
C1492 C 0.87131 0.43754 0.76018 0.0
C1493 C 0.86339 0.45377 0.76271 0.0
C1494 C 0.86068 0.42036 0.76173 0.0
C1495 C 0.84191 0.41901 0.76576 0.0
C1496 C 0.83393 0.43514 0.76844 0.0
H1497 H 0.76489 0.31431 0.76592 0.0
H1498 H 0.77762 0.34737 0.77165 0.0
C1499 C 0.84456 0.45239 0.76688 0.0
C1500 C 0.83091 0.40061 0.76719 0.0
H1501 H 0.79535 0.36857 0.74448 0.0
C1502 C 0.83702 0.38998 0.78115 0.0
C1503 C 0.81541 0.393 0.75408 0.0
C1504 C 0.80854 0.40371 0.73855 0.0
C1505 C 0.82841 0.37171 0.78198 0.0
C1506 C 0.8135 0.36383 0.76832 0.0
C1507 C 0.8068 0.37471 0.75492 0.0
C1508 C 0.80595 0.34386 0.76645 0.0
C1509 C 0.83554 0.3609 0.79727 0.0
C1510 C 0.81768 0.33102 0.76163 0.0
C1511 C 0.81049 0.31223 0.75828 0.0
C1512 C 0.79139 0.30591 0.75964 0.0
C1513 C 0.77969 0.31876 0.76484 0.0
C1514 C 0.78691 0.33762 0.76809 0.0
H1515 H 0.84272 0.37019 0.80973 0.0
H1516 H 0.82394 0.35125 0.80212 0.0
H1517 H 0.84583 0.35266 0.79148 0.0
H1518 H 0.83234 0.33558 0.75994 0.0
H1519 H 0.81987 0.30271 0.7543 0.0
H1520 H 0.99118 0.83195 0.12729 0.0
H1521 H 0.98558 0.85787 0.10967 0.0
H1522 H 0.00214 0.8303 0.05892 0.0
H1523 H 0.00783 0.80416 0.07647 0.0
H1524 H 0.01683 0.87735 0.09058 0.0
H1525 H 0.95224 0.85112 0.04231 0.0
H1526 H 0.95713 0.84138 0.0643 0.0
H1527 H 0.97009 0.83668 0.04434 0.0
C1528 C -0.00664 0.83122 0.11231 0.0
C1529 C 7e-05 0.81605 0.1033 0.0
C1530 C 0.99011 0.84603 0.10227 0.0
C1531 C -0.00667 0.8459 0.08301 0.0
C1532 C -0.00066 0.8305 0.07373 0.0
H1533 H 0.00149 0.93924 0.01434 0.0
H1534 H -0.00231 0.90742 0.02303 0.0
C1535 C 0.00267 0.81565 0.0838 0.0
C1536 C 0.99243 0.86278 0.07342 0.0
H1537 H 0.96663 0.88193 0.04054 0.0
C1538 C 0.00591 0.87834 0.07958 0.0
C1539 C 0.97827 0.86388 0.05896 0.0
C1540 C 0.9635 0.84745 0.05204 0.0
C1541 C 0.00544 0.89513 0.07191 0.0
C1542 C 0.99087 0.89648 0.05797 0.0
C1543 C 0.97767 0.8808 0.05134 0.0
C1544 C 0.98904 0.91446 0.05094 0.0
C1545 C 0.02049 0.91137 0.07887 0.0
C1546 C 0.98455 0.92866 0.06344 0.0
C1547 C 0.9868 0.94675 0.0586 0.0
C1548 C -0.00657 0.95091 0.04111 0.0
C1549 C -0.00371 0.9364 0.02789 0.0
C1550 C -0.00584 0.91825 0.03283 0.0
H1551 H 0.03286 0.907 0.0863 0.0
H1552 H 0.02519 0.91909 0.06687 0.0
H1553 H 0.01475 0.92095 0.08902 0.0
H1554 H 0.98044 0.92593 0.07743 0.0
H1555 H 0.98435 0.95764 0.069 0.0
H1556 H 0.94278 0.22043 0.85986 0.0
H1557 H 0.91057 0.21192 0.84504 0.0
H1558 H 0.91802 0.26026 0.81454 0.0
H1559 H 0.95009 0.26853 0.82874 0.0
H1560 H 0.8814 0.22973 0.84713 0.0
H1561 H 0.89651 0.22142 0.77212 0.0
H1562 H 0.91448 0.22271 0.79145 0.0
H1563 H 0.90805 0.2435 0.78308 0.0
C1564 C 0.93755 0.22916 0.84991 0.0
C1565 C 0.94904 0.24507 0.84536 0.0
C1566 C 0.91919 0.22425 0.84142 0.0
C1567 C 0.91208 0.23517 0.82827 0.0
C1568 C 0.92342 0.25125 0.82409 0.0
H1569 H 0.80703 0.26433 0.8045 0.0
H1570 H 0.83711 0.25771 0.81703 0.0
C1571 C 0.94173 0.25606 0.83239 0.0
C1572 C 0.89245 0.2307 0.81976 0.0
H1573 H 0.86599 0.22987 0.77779 0.0
C1574 C 0.87799 0.22933 0.83193 0.0
C1575 C 0.88791 0.22963 0.79989 0.0
C1576 C 0.90259 0.22917 0.7859 0.0
C1577 C 0.85928 0.22853 0.82488 0.0
C1578 C 0.85504 0.22968 0.80525 0.0
C1579 C 0.86928 0.22941 0.7929 0.0
C1580 C 0.83648 0.23314 0.79761 0.0
C1581 C 0.84431 0.22692 0.83862 0.0
C1582 C 0.82647 0.22202 0.7819 0.0
C1583 C 0.80931 0.22601 0.77439 0.0
C1584 C 0.80196 0.24118 0.78252 0.0
C1585 C 0.81218 0.2524 0.79805 0.0
C1586 C 0.82932 0.24852 0.80538 0.0
H1587 H 0.84832 0.21921 0.85065 0.0
H1588 H 0.84266 0.24094 0.84468 0.0
H1589 H 0.83061 0.21983 0.83155 0.0
H1590 H 0.8319 0.21023 0.77551 0.0
H1591 H 0.80173 0.21712 0.76241 0.0
H1592 H 0.51316 0.22145 0.5879 0.0
H1593 H 0.50931 0.1917 0.56839 0.0
H1594 H 0.53238 0.16707 0.61582 0.0
H1595 H 0.53662 0.19666 0.63525 0.0
H1596 H 0.54528 0.15553 0.58136 0.0
H1597 H 0.46755 0.14964 0.57616 0.0
H1598 H 0.48003 0.1698 0.56756 0.0
H1599 H 0.4826 0.16682 0.59243 0.0
C1600 C 0.51757 0.20974 0.59413 0.0
C1601 C 0.525 0.2114 0.61323 0.0
C1602 C 0.51529 0.19275 0.58297 0.0
C1603 C 0.52028 0.17714 0.59077 0.0
C1604 C 0.5284 0.17895 0.60954 0.0
H1605 H 0.48018 0.06264 0.57202 0.0
H1606 H 0.48912 0.09553 0.58208 0.0
C1607 C 0.53074 0.19589 0.62066 0.0
C1608 C 0.51617 0.1586 0.57995 0.0
H1609 H 0.48004 0.12459 0.56232 0.0
C1610 C 0.53105 0.14881 0.57696 0.0
C1611 C 0.49755 0.14986 0.5744 0.0
C1612 C 0.48096 0.15945 0.57789 0.0
C1613 C 0.52775 0.13028 0.56911 0.0
C1614 C 0.50911 0.12147 0.56392 0.0
C1615 C 0.49431 0.13146 0.56628 0.0
C1616 C 0.50444 0.10145 0.55769 0.0
C1617 C 0.54413 0.12002 0.56731 0.0
C1618 C 0.51017 0.09385 0.54064 0.0
C1619 C 0.50514 0.07493 0.53486 0.0
C1620 C 0.49418 0.06341 0.546 0.0
C1621 C 0.4886 0.07111 0.5631 0.0
C1622 C 0.49367 0.08993 0.56886 0.0
H1623 H 0.55721 0.12784 0.5751 0.0
H1624 H 0.54111 0.10632 0.57279 0.0
H1625 H 0.5466 0.11769 0.55208 0.0
H1626 H 0.51826 0.10257 0.53168 0.0
H1627 H 0.50955 0.06942 0.52155 0.0
H1628 H 0.54253 0.73148 0.3403 0.0
H1629 H 0.5705 0.73356 0.32306 0.0
H1630 H 0.60287 0.76561 0.37169 0.0
H1631 H 0.57483 0.76315 0.38933 0.0
H1632 H 0.59198 0.76432 0.31329 0.0
H1633 H 0.63423 0.72568 0.3591 0.0
H1634 H 0.60955 0.72563 0.36104 0.0
H1635 H 0.62639 0.74516 0.37126 0.0
C1636 C 0.55563 0.73885 0.34741 0.0
C1637 C 0.55653 0.74712 0.36618 0.0
C1638 C 0.57158 0.74008 0.33751 0.0
C1639 C 0.58876 0.74964 0.34612 0.0
C1640 C 0.58979 0.75789 0.3649 0.0
H1641 H 0.68555 0.77794 0.281 0.0
H1642 H 0.65761 0.77989 0.29806 0.0
C1643 C 0.57379 0.75652 0.37494 0.0
C1644 C 0.60539 0.75102 0.3351 0.0
H1645 H 0.64862 0.73843 0.33347 0.0
C1646 C 0.60442 0.75872 0.3177 0.0
C1647 C 0.62149 0.74357 0.34087 0.0
C1648 C 0.623 0.73439 0.359 0.0
C1649 C 0.61897 0.75886 0.30571 0.0
C1650 C 0.63508 0.75145 0.3115 0.0
C1651 C 0.63622 0.7441 0.32908 0.0
C1652 C 0.65067 0.75039 0.29932 0.0
C1653 C 0.61669 0.76631 0.28668 0.0
C1654 C 0.65589 0.73317 0.29422 0.0
C1655 C 0.67189 0.73205 0.2847 0.0
C1656 C 0.68291 0.74813 0.28002 0.0
C1657 C 0.67716 0.76531 0.28423 0.0
C1658 C 0.66121 0.76644 0.29397 0.0
H1659 H 0.6018 0.76713 0.28242 0.0
H1660 H 0.62482 0.78046 0.28755 0.0
H1661 H 0.62205 0.75757 0.27541 0.0
H1662 H 0.6479 0.72061 0.29815 0.0
H1663 H 0.67598 0.71863 0.2816 0.0
H1664 H -0.00518 0.18802 0.40571 0.0
H1665 H 0.99123 0.16192 0.42477 0.0
H1666 H 0.00609 0.19919 0.47599 0.0
H1667 H 0.01019 0.2254 0.45694 0.0
H1668 H 0.02626 0.17213 0.47537 0.0
H1669 H 0.95205 0.14117 0.45764 0.0
H1670 H 0.96382 0.14409 0.43649 0.0
H1671 H 0.9613 0.16408 0.45213 0.0
C1672 C -0.00299 0.19071 0.42105 0.0
C1673 C 0.00284 0.20877 0.42981 0.0
C1674 C -0.0052 0.17576 0.43196 0.0
C1675 C -0.00191 0.17859 0.45186 0.0
C1676 C 0.00336 0.19668 0.46067 0.0
H1677 H 0.98317 0.07873 0.51303 0.0
H1678 H 0.98036 0.10999 0.50489 0.0
C1679 C 0.0057 0.21164 0.44976 0.0
C1680 C -0.00206 0.16254 0.46316 0.0
H1681 H 0.97261 0.12069 0.46909 0.0
C1682 C 0.01438 0.16105 0.47428 0.0
C1683 C 0.98236 0.1482 0.46207 0.0
C1684 C 0.96383 0.14956 0.4516 0.0
C1685 C 0.01608 0.14514 0.48331 0.0
C1686 C 0.00108 0.13015 0.48083 0.0
C1687 C 0.98421 0.13209 0.47077 0.0
C1688 C 0.00331 0.11181 0.48692 0.0
C1689 C 0.03408 0.1444 0.49511 0.0
C1690 C 0.01706 0.10249 0.47947 0.0
C1691 C 0.01871 0.08478 0.48408 0.0
C1692 C 0.00652 0.07588 0.49615 0.0
C1693 C 0.99284 0.08527 0.5038 0.0
C1694 C 0.99118 0.10309 0.49912 0.0
H1695 H 0.04113 0.15846 0.50094 0.0
H1696 H 0.03156 0.13586 0.50708 0.0
H1697 H 0.04379 0.13822 0.486 0.0
H1698 H 0.02628 0.10876 0.46967 0.0
H1699 H 0.02936 0.07794 0.47786 0.0
H1700 H 0.54835 0.25369 0.18728 0.0
H1701 H 0.57978 0.25489 0.2031 0.0
H1702 H 0.60309 0.25609 0.14892 0.0
H1703 H 0.57174 0.25482 0.13293 0.0
H1704 H 0.60793 0.2292 0.19391 0.0
H1705 H 0.63068 0.30338 0.18497 0.0
H1706 H 0.60629 0.29315 0.18404 0.0
H1707 H 0.61959 0.28885 0.1642 0.0
C1708 C 0.56016 0.25419 0.17872 0.0
C1709 C 0.5576 0.25427 0.15887 0.0
C1710 C 0.57806 0.2548 0.18778 0.0
C1711 C 0.59366 0.25568 0.17715 0.0
C1712 C 0.59116 0.25553 0.15733 0.0
H1713 H 0.7131 0.27363 0.20126 0.0
H1714 H 0.68083 0.26791 0.18705 0.0
C1715 C 0.57327 0.25479 0.14824 0.0
C1716 C 0.61267 0.25724 0.1868 0.0
H1717 H 0.65363 0.28716 0.19744 0.0
C1718 C 0.61796 0.24186 0.19479 0.0
C1719 C 0.62558 0.2738 0.18789 0.0
C1720 C 0.62031 0.29083 0.17996 0.0
C1721 C 0.63616 0.24246 0.20341 0.0
C1722 C 0.64915 0.25902 0.20438 0.0
C1723 C 0.64367 0.27446 0.19662 0.0
C1724 C 0.66869 0.26067 0.21289 0.0
C1725 C 0.64146 0.22524 0.21087 0.0
C1726 C 0.67262 0.25827 0.23212 0.0
C1727 C 0.69115 0.26139 0.24029 0.0
C1728 C 0.70597 0.26724 0.22939 0.0
C1729 C 0.70198 0.26925 0.21007 0.0
C1730 C 0.68355 0.26598 0.20191 0.0
H1731 H 0.63168 0.21266 0.20468 0.0
H1732 H 0.65592 0.22355 0.20771 0.0
H1733 H 0.64093 0.22634 0.22652 0.0
H1734 H 0.66135 0.25455 0.24096 0.0
H1735 H 0.69381 0.25984 0.25524 0.0
H1736 H 0.52208 0.80445 0.94501 0.0
H1737 H 0.52184 0.8325 0.96625 0.0
H1738 H 0.54336 0.86578 0.92328 0.0
H1739 H 0.54391 0.83791 0.90205 0.0
H1740 H 0.55939 0.87868 0.96094 0.0
H1741 H 0.48137 0.8648 0.95539 0.0
H1742 H 0.49311 0.84686 0.96372 0.0
H1743 H 0.49486 0.85253 0.93974 0.0
C1744 C 0.52698 0.81772 0.94014 0.0
C1745 C 0.53278 0.81893 0.92171 0.0
C1746 C 0.52679 0.83372 0.9523 0.0
C1747 C 0.5323 0.85118 0.9462 0.0
C1748 C 0.539 0.85241 0.92823 0.0
H1749 H 0.50281 0.95656 0.96539 0.0
H1750 H 0.50894 0.92576 0.95529 0.0
C1751 C 0.53924 0.83645 0.91608 0.0
C1752 C 0.52981 0.86823 0.9578 0.0
H1753 H 0.49611 0.89247 0.97271 0.0
C1754 C 0.5456 0.88163 0.9638 0.0
C1755 C 0.51176 0.87204 0.96132 0.0
C1756 C 0.49425 0.8584 0.95462 0.0
C1757 C 0.54374 0.89899 0.97274 0.0
C1758 C 0.52566 0.90291 0.97581 0.0
C1759 C 0.50995 0.8893 0.97042 0.0
C1760 C 0.52247 0.9217 0.98244 0.0
C1761 C 0.56098 0.91336 0.97798 0.0
C1762 C 0.52804 0.92961 0.00114 0.0
C1763 C 0.52451 0.94733 0.00705 0.0
C1764 C 0.51534 0.95733 -0.00569 0.0
C1765 C 0.50986 0.94928 0.9756 0.0
C1766 C 0.51334 0.93165 0.96977 0.0
H1767 H 0.57376 0.90879 0.97272 0.0
H1768 H 0.55905 0.92647 0.97206 0.0
H1769 H 0.56321 0.91627 -0.00632 0.0
H1770 H 0.53495 0.92203 0.01117 0.0
H1771 H 0.52888 0.95315 0.02155 0.0
H1772 H 0.94144 0.75989 0.6471 0.0
H1773 H 0.9115 0.7656 0.65855 0.0
H1774 H 0.92683 0.74619 0.71217 0.0
H1775 H 0.95659 0.7403 0.70091 0.0
H1776 H 0.88519 0.73531 0.6728 0.0
H1777 H 0.90727 0.79684 0.7255 0.0
H1778 H 0.92084 0.79133 0.70597 0.0
H1779 H 0.92116 0.77862 0.7264 0.0
C1780 C 0.93852 0.75703 0.6614 0.0
C1781 C 0.95134 0.74955 0.67306 0.0
C1782 C 0.92145 0.76032 0.66791 0.0
C1783 C 0.91713 0.75651 0.68626 0.0
C1784 C 0.93007 0.74947 0.69807 0.0
H1785 H 0.82307 0.74975 0.75404 0.0
H1786 H 0.8543 0.75399 0.74231 0.0
C1787 C 0.94699 0.74598 0.69153 0.0
C1788 C 0.89846 0.75822 0.69259 0.0
H1789 H 0.87616 0.78104 0.72577 0.0
C1790 C 0.8831 0.74545 0.6842 0.0
C1791 C 0.89599 0.7713 0.70764 0.0
C1792 C 0.91214 0.78542 0.71688 0.0
C1793 C 0.86533 0.74499 0.69087 0.0
C1794 C 0.86277 0.7581 0.70595 0.0
C1795 C 0.87813 0.77108 0.71416 0.0
C1796 C 0.84433 0.75805 0.7137 0.0
C1797 C 0.84969 0.72993 0.68222 0.0
C1798 C 0.82853 0.75973 0.70173 0.0
C1799 C 0.81075 0.75704 0.7083 0.0
C1800 C 0.8085 0.75305 0.72708 0.0
C1801 C 0.82444 0.75278 0.7395 0.0
C1802 C 0.84225 0.75518 0.73281 0.0
H1803 H 0.85516 0.71823 0.67472 0.0
H1804 H 0.84085 0.7245 0.69324 0.0
H1805 H 0.8407 0.73563 0.67165 0.0
H1806 H 0.82988 0.76249 0.68711 0.0
H1807 H 0.79869 0.75762 0.69852 0.0
H1808 H 0.11546 0.98892 0.83425 0.0
H1809 H 0.10208 0.98456 0.86467 0.0
H1810 H 0.05924 0.0165 0.84917 0.0
H1811 H 0.07249 0.0211 0.81908 0.0
H1812 H 0.07682 0.02741 0.88534 0.0
H1813 H 0.0531 0.95146 0.87443 0.0
H1814 H 0.0773 0.95911 0.8711 0.0
H1815 H 0.05927 0.96498 0.85513 0.0
C1816 C 0.10315 0.99495 0.8373 0.0
C1817 C 0.09508 0.00536 0.82419 0.0
C1818 C 0.09546 0.99235 0.85463 0.0
C1819 C 0.07953 4e-05 0.85907 0.0
C1820 C 0.07149 0.0104 0.84601 0.0
H1821 H 0.00208 0.98436 0.94576 0.0
H1822 H 0.0177 0.98403 0.91622 0.0
C1823 C 0.07913 0.01301 0.82879 0.0
C1824 C 0.07147 -0.00197 0.87755 0.0
H1825 H 0.04899 0.96666 0.90433 0.0
C1826 C 0.07082 0.01412 0.88953 0.0
C1827 C 0.06343 0.98069 0.88286 0.0
C1828 C 0.06312 0.96305 0.87018 0.0
C1829 C 0.06231 0.01338 0.90665 0.0
C1830 C 0.0545 -0.00397 0.91209 0.0
C1831 C 0.05512 0.97991 0.90015 0.0
C1832 C 0.04536 0.99456 0.93004 0.0
C1833 C 0.06133 0.03122 0.91854 0.0
C1834 C 0.05583 0.00011 0.94758 0.0
C1835 C 0.04698 0.00036 0.96442 0.0
C1836 C 0.02746 0.99497 0.96407 0.0
C1837 C 0.01711 0.98864 0.94653 0.0
C1838 C 0.02601 0.98843 0.92964 0.0
H1839 H 0.06409 0.04337 0.91034 0.0
H1840 H 0.04737 0.0309 0.9241 0.0
H1841 H 0.07204 0.0331 0.93086 0.0
H1842 H 0.07082 0.00461 0.9482 0.0
H1843 H 0.05542 0.00512 0.97768 0.0
H1844 H 0.76116 0.36042 0.58082 0.0
H1845 H 0.76562 0.33995 0.60539 0.0
H1846 H 0.74655 0.29249 0.56456 0.0
H1847 H 0.74147 0.31295 0.54001 0.0
H1848 H 0.72886 0.28946 0.59519 0.0
H1849 H 0.8042 0.30852 0.61801 0.0
H1850 H 0.79327 0.32877 0.61881 0.0
H1851 H 0.79391 0.31539 0.59634 0.0
C1852 C 0.75818 0.34562 0.577 0.0
C1853 C 0.75091 0.33829 0.55851 0.0
C1854 C 0.76092 0.33391 0.59103 0.0
C1855 C 0.75678 0.31465 0.58676 0.0
C1856 C 0.74997 0.3073 0.56815 0.0
H1857 H 0.77447 0.25247 0.68578 0.0
H1858 H 0.77631 0.26067 0.65302 0.0
C1859 C 0.74704 0.31901 0.55415 0.0
C1860 C 0.75761 0.30239 0.60219 0.0
H1861 H 0.78458 0.29567 0.64167 0.0
C1862 C 0.7412 0.29052 0.60509 0.0
C1863 C 0.77379 0.30338 0.61493 0.0
C1864 C 0.79233 0.31456 0.61172 0.0
C1865 C 0.74011 0.28077 0.62116 0.0
C1866 C 0.75567 0.28331 0.63491 0.0
C1867 C 0.77254 0.29398 0.63127 0.0
C1868 C 0.75394 0.27702 0.65404 0.0
C1869 C 0.72207 0.26828 0.62355 0.0
C1870 C 0.74087 0.28357 0.66542 0.0
C1871 C 0.73979 0.27896 0.68396 0.0
C1872 C 0.75189 0.26779 0.69164 0.0
C1873 C 0.7649 0.26102 0.6802 0.0
C1874 C 0.76598 0.26571 0.66154 0.0
H1875 H 0.71456 0.26262 0.60953 0.0
H1876 H 0.72463 0.25661 0.63173 0.0
H1877 H 0.71274 0.27636 0.63129 0.0
H1878 H 0.73176 0.2927 0.66012 0.0
H1879 H 0.72963 0.28445 0.69237 0.0
H1880 H 0.40935 0.04877 0.33091 0.0
H1881 H 0.42512 0.05857 0.36287 0.0
H1882 H 0.46521 0.02205 0.35207 0.0
H1883 H 0.45013 0.01273 0.32038 0.0
H1884 H 0.42843 0.03846 0.39102 0.0
H1885 H 0.49996 0.06621 0.37648 0.0
H1886 H 0.48066 0.06267 0.35822 0.0
H1887 H 0.4935 0.04415 0.36294 0.0
C1888 C 0.42171 0.04308 0.3353 0.0
C1889 C 0.42848 0.02999 0.32308 0.0
C1890 C 0.43074 0.04875 0.35351 0.0
C1891 C 0.44669 0.04145 0.35969 0.0
C1892 C 0.45342 0.02847 0.34742 0.0
H1893 H 0.4756 0.99505 0.45528 0.0
H1894 H 0.46314 0.00684 0.42685 0.0
C1895 C 0.44457 0.02294 0.32931 0.0
C1896 C 0.45511 0.04529 0.37961 0.0
H1897 H 0.49751 0.04916 0.40515 0.0
C1898 C 0.44351 0.04138 0.39421 0.0
C1899 C 0.47475 0.04971 0.38404 0.0
C1900 C 0.48785 0.05614 0.36955 0.0
C1901 C 0.45115 0.03963 0.41255 0.0
C1902 C 0.47083 0.04123 0.41613 0.0
C1903 C 0.48241 0.04732 0.40222 0.0
C1904 C 0.47933 0.03427 0.43308 0.0
C1905 C 0.43803 0.03521 0.42768 0.0
C1906 C 0.49351 0.04541 0.44539 0.0
C1907 C 0.50101 0.03852 0.46154 0.0
C1908 C 0.49436 0.02043 0.46552 0.0
C1909 C 0.48083 0.00911 0.45268 0.0
C1910 C 0.47353 0.0159 0.43655 0.0
H1911 H 0.42515 0.04147 0.42539 0.0
H1912 H 0.43368 0.02003 0.4269 0.0
H1913 H 0.44482 0.04026 0.44214 0.0
H1914 H 0.4984 0.05953 0.44276 0.0
H1915 H 0.51138 0.04756 0.47128 0.0
H1916 H 0.75538 0.67914 0.04424 0.0
H1917 H 0.75853 0.69867 0.07451 0.0
H1918 H 0.72925 0.65349 0.10081 0.0
H1919 H 0.72574 0.63399 0.07068 0.0
H1920 H 0.71835 0.6876 0.11169 0.0
H1921 H 0.79589 0.69165 0.1185 0.0
H1922 H 0.78606 0.69944 0.09726 0.0
H1923 H 0.78086 0.67551 0.10117 0.0
C1924 C 0.74948 0.67339 0.05643 0.0
C1925 C 0.74048 0.65492 0.05506 0.0
C1926 C 0.75135 0.68457 0.07372 0.0
C1927 C 0.74437 0.67743 0.08996 0.0
C1928 C 0.73477 0.65925 0.08846 0.0
H1929 H 0.7756 0.69925 0.20781 0.0
H1930 H 0.76843 0.68833 0.17424 0.0
C1931 C 0.73284 0.6481 0.07121 0.0
C1932 C 0.74781 0.6884 0.10881 0.0
H1933 H 0.78253 0.70638 0.14359 0.0
C1934 C 0.73238 0.69193 0.11862 0.0
C1935 C 0.76614 0.69386 0.11783 0.0
C1936 C 0.78322 0.68984 0.10827 0.0
C1937 C 0.73477 0.70033 0.13742 0.0
C1938 C 0.75308 0.70548 0.14651 0.0
C1939 C 0.76851 0.70248 0.1365 0.0
C1940 C 0.75656 0.71226 0.16697 0.0
C1941 C 0.71771 0.70285 0.14773 0.0
C1942 C 0.75216 0.72936 0.17405 0.0
C1943 C 0.75622 0.73568 0.19338 0.0
C1944 C 0.76483 0.72502 0.20584 0.0
C1945 C 0.76901 0.70784 0.19864 0.0
C1946 C 0.76495 0.70157 0.17943 0.0
H1947 H 0.70456 0.69545 0.13971 0.0
H1948 H 0.71889 0.6978 0.16199 0.0
H1949 H 0.7167 0.71776 0.14977 0.0
H1950 H 0.7459 0.73792 0.1646 0.0
H1951 H 0.75291 0.74901 0.19849 0.0
H1952 H 0.08191 0.99492 0.72393 0.0
H1953 H 0.06687 0.99423 0.69174 0.0
H1954 H 0.12087 -0.00146 0.66928 0.0
H1955 H 0.13605 -0.00079 0.70141 0.0
H1956 H 0.07424 0.02178 0.66502 0.0
H1957 H 0.08839 0.95246 0.63813 0.0
H1958 H 0.08957 0.96011 0.66318 0.0
H1959 H 0.1084 0.96818 0.64939 0.0
C1960 C 0.09059 0.99563 0.71214 0.0
C1961 C 0.11018 -0.00296 0.7152 0.0
C1962 C 0.08198 0.9953 0.69378 0.0
C1963 C 0.09275 -0.00383 0.67816 0.0
C1964 C 0.1123 -0.00238 0.68115 0.0
H1965 H 0.07104 0.99097 0.55667 0.0
H1966 H 0.08459 0.99423 0.58955 0.0
C1967 C 0.12095 -0.00195 0.69951 0.0
C1968 C 0.08358 0.99571 0.65873 0.0
H1969 H 0.07586 0.97008 0.61555 0.0
C1970 C 0.07449 0.01046 0.65418 0.0
C1971 C 0.08395 0.9809 0.64471 0.0
C1972 C 0.09295 0.96441 0.64905 0.0
C1973 C 0.06617 0.01104 0.63575 0.0
C1974 C 0.06665 -0.00373 0.62167 0.0
C1975 C 0.07556 0.98142 0.62634 0.0
C1976 C 0.0584 0.99598 0.60184 0.0
C1977 C 0.05745 0.02769 0.63138 0.0
C1978 C 0.03915 -0.00389 0.59779 0.0
C1979 C 0.03134 0.99438 0.57892 0.0
C1980 C 0.04263 0.99223 0.56383 0.0
C1981 C 0.06194 0.9925 0.56797 0.0
C1982 C 0.06972 0.99436 0.58676 0.0
H1983 H 0.06254 0.03973 0.64207 0.0
H1984 H 0.06052 0.03171 0.61708 0.0
H1985 H 0.04203 0.02431 0.63158 0.0
H1986 H 0.03007 -0.00302 0.60919 0.0
H1987 H 0.0164 0.9941 0.57617 0.0
H1988 H 0.73661 0.33073 0.46398 0.0
H1989 H 0.73536 0.31086 0.43437 0.0
H1990 H 0.69987 0.3442 0.40655 0.0
H1991 H 0.70168 0.3647 0.43605 0.0
H1992 H 0.70884 0.28964 0.40996 0.0
H1993 H 0.7436 0.34853 0.37471 0.0
H1994 H 0.74098 0.35023 0.39985 0.0
H1995 H 0.72147 0.35169 0.38315 0.0
C1996 C 0.72837 0.33378 0.45163 0.0
C1997 C 0.71951 0.3495 0.45228 0.0
C1998 C 0.72762 0.32234 0.43471 0.0
C1999 C 0.71787 0.32627 0.41813 0.0
C2000 C 0.70791 0.34121 0.41904 0.0
H2001 H 0.71552 0.2541 0.31092 0.0
H2002 H 0.70523 0.26837 0.34019 0.0
C2003 C 0.70889 0.35286 0.43593 0.0
C2004 C 0.71951 0.31554 0.39977 0.0
H2005 H 0.73688 0.31973 0.35665 0.0
C2006 C 0.71483 0.29619 0.39822 0.0
C2007 C 0.72752 0.32414 0.38454 0.0
C2008 C 0.73385 0.34476 0.38563 0.0
C2009 C 0.71849 0.28518 0.38211 0.0
C2010 C 0.72667 0.29381 0.36703 0.0
C2011 C 0.73063 0.31316 0.36828 0.0
C2012 C 0.73277 0.28328 0.35045 0.0
C2013 C 0.71441 0.26443 0.38175 0.0
C2014 C 0.75162 0.28678 0.34661 0.0
C2015 C 0.75739 0.27893 0.3299 0.0
C2016 C 0.74447 0.26725 0.31674 0.0
C2017 C 0.72578 0.2629 0.32098 0.0
C2018 C 0.71991 0.27102 0.33768 0.0
H2019 H 0.71198 0.26003 0.39607 0.0
H2020 H 0.70161 0.25906 0.37212 0.0
H2021 H 0.72614 0.25803 0.37631 0.0
H2022 H 0.7618 0.29611 0.35631 0.0
H2023 H 0.77191 0.28245 0.327 0.0
H2024 H 0.37771 0.00525 0.19745 0.0
H2025 H 0.39235 0.00146 0.16754 0.0
H2026 H 0.44639 0.02408 0.19676 0.0
H2027 H 0.43193 0.02815 0.22652 0.0
H2028 H 0.43885 0.03961 0.16357 0.0
H2029 H 0.42553 0.96296 0.15195 0.0
H2030 H 0.40505 0.97336 0.15563 0.0
H2031 H 0.42341 0.97555 0.17454 0.0
C2032 C 0.3927 0.0094 0.19747 0.0
C2033 C 0.40368 0.01695 0.21431 0.0
C2034 C 0.40105 0.00709 0.18044 0.0
C2035 C 0.42047 0.01221 0.18008 0.0
C2036 C 0.43139 0.01993 0.19682 0.0
H2037 H 0.48884 0.98986 0.08669 0.0
H2038 H 0.47563 0.99089 0.11764 0.0
C2039 C 0.42309 0.02226 0.21378 0.0
C2040 C 0.42944 0.01029 0.16214 0.0
H2041 H 0.43752 0.97887 0.12654 0.0
C2042 C 0.43864 0.02633 0.15551 0.0
C2043 C 0.42936 0.9929 0.15187 0.0
C2044 C 0.42047 0.97517 0.1589 0.0
C2045 C 0.44741 0.02551 0.13858 0.0
C2046 C 0.44668 0.00822 0.12792 0.0
C2047 C 0.43791 0.9921 0.13476 0.0
C2048 C 0.45426 0.00681 0.1092 0.0
C2049 C 0.45742 0.04315 0.13228 0.0
C2050 C 0.44632 0.0151 0.09427 0.0
C2051 C 0.4538 0.01459 0.07675 0.0
C2052 C 0.46931 0.00566 0.07378 0.0
C2053 C 0.47696 -0.00309 0.08862 0.0
C2054 C 0.46943 -0.00254 0.10624 0.0
H2055 H 0.46099 0.05422 0.14429 0.0
H2056 H 0.4705 0.04084 0.12586 0.0
H2057 H 0.44816 0.04812 0.12138 0.0
H2058 H 0.43439 0.02209 0.09623 0.0
H2059 H 0.44745 0.02132 0.06557 0.0
H2060 H 0.75861 0.69433 0.96411 0.0
H2061 H 0.76346 0.71394 0.93822 0.0
H2062 H 0.77614 0.66783 0.90238 0.0
H2063 H 0.77148 0.64814 0.92822 0.0
H2064 H 0.80001 0.70274 0.89976 0.0
H2065 H 0.72389 0.70709 0.89177 0.0
H2066 H 0.73565 0.71394 0.9151 0.0
H2067 H 0.73309 0.69029 0.9052 0.0
C2068 C 0.76264 0.6884 0.9508 0.0
C2069 C 0.76448 0.66962 0.94816 0.0
C2070 C 0.76535 0.69962 0.93601 0.0
C2071 C 0.76991 0.69226 0.91832 0.0
C2072 C 0.77259 0.67376 0.91592 0.0
H2073 H 0.7526 0.71509 0.8047 0.0
H2074 H 0.75538 0.70367 0.83574 0.0
C2075 C 0.76987 0.66252 0.93069 0.0
C2076 C 0.77066 0.70341 0.9019 0.0
H2077 H 0.74286 0.7223 0.87067 0.0
C2078 C 0.7876 0.70724 0.89352 0.0
C2079 C 0.75437 0.70911 0.89373 0.0
C2080 C 0.73566 0.70483 0.90176 0.0
C2081 C 0.78857 0.71635 0.87693 0.0
C2082 C 0.77221 0.72173 0.86861 0.0
C2083 C 0.7554 0.71829 0.87724 0.0
C2084 C 0.77162 0.72896 0.84979 0.0
C2085 C 0.80682 0.71949 0.86788 0.0
C2086 C 0.77994 0.74703 0.8474 0.0
C2087 C 0.77831 0.75373 0.82953 0.0
C2088 C 0.76833 0.74242 0.81387 0.0
C2089 C 0.76031 0.72425 0.81641 0.0
C2090 C 0.76189 0.71765 0.83416 0.0
H2091 H 0.81796 0.71331 0.87538 0.0
H2092 H 0.80474 0.71347 0.85279 0.0
H2093 H 0.81169 0.73454 0.86803 0.0
H2094 H 0.7874 0.756 0.85938 0.0
H2095 H 0.78463 0.76778 0.82805 0.0
H2096 H 0.8133 0.07032 0.03615 0.0
H2097 H 0.83663 0.05352 0.02297 0.0
H2098 H 0.84439 0.09123 0.98005 0.0
H2099 H 0.82095 0.10834 0.99321 0.0
H2100 H 0.8356 0.03656 0.98395 0.0
H2101 H 0.89805 0.09062 0.00586 0.0
H2102 H 0.87623 0.09075 0.01659 0.0
H2103 H 0.87826 0.09728 0.99297 0.0
C2104 C 0.81999 0.07518 0.02397 0.0
C2105 C 0.81527 0.09074 0.01578 0.0
C2106 C 0.83327 0.06548 0.01641 0.0
C2107 C 0.84221 0.07116 0.00059 0.0
C2108 C 0.83771 0.08673 0.99238 0.0
H2109 H 0.93977 0.02569 0.96431 0.0
H2110 H 0.9126 0.04157 0.96189 0.0
C2111 C 0.82433 0.09648 -8e-05 0.0
C2112 C 0.85629 0.06061 0.99298 0.0
H2113 H 0.90342 0.062 0.99214 0.0
C2114 C 0.85043 0.04217 0.98546 0.0
C2115 C 0.87556 0.06804 -0.00516 0.0
C2116 C 0.88255 0.08772 0.00308 0.0
C2117 C 0.86343 0.03071 0.9804 0.0
C2118 C 0.88278 0.03782 0.98333 0.0
C2119 C 0.88857 0.05655 0.9899 0.0
C2120 C 0.89734 0.02581 0.98173 0.0
C2121 C 0.85632 0.01103 0.97227 0.0
C2122 C 0.89753 0.01127 0.99324 0.0
C2123 C 0.91299 0.0021 -0.0054 0.0
C2124 C 0.92867 0.00748 0.98467 0.0
C2125 C 0.92794 0.02124 0.97221 0.0
C2126 C 0.91244 0.03036 0.97081 0.0
H2127 H 0.84215 0.00973 0.96468 0.0
H2128 H 0.86592 0.00589 0.9623 0.0
H2129 H 0.85522 0.00207 0.98405 0.0
H2130 H 0.88623 0.00777 0.00211 0.0
H2131 H 0.9131 0.99162 0.00437 0.0
H2132 H 0.30624 0.40669 0.05529 0.0
H2133 H 0.33902 0.42136 0.06334 0.0
H2134 H 0.33491 0.45453 0.01652 0.0
H2135 H 0.3024 0.44056 0.00885 0.0
H2136 H 0.36851 0.42126 0.04369 0.0
H2137 H 0.3584 0.49358 0.05744 0.0
H2138 H 0.33914 0.47466 0.05586 0.0
H2139 H 0.34681 0.48428 0.03469 0.0
C2140 C 0.31232 0.41725 0.04686 0.0
C2141 C 0.30165 0.42257 0.03154 0.0
C2142 C 0.33101 0.42564 0.0515 0.0
C2143 C 0.33928 0.43944 0.04087 0.0
C2144 C 0.32869 0.44446 0.0254 0.0
H2145 H 0.44654 0.46477 0.00524 0.0
H2146 H 0.41574 0.45169 0.01363 0.0
C2147 C 0.31008 0.43628 0.02091 0.0
C2148 C 0.35933 0.44779 0.04476 0.0
H2149 H 0.38844 0.48897 0.0457 0.0
C2150 C 0.37289 0.43609 0.04458 0.0
C2151 C 0.36519 0.46716 0.04654 0.0
C2152 C 0.35157 0.4806 0.04888 0.0
C2153 C 0.39198 0.44317 0.04444 0.0
C2154 C 0.39755 0.46239 0.04379 0.0
C2155 C 0.38419 0.47419 0.0457 0.0
C2156 C 0.41664 0.47026 0.03929 0.0
C2157 C 0.4059 0.4299 0.04459 0.0
C2158 C 0.42714 0.48569 0.0504 0.0
C2159 C 0.4447 0.49355 0.04533 0.0
C2160 C 0.45204 0.48604 0.02911 0.0
C2161 C 0.44141 0.47073 0.01797 0.0
C2162 C 0.42384 0.46308 0.02288 0.0
H2163 H 0.40103 0.41801 0.05258 0.0
H2164 H 0.40721 0.42428 0.02978 0.0
H2165 H 0.41993 0.43673 0.05108 0.0
H2166 H 0.42176 0.49163 0.06298 0.0
H2167 H 0.45258 0.50535 0.05418 0.0
H2168 H 0.31615 0.54021 0.74625 0.0
H2169 H 0.29783 0.56548 0.74889 0.0
H2170 H 0.34873 0.60457 0.7632 0.0
H2171 H 0.36708 0.57935 0.76107 0.0
H2172 H 0.32108 0.61199 0.78537 0.0
H2173 H 0.29383 0.60129 0.70923 0.0
H2174 H 0.28846 0.58146 0.72203 0.0
H2175 H 0.31242 0.59 0.71849 0.0
C2176 C 0.32343 0.55419 0.75004 0.0
C2177 C 0.34309 0.55779 0.75332 0.0
C2178 C 0.31295 0.56863 0.75144 0.0
C2179 C 0.32192 0.58697 0.75588 0.0
C2180 C 0.3415 0.59053 0.75967 0.0
H2181 H 0.29088 0.68994 0.7329 0.0
H2182 H 0.3014 0.66014 0.73339 0.0
C2183 C 0.35198 0.5761 0.75842 0.0
C2184 C 0.3111 0.60256 0.75628 0.0
H2185 H 0.28317 0.62469 0.72838 0.0
C2186 C 0.31268 0.61472 0.77296 0.0
C2187 C 0.30027 0.60617 0.74 0.0
C2188 C 0.29873 0.59416 0.72136 0.0
C2189 C 0.30407 0.63059 0.77371 0.0
C2190 C 0.29324 0.63419 0.75744 0.0
C2191 C 0.29131 0.62181 0.7409 0.0
C2192 C 0.28545 0.65165 0.75662 0.0
C2193 C 0.30739 0.64378 0.79164 0.0
C2194 C 0.27254 0.65665 0.7692 0.0
C2195 C 0.26652 0.67386 0.76904 0.0
C2196 C 0.27325 0.68626 0.7562 0.0
C2197 C 0.28551 0.68081 0.74309 0.0
C2198 C 0.29153 0.66372 0.74331 0.0
H2199 H 0.31918 0.641 0.80129 0.0
H2200 H 0.31047 0.6583 0.78823 0.0
H2201 H 0.29458 0.64229 0.79939 0.0
H2202 H 0.26734 0.64738 0.77933 0.0
H2203 H 0.25699 0.67761 0.77925 0.0
H2204 H 0.21211 0.5779 0.51797 0.0
H2205 H 0.17951 0.56266 0.51252 0.0
H2206 H 0.16087 0.61519 0.52318 0.0
H2207 H 0.19353 0.63063 0.52877 0.0
H2208 H 0.14091 0.58442 0.54091 0.0
H2209 H 0.14642 0.56882 0.46349 0.0
H2210 H 0.16407 0.56157 0.47894 0.0
H2211 H 0.16322 0.58575 0.47836 0.0
C2212 C 0.20109 0.58622 0.5193 0.0
C2213 C 0.20536 0.60549 0.52363 0.0
C2214 C 0.1825 0.57749 0.51613 0.0
C2215 C 0.16789 0.58787 0.51719 0.0
C2216 C 0.17203 0.607 0.52223 0.0
H2217 H 0.05316 0.55754 0.47022 0.0
H2218 H 0.08555 0.57215 0.47918 0.0
C2219 C 0.19066 0.61578 0.52539 0.0
C2220 C 0.14831 0.57881 0.51236 0.0
H2221 H 0.11823 0.55611 0.47552 0.0
C2222 C 0.1359 0.57822 0.52664 0.0
C2223 C 0.14188 0.57095 0.49366 0.0
C2224 C 0.15451 0.57189 0.47765 0.0
C2225 C 0.11715 0.56972 0.52272 0.0
C2226 C 0.11083 0.56152 0.50411 0.0
C2227 C 0.12322 0.56229 0.48981 0.0
C2228 C 0.09124 0.55257 0.49896 0.0
C2229 C 0.10415 0.56988 0.53839 0.0
C2230 C 0.08386 0.53658 0.50696 0.0
C2231 C 0.06534 0.52815 0.50185 0.0
C2232 C 0.05397 0.53559 0.48861 0.0
C2233 C 0.06153 0.55149 0.48047 0.0
C2234 C 0.08002 0.55986 0.48557 0.0
H2235 H 0.11007 0.58013 0.55062 0.0
H2236 H 0.09034 0.57305 0.53306 0.0
H2237 H 0.10183 0.55601 0.5436 0.0
H2238 H 0.09245 0.53057 0.51707 0.0
H2239 H 0.05992 0.51589 0.50833 0.0
H2240 H 0.646 0.92861 0.77185 0.0
H2241 H 0.66746 0.90762 0.78034 0.0
H2242 H 0.71462 0.94963 0.77459 0.0
H2243 H 0.69314 0.97055 0.76542 0.0
H2244 H 0.71822 0.91897 0.75518 0.0
H2245 H 0.70029 0.90155 0.8262 0.0
H2246 H 0.6794 0.89794 0.8103 0.0
H2247 H 0.69263 0.92089 0.81571 0.0
C2248 C 0.66094 0.93351 0.77272 0.0
C2249 C 0.66788 0.95119 0.76787 0.0
C2250 C 0.67322 0.92154 0.77779 0.0
C2251 C 0.6927 0.92713 0.77848 0.0
C2252 C 0.69966 0.94505 0.7743 0.0
H2253 H 0.75607 0.83622 0.80027 0.0
H2254 H 0.74836 0.86769 0.80427 0.0
C2255 C 0.68737 0.95697 0.76902 0.0
C2256 C 0.7055 0.91345 0.78108 0.0
H2257 H 0.71261 0.87767 0.80671 0.0
C2258 C 0.71734 0.91027 0.76674 0.0
C2259 C 0.70477 0.9023 0.79635 0.0
C2260 C 0.69373 0.90602 0.8131 0.0
C2261 C 0.72713 0.89527 0.76638 0.0
C2262 C 0.72467 0.8829 0.78046 0.0
C2263 C 0.71422 0.887 0.79573 0.0
C2264 C 0.73045 0.86447 0.778 0.0
C2265 C 0.7394 0.89237 0.75044 0.0
C2266 C 0.72278 0.85229 0.76207 0.0
C2267 C 0.72707 0.83449 0.75979 0.0
C2268 C 0.73905 0.82838 0.77348 0.0
C2269 C 0.74687 0.8406 0.78945 0.0
C2270 C 0.74247 0.85852 0.79176 0.0
H2271 H 0.74514 0.90572 0.74529 0.0
H2272 H 0.75124 0.88534 0.75499 0.0
H2273 H 0.73091 0.88366 0.73832 0.0
H2274 H 0.71312 0.85643 0.7515 0.0
H2275 H 0.72078 0.82546 0.74733 0.0
H2276 H 0.67387 0.88321 0.51789 0.0
H2277 H 0.64775 0.90076 0.51532 0.0
H2278 H 0.68189 0.94763 0.54838 0.0
H2279 H 0.70804 0.93045 0.55055 0.0
H2280 H 0.62847 0.91659 0.54166 0.0
H2281 H 0.66479 0.97079 0.50214 0.0
H2282 H 0.67374 0.94967 0.50561 0.0
H2283 H 0.67791 0.96868 0.52405 0.0
C2284 C 0.67574 0.89723 0.52464 0.0
C2285 C 0.69304 0.90554 0.53424 0.0
C2286 C 0.66086 0.90726 0.52313 0.0
C2287 C 0.66306 0.92568 0.53121 0.0
C2288 C 0.68007 0.93366 0.54149 0.0
H2289 H 0.57601 0.98777 0.56065 0.0
H2290 H 0.60237 0.97073 0.56002 0.0
C2291 C 0.69495 0.92375 0.54285 0.0
C2292 C 0.64755 0.93657 0.52928 0.0
H2293 H 0.63721 0.97763 0.51617 0.0
C2294 C 0.63032 0.92986 0.53593 0.0
C2295 C 0.64984 0.95372 0.52144 0.0
C2296 C 0.66751 0.96104 0.51272 0.0
C2297 C 0.61554 0.94014 0.53561 0.0
C2298 C 0.61828 0.95784 0.52895 0.0
C2299 C 0.63526 0.96423 0.52161 0.0
C2300 C 0.60368 0.9699 0.52955 0.0
C2301 C 0.59709 0.93183 0.54226 0.0
C2302 C 0.5965 0.97617 0.51281 0.0
C2303 C 0.58166 0.98627 0.5132 0.0
C2304 C 0.57376 0.99016 0.53034 0.0
C2305 C 0.5817 0.98479 0.54721 0.0
C2306 C 0.59664 0.9749 0.54684 0.0
H2307 H 0.59545 0.91651 0.54125 0.0
H2308 H 0.59653 0.93693 0.55738 0.0
H2309 H 0.58508 0.93574 0.5338 0.0
H2310 H 0.60188 0.97263 0.49934 0.0
H2311 H 0.57574 0.99015 0.49996 0.0
H2312 H 0.36884 0.43177 0.72594 0.0
H2313 H 0.34707 0.40319 0.72675 0.0
H2314 H 0.30438 0.43445 0.74396 0.0
H2315 H 0.32622 0.46322 0.7435 0.0
H2316 H 0.30857 0.40738 0.76664 0.0
H2317 H 0.3022 0.37807 0.69146 0.0
H2318 H 0.32623 0.38424 0.70081 0.0
H2319 H 0.3118 0.40195 0.69894 0.0
C2320 C 0.35475 0.43264 0.72965 0.0
C2321 C 0.34932 0.44983 0.73469 0.0
C2322 C 0.34225 0.41625 0.72996 0.0
C2323 C 0.32399 0.41667 0.73511 0.0
C2324 C 0.31837 0.43381 0.7398 0.0
H2325 H 0.2487 0.31012 0.73272 0.0
H2326 H 0.25994 0.3423 0.72744 0.0
C2327 C 0.33089 0.45024 0.73953 0.0
C2328 C 0.31144 0.39918 0.73718 0.0
H2329 H 0.29424 0.35644 0.7144 0.0
C2330 C 0.30516 0.39636 0.75512 0.0
C2331 C 0.3067 0.38489 0.72209 0.0
C2332 C 0.31192 0.3875 0.70219 0.0
C2333 C 0.29526 0.37927 0.75866 0.0
C2334 C 0.29184 0.36454 0.74397 0.0
C2335 C 0.29708 0.36768 0.72573 0.0
C2336 C 0.28433 0.34543 0.74767 0.0
C2337 C 0.28887 0.37705 0.77822 0.0
C2338 C 0.29439 0.33654 0.76066 0.0
C2339 C 0.28806 0.31827 0.76368 0.0
C2340 C 0.27155 0.30841 0.75368 0.0
C2341 C 0.26141 0.31735 0.74071 0.0
C2342 C 0.26782 0.33571 0.73765 0.0
H2343 H 0.28707 0.39052 0.78564 0.0
H2344 H 0.27543 0.36737 0.77751 0.0
H2345 H 0.29963 0.37142 0.78687 0.0
H2346 H 0.30739 0.34363 0.76822 0.0
H2347 H 0.2963 0.3118 0.7737 0.0
H2348 H 0.17704 0.53937 0.25235 0.0
H2349 H 0.19692 0.56968 0.25551 0.0
H2350 H 0.1524 0.5925 0.22721 0.0
H2351 H 0.13257 0.56229 0.22363 0.0
H2352 H 0.18824 0.60657 0.21697 0.0
H2353 H 0.1854 0.60924 0.29544 0.0
H2354 H 0.19474 0.59006 0.28449 0.0
H2355 H 0.17052 0.59191 0.27919 0.0
C2356 C 0.17156 0.55077 0.24655 0.0
C2357 C 0.1531 0.54847 0.238 0.0
C2358 C 0.18294 0.56808 0.24841 0.0
C2359 C 0.17597 0.58336 0.24192 0.0
C2360 C 0.158 0.58087 0.23237 0.0
H2361 H 0.19246 0.69685 0.2801 0.0
H2362 H 0.18259 0.66397 0.27053 0.0
C2363 C 0.14666 0.56358 0.2304 0.0
C2364 C 0.18657 0.60226 0.24647 0.0
H2365 H 0.20092 0.6355 0.28353 0.0
C2366 C 0.19127 0.61287 0.23151 0.0
C2367 C 0.19028 0.61043 0.26548 0.0
C2368 C 0.18488 0.59993 0.28211 0.0
C2369 C 0.19912 0.63164 0.23506 0.0
C2370 C 0.20247 0.63984 0.25405 0.0
C2371 C 0.19836 0.62908 0.269 0.0
C2372 C 0.20855 0.65992 0.25879 0.0
C2373 C 0.20296 0.64277 0.21852 0.0
C2374 C 0.22642 0.66853 0.25525 0.0
C2375 C 0.23213 0.68742 0.2607 0.0
C2376 C 0.22006 0.69789 0.26984 0.0
C2377 C 0.20211 0.6892 0.27313 0.0
C2378 C 0.19644 0.6704 0.26768 0.0
H2379 H 0.19686 0.63504 0.20473 0.0
H2380 H 0.19717 0.65587 0.22037 0.0
H2381 H 0.21832 0.64636 0.21792 0.0
H2382 H 0.23604 0.66059 0.24863 0.0
H2383 H 0.24607 0.69373 0.25803 0.0
H2384 H 0.50619 0.71456 0.4529 0.0
H2385 H 0.50791 0.68736 0.47024 0.0
H2386 H 0.49238 0.65183 0.418 0.0
H2387 H 0.4905 0.67874 0.4006 0.0
H2388 H 0.47706 0.65141 0.46845 0.0
H2389 H 0.54622 0.64252 0.44315 0.0
H2390 H 0.53799 0.66452 0.44481 0.0
H2391 H 0.52885 0.64721 0.42557 0.0
C2392 C 0.50293 0.70094 0.44515 0.0
C2393 C 0.49829 0.6988 0.42536 0.0
C2394 C 0.50393 0.68546 0.45508 0.0
C2395 C 0.50044 0.66769 0.44531 0.0
C2396 C 0.49524 0.66549 0.42571 0.0
H2397 H 0.49728 0.55471 0.45032 0.0
H2398 H 0.50059 0.58703 0.44431 0.0
C2399 C 0.49414 0.68088 0.41582 0.0
C2400 C 0.5028 0.65129 0.45522 0.0
H2401 H 0.52962 0.61714 0.4566 0.0
C2402 C 0.48871 0.64405 0.46625 0.0
C2403 C 0.51805 0.64185 0.45227 0.0
C2404 C 0.53376 0.64943 0.44092 0.0
C2405 C 0.4889 0.6269 0.47345 0.0
C2406 C 0.50373 0.61701 0.4697 0.0
C2407 C 0.5183 0.62478 0.45949 0.0
C2408 C 0.50315 0.59764 0.474 0.0
C2409 C 0.47269 0.61894 0.48398 0.0
C2410 C 0.50398 0.59291 0.49276 0.0
C2411 C 0.50212 0.57431 0.49628 0.0
C2412 C 0.49936 0.56026 0.48106 0.0
C2413 C 0.49926 0.56518 0.46236 0.0
C2414 C 0.50118 0.58366 0.45888 0.0
H2415 H 0.46109 0.62719 0.48337 0.0
H2416 H 0.46713 0.60453 0.47797 0.0
H2417 H 0.4776 0.61865 0.49913 0.0
H2418 H 0.50577 0.60354 0.50463 0.0
H2419 H 0.50224 0.57093 0.51084 0.0
H2420 H 0.59126 0.28499 0.64445 0.0
H2421 H 0.61992 0.28489 0.66503 0.0
H2422 H 0.5903 0.29467 0.71457 0.0
H2423 H 0.56161 0.2946 0.6942 0.0
H2424 H 0.64092 0.31053 0.69619 0.0
H2425 H 0.60751 0.24358 0.71858 0.0
H2426 H 0.59829 0.25335 0.69815 0.0
H2427 H 0.59461 0.26247 0.72169 0.0
C2428 C 0.59095 0.28746 0.65971 0.0
C2429 C 0.57414 0.2895 0.66773 0.0
C2430 C 0.60732 0.28743 0.67142 0.0
C2431 C 0.60707 0.28947 0.69127 0.0
C2432 C 0.59066 0.29281 0.69927 0.0
H2433 H 0.70511 0.28706 0.77186 0.0
H2434 H 0.67666 0.29624 0.75711 0.0
C2435 C 0.5743 0.29278 0.6876 0.0
C2436 C 0.6234 0.28633 0.70354 0.0
H2437 H 0.6381 0.25537 0.73194 0.0
C2438 C 0.64031 0.2986 0.70418 0.0
C2439 C 0.62249 0.27062 0.71375 0.0
C2440 C 0.60482 0.25663 0.71297 0.0
C2441 C 0.6565 0.29541 0.71466 0.0
C2442 C 0.65559 0.27963 0.72473 0.0
C2443 C 0.63861 0.26756 0.72433 0.0
C2444 C 0.67252 0.27427 0.73408 0.0
C2445 C 0.67464 0.30845 0.71432 0.0
C2446 C 0.67924 0.25872 0.72617 0.0
C2447 C 0.69532 0.25345 0.73449 0.0
C2448 C 0.70495 0.26358 0.751 0.0
C2449 C 0.69796 0.27897 0.75917 0.0
C2450 C 0.68183 0.2843 0.75072 0.0
H2451 H 0.67344 0.3189 0.70413 0.0
H2452 H 0.67883 0.31578 0.72873 0.0
H2453 H 0.68597 0.30061 0.71044 0.0
H2454 H 0.67216 0.25078 0.71336 0.0
H2455 H 0.7003 0.24151 0.72784 0.0
H2456 H 0.98113 0.29332 0.92633 0.0
H2457 H 0.97544 0.32145 0.94468 0.0
H2458 H 0.0241 0.35222 0.92406 0.0
H2459 H 0.0292 0.32443 0.90494 0.0
H2460 H 0.99319 0.34587 0.97206 0.0
H2461 H 0.98495 0.38113 0.90717 0.0
H2462 H 0.98675 0.35694 0.90622 0.0
H2463 H 0.00756 0.37421 0.90959 0.0
C2464 C 0.99068 0.30608 0.92586 0.0
C2465 C 0.00543 0.30681 0.914 0.0
C2466 C 0.98741 0.32213 0.93633 0.0
C2467 C -0.001 0.33907 0.93527 0.0
C2468 C 0.01455 0.33947 0.92453 0.0
H2469 H 0.01236 0.44092 0.00723 0.0
H2470 H 0.01008 0.40846 -0.00465 0.0
C2471 C 0.01755 0.32356 0.91373 0.0
C2472 C -0.00549 0.35647 0.94475 0.0
H2473 H 0.98964 0.40044 0.93661 0.0
C2474 C 0.99218 0.35777 0.9643 0.0
C2475 C 0.99256 0.37182 0.93454 0.0
C2476 C 0.99286 0.37089 0.91319 0.0
C2477 C 0.9888 0.37426 0.97404 0.0
C2478 C 0.98844 0.39007 0.96409 0.0
C2479 C 0.99005 0.38847 0.9444 0.0
C2480 C 0.98745 0.40869 0.97364 0.0
C2481 C 0.98546 0.37442 -0.0052 0.0
C2482 C 0.97553 0.41982 0.96551 0.0
C2483 C 0.97735 0.43857 0.97184 0.0
C2484 C 0.99073 0.44641 0.98678 0.0
C2485 C 0.00167 0.43507 -0.00409 0.0
C2486 C 0.00028 0.41644 0.98918 0.0
H2487 H 0.97885 0.36056 -0.00192 0.0
H2488 H -0.00089 0.37797 0.00352 0.0
H2489 H 0.97635 0.38461 -0.00092 0.0
H2490 H 0.96548 0.41422 0.95355 0.0
H2491 H 0.96884 0.44711 0.96455 0.0
H2492 H 0.95809 0.77307 0.15849 0.0
H2493 H 0.928 0.77245 0.17217 0.0
H2494 H 0.94396 0.73519 0.21169 0.0
H2495 H 0.97416 0.73598 0.1984 0.0
H2496 H 0.89943 0.74357 0.17631 0.0
H2497 H 0.93151 0.77789 0.24663 0.0
H2498 H 0.94445 0.77701 0.22587 0.0
H2499 H 0.94025 0.75718 0.23894 0.0
C2500 C 0.95515 0.76464 0.17 0.0
C2501 C 0.96861 0.75475 0.1775 0.0
C2502 C 0.93797 0.76432 0.17781 0.0
C2503 C 0.93397 0.7541 0.19321 0.0
C2504 C 0.94699 0.74354 0.20013 0.0
H2505 H 0.83607 0.74173 0.25883 0.0
H2506 H 0.86608 0.73845 0.24605 0.0
C2507 C 0.9642 0.74393 0.19243 0.0
C2508 C 0.91629 0.75476 0.20221 0.0
H2509 H 0.89876 0.76766 0.2439 0.0
C2510 C 0.89927 0.74882 0.19108 0.0
C2511 C 0.91618 0.76162 0.22151 0.0
C2512 C 0.93406 0.76895 0.23392 0.0
C2513 C 0.88208 0.74954 0.19875 0.0
C2514 C 0.882 0.75656 0.21796 0.0
C2515 C 0.89897 0.76222 0.22919 0.0
C2516 C 0.86439 0.75901 0.22632 0.0
C2517 C 0.86413 0.74278 0.18629 0.0
C2518 C 0.85391 0.77201 0.21979 0.0
C2519 C 0.83692 0.774 0.22709 0.0
C2520 C 0.8301 0.76301 0.24108 0.0
C2521 C 0.84094 0.75037 0.24805 0.0
C2522 C 0.85803 0.74845 0.24076 0.0
H2523 H 0.86647 0.73392 0.17344 0.0
H2524 H 0.85358 0.73484 0.19428 0.0
H2525 H 0.85824 0.75483 0.18157 0.0
H2526 H 0.8588 0.7805 0.20888 0.0
H2527 H 0.82898 0.78393 0.22147 0.0
H2528 H 0.49749 0.28293 0.06983 0.0
H2529 H 0.49744 0.30889 0.05059 0.0
H2530 H 0.50625 0.34688 0.10158 0.0
H2531 H 0.50595 0.321 0.12093 0.0
H2532 H 0.47853 0.35414 0.07647 0.0
H2533 H 0.54212 0.34591 0.03957 0.0
H2534 H 0.52466 0.32553 0.0371 0.0
H2535 H 0.53623 0.33422 0.06016 0.0
C2536 C 0.49948 0.29682 0.07695 0.0
C2537 C 0.50177 0.29992 0.09691 0.0
C2538 C 0.49957 0.31165 0.06592 0.0
C2539 C 0.50215 0.32984 0.07464 0.0
C2540 C 0.50433 0.33295 0.09456 0.0
H2541 H 0.5277 0.43422 0.0284 0.0
H2542 H 0.52869 0.40544 0.04283 0.0
C2543 C 0.50416 0.31815 0.1056 0.0
C2544 C 0.50195 0.34564 0.06308 0.0
H2545 H 0.52416 0.36797 0.02883 0.0
C2546 C 0.4885 0.35716 0.06604 0.0
C2547 C 0.51511 0.34965 0.04963 0.0
C2548 C 0.53047 0.3383 0.04651 0.0
C2549 C 0.48778 0.37257 0.0559 0.0
C2550 C 0.50063 0.37633 0.04211 0.0
C2551 C 0.51417 0.36488 0.03921 0.0
C2552 C 0.50078 0.39269 0.03135 0.0
C2553 C 0.47359 0.38498 0.06041 0.0
C2554 C 0.48504 0.39474 0.01946 0.0
C2555 C 0.4844 0.4112 0.01121 0.0
C2556 C 0.49953 0.42585 0.01462 0.0
C2557 C 0.51575 0.42325 0.02554 0.0
C2558 C 0.51636 0.40681 0.03381 0.0
H2559 H 0.46786 0.38267 0.07427 0.0
H2560 H 0.47988 0.39975 0.06081 0.0
H2561 H 0.46173 0.38206 0.04919 0.0
H2562 H 0.47302 0.38383 0.01705 0.0
H2563 H 0.47175 0.41267 0.00277 0.0
H2564 H 0.95426 0.2483 0.3758 0.0
H2565 H 0.92151 0.24668 0.36366 0.0
H2566 H 0.93892 0.27949 0.3188 0.0
H2567 H 0.97168 0.28109 0.33065 0.0
H2568 H 0.90139 0.27674 0.35826 0.0
H2569 H 0.90502 0.2333 0.29069 0.0
H2570 H 0.92269 0.2356 0.31045 0.0
H2571 H 0.92233 0.2538 0.29526 0.0
C2572 C 0.95115 0.25513 0.36331 0.0
C2573 C 0.96562 0.26474 0.35414 0.0
C2574 C 0.93243 0.25421 0.35643 0.0
C2575 C 0.92786 0.26277 0.34022 0.0
C2576 C 0.9422 0.27253 0.33115 0.0
H2577 H 0.81991 0.26308 0.27685 0.0
H2578 H 0.85315 0.26996 0.28853 0.0
C2579 C 0.96092 0.27348 0.33801 0.0
C2580 C 0.90803 0.26161 0.33291 0.0
H2581 H 0.8765 0.24416 0.2951 0.0
C2582 C 0.89592 0.26963 0.34445 0.0
C2583 C 0.90104 0.25245 0.31484 0.0
C2584 C 0.91336 0.24315 0.3021 0.0
C2585 C 0.8769 0.26871 0.33839 0.0
C2586 C 0.86981 0.2592 0.32048 0.0
C2587 C 0.88201 0.25148 0.3088 0.0
C2588 C 0.8496 0.25618 0.31403 0.0
C2589 C 0.86462 0.27804 0.35115 0.0
C2590 C 0.83665 0.24613 0.32448 0.0
C2591 C 0.81772 0.2422 0.31788 0.0
C2592 C 0.81138 0.24812 0.3006 0.0
C2593 C 0.82435 0.25837 0.29023 0.0
C2594 C 0.84333 0.26229 0.29686 0.0
H2595 H 0.87301 0.28916 0.36129 0.0
H2596 H 0.85399 0.28407 0.34273 0.0
H2597 H 0.85717 0.2677 0.35956 0.0
H2598 H 0.84125 0.24093 0.33754 0.0
H2599 H 0.80812 0.23422 0.32618 0.0
H2600 H 0.98165 0.66866 0.62747 0.0
H2601 H 0.97854 0.64081 0.6052 0.0
H2602 H -0.00654 0.67423 0.56 0.0
H2603 H -0.00419 0.70221 0.58204 0.0
H2604 H 0.96708 0.64471 0.54705 0.0
H2605 H 0.02491 0.62202 0.58972 0.0
H2606 H 0.00538 0.62494 0.60315 0.0
H2607 H 0.01856 0.64463 0.59422 0.0
C2608 C 0.98405 0.67009 0.61273 0.0
C2609 C 0.98924 0.6876 0.60656 0.0
C2610 C 0.98235 0.65416 0.60004 0.0
C2611 C 0.98631 0.65541 0.58107 0.0
C2612 C 0.99048 0.67292 0.57461 0.0
H2613 H 0.02422 0.56562 0.51666 0.0
H2614 H 0.02055 0.59602 0.53131 0.0
C2615 C 0.99184 0.6889 0.58723 0.0
C2616 C 0.9873 0.63852 0.56834 0.0
H2617 H 0.00897 0.60057 0.5648 0.0
C2618 C 0.97629 0.63507 0.55085 0.0
C2619 C -0.0004 0.62614 0.57315 0.0
C2620 C 0.01293 0.62969 0.59098 0.0
C2621 C 0.97707 0.61942 0.53817 0.0
C2622 C 0.98886 0.60671 0.54336 0.0
C2623 C -0.00011 0.61027 0.56081 0.0
C2624 C 0.99035 0.58964 0.53108 0.0
C2625 C 0.96561 0.61693 0.51922 0.0
C2626 C 0.97453 0.57615 0.52534 0.0
C2627 C 0.9766 0.55888 0.51647 0.0
C2628 C -0.00545 0.55477 0.51372 0.0
C2629 C 0.01024 0.56852 0.51866 0.0
C2630 C 0.00814 0.58584 0.52707 0.0
H2631 H 0.96214 0.63028 0.51507 0.0
H2632 H 0.97313 0.61069 0.50784 0.0
H2633 H 0.95224 0.60761 0.52022 0.0
H2634 H 0.96071 0.57854 0.52866 0.0
H2635 H 0.96435 0.54835 0.51306 0.0
H2636 H 0.55321 0.74338 0.83837 0.0
H2637 H 0.58098 0.74059 0.82141 0.0
H2638 H 0.61521 0.74877 0.87481 0.0
H2639 H 0.58746 0.75126 0.8919 0.0
H2640 H 0.61149 0.76726 0.82169 0.0
H2641 H 0.63329 0.70458 0.84794 0.0
H2642 H 0.61033 0.71056 0.85071 0.0
H2643 H 0.63006 0.72132 0.8669 0.0
C2644 C 0.56662 0.74436 0.84653 0.0
C2645 C 0.56816 0.74755 0.86648 0.0
C2646 C 0.58246 0.74274 0.83681 0.0
C2647 C 0.60011 0.74419 0.84685 0.0
C2648 C 0.60166 0.74716 0.86679 0.0
H2649 H 0.71495 0.76601 0.83089 0.0
H2650 H 0.68361 0.75795 0.84105 0.0
C2651 C 0.58581 0.74873 0.87654 0.0
C2652 C 0.61711 0.74414 0.83648 0.0
H2653 H 0.65667 0.72452 0.83376 0.0
C2654 C 0.62122 0.75771 0.82404 0.0
C2655 C 0.62972 0.7316 0.83952 0.0
C2656 C 0.62555 0.71607 0.85185 0.0
C2657 C 0.63811 0.75975 0.8154 0.0
C2658 C 0.65109 0.74774 0.81913 0.0
C2659 C 0.64666 0.7337 0.83095 0.0
C2660 C 0.6701 0.75084 0.81256 0.0
C2661 C 0.6424 0.77536 0.80317 0.0
C2662 C 0.67293 0.74907 0.79313 0.0
C2663 C 0.69092 0.75371 0.78723 0.0
C2664 C 0.70626 0.7602 0.8007 0.0
C2665 C 0.70341 0.76124 0.82014 0.0
C2666 C 0.68552 0.75656 0.826 0.0
H2667 H 0.63215 0.78511 0.80411 0.0
H2668 H 0.65667 0.78318 0.8074 0.0
H2669 H 0.64198 0.7696 0.78811 0.0
H2670 H 0.6612 0.74445 0.78257 0.0
H2671 H 0.69272 0.75269 0.77216 0.0
H2672 H 0.38309 0.51184 0.6732 0.0
H2673 H 0.40151 0.51341 0.64559 0.0
H2674 H 0.45194 0.53209 0.68277 0.0
H2675 H 0.43373 0.53011 0.7104 0.0
H2676 H 0.42417 0.54216 0.63264 0.0
H2677 H 0.46579 0.48809 0.65177 0.0
H2678 H 0.44529 0.49215 0.66344 0.0
H2679 H 0.46734 0.50707 0.66986 0.0
C2680 C 0.3981 0.5163 0.67548 0.0
C2681 C 0.40698 0.52066 0.69398 0.0
C2682 C 0.4086 0.5172 0.65971 0.0
C2683 C 0.42815 0.52251 0.66214 0.0
C2684 C 0.43695 0.5275 0.68057 0.0
H2685 H 0.51048 0.52859 0.5767 0.0
H2686 H 0.49567 0.53297 0.60654 0.0
C2687 C 0.42649 0.52646 0.69634 0.0
C2688 C 0.43929 0.52271 0.64538 0.0
H2689 H 0.47401 0.50349 0.625 0.0
C2690 C 0.43509 0.53373 0.63099 0.0
C2691 C 0.45359 0.51174 0.64327 0.0
C2692 C 0.4582 0.49896 0.6578 0.0
C2693 C 0.44471 0.53398 0.61451 0.0
C2694 C 0.45877 0.52281 0.6123 0.0
C2695 C 0.4633 0.51213 0.62684 0.0
C2696 C 0.46781 0.52083 0.59433 0.0
C2697 C 0.43969 0.54612 0.59951 0.0
C2698 C 0.45707 0.51239 0.57774 0.0
C2699 C 0.46544 0.50976 0.56084 0.0
C2700 C 0.48478 0.51554 0.56012 0.0
C2701 C 0.49555 0.52406 0.57677 0.0
C2702 C 0.48714 0.52656 0.5938 0.0
H2703 H 0.43229 0.55723 0.60534 0.0
H2704 H 0.45241 0.55252 0.59326 0.0
H2705 H 0.43026 0.53757 0.58791 0.0
H2706 H 0.44219 0.5076 0.57794 0.0
H2707 H 0.45669 0.50315 0.54831 0.0
H2708 H 0.77666 0.1945 0.99197 0.0
H2709 H 0.77411 0.21391 0.96597 0.0
H2710 H 0.76485 0.16547 0.92538 0.0
H2711 H 0.76755 0.14592 0.9513 0.0
H2712 H 0.79084 0.19497 0.91537 0.0
H2713 H 0.72461 0.21783 0.93514 0.0
H2714 H 0.7433 0.22153 0.95386 0.0
H2715 H 0.73313 0.19838 0.94454 0.0
C2716 C 0.77415 0.18796 0.97751 0.0
C2717 C 0.77222 0.16866 0.97368 0.0
C2718 C 0.77258 0.19908 0.96269 0.0
C2719 C 0.76898 0.19108 0.94381 0.0
C2720 C 0.76752 0.17187 0.93989 0.0
H2721 H 0.73034 0.23246 0.84118 0.0
H2722 H 0.73352 0.21797 0.87067 0.0
C2723 C 0.76907 0.16073 0.9547 0.0
C2724 C 0.76677 0.20274 0.9281 0.0
H2725 H 0.739 0.23159 0.90985 0.0
C2726 C 0.77955 0.20303 0.91417 0.0
C2727 C 0.75191 0.21307 0.92653 0.0
C2728 C 0.73733 0.21263 0.9407 0.0
C2729 C 0.77789 0.21342 0.89867 0.0
C2730 C 0.76319 0.22398 0.89725 0.0
C2731 C 0.75038 0.22365 0.91115 0.0
C2732 C 0.76029 0.23451 0.88076 0.0
C2733 C 0.79155 0.21258 0.88365 0.0
C2734 C 0.77393 0.24914 0.8771 0.0
C2735 C 0.77216 0.25748 0.86025 0.0
C2736 C 0.7567 0.25133 0.84682 0.0
C2737 C 0.74248 0.23748 0.85116 0.0
C2738 C 0.74426 0.22916 0.868 0.0
H2739 H 0.79944 0.20087 0.88477 0.0
H2740 H 0.78416 0.2112 0.86918 0.0
H2741 H 0.80181 0.22557 0.88536 0.0
H2742 H 0.78624 0.25369 0.88697 0.0
H2743 H 0.78332 0.26818 0.85741 0.0
H2744 H 0.07155 0.45692 0.21116 0.0
H2745 H 0.05096 0.45475 0.18192 0.0
H2746 H 0.09886 0.47131 0.1511 0.0
H2747 H 0.11958 0.47302 0.18021 0.0
H2748 H 0.04742 0.48466 0.16447 0.0
H2749 H 0.06836 0.43232 0.11303 0.0
H2750 H 0.07517 0.43384 0.13822 0.0
H2751 H 0.08816 0.44875 0.12332 0.0
C2752 C 0.07774 0.45957 0.19802 0.0
C2753 C 0.09714 0.46527 0.19795 0.0
C2754 C 0.06595 0.45833 0.18135 0.0
C2755 C 0.07335 0.46278 0.16431 0.0
C2756 C 0.09286 0.46741 0.16398 0.0
H2757 H 0.0436 0.50696 0.06368 0.0
H2758 H 0.05716 0.49519 0.09161 0.0
C2759 C 0.1047 0.46848 0.18065 0.0
C2760 C 0.06065 0.46525 0.14775 0.0
H2761 H 0.05244 0.45546 0.09964 0.0
C2762 C 0.04819 0.47794 0.15035 0.0
C2763 C 0.06169 0.4565 0.12937 0.0
C2764 C 0.07394 0.44195 0.12585 0.0
C2765 C 0.03755 0.4829 0.13491 0.0
C2766 C 0.03936 0.47487 0.11644 0.0
C2767 C 0.05117 0.4616 0.11388 0.0
C2768 C 0.03068 0.48155 0.09949 0.0
C2769 C 0.02523 0.49743 0.13825 0.0
C2770 C 0.01125 0.47781 0.09479 0.0
C2771 C 0.00337 0.48451 0.07873 0.0
C2772 C 0.01487 0.49504 0.06721 0.0
C2773 C 0.03431 0.49887 0.07219 0.0
C2774 C 0.04213 0.4921 0.0881 0.0
H2775 H 0.02682 0.50363 0.15327 0.0
H2776 H 0.02861 0.50861 0.12893 0.0
H2777 H 0.01035 0.49115 0.13455 0.0
H2778 H 0.00224 0.46962 0.10347 0.0
H2779 H 0.98836 0.48128 0.07523 0.0
H2780 H 0.73726 0.87991 0.44903 0.0
H2781 H 0.74087 0.86157 0.41954 0.0
H2782 H 0.75507 0.81766 0.45131 0.0
H2783 H 0.75137 0.8359 0.48107 0.0
H2784 H 0.7742 0.84747 0.40972 0.0
H2785 H 0.71283 0.79186 0.41038 0.0
H2786 H 0.71502 0.81373 0.42477 0.0
H2787 H 0.72897 0.79682 0.4314 0.0
C2788 C 0.74103 0.86631 0.44983 0.0
C2789 C 0.74398 0.85938 0.46747 0.0
C2790 C 0.74314 0.85587 0.43292 0.0
C2791 C 0.74812 0.83823 0.43324 0.0
C2792 C 0.75099 0.83116 0.45076 0.0
H2793 H 0.75391 0.76442 0.32919 0.0
H2794 H 0.75798 0.77644 0.363 0.0
C2795 C 0.74892 0.84164 0.46774 0.0
C2796 C 0.75063 0.82761 0.4151 0.0
H2797 H 0.73027 0.79085 0.38375 0.0
C2798 C 0.76474 0.83497 0.40412 0.0
C2799 C 0.73839 0.81121 0.40795 0.0
C2800 C 0.72285 0.8029 0.41911 0.0
C2801 C 0.76651 0.82673 0.38587 0.0
C2802 C 0.75363 0.81091 0.37828 0.0
C2803 C 0.74012 0.80299 0.38962 0.0
C2804 C 0.75255 0.80375 0.35795 0.0
C2805 C 0.78194 0.83525 0.3747 0.0
C2806 C 0.74812 0.81511 0.344 0.0
C2807 C 0.74574 0.80831 0.32484 0.0
C2808 C 0.74767 0.78997 0.31917 0.0
C2809 C 0.75244 0.77864 0.33312 0.0
C2810 C 0.75471 0.78546 0.35241 0.0
H2811 H 0.79386 0.84316 0.38426 0.0
H2812 H 0.78721 0.82455 0.36545 0.0
H2813 H 0.77641 0.84498 0.36553 0.0
H2814 H 0.74602 0.82915 0.34797 0.0
H2815 H 0.74207 0.81741 0.31448 0.0
H2816 H 0.38936 0.51739 0.81141 0.0
H2817 H 0.39883 0.5185 0.84543 0.0
H2818 H 0.44715 0.49365 0.83249 0.0
H2819 H 0.43766 0.49214 0.79861 0.0
H2820 H 0.4284 0.47735 0.86028 0.0
H2821 H 0.44124 0.55365 0.87639 0.0
H2822 H 0.41821 0.54441 0.8654 0.0
H2823 H 0.43833 0.54249 0.8524 0.0
C2824 C 0.40206 0.51227 0.8158 0.0
C2825 C 0.41277 0.50472 0.80225 0.0
C2826 C 0.4075 0.51299 0.83525 0.0
C2827 C 0.42384 0.50638 0.84148 0.0
C2828 C 0.43452 0.49886 0.828 0.0
H2829 H 0.48568 0.50055 0.94986 0.0
H2830 H 0.47408 0.49736 0.91619 0.0
C2831 C 0.42906 0.49804 0.80861 0.0
C2832 C 0.4297 0.50688 0.86204 0.0
H2833 H 0.4428 0.53601 0.90265 0.0
C2834 C 0.43159 0.49018 0.86954 0.0
C2835 C 0.43389 0.52364 0.87408 0.0
C2836 C 0.433 0.54209 0.86667 0.0
C2837 C 0.43736 0.48976 0.88882 0.0
C2838 C 0.44152 0.5065 0.90083 0.0
C2839 C 0.43954 0.52319 0.89337 0.0
C2840 C 0.448 0.50709 0.9212 0.0
C2841 C 0.43871 0.47141 0.89627 0.0
C2842 C 0.43718 0.51361 0.93513 0.0
C2843 C 0.44375 0.51543 0.95432 0.0
C2844 C 0.46136 0.51094 0.95996 0.0
C2845 C 0.47203 0.50404 0.946 0.0
C2846 C 0.4654 0.50217 0.92676 0.0
H2847 H 0.43107 0.45967 0.88637 0.0
H2848 H 0.45366 0.46968 0.89805 0.0
H2849 H 0.43302 0.47081 0.91036 0.0
H2850 H 0.42374 0.51752 0.93111 0.0
H2851 H 0.43517 0.52079 0.96469 0.0
H2852 H 0.7941 0.18563 0.06541 0.0
H2853 H 0.79886 0.21031 0.09166 0.0
H2854 H 0.78899 0.16973 0.13154 0.0
H2855 H 0.78443 0.14505 0.10556 0.0
H2856 H 0.77148 0.21682 0.11451 0.0
H2857 H 0.83346 0.20492 0.15881 0.0
H2858 H 0.82821 0.19508 0.13436 0.0
H2859 H 0.81704 0.18397 0.15312 0.0
C2860 C 0.79337 0.18193 0.07981 0.0
C2861 C 0.78877 0.16335 0.08337 0.0
C2862 C 0.7961 0.19607 0.09478 0.0
C2863 C 0.79452 0.19186 0.11356 0.0
C2864 C 0.79072 0.1733 0.11721 0.0
H2865 H 0.74553 0.22934 0.20682 0.0
H2866 H 0.75492 0.21897 0.17592 0.0
C2867 C 0.78794 0.15919 0.10229 0.0
C2868 C 0.79433 0.20665 0.12913 0.0
H2869 H 0.8107 0.21998 0.17542 0.0
C2870 C 0.7804 0.21787 0.12766 0.0
C2871 C 0.80614 0.20827 0.14618 0.0
C2872 C 0.82218 0.19754 0.14814 0.0
C2873 C 0.77689 0.22943 0.14335 0.0
C2874 C 0.78745 0.22959 0.16094 0.0
C2875 C 0.80247 0.21966 0.16196 0.0
C2876 C 0.78136 0.23759 0.17888 0.0
C2877 C 0.76132 0.24073 0.14122 0.0
C2878 C 0.79317 0.2515 0.19085 0.0
C2879 C 0.78779 0.25754 0.20864 0.0
C2880 C 0.7707 0.24945 0.21477 0.0
C2881 C 0.7588 0.23581 0.20253 0.0
C2882 C 0.76408 0.22996 0.18479 0.0
H2883 H 0.75893 0.24392 0.1263 0.0
H2884 H 0.74814 0.23272 0.14509 0.0
H2885 H 0.76445 0.25388 0.15068 0.0
H2886 H 0.80665 0.25741 0.18658 0.0
H2887 H 0.79727 0.26799 0.21784 0.0
H2888 H 0.06984 0.52743 0.28798 0.0
H2889 H 0.05404 0.52834 0.31722 0.0
H2890 H 0.08773 0.49027 0.33929 0.0
H2891 H 0.10391 0.48958 0.31028 0.0
H2892 H 0.03288 0.49903 0.32951 0.0
H2893 H 0.09048 0.52829 0.38456 0.0
H2894 H 0.09272 0.5296 0.3595 0.0
H2895 H 0.09589 0.50886 0.37012 0.0
C2896 C 0.07413 0.51949 0.29919 0.0
C2897 C 0.0881 0.50838 0.2968 0.0
C2898 C 0.06507 0.52004 0.31588 0.0
C2899 C 0.06981 0.50951 0.33047 0.0
C2900 C 0.08413 0.49882 0.32837 0.0
H2901 H 0.02367 0.46812 0.4276 0.0
H2902 H 0.03749 0.47336 0.39779 0.0
C2903 C 0.09332 0.49837 0.31174 0.0
C2904 C 0.05871 0.50842 0.34713 0.0
H2905 H 0.06256 0.51222 0.39561 0.0
C2906 C 0.03932 0.50219 0.34396 0.0
C2907 C 0.06714 0.51261 0.36596 0.0
C2908 C 0.08767 0.5204 0.37026 0.0
C2909 C 0.02826 0.49933 0.35918 0.0
C2910 C 0.03687 0.50276 0.37789 0.0
C2911 C 0.05611 0.5095 0.38113 0.0
C2912 C 0.02638 0.49859 0.39439 0.0
C2913 C 0.0076 0.49207 0.35526 0.0
C2914 C 0.01517 0.51085 0.40193 0.0
C2915 C 0.00724 0.50794 0.41901 0.0
C2916 C 0.01054 0.49276 0.42875 0.0
C2917 C 0.02094 0.47999 0.42051 0.0
C2918 C 0.02887 0.48295 0.40351 0.0
H2919 H 0.00319 0.4893 0.3398 0.0
H2920 H 0.00407 0.47911 0.36205 0.0
H2921 H -0.00054 0.50228 0.36163 0.0
H2922 H 0.0132 0.52303 0.39501 0.0
H2923 H -0.00067 0.51803 0.42503 0.0
H2924 H 0.75645 0.86765 0.60101 0.0
H2925 H 0.7548 0.84879 0.62767 0.0
H2926 H 0.7326 0.80041 0.58915 0.0
H2927 H 0.73437 0.81918 0.56229 0.0
H2928 H 0.72188 0.82776 0.63846 0.0
H2929 H 0.77558 0.78376 0.62132 0.0
H2930 H 0.77414 0.80496 0.61074 0.0
H2931 H 0.75761 0.78453 0.60266 0.0
C2932 C 0.75139 0.85297 0.59815 0.0
C2933 C 0.74558 0.84492 0.57951 0.0
C2934 C 0.75042 0.84221 0.61342 0.0
C2935 C 0.74372 0.82318 0.61038 0.0
C2936 C 0.73809 0.81502 0.59178 0.0
H2937 H 0.73442 0.74573 0.69883 0.0
H2938 H 0.73075 0.7581 0.66789 0.0
C2939 C 0.73905 0.82579 0.57646 0.0
C2940 C 0.74199 0.81217 0.62687 0.0
H2941 H 0.75984 0.77831 0.6487 0.0
C2942 C 0.73009 0.81686 0.64063 0.0
C2943 C 0.75255 0.79782 0.62957 0.0
C2944 C 0.76581 0.79248 0.6154 0.0
C2945 C 0.72881 0.80792 0.65725 0.0
C2946 C 0.73995 0.79412 0.66035 0.0
C2947 C 0.75129 0.78888 0.64626 0.0
C2948 C 0.74146 0.78641 0.67892 0.0
C2949 C 0.71569 0.81348 0.67149 0.0
C2950 C 0.74882 0.79819 0.69524 0.0
C2951 C 0.75095 0.79123 0.71276 0.0
C2952 C 0.74584 0.77226 0.7144 0.0
C2953 C 0.73837 0.76041 0.69805 0.0
C2954 C 0.73633 0.76744 0.68039 0.0
H2955 H 0.70426 0.81978 0.66468 0.0
H2956 H 0.70938 0.80144 0.67853 0.0
H2957 H 0.72366 0.8239 0.68261 0.0
H2958 H 0.75319 0.81281 0.69437 0.0
H2959 H 0.75677 0.80077 0.72502 0.0
H2960 H 0.66979 0.38432 0.52239 0.0
H2961 H 0.64633 0.40465 0.52689 0.0
H2962 H 0.69002 0.4495 0.54949 0.0
H2963 H 0.71353 0.42949 0.54441 0.0
H2964 H 0.63585 0.42592 0.55709 0.0
H2965 H 0.66678 0.47014 0.50413 0.0
H2966 H 0.67366 0.44814 0.50783 0.0
H2967 H 0.68261 0.46815 0.52424 0.0
C2968 C 0.67434 0.39845 0.52852 0.0
C2969 C 0.69347 0.40544 0.53274 0.0
C2970 C 0.66095 0.41004 0.53111 0.0
C2971 C 0.66651 0.42869 0.53811 0.0
C2972 C 0.68549 0.4353 0.5436 0.0
H2973 H 0.57767 0.49782 0.55321 0.0
H2974 H 0.6063 0.48482 0.56081 0.0
C2975 C 0.69888 0.42383 0.54074 0.0
C2976 C 0.65259 0.44146 0.53836 0.0
H2977 H 0.64049 0.47866 0.51788 0.0
C2978 C 0.63692 0.43758 0.5487 0.0
C2979 C 0.65403 0.4566 0.52727 0.0
C2980 C 0.67007 0.46096 0.5151 0.0
C2981 C 0.62232 0.44807 0.54774 0.0
C2982 C 0.62366 0.46301 0.53643 0.0
C2983 C 0.63966 0.46731 0.5267 0.0
C2984 C 0.60753 0.47251 0.53212 0.0
C2985 C 0.60513 0.44248 0.55798 0.0
C2986 C 0.59928 0.47051 0.5134 0.0
C2987 C 0.58318 0.47797 0.50903 0.0
C2988 C 0.57497 0.48763 0.52331 0.0
C2989 C 0.58371 0.49041 0.54194 0.0
C2990 C 0.59992 0.48287 0.54633 0.0
H2991 H 0.60514 0.42893 0.56372 0.0
H2992 H 0.6046 0.45304 0.57002 0.0
H2993 H 0.59223 0.44164 0.54828 0.0
H2994 H 0.60499 0.46264 0.50222 0.0
H2995 H 0.57689 0.47571 0.49451 0.0
H2996 H 0.18191 0.12069 0.46432 0.0
H2997 H 0.15051 0.10255 0.46392 0.0
H2998 H 0.1742 0.06077 0.49209 0.0
H2999 H 0.20549 0.07824 0.49152 0.0
H3000 H 0.14786 0.04487 0.46659 0.0
H3001 H 0.12067 0.10068 0.5086 0.0
H3002 H 0.12826 0.10718 0.48631 0.0
H3003 H 0.14503 0.10224 0.50439 0.0
C3004 C 0.18035 0.10757 0.4703 0.0
C3005 C 0.19609 0.10094 0.47808 0.0
C3006 C 0.16242 0.09728 0.4702 0.0
C3007 C 0.15991 0.08048 0.47841 0.0
C3008 C 0.17572 0.07368 0.48572 0.0
H3009 H 0.06226 0.03182 0.52748 0.0
H3010 H 0.09256 0.04745 0.51986 0.0
C3011 C 0.19363 0.08373 0.48543 0.0
C3012 C 0.14092 0.07008 0.47998 0.0
H3013 H 0.09922 0.07364 0.49825 0.0
C3014 C 0.13721 0.05116 0.47351 0.0
C3015 C 0.12707 0.07823 0.48919 0.0
C3016 C 0.13048 0.09814 0.49769 0.0
C3017 C 0.1203 0.04007 0.47643 0.0
C3018 C 0.10637 0.0483 0.48541 0.0
C3019 C 0.10988 0.06733 0.49135 0.0
C3020 C 0.08851 0.03743 0.48993 0.0
C3021 C 0.11794 0.01957 0.47065 0.0
C3022 C 0.07621 0.02628 0.47573 0.0
C3023 C 0.05904 0.0169 0.48021 0.0
C3024 C 0.0537 0.01901 0.49882 0.0
C3025 C 0.06604 0.03003 0.513 0.0
C3026 C 0.08332 0.03901 0.50863 0.0
H3027 H 0.13166 0.01486 0.46917 0.0
H3028 H 0.1105 0.01158 0.48116 0.0
H3029 H 0.10961 0.01632 0.45666 0.0
H3030 H 0.07963 0.02521 0.4611 0.0
H3031 H 0.0496 0.00869 0.46899 0.0
H3032 H 0.19707 0.97538 0.7781 0.0
H3033 H 0.2159 0.95045 0.77797 0.0
H3034 H 0.16577 0.9106 0.77841 0.0
H3035 H 0.14682 0.93538 0.77837 0.0
H3036 H 0.21933 0.92435 0.80395 0.0
H3037 H 0.19078 0.89047 0.73258 0.0
H3038 H 0.18754 0.91357 0.74092 0.0
H3039 H 0.17302 0.89387 0.74831 0.0
C3040 C 0.19004 0.96131 0.7782 0.0
C3041 C 0.17042 0.95735 0.77814 0.0
C3042 C 0.20084 0.94709 0.77812 0.0
C3043 C 0.19221 0.92865 0.77784 0.0
C3044 C 0.17268 0.9247 0.77822 0.0
H3045 H 0.23107 0.83062 0.80682 0.0
H3046 H 0.22031 0.86032 0.80615 0.0
C3047 C 0.16188 0.93889 0.77833 0.0
C3048 C 0.20359 0.91352 0.77733 0.0
H3049 H 0.20841 0.87314 0.75192 0.0
C3050 C 0.21709 0.91324 0.79249 0.0
C3051 C 0.20092 0.89922 0.76218 0.0
C3052 C 0.18741 0.89933 0.74497 0.0
C3053 C 0.22738 0.89859 0.79334 0.0
C3054 C 0.22389 0.88375 0.77874 0.0
C3055 C 0.211 0.88446 0.76316 0.0
C3056 C 0.23233 0.86671 0.78001 0.0
C3057 C 0.24179 0.89909 0.80991 0.0
C3058 C 0.24268 0.86033 0.7655 0.0
C3059 C 0.24885 0.84321 0.76581 0.0
C3060 C 0.24453 0.83211 0.78052 0.0
C3061 C 0.23465 0.83882 0.79529 0.0
C3062 C 0.22858 0.8559 0.79501 0.0
H3063 H 0.247 0.91347 0.81627 0.0
H3064 H 0.23529 0.89131 0.82108 0.0
H3065 H 0.2539 0.89264 0.80555 0.0
H3066 H 0.24561 0.86841 0.75372 0.0
H3067 H 0.25632 0.83838 0.75418 0.0
H3068 H 0.30214 0.89404 0.00672 0.0
H3069 H 0.335 0.90642 0.00389 0.0
H3070 H 0.3181 0.94989 0.97311 0.0
H3071 H 0.28519 0.93771 0.97588 0.0
H3072 H 0.35398 0.91412 0.96907 0.0
H3073 H 0.35387 0.97628 0.02004 0.0
H3074 H 0.33614 0.95602 0.01884 0.0
H3075 H 0.33569 0.97153 0.00076 0.0
C3076 C 0.30538 0.9062 -0.00071 0.0
C3077 C 0.29103 0.91496 0.99165 0.0
C3078 C 0.32415 0.9132 -0.00236 0.0
C3079 C 0.32889 0.92913 0.98844 0.0
C3080 C 0.31466 0.93769 0.98042 0.0
H3081 H 0.44103 0.99411 0.99194 0.0
H3082 H 0.40775 0.98296 0.98243 0.0
C3083 C 0.29588 0.93067 0.98201 0.0
C3084 C 0.34879 0.93707 0.98784 0.0
H3085 H 0.38223 0.97289 0.00724 0.0
C3086 C 0.36018 0.92704 0.97727 0.0
C3087 C 0.35671 0.954 -0.00157 0.0
C3088 C 0.34507 0.96511 0.01028 0.0
C3089 C 0.37945 0.93335 0.97732 0.0
C3090 C 0.38753 0.94988 0.98858 0.0
C3091 C 0.37599 0.96024 -0.00142 0.0
C3092 C 0.40807 0.95582 0.99176 0.0
C3093 C 0.39097 0.9222 0.96539 0.0
C3094 C 0.41929 0.94419 -4e-05 0.0
C3095 C 0.43823 0.95048 0.00535 0.0
C3096 C 0.44631 0.96861 0.00284 0.0
C3097 C 0.43522 0.98006 -0.00597 0.0
C3098 C 0.41622 0.97372 0.98861 0.0
H3099 H 0.38227 0.91411 0.95299 0.0
H3100 H 0.40284 0.93118 0.96015 0.0
H3101 H 0.39672 0.91226 0.97414 0.0
H3102 H 0.41323 0.93049 0.00297 0.0
H3103 H 0.44637 0.94131 0.01211 0.0
H3104 H 0.86465 0.58205 0.77004 0.0
H3105 H 0.8444 0.60533 0.7663 0.0
H3106 H 0.79815 0.56268 0.74481 0.0
H3107 H 0.81833 0.53917 0.74862 0.0
H3108 H 0.82449 0.61125 0.73115 0.0
H3109 H 0.77739 0.59411 0.7879 0.0
H3110 H 0.79992 0.58659 0.78721 0.0
H3111 H 0.78064 0.57557 0.77075 0.0
C3112 C 0.85013 0.57757 0.76467 0.0
C3113 C 0.84308 0.55876 0.75967 0.0
C3114 C 0.83861 0.5909 0.76247 0.0
C3115 C 0.81979 0.5857 0.75534 0.0
C3116 C 0.81259 0.56694 0.75052 0.0
H3117 H 0.76023 0.67789 0.72778 0.0
H3118 H 0.7684 0.64658 0.72447 0.0
C3119 C 0.82415 0.55355 0.75268 0.0
C3120 C 0.80801 0.60016 0.75273 0.0
H3121 H 0.77321 0.62001 0.77199 0.0
C3122 C 0.81305 0.61303 0.73982 0.0
C3123 C 0.79313 0.60235 0.76409 0.0
C3124 C 0.78741 0.58903 0.77837 0.0
C3125 C 0.80418 0.62859 0.73861 0.0
C3126 C 0.78979 0.63118 0.75051 0.0
C3127 C 0.78414 0.61784 0.76277 0.0
C3128 C 0.78271 0.64899 0.75269 0.0
C3129 C 0.81108 0.64272 0.72551 0.0
C3130 C 0.78755 0.66038 0.76979 0.0
C3131 C 0.78298 0.67809 0.77168 0.0
C3132 C 0.77336 0.68479 0.75653 0.0
C3133 C 0.7677 0.67309 0.73966 0.0
C3134 C 0.77241 0.65528 0.73773 0.0
H3135 H 0.82382 0.63964 0.7189 0.0
H3136 H 0.79994 0.64299 0.71398 0.0
H3137 H 0.81429 0.65672 0.73341 0.0
H3138 H 0.79549 0.65578 0.78149 0.0
H3139 H 0.78736 0.68667 0.78496 0.0
H3140 H 0.78469 0.57385 0.02791 0.0
H3141 H 0.81486 0.56334 0.03184 0.0
H3142 H 0.83869 0.60465 -0.00272 0.0
H3143 H 0.80849 0.61556 0.99348 0.0
H3144 H 0.83488 0.54926 0.00421 0.0
H3145 H 0.87625 0.61248 0.0442 0.0
H3146 H 0.85097 0.60876 0.04099 0.0
H3147 H 0.8645 0.61638 0.02209 0.0
C3148 C 0.79633 0.58082 0.02119 0.0
C3149 C 0.79415 0.59562 0.0104 0.0
C3150 C 0.81359 0.57476 0.02347 0.0
C3151 C 0.82907 0.58335 0.01508 0.0
C3152 C 0.827 0.59807 0.00422 0.0
H3153 H 0.94136 0.5633 0.00345 0.0
H3154 H 0.91138 0.57439 0.00287 0.0
C3155 C 0.80971 0.60422 0.00197 0.0
C3156 C 0.84716 0.57638 0.01723 0.0
H3157 H 0.89325 0.58895 0.03354 0.0
C3158 C 0.84763 0.55789 0.01074 0.0
C3159 C 0.86373 0.58767 0.02581 0.0
C3160 C 0.86388 0.60738 0.03384 0.0
C3161 C 0.86434 0.5505 0.01216 0.0
C3162 C 0.88094 0.56184 0.02054 0.0
C3163 C 0.88045 0.58029 0.02718 0.0
C3164 C 0.89919 0.55514 0.02157 0.0
C3165 C 0.86424 0.53078 0.00417 0.0
C3166 C 0.90235 0.54076 0.03252 0.0
C3167 C 0.91958 0.53433 0.03292 0.0
C3168 C 0.93386 0.54223 0.02237 0.0
C3169 C 0.93066 0.55684 0.0117 0.0
C3170 C 0.91354 0.56325 0.01136 0.0
H3171 H 0.85127 0.52514 -0.00516 0.0
H3172 H 0.87653 0.52972 -0.00409 0.0
H3173 H 0.8651 0.52203 0.01606 0.0
H3174 H 0.89151 0.53452 0.04073 0.0
H3175 H 0.92164 0.52311 0.04131 0.0
H3176 H 0.18759 0.05136 0.78243 0.0
H3177 H 0.21044 0.0799 0.78468 0.0
H3178 H 0.16537 0.11149 0.77848 0.0
H3179 H 0.14252 0.08322 0.77622 0.0
H3180 H 0.2138 0.10473 0.75597 0.0
H3181 H 0.19939 0.13975 0.82452 0.0
H3182 H 0.19247 0.11521 0.81809 0.0
H3183 H 0.17859 0.13126 0.80897 0.0
C3184 C 0.18254 0.06441 0.78181 0.0
C3185 C 0.16321 0.065 0.77912 0.0
C3186 C 0.19561 0.08068 0.78308 0.0
C3187 C 0.18957 0.09781 0.782 0.0
C3188 C 0.17032 0.09845 0.7797 0.0
H3189 H 0.2265 0.19942 0.74226 0.0
H3190 H 0.21478 0.16769 0.74777 0.0
C3191 C 0.15728 0.08224 0.77827 0.0
C3192 C 0.20321 0.11495 0.78178 0.0
H3193 H 0.21487 0.15915 0.80293 0.0
C3194 C 0.21434 0.11652 0.76644 0.0
C3195 C 0.20405 0.13025 0.79556 0.0
C3196 C 0.19312 0.12903 0.81282 0.0
C3197 C 0.22533 0.13339 0.76385 0.0
C3198 C 0.22507 0.14904 0.77686 0.0
C3199 C 0.21494 0.14715 0.79289 0.0
C3200 C 0.23348 0.16782 0.77301 0.0
C3201 C 0.2367 0.13448 0.74689 0.0
C3202 C 0.24785 0.17847 0.78547 0.0
C3203 C 0.25468 0.19671 0.78231 0.0
C3204 C 0.24697 0.20461 0.76685 0.0
C3205 C 0.23274 0.19376 0.75431 0.0
C3206 C 0.22609 0.17557 0.75737 0.0
H3207 H 0.2398 0.12069 0.74161 0.0
H3208 H 0.22862 0.13968 0.73519 0.0
H3209 H 0.25012 0.14412 0.75041 0.0
H3210 H 0.25361 0.17275 0.79772 0.0
H3211 H 0.26558 0.20476 0.79227 0.0
H3212 H 0.33665 0.96913 0.28121 0.0
H3213 H 0.31712 0.9394 0.28417 0.0
H3214 H 0.36366 0.9113 0.27252 0.0
H3215 H 0.38323 0.9407 0.26971 0.0
H3216 H 0.30844 0.90973 0.25578 0.0
H3217 H 0.34486 0.88857 0.31943 0.0
H3218 H 0.34811 0.91216 0.31356 0.0
H3219 H 0.36084 0.89564 0.30233 0.0
C3220 C 0.34278 0.95662 0.2795 0.0
C3221 C 0.36151 0.95729 0.27523 0.0
C3222 C 0.3316 0.93969 0.28121 0.0
C3223 C 0.33906 0.92322 0.27891 0.0
C3224 C 0.35777 0.92389 0.27481 0.0
H3225 H 0.31672 0.80984 0.25145 0.0
H3226 H 0.32782 0.84263 0.26057 0.0
C3227 C 0.36889 0.94073 0.27305 0.0
C3228 C 0.32714 0.90509 0.27924 0.0
H3229 H 0.32671 0.86387 0.29776 0.0
C3230 C 0.31207 0.8998 0.26526 0.0
C3231 C 0.33189 0.89226 0.29171 0.0
C3232 C 0.34719 0.89751 0.30773 0.0
C3233 C 0.30257 0.88155 0.26245 0.0
C3234 C 0.30825 0.86841 0.27405 0.0
C3235 C 0.3225 0.874 0.28882 0.0
C3236 C 0.30128 0.84847 0.26956 0.0
C3237 C 0.28741 0.8761 0.24631 0.0
C3238 C 0.28271 0.84092 0.27184 0.0
C3239 C 0.27628 0.8221 0.26664 0.0
C3240 C 0.28836 0.81065 0.25905 0.0
C3241 C 0.30703 0.81829 0.25715 0.0
C3242 C 0.31343 0.837 0.26241 0.0
H3243 H 0.28596 0.88759 0.23746 0.0
H3244 H 0.29044 0.86411 0.23707 0.0
H3245 H 0.2738 0.87186 0.25215 0.0
H3246 H 0.2732 0.84958 0.27749 0.0
H3247 H 0.26183 0.81659 0.26831 0.0
H3248 H 0.51725 0.30354 0.5737 0.0
H3249 H 0.51374 0.3296 0.55527 0.0
H3250 H 0.49098 0.35683 0.60253 0.0
H3251 H 0.49429 0.33086 0.62099 0.0
H3252 H 0.4723 0.35937 0.56535 0.0
H3253 H 0.54994 0.37932 0.56973 0.0
H3254 H 0.54048 0.35604 0.56012 0.0
H3255 H 0.53858 0.36324 0.58466 0.0
C3256 C 0.51127 0.31497 0.58008 0.0
C3257 C 0.50623 0.31524 0.59888 0.0
C3258 C 0.50932 0.32984 0.56954 0.0
C3259 C 0.50231 0.34519 0.57764 0.0
C3260 C 0.49643 0.3451 0.59604 0.0
H3261 H 0.51159 0.4587 0.5722 0.0
H3262 H 0.50713 0.42639 0.57846 0.0
C3263 C 0.49841 0.33028 0.60659 0.0
C3264 C 0.5024 0.36202 0.56769 0.0
H3265 H 0.53187 0.39907 0.55555 0.0
C3266 C 0.48529 0.36792 0.56287 0.0
C3267 C 0.51941 0.37317 0.56465 0.0
C3268 C 0.53819 0.36778 0.57014 0.0
C3269 C 0.48481 0.38497 0.55558 0.0
C3270 C 0.50182 0.39631 0.55315 0.0
C3271 C 0.51887 0.39016 0.55731 0.0
C3272 C 0.50243 0.41561 0.54884 0.0
C3273 C 0.46627 0.39127 0.55133 0.0
C3274 C 0.50094 0.42014 0.53005 0.0
C3275 C 0.50349 0.43871 0.52636 0.0
C3276 C 0.50768 0.45288 0.54145 0.0
C3277 C 0.50849 0.44814 0.56024 0.0
C3278 C 0.50592 0.4297 0.56388 0.0
H3279 H 0.45421 0.38044 0.55302 0.0
H3280 H 0.46542 0.40376 0.56104 0.0
H3281 H 0.46517 0.39516 0.53656 0.0
H3282 H 0.49833 0.40936 0.51829 0.0
H3283 H 0.50283 0.44194 0.51175 0.0
H3284 H 0.45821 0.75051 0.31754 0.0
H3285 H 0.42611 0.7465 0.30314 0.0
H3286 H 0.40545 0.73207 0.35621 0.0
H3287 H 0.43779 0.73588 0.37086 0.0
H3288 H 0.38564 0.7106 0.32022 0.0
H3289 H 0.39445 0.78703 0.32105 0.0
H3290 H 0.41226 0.77636 0.31016 0.0
H3291 H 0.41001 0.77561 0.33516 0.0
C3292 C 0.44689 0.74627 0.32615 0.0
C3293 C 0.4505 0.74382 0.34544 0.0
C3294 C 0.42857 0.74393 0.31786 0.0
C3295 C 0.41351 0.73927 0.32872 0.0
C3296 C 0.41699 0.73572 0.34766 0.0
H3297 H 0.3027 0.76392 0.30809 0.0
H3298 H 0.33334 0.75924 0.32119 0.0
C3299 C 0.43542 0.73794 0.35599 0.0
C3300 C 0.39431 0.73994 0.3207 0.0
H3301 H 0.36665 0.76994 0.30499 0.0
C3302 C 0.38139 0.72353 0.31691 0.0
C3303 C 0.3889 0.7569 0.31658 0.0
C3304 C 0.40204 0.77502 0.32107 0.0
C3305 C 0.36313 0.72366 0.30883 0.0
C3306 C 0.35789 0.74059 0.30435 0.0
C3307 C 0.37081 0.75696 0.3083 0.0
C3308 C 0.33878 0.74201 0.29653 0.0
C3309 C 0.34947 0.70582 0.30549 0.0
C3310 C 0.3317 0.73385 0.27825 0.0
C3311 C 0.31406 0.73651 0.27063 0.0
C3312 C 0.30339 0.74748 0.28117 0.0
C3313 C 0.31057 0.75548 0.29952 0.0
C3314 C 0.32806 0.75277 0.30709 0.0
H3315 H 0.3545 0.69471 0.31308 0.0
H3316 H 0.33558 0.70786 0.31018 0.0
H3317 H 0.34755 0.70114 0.29005 0.0
H3318 H 0.33995 0.72575 0.26977 0.0
H3319 H 0.30889 0.73018 0.25647 0.0
H3320 H 0.01932 0.72467 0.08934 0.0
H3321 H 0.01978 0.69593 0.06917 0.0
H3322 H 0.03541 0.66979 0.11867 0.0
H3323 H 0.0355 0.69838 0.13875 0.0
H3324 H 0.05537 0.66127 0.08875 0.0
H3325 H 0.97901 0.65119 0.06586 0.0
H3326 H 0.99259 0.67232 0.06051 0.0
H3327 H 0.98972 0.66835 0.08484 0.0
C3328 C 0.02291 0.71281 0.0959 0.0
C3329 C 0.02724 0.7138 0.11568 0.0
C3330 C 0.0231 0.69638 0.08436 0.0
C3331 C 0.02736 0.68064 0.09246 0.0
C3332 C 0.03208 0.68176 0.11211 0.0
H3333 H 0.01626 0.5663 0.08128 0.0
H3334 H 0.0259 0.5996 0.08853 0.0
C3335 C 0.03206 0.69814 0.12359 0.0
C3336 C 0.02639 0.66269 0.08087 0.0
H3337 H -0.0046 0.62741 0.0563 0.0
C3338 C 0.04233 0.65397 0.0814 0.0
C3339 C 0.00937 0.65322 0.07121 0.0
C3340 C 0.99163 0.66162 0.07062 0.0
C3341 C 0.04146 0.63572 0.07336 0.0
C3342 C 0.02423 0.62597 0.06463 0.0
C3343 C 0.0086 0.63502 0.063 0.0
C3344 C 0.02135 0.60578 0.05945 0.0
C3345 C 0.05881 0.62677 0.0748 0.0
C3346 C 0.01581 0.59824 0.04065 0.0
C3347 C 0.01041 0.57915 0.03643 0.0
C3348 C 0.0101 0.56743 0.05106 0.0
C3349 C 0.01634 0.57499 0.06974 0.0
C3350 C 0.02196 0.594 0.07388 0.0
H3351 H 0.07175 0.63724 0.07685 0.0
H3352 H 0.0585 0.6186 0.08722 0.0
H3353 H 0.05942 0.61725 0.06188 0.0
H3354 H 0.01508 0.60717 0.02937 0.0
H3355 H 0.00553 0.57371 0.02192 0.0
H3356 H 0.04007 0.23271 0.83223 0.0
H3357 H 0.06749 0.23291 0.81426 0.0
H3358 H 0.1029 0.25983 0.86356 0.0
H3359 H 0.07545 0.25918 0.88189 0.0
H3360 H 0.0917 0.26176 0.80537 0.0
H3361 H 0.12934 0.21704 0.84812 0.0
H3362 H 0.10527 0.21947 0.85082 0.0
H3363 H 0.12397 0.23703 0.86169 0.0
C3364 C 0.05371 0.23857 0.83931 0.0
C3365 C 0.05565 0.24587 0.85849 0.0
C3366 C 0.06935 0.23871 0.829 0.0
C3367 C 0.08725 0.24621 0.83761 0.0
C3368 C 0.08926 0.25363 0.85675 0.0
H3369 H 0.18573 0.27438 0.77622 0.0
H3370 H 0.15707 0.27545 0.79217 0.0
C3371 C 0.07358 0.25332 0.86718 0.0
C3372 C 0.10364 0.24642 0.82631 0.0
H3373 H 0.14555 0.23109 0.82405 0.0
C3374 C 0.10348 0.25504 0.80942 0.0
C3375 C 0.11885 0.23743 0.83152 0.0
C3376 C 0.11935 0.22706 0.84892 0.0
C3377 C 0.11814 0.25491 0.79756 0.0
C3378 C 0.13355 0.2463 0.80301 0.0
C3379 C 0.13372 0.23773 0.81992 0.0
C3380 C 0.14965 0.24576 0.79139 0.0
C3381 C 0.11673 0.26356 0.77912 0.0
C3382 C 0.15494 0.22872 0.78557 0.0
C3383 C 0.1714 0.22809 0.7767 0.0
C3384 C 0.18283 0.24448 0.7734 0.0
C3385 C 0.17706 0.26151 0.77836 0.0
C3386 C 0.16067 0.26215 0.78746 0.0
H3387 H 0.102 0.26467 0.77451 0.0
H3388 H 0.12491 0.27772 0.78112 0.0
H3389 H 0.12247 0.25548 0.7676 0.0
H3390 H 0.14661 0.21591 0.78844 0.0
H3391 H 0.17551 0.21477 0.77302 0.0
H3392 H 0.51136 0.72729 0.95672 0.0
H3393 H 0.50689 0.70096 0.9756 0.0
H3394 H 0.49085 0.66409 0.92428 0.0
H3395 H 0.49483 0.69033 0.90535 0.0
H3396 H 0.46914 0.65474 0.9536 0.0
H3397 H 0.54516 0.666 0.97779 0.0
H3398 H 0.53322 0.68515 0.9835 0.0
H3399 H 0.53578 0.6779 0.95907 0.0
C3400 C 0.5067 0.71359 0.94947 0.0
C3401 C 0.50364 0.71085 0.92952 0.0
C3402 C 0.50423 0.69856 0.96028 0.0
C3403 C 0.49889 0.68054 0.95132 0.0
C3404 C 0.49504 0.67788 0.93148 0.0
H3405 H 0.52051 0.57581 0.97362 0.0
H3406 H 0.5187 0.60678 0.96518 0.0
C3407 C 0.49737 0.69289 0.92068 0.0
C3408 C 0.49834 0.66429 0.9623 0.0
H3409 H 0.52646 0.6404 0.98781 0.0
C3410 C 0.48159 0.65168 0.96131 0.0
C3411 C 0.51467 0.66032 0.97223 0.0
C3412 C 0.53328 0.67294 0.97314 0.0
C3413 C 0.48089 0.63488 0.96939 0.0
C3414 C 0.49732 0.63076 0.97895 0.0
C3415 C 0.51386 0.6437 0.9806 0.0
C3416 C 0.49841 0.61219 0.98501 0.0
C3417 C 0.46289 0.62123 0.96673 0.0
C3418 C 0.48774 0.60499 -0.00081 0.0
C3419 C 0.4887 0.58709 0.00407 0.0
C3420 C 0.50037 0.57623 -0.00517 0.0
C3421 C 0.51129 0.58372 0.98096 0.0
C3422 C 0.51032 0.60148 0.97613 0.0
H3423 H 0.45233 0.62537 0.95651 0.0
H3424 H 0.46561 0.60728 0.96156 0.0
H3425 H 0.45683 0.62025 0.98059 0.0
H3426 H 0.47867 0.61316 0.0064 0.0
H3427 H 0.48017 0.58171 0.01485 0.0
H3428 H 0.0499 0.75791 0.68867 0.0
H3429 H 0.08132 0.76029 0.70473 0.0
H3430 H 0.10317 0.74824 0.65087 0.0
H3431 H 0.07173 0.74575 0.63462 0.0
H3432 H 0.11585 0.72834 0.68216 0.0
H3433 H 0.12388 0.8044 0.70027 0.0
H3434 H 0.10291 0.79112 0.70702 0.0
H3435 H 0.10642 0.792 0.68229 0.0
C3436 C 0.06137 0.75573 0.68022 0.0
C3437 C 0.05838 0.75177 0.66036 0.0
C3438 C 0.0793 0.75712 0.68943 0.0
C3439 C 0.09452 0.75461 0.67893 0.0
C3440 C 0.09155 0.75025 0.65917 0.0
H3441 H 0.21233 0.7879 0.70834 0.0
H3442 H 0.1802 0.7814 0.69374 0.0
C3443 C 0.07362 0.74889 0.64992 0.0
C3444 C 0.11364 0.75702 0.68854 0.0
H3445 H 0.14811 0.78947 0.71235 0.0
C3446 C 0.12294 0.74167 0.68881 0.0
C3447 C 0.12278 0.77448 0.69705 0.0
C3448 C 0.11361 0.79151 0.69658 0.0
C3449 C 0.14125 0.74334 0.69748 0.0
C3450 C 0.15032 0.76078 0.70611 0.0
C3451 C 0.141 0.7761 0.70582 0.0
C3452 C 0.16987 0.76372 0.7147 0.0
C3453 C 0.15094 0.72661 0.69697 0.0
C3454 C 0.17466 0.75588 0.73133 0.0
C3455 C 0.19307 0.75961 0.73979 0.0
C3456 C 0.20691 0.77125 0.73172 0.0
C3457 C 0.20203 0.77888 0.71493 0.0
C3458 C 0.18367 0.7752 0.70655 0.0
H3459 H 0.14328 0.71501 0.68691 0.0
H3460 H 0.16544 0.73012 0.69282 0.0
H3461 H 0.15187 0.72186 0.71137 0.0
H3462 H 0.16409 0.74718 0.73794 0.0
H3463 H 0.1964 0.75356 0.75274 0.0
H3464 H 0.05311 0.33307 0.40552 0.0
H3465 H 0.05353 0.36203 0.4254 0.0
H3466 H 0.01178 0.33473 0.45819 0.0
H3467 H 0.0118 0.30559 0.43883 0.0
H3468 H 0.02562 0.38026 0.42735 0.0
H3469 H 0.04594 0.3649 0.50013 0.0
H3470 H 0.04867 0.34984 0.47933 0.0
H3471 H 0.02637 0.34853 0.48924 0.0
C3472 C 0.04428 0.33315 0.4172 0.0
C3473 C 0.03238 0.31704 0.42058 0.0
C3474 C 0.04455 0.34971 0.42857 0.0
C3475 C 0.03285 0.35056 0.44346 0.0
C3476 C 0.02132 0.33437 0.44716 0.0
H3477 H 0.98301 0.44403 0.48013 0.0
H3478 H 0.99073 0.41445 0.46758 0.0
C3479 C 0.02123 0.31772 0.43596 0.0
C3480 C 0.03118 0.36868 0.45364 0.0
H3481 H 0.03013 0.39131 0.49772 0.0
C3482 C 0.02688 0.38272 0.44274 0.0
C3483 C 0.03304 0.37204 0.47374 0.0
C3484 C 0.03896 0.35808 0.48627 0.0
C3485 C 0.0237 0.39971 0.45131 0.0
C3486 C 0.02428 0.40259 0.47136 0.0
C3487 C 0.02936 0.38891 0.48234 0.0
C3488 C 0.01909 0.41955 0.48095 0.0
C3489 C 0.01973 0.41444 0.43877 0.0
C3490 C 0.03215 0.43178 0.4935 0.0
C3491 C 0.02769 0.44868 0.50094 0.0
C3492 C 0.01012 0.45355 0.49585 0.0
C3493 C -0.00324 0.44079 0.48411 0.0
C3494 C 0.00117 0.42391 0.47685 0.0
H3495 H 0.0253 0.41229 0.42469 0.0
H3496 H 0.00435 0.41386 0.4363 0.0
H3497 H 0.02594 0.42844 0.44552 0.0
H3498 H 0.04602 0.42857 0.49695 0.0
H3499 H 0.03825 0.45823 0.50997 0.0
H3500 H 0.45292 0.27909 0.16062 0.0
H3501 H 0.42466 0.28723 0.17397 0.0
H3502 H 0.41549 0.23473 0.19721 0.0
H3503 H 0.44402 0.22695 0.18475 0.0
H3504 H 0.3898 0.27315 0.16746 0.0
H3505 H 0.40909 0.26741 0.2429 0.0
H3506 H 0.42594 0.26733 0.22541 0.0
H3507 H 0.41115 0.24621 0.22936 0.0
C3508 C 0.44491 0.26936 0.1687 0.0
C3509 C 0.45076 0.25245 0.17179 0.0
C3510 C 0.42881 0.27405 0.17636 0.0
C3511 C 0.41821 0.26183 0.18708 0.0
C3512 C 0.4238 0.24473 0.18968 0.0
H3513 H 0.30312 0.23863 0.19593 0.0
H3514 H 0.33464 0.2461 0.18647 0.0
C3515 C 0.44003 0.2402 0.18236 0.0
C3516 C 0.40064 0.26626 0.19459 0.0
H3517 H 0.37553 0.26232 0.23326 0.0
C3518 C 0.38683 0.27116 0.18198 0.0
C3519 C 0.39687 0.26436 0.2137 0.0
C3520 C 0.41168 0.26127 0.22863 0.0
C3521 C 0.36891 0.2727 0.18752 0.0
C3522 C 0.36446 0.26849 0.20592 0.0
C3523 C 0.37872 0.26513 0.219 0.0
C3524 C 0.34485 0.26549 0.21119 0.0
C3525 C 0.35489 0.27853 0.17344 0.0
C3526 C 0.34008 0.27344 0.22858 0.0
C3527 C 0.32202 0.26877 0.23432 0.0
C3528 C 0.30845 0.25614 0.2227 0.0
C3529 C 0.31316 0.24856 0.20514 0.0
C3530 C 0.3312 0.25299 0.19958 0.0
H3531 H 0.36202 0.28834 0.16423 0.0
H3532 H 0.34775 0.26623 0.16402 0.0
H3533 H 0.34418 0.28518 0.18064 0.0
H3534 H 0.35042 0.28299 0.23788 0.0
H3535 H 0.31878 0.27482 0.24793 0.0
H3536 H 0.60623 0.47963 0.32954 0.0
H3537 H 0.59057 0.47324 0.35836 0.0
H3538 H 0.56303 0.52075 0.35352 0.0
H3539 H 0.57803 0.52685 0.32465 0.0
H3540 H 0.59154 0.49254 0.39208 0.0
H3541 H 0.51899 0.48218 0.35896 0.0
H3542 H 0.53893 0.48315 0.34506 0.0
H3543 H 0.53133 0.5041 0.35435 0.0
C3544 C 0.5968 0.48867 0.33464 0.0
C3545 C 0.59321 0.50362 0.32468 0.0
C3546 C 0.58783 0.48498 0.35106 0.0
C3547 C 0.57518 0.49619 0.3578 0.0
C3548 C 0.57216 0.51148 0.34823 0.0
H3549 H 0.54473 0.522 0.46899 0.0
H3550 H 0.55911 0.51798 0.43928 0.0
C3551 C 0.58091 0.51505 0.33179 0.0
C3552 C 0.56558 0.49254 0.37521 0.0
H3553 H 0.52289 0.49043 0.39302 0.0
C3554 C 0.57649 0.49176 0.39222 0.0
C3555 C 0.54588 0.49099 0.37539 0.0
C3556 C 0.53311 0.48993 0.3574 0.0
C3557 C 0.56838 0.49072 0.40956 0.0
C3558 C 0.54892 0.49104 0.40999 0.0
C3559 C 0.53785 0.49057 0.39281 0.0
C3560 C 0.54002 0.49315 0.42812 0.0
C3561 C 0.58081 0.4894 0.42725 0.0
C3562 C 0.52389 0.48105 0.43146 0.0
C3563 C 0.51531 0.48357 0.44838 0.0
C3564 C 0.52278 0.49822 0.46225 0.0
C3565 C 0.53875 0.51043 0.45872 0.0
C3566 C 0.54714 0.50804 0.44178 0.0
H3567 H 0.59288 0.48246 0.42375 0.0
H3568 H 0.58655 0.50352 0.43397 0.0
H3569 H 0.57299 0.48169 0.43771 0.0
H3570 H 0.518 0.46959 0.42102 0.0
H3571 H 0.50302 0.47394 0.4507 0.0
H3572 H 0.26361 0.86441 0.07827 0.0
H3573 H 0.26807 0.8445 0.10338 0.0
H3574 H 0.25259 0.79634 0.0627 0.0
H3575 H 0.24748 0.81621 0.03761 0.0
H3576 H 0.23326 0.79285 0.09207 0.0
H3577 H 0.30726 0.81494 0.11916 0.0
H3578 H 0.29542 0.83456 0.11892 0.0
H3579 H 0.29783 0.82129 0.09685 0.0
C3580 C 0.26149 0.84959 0.0746 0.0
C3581 C 0.25512 0.84187 0.056 0.0
C3582 C 0.26421 0.83821 0.08895 0.0
C3583 C 0.26098 0.8189 0.0849 0.0
C3584 C 0.25527 0.81119 0.06616 0.0
H3585 H 0.27625 0.75726 0.18469 0.0
H3586 H 0.27933 0.7661 0.15232 0.0
C3587 C 0.25234 0.82256 0.05184 0.0
C3588 C 0.26139 0.80687 0.10059 0.0
H3589 H 0.28668 0.80129 0.1416 0.0
C3590 C 0.24512 0.79442 0.10266 0.0
C3591 C 0.27696 0.80855 0.11426 0.0
C3592 C 0.29541 0.82042 0.11205 0.0
C3593 C 0.2435 0.78466 0.1187 0.0
C3594 C 0.25836 0.78779 0.13327 0.0
C3595 C 0.27516 0.79914 0.13056 0.0
C3596 C 0.25593 0.78115 0.15218 0.0
C3597 C 0.22567 0.77147 0.12009 0.0
C3598 C 0.24184 0.78674 0.16279 0.0
C3599 C 0.24003 0.78174 0.18112 0.0
C3600 C 0.25242 0.77115 0.18937 0.0
C3601 C 0.26644 0.76535 0.17868 0.0
C3602 C 0.26825 0.7704 0.16023 0.0
H3603 H 0.21903 0.76565 0.10576 0.0
H3604 H 0.2283 0.7599 0.12841 0.0
H3605 H 0.21557 0.77901 0.12724 0.0
H3606 H 0.23248 0.79542 0.15706 0.0
H3607 H 0.22911 0.7865 0.18895 0.0
H3608 H 0.89402 0.52688 0.82894 0.0
H3609 H 0.9051 0.53196 0.86289 0.0
H3610 H 0.96172 0.5305 0.8487 0.0
H3611 H 0.95086 0.52535 0.81503 0.0
H3612 H 0.92436 0.50468 0.8793 0.0
H3613 H 0.96704 0.57464 0.89066 0.0
H3614 H 0.94904 0.56775 0.87121 0.0
H3615 H 0.97163 0.56076 0.86989 0.0
C3616 C 0.90887 0.52809 0.83309 0.0
C3617 C 0.92156 0.52555 0.81941 0.0
C3618 C 0.91516 0.53099 0.85242 0.0
C3619 C 0.93424 0.5318 0.85821 0.0
C3620 C 0.94701 0.53025 0.84449 0.0
H3621 H 0.00705 0.52099 0.95611 0.0
H3622 H 0.99294 0.52691 0.92518 0.0
C3623 C 0.94073 0.52712 0.82527 0.0
C3624 C 0.94062 0.53155 0.8784 0.0
H3625 H 0.97227 0.55405 0.91409 0.0
C3626 C 0.93457 0.51561 0.88709 0.0
C3627 C 0.95416 0.54572 0.88827 0.0
C3628 C 0.96077 0.56327 0.87962 0.0
C3629 C 0.94228 0.51307 0.90517 0.0
C3630 C 0.95603 0.52713 0.91499 0.0
C3631 C 0.96175 0.54331 0.90648 0.0
C3632 C 0.9648 0.52503 0.93397 0.0
C3633 C 0.93624 0.49499 0.91318 0.0
C3634 C 0.9537 0.52247 0.94917 0.0
C3635 C 0.96162 0.51884 0.96664 0.0
C3636 C 0.98088 0.51804 0.96937 0.0
C3637 C 0.99217 0.52144 0.95439 0.0
C3638 C 0.98415 0.52487 0.93677 0.0
H3639 H 0.92951 0.484 0.90193 0.0
H3640 H 0.94836 0.49014 0.92054 0.0
H3641 H 0.92589 0.49694 0.92365 0.0
H3642 H 0.93883 0.52298 0.94742 0.0
H3643 H 0.95257 0.51655 0.97798 0.0
H3644 H 0.23172 0.13728 0.56949 0.0
H3645 H 0.23467 0.15831 0.59842 0.0
H3646 H 0.26427 0.2017 0.56992 0.0
H3647 H 0.26163 0.18054 0.54074 0.0
H3648 H 0.28237 0.19779 0.6039 0.0
H3649 H 0.20808 0.20108 0.61379 0.0
H3650 H 0.212 0.17762 0.61016 0.0
H3651 H 0.21566 0.19246 0.59146 0.0
C3652 C 0.2387 0.15134 0.56922 0.0
C3653 C 0.24646 0.15719 0.55274 0.0
C3654 C 0.2402 0.16342 0.58577 0.0
C3655 C 0.24936 0.18169 0.58624 0.0
C3656 C 0.25697 0.1877 0.5698 0.0
H3657 H 0.25488 0.25077 0.69591 0.0
H3658 H 0.24915 0.24129 0.66157 0.0
C3659 C 0.25546 0.17558 0.55315 0.0
C3660 C 0.25235 0.19378 0.60446 0.0
H3661 H 0.22963 0.20787 0.64232 0.0
C3662 C 0.27082 0.20033 0.61213 0.0
C3663 C 0.2373 0.19741 0.6151 0.0
C3664 C 0.21715 0.19194 0.6071 0.0
C3665 C 0.27465 0.20921 0.63066 0.0
C3666 C 0.25963 0.21129 0.64191 0.0
C3667 C 0.24114 0.20599 0.63378 0.0
C3668 C 0.26291 0.21727 0.66256 0.0
C3669 C 0.29478 0.21584 0.63822 0.0
C3670 C 0.2721 0.20666 0.67448 0.0
C3671 C 0.27533 0.21196 0.69396 0.0
C3672 C 0.26932 0.22796 0.70201 0.0
C3673 C 0.25973 0.2384 0.69012 0.0
C3674 C 0.25647 0.23304 0.67053 0.0
H3675 H 0.30384 0.21873 0.62651 0.0
H3676 H 0.29613 0.22853 0.64827 0.0
H3677 H 0.30006 0.20491 0.64589 0.0
H3678 H 0.27676 0.19419 0.6687 0.0
H3679 H 0.28263 0.20351 0.70268 0.0
H3680 H 0.58143 0.49459 0.22475 0.0
H3681 H 0.56677 0.49477 0.19255 0.0
H3682 H 0.62108 0.49993 0.1707 0.0
H3683 H 0.63587 0.49972 0.20283 0.0
H3684 H 0.57457 0.52338 0.16713 0.0
H3685 H 0.58882 0.45485 0.13775 0.0
H3686 H 0.58973 0.46158 0.16298 0.0
H3687 H 0.60874 0.47024 0.14968 0.0
C3688 C 0.59026 0.49566 0.21307 0.0
C3689 C 0.60983 0.49708 0.2163 0.0
C3690 C 0.58185 0.49582 0.19473 0.0
C3691 C 0.59283 0.49721 0.17929 0.0
C3692 C 0.61235 0.49861 0.18244 0.0
H3693 H 0.57081 0.49574 0.05795 0.0
H3694 H 0.58478 0.49831 0.09066 0.0
C3695 C 0.6208 0.49854 0.20079 0.0
C3696 C 0.58388 0.49746 0.1599 0.0
H3697 H 0.57634 0.47326 0.11597 0.0
C3698 C 0.57487 0.51241 0.15592 0.0
C3699 C 0.58433 0.48312 0.14539 0.0
C3700 C 0.59328 0.46644 0.14911 0.0
C3701 C 0.56664 0.51363 0.13761 0.0
C3702 C 0.56714 0.4993 0.12305 0.0
C3703 C 0.57604 0.48427 0.12713 0.0
C3704 C 0.55872 0.49956 0.10339 0.0
C3705 C 0.55794 0.53045 0.13389 0.0
C3706 C 0.53944 0.49966 0.09968 0.0
C3707 C 0.5314 0.49833 0.08094 0.0
C3708 C 0.5425 0.49661 0.06562 0.0
C3709 C 0.56186 0.49697 0.06943 0.0
C3710 C 0.56987 0.49842 0.08812 0.0
H3711 H 0.56313 0.54221 0.14489 0.0
H3712 H 0.56091 0.53489 0.11972 0.0
H3713 H 0.54252 0.52707 0.13419 0.0
H3714 H 0.53049 0.50015 0.11123 0.0
H3715 H 0.51642 0.49795 0.07847 0.0
H3716 H 0.19648 0.8634 0.93597 0.0
H3717 H 0.19258 0.84185 0.90705 0.0
H3718 H 0.23098 0.81018 0.93313 0.0
H3719 H 0.2343 0.83106 0.96214 0.0
H3720 H 0.21824 0.83733 0.88493 0.0
H3721 H 0.19365 0.76886 0.90739 0.0
H3722 H 0.19303 0.78989 0.92237 0.0
H3723 H 0.21402 0.7795 0.92248 0.0
C3724 C 0.20374 0.85159 0.93566 0.0
C3725 C 0.21574 0.84898 0.95134 0.0
C3726 C 0.20148 0.83926 0.91914 0.0
C3727 C 0.21124 0.82417 0.91796 0.0
C3728 C 0.22279 0.8213 0.93382 0.0
H3729 H 0.26804 0.78559 0.82849 0.0
H3730 H 0.25556 0.79909 0.85649 0.0
C3731 C 0.22485 0.83342 0.95039 0.0
C3732 C 0.21157 0.81299 0.89951 0.0
H3733 H 0.21263 0.76904 0.88004 0.0
C3734 C 0.21654 0.82237 0.88378 0.0
C3735 C 0.20901 0.79343 0.89773 0.0
C3736 C 0.20192 0.78238 0.91338 0.0
C3737 C 0.22044 0.81286 0.86692 0.0
C3738 C 0.21992 0.79352 0.86595 0.0
C3739 C 0.21348 0.78393 0.88102 0.0
C3740 C 0.22763 0.78351 0.85011 0.0
C3741 C 0.22563 0.82368 0.85046 0.0
C3742 C 0.21632 0.76945 0.83786 0.0
C3743 C 0.22354 0.76148 0.82187 0.0
C3744 C 0.2421 0.76754 0.818 0.0
C3745 C 0.25361 0.78081 0.83097 0.0
C3746 C 0.24648 0.78861 0.84691 0.0
H3747 H 0.2196 0.83669 0.85101 0.0
H3748 H 0.2411 0.82745 0.85114 0.0
H3749 H 0.2207 0.81543 0.83663 0.0
H3750 H 0.20178 0.76521 0.84025 0.0
H3751 H 0.21436 0.75129 0.81208 0.0
H3752 H 0.8907 0.51542 0.68912 0.0
H3753 H 0.91108 0.51397 0.66309 0.0
H3754 H 0.95948 0.52076 0.70382 0.0
H3755 H 0.93938 0.52277 0.72975 0.0
H3756 H 0.96537 0.54287 0.6765 0.0
H3757 H 0.93699 0.47192 0.64421 0.0
H3758 H 0.91914 0.48621 0.646 0.0
H3759 H 0.93136 0.48079 0.66729 0.0
C3760 C 0.90568 0.51654 0.69247 0.0
C3761 C 0.91345 0.51919 0.71143 0.0
C3762 C 0.91728 0.51556 0.67763 0.0
C3763 C 0.93676 0.51691 0.68156 0.0
C3764 C 0.94449 0.5196 0.70049 0.0
H3765 H 0.00389 0.49392 0.58705 0.0
H3766 H 0.99281 0.49374 0.61891 0.0
C3767 C 0.93297 0.52076 0.71528 0.0
C3768 C 0.94922 0.51636 0.66599 0.0
H3769 H 0.95618 0.49107 0.62521 0.0
C3770 C 0.96351 0.53144 0.66541 0.0
C3771 C 0.94709 0.50124 0.6518 0.0
C3772 C 0.93295 0.48404 0.65244 0.0
C3773 C 0.97514 0.53222 0.65048 0.0
C3774 C 0.97208 0.51773 0.63555 0.0
C3775 C 0.95842 0.50223 0.63662 0.0
C3776 C 0.98145 0.51918 0.6178 0.0
C3777 C 0.99047 0.54863 0.65076 0.0
C3778 C 0.97903 0.53371 0.60686 0.0
C3779 C 0.98537 0.53388 0.58881 0.0
C3780 C -0.00593 0.51941 0.58125 0.0
C3781 C -0.00271 0.50528 0.59255 0.0
C3782 C 0.99092 0.50513 0.61069 0.0
H3783 H -0.00467 0.55462 0.66557 0.0
H3784 H 0.00267 0.54484 0.64361 0.0
H3785 H 0.98493 0.55951 0.64325 0.0
H3786 H 0.97139 0.54446 0.61187 0.0
H3787 H 0.9827 0.54498 0.58047 0.0
H3788 H 0.26965 0.14428 0.42307 0.0
H3789 H 0.27378 0.16328 0.39661 0.0
H3790 H 0.27223 0.21216 0.43435 0.0
H3791 H 0.26795 0.19327 0.46095 0.0
H3792 H 0.24518 0.18888 0.38753 0.0
H3793 H 0.31961 0.22329 0.401 0.0
H3794 H 0.31165 0.2011 0.40916 0.0
H3795 H 0.3052 0.22158 0.42065 0.0
C3796 C 0.27046 0.1591 0.42583 0.0
C3797 C 0.2684 0.16726 0.4441 0.0
C3798 C 0.27282 0.16992 0.4107 0.0
C3799 C 0.27342 0.18909 0.4136 0.0
C3800 C 0.27199 0.19739 0.4319 0.0
H3801 H 0.27732 0.26877 0.32779 0.0
H3802 H 0.27935 0.25555 0.35842 0.0
C3803 C 0.26949 0.18656 0.44705 0.0
C3804 C 0.27384 0.20009 0.39711 0.0
H3805 H 0.3023 0.23026 0.37382 0.0
C3806 C 0.25763 0.19799 0.38456 0.0
C3807 C 0.29003 0.21214 0.3935 0.0
C3808 C 0.30771 0.21474 0.40669 0.0
C3809 C 0.25725 0.2074 0.36824 0.0
C3810 C 0.27369 0.21883 0.36411 0.0
C3811 C 0.28976 0.22141 0.37699 0.0
C3812 C 0.27458 0.22716 0.34585 0.0
C3813 C 0.23923 0.20498 0.35553 0.0
C3814 C 0.27194 0.21561 0.32874 0.0
C3815 C 0.27069 0.22305 0.31139 0.0
C3816 C 0.27226 0.24225 0.31074 0.0
C3817 C 0.27604 0.25393 0.32785 0.0
C3818 C 0.27716 0.24641 0.34533 0.0
H3819 H 0.22687 0.20038 0.36331 0.0
H3820 H 0.23731 0.21805 0.34951 0.0
H3821 H 0.23964 0.19429 0.34357 0.0
H3822 H 0.27033 0.20075 0.32881 0.0
H3823 H 0.26805 0.21368 0.29845 0.0
H3824 H 0.31149 0.60919 0.491 0.0
H3825 H 0.33612 0.59454 0.4768 0.0
H3826 H 0.33166 0.55483 0.51807 0.0
H3827 H 0.30709 0.56903 0.53205 0.0
H3828 H 0.36975 0.59139 0.49352 0.0
H3829 H 0.33209 0.5214 0.46994 0.0
H3830 H 0.31998 0.54061 0.47566 0.0
H3831 H 0.32803 0.52762 0.49412 0.0
C3832 C 0.31568 0.59724 0.49694 0.0
C3833 C 0.30731 0.59028 0.51266 0.0
C3834 C 0.32966 0.58884 0.48874 0.0
C3835 C 0.33534 0.57327 0.49604 0.0
C3836 C 0.32705 0.56641 0.51176 0.0
H3837 H 0.43253 0.53934 0.52681 0.0
H3838 H 0.40417 0.55199 0.51926 0.0
C3839 C 0.31314 0.57473 0.51991 0.0
C3840 C 0.35129 0.56521 0.48884 0.0
H3841 H 0.36571 0.52352 0.48 0.0
C3842 C 0.36878 0.57662 0.48994 0.0
C3843 C 0.35002 0.546 0.48372 0.0
C3844 C 0.33144 0.53327 0.48058 0.0
C3845 C 0.38523 0.56905 0.4882 0.0
C3846 C 0.3841 0.54964 0.4856 0.0
C3847 C 0.36653 0.53839 0.48236 0.0
C3848 C 0.4008 0.54094 0.48967 0.0
C3849 C 0.4038 0.58182 0.49039 0.0
C3850 C 0.40779 0.52979 0.47567 0.0
C3851 C 0.42412 0.52238 0.47999 0.0
C3852 C 0.43346 0.52601 0.49836 0.0
C3853 C 0.42582 0.53649 0.51245 0.0
C3854 C 0.40966 0.54382 0.50815 0.0
H3855 H 0.40223 0.59563 0.48595 0.0
H3856 H 0.40934 0.58373 0.50557 0.0
H3857 H 0.4142 0.57602 0.48189 0.0
H3858 H 0.40092 0.52724 0.46138 0.0
H3859 H 0.42971 0.51434 0.46887 0.0
H3860 H 0.8108 0.89956 0.5396 0.0
H3861 H 0.84403 0.91337 0.54177 0.0
H3862 H 0.82853 0.96511 0.52776 0.0
H3863 H 0.79558 0.95147 0.52526 0.0
H3864 H 0.85326 0.95261 0.50444 0.0
H3865 H 0.8781 0.9514 0.58025 0.0
H3866 H 0.86608 0.92966 0.56864 0.0
H3867 H 0.85355 0.94877 0.57207 0.0
C3868 C 0.8145 0.91396 0.53732 0.0
C3869 C 0.80057 0.92436 0.53207 0.0
C3870 C 0.83347 0.92186 0.53866 0.0
C3871 C 0.83872 0.9403 0.53502 0.0
C3872 C 0.82478 0.95086 0.53061 0.0
H3873 H 0.94986 0.00754 0.54228 0.0
H3874 H 0.91734 0.99519 0.54729 0.0
C3875 C 0.80594 0.943 0.52914 0.0
C3876 C 0.8586 0.9482 0.53384 0.0
H3877 H 0.90144 0.95936 0.55911 0.0
C3878 C 0.86376 0.95415 0.51643 0.0
C3879 C 0.87223 0.95035 0.54954 0.0
C3880 C 0.86725 0.94487 0.56875 0.0
C3881 C 0.88222 0.96199 0.5142 0.0
C3882 C 0.89598 0.96362 0.52971 0.0
C3883 C 0.89083 0.95797 0.54724 0.0
C3884 C 0.91586 0.97068 0.52763 0.0
C3885 C 0.88682 0.96858 0.49528 0.0
C3886 C 0.92575 0.96083 0.51514 0.0
C3887 C 0.94415 0.96785 0.51216 0.0
C3888 C 0.95313 0.98481 0.52176 0.0
C3889 C 0.94331 0.99449 0.53461 0.0
C3890 C 0.9248 0.98743 0.53756 0.0
H3891 H 0.87408 0.97071 0.48662 0.0
H3892 H 0.8969 0.98172 0.49725 0.0
H3893 H 0.89336 0.95804 0.48715 0.0
H3894 H 0.91914 0.94777 0.50752 0.0
H3895 H 0.95126 0.95998 0.50218 0.0
H3896 H 0.81928 0.04275 0.2376 0.0
H3897 H 0.80199 0.06878 0.24036 0.0
H3898 H 0.84879 0.10144 0.27518 0.0
H3899 H 0.86636 0.07563 0.27211 0.0
H3900 H 0.7907 0.08947 0.27054 0.0
H3901 H 0.84162 0.13292 0.23191 0.0
H3902 H 0.8418 0.10857 0.23295 0.0
H3903 H 0.85197 0.12493 0.25274 0.0
C3904 C 0.82586 0.05544 0.24595 0.0
C3905 C 0.84429 0.0572 0.25445 0.0
C3906 C 0.81594 0.07029 0.24754 0.0
C3907 C 0.82423 0.08717 0.25767 0.0
C3908 C 0.84228 0.08868 0.26692 0.0
H3909 H 0.76886 0.18255 0.28586 0.0
H3910 H 0.78171 0.15372 0.28716 0.0
C3911 C 0.85227 0.07389 0.26522 0.0
C3912 C 0.81428 0.10338 0.25783 0.0
H3913 H 0.81779 0.14725 0.245 0.0
C3914 C 0.7966 0.10212 0.26496 0.0
C3915 C 0.82187 0.11977 0.25028 0.0
C3916 C 0.84027 0.12163 0.24136 0.0
C3917 C 0.78635 0.11688 0.26484 0.0
C3918 C 0.79417 0.13341 0.25769 0.0
C3919 C 0.81183 0.13461 0.25056 0.0
C3920 C 0.78424 0.14959 0.25689 0.0
C3921 C 0.76709 0.11445 0.2719 0.0
C3922 C 0.78129 0.15684 0.23947 0.0
C3923 C 0.77421 0.17337 0.23874 0.0
C3924 C 0.76983 0.18301 0.25541 0.0
C3925 C 0.77192 0.17533 0.27275 0.0
C3926 C 0.77922 0.15882 0.2735 0.0
H3927 H 0.76117 0.09963 0.27201 0.0
H3928 H 0.76803 0.12113 0.28668 0.0
H3929 H 0.75729 0.12101 0.26298 0.0
H3930 H 0.78502 0.14997 0.22646 0.0
H3931 H 0.7727 0.17889 0.22516 0.0
H3932 H 0.72033 0.08198 0.02683 0.0
H3933 H 0.68777 0.06731 0.02707 0.0
H3934 H 0.66961 0.12012 0.02369 0.0
H3935 H 0.70226 0.13501 0.02393 0.0
H3936 H 0.65103 0.09934 0.04926 0.0
H3937 H 0.65096 0.05756 0.97999 0.0
H3938 H 0.66882 0.05416 -0.00239 0.0
H3939 H 0.66952 0.07632 0.98866 0.0
C3940 C 0.70941 0.09048 0.02617 0.0
C3941 C 0.71381 0.10962 0.02516 0.0
C3942 C 0.69082 0.08207 0.02624 0.0
C3943 C 0.67628 0.09258 0.02502 0.0
C3944 C 0.68065 0.11176 0.02455 0.0
H3945 H 0.55701 0.07416 0.00519 0.0
H3946 H 0.59 0.08674 0.01395 0.0
C3947 C 0.69928 0.12023 0.02464 0.0
C3948 C 0.65648 0.08353 0.02379 0.0
H3949 H 0.62376 0.05193 -0.00366 0.0
C3950 C 0.64506 0.08895 0.03772 0.0
C3951 C 0.64876 0.06998 0.00869 0.0
C3952 C 0.66008 0.06426 0.99278 0.0
C3953 C 0.62606 0.08118 0.03693 0.0
C3954 C 0.61835 0.06777 0.02176 0.0
C3955 C 0.62983 0.06211 0.00804 0.0
C3956 C 0.59811 0.06039 0.01894 0.0
C3957 C 0.61435 0.08734 0.05227 0.0
C3958 C 0.59179 0.04141 0.01892 0.0
C3959 C 0.57291 0.03415 0.01393 0.0
C3960 C 0.56018 0.04577 0.00858 0.0
C3961 C 0.5665 0.06485 0.00918 0.0
C3962 C 0.5853 0.07209 0.01432 0.0
H3963 H 0.62319 0.094 0.06526 0.0
H3964 H 0.60601 0.09755 0.04694 0.0
H3965 H 0.60445 0.07548 0.05615 0.0
H3966 H 0.60154 0.03217 0.02231 0.0
H3967 H 0.56846 0.01938 0.01354 0.0
H3968 H 0.14568 0.44238 0.29676 0.0
H3969 H 0.16369 0.41894 0.30702 0.0
H3970 H 0.20312 0.43294 0.26581 0.0
H3971 H 0.18571 0.45683 0.25617 0.0
H3972 H 0.16748 0.38963 0.28663 0.0
H3973 H 0.23894 0.42604 0.30847 0.0
H3974 H 0.21933 0.43827 0.30541 0.0
H3975 H 0.23179 0.43184 0.28536 0.0
C3976 C 0.15843 0.44071 0.29021 0.0
C3977 C 0.16426 0.45138 0.27562 0.0
C3978 C 0.16874 0.42736 0.29611 0.0
C3979 C 0.18497 0.42432 0.28742 0.0
C3980 C 0.19105 0.43537 0.27322 0.0
H3981 H 0.2177 0.32548 0.24914 0.0
H3982 H 0.20564 0.35404 0.25679 0.0
C3983 C 0.18093 0.44891 0.26754 0.0
C3984 C 0.19397 0.40802 0.29109 0.0
H3985 H 0.23656 0.39362 0.29529 0.0
C3986 C 0.18257 0.39061 0.28903 0.0
C3987 C 0.21362 0.40914 0.2946 0.0
C3988 C 0.22655 0.42739 0.29881 0.0
C3989 C 0.19034 0.37434 0.28882 0.0
C3990 C 0.21004 0.37547 0.29016 0.0
C3991 C 0.22145 0.3928 0.29383 0.0
C3992 C 0.21877 0.35892 0.28559 0.0
C3993 C 0.17735 0.35605 0.28647 0.0
C3994 C 0.23095 0.35267 0.29897 0.0
C3995 C 0.23809 0.3363 0.29455 0.0
C3996 C 0.2331 0.32606 0.27669 0.0
C3997 C 0.22158 0.33288 0.26312 0.0
C3998 C 0.2146 0.34918 0.26749 0.0
H3999 H 0.16367 0.35741 0.2921 0.0
H4000 H 0.17459 0.35111 0.27112 0.0
H4001 H 0.1836 0.34546 0.29384 0.0
H4002 H 0.23448 0.36016 0.31295 0.0
H4003 H 0.24698 0.33137 0.30525 0.0
H4004 H 0.17501 0.37887 0.00782 0.0
H4005 H 0.14772 0.39431 0.00251 0.0
H4006 H 0.17769 0.44387 0.03478 0.0
H4007 H 0.20512 0.42879 0.03952 0.0
H4008 H 0.12615 0.40799 0.02627 0.0
H4009 H 0.15913 0.46514 0.9885 0.0
H4010 H 0.17042 0.44556 0.99295 0.0
H4011 H 0.17183 0.46466 0.01106 0.0
C4012 C 0.17577 0.39307 0.01372 0.0
C4013 C 0.19224 0.40267 0.02396 0.0
C4014 C 0.1602 0.4019 0.01063 0.0
C4015 C 0.1608 0.42043 0.01781 0.0
C4016 C 0.17708 0.42981 0.02851 0.0
H4017 H 0.06827 0.473 0.04706 0.0
H4018 H 0.0957 0.4577 0.04523 0.0
C4019 C 0.19269 0.42109 0.03139 0.0
C4020 C 0.14415 0.42971 0.01501 0.0
H4021 H 0.13037 0.46952 0.00209 0.0
C4022 C 0.12704 0.42133 0.02074 0.0
C4023 C 0.14512 0.44695 0.0074 0.0
C4024 C 0.16257 0.45598 -0.00057 0.0
C4025 C 0.11117 0.43007 0.01993 0.0
C4026 C 0.11258 0.44797 0.01379 0.0
C4027 C 0.12939 0.45597 0.00715 0.0
C4028 C 0.09698 0.45881 0.01493 0.0
C4029 C 0.09303 0.41998 0.02566 0.0
C4030 C 0.08929 0.46562 -0.00127 0.0
C4031 C 0.07376 0.4748 -0.00017 0.0
C4032 C 0.06571 0.47715 0.01713 0.0
C4033 C 0.07402 0.47112 0.03346 0.0
C4034 C 0.08961 0.46224 0.03241 0.0
H4035 H 0.09256 0.40477 0.02367 0.0
H4036 H 0.09188 0.42392 0.04095 0.0
H4037 H 0.08072 0.42347 0.01731 0.0
H4038 H 0.09492 0.46332 0.98514 0.0
H4039 H 0.0676 0.47931 0.98704 0.0
H4040 H 0.83345 0.95991 0.25339 0.0
H4041 H 0.8139 0.93002 0.25506 0.0
H4042 H 0.84478 0.90481 0.213 0.0
H4043 H 0.86486 0.93448 0.21182 0.0
H4044 H 0.79087 0.90473 0.23068 0.0
H4045 H 0.85247 0.87471 0.25654 0.0
H4046 H 0.8537 0.89902 0.25426 0.0
H4047 H 0.85473 0.88307 0.23371 0.0
C4048 C 0.83597 0.94804 0.24436 0.0
C4049 C 0.8509 0.94949 0.2327 0.0
C4050 C 0.82476 0.93096 0.24532 0.0
C4051 C 0.82817 0.91507 0.23451 0.0
C4052 C 0.84226 0.91676 0.2219 0.0
H4053 H 0.7569 0.80632 0.22651 0.0
H4054 H 0.77091 0.83743 0.22019 0.0
C4055 C 0.85366 0.93375 0.22117 0.0
C4056 C 0.81773 0.89665 0.23726 0.0
H4057 H 0.82387 0.85421 0.24988 0.0
C4058 C 0.79805 0.89366 0.2349 0.0
C4059 C 0.82712 0.88232 0.24308 0.0
C4060 C 0.84815 0.88495 0.24724 0.0
C4061 C 0.78751 0.87672 0.23816 0.0
C4062 C 0.79695 0.86225 0.24347 0.0
C4063 C 0.81662 0.86526 0.24572 0.0
C4064 C 0.78695 0.84407 0.24761 0.0
C4065 C 0.76642 0.87472 0.23646 0.0
C4066 C 0.79137 0.83736 0.26502 0.0
C4067 C 0.78375 0.81953 0.26845 0.0
C4068 C 0.77135 0.80806 0.25463 0.0
C4069 C 0.7663 0.81496 0.23747 0.0
C4070 C 0.77422 0.83277 0.2339 0.0
H4071 H 0.76163 0.88837 0.23764 0.0
H4072 H 0.76084 0.86744 0.22234 0.0
H4073 H 0.76034 0.86655 0.24758 0.0
H4074 H 0.8011 0.84581 0.27585 0.0
H4075 H 0.78779 0.81462 0.28186 0.0
H4076 H 0.62797 0.0604 0.71907 0.0
H4077 H 0.64626 0.09141 0.72349 0.0
H4078 H 0.69229 0.07047 0.75141 0.0
H4079 H 0.67402 0.03941 0.74733 0.0
H4080 H 0.68173 0.0992 0.77255 0.0
H4081 H 0.69094 0.11729 0.6993 0.0
H4082 H 0.66698 0.10897 0.70286 0.0
H4083 H 0.68413 0.09381 0.70465 0.0
C4084 C 0.64211 0.06229 0.72583 0.0
C4085 C 0.64947 0.04742 0.73297 0.0
C4086 C 0.65261 0.08003 0.72822 0.0
C4087 C 0.6707 0.08321 0.7376 0.0
C4088 C 0.67837 0.06828 0.74406 0.0
H4089 H 0.74116 0.19235 0.75773 0.0
H4090 H 0.72969 0.15966 0.74727 0.0
C4091 C 0.66789 0.05054 0.74172 0.0
C4092 C 0.68071 0.10232 0.74258 0.0
H4093 H 0.69583 0.14261 0.72399 0.0
C4094 C 0.68504 0.10861 0.76191 0.0
C4095 C 0.68516 0.11454 0.72869 0.0
C4096 C 0.68174 0.10827 0.70771 0.0
C4097 C 0.69302 0.12699 0.76776 0.0
C4098 C 0.69649 0.13945 0.75392 0.0
C4099 C 0.69292 0.13303 0.73456 0.0
C4100 C 0.70316 0.15934 0.75943 0.0
C4101 C 0.69752 0.13296 0.78873 0.0
C4102 C 0.69185 0.16998 0.76936 0.0
C4103 C 0.69831 0.18858 0.77535 0.0
C4104 C 0.71621 0.1969 0.77145 0.0
C4105 C 0.72735 0.18631 0.76105 0.0
C4106 C 0.72083 0.16767 0.75503 0.0
H4107 H 0.69869 0.12099 0.79698 0.0
H4108 H 0.71084 0.14287 0.7914 0.0
H4109 H 0.68613 0.13992 0.79412 0.0
H4110 H 0.67804 0.16384 0.77261 0.0
H4111 H 0.68933 0.19636 0.7832 0.0
loop_
_geom_bond_atom_site_label_1
_geom_bond_atom_site_label_2
_geom_bond_distance
_geom_bond_site_symmetry_2
_ccdc_geom_bond_type
C0 O1 1.306 . S
C0 O3 1.160 . S
O1 C0 1.306 . S
O1 Cd2 2.228 1_655 S
Cd2 O1 2.228 1_455 S
Cd2 O6 2.273 . S
Cd2 O10 2.277 . S
O3 C0 1.160 . S
O3 Cd4 2.203 1_655 S
Cd4 O3 2.203 1_455 S
Cd4 O6 2.411 . S
Cd4 O7 2.333 . S
Cd4 O8 2.352 . S
Cd4 O12 2.277 . S
Cd4 O13 2.356 . S
C5 O10 1.209 . S
C5 O12 1.226 . S
O6 Cd2 2.273 . S
O6 Cd4 2.411 . S
O6 C9 1.320 . S
O7 Cd4 2.333 . S
O7 C9 1.214 . S
O8 Cd4 2.352 . S
O8 C11 1.258 . S
C9 O6 1.320 . S
C9 O7 1.214 . S
O10 Cd2 2.277 . S
O10 C5 1.209 . S
C11 O8 1.258 . S
C11 O13 1.282 . S
O12 Cd4 2.277 . S
O12 C5 1.226 . S
O13 Cd4 2.356 . S
O13 C11 1.282 . S
C14 O15 1.306 . S
C14 O17 1.160 . S
O15 C14 1.306 . S
O15 Cd16 2.228 1_655 S
Cd16 O15 2.228 1_455 S
Cd16 O20 2.273 . S
Cd16 O24 2.277 . S
O17 C14 1.160 . S
O17 Cd18 2.203 1_655 S
Cd18 O17 2.203 1_455 S
Cd18 O20 2.411 . S
Cd18 O21 2.333 . S
Cd18 O22 2.352 . S
Cd18 O26 2.277 . S
Cd18 O27 2.356 . S
C19 O24 1.209 . S
C19 O26 1.226 . S
O20 Cd16 2.273 . S
O20 Cd18 2.411 . S
O20 C23 1.320 . S
O21 Cd18 2.333 . S
O21 C23 1.214 . S
O22 Cd18 2.352 . S
O22 C25 1.258 . S
C23 O20 1.320 . S
C23 O21 1.214 . S
O24 Cd16 2.277 . S
O24 C19 1.209 . S
C25 O22 1.258 . S
C25 O27 1.282 . S
O26 Cd18 2.277 . S
O26 C19 1.226 . S
O27 Cd18 2.356 . S
O27 C25 1.282 . S
C28 O29 1.306 . S
C28 O31 1.160 . S
O29 C28 1.306 . S
O29 Cd30 2.228 . S
Cd30 O29 2.228 . S
Cd30 O34 2.273 . S
Cd30 O38 2.277 . S
O31 C28 1.160 . S
O31 Cd32 2.203 . S
Cd32 O31 2.203 . S
Cd32 O34 2.411 . S
Cd32 O35 2.333 . S
Cd32 O36 2.352 . S
Cd32 O40 2.277 . S
Cd32 O41 2.356 . S
C33 O38 1.209 . S
C33 O40 1.226 . S
O34 Cd30 2.273 . S
O34 Cd32 2.411 . S
O34 C37 1.320 . S
O35 Cd32 2.333 . S
O35 C37 1.214 . S
O36 Cd32 2.352 . S
O36 C39 1.258 . S
C37 O34 1.320 . S
C37 O35 1.214 . S
O38 Cd30 2.277 . S
O38 C33 1.209 . S
C39 O36 1.258 . S
C39 O41 1.282 . S
O40 Cd32 2.277 . S
O40 C33 1.226 . S
O41 Cd32 2.356 . S
O41 C39 1.282 . S
C42 O43 1.306 . S
C42 O45 1.160 . S
O43 C42 1.306 . S
O43 Cd44 2.228 . S
Cd44 O43 2.228 . S
Cd44 O48 2.273 . S
Cd44 O52 2.277 . S
O45 C42 1.160 . S
O45 Cd46 2.203 . S
Cd46 O45 2.203 . S
Cd46 O48 2.411 . S
Cd46 O49 2.333 . S
Cd46 O50 2.352 . S
Cd46 O54 2.277 . S
Cd46 O55 2.356 . S
C47 O52 1.209 . S
C47 O54 1.226 . S
O48 Cd44 2.273 . S
O48 Cd46 2.411 . S
O48 C51 1.320 . S
O49 Cd46 2.333 . S
O49 C51 1.214 . S
O50 Cd46 2.352 . S
O50 C53 1.258 . S
C51 O48 1.320 . S
C51 O49 1.214 . S
O52 Cd44 2.277 . S
O52 C47 1.209 . S
C53 O50 1.258 . S
C53 O55 1.282 . S
O54 Cd46 2.277 . S
O54 C47 1.226 . S
O55 Cd46 2.356 . S
O55 C53 1.282 . S
C56 O57 1.287 1_655 S
C56 O59 1.160 . S
O57 C56 1.287 1_455 S
O57 Cd58 2.257 . S
Cd58 O57 2.257 . S
Cd58 O62 2.273 . S
Cd58 O66 2.277 . S
O59 C56 1.160 . S
O59 Cd60 2.203 1_655 S
Cd60 O59 2.203 1_455 S
Cd60 O62 2.411 . S
Cd60 O63 2.333 . S
Cd60 O64 2.352 . S
Cd60 O68 2.277 . S
Cd60 O69 2.356 . S
C61 O66 1.209 . S
C61 O68 1.226 . S
O62 Cd58 2.273 . S
O62 Cd60 2.411 . S
O62 C65 1.320 . S
O63 Cd60 2.333 . S
O63 C65 1.214 . S
O64 Cd60 2.352 . S
O64 C67 1.258 . S
C65 O62 1.320 . S
C65 O63 1.214 . S
O66 Cd58 2.277 . S
O66 C61 1.209 . S
C67 O64 1.258 . S
C67 O69 1.282 . S
O68 Cd60 2.277 . S
O68 C61 1.226 . S
O69 Cd60 2.356 . S
O69 C67 1.282 . S
C70 O71 1.306 . S
C70 O73 1.160 . S
O71 C70 1.306 . S
O71 Cd72 2.228 . S
Cd72 O71 2.228 . S
Cd72 O76 2.273 . S
Cd72 O80 2.277 . S
O73 C70 1.160 . S
O73 Cd74 2.203 . S
Cd74 O73 2.203 . S
Cd74 O76 2.411 . S
Cd74 O77 2.333 . S
Cd74 O78 2.352 . S
Cd74 O82 2.277 . S
Cd74 O83 2.356 . S
C75 O80 1.209 . S
C75 O82 1.226 . S
O76 Cd72 2.273 . S
O76 Cd74 2.411 . S
O76 C79 1.320 . S
O77 Cd74 2.333 . S
O77 C79 1.214 . S
O78 Cd74 2.352 . S
O78 C81 1.258 . S
C79 O76 1.320 . S
C79 O77 1.214 . S
O80 Cd72 2.277 . S
O80 C75 1.209 . S
C81 O78 1.258 . S
C81 O83 1.282 . S
O82 Cd74 2.277 . S
O82 C75 1.226 . S
O83 Cd74 2.356 . S
O83 C81 1.282 . S
C84 O85 1.306 . S
C84 O87 1.160 . S
O85 C84 1.306 . S
O85 Cd86 2.228 . S
Cd86 O85 2.228 . S
Cd86 O90 2.273 . S
Cd86 O94 2.277 . S
O87 C84 1.160 . S
O87 Cd88 2.203 . S
Cd88 O87 2.203 . S
Cd88 O90 2.411 . S
Cd88 O91 2.333 . S
Cd88 O92 2.352 . S
Cd88 O96 2.277 . S
Cd88 O97 2.356 . S
C89 O94 1.209 . S
C89 O96 1.226 . S
O90 Cd86 2.273 . S
O90 Cd88 2.411 . S
O90 C93 1.320 . S
O91 Cd88 2.333 . S
O91 C93 1.214 . S
O92 Cd88 2.352 . S
O92 C95 1.258 . S
C93 O90 1.320 . S
C93 O91 1.214 . S
O94 Cd86 2.277 . S
O94 C89 1.209 . S
C95 O92 1.258 . S
C95 O97 1.282 . S
O96 Cd88 2.277 . S
O96 C89 1.226 . S
O97 Cd88 2.356 . S
O97 C95 1.282 . S
C98 O99 1.306 . S
C98 O101 1.160 . S
O99 C98 1.306 . S
O99 Cd100 2.228 1_655 S
Cd100 O99 2.228 1_455 S
Cd100 O104 2.273 . S
Cd100 O108 2.277 . S
O101 C98 1.160 . S
O101 Cd102 2.203 1_655 S
Cd102 O101 2.203 1_455 S
Cd102 O104 2.411 . S
Cd102 O105 2.333 . S
Cd102 O106 2.352 1_455 S
Cd102 O110 2.277 . S
Cd102 O111 2.356 . S
C103 O108 1.209 . S
C103 O110 1.226 . S
O104 Cd100 2.273 . S
O104 Cd102 2.411 . S
O104 C107 1.320 . S
O105 Cd102 2.333 . S
O105 C107 1.214 . S
O106 Cd102 2.352 1_655 S
O106 C109 1.259 1_655 S
C107 O104 1.320 . S
C107 O105 1.214 . S
O108 Cd100 2.277 . S
O108 C103 1.209 . S
C109 O106 1.259 1_455 S
C109 O111 1.282 . S
O110 Cd102 2.277 . S
O110 C103 1.226 . S
O111 Cd102 2.356 . S
O111 C109 1.282 . S
C112 O113 1.306 . S
C112 O115 1.160 . S
O113 C112 1.306 . S
O113 Cd114 2.228 1_545 S
Cd114 O113 2.228 1_565 S
Cd114 O118 2.273 1_565 S
Cd114 O122 2.277 . S
O115 C112 1.160 . S
O115 Cd116 2.203 . S
Cd116 O115 2.203 . S
Cd116 O118 2.411 . S
Cd116 O119 2.333 . S
Cd116 O120 2.352 . S
Cd116 O124 2.277 1_545 S
Cd116 O125 2.356 . S
C117 O122 1.209 . S
C117 O124 1.226 . S
O118 Cd114 2.273 1_545 S
O118 Cd116 2.411 . S
O118 C121 1.320 . S
O119 Cd116 2.333 . S
O119 C121 1.214 . S
O120 Cd116 2.352 . S
O120 C123 1.258 . S
C121 O118 1.320 . S
C121 O119 1.214 . S
O122 Cd114 2.277 . S
O122 C117 1.209 . S
C123 O120 1.258 . S
C123 O125 1.282 . S
O124 Cd116 2.277 1_565 S
O124 C117 1.226 . S
O125 Cd116 2.356 . S
O125 C123 1.282 . S
C126 O127 1.306 . S
C126 O129 1.160 . S
O127 C126 1.306 . S
O127 Cd128 2.228 . S
Cd128 O127 2.228 . S
Cd128 O132 2.273 . S
Cd128 O136 2.277 . S
O129 C126 1.160 . S
O129 Cd130 2.203 . S
Cd130 O129 2.203 . S
Cd130 O132 2.411 . S
Cd130 O133 2.333 . S
Cd130 O134 2.352 . S
Cd130 O138 2.277 . S
Cd130 O139 2.356 . S
C131 O136 1.209 . S
C131 O138 1.226 . S
O132 Cd128 2.273 . S
O132 Cd130 2.411 . S
O132 C135 1.320 . S
O133 Cd130 2.333 . S
O133 C135 1.214 . S
O134 Cd130 2.352 . S
O134 C137 1.258 . S
C135 O132 1.320 . S
C135 O133 1.214 . S
O136 Cd128 2.277 . S
O136 C131 1.209 . S
C137 O134 1.258 . S
C137 O139 1.282 . S
O138 Cd130 2.277 . S
O138 C131 1.226 . S
O139 Cd130 2.356 . S
O139 C137 1.282 . S
C140 O141 1.306 . S
C140 O143 1.160 . S
O141 C140 1.306 . S
O141 Cd142 2.228 . S
Cd142 O141 2.228 . S
Cd142 O146 2.273 . S
Cd142 O150 2.277 . S
O143 C140 1.160 . S
O143 Cd144 2.203 . S
Cd144 O143 2.203 . S
Cd144 O146 2.411 . S
Cd144 O147 2.333 . S
Cd144 O148 2.352 1_545 S
Cd144 O152 2.277 . S
Cd144 O153 2.356 1_545 S
C145 O150 1.209 . S
C145 O152 1.226 . S
O146 Cd142 2.273 . S
O146 Cd144 2.411 . S
O146 C149 1.320 . S
O147 Cd144 2.333 . S
O147 C149 1.214 . S
O148 Cd144 2.352 1_565 S
O148 C151 1.258 . S
C149 O146 1.320 . S
C149 O147 1.214 . S
O150 Cd142 2.277 . S
O150 C145 1.209 . S
C151 O148 1.258 . S
C151 O153 1.282 . S
O152 Cd144 2.277 . S
O152 C145 1.226 . S
O153 Cd144 2.356 1_565 S
O153 C151 1.282 . S
C154 O155 1.306 . S
C154 O157 1.160 . S
O155 C154 1.306 . S
O155 Cd156 2.228 1_554 S
Cd156 O155 2.228 1_556 S
Cd156 O160 2.273 1_556 S
Cd156 O164 2.277 . S
O157 C154 1.160 . S
O157 Cd158 2.203 . S
Cd158 O157 2.203 . S
Cd158 O160 2.411 . S
Cd158 O161 2.333 . S
Cd158 O162 2.352 . S
Cd158 O166 2.277 1_554 S
Cd158 O167 2.356 . S
C159 O164 1.209 . S
C159 O166 1.226 . S
O160 Cd156 2.273 1_554 S
O160 Cd158 2.411 . S
O160 C163 1.320 . S
O161 Cd158 2.333 . S
O161 C163 1.214 . S
O162 Cd158 2.352 . S
O162 C165 1.258 . S
C163 O160 1.320 . S
C163 O161 1.214 . S
O164 Cd156 2.277 . S
O164 C159 1.209 . S
C165 O162 1.258 . S
C165 O167 1.282 . S
O166 Cd158 2.277 1_556 S
O166 C159 1.226 . S
O167 Cd158 2.356 . S
O167 C165 1.282 . S
C168 O169 1.306 . S
C168 O171 1.160 . S
O169 C168 1.306 . S
O169 Cd170 2.228 . S
Cd170 O169 2.228 . S
Cd170 O174 2.273 . S
Cd170 O178 2.277 . S
O171 C168 1.160 . S
O171 Cd172 2.203 . S
Cd172 O171 2.203 . S
Cd172 O174 2.411 . S
Cd172 O175 2.333 . S
Cd172 O176 2.352 . S
Cd172 O180 2.277 . S
Cd172 O181 2.356 . S
C173 O178 1.211 . S
C173 O180 1.257 . S
O174 Cd170 2.273 . S
O174 Cd172 2.411 . S
O174 C177 1.320 . S
O175 Cd172 2.333 . S
O175 C177 1.214 . S
O176 Cd172 2.352 . S
O176 C179 1.258 . S
C177 O174 1.320 . S
C177 O175 1.214 . S
O178 Cd170 2.277 . S
O178 C173 1.211 . S
C179 O176 1.258 . S
C179 O181 1.282 . S
O180 Cd172 2.277 . S
O180 C173 1.257 . S
O181 Cd172 2.356 . S
O181 C179 1.282 . S
C182 O183 1.306 . S
C182 O185 1.160 . S
O183 C182 1.306 . S
O183 Cd184 2.228 . S
Cd184 O183 2.228 . S
Cd184 O188 2.273 . S
Cd184 O192 2.277 . S
O185 C182 1.160 . S
O185 Cd186 2.203 . S
Cd186 O185 2.203 . S
Cd186 O188 2.411 . S
Cd186 O189 2.333 . S
Cd186 O190 2.352 1_554 S
Cd186 O194 2.277 . S
Cd186 O195 2.356 1_554 S
C187 O192 1.209 . S
C187 O194 1.226 . S
O188 Cd184 2.273 . S
O188 Cd186 2.411 . S
O188 C191 1.320 . S
O189 Cd186 2.333 . S
O189 C191 1.214 . S
O190 Cd186 2.352 1_556 S
O190 C193 1.258 . S
C191 O188 1.320 . S
C191 O189 1.214 . S
O192 Cd184 2.277 . S
O192 C187 1.209 . S
C193 O190 1.258 . S
C193 O195 1.282 . S
O194 Cd186 2.277 . S
O194 C187 1.226 . S
O195 Cd186 2.356 1_556 S
O195 C193 1.282 . S
C196 O197 1.306 . S
C196 O199 1.160 . S
O197 C196 1.306 . S
O197 Cd198 2.228 . S
Cd198 O197 2.228 . S
Cd198 O202 2.273 . S
Cd198 O206 2.277 . S
O199 C196 1.160 . S
O199 Cd200 2.203 . S
Cd200 O199 2.203 . S
Cd200 O202 2.411 . S
Cd200 O203 2.333 . S
Cd200 O204 2.352 . S
Cd200 O208 2.277 . S
Cd200 O209 2.356 . S
C201 O206 1.209 . S
C201 O208 1.226 . S
O202 Cd198 2.273 . S
O202 Cd200 2.411 . S
O202 C205 1.320 . S
O203 Cd200 2.333 . S
O203 C205 1.214 . S
O204 Cd200 2.352 . S
O204 C207 1.258 . S
C205 O202 1.320 . S
C205 O203 1.214 . S
O206 Cd198 2.277 . S
O206 C201 1.209 . S
C207 O204 1.258 . S
C207 O209 1.282 . S
O208 Cd200 2.277 . S
O208 C201 1.226 . S
O209 Cd200 2.356 . S
O209 C207 1.282 . S
C210 O211 1.306 . S
C210 O213 1.160 . S
O211 C210 1.306 . S
O211 Cd212 2.228 . S
Cd212 O211 2.228 . S
Cd212 O216 2.273 . S
Cd212 O220 2.277 . S
O213 C210 1.160 . S
O213 Cd214 2.203 . S
Cd214 O213 2.203 . S
Cd214 O216 2.411 . S
Cd214 O217 2.333 . S
Cd214 O218 2.352 . S
Cd214 O222 2.277 . S
Cd214 O223 2.356 . S
C215 O220 1.209 . S
C215 O222 1.226 . S
O216 Cd212 2.273 . S
O216 Cd214 2.411 . S
O216 C219 1.320 . S
O217 Cd214 2.333 . S
O217 C219 1.214 . S
O218 Cd214 2.352 . S
O218 C221 1.258 . S
C219 O216 1.320 . S
C219 O217 1.214 . S
O220 Cd212 2.277 . S
O220 C215 1.209 . S
C221 O218 1.258 . S
C221 O223 1.282 . S
O222 Cd214 2.277 . S
O222 C215 1.226 . S
O223 Cd214 2.356 . S
O223 C221 1.282 . S
C224 O225 1.306 . S
C224 O227 1.160 . S
O225 C224 1.306 . S
O225 Cd226 2.228 1_545 S
Cd226 O225 2.228 1_565 S
Cd226 O230 2.273 1_565 S
Cd226 O234 2.277 . S
O227 C224 1.160 . S
O227 Cd228 2.203 . S
Cd228 O227 2.203 . S
Cd228 O230 2.411 . S
Cd228 O231 2.333 . S
Cd228 O232 2.352 . S
Cd228 O236 2.277 1_545 S
Cd228 O237 2.356 . S
C229 O234 1.209 . S
C229 O236 1.226 . S
O230 Cd226 2.273 1_545 S
O230 Cd228 2.411 . S
O230 C233 1.320 . S
O231 Cd228 2.333 . S
O231 C233 1.214 . S
O232 Cd228 2.352 . S
O232 C235 1.258 . S
C233 O230 1.320 . S
C233 O231 1.214 . S
O234 Cd226 2.277 . S
O234 C229 1.209 . S
C235 O232 1.258 . S
C235 O237 1.282 . S
O236 Cd228 2.277 1_565 S
O236 C229 1.226 . S
O237 Cd228 2.356 . S
O237 C235 1.282 . S
C238 O239 1.306 . S
C238 O241 1.160 . S
O239 C238 1.306 . S
O239 Cd240 2.228 . S
Cd240 O239 2.228 . S
Cd240 O244 2.273 . S
Cd240 O248 2.277 . S
O241 C238 1.160 . S
O241 Cd242 2.203 . S
Cd242 O241 2.203 . S
Cd242 O244 2.411 . S
Cd242 O245 2.333 . S
Cd242 O246 2.352 . S
Cd242 O250 2.277 . S
Cd242 O251 2.356 . S
C243 O248 1.209 . S
C243 O250 1.226 . S
O244 Cd240 2.273 . S
O244 Cd242 2.411 . S
O244 C247 1.320 . S
O245 Cd242 2.333 . S
O245 C247 1.214 . S
O246 Cd242 2.352 . S
O246 C249 1.258 . S
C247 O244 1.320 . S
C247 O245 1.214 . S
O248 Cd240 2.277 . S
O248 C243 1.209 . S
C249 O246 1.258 . S
C249 O251 1.282 . S
O250 Cd242 2.277 . S
O250 C243 1.226 . S
O251 Cd242 2.356 . S
O251 C249 1.282 . S
C252 O253 1.306 . S
C252 O255 1.160 . S
O253 C252 1.306 . S
O253 Cd254 2.228 . S
Cd254 O253 2.228 . S
Cd254 O258 2.273 . S
Cd254 O262 2.277 . S
O255 C252 1.160 . S
O255 Cd256 2.203 . S
Cd256 O255 2.203 . S
Cd256 O258 2.411 . S
Cd256 O259 2.333 . S
Cd256 O260 2.352 . S
Cd256 O264 2.277 . S
Cd256 O265 2.356 . S
C257 O262 1.209 . S
C257 O264 1.226 . S
O258 Cd254 2.273 . S
O258 Cd256 2.411 . S
O258 C261 1.320 . S
O259 Cd256 2.333 . S
O259 C261 1.214 . S
O260 Cd256 2.352 . S
O260 C263 1.258 . S
C261 O258 1.320 . S
C261 O259 1.214 . S
O262 Cd254 2.277 . S
O262 C257 1.209 . S
C263 O260 1.258 . S
C263 O265 1.282 . S
O264 Cd256 2.277 . S
O264 C257 1.226 . S
O265 Cd256 2.356 . S
O265 C263 1.282 . S
C266 O267 1.306 . S
C266 O269 1.148 1_545 S
O267 C266 1.306 . S
O267 Cd268 2.228 . S
Cd268 O267 2.228 . S
Cd268 O272 2.273 1_545 S
Cd268 O276 2.277 . S
O269 C266 1.148 1_565 S
O269 Cd270 2.204 . S
Cd270 O269 2.204 . S
Cd270 O272 2.411 . S
Cd270 O273 2.333 . S
Cd270 O274 2.352 . S
Cd270 O278 2.277 1_565 S
Cd270 O279 2.356 . S
C271 O276 1.209 . S
C271 O278 1.226 . S
O272 Cd268 2.273 1_565 S
O272 Cd270 2.411 . S
O272 C275 1.320 . S
O273 Cd270 2.333 . S
O273 C275 1.214 . S
O274 Cd270 2.352 . S
O274 C277 1.258 . S
C275 O272 1.320 . S
C275 O273 1.214 . S
O276 Cd268 2.277 . S
O276 C271 1.209 . S
C277 O274 1.258 . S
C277 O279 1.282 . S
O278 Cd270 2.277 1_545 S
O278 C271 1.226 . S
O279 Cd270 2.356 . S
O279 C277 1.282 . S
C280 O281 1.306 . S
C280 O283 1.145 1_554 S
O281 C280 1.306 . S
O281 Cd282 2.228 . S
Cd282 O281 2.228 . S
Cd282 O286 2.238 1_554 S
Cd282 O290 2.277 . S
O283 C280 1.145 1_556 S
O283 Cd284 2.204 . S
Cd284 O283 2.204 . S
Cd284 O286 2.419 . S
Cd284 O287 2.333 . S
Cd284 O288 2.352 . S
Cd284 O292 2.277 1_556 S
Cd284 O293 2.356 . S
C285 O290 1.209 . S
C285 O292 1.226 . S
O286 Cd282 2.238 1_556 S
O286 Cd284 2.419 . S
O286 C289 1.324 . S
O287 Cd284 2.333 . S
O287 C289 1.214 . S
O288 Cd284 2.352 . S
O288 C291 1.258 . S
C289 O286 1.324 . S
C289 O287 1.214 . S
O290 Cd282 2.277 . S
O290 C285 1.209 . S
C291 O288 1.258 . S
C291 O293 1.282 . S
O292 Cd284 2.277 1_554 S
O292 C285 1.226 . S
O293 Cd284 2.356 . S
O293 C291 1.282 . S
C294 O295 1.306 . S
C294 O297 1.160 . S
O295 C294 1.306 . S
O295 Cd296 2.228 . S
Cd296 O295 2.228 . S
Cd296 O300 2.273 . S
Cd296 O304 2.277 . S
O297 C294 1.160 . S
O297 Cd298 2.203 . S
Cd298 O297 2.203 . S
Cd298 O300 2.411 . S
Cd298 O301 2.333 . S
Cd298 O302 2.352 . S
Cd298 O306 2.277 . S
Cd298 O307 2.356 . S
C299 O304 1.209 . S
C299 O306 1.226 . S
O300 Cd296 2.273 . S
O300 Cd298 2.411 . S
O300 C303 1.320 . S
O301 Cd298 2.333 . S
O301 C303 1.214 . S
O302 Cd298 2.352 . S
O302 C305 1.258 . S
C303 O300 1.320 . S
C303 O301 1.214 . S
O304 Cd296 2.277 . S
O304 C299 1.209 . S
C305 O302 1.258 . S
C305 O307 1.282 . S
O306 Cd298 2.277 . S
O306 C299 1.226 . S
O307 Cd298 2.356 . S
O307 C305 1.282 . S
C308 O309 1.306 . S
C308 O311 1.160 . S
O309 C308 1.306 . S
O309 Cd310 2.228 . S
Cd310 O309 2.228 . S
Cd310 O314 2.273 . S
Cd310 O318 2.277 . S
O311 C308 1.160 . S
O311 Cd312 2.203 . S
Cd312 O311 2.203 . S
Cd312 O314 2.411 . S
Cd312 O315 2.333 . S
Cd312 O316 2.352 . S
Cd312 O320 2.277 . S
Cd312 O321 2.356 . S
C313 O318 1.209 . S
C313 O320 1.226 . S
O314 Cd310 2.273 . S
O314 Cd312 2.411 . S
O314 C317 1.320 . S
O315 Cd312 2.333 . S
O315 C317 1.214 . S
O316 Cd312 2.352 . S
O316 C319 1.258 . S
C317 O314 1.320 . S
C317 O315 1.214 . S
O318 Cd310 2.277 . S
O318 C313 1.209 . S
C319 O316 1.258 . S
C319 O321 1.282 . S
O320 Cd312 2.277 . S
O320 C313 1.226 . S
O321 Cd312 2.356 . S
O321 C319 1.282 . S
C322 O323 1.306 . S
C322 O325 1.160 . S
O323 C322 1.306 . S
O323 Cd324 2.228 . S
Cd324 O323 2.228 . S
Cd324 O328 2.273 . S
Cd324 O332 2.277 . S
O325 C322 1.160 . S
O325 Cd326 2.203 . S
Cd326 O325 2.203 . S
Cd326 O328 2.411 . S
Cd326 O329 2.333 . S
Cd326 O330 2.352 . S
Cd326 O334 2.277 . S
Cd326 O335 2.356 . S
C327 O332 1.209 . S
C327 O334 1.226 . S
O328 Cd324 2.273 . S
O328 Cd326 2.411 . S
O328 C331 1.320 . S
O329 Cd326 2.333 . S
O329 C331 1.214 . S
O330 Cd326 2.352 . S
O330 C333 1.258 . S
C331 O328 1.320 . S
C331 O329 1.214 . S
O332 Cd324 2.277 . S
O332 C327 1.209 . S
C333 O330 1.258 . S
C333 O335 1.282 . S
O334 Cd326 2.277 . S
O334 C327 1.226 . S
O335 Cd326 2.356 . S
O335 C333 1.282 . S
Zn336 O342 1.969 . S
Zn336 O343 1.965 1_565 S
Zn336 O347 2.024 . S
Zn336 O352 1.969 1_565 S
Zn337 O344 1.969 1_654 S
Zn337 O350 1.966 1_554 S
Zn337 O351 1.965 . S
Zn337 O353 2.024 1_655 S
C338 O339 1.229 . S
C338 O347 1.058 . S
O339 C338 1.229 . S
C340 O341 1.213 1_454 S
C340 O353 1.058 . S
O341 C340 1.213 1_656 S
O342 Zn336 1.969 . S
O342 C345 1.267 . S
O343 Zn336 1.965 1_545 S
O343 C354 1.260 1_554 S
O344 Zn337 1.969 1_456 S
O344 C354 1.258 . S
C345 O342 1.267 . S
C345 O346 1.228 . S
O346 C345 1.228 . S
O347 Zn336 2.024 . S
O347 C338 1.058 . S
C348 O349 1.228 . S
C348 O350 1.262 1_554 S
O349 C348 1.228 . S
O350 Zn337 1.966 1_556 S
O350 C348 1.262 1_556 S
O351 Zn337 1.965 . S
O351 C355 1.260 1_655 S
O352 Zn336 1.969 1_545 S
O352 C355 1.258 . S
O353 Zn337 2.024 1_455 S
O353 C340 1.058 . S
C354 O343 1.260 1_556 S
C354 O344 1.258 . S
C355 O351 1.260 1_455 S
C355 O352 1.258 . S
Zn356 O362 1.969 . S
Zn356 O363 1.965 . S
Zn356 O367 2.024 . S
Zn356 O372 1.969 . S
Zn357 O364 1.969 . S
Zn357 O370 1.969 . S
Zn357 O371 1.965 . S
Zn357 O373 2.024 . S
C358 O359 1.229 . S
C358 O367 1.058 . S
O359 C358 1.229 . S
C360 O361 1.229 . S
C360 O373 1.058 . S
O361 C360 1.229 . S
O362 Zn356 1.969 . S
O362 C365 1.267 . S
O363 Zn356 1.965 . S
O363 C374 1.260 . S
O364 Zn357 1.969 . S
O364 C374 1.258 . S
C365 O362 1.267 . S
C365 O366 1.228 . S
O366 C365 1.228 . S
O367 Zn356 2.024 . S
O367 C358 1.058 . S
C368 O369 1.228 . S
C368 O370 1.267 . S
O369 C368 1.228 . S
O370 Zn357 1.969 . S
O370 C368 1.267 . S
O371 Zn357 1.965 . S
O371 C375 1.260 . S
O372 Zn356 1.969 . S
O372 C375 1.258 . S
O373 Zn357 2.024 . S
O373 C360 1.058 . S
C374 O363 1.260 . S
C374 O364 1.258 . S
C375 O371 1.260 . S
C375 O372 1.258 . S
Zn376 O382 1.969 . S
Zn376 O383 1.965 . S
Zn376 O387 2.024 . S
Zn376 O392 1.969 . S
Zn377 O384 1.969 . S
Zn377 O390 1.969 . S
Zn377 O391 1.965 1_565 S
Zn377 O393 2.024 . S
C378 O379 1.229 . S
C378 O387 1.058 . S
O379 C378 1.229 . S
C380 O381 1.229 . S
C380 O393 1.058 . S
O381 C380 1.229 . S
O382 Zn376 1.969 . S
O382 C385 1.267 . S
O383 Zn376 1.965 . S
O383 C394 1.260 . S
O384 Zn377 1.969 . S
O384 C394 1.258 1_565 S
C385 O382 1.267 . S
C385 O386 1.228 . S
O386 C385 1.228 . S
O387 Zn376 2.024 . S
O387 C378 1.058 . S
C388 O389 1.228 . S
C388 O390 1.267 . S
O389 C388 1.228 . S
O390 Zn377 1.969 . S
O390 C388 1.267 . S
O391 Zn377 1.965 1_545 S
O391 C395 1.260 . S
O392 Zn376 1.969 . S
O392 C395 1.258 . S
O393 Zn377 2.024 . S
O393 C380 1.058 . S
C394 O383 1.260 . S
C394 O384 1.258 1_545 S
C395 O391 1.260 . S
C395 O392 1.258 . S
Zn396 O402 1.969 . S
Zn396 O403 1.965 . S
Zn396 O407 2.024 . S
Zn396 O412 1.969 . S
Zn397 O404 1.969 . S
Zn397 O410 1.969 . S
Zn397 O411 1.965 . S
Zn397 O413 2.024 . S
C398 O399 1.229 . S
C398 O407 1.058 . S
O399 C398 1.229 . S
C400 O401 1.229 . S
C400 O413 1.058 . S
O401 C400 1.229 . S
O402 Zn396 1.969 . S
O402 C405 1.267 . S
O403 Zn396 1.965 . S
O403 C414 1.260 . S
O404 Zn397 1.969 . S
O404 C414 1.258 . S
C405 O402 1.267 . S
C405 O406 1.228 . S
O406 C405 1.228 . S
O407 Zn396 2.024 . S
O407 C398 1.058 . S
C408 O409 1.228 . S
C408 O410 1.267 . S
O409 C408 1.228 . S
O410 Zn397 1.969 . S
O410 C408 1.267 . S
O411 Zn397 1.965 . S
O411 C415 1.260 . S
O412 Zn396 1.969 . S
O412 C415 1.258 . S
O413 Zn397 2.024 . S
O413 C400 1.058 . S
C414 O403 1.260 . S
C414 O404 1.258 . S
C415 O411 1.260 . S
C415 O412 1.258 . S
Zn416 O422 1.969 . S
Zn416 O423 1.967 1_455 S
Zn416 O427 2.024 1_565 S
Zn416 O432 1.969 1_565 S
Zn417 O424 1.969 1_455 S
Zn417 O430 1.969 1_455 S
Zn417 O431 1.965 . S
Zn417 O433 2.024 . S
C418 O419 1.229 1_545 S
C418 O427 1.058 . S
O419 C418 1.229 1_565 S
C420 O421 1.229 . S
C420 O433 1.058 1_655 S
O421 C420 1.229 . S
O422 Zn416 1.969 . S
O422 C425 1.267 . S
O423 Zn416 1.967 1_655 S
O423 C434 1.288 . S
O424 Zn417 1.969 1_655 S
O424 C434 1.217 1_545 S
C425 O422 1.267 . S
C425 O426 1.228 . S
O426 C425 1.228 . S
O427 Zn416 2.024 1_545 S
O427 C418 1.058 . S
C428 O429 1.228 . S
C428 O430 1.267 1_455 S
O429 C428 1.228 . S
O430 Zn417 1.969 1_655 S
O430 C428 1.267 1_655 S
O431 Zn417 1.965 . S
O431 C435 1.260 . S
O432 Zn416 1.969 1_545 S
O432 C435 1.258 . S
O433 Zn417 2.024 . S
O433 C420 1.058 1_455 S
C434 O423 1.288 . S
C434 O424 1.217 1_565 S
C435 O431 1.260 . S
C435 O432 1.258 . S
Zn436 O442 1.969 . S
Zn436 O443 1.965 . S
Zn436 O447 2.024 . S
Zn436 O452 1.969 . S
Zn437 O444 1.969 . S
Zn437 O450 1.969 . S
Zn437 O451 1.965 . S
Zn437 O453 2.024 . S
C438 O439 1.229 . S
C438 O447 1.058 . S
O439 C438 1.229 . S
C440 O441 1.229 . S
C440 O453 1.058 . S
O441 C440 1.229 . S
O442 Zn436 1.969 . S
O442 C445 1.267 . S
O443 Zn436 1.965 . S
O443 C454 1.260 . S
O444 Zn437 1.969 . S
O444 C454 1.258 . S
C445 O442 1.267 . S
C445 O446 1.228 . S
O446 C445 1.228 . S
O447 Zn436 2.024 . S
O447 C438 1.058 . S
C448 O449 1.228 . S
C448 O450 1.267 . S
O449 C448 1.228 . S
O450 Zn437 1.969 . S
O450 C448 1.267 . S
O451 Zn437 1.965 . S
O451 C455 1.260 . S
O452 Zn436 1.969 . S
O452 C455 1.258 . S
O453 Zn437 2.024 . S
O453 C440 1.058 . S
C454 O443 1.260 . S
C454 O444 1.258 . S
C455 O451 1.260 . S
C455 O452 1.258 . S
Zn456 O462 1.961 1_554 S
Zn456 O463 1.963 1_545 S
Zn456 O467 2.028 . S
Zn456 O472 1.973 . S
Zn457 O464 1.969 1_545 S
Zn457 O470 1.969 1_545 S
Zn457 O471 1.965 . S
Zn457 O473 2.024 . S
C458 O459 1.229 . S
C458 O467 1.058 . S
O459 C458 1.229 . S
C460 O461 1.229 . S
C460 O473 1.058 1_565 S
O461 C460 1.229 . S
O462 Zn456 1.961 1_556 S
O462 C465 1.267 . S
O463 Zn456 1.963 1_565 S
O463 C474 1.272 . S
O464 Zn457 1.969 1_565 S
O464 C474 1.258 . S
C465 O462 1.267 . S
C465 O466 1.228 . S
O466 C465 1.228 . S
O467 Zn456 2.028 . S
O467 C458 1.058 . S
C468 O469 1.228 . S
C468 O470 1.267 1_545 S
O469 C468 1.228 . S
O470 Zn457 1.969 1_565 S
O470 C468 1.267 1_565 S
O471 Zn457 1.965 . S
O471 C475 1.260 . S
O472 Zn456 1.973 . S
O472 C475 1.258 . S
O473 Zn457 2.024 . S
O473 C460 1.058 1_545 S
C474 O463 1.272 . S
C474 O464 1.258 . S
C475 O471 1.260 . S
C475 O472 1.258 . S
Zn476 O482 1.969 . S
Zn476 O483 1.965 . S
Zn476 O487 2.024 . S
Zn476 O492 1.969 . S
Zn477 O484 1.969 . S
Zn477 O490 1.969 . S
Zn477 O491 1.965 . S
Zn477 O493 2.024 . S
C478 O479 1.229 . S
C478 O487 1.058 . S
O479 C478 1.229 . S
C480 O481 1.229 . S
C480 O493 1.058 . S
O481 C480 1.229 . S
O482 Zn476 1.969 . S
O482 C485 1.267 . S
O483 Zn476 1.965 . S
O483 C494 1.260 . S
O484 Zn477 1.969 . S
O484 C494 1.258 . S
C485 O482 1.267 . S
C485 O486 1.228 . S
O486 C485 1.228 . S
O487 Zn476 2.024 . S
O487 C478 1.058 . S
C488 O489 1.228 . S
C488 O490 1.267 . S
O489 C488 1.228 . S
O490 Zn477 1.969 . S
O490 C488 1.267 . S
O491 Zn477 1.965 . S
O491 C495 1.260 . S
O492 Zn476 1.969 . S
O492 C495 1.258 . S
O493 Zn477 2.024 . S
O493 C480 1.058 . S
C494 O483 1.260 . S
C494 O484 1.258 . S
C495 O491 1.260 . S
C495 O492 1.258 . S
Zn496 O502 1.969 . S
Zn496 O503 1.965 . S
Zn496 O507 2.024 . S
Zn496 O512 1.969 . S
Zn497 O504 1.969 1_556 S
Zn497 O510 1.969 1_556 S
Zn497 O511 1.965 1_556 S
Zn497 O513 2.024 . S
C498 O499 1.229 . S
C498 O507 1.058 . S
O499 C498 1.229 . S
C500 O501 1.229 . S
C500 O513 1.058 . S
O501 C500 1.229 . S
O502 Zn496 1.969 . S
O502 C505 1.267 . S
O503 Zn496 1.965 . S
O503 C514 1.260 . S
O504 Zn497 1.969 1_554 S
O504 C514 1.258 . S
C505 O502 1.267 . S
C505 O506 1.228 . S
O506 C505 1.228 . S
O507 Zn496 2.024 . S
O507 C498 1.058 . S
C508 O509 1.228 . S
C508 O510 1.267 1_556 S
O509 C508 1.228 . S
O510 Zn497 1.969 1_554 S
O510 C508 1.267 1_554 S
O511 Zn497 1.965 1_554 S
O511 C515 1.260 . S
O512 Zn496 1.969 . S
O512 C515 1.258 . S
O513 Zn497 2.024 . S
O513 C500 1.058 . S
C514 O503 1.260 . S
C514 O504 1.258 . S
C515 O511 1.260 . S
C515 O512 1.258 . S
Zn516 O522 1.969 . S
Zn516 O523 1.965 . S
Zn516 O527 2.024 . S
Zn516 O532 1.969 . S
Zn517 O524 1.969 . S
Zn517 O530 1.969 . S
Zn517 O531 1.965 . S
Zn517 O533 2.024 . S
C518 O519 1.229 . S
C518 O527 1.058 . S
O519 C518 1.229 . S
C520 O521 1.229 . S
C520 O533 1.058 . S
O521 C520 1.229 . S
O522 Zn516 1.969 . S
O522 C525 1.267 . S
O523 Zn516 1.965 . S
O523 C534 1.260 . S
O524 Zn517 1.969 . S
O524 C534 1.258 . S
C525 O522 1.267 . S
C525 O526 1.228 . S
O526 C525 1.228 . S
O527 Zn516 2.024 . S
O527 C518 1.058 . S
C528 O529 1.228 . S
C528 O530 1.267 . S
O529 C528 1.228 . S
O530 Zn517 1.969 . S
O530 C528 1.267 . S
O531 Zn517 1.965 . S
O531 C535 1.260 . S
O532 Zn516 1.969 . S
O532 C535 1.258 . S
O533 Zn517 2.024 . S
O533 C520 1.058 . S
C534 O523 1.260 . S
C534 O524 1.258 . S
C535 O531 1.260 . S
C535 O532 1.258 . S
Zn536 O542 1.969 . S
Zn536 O543 1.965 . S
Zn536 O547 2.024 . S
Zn536 O552 1.969 . S
Zn537 O544 1.955 1_655 S
Zn537 O550 1.969 . S
Zn537 O551 1.965 1_655 S
Zn537 O553 2.024 . S
C538 O539 1.229 . S
C538 O547 1.058 . S
O539 C538 1.229 . S
C540 O541 1.229 . S
C540 O553 1.058 . S
O541 C540 1.229 . S
O542 Zn536 1.969 . S
O542 C545 1.267 . S
O543 Zn536 1.965 . S
O543 C554 1.260 . S
O544 Zn537 1.955 1_455 S
O544 C554 1.276 . S
C545 O542 1.267 . S
C545 O546 1.228 . S
O546 C545 1.228 . S
O547 Zn536 2.024 . S
O547 C538 1.058 . S
C548 O549 1.228 . S
C548 O550 1.267 . S
O549 C548 1.228 . S
O550 Zn537 1.969 . S
O550 C548 1.267 . S
O551 Zn537 1.965 1_455 S
O551 C555 1.260 . S
O552 Zn536 1.969 . S
O552 C555 1.258 . S
O553 Zn537 2.024 . S
O553 C540 1.058 . S
C554 O543 1.260 . S
C554 O544 1.276 . S
C555 O551 1.260 . S
C555 O552 1.258 . S
Zn556 O562 1.969 . S
Zn556 O563 1.965 . S
Zn556 O567 2.024 . S
Zn556 O572 1.969 . S
Zn557 O564 1.969 . S
Zn557 O570 1.969 . S
Zn557 O571 1.965 . S
Zn557 O573 2.024 . S
C558 O559 1.229 . S
C558 O567 1.058 . S
O559 C558 1.229 . S
C560 O561 1.229 . S
C560 O573 1.058 . S
O561 C560 1.229 . S
O562 Zn556 1.969 . S
O562 C565 1.267 . S
O563 Zn556 1.965 . S
O563 C574 1.260 . S
O564 Zn557 1.969 . S
O564 C574 1.258 . S
C565 O562 1.267 . S
C565 O566 1.228 . S
O566 C565 1.228 . S
O567 Zn556 2.024 . S
O567 C558 1.058 . S
C568 O569 1.228 . S
C568 O570 1.267 . S
O569 C568 1.228 . S
O570 Zn557 1.969 . S
O570 C568 1.267 . S
O571 Zn557 1.965 . S
O571 C575 1.260 . S
O572 Zn556 1.969 . S
O572 C575 1.258 . S
O573 Zn557 2.024 . S
O573 C560 1.058 . S
C574 O563 1.260 . S
C574 O564 1.258 . S
C575 O571 1.260 . S
C575 O572 1.258 . S
Zn576 O582 1.969 . S
Zn576 O583 1.965 . S
Zn576 O587 2.024 . S
Zn576 O592 1.969 . S
Zn577 O584 1.969 . S
Zn577 O590 1.969 . S
Zn577 O591 1.965 . S
Zn577 O593 2.024 . S
C578 O579 1.229 . S
C578 O587 1.058 . S
O579 C578 1.229 . S
C580 O581 1.229 . S
C580 O593 1.058 . S
O581 C580 1.229 . S
O582 Zn576 1.969 . S
O582 C585 1.267 . S
O583 Zn576 1.965 . S
O583 C594 1.260 . S
O584 Zn577 1.969 . S
O584 C594 1.258 . S
C585 O582 1.267 . S
C585 O586 1.228 . S
O586 C585 1.228 . S
O587 Zn576 2.024 . S
O587 C578 1.058 . S
C588 O589 1.228 . S
C588 O590 1.267 . S
O589 C588 1.228 . S
O590 Zn577 1.969 . S
O590 C588 1.267 . S
O591 Zn577 1.965 . S
O591 C595 1.260 . S
O592 Zn576 1.969 . S
O592 C595 1.258 . S
O593 Zn577 2.024 . S
O593 C580 1.058 . S
C594 O583 1.260 . S
C594 O584 1.258 . S
C595 O591 1.260 . S
C595 O592 1.258 . S
Zn596 O602 1.969 . S
Zn596 O603 1.965 . S
Zn596 O607 2.024 . S
Zn596 O612 1.969 . S
Zn597 O604 1.969 . S
Zn597 O610 1.969 . S
Zn597 O611 1.965 . S
Zn597 O613 2.024 . S
C598 O599 1.229 . S
C598 O607 1.058 . S
O599 C598 1.229 . S
C600 O601 1.229 . S
C600 O613 1.058 . S
O601 C600 1.229 . S
O602 Zn596 1.969 . S
O602 C605 1.267 . S
O603 Zn596 1.965 . S
O603 C614 1.260 . S
O604 Zn597 1.969 . S
O604 C614 1.258 . S
C605 O602 1.267 . S
C605 O606 1.228 . S
O606 C605 1.228 . S
O607 Zn596 2.024 . S
O607 C598 1.058 . S
C608 O609 1.228 . S
C608 O610 1.267 . S
O609 C608 1.228 . S
O610 Zn597 1.969 . S
O610 C608 1.267 . S
O611 Zn597 1.965 . S
O611 C615 1.260 . S
O612 Zn596 1.969 . S
O612 C615 1.258 . S
O613 Zn597 2.024 . S
O613 C600 1.058 . S
C614 O603 1.260 . S
C614 O604 1.258 . S
C615 O611 1.260 . S
C615 O612 1.258 . S
Zn616 O622 1.969 . S
Zn616 O623 1.965 . S
Zn616 O627 2.024 . S
Zn616 O632 1.969 . S
Zn617 O624 1.969 . S
Zn617 O630 1.969 . S
Zn617 O631 1.965 . S
Zn617 O633 2.024 . S
C618 O619 1.229 . S
C618 O627 1.058 . S
O619 C618 1.229 . S
C620 O621 1.229 . S
C620 O633 1.058 . S
O621 C620 1.229 . S
O622 Zn616 1.969 . S
O622 C625 1.267 . S
O623 Zn616 1.965 . S
O623 C634 1.260 . S
O624 Zn617 1.969 . S
O624 C634 1.258 . S
C625 O622 1.267 . S
C625 O626 1.228 . S
O626 C625 1.228 . S
O627 Zn616 2.024 . S
O627 C618 1.058 . S
C628 O629 1.228 . S
C628 O630 1.267 . S
O629 C628 1.228 . S
O630 Zn617 1.969 . S
O630 C628 1.267 . S
O631 Zn617 1.965 . S
O631 C635 1.260 . S
O632 Zn616 1.969 . S
O632 C635 1.258 . S
O633 Zn617 2.024 . S
O633 C620 1.058 . S
C634 O623 1.260 . S
C634 O624 1.258 . S
C635 O631 1.260 . S
C635 O632 1.258 . S
Zn636 O642 1.969 . S
Zn636 O643 1.965 . S
Zn636 O647 2.024 1_655 S
Zn636 O652 1.969 1_655 S
Zn637 O644 1.969 1_554 S
Zn637 O650 1.969 . S
Zn637 O651 1.965 . S
Zn637 O653 2.024 . S
C638 O639 1.240 . S
C638 O647 1.058 . S
O639 C638 1.240 . S
C640 O641 1.229 1_554 S
C640 O653 1.058 . S
O641 C640 1.229 1_556 S
O642 Zn636 1.969 . S
O642 C645 1.267 . S
O643 Zn636 1.965 . S
O643 C654 1.260 1_654 S
O644 Zn637 1.969 1_556 S
O644 C654 1.258 . S
C645 O642 1.267 . S
C645 O646 1.228 . S
O646 C645 1.228 . S
O647 Zn636 2.024 1_455 S
O647 C638 1.058 . S
C648 O649 1.228 . S
C648 O650 1.267 . S
O649 C648 1.228 . S
O650 Zn637 1.969 . S
O650 C648 1.267 . S
O651 Zn637 1.965 . S
O651 C655 1.260 . S
O652 Zn636 1.969 1_455 S
O652 C655 1.258 . S
O653 Zn637 2.024 . S
O653 C640 1.058 . S
C654 O643 1.260 1_456 S
C654 O644 1.258 . S
C655 O651 1.260 . S
C655 O652 1.258 . S
H656 C664 0.929 . S
H657 C666 0.930 . S
H658 C668 0.930 . S
H659 C671 0.929 . S
H660 C674 0.930 . S
H661 C676 0.960 . S
H662 C676 0.960 . S
H663 C676 0.960 . S
C664 H656 0.929 . S
C664 C665 1.381 . S
C664 C666 1.384 . S
C665 C664 1.381 . S
C665 C671 1.385 1_655 S
C666 H657 0.930 . S
C666 C664 1.384 . S
C666 C667 1.372 1_655 S
C667 C666 1.372 1_455 S
C667 C668 1.400 . S
C667 C672 1.490 . S
C668 H658 0.930 . S
C668 C667 1.400 . S
C668 C671 1.386 . S
H669 C685 0.930 . S
H670 C686 0.931 . S
C671 H659 0.929 . S
C671 C665 1.385 1_455 S
C671 C668 1.386 . S
C672 C667 1.490 . S
C672 C674 1.395 1_455 S
C672 C675 1.403 . S
H673 C679 0.930 . S
C674 H660 0.930 . S
C674 C672 1.395 1_655 S
C674 C677 1.403 . S
C675 C672 1.403 . S
C675 C676 1.524 . S
C675 C679 1.400 . S
C676 H661 0.960 . S
C676 H662 0.960 . S
C676 H663 0.960 . S
C676 C675 1.524 . S
C677 C674 1.403 . S
C677 C678 1.392 1_655 S
C677 C681 1.495 . S
C678 C677 1.392 1_455 S
C678 C679 1.385 . S
C678 C680 1.478 . S
C679 H673 0.930 . S
C679 C675 1.400 . S
C679 C678 1.385 . S
C680 C678 1.478 . S
C680 C682 1.352 1_456 S
C680 C686 1.383 . S
C681 C677 1.495 . S
C681 H687 0.959 . S
C681 H688 0.961 . S
C681 H689 0.960 . S
C682 C680 1.352 1_654 S
C682 C683 1.414 1_655 S
C682 H690 0.940 . S
C683 C682 1.414 1_455 S
C683 C684 1.383 . S
C683 H691 0.929 1_455 S
C684 C683 1.383 . S
C684 C685 1.377 1_554 S
C685 H669 0.930 . S
C685 C684 1.377 1_556 S
C685 C686 1.379 . S
C686 H670 0.931 . S
C686 C680 1.383 . S
C686 C685 1.379 . S
H687 C681 0.959 . S
H688 C681 0.961 . S
H689 C681 0.960 . S
H690 C682 0.940 . S
H691 C683 0.929 1_655 S
H692 C700 0.929 . S
H693 C702 0.930 . S
H694 C704 0.930 . S
H695 C707 0.929 . S
H696 C710 0.930 . S
H697 C712 0.960 . S
H698 C712 0.960 . S
H699 C712 0.960 . S
C700 H692 0.929 . S
C700 C701 1.377 . S
C700 C702 1.384 . S
C701 C700 1.377 . S
C701 C707 1.390 . S
C702 H693 0.930 . S
C702 C700 1.384 . S
C702 C703 1.372 . S
C703 C702 1.372 . S
C703 C704 1.400 . S
C703 C708 1.490 . S
C704 H694 0.930 . S
C704 C703 1.400 . S
C704 C707 1.386 . S
H705 C721 0.930 . S
H706 C722 0.931 . S
C707 H695 0.929 . S
C707 C701 1.390 . S
C707 C704 1.386 . S
C708 C703 1.490 . S
C708 C710 1.395 . S
C708 C711 1.403 . S
H709 C715 0.930 . S
C710 H696 0.930 . S
C710 C708 1.395 . S
C710 C713 1.403 . S
C711 C708 1.403 . S
C711 C712 1.524 . S
C711 C715 1.400 . S
C712 H697 0.960 . S
C712 H698 0.960 . S
C712 H699 0.960 . S
C712 C711 1.524 . S
C713 C710 1.403 . S
C713 C714 1.392 . S
C713 C717 1.495 . S
C714 C713 1.392 . S
C714 C715 1.385 . S
C714 C716 1.478 . S
C715 H709 0.930 . S
C715 C711 1.400 . S
C715 C714 1.385 . S
C716 C714 1.478 . S
C716 C718 1.381 . S
C716 C722 1.383 . S
C717 C713 1.495 . S
C717 H723 0.959 . S
C717 H724 0.961 . S
C717 H725 0.960 . S
C718 C716 1.381 . S
C718 C719 1.394 . S
C718 H726 0.930 . S
C719 C718 1.394 . S
C719 C720 1.383 . S
C719 H727 0.929 . S
C720 C719 1.383 . S
C720 C721 1.377 . S
C721 H705 0.930 . S
C721 C720 1.377 . S
C721 C722 1.379 . S
C722 H706 0.931 . S
C722 C716 1.383 . S
C722 C721 1.379 . S
H723 C717 0.959 . S
H724 C717 0.961 . S
H725 C717 0.960 . S
H726 C718 0.930 . S
H727 C719 0.929 . S
H728 C736 0.929 . S
H729 C738 0.930 . S
H730 C740 0.930 . S
H731 C743 0.929 . S
H732 C746 0.930 . S
H733 C748 0.960 . S
H734 C748 0.960 . S
H735 C748 0.960 . S
C736 H728 0.929 . S
C736 C737 1.377 . S
C736 C738 1.384 . S
C737 C736 1.377 . S
C737 C743 1.390 . S
C738 H729 0.930 . S
C738 C736 1.384 . S
C738 C739 1.372 . S
C739 C738 1.372 . S
C739 C740 1.400 . S
C739 C744 1.490 . S
C740 H730 0.930 . S
C740 C739 1.400 . S
C740 C743 1.386 . S
H741 C757 0.930 . S
H742 C758 0.931 . S
C743 H731 0.929 . S
C743 C737 1.390 . S
C743 C740 1.386 . S
C744 C739 1.490 . S
C744 C746 1.395 . S
C744 C747 1.403 . S
H745 C751 0.930 . S
C746 H732 0.930 . S
C746 C744 1.395 . S
C746 C749 1.403 . S
C747 C744 1.403 . S
C747 C748 1.524 . S
C747 C751 1.400 . S
C748 H733 0.960 . S
C748 H734 0.960 . S
C748 H735 0.960 . S
C748 C747 1.524 . S
C749 C746 1.403 . S
C749 C750 1.392 . S
C749 C753 1.495 . S
C750 C749 1.392 . S
C750 C751 1.385 . S
C750 C752 1.478 . S
C751 H745 0.930 . S
C751 C747 1.400 . S
C751 C750 1.385 . S
C752 C750 1.478 . S
C752 C754 1.381 . S
C752 C758 1.383 . S
C753 C749 1.495 . S
C753 H759 0.959 . S
C753 H760 0.961 . S
C753 H761 0.960 . S
C754 C752 1.381 . S
C754 C755 1.394 . S
C754 H762 0.930 . S
C755 C754 1.394 . S
C755 C756 1.383 . S
C755 H763 0.929 . S
C756 C755 1.383 . S
C756 C757 1.377 . S
C757 H741 0.930 . S
C757 C756 1.377 . S
C757 C758 1.379 . S
C758 H742 0.931 . S
C758 C752 1.383 . S
C758 C757 1.379 . S
H759 C753 0.959 . S
H760 C753 0.961 . S
H761 C753 0.960 . S
H762 C754 0.930 . S
H763 C755 0.929 . S
H764 C772 0.929 . S
H765 C774 0.930 . S
H766 C776 0.930 . S
H767 C779 0.929 . S
H768 C782 0.930 . S
H769 C784 0.960 . S
H770 C784 0.960 . S
H771 C784 0.960 . S
C772 H764 0.929 . S
C772 C773 1.377 . S
C772 C774 1.384 . S
C773 C772 1.377 . S
C773 C779 1.390 . S
C774 H765 0.930 . S
C774 C772 1.384 . S
C774 C775 1.372 . S
C775 C774 1.372 . S
C775 C776 1.400 . S
C775 C780 1.490 . S
C776 H766 0.930 . S
C776 C775 1.400 . S
C776 C779 1.386 . S
H777 C793 0.930 . S
H778 C794 0.931 . S
C779 H767 0.929 . S
C779 C773 1.390 . S
C779 C776 1.386 . S
C780 C775 1.490 . S
C780 C782 1.395 . S
C780 C783 1.403 . S
H781 C787 0.930 . S
C782 H768 0.930 . S
C782 C780 1.395 . S
C782 C785 1.403 . S
C783 C780 1.403 . S
C783 C784 1.524 . S
C783 C787 1.400 . S
C784 H769 0.960 . S
C784 H770 0.960 . S
C784 H771 0.960 . S
C784 C783 1.524 . S
C785 C782 1.403 . S
C785 C786 1.392 . S
C785 C789 1.495 . S
C786 C785 1.392 . S
C786 C787 1.385 . S
C786 C788 1.478 . S
C787 H781 0.930 . S
C787 C783 1.400 . S
C787 C786 1.385 . S
C788 C786 1.478 . S
C788 C790 1.381 . S
C788 C794 1.383 . S
C789 C785 1.495 . S
C789 H795 0.959 . S
C789 H796 0.961 . S
C789 H797 0.960 . S
C790 C788 1.381 . S
C790 C791 1.394 . S
C790 H798 0.930 . S
C791 C790 1.394 . S
C791 C792 1.383 . S
C791 H799 0.929 . S
C792 C791 1.383 . S
C792 C793 1.377 . S
C793 H777 0.930 . S
C793 C792 1.377 . S
C793 C794 1.379 . S
C794 H778 0.931 . S
C794 C788 1.383 . S
C794 C793 1.379 . S
H795 C789 0.959 . S
H796 C789 0.961 . S
H797 C789 0.960 . S
H798 C790 0.930 . S
H799 C791 0.929 . S
H800 C808 0.929 . S
H801 C810 0.930 . S
H802 C812 0.930 . S
H803 C815 0.929 . S
H804 C818 0.930 . S
H805 C820 0.960 . S
H806 C820 0.960 . S
H807 C820 0.960 . S
C808 H800 0.929 . S
C808 C809 1.377 . S
C808 C810 1.384 . S
C809 C808 1.377 . S
C809 C815 1.390 1_455 S
C810 H801 0.930 . S
C810 C808 1.384 . S
C810 C811 1.372 . S
C811 C810 1.372 . S
C811 C812 1.400 1_455 S
C811 C816 1.490 . S
C812 H802 0.930 . S
C812 C811 1.400 1_655 S
C812 C815 1.386 . S
H813 C829 0.930 1_655 S
H814 C830 0.931 1_655 S
C815 H803 0.929 . S
C815 C809 1.390 1_655 S
C815 C812 1.386 . S
C816 C811 1.490 . S
C816 C818 1.395 . S
C816 C819 1.403 . S
H817 C823 0.930 1_655 S
C818 H804 0.930 . S
C818 C816 1.395 . S
C818 C821 1.403 . S
C819 C816 1.403 . S
C819 C820 1.524 1_455 S
C819 C823 1.400 . S
C820 H805 0.960 . S
C820 H806 0.960 . S
C820 H807 0.960 . S
C820 C819 1.524 1_655 S
C821 C818 1.403 . S
C821 C822 1.392 . S
C821 C825 1.495 . S
C822 C821 1.392 . S
C822 C823 1.385 . S
C822 C824 1.478 . S
C823 H817 0.930 1_455 S
C823 C819 1.400 . S
C823 C822 1.385 . S
C824 C822 1.478 . S
C824 C826 1.381 . S
C824 C830 1.383 . S
C825 C821 1.495 . S
C825 H831 0.959 . S
C825 H832 0.961 . S
C825 H833 0.960 . S
C826 C824 1.381 . S
C826 C827 1.394 . S
C826 H834 0.930 . S
C827 C826 1.394 . S
C827 C828 1.383 . S
C827 H835 0.929 . S
C828 C827 1.383 . S
C828 C829 1.377 . S
C829 H813 0.930 1_455 S
C829 C828 1.377 . S
C829 C830 1.379 . S
C830 H814 0.931 1_455 S
C830 C824 1.383 . S
C830 C829 1.379 . S
H831 C825 0.959 . S
H832 C825 0.961 . S
H833 C825 0.960 . S
H834 C826 0.930 . S
H835 C827 0.929 . S
H836 C844 0.929 . S
H837 C846 0.930 . S
H838 C848 0.930 . S
H839 C851 0.929 . S
H840 C854 0.930 . S
H841 C856 0.960 . S
H842 C856 0.960 . S
H843 C856 0.960 . S
C844 H836 0.929 . S
C844 C845 1.377 . S
C844 C846 1.384 . S
C845 C844 1.377 . S
C845 C851 1.390 . S
C846 H837 0.930 . S
C846 C844 1.384 . S
C846 C847 1.372 . S
C847 C846 1.372 . S
C847 C848 1.400 . S
C847 C852 1.490 . S
C848 H838 0.930 . S
C848 C847 1.400 . S
C848 C851 1.386 . S
H849 C865 0.930 . S
H850 C866 0.931 . S
C851 H839 0.929 . S
C851 C845 1.390 . S
C851 C848 1.386 . S
C852 C847 1.490 . S
C852 C854 1.395 . S
C852 C855 1.403 . S
H853 C859 0.930 . S
C854 H840 0.930 . S
C854 C852 1.395 . S
C854 C857 1.403 . S
C855 C852 1.403 . S
C855 C856 1.524 . S
C855 C859 1.400 . S
C856 H841 0.960 . S
C856 H842 0.960 . S
C856 H843 0.960 . S
C856 C855 1.524 . S
C857 C854 1.403 . S
C857 C858 1.392 . S
C857 C861 1.495 . S
C858 C857 1.392 . S
C858 C859 1.385 . S
C858 C860 1.478 . S
C859 H853 0.930 . S
C859 C855 1.400 . S
C859 C858 1.385 . S
C860 C858 1.478 . S
C860 C862 1.381 . S
C860 C866 1.383 . S
C861 C857 1.495 . S
C861 H867 0.959 . S
C861 H868 0.961 . S
C861 H869 0.960 . S
C862 C860 1.381 . S
C862 C863 1.394 . S
C862 H870 0.930 . S
C863 C862 1.394 . S
C863 C864 1.383 . S
C863 H871 0.929 . S
C864 C863 1.383 . S
C864 C865 1.377 . S
C865 H849 0.930 . S
C865 C864 1.377 . S
C865 C866 1.379 . S
C866 H850 0.931 . S
C866 C860 1.383 . S
C866 C865 1.379 . S
H867 C861 0.959 . S
H868 C861 0.961 . S
H869 C861 0.960 . S
H870 C862 0.930 . S
H871 C863 0.929 . S
H872 C880 0.929 . S
H873 C882 0.930 . S
H874 C884 0.930 . S
H875 C887 0.929 . S
H876 C890 0.930 . S
H877 C892 0.960 . S
H878 C892 0.960 . S
H879 C892 0.960 . S
C880 H872 0.929 . S
C880 C881 1.377 . S
C880 C882 1.384 . S
C881 C880 1.377 . S
C881 C887 1.390 . S
C882 H873 0.930 . S
C882 C880 1.384 . S
C882 C883 1.372 . S
C883 C882 1.372 . S
C883 C884 1.400 . S
C883 C888 1.490 . S
C884 H874 0.930 . S
C884 C883 1.400 . S
C884 C887 1.386 . S
H885 C901 0.930 . S
H886 C902 0.931 . S
C887 H875 0.929 . S
C887 C881 1.390 . S
C887 C884 1.386 . S
C888 C883 1.490 . S
C888 C890 1.395 . S
C888 C891 1.403 . S
H889 C895 0.930 . S
C890 H876 0.930 . S
C890 C888 1.395 . S
C890 C893 1.403 . S
C891 C888 1.403 . S
C891 C892 1.524 . S
C891 C895 1.400 . S
C892 H877 0.960 . S
C892 H878 0.960 . S
C892 H879 0.960 . S
C892 C891 1.524 . S
C893 C890 1.403 . S
C893 C894 1.392 . S
C893 C897 1.495 . S
C894 C893 1.392 . S
C894 C895 1.385 . S
C894 C896 1.478 . S
C895 H889 0.930 . S
C895 C891 1.400 . S
C895 C894 1.385 . S
C896 C894 1.478 . S
C896 C898 1.381 . S
C896 C902 1.383 . S
C897 C893 1.495 . S
C897 H903 0.959 . S
C897 H904 0.961 . S
C897 H905 0.960 . S
C898 C896 1.381 . S
C898 C899 1.394 . S
C898 H906 0.930 . S
C899 C898 1.394 . S
C899 C900 1.383 . S
C899 H907 0.929 . S
C900 C899 1.383 . S
C900 C901 1.377 . S
C901 H885 0.930 . S
C901 C900 1.377 . S
C901 C902 1.379 . S
C902 H886 0.931 . S
C902 C896 1.383 . S
C902 C901 1.379 . S
H903 C897 0.959 . S
H904 C897 0.961 . S
H905 C897 0.960 . S
H906 C898 0.930 . S
H907 C899 0.929 . S
H908 C916 0.929 . S
H909 C918 0.930 . S
H910 C920 0.930 . S
H911 C923 0.929 . S
H912 C926 0.930 . S
H913 C928 0.960 . S
H914 C928 0.960 . S
H915 C928 0.960 . S
C916 H908 0.929 . S
C916 C917 1.377 . S
C916 C918 1.384 . S
C917 C916 1.377 . S
C917 C923 1.390 . S
C918 H909 0.930 . S
C918 C916 1.384 . S
C918 C919 1.372 . S
C919 C918 1.372 . S
C919 C920 1.400 . S
C919 C924 1.490 . S
C920 H910 0.930 . S
C920 C919 1.400 . S
C920 C923 1.386 . S
H921 C937 0.930 . S
H922 C938 0.931 . S
C923 H911 0.929 . S
C923 C917 1.390 . S
C923 C920 1.386 . S
C924 C919 1.490 . S
C924 C926 1.395 . S
C924 C927 1.403 . S
H925 C931 0.930 . S
C926 H912 0.930 . S
C926 C924 1.395 . S
C926 C929 1.403 . S
C927 C924 1.403 . S
C927 C928 1.524 . S
C927 C931 1.400 . S
C928 H913 0.960 . S
C928 H914 0.960 . S
C928 H915 0.960 . S
C928 C927 1.524 . S
C929 C926 1.403 . S
C929 C930 1.392 . S
C929 C933 1.495 . S
C930 C929 1.392 . S
C930 C931 1.385 . S
C930 C932 1.478 . S
C931 H925 0.930 . S
C931 C927 1.400 . S
C931 C930 1.385 . S
C932 C930 1.478 . S
C932 C934 1.381 . S
C932 C938 1.383 . S
C933 C929 1.495 . S
C933 H939 0.959 . S
C933 H940 0.961 . S
C933 H941 0.960 . S
C934 C932 1.381 . S
C934 C935 1.394 . S
C934 H942 0.930 . S
C935 C934 1.394 . S
C935 C936 1.383 . S
C935 H943 0.929 . S
C936 C935 1.383 . S
C936 C937 1.377 . S
C937 H921 0.930 . S
C937 C936 1.377 . S
C937 C938 1.379 . S
C938 H922 0.931 . S
C938 C932 1.383 . S
C938 C937 1.379 . S
H939 C933 0.959 . S
H940 C933 0.961 . S
H941 C933 0.960 . S
H942 C934 0.930 . S
H943 C935 0.929 . S
H944 C952 0.929 1_565 S
H945 C954 0.930 1_565 S
H946 C956 0.930 . S
H947 C959 0.929 . S
H948 C962 0.930 . S
H949 C964 0.960 . S
H950 C964 0.960 1_565 S
H951 C964 0.960 . S
C952 H944 0.929 1_545 S
C952 C953 1.377 . S
C952 C954 1.384 . S
C953 C952 1.377 . S
C953 C959 1.390 . S
C954 H945 0.930 1_545 S
C954 C952 1.384 . S
C954 C955 1.372 . S
C955 C954 1.372 . S
C955 C956 1.400 . S
C955 C960 1.490 . S
C956 H946 0.930 . S
C956 C955 1.400 . S
C956 C959 1.386 . S
H957 C973 0.930 . S
H958 C974 0.931 . S
C959 H947 0.929 . S
C959 C953 1.390 . S
C959 C956 1.386 . S
C960 C955 1.490 . S
C960 C962 1.395 . S
C960 C963 1.403 . S
H961 C967 0.930 . S
C962 H948 0.930 . S
C962 C960 1.395 . S
C962 C965 1.403 . S
C963 C960 1.403 . S
C963 C964 1.524 . S
C963 C967 1.400 . S
C964 H949 0.960 . S
C964 H950 0.960 1_545 S
C964 H951 0.960 . S
C964 C963 1.524 . S
C965 C962 1.403 . S
C965 C966 1.392 . S
C965 C969 1.495 . S
C966 C965 1.392 . S
C966 C967 1.385 . S
C966 C968 1.478 . S
C967 H961 0.930 . S
C967 C963 1.400 . S
C967 C966 1.385 . S
C968 C966 1.478 . S
C968 C970 1.381 . S
C968 C974 1.383 . S
C969 C965 1.495 . S
C969 H975 0.959 . S
C969 H976 0.961 . S
C969 H977 0.960 . S
C970 C968 1.381 . S
C970 C971 1.394 . S
C970 H978 0.930 1_545 S
C971 C970 1.394 . S
C971 C972 1.383 . S
C971 H979 0.929 1_545 S
C972 C971 1.383 . S
C972 C973 1.377 1_655 S
C973 H957 0.930 . S
C973 C972 1.377 1_455 S
C973 C974 1.379 1_455 S
C974 H958 0.931 . S
C974 C968 1.383 . S
C974 C973 1.379 1_655 S
H975 C969 0.959 . S
H976 C969 0.961 . S
H977 C969 0.960 . S
H978 C970 0.930 1_565 S
H979 C971 0.929 1_565 S
H980 C988 0.929 . S
H981 C990 0.930 . S
H982 C992 0.930 . S
H983 C995 0.929 . S
H984 C998 0.930 . S
H985 C1000 0.960 . S
H986 C1000 0.960 . S
H987 C1000 0.960 . S
C988 H980 0.929 . S
C988 C989 1.377 . S
C988 C990 1.384 . S
C989 C988 1.377 . S
C989 C995 1.390 . S
C990 H981 0.930 . S
C990 C988 1.384 . S
C990 C991 1.372 . S
C991 C990 1.372 . S
C991 C992 1.400 . S
C991 C996 1.490 . S
C992 H982 0.930 . S
C992 C991 1.400 . S
C992 C995 1.386 . S
H993 C1009 0.930 . S
H994 C1010 0.931 . S
C995 H983 0.929 . S
C995 C989 1.390 . S
C995 C992 1.386 . S
C996 C991 1.490 . S
C996 C998 1.395 . S
C996 C999 1.403 . S
H997 C1003 0.930 . S
C998 H984 0.930 . S
C998 C996 1.395 . S
C998 C1001 1.403 . S
C999 C996 1.403 . S
C999 C1000 1.524 . S
C999 C1003 1.400 . S
C1000 H985 0.960 . S
C1000 H986 0.960 . S
C1000 H987 0.960 . S
C1000 C999 1.524 . S
C1001 C998 1.403 . S
C1001 C1002 1.392 . S
C1001 C1005 1.495 . S
C1002 C1001 1.392 . S
C1002 C1003 1.385 . S
C1002 C1004 1.478 . S
C1003 H997 0.930 . S
C1003 C999 1.400 . S
C1003 C1002 1.385 . S
C1004 C1002 1.478 . S
C1004 C1006 1.381 . S
C1004 C1010 1.383 . S
C1005 C1001 1.495 . S
C1005 H1011 0.959 . S
C1005 H1012 0.961 . S
C1005 H1013 0.960 . S
C1006 C1004 1.381 . S
C1006 C1007 1.394 . S
C1006 H1014 0.930 . S
C1007 C1006 1.394 . S
C1007 C1008 1.383 . S
C1007 H1015 0.929 . S
C1008 C1007 1.383 . S
C1008 C1009 1.377 . S
C1009 H993 0.930 . S
C1009 C1008 1.377 . S
C1009 C1010 1.379 . S
C1010 H994 0.931 . S
C1010 C1004 1.383 . S
C1010 C1009 1.379 . S
H1011 C1005 0.959 . S
H1012 C1005 0.961 . S
H1013 C1005 0.960 . S
H1014 C1006 0.930 . S
H1015 C1007 0.929 . S
H1016 C1024 0.929 . S
H1017 C1026 0.930 . S
H1018 C1028 0.930 . S
H1019 C1031 0.929 . S
H1020 C1034 0.930 . S
H1021 C1036 0.960 . S
H1022 C1036 0.918 1_545 S
H1023 C1036 0.960 . S
C1024 H1016 0.929 . S
C1024 C1025 1.377 1_545 S
C1024 C1026 1.384 . S
C1025 C1024 1.377 1_565 S
C1025 C1031 1.390 . S
C1026 H1017 0.930 . S
C1026 C1024 1.384 . S
C1026 C1027 1.357 1_545 S
C1027 C1026 1.357 1_565 S
C1027 C1028 1.419 . S
C1027 C1032 1.480 1_565 S
C1028 H1018 0.930 . S
C1028 C1027 1.419 . S
C1028 C1031 1.386 . S
H1029 C1045 0.930 . S
H1030 C1046 0.931 . S
C1031 H1019 0.929 . S
C1031 C1025 1.390 . S
C1031 C1028 1.386 . S
C1032 C1027 1.480 1_545 S
C1032 C1034 1.404 . S
C1032 C1035 1.401 1_545 S
H1033 C1039 0.930 . S
C1034 H1020 0.930 . S
C1034 C1032 1.404 . S
C1034 C1037 1.403 . S
C1035 C1032 1.401 1_565 S
C1035 C1036 1.524 . S
C1035 C1039 1.400 . S
C1036 H1021 0.960 . S
C1036 H1022 0.918 1_565 S
C1036 H1023 0.960 . S
C1036 C1035 1.524 . S
C1037 C1034 1.403 . S
C1037 C1038 1.392 . S
C1037 C1041 1.495 . S
C1038 C1037 1.392 . S
C1038 C1039 1.385 1_545 S
C1038 C1040 1.478 . S
C1039 H1033 0.930 . S
C1039 C1035 1.400 . S
C1039 C1038 1.385 1_565 S
C1040 C1038 1.478 . S
C1040 C1042 1.381 . S
C1040 C1046 1.383 1_545 S
C1041 C1037 1.495 . S
C1041 H1047 0.959 . S
C1041 H1048 0.961 . S
C1041 H1049 0.960 . S
C1042 C1040 1.381 . S
C1042 C1043 1.394 . S
C1042 H1050 0.930 . S
C1043 C1042 1.394 . S
C1043 C1044 1.383 . S
C1043 H1051 0.929 . S
C1044 C1043 1.383 . S
C1044 C1045 1.377 1_545 S
C1045 H1029 0.930 . S
C1045 C1044 1.377 1_565 S
C1045 C1046 1.379 . S
C1046 H1030 0.931 . S
C1046 C1040 1.383 1_565 S
C1046 C1045 1.379 . S
H1047 C1041 0.959 . S
H1048 C1041 0.961 . S
H1049 C1041 0.960 . S
H1050 C1042 0.930 . S
H1051 C1043 0.929 . S
H1052 C1060 0.929 . S
H1053 C1062 0.930 . S
H1054 C1064 0.930 . S
H1055 C1067 0.929 . S
H1056 C1070 0.930 . S
H1057 C1072 0.960 . S
H1058 C1072 0.960 . S
H1059 C1072 0.960 . S
C1060 H1052 0.929 . S
C1060 C1061 1.377 . S
C1060 C1062 1.384 . S
C1061 C1060 1.377 . S
C1061 C1067 1.390 . S
C1062 H1053 0.930 . S
C1062 C1060 1.384 . S
C1062 C1063 1.372 . S
C1063 C1062 1.372 . S
C1063 C1064 1.400 . S
C1063 C1068 1.490 . S
C1064 H1054 0.930 . S
C1064 C1063 1.400 . S
C1064 C1067 1.386 . S
H1065 C1081 0.930 . S
H1066 C1082 0.931 . S
C1067 H1055 0.929 . S
C1067 C1061 1.390 . S
C1067 C1064 1.386 . S
C1068 C1063 1.490 . S
C1068 C1070 1.395 . S
C1068 C1071 1.403 . S
H1069 C1075 0.930 . S
C1070 H1056 0.930 . S
C1070 C1068 1.395 . S
C1070 C1073 1.403 . S
C1071 C1068 1.403 . S
C1071 C1072 1.524 . S
C1071 C1075 1.400 . S
C1072 H1057 0.960 . S
C1072 H1058 0.960 . S
C1072 H1059 0.960 . S
C1072 C1071 1.524 . S
C1073 C1070 1.403 . S
C1073 C1074 1.392 . S
C1073 C1077 1.495 . S
C1074 C1073 1.392 . S
C1074 C1075 1.385 . S
C1074 C1076 1.478 . S
C1075 H1069 0.930 . S
C1075 C1071 1.400 . S
C1075 C1074 1.385 . S
C1076 C1074 1.478 . S
C1076 C1078 1.381 . S
C1076 C1082 1.383 . S
C1077 C1073 1.495 . S
C1077 H1083 0.959 . S
C1077 H1084 0.961 . S
C1077 H1085 0.960 . S
C1078 C1076 1.381 . S
C1078 C1079 1.394 . S
C1078 H1086 0.930 . S
C1079 C1078 1.394 . S
C1079 C1080 1.383 . S
C1079 H1087 0.929 . S
C1080 C1079 1.383 . S
C1080 C1081 1.377 . S
C1081 H1065 0.930 . S
C1081 C1080 1.377 . S
C1081 C1082 1.379 . S
C1082 H1066 0.931 . S
C1082 C1076 1.383 . S
C1082 C1081 1.379 . S
H1083 C1077 0.959 . S
H1084 C1077 0.961 . S
H1085 C1077 0.960 . S
H1086 C1078 0.930 . S
H1087 C1079 0.929 . S
H1088 C1096 0.929 . S
H1089 C1098 0.930 . S
H1090 C1100 0.952 . S
H1091 C1103 0.930 1_565 S
H1092 C1106 0.930 . S
H1093 C1108 0.960 . S
H1094 C1108 0.960 . S
H1095 C1108 0.960 . S
C1096 H1088 0.929 . S
C1096 C1097 1.377 . S
C1096 C1098 1.384 . S
C1097 C1096 1.377 . S
C1097 C1103 1.389 . S
C1098 H1089 0.930 . S
C1098 C1096 1.384 . S
C1098 C1099 1.372 . S
C1099 C1098 1.372 . S
C1099 C1100 1.383 1_545 S
C1099 C1104 1.490 . S
C1100 H1090 0.952 . S
C1100 C1099 1.383 1_565 S
C1100 C1103 1.381 1_565 S
H1101 C1117 0.930 . S
H1102 C1118 0.931 . S
C1103 H1091 0.930 1_545 S
C1103 C1097 1.389 . S
C1103 C1100 1.381 1_545 S
C1104 C1099 1.490 . S
C1104 C1106 1.395 . S
C1104 C1107 1.443 . S
H1105 C1111 0.930 1_565 S
C1106 H1092 0.930 . S
C1106 C1104 1.395 . S
C1106 C1109 1.403 . S
C1107 C1104 1.443 . S
C1107 C1108 1.492 1_545 S
C1107 C1111 1.395 . S
C1108 H1093 0.960 . S
C1108 H1094 0.960 . S
C1108 H1095 0.960 . S
C1108 C1107 1.492 1_565 S
C1109 C1106 1.403 . S
C1109 C1110 1.392 . S
C1109 C1113 1.495 . S
C1110 C1109 1.392 . S
C1110 C1111 1.385 . S
C1110 C1112 1.478 . S
C1111 H1105 0.930 1_545 S
C1111 C1107 1.395 . S
C1111 C1110 1.385 . S
C1112 C1110 1.478 . S
C1112 C1114 1.381 . S
C1112 C1118 1.383 1_545 S
C1113 C1109 1.495 . S
C1113 H1119 0.959 . S
C1113 H1120 0.961 . S
C1113 H1121 0.960 . S
C1114 C1112 1.381 . S
C1114 C1115 1.394 . S
C1114 H1122 0.930 . S
C1115 C1114 1.394 . S
C1115 C1116 1.383 . S
C1115 H1123 0.929 1_655 S
C1116 C1115 1.383 . S
C1116 C1117 1.377 1_545 S
C1117 H1101 0.930 . S
C1117 C1116 1.377 1_565 S
C1117 C1118 1.379 . S
C1118 H1102 0.931 . S
C1118 C1112 1.383 1_565 S
C1118 C1117 1.379 . S
H1119 C1113 0.959 . S
H1120 C1113 0.961 . S
H1121 C1113 0.960 . S
H1122 C1114 0.930 . S
H1123 C1115 0.929 1_455 S
H1124 C1132 0.929 . S
H1125 C1134 0.930 . S
H1126 C1136 0.930 . S
H1127 C1139 0.929 . S
H1128 C1142 0.930 . S
H1129 C1144 0.960 . S
H1130 C1144 0.960 . S
H1131 C1144 0.960 . S
C1132 H1124 0.929 . S
C1132 C1133 1.377 . S
C1132 C1134 1.384 . S
C1133 C1132 1.377 . S
C1133 C1139 1.390 . S
C1134 H1125 0.930 . S
C1134 C1132 1.384 . S
C1134 C1135 1.372 . S
C1135 C1134 1.372 . S
C1135 C1136 1.400 . S
C1135 C1140 1.490 . S
C1136 H1126 0.930 . S
C1136 C1135 1.400 . S
C1136 C1139 1.386 . S
H1137 C1153 0.930 . S
H1138 C1154 0.931 . S
C1139 H1127 0.929 . S
C1139 C1133 1.390 . S
C1139 C1136 1.386 . S
C1140 C1135 1.490 . S
C1140 C1142 1.395 . S
C1140 C1143 1.403 . S
H1141 C1147 0.930 . S
C1142 H1128 0.930 . S
C1142 C1140 1.395 . S
C1142 C1145 1.403 . S
C1143 C1140 1.403 . S
C1143 C1144 1.524 . S
C1143 C1147 1.400 . S
C1144 H1129 0.960 . S
C1144 H1130 0.960 . S
C1144 H1131 0.960 . S
C1144 C1143 1.524 . S
C1145 C1142 1.403 . S
C1145 C1146 1.392 . S
C1145 C1149 1.495 . S
C1146 C1145 1.392 . S
C1146 C1147 1.385 . S
C1146 C1148 1.478 . S
C1147 H1141 0.930 . S
C1147 C1143 1.400 . S
C1147 C1146 1.385 . S
C1148 C1146 1.478 . S
C1148 C1150 1.381 . S
C1148 C1154 1.383 . S
C1149 C1145 1.495 . S
C1149 H1155 0.959 . S
C1149 H1156 0.961 . S
C1149 H1157 0.960 . S
C1150 C1148 1.381 . S
C1150 C1151 1.394 . S
C1150 H1158 0.930 . S
C1151 C1150 1.394 . S
C1151 C1152 1.383 . S
C1151 H1159 0.929 . S
C1152 C1151 1.383 . S
C1152 C1153 1.377 . S
C1153 H1137 0.930 . S
C1153 C1152 1.377 . S
C1153 C1154 1.379 . S
C1154 H1138 0.931 . S
C1154 C1148 1.383 . S
C1154 C1153 1.379 . S
H1155 C1149 0.959 . S
H1156 C1149 0.961 . S
H1157 C1149 0.960 . S
H1158 C1150 0.930 . S
H1159 C1151 0.929 . S
H1160 C1168 0.929 . S
H1161 C1170 0.930 . S
H1162 C1172 0.930 . S
H1163 C1175 0.929 . S
H1164 C1178 0.930 . S
H1165 C1180 0.978 . S
H1166 C1180 0.925 1_545 S
H1167 C1180 1.007 . S
C1168 H1160 0.929 . S
C1168 C1169 1.377 . S
C1168 C1170 1.384 . S
C1169 C1168 1.377 . S
C1169 C1175 1.390 1_545 S
C1170 H1161 0.930 . S
C1170 C1168 1.384 . S
C1170 C1171 1.372 . S
C1171 C1170 1.372 . S
C1171 C1172 1.400 1_545 S
C1171 C1176 1.490 . S
C1172 H1162 0.930 . S
C1172 C1171 1.400 1_565 S
C1172 C1175 1.386 . S
H1173 C1189 0.930 1_565 S
H1174 C1190 0.931 1_565 S
C1175 H1163 0.929 . S
C1175 C1169 1.390 1_565 S
C1175 C1172 1.386 . S
C1176 C1171 1.490 . S
C1176 C1178 1.395 . S
C1176 C1179 1.403 . S
H1177 C1183 0.930 . S
C1178 H1164 0.930 . S
C1178 C1176 1.395 . S
C1178 C1181 1.403 . S
C1179 C1176 1.403 . S
C1179 C1180 1.497 1_545 S
C1179 C1183 1.400 . S
C1180 H1165 0.978 . S
C1180 H1166 0.925 1_565 S
C1180 H1167 1.007 . S
C1180 C1179 1.497 1_565 S
C1181 C1178 1.403 . S
C1181 C1182 1.392 . S
C1181 C1185 1.495 . S
C1182 C1181 1.392 . S
C1182 C1183 1.385 . S
C1182 C1184 1.478 . S
C1183 H1177 0.930 . S
C1183 C1179 1.400 . S
C1183 C1182 1.385 . S
C1184 C1182 1.478 . S
C1184 C1186 1.381 . S
C1184 C1190 1.383 . S
C1185 C1181 1.495 . S
C1185 H1191 0.959 . S
C1185 H1192 0.961 . S
C1185 H1193 0.960 . S
C1186 C1184 1.381 . S
C1186 C1187 1.394 . S
C1186 H1194 0.930 . S
C1187 C1186 1.394 . S
C1187 C1188 1.383 . S
C1187 H1195 0.929 . S
C1188 C1187 1.383 . S
C1188 C1189 1.377 . S
C1189 H1173 0.930 1_545 S
C1189 C1188 1.377 . S
C1189 C1190 1.379 . S
C1190 H1174 0.931 1_545 S
C1190 C1184 1.383 . S
C1190 C1189 1.379 . S
H1191 C1185 0.959 . S
H1192 C1185 0.961 . S
H1193 C1185 0.960 . S
H1194 C1186 0.930 . S
H1195 C1187 0.929 . S
H1196 C1204 0.929 . S
H1197 C1206 0.930 . S
H1198 C1208 0.930 . S
H1199 C1211 0.929 . S
H1200 C1214 0.930 . S
H1201 C1216 0.960 . S
H1202 C1216 0.960 . S
H1203 C1216 0.960 . S
C1204 H1196 0.929 . S
C1204 C1205 1.377 . S
C1204 C1206 1.384 . S
C1205 C1204 1.377 . S
C1205 C1211 1.390 . S
C1206 H1197 0.930 . S
C1206 C1204 1.384 . S
C1206 C1207 1.372 . S
C1207 C1206 1.372 . S
C1207 C1208 1.400 . S
C1207 C1212 1.490 . S
C1208 H1198 0.930 . S
C1208 C1207 1.400 . S
C1208 C1211 1.386 . S
H1209 C1225 0.930 . S
H1210 C1226 0.931 . S
C1211 H1199 0.929 . S
C1211 C1205 1.390 . S
C1211 C1208 1.386 . S
C1212 C1207 1.490 . S
C1212 C1214 1.395 . S
C1212 C1215 1.403 . S
H1213 C1219 0.930 . S
C1214 H1200 0.930 . S
C1214 C1212 1.395 . S
C1214 C1217 1.403 . S
C1215 C1212 1.403 . S
C1215 C1216 1.524 . S
C1215 C1219 1.400 . S
C1216 H1201 0.960 . S
C1216 H1202 0.960 . S
C1216 H1203 0.960 . S
C1216 C1215 1.524 . S
C1217 C1214 1.403 . S
C1217 C1218 1.392 . S
C1217 C1221 1.495 . S
C1218 C1217 1.392 . S
C1218 C1219 1.385 . S
C1218 C1220 1.478 . S
C1219 H1213 0.930 . S
C1219 C1215 1.400 . S
C1219 C1218 1.385 . S
C1220 C1218 1.478 . S
C1220 C1222 1.381 . S
C1220 C1226 1.383 . S
C1221 C1217 1.495 . S
C1221 H1227 0.959 . S
C1221 H1228 0.961 . S
C1221 H1229 0.960 . S
C1222 C1220 1.381 . S
C1222 C1223 1.394 . S
C1222 H1230 0.930 . S
C1223 C1222 1.394 . S
C1223 C1224 1.383 . S
C1223 H1231 0.929 . S
C1224 C1223 1.383 . S
C1224 C1225 1.377 . S
C1225 H1209 0.930 . S
C1225 C1224 1.377 . S
C1225 C1226 1.379 . S
C1226 H1210 0.931 . S
C1226 C1220 1.383 . S
C1226 C1225 1.379 . S
H1227 C1221 0.959 . S
H1228 C1221 0.961 . S
H1229 C1221 0.960 . S
H1230 C1222 0.930 . S
H1231 C1223 0.929 . S
H1232 C1240 0.903 1_556 S
H1233 C1242 0.930 . S
H1234 C1244 0.930 . S
H1235 C1247 0.929 . S
H1236 C1250 0.930 . S
H1237 C1252 0.960 . S
H1238 C1252 0.960 1_556 S
H1239 C1252 0.960 . S
C1240 H1232 0.903 1_554 S
C1240 C1241 1.377 . S
C1240 C1242 1.384 . S
C1241 C1240 1.377 . S
C1241 C1247 1.390 . S
C1242 H1233 0.930 . S
C1242 C1240 1.384 . S
C1242 C1243 1.372 . S
C1243 C1242 1.372 . S
C1243 C1244 1.400 . S
C1243 C1248 1.490 . S
C1244 H1234 0.930 . S
C1244 C1243 1.400 . S
C1244 C1247 1.386 . S
H1245 C1261 0.943 . S
H1246 C1262 0.931 . S
C1247 H1235 0.929 . S
C1247 C1241 1.390 . S
C1247 C1244 1.386 . S
C1248 C1243 1.490 . S
C1248 C1250 1.395 . S
C1248 C1251 1.403 . S
H1249 C1255 0.930 . S
C1250 H1236 0.930 . S
C1250 C1248 1.395 . S
C1250 C1253 1.403 . S
C1251 C1248 1.403 . S
C1251 C1252 1.524 . S
C1251 C1255 1.400 . S
C1252 H1237 0.960 . S
C1252 H1238 0.960 1_554 S
C1252 H1239 0.960 . S
C1252 C1251 1.524 . S
C1253 C1250 1.403 . S
C1253 C1254 1.392 . S
C1253 C1257 1.495 . S
C1254 C1253 1.392 . S
C1254 C1255 1.385 . S
C1254 C1256 1.478 . S
C1255 H1249 0.930 . S
C1255 C1251 1.400 . S
C1255 C1254 1.385 . S
C1256 C1254 1.478 . S
C1256 C1258 1.381 . S
C1256 C1262 1.383 . S
C1257 C1253 1.495 . S
C1257 H1263 0.959 . S
C1257 H1264 0.961 . S
C1257 H1265 0.960 . S
C1258 C1256 1.381 . S
C1258 C1259 1.394 . S
C1258 H1266 0.930 . S
C1259 C1258 1.394 . S
C1259 C1260 1.383 . S
C1259 H1267 0.929 . S
C1260 C1259 1.383 . S
C1260 C1261 1.377 . S
C1261 H1245 0.943 . S
C1261 C1260 1.377 . S
C1261 C1262 1.379 . S
C1262 H1246 0.931 . S
C1262 C1256 1.383 . S
C1262 C1261 1.379 . S
H1263 C1257 0.959 . S
H1264 C1257 0.961 . S
H1265 C1257 0.960 . S
H1266 C1258 0.930 . S
H1267 C1259 0.929 . S
H1268 C1276 0.929 . S
H1269 C1278 0.930 . S
H1270 C1280 0.930 . S
H1271 C1283 0.929 . S
H1272 C1286 0.930 . S
H1273 C1288 0.960 . S
H1274 C1288 0.960 . S
H1275 C1288 0.960 . S
C1276 H1268 0.929 . S
C1276 C1277 1.355 1_554 S
C1276 C1278 1.384 . S
C1277 C1276 1.355 1_556 S
C1277 C1283 1.404 . S
C1278 H1269 0.930 . S
C1278 C1276 1.384 . S
C1278 C1279 1.372 . S
C1279 C1278 1.372 . S
C1279 C1280 1.400 1_554 S
C1279 C1284 1.490 . S
C1280 H1270 0.930 . S
C1280 C1279 1.400 1_556 S
C1280 C1283 1.386 . S
H1281 C1297 0.930 . S
H1282 C1298 0.931 . S
C1283 H1271 0.929 . S
C1283 C1277 1.404 . S
C1283 C1280 1.386 . S
C1284 C1279 1.490 . S
C1284 C1286 1.395 1_554 S
C1284 C1287 1.403 . S
H1285 C1291 0.930 . S
C1286 H1272 0.930 . S
C1286 C1284 1.395 1_556 S
C1286 C1289 1.403 . S
C1287 C1284 1.403 . S
C1287 C1288 1.524 . S
C1287 C1291 1.400 . S
C1288 H1273 0.960 . S
C1288 H1274 0.960 . S
C1288 H1275 0.960 . S
C1288 C1287 1.524 . S
C1289 C1286 1.403 . S
C1289 C1290 1.392 1_556 S
C1289 C1293 1.495 . S
C1290 C1289 1.392 1_554 S
C1290 C1291 1.385 . S
C1290 C1292 1.478 . S
C1291 H1285 0.930 . S
C1291 C1287 1.400 . S
C1291 C1290 1.385 . S
C1292 C1290 1.478 . S
C1292 C1294 1.381 . S
C1292 C1298 1.383 1_554 S
C1293 C1289 1.495 . S
C1293 H1299 0.959 . S
C1293 H1300 0.961 . S
C1293 H1301 0.960 . S
C1294 C1292 1.381 . S
C1294 C1295 1.394 . S
C1294 H1302 0.930 . S
C1295 C1294 1.394 . S
C1295 C1296 1.383 . S
C1295 H1303 0.929 . S
C1296 C1295 1.383 . S
C1296 C1297 1.377 1_554 S
C1297 H1281 0.930 . S
C1297 C1296 1.377 1_556 S
C1297 C1298 1.379 . S
C1298 H1282 0.931 . S
C1298 C1292 1.383 1_556 S
C1298 C1297 1.379 . S
H1299 C1293 0.959 . S
H1300 C1293 0.961 . S
H1301 C1293 0.960 . S
H1302 C1294 0.930 . S
H1303 C1295 0.929 . S
H1304 C1312 0.929 . S
H1305 C1314 0.930 . S
H1306 C1316 0.930 . S
H1307 C1319 0.929 . S
H1308 C1322 0.930 . S
H1309 C1324 0.960 . S
H1310 C1324 0.960 . S
H1311 C1324 0.960 . S
C1312 H1304 0.929 . S
C1312 C1313 1.377 . S
C1312 C1314 1.384 . S
C1313 C1312 1.377 . S
C1313 C1319 1.390 . S
C1314 H1305 0.930 . S
C1314 C1312 1.384 . S
C1314 C1315 1.372 . S
C1315 C1314 1.372 . S
C1315 C1316 1.400 . S
C1315 C1320 1.490 . S
C1316 H1306 0.930 . S
C1316 C1315 1.400 . S
C1316 C1319 1.386 . S
H1317 C1333 0.930 . S
H1318 C1334 0.931 . S
C1319 H1307 0.929 . S
C1319 C1313 1.390 . S
C1319 C1316 1.386 . S
C1320 C1315 1.490 . S
C1320 C1322 1.395 . S
C1320 C1323 1.403 . S
H1321 C1327 0.930 . S
C1322 H1308 0.930 . S
C1322 C1320 1.395 . S
C1322 C1325 1.403 . S
C1323 C1320 1.403 . S
C1323 C1324 1.524 . S
C1323 C1327 1.400 . S
C1324 H1309 0.960 . S
C1324 H1310 0.960 . S
C1324 H1311 0.960 . S
C1324 C1323 1.524 . S
C1325 C1322 1.403 . S
C1325 C1326 1.392 . S
C1325 C1329 1.495 . S
C1326 C1325 1.392 . S
C1326 C1327 1.385 . S
C1326 C1328 1.478 . S
C1327 H1321 0.930 . S
C1327 C1323 1.400 . S
C1327 C1326 1.385 . S
C1328 C1326 1.478 . S
C1328 C1330 1.381 . S
C1328 C1334 1.383 . S
C1329 C1325 1.495 . S
C1329 H1335 0.959 . S
C1329 H1336 0.961 . S
C1329 H1337 0.960 . S
C1330 C1328 1.381 . S
C1330 C1331 1.394 . S
C1330 H1338 0.930 . S
C1331 C1330 1.394 . S
C1331 C1332 1.383 . S
C1331 H1339 0.929 . S
C1332 C1331 1.383 . S
C1332 C1333 1.377 . S
C1333 H1317 0.930 . S
C1333 C1332 1.377 . S
C1333 C1334 1.379 . S
C1334 H1318 0.931 . S
C1334 C1328 1.383 . S
C1334 C1333 1.379 . S
H1335 C1329 0.959 . S
H1336 C1329 0.961 . S
H1337 C1329 0.960 . S
H1338 C1330 0.930 . S
H1339 C1331 0.929 . S
H1340 C1348 0.929 . S
H1341 C1350 0.930 . S
H1342 C1352 0.930 . S
H1343 C1355 0.929 . S
H1344 C1358 0.930 . S
H1345 C1360 0.960 . S
H1346 C1360 0.960 . S
H1347 C1360 0.960 . S
C1348 H1340 0.929 . S
C1348 C1349 1.377 . S
C1348 C1350 1.384 . S
C1349 C1348 1.377 . S
C1349 C1355 1.390 . S
C1350 H1341 0.930 . S
C1350 C1348 1.384 . S
C1350 C1351 1.372 . S
C1351 C1350 1.372 . S
C1351 C1352 1.400 . S
C1351 C1356 1.490 . S
C1352 H1342 0.930 . S
C1352 C1351 1.400 . S
C1352 C1355 1.386 . S
H1353 C1369 0.930 . S
H1354 C1370 0.931 . S
C1355 H1343 0.929 . S
C1355 C1349 1.390 . S
C1355 C1352 1.386 . S
C1356 C1351 1.490 . S
C1356 C1358 1.395 . S
C1356 C1359 1.403 . S
H1357 C1363 0.930 . S
C1358 H1344 0.930 . S
C1358 C1356 1.395 . S
C1358 C1361 1.403 . S
C1359 C1356 1.403 . S
C1359 C1360 1.524 . S
C1359 C1363 1.400 . S
C1360 H1345 0.960 . S
C1360 H1346 0.960 . S
C1360 H1347 0.960 . S
C1360 C1359 1.524 . S
C1361 C1358 1.403 . S
C1361 C1362 1.392 . S
C1361 C1365 1.495 . S
C1362 C1361 1.392 . S
C1362 C1363 1.385 . S
C1362 C1364 1.478 . S
C1363 H1357 0.930 . S
C1363 C1359 1.400 . S
C1363 C1362 1.385 . S
C1364 C1362 1.478 . S
C1364 C1366 1.381 . S
C1364 C1370 1.383 . S
C1365 C1361 1.495 . S
C1365 H1371 0.959 . S
C1365 H1372 0.961 . S
C1365 H1373 0.960 . S
C1366 C1364 1.381 . S
C1366 C1367 1.394 . S
C1366 H1374 0.930 . S
C1367 C1366 1.394 . S
C1367 C1368 1.383 . S
C1367 H1375 0.929 . S
C1368 C1367 1.383 . S
C1368 C1369 1.377 . S
C1369 H1353 0.930 . S
C1369 C1368 1.377 . S
C1369 C1370 1.379 . S
C1370 H1354 0.931 . S
C1370 C1364 1.383 . S
C1370 C1369 1.379 . S
H1371 C1365 0.959 . S
H1372 C1365 0.961 . S
H1373 C1365 0.960 . S
H1374 C1366 0.930 . S
H1375 C1367 0.929 . S
H1376 C1384 0.929 . S
H1377 C1386 0.930 . S
H1378 C1388 0.930 . S
H1379 C1391 0.929 . S
H1380 C1394 0.930 . S
H1381 C1396 0.960 . S
H1382 C1396 0.960 . S
H1383 C1396 0.960 . S
C1384 H1376 0.929 . S
C1384 C1385 1.377 . S
C1384 C1386 1.384 . S
C1385 C1384 1.377 . S
C1385 C1391 1.390 . S
C1386 H1377 0.930 . S
C1386 C1384 1.384 . S
C1386 C1387 1.372 . S
C1387 C1386 1.372 . S
C1387 C1388 1.400 . S
C1387 C1392 1.490 . S
C1388 H1378 0.930 . S
C1388 C1387 1.400 . S
C1388 C1391 1.386 . S
H1389 C1405 0.930 . S
H1390 C1406 0.931 . S
C1391 H1379 0.929 . S
C1391 C1385 1.390 . S
C1391 C1388 1.386 . S
C1392 C1387 1.490 . S
C1392 C1394 1.395 . S
C1392 C1395 1.403 . S
H1393 C1399 0.930 . S
C1394 H1380 0.930 . S
C1394 C1392 1.395 . S
C1394 C1397 1.403 . S
C1395 C1392 1.403 . S
C1395 C1396 1.524 . S
C1395 C1399 1.400 . S
C1396 H1381 0.960 . S
C1396 H1382 0.960 . S
C1396 H1383 0.960 . S
C1396 C1395 1.524 . S
C1397 C1394 1.403 . S
C1397 C1398 1.392 . S
C1397 C1401 1.495 . S
C1398 C1397 1.392 . S
C1398 C1399 1.385 . S
C1398 C1400 1.478 . S
C1399 H1393 0.930 . S
C1399 C1395 1.400 . S
C1399 C1398 1.385 . S
C1400 C1398 1.478 . S
C1400 C1402 1.381 . S
C1400 C1406 1.383 . S
C1401 C1397 1.495 . S
C1401 H1407 0.959 . S
C1401 H1408 0.961 . S
C1401 H1409 0.960 . S
C1402 C1400 1.381 . S
C1402 C1403 1.394 . S
C1402 H1410 0.930 . S
C1403 C1402 1.394 . S
C1403 C1404 1.383 . S
C1403 H1411 0.929 . S
C1404 C1403 1.383 . S
C1404 C1405 1.377 . S
C1405 H1389 0.930 . S
C1405 C1404 1.377 . S
C1405 C1406 1.379 . S
C1406 H1390 0.931 . S
C1406 C1400 1.383 . S
C1406 C1405 1.379 . S
H1407 C1401 0.959 . S
H1408 C1401 0.961 . S
H1409 C1401 0.960 . S
H1410 C1402 0.930 . S
H1411 C1403 0.929 . S
H1412 C1420 0.929 . S
H1413 C1422 0.930 . S
H1414 C1424 0.930 . S
H1415 C1427 0.929 . S
H1416 C1430 0.930 . S
H1417 C1432 0.960 . S
H1418 C1432 0.960 . S
H1419 C1432 0.960 . S
C1420 H1412 0.929 . S
C1420 C1421 1.377 . S
C1420 C1422 1.384 . S
C1421 C1420 1.377 . S
C1421 C1427 1.390 . S
C1422 H1413 0.930 . S
C1422 C1420 1.384 . S
C1422 C1423 1.372 . S
C1423 C1422 1.372 . S
C1423 C1424 1.400 . S
C1423 C1428 1.490 . S
C1424 H1414 0.930 . S
C1424 C1423 1.400 . S
C1424 C1427 1.386 . S
H1425 C1441 0.930 . S
H1426 C1442 0.931 . S
C1427 H1415 0.929 . S
C1427 C1421 1.390 . S
C1427 C1424 1.386 . S
C1428 C1423 1.490 . S
C1428 C1430 1.395 . S
C1428 C1431 1.403 . S
H1429 C1435 0.930 . S
C1430 H1416 0.930 . S
C1430 C1428 1.395 . S
C1430 C1433 1.403 . S
C1431 C1428 1.403 . S
C1431 C1432 1.524 . S
C1431 C1435 1.400 . S
C1432 H1417 0.960 . S
C1432 H1418 0.960 . S
C1432 H1419 0.960 . S
C1432 C1431 1.524 . S
C1433 C1430 1.403 . S
C1433 C1434 1.392 . S
C1433 C1437 1.495 . S
C1434 C1433 1.392 . S
C1434 C1435 1.385 . S
C1434 C1436 1.478 . S
C1435 H1429 0.930 . S
C1435 C1431 1.400 . S
C1435 C1434 1.385 . S
C1436 C1434 1.478 . S
C1436 C1438 1.381 . S
C1436 C1442 1.383 . S
C1437 C1433 1.495 . S
C1437 H1443 0.959 . S
C1437 H1444 0.961 . S
C1437 H1445 0.960 . S
C1438 C1436 1.381 . S
C1438 C1439 1.394 . S
C1438 H1446 0.930 . S
C1439 C1438 1.394 . S
C1439 C1440 1.383 . S
C1439 H1447 0.929 . S
C1440 C1439 1.383 . S
C1440 C1441 1.377 . S
C1441 H1425 0.930 . S
C1441 C1440 1.377 . S
C1441 C1442 1.379 . S
C1442 H1426 0.931 . S
C1442 C1436 1.383 . S
C1442 C1441 1.379 . S
H1443 C1437 0.959 . S
H1444 C1437 0.961 . S
H1445 C1437 0.960 . S
H1446 C1438 0.930 . S
H1447 C1439 0.929 . S
H1448 C1456 0.929 . S
H1449 C1458 0.930 . S
H1450 C1460 0.930 . S
H1451 C1463 0.929 . S
H1452 C1466 0.930 . S
H1453 C1468 0.960 . S
H1454 C1468 0.960 . S
H1455 C1468 0.960 . S
C1456 H1448 0.929 . S
C1456 C1457 1.377 . S
C1456 C1458 1.384 . S
C1457 C1456 1.377 . S
C1457 C1463 1.390 . S
C1458 H1449 0.930 . S
C1458 C1456 1.384 . S
C1458 C1459 1.372 . S
C1459 C1458 1.372 . S
C1459 C1460 1.400 . S
C1459 C1464 1.490 . S
C1460 H1450 0.930 . S
C1460 C1459 1.400 . S
C1460 C1463 1.386 . S
H1461 C1477 0.930 . S
H1462 C1478 0.931 . S
C1463 H1451 0.929 . S
C1463 C1457 1.390 . S
C1463 C1460 1.386 . S
C1464 C1459 1.490 . S
C1464 C1466 1.395 . S
C1464 C1467 1.403 . S
H1465 C1471 0.930 . S
C1466 H1452 0.930 . S
C1466 C1464 1.395 . S
C1466 C1469 1.403 . S
C1467 C1464 1.403 . S
C1467 C1468 1.524 . S
C1467 C1471 1.400 . S
C1468 H1453 0.960 . S
C1468 H1454 0.960 . S
C1468 H1455 0.960 . S
C1468 C1467 1.524 . S
C1469 C1466 1.403 . S
C1469 C1470 1.392 . S
C1469 C1473 1.495 . S
C1470 C1469 1.392 . S
C1470 C1471 1.385 . S
C1470 C1472 1.478 . S
C1471 H1465 0.930 . S
C1471 C1467 1.400 . S
C1471 C1470 1.385 . S
C1472 C1470 1.478 . S
C1472 C1474 1.381 . S
C1472 C1478 1.383 . S
C1473 C1469 1.495 . S
C1473 H1479 0.959 . S
C1473 H1480 0.961 . S
C1473 H1481 0.960 . S
C1474 C1472 1.381 . S
C1474 C1475 1.394 . S
C1474 H1482 0.930 . S
C1475 C1474 1.394 . S
C1475 C1476 1.383 . S
C1475 H1483 0.929 . S
C1476 C1475 1.383 . S
C1476 C1477 1.377 . S
C1477 H1461 0.930 . S
C1477 C1476 1.377 . S
C1477 C1478 1.379 . S
C1478 H1462 0.931 . S
C1478 C1472 1.383 . S
C1478 C1477 1.379 . S
H1479 C1473 0.959 . S
H1480 C1473 0.961 . S
H1481 C1473 0.960 . S
H1482 C1474 0.930 . S
H1483 C1475 0.929 . S
H1484 C1492 0.929 . S
H1485 C1494 0.930 . S
H1486 C1496 0.930 . S
H1487 C1499 0.929 . S
H1488 C1502 0.930 . S
H1489 C1504 0.960 . S
H1490 C1504 0.960 . S
H1491 C1504 0.960 . S
C1492 H1484 0.929 . S
C1492 C1493 1.377 . S
C1492 C1494 1.384 . S
C1493 C1492 1.377 . S
C1493 C1499 1.390 . S
C1494 H1485 0.930 . S
C1494 C1492 1.384 . S
C1494 C1495 1.372 . S
C1495 C1494 1.372 . S
C1495 C1496 1.400 . S
C1495 C1500 1.490 . S
C1496 H1486 0.930 . S
C1496 C1495 1.400 . S
C1496 C1499 1.386 . S
H1497 C1513 0.930 . S
H1498 C1514 0.931 . S
C1499 H1487 0.929 . S
C1499 C1493 1.390 . S
C1499 C1496 1.386 . S
C1500 C1495 1.490 . S
C1500 C1502 1.395 . S
C1500 C1503 1.403 . S
H1501 C1507 0.930 . S
C1502 H1488 0.930 . S
C1502 C1500 1.395 . S
C1502 C1505 1.403 . S
C1503 C1500 1.403 . S
C1503 C1504 1.524 . S
C1503 C1507 1.400 . S
C1504 H1489 0.960 . S
C1504 H1490 0.960 . S
C1504 H1491 0.960 . S
C1504 C1503 1.524 . S
C1505 C1502 1.403 . S
C1505 C1506 1.392 . S
C1505 C1509 1.495 . S
C1506 C1505 1.392 . S
C1506 C1507 1.385 . S
C1506 C1508 1.478 . S
C1507 H1501 0.930 . S
C1507 C1503 1.400 . S
C1507 C1506 1.385 . S
C1508 C1506 1.478 . S
C1508 C1510 1.381 . S
C1508 C1514 1.383 . S
C1509 C1505 1.495 . S
C1509 H1515 0.959 . S
C1509 H1516 0.961 . S
C1509 H1517 0.960 . S
C1510 C1508 1.381 . S
C1510 C1511 1.394 . S
C1510 H1518 0.930 . S
C1511 C1510 1.394 . S
C1511 C1512 1.383 . S
C1511 H1519 0.929 . S
C1512 C1511 1.383 . S
C1512 C1513 1.377 . S
C1513 H1497 0.930 . S
C1513 C1512 1.377 . S
C1513 C1514 1.379 . S
C1514 H1498 0.931 . S
C1514 C1508 1.383 . S
C1514 C1513 1.379 . S
H1515 C1509 0.959 . S
H1516 C1509 0.961 . S
H1517 C1509 0.960 . S
H1518 C1510 0.930 . S
H1519 C1511 0.929 . S
H1520 C1528 0.932 1_655 S
H1521 C1530 0.930 1_655 S
H1522 C1532 0.930 . S
H1523 C1535 0.929 . S
H1524 C1538 0.930 . S
H1525 C1540 0.960 . S
H1526 C1540 0.960 . S
H1527 C1540 0.960 . S
C1528 H1520 0.932 1_455 S
C1528 C1529 1.377 . S
C1528 C1530 1.384 . S
C1529 C1528 1.377 . S
C1529 C1535 1.390 . S
C1530 H1521 0.930 1_455 S
C1530 C1528 1.384 . S
C1530 C1531 1.372 . S
C1531 C1530 1.372 . S
C1531 C1532 1.400 . S
C1531 C1536 1.490 . S
C1532 H1522 0.930 . S
C1532 C1531 1.400 . S
C1532 C1535 1.386 . S
H1533 C1549 0.930 . S
H1534 C1550 0.931 . S
C1535 H1523 0.929 . S
C1535 C1529 1.390 . S
C1535 C1532 1.386 . S
C1536 C1531 1.490 . S
C1536 C1538 1.395 . S
C1536 C1539 1.403 . S
H1537 C1543 0.930 . S
C1538 H1524 0.930 . S
C1538 C1536 1.395 . S
C1538 C1541 1.403 . S
C1539 C1536 1.403 . S
C1539 C1540 1.524 . S
C1539 C1543 1.400 . S
C1540 H1525 0.960 . S
C1540 H1526 0.960 . S
C1540 H1527 0.960 . S
C1540 C1539 1.524 . S
C1541 C1538 1.403 . S
C1541 C1542 1.392 . S
C1541 C1545 1.495 . S
C1542 C1541 1.392 . S
C1542 C1543 1.385 . S
C1542 C1544 1.478 . S
C1543 H1537 0.930 . S
C1543 C1539 1.400 . S
C1543 C1542 1.385 . S
C1544 C1542 1.478 . S
C1544 C1546 1.381 1_455 S
C1544 C1550 1.383 . S
C1545 C1541 1.495 . S
C1545 H1551 0.959 . S
C1545 H1552 0.961 . S
C1545 H1553 0.960 . S
C1546 C1544 1.381 1_655 S
C1546 C1547 1.394 . S
C1546 H1554 0.930 . S
C1547 C1546 1.394 . S
C1547 C1548 1.383 1_655 S
C1547 H1555 0.929 . S
C1548 C1547 1.383 1_455 S
C1548 C1549 1.377 . S
C1549 H1533 0.930 . S
C1549 C1548 1.377 . S
C1549 C1550 1.379 . S
C1550 H1534 0.931 . S
C1550 C1544 1.383 . S
C1550 C1549 1.379 . S
H1551 C1545 0.959 . S
H1552 C1545 0.961 . S
H1553 C1545 0.960 . S
H1554 C1546 0.930 . S
H1555 C1547 0.929 . S
H1556 C1564 0.929 . S
H1557 C1566 0.930 . S
H1558 C1568 0.930 . S
H1559 C1571 0.929 . S
H1560 C1574 0.930 . S
H1561 C1576 0.960 . S
H1562 C1576 0.960 . S
H1563 C1576 0.960 . S
C1564 H1556 0.929 . S
C1564 C1565 1.377 . S
C1564 C1566 1.384 . S
C1565 C1564 1.377 . S
C1565 C1571 1.390 . S
C1566 H1557 0.930 . S
C1566 C1564 1.384 . S
C1566 C1567 1.372 . S
C1567 C1566 1.372 . S
C1567 C1568 1.400 . S
C1567 C1572 1.490 . S
C1568 H1558 0.930 . S
C1568 C1567 1.400 . S
C1568 C1571 1.386 . S
H1569 C1585 0.930 . S
H1570 C1586 0.931 . S
C1571 H1559 0.929 . S
C1571 C1565 1.390 . S
C1571 C1568 1.386 . S
C1572 C1567 1.490 . S
C1572 C1574 1.395 . S
C1572 C1575 1.403 . S
H1573 C1579 0.930 . S
C1574 H1560 0.930 . S
C1574 C1572 1.395 . S
C1574 C1577 1.403 . S
C1575 C1572 1.403 . S
C1575 C1576 1.524 . S
C1575 C1579 1.400 . S
C1576 H1561 0.960 . S
C1576 H1562 0.960 . S
C1576 H1563 0.960 . S
C1576 C1575 1.524 . S
C1577 C1574 1.403 . S
C1577 C1578 1.392 . S
C1577 C1581 1.495 . S
C1578 C1577 1.392 . S
C1578 C1579 1.385 . S
C1578 C1580 1.478 . S
C1579 H1573 0.930 . S
C1579 C1575 1.400 . S
C1579 C1578 1.385 . S
C1580 C1578 1.478 . S
C1580 C1582 1.381 . S
C1580 C1586 1.383 . S
C1581 C1577 1.495 . S
C1581 H1587 0.959 . S
C1581 H1588 0.961 . S
C1581 H1589 0.960 . S
C1582 C1580 1.381 . S
C1582 C1583 1.394 . S
C1582 H1590 0.930 . S
C1583 C1582 1.394 . S
C1583 C1584 1.383 . S
C1583 H1591 0.929 . S
C1584 C1583 1.383 . S
C1584 C1585 1.377 . S
C1585 H1569 0.930 . S
C1585 C1584 1.377 . S
C1585 C1586 1.379 . S
C1586 H1570 0.931 . S
C1586 C1580 1.383 . S
C1586 C1585 1.379 . S
H1587 C1581 0.959 . S
H1588 C1581 0.961 . S
H1589 C1581 0.960 . S
H1590 C1582 0.930 . S
H1591 C1583 0.929 . S
H1592 C1600 0.929 . S
H1593 C1602 0.930 . S
H1594 C1604 0.930 . S
H1595 C1607 0.929 . S
H1596 C1610 0.930 . S
H1597 C1612 0.960 . S
H1598 C1612 0.960 . S
H1599 C1612 0.960 . S
C1600 H1592 0.929 . S
C1600 C1601 1.377 . S
C1600 C1602 1.384 . S
C1601 C1600 1.377 . S
C1601 C1607 1.390 . S
C1602 H1593 0.930 . S
C1602 C1600 1.384 . S
C1602 C1603 1.372 . S
C1603 C1602 1.372 . S
C1603 C1604 1.400 . S
C1603 C1608 1.490 . S
C1604 H1594 0.930 . S
C1604 C1603 1.400 . S
C1604 C1607 1.386 . S
H1605 C1621 0.930 . S
H1606 C1622 0.931 . S
C1607 H1595 0.929 . S
C1607 C1601 1.390 . S
C1607 C1604 1.386 . S
C1608 C1603 1.490 . S
C1608 C1610 1.395 . S
C1608 C1611 1.403 . S
H1609 C1615 0.930 . S
C1610 H1596 0.930 . S
C1610 C1608 1.395 . S
C1610 C1613 1.403 . S
C1611 C1608 1.403 . S
C1611 C1612 1.524 . S
C1611 C1615 1.400 . S
C1612 H1597 0.960 . S
C1612 H1598 0.960 . S
C1612 H1599 0.960 . S
C1612 C1611 1.524 . S
C1613 C1610 1.403 . S
C1613 C1614 1.392 . S
C1613 C1617 1.495 . S
C1614 C1613 1.392 . S
C1614 C1615 1.385 . S
C1614 C1616 1.478 . S
C1615 H1609 0.930 . S
C1615 C1611 1.400 . S
C1615 C1614 1.385 . S
C1616 C1614 1.478 . S
C1616 C1618 1.381 . S
C1616 C1622 1.383 . S
C1617 C1613 1.495 . S
C1617 H1623 0.959 . S
C1617 H1624 0.961 . S
C1617 H1625 0.960 . S
C1618 C1616 1.381 . S
C1618 C1619 1.394 . S
C1618 H1626 0.930 . S
C1619 C1618 1.394 . S
C1619 C1620 1.383 . S
C1619 H1627 0.929 . S
C1620 C1619 1.383 . S
C1620 C1621 1.377 . S
C1621 H1605 0.930 . S
C1621 C1620 1.377 . S
C1621 C1622 1.379 . S
C1622 H1606 0.931 . S
C1622 C1616 1.383 . S
C1622 C1621 1.379 . S
H1623 C1617 0.959 . S
H1624 C1617 0.961 . S
H1625 C1617 0.960 . S
H1626 C1618 0.930 . S
H1627 C1619 0.929 . S
H1628 C1636 0.929 . S
H1629 C1638 0.930 . S
H1630 C1640 0.930 . S
H1631 C1643 0.929 . S
H1632 C1646 0.930 . S
H1633 C1648 0.960 . S
H1634 C1648 0.960 . S
H1635 C1648 0.960 . S
C1636 H1628 0.929 . S
C1636 C1637 1.377 . S
C1636 C1638 1.384 . S
C1637 C1636 1.377 . S
C1637 C1643 1.390 . S
C1638 H1629 0.930 . S
C1638 C1636 1.384 . S
C1638 C1639 1.372 . S
C1639 C1638 1.372 . S
C1639 C1640 1.400 . S
C1639 C1644 1.490 . S
C1640 H1630 0.930 . S
C1640 C1639 1.400 . S
C1640 C1643 1.386 . S
H1641 C1657 0.930 . S
H1642 C1658 0.931 . S
C1643 H1631 0.929 . S
C1643 C1637 1.390 . S
C1643 C1640 1.386 . S
C1644 C1639 1.490 . S
C1644 C1646 1.395 . S
C1644 C1647 1.403 . S
H1645 C1651 0.930 . S
C1646 H1632 0.930 . S
C1646 C1644 1.395 . S
C1646 C1649 1.403 . S
C1647 C1644 1.403 . S
C1647 C1648 1.524 . S
C1647 C1651 1.400 . S
C1648 H1633 0.960 . S
C1648 H1634 0.960 . S
C1648 H1635 0.960 . S
C1648 C1647 1.524 . S
C1649 C1646 1.403 . S
C1649 C1650 1.392 . S
C1649 C1653 1.495 . S
C1650 C1649 1.392 . S
C1650 C1651 1.385 . S
C1650 C1652 1.478 . S
C1651 H1645 0.930 . S
C1651 C1647 1.400 . S
C1651 C1650 1.385 . S
C1652 C1650 1.478 . S
C1652 C1654 1.381 . S
C1652 C1658 1.383 . S
C1653 C1649 1.495 . S
C1653 H1659 0.959 . S
C1653 H1660 0.961 . S
C1653 H1661 0.960 . S
C1654 C1652 1.381 . S
C1654 C1655 1.394 . S
C1654 H1662 0.930 . S
C1655 C1654 1.394 . S
C1655 C1656 1.383 . S
C1655 H1663 0.929 . S
C1656 C1655 1.383 . S
C1656 C1657 1.377 . S
C1657 H1641 0.930 . S
C1657 C1656 1.377 . S
C1657 C1658 1.379 . S
C1658 H1642 0.931 . S
C1658 C1652 1.383 . S
C1658 C1657 1.379 . S
H1659 C1653 0.959 . S
H1660 C1653 0.961 . S
H1661 C1653 0.960 . S
H1662 C1654 0.930 . S
H1663 C1655 0.929 . S
H1664 C1672 0.929 . S
H1665 C1674 0.930 . S
H1666 C1676 0.930 . S
H1667 C1679 0.929 . S
H1668 C1682 0.930 . S
H1669 C1684 0.960 . S
H1670 C1684 0.960 . S
H1671 C1684 0.960 . S
C1672 H1664 0.929 . S
C1672 C1673 1.377 . S
C1672 C1674 1.384 . S
C1673 C1672 1.377 . S
C1673 C1679 1.390 . S
C1674 H1665 0.930 . S
C1674 C1672 1.384 . S
C1674 C1675 1.372 . S
C1675 C1674 1.372 . S
C1675 C1676 1.400 . S
C1675 C1680 1.490 . S
C1676 H1666 0.930 . S
C1676 C1675 1.400 . S
C1676 C1679 1.386 . S
H1677 C1693 0.930 . S
H1678 C1694 0.931 . S
C1679 H1667 0.929 . S
C1679 C1673 1.390 . S
C1679 C1676 1.386 . S
C1680 C1675 1.490 . S
C1680 C1682 1.395 . S
C1680 C1683 1.403 1_455 S
H1681 C1687 0.930 . S
C1682 H1668 0.930 . S
C1682 C1680 1.395 . S
C1682 C1685 1.403 . S
C1683 C1680 1.403 1_655 S
C1683 C1684 1.524 . S
C1683 C1687 1.400 . S
C1684 H1669 0.960 . S
C1684 H1670 0.960 . S
C1684 H1671 0.960 . S
C1684 C1683 1.524 . S
C1685 C1682 1.403 . S
C1685 C1686 1.392 . S
C1685 C1689 1.495 . S
C1686 C1685 1.392 . S
C1686 C1687 1.385 1_455 S
C1686 C1688 1.478 . S
C1687 H1681 0.930 . S
C1687 C1683 1.400 . S
C1687 C1686 1.385 1_655 S
C1688 C1686 1.478 . S
C1688 C1690 1.381 . S
C1688 C1694 1.383 . S
C1689 C1685 1.495 . S
C1689 H1695 0.959 . S
C1689 H1696 0.961 . S
C1689 H1697 0.960 . S
C1690 C1688 1.381 . S
C1690 C1691 1.394 . S
C1690 H1698 0.930 . S
C1691 C1690 1.394 . S
C1691 C1692 1.383 . S
C1691 H1699 0.929 . S
C1692 C1691 1.383 . S
C1692 C1693 1.377 . S
C1693 H1677 0.930 . S
C1693 C1692 1.377 . S
C1693 C1694 1.379 . S
C1694 H1678 0.931 . S
C1694 C1688 1.383 . S
C1694 C1693 1.379 . S
H1695 C1689 0.959 . S
H1696 C1689 0.961 . S
H1697 C1689 0.960 . S
H1698 C1690 0.930 . S
H1699 C1691 0.929 . S
H1700 C1708 0.929 . S
H1701 C1710 0.930 . S
H1702 C1712 0.930 . S
H1703 C1715 0.929 . S
H1704 C1718 0.930 . S
H1705 C1720 0.960 . S
H1706 C1720 0.960 . S
H1707 C1720 0.960 . S
C1708 H1700 0.929 . S
C1708 C1709 1.377 . S
C1708 C1710 1.384 . S
C1709 C1708 1.377 . S
C1709 C1715 1.390 . S
C1710 H1701 0.930 . S
C1710 C1708 1.384 . S
C1710 C1711 1.372 . S
C1711 C1710 1.372 . S
C1711 C1712 1.400 . S
C1711 C1716 1.490 . S
C1712 H1702 0.930 . S
C1712 C1711 1.400 . S
C1712 C1715 1.386 . S
H1713 C1729 0.930 . S
H1714 C1730 0.931 . S
C1715 H1703 0.929 . S
C1715 C1709 1.390 . S
C1715 C1712 1.386 . S
C1716 C1711 1.490 . S
C1716 C1718 1.395 . S
C1716 C1719 1.403 . S
H1717 C1723 0.930 . S
C1718 H1704 0.930 . S
C1718 C1716 1.395 . S
C1718 C1721 1.403 . S
C1719 C1716 1.403 . S
C1719 C1720 1.524 . S
C1719 C1723 1.400 . S
C1720 H1705 0.960 . S
C1720 H1706 0.960 . S
C1720 H1707 0.960 . S
C1720 C1719 1.524 . S
C1721 C1718 1.403 . S
C1721 C1722 1.392 . S
C1721 C1725 1.495 . S
C1722 C1721 1.392 . S
C1722 C1723 1.385 . S
C1722 C1724 1.478 . S
C1723 H1717 0.930 . S
C1723 C1719 1.400 . S
C1723 C1722 1.385 . S
C1724 C1722 1.478 . S
C1724 C1726 1.381 . S
C1724 C1730 1.383 . S
C1725 C1721 1.495 . S
C1725 H1731 0.959 . S
C1725 H1732 0.961 . S
C1725 H1733 0.960 . S
C1726 C1724 1.381 . S
C1726 C1727 1.394 . S
C1726 H1734 0.930 . S
C1727 C1726 1.394 . S
C1727 C1728 1.383 . S
C1727 H1735 0.929 . S
C1728 C1727 1.383 . S
C1728 C1729 1.377 . S
C1729 H1713 0.930 . S
C1729 C1728 1.377 . S
C1729 C1730 1.379 . S
C1730 H1714 0.931 . S
C1730 C1724 1.383 . S
C1730 C1729 1.379 . S
H1731 C1725 0.959 . S
H1732 C1725 0.961 . S
H1733 C1725 0.960 . S
H1734 C1726 0.930 . S
H1735 C1727 0.929 . S
H1736 C1744 0.929 . S
H1737 C1746 0.930 . S
H1738 C1748 0.930 . S
H1739 C1751 0.929 . S
H1740 C1754 0.930 . S
H1741 C1756 0.960 . S
H1742 C1756 0.960 . S
H1743 C1756 0.960 . S
C1744 H1736 0.929 . S
C1744 C1745 1.377 . S
C1744 C1746 1.384 . S
C1745 C1744 1.377 . S
C1745 C1751 1.390 . S
C1746 H1737 0.930 . S
C1746 C1744 1.384 . S
C1746 C1747 1.372 . S
C1747 C1746 1.372 . S
C1747 C1748 1.400 . S
C1747 C1752 1.490 . S
C1748 H1738 0.930 . S
C1748 C1747 1.400 . S
C1748 C1751 1.386 . S
H1749 C1765 0.930 . S
H1750 C1766 0.931 . S
C1751 H1739 0.929 . S
C1751 C1745 1.390 . S
C1751 C1748 1.386 . S
C1752 C1747 1.490 . S
C1752 C1754 1.395 . S
C1752 C1755 1.403 . S
H1753 C1759 0.930 . S
C1754 H1740 0.930 . S
C1754 C1752 1.395 . S
C1754 C1757 1.403 . S
C1755 C1752 1.403 . S
C1755 C1756 1.524 . S
C1755 C1759 1.400 . S
C1756 H1741 0.960 . S
C1756 H1742 0.960 . S
C1756 H1743 0.960 . S
C1756 C1755 1.524 . S
C1757 C1754 1.403 . S
C1757 C1758 1.392 . S
C1757 C1761 1.495 . S
C1758 C1757 1.392 . S
C1758 C1759 1.385 . S
C1758 C1760 1.478 . S
C1759 H1753 0.930 . S
C1759 C1755 1.400 . S
C1759 C1758 1.385 . S
C1760 C1758 1.478 . S
C1760 C1762 1.381 1_556 S
C1760 C1766 1.383 . S
C1761 C1757 1.495 . S
C1761 H1767 0.959 . S
C1761 H1768 0.961 . S
C1761 H1769 0.960 1_556 S
C1762 C1760 1.381 1_554 S
C1762 C1763 1.394 . S
C1762 H1770 0.930 . S
C1763 C1762 1.394 . S
C1763 C1764 1.383 . S
C1763 H1771 0.929 . S
C1764 C1763 1.383 . S
C1764 C1765 1.377 1_554 S
C1765 H1749 0.930 . S
C1765 C1764 1.377 1_556 S
C1765 C1766 1.379 . S
C1766 H1750 0.931 . S
C1766 C1760 1.383 . S
C1766 C1765 1.379 . S
H1767 C1761 0.959 . S
H1768 C1761 0.961 . S
H1769 C1761 0.960 1_554 S
H1770 C1762 0.930 . S
H1771 C1763 0.929 . S
H1772 C1780 0.929 . S
H1773 C1782 0.930 . S
H1774 C1784 0.930 . S
H1775 C1787 0.929 . S
H1776 C1790 0.930 . S
H1777 C1792 0.960 . S
H1778 C1792 0.960 . S
H1779 C1792 0.960 . S
C1780 H1772 0.929 . S
C1780 C1781 1.377 . S
C1780 C1782 1.384 . S
C1781 C1780 1.377 . S
C1781 C1787 1.390 . S
C1782 H1773 0.930 . S
C1782 C1780 1.384 . S
C1782 C1783 1.372 . S
C1783 C1782 1.372 . S
C1783 C1784 1.400 . S
C1783 C1788 1.490 . S
C1784 H1774 0.930 . S
C1784 C1783 1.400 . S
C1784 C1787 1.386 . S
H1785 C1801 0.930 . S
H1786 C1802 0.931 . S
C1787 H1775 0.929 . S
C1787 C1781 1.390 . S
C1787 C1784 1.386 . S
C1788 C1783 1.490 . S
C1788 C1790 1.395 . S
C1788 C1791 1.403 . S
H1789 C1795 0.930 . S
C1790 H1776 0.930 . S
C1790 C1788 1.395 . S
C1790 C1793 1.403 . S
C1791 C1788 1.403 . S
C1791 C1792 1.524 . S
C1791 C1795 1.400 . S
C1792 H1777 0.960 . S
C1792 H1778 0.960 . S
C1792 H1779 0.960 . S
C1792 C1791 1.524 . S
C1793 C1790 1.403 . S
C1793 C1794 1.392 . S
C1793 C1797 1.495 . S
C1794 C1793 1.392 . S
C1794 C1795 1.385 . S
C1794 C1796 1.478 . S
C1795 H1789 0.930 . S
C1795 C1791 1.400 . S
C1795 C1794 1.385 . S
C1796 C1794 1.478 . S
C1796 C1798 1.381 . S
C1796 C1802 1.383 . S
C1797 C1793 1.495 . S
C1797 H1803 0.959 . S
C1797 H1804 0.961 . S
C1797 H1805 0.960 . S
C1798 C1796 1.381 . S
C1798 C1799 1.394 . S
C1798 H1806 0.930 . S
C1799 C1798 1.394 . S
C1799 C1800 1.383 . S
C1799 H1807 0.929 . S
C1800 C1799 1.383 . S
C1800 C1801 1.377 . S
C1801 H1785 0.930 . S
C1801 C1800 1.377 . S
C1801 C1802 1.379 . S
C1802 H1786 0.931 . S
C1802 C1796 1.383 . S
C1802 C1801 1.379 . S
H1803 C1797 0.959 . S
H1804 C1797 0.961 . S
H1805 C1797 0.960 . S
H1806 C1798 0.930 . S
H1807 C1799 0.929 . S
H1808 C1816 0.929 . S
H1809 C1818 0.930 . S
H1810 C1820 0.930 . S
H1811 C1823 0.929 . S
H1812 C1826 0.930 . S
H1813 C1828 0.960 . S
H1814 C1828 0.960 . S
H1815 C1828 0.960 . S
C1816 H1808 0.929 . S
C1816 C1817 1.377 . S
C1816 C1818 1.384 . S
C1817 C1816 1.377 . S
C1817 C1823 1.390 . S
C1818 H1809 0.930 . S
C1818 C1816 1.384 . S
C1818 C1819 1.372 . S
C1819 C1818 1.372 . S
C1819 C1820 1.400 . S
C1819 C1824 1.490 . S
C1820 H1810 0.930 . S
C1820 C1819 1.400 . S
C1820 C1823 1.386 . S
H1821 C1837 0.930 . S
H1822 C1838 0.931 . S
C1823 H1811 0.929 . S
C1823 C1817 1.390 . S
C1823 C1820 1.386 . S
C1824 C1819 1.490 . S
C1824 C1826 1.395 . S
C1824 C1827 1.403 1_545 S
H1825 C1831 0.930 . S
C1826 H1812 0.930 . S
C1826 C1824 1.395 . S
C1826 C1829 1.403 . S
C1827 C1824 1.403 1_565 S
C1827 C1828 1.524 . S
C1827 C1831 1.400 . S
C1828 H1813 0.960 . S
C1828 H1814 0.960 . S
C1828 H1815 0.960 . S
C1828 C1827 1.524 . S
C1829 C1826 1.403 . S
C1829 C1830 1.392 . S
C1829 C1833 1.495 . S
C1830 C1829 1.392 . S
C1830 C1831 1.385 1_545 S
C1830 C1832 1.478 . S
C1831 H1825 0.930 . S
C1831 C1827 1.400 . S
C1831 C1830 1.385 1_565 S
C1832 C1830 1.478 . S
C1832 C1834 1.381 . S
C1832 C1838 1.383 . S
C1833 C1829 1.495 . S
C1833 H1839 0.959 . S
C1833 H1840 0.961 . S
C1833 H1841 0.960 . S
C1834 C1832 1.381 . S
C1834 C1835 1.394 . S
C1834 H1842 0.930 . S
C1835 C1834 1.394 . S
C1835 C1836 1.383 . S
C1835 H1843 0.929 . S
C1836 C1835 1.383 . S
C1836 C1837 1.377 . S
C1837 H1821 0.930 . S
C1837 C1836 1.377 . S
C1837 C1838 1.379 . S
C1838 H1822 0.931 . S
C1838 C1832 1.383 . S
C1838 C1837 1.379 . S
H1839 C1833 0.959 . S
H1840 C1833 0.961 . S
H1841 C1833 0.960 . S
H1842 C1834 0.930 . S
H1843 C1835 0.929 . S
H1844 C1852 0.929 . S
H1845 C1854 0.930 . S
H1846 C1856 0.930 . S
H1847 C1859 0.929 . S
H1848 C1862 0.930 . S
H1849 C1864 0.960 . S
H1850 C1864 0.960 . S
H1851 C1864 0.960 . S
C1852 H1844 0.929 . S
C1852 C1853 1.377 . S
C1852 C1854 1.384 . S
C1853 C1852 1.377 . S
C1853 C1859 1.390 . S
C1854 H1845 0.930 . S
C1854 C1852 1.384 . S
C1854 C1855 1.372 . S
C1855 C1854 1.372 . S
C1855 C1856 1.400 . S
C1855 C1860 1.490 . S
C1856 H1846 0.930 . S
C1856 C1855 1.400 . S
C1856 C1859 1.386 . S
H1857 C1873 0.930 . S
H1858 C1874 0.931 . S
C1859 H1847 0.929 . S
C1859 C1853 1.390 . S
C1859 C1856 1.386 . S
C1860 C1855 1.490 . S
C1860 C1862 1.395 . S
C1860 C1863 1.403 . S
H1861 C1867 0.930 . S
C1862 H1848 0.930 . S
C1862 C1860 1.395 . S
C1862 C1865 1.403 . S
C1863 C1860 1.403 . S
C1863 C1864 1.524 . S
C1863 C1867 1.400 . S
C1864 H1849 0.960 . S
C1864 H1850 0.960 . S
C1864 H1851 0.960 . S
C1864 C1863 1.524 . S
C1865 C1862 1.403 . S
C1865 C1866 1.392 . S
C1865 C1869 1.495 . S
C1866 C1865 1.392 . S
C1866 C1867 1.385 . S
C1866 C1868 1.478 . S
C1867 H1861 0.930 . S
C1867 C1863 1.400 . S
C1867 C1866 1.385 . S
C1868 C1866 1.478 . S
C1868 C1870 1.381 . S
C1868 C1874 1.383 . S
C1869 C1865 1.495 . S
C1869 H1875 0.959 . S
C1869 H1876 0.961 . S
C1869 H1877 0.960 . S
C1870 C1868 1.381 . S
C1870 C1871 1.394 . S
C1870 H1878 0.930 . S
C1871 C1870 1.394 . S
C1871 C1872 1.383 . S
C1871 H1879 0.929 . S
C1872 C1871 1.383 . S
C1872 C1873 1.377 . S
C1873 H1857 0.930 . S
C1873 C1872 1.377 . S
C1873 C1874 1.379 . S
C1874 H1858 0.931 . S
C1874 C1868 1.383 . S
C1874 C1873 1.379 . S
H1875 C1869 0.959 . S
H1876 C1869 0.961 . S
H1877 C1869 0.960 . S
H1878 C1870 0.930 . S
H1879 C1871 0.929 . S
H1880 C1888 0.929 . S
H1881 C1890 0.930 . S
H1882 C1892 0.930 . S
H1883 C1895 0.929 . S
H1884 C1898 0.930 . S
H1885 C1900 0.960 . S
H1886 C1900 0.960 . S
H1887 C1900 0.960 . S
C1888 H1880 0.929 . S
C1888 C1889 1.377 . S
C1888 C1890 1.384 . S
C1889 C1888 1.377 . S
C1889 C1895 1.390 . S
C1890 H1881 0.930 . S
C1890 C1888 1.384 . S
C1890 C1891 1.372 . S
C1891 C1890 1.372 . S
C1891 C1892 1.400 . S
C1891 C1896 1.490 . S
C1892 H1882 0.930 . S
C1892 C1891 1.400 . S
C1892 C1895 1.386 . S
H1893 C1909 0.930 1_565 S
H1894 C1910 0.931 1_565 S
C1895 H1883 0.929 . S
C1895 C1889 1.390 . S
C1895 C1892 1.386 . S
C1896 C1891 1.490 . S
C1896 C1898 1.395 . S
C1896 C1899 1.403 . S
H1897 C1903 0.930 . S
C1898 H1884 0.930 . S
C1898 C1896 1.395 . S
C1898 C1901 1.403 . S
C1899 C1896 1.403 . S
C1899 C1900 1.524 . S
C1899 C1903 1.400 . S
C1900 H1885 0.960 . S
C1900 H1886 0.960 . S
C1900 H1887 0.960 . S
C1900 C1899 1.524 . S
C1901 C1898 1.403 . S
C1901 C1902 1.392 . S
C1901 C1905 1.495 . S
C1902 C1901 1.392 . S
C1902 C1903 1.385 . S
C1902 C1904 1.478 . S
C1903 H1897 0.930 . S
C1903 C1899 1.400 . S
C1903 C1902 1.385 . S
C1904 C1902 1.478 . S
C1904 C1906 1.381 . S
C1904 C1910 1.383 . S
C1905 C1901 1.495 . S
C1905 H1911 0.959 . S
C1905 H1912 0.961 1_545 S
C1905 H1913 0.960 . S
C1906 C1904 1.381 . S
C1906 C1907 1.394 . S
C1906 H1914 0.930 . S
C1907 C1906 1.394 . S
C1907 C1908 1.383 . S
C1907 H1915 0.929 . S
C1908 C1907 1.383 . S
C1908 C1909 1.377 . S
C1909 H1893 0.930 1_545 S
C1909 C1908 1.377 . S
C1909 C1910 1.379 . S
C1910 H1894 0.931 1_545 S
C1910 C1904 1.383 . S
C1910 C1909 1.379 . S
H1911 C1905 0.959 . S
H1912 C1905 0.961 1_565 S
H1913 C1905 0.960 . S
H1914 C1906 0.930 . S
H1915 C1907 0.929 . S
H1916 C1924 0.929 . S
H1917 C1926 0.930 . S
H1918 C1928 0.930 . S
H1919 C1931 0.929 . S
H1920 C1934 0.930 . S
H1921 C1936 0.960 . S
H1922 C1936 0.960 . S
H1923 C1936 0.960 . S
C1924 H1916 0.929 . S
C1924 C1925 1.377 . S
C1924 C1926 1.384 . S
C1925 C1924 1.377 . S
C1925 C1931 1.390 . S
C1926 H1917 0.930 . S
C1926 C1924 1.384 . S
C1926 C1927 1.372 . S
C1927 C1926 1.372 . S
C1927 C1928 1.400 . S
C1927 C1932 1.490 . S
C1928 H1918 0.930 . S
C1928 C1927 1.400 . S
C1928 C1931 1.386 . S
H1929 C1945 0.930 . S
H1930 C1946 0.931 . S
C1931 H1919 0.929 . S
C1931 C1925 1.390 . S
C1931 C1928 1.386 . S
C1932 C1927 1.490 . S
C1932 C1934 1.395 . S
C1932 C1935 1.403 . S
H1933 C1939 0.930 . S
C1934 H1920 0.930 . S
C1934 C1932 1.395 . S
C1934 C1937 1.403 . S
C1935 C1932 1.403 . S
C1935 C1936 1.524 . S
C1935 C1939 1.400 . S
C1936 H1921 0.960 . S
C1936 H1922 0.960 . S
C1936 H1923 0.960 . S
C1936 C1935 1.524 . S
C1937 C1934 1.403 . S
C1937 C1938 1.392 . S
C1937 C1941 1.495 . S
C1938 C1937 1.392 . S
C1938 C1939 1.385 . S
C1938 C1940 1.478 . S
C1939 H1933 0.930 . S
C1939 C1935 1.400 . S
C1939 C1938 1.385 . S
C1940 C1938 1.478 . S
C1940 C1942 1.381 . S
C1940 C1946 1.383 . S
C1941 C1937 1.495 . S
C1941 H1947 0.959 . S
C1941 H1948 0.961 . S
C1941 H1949 0.960 . S
C1942 C1940 1.381 . S
C1942 C1943 1.394 . S
C1942 H1950 0.930 . S
C1943 C1942 1.394 . S
C1943 C1944 1.383 . S
C1943 H1951 0.929 . S
C1944 C1943 1.383 . S
C1944 C1945 1.377 . S
C1945 H1929 0.930 . S
C1945 C1944 1.377 . S
C1945 C1946 1.379 . S
C1946 H1930 0.931 . S
C1946 C1940 1.383 . S
C1946 C1945 1.379 . S
H1947 C1941 0.959 . S
H1948 C1941 0.961 . S
H1949 C1941 0.960 . S
H1950 C1942 0.930 . S
H1951 C1943 0.929 . S
H1952 C1960 0.929 . S
H1953 C1962 0.930 . S
H1954 C1964 0.930 . S
H1955 C1967 0.929 . S
H1956 C1970 0.930 . S
H1957 C1972 0.960 . S
H1958 C1972 0.960 . S
H1959 C1972 0.960 1_545 S
C1960 H1952 0.929 . S
C1960 C1961 1.377 1_565 S
C1960 C1962 1.384 . S
C1961 C1960 1.377 1_545 S
C1961 C1967 1.390 . S
C1962 H1953 0.930 . S
C1962 C1960 1.384 . S
C1962 C1963 1.372 1_565 S
C1963 C1962 1.372 1_545 S
C1963 C1964 1.400 . S
C1963 C1968 1.490 . S
C1964 H1954 0.930 . S
C1964 C1963 1.400 . S
C1964 C1967 1.386 . S
H1965 C1981 0.930 . S
H1966 C1982 0.931 . S
C1967 H1955 0.929 . S
C1967 C1961 1.390 . S
C1967 C1964 1.386 . S
C1968 C1963 1.490 . S
C1968 C1970 1.395 . S
C1968 C1971 1.403 . S
H1969 C1975 0.939 . S
C1970 H1956 0.930 . S
C1970 C1968 1.395 . S
C1970 C1973 1.403 . S
C1971 C1968 1.403 . S
C1971 C1972 1.524 1_545 S
C1971 C1975 1.400 . S
C1972 H1957 0.960 . S
C1972 H1958 0.960 . S
C1972 H1959 0.960 1_565 S
C1972 C1971 1.524 1_565 S
C1973 C1970 1.403 . S
C1973 C1974 1.392 . S
C1973 C1977 1.495 . S
C1974 C1973 1.392 . S
C1974 C1975 1.385 . S
C1974 C1976 1.478 . S
C1975 H1969 0.939 . S
C1975 C1971 1.400 . S
C1975 C1974 1.385 . S
C1976 C1974 1.478 . S
C1976 C1978 1.381 1_545 S
C1976 C1982 1.383 . S
C1977 C1973 1.495 . S
C1977 H1983 0.959 . S
C1977 H1984 0.961 . S
C1977 H1985 0.960 . S
C1978 C1976 1.381 1_565 S
C1978 C1979 1.394 . S
C1978 H1986 0.930 . S
C1979 C1978 1.394 . S
C1979 C1980 1.383 1_565 S
C1979 H1987 0.929 . S
C1980 C1979 1.383 1_545 S
C1980 C1981 1.377 . S
C1981 H1965 0.930 . S
C1981 C1980 1.377 . S
C1981 C1982 1.379 . S
C1982 H1966 0.931 . S
C1982 C1976 1.383 . S
C1982 C1981 1.379 . S
H1983 C1977 0.959 . S
H1984 C1977 0.961 . S
H1985 C1977 0.960 . S
H1986 C1978 0.930 . S
H1987 C1979 0.929 . S
H1988 C1996 0.929 . S
H1989 C1998 0.930 . S
H1990 C2000 0.930 . S
H1991 C2003 0.929 . S
H1992 C2006 0.930 . S
H1993 C2008 0.960 . S
H1994 C2008 0.960 . S
H1995 C2008 0.960 . S
C1996 H1988 0.929 . S
C1996 C1997 1.377 . S
C1996 C1998 1.384 . S
C1997 C1996 1.377 . S
C1997 C2003 1.390 . S
C1998 H1989 0.930 . S
C1998 C1996 1.384 . S
C1998 C1999 1.372 . S
C1999 C1998 1.372 . S
C1999 C2000 1.400 . S
C1999 C2004 1.490 . S
C2000 H1990 0.930 . S
C2000 C1999 1.400 . S
C2000 C2003 1.386 . S
H2001 C2017 0.930 . S
H2002 C2018 0.931 . S
C2003 H1991 0.929 . S
C2003 C1997 1.390 . S
C2003 C2000 1.386 . S
C2004 C1999 1.490 . S
C2004 C2006 1.395 . S
C2004 C2007 1.403 . S
H2005 C2011 0.930 . S
C2006 H1992 0.930 . S
C2006 C2004 1.395 . S
C2006 C2009 1.403 . S
C2007 C2004 1.403 . S
C2007 C2008 1.524 . S
C2007 C2011 1.400 . S
C2008 H1993 0.960 . S
C2008 H1994 0.960 . S
C2008 H1995 0.960 . S
C2008 C2007 1.524 . S
C2009 C2006 1.403 . S
C2009 C2010 1.392 . S
C2009 C2013 1.495 . S
C2010 C2009 1.392 . S
C2010 C2011 1.385 . S
C2010 C2012 1.478 . S
C2011 H2005 0.930 . S
C2011 C2007 1.400 . S
C2011 C2010 1.385 . S
C2012 C2010 1.478 . S
C2012 C2014 1.381 . S
C2012 C2018 1.383 . S
C2013 C2009 1.495 . S
C2013 H2019 0.959 . S
C2013 H2020 0.961 . S
C2013 H2021 0.960 . S
C2014 C2012 1.381 . S
C2014 C2015 1.394 . S
C2014 H2022 0.930 . S
C2015 C2014 1.394 . S
C2015 C2016 1.383 . S
C2015 H2023 0.929 . S
C2016 C2015 1.383 . S
C2016 C2017 1.377 . S
C2017 H2001 0.930 . S
C2017 C2016 1.377 . S
C2017 C2018 1.379 . S
C2018 H2002 0.931 . S
C2018 C2012 1.383 . S
C2018 C2017 1.379 . S
H2019 C2013 0.959 . S
H2020 C2013 0.961 . S
H2021 C2013 0.960 . S
H2022 C2014 0.930 . S
H2023 C2015 0.929 . S
H2024 C2032 0.929 . S
H2025 C2034 0.930 . S
H2026 C2036 0.930 . S
H2027 C2039 0.929 . S
H2028 C2042 0.930 . S
H2029 C2044 0.960 . S
H2030 C2044 0.960 . S
H2031 C2044 0.960 . S
C2032 H2024 0.929 . S
C2032 C2033 1.377 . S
C2032 C2034 1.384 . S
C2033 C2032 1.377 . S
C2033 C2039 1.390 . S
C2034 H2025 0.930 . S
C2034 C2032 1.384 . S
C2034 C2035 1.372 . S
C2035 C2034 1.372 . S
C2035 C2036 1.400 . S
C2035 C2040 1.490 . S
C2036 H2026 0.930 . S
C2036 C2035 1.400 . S
C2036 C2039 1.386 . S
H2037 C2053 0.930 . S
H2038 C2054 0.931 . S
C2039 H2027 0.929 . S
C2039 C2033 1.390 . S
C2039 C2036 1.386 . S
C2040 C2035 1.490 . S
C2040 C2042 1.395 . S
C2040 C2043 1.403 1_545 S
H2041 C2047 0.930 . S
C2042 H2028 0.930 . S
C2042 C2040 1.395 . S
C2042 C2045 1.403 . S
C2043 C2040 1.403 1_565 S
C2043 C2044 1.524 . S
C2043 C2047 1.400 . S
C2044 H2029 0.960 . S
C2044 H2030 0.960 . S
C2044 H2031 0.960 . S
C2044 C2043 1.524 . S
C2045 C2042 1.403 . S
C2045 C2046 1.392 . S
C2045 C2049 1.495 . S
C2046 C2045 1.392 . S
C2046 C2047 1.385 1_545 S
C2046 C2048 1.478 . S
C2047 H2041 0.930 . S
C2047 C2043 1.400 . S
C2047 C2046 1.385 1_565 S
C2048 C2046 1.478 . S
C2048 C2050 1.381 . S
C2048 C2054 1.383 . S
C2049 C2045 1.495 . S
C2049 H2055 0.959 . S
C2049 H2056 0.961 . S
C2049 H2057 0.960 . S
C2050 C2048 1.381 . S
C2050 C2051 1.394 . S
C2050 H2058 0.930 . S
C2051 C2050 1.394 . S
C2051 C2052 1.383 . S
C2051 H2059 0.929 . S
C2052 C2051 1.383 . S
C2052 C2053 1.377 . S
C2053 H2037 0.930 . S
C2053 C2052 1.377 . S
C2053 C2054 1.379 . S
C2054 H2038 0.931 . S
C2054 C2048 1.383 . S
C2054 C2053 1.379 . S
H2055 C2049 0.959 . S
H2056 C2049 0.961 . S
H2057 C2049 0.960 . S
H2058 C2050 0.930 . S
H2059 C2051 0.929 . S
H2060 C2068 0.929 . S
H2061 C2070 0.930 . S
H2062 C2072 0.930 . S
H2063 C2075 0.929 . S
H2064 C2078 0.930 . S
H2065 C2080 0.960 . S
H2066 C2080 0.960 . S
H2067 C2080 0.960 . S
C2068 H2060 0.929 . S
C2068 C2069 1.377 . S
C2068 C2070 1.384 . S
C2069 C2068 1.377 . S
C2069 C2075 1.390 . S
C2070 H2061 0.930 . S
C2070 C2068 1.384 . S
C2070 C2071 1.372 . S
C2071 C2070 1.372 . S
C2071 C2072 1.400 . S
C2071 C2076 1.490 . S
C2072 H2062 0.930 . S
C2072 C2071 1.400 . S
C2072 C2075 1.386 . S
H2073 C2089 0.930 . S
H2074 C2090 0.931 . S
C2075 H2063 0.929 . S
C2075 C2069 1.390 . S
C2075 C2072 1.386 . S
C2076 C2071 1.490 . S
C2076 C2078 1.395 . S
C2076 C2079 1.403 . S
H2077 C2083 0.930 . S
C2078 H2064 0.930 . S
C2078 C2076 1.395 . S
C2078 C2081 1.403 . S
C2079 C2076 1.403 . S
C2079 C2080 1.524 . S
C2079 C2083 1.400 . S
C2080 H2065 0.960 . S
C2080 H2066 0.960 . S
C2080 H2067 0.960 . S
C2080 C2079 1.524 . S
C2081 C2078 1.403 . S
C2081 C2082 1.392 . S
C2081 C2085 1.495 . S
C2082 C2081 1.392 . S
C2082 C2083 1.385 . S
C2082 C2084 1.478 . S
C2083 H2077 0.930 . S
C2083 C2079 1.400 . S
C2083 C2082 1.385 . S
C2084 C2082 1.478 . S
C2084 C2086 1.381 . S
C2084 C2090 1.383 . S
C2085 C2081 1.495 . S
C2085 H2091 0.959 . S
C2085 H2092 0.961 . S
C2085 H2093 0.960 . S
C2086 C2084 1.381 . S
C2086 C2087 1.394 . S
C2086 H2094 0.930 . S
C2087 C2086 1.394 . S
C2087 C2088 1.383 . S
C2087 H2095 0.929 . S
C2088 C2087 1.383 . S
C2088 C2089 1.377 . S
C2089 H2073 0.930 . S
C2089 C2088 1.377 . S
C2089 C2090 1.379 . S
C2090 H2074 0.931 . S
C2090 C2084 1.383 . S
C2090 C2089 1.379 . S
H2091 C2085 0.959 . S
H2092 C2085 0.961 . S
H2093 C2085 0.960 . S
H2094 C2086 0.930 . S
H2095 C2087 0.929 . S
H2096 C2104 0.929 . S
H2097 C2106 0.930 . S
H2098 C2108 0.922 1_556 S
H2099 C2111 0.929 . S
H2100 C2114 0.930 . S
H2101 C2116 0.960 . S
H2102 C2116 0.960 . S
H2103 C2116 0.960 . S
C2104 H2096 0.929 . S
C2104 C2105 1.377 . S
C2104 C2106 1.384 . S
C2105 C2104 1.377 . S
C2105 C2111 1.390 . S
C2106 H2097 0.930 . S
C2106 C2104 1.384 . S
C2106 C2107 1.372 . S
C2107 C2106 1.372 . S
C2107 C2108 1.400 . S
C2107 C2112 1.490 . S
C2108 H2098 0.922 1_554 S
C2108 C2107 1.400 . S
C2108 C2111 1.386 . S
H2109 C2125 0.930 . S
H2110 C2126 0.931 . S
C2111 H2099 0.929 . S
C2111 C2105 1.390 . S
C2111 C2108 1.386 . S
C2112 C2107 1.490 . S
C2112 C2114 1.395 . S
C2112 C2115 1.403 . S
H2113 C2119 0.930 . S
C2114 H2100 0.930 . S
C2114 C2112 1.395 . S
C2114 C2117 1.403 . S
C2115 C2112 1.403 . S
C2115 C2116 1.524 . S
C2115 C2119 1.400 . S
C2116 H2101 0.960 . S
C2116 H2102 0.960 . S
C2116 H2103 0.960 . S
C2116 C2115 1.524 . S
C2117 C2114 1.403 . S
C2117 C2118 1.392 . S
C2117 C2121 1.495 1_554 S
C2118 C2117 1.392 . S
C2118 C2119 1.385 . S
C2118 C2120 1.478 . S
C2119 H2113 0.930 . S
C2119 C2115 1.400 . S
C2119 C2118 1.385 . S
C2120 C2118 1.478 . S
C2120 C2122 1.381 . S
C2120 C2126 1.383 1_554 S
C2121 C2117 1.495 1_556 S
C2121 H2127 0.959 . S
C2121 H2128 0.961 . S
C2121 H2129 0.960 1_556 S
C2122 C2120 1.381 . S
C2122 C2123 1.394 . S
C2122 H2130 0.930 . S
C2123 C2122 1.394 . S
C2123 C2124 1.383 . S
C2123 H2131 0.929 . S
C2124 C2123 1.383 . S
C2124 C2125 1.377 1_554 S
C2125 H2109 0.930 . S
C2125 C2124 1.377 1_556 S
C2125 C2126 1.379 . S
C2126 H2110 0.931 . S
C2126 C2120 1.383 1_556 S
C2126 C2125 1.379 . S
H2127 C2121 0.959 . S
H2128 C2121 0.961 . S
H2129 C2121 0.960 1_554 S
H2130 C2122 0.930 . S
H2131 C2123 0.929 . S
H2132 C2140 0.929 . S
H2133 C2142 0.930 . S
H2134 C2144 0.930 . S
H2135 C2147 0.929 . S
H2136 C2150 0.930 . S
H2137 C2152 0.960 . S
H2138 C2152 0.960 . S
H2139 C2152 0.960 . S
C2140 H2132 0.929 . S
C2140 C2141 1.377 . S
C2140 C2142 1.384 . S
C2141 C2140 1.377 . S
C2141 C2147 1.390 . S
C2142 H2133 0.930 . S
C2142 C2140 1.384 . S
C2142 C2143 1.372 . S
C2143 C2142 1.372 . S
C2143 C2144 1.400 . S
C2143 C2148 1.490 . S
C2144 H2134 0.930 . S
C2144 C2143 1.400 . S
C2144 C2147 1.386 . S
H2145 C2161 0.965 . S
H2146 C2162 0.931 . S
C2147 H2135 0.929 . S
C2147 C2141 1.390 . S
C2147 C2144 1.386 . S
C2148 C2143 1.490 . S
C2148 C2150 1.395 . S
C2148 C2151 1.403 . S
H2149 C2155 0.930 . S
C2150 H2136 0.930 . S
C2150 C2148 1.395 . S
C2150 C2153 1.403 . S
C2151 C2148 1.403 . S
C2151 C2152 1.524 . S
C2151 C2155 1.400 . S
C2152 H2137 0.960 . S
C2152 H2138 0.960 . S
C2152 H2139 0.960 . S
C2152 C2151 1.524 . S
C2153 C2150 1.403 . S
C2153 C2154 1.392 . S
C2153 C2157 1.495 . S
C2154 C2153 1.392 . S
C2154 C2155 1.385 . S
C2154 C2156 1.478 . S
C2155 H2149 0.930 . S
C2155 C2151 1.400 . S
C2155 C2154 1.385 . S
C2156 C2154 1.478 . S
C2156 C2158 1.381 . S
C2156 C2162 1.383 . S
C2157 C2153 1.495 . S
C2157 H2163 0.959 . S
C2157 H2164 0.961 . S
C2157 H2165 0.960 . S
C2158 C2156 1.381 . S
C2158 C2159 1.394 . S
C2158 H2166 0.930 . S
C2159 C2158 1.394 . S
C2159 C2160 1.383 . S
C2159 H2167 0.929 . S
C2160 C2159 1.383 . S
C2160 C2161 1.377 . S
C2161 H2145 0.965 . S
C2161 C2160 1.377 . S
C2161 C2162 1.379 . S
C2162 H2146 0.931 . S
C2162 C2156 1.383 . S
C2162 C2161 1.379 . S
H2163 C2157 0.959 . S
H2164 C2157 0.961 . S
H2165 C2157 0.960 . S
H2166 C2158 0.930 . S
H2167 C2159 0.929 . S
H2168 C2176 0.929 . S
H2169 C2178 0.930 . S
H2170 C2180 0.930 . S
H2171 C2183 0.929 . S
H2172 C2186 0.930 . S
H2173 C2188 0.960 . S
H2174 C2188 0.960 . S
H2175 C2188 0.960 . S
C2176 H2168 0.929 . S
C2176 C2177 1.377 . S
C2176 C2178 1.384 . S
C2177 C2176 1.377 . S
C2177 C2183 1.390 . S
C2178 H2169 0.930 . S
C2178 C2176 1.384 . S
C2178 C2179 1.372 . S
C2179 C2178 1.372 . S
C2179 C2180 1.400 . S
C2179 C2184 1.490 . S
C2180 H2170 0.930 . S
C2180 C2179 1.400 . S
C2180 C2183 1.386 . S
H2181 C2197 0.930 . S
H2182 C2198 0.931 . S
C2183 H2171 0.929 . S
C2183 C2177 1.390 . S
C2183 C2180 1.386 . S
C2184 C2179 1.490 . S
C2184 C2186 1.395 . S
C2184 C2187 1.403 . S
H2185 C2191 0.930 . S
C2186 H2172 0.930 . S
C2186 C2184 1.395 . S
C2186 C2189 1.403 . S
C2187 C2184 1.403 . S
C2187 C2188 1.524 . S
C2187 C2191 1.400 . S
C2188 H2173 0.960 . S
C2188 H2174 0.960 . S
C2188 H2175 0.960 . S
C2188 C2187 1.524 . S
C2189 C2186 1.403 . S
C2189 C2190 1.392 . S
C2189 C2193 1.495 . S
C2190 C2189 1.392 . S
C2190 C2191 1.385 . S
C2190 C2192 1.478 . S
C2191 H2185 0.930 . S
C2191 C2187 1.400 . S
C2191 C2190 1.385 . S
C2192 C2190 1.478 . S
C2192 C2194 1.381 . S
C2192 C2198 1.383 . S
C2193 C2189 1.495 . S
C2193 H2199 0.959 . S
C2193 H2200 0.961 . S
C2193 H2201 0.960 . S
C2194 C2192 1.381 . S
C2194 C2195 1.394 . S
C2194 H2202 0.930 . S
C2195 C2194 1.394 . S
C2195 C2196 1.383 . S
C2195 H2203 0.929 . S
C2196 C2195 1.383 . S
C2196 C2197 1.377 . S
C2197 H2181 0.930 . S
C2197 C2196 1.377 . S
C2197 C2198 1.379 . S
C2198 H2182 0.931 . S
C2198 C2192 1.383 . S
C2198 C2197 1.379 . S
H2199 C2193 0.959 . S
H2200 C2193 0.961 . S
H2201 C2193 0.960 . S
H2202 C2194 0.930 . S
H2203 C2195 0.929 . S
H2204 C2212 0.929 . S
H2205 C2214 0.930 . S
H2206 C2216 0.930 . S
H2207 C2219 0.929 . S
H2208 C2222 0.930 . S
H2209 C2224 0.960 . S
H2210 C2224 0.960 . S
H2211 C2224 0.960 . S
C2212 H2204 0.929 . S
C2212 C2213 1.377 . S
C2212 C2214 1.384 . S
C2213 C2212 1.377 . S
C2213 C2219 1.390 . S
C2214 H2205 0.930 . S
C2214 C2212 1.384 . S
C2214 C2215 1.372 . S
C2215 C2214 1.372 . S
C2215 C2216 1.400 . S
C2215 C2220 1.490 . S
C2216 H2206 0.930 . S
C2216 C2215 1.400 . S
C2216 C2219 1.386 . S
H2217 C2233 0.930 . S
H2218 C2234 0.931 . S
C2219 H2207 0.929 . S
C2219 C2213 1.390 . S
C2219 C2216 1.386 . S
C2220 C2215 1.490 . S
C2220 C2222 1.395 . S
C2220 C2223 1.403 . S
H2221 C2227 0.930 . S
C2222 H2208 0.930 . S
C2222 C2220 1.395 . S
C2222 C2225 1.403 . S
C2223 C2220 1.403 . S
C2223 C2224 1.524 . S
C2223 C2227 1.400 . S
C2224 H2209 0.960 . S
C2224 H2210 0.960 . S
C2224 H2211 0.960 . S
C2224 C2223 1.524 . S
C2225 C2222 1.403 . S
C2225 C2226 1.392 . S
C2225 C2229 1.495 . S
C2226 C2225 1.392 . S
C2226 C2227 1.385 . S
C2226 C2228 1.478 . S
C2227 H2221 0.930 . S
C2227 C2223 1.400 . S
C2227 C2226 1.385 . S
C2228 C2226 1.478 . S
C2228 C2230 1.381 . S
C2228 C2234 1.383 . S
C2229 C2225 1.495 . S
C2229 H2235 0.959 . S
C2229 H2236 0.961 . S
C2229 H2237 0.960 . S
C2230 C2228 1.381 . S
C2230 C2231 1.394 . S
C2230 H2238 0.930 . S
C2231 C2230 1.394 . S
C2231 C2232 1.383 . S
C2231 H2239 0.929 . S
C2232 C2231 1.383 . S
C2232 C2233 1.377 . S
C2233 H2217 0.930 . S
C2233 C2232 1.377 . S
C2233 C2234 1.379 . S
C2234 H2218 0.931 . S
C2234 C2228 1.383 . S
C2234 C2233 1.379 . S
H2235 C2229 0.959 . S
H2236 C2229 0.961 . S
H2237 C2229 0.960 . S
H2238 C2230 0.930 . S
H2239 C2231 0.929 . S
H2240 C2248 0.929 . S
H2241 C2250 0.930 . S
H2242 C2252 0.930 . S
H2243 C2255 0.929 . S
H2244 C2258 0.930 . S
H2245 C2260 0.960 . S
H2246 C2260 0.960 . S
H2247 C2260 0.960 . S
C2248 H2240 0.929 . S
C2248 C2249 1.377 . S
C2248 C2250 1.384 . S
C2249 C2248 1.377 . S
C2249 C2255 1.390 . S
C2250 H2241 0.930 . S
C2250 C2248 1.384 . S
C2250 C2251 1.372 . S
C2251 C2250 1.372 . S
C2251 C2252 1.400 . S
C2251 C2256 1.490 . S
C2252 H2242 0.930 . S
C2252 C2251 1.400 . S
C2252 C2255 1.386 . S
H2253 C2269 0.930 . S
H2254 C2270 0.931 . S
C2255 H2243 0.929 . S
C2255 C2249 1.390 . S
C2255 C2252 1.386 . S
C2256 C2251 1.490 . S
C2256 C2258 1.395 . S
C2256 C2259 1.403 . S
H2257 C2263 0.930 . S
C2258 H2244 0.930 . S
C2258 C2256 1.395 . S
C2258 C2261 1.403 . S
C2259 C2256 1.403 . S
C2259 C2260 1.524 . S
C2259 C2263 1.400 . S
C2260 H2245 0.960 . S
C2260 H2246 0.960 . S
C2260 H2247 0.960 . S
C2260 C2259 1.524 . S
C2261 C2258 1.403 . S
C2261 C2262 1.392 . S
C2261 C2265 1.495 . S
C2262 C2261 1.392 . S
C2262 C2263 1.385 . S
C2262 C2264 1.478 . S
C2263 H2257 0.930 . S
C2263 C2259 1.400 . S
C2263 C2262 1.385 . S
C2264 C2262 1.478 . S
C2264 C2266 1.381 . S
C2264 C2270 1.383 . S
C2265 C2261 1.495 . S
C2265 H2271 0.959 . S
C2265 H2272 0.961 . S
C2265 H2273 0.960 . S
C2266 C2264 1.381 . S
C2266 C2267 1.394 . S
C2266 H2274 0.930 . S
C2267 C2266 1.394 . S
C2267 C2268 1.383 . S
C2267 H2275 0.929 . S
C2268 C2267 1.383 . S
C2268 C2269 1.377 . S
C2269 H2253 0.930 . S
C2269 C2268 1.377 . S
C2269 C2270 1.379 . S
C2270 H2254 0.931 . S
C2270 C2264 1.383 . S
C2270 C2269 1.379 . S
H2271 C2265 0.959 . S
H2272 C2265 0.961 . S
H2273 C2265 0.960 . S
H2274 C2266 0.930 . S
H2275 C2267 0.929 . S
H2276 C2284 0.929 . S
H2277 C2286 0.930 . S
H2278 C2288 0.930 . S
H2279 C2291 0.929 . S
H2280 C2294 0.930 . S
H2281 C2296 0.960 . S
H2282 C2296 0.960 . S
H2283 C2296 0.960 . S
C2284 H2276 0.929 . S
C2284 C2285 1.377 . S
C2284 C2286 1.384 . S
C2285 C2284 1.377 . S
C2285 C2291 1.390 . S
C2286 H2277 0.930 . S
C2286 C2284 1.384 . S
C2286 C2287 1.372 . S
C2287 C2286 1.372 . S
C2287 C2288 1.400 . S
C2287 C2292 1.490 . S
C2288 H2278 0.930 . S
C2288 C2287 1.400 . S
C2288 C2291 1.386 . S
H2289 C2305 0.930 . S
H2290 C2306 0.931 . S
C2291 H2279 0.929 . S
C2291 C2285 1.390 . S
C2291 C2288 1.386 . S
C2292 C2287 1.490 . S
C2292 C2294 1.395 . S
C2292 C2295 1.403 . S
H2293 C2299 0.930 . S
C2294 H2280 0.930 . S
C2294 C2292 1.395 . S
C2294 C2297 1.403 . S
C2295 C2292 1.403 . S
C2295 C2296 1.524 . S
C2295 C2299 1.400 . S
C2296 H2281 0.960 . S
C2296 H2282 0.960 . S
C2296 H2283 0.960 . S
C2296 C2295 1.524 . S
C2297 C2294 1.403 . S
C2297 C2298 1.392 . S
C2297 C2301 1.495 . S
C2298 C2297 1.392 . S
C2298 C2299 1.385 . S
C2298 C2300 1.478 . S
C2299 H2293 0.930 . S
C2299 C2295 1.400 . S
C2299 C2298 1.385 . S
C2300 C2298 1.478 . S
C2300 C2302 1.381 . S
C2300 C2306 1.383 . S
C2301 C2297 1.495 . S
C2301 H2307 0.959 . S
C2301 H2308 0.961 . S
C2301 H2309 0.960 . S
C2302 C2300 1.381 . S
C2302 C2303 1.394 . S
C2302 H2310 0.930 . S
C2303 C2302 1.394 . S
C2303 C2304 1.383 . S
C2303 H2311 0.929 . S
C2304 C2303 1.383 . S
C2304 C2305 1.377 . S
C2305 H2289 0.930 . S
C2305 C2304 1.377 . S
C2305 C2306 1.379 . S
C2306 H2290 0.931 . S
C2306 C2300 1.383 . S
C2306 C2305 1.379 . S
H2307 C2301 0.959 . S
H2308 C2301 0.961 . S
H2309 C2301 0.960 . S
H2310 C2302 0.930 . S
H2311 C2303 0.929 . S
H2312 C2320 0.929 . S
H2313 C2322 0.930 . S
H2314 C2324 0.930 . S
H2315 C2327 0.929 . S
H2316 C2330 0.930 . S
H2317 C2332 0.960 . S
H2318 C2332 0.960 . S
H2319 C2332 0.960 . S
C2320 H2312 0.929 . S
C2320 C2321 1.377 . S
C2320 C2322 1.384 . S
C2321 C2320 1.377 . S
C2321 C2327 1.390 . S
C2322 H2313 0.930 . S
C2322 C2320 1.384 . S
C2322 C2323 1.372 . S
C2323 C2322 1.372 . S
C2323 C2324 1.400 . S
C2323 C2328 1.490 . S
C2324 H2314 0.930 . S
C2324 C2323 1.400 . S
C2324 C2327 1.386 . S
H2325 C2341 0.930 . S
H2326 C2342 0.931 . S
C2327 H2315 0.929 . S
C2327 C2321 1.390 . S
C2327 C2324 1.386 . S
C2328 C2323 1.490 . S
C2328 C2330 1.395 . S
C2328 C2331 1.403 . S
H2329 C2335 0.930 . S
C2330 H2316 0.930 . S
C2330 C2328 1.395 . S
C2330 C2333 1.403 . S
C2331 C2328 1.403 . S
C2331 C2332 1.524 . S
C2331 C2335 1.400 . S
C2332 H2317 0.960 . S
C2332 H2318 0.960 . S
C2332 H2319 0.960 . S
C2332 C2331 1.524 . S
C2333 C2330 1.403 . S
C2333 C2334 1.392 . S
C2333 C2337 1.495 . S
C2334 C2333 1.392 . S
C2334 C2335 1.385 . S
C2334 C2336 1.478 . S
C2335 H2329 0.930 . S
C2335 C2331 1.400 . S
C2335 C2334 1.385 . S
C2336 C2334 1.478 . S
C2336 C2338 1.381 . S
C2336 C2342 1.383 . S
C2337 C2333 1.495 . S
C2337 H2343 0.959 . S
C2337 H2344 0.961 . S
C2337 H2345 0.960 . S
C2338 C2336 1.381 . S
C2338 C2339 1.394 . S
C2338 H2346 0.930 . S
C2339 C2338 1.394 . S
C2339 C2340 1.383 . S
C2339 H2347 0.929 . S
C2340 C2339 1.383 . S
C2340 C2341 1.377 . S
C2341 H2325 0.930 . S
C2341 C2340 1.377 . S
C2341 C2342 1.379 . S
C2342 H2326 0.931 . S
C2342 C2336 1.383 . S
C2342 C2341 1.379 . S
H2343 C2337 0.959 . S
H2344 C2337 0.961 . S
H2345 C2337 0.960 . S
H2346 C2338 0.930 . S
H2347 C2339 0.929 . S
H2348 C2356 0.929 . S
H2349 C2358 0.930 . S
H2350 C2360 0.930 . S
H2351 C2363 0.929 . S
H2352 C2366 0.930 . S
H2353 C2368 0.960 . S
H2354 C2368 0.960 . S
H2355 C2368 0.960 . S
C2356 H2348 0.929 . S
C2356 C2357 1.377 . S
C2356 C2358 1.384 . S
C2357 C2356 1.377 . S
C2357 C2363 1.390 . S
C2358 H2349 0.930 . S
C2358 C2356 1.384 . S
C2358 C2359 1.372 . S
C2359 C2358 1.372 . S
C2359 C2360 1.400 . S
C2359 C2364 1.490 . S
C2360 H2350 0.930 . S
C2360 C2359 1.400 . S
C2360 C2363 1.386 . S
H2361 C2377 0.930 . S
H2362 C2378 0.931 . S
C2363 H2351 0.929 . S
C2363 C2357 1.390 . S
C2363 C2360 1.386 . S
C2364 C2359 1.490 . S
C2364 C2366 1.395 . S
C2364 C2367 1.403 . S
H2365 C2371 0.930 . S
C2366 H2352 0.930 . S
C2366 C2364 1.395 . S
C2366 C2369 1.403 . S
C2367 C2364 1.403 . S
C2367 C2368 1.524 . S
C2367 C2371 1.400 . S
C2368 H2353 0.960 . S
C2368 H2354 0.960 . S
C2368 H2355 0.960 . S
C2368 C2367 1.524 . S
C2369 C2366 1.403 . S
C2369 C2370 1.392 . S
C2369 C2373 1.495 . S
C2370 C2369 1.392 . S
C2370 C2371 1.385 . S
C2370 C2372 1.478 . S
C2371 H2365 0.930 . S
C2371 C2367 1.400 . S
C2371 C2370 1.385 . S
C2372 C2370 1.478 . S
C2372 C2374 1.381 . S
C2372 C2378 1.383 . S
C2373 C2369 1.495 . S
C2373 H2379 0.959 . S
C2373 H2380 0.961 . S
C2373 H2381 0.960 . S
C2374 C2372 1.381 . S
C2374 C2375 1.394 . S
C2374 H2382 0.930 . S
C2375 C2374 1.394 . S
C2375 C2376 1.383 . S
C2375 H2383 0.929 . S
C2376 C2375 1.383 . S
C2376 C2377 1.377 . S
C2377 H2361 0.930 . S
C2377 C2376 1.377 . S
C2377 C2378 1.379 . S
C2378 H2362 0.931 . S
C2378 C2372 1.383 . S
C2378 C2377 1.379 . S
H2379 C2373 0.959 . S
H2380 C2373 0.961 . S
H2381 C2373 0.960 . S
H2382 C2374 0.930 . S
H2383 C2375 0.929 . S
H2384 C2392 0.929 . S
H2385 C2394 0.930 . S
H2386 C2396 0.930 . S
H2387 C2399 0.929 . S
H2388 C2402 0.930 . S
H2389 C2404 0.960 . S
H2390 C2404 0.960 . S
H2391 C2404 0.960 . S
C2392 H2384 0.929 . S
C2392 C2393 1.377 . S
C2392 C2394 1.384 . S
C2393 C2392 1.377 . S
C2393 C2399 1.390 . S
C2394 H2385 0.930 . S
C2394 C2392 1.384 . S
C2394 C2395 1.372 . S
C2395 C2394 1.372 . S
C2395 C2396 1.400 . S
C2395 C2400 1.490 . S
C2396 H2386 0.930 . S
C2396 C2395 1.400 . S
C2396 C2399 1.386 . S
H2397 C2413 0.930 . S
H2398 C2414 0.931 . S
C2399 H2387 0.929 . S
C2399 C2393 1.390 . S
C2399 C2396 1.386 . S
C2400 C2395 1.490 . S
C2400 C2402 1.395 . S
C2400 C2403 1.403 . S
H2401 C2407 0.930 . S
C2402 H2388 0.930 . S
C2402 C2400 1.395 . S
C2402 C2405 1.403 . S
C2403 C2400 1.403 . S
C2403 C2404 1.524 . S
C2403 C2407 1.400 . S
C2404 H2389 0.960 . S
C2404 H2390 0.960 . S
C2404 H2391 0.960 . S
C2404 C2403 1.524 . S
C2405 C2402 1.403 . S
C2405 C2406 1.392 . S
C2405 C2409 1.495 . S
C2406 C2405 1.392 . S
C2406 C2407 1.385 . S
C2406 C2408 1.478 . S
C2407 H2401 0.930 . S
C2407 C2403 1.400 . S
C2407 C2406 1.385 . S
C2408 C2406 1.478 . S
C2408 C2410 1.381 . S
C2408 C2414 1.383 . S
C2409 C2405 1.495 . S
C2409 H2415 0.959 . S
C2409 H2416 0.961 . S
C2409 H2417 0.960 . S
C2410 C2408 1.381 . S
C2410 C2411 1.394 . S
C2410 H2418 0.930 . S
C2411 C2410 1.394 . S
C2411 C2412 1.383 . S
C2411 H2419 0.929 . S
C2412 C2411 1.383 . S
C2412 C2413 1.377 . S
C2413 H2397 0.930 . S
C2413 C2412 1.377 . S
C2413 C2414 1.379 . S
C2414 H2398 0.931 . S
C2414 C2408 1.383 . S
C2414 C2413 1.379 . S
H2415 C2409 0.959 . S
H2416 C2409 0.961 . S
H2417 C2409 0.960 . S
H2418 C2410 0.930 . S
H2419 C2411 0.929 . S
H2420 C2428 0.929 . S
H2421 C2430 0.930 . S
H2422 C2432 0.930 . S
H2423 C2435 0.929 . S
H2424 C2438 0.930 . S
H2425 C2440 0.960 . S
H2426 C2440 0.960 . S
H2427 C2440 0.960 . S
C2428 H2420 0.929 . S
C2428 C2429 1.377 . S
C2428 C2430 1.384 . S
C2429 C2428 1.377 . S
C2429 C2435 1.390 . S
C2430 H2421 0.930 . S
C2430 C2428 1.384 . S
C2430 C2431 1.372 . S
C2431 C2430 1.372 . S
C2431 C2432 1.400 . S
C2431 C2436 1.490 . S
C2432 H2422 0.930 . S
C2432 C2431 1.400 . S
C2432 C2435 1.386 . S
H2433 C2449 0.930 . S
H2434 C2450 0.931 . S
C2435 H2423 0.929 . S
C2435 C2429 1.390 . S
C2435 C2432 1.386 . S
C2436 C2431 1.490 . S
C2436 C2438 1.395 . S
C2436 C2439 1.403 . S
H2437 C2443 0.930 . S
C2438 H2424 0.930 . S
C2438 C2436 1.395 . S
C2438 C2441 1.403 . S
C2439 C2436 1.403 . S
C2439 C2440 1.524 . S
C2439 C2443 1.400 . S
C2440 H2425 0.960 . S
C2440 H2426 0.960 . S
C2440 H2427 0.960 . S
C2440 C2439 1.524 . S
C2441 C2438 1.403 . S
C2441 C2442 1.392 . S
C2441 C2445 1.495 . S
C2442 C2441 1.392 . S
C2442 C2443 1.385 . S
C2442 C2444 1.478 . S
C2443 H2437 0.930 . S
C2443 C2439 1.400 . S
C2443 C2442 1.385 . S
C2444 C2442 1.478 . S
C2444 C2446 1.381 . S
C2444 C2450 1.383 . S
C2445 C2441 1.495 . S
C2445 H2451 0.959 . S
C2445 H2452 0.961 . S
C2445 H2453 0.960 . S
C2446 C2444 1.381 . S
C2446 C2447 1.394 . S
C2446 H2454 0.930 . S
C2447 C2446 1.394 . S
C2447 C2448 1.383 . S
C2447 H2455 0.929 . S
C2448 C2447 1.383 . S
C2448 C2449 1.377 . S
C2449 H2433 0.930 . S
C2449 C2448 1.377 . S
C2449 C2450 1.379 . S
C2450 H2434 0.931 . S
C2450 C2444 1.383 . S
C2450 C2449 1.379 . S
H2451 C2445 0.959 . S
H2452 C2445 0.961 . S
H2453 C2445 0.960 . S
H2454 C2446 0.930 . S
H2455 C2447 0.929 . S
H2456 C2464 0.929 . S
H2457 C2466 0.930 . S
H2458 C2468 0.930 . S
H2459 C2471 0.929 . S
H2460 C2474 0.930 . S
H2461 C2476 0.960 . S
H2462 C2476 0.960 . S
H2463 C2476 0.960 . S
C2464 H2456 0.929 . S
C2464 C2465 1.377 1_655 S
C2464 C2466 1.384 . S
C2465 C2464 1.377 1_455 S
C2465 C2471 1.390 . S
C2466 H2457 0.930 . S
C2466 C2464 1.384 . S
C2466 C2467 1.372 1_655 S
C2467 C2466 1.372 1_455 S
C2467 C2468 1.400 . S
C2467 C2472 1.490 . S
C2468 H2458 0.930 . S
C2468 C2467 1.400 . S
C2468 C2471 1.386 . S
H2469 C2485 0.930 1_554 S
H2470 C2486 0.931 . S
C2471 H2459 0.929 . S
C2471 C2465 1.390 . S
C2471 C2468 1.386 . S
C2472 C2467 1.490 . S
C2472 C2474 1.395 1_455 S
C2472 C2475 1.403 . S
H2473 C2479 0.930 . S
C2474 H2460 0.930 . S
C2474 C2472 1.395 1_655 S
C2474 C2477 1.403 . S
C2475 C2472 1.403 . S
C2475 C2476 1.524 . S
C2475 C2479 1.400 . S
C2476 H2461 0.960 . S
C2476 H2462 0.960 . S
C2476 H2463 0.960 . S
C2476 C2475 1.524 . S
C2477 C2474 1.403 . S
C2477 C2478 1.392 1_655 S
C2477 C2481 1.502 1_556 S
C2478 C2477 1.392 1_455 S
C2478 C2479 1.385 . S
C2478 C2480 1.478 . S
C2479 H2473 0.930 . S
C2479 C2475 1.400 . S
C2479 C2478 1.385 . S
C2480 C2478 1.478 . S
C2480 C2482 1.381 1_455 S
C2480 C2486 1.383 . S
C2481 C2477 1.502 1_554 S
C2481 H2487 0.957 . S
C2481 H2488 0.917 1_655 S
C2481 H2489 0.956 . S
C2482 C2480 1.381 1_655 S
C2482 C2483 1.394 . S
C2482 H2490 0.930 . S
C2483 C2482 1.394 . S
C2483 C2484 1.383 1_656 S
C2483 H2491 0.929 . S
C2484 C2483 1.383 1_454 S
C2484 C2485 1.377 1_554 S
C2485 H2469 0.930 1_556 S
C2485 C2484 1.377 1_556 S
C2485 C2486 1.379 . S
C2486 H2470 0.931 . S
C2486 C2480 1.383 . S
C2486 C2485 1.379 . S
H2487 C2481 0.957 . S
H2488 C2481 0.917 1_455 S
H2489 C2481 0.956 . S
H2490 C2482 0.930 . S
H2491 C2483 0.929 . S
H2492 C2500 0.929 . S
H2493 C2502 0.930 . S
H2494 C2504 0.930 . S
H2495 C2507 0.929 . S
H2496 C2510 0.930 . S
H2497 C2512 0.960 . S
H2498 C2512 0.960 . S
H2499 C2512 0.960 . S
C2500 H2492 0.929 . S
C2500 C2501 1.377 . S
C2500 C2502 1.384 . S
C2501 C2500 1.377 . S
C2501 C2507 1.390 . S
C2502 H2493 0.930 . S
C2502 C2500 1.384 . S
C2502 C2503 1.372 . S
C2503 C2502 1.372 . S
C2503 C2504 1.400 . S
C2503 C2508 1.490 . S
C2504 H2494 0.930 . S
C2504 C2503 1.400 . S
C2504 C2507 1.386 . S
H2505 C2521 0.930 . S
H2506 C2522 0.931 . S
C2507 H2495 0.929 . S
C2507 C2501 1.390 . S
C2507 C2504 1.386 . S
C2508 C2503 1.490 . S
C2508 C2510 1.395 . S
C2508 C2511 1.403 . S
H2509 C2515 0.930 . S
C2510 H2496 0.930 . S
C2510 C2508 1.395 . S
C2510 C2513 1.403 . S
C2511 C2508 1.403 . S
C2511 C2512 1.524 . S
C2511 C2515 1.400 . S
C2512 H2497 0.960 . S
C2512 H2498 0.960 . S
C2512 H2499 0.960 . S
C2512 C2511 1.524 . S
C2513 C2510 1.403 . S
C2513 C2514 1.392 . S
C2513 C2517 1.495 . S
C2514 C2513 1.392 . S
C2514 C2515 1.385 . S
C2514 C2516 1.478 . S
C2515 H2509 0.930 . S
C2515 C2511 1.400 . S
C2515 C2514 1.385 . S
C2516 C2514 1.478 . S
C2516 C2518 1.381 . S
C2516 C2522 1.383 . S
C2517 C2513 1.495 . S
C2517 H2523 0.959 . S
C2517 H2524 0.961 . S
C2517 H2525 0.960 . S
C2518 C2516 1.381 . S
C2518 C2519 1.394 . S
C2518 H2526 0.930 . S
C2519 C2518 1.394 . S
C2519 C2520 1.383 . S
C2519 H2527 0.929 . S
C2520 C2519 1.383 . S
C2520 C2521 1.377 . S
C2521 H2505 0.930 . S
C2521 C2520 1.377 . S
C2521 C2522 1.379 . S
C2522 H2506 0.931 . S
C2522 C2516 1.383 . S
C2522 C2521 1.379 . S
H2523 C2517 0.959 . S
H2524 C2517 0.961 . S
H2525 C2517 0.960 . S
H2526 C2518 0.930 . S
H2527 C2519 0.929 . S
H2528 C2536 0.929 . S
H2529 C2538 0.930 . S
H2530 C2540 0.930 . S
H2531 C2543 0.929 . S
H2532 C2546 0.930 . S
H2533 C2548 0.960 . S
H2534 C2548 0.960 . S
H2535 C2548 0.960 . S
C2536 H2528 0.929 . S
C2536 C2537 1.377 . S
C2536 C2538 1.384 . S
C2537 C2536 1.377 . S
C2537 C2543 1.390 . S
C2538 H2529 0.930 . S
C2538 C2536 1.384 . S
C2538 C2539 1.372 . S
C2539 C2538 1.372 . S
C2539 C2540 1.400 . S
C2539 C2544 1.490 . S
C2540 H2530 0.930 . S
C2540 C2539 1.400 . S
C2540 C2543 1.386 . S
H2541 C2557 0.930 . S
H2542 C2558 0.931 . S
C2543 H2531 0.929 . S
C2543 C2537 1.390 . S
C2543 C2540 1.386 . S
C2544 C2539 1.490 . S
C2544 C2546 1.395 . S
C2544 C2547 1.403 . S
H2545 C2551 0.930 . S
C2546 H2532 0.930 . S
C2546 C2544 1.395 . S
C2546 C2549 1.403 . S
C2547 C2544 1.403 . S
C2547 C2548 1.524 . S
C2547 C2551 1.400 . S
C2548 H2533 0.960 . S
C2548 H2534 0.960 . S
C2548 H2535 0.960 . S
C2548 C2547 1.524 . S
C2549 C2546 1.403 . S
C2549 C2550 1.392 . S
C2549 C2553 1.495 . S
C2550 C2549 1.392 . S
C2550 C2551 1.385 . S
C2550 C2552 1.478 . S
C2551 H2545 0.930 . S
C2551 C2547 1.400 . S
C2551 C2550 1.385 . S
C2552 C2550 1.478 . S
C2552 C2554 1.381 . S
C2552 C2558 1.383 . S
C2553 C2549 1.495 . S
C2553 H2559 0.959 . S
C2553 H2560 0.961 . S
C2553 H2561 0.960 . S
C2554 C2552 1.381 . S
C2554 C2555 1.394 . S
C2554 H2562 0.930 . S
C2555 C2554 1.394 . S
C2555 C2556 1.383 . S
C2555 H2563 0.929 . S
C2556 C2555 1.383 . S
C2556 C2557 1.377 . S
C2557 H2541 0.930 . S
C2557 C2556 1.377 . S
C2557 C2558 1.379 . S
C2558 H2542 0.931 . S
C2558 C2552 1.383 . S
C2558 C2557 1.379 . S
H2559 C2553 0.959 . S
H2560 C2553 0.961 . S
H2561 C2553 0.960 . S
H2562 C2554 0.930 . S
H2563 C2555 0.929 . S
H2564 C2572 0.929 . S
H2565 C2574 0.930 . S
H2566 C2576 0.930 . S
H2567 C2579 0.929 . S
H2568 C2582 0.930 . S
H2569 C2584 0.960 . S
H2570 C2584 0.960 . S
H2571 C2584 0.960 . S
C2572 H2564 0.929 . S
C2572 C2573 1.377 . S
C2572 C2574 1.384 . S
C2573 C2572 1.377 . S
C2573 C2579 1.390 . S
C2574 H2565 0.930 . S
C2574 C2572 1.384 . S
C2574 C2575 1.372 . S
C2575 C2574 1.372 . S
C2575 C2576 1.400 . S
C2575 C2580 1.490 . S
C2576 H2566 0.930 . S
C2576 C2575 1.400 . S
C2576 C2579 1.386 . S
H2577 C2593 0.930 . S
H2578 C2594 0.931 . S
C2579 H2567 0.929 . S
C2579 C2573 1.390 . S
C2579 C2576 1.386 . S
C2580 C2575 1.490 . S
C2580 C2582 1.395 . S
C2580 C2583 1.403 . S
H2581 C2587 0.930 . S
C2582 H2568 0.930 . S
C2582 C2580 1.395 . S
C2582 C2585 1.403 . S
C2583 C2580 1.403 . S
C2583 C2584 1.524 . S
C2583 C2587 1.400 . S
C2584 H2569 0.960 . S
C2584 H2570 0.960 . S
C2584 H2571 0.960 . S
C2584 C2583 1.524 . S
C2585 C2582 1.403 . S
C2585 C2586 1.392 . S
C2585 C2589 1.495 . S
C2586 C2585 1.392 . S
C2586 C2587 1.385 . S
C2586 C2588 1.478 . S
C2587 H2581 0.930 . S
C2587 C2583 1.400 . S
C2587 C2586 1.385 . S
C2588 C2586 1.478 . S
C2588 C2590 1.381 . S
C2588 C2594 1.383 . S
C2589 C2585 1.495 . S
C2589 H2595 0.959 . S
C2589 H2596 0.961 . S
C2589 H2597 0.960 . S
C2590 C2588 1.381 . S
C2590 C2591 1.394 . S
C2590 H2598 0.930 . S
C2591 C2590 1.394 . S
C2591 C2592 1.383 . S
C2591 H2599 0.929 . S
C2592 C2591 1.383 . S
C2592 C2593 1.377 . S
C2593 H2577 0.930 . S
C2593 C2592 1.377 . S
C2593 C2594 1.379 . S
C2594 H2578 0.931 . S
C2594 C2588 1.383 . S
C2594 C2593 1.379 . S
H2595 C2589 0.959 . S
H2596 C2589 0.961 . S
H2597 C2589 0.960 . S
H2598 C2590 0.930 . S
H2599 C2591 0.929 . S
H2600 C2608 0.929 . S
H2601 C2610 0.930 . S
H2602 C2612 0.930 . S
H2603 C2615 0.929 . S
H2604 C2618 0.930 . S
H2605 C2620 0.960 . S
H2606 C2620 0.960 . S
H2607 C2620 0.960 . S
C2608 H2600 0.929 . S
C2608 C2609 1.377 1_655 S
C2608 C2610 1.384 . S
C2609 C2608 1.377 1_455 S
C2609 C2615 1.390 . S
C2610 H2601 0.930 . S
C2610 C2608 1.384 . S
C2610 C2611 1.372 1_655 S
C2611 C2610 1.372 1_455 S
C2611 C2612 1.400 . S
C2611 C2616 1.490 . S
C2612 H2602 0.930 . S
C2612 C2611 1.400 . S
C2612 C2615 1.386 . S
H2613 C2629 0.930 . S
H2614 C2630 0.931 . S
C2615 H2603 0.929 . S
C2615 C2609 1.390 . S
C2615 C2612 1.386 . S
C2616 C2611 1.490 . S
C2616 C2618 1.395 1_455 S
C2616 C2619 1.403 . S
H2617 C2623 0.930 . S
C2618 H2604 0.930 . S
C2618 C2616 1.395 1_655 S
C2618 C2621 1.403 . S
C2619 C2616 1.403 . S
C2619 C2620 1.524 . S
C2619 C2623 1.400 . S
C2620 H2605 0.960 . S
C2620 H2606 0.960 . S
C2620 H2607 0.960 . S
C2620 C2619 1.524 . S
C2621 C2618 1.403 . S
C2621 C2622 1.368 1_655 S
C2621 C2625 1.495 . S
C2622 C2621 1.368 1_455 S
C2622 C2623 1.404 . S
C2622 C2624 1.484 . S
C2623 H2617 0.930 . S
C2623 C2619 1.400 . S
C2623 C2622 1.404 . S
C2624 C2622 1.484 . S
C2624 C2626 1.381 1_455 S
C2624 C2630 1.383 . S
C2625 C2621 1.495 . S
C2625 H2631 0.959 . S
C2625 H2632 0.961 . S
C2625 H2633 0.960 . S
C2626 C2624 1.381 1_655 S
C2626 C2627 1.394 . S
C2626 H2634 0.930 . S
C2627 C2626 1.394 . S
C2627 C2628 1.383 1_655 S
C2627 H2635 0.929 . S
C2628 C2627 1.383 1_455 S
C2628 C2629 1.377 . S
C2629 H2613 0.930 . S
C2629 C2628 1.377 . S
C2629 C2630 1.379 . S
C2630 H2614 0.931 . S
C2630 C2624 1.383 . S
C2630 C2629 1.379 . S
H2631 C2625 0.959 . S
H2632 C2625 0.961 . S
H2633 C2625 0.960 . S
H2634 C2626 0.930 . S
H2635 C2627 0.929 . S
H2636 C2644 0.929 . S
H2637 C2646 0.930 . S
H2638 C2648 0.930 . S
H2639 C2651 0.929 . S
H2640 C2654 0.930 . S
H2641 C2656 0.960 . S
H2642 C2656 0.960 . S
H2643 C2656 0.960 . S
C2644 H2636 0.929 . S
C2644 C2645 1.377 . S
C2644 C2646 1.384 . S
C2645 C2644 1.377 . S
C2645 C2651 1.390 . S
C2646 H2637 0.930 . S
C2646 C2644 1.384 . S
C2646 C2647 1.372 . S
C2647 C2646 1.372 . S
C2647 C2648 1.400 . S
C2647 C2652 1.490 . S
C2648 H2638 0.930 . S
C2648 C2647 1.400 . S
C2648 C2651 1.386 . S
H2649 C2665 0.930 . S
H2650 C2666 0.931 . S
C2651 H2639 0.929 . S
C2651 C2645 1.390 . S
C2651 C2648 1.386 . S
C2652 C2647 1.490 . S
C2652 C2654 1.395 . S
C2652 C2655 1.403 . S
H2653 C2659 0.930 . S
C2654 H2640 0.930 . S
C2654 C2652 1.395 . S
C2654 C2657 1.403 . S
C2655 C2652 1.403 . S
C2655 C2656 1.524 . S
C2655 C2659 1.400 . S
C2656 H2641 0.960 . S
C2656 H2642 0.960 . S
C2656 H2643 0.960 . S
C2656 C2655 1.524 . S
C2657 C2654 1.403 . S
C2657 C2658 1.392 . S
C2657 C2661 1.495 . S
C2658 C2657 1.392 . S
C2658 C2659 1.385 . S
C2658 C2660 1.478 . S
C2659 H2653 0.930 . S
C2659 C2655 1.400 . S
C2659 C2658 1.385 . S
C2660 C2658 1.478 . S
C2660 C2662 1.381 . S
C2660 C2666 1.383 . S
C2661 C2657 1.495 . S
C2661 H2667 0.959 . S
C2661 H2668 0.961 . S
C2661 H2669 0.960 . S
C2662 C2660 1.381 . S
C2662 C2663 1.394 . S
C2662 H2670 0.930 . S
C2663 C2662 1.394 . S
C2663 C2664 1.383 . S
C2663 H2671 0.929 . S
C2664 C2663 1.383 . S
C2664 C2665 1.377 . S
C2665 H2649 0.930 . S
C2665 C2664 1.377 . S
C2665 C2666 1.379 . S
C2666 H2650 0.931 . S
C2666 C2660 1.383 . S
C2666 C2665 1.379 . S
H2667 C2661 0.959 . S
H2668 C2661 0.961 . S
H2669 C2661 0.960 . S
H2670 C2662 0.930 . S
H2671 C2663 0.929 . S
H2672 C2680 0.929 . S
H2673 C2682 0.930 . S
H2674 C2684 0.930 . S
H2675 C2687 0.929 . S
H2676 C2690 0.930 . S
H2677 C2692 0.960 . S
H2678 C2692 0.960 . S
H2679 C2692 0.960 . S
C2680 H2672 0.929 . S
C2680 C2681 1.377 . S
C2680 C2682 1.384 . S
C2681 C2680 1.377 . S
C2681 C2687 1.390 . S
C2682 H2673 0.930 . S
C2682 C2680 1.384 . S
C2682 C2683 1.372 . S
C2683 C2682 1.372 . S
C2683 C2684 1.400 . S
C2683 C2688 1.490 . S
C2684 H2674 0.930 . S
C2684 C2683 1.400 . S
C2684 C2687 1.386 . S
H2685 C2701 0.930 . S
H2686 C2702 0.931 . S
C2687 H2675 0.929 . S
C2687 C2681 1.390 . S
C2687 C2684 1.386 . S
C2688 C2683 1.490 . S
C2688 C2690 1.395 . S
C2688 C2691 1.403 . S
H2689 C2695 0.930 . S
C2690 H2676 0.930 . S
C2690 C2688 1.395 . S
C2690 C2693 1.403 . S
C2691 C2688 1.403 . S
C2691 C2692 1.524 . S
C2691 C2695 1.400 . S
C2692 H2677 0.960 . S
C2692 H2678 0.960 . S
C2692 H2679 0.960 . S
C2692 C2691 1.524 . S
C2693 C2690 1.403 . S
C2693 C2694 1.392 . S
C2693 C2697 1.495 . S
C2694 C2693 1.392 . S
C2694 C2695 1.385 . S
C2694 C2696 1.478 . S
C2695 H2689 0.930 . S
C2695 C2691 1.400 . S
C2695 C2694 1.385 . S
C2696 C2694 1.478 . S
C2696 C2698 1.381 . S
C2696 C2702 1.383 . S
C2697 C2693 1.495 . S
C2697 H2703 0.959 . S
C2697 H2704 0.961 . S
C2697 H2705 0.960 . S
C2698 C2696 1.381 . S
C2698 C2699 1.394 . S
C2698 H2706 0.930 . S
C2699 C2698 1.394 . S
C2699 C2700 1.383 . S
C2699 H2707 0.929 . S
C2700 C2699 1.383 . S
C2700 C2701 1.377 . S
C2701 H2685 0.930 . S
C2701 C2700 1.377 . S
C2701 C2702 1.379 . S
C2702 H2686 0.931 . S
C2702 C2696 1.383 . S
C2702 C2701 1.379 . S
H2703 C2697 0.959 . S
H2704 C2697 0.961 . S
H2705 C2697 0.960 . S
H2706 C2698 0.930 . S
H2707 C2699 0.929 . S
H2708 C2716 0.929 . S
H2709 C2718 0.930 . S
H2710 C2720 0.930 . S
H2711 C2723 0.929 . S
H2712 C2726 0.930 . S
H2713 C2728 0.960 . S
H2714 C2728 0.960 . S
H2715 C2728 0.960 . S
C2716 H2708 0.929 . S
C2716 C2717 1.377 . S
C2716 C2718 1.384 . S
C2717 C2716 1.377 . S
C2717 C2723 1.390 . S
C2718 H2709 0.930 . S
C2718 C2716 1.384 . S
C2718 C2719 1.372 . S
C2719 C2718 1.372 . S
C2719 C2720 1.400 . S
C2719 C2724 1.490 . S
C2720 H2710 0.930 . S
C2720 C2719 1.400 . S
C2720 C2723 1.386 . S
H2721 C2737 0.930 . S
H2722 C2738 0.931 . S
C2723 H2711 0.929 . S
C2723 C2717 1.390 . S
C2723 C2720 1.386 . S
C2724 C2719 1.490 . S
C2724 C2726 1.395 . S
C2724 C2727 1.403 . S
H2725 C2731 0.930 . S
C2726 H2712 0.930 . S
C2726 C2724 1.395 . S
C2726 C2729 1.403 . S
C2727 C2724 1.403 . S
C2727 C2728 1.524 . S
C2727 C2731 1.400 . S
C2728 H2713 0.960 . S
C2728 H2714 0.960 . S
C2728 H2715 0.960 . S
C2728 C2727 1.524 . S
C2729 C2726 1.403 . S
C2729 C2730 1.392 . S
C2729 C2733 1.495 . S
C2730 C2729 1.392 . S
C2730 C2731 1.385 . S
C2730 C2732 1.478 . S
C2731 H2725 0.930 . S
C2731 C2727 1.400 . S
C2731 C2730 1.385 . S
C2732 C2730 1.478 . S
C2732 C2734 1.381 . S
C2732 C2738 1.383 . S
C2733 C2729 1.495 . S
C2733 H2739 0.959 . S
C2733 H2740 0.961 . S
C2733 H2741 0.960 . S
C2734 C2732 1.381 . S
C2734 C2735 1.394 . S
C2734 H2742 0.930 . S
C2735 C2734 1.394 . S
C2735 C2736 1.383 . S
C2735 H2743 0.929 . S
C2736 C2735 1.383 . S
C2736 C2737 1.377 . S
C2737 H2721 0.930 . S
C2737 C2736 1.377 . S
C2737 C2738 1.379 . S
C2738 H2722 0.931 . S
C2738 C2732 1.383 . S
C2738 C2737 1.379 . S
H2739 C2733 0.959 . S
H2740 C2733 0.961 . S
H2741 C2733 0.960 . S
H2742 C2734 0.930 . S
H2743 C2735 0.929 . S
H2744 C2752 0.929 . S
H2745 C2754 0.930 . S
H2746 C2756 0.930 . S
H2747 C2759 0.929 . S
H2748 C2762 0.930 . S
H2749 C2764 0.960 . S
H2750 C2764 0.960 . S
H2751 C2764 0.960 . S
C2752 H2744 0.929 . S
C2752 C2753 1.377 . S
C2752 C2754 1.384 . S
C2753 C2752 1.377 . S
C2753 C2759 1.390 . S
C2754 H2745 0.930 . S
C2754 C2752 1.384 . S
C2754 C2755 1.372 . S
C2755 C2754 1.372 . S
C2755 C2756 1.400 . S
C2755 C2760 1.490 . S
C2756 H2746 0.930 . S
C2756 C2755 1.400 . S
C2756 C2759 1.386 . S
H2757 C2773 0.930 . S
H2758 C2774 0.931 . S
C2759 H2747 0.929 . S
C2759 C2753 1.390 . S
C2759 C2756 1.386 . S
C2760 C2755 1.490 . S
C2760 C2762 1.395 . S
C2760 C2763 1.403 . S
H2761 C2767 0.930 . S
C2762 H2748 0.930 . S
C2762 C2760 1.395 . S
C2762 C2765 1.403 . S
C2763 C2760 1.403 . S
C2763 C2764 1.524 . S
C2763 C2767 1.400 . S
C2764 H2749 0.960 . S
C2764 H2750 0.960 . S
C2764 H2751 0.960 . S
C2764 C2763 1.524 . S
C2765 C2762 1.403 . S
C2765 C2766 1.392 . S
C2765 C2769 1.495 . S
C2766 C2765 1.392 . S
C2766 C2767 1.385 . S
C2766 C2768 1.478 . S
C2767 H2761 0.930 . S
C2767 C2763 1.400 . S
C2767 C2766 1.385 . S
C2768 C2766 1.478 . S
C2768 C2770 1.381 . S
C2768 C2774 1.383 . S
C2769 C2765 1.495 . S
C2769 H2775 0.959 . S
C2769 H2776 0.961 . S
C2769 H2777 0.960 . S
C2770 C2768 1.381 . S
C2770 C2771 1.394 . S
C2770 H2778 0.930 . S
C2771 C2770 1.394 . S
C2771 C2772 1.383 . S
C2771 H2779 0.929 . S
C2772 C2771 1.383 . S
C2772 C2773 1.377 . S
C2773 H2757 0.930 . S
C2773 C2772 1.377 . S
C2773 C2774 1.379 . S
C2774 H2758 0.931 . S
C2774 C2768 1.383 . S
C2774 C2773 1.379 . S
H2775 C2769 0.959 . S
H2776 C2769 0.961 . S
H2777 C2769 0.960 . S
H2778 C2770 0.930 . S
H2779 C2771 0.929 . S
H2780 C2788 0.929 . S
H2781 C2790 0.930 . S
H2782 C2792 0.930 . S
H2783 C2795 0.929 . S
H2784 C2798 0.930 . S
H2785 C2800 0.960 . S
H2786 C2800 0.960 . S
H2787 C2800 0.960 . S
C2788 H2780 0.929 . S
C2788 C2789 1.377 . S
C2788 C2790 1.384 . S
C2789 C2788 1.377 . S
C2789 C2795 1.390 . S
C2790 H2781 0.930 . S
C2790 C2788 1.384 . S
C2790 C2791 1.372 . S
C2791 C2790 1.372 . S
C2791 C2792 1.400 . S
C2791 C2796 1.490 . S
C2792 H2782 0.930 . S
C2792 C2791 1.400 . S
C2792 C2795 1.386 . S
H2793 C2809 0.930 . S
H2794 C2810 0.931 . S
C2795 H2783 0.929 . S
C2795 C2789 1.390 . S
C2795 C2792 1.386 . S
C2796 C2791 1.490 . S
C2796 C2798 1.395 . S
C2796 C2799 1.403 . S
H2797 C2803 0.930 . S
C2798 H2784 0.930 . S
C2798 C2796 1.395 . S
C2798 C2801 1.403 . S
C2799 C2796 1.403 . S
C2799 C2800 1.524 . S
C2799 C2803 1.400 . S
C2800 H2785 0.960 . S
C2800 H2786 0.960 . S
C2800 H2787 0.960 . S
C2800 C2799 1.524 . S
C2801 C2798 1.403 . S
C2801 C2802 1.392 . S
C2801 C2805 1.495 . S
C2802 C2801 1.392 . S
C2802 C2803 1.385 . S
C2802 C2804 1.478 . S
C2803 H2797 0.930 . S
C2803 C2799 1.400 . S
C2803 C2802 1.385 . S
C2804 C2802 1.478 . S
C2804 C2806 1.381 . S
C2804 C2810 1.383 . S
C2805 C2801 1.495 . S
C2805 H2811 0.959 . S
C2805 H2812 0.961 . S
C2805 H2813 0.960 . S
C2806 C2804 1.381 . S
C2806 C2807 1.394 . S
C2806 H2814 0.930 . S
C2807 C2806 1.394 . S
C2807 C2808 1.383 . S
C2807 H2815 0.929 . S
C2808 C2807 1.383 . S
C2808 C2809 1.377 . S
C2809 H2793 0.930 . S
C2809 C2808 1.377 . S
C2809 C2810 1.379 . S
C2810 H2794 0.931 . S
C2810 C2804 1.383 . S
C2810 C2809 1.379 . S
H2811 C2805 0.959 . S
H2812 C2805 0.961 . S
H2813 C2805 0.960 . S
H2814 C2806 0.930 . S
H2815 C2807 0.929 . S
H2816 C2824 0.929 . S
H2817 C2826 0.930 . S
H2818 C2828 0.930 . S
H2819 C2831 0.929 . S
H2820 C2834 0.930 . S
H2821 C2836 0.960 . S
H2822 C2836 0.960 . S
H2823 C2836 0.960 . S
C2824 H2816 0.929 . S
C2824 C2825 1.377 . S
C2824 C2826 1.384 . S
C2825 C2824 1.377 . S
C2825 C2831 1.390 . S
C2826 H2817 0.930 . S
C2826 C2824 1.384 . S
C2826 C2827 1.372 . S
C2827 C2826 1.372 . S
C2827 C2828 1.400 . S
C2827 C2832 1.490 . S
C2828 H2818 0.930 . S
C2828 C2827 1.400 . S
C2828 C2831 1.386 . S
H2829 C2845 0.930 . S
H2830 C2846 0.931 . S
C2831 H2819 0.929 . S
C2831 C2825 1.390 . S
C2831 C2828 1.386 . S
C2832 C2827 1.490 . S
C2832 C2834 1.395 . S
C2832 C2835 1.403 . S
H2833 C2839 0.930 . S
C2834 H2820 0.930 . S
C2834 C2832 1.395 . S
C2834 C2837 1.403 . S
C2835 C2832 1.403 . S
C2835 C2836 1.524 . S
C2835 C2839 1.400 . S
C2836 H2821 0.960 . S
C2836 H2822 0.960 . S
C2836 H2823 0.960 . S
C2836 C2835 1.524 . S
C2837 C2834 1.403 . S
C2837 C2838 1.392 . S
C2837 C2841 1.495 . S
C2838 C2837 1.392 . S
C2838 C2839 1.385 . S
C2838 C2840 1.478 . S
C2839 H2833 0.930 . S
C2839 C2835 1.400 . S
C2839 C2838 1.385 . S
C2840 C2838 1.478 . S
C2840 C2842 1.381 . S
C2840 C2846 1.383 . S
C2841 C2837 1.495 . S
C2841 H2847 0.959 . S
C2841 H2848 0.961 . S
C2841 H2849 0.960 . S
C2842 C2840 1.381 . S
C2842 C2843 1.394 . S
C2842 H2850 0.930 . S
C2843 C2842 1.394 . S
C2843 C2844 1.383 . S
C2843 H2851 0.929 . S
C2844 C2843 1.383 . S
C2844 C2845 1.377 . S
C2845 H2829 0.930 . S
C2845 C2844 1.377 . S
C2845 C2846 1.379 . S
C2846 H2830 0.931 . S
C2846 C2840 1.383 . S
C2846 C2845 1.379 . S
H2847 C2841 0.959 . S
H2848 C2841 0.961 . S
H2849 C2841 0.960 . S
H2850 C2842 0.930 . S
H2851 C2843 0.929 . S
H2852 C2860 0.929 . S
H2853 C2862 0.930 . S
H2854 C2864 0.930 . S
H2855 C2867 0.929 . S
H2856 C2870 0.930 . S
H2857 C2872 0.960 . S
H2858 C2872 0.960 . S
H2859 C2872 0.960 . S
C2860 H2852 0.929 . S
C2860 C2861 1.377 . S
C2860 C2862 1.384 . S
C2861 C2860 1.377 . S
C2861 C2867 1.390 . S
C2862 H2853 0.930 . S
C2862 C2860 1.384 . S
C2862 C2863 1.372 . S
C2863 C2862 1.372 . S
C2863 C2864 1.400 . S
C2863 C2868 1.490 . S
C2864 H2854 0.930 . S
C2864 C2863 1.400 . S
C2864 C2867 1.386 . S
H2865 C2881 0.930 . S
H2866 C2882 0.931 . S
C2867 H2855 0.929 . S
C2867 C2861 1.390 . S
C2867 C2864 1.386 . S
C2868 C2863 1.490 . S
C2868 C2870 1.395 . S
C2868 C2871 1.403 . S
H2869 C2875 0.930 . S
C2870 H2856 0.930 . S
C2870 C2868 1.395 . S
C2870 C2873 1.403 . S
C2871 C2868 1.403 . S
C2871 C2872 1.524 . S
C2871 C2875 1.400 . S
C2872 H2857 0.960 . S
C2872 H2858 0.960 . S
C2872 H2859 0.960 . S
C2872 C2871 1.524 . S
C2873 C2870 1.403 . S
C2873 C2874 1.392 . S
C2873 C2877 1.495 . S
C2874 C2873 1.392 . S
C2874 C2875 1.385 . S
C2874 C2876 1.478 . S
C2875 H2869 0.930 . S
C2875 C2871 1.400 . S
C2875 C2874 1.385 . S
C2876 C2874 1.478 . S
C2876 C2878 1.381 . S
C2876 C2882 1.383 . S
C2877 C2873 1.495 . S
C2877 H2883 0.959 . S
C2877 H2884 0.961 . S
C2877 H2885 0.960 . S
C2878 C2876 1.381 . S
C2878 C2879 1.394 . S
C2878 H2886 0.930 . S
C2879 C2878 1.394 . S
C2879 C2880 1.383 . S
C2879 H2887 0.929 . S
C2880 C2879 1.383 . S
C2880 C2881 1.377 . S
C2881 H2865 0.930 . S
C2881 C2880 1.377 . S
C2881 C2882 1.379 . S
C2882 H2866 0.931 . S
C2882 C2876 1.383 . S
C2882 C2881 1.379 . S
H2883 C2877 0.959 . S
H2884 C2877 0.961 . S
H2885 C2877 0.960 . S
H2886 C2878 0.930 . S
H2887 C2879 0.929 . S
H2888 C2896 0.929 . S
H2889 C2898 0.930 . S
H2890 C2900 0.930 . S
H2891 C2903 0.929 . S
H2892 C2906 0.930 . S
H2893 C2908 0.960 . S
H2894 C2908 0.960 . S
H2895 C2908 0.960 . S
C2896 H2888 0.929 . S
C2896 C2897 1.377 . S
C2896 C2898 1.384 . S
C2897 C2896 1.377 . S
C2897 C2903 1.390 . S
C2898 H2889 0.930 . S
C2898 C2896 1.384 . S
C2898 C2899 1.372 . S
C2899 C2898 1.372 . S
C2899 C2900 1.400 . S
C2899 C2904 1.490 . S
C2900 H2890 0.930 . S
C2900 C2899 1.400 . S
C2900 C2903 1.386 . S
H2901 C2917 0.930 . S
H2902 C2918 0.931 . S
C2903 H2891 0.929 . S
C2903 C2897 1.390 . S
C2903 C2900 1.386 . S
C2904 C2899 1.490 . S
C2904 C2906 1.395 . S
C2904 C2907 1.403 . S
H2905 C2911 0.930 . S
C2906 H2892 0.930 . S
C2906 C2904 1.395 . S
C2906 C2909 1.403 . S
C2907 C2904 1.403 . S
C2907 C2908 1.524 . S
C2907 C2911 1.400 . S
C2908 H2893 0.960 . S
C2908 H2894 0.960 . S
C2908 H2895 0.960 . S
C2908 C2907 1.524 . S
C2909 C2906 1.403 . S
C2909 C2910 1.392 . S
C2909 C2913 1.495 . S
C2910 C2909 1.392 . S
C2910 C2911 1.385 . S
C2910 C2912 1.478 . S
C2911 H2905 0.930 . S
C2911 C2907 1.400 . S
C2911 C2910 1.385 . S
C2912 C2910 1.478 . S
C2912 C2914 1.381 . S
C2912 C2918 1.383 . S
C2913 C2909 1.495 . S
C2913 H2919 0.959 . S
C2913 H2920 0.961 . S
C2913 H2921 0.960 . S
C2914 C2912 1.381 . S
C2914 C2915 1.394 . S
C2914 H2922 0.930 . S
C2915 C2914 1.394 . S
C2915 C2916 1.383 . S
C2915 H2923 0.929 . S
C2916 C2915 1.383 . S
C2916 C2917 1.377 . S
C2917 H2901 0.930 . S
C2917 C2916 1.377 . S
C2917 C2918 1.379 . S
C2918 H2902 0.931 . S
C2918 C2912 1.383 . S
C2918 C2917 1.379 . S
H2919 C2913 0.959 . S
H2920 C2913 0.961 . S
H2921 C2913 0.960 . S
H2922 C2914 0.930 . S
H2923 C2915 0.929 . S
H2924 C2932 0.929 . S
H2925 C2934 0.930 . S
H2926 C2936 0.930 . S
H2927 C2939 0.929 . S
H2928 C2942 0.930 . S
H2929 C2944 0.960 . S
H2930 C2944 0.960 . S
H2931 C2944 0.960 . S
C2932 H2924 0.929 . S
C2932 C2933 1.377 . S
C2932 C2934 1.384 . S
C2933 C2932 1.377 . S
C2933 C2939 1.390 . S
C2934 H2925 0.930 . S
C2934 C2932 1.384 . S
C2934 C2935 1.372 . S
C2935 C2934 1.372 . S
C2935 C2936 1.400 . S
C2935 C2940 1.490 . S
C2936 H2926 0.930 . S
C2936 C2935 1.400 . S
C2936 C2939 1.386 . S
H2937 C2953 0.930 . S
H2938 C2954 0.931 . S
C2939 H2927 0.929 . S
C2939 C2933 1.390 . S
C2939 C2936 1.386 . S
C2940 C2935 1.490 . S
C2940 C2942 1.395 . S
C2940 C2943 1.403 . S
H2941 C2947 0.930 . S
C2942 H2928 0.930 . S
C2942 C2940 1.395 . S
C2942 C2945 1.403 . S
C2943 C2940 1.403 . S
C2943 C2944 1.524 . S
C2943 C2947 1.400 . S
C2944 H2929 0.960 . S
C2944 H2930 0.960 . S
C2944 H2931 0.960 . S
C2944 C2943 1.524 . S
C2945 C2942 1.403 . S
C2945 C2946 1.392 . S
C2945 C2949 1.495 . S
C2946 C2945 1.392 . S
C2946 C2947 1.385 . S
C2946 C2948 1.478 . S
C2947 H2941 0.930 . S
C2947 C2943 1.400 . S
C2947 C2946 1.385 . S
C2948 C2946 1.478 . S
C2948 C2950 1.381 . S
C2948 C2954 1.383 . S
C2949 C2945 1.495 . S
C2949 H2955 0.959 . S
C2949 H2956 0.961 . S
C2949 H2957 0.960 . S
C2950 C2948 1.381 . S
C2950 C2951 1.394 . S
C2950 H2958 0.930 . S
C2951 C2950 1.394 . S
C2951 C2952 1.383 . S
C2951 H2959 0.929 . S
C2952 C2951 1.383 . S
C2952 C2953 1.377 . S
C2953 H2937 0.930 . S
C2953 C2952 1.377 . S
C2953 C2954 1.379 . S
C2954 H2938 0.931 . S
C2954 C2948 1.383 . S
C2954 C2953 1.379 . S
H2955 C2949 0.959 . S
H2956 C2949 0.961 . S
H2957 C2949 0.960 . S
H2958 C2950 0.930 . S
H2959 C2951 0.929 . S
H2960 C2968 0.929 . S
H2961 C2970 0.930 . S
H2962 C2972 0.930 . S
H2963 C2975 0.929 . S
H2964 C2978 0.930 . S
H2965 C2980 0.960 . S
H2966 C2980 0.960 . S
H2967 C2980 0.960 . S
C2968 H2960 0.929 . S
C2968 C2969 1.377 . S
C2968 C2970 1.384 . S
C2969 C2968 1.377 . S
C2969 C2975 1.390 . S
C2970 H2961 0.930 . S
C2970 C2968 1.384 . S
C2970 C2971 1.372 . S
C2971 C2970 1.372 . S
C2971 C2972 1.400 . S
C2971 C2976 1.490 . S
C2972 H2962 0.930 . S
C2972 C2971 1.400 . S
C2972 C2975 1.386 . S
H2973 C2989 0.930 . S
H2974 C2990 0.931 . S
C2975 H2963 0.929 . S
C2975 C2969 1.390 . S
C2975 C2972 1.386 . S
C2976 C2971 1.490 . S
C2976 C2978 1.395 . S
C2976 C2979 1.403 . S
H2977 C2983 0.930 . S
C2978 H2964 0.930 . S
C2978 C2976 1.395 . S
C2978 C2981 1.403 . S
C2979 C2976 1.403 . S
C2979 C2980 1.524 . S
C2979 C2983 1.400 . S
C2980 H2965 0.960 . S
C2980 H2966 0.960 . S
C2980 H2967 0.960 . S
C2980 C2979 1.524 . S
C2981 C2978 1.403 . S
C2981 C2982 1.392 . S
C2981 C2985 1.495 . S
C2982 C2981 1.392 . S
C2982 C2983 1.385 . S
C2982 C2984 1.478 . S
C2983 H2977 0.930 . S
C2983 C2979 1.400 . S
C2983 C2982 1.385 . S
C2984 C2982 1.478 . S
C2984 C2986 1.381 . S
C2984 C2990 1.383 . S
C2985 C2981 1.495 . S
C2985 H2991 0.959 . S
C2985 H2992 0.961 . S
C2985 H2993 0.960 . S
C2986 C2984 1.381 . S
C2986 C2987 1.394 . S
C2986 H2994 0.930 . S
C2987 C2986 1.394 . S
C2987 C2988 1.383 . S
C2987 H2995 0.929 . S
C2988 C2987 1.383 . S
C2988 C2989 1.377 . S
C2989 H2973 0.930 . S
C2989 C2988 1.377 . S
C2989 C2990 1.379 . S
C2990 H2974 0.931 . S
C2990 C2984 1.383 . S
C2990 C2989 1.379 . S
H2991 C2985 0.959 . S
H2992 C2985 0.961 . S
H2993 C2985 0.960 . S
H2994 C2986 0.930 . S
H2995 C2987 0.929 . S
H2996 C3004 0.929 . S
H2997 C3006 0.930 . S
H2998 C3008 0.930 . S
H2999 C3011 0.929 . S
H3000 C3014 0.930 . S
H3001 C3016 0.960 . S
H3002 C3016 0.960 . S
H3003 C3016 0.960 . S
C3004 H2996 0.929 . S
C3004 C3005 1.377 . S
C3004 C3006 1.384 . S
C3005 C3004 1.377 . S
C3005 C3011 1.390 . S
C3006 H2997 0.930 . S
C3006 C3004 1.384 . S
C3006 C3007 1.372 . S
C3007 C3006 1.372 . S
C3007 C3008 1.400 . S
C3007 C3012 1.490 . S
C3008 H2998 0.930 . S
C3008 C3007 1.400 . S
C3008 C3011 1.386 . S
H3009 C3025 0.930 . S
H3010 C3026 0.931 . S
C3011 H2999 0.929 . S
C3011 C3005 1.390 . S
C3011 C3008 1.386 . S
C3012 C3007 1.490 . S
C3012 C3014 1.395 . S
C3012 C3015 1.403 . S
H3013 C3019 0.930 . S
C3014 H3000 0.930 . S
C3014 C3012 1.395 . S
C3014 C3017 1.403 . S
C3015 C3012 1.403 . S
C3015 C3016 1.524 . S
C3015 C3019 1.400 . S
C3016 H3001 0.960 . S
C3016 H3002 0.960 . S
C3016 H3003 0.960 . S
C3016 C3015 1.524 . S
C3017 C3014 1.403 . S
C3017 C3018 1.392 . S
C3017 C3021 1.495 . S
C3018 C3017 1.392 . S
C3018 C3019 1.385 . S
C3018 C3020 1.478 . S
C3019 H3013 0.930 . S
C3019 C3015 1.400 . S
C3019 C3018 1.385 . S
C3020 C3018 1.478 . S
C3020 C3022 1.381 . S
C3020 C3026 1.383 . S
C3021 C3017 1.495 . S
C3021 H3027 0.959 . S
C3021 H3028 0.961 . S
C3021 H3029 0.960 . S
C3022 C3020 1.381 . S
C3022 C3023 1.394 . S
C3022 H3030 0.930 . S
C3023 C3022 1.394 . S
C3023 C3024 1.383 . S
C3023 H3031 0.929 . S
C3024 C3023 1.383 . S
C3024 C3025 1.377 . S
C3025 H3009 0.930 . S
C3025 C3024 1.377 . S
C3025 C3026 1.379 . S
C3026 H3010 0.931 . S
C3026 C3020 1.383 . S
C3026 C3025 1.379 . S
H3027 C3021 0.959 . S
H3028 C3021 0.961 . S
H3029 C3021 0.960 . S
H3030 C3022 0.930 . S
H3031 C3023 0.929 . S
H3032 C3040 0.929 . S
H3033 C3042 0.930 . S
H3034 C3044 0.930 . S
H3035 C3047 0.929 . S
H3036 C3050 0.930 . S
H3037 C3052 0.960 . S
H3038 C3052 0.960 . S
H3039 C3052 0.960 . S
C3040 H3032 0.929 . S
C3040 C3041 1.377 . S
C3040 C3042 1.384 . S
C3041 C3040 1.377 . S
C3041 C3047 1.390 . S
C3042 H3033 0.930 . S
C3042 C3040 1.384 . S
C3042 C3043 1.372 . S
C3043 C3042 1.372 . S
C3043 C3044 1.400 . S
C3043 C3048 1.490 . S
C3044 H3034 0.930 . S
C3044 C3043 1.400 . S
C3044 C3047 1.386 . S
H3045 C3061 0.930 . S
H3046 C3062 0.931 . S
C3047 H3035 0.929 . S
C3047 C3041 1.390 . S
C3047 C3044 1.386 . S
C3048 C3043 1.490 . S
C3048 C3050 1.395 . S
C3048 C3051 1.403 . S
H3049 C3055 0.930 . S
C3050 H3036 0.930 . S
C3050 C3048 1.395 . S
C3050 C3053 1.403 . S
C3051 C3048 1.403 . S
C3051 C3052 1.524 . S
C3051 C3055 1.400 . S
C3052 H3037 0.960 . S
C3052 H3038 0.960 . S
C3052 H3039 0.960 . S
C3052 C3051 1.524 . S
C3053 C3050 1.403 . S
C3053 C3054 1.392 . S
C3053 C3057 1.495 . S
C3054 C3053 1.392 . S
C3054 C3055 1.385 . S
C3054 C3056 1.478 . S
C3055 H3049 0.930 . S
C3055 C3051 1.400 . S
C3055 C3054 1.385 . S
C3056 C3054 1.478 . S
C3056 C3058 1.381 . S
C3056 C3062 1.383 . S
C3057 C3053 1.495 . S
C3057 H3063 0.959 . S
C3057 H3064 0.961 . S
C3057 H3065 0.960 . S
C3058 C3056 1.381 . S
C3058 C3059 1.394 . S
C3058 H3066 0.930 . S
C3059 C3058 1.394 . S
C3059 C3060 1.383 . S
C3059 H3067 0.929 . S
C3060 C3059 1.383 . S
C3060 C3061 1.377 . S
C3061 H3045 0.930 . S
C3061 C3060 1.377 . S
C3061 C3062 1.379 . S
C3062 H3046 0.931 . S
C3062 C3056 1.383 . S
C3062 C3061 1.379 . S
H3063 C3057 0.959 . S
H3064 C3057 0.961 . S
H3065 C3057 0.960 . S
H3066 C3058 0.930 . S
H3067 C3059 0.929 . S
H3068 C3076 0.929 . S
H3069 C3078 0.930 . S
H3070 C3080 0.930 . S
H3071 C3083 0.929 . S
H3072 C3086 0.930 1_556 S
H3073 C3088 0.960 . S
H3074 C3088 0.960 . S
H3075 C3088 0.960 . S
C3076 H3068 0.929 . S
C3076 C3077 1.377 . S
C3076 C3078 1.384 . S
C3077 C3076 1.377 . S
C3077 C3083 1.390 . S
C3078 H3069 0.930 . S
C3078 C3076 1.384 . S
C3078 C3079 1.372 . S
C3079 C3078 1.372 . S
C3079 C3080 1.400 . S
C3079 C3084 1.490 . S
C3080 H3070 0.930 . S
C3080 C3079 1.400 . S
C3080 C3083 1.386 . S
H3081 C3097 0.930 1_545 S
H3082 C3098 0.931 . S
C3083 H3071 0.929 . S
C3083 C3077 1.390 . S
C3083 C3080 1.386 . S
C3084 C3079 1.490 . S
C3084 C3086 1.395 . S
C3084 C3087 1.403 . S
H3085 C3091 0.930 . S
C3086 H3072 0.930 1_554 S
C3086 C3084 1.395 . S
C3086 C3089 1.413 . S
C3087 C3084 1.403 . S
C3087 C3088 1.524 . S
C3087 C3091 1.400 . S
C3088 H3073 0.960 . S
C3088 H3074 0.960 . S
C3088 H3075 0.960 . S
C3088 C3087 1.524 . S
C3089 C3086 1.413 . S
C3089 C3090 1.417 . S
C3089 C3093 1.462 1_554 S
C3090 C3089 1.417 . S
C3090 C3091 1.385 . S
C3090 C3092 1.478 . S
C3091 H3085 0.930 . S
C3091 C3087 1.400 . S
C3091 C3090 1.385 . S
C3092 C3090 1.478 . S
C3092 C3094 1.381 . S
C3092 C3098 1.383 . S
C3093 C3089 1.462 1_556 S
C3093 H3099 0.959 . S
C3093 H3100 0.961 . S
C3093 H3101 0.960 . S
C3094 C3092 1.381 . S
C3094 C3095 1.394 . S
C3094 H3102 0.930 . S
C3095 C3094 1.394 . S
C3095 C3096 1.383 . S
C3095 H3103 0.929 . S
C3096 C3095 1.383 . S
C3096 C3097 1.377 . S
C3097 H3081 0.930 1_565 S
C3097 C3096 1.377 . S
C3097 C3098 1.379 . S
C3098 H3082 0.931 . S
C3098 C3092 1.383 . S
C3098 C3097 1.379 . S
H3099 C3093 0.959 . S
H3100 C3093 0.961 . S
H3101 C3093 0.960 . S
H3102 C3094 0.930 . S
H3103 C3095 0.929 . S
H3104 C3112 0.929 . S
H3105 C3114 0.930 . S
H3106 C3116 0.930 . S
H3107 C3119 0.929 . S
H3108 C3122 0.930 . S
H3109 C3124 0.960 . S
H3110 C3124 0.960 . S
H3111 C3124 0.960 . S
C3112 H3104 0.929 . S
C3112 C3113 1.377 . S
C3112 C3114 1.384 . S
C3113 C3112 1.377 . S
C3113 C3119 1.390 . S
C3114 H3105 0.930 . S
C3114 C3112 1.384 . S
C3114 C3115 1.372 . S
C3115 C3114 1.372 . S
C3115 C3116 1.400 . S
C3115 C3120 1.490 . S
C3116 H3106 0.930 . S
C3116 C3115 1.400 . S
C3116 C3119 1.386 . S
H3117 C3133 0.930 . S
H3118 C3134 0.931 . S
C3119 H3107 0.929 . S
C3119 C3113 1.390 . S
C3119 C3116 1.386 . S
C3120 C3115 1.490 . S
C3120 C3122 1.395 . S
C3120 C3123 1.403 . S
H3121 C3127 0.930 . S
C3122 H3108 0.930 . S
C3122 C3120 1.395 . S
C3122 C3125 1.403 . S
C3123 C3120 1.403 . S
C3123 C3124 1.524 . S
C3123 C3127 1.400 . S
C3124 H3109 0.960 . S
C3124 H3110 0.960 . S
C3124 H3111 0.960 . S
C3124 C3123 1.524 . S
C3125 C3122 1.403 . S
C3125 C3126 1.392 . S
C3125 C3129 1.495 . S
C3126 C3125 1.392 . S
C3126 C3127 1.385 . S
C3126 C3128 1.478 . S
C3127 H3121 0.930 . S
C3127 C3123 1.400 . S
C3127 C3126 1.385 . S
C3128 C3126 1.478 . S
C3128 C3130 1.381 . S
C3128 C3134 1.383 . S
C3129 C3125 1.495 . S
C3129 H3135 0.959 . S
C3129 H3136 0.961 . S
C3129 H3137 0.960 . S
C3130 C3128 1.381 . S
C3130 C3131 1.394 . S
C3130 H3138 0.930 . S
C3131 C3130 1.394 . S
C3131 C3132 1.383 . S
C3131 H3139 0.929 . S
C3132 C3131 1.383 . S
C3132 C3133 1.377 . S
C3133 H3117 0.930 . S
C3133 C3132 1.377 . S
C3133 C3134 1.379 . S
C3134 H3118 0.931 . S
C3134 C3128 1.383 . S
C3134 C3133 1.379 . S
H3135 C3129 0.959 . S
H3136 C3129 0.961 . S
H3137 C3129 0.960 . S
H3138 C3130 0.930 . S
H3139 C3131 0.929 . S
H3140 C3148 0.929 . S
H3141 C3150 0.930 . S
H3142 C3152 0.930 . S
H3143 C3155 0.929 1_556 S
H3144 C3158 0.930 1_556 S
H3145 C3160 0.960 . S
H3146 C3160 0.960 . S
H3147 C3160 0.960 . S
C3148 H3140 0.929 . S
C3148 C3149 1.377 . S
C3148 C3150 1.384 . S
C3149 C3148 1.377 . S
C3149 C3155 1.390 . S
C3150 H3141 0.930 . S
C3150 C3148 1.384 . S
C3150 C3151 1.372 . S
C3151 C3150 1.372 . S
C3151 C3152 1.400 . S
C3151 C3156 1.490 . S
C3152 H3142 0.930 . S
C3152 C3151 1.400 . S
C3152 C3155 1.386 . S
H3153 C3169 0.930 . S
H3154 C3170 0.931 . S
C3155 H3143 0.929 1_554 S
C3155 C3149 1.390 . S
C3155 C3152 1.386 . S
C3156 C3151 1.490 . S
C3156 C3158 1.395 . S
C3156 C3159 1.403 . S
H3157 C3163 0.930 . S
C3158 H3144 0.930 1_554 S
C3158 C3156 1.395 . S
C3158 C3161 1.403 . S
C3159 C3156 1.403 . S
C3159 C3160 1.524 . S
C3159 C3163 1.400 . S
C3160 H3145 0.960 . S
C3160 H3146 0.960 . S
C3160 H3147 0.960 . S
C3160 C3159 1.524 . S
C3161 C3158 1.403 . S
C3161 C3162 1.392 . S
C3161 C3165 1.495 1_554 S
C3162 C3161 1.392 . S
C3162 C3163 1.385 . S
C3162 C3164 1.478 . S
C3163 H3157 0.930 . S
C3163 C3159 1.400 . S
C3163 C3162 1.385 . S
C3164 C3162 1.478 . S
C3164 C3166 1.381 . S
C3164 C3170 1.383 . S
C3165 C3161 1.495 1_556 S
C3165 H3171 0.959 . S
C3165 H3172 0.961 . S
C3165 H3173 0.960 . S
C3166 C3164 1.381 . S
C3166 C3167 1.394 . S
C3166 H3174 0.930 . S
C3167 C3166 1.394 . S
C3167 C3168 1.383 . S
C3167 H3175 0.929 . S
C3168 C3167 1.383 . S
C3168 C3169 1.377 . S
C3169 H3153 0.930 . S
C3169 C3168 1.377 . S
C3169 C3170 1.379 . S
C3170 H3154 0.931 . S
C3170 C3164 1.383 . S
C3170 C3169 1.379 . S
H3171 C3165 0.959 . S
H3172 C3165 0.961 . S
H3173 C3165 0.960 . S
H3174 C3166 0.930 . S
H3175 C3167 0.929 . S
H3176 C3184 0.929 . S
H3177 C3186 0.930 . S
H3178 C3188 0.930 . S
H3179 C3191 0.929 . S
H3180 C3194 0.930 . S
H3181 C3196 0.960 . S
H3182 C3196 0.960 . S
H3183 C3196 0.960 . S
C3184 H3176 0.929 . S
C3184 C3185 1.377 . S
C3184 C3186 1.384 . S
C3185 C3184 1.377 . S
C3185 C3191 1.390 . S
C3186 H3177 0.930 . S
C3186 C3184 1.384 . S
C3186 C3187 1.372 . S
C3187 C3186 1.372 . S
C3187 C3188 1.400 . S
C3187 C3192 1.490 . S
C3188 H3178 0.930 . S
C3188 C3187 1.400 . S
C3188 C3191 1.386 . S
H3189 C3205 0.930 . S
H3190 C3206 0.931 . S
C3191 H3179 0.929 . S
C3191 C3185 1.390 . S
C3191 C3188 1.386 . S
C3192 C3187 1.490 . S
C3192 C3194 1.395 . S
C3192 C3195 1.403 . S
H3193 C3199 0.930 . S
C3194 H3180 0.930 . S
C3194 C3192 1.395 . S
C3194 C3197 1.403 . S
C3195 C3192 1.403 . S
C3195 C3196 1.524 . S
C3195 C3199 1.400 . S
C3196 H3181 0.960 . S
C3196 H3182 0.960 . S
C3196 H3183 0.960 . S
C3196 C3195 1.524 . S
C3197 C3194 1.403 . S
C3197 C3198 1.392 . S
C3197 C3201 1.495 . S
C3198 C3197 1.392 . S
C3198 C3199 1.385 . S
C3198 C3200 1.478 . S
C3199 H3193 0.930 . S
C3199 C3195 1.400 . S
C3199 C3198 1.385 . S
C3200 C3198 1.478 . S
C3200 C3202 1.381 . S
C3200 C3206 1.383 . S
C3201 C3197 1.495 . S
C3201 H3207 0.959 . S
C3201 H3208 0.961 . S
C3201 H3209 0.960 . S
C3202 C3200 1.381 . S
C3202 C3203 1.394 . S
C3202 H3210 0.930 . S
C3203 C3202 1.394 . S
C3203 C3204 1.383 . S
C3203 H3211 0.929 . S
C3204 C3203 1.383 . S
C3204 C3205 1.377 . S
C3205 H3189 0.930 . S
C3205 C3204 1.377 . S
C3205 C3206 1.379 . S
C3206 H3190 0.931 . S
C3206 C3200 1.383 . S
C3206 C3205 1.379 . S
H3207 C3201 0.959 . S
H3208 C3201 0.961 . S
H3209 C3201 0.960 . S
H3210 C3202 0.930 . S
H3211 C3203 0.929 . S
H3212 C3220 0.929 . S
H3213 C3222 0.930 . S
H3214 C3224 0.930 . S
H3215 C3227 0.929 . S
H3216 C3230 0.930 . S
H3217 C3232 0.960 . S
H3218 C3232 0.960 . S
H3219 C3232 0.960 . S
C3220 H3212 0.929 . S
C3220 C3221 1.377 . S
C3220 C3222 1.384 . S
C3221 C3220 1.377 . S
C3221 C3227 1.390 . S
C3222 H3213 0.930 . S
C3222 C3220 1.384 . S
C3222 C3223 1.372 . S
C3223 C3222 1.372 . S
C3223 C3224 1.400 . S
C3223 C3228 1.490 . S
C3224 H3214 0.930 . S
C3224 C3223 1.400 . S
C3224 C3227 1.386 . S
H3225 C3241 0.930 . S
H3226 C3242 0.931 . S
C3227 H3215 0.929 . S
C3227 C3221 1.390 . S
C3227 C3224 1.386 . S
C3228 C3223 1.490 . S
C3228 C3230 1.395 . S
C3228 C3231 1.403 . S
H3229 C3235 0.930 . S
C3230 H3216 0.930 . S
C3230 C3228 1.395 . S
C3230 C3233 1.403 . S
C3231 C3228 1.403 . S
C3231 C3232 1.524 . S
C3231 C3235 1.400 . S
C3232 H3217 0.960 . S
C3232 H3218 0.960 . S
C3232 H3219 0.960 . S
C3232 C3231 1.524 . S
C3233 C3230 1.403 . S
C3233 C3234 1.392 . S
C3233 C3237 1.495 . S
C3234 C3233 1.392 . S
C3234 C3235 1.385 . S
C3234 C3236 1.478 . S
C3235 H3229 0.930 . S
C3235 C3231 1.400 . S
C3235 C3234 1.385 . S
C3236 C3234 1.478 . S
C3236 C3238 1.381 . S
C3236 C3242 1.383 . S
C3237 C3233 1.495 . S
C3237 H3243 0.959 . S
C3237 H3244 0.961 . S
C3237 H3245 0.960 . S
C3238 C3236 1.381 . S
C3238 C3239 1.394 . S
C3238 H3246 0.930 . S
C3239 C3238 1.394 . S
C3239 C3240 1.383 . S
C3239 H3247 0.929 . S
C3240 C3239 1.383 . S
C3240 C3241 1.377 . S
C3241 H3225 0.930 . S
C3241 C3240 1.377 . S
C3241 C3242 1.379 . S
C3242 H3226 0.931 . S
C3242 C3236 1.383 . S
C3242 C3241 1.379 . S
H3243 C3237 0.959 . S
H3244 C3237 0.961 . S
H3245 C3237 0.960 . S
H3246 C3238 0.930 . S
H3247 C3239 0.929 . S
H3248 C3256 0.929 . S
H3249 C3258 0.930 . S
H3250 C3260 0.930 . S
H3251 C3263 0.929 . S
H3252 C3266 0.930 . S
H3253 C3268 0.960 . S
H3254 C3268 0.960 . S
H3255 C3268 0.960 . S
C3256 H3248 0.929 . S
C3256 C3257 1.377 . S
C3256 C3258 1.384 . S
C3257 C3256 1.377 . S
C3257 C3263 1.390 . S
C3258 H3249 0.930 . S
C3258 C3256 1.384 . S
C3258 C3259 1.372 . S
C3259 C3258 1.372 . S
C3259 C3260 1.400 . S
C3259 C3264 1.490 . S
C3260 H3250 0.930 . S
C3260 C3259 1.400 . S
C3260 C3263 1.386 . S
H3261 C3277 0.930 . S
H3262 C3278 0.931 . S
C3263 H3251 0.929 . S
C3263 C3257 1.390 . S
C3263 C3260 1.386 . S
C3264 C3259 1.490 . S
C3264 C3266 1.395 . S
C3264 C3267 1.403 . S
H3265 C3271 0.930 . S
C3266 H3252 0.930 . S
C3266 C3264 1.395 . S
C3266 C3269 1.403 . S
C3267 C3264 1.403 . S
C3267 C3268 1.524 . S
C3267 C3271 1.400 . S
C3268 H3253 0.960 . S
C3268 H3254 0.960 . S
C3268 H3255 0.960 . S
C3268 C3267 1.524 . S
C3269 C3266 1.403 . S
C3269 C3270 1.392 . S
C3269 C3273 1.495 . S
C3270 C3269 1.392 . S
C3270 C3271 1.385 . S
C3270 C3272 1.478 . S
C3271 H3265 0.930 . S
C3271 C3267 1.400 . S
C3271 C3270 1.385 . S
C3272 C3270 1.478 . S
C3272 C3274 1.381 . S
C3272 C3278 1.383 . S
C3273 C3269 1.495 . S
C3273 H3279 0.959 . S
C3273 H3280 0.961 . S
C3273 H3281 0.960 . S
C3274 C3272 1.381 . S
C3274 C3275 1.394 . S
C3274 H3282 0.930 . S
C3275 C3274 1.394 . S
C3275 C3276 1.383 . S
C3275 H3283 0.929 . S
C3276 C3275 1.383 . S
C3276 C3277 1.377 . S
C3277 H3261 0.930 . S
C3277 C3276 1.377 . S
C3277 C3278 1.379 . S
C3278 H3262 0.931 . S
C3278 C3272 1.383 . S
C3278 C3277 1.379 . S
H3279 C3273 0.959 . S
H3280 C3273 0.961 . S
H3281 C3273 0.960 . S
H3282 C3274 0.930 . S
H3283 C3275 0.929 . S
H3284 C3292 0.929 . S
H3285 C3294 0.930 . S
H3286 C3296 0.930 . S
H3287 C3299 0.929 . S
H3288 C3302 0.930 . S
H3289 C3304 0.960 . S
H3290 C3304 0.960 . S
H3291 C3304 0.960 . S
C3292 H3284 0.929 . S
C3292 C3293 1.377 . S
C3292 C3294 1.384 . S
C3293 C3292 1.377 . S
C3293 C3299 1.390 . S
C3294 H3285 0.930 . S
C3294 C3292 1.384 . S
C3294 C3295 1.372 . S
C3295 C3294 1.372 . S
C3295 C3296 1.400 . S
C3295 C3300 1.490 . S
C3296 H3286 0.930 . S
C3296 C3295 1.400 . S
C3296 C3299 1.386 . S
H3297 C3313 0.930 . S
H3298 C3314 0.931 . S
C3299 H3287 0.929 . S
C3299 C3293 1.390 . S
C3299 C3296 1.386 . S
C3300 C3295 1.490 . S
C3300 C3302 1.395 . S
C3300 C3303 1.403 . S
H3301 C3307 0.930 . S
C3302 H3288 0.930 . S
C3302 C3300 1.395 . S
C3302 C3305 1.403 . S
C3303 C3300 1.403 . S
C3303 C3304 1.524 . S
C3303 C3307 1.400 . S
C3304 H3289 0.960 . S
C3304 H3290 0.960 . S
C3304 H3291 0.960 . S
C3304 C3303 1.524 . S
C3305 C3302 1.403 . S
C3305 C3306 1.392 . S
C3305 C3309 1.495 . S
C3306 C3305 1.392 . S
C3306 C3307 1.385 . S
C3306 C3308 1.478 . S
C3307 H3301 0.930 . S
C3307 C3303 1.400 . S
C3307 C3306 1.385 . S
C3308 C3306 1.478 . S
C3308 C3310 1.381 . S
C3308 C3314 1.383 . S
C3309 C3305 1.495 . S
C3309 H3315 0.959 . S
C3309 H3316 0.961 . S
C3309 H3317 0.960 . S
C3310 C3308 1.381 . S
C3310 C3311 1.394 . S
C3310 H3318 0.930 . S
C3311 C3310 1.394 . S
C3311 C3312 1.383 . S
C3311 H3319 0.929 . S
C3312 C3311 1.383 . S
C3312 C3313 1.377 . S
C3313 H3297 0.930 . S
C3313 C3312 1.377 . S
C3313 C3314 1.379 . S
C3314 H3298 0.931 . S
C3314 C3308 1.383 . S
C3314 C3313 1.379 . S
H3315 C3309 0.959 . S
H3316 C3309 0.961 . S
H3317 C3309 0.960 . S
H3318 C3310 0.930 . S
H3319 C3311 0.929 . S
H3320 C3328 0.929 . S
H3321 C3330 0.930 . S
H3322 C3332 0.930 1_655 S
H3323 C3335 0.929 1_655 S
H3324 C3338 0.930 . S
H3325 C3340 0.960 . S
H3326 C3340 0.957 . S
H3327 C3340 0.960 . S
C3328 H3320 0.929 . S
C3328 C3329 1.377 . S
C3328 C3330 1.384 . S
C3329 C3328 1.377 . S
C3329 C3335 1.390 . S
C3330 H3321 0.930 . S
C3330 C3328 1.384 . S
C3330 C3331 1.372 . S
C3331 C3330 1.372 . S
C3331 C3332 1.400 . S
C3331 C3336 1.490 . S
C3332 H3322 0.930 1_455 S
C3332 C3331 1.400 . S
C3332 C3335 1.386 . S
H3333 C3349 0.930 1_655 S
H3334 C3350 0.931 1_655 S
C3335 H3323 0.929 1_455 S
C3335 C3329 1.390 . S
C3335 C3332 1.386 . S
C3336 C3331 1.490 . S
C3336 C3338 1.395 . S
C3336 C3339 1.403 . S
H3337 C3343 0.931 1_655 S
C3338 H3324 0.930 . S
C3338 C3336 1.395 . S
C3338 C3341 1.403 . S
C3339 C3336 1.403 . S
C3339 C3340 1.524 1_455 S
C3339 C3343 1.400 . S
C3340 H3325 0.960 . S
C3340 H3326 0.957 . S
C3340 H3327 0.960 . S
C3340 C3339 1.524 1_655 S
C3341 C3338 1.403 . S
C3341 C3342 1.392 . S
C3341 C3345 1.495 . S
C3342 C3341 1.392 . S
C3342 C3343 1.385 . S
C3342 C3344 1.478 . S
C3343 H3337 0.931 1_455 S
C3343 C3339 1.400 . S
C3343 C3342 1.385 . S
C3344 C3342 1.478 . S
C3344 C3346 1.381 . S
C3344 C3350 1.383 . S
C3345 C3341 1.495 . S
C3345 H3351 0.959 . S
C3345 H3352 0.961 . S
C3345 H3353 0.960 . S
C3346 C3344 1.381 . S
C3346 C3347 1.394 . S
C3346 H3354 0.930 . S
C3347 C3346 1.394 . S
C3347 C3348 1.383 . S
C3347 H3355 0.929 . S
C3348 C3347 1.383 . S
C3348 C3349 1.377 . S
C3349 H3333 0.930 1_455 S
C3349 C3348 1.377 . S
C3349 C3350 1.379 . S
C3350 H3334 0.931 1_455 S
C3350 C3344 1.383 . S
C3350 C3349 1.379 . S
H3351 C3345 0.959 . S
H3352 C3345 0.961 . S
H3353 C3345 0.960 . S
H3354 C3346 0.930 . S
H3355 C3347 0.929 . S
H3356 C3364 0.929 . S
H3357 C3366 0.930 . S
H3358 C3368 0.930 . S
H3359 C3371 0.929 . S
H3360 C3374 0.930 . S
H3361 C3376 0.960 . S
H3362 C3376 0.960 . S
H3363 C3376 0.960 . S
C3364 H3356 0.929 . S
C3364 C3365 1.377 . S
C3364 C3366 1.384 . S
C3365 C3364 1.377 . S
C3365 C3371 1.390 . S
C3366 H3357 0.930 . S
C3366 C3364 1.384 . S
C3366 C3367 1.372 . S
C3367 C3366 1.372 . S
C3367 C3368 1.400 . S
C3367 C3372 1.490 . S
C3368 H3358 0.930 . S
C3368 C3367 1.400 . S
C3368 C3371 1.386 . S
H3369 C3385 0.930 . S
H3370 C3386 0.931 . S
C3371 H3359 0.929 . S
C3371 C3365 1.390 . S
C3371 C3368 1.386 . S
C3372 C3367 1.490 . S
C3372 C3374 1.395 . S
C3372 C3375 1.403 . S
H3373 C3379 0.930 . S
C3374 H3360 0.930 . S
C3374 C3372 1.395 . S
C3374 C3377 1.403 . S
C3375 C3372 1.403 . S
C3375 C3376 1.524 . S
C3375 C3379 1.400 . S
C3376 H3361 0.960 . S
C3376 H3362 0.960 . S
C3376 H3363 0.960 . S
C3376 C3375 1.524 . S
C3377 C3374 1.403 . S
C3377 C3378 1.392 . S
C3377 C3381 1.495 . S
C3378 C3377 1.392 . S
C3378 C3379 1.385 . S
C3378 C3380 1.478 . S
C3379 H3373 0.930 . S
C3379 C3375 1.400 . S
C3379 C3378 1.385 . S
C3380 C3378 1.478 . S
C3380 C3382 1.381 . S
C3380 C3386 1.383 . S
C3381 C3377 1.495 . S
C3381 H3387 0.959 . S
C3381 H3388 0.961 . S
C3381 H3389 0.960 . S
C3382 C3380 1.381 . S
C3382 C3383 1.394 . S
C3382 H3390 0.930 . S
C3383 C3382 1.394 . S
C3383 C3384 1.383 . S
C3383 H3391 0.929 . S
C3384 C3383 1.383 . S
C3384 C3385 1.377 . S
C3385 H3369 0.930 . S
C3385 C3384 1.377 . S
C3385 C3386 1.379 . S
C3386 H3370 0.931 . S
C3386 C3380 1.383 . S
C3386 C3385 1.379 . S
H3387 C3381 0.959 . S
H3388 C3381 0.961 . S
H3389 C3381 0.960 . S
H3390 C3382 0.930 . S
H3391 C3383 0.929 . S
H3392 C3400 0.929 . S
H3393 C3402 0.930 . S
H3394 C3404 0.930 . S
H3395 C3407 0.929 . S
H3396 C3410 0.930 . S
H3397 C3412 0.960 . S
H3398 C3412 0.960 . S
H3399 C3412 0.960 . S
C3400 H3392 0.929 . S
C3400 C3401 1.377 . S
C3400 C3402 1.384 . S
C3401 C3400 1.377 . S
C3401 C3407 1.390 . S
C3402 H3393 0.930 . S
C3402 C3400 1.384 . S
C3402 C3403 1.372 . S
C3403 C3402 1.372 . S
C3403 C3404 1.400 . S
C3403 C3408 1.490 . S
C3404 H3394 0.930 . S
C3404 C3403 1.400 . S
C3404 C3407 1.386 . S
H3405 C3421 0.930 . S
H3406 C3422 0.931 . S
C3407 H3395 0.929 . S
C3407 C3401 1.390 . S
C3407 C3404 1.386 . S
C3408 C3403 1.490 . S
C3408 C3410 1.395 . S
C3408 C3411 1.403 . S
H3409 C3415 0.930 . S
C3410 H3396 0.930 . S
C3410 C3408 1.395 . S
C3410 C3413 1.403 . S
C3411 C3408 1.403 . S
C3411 C3412 1.524 . S
C3411 C3415 1.400 . S
C3412 H3397 0.960 . S
C3412 H3398 0.960 . S
C3412 H3399 0.960 . S
C3412 C3411 1.524 . S
C3413 C3410 1.403 . S
C3413 C3414 1.392 . S
C3413 C3417 1.495 . S
C3414 C3413 1.392 . S
C3414 C3415 1.385 . S
C3414 C3416 1.478 . S
C3415 H3409 0.930 . S
C3415 C3411 1.400 . S
C3415 C3414 1.385 . S
C3416 C3414 1.478 . S
C3416 C3418 1.381 . S
C3416 C3422 1.383 . S
C3417 C3413 1.495 . S
C3417 H3423 0.959 . S
C3417 H3424 0.961 . S
C3417 H3425 0.960 . S
C3418 C3416 1.381 . S
C3418 C3419 1.394 1_556 S
C3418 H3426 0.930 1_556 S
C3419 C3418 1.394 1_554 S
C3419 C3420 1.383 1_554 S
C3419 H3427 0.929 . S
C3420 C3419 1.383 1_556 S
C3420 C3421 1.377 . S
C3421 H3405 0.930 . S
C3421 C3420 1.377 . S
C3421 C3422 1.379 . S
C3422 H3406 0.931 . S
C3422 C3416 1.383 . S
C3422 C3421 1.379 . S
H3423 C3417 0.959 . S
H3424 C3417 0.961 . S
H3425 C3417 0.960 . S
H3426 C3418 0.930 1_554 S
H3427 C3419 0.929 . S
H3428 C3436 0.929 . S
H3429 C3438 0.930 . S
H3430 C3440 0.930 . S
H3431 C3443 0.929 . S
H3432 C3446 0.930 . S
H3433 C3448 0.960 . S
H3434 C3448 0.960 . S
H3435 C3448 0.960 . S
C3436 H3428 0.929 . S
C3436 C3437 1.377 . S
C3436 C3438 1.384 . S
C3437 C3436 1.377 . S
C3437 C3443 1.390 . S
C3438 H3429 0.930 . S
C3438 C3436 1.384 . S
C3438 C3439 1.372 . S
C3439 C3438 1.372 . S
C3439 C3440 1.400 . S
C3439 C3444 1.490 . S
C3440 H3430 0.930 . S
C3440 C3439 1.400 . S
C3440 C3443 1.386 . S
H3441 C3457 0.930 . S
H3442 C3458 0.931 . S
C3443 H3431 0.929 . S
C3443 C3437 1.390 . S
C3443 C3440 1.386 . S
C3444 C3439 1.490 . S
C3444 C3446 1.395 . S
C3444 C3447 1.403 . S
H3445 C3451 0.930 . S
C3446 H3432 0.930 . S
C3446 C3444 1.395 . S
C3446 C3449 1.403 . S
C3447 C3444 1.403 . S
C3447 C3448 1.524 . S
C3447 C3451 1.400 . S
C3448 H3433 0.960 . S
C3448 H3434 0.960 . S
C3448 H3435 0.960 . S
C3448 C3447 1.524 . S
C3449 C3446 1.403 . S
C3449 C3450 1.392 . S
C3449 C3453 1.495 . S
C3450 C3449 1.392 . S
C3450 C3451 1.385 . S
C3450 C3452 1.478 . S
C3451 H3445 0.930 . S
C3451 C3447 1.400 . S
C3451 C3450 1.385 . S
C3452 C3450 1.478 . S
C3452 C3454 1.381 . S
C3452 C3458 1.383 . S
C3453 C3449 1.495 . S
C3453 H3459 0.959 . S
C3453 H3460 0.961 . S
C3453 H3461 0.960 . S
C3454 C3452 1.381 . S
C3454 C3455 1.394 . S
C3454 H3462 0.930 . S
C3455 C3454 1.394 . S
C3455 C3456 1.383 . S
C3455 H3463 0.929 . S
C3456 C3455 1.383 . S
C3456 C3457 1.377 . S
C3457 H3441 0.930 . S
C3457 C3456 1.377 . S
C3457 C3458 1.379 . S
C3458 H3442 0.931 . S
C3458 C3452 1.383 . S
C3458 C3457 1.379 . S
H3459 C3453 0.959 . S
H3460 C3453 0.961 . S
H3461 C3453 0.960 . S
H3462 C3454 0.930 . S
H3463 C3455 0.929 . S
H3464 C3472 0.929 . S
H3465 C3474 0.930 . S
H3466 C3476 0.930 1_655 S
H3467 C3479 0.929 1_655 S
H3468 C3482 0.930 . S
H3469 C3484 0.960 . S
H3470 C3484 0.960 1_455 S
H3471 C3484 0.960 . S
C3472 H3464 0.929 . S
C3472 C3473 1.377 . S
C3472 C3474 1.384 . S
C3473 C3472 1.377 . S
C3473 C3479 1.390 . S
C3474 H3465 0.930 . S
C3474 C3472 1.384 . S
C3474 C3475 1.372 . S
C3475 C3474 1.372 . S
C3475 C3476 1.400 . S
C3475 C3480 1.490 . S
C3476 H3466 0.930 1_455 S
C3476 C3475 1.400 . S
C3476 C3479 1.386 . S
H3477 C3493 0.930 1_655 S
H3478 C3494 0.931 1_655 S
C3479 H3467 0.929 1_455 S
C3479 C3473 1.390 . S
C3479 C3476 1.386 . S
C3480 C3475 1.490 . S
C3480 C3482 1.395 . S
C3480 C3483 1.403 . S
H3481 C3487 0.930 . S
C3482 H3468 0.930 . S
C3482 C3480 1.395 . S
C3482 C3485 1.403 . S
C3483 C3480 1.403 . S
C3483 C3484 1.524 1_455 S
C3483 C3487 1.400 . S
C3484 H3469 0.960 . S
C3484 H3470 0.960 1_655 S
C3484 H3471 0.960 . S
C3484 C3483 1.524 1_655 S
C3485 C3482 1.403 . S
C3485 C3486 1.392 . S
C3485 C3489 1.495 . S
C3486 C3485 1.392 . S
C3486 C3487 1.385 . S
C3486 C3488 1.478 . S
C3487 H3481 0.930 . S
C3487 C3483 1.400 . S
C3487 C3486 1.385 . S
C3488 C3486 1.478 . S
C3488 C3490 1.381 . S
C3488 C3494 1.383 . S
C3489 C3485 1.495 . S
C3489 H3495 0.959 . S
C3489 H3496 0.961 . S
C3489 H3497 0.960 . S
C3490 C3488 1.381 . S
C3490 C3491 1.394 . S
C3490 H3498 0.930 . S
C3491 C3490 1.394 . S
C3491 C3492 1.383 . S
C3491 H3499 0.929 . S
C3492 C3491 1.383 . S
C3492 C3493 1.377 . S
C3493 H3477 0.930 1_455 S
C3493 C3492 1.377 . S
C3493 C3494 1.379 . S
C3494 H3478 0.931 1_455 S
C3494 C3488 1.383 . S
C3494 C3493 1.379 . S
H3495 C3489 0.959 . S
H3496 C3489 0.961 . S
H3497 C3489 0.960 . S
H3498 C3490 0.930 . S
H3499 C3491 0.929 . S
H3500 C3508 0.929 . S
H3501 C3510 0.930 . S
H3502 C3512 0.930 . S
H3503 C3515 0.929 . S
H3504 C3518 0.930 . S
H3505 C3520 0.960 . S
H3506 C3520 0.960 . S
H3507 C3520 0.960 . S
C3508 H3500 0.929 . S
C3508 C3509 1.377 . S
C3508 C3510 1.384 . S
C3509 C3508 1.377 . S
C3509 C3515 1.390 . S
C3510 H3501 0.930 . S
C3510 C3508 1.384 . S
C3510 C3511 1.372 . S
C3511 C3510 1.372 . S
C3511 C3512 1.400 . S
C3511 C3516 1.490 . S
C3512 H3502 0.930 . S
C3512 C3511 1.400 . S
C3512 C3515 1.386 . S
H3513 C3529 0.930 . S
H3514 C3530 0.931 . S
C3515 H3503 0.929 . S
C3515 C3509 1.390 . S
C3515 C3512 1.386 . S
C3516 C3511 1.490 . S
C3516 C3518 1.395 . S
C3516 C3519 1.403 . S
H3517 C3523 0.930 . S
C3518 H3504 0.930 . S
C3518 C3516 1.395 . S
C3518 C3521 1.403 . S
C3519 C3516 1.403 . S
C3519 C3520 1.524 . S
C3519 C3523 1.400 . S
C3520 H3505 0.960 . S
C3520 H3506 0.960 . S
C3520 H3507 0.960 . S
C3520 C3519 1.524 . S
C3521 C3518 1.403 . S
C3521 C3522 1.392 . S
C3521 C3525 1.495 . S
C3522 C3521 1.392 . S
C3522 C3523 1.385 . S
C3522 C3524 1.478 . S
C3523 H3517 0.930 . S
C3523 C3519 1.400 . S
C3523 C3522 1.385 . S
C3524 C3522 1.478 . S
C3524 C3526 1.381 . S
C3524 C3530 1.383 . S
C3525 C3521 1.495 . S
C3525 H3531 0.959 . S
C3525 H3532 0.961 . S
C3525 H3533 0.960 . S
C3526 C3524 1.381 . S
C3526 C3527 1.394 . S
C3526 H3534 0.930 . S
C3527 C3526 1.394 . S
C3527 C3528 1.383 . S
C3527 H3535 0.929 . S
C3528 C3527 1.383 . S
C3528 C3529 1.377 . S
C3529 H3513 0.930 . S
C3529 C3528 1.377 . S
C3529 C3530 1.379 . S
C3530 H3514 0.931 . S
C3530 C3524 1.383 . S
C3530 C3529 1.379 . S
H3531 C3525 0.959 . S
H3532 C3525 0.961 . S
H3533 C3525 0.960 . S
H3534 C3526 0.930 . S
H3535 C3527 0.929 . S
H3536 C3544 0.929 . S
H3537 C3546 0.930 . S
H3538 C3548 0.930 . S
H3539 C3551 0.929 . S
H3540 C3554 0.930 . S
H3541 C3556 0.960 . S
H3542 C3556 0.960 . S
H3543 C3556 0.960 . S
C3544 H3536 0.929 . S
C3544 C3545 1.377 . S
C3544 C3546 1.384 . S
C3545 C3544 1.377 . S
C3545 C3551 1.390 . S
C3546 H3537 0.930 . S
C3546 C3544 1.384 . S
C3546 C3547 1.372 . S
C3547 C3546 1.372 . S
C3547 C3548 1.400 . S
C3547 C3552 1.490 . S
C3548 H3538 0.930 . S
C3548 C3547 1.400 . S
C3548 C3551 1.386 . S
H3549 C3565 0.930 . S
H3550 C3566 0.931 . S
C3551 H3539 0.929 . S
C3551 C3545 1.390 . S
C3551 C3548 1.386 . S
C3552 C3547 1.490 . S
C3552 C3554 1.395 . S
C3552 C3555 1.403 . S
H3553 C3559 0.930 . S
C3554 H3540 0.930 . S
C3554 C3552 1.395 . S
C3554 C3557 1.403 . S
C3555 C3552 1.403 . S
C3555 C3556 1.524 . S
C3555 C3559 1.400 . S
C3556 H3541 0.960 . S
C3556 H3542 0.960 . S
C3556 H3543 0.960 . S
C3556 C3555 1.524 . S
C3557 C3554 1.403 . S
C3557 C3558 1.392 . S
C3557 C3561 1.495 . S
C3558 C3557 1.392 . S
C3558 C3559 1.385 . S
C3558 C3560 1.478 . S
C3559 H3553 0.930 . S
C3559 C3555 1.400 . S
C3559 C3558 1.385 . S
C3560 C3558 1.478 . S
C3560 C3562 1.381 . S
C3560 C3566 1.383 . S
C3561 C3557 1.495 . S
C3561 H3567 0.959 . S
C3561 H3568 0.961 . S
C3561 H3569 0.960 . S
C3562 C3560 1.381 . S
C3562 C3563 1.394 . S
C3562 H3570 0.930 . S
C3563 C3562 1.394 . S
C3563 C3564 1.383 . S
C3563 H3571 0.929 . S
C3564 C3563 1.383 . S
C3564 C3565 1.377 . S
C3565 H3549 0.930 . S
C3565 C3564 1.377 . S
C3565 C3566 1.379 . S
C3566 H3550 0.931 . S
C3566 C3560 1.383 . S
C3566 C3565 1.379 . S
H3567 C3561 0.959 . S
H3568 C3561 0.961 . S
H3569 C3561 0.960 . S
H3570 C3562 0.930 . S
H3571 C3563 0.929 . S
H3572 C3580 0.929 . S
H3573 C3582 0.930 . S
H3574 C3584 0.930 . S
H3575 C3587 0.929 . S
H3576 C3590 0.930 . S
H3577 C3592 0.960 . S
H3578 C3592 0.960 . S
H3579 C3592 0.960 . S
C3580 H3572 0.929 . S
C3580 C3581 1.377 . S
C3580 C3582 1.384 . S
C3581 C3580 1.377 . S
C3581 C3587 1.390 . S
C3582 H3573 0.930 . S
C3582 C3580 1.384 . S
C3582 C3583 1.372 . S
C3583 C3582 1.372 . S
C3583 C3584 1.400 . S
C3583 C3588 1.490 . S
C3584 H3574 0.930 . S
C3584 C3583 1.400 . S
C3584 C3587 1.386 . S
H3585 C3601 0.930 . S
H3586 C3602 0.931 . S
C3587 H3575 0.929 . S
C3587 C3581 1.390 . S
C3587 C3584 1.386 . S
C3588 C3583 1.490 . S
C3588 C3590 1.395 . S
C3588 C3591 1.403 . S
H3589 C3595 0.930 . S
C3590 H3576 0.930 . S
C3590 C3588 1.395 . S
C3590 C3593 1.403 . S
C3591 C3588 1.403 . S
C3591 C3592 1.524 . S
C3591 C3595 1.400 . S
C3592 H3577 0.960 . S
C3592 H3578 0.960 . S
C3592 H3579 0.960 . S
C3592 C3591 1.524 . S
C3593 C3590 1.403 . S
C3593 C3594 1.392 . S
C3593 C3597 1.495 . S
C3594 C3593 1.392 . S
C3594 C3595 1.385 . S
C3594 C3596 1.478 . S
C3595 H3589 0.930 . S
C3595 C3591 1.400 . S
C3595 C3594 1.385 . S
C3596 C3594 1.478 . S
C3596 C3598 1.381 . S
C3596 C3602 1.383 . S
C3597 C3593 1.495 . S
C3597 H3603 0.959 . S
C3597 H3604 0.961 . S
C3597 H3605 0.960 . S
C3598 C3596 1.381 . S
C3598 C3599 1.394 . S
C3598 H3606 0.930 . S
C3599 C3598 1.394 . S
C3599 C3600 1.383 . S
C3599 H3607 0.929 . S
C3600 C3599 1.383 . S
C3600 C3601 1.377 . S
C3601 H3585 0.930 . S
C3601 C3600 1.377 . S
C3601 C3602 1.379 . S
C3602 H3586 0.931 . S
C3602 C3596 1.383 . S
C3602 C3601 1.379 . S
H3603 C3597 0.959 . S
H3604 C3597 0.961 . S
H3605 C3597 0.960 . S
H3606 C3598 0.930 . S
H3607 C3599 0.929 . S
H3608 C3616 0.929 . S
H3609 C3618 0.930 . S
H3610 C3620 0.930 . S
H3611 C3623 0.929 . S
H3612 C3626 0.930 . S
H3613 C3628 0.960 . S
H3614 C3628 0.960 . S
H3615 C3628 0.960 . S
C3616 H3608 0.929 . S
C3616 C3617 1.377 . S
C3616 C3618 1.384 . S
C3617 C3616 1.377 . S
C3617 C3623 1.390 . S
C3618 H3609 0.930 . S
C3618 C3616 1.384 . S
C3618 C3619 1.372 . S
C3619 C3618 1.372 . S
C3619 C3620 1.400 . S
C3619 C3624 1.490 . S
C3620 H3610 0.930 . S
C3620 C3619 1.400 . S
C3620 C3623 1.386 . S
H3621 C3637 0.930 . S
H3622 C3638 0.931 1_455 S
C3623 H3611 0.929 . S
C3623 C3617 1.390 . S
C3623 C3620 1.386 . S
C3624 C3619 1.490 . S
C3624 C3626 1.395 . S
C3624 C3627 1.403 . S
H3625 C3631 0.930 . S
C3626 H3612 0.930 . S
C3626 C3624 1.395 . S
C3626 C3629 1.403 . S
C3627 C3624 1.403 . S
C3627 C3628 1.524 . S
C3627 C3631 1.400 . S
C3628 H3613 0.960 . S
C3628 H3614 0.960 . S
C3628 H3615 0.960 . S
C3628 C3627 1.524 . S
C3629 C3626 1.403 . S
C3629 C3630 1.392 . S
C3629 C3633 1.495 . S
C3630 C3629 1.392 . S
C3630 C3631 1.385 . S
C3630 C3632 1.478 . S
C3631 H3625 0.930 . S
C3631 C3627 1.400 . S
C3631 C3630 1.385 . S
C3632 C3630 1.478 . S
C3632 C3634 1.381 . S
C3632 C3638 1.383 . S
C3633 C3629 1.495 . S
C3633 H3639 0.959 . S
C3633 H3640 0.961 . S
C3633 H3641 0.960 . S
C3634 C3632 1.381 . S
C3634 C3635 1.394 . S
C3634 H3642 0.930 . S
C3635 C3634 1.394 . S
C3635 C3636 1.383 . S
C3635 H3643 0.929 . S
C3636 C3635 1.383 . S
C3636 C3637 1.377 1_655 S
C3637 H3621 0.930 . S
C3637 C3636 1.377 1_455 S
C3637 C3638 1.379 1_455 S
C3638 H3622 0.931 1_655 S
C3638 C3632 1.383 . S
C3638 C3637 1.379 1_655 S
H3639 C3633 0.959 . S
H3640 C3633 0.961 . S
H3641 C3633 0.960 . S
H3642 C3634 0.930 . S
H3643 C3635 0.929 . S
H3644 C3652 0.929 . S
H3645 C3654 0.930 . S
H3646 C3656 0.930 . S
H3647 C3659 0.929 . S
H3648 C3662 0.930 . S
H3649 C3664 0.960 . S
H3650 C3664 0.960 . S
H3651 C3664 0.960 . S
C3652 H3644 0.929 . S
C3652 C3653 1.377 . S
C3652 C3654 1.384 . S
C3653 C3652 1.377 . S
C3653 C3659 1.390 . S
C3654 H3645 0.930 . S
C3654 C3652 1.384 . S
C3654 C3655 1.372 . S
C3655 C3654 1.372 . S
C3655 C3656 1.400 . S
C3655 C3660 1.490 . S
C3656 H3646 0.930 . S
C3656 C3655 1.400 . S
C3656 C3659 1.386 . S
H3657 C3673 0.930 . S
H3658 C3674 0.931 . S
C3659 H3647 0.929 . S
C3659 C3653 1.390 . S
C3659 C3656 1.386 . S
C3660 C3655 1.490 . S
C3660 C3662 1.395 . S
C3660 C3663 1.403 . S
H3661 C3667 0.930 . S
C3662 H3648 0.930 . S
C3662 C3660 1.395 . S
C3662 C3665 1.403 . S
C3663 C3660 1.403 . S
C3663 C3664 1.524 . S
C3663 C3667 1.400 . S
C3664 H3649 0.960 . S
C3664 H3650 0.960 . S
C3664 H3651 0.960 . S
C3664 C3663 1.524 . S
C3665 C3662 1.403 . S
C3665 C3666 1.392 . S
C3665 C3669 1.495 . S
C3666 C3665 1.392 . S
C3666 C3667 1.385 . S
C3666 C3668 1.478 . S
C3667 H3661 0.930 . S
C3667 C3663 1.400 . S
C3667 C3666 1.385 . S
C3668 C3666 1.478 . S
C3668 C3670 1.381 . S
C3668 C3674 1.383 . S
C3669 C3665 1.495 . S
C3669 H3675 0.959 . S
C3669 H3676 0.961 . S
C3669 H3677 0.960 . S
C3670 C3668 1.381 . S
C3670 C3671 1.394 . S
C3670 H3678 0.930 . S
C3671 C3670 1.394 . S
C3671 C3672 1.383 . S
C3671 H3679 0.929 . S
C3672 C3671 1.383 . S
C3672 C3673 1.377 . S
C3673 H3657 0.930 . S
C3673 C3672 1.377 . S
C3673 C3674 1.379 . S
C3674 H3658 0.931 . S
C3674 C3668 1.383 . S
C3674 C3673 1.379 . S
H3675 C3669 0.959 . S
H3676 C3669 0.961 . S
H3677 C3669 0.960 . S
H3678 C3670 0.930 . S
H3679 C3671 0.929 . S
H3680 C3688 0.929 . S
H3681 C3690 0.930 . S
H3682 C3692 0.930 . S
H3683 C3695 0.929 . S
H3684 C3698 0.930 . S
H3685 C3700 0.960 . S
H3686 C3700 0.960 . S
H3687 C3700 0.960 . S
C3688 H3680 0.929 . S
C3688 C3689 1.377 . S
C3688 C3690 1.384 . S
C3689 C3688 1.377 . S
C3689 C3695 1.390 . S
C3690 H3681 0.930 . S
C3690 C3688 1.384 . S
C3690 C3691 1.372 . S
C3691 C3690 1.372 . S
C3691 C3692 1.400 . S
C3691 C3696 1.490 . S
C3692 H3682 0.930 . S
C3692 C3691 1.400 . S
C3692 C3695 1.386 . S
H3693 C3709 0.930 . S
H3694 C3710 0.931 . S
C3695 H3683 0.929 . S
C3695 C3689 1.390 . S
C3695 C3692 1.386 . S
C3696 C3691 1.490 . S
C3696 C3698 1.395 . S
C3696 C3699 1.403 . S
H3697 C3703 0.930 . S
C3698 H3684 0.930 . S
C3698 C3696 1.395 . S
C3698 C3701 1.403 . S
C3699 C3696 1.403 . S
C3699 C3700 1.524 . S
C3699 C3703 1.400 . S
C3700 H3685 0.960 . S
C3700 H3686 0.960 . S
C3700 H3687 0.960 . S
C3700 C3699 1.524 . S
C3701 C3698 1.403 . S
C3701 C3702 1.392 . S
C3701 C3705 1.495 . S
C3702 C3701 1.392 . S
C3702 C3703 1.385 . S
C3702 C3704 1.478 . S
C3703 H3697 0.930 . S
C3703 C3699 1.400 . S
C3703 C3702 1.385 . S
C3704 C3702 1.478 . S
C3704 C3706 1.381 . S
C3704 C3710 1.383 . S
C3705 C3701 1.495 . S
C3705 H3711 0.959 . S
C3705 H3712 0.961 . S
C3705 H3713 0.960 . S
C3706 C3704 1.381 . S
C3706 C3707 1.394 . S
C3706 H3714 0.930 . S
C3707 C3706 1.394 . S
C3707 C3708 1.383 . S
C3707 H3715 0.929 . S
C3708 C3707 1.383 . S
C3708 C3709 1.377 . S
C3709 H3693 0.930 . S
C3709 C3708 1.377 . S
C3709 C3710 1.379 . S
C3710 H3694 0.931 . S
C3710 C3704 1.383 . S
C3710 C3709 1.379 . S
H3711 C3705 0.959 . S
H3712 C3705 0.961 . S
H3713 C3705 0.960 . S
H3714 C3706 0.930 . S
H3715 C3707 0.929 . S
H3716 C3724 0.929 . S
H3717 C3726 0.930 . S
H3718 C3728 0.930 . S
H3719 C3731 0.929 . S
H3720 C3734 0.930 . S
H3721 C3736 0.960 . S
H3722 C3736 0.960 . S
H3723 C3736 0.960 . S
C3724 H3716 0.929 . S
C3724 C3725 1.377 . S
C3724 C3726 1.384 . S
C3725 C3724 1.377 . S
C3725 C3731 1.390 . S
C3726 H3717 0.930 . S
C3726 C3724 1.384 . S
C3726 C3727 1.372 . S
C3727 C3726 1.372 . S
C3727 C3728 1.400 . S
C3727 C3732 1.490 . S
C3728 H3718 0.930 . S
C3728 C3727 1.400 . S
C3728 C3731 1.386 . S
H3729 C3745 0.930 . S
H3730 C3746 0.931 . S
C3731 H3719 0.929 . S
C3731 C3725 1.390 . S
C3731 C3728 1.386 . S
C3732 C3727 1.490 . S
C3732 C3734 1.395 . S
C3732 C3735 1.403 . S
H3733 C3739 0.930 . S
C3734 H3720 0.930 . S
C3734 C3732 1.395 . S
C3734 C3737 1.403 . S
C3735 C3732 1.403 . S
C3735 C3736 1.524 . S
C3735 C3739 1.400 . S
C3736 H3721 0.960 . S
C3736 H3722 0.960 . S
C3736 H3723 0.960 . S
C3736 C3735 1.524 . S
C3737 C3734 1.403 . S
C3737 C3738 1.392 . S
C3737 C3741 1.495 . S
C3738 C3737 1.392 . S
C3738 C3739 1.385 . S
C3738 C3740 1.478 . S
C3739 H3733 0.930 . S
C3739 C3735 1.400 . S
C3739 C3738 1.385 . S
C3740 C3738 1.478 . S
C3740 C3742 1.381 . S
C3740 C3746 1.383 . S
C3741 C3737 1.495 . S
C3741 H3747 0.959 . S
C3741 H3748 0.961 . S
C3741 H3749 0.960 . S
C3742 C3740 1.381 . S
C3742 C3743 1.394 . S
C3742 H3750 0.930 . S
C3743 C3742 1.394 . S
C3743 C3744 1.383 . S
C3743 H3751 0.929 . S
C3744 C3743 1.383 . S
C3744 C3745 1.377 . S
C3745 H3729 0.930 . S
C3745 C3744 1.377 . S
C3745 C3746 1.379 . S
C3746 H3730 0.931 . S
C3746 C3740 1.383 . S
C3746 C3745 1.379 . S
H3747 C3741 0.959 . S
H3748 C3741 0.961 . S
H3749 C3741 0.960 . S
H3750 C3742 0.930 . S
H3751 C3743 0.929 . S
H3752 C3760 0.929 . S
H3753 C3762 0.930 . S
H3754 C3764 0.930 . S
H3755 C3767 0.929 . S
H3756 C3770 0.930 . S
H3757 C3772 0.960 . S
H3758 C3772 0.960 . S
H3759 C3772 0.960 . S
C3760 H3752 0.929 . S
C3760 C3761 1.377 . S
C3760 C3762 1.384 . S
C3761 C3760 1.377 . S
C3761 C3767 1.390 . S
C3762 H3753 0.930 . S
C3762 C3760 1.384 . S
C3762 C3763 1.372 . S
C3763 C3762 1.372 . S
C3763 C3764 1.400 . S
C3763 C3768 1.490 . S
C3764 H3754 0.930 . S
C3764 C3763 1.400 . S
C3764 C3767 1.386 . S
H3765 C3781 0.930 1_455 S
H3766 C3782 0.931 . S
C3767 H3755 0.929 . S
C3767 C3761 1.390 . S
C3767 C3764 1.386 . S
C3768 C3763 1.490 . S
C3768 C3770 1.395 . S
C3768 C3771 1.403 . S
H3769 C3775 0.930 . S
C3770 H3756 0.930 . S
C3770 C3768 1.395 . S
C3770 C3773 1.403 . S
C3771 C3768 1.403 . S
C3771 C3772 1.524 . S
C3771 C3775 1.400 . S
C3772 H3757 0.960 . S
C3772 H3758 0.960 . S
C3772 H3759 0.960 . S
C3772 C3771 1.524 . S
C3773 C3770 1.403 . S
C3773 C3774 1.392 . S
C3773 C3777 1.495 . S
C3774 C3773 1.392 . S
C3774 C3775 1.385 . S
C3774 C3776 1.478 . S
C3775 H3769 0.930 . S
C3775 C3771 1.400 . S
C3775 C3774 1.385 . S
C3776 C3774 1.478 . S
C3776 C3778 1.381 . S
C3776 C3782 1.383 . S
C3777 C3773 1.495 . S
C3777 H3783 0.959 . S
C3777 H3784 0.961 . S
C3777 H3785 0.960 . S
C3778 C3776 1.381 . S
C3778 C3779 1.394 . S
C3778 H3786 0.930 . S
C3779 C3778 1.394 . S
C3779 C3780 1.383 . S
C3779 H3787 0.929 . S
C3780 C3779 1.383 . S
C3780 C3781 1.377 . S
C3781 H3765 0.930 1_655 S
C3781 C3780 1.377 . S
C3781 C3782 1.379 . S
C3782 H3766 0.931 . S
C3782 C3776 1.383 . S
C3782 C3781 1.379 . S
H3783 C3777 0.959 . S
H3784 C3777 0.961 . S
H3785 C3777 0.960 . S
H3786 C3778 0.930 . S
H3787 C3779 0.929 . S
H3788 C3796 0.929 . S
H3789 C3798 0.930 . S
H3790 C3800 0.930 . S
H3791 C3803 0.929 . S
H3792 C3806 0.930 . S
H3793 C3808 0.960 . S
H3794 C3808 0.960 . S
H3795 C3808 0.960 . S
C3796 H3788 0.929 . S
C3796 C3797 1.377 . S
C3796 C3798 1.384 . S
C3797 C3796 1.377 . S
C3797 C3803 1.390 . S
C3798 H3789 0.930 . S
C3798 C3796 1.384 . S
C3798 C3799 1.372 . S
C3799 C3798 1.372 . S
C3799 C3800 1.400 . S
C3799 C3804 1.490 . S
C3800 H3790 0.930 . S
C3800 C3799 1.400 . S
C3800 C3803 1.386 . S
H3801 C3817 0.930 . S
H3802 C3818 0.931 . S
C3803 H3791 0.929 . S
C3803 C3797 1.390 . S
C3803 C3800 1.386 . S
C3804 C3799 1.490 . S
C3804 C3806 1.395 . S
C3804 C3807 1.403 . S
H3805 C3811 0.930 . S
C3806 H3792 0.930 . S
C3806 C3804 1.395 . S
C3806 C3809 1.403 . S
C3807 C3804 1.403 . S
C3807 C3808 1.524 . S
C3807 C3811 1.400 . S
C3808 H3793 0.960 . S
C3808 H3794 0.960 . S
C3808 H3795 0.960 . S
C3808 C3807 1.524 . S
C3809 C3806 1.403 . S
C3809 C3810 1.392 . S
C3809 C3813 1.495 . S
C3810 C3809 1.392 . S
C3810 C3811 1.385 . S
C3810 C3812 1.478 . S
C3811 H3805 0.930 . S
C3811 C3807 1.400 . S
C3811 C3810 1.385 . S
C3812 C3810 1.478 . S
C3812 C3814 1.381 . S
C3812 C3818 1.383 . S
C3813 C3809 1.495 . S
C3813 H3819 0.959 . S
C3813 H3820 0.961 . S
C3813 H3821 0.960 . S
C3814 C3812 1.381 . S
C3814 C3815 1.394 . S
C3814 H3822 0.930 . S
C3815 C3814 1.394 . S
C3815 C3816 1.383 . S
C3815 H3823 0.929 . S
C3816 C3815 1.383 . S
C3816 C3817 1.377 . S
C3817 H3801 0.930 . S
C3817 C3816 1.377 . S
C3817 C3818 1.379 . S
C3818 H3802 0.931 . S
C3818 C3812 1.383 . S
C3818 C3817 1.379 . S
H3819 C3813 0.959 . S
H3820 C3813 0.961 . S
H3821 C3813 0.960 . S
H3822 C3814 0.930 . S
H3823 C3815 0.929 . S
H3824 C3832 0.929 . S
H3825 C3834 0.930 . S
H3826 C3836 0.930 . S
H3827 C3839 0.929 . S
H3828 C3842 0.930 . S
H3829 C3844 0.960 . S
H3830 C3844 0.960 . S
H3831 C3844 0.960 . S
C3832 H3824 0.929 . S
C3832 C3833 1.377 . S
C3832 C3834 1.384 . S
C3833 C3832 1.377 . S
C3833 C3839 1.390 . S
C3834 H3825 0.930 . S
C3834 C3832 1.384 . S
C3834 C3835 1.372 . S
C3835 C3834 1.372 . S
C3835 C3836 1.400 . S
C3835 C3840 1.490 . S
C3836 H3826 0.930 . S
C3836 C3835 1.400 . S
C3836 C3839 1.386 . S
H3837 C3853 0.930 . S
H3838 C3854 0.931 . S
C3839 H3827 0.929 . S
C3839 C3833 1.390 . S
C3839 C3836 1.386 . S
C3840 C3835 1.490 . S
C3840 C3842 1.395 . S
C3840 C3843 1.403 . S
H3841 C3847 0.930 . S
C3842 H3828 0.930 . S
C3842 C3840 1.395 . S
C3842 C3845 1.403 . S
C3843 C3840 1.403 . S
C3843 C3844 1.524 . S
C3843 C3847 1.400 . S
C3844 H3829 0.960 . S
C3844 H3830 0.960 . S
C3844 H3831 0.960 . S
C3844 C3843 1.524 . S
C3845 C3842 1.403 . S
C3845 C3846 1.392 . S
C3845 C3849 1.495 . S
C3846 C3845 1.392 . S
C3846 C3847 1.385 . S
C3846 C3848 1.478 . S
C3847 H3841 0.930 . S
C3847 C3843 1.400 . S
C3847 C3846 1.385 . S
C3848 C3846 1.478 . S
C3848 C3850 1.381 . S
C3848 C3854 1.383 . S
C3849 C3845 1.495 . S
C3849 H3855 0.959 . S
C3849 H3856 0.961 . S
C3849 H3857 0.960 . S
C3850 C3848 1.381 . S
C3850 C3851 1.394 . S
C3850 H3858 0.930 . S
C3851 C3850 1.394 . S
C3851 C3852 1.383 . S
C3851 H3859 0.929 . S
C3852 C3851 1.383 . S
C3852 C3853 1.377 . S
C3853 H3837 0.930 . S
C3853 C3852 1.377 . S
C3853 C3854 1.379 . S
C3854 H3838 0.931 . S
C3854 C3848 1.383 . S
C3854 C3853 1.379 . S
H3855 C3849 0.959 . S
H3856 C3849 0.961 . S
H3857 C3849 0.960 . S
H3858 C3850 0.930 . S
H3859 C3851 0.929 . S
H3860 C3868 0.929 . S
H3861 C3870 0.930 . S
H3862 C3872 0.930 . S
H3863 C3875 0.929 . S
H3864 C3878 0.930 . S
H3865 C3880 0.960 . S
H3866 C3880 0.960 . S
H3867 C3880 0.960 . S
C3868 H3860 0.929 . S
C3868 C3869 1.377 . S
C3868 C3870 1.384 . S
C3869 C3868 1.377 . S
C3869 C3875 1.390 . S
C3870 H3861 0.930 . S
C3870 C3868 1.384 . S
C3870 C3871 1.372 . S
C3871 C3870 1.372 . S
C3871 C3872 1.400 . S
C3871 C3876 1.490 . S
C3872 H3862 0.930 . S
C3872 C3871 1.400 . S
C3872 C3875 1.386 . S
H3873 C3889 0.930 1_545 S
H3874 C3890 0.931 . S
C3875 H3863 0.929 . S
C3875 C3869 1.390 . S
C3875 C3872 1.386 . S
C3876 C3871 1.490 . S
C3876 C3878 1.395 . S
C3876 C3879 1.403 . S
H3877 C3883 0.930 . S
C3878 H3864 0.930 . S
C3878 C3876 1.395 . S
C3878 C3881 1.403 . S
C3879 C3876 1.403 . S
C3879 C3880 1.524 . S
C3879 C3883 1.400 . S
C3880 H3865 0.960 . S
C3880 H3866 0.960 . S
C3880 H3867 0.960 . S
C3880 C3879 1.524 . S
C3881 C3878 1.403 . S
C3881 C3882 1.392 . S
C3881 C3885 1.495 . S
C3882 C3881 1.392 . S
C3882 C3883 1.385 . S
C3882 C3884 1.478 . S
C3883 H3877 0.930 . S
C3883 C3879 1.400 . S
C3883 C3882 1.385 . S
C3884 C3882 1.478 . S
C3884 C3886 1.381 . S
C3884 C3890 1.383 . S
C3885 C3881 1.495 . S
C3885 H3891 0.959 . S
C3885 H3892 0.961 . S
C3885 H3893 0.960 . S
C3886 C3884 1.381 . S
C3886 C3887 1.394 . S
C3886 H3894 0.930 . S
C3887 C3886 1.394 . S
C3887 C3888 1.383 . S
C3887 H3895 0.929 . S
C3888 C3887 1.383 . S
C3888 C3889 1.377 . S
C3889 H3873 0.930 1_565 S
C3889 C3888 1.377 . S
C3889 C3890 1.379 . S
C3890 H3874 0.931 . S
C3890 C3884 1.383 . S
C3890 C3889 1.379 . S
H3891 C3885 0.959 . S
H3892 C3885 0.961 . S
H3893 C3885 0.960 . S
H3894 C3886 0.930 . S
H3895 C3887 0.929 . S
H3896 C3904 0.929 . S
H3897 C3906 0.930 . S
H3898 C3908 0.930 . S
H3899 C3911 0.929 . S
H3900 C3914 0.930 . S
H3901 C3916 0.960 . S
H3902 C3916 0.960 . S
H3903 C3916 0.960 . S
C3904 H3896 0.929 . S
C3904 C3905 1.377 . S
C3904 C3906 1.384 . S
C3905 C3904 1.377 . S
C3905 C3911 1.390 . S
C3906 H3897 0.930 . S
C3906 C3904 1.384 . S
C3906 C3907 1.372 . S
C3907 C3906 1.372 . S
C3907 C3908 1.400 . S
C3907 C3912 1.490 . S
C3908 H3898 0.930 . S
C3908 C3907 1.400 . S
C3908 C3911 1.386 . S
H3909 C3925 0.930 . S
H3910 C3926 0.931 . S
C3911 H3899 0.929 . S
C3911 C3905 1.390 . S
C3911 C3908 1.386 . S
C3912 C3907 1.490 . S
C3912 C3914 1.395 . S
C3912 C3915 1.403 . S
H3913 C3919 0.930 . S
C3914 H3900 0.930 . S
C3914 C3912 1.395 . S
C3914 C3917 1.403 . S
C3915 C3912 1.403 . S
C3915 C3916 1.524 . S
C3915 C3919 1.400 . S
C3916 H3901 0.960 . S
C3916 H3902 0.960 . S
C3916 H3903 0.960 . S
C3916 C3915 1.524 . S
C3917 C3914 1.403 . S
C3917 C3918 1.392 . S
C3917 C3921 1.495 . S
C3918 C3917 1.392 . S
C3918 C3919 1.385 . S
C3918 C3920 1.478 . S
C3919 H3913 0.930 . S
C3919 C3915 1.400 . S
C3919 C3918 1.385 . S
C3920 C3918 1.478 . S
C3920 C3922 1.381 . S
C3920 C3926 1.383 . S
C3921 C3917 1.495 . S
C3921 H3927 0.959 . S
C3921 H3928 0.961 . S
C3921 H3929 0.960 . S
C3922 C3920 1.381 . S
C3922 C3923 1.394 . S
C3922 H3930 0.930 . S
C3923 C3922 1.394 . S
C3923 C3924 1.383 . S
C3923 H3931 0.929 . S
C3924 C3923 1.383 . S
C3924 C3925 1.377 . S
C3925 H3909 0.930 . S
C3925 C3924 1.377 . S
C3925 C3926 1.379 . S
C3926 H3910 0.931 . S
C3926 C3920 1.383 . S
C3926 C3925 1.379 . S
H3927 C3921 0.959 . S
H3928 C3921 0.961 . S
H3929 C3921 0.960 . S
H3930 C3922 0.930 . S
H3931 C3923 0.929 . S
H3932 C3940 0.929 . S
H3933 C3942 0.930 . S
H3934 C3944 0.930 1_556 S
H3935 C3947 0.929 1_556 S
H3936 C3950 0.930 . S
H3937 C3952 0.960 . S
H3938 C3952 0.960 . S
H3939 C3952 0.960 . S
C3940 H3932 0.929 . S
C3940 C3941 1.377 . S
C3940 C3942 1.384 . S
C3941 C3940 1.377 . S
C3941 C3947 1.390 . S
C3942 H3933 0.930 . S
C3942 C3940 1.384 . S
C3942 C3943 1.372 . S
C3943 C3942 1.372 . S
C3943 C3944 1.400 . S
C3943 C3948 1.490 . S
C3944 H3934 0.930 1_554 S
C3944 C3943 1.400 . S
C3944 C3947 1.386 . S
H3945 C3961 0.930 1_556 S
H3946 C3962 0.931 1_556 S
C3947 H3935 0.929 1_554 S
C3947 C3941 1.390 . S
C3947 C3944 1.386 . S
C3948 C3943 1.490 . S
C3948 C3950 1.395 . S
C3948 C3951 1.403 . S
H3949 C3955 0.930 1_556 S
C3950 H3936 0.930 . S
C3950 C3948 1.395 . S
C3950 C3953 1.403 . S
C3951 C3948 1.403 . S
C3951 C3952 1.524 1_554 S
C3951 C3955 1.400 . S
C3952 H3937 0.960 . S
C3952 H3938 0.960 . S
C3952 H3939 0.960 . S
C3952 C3951 1.524 1_556 S
C3953 C3950 1.403 . S
C3953 C3954 1.392 . S
C3953 C3957 1.495 . S
C3954 C3953 1.392 . S
C3954 C3955 1.385 . S
C3954 C3956 1.478 . S
C3955 H3949 0.930 1_554 S
C3955 C3951 1.400 . S
C3955 C3954 1.385 . S
C3956 C3954 1.478 . S
C3956 C3958 1.381 . S
C3956 C3962 1.383 . S
C3957 C3953 1.495 . S
C3957 H3963 0.959 . S
C3957 H3964 0.961 . S
C3957 H3965 0.960 . S
C3958 C3956 1.381 . S
C3958 C3959 1.394 . S
C3958 H3966 0.930 . S
C3959 C3958 1.394 . S
C3959 C3960 1.383 . S
C3959 H3967 0.929 . S
C3960 C3959 1.383 . S
C3960 C3961 1.377 . S
C3961 H3945 0.930 1_554 S
C3961 C3960 1.377 . S
C3961 C3962 1.379 . S
C3962 H3946 0.931 1_554 S
C3962 C3956 1.383 . S
C3962 C3961 1.379 . S
H3963 C3957 0.959 . S
H3964 C3957 0.961 . S
H3965 C3957 0.960 . S
H3966 C3958 0.930 . S
H3967 C3959 0.929 . S
H3968 C3976 0.929 . S
H3969 C3978 0.930 . S
H3970 C3980 0.930 . S
H3971 C3983 0.929 . S
H3972 C3986 0.930 . S
H3973 C3988 0.960 . S
H3974 C3988 0.960 . S
H3975 C3988 0.960 . S
C3976 H3968 0.929 . S
C3976 C3977 1.377 . S
C3976 C3978 1.384 . S
C3977 C3976 1.377 . S
C3977 C3983 1.390 . S
C3978 H3969 0.930 . S
C3978 C3976 1.384 . S
C3978 C3979 1.372 . S
C3979 C3978 1.372 . S
C3979 C3980 1.400 . S
C3979 C3984 1.490 . S
C3980 H3970 0.930 . S
C3980 C3979 1.400 . S
C3980 C3983 1.386 . S
H3981 C3997 0.930 . S
H3982 C3998 0.931 . S
C3983 H3971 0.929 . S
C3983 C3977 1.390 . S
C3983 C3980 1.386 . S
C3984 C3979 1.490 . S
C3984 C3986 1.395 . S
C3984 C3987 1.403 . S
H3985 C3991 0.930 . S
C3986 H3972 0.930 . S
C3986 C3984 1.395 . S
C3986 C3989 1.403 . S
C3987 C3984 1.403 . S
C3987 C3988 1.524 . S
C3987 C3991 1.400 . S
C3988 H3973 0.960 . S
C3988 H3974 0.960 . S
C3988 H3975 0.960 . S
C3988 C3987 1.524 . S
C3989 C3986 1.403 . S
C3989 C3990 1.392 . S
C3989 C3993 1.495 . S
C3990 C3989 1.392 . S
C3990 C3991 1.385 . S
C3990 C3992 1.478 . S
C3991 H3985 0.930 . S
C3991 C3987 1.400 . S
C3991 C3990 1.385 . S
C3992 C3990 1.478 . S
C3992 C3994 1.381 . S
C3992 C3998 1.383 . S
C3993 C3989 1.495 . S
C3993 H3999 0.959 . S
C3993 H4000 0.961 . S
C3993 H4001 0.960 . S
C3994 C3992 1.381 . S
C3994 C3995 1.394 . S
C3994 H4002 0.930 . S
C3995 C3994 1.394 . S
C3995 C3996 1.383 . S
C3995 H4003 0.929 . S
C3996 C3995 1.383 . S
C3996 C3997 1.377 . S
C3997 H3981 0.930 . S
C3997 C3996 1.377 . S
C3997 C3998 1.379 . S
C3998 H3982 0.931 . S
C3998 C3992 1.383 . S
C3998 C3997 1.379 . S
H3999 C3993 0.959 . S
H4000 C3993 0.961 . S
H4001 C3993 0.960 . S
H4002 C3994 0.930 . S
H4003 C3995 0.929 . S
H4004 C4012 0.929 . S
H4005 C4014 0.930 . S
H4006 C4016 0.930 . S
H4007 C4019 0.929 . S
H4008 C4022 0.930 . S
H4009 C4024 0.960 1_556 S
H4010 C4024 0.960 1_556 S
H4011 C4024 0.960 . S
C4012 H4004 0.929 . S
C4012 C4013 1.377 . S
C4012 C4014 1.384 . S
C4013 C4012 1.377 . S
C4013 C4019 1.390 . S
C4014 H4005 0.930 . S
C4014 C4012 1.384 . S
C4014 C4015 1.372 . S
C4015 C4014 1.372 . S
C4015 C4016 1.400 . S
C4015 C4020 1.490 . S
C4016 H4006 0.930 . S
C4016 C4015 1.400 . S
C4016 C4019 1.386 . S
H4017 C4033 0.930 . S
H4018 C4034 0.931 . S
C4019 H4007 0.929 . S
C4019 C4013 1.390 . S
C4019 C4016 1.386 . S
C4020 C4015 1.490 . S
C4020 C4022 1.395 . S
C4020 C4023 1.403 . S
H4021 C4027 0.930 . S
C4022 H4008 0.930 . S
C4022 C4020 1.395 . S
C4022 C4025 1.403 . S
C4023 C4020 1.403 . S
C4023 C4024 1.524 . S
C4023 C4027 1.400 . S
C4024 H4009 0.960 1_554 S
C4024 H4010 0.960 1_554 S
C4024 H4011 0.960 . S
C4024 C4023 1.524 . S
C4025 C4022 1.403 . S
C4025 C4026 1.392 . S
C4025 C4029 1.495 . S
C4026 C4025 1.392 . S
C4026 C4027 1.385 . S
C4026 C4028 1.478 . S
C4027 H4021 0.930 . S
C4027 C4023 1.400 . S
C4027 C4026 1.385 . S
C4028 C4026 1.478 . S
C4028 C4030 1.381 . S
C4028 C4034 1.383 . S
C4029 C4025 1.495 . S
C4029 H4035 0.959 . S
C4029 H4036 0.961 . S
C4029 H4037 0.960 . S
C4030 C4028 1.381 . S
C4030 C4031 1.394 . S
C4030 H4038 0.930 . S
C4031 C4030 1.394 . S
C4031 C4032 1.383 . S
C4031 H4039 0.929 1_554 S
C4032 C4031 1.383 . S
C4032 C4033 1.377 . S
C4033 H4017 0.930 . S
C4033 C4032 1.377 . S
C4033 C4034 1.379 . S
C4034 H4018 0.931 . S
C4034 C4028 1.383 . S
C4034 C4033 1.379 . S
H4035 C4029 0.959 . S
H4036 C4029 0.961 . S
H4037 C4029 0.960 . S
H4038 C4030 0.930 . S
H4039 C4031 0.929 1_556 S
H4040 C4048 0.929 . S
H4041 C4050 0.930 . S
H4042 C4052 0.930 . S
H4043 C4055 0.929 . S
H4044 C4058 0.930 . S
H4045 C4060 0.960 . S
H4046 C4060 0.960 . S
H4047 C4060 0.960 . S
C4048 H4040 0.929 . S
C4048 C4049 1.377 . S
C4048 C4050 1.384 . S
C4049 C4048 1.377 . S
C4049 C4055 1.390 . S
C4050 H4041 0.930 . S
C4050 C4048 1.384 . S
C4050 C4051 1.372 . S
C4051 C4050 1.372 . S
C4051 C4052 1.400 . S
C4051 C4056 1.490 . S
C4052 H4042 0.930 . S
C4052 C4051 1.400 . S
C4052 C4055 1.386 . S
H4053 C4069 0.930 . S
H4054 C4070 0.931 . S
C4055 H4043 0.929 . S
C4055 C4049 1.390 . S
C4055 C4052 1.386 . S
C4056 C4051 1.490 . S
C4056 C4058 1.395 . S
C4056 C4059 1.403 . S
H4057 C4063 0.930 . S
C4058 H4044 0.930 . S
C4058 C4056 1.395 . S
C4058 C4061 1.403 . S
C4059 C4056 1.403 . S
C4059 C4060 1.524 . S
C4059 C4063 1.400 . S
C4060 H4045 0.960 . S
C4060 H4046 0.960 . S
C4060 H4047 0.960 . S
C4060 C4059 1.524 . S
C4061 C4058 1.403 . S
C4061 C4062 1.392 . S
C4061 C4065 1.495 . S
C4062 C4061 1.392 . S
C4062 C4063 1.385 . S
C4062 C4064 1.478 . S
C4063 H4057 0.930 . S
C4063 C4059 1.400 . S
C4063 C4062 1.385 . S
C4064 C4062 1.478 . S
C4064 C4066 1.381 . S
C4064 C4070 1.383 . S
C4065 C4061 1.495 . S
C4065 H4071 0.959 . S
C4065 H4072 0.961 . S
C4065 H4073 0.960 . S
C4066 C4064 1.381 . S
C4066 C4067 1.394 . S
C4066 H4074 0.930 . S
C4067 C4066 1.394 . S
C4067 C4068 1.383 . S
C4067 H4075 0.929 . S
C4068 C4067 1.383 . S
C4068 C4069 1.377 . S
C4069 H4053 0.930 . S
C4069 C4068 1.377 . S
C4069 C4070 1.379 . S
C4070 H4054 0.931 . S
C4070 C4064 1.383 . S
C4070 C4069 1.379 . S
H4071 C4065 0.959 . S
H4072 C4065 0.961 . S
H4073 C4065 0.960 . S
H4074 C4066 0.930 . S
H4075 C4067 0.929 . S
H4076 C4084 0.929 . S
H4077 C4086 0.930 . S
H4078 C4088 0.930 . S
H4079 C4091 0.929 . S
H4080 C4094 0.930 . S
H4081 C4096 0.960 . S
H4082 C4096 0.960 . S
H4083 C4096 0.960 . S
C4084 H4076 0.929 . S
C4084 C4085 1.377 . S
C4084 C4086 1.384 . S
C4085 C4084 1.377 . S
C4085 C4091 1.390 . S
C4086 H4077 0.930 . S
C4086 C4084 1.384 . S
C4086 C4087 1.372 . S
C4087 C4086 1.372 . S
C4087 C4088 1.400 . S
C4087 C4092 1.490 . S
C4088 H4078 0.930 . S
C4088 C4087 1.400 . S
C4088 C4091 1.386 . S
H4089 C4105 0.930 . S
H4090 C4106 0.931 . S
C4091 H4079 0.929 . S
C4091 C4085 1.390 . S
C4091 C4088 1.386 . S
C4092 C4087 1.490 . S
C4092 C4094 1.395 . S
C4092 C4095 1.403 . S
H4093 C4099 0.930 . S
C4094 H4080 0.930 . S
C4094 C4092 1.395 . S
C4094 C4097 1.403 . S
C4095 C4092 1.403 . S
C4095 C4096 1.524 . S
C4095 C4099 1.400 . S
C4096 H4081 0.960 . S
C4096 H4082 0.960 . S
C4096 H4083 0.960 . S
C4096 C4095 1.524 . S
C4097 C4094 1.403 . S
C4097 C4098 1.392 . S
C4097 C4101 1.495 . S
C4098 C4097 1.392 . S
C4098 C4099 1.385 . S
C4098 C4100 1.478 . S
C4099 H4093 0.930 . S
C4099 C4095 1.400 . S
C4099 C4098 1.385 . S
C4100 C4098 1.478 . S
C4100 C4102 1.381 . S
C4100 C4106 1.383 . S
C4101 C4097 1.495 . S
C4101 H4107 0.959 . S
C4101 H4108 0.961 . S
C4101 H4109 0.960 . S
C4102 C4100 1.381 . S
C4102 C4103 1.394 . S
C4102 H4110 0.930 . S
C4103 C4102 1.394 . S
C4103 C4104 1.383 . S
C4103 H4111 0.929 . S
C4104 C4103 1.383 . S
C4104 C4105 1.377 . S
C4105 H4089 0.930 . S
C4105 C4104 1.377 . S
C4105 C4106 1.379 . S
C4106 H4090 0.931 . S
C4106 C4100 1.383 . S
C4106 C4105 1.379 . S
H4107 C4101 0.959 . S
H4108 C4101 0.961 . S
H4109 C4101 0.960 . S
H4110 C4102 0.930 . S
H4111 C4103 0.929 . S
C665 C109 1.285 1_655 S
C684 C340 1.096 . S
C701 C65 1.443 . S
C720 C375 1.424 . S
C737 C75 0.986 . S
C756 C380 0.955 . S
C792 C405 1.365 . S
C773 C84 1.476 . S
C809 C25 1.449 . S
C828 C425 1.397 . S
C864 C440 0.834 . S
C845 C28 0.938 . S
C900 C475 1.467 . S
C881 C47 1.486 . S
C917 C9 1.320 . S
C936 C480 1.225 . S
C972 C355 1.496 1_655 S
C953 C233 1.564 . S
C989 C249 0.873 . S
C1008 C365 0.788 . S
C1044 C395 1.422 . S
C1025 C275 1.478 . S
C1080 C400 1.072 . S
C1061 C173 1.085 1_556 S
C1097 C224 1.152 . S
C1116 C420 1.014 . S
C1152 C455 1.389 . S
C1133 C243 1.454 . S
C1188 C465 0.930 . S
C1169 C266 0.902 . S
C1224 C495 1.345 . S
C1205 C179 1.405 . S
C1260 C345 1.262 . S
C1241 C163 1.399 . S
C1277 C289 1.742 . S
C1296 C515 1.692 . S
C1332 C525 1.378 . S
C1313 C333 1.434 . S
C1368 C540 0.900 . S
C1349 C308 0.921 . S
C1385 C123 1.363 . S
C1404 C485 1.283 . S
C1421 C126 1.522 . S
C1440 C385 1.463 . S
C1457 C327 1.768 . S
C1476 C575 1.719 . S
C1512 C580 0.933 . S
C1493 C299 1.042 . S
C1548 C338 1.130 . S
C1529 C67 1.300 . S
C1584 C594 1.436 . S
C1565 C98 1.460 . S
C1601 C89 1.014 . S
C1620 C378 0.988 . S
C1637 C79 1.530 . S
C1656 C568 1.478 . S
C1692 C428 1.373 . S
C1673 C11 1.482 . S
C1709 C51 0.975 . S
C1728 C518 0.970 . S
C1764 C474 1.512 . S
C1745 C33 1.532 . S
C1800 C598 1.129 . S
C1781 C14 1.319 . S
C1836 C354 1.454 . S
C1817 C140 1.545 . S
C1872 C588 0.861 . S
C1853 C319 0.897 . S
C1889 C112 1.488 . S
C1908 C394 1.438 . S
C1925 C285 1.145 . S
C1944 C558 1.065 . S
C1961 C149 1.200 . S
C1980 C418 1.146 . S
C2016 C534 1.465 . S
C1997 C313 1.501 . S
C2033 C121 0.978 . S
C2052 C468 0.901 . S
C2069 C291 1.441 . S
C2088 C614 1.421 . S
C2105 C182 1.392 . S
C2124 C348 1.330 . S
C2141 C168 1.743 . S
C2160 C514 1.724 . S
C2177 C263 1.481 . S
C2196 C448 1.378 . S
C2213 C247 0.975 . S
C2232 C538 0.972 . S
C2268 C608 1.275 . S
C2249 C277 1.377 . S
C2285 C219 1.577 . S
C2304 C388 1.437 . S
C2340 C414 1.768 . S
C2321 C257 1.817 . S
C2376 C358 1.032 . S
C2357 C201 1.051 . S
C2393 C81 1.286 . S
C2412 C620 1.166 . S
C2448 C595 1.424 . S
C2429 C93 1.443 . S
C2465 C103 0.986 . S
C2484 C640 0.966 . S
C2501 C56 1.477 . S
C2520 C565 1.380 . S
C2537 C53 1.446 . S
C2556 C505 1.333 . S
C2592 C520 0.829 . S
C2573 C0 0.938 . S
C2628 C555 1.466 . S
C2609 C19 1.487 . S
C2664 C600 1.170 . S
C2645 C37 1.318 . S
C2700 C635 1.502 . S
C2681 C261 1.564 . S
C2717 C193 0.871 . S
C2736 C585 0.785 . S
C2772 C655 1.418 . S
C2753 C205 1.479 . S
C2808 C560 0.988 . S
C2789 C215 1.121 . S
C2844 C500 1.118 . S
C2825 C252 1.156 . S
C2861 C187 1.457 . S
C2880 C535 1.415 . S
C2916 C545 0.930 . S
C2897 C196 0.902 . S
C2933 C221 1.405 . S
C2952 C615 1.328 . S
C2988 C625 1.243 . S
C2969 C317 1.398 . S
C3005 C135 1.733 . S
C3024 C435 1.705 . S
C3060 C445 1.374 . S
C3041 C151 1.434 . S
C3096 C460 0.906 . S
C3077 C154 0.922 . S
C3132 C605 1.219 . S
C3113 C305 1.360 . S
C3149 C280 1.521 . S
C3168 C645 1.447 . S
C3204 C415 1.711 . S
C3185 C145 1.770 . S
C3240 C360 0.989 . S
C3221 C117 1.040 . S
C3257 C95 1.303 . S
C3276 C618 1.205 . S
C3312 C374 1.444 . S
C3293 C70 1.459 . S
C3329 C61 1.013 . S
C3348 C638 0.956 . S
C3365 C107 1.530 . S
C3384 C408 1.478 . S
C3401 C39 1.479 . S
C3420 C508 1.422 . S
C3456 C438 0.969 . S
C3437 C23 0.976 . S
C3473 C5 1.533 . S
C3492 C554 1.497 . S
C3509 C42 1.316 . S
C3528 C478 1.196 . S
C3564 C634 1.467 . S
C3545 C322 1.544 . S
C3581 C165 0.898 . S
C3600 C368 0.880 . S
C3636 C654 1.433 1_655 S
C3617 C294 1.488 . S
C3653 C131 1.145 . S
C3672 C398 1.002 . S
C3689 C331 1.200 . S
C3708 C498 1.151 . S
C3744 C454 1.457 . S
C3725 C159 1.502 . S
C3761 C303 0.978 . S
C3780 C548 0.929 . S
C3816 C494 1.366 . S
C3797 C137 1.443 . S
C3852 C628 1.266 . S
C3833 C238 1.391 . S
C3888 C434 1.722 . S
C3869 C210 1.746 . S
C3905 C235 1.486 . S
C3924 C528 1.409 . S
C3960 C458 0.936 . S
C3941 C191 0.976 . S
C3977 C207 1.366 . S
C3996 C488 1.233 . S
C4013 C177 1.577 . S
C4032 C648 1.438 . S
C4068 C574 1.781 . S
C4049 C229 1.817 . S
C4104 C578 0.942 . S
C4085 C271 1.043 . S
