# Generated by pormake.
# Topology gar, (4,6)-cn, num edge types: 1
# Building blocks:
#     Node 0, Type 0, BuildingBlock: QUQFOY_clean_sbu_1, # of connection points: 4
#     Node 1, Type 0, BuildingBlock: QUQFOY_clean_sbu_1, # of connection points: 4
#     Node 2, Type 0, BuildingBlock: QUQFOY_clean_sbu_1, # of connection points: 4
#     Node 3, Type 0, BuildingBlock: QUQFOY_clean_sbu_1, # of connection points: 4
#     Node 4, Type 0, BuildingBlock: QUQFOY_clean_sbu_1, # of connection points: 4
#     Node 5, Type 0, BuildingBlock: QUQFOY_clean_sbu_1, # of connection points: 4
#     Node 6, Type 0, BuildingBlock: QUQFOY_clean_sbu_1, # of connection points: 4
#     Node 7, Type 0, BuildingBlock: QUQFOY_clean_sbu_1, # of connection points: 4
#     Node 8, Type 0, BuildingBlock: QUQFOY_clean_sbu_1, # of connection points: 4
#     Node 9, Type 0, BuildingBlock: QUQFOY_clean_sbu_1, # of connection points: 4
#     Node 10, Type 0, BuildingBlock: QUQFOY_clean_sbu_1, # of connection points: 4
#     Node 11, Type 0, BuildingBlock: QUQFOY_clean_sbu_1, # of connection points: 4
#     Node 12, Type 0, BuildingBlock: QUQFOY_clean_sbu_1, # of connection points: 4
#     Node 13, Type 0, BuildingBlock: QUQFOY_clean_sbu_1, # of connection points: 4
#     Node 14, Type 0, BuildingBlock: QUQFOY_clean_sbu_1, # of connection points: 4
#     Node 15, Type 0, BuildingBlock: QUQFOY_clean_sbu_1, # of connection points: 4
#     Node 16, Type 0, BuildingBlock: QUQFOY_clean_sbu_1, # of connection points: 4
#     Node 17, Type 0, BuildingBlock: QUQFOY_clean_sbu_1, # of connection points: 4
#     Node 18, Type 0, BuildingBlock: QUQFOY_clean_sbu_1, # of connection points: 4
#     Node 19, Type 0, BuildingBlock: QUQFOY_clean_sbu_1, # of connection points: 4
#     Node 20, Type 0, BuildingBlock: QUQFOY_clean_sbu_1, # of connection points: 4
#     Node 21, Type 0, BuildingBlock: QUQFOY_clean_sbu_1, # of connection points: 4
#     Node 22, Type 0, BuildingBlock: QUQFOY_clean_sbu_1, # of connection points: 4
#     Node 23, Type 0, BuildingBlock: QUQFOY_clean_sbu_1, # of connection points: 4
#     Node 24, Type 1, BuildingBlock: BETFEN_clean_sbu_0, # of connection points: 6
#     Node 25, Type 1, BuildingBlock: BETFEN_clean_sbu_0, # of connection points: 6
#     Node 26, Type 1, BuildingBlock: BETFEN_clean_sbu_0, # of connection points: 6
#     Node 27, Type 1, BuildingBlock: BETFEN_clean_sbu_0, # of connection points: 6
#     Node 28, Type 1, BuildingBlock: BETFEN_clean_sbu_0, # of connection points: 6
#     Node 29, Type 1, BuildingBlock: BETFEN_clean_sbu_0, # of connection points: 6
#     Node 30, Type 1, BuildingBlock: BETFEN_clean_sbu_0, # of connection points: 6
#     Node 31, Type 1, BuildingBlock: BETFEN_clean_sbu_0, # of connection points: 6
#     Node 32, Type 1, BuildingBlock: BETFEN_clean_sbu_0, # of connection points: 6
#     Node 33, Type 1, BuildingBlock: BETFEN_clean_sbu_0, # of connection points: 6
#     Node 34, Type 1, BuildingBlock: BETFEN_clean_sbu_0, # of connection points: 6
#     Node 35, Type 1, BuildingBlock: BETFEN_clean_sbu_0, # of connection points: 6
#     Node 36, Type 1, BuildingBlock: BETFEN_clean_sbu_0, # of connection points: 6
#     Node 37, Type 1, BuildingBlock: BETFEN_clean_sbu_0, # of connection points: 6
#     Node 38, Type 1, BuildingBlock: BETFEN_clean_sbu_0, # of connection points: 6
#     Node 39, Type 1, BuildingBlock: BETFEN_clean_sbu_0, # of connection points: 6
#     Edge 40, Type (0, 1), BuildingBlock: XIVTED_clean_linker_0, # of connection points: 2
#     Edge 41, Type (0, 1), BuildingBlock: XIVTED_clean_linker_0, # of connection points: 2
#     Edge 42, Type (0, 1), BuildingBlock: XIVTED_clean_linker_0, # of connection points: 2
#     Edge 43, Type (0, 1), BuildingBlock: XIVTED_clean_linker_0, # of connection points: 2
#     Edge 44, Type (0, 1), BuildingBlock: XIVTED_clean_linker_0, # of connection points: 2
#     Edge 45, Type (0, 1), BuildingBlock: XIVTED_clean_linker_0, # of connection points: 2
#     Edge 46, Type (0, 1), BuildingBlock: XIVTED_clean_linker_0, # of connection points: 2
#     Edge 47, Type (0, 1), BuildingBlock: XIVTED_clean_linker_0, # of connection points: 2
#     Edge 48, Type (0, 1), BuildingBlock: XIVTED_clean_linker_0, # of connection points: 2
#     Edge 49, Type (0, 1), BuildingBlock: XIVTED_clean_linker_0, # of connection points: 2
#     Edge 50, Type (0, 1), BuildingBlock: XIVTED_clean_linker_0, # of connection points: 2
#     Edge 51, Type (0, 1), BuildingBlock: XIVTED_clean_linker_0, # of connection points: 2
#     Edge 52, Type (0, 1), BuildingBlock: XIVTED_clean_linker_0, # of connection points: 2
#     Edge 53, Type (0, 1), BuildingBlock: XIVTED_clean_linker_0, # of connection points: 2
#     Edge 54, Type (0, 1), BuildingBlock: XIVTED_clean_linker_0, # of connection points: 2
#     Edge 55, Type (0, 1), BuildingBlock: XIVTED_clean_linker_0, # of connection points: 2
#     Edge 56, Type (0, 1), BuildingBlock: XIVTED_clean_linker_0, # of connection points: 2
#     Edge 57, Type (0, 1), BuildingBlock: XIVTED_clean_linker_0, # of connection points: 2
#     Edge 58, Type (0, 1), BuildingBlock: XIVTED_clean_linker_0, # of connection points: 2
#     Edge 59, Type (0, 1), BuildingBlock: XIVTED_clean_linker_0, # of connection points: 2
#     Edge 60, Type (0, 1), BuildingBlock: XIVTED_clean_linker_0, # of connection points: 2
#     Edge 61, Type (0, 1), BuildingBlock: XIVTED_clean_linker_0, # of connection points: 2
#     Edge 62, Type (0, 1), BuildingBlock: XIVTED_clean_linker_0, # of connection points: 2
#     Edge 63, Type (0, 1), BuildingBlock: XIVTED_clean_linker_0, # of connection points: 2
#     Edge 64, Type (0, 1), BuildingBlock: XIVTED_clean_linker_0, # of connection points: 2
#     Edge 65, Type (0, 1), BuildingBlock: XIVTED_clean_linker_0, # of connection points: 2
#     Edge 66, Type (0, 1), BuildingBlock: XIVTED_clean_linker_0, # of connection points: 2
#     Edge 67, Type (0, 1), BuildingBlock: XIVTED_clean_linker_0, # of connection points: 2
#     Edge 68, Type (0, 1), BuildingBlock: XIVTED_clean_linker_0, # of connection points: 2
#     Edge 69, Type (0, 1), BuildingBlock: XIVTED_clean_linker_0, # of connection points: 2
#     Edge 70, Type (0, 1), BuildingBlock: XIVTED_clean_linker_0, # of connection points: 2
#     Edge 71, Type (0, 1), BuildingBlock: XIVTED_clean_linker_0, # of connection points: 2
#     Edge 72, Type (0, 1), BuildingBlock: XIVTED_clean_linker_0, # of connection points: 2
#     Edge 73, Type (0, 1), BuildingBlock: XIVTED_clean_linker_0, # of connection points: 2
#     Edge 74, Type (0, 1), BuildingBlock: XIVTED_clean_linker_0, # of connection points: 2
#     Edge 75, Type (0, 1), BuildingBlock: XIVTED_clean_linker_0, # of connection points: 2
#     Edge 76, Type (0, 1), BuildingBlock: XIVTED_clean_linker_0, # of connection points: 2
#     Edge 77, Type (0, 1), BuildingBlock: XIVTED_clean_linker_0, # of connection points: 2
#     Edge 78, Type (0, 1), BuildingBlock: XIVTED_clean_linker_0, # of connection points: 2
#     Edge 79, Type (0, 1), BuildingBlock: XIVTED_clean_linker_0, # of connection points: 2
#     Edge 80, Type (0, 1), BuildingBlock: XIVTED_clean_linker_0, # of connection points: 2
#     Edge 81, Type (0, 1), BuildingBlock: XIVTED_clean_linker_0, # of connection points: 2
#     Edge 82, Type (0, 1), BuildingBlock: XIVTED_clean_linker_0, # of connection points: 2
#     Edge 83, Type (0, 1), BuildingBlock: XIVTED_clean_linker_0, # of connection points: 2
#     Edge 84, Type (0, 1), BuildingBlock: XIVTED_clean_linker_0, # of connection points: 2
#     Edge 85, Type (0, 1), BuildingBlock: XIVTED_clean_linker_0, # of connection points: 2
#     Edge 86, Type (0, 1), BuildingBlock: XIVTED_clean_linker_0, # of connection points: 2
#     Edge 87, Type (0, 1), BuildingBlock: XIVTED_clean_linker_0, # of connection points: 2
#     Edge 88, Type (0, 1), BuildingBlock: XIVTED_clean_linker_0, # of connection points: 2
#     Edge 89, Type (0, 1), BuildingBlock: XIVTED_clean_linker_0, # of connection points: 2
#     Edge 90, Type (0, 1), BuildingBlock: XIVTED_clean_linker_0, # of connection points: 2
#     Edge 91, Type (0, 1), BuildingBlock: XIVTED_clean_linker_0, # of connection points: 2
#     Edge 92, Type (0, 1), BuildingBlock: XIVTED_clean_linker_0, # of connection points: 2
#     Edge 93, Type (0, 1), BuildingBlock: XIVTED_clean_linker_0, # of connection points: 2
#     Edge 94, Type (0, 1), BuildingBlock: XIVTED_clean_linker_0, # of connection points: 2
#     Edge 95, Type (0, 1), BuildingBlock: XIVTED_clean_linker_0, # of connection points: 2
#     Edge 96, Type (0, 1), BuildingBlock: XIVTED_clean_linker_0, # of connection points: 2
#     Edge 97, Type (0, 1), BuildingBlock: XIVTED_clean_linker_0, # of connection points: 2
#     Edge 98, Type (0, 1), BuildingBlock: XIVTED_clean_linker_0, # of connection points: 2
#     Edge 99, Type (0, 1), BuildingBlock: XIVTED_clean_linker_0, # of connection points: 2
#     Edge 100, Type (0, 1), BuildingBlock: XIVTED_clean_linker_0, # of connection points: 2
#     Edge 101, Type (0, 1), BuildingBlock: XIVTED_clean_linker_0, # of connection points: 2
#     Edge 102, Type (0, 1), BuildingBlock: XIVTED_clean_linker_0, # of connection points: 2
#     Edge 103, Type (0, 1), BuildingBlock: XIVTED_clean_linker_0, # of connection points: 2
#     Edge 104, Type (0, 1), BuildingBlock: XIVTED_clean_linker_0, # of connection points: 2
#     Edge 105, Type (0, 1), BuildingBlock: XIVTED_clean_linker_0, # of connection points: 2
#     Edge 106, Type (0, 1), BuildingBlock: XIVTED_clean_linker_0, # of connection points: 2
#     Edge 107, Type (0, 1), BuildingBlock: XIVTED_clean_linker_0, # of connection points: 2
#     Edge 108, Type (0, 1), BuildingBlock: XIVTED_clean_linker_0, # of connection points: 2
#     Edge 109, Type (0, 1), BuildingBlock: XIVTED_clean_linker_0, # of connection points: 2
#     Edge 110, Type (0, 1), BuildingBlock: XIVTED_clean_linker_0, # of connection points: 2
#     Edge 111, Type (0, 1), BuildingBlock: XIVTED_clean_linker_0, # of connection points: 2
#     Edge 112, Type (0, 1), BuildingBlock: XIVTED_clean_linker_0, # of connection points: 2
#     Edge 113, Type (0, 1), BuildingBlock: XIVTED_clean_linker_0, # of connection points: 2
#     Edge 114, Type (0, 1), BuildingBlock: XIVTED_clean_linker_0, # of connection points: 2
#     Edge 115, Type (0, 1), BuildingBlock: XIVTED_clean_linker_0, # of connection points: 2
#     Edge 116, Type (0, 1), BuildingBlock: XIVTED_clean_linker_0, # of connection points: 2
#     Edge 117, Type (0, 1), BuildingBlock: XIVTED_clean_linker_0, # of connection points: 2
#     Edge 118, Type (0, 1), BuildingBlock: XIVTED_clean_linker_0, # of connection points: 2
#     Edge 119, Type (0, 1), BuildingBlock: XIVTED_clean_linker_0, # of connection points: 2
#     Edge 120, Type (0, 1), BuildingBlock: XIVTED_clean_linker_0, # of connection points: 2
#     Edge 121, Type (0, 1), BuildingBlock: XIVTED_clean_linker_0, # of connection points: 2
#     Edge 122, Type (0, 1), BuildingBlock: XIVTED_clean_linker_0, # of connection points: 2
#     Edge 123, Type (0, 1), BuildingBlock: XIVTED_clean_linker_0, # of connection points: 2
#     Edge 124, Type (0, 1), BuildingBlock: XIVTED_clean_linker_0, # of connection points: 2
#     Edge 125, Type (0, 1), BuildingBlock: XIVTED_clean_linker_0, # of connection points: 2
#     Edge 126, Type (0, 1), BuildingBlock: XIVTED_clean_linker_0, # of connection points: 2
#     Edge 127, Type (0, 1), BuildingBlock: XIVTED_clean_linker_0, # of connection points: 2
#     Edge 128, Type (0, 1), BuildingBlock: XIVTED_clean_linker_0, # of connection points: 2
#     Edge 129, Type (0, 1), BuildingBlock: XIVTED_clean_linker_0, # of connection points: 2
#     Edge 130, Type (0, 1), BuildingBlock: XIVTED_clean_linker_0, # of connection points: 2
#     Edge 131, Type (0, 1), BuildingBlock: XIVTED_clean_linker_0, # of connection points: 2
#     Edge 132, Type (0, 1), BuildingBlock: XIVTED_clean_linker_0, # of connection points: 2
#     Edge 133, Type (0, 1), BuildingBlock: XIVTED_clean_linker_0, # of connection points: 2
#     Edge 134, Type (0, 1), BuildingBlock: XIVTED_clean_linker_0, # of connection points: 2
#     Edge 135, Type (0, 1), BuildingBlock: XIVTED_clean_linker_0, # of connection points: 2
# Relax obj value: 0.206
# Max RMSD: 0.321
# Mean RMSD: 0.190
data_MOF--net-gar--node1-QUQFOY_clean_sbu_1--node2-BETFEN_clean_sbu_0--edge1-XIVTED_clean_linker_0
_symmetry_space_group_name_H-M    P1
_symmetry_Int_Tables_number       1
_symmetry_cell_setting            triclinic
loop_
_symmetry_equiv_pos_as_xyz
'x, y, z'
_cell_length_a     64.885584
_cell_length_b     57.539999
_cell_length_c     57.732865
_cell_angle_alpha  94.640261
_cell_angle_beta   99.150387
_cell_angle_gamma 104.58624
loop_
_atom_site_label
_atom_site_type_symbol
_atom_site_fract_x
_atom_site_fract_y
_atom_site_fract_z
_atom_type_partial_charge
O0 O 0.03358 0.27943 0.43287 0.0
Cd1 Cd 0.03583 0.3068 0.4113 0.0
Cd2 Cd 0.02496 0.32865 0.45202 0.0
O3 O 0.0323 0.29887 0.46697 0.0
O4 O 0.04703 0.29309 0.38438 0.0
O5 O 0.06584 0.32622 0.40794 0.0
C6 C 0.06473 0.31021 0.39043 0.0
C7 C 0.03866 0.36916 0.47071 0.0
C8 C 0.03353 0.27982 0.45494 0.0
C9 C 0.9925 0.31809 0.40592 0.0
O10 O 0.99566 0.32201 0.42841 0.0
O11 O 1.0074 0.31413 0.3955 0.0
O12 O 0.02395 0.35354 0.47818 0.0
O13 O 0.04644 0.36157 0.45319 0.0
O14 O 0.06854 0.79479 0.64057 0.0
Cd15 Cd 0.07413 0.82666 0.66336 0.0
Cd16 Cd 0.09139 0.84659 0.62716 0.0
O17 O 0.07794 0.81144 0.60934 0.0
O18 O 0.0551 0.81924 0.68756 0.0
O19 O 0.05173 0.8457 0.66256 0.0
C20 C 0.04521 0.83469 0.67979 0.0
C21 C 0.08454 0.88155 0.61201 0.0
C22 C 0.07078 0.79262 0.61904 0.0
C23 C 0.12231 0.8485 0.67288 0.0
O24 O 0.12022 0.85124 0.65102 0.0
O25 O 0.10565 0.84066 0.68197 0.0
O26 O 0.09685 0.87012 0.60323 0.0
O27 O 0.07555 0.87277 0.629 0.0
O28 O 0.57471 0.81976 0.92987 0.0
Cd29 Cd 0.55307 0.81996 0.95264 0.0
Cd30 Cd 0.53224 0.83737 0.91067 0.0
O31 O 0.55713 0.82787 0.89675 0.0
O32 O 0.56372 0.80223 0.97877 0.0
O33 O 0.53254 0.7871 0.9543 0.0
C34 C 0.5468 0.78429 0.97143 0.0
C35 C 0.49776 0.83054 0.88643 0.0
C36 C 0.57334 0.82223 0.90802 0.0
C37 C 0.54729 0.87104 0.95781 0.0
O38 O 0.54038 0.86783 0.93558 0.0
O39 O 0.55188 0.85381 0.96839 0.0
O40 O 0.51428 0.84721 0.8836 0.0
O41 O 0.50087 0.81689 0.90261 0.0
O42 O 0.56721 0.29096 0.14566 0.0
Cd43 Cd 0.57357 0.32177 0.16982 0.0
Cd44 Cd 0.59414 0.34399 0.13578 0.0
O45 O 0.58185 0.30872 0.11738 0.0
O46 O 0.55375 0.31378 0.19321 0.0
O47 O 0.5524 0.34235 0.17017 0.0
C48 C 0.54498 0.33048 0.1865 0.0
C49 C 0.58731 0.37861 0.11965 0.0
C50 C 0.57212 0.28958 0.12519 0.0
C51 C 0.62228 0.34327 0.18281 0.0
O52 O 0.62174 0.34937 0.16201 0.0
O53 O 0.6048 0.3329 0.18943 0.0
O54 O 0.60074 0.36788 0.11229 0.0
O55 O 0.5773 0.36938 0.13579 0.0
O56 O 0.08062 0.80963 0.15107 0.0
Cd57 Cd 0.08767 0.84218 0.17276 0.0
Cd58 Cd 0.10661 0.85912 0.13656 0.0
O59 O 0.09434 0.82353 0.12071 0.0
O60 O 0.06975 0.83414 0.19761 0.0
O61 O 0.06482 0.86048 0.17298 0.0
C62 C 0.05898 0.84891 0.19014 0.0
C63 C 0.09632 0.89143 0.11991 0.0
C64 C 0.08475 0.80593 0.1305 0.0
C65 C 0.13642 0.86292 0.18289 0.0
O66 O 0.13519 0.86537 0.16102 0.0
O67 O 0.11929 0.85549 0.19134 0.0
O68 O 0.10963 0.88134 0.11136 0.0
O69 O 0.08869 0.88308 0.13785 0.0
O70 O 0.5629 0.81799 0.42628 0.0
Cd71 Cd 0.54299 0.81826 0.45078 0.0
Cd72 Cd 0.51737 0.83031 0.40659 0.0
O73 O 0.54348 0.82368 0.3931 0.0
O74 O 0.55833 0.80576 0.47802 0.0
O75 O 0.52582 0.78597 0.45832 0.0
C76 C 0.54219 0.78672 0.47463 0.0
C77 C 0.48351 0.82289 0.38113 0.0
C78 C 0.56065 0.81986 0.40428 0.0
C79 C 0.53185 0.86619 0.45277 0.0
O80 O 0.5231 0.86044 0.43106 0.0
O81 O 0.54014 0.85171 0.46423 0.0
O82 O 0.49985 0.84027 0.37928 0.0
O83 O 0.48654 0.80875 0.39684 0.0
O84 O 0.5865 0.31315 0.65383 0.0
Cd85 Cd 0.59349 0.34461 0.67717 0.0
Cd86 Cd 0.61419 0.36266 0.64232 0.0
O87 O 0.60265 0.3276 0.6251 0.0
O88 O 0.57391 0.33513 0.70026 0.0
O89 O 0.57123 0.36373 0.6776 0.0
C90 C 0.56399 0.35083 0.69335 0.0
C91 C 0.60499 0.39528 0.62513 0.0
C92 C 0.59175 0.30988 0.63374 0.0
C93 C 0.64212 0.36436 0.68982 0.0
O94 O 0.64158 0.36817 0.66834 0.0
O95 O 0.62462 0.35628 0.69739 0.0
O96 O 0.62008 0.38652 0.61898 0.0
O97 O 0.59506 0.38547 0.64109 0.0
O98 O 0.02598 0.27426 0.93318 0.0
Cd99 Cd 0.02432 0.30134 0.9117 0.0
Cd100 Cd 1.01064 0.31906 0.95029 0.0
O101 O 0.01949 0.29101 0.96602 0.0
O102 O 0.03803 0.292 0.88512 0.0
O103 O 0.0529 0.3251 0.91048 0.0
C104 C 0.05409 0.31084 0.89256 0.0
C105 C 0.02556 0.35974 0.96531 0.0
C106 C 0.02455 0.27391 0.95489 0.0
C107 C 0.97903 0.30859 0.90505 0.0
O108 O 0.9813 0.31164 0.92746 0.0
O109 O 0.99472 0.30593 0.89531 0.0
O110 O 1.0117 0.34566 0.97525 0.0
O111 O 0.03177 0.35042 0.94739 0.0
O112 O 0.50229 0.20733 0.26877 0.0
Cd113 Cd 0.4741 0.19208 0.28056 0.0
Cd114 Cd 0.5066 0.17813 0.31519 0.0
O115 O 0.52655 0.19858 0.29568 0.0
O116 O 0.45204 0.20459 0.26148 0.0
O117 O 0.45965 0.21085 0.30062 0.0
C118 C 0.44809 0.21331 0.28104 0.0
C119 C 0.52189 0.17281 0.35328 0.0
C120 C 0.52185 0.20828 0.27723 0.0
C121 C 0.46827 0.13955 0.28398 0.0
O122 O 0.48548 0.14573 0.29951 0.0
O123 O 0.46077 0.15532 0.27407 0.0
O124 O 0.52715 0.16387 0.33469 0.0
O125 O 0.50889 0.18647 0.35056 0.0
O126 O 0.29641 0.23383 0.56918 0.0
Cd127 Cd 0.28994 0.20987 0.53855 0.0
Cd128 Cd 0.27292 0.24561 0.52055 0.0
O129 O 0.28392 0.26317 0.555 0.0
O130 O 0.3059 0.18568 0.54842 0.0
O131 O 0.31404 0.20829 0.52038 0.0
C132 C 0.31813 0.19208 0.53326 0.0
C133 C 0.28324 0.26357 0.4873 0.0
C134 C 0.29261 0.25437 0.57235 0.0
C135 C 0.24149 0.19691 0.52005 0.0
O136 O 0.24394 0.2188 0.51604 0.0
O137 O 0.25789 0.18946 0.52775 0.0
O138 O 0.2695 0.27025 0.49839 0.0
O139 O 0.2915 0.24691 0.49533 0.0
O140 O 0.21096 0.08365 0.82948 0.0
Cd141 Cd 0.23124 0.10032 0.86104 0.0
Cd142 Cd 0.19717 0.11295 0.87098 0.0
O143 O 0.18224 0.09273 0.83933 0.0
O144 O 0.23543 0.08106 0.88826 0.0
O145 O 0.25737 0.08855 0.86237 0.0
C146 C 0.25276 0.07897 0.88093 0.0
C147 C 0.17804 0.1049 0.90127 0.0
C148 C 0.1909 0.08252 0.82474 0.0
C149 C 0.23478 0.15336 0.86702 0.0
O150 O 0.21524 0.14777 0.86989 0.0
O151 O 0.24444 0.13704 0.86414 0.0
O152 O 0.17285 0.11798 0.88543 0.0
O153 O 0.19473 0.09672 0.90041 0.0
O154 O 0.31966 0.94422 0.08762 0.0
Cd155 Cd 0.32116 0.96625 0.06117 0.0
Cd156 Cd 0.32762 0.92462 0.03735 0.0
O157 O 0.31954 0.90962 0.06792 0.0
O158 O 0.31133 0.99414 0.0739 0.0
O159 O 0.2934 0.96956 0.04169 0.0
C160 C 0.29484 0.98797 0.05683 0.0
C161 C 0.31425 0.90495 0.99828 0.0
C162 C 0.31854 0.92179 0.08702 0.0
C163 C 0.36447 0.9709 0.04728 0.0
O164 O 0.3582 0.94819 0.04075 0.0
O165 O 0.35168 0.98199 0.05475 0.0
O166 O 0.32747 0.89748 0.01308 0.0
O167 O 0.30737 0.92276 1.00605 0.0
O168 O 0.32982 0.43531 0.10497 0.0
Cd169 Cd 0.33135 0.45885 0.07955 0.0
Cd170 Cd 0.3414 0.42037 0.05579 0.0
O171 O 0.33229 0.40247 0.08425 0.0
O172 O 0.31771 0.48385 0.09142 0.0
O173 O 0.30349 0.45923 0.0582 0.0
C174 C 0.30224 0.47642 0.07332 0.0
C175 C 0.32959 0.40357 0.01596 0.0
C176 C 0.32949 0.41302 0.10334 0.0
C177 C 0.37571 0.46859 0.06722 0.0
O178 O 0.37117 0.4459 0.06099 0.0
O179 O 0.36154 0.47793 0.07404 0.0
O180 O 0.34369 0.39639 0.02988 0.0
O181 O 0.32089 0.41915 0.02508 0.0
O182 O 0.81129 0.23134 0.08816 0.0
Cd183 Cd 0.80563 0.208 0.05696 0.0
Cd184 Cd 0.79263 0.24655 0.03878 0.0
O185 O 0.80639 0.26402 0.07298 0.0
O186 O 0.82013 0.18211 0.06551 0.0
O187 O 0.82957 0.20597 0.03878 0.0
C188 C 0.83244 0.1884 0.05037 0.0
C189 C 0.7993 0.2635 1.00384 0.0
C190 C 0.81127 0.25352 0.09091 0.0
C191 C 0.75829 0.19965 0.03744 0.0
O192 O 0.76252 0.22221 0.03576 0.0
O193 O 0.77348 0.18984 0.04366 0.0
O194 O 0.78828 0.27179 0.01763 0.0
O195 O 0.80749 0.24627 0.01041 0.0
O196 O 0.14343 0.48257 0.19906 0.0
Cd197 Cd 0.1622 0.48494 0.23203 0.0
Cd198 Cd 0.12608 0.48698 0.24844 0.0
O199 O 0.11328 0.48056 0.2128 0.0
O200 O 0.18831 0.47414 0.22853 0.0
O201 O 0.16467 0.45723 0.2502 0.0
C202 C 0.1829 0.45892 0.24318 0.0
C203 C 0.10387 0.46988 0.27418 0.0
C204 C 0.12324 0.48095 0.19554 0.0
C205 C 0.16411 0.53112 0.26028 0.0
O206 O 0.14439 0.52185 0.26135 0.0
O207 O 0.17445 0.51905 0.24967 0.0
O208 O 0.09934 0.48578 0.26132 0.0
O209 O 0.12089 0.4628 0.27199 0.0
O210 O 0.82509 0.93188 0.60651 0.0
Cd211 Cd 0.82853 0.95603 0.58161 0.0
Cd212 Cd 0.84106 0.91729 0.55961 0.0
O213 O 0.83217 0.9001 0.58865 0.0
O214 O 0.81511 0.98127 0.59343 0.0
O215 O 0.80144 0.95763 0.55956 0.0
C216 C 0.80008 0.9746 0.57486 0.0
C217 C 0.82926 0.90013 0.51978 0.0
C218 C 0.82662 0.91023 0.60625 0.0
C219 C 0.87392 0.9665 0.57073 0.0
O220 O 0.8701 0.94388 0.56459 0.0
O221 O 0.85925 0.97519 0.57726 0.0
O222 O 0.84371 0.89343 0.5337 0.0
O223 O 0.82023 0.91536 0.52892 0.0
O224 O 0.91337 0.0591 0.15704 0.0
Cd225 Cd 0.88885 0.0504 0.17595 0.0
Cd226 Cd 0.92165 0.0592 0.21669 0.0
O227 O 0.93783 0.06973 0.18995 0.0
O228 O 0.86502 0.06612 0.16751 0.0
O229 O 0.88992 0.0768 0.20041 0.0
C230 C 0.87303 0.07998 0.18736 0.0
C231 C 0.93859 0.08083 0.25342 0.0
C232 C 0.93282 0.06828 0.16762 0.0
C233 C 0.88752 1.01005 0.20479 0.0
O234 O 0.90427 0.02415 0.21803 0.0
O235 O 0.87869 0.01661 0.18608 0.0
O236 O 0.9464 0.06511 0.24331 0.0
O237 O 0.92084 0.08441 0.24271 0.0
O238 O 0.31193 0.7347 0.58093 0.0
Cd239 Cd 0.30674 0.71074 0.5502 0.0
Cd240 Cd 0.29365 0.7494 0.53085 0.0
O241 O 0.30703 0.76708 0.56509 0.0
O242 O 0.32064 0.68463 0.55982 0.0
O243 O 0.3315 0.70818 0.53338 0.0
C244 C 0.33368 0.69063 0.54533 0.0
C245 C 0.29981 0.767 0.496 0.0
C246 C 0.31179 0.75687 0.58327 0.0
C247 C 0.25945 0.70221 0.52975 0.0
O248 O 0.26371 0.7247 0.5277 0.0
O249 O 0.27461 0.69251 0.53647 0.0
O250 O 0.28863 0.77468 0.50998 0.0
O251 O 0.30845 0.75001 0.5023 0.0
O252 O 0.41747 0.56262 0.65706 0.0
Cd253 Cd 0.39248 0.55237 0.67465 0.0
Cd254 Cd 0.42401 0.56027 0.71579 0.0
O255 O 0.441 0.57453 0.69062 0.0
O256 O 0.36818 0.5668 0.66497 0.0
O257 O 0.39122 0.57734 0.69937 0.0
C258 C 0.3747 0.58013 0.68527 0.0
C259 C 0.43973 0.5788 0.75407 0.0
C260 C 0.43644 0.57316 0.66826 0.0
C261 C 0.39175 0.51006 0.69996 0.0
O262 O 0.40797 0.52394 0.71422 0.0
O263 O 0.3828 0.51773 0.68208 0.0
O264 O 0.44836 0.56481 0.74266 0.0
O265 O 0.42188 0.58246 0.74376 0.0
O266 O 0.64432 0.9827 0.69591 0.0
Cd267 Cd 0.66375 0.98394 0.72815 0.0
Cd268 Cd 0.62836 0.98794 0.74611 0.0
O269 O 0.61496 0.98277 0.71062 0.0
O270 O 0.68901 0.97227 0.72276 0.0
O271 O 0.66629 0.95585 0.74558 0.0
C272 C 0.68399 0.95707 0.73754 0.0
C273 C 0.60632 0.97209 0.77253 0.0
C274 C 0.62445 0.98253 0.69301 0.0
C275 C 0.66823 0.03014 0.75785 0.0
O276 O 0.64851 0.02183 0.75947 0.0
O277 O 0.67754 0.0176 0.74626 0.0
O278 O 0.60248 0.98861 0.76011 0.0
O279 O 0.62238 0.96355 0.76932 0.0
O280 O 0.79989 0.73728 0.07175 0.0
Cd281 Cd 0.79392 0.71208 0.04204 0.0
Cd282 Cd 0.77593 0.74661 0.02214 0.0
O283 O 0.78563 0.76499 0.05644 0.0
O284 O 0.81052 0.68875 0.05298 0.0
O285 O 0.8179 0.71002 0.02382 0.0
C286 C 0.82236 0.69444 0.03732 0.0
C287 C 0.78635 0.76419 0.98861 0.0
C288 C 0.79495 0.75727 0.0742 0.0
C289 C 0.74556 0.6973 0.02281 0.0
O290 O 0.74764 0.71872 0.01749 0.0
O291 O 0.76212 0.69075 0.03176 0.0
O292 O 0.77137 0.76964 0.99846 0.0
O293 O 0.79584 0.74908 0.99811 0.0
O294 O 0.99507 0.70304 0.77574 0.0
Cd295 Cd 0.96919 0.68539 0.79009 0.0
Cd296 Cd 1.00569 0.67549 0.82145 0.0
O297 O 0.02255 0.6979 0.80088 0.0
O298 O 0.94444 0.69354 0.77092 0.0
O299 O 0.95338 0.70292 0.80975 0.0
C300 C 0.94045 0.70275 0.79022 0.0
C301 C 0.02319 0.67267 0.85928 0.0
C302 C 0.01534 0.70649 0.78265 0.0
C303 C 0.96908 0.63368 0.7931 0.0
O304 O 0.98738 0.64139 0.80671 0.0
O305 O 0.959 0.64831 0.78489 0.0
O306 O 0.0292 0.66518 0.84055 0.0
O307 O 1.00809 0.68369 0.85677 0.0
O308 O 0.8277 0.44263 0.59735 0.0
Cd309 Cd 0.82777 0.46522 0.57136 0.0
Cd310 Cd 0.83541 0.4236 0.54696 0.0
O311 O 0.82927 0.40848 0.57805 0.0
O312 O 0.81743 0.49199 0.58563 0.0
O313 O 0.79957 0.46848 0.55279 0.0
C314 C 0.80084 0.48618 0.56869 0.0
C315 C 0.82225 0.4032 0.50821 0.0
C316 C 0.82786 0.42054 0.59704 0.0
C317 C 0.87033 0.47216 0.55549 0.0
O318 O 0.86459 0.44946 0.5489 0.0
O319 O 0.85757 0.48248 0.56407 0.0
O320 O 0.8376 0.39811 0.52224 0.0
O321 O 0.81308 0.41862 0.51671 0.0
O322 O 0.71059 0.5819 0.33443 0.0
Cd323 Cd 0.73192 0.59948 0.36499 0.0
Cd324 Cd 0.6997 0.61621 0.37419 0.0
O325 O 0.68347 0.59516 0.34337 0.0
O326 O 0.75651 0.58496 0.36728 0.0
O327 O 0.73474 0.58172 0.39352 0.0
C328 C 0.7513 0.57704 0.38636 0.0
C329 C 0.68108 0.6108 0.40512 0.0
C330 C 0.69096 0.58255 0.32955 0.0
C331 C 0.73892 0.6531 0.36792 0.0
O332 O 0.71963 0.64956 0.37147 0.0
O333 O 0.74719 0.63548 0.36569 0.0
O334 O 0.6765 0.62392 0.38904 0.0
O335 O 0.69703 0.60133 0.40423 0.0
Pr336 Pr 0.03609 0.07218 0.0315 0.0
Pr337 Pr 0.08562 0.10012 0.05585 0.0
C338 C 0.9926 0.06046 0.01876 0.0
C339 C 0.97595 0.07355 0.02123 0.0
C340 C 0.97993 0.0983 0.0187 0.0
C341 C 0.96443 0.11076 0.02194 0.0
C342 C 0.94455 0.09878 0.0278 0.0
C343 C 0.94065 0.07397 0.03033 0.0
C344 C 0.95619 0.06153 0.02711 0.0
C345 C 0.0678 0.07225 1.00429 0.0
C346 C 0.05547 0.1327 0.03192 0.0
C347 C 0.1292 0.11229 0.06594 0.0
C348 C 0.14619 0.0996 0.06404 0.0
C349 C 0.16257 0.10131 0.08364 0.0
C350 C 0.17874 0.08939 0.08217 0.0
C351 C 0.17899 0.07557 0.06097 0.0
C352 C 0.16246 0.07382 0.04137 0.0
C353 C 0.14622 0.08561 0.0429 0.0
C354 C 0.05475 0.10419 0.08243 0.0
C355 C 0.0659 0.03939 0.05615 0.0
O356 O 1.00239 0.05491 0.03835 0.0
O357 O 1.00577 0.06802 1.00428 0.0
O358 O 0.06658 0.08923 0.01846 0.0
O359 O 0.05083 0.05376 1.00194 0.0
O360 O 0.07568 0.1314 0.03764 0.0
O361 O 0.03857 0.11413 0.03218 0.0
O362 O 0.11816 0.11569 0.04606 0.0
O363 O 0.11724 0.10633 0.08193 0.0
O364 O 0.05449 0.08552 0.06925 0.0
O365 O 0.07307 0.12089 0.08506 0.0
O366 O 0.04577 0.03983 0.048 0.0
O367 O 0.08278 0.05854 0.05797 0.0
H368 H 0.99512 0.10812 0.01442 0.0
H369 H 0.96822 0.1299 0.02023 0.0
H370 H 0.92547 0.06404 0.03457 0.0
H371 H 0.9528 0.04249 0.02928 0.0
H372 H 0.16282 0.11185 0.10017 0.0
H373 H 0.19092 0.09083 0.09778 0.0
H374 H 0.16221 0.06363 0.02467 0.0
H375 H 0.13373 0.0838 0.02748 0.0
Pr376 Pr 0.3216 0.86902 0.30339 0.0
Pr377 Pr 0.29128 0.81369 0.27605 0.0
C378 C 0.35497 0.907 0.32284 0.0
C379 C 0.3642 0.93129 0.31719 0.0
C380 C 0.35481 0.93937 0.29686 0.0
C381 C 0.36516 0.9614 0.29 0.0
C382 C 0.38509 0.97548 0.30333 0.0
C383 C 0.39401 0.9676 0.32412 0.0
C384 C 0.38364 0.94563 0.33096 0.0
C385 C 0.27844 0.86764 0.28452 0.0
C386 C 0.31303 0.85667 0.24389 0.0
C387 C 0.25643 0.77729 0.25734 0.0
C388 C 0.24768 0.75291 0.26298 0.0
C389 C 0.22741 0.73888 0.25085 0.0
C390 C 0.2189 0.71569 0.25647 0.0
C391 C 0.23061 0.70629 0.27432 0.0
C392 C 0.2509 0.7206 0.28658 0.0
C393 C 0.25935 0.7438 0.28098 0.0
C394 C 0.33429 0.81417 0.2937 0.0
C395 C 0.30161 0.82524 0.33575 0.0
O396 O 0.35666 0.88943 0.30797 0.0
O397 O 0.33606 0.90301 0.32943 0.0
O398 O 0.28762 0.85096 0.28501 0.0
O399 O 0.2922 0.88737 0.29586 0.0
O400 O 0.29907 0.83543 0.24421 0.0
O401 O 0.32446 0.87102 0.26336 0.0
O402 O 0.25593 0.79481 0.27311 0.0
O403 O 0.27467 0.78095 0.24926 0.0
O404 O 0.32571 0.8315 0.29413 0.0
O405 O 0.31987 0.79462 0.28282 0.0
O406 O 0.31477 0.84696 0.33524 0.0
O407 O 0.29013 0.81068 0.31643 0.0
H408 H 0.33986 0.92828 0.28594 0.0
H409 H 0.358 0.96697 0.27386 0.0
H410 H 0.40916 0.97829 0.33494 0.0
H411 H 0.39108 0.93953 0.34665 0.0
H412 H 0.21822 0.7458 0.23698 0.0
H413 H 0.20338 0.70492 0.24649 0.0
H414 H 0.26017 0.71388 0.30053 0.0
H415 H 0.27498 0.75464 0.29066 0.0
Pr416 Pr 0.58661 0.09341 0.54341 0.0
Pr417 Pr 0.53657 0.08497 0.53435 0.0
C418 C 0.62839 0.09184 0.55152 0.0
C419 C 0.64279 0.07541 0.55325 0.0
C420 C 0.65179 0.06957 0.53367 0.0
C421 C 0.66716 0.05626 0.53568 0.0
C422 C 0.67408 0.04858 0.55738 0.0
C423 C 0.6647 0.05392 0.57684 0.0
C424 C 0.64925 0.06719 0.57481 0.0
C425 C 0.56936 0.11315 0.50493 0.0
C426 C 0.55442 0.04013 0.51684 0.0
C427 C 0.49499 0.08596 0.52093 0.0
C428 C 0.47851 0.09911 0.52376 0.0
C429 C 0.45811 0.086 0.52719 0.0
C430 C 0.44164 0.09738 0.52867 0.0
C431 C 0.44513 0.12223 0.52671 0.0
C432 C 0.46568 0.13544 0.52341 0.0
C433 C 0.48224 0.124 0.52198 0.0
C434 C 0.55283 0.06406 0.57252 0.0
C435 C 0.569 0.13761 0.56445 0.0
O436 O 0.61753 0.09401 0.56849 0.0
O437 O 0.61759 0.09265 0.53057 0.0
O438 O 0.56142 0.09226 0.51002 0.0
O439 O 0.58708 0.12445 0.51952 0.0
O440 O 0.5389 0.05087 0.51122 0.0
O441 O 0.57272 0.05156 0.53137 0.0
O442 O 0.51049 0.09533 0.50968 0.0
O443 O 0.50137 0.07497 0.53857 0.0
O444 O 0.56161 0.0848 0.56748 0.0
O445 O 0.53414 0.05438 0.55885 0.0
O446 O 0.58587 0.12851 0.56589 0.0
O447 O 0.54951 0.12538 0.55274 0.0
H448 H 0.64743 0.0759 0.51689 0.0
H449 H 0.67422 0.05281 0.52041 0.0
H450 H 0.66947 0.04805 0.59375 0.0
H451 H 0.64276 0.07146 0.5903 0.0
H452 H 0.45479 0.06675 0.52838 0.0
H453 H 0.42596 0.08652 0.53082 0.0
H454 H 0.46901 0.15464 0.52207 0.0
H455 H 0.49786 0.13456 0.51934 0.0
Pr456 Pr 0.28469 0.33407 0.78749 0.0
Pr457 Pr 0.33544 0.34532 0.79579 0.0
C458 C 0.24178 0.32157 0.7878 0.0
C459 C 0.22502 0.32121 0.80252 0.0
C460 C 0.22195 0.34273 0.81299 0.0
C461 C 0.20421 0.34211 0.82415 0.0
C462 C 0.18914 0.31998 0.82505 0.0
C463 C 0.19281 0.29843 0.81544 0.0
C464 C 0.21049 0.29906 0.80424 0.0
C465 C 0.30587 0.37451 0.76911 0.0
C466 C 0.31445 0.36114 0.84043 0.0
C467 C 0.37815 0.36025 0.79467 0.0
C468 C 0.39462 0.35934 0.77992 0.0
C469 C 0.39498 0.33756 0.7673 0.0
C470 C 0.41216 0.33667 0.75564 0.0
C471 C 0.42925 0.35754 0.75626 0.0
C472 C 0.42833 0.3795 0.7681 0.0
C473 C 0.41122 0.38035 0.77985 0.0
C474 C 0.31451 0.3039 0.81311 0.0
C475 C 0.30572 0.3167 0.74323 0.0
O476 O 0.25374 0.30644 0.79096 0.0
O477 O 0.25233 0.34256 0.78286 0.0
O478 O 0.31209 0.36879 0.78919 0.0
O479 O 0.28749 0.35993 0.75848 0.0
O480 O 0.33204 0.36586 0.83089 0.0
O481 O 0.29542 0.34803 0.82831 0.0
O482 O 0.36471 0.37326 0.78874 0.0
O483 O 0.36914 0.34027 0.80268 0.0
O484 O 0.30804 0.31035 0.79347 0.0
O485 O 0.33311 0.3181 0.82377 0.0
O486 O 0.28782 0.31326 0.75225 0.0
O487 O 0.32488 0.32918 0.75554 0.0
H488 H 0.23285 0.36013 0.81193 0.0
H489 H 0.20184 0.35907 0.83119 0.0
H490 H 0.18179 0.28102 0.81622 0.0
H491 H 0.21246 0.28222 0.7963 0.0
H492 H 0.38227 0.32112 0.76691 0.0
H493 H 0.4122 0.31955 0.74637 0.0
H494 H 0.44129 0.39586 0.76911 0.0
H495 H 0.41128 0.39733 0.78952 0.0
Pr496 Pr 0.04815 0.06996 0.51715 0.0
Pr497 Pr 0.06405 0.0962 0.56524 0.0
C498 C 0.02384 0.05157 0.47442 0.0
C499 C 0.01603 0.06259 0.454 0.0
C500 C 0.02739 0.08573 0.45014 0.0
C501 C 0.0193 0.09659 0.43125 0.0
C502 C 0.9996 0.08457 0.41617 0.0
C503 C 0.98814 0.06155 0.42037 0.0
C504 C 0.99632 0.05065 0.43915 0.0
C505 C 0.09227 0.09385 0.52498 0.0
C506 C 0.04682 0.12826 0.52654 0.0
C507 C 0.08767 0.11468 0.60829 0.0
C508 C 0.09614 0.10409 0.62881 0.0
C509 C 0.09545 0.11379 0.65161 0.0
C510 C 0.10324 0.10371 0.67124 0.0
C511 C 0.11189 0.08379 0.66833 0.0
C512 C 0.11237 0.07395 0.64544 0.0
C513 C 0.10448 0.08396 0.62582 0.0
C514 C 0.01995 0.07229 0.55713 0.0
C515 C 0.06574 0.03799 0.55557 0.0
O516 O 0.01553 0.05525 0.49314 0.0
O517 O 0.04472 0.05393 0.47925 0.0
O518 O 0.07771 0.10257 0.53128 0.0
O519 O 0.08418 0.07201 0.51398 0.0
O520 O 0.0589 0.12989 0.54753 0.0
O521 O 0.03916 0.10717 0.51296 0.0
O522 O 0.09626 0.11236 0.58949 0.0
O523 O 0.06664 0.11102 0.60348 0.0
O524 O 0.03459 0.06357 0.55105 0.0
O525 O 0.02793 0.0942 0.568 0.0
O526 O 0.05365 0.03638 0.5346 0.0
O527 O 0.07318 0.05897 0.56936 0.0
H528 H 0.04246 0.09541 0.46177 0.0
H529 H 0.02838 0.11437 0.42846 0.0
H530 H 0.97309 0.05172 0.40878 0.0
H531 H 0.98725 0.03291 0.4421 0.0
H532 H 0.08899 0.12924 0.65423 0.0
H533 H 0.10296 0.11187 0.68872 0.0
H534 H 0.1188 0.05851 0.64271 0.0
H535 H 0.10499 0.07599 0.60835 0.0
Pr536 Pr 0.29568 0.8078 0.78518 0.0
Pr537 Pr 0.31745 0.86721 0.78904 0.0
C538 C 0.28035 0.76054 0.76903 0.0
C539 C 0.28886 0.74297 0.75668 0.0
C540 C 0.2757 0.71958 0.74838 0.0
C541 C 0.28446 0.70228 0.73828 0.0
C542 C 0.30649 0.7083 0.7365 0.0
C543 C 0.31936 0.73208 0.74406 0.0
C544 C 0.31062 0.74927 0.75416 0.0
C545 C 0.29205 0.83174 0.8285 0.0
C546 C 0.34828 0.83062 0.80639 0.0
C547 C 0.33463 0.91417 0.80607 0.0
C548 C 0.33355 0.93125 0.82581 0.0
C549 C 0.33501 0.95533 0.82232 0.0
C550 C 0.33224 0.97143 0.84017 0.0
C551 C 0.32771 0.96361 0.86173 0.0
C552 C 0.32691 0.93963 0.8655 0.0
C553 C 0.33011 0.92363 0.84773 0.0
C554 C 0.32073 0.84268 0.74578 0.0
C555 C 0.26509 0.84413 0.7665 0.0
O556 O 0.27584 0.77748 0.75688 0.0
O557 O 0.29055 0.76866 0.79076 0.0
O558 O 0.29989 0.84118 0.81177 0.0
O559 O 0.28489 0.8085 0.82247 0.0
O560 O 0.34507 0.85247 0.80862 0.0
O561 O 0.33297 0.81116 0.79561 0.0
O562 O 0.34407 0.89722 0.81152 0.0
O563 O 0.31714 0.9065 0.78965 0.0
O564 O 0.31322 0.83408 0.76296 0.0
O565 O 0.32738 0.8661 0.7509 0.0
O566 O 0.26802 0.82214 0.76513 0.0
O567 O 0.2801 0.86359 0.77787 0.0
H568 H 0.25885 0.71454 0.75028 0.0
H569 H 0.27426 0.68401 0.73274 0.0
H570 H 0.3363 0.73726 0.74258 0.0
H571 H 0.32097 0.76733 0.76052 0.0
H572 H 0.33772 0.96151 0.80554 0.0
H573 H 0.33259 0.98972 0.83664 0.0
H574 H 0.32348 0.93321 0.88198 0.0
H575 H 0.32947 0.90521 0.85089 0.0
Pr576 Pr 0.56975 0.08239 0.06998 0.0
Pr577 Pr 0.55574 0.08076 0.01132 0.0
C578 C 0.5819 0.09672 0.11667 0.0
C579 C 0.58793 0.11917 0.13303 0.0
C580 C 0.58859 0.1178 0.15719 0.0
C581 C 0.59156 0.13869 0.17275 0.0
C582 C 0.59366 0.16129 0.16433 0.0
C583 C 0.59402 0.16277 0.14021 0.0
C584 C 0.5914 0.14182 0.12468 0.0
C585 C 0.57006 0.03796 0.04488 0.0
C586 C 0.51823 0.0601 0.04401 0.0
C587 C 0.54601 0.06466 0.96492 0.0
C588 C 0.54927 0.04535 0.94859 0.0
C589 C 0.5312 0.02801 0.93515 0.0
C590 C 0.53386 0.01065 0.91835 0.0
C591 C 0.55467 0.01042 0.91445 0.0
C592 C 0.57279 0.02718 0.92869 0.0
C593 C 0.57013 0.04442 0.94562 0.0
C594 C 0.55439 0.12488 0.03601 0.0
C595 C 0.60607 0.10465 0.03752 0.0
O596 O 0.59563 0.09413 0.10292 0.0
O597 O 0.56155 0.0895 0.10595 0.0
O598 O 0.56649 0.05653 0.03701 0.0
O599 O 0.57443 0.04233 0.06783 0.0
O600 O 0.52414 0.05944 0.02308 0.0
O601 O 0.53179 0.07057 0.06394 0.0
O602 O 0.53267 0.05778 0.97942 0.0
O603 O 0.56305 0.08247 0.9745 0.0
O604 O 0.5589 0.10684 0.04427 0.0
O605 O 0.54988 0.12023 0.01304 0.0
O606 O 0.599 0.10798 0.05748 0.0
O607 O 0.59368 0.09035 0.01867 0.0
H608 H 0.58596 0.10044 0.16389 0.0
H609 H 0.59086 0.13691 0.19116 0.0
H610 H 0.59568 0.17997 0.13329 0.0
H611 H 0.59134 0.14316 0.10607 0.0
H612 H 0.51495 0.02823 0.93728 0.0
H613 H 0.51956 0.99777 0.908 0.0
H614 H 0.58906 0.02781 0.92604 0.0
H615 H 0.58442 0.05741 0.95586 0.0
Pr616 Pr 0.28871 0.31257 0.28808 0.0
Pr617 Pr 0.33208 0.35131 0.29859 0.0
C618 C 0.24866 0.28553 0.29022 0.0
C619 C 0.22976 0.2897 0.29959 0.0
C620 C 0.20878 0.27947 0.28655 0.0
C621 C 0.1907 0.28301 0.29526 0.0
C622 C 0.19316 0.29679 0.31735 0.0
C623 C 0.21431 0.30733 0.33021 0.0
C624 C 0.23239 0.30392 0.32139 0.0
C625 C 0.30209 0.33118 0.24789 0.0
C626 C 0.29004 0.37045 0.30185 0.0
C627 C 0.3729 0.37703 0.2977 0.0
C628 C 0.39059 0.37309 0.28569 0.0
C629 C 0.41113 0.37508 0.29914 0.0
C630 C 0.42781 0.3705 0.2883 0.0
C631 C 0.42441 0.36398 0.26367 0.0
C632 C 0.40386 0.36221 0.25018 0.0
C633 C 0.38712 0.36657 0.26106 0.0
C634 C 0.318 0.33313 0.33865 0.0
C635 C 0.32994 0.29455 0.28015 0.0
O636 O 0.26594 0.28628 0.30574 0.0
O637 O 0.2532 0.29596 0.27167 0.0
O638 O 0.30354 0.34325 0.26759 0.0
O639 O 0.29257 0.30836 0.24798 0.0
O640 O 0.30984 0.37721 0.29737 0.0
O641 O 0.28089 0.34766 0.30403 0.0
O642 O 0.35577 0.38036 0.28453 0.0
O643 O 0.36808 0.36334 0.31413 0.0
O644 O 0.31721 0.32069 0.31933 0.0
O645 O 0.32687 0.35599 0.33805 0.0
O646 O 0.31134 0.28709 0.28726 0.0
O647 O 0.3382 0.31754 0.27822 0.0
H648 H 0.20637 0.26866 0.26958 0.0
H649 H 0.17478 0.27501 0.28457 0.0
H650 H 0.21694 0.31783 0.34736 0.0
H651 H 0.24842 0.31223 0.33175 0.0
H652 H 0.41424 0.38002 0.31813 0.0
H653 H 0.44347 0.37229 0.2992 0.0
H654 H 0.40059 0.35695 0.23124 0.0
H655 H 0.3714 0.3646 0.25019 0.0
Pr656 Pr 0.55371 0.567 0.01969 0.0
Pr657 Pr 0.56952 0.59182 0.06825 0.0
C658 C 0.52962 0.5491 0.97665 0.0
C659 C 0.52104 0.55947 0.95612 0.0
C660 C 0.53094 0.58317 0.95233 0.0
C661 C 0.52222 0.59305 0.933 0.0
C662 C 0.50334 0.57946 0.91742 0.0
C663 C 0.49331 0.55589 0.92158 0.0
C664 C 0.50212 0.54598 0.94078 0.0
C665 C 0.59809 0.59012 0.02823 0.0
C666 C 0.55364 0.62547 0.03055 0.0
C667 C 0.59222 0.60906 0.11192 0.0
C668 C 0.59868 0.59779 0.13281 0.0
C669 C 0.597 0.60766 0.15518 0.0
C670 C 0.60298 0.59705 0.17517 0.0
C671 C 0.61079 0.57642 0.17308 0.0
C672 C 0.61213 0.56633 0.15059 0.0
C673 C 0.60603 0.57686 0.1306 0.0
C674 C 0.52515 0.5692 0.05919 0.0
C675 C 0.57014 0.53351 0.05768 0.0
O676 O 0.52122 0.55214 0.99542 0.0
O677 O 0.55064 0.55246 0.98138 0.0
O678 O 0.58367 0.59896 0.03468 0.0
O679 O 0.58974 0.56848 0.01682 0.0
O680 O 0.56621 0.62619 0.05102 0.0
O681 O 0.54498 0.60468 0.01663 0.0
O682 O 0.60132 0.60556 0.09374 0.0
O683 O 0.57152 0.60735 0.10611 0.0
O684 O 0.53955 0.56005 0.05314 0.0
O685 O 0.53353 0.59083 0.07054 0.0
O686 O 0.5586 0.53264 0.03651 0.0
O687 O 0.57767 0.55416 0.07193 0.0
H688 H 0.54539 0.59399 0.9643 0.0
H689 H 0.5302 0.61128 0.93026 0.0
H690 H 0.47893 0.54488 0.90965 0.0
H691 H 0.49419 0.52776 0.94363 0.0
H692 H 0.59125 0.62369 0.15719 0.0
H693 H 0.60211 0.60542 0.19235 0.0
H694 H 0.61797 0.55037 0.1485 0.0
H695 H 0.60723 0.56873 0.11346 0.0
Pr696 Pr 0.7964 0.30608 0.29511 0.0
Pr697 Pr 0.82033 0.36491 0.29666 0.0
C698 C 0.78043 0.25872 0.27974 0.0
C699 C 0.78884 0.24088 0.26757 0.0
C700 C 0.77549 0.21761 0.25907 0.0
C701 C 0.78391 0.20043 0.24816 0.0
C702 C 0.80578 0.20643 0.24571 0.0
C703 C 0.81889 0.23003 0.25375 0.0
C704 C 0.8105 0.2471 0.26465 0.0
C705 C 0.79517 0.33287 0.33774 0.0
C706 C 0.84988 0.32741 0.31513 0.0
C707 C 0.83644 0.41176 0.31421 0.0
C708 C 0.83161 0.42684 0.33314 0.0
C709 C 0.84161 0.45169 0.33736 0.0
C710 C 0.83618 0.46615 0.35475 0.0
C711 C 0.8208 0.45589 0.36837 0.0
C712 C 0.81146 0.43071 0.36455 0.0
C713 C 0.81662 0.41639 0.34687 0.0
C714 C 0.8223 0.33879 0.25406 0.0
C715 C 0.76654 0.34317 0.27676 0.0
O716 O 0.77617 0.27557 0.2673 0.0
O717 O 0.79058 0.26704 0.30148 0.0
O718 O 0.80295 0.34041 0.32029 0.0
O719 O 0.78617 0.3097 0.33287 0.0
O720 O 0.84847 0.34992 0.31454 0.0
O721 O 0.83333 0.3081 0.30705 0.0
O722 O 0.84535 0.39486 0.3212 0.0
O723 O 0.82106 0.40426 0.29544 0.0
O724 O 0.8142 0.33063 0.27121 0.0
O725 O 0.83033 0.36216 0.25901 0.0
O726 O 0.76784 0.32068 0.27792 0.0
O727 O 0.78324 0.36249 0.28436 0.0
H728 H 0.75871 0.21264 0.2612 0.0
H729 H 0.77351 0.18231 0.24229 0.0
H730 H 0.83571 0.23525 0.25176 0.0
H731 H 0.82096 0.2651 0.27105 0.0
H732 H 0.85318 0.45999 0.32681 0.0
H733 H 0.84338 0.48551 0.35676 0.0
H734 H 0.79976 0.42212 0.37481 0.0
H735 H 0.80859 0.3972 0.34354 0.0
Pr736 Pr 0.07171 0.58869 0.56622 0.0
Pr737 Pr 0.05652 0.58329 0.50737 0.0
C738 C 0.08325 0.60796 0.6118 0.0
C739 C 0.08149 0.6294 0.62635 0.0
C740 C 0.10017 0.64524 0.64038 0.0
C741 C 0.09867 0.66513 0.65497 0.0
C742 C 0.0784 0.66948 0.65587 0.0
C743 C 0.05982 0.65401 0.64113 0.0
C744 C 0.06134 0.63421 0.62653 0.0
C745 C 0.07259 0.54311 0.54433 0.0
C746 C 0.02033 0.56526 0.54164 0.0
C747 C 0.04398 0.56715 0.46093 0.0
C748 C 0.04428 0.54768 0.44305 0.0
C749 C 0.04281 0.55197 0.41942 0.0
C750 C 0.04393 0.53419 0.40212 0.0
C751 C 0.04682 0.51191 0.40824 0.0
C752 C 0.04802 0.50749 0.43193 0.0
C753 C 0.04646 0.52519 0.44919 0.0
C754 C 0.05495 0.6283 0.53037 0.0
C755 C 0.10782 0.60663 0.53159 0.0
O756 O 0.09648 0.61206 0.59674 0.0
O757 O 0.06525 0.59096 0.60344 0.0
O758 O 0.06849 0.56067 0.53462 0.0
O759 O 0.07721 0.54936 0.56711 0.0
O760 O 0.02634 0.56131 0.52113 0.0
O761 O 0.03375 0.57898 0.56026 0.0
O762 O 0.03153 0.56127 0.4765 0.0
O763 O 0.06263 0.58278 0.46986 0.0
O764 O 0.05967 0.61066 0.53906 0.0
O765 O 0.05015 0.62271 0.50754 0.0
O766 O 0.10186 0.61044 0.55215 0.0
O767 O 0.09447 0.59285 0.51297 0.0
H768 H 0.1159 0.642 0.64033 0.0
H769 H 0.11332 0.67682 0.66589 0.0
H770 H 0.04389 0.65649 0.64159 0.0
H771 H 0.04666 0.62246 0.6157 0.0
H772 H 0.04107 0.56921 0.41438 0.0
H773 H 0.04325 0.53818 0.38404 0.0
H774 H 0.05016 0.49042 0.43704 0.0
H775 H 0.04707 0.52142 0.46727 0.0
Pr776 Pr 0.78381 0.83097 0.29056 0.0
Pr777 Pr 0.83487 0.84801 0.29765 0.0
C778 C 0.74196 0.81086 0.2929 0.0
C779 C 0.72436 0.81329 0.30561 0.0
C780 C 0.71492 0.83269 0.30351 0.0
C781 C 0.69736 0.83371 0.31448 0.0
C782 C 0.6889 0.8154 0.32783 0.0
C783 C 0.69853 0.79617 0.3301 0.0
C784 C 0.716 0.7951 0.31905 0.0
C785 C 0.80088 0.87646 0.27791 0.0
C786 C 0.81316 0.85865 0.34368 0.0
C787 C 0.87668 0.86816 0.29527 0.0
C788 C 0.89446 0.86484 0.28338 0.0
C789 C 0.91478 0.86678 0.29722 0.0
C790 C 0.93219 0.86447 0.28661 0.0
C791 C 0.92969 0.86026 0.26185 0.0
C792 C 0.90928 0.85829 0.24796 0.0
C793 C 0.89179 0.86047 0.25862 0.0
C794 C 0.8178 0.8021 0.30947 0.0
C795 C 0.80581 0.8199 0.24465 0.0
O796 O 0.75808 0.80413 0.30444 0.0
O797 O 0.74801 0.82681 0.27868 0.0
O798 O 0.80866 0.86818 0.29587 0.0
O799 O 0.78249 0.86198 0.2671 0.0
O800 O 0.83034 0.8657 0.33374 0.0
O801 O 0.79454 0.84446 0.33158 0.0
O802 O 0.8604 0.87384 0.28275 0.0
O803 O 0.87082 0.85322 0.31042 0.0
O804 O 0.81002 0.81078 0.29183 0.0
O805 O 0.83616 0.81644 0.32056 0.0
O806 O 0.78834 0.8133 0.25427 0.0
O807 O 0.8244 0.83396 0.25688 0.0
H808 H 0.72093 0.84698 0.29322 0.0
H809 H 0.69047 0.84891 0.31261 0.0
H810 H 0.69225 0.7816 0.33997 0.0
H811 H 0.72279 0.77979 0.32073 0.0
H812 H 0.91726 0.87031 0.31632 0.0
H813 H 0.94774 0.86642 0.29782 0.0
H814 H 0.90678 0.8548 0.22886 0.0
H815 H 0.87625 0.85882 0.24751 0.0
Pr816 Pr 0.82506 0.36331 0.8103 0.0
Pr817 Pr 0.79625 0.31441 0.78665 0.0
C818 C 0.85537 0.40222 0.8342 0.0
C819 C 0.86653 0.42511 0.82704 0.0
C820 C 0.86002 0.43076 0.80431 0.0
C821 C 0.87121 0.45207 0.79696 0.0
C822 C 0.88913 0.46799 0.81222 0.0
C823 C 0.89551 0.46224 0.83504 0.0
C824 C 0.88427 0.44091 0.84238 0.0
C825 C 0.78348 0.3645 0.78971 0.0
C826 C 0.81942 0.35437 0.75288 0.0
C827 C 0.76624 0.27576 0.76205 0.0
C828 C 0.75708 0.25115 0.7669 0.0
C829 C 0.76848 0.24103 0.78429 0.0
C830 C 0.75943 0.21775 0.7893 0.0
C831 C 0.73876 0.20444 0.77718 0.0
C832 C 0.72731 0.21481 0.75999 0.0
C833 C 0.73645 0.23803 0.75487 0.0
C834 C 0.83752 0.31303 0.80766 0.0
C835 C 0.80307 0.32278 0.84442 0.0
O836 O 0.86003 0.38312 0.82491 0.0
O837 O 0.83464 0.39897 0.83402 0.0
O838 O 0.78779 0.34807 0.80129 0.0
O839 O 0.80069 0.38186 0.7897 0.0
O840 O 0.80345 0.33526 0.75399 0.0
O841 O 0.83228 0.36705 0.77221 0.0
O842 O 0.76137 0.29274 0.77483 0.0
O843 O 0.78659 0.28112 0.7597 0.0
O844 O 0.83357 0.32938 0.79562 0.0
O845 O 0.82009 0.29601 0.80772 0.0
O846 O 0.8179 0.34292 0.8432 0.0
O847 O 0.79066 0.30928 0.8252 0.0
H848 H 0.84642 0.41854 0.79218 0.0
H849 H 0.86606 0.45589 0.77922 0.0
H850 H 0.90908 0.47433 0.84729 0.0
H851 H 0.88949 0.43668 0.85994 0.0
H852 H 0.78433 0.25116 0.794 0.0
H853 H 0.76849 0.21021 0.80273 0.0
H854 H 0.71147 0.20479 0.75017 0.0
H855 H 0.72743 0.24575 0.74155 0.0
Pr856 Pr 0.78662 0.81259 0.79321 0.0
Pr857 Pr 0.8316 0.84495 0.79488 0.0
C858 C 0.74902 0.78318 0.79987 0.0
C859 C 0.73018 0.78682 0.8096 0.0
C860 C 0.7245 0.8088 0.80886 0.0
C861 C 0.70704 0.81234 0.81885 0.0
C862 C 0.69503 0.79407 0.82998 0.0
C863 C 0.70079 0.77207 0.83061 0.0
C864 C 0.71817 0.7685 0.8205 0.0
C865 C 0.79434 0.82842 0.74973 0.0
C866 C 0.79116 0.86956 0.79934 0.0
C867 C 0.86966 0.87401 0.78887 0.0
C868 C 0.88776 0.87125 0.77696 0.0
C869 C 0.90848 0.87437 0.79052 0.0
C870 C 0.92559 0.87088 0.77986 0.0
C871 C 0.92247 0.86433 0.75527 0.0
C872 C 0.90181 0.86164 0.74161 0.0
C873 C 0.88464 0.86497 0.75232 0.0
C874 C 0.8233 0.82963 0.8385 0.0
C875 C 0.82578 0.7878 0.78514 0.0
O876 O 0.76721 0.78741 0.81502 0.0
O877 O 0.75166 0.79143 0.7798 0.0
O878 O 0.80726 0.82072 0.76387 0.0
O879 O 0.77647 0.82738 0.7575 0.0
O880 O 0.8096 0.87193 0.79161 0.0
O881 O 0.78161 0.8493 0.80677 0.0
O882 O 0.85105 0.8729 0.77552 0.0
O883 O 0.86747 0.86298 0.80761 0.0
O884 O 0.81072 0.83741 0.82406 0.0
O885 O 0.84114 0.83009 0.83088 0.0
O886 O 0.80847 0.78533 0.79498 0.0
O887 O 0.83509 0.8085 0.77834 0.0
H888 H 0.73371 0.82332 0.80077 0.0
H889 H 0.70326 0.8296 0.81832 0.0
H890 H 0.69177 0.75753 0.83881 0.0
H891 H 0.72233 0.75145 0.82134 0.0
H892 H 0.91142 0.87934 0.8095 0.0
H893 H 0.94133 0.87345 0.79089 0.0
H894 H 0.89877 0.8564 0.72267 0.0
H895 H 0.86888 0.86233 0.74129 0.0
Pr896 Pr 0.54257 0.57673 0.54021 0.0
Pr897 Pr 0.59299 0.60253 0.56093 0.0
C898 C 0.49878 0.56582 0.53179 0.0
C899 C 0.48207 0.57921 0.53127 0.0
C900 C 0.46009 0.56681 0.52411 0.0
C901 C 0.44404 0.57914 0.52461 0.0
C902 C 0.44966 0.60419 0.53216 0.0
C903 C 0.47177 0.61659 0.5391 0.0
C904 C 0.48778 0.60419 0.53882 0.0
C905 C 0.57098 0.57938 0.50883 0.0
C906 C 0.56276 0.63793 0.54396 0.0
C907 C 0.6366 0.61376 0.56816 0.0
C908 C 0.65301 0.60012 0.56809 0.0
C909 C 0.67466 0.61128 0.57847 0.0
C910 C 0.69041 0.59857 0.57808 0.0
C911 C 0.68478 0.57438 0.56736 0.0
C912 C 0.66296 0.56327 0.55703 0.0
C913 C 0.64726 0.57605 0.55734 0.0
C914 C 0.56488 0.60051 0.59244 0.0
C915 C 0.5727 0.54152 0.5582 0.0
O916 O 0.51051 0.56635 0.55255 0.0
O917 O 0.5102 0.5681 0.51491 0.0
O918 O 0.5712 0.59558 0.5248 0.0
O919 O 0.55458 0.56038 0.50741 0.0
O920 O 0.58295 0.63631 0.54866 0.0
O921 O 0.54584 0.61897 0.54294 0.0
O922 O 0.62449 0.61335 0.54762 0.0
O923 O 0.6257 0.61148 0.58548 0.0
O924 O 0.56442 0.58415 0.57647 0.0
O925 O 0.58153 0.61922 0.59384 0.0
O926 O 0.55254 0.54333 0.55396 0.0
O927 O 0.58962 0.56022 0.5582 0.0
H928 H 0.45531 0.54751 0.51834 0.0
H929 H 0.42721 0.56905 0.51895 0.0
H930 H 0.47669 0.63579 0.54533 0.0
H931 H 0.5046 0.61405 0.54484 0.0
H932 H 0.67943 0.6299 0.58672 0.0
H933 H 0.70707 0.60786 0.58589 0.0
H934 H 0.65792 0.54462 0.54889 0.0
H935 H 0.63063 0.56715 0.5491 0.0
Pr936 Pr 0.08556 0.58978 0.04808 0.0
Pr937 Pr 0.03546 0.58018 0.03469 0.0
C938 C 0.12735 0.58889 0.0596 0.0
C939 C 0.14218 0.57294 0.0606 0.0
C940 C 0.14878 0.56483 0.04006 0.0
C941 C 0.16479 0.55235 0.04149 0.0
C942 C 0.17469 0.54775 0.0635 0.0
C943 C 0.16754 0.55515 0.08396 0.0
C944 C 0.15154 0.56766 0.08253 0.0
C945 C 0.07054 0.61042 1.00919 0.0
C946 C 0.05551 0.53713 0.01763 0.0
C947 C 0.99428 0.58144 0.01901 0.0
C948 C 0.97811 0.59499 0.02215 0.0
C949 C 0.95729 0.58214 0.02459 0.0
C950 C 0.94129 0.59412 0.0267 0.0
C951 C 0.9457 0.61931 0.02634 0.0
C952 C 0.96664 0.63222 0.02396 0.0
C953 C 0.98272 0.6202 0.02196 0.0
C954 C 0.04958 0.55809 0.07301 0.0
C955 C 0.06558 0.63254 0.06759 0.0
O956 O 0.11451 0.58778 0.07507 0.0
O957 O 0.11847 0.59257 0.03873 0.0
O958 O 0.06247 0.58914 0.01321 0.0
O959 O 0.08727 0.62174 0.02518 0.0
O960 O 0.04002 0.54763 0.01096 0.0
O961 O 0.07276 0.54826 0.03383 0.0
O962 O 1.0106 0.59147 1.00914 0.0
O963 O 0.99959 0.56916 0.03603 0.0
O964 O 0.05845 0.57936 0.06931 0.0
O965 O 0.03181 0.5484 0.05776 0.0
O966 O 0.08275 0.62394 0.07052 0.0
O967 O 0.04685 0.62015 0.05428 0.0
H968 H 0.14208 0.56874 0.02287 0.0
H969 H 0.17001 0.5472 0.02539 0.0
H970 H 0.17454 0.55159 0.10118 0.0
H971 H 0.14691 0.57377 0.09869 0.0
H972 H 0.9533 0.56269 0.02461 0.0
H973 H 0.9253 0.58352 0.02814 0.0
H974 H 0.97066 0.65165 0.02387 0.0
H975 H 0.99869 0.63059 0.02016 0.0
H976 H 0.05004 0.24512 0.94358 0.0
H977 H 0.01988 0.1502 0.03301 0.0
H978 H 1.01024 0.25663 0.99424 0.0
H979 H 0.08169 0.16574 0.01049 0.0
H980 H 1.01258 0.1855 0.01542 0.0
H981 H 0.05822 0.21193 0.96397 0.0
C982 C 0.04295 0.24061 0.95895 0.0
C983 C 0.02943 0.25369 0.96721 0.0
C984 C 0.02779 0.18124 0.01454 0.0
C985 C 0.03855 0.21548 0.99047 0.0
C986 C 0.03195 0.16109 0.02448 0.0
C987 C 0.05145 0.15503 0.02323 0.0
C988 C 0.04299 0.19503 1.00274 0.0
C989 C 0.06653 0.16983 0.01203 0.0
C990 C 0.04773 0.22176 0.97065 0.0
C991 C 0.02081 0.24709 0.98733 0.0
N992 N 0.06187 0.18893 1.00196 0.0
N993 N 0.02533 0.22826 0.99814 0.0
H994 H 0.14817 0.87716 0.23072 0.0
H995 H 0.25596 0.83528 0.24601 0.0
H996 H 0.17316 0.85528 0.17005 0.0
H997 H 0.25234 0.8973 0.29075 0.0
H998 H 0.22164 0.83549 0.22101 0.0
H999 H 0.18286 0.87867 0.25613 0.0
C1000 C 0.161 0.87286 0.22274 0.0
C1001 C 0.15785 0.86627 0.19822 0.0
C1002 C 0.22836 0.84896 0.23637 0.0
C1003 C 0.1971 0.86715 0.2272 0.0
C1004 C 0.2478 0.84874 0.25073 0.0
C1005 C 0.25693 0.86629 0.27047 0.0
C1006 C 0.21771 0.86646 0.24217 0.0
C1007 C 0.2458 0.88347 0.27566 0.0
C1008 C 0.18072 0.87372 0.23722 0.0
C1009 C 0.17498 0.86073 0.18882 0.0
N1010 N 0.22664 0.88302 0.26171 0.0
N1011 N 0.19376 0.86095 0.20335 0.0
H1012 H 0.5086 0.8972 0.43723 0.0
H1013 H 0.57925 1.00988 0.53085 0.0
H1014 H 0.55858 0.89148 0.49379 0.0
H1015 H 0.52129 0.01113 0.48302 0.0
H1016 H 0.57268 0.96696 0.51691 0.0
H1017 H 0.51339 0.93905 0.45349 0.0
C1018 C 0.52051 0.90469 0.45319 0.0
C1019 C 0.53328 0.89077 0.4641 0.0
C1020 C 0.56138 0.97661 0.50949 0.0
C1021 C 0.53901 0.93899 0.48271 0.0
C1022 C 0.56518 1.00119 0.51733 0.0
C1023 C 0.55085 0.01423 0.50799 0.0
C1024 C 0.54321 0.96494 0.49204 0.0
C1025 C 0.5328 1.00186 0.49069 0.0
C1026 C 0.52322 0.92863 0.46247 0.0
C1027 C 0.54835 0.90149 0.48482 0.0
N1028 N 0.52956 0.97796 0.48321 0.0
N1029 N 0.55094 0.92503 0.49333 0.0
H1030 H 0.53983 0.38328 0.68428 0.0
H1031 H 0.45078 0.32232 0.7587 0.0
H1032 H 0.54338 0.32314 0.7234 0.0
H1033 H 0.452 0.38975 0.73048 0.0
H1034 H 0.48336 0.321 0.74318 0.0
H1035 H 0.50667 0.38506 0.69891 0.0
C1036 C 0.5337 0.37053 0.69599 0.0
C1037 C 0.54444 0.35306 0.70264 0.0
C1038 C 0.47651 0.33609 0.74032 0.0
C1039 C 0.50644 0.35483 0.71923 0.0
C1040 C 0.45776 0.33674 0.74901 0.0
C1041 C 0.44856 0.35615 0.74585 0.0
C1042 C 0.48621 0.35492 0.72825 0.0
C1043 C 0.45863 0.37454 0.73351 0.0
C1044 C 0.51477 0.37154 0.70432 0.0
C1045 C 0.53572 0.33695 0.71782 0.0
N1046 N 0.47689 0.37346 0.72512 0.0
N1047 N 0.51725 0.33819 0.72551 0.0
H1048 H 0.09083 0.89752 0.56953 0.0
H1049 H 0.07641 0.02939 0.60158 0.0
H1050 H 0.07162 0.91787 0.6347 0.0
H1051 H 0.06401 0.99521 0.52959 0.0
H1052 H 0.08077 0.99133 0.61545 0.0
H1053 H 0.08681 0.93572 0.5559 0.0
C1054 C 0.08575 0.91 0.58098 0.0
C1055 C 0.08146 0.90436 0.60327 0.0
C1056 C 0.07714 0.99223 0.59663 0.0
C1057 C 0.07726 0.94845 0.58792 0.0
C1058 C 0.0748 0.01399 0.58868 0.0
C1059 C 0.0698 0.01556 0.56434 0.0
C1060 C 0.07495 0.97197 0.58016 0.0
C1061 C 0.06777 0.99487 0.54849 0.0
C1062 C 0.08343 0.93179 0.57316 0.0
C1063 C 0.07495 0.92133 0.61733 0.0
N1064 N 0.07048 0.97405 0.55665 0.0
N1065 N 0.07324 0.94266 0.60953 0.0
H1066 H 0.48619 0.86101 0.85614 0.0
H1067 H 0.36038 0.79007 0.81953 0.0
H1068 H 0.45937 0.79542 0.8848 0.0
H1069 H 0.38623 0.86632 0.81629 0.0
H1070 H 0.39688 0.78824 0.83778 0.0
H1071 H 0.45004 0.85945 0.8353 0.0
C1072 C 0.47272 0.84612 0.85793 0.0
C1073 C 0.47589 0.82838 0.8724 0.0
C1074 C 0.39447 0.80531 0.83299 0.0
C1075 C 0.43419 0.82651 0.84839 0.0
C1076 C 0.3737 0.80635 0.8225 0.0
C1077 C 0.37017 0.82841 0.81647 0.0
C1078 C 0.41186 0.82636 0.83702 0.0
C1079 C 0.38805 0.84895 0.82079 0.0
C1080 C 0.45203 0.84532 0.84607 0.0
C1081 C 0.45769 0.80955 0.87394 0.0
N1082 N 0.40803 0.84739 0.83067 0.0
N1083 N 0.4376 0.8091 0.86209 0.0
H1084 H 0.57587 0.27871 0.07887 0.0
H1085 H 0.55388 0.13531 0.08331 0.0
H1086 H 0.55915 0.24464 0.13973 0.0
H1087 H 0.55816 0.16843 0.01933 0.0
H1088 H 0.55726 0.1752 0.10493 0.0
H1089 H 0.57088 0.23863 0.05731 0.0
C1090 C 0.57103 0.26285 0.08769 0.0
C1091 C 0.56785 0.26524 0.11119 0.0
C1092 C 0.5575 0.17375 0.08617 0.0
C1093 C 0.56235 0.21902 0.08657 0.0
C1094 C 0.55569 0.15101 0.07388 0.0
C1095 C 0.55598 0.1486 0.04956 0.0
C1096 C 0.55982 0.1943 0.07408 0.0
C1097 C 0.55791 0.16945 0.03809 0.0
C1098 C 0.56819 0.2399 0.07535 0.0
C1099 C 0.56166 0.24384 0.12162 0.0
N1100 N 0.55989 0.19136 0.05042 0.0
N1101 N 0.55925 0.22175 0.10934 0.0
H1102 H 0.10471 0.3437 0.39812 0.0
H1103 H 0.15367 0.26339 0.31329 0.0
H1104 H 0.06743 0.27675 0.3555 0.0
H1105 H 0.18821 0.3365 0.34408 0.0
H1106 H 0.12235 0.26794 0.32962 0.0
H1107 H 0.13584 0.34148 0.37959 0.0
C1108 C 0.103 0.32864 0.38477 0.0
C1109 C 0.08339 0.31037 0.37841 0.0
C1110 C 0.13674 0.28305 0.33275 0.0
C1111 C 0.11901 0.30758 0.35733 0.0
C1112 C 0.15467 0.28053 0.32326 0.0
C1113 C 0.17376 0.2996 0.32714 0.0
C1114 C 0.13776 0.30476 0.34648 0.0
C1115 C 0.17404 0.32113 0.34082 0.0
C1116 C 0.12079 0.32737 0.37422 0.0
C1117 C 0.08218 0.29127 0.36102 0.0
N1118 N 0.15638 0.32309 0.35003 0.0
N1119 N 0.09971 0.29032 0.35125 0.0
H1120 H 0.97443 0.09351 0.1861 0.0
H1121 H 1.01277 0.09571 0.06191 0.0
H1122 H 0.93075 0.06573 0.11939 0.0
H1123 H 0.05608 0.11751 0.12906 0.0
H1124 H 0.98174 0.09097 0.08197 0.0
H1125 H 1.00357 0.10825 0.16498 0.0
C1126 C 0.97092 0.09049 0.16695 0.0
C1127 C 0.95015 0.07797 0.15448 0.0
C1128 C 0.998 0.09693 0.09237 0.0
C1129 C 0.98365 0.09499 0.13015 0.0
C1130 C 0.0156 0.09936 0.08093 0.0
C1131 C 0.0367 0.10603 0.09402 0.0
C1132 C 1.00172 0.1012 0.11714 0.0
C1133 C 0.03991 0.11201 0.11848 0.0
C1134 C 0.98762 0.09905 0.1549 0.0
C1135 C 0.94657 0.07503 0.12969 0.0
N1136 N 0.02252 0.10908 0.12937 0.0
N1137 N 0.96326 0.08329 0.11831 0.0
H1138 H 0.29448 0.81032 0.48337 0.0
H1139 H 0.29141 0.77824 0.34576 0.0
H1140 H 0.30832 0.74514 0.45578 0.0
H1141 H 0.3098 0.85205 0.37941 0.0
H1142 H 0.29189 0.76425 0.38488 0.0
H1143 H 0.29487 0.82459 0.44448 0.0
C1144 C 0.29771 0.79905 0.46917 0.0
C1145 C 0.3015 0.77654 0.47293 0.0
C1146 C 0.29578 0.78349 0.38366 0.0
C1147 C 0.30143 0.79256 0.42814 0.0
C1148 C 0.29534 0.79151 0.36133 0.0
C1149 C 0.30055 0.8164 0.35923 0.0
C1150 C 0.30099 0.80043 0.40408 0.0
C1151 C 0.30573 0.83272 0.38012 0.0
C1152 C 0.29793 0.80722 0.44698 0.0
C1153 C 0.30551 0.7627 0.45378 0.0
N1154 N 0.30566 0.82446 0.4016 0.0
N1155 N 0.30514 0.77079 0.43218 0.0
H1156 H 0.58094 0.97123 0.67546 0.0
H1157 H 0.59408 0.0782 0.59851 0.0
H1158 H 0.64318 1.00667 0.65967 0.0
H1159 H 0.53594 0.01902 0.58376 0.0
H1160 H 0.61207 0.05397 0.62361 0.0
H1161 H 0.56337 0.98912 0.64344 0.0
C1162 C 0.59085 0.98226 0.66485 0.0
C1163 C 0.61353 0.98751 0.67023 0.0
C1164 C 0.59543 0.04626 0.6147 0.0
C1165 C 0.59366 1.0087 0.63434 0.0
C1166 C 0.58518 0.06008 0.60044 0.0
C1167 C 0.56362 0.0505 0.58888 0.0
C1168 C 0.58378 0.02299 0.6179 0.0
C1169 C 0.55261 0.02709 0.59238 0.0
C1170 C 0.58084 0.99255 0.6467 0.0
C1171 C 0.62564 1.00204 0.65604 0.0
N1172 N 0.56275 0.01419 0.60678 0.0
N1173 N 0.61558 0.01259 0.63907 0.0
H1174 H 0.29645 0.40842 0.98185 0.0
H1175 H 0.35116 0.37406 0.87453 0.0
H1176 H 0.35342 0.3819 0.99087 0.0
H1177 H 0.28223 0.3657 0.86486 0.0
H1178 H 0.35385 0.38375 0.91711 0.0
H1179 H 0.2921 0.39856 0.93874 0.0
C1180 C 0.30793 0.40037 0.97481 0.0
C1181 C 0.32528 0.39589 0.99004 0.0
C1182 C 0.33814 0.37988 0.90565 0.0
C1183 C 0.32071 0.38522 0.94086 0.0
C1184 C 0.33661 0.37454 0.88129 0.0
C1185 C 0.31643 0.36906 0.86603 0.0
C1186 C 0.31945 0.38017 0.91491 0.0
C1187 C 0.29811 0.36975 0.87596 0.0
C1188 C 0.30544 0.39479 0.95024 0.0
C1189 C 0.33972 0.38554 0.97989 0.0
N1190 N 0.30006 0.37531 0.89976 0.0
N1191 N 0.33725 0.38082 0.95601 0.0
H1192 H 0.98147 0.09294 0.27204 0.0
H1193 H 0.95832 0.08706 0.39981 0.0
H1194 H 0.91965 0.0955 0.28897 0.0
H1195 H 0.02294 0.10539 0.38432 0.0
H1196 H 0.94451 0.09656 0.3608 0.0
H1197 H 0.99796 0.10438 0.31369 0.0
C1198 C 0.97147 0.09639 0.28457 0.0
C1199 C 0.94915 0.09287 0.27728 0.0
C1200 C 0.96178 0.09907 0.36613 0.0
C1201 C 0.96772 0.10535 0.32501 0.0
C1202 C 0.96963 0.0935 0.38831 0.0
C1203 C 0.99171 0.09495 0.39502 0.0
C1204 C 0.97609 0.10567 0.35044 0.0
C1205 C 1.00577 0.10385 0.37975 0.0
C1206 C 0.98088 0.10299 0.30834 0.0
C1207 C 0.93692 0.09786 0.29403 0.0
N1208 N 0.99765 0.10839 0.35795 0.0
N1209 N 0.94627 0.10327 0.31731 0.0
H1210 H 0.31773 0.80562 0.59627 0.0
H1211 H 0.30878 0.79341 0.73199 0.0
H1212 H 0.3132 0.73833 0.62575 0.0
H1213 H 0.33116 0.86173 0.70617 0.0
H1214 H 0.30791 0.77241 0.69282 0.0
H1215 H 0.32053 0.82621 0.63595 0.0
C1216 C 0.31748 0.79517 0.61106 0.0
C1217 C 0.3153 0.77016 0.60752 0.0
C1218 C 0.31307 0.792 0.69576 0.0
C1219 C 0.31813 0.79366 0.65316 0.0
C1220 C 0.31353 0.80395 0.71811 0.0
C1221 C 0.32009 0.82932 0.72239 0.0
C1222 C 0.31893 0.80556 0.67743 0.0
C1223 C 0.32602 0.84214 0.7037 0.0
C1224 C 0.31906 0.80696 0.63376 0.0
C1225 C 0.31499 0.75765 0.62752 0.0
N1226 N 0.32519 0.83018 0.68209 0.0
N1227 N 0.31621 0.76945 0.64936 0.0
H1228 H 0.61968 0.95554 0.81404 0.0
H1229 H 0.52932 0.99846 0.87025 0.0
H1230 H 0.56566 0.9753 0.77483 0.0
H1231 H 0.58658 0.98691 0.91174 0.0
H1232 H 0.53746 0.97905 0.8352 0.0
H1233 H 0.60299 0.95609 0.8493 0.0
C1234 C 0.604 0.95926 0.81267 0.0
C1235 C 0.59418 0.96581 0.79168 0.0
C1236 C 0.54811 0.98042 0.85201 0.0
C1237 C 0.5752 0.96674 0.83177 0.0
C1238 C 0.54336 0.99136 0.87217 0.0
C1239 C 0.55748 0.99477 0.89403 0.0
C1240 C 0.56728 0.97305 0.85353 0.0
C1241 C 0.57555 0.98531 0.89516 0.0
C1242 C 0.59456 0.95975 0.83282 0.0
C1243 C 0.57393 0.97054 0.79083 0.0
N1244 N 0.58014 0.97525 0.87512 0.0
N1245 N 0.56527 0.97125 0.81067 0.0
H1246 H 0.32229 0.36387 0.10634 0.0
H1247 H 0.31791 0.37915 0.24485 0.0
H1248 H 0.32885 0.4319 0.14812 0.0
H1249 H 0.29841 0.3093 0.20251 0.0
H1250 H 0.32526 0.39833 0.20979 0.0
H1251 H 0.31641 0.34316 0.14135 0.0
C1252 C 0.32254 0.37447 0.12281 0.0
C1253 C 0.32603 0.39973 0.12416 0.0
C1254 C 0.31939 0.3788 0.20807 0.0
C1255 C 0.31945 0.37613 0.16433 0.0
C1256 C 0.31522 0.36781 0.22815 0.0
C1257 C 0.30739 0.34256 0.22661 0.0
C1258 C 0.31582 0.36453 0.18611 0.0
C1259 C 0.30433 0.32883 0.20446 0.0
C1260 C 0.31915 0.36262 0.14278 0.0
C1261 C 0.32615 0.41244 0.14605 0.0
N1262 N 0.30852 0.33998 0.18506 0.0
N1263 N 0.32298 0.40056 0.16514 0.0
H1264 H 0.25477 0.97599 0.02768 0.0
H1265 H 0.22219 0.09185 0.08122 0.0
H1266 H 0.29636 0.03031 0.08292 0.0
H1267 H 0.17587 0.03102 0.03684 0.0
H1268 H 0.25038 0.07105 0.07912 0.0
H1269 H 0.22659 0.99758 0.02758 0.0
C1270 C 0.25804 0.99251 0.03966 0.0
C1271 C 0.27795 1.0013 0.05537 0.0
C1272 C 0.23405 0.06223 0.06982 0.0
C1273 C 0.24582 0.02607 0.05535 0.0
C1274 C 0.21785 0.07405 0.07114 0.0
C1275 C 0.19646 0.06318 0.05934 0.0
C1276 C 0.22898 0.03933 0.0565 0.0
C1277 C 0.19211 0.0403 0.04605 0.0
C1278 C 0.24192 1.00478 0.03966 0.0
C1279 C 0.28125 0.02278 0.07055 0.0
N1280 N 0.20819 0.02915 0.04502 0.0
N1281 N 0.26539 0.03438 0.07016 0.0
H1282 H 0.70662 0.70854 0.01603 0.0
H1283 H 0.63272 0.57483 0.01776 0.0
H1284 H 0.73412 0.64828 0.02569 0.0
H1285 H 0.61366 0.63935 0.03673 0.0
H1286 H 0.66871 0.60027 0.01503 0.0
H1287 H 0.67091 0.68209 0.01708 0.0
C1288 C 0.70515 0.68968 0.01807 0.0
C1289 C 0.7235 0.68068 0.02082 0.0
C1290 C 0.65663 0.6088 0.01984 0.0
C1291 C 0.68249 0.65025 0.02209 0.0
C1292 C 0.63613 0.59432 0.0214 0.0
C1293 C 0.6202 0.60499 0.02751 0.0
C1294 C 0.66108 0.63414 0.02399 0.0
C1295 C 0.62546 0.63035 0.03203 0.0
C1296 C 0.68474 0.67463 0.01886 0.0
C1297 C 0.72048 0.65605 0.02357 0.0
N1298 N 0.64536 0.64403 0.03 0.0
N1299 N 0.70038 0.64168 0.0241 0.0
H1300 H 0.73493 0.53525 0.40429 0.0
H1301 H 0.84379 0.49825 0.39674 0.0
H1302 H 0.79467 0.58328 0.39424 0.0
H1303 H 0.77927 0.45002 0.37625 0.0
H1304 H 0.82842 0.52877 0.41391 0.0
H1305 H 0.75411 0.50414 0.41237 0.0
C1306 C 0.75225 0.53952 0.40472 0.0
C1307 C 0.76327 0.5615 0.39819 0.0
C1308 C 0.81777 0.51121 0.40621 0.0
C1309 C 0.78509 0.52642 0.40734 0.0
C1310 C 0.82648 0.49386 0.39622 0.0
C1311 C 0.81276 0.47181 0.38424 0.0
C1312 C 0.79523 0.50642 0.4043 0.0
C1313 C 0.79053 0.4668 0.38501 0.0
C1314 C 0.76313 0.5218 0.4092 0.0
C1315 C 0.78562 0.56629 0.39883 0.0
N1316 N 0.78241 0.48418 0.39441 0.0
N1317 N 0.79577 0.54873 0.40296 0.0
H1318 H 0.89749 0.45905 0.52848 0.0
H1319 H 0.99796 0.57414 0.57667 0.0
H1320 H 0.89299 0.51786 0.57709 0.0
H1321 H 0.99147 0.52795 0.51166 0.0
H1322 H 0.96103 0.55222 0.57998 0.0
H1323 H 0.93365 0.48242 0.52505 0.0
C1324 C 0.90411 0.47689 0.53846 0.0
C1325 C 0.89216 0.4865 0.5531 0.0
C1326 C 0.96772 0.54703 0.56496 0.0
C1327 C 0.93372 0.51334 0.54934 0.0
C1328 C 0.9888 0.55946 0.56309 0.0
C1329 C 0.99786 0.5529 0.54385 0.0
C1330 C 0.95579 0.52768 0.54768 0.0
C1331 C 0.98519 0.53375 0.52676 0.0
C1332 C 0.92474 0.49026 0.53642 0.0
C1333 C 0.90159 0.50978 0.56553 0.0
N1334 N 0.96492 0.52175 0.52917 0.0
N1335 N 0.92189 0.52237 0.5635 0.0
H1336 H 0.42652 0.2205 0.31698 0.0
H1337 H 0.35629 0.29577 0.24805 0.0
H1338 H 0.4283 0.23115 0.24409 0.0
H1339 H 0.33494 0.25701 0.30457 0.0
H1340 H 0.38424 0.27427 0.2474 0.0
H1341 H 0.3949 0.23691 0.31473 0.0
C1342 C 0.42036 0.22646 0.3006 0.0
C1343 C 0.43005 0.22459 0.28072 0.0
C1344 C 0.37321 0.27013 0.25966 0.0
C1345 C 0.39405 0.24314 0.27802 0.0
C1346 C 0.35723 0.2823 0.25997 0.0
C1347 C 0.34331 0.27799 0.27631 0.0
C1348 C 0.37561 0.254 0.27622 0.0
C1349 C 0.34525 0.26057 0.29154 0.0
C1350 C 0.40222 0.23554 0.29925 0.0
C1351 C 0.42131 0.2323 0.25983 0.0
N1352 N 0.36143 0.24945 0.29142 0.0
N1353 N 0.4039 0.2414 0.25908 0.0
H1354 H 0.33006 0.15795 0.55846 0.0
H1355 H 0.43391 0.15633 0.49999 0.0
H1356 H 0.34858 0.20245 0.50452 0.0
H1357 H 0.41535 0.11495 0.55603 0.0
H1358 H 0.40321 0.17375 0.50116 0.0
H1359 H 0.36117 0.14185 0.55707 0.0
C1360 C 0.34064 0.16431 0.54622 0.0
C1361 C 0.33664 0.18161 0.53157 0.0
C1362 C 0.4059 0.16088 0.51321 0.0
C1363 C 0.37261 0.16319 0.52996 0.0
C1364 C 0.42352 0.15104 0.51268 0.0
C1365 C 0.42722 0.134 0.52786 0.0
C1366 C 0.39186 0.15368 0.52906 0.0
C1367 C 0.413 0.12767 0.5437 0.0
C1368 C 0.35849 0.15511 0.54548 0.0
C1369 C 0.35101 0.18911 0.51612 0.0
N1370 N 0.39601 0.13744 0.54384 0.0
N1371 N 0.36837 0.17987 0.51572 0.0
H1372 H 0.78277 0.67209 0.37531 0.0
H1373 H 0.77775 0.7719 0.29084 0.0
H1374 H 0.72238 0.6881 0.34932 0.0
H1375 H 0.83211 0.78222 0.34802 0.0
H1376 H 0.75805 0.73721 0.30787 0.0
H1377 H 0.80235 0.7094 0.36203 0.0
C1378 C 0.77368 0.68364 0.3671 0.0
C1379 C 0.75097 0.67711 0.36342 0.0
C1380 C 0.77426 0.74718 0.31669 0.0
C1381 C 0.77311 0.71913 0.34764 0.0
C1382 C 0.78548 0.76688 0.307 0.0
C1383 C 0.80639 0.7801 0.3183 0.0
C1384 C 0.78432 0.7403 0.33738 0.0
C1385 C 0.81594 0.77255 0.33886 0.0
C1386 C 0.78483 0.70484 0.35954 0.0
C1387 C 0.73992 0.69262 0.35264 0.0
N1388 N 0.80486 0.753 0.34771 0.0
N1389 N 0.7511 0.71277 0.34474 0.0
H1390 H 0.98715 0.59704 0.80431 0.0
H1391 H 0.87243 0.49986 0.7875 0.0
H1392 H 0.9268 0.6105 0.77335 0.0
H1393 H 0.933 0.48748 0.81917 0.0
H1394 H 0.89246 0.53831 0.77701 0.0
H1395 H 0.9681 0.55475 0.80422 0.0
C1396 C 0.96993 0.59103 0.79718 0.0
C1397 C 0.95848 0.60742 0.78918 0.0
C1398 C 0.90138 0.52709 0.78607 0.0
C1399 C 0.93651 0.55905 0.78932 0.0
C1400 C 0.88996 0.50511 0.792 0.0
C1401 C 0.90107 0.49061 0.80448 0.0
C1402 C 0.92405 0.53462 0.79269 0.0
C1403 C 0.92377 0.49836 0.81 0.0
C1404 C 0.95904 0.56687 0.79718 0.0
C1405 C 0.93623 0.59854 0.77988 0.0
N1406 N 0.9345 0.51991 0.80422 0.0
N1407 N 0.9259 0.57499 0.78053 0.0
H1408 H 0.09127 0.89983 0.07358 0.0
H1409 H 0.09445 0.03649 0.09506 0.0
H1410 H 0.08822 0.9306 0.14315 0.0
H1411 H 0.04649 0.99176 0.03768 0.0
H1412 H 0.10057 0.9998 0.1106 0.0
H1413 H 0.08253 0.93526 0.05737 0.0
C1414 C 0.08876 0.91403 0.08542 0.0
C1415 C 0.09041 0.91228 0.10974 0.0
C1416 C 0.08875 0.99809 0.09459 0.0
C1417 C 0.08107 0.95294 0.09144 0.0
C1418 C 0.08533 0.01894 0.08563 0.0
C1419 C 0.06992 0.01714 0.06505 0.0
C1420 C 0.07723 0.97524 0.08248 0.0
C1421 C 0.05844 0.99391 0.05365 0.0
C1422 C 0.0837 0.93411 0.07615 0.0
C1423 C 0.08697 0.93118 0.12429 0.0
N1424 N 0.06253 0.97382 0.06233 0.0
N1425 N 0.08282 0.95092 0.11499 0.0
H1426 H 0.93911 0.29942 0.91747 0.0
H1427 H 0.87816 0.33927 0.80276 0.0
H1428 H 0.9715 0.31896 0.85932 0.0
H1429 H 0.84535 0.28751 0.84393 0.0
H1430 H 0.9132 0.33827 0.82609 0.0
H1431 H 0.90499 0.30115 0.89351 0.0
C1432 C 0.93905 0.30407 0.89965 0.0
C1433 C 0.95818 0.30892 0.89035 0.0
C1434 C 0.89827 0.32712 0.8299 0.0
C1435 C 0.9192 0.31134 0.86296 0.0
C1436 C 0.87835 0.32777 0.81667 0.0
C1437 C 0.85892 0.31334 0.82133 0.0
C1438 C 0.8986 0.3124 0.84817 0.0
C1439 C 0.86002 0.29879 0.8396 0.0
C1440 C 0.91956 0.30501 0.88598 0.0
C1441 C 0.9571 0.31487 0.86711 0.0
N1442 N 0.87946 0.29881 0.85244 0.0
N1443 N 0.93796 0.31611 0.85426 0.0
H1444 H 0.55891 0.27079 0.63787 0.0
H1445 H 0.60669 0.17405 0.57477 0.0
H1446 H 0.61314 0.2919 0.60232 0.0
H1447 H 0.53862 0.15894 0.57775 0.0
H1448 H 0.61136 0.21638 0.59012 0.0
H1449 H 0.5528 0.22873 0.62054 0.0
C1450 C 0.56942 0.26661 0.62627 0.0
C1451 C 0.58653 0.2849 0.62147 0.0
C1452 C 0.59542 0.20376 0.58742 0.0
C1453 C 0.57993 0.23677 0.60212 0.0
C1454 C 0.59277 0.17957 0.57887 0.0
C1455 C 0.57224 0.1629 0.57505 0.0
C1456 C 0.57752 0.21128 0.59265 0.0
C1457 C 0.55473 0.17117 0.58041 0.0
C1458 C 0.56591 0.24263 0.6164 0.0
C1459 C 0.59967 0.27842 0.60634 0.0
N1460 N 0.5578 0.19474 0.58912 0.0
N1461 N 0.59627 0.25484 0.59744 0.0
H1462 H 0.56464 0.82756 0.35848 0.0
H1463 H 0.68264 0.80455 0.37198 0.0
H1464 H 0.59816 0.80875 0.42202 0.0
H1465 H 0.65193 0.82784 0.30949 0.0
H1466 H 0.6511 0.80482 0.38995 0.0
H1467 H 0.59566 0.82645 0.33951 0.0
C1468 C 0.57843 0.82309 0.36841 0.0
C1469 C 0.57875 0.81829 0.39192 0.0
C1470 C 0.65122 0.8099 0.37231 0.0
C1471 C 0.61433 0.81706 0.37034 0.0
C1472 C 0.66922 0.80963 0.36199 0.0
C1473 C 0.66996 0.81614 0.33916 0.0
C1474 C 0.6337 0.81664 0.35973 0.0
C1475 C 0.65218 0.82294 0.32722 0.0
C1476 C 0.59617 0.82253 0.35759 0.0
C1477 C 0.59713 0.81265 0.40391 0.0
N1478 N 0.63477 0.82295 0.33762 0.0
N1479 N 0.61412 0.81222 0.39301 0.0
H1480 H 0.02844 0.23434 0.43282 0.0
H1481 H 0.0569 0.17451 0.55005 0.0
H1482 H 0.04102 0.27403 0.50256 0.0
H1483 H 0.02878 0.13338 0.48147 0.0
H1484 H 0.05287 0.21141 0.53344 0.0
H1485 H 0.03046 0.19782 0.45061 0.0
C1486 C 0.03166 0.23545 0.45192 0.0
C1487 C 0.0346 0.2575 0.46615 0.0
C1488 C 0.04747 0.19428 0.52208 0.0
C1489 C 0.03702 0.21527 0.4868 0.0
C1490 C 0.04977 0.17316 0.53154 0.0
C1491 C 0.04319 0.15066 0.51718 0.0
C1492 C 0.03877 0.19306 0.49797 0.0
C1493 C 0.03407 0.15019 0.4933 0.0
C1494 C 0.03273 0.21445 0.46209 0.0
C1495 C 0.03862 0.25753 0.49084 0.0
N1496 N 0.03229 0.171 0.48447 0.0
N1497 N 0.03984 0.23681 0.50037 0.0
H1498 H 0.62989 0.32314 0.22359 0.0
H1499 H 0.75849 0.38049 0.25288 0.0
H1500 H 0.66306 0.37024 0.1788 0.0
H1501 H 0.72624 0.31294 0.27468 0.0
H1502 H 0.72331 0.3829 0.23126 0.0
H1503 H 0.66478 0.3254 0.24818 0.0
C1504 C 0.64447 0.3342 0.21902 0.0
C1505 C 0.64344 0.34643 0.19893 0.0
C1506 C 0.72399 0.36767 0.24094 0.0
C1507 C 0.68365 0.34913 0.22728 0.0
C1508 C 0.74401 0.36636 0.25341 0.0
C1509 C 0.74534 0.34644 0.26557 0.0
C1510 C 0.70514 0.34918 0.24105 0.0
C1511 C 0.72604 0.32855 0.26546 0.0
C1512 C 0.66443 0.33537 0.23306 0.0
C1513 C 0.66303 0.36041 0.19401 0.0
N1514 N 0.70681 0.33038 0.25348 0.0
N1515 N 0.68232 0.36139 0.20807 0.0
H1516 H 0.56181 0.88631 1.00563 0.0
H1517 H 0.55738 0.0241 0.9967 0.0
H1518 H 0.5403 0.91197 0.94027 0.0
H1519 H 0.57611 0.99703 0.06203 0.0
H1520 H 0.5518 0.98357 0.97536 0.0
H1521 H 0.56767 0.92696 0.02639 0.0
C1522 C 0.55825 0.90041 0.99562 0.0
C1523 C 0.5505 0.89551 0.9711 0.0
C1524 C 0.55714 0.9865 0.99437 0.0
C1525 C 0.55731 0.94239 0.99485 0.0
C1526 C 0.56036 1.00966 1.00652 0.0
C1527 C 0.56719 0.01396 0.03118 0.0
C1528 C 0.56079 0.96747 1.00698 0.0
C1529 C 0.57083 0.99456 0.04303 0.0
C1530 C 0.56164 0.92369 1.0075 0.0
C1531 C 0.54626 0.91472 0.95916 0.0
N1532 N 0.56757 0.97226 0.03087 0.0
N1533 N 0.54973 0.93719 0.9711 0.0
H1534 H 0.01869 0.86351 0.66563 0.0
H1535 H 0.95236 0.8403 0.77147 0.0
H1536 H 0.03019 0.81682 0.71828 0.0
H1537 H 0.93399 0.8782 0.71347 0.0
H1538 H 0.98211 0.83341 0.75317 0.0
H1539 H 0.98876 0.87084 0.68367 0.0
C1540 C 0.01496 0.85481 0.68098 0.0
C1541 C 0.02702 0.8395 0.69042 0.0
C1542 C 0.97159 0.84323 0.7444 0.0
C1543 C 0.99278 0.8479 0.71123 0.0
C1544 C 0.95465 0.84731 0.75494 0.0
C1545 C 0.94062 0.85993 0.74408 0.0
C1546 C 0.97476 0.85193 0.72282 0.0
C1547 C 0.94425 0.86821 0.72242 0.0
C1548 C 0.99783 0.85898 0.69125 0.0
C1549 C 0.02137 0.82873 0.71034 0.0
N1550 N 0.96098 0.86416 0.71257 0.0
N1551 N 1.00475 0.83317 0.72007 0.0
H1552 H 0.16927 0.06365 0.92303 0.0
H1553 H 0.09576 0.1143 1.00057 0.0
H1554 H 0.15577 0.13312 0.91977 0.0
H1555 H 0.07997 0.03765 0.97722 0.0
H1556 H 0.12493 0.12115 0.97846 0.0
H1557 H 0.14305 0.05368 0.94985 0.0
C1558 C 0.16105 0.07688 0.92827 0.0
C1559 C 0.16458 0.09923 0.9193 0.0
C1560 C 0.11516 0.1028 0.97814 0.0
C1561 C 0.13508 0.08809 0.94958 0.0
C1562 C 0.09851 0.0988 0.99084 0.0
C1563 C 0.08536 0.07534 0.99061 0.0
C1564 C 0.11882 0.08324 0.96496 0.0
C1565 C 0.08968 0.05602 0.97759 0.0
C1566 C 0.14603 0.07109 0.94327 0.0
C1567 C 0.15344 0.11568 0.92625 0.0
N1568 N 0.10615 0.06039 0.96511 0.0
N1569 N 0.13926 0.1098 0.94103 0.0
H1570 H 0.83727 0.44448 0.64166 0.0
H1571 H 0.80157 0.32938 0.70853 0.0
H1572 H 0.81751 0.3721 0.60429 0.0
H1573 H 0.84305 0.3982 0.74357 0.0
H1574 H 0.80448 0.34432 0.6702 0.0
H1575 H 0.8364 0.42767 0.67893 0.0
C1576 C 0.83267 0.42498 0.64123 0.0
C1577 C 0.82737 0.40971 0.61964 0.0
C1578 C 0.81306 0.35604 0.68629 0.0
C1579 C 0.82628 0.39022 0.66272 0.0
C1580 C 0.81138 0.34757 0.70821 0.0
C1581 C 0.82207 0.36254 0.72941 0.0
C1582 C 0.8252 0.37982 0.68552 0.0
C1583 C 0.83457 0.38594 0.72779 0.0
C1584 C 0.83231 0.41539 0.66263 0.0
C1585 C 0.82174 0.38457 0.62044 0.0
N1586 N 0.8356 0.39388 0.7063 0.0
N1587 N 0.82115 0.3756 0.64162 0.0
H1588 H 0.5334 0.13169 0.36095 0.0
H1589 H 0.57676 0.16047 0.49743 0.0
H1590 H 0.52581 0.19634 0.39804 0.0
H1591 H 0.54219 0.08807 0.46486 0.0
H1592 H 0.56389 0.17622 0.46108 0.0
H1593 H 0.54317 0.11753 0.39879 0.0
C1594 C 0.534 0.14304 0.3771 0.0
C1595 C 0.52888 0.16529 0.3764 0.0
C1596 C 0.55901 0.15694 0.46207 0.0
C1597 C 0.54016 0.14915 0.4197 0.0
C1598 C 0.5664 0.14795 0.48264 0.0
C1599 C 0.56061 0.12296 0.48394 0.0
C1600 C 0.54631 0.14071 0.44259 0.0
C1601 C 0.54704 0.10745 0.46448 0.0
C1602 C 0.53937 0.13482 0.39863 0.0
C1603 C 0.52967 0.17909 0.39787 0.0
N1604 N 0.54062 0.11655 0.44441 0.0
N1605 N 0.53546 0.1709 0.41879 0.0
H1606 H 0.77095 0.78543 0.09142 0.0
H1607 H 0.83923 0.81461 0.22299 0.0
H1608 H 0.82587 0.75744 0.1125 0.0
H1609 H 0.77027 0.80625 0.20862 0.0
H1610 H 0.83755 0.80141 0.18111 0.0
H1611 H 0.7737 0.80152 0.13292 0.0
C1612 C 0.78383 0.78307 0.10468 0.0
C1613 C 0.79822 0.77009 0.09846 0.0
C1614 C 0.8228 0.80247 0.18716 0.0
C1615 C 0.80144 0.78846 0.14586 0.0
C1616 C 0.82372 0.81001 0.21104 0.0
C1617 C 0.80481 0.81136 0.21939 0.0
C1618 C 0.80292 0.79678 0.17131 0.0
C1619 C 0.7852 0.80522 0.20301 0.0
C1620 C 0.78523 0.79203 0.12835 0.0
C1621 C 0.81441 0.7673 0.11648 0.0
N1622 N 0.78478 0.79838 0.17973 0.0
N1623 N 0.81564 0.77647 0.1393 0.0
H1624 H 0.14692 0.0675 0.81265 0.0
H1625 H 0.15045 0.07192 0.67629 0.0
H1626 H 0.205 0.07351 0.78341 0.0
H1627 H 0.09496 0.07407 0.70801 0.0
H1628 H 0.16819 0.06195 0.71336 0.0
H1629 H 0.12552 0.05877 0.77277 0.0
C1630 C 0.15514 0.06657 0.79781 0.0
C1631 C 0.17781 0.07181 0.80128 0.0
C1632 C 0.15199 0.06421 0.71208 0.0
C1633 C 0.15344 0.06222 0.75557 0.0
C1634 C 0.14183 0.06981 0.69092 0.0
C1635 C 0.12138 0.07425 0.68929 0.0
C1636 C 0.1416 0.06308 0.73168 0.0
C1637 C 0.11095 0.07134 0.70875 0.0
C1638 C 0.14291 0.0616 0.77503 0.0
C1639 C 0.18757 0.06988 0.78147 0.0
N1640 N 0.12129 0.06623 0.72923 0.0
N1641 N 0.17534 0.06573 0.75937 0.0
H1642 H 0.78376 0.39578 0.47671 0.0
H1643 H 0.83136 0.36674 0.36203 0.0
H1644 H 0.84888 0.38879 0.48144 0.0
H1645 H 0.76621 0.32936 0.36754 0.0
H1646 H 0.83748 0.3851 0.40345 0.0
H1647 H 0.77638 0.38057 0.43419 0.0
C1648 C 0.79646 0.39104 0.46884 0.0
C1649 C 0.81688 0.39328 0.48271 0.0
C1650 C 0.82178 0.3731 0.39545 0.0
C1651 C 0.8088 0.37679 0.43411 0.0
C1652 C 0.81823 0.36282 0.37182 0.0
C1653 C 0.7982 0.3467 0.36137 0.0
C1654 C 0.80505 0.36753 0.40855 0.0
C1655 C 0.78184 0.34182 0.37496 0.0
C1656 C 0.79225 0.38241 0.44463 0.0
C1657 C 0.83281 0.38704 0.47152 0.0
N1658 N 0.78556 0.35229 0.39781 0.0
N1659 N 0.82852 0.37933 0.44789 0.0
H1660 H 0.51751 0.22528 0.2341 0.0
H1661 H 0.61567 0.17776 0.2096 0.0
H1662 H 0.56504 0.21037 0.28799 0.0
H1663 H 0.56792 0.1917 0.15544 0.0
H1664 H 0.60468 0.2029 0.23885 0.0
H1665 H 0.54252 0.22674 0.20654 0.0
C1666 C 0.53341 0.22294 0.24036 0.0
C1667 C 0.53885 0.21674 0.26314 0.0
C1668 C 0.59696 0.20102 0.22048 0.0
C1669 C 0.56741 0.21803 0.23154 0.0
C1670 C 0.60326 0.18668 0.20379 0.0
C1671 C 0.59226 0.18212 0.18024 0.0
C1672 C 0.57923 0.21042 0.21362 0.0
C1673 C 0.57662 0.19448 0.17351 0.0
C1674 C 0.5477 0.22373 0.22456 0.0
C1675 C 0.55987 0.21445 0.27038 0.0
N1676 N 0.57015 0.20755 0.19024 0.0
N1677 N 0.57317 0.21448 0.25445 0.0
H1678 H 0.76613 0.79226 0.96185 0.0
H1679 H 0.84722 0.80824 0.86909 0.0
H1680 H 0.81941 0.75969 0.9654 0.0
H1681 H 0.78766 0.82963 0.85877 0.0
H1682 H 0.83856 0.79261 0.90564 0.0
H1683 H 0.77502 0.80831 0.92561 0.0
C1684 C 0.77976 0.78853 0.95509 0.0
C1685 C 0.79203 0.77455 0.96682 0.0
C1686 C 0.82737 0.80073 0.89542 0.0
C1687 C 0.80236 0.79303 0.92509 0.0
C1688 C 0.83234 0.80973 0.87456 0.0
C1689 C 0.81819 0.82035 0.86085 0.0
C1690 C 0.80814 0.80245 0.90285 0.0
C1691 C 0.79908 0.82165 0.86879 0.0
C1692 C 0.78479 0.79767 0.9343 0.0
C1693 C 0.80947 0.77033 0.95704 0.0
N1694 N 0.79465 0.81289 0.88925 0.0
N1695 N 0.81412 0.77954 0.93684 0.0
H1696 H 0.86044 0.19581 0.01881 0.0
H1697 H 0.91802 0.09409 0.06087 0.0
H1698 H 0.84273 0.15198 0.07346 0.0
H1699 H 0.93332 0.13408 1.0029 0.0
H1700 H 0.8909 0.1158 0.06613 0.0
H1701 H 0.88783 0.17431 0.01322 0.0
C1702 C 0.8623 0.1817 0.02964 0.0
C1703 C 0.84922 0.17572 0.04663 0.0
C1704 C 0.90017 0.11984 0.05224 0.0
C1705 C 0.88059 0.15101 0.04035 0.0
C1706 C 0.91561 0.10731 0.04912 0.0
C1707 C 0.92802 0.11211 0.03133 0.0
C1708 C 0.89701 0.13742 0.03751 0.0
C1709 C 0.92438 0.12989 0.01702 0.0
C1710 C 0.87794 0.1694 0.02644 0.0
C1711 C 0.85239 0.15724 0.06014 0.0
N1712 N 0.90924 0.14184 0.0204 0.0
N1713 N 0.86771 0.1456 0.05672 0.0
H1714 H 0.39233 0.51773 0.0804 0.0
H1715 H 0.50642 0.52178 0.04137 0.0
H1716 H 0.40889 0.45496 0.05093 0.0
H1717 H 0.49269 0.5839 0.0761 0.0
H1718 H 0.4699 0.49761 0.04283 0.0
H1719 H 0.42824 0.54274 0.07748 0.0
C1720 C 0.40348 0.50918 0.07334 0.0
C1721 C 0.39752 0.48413 0.06596 0.0
C1722 C 0.47482 0.51653 0.0501 0.0
C1723 C 0.43868 0.51274 0.06246 0.0
C1724 C 0.49566 0.53036 0.04921 0.0
C1725 C 0.50263 0.55486 0.05872 0.0
C1726 C 0.46074 0.52725 0.06055 0.0
C1727 C 0.48799 0.56505 0.06862 0.0
C1728 C 0.424 0.52349 0.07167 0.0
C1729 C 0.41271 0.47413 0.05692 0.0
N1730 N 0.46776 0.55119 0.06933 0.0
N1731 N 0.43251 0.48844 0.05542 0.0
H1732 H 0.33842 0.58961 0.66104 0.0
H1733 H 0.34471 0.70081 0.75657 0.0
H1734 H 0.38637 0.61233 0.72533 0.0
H1735 H 0.29086 0.67294 0.6984 0.0
H1736 H 0.36109 0.66955 0.74373 0.0
H1737 H 0.32134 0.62089 0.67305 0.0
C1738 C 0.34532 0.60114 0.67767 0.0
C1739 C 0.36384 0.59842 0.69221 0.0
C1740 C 0.3457 0.67022 0.73372 0.0
C1741 C 0.34451 0.63411 0.70593 0.0
C1742 C 0.33643 0.68819 0.74094 0.0
C1743 C 0.31649 0.68952 0.7284 0.0
C1744 C 0.33499 0.65343 0.71378 0.0
C1745 C 0.30622 0.67241 0.70858 0.0
C1746 C 0.33557 0.61894 0.68451 0.0
C1747 C 0.37212 0.61378 0.71357 0.0
N1748 N 0.31564 0.65504 0.70181 0.0
N1749 N 0.36242 0.631 0.71974 0.0
H1750 H 0.22391 0.71898 0.53143 0.0
H1751 H 0.13423 0.5927 0.5034 0.0
H1752 H 0.24275 0.65267 0.52086 0.0
H1753 H 0.13169 0.6506 0.55431 0.0
H1754 H 0.17126 0.61555 0.5006 0.0
H1755 H 0.18667 0.69518 0.53002 0.0
C1756 C 0.22018 0.69941 0.52847 0.0
C1757 C 0.23652 0.6878 0.5264 0.0
C1758 C 0.16248 0.62313 0.51232 0.0
C1759 C 0.19384 0.66052 0.52458 0.0
C1760 C 0.14142 0.6102 0.51387 0.0
C1761 C 0.12998 0.61973 0.52922 0.0
C1762 C 0.17175 0.64597 0.52566 0.0
C1763 C 0.14001 0.64247 0.54244 0.0
C1764 C 0.19895 0.68587 0.52781 0.0
C1765 C 0.23067 0.66234 0.5227 0.0
N1766 N 0.16022 0.65489 0.5402 0.0
N1767 N 0.20976 0.6495 0.52185 0.0
H1768 H 0.68053 0.92666 0.77177 0.0
H1769 H 0.79819 0.90637 0.77186 0.0
H1770 H 0.72289 0.95739 0.72502 0.0
H1771 H 0.75464 0.87232 0.81606 0.0
H1772 H 0.77229 0.92863 0.75751 0.0
H1773 H 0.70829 0.90835 0.78988 0.0
C1774 C 0.69556 0.92934 0.76514 0.0
C1775 C 0.69936 0.9435 0.7468 0.0
C1776 C 0.76852 0.91651 0.77058 0.0
C1777 C 0.73133 0.92301 0.76772 0.0
C1778 C 0.78345 0.90402 0.779 0.0
C1779 C 0.77852 0.88733 0.79505 0.0
C1780 C 0.74856 0.91226 0.77827 0.0
C1781 C 0.75905 0.88487 0.80353 0.0
C1782 C 0.71147 0.91905 0.77561 0.0
C1783 C 0.71922 0.94654 0.73906 0.0
N1784 N 0.74468 0.89699 0.79485 0.0
N1785 N 0.73446 0.93643 0.74959 0.0
H1786 H 0.79302 1.00978 0.60485 0.0
H1787 H 0.68075 0.01369 0.52602 0.0
H1788 H 0.76495 0.96456 0.53827 0.0
H1789 H 0.70818 0.05561 0.59438 0.0
H1790 H 0.71129 0.9956 0.52976 0.0
H1791 H 0.76214 0.02699 0.60075 0.0
C1792 C 0.78039 1.0035 0.58929 0.0
C1793 C 0.78164 0.98567 0.57186 0.0
C1794 C 0.71058 1.00869 0.54397 0.0
C1795 C 0.74599 1.00536 0.5671 0.0
C1796 C 0.69317 0.0191 0.54183 0.0
C1797 C 0.69183 0.03625 0.55992 0.0
C1798 C 0.72689 0.01552 0.56431 0.0
C1799 C 0.70831 0.04227 0.58011 0.0
C1800 C 0.76269 0.01332 0.587 0.0
C1801 C 0.7647 0.97827 0.55213 0.0
N1802 N 0.72513 0.03202 0.5817 0.0
N1803 N 0.74758 0.98815 0.55029 0.0
H1804 H 0.35531 0.47662 0.67563 0.0
H1805 H 0.30098 0.37679 0.72193 0.0
H1806 H 0.40433 0.48893 0.73872 0.0
H1807 H 0.34216 0.41107 0.78836 0.0
H1808 H 0.32346 0.40534 0.70138 0.0
H1809 H 0.33484 0.44107 0.68976 0.0
C1810 C 0.36206 0.47147 0.69221 0.0
C1811 C 0.38149 0.48594 0.70608 0.0
C1812 C 0.32747 0.4071 0.72046 0.0
C1813 C 0.35818 0.44474 0.72245 0.0
C1814 C 0.31465 0.39065 0.73221 0.0
C1815 C 0.31954 0.39194 0.75689 0.0
C1816 C 0.34513 0.42532 0.73355 0.0
C1817 C 0.33775 0.40971 0.76931 0.0
C1818 C 0.35035 0.45095 0.7003 0.0
C1819 C 0.38936 0.4784 0.72747 0.0
N1820 N 0.34983 0.42585 0.7575 0.0
N1821 N 0.37753 0.4585 0.73514 0.0
H1822 H 0.14533 0.56572 0.27565 0.0
H1823 H 0.25276 0.67212 0.2813 0.0
H1824 H 0.20708 0.55469 0.26637 0.0
H1825 H 0.18914 0.68337 0.27837 0.0
H1826 H 0.23765 0.6295 0.28486 0.0
H1827 H 0.16262 0.60914 0.28562 0.0
C1828 C 0.16257 0.57237 0.27605 0.0
C1829 C 0.17472 0.55665 0.26974 0.0
C1830 C 0.22703 0.64134 0.28371 0.0
C1831 C 0.19451 0.60615 0.28103 0.0
C1832 C 0.23567 0.6657 0.28181 0.0
C1833 C 0.22211 0.68119 0.27922 0.0
C1834 C 0.20468 0.63243 0.28297 0.0
C1835 C 0.20006 0.67187 0.27982 0.0
C1836 C 0.17241 0.59714 0.28168 0.0
C1837 C 0.19702 0.56621 0.27072 0.0
N1838 N 0.19197 0.64801 0.28141 0.0
N1839 N 0.20616 0.59039 0.27599 0.0
H1840 H 0.51121 0.74338 0.47201 0.0
H1841 H 0.59218 0.68251 0.54912 0.0
H1842 H 0.57597 0.78226 0.50735 0.0
H1843 H 0.52448 0.64643 0.5236 0.0
H1844 H 0.58612 0.7195 0.53482 0.0
H1845 H 0.51518 0.70803 0.49154 0.0
C1846 C 0.52617 0.74459 0.48404 0.0
C1847 C 0.5433 0.76585 0.48795 0.0
C1848 C 0.57253 0.70356 0.53253 0.0
C1849 C 0.54805 0.72532 0.51019 0.0
C1850 C 0.57598 0.68238 0.54072 0.0
C1851 C 0.55884 0.66121 0.53758 0.0
C1852 C 0.55181 0.70362 0.52084 0.0
C1853 C 0.5382 0.66227 0.52655 0.0
C1854 C 0.52844 0.72438 0.49517 0.0
C1855 C 0.56232 0.76629 0.50372 0.0
N1856 N 0.53531 0.68301 0.5184 0.0
N1857 N 0.56423 0.74633 0.51407 0.0
H1858 H 0.65332 0.37638 0.7381 0.0
H1859 H 0.75964 0.33208 0.75217 0.0
H1860 H 0.67875 0.35673 0.67697 0.0
H1861 H 0.75894 0.39572 0.79643 0.0
H1862 H 0.72516 0.33309 0.72792 0.0
H1863 H 0.6878 0.37675 0.76346 0.0
C1864 C 0.66618 0.37231 0.73003 0.0
C1865 C 0.66325 0.36673 0.70539 0.0
C1866 C 0.7325 0.34668 0.74308 0.0
C1867 C 0.70217 0.36624 0.73423 0.0
C1868 C 0.75199 0.34597 0.75701 0.0
C1869 C 0.76189 0.36367 0.7764 0.0
C1870 C 0.72264 0.3649 0.74897 0.0
C1871 C 0.75163 0.38167 0.78166 0.0
C1872 C 0.68577 0.37251 0.74447 0.0
C1873 C 0.68041 0.36142 0.69585 0.0
N1874 N 0.73239 0.38171 0.76816 0.0
N1875 N 0.699 0.36095 0.71029 0.0
H1876 H 0.03051 0.38251 0.00997 0.0
H1877 H 0.03441 0.51232 0.97415 0.0
H1878 H 0.03634 0.3967 0.93875 0.0
H1879 H 0.06983 0.5035 0.04122 0.0
H1880 H 0.02916 0.46909 0.96087 0.0
H1881 H 0.03941 0.42627 0.0223 0.0
C1882 C 0.03383 0.39487 0.99699 0.0
C1883 C 0.03285 0.38604 0.97336 0.0
C1884 C 0.0382 0.47677 0.97841 0.0
C1885 C 0.04232 0.43589 0.98716 0.0
C1886 C 0.04111 0.50131 0.98601 0.0
C1887 C 0.05268 0.51147 1.00873 0.0
C1888 C 0.04633 0.46225 0.99394 0.0
C1889 C 0.06101 0.49643 0.02346 0.0
C1890 C 0.0389 0.41976 1.00402 0.0
C1891 C 0.03717 0.40281 0.9572 0.0
N1892 N 0.05743 0.47251 0.01594 0.0
N1893 N 0.04141 0.42697 0.96431 0.0
H1894 H 0.03052 0.87574 0.17655 0.0
H1895 H 0.95984 0.83594 0.27586 0.0
H1896 H 0.04441 0.8282 0.22746 0.0
H1897 H 0.94232 0.87957 0.22262 0.0
H1898 H 0.99135 0.8338 0.25858 0.0
H1899 H 0.99872 0.87847 0.1935 0.0
C1900 C 0.02695 0.86597 0.19133 0.0
C1901 C 0.04017 0.85172 0.20059 0.0
C1902 C 0.98063 0.84383 0.25061 0.0
C1903 C 1.0038 0.85469 0.21999 0.0
C1904 C 0.96266 0.84515 0.26055 0.0
C1905 C 0.94843 0.85805 0.25076 0.0
C1906 C 0.98457 0.85557 0.23071 0.0
C1907 C 0.95274 0.86926 0.23065 0.0
C1908 C 1.00876 0.86747 0.20095 0.0
C1909 C 0.03471 0.8394 0.21971 0.0
N1910 N 0.97047 0.86784 0.22134 0.0
N1911 N 0.017 0.84117 0.22874 0.0
H1912 H 0.57186 0.41385 0.14037 0.0
H1913 H 0.56904 0.49086 0.0316 0.0
H1914 H 0.59561 0.395 0.07777 0.0
H1915 H 0.57834 0.52391 0.10359 0.0
H1916 H 0.57317 0.45311 0.04642 0.0
H1917 H 0.56823 0.4517 0.12541 0.0
C1918 C 0.57616 0.41755 0.1234 0.0
C1919 C 0.58408 0.40116 0.11033 0.0
C1920 C 0.57437 0.46867 0.05895 0.0
C1921 C 0.57971 0.44441 0.09298 0.0
C1922 C 0.57198 0.49022 0.05051 0.0
C1923 C 0.57345 0.51071 0.06634 0.0
C1924 C 0.57771 0.4673 0.08341 0.0
C1925 C 0.57727 0.50871 0.0907 0.0
C1926 C 0.5742 0.43924 0.11495 0.0
C1927 C 0.58951 0.40709 0.0885 0.0
N1928 N 0.57904 0.48739 0.09845 0.0
N1929 N 0.58707 0.42807 0.08044 0.0
H1930 H 0.95259 0.30588 0.41859 0.0
H1931 H 0.89037 0.35502 0.3133 0.0
H1932 H 0.98401 0.33017 0.36108 0.0
H1933 H 0.85745 0.29262 0.34262 0.0
H1934 H 0.92517 0.35132 0.33429 0.0
H1935 H 0.91763 0.30608 0.39494 0.0
C1936 C 0.95214 0.31131 0.40102 0.0
C1937 C 0.97125 0.31803 0.39179 0.0
C1938 C 0.91033 0.33834 0.33595 0.0
C1939 C 0.93141 0.31866 0.36489 0.0
C1940 C 0.89049 0.34045 0.32405 0.0
C1941 C 0.87101 0.32403 0.32616 0.0
C1942 C 0.91068 0.32016 0.35069 0.0
C1943 C 0.87211 0.30552 0.34036 0.0
C1944 C 0.93219 0.31126 0.38752 0.0
C1945 C 0.96968 0.32477 0.36885 0.0
N1946 N 0.89159 0.30429 0.35239 0.0
N1947 N 0.95016 0.32523 0.3563 0.0
H1948 H 0.06573 0.74909 0.63694 0.0
H1949 H 0.04953 0.66894 0.51172 0.0
H1950 H 0.06699 0.77961 0.57115 0.0
H1951 H 0.0639 0.64236 0.57836 0.0
H1952 H 0.05253 0.70864 0.53294 0.0
H1953 H 0.06175 0.70919 0.61558 0.0
C1954 C 0.06491 0.74743 0.61797 0.0
C1955 C 0.06666 0.76792 0.60587 0.0
C1956 C 0.05502 0.69416 0.54298 0.0
C1957 C 0.0619 0.72192 0.58128 0.0
C1958 C 0.05326 0.67145 0.53087 0.0
C1959 C 0.05645 0.65228 0.54332 0.0
C1960 C 0.05981 0.69781 0.56783 0.0
C1961 C 0.06128 0.65662 0.56812 0.0
C1962 C 0.06272 0.72459 0.60582 0.0
C1963 C 0.0657 0.76445 0.58128 0.0
N1964 N 0.06275 0.67886 0.57956 0.0
N1965 N 0.06332 0.74196 0.56983 0.0
H1966 H 0.57914 0.83007 0.86266 0.0
H1967 H 0.68535 0.78142 0.87257 0.0
H1968 H 0.60777 0.80524 0.92538 0.0
H1969 H 0.66336 0.81597 0.81345 0.0
H1970 H 0.65564 0.78804 0.89104 0.0
H1971 H 0.60854 0.8233 0.84331 0.0
C1972 C 0.59155 0.82319 0.87237 0.0
C1973 C 0.59092 0.81826 0.89574 0.0
C1974 C 0.65728 0.7942 0.87402 0.0
C1975 C 0.6246 0.81039 0.87363 0.0
C1976 C 0.67419 0.79027 0.86337 0.0
C1977 C 0.67688 0.79807 0.84135 0.0
C1978 C 0.64275 0.80594 0.86259 0.0
C1979 C 0.66206 0.80983 0.83052 0.0
C1980 C 0.60836 0.81937 0.86132 0.0
C1981 C 0.60753 0.80938 0.9074 0.0
N1982 N 0.64561 0.81333 0.8412 0.0
N1983 N 0.62358 0.80571 0.89624 0.0
H1984 H 0.47397 0.60853 0.68483 0.0
H1985 H 0.53382 0.56034 0.5947 0.0
H1986 H 0.43891 0.55881 0.62284 0.0
H1987 H 0.55505 0.63699 0.61894 0.0
H1988 H 0.50103 0.55764 0.61082 0.0
H1989 H 0.5056 0.61886 0.66559 0.0
C1990 C 0.47284 0.60008 0.66704 0.0
C1991 C 0.45399 0.5825 0.65547 0.0
C1992 C 0.51282 0.57507 0.61252 0.0
C1993 C 0.48991 0.59394 0.63385 0.0
C1994 C 0.53157 0.57664 0.60351 0.0
C1995 C 0.54686 0.59903 0.60513 0.0
C1996 C 0.50961 0.5959 0.62392 0.0
C1997 C 0.54347 0.61945 0.61725 0.0
C1998 C 0.4908 0.60609 0.65612 0.0
C1999 C 0.4532 0.5723 0.6324 0.0
N2000 N 0.52508 0.6174 0.62639 0.0
N2001 N 0.47114 0.57779 0.6225 0.0
H2002 H 0.8073 0.24045 0.96402 0.0
H2003 H 0.81291 0.35037 0.88766 0.0
H2004 H 0.79529 0.30709 0.99058 0.0
H2005 H 0.79052 0.27618 0.85499 0.0
H2006 H 0.81247 0.33622 0.92662 0.0
H2007 H 0.8076 0.25468 0.92501 0.0
C2008 C 0.80498 0.25818 0.96174 0.0
C2009 C 0.80129 0.27261 0.98065 0.0
C2010 C 0.80756 0.32306 0.9109 0.0
C2011 C 0.80176 0.28903 0.93609 0.0
C2012 C 0.80781 0.33111 0.88867 0.0
C2013 C 0.80156 0.31445 0.86799 0.0
C2014 C 0.80159 0.29813 0.91261 0.0
C2015 C 0.79521 0.28968 0.87043 0.0
C2016 C 0.80498 0.26619 0.93943 0.0
C2017 C 0.79816 0.29534 0.97654 0.0
N2018 N 0.7956 0.28226 0.89231 0.0
N2019 N 0.79862 0.30291 0.95481 0.0
H2020 H 0.07996 0.46579 0.177 0.0
H2021 H 0.03422 0.51065 0.07829 0.0
H2022 H 0.14107 0.50659 0.16253 0.0
H2023 H 0.08827 0.57321 0.1043 0.0
H2024 H 0.05172 0.48677 0.10412 0.0
H2025 H 0.06107 0.48169 0.14448 0.0
C2026 C 0.0894 0.47749 0.16647 0.0
C2027 C 0.1121 0.48481 0.17239 0.0
C2028 C 0.05969 0.50575 0.10426 0.0
C2029 C 0.09063 0.50348 0.13554 0.0
C2030 C 0.04974 0.5194 0.08955 0.0
C2031 C 0.05981 0.54399 0.08928 0.0
C2032 C 0.07992 0.51675 0.11872 0.0
C2033 C 0.08004 0.5543 0.10393 0.0
C2034 C 0.07861 0.48658 0.14792 0.0
C2035 C 0.12355 0.50029 0.1584 0.0
N2036 N 0.0895 0.54058 0.11802 0.0
N2037 N 0.11267 0.50958 0.14096 0.0
H2038 H 0.79505 0.90302 0.48596 0.0
H2039 H 0.85012 0.87347 0.3774 0.0
H2040 H 0.85396 0.8802 0.4943 0.0
H2041 H 0.78067 0.85984 0.36891 0.0
H2042 H 0.85307 0.88267 0.42013 0.0
H2043 H 0.79038 0.89302 0.44282 0.0
C2044 C 0.8069 0.89575 0.47877 0.0
C2045 C 0.82488 0.89234 0.49384 0.0
C2046 C 0.83719 0.87773 0.4089 0.0
C2047 C 0.81992 0.88152 0.44456 0.0
C2048 C 0.83549 0.87266 0.38446 0.0
C2049 C 0.81511 0.86588 0.36946 0.0
C2050 C 0.81843 0.87651 0.41852 0.0
C2051 C 0.79671 0.86493 0.37978 0.0
C2052 C 0.80422 0.89007 0.45418 0.0
C2053 C 0.83977 0.88298 0.48347 0.0
N2054 N 0.79881 0.87033 0.40364 0.0
N2055 N 0.83709 0.87817 0.45955 0.0
H2056 H 0.41968 0.59016 0.79007 0.0
H2057 H 0.52615 0.60248 0.88617 0.0
H2058 H 0.4823 0.58985 0.77398 0.0
H2059 H 0.46117 0.57779 0.89971 0.0
H2060 H 0.51129 0.61156 0.84737 0.0
H2061 H 0.43601 0.59899 0.83234 0.0
C2062 C 0.43694 0.59257 0.79541 0.0
C2063 C 0.44965 0.58888 0.7787 0.0
C2064 C 0.50032 0.60456 0.85902 0.0
C2065 C 0.4683 0.599 0.82658 0.0
C2066 C 0.50878 0.5995 0.88119 0.0
C2067 C 0.49481 0.58897 0.89594 0.0
C2068 C 0.47776 0.59908 0.85161 0.0
C2069 C 0.47243 0.5854 0.88859 0.0
C2070 C 0.4462 0.59748 0.81946 0.0
C2071 C 0.4719 0.59215 0.78642 0.0
N2072 N 0.46455 0.59016 0.86677 0.0
N2073 N 0.48049 0.59681 0.80984 0.0
H2074 H 0.81864 0.30231 0.10469 0.0
H2075 H 0.80807 0.28941 0.23982 0.0
H2076 H 0.81187 0.23417 0.13294 0.0
H2077 H 0.83443 0.35733 0.21503 0.0
H2078 H 0.8067 0.2683 0.20047 0.0
H2079 H 0.82195 0.32251 0.14462 0.0
C2080 C 0.818 0.2916 0.11927 0.0
C2081 C 0.81505 0.26647 0.11532 0.0
C2082 C 0.81285 0.28783 0.20372 0.0
C2083 C 0.81846 0.28952 0.16125 0.0
C2084 C 0.81361 0.29983 0.22616 0.0
C2085 C 0.82142 0.32513 0.23076 0.0
C2086 C 0.81963 0.3013 0.18566 0.0
C2087 C 0.82831 0.3378 0.21234 0.0
C2088 C 0.81987 0.30315 0.14212 0.0
C2089 C 0.81427 0.25359 0.13506 0.0
N2090 N 0.82714 0.32582 0.19066 0.0
N2091 N 0.81578 0.26519 0.15707 0.0
H2092 H 0.11752 0.45625 0.31715 0.0
H2093 H 0.02154 0.49482 0.36481 0.0
H2094 H 0.06164 0.46822 0.27353 0.0
H2095 H 0.07943 0.4895 0.40993 0.0
H2096 H 0.0312 0.47325 0.33178 0.0
H2097 H 0.0992 0.45636 0.3512 0.0
C2098 C 0.10112 0.45808 0.31459 0.0
C2099 C 0.0912 0.46272 0.29269 0.0
C2100 C 0.04163 0.47636 0.34898 0.0
C2101 C 0.07036 0.46318 0.33138 0.0
C2102 C 0.0361 0.48867 0.3678 0.0
C2103 C 0.04994 0.4943 0.38991 0.0
C2104 C 0.06138 0.47006 0.35218 0.0
C2105 C 0.06843 0.48563 0.39305 0.0
C2106 C 0.09074 0.45832 0.33404 0.0
C2107 C 0.07 0.46504 0.29027 0.0
N2108 N 0.07389 0.47438 0.37422 0.0
N2109 N 0.06043 0.46564 0.30946 0.0
H2110 H 0.80239 0.92008 0.63839 0.0
H2111 H 0.82824 0.82704 0.72671 0.0
H2112 H 0.83945 0.8706 0.6213 0.0
H2113 H 0.77224 0.85493 0.72371 0.0
H2114 H 0.83615 0.84593 0.69113 0.0
H2115 H 0.79475 0.89965 0.67272 0.0
C2116 C 0.80896 0.9049 0.64183 0.0
C2117 C 0.82158 0.89708 0.6268 0.0
C2118 C 0.82207 0.84776 0.69822 0.0
C2119 C 0.81301 0.87362 0.66656 0.0
C2120 C 0.81758 0.83705 0.71854 0.0
C2121 C 0.79946 0.83928 0.7281 0.0
C2122 C 0.80857 0.86116 0.68769 0.0
C2123 C 0.78628 0.85258 0.71687 0.0
C2124 C 0.80451 0.89317 0.66146 0.0
C2125 C 0.82955 0.87719 0.63228 0.0
N2126 N 0.79117 0.86311 0.69743 0.0
N2127 N 0.82529 0.86627 0.65181 0.0
H2128 H 0.79861 0.52208 0.60132 0.0
H2129 H 0.68851 0.54171 0.53163 0.0
H2130 H 0.7642 0.48017 0.53475 0.0
H2131 H 0.71952 0.57604 0.60221 0.0
H2132 H 0.71639 0.51992 0.53154 0.0
H2133 H 0.77042 0.5432 0.6008 0.0
C2134 C 0.78513 0.51732 0.58653 0.0
C2135 C 0.78381 0.49928 0.56804 0.0
C2136 C 0.71706 0.53222 0.54704 0.0
C2137 C 0.75128 0.52353 0.56736 0.0
C2138 C 0.70107 0.54459 0.54718 0.0
C2139 C 0.70159 0.56084 0.56697 0.0
C2140 C 0.7338 0.53612 0.5668 0.0
C2141 C 0.71855 0.56406 0.5864 0.0
C2142 C 0.76897 0.52939 0.58628 0.0
C2143 C 0.76589 0.49394 0.54938 0.0
N2144 N 0.73393 0.55186 0.5858 0.0
N2145 N 0.75034 0.50603 0.5495 0.0
H2146 H 0.22926 0.14754 0.52031 0.0
H2147 H 0.10803 0.14302 0.53468 0.0
H2148 H 0.20307 0.2093 0.51592 0.0
H2149 H 0.12675 0.07877 0.5138 0.0
H2150 H 0.14406 0.16768 0.53185 0.0
H2151 H 0.19293 0.122 0.52106 0.0
C2152 C 0.21587 0.15571 0.5193 0.0
C2153 C 0.21929 0.18066 0.51803 0.0
C2154 C 0.1403 0.14819 0.52786 0.0
C2155 C 0.17774 0.15156 0.51935 0.0
C2156 C 0.11977 0.13408 0.52961 0.0
C2157 C 0.11438 0.10879 0.52441 0.0
C2158 C 0.15572 0.13695 0.52121 0.0
C2159 C 0.13023 0.09821 0.51789 0.0
C2160 C 0.19514 0.14111 0.51975 0.0
C2161 C 0.20127 0.19018 0.5168 0.0
N2162 N 0.15022 0.11232 0.51657 0.0
N2163 N 0.18137 0.1757 0.51773 0.0
H2164 H 0.29648 0.09063 0.88897 0.0
H2165 H 0.29223 0.95372 0.88289 0.0
H2166 H 0.24053 0.03554 0.89795 0.0
H2167 H 0.34867 0.01074 0.87872 0.0
H2168 H 0.27669 0.98376 0.90068 0.0
H2169 H 0.31897 0.06322 0.89775 0.0
C2170 C 0.28906 0.07285 0.89335 0.0
C2171 C 0.26666 0.06503 0.8923 0.0
C2172 C 0.29275 0.98965 0.89652 0.0
C2173 C 0.29204 0.0332 0.90144 0.0
C2174 C 0.30167 0.97248 0.88648 0.0
C2175 C 0.32147 0.97995 0.87875 0.0
C2176 C 0.30369 0.01436 0.89859 0.0
C2177 C 0.33307 1.00439 0.88386 0.0
C2178 C 0.30188 0.05717 0.89836 0.0
C2179 C 0.25778 0.04205 0.8984 0.0
N2180 N 0.32381 0.0208 0.893 0.0
N2181 N 0.27043 0.02659 0.90206 0.0
H2182 H 0.39241 0.95713 0.02174 0.0
H2183 H 0.49516 0.06652 0.07901 0.0
H2184 H 0.38786 0.01531 0.07109 0.0
H2185 H 0.48939 0.02547 0.01119 0.0
H2186 H 0.4574 0.04529 0.07983 0.0
H2187 H 0.42974 0.97928 0.02107 0.0
C2188 C 0.39926 0.97456 0.03245 0.0
C2189 C 0.38697 0.98441 0.04646 0.0
C2190 C 0.46445 0.04105 0.06477 0.0
C2191 C 0.42979 1.00973 0.04594 0.0
C2192 C 0.486 0.05306 0.06433 0.0
C2193 C 0.49545 0.04781 0.04498 0.0
C2194 C 0.45247 0.02337 0.04595 0.0
C2195 C 0.48277 0.03024 0.02641 0.0
C2196 C 0.42055 0.98723 0.03199 0.0
C2197 C 0.39671 1.00712 0.05993 0.0
N2198 N 0.46202 0.01856 0.02744 0.0
N2199 N 0.41762 0.01895 0.05948 0.0
H2200 H 0.92318 0.71731 0.82761 0.0
H2201 H 0.84258 0.77382 0.74823 0.0
H2202 H 0.91384 0.70928 0.75135 0.0
H2203 H 0.83482 0.75944 0.8189 0.0
H2204 H 0.86824 0.74924 0.74896 0.0
H2205 H 0.89107 0.73286 0.82541 0.0
C2206 C 0.9144 0.71882 0.81045 0.0
C2207 C 0.92129 0.71224 0.78965 0.0
C2208 C 0.86063 0.75098 0.76416 0.0
C2209 C 0.88467 0.72976 0.78702 0.0
C2210 C 0.84592 0.76489 0.76367 0.0
C2211 C 0.83661 0.76843 0.78347 0.0
C2212 C 0.86652 0.74113 0.78488 0.0
C2213 C 0.84156 0.7568 0.8032 0.0
C2214 C 0.896 0.72746 0.8092 0.0
C2215 C 0.9092 0.71429 0.76786 0.0
N2216 N 0.85658 0.74398 0.80362 0.0
N2217 N 0.89162 0.72305 0.76714 0.0
H2218 H 0.8344 0.66063 0.06297 0.0
H2219 H 0.93615 0.6556 1.0018 0.0
H2220 H 0.85212 0.70354 1.00767 0.0
H2221 H 0.91558 0.6115 0.05526 0.0
H2222 H 0.90652 0.6745 1.00432 0.0
H2223 H 0.8647 0.6433 0.06067 0.0
C2224 C 0.84465 0.66641 0.05028 0.0
C2225 C 0.84063 0.68359 0.03546 0.0
C2226 C 0.90852 0.66071 0.01551 0.0
C2227 C 0.87565 0.66372 0.03277 0.0
C2228 C 0.92553 0.65001 0.0142 0.0
C2229 C 0.92836 0.6318 0.02826 0.0
C2230 C 0.89425 0.65324 0.03107 0.0
C2231 C 0.91389 0.62515 0.04379 0.0
C2232 C 0.86202 0.65648 0.04899 0.0
C2233 C 0.85457 0.69033 0.01941 0.0
N2234 N 0.89753 0.63582 0.04475 0.0
N2235 N 0.87146 0.6804 0.01849 0.0
H2236 H 0.21628 0.18726 0.84894 0.0
H2237 H 0.32743 0.28707 0.85414 0.0
H2238 H 0.27805 0.17585 0.87758 0.0
H2239 H 0.27442 0.27339 0.79489 0.0
H2240 H 0.30729 0.2524 0.87079 0.0
H2241 H 0.23533 0.22597 0.83757 0.0
C2242 C 0.23381 0.19318 0.85334 0.0
C2243 C 0.24568 0.17838 0.86409 0.0
C2244 C 0.30005 0.2572 0.85426 0.0
C2245 C 0.26734 0.22234 0.85127 0.0
C2246 C 0.31149 0.27687 0.84473 0.0
C2247 C 0.30246 0.28311 0.82317 0.0
C2248 C 0.27933 0.24402 0.84235 0.0
C2249 C 0.28178 0.26934 0.8117 0.0
C2250 C 0.24461 0.21508 0.84665 0.0
C2251 C 0.26836 0.18673 0.86918 0.0
N2252 N 0.27081 0.25045 0.8215 0.0
N2253 N 0.2785 0.2082 0.8627 0.0
H2254 H 0.42507 0.12009 0.26529 0.0
H2255 H 0.42823 0.99004 0.3023 0.0
H2256 H 0.48336 0.10055 0.293 0.0
H2257 H 0.3691 0.0117 0.28571 0.0
H2258 H 0.44836 0.02822 0.2917 0.0
H2259 H 0.40413 0.07812 0.26497 0.0
C2260 C 0.43351 0.10688 0.27084 0.0
C2261 C 0.45593 0.11384 0.27949 0.0
C2262 C 0.43096 0.02462 0.29024 0.0
C2263 C 0.43216 0.06607 0.27932 0.0
C2264 C 0.41949 1.00289 0.29645 0.0
C2265 C 0.39704 0.99793 0.29532 0.0
C2266 C 0.41994 0.04162 0.28292 0.0
C2267 C 0.38643 0.01489 0.28692 0.0
C2268 C 0.42154 0.083 0.27079 0.0
C2269 C 0.46605 0.09604 0.28651 0.0
N2270 N 0.39803 0.03616 0.28128 0.0
N2271 N 0.45407 0.07304 0.28646 0.0
H2272 H 0.57004 0.4134 0.62846 0.0
H2273 H 0.61013 0.527 0.5601 0.0
H2274 H 0.62721 0.42457 0.59696 0.0
H2275 H 0.54485 0.50376 0.57316 0.0
H2276 H 0.61752 0.49088 0.57532 0.0
H2277 H 0.56145 0.44783 0.61052 0.0
C2278 C 0.5808 0.42307 0.61778 0.0
C2279 C 0.5994 0.41603 0.61425 0.0
C2280 C 0.60152 0.49358 0.57469 0.0
C2281 C 0.58969 0.45563 0.59374 0.0
C2282 C 0.59728 0.51424 0.56599 0.0
C2283 C 0.5768 0.51851 0.56527 0.0
C2284 C 0.58531 0.47713 0.58313 0.0
C2285 C 0.56083 0.50122 0.5732 0.0
C2286 C 0.57583 0.44268 0.60747 0.0
C2287 C 0.61268 0.42927 0.60016 0.0
N2288 N 0.56548 0.48146 0.58198 0.0
N2289 N 0.60766 0.44847 0.59057 0.0
H2290 H 0.47147 0.85474 0.35279 0.0
H2291 H 0.34854 0.77646 0.30918 0.0
H2292 H 0.44606 0.78591 0.37667 0.0
H2293 H 0.37025 0.85288 0.30515 0.0
H2294 H 0.38498 0.77758 0.32974 0.0
H2295 H 0.43539 0.85227 0.33096 0.0
C2296 C 0.45834 0.83898 0.35331 0.0
C2297 C 0.46184 0.82049 0.36664 0.0
C2298 C 0.38175 0.79414 0.32445 0.0
C2299 C 0.42033 0.8176 0.34157 0.0
C2300 C 0.361 0.79351 0.31264 0.0
C2301 C 0.35634 0.81476 0.30577 0.0
C2302 C 0.39806 0.81612 0.32903 0.0
C2303 C 0.37305 0.8363 0.31065 0.0
C2304 C 0.43769 0.83767 0.34092 0.0
C2305 C 0.44411 0.80058 0.36667 0.0
N2306 N 0.39318 0.83644 0.32189 0.0
N2307 N 0.42412 0.79963 0.35429 0.0
H2308 H 0.10555 0.78842 0.09823 0.0
H2309 H 0.03375 0.65198 0.07984 0.0
H2310 H 0.05402 0.76586 0.13724 0.0
H2311 H 0.10212 0.67045 0.07803 0.0
H2312 H 0.03738 0.69445 0.09429 0.0
H2313 H 0.1006 0.74591 0.08311 0.0
C2314 C 0.09297 0.77458 0.10331 0.0
C2315 C 0.08018 0.78069 0.11904 0.0
C2316 C 0.05156 0.68911 0.09082 0.0
C2317 C 0.07444 0.73212 0.10174 0.0
C2318 C 0.04953 0.66493 0.0826 0.0
C2319 C 0.06771 0.65764 0.07794 0.0
C2320 C 0.07178 0.70621 0.09372 0.0
C2321 C 0.08775 0.67521 0.08169 0.0
C2322 C 0.09031 0.75034 0.09486 0.0
C2323 C 0.06427 0.76194 0.12521 0.0
N2324 N 0.0892 0.69873 0.08911 0.0
N2325 N 0.06177 0.73849 0.11647 0.0
H2326 H 0.09336 0.34491 0.90738 0.0
H2327 H 0.14805 0.29131 0.80777 0.0
H2328 H 0.05962 0.28547 0.85308 0.0
H2329 H 0.18425 0.34762 0.86415 0.0
H2330 H 0.11523 0.29052 0.82341 0.0
H2331 H 0.12636 0.34826 0.8907 0.0
C2332 C 0.09282 0.33274 0.89183 0.0
C2333 C 0.07369 0.31484 0.88166 0.0
C2334 C 0.13033 0.30306 0.83242 0.0
C2335 C 0.11138 0.31845 0.86263 0.0
C2336 C 0.14917 0.30338 0.82359 0.0
C2337 C 0.16908 0.31939 0.83476 0.0
C2338 C 0.13121 0.3189 0.85261 0.0
C2339 C 0.16928 0.33506 0.85486 0.0
C2340 C 0.11168 0.33459 0.8824 0.0
C2341 C 0.07397 0.29949 0.86159 0.0
N2342 N 0.15066 0.33437 0.86317 0.0
N2343 N 0.09248 0.30161 0.85282 0.0
H2344 H 0.51867 0.73951 0.95371 0.0
H2345 H 0.57148 0.67137 0.05364 0.0
H2346 H 0.57104 0.77521 0.01128 0.0
H2347 H 0.52897 0.63285 0.98936 0.0
H2348 H 0.56802 0.70948 0.0402 0.0
H2349 H 0.51872 0.70053 0.96833 0.0
C2350 C 0.52999 0.73923 0.96958 0.0
C2351 C 0.54488 0.76078 0.98126 0.0
C2352 C 0.55937 0.69274 0.029 0.0
C2353 C 0.54506 0.71613 0.99804 0.0
C2354 C 0.56129 0.67084 0.03671 0.0
C2355 C 0.55054 0.64868 0.02265 0.0
C2356 C 0.5465 0.69277 1.00701 0.0
C2357 C 0.53758 0.64941 1.00084 0.0
C2358 C 0.53009 0.71693 0.97782 0.0
C2359 C 0.55927 0.75917 1.00163 0.0
N2360 N 0.53594 0.67106 0.9937 0.0
N2361 N 0.559 0.73735 1.00931 0.0
H2362 H 0.13521 0.85895 0.72122 0.0
H2363 H 0.24241 0.81892 0.7246 0.0
H2364 H 0.15932 0.84558 0.65736 0.0
H2365 H 0.24111 0.87557 0.7776 0.0
H2366 H 0.20861 0.82299 0.70191 0.0
H2367 H 0.17091 0.86057 0.74454 0.0
C2368 C 0.14804 0.85659 0.7121 0.0
C2369 C 0.14426 0.85214 0.68727 0.0
C2370 C 0.21573 0.83456 0.71848 0.0
C2371 C 0.18477 0.85334 0.71383 0.0
C2372 C 0.23493 0.83215 0.73154 0.0
C2373 C 0.24455 0.84689 0.75307 0.0
C2374 C 0.20565 0.85138 0.72724 0.0
C2375 C 0.23423 0.86391 0.76105 0.0
C2376 C 0.16837 0.85758 0.72541 0.0
C2377 C 0.16149 0.84919 0.67641 0.0
N2378 N 0.21512 0.86548 0.74828 0.0
N2379 N 0.18084 0.84943 0.68975 0.0
H2380 H 0.06147 0.40919 0.45326 0.0
H2381 H 0.06065 0.50204 0.56438 0.0
H2382 H 0.03098 0.38843 0.51236 0.0
H2383 H 0.07591 0.52659 0.49908 0.0
H2384 H 0.05342 0.4602 0.54654 0.0
H2385 H 0.0703 0.45189 0.47044 0.0
C2386 C 0.0568 0.41354 0.46993 0.0
C2387 C 0.04548 0.39508 0.48138 0.0
C2388 C 0.05823 0.47463 0.53595 0.0
C2389 C 0.0556 0.44396 0.50117 0.0
C2390 C 0.06244 0.49858 0.54617 0.0
C2391 C 0.06849 0.51781 0.53301 0.0
C2392 C 0.06039 0.46962 0.51236 0.0
C2393 C 0.07068 0.51221 0.50956 0.0
C2394 C 0.06175 0.43795 0.47965 0.0
C2395 C 0.0397 0.40192 0.50284 0.0
N2396 N 0.06668 0.48862 0.49995 0.0
N2397 N 0.04487 0.42566 0.512 0.0
H2398 H 0.52026 0.36159 0.17395 0.0
H2399 H 0.453 0.33803 0.279 0.0
H2400 H 0.52879 0.31141 0.22394 0.0
H2401 H 0.43631 0.37811 0.22216 0.0
H2402 H 0.48218 0.33006 0.26023 0.0
H2403 H 0.49082 0.36974 0.19238 0.0
C2404 C 0.51598 0.35229 0.18879 0.0
C2405 C 0.52706 0.33577 0.19737 0.0
C2406 C 0.47215 0.34059 0.25183 0.0
C2407 C 0.49337 0.3451 0.21865 0.0
C2408 C 0.45553 0.34528 0.26262 0.0
C2409 C 0.44215 0.35883 0.25221 0.0
C2410 C 0.47565 0.34966 0.23048 0.0
C2411 C 0.44607 0.36741 0.23075 0.0
C2412 C 0.49912 0.35692 0.19929 0.0
C2413 C 0.52073 0.32426 0.21667 0.0
N2414 N 0.46248 0.36278 0.22067 0.0
N2415 N 0.50441 0.32919 0.22665 0.0
H2416 H 0.67185 0.57046 0.42796 0.0
H2417 H 0.59637 0.622 0.50218 0.0
H2418 H 0.65871 0.63987 0.42231 0.0
H2419 H 0.58349 0.54509 0.48208 0.0
H2420 H 0.62499 0.6292 0.47912 0.0
H2421 H 0.64503 0.56132 0.45411 0.0
C2422 C 0.66359 0.58388 0.43255 0.0
C2423 C 0.66741 0.60595 0.42308 0.0
C2424 C 0.61591 0.61073 0.47965 0.0
C2425 C 0.6371 0.59569 0.45258 0.0
C2426 C 0.59957 0.60657 0.4928 0.0
C2427 C 0.58749 0.5829 0.49382 0.0
C2428 C 0.62042 0.59109 0.46749 0.0
C2429 C 0.59235 0.5636 0.48143 0.0
C2430 C 0.64821 0.57855 0.44718 0.0
C2431 C 0.65618 0.62263 0.42922 0.0
N2432 N 0.60862 0.56811 0.46872 0.0
N2433 N 0.64158 0.61718 0.44363 0.0
H2434 H 0.31001 0.87327 0.09377 0.0
H2435 H 0.33268 0.9024 0.23516 0.0
H2436 H 0.32464 0.94501 0.13169 0.0
H2437 H 0.29806 0.83123 0.19916 0.0
H2438 H 0.33416 0.91724 0.19689 0.0
H2439 H 0.30925 0.85651 0.13169 0.0
C2440 C 0.31302 0.88549 0.10996 0.0
C2441 C 0.31731 0.91062 0.1094 0.0
C2442 C 0.32628 0.89835 0.19733 0.0
C2443 C 0.3168 0.89159 0.15282 0.0
C2444 C 0.32552 0.88979 0.21924 0.0
C2445 C 0.31518 0.86547 0.22054 0.0
C2446 C 0.31683 0.88252 0.17634 0.0
C2447 C 0.30613 0.85013 0.19911 0.0
C2448 C 0.31257 0.87591 0.13159 0.0
C2449 C 0.32114 0.92553 0.13106 0.0
N2450 N 0.3072 0.85888 0.17793 0.0
N2451 N 0.3209 0.91583 0.15174 0.0
H2452 H 0.04195 0.63624 0.86649 0.0
H2453 H 0.0761 0.6582 1.00414 0.0
H2454 H 0.02291 0.69294 0.90421 0.0
H2455 H 0.04694 0.58633 0.96704 0.0
H2456 H 0.06411 0.67518 0.96816 0.0
H2457 H 0.05249 0.62176 0.9039 0.0
C2458 C 0.04028 0.6459 0.88269 0.0
C2459 C 0.03156 0.66586 0.88228 0.0
C2460 C 0.06028 0.65573 0.96809 0.0
C2461 C 0.04371 0.64934 0.92506 0.0
C2462 C 0.06715 0.64606 0.98842 0.0
C2463 C 0.06257 0.62088 0.98834 0.0
C2464 C 0.04938 0.64003 0.94753 0.0
C2465 C 0.05081 0.60584 0.96773 0.0
C2466 C 0.04612 0.63745 0.90396 0.0
C2467 C 0.02956 0.67748 0.90383 0.0
N2468 N 0.0449 0.61566 0.94797 0.0
N2469 N 0.03577 0.66913 0.92452 0.0
H2470 H 0.27163 0.28567 0.59015 0.0
H2471 H 0.33768 0.30561 0.72236 0.0
H2472 H 0.32182 0.25042 0.61062 0.0
H2473 H 0.27085 0.30731 0.70677 0.0
H2474 H 0.33563 0.29218 0.68044 0.0
H2475 H 0.27502 0.30132 0.63185 0.0
C2476 C 0.28362 0.28158 0.60333 0.0
C2477 C 0.29646 0.2667 0.59688 0.0
C2478 C 0.32142 0.29544 0.68624 0.0
C2479 C 0.3004 0.28454 0.64453 0.0
C2480 C 0.32256 0.3031 0.71014 0.0
C2481 C 0.30434 0.30738 0.71813 0.0
C2482 C 0.30209 0.29261 0.67006 0.0
C2483 C 0.2852 0.30393 0.70144 0.0
C2484 C 0.28538 0.29031 0.62713 0.0
C2485 C 0.31156 0.26176 0.6148 0.0
N2486 N 0.28462 0.29694 0.67817 0.0
N2487 N 0.31316 0.27071 0.63776 0.0
H2488 H 0.70323 0.56522 0.28967 0.0
H2489 H 0.59192 0.5678 0.21176 0.0
H2490 H 0.64708 0.57294 0.31759 0.0
H2491 H 0.64854 0.56332 0.18323 0.0
H2492 H 0.60898 0.55917 0.24974 0.0
H2493 H 0.68072 0.55379 0.25013 0.0
C2494 C 0.68609 0.56401 0.28757 0.0
C2495 C 0.67711 0.57067 0.30678 0.0
C2496 C 0.61755 0.55965 0.23507 0.0
C2497 C 0.65139 0.55785 0.26177 0.0
C2498 C 0.60784 0.56466 0.21345 0.0
C2499 C 0.61905 0.56677 0.19455 0.0
C2500 C 0.63876 0.55711 0.23789 0.0
C2501 C 0.63941 0.562 0.19744 0.0
C2502 C 0.67325 0.55754 0.265 0.0
C2503 C 0.65478 0.56854 0.30313 0.0
N2504 N 0.64881 0.55785 0.21888 0.0
N2505 N 0.64276 0.56271 0.281 0.0
H2506 H 0.2977 0.92412 0.95938 0.0
H2507 H 0.29547 0.81041 0.86827 0.0
H2508 H 0.31843 0.86177 0.97925 0.0
H2509 H 0.29304 0.87893 0.8446 0.0
H2510 H 0.29942 0.82816 0.90897 0.0
H2511 H 0.29172 0.90727 0.91747 0.0
C2512 C 0.30072 0.90677 0.95498 0.0
C2513 C 0.30851 0.89429 0.97294 0.0
C2514 C 0.29814 0.83948 0.895 0.0
C2515 C 0.3017 0.87498 0.92507 0.0
C2516 C 0.29581 0.82931 0.87168 0.0
C2517 C 0.29432 0.84335 0.85304 0.0
C2518 C 0.29869 0.86394 0.89999 0.0
C2519 C 0.29471 0.8677 0.85856 0.0
C2520 C 0.29746 0.89728 0.93105 0.0
C2521 C 0.31241 0.87205 0.96612 0.0
N2522 N 0.29682 0.87727 0.88158 0.0
N2523 N 0.30891 0.86314 0.94287 0.0
H2524 H 0.05941 0.71355 0.78963 0.0
H2525 H 0.05086 0.699 0.65168 0.0
H2526 H 1.0056 0.72184 0.73949 0.0
H2527 H 0.10028 0.68209 0.70168 0.0
H2528 H 0.04125 0.72149 0.68402 0.0
H2529 H 0.08118 0.71704 0.75871 0.0
C2530 C 0.05231 0.71675 0.77229 0.0
C2531 C 0.03035 0.71642 0.7669 0.0
C2532 C 0.05456 0.71336 0.68783 0.0
C2533 C 0.05512 0.72007 0.73138 0.0
C2534 C 0.06005 0.70044 0.66934 0.0
C2535 C 0.07607 0.68807 0.67397 0.0
C2536 C 0.06495 0.71363 0.71115 0.0
C2537 C 0.0877 0.6911 0.6972 0.0
C2538 C 0.06477 0.71868 0.75461 0.0
C2539 C 0.02226 0.72124 0.74428 0.0
N2540 N 0.08158 0.70311 0.71498 0.0
N2541 N 0.03447 0.72222 0.72716 0.0
H2542 H 0.27724 0.30594 0.47266 0.0
H2543 H 0.31047 0.28569 0.34672 0.0
H2544 H 0.30186 0.24577 0.45264 0.0
H2545 H 0.31305 0.3565 0.37986 0.0
H2546 H 0.30247 0.26883 0.38304 0.0
H2547 H 0.28565 0.32296 0.4366 0.0
C2548 C 0.28443 0.2963 0.4607 0.0
C2549 C 0.28889 0.27439 0.46578 0.0
C2550 C 0.30481 0.28806 0.38237 0.0
C2551 C 0.29825 0.29365 0.42418 0.0
C2552 C 0.30928 0.29768 0.36161 0.0
C2553 C 0.31253 0.32258 0.36029 0.0
C2554 C 0.30313 0.30333 0.40184 0.0
C2555 C 0.31077 0.33724 0.38015 0.0
C2556 C 0.28927 0.30607 0.44014 0.0
C2557 C 0.29824 0.26275 0.44956 0.0
N2558 N 0.30607 0.3274 0.40003 0.0
N2559 N 0.30243 0.2724 0.42943 0.0
H2560 H 0.33839 0.64963 0.5639 0.0
H2561 H 0.4488 0.64886 0.51873 0.0
H2562 H 0.36751 0.70208 0.52107 0.0
H2563 H 0.41149 0.58932 0.54834 0.0
H2564 H 0.42063 0.66997 0.52136 0.0
H2565 H 0.3663 0.62867 0.56023 0.0
C2566 C 0.35066 0.65677 0.55369 0.0
C2567 C 0.35055 0.6777 0.54277 0.0
C2568 C 0.41858 0.65226 0.52721 0.0
C2569 C 0.3828 0.65371 0.53859 0.0
C2570 C 0.43472 0.64024 0.52584 0.0
C2571 C 0.43254 0.61721 0.53329 0.0
C2572 C 0.40018 0.64134 0.53636 0.0
C2573 C 0.41379 0.60687 0.54212 0.0
C2574 C 0.3666 0.64473 0.55157 0.0
C2575 C 0.36691 0.686 0.52975 0.0
N2576 N 0.39845 0.61903 0.5435 0.0
N2577 N 0.38241 0.67406 0.52811 0.0
H2578 H 0.88899 0.01598 0.58295 0.0
H2579 H 1.00248 0.02433 0.54079 0.0
H2580 H 0.90786 0.95426 0.55482 0.0
H2581 H 0.98725 0.08577 0.57488 0.0
H2582 H 0.96694 0.99892 0.54402 0.0
H2583 H 0.92407 0.04224 0.57891 0.0
C2584 C 0.90049 1.00791 0.576 0.0
C2585 C 0.89538 0.98279 0.56927 0.0
C2586 C 0.9713 0.01796 0.55077 0.0
C2587 C 0.93557 0.01284 0.56442 0.0
C2588 C 0.99159 0.03251 0.54886 0.0
C2589 C 0.99787 0.0572 0.55767 0.0
C2590 C 0.95706 0.02812 0.56153 0.0
C2591 C 0.98307 0.06681 0.56791 0.0
C2592 C 0.92052 0.02294 0.57367 0.0
C2593 C 0.91099 0.97346 0.56031 0.0
N2594 N 0.96338 0.05225 0.56961 0.0
N2595 N 0.93028 0.98844 0.55813 0.0
H2596 H 0.88813 0.11329 0.22652 0.0
H2597 H 0.78858 0.17231 0.20675 0.0
H2598 H 0.8357 0.08985 0.16627 0.0
H2599 H 0.84457 0.19826 0.26274 0.0
H2600 H 0.80484 0.14144 0.19167 0.0
H2601 H 0.87175 0.14422 0.24004 0.0
C2602 C 0.87315 0.11467 0.2161 0.0
C2603 C 0.86323 0.09896 0.19525 0.0
C2604 C 0.81357 0.15398 0.2072 0.0
C2605 C 0.84432 0.1344 0.2107 0.0
C2606 C 0.80426 0.17147 0.21585 0.0
C2607 C 0.8153 0.18789 0.23595 0.0
C2608 C 0.83395 0.15287 0.21886 0.0
C2609 C 0.83565 0.1862 0.24699 0.0
C2610 C 0.8638 0.13238 0.22383 0.0
C2611 C 0.84387 0.10163 0.18245 0.0
N2612 N 0.84428 0.16898 0.23833 0.0
N2613 N 0.83497 0.11902 0.19043 0.0
H2614 H 0.74177 0.15033 0.02667 0.0
H2615 H 0.62898 0.14833 0.06196 0.0
H2616 H 0.7228 0.21595 0.04116 0.0
H2617 H 0.63354 0.09263 1.00981 0.0
H2618 H 0.66561 0.17147 0.05961 0.0
H2619 H 0.70407 0.12679 0.02472 0.0
C2620 C 0.72967 0.15978 0.02927 0.0
C2621 C 0.73543 0.18515 0.0341 0.0
C2622 C 0.65856 0.15421 0.04864 0.0
C2623 C 0.69262 0.15838 0.03241 0.0
C2624 C 0.63774 0.14092 0.05008 0.0
C2625 C 0.62825 0.11852 0.03607 0.0
C2626 C 0.67022 0.14481 0.03352 0.0
C2627 C 0.64028 0.10988 0.02084 0.0
C2628 C 0.70822 0.14636 0.02809 0.0
C2629 C 0.71909 0.19646 0.0373 0.0
N2630 N 0.6608 0.12293 0.02015 0.0
N2631 N 0.69852 0.18299 0.03674 0.0
H2632 H 0.1768 0.42445 0.2736 0.0
H2633 H 0.29911 0.41524 0.28692 0.0
H2634 H 0.22422 0.46369 0.23615 0.0
H2635 H 0.24889 0.36345 0.31103 0.0
H2636 H 0.27305 0.43792 0.2746 0.0
H2637 H 0.20389 0.40534 0.29224 0.0
C2638 C 0.19283 0.42891 0.26918 0.0
C2639 C 0.19821 0.44556 0.25318 0.0
C2640 C 0.2678 0.42174 0.28284 0.0
C2641 C 0.22931 0.42426 0.27478 0.0
C2642 C 0.28275 0.40891 0.29013 0.0
C2643 C 0.27614 0.38724 0.29977 0.0
C2644 C 0.2461 0.41289 0.28526 0.0
C2645 C 0.25466 0.37994 0.30345 0.0
C2646 C 0.2083 0.41813 0.27991 0.0
C2647 C 0.21928 0.45084 0.24824 0.0
N2648 N 0.24034 0.39261 0.29595 0.0
N2649 N 0.23405 0.44029 0.25905 0.0
H2650 H 0.26561 0.46382 0.03847 0.0
H2651 H 0.21184 0.55954 0.09718 0.0
H2652 H 0.29584 0.51283 0.10233 0.0
H2653 H 0.18008 0.51068 0.0336 0.0
H2654 H 0.24256 0.54217 0.09919 0.0
H2655 H 0.23425 0.48068 0.03584 0.0
C2656 C 0.26571 0.47817 0.05187 0.0
C2657 C 0.28342 0.48691 0.07065 0.0
C2658 C 0.22887 0.53517 0.0848 0.0
C2659 C 0.24754 0.50618 0.06783 0.0
C2660 C 0.21118 0.54497 0.08375 0.0
C2661 C 0.1932 0.53654 0.06524 0.0
C2662 C 0.22875 0.51674 0.06721 0.0
C2663 C 0.19363 0.51794 0.04807 0.0
C2664 C 0.24778 0.48775 0.05039 0.0
C2665 C 0.2826 0.50549 0.08754 0.0
N2666 N 0.21109 0.50868 0.04947 0.0
N2667 N 0.26501 0.51444 0.08573 0.0
H2668 H 0.90166 0.99091 0.24419 0.0
H2669 H 0.79029 0.88855 0.23384 0.0
H2670 H 0.84842 0.97779 0.18511 0.0
H2671 H 0.83995 0.90872 0.29669 0.0
H2672 H 0.81245 0.91898 0.21437 0.0
H2673 H 0.8809 0.95765 0.26163 0.0
C2674 C 0.88571 0.98083 0.23469 0.0
C2675 C 0.87669 0.98735 0.21323 0.0
C2676 C 0.81851 0.91679 0.23242 0.0
C2677 C 0.85272 0.94939 0.23334 0.0
C2678 C 0.80582 0.89954 0.2436 0.0
C2679 C 0.81339 0.89613 0.26687 0.0
C2680 C 0.83892 0.93073 0.24461 0.0
C2681 C 0.83362 0.91074 0.27867 0.0
C2682 C 0.87382 0.96192 0.24477 0.0
C2683 C 0.856 0.9735 0.20172 0.0
N2684 N 0.84575 0.92739 0.26737 0.0
N2685 N 0.84464 0.9553 0.21203 0.0
H2686 H 0.71171 0.05118 0.7638 0.0
H2687 H 0.69751 0.18363 0.7832 0.0
H2688 H 0.65178 0.06601 0.77502 0.0
H2689 H 0.75899 0.16834 0.78092 0.0
H2690 H 0.68136 0.1408 0.78525 0.0
H2691 H 0.7303 0.09391 0.77527 0.0
C2692 C 0.7025 0.0634 0.76893 0.0
C2693 C 0.68009 0.05514 0.76802 0.0
C2694 C 0.69846 0.14685 0.78465 0.0
C2695 C 0.70124 0.1041 0.78099 0.0
C2696 C 0.70762 0.17124 0.78335 0.0
C2697 C 0.7295 0.17937 0.78155 0.0
C2698 C 0.71122 0.13049 0.78382 0.0
C2699 C 0.74204 0.16276 0.78226 0.0
C2700 C 0.71315 0.0878 0.77554 0.0
C2701 C 0.66904 0.07168 0.77522 0.0
N2702 N 0.73263 0.13901 0.783 0.0
N2703 N 0.67968 0.09549 0.78104 0.0
loop_
_geom_bond_atom_site_label_1
_geom_bond_atom_site_label_2
_geom_bond_distance
_geom_bond_site_symmetry_2
_ccdc_geom_bond_type
O0 Cd1 2.220 1_655 S
O0 C8 1.315 1_655 S
Cd1 O0 2.220 1_455 S
Cd1 O4 2.297 . S
Cd1 O5 2.439 . S
Cd1 O11 2.240 1_455 S
Cd2 O3 2.240 . S
Cd2 O10 2.223 1_455 S
Cd2 O12 2.297 1_455 S
Cd2 O13 2.439 . S
O3 Cd2 2.240 . S
O3 C8 1.279 . S
O4 Cd1 2.297 . S
O4 C6 1.247 . S
O5 Cd1 2.439 . S
O5 C6 1.208 . S
C6 O4 1.247 . S
C6 O5 1.208 . S
C7 O12 1.247 1_455 S
C7 O13 1.208 . S
C8 O0 1.315 1_455 S
C8 O3 1.279 . S
C9 O10 1.315 . S
C9 O11 1.279 . S
O10 Cd2 2.223 1_655 S
O10 C9 1.315 . S
O11 Cd1 2.240 1_655 S
O11 C9 1.279 . S
O12 Cd2 2.297 1_655 S
O12 C7 1.247 1_655 S
O13 Cd2 2.439 . S
O13 C7 1.208 . S
O14 Cd15 2.223 . S
O14 C22 1.315 . S
Cd15 O14 2.223 . S
Cd15 O18 2.297 . S
Cd15 O19 2.439 . S
Cd15 O25 2.240 . S
Cd16 O17 2.240 . S
Cd16 O24 2.223 . S
Cd16 O26 2.297 . S
Cd16 O27 2.439 . S
O17 Cd16 2.240 . S
O17 C22 1.279 . S
O18 Cd15 2.297 . S
O18 C20 1.247 . S
O19 Cd15 2.439 . S
O19 C20 1.208 . S
C20 O18 1.247 . S
C20 O19 1.208 . S
C21 O26 1.247 . S
C21 O27 1.208 . S
C22 O14 1.315 . S
C22 O17 1.279 . S
C23 O24 1.315 . S
C23 O25 1.279 . S
O24 Cd16 2.223 . S
O24 C23 1.315 . S
O25 Cd15 2.240 . S
O25 C23 1.279 . S
O26 Cd16 2.297 . S
O26 C21 1.247 . S
O27 Cd16 2.439 . S
O27 C21 1.208 . S
O28 Cd29 2.223 . S
O28 C36 1.315 . S
Cd29 O28 2.223 . S
Cd29 O32 2.297 . S
Cd29 O33 2.439 . S
Cd29 O39 2.240 . S
Cd30 O31 2.240 . S
Cd30 O38 2.223 . S
Cd30 O40 2.297 . S
Cd30 O41 2.439 . S
O31 Cd30 2.240 . S
O31 C36 1.279 . S
O32 Cd29 2.297 . S
O32 C34 1.247 . S
O33 Cd29 2.439 . S
O33 C34 1.208 . S
C34 O32 1.247 . S
C34 O33 1.208 . S
C35 O40 1.247 . S
C35 O41 1.208 . S
C36 O28 1.315 . S
C36 O31 1.279 . S
C37 O38 1.315 . S
C37 O39 1.279 . S
O38 Cd30 2.223 . S
O38 C37 1.315 . S
O39 Cd29 2.240 . S
O39 C37 1.279 . S
O40 Cd30 2.297 . S
O40 C35 1.247 . S
O41 Cd30 2.439 . S
O41 C35 1.208 . S
O42 Cd43 2.223 . S
O42 C50 1.315 . S
Cd43 O42 2.223 . S
Cd43 O46 2.297 . S
Cd43 O47 2.439 . S
Cd43 O53 2.240 . S
Cd44 O45 2.240 . S
Cd44 O52 2.223 . S
Cd44 O54 2.297 . S
Cd44 O55 2.439 . S
O45 Cd44 2.240 . S
O45 C50 1.279 . S
O46 Cd43 2.297 . S
O46 C48 1.247 . S
O47 Cd43 2.439 . S
O47 C48 1.208 . S
C48 O46 1.247 . S
C48 O47 1.208 . S
C49 O54 1.247 . S
C49 O55 1.208 . S
C50 O42 1.315 . S
C50 O45 1.279 . S
C51 O52 1.315 . S
C51 O53 1.279 . S
O52 Cd44 2.223 . S
O52 C51 1.315 . S
O53 Cd43 2.240 . S
O53 C51 1.279 . S
O54 Cd44 2.297 . S
O54 C49 1.247 . S
O55 Cd44 2.439 . S
O55 C49 1.208 . S
O56 Cd57 2.223 . S
O56 C64 1.315 . S
Cd57 O56 2.223 . S
Cd57 O60 2.297 . S
Cd57 O61 2.439 . S
Cd57 O67 2.240 . S
Cd58 O59 2.240 . S
Cd58 O66 2.223 . S
Cd58 O68 2.297 . S
Cd58 O69 2.439 . S
O59 Cd58 2.240 . S
O59 C64 1.279 . S
O60 Cd57 2.297 . S
O60 C62 1.247 . S
O61 Cd57 2.439 . S
O61 C62 1.208 . S
C62 O60 1.247 . S
C62 O61 1.208 . S
C63 O68 1.247 . S
C63 O69 1.208 . S
C64 O56 1.315 . S
C64 O59 1.279 . S
C65 O66 1.315 . S
C65 O67 1.279 . S
O66 Cd58 2.223 . S
O66 C65 1.315 . S
O67 Cd57 2.240 . S
O67 C65 1.279 . S
O68 Cd58 2.297 . S
O68 C63 1.247 . S
O69 Cd58 2.439 . S
O69 C63 1.208 . S
O70 Cd71 2.223 . S
O70 C78 1.315 . S
Cd71 O70 2.223 . S
Cd71 O74 2.297 . S
Cd71 O75 2.439 . S
Cd71 O81 2.240 . S
Cd72 O73 2.240 . S
Cd72 O80 2.223 . S
Cd72 O82 2.297 . S
Cd72 O83 2.439 . S
O73 Cd72 2.240 . S
O73 C78 1.279 . S
O74 Cd71 2.297 . S
O74 C76 1.247 . S
O75 Cd71 2.439 . S
O75 C76 1.208 . S
C76 O74 1.247 . S
C76 O75 1.208 . S
C77 O82 1.247 . S
C77 O83 1.208 . S
C78 O70 1.315 . S
C78 O73 1.279 . S
C79 O80 1.315 . S
C79 O81 1.279 . S
O80 Cd72 2.223 . S
O80 C79 1.315 . S
O81 Cd71 2.240 . S
O81 C79 1.279 . S
O82 Cd72 2.297 . S
O82 C77 1.247 . S
O83 Cd72 2.439 . S
O83 C77 1.208 . S
O84 Cd85 2.223 . S
O84 C92 1.315 . S
Cd85 O84 2.223 . S
Cd85 O88 2.297 . S
Cd85 O89 2.439 . S
Cd85 O95 2.240 . S
Cd86 O87 2.240 . S
Cd86 O94 2.223 . S
Cd86 O96 2.297 . S
Cd86 O97 2.439 . S
O87 Cd86 2.240 . S
O87 C92 1.279 . S
O88 Cd85 2.297 . S
O88 C90 1.247 . S
O89 Cd85 2.439 . S
O89 C90 1.208 . S
C90 O88 1.247 . S
C90 O89 1.208 . S
C91 O96 1.247 . S
C91 O97 1.208 . S
C92 O84 1.315 . S
C92 O87 1.279 . S
C93 O94 1.315 . S
C93 O95 1.279 . S
O94 Cd86 2.223 . S
O94 C93 1.315 . S
O95 Cd85 2.240 . S
O95 C93 1.279 . S
O96 Cd86 2.297 . S
O96 C91 1.247 . S
O97 Cd86 2.439 . S
O97 C91 1.208 . S
O98 Cd99 2.223 . S
O98 C106 1.315 . S
Cd99 O98 2.223 . S
Cd99 O102 2.297 . S
Cd99 O103 2.439 . S
Cd99 O109 2.242 1_455 S
Cd100 O101 2.240 . S
Cd100 O108 2.223 1_455 S
Cd100 O110 2.297 . S
Cd100 O111 2.439 . S
O101 Cd100 2.240 . S
O101 C106 1.279 . S
O102 Cd99 2.297 . S
O102 C104 1.247 . S
O103 Cd99 2.439 . S
O103 C104 1.208 . S
C104 O102 1.247 . S
C104 O103 1.208 . S
C105 O110 1.247 . S
C105 O111 1.208 . S
C106 O98 1.315 . S
C106 O101 1.279 . S
C107 O108 1.315 . S
C107 O109 1.277 . S
O108 Cd100 2.223 1_655 S
O108 C107 1.315 . S
O109 Cd99 2.242 1_655 S
O109 C107 1.277 . S
O110 Cd100 2.297 . S
O110 C105 1.247 . S
O111 Cd100 2.439 . S
O111 C105 1.208 . S
O112 Cd113 2.223 . S
O112 C120 1.315 . S
Cd113 O112 2.223 . S
Cd113 O116 2.297 . S
Cd113 O117 2.439 . S
Cd113 O123 2.240 . S
Cd114 O115 2.240 . S
Cd114 O122 2.223 . S
Cd114 O124 2.297 . S
Cd114 O125 2.439 . S
O115 Cd114 2.240 . S
O115 C120 1.279 . S
O116 Cd113 2.297 . S
O116 C118 1.247 . S
O117 Cd113 2.439 . S
O117 C118 1.208 . S
C118 O116 1.247 . S
C118 O117 1.208 . S
C119 O124 1.247 . S
C119 O125 1.208 . S
C120 O112 1.315 . S
C120 O115 1.279 . S
C121 O122 1.315 . S
C121 O123 1.279 . S
O122 Cd114 2.223 . S
O122 C121 1.315 . S
O123 Cd113 2.240 . S
O123 C121 1.279 . S
O124 Cd114 2.297 . S
O124 C119 1.247 . S
O125 Cd114 2.439 . S
O125 C119 1.208 . S
O126 Cd127 2.223 . S
O126 C134 1.315 . S
Cd127 O126 2.223 . S
Cd127 O130 2.297 . S
Cd127 O131 2.439 . S
Cd127 O137 2.240 . S
Cd128 O129 2.240 . S
Cd128 O136 2.223 . S
Cd128 O138 2.297 . S
Cd128 O139 2.439 . S
O129 Cd128 2.240 . S
O129 C134 1.279 . S
O130 Cd127 2.297 . S
O130 C132 1.247 . S
O131 Cd127 2.439 . S
O131 C132 1.208 . S
C132 O130 1.247 . S
C132 O131 1.208 . S
C133 O138 1.247 . S
C133 O139 1.208 . S
C134 O126 1.315 . S
C134 O129 1.279 . S
C135 O136 1.315 . S
C135 O137 1.279 . S
O136 Cd128 2.223 . S
O136 C135 1.315 . S
O137 Cd127 2.240 . S
O137 C135 1.279 . S
O138 Cd128 2.297 . S
O138 C133 1.247 . S
O139 Cd128 2.439 . S
O139 C133 1.208 . S
O140 Cd141 2.223 . S
O140 C148 1.315 . S
Cd141 O140 2.223 . S
Cd141 O144 2.297 . S
Cd141 O145 2.439 . S
Cd141 O151 2.240 . S
Cd142 O143 2.240 . S
Cd142 O150 2.223 . S
Cd142 O152 2.297 . S
Cd142 O153 2.439 . S
O143 Cd142 2.240 . S
O143 C148 1.279 . S
O144 Cd141 2.297 . S
O144 C146 1.247 . S
O145 Cd141 2.439 . S
O145 C146 1.208 . S
C146 O144 1.247 . S
C146 O145 1.208 . S
C147 O152 1.247 . S
C147 O153 1.208 . S
C148 O140 1.315 . S
C148 O143 1.279 . S
C149 O150 1.315 . S
C149 O151 1.279 . S
O150 Cd142 2.223 . S
O150 C149 1.315 . S
O151 Cd141 2.240 . S
O151 C149 1.279 . S
O152 Cd142 2.297 . S
O152 C147 1.247 . S
O153 Cd142 2.439 . S
O153 C147 1.208 . S
O154 Cd155 2.223 . S
O154 C162 1.315 . S
Cd155 O154 2.223 . S
Cd155 O158 2.297 . S
Cd155 O159 2.439 . S
Cd155 O165 2.240 . S
Cd156 O157 2.240 . S
Cd156 O164 2.223 . S
Cd156 O166 2.299 1_554 S
Cd156 O167 2.439 . S
O157 Cd156 2.240 . S
O157 C162 1.279 . S
O158 Cd155 2.297 . S
O158 C160 1.247 . S
O159 Cd155 2.439 . S
O159 C160 1.208 . S
C160 O158 1.247 . S
C160 O159 1.208 . S
C161 O166 1.247 . S
C161 O167 1.208 1_556 S
C162 O154 1.315 . S
C162 O157 1.279 . S
C163 O164 1.315 . S
C163 O165 1.279 . S
O164 Cd156 2.223 . S
O164 C163 1.315 . S
O165 Cd155 2.240 . S
O165 C163 1.279 . S
O166 Cd156 2.299 1_556 S
O166 C161 1.247 . S
O167 Cd156 2.439 . S
O167 C161 1.208 1_554 S
O168 Cd169 2.223 . S
O168 C176 1.315 . S
Cd169 O168 2.223 . S
Cd169 O172 2.297 . S
Cd169 O173 2.439 . S
Cd169 O179 2.240 . S
Cd170 O171 2.240 . S
Cd170 O178 2.223 . S
Cd170 O180 2.297 1_554 S
Cd170 O181 2.439 1_554 S
O171 Cd170 2.240 . S
O171 C176 1.279 . S
O172 Cd169 2.297 . S
O172 C174 1.247 . S
O173 Cd169 2.439 . S
O173 C174 1.208 . S
C174 O172 1.247 . S
C174 O173 1.208 . S
C175 O180 1.247 . S
C175 O181 1.208 . S
C176 O168 1.315 . S
C176 O171 1.279 . S
C177 O178 1.315 . S
C177 O179 1.279 . S
O178 Cd170 2.223 . S
O178 C177 1.315 . S
O179 Cd169 2.240 . S
O179 C177 1.279 . S
O180 Cd170 2.297 1_556 S
O180 C175 1.247 . S
O181 Cd170 2.439 1_556 S
O181 C175 1.208 . S
O182 Cd183 2.223 . S
O182 C190 1.315 . S
Cd183 O182 2.223 . S
Cd183 O186 2.297 . S
Cd183 O187 2.439 1_554 S
Cd183 O193 2.240 1_554 S
Cd184 O185 2.240 1_556 S
Cd184 O192 2.208 1_556 S
Cd184 O194 2.297 . S
Cd184 O195 2.439 . S
O185 Cd184 2.240 1_554 S
O185 C190 1.279 . S
O186 Cd183 2.297 . S
O186 C188 1.247 . S
O187 Cd183 2.439 1_556 S
O187 C188 1.208 1_556 S
C188 O186 1.247 . S
C188 O187 1.208 1_554 S
C189 O194 1.247 . S
C189 O195 1.208 . S
C190 O182 1.315 . S
C190 O185 1.279 . S
C191 O192 1.313 1_556 S
C191 O193 1.279 . S
O192 Cd184 2.208 1_554 S
O192 C191 1.313 1_554 S
O193 Cd183 2.240 1_556 S
O193 C191 1.279 . S
O194 Cd184 2.297 . S
O194 C189 1.247 . S
O195 Cd184 2.439 . S
O195 C189 1.208 . S
O196 Cd197 2.223 . S
O196 C204 1.315 . S
Cd197 O196 2.223 . S
Cd197 O200 2.297 . S
Cd197 O201 2.439 . S
Cd197 O207 2.240 . S
Cd198 O199 2.240 . S
Cd198 O206 2.223 . S
Cd198 O208 2.297 . S
Cd198 O209 2.439 . S
O199 Cd198 2.240 . S
O199 C204 1.279 . S
O200 Cd197 2.297 . S
O200 C202 1.247 . S
O201 Cd197 2.439 . S
O201 C202 1.208 . S
C202 O200 1.247 . S
C202 O201 1.208 . S
C203 O208 1.247 . S
C203 O209 1.208 . S
C204 O196 1.315 . S
C204 O199 1.279 . S
C205 O206 1.315 . S
C205 O207 1.279 . S
O206 Cd198 2.223 . S
O206 C205 1.315 . S
O207 Cd197 2.240 . S
O207 C205 1.279 . S
O208 Cd198 2.297 . S
O208 C203 1.247 . S
O209 Cd198 2.439 . S
O209 C203 1.208 . S
O210 Cd211 2.223 . S
O210 C218 1.315 . S
Cd211 O210 2.223 . S
Cd211 O214 2.297 . S
Cd211 O215 2.439 . S
Cd211 O221 2.240 . S
Cd212 O213 2.240 . S
Cd212 O220 2.223 . S
Cd212 O222 2.297 . S
Cd212 O223 2.439 . S
O213 Cd212 2.240 . S
O213 C218 1.279 . S
O214 Cd211 2.297 . S
O214 C216 1.247 . S
O215 Cd211 2.439 . S
O215 C216 1.208 . S
C216 O214 1.247 . S
C216 O215 1.208 . S
C217 O222 1.247 . S
C217 O223 1.208 . S
C218 O210 1.315 . S
C218 O213 1.279 . S
C219 O220 1.315 . S
C219 O221 1.279 . S
O220 Cd212 2.223 . S
O220 C219 1.315 . S
O221 Cd211 2.240 . S
O221 C219 1.279 . S
O222 Cd212 2.297 . S
O222 C217 1.247 . S
O223 Cd212 2.439 . S
O223 C217 1.208 . S
O224 Cd225 2.223 . S
O224 C232 1.315 . S
Cd225 O224 2.223 . S
Cd225 O228 2.297 . S
Cd225 O229 2.439 . S
Cd225 O235 2.240 . S
Cd226 O227 2.240 . S
Cd226 O234 2.223 1_545 S
Cd226 O236 2.297 . S
Cd226 O237 2.439 . S
O227 Cd226 2.240 . S
O227 C232 1.279 . S
O228 Cd225 2.297 . S
O228 C230 1.247 . S
O229 Cd225 2.439 . S
O229 C230 1.208 . S
C230 O228 1.247 . S
C230 O229 1.208 . S
C231 O236 1.247 . S
C231 O237 1.208 . S
C232 O224 1.315 . S
C232 O227 1.279 . S
C233 O234 1.315 . S
C233 O235 1.279 1_565 S
O234 Cd226 2.223 1_565 S
O234 C233 1.315 . S
O235 Cd225 2.240 . S
O235 C233 1.279 1_545 S
O236 Cd226 2.297 . S
O236 C231 1.247 . S
O237 Cd226 2.439 . S
O237 C231 1.208 . S
O238 Cd239 2.223 . S
O238 C246 1.315 . S
Cd239 O238 2.223 . S
Cd239 O242 2.297 . S
Cd239 O243 2.439 . S
Cd239 O249 2.240 . S
Cd240 O241 2.240 . S
Cd240 O248 2.223 . S
Cd240 O250 2.297 . S
Cd240 O251 2.439 . S
O241 Cd240 2.240 . S
O241 C246 1.279 . S
O242 Cd239 2.297 . S
O242 C244 1.247 . S
O243 Cd239 2.439 . S
O243 C244 1.208 . S
C244 O242 1.247 . S
C244 O243 1.208 . S
C245 O250 1.247 . S
C245 O251 1.208 . S
C246 O238 1.315 . S
C246 O241 1.279 . S
C247 O248 1.315 . S
C247 O249 1.279 . S
O248 Cd240 2.223 . S
O248 C247 1.315 . S
O249 Cd239 2.240 . S
O249 C247 1.279 . S
O250 Cd240 2.297 . S
O250 C245 1.247 . S
O251 Cd240 2.439 . S
O251 C245 1.208 . S
O252 Cd253 2.223 . S
O252 C260 1.315 . S
Cd253 O252 2.223 . S
Cd253 O256 2.297 . S
Cd253 O257 2.439 . S
Cd253 O263 2.240 . S
Cd254 O255 2.240 . S
Cd254 O262 2.223 . S
Cd254 O264 2.297 . S
Cd254 O265 2.439 . S
O255 Cd254 2.240 . S
O255 C260 1.279 . S
O256 Cd253 2.297 . S
O256 C258 1.247 . S
O257 Cd253 2.439 . S
O257 C258 1.208 . S
C258 O256 1.247 . S
C258 O257 1.208 . S
C259 O264 1.247 . S
C259 O265 1.208 . S
C260 O252 1.315 . S
C260 O255 1.279 . S
C261 O262 1.315 . S
C261 O263 1.279 . S
O262 Cd254 2.223 . S
O262 C261 1.315 . S
O263 Cd253 2.240 . S
O263 C261 1.279 . S
O264 Cd254 2.297 . S
O264 C259 1.247 . S
O265 Cd254 2.439 . S
O265 C259 1.208 . S
O266 Cd267 2.223 1_545 S
O266 C274 1.315 1_545 S
Cd267 O266 2.223 1_565 S
Cd267 O270 2.297 . S
Cd267 O271 2.439 . S
Cd267 O277 2.240 1_565 S
Cd268 O269 2.240 1_545 S
Cd268 O276 2.223 . S
Cd268 O278 2.297 . S
Cd268 O279 2.439 1_545 S
O269 Cd268 2.240 1_565 S
O269 C274 1.279 . S
O270 Cd267 2.297 . S
O270 C272 1.247 . S
O271 Cd267 2.439 . S
O271 C272 1.208 . S
C272 O270 1.247 . S
C272 O271 1.208 . S
C273 O278 1.247 . S
C273 O279 1.208 1_545 S
C274 O266 1.315 1_565 S
C274 O269 1.279 . S
C275 O276 1.315 . S
C275 O277 1.279 . S
O276 Cd268 2.223 . S
O276 C275 1.315 . S
O277 Cd267 2.240 1_545 S
O277 C275 1.279 . S
O278 Cd268 2.297 . S
O278 C273 1.247 . S
O279 Cd268 2.439 1_565 S
O279 C273 1.208 1_565 S
O280 Cd281 2.223 . S
O280 C288 1.315 . S
Cd281 O280 2.223 . S
Cd281 O284 2.297 . S
Cd281 O285 2.439 . S
Cd281 O291 2.240 . S
Cd282 O283 2.240 . S
Cd282 O290 2.223 . S
Cd282 O292 2.297 1_554 S
Cd282 O293 2.439 1_554 S
O283 Cd282 2.240 . S
O283 C288 1.279 . S
O284 Cd281 2.297 . S
O284 C286 1.247 . S
O285 Cd281 2.439 . S
O285 C286 1.208 . S
C286 O284 1.247 . S
C286 O285 1.208 . S
C287 O292 1.247 . S
C287 O293 1.208 . S
C288 O280 1.315 . S
C288 O283 1.279 . S
C289 O290 1.315 . S
C289 O291 1.279 . S
O290 Cd282 2.223 . S
O290 C289 1.315 . S
O291 Cd281 2.240 . S
O291 C289 1.279 . S
O292 Cd282 2.297 1_556 S
O292 C287 1.247 . S
O293 Cd282 2.439 1_556 S
O293 C287 1.208 . S
O294 Cd295 2.223 . S
O294 C302 1.315 . S
Cd295 O294 2.223 . S
Cd295 O298 2.297 . S
Cd295 O299 2.439 . S
Cd295 O305 2.240 . S
Cd296 O297 2.240 . S
Cd296 O304 2.223 . S
Cd296 O306 2.297 . S
Cd296 O307 2.439 . S
O297 Cd296 2.240 . S
O297 C302 1.279 . S
O298 Cd295 2.297 . S
O298 C300 1.247 . S
O299 Cd295 2.439 . S
O299 C300 1.208 . S
C300 O298 1.247 . S
C300 O299 1.208 . S
C301 O306 1.247 . S
C301 O307 1.208 . S
C302 O294 1.315 . S
C302 O297 1.279 . S
C303 O304 1.315 . S
C303 O305 1.279 . S
O304 Cd296 2.223 . S
O304 C303 1.315 . S
O305 Cd295 2.240 . S
O305 C303 1.279 . S
O306 Cd296 2.297 . S
O306 C301 1.247 . S
O307 Cd296 2.439 . S
O307 C301 1.208 . S
O308 Cd309 2.223 . S
O308 C316 1.315 . S
Cd309 O308 2.223 . S
Cd309 O312 2.297 . S
Cd309 O313 2.439 . S
Cd309 O319 2.240 . S
Cd310 O311 2.240 . S
Cd310 O318 2.223 . S
Cd310 O320 2.297 . S
Cd310 O321 2.439 . S
O311 Cd310 2.240 . S
O311 C316 1.279 . S
O312 Cd309 2.297 . S
O312 C314 1.247 . S
O313 Cd309 2.439 . S
O313 C314 1.208 . S
C314 O312 1.247 . S
C314 O313 1.208 . S
C315 O320 1.247 . S
C315 O321 1.208 . S
C316 O308 1.315 . S
C316 O311 1.279 . S
C317 O318 1.315 . S
C317 O319 1.279 . S
O318 Cd310 2.223 . S
O318 C317 1.315 . S
O319 Cd309 2.240 . S
O319 C317 1.279 . S
O320 Cd310 2.297 . S
O320 C315 1.247 . S
O321 Cd310 2.439 . S
O321 C315 1.208 . S
O322 Cd323 2.223 . S
O322 C330 1.315 . S
Cd323 O322 2.223 . S
Cd323 O326 2.297 . S
Cd323 O327 2.439 . S
Cd323 O333 2.240 . S
Cd324 O325 2.240 . S
Cd324 O332 2.223 . S
Cd324 O334 2.297 . S
Cd324 O335 2.439 . S
O325 Cd324 2.240 . S
O325 C330 1.279 . S
O326 Cd323 2.297 . S
O326 C328 1.247 . S
O327 Cd323 2.439 . S
O327 C328 1.208 . S
C328 O326 1.247 . S
C328 O327 1.208 . S
C329 O334 1.247 . S
C329 O335 1.208 . S
C330 O322 1.315 . S
C330 O325 1.279 . S
C331 O332 1.315 . S
C331 O333 1.279 . S
O332 Cd324 2.223 . S
O332 C331 1.315 . S
O333 Cd323 2.240 . S
O333 C331 1.279 . S
O334 Cd324 2.297 . S
O334 C329 1.247 . S
O335 Cd324 2.439 . S
O335 C329 1.208 . S
Pr336 C338 2.880 1_455 S
Pr336 O356 2.562 1_455 S
Pr336 O357 2.490 1_454 S
Pr336 O358 2.695 . S
Pr336 O359 2.512 1_554 S
Pr336 O361 2.437 . S
Pr336 O364 2.436 . S
Pr336 O366 2.438 . S
Pr337 C347 2.880 . S
Pr337 O358 2.436 . S
Pr337 O360 2.438 . S
Pr337 O362 2.562 . S
Pr337 O363 2.490 . S
Pr337 O364 2.695 . S
Pr337 O365 2.512 . S
Pr337 O367 2.437 . S
C338 Pr336 2.880 1_655 S
C338 C339 1.491 1_554 S
C338 O356 1.254 . S
C338 O357 1.225 1_554 S
C339 C338 1.491 1_556 S
C339 C340 1.392 . S
C339 C344 1.356 1_556 S
C340 C339 1.392 . S
C340 C341 1.368 . S
C340 H368 0.929 . S
C341 C340 1.368 . S
C341 C342 1.386 . S
C341 H369 0.929 . S
C342 C341 1.386 . S
C342 C343 1.373 1_556 S
C343 C342 1.373 1_554 S
C343 C344 1.409 . S
C343 H370 0.931 . S
C344 C339 1.356 1_554 S
C344 C343 1.409 . S
C344 H371 0.930 . S
C345 O358 1.267 1_556 S
C345 O359 1.250 . S
C346 O360 1.267 . S
C346 O361 1.278 . S
C347 Pr337 2.880 . S
C347 C348 1.491 . S
C347 O362 1.254 . S
C347 O363 1.225 . S
C348 C347 1.491 . S
C348 C349 1.392 . S
C348 C353 1.356 . S
C349 C348 1.392 . S
C349 C350 1.368 . S
C349 H372 0.929 . S
C350 C349 1.368 . S
C350 C351 1.386 . S
C350 H373 0.929 . S
C351 C350 1.386 . S
C351 C352 1.373 . S
C352 C351 1.373 . S
C352 C353 1.409 . S
C352 H374 0.931 . S
C353 C348 1.356 . S
C353 C352 1.409 . S
C353 H375 0.930 . S
C354 O364 1.270 . S
C354 O365 1.248 . S
C355 O366 1.267 . S
C355 O367 1.278 . S
O356 Pr336 2.562 1_655 S
O356 C338 1.254 . S
O357 Pr336 2.490 1_656 S
O357 C338 1.225 1_556 S
O358 Pr336 2.695 . S
O358 Pr337 2.436 . S
O358 C345 1.267 1_554 S
O359 Pr336 2.512 1_556 S
O359 C345 1.250 . S
O360 Pr337 2.438 . S
O360 C346 1.267 . S
O361 Pr336 2.437 . S
O361 C346 1.278 . S
O362 Pr337 2.562 . S
O362 C347 1.254 . S
O363 Pr337 2.490 . S
O363 C347 1.225 . S
O364 Pr336 2.436 . S
O364 Pr337 2.695 . S
O364 C354 1.270 . S
O365 Pr337 2.512 . S
O365 C354 1.248 . S
O366 Pr336 2.438 . S
O366 C355 1.267 . S
O367 Pr337 2.437 . S
O367 C355 1.278 . S
H368 C340 0.929 . S
H369 C341 0.929 . S
H370 C343 0.931 . S
H371 C344 0.930 . S
H372 C349 0.929 . S
H373 C350 0.929 . S
H374 C352 0.931 . S
H375 C353 0.930 . S
Pr376 C378 2.880 . S
Pr376 O396 2.562 . S
Pr376 O397 2.490 . S
Pr376 O398 2.695 . S
Pr376 O399 2.512 . S
Pr376 O401 2.437 . S
Pr376 O404 2.436 . S
Pr376 O406 2.438 . S
Pr377 C387 2.880 . S
Pr377 O398 2.436 . S
Pr377 O400 2.438 . S
Pr377 O402 2.562 . S
Pr377 O403 2.490 . S
Pr377 O404 2.695 . S
Pr377 O405 2.512 . S
Pr377 O407 2.437 . S
C378 Pr376 2.880 . S
C378 C379 1.491 . S
C378 O396 1.254 . S
C378 O397 1.225 . S
C379 C378 1.491 . S
C379 C380 1.392 . S
C379 C384 1.356 . S
C380 C379 1.392 . S
C380 C381 1.368 . S
C380 H408 0.929 . S
C381 C380 1.368 . S
C381 C382 1.386 . S
C381 H409 0.929 . S
C382 C381 1.386 . S
C382 C383 1.373 . S
C383 C382 1.373 . S
C383 C384 1.409 . S
C383 H410 0.931 . S
C384 C379 1.356 . S
C384 C383 1.409 . S
C384 H411 0.930 . S
C385 O398 1.270 . S
C385 O399 1.248 . S
C386 O400 1.267 . S
C386 O401 1.278 . S
C387 Pr377 2.880 . S
C387 C388 1.491 . S
C387 O402 1.254 . S
C387 O403 1.225 . S
C388 C387 1.491 . S
C388 C389 1.392 . S
C388 C393 1.356 . S
C389 C388 1.392 . S
C389 C390 1.368 . S
C389 H412 0.929 . S
C390 C389 1.368 . S
C390 C391 1.386 . S
C390 H413 0.929 . S
C391 C390 1.386 . S
C391 C392 1.373 . S
C392 C391 1.373 . S
C392 C393 1.409 . S
C392 H414 0.931 . S
C393 C388 1.356 . S
C393 C392 1.409 . S
C393 H415 0.930 . S
C394 O404 1.270 . S
C394 O405 1.248 . S
C395 O406 1.267 . S
C395 O407 1.278 . S
O396 Pr376 2.562 . S
O396 C378 1.254 . S
O397 Pr376 2.490 . S
O397 C378 1.225 . S
O398 Pr376 2.695 . S
O398 Pr377 2.436 . S
O398 C385 1.270 . S
O399 Pr376 2.512 . S
O399 C385 1.248 . S
O400 Pr377 2.438 . S
O400 C386 1.267 . S
O401 Pr376 2.437 . S
O401 C386 1.278 . S
O402 Pr377 2.562 . S
O402 C387 1.254 . S
O403 Pr377 2.490 . S
O403 C387 1.225 . S
O404 Pr376 2.436 . S
O404 Pr377 2.695 . S
O404 C394 1.270 . S
O405 Pr377 2.512 . S
O405 C394 1.248 . S
O406 Pr376 2.438 . S
O406 C395 1.267 . S
O407 Pr377 2.437 . S
O407 C395 1.278 . S
H408 C380 0.929 . S
H409 C381 0.929 . S
H410 C383 0.931 . S
H411 C384 0.930 . S
H412 C389 0.929 . S
H413 C390 0.929 . S
H414 C392 0.931 . S
H415 C393 0.930 . S
Pr416 C418 2.880 . S
Pr416 O436 2.562 . S
Pr416 O437 2.490 . S
Pr416 O438 2.695 . S
Pr416 O439 2.512 . S
Pr416 O441 2.437 . S
Pr416 O444 2.436 . S
Pr416 O446 2.438 . S
Pr417 C427 2.880 . S
Pr417 O438 2.436 . S
Pr417 O440 2.438 . S
Pr417 O442 2.562 . S
Pr417 O443 2.490 . S
Pr417 O444 2.695 . S
Pr417 O445 2.512 . S
Pr417 O447 2.437 . S
C418 Pr416 2.880 . S
C418 C419 1.491 . S
C418 O436 1.254 . S
C418 O437 1.225 . S
C419 C418 1.491 . S
C419 C420 1.392 . S
C419 C424 1.356 . S
C420 C419 1.392 . S
C420 C421 1.368 . S
C420 H448 0.929 . S
C421 C420 1.368 . S
C421 C422 1.386 . S
C421 H449 0.929 . S
C422 C421 1.386 . S
C422 C423 1.373 . S
C423 C422 1.373 . S
C423 C424 1.409 . S
C423 H450 0.931 . S
C424 C419 1.356 . S
C424 C423 1.409 . S
C424 H451 0.930 . S
C425 O438 1.270 . S
C425 O439 1.248 . S
C426 O440 1.267 . S
C426 O441 1.278 . S
C427 Pr417 2.880 . S
C427 C428 1.491 . S
C427 O442 1.254 . S
C427 O443 1.225 . S
C428 C427 1.491 . S
C428 C429 1.392 . S
C428 C433 1.356 . S
C429 C428 1.392 . S
C429 C430 1.368 . S
C429 H452 0.929 . S
C430 C429 1.368 . S
C430 C431 1.386 . S
C430 H453 0.929 . S
C431 C430 1.386 . S
C431 C432 1.373 . S
C432 C431 1.373 . S
C432 C433 1.409 . S
C432 H454 0.931 . S
C433 C428 1.356 . S
C433 C432 1.409 . S
C433 H455 0.930 . S
C434 O444 1.270 . S
C434 O445 1.248 . S
C435 O446 1.267 . S
C435 O447 1.278 . S
O436 Pr416 2.562 . S
O436 C418 1.254 . S
O437 Pr416 2.490 . S
O437 C418 1.225 . S
O438 Pr416 2.695 . S
O438 Pr417 2.436 . S
O438 C425 1.270 . S
O439 Pr416 2.512 . S
O439 C425 1.248 . S
O440 Pr417 2.438 . S
O440 C426 1.267 . S
O441 Pr416 2.437 . S
O441 C426 1.278 . S
O442 Pr417 2.562 . S
O442 C427 1.254 . S
O443 Pr417 2.490 . S
O443 C427 1.225 . S
O444 Pr416 2.436 . S
O444 Pr417 2.695 . S
O444 C434 1.270 . S
O445 Pr417 2.512 . S
O445 C434 1.248 . S
O446 Pr416 2.438 . S
O446 C435 1.267 . S
O447 Pr417 2.437 . S
O447 C435 1.278 . S
H448 C420 0.929 . S
H449 C421 0.929 . S
H450 C423 0.931 . S
H451 C424 0.930 . S
H452 C429 0.929 . S
H453 C430 0.929 . S
H454 C432 0.931 . S
H455 C433 0.930 . S
Pr456 C458 2.880 . S
Pr456 O476 2.562 . S
Pr456 O477 2.490 . S
Pr456 O478 2.695 . S
Pr456 O479 2.512 . S
Pr456 O481 2.437 . S
Pr456 O484 2.436 . S
Pr456 O486 2.438 . S
Pr457 C467 2.880 . S
Pr457 O478 2.436 . S
Pr457 O480 2.438 . S
Pr457 O482 2.562 . S
Pr457 O483 2.490 . S
Pr457 O484 2.695 . S
Pr457 O485 2.512 . S
Pr457 O487 2.437 . S
C458 Pr456 2.880 . S
C458 C459 1.491 . S
C458 O476 1.254 . S
C458 O477 1.225 . S
C459 C458 1.491 . S
C459 C460 1.392 . S
C459 C464 1.356 . S
C460 C459 1.392 . S
C460 C461 1.368 . S
C460 H488 0.929 . S
C461 C460 1.368 . S
C461 C462 1.386 . S
C461 H489 0.929 . S
C462 C461 1.386 . S
C462 C463 1.373 . S
C463 C462 1.373 . S
C463 C464 1.409 . S
C463 H490 0.931 . S
C464 C459 1.356 . S
C464 C463 1.409 . S
C464 H491 0.930 . S
C465 O478 1.270 . S
C465 O479 1.248 . S
C466 O480 1.267 . S
C466 O481 1.278 . S
C467 Pr457 2.880 . S
C467 C468 1.491 . S
C467 O482 1.254 . S
C467 O483 1.225 . S
C468 C467 1.491 . S
C468 C469 1.392 . S
C468 C473 1.356 . S
C469 C468 1.392 . S
C469 C470 1.368 . S
C469 H492 0.929 . S
C470 C469 1.368 . S
C470 C471 1.386 . S
C470 H493 0.929 . S
C471 C470 1.386 . S
C471 C472 1.373 . S
C472 C471 1.373 . S
C472 C473 1.409 . S
C472 H494 0.931 . S
C473 C468 1.356 . S
C473 C472 1.409 . S
C473 H495 0.930 . S
C474 O484 1.270 . S
C474 O485 1.248 . S
C475 O486 1.267 . S
C475 O487 1.278 . S
O476 Pr456 2.562 . S
O476 C458 1.254 . S
O477 Pr456 2.490 . S
O477 C458 1.225 . S
O478 Pr456 2.695 . S
O478 Pr457 2.436 . S
O478 C465 1.270 . S
O479 Pr456 2.512 . S
O479 C465 1.248 . S
O480 Pr457 2.438 . S
O480 C466 1.267 . S
O481 Pr456 2.437 . S
O481 C466 1.278 . S
O482 Pr457 2.562 . S
O482 C467 1.254 . S
O483 Pr457 2.490 . S
O483 C467 1.225 . S
O484 Pr456 2.436 . S
O484 Pr457 2.695 . S
O484 C474 1.270 . S
O485 Pr457 2.512 . S
O485 C474 1.248 . S
O486 Pr456 2.438 . S
O486 C475 1.267 . S
O487 Pr457 2.437 . S
O487 C475 1.278 . S
H488 C460 0.929 . S
H489 C461 0.929 . S
H490 C463 0.931 . S
H491 C464 0.930 . S
H492 C469 0.929 . S
H493 C470 0.929 . S
H494 C472 0.931 . S
H495 C473 0.930 . S
Pr496 C498 2.880 . S
Pr496 O516 2.562 . S
Pr496 O517 2.490 . S
Pr496 O518 2.695 . S
Pr496 O519 2.512 . S
Pr496 O521 2.437 . S
Pr496 O524 2.436 . S
Pr496 O526 2.438 . S
Pr497 C507 2.880 . S
Pr497 O518 2.436 . S
Pr497 O520 2.438 . S
Pr497 O522 2.562 . S
Pr497 O523 2.490 . S
Pr497 O524 2.695 . S
Pr497 O525 2.512 . S
Pr497 O527 2.437 . S
C498 Pr496 2.880 . S
C498 C499 1.491 . S
C498 O516 1.254 . S
C498 O517 1.225 . S
C499 C498 1.491 . S
C499 C500 1.392 . S
C499 C504 1.389 . S
C500 C499 1.392 . S
C500 C501 1.368 . S
C500 H528 0.929 . S
C501 C500 1.368 . S
C501 C502 1.386 . S
C501 H529 0.929 . S
C502 C501 1.386 . S
C502 C503 1.373 1_455 S
C503 C502 1.373 1_655 S
C503 C504 1.399 1_655 S
C503 H530 0.931 . S
C504 C499 1.389 . S
C504 C503 1.399 1_455 S
C504 H531 0.906 1_455 S
C505 O518 1.270 . S
C505 O519 1.248 . S
C506 O520 1.267 . S
C506 O521 1.278 . S
C507 Pr497 2.880 . S
C507 C508 1.491 . S
C507 O522 1.254 . S
C507 O523 1.225 . S
C508 C507 1.491 . S
C508 C509 1.392 . S
C508 C513 1.356 . S
C509 C508 1.392 . S
C509 C510 1.368 . S
C509 H532 0.929 . S
C510 C509 1.368 . S
C510 C511 1.386 . S
C510 H533 0.929 . S
C511 C510 1.386 . S
C511 C512 1.373 . S
C512 C511 1.373 . S
C512 C513 1.409 . S
C512 H534 0.931 . S
C513 C508 1.356 . S
C513 C512 1.409 . S
C513 H535 0.930 . S
C514 O524 1.270 . S
C514 O525 1.248 . S
C515 O526 1.267 . S
C515 O527 1.278 . S
O516 Pr496 2.562 . S
O516 C498 1.254 . S
O517 Pr496 2.490 . S
O517 C498 1.225 . S
O518 Pr496 2.695 . S
O518 Pr497 2.436 . S
O518 C505 1.270 . S
O519 Pr496 2.512 . S
O519 C505 1.248 . S
O520 Pr497 2.438 . S
O520 C506 1.267 . S
O521 Pr496 2.437 . S
O521 C506 1.278 . S
O522 Pr497 2.562 . S
O522 C507 1.254 . S
O523 Pr497 2.490 . S
O523 C507 1.225 . S
O524 Pr496 2.436 . S
O524 Pr497 2.695 . S
O524 C514 1.270 . S
O525 Pr497 2.512 . S
O525 C514 1.248 . S
O526 Pr496 2.438 . S
O526 C515 1.267 . S
O527 Pr497 2.437 . S
O527 C515 1.278 . S
H528 C500 0.929 . S
H529 C501 0.929 . S
H530 C503 0.931 . S
H531 C504 0.906 1_655 S
H532 C509 0.929 . S
H533 C510 0.929 . S
H534 C512 0.931 . S
H535 C513 0.930 . S
Pr536 C538 2.880 . S
Pr536 O556 2.562 . S
Pr536 O557 2.490 . S
Pr536 O558 2.695 . S
Pr536 O559 2.512 . S
Pr536 O561 2.437 . S
Pr536 O564 2.436 . S
Pr536 O566 2.438 . S
Pr537 C547 2.880 . S
Pr537 O558 2.436 . S
Pr537 O560 2.438 . S
Pr537 O562 2.562 . S
Pr537 O563 2.490 . S
Pr537 O564 2.695 . S
Pr537 O565 2.512 . S
Pr537 O567 2.437 . S
C538 Pr536 2.880 . S
C538 C539 1.491 . S
C538 O556 1.254 . S
C538 O557 1.225 . S
C539 C538 1.491 . S
C539 C540 1.392 . S
C539 C544 1.356 . S
C540 C539 1.392 . S
C540 C541 1.368 . S
C540 H568 0.929 . S
C541 C540 1.368 . S
C541 C542 1.386 . S
C541 H569 0.929 . S
C542 C541 1.386 . S
C542 C543 1.373 . S
C543 C542 1.373 . S
C543 C544 1.409 . S
C543 H570 0.931 . S
C544 C539 1.356 . S
C544 C543 1.409 . S
C544 H571 0.930 . S
C545 O558 1.270 . S
C545 O559 1.248 . S
C546 O560 1.267 . S
C546 O561 1.278 . S
C547 Pr537 2.880 . S
C547 C548 1.491 . S
C547 O562 1.254 . S
C547 O563 1.225 . S
C548 C547 1.491 . S
C548 C549 1.392 . S
C548 C553 1.356 . S
C549 C548 1.392 . S
C549 C550 1.368 . S
C549 H572 0.929 . S
C550 C549 1.368 . S
C550 C551 1.386 . S
C550 H573 0.929 . S
C551 C550 1.386 . S
C551 C552 1.373 . S
C552 C551 1.373 . S
C552 C553 1.409 . S
C552 H574 0.931 . S
C553 C548 1.356 . S
C553 C552 1.409 . S
C553 H575 0.930 . S
C554 O564 1.270 . S
C554 O565 1.248 . S
C555 O566 1.267 . S
C555 O567 1.278 . S
O556 Pr536 2.562 . S
O556 C538 1.254 . S
O557 Pr536 2.490 . S
O557 C538 1.225 . S
O558 Pr536 2.695 . S
O558 Pr537 2.436 . S
O558 C545 1.270 . S
O559 Pr536 2.512 . S
O559 C545 1.248 . S
O560 Pr537 2.438 . S
O560 C546 1.267 . S
O561 Pr536 2.437 . S
O561 C546 1.278 . S
O562 Pr537 2.562 . S
O562 C547 1.254 . S
O563 Pr537 2.490 . S
O563 C547 1.225 . S
O564 Pr536 2.436 . S
O564 Pr537 2.695 . S
O564 C554 1.270 . S
O565 Pr537 2.512 . S
O565 C554 1.248 . S
O566 Pr536 2.438 . S
O566 C555 1.267 . S
O567 Pr537 2.437 . S
O567 C555 1.278 . S
H568 C540 0.929 . S
H569 C541 0.929 . S
H570 C543 0.931 . S
H571 C544 0.930 . S
H572 C549 0.929 . S
H573 C550 0.929 . S
H574 C552 0.931 . S
H575 C553 0.930 . S
Pr576 C578 2.880 . S
Pr576 O596 2.562 . S
Pr576 O597 2.490 . S
Pr576 O598 2.695 . S
Pr576 O599 2.512 . S
Pr576 O601 2.437 . S
Pr576 O604 2.436 . S
Pr576 O606 2.438 . S
Pr577 C587 2.880 1_554 S
Pr577 O598 2.436 . S
Pr577 O600 2.438 . S
Pr577 O602 2.562 1_554 S
Pr577 O603 2.490 1_554 S
Pr577 O604 2.695 . S
Pr577 O605 2.512 . S
Pr577 O607 2.437 . S
C578 Pr576 2.880 . S
C578 C579 1.491 . S
C578 O596 1.254 . S
C578 O597 1.225 . S
C579 C578 1.491 . S
C579 C580 1.392 . S
C579 C584 1.356 . S
C580 C579 1.392 . S
C580 C581 1.368 . S
C580 H608 0.929 . S
C581 C580 1.368 . S
C581 C582 1.386 . S
C581 H609 0.929 . S
C582 C581 1.386 . S
C582 C583 1.373 . S
C583 C582 1.373 . S
C583 C584 1.409 . S
C583 H610 0.931 . S
C584 C579 1.356 . S
C584 C583 1.409 . S
C584 H611 0.930 . S
C585 O598 1.270 . S
C585 O599 1.248 . S
C586 O600 1.267 . S
C586 O601 1.278 . S
C587 Pr577 2.880 1_556 S
C587 C588 1.491 . S
C587 O602 1.254 . S
C587 O603 1.225 . S
C588 C587 1.491 . S
C588 C589 1.392 . S
C588 C593 1.356 . S
C589 C588 1.392 . S
C589 C590 1.368 . S
C589 H612 0.929 . S
C590 C589 1.368 . S
C590 C591 1.386 . S
C590 H613 0.929 . S
C591 C590 1.386 . S
C591 C592 1.373 . S
C592 C591 1.373 . S
C592 C593 1.409 . S
C592 H614 0.931 . S
C593 C588 1.356 . S
C593 C592 1.409 . S
C593 H615 0.930 . S
C594 O604 1.270 . S
C594 O605 1.248 . S
C595 O606 1.267 . S
C595 O607 1.278 . S
O596 Pr576 2.562 . S
O596 C578 1.254 . S
O597 Pr576 2.490 . S
O597 C578 1.225 . S
O598 Pr576 2.695 . S
O598 Pr577 2.436 . S
O598 C585 1.270 . S
O599 Pr576 2.512 . S
O599 C585 1.248 . S
O600 Pr577 2.438 . S
O600 C586 1.267 . S
O601 Pr576 2.437 . S
O601 C586 1.278 . S
O602 Pr577 2.562 1_556 S
O602 C587 1.254 . S
O603 Pr577 2.490 1_556 S
O603 C587 1.225 . S
O604 Pr576 2.436 . S
O604 Pr577 2.695 . S
O604 C594 1.270 . S
O605 Pr577 2.512 . S
O605 C594 1.248 . S
O606 Pr576 2.438 . S
O606 C595 1.267 . S
O607 Pr577 2.437 . S
O607 C595 1.278 . S
H608 C580 0.929 . S
H609 C581 0.929 . S
H610 C583 0.931 . S
H611 C584 0.930 . S
H612 C589 0.929 . S
H613 C590 0.929 . S
H614 C592 0.931 . S
H615 C593 0.930 . S
Pr616 C618 2.880 . S
Pr616 O636 2.562 . S
Pr616 O637 2.490 . S
Pr616 O638 2.695 . S
Pr616 O639 2.512 . S
Pr616 O641 2.437 . S
Pr616 O644 2.436 . S
Pr616 O646 2.438 . S
Pr617 C627 2.880 . S
Pr617 O638 2.436 . S
Pr617 O640 2.438 . S
Pr617 O642 2.562 . S
Pr617 O643 2.490 . S
Pr617 O644 2.695 . S
Pr617 O645 2.512 . S
Pr617 O647 2.437 . S
C618 Pr616 2.880 . S
C618 C619 1.491 . S
C618 O636 1.254 . S
C618 O637 1.225 . S
C619 C618 1.491 . S
C619 C620 1.392 . S
C619 C624 1.356 . S
C620 C619 1.392 . S
C620 C621 1.368 . S
C620 H648 0.929 . S
C621 C620 1.368 . S
C621 C622 1.386 . S
C621 H649 0.929 . S
C622 C621 1.386 . S
C622 C623 1.373 . S
C623 C622 1.373 . S
C623 C624 1.409 . S
C623 H650 0.931 . S
C624 C619 1.356 . S
C624 C623 1.409 . S
C624 H651 0.930 . S
C625 O638 1.270 . S
C625 O639 1.248 . S
C626 O640 1.267 . S
C626 O641 1.278 . S
C627 Pr617 2.880 . S
C627 C628 1.491 . S
C627 O642 1.254 . S
C627 O643 1.225 . S
C628 C627 1.491 . S
C628 C629 1.392 . S
C628 C633 1.356 . S
C629 C628 1.392 . S
C629 C630 1.368 . S
C629 H652 0.929 . S
C630 C629 1.368 . S
C630 C631 1.386 . S
C630 H653 0.929 . S
C631 C630 1.386 . S
C631 C632 1.373 . S
C632 C631 1.373 . S
C632 C633 1.409 . S
C632 H654 0.931 . S
C633 C628 1.356 . S
C633 C632 1.409 . S
C633 H655 0.930 . S
C634 O644 1.270 . S
C634 O645 1.248 . S
C635 O646 1.267 . S
C635 O647 1.278 . S
O636 Pr616 2.562 . S
O636 C618 1.254 . S
O637 Pr616 2.490 . S
O637 C618 1.225 . S
O638 Pr616 2.695 . S
O638 Pr617 2.436 . S
O638 C625 1.270 . S
O639 Pr616 2.512 . S
O639 C625 1.248 . S
O640 Pr617 2.438 . S
O640 C626 1.267 . S
O641 Pr616 2.437 . S
O641 C626 1.278 . S
O642 Pr617 2.562 . S
O642 C627 1.254 . S
O643 Pr617 2.490 . S
O643 C627 1.225 . S
O644 Pr616 2.436 . S
O644 Pr617 2.695 . S
O644 C634 1.270 . S
O645 Pr617 2.512 . S
O645 C634 1.248 . S
O646 Pr616 2.438 . S
O646 C635 1.267 . S
O647 Pr617 2.437 . S
O647 C635 1.278 . S
H648 C620 0.929 . S
H649 C621 0.929 . S
H650 C623 0.931 . S
H651 C624 0.930 . S
H652 C629 0.929 . S
H653 C630 0.929 . S
H654 C632 0.931 . S
H655 C633 0.930 . S
Pr656 C658 2.880 1_554 S
Pr656 O676 2.562 1_554 S
Pr656 O677 2.490 1_554 S
Pr656 O678 2.695 . S
Pr656 O679 2.512 . S
Pr656 O681 2.437 . S
Pr656 O684 2.436 . S
Pr656 O686 2.438 . S
Pr657 C667 2.880 . S
Pr657 O678 2.436 . S
Pr657 O680 2.438 . S
Pr657 O682 2.562 . S
Pr657 O683 2.490 . S
Pr657 O684 2.695 . S
Pr657 O685 2.512 . S
Pr657 O687 2.437 . S
C658 Pr656 2.880 1_556 S
C658 C659 1.491 . S
C658 O676 1.254 . S
C658 O677 1.225 . S
C659 C658 1.491 . S
C659 C660 1.392 . S
C659 C664 1.356 . S
C660 C659 1.392 . S
C660 C661 1.368 . S
C660 H688 0.929 . S
C661 C660 1.368 . S
C661 C662 1.386 . S
C661 H689 0.929 . S
C662 C661 1.386 . S
C662 C663 1.373 . S
C663 C662 1.373 . S
C663 C664 1.409 . S
C663 H690 0.931 . S
C664 C659 1.356 . S
C664 C663 1.409 . S
C664 H691 0.930 . S
C665 O678 1.270 . S
C665 O679 1.248 . S
C666 O680 1.267 . S
C666 O681 1.278 . S
C667 Pr657 2.880 . S
C667 C668 1.491 . S
C667 O682 1.254 . S
C667 O683 1.225 . S
C668 C667 1.491 . S
C668 C669 1.392 . S
C668 C673 1.356 . S
C669 C668 1.392 . S
C669 C670 1.368 . S
C669 H692 0.929 . S
C670 C669 1.368 . S
C670 C671 1.386 . S
C670 H693 0.929 . S
C671 C670 1.386 . S
C671 C672 1.373 . S
C672 C671 1.373 . S
C672 C673 1.409 . S
C672 H694 0.931 . S
C673 C668 1.356 . S
C673 C672 1.409 . S
C673 H695 0.930 . S
C674 O684 1.270 . S
C674 O685 1.248 . S
C675 O686 1.267 . S
C675 O687 1.278 . S
O676 Pr656 2.562 1_556 S
O676 C658 1.254 . S
O677 Pr656 2.490 1_556 S
O677 C658 1.225 . S
O678 Pr656 2.695 . S
O678 Pr657 2.436 . S
O678 C665 1.270 . S
O679 Pr656 2.512 . S
O679 C665 1.248 . S
O680 Pr657 2.438 . S
O680 C666 1.267 . S
O681 Pr656 2.437 . S
O681 C666 1.278 . S
O682 Pr657 2.562 . S
O682 C667 1.254 . S
O683 Pr657 2.490 . S
O683 C667 1.225 . S
O684 Pr656 2.436 . S
O684 Pr657 2.695 . S
O684 C674 1.270 . S
O685 Pr657 2.512 . S
O685 C674 1.248 . S
O686 Pr656 2.438 . S
O686 C675 1.267 . S
O687 Pr657 2.437 . S
O687 C675 1.278 . S
H688 C660 0.929 . S
H689 C661 0.929 . S
H690 C663 0.931 . S
H691 C664 0.930 . S
H692 C669 0.929 . S
H693 C670 0.929 . S
H694 C672 0.931 . S
H695 C673 0.930 . S
Pr696 C698 2.880 . S
Pr696 O716 2.562 . S
Pr696 O717 2.490 . S
Pr696 O718 2.695 . S
Pr696 O719 2.512 . S
Pr696 O721 2.437 . S
Pr696 O724 2.436 . S
Pr696 O726 2.438 . S
Pr697 C707 2.880 . S
Pr697 O718 2.436 . S
Pr697 O720 2.438 . S
Pr697 O722 2.562 . S
Pr697 O723 2.490 . S
Pr697 O724 2.695 . S
Pr697 O725 2.512 . S
Pr697 O727 2.437 . S
C698 Pr696 2.880 . S
C698 C699 1.491 . S
C698 O716 1.254 . S
C698 O717 1.225 . S
C699 C698 1.491 . S
C699 C700 1.392 . S
C699 C704 1.356 . S
C700 C699 1.392 . S
C700 C701 1.368 . S
C700 H728 0.929 . S
C701 C700 1.368 . S
C701 C702 1.386 . S
C701 H729 0.929 . S
C702 C701 1.386 . S
C702 C703 1.373 . S
C703 C702 1.373 . S
C703 C704 1.409 . S
C703 H730 0.931 . S
C704 C699 1.356 . S
C704 C703 1.409 . S
C704 H731 0.930 . S
C705 O718 1.270 . S
C705 O719 1.248 . S
C706 O720 1.267 . S
C706 O721 1.278 . S
C707 Pr697 2.880 . S
C707 C708 1.491 . S
C707 O722 1.254 . S
C707 O723 1.225 . S
C708 C707 1.491 . S
C708 C709 1.392 . S
C708 C713 1.356 . S
C709 C708 1.392 . S
C709 C710 1.368 . S
C709 H732 0.929 . S
C710 C709 1.368 . S
C710 C711 1.386 . S
C710 H733 0.929 . S
C711 C710 1.386 . S
C711 C712 1.373 . S
C712 C711 1.373 . S
C712 C713 1.409 . S
C712 H734 0.931 . S
C713 C708 1.356 . S
C713 C712 1.409 . S
C713 H735 0.930 . S
C714 O724 1.270 . S
C714 O725 1.248 . S
C715 O726 1.267 . S
C715 O727 1.278 . S
O716 Pr696 2.562 . S
O716 C698 1.254 . S
O717 Pr696 2.490 . S
O717 C698 1.225 . S
O718 Pr696 2.695 . S
O718 Pr697 2.436 . S
O718 C705 1.270 . S
O719 Pr696 2.512 . S
O719 C705 1.248 . S
O720 Pr697 2.438 . S
O720 C706 1.267 . S
O721 Pr696 2.437 . S
O721 C706 1.278 . S
O722 Pr697 2.562 . S
O722 C707 1.254 . S
O723 Pr697 2.490 . S
O723 C707 1.225 . S
O724 Pr696 2.436 . S
O724 Pr697 2.695 . S
O724 C714 1.270 . S
O725 Pr697 2.512 . S
O725 C714 1.248 . S
O726 Pr696 2.438 . S
O726 C715 1.267 . S
O727 Pr697 2.437 . S
O727 C715 1.278 . S
H728 C700 0.929 . S
H729 C701 0.929 . S
H730 C703 0.931 . S
H731 C704 0.930 . S
H732 C709 0.929 . S
H733 C710 0.929 . S
H734 C712 0.931 . S
H735 C713 0.930 . S
Pr736 C738 2.880 . S
Pr736 O756 2.562 . S
Pr736 O757 2.490 . S
Pr736 O758 2.695 . S
Pr736 O759 2.512 . S
Pr736 O761 2.437 . S
Pr736 O764 2.436 . S
Pr736 O766 2.438 . S
Pr737 C747 2.880 . S
Pr737 O758 2.436 . S
Pr737 O760 2.438 . S
Pr737 O762 2.562 . S
Pr737 O763 2.490 . S
Pr737 O764 2.695 . S
Pr737 O765 2.512 . S
Pr737 O767 2.437 . S
C738 Pr736 2.880 . S
C738 C739 1.491 . S
C738 O756 1.254 . S
C738 O757 1.225 . S
C739 C738 1.491 . S
C739 C740 1.392 . S
C739 C744 1.356 . S
C740 C739 1.392 . S
C740 C741 1.368 . S
C740 H768 0.929 . S
C741 C740 1.368 . S
C741 C742 1.387 . S
C741 H769 0.929 . S
C742 C741 1.387 . S
C742 C743 1.373 1_455 S
C743 C742 1.373 1_655 S
C743 C744 1.409 1_655 S
C743 H770 0.931 . S
C744 C739 1.356 . S
C744 C743 1.409 1_455 S
C744 H771 0.930 . S
C745 O758 1.270 . S
C745 O759 1.248 . S
C746 O760 1.267 1_655 S
C746 O761 1.278 1_655 S
C747 Pr737 2.880 . S
C747 C748 1.491 . S
C747 O762 1.254 . S
C747 O763 1.225 . S
C748 C747 1.491 . S
C748 C749 1.392 . S
C748 C753 1.356 . S
C749 C748 1.392 . S
C749 C750 1.368 . S
C749 H772 0.929 . S
C750 C749 1.368 . S
C750 C751 1.386 . S
C750 H773 0.929 . S
C751 C750 1.386 . S
C751 C752 1.373 . S
C752 C751 1.373 . S
C752 C753 1.409 . S
C752 H774 0.931 . S
C753 C748 1.356 . S
C753 C752 1.409 . S
C753 H775 0.930 . S
C754 O764 1.270 . S
C754 O765 1.248 . S
C755 O766 1.267 . S
C755 O767 1.278 . S
O756 Pr736 2.562 . S
O756 C738 1.254 . S
O757 Pr736 2.490 . S
O757 C738 1.225 . S
O758 Pr736 2.695 . S
O758 Pr737 2.436 . S
O758 C745 1.270 . S
O759 Pr736 2.512 . S
O759 C745 1.248 . S
O760 Pr737 2.438 . S
O760 C746 1.267 1_455 S
O761 Pr736 2.437 . S
O761 C746 1.278 1_455 S
O762 Pr737 2.562 . S
O762 C747 1.254 . S
O763 Pr737 2.490 . S
O763 C747 1.225 . S
O764 Pr736 2.436 . S
O764 Pr737 2.695 . S
O764 C754 1.270 . S
O765 Pr737 2.512 . S
O765 C754 1.248 . S
O766 Pr736 2.438 . S
O766 C755 1.267 . S
O767 Pr737 2.437 . S
O767 C755 1.278 . S
H768 C740 0.929 . S
H769 C741 0.929 . S
H770 C743 0.931 . S
H771 C744 0.930 . S
H772 C749 0.929 . S
H773 C750 0.929 . S
H774 C752 0.931 . S
H775 C753 0.930 . S
Pr776 C778 2.880 . S
Pr776 O796 2.562 . S
Pr776 O797 2.490 . S
Pr776 O798 2.695 . S
Pr776 O799 2.512 . S
Pr776 O801 2.437 . S
Pr776 O804 2.436 . S
Pr776 O806 2.438 . S
Pr777 C787 2.880 . S
Pr777 O798 2.436 . S
Pr777 O800 2.438 . S
Pr777 O802 2.562 . S
Pr777 O803 2.490 . S
Pr777 O804 2.695 . S
Pr777 O805 2.512 . S
Pr777 O807 2.437 . S
C778 Pr776 2.880 . S
C778 C779 1.491 . S
C778 O796 1.254 . S
C778 O797 1.225 . S
C779 C778 1.491 . S
C779 C780 1.392 . S
C779 C784 1.356 . S
C780 C779 1.392 . S
C780 C781 1.368 . S
C780 H808 0.929 . S
C781 C780 1.368 . S
C781 C782 1.386 . S
C781 H809 0.929 . S
C782 C781 1.386 . S
C782 C783 1.373 . S
C783 C782 1.373 . S
C783 C784 1.409 . S
C783 H810 0.931 . S
C784 C779 1.356 . S
C784 C783 1.409 . S
C784 H811 0.930 . S
C785 O798 1.270 . S
C785 O799 1.248 . S
C786 O800 1.267 . S
C786 O801 1.278 . S
C787 Pr777 2.880 . S
C787 C788 1.491 . S
C787 O802 1.254 . S
C787 O803 1.225 . S
C788 C787 1.491 . S
C788 C789 1.392 . S
C788 C793 1.356 . S
C789 C788 1.392 . S
C789 C790 1.368 . S
C789 H812 0.929 . S
C790 C789 1.368 . S
C790 C791 1.386 . S
C790 H813 0.929 . S
C791 C790 1.386 . S
C791 C792 1.373 . S
C792 C791 1.373 . S
C792 C793 1.409 . S
C792 H814 0.931 . S
C793 C788 1.356 . S
C793 C792 1.409 . S
C793 H815 0.930 . S
C794 O804 1.270 . S
C794 O805 1.248 . S
C795 O806 1.267 . S
C795 O807 1.278 . S
O796 Pr776 2.562 . S
O796 C778 1.254 . S
O797 Pr776 2.490 . S
O797 C778 1.225 . S
O798 Pr776 2.695 . S
O798 Pr777 2.436 . S
O798 C785 1.270 . S
O799 Pr776 2.512 . S
O799 C785 1.248 . S
O800 Pr777 2.438 . S
O800 C786 1.267 . S
O801 Pr776 2.437 . S
O801 C786 1.278 . S
O802 Pr777 2.562 . S
O802 C787 1.254 . S
O803 Pr777 2.490 . S
O803 C787 1.225 . S
O804 Pr776 2.436 . S
O804 Pr777 2.695 . S
O804 C794 1.270 . S
O805 Pr777 2.512 . S
O805 C794 1.248 . S
O806 Pr776 2.438 . S
O806 C795 1.267 . S
O807 Pr777 2.437 . S
O807 C795 1.278 . S
H808 C780 0.929 . S
H809 C781 0.929 . S
H810 C783 0.931 . S
H811 C784 0.930 . S
H812 C789 0.929 . S
H813 C790 0.929 . S
H814 C792 0.931 . S
H815 C793 0.930 . S
Pr816 C818 2.880 . S
Pr816 O836 2.562 . S
Pr816 O837 2.490 . S
Pr816 O838 2.695 . S
Pr816 O839 2.512 . S
Pr816 O841 2.437 . S
Pr816 O844 2.436 . S
Pr816 O846 2.438 . S
Pr817 C827 2.880 . S
Pr817 O838 2.436 . S
Pr817 O840 2.438 . S
Pr817 O842 2.562 . S
Pr817 O843 2.490 . S
Pr817 O844 2.695 . S
Pr817 O845 2.512 . S
Pr817 O847 2.437 . S
C818 Pr816 2.880 . S
C818 C819 1.491 . S
C818 O836 1.254 . S
C818 O837 1.225 . S
C819 C818 1.491 . S
C819 C820 1.392 . S
C819 C824 1.356 . S
C820 C819 1.392 . S
C820 C821 1.368 . S
C820 H848 0.929 . S
C821 C820 1.368 . S
C821 C822 1.386 . S
C821 H849 0.929 . S
C822 C821 1.386 . S
C822 C823 1.373 . S
C823 C822 1.373 . S
C823 C824 1.409 . S
C823 H850 0.931 . S
C824 C819 1.356 . S
C824 C823 1.409 . S
C824 H851 0.930 . S
C825 O838 1.270 . S
C825 O839 1.248 . S
C826 O840 1.267 . S
C826 O841 1.278 . S
C827 Pr817 2.880 . S
C827 C828 1.491 . S
C827 O842 1.254 . S
C827 O843 1.225 . S
C828 C827 1.491 . S
C828 C829 1.392 . S
C828 C833 1.356 . S
C829 C828 1.392 . S
C829 C830 1.368 . S
C829 H852 0.929 . S
C830 C829 1.368 . S
C830 C831 1.386 . S
C830 H853 0.929 . S
C831 C830 1.386 . S
C831 C832 1.373 . S
C832 C831 1.373 . S
C832 C833 1.409 . S
C832 H854 0.931 . S
C833 C828 1.356 . S
C833 C832 1.409 . S
C833 H855 0.930 . S
C834 O844 1.270 . S
C834 O845 1.248 . S
C835 O846 1.267 . S
C835 O847 1.278 . S
O836 Pr816 2.562 . S
O836 C818 1.254 . S
O837 Pr816 2.490 . S
O837 C818 1.225 . S
O838 Pr816 2.695 . S
O838 Pr817 2.436 . S
O838 C825 1.270 . S
O839 Pr816 2.512 . S
O839 C825 1.248 . S
O840 Pr817 2.438 . S
O840 C826 1.267 . S
O841 Pr816 2.437 . S
O841 C826 1.278 . S
O842 Pr817 2.562 . S
O842 C827 1.254 . S
O843 Pr817 2.490 . S
O843 C827 1.225 . S
O844 Pr816 2.436 . S
O844 Pr817 2.695 . S
O844 C834 1.270 . S
O845 Pr817 2.512 . S
O845 C834 1.248 . S
O846 Pr816 2.438 . S
O846 C835 1.267 . S
O847 Pr817 2.437 . S
O847 C835 1.278 . S
H848 C820 0.929 . S
H849 C821 0.929 . S
H850 C823 0.931 . S
H851 C824 0.930 . S
H852 C829 0.929 . S
H853 C830 0.929 . S
H854 C832 0.931 . S
H855 C833 0.930 . S
Pr856 C858 2.880 . S
Pr856 O876 2.562 . S
Pr856 O877 2.490 . S
Pr856 O878 2.695 . S
Pr856 O879 2.512 . S
Pr856 O881 2.437 . S
Pr856 O884 2.436 . S
Pr856 O886 2.438 . S
Pr857 C867 2.880 . S
Pr857 O878 2.436 . S
Pr857 O880 2.438 . S
Pr857 O882 2.562 . S
Pr857 O883 2.490 . S
Pr857 O884 2.695 . S
Pr857 O885 2.512 . S
Pr857 O887 2.437 . S
C858 Pr856 2.880 . S
C858 C859 1.491 . S
C858 O876 1.254 . S
C858 O877 1.225 . S
C859 C858 1.491 . S
C859 C860 1.392 . S
C859 C864 1.356 . S
C860 C859 1.392 . S
C860 C861 1.368 . S
C860 H888 0.929 . S
C861 C860 1.368 . S
C861 C862 1.386 . S
C861 H889 0.929 . S
C862 C861 1.386 . S
C862 C863 1.373 . S
C863 C862 1.373 . S
C863 C864 1.409 . S
C863 H890 0.931 . S
C864 C859 1.356 . S
C864 C863 1.409 . S
C864 H891 0.930 . S
C865 O878 1.270 . S
C865 O879 1.248 . S
C866 O880 1.267 . S
C866 O881 1.278 . S
C867 Pr857 2.880 . S
C867 C868 1.491 . S
C867 O882 1.254 . S
C867 O883 1.225 . S
C868 C867 1.491 . S
C868 C869 1.392 . S
C868 C873 1.356 . S
C869 C868 1.392 . S
C869 C870 1.368 . S
C869 H892 0.929 . S
C870 C869 1.368 . S
C870 C871 1.386 . S
C870 H893 0.929 . S
C871 C870 1.386 . S
C871 C872 1.373 . S
C872 C871 1.373 . S
C872 C873 1.409 . S
C872 H894 0.931 . S
C873 C868 1.356 . S
C873 C872 1.409 . S
C873 H895 0.930 . S
C874 O884 1.270 . S
C874 O885 1.248 . S
C875 O886 1.267 . S
C875 O887 1.278 . S
O876 Pr856 2.562 . S
O876 C858 1.254 . S
O877 Pr856 2.490 . S
O877 C858 1.225 . S
O878 Pr856 2.695 . S
O878 Pr857 2.436 . S
O878 C865 1.270 . S
O879 Pr856 2.512 . S
O879 C865 1.248 . S
O880 Pr857 2.438 . S
O880 C866 1.267 . S
O881 Pr856 2.437 . S
O881 C866 1.278 . S
O882 Pr857 2.562 . S
O882 C867 1.254 . S
O883 Pr857 2.490 . S
O883 C867 1.225 . S
O884 Pr856 2.436 . S
O884 Pr857 2.695 . S
O884 C874 1.270 . S
O885 Pr857 2.512 . S
O885 C874 1.248 . S
O886 Pr856 2.438 . S
O886 C875 1.267 . S
O887 Pr857 2.437 . S
O887 C875 1.278 . S
H888 C860 0.929 . S
H889 C861 0.929 . S
H890 C863 0.931 . S
H891 C864 0.930 . S
H892 C869 0.929 . S
H893 C870 0.929 . S
H894 C872 0.931 . S
H895 C873 0.930 . S
Pr896 C898 2.880 . S
Pr896 O916 2.562 . S
Pr896 O917 2.490 . S
Pr896 O918 2.695 . S
Pr896 O919 2.512 . S
Pr896 O921 2.437 . S
Pr896 O924 2.436 . S
Pr896 O926 2.438 . S
Pr897 C907 2.880 . S
Pr897 O918 2.436 . S
Pr897 O920 2.438 . S
Pr897 O922 2.562 . S
Pr897 O923 2.490 . S
Pr897 O924 2.695 . S
Pr897 O925 2.512 . S
Pr897 O927 2.437 . S
C898 Pr896 2.880 . S
C898 C899 1.491 . S
C898 O916 1.254 . S
C898 O917 1.225 . S
C899 C898 1.491 . S
C899 C900 1.392 . S
C899 C904 1.356 . S
C900 C899 1.392 . S
C900 C901 1.368 . S
C900 H928 0.929 . S
C901 C900 1.368 . S
C901 C902 1.386 . S
C901 H929 0.929 . S
C902 C901 1.386 . S
C902 C903 1.373 . S
C903 C902 1.373 . S
C903 C904 1.409 . S
C903 H930 0.931 . S
C904 C899 1.356 . S
C904 C903 1.409 . S
C904 H931 0.930 . S
C905 O918 1.270 . S
C905 O919 1.248 . S
C906 O920 1.267 . S
C906 O921 1.278 . S
C907 Pr897 2.880 . S
C907 C908 1.491 . S
C907 O922 1.254 . S
C907 O923 1.225 . S
C908 C907 1.491 . S
C908 C909 1.392 . S
C908 C913 1.356 . S
C909 C908 1.392 . S
C909 C910 1.368 . S
C909 H932 0.929 . S
C910 C909 1.368 . S
C910 C911 1.386 . S
C910 H933 0.929 . S
C911 C910 1.386 . S
C911 C912 1.373 . S
C912 C911 1.373 . S
C912 C913 1.409 . S
C912 H934 0.931 . S
C913 C908 1.356 . S
C913 C912 1.409 . S
C913 H935 0.930 . S
C914 O924 1.270 . S
C914 O925 1.248 . S
C915 O926 1.267 . S
C915 O927 1.278 . S
O916 Pr896 2.562 . S
O916 C898 1.254 . S
O917 Pr896 2.490 . S
O917 C898 1.225 . S
O918 Pr896 2.695 . S
O918 Pr897 2.436 . S
O918 C905 1.270 . S
O919 Pr896 2.512 . S
O919 C905 1.248 . S
O920 Pr897 2.438 . S
O920 C906 1.267 . S
O921 Pr896 2.437 . S
O921 C906 1.278 . S
O922 Pr897 2.562 . S
O922 C907 1.254 . S
O923 Pr897 2.490 . S
O923 C907 1.225 . S
O924 Pr896 2.436 . S
O924 Pr897 2.695 . S
O924 C914 1.270 . S
O925 Pr897 2.512 . S
O925 C914 1.248 . S
O926 Pr896 2.438 . S
O926 C915 1.267 . S
O927 Pr897 2.437 . S
O927 C915 1.278 . S
H928 C900 0.929 . S
H929 C901 0.929 . S
H930 C903 0.931 . S
H931 C904 0.930 . S
H932 C909 0.929 . S
H933 C910 0.929 . S
H934 C912 0.931 . S
H935 C913 0.930 . S
Pr936 C938 2.880 . S
Pr936 O956 2.562 . S
Pr936 O957 2.490 . S
Pr936 O958 2.695 . S
Pr936 O959 2.512 . S
Pr936 O961 2.437 . S
Pr936 O964 2.436 . S
Pr936 O966 2.438 . S
Pr937 C947 2.880 1_455 S
Pr937 O958 2.436 . S
Pr937 O960 2.438 . S
Pr937 O962 2.562 1_455 S
Pr937 O963 2.490 1_455 S
Pr937 O964 2.695 . S
Pr937 O965 2.512 . S
Pr937 O967 2.437 . S
C938 Pr936 2.880 . S
C938 C939 1.491 . S
C938 O956 1.254 . S
C938 O957 1.225 . S
C939 C938 1.491 . S
C939 C940 1.392 . S
C939 C944 1.356 . S
C940 C939 1.392 . S
C940 C941 1.368 . S
C940 H968 0.929 . S
C941 C940 1.368 . S
C941 C942 1.386 . S
C941 H969 0.929 1_554 S
C942 C941 1.386 . S
C942 C943 1.373 . S
C943 C942 1.373 . S
C943 C944 1.409 . S
C943 H970 0.931 . S
C944 C939 1.356 . S
C944 C943 1.409 . S
C944 H971 0.930 . S
C945 O958 1.270 . S
C945 O959 1.248 . S
C946 O960 1.267 . S
C946 O961 1.278 . S
C947 Pr937 2.880 1_655 S
C947 C948 1.491 . S
C947 O962 1.254 . S
C947 O963 1.225 . S
C948 C947 1.491 . S
C948 C949 1.392 . S
C948 C953 1.356 . S
C949 C948 1.392 . S
C949 C950 1.368 . S
C949 H972 0.929 . S
C950 C949 1.368 . S
C950 C951 1.386 . S
C950 H973 0.929 . S
C951 C950 1.386 . S
C951 C952 1.373 . S
C952 C951 1.373 . S
C952 C953 1.409 . S
C952 H974 0.931 . S
C953 C948 1.356 . S
C953 C952 1.409 . S
C953 H975 0.930 . S
C954 O964 1.270 . S
C954 O965 1.248 . S
C955 O966 1.267 . S
C955 O967 1.278 . S
O956 Pr936 2.562 . S
O956 C938 1.254 . S
O957 Pr936 2.490 . S
O957 C938 1.225 . S
O958 Pr936 2.695 . S
O958 Pr937 2.436 . S
O958 C945 1.270 . S
O959 Pr936 2.512 . S
O959 C945 1.248 . S
O960 Pr937 2.438 . S
O960 C946 1.267 . S
O961 Pr936 2.437 . S
O961 C946 1.278 . S
O962 Pr937 2.562 1_655 S
O962 C947 1.254 . S
O963 Pr937 2.490 1_655 S
O963 C947 1.225 . S
O964 Pr936 2.436 . S
O964 Pr937 2.695 . S
O964 C954 1.270 . S
O965 Pr937 2.512 . S
O965 C954 1.248 . S
O966 Pr936 2.438 . S
O966 C955 1.267 . S
O967 Pr937 2.437 . S
O967 C955 1.278 . S
H968 C940 0.929 . S
H969 C941 0.929 1_556 S
H970 C943 0.931 . S
H971 C944 0.930 . S
H972 C949 0.929 . S
H973 C950 0.929 . S
H974 C952 0.931 . S
H975 C953 0.930 . S
H976 C982 0.930 . S
H977 C986 0.930 . S
H978 C991 0.894 1_655 S
H979 C989 0.933 . S
H980 C984 0.929 . S
H981 C990 0.929 . S
C982 H976 0.930 . S
C982 C983 1.367 . S
C982 C990 1.378 . S
C983 C982 1.367 . S
C983 C991 1.433 . S
C984 H980 0.929 . S
C984 C986 1.378 . S
C984 C988 1.350 1_554 S
C985 C988 1.463 . S
C985 C990 1.350 . S
C985 N993 1.427 . S
C986 H977 0.930 . S
C986 C984 1.378 . S
C986 C987 1.367 . S
C987 C986 1.367 . S
C987 C989 1.421 1_554 S
C988 C984 1.350 1_556 S
C988 C985 1.463 . S
C988 N992 1.427 . S
C989 H979 0.933 . S
C989 C987 1.421 1_556 S
C989 N992 1.392 . S
C990 H981 0.929 . S
C990 C982 1.378 . S
C990 C985 1.350 . S
C991 H978 0.894 1_455 S
C991 C983 1.433 . S
C991 N993 1.384 . S
N992 C988 1.427 . S
N992 C989 1.392 . S
N993 C985 1.427 . S
N993 C991 1.384 . S
H994 C1000 0.930 . S
H995 C1004 0.930 . S
H996 C1009 0.929 . S
H997 C1007 0.929 . S
H998 C1002 0.929 . S
H999 C1008 0.929 . S
C1000 H994 0.930 . S
C1000 C1001 1.367 . S
C1000 C1008 1.378 . S
C1001 C1000 1.367 . S
C1001 C1009 1.433 . S
C1002 H998 0.929 . S
C1002 C1004 1.378 . S
C1002 C1006 1.350 . S
C1003 C1006 1.463 . S
C1003 C1008 1.350 . S
C1003 N1011 1.427 . S
C1004 H995 0.930 . S
C1004 C1002 1.378 . S
C1004 C1005 1.367 . S
C1005 C1004 1.367 . S
C1005 C1007 1.433 . S
C1006 C1002 1.350 . S
C1006 C1003 1.463 . S
C1006 N1010 1.427 . S
C1007 H997 0.929 . S
C1007 C1005 1.433 . S
C1007 N1010 1.384 . S
C1008 H999 0.929 . S
C1008 C1000 1.378 . S
C1008 C1003 1.350 . S
C1009 H996 0.929 . S
C1009 C1001 1.433 . S
C1009 N1011 1.384 . S
N1010 C1006 1.427 . S
N1010 C1007 1.384 . S
N1011 C1003 1.427 . S
N1011 C1009 1.384 . S
H1012 C1018 0.930 . S
H1013 C1022 0.930 1_545 S
H1014 C1027 0.929 . S
H1015 C1025 0.929 . S
H1016 C1020 0.929 . S
H1017 C1026 0.929 . S
C1018 H1012 0.930 . S
C1018 C1019 1.367 . S
C1018 C1026 1.378 . S
C1019 C1018 1.367 . S
C1019 C1027 1.433 . S
C1020 H1016 0.929 . S
C1020 C1022 1.378 . S
C1020 C1024 1.350 . S
C1021 C1024 1.463 . S
C1021 C1026 1.350 . S
C1021 N1029 1.427 . S
C1022 H1013 0.930 1_565 S
C1022 C1020 1.378 . S
C1022 C1023 1.367 1_565 S
C1023 C1022 1.367 1_545 S
C1023 C1025 1.433 1_545 S
C1024 C1020 1.350 . S
C1024 C1021 1.463 . S
C1024 N1028 1.427 . S
C1025 H1015 0.929 . S
C1025 C1023 1.433 1_565 S
C1025 N1028 1.384 . S
C1026 H1017 0.929 . S
C1026 C1018 1.378 . S
C1026 C1021 1.350 . S
C1027 H1014 0.929 . S
C1027 C1019 1.433 . S
C1027 N1029 1.384 . S
N1028 C1024 1.427 . S
N1028 C1025 1.384 . S
N1029 C1021 1.427 . S
N1029 C1027 1.384 . S
H1030 C1036 0.930 . S
H1031 C1040 0.930 . S
H1032 C1045 0.929 . S
H1033 C1043 0.929 . S
H1034 C1038 0.929 . S
H1035 C1044 0.929 . S
C1036 H1030 0.930 . S
C1036 C1037 1.367 . S
C1036 C1044 1.378 . S
C1037 C1036 1.367 . S
C1037 C1045 1.433 . S
C1038 H1034 0.929 . S
C1038 C1040 1.378 . S
C1038 C1042 1.350 . S
C1039 C1042 1.463 . S
C1039 C1044 1.350 . S
C1039 N1047 1.427 . S
C1040 H1031 0.930 . S
C1040 C1038 1.378 . S
C1040 C1041 1.367 . S
C1041 C1040 1.367 . S
C1041 C1043 1.433 . S
C1042 C1038 1.350 . S
C1042 C1039 1.463 . S
C1042 N1046 1.427 . S
C1043 H1033 0.929 . S
C1043 C1041 1.433 . S
C1043 N1046 1.384 . S
C1044 H1035 0.929 . S
C1044 C1036 1.378 . S
C1044 C1039 1.350 . S
C1045 H1032 0.929 . S
C1045 C1037 1.433 . S
C1045 N1047 1.384 . S
N1046 C1042 1.427 . S
N1046 C1043 1.384 . S
N1047 C1039 1.427 . S
N1047 C1045 1.384 . S
H1048 C1054 0.930 . S
H1049 C1058 0.930 . S
H1050 C1063 0.929 . S
H1051 C1061 0.929 . S
H1052 C1056 0.929 1_545 S
H1053 C1062 0.929 . S
C1054 H1048 0.930 . S
C1054 C1055 1.367 . S
C1054 C1062 1.378 . S
C1055 C1054 1.367 . S
C1055 C1063 1.433 . S
C1056 H1052 0.929 1_565 S
C1056 C1058 1.373 1_565 S
C1056 C1060 1.355 . S
C1057 C1060 1.463 . S
C1057 C1062 1.350 . S
C1057 N1065 1.427 . S
C1058 H1049 0.930 . S
C1058 C1056 1.373 1_545 S
C1058 C1059 1.367 . S
C1059 C1058 1.367 . S
C1059 C1061 1.433 1_545 S
C1060 C1056 1.355 . S
C1060 C1057 1.463 . S
C1060 N1064 1.427 . S
C1061 H1051 0.929 . S
C1061 C1059 1.433 1_565 S
C1061 N1064 1.384 . S
C1062 H1053 0.929 . S
C1062 C1054 1.378 . S
C1062 C1057 1.350 . S
C1063 H1050 0.929 . S
C1063 C1055 1.433 . S
C1063 N1065 1.384 . S
N1064 C1060 1.427 . S
N1064 C1061 1.384 . S
N1065 C1057 1.427 . S
N1065 C1063 1.384 . S
H1066 C1072 0.930 . S
H1067 C1076 0.930 . S
H1068 C1081 0.929 . S
H1069 C1079 0.929 . S
H1070 C1074 0.929 . S
H1071 C1080 0.929 . S
C1072 H1066 0.930 . S
C1072 C1073 1.367 . S
C1072 C1080 1.378 . S
C1073 C1072 1.367 . S
C1073 C1081 1.433 . S
C1074 H1070 0.929 . S
C1074 C1076 1.378 . S
C1074 C1078 1.350 . S
C1075 C1078 1.463 . S
C1075 C1080 1.350 . S
C1075 N1083 1.427 . S
C1076 H1067 0.930 . S
C1076 C1074 1.378 . S
C1076 C1077 1.367 . S
C1077 C1076 1.367 . S
C1077 C1079 1.433 . S
C1078 C1074 1.350 . S
C1078 C1075 1.463 . S
C1078 N1082 1.427 . S
C1079 H1069 0.929 . S
C1079 C1077 1.433 . S
C1079 N1082 1.384 . S
C1080 H1071 0.929 . S
C1080 C1072 1.378 . S
C1080 C1075 1.350 . S
C1081 H1068 0.929 . S
C1081 C1073 1.433 . S
C1081 N1083 1.384 . S
N1082 C1078 1.427 . S
N1082 C1079 1.384 . S
N1083 C1075 1.427 . S
N1083 C1081 1.384 . S
H1084 C1090 0.930 . S
H1085 C1094 0.930 . S
H1086 C1099 0.929 . S
H1087 C1097 0.929 . S
H1088 C1092 0.929 . S
H1089 C1098 0.929 . S
C1090 H1084 0.930 . S
C1090 C1091 1.367 . S
C1090 C1098 1.378 . S
C1091 C1090 1.367 . S
C1091 C1099 1.433 . S
C1092 H1088 0.929 . S
C1092 C1094 1.378 . S
C1092 C1096 1.350 . S
C1093 C1096 1.463 . S
C1093 C1098 1.350 . S
C1093 N1101 1.427 . S
C1094 H1085 0.930 . S
C1094 C1092 1.378 . S
C1094 C1095 1.367 . S
C1095 C1094 1.367 . S
C1095 C1097 1.433 . S
C1096 C1092 1.350 . S
C1096 C1093 1.463 . S
C1096 N1100 1.427 . S
C1097 H1087 0.929 . S
C1097 C1095 1.433 . S
C1097 N1100 1.384 . S
C1098 H1089 0.929 . S
C1098 C1090 1.378 . S
C1098 C1093 1.350 . S
C1099 H1086 0.929 . S
C1099 C1091 1.433 . S
C1099 N1101 1.384 . S
N1100 C1096 1.427 . S
N1100 C1097 1.384 . S
N1101 C1093 1.427 . S
N1101 C1099 1.384 . S
H1102 C1108 0.930 . S
H1103 C1112 0.930 . S
H1104 C1117 0.929 . S
H1105 C1115 0.929 . S
H1106 C1110 0.929 . S
H1107 C1116 0.929 . S
C1108 H1102 0.930 . S
C1108 C1109 1.367 . S
C1108 C1116 1.378 . S
C1109 C1108 1.367 . S
C1109 C1117 1.433 . S
C1110 H1106 0.929 . S
C1110 C1112 1.378 . S
C1110 C1114 1.350 . S
C1111 C1114 1.463 . S
C1111 C1116 1.350 . S
C1111 N1119 1.427 . S
C1112 H1103 0.930 . S
C1112 C1110 1.378 . S
C1112 C1113 1.367 . S
C1113 C1112 1.367 . S
C1113 C1115 1.433 . S
C1114 C1110 1.350 . S
C1114 C1111 1.463 . S
C1114 N1118 1.427 . S
C1115 H1105 0.929 . S
C1115 C1113 1.433 . S
C1115 N1118 1.384 . S
C1116 H1107 0.929 . S
C1116 C1108 1.378 . S
C1116 C1111 1.350 . S
C1117 H1104 0.929 . S
C1117 C1109 1.433 . S
C1117 N1119 1.384 . S
N1118 C1114 1.427 . S
N1118 C1115 1.384 . S
N1119 C1111 1.427 . S
N1119 C1117 1.384 . S
H1120 C1126 0.930 . S
H1121 C1130 0.928 1_655 S
H1122 C1135 0.929 . S
H1123 C1133 0.929 . S
H1124 C1128 0.929 . S
H1125 C1134 0.929 . S
C1126 H1120 0.930 . S
C1126 C1127 1.367 . S
C1126 C1134 1.378 . S
C1127 C1126 1.367 . S
C1127 C1135 1.433 . S
C1128 H1124 0.929 . S
C1128 C1130 1.365 1_655 S
C1128 C1132 1.350 . S
C1129 C1132 1.463 . S
C1129 C1134 1.350 . S
C1129 N1137 1.427 . S
C1130 H1121 0.928 1_455 S
C1130 C1128 1.365 1_455 S
C1130 C1131 1.383 . S
C1131 C1130 1.383 . S
C1131 C1133 1.433 . S
C1132 C1128 1.350 . S
C1132 C1129 1.463 . S
C1132 N1136 1.427 1_655 S
C1133 H1123 0.929 . S
C1133 C1131 1.433 . S
C1133 N1136 1.384 . S
C1134 H1125 0.929 . S
C1134 C1126 1.378 . S
C1134 C1129 1.350 . S
C1135 H1122 0.929 . S
C1135 C1127 1.433 . S
C1135 N1137 1.384 . S
N1136 C1132 1.427 1_455 S
N1136 C1133 1.384 . S
N1137 C1129 1.427 . S
N1137 C1135 1.384 . S
H1138 C1144 0.930 . S
H1139 C1148 0.930 . S
H1140 C1153 0.929 . S
H1141 C1151 0.929 . S
H1142 C1146 0.929 . S
H1143 C1152 0.929 . S
C1144 H1138 0.930 . S
C1144 C1145 1.367 . S
C1144 C1152 1.378 . S
C1145 C1144 1.367 . S
C1145 C1153 1.433 . S
C1146 H1142 0.929 . S
C1146 C1148 1.378 . S
C1146 C1150 1.350 . S
C1147 C1150 1.463 . S
C1147 C1152 1.350 . S
C1147 N1155 1.427 . S
C1148 H1139 0.930 . S
C1148 C1146 1.378 . S
C1148 C1149 1.367 . S
C1149 C1148 1.367 . S
C1149 C1151 1.433 . S
C1150 C1146 1.350 . S
C1150 C1147 1.463 . S
C1150 N1154 1.427 . S
C1151 H1141 0.929 . S
C1151 C1149 1.433 . S
C1151 N1154 1.384 . S
C1152 H1143 0.929 . S
C1152 C1144 1.378 . S
C1152 C1147 1.350 . S
C1153 H1140 0.929 . S
C1153 C1145 1.433 . S
C1153 N1155 1.384 . S
N1154 C1150 1.427 . S
N1154 C1151 1.384 . S
N1155 C1147 1.427 . S
N1155 C1153 1.384 . S
H1156 C1162 0.930 . S
H1157 C1166 0.930 . S
H1158 C1171 0.929 . S
H1159 C1169 0.929 . S
H1160 C1164 0.929 . S
H1161 C1170 0.929 . S
C1162 H1156 0.930 . S
C1162 C1163 1.367 . S
C1162 C1170 1.378 . S
C1163 C1162 1.367 . S
C1163 C1171 1.433 1_545 S
C1164 H1160 0.929 . S
C1164 C1166 1.378 . S
C1164 C1168 1.350 . S
C1165 C1168 1.463 . S
C1165 C1170 1.350 . S
C1165 N1173 1.427 . S
C1166 H1157 0.930 . S
C1166 C1164 1.378 . S
C1166 C1167 1.367 . S
C1167 C1166 1.367 . S
C1167 C1169 1.433 . S
C1168 C1164 1.350 . S
C1168 C1165 1.463 . S
C1168 N1172 1.427 . S
C1169 H1159 0.929 . S
C1169 C1167 1.433 . S
C1169 N1172 1.384 . S
C1170 H1161 0.929 . S
C1170 C1162 1.378 . S
C1170 C1165 1.350 . S
C1171 H1158 0.929 . S
C1171 C1163 1.433 1_565 S
C1171 N1173 1.384 1_565 S
N1172 C1168 1.427 . S
N1172 C1169 1.384 . S
N1173 C1165 1.427 . S
N1173 C1171 1.384 1_545 S
H1174 C1180 0.930 . S
H1175 C1184 0.930 . S
H1176 C1189 0.929 . S
H1177 C1187 0.929 . S
H1178 C1182 0.929 . S
H1179 C1188 0.929 . S
C1180 H1174 0.930 . S
C1180 C1181 1.367 . S
C1180 C1188 1.378 . S
C1181 C1180 1.367 . S
C1181 C1189 1.433 . S
C1182 H1178 0.929 . S
C1182 C1184 1.378 . S
C1182 C1186 1.350 . S
C1183 C1186 1.463 . S
C1183 C1188 1.350 . S
C1183 N1191 1.427 . S
C1184 H1175 0.930 . S
C1184 C1182 1.378 . S
C1184 C1185 1.367 . S
C1185 C1184 1.367 . S
C1185 C1187 1.433 . S
C1186 C1182 1.350 . S
C1186 C1183 1.463 . S
C1186 N1190 1.427 . S
C1187 H1177 0.929 . S
C1187 C1185 1.433 . S
C1187 N1190 1.384 . S
C1188 H1179 0.929 . S
C1188 C1180 1.378 . S
C1188 C1183 1.350 . S
C1189 H1176 0.929 . S
C1189 C1181 1.433 . S
C1189 N1191 1.384 . S
N1190 C1186 1.427 . S
N1190 C1187 1.384 . S
N1191 C1183 1.427 . S
N1191 C1189 1.384 . S
H1192 C1198 0.930 . S
H1193 C1202 0.930 . S
H1194 C1207 0.929 . S
H1195 C1205 0.929 . S
H1196 C1200 0.929 . S
H1197 C1206 0.929 . S
C1198 H1192 0.930 . S
C1198 C1199 1.367 . S
C1198 C1206 1.378 . S
C1199 C1198 1.367 . S
C1199 C1207 1.433 . S
C1200 H1196 0.929 . S
C1200 C1202 1.378 . S
C1200 C1204 1.350 . S
C1201 C1204 1.463 . S
C1201 C1206 1.350 . S
C1201 N1209 1.427 . S
C1202 H1193 0.930 . S
C1202 C1200 1.378 . S
C1202 C1203 1.367 1_655 S
C1203 C1202 1.367 1_455 S
C1203 C1205 1.433 . S
C1204 C1200 1.350 . S
C1204 C1201 1.463 . S
C1204 N1208 1.427 . S
C1205 H1195 0.929 . S
C1205 C1203 1.433 . S
C1205 N1208 1.384 1_455 S
C1206 H1197 0.929 . S
C1206 C1198 1.378 . S
C1206 C1201 1.350 . S
C1207 H1194 0.929 . S
C1207 C1199 1.433 . S
C1207 N1209 1.384 . S
N1208 C1204 1.427 . S
N1208 C1205 1.384 1_655 S
N1209 C1201 1.427 . S
N1209 C1207 1.384 . S
H1210 C1216 0.930 . S
H1211 C1220 0.930 . S
H1212 C1225 0.929 . S
H1213 C1223 0.929 . S
H1214 C1218 0.929 . S
H1215 C1224 0.929 . S
C1216 H1210 0.930 . S
C1216 C1217 1.367 . S
C1216 C1224 1.378 . S
C1217 C1216 1.367 . S
C1217 C1225 1.433 . S
C1218 H1214 0.929 . S
C1218 C1220 1.378 . S
C1218 C1222 1.350 . S
C1219 C1222 1.463 . S
C1219 C1224 1.350 . S
C1219 N1227 1.427 . S
C1220 H1211 0.930 . S
C1220 C1218 1.378 . S
C1220 C1221 1.367 . S
C1221 C1220 1.367 . S
C1221 C1223 1.433 . S
C1222 C1218 1.350 . S
C1222 C1219 1.463 . S
C1222 N1226 1.427 . S
C1223 H1213 0.929 . S
C1223 C1221 1.433 . S
C1223 N1226 1.384 . S
C1224 H1215 0.929 . S
C1224 C1216 1.378 . S
C1224 C1219 1.350 . S
C1225 H1212 0.929 . S
C1225 C1217 1.433 . S
C1225 N1227 1.384 . S
N1226 C1222 1.427 . S
N1226 C1223 1.384 . S
N1227 C1219 1.427 . S
N1227 C1225 1.384 . S
H1228 C1234 0.930 1_565 S
H1229 C1238 0.930 . S
H1230 C1243 0.929 . S
H1231 C1241 0.929 . S
H1232 C1236 0.929 . S
H1233 C1242 0.929 . S
C1234 H1228 0.930 1_545 S
C1234 C1235 1.367 . S
C1234 C1242 1.378 . S
C1235 C1234 1.367 . S
C1235 C1243 1.433 . S
C1236 H1232 0.929 . S
C1236 C1238 1.378 . S
C1236 C1240 1.350 . S
C1237 C1240 1.463 . S
C1237 C1242 1.350 . S
C1237 N1245 1.427 . S
C1238 H1229 0.930 . S
C1238 C1236 1.378 . S
C1238 C1239 1.367 . S
C1239 C1238 1.367 . S
C1239 C1241 1.433 . S
C1240 C1236 1.350 . S
C1240 C1237 1.463 . S
C1240 N1244 1.427 . S
C1241 H1231 0.929 . S
C1241 C1239 1.433 . S
C1241 N1244 1.384 . S
C1242 H1233 0.929 . S
C1242 C1234 1.378 . S
C1242 C1237 1.350 . S
C1243 H1230 0.929 . S
C1243 C1235 1.433 . S
C1243 N1245 1.384 . S
N1244 C1240 1.427 . S
N1244 C1241 1.384 . S
N1245 C1237 1.427 . S
N1245 C1243 1.384 . S
H1246 C1252 0.930 . S
H1247 C1256 0.930 . S
H1248 C1261 0.929 . S
H1249 C1259 0.929 . S
H1250 C1254 0.929 . S
H1251 C1260 0.929 . S
C1252 H1246 0.930 . S
C1252 C1253 1.367 . S
C1252 C1260 1.378 . S
C1253 C1252 1.367 . S
C1253 C1261 1.433 . S
C1254 H1250 0.929 . S
C1254 C1256 1.378 . S
C1254 C1258 1.350 . S
C1255 C1258 1.463 . S
C1255 C1260 1.350 . S
C1255 N1263 1.427 . S
C1256 H1247 0.930 . S
C1256 C1254 1.378 . S
C1256 C1257 1.367 . S
C1257 C1256 1.367 . S
C1257 C1259 1.433 . S
C1258 C1254 1.350 . S
C1258 C1255 1.463 . S
C1258 N1262 1.427 . S
C1259 H1249 0.929 . S
C1259 C1257 1.433 . S
C1259 N1262 1.384 . S
C1260 H1251 0.929 . S
C1260 C1252 1.378 . S
C1260 C1255 1.350 . S
C1261 H1248 0.929 . S
C1261 C1253 1.433 . S
C1261 N1263 1.384 . S
N1262 C1258 1.427 . S
N1262 C1259 1.384 . S
N1263 C1255 1.427 . S
N1263 C1261 1.384 . S
H1264 C1270 0.930 . S
H1265 C1274 0.930 . S
H1266 C1279 0.924 1_545 S
H1267 C1277 0.929 . S
H1268 C1272 0.929 . S
H1269 C1278 0.929 . S
C1270 H1264 0.930 . S
C1270 C1271 1.367 . S
C1270 C1278 1.378 . S
C1271 C1270 1.367 . S
C1271 C1279 1.459 . S
C1272 H1268 0.929 . S
C1272 C1274 1.378 . S
C1272 C1276 1.350 . S
C1273 C1276 1.453 1_565 S
C1273 C1278 1.361 . S
C1273 N1281 1.425 1_565 S
C1274 H1265 0.930 . S
C1274 C1272 1.378 . S
C1274 C1275 1.367 . S
C1275 C1274 1.367 . S
C1275 C1277 1.433 . S
C1276 C1272 1.350 . S
C1276 C1273 1.453 1_545 S
C1276 N1280 1.427 . S
C1277 H1267 0.929 . S
C1277 C1275 1.433 . S
C1277 N1280 1.384 . S
C1278 H1269 0.929 . S
C1278 C1270 1.378 . S
C1278 C1273 1.361 . S
C1279 H1266 0.924 1_565 S
C1279 C1271 1.459 . S
C1279 N1281 1.363 1_565 S
N1280 C1276 1.427 . S
N1280 C1277 1.384 . S
N1281 C1273 1.425 1_545 S
N1281 C1279 1.363 1_545 S
H1282 C1288 0.930 . S
H1283 C1292 0.930 1_556 S
H1284 C1297 0.929 1_556 S
H1285 C1295 0.929 . S
H1286 C1290 0.929 1_556 S
H1287 C1296 0.929 . S
C1288 H1282 0.930 . S
C1288 C1289 1.367 . S
C1288 C1296 1.378 . S
C1289 C1288 1.367 . S
C1289 C1297 1.433 . S
C1290 H1286 0.929 1_554 S
C1290 C1292 1.378 . S
C1290 C1294 1.350 . S
C1291 C1294 1.463 . S
C1291 C1296 1.350 . S
C1291 N1299 1.427 . S
C1292 H1283 0.930 1_554 S
C1292 C1290 1.378 . S
C1292 C1293 1.367 . S
C1293 C1292 1.367 . S
C1293 C1295 1.433 . S
C1294 C1290 1.350 . S
C1294 C1291 1.463 . S
C1294 N1298 1.427 . S
C1295 H1285 0.929 . S
C1295 C1293 1.433 . S
C1295 N1298 1.384 . S
C1296 H1287 0.929 . S
C1296 C1288 1.378 . S
C1296 C1291 1.350 . S
C1297 H1284 0.929 1_554 S
C1297 C1289 1.433 . S
C1297 N1299 1.384 . S
N1298 C1294 1.427 . S
N1298 C1295 1.384 . S
N1299 C1291 1.427 . S
N1299 C1297 1.384 . S
H1300 C1306 0.930 . S
H1301 C1310 0.930 . S
H1302 C1315 0.929 . S
H1303 C1313 0.929 . S
H1304 C1308 0.929 . S
H1305 C1314 0.929 . S
C1306 H1300 0.930 . S
C1306 C1307 1.367 . S
C1306 C1314 1.378 . S
C1307 C1306 1.367 . S
C1307 C1315 1.433 . S
C1308 H1304 0.929 . S
C1308 C1310 1.378 . S
C1308 C1312 1.350 . S
C1309 C1312 1.463 . S
C1309 C1314 1.350 . S
C1309 N1317 1.427 . S
C1310 H1301 0.930 . S
C1310 C1308 1.378 . S
C1310 C1311 1.367 . S
C1311 C1310 1.367 . S
C1311 C1313 1.433 . S
C1312 C1308 1.350 . S
C1312 C1309 1.463 . S
C1312 N1316 1.427 . S
C1313 H1303 0.929 . S
C1313 C1311 1.433 . S
C1313 N1316 1.384 . S
C1314 H1305 0.929 . S
C1314 C1306 1.378 . S
C1314 C1309 1.350 . S
C1315 H1302 0.929 . S
C1315 C1307 1.433 . S
C1315 N1317 1.384 . S
N1316 C1312 1.427 . S
N1316 C1313 1.384 . S
N1317 C1309 1.427 . S
N1317 C1315 1.384 . S
H1318 C1324 0.930 . S
H1319 C1328 0.930 . S
H1320 C1333 0.929 . S
H1321 C1331 0.929 . S
H1322 C1326 0.929 . S
H1323 C1332 0.929 . S
C1324 H1318 0.930 . S
C1324 C1325 1.367 . S
C1324 C1332 1.378 . S
C1325 C1324 1.367 . S
C1325 C1333 1.433 . S
C1326 H1322 0.929 . S
C1326 C1328 1.378 . S
C1326 C1330 1.350 . S
C1327 C1330 1.463 . S
C1327 C1332 1.350 . S
C1327 N1335 1.427 . S
C1328 H1319 0.930 . S
C1328 C1326 1.378 . S
C1328 C1329 1.367 . S
C1329 C1328 1.367 . S
C1329 C1331 1.433 . S
C1330 C1326 1.350 . S
C1330 C1327 1.463 . S
C1330 N1334 1.427 . S
C1331 H1321 0.929 . S
C1331 C1329 1.433 . S
C1331 N1334 1.384 . S
C1332 H1323 0.929 . S
C1332 C1324 1.378 . S
C1332 C1327 1.350 . S
C1333 H1320 0.929 . S
C1333 C1325 1.433 . S
C1333 N1335 1.384 . S
N1334 C1330 1.427 . S
N1334 C1331 1.384 . S
N1335 C1327 1.427 . S
N1335 C1333 1.384 . S
H1336 C1342 0.930 . S
H1337 C1346 0.930 . S
H1338 C1351 0.929 . S
H1339 C1349 0.929 . S
H1340 C1344 0.929 . S
H1341 C1350 0.929 . S
C1342 H1336 0.930 . S
C1342 C1343 1.367 . S
C1342 C1350 1.378 . S
C1343 C1342 1.367 . S
C1343 C1351 1.433 . S
C1344 H1340 0.929 . S
C1344 C1346 1.378 . S
C1344 C1348 1.350 . S
C1345 C1348 1.463 . S
C1345 C1350 1.350 . S
C1345 N1353 1.427 . S
C1346 H1337 0.930 . S
C1346 C1344 1.378 . S
C1346 C1347 1.367 . S
C1347 C1346 1.367 . S
C1347 C1349 1.433 . S
C1348 C1344 1.350 . S
C1348 C1345 1.463 . S
C1348 N1352 1.427 . S
C1349 H1339 0.929 . S
C1349 C1347 1.433 . S
C1349 N1352 1.384 . S
C1350 H1341 0.929 . S
C1350 C1342 1.378 . S
C1350 C1345 1.350 . S
C1351 H1338 0.929 . S
C1351 C1343 1.433 . S
C1351 N1353 1.384 . S
N1352 C1348 1.427 . S
N1352 C1349 1.384 . S
N1353 C1345 1.427 . S
N1353 C1351 1.384 . S
H1354 C1360 0.930 . S
H1355 C1364 0.930 . S
H1356 C1369 0.929 . S
H1357 C1367 0.929 . S
H1358 C1362 0.929 . S
H1359 C1368 0.929 . S
C1360 H1354 0.930 . S
C1360 C1361 1.367 . S
C1360 C1368 1.378 . S
C1361 C1360 1.367 . S
C1361 C1369 1.433 . S
C1362 H1358 0.929 . S
C1362 C1364 1.378 . S
C1362 C1366 1.350 . S
C1363 C1366 1.463 . S
C1363 C1368 1.350 . S
C1363 N1371 1.427 . S
C1364 H1355 0.930 . S
C1364 C1362 1.378 . S
C1364 C1365 1.367 . S
C1365 C1364 1.367 . S
C1365 C1367 1.433 . S
C1366 C1362 1.350 . S
C1366 C1363 1.463 . S
C1366 N1370 1.427 . S
C1367 H1357 0.929 . S
C1367 C1365 1.433 . S
C1367 N1370 1.384 . S
C1368 H1359 0.929 . S
C1368 C1360 1.378 . S
C1368 C1363 1.350 . S
C1369 H1356 0.929 . S
C1369 C1361 1.433 . S
C1369 N1371 1.384 . S
N1370 C1366 1.427 . S
N1370 C1367 1.384 . S
N1371 C1363 1.427 . S
N1371 C1369 1.384 . S
H1372 C1378 0.930 . S
H1373 C1382 0.930 . S
H1374 C1387 0.929 . S
H1375 C1385 0.929 . S
H1376 C1380 0.929 . S
H1377 C1386 0.929 . S
C1378 H1372 0.930 . S
C1378 C1379 1.367 . S
C1378 C1386 1.378 . S
C1379 C1378 1.367 . S
C1379 C1387 1.433 . S
C1380 H1376 0.929 . S
C1380 C1382 1.378 . S
C1380 C1384 1.350 . S
C1381 C1384 1.463 . S
C1381 C1386 1.350 . S
C1381 N1389 1.427 . S
C1382 H1373 0.930 . S
C1382 C1380 1.378 . S
C1382 C1383 1.367 . S
C1383 C1382 1.367 . S
C1383 C1385 1.433 . S
C1384 C1380 1.350 . S
C1384 C1381 1.463 . S
C1384 N1388 1.427 . S
C1385 H1375 0.929 . S
C1385 C1383 1.433 . S
C1385 N1388 1.384 . S
C1386 H1377 0.929 . S
C1386 C1378 1.378 . S
C1386 C1381 1.350 . S
C1387 H1374 0.929 . S
C1387 C1379 1.433 . S
C1387 N1389 1.384 . S
N1388 C1384 1.427 . S
N1388 C1385 1.384 . S
N1389 C1381 1.427 . S
N1389 C1387 1.384 . S
H1390 C1396 0.930 . S
H1391 C1400 0.930 . S
H1392 C1405 0.929 . S
H1393 C1403 0.929 . S
H1394 C1398 0.929 . S
H1395 C1404 0.929 . S
C1396 H1390 0.930 . S
C1396 C1397 1.367 . S
C1396 C1404 1.378 . S
C1397 C1396 1.367 . S
C1397 C1405 1.433 . S
C1398 H1394 0.929 . S
C1398 C1400 1.378 . S
C1398 C1402 1.350 . S
C1399 C1402 1.463 . S
C1399 C1404 1.350 . S
C1399 N1407 1.427 . S
C1400 H1391 0.930 . S
C1400 C1398 1.378 . S
C1400 C1401 1.367 . S
C1401 C1400 1.367 . S
C1401 C1403 1.433 . S
C1402 C1398 1.350 . S
C1402 C1399 1.463 . S
C1402 N1406 1.427 . S
C1403 H1393 0.929 . S
C1403 C1401 1.433 . S
C1403 N1406 1.384 . S
C1404 H1395 0.929 . S
C1404 C1396 1.378 . S
C1404 C1399 1.350 . S
C1405 H1392 0.929 . S
C1405 C1397 1.433 . S
C1405 N1407 1.384 . S
N1406 C1402 1.427 . S
N1406 C1403 1.384 . S
N1407 C1399 1.427 . S
N1407 C1405 1.384 . S
H1408 C1414 0.930 . S
H1409 C1418 0.930 . S
H1410 C1423 0.929 . S
H1411 C1421 0.929 . S
H1412 C1416 0.930 1_545 S
H1413 C1422 0.929 . S
C1414 H1408 0.930 . S
C1414 C1415 1.367 . S
C1414 C1422 1.378 . S
C1415 C1414 1.367 . S
C1415 C1423 1.433 . S
C1416 H1412 0.930 1_565 S
C1416 C1418 1.363 1_565 S
C1416 C1420 1.364 . S
C1417 C1420 1.463 . S
C1417 C1422 1.350 . S
C1417 N1425 1.427 . S
C1418 H1409 0.930 . S
C1418 C1416 1.363 1_545 S
C1418 C1419 1.367 . S
C1419 C1418 1.367 . S
C1419 C1421 1.433 1_545 S
C1420 C1416 1.364 . S
C1420 C1417 1.463 . S
C1420 N1424 1.427 . S
C1421 H1411 0.929 . S
C1421 C1419 1.433 1_565 S
C1421 N1424 1.384 . S
C1422 H1413 0.929 . S
C1422 C1414 1.378 . S
C1422 C1417 1.350 . S
C1423 H1410 0.929 . S
C1423 C1415 1.433 . S
C1423 N1425 1.384 . S
N1424 C1420 1.427 . S
N1424 C1421 1.384 . S
N1425 C1417 1.427 . S
N1425 C1423 1.384 . S
H1426 C1432 0.930 . S
H1427 C1436 0.930 . S
H1428 C1441 0.929 . S
H1429 C1439 0.929 . S
H1430 C1434 0.929 . S
H1431 C1440 0.929 . S
C1432 H1426 0.930 . S
C1432 C1433 1.367 . S
C1432 C1440 1.378 . S
C1433 C1432 1.367 . S
C1433 C1441 1.433 . S
C1434 H1430 0.929 . S
C1434 C1436 1.378 . S
C1434 C1438 1.350 . S
C1435 C1438 1.463 . S
C1435 C1440 1.350 . S
C1435 N1443 1.427 . S
C1436 H1427 0.930 . S
C1436 C1434 1.378 . S
C1436 C1437 1.367 . S
C1437 C1436 1.367 . S
C1437 C1439 1.433 . S
C1438 C1434 1.350 . S
C1438 C1435 1.463 . S
C1438 N1442 1.427 . S
C1439 H1429 0.929 . S
C1439 C1437 1.433 . S
C1439 N1442 1.384 . S
C1440 H1431 0.929 . S
C1440 C1432 1.378 . S
C1440 C1435 1.350 . S
C1441 H1428 0.929 . S
C1441 C1433 1.433 . S
C1441 N1443 1.384 . S
N1442 C1438 1.427 . S
N1442 C1439 1.384 . S
N1443 C1435 1.427 . S
N1443 C1441 1.384 . S
H1444 C1450 0.930 . S
H1445 C1454 0.930 . S
H1446 C1459 0.929 . S
H1447 C1457 0.929 . S
H1448 C1452 0.929 . S
H1449 C1458 0.929 . S
C1450 H1444 0.930 . S
C1450 C1451 1.367 . S
C1450 C1458 1.378 . S
C1451 C1450 1.367 . S
C1451 C1459 1.433 . S
C1452 H1448 0.929 . S
C1452 C1454 1.378 . S
C1452 C1456 1.350 . S
C1453 C1456 1.463 . S
C1453 C1458 1.350 . S
C1453 N1461 1.427 . S
C1454 H1445 0.930 . S
C1454 C1452 1.378 . S
C1454 C1455 1.367 . S
C1455 C1454 1.367 . S
C1455 C1457 1.433 . S
C1456 C1452 1.350 . S
C1456 C1453 1.463 . S
C1456 N1460 1.427 . S
C1457 H1447 0.929 . S
C1457 C1455 1.433 . S
C1457 N1460 1.384 . S
C1458 H1449 0.929 . S
C1458 C1450 1.378 . S
C1458 C1453 1.350 . S
C1459 H1446 0.929 . S
C1459 C1451 1.433 . S
C1459 N1461 1.384 . S
N1460 C1456 1.427 . S
N1460 C1457 1.384 . S
N1461 C1453 1.427 . S
N1461 C1459 1.384 . S
H1462 C1468 0.930 . S
H1463 C1472 0.930 . S
H1464 C1477 0.929 . S
H1465 C1475 0.929 . S
H1466 C1470 0.929 . S
H1467 C1476 0.929 . S
C1468 H1462 0.930 . S
C1468 C1469 1.367 . S
C1468 C1476 1.378 . S
C1469 C1468 1.367 . S
C1469 C1477 1.433 . S
C1470 H1466 0.929 . S
C1470 C1472 1.378 . S
C1470 C1474 1.350 . S
C1471 C1474 1.463 . S
C1471 C1476 1.350 . S
C1471 N1479 1.427 . S
C1472 H1463 0.930 . S
C1472 C1470 1.378 . S
C1472 C1473 1.367 . S
C1473 C1472 1.367 . S
C1473 C1475 1.433 . S
C1474 C1470 1.350 . S
C1474 C1471 1.463 . S
C1474 N1478 1.427 . S
C1475 H1465 0.929 . S
C1475 C1473 1.433 . S
C1475 N1478 1.384 . S
C1476 H1467 0.929 . S
C1476 C1468 1.378 . S
C1476 C1471 1.350 . S
C1477 H1464 0.929 . S
C1477 C1469 1.433 . S
C1477 N1479 1.384 . S
N1478 C1474 1.427 . S
N1478 C1475 1.384 . S
N1479 C1471 1.427 . S
N1479 C1477 1.384 . S
H1480 C1486 0.930 . S
H1481 C1490 0.930 . S
H1482 C1495 0.929 . S
H1483 C1493 0.929 . S
H1484 C1488 0.958 . S
H1485 C1494 0.929 . S
C1486 H1480 0.930 . S
C1486 C1487 1.367 . S
C1486 C1494 1.378 . S
C1487 C1486 1.367 . S
C1487 C1495 1.433 1_455 S
C1488 H1484 0.958 . S
C1488 C1490 1.378 . S
C1488 C1492 1.350 . S
C1489 C1492 1.463 . S
C1489 C1494 1.350 . S
C1489 N1497 1.427 . S
C1490 H1481 0.930 . S
C1490 C1488 1.378 . S
C1490 C1491 1.367 . S
C1491 C1490 1.367 . S
C1491 C1493 1.433 . S
C1492 C1488 1.350 . S
C1492 C1489 1.463 . S
C1492 N1496 1.427 . S
C1493 H1483 0.929 . S
C1493 C1491 1.433 . S
C1493 N1496 1.384 . S
C1494 H1485 0.929 . S
C1494 C1486 1.378 . S
C1494 C1489 1.350 . S
C1495 H1482 0.929 . S
C1495 C1487 1.433 1_655 S
C1495 N1497 1.384 1_655 S
N1496 C1492 1.427 . S
N1496 C1493 1.384 . S
N1497 C1489 1.427 . S
N1497 C1495 1.384 1_455 S
H1498 C1504 0.930 . S
H1499 C1508 0.930 . S
H1500 C1513 0.929 . S
H1501 C1511 0.929 . S
H1502 C1506 0.929 . S
H1503 C1512 0.929 . S
C1504 H1498 0.930 . S
C1504 C1505 1.367 . S
C1504 C1512 1.378 . S
C1505 C1504 1.367 . S
C1505 C1513 1.433 . S
C1506 H1502 0.929 . S
C1506 C1508 1.378 . S
C1506 C1510 1.350 . S
C1507 C1510 1.463 . S
C1507 C1512 1.350 . S
C1507 N1515 1.427 . S
C1508 H1499 0.930 . S
C1508 C1506 1.378 . S
C1508 C1509 1.367 . S
C1509 C1508 1.367 . S
C1509 C1511 1.433 . S
C1510 C1506 1.350 . S
C1510 C1507 1.463 . S
C1510 N1514 1.427 . S
C1511 H1501 0.929 . S
C1511 C1509 1.433 . S
C1511 N1514 1.384 . S
C1512 H1503 0.929 . S
C1512 C1504 1.378 . S
C1512 C1507 1.350 . S
C1513 H1500 0.929 . S
C1513 C1505 1.433 . S
C1513 N1515 1.384 . S
N1514 C1510 1.427 . S
N1514 C1511 1.384 . S
N1515 C1507 1.427 . S
N1515 C1513 1.384 . S
H1516 C1522 0.930 . S
H1517 C1526 0.930 1_545 S
H1518 C1531 0.929 . S
H1519 C1529 0.929 . S
H1520 C1524 0.929 . S
H1521 C1530 0.929 . S
C1522 H1516 0.930 . S
C1522 C1523 1.367 . S
C1522 C1530 1.378 . S
C1523 C1522 1.367 . S
C1523 C1531 1.433 . S
C1524 H1520 0.929 . S
C1524 C1526 1.378 . S
C1524 C1528 1.350 . S
C1525 C1528 1.463 . S
C1525 C1530 1.350 . S
C1525 N1533 1.427 . S
C1526 H1517 0.930 1_565 S
C1526 C1524 1.378 . S
C1526 C1527 1.367 1_556 S
C1527 C1526 1.367 1_554 S
C1527 C1529 1.433 . S
C1528 C1524 1.350 . S
C1528 C1525 1.463 . S
C1528 N1532 1.427 1_556 S
C1529 H1519 0.929 . S
C1529 C1527 1.433 . S
C1529 N1532 1.384 . S
C1530 H1521 0.929 . S
C1530 C1522 1.378 . S
C1530 C1525 1.350 . S
C1531 H1518 0.929 . S
C1531 C1523 1.433 . S
C1531 N1533 1.384 . S
N1532 C1528 1.427 1_554 S
N1532 C1529 1.384 . S
N1533 C1525 1.427 . S
N1533 C1531 1.384 . S
H1534 C1540 0.930 . S
H1535 C1544 0.930 . S
H1536 C1549 0.929 . S
H1537 C1547 0.929 . S
H1538 C1542 0.929 . S
H1539 C1548 0.929 . S
C1540 H1534 0.930 . S
C1540 C1541 1.367 . S
C1540 C1548 1.378 1_455 S
C1541 C1540 1.367 . S
C1541 C1549 1.433 . S
C1542 H1538 0.929 . S
C1542 C1544 1.378 . S
C1542 C1546 1.350 . S
C1543 C1546 1.463 . S
C1543 C1548 1.350 . S
C1543 N1551 1.427 . S
C1544 H1535 0.930 . S
C1544 C1542 1.378 . S
C1544 C1545 1.367 . S
C1545 C1544 1.367 . S
C1545 C1547 1.433 . S
C1546 C1542 1.350 . S
C1546 C1543 1.463 . S
C1546 N1550 1.427 . S
C1547 H1537 0.929 . S
C1547 C1545 1.433 . S
C1547 N1550 1.384 . S
C1548 H1539 0.929 . S
C1548 C1540 1.378 1_655 S
C1548 C1543 1.350 . S
C1549 H1536 0.929 . S
C1549 C1541 1.433 . S
C1549 N1551 1.384 1_455 S
N1550 C1546 1.427 . S
N1550 C1547 1.384 . S
N1551 C1543 1.427 . S
N1551 C1549 1.384 1_655 S
H1552 C1558 0.930 . S
H1553 C1562 0.930 . S
H1554 C1567 0.929 . S
H1555 C1565 0.929 . S
H1556 C1560 0.929 . S
H1557 C1566 0.929 . S
C1558 H1552 0.930 . S
C1558 C1559 1.367 . S
C1558 C1566 1.378 . S
C1559 C1558 1.367 . S
C1559 C1567 1.433 . S
C1560 H1556 0.929 . S
C1560 C1562 1.378 . S
C1560 C1564 1.350 . S
C1561 C1564 1.463 . S
C1561 C1566 1.350 . S
C1561 N1569 1.427 . S
C1562 H1553 0.930 . S
C1562 C1560 1.378 . S
C1562 C1563 1.367 . S
C1563 C1562 1.367 . S
C1563 C1565 1.433 . S
C1564 C1560 1.350 . S
C1564 C1561 1.463 . S
C1564 N1568 1.427 . S
C1565 H1555 0.929 . S
C1565 C1563 1.433 . S
C1565 N1568 1.384 . S
C1566 H1557 0.929 . S
C1566 C1558 1.378 . S
C1566 C1561 1.350 . S
C1567 H1554 0.929 . S
C1567 C1559 1.433 . S
C1567 N1569 1.384 . S
N1568 C1564 1.427 . S
N1568 C1565 1.384 . S
N1569 C1561 1.427 . S
N1569 C1567 1.384 . S
H1570 C1576 0.930 . S
H1571 C1580 0.930 . S
H1572 C1585 0.929 . S
H1573 C1583 0.929 . S
H1574 C1578 0.929 . S
H1575 C1584 0.929 . S
C1576 H1570 0.930 . S
C1576 C1577 1.367 . S
C1576 C1584 1.378 . S
C1577 C1576 1.367 . S
C1577 C1585 1.433 . S
C1578 H1574 0.929 . S
C1578 C1580 1.378 . S
C1578 C1582 1.350 . S
C1579 C1582 1.463 . S
C1579 C1584 1.350 . S
C1579 N1587 1.427 . S
C1580 H1571 0.930 . S
C1580 C1578 1.378 . S
C1580 C1581 1.367 . S
C1581 C1580 1.367 . S
C1581 C1583 1.433 . S
C1582 C1578 1.350 . S
C1582 C1579 1.463 . S
C1582 N1586 1.427 . S
C1583 H1573 0.929 . S
C1583 C1581 1.433 . S
C1583 N1586 1.384 . S
C1584 H1575 0.929 . S
C1584 C1576 1.378 . S
C1584 C1579 1.350 . S
C1585 H1572 0.929 . S
C1585 C1577 1.433 . S
C1585 N1587 1.384 . S
N1586 C1582 1.427 . S
N1586 C1583 1.384 . S
N1587 C1579 1.427 . S
N1587 C1585 1.384 . S
H1588 C1594 0.930 . S
H1589 C1598 0.930 . S
H1590 C1603 0.929 . S
H1591 C1601 0.929 . S
H1592 C1596 0.929 . S
H1593 C1602 0.929 . S
C1594 H1588 0.930 . S
C1594 C1595 1.367 . S
C1594 C1602 1.378 . S
C1595 C1594 1.367 . S
C1595 C1603 1.433 . S
C1596 H1592 0.929 . S
C1596 C1598 1.378 . S
C1596 C1600 1.350 . S
C1597 C1600 1.463 . S
C1597 C1602 1.350 . S
C1597 N1605 1.427 . S
C1598 H1589 0.930 . S
C1598 C1596 1.378 . S
C1598 C1599 1.367 . S
C1599 C1598 1.367 . S
C1599 C1601 1.433 . S
C1600 C1596 1.350 . S
C1600 C1597 1.463 . S
C1600 N1604 1.427 . S
C1601 H1591 0.929 . S
C1601 C1599 1.433 . S
C1601 N1604 1.384 . S
C1602 H1593 0.929 . S
C1602 C1594 1.378 . S
C1602 C1597 1.350 . S
C1603 H1590 0.929 . S
C1603 C1595 1.433 . S
C1603 N1605 1.384 . S
N1604 C1600 1.427 . S
N1604 C1601 1.384 . S
N1605 C1597 1.427 . S
N1605 C1603 1.384 . S
H1606 C1612 0.930 . S
H1607 C1616 0.930 . S
H1608 C1621 0.929 . S
H1609 C1619 0.929 . S
H1610 C1614 0.929 . S
H1611 C1620 0.929 . S
C1612 H1606 0.930 . S
C1612 C1613 1.367 . S
C1612 C1620 1.378 . S
C1613 C1612 1.367 . S
C1613 C1621 1.433 . S
C1614 H1610 0.929 . S
C1614 C1616 1.378 . S
C1614 C1618 1.350 . S
C1615 C1618 1.463 . S
C1615 C1620 1.350 . S
C1615 N1623 1.427 . S
C1616 H1607 0.930 . S
C1616 C1614 1.378 . S
C1616 C1617 1.367 . S
C1617 C1616 1.367 . S
C1617 C1619 1.433 . S
C1618 C1614 1.350 . S
C1618 C1615 1.463 . S
C1618 N1622 1.427 . S
C1619 H1609 0.929 . S
C1619 C1617 1.433 . S
C1619 N1622 1.384 . S
C1620 H1611 0.929 . S
C1620 C1612 1.378 . S
C1620 C1615 1.350 . S
C1621 H1608 0.929 . S
C1621 C1613 1.433 . S
C1621 N1623 1.384 . S
N1622 C1618 1.427 . S
N1622 C1619 1.384 . S
N1623 C1615 1.427 . S
N1623 C1621 1.384 . S
H1624 C1630 0.930 . S
H1625 C1634 0.930 . S
H1626 C1639 0.929 . S
H1627 C1637 0.929 . S
H1628 C1632 0.929 . S
H1629 C1638 0.929 . S
C1630 H1624 0.930 . S
C1630 C1631 1.367 . S
C1630 C1638 1.378 . S
C1631 C1630 1.367 . S
C1631 C1639 1.433 . S
C1632 H1628 0.929 . S
C1632 C1634 1.378 . S
C1632 C1636 1.350 . S
C1633 C1636 1.463 . S
C1633 C1638 1.350 . S
C1633 N1641 1.427 . S
C1634 H1625 0.930 . S
C1634 C1632 1.378 . S
C1634 C1635 1.367 . S
C1635 C1634 1.367 . S
C1635 C1637 1.433 . S
C1636 C1632 1.350 . S
C1636 C1633 1.463 . S
C1636 N1640 1.427 . S
C1637 H1627 0.929 . S
C1637 C1635 1.433 . S
C1637 N1640 1.384 . S
C1638 H1629 0.929 . S
C1638 C1630 1.378 . S
C1638 C1633 1.350 . S
C1639 H1626 0.929 . S
C1639 C1631 1.433 . S
C1639 N1641 1.384 . S
N1640 C1636 1.427 . S
N1640 C1637 1.384 . S
N1641 C1633 1.427 . S
N1641 C1639 1.384 . S
H1642 C1648 0.930 . S
H1643 C1652 0.930 . S
H1644 C1657 0.929 . S
H1645 C1655 0.929 . S
H1646 C1650 0.929 . S
H1647 C1656 0.929 . S
C1648 H1642 0.930 . S
C1648 C1649 1.367 . S
C1648 C1656 1.378 . S
C1649 C1648 1.367 . S
C1649 C1657 1.433 . S
C1650 H1646 0.929 . S
C1650 C1652 1.378 . S
C1650 C1654 1.350 . S
C1651 C1654 1.463 . S
C1651 C1656 1.350 . S
C1651 N1659 1.427 . S
C1652 H1643 0.930 . S
C1652 C1650 1.378 . S
C1652 C1653 1.367 . S
C1653 C1652 1.367 . S
C1653 C1655 1.433 . S
C1654 C1650 1.350 . S
C1654 C1651 1.463 . S
C1654 N1658 1.427 . S
C1655 H1645 0.929 . S
C1655 C1653 1.433 . S
C1655 N1658 1.384 . S
C1656 H1647 0.929 . S
C1656 C1648 1.378 . S
C1656 C1651 1.350 . S
C1657 H1644 0.929 . S
C1657 C1649 1.433 . S
C1657 N1659 1.384 . S
N1658 C1654 1.427 . S
N1658 C1655 1.384 . S
N1659 C1651 1.427 . S
N1659 C1657 1.384 . S
H1660 C1666 0.930 . S
H1661 C1670 0.930 . S
H1662 C1675 0.929 . S
H1663 C1673 0.929 . S
H1664 C1668 0.929 . S
H1665 C1674 0.929 . S
C1666 H1660 0.930 . S
C1666 C1667 1.367 . S
C1666 C1674 1.378 . S
C1667 C1666 1.367 . S
C1667 C1675 1.433 . S
C1668 H1664 0.929 . S
C1668 C1670 1.378 . S
C1668 C1672 1.350 . S
C1669 C1672 1.463 . S
C1669 C1674 1.350 . S
C1669 N1677 1.427 . S
C1670 H1661 0.930 . S
C1670 C1668 1.378 . S
C1670 C1671 1.367 . S
C1671 C1670 1.367 . S
C1671 C1673 1.433 . S
C1672 C1668 1.350 . S
C1672 C1669 1.463 . S
C1672 N1676 1.427 . S
C1673 H1663 0.929 . S
C1673 C1671 1.433 . S
C1673 N1676 1.384 . S
C1674 H1665 0.929 . S
C1674 C1666 1.378 . S
C1674 C1669 1.350 . S
C1675 H1662 0.929 . S
C1675 C1667 1.433 . S
C1675 N1677 1.384 . S
N1676 C1672 1.427 . S
N1676 C1673 1.384 . S
N1677 C1669 1.427 . S
N1677 C1675 1.384 . S
H1678 C1684 0.930 . S
H1679 C1688 0.930 . S
H1680 C1693 0.929 . S
H1681 C1691 0.929 . S
H1682 C1686 0.929 . S
H1683 C1692 0.929 . S
C1684 H1678 0.930 . S
C1684 C1685 1.367 . S
C1684 C1692 1.378 . S
C1685 C1684 1.367 . S
C1685 C1693 1.433 . S
C1686 H1682 0.929 . S
C1686 C1688 1.378 . S
C1686 C1690 1.350 . S
C1687 C1690 1.463 . S
C1687 C1692 1.350 . S
C1687 N1695 1.427 . S
C1688 H1679 0.930 . S
C1688 C1686 1.378 . S
C1688 C1689 1.367 . S
C1689 C1688 1.367 . S
C1689 C1691 1.433 . S
C1690 C1686 1.350 . S
C1690 C1687 1.463 . S
C1690 N1694 1.427 . S
C1691 H1681 0.929 . S
C1691 C1689 1.433 . S
C1691 N1694 1.384 . S
C1692 H1683 0.929 . S
C1692 C1684 1.378 . S
C1692 C1687 1.350 . S
C1693 H1680 0.929 . S
C1693 C1685 1.433 . S
C1693 N1695 1.384 . S
N1694 C1690 1.427 . S
N1694 C1691 1.384 . S
N1695 C1687 1.427 . S
N1695 C1693 1.384 . S
H1696 C1702 0.930 . S
H1697 C1706 0.930 . S
H1698 C1711 0.929 . S
H1699 C1709 0.929 . S
H1700 C1704 0.929 . S
H1701 C1710 0.929 . S
C1702 H1696 0.930 . S
C1702 C1703 1.367 1_556 S
C1702 C1710 1.378 . S
C1703 C1702 1.367 1_554 S
C1703 C1711 1.433 . S
C1704 H1700 0.929 . S
C1704 C1706 1.378 . S
C1704 C1708 1.350 1_554 S
C1705 C1708 1.463 . S
C1705 C1710 1.350 . S
C1705 N1713 1.427 1_556 S
C1706 H1697 0.930 . S
C1706 C1704 1.378 . S
C1706 C1707 1.367 1_554 S
C1707 C1706 1.367 1_556 S
C1707 C1709 1.433 . S
C1708 C1704 1.350 1_556 S
C1708 C1705 1.463 . S
C1708 N1712 1.427 . S
C1709 H1699 0.929 . S
C1709 C1707 1.433 . S
C1709 N1712 1.384 . S
C1710 H1701 0.929 . S
C1710 C1702 1.378 . S
C1710 C1705 1.350 . S
C1711 H1698 0.929 . S
C1711 C1703 1.433 . S
C1711 N1713 1.384 . S
N1712 C1708 1.427 . S
N1712 C1709 1.384 . S
N1713 C1705 1.427 1_554 S
N1713 C1711 1.384 . S
H1714 C1720 0.930 . S
H1715 C1724 0.930 . S
H1716 C1729 0.929 . S
H1717 C1727 0.929 . S
H1718 C1722 0.929 . S
H1719 C1728 0.929 . S
C1720 H1714 0.930 . S
C1720 C1721 1.367 . S
C1720 C1728 1.378 . S
C1721 C1720 1.367 . S
C1721 C1729 1.433 . S
C1722 H1718 0.929 . S
C1722 C1724 1.378 . S
C1722 C1726 1.350 . S
C1723 C1726 1.463 . S
C1723 C1728 1.350 . S
C1723 N1731 1.427 . S
C1724 H1715 0.930 . S
C1724 C1722 1.378 . S
C1724 C1725 1.367 . S
C1725 C1724 1.367 . S
C1725 C1727 1.433 . S
C1726 C1722 1.350 . S
C1726 C1723 1.463 . S
C1726 N1730 1.427 . S
C1727 H1717 0.929 . S
C1727 C1725 1.433 . S
C1727 N1730 1.384 . S
C1728 H1719 0.929 . S
C1728 C1720 1.378 . S
C1728 C1723 1.350 . S
C1729 H1716 0.929 . S
C1729 C1721 1.433 . S
C1729 N1731 1.384 . S
N1730 C1726 1.427 . S
N1730 C1727 1.384 . S
N1731 C1723 1.427 . S
N1731 C1729 1.384 . S
H1732 C1738 0.930 . S
H1733 C1742 0.930 . S
H1734 C1747 0.929 . S
H1735 C1745 0.929 . S
H1736 C1740 0.929 . S
H1737 C1746 0.929 . S
C1738 H1732 0.930 . S
C1738 C1739 1.367 . S
C1738 C1746 1.378 . S
C1739 C1738 1.367 . S
C1739 C1747 1.433 . S
C1740 H1736 0.929 . S
C1740 C1742 1.378 . S
C1740 C1744 1.350 . S
C1741 C1744 1.463 . S
C1741 C1746 1.350 . S
C1741 N1749 1.427 . S
C1742 H1733 0.930 . S
C1742 C1740 1.378 . S
C1742 C1743 1.367 . S
C1743 C1742 1.367 . S
C1743 C1745 1.433 . S
C1744 C1740 1.350 . S
C1744 C1741 1.463 . S
C1744 N1748 1.427 . S
C1745 H1735 0.929 . S
C1745 C1743 1.433 . S
C1745 N1748 1.384 . S
C1746 H1737 0.929 . S
C1746 C1738 1.378 . S
C1746 C1741 1.350 . S
C1747 H1734 0.929 . S
C1747 C1739 1.433 . S
C1747 N1749 1.384 . S
N1748 C1744 1.427 . S
N1748 C1745 1.384 . S
N1749 C1741 1.427 . S
N1749 C1747 1.384 . S
H1750 C1756 0.930 . S
H1751 C1760 0.930 . S
H1752 C1765 0.929 . S
H1753 C1763 0.929 . S
H1754 C1758 0.929 . S
H1755 C1764 0.929 . S
C1756 H1750 0.930 . S
C1756 C1757 1.367 . S
C1756 C1764 1.378 . S
C1757 C1756 1.367 . S
C1757 C1765 1.433 . S
C1758 H1754 0.929 . S
C1758 C1760 1.378 . S
C1758 C1762 1.350 . S
C1759 C1762 1.463 . S
C1759 C1764 1.350 . S
C1759 N1767 1.427 . S
C1760 H1751 0.930 . S
C1760 C1758 1.378 . S
C1760 C1761 1.367 . S
C1761 C1760 1.367 . S
C1761 C1763 1.433 . S
C1762 C1758 1.350 . S
C1762 C1759 1.463 . S
C1762 N1766 1.427 . S
C1763 H1753 0.929 . S
C1763 C1761 1.433 . S
C1763 N1766 1.384 . S
C1764 H1755 0.929 . S
C1764 C1756 1.378 . S
C1764 C1759 1.350 . S
C1765 H1752 0.929 . S
C1765 C1757 1.433 . S
C1765 N1767 1.384 . S
N1766 C1762 1.427 . S
N1766 C1763 1.384 . S
N1767 C1759 1.427 . S
N1767 C1765 1.384 . S
H1768 C1774 0.930 . S
H1769 C1778 0.930 . S
H1770 C1783 0.929 . S
H1771 C1781 0.929 . S
H1772 C1776 0.929 . S
H1773 C1782 0.929 . S
C1774 H1768 0.930 . S
C1774 C1775 1.367 . S
C1774 C1782 1.378 . S
C1775 C1774 1.367 . S
C1775 C1783 1.433 . S
C1776 H1772 0.929 . S
C1776 C1778 1.378 . S
C1776 C1780 1.350 . S
C1777 C1780 1.463 . S
C1777 C1782 1.350 . S
C1777 N1785 1.427 . S
C1778 H1769 0.930 . S
C1778 C1776 1.378 . S
C1778 C1779 1.367 . S
C1779 C1778 1.367 . S
C1779 C1781 1.433 . S
C1780 C1776 1.350 . S
C1780 C1777 1.463 . S
C1780 N1784 1.427 . S
C1781 H1771 0.929 . S
C1781 C1779 1.433 . S
C1781 N1784 1.384 . S
C1782 H1773 0.929 . S
C1782 C1774 1.378 . S
C1782 C1777 1.350 . S
C1783 H1770 0.929 . S
C1783 C1775 1.433 . S
C1783 N1785 1.384 . S
N1784 C1780 1.427 . S
N1784 C1781 1.384 . S
N1785 C1777 1.427 . S
N1785 C1783 1.384 . S
H1786 C1792 0.930 . S
H1787 C1796 0.930 . S
H1788 C1801 0.929 . S
H1789 C1799 0.929 . S
H1790 C1794 0.929 . S
H1791 C1800 0.929 . S
C1792 H1786 0.930 . S
C1792 C1793 1.367 . S
C1792 C1800 1.378 . S
C1793 C1792 1.367 . S
C1793 C1801 1.433 . S
C1794 H1790 0.929 . S
C1794 C1796 1.378 1_565 S
C1794 C1798 1.350 . S
C1795 C1798 1.463 . S
C1795 C1800 1.350 . S
C1795 N1803 1.427 . S
C1796 H1787 0.930 . S
C1796 C1794 1.378 1_545 S
C1796 C1797 1.367 . S
C1797 C1796 1.367 . S
C1797 C1799 1.433 . S
C1798 C1794 1.350 . S
C1798 C1795 1.463 . S
C1798 N1802 1.414 1_565 S
C1799 H1789 0.929 . S
C1799 C1797 1.433 . S
C1799 N1802 1.410 . S
C1800 H1791 0.929 . S
C1800 C1792 1.378 . S
C1800 C1795 1.350 . S
C1801 H1788 0.929 . S
C1801 C1793 1.433 . S
C1801 N1803 1.384 . S
N1802 C1798 1.414 1_545 S
N1802 C1799 1.410 . S
N1803 C1795 1.427 . S
N1803 C1801 1.384 . S
H1804 C1810 0.930 . S
H1805 C1814 0.930 . S
H1806 C1819 0.929 . S
H1807 C1817 0.929 . S
H1808 C1812 0.929 . S
H1809 C1818 0.929 . S
C1810 H1804 0.930 . S
C1810 C1811 1.367 . S
C1810 C1818 1.378 . S
C1811 C1810 1.367 . S
C1811 C1819 1.433 . S
C1812 H1808 0.929 . S
C1812 C1814 1.378 . S
C1812 C1816 1.350 . S
C1813 C1816 1.463 . S
C1813 C1818 1.350 . S
C1813 N1821 1.427 . S
C1814 H1805 0.930 . S
C1814 C1812 1.378 . S
C1814 C1815 1.367 . S
C1815 C1814 1.367 . S
C1815 C1817 1.433 . S
C1816 C1812 1.350 . S
C1816 C1813 1.463 . S
C1816 N1820 1.427 . S
C1817 H1807 0.929 . S
C1817 C1815 1.433 . S
C1817 N1820 1.384 . S
C1818 H1809 0.929 . S
C1818 C1810 1.378 . S
C1818 C1813 1.350 . S
C1819 H1806 0.929 . S
C1819 C1811 1.433 . S
C1819 N1821 1.384 . S
N1820 C1816 1.427 . S
N1820 C1817 1.384 . S
N1821 C1813 1.427 . S
N1821 C1819 1.384 . S
H1822 C1828 0.930 . S
H1823 C1832 0.930 . S
H1824 C1837 0.929 . S
H1825 C1835 0.929 . S
H1826 C1830 0.929 . S
H1827 C1836 0.929 . S
C1828 H1822 0.930 . S
C1828 C1829 1.367 . S
C1828 C1836 1.378 . S
C1829 C1828 1.367 . S
C1829 C1837 1.433 . S
C1830 H1826 0.929 . S
C1830 C1832 1.378 . S
C1830 C1834 1.350 . S
C1831 C1834 1.463 . S
C1831 C1836 1.350 . S
C1831 N1839 1.427 . S
C1832 H1823 0.930 . S
C1832 C1830 1.378 . S
C1832 C1833 1.367 . S
C1833 C1832 1.367 . S
C1833 C1835 1.433 . S
C1834 C1830 1.350 . S
C1834 C1831 1.463 . S
C1834 N1838 1.427 . S
C1835 H1825 0.929 . S
C1835 C1833 1.433 . S
C1835 N1838 1.384 . S
C1836 H1827 0.929 . S
C1836 C1828 1.378 . S
C1836 C1831 1.350 . S
C1837 H1824 0.929 . S
C1837 C1829 1.433 . S
C1837 N1839 1.384 . S
N1838 C1834 1.427 . S
N1838 C1835 1.384 . S
N1839 C1831 1.427 . S
N1839 C1837 1.384 . S
H1840 C1846 0.930 . S
H1841 C1850 0.930 . S
H1842 C1855 0.929 . S
H1843 C1853 0.929 . S
H1844 C1848 0.929 . S
H1845 C1854 0.929 . S
C1846 H1840 0.930 . S
C1846 C1847 1.367 . S
C1846 C1854 1.378 . S
C1847 C1846 1.367 . S
C1847 C1855 1.433 . S
C1848 H1844 0.929 . S
C1848 C1850 1.378 . S
C1848 C1852 1.350 . S
C1849 C1852 1.463 . S
C1849 C1854 1.350 . S
C1849 N1857 1.427 . S
C1850 H1841 0.930 . S
C1850 C1848 1.378 . S
C1850 C1851 1.367 . S
C1851 C1850 1.367 . S
C1851 C1853 1.433 . S
C1852 C1848 1.350 . S
C1852 C1849 1.463 . S
C1852 N1856 1.427 . S
C1853 H1843 0.929 . S
C1853 C1851 1.433 . S
C1853 N1856 1.384 . S
C1854 H1845 0.929 . S
C1854 C1846 1.378 . S
C1854 C1849 1.350 . S
C1855 H1842 0.929 . S
C1855 C1847 1.433 . S
C1855 N1857 1.384 . S
N1856 C1852 1.427 . S
N1856 C1853 1.384 . S
N1857 C1849 1.427 . S
N1857 C1855 1.384 . S
H1858 C1864 0.930 . S
H1859 C1868 0.930 . S
H1860 C1873 0.929 . S
H1861 C1871 0.929 . S
H1862 C1866 0.929 . S
H1863 C1872 0.929 . S
C1864 H1858 0.930 . S
C1864 C1865 1.367 . S
C1864 C1872 1.378 . S
C1865 C1864 1.367 . S
C1865 C1873 1.433 . S
C1866 H1862 0.929 . S
C1866 C1868 1.378 . S
C1866 C1870 1.350 . S
C1867 C1870 1.463 . S
C1867 C1872 1.350 . S
C1867 N1875 1.427 . S
C1868 H1859 0.930 . S
C1868 C1866 1.378 . S
C1868 C1869 1.367 . S
C1869 C1868 1.367 . S
C1869 C1871 1.433 . S
C1870 C1866 1.350 . S
C1870 C1867 1.463 . S
C1870 N1874 1.427 . S
C1871 H1861 0.929 . S
C1871 C1869 1.433 . S
C1871 N1874 1.384 . S
C1872 H1863 0.929 . S
C1872 C1864 1.378 . S
C1872 C1867 1.350 . S
C1873 H1860 0.929 . S
C1873 C1865 1.433 . S
C1873 N1875 1.384 . S
N1874 C1870 1.427 . S
N1874 C1871 1.384 . S
N1875 C1867 1.427 . S
N1875 C1873 1.384 . S
H1876 C1882 0.930 . S
H1877 C1886 0.930 . S
H1878 C1891 0.929 . S
H1879 C1889 0.929 . S
H1880 C1884 0.929 . S
H1881 C1890 0.929 1_554 S
C1882 H1876 0.930 . S
C1882 C1883 1.367 . S
C1882 C1890 1.378 . S
C1883 C1882 1.367 . S
C1883 C1891 1.433 . S
C1884 H1880 0.929 . S
C1884 C1886 1.378 . S
C1884 C1888 1.350 . S
C1885 C1888 1.463 . S
C1885 C1890 1.350 . S
C1885 N1893 1.427 . S
C1886 H1877 0.930 . S
C1886 C1884 1.378 . S
C1886 C1887 1.367 1_556 S
C1887 C1886 1.367 1_554 S
C1887 C1889 1.433 . S
C1888 C1884 1.350 . S
C1888 C1885 1.463 . S
C1888 N1892 1.427 1_556 S
C1889 H1879 0.929 . S
C1889 C1887 1.433 . S
C1889 N1892 1.384 . S
C1890 H1881 0.929 1_556 S
C1890 C1882 1.378 . S
C1890 C1885 1.350 . S
C1891 H1878 0.929 . S
C1891 C1883 1.433 . S
C1891 N1893 1.384 . S
N1892 C1888 1.427 1_554 S
N1892 C1889 1.384 . S
N1893 C1885 1.427 . S
N1893 C1891 1.384 . S
H1894 C1900 0.939 . S
H1895 C1904 0.930 . S
H1896 C1909 0.929 1_455 S
H1897 C1907 0.929 . S
H1898 C1902 0.929 . S
H1899 C1908 0.929 . S
C1900 H1894 0.939 . S
C1900 C1901 1.391 . S
C1900 C1908 1.346 1_455 S
C1901 C1900 1.391 . S
C1901 C1909 1.433 1_455 S
C1902 H1898 0.929 . S
C1902 C1904 1.378 . S
C1902 C1906 1.350 . S
C1903 C1906 1.463 . S
C1903 C1908 1.350 . S
C1903 N1911 1.427 . S
C1904 H1895 0.930 . S
C1904 C1902 1.378 . S
C1904 C1905 1.367 . S
C1905 C1904 1.367 . S
C1905 C1907 1.433 . S
C1906 C1902 1.350 . S
C1906 C1903 1.463 . S
C1906 N1910 1.427 . S
C1907 H1897 0.929 . S
C1907 C1905 1.433 . S
C1907 N1910 1.384 . S
C1908 H1899 0.929 . S
C1908 C1900 1.346 1_655 S
C1908 C1903 1.350 . S
C1909 H1896 0.929 1_655 S
C1909 C1901 1.433 1_655 S
C1909 N1911 1.384 . S
N1910 C1906 1.427 . S
N1910 C1907 1.384 . S
N1911 C1903 1.427 . S
N1911 C1909 1.384 . S
H1912 C1918 0.930 . S
H1913 C1922 0.930 . S
H1914 C1927 0.929 . S
H1915 C1925 0.929 . S
H1916 C1920 0.929 . S
H1917 C1926 0.929 . S
C1918 H1912 0.930 . S
C1918 C1919 1.367 . S
C1918 C1926 1.378 . S
C1919 C1918 1.367 . S
C1919 C1927 1.433 . S
C1920 H1916 0.929 . S
C1920 C1922 1.378 . S
C1920 C1924 1.350 . S
C1921 C1924 1.463 . S
C1921 C1926 1.350 . S
C1921 N1929 1.427 . S
C1922 H1913 0.930 . S
C1922 C1920 1.378 . S
C1922 C1923 1.367 . S
C1923 C1922 1.367 . S
C1923 C1925 1.433 . S
C1924 C1920 1.350 . S
C1924 C1921 1.463 . S
C1924 N1928 1.427 . S
C1925 H1915 0.929 . S
C1925 C1923 1.433 . S
C1925 N1928 1.384 . S
C1926 H1917 0.929 . S
C1926 C1918 1.378 . S
C1926 C1921 1.350 . S
C1927 H1914 0.929 . S
C1927 C1919 1.433 . S
C1927 N1929 1.384 . S
N1928 C1924 1.427 . S
N1928 C1925 1.384 . S
N1929 C1921 1.427 . S
N1929 C1927 1.384 . S
H1930 C1936 0.930 . S
H1931 C1940 0.930 . S
H1932 C1945 0.929 . S
H1933 C1943 0.929 . S
H1934 C1938 0.929 . S
H1935 C1944 0.929 . S
C1936 H1930 0.930 . S
C1936 C1937 1.367 . S
C1936 C1944 1.378 . S
C1937 C1936 1.367 . S
C1937 C1945 1.433 . S
C1938 H1934 0.929 . S
C1938 C1940 1.378 . S
C1938 C1942 1.350 . S
C1939 C1942 1.463 . S
C1939 C1944 1.350 . S
C1939 N1947 1.427 . S
C1940 H1931 0.930 . S
C1940 C1938 1.378 . S
C1940 C1941 1.367 . S
C1941 C1940 1.367 . S
C1941 C1943 1.433 . S
C1942 C1938 1.350 . S
C1942 C1939 1.463 . S
C1942 N1946 1.427 . S
C1943 H1933 0.929 . S
C1943 C1941 1.433 . S
C1943 N1946 1.384 . S
C1944 H1935 0.929 . S
C1944 C1936 1.378 . S
C1944 C1939 1.350 . S
C1945 H1932 0.929 . S
C1945 C1937 1.433 . S
C1945 N1947 1.384 . S
N1946 C1942 1.427 . S
N1946 C1943 1.384 . S
N1947 C1939 1.427 . S
N1947 C1945 1.384 . S
H1948 C1954 0.930 . S
H1949 C1958 0.930 . S
H1950 C1963 0.929 . S
H1951 C1961 0.929 . S
H1952 C1956 0.929 . S
H1953 C1962 0.929 . S
C1954 H1948 0.930 . S
C1954 C1955 1.367 . S
C1954 C1962 1.378 . S
C1955 C1954 1.367 . S
C1955 C1963 1.433 . S
C1956 H1952 0.929 . S
C1956 C1958 1.378 . S
C1956 C1960 1.350 . S
C1957 C1960 1.463 . S
C1957 C1962 1.350 . S
C1957 N1965 1.427 . S
C1958 H1949 0.930 . S
C1958 C1956 1.378 . S
C1958 C1959 1.367 . S
C1959 C1958 1.367 . S
C1959 C1961 1.433 . S
C1960 C1956 1.350 . S
C1960 C1957 1.463 . S
C1960 N1964 1.427 . S
C1961 H1951 0.929 . S
C1961 C1959 1.433 . S
C1961 N1964 1.384 . S
C1962 H1953 0.929 . S
C1962 C1954 1.378 . S
C1962 C1957 1.350 . S
C1963 H1950 0.929 . S
C1963 C1955 1.433 . S
C1963 N1965 1.384 . S
N1964 C1960 1.427 . S
N1964 C1961 1.384 . S
N1965 C1957 1.427 . S
N1965 C1963 1.384 . S
H1966 C1972 0.930 . S
H1967 C1976 0.930 . S
H1968 C1981 0.929 . S
H1969 C1979 0.929 . S
H1970 C1974 0.929 . S
H1971 C1980 0.929 . S
C1972 H1966 0.930 . S
C1972 C1973 1.367 . S
C1972 C1980 1.378 . S
C1973 C1972 1.367 . S
C1973 C1981 1.433 . S
C1974 H1970 0.929 . S
C1974 C1976 1.378 . S
C1974 C1978 1.350 . S
C1975 C1978 1.463 . S
C1975 C1980 1.350 . S
C1975 N1983 1.427 . S
C1976 H1967 0.930 . S
C1976 C1974 1.378 . S
C1976 C1977 1.367 . S
C1977 C1976 1.367 . S
C1977 C1979 1.433 . S
C1978 C1974 1.350 . S
C1978 C1975 1.463 . S
C1978 N1982 1.427 . S
C1979 H1969 0.929 . S
C1979 C1977 1.433 . S
C1979 N1982 1.384 . S
C1980 H1971 0.929 . S
C1980 C1972 1.378 . S
C1980 C1975 1.350 . S
C1981 H1968 0.929 . S
C1981 C1973 1.433 . S
C1981 N1983 1.384 . S
N1982 C1978 1.427 . S
N1982 C1979 1.384 . S
N1983 C1975 1.427 . S
N1983 C1981 1.384 . S
H1984 C1990 0.930 . S
H1985 C1994 0.930 . S
H1986 C1999 0.929 . S
H1987 C1997 0.929 . S
H1988 C1992 0.929 . S
H1989 C1998 0.929 . S
C1990 H1984 0.930 . S
C1990 C1991 1.367 . S
C1990 C1998 1.378 . S
C1991 C1990 1.367 . S
C1991 C1999 1.433 . S
C1992 H1988 0.929 . S
C1992 C1994 1.378 . S
C1992 C1996 1.350 . S
C1993 C1996 1.463 . S
C1993 C1998 1.350 . S
C1993 N2001 1.427 . S
C1994 H1985 0.930 . S
C1994 C1992 1.378 . S
C1994 C1995 1.367 . S
C1995 C1994 1.367 . S
C1995 C1997 1.433 . S
C1996 C1992 1.350 . S
C1996 C1993 1.463 . S
C1996 N2000 1.427 . S
C1997 H1987 0.929 . S
C1997 C1995 1.433 . S
C1997 N2000 1.384 . S
C1998 H1989 0.929 . S
C1998 C1990 1.378 . S
C1998 C1993 1.350 . S
C1999 H1986 0.929 . S
C1999 C1991 1.433 . S
C1999 N2001 1.384 . S
N2000 C1996 1.427 . S
N2000 C1997 1.384 . S
N2001 C1993 1.427 . S
N2001 C1999 1.384 . S
H2002 C2008 0.930 . S
H2003 C2012 0.930 . S
H2004 C2017 0.929 . S
H2005 C2015 0.929 . S
H2006 C2010 0.929 . S
H2007 C2016 0.929 . S
C2008 H2002 0.930 . S
C2008 C2009 1.367 . S
C2008 C2016 1.378 . S
C2009 C2008 1.367 . S
C2009 C2017 1.433 . S
C2010 H2006 0.929 . S
C2010 C2012 1.378 . S
C2010 C2014 1.350 . S
C2011 C2014 1.463 . S
C2011 C2016 1.350 . S
C2011 N2019 1.427 . S
C2012 H2003 0.930 . S
C2012 C2010 1.378 . S
C2012 C2013 1.367 . S
C2013 C2012 1.367 . S
C2013 C2015 1.433 . S
C2014 C2010 1.350 . S
C2014 C2011 1.463 . S
C2014 N2018 1.427 . S
C2015 H2005 0.929 . S
C2015 C2013 1.433 . S
C2015 N2018 1.384 . S
C2016 H2007 0.929 . S
C2016 C2008 1.378 . S
C2016 C2011 1.350 . S
C2017 H2004 0.929 . S
C2017 C2009 1.433 . S
C2017 N2019 1.384 . S
N2018 C2014 1.427 . S
N2018 C2015 1.384 . S
N2019 C2011 1.427 . S
N2019 C2017 1.384 . S
H2020 C2026 0.930 . S
H2021 C2030 0.930 . S
H2022 C2035 0.929 . S
H2023 C2033 0.929 . S
H2024 C2028 0.929 . S
H2025 C2034 0.929 . S
C2026 H2020 0.930 . S
C2026 C2027 1.367 . S
C2026 C2034 1.378 . S
C2027 C2026 1.367 . S
C2027 C2035 1.433 . S
C2028 H2024 0.929 . S
C2028 C2030 1.378 . S
C2028 C2032 1.350 . S
C2029 C2032 1.463 . S
C2029 C2034 1.350 . S
C2029 N2037 1.427 . S
C2030 H2021 0.930 . S
C2030 C2028 1.378 . S
C2030 C2031 1.367 . S
C2031 C2030 1.367 . S
C2031 C2033 1.433 . S
C2032 C2028 1.350 . S
C2032 C2029 1.463 . S
C2032 N2036 1.427 . S
C2033 H2023 0.929 . S
C2033 C2031 1.433 . S
C2033 N2036 1.384 . S
C2034 H2025 0.929 . S
C2034 C2026 1.378 . S
C2034 C2029 1.350 . S
C2035 H2022 0.929 . S
C2035 C2027 1.433 . S
C2035 N2037 1.384 . S
N2036 C2032 1.427 . S
N2036 C2033 1.384 . S
N2037 C2029 1.427 . S
N2037 C2035 1.384 . S
H2038 C2044 0.930 . S
H2039 C2048 0.930 . S
H2040 C2053 0.929 . S
H2041 C2051 0.929 . S
H2042 C2046 0.929 . S
H2043 C2052 0.929 . S
C2044 H2038 0.930 . S
C2044 C2045 1.367 . S
C2044 C2052 1.378 . S
C2045 C2044 1.367 . S
C2045 C2053 1.433 . S
C2046 H2042 0.929 . S
C2046 C2048 1.378 . S
C2046 C2050 1.350 . S
C2047 C2050 1.463 . S
C2047 C2052 1.350 . S
C2047 N2055 1.427 . S
C2048 H2039 0.930 . S
C2048 C2046 1.378 . S
C2048 C2049 1.367 . S
C2049 C2048 1.367 . S
C2049 C2051 1.433 . S
C2050 C2046 1.350 . S
C2050 C2047 1.463 . S
C2050 N2054 1.427 . S
C2051 H2041 0.929 . S
C2051 C2049 1.433 . S
C2051 N2054 1.384 . S
C2052 H2043 0.929 . S
C2052 C2044 1.378 . S
C2052 C2047 1.350 . S
C2053 H2040 0.929 . S
C2053 C2045 1.433 . S
C2053 N2055 1.384 . S
N2054 C2050 1.427 . S
N2054 C2051 1.384 . S
N2055 C2047 1.427 . S
N2055 C2053 1.384 . S
H2056 C2062 0.930 . S
H2057 C2066 0.930 . S
H2058 C2071 0.929 . S
H2059 C2069 0.929 . S
H2060 C2064 0.929 . S
H2061 C2070 0.929 . S
C2062 H2056 0.930 . S
C2062 C2063 1.367 . S
C2062 C2070 1.378 . S
C2063 C2062 1.367 . S
C2063 C2071 1.433 . S
C2064 H2060 0.929 . S
C2064 C2066 1.378 . S
C2064 C2068 1.350 . S
C2065 C2068 1.463 . S
C2065 C2070 1.350 . S
C2065 N2073 1.427 . S
C2066 H2057 0.930 . S
C2066 C2064 1.378 . S
C2066 C2067 1.367 . S
C2067 C2066 1.367 . S
C2067 C2069 1.433 . S
C2068 C2064 1.350 . S
C2068 C2065 1.463 . S
C2068 N2072 1.427 . S
C2069 H2059 0.929 . S
C2069 C2067 1.433 . S
C2069 N2072 1.384 . S
C2070 H2061 0.929 . S
C2070 C2062 1.378 . S
C2070 C2065 1.350 . S
C2071 H2058 0.929 . S
C2071 C2063 1.433 . S
C2071 N2073 1.384 . S
N2072 C2068 1.427 . S
N2072 C2069 1.384 . S
N2073 C2065 1.427 . S
N2073 C2071 1.384 . S
H2074 C2080 0.930 . S
H2075 C2084 0.930 . S
H2076 C2089 0.929 . S
H2077 C2087 0.929 . S
H2078 C2082 0.929 . S
H2079 C2088 0.929 . S
C2080 H2074 0.930 . S
C2080 C2081 1.367 . S
C2080 C2088 1.378 . S
C2081 C2080 1.367 . S
C2081 C2089 1.433 . S
C2082 H2078 0.929 . S
C2082 C2084 1.378 . S
C2082 C2086 1.350 . S
C2083 C2086 1.463 . S
C2083 C2088 1.350 . S
C2083 N2091 1.427 . S
C2084 H2075 0.930 . S
C2084 C2082 1.378 . S
C2084 C2085 1.367 . S
C2085 C2084 1.367 . S
C2085 C2087 1.433 . S
C2086 C2082 1.350 . S
C2086 C2083 1.463 . S
C2086 N2090 1.427 . S
C2087 H2077 0.929 . S
C2087 C2085 1.433 . S
C2087 N2090 1.384 . S
C2088 H2079 0.929 . S
C2088 C2080 1.378 . S
C2088 C2083 1.350 . S
C2089 H2076 0.929 . S
C2089 C2081 1.433 . S
C2089 N2091 1.384 . S
N2090 C2086 1.427 . S
N2090 C2087 1.384 . S
N2091 C2083 1.427 . S
N2091 C2089 1.384 . S
H2092 C2098 0.930 . S
H2093 C2102 0.930 . S
H2094 C2107 0.929 . S
H2095 C2105 0.929 . S
H2096 C2100 0.929 . S
H2097 C2106 0.929 . S
C2098 H2092 0.930 . S
C2098 C2099 1.367 . S
C2098 C2106 1.378 . S
C2099 C2098 1.367 . S
C2099 C2107 1.433 . S
C2100 H2096 0.929 . S
C2100 C2102 1.378 . S
C2100 C2104 1.350 . S
C2101 C2104 1.463 . S
C2101 C2106 1.350 . S
C2101 N2109 1.427 . S
C2102 H2093 0.930 . S
C2102 C2100 1.378 . S
C2102 C2103 1.367 . S
C2103 C2102 1.367 . S
C2103 C2105 1.433 . S
C2104 C2100 1.350 . S
C2104 C2101 1.463 . S
C2104 N2108 1.427 . S
C2105 H2095 0.929 . S
C2105 C2103 1.433 . S
C2105 N2108 1.384 . S
C2106 H2097 0.929 . S
C2106 C2098 1.378 . S
C2106 C2101 1.350 . S
C2107 H2094 0.929 . S
C2107 C2099 1.433 . S
C2107 N2109 1.384 . S
N2108 C2104 1.427 . S
N2108 C2105 1.384 . S
N2109 C2101 1.427 . S
N2109 C2107 1.384 . S
H2110 C2116 0.930 . S
H2111 C2120 0.930 . S
H2112 C2125 0.929 . S
H2113 C2123 0.929 . S
H2114 C2118 0.929 . S
H2115 C2124 0.929 . S
C2116 H2110 0.930 . S
C2116 C2117 1.367 . S
C2116 C2124 1.378 . S
C2117 C2116 1.367 . S
C2117 C2125 1.433 . S
C2118 H2114 0.929 . S
C2118 C2120 1.378 . S
C2118 C2122 1.350 . S
C2119 C2122 1.463 . S
C2119 C2124 1.350 . S
C2119 N2127 1.427 . S
C2120 H2111 0.930 . S
C2120 C2118 1.378 . S
C2120 C2121 1.367 . S
C2121 C2120 1.367 . S
C2121 C2123 1.433 . S
C2122 C2118 1.350 . S
C2122 C2119 1.463 . S
C2122 N2126 1.427 . S
C2123 H2113 0.929 . S
C2123 C2121 1.433 . S
C2123 N2126 1.384 . S
C2124 H2115 0.929 . S
C2124 C2116 1.378 . S
C2124 C2119 1.350 . S
C2125 H2112 0.929 . S
C2125 C2117 1.433 . S
C2125 N2127 1.384 . S
N2126 C2122 1.427 . S
N2126 C2123 1.384 . S
N2127 C2119 1.427 . S
N2127 C2125 1.384 . S
H2128 C2134 0.930 . S
H2129 C2138 0.930 . S
H2130 C2143 0.929 . S
H2131 C2141 0.929 . S
H2132 C2136 0.929 . S
H2133 C2142 0.929 . S
C2134 H2128 0.930 . S
C2134 C2135 1.367 . S
C2134 C2142 1.378 . S
C2135 C2134 1.367 . S
C2135 C2143 1.433 . S
C2136 H2132 0.929 . S
C2136 C2138 1.378 . S
C2136 C2140 1.350 . S
C2137 C2140 1.463 . S
C2137 C2142 1.350 . S
C2137 N2145 1.427 . S
C2138 H2129 0.930 . S
C2138 C2136 1.378 . S
C2138 C2139 1.367 . S
C2139 C2138 1.367 . S
C2139 C2141 1.433 . S
C2140 C2136 1.350 . S
C2140 C2137 1.463 . S
C2140 N2144 1.427 . S
C2141 H2131 0.929 . S
C2141 C2139 1.433 . S
C2141 N2144 1.384 . S
C2142 H2133 0.929 . S
C2142 C2134 1.378 . S
C2142 C2137 1.350 . S
C2143 H2130 0.929 . S
C2143 C2135 1.433 . S
C2143 N2145 1.384 . S
N2144 C2140 1.427 . S
N2144 C2141 1.384 . S
N2145 C2137 1.427 . S
N2145 C2143 1.384 . S
H2146 C2152 0.930 . S
H2147 C2156 0.930 . S
H2148 C2161 0.929 . S
H2149 C2159 0.929 . S
H2150 C2154 0.929 . S
H2151 C2160 0.929 . S
C2152 H2146 0.930 . S
C2152 C2153 1.367 . S
C2152 C2160 1.378 . S
C2153 C2152 1.367 . S
C2153 C2161 1.433 . S
C2154 H2150 0.929 . S
C2154 C2156 1.378 . S
C2154 C2158 1.350 . S
C2155 C2158 1.463 . S
C2155 C2160 1.350 . S
C2155 N2163 1.427 . S
C2156 H2147 0.930 . S
C2156 C2154 1.378 . S
C2156 C2157 1.367 . S
C2157 C2156 1.367 . S
C2157 C2159 1.433 . S
C2158 C2154 1.350 . S
C2158 C2155 1.463 . S
C2158 N2162 1.427 . S
C2159 H2149 0.929 . S
C2159 C2157 1.433 . S
C2159 N2162 1.384 . S
C2160 H2151 0.929 . S
C2160 C2152 1.378 . S
C2160 C2155 1.350 . S
C2161 H2148 0.929 . S
C2161 C2153 1.433 . S
C2161 N2163 1.384 . S
N2162 C2158 1.427 . S
N2162 C2159 1.384 . S
N2163 C2155 1.427 . S
N2163 C2161 1.384 . S
H2164 C2170 0.930 . S
H2165 C2174 0.930 . S
H2166 C2179 0.947 . S
H2167 C2177 0.929 1_545 S
H2168 C2172 0.929 . S
H2169 C2178 0.929 . S
C2170 H2164 0.930 . S
C2170 C2171 1.367 . S
C2170 C2178 1.378 . S
C2171 C2170 1.367 . S
C2171 C2179 1.433 . S
C2172 H2168 0.929 . S
C2172 C2174 1.378 . S
C2172 C2176 1.350 . S
C2173 C2176 1.463 1_545 S
C2173 C2178 1.350 . S
C2173 N2181 1.427 1_545 S
C2174 H2165 0.930 . S
C2174 C2172 1.378 . S
C2174 C2175 1.367 . S
C2175 C2174 1.367 . S
C2175 C2177 1.433 . S
C2176 C2172 1.350 . S
C2176 C2173 1.463 1_565 S
C2176 N2180 1.427 1_565 S
C2177 H2167 0.929 1_565 S
C2177 C2175 1.433 . S
C2177 N2180 1.384 1_565 S
C2178 H2169 0.929 . S
C2178 C2170 1.378 . S
C2178 C2173 1.350 . S
C2179 H2166 0.947 . S
C2179 C2171 1.433 . S
C2179 N2181 1.384 1_545 S
N2180 C2176 1.427 1_545 S
N2180 C2177 1.384 1_545 S
N2181 C2173 1.427 1_565 S
N2181 C2179 1.384 1_565 S
H2182 C2188 0.930 . S
H2183 C2192 0.930 . S
H2184 C2197 0.929 . S
H2185 C2195 0.929 . S
H2186 C2190 0.929 . S
H2187 C2196 0.929 . S
C2188 H2182 0.930 . S
C2188 C2189 1.367 . S
C2188 C2196 1.378 . S
C2189 C2188 1.367 . S
C2189 C2197 1.433 . S
C2190 H2186 0.929 . S
C2190 C2192 1.378 . S
C2190 C2194 1.350 . S
C2191 C2194 1.463 1_565 S
C2191 C2196 1.350 . S
C2191 N2199 1.427 . S
C2192 H2183 0.930 . S
C2192 C2190 1.378 . S
C2192 C2193 1.367 . S
C2193 C2192 1.367 . S
C2193 C2195 1.433 . S
C2194 C2190 1.350 . S
C2194 C2191 1.463 1_545 S
C2194 N2198 1.427 . S
C2195 H2185 0.929 . S
C2195 C2193 1.433 . S
C2195 N2198 1.384 . S
C2196 H2187 0.929 . S
C2196 C2188 1.378 . S
C2196 C2191 1.350 . S
C2197 H2184 0.929 . S
C2197 C2189 1.433 . S
C2197 N2199 1.384 . S
N2198 C2194 1.427 . S
N2198 C2195 1.384 . S
N2199 C2191 1.427 . S
N2199 C2197 1.384 . S
H2200 C2206 0.930 . S
H2201 C2210 0.930 . S
H2202 C2215 0.929 . S
H2203 C2213 0.929 . S
H2204 C2208 0.929 . S
H2205 C2214 0.929 . S
C2206 H2200 0.930 . S
C2206 C2207 1.367 . S
C2206 C2214 1.378 . S
C2207 C2206 1.367 . S
C2207 C2215 1.433 . S
C2208 H2204 0.929 . S
C2208 C2210 1.378 . S
C2208 C2212 1.350 . S
C2209 C2212 1.463 . S
C2209 C2214 1.350 . S
C2209 N2217 1.427 . S
C2210 H2201 0.930 . S
C2210 C2208 1.378 . S
C2210 C2211 1.367 . S
C2211 C2210 1.367 . S
C2211 C2213 1.433 . S
C2212 C2208 1.350 . S
C2212 C2209 1.463 . S
C2212 N2216 1.427 . S
C2213 H2203 0.929 . S
C2213 C2211 1.433 . S
C2213 N2216 1.384 . S
C2214 H2205 0.929 . S
C2214 C2206 1.378 . S
C2214 C2209 1.350 . S
C2215 H2202 0.929 . S
C2215 C2207 1.433 . S
C2215 N2217 1.384 . S
N2216 C2212 1.427 . S
N2216 C2213 1.384 . S
N2217 C2209 1.427 . S
N2217 C2215 1.384 . S
H2218 C2224 0.930 . S
H2219 C2228 0.930 . S
H2220 C2233 0.929 . S
H2221 C2231 0.929 . S
H2222 C2226 0.929 . S
H2223 C2232 0.929 . S
C2224 H2218 0.930 . S
C2224 C2225 1.367 . S
C2224 C2232 1.378 . S
C2225 C2224 1.367 . S
C2225 C2233 1.433 . S
C2226 H2222 0.929 . S
C2226 C2228 1.378 . S
C2226 C2230 1.350 . S
C2227 C2230 1.463 . S
C2227 C2232 1.350 . S
C2227 N2235 1.427 . S
C2228 H2219 0.930 . S
C2228 C2226 1.378 . S
C2228 C2229 1.367 . S
C2229 C2228 1.367 . S
C2229 C2231 1.433 . S
C2230 C2226 1.350 . S
C2230 C2227 1.463 . S
C2230 N2234 1.427 . S
C2231 H2221 0.929 . S
C2231 C2229 1.433 . S
C2231 N2234 1.384 . S
C2232 H2223 0.929 . S
C2232 C2224 1.378 . S
C2232 C2227 1.350 . S
C2233 H2220 0.929 . S
C2233 C2225 1.433 . S
C2233 N2235 1.384 . S
N2234 C2230 1.427 . S
N2234 C2231 1.384 . S
N2235 C2227 1.427 . S
N2235 C2233 1.384 . S
H2236 C2242 0.930 . S
H2237 C2246 0.930 . S
H2238 C2251 0.929 . S
H2239 C2249 0.929 . S
H2240 C2244 0.929 . S
H2241 C2250 0.929 . S
C2242 H2236 0.930 . S
C2242 C2243 1.367 . S
C2242 C2250 1.378 . S
C2243 C2242 1.367 . S
C2243 C2251 1.433 . S
C2244 H2240 0.929 . S
C2244 C2246 1.378 . S
C2244 C2248 1.350 . S
C2245 C2248 1.463 . S
C2245 C2250 1.350 . S
C2245 N2253 1.427 . S
C2246 H2237 0.930 . S
C2246 C2244 1.378 . S
C2246 C2247 1.367 . S
C2247 C2246 1.367 . S
C2247 C2249 1.433 . S
C2248 C2244 1.350 . S
C2248 C2245 1.463 . S
C2248 N2252 1.427 . S
C2249 H2239 0.929 . S
C2249 C2247 1.433 . S
C2249 N2252 1.384 . S
C2250 H2241 0.929 . S
C2250 C2242 1.378 . S
C2250 C2245 1.350 . S
C2251 H2238 0.929 . S
C2251 C2243 1.433 . S
C2251 N2253 1.384 . S
N2252 C2248 1.427 . S
N2252 C2249 1.384 . S
N2253 C2245 1.427 . S
N2253 C2251 1.384 . S
H2254 C2260 0.930 . S
H2255 C2264 0.930 1_565 S
H2256 C2269 0.929 . S
H2257 C2267 0.929 . S
H2258 C2262 0.929 . S
H2259 C2268 0.929 . S
C2260 H2254 0.930 . S
C2260 C2261 1.367 . S
C2260 C2268 1.378 . S
C2261 C2260 1.367 . S
C2261 C2269 1.433 . S
C2262 H2258 0.929 . S
C2262 C2264 1.378 . S
C2262 C2266 1.350 . S
C2263 C2266 1.463 . S
C2263 C2268 1.350 . S
C2263 N2271 1.427 . S
C2264 H2255 0.930 1_545 S
C2264 C2262 1.378 . S
C2264 C2265 1.367 1_545 S
C2265 C2264 1.367 1_565 S
C2265 C2267 1.433 1_565 S
C2266 C2262 1.350 . S
C2266 C2263 1.463 . S
C2266 N2270 1.427 . S
C2267 H2257 0.929 . S
C2267 C2265 1.433 1_545 S
C2267 N2270 1.384 . S
C2268 H2259 0.929 . S
C2268 C2260 1.378 . S
C2268 C2263 1.350 . S
C2269 H2256 0.929 . S
C2269 C2261 1.433 . S
C2269 N2271 1.384 . S
N2270 C2266 1.427 . S
N2270 C2267 1.384 . S
N2271 C2263 1.427 . S
N2271 C2269 1.384 . S
H2272 C2278 0.930 . S
H2273 C2282 0.930 . S
H2274 C2287 0.929 . S
H2275 C2285 0.929 . S
H2276 C2280 0.929 . S
H2277 C2286 0.929 . S
C2278 H2272 0.930 . S
C2278 C2279 1.367 . S
C2278 C2286 1.378 . S
C2279 C2278 1.367 . S
C2279 C2287 1.433 . S
C2280 H2276 0.929 . S
C2280 C2282 1.378 . S
C2280 C2284 1.350 . S
C2281 C2284 1.463 . S
C2281 C2286 1.350 . S
C2281 N2289 1.427 . S
C2282 H2273 0.930 . S
C2282 C2280 1.378 . S
C2282 C2283 1.367 . S
C2283 C2282 1.367 . S
C2283 C2285 1.433 . S
C2284 C2280 1.350 . S
C2284 C2281 1.463 . S
C2284 N2288 1.427 . S
C2285 H2275 0.929 . S
C2285 C2283 1.433 . S
C2285 N2288 1.384 . S
C2286 H2277 0.929 . S
C2286 C2278 1.378 . S
C2286 C2281 1.350 . S
C2287 H2274 0.929 . S
C2287 C2279 1.433 . S
C2287 N2289 1.384 . S
N2288 C2284 1.427 . S
N2288 C2285 1.384 . S
N2289 C2281 1.427 . S
N2289 C2287 1.384 . S
H2290 C2296 0.930 . S
H2291 C2300 0.930 . S
H2292 C2305 0.929 . S
H2293 C2303 0.929 . S
H2294 C2298 0.929 . S
H2295 C2304 0.929 . S
C2296 H2290 0.930 . S
C2296 C2297 1.367 . S
C2296 C2304 1.378 . S
C2297 C2296 1.367 . S
C2297 C2305 1.433 . S
C2298 H2294 0.929 . S
C2298 C2300 1.378 . S
C2298 C2302 1.350 . S
C2299 C2302 1.463 . S
C2299 C2304 1.350 . S
C2299 N2307 1.427 . S
C2300 H2291 0.930 . S
C2300 C2298 1.378 . S
C2300 C2301 1.367 . S
C2301 C2300 1.367 . S
C2301 C2303 1.433 . S
C2302 C2298 1.350 . S
C2302 C2299 1.463 . S
C2302 N2306 1.427 . S
C2303 H2293 0.929 . S
C2303 C2301 1.433 . S
C2303 N2306 1.384 . S
C2304 H2295 0.929 . S
C2304 C2296 1.378 . S
C2304 C2299 1.350 . S
C2305 H2292 0.929 . S
C2305 C2297 1.433 . S
C2305 N2307 1.384 . S
N2306 C2302 1.427 . S
N2306 C2303 1.384 . S
N2307 C2299 1.427 . S
N2307 C2305 1.384 . S
H2308 C2314 0.930 . S
H2309 C2318 0.930 . S
H2310 C2323 0.929 . S
H2311 C2321 0.929 . S
H2312 C2316 0.929 . S
H2313 C2322 0.929 . S
C2314 H2308 0.930 . S
C2314 C2315 1.367 . S
C2314 C2322 1.378 . S
C2315 C2314 1.367 . S
C2315 C2323 1.433 . S
C2316 H2312 0.929 . S
C2316 C2318 1.378 . S
C2316 C2320 1.350 . S
C2317 C2320 1.463 . S
C2317 C2322 1.350 . S
C2317 N2325 1.427 . S
C2318 H2309 0.930 . S
C2318 C2316 1.378 . S
C2318 C2319 1.367 . S
C2319 C2318 1.367 . S
C2319 C2321 1.433 . S
C2320 C2316 1.350 . S
C2320 C2317 1.463 . S
C2320 N2324 1.427 . S
C2321 H2311 0.929 . S
C2321 C2319 1.433 . S
C2321 N2324 1.384 . S
C2322 H2313 0.929 . S
C2322 C2314 1.378 . S
C2322 C2317 1.350 . S
C2323 H2310 0.929 . S
C2323 C2315 1.433 . S
C2323 N2325 1.384 . S
N2324 C2320 1.427 . S
N2324 C2321 1.384 . S
N2325 C2317 1.427 . S
N2325 C2323 1.384 . S
H2326 C2332 0.930 . S
H2327 C2336 0.930 . S
H2328 C2341 0.929 . S
H2329 C2339 0.929 . S
H2330 C2334 0.929 . S
H2331 C2340 0.929 . S
C2332 H2326 0.930 . S
C2332 C2333 1.367 . S
C2332 C2340 1.378 . S
C2333 C2332 1.367 . S
C2333 C2341 1.433 . S
C2334 H2330 0.929 . S
C2334 C2336 1.378 . S
C2334 C2338 1.350 . S
C2335 C2338 1.463 . S
C2335 C2340 1.350 . S
C2335 N2343 1.427 . S
C2336 H2327 0.930 . S
C2336 C2334 1.378 . S
C2336 C2337 1.367 . S
C2337 C2336 1.367 . S
C2337 C2339 1.433 . S
C2338 C2334 1.350 . S
C2338 C2335 1.463 . S
C2338 N2342 1.427 . S
C2339 H2329 0.929 . S
C2339 C2337 1.433 . S
C2339 N2342 1.384 . S
C2340 H2331 0.929 . S
C2340 C2332 1.378 . S
C2340 C2335 1.350 . S
C2341 H2328 0.929 . S
C2341 C2333 1.433 . S
C2341 N2343 1.384 . S
N2342 C2338 1.427 . S
N2342 C2339 1.384 . S
N2343 C2335 1.427 . S
N2343 C2341 1.384 . S
H2344 C2350 0.930 . S
H2345 C2354 0.930 . S
H2346 C2359 0.929 . S
H2347 C2357 0.929 . S
H2348 C2352 0.929 1_554 S
H2349 C2358 0.929 . S
C2350 H2344 0.930 . S
C2350 C2351 1.367 . S
C2350 C2358 1.378 . S
C2351 C2350 1.367 . S
C2351 C2359 1.433 . S
C2352 H2348 0.929 1_556 S
C2352 C2354 1.378 1_556 S
C2352 C2356 1.350 . S
C2353 C2356 1.463 . S
C2353 C2358 1.350 . S
C2353 N2361 1.427 . S
C2354 H2345 0.930 . S
C2354 C2352 1.378 1_554 S
C2354 C2355 1.367 1_554 S
C2355 C2354 1.367 1_556 S
C2355 C2357 1.433 . S
C2356 C2352 1.350 . S
C2356 C2353 1.463 . S
C2356 N2360 1.427 . S
C2357 H2347 0.929 . S
C2357 C2355 1.433 . S
C2357 N2360 1.384 . S
C2358 H2349 0.929 . S
C2358 C2350 1.378 . S
C2358 C2353 1.350 . S
C2359 H2346 0.929 . S
C2359 C2351 1.433 . S
C2359 N2361 1.384 . S
N2360 C2356 1.427 . S
N2360 C2357 1.384 . S
N2361 C2353 1.427 . S
N2361 C2359 1.384 . S
H2362 C2368 0.930 . S
H2363 C2372 0.930 . S
H2364 C2377 0.929 . S
H2365 C2375 0.929 . S
H2366 C2370 0.929 . S
H2367 C2376 0.929 . S
C2368 H2362 0.930 . S
C2368 C2369 1.367 . S
C2368 C2376 1.378 . S
C2369 C2368 1.367 . S
C2369 C2377 1.433 . S
C2370 H2366 0.929 . S
C2370 C2372 1.378 . S
C2370 C2374 1.350 . S
C2371 C2374 1.463 . S
C2371 C2376 1.350 . S
C2371 N2379 1.427 . S
C2372 H2363 0.930 . S
C2372 C2370 1.378 . S
C2372 C2373 1.367 . S
C2373 C2372 1.367 . S
C2373 C2375 1.433 . S
C2374 C2370 1.350 . S
C2374 C2371 1.463 . S
C2374 N2378 1.427 . S
C2375 H2365 0.929 . S
C2375 C2373 1.433 . S
C2375 N2378 1.384 . S
C2376 H2367 0.929 . S
C2376 C2368 1.378 . S
C2376 C2371 1.350 . S
C2377 H2364 0.929 . S
C2377 C2369 1.433 . S
C2377 N2379 1.384 . S
N2378 C2374 1.427 . S
N2378 C2375 1.384 . S
N2379 C2371 1.427 . S
N2379 C2377 1.384 . S
H2380 C2386 0.930 . S
H2381 C2390 0.930 . S
H2382 C2395 0.929 . S
H2383 C2393 0.929 . S
H2384 C2388 0.929 . S
H2385 C2394 0.929 . S
C2386 H2380 0.930 . S
C2386 C2387 1.367 . S
C2386 C2394 1.378 . S
C2387 C2386 1.367 . S
C2387 C2395 1.433 . S
C2388 H2384 0.929 . S
C2388 C2390 1.378 . S
C2388 C2392 1.350 . S
C2389 C2392 1.463 . S
C2389 C2394 1.350 . S
C2389 N2397 1.427 . S
C2390 H2381 0.930 . S
C2390 C2388 1.378 . S
C2390 C2391 1.367 . S
C2391 C2390 1.367 . S
C2391 C2393 1.433 . S
C2392 C2388 1.350 . S
C2392 C2389 1.463 . S
C2392 N2396 1.427 . S
C2393 H2383 0.929 . S
C2393 C2391 1.433 . S
C2393 N2396 1.384 . S
C2394 H2385 0.929 . S
C2394 C2386 1.378 . S
C2394 C2389 1.350 . S
C2395 H2382 0.929 . S
C2395 C2387 1.433 . S
C2395 N2397 1.384 . S
N2396 C2392 1.427 . S
N2396 C2393 1.384 . S
N2397 C2389 1.427 . S
N2397 C2395 1.384 . S
H2398 C2404 0.930 . S
H2399 C2408 0.930 . S
H2400 C2413 0.929 . S
H2401 C2411 0.929 . S
H2402 C2406 0.929 . S
H2403 C2412 0.929 . S
C2404 H2398 0.930 . S
C2404 C2405 1.367 . S
C2404 C2412 1.378 . S
C2405 C2404 1.367 . S
C2405 C2413 1.433 . S
C2406 H2402 0.929 . S
C2406 C2408 1.378 . S
C2406 C2410 1.350 . S
C2407 C2410 1.463 . S
C2407 C2412 1.350 . S
C2407 N2415 1.427 . S
C2408 H2399 0.930 . S
C2408 C2406 1.378 . S
C2408 C2409 1.367 . S
C2409 C2408 1.367 . S
C2409 C2411 1.433 . S
C2410 C2406 1.350 . S
C2410 C2407 1.463 . S
C2410 N2414 1.427 . S
C2411 H2401 0.929 . S
C2411 C2409 1.433 . S
C2411 N2414 1.384 . S
C2412 H2403 0.929 . S
C2412 C2404 1.378 . S
C2412 C2407 1.350 . S
C2413 H2400 0.929 . S
C2413 C2405 1.433 . S
C2413 N2415 1.384 . S
N2414 C2410 1.427 . S
N2414 C2411 1.384 . S
N2415 C2407 1.427 . S
N2415 C2413 1.384 . S
H2416 C2422 0.930 . S
H2417 C2426 0.930 . S
H2418 C2431 0.929 . S
H2419 C2429 0.929 . S
H2420 C2424 0.929 . S
H2421 C2430 0.929 . S
C2422 H2416 0.930 . S
C2422 C2423 1.367 . S
C2422 C2430 1.378 . S
C2423 C2422 1.367 . S
C2423 C2431 1.433 . S
C2424 H2420 0.929 . S
C2424 C2426 1.378 . S
C2424 C2428 1.350 . S
C2425 C2428 1.463 . S
C2425 C2430 1.350 . S
C2425 N2433 1.427 . S
C2426 H2417 0.930 . S
C2426 C2424 1.378 . S
C2426 C2427 1.367 . S
C2427 C2426 1.367 . S
C2427 C2429 1.433 . S
C2428 C2424 1.350 . S
C2428 C2425 1.463 . S
C2428 N2432 1.427 . S
C2429 H2419 0.929 . S
C2429 C2427 1.433 . S
C2429 N2432 1.384 . S
C2430 H2421 0.929 . S
C2430 C2422 1.378 . S
C2430 C2425 1.350 . S
C2431 H2418 0.929 . S
C2431 C2423 1.433 . S
C2431 N2433 1.384 . S
N2432 C2428 1.427 . S
N2432 C2429 1.384 . S
N2433 C2425 1.427 . S
N2433 C2431 1.384 . S
H2434 C2440 0.930 . S
H2435 C2444 0.930 . S
H2436 C2449 0.929 . S
H2437 C2447 0.929 . S
H2438 C2442 0.929 . S
H2439 C2448 0.929 . S
C2440 H2434 0.930 . S
C2440 C2441 1.367 . S
C2440 C2448 1.378 . S
C2441 C2440 1.367 . S
C2441 C2449 1.433 . S
C2442 H2438 0.929 . S
C2442 C2444 1.378 . S
C2442 C2446 1.350 . S
C2443 C2446 1.463 . S
C2443 C2448 1.350 . S
C2443 N2451 1.427 . S
C2444 H2435 0.930 . S
C2444 C2442 1.378 . S
C2444 C2445 1.367 . S
C2445 C2444 1.367 . S
C2445 C2447 1.433 . S
C2446 C2442 1.350 . S
C2446 C2443 1.463 . S
C2446 N2450 1.427 . S
C2447 H2437 0.929 . S
C2447 C2445 1.433 . S
C2447 N2450 1.384 . S
C2448 H2439 0.929 . S
C2448 C2440 1.378 . S
C2448 C2443 1.350 . S
C2449 H2436 0.929 . S
C2449 C2441 1.433 . S
C2449 N2451 1.384 . S
N2450 C2446 1.427 . S
N2450 C2447 1.384 . S
N2451 C2443 1.427 . S
N2451 C2449 1.384 . S
H2452 C2458 0.922 1_455 S
H2453 C2462 0.930 1_554 S
H2454 C2467 0.929 . S
H2455 C2465 0.929 . S
H2456 C2460 0.929 . S
H2457 C2466 0.929 . S
C2458 H2452 0.922 1_655 S
C2458 C2459 1.362 . S
C2458 C2466 1.380 1_655 S
C2459 C2458 1.362 . S
C2459 C2467 1.433 . S
C2460 H2456 0.929 . S
C2460 C2462 1.378 . S
C2460 C2464 1.350 . S
C2461 C2464 1.463 . S
C2461 C2466 1.350 . S
C2461 N2469 1.427 1_455 S
C2462 H2453 0.930 1_556 S
C2462 C2460 1.378 . S
C2462 C2463 1.367 . S
C2463 C2462 1.367 . S
C2463 C2465 1.433 . S
C2464 C2460 1.350 . S
C2464 C2461 1.463 . S
C2464 N2468 1.427 . S
C2465 H2455 0.929 . S
C2465 C2463 1.433 . S
C2465 N2468 1.384 . S
C2466 H2457 0.929 . S
C2466 C2458 1.380 1_455 S
C2466 C2461 1.350 . S
C2467 H2454 0.929 . S
C2467 C2459 1.433 . S
C2467 N2469 1.384 . S
N2468 C2464 1.427 . S
N2468 C2465 1.384 . S
N2469 C2461 1.427 1_655 S
N2469 C2467 1.384 . S
H2470 C2476 0.930 . S
H2471 C2480 0.930 . S
H2472 C2485 0.929 . S
H2473 C2483 0.929 . S
H2474 C2478 0.929 . S
H2475 C2484 0.929 . S
C2476 H2470 0.930 . S
C2476 C2477 1.367 . S
C2476 C2484 1.378 . S
C2477 C2476 1.367 . S
C2477 C2485 1.433 . S
C2478 H2474 0.929 . S
C2478 C2480 1.378 . S
C2478 C2482 1.350 . S
C2479 C2482 1.463 . S
C2479 C2484 1.350 . S
C2479 N2487 1.427 . S
C2480 H2471 0.930 . S
C2480 C2478 1.378 . S
C2480 C2481 1.367 . S
C2481 C2480 1.367 . S
C2481 C2483 1.433 . S
C2482 C2478 1.350 . S
C2482 C2479 1.463 . S
C2482 N2486 1.427 . S
C2483 H2473 0.929 . S
C2483 C2481 1.433 . S
C2483 N2486 1.384 . S
C2484 H2475 0.929 . S
C2484 C2476 1.378 . S
C2484 C2479 1.350 . S
C2485 H2472 0.929 . S
C2485 C2477 1.433 . S
C2485 N2487 1.384 . S
N2486 C2482 1.427 . S
N2486 C2483 1.384 . S
N2487 C2479 1.427 . S
N2487 C2485 1.384 . S
H2488 C2494 0.930 . S
H2489 C2498 0.930 . S
H2490 C2503 0.929 . S
H2491 C2501 0.929 . S
H2492 C2496 0.929 . S
H2493 C2502 0.929 . S
C2494 H2488 0.930 . S
C2494 C2495 1.367 . S
C2494 C2502 1.378 . S
C2495 C2494 1.367 . S
C2495 C2503 1.433 . S
C2496 H2492 0.929 . S
C2496 C2498 1.378 . S
C2496 C2500 1.350 . S
C2497 C2500 1.463 . S
C2497 C2502 1.350 . S
C2497 N2505 1.427 . S
C2498 H2489 0.930 . S
C2498 C2496 1.378 . S
C2498 C2499 1.367 . S
C2499 C2498 1.367 . S
C2499 C2501 1.433 . S
C2500 C2496 1.350 . S
C2500 C2497 1.463 . S
C2500 N2504 1.427 . S
C2501 H2491 0.929 . S
C2501 C2499 1.433 . S
C2501 N2504 1.384 . S
C2502 H2493 0.929 . S
C2502 C2494 1.378 . S
C2502 C2497 1.350 . S
C2503 H2490 0.929 . S
C2503 C2495 1.433 . S
C2503 N2505 1.384 . S
N2504 C2500 1.427 . S
N2504 C2501 1.384 . S
N2505 C2497 1.427 . S
N2505 C2503 1.384 . S
H2506 C2512 0.930 . S
H2507 C2516 0.930 . S
H2508 C2521 0.929 . S
H2509 C2519 0.929 . S
H2510 C2514 0.929 . S
H2511 C2520 0.929 . S
C2512 H2506 0.930 . S
C2512 C2513 1.367 . S
C2512 C2520 1.378 . S
C2513 C2512 1.367 . S
C2513 C2521 1.433 . S
C2514 H2510 0.929 . S
C2514 C2516 1.378 . S
C2514 C2518 1.350 . S
C2515 C2518 1.463 . S
C2515 C2520 1.350 . S
C2515 N2523 1.427 . S
C2516 H2507 0.930 . S
C2516 C2514 1.378 . S
C2516 C2517 1.367 . S
C2517 C2516 1.367 . S
C2517 C2519 1.433 . S
C2518 C2514 1.350 . S
C2518 C2515 1.463 . S
C2518 N2522 1.427 . S
C2519 H2509 0.929 . S
C2519 C2517 1.433 . S
C2519 N2522 1.384 . S
C2520 H2511 0.929 . S
C2520 C2512 1.378 . S
C2520 C2515 1.350 . S
C2521 H2508 0.929 . S
C2521 C2513 1.433 . S
C2521 N2523 1.384 . S
N2522 C2518 1.427 . S
N2522 C2519 1.384 . S
N2523 C2515 1.427 . S
N2523 C2521 1.384 . S
H2524 C2530 0.930 . S
H2525 C2534 0.930 1_455 S
H2526 C2539 0.929 . S
H2527 C2537 0.929 . S
H2528 C2532 0.929 . S
H2529 C2538 0.929 . S
C2530 H2524 0.930 . S
C2530 C2531 1.367 . S
C2530 C2538 1.378 . S
C2531 C2530 1.367 . S
C2531 C2539 1.433 . S
C2532 H2528 0.929 . S
C2532 C2534 1.378 . S
C2532 C2536 1.350 . S
C2533 C2536 1.463 . S
C2533 C2538 1.350 . S
C2533 N2541 1.427 . S
C2534 H2525 0.930 1_655 S
C2534 C2532 1.378 . S
C2534 C2535 1.367 . S
C2535 C2534 1.367 . S
C2535 C2537 1.433 . S
C2536 C2532 1.350 . S
C2536 C2533 1.463 . S
C2536 N2540 1.427 . S
C2537 H2527 0.929 . S
C2537 C2535 1.433 . S
C2537 N2540 1.384 . S
C2538 H2529 0.929 . S
C2538 C2530 1.378 . S
C2538 C2533 1.350 . S
C2539 H2526 0.929 . S
C2539 C2531 1.433 . S
C2539 N2541 1.384 . S
N2540 C2536 1.427 . S
N2540 C2537 1.384 . S
N2541 C2533 1.427 . S
N2541 C2539 1.384 . S
H2542 C2548 0.930 . S
H2543 C2552 0.930 . S
H2544 C2557 0.929 . S
H2545 C2555 0.929 . S
H2546 C2550 0.929 . S
H2547 C2556 0.929 . S
C2548 H2542 0.930 . S
C2548 C2549 1.367 . S
C2548 C2556 1.378 . S
C2549 C2548 1.367 . S
C2549 C2557 1.433 . S
C2550 H2546 0.929 . S
C2550 C2552 1.378 . S
C2550 C2554 1.350 . S
C2551 C2554 1.463 . S
C2551 C2556 1.350 . S
C2551 N2559 1.427 . S
C2552 H2543 0.930 . S
C2552 C2550 1.378 . S
C2552 C2553 1.367 . S
C2553 C2552 1.367 . S
C2553 C2555 1.433 . S
C2554 C2550 1.350 . S
C2554 C2551 1.463 . S
C2554 N2558 1.427 . S
C2555 H2545 0.929 . S
C2555 C2553 1.433 . S
C2555 N2558 1.384 . S
C2556 H2547 0.929 . S
C2556 C2548 1.378 . S
C2556 C2551 1.350 . S
C2557 H2544 0.929 . S
C2557 C2549 1.433 . S
C2557 N2559 1.384 . S
N2558 C2554 1.427 . S
N2558 C2555 1.384 . S
N2559 C2551 1.427 . S
N2559 C2557 1.384 . S
H2560 C2566 0.930 . S
H2561 C2570 0.930 . S
H2562 C2575 0.929 . S
H2563 C2573 0.929 . S
H2564 C2568 0.929 . S
H2565 C2574 0.929 . S
C2566 H2560 0.930 . S
C2566 C2567 1.367 . S
C2566 C2574 1.378 . S
C2567 C2566 1.367 . S
C2567 C2575 1.433 . S
C2568 H2564 0.929 . S
C2568 C2570 1.378 . S
C2568 C2572 1.350 . S
C2569 C2572 1.463 . S
C2569 C2574 1.350 . S
C2569 N2577 1.427 . S
C2570 H2561 0.930 . S
C2570 C2568 1.378 . S
C2570 C2571 1.367 . S
C2571 C2570 1.367 . S
C2571 C2573 1.433 . S
C2572 C2568 1.350 . S
C2572 C2569 1.463 . S
C2572 N2576 1.427 . S
C2573 H2563 0.929 . S
C2573 C2571 1.433 . S
C2573 N2576 1.384 . S
C2574 H2565 0.929 . S
C2574 C2566 1.378 . S
C2574 C2569 1.350 . S
C2575 H2562 0.929 . S
C2575 C2567 1.433 . S
C2575 N2577 1.384 . S
N2576 C2572 1.427 . S
N2576 C2573 1.384 . S
N2577 C2569 1.427 . S
N2577 C2575 1.384 . S
H2578 C2584 0.930 . S
H2579 C2588 0.930 . S
H2580 C2593 0.929 . S
H2581 C2591 0.929 . S
H2582 C2586 0.929 . S
H2583 C2592 0.929 . S
C2584 H2578 0.930 . S
C2584 C2585 1.367 . S
C2584 C2592 1.378 . S
C2585 C2584 1.367 . S
C2585 C2593 1.433 . S
C2586 H2582 0.929 . S
C2586 C2588 1.378 . S
C2586 C2590 1.350 . S
C2587 C2590 1.463 1_565 S
C2587 C2592 1.350 . S
C2587 N2595 1.427 . S
C2588 H2579 0.930 . S
C2588 C2586 1.378 . S
C2588 C2589 1.367 . S
C2589 C2588 1.367 . S
C2589 C2591 1.433 . S
C2590 C2586 1.350 . S
C2590 C2587 1.463 1_545 S
C2590 N2594 1.427 . S
C2591 H2581 0.929 . S
C2591 C2589 1.433 . S
C2591 N2594 1.384 . S
C2592 H2583 0.929 . S
C2592 C2584 1.378 . S
C2592 C2587 1.350 . S
C2593 H2580 0.929 . S
C2593 C2585 1.433 . S
C2593 N2595 1.384 . S
N2594 C2590 1.427 . S
N2594 C2591 1.384 . S
N2595 C2587 1.427 . S
N2595 C2593 1.384 . S
H2596 C2602 0.930 . S
H2597 C2606 0.930 . S
H2598 C2611 0.929 . S
H2599 C2609 0.929 . S
H2600 C2604 0.929 . S
H2601 C2610 0.929 . S
C2602 H2596 0.930 . S
C2602 C2603 1.367 . S
C2602 C2610 1.378 . S
C2603 C2602 1.367 . S
C2603 C2611 1.433 . S
C2604 H2600 0.929 . S
C2604 C2606 1.378 . S
C2604 C2608 1.350 . S
C2605 C2608 1.463 . S
C2605 C2610 1.350 . S
C2605 N2613 1.427 . S
C2606 H2597 0.930 . S
C2606 C2604 1.378 . S
C2606 C2607 1.367 . S
C2607 C2606 1.367 . S
C2607 C2609 1.433 . S
C2608 C2604 1.350 . S
C2608 C2605 1.463 . S
C2608 N2612 1.427 . S
C2609 H2599 0.929 . S
C2609 C2607 1.433 . S
C2609 N2612 1.384 . S
C2610 H2601 0.929 . S
C2610 C2602 1.378 . S
C2610 C2605 1.350 . S
C2611 H2598 0.929 . S
C2611 C2603 1.433 . S
C2611 N2613 1.384 . S
N2612 C2608 1.427 . S
N2612 C2609 1.384 . S
N2613 C2605 1.427 . S
N2613 C2611 1.384 . S
H2614 C2620 0.930 . S
H2615 C2624 0.930 . S
H2616 C2629 0.929 . S
H2617 C2627 0.929 1_556 S
H2618 C2622 0.929 . S
H2619 C2628 0.929 . S
C2620 H2614 0.930 . S
C2620 C2621 1.367 1_556 S
C2620 C2628 1.378 . S
C2621 C2620 1.367 1_554 S
C2621 C2629 1.433 . S
C2622 H2618 0.929 . S
C2622 C2624 1.378 . S
C2622 C2626 1.350 . S
C2623 C2626 1.463 . S
C2623 C2628 1.350 1_554 S
C2623 N2631 1.427 . S
C2624 H2615 0.930 . S
C2624 C2622 1.378 . S
C2624 C2625 1.367 . S
C2625 C2624 1.367 . S
C2625 C2627 1.433 . S
C2626 C2622 1.350 . S
C2626 C2623 1.463 . S
C2626 N2630 1.423 1_554 S
C2627 H2617 0.929 1_554 S
C2627 C2625 1.433 . S
C2627 N2630 1.381 1_554 S
C2628 H2619 0.929 . S
C2628 C2620 1.378 . S
C2628 C2623 1.350 1_556 S
C2629 H2616 0.929 . S
C2629 C2621 1.433 . S
C2629 N2631 1.384 . S
N2630 C2626 1.423 1_556 S
N2630 C2627 1.381 1_556 S
N2631 C2623 1.427 . S
N2631 C2629 1.384 . S
H2632 C2638 0.930 . S
H2633 C2642 0.930 . S
H2634 C2647 0.929 . S
H2635 C2645 0.929 . S
H2636 C2640 0.929 . S
H2637 C2646 0.929 . S
C2638 H2632 0.930 . S
C2638 C2639 1.367 . S
C2638 C2646 1.378 . S
C2639 C2638 1.367 . S
C2639 C2647 1.433 . S
C2640 H2636 0.929 . S
C2640 C2642 1.378 . S
C2640 C2644 1.350 . S
C2641 C2644 1.463 . S
C2641 C2646 1.350 . S
C2641 N2649 1.427 . S
C2642 H2633 0.930 . S
C2642 C2640 1.378 . S
C2642 C2643 1.367 . S
C2643 C2642 1.367 . S
C2643 C2645 1.433 . S
C2644 C2640 1.350 . S
C2644 C2641 1.463 . S
C2644 N2648 1.427 . S
C2645 H2635 0.929 . S
C2645 C2643 1.433 . S
C2645 N2648 1.384 . S
C2646 H2637 0.929 . S
C2646 C2638 1.378 . S
C2646 C2641 1.350 . S
C2647 H2634 0.929 . S
C2647 C2639 1.433 . S
C2647 N2649 1.384 . S
N2648 C2644 1.427 . S
N2648 C2645 1.384 . S
N2649 C2641 1.427 . S
N2649 C2647 1.384 . S
H2650 C2656 0.930 . S
H2651 C2660 0.930 . S
H2652 C2665 0.929 . S
H2653 C2663 0.929 1_556 S
H2654 C2658 0.929 . S
H2655 C2664 0.927 1_556 S
C2656 H2650 0.930 . S
C2656 C2657 1.367 . S
C2656 C2664 1.378 . S
C2657 C2656 1.367 . S
C2657 C2665 1.433 . S
C2658 H2654 0.929 . S
C2658 C2660 1.378 . S
C2658 C2662 1.350 . S
C2659 C2662 1.463 . S
C2659 C2664 1.350 . S
C2659 N2667 1.427 . S
C2660 H2651 0.930 . S
C2660 C2658 1.378 . S
C2660 C2661 1.367 . S
C2661 C2660 1.367 . S
C2661 C2663 1.433 . S
C2662 C2658 1.350 . S
C2662 C2659 1.463 . S
C2662 N2666 1.427 . S
C2663 H2653 0.929 1_554 S
C2663 C2661 1.433 . S
C2663 N2666 1.384 . S
C2664 H2655 0.927 1_554 S
C2664 C2656 1.378 . S
C2664 C2659 1.350 . S
C2665 H2652 0.929 . S
C2665 C2657 1.433 . S
C2665 N2667 1.384 . S
N2666 C2662 1.427 . S
N2666 C2663 1.384 . S
N2667 C2659 1.427 . S
N2667 C2665 1.384 . S
H2668 C2674 0.930 . S
H2669 C2678 0.930 . S
H2670 C2683 0.929 . S
H2671 C2681 0.929 . S
H2672 C2676 0.929 . S
H2673 C2682 0.929 . S
C2674 H2668 0.930 . S
C2674 C2675 1.367 . S
C2674 C2682 1.378 . S
C2675 C2674 1.367 . S
C2675 C2683 1.433 . S
C2676 H2672 0.929 . S
C2676 C2678 1.378 . S
C2676 C2680 1.350 . S
C2677 C2680 1.463 . S
C2677 C2682 1.350 . S
C2677 N2685 1.427 . S
C2678 H2669 0.930 . S
C2678 C2676 1.378 . S
C2678 C2679 1.367 . S
C2679 C2678 1.367 . S
C2679 C2681 1.433 . S
C2680 C2676 1.350 . S
C2680 C2677 1.463 . S
C2680 N2684 1.427 . S
C2681 H2671 0.929 . S
C2681 C2679 1.433 . S
C2681 N2684 1.384 . S
C2682 H2673 0.929 . S
C2682 C2674 1.378 . S
C2682 C2677 1.350 . S
C2683 H2670 0.929 . S
C2683 C2675 1.433 . S
C2683 N2685 1.384 . S
N2684 C2680 1.427 . S
N2684 C2681 1.384 . S
N2685 C2677 1.427 . S
N2685 C2683 1.384 . S
H2686 C2692 0.930 . S
H2687 C2696 0.930 . S
H2688 C2701 0.929 . S
H2689 C2699 0.929 . S
H2690 C2694 0.929 . S
H2691 C2700 0.929 . S
C2692 H2686 0.930 . S
C2692 C2693 1.367 . S
C2692 C2700 1.378 . S
C2693 C2692 1.367 . S
C2693 C2701 1.433 . S
C2694 H2690 0.929 . S
C2694 C2696 1.378 . S
C2694 C2698 1.350 . S
C2695 C2698 1.463 . S
C2695 C2700 1.350 . S
C2695 N2703 1.427 . S
C2696 H2687 0.930 . S
C2696 C2694 1.378 . S
C2696 C2697 1.367 . S
C2697 C2696 1.367 . S
C2697 C2699 1.433 . S
C2698 C2694 1.350 . S
C2698 C2695 1.463 . S
C2698 N2702 1.427 . S
C2699 H2689 0.929 . S
C2699 C2697 1.433 . S
C2699 N2702 1.384 . S
C2700 H2691 0.929 . S
C2700 C2692 1.378 . S
C2700 C2695 1.350 . S
C2701 H2688 0.929 . S
C2701 C2693 1.433 . S
C2701 N2703 1.384 . S
N2702 C2698 1.427 . S
N2702 C2699 1.384 . S
N2703 C2695 1.427 . S
N2703 C2701 1.384 . S
C983 C106 2.505 . S
C987 C346 2.456 . S
C1001 C65 1.755 . S
C1005 C385 1.702 . S
C1019 C79 1.797 . S
C1023 C426 1.790 . S
C1041 C471 1.252 . S
C1037 C90 1.257 . S
C1055 C21 1.816 . S
C1059 C515 1.839 . S
C1077 C546 1.463 . S
C1073 C35 1.447 . S
C1095 C594 2.034 . S
C1091 C50 2.026 . S
C1109 C6 1.791 . S
C1113 C622 1.812 . S
C1131 C354 1.894 . S
C1127 C232 1.849 . S
C1145 C245 1.499 . S
C1149 C395 1.506 . S
C1167 C434 1.481 . S
C1163 C274 1.469 1_545 S
C1185 C466 1.470 . S
C1181 C175 1.458 . S
C1199 C231 0.370 . S
C1203 C502 0.258 . S
C1221 C554 2.179 . S
C1217 C246 2.169 . S
C1239 C591 0.868 . S
C1235 C273 0.860 . S
C1257 C625 2.208 . S
C1253 C176 2.193 . S
C1275 C351 1.966 . S
C1271 C160 1.982 . S
C1289 C289 1.942 . S
C1293 C665 1.891 . S
C1311 C711 1.356 . S
C1307 C328 1.308 . S
C1329 C746 1.587 . S
C1325 C317 1.629 . S
C1343 C118 1.919 . S
C1347 C635 2.020 . S
C1361 C132 1.374 . S
C1365 C431 1.382 . S
C1379 C331 1.410 . S
C1383 C794 1.408 . S
C1401 C822 0.694 . S
C1397 C303 0.694 . S
C1419 C355 2.053 . S
C1415 C63 2.071 . S
C1437 C834 2.186 . S
C1433 C107 2.205 . S
C1451 C92 1.506 . S
C1455 C435 1.521 . S
C1469 C78 1.639 . S
C1473 C782 1.628 . S
C1491 C506 2.517 . S
C1487 C8 2.468 . S
C1505 C51 1.528 . S
C1509 C715 1.475 . S
C1527 C585 2.290 1_565 S
C1523 C37 2.274 . S
C1545 C871 1.661 . S
C1541 C20 1.669 . S
C1563 C345 1.513 . S
C1559 C147 1.430 . S
C1581 C826 1.628 . S
C1577 C316 1.657 . S
C1595 C119 1.418 . S
C1599 C425 1.532 . S
C1613 C288 1.614 . S
C1617 C795 1.618 . S
C1631 C148 0.343 . S
C1635 C511 0.319 . S
C1653 C705 2.172 . S
C1649 C315 2.153 . S
C1667 C120 1.325 . S
C1671 C582 1.264 . S
C1685 C287 1.936 . S
C1689 C874 1.955 . S
C1703 C188 1.745 . S
C1707 C342 1.707 . S
C1721 C177 2.247 . S
C1725 C674 2.233 . S
C1739 C258 1.280 . S
C1743 C542 1.297 . S
C1757 C247 1.859 . S
C1761 C755 1.806 . S
C1779 C866 1.832 . S
C1775 C272 1.799 . S
C1793 C216 1.260 . S
C1797 C422 1.268 . S
C1815 C465 1.691 . S
C1811 C261 1.606 . S
C1833 C391 0.593 . S
C1829 C205 0.592 . S
C1847 C76 2.088 . S
C1851 C906 2.077 . S
C1869 C825 1.793 . S
C1865 C93 1.841 . S
C1883 C105 1.393 . S
C1887 C946 1.405 . S
C1901 C62 1.268 . S
C1905 C791 1.271 . S
C1919 C49 1.801 . S
C1923 C675 1.808 . S
C1941 C706 1.850 . S
C1937 C9 1.899 . S
C1959 C754 1.973 . S
C1955 C22 1.966 . S
C1977 C862 2.041 . S
C1973 C36 2.109 . S
C1995 C914 1.793 . S
C1991 C260 1.750 . S
C2009 C189 1.410 . S
C2013 C835 1.405 . S
C2031 C954 1.421 . S
C2027 C204 1.411 . S
C2049 C786 1.296 . S
C2045 C217 1.298 . S
C2067 C662 0.294 . S
C2063 C259 0.439 . S
C2081 C190 2.273 . S
C2085 C714 2.279 . S
C2103 C751 1.028 . S
C2099 C203 1.006 . S
C2117 C218 2.220 . S
C2121 C865 2.252 . S
C2139 C911 1.939 . S
C2135 C314 1.952 . S
C2153 C135 1.978 . S
C2157 C505 1.929 . S
C2175 C551 1.323 . S
C2171 C146 1.263 . S
C2193 C586 1.661 . S
C2189 C163 1.691 . S
C2211 C875 2.046 . S
C2207 C300 1.963 . S
C2225 C286 1.348 . S
C2229 C951 1.358 . S
C2247 C474 1.317 . S
C2243 C149 1.319 . S
C2265 C382 0.701 . S
C2261 C121 0.690 . S
C2279 C91 2.062 . S
C2283 C915 2.055 . S
C2301 C394 1.766 . S
C2297 C77 1.740 . S
C2315 C64 1.490 . S
C2319 C955 1.499 . S
C2333 C104 1.350 . S
C2337 C462 1.352 . S
C2351 C34 2.066 . S
C2355 C666 2.110 1_556 S
C2373 C555 1.434 . S
C2369 C23 1.486 . S
C2387 C7 1.828 . S
C2391 C745 1.869 . S
C2405 C48 1.568 . S
C2409 C631 1.570 . S
C2427 C905 1.463 . S
C2423 C329 1.390 . S
C2441 C162 1.663 . S
C2445 C386 1.639 . S
C2463 C945 1.519 1_556 S
C2459 C301 1.418 . S
C2477 C134 1.604 . S
C2481 C475 1.616 . S
C2495 C330 0.384 . S
C2499 C671 0.376 . S
C2517 C545 2.151 . S
C2513 C161 2.145 . S
C2531 C302 1.256 . S
C2535 C742 1.200 1_655 S
C2553 C634 1.933 . S
C2549 C133 1.911 . S
C2571 C902 1.861 . S
C2567 C244 1.887 . S
C2589 C514 2.216 1_655 S
C2585 C219 2.233 . S
C2603 C230 1.193 . S
C2607 C702 1.193 . S
C2625 C595 1.725 . S
C2621 C191 1.810 1_554 S
C2639 C202 2.015 . S
C2643 C626 2.055 . S
C2657 C174 1.415 . S
C2661 C942 1.422 . S
C2679 C785 1.675 . S
C2675 C233 1.583 . S
C2697 C831 0.636 . S
C2693 C275 0.638 . S
