# Generated by pormake.
# Topology ocu, (6,8)-cn, num edge types: 1
# Building blocks:
#     Node 0, Type 0, BuildingBlock: BETDEL_clean_sbu_0, # of connection points: 6
#     Node 1, Type 0, BuildingBlock: BETDEL_clean_sbu_0, # of connection points: 6
#     Node 2, Type 0, BuildingBlock: BETDEL_clean_sbu_0, # of connection points: 6
#     Node 3, Type 0, BuildingBlock: BETDEL_clean_sbu_0, # of connection points: 6
#     Node 4, Type 0, BuildingBlock: BETDEL_clean_sbu_0, # of connection points: 6
#     Node 5, Type 0, BuildingBlock: BETDEL_clean_sbu_0, # of connection points: 6
#     Node 6, Type 0, BuildingBlock: BETDEL_clean_sbu_0, # of connection points: 6
#     Node 7, Type 0, BuildingBlock: BETDEL_clean_sbu_0, # of connection points: 6
#     Node 8, Type 1, BuildingBlock: VETTIZ_charged_sbu_0, # of connection points: 8
#     Node 9, Type 1, BuildingBlock: VETTIZ_charged_sbu_0, # of connection points: 8
#     Node 10, Type 1, BuildingBlock: VETTIZ_charged_sbu_0, # of connection points: 8
#     Node 11, Type 1, BuildingBlock: VETTIZ_charged_sbu_0, # of connection points: 8
#     Node 12, Type 1, BuildingBlock: VETTIZ_charged_sbu_0, # of connection points: 8
#     Node 13, Type 1, BuildingBlock: VETTIZ_charged_sbu_0, # of connection points: 8
#     Edge 14, Type (0, 1), BuildingBlock: OJICUG_clean_linker_0, # of connection points: 2
#     Edge 15, Type (0, 1), BuildingBlock: OJICUG_clean_linker_0, # of connection points: 2
#     Edge 16, Type (0, 1), BuildingBlock: OJICUG_clean_linker_0, # of connection points: 2
#     Edge 17, Type (0, 1), BuildingBlock: OJICUG_clean_linker_0, # of connection points: 2
#     Edge 18, Type (0, 1), BuildingBlock: OJICUG_clean_linker_0, # of connection points: 2
#     Edge 19, Type (0, 1), BuildingBlock: OJICUG_clean_linker_0, # of connection points: 2
#     Edge 20, Type (0, 1), BuildingBlock: OJICUG_clean_linker_0, # of connection points: 2
#     Edge 21, Type (0, 1), BuildingBlock: OJICUG_clean_linker_0, # of connection points: 2
#     Edge 22, Type (0, 1), BuildingBlock: OJICUG_clean_linker_0, # of connection points: 2
#     Edge 23, Type (0, 1), BuildingBlock: OJICUG_clean_linker_0, # of connection points: 2
#     Edge 24, Type (0, 1), BuildingBlock: OJICUG_clean_linker_0, # of connection points: 2
#     Edge 25, Type (0, 1), BuildingBlock: OJICUG_clean_linker_0, # of connection points: 2
#     Edge 26, Type (0, 1), BuildingBlock: OJICUG_clean_linker_0, # of connection points: 2
#     Edge 27, Type (0, 1), BuildingBlock: OJICUG_clean_linker_0, # of connection points: 2
#     Edge 28, Type (0, 1), BuildingBlock: OJICUG_clean_linker_0, # of connection points: 2
#     Edge 29, Type (0, 1), BuildingBlock: OJICUG_clean_linker_0, # of connection points: 2
#     Edge 30, Type (0, 1), BuildingBlock: OJICUG_clean_linker_0, # of connection points: 2
#     Edge 31, Type (0, 1), BuildingBlock: OJICUG_clean_linker_0, # of connection points: 2
#     Edge 32, Type (0, 1), BuildingBlock: OJICUG_clean_linker_0, # of connection points: 2
#     Edge 33, Type (0, 1), BuildingBlock: OJICUG_clean_linker_0, # of connection points: 2
#     Edge 34, Type (0, 1), BuildingBlock: OJICUG_clean_linker_0, # of connection points: 2
#     Edge 35, Type (0, 1), BuildingBlock: OJICUG_clean_linker_0, # of connection points: 2
#     Edge 36, Type (0, 1), BuildingBlock: OJICUG_clean_linker_0, # of connection points: 2
#     Edge 37, Type (0, 1), BuildingBlock: OJICUG_clean_linker_0, # of connection points: 2
#     Edge 38, Type (0, 1), BuildingBlock: OJICUG_clean_linker_0, # of connection points: 2
#     Edge 39, Type (0, 1), BuildingBlock: OJICUG_clean_linker_0, # of connection points: 2
#     Edge 40, Type (0, 1), BuildingBlock: OJICUG_clean_linker_0, # of connection points: 2
#     Edge 41, Type (0, 1), BuildingBlock: OJICUG_clean_linker_0, # of connection points: 2
#     Edge 42, Type (0, 1), BuildingBlock: OJICUG_clean_linker_0, # of connection points: 2
#     Edge 43, Type (0, 1), BuildingBlock: OJICUG_clean_linker_0, # of connection points: 2
#     Edge 44, Type (0, 1), BuildingBlock: OJICUG_clean_linker_0, # of connection points: 2
#     Edge 45, Type (0, 1), BuildingBlock: OJICUG_clean_linker_0, # of connection points: 2
#     Edge 46, Type (0, 1), BuildingBlock: OJICUG_clean_linker_0, # of connection points: 2
#     Edge 47, Type (0, 1), BuildingBlock: OJICUG_clean_linker_0, # of connection points: 2
#     Edge 48, Type (0, 1), BuildingBlock: OJICUG_clean_linker_0, # of connection points: 2
#     Edge 49, Type (0, 1), BuildingBlock: OJICUG_clean_linker_0, # of connection points: 2
#     Edge 50, Type (0, 1), BuildingBlock: OJICUG_clean_linker_0, # of connection points: 2
#     Edge 51, Type (0, 1), BuildingBlock: OJICUG_clean_linker_0, # of connection points: 2
#     Edge 52, Type (0, 1), BuildingBlock: OJICUG_clean_linker_0, # of connection points: 2
#     Edge 53, Type (0, 1), BuildingBlock: OJICUG_clean_linker_0, # of connection points: 2
#     Edge 54, Type (0, 1), BuildingBlock: OJICUG_clean_linker_0, # of connection points: 2
#     Edge 55, Type (0, 1), BuildingBlock: OJICUG_clean_linker_0, # of connection points: 2
#     Edge 56, Type (0, 1), BuildingBlock: OJICUG_clean_linker_0, # of connection points: 2
#     Edge 57, Type (0, 1), BuildingBlock: OJICUG_clean_linker_0, # of connection points: 2
#     Edge 58, Type (0, 1), BuildingBlock: OJICUG_clean_linker_0, # of connection points: 2
#     Edge 59, Type (0, 1), BuildingBlock: OJICUG_clean_linker_0, # of connection points: 2
#     Edge 60, Type (0, 1), BuildingBlock: OJICUG_clean_linker_0, # of connection points: 2
#     Edge 61, Type (0, 1), BuildingBlock: OJICUG_clean_linker_0, # of connection points: 2
# Relax obj value: 0.094
# Max RMSD: 0.226
# Mean RMSD: 0.136
data_MOF--net-ocu--node1-BETDEL_clean_sbu_0--node2-VETTIZ_charged_sbu_0--edge1-OJICUG_clean_linker_0
_symmetry_space_group_name_H-M    P1
_symmetry_Int_Tables_number       1
_symmetry_cell_setting            triclinic
loop_
_symmetry_equiv_pos_as_xyz
'x, y, z'
_cell_length_a     27.594497
_cell_length_b     28.720809
_cell_length_c     28.517827
_cell_angle_alpha  91.287157
_cell_angle_beta   91.039709
_cell_angle_gamma 96.842462
loop_
_atom_site_label
_atom_site_type_symbol
_atom_site_fract_x
_atom_site_fract_y
_atom_site_fract_z
_atom_type_partial_charge
Dy0 Dy 0.31674 0.25711 0.28982 0.0
C1 C 0.1987 0.27879 0.13409 0.0
C2 C 0.3663 0.21837 0.35864 0.0
Dy3 Dy 0.24726 0.25403 0.21074 0.0
O4 O 0.38221 0.25658 0.33735 0.0
O5 O 0.32233 0.20335 0.34413 0.0
O6 O 0.35088 0.32959 0.27558 0.0
O7 O 0.32395 0.28287 0.21984 0.0
C8 C 0.34262 0.3244 0.23046 0.0
C9 C 0.22233 0.19067 0.27688 0.0
O10 O 0.29746 0.21013 0.1733 0.0
O11 O 0.3472 0.20371 0.23795 0.0
O12 O 0.17942 0.25043 0.16535 0.0
O13 O 0.24364 0.29341 0.14528 0.0
O14 O 0.21575 0.18111 0.23216 0.0
O15 O 0.24005 0.23272 0.2828 0.0
O16 O 0.26573 0.30624 0.32199 0.0
O17 O 0.22142 0.31458 0.25359 0.0
C18 C 0.33543 0.19328 0.19274 0.0
C19 C 0.23146 0.32634 0.29855 0.0
Dy20 Dy 0.82583 0.22768 0.24876 0.0
C21 C 0.68796 0.33545 0.18532 0.0
C22 C 0.88709 0.16552 0.2778 0.0
Dy23 Dy 0.75301 0.29287 0.23549 0.0
O24 O 0.84439 0.15473 0.25852 0.0
O25 O 0.89671 0.21085 0.28168 0.0
O26 O 0.79937 0.19096 0.18096 0.0
O27 O 0.74894 0.21755 0.22512 0.0
C28 C 0.75385 0.19653 0.18651 0.0
C29 C 0.82057 0.32648 0.29985 0.0
O30 O 0.71338 0.24885 0.28802 0.0
O31 O 0.78394 0.22251 0.31604 0.0
O32 O 0.69793 0.34424 0.22966 0.0
O33 O 0.71235 0.30299 0.16943 0.0
O34 O 0.77598 0.33688 0.29919 0.0
O35 O 0.82866 0.30346 0.26284 0.0
O36 O 0.86748 0.27131 0.19507 0.0
O37 O 0.80191 0.31047 0.17555 0.0
C38 C 0.73729 0.22843 0.32064 0.0
C39 C 0.84648 0.30034 0.16804 0.0
Dy40 Dy 0.76455 0.76922 0.28929 0.0
C41 C 0.86633 0.71768 0.13645 0.0
C42 C 0.72272 0.80279 0.36583 0.0
Dy43 Dy 0.82769 0.76479 0.20683 0.0
O44 O 0.70877 0.76244 0.34549 0.0
O45 O 0.75918 0.82466 0.34401 0.0
O46 O 0.72434 0.69898 0.27407 0.0
O47 O 0.74962 0.74284 0.21865 0.0
C48 C 0.72823 0.70282 0.22894 0.0
C49 C 0.86418 0.82594 0.27492 0.0
O50 O 0.78342 0.81648 0.17348 0.0
O51 O 0.73565 0.82312 0.2389 0.0
O52 O 0.89123 0.74949 0.1633 0.0
O53 O 0.82034 0.71546 0.14559 0.0
O54 O 0.87214 0.83357 0.23054 0.0
O55 O 0.8411 0.78602 0.27926 0.0
O56 O 0.81427 0.71848 0.31823 0.0
O57 O 0.84987 0.70343 0.24775 0.0
C58 C 0.74742 0.83482 0.19471 0.0
C59 C 0.84297 0.69419 0.29262 0.0
Dy60 Dy 0.30116 0.73712 0.2448 0.0
C61 C 0.19372 0.85894 0.33683 0.0
C62 C 0.34394 0.67746 0.18873 0.0
Dy63 Dy 0.23838 0.80977 0.274 0.0
O64 O 0.36545 0.70057 0.22447 0.0
O65 O 0.29892 0.68562 0.18483 0.0
O66 O 0.35034 0.75777 0.30775 0.0
O67 O 0.31633 0.80855 0.27196 0.0
C68 C 0.34281 0.8016 0.30672 0.0
C69 C 0.19573 0.74757 0.2123 0.0
O70 O 0.27523 0.85276 0.21854 0.0
O71 O 0.30401 0.78748 0.18464 0.0
O72 O 0.17359 0.8422 0.29755 0.0
O73 O 0.23996 0.85464 0.33799 0.0
O74 O 0.18716 0.79113 0.21294 0.0
O75 O 0.22322 0.73947 0.24606 0.0
O76 O 0.26042 0.69342 0.29856 0.0
O77 O 0.23189 0.758 0.33296 0.0
C78 C 0.29581 0.83217 0.18341 0.0
C79 C 0.23768 0.71283 0.33305 0.0
Dy80 Dy 0.30627 0.73164 0.7587 0.0
C81 C 0.17217 0.86088 0.72522 0.0
C82 C 0.36999 0.67459 0.79149 0.0
Dy83 Dy 0.23503 0.79868 0.75066 0.0
O84 O 0.32998 0.66084 0.76817 0.0
O85 O 0.37617 0.71995 0.79554 0.0
O86 O 0.28288 0.69658 0.6903 0.0
O87 O 0.23017 0.72377 0.73235 0.0
C88 C 0.23759 0.7042 0.69318 0.0
C89 C 0.30701 0.82604 0.81419 0.0
O90 O 0.19491 0.75196 0.80252 0.0
O91 O 0.26441 0.72038 0.82461 0.0
O92 O 0.21576 0.87173 0.74254 0.0
O93 O 0.16258 0.81556 0.72152 0.0
O94 O 0.2616 0.83218 0.81964 0.0
O95 O 0.31196 0.80673 0.77458 0.0
O96 O 0.34476 0.77372 0.70415 0.0
O97 O 0.27593 0.80759 0.68307 0.0
C98 C 0.21822 0.72599 0.8309 0.0
C99 C 0.32123 0.79875 0.67521 0.0
Dy100 Dy 0.22813 0.25759 0.79377 0.0
C101 C 0.33326 0.22179 0.63451 0.0
C102 C 0.18857 0.30187 0.8655 0.0
Dy103 Dy 0.29148 0.25414 0.71163 0.0
O104 O 0.16359 0.27386 0.83509 0.0
O105 O 0.23482 0.30146 0.85896 0.0
O106 O 0.18466 0.18839 0.77039 0.0
O107 O 0.21502 0.23619 0.72137 0.0
C108 C 0.19241 0.19609 0.72601 0.0
C109 C 0.32631 0.32129 0.77191 0.0
O110 O 0.24085 0.3042 0.68284 0.0
O111 O 0.20623 0.31971 0.75366 0.0
O112 O 0.34699 0.26201 0.65521 0.0
O113 O 0.29731 0.19923 0.65645 0.0
O114 O 0.33025 0.3251 0.72678 0.0
O115 O 0.30592 0.2809 0.78213 0.0
O116 O 0.27253 0.20586 0.82679 0.0
O117 O 0.32156 0.20087 0.76209 0.0
C118 C 0.21243 0.32865 0.70861 0.0
C119 C 0.30936 0.18854 0.80602 0.0
Dy120 Dy 0.81625 0.21658 0.72765 0.0
C121 C 0.7096 0.34811 0.8125 0.0
C122 C 0.86162 0.16792 0.66476 0.0
Dy123 Dy 0.75368 0.28868 0.75706 0.0
O124 O 0.88139 0.18442 0.70427 0.0
O125 O 0.81546 0.17248 0.6631 0.0
O126 O 0.86727 0.23441 0.78891 0.0
O127 O 0.83184 0.28688 0.75637 0.0
C128 C 0.85937 0.27814 0.78995 0.0
C129 C 0.71254 0.22526 0.69366 0.0
O130 O 0.79488 0.33284 0.70388 0.0
O131 O 0.82262 0.26828 0.66884 0.0
O132 O 0.68859 0.32437 0.7769 0.0
O133 O 0.75484 0.34065 0.81662 0.0
O134 O 0.70571 0.26928 0.693 0.0
O135 O 0.73814 0.21758 0.72885 0.0
O136 O 0.77909 0.17289 0.78239 0.0
O137 O 0.75067 0.23797 0.81692 0.0
C138 C 0.81725 0.3135 0.66911 0.0
C139 C 0.75864 0.19321 0.81774 0.0
Dy140 Dy 0.80998 0.77019 0.79305 0.0
C141 C 0.70239 0.82515 0.65188 0.0
C142 C 0.85899 0.74461 0.86894 0.0
Dy143 Dy 0.74242 0.77066 0.7135 0.0
O144 O 0.87718 0.77516 0.83922 0.0
O145 O 0.81483 0.72803 0.8566 0.0
O146 O 0.84418 0.84253 0.77218 0.0
O147 O 0.81962 0.79124 0.72123 0.0
C148 C 0.83887 0.83272 0.72746 0.0
C149 C 0.71135 0.70344 0.7713 0.0
O150 O 0.79345 0.72184 0.68051 0.0
O151 O 0.8346 0.70929 0.74965 0.0
O152 O 0.69 0.77988 0.65406 0.0
O153 O 0.73776 0.8391 0.68117 0.0
O154 O 0.70173 0.70031 0.72622 0.0
O155 O 0.7326 0.74385 0.78279 0.0
O156 O 0.76085 0.81522 0.83095 0.0
O157 O 0.70918 0.81992 0.76746 0.0
C158 C 0.82581 0.69937 0.70412 0.0
C159 C 0.72209 0.83133 0.81217 0.0
Fe160 Fe 0.03653 0.06267 0.48661 0.0
O161 O 0.98488 0.01901 0.51707 0.0
Fe162 Fe 0.14136 1.01151 0.5032 0.0
Fe163 Fe 0.91536 1.0104 0.49843 0.0
O164 O 0.07269 1.00709 0.4831 0.0
O165 O 0.07186 1.00285 0.48444 0.0
O166 O 0.98403 0.0148 0.5183 0.0
Fe167 Fe 1.02027 0.95929 0.51512 0.0
C168 C 0.95063 0.11457 0.51546 0.0
O169 O 1.00706 0.04691 0.42088 0.0
O170 O 0.92711 0.04136 0.43484 0.0
O171 O 0.0645 0.90632 0.50751 0.0
O172 O 0.13562 0.94434 0.47717 0.0
O173 O 0.15041 0.04706 0.44103 0.0
O174 O 0.09549 0.10072 0.45191 0.0
O175 O 0.91343 0.94535 0.46582 0.0
O176 O 0.99071 0.94054 0.4489 0.0
C177 C 0.13179 0.08499 0.43011 0.0
O178 O 0.04962 0.97543 0.58091 0.0
O179 O 0.12957 0.98107 0.567 0.0
O180 O 0.99228 0.11567 0.49487 0.0
O181 O 0.92111 0.07736 0.52494 0.0
C182 C 0.96315 0.04881 0.40764 0.0
C183 C 0.94542 0.93202 0.43879 0.0
C184 C 0.9254 0.93707 0.57178 0.0
O185 O 0.90641 0.97471 0.56059 0.0
O186 O 0.96155 0.9213 0.54987 0.0
C187 C 0.10617 0.9072 0.48707 0.0
O188 O 0.14325 0.07669 0.53538 0.0
O189 O 0.06606 0.08097 0.55282 0.0
C190 C 0.09358 0.97405 0.5943 0.0
C191 C 0.11135 0.0897 0.56267 0.0
Fe192 Fe 0.51984 0.90555 0.02139 0.0
O193 O 0.52703 0.97397 0.02676 0.0
Fe194 Fe 0.46979 1.01243 0.99784 0.0
Fe195 Fe 0.58689 0.01259 0.00496 0.0
O196 O 0.52044 0.97526 0.02774 0.0
O197 O 0.52969 0.05119 0.97631 0.0
O198 O 0.53623 0.04989 0.97528 0.0
Fe199 Fe 0.537 0.11962 0.98182 0.0
C200 C 0.61719 0.93364 0.07356 0.0
O201 O 0.57849 0.90139 0.97606 0.0
O202 O 0.59128 0.97073 0.94323 0.0
O203 O 0.48384 0.11283 0.9284 0.0
O204 O 0.42601 0.05759 0.95858 0.0
O205 O 0.46699 0.97087 0.93722 0.0
O206 O 0.47168 0.89917 0.96482 0.0
O207 O 0.64133 0.06023 0.97605 0.0
O208 O 0.5982 0.116 0.94169 0.0
C209 C 0.45796 0.92623 0.93376 0.0
O210 O 0.47868 0.12378 0.02764 0.0
O211 O 0.46503 0.05412 0.05971 0.0
O212 O 0.5728 0.9126 0.07493 0.0
O213 O 0.63069 0.96734 0.04403 0.0
C214 C 0.59705 0.92708 0.94344 0.0
C215 C 0.6372 0.09537 0.94854 0.0
C216 C 0.59967 0.09867 0.06886 0.0
O217 O 0.59003 0.05411 0.06552 0.0
O218 O 0.58573 0.12587 0.03803 0.0
C219 C 0.43956 0.09148 0.92927 0.0
O220 O 0.41529 0.9647 0.02638 0.0
O221 O 0.4583 0.90907 0.06111 0.0
C222 C 0.4598 0.09791 0.06001 0.0
C223 C 0.41928 0.92958 0.05391 0.0
Fe224 Fe 0.03108 0.56463 0.0108 0.0
O225 O 0.99476 0.51558 0.96843 0.0
Fe226 Fe 0.14066 0.52201 0.03351 0.0
Fe227 Fe 0.9232 0.50318 0.96496 0.0
O228 O 0.06932 0.51382 0.03052 0.0
O229 O 0.06909 0.50971 0.02986 0.0
O230 O 0.99453 0.5115 0.96778 0.0
Fe231 Fe 0.03287 0.46072 0.98733 0.0
C232 C 0.93894 0.55507 0.06028 0.0
O233 O 0.98679 0.61167 0.98507 0.0
O234 O 0.93191 0.56777 0.93399 0.0
O235 O 0.08046 0.47734 0.93449 0.0
O236 O 0.15039 0.48339 0.97464 0.0
O237 O 0.14851 0.58286 0.99545 0.0
O238 O 0.07761 0.58359 0.95752 0.0
O239 O 0.93502 0.46119 0.90854 0.0
O240 O 0.99006 0.41545 0.93996 0.0
C241 C 0.12281 0.59756 0.96262 0.0
O242 O 0.0771 0.4136 0.01313 0.0
O243 O 0.13172 0.45738 0.06456 0.0
O244 O 0.98359 0.54872 0.06397 0.0
O245 O 0.91346 0.54169 0.0239 0.0
C246 C 0.95353 0.60705 0.9521 0.0
C247 C 0.95732 0.42393 0.90881 0.0
C248 C 0.94154 0.42738 0.03556 0.0
O249 O 0.91559 0.44216 0.00295 0.0
O250 O 0.98662 0.44162 0.04061 0.0
C251 C 0.1248 0.47002 0.93831 0.0
O252 O 0.12873 0.56426 0.08978 0.0
O253 O 0.07372 0.60981 0.05794 0.0
C254 C 0.10994 0.41812 0.04651 0.0
C255 C 0.10613 0.60135 0.08937 0.0
Fe256 Fe 0.52818 0.5114 0.94563 0.0
O257 O 0.56552 0.54501 0.99927 0.0
Fe258 Fe 0.41574 0.4761 0.99406 0.0
Fe259 Fe 0.63657 0.55022 0.00542 0.0
O260 O 0.48741 0.48076 0.9962 0.0
O261 O 0.48669 0.48169 0.00106 0.0
O262 O 0.56493 0.5457 0.00405 0.0
Fe263 Fe 0.52355 0.51591 0.0547 0.0
C264 C 0.61669 0.4628 0.94122 0.0
O265 O 0.57685 0.55063 0.8997 0.0
O266 O 0.63188 0.59391 0.9505 0.0
O267 O 0.48136 0.56953 0.05285 0.0
O268 O 0.40807 0.52862 0.04211 0.0
O269 O 0.41319 0.52227 0.94027 0.0
O270 O 0.48585 0.56469 0.94303 0.0
O271 O 0.62776 0.59733 0.0578 0.0
O272 O 0.5699 0.55707 0.10422 0.0
C273 C 0.44181 0.55807 0.92897 0.0
O274 O 0.47439 0.47783 0.10083 0.0
O275 O 0.41963 0.43396 0.05032 0.0
O276 O 0.57078 0.45791 0.94606 0.0
O277 O 0.64385 0.49928 0.95566 0.0
C278 C 0.61135 0.58515 0.90949 0.0
C279 C 0.60492 0.59086 0.09676 0.0
C280 C 0.61002 0.46606 0.06767 0.0
O281 O 0.6396 0.5014 0.0569 0.0
O282 O 0.56472 0.46242 0.05883 0.0
C283 C 0.43536 0.56487 0.05706 0.0
O284 O 0.42564 0.4279 0.94314 0.0
O285 O 0.48182 0.46987 0.8962 0.0
C286 C 0.43994 0.44327 0.09131 0.0
C287 C 0.44798 0.435 0.90395 0.0
Fe288 Fe 0.05081 0.40877 0.49937 0.0
O289 O 0.05526 0.47813 0.5054 0.0
Fe290 Fe 0.0315 0.51166 0.44388 0.0
Fe291 Fe 1.02426 0.513 0.55761 0.0
O292 O 0.05592 0.47781 0.4988 0.0
O293 O 1.00021 0.54625 0.49603 0.0
O294 O 0.99954 0.54655 0.50262 0.0
Fe295 Fe 1.00403 0.61549 0.50172 0.0
C296 C 0.95838 0.42136 0.55689 0.0
O297 O 0.09474 0.41833 0.55819 0.0
O298 O 0.05988 0.47008 0.60703 0.0
O299 O 0.06235 0.62663 0.45724 0.0
O300 O 0.0937 0.55909 0.44687 0.0
O301 O 0.07309 0.46764 0.39829 0.0
O302 O 0.10523 0.4193 0.4512 0.0
O303 O 0.0864 0.56073 0.5639 0.0
O304 O 0.05177 0.62636 0.55865 0.0
C305 C 0.1039 0.43737 0.41006 0.0
O306 O 0.95998 0.6053 0.44315 0.0
O307 O 0.99611 0.55443 0.39441 0.0
O308 O 0.99228 0.39787 0.54364 0.0
O309 O 0.962 0.46582 0.55503 0.0
C310 C 0.0906 0.43897 0.59847 0.0
C311 C 0.08619 0.60427 0.573 0.0
C312 C 0.95176 0.58728 0.59148 0.0
O313 O 0.98283 0.55724 0.60326 0.0
O314 O 0.94991 0.6048 0.55012 0.0
C315 C 0.09679 0.60353 0.4446 0.0
O316 O 0.96928 0.46421 0.43707 0.0
O317 O 1.00322 0.3983 0.44205 0.0
C318 C 0.9647 0.58484 0.4029 0.0
C319 C 0.9693 0.42083 0.42726 0.0
Fe320 Fe 0.52174 0.96034 0.4966 0.0
O321 O 0.49606 1.01211 0.53218 0.0
Fe322 Fe 0.56192 0.01328 0.39373 0.0
Fe323 Fe 0.49514 0.01554 0.60115 0.0
O324 O 0.55936 1.01168 0.4619 0.0
O325 O 0.56205 0.01614 0.46307 0.0
O326 O 0.49847 0.01623 0.5332 0.0
Fe327 Fe 0.5344 0.06754 0.49743 0.0
C328 C 0.44473 0.92079 0.56714 0.0
O329 O 0.57916 0.96289 0.54181 0.0
O330 O 0.54235 0.96531 0.61052 0.0
O331 O 0.57662 0.11531 0.45525 0.0
O332 O 0.61601 0.06768 0.40617 0.0
O333 O 0.60267 0.95917 0.40534 0.0
O334 O 0.55537 0.91263 0.45648 0.0
O335 O 0.5527 0.06776 0.61177 0.0
O336 O 0.59216 0.07612 0.54425 0.0
C337 C 0.59225 0.92131 0.42909 0.0
O338 O 0.47674 0.06074 0.45161 0.0
O339 O 0.51656 0.06536 0.38514 0.0
O340 O 0.47876 0.91274 0.53803 0.0
O341 O 0.44165 0.96032 0.58914 0.0
C342 C 0.57606 0.95308 0.58462 0.0
C343 C 0.58964 0.08338 0.58821 0.0
C344 C 0.46238 0.10598 0.56406 0.0
O345 O 0.45305 0.06846 0.58854 0.0
O346 O 0.49867 0.11486 0.536 0.0
C347 C 0.61191 0.10735 0.42752 0.0
O348 O 0.5034 0.96195 0.38294 0.0
O349 O 0.46382 0.9552 0.45037 0.0
C350 C 0.48121 0.07492 0.41026 0.0
C351 C 0.46624 0.94713 0.40659 0.0
C352 C 0.18137 0.18641 0.35453 0.0
C353 C 0.19806 0.16304 0.3151 0.0
H354 H 0.14627 0.18021 0.42109 0.0
C355 C 0.19203 0.11384 0.31342 0.0
H356 H 0.18537 0.22439 0.35677 0.0
C357 C 0.17085 0.08856 0.35101 0.0
C358 C 0.15389 0.11198 0.39033 0.0
H359 H 0.20463 0.09498 0.28358 0.0
H360 H 0.16727 0.05059 0.34911 0.0
C361 C 0.15881 0.16119 0.39133 0.0
C362 C 0.89244 0.08504 0.30527 0.0
C363 C 0.91464 0.13128 0.30062 0.0
H364 H 0.89136 0.02158 0.34347 0.0
C365 C 0.95952 0.14558 0.32354 0.0
H366 H 0.85799 0.07301 0.28759 0.0
C367 C 0.97935 0.11548 0.35446 0.0
C368 C 0.95382 0.07135 0.36337 0.0
H369 H 0.97742 0.18099 0.32016 0.0
H370 H 1.01177 0.1286 0.37497 0.0
C371 C 0.9116 0.05544 0.33692 0.0
C372 C 0.87383 0.83938 0.36131 0.0
C373 C 0.88704 0.85362 0.31592 0.0
H374 H 0.8815 0.85336 0.43534 0.0
C375 C 0.92233 0.89273 0.31124 0.0
H376 H 0.84768 0.80879 0.36639 0.0
C377 C 0.94336 0.91727 0.35137 0.0
C378 C 0.92855 0.90358 0.39651 0.0
H379 H 0.93359 0.90428 0.27679 0.0
H380 H 0.96987 0.9478 0.34713 0.0
C381 C 0.89359 0.86452 0.40098 0.0
C382 C 0.11519 0.85608 0.37789 0.0
C383 C 0.16622 0.85875 0.37972 0.0
H384 H 0.05143 0.86278 0.41733 0.0
C385 C 0.19049 0.85531 0.42298 0.0
H386 H 0.09541 0.85553 0.34467 0.0
C387 C 0.16487 0.8568 0.46425 0.0
C388 C 0.11609 0.86543 0.46194 0.0
H389 H 0.22953 0.85391 0.42517 0.0
H390 H 0.1852 0.86086 0.49727 0.0
C391 C 0.08977 0.85789 0.41941 0.0
C392 C 0.16555 0.94096 0.69714 0.0
C393 C 0.1437 0.89478 0.70298 0.0
H394 H 0.16575 1.00339 0.65745 0.0
C395 C 0.0984 0.8799 0.68106 0.0
H396 H 0.2003 0.95343 0.71404 0.0
C397 C 0.07794 0.90914 0.64965 0.0
C398 C 0.10323 0.95298 0.63931 0.0
H399 H 0.08075 0.84454 0.68536 0.0
H400 H 0.0453 0.8954 0.62978 0.0
C401 C 0.14572 0.9697 0.66505 0.0
C402 C 0.18261 0.18258 0.63976 0.0
C403 C 0.16968 0.16822 0.68519 0.0
H404 H 0.1747 0.16861 0.56578 0.0
C405 C 0.13473 0.1289 0.69004 0.0
H406 H 0.20846 0.21336 0.63458 0.0
C407 C 0.1137 0.10426 0.65001 0.0
C408 C 0.12824 0.1181 0.60485 0.0
H409 H 0.1237 0.1173 0.72454 0.0
H410 H 0.0874 0.07359 0.65432 0.0
C411 C 0.16288 0.15736 0.6002 0.0
C412 C 0.94049 0.16758 0.62476 0.0
C413 C 0.88961 0.16638 0.62228 0.0
H414 H 1.00427 0.15775 0.58646 0.0
C415 C 0.86598 0.16896 0.57857 0.0
H416 H 0.9598 0.16852 0.65826 0.0
C417 C 0.89189 0.16536 0.53771 0.0
C418 C 0.94043 0.15607 0.54088 0.0
H419 H 0.82712 0.17122 0.57582 0.0
H420 H 0.87186 0.16079 0.50454 0.0
C421 C 0.96624 0.16367 0.58368 0.0
C422 C 0.86745 0.9094 0.68977 0.0
C423 C 0.86286 0.86023 0.6891 0.0
H424 H 0.88981 0.97226 0.65245 0.0
C425 C 0.8797 0.83657 0.64996 0.0
H426 H 0.85454 0.92845 0.71933 0.0
C427 C 0.90092 0.86145 0.61236 0.0
C428 C 0.9043 0.91057 0.61227 0.0
H429 H 0.87669 0.79859 0.64849 0.0
H430 H 0.91361 0.84218 0.58284 0.0
C431 C 0.88731 0.93432 0.65137 0.0
C432 C 0.37065 0.17825 0.11262 0.0
C433 C 0.3677 0.16705 0.16058 0.0
H434 H 0.4012 0.16675 0.04513 0.0
C435 C 0.39549 0.13142 0.1755 0.0
H436 H 0.35052 0.20538 0.09909 0.0
C437 C 0.42418 0.10774 0.14342 0.0
C438 C 0.42755 0.11995 0.09556 0.0
H439 H 0.3946 0.12134 0.21186 0.0
H440 H 0.44459 0.0806 0.15639 0.0
C441 C 0.4002 0.15591 0.08128 0.0
C442 C 0.92364 0.34026 0.13428 0.0
C443 C 0.87316 0.32654 0.13065 0.0
H444 H 0.98496 0.3838 0.10745 0.0
C445 C 0.84625 0.34379 0.09393 0.0
H446 H 0.94513 0.32786 0.16253 0.0
C447 C 0.86868 0.37575 0.06275 0.0
C448 C 0.91869 0.39151 0.06753 0.0
H449 H 0.80724 0.33367 0.09011 0.0
H450 H 0.8464 0.38893 0.03557 0.0
C451 C 0.94622 0.37267 0.10304 0.0
C452 C 0.66898 0.87242 0.17961 0.0
C453 C 0.71662 0.86553 0.1663 0.0
H454 H 0.60133 0.89864 0.16169 0.0
C455 C 0.73277 0.8853 0.12332 0.0
H456 H 0.65451 0.85787 0.21189 0.0
C457 C 0.7022 0.90988 0.09451 0.0
C458 C 0.65379 0.91486 0.10698 0.0
H459 H 0.76899 0.88098 0.11128 0.0
H460 H 0.71581 0.92302 0.06135 0.0
C461 C 0.6382 0.89601 0.15044 0.0
C462 C 0.13797 0.72103 0.14632 0.0
C463 C 0.16915 0.71042 0.1829 0.0
H464 H 0.09251 0.69425 0.08791 0.0
C465 C 0.17526 0.66362 0.19141 0.0
H466 H 0.13247 0.75701 0.13955 0.0
C467 C 0.15233 0.62792 0.16243 0.0
C468 C 0.12303 0.6384 0.12422 0.0
H469 H 0.19855 0.65452 0.21994 0.0
H470 H 0.15886 0.59221 0.16922 0.0
C471 C 0.11489 0.68515 0.11711 0.0
C472 C 0.39343 0.83723 0.84614 0.0
C473 C 0.34764 0.85358 0.84131 0.0
H474 H 0.46444 0.84728 0.87979 0.0
C475 C 0.34065 0.89663 0.86313 0.0
H476 H 0.40004 0.80445 0.8295 0.0
C477 C 0.37818 0.92221 0.89008 0.0
C478 C 0.42306 0.9046 0.89702 0.0
H479 H 0.30592 0.91043 0.8597 0.0
H480 H 0.3711 0.95447 0.90767 0.0
C481 C 0.43041 0.86196 0.87455 0.0
C482 C 0.12175 0.3515 0.87891 0.0
C483 C 0.17028 0.34303 0.88651 0.0
H484 H 0.06917 0.39992 0.88752 0.0
C485 C 0.20422 0.37856 0.90626 0.0
H486 H 0.09527 0.32496 0.86245 0.0
C487 C 0.19005 0.42181 0.91838 0.0
C488 C 0.14119 0.4301 0.91257 0.0
H489 H 0.2422 0.3734 0.91144 0.0
H490 H 0.21711 0.44819 0.9343 0.0
C491 C 0.10721 0.39482 0.89196 0.0
C492 C 0.72467 0.18817 0.89778 0.0
C493 C 0.73874 0.16509 0.8572 0.0
H494 H 0.68169 0.18305 0.95948 0.0
C495 C 0.72733 0.1161 0.85248 0.0
H496 H 0.73353 0.22575 0.90282 0.0
C497 C 0.69792 0.09152 0.88551 0.0
C498 C 0.68004 0.11582 0.92341 0.0
H499 H 0.73777 0.0974 0.82157 0.0
H500 H 0.68581 0.05457 0.87927 0.0
C501 C 0.69537 0.16376 0.93045 0.0
C502 C 0.93752 0.72049 0.89612 0.0
C503 C 0.88722 0.72084 0.90221 0.0
H504 H 0.99872 0.68216 0.90754 0.0
C505 C 0.86171 0.68881 0.93191 0.0
H506 H 0.95767 0.74508 0.87324 0.0
C507 C 0.8846 0.65269 0.95013 0.0
C508 C 0.93323 0.64912 0.93943 0.0
H509 H 0.82296 0.68903 0.9374 0.0
H510 H 0.86368 0.6261 0.97037 0.0
C511 C 0.96069 0.68443 0.91498 0.0
C512 C 0.12158 0.30518 0.10554 0.0
C513 C 0.17169 0.30305 0.10011 0.0
H514 H 0.06207 0.34518 0.09222 0.0
C515 C 0.19854 0.3338 0.07003 0.0
H516 H 0.10039 0.28163 0.12864 0.0
C517 C 0.17724 0.37041 0.05074 0.0
C518 C 0.12878 0.37568 0.06056 0.0
H519 H 0.23717 0.33225 0.06501 0.0
H520 H 0.19924 0.396 0.03025 0.0
C521 C 0.09997 0.34163 0.08546 0.0
C522 C 0.14143 0.6861 0.86536 0.0
C523 C 0.19225 0.69829 0.86785 0.0
H524 H 0.0795 0.64407 0.89294 0.0
C525 C 0.21941 0.679 0.90311 0.0
H526 H 0.11961 0.7001 0.83833 0.0
C527 C 0.19669 0.64693 0.9341 0.0
C528 C 0.14617 0.63308 0.93057 0.0
H529 H 0.25865 0.68777 0.9061 0.0
H530 H 0.21907 0.63229 0.96025 0.0
C531 C 0.11859 0.65363 0.89635 0.0
C532 C 0.38864 0.15262 0.82256 0.0
C533 C 0.34037 0.15827 0.83481 0.0
H534 H 0.45667 0.12782 0.84178 0.0
C535 C 0.32367 0.13777 0.87731 0.0
H536 H 0.40356 0.16778 0.79071 0.0
C537 C 0.35422 0.11368 0.90665 0.0
C538 C 0.4032 0.10994 0.89526 0.0
H539 H 0.28696 0.14112 0.88857 0.0
H540 H 0.34008 0.09993 0.93937 0.0
C541 C 0.41938 0.12952 0.85226 0.0
C542 C 0.8842 0.36203 0.80886 0.0
C543 C 0.88815 0.31497 0.81827 0.0
H544 H 0.90456 0.4335 0.82911 0.0
C545 C 0.91958 0.30384 0.85447 0.0
H546 H 0.8608 0.37155 0.78061 0.0
C547 C 0.94495 0.33954 0.88251 0.0
C548 C 0.93895 0.38666 0.87455 0.0
H549 H 0.92349 0.26764 0.86192 0.0
H550 H 0.9673 0.33013 0.9116 0.0
C551 C 0.90952 0.39752 0.83655 0.0
C552 C 0.66058 0.8917 0.82847 0.0
C553 C 0.69005 0.85775 0.84427 0.0
H554 H 0.60983 0.94129 0.84643 0.0
C555 C 0.68869 0.84841 0.89269 0.0
H556 H 0.66024 0.90026 0.79169 0.0
C557 C 0.6589 0.8709 0.92368 0.0
C558 C 0.6298 0.90514 0.90842 0.0
H559 H 0.71018 0.82261 0.90685 0.0
H560 H 0.65901 0.86152 0.96026 0.0
C561 C 0.63167 0.91555 0.86009 0.0
C562 C 0.93642 0.6727 0.12004 0.0
C563 C 0.88653 0.67745 0.11547 0.0
H564 H 0.99252 0.62866 0.1078 0.0
C565 C 0.85401 0.63954 0.09805 0.0
H566 H 0.96197 0.70112 0.13463 0.0
C567 C 0.87094 0.59776 0.08481 0.0
C568 C 0.921 0.59326 0.08748 0.0
H569 H 0.81515 0.64183 0.0952 0.0
H570 H 0.84495 0.56957 0.07038 0.0
C571 C 0.95362 0.63081 0.10603 0.0
C572 C 0.3274 0.90912 0.14855 0.0
C573 C 0.31616 0.8601 0.14401 0.0
H574 H 0.36932 0.97056 0.12205 0.0
C575 C 0.33111 0.83681 0.10393 0.0
H576 H 0.3163 0.92798 0.17908 0.0
C577 C 0.36111 0.86106 0.07169 0.0
C578 C 0.3762 0.90906 0.07863 0.0
H579 H 0.32243 0.7992 0.09902 0.0
H580 H 0.37541 0.84165 0.04309 0.0
C581 C 0.35745 0.93355 0.11592 0.0
C582 C 0.71967 0.1278 0.13524 0.0
C583 C 0.71284 0.16972 0.15931 0.0
H584 H 0.68821 0.07129 0.08957 0.0
C585 C 0.66657 0.18554 0.15711 0.0
H586 H 0.75475 0.11445 0.13663 0.0
C587 C 0.62881 0.16141 0.12918 0.0
C588 C 0.63589 0.11979 0.10467 0.0
H589 H 0.66005 0.21741 0.1757 0.0
H590 H 0.5943 0.17567 0.12606 0.0
C591 C 0.68139 0.10273 0.10882 0.0
C592 C 0.65606 0.63046 0.79132 0.0
C593 C 0.68418 0.67284 0.80537 0.0
H594 H 0.61011 0.56913 0.81316 0.0
C595 C 0.68488 0.68717 0.85265 0.0
H596 H 0.65458 0.61882 0.75488 0.0
C597 C 0.65903 0.65954 0.8854 0.0
C598 C 0.63209 0.61629 0.87211 0.0
H599 H 0.70551 0.7199 0.86457 0.0
H600 H 0.66104 0.67193 0.92163 0.0
C601 C 0.63019 0.6023 0.82449 0.0
C602 C 0.37459 0.59654 0.82404 0.0
C603 C 0.3945 0.64359 0.82127 0.0
H604 H 0.37333 0.53293 0.86128 0.0
C605 C 0.43216 0.662 0.85251 0.0
H606 H 0.34546 0.5816 0.80029 0.0
C607 C 0.4482 0.63403 0.88757 0.0
C608 C 0.42606 0.58779 0.89205 0.0
H609 H 0.44777 0.69837 0.85103 0.0
H610 H 0.47672 0.64895 0.91199 0.0
C611 C 0.38995 0.56896 0.8594 0.0
C612 C 0.37494 0.33113 0.84628 0.0
C613 C 0.36084 0.34976 0.80393 0.0
H614 H 0.41673 0.34301 0.90991 0.0
C615 C 0.38222 0.39456 0.79125 0.0
H616 H 0.35998 0.29628 0.85641 0.0
C617 C 0.41504 0.42153 0.822 0.0
C618 C 0.42705 0.40363 0.86548 0.0
H619 H 0.37233 0.4093 0.75828 0.0
H620 H 0.42837 0.4572 0.81317 0.0
C621 C 0.40807 0.3576 0.87648 0.0
C622 C 0.63425 0.37614 0.84375 0.0
C623 C 0.68501 0.37579 0.84628 0.0
H624 H 0.57221 0.40346 0.873 0.0
C625 C 0.71234 0.40081 0.88253 0.0
H626 H 0.61246 0.35651 0.81632 0.0
C627 C 0.68951 0.4273 0.91492 0.0
C628 C 0.63891 0.42895 0.91173 0.0
H629 H 0.75151 0.40051 0.88549 0.0
H630 H 0.71165 0.44733 0.94187 0.0
C631 C 0.61123 0.40242 0.87648 0.0
C632 C 0.67633 0.36767 0.10717 0.0
C633 C 0.66345 0.36543 0.1546 0.0
H634 H 0.67011 0.40311 0.04235 0.0
C635 C 0.63137 0.39518 0.17271 0.0
H636 H 0.70152 0.34523 0.09267 0.0
C637 C 0.61283 0.42744 0.14365 0.0
C638 C 0.6275 0.43083 0.0969 0.0
H639 H 0.62132 0.39396 0.20926 0.0
H640 H 0.58827 0.45067 0.15789 0.0
C641 C 0.65892 0.40077 0.07856 0.0
C642 C 0.6798 0.69372 0.15438 0.0
C643 C 0.69312 0.67497 0.19693 0.0
H644 H 0.63828 0.68239 0.09053 0.0
C645 C 0.67049 0.63067 0.20977 0.0
H646 H 0.6957 0.72823 0.14411 0.0
C647 C 0.63726 0.60422 0.17897 0.0
C648 C 0.62611 0.62212 0.13526 0.0
H649 H 0.67973 0.61585 0.2429 0.0
H650 H 0.62296 0.56884 0.18797 0.0
C651 C 0.64628 0.66778 0.12413 0.0
C652 C 0.34017 0.62547 0.11815 0.0
C653 C 0.368 0.65016 0.15428 0.0
H654 H 0.34013 0.57972 0.05812 0.0
C655 C 0.4188 0.65013 0.15591 0.0
H656 H 0.30094 0.62554 0.11592 0.0
C657 C 0.44142 0.62454 0.12236 0.0
C658 C 0.41331 0.59832 0.08716 0.0
H659 H 0.44095 0.66955 0.18323 0.0
H660 H 0.48052 0.62375 0.12517 0.0
C661 C 0.36262 0.5996 0.08492 0.0
C662 C 0.36853 0.34054 0.14894 0.0
C663 C 0.36857 0.35542 0.19601 0.0
H664 H 0.39233 0.35559 0.07989 0.0
C665 C 0.39528 0.39865 0.20965 0.0
H666 H 0.34905 0.30714 0.13738 0.0
C667 C 0.4206 0.42697 0.17629 0.0
C668 C 0.41942 0.41235 0.12889 0.0
H669 H 0.39627 0.41073 0.24595 0.0
H670 H 0.43974 0.46067 0.18731 0.0
C671 C 0.39371 0.36842 0.11597 0.0
C672 C 0.84323 0.64966 0.6321 0.0
C673 C 0.85559 0.66519 0.67842 0.0
H674 H 0.86158 0.61202 0.57048 0.0
C675 C 0.89799 0.64915 0.69852 0.0
H676 H 0.81118 0.66034 0.61489 0.0
C677 C 0.92787 0.62087 0.67246 0.0
C678 C 0.91625 0.6071 0.6253 0.0
H679 H 0.90931 0.66 0.73405 0.0
H680 H 0.96131 0.61196 0.68848 0.0
C681 C 0.8725 0.62133 0.60648 0.0
C682 C 0.3951 0.81107 0.62557 0.0
C683 C 0.34811 0.82198 0.63639 0.0
H684 H 0.46304 0.83415 0.59321 0.0
C685 C 0.33011 0.85993 0.61461 0.0
H686 H 0.40963 0.78152 0.6413 0.0
C687 C 0.36071 0.8899 0.58741 0.0
C688 C 0.40932 0.88183 0.58097 0.0
H689 H 0.29389 0.86892 0.62176 0.0
H690 H 0.34758 0.9214 0.57443 0.0
C691 C 0.42554 0.8408 0.59771 0.0
C692 C 0.2008 0.38633 0.64483 0.0
C693 C 0.18394 0.3642 0.6858 0.0
H694 H 0.18595 0.42973 0.58758 0.0
C695 C 0.13837 0.37453 0.70285 0.0
H696 H 0.23568 0.37999 0.63075 0.0
C697 C 0.10897 0.40309 0.67745 0.0
C698 C 0.12496 0.42296 0.63487 0.0
H699 H 0.12403 0.35824 0.73441 0.0
H700 H 0.07258 0.40681 0.68939 0.0
C701 C 0.17224 0.41548 0.6203 0.0
C702 C 0.67425 0.14263 0.6825 0.0
C703 C 0.68522 0.1877 0.6644 0.0
H704 H 0.63459 0.07408 0.67239 0.0
C705 C 0.66855 0.19664 0.6191 0.0
H706 H 0.68678 0.13485 0.71737 0.0
C707 C 0.64023 0.1613 0.59274 0.0
C708 C 0.62704 0.11705 0.61195 0.0
H709 H 0.67686 0.23104 0.60438 0.0
H710 H 0.62644 0.16933 0.5584 0.0
C711 C 0.64464 0.10785 0.65682 0.0
C712 C 0.90488 0.33443 0.3365 0.0
C713 C 0.8589 0.35034 0.33223 0.0
H714 H 0.97547 0.34371 0.37046 0.0
C715 C 0.84931 0.38943 0.35971 0.0
H716 H 0.91329 0.30444 0.31585 0.0
C717 C 0.88511 0.41252 0.39032 0.0
C718 C 0.93097 0.39635 0.39507 0.0
H719 H 0.81419 0.40259 0.35722 0.0
H720 H 0.87669 0.44274 0.41064 0.0
C721 C 0.94035 0.35686 0.36795 0.0
C722 C 0.70972 0.87272 0.41238 0.0
C723 C 0.69278 0.82676 0.39768 0.0
H724 H 0.68974 0.93936 0.43364 0.0
C725 C 0.64366 0.80905 0.40362 0.0
H726 H 0.74769 0.88673 0.40883 0.0
C727 C 0.61046 0.83924 0.41792 0.0
C728 C 0.62664 0.88688 0.42585 0.0
H729 H 0.63009 0.77342 0.39277 0.0
H730 H 0.57193 0.82641 0.41856 0.0
C731 C 0.67664 0.90283 0.42603 0.0
C732 C 0.20242 0.63403 0.36263 0.0
C733 C 0.21003 0.68321 0.36803 0.0
H734 H 0.16079 0.56993 0.38299 0.0
C735 C 0.18486 0.70469 0.40343 0.0
H736 H 0.22111 0.61633 0.33572 0.0
C737 C 0.15008 0.67828 0.43001 0.0
C738 C 0.13979 0.62959 0.42232 0.0
H739 H 0.19002 0.7424 0.40906 0.0
H740 H 0.12979 0.6964 0.45537 0.0
C741 C 0.16775 0.60743 0.38969 0.0
C742 C 0.446 0.18735 0.36243 0.0
C743 C 0.39811 0.18643 0.37845 0.0
H744 H 0.50935 0.15116 0.35822 0.0
C745 C 0.37778 0.14878 0.40493 0.0
H746 H 0.462 0.21568 0.34108 0.0
C747 C 0.40471 0.11198 0.41458 0.0
C748 C 0.45182 0.11182 0.39681 0.0
H749 H 0.34057 0.14714 0.41689 0.0
H750 H 0.38844 0.08325 0.4353 0.0
C751 C 0.47254 0.14998 0.37112 0.0
C752 C 0.66643 0.89928 0.65908 0.0
C753 C 0.67139 0.85808 0.63284 0.0
H754 H 0.63065 0.9614 0.66481 0.0
C755 C 0.64464 0.84813 0.59106 0.0
H756 H 0.68636 0.90715 0.69196 0.0
C757 C 0.61381 0.87975 0.57518 0.0
C758 C 0.60835 0.92053 0.6019 0.0
H759 H 0.64784 0.81636 0.57072 0.0
H760 H 0.59357 0.87202 0.54245 0.0
C761 C 0.63444 0.93002 0.64404 0.0
C762 C 0.72751 0.16899 0.38285 0.0
C763 C 0.70955 0.20591 0.35926 0.0
H764 H 0.70956 0.1083 0.42406 0.0
C765 C 0.66184 0.21615 0.36787 0.0
H766 H 0.76423 0.16052 0.37726 0.0
C767 C 0.63085 0.18668 0.39546 0.0
C768 C 0.64724 0.1465 0.41403 0.0
H769 H 0.64735 0.24492 0.35064 0.0
H770 H 0.59299 0.19274 0.39833 0.0
C771 C 0.69634 0.13918 0.40971 0.0
C772 C 0.91726 0.64904 0.29864 0.0
C773 C 0.8714 0.65877 0.31542 0.0
H774 H 0.98332 0.61741 0.31246 0.0
C775 C 0.85423 0.63616 0.35601 0.0
H776 H 0.93179 0.66573 0.26735 0.0
C777 C 0.88286 0.60713 0.38055 0.0
C778 C 0.93043 0.60037 0.36633 0.0
H779 H 0.81909 0.64207 0.36979 0.0
H780 H 0.86897 0.59249 0.41305 0.0
C781 C 0.94669 0.62063 0.32406 0.0
C782 C 0.38764 0.83278 0.37995 0.0
C783 C 0.37077 0.83996 0.33433 0.0
H784 H 0.42988 0.86246 0.4396 0.0
C785 C 0.3818 0.88417 0.31433 0.0
H786 H 0.37928 0.79905 0.39608 0.0
C787 C 0.41154 0.91988 0.33858 0.0
C788 C 0.42913 0.9125 0.38388 0.0
H789 H 0.36912 0.89056 0.27913 0.0
H790 H 0.42156 0.95294 0.32165 0.0
C791 C 0.41604 0.86909 0.40488 0.0
C792 C 0.15829 0.37525 0.30376 0.0
C793 C 0.20127 0.3604 0.32388 0.0
H794 H 0.09419 0.41132 0.31356 0.0
C795 C 0.21377 0.37692 0.36988 0.0
H796 H 0.14683 0.36359 0.26848 0.0
C797 C 0.18404 0.405 0.39525 0.0
C798 C 0.1398 0.41808 0.3764 0.0
H799 H 0.24623 0.36713 0.3871 0.0
H800 H 0.19496 0.41501 0.4311 0.0
C801 C 0.12804 0.40336 0.32953 0.0
C802 C 0.34527 0.15354 0.58488 0.0
C803 C 0.36251 0.19896 0.60109 0.0
H804 H 0.36487 0.08781 0.5602 0.0
C805 C 0.41137 0.2171 0.5944 0.0
H806 H 0.30746 0.13927 0.58899 0.0
C807 C 0.44423 0.18761 0.5778 0.0
C808 C 0.42794 0.14025 0.56826 0.0
H809 H 0.42515 0.25233 0.6064 0.0
H810 H 0.48272 0.20053 0.57681 0.0
C811 C 0.37801 0.12413 0.56882 0.0
C812 C 0.85342 0.39206 0.63981 0.0
C813 C 0.84488 0.34297 0.63406 0.0
H814 H 0.8959 0.45569 0.61951 0.0
C815 C 0.86916 0.32125 0.59816 0.0
H816 H 0.83543 0.40993 0.66711 0.0
C817 C 0.90407 0.34725 0.57142 0.0
C818 C 0.91531 0.39579 0.57942 0.0
H819 H 0.86322 0.28358 0.59226 0.0
H820 H 0.9237 0.32893 0.54568 0.0
C821 C 0.88819 0.41828 0.61257 0.0
C822 C 0.2088 0.64091 0.63383 0.0
C823 C 0.19872 0.67911 0.66235 0.0
H824 H 0.18102 0.58669 0.58395 0.0
C825 C 0.15147 0.69245 0.66125 0.0
H826 H 0.2449 0.62966 0.63403 0.0
C827 C 0.11519 0.66842 0.63175 0.0
C828 C 0.1251 0.62982 0.60362 0.0
H829 H 0.14269 0.72166 0.68285 0.0
H830 H 0.07907 0.67965 0.63151 0.0
C831 C 0.17223 0.61613 0.60525 0.0
loop_
_geom_bond_atom_site_label_1
_geom_bond_atom_site_label_2
_geom_bond_distance
_geom_bond_site_symmetry_2
_ccdc_geom_bond_type
Dy0 O4 2.398 . S
Dy0 O5 2.491 . S
Dy0 O6 2.403 . S
Dy0 O7 2.664 . S
Dy0 O11 2.326 . S
Dy0 O15 2.310 . S
Dy0 O16 2.351 . S
C1 O12 1.185 . S
C1 O13 1.355 . S
C2 O4 1.185 . S
C2 O5 1.355 . S
Dy3 O7 2.310 . S
Dy3 O10 2.351 . S
Dy3 O12 2.398 . S
Dy3 O13 2.491 . S
Dy3 O14 2.403 . S
Dy3 O15 2.664 . S
Dy3 O17 2.326 . S
O4 Dy0 2.398 . S
O4 C2 1.185 . S
O5 Dy0 2.491 . S
O5 C2 1.355 . S
O6 Dy0 2.403 . S
O6 C8 1.254 . S
O7 Dy0 2.664 . S
O7 Dy3 2.310 . S
O7 C8 1.268 . S
C8 O6 1.254 . S
C8 O7 1.268 . S
C9 O14 1.254 . S
C9 O15 1.268 . S
O10 Dy3 2.351 . S
O10 C18 1.249 . S
O11 Dy0 2.326 . S
O11 C18 1.267 . S
O12 C1 1.185 . S
O12 Dy3 2.398 . S
O13 C1 1.355 . S
O13 Dy3 2.491 . S
O14 Dy3 2.403 . S
O14 C9 1.254 . S
O15 Dy0 2.310 . S
O15 Dy3 2.664 . S
O15 C9 1.268 . S
O16 Dy0 2.351 . S
O16 C19 1.249 . S
O17 Dy3 2.326 . S
O17 C19 1.267 . S
C18 O10 1.249 . S
C18 O11 1.267 . S
C19 O16 1.249 . S
C19 O17 1.267 . S
Dy20 O24 2.398 . S
Dy20 O25 2.491 . S
Dy20 O26 2.403 . S
Dy20 O27 2.664 . S
Dy20 O31 2.326 . S
Dy20 O35 2.310 . S
Dy20 O36 2.351 . S
C21 O32 1.185 . S
C21 O33 1.355 . S
C22 O24 1.185 . S
C22 O25 1.355 . S
Dy23 O27 2.310 . S
Dy23 O30 2.351 . S
Dy23 O32 2.398 . S
Dy23 O33 2.491 . S
Dy23 O34 2.403 . S
Dy23 O35 2.664 . S
Dy23 O37 2.326 . S
O24 Dy20 2.398 . S
O24 C22 1.185 . S
O25 Dy20 2.491 . S
O25 C22 1.355 . S
O26 Dy20 2.403 . S
O26 C28 1.254 . S
O27 Dy20 2.664 . S
O27 Dy23 2.310 . S
O27 C28 1.268 . S
C28 O26 1.254 . S
C28 O27 1.268 . S
C29 O34 1.254 . S
C29 O35 1.268 . S
O30 Dy23 2.351 . S
O30 C38 1.249 . S
O31 Dy20 2.326 . S
O31 C38 1.267 . S
O32 C21 1.185 . S
O32 Dy23 2.398 . S
O33 C21 1.355 . S
O33 Dy23 2.491 . S
O34 Dy23 2.403 . S
O34 C29 1.254 . S
O35 Dy20 2.310 . S
O35 Dy23 2.664 . S
O35 C29 1.268 . S
O36 Dy20 2.351 . S
O36 C39 1.249 . S
O37 Dy23 2.326 . S
O37 C39 1.267 . S
C38 O30 1.249 . S
C38 O31 1.267 . S
C39 O36 1.249 . S
C39 O37 1.267 . S
Dy40 O44 2.398 . S
Dy40 O45 2.491 . S
Dy40 O46 2.403 . S
Dy40 O47 2.664 . S
Dy40 O51 2.326 . S
Dy40 O55 2.310 . S
Dy40 O56 2.351 . S
C41 O52 1.185 . S
C41 O53 1.355 . S
C42 O44 1.185 . S
C42 O45 1.355 . S
Dy43 O47 2.310 . S
Dy43 O50 2.351 . S
Dy43 O52 2.398 . S
Dy43 O53 2.491 . S
Dy43 O54 2.403 . S
Dy43 O55 2.664 . S
Dy43 O57 2.326 . S
O44 Dy40 2.398 . S
O44 C42 1.185 . S
O45 Dy40 2.491 . S
O45 C42 1.355 . S
O46 Dy40 2.403 . S
O46 C48 1.254 . S
O47 Dy40 2.664 . S
O47 Dy43 2.310 . S
O47 C48 1.268 . S
C48 O46 1.254 . S
C48 O47 1.268 . S
C49 O54 1.254 . S
C49 O55 1.268 . S
O50 Dy43 2.351 . S
O50 C58 1.249 . S
O51 Dy40 2.326 . S
O51 C58 1.267 . S
O52 C41 1.185 . S
O52 Dy43 2.398 . S
O53 C41 1.355 . S
O53 Dy43 2.491 . S
O54 Dy43 2.403 . S
O54 C49 1.254 . S
O55 Dy40 2.310 . S
O55 Dy43 2.664 . S
O55 C49 1.268 . S
O56 Dy40 2.351 . S
O56 C59 1.249 . S
O57 Dy43 2.326 . S
O57 C59 1.267 . S
C58 O50 1.249 . S
C58 O51 1.267 . S
C59 O56 1.249 . S
C59 O57 1.267 . S
Dy60 O64 2.398 . S
Dy60 O65 2.491 . S
Dy60 O66 2.403 . S
Dy60 O67 2.664 . S
Dy60 O71 2.326 . S
Dy60 O75 2.310 . S
Dy60 O76 2.351 . S
C61 O72 1.185 . S
C61 O73 1.355 . S
C62 O64 1.185 . S
C62 O65 1.355 . S
Dy63 O67 2.310 . S
Dy63 O70 2.351 . S
Dy63 O72 2.398 . S
Dy63 O73 2.491 . S
Dy63 O74 2.403 . S
Dy63 O75 2.664 . S
Dy63 O77 2.326 . S
O64 Dy60 2.398 . S
O64 C62 1.185 . S
O65 Dy60 2.491 . S
O65 C62 1.355 . S
O66 Dy60 2.403 . S
O66 C68 1.254 . S
O67 Dy60 2.664 . S
O67 Dy63 2.310 . S
O67 C68 1.268 . S
C68 O66 1.254 . S
C68 O67 1.268 . S
C69 O74 1.254 . S
C69 O75 1.268 . S
O70 Dy63 2.351 . S
O70 C78 1.249 . S
O71 Dy60 2.326 . S
O71 C78 1.267 . S
O72 C61 1.185 . S
O72 Dy63 2.398 . S
O73 C61 1.355 . S
O73 Dy63 2.491 . S
O74 Dy63 2.403 . S
O74 C69 1.254 . S
O75 Dy60 2.310 . S
O75 Dy63 2.664 . S
O75 C69 1.268 . S
O76 Dy60 2.351 . S
O76 C79 1.249 . S
O77 Dy63 2.326 . S
O77 C79 1.267 . S
C78 O70 1.249 . S
C78 O71 1.267 . S
C79 O76 1.249 . S
C79 O77 1.267 . S
Dy80 O84 2.398 . S
Dy80 O85 2.491 . S
Dy80 O86 2.403 . S
Dy80 O87 2.664 . S
Dy80 O91 2.326 . S
Dy80 O95 2.310 . S
Dy80 O96 2.351 . S
C81 O92 1.185 . S
C81 O93 1.355 . S
C82 O84 1.185 . S
C82 O85 1.355 . S
Dy83 O87 2.310 . S
Dy83 O90 2.351 . S
Dy83 O92 2.398 . S
Dy83 O93 2.491 . S
Dy83 O94 2.403 . S
Dy83 O95 2.664 . S
Dy83 O97 2.326 . S
O84 Dy80 2.398 . S
O84 C82 1.185 . S
O85 Dy80 2.491 . S
O85 C82 1.355 . S
O86 Dy80 2.403 . S
O86 C88 1.254 . S
O87 Dy80 2.664 . S
O87 Dy83 2.310 . S
O87 C88 1.268 . S
C88 O86 1.254 . S
C88 O87 1.268 . S
C89 O94 1.254 . S
C89 O95 1.268 . S
O90 Dy83 2.351 . S
O90 C98 1.249 . S
O91 Dy80 2.326 . S
O91 C98 1.267 . S
O92 C81 1.185 . S
O92 Dy83 2.398 . S
O93 C81 1.355 . S
O93 Dy83 2.491 . S
O94 Dy83 2.403 . S
O94 C89 1.254 . S
O95 Dy80 2.310 . S
O95 Dy83 2.664 . S
O95 C89 1.268 . S
O96 Dy80 2.351 . S
O96 C99 1.249 . S
O97 Dy83 2.326 . S
O97 C99 1.267 . S
C98 O90 1.249 . S
C98 O91 1.267 . S
C99 O96 1.249 . S
C99 O97 1.267 . S
Dy100 O104 2.398 . S
Dy100 O105 2.491 . S
Dy100 O106 2.403 . S
Dy100 O107 2.664 . S
Dy100 O111 2.326 . S
Dy100 O115 2.310 . S
Dy100 O116 2.351 . S
C101 O112 1.185 . S
C101 O113 1.355 . S
C102 O104 1.185 . S
C102 O105 1.355 . S
Dy103 O107 2.310 . S
Dy103 O110 2.351 . S
Dy103 O112 2.398 . S
Dy103 O113 2.491 . S
Dy103 O114 2.403 . S
Dy103 O115 2.664 . S
Dy103 O117 2.326 . S
O104 Dy100 2.398 . S
O104 C102 1.185 . S
O105 Dy100 2.491 . S
O105 C102 1.355 . S
O106 Dy100 2.403 . S
O106 C108 1.254 . S
O107 Dy100 2.664 . S
O107 Dy103 2.310 . S
O107 C108 1.268 . S
C108 O106 1.254 . S
C108 O107 1.268 . S
C109 O114 1.254 . S
C109 O115 1.268 . S
O110 Dy103 2.351 . S
O110 C118 1.249 . S
O111 Dy100 2.326 . S
O111 C118 1.267 . S
O112 C101 1.185 . S
O112 Dy103 2.398 . S
O113 C101 1.355 . S
O113 Dy103 2.491 . S
O114 Dy103 2.403 . S
O114 C109 1.254 . S
O115 Dy100 2.310 . S
O115 Dy103 2.664 . S
O115 C109 1.268 . S
O116 Dy100 2.351 . S
O116 C119 1.249 . S
O117 Dy103 2.326 . S
O117 C119 1.267 . S
C118 O110 1.249 . S
C118 O111 1.267 . S
C119 O116 1.249 . S
C119 O117 1.267 . S
Dy120 O124 2.398 . S
Dy120 O125 2.491 . S
Dy120 O126 2.403 . S
Dy120 O127 2.664 . S
Dy120 O131 2.326 . S
Dy120 O135 2.310 . S
Dy120 O136 2.351 . S
C121 O132 1.185 . S
C121 O133 1.355 . S
C122 O124 1.185 . S
C122 O125 1.355 . S
Dy123 O127 2.310 . S
Dy123 O130 2.351 . S
Dy123 O132 2.398 . S
Dy123 O133 2.491 . S
Dy123 O134 2.403 . S
Dy123 O135 2.664 . S
Dy123 O137 2.326 . S
O124 Dy120 2.398 . S
O124 C122 1.185 . S
O125 Dy120 2.491 . S
O125 C122 1.355 . S
O126 Dy120 2.403 . S
O126 C128 1.254 . S
O127 Dy120 2.664 . S
O127 Dy123 2.310 . S
O127 C128 1.268 . S
C128 O126 1.254 . S
C128 O127 1.268 . S
C129 O134 1.254 . S
C129 O135 1.268 . S
O130 Dy123 2.351 . S
O130 C138 1.249 . S
O131 Dy120 2.326 . S
O131 C138 1.267 . S
O132 C121 1.185 . S
O132 Dy123 2.398 . S
O133 C121 1.355 . S
O133 Dy123 2.491 . S
O134 Dy123 2.403 . S
O134 C129 1.254 . S
O135 Dy120 2.310 . S
O135 Dy123 2.664 . S
O135 C129 1.268 . S
O136 Dy120 2.351 . S
O136 C139 1.249 . S
O137 Dy123 2.326 . S
O137 C139 1.267 . S
C138 O130 1.249 . S
C138 O131 1.267 . S
C139 O136 1.249 . S
C139 O137 1.267 . S
Dy140 O144 2.398 . S
Dy140 O145 2.491 . S
Dy140 O146 2.403 . S
Dy140 O147 2.664 . S
Dy140 O151 2.326 . S
Dy140 O155 2.310 . S
Dy140 O156 2.351 . S
C141 O152 1.185 . S
C141 O153 1.355 . S
C142 O144 1.185 . S
C142 O145 1.355 . S
Dy143 O147 2.310 . S
Dy143 O150 2.351 . S
Dy143 O152 2.398 . S
Dy143 O153 2.491 . S
Dy143 O154 2.403 . S
Dy143 O155 2.664 . S
Dy143 O157 2.326 . S
O144 Dy140 2.398 . S
O144 C142 1.185 . S
O145 Dy140 2.491 . S
O145 C142 1.355 . S
O146 Dy140 2.403 . S
O146 C148 1.254 . S
O147 Dy140 2.664 . S
O147 Dy143 2.310 . S
O147 C148 1.268 . S
C148 O146 1.254 . S
C148 O147 1.268 . S
C149 O154 1.254 . S
C149 O155 1.268 . S
O150 Dy143 2.351 . S
O150 C158 1.249 . S
O151 Dy140 2.326 . S
O151 C158 1.267 . S
O152 C141 1.185 . S
O152 Dy143 2.398 . S
O153 C141 1.355 . S
O153 Dy143 2.491 . S
O154 Dy143 2.403 . S
O154 C149 1.254 . S
O155 Dy140 2.310 . S
O155 Dy143 2.664 . S
O155 C149 1.268 . S
O156 Dy140 2.351 . S
O156 C159 1.249 . S
O157 Dy143 2.326 . S
O157 C159 1.267 . S
C158 O150 1.249 . S
C158 O151 1.267 . S
C159 O156 1.249 . S
C159 O157 1.267 . S
Fe160 O161 1.886 1_455 S
Fe160 O164 1.715 . S
Fe160 O169 2.077 1_455 S
Fe160 O174 1.935 . S
Fe160 O180 2.077 1_455 S
Fe160 O189 1.935 . S
O161 Fe160 1.886 1_655 S
O161 Fe163 1.715 1_545 S
Fe162 O164 1.886 . S
Fe162 O165 1.715 1_545 S
Fe162 O172 1.935 1_545 S
Fe162 O173 2.077 . S
Fe162 O179 1.935 1_545 S
Fe162 O188 2.077 . S
Fe163 O161 1.715 1_565 S
Fe163 O166 1.886 . S
Fe163 O170 1.935 1_565 S
Fe163 O175 2.077 . S
Fe163 O181 1.935 1_565 S
Fe163 O185 2.077 . S
O164 Fe160 1.715 . S
O164 Fe162 1.886 . S
O165 Fe162 1.715 1_565 S
O165 Fe167 1.886 1_455 S
O166 Fe163 1.886 . S
O166 Fe167 1.715 . S
Fe167 O165 1.886 1_655 S
Fe167 O166 1.715 . S
Fe167 O171 2.077 1_655 S
Fe167 O176 1.935 . S
Fe167 O178 2.077 1_655 S
Fe167 O186 1.935 . S
C168 O180 1.381 . S
C168 O181 1.421 . S
O169 Fe160 2.077 1_655 S
O169 C182 1.381 . S
O170 Fe163 1.935 1_545 S
O170 C182 1.421 . S
O171 Fe167 2.077 1_455 S
O171 C187 1.381 . S
O172 Fe162 1.935 1_565 S
O172 C187 1.421 . S
O173 Fe162 2.077 . S
O173 C177 1.381 . S
O174 Fe160 1.935 . S
O174 C177 1.421 . S
O175 Fe163 2.077 . S
O175 C183 1.381 . S
O176 Fe167 1.935 . S
O176 C183 1.421 . S
C177 O173 1.381 . S
C177 O174 1.421 . S
O178 Fe167 2.077 1_455 S
O178 C190 1.381 . S
O179 Fe162 1.935 1_565 S
O179 C190 1.421 . S
O180 Fe160 2.077 1_655 S
O180 C168 1.381 . S
O181 Fe163 1.935 1_545 S
O181 C168 1.421 . S
C182 O169 1.381 . S
C182 O170 1.421 . S
C183 O175 1.381 . S
C183 O176 1.421 . S
C184 O185 1.381 . S
C184 O186 1.421 . S
O185 Fe163 2.077 . S
O185 C184 1.381 . S
O186 Fe167 1.935 . S
O186 C184 1.421 . S
C187 O171 1.381 . S
C187 O172 1.421 . S
O188 Fe162 2.077 . S
O188 C191 1.381 . S
O189 Fe160 1.935 . S
O189 C191 1.421 . S
C190 O178 1.381 . S
C190 O179 1.421 . S
C191 O188 1.381 . S
C191 O189 1.421 . S
Fe192 O193 1.886 1_556 S
Fe192 O196 1.715 . S
Fe192 O201 2.077 . S
Fe192 O206 1.935 . S
Fe192 O212 2.077 1_556 S
Fe192 O221 1.935 1_556 S
O193 Fe192 1.886 1_554 S
O193 Fe195 1.715 1_565 S
Fe194 O196 1.886 . S
Fe194 O197 1.715 1_565 S
Fe194 O204 1.935 1_565 S
Fe194 O205 2.077 . S
Fe194 O211 1.935 1_566 S
Fe194 O220 2.077 1_556 S
Fe195 O193 1.715 1_545 S
Fe195 O198 1.886 . S
Fe195 O202 1.935 1_544 S
Fe195 O207 2.077 1_554 S
Fe195 O213 1.935 1_545 S
Fe195 O217 2.077 . S
O196 Fe192 1.715 . S
O196 Fe194 1.886 . S
O197 Fe194 1.715 1_545 S
O197 Fe199 1.885 1_556 S
O198 Fe195 1.886 . S
O198 Fe199 1.715 . S
Fe199 O197 1.885 1_554 S
Fe199 O198 1.715 . S
Fe199 O203 2.077 1_554 S
Fe199 O208 1.935 1_554 S
Fe199 O210 2.077 . S
Fe199 O218 1.935 . S
C200 O212 1.381 . S
C200 O213 1.421 . S
O201 Fe192 2.077 . S
O201 C214 1.381 . S
O202 Fe195 1.935 1_566 S
O202 C214 1.421 . S
O203 Fe199 2.077 1_556 S
O203 C219 1.381 . S
O204 Fe194 1.935 1_545 S
O204 C219 1.421 . S
O205 Fe194 2.077 . S
O205 C209 1.381 . S
O206 Fe192 1.935 . S
O206 C209 1.421 . S
O207 Fe195 2.077 1_556 S
O207 C215 1.381 . S
O208 Fe199 1.935 1_556 S
O208 C215 1.421 . S
C209 O205 1.381 . S
C209 O206 1.421 . S
O210 Fe199 2.077 . S
O210 C222 1.381 . S
O211 Fe194 1.935 1_544 S
O211 C222 1.421 . S
O212 Fe192 2.077 1_554 S
O212 C200 1.381 . S
O213 Fe195 1.935 1_565 S
O213 C200 1.421 . S
C214 O201 1.381 . S
C214 O202 1.421 . S
C215 O207 1.381 . S
C215 O208 1.421 . S
C216 O217 1.381 . S
C216 O218 1.421 . S
O217 Fe195 2.077 . S
O217 C216 1.381 . S
O218 Fe199 1.935 . S
O218 C216 1.421 . S
C219 O203 1.381 . S
C219 O204 1.421 . S
O220 Fe194 2.077 1_554 S
O220 C223 1.381 . S
O221 Fe192 1.935 1_554 S
O221 C223 1.421 . S
C222 O210 1.381 . S
C222 O211 1.421 . S
C223 O220 1.381 . S
C223 O221 1.421 . S
Fe224 O225 1.885 1_454 S
Fe224 O228 1.715 . S
Fe224 O233 2.077 1_454 S
Fe224 O238 1.935 1_554 S
Fe224 O244 2.077 1_455 S
Fe224 O253 1.935 . S
O225 Fe224 1.885 1_656 S
O225 Fe227 1.715 . S
Fe226 O228 1.886 . S
Fe226 O229 1.715 . S
Fe226 O236 1.935 1_554 S
Fe226 O237 2.077 1_554 S
Fe226 O243 1.935 . S
Fe226 O252 2.077 . S
Fe227 O225 1.715 . S
Fe227 O230 1.886 . S
Fe227 O234 1.935 . S
Fe227 O239 2.077 . S
Fe227 O245 1.935 1_556 S
Fe227 O249 2.077 1_556 S
O228 Fe224 1.715 . S
O228 Fe226 1.886 . S
O229 Fe226 1.715 . S
O229 Fe231 1.886 1_454 S
O230 Fe227 1.886 . S
O230 Fe231 1.715 . S
Fe231 O229 1.886 1_656 S
Fe231 O230 1.715 . S
Fe231 O235 2.077 1_655 S
Fe231 O240 1.935 . S
Fe231 O242 2.077 1_656 S
Fe231 O250 1.935 1_556 S
C232 O244 1.381 . S
C232 O245 1.421 . S
O233 Fe224 2.077 1_656 S
O233 C246 1.381 . S
O234 Fe227 1.935 . S
O234 C246 1.421 . S
O235 Fe231 2.077 1_455 S
O235 C251 1.381 . S
O236 Fe226 1.935 1_556 S
O236 C251 1.421 . S
O237 Fe226 2.077 1_556 S
O237 C241 1.381 . S
O238 Fe224 1.935 1_556 S
O238 C241 1.421 . S
O239 Fe227 2.077 . S
O239 C247 1.381 . S
O240 Fe231 1.935 . S
O240 C247 1.421 . S
C241 O237 1.381 . S
C241 O238 1.421 . S
O242 Fe231 2.077 1_454 S
O242 C254 1.381 . S
O243 Fe226 1.935 . S
O243 C254 1.421 . S
O244 Fe224 2.077 1_655 S
O244 C232 1.381 . S
O245 Fe227 1.935 1_554 S
O245 C232 1.421 . S
C246 O233 1.381 . S
C246 O234 1.421 . S
C247 O239 1.381 . S
C247 O240 1.421 . S
C248 O249 1.381 . S
C248 O250 1.421 . S
O249 Fe227 2.077 1_554 S
O249 C248 1.381 . S
O250 Fe231 1.935 1_554 S
O250 C248 1.421 . S
C251 O235 1.381 . S
C251 O236 1.421 . S
O252 Fe226 2.077 . S
O252 C255 1.381 . S
O253 Fe224 1.935 . S
O253 C255 1.421 . S
C254 O242 1.381 . S
C254 O243 1.421 . S
C255 O252 1.381 . S
C255 O253 1.421 . S
Fe256 O257 1.886 . S
Fe256 O260 1.715 . S
Fe256 O265 2.077 . S
Fe256 O270 1.935 . S
Fe256 O276 2.077 . S
Fe256 O285 1.935 . S
O257 Fe256 1.886 . S
O257 Fe259 1.715 1_556 S
Fe258 O260 1.886 . S
Fe258 O261 1.715 1_556 S
Fe258 O268 1.935 1_556 S
Fe258 O269 2.077 . S
Fe258 O275 1.935 1_556 S
Fe258 O284 2.077 . S
Fe259 O257 1.715 1_554 S
Fe259 O262 1.886 . S
Fe259 O266 1.935 1_554 S
Fe259 O271 2.077 . S
Fe259 O277 1.935 1_554 S
Fe259 O281 2.077 . S
O260 Fe256 1.715 . S
O260 Fe258 1.886 . S
O261 Fe258 1.715 1_554 S
O261 Fe263 1.886 . S
O262 Fe259 1.886 . S
O262 Fe263 1.715 . S
Fe263 O261 1.886 . S
Fe263 O262 1.715 . S
Fe263 O267 2.077 . S
Fe263 O272 1.935 . S
Fe263 O274 2.077 . S
Fe263 O282 1.935 . S
C264 O276 1.381 . S
C264 O277 1.421 . S
O265 Fe256 2.077 . S
O265 C278 1.381 . S
O266 Fe259 1.935 1_556 S
O266 C278 1.421 . S
O267 Fe263 2.077 . S
O267 C283 1.381 . S
O268 Fe258 1.935 1_554 S
O268 C283 1.421 . S
O269 Fe258 2.077 . S
O269 C273 1.381 . S
O270 Fe256 1.935 . S
O270 C273 1.421 . S
O271 Fe259 2.077 . S
O271 C279 1.381 . S
O272 Fe263 1.935 . S
O272 C279 1.421 . S
C273 O269 1.381 . S
C273 O270 1.421 . S
O274 Fe263 2.077 . S
O274 C286 1.381 . S
O275 Fe258 1.935 1_554 S
O275 C286 1.421 . S
O276 Fe256 2.077 . S
O276 C264 1.381 . S
O277 Fe259 1.935 1_556 S
O277 C264 1.421 . S
C278 O265 1.381 . S
C278 O266 1.421 . S
C279 O271 1.381 . S
C279 O272 1.421 . S
C280 O281 1.381 . S
C280 O282 1.421 . S
O281 Fe259 2.077 . S
O281 C280 1.381 . S
O282 Fe263 1.935 . S
O282 C280 1.421 . S
C283 O267 1.381 . S
C283 O268 1.421 . S
O284 Fe258 2.077 . S
O284 C287 1.381 . S
O285 Fe256 1.935 . S
O285 C287 1.421 . S
C286 O274 1.381 . S
C286 O275 1.421 . S
C287 O284 1.381 . S
C287 O285 1.421 . S
Fe288 O289 1.886 . S
Fe288 O292 1.715 . S
Fe288 O297 2.077 1_655 S
Fe288 O302 1.935 1_655 S
Fe288 O308 2.077 . S
Fe288 O317 1.935 . S
O289 Fe288 1.886 . S
O289 Fe291 1.715 1_655 S
Fe290 O292 1.886 . S
Fe290 O293 1.715 1_655 S
Fe290 O300 1.935 1_655 S
Fe290 O301 2.077 1_655 S
Fe290 O307 1.935 . S
Fe290 O316 2.077 . S
Fe291 O289 1.715 1_455 S
Fe291 O294 1.886 . S
Fe291 O298 1.935 . S
Fe291 O303 2.077 . S
Fe291 O309 1.935 1_455 S
Fe291 O313 2.077 1_455 S
O292 Fe288 1.715 . S
O292 Fe290 1.886 . S
O293 Fe290 1.715 1_455 S
O293 Fe295 1.886 . S
O294 Fe291 1.886 . S
O294 Fe295 1.715 . S
Fe295 O293 1.886 . S
Fe295 O294 1.715 . S
Fe295 O299 2.077 . S
Fe295 O304 1.935 . S
Fe295 O306 2.077 1_455 S
Fe295 O314 1.935 1_455 S
C296 O308 1.381 . S
C296 O309 1.421 . S
O297 Fe288 2.077 1_455 S
O297 C310 1.381 . S
O298 Fe291 1.935 . S
O298 C310 1.421 . S
O299 Fe295 2.077 . S
O299 C315 1.381 . S
O300 Fe290 1.935 1_455 S
O300 C315 1.421 . S
O301 Fe290 2.077 1_455 S
O301 C305 1.381 . S
O302 Fe288 1.935 1_455 S
O302 C305 1.421 . S
O303 Fe291 2.077 . S
O303 C311 1.381 . S
O304 Fe295 1.935 . S
O304 C311 1.421 . S
C305 O301 1.381 . S
C305 O302 1.421 . S
O306 Fe295 2.077 1_655 S
O306 C318 1.381 . S
O307 Fe290 1.935 . S
O307 C318 1.421 . S
O308 Fe288 2.077 . S
O308 C296 1.381 . S
O309 Fe291 1.935 1_655 S
O309 C296 1.421 . S
C310 O297 1.381 . S
C310 O298 1.421 . S
C311 O303 1.381 . S
C311 O304 1.421 . S
C312 O313 1.381 . S
C312 O314 1.421 . S
O313 Fe291 2.077 1_655 S
O313 C312 1.381 . S
O314 Fe295 1.935 1_655 S
O314 C312 1.421 . S
C315 O299 1.381 . S
C315 O300 1.421 . S
O316 Fe290 2.077 . S
O316 C319 1.381 . S
O317 Fe288 1.935 . S
O317 C319 1.421 . S
C318 O306 1.381 . S
C318 O307 1.421 . S
C319 O316 1.381 . S
C319 O317 1.421 . S
Fe320 O321 1.886 . S
Fe320 O324 1.715 . S
Fe320 O329 2.077 . S
Fe320 O334 1.935 . S
Fe320 O340 2.077 . S
Fe320 O349 1.935 . S
O321 Fe320 1.886 . S
O321 Fe323 1.715 1_565 S
Fe322 O324 1.886 . S
Fe322 O325 1.715 1_565 S
Fe322 O332 1.935 1_565 S
Fe322 O333 2.077 . S
Fe322 O339 1.935 1_565 S
Fe322 O348 2.077 . S
Fe323 O321 1.715 1_545 S
Fe323 O326 1.886 . S
Fe323 O330 1.935 1_545 S
Fe323 O335 2.077 . S
Fe323 O341 1.935 1_545 S
Fe323 O345 2.077 . S
O324 Fe320 1.715 . S
O324 Fe322 1.886 . S
O325 Fe322 1.715 1_545 S
O325 Fe327 1.886 . S
O326 Fe323 1.886 . S
O326 Fe327 1.715 . S
Fe327 O325 1.886 . S
Fe327 O326 1.715 . S
Fe327 O331 2.077 . S
Fe327 O336 1.935 . S
Fe327 O338 2.077 . S
Fe327 O346 1.935 . S
C328 O340 1.381 . S
C328 O341 1.421 . S
O329 Fe320 2.077 . S
O329 C342 1.381 . S
O330 Fe323 1.935 1_565 S
O330 C342 1.421 . S
O331 Fe327 2.077 . S
O331 C347 1.381 . S
O332 Fe322 1.935 1_545 S
O332 C347 1.421 . S
O333 Fe322 2.077 . S
O333 C337 1.381 . S
O334 Fe320 1.935 . S
O334 C337 1.421 . S
O335 Fe323 2.077 . S
O335 C343 1.381 . S
O336 Fe327 1.935 . S
O336 C343 1.421 . S
C337 O333 1.381 . S
C337 O334 1.421 . S
O338 Fe327 2.077 . S
O338 C350 1.381 . S
O339 Fe322 1.935 1_545 S
O339 C350 1.421 . S
O340 Fe320 2.077 . S
O340 C328 1.381 . S
O341 Fe323 1.935 1_565 S
O341 C328 1.421 . S
C342 O329 1.381 . S
C342 O330 1.421 . S
C343 O335 1.381 . S
C343 O336 1.421 . S
C344 O345 1.381 . S
C344 O346 1.421 . S
O345 Fe323 2.077 . S
O345 C344 1.381 . S
O346 Fe327 1.935 . S
O346 C344 1.421 . S
C347 O331 1.381 . S
C347 O332 1.421 . S
O348 Fe322 2.077 . S
O348 C351 1.381 . S
O349 Fe320 1.935 . S
O349 C351 1.421 . S
C350 O338 1.381 . S
C350 O339 1.421 . S
C351 O348 1.381 . S
C351 O349 1.421 . S
C352 C353 1.387 . S
C352 H356 0.950 . S
C352 C361 1.390 . S
C353 C352 1.387 . S
C353 C355 1.387 . S
H354 C361 0.950 . S
C355 C353 1.387 . S
C355 C357 1.390 . S
C355 H359 0.950 . S
H356 C352 0.950 . S
C357 C355 1.390 . S
C357 C358 1.387 . S
C357 H360 0.950 . S
C358 C357 1.387 . S
C358 C361 1.387 . S
H359 C355 0.950 . S
H360 C357 0.950 . S
C361 C352 1.390 . S
C361 H354 0.950 . S
C361 C358 1.387 . S
C362 C363 1.387 . S
C362 H366 0.950 . S
C362 C371 1.390 . S
C363 C362 1.387 . S
C363 C365 1.387 . S
H364 C371 0.950 . S
C365 C363 1.387 . S
C365 C367 1.390 . S
C365 H369 0.950 . S
H366 C362 0.950 . S
C367 C365 1.390 . S
C367 C368 1.387 . S
C367 H370 0.950 . S
C368 C367 1.387 . S
C368 C371 1.387 . S
H369 C365 0.950 . S
H370 C367 0.950 . S
C371 C362 1.390 . S
C371 H364 0.950 . S
C371 C368 1.387 . S
C372 C373 1.387 . S
C372 H376 0.950 . S
C372 C381 1.390 . S
C373 C372 1.387 . S
C373 C375 1.387 . S
H374 C381 0.950 . S
C375 C373 1.387 . S
C375 C377 1.390 . S
C375 H379 0.950 . S
H376 C372 0.950 . S
C377 C375 1.390 . S
C377 C378 1.387 . S
C377 H380 0.950 . S
C378 C377 1.387 . S
C378 C381 1.387 . S
H379 C375 0.950 . S
H380 C377 0.950 . S
C381 C372 1.390 . S
C381 H374 0.950 . S
C381 C378 1.387 . S
C382 C383 1.387 . S
C382 H386 0.950 . S
C382 C391 1.390 . S
C383 C382 1.387 . S
C383 C385 1.387 . S
H384 C391 0.950 . S
C385 C383 1.387 . S
C385 C387 1.390 . S
C385 H389 0.950 . S
H386 C382 0.950 . S
C387 C385 1.390 . S
C387 C388 1.387 . S
C387 H390 0.950 . S
C388 C387 1.387 . S
C388 C391 1.387 . S
H389 C385 0.950 . S
H390 C387 0.950 . S
C391 C382 1.390 . S
C391 H384 0.950 . S
C391 C388 1.387 . S
C392 C393 1.387 . S
C392 H396 0.950 . S
C392 C401 1.390 . S
C393 C392 1.387 . S
C393 C395 1.387 . S
H394 C401 0.950 . S
C395 C393 1.387 . S
C395 C397 1.390 . S
C395 H399 0.950 . S
H396 C392 0.950 . S
C397 C395 1.390 . S
C397 C398 1.387 . S
C397 H400 0.950 . S
C398 C397 1.387 . S
C398 C401 1.387 . S
H399 C395 0.950 . S
H400 C397 0.950 . S
C401 C392 1.390 . S
C401 H394 0.950 . S
C401 C398 1.387 . S
C402 C403 1.387 . S
C402 H406 0.950 . S
C402 C411 1.390 . S
C403 C402 1.387 . S
C403 C405 1.387 . S
H404 C411 0.950 . S
C405 C403 1.387 . S
C405 C407 1.390 . S
C405 H409 0.950 . S
H406 C402 0.950 . S
C407 C405 1.390 . S
C407 C408 1.387 . S
C407 H410 0.950 . S
C408 C407 1.387 . S
C408 C411 1.387 . S
H409 C405 0.950 . S
H410 C407 0.950 . S
C411 C402 1.390 . S
C411 H404 0.950 . S
C411 C408 1.387 . S
C412 C413 1.387 . S
C412 H416 0.950 . S
C412 C421 1.390 . S
C413 C412 1.387 . S
C413 C415 1.387 . S
H414 C421 0.950 . S
C415 C413 1.387 . S
C415 C417 1.390 . S
C415 H419 0.950 . S
H416 C412 0.950 . S
C417 C415 1.390 . S
C417 C418 1.387 . S
C417 H420 0.950 . S
C418 C417 1.387 . S
C418 C421 1.387 . S
H419 C415 0.950 . S
H420 C417 0.950 . S
C421 C412 1.390 . S
C421 H414 0.950 . S
C421 C418 1.387 . S
C422 C423 1.387 . S
C422 H426 0.950 . S
C422 C431 1.390 . S
C423 C422 1.387 . S
C423 C425 1.387 . S
H424 C431 0.950 . S
C425 C423 1.387 . S
C425 C427 1.390 . S
C425 H429 0.950 . S
H426 C422 0.950 . S
C427 C425 1.390 . S
C427 C428 1.387 . S
C427 H430 0.950 . S
C428 C427 1.387 . S
C428 C431 1.387 . S
H429 C425 0.950 . S
H430 C427 0.950 . S
C431 C422 1.390 . S
C431 H424 0.950 . S
C431 C428 1.387 . S
C432 C433 1.387 . S
C432 H436 0.950 . S
C432 C441 1.390 . S
C433 C432 1.387 . S
C433 C435 1.387 . S
H434 C441 0.950 . S
C435 C433 1.387 . S
C435 C437 1.390 . S
C435 H439 0.950 . S
H436 C432 0.950 . S
C437 C435 1.390 . S
C437 C438 1.387 . S
C437 H440 0.950 . S
C438 C437 1.387 . S
C438 C441 1.387 . S
H439 C435 0.950 . S
H440 C437 0.950 . S
C441 C432 1.390 . S
C441 H434 0.950 . S
C441 C438 1.387 . S
C442 C443 1.387 . S
C442 H446 0.950 . S
C442 C451 1.390 . S
C443 C442 1.387 . S
C443 C445 1.387 . S
H444 C451 0.950 . S
C445 C443 1.387 . S
C445 C447 1.390 . S
C445 H449 0.950 . S
H446 C442 0.950 . S
C447 C445 1.390 . S
C447 C448 1.387 . S
C447 H450 0.950 . S
C448 C447 1.387 . S
C448 C451 1.387 . S
H449 C445 0.950 . S
H450 C447 0.950 . S
C451 C442 1.390 . S
C451 H444 0.950 . S
C451 C448 1.387 . S
C452 C453 1.387 . S
C452 H456 0.950 . S
C452 C461 1.390 . S
C453 C452 1.387 . S
C453 C455 1.387 . S
H454 C461 0.950 . S
C455 C453 1.387 . S
C455 C457 1.390 . S
C455 H459 0.950 . S
H456 C452 0.950 . S
C457 C455 1.390 . S
C457 C458 1.387 . S
C457 H460 0.950 . S
C458 C457 1.387 . S
C458 C461 1.387 . S
H459 C455 0.950 . S
H460 C457 0.950 . S
C461 C452 1.390 . S
C461 H454 0.950 . S
C461 C458 1.387 . S
C462 C463 1.387 . S
C462 H466 0.950 . S
C462 C471 1.390 . S
C463 C462 1.387 . S
C463 C465 1.387 . S
H464 C471 0.950 . S
C465 C463 1.387 . S
C465 C467 1.390 . S
C465 H469 0.950 . S
H466 C462 0.950 . S
C467 C465 1.390 . S
C467 C468 1.387 . S
C467 H470 0.950 . S
C468 C467 1.387 . S
C468 C471 1.387 . S
H469 C465 0.950 . S
H470 C467 0.950 . S
C471 C462 1.390 . S
C471 H464 0.950 . S
C471 C468 1.387 . S
C472 C473 1.387 . S
C472 H476 0.950 . S
C472 C481 1.390 . S
C473 C472 1.387 . S
C473 C475 1.387 . S
H474 C481 0.950 . S
C475 C473 1.387 . S
C475 C477 1.390 . S
C475 H479 0.950 . S
H476 C472 0.950 . S
C477 C475 1.390 . S
C477 C478 1.387 . S
C477 H480 0.950 . S
C478 C477 1.387 . S
C478 C481 1.387 . S
H479 C475 0.950 . S
H480 C477 0.950 . S
C481 C472 1.390 . S
C481 H474 0.950 . S
C481 C478 1.387 . S
C482 C483 1.387 . S
C482 H486 0.950 . S
C482 C491 1.390 . S
C483 C482 1.387 . S
C483 C485 1.387 . S
H484 C491 0.950 . S
C485 C483 1.387 . S
C485 C487 1.390 . S
C485 H489 0.950 . S
H486 C482 0.950 . S
C487 C485 1.390 . S
C487 C488 1.387 . S
C487 H490 0.950 . S
C488 C487 1.387 . S
C488 C491 1.387 . S
H489 C485 0.950 . S
H490 C487 0.950 . S
C491 C482 1.390 . S
C491 H484 0.950 . S
C491 C488 1.387 . S
C492 C493 1.387 . S
C492 H496 0.950 . S
C492 C501 1.390 . S
C493 C492 1.387 . S
C493 C495 1.387 . S
H494 C501 0.950 . S
C495 C493 1.387 . S
C495 C497 1.390 . S
C495 H499 0.950 . S
H496 C492 0.950 . S
C497 C495 1.390 . S
C497 C498 1.387 . S
C497 H500 0.950 . S
C498 C497 1.387 . S
C498 C501 1.387 . S
H499 C495 0.950 . S
H500 C497 0.950 . S
C501 C492 1.390 . S
C501 H494 0.950 . S
C501 C498 1.387 . S
C502 C503 1.387 . S
C502 H506 0.950 . S
C502 C511 1.390 . S
C503 C502 1.387 . S
C503 C505 1.387 . S
H504 C511 0.950 . S
C505 C503 1.387 . S
C505 C507 1.390 . S
C505 H509 0.950 . S
H506 C502 0.950 . S
C507 C505 1.390 . S
C507 C508 1.387 . S
C507 H510 0.950 . S
C508 C507 1.387 . S
C508 C511 1.387 . S
H509 C505 0.950 . S
H510 C507 0.950 . S
C511 C502 1.390 . S
C511 H504 0.950 . S
C511 C508 1.387 . S
C512 C513 1.387 . S
C512 H516 0.950 . S
C512 C521 1.390 . S
C513 C512 1.387 . S
C513 C515 1.387 . S
H514 C521 0.950 . S
C515 C513 1.387 . S
C515 C517 1.390 . S
C515 H519 0.950 . S
H516 C512 0.950 . S
C517 C515 1.390 . S
C517 C518 1.387 . S
C517 H520 0.950 . S
C518 C517 1.387 . S
C518 C521 1.387 . S
H519 C515 0.950 . S
H520 C517 0.950 . S
C521 C512 1.390 . S
C521 H514 0.950 . S
C521 C518 1.387 . S
C522 C523 1.387 . S
C522 H526 0.950 . S
C522 C531 1.390 . S
C523 C522 1.387 . S
C523 C525 1.387 . S
H524 C531 0.950 . S
C525 C523 1.387 . S
C525 C527 1.390 . S
C525 H529 0.950 . S
H526 C522 0.950 . S
C527 C525 1.390 . S
C527 C528 1.387 . S
C527 H530 0.950 . S
C528 C527 1.387 . S
C528 C531 1.387 . S
H529 C525 0.950 . S
H530 C527 0.950 . S
C531 C522 1.390 . S
C531 H524 0.950 . S
C531 C528 1.387 . S
C532 C533 1.387 . S
C532 H536 0.950 . S
C532 C541 1.390 . S
C533 C532 1.387 . S
C533 C535 1.387 . S
H534 C541 0.950 . S
C535 C533 1.387 . S
C535 C537 1.390 . S
C535 H539 0.950 . S
H536 C532 0.950 . S
C537 C535 1.390 . S
C537 C538 1.387 . S
C537 H540 0.950 . S
C538 C537 1.387 . S
C538 C541 1.387 . S
H539 C535 0.950 . S
H540 C537 0.950 . S
C541 C532 1.390 . S
C541 H534 0.950 . S
C541 C538 1.387 . S
C542 C543 1.387 . S
C542 H546 0.950 . S
C542 C551 1.390 . S
C543 C542 1.387 . S
C543 C545 1.387 . S
H544 C551 0.950 . S
C545 C543 1.387 . S
C545 C547 1.390 . S
C545 H549 0.950 . S
H546 C542 0.950 . S
C547 C545 1.390 . S
C547 C548 1.387 . S
C547 H550 0.950 . S
C548 C547 1.387 . S
C548 C551 1.387 . S
H549 C545 0.950 . S
H550 C547 0.950 . S
C551 C542 1.390 . S
C551 H544 0.950 . S
C551 C548 1.387 . S
C552 C553 1.387 . S
C552 H556 0.950 . S
C552 C561 1.390 . S
C553 C552 1.387 . S
C553 C555 1.387 . S
H554 C561 0.950 . S
C555 C553 1.387 . S
C555 C557 1.390 . S
C555 H559 0.950 . S
H556 C552 0.950 . S
C557 C555 1.390 . S
C557 C558 1.387 . S
C557 H560 0.950 . S
C558 C557 1.387 . S
C558 C561 1.387 . S
H559 C555 0.950 . S
H560 C557 0.950 . S
C561 C552 1.390 . S
C561 H554 0.950 . S
C561 C558 1.387 . S
C562 C563 1.387 . S
C562 H566 0.950 . S
C562 C571 1.390 . S
C563 C562 1.387 . S
C563 C565 1.387 . S
H564 C571 0.950 . S
C565 C563 1.387 . S
C565 C567 1.390 . S
C565 H569 0.950 . S
H566 C562 0.950 . S
C567 C565 1.390 . S
C567 C568 1.387 . S
C567 H570 0.950 . S
C568 C567 1.387 . S
C568 C571 1.387 . S
H569 C565 0.950 . S
H570 C567 0.950 . S
C571 C562 1.390 . S
C571 H564 0.950 . S
C571 C568 1.387 . S
C572 C573 1.387 . S
C572 H576 0.950 . S
C572 C581 1.390 . S
C573 C572 1.387 . S
C573 C575 1.387 . S
H574 C581 0.950 . S
C575 C573 1.387 . S
C575 C577 1.390 . S
C575 H579 0.950 . S
H576 C572 0.950 . S
C577 C575 1.390 . S
C577 C578 1.387 . S
C577 H580 0.950 . S
C578 C577 1.387 . S
C578 C581 1.387 . S
H579 C575 0.950 . S
H580 C577 0.950 . S
C581 C572 1.390 . S
C581 H574 0.950 . S
C581 C578 1.387 . S
C582 C583 1.387 . S
C582 H586 0.950 . S
C582 C591 1.390 . S
C583 C582 1.387 . S
C583 C585 1.387 . S
H584 C591 0.950 . S
C585 C583 1.387 . S
C585 C587 1.390 . S
C585 H589 0.950 . S
H586 C582 0.950 . S
C587 C585 1.390 . S
C587 C588 1.387 . S
C587 H590 0.950 . S
C588 C587 1.387 . S
C588 C591 1.387 . S
H589 C585 0.950 . S
H590 C587 0.950 . S
C591 C582 1.390 . S
C591 H584 0.950 . S
C591 C588 1.387 . S
C592 C593 1.387 . S
C592 H596 0.950 . S
C592 C601 1.390 . S
C593 C592 1.387 . S
C593 C595 1.387 . S
H594 C601 0.950 . S
C595 C593 1.387 . S
C595 C597 1.390 . S
C595 H599 0.950 . S
H596 C592 0.950 . S
C597 C595 1.390 . S
C597 C598 1.387 . S
C597 H600 0.950 . S
C598 C597 1.387 . S
C598 C601 1.387 . S
H599 C595 0.950 . S
H600 C597 0.950 . S
C601 C592 1.390 . S
C601 H594 0.950 . S
C601 C598 1.387 . S
C602 C603 1.387 . S
C602 H606 0.950 . S
C602 C611 1.390 . S
C603 C602 1.387 . S
C603 C605 1.387 . S
H604 C611 0.950 . S
C605 C603 1.387 . S
C605 C607 1.390 . S
C605 H609 0.950 . S
H606 C602 0.950 . S
C607 C605 1.390 . S
C607 C608 1.387 . S
C607 H610 0.950 . S
C608 C607 1.387 . S
C608 C611 1.387 . S
H609 C605 0.950 . S
H610 C607 0.950 . S
C611 C602 1.390 . S
C611 H604 0.950 . S
C611 C608 1.387 . S
C612 C613 1.387 . S
C612 H616 0.950 . S
C612 C621 1.390 . S
C613 C612 1.387 . S
C613 C615 1.387 . S
H614 C621 0.950 . S
C615 C613 1.387 . S
C615 C617 1.390 . S
C615 H619 0.950 . S
H616 C612 0.950 . S
C617 C615 1.390 . S
C617 C618 1.387 . S
C617 H620 0.950 . S
C618 C617 1.387 . S
C618 C621 1.387 . S
H619 C615 0.950 . S
H620 C617 0.950 . S
C621 C612 1.390 . S
C621 H614 0.950 . S
C621 C618 1.387 . S
C622 C623 1.387 . S
C622 H626 0.950 . S
C622 C631 1.390 . S
C623 C622 1.387 . S
C623 C625 1.387 . S
H624 C631 0.950 . S
C625 C623 1.387 . S
C625 C627 1.390 . S
C625 H629 0.950 . S
H626 C622 0.950 . S
C627 C625 1.390 . S
C627 C628 1.387 . S
C627 H630 0.950 . S
C628 C627 1.387 . S
C628 C631 1.387 . S
H629 C625 0.950 . S
H630 C627 0.950 . S
C631 C622 1.390 . S
C631 H624 0.950 . S
C631 C628 1.387 . S
C632 C633 1.387 . S
C632 H636 0.950 . S
C632 C641 1.390 . S
C633 C632 1.387 . S
C633 C635 1.387 . S
H634 C641 0.950 . S
C635 C633 1.387 . S
C635 C637 1.390 . S
C635 H639 0.950 . S
H636 C632 0.950 . S
C637 C635 1.390 . S
C637 C638 1.387 . S
C637 H640 0.950 . S
C638 C637 1.387 . S
C638 C641 1.387 . S
H639 C635 0.950 . S
H640 C637 0.950 . S
C641 C632 1.390 . S
C641 H634 0.950 . S
C641 C638 1.387 . S
C642 C643 1.387 . S
C642 H646 0.950 . S
C642 C651 1.390 . S
C643 C642 1.387 . S
C643 C645 1.387 . S
H644 C651 0.950 . S
C645 C643 1.387 . S
C645 C647 1.390 . S
C645 H649 0.950 . S
H646 C642 0.950 . S
C647 C645 1.390 . S
C647 C648 1.387 . S
C647 H650 0.950 . S
C648 C647 1.387 . S
C648 C651 1.387 . S
H649 C645 0.950 . S
H650 C647 0.950 . S
C651 C642 1.390 . S
C651 H644 0.950 . S
C651 C648 1.387 . S
C652 C653 1.387 . S
C652 H656 0.950 . S
C652 C661 1.390 . S
C653 C652 1.387 . S
C653 C655 1.387 . S
H654 C661 0.950 . S
C655 C653 1.387 . S
C655 C657 1.390 . S
C655 H659 0.950 . S
H656 C652 0.950 . S
C657 C655 1.390 . S
C657 C658 1.387 . S
C657 H660 0.950 . S
C658 C657 1.387 . S
C658 C661 1.387 . S
H659 C655 0.950 . S
H660 C657 0.950 . S
C661 C652 1.390 . S
C661 H654 0.950 . S
C661 C658 1.387 . S
C662 C663 1.387 . S
C662 H666 0.950 . S
C662 C671 1.390 . S
C663 C662 1.387 . S
C663 C665 1.387 . S
H664 C671 0.950 . S
C665 C663 1.387 . S
C665 C667 1.390 . S
C665 H669 0.950 . S
H666 C662 0.950 . S
C667 C665 1.390 . S
C667 C668 1.387 . S
C667 H670 0.950 . S
C668 C667 1.387 . S
C668 C671 1.387 . S
H669 C665 0.950 . S
H670 C667 0.950 . S
C671 C662 1.390 . S
C671 H664 0.950 . S
C671 C668 1.387 . S
C672 C673 1.387 . S
C672 H676 0.950 . S
C672 C681 1.390 . S
C673 C672 1.387 . S
C673 C675 1.387 . S
H674 C681 0.950 . S
C675 C673 1.387 . S
C675 C677 1.390 . S
C675 H679 0.950 . S
H676 C672 0.950 . S
C677 C675 1.390 . S
C677 C678 1.387 . S
C677 H680 0.950 . S
C678 C677 1.387 . S
C678 C681 1.387 . S
H679 C675 0.950 . S
H680 C677 0.950 . S
C681 C672 1.390 . S
C681 H674 0.950 . S
C681 C678 1.387 . S
C682 C683 1.387 . S
C682 H686 0.950 . S
C682 C691 1.390 . S
C683 C682 1.387 . S
C683 C685 1.387 . S
H684 C691 0.950 . S
C685 C683 1.387 . S
C685 C687 1.390 . S
C685 H689 0.950 . S
H686 C682 0.950 . S
C687 C685 1.390 . S
C687 C688 1.387 . S
C687 H690 0.950 . S
C688 C687 1.387 . S
C688 C691 1.387 . S
H689 C685 0.950 . S
H690 C687 0.950 . S
C691 C682 1.390 . S
C691 H684 0.950 . S
C691 C688 1.387 . S
C692 C693 1.387 . S
C692 H696 0.950 . S
C692 C701 1.390 . S
C693 C692 1.387 . S
C693 C695 1.387 . S
H694 C701 0.950 . S
C695 C693 1.387 . S
C695 C697 1.390 . S
C695 H699 0.950 . S
H696 C692 0.950 . S
C697 C695 1.390 . S
C697 C698 1.387 . S
C697 H700 0.950 . S
C698 C697 1.387 . S
C698 C701 1.387 . S
H699 C695 0.950 . S
H700 C697 0.950 . S
C701 C692 1.390 . S
C701 H694 0.950 . S
C701 C698 1.387 . S
C702 C703 1.387 . S
C702 H706 0.950 . S
C702 C711 1.390 . S
C703 C702 1.387 . S
C703 C705 1.387 . S
H704 C711 0.950 . S
C705 C703 1.387 . S
C705 C707 1.390 . S
C705 H709 0.950 . S
H706 C702 0.950 . S
C707 C705 1.390 . S
C707 C708 1.387 . S
C707 H710 0.950 . S
C708 C707 1.387 . S
C708 C711 1.387 . S
H709 C705 0.950 . S
H710 C707 0.950 . S
C711 C702 1.390 . S
C711 H704 0.950 . S
C711 C708 1.387 . S
C712 C713 1.387 . S
C712 H716 0.950 . S
C712 C721 1.390 . S
C713 C712 1.387 . S
C713 C715 1.387 . S
H714 C721 0.950 . S
C715 C713 1.387 . S
C715 C717 1.390 . S
C715 H719 0.950 . S
H716 C712 0.950 . S
C717 C715 1.390 . S
C717 C718 1.387 . S
C717 H720 0.950 . S
C718 C717 1.387 . S
C718 C721 1.387 . S
H719 C715 0.950 . S
H720 C717 0.950 . S
C721 C712 1.390 . S
C721 H714 0.950 . S
C721 C718 1.387 . S
C722 C723 1.387 . S
C722 H726 0.950 . S
C722 C731 1.390 . S
C723 C722 1.387 . S
C723 C725 1.387 . S
H724 C731 0.950 . S
C725 C723 1.387 . S
C725 C727 1.390 . S
C725 H729 0.950 . S
H726 C722 0.950 . S
C727 C725 1.390 . S
C727 C728 1.387 . S
C727 H730 0.950 . S
C728 C727 1.387 . S
C728 C731 1.387 . S
H729 C725 0.950 . S
H730 C727 0.950 . S
C731 C722 1.390 . S
C731 H724 0.950 . S
C731 C728 1.387 . S
C732 C733 1.387 . S
C732 H736 0.950 . S
C732 C741 1.390 . S
C733 C732 1.387 . S
C733 C735 1.387 . S
H734 C741 0.950 . S
C735 C733 1.387 . S
C735 C737 1.390 . S
C735 H739 0.950 . S
H736 C732 0.950 . S
C737 C735 1.390 . S
C737 C738 1.387 . S
C737 H740 0.950 . S
C738 C737 1.387 . S
C738 C741 1.387 . S
H739 C735 0.950 . S
H740 C737 0.950 . S
C741 C732 1.390 . S
C741 H734 0.950 . S
C741 C738 1.387 . S
C742 C743 1.387 . S
C742 H746 0.950 . S
C742 C751 1.390 . S
C743 C742 1.387 . S
C743 C745 1.387 . S
H744 C751 0.950 . S
C745 C743 1.387 . S
C745 C747 1.390 . S
C745 H749 0.950 . S
H746 C742 0.950 . S
C747 C745 1.390 . S
C747 C748 1.387 . S
C747 H750 0.950 . S
C748 C747 1.387 . S
C748 C751 1.387 . S
H749 C745 0.950 . S
H750 C747 0.950 . S
C751 C742 1.390 . S
C751 H744 0.950 . S
C751 C748 1.387 . S
C752 C753 1.387 . S
C752 H756 0.950 . S
C752 C761 1.390 . S
C753 C752 1.387 . S
C753 C755 1.387 . S
H754 C761 0.950 . S
C755 C753 1.387 . S
C755 C757 1.390 . S
C755 H759 0.950 . S
H756 C752 0.950 . S
C757 C755 1.390 . S
C757 C758 1.387 . S
C757 H760 0.950 . S
C758 C757 1.387 . S
C758 C761 1.387 . S
H759 C755 0.950 . S
H760 C757 0.950 . S
C761 C752 1.390 . S
C761 H754 0.950 . S
C761 C758 1.387 . S
C762 C763 1.387 . S
C762 H766 0.950 . S
C762 C771 1.390 . S
C763 C762 1.387 . S
C763 C765 1.387 . S
H764 C771 0.950 . S
C765 C763 1.387 . S
C765 C767 1.390 . S
C765 H769 0.950 . S
H766 C762 0.950 . S
C767 C765 1.390 . S
C767 C768 1.387 . S
C767 H770 0.950 . S
C768 C767 1.387 . S
C768 C771 1.387 . S
H769 C765 0.950 . S
H770 C767 0.950 . S
C771 C762 1.390 . S
C771 H764 0.950 . S
C771 C768 1.387 . S
C772 C773 1.387 . S
C772 H776 0.950 . S
C772 C781 1.390 . S
C773 C772 1.387 . S
C773 C775 1.387 . S
H774 C781 0.950 . S
C775 C773 1.387 . S
C775 C777 1.390 . S
C775 H779 0.950 . S
H776 C772 0.950 . S
C777 C775 1.390 . S
C777 C778 1.387 . S
C777 H780 0.950 . S
C778 C777 1.387 . S
C778 C781 1.387 . S
H779 C775 0.950 . S
H780 C777 0.950 . S
C781 C772 1.390 . S
C781 H774 0.950 . S
C781 C778 1.387 . S
C782 C783 1.387 . S
C782 H786 0.950 . S
C782 C791 1.390 . S
C783 C782 1.387 . S
C783 C785 1.387 . S
H784 C791 0.950 . S
C785 C783 1.387 . S
C785 C787 1.390 . S
C785 H789 0.950 . S
H786 C782 0.950 . S
C787 C785 1.390 . S
C787 C788 1.387 . S
C787 H790 0.950 . S
C788 C787 1.387 . S
C788 C791 1.387 . S
H789 C785 0.950 . S
H790 C787 0.950 . S
C791 C782 1.390 . S
C791 H784 0.950 . S
C791 C788 1.387 . S
C792 C793 1.387 . S
C792 H796 0.950 . S
C792 C801 1.390 . S
C793 C792 1.387 . S
C793 C795 1.387 . S
H794 C801 0.950 . S
C795 C793 1.387 . S
C795 C797 1.390 . S
C795 H799 0.950 . S
H796 C792 0.950 . S
C797 C795 1.390 . S
C797 C798 1.387 . S
C797 H800 0.950 . S
C798 C797 1.387 . S
C798 C801 1.387 . S
H799 C795 0.950 . S
H800 C797 0.950 . S
C801 C792 1.390 . S
C801 H794 0.950 . S
C801 C798 1.387 . S
C802 C803 1.387 . S
C802 H806 0.950 . S
C802 C811 1.390 . S
C803 C802 1.387 . S
C803 C805 1.387 . S
H804 C811 0.950 . S
C805 C803 1.387 . S
C805 C807 1.390 . S
C805 H809 0.950 . S
H806 C802 0.950 . S
C807 C805 1.390 . S
C807 C808 1.387 . S
C807 H810 0.950 . S
C808 C807 1.387 . S
C808 C811 1.387 . S
H809 C805 0.950 . S
H810 C807 0.950 . S
C811 C802 1.390 . S
C811 H804 0.950 . S
C811 C808 1.387 . S
C812 C813 1.387 . S
C812 H816 0.950 . S
C812 C821 1.390 . S
C813 C812 1.387 . S
C813 C815 1.387 . S
H814 C821 0.950 . S
C815 C813 1.387 . S
C815 C817 1.390 . S
C815 H819 0.950 . S
H816 C812 0.950 . S
C817 C815 1.390 . S
C817 C818 1.387 . S
C817 H820 0.950 . S
C818 C817 1.387 . S
C818 C821 1.387 . S
H819 C815 0.950 . S
H820 C817 0.950 . S
C821 C812 1.390 . S
C821 H814 0.950 . S
C821 C818 1.387 . S
C822 C823 1.387 . S
C822 H826 0.950 . S
C822 C831 1.390 . S
C823 C822 1.387 . S
C823 C825 1.387 . S
H824 C831 0.950 . S
C825 C823 1.387 . S
C825 C827 1.390 . S
C825 H829 0.950 . S
H826 C822 0.950 . S
C827 C825 1.390 . S
C827 C828 1.387 . S
C827 H830 0.950 . S
C828 C827 1.387 . S
C828 C831 1.387 . S
H829 C825 0.950 . S
H830 C827 0.950 . S
C831 C822 1.390 . S
C831 H824 0.950 . S
C831 C828 1.387 . S
C358 C177 1.623 . S
C353 C9 1.623 . S
C368 C182 1.196 . S
C363 C22 1.208 . S
C378 C183 1.337 . S
C373 C49 1.343 . S
C383 C61 1.223 . S
C388 C187 1.232 . S
C393 C81 1.207 . S
C398 C190 1.195 . S
C408 C191 1.338 . S
C403 C108 1.338 . S
C413 C122 1.225 . S
C418 C168 1.231 . S
C423 C148 1.625 . S
C428 C184 1.625 . S
C438 C222 2.050 . S
C433 C18 2.048 . S
C443 C39 1.424 . S
C448 C248 1.416 . S
C458 C200 2.037 . S
C453 C58 2.044 . S
C468 C255 1.252 . S
C463 C69 1.293 . S
C473 C89 1.294 . S
C478 C209 1.266 . S
C488 C251 1.211 . S
C483 C102 1.226 . S
C493 C139 1.438 . S
C498 C215 1.432 . S
C503 C142 1.259 . S
C508 C246 1.250 . S
C513 C1 1.259 . S
C518 C254 1.244 . S
C523 C98 1.427 . S
C528 C241 1.421 . S
C538 C219 2.037 . S
C533 C119 2.044 . S
C548 C247 1.252 . S
C543 C128 1.298 . S
C553 C159 2.050 . S
C558 C214 2.055 . S
C563 C41 1.227 . S
C568 C232 1.212 . S
C578 C223 1.430 . S
C573 C78 1.436 . S
C583 C28 1.296 . S
C588 C216 1.259 . S
C593 C149 1.598 . S
C598 C278 1.535 . S
C603 C82 1.189 . S
C608 C273 1.171 . S
C618 C287 1.255 . S
C613 C109 1.317 . S
C628 C264 1.246 . S
C623 C121 1.207 . S
C633 C21 1.189 . S
C638 C280 1.170 . S
C648 C279 1.254 . S
C643 C48 1.312 . S
C653 C62 1.205 . S
C658 C283 1.245 . S
C663 C8 1.599 . S
C668 C286 1.534 . S
C673 C158 2.059 . S
C678 C312 2.115 . S
C688 C328 1.461 . S
C683 C99 1.438 . S
C693 C118 2.052 . S
C698 C310 2.080 . S
C703 C129 1.311 . S
C708 C343 1.256 . S
C718 C319 1.283 . S
C713 C29 1.297 . S
C723 C42 1.242 . S
C728 C337 1.188 . S
C738 C315 1.448 . S
C733 C79 1.428 . S
C748 C350 1.216 . S
C743 C2 1.272 . S
C758 C342 1.219 . S
C753 C141 1.277 . S
C763 C38 1.437 . S
C768 C347 1.460 . S
C773 C59 2.053 . S
C778 C318 2.085 . S
C788 C351 1.257 . S
C783 C68 1.313 . S
C793 C19 2.059 . S
C798 C305 2.111 . S
C803 C101 1.243 . S
C808 C344 1.187 . S
C818 C296 1.446 . S
C813 C138 1.431 . S
C828 C311 1.281 . S
C823 C88 1.292 . S
