# Generated by pormake.
# Topology nia, (6,6)-cn, num edge types: 1
# Building blocks:
#     Node 0, Type 0, BuildingBlock: INOVEN_clean_sbu_0, # of connection points: 6
#     Node 1, Type 0, BuildingBlock: INOVEN_clean_sbu_0, # of connection points: 6
#     Node 2, Type 1, BuildingBlock: MIDCAF_clean_sbu_0, # of connection points: 6
#     Node 3, Type 1, BuildingBlock: MIDCAF_clean_sbu_0, # of connection points: 6
#     Edge 4, Type (0, 1), BuildingBlock: AJUNOK_clean_linker_0, # of connection points: 2
#     Edge 5, Type (0, 1), BuildingBlock: AJUNOK_clean_linker_0, # of connection points: 2
#     Edge 6, Type (0, 1), BuildingBlock: AJUNOK_clean_linker_0, # of connection points: 2
#     Edge 7, Type (0, 1), BuildingBlock: AJUNOK_clean_linker_0, # of connection points: 2
#     Edge 8, Type (0, 1), BuildingBlock: AJUNOK_clean_linker_0, # of connection points: 2
#     Edge 9, Type (0, 1), BuildingBlock: AJUNOK_clean_linker_0, # of connection points: 2
#     Edge 10, Type (0, 1), BuildingBlock: AJUNOK_clean_linker_0, # of connection points: 2
#     Edge 11, Type (0, 1), BuildingBlock: AJUNOK_clean_linker_0, # of connection points: 2
#     Edge 12, Type (0, 1), BuildingBlock: AJUNOK_clean_linker_0, # of connection points: 2
#     Edge 13, Type (0, 1), BuildingBlock: AJUNOK_clean_linker_0, # of connection points: 2
#     Edge 14, Type (0, 1), BuildingBlock: AJUNOK_clean_linker_0, # of connection points: 2
#     Edge 15, Type (0, 1), BuildingBlock: AJUNOK_clean_linker_0, # of connection points: 2
# Relax obj value: 0.380
# Max RMSD: 0.283
# Mean RMSD: 0.268
data_MOF--net-nia--node1-INOVEN_clean_sbu_0--node2-MIDCAF_clean_sbu_0--edge1-AJUNOK_clean_linker_0
_symmetry_space_group_name_H-M    P1
_symmetry_Int_Tables_number       1
_symmetry_cell_setting            triclinic
loop_
_symmetry_equiv_pos_as_xyz
'x, y, z'
_cell_length_a     19.487609
_cell_length_b     22.463283
_cell_length_c     26.600978
_cell_angle_alpha  65.832099
_cell_angle_beta   104.6344
_cell_angle_gamma 128.68313
loop_
_atom_site_label
_atom_site_type_symbol
_atom_site_fract_x
_atom_site_fract_y
_atom_site_fract_z
_atom_type_partial_charge
Gd0 Gd 0.09058 0.06015 0.0541 0.0
Gd1 Gd 0.99474 0.95012 1.00401 0.0
C2 C 0.96041 0.08355 0.95836 0.0
C3 C 0.185 0.18491 0.08411 0.0
C4 C 0.16006 0.22097 0.10379 0.0
C5 C 0.11395 0.17892 0.15379 0.0
C6 C 0.18381 0.29892 0.07281 0.0
C7 C 0.13252 0.29864 0.1467 0.0
C8 C 0.1693 0.33739 0.09398 0.0
C9 C 0.10071 0.21795 0.17532 0.0
C10 C 0.92905 0.93909 0.10633 0.0
C11 C 0.1288 0.93076 0.09758 0.0
C12 C 0.8985 0.82336 0.97583 0.0
C13 C 0.92165 0.78792 0.95398 0.0
C14 C 0.96903 0.83204 0.90424 0.0
C15 C 0.89461 0.70847 0.98244 0.0
C16 C 0.94739 0.7127 0.90707 0.0
C17 C 0.90804 0.67116 0.95926 0.0
C18 C 0.98115 0.79421 0.88065 0.0
C19 C 0.15447 0.07133 0.95038 0.0
O20 O 0.03709 0.12231 0.98246 0.0
O21 O 0.92121 0.00652 0.96754 0.0
O22 O 0.16602 0.11441 0.11689 0.0
O23 O 0.1684 0.19006 0.03229 0.0
O24 O 1.00389 0.96968 0.13117 0.0
O25 O 0.94396 0.9718 0.05523 0.0
O26 O 0.0493 0.88934 0.07707 0.0
O27 O 0.16832 0.00843 0.08533 0.0
O28 O 0.91432 0.89273 0.94333 0.0
O29 O 0.91993 0.82007 0.02709 0.0
O30 O 0.07943 0.03635 0.92644 0.0
O31 O 0.14159 0.04034 1.00168 0.0
H32 H 0.09267 0.11772 0.17789 0.0
H33 H 0.21786 0.33165 0.03373 0.0
H34 H 0.1954 0.40033 0.07185 0.0
H35 H 0.0733 0.18796 0.21638 0.0
H36 H 0.99266 0.89431 0.88205 0.0
H37 H 0.85932 0.67407 0.0212 0.0
H38 H 0.88033 0.60758 0.97966 0.0
H39 H 0.0106 0.82645 0.84003 0.0
Gd40 Gd 0.98579 0.02282 0.54374 0.0
Gd41 Gd 0.10085 0.98861 0.50899 0.0
C42 C 0.92272 0.95479 0.44153 0.0
C43 C 0.92265 0.09019 0.55212 0.0
C44 C 0.8837 0.08817 0.59368 0.0
C45 C 0.92168 0.0906 0.64597 0.0
C46 C 0.81097 0.09032 0.57892 0.0
C47 C 0.82039 0.10693 0.66552 0.0
C48 C 0.77945 0.09958 0.61455 0.0
C49 C 0.89044 0.10048 0.6816 0.0
C50 C 0.93611 0.86673 0.6043 0.0
C51 C 0.16818 0.06304 0.60774 0.0
C52 C 0.15971 0.91846 0.4996 0.0
C53 C 0.17733 0.90676 0.45516 0.0
C54 C 0.10976 0.8662 0.42065 0.0
C55 C 0.26196 0.93132 0.44986 0.0
C56 C 0.20874 0.86498 0.382 0.0
C57 C 0.2777 0.91094 0.41332 0.0
C58 C 0.1254 0.84522 0.38436 0.0
C59 C 0.14938 0.14413 0.44782 0.0
O60 O 0.92232 -0.00276 0.4643 0.0
O61 O 0.98181 0.93956 0.45467 0.0
O62 O 1.00649 0.12098 0.55742 0.0
O63 O 0.87515 0.02634 0.5366 0.0
O64 O 0.90074 0.89764 0.60909 0.0
O65 O 0.9976 0.92336 0.56948 0.0
O66 O 0.16878 0.01925 0.58648 0.0
O67 O 0.10876 0.07792 0.59402 0.0
O68 O 0.077 0.88079 0.50998 0.0
O69 O 0.2116 -0.00814 0.50214 0.0
O70 O 0.18465 0.11323 0.44285 0.0
O71 O 0.089 0.08819 0.4835 0.0
H72 H 0.97765 0.08837 0.65831 0.0
H73 H 0.7811 0.08868 0.53871 0.0
H74 H 0.72671 0.10636 0.6006 0.0
H75 H 0.92318 0.10653 0.72059 0.0
H76 H 0.04399 0.84736 0.42343 0.0
H77 H 0.31495 0.96283 0.47593 0.0
H78 H 0.34229 0.92598 0.41257 0.0
H79 H 0.07147 0.80979 0.36044 0.0
Zn80 Zn 0.41051 0.74342 0.16474 0.0
Zn81 Zn 0.40908 0.641 0.37876 0.0
Zn82 Zn 0.41664 0.69287 0.26977 0.0
C83 C 0.58991 0.76402 0.34304 0.0
C84 C 0.3225 0.49722 0.36253 0.0
O85 O 0.34347 0.75586 0.23009 0.0
O86 O 0.37196 0.81438 0.14095 0.0
C87 C 0.5867 0.79939 0.18812 0.0
O88 O 0.55724 0.76216 0.29456 0.0
O89 O 0.54023 0.71837 0.38497 0.0
O90 O 0.34899 0.52207 0.40304 0.0
O91 O 0.34096 0.5498 0.31276 0.0
O92 O 0.53321 0.79294 0.14859 0.0
O93 O 0.55829 0.7694 0.23783 0.0
O94 O 0.34021 0.58268 0.25432 0.0
O95 O 0.31673 0.62988 0.16557 0.0
C96 C 0.3019 0.57121 0.20886 0.0
O97 O 0.35439 0.73437 0.28791 0.0
O98 O 0.33627 0.67548 0.37848 0.0
C99 C 0.33568 0.79973 0.18172 0.0
C100 C 0.32509 0.71823 0.33338 0.0
Zn101 Zn 0.67894 0.2724 0.88989 0.0
Zn102 Zn 0.67956 0.36973 0.67716 0.0
Zn103 Zn 0.66676 0.31731 0.78498 0.0
C104 C 0.77154 0.5145 0.69033 0.0
C105 C 0.49709 0.25736 0.709 0.0
O106 O 0.74005 0.25413 0.82496 0.0
O107 O 0.72583 0.20765 0.91538 0.0
C108 C 0.78551 0.44413 0.84299 0.0
O109 O 0.74417 0.46108 0.73968 0.0
O110 O 0.75392 0.4902 0.65059 0.0
O111 O 0.54895 0.30749 0.66818 0.0
O112 O 0.52724 0.2508 0.75865 0.0
O113 O 0.77016 0.38662 0.88723 0.0
O114 O 0.74717 0.43055 0.79797 0.0
O115 O 0.5262 0.24422 0.81783 0.0
O116 O 0.5557 0.22278 0.90657 0.0
C117 C 0.50074 0.21718 0.86794 0.0
O118 O 0.71792 0.2655 0.76817 0.0
O119 O 0.72853 0.31431 0.67696 0.0
C120 C 0.75521 0.21661 0.87373 0.0
C121 C 0.73641 0.27057 0.72288 0.0
C122 C 0.2712 0.94496 0.11534 0.0
C123 C 0.18004 0.89576 0.12542 0.0
C124 C 0.32136 0.91425 0.13659 0.0
C125 C 0.28414 0.83328 0.17075 0.0
H126 H 0.30382 0.00739 0.0886 0.0
H127 H 0.38996 0.95404 0.12475 0.0
S128 S 0.05025 0.68013 0.21468 0.0
N129 N 0.0556 0.76196 0.17472 0.0
N130 N 0.15051 0.70541 0.21618 0.0
C131 C 0.19405 0.78423 0.18365 0.0
C132 C 0.14204 0.81501 0.16064 0.0
C133 C 0.27521 0.18261 0.64031 0.0
C134 C 0.24295 0.10478 0.64352 0.0
C135 C 0.35479 0.22994 0.66549 0.0
C136 C 0.40366 0.20031 0.69652 0.0
H137 H 0.24185 0.20944 0.61514 0.0
H138 H 0.38037 0.29158 0.65851 0.0
S139 S 0.3441 -0.00217 0.72279 0.0
N140 N 0.2638 -0.00151 0.68352 0.0
N141 N 0.41174 0.08671 0.73196 0.0
C142 C 0.3696 0.12097 0.70296 0.0
C143 C 0.28961 0.07335 0.67632 0.0
C144 C 0.1237 0.39622 0.16025 0.0
C145 C 0.15608 0.35017 0.1771 0.0
C146 C 0.1681 0.46554 0.17449 0.0
C147 C 0.24597 0.49028 0.20531 0.0
H148 H 0.0681 0.38206 0.1326 0.0
H149 H 0.14464 0.5027 0.15848 0.0
S150 S 0.35828 0.39127 0.25661 0.0
N151 N 0.26855 0.33241 0.22645 0.0
N152 N 0.35391 0.46465 0.25139 0.0
C153 C 0.27623 0.44237 0.22466 0.0
C154 C 0.23045 0.3714 0.21099 0.0
C155 C 0.8664 0.20924 0.70542 0.0
C156 C 0.79927 0.1353 0.69629 0.0
C157 C 0.84605 0.25099 0.71845 0.0
C158 C 0.75831 0.21913 0.7234 0.0
H159 H 0.93452 0.23838 0.69772 0.0
H160 H 0.89866 0.31058 0.72114 0.0
S161 S 0.55992 0.02195 0.71329 0.0
N162 N 0.64263 0.02727 0.70051 0.0
N163 N 0.6046 0.10624 0.72508 0.0
C164 C 0.6912 0.1423 0.71939 0.0
C165 C 0.7117 0.09995 0.70598 0.0
C166 C 0.81376 0.84802 0.1832 0.0
C167 C 0.84618 0.9082 0.13082 0.0
C168 C 0.73228 0.81559 0.20404 0.0
C169 C 0.68076 0.84296 0.17355 0.0
H170 H 0.84989 0.82366 0.20732 0.0
H171 H 0.70767 0.76634 0.24284 0.0
S172 S 0.74367 0.00956 0.03898 0.0
N173 N 0.82431 -6e-05 0.05265 0.0
N174 N 0.67461 0.9411 0.09133 0.0
C175 C 0.71586 0.90676 0.12298 0.0
C176 C 0.79738 0.93874 0.10176 0.0
C177 C 0.94624 0.74681 0.64057 0.0
C178 C 0.89619 0.77695 0.6281 0.0
C179 C 0.90699 0.66226 0.66414 0.0
C180 C 0.81596 0.60378 0.67652 0.0
H181 H 0.01618 0.78873 0.63208 0.0
H182 H 0.94798 0.64235 0.67147 0.0
S183 S 0.65373 0.64927 0.64572 0.0
N184 N 0.74885 0.73928 0.62736 0.0
N185 N 0.6766 0.5831 0.66898 0.0
C186 C 0.76543 0.63326 0.66283 0.0
C187 C 0.80506 0.71872 0.63973 0.0
C188 C 0.29256 0.87193 0.32033 0.0
C189 C 0.22115 0.82551 0.35621 0.0
C190 C 0.32163 0.83545 0.3088 0.0
C191 C 0.28108 0.75205 0.33388 0.0
H192 H 0.3296 0.93722 0.3042 0.0
H193 H 0.38023 0.87345 0.28384 0.0
S194 S 0.08393 0.60285 0.42375 0.0
N195 N 0.10405 0.69089 0.41091 0.0
N196 N 0.15997 0.62277 0.38983 0.0
C197 C 0.2053 0.70432 0.36581 0.0
C198 C 0.1748 0.74104 0.37677 0.0
C199 C 0.31952 0.15333 0.95325 0.0
C200 C 0.24105 0.1127 0.92496 0.0
C201 C 0.40162 0.18794 0.93321 0.0
C202 C 0.41038 0.18349 0.8838 0.0
H203 H 0.3176 0.15788 0.99186 0.0
H204 H 0.45909 0.21803 0.95738 0.0
S205 S 0.22405 0.07966 0.79513 0.0
N206 N 0.17683 0.06869 0.84491 0.0
N207 N 0.33056 0.13177 0.80827 0.0
C208 C 0.33224 0.14324 0.85486 0.0
C209 C 0.24806 0.10838 0.87512 0.0
C210 C 0.27493 0.28989 0.40169 0.0
C211 C 0.18783 0.23343 0.42251 0.0
C212 C 0.31629 0.37434 0.37987 0.0
C213 C 0.27188 0.40724 0.37525 0.0
H214 H 0.31315 0.2689 0.40399 0.0
H215 H 0.38488 0.41454 0.368 0.0
S216 S 0.04283 0.28755 0.42272 0.0
N217 N 0.05876 0.21822 0.43663 0.0
N218 N 0.1353 0.37573 0.3947 0.0
C219 C 0.18443 0.35164 0.39525 0.0
C220 C 0.14268 0.26546 0.4186 0.0
C221 C 0.94229 0.19526 0.9337 0.0
C222 C 0.91315 0.12256 0.92848 0.0
C223 C 0.89338 0.22749 0.91259 0.0
C224 C 0.81354 0.19002 0.88403 0.0
H225 H 1.00158 0.22594 0.95657 0.0
H226 H 0.91689 0.28109 0.92052 0.0
S227 S 0.70845 0.00053 0.85653 0.0
N228 N 0.79902 0.01576 0.89016 0.0
N229 N 0.70837 0.07643 0.85112 0.0
C230 C 0.78498 0.11905 0.8767 0.0
C231 C 0.83437 0.0856 0.89856 0.0
C232 C 0.78967 0.93817 0.38616 0.0
C233 C 0.84818 0.91653 0.40403 0.0
C234 C 0.7094 0.89272 0.36085 0.0
C235 C 0.68425 0.82406 0.35184 0.0
H236 H 0.80346 0.98806 0.39446 0.0
H237 H 0.66396 0.90832 0.3516 0.0
S238 S 0.81577 0.74547 0.38481 0.0
N239 N 0.8774 0.82486 0.40571 0.0
N240 N 0.72596 0.7395 0.35892 0.0
C241 C 0.744 0.80463 0.36589 0.0
C242 C 0.8262 0.85103 0.39155 0.0
C243 C 0.96047 0.61785 0.89323 0.0
C244 C 0.92834 0.66423 0.87531 0.0
C245 C 0.91802 0.5496 0.87807 0.0
C246 C 0.84219 0.52605 0.84521 0.0
H247 H 0.0137 0.63043 0.9227 0.0
H248 H 0.94064 0.51175 0.89541 0.0
S249 S 0.73355 0.6285 0.78846 0.0
N250 N 0.82015 0.68521 0.8214 0.0
N251 N 0.738 0.55476 0.7947 0.0
C252 C 0.81329 0.57516 0.82408 0.0
C253 C 0.8573 0.64521 0.83873 0.0
loop_
_geom_bond_atom_site_label_1
_geom_bond_atom_site_label_2
_geom_bond_distance
_geom_bond_site_symmetry_2
_ccdc_geom_bond_type
Gd0 C3 2.818 . S
Gd0 O20 2.377 . S
Gd0 O22 2.448 . S
Gd0 O23 2.506 . S
Gd0 O24 2.435 1_445 S
Gd0 O25 2.717 1_445 S
Gd0 O27 2.395 1_545 S
Gd0 O31 2.327 1_554 S
Gd1 C12 2.818 . S
Gd1 O21 2.395 1_565 S
Gd1 O25 2.327 1_556 S
Gd1 O26 2.377 1_656 S
Gd1 O28 2.448 . S
Gd1 O29 2.506 . S
Gd1 O30 2.435 1_665 S
Gd1 O31 2.717 1_665 S
C2 O20 1.240 1_656 S
C2 O21 1.240 . S
C3 Gd0 2.818 . S
C3 C4 1.510 . S
C3 O22 1.249 . S
C3 O23 1.252 . S
C4 C3 1.510 . S
C4 C5 1.404 . S
C4 C6 1.352 . S
C5 C4 1.404 . S
C5 C9 1.389 . S
C5 H32 0.930 . S
C6 C4 1.352 . S
C6 C8 1.374 . S
C6 H33 0.931 . S
C7 C8 1.359 . S
C7 C9 1.364 . S
C8 C6 1.374 . S
C8 C7 1.359 . S
C8 H34 0.931 . S
C9 C5 1.389 . S
C9 C7 1.364 . S
C9 H35 0.931 . S
C10 O24 1.256 . S
C10 O25 1.257 . S
C11 O26 1.240 . S
C11 O27 1.240 . S
C12 Gd1 2.818 . S
C12 C13 1.510 . S
C12 O28 1.249 . S
C12 O29 1.252 . S
C13 C12 1.510 . S
C13 C14 1.404 . S
C13 C15 1.352 . S
C14 C13 1.404 . S
C14 C18 1.389 . S
C14 H36 0.930 . S
C15 C13 1.352 . S
C15 C17 1.374 . S
C15 H37 0.931 1_556 S
C16 C17 1.359 . S
C16 C18 1.364 . S
C17 C15 1.374 . S
C17 C16 1.359 . S
C17 H38 0.931 1_556 S
C18 C14 1.389 . S
C18 C16 1.364 . S
C18 H39 0.931 . S
C19 O30 1.256 . S
C19 O31 1.257 . S
O20 Gd0 2.377 . S
O20 C2 1.240 1_454 S
O21 Gd1 2.395 1_545 S
O21 C2 1.240 . S
O22 Gd0 2.448 . S
O22 C3 1.249 . S
O23 Gd0 2.506 . S
O23 C3 1.252 . S
O24 Gd0 2.435 1_665 S
O24 C10 1.256 . S
O25 Gd0 2.717 1_665 S
O25 Gd1 2.327 1_554 S
O25 C10 1.257 . S
O26 Gd1 2.377 1_454 S
O26 C11 1.240 . S
O27 Gd0 2.395 1_565 S
O27 C11 1.240 . S
O28 Gd1 2.448 . S
O28 C12 1.249 . S
O29 Gd1 2.506 . S
O29 C12 1.252 . S
O30 Gd1 2.435 1_445 S
O30 C19 1.256 . S
O31 Gd0 2.327 1_556 S
O31 Gd1 2.717 1_445 S
O31 C19 1.257 . S
H32 C5 0.930 . S
H33 C6 0.931 . S
H34 C8 0.931 . S
H35 C9 0.931 . S
H36 C14 0.930 . S
H37 C15 0.931 1_554 S
H38 C17 0.931 1_554 S
H39 C18 0.931 . S
Gd40 C43 2.818 1_455 S
Gd40 O60 2.377 1_445 S
Gd40 O62 2.448 1_455 S
Gd40 O63 2.506 1_455 S
Gd40 O64 2.435 1_445 S
Gd40 O65 2.717 1_545 S
Gd40 O67 2.395 . S
Gd40 O71 2.327 . S
Gd41 C52 2.818 . S
Gd41 O61 2.395 1_455 S
Gd41 O65 2.327 . S
Gd41 O66 2.377 1_565 S
Gd41 O68 2.448 1_565 S
Gd41 O69 2.506 . S
Gd41 O70 2.435 1_565 S
Gd41 O71 2.717 1_565 S
C42 O60 1.240 . S
C42 O61 1.240 . S
C43 Gd40 2.818 1_655 S
C43 C44 1.510 . S
C43 O62 1.249 . S
C43 O63 1.252 . S
C44 C43 1.510 . S
C44 C45 1.404 . S
C44 C46 1.352 . S
C45 C44 1.404 . S
C45 C49 1.389 . S
C45 H72 0.930 1_545 S
C46 C44 1.352 . S
C46 C48 1.374 . S
C46 H73 0.931 . S
C47 C48 1.359 . S
C47 C49 1.364 . S
C48 C46 1.374 . S
C48 C47 1.359 . S
C48 H74 0.931 . S
C49 C45 1.389 . S
C49 C47 1.364 . S
C49 H75 0.931 . S
C50 O64 1.256 . S
C50 O65 1.257 1_655 S
C51 O66 1.240 . S
C51 O67 1.240 . S
C52 Gd41 2.818 . S
C52 C53 1.510 . S
C52 O68 1.249 1_565 S
C52 O69 1.252 . S
C53 C52 1.510 . S
C53 C54 1.404 1_565 S
C53 C55 1.352 . S
C54 C53 1.404 1_545 S
C54 C58 1.389 1_545 S
C54 H76 0.930 . S
C55 C53 1.352 . S
C55 C57 1.374 . S
C55 H77 0.931 . S
C56 C57 1.359 . S
C56 C58 1.364 . S
C57 C55 1.374 . S
C57 C56 1.359 . S
C57 H78 0.931 . S
C58 C54 1.389 1_565 S
C58 C56 1.364 . S
C58 H79 0.931 1_565 S
C59 O70 1.256 . S
C59 O71 1.257 . S
O60 Gd40 2.377 1_665 S
O60 C42 1.240 . S
O61 Gd41 2.395 1_655 S
O61 C42 1.240 . S
O62 Gd40 2.448 1_655 S
O62 C43 1.249 . S
O63 Gd40 2.506 1_655 S
O63 C43 1.252 . S
O64 Gd40 2.435 1_665 S
O64 C50 1.256 . S
O65 Gd40 2.717 1_565 S
O65 Gd41 2.327 . S
O65 C50 1.257 1_455 S
O66 Gd41 2.377 1_545 S
O66 C51 1.240 . S
O67 Gd40 2.395 . S
O67 C51 1.240 . S
O68 Gd41 2.448 1_545 S
O68 C52 1.249 1_545 S
O69 Gd41 2.506 . S
O69 C52 1.252 . S
O70 Gd41 2.435 1_545 S
O70 C59 1.256 . S
O71 Gd40 2.327 . S
O71 Gd41 2.717 1_545 S
O71 C59 1.257 . S
H72 C45 0.930 1_565 S
H73 C46 0.931 . S
H74 C48 0.931 . S
H75 C49 0.931 . S
H76 C54 0.930 . S
H77 C55 0.931 . S
H78 C57 0.931 . S
H79 C58 0.931 1_545 S
Zn80 O86 1.920 . S
Zn80 O92 1.898 . S
Zn80 O95 1.905 . S
Zn81 O89 1.905 . S
Zn81 O90 1.898 . S
Zn81 O98 1.920 . S
Zn82 O85 2.080 . S
Zn82 O88 2.114 . S
Zn82 O91 2.120 . S
Zn82 O93 2.120 . S
Zn82 O94 2.114 . S
Zn82 O97 2.080 . S
C83 O88 1.166 . S
C83 O89 1.182 . S
C84 O90 1.167 . S
C84 O91 1.299 . S
O85 Zn82 2.080 . S
O85 C99 1.305 . S
O86 Zn80 1.920 . S
O86 C99 1.234 . S
C87 O92 1.167 . S
C87 O93 1.299 . S
O88 Zn82 2.114 . S
O88 C83 1.166 . S
O89 Zn81 1.905 . S
O89 C83 1.182 . S
O90 Zn81 1.898 . S
O90 C84 1.167 . S
O91 Zn82 2.120 . S
O91 C84 1.299 . S
O92 Zn80 1.898 . S
O92 C87 1.167 . S
O93 Zn82 2.120 . S
O93 C87 1.299 . S
O94 Zn82 2.114 . S
O94 C96 1.166 . S
O95 Zn80 1.905 . S
O95 C96 1.182 . S
C96 O94 1.166 . S
C96 O95 1.182 . S
O97 Zn82 2.080 . S
O97 C100 1.305 . S
O98 Zn81 1.920 . S
O98 C100 1.234 . S
C99 O85 1.305 . S
C99 O86 1.234 . S
C100 O97 1.305 . S
C100 O98 1.234 . S
Zn101 O107 1.920 . S
Zn101 O113 1.898 . S
Zn101 O116 1.905 . S
Zn102 O110 1.905 . S
Zn102 O111 1.898 . S
Zn102 O119 1.920 . S
Zn103 O106 2.080 . S
Zn103 O109 2.114 . S
Zn103 O112 2.120 . S
Zn103 O114 2.120 . S
Zn103 O115 2.114 . S
Zn103 O118 2.080 . S
C104 O109 1.166 . S
C104 O110 1.182 . S
C105 O111 1.167 . S
C105 O112 1.299 . S
O106 Zn103 2.080 . S
O106 C120 1.305 . S
O107 Zn101 1.920 . S
O107 C120 1.234 . S
C108 O113 1.167 . S
C108 O114 1.299 . S
O109 Zn103 2.114 . S
O109 C104 1.166 . S
O110 Zn102 1.905 . S
O110 C104 1.182 . S
O111 Zn102 1.898 . S
O111 C105 1.167 . S
O112 Zn103 2.120 . S
O112 C105 1.299 . S
O113 Zn101 1.898 . S
O113 C108 1.167 . S
O114 Zn103 2.120 . S
O114 C108 1.299 . S
O115 Zn103 2.114 . S
O115 C117 1.166 . S
O116 Zn101 1.905 . S
O116 C117 1.182 . S
C117 O115 1.166 . S
C117 O116 1.182 . S
O118 Zn103 2.080 . S
O118 C121 1.305 . S
O119 Zn102 1.920 . S
O119 C121 1.234 . S
C120 O106 1.305 . S
C120 O107 1.234 . S
C121 O118 1.305 . S
C121 O119 1.234 . S
C122 C123 1.369 . S
C122 C124 1.419 . S
C122 H126 0.930 . S
C123 C122 1.369 . S
C123 C132 1.429 . S
C124 C122 1.419 . S
C124 C125 1.363 . S
C124 H127 0.929 . S
C125 C124 1.363 . S
C125 C131 1.428 . S
H126 C122 0.930 . S
H127 C124 0.929 . S
S128 N129 1.613 . S
S128 N130 1.610 . S
N129 S128 1.613 . S
N129 C132 1.350 . S
N130 S128 1.610 . S
N130 C131 1.351 . S
C131 C125 1.428 . S
C131 N130 1.351 . S
C131 C132 1.434 . S
C132 C123 1.429 . S
C132 N129 1.350 . S
C132 C131 1.434 . S
C133 C134 1.369 . S
C133 C135 1.419 . S
C133 H137 0.930 . S
C134 C133 1.369 . S
C134 C143 1.429 . S
C135 C133 1.419 . S
C135 C136 1.363 . S
C135 H138 0.929 . S
C136 C135 1.363 . S
C136 C142 1.428 . S
H137 C133 0.930 . S
H138 C135 0.929 . S
S139 N140 1.613 . S
S139 N141 1.610 1_565 S
N140 S139 1.613 . S
N140 C143 1.350 1_565 S
N141 S139 1.610 1_545 S
N141 C142 1.351 . S
C142 C136 1.428 . S
C142 N141 1.351 . S
C142 C143 1.434 . S
C143 C134 1.429 . S
C143 N140 1.350 1_545 S
C143 C142 1.434 . S
C144 C145 1.369 . S
C144 C146 1.419 . S
C144 H148 0.930 . S
C145 C144 1.369 . S
C145 C154 1.429 . S
C146 C144 1.419 . S
C146 C147 1.363 . S
C146 H149 0.929 . S
C147 C146 1.363 . S
C147 C153 1.428 . S
H148 C144 0.930 . S
H149 C146 0.929 . S
S150 N151 1.613 . S
S150 N152 1.610 . S
N151 S150 1.613 . S
N151 C154 1.350 . S
N152 S150 1.610 . S
N152 C153 1.351 . S
C153 C147 1.428 . S
C153 N152 1.351 . S
C153 C154 1.434 . S
C154 C145 1.429 . S
C154 N151 1.350 . S
C154 C153 1.434 . S
C155 C156 1.369 . S
C155 C157 1.419 . S
C155 H159 0.930 . S
C156 C155 1.369 . S
C156 C165 1.429 . S
C157 C155 1.419 . S
C157 C158 1.363 . S
C157 H160 0.929 . S
C158 C157 1.363 . S
C158 C164 1.428 . S
H159 C155 0.930 . S
H160 C157 0.929 . S
S161 N162 1.613 . S
S161 N163 1.610 . S
N162 S161 1.613 . S
N162 C165 1.350 . S
N163 S161 1.610 . S
N163 C164 1.351 . S
C164 C158 1.428 . S
C164 N163 1.351 . S
C164 C165 1.434 . S
C165 C156 1.429 . S
C165 N162 1.350 . S
C165 C164 1.434 . S
C166 C167 1.369 . S
C166 C168 1.419 . S
C166 H170 0.930 . S
C167 C166 1.369 . S
C167 C176 1.429 . S
C168 C166 1.419 . S
C168 C169 1.363 . S
C168 H171 0.929 . S
C169 C168 1.363 . S
C169 C175 1.428 . S
H170 C166 0.930 . S
H171 C168 0.929 . S
S172 N173 1.613 . S
S172 N174 1.610 . S
N173 S172 1.613 . S
N173 C176 1.350 1_545 S
N174 S172 1.610 . S
N174 C175 1.351 1_545 S
C175 C169 1.428 . S
C175 N174 1.351 1_565 S
C175 C176 1.434 . S
C176 C167 1.429 . S
C176 N173 1.350 1_565 S
C176 C175 1.434 . S
C177 C178 1.369 . S
C177 C179 1.419 . S
C177 H181 0.930 . S
C178 C177 1.369 . S
C178 C187 1.429 . S
C179 C177 1.419 . S
C179 C180 1.363 . S
C179 H182 0.929 . S
C180 C179 1.363 . S
C180 C186 1.428 . S
H181 C177 0.930 . S
H182 C179 0.929 . S
S183 N184 1.613 . S
S183 N185 1.610 . S
N184 S183 1.613 . S
N184 C187 1.350 . S
N185 S183 1.610 . S
N185 C186 1.351 . S
C186 C180 1.428 . S
C186 N185 1.351 . S
C186 C187 1.434 . S
C187 C178 1.429 . S
C187 N184 1.350 . S
C187 C186 1.434 . S
C188 C189 1.369 . S
C188 C190 1.419 . S
C188 H192 0.930 . S
C189 C188 1.369 . S
C189 C198 1.429 . S
C190 C188 1.419 . S
C190 C191 1.363 . S
C190 H193 0.929 . S
C191 C190 1.363 . S
C191 C197 1.428 . S
H192 C188 0.930 . S
H193 C190 0.929 . S
S194 N195 1.613 . S
S194 N196 1.610 . S
N195 S194 1.613 . S
N195 C198 1.350 . S
N196 S194 1.610 . S
N196 C197 1.351 . S
C197 C191 1.428 . S
C197 N196 1.351 . S
C197 C198 1.434 . S
C198 C189 1.429 . S
C198 N195 1.350 . S
C198 C197 1.434 . S
C199 C200 1.369 . S
C199 C201 1.419 . S
C199 H203 0.930 . S
C200 C199 1.369 . S
C200 C209 1.429 . S
C201 C199 1.419 . S
C201 C202 1.363 . S
C201 H204 0.929 . S
C202 C201 1.363 . S
C202 C208 1.428 . S
H203 C199 0.930 . S
H204 C201 0.929 . S
S205 N206 1.613 1_565 S
S205 N207 1.610 1_565 S
N206 S205 1.613 1_545 S
N206 C209 1.350 . S
N207 S205 1.610 1_545 S
N207 C208 1.351 . S
C208 C202 1.428 . S
C208 N207 1.351 . S
C208 C209 1.434 . S
C209 C200 1.429 . S
C209 N206 1.350 . S
C209 C208 1.434 . S
C210 C211 1.369 . S
C210 C212 1.419 . S
C210 H214 0.930 . S
C211 C210 1.369 . S
C211 C220 1.429 . S
C212 C210 1.419 . S
C212 C213 1.363 . S
C212 H215 0.929 . S
C213 C212 1.363 . S
C213 C219 1.428 . S
H214 C210 0.930 . S
H215 C212 0.929 . S
S216 N217 1.613 1_655 S
S216 N218 1.610 1_655 S
N217 S216 1.613 1_455 S
N217 C220 1.350 . S
N218 S216 1.610 1_455 S
N218 C219 1.351 . S
C219 C213 1.428 . S
C219 N218 1.351 . S
C219 C220 1.434 . S
C220 C211 1.429 . S
C220 N217 1.350 . S
C220 C219 1.434 . S
C221 C222 1.369 . S
C221 C223 1.419 . S
C221 H225 0.930 . S
C222 C221 1.369 . S
C222 C231 1.429 . S
C223 C221 1.419 . S
C223 C224 1.363 . S
C223 H226 0.929 . S
C224 C223 1.363 . S
C224 C230 1.428 . S
H225 C221 0.930 . S
H226 C223 0.929 . S
S227 N228 1.613 . S
S227 N229 1.610 1_565 S
N228 S227 1.613 . S
N228 C231 1.350 1_565 S
N229 S227 1.610 1_545 S
N229 C230 1.351 . S
C230 C224 1.428 . S
C230 N229 1.351 . S
C230 C231 1.434 . S
C231 C222 1.429 . S
C231 N228 1.350 1_545 S
C231 C230 1.434 . S
C232 C233 1.369 . S
C232 C234 1.419 . S
C232 H236 0.930 . S
C233 C232 1.369 . S
C233 C242 1.429 . S
C234 C232 1.419 . S
C234 C235 1.363 . S
C234 H237 0.929 . S
C235 C234 1.363 . S
C235 C241 1.428 . S
H236 C232 0.930 . S
H237 C234 0.929 . S
S238 N239 1.613 . S
S238 N240 1.610 . S
N239 S238 1.613 . S
N239 C242 1.350 . S
N240 S238 1.610 . S
N240 C241 1.351 . S
C241 C235 1.428 . S
C241 N240 1.351 . S
C241 C242 1.434 . S
C242 C233 1.429 . S
C242 N239 1.350 . S
C242 C241 1.434 . S
C243 C244 1.369 . S
C243 C245 1.419 . S
C243 H247 0.930 . S
C244 C243 1.369 . S
C244 C253 1.429 . S
C245 C243 1.419 . S
C245 C246 1.363 . S
C245 H248 0.929 . S
C246 C245 1.363 . S
C246 C252 1.428 . S
H247 C243 0.930 . S
H248 C245 0.929 . S
S249 N250 1.613 . S
S249 N251 1.610 . S
N250 S249 1.613 . S
N250 C253 1.350 . S
N251 S249 1.610 . S
N251 C252 1.351 . S
C252 C246 1.428 . S
C252 N251 1.351 . S
C252 C253 1.434 . S
C253 C244 1.429 . S
C253 N250 1.350 . S
C253 C252 1.434 . S
C123 C11 1.942 . S
C125 C99 1.927 . S
C134 C51 1.328 . S
C136 C105 1.242 . S
C145 C7 1.086 . S
C147 C96 0.972 . S
C156 C47 1.607 . S
C158 C121 1.446 . S
C167 C10 2.133 . S
C169 C87 2.052 . S
C180 C104 2.322 . S
C178 C50 2.358 . S
C189 C56 1.382 . S
C191 C100 1.299 . S
C202 C117 1.733 . S
C200 C19 1.766 . S
C213 C84 2.116 . S
C211 C59 2.185 . S
C224 C120 2.199 . S
C222 C2 2.207 . S
C235 C83 1.583 . S
C233 C42 1.668 . S
C246 C108 0.938 . S
C244 C16 1.072 . S
