# Generated by pormake.
# Topology myd, (4,6)-cn, num edge types: 1
# Building blocks:
#     Node 0, Type 0, BuildingBlock: KOZSID_clean_sbu_0, # of connection points: 4
#     Node 1, Type 0, BuildingBlock: KOZSID_clean_sbu_0, # of connection points: 4
#     Node 2, Type 0, BuildingBlock: KOZSID_clean_sbu_0, # of connection points: 4
#     Node 3, Type 0, BuildingBlock: KOZSID_clean_sbu_0, # of connection points: 4
#     Node 4, Type 0, BuildingBlock: KOZSID_clean_sbu_0, # of connection points: 4
#     Node 5, Type 0, BuildingBlock: KOZSID_clean_sbu_0, # of connection points: 4
#     Node 6, Type 0, BuildingBlock: KOZSID_clean_sbu_0, # of connection points: 4
#     Node 7, Type 0, BuildingBlock: KOZSID_clean_sbu_0, # of connection points: 4
#     Node 8, Type 0, BuildingBlock: KOZSID_clean_sbu_0, # of connection points: 4
#     Node 9, Type 0, BuildingBlock: KOZSID_clean_sbu_0, # of connection points: 4
#     Node 10, Type 0, BuildingBlock: KOZSID_clean_sbu_0, # of connection points: 4
#     Node 11, Type 0, BuildingBlock: KOZSID_clean_sbu_0, # of connection points: 4
#     Node 12, Type 1, BuildingBlock: FUNLAD_clean_sbu_0, # of connection points: 6
#     Node 13, Type 1, BuildingBlock: FUNLAD_clean_sbu_0, # of connection points: 6
#     Node 14, Type 1, BuildingBlock: FUNLAD_clean_sbu_0, # of connection points: 6
#     Node 15, Type 1, BuildingBlock: FUNLAD_clean_sbu_0, # of connection points: 6
#     Node 16, Type 1, BuildingBlock: FUNLAD_clean_sbu_0, # of connection points: 6
#     Node 17, Type 1, BuildingBlock: FUNLAD_clean_sbu_0, # of connection points: 6
#     Node 18, Type 1, BuildingBlock: FUNLAD_clean_sbu_0, # of connection points: 6
#     Node 19, Type 1, BuildingBlock: FUNLAD_clean_sbu_0, # of connection points: 6
#     Edge 20, Type (0, 1), BuildingBlock: ZUJKAS_clean_linker_0, # of connection points: 2
#     Edge 21, Type (0, 1), BuildingBlock: ZUJKAS_clean_linker_0, # of connection points: 2
#     Edge 22, Type (0, 1), BuildingBlock: ZUJKAS_clean_linker_0, # of connection points: 2
#     Edge 23, Type (0, 1), BuildingBlock: ZUJKAS_clean_linker_0, # of connection points: 2
#     Edge 24, Type (0, 1), BuildingBlock: ZUJKAS_clean_linker_0, # of connection points: 2
#     Edge 25, Type (0, 1), BuildingBlock: ZUJKAS_clean_linker_0, # of connection points: 2
#     Edge 26, Type (0, 1), BuildingBlock: ZUJKAS_clean_linker_0, # of connection points: 2
#     Edge 27, Type (0, 1), BuildingBlock: ZUJKAS_clean_linker_0, # of connection points: 2
#     Edge 28, Type (0, 1), BuildingBlock: ZUJKAS_clean_linker_0, # of connection points: 2
#     Edge 29, Type (0, 1), BuildingBlock: ZUJKAS_clean_linker_0, # of connection points: 2
#     Edge 30, Type (0, 1), BuildingBlock: ZUJKAS_clean_linker_0, # of connection points: 2
#     Edge 31, Type (0, 1), BuildingBlock: ZUJKAS_clean_linker_0, # of connection points: 2
#     Edge 32, Type (0, 1), BuildingBlock: ZUJKAS_clean_linker_0, # of connection points: 2
#     Edge 33, Type (0, 1), BuildingBlock: ZUJKAS_clean_linker_0, # of connection points: 2
#     Edge 34, Type (0, 1), BuildingBlock: ZUJKAS_clean_linker_0, # of connection points: 2
#     Edge 35, Type (0, 1), BuildingBlock: ZUJKAS_clean_linker_0, # of connection points: 2
#     Edge 36, Type (0, 1), BuildingBlock: ZUJKAS_clean_linker_0, # of connection points: 2
#     Edge 37, Type (0, 1), BuildingBlock: ZUJKAS_clean_linker_0, # of connection points: 2
#     Edge 38, Type (0, 1), BuildingBlock: ZUJKAS_clean_linker_0, # of connection points: 2
#     Edge 39, Type (0, 1), BuildingBlock: ZUJKAS_clean_linker_0, # of connection points: 2
#     Edge 40, Type (0, 1), BuildingBlock: ZUJKAS_clean_linker_0, # of connection points: 2
#     Edge 41, Type (0, 1), BuildingBlock: ZUJKAS_clean_linker_0, # of connection points: 2
#     Edge 42, Type (0, 1), BuildingBlock: ZUJKAS_clean_linker_0, # of connection points: 2
#     Edge 43, Type (0, 1), BuildingBlock: ZUJKAS_clean_linker_0, # of connection points: 2
#     Edge 44, Type (0, 1), BuildingBlock: ZUJKAS_clean_linker_0, # of connection points: 2
#     Edge 45, Type (0, 1), BuildingBlock: ZUJKAS_clean_linker_0, # of connection points: 2
#     Edge 46, Type (0, 1), BuildingBlock: ZUJKAS_clean_linker_0, # of connection points: 2
#     Edge 47, Type (0, 1), BuildingBlock: ZUJKAS_clean_linker_0, # of connection points: 2
#     Edge 48, Type (0, 1), BuildingBlock: ZUJKAS_clean_linker_0, # of connection points: 2
#     Edge 49, Type (0, 1), BuildingBlock: ZUJKAS_clean_linker_0, # of connection points: 2
#     Edge 50, Type (0, 1), BuildingBlock: ZUJKAS_clean_linker_0, # of connection points: 2
#     Edge 51, Type (0, 1), BuildingBlock: ZUJKAS_clean_linker_0, # of connection points: 2
#     Edge 52, Type (0, 1), BuildingBlock: ZUJKAS_clean_linker_0, # of connection points: 2
#     Edge 53, Type (0, 1), BuildingBlock: ZUJKAS_clean_linker_0, # of connection points: 2
#     Edge 54, Type (0, 1), BuildingBlock: ZUJKAS_clean_linker_0, # of connection points: 2
#     Edge 55, Type (0, 1), BuildingBlock: ZUJKAS_clean_linker_0, # of connection points: 2
#     Edge 56, Type (0, 1), BuildingBlock: ZUJKAS_clean_linker_0, # of connection points: 2
#     Edge 57, Type (0, 1), BuildingBlock: ZUJKAS_clean_linker_0, # of connection points: 2
#     Edge 58, Type (0, 1), BuildingBlock: ZUJKAS_clean_linker_0, # of connection points: 2
#     Edge 59, Type (0, 1), BuildingBlock: ZUJKAS_clean_linker_0, # of connection points: 2
#     Edge 60, Type (0, 1), BuildingBlock: ZUJKAS_clean_linker_0, # of connection points: 2
#     Edge 61, Type (0, 1), BuildingBlock: ZUJKAS_clean_linker_0, # of connection points: 2
#     Edge 62, Type (0, 1), BuildingBlock: ZUJKAS_clean_linker_0, # of connection points: 2
#     Edge 63, Type (0, 1), BuildingBlock: ZUJKAS_clean_linker_0, # of connection points: 2
#     Edge 64, Type (0, 1), BuildingBlock: ZUJKAS_clean_linker_0, # of connection points: 2
#     Edge 65, Type (0, 1), BuildingBlock: ZUJKAS_clean_linker_0, # of connection points: 2
#     Edge 66, Type (0, 1), BuildingBlock: ZUJKAS_clean_linker_0, # of connection points: 2
#     Edge 67, Type (0, 1), BuildingBlock: ZUJKAS_clean_linker_0, # of connection points: 2
# Relax obj value: 0.232
# Max RMSD: 0.218
# Mean RMSD: 0.149
data_MOF--net-myd--node1-KOZSID_clean_sbu_0--node2-FUNLAD_clean_sbu_0--edge1-ZUJKAS_clean_linker_0
_symmetry_space_group_name_H-M    P1
_symmetry_Int_Tables_number       1
_symmetry_cell_setting            triclinic
loop_
_symmetry_equiv_pos_as_xyz
'x, y, z'
_cell_length_a     64.218846
_cell_length_b     64.356701
_cell_length_c     68.919687
_cell_angle_alpha  87.251416
_cell_angle_beta   85.376047
_cell_angle_gamma 90.687761
loop_
_atom_site_label
_atom_site_type_symbol
_atom_site_fract_x
_atom_site_fract_y
_atom_site_fract_z
_atom_type_partial_charge
C0 C 0.99192 0.2892 0.36726 0.0
C1 C 0.97198 0.29489 0.37401 0.0
C2 C 0.95842 0.28199 0.36588 0.0
C3 C 0.97083 0.26919 0.35472 0.0
N4 N 0.9915 0.27275 0.35568 0.0
Co5 Co 0.01514 0.25942 0.34032 0.0
N6 N 0.99543 0.24459 0.32429 0.0
C7 C 0.97429 0.24491 0.32638 0.0
C8 C 0.96494 0.2336 0.31305 0.0
C9 C 0.98103 0.22553 0.30179 0.0
C10 C 0.99939 0.23229 0.30901 0.0
N11 N 0.03888 0.24633 0.32489 0.0
C12 C 0.03879 0.23369 0.30969 0.0
C13 C 0.05886 0.22765 0.30358 0.0
C14 C 0.07208 0.23696 0.31518 0.0
C15 C 0.05942 0.24801 0.32774 0.0
N16 N 0.03474 0.27457 0.35624 0.0
C17 C 0.05574 0.27283 0.35562 0.0
C18 C 0.06511 0.28663 0.36687 0.0
C19 C 0.04922 0.29829 0.3747 0.0
C20 C 0.03099 0.29084 0.36781 0.0
N21 N 0.01388 0.23474 0.35924 0.0
C22 C 0.01362 0.19401 0.37665 0.0
C23 C 0.03204 0.20595 0.3739 0.0
C24 C 0.03177 0.22616 0.36549 0.0
C25 C 0.99502 0.2037 0.37252 0.0
C26 C 0.99549 0.22398 0.36417 0.0
N27 N 0.01642 0.2834 0.32125 0.0
C28 C 0.03645 0.30857 0.30006 0.0
C29 C 0.01832 0.3157 0.29212 0.0
C30 C 0.99917 0.30679 0.29955 0.0
C31 C 0.99858 0.2909 0.31406 0.0
C32 C 0.03516 0.29251 0.3145 0.0
H33 H 0.98354 0.28461 0.31904 0.0
H34 H 0.04951 0.28749 0.31985 0.0
H35 H 0.04637 0.23419 0.36367 0.0
H36 H 0.98081 0.23022 0.36118 0.0
C37 C 0.96369 0.25638 0.34073 0.0
C38 C 0.01073 0.30069 0.37119 0.0
C39 C 0.02016 0.22665 0.30083 0.0
C40 C 0.06639 0.26044 0.34209 0.0
H41 H 0.96772 0.30763 0.38316 0.0
H42 H 0.94154 0.28279 0.36694 0.0
H43 H 0.94839 0.23161 0.31159 0.0
H44 H 0.9794 0.21582 0.2896 0.0
H45 H 0.0635 0.21748 0.292 0.0
H46 H 0.08892 0.23581 0.31452 0.0
H47 H 0.08166 0.28888 0.36817 0.0
H48 H 0.05104 0.31141 0.38369 0.0
H49 H 0.04676 0.19958 0.37777 0.0
H50 H 0.98018 0.1954 0.37478 0.0
H51 H 0.05163 0.31523 0.29509 0.0
H52 H 0.98467 0.31154 0.29379 0.0
C53 C 0.98552 0.71496 0.13499 0.0
C54 C 0.96653 0.71088 0.12752 0.0
C55 C 0.95204 0.72265 0.13728 0.0
C56 C 0.96292 0.73316 0.15014 0.0
N57 N 0.98358 0.72904 0.14902 0.0
Co58 Co 0.00503 0.74021 0.16561 0.0
N59 N 0.98326 0.75586 0.18124 0.0
C60 C 0.9625 0.75626 0.17912 0.0
C61 C 0.95163 0.76886 0.19167 0.0
C62 C 0.96636 0.77722 0.20232 0.0
C63 C 0.9854 0.76914 0.19559 0.0
N64 N 0.02654 0.75139 0.18205 0.0
C65 C 0.02452 0.76521 0.19623 0.0
C66 C 0.04348 0.76931 0.20376 0.0
C67 C 0.0581 0.75791 0.19372 0.0
C68 C 0.04727 0.74753 0.18074 0.0
N69 N 0.02673 0.72442 0.15 0.0
C70 C 0.04752 0.72408 0.152 0.0
C71 C 0.05832 0.71134 0.13952 0.0
C72 C 0.04351 0.70272 0.12912 0.0
C73 C 0.02448 0.71073 0.13595 0.0
N74 N 0.00986 0.76519 0.1474 0.0
C75 C 0.01688 0.80568 0.13003 0.0
C76 C 0.03354 0.79264 0.1337 0.0
C77 C 0.02971 0.7726 0.14212 0.0
C78 C 0.99665 0.7973 0.13357 0.0
C79 C 0.99353 0.77713 0.14202 0.0
N80 N 1.00025 0.71575 0.18442 0.0
C81 C 0.01379 0.69112 0.20778 0.0
C82 C 0.99364 0.68588 0.21593 0.0
C83 C 0.97683 0.69489 0.20708 0.0
C84 C 0.98045 0.7095 0.19139 0.0
C85 C 0.0167 0.70582 0.19211 0.0
H86 H 0.96698 0.71589 0.18541 0.0
H87 H 0.03245 0.70932 0.18683 0.0
H88 H 0.0431 0.76369 0.14488 0.0
H89 H 0.97773 0.77186 0.1448 0.0
C90 C 0.9539 0.74566 0.16441 0.0
C91 C 0.00465 0.70409 0.12924 0.0
C92 C 0.00521 0.77538 0.20253 0.0
C93 C 0.05625 0.73491 0.16652 0.0
H94 H 0.96332 0.70008 0.11655 0.0
H95 H 0.93541 0.72296 0.13568 0.0
H96 H 0.93508 0.77205 0.19259 0.0
H97 H 0.96347 0.78838 0.21344 0.0
H98 H 0.04648 0.77977 0.2151 0.0
H99 H 0.07471 0.7576 0.19537 0.0
H100 H 0.07489 0.70823 0.13849 0.0
H101 H 0.0463 0.69146 0.11807 0.0
H102 H 0.04955 0.79801 0.1305 0.0
H103 H 0.98316 0.80656 0.13072 0.0
H104 H 0.02741 0.68457 0.21391 0.0
H105 H 0.96088 0.69088 0.21236 0.0
C106 C 0.34947 0.98729 0.26298 0.0
C107 C 0.35737 0.96795 0.2679 0.0
C108 C 0.34922 0.9542 0.25597 0.0
C109 C 0.33684 0.96588 0.2445 0.0
N110 N 0.33692 0.98635 0.24809 0.0
Co111 Co 0.31989 0.00866 0.23587 0.0
N112 N 0.30546 0.98796 0.22041 0.0
C113 C 0.3088 0.96724 0.22025 0.0
C114 C 0.29681 0.95707 0.20802 0.0
C115 C 0.28523 0.97219 0.19972 0.0
C116 C 0.29091 0.99082 0.20734 0.0
N117 N 0.30273 0.03097 0.22388 0.0
C118 C 0.28833 0.02977 0.21059 0.0
C119 C 0.28055 0.04923 0.20576 0.0
C120 C 0.2903 0.06318 0.21638 0.0
C121 C 0.3035 0.05157 0.227 0.0
N122 N 0.3344 0.02931 0.2513 0.0
C123 C 0.3321 0.05019 0.25064 0.0
C124 C 0.3434 0.06015 0.26357 0.0
C125 C 0.35321 0.04468 0.27336 0.0
C126 C 0.34726 0.02613 0.2658 0.0
N127 N 0.34179 0.01303 0.21363 0.0
C128 C 0.36771 0.01908 0.17845 0.0
C129 C 0.36001 0.03597 0.18872 0.0
C130 C 0.34738 0.03263 0.20616 0.0
C131 C 0.36319 0.99913 0.18678 0.0
C132 C 0.35044 0.9965 0.20422 0.0
N133 N 0.29789 0.00431 0.25778 0.0
C134 C 0.27369 0.01801 0.28263 0.0
C135 C 0.26636 0.998 0.2887 0.0
C136 C 0.27532 0.98122 0.2791 0.0
C137 C 0.2909 0.98468 0.26386 0.0
C138 C 0.28929 0.02079 0.26727 0.0
H139 H 0.29709 0.97122 0.25722 0.0
H140 H 0.29411 0.03643 0.26325 0.0
H141 H 0.34199 0.0462 0.21307 0.0
H142 H 0.3474 0.98089 0.20948 0.0
C143 C 0.32348 0.95783 0.23159 0.0
C144 C 0.3533 0.00583 0.2736 0.0
C145 C 0.28213 0.01079 0.20159 0.0
C146 C 0.31744 0.05966 0.23936 0.0
H147 H 0.36745 0.9641 0.27936 0.0
H148 H 0.35135 0.93753 0.25619 0.0
H149 H 0.29662 0.94063 0.20536 0.0
H150 H 0.27396 0.96979 0.18915 0.0
H151 H 0.26926 0.05305 0.19536 0.0
H152 H 0.28832 0.07987 0.21611 0.0
H153 H 0.3437 0.07659 0.2662 0.0
H154 H 0.36308 0.04673 0.28516 0.0
H155 H 0.36355 0.05178 0.18325 0.0
H156 H 0.36879 0.98547 0.17953 0.0
H157 H 0.26717 0.03157 0.28944 0.0
H158 H 0.2705 0.96537 0.28342 0.0
C159 C 0.65726 0.48553 0.21757 0.0
C160 C 0.64533 0.46868 0.21273 0.0
C161 C 0.65325 0.45143 0.22152 0.0
C162 C 0.66953 0.45867 0.2311 0.0
N163 N 0.67224 0.47957 0.22933 0.0
Co164 Co 0.69489 0.49647 0.23975 0.0
N165 N 0.70764 0.47085 0.25132 0.0
C166 C 0.70073 0.45096 0.25064 0.0
C167 C 0.71155 0.43689 0.26126 0.0
C168 C 0.72606 0.44846 0.26951 0.0
C169 C 0.72338 0.46903 0.26322 0.0
N170 N 0.71769 0.51336 0.2498 0.0
C171 C 0.73319 0.50732 0.2609 0.0
C172 C 0.74624 0.52393 0.26424 0.0
C173 C 0.73824 0.54119 0.25548 0.0
C174 C 0.72099 0.53415 0.24716 0.0
N175 N 0.68187 0.52209 0.22858 0.0
C176 C 0.6881 0.54209 0.22998 0.0
C177 C 0.67627 0.55621 0.22039 0.0
C178 C 0.66183 0.54451 0.21209 0.0
C179 C 0.6658 0.5239 0.2171 0.0
N180 N 0.67758 0.4992 0.26479 0.0
C181 C 0.65764 0.50201 0.30268 0.0
C182 C 0.66715 0.51943 0.29256 0.0
C183 C 0.67692 0.51769 0.27386 0.0
C184 C 0.65741 0.48338 0.29302 0.0
C185 C 0.66724 0.48238 0.2742 0.0
N186 N 0.71255 0.49375 0.21488 0.0
C187 C 0.73551 0.50941 0.18842 0.0
C188 C 0.74085 0.4899 0.18167 0.0
C189 C 0.73103 0.47238 0.19135 0.0
C190 C 0.71689 0.47465 0.20766 0.0
C191 C 0.72148 0.51096 0.20485 0.0
H192 H 0.70987 0.46072 0.21432 0.0
H193 H 0.71843 0.52629 0.20933 0.0
H194 H 0.68423 0.53146 0.26723 0.0
H195 H 0.66672 0.46768 0.26778 0.0
C196 C 0.68313 0.44617 0.24104 0.0
C197 C 0.65502 0.50658 0.20929 0.0
C198 C 0.73528 0.48647 0.26975 0.0
C199 C 0.70661 0.54685 0.23832 0.0
H200 H 0.63265 0.46866 0.20333 0.0
H201 H 0.6482 0.43544 0.22051 0.0
H202 H 0.70869 0.42029 0.26337 0.0
H203 H 0.73686 0.44235 0.27949 0.0
H204 H 0.75975 0.52368 0.27267 0.0
H205 H 0.74391 0.55707 0.25573 0.0
H206 H 0.67851 0.57292 0.21882 0.0
H207 H 0.65019 0.55036 0.20278 0.0
H208 H 0.66726 0.53441 0.29907 0.0
H209 H 0.65028 0.46938 0.30012 0.0
H210 H 0.74267 0.52348 0.18147 0.0
H211 H 0.73429 0.45693 0.18643 0.0
C212 C 0.29865 0.35066 0.9778 0.0
C213 C 0.30357 0.35827 0.95878 0.0
C214 C 0.28804 0.35128 0.94799 0.0
C215 C 0.27461 0.3397 0.96091 0.0
N216 N 0.28079 0.33908 0.9791 0.0
Co217 Co 0.26721 0.32298 1.00197 0.0
N218 N 0.25249 0.30441 0.98527 0.0
C219 C 0.24915 0.30862 0.96645 0.0
C220 C 0.23793 0.29316 0.95874 0.0
C221 C 0.23377 0.27849 0.97372 0.0
C222 C 0.24271 0.28584 0.98981 0.0
N223 N 0.2538 0.30703 0.02503 0.0
C224 C 0.24409 0.28816 0.0263 0.0
C225 C 0.23653 0.28298 0.0454 0.0
C226 C 0.24141 0.29938 0.0563 0.0
C227 C 0.2517 0.31361 0.04335 0.0
N228 N 0.28181 0.34167 0.01852 0.0
C229 C 0.27651 0.34504 0.03735 0.0
C230 C 0.29012 0.35856 0.04492 0.0
C231 C 0.30487 0.36388 0.02986 0.0
C232 C 0.2994 0.35321 0.01397 0.0
N233 N 0.24327 0.3417 1.00231 0.0
C234 C 0.20843 0.36728 0.99933 0.0
C235 C 0.20599 0.34582 0.00322 0.0
C236 C 0.22346 0.33341 0.00474 0.0
C237 C 0.22874 0.37585 0.99771 0.0
C238 C 0.24597 0.36276 0.99917 0.0
N239 N 0.29089 0.30417 1.0014 0.0
C240 C 0.31729 0.28536 0.01754 0.0
C241 C 0.32466 0.27685 0.99994 0.0
C242 C 0.31469 0.28249 0.98314 0.0
C243 C 0.29805 0.29618 0.98416 0.0
C244 C 0.30036 0.29889 0.01798 0.0
H245 H 0.29087 0.30019 0.97092 0.0
H246 H 0.2949 0.30509 0.03171 0.0
H247 H 0.22082 0.31696 0.0075 0.0
H248 H 0.26148 0.3696 0.99736 0.0
C249 C 0.2593 0.3256 0.95594 0.0
C250 C 0.3106 0.35484 0.99456 0.0
C251 C 0.23968 0.27596 0.00955 0.0
C252 C 0.26194 0.33181 0.04818 0.0
H253 H 0.31706 0.36753 0.95315 0.0
H254 H 0.28741 0.35328 0.93236 0.0
H255 H 0.23371 0.29238 0.9439 0.0
H256 H 0.22484 0.26422 0.97299 0.0
H257 H 0.228 0.26901 0.05083 0.0
H258 H 0.23823 0.30055 0.07187 0.0
H259 H 0.29009 0.36305 0.05985 0.0
H260 H 0.31821 0.37419 0.03051 0.0
H261 H 0.1906 0.33856 0.00505 0.0
H262 H 0.23134 0.3924 0.99479 0.0
H263 H 0.32456 0.2817 0.0309 0.0
H264 H 0.31937 0.27606 0.96925 0.0
C265 C 0.25753 0.67155 0.47548 0.0
C266 C 0.25778 0.66422 0.45686 0.0
C267 C 0.27334 0.67496 0.44584 0.0
C268 C 0.28161 0.68821 0.4583 0.0
N269 N 0.27258 0.68628 0.47673 0.0
Co270 Co 0.27852 0.70355 0.49919 0.0
N271 N 0.29869 0.72188 0.4822 0.0
C272 C 0.30419 0.72018 0.46298 0.0
C273 C 0.31855 0.73489 0.45533 0.0
C274 C 0.32258 0.74665 0.47059 0.0
C275 C 0.31041 0.73835 0.48673 0.0
N276 N 0.28435 0.72078 0.52169 0.0
C277 C 0.29741 0.73737 0.52245 0.0
C278 C 0.29703 0.74464 0.54112 0.0
C279 C 0.28333 0.73212 0.55261 0.0
C280 C 0.27617 0.71798 0.54037 0.0
N281 N 0.25824 0.6853 0.5161 0.0
C282 C 0.2535 0.68617 0.53553 0.0
C283 C 0.23821 0.67222 0.54284 0.0
C284 C 0.23249 0.66216 0.52707 0.0
C285 C 0.24465 0.67065 0.51103 0.0
N286 N 0.30206 0.68486 0.50548 0.0
C287 C 0.33739 0.66132 0.51484 0.0
C288 C 0.32178 0.66619 0.52919 0.0
C289 C 0.30448 0.67781 0.52426 0.0
C290 C 0.33457 0.66795 0.49561 0.0
C291 C 0.31698 0.67945 0.49131 0.0
N292 N 0.25521 0.72223 0.49293 0.0
C293 C 0.2241 0.74114 0.50309 0.0
C294 C 0.22171 0.74832 0.4839 0.0
C295 C 0.23649 0.74212 0.46935 0.0
C296 C 0.25291 0.72921 0.47412 0.0
C297 C 0.24079 0.72827 0.50724 0.0
H298 H 0.26359 0.72505 0.46234 0.0
H299 H 0.24167 0.72329 0.52213 0.0
H300 H 0.29342 0.68104 0.53599 0.0
H301 H 0.31604 0.68403 0.47639 0.0
C302 C 0.29596 0.70428 0.45262 0.0
C303 C 0.24174 0.66534 0.49113 0.0
C304 C 0.31088 0.74639 0.5061 0.0
C305 C 0.26206 0.70171 0.54605 0.0
H306 H 0.24731 0.65289 0.45158 0.0
H307 H 0.27738 0.674 0.43036 0.0
H308 H 0.32544 0.73671 0.44047 0.0
H309 H 0.33342 0.75972 0.46997 0.0
H310 H 0.30591 0.75754 0.54597 0.0
H311 H 0.27925 0.73307 0.56809 0.0
H312 H 0.23135 0.67029 0.5577 0.0
H313 H 0.22024 0.65043 0.5272 0.0
H314 H 0.32279 0.66105 0.54427 0.0
H315 H 0.34615 0.6648 0.48386 0.0
H316 H 0.21299 0.74518 0.51492 0.0
H317 H 0.23564 0.74742 0.45429 0.0
C318 C 0.78267 0.83408 0.47717 0.0
C319 C 0.78587 0.84269 0.45833 0.0
C320 C 0.76936 0.83608 0.44852 0.0
C321 C 0.75703 0.82388 0.46191 0.0
N322 N 0.76478 0.82253 0.47945 0.0
Co323 Co 0.75281 0.80591 0.50271 0.0
N324 N 0.73636 0.78801 0.48674 0.0
C325 C 0.73171 0.79274 0.46835 0.0
C326 C 0.71952 0.77773 0.46111 0.0
C327 C 0.71606 0.76282 0.47598 0.0
C328 C 0.72632 0.76959 0.49155 0.0
N329 N 0.74099 0.78943 0.52617 0.0
C330 C 0.7308 0.77079 0.52771 0.0
C331 C 0.72464 0.76527 0.54708 0.0
C332 C 0.73097 0.78115 0.55791 0.0
C333 C 0.74061 0.79547 0.54464 0.0
N334 N 0.76923 0.82396 0.5185 0.0
C335 C 0.7657 0.82659 0.53771 0.0
C336 C 0.78029 0.83952 0.54463 0.0
C337 C 0.79381 0.84528 0.52876 0.0
C338 C 0.78663 0.83556 0.513 0.0
N339 N 0.72901 0.82491 0.50526 0.0
C340 C 0.69402 0.85101 0.50635 0.0
C341 C 0.69174 0.82943 0.50972 0.0
C342 C 0.70924 0.8168 0.50918 0.0
C343 C 0.71441 0.85928 0.50266 0.0
C344 C 0.73167 0.84599 0.50227 0.0
N345 N 0.77628 0.78684 0.49992 0.0
C346 C 0.80316 0.7664 0.5137 0.0
C347 C 0.80987 0.75956 0.49524 0.0
C348 C 0.79936 0.76669 0.47924 0.0
C349 C 0.78261 0.78014 0.4819 0.0
C350 C 0.78644 0.78015 0.51571 0.0
H351 H 0.77473 0.78507 0.4693 0.0
H352 H 0.78172 0.78537 0.53001 0.0
H353 H 0.7066 0.80032 0.51156 0.0
H354 H 0.74715 0.85272 0.4993 0.0
C355 C 0.7412 0.80998 0.45767 0.0
C356 C 0.79615 0.83785 0.4929 0.0
C357 C 0.72437 0.7593 0.51118 0.0
C358 C 0.75177 0.81324 0.54913 0.0
H359 H 0.79883 0.85252 0.45232 0.0
H360 H 0.7673 0.83887 0.43319 0.0
H361 H 0.71412 0.77745 0.44665 0.0
H362 H 0.70669 0.74878 0.47554 0.0
H363 H 0.71601 0.75145 0.55277 0.0
H364 H 0.72908 0.78196 0.5736 0.0
H365 H 0.78172 0.84327 0.55961 0.0
H366 H 0.80751 0.8552 0.5289 0.0
H367 H 0.67642 0.82213 0.51229 0.0
H368 H 0.71706 0.87587 0.50017 0.0
H369 H 0.81089 0.76132 0.52646 0.0
H370 H 0.80376 0.76156 0.46476 0.0
C371 C 0.49603 0.80134 0.8798 0.0
C372 C 0.4765 0.80711 0.88763 0.0
C373 C 0.46245 0.79306 0.8818 0.0
C374 C 0.4742 0.77962 0.87076 0.0
N375 N 0.49494 0.78383 0.8697 0.0
Co376 Co 0.51739 0.77017 0.85309 0.0
N377 N 0.49648 0.75269 0.84086 0.0
C378 C 0.47581 0.7509 0.84639 0.0
C379 C 0.46555 0.73659 0.8364 0.0
C380 C 0.48055 0.72872 0.82376 0.0
C381 C 0.49919 0.7389 0.8266 0.0
N382 N 0.53983 0.75756 0.83563 0.0
C383 C 0.53838 0.74458 0.82082 0.0
C384 C 0.55788 0.74126 0.81129 0.0
C385 C 0.57211 0.75204 0.8207 0.0
C386 C 0.56059 0.7616 0.83519 0.0
N387 N 0.53825 0.78716 0.8659 0.0
C388 C 0.55927 0.78569 0.86369 0.0
C389 C 0.56947 0.80017 0.87359 0.0
C390 C 0.55406 0.81186 0.88226 0.0
C391 C 0.53526 0.80378 0.87715 0.0
N392 N 0.51971 0.74701 0.87317 0.0
C393 C 0.52086 0.708 0.89367 0.0
C394 C 0.53903 0.71729 0.88443 0.0
C395 C 0.53816 0.73673 0.8746 0.0
C396 C 0.50259 0.7196 0.8942 0.0
C397 C 0.50244 0.73902 0.88418 0.0
N398 N 0.51504 0.79266 0.83297 0.0
C399 C 0.53121 0.8188 0.81016 0.0
C400 C 0.51214 0.82257 0.80228 0.0
C401 C 0.4944 0.81166 0.8106 0.0
C402 C 0.49617 0.79696 0.82589 0.0
C403 C 0.53231 0.80387 0.82537 0.0
H404 H 0.48217 0.78892 0.83159 0.0
H405 H 0.54733 0.80141 0.83062 0.0
H406 H 0.55253 0.74264 0.86767 0.0
H407 H 0.48797 0.74687 0.88516 0.0
C408 C 0.46624 0.76392 0.85999 0.0
C409 C 0.51508 0.81341 0.88167 0.0
C410 C 0.51903 0.7348 0.81551 0.0
C411 C 0.56877 0.7741 0.84889 0.0
H412 H 0.47278 0.82045 0.89619 0.0
H413 H 0.44562 0.79317 0.88456 0.0
H414 H 0.44908 0.73252 0.83796 0.0
H415 H 0.47798 0.71679 0.81364 0.0
H416 H 0.56154 0.73198 0.79882 0.0
H417 H 0.58887 0.75284 0.81735 0.0
H418 H 0.58615 0.80302 0.87323 0.0
H419 H 0.55649 0.82544 0.8905 0.0
H420 H 0.55375 0.70921 0.88386 0.0
H421 H 0.48828 0.71352 0.90194 0.0
H422 H 0.5453 0.82717 0.80451 0.0
H423 H 0.47929 0.81389 0.80495 0.0
C424 C 0.52401 0.28139 0.65772 0.0
C425 C 0.54374 0.28728 0.64952 0.0
C426 C 0.55715 0.27247 0.65565 0.0
C427 C 0.54486 0.25841 0.66716 0.0
N428 N 0.52432 0.26298 0.66818 0.0
Co429 Co 0.50123 0.24856 0.68523 0.0
N430 N 0.52142 0.23073 0.69902 0.0
C431 C 0.54235 0.23014 0.69475 0.0
C432 C 0.55231 0.21712 0.70716 0.0
C433 C 0.53688 0.20891 0.72016 0.0
C434 C 0.5182 0.21727 0.71485 0.0
N435 N 0.47809 0.23457 0.70257 0.0
C436 C 0.47882 0.22058 0.71792 0.0
C437 C 0.45888 0.21477 0.72577 0.0
C438 C 0.44515 0.22572 0.71531 0.0
C439 C 0.45736 0.23748 0.70161 0.0
N440 N 0.48118 0.26665 0.67154 0.0
C441 C 0.46008 0.2655 0.67381 0.0
C442 C 0.4506 0.28146 0.66419 0.0
C443 C 0.46657 0.2939 0.6558 0.0
C444 C 0.48498 0.28471 0.6607 0.0
N445 N 0.49881 0.22667 0.66574 0.0
C446 C 0.49533 0.19378 0.64025 0.0
C447 C 0.47762 0.2034 0.6485 0.0
C448 C 0.4797 0.2197 0.66093 0.0
C449 C 0.51483 0.20132 0.64448 0.0
C450 C 0.51618 0.21756 0.65711 0.0
N451 N 0.50365 0.27019 0.70418 0.0
C452 C 0.48811 0.29897 0.72079 0.0
C453 C 0.50789 0.30701 0.72361 0.0
C454 C 0.5254 0.29542 0.71792 0.0
C455 C 0.52291 0.27701 0.7085 0.0
C456 C 0.48635 0.2805 0.71125 0.0
H457 H 0.53681 0.26903 0.70401 0.0
H458 H 0.47093 0.27523 0.70902 0.0
H459 H 0.46551 0.22618 0.66651 0.0
H460 H 0.53152 0.22216 0.65976 0.0
C461 C 0.55239 0.24321 0.67992 0.0
C462 C 0.50568 0.29447 0.65644 0.0
C463 C 0.49789 0.21226 0.72551 0.0
C464 C 0.44989 0.25192 0.68808 0.0
H465 H 0.54808 0.30137 0.64086 0.0
H466 H 0.57402 0.27278 0.65322 0.0
H467 H 0.56891 0.21437 0.70711 0.0
H468 H 0.53926 0.19824 0.73236 0.0
H469 H 0.45465 0.20376 0.73785 0.0
H470 H 0.42827 0.22531 0.71755 0.0
H471 H 0.43406 0.28463 0.66457 0.0
H472 H 0.46473 0.30861 0.64793 0.0
H473 H 0.46212 0.19839 0.64537 0.0
H474 H 0.52907 0.19433 0.63852 0.0
H475 H 0.47407 0.30704 0.72564 0.0
H476 H 0.54105 0.30089 0.71995 0.0
C477 C 0.8549 0.48386 0.76246 0.0
C478 C 0.86261 0.46464 0.76809 0.0
C479 C 0.85291 0.45021 0.75791 0.0
C480 C 0.83982 0.46137 0.74677 0.0
N481 N 0.84093 0.48214 0.74883 0.0
Co482 Co 0.82312 0.50398 0.73692 0.0
N483 N 0.80614 0.48247 0.72474 0.0
C484 C 0.80924 0.46169 0.72529 0.0
C485 C 0.79588 0.45092 0.71479 0.0
C486 C 0.78351 0.46566 0.707 0.0
C487 C 0.78992 0.48469 0.71338 0.0
N488 N 0.80511 0.52584 0.72541 0.0
C489 C 0.78841 0.52396 0.71471 0.0
C490 C 0.77976 0.5432 0.71055 0.0
C491 C 0.79171 0.55774 0.71841 0.0
C492 C 0.80677 0.54665 0.72712 0.0
N493 N 0.8402 0.52543 0.74901 0.0
C494 C 0.83873 0.54634 0.74685 0.0
C495 C 0.85192 0.55697 0.75769 0.0
C496 C 0.86211 0.54195 0.7677 0.0
C497 C 0.85444 0.52299 0.76239 0.0
N498 N 0.84255 0.50604 0.71268 0.0
C499 C 0.86543 0.5086 0.67574 0.0
C500 C 0.85901 0.52654 0.68503 0.0
C501 C 0.84773 0.52492 0.70331 0.0
C502 C 0.86116 0.48944 0.68573 0.0
C503 C 0.85 0.48855 0.70405 0.0
N504 N 0.80368 0.50192 0.76087 0.0
C505 C 0.78348 0.51827 0.78695 0.0
C506 C 0.77618 0.49893 0.79502 0.0
C507 C 0.78303 0.48112 0.78571 0.0
C508 C 0.79663 0.48295 0.7688 0.0
C509 C 0.79712 0.5194 0.77004 0.0
H510 H 0.80119 0.46882 0.76232 0.0
H511 H 0.8022 0.53458 0.76466 0.0
H512 H 0.843 0.53918 0.7093 0.0
H513 H 0.84733 0.47344 0.71071 0.0
C514 C 0.82489 0.45272 0.73575 0.0
C515 C 0.86011 0.50314 0.7714 0.0
C516 C 0.78037 0.50443 0.70791 0.0
C517 C 0.82275 0.55536 0.73689 0.0
H518 H 0.87355 0.4613 0.77893 0.0
H519 H 0.85446 0.43348 0.7592 0.0
H520 H 0.79534 0.43433 0.71287 0.0
H521 H 0.7713 0.46269 0.69751 0.0
H522 H 0.76622 0.54648 0.7026 0.0
H523 H 0.78966 0.57443 0.71786 0.0
H524 H 0.85313 0.57363 0.759 0.0
H525 H 0.87331 0.54459 0.77829 0.0
H526 H 0.86198 0.54179 0.67794 0.0
H527 H 0.86628 0.4751 0.6794 0.0
H528 H 0.77884 0.53252 0.79372 0.0
H529 H 0.77762 0.46578 0.7912 0.0
C530 C 0.17639 0.02943 0.76471 0.0
C531 C 0.17338 0.04947 0.77084 0.0
C532 C 0.18358 0.06256 0.75695 0.0
C533 C 0.19224 0.04982 0.7432 0.0
N534 N 0.18779 0.0294 0.74725 0.0
Co535 Co 0.19866 0.00534 0.73216 0.0
N536 N 0.21728 0.02414 0.71402 0.0
C537 C 0.21873 0.04514 0.71411 0.0
C538 C 0.233 0.05378 0.70007 0.0
C539 C 0.24122 0.03735 0.69045 0.0
C540 C 0.23142 0.01954 0.69918 0.0
N541 N 0.2096 0.98123 0.71717 0.0
C542 C 0.2245 0.98067 0.70207 0.0
C543 C 0.22736 0.96059 0.69594 0.0
C544 C 0.21387 0.948 0.70763 0.0
C545 C 0.20355 0.96102 0.72017 0.0
N546 N 0.18028 0.98655 0.75051 0.0
C547 C 0.17749 0.96575 0.74962 0.0
C548 C 0.16512 0.95695 0.76507 0.0
C549 C 0.16013 0.97298 0.77677 0.0
C550 C 0.1698 0.99068 0.76774 0.0
N551 N 0.17584 0.00868 0.71438 0.0
C552 C 0.14632 0.01254 0.68634 0.0
C553 C 0.14973 0.99339 0.69579 0.0
C554 C 0.16435 0.99184 0.70964 0.0
C555 C 0.15714 0.02994 0.69185 0.0
C556 C 0.17158 0.02769 0.70587 0.0
N557 N 0.22111 1.002 0.74988 0.0
C558 C 0.23787 0.98067 0.77356 0.0
C559 C 0.24732 0.99823 0.7804 0.0
C560 C 0.24469 0.01748 0.7707 0.0
C561 C 0.23164 0.019 0.75553 0.0
C562 C 0.22509 0.98288 0.75822 0.0
H563 H 0.22975 0.03414 0.74898 0.0
H564 H 0.21796 0.96902 0.75382 0.0
H565 H 0.16636 0.97672 0.71588 0.0
H566 H 0.17931 0.04155 0.70923 0.0
C567 C 0.2068 0.05625 0.72785 0.0
C568 C 0.16958 0.01082 0.77659 0.0
C569 C 0.23628 0.99864 0.69298 0.0
C570 C 0.18871 0.95466 0.73536 0.0
H571 H 0.16539 0.05412 0.78433 0.0
H572 H 0.18545 0.07926 0.75738 0.0
H573 H 0.23707 0.07008 0.69728 0.0
H574 H 0.25318 0.03835 0.67842 0.0
H575 H 0.23813 0.95557 0.68426 0.0
H576 H 0.21197 0.9313 0.70717 0.0
H577 H 0.1611 0.94065 0.76797 0.0
H578 H 0.15102 0.97172 0.79071 0.0
H579 H 0.14184 0.97938 0.69193 0.0
H580 H 0.15474 0.04521 0.68514 0.0
H581 H 0.23958 0.96538 0.78047 0.0
H582 H 0.25234 0.03142 0.77503 0.0
C583 C 0.7698 0.18032 0.96637 0.0
C584 C 0.76825 0.17404 0.94755 0.0
C585 C 0.7826 0.18561 0.93582 0.0
C586 C 0.79197 0.19828 0.94809 0.0
N587 N 0.78482 0.19519 0.96703 0.0
Co588 Co 0.79265 0.2114 0.9896 0.0
N589 N 0.81161 0.23038 0.97204 0.0
C590 C 0.81583 0.22935 0.95255 0.0
C591 C 0.82997 0.24412 0.9446 0.0
C592 C 0.83528 0.25514 0.95993 0.0
C593 C 0.824 0.2464 0.97641 0.0
N594 N 0.80006 0.22781 0.01216 0.0
C595 C 0.81322 0.24433 0.01262 0.0
C596 C 0.81389 0.25117 0.03137 0.0
C597 C 0.80082 0.23837 0.04323 0.0
C598 C 0.79292 0.22454 0.03109 0.0
N599 N 0.77397 0.19222 0.00717 0.0
C600 C 0.771 0.19209 0.02683 0.0
C601 C 0.75673 0.17737 0.0347 0.0
C602 C 0.74988 0.16779 0.01911 0.0
C603 C 0.76038 0.17734 1.00261 0.0
N604 N 0.81679 0.19273 0.99345 0.0
C605 C 0.85322 0.16944 0.99893 0.0
C606 C 0.83979 0.17492 0.01479 0.0
C607 C 0.82184 0.1864 0.01175 0.0
C608 C 0.84765 0.17523 0.98026 0.0
C609 C 0.82955 0.18665 0.97788 0.0
N610 N 0.76871 0.23012 0.98574 0.0
C611 C 0.73778 0.24773 0.99852 0.0
C612 C 0.73467 0.25671 0.98009 0.0
C613 C 0.74894 0.25199 0.96456 0.0
C614 C 0.76562 0.23879 0.96766 0.0
C615 C 0.75472 0.23462 1.001 0.0
H616 H 0.77588 0.23585 0.9552 0.0
H617 H 0.75619 0.22824 0.01539 0.0
H618 H 0.81253 0.19025 0.0245 0.0
H619 H 0.82643 0.19059 0.96327 0.0
C620 C 0.8063 0.21428 0.94214 0.0
C621 C 0.75572 0.1729 0.98292 0.0
C622 C 0.82596 0.25356 0.99591 0.0
C623 C 0.77978 0.20763 0.03719 0.0
H624 H 0.75742 0.16276 0.94272 0.0
H625 H 0.78527 0.18541 0.92013 0.0
H626 H 0.83584 0.24648 0.92947 0.0
H627 H 0.84636 0.26803 0.95914 0.0
H628 H 0.82316 0.26388 0.03605 0.0
H629 H 0.79779 0.2388 0.05888 0.0
H630 H 0.7512 0.17465 0.04988 0.0
H631 H 0.73793 0.15572 0.0197 0.0
H632 H 0.84337 0.17092 0.02959 0.0
H633 H 0.85722 0.17099 0.96744 0.0
H634 H 0.72706 0.25058 0.01103 0.0
H635 H 0.74751 0.25871 0.95003 0.0
C636 C 0.11851 0.04518 0.07628 0.0
N637 N 0.09726 0.04372 0.01924 0.0
C638 C 0.11725 0.04753 0.01165 0.0
C639 C 0.12346 0.04267 0.99248 0.0
C640 C 0.10899 0.03384 0.98088 0.0
C641 C 0.08859 0.02961 0.98928 0.0
C642 C 0.08305 0.03467 0.00854 0.0
Zn643 Zn 0.08798 0.05402 0.04653 0.0
C644 C 0.06338 0.02125 0.07177 0.0
N645 N 0.06828 0.07709 0.10255 0.0
C646 C 0.08321 0.08795 0.11095 0.0
C647 C 0.04829 0.07571 0.11082 0.0
C648 C 0.04258 0.08604 0.12787 0.0
C649 C 0.05756 0.09804 0.13635 0.0
C650 C 0.07818 0.09854 0.12784 0.0
Zn651 Zn 0.07687 0.06534 0.07578 0.0
O652 O 0.11648 0.04284 0.05825 0.0
C653 C 0.10273 0.09736 0.05053 0.0
O654 O 0.10414 0.05397 0.08644 0.0
H655 H 0.03661 0.06711 0.10388 0.0
H656 H 0.1283 0.05489 0.02029 0.0
H657 H 0.09901 0.08892 0.10423 0.0
O658 O 0.10304 0.08294 0.03857 0.0
O659 O 0.09262 0.09439 0.0671 0.0
H660 H 0.06723 0.03176 0.0148 0.0
O661 O 0.04943 0.07661 0.06488 0.0
O662 O 0.05916 0.06577 0.03588 0.0
O663 O 0.0619 0.03571 0.08384 0.0
O664 O 0.07306 0.02494 0.05507 0.0
C665 C 0.04578 0.07475 0.04721 0.0
H666 H 0.13928 0.04647 0.98663 0.0
H667 H 0.07696 0.02256 0.98103 0.0
H668 H 0.02648 0.0853 0.13392 0.0
H669 H 0.09031 0.10728 0.13405 0.0
C670 C 0.92717 0.47286 0.05582 0.0
N671 N 0.9543 0.48153 0.99765 0.0
C672 C 0.93512 0.47487 0.99323 0.0
C673 C 0.92826 0.47926 0.9748 0.0
C674 C 0.94124 0.49053 0.96055 0.0
C675 C 0.96095 0.49735 0.96547 0.0
C676 C 0.96717 0.49271 0.98424 0.0
Zn677 Zn 0.96326 0.47219 0.02478 0.0
C678 C 0.97876 0.50606 0.04736 0.0
N679 N 0.97957 0.44979 0.08084 0.0
C680 C 0.96618 0.43689 0.09217 0.0
C681 C 0.99825 0.45575 0.087 0.0
C682 C 0.0042 0.44845 0.10512 0.0
C683 C 0.99067 0.4351 0.11707 0.0
C684 C 0.9714 0.42942 0.11045 0.0
Zn685 Zn 0.97137 0.45995 0.05402 0.0
O686 O 0.93189 0.47794 0.03788 0.0
C687 C 0.95531 0.42622 0.03176 0.0
O688 O 0.94107 0.46505 0.06587 0.0
H689 H 0.00863 0.46609 0.07779 0.0
H690 H 0.92521 0.46569 0.00389 0.0
H691 H 0.95147 0.43223 0.08697 0.0
O692 O 0.95416 0.44142 0.01948 0.0
O693 O 0.9625 0.4293 0.04804 0.0
H694 H 0.9824 0.49778 0.98797 0.0
O695 O 1.00162 0.45477 0.04214 0.0
O696 O 0.99494 0.46593 0.01274 0.0
O697 O 0.97985 0.49076 0.0596 0.0
O698 O 0.97237 0.50299 0.03069 0.0
C699 C 0.00778 0.45846 0.02435 0.0
H700 H 0.91312 0.47333 0.9716 0.0
H701 H 0.97142 0.50617 0.95496 0.0
H702 H 0.01914 0.45327 0.10978 0.0
H703 H 0.96066 0.41892 0.11913 0.0
C704 C 0.02871 0.97485 0.42434 0.0
N705 N 0.03677 0.922 0.39138 0.0
C706 C 0.01801 0.92624 0.38434 0.0
C707 C 0.01395 0.92042 0.36577 0.0
C708 C 0.02941 0.91024 0.3544 0.0
C709 C 0.04867 0.90621 0.36199 0.0
C710 C 0.05203 0.91222 0.38063 0.0
Zn711 Zn 0.04246 0.93106 0.41816 0.0
C712 C 0.08429 0.95128 0.41695 0.0
N713 N 0.05433 0.95101 0.47397 0.0
C714 C 0.0391 0.96056 0.485 0.0
C715 C 0.07382 0.94859 0.48002 0.0
C716 C 0.07877 0.95635 0.49764 0.0
C717 C 0.06348 0.96659 0.50917 0.0
C718 C 0.04334 0.96843 0.50282 0.0
Zn719 Zn 0.04851 0.94129 0.4473 0.0
O720 O 0.02927 0.9611 0.41164 0.0
C721 C 0.00616 0.92036 0.44708 0.0
O722 O 0.0354 0.97034 0.44082 0.0
H723 H 0.08565 0.94086 0.47106 0.0
H724 H 0.00617 0.93414 0.39314 0.0
H725 H 0.02374 0.96239 0.47982 0.0
O726 O 0.01298 0.91919 0.42937 0.0
O727 O 0.01775 0.92893 0.4587 0.0
H728 H 0.06681 0.90902 0.38655 0.0
O729 O 0.0622 0.91239 0.45379 0.0
O730 O 0.05681 0.9015 0.42496 0.0
O731 O 0.07912 0.95338 0.435 0.0
O732 O 0.07146 0.9426 0.40678 0.0
C733 C 0.06428 0.89841 0.44143 0.0
H734 H 0.99893 0.92385 0.36037 0.0
H735 H 0.06085 0.89804 0.35381 0.0
H736 H 0.0944 0.95434 0.5022 0.0
H737 H 0.03117 0.97633 0.51128 0.0
C738 C 0.9403 0.5869 0.44882 0.0
N739 N 1.00206 0.56462 0.4477 0.0
C740 C 0.00862 0.58414 0.44135 0.0
C741 C 0.02821 0.59161 0.44539 0.0
C742 C 0.04128 0.57893 0.45609 0.0
C743 C 0.03413 0.55882 0.46245 0.0
C744 C 0.01436 0.55195 0.45809 0.0
Zn745 Zn 0.97317 0.55468 0.44106 0.0
C746 C 0.94845 0.53378 0.47553 0.0
N747 N 0.91307 0.53474 0.42677 0.0
C748 C 0.90041 0.54902 0.41881 0.0
C749 C 0.90775 0.51417 0.42824 0.0
C750 C 0.88996 0.50708 0.42005 0.0
C751 C 0.87721 0.52139 0.41071 0.0
C752 C 0.88214 0.54271 0.41106 0.0
Zn753 Zn 0.94173 0.54429 0.43395 0.0
O754 O 0.95994 0.58438 0.44908 0.0
C755 C 0.96568 0.56642 0.39963 0.0
O756 O 0.92917 0.57228 0.44325 0.0
H757 H 0.91784 0.50306 0.43488 0.0
H758 H 0.99866 0.59394 0.43305 0.0
H759 H 0.90487 0.56531 0.41768 0.0
O760 O 0.97971 0.56676 0.41164 0.0
O761 O 0.94809 0.55789 0.40512 0.0
H762 H 0.00882 0.53651 0.46303 0.0
O763 O 0.95449 0.51615 0.42486 0.0
O764 O 0.98565 0.52443 0.43302 0.0
O765 O 0.93547 0.53129 0.46279 0.0
O766 O 0.96585 0.54299 0.47045 0.0
C767 C 0.97338 0.51127 0.42635 0.0
H768 H 0.03318 0.60709 0.43992 0.0
H769 H 0.04359 0.54858 0.47091 0.0
H770 H 0.88701 0.49049 0.42013 0.0
H771 H 0.87249 0.55445 0.40469 0.0
C772 C 0.41727 0.97044 0.561 0.0
N773 N 0.44322 0.97558 0.50189 0.0
C774 C 0.42375 0.96972 0.49759 0.0
C775 C 0.41727 0.97352 0.4789 0.0
C776 C 0.43095 0.98335 0.46424 0.0
C777 C 0.4508 0.98975 0.46919 0.0
C778 C 0.45666 0.98566 0.48817 0.0
Zn779 Zn 0.45207 0.96646 0.52918 0.0
C780 C 0.47034 1.00021 0.55048 0.0
N781 N 0.46873 0.94482 0.58527 0.0
C782 C 0.45478 0.93295 0.59703 0.0
C783 C 0.48766 0.95026 0.59122 0.0
C784 C 0.49321 0.94359 0.60965 0.0
C785 C 0.47907 0.93137 0.62209 0.0
C786 C 0.45963 0.92608 0.61559 0.0
Zn787 Zn 0.46071 0.95465 0.55836 0.0
O788 O 0.42111 0.9742 0.5427 0.0
C789 C 0.44158 0.92114 0.53755 0.0
O790 O 0.43134 0.9623 0.57061 0.0
H791 H 0.49847 0.9598 0.58166 0.0
H792 H 0.41329 0.96161 0.50857 0.0
H793 H 0.43985 0.92874 0.59199 0.0
O794 O 0.44109 0.93602 0.52483 0.0
O795 O 0.44944 0.92431 0.55351 0.0
H796 H 0.47212 0.99009 0.4918 0.0
O797 O 0.49029 0.94714 0.5463 0.0
O798 O 0.48342 0.9581 0.5169 0.0
O799 O 0.47139 0.98504 0.56287 0.0
O800 O 0.463 0.99711 0.53421 0.0
C801 C 0.49618 0.95017 0.52838 0.0
H802 H 0.40169 0.96863 0.47596 0.0
H803 H 0.46196 0.99723 0.45838 0.0
H804 H 0.5083 0.94811 0.6142 0.0
H805 H 0.44841 0.91641 0.62462 0.0
C806 C 0.60141 0.53668 0.59848 0.0
N807 N 0.57689 0.53159 0.54354 0.0
C808 C 0.59702 0.53456 0.53601 0.0
C809 C 0.60297 0.52982 0.51682 0.0
C810 C 0.58807 0.52217 0.50499 0.0
C811 C 0.56755 0.51852 0.51336 0.0
C812 C 0.56229 0.52333 0.53274 0.0
Zn813 Zn 0.5686 0.54287 0.57054 0.0
C814 C 0.546 0.51125 0.59815 0.0
N815 N 0.55206 0.56987 0.62579 0.0
C816 C 0.56803 0.57846 0.6347 0.0
C817 C 0.53189 0.57212 0.63304 0.0
C818 C 0.52719 0.58408 0.64927 0.0
C819 C 0.54341 0.59359 0.65846 0.0
C820 C 0.56409 0.58998 0.6512 0.0
Zn821 Zn 0.55946 0.5565 0.59931 0.0
O822 O 0.59753 0.53212 0.58135 0.0
C823 C 0.58386 0.58698 0.57159 0.0
O824 O 0.58803 0.54654 0.60884 0.0
H825 H 0.51931 0.56533 0.62582 0.0
H826 H 0.6084 0.54128 0.54471 0.0
H827 H 0.58398 0.57705 0.62869 0.0
O828 O 0.5835 0.5715 0.56087 0.0
O829 O 0.5744 0.58548 0.58857 0.0
H830 H 0.54635 0.52116 0.53892 0.0
O831 O 0.53094 0.56663 0.58906 0.0
O832 O 0.53933 0.5541 0.5605 0.0
O833 O 0.54537 0.52644 0.6095 0.0
O834 O 0.55419 0.5142 0.58075 0.0
C835 C 0.52645 0.56374 0.57177 0.0
H836 H 0.61907 0.5325 0.51123 0.0
H837 H 0.55545 0.51281 0.50483 0.0
H838 H 0.51096 0.58644 0.65403 0.0
H839 H 0.57728 0.5963 0.65792 0.0
C840 C 0.54377 0.49017 0.94029 0.0
N841 N 0.55099 0.44048 0.90375 0.0
C842 C 0.53193 0.44502 0.89751 0.0
C843 C 0.52776 0.44165 0.87837 0.0
C844 C 0.5434 0.43363 0.86554 0.0
C845 C 0.56295 0.42915 0.8724 0.0
C846 C 0.56639 0.43262 0.89167 0.0
Zn847 Zn 0.55721 0.44719 0.93112 0.0
C848 C 0.59902 0.46721 0.93055 0.0
N849 N 0.57066 0.46263 0.98796 0.0
C850 C 0.55635 0.47287 0.99942 0.0
C851 C 0.58988 0.45821 0.99389 0.0
C852 C 0.59547 0.46448 0.01185 0.0
C853 C 0.58121 0.47551 0.02382 0.0
C854 C 0.56132 0.47949 0.01751 0.0
Zn855 Zn 0.56412 0.45502 0.96078 0.0
O856 O 0.54339 0.47705 0.9271 0.0
C857 C 0.52168 0.4347 0.95991 0.0
O858 O 0.55153 0.48489 0.95613 0.0
H859 H 0.60101 0.45005 0.98454 0.0
H860 H 0.51996 0.45137 0.90738 0.0
H861 H 0.54118 0.47626 0.99436 0.0
O862 O 0.52833 0.43429 0.9421 0.0
O863 O 0.53333 0.44272 0.97182 0.0
H864 H 0.58147 0.42927 0.89692 0.0
O865 O 0.57716 0.42543 0.96522 0.0
O866 O 0.57206 0.41748 0.93538 0.0
O867 O 0.59478 0.46697 0.94894 0.0
O868 O 0.58563 0.46012 0.91999 0.0
C869 C 0.5793 0.41273 0.95168 0.0
H870 H 0.51237 0.44501 0.87376 0.0
H871 H 0.57553 0.42317 0.86293 0.0
H872 H 0.61083 0.46072 0.0163 0.0
H873 H 0.54991 0.48807 0.02622 0.0
C874 C 0.44975 0.10302 0.95261 0.0
N875 N 0.51072 0.07892 0.95123 0.0
C876 C 0.5174 0.09836 0.94476 0.0
C877 C 0.5374 0.10536 0.94798 0.0
C878 C 0.55072 0.09225 0.95797 0.0
C879 C 0.54339 0.07227 0.96454 0.0
C880 C 0.52322 0.0659 0.96102 0.0
Zn881 Zn 0.4815 0.06945 0.94554 0.0
C882 C 0.45708 0.05027 0.98049 0.0
N883 N 0.42082 0.0507 0.93284 0.0
C884 C 0.40881 0.06252 0.92143 0.0
C885 C 0.4144 0.03142 0.94003 0.0
C886 C 0.39562 0.02292 0.93512 0.0
C887 C 0.38339 0.03432 0.92257 0.0
C888 C 0.38992 0.05458 0.91606 0.0
Zn889 Zn 0.44972 0.06063 0.93836 0.0
O890 O 0.46896 0.09903 0.95406 0.0
C891 C 0.47328 0.08154 0.90367 0.0
O892 O 0.43797 0.08942 0.94618 0.0
H893 H 0.42419 0.02228 0.94911 0.0
H894 H 0.50724 0.10842 0.93694 0.0
H895 H 0.41424 0.07783 0.91592 0.0
O896 O 0.48723 0.08178 0.91579 0.0
O897 O 0.4557 0.07288 0.90901 0.0
H898 H 0.51755 0.05053 0.96606 0.0
O899 O 0.46148 0.03153 0.93039 0.0
O900 O 0.49326 0.03931 0.93717 0.0
O901 O 0.44375 0.04931 0.96789 0.0
O902 O 0.47521 0.05773 0.97518 0.0
C903 C 0.48036 0.02626 0.93132 0.0
H904 H 0.5425 0.12076 0.9424 0.0
H905 H 0.55307 0.06175 0.97247 0.0
H906 H 0.39104 0.00734 0.9406 0.0
H907 H 0.38109 0.0638 0.90614 0.0
H908 H 0.98505 0.17119 0.40136 0.0
H909 H 0.98527 0.13377 0.40987 0.0
H910 H 0.04291 0.12823 0.37401 0.0
H911 H 0.04274 0.16542 0.36526 0.0
H912 H 0.98557 0.09977 0.38521 0.0
H913 H 0.05614 0.10113 0.42659 0.0
H914 H 0.04222 0.1244 0.42037 0.0
H915 H 0.06 0.1131 0.40247 0.0
C916 C 0.99777 0.16202 0.39525 0.0
C917 C 0.01399 0.17144 0.38275 0.0
C918 C 0.99788 0.14063 0.40016 0.0
C919 C 0.01425 0.12824 0.39278 0.0
C920 C 0.03036 0.13754 0.38022 0.0
H921 H 0.0217 0.9932 0.38861 0.0
H922 H 0.01623 0.03024 0.38094 0.0
C923 C 0.03027 0.15887 0.3753 0.0
C924 C 0.01446 0.10555 0.398 0.0
H925 H 0.0434 0.0679 0.41916 0.0
C926 C 0.99815 0.09278 0.39272 0.0
C927 C 0.03076 0.09648 0.40797 0.0
C928 C 0.04819 0.10948 0.41486 0.0
C929 C 0.99793 0.07113 0.39682 0.0
C930 C 0.0146 0.062 0.40624 0.0
C931 C 0.0307 0.07485 0.4118 0.0
C932 C 0.01565 0.03921 0.41086 0.0
C933 C 0.97974 0.05827 0.39128 0.0
C934 C 0.01707 0.03186 0.4302 0.0
C935 C 0.02032 0.01079 0.43459 0.0
C936 C 0.0223 0.99652 0.41973 0.0
C937 C 0.02009 1.00373 0.40042 0.0
C938 C 0.0169 0.02492 0.39601 0.0
H939 H 0.96591 0.068 0.38891 0.0
H940 H 0.9843 0.05065 0.3775 0.0
H941 H 0.97522 0.04592 0.4027 0.0
H942 H 0.01615 0.04256 0.44189 0.0
H943 H 0.02189 0.00581 0.44963 0.0
H944 H 1.00083 0.33518 0.34972 0.0
H945 H 0.9978 0.3711 0.36005 0.0
H946 H 0.01398 0.35107 0.41747 0.0
H947 H 0.01662 0.31506 0.40717 0.0
H948 H 0.98055 0.37661 0.41901 0.0
H949 H 0.04379 0.41272 0.3687 0.0
H950 H 0.02493 0.39874 0.35631 0.0
H951 H 0.04077 0.38489 0.37284 0.0
C952 C 0.00385 0.33855 0.3645 0.0
C953 C 0.00923 0.3225 0.3776 0.0
C954 C 1.00229 0.35908 0.37036 0.0
C955 C 0.00613 0.36397 0.38944 0.0
C956 C 0.01118 0.34779 0.40262 0.0
H957 H 0.01212 0.49309 0.42861 0.0
H958 H 0.02174 0.45733 0.42067 0.0
C959 C 0.01273 0.32726 0.39675 0.0
C960 C 0.00388 0.38574 0.39588 0.0
H961 H 0.0201 0.43611 0.38476 0.0
C962 C 0.98937 0.38956 0.41162 0.0
C963 C 0.01558 0.40271 0.38649 0.0
C964 C 0.0323 0.39959 0.37028 0.0
C965 C 0.98564 0.40985 0.41768 0.0
C966 C 0.9965 0.42693 0.4076 0.0
C967 C 0.01164 0.42307 0.39239 0.0
C968 C 0.99128 0.44886 0.4119 0.0
C969 C 0.96998 0.41283 0.43481 0.0
C970 C 0.97119 0.45615 0.40919 0.0
C971 C 0.96571 0.47642 0.41362 0.0
C972 C 0.98021 0.49011 0.42085 0.0
C973 C 1.00056 0.48299 0.42313 0.0
C974 C 0.00607 0.46256 0.41861 0.0
H975 H 0.96767 0.39839 0.44427 0.0
H976 H 0.97498 0.4256 0.44375 0.0
H977 H 0.95469 0.41696 0.42936 0.0
H978 H 0.95963 0.44607 0.40367 0.0
H979 H 0.94993 0.48127 0.41151 0.0
H980 H 0.04583 0.83279 0.14209 0.0
H981 H 0.05171 0.86945 0.13216 0.0
H982 H 1.00236 0.86623 0.0935 0.0
H983 H 0.99637 0.82941 0.10336 0.0
H984 H 0.06327 0.88779 0.09653 0.0
H985 H 0.98602 0.91695 0.12398 0.0
H986 H 0.99492 0.89129 0.13065 0.0
H987 H 0.98458 0.89635 0.10744 0.0
C988 C 0.03631 0.83977 0.13133 0.0
C989 C 0.02064 0.82802 0.1235 0.0
C990 C 0.03962 0.86083 0.12576 0.0
C991 C 0.02729 0.87078 0.11229 0.0
C992 C 0.01176 0.85909 0.10427 0.0
H993 H 0.06208 0.98798 0.04862 0.0
H994 H 0.05239 0.95195 0.05834 0.0
C995 C 0.00839 0.83798 0.10988 0.0
C996 C 0.0312 0.89319 0.10634 0.0
H997 H 0.00845 0.94101 0.10487 0.0
C998 C 0.05126 0.89941 0.09837 0.0
C999 C 0.01566 0.90847 0.10898 0.0
C1000 C 0.99414 0.90303 0.1184 0.0
C1001 C 0.05613 0.92032 0.09278 0.0
C1002 C 0.04042 0.93551 0.09485 0.0
C1003 C 0.02043 0.92937 0.10308 0.0
C1004 C 0.0446 0.95781 0.08869 0.0
C1005 C 0.07823 0.92601 0.08507 0.0
C1006 C 0.04257 0.97338 0.10231 0.0
C1007 C 0.04796 0.99416 0.09676 0.0
C1008 C 0.05542 0.99978 0.07742 0.0
C1009 C 0.05658 0.98425 0.06367 0.0
C1010 C 0.05115 0.96356 0.06923 0.0
H1011 H 0.08946 0.91393 0.08929 0.0
H1012 H 0.0791 0.92749 0.06892 0.0
H1013 H 0.0832 0.94112 0.09051 0.0
H1014 H 0.03742 0.96937 0.1174 0.0
H1015 H 0.04684 0.00568 0.10773 0.0
H1016 H 0.00817 0.66473 0.14405 0.0
H1017 H 0.00528 0.63223 0.12714 0.0
H1018 H 0.99543 0.66746 0.07388 0.0
H1019 H 0.99871 0.70001 0.0908 0.0
H1020 H 0.9705 0.61907 0.10911 0.0
H1021 H 0.04069 0.62631 0.05628 0.0
H1022 H 0.03727 0.64203 0.07729 0.0
H1023 H 0.02343 0.64809 0.05615 0.0
C1024 C 0.00559 0.66542 0.12869 0.0
C1025 C 0.00357 0.68465 0.11864 0.0
C1026 C 0.00393 0.64695 0.11907 0.0
C1027 C 1.00035 0.64745 0.09922 0.0
C1028 C 0.99856 0.66673 0.0891 0.0
H1029 H 0.97548 0.54313 0.02636 0.0
H1030 H 0.98088 0.57829 0.03761 0.0
C1031 C 1.00027 0.68525 0.09875 0.0
C1032 C 0.99739 0.62768 0.08954 0.0
H1033 H 0.01816 0.59734 0.05371 0.0
C1034 C 0.98091 0.61435 0.09698 0.0
C1035 C 0.0109 0.62164 0.07362 0.0
C1036 C 0.02918 0.63515 0.06541 0.0
C1037 C 0.97769 0.59501 0.08908 0.0
C1038 C 0.99148 0.58874 0.0735 0.0
C1039 C 0.00765 0.60225 0.06568 0.0
C1040 C 0.98987 0.5677 0.06596 0.0
C1041 C 0.95956 0.58139 0.09751 0.0
C1042 C 0.99371 0.55023 0.078 0.0
C1043 C 0.99068 0.53025 0.07167 0.0
C1044 C 0.98378 0.52731 0.05311 0.0
C1045 C 0.98073 0.54487 0.04075 0.0
C1046 C 0.98381 0.56494 0.04713 0.0
H1047 H 0.94765 0.5904 0.10599 0.0
H1048 H 0.95196 0.57365 0.0858 0.0
H1049 H 0.9654 0.5691 0.10745 0.0
H1050 H 0.99868 0.55209 0.09248 0.0
H1051 H 0.99334 0.5171 0.08152 0.0
H1052 H 0.40177 0.9976 0.16358 0.0
H1053 H 0.42012 1.00192 0.13104 0.0
H1054 H 0.37882 0.05155 0.11642 0.0
H1055 H 0.36041 0.04734 0.14881 0.0
H1056 H 0.40541 0.99754 0.09549 0.0
H1057 H 0.43539 0.07801 0.09988 0.0
H1058 H 0.42489 0.06263 0.1211 0.0
H1059 H 0.40766 0.07587 0.10545 0.0
C1060 C 0.39659 0.00947 0.15346 0.0
C1061 C 0.37964 0.0222 0.15894 0.0
C1062 C 0.40717 0.01196 0.13486 0.0
C1063 C 0.40112 0.0273 0.12133 0.0
C1064 C 0.38419 0.03999 0.12673 0.0
H1065 H 0.4196 0.03381 0.99597 0.0
H1066 H 0.40787 0.02704 0.03025 0.0
C1067 C 0.37365 0.03755 0.14532 0.0
C1068 C 0.41187 0.02946 0.10129 0.0
H1069 H 0.43627 0.0647 0.068 0.0
C1070 C 0.41233 0.01218 0.08955 0.0
C1071 C 0.42124 0.04845 0.09356 0.0
C1072 C 0.42249 0.06724 0.10571 0.0
C1073 C 0.42116 0.01357 0.07016 0.0
C1074 C 0.42948 0.03287 0.0621 0.0
C1075 C 0.42973 0.04994 0.07405 0.0
C1076 C 0.43721 0.03593 0.04113 0.0
C1077 C 0.42157 0.99429 0.05853 0.0
C1078 C 0.45759 0.04348 0.03568 0.0
C1079 C 0.46437 0.04751 0.01597 0.0
C1080 C 0.45083 0.04422 1.00129 0.0
C1081 C 0.43053 0.0364 0.00682 0.0
C1082 C 0.4238 0.03239 0.02648 0.0
H1083 H 0.4209 0.97993 0.06818 0.0
H1084 H 0.40772 0.99409 0.04988 0.0
H1085 H 0.43584 0.99397 0.04833 0.0
H1086 H 0.46821 0.04645 0.04671 0.0
H1087 H 0.48004 0.05363 0.01228 0.0
H1088 H 0.61391 0.50485 0.20192 0.0
H1089 H 0.59999 0.50401 0.16974 0.0
H1090 H 0.66218 0.5146 0.1421 0.0
H1091 H 0.67611 0.51476 0.17421 0.0
H1092 H 0.60148 0.53107 0.13602 0.0
H1093 H 0.64474 0.45818 0.12299 0.0
H1094 H 0.64166 0.46918 0.14662 0.0
H1095 H 0.66104 0.47967 0.12836 0.0
C1096 C 0.62445 0.50725 0.18889 0.0
C1097 C 0.64602 0.50949 0.19029 0.0
C1098 C 0.61655 0.50683 0.17061 0.0
C1099 C 0.63016 0.50878 0.15361 0.0
C1100 C 0.65152 0.51262 0.15508 0.0
H1101 H 0.61864 0.49253 0.03156 0.0
H1102 H 0.62947 0.50241 0.06306 0.0
C1103 C 0.65943 0.51285 0.17333 0.0
C1104 C 0.62235 0.50515 0.13446 0.0
H1105 H 0.62771 0.47292 0.09655 0.0
C1106 C 0.60715 0.51836 0.12738 0.0
C1107 C 0.62965 0.48838 0.12337 0.0
C1108 C 0.64502 0.4729 0.13077 0.0
C1109 C 0.59942 0.5155 0.10918 0.0
C1110 C 0.60703 0.49896 0.09801 0.0
C1111 C 0.62208 0.48569 0.10516 0.0
C1112 C 0.59963 0.4949 0.07881 0.0
C1113 C 0.58346 0.5303 0.10185 0.0
C1114 C 0.57924 0.48746 0.07732 0.0
C1115 C 0.57305 0.48154 0.05937 0.0
C1116 C 0.58722 0.48291 0.04268 0.0
C1117 C 0.60747 0.49091 0.0442 0.0
C1118 C 0.61364 0.49674 0.06213 0.0
H1119 H 0.58207 0.54442 0.11051 0.0
H1120 H 0.58759 0.53512 0.08632 0.0
H1121 H 0.56797 0.52232 0.10285 0.0
H1122 H 0.56834 0.4856 0.09015 0.0
H1123 H 0.55743 0.47524 0.05872 0.0
H1124 H 0.33252 1.00336 0.30954 0.0
H1125 H 0.34736 1.00064 0.34131 0.0
H1126 H 0.4095 1.00193 0.31228 0.0
H1127 H 0.39452 0.00426 0.28049 0.0
H1128 H 0.4051 0.97191 0.34152 0.0
H1129 H 0.37521 0.04631 0.36885 0.0
H1130 H 0.3549 0.02966 0.36164 0.0
H1131 H 0.37475 0.03991 0.34368 0.0
C1132 C 0.34933 1.00309 0.31005 0.0
C1133 C 0.36245 1.00403 0.29274 0.0
C1134 C 0.35782 1.0017 0.32815 0.0
C1135 C 0.37959 1.00147 0.32924 0.0
C1136 C 0.39268 1.00221 0.31184 0.0
H1137 H 0.43901 0.01685 0.43816 0.0
H1138 H 0.42821 0.02137 0.40491 0.0
C1139 C 0.38418 1.00354 0.29373 0.0
C1140 C 0.38865 0.99989 0.3485 0.0
H1141 H 0.38886 0.02271 0.39229 0.0
C1142 C 0.40165 0.98311 0.35257 0.0
C1143 C 0.38448 0.01467 0.36284 0.0
C1144 C 0.37175 0.03377 0.359 0.0
C1145 C 0.41005 0.98035 0.37073 0.0
C1146 C 0.40501 0.99454 0.38542 0.0
C1147 C 0.39255 0.01169 0.38114 0.0
C1148 C 0.41209 0.99161 0.40543 0.0
C1149 C 0.42441 0.96234 0.37392 0.0
C1150 C 0.40651 0.97347 0.41689 0.0
C1151 C 0.41278 0.97078 0.4358 0.0
C1152 C 0.42462 0.98627 0.44388 0.0
C1153 C 0.43014 0.00449 0.43238 0.0
C1154 C 0.42385 0.00716 0.4134 0.0
H1155 H 0.43171 0.957 0.3599 0.0
H1156 H 0.43699 0.96658 0.38322 0.0
H1157 H 0.41525 0.94908 0.38131 0.0
H1158 H 0.3971 0.96141 0.41126 0.0
H1159 H 0.40844 0.95642 0.44406 0.0
H1160 H 0.67264 0.52438 0.33161 0.0
H1161 H 0.6581 0.52645 0.36529 0.0
H1162 H 0.60844 0.48389 0.35475 0.0
H1163 H 0.62242 0.48219 0.32071 0.0
H1164 H 0.61275 0.53761 0.37794 0.0
H1165 H 0.63844 0.45965 0.40452 0.0
H1166 H 0.65141 0.47333 0.38332 0.0
H1167 H 0.62611 0.46171 0.38194 0.0
C1168 C 0.65844 0.51566 0.33628 0.0
C1169 C 0.64868 0.50319 0.32329 0.0
C1170 C 0.65026 0.51676 0.35561 0.0
C1171 C 0.6323 0.50523 0.36251 0.0
C1172 C 0.62246 0.49274 0.34972 0.0
H1173 H 0.5745 0.4913 0.48236 0.0
H1174 H 0.58334 0.48714 0.44752 0.0
C1175 C 0.63054 0.49174 0.33029 0.0
C1176 C 0.62383 0.50659 0.38306 0.0
H1177 H 0.62066 0.48036 0.4275 0.0
C1178 C 0.61436 0.52508 0.38879 0.0
C1179 C 0.62581 0.49013 0.39708 0.0
C1180 C 0.63605 0.47005 0.39158 0.0
C1181 C 0.60695 0.52764 0.40825 0.0
C1182 C 0.60965 0.51149 0.4225 0.0
C1183 C 0.61866 0.49277 0.41663 0.0
C1184 C 0.60403 0.51406 0.44362 0.0
C1185 C 0.5961 0.54758 0.41329 0.0
C1186 C 0.61292 0.53038 0.45312 0.0
C1187 C 0.60772 0.53296 0.47293 0.0
C1188 C 0.59373 0.51905 0.48388 0.0
C1189 C 0.58509 0.50248 0.47439 0.0
C1190 C 0.59024 0.49999 0.45448 0.0
H1191 H 0.58926 0.55499 0.40042 0.0
H1192 H 0.58348 0.54483 0.42515 0.0
H1193 H 0.60766 0.55872 0.41822 0.0
H1194 H 0.62398 0.54117 0.4452 0.0
H1195 H 0.6145 0.54607 0.47957 0.0
H1196 H 0.17555 0.35899 0.9781 0.0
H1197 H 0.14288 0.37788 0.97687 0.0
H1198 H 0.16579 0.42349 0.01414 0.0
H1199 H 0.19873 0.40469 0.01521 0.0
H1200 H 0.11583 0.38324 0.00764 0.0
H1201 H 0.1397 0.46054 0.97379 0.0
H1202 H 0.15668 0.43838 0.97279 0.0
H1203 H 0.15403 0.45323 0.99429 0.0
C1204 C 0.17373 0.37318 0.98586 0.0
C1205 C 0.18968 0.38026 0.99689 0.0
C1206 C 0.15507 0.38402 0.98508 0.0
C1207 C 0.15186 0.40223 0.99527 0.0
C1208 C 0.16802 0.40975 0.00578 0.0
H1209 H 0.03918 0.44928 0.04725 0.0
H1210 H 0.07395 0.43694 0.03762 0.0
C1211 C 0.18683 0.39895 0.00646 0.0
C1212 C 0.13087 0.41196 0.99647 0.0
H1213 H 0.10529 0.45789 0.99039 0.0
C1214 C 0.11355 0.3995 0.00359 0.0
C1215 C 0.12776 0.43315 0.99107 0.0
C1216 C 0.1455 0.44707 0.98237 0.0
C1217 C 0.09346 0.40776 0.00613 0.0
C1218 C 0.09052 0.42913 1.00164 0.0
C1219 C 0.10761 0.44152 0.99387 0.0
C1220 C 0.07013 0.43894 0.00674 0.0
C1221 C 0.07549 0.39366 0.01405 0.0
C1222 C 0.05658 0.44476 0.99245 0.0
C1223 C 0.03642 0.45189 0.99792 0.0
C1224 C 0.02963 0.45324 0.01775 0.0
C1225 C 0.04372 0.44823 0.03184 0.0
C1226 C 0.06368 0.4412 0.0264 0.0
H1227 H 0.07932 0.37697 0.01277 0.0
H1228 H 0.07172 0.39646 0.0297 0.0
H1229 H 0.06133 0.39702 0.00626 0.0
H1230 H 0.06132 0.44312 0.97717 0.0
H1231 H 0.02598 0.45564 0.98673 0.0
H1232 H 0.23443 0.62533 0.48164 0.0
H1233 H 0.20079 0.60954 0.475 0.0
H1234 H 0.17043 0.66796 0.48504 0.0
H1235 H 0.20407 0.68374 0.49135 0.0
H1236 H 0.1638 0.60566 0.4995 0.0
H1237 H 0.15149 0.65302 0.43213 0.0
H1238 H 0.1765 0.65162 0.44232 0.0
H1239 H 0.15653 0.66822 0.45247 0.0
C1240 C 0.22054 0.63474 0.48219 0.0
C1241 C 0.22168 0.65573 0.48668 0.0
C1242 C 0.20139 0.62576 0.47849 0.0
C1243 C 0.18319 0.63768 0.4792 0.0
C1244 C 0.18435 0.65861 0.48398 0.0
H1245 H 0.05195 0.6178 0.46686 0.0
H1246 H 0.08663 0.63101 0.47267 0.0
C1247 C 0.20347 0.66757 0.48766 0.0
C1248 C 0.16284 0.62815 0.47545 0.0
H1249 H 0.1224 0.63282 0.44634 0.0
C1250 C 0.1548 0.61146 0.48778 0.0
C1251 C 0.15116 0.63577 0.46015 0.0
C1252 C 0.15941 0.65302 0.44588 0.0
C1253 C 0.13508 0.60257 0.48558 0.0
C1254 C 0.12328 0.6104 0.47046 0.0
C1255 C 0.13145 0.62691 0.45798 0.0
C1256 C 0.10224 0.60197 0.46748 0.0
C1257 C 0.12678 0.58531 0.49981 0.0
C1258 C 0.09952 0.58125 0.46256 0.0
C1259 C 0.0797 0.57365 0.45913 0.0
C1260 C 0.06225 0.58669 0.46044 0.0
C1261 C 0.06507 0.60741 0.46547 0.0
C1262 C 0.08486 0.61497 0.46889 0.0
H1263 H 0.13543 0.58449 0.51315 0.0
H1264 H 0.10994 0.58743 0.50415 0.0
H1265 H 0.1285 0.57021 0.49277 0.0
H1266 H 0.11279 0.57106 0.461 0.0
H1267 H 0.07815 0.55772 0.45499 0.0
H1268 H 0.8088 0.87834 0.49507 0.0
H1269 H 0.84435 0.89301 0.48879 0.0
H1270 H 0.86718 0.83244 0.47434 0.0
H1271 H 0.8316 0.81776 0.48095 0.0
H1272 H 0.8925 0.85271 0.49886 0.0
H1273 H 0.8761 0.90496 0.43571 0.0
H1274 H 0.85931 0.90862 0.45735 0.0
H1275 H 0.85824 0.88446 0.44538 0.0
C1276 C 0.82146 0.86824 0.49052 0.0
C1277 C 0.81758 0.84695 0.48853 0.0
C1278 C 0.84174 0.87661 0.48684 0.0
C1279 C 0.85851 0.86391 0.48088 0.0
C1280 C 0.85456 0.84259 0.47889 0.0
H1281 H 0.97923 0.90071 0.42512 0.0
H1282 H 0.94408 0.88741 0.43465 0.0
C1283 C 0.83426 0.83422 0.48258 0.0
C1284 C 0.88015 0.87277 0.47683 0.0
H1285 H 0.90946 0.90841 0.44761 0.0
C1286 C 0.89621 0.86491 0.48767 0.0
C1287 C 0.88509 0.88859 0.46212 0.0
C1288 C 0.86885 0.89705 0.44933 0.0
C1289 C 0.91697 0.87242 0.48423 0.0
C1290 C 0.92184 0.88846 0.46971 0.0
C1291 C 0.90576 0.89629 0.45889 0.0
C1292 C 0.94369 0.89637 0.46451 0.0
C1293 C 0.93362 0.86269 0.49579 0.0
C1294 C 0.95541 0.90598 0.4781 0.0
C1295 C 0.97579 0.91366 0.47268 0.0
C1296 C 0.9848 0.91196 0.45352 0.0
C1297 C 0.97294 0.90233 0.44002 0.0
C1298 C 0.95271 0.89471 0.44543 0.0
H1299 H 0.92829 0.84758 0.50312 0.0
H1300 H 0.94804 0.86013 0.48626 0.0
H1301 H 0.9376 0.87333 0.50719 0.0
H1302 H 0.94871 0.90783 0.49283 0.0
H1303 H 0.98437 0.92108 0.48341 0.0
H1304 H 0.35902 0.66418 0.54754 0.0
H1305 H 0.3904 0.64568 0.55567 0.0
H1306 H 0.39121 0.61424 0.50183 0.0
H1307 H 0.35947 0.63225 0.49372 0.0
H1308 H 0.39663 0.60113 0.55905 0.0
H1309 H 0.45091 0.64041 0.50137 0.0
H1310 H 0.42575 0.65089 0.50895 0.0
H1311 H 0.42741 0.62922 0.49348 0.0
C1312 C 0.36564 0.65316 0.53747 0.0
C1313 C 0.35655 0.64981 0.51991 0.0
C1314 C 0.38373 0.64268 0.54212 0.0
C1315 C 0.39335 0.62876 0.52927 0.0
C1316 C 0.3843 0.6252 0.51182 0.0
H1317 H 0.51032 0.55962 0.5362 0.0
H1318 H 0.47761 0.57387 0.52545 0.0
C1319 C 0.36613 0.63559 0.50719 0.0
C1320 C 0.41265 0.6178 0.53434 0.0
H1321 H 0.46494 0.61406 0.52116 0.0
C1322 C 0.41156 0.60393 0.55075 0.0
C1323 C 0.43211 0.6213 0.52341 0.0
C1324 C 0.4343 0.63636 0.50588 0.0
C1325 C 0.42935 0.5935 0.55656 0.0
C1326 C 0.44897 0.59745 0.54598 0.0
C1327 C 0.44997 0.61102 0.52931 0.0
C1328 C 0.46873 0.58842 0.55249 0.0
C1329 C 0.42683 0.57812 0.57384 0.0
C1330 C 0.47486 0.59204 0.57115 0.0
C1331 C 0.49342 0.58385 0.57735 0.0
C1332 C 0.50655 0.572 0.56497 0.0
C1333 C 0.50057 0.56858 0.54616 0.0
C1334 C 0.48187 0.57675 0.53998 0.0
H1335 H 0.41057 0.57187 0.57617 0.0
H1336 H 0.43764 0.5649 0.572 0.0
H1337 H 0.43033 0.58608 0.58717 0.0
H1338 H 0.46537 0.60145 0.58092 0.0
H1339 H 0.49755 0.58701 0.59187 0.0
H1340 H 0.49066 0.67807 0.89131 0.0
H1341 H 0.49187 0.64117 0.90117 0.0
H1342 H 0.55219 0.65078 0.92283 0.0
H1343 H 0.55103 0.68783 0.91324 0.0
H1344 H 0.55096 0.61821 0.89749 0.0
H1345 H 0.4855 0.611 0.95527 0.0
H1346 H 0.47883 0.62328 0.93269 0.0
H1347 H 0.49727 0.63576 0.94679 0.0
C1348 C 0.50397 0.67248 0.89862 0.0
C1349 C 0.52074 0.68599 0.90151 0.0
C1350 C 0.50464 0.65133 0.90421 0.0
C1351 C 0.52203 0.64324 0.9129 0.0
C1352 C 0.53861 0.65671 0.91617 0.0
H1353 H 0.54156 0.52128 0.96598 0.0
H1354 H 0.53489 0.5581 0.95907 0.0
C1355 C 0.53795 0.67788 0.9106 0.0
C1356 C 0.52356 0.62054 0.91738 0.0
H1357 H 0.50026 0.57946 0.94443 0.0
C1358 C 0.5399 0.60974 0.90778 0.0
C1359 C 0.50917 0.60954 0.93088 0.0
C1360 C 0.4918 0.62047 0.94215 0.0
C1361 C 0.54216 0.58824 0.91119 0.0
C1362 C 0.52752 0.57715 0.92437 0.0
C1363 C 0.5113 0.58796 0.93414 0.0
C1364 C 0.52948 0.5545 0.92884 0.0
C1365 C 0.56047 0.57762 0.90096 0.0
C1366 C 0.528 0.54014 0.91428 0.0
C1367 C 0.53178 0.51903 0.91817 0.0
C1368 C 0.5371 0.51191 0.93672 0.0
C1369 C 0.53761 0.52623 0.9515 0.0
C1370 C 0.53378 0.54729 0.9476 0.0
H1371 H 0.57268 0.58897 0.89471 0.0
H1372 H 0.56766 0.56645 0.91113 0.0
H1373 H 0.55495 0.5688 0.88886 0.0
H1374 H 0.52436 0.54535 0.89977 0.0
H1375 H 0.53118 0.50843 0.90648 0.0
H1376 H 0.52364 0.8295 0.91629 0.0
H1377 H 0.52069 0.86586 0.92552 0.0
H1378 H 0.50003 0.88307 0.86902 0.0
H1379 H 0.50329 0.84676 0.85973 0.0
H1380 H 0.52992 0.91104 0.88115 0.0
H1381 H 0.46542 0.89517 0.93882 0.0
H1382 H 0.48838 0.87995 0.94145 0.0
H1383 H 0.47321 0.87652 0.92101 0.0
C1384 C 0.51859 0.84113 0.90587 0.0
C1385 C 0.51378 0.83547 0.8873 0.0
C1386 C 0.51678 0.86184 0.91116 0.0
C1387 C 0.50994 0.87721 0.89804 0.0
C1388 C 0.50535 0.87153 0.87939 0.0
H1389 H 0.4556 0.99604 0.91841 0.0
H1390 H 0.46462 0.9606 0.91071 0.0
C1391 C 0.50715 0.85083 0.87411 0.0
C1392 C 0.50723 0.89915 0.90376 0.0
H1393 H 0.47893 0.92953 0.93526 0.0
C1394 C 0.51885 0.9151 0.89304 0.0
C1395 C 0.49264 0.90447 0.91917 0.0
C1396 C 0.47904 0.88819 0.93071 0.0
C1397 C 0.51621 0.93617 0.89724 0.0
C1398 C 0.5017 0.94146 0.91272 0.0
C1399 C 0.4902 0.92548 0.92351 0.0
C1400 C 0.49693 0.96348 0.91704 0.0
C1401 C 0.52845 0.95265 0.88467 0.0
C1402 C 0.51211 0.9771 0.9232 0.0
C1403 C 0.50699 0.99763 0.92765 0.0
C1404 C 0.48656 0.00486 0.92607 0.0
C1405 C 0.47151 0.99113 0.91981 0.0
C1406 C 0.47661 0.97075 0.91541 0.0
H1407 H 0.53576 0.94636 0.87106 0.0
H1408 H 0.51823 0.96573 0.88075 0.0
H1409 H 0.54106 0.95894 0.89292 0.0
H1410 H 0.52783 0.97177 0.92487 0.0
H1411 H 0.51893 0.00771 0.93253 0.0
H1412 H 0.52262 0.32364 0.67815 0.0
H1413 H 0.52777 0.36114 0.67024 0.0
H1414 H 0.5003 0.3542 0.61582 0.0
H1415 H 0.49544 0.31669 0.62361 0.0
H1416 H 0.55105 0.3807 0.63653 0.0
H1417 H 0.46763 0.40305 0.64105 0.0
H1418 H 0.47641 0.37897 0.65199 0.0
H1419 H 0.474 0.38143 0.6262 0.0
C1420 C 0.51761 0.3302 0.66455 0.0
C1421 C 0.50829 0.31736 0.65164 0.0
C1422 C 0.52055 0.3516 0.66004 0.0
C1423 C 0.51411 0.36064 0.64257 0.0
C1424 C 0.50499 0.34774 0.62957 0.0
H1425 H 0.54881 0.47566 0.57803 0.0
H1426 H 0.54063 0.43996 0.58999 0.0
C1427 C 0.5022 0.32631 0.63402 0.0
C1428 C 0.51762 0.38336 0.63758 0.0
H1429 H 0.49234 0.42879 0.62769 0.0
C1430 C 0.5382 0.39122 0.63473 0.0
C1431 C 0.50088 0.3972 0.63537 0.0
C1432 C 0.47845 0.38986 0.63896 0.0
C1433 C 0.54247 0.41229 0.62915 0.0
C1434 C 0.52576 0.42599 0.62635 0.0
C1435 C 0.50516 0.4183 0.62975 0.0
C1436 C 0.52957 0.44805 0.61905 0.0
C1437 C 0.56488 0.41982 0.62617 0.0
C1438 C 0.52565 0.46469 0.63128 0.0
C1439 C 0.53043 0.48532 0.62449 0.0
C1440 C 0.53902 0.48974 0.60525 0.0
C1441 C 0.54224 0.473 0.59293 0.0
C1442 C 0.53764 0.45248 0.59975 0.0
H1443 H 0.57575 0.40851 0.63244 0.0
H1444 H 0.56939 0.42213 0.61031 0.0
H1445 H 0.56677 0.43501 0.63288 0.0
H1446 H 0.51936 0.46167 0.64622 0.0
H1447 H 0.52776 0.49775 0.63441 0.0
H1448 H 0.46823 0.16065 0.64649 0.0
H1449 H 0.46609 0.13 0.62711 0.0
H1450 H 0.51589 0.15506 0.58668 0.0
H1451 H 0.51827 0.18574 0.60616 0.0
H1452 H 0.45778 0.12568 0.5893 0.0
H1453 H 0.53758 0.09791 0.60113 0.0
H1454 H 0.52538 0.11829 0.61487 0.0
H1455 H 0.53664 0.12383 0.59041 0.0
C1456 C 0.47862 0.15974 0.63338 0.0
C1457 C 0.49349 0.1756 0.62791 0.0
C1458 C 0.47742 0.14218 0.62234 0.0
C1459 C 0.49104 0.14006 0.60559 0.0
C1460 C 0.50555 0.15611 0.59979 0.0
H1461 H 0.46793 0.03723 0.52909 0.0
H1462 H 0.47453 0.07235 0.53983 0.0
C1463 C 0.50687 0.17365 0.61092 0.0
C1464 C 0.49002 0.12091 0.59446 0.0
H1465 H 0.51784 0.0783 0.58094 0.0
C1466 C 0.47095 0.11537 0.58733 0.0
C1467 C 0.50719 0.10741 0.59205 0.0
C1468 C 0.52781 0.112 0.60015 0.0
C1469 C 0.4684 0.09651 0.57827 0.0
C1470 C 0.48556 0.083 0.57589 0.0
C1471 C 0.50477 0.08877 0.5826 0.0
C1472 C 0.48332 0.06192 0.56833 0.0
C1473 C 0.4471 0.0908 0.57217 0.0
C1474 C 0.48695 0.0444 0.58041 0.0
C1475 C 0.48344 0.0244 0.57426 0.0
C1476 C 0.4762 0.02143 0.55584 0.0
C1477 C 0.47338 0.03898 0.5434 0.0
C1478 C 0.47699 0.05906 0.54957 0.0
H1479 H 0.43467 0.10074 0.57877 0.0
H1480 H 0.44716 0.09286 0.55609 0.0
H1481 H 0.44308 0.07428 0.57639 0.0
H1482 H 0.49191 0.0462 0.5949 0.0
H1483 H 0.48588 0.01128 0.58422 0.0
H1484 H 0.89613 0.53597 0.65994 0.0
H1485 H 0.91185 0.53857 0.62621 0.0
H1486 H 0.87376 0.48671 0.61211 0.0
H1487 H 0.85791 0.48403 0.64568 0.0
H1488 H 0.93177 0.50102 0.60262 0.0
H1489 H 0.86338 0.54053 0.57336 0.0
H1490 H 0.86924 0.54217 0.59845 0.0
H1491 H 0.85852 0.51855 0.59039 0.0
C1492 C 0.8911 0.52512 0.64966 0.0
C1493 C 0.87575 0.50979 0.65553 0.0
C1494 C 0.90018 0.52656 0.63045 0.0
C1495 C 0.89391 0.51286 0.61671 0.0
C1496 C 0.8788 0.49742 0.62252 0.0
H1497 H 0.91458 0.51045 0.4908 0.0
H1498 H 0.90268 0.5039 0.52517 0.0
C1499 C 0.86984 0.49586 0.64174 0.0
C1500 C 0.90273 0.51499 0.59613 0.0
H1501 H 0.89094 0.53203 0.5507 0.0
C1502 C 0.92293 0.50784 0.59122 0.0
C1503 C 0.89105 0.52373 0.58135 0.0
C1504 C 0.86936 0.53182 0.58601 0.0
C1505 C 0.93168 0.50894 0.57179 0.0
C1506 C 0.92009 0.51794 0.55696 0.0
C1507 C 0.89985 0.5251 0.56199 0.0
C1508 C 0.92854 0.52031 0.53616 0.0
C1509 C 0.95302 0.49995 0.56731 0.0
C1510 C 0.9472 0.53151 0.53079 0.0
C1511 C 0.95419 0.53507 0.51111 0.0
C1512 C 0.94248 0.5278 0.49635 0.0
C1513 C 0.92401 0.51626 0.50177 0.0
C1514 C 0.91714 0.51255 0.52144 0.0
H1515 H 0.95682 0.48816 0.57875 0.0
H1516 H 0.95413 0.49258 0.55303 0.0
H1517 H 0.96497 0.5126 0.56676 0.0
H1518 H 0.95604 0.53813 0.54179 0.0
H1519 H 0.96836 0.54421 0.50748 0.0
H1520 H 0.10842 0.99346 0.68333 0.0
H1521 H 0.09035 0.99029 0.65358 0.0
H1522 H 0.13639 0.03102 0.62202 0.0
H1523 H 0.15475 0.03402 0.65149 0.0
H1524 H 0.07676 0.0242 0.62192 0.0
H1525 H 0.13953 0.96892 0.6 0.0
H1526 H 0.13313 0.97487 0.6251 0.0
H1527 H 0.14748 0.99344 0.60881 0.0
C1528 C 0.11448 1.00202 0.67012 0.0
C1529 C 0.13312 0.0138 0.66968 0.0
C1530 C 0.10406 1.00032 0.65323 0.0
C1531 C 0.11218 0.01035 0.63572 0.0
C1532 C 0.12994 0.02323 0.6355 0.0
H1533 H 0.09788 0.98974 0.51519 0.0
H1534 H 0.10798 1.00233 0.54603 0.0
C1535 C 0.14034 0.02498 0.65236 0.0
C1536 C 0.10385 0.00517 0.61723 0.0
H1537 H 0.11483 0.97656 0.57746 0.0
C1538 C 0.08499 0.0138 0.61214 0.0
C1539 C 0.1147 0.99153 0.60469 0.0
C1540 C 0.13478 0.98149 0.60987 0.0
C1541 C 0.07687 0.0094 0.59442 0.0
C1542 C 0.08779 0.99579 0.58183 0.0
C1543 C 0.10656 0.98708 0.58711 0.0
C1544 C 0.08028 0.99023 0.56301 0.0
C1545 C 0.05697 0.01968 0.58914 0.0
C1546 C 0.06127 0.97941 0.56236 0.0
C1547 C 0.05546 0.9722 0.54473 0.0
C1548 C 0.06873 0.97547 0.52759 0.0
C1549 C 0.08751 0.98674 0.52824 0.0
C1550 C 0.09322 0.99405 0.5458 0.0
H1551 H 0.05354 0.03357 0.59775 0.0
H1552 H 0.05787 0.02446 0.57339 0.0
H1553 H 0.04373 0.00846 0.59222 0.0
H1554 H 0.0513 0.97589 0.57556 0.0
H1555 H 0.04098 0.9634 0.54464 0.0
H1556 H 0.8408 0.51018 0.80687 0.0
H1557 H 0.85609 0.50942 0.83846 0.0
H1558 H 0.91589 0.49408 0.81007 0.0
H1559 H 0.90059 0.49509 0.77845 0.0
H1560 H 0.87543 0.4758 0.85678 0.0
H1561 H 0.93025 0.54325 0.84273 0.0
H1562 H 0.90906 0.53859 0.8277 0.0
H1563 H 0.93258 0.52382 0.82485 0.0
C1564 C 0.85723 0.50674 0.80747 0.0
C1565 C 0.86958 0.50261 0.7904 0.0
C1566 C 0.86594 0.5063 0.82544 0.0
C1567 C 0.8872 0.50194 0.82661 0.0
C1568 C 0.89956 0.49784 0.80949 0.0
H1569 H 0.96411 0.48754 0.92536 0.0
H1570 H 0.9515 0.49069 0.8927 0.0
C1571 C 0.89082 0.49826 0.7915 0.0
C1572 C 0.89616 0.50096 0.84587 0.0
H1573 H 0.93256 0.52329 0.87227 0.0
C1574 C 0.88788 0.48622 0.86019 0.0
C1575 C 0.9125 0.51449 0.85026 0.0
C1576 C 0.92155 0.53107 0.83566 0.0
C1577 C 0.89557 0.48451 0.8787 0.0
C1578 C 0.9117 0.49823 0.88321 0.0
C1579 C 0.92016 0.51283 0.86883 0.0
C1580 C 0.91974 0.49775 0.90288 0.0
C1581 C 0.88657 0.46776 0.89316 0.0
C1582 C 0.90627 0.50135 0.9194 0.0
C1583 C 0.91342 0.4996 0.93803 0.0
C1584 C 0.93428 0.49437 0.94058 0.0
C1585 C 0.94799 0.49169 0.92393 0.0
C1586 C 0.94079 0.49339 0.90526 0.0
H1587 H 0.87875 0.45516 0.88584 0.0
H1588 H 0.8989 0.4608 0.9017 0.0
H1589 H 0.87473 0.47467 0.90346 0.0
H1590 H 0.8901 0.50528 0.9179 0.0
H1591 H 0.90254 0.50219 0.95049 0.0
H1592 H 0.1327 0.02456 0.79352 0.0
H1593 H 0.12269 0.02743 0.8285 0.0
H1594 H 0.1822 1.00252 0.842 0.0
H1595 H 0.19224 0.99992 0.80701 0.0
H1596 H 0.11958 0.99643 0.8588 0.0
H1597 H 0.17928 0.05631 0.87153 0.0
H1598 H 0.17282 0.05025 0.8474 0.0
H1599 H 0.18956 0.03346 0.86051 0.0
C1600 C 0.14359 0.01979 0.80404 0.0
C1601 C 0.16327 0.01222 0.79773 0.0
C1602 C 0.13789 0.02138 0.82396 0.0
C1603 C 0.15182 0.01551 0.83789 0.0
C1604 C 0.17136 0.00755 0.83154 0.0
H1605 H 0.14591 0.01851 0.96476 0.0
H1606 H 0.15598 0.01322 0.93035 0.0
C1607 C 0.17704 0.00594 0.81162 0.0
C1608 C 0.14579 0.01755 0.85904 0.0
H1609 H 0.15928 0.04183 0.89937 0.0
C1610 C 0.12822 0.0064 0.86766 0.0
C1611 C 0.15711 0.0305 0.87063 0.0
C1612 C 0.17564 0.04347 0.86207 0.0
C1613 C 0.12183 0.00763 0.88759 0.0
C1614 C 0.13305 0.02071 0.89916 0.0
C1615 C 0.15068 0.03177 0.89054 0.0
C1616 C 0.12661 0.02341 0.92016 0.0
C1617 C 0.10337 0.99454 0.89613 0.0
C1618 C 0.10679 0.03106 0.92595 0.0
C1619 C 0.10098 0.03412 0.94562 0.0
C1620 C 0.11494 0.02979 0.95999 0.0
C1621 C 0.13481 0.02218 0.95412 0.0
C1622 C 0.14058 0.01907 0.93444 0.0
H1623 H 0.10042 0.98118 0.88705 0.0
H1624 H 0.10578 0.98849 0.91113 0.0
H1625 H 0.08919 0.00424 0.89681 0.0
H1626 H 0.09591 0.03505 0.9152 0.0
H1627 H 0.08573 0.04041 0.94951 0.0
H1628 H 0.658 0.84717 0.53061 0.0
H1629 H 0.62588 0.8668 0.52897 0.0
H1630 H 0.6546 0.90524 0.48104 0.0
H1631 H 0.68688 0.88531 0.48226 0.0
H1632 H 0.63144 0.92767 0.5106 0.0
H1633 H 0.58471 0.86247 0.48598 0.0
H1634 H 0.59821 0.85577 0.50718 0.0
H1635 H 0.61293 0.86258 0.48441 0.0
C1636 C 0.65753 0.85966 0.51956 0.0
C1637 C 0.67507 0.86439 0.50638 0.0
C1638 C 0.63909 0.8709 0.51866 0.0
C1639 C 0.63762 0.88721 0.50461 0.0
C1640 C 0.65529 0.89259 0.4919 0.0
H1641 H 0.51252 0.9412 0.49129 0.0
H1642 H 0.54774 0.9281 0.48209 0.0
C1643 C 0.6738 0.88125 0.49272 0.0
C1644 C 0.61764 0.89864 0.50352 0.0
H1645 H 0.56549 0.89116 0.49873 0.0
C1646 C 0.61709 0.91977 0.50771 0.0
C1647 C 0.5989 0.88848 0.49944 0.0
C1648 C 0.59867 0.86612 0.4938 0.0
C1649 C 0.59814 0.93062 0.50907 0.0
C1650 C 0.57921 0.92005 0.50629 0.0
C1651 C 0.57994 0.89927 0.50096 0.0
C1652 C 0.55842 0.92949 0.51101 0.0
C1653 C 0.59849 0.95323 0.51389 0.0
C1654 C 0.5527 0.93459 0.53024 0.0
C1655 C 0.53274 0.94183 0.53549 0.0
C1656 C 0.51783 0.94424 0.52167 0.0
C1657 C 0.52365 0.93965 0.50224 0.0
C1658 C 0.54374 0.93211 0.497 0.0
H1659 H 0.61402 0.96061 0.50961 0.0
H1660 H 0.58639 0.96205 0.50649 0.0
H1661 H 0.59525 0.9544 0.52986 0.0
H1662 H 0.56354 0.93238 0.5414 0.0
H1663 H 0.52887 0.94523 0.55059 0.0
H1664 H 0.71822 0.19153 0.98611 0.0
H1665 H 0.68382 0.1761 0.98186 0.0
H1666 H 0.71297 0.11786 0.96847 0.0
H1667 H 0.7474 0.1333 0.97298 0.0
H1668 H 0.67047 0.15814 0.94828 0.0
H1669 H 0.66696 0.1013 0.01187 0.0
H1670 H 0.68532 0.12291 0.00906 0.0
H1671 H 0.68993 0.10021 0.99526 0.0
C1672 C 0.71716 0.17544 0.98226 0.0
C1673 C 0.73521 0.16351 0.97977 0.0
C1674 C 0.69762 0.16666 0.97984 0.0
C1675 C 0.69587 0.14579 0.97507 0.0
C1676 C 0.71398 0.13389 0.97246 0.0
H1677 H 0.58692 0.07011 0.95461 0.0
H1678 H 0.62245 0.08258 0.9586 0.0
C1679 C 0.73356 0.14269 0.97488 0.0
C1680 C 0.67506 0.13672 0.97246 0.0
H1681 H 0.63927 0.09995 0.99129 0.0
C1682 C 0.66363 0.14542 0.95767 0.0
C1683 C 0.66627 0.12009 0.98472 0.0
C1684 C 0.67763 0.11064 1.00124 0.0
C1685 C 0.6436 0.13789 0.95475 0.0
C1686 C 0.63465 0.12149 0.9672 0.0
C1687 C 0.6462 0.11256 0.98181 0.0
C1688 C 0.61312 0.11373 0.96551 0.0
C1689 C 0.63227 0.14742 0.93824 0.0
C1690 C 0.59613 0.127 0.96854 0.0
C1691 C 0.57586 0.11993 0.96636 0.0
C1692 C 0.57218 0.0994 0.96121 0.0
C1693 C 0.58921 0.08596 0.95872 0.0
C1694 C 0.60951 0.09307 0.9609 0.0
H1695 H 0.64319 0.15578 0.92711 0.0
H1696 H 0.62356 0.13536 0.93104 0.0
H1697 H 0.62086 0.15882 0.94411 0.0
H1698 H 0.59856 0.14286 0.97255 0.0
H1699 H 0.56304 0.13053 0.96877 0.0
H1700 H 0.34462 0.33577 0.00752 0.0
H1701 H 0.38084 0.3489 0.00539 0.0
H1702 H 0.36223 0.40469 0.97455 0.0
H1703 H 0.32592 0.39192 0.97746 0.0
H1704 H 0.40758 0.35794 0.97479 0.0
H1705 H 0.39492 0.42947 0.01517 0.0
H1706 H 0.37506 0.40941 0.01502 0.0
H1707 H 0.37887 0.4286 0.9951 0.0
C1708 C 0.34836 0.35084 1.00031 0.0
C1709 C 0.33264 0.36266 0.99229 0.0
C1710 C 0.36901 0.35835 0.99911 0.0
C1711 C 0.37433 0.37795 0.99004 0.0
C1712 C 0.35855 0.38974 0.98199 0.0
H1713 H 0.49316 0.42005 0.93661 0.0
H1714 H 0.45836 0.40588 0.94581 0.0
C1715 C 0.33786 0.38228 0.98331 0.0
C1716 C 0.39647 0.38564 0.98831 0.0
H1717 H 0.42766 0.42752 0.99587 0.0
C1718 C 0.41196 0.37307 0.9796 0.0
C1719 C 0.40242 0.40521 0.99494 0.0
C1720 C 0.38697 0.41884 0.00577 0.0
C1721 C 0.43292 0.37984 0.97658 0.0
C1722 C 0.43859 0.39998 0.98198 0.0
C1723 C 0.42332 0.4122 0.99148 0.0
C1724 C 0.45993 0.40902 0.97677 0.0
C1725 C 0.44879 0.36527 0.96761 0.0
C1726 C 0.47232 0.4163 0.99104 0.0
C1727 C 0.49243 0.42471 0.98577 0.0
C1728 C 0.50042 0.42606 0.96612 0.0
C1729 C 0.48773 0.41907 0.95192 0.0
C1730 C 0.46777 0.4108 0.95717 0.0
H1731 H 0.44373 0.34875 0.9704 0.0
H1732 H 0.45053 0.36844 0.95159 0.0
H1733 H 0.4643 0.36741 0.97337 0.0
H1734 H 0.46653 0.41528 0.00626 0.0
H1735 H 0.50171 0.43004 0.99705 0.0
H1736 H 0.89149 0.17604 0.97875 0.0
H1737 H 0.92427 0.15845 0.9839 0.0
H1738 H 0.89322 0.12074 0.03123 0.0
H1739 H 0.8602 0.13781 0.02581 0.0
H1740 H 0.94569 0.15769 0.01683 0.0
H1741 H 0.92454 0.07735 0.99931 0.0
H1742 H 0.90923 0.0996 0.99279 0.0
H1743 H 0.90657 0.08825 0.01724 0.0
C1744 C 0.8915 0.16374 0.99003 0.0
C1745 C 0.8731 0.1583 1.0018 0.0
C1746 C 0.91032 0.15378 0.99303 0.0
C1747 C 0.91119 0.13805 0.00776 0.0
C1748 C 0.89288 0.13253 0.01952 0.0
H1749 H 0.01572 0.09584 0.06801 0.0
H1750 H 0.98389 0.11089 0.05689 0.0
C1751 C 0.87404 0.14251 0.01655 0.0
C1752 C 0.93148 0.12825 0.0115 0.0
H1753 H 0.95601 0.08149 0.01516 0.0
C1754 C 0.94797 0.14105 0.0163 0.0
C1755 C 0.9346 0.10656 0.01057 0.0
C1756 C 0.91788 0.09214 0.00451 0.0
C1757 C 0.96721 0.1327 0.02083 0.0
C1758 C 0.97001 0.11092 0.02078 0.0
C1759 C 0.9538 0.09817 0.01533 0.0
C1760 C 0.98927 0.10114 0.02735 0.0
C1761 C 0.98441 0.14728 0.02568 0.0
C1762 C 1.0027 0.09014 0.01454 0.0
C1763 C 0.02109 0.08142 0.02087 0.0
C1764 C 0.02621 0.0834 0.04018 0.0
C1765 C 0.01242 0.09408 0.053 0.0
C1766 C 0.99419 0.1028 0.04666 0.0
H1767 H 0.98194 0.16345 0.02003 0.0
H1768 H 0.98466 0.14749 0.04176 0.0
H1769 H 0.9999 0.14206 0.01959 0.0
H1770 H 0.99912 0.08856 0.99958 0.0
H1771 H 0.03129 0.07324 0.01064 0.0
H1772 H 0.00905 0.18564 0.30005 0.0
H1773 H 0.01395 0.16279 0.27246 0.0
H1774 H 0.04159 0.2141 0.23637 0.0
H1775 H 0.03653 0.23695 0.26389 0.0
H1776 H 0.99916 0.16875 0.23289 0.0
H1777 H 0.08558 0.16638 0.23353 0.0
H1778 H 0.0688 0.17406 0.25417 0.0
H1779 H 0.07445 0.19189 0.23352 0.0
C1780 C 0.01603 0.19198 0.28615 0.0
C1781 C 0.02243 0.21297 0.28397 0.0
C1782 C 0.01883 0.17898 0.27046 0.0
C1783 C 0.0283 0.18672 0.25245 0.0
C1784 C 0.03446 0.20777 0.25021 0.0
H1785 H 0.0694 0.13806 0.14175 0.0
H1786 H 0.06115 0.1587 0.17009 0.0
C1787 C 0.03153 0.2208 0.26585 0.0
C1788 C 0.032 0.17278 0.23601 0.0
H1789 H 0.07082 0.15127 0.20707 0.0
C1790 C 0.0148 0.16479 0.22727 0.0
C1791 C 0.05242 0.16767 0.22876 0.0
C1792 C 0.07142 0.17527 0.23803 0.0
C1793 C 0.01751 0.15234 0.21104 0.0
C1794 C 0.03798 0.14735 0.20366 0.0
C1795 C 0.05514 0.15511 0.21267 0.0
C1796 C 0.04212 0.13474 0.18624 0.0
C1797 C 0.99845 0.14528 0.20155 0.0
C1798 C 0.03418 0.11431 0.18581 0.0
C1799 C 0.03884 0.10245 0.16951 0.0
C1800 C 0.0518 0.11067 0.15347 0.0
C1801 C 0.05963 0.13114 0.15396 0.0
C1802 C 0.05485 0.143 0.17014 0.0
H1803 H 0.98463 0.15485 0.20559 0.0
H1804 H 1.00134 0.14602 0.18542 0.0
H1805 H 0.99459 0.12891 0.20645 0.0
H1806 H 0.02472 0.10739 0.19822 0.0
H1807 H 0.03275 0.08667 0.16967 0.0
H1808 H 0.99102 0.34725 0.28542 0.0
H1809 H 0.99036 0.37007 0.25613 0.0
H1810 H 0.04774 0.34359 0.23245 0.0
H1811 H 0.04792 0.31985 0.26113 0.0
H1812 H 0.01704 0.39968 0.23803 0.0
H1813 H 0.00891 0.33319 0.19051 0.0
H1814 H 0.00642 0.3301 0.21674 0.0
H1815 H 0.03185 0.33234 0.20375 0.0
C1816 C 0.00345 0.34616 0.27394 0.0
C1817 C 0.01933 0.33143 0.27553 0.0
C1818 C 1.00315 0.35937 0.25729 0.0
C1819 C 0.01875 0.3582 0.24194 0.0
C1820 C 0.03528 0.3444 0.24394 0.0
H1821 H 0.02803 0.4183 0.12517 0.0
H1822 H 0.037 0.40155 0.15605 0.0
C1823 C 0.03549 0.33103 0.2605 0.0
C1824 C 0.01713 0.37074 0.22355 0.0
H1825 H 0.01189 0.36667 0.17495 0.0
C1826 C 0.01598 0.39248 0.22422 0.0
C1827 C 0.01564 0.36128 0.20556 0.0
C1828 C 0.01556 0.33795 0.20405 0.0
C1829 C 0.01334 0.40501 0.20737 0.0
C1830 C 0.01175 0.3955 0.1895 0.0
C1831 C 0.01329 0.37385 0.18872 0.0
C1832 C 0.00721 0.40752 0.17157 0.0
C1833 C 0.01222 0.42828 0.20877 0.0
C1834 C 0.98753 0.41643 0.17019 0.0
C1835 C 0.98233 0.42586 0.1526 0.0
C1836 C 0.99677 0.42658 0.13611 0.0
C1837 C 0.01669 0.41815 0.1377 0.0
C1838 C 0.02181 0.40854 0.15527 0.0
H1839 H 0.01826 0.43349 0.22242 0.0
H1840 H 0.02124 0.43635 0.19611 0.0
H1841 H 0.99569 0.43308 0.20858 0.0
H1842 H 0.97597 0.41551 0.18256 0.0
H1843 H 0.96693 0.43236 0.15181 0.0
H1844 H 0.99544 0.77317 0.24148 0.0
H1845 H 0.99836 0.80118 0.26415 0.0
H1846 H 0.01981 0.84359 0.21607 0.0
H1847 H 0.01677 0.8155 0.19338 0.0
H1848 H 0.03761 0.82352 0.26722 0.0
H1849 H 0.97223 0.87488 0.24835 0.0
H1850 H 0.97288 0.84769 0.24291 0.0
H1851 H 0.98954 0.86616 0.22862 0.0
C1852 C 1.00053 0.78857 0.23586 0.0
C1853 C 0.00585 0.79247 0.21592 0.0
C1854 C 1.00218 0.80447 0.24869 0.0
C1855 C 0.00908 0.82439 0.24166 0.0
C1856 C 0.01414 0.82836 0.22164 0.0
H1857 H 0.05516 0.9127 0.3208 0.0
H1858 H 0.05028 0.89509 0.29072 0.0
C1859 C 0.01252 0.81242 0.2088 0.0
C1860 C 0.0124 0.84049 0.25557 0.0
H1861 H 0.99301 0.88575 0.27287 0.0
C1862 C 0.02801 0.83723 0.26839 0.0
C1863 C 0.99974 0.85824 0.25692 0.0
C1864 C 0.98254 0.86203 0.24358 0.0
C1865 C 0.03105 0.85108 0.28296 0.0
C1866 C 0.01828 0.86876 0.28448 0.0
C1867 C 1.00287 0.87225 0.27143 0.0
C1868 C 0.01964 0.88263 0.3007 0.0
C1869 C 0.04733 0.84625 0.2971 0.0
C1870 C 0.00359 0.88212 0.31576 0.0
C1871 C 0.00634 0.89208 0.33291 0.0
C1872 C 0.02518 0.90266 0.33519 0.0
C1873 C 0.04064 0.90432 0.31952 0.0
C1874 C 0.03785 0.89439 0.30235 0.0
H1875 H 0.05326 0.83017 0.29594 0.0
H1876 H 0.06076 0.85725 0.294 0.0
H1877 H 0.04084 0.84817 0.31232 0.0
H1878 H 0.98946 0.87303 0.31468 0.0
H1879 H 0.99422 0.89046 0.34478 0.0
H1880 H 0.96448 0.68941 0.24694 0.0
H1881 H 0.9601 0.66779 0.27715 0.0
H1882 H 0.01116 0.62959 0.25663 0.0
H1883 H 0.01523 0.65074 0.22602 0.0
H1884 H 0.97747 0.60631 0.27443 0.0
H1885 H 0.99894 0.66972 0.32111 0.0
H1886 H 0.97785 0.67607 0.3064 0.0
H1887 H 0.00345 0.67167 0.29489 0.0
C1888 C 0.97462 0.67625 0.24867 0.0
C1889 C 0.99029 0.67194 0.23397 0.0
C1890 C 0.97225 0.66403 0.26611 0.0
C1891 C 0.98556 0.64728 0.26937 0.0
C1892 C 1.00082 0.64254 0.25455 0.0
H1893 H 1.00111 0.58692 0.38349 0.0
H1894 H 0.00647 0.60533 0.35152 0.0
C1895 C 1.00321 0.65476 0.23708 0.0
C1896 C 0.9836 0.63479 0.28825 0.0
H1897 H 0.98519 0.63858 0.33744 0.0
C1898 C 0.97922 0.61335 0.2882 0.0
C1899 C 0.98621 0.64388 0.30624 0.0
C1900 C 0.99208 0.66655 0.30724 0.0
C1901 C 0.97692 0.60088 0.30563 0.0
C1902 C 0.97876 0.61013 0.32368 0.0
C1903 C 0.98359 0.63148 0.32367 0.0
C1904 C 0.97573 0.59802 0.34274 0.0
C1905 C 0.97287 0.57785 0.30452 0.0
C1906 C 0.95665 0.58777 0.34856 0.0
C1907 C 0.95354 0.57717 0.36683 0.0
C1908 C 0.96942 0.57668 0.37979 0.0
C1909 C 0.98856 0.58688 0.37389 0.0
C1910 C 0.99165 0.59747 0.3556 0.0
H1911 H 0.97775 0.57235 0.28983 0.0
H1912 H 0.98124 0.56878 0.3155 0.0
H1913 H 0.95588 0.57457 0.3075 0.0
H1914 H 0.94395 0.58833 0.33913 0.0
H1915 H 0.93855 0.56964 0.37091 0.0
H1916 H 0.28988 0.00626 0.16252 0.0
H1917 H 0.2651 0.0104 0.13715 0.0
H1918 H 0.21577 0.02217 0.18132 0.0
H1919 H 0.24047 0.018 0.20659 0.0
H1920 H 0.22481 0.98912 0.13332 0.0
H1921 H 0.21769 0.07398 0.14236 0.0
H1922 H 0.23891 0.05907 0.15125 0.0
H1923 H 0.21375 0.05848 0.16477 0.0
C1924 C 0.27368 0.00957 0.16671 0.0
C1925 C 0.26697 0.01196 0.18637 0.0
C1926 C 0.25959 0.01191 0.15228 0.0
C1927 C 0.23869 0.01686 0.15735 0.0
C1928 C 0.2319 0.01864 0.17709 0.0
H1929 H 0.12265 0.04185 0.11509 0.0
H1930 H 0.15373 0.03396 0.13171 0.0
C1931 C 0.24593 0.01622 0.19148 0.0
C1932 C 0.22393 0.02076 0.14214 0.0
H1933 H 0.19187 0.05793 0.12475 0.0
C1934 C 0.21781 0.00422 0.13116 0.0
C1935 C 0.21503 0.04053 0.13924 0.0
C1936 C 0.22179 0.05911 0.14987 0.0
C1937 C 0.202 0.00668 0.11825 0.0
C1938 C 0.19234 0.0262 0.11617 0.0
C1939 C 0.19926 0.04295 0.12641 0.0
C1940 C 0.1734 0.02914 0.1054 0.0
C1941 C 0.19493 0.9882 0.1077 0.0
C1942 C 0.17401 0.02874 0.08497 0.0
C1943 C 0.15603 0.03326 0.07526 0.0
C1944 C 0.13732 0.03839 0.0859 0.0
C1945 C 0.13679 0.03816 0.10637 0.0
C1946 C 0.15457 0.03362 0.11595 0.0
H1947 H 0.20253 0.97361 0.11244 0.0
H1948 H 0.17772 0.98607 0.11019 0.0
H1949 H 0.19878 0.99102 0.09179 0.0
H1950 H 0.18847 0.02551 0.07654 0.0
H1951 H 0.15695 0.03338 0.0595 0.0
H1952 H 0.77249 0.46185 0.17898 0.0
H1953 H 0.80102 0.46029 0.1534 0.0
H1954 H 0.77496 0.51179 0.12167 0.0
H1955 H 0.74645 0.51359 0.14736 0.0
H1956 H 0.80204 0.45394 0.11455 0.0
H1957 H 0.83398 0.53273 0.12586 0.0
H1958 H 0.81431 0.52004 0.14267 0.0
H1959 H 0.8072 0.53216 0.12016 0.0
C1960 C 0.77267 0.4727 0.16646 0.0
C1961 C 0.75724 0.48794 0.1653 0.0
C1962 C 0.78906 0.47185 0.15186 0.0
C1963 C 0.79041 0.48619 0.13576 0.0
C1964 C 0.77461 0.50093 0.13419 0.0
H1965 H 0.89431 0.49517 0.04227 0.0
H1966 H 0.85933 0.49914 0.05912 0.0
C1967 C 0.75827 0.50189 0.14886 0.0
C1968 C 0.80856 0.4857 0.1209 0.0
H1969 H 0.85135 0.51381 0.10115 0.0
C1970 C 0.81269 0.46711 0.11151 0.0
C1971 C 0.8225 0.50291 0.11685 0.0
C1972 C 0.81945 0.52304 0.12701 0.0
C1973 C 0.83059 0.46509 0.09864 0.0
C1974 C 0.84478 0.48205 0.09508 0.0
C1975 C 0.84031 0.5009 0.10381 0.0
C1976 C 0.86553 0.47962 0.08438 0.0
C1977 C 0.8345 0.44466 0.08926 0.0
C1978 C 0.88055 0.46755 0.09309 0.0
C1979 C 0.90041 0.46544 0.08369 0.0
C1980 C 0.90577 0.47531 0.06525 0.0
C1981 C 0.89065 0.48734 0.05642 0.0
C1982 C 0.87071 0.48964 0.06602 0.0
H1983 H 0.82004 0.43493 0.08974 0.0
H1984 H 0.84084 0.44726 0.07385 0.0
H1985 H 0.84624 0.43587 0.09717 0.0
H1986 H 0.87694 0.45987 0.10732 0.0
H1987 H 0.91158 0.45599 0.09094 0.0
H1988 H 0.26039 0.01817 0.32304 0.0
H1989 H 0.23249 0.01207 0.34923 0.0
H1990 H 0.20588 0.96423 0.31669 0.0
H1991 H 0.23352 0.97025 0.29053 0.0
H1992 H 0.18947 0.01497 0.34881 0.0
H1993 H 0.21053 0.93429 0.36939 0.0
H1994 H 0.228 0.9516 0.35424 0.0
H1995 H 0.2074 0.93777 0.34382 0.0
C1996 C 0.24855 0.0064 0.32142 0.0
C1997 C 0.24936 0.99457 0.3047 0.0
C1998 C 0.23266 1.00287 0.33646 0.0
C1999 C 0.21732 0.98738 0.33515 0.0
C2000 C 0.21787 0.97585 0.31833 0.0
H2001 H 0.09967 0.94399 0.38012 0.0
H2002 H 0.13329 0.95432 0.36365 0.0
C2003 C 0.23372 0.97933 0.30334 0.0
C2004 C 0.20033 0.98348 0.351 0.0
H2005 H 0.17551 0.94442 0.37966 0.0
C2006 C 0.18666 0.99967 0.35588 0.0
C2007 C 0.19675 0.96356 0.36039 0.0
C2008 C 0.21158 0.94588 0.35686 0.0
C2009 C 0.16878 0.99606 0.36889 0.0
C2010 C 0.16455 0.97583 0.37727 0.0
C2011 C 0.17878 0.95994 0.37319 0.0
C2012 C 0.14413 0.97012 0.38798 0.0
C2013 C 0.15383 0.01354 0.37278 0.0
C2014 C 0.13902 0.97555 0.40729 0.0
C2015 C 0.11959 0.96952 0.41698 0.0
C2016 C 0.10501 0.9581 0.40739 0.0
C2017 C 0.11037 0.95284 0.38803 0.0
C2018 C 0.12966 0.95869 0.37852 0.0
H2019 H 0.15912 0.02832 0.3648 0.0
H2020 H 0.13814 0.00922 0.3684 0.0
H2021 H 0.15218 0.01616 0.38863 0.0
H2022 H 0.15008 0.9843 0.41488 0.0
H2023 H 0.11598 0.9738 0.43187 0.0
H2024 H 0.77004 0.46274 0.27211 0.0
H2025 H 0.79211 0.45926 0.29941 0.0
H2026 H 0.75319 0.50276 0.3309 0.0
H2027 H 0.73004 0.50445 0.30449 0.0
H2028 H 0.81547 0.4854 0.31108 0.0
H2029 H 0.76146 0.46429 0.375 0.0
H2030 H 0.7535 0.46315 0.35056 0.0
H2031 H 0.75169 0.4871 0.36321 0.0
C2032 C 0.76589 0.47092 0.28521 0.0
C2033 C 0.74825 0.48355 0.28648 0.0
C2034 C 0.77853 0.46906 0.30074 0.0
C2035 C 0.77412 0.48037 0.31751 0.0
C2036 C 0.7565 0.49315 0.3186 0.0
H2037 H 0.86458 0.53966 0.377 0.0
H2038 H 0.8392 0.52683 0.3563 0.0
C2039 C 0.74348 0.49442 0.30337 0.0
C2040 C 0.78926 0.48098 0.33264 0.0
H2041 H 0.79244 0.48492 0.38153 0.0
C2042 C 0.81041 0.48474 0.3265 0.0
C2043 C 0.78302 0.4796 0.35287 0.0
C2044 C 0.7612 0.47305 0.36073 0.0
C2045 C 0.8251 0.48864 0.33983 0.0
C2046 C 0.81828 0.48995 0.35977 0.0
C2047 C 0.79753 0.48458 0.36616 0.0
C2048 C 0.83211 0.49838 0.37375 0.0
C2049 C 0.84773 0.4916 0.33229 0.0
C2050 C 0.83539 0.48743 0.3913 0.0
C2051 C 0.84934 0.49526 0.40384 0.0
C2052 C 0.86038 0.51409 0.3989 0.0
C2053 C 0.85629 0.52531 0.38162 0.0
C2054 C 0.84207 0.51773 0.36943 0.0
H2055 H 0.85144 0.48231 0.31931 0.0
H2056 H 0.85072 0.50821 0.3277 0.0
H2057 H 0.85845 0.48702 0.34355 0.0
H2058 H 0.82754 0.47263 0.3951 0.0
H2059 H 0.85166 0.48639 0.41721 0.0
H2060 H 0.19749 0.2758 0.01591 0.0
H2061 H 0.17378 0.24566 0.02273 0.0
H2062 H 0.22634 0.20461 0.01727 0.0
H2063 H 0.2501 0.23491 0.01077 0.0
H2064 H 0.16625 0.21244 1.00059 0.0
H2065 H 0.19741 0.18552 0.07011 0.0
H2066 H 0.20382 0.21078 0.05851 0.0
H2067 H 0.21677 0.18801 0.04979 0.0
C2068 C 0.20388 0.26029 0.0162 0.0
C2069 C 0.2255 0.25751 0.01296 0.0
C2070 C 0.19039 0.24312 0.02006 0.0
C2071 C 0.19829 0.22287 0.02081 0.0
C2072 C 0.21993 0.22009 0.01718 0.0
H2073 H 0.12667 0.10785 0.01676 0.0
H2074 H 0.14909 0.13861 0.00948 0.0
C2075 C 0.23346 0.23732 0.01334 0.0
C2076 C 0.18377 0.20476 0.02524 0.0
H2077 H 0.17251 0.16338 0.05749 0.0
C2078 C 0.1676 0.20172 0.01305 0.0
C2079 C 0.18532 0.19097 0.04167 0.0
C2080 C 0.20163 0.19403 0.0559 0.0
C2081 C 0.15317 0.18512 0.01666 0.0
C2082 C 0.15513 0.17094 0.03273 0.0
C2083 C 0.1711 0.17416 0.04509 0.0
C2084 C 0.14087 0.1526 0.03693 0.0
C2085 C 0.13572 0.18314 0.00342 0.0
C2086 C 0.12896 0.15001 0.05492 0.0
C2087 C 0.11615 0.13234 0.05919 0.0
C2088 C 0.1151 0.11682 0.04558 0.0
C2089 C 0.12695 0.11955 0.02752 0.0
C2090 C 0.13974 0.1372 0.02329 0.0
H2091 H 0.13293 0.19811 0.9954 0.0
H2092 H 0.13999 0.17147 0.9925 0.0
H2093 H 0.12094 0.17787 0.01178 0.0
H2094 H 0.12966 0.16165 0.06571 0.0
H2095 H 0.10735 0.1307 0.07327 0.0
H2096 H 0.20468 0.77996 0.50513 0.0
H2097 H 0.17623 0.80293 0.49721 0.0
H2098 H 0.17103 0.77227 0.44352 0.0
H2099 H 0.19888 0.74863 0.4517 0.0
H2100 H 0.17466 0.83063 0.46643 0.0
H2101 H 0.11055 0.77226 0.46516 0.0
H2102 H 0.13498 0.76622 0.47523 0.0
H2103 H 0.13325 0.76706 0.44929 0.0
C2104 C 0.19727 0.77779 0.4918 0.0
C2105 C 0.20413 0.76228 0.47913 0.0
C2106 C 0.18106 0.79108 0.48721 0.0
C2107 C 0.17119 0.7892 0.46989 0.0
C2108 C 0.17802 0.77381 0.45716 0.0
H2109 H 0.07755 0.8677 0.41689 0.0
H2110 H 0.10292 0.84035 0.42318 0.0
C2111 C 0.19421 0.76046 0.46176 0.0
C2112 C 0.15444 0.80395 0.46486 0.0
H2113 H 0.10328 0.80684 0.45435 0.0
C2114 C 0.15905 0.82538 0.46384 0.0
C2115 C 0.13404 0.79717 0.46135 0.0
C2116 C 0.12779 0.77444 0.46297 0.0
C2117 C 0.14396 0.84015 0.45943 0.0
C2118 C 0.12354 0.8334 0.45616 0.0
C2119 C 0.11894 0.81199 0.45684 0.0
C2120 C 0.10666 0.84854 0.45279 0.0
C2121 C 0.15005 0.86293 0.45816 0.0
C2122 C 0.09981 0.86173 0.46753 0.0
C2123 C 0.08532 0.87724 0.46404 0.0
C2124 C 0.07725 0.87995 0.44569 0.0
C2125 C 0.08339 0.86606 0.43119 0.0
C2126 C 0.09793 0.85045 0.43474 0.0
H2127 H 0.16728 0.86528 0.4563 0.0
H2128 H 0.14303 0.8712 0.44583 0.0
H2129 H 0.14418 0.87013 0.47182 0.0
H2130 H 0.10606 0.86034 0.48167 0.0
H2131 H 0.08092 0.88753 0.47561 0.0
H2132 H 0.84257 0.76145 0.46721 0.0
H2133 H 0.86892 0.73501 0.46048 0.0
H2134 H 0.8426 0.69724 0.51002 0.0
H2135 H 0.81639 0.72383 0.51702 0.0
H2136 H 0.88595 0.69624 0.5062 0.0
H2137 H 0.8534 0.68162 0.43578 0.0
H2138 H 0.86182 0.70802 0.43802 0.0
H2139 H 0.84024 0.69734 0.45378 0.0
C2140 C 0.84248 0.74755 0.47673 0.0
C2141 C 0.82723 0.7446 0.4925 0.0
C2142 C 0.85753 0.73244 0.47286 0.0
C2143 C 0.85747 0.71391 0.48447 0.0
C2144 C 0.84291 0.71137 0.5008 0.0
H2145 H 0.8986 0.59379 0.45348 0.0
H2146 H 0.88085 0.62539 0.46263 0.0
C2147 C 0.82796 0.72659 0.5048 0.0
C2148 C 0.87169 0.69667 0.47898 0.0
H2149 H 0.88338 0.66299 0.44298 0.0
C2150 C 0.88549 0.68901 0.49235 0.0
C2151 C 0.87092 0.6871 0.46096 0.0
C2152 C 0.85568 0.69377 0.44636 0.0
C2153 C 0.89836 0.67192 0.48827 0.0
C2154 C 0.89762 0.66246 0.47021 0.0
C2155 C 0.88407 0.67036 0.45675 0.0
C2156 C 0.90914 0.64314 0.46557 0.0
C2157 C 0.91203 0.66366 0.50358 0.0
C2158 C 0.93111 0.64246 0.46421 0.0
C2159 C 0.94146 0.62416 0.45902 0.0
C2160 C 0.92998 0.60635 0.45493 0.0
C2161 C 0.90802 0.60718 0.45643 0.0
C2162 C 0.89778 0.62529 0.46168 0.0
H2163 H 0.90767 0.66996 0.51806 0.0
H2164 H 0.91103 0.6464 0.50501 0.0
H2165 H 0.92852 0.66819 0.4992 0.0
H2166 H 0.94024 0.65615 0.46682 0.0
H2167 H 0.95838 0.62406 0.45792 0.0
H2168 H 0.35112 0.74235 0.51487 0.0
H2169 H 0.37581 0.77024 0.52134 0.0
H2170 H 0.32877 0.81591 0.51099 0.0
H2171 H 0.30409 0.78797 0.50478 0.0
H2172 H 0.39075 0.80422 0.49722 0.0
H2173 H 0.3473 0.82996 0.56444 0.0
H2174 H 0.34178 0.80552 0.55393 0.0
H2175 H 0.33178 0.82936 0.54393 0.0
C2176 C 0.34619 0.75839 0.51402 0.0
C2177 C 0.32588 0.76323 0.50944 0.0
C2178 C 0.36021 0.77424 0.51769 0.0
C2179 C 0.354 0.79509 0.51694 0.0
C2180 C 0.33373 0.79989 0.51203 0.0
H2181 H 0.42469 0.90935 0.50461 0.0
H2182 H 0.40547 0.87725 0.50007 0.0
C2183 C 0.31972 0.78404 0.50838 0.0
C2184 C 0.36879 0.81188 0.52099 0.0
H2185 H 0.37491 0.85236 0.55038 0.0
C2186 C 0.38739 0.81466 0.50893 0.0
C2187 C 0.36452 0.82524 0.53648 0.0
C2188 C 0.34536 0.82229 0.55057 0.0
C2189 C 0.4015 0.83094 0.51152 0.0
C2190 C 0.3967 0.84493 0.52639 0.0
C2191 C 0.37847 0.8417 0.53889 0.0
C2192 C 0.40985 0.86358 0.52873 0.0
C2193 C 0.42139 0.83302 0.49832 0.0
C2194 C 0.41858 0.86663 0.54642 0.0
C2195 C 0.42956 0.88505 0.54912 0.0
C2196 C 0.4318 0.90081 0.5342 0.0
C2197 C 0.42334 0.8975 0.51638 0.0
C2198 C 0.41244 0.8791 0.5137 0.0
H2199 H 0.42562 0.81804 0.49177 0.0
H2200 H 0.41917 0.84463 0.48625 0.0
H2201 H 0.43461 0.83843 0.50634 0.0
H2202 H 0.41663 0.85488 0.55825 0.0
H2203 H 0.43579 0.88715 0.56305 0.0
H2204 H 0.49916 0.73767 0.78193 0.0
H2205 H 0.49951 0.71283 0.75604 0.0
H2206 H 0.54206 0.67433 0.78664 0.0
H2207 H 0.54021 0.69827 0.81323 0.0
H2208 H 0.52736 0.70173 0.73133 0.0
H2209 H 0.50325 0.63015 0.77485 0.0
H2210 H 0.50214 0.65537 0.78513 0.0
H2211 H 0.52618 0.64106 0.78376 0.0
C2212 C 0.5083 0.7237 0.78319 0.0
C2213 C 0.51962 0.71983 0.79956 0.0
C2214 C 0.50859 0.70954 0.76837 0.0
C2215 C 0.52048 0.69134 0.76944 0.0
C2216 C 0.53214 0.68775 0.78567 0.0
H2217 H 0.56656 0.6276 0.6676 0.0
H2218 H 0.56011 0.65021 0.69442 0.0
C2219 C 0.53138 0.70162 0.80073 0.0
C2220 C 0.5215 0.67676 0.75314 0.0
H2221 H 0.52037 0.62527 0.74304 0.0
C2222 C 0.52555 0.68503 0.73394 0.0
C2223 C 0.51866 0.65493 0.75628 0.0
C2224 C 0.51207 0.64492 0.77611 0.0
C2225 C 0.52747 0.67219 0.71799 0.0
C2226 C 0.5264 0.65027 0.7213 0.0
C2227 C 0.52164 0.64201 0.74041 0.0
C2228 C 0.53059 0.63569 0.70525 0.0
C2229 C 0.53019 0.68243 0.69775 0.0
C2230 C 0.51681 0.61904 0.70285 0.0
C2231 C 0.52098 0.60525 0.68791 0.0
C2232 C 0.53897 0.60788 0.67483 0.0
C2233 C 0.55274 0.62458 0.67742 0.0
C2234 C 0.54881 0.63799 0.6926 0.0
H2235 H 0.52286 0.69798 0.69733 0.0
H2236 H 0.54709 0.6848 0.69341 0.0
H2237 H 0.52322 0.67284 0.6869 0.0
H2238 H 0.50273 0.61671 0.71251 0.0
H2239 H 0.51014 0.59245 0.68677 0.0
H2240 H 0.48107 0.84993 0.7945 0.0
H2241 H 0.47774 0.87084 0.76434 0.0
H2242 H 0.53744 0.84922 0.74089 0.0
H2243 H 0.54049 0.82755 0.77052 0.0
H2244 H 0.5028 0.90233 0.74488 0.0
H2245 H 0.49824 0.83302 0.70029 0.0
H2246 H 0.4959 0.83119 0.72658 0.0
H2247 H 0.5212 0.83418 0.71344 0.0
C2248 C 0.49344 0.84954 0.78289 0.0
C2249 C 0.51094 0.83688 0.78486 0.0
C2250 C 0.49159 0.86162 0.76574 0.0
C2251 C 0.50717 0.86126 0.75029 0.0
C2252 C 0.52506 0.84939 0.75253 0.0
H2253 H 0.51592 0.91442 0.63158 0.0
H2254 H 0.52413 0.89935 0.66333 0.0
C2255 C 0.52688 0.83722 0.76959 0.0
C2256 C 0.50437 0.87271 0.73159 0.0
H2257 H 0.49989 0.86588 0.6833 0.0
C2258 C 0.50216 0.89439 0.7314 0.0
C2259 C 0.50345 0.86225 0.71407 0.0
C2260 C 0.50462 0.83886 0.71355 0.0
C2261 C 0.49926 0.90594 0.71406 0.0
C2262 C 0.49839 0.89546 0.69658 0.0
C2263 C 0.50074 0.87383 0.69675 0.0
C2264 C 0.4942 0.90643 0.67803 0.0
C2265 C 0.49732 0.92925 0.71448 0.0
C2266 C 0.47469 0.91543 0.67589 0.0
C2267 C 0.46995 0.924 0.65781 0.0
C2268 C 0.48465 0.92368 0.64157 0.0
C2269 C 0.50437 0.91509 0.64388 0.0
C2270 C 0.50905 0.90642 0.66195 0.0
H2271 H 0.50322 0.93537 0.72785 0.0
H2272 H 0.50603 0.93706 0.70151 0.0
H2273 H 0.48062 0.9334 0.71421 0.0
H2274 H 0.46291 0.91528 0.68807 0.0
H2275 H 0.45469 0.93066 0.65648 0.0
H2276 H 0.48613 0.34265 0.71673 0.0
H2277 H 0.49003 0.37621 0.73164 0.0
H2278 H 0.53933 0.35104 0.7642 0.0
H2279 H 0.53518 0.31753 0.74995 0.0
H2280 H 0.48547 0.3814 0.77268 0.0
H2281 H 0.56361 0.40763 0.74127 0.0
H2282 H 0.54772 0.38923 0.72968 0.0
H2283 H 0.56349 0.38057 0.74888 0.0
C2284 C 0.49774 0.34429 0.72713 0.0
C2285 C 0.51034 0.32744 0.73222 0.0
C2286 C 0.5001 0.36351 0.7354 0.0
C2287 C 0.5153 0.36617 0.7486 0.0
C2288 C 0.52795 0.34944 0.75356 0.0
H2289 H 0.55562 0.39986 0.84553 0.0
H2290 H 0.54742 0.39128 0.81299 0.0
C2291 C 0.5255 0.33027 0.74547 0.0
C2292 C 0.51674 0.38543 0.75914 0.0
H2293 H 0.55422 0.41673 0.77509 0.0
C2294 C 0.50017 0.38986 0.77275 0.0
C2295 C 0.53584 0.39656 0.75894 0.0
C2296 C 0.55359 0.3934 0.74373 0.0
C2297 C 0.50322 0.40306 0.78791 0.0
C2298 C 0.52324 0.41198 0.78918 0.0
C2299 C 0.53894 0.40966 0.77412 0.0
C2300 C 0.52952 0.41901 0.80788 0.0
C2301 C 0.48581 0.40548 0.80365 0.0
C2302 C 0.5223 0.43758 0.81561 0.0
C2303 C 0.52709 0.44262 0.83427 0.0
C2304 C 0.53913 0.42912 0.84537 0.0
C2305 C 0.54663 0.41077 0.83728 0.0
C2306 C 0.54192 0.40581 0.81871 0.0
H2307 H 0.47111 0.39758 0.80037 0.0
H2308 H 0.49056 0.3989 0.81778 0.0
H2309 H 0.48266 0.42224 0.80535 0.0
H2310 H 0.51275 0.44793 0.80736 0.0
H2311 H 0.52133 0.45701 0.84005 0.0
H2312 H 0.48351 0.22151 0.76247 0.0
H2313 H 0.48009 0.19836 0.79191 0.0
H2314 H 0.50595 0.14819 0.75879 0.0
H2315 H 0.50828 0.17111 0.72916 0.0
H2316 H 0.47484 0.13372 0.782 0.0
H2317 H 0.52379 0.18053 0.82638 0.0
H2318 H 0.5023 0.19521 0.81832 0.0
H2319 H 0.52212 0.18638 0.80071 0.0
C2320 C 0.48851 0.20554 0.76155 0.0
C2321 C 0.49644 0.19819 0.74359 0.0
C2322 C 0.48675 0.19234 0.77843 0.0
C2323 C 0.49328 0.17155 0.77786 0.0
C2324 C 0.50097 0.16415 0.7598 0.0
H2325 H 0.5103 0.09673 0.88526 0.0
H2326 H 0.51562 0.11697 0.85421 0.0
C2327 C 0.50243 0.17728 0.74286 0.0
C2328 C 0.4915 0.15736 0.79587 0.0
H2329 H 0.50299 0.15347 0.84355 0.0
C2330 C 0.48115 0.13802 0.7954 0.0
C2331 C 0.50004 0.1626 0.81339 0.0
C2332 C 0.51288 0.1822 0.8147 0.0
C2333 C 0.47872 0.12411 0.81189 0.0
C2334 C 0.4862 0.12988 0.82972 0.0
C2335 C 0.49696 0.14901 0.83007 0.0
C2336 C 0.48304 0.11644 0.84817 0.0
C2337 C 0.46856 0.10316 0.8098 0.0
C2338 C 0.46298 0.10923 0.85534 0.0
C2339 C 0.45997 0.0973 0.87295 0.0
C2340 C 0.47687 0.09263 0.88414 0.0
C2341 C 0.49693 0.09991 0.87702 0.0
C2342 C 0.49998 0.11159 0.85925 0.0
H2343 H 0.47038 0.09844 0.79447 0.0
H2344 H 0.47528 0.0909 0.81919 0.0
H2345 H 0.45157 0.10407 0.81406 0.0
H2346 H 0.44949 0.11322 0.84756 0.0
H2347 H 0.44424 0.09227 0.87809 0.0
H2348 H 0.77943 0.52293 0.67153 0.0
H2349 H 0.74953 0.52586 0.65162 0.0
H2350 H 0.71217 0.48808 0.69506 0.0
H2351 H 0.74164 0.48649 0.71556 0.0
H2352 H 0.72638 0.50033 0.63417 0.0
H2353 H 0.67548 0.53673 0.69129 0.0
H2354 H 0.70278 0.53232 0.6938 0.0
H2355 H 0.68386 0.5115 0.69921 0.0
C2356 C 0.76475 0.5154 0.67681 0.0
C2357 C 0.76267 0.50477 0.69516 0.0
C2358 C 0.74772 0.51695 0.66541 0.0
C2359 C 0.72836 0.50762 0.67201 0.0
C2360 C 0.72666 0.49602 0.6899 0.0
H2361 H 0.6243 0.50093 0.59559 0.0
H2362 H 0.65555 0.49233 0.61262 0.0
C2363 C 0.74355 0.49491 0.70152 0.0
C2364 C 0.70992 0.51057 0.6604 0.0
H2365 H 0.65948 0.52702 0.66331 0.0
C2366 C 0.71176 0.50624 0.64052 0.0
C2367 C 0.69088 0.51856 0.66856 0.0
C2368 C 0.68817 0.52525 0.68931 0.0
C2369 C 0.69524 0.50985 0.6286 0.0
C2370 C 0.67602 0.51727 0.63693 0.0
C2371 C 0.67413 0.52124 0.65687 0.0
C2372 C 0.658 0.52239 0.62528 0.0
C2373 C 0.69888 0.50641 0.6071 0.0
C2374 C 0.64874 0.54196 0.62684 0.0
C2375 C 0.63065 0.54655 0.6177 0.0
C2376 C 0.62158 0.53188 0.60639 0.0
C2377 C 0.63117 0.51257 0.60407 0.0
C2378 C 0.64909 0.50772 0.61371 0.0
H2379 H 0.7158 0.5067 0.60221 0.0
H2380 H 0.69246 0.49091 0.60411 0.0
H2381 H 0.69102 0.5184 0.59829 0.0
H2382 H 0.65528 0.55363 0.63552 0.0
H2383 H 0.62362 0.56162 0.61962 0.0
H2384 H 0.23449 1.00388 0.6536 0.0
H2385 H 0.26272 0.99895 0.62792 0.0
H2386 H 0.30451 0.98247 0.67197 0.0
H2387 H 0.27621 0.98704 0.69749 0.0
H2388 H 0.30153 0.01843 0.6208 0.0
H2389 H 0.31112 0.9341 0.63639 0.0
H2390 H 0.28874 0.94804 0.64619 0.0
H2391 H 0.31298 0.94895 0.65757 0.0
C2392 C 0.24972 0.9991 0.65767 0.0
C2393 C 0.25328 0.99567 0.67739 0.0
C2394 C 0.26582 0.99633 0.64306 0.0
C2395 C 0.28568 0.98999 0.64796 0.0
C2396 C 0.28923 0.98688 0.66777 0.0
H2397 H 0.40858 0.96975 0.60018 0.0
H2398 H 0.37541 0.97509 0.61856 0.0
C2399 C 0.27314 0.98958 0.68234 0.0
C2400 C 0.30285 0.9869 0.63252 0.0
H2401 H 0.33897 0.95165 0.61673 0.0
C2402 C 0.30955 1.00376 0.6197 0.0
C2403 C 0.31319 0.96769 0.63093 0.0
C2404 C 0.30601 0.9486 0.64336 0.0
C2405 C 0.32707 1.00224 0.60615 0.0
C2406 C 0.33799 0.9833 0.60524 0.0
C2407 C 0.33068 0.96622 0.61747 0.0
C2408 C 0.3582 0.98129 0.59328 0.0
C2409 C 0.33436 0.02117 0.59358 0.0
C2410 C 0.35975 0.9832 0.57276 0.0
C2411 C 0.37898 0.98019 0.56201 0.0
C2412 C 0.39688 0.97507 0.57164 0.0
C2413 C 0.39517 0.97353 0.59217 0.0
C2414 C 0.37615 0.97658 0.60279 0.0
H2415 H 0.32629 0.03549 0.59827 0.0
H2416 H 0.35147 0.02361 0.59393 0.0
H2417 H 0.33114 0.01876 0.57827 0.0
H2418 H 0.34603 0.98655 0.56507 0.0
H2419 H 0.37973 0.98139 0.54624 0.0
H2420 H 0.77564 0.47064 0.82617 0.0
H2421 H 0.74938 0.4666 0.85395 0.0
H2422 H 0.71648 0.51946 0.8317 0.0
H2423 H 0.74257 0.52359 0.80388 0.0
H2424 H 0.71891 0.51834 0.87295 0.0
H2425 H 0.69071 0.44324 0.847 0.0
H2426 H 0.71805 0.44467 0.8507 0.0
H2427 H 0.70782 0.46084 0.83184 0.0
C2428 C 0.7628 0.48141 0.82718 0.0
C2429 C 0.76111 0.49731 0.81267 0.0
C2430 C 0.74785 0.47911 0.8431 0.0
C2431 C 0.73084 0.49258 0.84478 0.0
C2432 C 0.72951 0.50892 0.83073 0.0
H2433 H 0.60692 0.48007 0.89276 0.0
H2434 H 0.64065 0.48713 0.87487 0.0
C2435 C 0.74447 0.51127 0.81483 0.0
C2436 C 0.71366 0.48892 0.86039 0.0
H2437 H 0.67347 0.45524 0.87553 0.0
C2438 C 0.70911 0.50444 0.87371 0.0
C2439 C 0.70081 0.47082 0.86123 0.0
C2440 C 0.70441 0.45397 0.84687 0.0
C2441 C 0.69176 0.5025 0.88757 0.0
C2442 C 0.67874 0.48461 0.88809 0.0
C2443 C 0.68364 0.46886 0.87517 0.0
C2444 C 0.65847 0.48294 0.90003 0.0
C2445 C 0.68683 0.51992 0.90097 0.0
C2446 C 0.65724 0.47877 0.92032 0.0
C2447 C 0.63775 0.47473 0.93075 0.0
C2448 C 0.61938 0.47466 0.92091 0.0
C2449 C 0.62077 0.47981 0.90077 0.0
C2450 C 0.64005 0.48387 0.89049 0.0
H2451 H 0.69786 0.53334 0.89801 0.0
H2452 H 0.67068 0.52537 0.89937 0.0
H2453 H 0.68758 0.51411 0.91632 0.0
H2454 H 0.67134 0.47784 0.92791 0.0
H2455 H 0.63717 0.4707 0.94622 0.0
H2456 H 0.24686 0.02514 0.80977 0.0
H2457 H 0.26746 0.02363 0.838 0.0
H2458 H 0.29376 0.96558 0.81998 0.0
H2459 H 0.27405 0.96753 0.79104 0.0
H2460 H 0.26973 0.99468 0.8688 0.0
H2461 H 0.34511 1.00239 0.82284 0.0
H2462 H 0.32025 0.00652 0.81298 0.0
H2463 H 0.3289 0.98054 0.81823 0.0
C2464 C 0.25724 0.01218 0.81165 0.0
C2465 C 0.25917 0.99668 0.79795 0.0
C2466 C 0.26875 0.01119 0.82794 0.0
C2467 C 0.28229 0.99464 0.83089 0.0
C2468 C 0.28362 0.97865 0.81774 0.0
H2469 H 0.38065 0.99491 0.91013 0.0
H2470 H 0.35352 0.98056 0.89164 0.0
C2471 C 0.27224 0.97972 0.80131 0.0
C2472 C 0.2959 0.99501 0.84712 0.0
H2473 H 0.34675 1.00131 0.85665 0.0
C2474 C 0.2866 0.99587 0.86622 0.0
C2475 C 0.31787 0.99658 0.84363 0.0
C2476 C 0.32868 0.99664 0.82333 0.0
C2477 C 0.29874 0.99889 0.88191 0.0
C2478 C 0.3206 1.00121 0.87827 0.0
C2479 C 0.32994 0.99939 0.85933 0.0
C2480 C 0.3341 0.00774 0.89325 0.0
C2481 C 0.28809 0.99999 0.90213 0.0
C2482 C 0.3318 0.02755 0.90071 0.0
C2483 C 0.34725 0.03581 0.91135 0.0
C2484 C 0.36526 0.02439 0.91456 0.0
C2485 C 0.36685 1.00402 0.90811 0.0
C2486 C 0.3514 0.99579 0.89748 0.0
H2487 H 0.27266 0.99183 0.90345 0.0
H2488 H 0.2979 0.99308 0.91325 0.0
H2489 H 0.28545 0.01653 0.90534 0.0
H2490 H 0.31873 0.03716 0.89726 0.0
H2491 H 0.34553 0.05146 0.91632 0.0
H2492 H 0.73377 0.71856 0.51871 0.0
H2493 H 0.70922 0.6894 0.52792 0.0
H2494 H 0.65744 0.73106 0.52379 0.0
H2495 H 0.68196 0.75995 0.51418 0.0
H2496 H 0.68115 0.68412 0.5592 0.0
H2497 H 0.63911 0.68411 0.49213 0.0
H2498 H 0.66325 0.69842 0.49337 0.0
H2499 H 0.63889 0.70894 0.5029 0.0
C2500 C 0.71712 0.72128 0.51946 0.0
C2501 C 0.70965 0.74128 0.5154 0.0
C2502 C 0.70311 0.70471 0.52481 0.0
C2503 C 0.6814 0.7079 0.52623 0.0
C2504 C 0.67402 0.72801 0.52229 0.0
H2505 H 0.58919 0.62312 0.59059 0.0
H2506 H 0.61212 0.65291 0.57981 0.0
C2507 C 0.688 0.74452 0.51686 0.0
C2508 C 0.66653 0.69041 0.53255 0.0
H2509 H 0.62384 0.66375 0.51951 0.0
C2510 C 0.66867 0.67962 0.55048 0.0
C2511 C 0.65033 0.68435 0.52112 0.0
C2512 C 0.64784 0.69441 0.50123 0.0
C2513 C 0.65499 0.66315 0.55736 0.0
C2514 C 0.63836 0.65755 0.54623 0.0
C2515 C 0.63637 0.66819 0.5282 0.0
C2516 C 0.62349 0.64006 0.55255 0.0
C2517 C 0.65885 0.65157 0.57626 0.0
C2518 C 0.62151 0.62327 0.54052 0.0
C2519 C 0.60822 0.60638 0.54651 0.0
C2520 C 0.59651 0.60585 0.56471 0.0
C2521 C 0.59803 0.62296 0.57653 0.0
C2522 C 0.6113 0.63993 0.57046 0.0
H2523 H 0.6751 0.65401 0.58022 0.0
H2524 H 0.64809 0.65733 0.58816 0.0
H2525 H 0.65593 0.63461 0.57539 0.0
H2526 H 0.63063 0.623 0.5266 0.0
H2527 H 0.60749 0.59353 0.53699 0.0
H2528 H 0.7186 0.28622 0.00441 0.0
H2529 H 0.69018 0.31024 0.99913 0.0
H2530 H 0.68279 0.28474 0.94333 0.0
H2531 H 0.71059 0.26007 0.94884 0.0
H2532 H 0.68848 0.34047 0.97044 0.0
H2533 H 0.62288 0.28435 0.9666 0.0
H2534 H 0.64747 0.27684 0.97558 0.0
H2535 H 0.645 0.27986 0.94979 0.0
C2536 C 0.71068 0.2854 0.99117 0.0
C2537 C 0.71694 0.27108 0.97709 0.0
C2538 C 0.6945 0.29928 0.9881 0.0
C2539 C 0.68409 0.29916 0.97095 0.0
C2540 C 0.69025 0.2849 0.95687 0.0
H2541 H 0.59187 0.38406 0.92482 0.0
H2542 H 0.61665 0.35568 0.92899 0.0
C2543 C 0.70639 0.27096 0.95994 0.0
C2544 C 0.66754 0.31466 0.96745 0.0
H2545 H 0.61622 0.31977 0.95814 0.0
C2546 C 0.67268 0.3359 0.96782 0.0
C2547 C 0.6469 0.30875 0.96391 0.0
C2548 C 0.64012 0.28621 0.96411 0.0
C2549 C 0.65786 0.35134 0.96471 0.0
C2550 C 0.63721 0.34545 0.96133 0.0
C2551 C 0.63207 0.32425 0.96069 0.0
C2552 C 0.62069 0.36121 0.95917 0.0
C2553 C 0.66446 0.37392 0.96488 0.0
C2554 C 0.61423 0.37325 0.97492 0.0
C2555 C 0.60007 0.38934 0.97263 0.0
C2556 C 0.59199 0.39379 0.95451 0.0
C2557 C 0.59775 0.38107 0.93896 0.0
C2558 C 0.61194 0.36487 0.9413 0.0
H2559 H 0.68172 0.37593 0.96306 0.0
H2560 H 0.65754 0.38327 0.95313 0.0
H2561 H 0.65882 0.38019 0.97905 0.0
H2562 H 0.62052 0.3705 0.98892 0.0
H2563 H 0.59596 0.3987 0.98498 0.0
H2564 H 0.33353 0.24641 0.02736 0.0
H2565 H 0.35989 0.21951 0.02425 0.0
H2566 H 0.38032 0.24473 0.96664 0.0
H2567 H 0.35524 0.27254 0.97022 0.0
H2568 H 0.36086 0.19013 1.00067 0.0
H2569 H 0.43562 0.23288 0.98545 0.0
H2570 H 0.41203 0.24557 0.99422 0.0
H2571 H 0.41757 0.24187 0.96854 0.0
C2572 C 0.34409 0.2467 0.01428 0.0
C2573 C 0.34206 0.26165 0.99899 0.0
C2574 C 0.35908 0.23115 0.01245 0.0
C2575 C 0.37235 0.23013 0.99528 0.0
C2576 C 0.37073 0.24538 0.98024 0.0
H2577 H 0.41377 0.12017 0.94189 0.0
H2578 H 0.39679 0.15122 0.95388 0.0
C2579 C 0.356 0.2611 0.98218 0.0
C2580 C 0.3861 0.21191 0.99213 0.0
H2581 H 0.43455 0.19793 0.97337 0.0
C2582 C 0.37708 0.1919 0.99505 0.0
C2583 C 0.40743 0.21399 0.98515 0.0
C2584 C 0.41875 0.23475 0.98339 0.0
C2585 C 0.38837 0.17411 0.99018 0.0
C2586 C 0.40906 0.17637 0.98146 0.0
C2587 C 0.41854 0.19621 0.97962 0.0
C2588 C 0.4205 0.15844 0.97324 0.0
C2589 C 0.37789 0.15307 0.99434 0.0
C2590 C 0.44016 0.1528 0.97924 0.0
C2591 C 0.45019 0.13516 0.97206 0.0
C2592 C 0.44064 0.12288 0.95885 0.0
C2593 C 0.42139 0.1291 0.9523 0.0
C2594 C 0.41157 0.14679 0.95925 0.0
H2595 H 0.36574 0.15342 0.00674 0.0
H2596 H 0.37004 0.14861 0.98135 0.0
H2597 H 0.38935 0.14092 0.99776 0.0
H2598 H 0.44747 0.16172 0.98985 0.0
H2599 H 0.46504 0.13076 0.97732 0.0
H2600 H 0.86626 0.24795 0.00378 0.0
H2601 H 0.89187 0.27484 0.01069 0.0
H2602 H 0.84611 0.32221 1.00182 0.0
H2603 H 0.82054 0.29529 0.9951 0.0
H2604 H 0.90738 0.31001 0.98731 0.0
H2605 H 0.86511 0.33229 0.0564 0.0
H2606 H 0.85936 0.30852 0.04484 0.0
H2607 H 0.84924 0.33284 0.03609 0.0
C2608 C 0.86186 0.26416 0.00327 0.0
C2609 C 0.84165 0.26979 0.999 0.0
C2610 C 0.87638 0.27942 0.00719 0.0
C2611 C 0.87074 0.30043 0.00704 0.0
C2612 C 0.85061 0.30604 1.00234 0.0
H2613 H 0.93945 0.41477 0.99825 0.0
H2614 H 0.9217 0.38216 0.99268 0.0
C2615 C 0.83611 0.29078 0.99841 0.0
C2616 C 0.88584 0.31656 0.01177 0.0
H2617 H 0.89252 0.35527 0.0429 0.0
C2618 C 0.90427 0.31979 0.99956 0.0
C2619 C 0.8819 0.32899 0.02798 0.0
C2620 C 0.86294 0.3254 0.04221 0.0
C2621 C 0.91846 0.33583 1.00266 0.0
C2622 C 0.91389 0.34904 0.01821 0.0
C2623 C 0.89591 0.34519 0.0309 0.0
C2624 C 0.92674 0.36776 0.0209 0.0
C2625 C 0.93813 0.33855 0.98921 0.0
C2626 C 0.93541 0.37052 0.03868 0.0
C2627 C 0.94549 0.38924 0.04198 0.0
C2628 C 0.94689 0.40557 0.0276 0.0
C2629 C 0.93871 0.40249 0.00961 0.0
C2630 C 0.92867 0.38379 0.00634 0.0
H2631 H 0.94246 0.32382 0.98225 0.0
H2632 H 0.9355 0.35039 0.97746 0.0
H2633 H 0.95142 0.34392 0.99714 0.0
H2634 H 0.93394 0.35835 0.05015 0.0
H2635 H 0.95158 0.39115 0.056 0.0
loop_
_geom_bond_atom_site_label_1
_geom_bond_atom_site_label_2
_geom_bond_distance
_geom_bond_site_symmetry_2
_ccdc_geom_bond_type
C0 C1 1.443 . S
C0 N4 1.376 . S
C0 C38 1.389 . S
C1 C0 1.443 . S
C1 C2 1.340 . S
C1 H41 0.951 . S
C2 C1 1.340 . S
C2 C3 1.439 . S
C2 H42 0.950 . S
C3 C2 1.439 . S
C3 N4 1.374 . S
C3 C37 1.395 . S
N4 C0 1.376 . S
N4 C3 1.374 . S
N4 Co5 2.008 1_655 S
Co5 N4 2.008 1_455 S
Co5 N6 1.995 1_455 S
Co5 N11 2.008 . S
Co5 N16 1.995 . S
Co5 N21 2.282 . S
Co5 N27 2.282 . S
N6 Co5 1.995 1_655 S
N6 C7 1.376 . S
N6 C10 1.383 . S
C7 N6 1.376 . S
C7 C8 1.446 . S
C7 C37 1.391 . S
C8 C7 1.446 . S
C8 C9 1.339 . S
C8 H43 0.949 . S
C9 C8 1.339 . S
C9 C10 1.439 . S
C9 H44 0.950 . S
C10 N6 1.383 . S
C10 C9 1.439 . S
C10 C39 1.392 1_655 S
N11 Co5 2.008 . S
N11 C12 1.376 . S
N11 C15 1.374 . S
C12 N11 1.376 . S
C12 C13 1.443 . S
C12 C39 1.389 . S
C13 C12 1.443 . S
C13 C14 1.340 . S
C13 H45 0.951 . S
C14 C13 1.340 . S
C14 C15 1.439 . S
C14 H46 0.950 . S
C15 N11 1.374 . S
C15 C14 1.439 . S
C15 C40 1.395 . S
N16 Co5 1.995 . S
N16 C17 1.376 . S
N16 C20 1.383 . S
C17 N16 1.376 . S
C17 C18 1.446 . S
C17 C40 1.391 . S
C18 C17 1.446 . S
C18 C19 1.339 . S
C18 H47 0.949 . S
C19 C18 1.339 . S
C19 C20 1.439 . S
C19 H48 0.950 . S
C20 N16 1.383 . S
C20 C19 1.439 . S
C20 C38 1.392 1_455 S
N21 Co5 2.282 . S
N21 C24 1.332 . S
N21 C26 1.332 1_455 S
C22 C23 1.386 . S
C22 C25 1.390 . S
C23 C22 1.386 . S
C23 C24 1.382 . S
C23 H49 0.950 . S
C24 N21 1.332 . S
C24 C23 1.382 . S
C24 H35 0.952 . S
C25 C22 1.390 . S
C25 C26 1.382 1_455 S
C25 H50 0.948 1_455 S
C26 N21 1.332 1_655 S
C26 C25 1.382 1_655 S
C26 H36 0.948 . S
N27 Co5 2.282 . S
N27 C31 1.332 1_455 S
N27 C32 1.332 . S
C28 C29 1.388 1_455 S
C28 C32 1.382 . S
C28 H51 0.950 . S
C29 C28 1.388 1_655 S
C29 C30 1.386 . S
C30 C29 1.386 . S
C30 C31 1.382 . S
C30 H52 0.950 . S
C31 N27 1.332 1_655 S
C31 C30 1.382 . S
C31 H33 0.952 . S
C32 N27 1.332 . S
C32 C28 1.382 . S
C32 H34 0.948 . S
H33 C31 0.952 . S
H34 C32 0.948 . S
H35 C24 0.952 . S
H36 C26 0.948 . S
C37 C3 1.395 . S
C37 C7 1.391 . S
C38 C0 1.389 . S
C38 C20 1.392 1_655 S
C39 C10 1.392 1_455 S
C39 C12 1.389 . S
C40 C15 1.395 . S
C40 C17 1.391 . S
H41 C1 0.951 . S
H42 C2 0.950 . S
H43 C8 0.949 . S
H44 C9 0.950 . S
H45 C13 0.951 . S
H46 C14 0.950 . S
H47 C18 0.949 . S
H48 C19 0.950 . S
H49 C23 0.950 . S
H50 C25 0.948 1_655 S
H51 C28 0.950 . S
H52 C30 0.950 . S
C53 C54 1.443 . S
C53 N57 1.376 . S
C53 C91 1.413 . S
C54 C53 1.443 . S
C54 C55 1.340 . S
C54 H94 0.951 . S
C55 C54 1.340 . S
C55 C56 1.439 . S
C55 H95 0.950 . S
C56 C55 1.439 . S
C56 N57 1.374 . S
C56 C90 1.395 . S
N57 C53 1.376 . S
N57 C56 1.374 . S
N57 Co58 2.008 1_655 S
Co58 N57 2.008 1_455 S
Co58 N59 1.995 1_455 S
Co58 N64 2.008 . S
Co58 N69 1.995 . S
Co58 N74 2.282 . S
Co58 N80 2.282 . S
N59 Co58 1.995 1_655 S
N59 C60 1.376 . S
N59 C63 1.383 . S
C60 N59 1.376 . S
C60 C61 1.446 . S
C60 C90 1.391 . S
C61 C60 1.446 . S
C61 C62 1.339 . S
C61 H96 0.949 . S
C62 C61 1.339 . S
C62 C63 1.439 . S
C62 H97 0.950 . S
C63 N59 1.383 . S
C63 C62 1.439 . S
C63 C92 1.392 1_655 S
N64 Co58 2.008 . S
N64 C65 1.376 . S
N64 C68 1.374 . S
C65 N64 1.376 . S
C65 C66 1.443 . S
C65 C92 1.389 . S
C66 C65 1.443 . S
C66 C67 1.340 . S
C66 H98 0.951 . S
C67 C66 1.340 . S
C67 C68 1.439 . S
C67 H99 0.950 . S
C68 N64 1.374 . S
C68 C67 1.439 . S
C68 C93 1.395 . S
N69 Co58 1.995 . S
N69 C70 1.376 . S
N69 C73 1.383 . S
C70 N69 1.376 . S
C70 C71 1.446 . S
C70 C93 1.391 . S
C71 C70 1.446 . S
C71 C72 1.339 . S
C71 H100 0.949 . S
C72 C71 1.339 . S
C72 C73 1.439 . S
C72 H101 0.950 . S
C73 N69 1.383 . S
C73 C72 1.439 . S
C73 C91 1.363 1_455 S
N74 Co58 2.282 . S
N74 C77 1.332 . S
N74 C79 1.299 1_455 S
C75 C76 1.386 . S
C75 C78 1.388 . S
C76 C75 1.386 . S
C76 C77 1.382 . S
C76 H102 0.950 . S
C77 N74 1.332 . S
C77 C76 1.382 . S
C77 H88 0.952 . S
C78 C75 1.388 . S
C78 C79 1.376 1_455 S
C78 H103 0.950 1_455 S
C79 N74 1.299 1_655 S
C79 C78 1.376 1_655 S
C79 H89 0.993 . S
N80 Co58 2.282 . S
N80 C84 1.332 1_455 S
N80 C85 1.332 . S
C81 C82 1.388 1_455 S
C81 C85 1.382 . S
C81 H104 0.950 . S
C82 C81 1.388 1_655 S
C82 C83 1.386 . S
C83 C82 1.386 . S
C83 C84 1.382 . S
C83 H105 0.950 . S
C84 N80 1.332 1_655 S
C84 C83 1.382 . S
C84 H86 0.952 . S
C85 N80 1.332 . S
C85 C81 1.382 . S
C85 H87 0.948 . S
H86 C84 0.952 . S
H87 C85 0.948 . S
H88 C77 0.952 . S
H89 C79 0.993 . S
C90 C56 1.395 . S
C90 C60 1.391 . S
C91 C53 1.413 . S
C91 C73 1.363 1_655 S
C92 C63 1.392 1_455 S
C92 C65 1.389 . S
C93 C68 1.395 . S
C93 C70 1.391 . S
H94 C54 0.951 . S
H95 C55 0.950 . S
H96 C61 0.949 . S
H97 C62 0.950 . S
H98 C66 0.951 . S
H99 C67 0.950 . S
H100 C71 0.949 . S
H101 C72 0.950 . S
H102 C76 0.950 . S
H103 C78 0.950 1_655 S
H104 C81 0.950 . S
H105 C83 0.950 . S
C106 C107 1.443 . S
C106 N110 1.376 . S
C106 C144 1.387 . S
C107 C106 1.443 . S
C107 C108 1.340 . S
C107 H147 0.951 . S
C108 C107 1.340 . S
C108 C109 1.439 . S
C108 H148 0.950 . S
C109 C108 1.439 . S
C109 N110 1.374 . S
C109 C143 1.395 . S
N110 C106 1.376 . S
N110 C109 1.374 . S
N110 Co111 2.008 1_565 S
Co111 N110 2.008 1_545 S
Co111 N112 1.995 1_545 S
Co111 N117 2.008 . S
Co111 N122 1.995 . S
Co111 N127 2.282 . S
Co111 N133 2.282 . S
N112 Co111 1.995 1_565 S
N112 C113 1.376 . S
N112 C116 1.383 . S
C113 N112 1.376 . S
C113 C114 1.446 . S
C113 C143 1.391 . S
C114 C113 1.446 . S
C114 C115 1.339 . S
C114 H149 0.949 . S
C115 C114 1.339 . S
C115 C116 1.439 . S
C115 H150 0.950 . S
C116 N112 1.383 . S
C116 C115 1.439 . S
C116 C145 1.392 1_565 S
N117 Co111 2.008 . S
N117 C118 1.376 . S
N117 C121 1.374 . S
C118 N117 1.376 . S
C118 C119 1.443 . S
C118 C145 1.389 . S
C119 C118 1.443 . S
C119 C120 1.340 . S
C119 H151 0.951 . S
C120 C119 1.340 . S
C120 C121 1.439 . S
C120 H152 0.950 . S
C121 N117 1.374 . S
C121 C120 1.439 . S
C121 C146 1.395 . S
N122 Co111 1.995 . S
N122 C123 1.376 . S
N122 C126 1.383 . S
C123 N122 1.376 . S
C123 C124 1.446 . S
C123 C146 1.391 . S
C124 C123 1.446 . S
C124 C125 1.339 . S
C124 H153 0.949 . S
C125 C124 1.339 . S
C125 C126 1.439 . S
C125 H154 0.950 . S
C126 N122 1.383 . S
C126 C125 1.439 . S
C126 C144 1.393 1_545 S
N127 Co111 2.282 . S
N127 C130 1.332 . S
N127 C132 1.332 . S
C128 C129 1.386 . S
C128 C131 1.388 . S
C129 C128 1.386 . S
C129 C130 1.382 . S
C129 H155 0.950 . S
C130 N127 1.332 . S
C130 C129 1.382 . S
C130 H141 0.952 . S
C131 C128 1.388 . S
C131 C132 1.382 . S
C131 H156 0.950 1_545 S
C132 N127 1.332 . S
C132 C131 1.382 . S
C132 H142 0.948 1_545 S
N133 Co111 2.282 . S
N133 C137 1.332 1_545 S
N133 C138 1.332 . S
C134 C135 1.388 1_545 S
C134 C138 1.382 . S
C134 H157 0.950 . S
C135 C134 1.388 1_565 S
C135 C136 1.386 . S
C136 C135 1.386 . S
C136 C137 1.382 . S
C136 H158 0.950 . S
C137 N133 1.332 1_565 S
C137 C136 1.382 . S
C137 H139 0.952 . S
C138 N133 1.332 . S
C138 C134 1.382 . S
C138 H140 0.948 . S
H139 C137 0.952 . S
H140 C138 0.948 . S
H141 C130 0.952 . S
H142 C132 0.948 1_565 S
C143 C109 1.395 . S
C143 C113 1.391 . S
C144 C106 1.387 . S
C144 C126 1.393 1_565 S
C145 C116 1.392 1_545 S
C145 C118 1.389 . S
C146 C121 1.395 . S
C146 C123 1.391 . S
H147 C107 0.951 . S
H148 C108 0.950 . S
H149 C114 0.949 . S
H150 C115 0.950 . S
H151 C119 0.951 . S
H152 C120 0.950 . S
H153 C124 0.949 . S
H154 C125 0.950 . S
H155 C129 0.950 . S
H156 C131 0.950 1_565 S
H157 C134 0.950 . S
H158 C136 0.950 . S
C159 C160 1.443 . S
C159 N163 1.376 . S
C159 C197 1.389 . S
C160 C159 1.443 . S
C160 C161 1.340 . S
C160 H200 0.951 . S
C161 C160 1.340 . S
C161 C162 1.439 . S
C161 H201 0.950 . S
C162 C161 1.439 . S
C162 N163 1.374 . S
C162 C196 1.395 . S
N163 C159 1.376 . S
N163 C162 1.374 . S
N163 Co164 2.008 . S
Co164 N163 2.008 . S
Co164 N165 1.995 . S
Co164 N170 2.008 . S
Co164 N175 1.995 . S
Co164 N180 2.282 . S
Co164 N186 2.282 . S
N165 Co164 1.995 . S
N165 C166 1.376 . S
N165 C169 1.383 . S
C166 N165 1.376 . S
C166 C167 1.446 . S
C166 C196 1.391 . S
C167 C166 1.446 . S
C167 C168 1.339 . S
C167 H202 0.949 . S
C168 C167 1.339 . S
C168 C169 1.439 . S
C168 H203 0.950 . S
C169 N165 1.383 . S
C169 C168 1.439 . S
C169 C198 1.392 . S
N170 Co164 2.008 . S
N170 C171 1.376 . S
N170 C174 1.374 . S
C171 N170 1.376 . S
C171 C172 1.443 . S
C171 C198 1.389 . S
C172 C171 1.443 . S
C172 C173 1.340 . S
C172 H204 0.951 . S
C173 C172 1.340 . S
C173 C174 1.439 . S
C173 H205 0.950 . S
C174 N170 1.374 . S
C174 C173 1.439 . S
C174 C199 1.395 . S
N175 Co164 1.995 . S
N175 C176 1.376 . S
N175 C179 1.383 . S
C176 N175 1.376 . S
C176 C177 1.446 . S
C176 C199 1.391 . S
C177 C176 1.446 . S
C177 C178 1.339 . S
C177 H206 0.949 . S
C178 C177 1.339 . S
C178 C179 1.439 . S
C178 H207 0.950 . S
C179 N175 1.383 . S
C179 C178 1.439 . S
C179 C197 1.392 . S
N180 Co164 2.282 . S
N180 C183 1.332 . S
N180 C185 1.332 . S
C181 C182 1.386 . S
C181 C184 1.388 . S
C182 C181 1.386 . S
C182 C183 1.382 . S
C182 H208 0.950 . S
C183 N180 1.332 . S
C183 C182 1.382 . S
C183 H194 0.952 . S
C184 C181 1.388 . S
C184 C185 1.382 . S
C184 H209 0.950 . S
C185 N180 1.332 . S
C185 C184 1.382 . S
C185 H195 0.948 . S
N186 Co164 2.282 . S
N186 C190 1.332 . S
N186 C191 1.332 . S
C187 C188 1.388 . S
C187 C191 1.382 . S
C187 H210 0.950 . S
C188 C187 1.388 . S
C188 C189 1.386 . S
C189 C188 1.386 . S
C189 C190 1.382 . S
C189 H211 0.950 . S
C190 N186 1.332 . S
C190 C189 1.382 . S
C190 H192 0.952 . S
C191 N186 1.332 . S
C191 C187 1.382 . S
C191 H193 0.948 . S
H192 C190 0.952 . S
H193 C191 0.948 . S
H194 C183 0.952 . S
H195 C185 0.948 . S
C196 C162 1.395 . S
C196 C166 1.391 . S
C197 C159 1.389 . S
C197 C179 1.392 . S
C198 C169 1.392 . S
C198 C171 1.389 . S
C199 C174 1.395 . S
C199 C176 1.391 . S
H200 C160 0.951 . S
H201 C161 0.950 . S
H202 C167 0.949 . S
H203 C168 0.950 . S
H204 C172 0.951 . S
H205 C173 0.950 . S
H206 C177 0.949 . S
H207 C178 0.950 . S
H208 C182 0.950 . S
H209 C184 0.950 . S
H210 C187 0.950 . S
H211 C189 0.950 . S
C212 C213 1.443 . S
C212 N216 1.376 . S
C212 C250 1.389 . S
C213 C212 1.443 . S
C213 C214 1.340 . S
C213 H253 0.951 . S
C214 C213 1.340 . S
C214 C215 1.439 . S
C214 H254 0.950 . S
C215 C214 1.439 . S
C215 N216 1.374 . S
C215 C249 1.395 . S
N216 C212 1.376 . S
N216 C215 1.374 . S
N216 Co217 2.008 1_556 S
Co217 N216 2.008 1_554 S
Co217 N218 1.995 1_554 S
Co217 N223 2.008 . S
Co217 N228 1.995 . S
Co217 N233 2.282 . S
Co217 N239 2.282 1_554 S
N218 Co217 1.995 1_556 S
N218 C219 1.376 . S
N218 C222 1.383 . S
C219 N218 1.376 . S
C219 C220 1.446 . S
C219 C249 1.391 . S
C220 C219 1.446 . S
C220 C221 1.339 . S
C220 H255 0.949 . S
C221 C220 1.339 . S
C221 C222 1.439 . S
C221 H256 0.950 . S
C222 N218 1.383 . S
C222 C221 1.439 . S
C222 C251 1.392 1_556 S
N223 Co217 2.008 . S
N223 C224 1.376 . S
N223 C227 1.374 . S
C224 N223 1.376 . S
C224 C225 1.443 . S
C224 C251 1.389 . S
C225 C224 1.443 . S
C225 C226 1.340 . S
C225 H257 0.951 . S
C226 C225 1.340 . S
C226 C227 1.439 . S
C226 H258 0.950 . S
C227 N223 1.374 . S
C227 C226 1.439 . S
C227 C252 1.395 . S
N228 Co217 1.995 . S
N228 C229 1.376 . S
N228 C232 1.383 . S
C229 N228 1.376 . S
C229 C230 1.446 . S
C229 C252 1.391 . S
C230 C229 1.446 . S
C230 C231 1.339 . S
C230 H259 0.949 . S
C231 C230 1.339 . S
C231 C232 1.439 . S
C231 H260 0.950 . S
C232 N228 1.383 . S
C232 C231 1.439 . S
C232 C250 1.392 1_554 S
N233 Co217 2.282 . S
N233 C236 1.332 . S
N233 C238 1.332 1_554 S
C234 C235 1.386 . S
C234 C237 1.388 1_554 S
C235 C234 1.386 . S
C235 C236 1.382 . S
C235 H261 0.950 . S
C236 N233 1.332 . S
C236 C235 1.382 . S
C236 H247 0.952 . S
C237 C234 1.388 1_556 S
C237 C238 1.382 . S
C237 H262 0.950 . S
C238 N233 1.332 1_556 S
C238 C237 1.382 . S
C238 H248 0.948 . S
N239 Co217 2.282 1_556 S
N239 C243 1.332 . S
N239 C244 1.332 1_556 S
C240 C241 1.388 1_554 S
C240 C244 1.382 . S
C240 H263 0.950 . S
C241 C240 1.388 1_556 S
C241 C242 1.386 . S
C242 C241 1.386 . S
C242 C243 1.382 . S
C242 H264 0.950 . S
C243 N239 1.332 . S
C243 C242 1.382 . S
C243 H245 0.952 . S
C244 N239 1.332 1_554 S
C244 C240 1.382 . S
C244 H246 0.948 . S
H245 C243 0.952 . S
H246 C244 0.948 . S
H247 C236 0.952 . S
H248 C238 0.948 . S
C249 C215 1.395 . S
C249 C219 1.391 . S
C250 C212 1.389 . S
C250 C232 1.392 1_556 S
C251 C222 1.392 1_554 S
C251 C224 1.389 . S
C252 C227 1.395 . S
C252 C229 1.391 . S
H253 C213 0.951 . S
H254 C214 0.950 . S
H255 C220 0.949 . S
H256 C221 0.950 . S
H257 C225 0.951 . S
H258 C226 0.950 . S
H259 C230 0.949 . S
H260 C231 0.950 . S
H261 C235 0.950 . S
H262 C237 0.950 . S
H263 C240 0.950 . S
H264 C242 0.950 . S
C265 C266 1.443 . S
C265 N269 1.376 . S
C265 C303 1.389 . S
C266 C265 1.443 . S
C266 C267 1.340 . S
C266 H306 0.951 . S
C267 C266 1.340 . S
C267 C268 1.439 . S
C267 H307 0.950 . S
C268 C267 1.439 . S
C268 N269 1.374 . S
C268 C302 1.395 . S
N269 C265 1.376 . S
N269 C268 1.374 . S
N269 Co270 2.008 . S
Co270 N269 2.008 . S
Co270 N271 1.995 . S
Co270 N276 2.008 . S
Co270 N281 1.995 . S
Co270 N286 2.282 . S
Co270 N292 2.282 . S
N271 Co270 1.995 . S
N271 C272 1.376 . S
N271 C275 1.383 . S
C272 N271 1.376 . S
C272 C273 1.446 . S
C272 C302 1.391 . S
C273 C272 1.446 . S
C273 C274 1.339 . S
C273 H308 0.949 . S
C274 C273 1.339 . S
C274 C275 1.439 . S
C274 H309 0.950 . S
C275 N271 1.383 . S
C275 C274 1.439 . S
C275 C304 1.392 . S
N276 Co270 2.008 . S
N276 C277 1.376 . S
N276 C280 1.374 . S
C277 N276 1.376 . S
C277 C278 1.443 . S
C277 C304 1.389 . S
C278 C277 1.443 . S
C278 C279 1.340 . S
C278 H310 0.951 . S
C279 C278 1.340 . S
C279 C280 1.439 . S
C279 H311 0.950 . S
C280 N276 1.374 . S
C280 C279 1.439 . S
C280 C305 1.395 . S
N281 Co270 1.995 . S
N281 C282 1.376 . S
N281 C285 1.383 . S
C282 N281 1.376 . S
C282 C283 1.446 . S
C282 C305 1.391 . S
C283 C282 1.446 . S
C283 C284 1.339 . S
C283 H312 0.949 . S
C284 C283 1.339 . S
C284 C285 1.439 . S
C284 H313 0.950 . S
C285 N281 1.383 . S
C285 C284 1.439 . S
C285 C303 1.392 . S
N286 Co270 2.282 . S
N286 C289 1.332 . S
N286 C291 1.332 . S
C287 C288 1.386 . S
C287 C290 1.388 . S
C288 C287 1.386 . S
C288 C289 1.382 . S
C288 H314 0.950 . S
C289 N286 1.332 . S
C289 C288 1.382 . S
C289 H300 0.952 . S
C290 C287 1.388 . S
C290 C291 1.382 . S
C290 H315 0.950 . S
C291 N286 1.332 . S
C291 C290 1.382 . S
C291 H301 0.948 . S
N292 Co270 2.282 . S
N292 C296 1.332 . S
N292 C297 1.332 . S
C293 C294 1.388 . S
C293 C297 1.382 . S
C293 H316 0.950 . S
C294 C293 1.388 . S
C294 C295 1.386 . S
C295 C294 1.386 . S
C295 C296 1.382 . S
C295 H317 0.950 . S
C296 N292 1.332 . S
C296 C295 1.382 . S
C296 H298 0.952 . S
C297 N292 1.332 . S
C297 C293 1.382 . S
C297 H299 0.948 . S
H298 C296 0.952 . S
H299 C297 0.948 . S
H300 C289 0.952 . S
H301 C291 0.948 . S
C302 C268 1.395 . S
C302 C272 1.391 . S
C303 C265 1.389 . S
C303 C285 1.392 . S
C304 C275 1.392 . S
C304 C277 1.389 . S
C305 C280 1.395 . S
C305 C282 1.391 . S
H306 C266 0.951 . S
H307 C267 0.950 . S
H308 C273 0.949 . S
H309 C274 0.950 . S
H310 C278 0.951 . S
H311 C279 0.950 . S
H312 C283 0.949 . S
H313 C284 0.950 . S
H314 C288 0.950 . S
H315 C290 0.950 . S
H316 C293 0.950 . S
H317 C295 0.950 . S
C318 C319 1.443 . S
C318 N322 1.376 . S
C318 C356 1.389 . S
C319 C318 1.443 . S
C319 C320 1.340 . S
C319 H359 0.951 . S
C320 C319 1.340 . S
C320 C321 1.439 . S
C320 H360 0.950 . S
C321 C320 1.439 . S
C321 N322 1.374 . S
C321 C355 1.395 . S
N322 C318 1.376 . S
N322 C321 1.374 . S
N322 Co323 2.008 . S
Co323 N322 2.008 . S
Co323 N324 1.995 . S
Co323 N329 2.008 . S
Co323 N334 1.995 . S
Co323 N339 2.282 . S
Co323 N345 2.282 . S
N324 Co323 1.995 . S
N324 C325 1.376 . S
N324 C328 1.383 . S
C325 N324 1.376 . S
C325 C326 1.446 . S
C325 C355 1.391 . S
C326 C325 1.446 . S
C326 C327 1.339 . S
C326 H361 0.949 . S
C327 C326 1.339 . S
C327 C328 1.439 . S
C327 H362 0.950 . S
C328 N324 1.383 . S
C328 C327 1.439 . S
C328 C357 1.392 . S
N329 Co323 2.008 . S
N329 C330 1.376 . S
N329 C333 1.374 . S
C330 N329 1.376 . S
C330 C331 1.443 . S
C330 C357 1.389 . S
C331 C330 1.443 . S
C331 C332 1.340 . S
C331 H363 0.951 . S
C332 C331 1.340 . S
C332 C333 1.439 . S
C332 H364 0.950 . S
C333 N329 1.374 . S
C333 C332 1.439 . S
C333 C358 1.395 . S
N334 Co323 1.995 . S
N334 C335 1.376 . S
N334 C338 1.383 . S
C335 N334 1.376 . S
C335 C336 1.446 . S
C335 C358 1.391 . S
C336 C335 1.446 . S
C336 C337 1.339 . S
C336 H365 0.949 . S
C337 C336 1.339 . S
C337 C338 1.439 . S
C337 H366 0.950 . S
C338 N334 1.383 . S
C338 C337 1.439 . S
C338 C356 1.392 . S
N339 Co323 2.282 . S
N339 C342 1.332 . S
N339 C344 1.332 . S
C340 C341 1.386 . S
C340 C343 1.388 . S
C341 C340 1.386 . S
C341 C342 1.382 . S
C341 H367 0.950 . S
C342 N339 1.332 . S
C342 C341 1.382 . S
C342 H353 0.952 . S
C343 C340 1.388 . S
C343 C344 1.382 . S
C343 H368 0.950 . S
C344 N339 1.332 . S
C344 C343 1.382 . S
C344 H354 0.948 . S
N345 Co323 2.282 . S
N345 C349 1.332 . S
N345 C350 1.332 . S
C346 C347 1.388 . S
C346 C350 1.382 . S
C346 H369 0.950 . S
C347 C346 1.388 . S
C347 C348 1.386 . S
C348 C347 1.386 . S
C348 C349 1.382 . S
C348 H370 0.950 . S
C349 N345 1.332 . S
C349 C348 1.382 . S
C349 H351 0.952 . S
C350 N345 1.332 . S
C350 C346 1.382 . S
C350 H352 0.948 . S
H351 C349 0.952 . S
H352 C350 0.948 . S
H353 C342 0.952 . S
H354 C344 0.948 . S
C355 C321 1.395 . S
C355 C325 1.391 . S
C356 C318 1.389 . S
C356 C338 1.392 . S
C357 C328 1.392 . S
C357 C330 1.389 . S
C358 C333 1.395 . S
C358 C335 1.391 . S
H359 C319 0.951 . S
H360 C320 0.950 . S
H361 C326 0.949 . S
H362 C327 0.950 . S
H363 C331 0.951 . S
H364 C332 0.950 . S
H365 C336 0.949 . S
H366 C337 0.950 . S
H367 C341 0.950 . S
H368 C343 0.950 . S
H369 C346 0.950 . S
H370 C348 0.950 . S
C371 C372 1.443 . S
C371 N375 1.376 . S
C371 C409 1.389 . S
C372 C371 1.443 . S
C372 C373 1.340 . S
C372 H412 0.951 . S
C373 C372 1.340 . S
C373 C374 1.439 . S
C373 H413 0.950 . S
C374 C373 1.439 . S
C374 N375 1.374 . S
C374 C408 1.395 . S
N375 C371 1.376 . S
N375 C374 1.374 . S
N375 Co376 2.008 . S
Co376 N375 2.008 . S
Co376 N377 1.995 . S
Co376 N382 2.008 . S
Co376 N387 1.995 . S
Co376 N392 2.282 . S
Co376 N398 2.282 . S
N377 Co376 1.995 . S
N377 C378 1.376 . S
N377 C381 1.383 . S
C378 N377 1.376 . S
C378 C379 1.446 . S
C378 C408 1.391 . S
C379 C378 1.446 . S
C379 C380 1.339 . S
C379 H414 0.949 . S
C380 C379 1.339 . S
C380 C381 1.439 . S
C380 H415 0.950 . S
C381 N377 1.383 . S
C381 C380 1.439 . S
C381 C410 1.392 . S
N382 Co376 2.008 . S
N382 C383 1.376 . S
N382 C386 1.374 . S
C383 N382 1.376 . S
C383 C384 1.443 . S
C383 C410 1.389 . S
C384 C383 1.443 . S
C384 C385 1.340 . S
C384 H416 0.951 . S
C385 C384 1.340 . S
C385 C386 1.439 . S
C385 H417 0.950 . S
C386 N382 1.374 . S
C386 C385 1.439 . S
C386 C411 1.395 . S
N387 Co376 1.995 . S
N387 C388 1.376 . S
N387 C391 1.383 . S
C388 N387 1.376 . S
C388 C389 1.446 . S
C388 C411 1.391 . S
C389 C388 1.446 . S
C389 C390 1.339 . S
C389 H418 0.949 . S
C390 C389 1.339 . S
C390 C391 1.439 . S
C390 H419 0.950 . S
C391 N387 1.383 . S
C391 C390 1.439 . S
C391 C409 1.392 . S
N392 Co376 2.282 . S
N392 C395 1.332 . S
N392 C397 1.332 . S
C393 C394 1.386 . S
C393 C396 1.388 . S
C394 C393 1.386 . S
C394 C395 1.382 . S
C394 H420 0.950 . S
C395 N392 1.332 . S
C395 C394 1.382 . S
C395 H406 0.952 . S
C396 C393 1.388 . S
C396 C397 1.382 . S
C396 H421 0.950 . S
C397 N392 1.332 . S
C397 C396 1.382 . S
C397 H407 0.948 . S
N398 Co376 2.282 . S
N398 C402 1.332 . S
N398 C403 1.332 . S
C399 C400 1.388 . S
C399 C403 1.382 . S
C399 H422 0.950 . S
C400 C399 1.388 . S
C400 C401 1.386 . S
C401 C400 1.386 . S
C401 C402 1.382 . S
C401 H423 0.950 . S
C402 N398 1.332 . S
C402 C401 1.382 . S
C402 H404 0.952 . S
C403 N398 1.332 . S
C403 C399 1.382 . S
C403 H405 0.948 . S
H404 C402 0.952 . S
H405 C403 0.948 . S
H406 C395 0.952 . S
H407 C397 0.948 . S
C408 C374 1.395 . S
C408 C378 1.391 . S
C409 C371 1.389 . S
C409 C391 1.392 . S
C410 C381 1.392 . S
C410 C383 1.389 . S
C411 C386 1.395 . S
C411 C388 1.391 . S
H412 C372 0.951 . S
H413 C373 0.950 . S
H414 C379 0.949 . S
H415 C380 0.950 . S
H416 C384 0.951 . S
H417 C385 0.950 . S
H418 C389 0.949 . S
H419 C390 0.950 . S
H420 C394 0.950 . S
H421 C396 0.950 . S
H422 C399 0.950 . S
H423 C401 0.950 . S
C424 C425 1.443 . S
C424 N428 1.376 . S
C424 C462 1.389 . S
C425 C424 1.443 . S
C425 C426 1.340 . S
C425 H465 0.951 . S
C426 C425 1.340 . S
C426 C427 1.439 . S
C426 H466 0.950 . S
C427 C426 1.439 . S
C427 N428 1.374 . S
C427 C461 1.395 . S
N428 C424 1.376 . S
N428 C427 1.374 . S
N428 Co429 2.008 . S
Co429 N428 2.008 . S
Co429 N430 1.995 . S
Co429 N435 2.008 . S
Co429 N440 1.995 . S
Co429 N445 2.282 . S
Co429 N451 2.282 . S
N430 Co429 1.995 . S
N430 C431 1.376 . S
N430 C434 1.383 . S
C431 N430 1.376 . S
C431 C432 1.446 . S
C431 C461 1.391 . S
C432 C431 1.446 . S
C432 C433 1.339 . S
C432 H467 0.949 . S
C433 C432 1.339 . S
C433 C434 1.439 . S
C433 H468 0.950 . S
C434 N430 1.383 . S
C434 C433 1.439 . S
C434 C463 1.392 . S
N435 Co429 2.008 . S
N435 C436 1.376 . S
N435 C439 1.374 . S
C436 N435 1.376 . S
C436 C437 1.443 . S
C436 C463 1.389 . S
C437 C436 1.443 . S
C437 C438 1.340 . S
C437 H469 0.951 . S
C438 C437 1.340 . S
C438 C439 1.439 . S
C438 H470 0.950 . S
C439 N435 1.374 . S
C439 C438 1.439 . S
C439 C464 1.395 . S
N440 Co429 1.995 . S
N440 C441 1.376 . S
N440 C444 1.383 . S
C441 N440 1.376 . S
C441 C442 1.446 . S
C441 C464 1.391 . S
C442 C441 1.446 . S
C442 C443 1.339 . S
C442 H471 0.949 . S
C443 C442 1.339 . S
C443 C444 1.439 . S
C443 H472 0.950 . S
C444 N440 1.383 . S
C444 C443 1.439 . S
C444 C462 1.392 . S
N445 Co429 2.282 . S
N445 C448 1.332 . S
N445 C450 1.332 . S
C446 C447 1.386 . S
C446 C449 1.388 . S
C447 C446 1.386 . S
C447 C448 1.382 . S
C447 H473 0.950 . S
C448 N445 1.332 . S
C448 C447 1.382 . S
C448 H459 0.952 . S
C449 C446 1.388 . S
C449 C450 1.382 . S
C449 H474 0.950 . S
C450 N445 1.332 . S
C450 C449 1.382 . S
C450 H460 0.948 . S
N451 Co429 2.282 . S
N451 C455 1.332 . S
N451 C456 1.332 . S
C452 C453 1.388 . S
C452 C456 1.382 . S
C452 H475 0.950 . S
C453 C452 1.388 . S
C453 C454 1.386 . S
C454 C453 1.386 . S
C454 C455 1.382 . S
C454 H476 0.950 . S
C455 N451 1.332 . S
C455 C454 1.382 . S
C455 H457 0.952 . S
C456 N451 1.332 . S
C456 C452 1.382 . S
C456 H458 0.948 . S
H457 C455 0.952 . S
H458 C456 0.948 . S
H459 C448 0.952 . S
H460 C450 0.948 . S
C461 C427 1.395 . S
C461 C431 1.391 . S
C462 C424 1.389 . S
C462 C444 1.392 . S
C463 C434 1.392 . S
C463 C436 1.389 . S
C464 C439 1.395 . S
C464 C441 1.391 . S
H465 C425 0.951 . S
H466 C426 0.950 . S
H467 C432 0.949 . S
H468 C433 0.950 . S
H469 C437 0.951 . S
H470 C438 0.950 . S
H471 C442 0.949 . S
H472 C443 0.950 . S
H473 C447 0.950 . S
H474 C449 0.950 . S
H475 C452 0.950 . S
H476 C454 0.950 . S
C477 C478 1.443 . S
C477 N481 1.376 . S
C477 C515 1.389 . S
C478 C477 1.443 . S
C478 C479 1.340 . S
C478 H518 0.951 . S
C479 C478 1.340 . S
C479 C480 1.439 . S
C479 H519 0.950 . S
C480 C479 1.439 . S
C480 N481 1.374 . S
C480 C514 1.395 . S
N481 C477 1.376 . S
N481 C480 1.374 . S
N481 Co482 2.008 . S
Co482 N481 2.008 . S
Co482 N483 1.995 . S
Co482 N488 2.008 . S
Co482 N493 1.995 . S
Co482 N498 2.282 . S
Co482 N504 2.282 . S
N483 Co482 1.995 . S
N483 C484 1.376 . S
N483 C487 1.383 . S
C484 N483 1.376 . S
C484 C485 1.446 . S
C484 C514 1.391 . S
C485 C484 1.446 . S
C485 C486 1.339 . S
C485 H520 0.949 . S
C486 C485 1.339 . S
C486 C487 1.439 . S
C486 H521 0.950 . S
C487 N483 1.383 . S
C487 C486 1.439 . S
C487 C516 1.392 . S
N488 Co482 2.008 . S
N488 C489 1.376 . S
N488 C492 1.374 . S
C489 N488 1.376 . S
C489 C490 1.443 . S
C489 C516 1.389 . S
C490 C489 1.443 . S
C490 C491 1.340 . S
C490 H522 0.951 . S
C491 C490 1.340 . S
C491 C492 1.439 . S
C491 H523 0.950 . S
C492 N488 1.374 . S
C492 C491 1.439 . S
C492 C517 1.395 . S
N493 Co482 1.995 . S
N493 C494 1.376 . S
N493 C497 1.383 . S
C494 N493 1.376 . S
C494 C495 1.446 . S
C494 C517 1.391 . S
C495 C494 1.446 . S
C495 C496 1.339 . S
C495 H524 0.949 . S
C496 C495 1.339 . S
C496 C497 1.439 . S
C496 H525 0.950 . S
C497 N493 1.383 . S
C497 C496 1.439 . S
C497 C515 1.392 . S
N498 Co482 2.282 . S
N498 C501 1.332 . S
N498 C503 1.332 . S
C499 C500 1.386 . S
C499 C502 1.388 . S
C500 C499 1.386 . S
C500 C501 1.382 . S
C500 H526 0.950 . S
C501 N498 1.332 . S
C501 C500 1.382 . S
C501 H512 0.952 . S
C502 C499 1.388 . S
C502 C503 1.382 . S
C502 H527 0.950 . S
C503 N498 1.332 . S
C503 C502 1.382 . S
C503 H513 0.948 . S
N504 Co482 2.282 . S
N504 C508 1.332 . S
N504 C509 1.332 . S
C505 C506 1.388 . S
C505 C509 1.382 . S
C505 H528 0.950 . S
C506 C505 1.388 . S
C506 C507 1.386 . S
C507 C506 1.386 . S
C507 C508 1.382 . S
C507 H529 0.950 . S
C508 N504 1.332 . S
C508 C507 1.382 . S
C508 H510 0.952 . S
C509 N504 1.332 . S
C509 C505 1.382 . S
C509 H511 0.948 . S
H510 C508 0.952 . S
H511 C509 0.948 . S
H512 C501 0.952 . S
H513 C503 0.948 . S
C514 C480 1.395 . S
C514 C484 1.391 . S
C515 C477 1.389 . S
C515 C497 1.392 . S
C516 C487 1.392 . S
C516 C489 1.389 . S
C517 C492 1.395 . S
C517 C494 1.391 . S
H518 C478 0.951 . S
H519 C479 0.950 . S
H520 C485 0.949 . S
H521 C486 0.950 . S
H522 C490 0.951 . S
H523 C491 0.950 . S
H524 C495 0.949 . S
H525 C496 0.950 . S
H526 C500 0.950 . S
H527 C502 0.950 . S
H528 C505 0.950 . S
H529 C507 0.950 . S
C530 C531 1.443 . S
C530 N534 1.376 . S
C530 C568 1.389 . S
C531 C530 1.443 . S
C531 C532 1.340 . S
C531 H571 0.951 . S
C532 C531 1.340 . S
C532 C533 1.439 . S
C532 H572 0.950 . S
C533 C532 1.439 . S
C533 N534 1.374 . S
C533 C567 1.395 . S
N534 C530 1.376 . S
N534 C533 1.374 . S
N534 Co535 2.008 . S
Co535 N534 2.008 . S
Co535 N536 1.995 . S
Co535 N541 2.008 1_545 S
Co535 N546 1.995 1_545 S
Co535 N551 2.277 1_545 S
Co535 N557 2.282 . S
N536 Co535 1.995 . S
N536 C537 1.376 . S
N536 C540 1.383 . S
C537 N536 1.376 . S
C537 C538 1.446 . S
C537 C567 1.391 . S
C538 C537 1.446 . S
C538 C539 1.339 . S
C538 H573 0.949 . S
C539 C538 1.339 . S
C539 C540 1.439 . S
C539 H574 0.950 . S
C540 N536 1.383 . S
C540 C539 1.439 . S
C540 C569 1.392 1_545 S
N541 Co535 2.008 1_565 S
N541 C542 1.376 . S
N541 C545 1.374 . S
C542 N541 1.376 . S
C542 C543 1.443 . S
C542 C569 1.389 . S
C543 C542 1.443 . S
C543 C544 1.340 . S
C543 H575 0.951 . S
C544 C543 1.340 . S
C544 C545 1.439 . S
C544 H576 0.950 . S
C545 N541 1.374 . S
C545 C544 1.439 . S
C545 C570 1.395 . S
N546 Co535 1.995 1_565 S
N546 C547 1.376 . S
N546 C550 1.383 . S
C547 N546 1.376 . S
C547 C548 1.446 . S
C547 C570 1.391 . S
C548 C547 1.446 . S
C548 C549 1.339 . S
C548 H577 0.949 . S
C549 C548 1.339 . S
C549 C550 1.439 . S
C549 H578 0.950 . S
C550 N546 1.383 . S
C550 C549 1.439 . S
C550 C568 1.392 1_565 S
N551 Co535 2.277 1_565 S
N551 C554 1.370 . S
N551 C556 1.305 1_565 S
C552 C553 1.386 . S
C552 C555 1.388 1_565 S
C553 C552 1.386 . S
C553 C554 1.382 . S
C553 H579 0.950 . S
C554 N551 1.370 . S
C554 C553 1.382 . S
C554 H565 0.952 . S
C555 C552 1.388 1_545 S
C555 C556 1.382 . S
C555 H580 0.950 . S
C556 N551 1.305 1_545 S
C556 C555 1.382 . S
C556 H566 0.948 . S
N557 Co535 2.282 . S
N557 C561 1.332 . S
N557 C562 1.332 1_545 S
C558 C559 1.388 1_565 S
C558 C562 1.382 . S
C558 H581 0.950 . S
C559 C558 1.388 1_545 S
C559 C560 1.386 . S
C560 C559 1.386 . S
C560 C561 1.382 . S
C560 H582 0.950 . S
C561 N557 1.332 . S
C561 C560 1.382 . S
C561 H563 0.952 . S
C562 N557 1.332 1_565 S
C562 C558 1.382 . S
C562 H564 0.948 . S
H563 C561 0.952 . S
H564 C562 0.948 . S
H565 C554 0.952 . S
H566 C556 0.948 . S
C567 C533 1.395 . S
C567 C537 1.391 . S
C568 C530 1.389 . S
C568 C550 1.392 1_545 S
C569 C540 1.392 1_565 S
C569 C542 1.389 . S
C570 C545 1.395 . S
C570 C547 1.391 . S
H571 C531 0.951 . S
H572 C532 0.950 . S
H573 C538 0.949 . S
H574 C539 0.950 . S
H575 C543 0.951 . S
H576 C544 0.950 . S
H577 C548 0.949 . S
H578 C549 0.950 . S
H579 C553 0.950 . S
H580 C555 0.950 . S
H581 C558 0.950 . S
H582 C560 0.950 . S
C583 C584 1.443 . S
C583 N587 1.376 . S
C583 C621 1.422 . S
C584 C583 1.443 . S
C584 C585 1.340 . S
C584 H624 0.951 . S
C585 C584 1.340 . S
C585 C586 1.439 . S
C585 H625 0.950 . S
C586 C585 1.439 . S
C586 N587 1.374 . S
C586 C620 1.395 . S
N587 C583 1.376 . S
N587 C586 1.374 . S
N587 Co588 2.008 1_556 S
Co588 N587 2.008 1_554 S
Co588 N589 1.995 1_554 S
Co588 N594 2.008 . S
Co588 N599 1.995 . S
Co588 N604 2.282 . S
Co588 N610 2.282 . S
N589 Co588 1.995 1_556 S
N589 C590 1.376 . S
N589 C593 1.383 . S
C590 N589 1.376 . S
C590 C591 1.446 . S
C590 C620 1.391 . S
C591 C590 1.446 . S
C591 C592 1.339 . S
C591 H626 0.949 . S
C592 C591 1.339 . S
C592 C593 1.439 . S
C592 H627 0.950 . S
C593 N589 1.383 . S
C593 C592 1.439 . S
C593 C622 1.392 1_556 S
N594 Co588 2.008 . S
N594 C595 1.376 . S
N594 C598 1.374 . S
C595 N594 1.376 . S
C595 C596 1.443 . S
C595 C622 1.389 . S
C596 C595 1.443 . S
C596 C597 1.340 . S
C596 H628 0.951 . S
C597 C596 1.340 . S
C597 C598 1.439 . S
C597 H629 0.950 . S
C598 N594 1.374 . S
C598 C597 1.439 . S
C598 C623 1.395 . S
N599 Co588 1.995 . S
N599 C600 1.376 . S
N599 C603 1.383 . S
C600 N599 1.376 . S
C600 C601 1.446 . S
C600 C623 1.391 . S
C601 C600 1.446 . S
C601 C602 1.339 . S
C601 H630 0.949 . S
C602 C601 1.339 . S
C602 C603 1.439 . S
C602 H631 0.950 . S
C603 N599 1.383 . S
C603 C602 1.439 . S
C603 C621 1.348 1_554 S
N604 Co588 2.282 . S
N604 C607 1.332 . S
N604 C609 1.330 . S
C605 C606 1.386 . S
C605 C608 1.388 . S
C606 C605 1.386 . S
C606 C607 1.382 . S
C606 H632 0.950 . S
C607 N604 1.332 . S
C607 C606 1.382 . S
C607 H618 0.952 . S
C608 C605 1.388 . S
C608 C609 1.382 . S
C608 H633 0.950 1_554 S
C609 N604 1.330 . S
C609 C608 1.382 . S
C609 H619 0.951 1_554 S
N610 Co588 2.282 . S
N610 C614 1.332 1_554 S
N610 C615 1.332 . S
C611 C612 1.388 1_554 S
C611 C615 1.382 . S
C611 H634 0.950 . S
C612 C611 1.388 1_556 S
C612 C613 1.386 . S
C613 C612 1.386 . S
C613 C614 1.382 . S
C613 H635 0.950 . S
C614 N610 1.332 1_556 S
C614 C613 1.382 . S
C614 H616 0.952 . S
C615 N610 1.332 . S
C615 C611 1.382 . S
C615 H617 0.948 . S
H616 C614 0.952 . S
H617 C615 0.948 . S
H618 C607 0.952 . S
H619 C609 0.951 1_556 S
C620 C586 1.395 . S
C620 C590 1.391 . S
C621 C583 1.422 . S
C621 C603 1.348 1_556 S
C622 C593 1.392 1_554 S
C622 C595 1.389 . S
C623 C598 1.395 . S
C623 C600 1.391 . S
H624 C584 0.951 . S
H625 C585 0.950 . S
H626 C591 0.949 . S
H627 C592 0.950 . S
H628 C596 0.951 . S
H629 C597 0.950 . S
H630 C601 0.949 . S
H631 C602 0.950 . S
H632 C606 0.950 . S
H633 C608 0.950 1_556 S
H634 C611 0.950 . S
H635 C613 0.950 . S
C636 O652 1.251 . S
C636 O654 1.254 . S
N637 C638 1.333 . S
N637 C642 1.307 1_554 S
N637 Zn643 2.020 . S
C638 N637 1.333 . S
C638 C639 1.379 1_554 S
C638 H656 0.952 . S
C639 C638 1.379 1_556 S
C639 C640 1.390 . S
C639 H666 0.949 . S
C640 C639 1.390 . S
C640 C641 1.357 . S
C641 C640 1.357 . S
C641 C642 1.370 . S
C641 H667 0.950 . S
C642 N637 1.307 1_556 S
C642 C641 1.370 . S
C642 H660 0.948 1_556 S
Zn643 N637 2.020 . S
Zn643 O652 2.039 . S
Zn643 O658 2.034 . S
Zn643 O662 2.025 . S
Zn643 O664 2.024 . S
C644 O663 1.246 . S
C644 O664 1.249 . S
N645 C646 1.307 . S
N645 C647 1.333 . S
N645 Zn651 2.020 . S
C646 N645 1.307 . S
C646 C650 1.370 . S
C646 H657 0.948 . S
C647 N645 1.333 . S
C647 C648 1.379 . S
C647 H655 0.952 . S
C648 C647 1.379 . S
C648 C649 1.390 . S
C648 H668 0.949 . S
C649 C648 1.390 . S
C649 C650 1.357 . S
C650 C646 1.370 . S
C650 C649 1.357 . S
C650 H669 0.950 . S
Zn651 N645 2.020 . S
Zn651 O654 2.025 . S
Zn651 O659 2.024 . S
Zn651 O661 2.039 . S
Zn651 O663 2.034 . S
O652 C636 1.251 . S
O652 Zn643 2.039 . S
C653 O658 1.246 . S
C653 O659 1.249 . S
O654 C636 1.254 . S
O654 Zn651 2.025 . S
H655 C647 0.952 . S
H656 C638 0.952 . S
H657 C646 0.948 . S
O658 Zn643 2.034 . S
O658 C653 1.246 . S
O659 Zn651 2.024 . S
O659 C653 1.249 . S
H660 C642 0.948 1_554 S
O661 Zn651 2.039 . S
O661 C665 1.251 . S
O662 Zn643 2.025 . S
O662 C665 1.254 . S
O663 C644 1.246 . S
O663 Zn651 2.034 . S
O664 Zn643 2.024 . S
O664 C644 1.249 . S
C665 O661 1.251 . S
C665 O662 1.254 . S
H666 C639 0.949 . S
H667 C641 0.950 . S
H668 C648 0.949 . S
H669 C650 0.950 . S
C670 O686 1.251 . S
C670 O688 1.254 . S
N671 C672 1.333 . S
N671 C676 1.307 . S
N671 Zn677 2.020 1_556 S
C672 N671 1.333 . S
C672 C673 1.379 . S
C672 H690 0.952 1_556 S
C673 C672 1.379 . S
C673 C674 1.390 . S
C673 H700 0.949 . S
C674 C673 1.390 . S
C674 C675 1.357 . S
C675 C674 1.357 . S
C675 C676 1.370 . S
C675 H701 0.950 . S
C676 N671 1.307 . S
C676 C675 1.370 . S
C676 H694 0.948 . S
Zn677 N671 2.020 1_554 S
Zn677 O686 2.039 . S
Zn677 O692 2.034 . S
Zn677 O696 2.025 . S
Zn677 O698 2.024 . S
C678 O697 1.246 . S
C678 O698 1.249 . S
N679 C680 1.307 . S
N679 C681 1.333 . S
N679 Zn685 2.020 . S
C680 N679 1.307 . S
C680 C684 1.370 . S
C680 H691 0.948 . S
C681 N679 1.333 . S
C681 C682 1.369 1_655 S
C681 H689 0.952 1_655 S
C682 C681 1.369 1_455 S
C682 C683 1.374 1_455 S
C682 H702 0.975 . S
C683 C682 1.374 1_655 S
C683 C684 1.357 . S
C684 C680 1.370 . S
C684 C683 1.357 . S
C684 H703 0.950 . S
Zn685 N679 2.020 . S
Zn685 O688 2.025 . S
Zn685 O693 2.024 . S
Zn685 O695 2.039 . S
Zn685 O697 2.034 . S
O686 C670 1.251 . S
O686 Zn677 2.039 . S
C687 O692 1.246 . S
C687 O693 1.249 . S
O688 C670 1.254 . S
O688 Zn685 2.025 . S
H689 C681 0.952 1_455 S
H690 C672 0.952 1_554 S
H691 C680 0.948 . S
O692 Zn677 2.034 . S
O692 C687 1.246 . S
O693 Zn685 2.024 . S
O693 C687 1.249 . S
H694 C676 0.948 . S
O695 Zn685 2.039 . S
O695 C699 1.251 . S
O696 Zn677 2.025 . S
O696 C699 1.254 . S
O697 C678 1.246 . S
O697 Zn685 2.034 . S
O698 Zn677 2.024 . S
O698 C678 1.249 . S
C699 O695 1.251 . S
C699 O696 1.254 . S
H700 C673 0.949 . S
H701 C675 0.950 . S
H702 C682 0.975 . S
H703 C684 0.950 . S
C704 O720 1.251 . S
C704 O722 1.254 . S
N705 C706 1.333 . S
N705 C710 1.307 . S
N705 Zn711 2.020 . S
C706 N705 1.333 . S
C706 C707 1.379 . S
C706 H724 0.952 . S
C707 C706 1.379 . S
C707 C708 1.390 . S
C707 H734 0.949 . S
C708 C707 1.390 . S
C708 C709 1.357 . S
C709 C708 1.357 . S
C709 C710 1.370 . S
C709 H735 0.950 . S
C710 N705 1.307 . S
C710 C709 1.370 . S
C710 H728 0.948 . S
Zn711 N705 2.020 . S
Zn711 O720 2.039 . S
Zn711 O726 2.034 . S
Zn711 O730 2.025 . S
Zn711 O732 2.024 . S
C712 O731 1.246 . S
C712 O732 1.249 . S
N713 C714 1.307 . S
N713 C715 1.333 . S
N713 Zn719 2.020 . S
C714 N713 1.307 . S
C714 C718 1.370 . S
C714 H725 0.948 . S
C715 N713 1.333 . S
C715 C716 1.379 . S
C715 H723 0.952 . S
C716 C715 1.379 . S
C716 C717 1.390 . S
C716 H736 0.949 . S
C717 C716 1.390 . S
C717 C718 1.357 . S
C718 C714 1.370 . S
C718 C717 1.357 . S
C718 H737 0.950 . S
Zn719 N713 2.020 . S
Zn719 O722 2.025 . S
Zn719 O727 2.024 . S
Zn719 O729 2.039 . S
Zn719 O731 2.034 . S
O720 C704 1.251 . S
O720 Zn711 2.039 . S
C721 O726 1.246 . S
C721 O727 1.249 . S
O722 C704 1.254 . S
O722 Zn719 2.025 . S
H723 C715 0.952 . S
H724 C706 0.952 . S
H725 C714 0.948 . S
O726 Zn711 2.034 . S
O726 C721 1.246 . S
O727 Zn719 2.024 . S
O727 C721 1.249 . S
H728 C710 0.948 . S
O729 Zn719 2.039 . S
O729 C733 1.251 . S
O730 Zn711 2.025 . S
O730 C733 1.254 . S
O731 C712 1.246 . S
O731 Zn719 2.034 . S
O732 Zn711 2.024 . S
O732 C712 1.249 . S
C733 O729 1.251 . S
C733 O730 1.254 . S
H734 C707 0.949 . S
H735 C709 0.950 . S
H736 C716 0.949 . S
H737 C718 0.950 . S
C738 O754 1.251 . S
C738 O756 1.254 . S
N739 C740 1.333 1_655 S
N739 C744 1.307 1_655 S
N739 Zn745 2.020 . S
C740 N739 1.333 1_455 S
C740 C741 1.379 . S
C740 H758 0.952 1_455 S
C741 C740 1.379 . S
C741 C742 1.390 . S
C741 H768 0.949 . S
C742 C741 1.390 . S
C742 C743 1.357 . S
C743 C742 1.357 . S
C743 C744 1.370 . S
C743 H769 0.950 . S
C744 N739 1.307 1_455 S
C744 C743 1.370 . S
C744 H762 0.948 . S
Zn745 N739 2.020 . S
Zn745 O754 2.039 . S
Zn745 O760 2.034 . S
Zn745 O764 2.025 . S
Zn745 O766 2.024 . S
C746 O765 1.246 . S
C746 O766 1.249 . S
N747 C748 1.307 . S
N747 C749 1.333 . S
N747 Zn753 2.020 . S
C748 N747 1.307 . S
C748 C752 1.370 . S
C748 H759 0.948 . S
C749 N747 1.333 . S
C749 C750 1.379 . S
C749 H757 0.952 . S
C750 C749 1.379 . S
C750 C751 1.390 . S
C750 H770 0.949 . S
C751 C750 1.390 . S
C751 C752 1.357 . S
C752 C748 1.370 . S
C752 C751 1.357 . S
C752 H771 0.950 . S
Zn753 N747 2.020 . S
Zn753 O756 2.025 . S
Zn753 O761 2.024 . S
Zn753 O763 2.039 . S
Zn753 O765 2.034 . S
O754 C738 1.251 . S
O754 Zn745 2.039 . S
C755 O760 1.246 . S
C755 O761 1.249 . S
O756 C738 1.254 . S
O756 Zn753 2.025 . S
H757 C749 0.952 . S
H758 C740 0.952 1_655 S
H759 C748 0.948 . S
O760 Zn745 2.034 . S
O760 C755 1.246 . S
O761 Zn753 2.024 . S
O761 C755 1.249 . S
H762 C744 0.948 . S
O763 Zn753 2.039 . S
O763 C767 1.251 . S
O764 Zn745 2.025 . S
O764 C767 1.254 . S
O765 C746 1.246 . S
O765 Zn753 2.034 . S
O766 Zn745 2.024 . S
O766 C746 1.249 . S
C767 O763 1.251 . S
C767 O764 1.254 . S
H768 C741 0.949 . S
H769 C743 0.950 . S
H770 C750 0.949 . S
H771 C752 0.950 . S
C772 O788 1.251 . S
C772 O790 1.254 . S
N773 C774 1.333 . S
N773 C778 1.307 . S
N773 Zn779 2.020 . S
C774 N773 1.333 . S
C774 C775 1.379 . S
C774 H792 0.952 . S
C775 C774 1.379 . S
C775 C776 1.390 . S
C775 H802 0.949 . S
C776 C775 1.390 . S
C776 C777 1.357 . S
C777 C776 1.357 . S
C777 C778 1.370 . S
C777 H803 0.950 . S
C778 N773 1.307 . S
C778 C777 1.370 . S
C778 H796 0.948 . S
Zn779 N773 2.020 . S
Zn779 O788 2.039 . S
Zn779 O794 2.034 . S
Zn779 O798 2.025 . S
Zn779 O800 2.024 . S
C780 O799 1.246 . S
C780 O800 1.249 . S
N781 C782 1.307 . S
N781 C783 1.333 . S
N781 Zn787 2.020 . S
C782 N781 1.307 . S
C782 C786 1.370 . S
C782 H793 0.948 . S
C783 N781 1.333 . S
C783 C784 1.379 . S
C783 H791 0.952 . S
C784 C783 1.379 . S
C784 C785 1.390 . S
C784 H804 0.949 . S
C785 C784 1.390 . S
C785 C786 1.357 . S
C786 C782 1.370 . S
C786 C785 1.357 . S
C786 H805 0.950 . S
Zn787 N781 2.020 . S
Zn787 O790 2.025 . S
Zn787 O795 2.024 . S
Zn787 O797 2.039 . S
Zn787 O799 2.034 . S
O788 C772 1.251 . S
O788 Zn779 2.039 . S
C789 O794 1.246 . S
C789 O795 1.249 . S
O790 C772 1.254 . S
O790 Zn787 2.025 . S
H791 C783 0.952 . S
H792 C774 0.952 . S
H793 C782 0.948 . S
O794 Zn779 2.034 . S
O794 C789 1.246 . S
O795 Zn787 2.024 . S
O795 C789 1.249 . S
H796 C778 0.948 . S
O797 Zn787 2.039 . S
O797 C801 1.251 . S
O798 Zn779 2.025 . S
O798 C801 1.254 . S
O799 C780 1.246 . S
O799 Zn787 2.034 . S
O800 Zn779 2.024 . S
O800 C780 1.249 . S
C801 O797 1.251 . S
C801 O798 1.254 . S
H802 C775 0.949 . S
H803 C777 0.950 . S
H804 C784 0.949 . S
H805 C786 0.950 . S
C806 O822 1.251 . S
C806 O824 1.254 . S
N807 C808 1.333 . S
N807 C812 1.307 . S
N807 Zn813 2.020 . S
C808 N807 1.333 . S
C808 C809 1.379 . S
C808 H826 0.952 . S
C809 C808 1.379 . S
C809 C810 1.390 . S
C809 H836 0.949 . S
C810 C809 1.390 . S
C810 C811 1.357 . S
C811 C810 1.357 . S
C811 C812 1.370 . S
C811 H837 0.950 . S
C812 N807 1.307 . S
C812 C811 1.370 . S
C812 H830 0.948 . S
Zn813 N807 2.020 . S
Zn813 O822 2.039 . S
Zn813 O828 2.034 . S
Zn813 O832 2.025 . S
Zn813 O834 2.024 . S
C814 O833 1.246 . S
C814 O834 1.249 . S
N815 C816 1.307 . S
N815 C817 1.333 . S
N815 Zn821 2.020 . S
C816 N815 1.307 . S
C816 C820 1.370 . S
C816 H827 0.948 . S
C817 N815 1.333 . S
C817 C818 1.379 . S
C817 H825 0.952 . S
C818 C817 1.379 . S
C818 C819 1.390 . S
C818 H838 0.949 . S
C819 C818 1.390 . S
C819 C820 1.357 . S
C820 C816 1.370 . S
C820 C819 1.357 . S
C820 H839 0.950 . S
Zn821 N815 2.020 . S
Zn821 O824 2.025 . S
Zn821 O829 2.024 . S
Zn821 O831 2.039 . S
Zn821 O833 2.034 . S
O822 C806 1.251 . S
O822 Zn813 2.039 . S
C823 O828 1.246 . S
C823 O829 1.249 . S
O824 C806 1.254 . S
O824 Zn821 2.025 . S
H825 C817 0.952 . S
H826 C808 0.952 . S
H827 C816 0.948 . S
O828 Zn813 2.034 . S
O828 C823 1.246 . S
O829 Zn821 2.024 . S
O829 C823 1.249 . S
H830 C812 0.948 . S
O831 Zn821 2.039 . S
O831 C835 1.251 . S
O832 Zn813 2.025 . S
O832 C835 1.254 . S
O833 C814 1.246 . S
O833 Zn821 2.034 . S
O834 Zn813 2.024 . S
O834 C814 1.249 . S
C835 O831 1.251 . S
C835 O832 1.254 . S
H836 C809 0.949 . S
H837 C811 0.950 . S
H838 C818 0.949 . S
H839 C820 0.950 . S
C840 O856 1.251 . S
C840 O858 1.254 . S
N841 C842 1.333 . S
N841 C846 1.307 . S
N841 Zn847 2.020 . S
C842 N841 1.333 . S
C842 C843 1.379 . S
C842 H860 0.952 . S
C843 C842 1.379 . S
C843 C844 1.390 . S
C843 H870 0.949 . S
C844 C843 1.390 . S
C844 C845 1.357 . S
C845 C844 1.357 . S
C845 C846 1.370 . S
C845 H871 0.950 . S
C846 N841 1.307 . S
C846 C845 1.370 . S
C846 H864 0.948 . S
Zn847 N841 2.020 . S
Zn847 O856 2.039 . S
Zn847 O862 2.034 . S
Zn847 O866 2.025 . S
Zn847 O868 2.024 . S
C848 O867 1.246 . S
C848 O868 1.249 . S
N849 C850 1.307 . S
N849 C851 1.333 . S
N849 Zn855 2.020 . S
C850 N849 1.307 . S
C850 C854 1.370 1_556 S
C850 H861 0.948 . S
C851 N849 1.333 . S
C851 C852 1.379 1_556 S
C851 H859 0.952 . S
C852 C851 1.379 1_554 S
C852 C853 1.390 . S
C852 H872 0.949 . S
C853 C852 1.390 . S
C853 C854 1.357 . S
C854 C850 1.370 1_554 S
C854 C853 1.357 . S
C854 H873 0.950 . S
Zn855 N849 2.020 . S
Zn855 O858 2.025 . S
Zn855 O863 2.024 . S
Zn855 O865 2.039 . S
Zn855 O867 2.034 . S
O856 C840 1.251 . S
O856 Zn847 2.039 . S
C857 O862 1.246 . S
C857 O863 1.249 . S
O858 C840 1.254 . S
O858 Zn855 2.025 . S
H859 C851 0.952 . S
H860 C842 0.952 . S
H861 C850 0.948 . S
O862 Zn847 2.034 . S
O862 C857 1.246 . S
O863 Zn855 2.024 . S
O863 C857 1.249 . S
H864 C846 0.948 . S
O865 Zn855 2.039 . S
O865 C869 1.251 . S
O866 Zn847 2.025 . S
O866 C869 1.254 . S
O867 C848 1.246 . S
O867 Zn855 2.034 . S
O868 Zn847 2.024 . S
O868 C848 1.249 . S
C869 O865 1.251 . S
C869 O866 1.254 . S
H870 C843 0.949 . S
H871 C845 0.950 . S
H872 C852 0.949 . S
H873 C854 0.950 . S
C874 O890 1.251 . S
C874 O892 1.254 . S
N875 C876 1.333 . S
N875 C880 1.307 . S
N875 Zn881 2.020 . S
C876 N875 1.333 . S
C876 C877 1.379 . S
C876 H894 0.952 . S
C877 C876 1.379 . S
C877 C878 1.390 . S
C877 H904 0.949 . S
C878 C877 1.390 . S
C878 C879 1.357 . S
C879 C878 1.357 . S
C879 C880 1.370 . S
C879 H905 0.950 . S
C880 N875 1.307 . S
C880 C879 1.370 . S
C880 H898 0.948 . S
Zn881 N875 2.020 . S
Zn881 O890 2.039 . S
Zn881 O896 2.034 . S
Zn881 O900 2.025 . S
Zn881 O902 2.024 . S
C882 O901 1.246 . S
C882 O902 1.249 . S
N883 C884 1.307 . S
N883 C885 1.333 . S
N883 Zn889 2.020 . S
C884 N883 1.307 . S
C884 C888 1.370 . S
C884 H895 0.948 . S
C885 N883 1.333 . S
C885 C886 1.379 . S
C885 H893 0.952 . S
C886 C885 1.379 . S
C886 C887 1.390 . S
C886 H906 0.974 . S
C887 C886 1.390 . S
C887 C888 1.357 . S
C888 C884 1.370 . S
C888 C887 1.357 . S
C888 H907 0.950 . S
Zn889 N883 2.020 . S
Zn889 O892 2.025 . S
Zn889 O897 2.024 . S
Zn889 O899 2.039 . S
Zn889 O901 2.034 . S
O890 C874 1.251 . S
O890 Zn881 2.039 . S
C891 O896 1.246 . S
C891 O897 1.249 . S
O892 C874 1.254 . S
O892 Zn889 2.025 . S
H893 C885 0.952 . S
H894 C876 0.952 . S
H895 C884 0.948 . S
O896 Zn881 2.034 . S
O896 C891 1.246 . S
O897 Zn889 2.024 . S
O897 C891 1.249 . S
H898 C880 0.948 . S
O899 Zn889 2.039 . S
O899 C903 1.251 . S
O900 Zn881 2.025 . S
O900 C903 1.254 . S
O901 C882 1.246 . S
O901 Zn889 2.034 . S
O902 Zn881 2.024 . S
O902 C882 1.249 . S
C903 O899 1.251 . S
C903 O900 1.254 . S
H904 C877 0.949 . S
H905 C879 0.950 . S
H906 C886 0.974 . S
H907 C888 0.950 . S
H908 C916 0.929 1_655 S
H909 C918 0.930 1_655 S
H910 C920 0.930 . S
H911 C923 0.929 . S
H912 C926 0.891 1_655 S
H913 C928 0.960 . S
H914 C928 0.960 . S
H915 C928 0.960 . S
C916 H908 0.929 1_455 S
C916 C917 1.377 . S
C916 C918 1.384 . S
C917 C916 1.377 . S
C917 C923 1.390 . S
C918 H909 0.930 1_455 S
C918 C916 1.384 . S
C918 C919 1.372 . S
C919 C918 1.372 . S
C919 C920 1.400 . S
C919 C924 1.490 . S
C920 H910 0.930 . S
C920 C919 1.400 . S
C920 C923 1.386 . S
H921 C937 0.930 1_565 S
H922 C938 0.931 . S
C923 H911 0.929 . S
C923 C917 1.390 . S
C923 C920 1.386 . S
C924 C919 1.490 . S
C924 C926 1.395 . S
C924 C927 1.403 . S
H925 C931 0.930 . S
C926 H912 0.891 1_455 S
C926 C924 1.395 . S
C926 C929 1.403 . S
C927 C924 1.403 . S
C927 C928 1.524 . S
C927 C931 1.400 . S
C928 H913 0.960 . S
C928 H914 0.960 . S
C928 H915 0.960 . S
C928 C927 1.524 . S
C929 C926 1.403 . S
C929 C930 1.392 . S
C929 C933 1.495 1_455 S
C930 C929 1.392 . S
C930 C931 1.385 . S
C930 C932 1.478 . S
C931 H925 0.930 . S
C931 C927 1.400 . S
C931 C930 1.385 . S
C932 C930 1.478 . S
C932 C934 1.381 . S
C932 C938 1.383 . S
C933 C929 1.495 1_655 S
C933 H939 0.959 . S
C933 H940 0.962 1_655 S
C933 H941 0.960 . S
C934 C932 1.381 . S
C934 C935 1.443 . S
C934 H942 0.930 1_455 S
C935 C934 1.443 . S
C935 C936 1.358 1_545 S
C935 H943 0.907 1_545 S
C936 C935 1.358 1_565 S
C936 C937 1.377 1_565 S
C937 H921 0.930 1_545 S
C937 C936 1.377 1_545 S
C937 C938 1.379 . S
C938 H922 0.931 . S
C938 C932 1.383 . S
C938 C937 1.379 . S
H939 C933 0.959 . S
H940 C933 0.962 1_455 S
H941 C933 0.960 . S
H942 C934 0.930 1_655 S
H943 C935 0.907 1_565 S
H944 C952 0.929 . S
H945 C954 0.930 . S
H946 C956 0.930 . S
H947 C959 0.929 . S
H948 C962 0.930 . S
H949 C964 0.960 . S
H950 C964 0.960 . S
H951 C964 0.960 . S
C952 H944 0.929 . S
C952 C953 1.377 . S
C952 C954 1.384 . S
C953 C952 1.377 . S
C953 C959 1.390 1_655 S
C954 H945 0.930 . S
C954 C952 1.384 . S
C954 C955 1.372 . S
C955 C954 1.372 . S
C955 C956 1.400 1_655 S
C955 C960 1.490 . S
C956 H946 0.930 . S
C956 C955 1.400 1_455 S
C956 C959 1.386 . S
H957 C973 0.930 1_455 S
H958 C974 0.931 1_455 S
C959 H947 0.929 . S
C959 C953 1.390 1_455 S
C959 C956 1.386 . S
C960 C955 1.490 . S
C960 C962 1.395 . S
C960 C963 1.403 . S
H961 C967 0.930 1_455 S
C962 H948 0.930 . S
C962 C960 1.395 . S
C962 C965 1.403 . S
C963 C960 1.403 . S
C963 C964 1.524 1_655 S
C963 C967 1.400 . S
C964 H949 0.960 . S
C964 H950 0.960 . S
C964 H951 0.960 . S
C964 C963 1.524 1_455 S
C965 C962 1.403 . S
C965 C966 1.392 . S
C965 C969 1.495 . S
C966 C965 1.392 . S
C966 C967 1.385 . S
C966 C968 1.478 . S
C967 H961 0.930 1_655 S
C967 C963 1.400 . S
C967 C966 1.385 . S
C968 C966 1.478 . S
C968 C970 1.381 . S
C968 C974 1.383 . S
C969 C965 1.495 . S
C969 H975 0.959 . S
C969 H976 0.961 . S
C969 H977 0.960 . S
C970 C968 1.381 . S
C970 C971 1.394 . S
C970 H978 0.930 . S
C971 C970 1.394 . S
C971 C972 1.383 . S
C971 H979 0.929 . S
C972 C971 1.383 . S
C972 C973 1.377 . S
C973 H957 0.930 1_655 S
C973 C972 1.377 . S
C973 C974 1.379 . S
C974 H958 0.931 1_655 S
C974 C968 1.383 . S
C974 C973 1.379 . S
H975 C969 0.959 . S
H976 C969 0.961 . S
H977 C969 0.960 . S
H978 C970 0.930 . S
H979 C971 0.929 . S
H980 C988 0.929 . S
H981 C990 0.930 . S
H982 C992 0.930 . S
H983 C995 0.929 . S
H984 C998 0.930 . S
H985 C1000 0.960 1_655 S
H986 C1000 0.960 1_655 S
H987 C1000 0.960 . S
C988 H980 0.929 . S
C988 C989 1.377 . S
C988 C990 1.384 . S
C989 C988 1.377 . S
C989 C995 1.390 . S
C990 H981 0.930 . S
C990 C988 1.384 . S
C990 C991 1.372 . S
C991 C990 1.372 . S
C991 C992 1.400 . S
C991 C996 1.490 . S
C992 H982 0.930 . S
C992 C991 1.400 . S
C992 C995 1.386 . S
H993 C1009 0.930 . S
H994 C1010 0.931 . S
C995 H983 0.929 . S
C995 C989 1.390 . S
C995 C992 1.386 . S
C996 C991 1.490 . S
C996 C998 1.395 . S
C996 C999 1.403 . S
H997 C1003 0.930 . S
C998 H984 0.930 . S
C998 C996 1.395 . S
C998 C1001 1.403 . S
C999 C996 1.403 . S
C999 C1000 1.524 . S
C999 C1003 1.400 . S
C1000 H985 0.960 1_455 S
C1000 H986 0.960 1_455 S
C1000 H987 0.960 . S
C1000 C999 1.524 . S
C1001 C998 1.403 . S
C1001 C1002 1.392 . S
C1001 C1005 1.495 . S
C1002 C1001 1.392 . S
C1002 C1003 1.385 . S
C1002 C1004 1.478 . S
C1003 H997 0.930 . S
C1003 C999 1.400 . S
C1003 C1002 1.385 . S
C1004 C1002 1.478 . S
C1004 C1006 1.381 . S
C1004 C1010 1.383 . S
C1005 C1001 1.495 . S
C1005 H1011 0.959 . S
C1005 H1012 0.961 . S
C1005 H1013 0.960 . S
C1006 C1004 1.381 . S
C1006 C1007 1.394 . S
C1006 H1014 0.930 . S
C1007 C1006 1.394 . S
C1007 C1008 1.384 . S
C1007 H1015 0.929 1_565 S
C1008 C1007 1.384 . S
C1008 C1009 1.380 . S
C1009 H993 0.930 . S
C1009 C1008 1.380 . S
C1009 C1010 1.379 . S
C1010 H994 0.931 . S
C1010 C1004 1.383 . S
C1010 C1009 1.379 . S
H1011 C1005 0.959 . S
H1012 C1005 0.961 . S
H1013 C1005 0.960 . S
H1014 C1006 0.930 . S
H1015 C1007 0.929 1_545 S
H1016 C1024 0.929 . S
H1017 C1026 0.930 . S
H1018 C1028 0.930 . S
H1019 C1031 0.929 . S
H1020 C1034 0.930 . S
H1021 C1036 0.960 . S
H1022 C1036 0.960 . S
H1023 C1036 0.960 . S
C1024 H1016 0.929 . S
C1024 C1025 1.377 1_455 S
C1024 C1026 1.384 . S
C1025 C1024 1.377 1_655 S
C1025 C1031 1.390 . S
C1026 H1017 0.930 . S
C1026 C1024 1.384 . S
C1026 C1027 1.372 1_455 S
C1027 C1026 1.372 1_655 S
C1027 C1028 1.400 . S
C1027 C1032 1.490 . S
C1028 H1018 0.930 . S
C1028 C1027 1.400 . S
C1028 C1031 1.386 . S
H1029 C1045 0.930 . S
H1030 C1046 0.931 . S
C1031 H1019 0.929 . S
C1031 C1025 1.390 . S
C1031 C1028 1.386 . S
C1032 C1027 1.490 . S
C1032 C1034 1.395 . S
C1032 C1035 1.392 1_655 S
H1033 C1039 0.930 1_455 S
C1034 H1020 0.930 . S
C1034 C1032 1.395 . S
C1034 C1037 1.403 . S
C1035 C1032 1.392 1_455 S
C1035 C1036 1.540 . S
C1035 C1039 1.395 1_455 S
C1036 H1021 0.960 . S
C1036 H1022 0.960 . S
C1036 H1023 0.960 . S
C1036 C1035 1.540 . S
C1037 C1034 1.403 . S
C1037 C1038 1.392 . S
C1037 C1041 1.495 . S
C1038 C1037 1.392 . S
C1038 C1039 1.385 . S
C1038 C1040 1.478 . S
C1039 H1033 0.930 1_655 S
C1039 C1035 1.395 1_655 S
C1039 C1038 1.385 . S
C1040 C1038 1.478 . S
C1040 C1042 1.381 . S
C1040 C1046 1.383 . S
C1041 C1037 1.495 . S
C1041 H1047 0.959 . S
C1041 H1048 0.961 . S
C1041 H1049 0.960 . S
C1042 C1040 1.381 . S
C1042 C1043 1.394 . S
C1042 H1050 0.930 . S
C1043 C1042 1.394 . S
C1043 C1044 1.383 . S
C1043 H1051 0.929 . S
C1044 C1043 1.383 . S
C1044 C1045 1.377 . S
C1045 H1029 0.930 . S
C1045 C1044 1.377 . S
C1045 C1046 1.379 . S
C1046 H1030 0.931 . S
C1046 C1040 1.383 . S
C1046 C1045 1.379 . S
H1047 C1041 0.959 . S
H1048 C1041 0.961 . S
H1049 C1041 0.960 . S
H1050 C1042 0.930 . S
H1051 C1043 0.929 . S
H1052 C1060 0.929 . S
H1053 C1062 0.930 . S
H1054 C1064 0.930 . S
H1055 C1067 0.929 . S
H1056 C1070 0.930 . S
H1057 C1072 0.960 . S
H1058 C1072 0.960 . S
H1059 C1072 0.960 . S
C1060 H1052 0.929 . S
C1060 C1061 1.377 . S
C1060 C1062 1.384 . S
C1061 C1060 1.377 . S
C1061 C1067 1.390 . S
C1062 H1053 0.930 . S
C1062 C1060 1.384 . S
C1062 C1063 1.372 . S
C1063 C1062 1.372 . S
C1063 C1064 1.400 . S
C1063 C1068 1.490 . S
C1064 H1054 0.930 . S
C1064 C1063 1.400 . S
C1064 C1067 1.386 . S
H1065 C1081 0.930 . S
H1066 C1082 0.931 . S
C1067 H1055 0.929 . S
C1067 C1061 1.390 . S
C1067 C1064 1.386 . S
C1068 C1063 1.490 . S
C1068 C1070 1.395 . S
C1068 C1071 1.403 . S
H1069 C1075 0.930 . S
C1070 H1056 0.930 . S
C1070 C1068 1.395 . S
C1070 C1073 1.403 . S
C1071 C1068 1.403 . S
C1071 C1072 1.524 . S
C1071 C1075 1.400 . S
C1072 H1057 0.960 . S
C1072 H1058 0.960 . S
C1072 H1059 0.960 . S
C1072 C1071 1.524 . S
C1073 C1070 1.403 . S
C1073 C1074 1.392 . S
C1073 C1077 1.495 1_545 S
C1074 C1073 1.392 . S
C1074 C1075 1.385 . S
C1074 C1076 1.478 . S
C1075 H1069 0.930 . S
C1075 C1071 1.400 . S
C1075 C1074 1.385 . S
C1076 C1074 1.478 . S
C1076 C1078 1.381 . S
C1076 C1082 1.383 . S
C1077 C1073 1.495 1_565 S
C1077 H1083 0.959 . S
C1077 H1084 0.963 . S
C1077 H1085 0.960 . S
C1078 C1076 1.381 . S
C1078 C1079 1.369 1_554 S
C1078 H1086 0.930 . S
C1079 C1078 1.369 1_556 S
C1079 C1080 1.401 . S
C1079 H1087 0.937 . S
C1080 C1079 1.401 . S
C1080 C1081 1.377 . S
C1081 H1065 0.930 . S
C1081 C1080 1.377 . S
C1081 C1082 1.379 1_556 S
C1082 H1066 0.931 . S
C1082 C1076 1.383 . S
C1082 C1081 1.379 1_554 S
H1083 C1077 0.959 . S
H1084 C1077 0.963 . S
H1085 C1077 0.960 . S
H1086 C1078 0.930 . S
H1087 C1079 0.937 . S
H1088 C1096 0.929 . S
H1089 C1098 0.930 . S
H1090 C1100 0.930 . S
H1091 C1103 0.929 . S
H1092 C1106 0.930 . S
H1093 C1108 0.960 . S
H1094 C1108 0.960 . S
H1095 C1108 0.960 . S
C1096 H1088 0.929 . S
C1096 C1097 1.377 . S
C1096 C1098 1.384 . S
C1097 C1096 1.377 . S
C1097 C1103 1.390 . S
C1098 H1089 0.930 . S
C1098 C1096 1.384 . S
C1098 C1099 1.372 . S
C1099 C1098 1.372 . S
C1099 C1100 1.400 . S
C1099 C1104 1.490 . S
C1100 H1090 0.930 . S
C1100 C1099 1.400 . S
C1100 C1103 1.386 . S
H1101 C1117 0.930 . S
H1102 C1118 0.931 . S
C1103 H1091 0.929 . S
C1103 C1097 1.390 . S
C1103 C1100 1.386 . S
C1104 C1099 1.490 . S
C1104 C1106 1.395 . S
C1104 C1107 1.403 . S
H1105 C1111 0.930 . S
C1106 H1092 0.930 . S
C1106 C1104 1.395 . S
C1106 C1109 1.403 . S
C1107 C1104 1.403 . S
C1107 C1108 1.524 . S
C1107 C1111 1.400 . S
C1108 H1093 0.960 . S
C1108 H1094 0.960 . S
C1108 H1095 0.960 . S
C1108 C1107 1.524 . S
C1109 C1106 1.403 . S
C1109 C1110 1.392 . S
C1109 C1113 1.495 . S
C1110 C1109 1.392 . S
C1110 C1111 1.385 . S
C1110 C1112 1.478 . S
C1111 H1105 0.930 . S
C1111 C1107 1.400 . S
C1111 C1110 1.385 . S
C1112 C1110 1.478 . S
C1112 C1114 1.381 . S
C1112 C1118 1.383 . S
C1113 C1109 1.495 . S
C1113 H1119 0.959 . S
C1113 H1120 0.961 . S
C1113 H1121 0.960 . S
C1114 C1112 1.381 . S
C1114 C1115 1.394 . S
C1114 H1122 0.930 . S
C1115 C1114 1.394 . S
C1115 C1116 1.383 . S
C1115 H1123 0.929 . S
C1116 C1115 1.383 . S
C1116 C1117 1.377 . S
C1117 H1101 0.930 . S
C1117 C1116 1.377 . S
C1117 C1118 1.379 . S
C1118 H1102 0.931 . S
C1118 C1112 1.383 . S
C1118 C1117 1.379 . S
H1119 C1113 0.959 . S
H1120 C1113 0.961 . S
H1121 C1113 0.960 . S
H1122 C1114 0.930 . S
H1123 C1115 0.929 . S
H1124 C1132 0.929 . S
H1125 C1134 0.930 . S
H1126 C1136 0.930 . S
H1127 C1139 0.929 . S
H1128 C1142 0.930 . S
H1129 C1144 0.960 . S
H1130 C1144 0.960 . S
H1131 C1144 0.960 . S
C1132 H1124 0.929 . S
C1132 C1133 1.377 . S
C1132 C1134 1.384 . S
C1133 C1132 1.377 . S
C1133 C1139 1.390 1_565 S
C1134 H1125 0.930 . S
C1134 C1132 1.384 . S
C1134 C1135 1.372 . S
C1135 C1134 1.372 . S
C1135 C1136 1.400 1_565 S
C1135 C1140 1.490 . S
C1136 H1126 0.930 . S
C1136 C1135 1.400 1_545 S
C1136 C1139 1.386 . S
H1137 C1153 0.930 . S
H1138 C1154 0.931 . S
C1139 H1127 0.929 . S
C1139 C1133 1.390 1_545 S
C1139 C1136 1.386 . S
C1140 C1135 1.490 . S
C1140 C1142 1.395 . S
C1140 C1143 1.403 1_565 S
H1141 C1147 0.930 . S
C1142 H1128 0.930 . S
C1142 C1140 1.395 . S
C1142 C1145 1.403 . S
C1143 C1140 1.403 1_545 S
C1143 C1144 1.524 . S
C1143 C1147 1.400 . S
C1144 H1129 0.960 . S
C1144 H1130 0.960 . S
C1144 H1131 0.960 . S
C1144 C1143 1.524 . S
C1145 C1142 1.403 . S
C1145 C1146 1.392 . S
C1145 C1149 1.495 . S
C1146 C1145 1.392 . S
C1146 C1147 1.385 1_565 S
C1146 C1148 1.478 . S
C1147 H1141 0.930 . S
C1147 C1143 1.400 . S
C1147 C1146 1.385 1_545 S
C1148 C1146 1.478 . S
C1148 C1150 1.381 . S
C1148 C1154 1.383 1_565 S
C1149 C1145 1.495 . S
C1149 H1155 0.959 . S
C1149 H1156 0.961 . S
C1149 H1157 0.960 . S
C1150 C1148 1.381 . S
C1150 C1151 1.394 . S
C1150 H1158 0.930 . S
C1151 C1150 1.394 . S
C1151 C1152 1.383 . S
C1151 H1159 0.929 . S
C1152 C1151 1.383 . S
C1152 C1153 1.377 1_565 S
C1153 H1137 0.930 . S
C1153 C1152 1.377 1_545 S
C1153 C1154 1.379 . S
C1154 H1138 0.931 . S
C1154 C1148 1.383 1_545 S
C1154 C1153 1.379 . S
H1155 C1149 0.959 . S
H1156 C1149 0.961 . S
H1157 C1149 0.960 . S
H1158 C1150 0.930 . S
H1159 C1151 0.929 . S
H1160 C1168 0.929 . S
H1161 C1170 0.930 . S
H1162 C1172 0.930 . S
H1163 C1175 0.929 . S
H1164 C1178 0.930 . S
H1165 C1180 0.960 . S
H1166 C1180 0.960 . S
H1167 C1180 0.960 . S
C1168 H1160 0.929 . S
C1168 C1169 1.377 . S
C1168 C1170 1.384 . S
C1169 C1168 1.377 . S
C1169 C1175 1.390 . S
C1170 H1161 0.930 . S
C1170 C1168 1.384 . S
C1170 C1171 1.372 . S
C1171 C1170 1.372 . S
C1171 C1172 1.400 . S
C1171 C1176 1.490 . S
C1172 H1162 0.930 . S
C1172 C1171 1.400 . S
C1172 C1175 1.386 . S
H1173 C1189 0.930 . S
H1174 C1190 0.931 . S
C1175 H1163 0.929 . S
C1175 C1169 1.390 . S
C1175 C1172 1.386 . S
C1176 C1171 1.490 . S
C1176 C1178 1.395 . S
C1176 C1179 1.403 . S
H1177 C1183 0.930 . S
C1178 H1164 0.930 . S
C1178 C1176 1.395 . S
C1178 C1181 1.403 . S
C1179 C1176 1.403 . S
C1179 C1180 1.524 . S
C1179 C1183 1.400 . S
C1180 H1165 0.960 . S
C1180 H1166 0.960 . S
C1180 H1167 0.960 . S
C1180 C1179 1.524 . S
C1181 C1178 1.403 . S
C1181 C1182 1.392 . S
C1181 C1185 1.495 . S
C1182 C1181 1.392 . S
C1182 C1183 1.385 . S
C1182 C1184 1.478 . S
C1183 H1177 0.930 . S
C1183 C1179 1.400 . S
C1183 C1182 1.385 . S
C1184 C1182 1.478 . S
C1184 C1186 1.381 . S
C1184 C1190 1.383 . S
C1185 C1181 1.495 . S
C1185 H1191 0.959 . S
C1185 H1192 0.961 . S
C1185 H1193 0.960 . S
C1186 C1184 1.381 . S
C1186 C1187 1.394 . S
C1186 H1194 0.930 . S
C1187 C1186 1.394 . S
C1187 C1188 1.383 . S
C1187 H1195 0.929 . S
C1188 C1187 1.383 . S
C1188 C1189 1.377 . S
C1189 H1173 0.930 . S
C1189 C1188 1.377 . S
C1189 C1190 1.379 . S
C1190 H1174 0.931 . S
C1190 C1184 1.383 . S
C1190 C1189 1.379 . S
H1191 C1185 0.959 . S
H1192 C1185 0.961 . S
H1193 C1185 0.960 . S
H1194 C1186 0.930 . S
H1195 C1187 0.929 . S
H1196 C1204 0.929 . S
H1197 C1206 0.930 . S
H1198 C1208 0.930 . S
H1199 C1211 0.929 . S
H1200 C1214 0.930 . S
H1201 C1216 0.956 1_556 S
H1202 C1216 0.949 1_556 S
H1203 C1216 0.969 . S
C1204 H1196 0.929 . S
C1204 C1205 1.377 . S
C1204 C1206 1.384 . S
C1205 C1204 1.377 . S
C1205 C1211 1.390 . S
C1206 H1197 0.930 . S
C1206 C1204 1.384 . S
C1206 C1207 1.372 . S
C1207 C1206 1.372 . S
C1207 C1208 1.400 . S
C1207 C1212 1.490 . S
C1208 H1198 0.930 . S
C1208 C1207 1.400 . S
C1208 C1211 1.386 . S
H1209 C1225 0.930 . S
H1210 C1226 0.931 . S
C1211 H1199 0.929 . S
C1211 C1205 1.390 . S
C1211 C1208 1.386 . S
C1212 C1207 1.490 . S
C1212 C1214 1.395 . S
C1212 C1215 1.403 . S
H1213 C1219 0.930 . S
C1214 H1200 0.930 . S
C1214 C1212 1.395 . S
C1214 C1217 1.403 . S
C1215 C1212 1.403 . S
C1215 C1216 1.529 . S
C1215 C1219 1.400 . S
C1216 H1201 0.956 1_554 S
C1216 H1202 0.949 1_554 S
C1216 H1203 0.969 . S
C1216 C1215 1.529 . S
C1217 C1214 1.403 . S
C1217 C1218 1.392 . S
C1217 C1221 1.495 . S
C1218 C1217 1.392 . S
C1218 C1219 1.385 . S
C1218 C1220 1.478 . S
C1219 H1213 0.930 . S
C1219 C1215 1.400 . S
C1219 C1218 1.385 . S
C1220 C1218 1.478 . S
C1220 C1222 1.381 . S
C1220 C1226 1.383 . S
C1221 C1217 1.495 . S
C1221 H1227 0.959 . S
C1221 H1228 0.961 . S
C1221 H1229 0.960 . S
C1222 C1220 1.381 . S
C1222 C1223 1.394 . S
C1222 H1230 0.930 . S
C1223 C1222 1.394 . S
C1223 C1224 1.383 . S
C1223 H1231 0.929 . S
C1224 C1223 1.383 . S
C1224 C1225 1.377 . S
C1225 H1209 0.930 . S
C1225 C1224 1.377 . S
C1225 C1226 1.379 . S
C1226 H1210 0.931 . S
C1226 C1220 1.383 . S
C1226 C1225 1.379 . S
H1227 C1221 0.959 . S
H1228 C1221 0.961 . S
H1229 C1221 0.960 . S
H1230 C1222 0.930 . S
H1231 C1223 0.929 . S
H1232 C1240 0.929 . S
H1233 C1242 0.930 . S
H1234 C1244 0.930 . S
H1235 C1247 0.929 . S
H1236 C1250 0.930 . S
H1237 C1252 0.960 . S
H1238 C1252 0.960 . S
H1239 C1252 0.960 . S
C1240 H1232 0.929 . S
C1240 C1241 1.377 . S
C1240 C1242 1.384 . S
C1241 C1240 1.377 . S
C1241 C1247 1.390 . S
C1242 H1233 0.930 . S
C1242 C1240 1.384 . S
C1242 C1243 1.372 . S
C1243 C1242 1.372 . S
C1243 C1244 1.400 . S
C1243 C1248 1.490 . S
C1244 H1234 0.930 . S
C1244 C1243 1.400 . S
C1244 C1247 1.386 . S
H1245 C1261 0.930 . S
H1246 C1262 0.931 . S
C1247 H1235 0.929 . S
C1247 C1241 1.390 . S
C1247 C1244 1.386 . S
C1248 C1243 1.490 . S
C1248 C1250 1.395 . S
C1248 C1251 1.403 . S
H1249 C1255 0.930 . S
C1250 H1236 0.930 . S
C1250 C1248 1.395 . S
C1250 C1253 1.403 . S
C1251 C1248 1.403 . S
C1251 C1252 1.524 . S
C1251 C1255 1.400 . S
C1252 H1237 0.960 . S
C1252 H1238 0.960 . S
C1252 H1239 0.960 . S
C1252 C1251 1.524 . S
C1253 C1250 1.403 . S
C1253 C1254 1.392 . S
C1253 C1257 1.495 . S
C1254 C1253 1.392 . S
C1254 C1255 1.385 . S
C1254 C1256 1.478 . S
C1255 H1249 0.930 . S
C1255 C1251 1.400 . S
C1255 C1254 1.385 . S
C1256 C1254 1.478 . S
C1256 C1258 1.381 . S
C1256 C1262 1.383 . S
C1257 C1253 1.495 . S
C1257 H1263 0.959 . S
C1257 H1264 0.961 . S
C1257 H1265 0.960 . S
C1258 C1256 1.381 . S
C1258 C1259 1.394 . S
C1258 H1266 0.930 . S
C1259 C1258 1.394 . S
C1259 C1260 1.383 . S
C1259 H1267 0.929 . S
C1260 C1259 1.383 . S
C1260 C1261 1.377 . S
C1261 H1245 0.930 . S
C1261 C1260 1.377 . S
C1261 C1262 1.379 . S
C1262 H1246 0.931 . S
C1262 C1256 1.383 . S
C1262 C1261 1.379 . S
H1263 C1257 0.959 . S
H1264 C1257 0.961 . S
H1265 C1257 0.960 . S
H1266 C1258 0.930 . S
H1267 C1259 0.929 . S
H1268 C1276 0.929 . S
H1269 C1278 0.930 . S
H1270 C1280 0.930 . S
H1271 C1283 0.929 . S
H1272 C1286 0.930 . S
H1273 C1288 0.960 . S
H1274 C1288 0.960 . S
H1275 C1288 0.960 . S
C1276 H1268 0.929 . S
C1276 C1277 1.377 . S
C1276 C1278 1.384 . S
C1277 C1276 1.377 . S
C1277 C1283 1.390 . S
C1278 H1269 0.930 . S
C1278 C1276 1.384 . S
C1278 C1279 1.372 . S
C1279 C1278 1.372 . S
C1279 C1280 1.400 . S
C1279 C1284 1.490 . S
C1280 H1270 0.930 . S
C1280 C1279 1.400 . S
C1280 C1283 1.386 . S
H1281 C1297 0.930 . S
H1282 C1298 0.931 . S
C1283 H1271 0.929 . S
C1283 C1277 1.390 . S
C1283 C1280 1.386 . S
C1284 C1279 1.490 . S
C1284 C1286 1.395 . S
C1284 C1287 1.403 . S
H1285 C1291 0.930 . S
C1286 H1272 0.930 . S
C1286 C1284 1.395 . S
C1286 C1289 1.403 . S
C1287 C1284 1.403 . S
C1287 C1288 1.524 . S
C1287 C1291 1.400 . S
C1288 H1273 0.960 . S
C1288 H1274 0.960 . S
C1288 H1275 0.960 . S
C1288 C1287 1.524 . S
C1289 C1286 1.403 . S
C1289 C1290 1.392 . S
C1289 C1293 1.495 . S
C1290 C1289 1.392 . S
C1290 C1291 1.385 . S
C1290 C1292 1.478 . S
C1291 H1285 0.930 . S
C1291 C1287 1.400 . S
C1291 C1290 1.385 . S
C1292 C1290 1.478 . S
C1292 C1294 1.381 . S
C1292 C1298 1.383 . S
C1293 C1289 1.495 . S
C1293 H1299 0.959 . S
C1293 H1300 0.961 . S
C1293 H1301 0.960 . S
C1294 C1292 1.381 . S
C1294 C1295 1.394 . S
C1294 H1302 0.930 . S
C1295 C1294 1.394 . S
C1295 C1296 1.383 . S
C1295 H1303 0.929 . S
C1296 C1295 1.383 . S
C1296 C1297 1.377 . S
C1297 H1281 0.930 . S
C1297 C1296 1.377 . S
C1297 C1298 1.379 . S
C1298 H1282 0.931 . S
C1298 C1292 1.383 . S
C1298 C1297 1.379 . S
H1299 C1293 0.959 . S
H1300 C1293 0.961 . S
H1301 C1293 0.960 . S
H1302 C1294 0.930 . S
H1303 C1295 0.929 . S
H1304 C1312 0.929 . S
H1305 C1314 0.930 . S
H1306 C1316 0.930 . S
H1307 C1319 0.929 . S
H1308 C1322 0.930 . S
H1309 C1324 0.960 . S
H1310 C1324 0.960 . S
H1311 C1324 0.960 . S
C1312 H1304 0.929 . S
C1312 C1313 1.377 . S
C1312 C1314 1.384 . S
C1313 C1312 1.377 . S
C1313 C1319 1.390 . S
C1314 H1305 0.930 . S
C1314 C1312 1.384 . S
C1314 C1315 1.372 . S
C1315 C1314 1.372 . S
C1315 C1316 1.400 . S
C1315 C1320 1.490 . S
C1316 H1306 0.930 . S
C1316 C1315 1.400 . S
C1316 C1319 1.386 . S
H1317 C1333 0.930 . S
H1318 C1334 0.931 . S
C1319 H1307 0.929 . S
C1319 C1313 1.390 . S
C1319 C1316 1.386 . S
C1320 C1315 1.490 . S
C1320 C1322 1.395 . S
C1320 C1323 1.403 . S
H1321 C1327 0.930 . S
C1322 H1308 0.930 . S
C1322 C1320 1.395 . S
C1322 C1325 1.403 . S
C1323 C1320 1.403 . S
C1323 C1324 1.524 . S
C1323 C1327 1.400 . S
C1324 H1309 0.960 . S
C1324 H1310 0.960 . S
C1324 H1311 0.960 . S
C1324 C1323 1.524 . S
C1325 C1322 1.403 . S
C1325 C1326 1.392 . S
C1325 C1329 1.495 . S
C1326 C1325 1.392 . S
C1326 C1327 1.385 . S
C1326 C1328 1.478 . S
C1327 H1321 0.930 . S
C1327 C1323 1.400 . S
C1327 C1326 1.385 . S
C1328 C1326 1.478 . S
C1328 C1330 1.381 . S
C1328 C1334 1.383 . S
C1329 C1325 1.495 . S
C1329 H1335 0.959 . S
C1329 H1336 0.961 . S
C1329 H1337 0.960 . S
C1330 C1328 1.381 . S
C1330 C1331 1.394 . S
C1330 H1338 0.930 . S
C1331 C1330 1.394 . S
C1331 C1332 1.383 . S
C1331 H1339 0.929 . S
C1332 C1331 1.383 . S
C1332 C1333 1.377 . S
C1333 H1317 0.930 . S
C1333 C1332 1.377 . S
C1333 C1334 1.379 . S
C1334 H1318 0.931 . S
C1334 C1328 1.383 . S
C1334 C1333 1.379 . S
H1335 C1329 0.959 . S
H1336 C1329 0.961 . S
H1337 C1329 0.960 . S
H1338 C1330 0.930 . S
H1339 C1331 0.929 . S
H1340 C1348 0.929 . S
H1341 C1350 0.930 . S
H1342 C1352 0.930 . S
H1343 C1355 0.929 . S
H1344 C1358 0.930 . S
H1345 C1360 0.960 . S
H1346 C1360 0.960 . S
H1347 C1360 0.960 . S
C1348 H1340 0.929 . S
C1348 C1349 1.377 . S
C1348 C1350 1.384 . S
C1349 C1348 1.377 . S
C1349 C1355 1.390 . S
C1350 H1341 0.930 . S
C1350 C1348 1.384 . S
C1350 C1351 1.372 . S
C1351 C1350 1.372 . S
C1351 C1352 1.400 . S
C1351 C1356 1.490 . S
C1352 H1342 0.930 . S
C1352 C1351 1.400 . S
C1352 C1355 1.386 . S
H1353 C1369 0.930 . S
H1354 C1370 0.931 . S
C1355 H1343 0.929 . S
C1355 C1349 1.390 . S
C1355 C1352 1.386 . S
C1356 C1351 1.490 . S
C1356 C1358 1.395 . S
C1356 C1359 1.403 . S
H1357 C1363 0.930 . S
C1358 H1344 0.930 . S
C1358 C1356 1.395 . S
C1358 C1361 1.403 . S
C1359 C1356 1.403 . S
C1359 C1360 1.524 . S
C1359 C1363 1.400 . S
C1360 H1345 0.960 . S
C1360 H1346 0.960 . S
C1360 H1347 0.960 . S
C1360 C1359 1.524 . S
C1361 C1358 1.403 . S
C1361 C1362 1.392 . S
C1361 C1365 1.495 . S
C1362 C1361 1.392 . S
C1362 C1363 1.385 . S
C1362 C1364 1.478 . S
C1363 H1357 0.930 . S
C1363 C1359 1.400 . S
C1363 C1362 1.385 . S
C1364 C1362 1.478 . S
C1364 C1366 1.381 . S
C1364 C1370 1.383 . S
C1365 C1361 1.495 . S
C1365 H1371 0.959 . S
C1365 H1372 0.961 . S
C1365 H1373 0.960 . S
C1366 C1364 1.381 . S
C1366 C1367 1.394 . S
C1366 H1374 0.930 . S
C1367 C1366 1.394 . S
C1367 C1368 1.383 . S
C1367 H1375 0.929 . S
C1368 C1367 1.383 . S
C1368 C1369 1.377 . S
C1369 H1353 0.930 . S
C1369 C1368 1.377 . S
C1369 C1370 1.379 . S
C1370 H1354 0.931 . S
C1370 C1364 1.383 . S
C1370 C1369 1.379 . S
H1371 C1365 0.959 . S
H1372 C1365 0.961 . S
H1373 C1365 0.960 . S
H1374 C1366 0.930 . S
H1375 C1367 0.929 . S
H1376 C1384 0.929 . S
H1377 C1386 0.930 . S
H1378 C1388 0.930 . S
H1379 C1391 0.929 . S
H1380 C1394 0.930 . S
H1381 C1396 0.960 . S
H1382 C1396 0.960 . S
H1383 C1396 0.960 . S
C1384 H1376 0.929 . S
C1384 C1385 1.377 . S
C1384 C1386 1.384 . S
C1385 C1384 1.377 . S
C1385 C1391 1.390 . S
C1386 H1377 0.930 . S
C1386 C1384 1.384 . S
C1386 C1387 1.372 . S
C1387 C1386 1.372 . S
C1387 C1388 1.400 . S
C1387 C1392 1.490 . S
C1388 H1378 0.930 . S
C1388 C1387 1.400 . S
C1388 C1391 1.386 . S
H1389 C1405 0.930 . S
H1390 C1406 0.931 . S
C1391 H1379 0.929 . S
C1391 C1385 1.390 . S
C1391 C1388 1.386 . S
C1392 C1387 1.490 . S
C1392 C1394 1.395 . S
C1392 C1395 1.403 . S
H1393 C1399 0.930 . S
C1394 H1380 0.930 . S
C1394 C1392 1.395 . S
C1394 C1397 1.403 . S
C1395 C1392 1.403 . S
C1395 C1396 1.524 . S
C1395 C1399 1.400 . S
C1396 H1381 0.960 . S
C1396 H1382 0.960 . S
C1396 H1383 0.960 . S
C1396 C1395 1.524 . S
C1397 C1394 1.403 . S
C1397 C1398 1.392 . S
C1397 C1401 1.495 . S
C1398 C1397 1.392 . S
C1398 C1399 1.385 . S
C1398 C1400 1.478 . S
C1399 H1393 0.930 . S
C1399 C1395 1.400 . S
C1399 C1398 1.385 . S
C1400 C1398 1.478 . S
C1400 C1402 1.381 . S
C1400 C1406 1.383 . S
C1401 C1397 1.495 . S
C1401 H1407 0.959 . S
C1401 H1408 0.961 . S
C1401 H1409 0.960 . S
C1402 C1400 1.381 . S
C1402 C1403 1.394 . S
C1402 H1410 0.930 . S
C1403 C1402 1.394 . S
C1403 C1404 1.383 . S
C1403 H1411 0.929 . S
C1404 C1403 1.383 . S
C1404 C1405 1.377 . S
C1405 H1389 0.930 . S
C1405 C1404 1.377 . S
C1405 C1406 1.379 . S
C1406 H1390 0.931 . S
C1406 C1400 1.383 . S
C1406 C1405 1.379 . S
H1407 C1401 0.959 . S
H1408 C1401 0.961 . S
H1409 C1401 0.960 . S
H1410 C1402 0.930 . S
H1411 C1403 0.929 . S
H1412 C1420 0.929 . S
H1413 C1422 0.930 . S
H1414 C1424 0.930 . S
H1415 C1427 0.929 . S
H1416 C1430 0.930 . S
H1417 C1432 0.960 . S
H1418 C1432 0.960 . S
H1419 C1432 0.960 . S
C1420 H1412 0.929 . S
C1420 C1421 1.377 . S
C1420 C1422 1.384 . S
C1421 C1420 1.377 . S
C1421 C1427 1.390 . S
C1422 H1413 0.930 . S
C1422 C1420 1.384 . S
C1422 C1423 1.372 . S
C1423 C1422 1.372 . S
C1423 C1424 1.400 . S
C1423 C1428 1.490 . S
C1424 H1414 0.930 . S
C1424 C1423 1.400 . S
C1424 C1427 1.386 . S
H1425 C1441 0.930 . S
H1426 C1442 0.931 . S
C1427 H1415 0.929 . S
C1427 C1421 1.390 . S
C1427 C1424 1.386 . S
C1428 C1423 1.490 . S
C1428 C1430 1.395 . S
C1428 C1431 1.403 . S
H1429 C1435 0.930 . S
C1430 H1416 0.930 . S
C1430 C1428 1.395 . S
C1430 C1433 1.403 . S
C1431 C1428 1.403 . S
C1431 C1432 1.524 . S
C1431 C1435 1.400 . S
C1432 H1417 0.960 . S
C1432 H1418 0.960 . S
C1432 H1419 0.960 . S
C1432 C1431 1.524 . S
C1433 C1430 1.403 . S
C1433 C1434 1.392 . S
C1433 C1437 1.495 . S
C1434 C1433 1.392 . S
C1434 C1435 1.385 . S
C1434 C1436 1.478 . S
C1435 H1429 0.930 . S
C1435 C1431 1.400 . S
C1435 C1434 1.385 . S
C1436 C1434 1.478 . S
C1436 C1438 1.381 . S
C1436 C1442 1.383 . S
C1437 C1433 1.495 . S
C1437 H1443 0.959 . S
C1437 H1444 0.961 . S
C1437 H1445 0.960 . S
C1438 C1436 1.381 . S
C1438 C1439 1.394 . S
C1438 H1446 0.930 . S
C1439 C1438 1.394 . S
C1439 C1440 1.383 . S
C1439 H1447 0.929 . S
C1440 C1439 1.383 . S
C1440 C1441 1.377 . S
C1441 H1425 0.930 . S
C1441 C1440 1.377 . S
C1441 C1442 1.379 . S
C1442 H1426 0.931 . S
C1442 C1436 1.383 . S
C1442 C1441 1.379 . S
H1443 C1437 0.959 . S
H1444 C1437 0.961 . S
H1445 C1437 0.960 . S
H1446 C1438 0.930 . S
H1447 C1439 0.929 . S
H1448 C1456 0.929 . S
H1449 C1458 0.930 . S
H1450 C1460 0.930 . S
H1451 C1463 0.929 . S
H1452 C1466 0.930 . S
H1453 C1468 0.960 . S
H1454 C1468 0.960 . S
H1455 C1468 0.960 . S
C1456 H1448 0.929 . S
C1456 C1457 1.377 . S
C1456 C1458 1.384 . S
C1457 C1456 1.377 . S
C1457 C1463 1.390 . S
C1458 H1449 0.930 . S
C1458 C1456 1.384 . S
C1458 C1459 1.372 . S
C1459 C1458 1.372 . S
C1459 C1460 1.400 . S
C1459 C1464 1.490 . S
C1460 H1450 0.930 . S
C1460 C1459 1.400 . S
C1460 C1463 1.386 . S
H1461 C1477 0.930 . S
H1462 C1478 0.931 . S
C1463 H1451 0.929 . S
C1463 C1457 1.390 . S
C1463 C1460 1.386 . S
C1464 C1459 1.490 . S
C1464 C1466 1.395 . S
C1464 C1467 1.403 . S
H1465 C1471 0.930 . S
C1466 H1452 0.930 . S
C1466 C1464 1.395 . S
C1466 C1469 1.403 . S
C1467 C1464 1.403 . S
C1467 C1468 1.524 . S
C1467 C1471 1.400 . S
C1468 H1453 0.960 . S
C1468 H1454 0.960 . S
C1468 H1455 0.960 . S
C1468 C1467 1.524 . S
C1469 C1466 1.403 . S
C1469 C1470 1.392 . S
C1469 C1473 1.495 . S
C1470 C1469 1.392 . S
C1470 C1471 1.385 . S
C1470 C1472 1.478 . S
C1471 H1465 0.930 . S
C1471 C1467 1.400 . S
C1471 C1470 1.385 . S
C1472 C1470 1.478 . S
C1472 C1474 1.381 . S
C1472 C1478 1.383 . S
C1473 C1469 1.495 . S
C1473 H1479 0.959 . S
C1473 H1480 0.961 . S
C1473 H1481 0.960 . S
C1474 C1472 1.381 . S
C1474 C1475 1.394 . S
C1474 H1482 0.930 . S
C1475 C1474 1.394 . S
C1475 C1476 1.383 . S
C1475 H1483 0.965 . S
C1476 C1475 1.383 . S
C1476 C1477 1.377 . S
C1477 H1461 0.930 . S
C1477 C1476 1.377 . S
C1477 C1478 1.379 . S
C1478 H1462 0.931 . S
C1478 C1472 1.383 . S
C1478 C1477 1.379 . S
H1479 C1473 0.959 . S
H1480 C1473 0.961 . S
H1481 C1473 0.960 . S
H1482 C1474 0.930 . S
H1483 C1475 0.965 . S
H1484 C1492 0.929 . S
H1485 C1494 0.930 . S
H1486 C1496 0.930 . S
H1487 C1499 0.929 . S
H1488 C1502 0.930 . S
H1489 C1504 0.960 . S
H1490 C1504 0.960 . S
H1491 C1504 0.960 . S
C1492 H1484 0.929 . S
C1492 C1493 1.377 . S
C1492 C1494 1.384 . S
C1493 C1492 1.377 . S
C1493 C1499 1.390 . S
C1494 H1485 0.930 . S
C1494 C1492 1.384 . S
C1494 C1495 1.372 . S
C1495 C1494 1.372 . S
C1495 C1496 1.400 . S
C1495 C1500 1.490 . S
C1496 H1486 0.930 . S
C1496 C1495 1.400 . S
C1496 C1499 1.386 . S
H1497 C1513 0.930 . S
H1498 C1514 0.931 . S
C1499 H1487 0.929 . S
C1499 C1493 1.390 . S
C1499 C1496 1.386 . S
C1500 C1495 1.490 . S
C1500 C1502 1.395 . S
C1500 C1503 1.403 . S
H1501 C1507 0.930 . S
C1502 H1488 0.930 . S
C1502 C1500 1.395 . S
C1502 C1505 1.403 . S
C1503 C1500 1.403 . S
C1503 C1504 1.524 . S
C1503 C1507 1.400 . S
C1504 H1489 0.960 . S
C1504 H1490 0.960 . S
C1504 H1491 0.960 . S
C1504 C1503 1.524 . S
C1505 C1502 1.403 . S
C1505 C1506 1.392 . S
C1505 C1509 1.495 . S
C1506 C1505 1.392 . S
C1506 C1507 1.385 . S
C1506 C1508 1.478 . S
C1507 H1501 0.930 . S
C1507 C1503 1.400 . S
C1507 C1506 1.385 . S
C1508 C1506 1.478 . S
C1508 C1510 1.381 . S
C1508 C1514 1.383 . S
C1509 C1505 1.495 . S
C1509 H1515 0.959 . S
C1509 H1516 0.961 . S
C1509 H1517 0.960 . S
C1510 C1508 1.381 . S
C1510 C1511 1.394 . S
C1510 H1518 0.930 . S
C1511 C1510 1.394 . S
C1511 C1512 1.383 . S
C1511 H1519 0.929 . S
C1512 C1511 1.383 . S
C1512 C1513 1.377 . S
C1513 H1497 0.930 . S
C1513 C1512 1.377 . S
C1513 C1514 1.379 . S
C1514 H1498 0.931 . S
C1514 C1508 1.383 . S
C1514 C1513 1.379 . S
H1515 C1509 0.959 . S
H1516 C1509 0.961 . S
H1517 C1509 0.960 . S
H1518 C1510 0.930 . S
H1519 C1511 0.929 . S
H1520 C1528 0.929 . S
H1521 C1530 0.930 . S
H1522 C1532 0.930 1_545 S
H1523 C1535 0.964 . S
H1524 C1538 0.930 . S
H1525 C1540 0.960 . S
H1526 C1540 0.960 . S
H1527 C1540 0.960 . S
C1528 H1520 0.929 . S
C1528 C1529 1.377 . S
C1528 C1530 1.384 . S
C1529 C1528 1.377 . S
C1529 C1535 1.362 1_565 S
C1530 H1521 0.930 . S
C1530 C1528 1.384 . S
C1530 C1531 1.372 . S
C1531 C1530 1.372 . S
C1531 C1532 1.400 . S
C1531 C1536 1.490 . S
C1532 H1522 0.930 1_565 S
C1532 C1531 1.400 . S
C1532 C1535 1.381 1_565 S
H1533 C1549 0.930 1_545 S
H1534 C1550 0.931 1_545 S
C1535 H1523 0.964 . S
C1535 C1529 1.362 1_545 S
C1535 C1532 1.381 1_545 S
C1536 C1531 1.490 . S
C1536 C1538 1.395 . S
C1536 C1539 1.403 . S
H1537 C1543 0.930 . S
C1538 H1524 0.930 . S
C1538 C1536 1.395 . S
C1538 C1541 1.403 . S
C1539 C1536 1.403 . S
C1539 C1540 1.524 . S
C1539 C1543 1.400 . S
C1540 H1525 0.960 . S
C1540 H1526 0.960 . S
C1540 H1527 0.960 . S
C1540 C1539 1.524 . S
C1541 C1538 1.403 . S
C1541 C1542 1.392 . S
C1541 C1545 1.495 . S
C1542 C1541 1.392 . S
C1542 C1543 1.385 . S
C1542 C1544 1.478 . S
C1543 H1537 0.930 . S
C1543 C1539 1.400 . S
C1543 C1542 1.385 . S
C1544 C1542 1.478 . S
C1544 C1546 1.381 . S
C1544 C1550 1.383 . S
C1545 C1541 1.495 . S
C1545 H1551 0.959 . S
C1545 H1552 0.961 . S
C1545 H1553 0.960 . S
C1546 C1544 1.381 . S
C1546 C1547 1.394 . S
C1546 H1554 0.930 . S
C1547 C1546 1.394 . S
C1547 C1548 1.383 . S
C1547 H1555 0.929 . S
C1548 C1547 1.383 . S
C1548 C1549 1.377 . S
C1549 H1533 0.930 1_565 S
C1549 C1548 1.377 . S
C1549 C1550 1.379 . S
C1550 H1534 0.931 1_565 S
C1550 C1544 1.383 . S
C1550 C1549 1.379 . S
H1551 C1545 0.959 . S
H1552 C1545 0.961 . S
H1553 C1545 0.960 . S
H1554 C1546 0.930 . S
H1555 C1547 0.929 . S
H1556 C1564 0.929 . S
H1557 C1566 0.930 . S
H1558 C1568 0.930 . S
H1559 C1571 0.929 . S
H1560 C1574 0.930 . S
H1561 C1576 0.960 . S
H1562 C1576 0.960 . S
H1563 C1576 0.960 . S
C1564 H1556 0.929 . S
C1564 C1565 1.377 . S
C1564 C1566 1.384 . S
C1565 C1564 1.377 . S
C1565 C1571 1.390 . S
C1566 H1557 0.930 . S
C1566 C1564 1.384 . S
C1566 C1567 1.372 . S
C1567 C1566 1.372 . S
C1567 C1568 1.400 . S
C1567 C1572 1.490 . S
C1568 H1558 0.930 . S
C1568 C1567 1.400 . S
C1568 C1571 1.386 . S
H1569 C1585 0.930 . S
H1570 C1586 0.931 . S
C1571 H1559 0.929 . S
C1571 C1565 1.390 . S
C1571 C1568 1.386 . S
C1572 C1567 1.490 . S
C1572 C1574 1.395 . S
C1572 C1575 1.403 . S
H1573 C1579 0.930 . S
C1574 H1560 0.930 . S
C1574 C1572 1.395 . S
C1574 C1577 1.403 . S
C1575 C1572 1.403 . S
C1575 C1576 1.524 . S
C1575 C1579 1.400 . S
C1576 H1561 0.960 . S
C1576 H1562 0.960 . S
C1576 H1563 0.960 . S
C1576 C1575 1.524 . S
C1577 C1574 1.403 . S
C1577 C1578 1.392 . S
C1577 C1581 1.495 . S
C1578 C1577 1.392 . S
C1578 C1579 1.385 . S
C1578 C1580 1.478 . S
C1579 H1573 0.930 . S
C1579 C1575 1.400 . S
C1579 C1578 1.385 . S
C1580 C1578 1.478 . S
C1580 C1582 1.381 . S
C1580 C1586 1.383 . S
C1581 C1577 1.495 . S
C1581 H1587 0.959 . S
C1581 H1588 0.961 . S
C1581 H1589 0.960 . S
C1582 C1580 1.381 . S
C1582 C1583 1.394 . S
C1582 H1590 0.930 . S
C1583 C1582 1.394 . S
C1583 C1584 1.383 . S
C1583 H1591 0.929 . S
C1584 C1583 1.383 . S
C1584 C1585 1.377 . S
C1585 H1569 0.930 . S
C1585 C1584 1.377 . S
C1585 C1586 1.379 . S
C1586 H1570 0.931 . S
C1586 C1580 1.383 . S
C1586 C1585 1.379 . S
H1587 C1581 0.959 . S
H1588 C1581 0.961 . S
H1589 C1581 0.960 . S
H1590 C1582 0.930 . S
H1591 C1583 0.929 . S
H1592 C1600 0.929 . S
H1593 C1602 0.930 . S
H1594 C1604 0.930 . S
H1595 C1607 0.929 . S
H1596 C1610 0.949 . S
H1597 C1612 0.960 . S
H1598 C1612 0.960 . S
H1599 C1612 0.960 . S
C1600 H1592 0.929 . S
C1600 C1601 1.377 . S
C1600 C1602 1.384 . S
C1601 C1600 1.377 . S
C1601 C1607 1.390 . S
C1602 H1593 0.930 . S
C1602 C1600 1.384 . S
C1602 C1603 1.372 . S
C1603 C1602 1.372 . S
C1603 C1604 1.400 . S
C1603 C1608 1.490 . S
C1604 H1594 0.930 . S
C1604 C1603 1.400 . S
C1604 C1607 1.386 . S
H1605 C1621 0.930 . S
H1606 C1622 0.931 . S
C1607 H1595 0.929 . S
C1607 C1601 1.390 . S
C1607 C1604 1.386 . S
C1608 C1603 1.490 . S
C1608 C1610 1.376 1_545 S
C1608 C1611 1.403 . S
H1609 C1615 0.930 . S
C1610 H1596 0.949 . S
C1610 C1608 1.376 1_565 S
C1610 C1613 1.404 . S
C1611 C1608 1.403 . S
C1611 C1612 1.524 . S
C1611 C1615 1.400 . S
C1612 H1597 0.960 . S
C1612 H1598 0.960 . S
C1612 H1599 0.960 . S
C1612 C1611 1.524 . S
C1613 C1610 1.404 . S
C1613 C1614 1.392 1_565 S
C1613 C1617 1.495 . S
C1614 C1613 1.392 1_545 S
C1614 C1615 1.385 . S
C1614 C1616 1.478 . S
C1615 H1609 0.930 . S
C1615 C1611 1.400 . S
C1615 C1614 1.385 . S
C1616 C1614 1.478 . S
C1616 C1618 1.381 . S
C1616 C1622 1.383 . S
C1617 C1613 1.495 . S
C1617 H1623 0.959 . S
C1617 H1624 0.961 . S
C1617 H1625 0.960 . S
C1618 C1616 1.381 . S
C1618 C1619 1.394 . S
C1618 H1626 0.930 . S
C1619 C1618 1.394 . S
C1619 C1620 1.383 . S
C1619 H1627 0.929 . S
C1620 C1619 1.383 . S
C1620 C1621 1.377 . S
C1621 H1605 0.930 . S
C1621 C1620 1.377 . S
C1621 C1622 1.379 . S
C1622 H1606 0.931 . S
C1622 C1616 1.383 . S
C1622 C1621 1.379 . S
H1623 C1617 0.959 . S
H1624 C1617 0.961 . S
H1625 C1617 0.960 . S
H1626 C1618 0.930 . S
H1627 C1619 0.929 . S
H1628 C1636 0.929 . S
H1629 C1638 0.930 . S
H1630 C1640 0.930 . S
H1631 C1643 0.929 . S
H1632 C1646 0.930 . S
H1633 C1648 0.960 . S
H1634 C1648 0.960 . S
H1635 C1648 0.960 . S
C1636 H1628 0.929 . S
C1636 C1637 1.377 . S
C1636 C1638 1.384 . S
C1637 C1636 1.377 . S
C1637 C1643 1.390 . S
C1638 H1629 0.930 . S
C1638 C1636 1.384 . S
C1638 C1639 1.372 . S
C1639 C1638 1.372 . S
C1639 C1640 1.400 . S
C1639 C1644 1.490 . S
C1640 H1630 0.930 . S
C1640 C1639 1.400 . S
C1640 C1643 1.386 . S
H1641 C1657 0.930 . S
H1642 C1658 0.931 . S
C1643 H1631 0.929 . S
C1643 C1637 1.390 . S
C1643 C1640 1.386 . S
C1644 C1639 1.490 . S
C1644 C1646 1.395 . S
C1644 C1647 1.403 . S
H1645 C1651 0.930 . S
C1646 H1632 0.930 . S
C1646 C1644 1.395 . S
C1646 C1649 1.403 . S
C1647 C1644 1.403 . S
C1647 C1648 1.524 . S
C1647 C1651 1.400 . S
C1648 H1633 0.960 . S
C1648 H1634 0.960 . S
C1648 H1635 0.960 . S
C1648 C1647 1.524 . S
C1649 C1646 1.403 . S
C1649 C1650 1.392 . S
C1649 C1653 1.495 . S
C1650 C1649 1.392 . S
C1650 C1651 1.385 . S
C1650 C1652 1.478 . S
C1651 H1645 0.930 . S
C1651 C1647 1.400 . S
C1651 C1650 1.385 . S
C1652 C1650 1.478 . S
C1652 C1654 1.381 . S
C1652 C1658 1.383 . S
C1653 C1649 1.495 . S
C1653 H1659 0.959 . S
C1653 H1660 0.961 . S
C1653 H1661 0.960 . S
C1654 C1652 1.381 . S
C1654 C1655 1.394 . S
C1654 H1662 0.930 . S
C1655 C1654 1.394 . S
C1655 C1656 1.383 . S
C1655 H1663 0.929 . S
C1656 C1655 1.383 . S
C1656 C1657 1.377 . S
C1657 H1641 0.930 . S
C1657 C1656 1.377 . S
C1657 C1658 1.379 . S
C1658 H1642 0.931 . S
C1658 C1652 1.383 . S
C1658 C1657 1.379 . S
H1659 C1653 0.959 . S
H1660 C1653 0.961 . S
H1661 C1653 0.960 . S
H1662 C1654 0.930 . S
H1663 C1655 0.929 . S
H1664 C1672 0.929 . S
H1665 C1674 0.930 . S
H1666 C1676 0.930 . S
H1667 C1679 0.929 . S
H1668 C1682 0.930 . S
H1669 C1684 0.960 . S
H1670 C1684 0.960 . S
H1671 C1684 0.960 . S
C1672 H1664 0.929 . S
C1672 C1673 1.377 . S
C1672 C1674 1.384 . S
C1673 C1672 1.377 . S
C1673 C1679 1.390 . S
C1674 H1665 0.930 . S
C1674 C1672 1.384 . S
C1674 C1675 1.372 . S
C1675 C1674 1.372 . S
C1675 C1676 1.400 . S
C1675 C1680 1.490 . S
C1676 H1666 0.930 . S
C1676 C1675 1.400 . S
C1676 C1679 1.386 . S
H1677 C1693 0.930 . S
H1678 C1694 0.931 . S
C1679 H1667 0.929 . S
C1679 C1673 1.390 . S
C1679 C1676 1.386 . S
C1680 C1675 1.490 . S
C1680 C1682 1.395 . S
C1680 C1683 1.403 . S
H1681 C1687 0.930 1_554 S
C1682 H1668 0.930 . S
C1682 C1680 1.395 . S
C1682 C1685 1.403 . S
C1683 C1680 1.403 . S
C1683 C1684 1.524 1_556 S
C1683 C1687 1.400 . S
C1684 H1669 0.960 . S
C1684 H1670 0.960 . S
C1684 H1671 0.960 . S
C1684 C1683 1.524 1_554 S
C1685 C1682 1.403 . S
C1685 C1686 1.392 . S
C1685 C1689 1.495 . S
C1686 C1685 1.392 . S
C1686 C1687 1.385 . S
C1686 C1688 1.478 . S
C1687 H1681 0.930 1_556 S
C1687 C1683 1.400 . S
C1687 C1686 1.385 . S
C1688 C1686 1.478 . S
C1688 C1690 1.381 . S
C1688 C1694 1.383 . S
C1689 C1685 1.495 . S
C1689 H1695 0.959 . S
C1689 H1696 0.961 . S
C1689 H1697 0.960 . S
C1690 C1688 1.381 . S
C1690 C1691 1.394 . S
C1690 H1698 0.930 . S
C1691 C1690 1.394 . S
C1691 C1692 1.383 . S
C1691 H1699 0.929 . S
C1692 C1691 1.383 . S
C1692 C1693 1.377 . S
C1693 H1677 0.930 . S
C1693 C1692 1.377 . S
C1693 C1694 1.379 . S
C1694 H1678 0.931 . S
C1694 C1688 1.383 . S
C1694 C1693 1.379 . S
H1695 C1689 0.959 . S
H1696 C1689 0.961 . S
H1697 C1689 0.960 . S
H1698 C1690 0.930 . S
H1699 C1691 0.929 . S
H1700 C1708 0.929 . S
H1701 C1710 0.930 . S
H1702 C1712 0.930 . S
H1703 C1715 0.929 . S
H1704 C1718 0.930 . S
H1705 C1720 0.960 . S
H1706 C1720 0.960 . S
H1707 C1720 0.960 . S
C1708 H1700 0.929 . S
C1708 C1709 1.377 1_554 S
C1708 C1710 1.384 . S
C1709 C1708 1.377 1_556 S
C1709 C1715 1.390 . S
C1710 H1701 0.930 . S
C1710 C1708 1.384 . S
C1710 C1711 1.372 1_554 S
C1711 C1710 1.372 1_556 S
C1711 C1712 1.400 . S
C1711 C1716 1.490 . S
C1712 H1702 0.930 . S
C1712 C1711 1.400 . S
C1712 C1715 1.386 . S
H1713 C1729 0.930 . S
H1714 C1730 0.931 . S
C1715 H1703 0.929 . S
C1715 C1709 1.390 . S
C1715 C1712 1.386 . S
C1716 C1711 1.490 . S
C1716 C1718 1.395 . S
C1716 C1719 1.403 . S
H1717 C1723 0.930 . S
C1718 H1704 0.930 . S
C1718 C1716 1.395 . S
C1718 C1721 1.403 . S
C1719 C1716 1.403 . S
C1719 C1720 1.524 . S
C1719 C1723 1.400 . S
C1720 H1705 0.960 . S
C1720 H1706 0.960 . S
C1720 H1707 0.960 . S
C1720 C1719 1.524 . S
C1721 C1718 1.403 . S
C1721 C1722 1.392 . S
C1721 C1725 1.495 . S
C1722 C1721 1.392 . S
C1722 C1723 1.385 . S
C1722 C1724 1.478 . S
C1723 H1717 0.930 . S
C1723 C1719 1.400 . S
C1723 C1722 1.385 . S
C1724 C1722 1.478 . S
C1724 C1726 1.381 . S
C1724 C1730 1.383 . S
C1725 C1721 1.495 . S
C1725 H1731 0.959 . S
C1725 H1732 0.961 . S
C1725 H1733 0.960 . S
C1726 C1724 1.381 . S
C1726 C1727 1.394 . S
C1726 H1734 0.930 1_556 S
C1727 C1726 1.394 . S
C1727 C1728 1.383 . S
C1727 H1735 0.921 1_556 S
C1728 C1727 1.383 . S
C1728 C1729 1.377 . S
C1729 H1713 0.930 . S
C1729 C1728 1.377 . S
C1729 C1730 1.379 . S
C1730 H1714 0.931 . S
C1730 C1724 1.383 . S
C1730 C1729 1.379 . S
H1731 C1725 0.959 . S
H1732 C1725 0.961 . S
H1733 C1725 0.960 . S
H1734 C1726 0.930 1_554 S
H1735 C1727 0.921 1_554 S
H1736 C1744 0.929 1_556 S
H1737 C1746 0.930 . S
H1738 C1748 0.930 . S
H1739 C1751 0.929 . S
H1740 C1754 0.930 . S
H1741 C1756 0.960 . S
H1742 C1756 0.960 . S
H1743 C1756 0.960 . S
C1744 H1736 0.929 1_554 S
C1744 C1745 1.377 . S
C1744 C1746 1.384 . S
C1745 C1744 1.377 . S
C1745 C1751 1.390 . S
C1746 H1737 0.930 . S
C1746 C1744 1.384 . S
C1746 C1747 1.372 . S
C1747 C1746 1.372 . S
C1747 C1748 1.400 . S
C1747 C1752 1.490 . S
C1748 H1738 0.930 . S
C1748 C1747 1.400 . S
C1748 C1751 1.386 . S
H1749 C1765 0.930 . S
H1750 C1766 0.931 . S
C1751 H1739 0.929 . S
C1751 C1745 1.390 . S
C1751 C1748 1.386 . S
C1752 C1747 1.490 . S
C1752 C1754 1.395 . S
C1752 C1755 1.403 . S
H1753 C1759 0.930 . S
C1754 H1740 0.930 . S
C1754 C1752 1.395 . S
C1754 C1757 1.403 . S
C1755 C1752 1.403 . S
C1755 C1756 1.524 . S
C1755 C1759 1.400 . S
C1756 H1741 0.960 . S
C1756 H1742 0.960 . S
C1756 H1743 0.960 . S
C1756 C1755 1.524 . S
C1757 C1754 1.403 . S
C1757 C1758 1.392 . S
C1757 C1761 1.495 . S
C1758 C1757 1.392 . S
C1758 C1759 1.385 . S
C1758 C1760 1.478 . S
C1759 H1753 0.930 . S
C1759 C1755 1.400 . S
C1759 C1758 1.385 . S
C1760 C1758 1.478 . S
C1760 C1762 1.381 1_655 S
C1760 C1766 1.383 . S
C1761 C1757 1.495 . S
C1761 H1767 0.959 . S
C1761 H1768 0.961 . S
C1761 H1769 0.960 . S
C1762 C1760 1.381 1_455 S
C1762 C1763 1.394 . S
C1762 H1770 0.920 1_455 S
C1763 C1762 1.394 . S
C1763 C1764 1.383 . S
C1763 H1771 0.929 . S
C1764 C1763 1.383 . S
C1764 C1765 1.377 . S
C1765 H1749 0.930 . S
C1765 C1764 1.377 . S
C1765 C1766 1.379 1_455 S
C1766 H1750 0.931 . S
C1766 C1760 1.383 . S
C1766 C1765 1.379 1_655 S
H1767 C1761 0.959 . S
H1768 C1761 0.961 . S
H1769 C1761 0.960 . S
H1770 C1762 0.920 1_655 S
H1771 C1763 0.929 . S
H1772 C1780 0.929 . S
H1773 C1782 0.930 . S
H1774 C1784 0.930 . S
H1775 C1787 0.929 . S
H1776 C1790 0.930 1_655 S
H1777 C1792 0.960 . S
H1778 C1792 0.960 . S
H1779 C1792 0.960 . S
C1780 H1772 0.929 . S
C1780 C1781 1.377 . S
C1780 C1782 1.384 . S
C1781 C1780 1.377 . S
C1781 C1787 1.390 . S
C1782 H1773 0.930 . S
C1782 C1780 1.384 . S
C1782 C1783 1.372 . S
C1783 C1782 1.372 . S
C1783 C1784 1.400 . S
C1783 C1788 1.490 . S
C1784 H1774 0.930 . S
C1784 C1783 1.400 . S
C1784 C1787 1.386 . S
H1785 C1801 0.930 . S
H1786 C1802 0.931 . S
C1787 H1775 0.929 . S
C1787 C1781 1.390 . S
C1787 C1784 1.386 . S
C1788 C1783 1.490 . S
C1788 C1790 1.395 . S
C1788 C1791 1.403 . S
H1789 C1795 0.930 . S
C1790 H1776 0.930 1_455 S
C1790 C1788 1.395 . S
C1790 C1793 1.403 . S
C1791 C1788 1.403 . S
C1791 C1792 1.524 . S
C1791 C1795 1.400 . S
C1792 H1777 0.960 . S
C1792 H1778 0.960 . S
C1792 H1779 0.960 . S
C1792 C1791 1.524 . S
C1793 C1790 1.403 . S
C1793 C1794 1.392 . S
C1793 C1797 1.495 1_455 S
C1794 C1793 1.392 . S
C1794 C1795 1.385 . S
C1794 C1796 1.478 . S
C1795 H1789 0.930 . S
C1795 C1791 1.400 . S
C1795 C1794 1.385 . S
C1796 C1794 1.478 . S
C1796 C1798 1.381 . S
C1796 C1802 1.383 . S
C1797 C1793 1.495 1_655 S
C1797 H1803 0.959 . S
C1797 H1804 0.961 . S
C1797 H1805 0.960 . S
C1798 C1796 1.381 . S
C1798 C1799 1.394 . S
C1798 H1806 0.930 . S
C1799 C1798 1.394 . S
C1799 C1800 1.383 . S
C1799 H1807 0.929 . S
C1800 C1799 1.383 . S
C1800 C1801 1.377 . S
C1801 H1785 0.930 . S
C1801 C1800 1.377 . S
C1801 C1802 1.379 . S
C1802 H1786 0.931 . S
C1802 C1796 1.383 . S
C1802 C1801 1.379 . S
H1803 C1797 0.959 . S
H1804 C1797 0.961 . S
H1805 C1797 0.960 . S
H1806 C1798 0.930 . S
H1807 C1799 0.929 . S
H1808 C1816 0.929 . S
H1809 C1818 0.930 . S
H1810 C1820 0.930 . S
H1811 C1823 0.929 . S
H1812 C1826 0.930 1_455 S
H1813 C1828 0.960 . S
H1814 C1828 0.960 . S
H1815 C1828 0.960 . S
C1816 H1808 0.929 . S
C1816 C1817 1.377 . S
C1816 C1818 1.384 . S
C1817 C1816 1.377 . S
C1817 C1823 1.390 1_655 S
C1818 H1809 0.930 . S
C1818 C1816 1.384 . S
C1818 C1819 1.372 . S
C1819 C1818 1.372 . S
C1819 C1820 1.400 1_655 S
C1819 C1824 1.490 . S
C1820 H1810 0.930 . S
C1820 C1819 1.400 1_455 S
C1820 C1823 1.386 . S
H1821 C1837 0.930 . S
H1822 C1838 0.931 . S
C1823 H1811 0.929 . S
C1823 C1817 1.390 1_455 S
C1823 C1820 1.386 . S
C1824 C1819 1.490 . S
C1824 C1826 1.395 . S
C1824 C1827 1.403 . S
H1825 C1831 0.930 . S
C1826 H1812 0.930 1_655 S
C1826 C1824 1.395 . S
C1826 C1829 1.402 . S
C1827 C1824 1.403 . S
C1827 C1828 1.524 . S
C1827 C1831 1.400 . S
C1828 H1813 0.960 . S
C1828 H1814 0.960 . S
C1828 H1815 0.960 . S
C1828 C1827 1.524 . S
C1829 C1826 1.402 . S
C1829 C1830 1.407 . S
C1829 C1833 1.483 1_655 S
C1830 C1829 1.407 . S
C1830 C1831 1.385 . S
C1830 C1832 1.478 . S
C1831 H1825 0.930 . S
C1831 C1827 1.400 . S
C1831 C1830 1.385 . S
C1832 C1830 1.478 . S
C1832 C1834 1.381 . S
C1832 C1838 1.383 1_655 S
C1833 C1829 1.483 1_455 S
C1833 H1839 0.959 . S
C1833 H1840 0.961 . S
C1833 H1841 0.960 1_455 S
C1834 C1832 1.381 . S
C1834 C1835 1.394 . S
C1834 H1842 0.930 . S
C1835 C1834 1.394 . S
C1835 C1836 1.383 . S
C1835 H1843 0.929 . S
C1836 C1835 1.383 . S
C1836 C1837 1.377 1_655 S
C1837 H1821 0.930 . S
C1837 C1836 1.377 1_455 S
C1837 C1838 1.379 . S
C1838 H1822 0.931 . S
C1838 C1832 1.383 1_455 S
C1838 C1837 1.379 . S
H1839 C1833 0.959 . S
H1840 C1833 0.961 . S
H1841 C1833 0.960 1_655 S
H1842 C1834 0.930 . S
H1843 C1835 0.929 . S
H1844 C1852 0.933 1_655 S
H1845 C1854 0.925 1_655 S
H1846 C1856 0.930 . S
H1847 C1859 0.929 . S
H1848 C1862 0.930 . S
H1849 C1864 0.960 . S
H1850 C1864 0.960 . S
H1851 C1864 0.960 . S
C1852 H1844 0.933 1_455 S
C1852 C1853 1.374 . S
C1852 C1854 1.383 . S
C1853 C1852 1.374 . S
C1853 C1859 1.390 . S
C1854 H1845 0.925 1_455 S
C1854 C1852 1.383 . S
C1854 C1855 1.377 . S
C1855 C1854 1.377 . S
C1855 C1856 1.400 . S
C1855 C1860 1.490 . S
C1856 H1846 0.930 . S
C1856 C1855 1.400 . S
C1856 C1859 1.386 . S
H1857 C1873 0.930 . S
H1858 C1874 0.931 . S
C1859 H1847 0.929 . S
C1859 C1853 1.390 . S
C1859 C1856 1.386 . S
C1860 C1855 1.490 . S
C1860 C1862 1.395 . S
C1860 C1863 1.403 . S
H1861 C1867 0.930 . S
C1862 H1848 0.930 . S
C1862 C1860 1.395 . S
C1862 C1865 1.403 . S
C1863 C1860 1.403 . S
C1863 C1864 1.524 . S
C1863 C1867 1.400 . S
C1864 H1849 0.960 . S
C1864 H1850 0.960 . S
C1864 H1851 0.960 . S
C1864 C1863 1.524 . S
C1865 C1862 1.403 . S
C1865 C1866 1.392 . S
C1865 C1869 1.495 . S
C1866 C1865 1.392 . S
C1866 C1867 1.385 . S
C1866 C1868 1.478 . S
C1867 H1861 0.930 . S
C1867 C1863 1.400 . S
C1867 C1866 1.385 . S
C1868 C1866 1.478 . S
C1868 C1870 1.381 . S
C1868 C1874 1.383 . S
C1869 C1865 1.495 . S
C1869 H1875 0.959 . S
C1869 H1876 0.961 . S
C1869 H1877 0.960 . S
C1870 C1868 1.381 . S
C1870 C1871 1.394 . S
C1870 H1878 0.930 1_455 S
C1871 C1870 1.394 . S
C1871 C1872 1.383 . S
C1871 H1879 0.929 1_455 S
C1872 C1871 1.383 . S
C1872 C1873 1.377 . S
C1873 H1857 0.930 . S
C1873 C1872 1.377 . S
C1873 C1874 1.379 . S
C1874 H1858 0.931 . S
C1874 C1868 1.383 . S
C1874 C1873 1.379 . S
H1875 C1869 0.959 . S
H1876 C1869 0.961 . S
H1877 C1869 0.960 . S
H1878 C1870 0.930 1_655 S
H1879 C1871 0.929 1_655 S
H1880 C1888 0.929 . S
H1881 C1890 0.930 . S
H1882 C1892 0.930 . S
H1883 C1895 0.929 . S
H1884 C1898 0.930 . S
H1885 C1900 0.960 . S
H1886 C1900 0.960 . S
H1887 C1900 0.960 . S
C1888 H1880 0.929 . S
C1888 C1889 1.377 . S
C1888 C1890 1.384 . S
C1889 C1888 1.377 . S
C1889 C1895 1.390 1_655 S
C1890 H1881 0.930 . S
C1890 C1888 1.384 . S
C1890 C1891 1.372 . S
C1891 C1890 1.372 . S
C1891 C1892 1.400 1_655 S
C1891 C1896 1.490 . S
C1892 H1882 0.930 . S
C1892 C1891 1.400 1_455 S
C1892 C1895 1.386 . S
H1893 C1909 0.930 . S
H1894 C1910 0.931 . S
C1895 H1883 0.929 . S
C1895 C1889 1.390 1_455 S
C1895 C1892 1.386 . S
C1896 C1891 1.490 . S
C1896 C1898 1.395 . S
C1896 C1899 1.403 . S
H1897 C1903 0.962 . S
C1898 H1884 0.930 . S
C1898 C1896 1.395 . S
C1898 C1901 1.403 . S
C1899 C1896 1.403 . S
C1899 C1900 1.524 1_655 S
C1899 C1903 1.400 . S
C1900 H1885 0.960 . S
C1900 H1886 0.960 . S
C1900 H1887 0.960 . S
C1900 C1899 1.524 1_455 S
C1901 C1898 1.403 . S
C1901 C1902 1.392 . S
C1901 C1905 1.495 . S
C1902 C1901 1.392 . S
C1902 C1903 1.385 . S
C1902 C1904 1.478 . S
C1903 H1897 0.962 . S
C1903 C1899 1.400 . S
C1903 C1902 1.385 . S
C1904 C1902 1.478 . S
C1904 C1906 1.381 . S
C1904 C1910 1.383 . S
C1905 C1901 1.495 . S
C1905 H1911 0.959 . S
C1905 H1912 0.961 . S
C1905 H1913 0.960 . S
C1906 C1904 1.381 . S
C1906 C1907 1.394 . S
C1906 H1914 0.930 . S
C1907 C1906 1.394 . S
C1907 C1908 1.383 . S
C1907 H1915 0.929 . S
C1908 C1907 1.383 . S
C1908 C1909 1.377 . S
C1909 H1893 0.930 . S
C1909 C1908 1.377 . S
C1909 C1910 1.379 . S
C1910 H1894 0.931 . S
C1910 C1904 1.383 . S
C1910 C1909 1.379 . S
H1911 C1905 0.959 . S
H1912 C1905 0.961 . S
H1913 C1905 0.960 . S
H1914 C1906 0.930 . S
H1915 C1907 0.929 . S
H1916 C1924 0.929 . S
H1917 C1926 0.930 . S
H1918 C1928 0.930 . S
H1919 C1931 0.929 1_565 S
H1920 C1934 0.930 . S
H1921 C1936 0.960 . S
H1922 C1936 0.960 . S
H1923 C1936 0.960 . S
C1924 H1916 0.929 . S
C1924 C1925 1.377 . S
C1924 C1926 1.384 . S
C1925 C1924 1.377 . S
C1925 C1931 1.390 . S
C1926 H1917 0.930 . S
C1926 C1924 1.384 . S
C1926 C1927 1.372 . S
C1927 C1926 1.372 . S
C1927 C1928 1.400 . S
C1927 C1932 1.490 . S
C1928 H1918 0.930 . S
C1928 C1927 1.400 . S
C1928 C1931 1.386 . S
H1929 C1945 0.930 . S
H1930 C1946 0.931 . S
C1931 H1919 0.929 1_545 S
C1931 C1925 1.390 . S
C1931 C1928 1.386 . S
C1932 C1927 1.490 . S
C1932 C1934 1.395 . S
C1932 C1935 1.403 . S
H1933 C1939 0.930 . S
C1934 H1920 0.930 . S
C1934 C1932 1.395 . S
C1934 C1937 1.403 . S
C1935 C1932 1.403 . S
C1935 C1936 1.524 . S
C1935 C1939 1.400 . S
C1936 H1921 0.960 . S
C1936 H1922 0.960 . S
C1936 H1923 0.960 . S
C1936 C1935 1.524 . S
C1937 C1934 1.403 . S
C1937 C1938 1.392 . S
C1937 C1941 1.495 . S
C1938 C1937 1.392 . S
C1938 C1939 1.385 . S
C1938 C1940 1.478 . S
C1939 H1933 0.930 . S
C1939 C1935 1.400 . S
C1939 C1938 1.385 . S
C1940 C1938 1.478 . S
C1940 C1942 1.381 . S
C1940 C1946 1.383 . S
C1941 C1937 1.495 . S
C1941 H1947 0.959 . S
C1941 H1948 0.961 . S
C1941 H1949 0.960 . S
C1942 C1940 1.381 . S
C1942 C1943 1.394 . S
C1942 H1950 0.930 . S
C1943 C1942 1.394 . S
C1943 C1944 1.383 . S
C1943 H1951 0.929 . S
C1944 C1943 1.383 . S
C1944 C1945 1.377 . S
C1945 H1929 0.930 . S
C1945 C1944 1.377 . S
C1945 C1946 1.379 . S
C1946 H1930 0.931 . S
C1946 C1940 1.383 . S
C1946 C1945 1.379 . S
H1947 C1941 0.959 . S
H1948 C1941 0.961 . S
H1949 C1941 0.960 . S
H1950 C1942 0.930 . S
H1951 C1943 0.929 . S
H1952 C1960 0.929 . S
H1953 C1962 0.930 . S
H1954 C1964 0.930 . S
H1955 C1967 0.929 . S
H1956 C1970 0.930 . S
H1957 C1972 0.960 . S
H1958 C1972 0.960 . S
H1959 C1972 0.960 . S
C1960 H1952 0.929 . S
C1960 C1961 1.377 . S
C1960 C1962 1.384 . S
C1961 C1960 1.377 . S
C1961 C1967 1.390 . S
C1962 H1953 0.930 . S
C1962 C1960 1.384 . S
C1962 C1963 1.372 . S
C1963 C1962 1.372 . S
C1963 C1964 1.400 . S
C1963 C1968 1.490 . S
C1964 H1954 0.930 . S
C1964 C1963 1.400 . S
C1964 C1967 1.386 . S
H1965 C1981 0.930 . S
H1966 C1982 0.931 . S
C1967 H1955 0.929 . S
C1967 C1961 1.390 . S
C1967 C1964 1.386 . S
C1968 C1963 1.490 . S
C1968 C1970 1.395 . S
C1968 C1971 1.403 . S
H1969 C1975 0.930 . S
C1970 H1956 0.930 . S
C1970 C1968 1.395 . S
C1970 C1973 1.403 . S
C1971 C1968 1.403 . S
C1971 C1972 1.524 . S
C1971 C1975 1.400 . S
C1972 H1957 0.960 . S
C1972 H1958 0.960 . S
C1972 H1959 0.960 . S
C1972 C1971 1.524 . S
C1973 C1970 1.403 . S
C1973 C1974 1.392 . S
C1973 C1977 1.495 . S
C1974 C1973 1.392 . S
C1974 C1975 1.385 . S
C1974 C1976 1.478 . S
C1975 H1969 0.930 . S
C1975 C1971 1.400 . S
C1975 C1974 1.385 . S
C1976 C1974 1.478 . S
C1976 C1978 1.381 . S
C1976 C1982 1.383 . S
C1977 C1973 1.495 . S
C1977 H1983 0.959 . S
C1977 H1984 0.961 . S
C1977 H1985 0.960 . S
C1978 C1976 1.381 . S
C1978 C1979 1.394 . S
C1978 H1986 0.930 . S
C1979 C1978 1.394 . S
C1979 C1980 1.383 . S
C1979 H1987 0.929 . S
C1980 C1979 1.383 . S
C1980 C1981 1.377 . S
C1981 H1965 0.930 . S
C1981 C1980 1.377 . S
C1981 C1982 1.379 . S
C1982 H1966 0.931 . S
C1982 C1976 1.383 . S
C1982 C1981 1.379 . S
H1983 C1977 0.959 . S
H1984 C1977 0.961 . S
H1985 C1977 0.960 . S
H1986 C1978 0.930 . S
H1987 C1979 0.929 . S
H1988 C1996 0.929 . S
H1989 C1998 0.930 . S
H1990 C2000 0.930 . S
H1991 C2003 0.929 . S
H1992 C2006 0.930 1_545 S
H1993 C2008 0.960 . S
H1994 C2008 0.960 . S
H1995 C2008 0.960 . S
C1996 H1988 0.929 . S
C1996 C1997 1.377 . S
C1996 C1998 1.384 . S
C1997 C1996 1.377 . S
C1997 C2003 1.390 . S
C1998 H1989 0.930 . S
C1998 C1996 1.384 . S
C1998 C1999 1.372 . S
C1999 C1998 1.372 . S
C1999 C2000 1.400 . S
C1999 C2004 1.490 . S
C2000 H1990 0.930 . S
C2000 C1999 1.400 . S
C2000 C2003 1.386 . S
H2001 C2017 0.930 . S
H2002 C2018 0.931 . S
C2003 H1991 0.929 . S
C2003 C1997 1.390 . S
C2003 C2000 1.386 . S
C2004 C1999 1.490 . S
C2004 C2006 1.395 . S
C2004 C2007 1.403 . S
H2005 C2011 0.930 . S
C2006 H1992 0.930 1_565 S
C2006 C2004 1.395 . S
C2006 C2009 1.403 . S
C2007 C2004 1.403 . S
C2007 C2008 1.524 . S
C2007 C2011 1.400 . S
C2008 H1993 0.960 . S
C2008 H1994 0.960 . S
C2008 H1995 0.960 . S
C2008 C2007 1.524 . S
C2009 C2006 1.403 . S
C2009 C2010 1.392 . S
C2009 C2013 1.495 1_565 S
C2010 C2009 1.392 . S
C2010 C2011 1.385 . S
C2010 C2012 1.478 . S
C2011 H2005 0.930 . S
C2011 C2007 1.400 . S
C2011 C2010 1.385 . S
C2012 C2010 1.478 . S
C2012 C2014 1.381 . S
C2012 C2018 1.383 . S
C2013 C2009 1.495 1_545 S
C2013 H2019 0.959 . S
C2013 H2020 0.961 . S
C2013 H2021 0.960 . S
C2014 C2012 1.381 . S
C2014 C2015 1.394 . S
C2014 H2022 0.930 . S
C2015 C2014 1.394 . S
C2015 C2016 1.383 . S
C2015 H2023 0.929 . S
C2016 C2015 1.383 . S
C2016 C2017 1.377 . S
C2017 H2001 0.930 . S
C2017 C2016 1.377 . S
C2017 C2018 1.379 . S
C2018 H2002 0.931 . S
C2018 C2012 1.383 . S
C2018 C2017 1.379 . S
H2019 C2013 0.959 . S
H2020 C2013 0.961 . S
H2021 C2013 0.960 . S
H2022 C2014 0.930 . S
H2023 C2015 0.929 . S
H2024 C2032 0.929 . S
H2025 C2034 0.930 . S
H2026 C2036 0.930 . S
H2027 C2039 0.929 . S
H2028 C2042 0.930 . S
H2029 C2044 0.960 . S
H2030 C2044 0.960 . S
H2031 C2044 0.960 . S
C2032 H2024 0.929 . S
C2032 C2033 1.377 . S
C2032 C2034 1.384 . S
C2033 C2032 1.377 . S
C2033 C2039 1.390 . S
C2034 H2025 0.930 . S
C2034 C2032 1.384 . S
C2034 C2035 1.372 . S
C2035 C2034 1.372 . S
C2035 C2036 1.400 . S
C2035 C2040 1.490 . S
C2036 H2026 0.930 . S
C2036 C2035 1.400 . S
C2036 C2039 1.386 . S
H2037 C2053 0.930 . S
H2038 C2054 0.931 . S
C2039 H2027 0.929 . S
C2039 C2033 1.390 . S
C2039 C2036 1.386 . S
C2040 C2035 1.490 . S
C2040 C2042 1.395 . S
C2040 C2043 1.403 . S
H2041 C2047 0.930 . S
C2042 H2028 0.930 . S
C2042 C2040 1.395 . S
C2042 C2045 1.403 . S
C2043 C2040 1.403 . S
C2043 C2044 1.524 . S
C2043 C2047 1.400 . S
C2044 H2029 0.960 . S
C2044 H2030 0.960 . S
C2044 H2031 0.960 . S
C2044 C2043 1.524 . S
C2045 C2042 1.403 . S
C2045 C2046 1.392 . S
C2045 C2049 1.495 . S
C2046 C2045 1.392 . S
C2046 C2047 1.385 . S
C2046 C2048 1.478 . S
C2047 H2041 0.930 . S
C2047 C2043 1.400 . S
C2047 C2046 1.385 . S
C2048 C2046 1.478 . S
C2048 C2050 1.381 . S
C2048 C2054 1.383 . S
C2049 C2045 1.495 . S
C2049 H2055 0.959 . S
C2049 H2056 0.961 . S
C2049 H2057 0.960 . S
C2050 C2048 1.381 . S
C2050 C2051 1.394 . S
C2050 H2058 0.930 . S
C2051 C2050 1.394 . S
C2051 C2052 1.383 . S
C2051 H2059 0.929 . S
C2052 C2051 1.383 . S
C2052 C2053 1.377 . S
C2053 H2037 0.930 . S
C2053 C2052 1.377 . S
C2053 C2054 1.379 . S
C2054 H2038 0.931 . S
C2054 C2048 1.383 . S
C2054 C2053 1.379 . S
H2055 C2049 0.959 . S
H2056 C2049 0.961 . S
H2057 C2049 0.960 . S
H2058 C2050 0.930 . S
H2059 C2051 0.929 . S
H2060 C2068 0.929 . S
H2061 C2070 0.930 . S
H2062 C2072 0.930 1_556 S
H2063 C2075 0.929 1_556 S
H2064 C2078 0.930 . S
H2065 C2080 0.960 . S
H2066 C2080 0.960 . S
H2067 C2080 0.960 . S
C2068 H2060 0.929 . S
C2068 C2069 1.377 . S
C2068 C2070 1.384 . S
C2069 C2068 1.377 . S
C2069 C2075 1.390 . S
C2070 H2061 0.930 . S
C2070 C2068 1.384 . S
C2070 C2071 1.372 . S
C2071 C2070 1.372 . S
C2071 C2072 1.400 . S
C2071 C2076 1.490 . S
C2072 H2062 0.930 1_554 S
C2072 C2071 1.400 . S
C2072 C2075 1.386 . S
H2073 C2089 0.930 . S
H2074 C2090 0.931 . S
C2075 H2063 0.929 1_554 S
C2075 C2069 1.390 . S
C2075 C2072 1.386 . S
C2076 C2071 1.490 . S
C2076 C2078 1.395 . S
C2076 C2079 1.403 . S
H2077 C2083 0.930 . S
C2078 H2064 0.930 . S
C2078 C2076 1.395 . S
C2078 C2081 1.403 . S
C2079 C2076 1.403 . S
C2079 C2080 1.524 . S
C2079 C2083 1.400 . S
C2080 H2065 0.960 . S
C2080 H2066 0.960 . S
C2080 H2067 0.960 . S
C2080 C2079 1.524 . S
C2081 C2078 1.403 . S
C2081 C2082 1.392 . S
C2081 C2085 1.495 . S
C2082 C2081 1.392 . S
C2082 C2083 1.385 . S
C2082 C2084 1.478 . S
C2083 H2077 0.930 . S
C2083 C2079 1.400 . S
C2083 C2082 1.385 . S
C2084 C2082 1.478 . S
C2084 C2086 1.381 . S
C2084 C2090 1.383 . S
C2085 C2081 1.495 . S
C2085 H2091 0.959 . S
C2085 H2092 0.961 . S
C2085 H2093 0.960 . S
C2086 C2084 1.381 . S
C2086 C2087 1.394 . S
C2086 H2094 0.930 . S
C2087 C2086 1.394 . S
C2087 C2088 1.383 . S
C2087 H2095 0.929 . S
C2088 C2087 1.383 . S
C2088 C2089 1.377 . S
C2089 H2073 0.930 . S
C2089 C2088 1.377 . S
C2089 C2090 1.379 . S
C2090 H2074 0.931 . S
C2090 C2084 1.383 . S
C2090 C2089 1.379 . S
H2091 C2085 0.959 . S
H2092 C2085 0.961 . S
H2093 C2085 0.960 . S
H2094 C2086 0.930 . S
H2095 C2087 0.929 . S
H2096 C2104 0.929 . S
H2097 C2106 0.930 . S
H2098 C2108 0.930 . S
H2099 C2111 0.929 . S
H2100 C2114 0.930 . S
H2101 C2116 0.960 . S
H2102 C2116 0.960 . S
H2103 C2116 0.960 . S
C2104 H2096 0.929 . S
C2104 C2105 1.377 . S
C2104 C2106 1.384 . S
C2105 C2104 1.377 . S
C2105 C2111 1.390 . S
C2106 H2097 0.930 . S
C2106 C2104 1.384 . S
C2106 C2107 1.372 . S
C2107 C2106 1.372 . S
C2107 C2108 1.400 . S
C2107 C2112 1.490 . S
C2108 H2098 0.930 . S
C2108 C2107 1.400 . S
C2108 C2111 1.386 . S
H2109 C2125 0.930 . S
H2110 C2126 0.931 . S
C2111 H2099 0.929 . S
C2111 C2105 1.390 . S
C2111 C2108 1.386 . S
C2112 C2107 1.490 . S
C2112 C2114 1.395 . S
C2112 C2115 1.403 . S
H2113 C2119 0.930 . S
C2114 H2100 0.930 . S
C2114 C2112 1.395 . S
C2114 C2117 1.403 . S
C2115 C2112 1.403 . S
C2115 C2116 1.524 . S
C2115 C2119 1.400 . S
C2116 H2101 0.960 . S
C2116 H2102 0.960 . S
C2116 H2103 0.960 . S
C2116 C2115 1.524 . S
C2117 C2114 1.403 . S
C2117 C2118 1.392 . S
C2117 C2121 1.495 . S
C2118 C2117 1.392 . S
C2118 C2119 1.385 . S
C2118 C2120 1.478 . S
C2119 H2113 0.930 . S
C2119 C2115 1.400 . S
C2119 C2118 1.385 . S
C2120 C2118 1.478 . S
C2120 C2122 1.381 . S
C2120 C2126 1.383 . S
C2121 C2117 1.495 . S
C2121 H2127 0.959 . S
C2121 H2128 0.961 . S
C2121 H2129 0.960 . S
C2122 C2120 1.381 . S
C2122 C2123 1.394 . S
C2122 H2130 0.930 . S
C2123 C2122 1.394 . S
C2123 C2124 1.383 . S
C2123 H2131 0.929 . S
C2124 C2123 1.383 . S
C2124 C2125 1.377 . S
C2125 H2109 0.930 . S
C2125 C2124 1.377 . S
C2125 C2126 1.379 . S
C2126 H2110 0.931 . S
C2126 C2120 1.383 . S
C2126 C2125 1.379 . S
H2127 C2121 0.959 . S
H2128 C2121 0.961 . S
H2129 C2121 0.960 . S
H2130 C2122 0.930 . S
H2131 C2123 0.929 . S
H2132 C2140 0.929 . S
H2133 C2142 0.930 . S
H2134 C2144 0.930 . S
H2135 C2147 0.929 . S
H2136 C2150 0.930 . S
H2137 C2152 0.960 . S
H2138 C2152 0.960 . S
H2139 C2152 0.960 . S
C2140 H2132 0.929 . S
C2140 C2141 1.377 . S
C2140 C2142 1.384 . S
C2141 C2140 1.377 . S
C2141 C2147 1.390 . S
C2142 H2133 0.930 . S
C2142 C2140 1.384 . S
C2142 C2143 1.372 . S
C2143 C2142 1.372 . S
C2143 C2144 1.400 . S
C2143 C2148 1.490 . S
C2144 H2134 0.930 . S
C2144 C2143 1.400 . S
C2144 C2147 1.386 . S
H2145 C2161 0.930 . S
H2146 C2162 0.931 . S
C2147 H2135 0.929 . S
C2147 C2141 1.390 . S
C2147 C2144 1.386 . S
C2148 C2143 1.490 . S
C2148 C2150 1.395 . S
C2148 C2151 1.403 . S
H2149 C2155 0.930 . S
C2150 H2136 0.930 . S
C2150 C2148 1.395 . S
C2150 C2153 1.403 . S
C2151 C2148 1.403 . S
C2151 C2152 1.524 . S
C2151 C2155 1.400 . S
C2152 H2137 0.960 . S
C2152 H2138 0.960 . S
C2152 H2139 0.960 . S
C2152 C2151 1.524 . S
C2153 C2150 1.403 . S
C2153 C2154 1.392 . S
C2153 C2157 1.495 . S
C2154 C2153 1.392 . S
C2154 C2155 1.385 . S
C2154 C2156 1.478 . S
C2155 H2149 0.930 . S
C2155 C2151 1.400 . S
C2155 C2154 1.385 . S
C2156 C2154 1.478 . S
C2156 C2158 1.381 . S
C2156 C2162 1.383 . S
C2157 C2153 1.495 . S
C2157 H2163 0.959 . S
C2157 H2164 0.961 . S
C2157 H2165 0.960 . S
C2158 C2156 1.381 . S
C2158 C2159 1.394 . S
C2158 H2166 0.930 . S
C2159 C2158 1.394 . S
C2159 C2160 1.383 . S
C2159 H2167 0.929 . S
C2160 C2159 1.383 . S
C2160 C2161 1.377 . S
C2161 H2145 0.930 . S
C2161 C2160 1.377 . S
C2161 C2162 1.379 . S
C2162 H2146 0.931 . S
C2162 C2156 1.383 . S
C2162 C2161 1.379 . S
H2163 C2157 0.959 . S
H2164 C2157 0.961 . S
H2165 C2157 0.960 . S
H2166 C2158 0.930 . S
H2167 C2159 0.929 . S
H2168 C2176 0.929 . S
H2169 C2178 0.930 . S
H2170 C2180 0.930 . S
H2171 C2183 0.929 . S
H2172 C2186 0.930 . S
H2173 C2188 0.960 . S
H2174 C2188 0.960 . S
H2175 C2188 0.960 . S
C2176 H2168 0.929 . S
C2176 C2177 1.377 . S
C2176 C2178 1.384 . S
C2177 C2176 1.377 . S
C2177 C2183 1.390 . S
C2178 H2169 0.930 . S
C2178 C2176 1.384 . S
C2178 C2179 1.372 . S
C2179 C2178 1.372 . S
C2179 C2180 1.400 . S
C2179 C2184 1.490 . S
C2180 H2170 0.930 . S
C2180 C2179 1.400 . S
C2180 C2183 1.386 . S
H2181 C2197 0.930 . S
H2182 C2198 0.931 . S
C2183 H2171 0.929 . S
C2183 C2177 1.390 . S
C2183 C2180 1.386 . S
C2184 C2179 1.490 . S
C2184 C2186 1.395 . S
C2184 C2187 1.403 . S
H2185 C2191 0.930 . S
C2186 H2172 0.930 . S
C2186 C2184 1.395 . S
C2186 C2189 1.403 . S
C2187 C2184 1.403 . S
C2187 C2188 1.524 . S
C2187 C2191 1.400 . S
C2188 H2173 0.960 . S
C2188 H2174 0.960 . S
C2188 H2175 0.960 . S
C2188 C2187 1.524 . S
C2189 C2186 1.403 . S
C2189 C2190 1.392 . S
C2189 C2193 1.495 . S
C2190 C2189 1.392 . S
C2190 C2191 1.385 . S
C2190 C2192 1.478 . S
C2191 H2185 0.930 . S
C2191 C2187 1.400 . S
C2191 C2190 1.385 . S
C2192 C2190 1.478 . S
C2192 C2194 1.381 . S
C2192 C2198 1.383 . S
C2193 C2189 1.495 . S
C2193 H2199 0.959 . S
C2193 H2200 0.961 . S
C2193 H2201 0.960 . S
C2194 C2192 1.381 . S
C2194 C2195 1.394 . S
C2194 H2202 0.930 . S
C2195 C2194 1.394 . S
C2195 C2196 1.383 . S
C2195 H2203 0.929 . S
C2196 C2195 1.383 . S
C2196 C2197 1.377 . S
C2197 H2181 0.930 . S
C2197 C2196 1.377 . S
C2197 C2198 1.379 . S
C2198 H2182 0.931 . S
C2198 C2192 1.383 . S
C2198 C2197 1.379 . S
H2199 C2193 0.959 . S
H2200 C2193 0.961 . S
H2201 C2193 0.960 . S
H2202 C2194 0.930 . S
H2203 C2195 0.929 . S
H2204 C2212 0.929 . S
H2205 C2214 0.930 . S
H2206 C2216 0.930 . S
H2207 C2219 0.929 . S
H2208 C2222 0.930 . S
H2209 C2224 0.960 . S
H2210 C2224 0.960 . S
H2211 C2224 0.960 . S
C2212 H2204 0.929 . S
C2212 C2213 1.377 . S
C2212 C2214 1.384 . S
C2213 C2212 1.377 . S
C2213 C2219 1.390 . S
C2214 H2205 0.930 . S
C2214 C2212 1.384 . S
C2214 C2215 1.372 . S
C2215 C2214 1.372 . S
C2215 C2216 1.400 . S
C2215 C2220 1.490 . S
C2216 H2206 0.930 . S
C2216 C2215 1.400 . S
C2216 C2219 1.386 . S
H2217 C2233 0.930 . S
H2218 C2234 0.931 . S
C2219 H2207 0.929 . S
C2219 C2213 1.390 . S
C2219 C2216 1.386 . S
C2220 C2215 1.490 . S
C2220 C2222 1.395 . S
C2220 C2223 1.403 . S
H2221 C2227 0.930 . S
C2222 H2208 0.930 . S
C2222 C2220 1.395 . S
C2222 C2225 1.403 . S
C2223 C2220 1.403 . S
C2223 C2224 1.524 . S
C2223 C2227 1.400 . S
C2224 H2209 0.960 . S
C2224 H2210 0.960 . S
C2224 H2211 0.960 . S
C2224 C2223 1.524 . S
C2225 C2222 1.403 . S
C2225 C2226 1.392 . S
C2225 C2229 1.495 . S
C2226 C2225 1.392 . S
C2226 C2227 1.385 . S
C2226 C2228 1.478 . S
C2227 H2221 0.930 . S
C2227 C2223 1.400 . S
C2227 C2226 1.385 . S
C2228 C2226 1.478 . S
C2228 C2230 1.381 . S
C2228 C2234 1.383 . S
C2229 C2225 1.495 . S
C2229 H2235 0.959 . S
C2229 H2236 0.961 . S
C2229 H2237 0.960 . S
C2230 C2228 1.381 . S
C2230 C2231 1.394 . S
C2230 H2238 0.930 . S
C2231 C2230 1.394 . S
C2231 C2232 1.383 . S
C2231 H2239 0.929 . S
C2232 C2231 1.383 . S
C2232 C2233 1.377 . S
C2233 H2217 0.930 . S
C2233 C2232 1.377 . S
C2233 C2234 1.379 . S
C2234 H2218 0.931 . S
C2234 C2228 1.383 . S
C2234 C2233 1.379 . S
H2235 C2229 0.959 . S
H2236 C2229 0.961 . S
H2237 C2229 0.960 . S
H2238 C2230 0.930 . S
H2239 C2231 0.929 . S
H2240 C2248 0.929 . S
H2241 C2250 0.930 . S
H2242 C2252 0.930 . S
H2243 C2255 0.929 . S
H2244 C2258 0.930 . S
H2245 C2260 0.960 . S
H2246 C2260 0.960 . S
H2247 C2260 0.960 . S
C2248 H2240 0.929 . S
C2248 C2249 1.377 . S
C2248 C2250 1.384 . S
C2249 C2248 1.377 . S
C2249 C2255 1.390 . S
C2250 H2241 0.930 . S
C2250 C2248 1.384 . S
C2250 C2251 1.372 . S
C2251 C2250 1.372 . S
C2251 C2252 1.400 . S
C2251 C2256 1.490 . S
C2252 H2242 0.930 . S
C2252 C2251 1.400 . S
C2252 C2255 1.386 . S
H2253 C2269 0.930 . S
H2254 C2270 0.931 . S
C2255 H2243 0.929 . S
C2255 C2249 1.390 . S
C2255 C2252 1.386 . S
C2256 C2251 1.490 . S
C2256 C2258 1.395 . S
C2256 C2259 1.403 . S
H2257 C2263 0.930 . S
C2258 H2244 0.930 . S
C2258 C2256 1.395 . S
C2258 C2261 1.403 . S
C2259 C2256 1.403 . S
C2259 C2260 1.524 . S
C2259 C2263 1.400 . S
C2260 H2245 0.960 . S
C2260 H2246 0.960 . S
C2260 H2247 0.960 . S
C2260 C2259 1.524 . S
C2261 C2258 1.403 . S
C2261 C2262 1.392 . S
C2261 C2265 1.495 . S
C2262 C2261 1.392 . S
C2262 C2263 1.385 . S
C2262 C2264 1.478 . S
C2263 H2257 0.930 . S
C2263 C2259 1.400 . S
C2263 C2262 1.385 . S
C2264 C2262 1.478 . S
C2264 C2266 1.381 . S
C2264 C2270 1.383 . S
C2265 C2261 1.495 . S
C2265 H2271 0.959 . S
C2265 H2272 0.961 . S
C2265 H2273 0.960 . S
C2266 C2264 1.381 . S
C2266 C2267 1.394 . S
C2266 H2274 0.930 . S
C2267 C2266 1.394 . S
C2267 C2268 1.383 . S
C2267 H2275 0.929 . S
C2268 C2267 1.383 . S
C2268 C2269 1.377 . S
C2269 H2253 0.930 . S
C2269 C2268 1.377 . S
C2269 C2270 1.379 . S
C2270 H2254 0.931 . S
C2270 C2264 1.383 . S
C2270 C2269 1.379 . S
H2271 C2265 0.959 . S
H2272 C2265 0.961 . S
H2273 C2265 0.960 . S
H2274 C2266 0.930 . S
H2275 C2267 0.929 . S
H2276 C2284 0.929 . S
H2277 C2286 0.930 . S
H2278 C2288 0.930 . S
H2279 C2291 0.929 . S
H2280 C2294 0.930 . S
H2281 C2296 0.960 . S
H2282 C2296 0.960 . S
H2283 C2296 0.960 . S
C2284 H2276 0.929 . S
C2284 C2285 1.377 . S
C2284 C2286 1.384 . S
C2285 C2284 1.377 . S
C2285 C2291 1.390 . S
C2286 H2277 0.930 . S
C2286 C2284 1.384 . S
C2286 C2287 1.372 . S
C2287 C2286 1.372 . S
C2287 C2288 1.400 . S
C2287 C2292 1.490 . S
C2288 H2278 0.930 . S
C2288 C2287 1.400 . S
C2288 C2291 1.386 . S
H2289 C2305 0.930 . S
H2290 C2306 0.931 . S
C2291 H2279 0.929 . S
C2291 C2285 1.390 . S
C2291 C2288 1.386 . S
C2292 C2287 1.490 . S
C2292 C2294 1.395 . S
C2292 C2295 1.403 . S
H2293 C2299 0.930 . S
C2294 H2280 0.930 . S
C2294 C2292 1.395 . S
C2294 C2297 1.403 . S
C2295 C2292 1.403 . S
C2295 C2296 1.524 . S
C2295 C2299 1.400 . S
C2296 H2281 0.960 . S
C2296 H2282 0.960 . S
C2296 H2283 0.960 . S
C2296 C2295 1.524 . S
C2297 C2294 1.403 . S
C2297 C2298 1.392 . S
C2297 C2301 1.495 . S
C2298 C2297 1.392 . S
C2298 C2299 1.385 . S
C2298 C2300 1.478 . S
C2299 H2293 0.930 . S
C2299 C2295 1.400 . S
C2299 C2298 1.385 . S
C2300 C2298 1.478 . S
C2300 C2302 1.381 . S
C2300 C2306 1.383 . S
C2301 C2297 1.495 . S
C2301 H2307 0.959 . S
C2301 H2308 0.961 . S
C2301 H2309 0.960 . S
C2302 C2300 1.381 . S
C2302 C2303 1.394 . S
C2302 H2310 0.930 . S
C2303 C2302 1.394 . S
C2303 C2304 1.383 . S
C2303 H2311 0.929 . S
C2304 C2303 1.383 . S
C2304 C2305 1.377 . S
C2305 H2289 0.930 . S
C2305 C2304 1.377 . S
C2305 C2306 1.379 . S
C2306 H2290 0.931 . S
C2306 C2300 1.383 . S
C2306 C2305 1.379 . S
H2307 C2301 0.959 . S
H2308 C2301 0.961 . S
H2309 C2301 0.960 . S
H2310 C2302 0.930 . S
H2311 C2303 0.929 . S
H2312 C2320 0.929 . S
H2313 C2322 0.930 . S
H2314 C2324 0.930 . S
H2315 C2327 0.929 . S
H2316 C2330 0.930 . S
H2317 C2332 0.960 . S
H2318 C2332 0.960 . S
H2319 C2332 0.960 . S
C2320 H2312 0.929 . S
C2320 C2321 1.377 . S
C2320 C2322 1.384 . S
C2321 C2320 1.377 . S
C2321 C2327 1.390 . S
C2322 H2313 0.930 . S
C2322 C2320 1.384 . S
C2322 C2323 1.372 . S
C2323 C2322 1.372 . S
C2323 C2324 1.400 . S
C2323 C2328 1.490 . S
C2324 H2314 0.930 . S
C2324 C2323 1.400 . S
C2324 C2327 1.386 . S
H2325 C2341 0.930 . S
H2326 C2342 0.931 . S
C2327 H2315 0.929 . S
C2327 C2321 1.390 . S
C2327 C2324 1.386 . S
C2328 C2323 1.490 . S
C2328 C2330 1.395 . S
C2328 C2331 1.403 . S
H2329 C2335 0.930 . S
C2330 H2316 0.930 . S
C2330 C2328 1.395 . S
C2330 C2333 1.403 . S
C2331 C2328 1.403 . S
C2331 C2332 1.524 . S
C2331 C2335 1.400 . S
C2332 H2317 0.960 . S
C2332 H2318 0.960 . S
C2332 H2319 0.960 . S
C2332 C2331 1.524 . S
C2333 C2330 1.403 . S
C2333 C2334 1.392 . S
C2333 C2337 1.495 . S
C2334 C2333 1.392 . S
C2334 C2335 1.385 . S
C2334 C2336 1.478 . S
C2335 H2329 0.930 . S
C2335 C2331 1.400 . S
C2335 C2334 1.385 . S
C2336 C2334 1.478 . S
C2336 C2338 1.381 . S
C2336 C2342 1.383 . S
C2337 C2333 1.495 . S
C2337 H2343 0.959 . S
C2337 H2344 0.961 . S
C2337 H2345 0.960 . S
C2338 C2336 1.381 . S
C2338 C2339 1.394 . S
C2338 H2346 0.930 . S
C2339 C2338 1.394 . S
C2339 C2340 1.383 . S
C2339 H2347 0.929 . S
C2340 C2339 1.383 . S
C2340 C2341 1.377 . S
C2341 H2325 0.930 . S
C2341 C2340 1.377 . S
C2341 C2342 1.379 . S
C2342 H2326 0.931 . S
C2342 C2336 1.383 . S
C2342 C2341 1.379 . S
H2343 C2337 0.959 . S
H2344 C2337 0.961 . S
H2345 C2337 0.960 . S
H2346 C2338 0.930 . S
H2347 C2339 0.929 . S
H2348 C2356 0.929 . S
H2349 C2358 0.930 . S
H2350 C2360 0.930 . S
H2351 C2363 0.929 . S
H2352 C2366 0.930 . S
H2353 C2368 0.960 . S
H2354 C2368 0.960 . S
H2355 C2368 0.960 . S
C2356 H2348 0.929 . S
C2356 C2357 1.377 . S
C2356 C2358 1.384 . S
C2357 C2356 1.377 . S
C2357 C2363 1.390 . S
C2358 H2349 0.930 . S
C2358 C2356 1.384 . S
C2358 C2359 1.372 . S
C2359 C2358 1.372 . S
C2359 C2360 1.400 . S
C2359 C2364 1.490 . S
C2360 H2350 0.930 . S
C2360 C2359 1.400 . S
C2360 C2363 1.386 . S
H2361 C2377 0.930 . S
H2362 C2378 0.931 . S
C2363 H2351 0.929 . S
C2363 C2357 1.390 . S
C2363 C2360 1.386 . S
C2364 C2359 1.490 . S
C2364 C2366 1.395 . S
C2364 C2367 1.403 . S
H2365 C2371 0.930 . S
C2366 H2352 0.930 . S
C2366 C2364 1.395 . S
C2366 C2369 1.403 . S
C2367 C2364 1.403 . S
C2367 C2368 1.524 . S
C2367 C2371 1.400 . S
C2368 H2353 0.960 . S
C2368 H2354 0.960 . S
C2368 H2355 0.960 . S
C2368 C2367 1.524 . S
C2369 C2366 1.403 . S
C2369 C2370 1.392 . S
C2369 C2373 1.495 . S
C2370 C2369 1.392 . S
C2370 C2371 1.385 . S
C2370 C2372 1.478 . S
C2371 H2365 0.930 . S
C2371 C2367 1.400 . S
C2371 C2370 1.385 . S
C2372 C2370 1.478 . S
C2372 C2374 1.381 . S
C2372 C2378 1.383 . S
C2373 C2369 1.495 . S
C2373 H2379 0.959 . S
C2373 H2380 0.961 . S
C2373 H2381 0.960 . S
C2374 C2372 1.381 . S
C2374 C2375 1.394 . S
C2374 H2382 0.930 . S
C2375 C2374 1.394 . S
C2375 C2376 1.383 . S
C2375 H2383 0.929 . S
C2376 C2375 1.383 . S
C2376 C2377 1.377 . S
C2377 H2361 0.930 . S
C2377 C2376 1.377 . S
C2377 C2378 1.379 . S
C2378 H2362 0.931 . S
C2378 C2372 1.383 . S
C2378 C2377 1.379 . S
H2379 C2373 0.959 . S
H2380 C2373 0.961 . S
H2381 C2373 0.960 . S
H2382 C2374 0.930 . S
H2383 C2375 0.929 . S
H2384 C2392 0.929 . S
H2385 C2394 0.930 . S
H2386 C2396 0.930 . S
H2387 C2399 0.929 . S
H2388 C2402 0.930 . S
H2389 C2404 0.960 . S
H2390 C2404 0.960 . S
H2391 C2404 0.960 . S
C2392 H2384 0.929 . S
C2392 C2393 1.377 . S
C2392 C2394 1.384 . S
C2393 C2392 1.377 . S
C2393 C2399 1.390 1_565 S
C2394 H2385 0.930 . S
C2394 C2392 1.384 . S
C2394 C2395 1.372 . S
C2395 C2394 1.372 . S
C2395 C2396 1.400 1_565 S
C2395 C2400 1.490 . S
C2396 H2386 0.930 . S
C2396 C2395 1.400 1_545 S
C2396 C2399 1.386 . S
H2397 C2413 0.928 . S
H2398 C2414 0.931 1_545 S
C2399 H2387 0.929 . S
C2399 C2393 1.390 1_545 S
C2399 C2396 1.386 . S
C2400 C2395 1.490 . S
C2400 C2402 1.395 . S
C2400 C2403 1.403 . S
H2401 C2407 0.930 . S
C2402 H2388 0.930 . S
C2402 C2400 1.395 . S
C2402 C2405 1.403 . S
C2403 C2400 1.403 . S
C2403 C2404 1.524 . S
C2403 C2407 1.400 . S
C2404 H2389 0.960 . S
C2404 H2390 0.960 . S
C2404 H2391 0.960 . S
C2404 C2403 1.524 . S
C2405 C2402 1.403 . S
C2405 C2406 1.392 . S
C2405 C2409 1.495 . S
C2406 C2405 1.392 . S
C2406 C2407 1.385 . S
C2406 C2408 1.478 . S
C2407 H2401 0.930 . S
C2407 C2403 1.400 . S
C2407 C2406 1.385 . S
C2408 C2406 1.478 . S
C2408 C2410 1.381 . S
C2408 C2414 1.383 . S
C2409 C2405 1.495 . S
C2409 H2415 0.959 . S
C2409 H2416 0.961 . S
C2409 H2417 0.960 . S
C2410 C2408 1.381 . S
C2410 C2411 1.394 . S
C2410 H2418 0.930 . S
C2411 C2410 1.394 . S
C2411 C2412 1.383 . S
C2411 H2419 0.929 . S
C2412 C2411 1.383 . S
C2412 C2413 1.377 . S
C2413 H2397 0.928 . S
C2413 C2412 1.377 . S
C2413 C2414 1.379 . S
C2414 H2398 0.931 1_565 S
C2414 C2408 1.383 . S
C2414 C2413 1.379 . S
H2415 C2409 0.959 . S
H2416 C2409 0.961 . S
H2417 C2409 0.960 . S
H2418 C2410 0.930 . S
H2419 C2411 0.929 . S
H2420 C2428 0.929 . S
H2421 C2430 0.930 . S
H2422 C2432 0.930 . S
H2423 C2435 0.929 . S
H2424 C2438 0.930 . S
H2425 C2440 0.960 . S
H2426 C2440 0.960 . S
H2427 C2440 0.960 . S
C2428 H2420 0.929 . S
C2428 C2429 1.377 . S
C2428 C2430 1.384 . S
C2429 C2428 1.377 . S
C2429 C2435 1.390 . S
C2430 H2421 0.930 . S
C2430 C2428 1.384 . S
C2430 C2431 1.372 . S
C2431 C2430 1.372 . S
C2431 C2432 1.400 . S
C2431 C2436 1.490 . S
C2432 H2422 0.930 . S
C2432 C2431 1.400 . S
C2432 C2435 1.386 . S
H2433 C2449 0.930 . S
H2434 C2450 0.931 . S
C2435 H2423 0.929 . S
C2435 C2429 1.390 . S
C2435 C2432 1.386 . S
C2436 C2431 1.490 . S
C2436 C2438 1.395 . S
C2436 C2439 1.403 . S
H2437 C2443 0.930 . S
C2438 H2424 0.930 . S
C2438 C2436 1.395 . S
C2438 C2441 1.403 . S
C2439 C2436 1.403 . S
C2439 C2440 1.524 . S
C2439 C2443 1.400 . S
C2440 H2425 0.960 . S
C2440 H2426 0.960 . S
C2440 H2427 0.960 . S
C2440 C2439 1.524 . S
C2441 C2438 1.403 . S
C2441 C2442 1.392 . S
C2441 C2445 1.495 . S
C2442 C2441 1.392 . S
C2442 C2443 1.385 . S
C2442 C2444 1.478 . S
C2443 H2437 0.930 . S
C2443 C2439 1.400 . S
C2443 C2442 1.385 . S
C2444 C2442 1.478 . S
C2444 C2446 1.381 . S
C2444 C2450 1.383 . S
C2445 C2441 1.495 . S
C2445 H2451 0.959 . S
C2445 H2452 0.961 . S
C2445 H2453 0.960 . S
C2446 C2444 1.381 . S
C2446 C2447 1.394 . S
C2446 H2454 0.930 . S
C2447 C2446 1.394 . S
C2447 C2448 1.383 . S
C2447 H2455 0.929 . S
C2448 C2447 1.383 . S
C2448 C2449 1.377 . S
C2449 H2433 0.930 . S
C2449 C2448 1.377 . S
C2449 C2450 1.379 . S
C2450 H2434 0.931 . S
C2450 C2444 1.383 . S
C2450 C2449 1.379 . S
H2451 C2445 0.959 . S
H2452 C2445 0.961 . S
H2453 C2445 0.960 . S
H2454 C2446 0.930 . S
H2455 C2447 0.929 . S
H2456 C2464 0.929 . S
H2457 C2466 0.930 . S
H2458 C2468 0.930 1_565 S
H2459 C2471 0.929 1_565 S
H2460 C2474 0.930 . S
H2461 C2476 0.960 . S
H2462 C2476 0.960 . S
H2463 C2476 0.960 . S
C2464 H2456 0.929 . S
C2464 C2465 1.377 . S
C2464 C2466 1.384 . S
C2465 C2464 1.377 . S
C2465 C2471 1.390 . S
C2466 H2457 0.930 . S
C2466 C2464 1.384 . S
C2466 C2467 1.372 . S
C2467 C2466 1.372 . S
C2467 C2468 1.400 . S
C2467 C2472 1.490 . S
C2468 H2458 0.930 1_545 S
C2468 C2467 1.400 . S
C2468 C2471 1.386 . S
H2469 C2485 0.930 1_565 S
H2470 C2486 0.931 1_565 S
C2471 H2459 0.929 1_545 S
C2471 C2465 1.390 . S
C2471 C2468 1.386 . S
C2472 C2467 1.490 . S
C2472 C2474 1.395 . S
C2472 C2475 1.403 . S
H2473 C2479 0.930 . S
C2474 H2460 0.930 . S
C2474 C2472 1.395 . S
C2474 C2477 1.403 . S
C2475 C2472 1.403 . S
C2475 C2476 1.524 . S
C2475 C2479 1.400 . S
C2476 H2461 0.960 . S
C2476 H2462 0.960 . S
C2476 H2463 0.960 . S
C2476 C2475 1.524 . S
C2477 C2474 1.403 . S
C2477 C2478 1.392 . S
C2477 C2481 1.495 . S
C2478 C2477 1.392 . S
C2478 C2479 1.385 . S
C2478 C2480 1.478 . S
C2479 H2473 0.930 . S
C2479 C2475 1.400 . S
C2479 C2478 1.385 . S
C2480 C2478 1.478 . S
C2480 C2482 1.381 . S
C2480 C2486 1.383 . S
C2481 C2477 1.495 . S
C2481 H2487 0.959 . S
C2481 H2488 0.961 . S
C2481 H2489 0.960 . S
C2482 C2480 1.381 . S
C2482 C2483 1.394 . S
C2482 H2490 0.930 . S
C2483 C2482 1.394 . S
C2483 C2484 1.383 . S
C2483 H2491 0.929 . S
C2484 C2483 1.383 . S
C2484 C2485 1.377 . S
C2485 H2469 0.930 1_545 S
C2485 C2484 1.377 . S
C2485 C2486 1.379 . S
C2486 H2470 0.931 1_545 S
C2486 C2480 1.383 . S
C2486 C2485 1.379 . S
H2487 C2481 0.959 . S
H2488 C2481 0.961 . S
H2489 C2481 0.960 . S
H2490 C2482 0.930 . S
H2491 C2483 0.929 . S
H2492 C2500 0.929 . S
H2493 C2502 0.930 . S
H2494 C2504 0.930 . S
H2495 C2507 0.929 . S
H2496 C2510 0.930 . S
H2497 C2512 0.960 . S
H2498 C2512 0.960 . S
H2499 C2512 0.960 . S
C2500 H2492 0.929 . S
C2500 C2501 1.377 . S
C2500 C2502 1.384 . S
C2501 C2500 1.377 . S
C2501 C2507 1.390 . S
C2502 H2493 0.930 . S
C2502 C2500 1.384 . S
C2502 C2503 1.372 . S
C2503 C2502 1.372 . S
C2503 C2504 1.400 . S
C2503 C2508 1.490 . S
C2504 H2494 0.930 . S
C2504 C2503 1.400 . S
C2504 C2507 1.386 . S
H2505 C2521 0.930 . S
H2506 C2522 0.931 . S
C2507 H2495 0.929 . S
C2507 C2501 1.390 . S
C2507 C2504 1.386 . S
C2508 C2503 1.490 . S
C2508 C2510 1.395 . S
C2508 C2511 1.403 . S
H2509 C2515 0.930 . S
C2510 H2496 0.930 . S
C2510 C2508 1.395 . S
C2510 C2513 1.403 . S
C2511 C2508 1.403 . S
C2511 C2512 1.524 . S
C2511 C2515 1.400 . S
C2512 H2497 0.960 . S
C2512 H2498 0.960 . S
C2512 H2499 0.960 . S
C2512 C2511 1.524 . S
C2513 C2510 1.403 . S
C2513 C2514 1.392 . S
C2513 C2517 1.495 . S
C2514 C2513 1.392 . S
C2514 C2515 1.385 . S
C2514 C2516 1.478 . S
C2515 H2509 0.930 . S
C2515 C2511 1.400 . S
C2515 C2514 1.385 . S
C2516 C2514 1.478 . S
C2516 C2518 1.381 . S
C2516 C2522 1.383 . S
C2517 C2513 1.495 . S
C2517 H2523 0.959 . S
C2517 H2524 0.961 . S
C2517 H2525 0.960 . S
C2518 C2516 1.381 . S
C2518 C2519 1.394 . S
C2518 H2526 0.930 . S
C2519 C2518 1.394 . S
C2519 C2520 1.383 . S
C2519 H2527 0.929 . S
C2520 C2519 1.383 . S
C2520 C2521 1.377 . S
C2521 H2505 0.930 . S
C2521 C2520 1.377 . S
C2521 C2522 1.379 . S
C2522 H2506 0.931 . S
C2522 C2516 1.383 . S
C2522 C2521 1.379 . S
H2523 C2517 0.959 . S
H2524 C2517 0.961 . S
H2525 C2517 0.960 . S
H2526 C2518 0.930 . S
H2527 C2519 0.929 . S
H2528 C2536 0.929 . S
H2529 C2538 0.955 . S
H2530 C2540 0.930 . S
H2531 C2543 0.929 . S
H2532 C2546 0.930 . S
H2533 C2548 0.960 . S
H2534 C2548 0.905 1_554 S
H2535 C2548 0.960 . S
C2536 H2528 0.929 . S
C2536 C2537 1.377 1_554 S
C2536 C2538 1.391 . S
C2537 C2536 1.377 1_556 S
C2537 C2543 1.390 . S
C2538 H2529 0.955 . S
C2538 C2536 1.391 . S
C2538 C2539 1.341 1_554 S
C2539 C2538 1.341 1_556 S
C2539 C2540 1.400 . S
C2539 C2544 1.490 . S
C2540 H2530 0.930 . S
C2540 C2539 1.400 . S
C2540 C2543 1.386 . S
H2541 C2557 0.930 . S
H2542 C2558 0.931 . S
C2543 H2531 0.929 . S
C2543 C2537 1.390 . S
C2543 C2540 1.386 . S
C2544 C2539 1.490 . S
C2544 C2546 1.395 . S
C2544 C2547 1.403 . S
H2545 C2551 0.930 . S
C2546 H2532 0.930 . S
C2546 C2544 1.395 . S
C2546 C2549 1.403 . S
C2547 C2544 1.403 . S
C2547 C2548 1.524 . S
C2547 C2551 1.400 . S
C2548 H2533 0.960 . S
C2548 H2534 0.905 1_556 S
C2548 H2535 0.960 . S
C2548 C2547 1.524 . S
C2549 C2546 1.403 . S
C2549 C2550 1.392 . S
C2549 C2553 1.495 . S
C2550 C2549 1.392 . S
C2550 C2551 1.385 . S
C2550 C2552 1.478 . S
C2551 H2545 0.930 . S
C2551 C2547 1.400 . S
C2551 C2550 1.385 . S
C2552 C2550 1.478 . S
C2552 C2554 1.381 . S
C2552 C2558 1.383 . S
C2553 C2549 1.495 . S
C2553 H2559 0.959 . S
C2553 H2560 0.961 . S
C2553 H2561 0.960 . S
C2554 C2552 1.381 . S
C2554 C2555 1.394 . S
C2554 H2562 0.930 . S
C2555 C2554 1.394 . S
C2555 C2556 1.383 . S
C2555 H2563 0.929 . S
C2556 C2555 1.383 . S
C2556 C2557 1.377 . S
C2557 H2541 0.930 . S
C2557 C2556 1.377 . S
C2557 C2558 1.379 . S
C2558 H2542 0.931 . S
C2558 C2552 1.383 . S
C2558 C2557 1.379 . S
H2559 C2553 0.959 . S
H2560 C2553 0.961 . S
H2561 C2553 0.960 . S
H2562 C2554 0.930 . S
H2563 C2555 0.929 . S
H2564 C2572 0.929 1_554 S
H2565 C2574 0.930 1_554 S
H2566 C2576 0.930 . S
H2567 C2579 0.929 . S
H2568 C2582 0.930 . S
H2569 C2584 0.960 . S
H2570 C2584 0.960 . S
H2571 C2584 0.960 . S
C2572 H2564 0.929 1_556 S
C2572 C2573 1.377 . S
C2572 C2574 1.384 . S
C2573 C2572 1.377 . S
C2573 C2579 1.390 . S
C2574 H2565 0.930 1_556 S
C2574 C2572 1.384 . S
C2574 C2575 1.372 . S
C2575 C2574 1.372 . S
C2575 C2576 1.400 . S
C2575 C2580 1.490 . S
C2576 H2566 0.930 . S
C2576 C2575 1.400 . S
C2576 C2579 1.386 . S
H2577 C2593 0.930 . S
H2578 C2594 0.931 . S
C2579 H2567 0.929 . S
C2579 C2573 1.390 . S
C2579 C2576 1.386 . S
C2580 C2575 1.490 . S
C2580 C2582 1.395 . S
C2580 C2583 1.403 . S
H2581 C2587 0.930 . S
C2582 H2568 0.930 . S
C2582 C2580 1.395 . S
C2582 C2585 1.403 . S
C2583 C2580 1.403 . S
C2583 C2584 1.524 . S
C2583 C2587 1.400 . S
C2584 H2569 0.960 . S
C2584 H2570 0.960 . S
C2584 H2571 0.960 . S
C2584 C2583 1.524 . S
C2585 C2582 1.403 . S
C2585 C2586 1.392 . S
C2585 C2589 1.495 . S
C2586 C2585 1.392 . S
C2586 C2587 1.385 . S
C2586 C2588 1.478 . S
C2587 H2581 0.930 . S
C2587 C2583 1.400 . S
C2587 C2586 1.385 . S
C2588 C2586 1.478 . S
C2588 C2590 1.381 . S
C2588 C2594 1.383 . S
C2589 C2585 1.495 . S
C2589 H2595 0.959 . S
C2589 H2596 0.961 . S
C2589 H2597 0.960 . S
C2590 C2588 1.381 . S
C2590 C2591 1.394 . S
C2590 H2598 0.930 . S
C2591 C2590 1.394 . S
C2591 C2592 1.383 . S
C2591 H2599 0.929 . S
C2592 C2591 1.383 . S
C2592 C2593 1.377 . S
C2593 H2577 0.930 . S
C2593 C2592 1.377 . S
C2593 C2594 1.379 . S
C2594 H2578 0.931 . S
C2594 C2588 1.383 . S
C2594 C2593 1.379 . S
H2595 C2589 0.959 . S
H2596 C2589 0.961 . S
H2597 C2589 0.960 . S
H2598 C2590 0.930 . S
H2599 C2591 0.929 . S
H2600 C2608 0.929 . S
H2601 C2610 0.930 . S
H2602 C2612 0.930 . S
H2603 C2615 0.929 . S
H2604 C2618 0.930 . S
H2605 C2620 0.960 . S
H2606 C2620 0.960 . S
H2607 C2620 0.960 . S
C2608 H2600 0.929 . S
C2608 C2609 1.377 . S
C2608 C2610 1.384 . S
C2609 C2608 1.377 . S
C2609 C2615 1.390 . S
C2610 H2601 0.930 . S
C2610 C2608 1.384 . S
C2610 C2611 1.372 . S
C2611 C2610 1.372 . S
C2611 C2612 1.400 . S
C2611 C2616 1.490 . S
C2612 H2602 0.930 . S
C2612 C2611 1.400 . S
C2612 C2615 1.386 . S
H2613 C2629 0.930 . S
H2614 C2630 0.931 . S
C2615 H2603 0.929 . S
C2615 C2609 1.390 . S
C2615 C2612 1.386 . S
C2616 C2611 1.490 . S
C2616 C2618 1.395 . S
C2616 C2619 1.403 . S
H2617 C2623 0.930 . S
C2618 H2604 0.930 . S
C2618 C2616 1.395 . S
C2618 C2621 1.403 . S
C2619 C2616 1.403 . S
C2619 C2620 1.524 . S
C2619 C2623 1.400 . S
C2620 H2605 0.960 . S
C2620 H2606 0.960 . S
C2620 H2607 0.960 . S
C2620 C2619 1.524 . S
C2621 C2618 1.403 . S
C2621 C2622 1.392 . S
C2621 C2625 1.495 . S
C2622 C2621 1.392 . S
C2622 C2623 1.385 . S
C2622 C2624 1.478 . S
C2623 H2617 0.930 . S
C2623 C2619 1.400 . S
C2623 C2622 1.385 . S
C2624 C2622 1.478 . S
C2624 C2626 1.381 . S
C2624 C2630 1.383 . S
C2625 C2621 1.495 . S
C2625 H2631 0.959 1_554 S
C2625 H2632 0.961 1_554 S
C2625 H2633 0.960 . S
C2626 C2624 1.381 . S
C2626 C2627 1.394 . S
C2626 H2634 0.930 . S
C2627 C2626 1.394 . S
C2627 C2628 1.383 . S
C2627 H2635 0.929 . S
C2628 C2627 1.383 . S
C2628 C2629 1.377 . S
C2629 H2613 0.930 . S
C2629 C2628 1.377 . S
C2629 C2630 1.379 . S
C2630 H2614 0.931 . S
C2630 C2624 1.383 . S
C2630 C2629 1.379 . S
H2631 C2625 0.959 1_556 S
H2632 C2625 0.961 1_556 S
H2633 C2625 0.960 . S
H2634 C2626 0.930 . S
H2635 C2627 0.929 . S
C917 C22 1.676 . S
C936 C704 1.691 . S
C972 C767 2.002 . S
C953 C38 2.018 . S
C1008 C644 1.908 1_565 S
C989 C75 1.904 . S
C1025 C91 1.802 . S
C1044 C678 1.788 . S
C1061 C128 1.827 . S
C1080 C882 1.837 . S
C1097 C197 1.166 . S
C1116 C853 1.175 . S
C1152 C776 1.980 . S
C1133 C144 2.032 . S
C1169 C181 1.462 . S
C1188 C810 1.427 . S
C1224 C699 1.996 1_455 S
C1205 C234 2.025 . S
C1260 C742 1.479 . S
C1241 C303 1.478 . S
C1277 C356 2.037 . S
C1296 C721 2.025 1_655 S
C1313 C287 1.725 . S
C1332 C835 1.717 . S
C1368 C840 1.606 . S
C1349 C393 1.596 . S
C1404 C903 2.051 1_565 S
C1385 C409 2.061 . S
C1421 C462 2.051 . S
C1440 C814 2.047 . S
C1476 C780 1.660 1_545 S
C1457 C446 1.662 . S
C1493 C499 1.800 . S
C1512 C746 1.790 . S
C1529 C552 1.101 . S
C1548 C717 1.107 . S
C1584 C674 1.935 . S
C1565 C515 1.992 . S
C1601 C568 1.637 . S
C1620 C640 1.633 . S
C1656 C801 2.065 . S
C1637 C340 2.086 . S
C1692 C878 1.432 . S
C1673 C621 1.467 . S
C1709 C250 1.928 . S
C1728 C857 1.901 . S
C1745 C605 1.620 . S
C1764 C665 1.610 . S
C1800 C649 0.976 . S
C1781 C39 0.957 . S
C1817 C29 0.743 . S
C1836 C683 0.760 . S
C1872 C708 0.944 . S
C1853 C92 0.973 . S
C1908 C755 1.627 . S
C1889 C82 1.614 . S
C1925 C145 1.425 . S
C1944 C636 1.436 . S
C1961 C188 1.165 . S
C1980 C670 1.151 . S
C2016 C712 1.270 . S
C1997 C135 1.259 . S
C2033 C198 0.768 . S
C2052 C751 0.759 . S
C2069 C251 1.569 . S
C2088 C653 1.573 . S
C2124 C733 1.349 . S
C2105 C294 1.375 . S
C2141 C347 1.353 . S
C2160 C738 1.375 . S
C2177 C304 1.552 . S
C2196 C789 1.559 . S
C2232 C819 1.015 . S
C2213 C410 1.023 . S
C2249 C400 0.742 . S
C2268 C785 0.738 . S
C2285 C453 0.699 . S
C2304 C844 0.706 . S
C2321 C463 1.918 . S
C2340 C891 1.910 . S
C2357 C516 1.457 . S
C2376 C806 1.463 . S
C2412 C772 1.486 . S
C2393 C569 1.473 . S
C2429 C506 1.165 . S
C2448 C848 1.171 . S
C2484 C887 0.567 . S
C2465 C559 0.514 . S
C2520 C823 1.513 . S
C2501 C357 1.539 . S
C2556 C869 1.294 . S
C2537 C612 1.322 . S
C2592 C874 1.312 . S
C2573 C241 1.305 . S
C2609 C622 1.443 . S
C2628 C687 1.455 . S
