# Generated by pormake.
# Topology ocu, (6,8)-cn, num edge types: 1
# Building blocks:
#     Node 0, Type 0, BuildingBlock: HISSIN_clean_sbu_0, # of connection points: 6
#     Node 1, Type 0, BuildingBlock: HISSIN_clean_sbu_0, # of connection points: 6
#     Node 2, Type 0, BuildingBlock: HISSIN_clean_sbu_0, # of connection points: 6
#     Node 3, Type 0, BuildingBlock: HISSIN_clean_sbu_0, # of connection points: 6
#     Node 4, Type 0, BuildingBlock: HISSIN_clean_sbu_0, # of connection points: 6
#     Node 5, Type 0, BuildingBlock: HISSIN_clean_sbu_0, # of connection points: 6
#     Node 6, Type 0, BuildingBlock: HISSIN_clean_sbu_0, # of connection points: 6
#     Node 7, Type 0, BuildingBlock: HISSIN_clean_sbu_0, # of connection points: 6
#     Node 8, Type 1, BuildingBlock: AJUNOK_clean_sbu_0, # of connection points: 8
#     Node 9, Type 1, BuildingBlock: AJUNOK_clean_sbu_0, # of connection points: 8
#     Node 10, Type 1, BuildingBlock: AJUNOK_clean_sbu_0, # of connection points: 8
#     Node 11, Type 1, BuildingBlock: AJUNOK_clean_sbu_0, # of connection points: 8
#     Node 12, Type 1, BuildingBlock: AJUNOK_clean_sbu_0, # of connection points: 8
#     Node 13, Type 1, BuildingBlock: AJUNOK_clean_sbu_0, # of connection points: 8
#     Edge 14, Type (0, 1), BuildingBlock: XIVTED_clean_linker_0, # of connection points: 2
#     Edge 15, Type (0, 1), BuildingBlock: XIVTED_clean_linker_0, # of connection points: 2
#     Edge 16, Type (0, 1), BuildingBlock: XIVTED_clean_linker_0, # of connection points: 2
#     Edge 17, Type (0, 1), BuildingBlock: XIVTED_clean_linker_0, # of connection points: 2
#     Edge 18, Type (0, 1), BuildingBlock: XIVTED_clean_linker_0, # of connection points: 2
#     Edge 19, Type (0, 1), BuildingBlock: XIVTED_clean_linker_0, # of connection points: 2
#     Edge 20, Type (0, 1), BuildingBlock: XIVTED_clean_linker_0, # of connection points: 2
#     Edge 21, Type (0, 1), BuildingBlock: XIVTED_clean_linker_0, # of connection points: 2
#     Edge 22, Type (0, 1), BuildingBlock: XIVTED_clean_linker_0, # of connection points: 2
#     Edge 23, Type (0, 1), BuildingBlock: XIVTED_clean_linker_0, # of connection points: 2
#     Edge 24, Type (0, 1), BuildingBlock: XIVTED_clean_linker_0, # of connection points: 2
#     Edge 25, Type (0, 1), BuildingBlock: XIVTED_clean_linker_0, # of connection points: 2
#     Edge 26, Type (0, 1), BuildingBlock: XIVTED_clean_linker_0, # of connection points: 2
#     Edge 27, Type (0, 1), BuildingBlock: XIVTED_clean_linker_0, # of connection points: 2
#     Edge 28, Type (0, 1), BuildingBlock: XIVTED_clean_linker_0, # of connection points: 2
#     Edge 29, Type (0, 1), BuildingBlock: XIVTED_clean_linker_0, # of connection points: 2
#     Edge 30, Type (0, 1), BuildingBlock: XIVTED_clean_linker_0, # of connection points: 2
#     Edge 31, Type (0, 1), BuildingBlock: XIVTED_clean_linker_0, # of connection points: 2
#     Edge 32, Type (0, 1), BuildingBlock: XIVTED_clean_linker_0, # of connection points: 2
#     Edge 33, Type (0, 1), BuildingBlock: XIVTED_clean_linker_0, # of connection points: 2
#     Edge 34, Type (0, 1), BuildingBlock: XIVTED_clean_linker_0, # of connection points: 2
#     Edge 35, Type (0, 1), BuildingBlock: XIVTED_clean_linker_0, # of connection points: 2
#     Edge 36, Type (0, 1), BuildingBlock: XIVTED_clean_linker_0, # of connection points: 2
#     Edge 37, Type (0, 1), BuildingBlock: XIVTED_clean_linker_0, # of connection points: 2
#     Edge 38, Type (0, 1), BuildingBlock: XIVTED_clean_linker_0, # of connection points: 2
#     Edge 39, Type (0, 1), BuildingBlock: XIVTED_clean_linker_0, # of connection points: 2
#     Edge 40, Type (0, 1), BuildingBlock: XIVTED_clean_linker_0, # of connection points: 2
#     Edge 41, Type (0, 1), BuildingBlock: XIVTED_clean_linker_0, # of connection points: 2
#     Edge 42, Type (0, 1), BuildingBlock: XIVTED_clean_linker_0, # of connection points: 2
#     Edge 43, Type (0, 1), BuildingBlock: XIVTED_clean_linker_0, # of connection points: 2
#     Edge 44, Type (0, 1), BuildingBlock: XIVTED_clean_linker_0, # of connection points: 2
#     Edge 45, Type (0, 1), BuildingBlock: XIVTED_clean_linker_0, # of connection points: 2
#     Edge 46, Type (0, 1), BuildingBlock: XIVTED_clean_linker_0, # of connection points: 2
#     Edge 47, Type (0, 1), BuildingBlock: XIVTED_clean_linker_0, # of connection points: 2
#     Edge 48, Type (0, 1), BuildingBlock: XIVTED_clean_linker_0, # of connection points: 2
#     Edge 49, Type (0, 1), BuildingBlock: XIVTED_clean_linker_0, # of connection points: 2
#     Edge 50, Type (0, 1), BuildingBlock: XIVTED_clean_linker_0, # of connection points: 2
#     Edge 51, Type (0, 1), BuildingBlock: XIVTED_clean_linker_0, # of connection points: 2
#     Edge 52, Type (0, 1), BuildingBlock: XIVTED_clean_linker_0, # of connection points: 2
#     Edge 53, Type (0, 1), BuildingBlock: XIVTED_clean_linker_0, # of connection points: 2
#     Edge 54, Type (0, 1), BuildingBlock: XIVTED_clean_linker_0, # of connection points: 2
#     Edge 55, Type (0, 1), BuildingBlock: XIVTED_clean_linker_0, # of connection points: 2
#     Edge 56, Type (0, 1), BuildingBlock: XIVTED_clean_linker_0, # of connection points: 2
#     Edge 57, Type (0, 1), BuildingBlock: XIVTED_clean_linker_0, # of connection points: 2
#     Edge 58, Type (0, 1), BuildingBlock: XIVTED_clean_linker_0, # of connection points: 2
#     Edge 59, Type (0, 1), BuildingBlock: XIVTED_clean_linker_0, # of connection points: 2
#     Edge 60, Type (0, 1), BuildingBlock: XIVTED_clean_linker_0, # of connection points: 2
#     Edge 61, Type (0, 1), BuildingBlock: XIVTED_clean_linker_0, # of connection points: 2
# Relax obj value: 0.139
# Max RMSD: 0.199
# Mean RMSD: 0.160
data_MOF--net-ocu--node1-HISSIN_clean_sbu_0--node2-AJUNOK_clean_sbu_0--edge1-XIVTED_clean_linker_0
_symmetry_space_group_name_H-M    P1
_symmetry_Int_Tables_number       1
_symmetry_cell_setting            triclinic
loop_
_symmetry_equiv_pos_as_xyz
'x, y, z'
_cell_length_a     44.733169
_cell_length_b     46.596029
_cell_length_c     37.654085
_cell_angle_alpha  106.11283
_cell_angle_beta   88.492246
_cell_angle_gamma 112.46647
loop_
_atom_site_label
_atom_site_type_symbol
_atom_site_fract_x
_atom_site_fract_y
_atom_site_fract_z
_atom_type_partial_charge
Eu0 Eu 0.2943 0.24252 0.28701 0.0
Eu1 Eu 0.2455 0.22551 0.21205 0.0
C2 C 0.22919 0.17584 0.26036 0.0
C3 C 0.3472 0.22805 0.35003 0.0
C4 C 0.3354 0.19537 0.32864 0.0
C5 C 0.38628 0.21846 0.38394 0.0
C6 C 0.34912 0.17447 0.33458 0.0
C7 C 0.37264 0.23941 0.3778 0.0
C8 C 0.37485 0.18575 0.36222 0.0
C9 C 0.33412 0.25046 0.34192 0.0
O10 O 0.22258 0.24533 0.26191 0.0
O11 O 0.26719 0.27619 0.30415 0.0
C12 C 0.23703 0.26917 0.29209 0.0
O13 O 0.32218 0.27227 0.25016 0.0
O14 O 0.19822 0.20842 0.18148 0.0
O15 O 0.24188 0.23323 0.15795 0.0
O16 O 0.27821 0.27812 0.2305 0.0
C17 C 0.30965 0.2872 0.2342 0.0
O18 O 0.29904 0.19968 0.24549 0.0
O19 O 0.28409 0.20559 0.19095 0.0
O20 O 0.22593 0.17868 0.22708 0.0
O21 O 0.34367 0.25938 0.31228 0.0
O22 O 0.303 0.24289 0.34408 0.0
O23 O 0.24954 0.19914 0.28748 0.0
C24 C 0.19579 0.24415 0.14894 0.0
C25 C 0.19707 0.27157 0.17745 0.0
C26 C 0.16671 0.25839 0.1075 0.0
C27 C 0.18307 0.29214 0.17109 0.0
C28 C 0.18068 0.23782 0.11392 0.0
C29 C 0.16754 0.28575 0.13604 0.0
C30 C 0.21021 0.22226 0.15567 0.0
C31 C 0.29891 0.19368 0.2093 0.0
H32 H 0.31571 0.18608 0.30709 0.0
H33 H 0.40627 0.22808 0.40518 0.0
H34 H 0.3394 0.14939 0.31767 0.0
H35 H 0.38226 0.26458 0.39441 0.0
H36 H 0.20872 0.27692 0.20472 0.0
H37 H 0.15549 0.25297 0.08001 0.0
H38 H 0.18391 0.31272 0.19384 0.0
H39 H 0.17967 0.21693 0.09151 0.0
Eu40 Eu 0.78929 0.23024 0.24132 0.0
Eu41 Eu 0.73372 0.2611 0.2542 0.0
C42 C 0.7877 0.27852 0.31906 0.0
C43 C 0.85031 0.19873 0.26321 0.0
C44 C 0.884 0.20757 0.2664 0.0
C45 C 0.84527 0.17342 0.31258 0.0
C46 C 0.89829 0.19934 0.29247 0.0
C47 C 0.83104 0.18193 0.28677 0.0
C48 C 0.87901 0.18198 0.3156 0.0
C49 C 0.83594 0.20929 0.23729 0.0
O50 O 0.76561 0.28244 0.21308 0.0
O51 O 0.8114 0.28062 0.23536 0.0
C52 C 0.79728 0.29258 0.21675 0.0
O53 O 0.76556 0.21625 0.18369 0.0
O54 O 0.71986 0.30255 0.26433 0.0
O55 O 0.68287 0.2544 0.2572 0.0
O56 O 0.71734 0.21999 0.20155 0.0
C57 C 0.73492 0.21033 0.17621 0.0
O58 O 0.74498 0.19252 0.25493 0.0
O59 O 0.7215 0.22617 0.28862 0.0
O60 O 0.77232 0.29059 0.30193 0.0
O61 O 0.80614 0.19073 0.2233 0.0
O62 O 0.84078 0.23992 0.24792 0.0
O63 O 0.78958 0.25053 0.30288 0.0
C64 C 0.67191 0.28752 0.22754 0.0
C65 C 0.68227 0.28094 0.19178 0.0
C66 C 0.62831 0.29755 0.20344 0.0
C67 C 0.66588 0.28274 0.16205 0.0
C68 C 0.64482 0.29575 0.23328 0.0
C69 C 0.63874 0.29111 0.16752 0.0
C70 C 0.68888 0.28427 0.25799 0.0
C71 C 0.72487 0.1983 0.27921 0.0
H72 H 0.89925 0.22097 0.2488 0.0
H73 H 0.82993 0.16027 0.33031 0.0
H74 H 0.92431 0.20593 0.29399 0.0
H75 H 0.80504 0.17553 0.28536 0.0
H76 H 0.70298 0.27416 0.18683 0.0
H77 H 0.60767 0.3044 0.20856 0.0
H78 H 0.67423 0.27718 0.13469 0.0
H79 H 0.63643 0.30069 0.26071 0.0
Eu80 Eu 0.75764 0.73549 0.20354 0.0
Eu81 Eu 0.75363 0.70112 0.27075 0.0
C82 C 0.69786 0.67068 0.20517 0.0
C83 C 0.73628 0.78201 0.1477 0.0
C84 C 0.70615 0.77656 0.16255 0.0
C85 C 0.72959 0.82273 0.12366 0.0
C86 C 0.6878 0.79395 0.15787 0.0
C87 C 0.74791 0.80526 0.12834 0.0
C88 C 0.69926 0.81722 0.13829 0.0
C89 C 0.756 0.76425 0.15337 0.0
O90 O 0.77265 0.67402 0.22217 0.0
O91 O 0.79378 0.7114 0.18963 0.0
C92 C 0.79193 0.685 0.19771 0.0
O93 O 0.79378 0.77193 0.2508 0.0
O94 O 0.73895 0.65785 0.28967 0.0
O95 O 0.76791 0.70478 0.32741 0.0
O96 O 0.80499 0.7355 0.27181 0.0
C97 C 0.81296 0.76494 0.26952 0.0
O98 O 0.71992 0.74637 0.23956 0.0
O99 O 0.73544 0.74162 0.29461 0.0
O100 O 0.70346 0.67775 0.2412 0.0
O101 O 0.7765 0.77803 0.18288 0.0
O102 O 0.74044 0.73327 0.14873 0.0
O103 O 0.71988 0.68474 0.18502 0.0
C104 C 0.77924 0.65994 0.33042 0.0
C105 C 0.80657 0.6618 0.31047 0.0
C106 C 0.79466 0.63095 0.36636 0.0
C107 C 0.82778 0.64825 0.31837 0.0
C108 C 0.77347 0.64448 0.35841 0.0
C109 C 0.8221 0.63259 0.34642 0.0
C110 C 0.75637 0.67337 0.32148 0.0
C111 C 0.71979 0.75251 0.27582 0.0
H112 H 0.69682 0.75889 0.17788 0.0
H113 H 0.73898 0.8402 0.10811 0.0
H114 H 0.66481 0.78941 0.16998 0.0
H115 H 0.77118 0.80991 0.11683 0.0
H116 H 0.81144 0.67367 0.28872 0.0
H117 H 0.78919 0.61868 0.38773 0.0
H118 H 0.8488 0.65036 0.30273 0.0
H119 H 0.75242 0.64264 0.37394 0.0
Eu120 Eu 0.3143 0.70281 0.23199 0.0
Eu121 Eu 0.2623 0.73695 0.24825 0.0
C122 C 0.25835 0.68687 0.16956 0.0
C123 C 0.35779 0.65588 0.17498 0.0
C124 C 0.36311 0.62732 0.16944 0.0
C125 C 0.34922 0.64476 0.10824 0.0
C126 C 0.36076 0.60719 0.13355 0.0
C127 C 0.35127 0.66474 0.14417 0.0
C128 C 0.3531 0.6154 0.10271 0.0
C129 C 0.35351 0.67324 0.21234 0.0
O130 O 0.23744 0.68501 0.24893 0.0
O131 O 0.28176 0.68213 0.27307 0.0
C132 C 0.25017 0.67252 0.26844 0.0
O133 O 0.33469 0.74135 0.28619 0.0
O134 O 0.21814 0.73858 0.27252 0.0
O135 O 0.24322 0.7718 0.24085 0.0
O136 O 0.28937 0.75184 0.30417 0.0
C137 C 0.31896 0.7543 0.31135 0.0
O138 O 0.32604 0.73958 0.19983 0.0
O139 O 0.30981 0.77499 0.24179 0.0
O140 O 0.2563 0.71461 0.18656 0.0
O141 O 0.36281 0.70464 0.2196 0.0
O142 O 0.32502 0.65973 0.22345 0.0
O143 O 0.27427 0.67464 0.18563 0.0
C144 C 0.22132 0.79205 0.29456 0.0
C145 C 0.23445 0.79694 0.33028 0.0
C146 C 0.21131 0.84123 0.31708 0.0
C147 C 0.23557 0.82356 0.35932 0.0
C148 C 0.20992 0.81439 0.28806 0.0
C149 C 0.224 0.84591 0.35297 0.0
C150 C 0.22105 0.76465 0.26375 0.0
C151 C 0.32683 0.76898 0.21397 0.0
H152 H 0.36769 0.61992 0.19291 0.0
H153 H 0.3432 0.65154 0.08494 0.0
H154 H 0.36434 0.58486 0.1299 0.0
H155 H 0.34636 0.68639 0.14791 0.0
H156 H 0.24391 0.78023 0.33575 0.0
H157 H 0.2019 0.85798 0.31162 0.0
H158 H 0.24566 0.82681 0.38668 0.0
H159 H 0.20002 0.8111 0.26058 0.0
Eu160 Eu 0.29548 0.72559 0.74113 0.0
Eu161 Eu 0.23866 0.75541 0.75236 0.0
C162 C 0.29182 0.77249 0.81835 0.0
C163 C 0.35833 0.69817 0.76541 0.0
C164 C 0.39123 0.70311 0.76605 0.0
C165 C 0.35361 0.67957 0.82017 0.0
C166 C 0.40531 0.69623 0.79364 0.0
C167 C 0.33965 0.68667 0.79281 0.0
C168 C 0.38655 0.68425 0.82082 0.0
C169 C 0.34419 0.70773 0.73834 0.0
O170 O 0.26997 0.77572 0.71042 0.0
O171 O 0.31594 0.77593 0.73486 0.0
C172 C 0.30164 0.78651 0.71461 0.0
O173 O 0.27034 0.70797 0.68348 0.0
O174 O 0.22709 0.79839 0.76689 0.0
O175 O 0.18824 0.75051 0.75321 0.0
O176 O 0.22336 0.71649 0.698 0.0
C177 C 0.24062 0.70424 0.67451 0.0
O178 O 0.25398 0.68815 0.75885 0.0
O179 O 0.22248 0.71724 0.78244 0.0
O180 O 0.27698 0.78442 0.80042 0.0
O181 O 0.31494 0.68799 0.72343 0.0
O182 O 0.34744 0.73794 0.74884 0.0
O183 O 0.29416 0.74473 0.80252 0.0
C184 C 0.18116 0.79023 0.73109 0.0
C185 C 0.17725 0.77296 0.69329 0.0
C186 C 0.16341 0.82861 0.71562 0.0
C187 C 0.16652 0.78351 0.66677 0.0
C188 C 0.1739 0.8179 0.74214 0.0
C189 C 0.16003 0.81174 0.67767 0.0
C190 C 0.19601 0.78148 0.75846 0.0
C191 C 0.22971 0.69165 0.77742 0.0
H192 H 0.40605 0.71251 0.74543 0.0
H193 H 0.33872 0.67072 0.84104 0.0
H194 H 0.43069 0.69978 0.79338 0.0
H195 H 0.31436 0.68349 0.79324 0.0
H196 H 0.18327 0.75181 0.68419 0.0
H197 H 0.15815 0.85024 0.72476 0.0
H198 H 0.16433 0.77022 0.63771 0.0
H199 H 0.1771 0.83165 0.77115 0.0
Eu200 Eu 0.28661 0.26601 0.71328 0.0
Eu201 Eu 0.28379 0.2324 0.7813 0.0
C202 C 0.23206 0.19985 0.71206 0.0
C203 C 0.25792 0.30819 0.65715 0.0
C204 C 0.24041 0.29807 0.62247 0.0
C205 C 0.23207 0.34657 0.67998 0.0
C206 C 0.21901 0.31212 0.61653 0.0
C207 C 0.25335 0.33247 0.68592 0.0
C208 C 0.2147 0.33672 0.64516 0.0
C209 C 0.28029 0.29293 0.66321 0.0
O210 O 0.31899 0.21849 0.74378 0.0
O211 O 0.30701 0.22705 0.68925 0.0
C212 C 0.32084 0.21435 0.70787 0.0
O213 O 0.33795 0.28686 0.73817 0.0
O214 O 0.26282 0.19295 0.80672 0.0
O215 O 0.30519 0.23524 0.83432 0.0
O216 O 0.32481 0.28151 0.79592 0.0
C217 C 0.34595 0.29333 0.77354 0.0
O218 O 0.27158 0.29527 0.76393 0.0
O219 O 0.24808 0.25704 0.79461 0.0
O220 O 0.2517 0.19416 0.73172 0.0
O221 O 0.30123 0.30818 0.69246 0.0
O222 O 0.26743 0.26161 0.6582 0.0
O223 O 0.23672 0.22964 0.71393 0.0
C224 C 0.30282 0.18503 0.83875 0.0
C225 C 0.31462 0.18876 0.87456 0.0
C226 C 0.32589 0.14466 0.8139 0.0
C227 C 0.33189 0.17062 0.88009 0.0
C228 C 0.30867 0.16289 0.80841 0.0
C229 C 0.33777 0.14828 0.84984 0.0
C230 C 0.28623 0.20572 0.83334 0.0
C231 C 0.25148 0.28432 0.78775 0.0
H232 H 0.24336 0.27931 0.59989 0.0
H233 H 0.22897 0.36501 0.70287 0.0
H234 H 0.20628 0.30409 0.58928 0.0
H235 H 0.26622 0.34063 0.71311 0.0
H236 H 0.31082 0.20607 0.8983 0.0
H237 H 0.32965 0.12753 0.78996 0.0
H238 H 0.34116 0.17458 0.90807 0.0
H239 H 0.30009 0.15982 0.78043 0.0
Eu240 Eu 0.77946 0.23476 0.74631 0.0
Eu241 Eu 0.72999 0.27207 0.7689 0.0
C242 C 0.72165 0.22165 0.68805 0.0
C243 C 0.83996 0.20841 0.69381 0.0
C244 C 0.82885 0.21357 0.6625 0.0
C245 C 0.88457 0.20007 0.66137 0.0
C246 C 0.84483 0.21071 0.63023 0.0
C247 C 0.86838 0.20262 0.69352 0.0
C248 C 0.87237 0.20313 0.6291 0.0
C249 C 0.82172 0.20905 0.72655 0.0
O250 O 0.71816 0.23485 0.8006 0.0
O251 O 0.73461 0.1983 0.76026 0.0
C252 C 0.71763 0.2054 0.78768 0.0
O253 O 0.78583 0.25437 0.80838 0.0
O254 O 0.68389 0.27225 0.78966 0.0
O255 O 0.71913 0.31517 0.7785 0.0
O256 O 0.77366 0.29798 0.81078 0.0
C257 C 0.78735 0.28342 0.82602 0.0
O258 O 0.80376 0.28292 0.73501 0.0
O259 O 0.75949 0.29449 0.72684 0.0
O260 O 0.70662 0.23296 0.71554 0.0
O261 O 0.82913 0.2377 0.75013 0.0
O262 O 0.79041 0.19252 0.7199 0.0
O263 O 0.7521 0.22562 0.69252 0.0
C264 C 0.69265 0.32265 0.83271 0.0
C265 C 0.72112 0.33738 0.85693 0.0
C266 C 0.66453 0.34519 0.88152 0.0
C267 C 0.72157 0.35643 0.89286 0.0
C268 C 0.66419 0.32621 0.84534 0.0
C269 C 0.69341 0.36089 0.90538 0.0
C270 C 0.69296 0.30332 0.79467 0.0
C271 C 0.78988 0.29861 0.72212 0.0
H272 H 0.80721 0.21876 0.66264 0.0
H273 H 0.90548 0.19369 0.66112 0.0
H274 H 0.83499 0.21317 0.60576 0.0
H275 H 0.87742 0.19904 0.71768 0.0
H276 H 0.74322 0.33457 0.84782 0.0
H277 H 0.64254 0.34851 0.89037 0.0
H278 H 0.74405 0.36801 0.91071 0.0
H279 H 0.64193 0.31476 0.82712 0.0
Eu280 Eu 0.79009 0.73952 0.78207 0.0
Eu281 Eu 0.73788 0.71915 0.70898 0.0
C282 C 0.72365 0.67404 0.76267 0.0
C283 C 0.84584 0.72744 0.84463 0.0
C284 C 0.82806 0.69372 0.8339 0.0
C285 C 0.89062 0.71914 0.86941 0.0
C286 C 0.84137 0.67288 0.84108 0.0
C287 C 0.87719 0.73994 0.86244 0.0
C288 C 0.87295 0.68525 0.8588 0.0
C289 C 0.83288 0.74936 0.83483 0.0
O290 O 0.71761 0.74193 0.75951 0.0
O291 O 0.76363 0.77378 0.79944 0.0
C292 C 0.73313 0.76662 0.78855 0.0
O293 O 0.81532 0.76879 0.7436 0.0
O294 O 0.68925 0.70145 0.68129 0.0
O295 O 0.73127 0.7231 0.65348 0.0
O296 O 0.76985 0.77181 0.72281 0.0
C297 C 0.80141 0.78225 0.72695 0.0
O298 O 0.79214 0.69463 0.7421 0.0
O299 O 0.7764 0.69921 0.68725 0.0
O300 O 0.7191 0.67448 0.72851 0.0
O301 O 0.84054 0.75513 0.80317 0.0
O302 O 0.80241 0.74397 0.83974 0.0
O303 O 0.74528 0.69833 0.78776 0.0
C304 C 0.68578 0.73565 0.64696 0.0
C305 C 0.68862 0.7639 0.67505 0.0
C306 C 0.65687 0.75035 0.60581 0.0
C307 C 0.67551 0.78513 0.66864 0.0
C308 C 0.66995 0.72911 0.61229 0.0
C309 C 0.65935 0.77863 0.63393 0.0
C310 C 0.69978 0.71339 0.65372 0.0
C311 C 0.79164 0.68786 0.70586 0.0
H312 H 0.80397 0.68345 0.81961 0.0
H313 H 0.9152 0.72967 0.88241 0.0
H314 H 0.82677 0.64708 0.83284 0.0
H315 H 0.89155 0.76582 0.87038 0.0
H316 H 0.70089 0.76948 0.70202 0.0
H317 H 0.64512 0.74477 0.57856 0.0
H318 H 0.67762 0.80638 0.69111 0.0
H319 H 0.66776 0.70761 0.59016 0.0
Cd320 Cd 0.97931 0.96167 0.53912 0.0
Cd321 Cd 0.05416 0.02484 0.46487 0.0
C322 C 0.03082 0.94472 0.57291 0.0
N323 N 1.01544 0.93704 0.53893 0.0
C324 C 0.04201 0.90125 0.51257 0.0
C325 C 0.05882 0.90963 0.5473 0.0
C326 C 0.05298 0.93162 0.57763 0.0
C327 C 0.02027 0.91554 0.50892 0.0
H328 H 0.02547 0.96074 0.59663 0.0
H329 H 1.00716 0.90929 0.48235 0.0
C330 C 0.99092 0.95141 0.43871 0.0
C331 C 0.99671 0.04373 0.46056 0.0
C332 C 0.97853 0.05897 0.45037 0.0
C333 C 0.99355 0.09153 0.45046 0.0
C334 C 0.02661 0.10863 0.46358 0.0
C335 C 0.04406 0.09224 0.47355 0.0
N336 N 0.02885 0.0602 0.471 0.0
H337 H 0.98579 0.018 0.45745 0.0
H338 H 0.07003 0.10436 0.48047 0.0
C339 C 0.08592 0.98405 0.49 0.0
N340 N 0.09402 0.01548 0.49125 0.0
C341 C 0.14957 0.02852 0.5086 0.0
C342 C 0.14239 -0.00448 0.50402 0.0
C343 C 0.1098 0.97349 0.49666 0.0
C344 C 0.12478 0.03805 0.50183 0.0
H345 H 0.0613 0.96677 0.48092 0.0
H346 H 0.13045 0.06298 0.50269 0.0
C347 C 0.04225 0.0222 0.55514 0.0
C348 C 0.93336 0.92563 0.57916 0.0
N349 N 0.95805 -0.00165 0.53389 0.0
C350 C 0.96802 0.02729 0.56063 0.0
C351 C 0.95951 0.0519 0.5564 0.0
C352 C 0.9399 0.04641 0.52478 0.0
C353 C 0.92743 0.01531 0.49924 0.0
C354 C 0.93733 -0.00849 0.50412 0.0
C355 C 0.09298 0.04617 0.41024 0.0
O356 O 0.98721 0.95518 0.47305 0.0
O357 O 1.01372 0.97283 0.42803 0.0
O358 O 0.03202 0.01382 0.52123 0.0
O359 O 0.02443 0.00719 0.57613 0.0
O360 O 0.93011 0.9161 0.54379 0.0
O361 O 0.95684 0.95205 0.59474 0.0
O362 O 0.09948 0.06263 0.44434 0.0
O363 O 0.0682 0.01949 0.40154 0.0
H364 H 0.98325 0.03163 0.58489 0.0
H365 H 0.92939 0.968 0.48362 0.0
H366 H 0.04573 0.88403 0.4887 0.0
H367 H 0.06469 0.93787 0.6051 0.0
H368 H 0.95308 0.04487 0.44122 0.0
H369 H 0.0394 0.13361 0.46366 0.0
H370 H 0.17436 0.04626 0.51455 0.0
H371 H 0.10315 0.94777 0.49222 0.0
H372 H 0.96846 0.07513 0.57755 0.0
H373 H 0.91178 0.01002 0.47483 0.0
Cd374 Cd 0.48935 0.98355 0.05458 0.0
Cd375 Cd 0.55118 -0.01289 0.94003 0.0
C376 C 0.54912 0.98213 0.10296 0.0
N377 N 0.52748 0.96623 0.07234 0.0
C378 C 0.54472 0.92205 0.05823 0.0
C379 C 0.56708 0.93754 0.08983 0.0
C380 C 0.56951 0.96822 0.11211 0.0
C381 C 0.52512 0.93689 0.05001 0.0
H382 H 0.55018 0.00528 0.12054 0.0
H383 H 0.50748 0.92474 0.02604 0.0
C384 C 0.48073 0.94018 0.95724 0.0
C385 C 0.49948 -0.00637 0.88515 0.0
C386 C 0.47808 0.00623 0.87535 0.0
C387 C 0.46916 0.02824 0.90282 0.0
C388 C 0.48184 0.03658 0.9397 0.0
C389 C 0.50313 0.02354 0.94819 0.0
N390 N 0.51163 0.00263 0.92108 0.0
H391 H 0.50685 0.97715 0.86405 0.0
H392 H 0.51352 0.03072 0.97642 0.0
C393 C 0.56078 0.91723 0.91169 0.0
N394 N 0.57742 0.9498 0.92625 0.0
C395 C 0.62811 0.94313 0.9187 0.0
C396 C 0.61172 0.90945 0.90276 0.0
C397 C 0.57747 0.8966 0.89991 0.0
C398 C 0.61048 0.96284 0.93022 0.0
H399 H 0.53454 0.90723 0.90836 0.0
H400 H 0.62326 -0.01117 0.94134 0.0
C401 C 0.55916 0.03025 0.03627 0.0
C402 C 0.44447 0.93877 0.0877 0.0
N403 N 0.4651 0.02223 0.0693 0.0
C404 C 0.47552 0.04591 0.10221 0.0
C405 C 0.45898 0.06638 0.11545 0.0
C406 C 0.43113 0.06246 0.09487 0.0
C407 C 0.42174 0.0386 0.06018 0.0
C408 C 0.43905 0.01859 0.04796 0.0
C409 C 0.59594 0.03327 0.90883 0.0
O410 O 0.4919 0.96242 0.98757 0.0
O411 O 0.498 0.9411 0.92979 0.0
O412 O 0.54809 0.0068 0.00695 0.0
O413 O 0.54212 0.0302 0.06392 0.0
O414 O 0.44369 0.933 0.05252 0.0
O415 O 0.4652 0.96591 0.10711 0.0
O416 O 0.59457 0.03944 0.94385 0.0
O417 O 0.57724 0.00531 0.88885 0.0
H418 H 0.49606 0.04815 0.11889 0.0
H419 H 0.43089 -0.00071 0.02212 0.0
H420 H 0.54233 0.89862 0.04002 0.0
H421 H 0.58626 0.98085 0.13688 0.0
H422 H 0.46871 -0.00112 0.84661 0.0
H423 H 0.47621 0.05384 0.96175 0.0
H424 H 0.65437 0.95446 0.92109 0.0
H425 H 0.56355 0.87082 0.88839 0.0
H426 H 0.46764 0.08473 0.14198 0.0
H427 H 0.40036 0.03437 0.04338 0.0
Cd428 Cd 0.99263 0.48504 0.05128 0.0
Cd429 Cd 0.05014 0.48497 0.93612 0.0
C430 C 0.04202 0.4706 0.10028 0.0
N431 N 0.02621 0.46094 0.066 0.0
C432 C 0.04379 0.41699 0.0465 0.0
C433 C 0.05955 0.42562 0.08196 0.0
C434 C 0.05899 0.45322 0.10889 0.0
C435 C 0.0271 0.43492 0.03919 0.0
H436 H 0.04068 0.49122 0.12124 0.0
H437 H 1.01416 0.42755 0.01226 0.0
C438 C 0.98136 0.44068 0.95524 0.0
C439 C 1.00033 0.50021 0.88832 0.0
C440 C 0.98268 0.51742 0.88087 0.0
C441 C 0.97787 0.54142 0.9099 0.0
C442 C 0.98994 0.54624 0.94613 0.0
C443 C 1.00774 0.52883 0.95223 0.0
N444 N 1.01312 0.50674 0.92345 0.0
H445 H 1.00493 0.48259 0.86579 0.0
H446 H 1.01808 0.53374 0.97992 0.0
C447 C 0.07368 0.43221 0.88165 0.0
N448 N 0.07276 0.44468 0.91871 0.0
C449 C 0.10542 0.41751 0.93193 0.0
C450 C 0.108 0.40548 0.89376 0.0
C451 C 0.09113 0.41259 0.86859 0.0
C452 C 0.08781 0.43734 0.94387 0.0
H453 H 0.06176 0.43846 0.8621 0.0
H454 H 0.08723 0.44785 0.97323 0.0
C455 C 0.06409 0.52787 0.03424 0.0
C456 C 0.94442 0.44605 0.0872 0.0
N457 N 0.97215 0.52678 0.067 0.0
C458 C 0.97461 0.54261 0.10375 0.0
C459 C 0.95762 0.56269 0.11672 0.0
C460 C 0.93768 0.56668 0.09176 0.0
C461 C 0.9369 0.55128 0.05366 0.0
C462 C 0.95417 0.53114 0.04186 0.0
C463 C 0.09459 0.52633 0.89952 0.0
O464 O 0.99411 0.46422 0.98411 0.0
O465 O 0.99717 0.43949 0.92662 0.0
O466 O 0.05102 0.5066 0.00375 0.0
O467 O 0.04746 0.52827 0.06225 0.0
O468 O 0.94103 0.44091 0.0522 0.0
O469 O 0.96987 0.46944 0.10491 0.0
O470 O 0.10028 0.53045 0.93396 0.0
O471 O 0.06915 0.50254 0.88256 0.0
H472 H 0.98863 0.53845 0.12332 0.0
H473 H 0.95195 0.51779 0.01286 0.0
H474 H 0.04402 0.39633 0.02462 0.0
H475 H 0.07053 0.46066 0.13668 0.0
H476 H 0.97412 0.51287 0.85243 0.0
H477 H 0.98621 0.56374 0.96965 0.0
H478 H 0.1181 0.41292 0.95245 0.0
H479 H 0.09184 0.40353 0.83893 0.0
H480 H 0.95948 0.57436 0.14624 0.0
H481 H 0.92174 0.55336 0.03334 0.0
Cd482 Cd 0.46704 0.42282 -0.00144 0.0
Cd483 Cd 0.55657 0.53614 0.98563 0.0
C484 C 0.52577 0.4031 0.00226 0.0
N485 N 0.4943 0.38872 0.98788 0.0
C486 C 0.49445 0.33609 0.97926 0.0
C487 C 0.5264 0.35038 -0.00379 0.0
C488 C 0.54252 0.38431 0.00627 0.0
C489 C 0.47866 0.35592 0.97539 0.0
H490 H 0.53709 0.42922 0.013 0.0
H491 H 0.45337 0.34526 0.96481 0.0
C492 C 0.52554 0.45643 0.93827 0.0
C493 C 0.49802 0.55984 0.99115 0.0
C494 C 0.48088 0.57747 0.98457 0.0
C495 C 0.49761 0.60704 0.97675 0.0
C496 C 0.53174 0.62006 0.98036 0.0
C497 C 0.54806 0.60194 0.98817 0.0
N498 N 0.53095 0.57194 0.99198 0.0
H499 H 0.48479 0.53565 0.99323 0.0
H500 H 0.57419 0.61065 0.98814 0.0
C501 C 0.58352 0.50661 0.03416 0.0
N502 N 0.59292 0.53617 0.02847 0.0
C503 C 0.64637 0.55177 0.05604 0.0
C504 C 0.63789 0.52018 0.059 0.0
C505 C 0.60534 0.49834 0.05026 0.0
C506 C 0.6232 0.55936 0.04053 0.0
H507 H 0.55977 0.48834 0.0232 0.0
H508 H 0.63023 0.58258 0.03513 0.0
C509 C 0.50501 0.50105 0.04519 0.0
C510 C 0.43334 0.39456 0.05211 0.0
N511 N 0.42673 0.42442 0.96219 0.0
C512 C 0.3975 0.41934 0.97627 0.0
C513 C 0.37618 0.43061 0.96404 0.0
C514 C 0.3853 0.4478 0.93746 0.0
C515 C 0.41372 0.44882 0.92003 0.0
C516 C 0.43446 0.43736 0.93336 0.0
C517 C 0.59327 0.55816 0.9298 0.0
O518 O 0.51236 0.45447 0.96821 0.0
O519 O 0.5446 0.48419 0.93647 0.0
O520 O 0.50954 0.50236 0.01214 0.0
O521 O 0.48694 0.47407 0.05003 0.0
O522 O 0.42459 0.38057 0.01764 0.0
O523 O 0.45763 0.42156 0.0612 0.0
O524 O 0.6049 0.56975 0.96367 0.0
O525 O 0.56454 0.53657 0.92234 0.0
H526 H 0.39212 0.40971 -0.00027 0.0
H527 H 0.45798 0.44178 0.9232 0.0
H528 H 0.48125 0.31002 0.97117 0.0
H529 H 0.56685 0.39639 0.02016 0.0
H530 H 0.45463 0.56691 0.98297 0.0
H531 H 0.54562 0.64264 0.97427 0.0
H532 H 0.67123 0.56932 0.06242 0.0
H533 H 0.59755 0.47353 0.05121 0.0
H534 H 0.3548 0.4293 0.97875 0.0
H535 H 0.42154 0.46133 0.89903 0.0
Cd536 Cd 0.98827 0.48482 0.55213 0.0
Cd537 Cd 0.05003 0.48495 0.43739 0.0
C538 C 0.04199 0.47996 0.60652 0.0
N539 N 0.02528 0.46693 0.57238 0.0
C540 C 0.04886 0.42735 0.55588 0.0
C541 C 0.0662 0.43981 0.59104 0.0
C542 C 0.0628 0.46674 0.61645 0.0
C543 C 0.02845 0.44124 0.54719 0.0
H544 H 0.03893 0.50034 0.62612 0.0
H545 H 1.01483 0.43132 0.52028 0.0
C546 C 0.97963 0.44017 0.45579 0.0
C547 C 0.99274 0.48822 0.38777 0.0
C548 C 0.97122 0.50083 0.37839 0.0
C549 C 0.97012 0.52956 0.40227 0.0
C550 C 0.99097 0.54479 0.4352 0.0
C551 C 1.012 0.53135 0.44348 0.0
N552 N 1.01249 0.50357 0.41992 0.0
H553 H 0.99373 0.46623 0.3694 0.0
H554 H 0.02826 0.54328 0.46862 0.0
C555 C 0.05791 0.4143 0.40708 0.0
N556 N 0.07444 0.44621 0.42549 0.0
C557 C 0.12469 0.43853 0.42249 0.0
C558 C 0.10853 0.40562 0.40248 0.0
C559 C 0.07446 0.39352 0.39555 0.0
C560 C 0.10717 0.45836 0.43371 0.0
H561 H 0.03199 0.40508 0.40022 0.0
H562 H 0.11995 0.4839 0.44778 0.0
C563 C 0.05928 0.53045 0.5342 0.0
C564 C 0.93854 0.44332 0.58455 0.0
N565 N 0.96509 0.52446 0.56493 0.0
C566 C 0.97447 0.54782 0.59818 0.0
C567 C 0.95714 0.56763 0.61097 0.0
C568 C 0.92954 0.56334 0.5896 0.0
C569 C 0.92136 0.53995 0.55456 0.0
C570 C 0.93941 0.52061 0.54283 0.0
C571 C 0.09619 0.52467 0.40013 0.0
O572 O 0.99156 0.46314 0.48539 0.0
O573 O 0.9967 0.43936 0.42818 0.0
O574 O 0.04797 0.50787 0.50417 0.0
O575 O 0.04188 0.53037 0.56158 0.0
O576 O 0.94109 0.43526 0.54973 0.0
O577 O 0.95913 0.47053 0.60397 0.0
O578 O 0.09937 0.5313 0.43538 0.0
O579 O 0.07176 0.49968 0.3828 0.0
H580 H 0.99456 0.55009 0.61562 0.0
H581 H 0.9319 0.50144 0.51688 0.0
H582 H 0.05109 0.40708 0.53509 0.0
H583 H 0.07548 0.47704 0.64396 0.0
H584 H 0.95542 0.48804 0.35289 0.0
H585 H 0.99151 0.56725 0.45416 0.0
H586 H 0.15085 0.44935 0.42815 0.0
H587 H 0.06065 0.3683 0.38081 0.0
H588 H 0.96488 0.58561 0.63785 0.0
H589 H 0.90021 0.5354 0.53716 0.0
Cd590 Cd 0.49101 0.98318 0.54929 0.0
Cd591 Cd 0.55536 -0.01153 0.43783 0.0
C592 C 0.54285 0.97047 0.59743 0.0
N593 N 0.52655 0.96065 0.56338 0.0
C594 C 0.54303 0.91592 0.54406 0.0
C595 C 0.55901 0.92451 0.57938 0.0
C596 C 0.5594 0.9527 0.60604 0.0
C597 C 0.52678 0.93422 0.53674 0.0
H598 H 0.54187 -0.00873 0.61839 0.0
H599 H 0.51331 0.9266 0.51012 0.0
C600 C 0.48503 0.94171 0.45315 0.0
C601 C 0.49816 -0.00291 0.39233 0.0
C602 C 0.47971 0.01365 0.385 0.0
C603 C 0.4843 0.04454 0.40883 0.0
C604 C 0.5075 0.05782 0.43958 0.0
C605 C 0.52525 0.04049 0.44583 0.0
N606 N 0.52035 0.01075 0.42244 0.0
H607 H 0.49498 0.97354 0.37386 0.0
H608 H 0.54349 0.05104 0.46911 0.0
C609 C 0.56132 0.92037 0.39185 0.0
N610 N 0.57643 0.94666 0.42153 0.0
C611 C 0.61941 0.92828 0.42549 0.0
C612 C 0.60483 0.90131 0.39415 0.0
C613 C 0.57497 0.89736 0.37787 0.0
C614 C 0.60484 0.95073 0.43865 0.0
H615 H 0.53906 0.9177 0.37818 0.0
H616 H 0.61684 0.97206 0.46178 0.0
C617 C 0.56105 0.03182 0.53522 0.0
C618 C 0.4454 0.94027 0.58317 0.0
N619 N 0.46681 0.02286 0.56513 0.0
C620 C 0.47839 0.05158 0.55659 0.0
C621 C 0.46362 0.07408 0.56875 0.0
C622 C 0.43674 0.06704 0.59 0.0
C623 C 0.4249 0.0368 0.5972 0.0
C624 C 0.44021 0.0152 0.58456 0.0
C625 C 0.6029 0.03061 0.40495 0.0
O626 O 0.49502 0.96535 0.48242 0.0
O627 O 0.50243 0.9426 0.42586 0.0
O628 O 0.552 0.00871 0.50525 0.0
O629 O 0.54308 0.02977 0.562 0.0
O630 O 0.4412 0.93641 0.54851 0.0
O631 O 0.47015 0.96435 0.60139 0.0
O632 O 0.60406 0.03625 0.44013 0.0
O633 O 0.58042 0.00477 0.38557 0.0
H634 H 0.49926 0.05724 0.54072 0.0
H635 H 0.43075 -0.00772 0.59072 0.0
H636 H 0.54251 0.89482 0.52235 0.0
H637 H 0.57114 0.96016 0.63373 0.0
H638 H 0.46198 0.00232 0.36109 0.0
H639 H 0.51254 0.08177 0.45829 0.0
H640 H 0.64254 0.93279 0.43889 0.0
H641 H 0.56233 0.87686 0.35412 0.0
H642 H 0.47368 0.09705 0.56241 0.0
H643 H 0.40383 0.02974 0.6126 0.0
H644 H 0.16401 0.13911 0.24176 0.0
H645 H 0.15728 0.0834 0.41967 0.0
H646 H 0.24899 0.1458 0.30049 0.0
H647 H 0.07513 0.03574 0.33723 0.0
H648 H 0.19083 0.10615 0.37446 0.0
H649 H 0.12992 0.09905 0.27243 0.0
C650 C 0.17546 0.1313 0.26013 0.0
C651 C 0.20911 0.14601 0.26937 0.0
C652 C 0.16557 0.09036 0.36596 0.0
C653 C 0.1708 0.10121 0.30454 0.0
C654 C 0.14641 0.07761 0.39187 0.0
C655 C 0.11351 0.0579 0.38208 0.0
C656 C 0.15154 0.08406 0.33025 0.0
C657 C 0.10054 0.05088 0.34566 0.0
C658 C 0.15609 0.10864 0.27769 0.0
C659 C 0.22298 0.13539 0.29336 0.0
N660 N 0.11951 0.06448 0.32107 0.0
N661 N 0.20373 0.11404 0.31062 0.0
H662 H 0.93413 0.21732 0.36364 0.0
H663 H 0.94669 0.06124 0.39202 0.0
H664 H 0.85778 0.12186 0.32522 0.0
H665 H 0.99892 0.15536 0.47003 0.0
H666 H 0.91639 0.08433 0.36505 0.0
H667 H 0.96073 0.19669 0.40107 0.0
C668 C 0.92289 0.19212 0.36334 0.0
C669 C 0.89387 0.17115 0.34118 0.0
C670 C 0.93421 0.09992 0.38836 0.0
C671 C 0.92406 0.14758 0.38342 0.0
C672 C 0.95149 0.08669 0.40412 0.0
C673 C 0.97516 0.10616 0.43404 0.0
C674 C 0.94099 0.13314 0.40175 0.0
C675 C 0.9811 0.13939 0.44692 0.0
C676 C 0.93793 0.18048 0.38481 0.0
C677 C 0.88005 0.13886 0.34203 0.0
N678 N 0.96422 0.15193 0.43052 0.0
N679 N 0.89549 0.12797 0.36243 0.0
H680 H 0.85001 0.76219 0.32374 0.0
H681 H 0.97864 0.9441 0.36538 0.0
H682 H 0.84364 0.82656 0.26358 0.0
H683 H 0.95066 0.89399 0.44929 0.0
H684 H 0.93789 0.89722 0.32067 0.0
H685 H 0.89654 0.80671 0.36259 0.0
C686 C 0.8586 0.78559 0.31842 0.0
C687 C 0.84277 0.79084 0.29067 0.0
C688 C 0.94093 0.89654 0.34883 0.0
C689 C 0.89592 0.8416 0.33487 0.0
C690 C 0.96417 0.92311 0.37427 0.0
C691 C 0.96789 0.92284 0.41105 0.0
C692 C 0.92185 0.86945 0.36021 0.0
C693 C 0.94845 0.89519 0.42123 0.0
C694 C 0.88503 0.81095 0.34071 0.0
C695 C 0.85499 0.82163 0.28497 0.0
N696 N 0.92627 0.8695 0.39586 0.0
N697 N 0.88091 0.84599 0.30701 0.0
H698 H 0.24401 0.90948 0.35475 0.0
H699 H 0.14723 0.94635 0.52687 0.0
H700 H 0.20326 0.8443 0.4214 0.0
H701 H 0.1956 0.01444 0.46576 0.0
H702 H 0.17824 0.9141 0.49849 0.0
H703 H 0.23649 0.95282 0.40321 0.0
C704 C 0.23379 0.90448 0.37984 0.0
C705 C 0.22373 0.87328 0.38396 0.0
C706 C 0.18279 0.93659 0.49208 0.0
C707 C 0.2149 0.92249 0.43939 0.0
C708 C 0.16514 0.95505 0.50844 0.0
C709 C 0.16828 0.98269 0.49813 0.0
C710 C 0.20343 0.94578 0.46493 0.0
C711 C 0.19217 -0.00681 0.47444 0.0
C712 C 0.2297 0.92922 0.40761 0.0
C713 C 0.21122 0.86807 0.41719 0.0
N714 N 0.20827 0.97429 0.45793 0.0
N715 N 0.2066 0.89231 0.4434 0.0
H716 H 0.11475 0.77767 0.6177 0.0
H717 H 0.11948 0.93967 0.58286 0.0
H718 H 0.18387 0.87387 0.67378 0.0
H719 H 0.04741 0.845 0.52739 0.0
H720 H 0.15036 0.91425 0.60565 0.0
H721 H 0.0961 0.80002 0.57516 0.0
C722 C 0.12626 0.80342 0.62071 0.0
C723 C 0.1504 0.82411 0.64967 0.0
C724 C 0.12809 0.8989 0.58798 0.0
C725 C 0.12936 0.84975 0.60133 0.0
C726 C 0.11058 0.91343 0.57483 0.0
C727 C 0.08083 0.89435 0.55352 0.0
C728 C 0.11531 0.86502 0.5806 0.0
C729 C 0.07031 0.8605 0.54377 0.0
C730 C 0.11563 0.81615 0.59648 0.0
C731 C 0.16461 0.85723 0.65238 0.0
N732 N 0.08723 0.84684 0.55807 0.0
N733 N 0.15367 0.86905 0.62875 0.0
H734 H 0.19312 0.20424 0.66102 0.0
H735 H 0.08519 0.01565 0.5977 0.0
H736 H 0.21379 0.13452 0.70049 0.0
H737 H 0.0727 0.08263 0.54613 0.0
H738 H 0.1358 0.058 0.6308 0.0
H739 H 0.15167 0.15981 0.61549 0.0
C740 C 0.18886 0.17955 0.66022 0.0
C741 C 0.20656 0.17303 0.68502 0.0
C742 C 0.1223 0.06348 0.61199 0.0
C743 C 0.1593 0.12209 0.63266 0.0
C744 C 0.09344 0.03936 0.5932 0.0
C745 C 0.07481 0.04612 0.56987 0.0
C746 C 0.1321 0.09476 0.60804 0.0
C747 C 0.08649 0.07681 0.56425 0.0
C748 C 0.16537 0.1542 0.63395 0.0
C749 C 0.2004 0.14063 0.68224 0.0
N750 N 0.11428 0.10033 0.58382 0.0
N751 N 0.17705 0.11632 0.6567 0.0
H752 H 0.83744 0.16128 0.56441 0.0
H753 H 0.98282 0.10865 0.53457 0.0
H754 H 0.93575 0.21987 0.61276 0.0
H755 H 0.88226 0.04582 0.50046 0.0
H756 H 0.9697 0.1554 0.53798 0.0
H757 H 0.85757 0.12803 0.51617 0.0
C758 C 0.86343 0.16804 0.56397 0.0
C759 C 0.88496 0.1925 0.59337 0.0
C760 C 0.95057 0.13137 0.52898 0.0
C761 C 0.9079 0.15403 0.53909 0.0
C762 C 0.95797 0.10471 0.52744 0.0
C763 C 0.93325 0.07354 0.51891 0.0
C764 C 0.91809 0.12688 0.52289 0.0
C765 C 0.90187 0.06957 0.5081 0.0
C766 C 0.87489 0.14886 0.53651 0.0
C767 C 0.91832 0.2004 0.59124 0.0
N768 N 0.89496 0.0961 0.51141 0.0
N769 N 0.92876 0.18058 0.56516 0.0
H770 H 0.86696 0.81858 0.73811 0.0
H771 H 0.8733 0.87621 0.55827 0.0
H772 H 0.77985 0.80082 0.67373 0.0
H773 H 0.94612 0.93065 0.65119 0.0
H774 H 0.84033 0.84308 0.59661 0.0
H775 H 0.89872 0.85549 0.703 0.0
C776 C 0.85454 0.82264 0.71684 0.0
C777 C 0.8208 0.80669 0.7088 0.0
C778 C 0.86346 0.86247 0.60854 0.0
C779 C 0.85679 0.84807 0.66836 0.0
C780 C 0.88223 0.88123 0.58671 0.0
C781 C 0.91231 0.90618 0.60169 0.0
C782 C 0.87529 0.86837 0.64516 0.0
C783 C 0.92291 0.91174 0.63868 0.0
C784 C 0.8726 0.84366 0.69691 0.0
C785 C 0.80583 0.81274 0.68095 0.0
N786 N 0.90454 0.89276 0.65909 0.0
N787 N 0.824 0.83269 0.6614 0.0
H788 H 0.30919 0.1763 0.13451 0.0
H789 H 0.41754 0.08075 0.16717 0.0
H790 H 0.32944 0.16418 0.23967 0.0
H791 H 0.39819 0.08782 0.0589 0.0
H792 H 0.3851 0.1118 0.19316 0.0
H793 H 0.3407 0.14405 0.1052 0.0
C794 C 0.32006 0.16683 0.15142 0.0
C795 C 0.31656 0.17316 0.18973 0.0
C796 C 0.38789 0.10669 0.16369 0.0
C797 C 0.35279 0.13638 0.1564 0.0
C798 C 0.40677 0.08908 0.14878 0.0
C799 C 0.4111 0.08176 0.11069 0.0
C800 C 0.3729 0.1173 0.14057 0.0
C801 C 0.39552 0.09266 0.08837 0.0
C802 C 0.3381 0.14847 0.13467 0.0
C803 C 0.33134 0.16021 0.21014 0.0
N804 N 0.37723 0.10993 0.10361 0.0
N805 N 0.34869 0.14266 0.19331 0.0
H806 H 0.86125 0.3316 0.23506 0.0
H807 H 0.8839 0.39903 0.05999 0.0
H808 H 0.77983 0.30972 0.15884 0.0
H809 H 0.951 0.44537 0.1586 0.0
H810 H 0.84629 0.36314 0.09273 0.0
H811 H 0.89575 0.37055 0.20434 0.0
C812 C 0.85061 0.33507 0.21188 0.0
C813 C 0.81766 0.31737 0.1994 0.0
C814 C 0.86916 0.38137 0.10717 0.0
C815 C 0.85711 0.36173 0.16387 0.0
C816 C 0.89063 0.40174 0.08853 0.0
C817 C 0.92062 0.42514 0.1066 0.0
C818 C 0.87805 0.38416 0.14386 0.0
C819 C 0.92814 0.42768 0.14358 0.0
C820 C 0.87029 0.3574 0.19444 0.0
C821 C 0.80512 0.32298 0.16937 0.0
N822 N 0.90714 0.40727 0.16086 0.0
N823 N 0.82497 0.34449 0.15232 0.0
H824 H 0.63339 0.79394 0.12184 0.0
H825 H 0.63195 0.96379 0.11434 0.0
H826 H 0.71987 0.88182 0.1421 0.0
H827 H 0.54747 0.87383 0.08772 0.0
H828 H 0.66432 0.93523 0.12789 0.0
H829 H 0.60128 0.82379 0.11239 0.0
C830 C 0.64564 0.81959 0.12457 0.0
C831 C 0.67944 0.83534 0.13279 0.0
C832 C 0.63868 0.92177 0.11913 0.0
C833 C 0.64273 0.86974 0.12158 0.0
C834 C 0.62018 0.9381 0.1116 0.0
C835 C 0.58701 0.92113 0.09962 0.0
C836 C 0.62386 0.88828 0.11488 0.0
C837 C 0.57307 0.88779 0.09626 0.0
C838 C 0.62728 0.8366 0.11894 0.0
C839 C 0.69395 0.86855 0.13536 0.0
N840 N 0.59154 0.8725 0.1038 0.0
N841 N 0.67553 0.88463 0.1298 0.0
H842 H 0.22165 0.704 0.12905 0.0
H843 H 0.12028 0.52041 0.01479 0.0
H844 H 0.2497 0.62494 0.12886 0.0
H845 H 0.08083 0.59263 0.0605 0.0
H846 H 0.17546 0.56268 0.03345 0.0
H847 H 0.17905 0.66722 0.07973 0.0
C848 C 0.21932 0.67907 0.11817 0.0
C849 C 0.23843 0.66718 0.13408 0.0
C850 C 0.15468 0.56932 0.03833 0.0
C851 C 0.18982 0.62519 0.07766 0.0
C852 C 0.12338 0.54537 0.02769 0.0
C853 C 0.0964 0.55331 0.03689 0.0
C854 C 0.15856 0.6012 0.05751 0.0
C855 C 0.10126 0.58571 0.05358 0.0
C856 C 0.19504 0.65815 0.08995 0.0
C857 C 0.23487 0.63488 0.1181 0.0
N858 N 0.13182 0.60851 0.06367 0.0
N859 N 0.21043 0.61472 0.09123 0.0
H860 H 0.29518 0.83245 0.85967 0.0
H861 H 0.47017 0.87655 0.93234 0.0
H862 H 0.33237 0.75928 0.85867 0.0
H863 H 0.42162 0.94154 0.97385 0.0
H864 H 0.41749 0.83134 0.91365 0.0
H865 H 0.3369 0.87075 0.90944 0.0
C866 C 0.31163 0.8242 0.87046 0.0
C867 C 0.311 0.79296 0.85412 0.0
C868 C 0.41817 0.85529 0.92766 0.0
C869 C 0.3589 0.8367 0.91072 0.0
C870 C 0.44823 0.88103 0.93819 0.0
C871 C 0.44988 0.91256 0.95404 0.0
C872 C 0.38969 0.86146 0.9317 0.0
C873 C 0.42104 0.91739 0.9614 0.0
C874 C 0.33539 0.84606 0.89901 0.0
C875 C 0.33248 0.7834 0.86974 0.0
N876 N 0.39194 0.89216 0.94917 0.0
N877 N 0.35609 0.80545 0.89654 0.0
H878 H 0.24953 0.33898 0.7759 0.0
H879 H 0.11697 0.3583 0.91858 0.0
H880 H 0.20787 0.27263 0.84107 0.0
H881 H 0.14848 0.41123 0.83778 0.0
H882 H 0.15242 0.32913 0.89486 0.0
H883 H 0.21541 0.36802 0.80255 0.0
C884 C 0.23331 0.33048 0.79595 0.0
C885 C 0.23167 0.30304 0.80597 0.0
C886 C 0.15148 0.3471 0.88232 0.0
C887 C 0.19206 0.33672 0.83706 0.0
C888 C 0.13135 0.3639 0.89597 0.0
C889 C 0.12939 0.38721 0.88006 0.0
C890 C 0.1702 0.35387 0.8528 0.0
C891 C 0.14857 0.39316 0.85062 0.0
C892 C 0.21366 0.34716 0.81118 0.0
C893 C 0.21002 0.29354 0.83233 0.0
N894 N 0.16806 0.37676 0.83814 0.0
N895 N 0.1911 0.31031 0.84694 0.0
H896 H 0.69292 0.21362 0.85549 0.0
H897 H 0.6106 0.02454 0.83676 0.0
H898 H 0.70184 0.14002 0.7617 0.0
H899 H 0.62801 0.09852 0.94161 0.0
H900 H 0.64097 0.06649 0.80747 0.0
H901 H 0.66524 0.17169 0.88604 0.0
C902 C 0.68891 0.18865 0.84124 0.0
C903 C 0.69968 0.18031 0.80597 0.0
C904 C 0.63835 0.07353 0.83694 0.0
C905 C 0.6681 0.13231 0.84076 0.0
C906 C 0.62102 0.04961 0.85368 0.0
C907 C 0.61673 0.05809 0.89167 0.0
C908 C 0.6511 0.10623 0.8582 0.0
C909 C 0.63079 0.09093 0.91225 0.0
C910 C 0.67332 0.16478 0.8588 0.0
C911 C 0.69402 0.14758 0.78892 0.0
N912 N 0.64712 0.11387 0.89518 0.0
N913 N 0.6785 0.12477 0.8064 0.0
H914 H 0.86541 0.62393 0.81538 0.0
H915 H 0.99237 0.60604 0.94461 0.0
H916 H 0.91405 0.69559 0.91849 0.0
H917 H 0.92722 0.52525 0.85768 0.0
H918 H 0.96634 0.6401 0.93255 0.0
H919 H 0.8899 0.58846 0.82768 0.0
C920 C 0.88099 0.63222 0.84074 0.0
C921 C 0.88754 0.66304 0.8659 0.0
C922 C 0.95762 0.61488 0.91618 0.0
C923 C 0.91627 0.62251 0.87972 0.0
C924 C 0.97235 0.59523 0.92323 0.0
C925 C 0.96186 0.56239 0.90247 0.0
C926 C 0.93228 0.60194 0.88785 0.0
C927 C 0.93641 0.55038 0.87429 0.0
C928 C 0.89515 0.61194 0.8476 0.0
C929 C 0.90859 0.67244 0.89787 0.0
N930 N 0.92255 0.57012 0.86781 0.0
N931 N 0.92219 0.65236 0.90376 0.0
H932 H 0.18909 0.35245 0.16188 0.0
H933 H 0.03795 0.35928 0.05977 0.0
H934 H 0.11013 0.26808 0.09499 0.0
H935 H 0.11673 0.44488 0.12496 0.0
H936 H 0.0641 0.3258 0.07331 0.0
H937 H 0.1628 0.38679 0.15017 0.0
C938 C 0.16617 0.34107 0.14489 0.0
C939 C 0.15193 0.30719 0.12932 0.0
C940 C 0.07575 0.3519 0.08468 0.0
C941 C 0.12181 0.34655 0.11552 0.0
C942 C 0.06091 0.37112 0.07673 0.0
C943 C 0.07526 0.40509 0.0909 0.0
C944 C 0.10526 0.36656 0.1071 0.0
C945 C 0.10464 0.41883 0.11357 0.0
C946 C 0.15126 0.36076 0.13806 0.0
C947 C 0.12238 0.29402 0.10712 0.0
N948 N 0.1187 0.39955 0.12086 0.0
N949 N 0.10839 0.31367 0.10093 0.0
H950 H 0.25077 0.6543 0.8062 0.0
H951 H 0.07672 0.53849 0.83876 0.0
H952 H 0.16521 0.67165 0.78749 0.0
H953 H 0.15905 0.56638 0.91655 0.0
H954 H 0.11013 0.57838 0.80819 0.0
H955 H 0.21837 0.61298 0.83596 0.0
C956 C 0.22514 0.64923 0.80816 0.0
C957 C 0.21053 0.66633 0.79453 0.0
C958 C 0.12083 0.57562 0.83186 0.0
C959 C 0.17363 0.61912 0.8277 0.0
C960 C 0.10194 0.5528 0.84916 0.0
C961 C 0.11525 0.54925 0.8802 0.0
C962 C 0.15342 0.59441 0.84516 0.0
C963 C 0.14794 0.56855 0.89276 0.0
C964 C 0.20683 0.6259 0.82526 0.0
C965 C 0.17735 0.65909 0.79791 0.0
N966 N 0.1661 0.59025 0.87496 0.0
N967 N 0.15987 0.63574 0.81387 0.0
H968 H 0.38265 0.1313 0.80683 0.0
H969 H 0.42105 0.04137 0.94218 0.0
H970 H 0.33532 0.12119 0.90667 0.0
H971 H 0.46828 0.04991 0.84197 0.0
H972 H 0.38866 0.06954 0.92857 0.0
H973 H 0.41306 0.10027 0.81792 0.0
C974 C 0.37842 0.1224 0.83095 0.0
C975 C 0.35631 0.12903 0.85587 0.0
C976 C 0.406 0.06516 0.90943 0.0
C977 C 0.39148 0.09369 0.86897 0.0
C978 C 0.42465 0.04916 0.91728 0.0
C979 C 0.44764 0.04334 0.89331 0.0
C980 C 0.41023 0.07555 0.87733 0.0
C981 C 0.45069 0.05354 0.8611 0.0
C982 C 0.39598 0.10482 0.83737 0.0
C983 C 0.35239 0.11721 0.88695 0.0
N984 N 0.43234 0.06926 0.85416 0.0
N985 N 0.36978 0.10022 0.89259 0.0
H986 H 0.82644 0.26422 0.86043 0.0
H987 H 0.92558 0.44577 0.98037 0.0
H988 H 0.79595 0.34357 0.87189 0.0
H989 H 0.96676 0.37613 0.92887 0.0
H990 H 0.87108 0.40215 0.96511 0.0
H991 H 0.86964 0.29903 0.90998 0.0
C992 C 0.8283 0.2887 0.87387 0.0
C993 C 0.80829 0.30142 0.8611 0.0
C994 C 0.89216 0.39632 0.95824 0.0
C995 C 0.8574 0.34105 0.91779 0.0
C996 C 0.92311 0.42107 0.96697 0.0
C997 C 0.95024 0.4143 0.95505 0.0
C998 C 0.88877 0.36488 0.93774 0.0
C999 C 0.94613 0.38217 0.93776 0.0
C1000 C 0.8529 0.30847 0.90223 0.0
C1001 C 0.81138 0.33305 0.88016 0.0
N1002 N 0.91583 0.35861 0.92915 0.0
N1003 N 0.83598 0.35205 0.90712 0.0
H1004 H 0.6716 0.75955 0.76977 0.0
H1005 H 0.67099 0.91421 0.93003 0.0
H1006 H 0.75364 0.8209 0.85057 0.0
H1007 H 0.59499 0.85602 0.84109 0.0
H1008 H 0.70098 0.87999 0.90382 0.0
H1009 H 0.64277 0.79363 0.79828 0.0
C1010 C 0.68364 0.78012 0.79372 0.0
C1011 C 0.71532 0.78715 0.8077 0.0
C1012 C 0.6777 0.8747 0.89015 0.0
C1013 C 0.68188 0.82688 0.84078 0.0
C1014 C 0.66053 0.89436 0.90499 0.0
C1015 C 0.63013 0.88818 0.88795 0.0
C1016 C 0.66449 0.84848 0.85797 0.0
C1017 C 0.6179 0.86164 0.85581 0.0
C1018 C 0.66703 0.79973 0.80999 0.0
C1019 C 0.72933 0.81441 0.83879 0.0
N1020 N 0.63504 0.84295 0.842 0.0
N1021 N 0.71254 0.83326 0.85426 0.0
H1022 H 0.80082 0.63592 0.21626 0.0
H1023 H 0.92286 0.60867 0.06255 0.0
H1024 H 0.83089 0.69337 0.13963 0.0
H1025 H 0.90311 0.56591 0.153 0.0
H1026 H 0.88719 0.63747 0.08672 0.0
H1027 H 0.83572 0.6078 0.18986 0.0
C1028 C 0.81461 0.6426 0.19368 0.0
C1029 C 0.8127 0.6672 0.18023 0.0
C1030 C 0.8908 0.62185 0.10128 0.0
C1031 C 0.85327 0.63463 0.14955 0.0
C1032 C 0.91106 0.60526 0.08741 0.0
C1033 C 0.91637 0.58492 0.10585 0.0
C1034 C 0.87533 0.61781 0.13361 0.0
C1035 C 0.90041 0.58169 0.13809 0.0
C1036 C 0.83475 0.62649 0.17864 0.0
C1037 C 0.83153 0.67464 0.15098 0.0
N1038 N 0.88071 0.59779 0.15075 0.0
N1039 N 0.85095 0.6584 0.13658 0.0
H1040 H 0.34331 0.8345 0.24214 0.0
H1041 H 0.40904 0.8742 0.0547 0.0
H1042 H 0.34992 0.76208 0.14538 0.0
H1043 H 0.43396 0.9471 0.16113 0.0
H1044 H 0.37986 0.8329 0.08557 0.0
H1045 H 0.37015 0.8763 0.21112 0.0
C1046 C 0.35047 0.82739 0.21443 0.0
C1047 C 0.34446 0.79475 0.19637 0.0
C1048 C 0.39162 0.85797 0.10211 0.0
C1049 C 0.37469 0.84237 0.16056 0.0
C1050 C 0.40806 0.88157 0.0845 0.0
C1051 C 0.42403 0.91412 0.1054 0.0
C1052 C 0.39079 0.86701 0.14084 0.0
C1053 C 0.42209 0.92227 0.14397 0.0
C1054 C 0.36579 0.85126 0.19677 0.0
C1055 C 0.35426 0.78696 0.16045 0.0
N1056 N 0.40577 0.89888 0.16045 0.0
N1057 N 0.3687 0.81056 0.14364 0.0
H1058 H 0.74472 0.15844 0.12952 0.0
H1059 H 0.56407 0.09169 0.04699 0.0
H1060 H 0.68643 0.2152 0.13998 0.0
H1061 H 0.6209 0.03319 0.02944 0.0
H1062 H 0.61391 0.14054 0.06467 0.0
H1063 H 0.70624 0.11665 0.07807 0.0
C1064 C 0.72439 0.16253 0.12019 0.0
C1065 C 0.7181 0.18973 0.13951 0.0
C1066 C 0.61575 0.11713 0.05628 0.0
C1067 C 0.67408 0.14227 0.08132 0.0
C1068 C 0.58728 0.08932 0.04614 0.0
C1069 C 0.5887 0.05875 0.03749 0.0
C1070 C 0.64568 0.11418 0.05923 0.0
C1071 C 0.61911 0.05661 0.03638 0.0
C1072 C 0.70237 0.13866 0.09095 0.0
C1073 C 0.6916 0.19408 0.12635 0.0
N1074 N 0.64652 0.08405 0.04819 0.0
N1075 N 0.67028 0.17034 0.09852 0.0
H1076 H 0.65769 0.63974 0.74956 0.0
H1077 H 0.65866 0.59027 0.93296 0.0
H1078 H 0.74394 0.64639 0.80558 0.0
H1079 H 0.57105 0.55112 0.85958 0.0
H1080 H 0.68988 0.61004 0.88462 0.0
H1081 H 0.62443 0.6043 0.78576 0.0
C1082 C 0.66952 0.63283 0.76857 0.0
C1083 C 0.70342 0.64621 0.77523 0.0
C1084 C 0.66386 0.59684 0.87884 0.0
C1085 C 0.66608 0.60673 0.81681 0.0
C1086 C 0.64604 0.5858 0.90658 0.0
C1087 C 0.6123 0.56929 0.90028 0.0
C1088 C 0.64777 0.59189 0.84475 0.0
C1089 C 0.59711 0.56386 0.86547 0.0
C1090 C 0.65064 0.61287 0.78936 0.0
C1091 C 0.71779 0.63692 0.80024 0.0
N1092 N 0.61494 0.57554 0.83906 0.0
N1093 N 0.69905 0.61815 0.82055 0.0
H1094 H 0.36065 0.62904 0.84187 0.0
H1095 H 0.50952 0.67166 0.98645 0.0
H1096 H 0.4449 0.71897 0.86315 0.0
H1097 H 0.44565 0.57445 0.92523 0.0
H1098 H 0.4809 0.69302 0.9523 0.0
H1099 H 0.38576 0.61263 0.88516 0.0
C1100 C 0.38429 0.64549 0.85603 0.0
C1101 C 0.40087 0.67527 0.8488 0.0
C1102 C 0.473 0.66704 0.94697 0.0
C1103 C 0.42979 0.65657 0.89807 0.0
C1104 C 0.48928 0.65485 0.96632 0.0
C1105 C 0.47951 0.62118 0.95932 0.0
C1106 C 0.44674 0.64535 0.92084 0.0
C1107 C 0.45322 0.60052 0.93279 0.0
C1108 C 0.39867 0.63605 0.88053 0.0
C1109 C 0.43159 0.69558 0.86765 0.0
N1110 N 0.43774 0.61292 0.91467 0.0
N1111 N 0.44519 0.68581 0.89145 0.0
H1112 H 0.39003 0.34293 0.75056 0.0
H1113 H 0.5144 0.39247 0.92559 0.0
H1114 H 0.37819 0.2898 0.83086 0.0
H1115 H 0.5083 0.46047 0.87172 0.0
H1116 H 0.47676 0.34784 0.87598 0.0
H1117 H 0.44445 0.37966 0.78112 0.0
C1118 C 0.3991 0.3388 0.77428 0.0
C1119 C 0.37951 0.31398 0.78895 0.0
C1120 C 0.48402 0.37252 0.87474 0.0
C1121 C 0.44138 0.35494 0.82308 0.0
C1122 C 0.50496 0.39785 0.90334 0.0
C1123 C 0.51239 0.42989 0.90385 0.0
C1124 C 0.47068 0.37962 0.84655 0.0
C1125 C 0.50227 0.43588 0.87267 0.0
C1126 C 0.43005 0.3596 0.79154 0.0
C1127 C 0.3923 0.30926 0.81939 0.0
N1128 N 0.48106 0.41091 0.84559 0.0
N1129 N 0.42237 0.32971 0.83561 0.0
H1130 H 0.65035 0.35304 0.95858 0.0
H1131 H 0.63815 0.47584 0.09456 0.0
H1132 H 0.73952 0.42173 0.93474 0.0
H1133 H 0.69368 0.53183 0.02388 0.0
H1134 H 0.66147 0.43549 0.06934 0.0
H1135 H 0.64879 0.39509 0.01339 0.0
C1136 C 0.66996 0.37682 0.96542 0.0
C1137 C 0.69485 0.38408 0.94191 0.0
C1138 C 0.66905 0.45698 0.05997 0.0
C1139 C 0.69358 0.4323 0.00481 0.0
C1140 C 0.65615 0.48028 0.07476 0.0
C1141 C 0.66273 0.50644 0.05996 0.0
C1142 C 0.68877 0.46023 0.03052 0.0
C1143 C 0.68712 0.51163 0.03543 0.0
C1144 C 0.66937 0.40075 -0.00294 0.0
C1145 C 0.71987 0.41514 0.95215 0.0
N1146 N 0.69855 0.48817 0.02062 0.0
N1147 N 0.71817 0.43833 0.98233 0.0
H1148 H 0.6658 0.31805 0.11245 0.0
H1149 H 0.49674 0.30309 0.02983 0.0
H1150 H 0.57318 0.26981 0.15053 0.0
H1151 H 0.58945 0.35505 0.9947 0.0
H1152 H 0.52346 0.28185 0.06545 0.0
H1153 H 0.63764 0.32415 0.06214 0.0
C1154 C 0.6395 0.3084 0.10997 0.0
C1155 C 0.6218 0.29364 0.13593 0.0
C1156 C 0.53793 0.29745 0.04946 0.0
C1157 C 0.58942 0.30076 0.07852 0.0
C1158 C 0.52261 0.30928 0.0287 0.0
C1159 C 0.54099 0.33121 0.00963 0.0
C1160 C 0.57187 0.30776 0.05134 0.0
C1161 C 0.5745 0.33869 0.00961 0.0
C1162 C 0.62344 0.31196 0.08128 0.0
C1163 C 0.58779 0.28189 0.13156 0.0
N1164 N 0.58896 0.32738 0.03066 0.0
N1165 N 0.57271 0.28589 0.10355 0.0
H1166 H 0.66978 0.66857 0.14131 0.0
H1167 H 0.53207 0.49493 0.10564 0.0
H1168 H 0.65384 0.61926 0.22594 0.0
H1169 H 0.52654 0.5662 0.05684 0.0
H1170 H 0.57639 0.53795 0.1502 0.0
H1171 H 0.61835 0.62869 0.10807 0.0
C1172 C 0.65536 0.64929 0.15292 0.0
C1173 C 0.66608 0.64702 0.18627 0.0
C1174 C 0.5651 0.54416 0.12998 0.0
C1175 C 0.60708 0.60126 0.14833 0.0
C1176 C 0.5398 0.51973 0.10469 0.0
C1177 C 0.52662 0.52704 0.07654 0.0
C1178 C 0.57702 0.57584 0.12683 0.0
C1179 C 0.53728 0.55939 0.07662 0.0
C1180 C 0.62587 0.6267 0.1341 0.0
C1181 C 0.64629 0.62178 0.20027 0.0
N1182 N 0.56221 0.58257 0.10094 0.0
N1183 N 0.61776 0.59947 0.18091 0.0
H1184 H 0.37804 0.62897 0.03921 0.0
H1185 H 0.4161 0.5094 0.93118 0.0
H1186 H 0.31645 0.55058 0.08057 0.0
H1187 H 0.32132 0.44124 0.94309 0.0
H1188 H 0.39885 0.55326 0.9573 0.0
H1189 H 0.37553 0.5895 0.97953 0.0
C1190 C 0.3637 0.60346 0.03551 0.0
C1191 C 0.34835 0.59277 0.06509 0.0
C1192 C 0.38124 0.52876 0.95277 0.0
C1193 C 0.34581 0.54762 -0.00245 0.0
C1194 C 0.39107 0.5033 0.93754 0.0
C1195 C 0.37061 0.47138 0.93642 0.0
C1196 C 0.35103 0.52234 0.96747 0.0
C1197 C 0.33848 0.46559 0.94514 0.0
C1198 C 0.36241 0.58094 0.00157 0.0
C1199 C 0.32959 0.55962 0.05879 0.0
N1200 N 0.33008 0.49094 0.96179 0.0
N1201 N 0.32923 0.53817 0.02588 0.0
H1202 H 0.37616 0.31351 0.23527 0.0
H1203 H 0.37071 0.35155 0.04546 0.0
H1204 H 0.28865 0.31039 0.18536 0.0
H1205 H 0.45604 0.40561 0.1232 0.0
H1206 H 0.34129 0.32934 0.09374 0.0
H1207 H 0.40761 0.34257 0.19254 0.0
C1208 C 0.36365 0.31935 0.21579 0.0
C1209 C 0.32975 0.3093 0.21363 0.0
C1210 C 0.36643 0.34616 0.10019 0.0
C1211 C 0.36523 0.34155 0.16459 0.0
C1212 C 0.38323 0.3586 0.07266 0.0
C1213 C 0.41571 0.38042 0.08054 0.0
C1214 C 0.38247 0.35511 0.1355 0.0
C1215 C 0.43089 0.38895 0.11624 0.0
C1216 C 0.38156 0.33584 0.19149 0.0
C1217 C 0.31472 0.3175 0.18792 0.0
N1218 N 0.41418 0.37601 0.14247 0.0
N1219 N 0.33252 0.33268 0.16398 0.0
H1220 H 0.82173 0.65844 0.73699 0.0
H1221 H 0.89614 0.58776 0.55291 0.0
H1222 H 0.80342 0.67103 0.63145 0.0
H1223 H 0.91391 0.58021 0.6614 0.0
H1224 H 0.86106 0.61659 0.57927 0.0
H1225 H 0.85401 0.62824 0.70802 0.0
C1226 C 0.8243 0.65478 0.70756 0.0
C1227 C 0.80967 0.66755 0.68676 0.0
C1228 C 0.87273 0.60866 0.59725 0.0
C1229 C 0.84734 0.63253 0.65302 0.0
C1230 C 0.89272 0.59206 0.5822 0.0
C1231 C 0.90845 0.58162 0.60489 0.0
C1232 C 0.86817 0.61478 0.6353 0.0
C1233 C 0.90307 0.58824 0.64275 0.0
C1234 C 0.84294 0.63743 0.69098 0.0
C1235 C 0.81413 0.66169 0.64866 0.0
N1236 N 0.88352 0.60426 0.65658 0.0
N1237 N 0.83263 0.64471 0.63304 0.0
H1238 H 0.36573 0.82546 0.73174 0.0
H1239 H 0.38514 0.89253 0.55618 0.0
H1240 H 0.28353 0.80234 0.65596 0.0
H1241 H 0.45398 0.93781 0.65327 0.0
H1242 H 0.34855 0.85591 0.58891 0.0
H1243 H 0.39973 0.86359 0.69987 0.0
C1244 C 0.35481 0.82847 0.70841 0.0
C1245 C 0.32178 0.81071 0.69643 0.0
C1246 C 0.37162 0.87401 0.60299 0.0
C1247 C 0.36067 0.85417 0.65961 0.0
C1248 C 0.39251 0.89477 0.58433 0.0
C1249 C 0.42261 0.91816 0.60205 0.0
C1250 C 0.38122 0.87648 0.6393 0.0
C1251 C 0.43099 0.92015 0.63855 0.0
C1252 C 0.37422 0.85033 0.6903 0.0
C1253 C 0.30889 0.8157 0.66614 0.0
N1254 N 0.4105 0.89945 0.65586 0.0
N1255 N 0.32847 0.83683 0.6485 0.0
H1256 H 0.22403 0.40114 0.67005 0.0
H1257 H 0.05446 0.37496 0.5731 0.0
H1258 H 0.1547 0.30796 0.60547 0.0
H1259 H 0.126 0.46919 0.63156 0.0
H1260 H 0.09004 0.35 0.58682 0.0
H1261 H 0.18758 0.42625 0.65877 0.0
C1262 C 0.20105 0.38588 0.6537 0.0
C1263 C 0.19253 0.3523 0.63869 0.0
C1264 C 0.098 0.37614 0.5967 0.0
C1265 C 0.15067 0.3811 0.62536 0.0
C1266 C 0.07773 0.39049 0.58869 0.0
C1267 C 0.08728 0.42436 0.60087 0.0
C1268 C 0.12817 0.39567 0.61719 0.0
C1269 C 0.11745 0.44301 0.62179 0.0
C1270 C 0.18032 0.40031 0.64709 0.0
C1271 C 0.16258 0.33395 0.61723 0.0
N1272 N 0.13683 0.42845 0.62916 0.0
N1273 N 0.1428 0.34856 0.61126 0.0
H1274 H 0.66399 0.21839 0.66116 0.0
H1275 H 0.62536 0.04371 0.52833 0.0
H1276 H 0.73681 0.17817 0.63304 0.0
H1277 H 0.55735 0.09024 0.54941 0.0
H1278 H 0.67008 0.09699 0.55263 0.0
H1279 H 0.6287 0.17719 0.60776 0.0
C1280 C 0.67271 0.20113 0.64341 0.0
C1281 C 0.70295 0.20112 0.65211 0.0
C1282 C 0.64545 0.09567 0.55089 0.0
C1283 C 0.66245 0.15337 0.59128 0.0
C1284 C 0.62004 0.06533 0.53685 0.0
C1285 C 0.58788 0.06286 0.53778 0.0
C1286 C 0.63823 0.12328 0.56602 0.0
C1287 C 0.58194 0.09129 0.54903 0.0
C1288 C 0.65261 0.17761 0.61279 0.0
C1289 C 0.71337 0.17866 0.62769 0.0
N1290 N 0.60683 0.12029 0.56333 0.0
N1291 N 0.69281 0.15513 0.59886 0.0
H1292 H 0.82413 0.26198 0.36073 0.0
H1293 H 0.92282 0.4461 0.47507 0.0
H1294 H 0.79567 0.34041 0.35912 0.0
H1295 H 0.96431 0.37547 0.42992 0.0
H1296 H 0.86818 0.40302 0.4562 0.0
H1297 H 0.86622 0.29923 0.41044 0.0
C1298 C 0.8262 0.28684 0.37134 0.0
C1299 C 0.80711 0.29841 0.35483 0.0
C1300 C 0.88929 0.39688 0.45153 0.0
C1301 C 0.85512 0.34092 0.41174 0.0
C1302 C 0.9203 0.42131 0.46234 0.0
C1303 C 0.94773 0.4141 0.45342 0.0
C1304 C 0.88608 0.36522 0.43231 0.0
C1305 C 0.94354 0.38185 0.43674 0.0
C1306 C 0.85021 0.30803 0.39977 0.0
C1307 C 0.81042 0.33068 0.3704 0.0
N1308 N 0.91322 0.35857 0.42638 0.0
N1309 N 0.83454 0.35106 0.39755 0.0
H1310 H 0.71817 0.77869 0.35146 0.0
H1311 H 0.60561 0.87088 0.32026 0.0
H1312 H 0.68024 0.77326 0.24453 0.0
H1313 H 0.64208 0.87934 0.42927 0.0
H1314 H 0.6321 0.834 0.29305 0.0
H1315 H 0.69006 0.81423 0.38125 0.0
C1316 C 0.70385 0.78473 0.3342 0.0
C1317 C 0.70176 0.77281 0.29527 0.0
C1318 C 0.63432 0.84379 0.32296 0.0
C1319 C 0.66953 0.81372 0.32931 0.0
C1320 C 0.61888 0.86481 0.33867 0.0
C1321 C 0.62117 0.87834 0.37738 0.0
C1322 C 0.6525 0.83593 0.34583 0.0
C1323 C 0.63968 0.86988 0.39934 0.0
C1324 C 0.68786 0.80514 0.35127 0.0
C1325 C 0.68285 0.78175 0.27454 0.0
N1326 N 0.65453 0.84928 0.38333 0.0
N1327 N 0.66766 0.80152 0.29171 0.0
H1328 H 0.26627 0.65535 0.32689 0.0
H1329 H 0.08821 0.5245 0.32852 0.0
H1330 H 0.18521 0.63598 0.25156 0.0
H1331 H 0.1571 0.57147 0.42553 0.0
H1332 H 0.12644 0.55905 0.29538 0.0
H1333 H 0.22938 0.61829 0.35879 0.0
C1334 C 0.24079 0.64309 0.31687 0.0
C1335 C 0.22874 0.6488 0.2866 0.0
C1336 C 0.13319 0.56177 0.32391 0.0
C1337 C 0.18662 0.60641 0.32278 0.0
C1338 C 0.11145 0.54201 0.34282 0.0
C1339 C 0.11948 0.54521 0.37989 0.0
C1340 C 0.16339 0.58461 0.34198 0.0
C1341 C 0.1499 0.56835 0.39703 0.0
C1342 C 0.21977 0.62214 0.33521 0.0
C1343 C 0.19549 0.63242 0.2749 0.0
N1344 N 0.17086 0.58712 0.37787 0.0
N1345 N 0.17561 0.61189 0.29294 0.0
H1346 H 0.38932 0.13957 0.30981 0.0
H1347 H 0.46018 0.08326 0.45966 0.0
H1348 H 0.39461 0.18129 0.42828 0.0
H1349 H 0.4659 0.04895 0.34177 0.0
H1350 H 0.43319 0.11681 0.44814 0.0
H1351 H 0.41412 0.10371 0.32045 0.0
C1352 C 0.39549 0.14109 0.33808 0.0
C1353 C 0.38982 0.1636 0.3682 0.0
C1354 C 0.44027 0.10192 0.42473 0.0
C1355 C 0.41848 0.12262 0.38055 0.0
C1356 C 0.45587 0.08279 0.4313 0.0
C1357 C 0.46571 0.06334 0.40169 0.0
C1358 C 0.43417 0.10165 0.38822 0.0
C1359 C 0.4586 0.06329 0.36549 0.0
C1360 C 0.40984 0.1207 0.34411 0.0
C1361 C 0.39883 0.16468 0.40417 0.0
N1362 N 0.44339 0.08221 0.3598 0.0
N1363 N 0.41262 0.14451 0.4093 0.0
H1364 H 0.68366 0.84558 0.65847 0.0
H1365 H 0.53507 0.85804 0.55805 0.0
H1366 H 0.60185 0.76288 0.59398 0.0
H1367 H 0.61599 0.94204 0.6221 0.0
H1368 H 0.55937 0.82319 0.5717 0.0
H1369 H 0.65928 0.88141 0.64678 0.0
C1370 C 0.66051 0.83487 0.64202 0.0
C1371 C 0.64491 0.80099 0.62713 0.0
C1372 C 0.5719 0.84923 0.5828 0.0
C1373 C 0.61697 0.8421 0.61331 0.0
C1374 C 0.55812 0.86925 0.57477 0.0
C1375 C 0.57363 0.90319 0.58853 0.0
C1376 C 0.60152 0.86303 0.6049 0.0
C1377 C 0.60304 0.91607 0.61096 0.0
C1378 C 0.64669 0.85542 0.63519 0.0
C1379 C 0.61514 0.78875 0.60558 0.0
N1380 N 0.61607 0.896 0.61833 0.0
N1381 N 0.60223 0.80922 0.59936 0.0
H1382 H 0.69721 0.20677 0.34494 0.0
H1383 H 0.61645 0.0199 0.33252 0.0
H1384 H 0.71302 0.13358 0.25648 0.0
H1385 H 0.63816 0.09525 0.43678 0.0
H1386 H 0.64756 0.06075 0.30196 0.0
H1387 H 0.67014 0.16564 0.37672 0.0
C1388 C 0.69482 0.18202 0.3321 0.0
C1389 C 0.70732 0.17354 0.29799 0.0
C1390 C 0.64578 0.06826 0.33158 0.0
C1391 C 0.67645 0.12653 0.33415 0.0
C1392 C 0.62807 0.04501 0.34902 0.0
C1393 C 0.62478 0.05428 0.3872 0.0
C1394 C 0.65969 0.10105 0.35235 0.0
C1395 C 0.64026 0.0871 0.4073 0.0
C1396 C 0.67962 0.15867 0.35039 0.0
C1397 C 0.70379 0.14117 0.28277 0.0
N1398 N 0.65674 0.10942 0.38953 0.0
N1399 N 0.68847 0.11877 0.30085 0.0
H1400 H 0.84249 0.63225 0.41449 0.0
H1401 H 0.95338 0.53269 0.33391 0.0
H1402 H 0.85305 0.59939 0.29762 0.0
H1403 H 0.93572 0.55927 0.44938 0.0
H1404 H 0.91762 0.55759 0.31989 0.0
H1405 H 0.87782 0.60679 0.42764 0.0
C1406 C 0.85206 0.61954 0.39151 0.0
C1407 C 0.84449 0.61789 0.35482 0.0
C1408 C 0.92158 0.55795 0.34829 0.0
C1409 C 0.88552 0.58884 0.36984 0.0
C1410 C 0.94185 0.54352 0.35631 0.0
C1411 C 0.94775 0.54388 0.39295 0.0
C1412 C 0.90703 0.57292 0.37708 0.0
C1413 C 0.93242 0.55881 0.42082 0.0
C1414 C 0.87242 0.60511 0.39909 0.0
C1415 C 0.85835 0.60163 0.32637 0.0
N1416 N 0.91287 0.57271 0.41232 0.0
N1417 N 0.8781 0.58771 0.33446 0.0
H1418 H 0.37038 0.75145 0.34522 0.0
H1419 H 0.42232 0.9333 0.46629 0.0
H1420 H 0.30745 0.8039 0.36048 0.0
H1421 H 0.48574 0.88194 0.43691 0.0
H1422 H 0.3752 0.88121 0.4471 0.0
H1423 H 0.40652 0.79287 0.39791 0.0
C1424 C 0.36392 0.77147 0.36007 0.0
C1425 C 0.33652 0.77488 0.34779 0.0
C1426 C 0.39944 0.88129 0.44589 0.0
C1427 C 0.3781 0.82274 0.40756 0.0
C1428 C 0.42621 0.91092 0.45691 0.0
C1429 C 0.45756 0.91155 0.45213 0.0
C1430 C 0.4045 0.85253 0.43015 0.0
C1431 C 0.46171 0.88222 0.44011 0.0
C1432 C 0.38451 0.79509 0.39023 0.0
C1433 C 0.32876 0.80076 0.36864 0.0
N1434 N 0.43544 0.85388 0.42899 0.0
N1435 N 0.34996 0.82425 0.39698 0.0
H1436 H 0.25499 0.32043 0.35703 0.0
H1437 H 0.09542 0.35664 0.33669 0.0
H1438 H 0.17688 0.2638 0.27015 0.0
H1439 H 0.16487 0.40671 0.4332 0.0
H1440 H 0.1263 0.32354 0.31186 0.0
H1441 H 0.22399 0.35348 0.38515 0.0
C1442 C 0.23136 0.3148 0.34394 0.0
C1443 C 0.21864 0.2891 0.31114 0.0
C1444 C 0.1348 0.34168 0.33856 0.0
C1445 C 0.18311 0.32703 0.34304 0.0
C1446 C 0.11693 0.36054 0.35302 0.0
C1447 C 0.12717 0.38461 0.38743 0.0
C1448 C 0.16349 0.34676 0.35833 0.0
C1449 C 0.15599 0.38881 0.40644 0.0
C1450 C 0.21367 0.3337 0.36001 0.0
C1451 C 0.18785 0.28315 0.29546 0.0
N1452 N 0.17309 0.37017 0.39167 0.0
N1453 N 0.17136 0.30191 0.31141 0.0
H1454 H 0.34566 0.18038 0.73795 0.0
H1455 H 0.42331 0.1083 0.55776 0.0
H1456 H 0.33745 0.20121 0.63466 0.0
H1457 H 0.41511 0.08057 0.65892 0.0
H1458 H 0.39567 0.1451 0.58474 0.0
H1459 H 0.37422 0.14652 0.70883 0.0
C1460 C 0.34987 0.178 0.70903 0.0
C1461 C 0.3389 0.19396 0.6889 0.0
C1462 C 0.39993 0.13087 0.60089 0.0
C1463 C 0.37234 0.15445 0.65483 0.0
C1464 C 0.41591 0.11001 0.58562 0.0
C1465 C 0.42138 0.0909 0.60586 0.0
C1466 C 0.38966 0.13296 0.63684 0.0
C1467 C 0.41102 0.09416 0.64181 0.0
C1468 C 0.36631 0.15841 0.69229 0.0
C1469 C 0.34535 0.18946 0.65136 0.0
N1470 N 0.3958 0.11459 0.65595 0.0
N1471 N 0.3617 0.17017 0.63554 0.0
H1472 H 0.78816 0.35613 0.71876 0.0
H1473 H 0.90764 0.37735 0.55934 0.0
H1474 H 0.83484 0.28954 0.67551 0.0
H1475 H 0.91247 0.46014 0.64966 0.0
H1476 H 0.86884 0.34162 0.59137 0.0
H1477 H 0.82239 0.39191 0.68326 0.0
C1478 C 0.80539 0.34898 0.7016 0.0
C1479 C 0.80895 0.32008 0.70021 0.0
C1480 C 0.87828 0.36764 0.60393 0.0
C1481 C 0.8472 0.3601 0.65921 0.0
C1482 C 0.90024 0.38799 0.58568 0.0
C1483 C 0.91341 0.42167 0.60208 0.0
C1484 C 0.86882 0.38115 0.63827 0.0
C1485 C 0.90306 0.43425 0.63629 0.0
C1486 C 0.82488 0.36935 0.68156 0.0
C1487 C 0.83163 0.31183 0.67762 0.0
N1488 N 0.88122 0.41397 0.65324 0.0
N1489 N 0.84973 0.33162 0.65779 0.0
H1490 H 0.24532 0.64803 0.6323 0.0
H1491 H 0.0684 0.59348 0.54952 0.0
H1492 H 0.19835 0.71356 0.63331 0.0
H1493 H 0.11958 0.52954 0.52549 0.0
H1494 H 0.12013 0.63997 0.56747 0.0
H1495 H 0.20578 0.60718 0.58125 0.0
C1496 C 0.22734 0.65416 0.62092 0.0
C1497 C 0.2243 0.68368 0.6376 0.0
C1498 C 0.12034 0.6159 0.5576 0.0
C1499 C 0.179 0.63731 0.57996 0.0
C1500 C 0.09078 0.58944 0.5474 0.0
C1501 C 0.09006 0.55798 0.53672 0.0
C1502 C 0.14925 0.61069 0.55858 0.0
C1503 C 0.11945 0.55368 0.53399 0.0
C1504 C 0.2047 0.63084 0.59189 0.0
C1505 C 0.20079 0.69062 0.62186 0.0
N1506 N 0.14799 0.5798 0.5459 0.0
N1507 N 0.17866 0.66738 0.59441 0.0
loop_
_geom_bond_atom_site_label_1
_geom_bond_atom_site_label_2
_geom_bond_distance
_geom_bond_site_symmetry_2
_ccdc_geom_bond_type
Eu0 C9 2.828 . S
Eu0 O11 2.392 . S
Eu0 O13 2.418 . S
Eu0 O18 2.373 . S
Eu0 O21 2.488 . S
Eu0 O22 2.471 . S
Eu0 O23 2.349 . S
Eu1 O10 2.373 . S
Eu1 O14 2.488 . S
Eu1 O15 2.471 . S
Eu1 O16 2.349 . S
Eu1 O19 2.392 . S
Eu1 O20 2.418 . S
Eu1 C30 2.828 . S
C2 O20 1.244 . S
C2 O23 1.265 . S
C3 C4 1.379 . S
C3 C7 1.373 . S
C3 C9 1.505 . S
C4 C3 1.379 . S
C4 C6 1.369 . S
C4 H32 0.930 . S
C5 C7 1.383 . S
C5 C8 1.382 . S
C5 H33 0.930 . S
C6 C4 1.369 . S
C6 C8 1.392 . S
C6 H34 0.930 . S
C7 C3 1.373 . S
C7 C5 1.383 . S
C7 H35 0.931 . S
C8 C5 1.382 . S
C8 C6 1.392 . S
C9 Eu0 2.828 . S
C9 C3 1.505 . S
C9 O21 1.249 . S
C9 O22 1.244 . S
O10 Eu1 2.373 . S
O10 C12 1.258 . S
O11 Eu0 2.392 . S
O11 C12 1.242 . S
C12 O10 1.258 . S
C12 O11 1.242 . S
O13 Eu0 2.418 . S
O13 C17 1.244 . S
O14 Eu1 2.488 . S
O14 C30 1.249 . S
O15 Eu1 2.471 . S
O15 C30 1.244 . S
O16 Eu1 2.349 . S
O16 C17 1.265 . S
C17 O13 1.244 . S
C17 O16 1.265 . S
O18 Eu0 2.373 . S
O18 C31 1.258 . S
O19 Eu1 2.392 . S
O19 C31 1.242 . S
O20 Eu1 2.418 . S
O20 C2 1.244 . S
O21 Eu0 2.488 . S
O21 C9 1.249 . S
O22 Eu0 2.471 . S
O22 C9 1.244 . S
O23 Eu0 2.349 . S
O23 C2 1.265 . S
C24 C25 1.379 . S
C24 C28 1.373 . S
C24 C30 1.505 . S
C25 C24 1.379 . S
C25 C27 1.369 . S
C25 H36 0.930 . S
C26 C28 1.383 . S
C26 C29 1.382 . S
C26 H37 0.930 . S
C27 C25 1.369 . S
C27 C29 1.392 . S
C27 H38 0.930 . S
C28 C24 1.373 . S
C28 C26 1.383 . S
C28 H39 0.931 . S
C29 C26 1.382 . S
C29 C27 1.392 . S
C30 Eu1 2.828 . S
C30 O14 1.249 . S
C30 O15 1.244 . S
C30 C24 1.505 . S
C31 O18 1.258 . S
C31 O19 1.242 . S
H32 C4 0.930 . S
H33 C5 0.930 . S
H34 C6 0.930 . S
H35 C7 0.931 . S
H36 C25 0.930 . S
H37 C26 0.930 . S
H38 C27 0.930 . S
H39 C28 0.931 . S
Eu40 C49 2.828 . S
Eu40 O51 2.392 . S
Eu40 O53 2.418 . S
Eu40 O58 2.373 . S
Eu40 O61 2.488 . S
Eu40 O62 2.471 . S
Eu40 O63 2.349 . S
Eu41 O50 2.373 . S
Eu41 O54 2.488 . S
Eu41 O55 2.471 . S
Eu41 O56 2.349 . S
Eu41 O59 2.392 . S
Eu41 O60 2.418 . S
Eu41 C70 2.828 . S
C42 O60 1.244 . S
C42 O63 1.265 . S
C43 C44 1.379 . S
C43 C47 1.373 . S
C43 C49 1.505 . S
C44 C43 1.379 . S
C44 C46 1.369 . S
C44 H72 0.930 . S
C45 C47 1.383 . S
C45 C48 1.382 . S
C45 H73 0.930 . S
C46 C44 1.369 . S
C46 C48 1.392 . S
C46 H74 0.930 . S
C47 C43 1.373 . S
C47 C45 1.383 . S
C47 H75 0.931 . S
C48 C45 1.382 . S
C48 C46 1.392 . S
C49 Eu40 2.828 . S
C49 C43 1.505 . S
C49 O61 1.249 . S
C49 O62 1.244 . S
O50 Eu41 2.373 . S
O50 C52 1.258 . S
O51 Eu40 2.392 . S
O51 C52 1.242 . S
C52 O50 1.258 . S
C52 O51 1.242 . S
O53 Eu40 2.418 . S
O53 C57 1.244 . S
O54 Eu41 2.488 . S
O54 C70 1.249 . S
O55 Eu41 2.471 . S
O55 C70 1.244 . S
O56 Eu41 2.349 . S
O56 C57 1.265 . S
C57 O53 1.244 . S
C57 O56 1.265 . S
O58 Eu40 2.373 . S
O58 C71 1.258 . S
O59 Eu41 2.392 . S
O59 C71 1.242 . S
O60 Eu41 2.418 . S
O60 C42 1.244 . S
O61 Eu40 2.488 . S
O61 C49 1.249 . S
O62 Eu40 2.471 . S
O62 C49 1.244 . S
O63 Eu40 2.349 . S
O63 C42 1.265 . S
C64 C65 1.379 . S
C64 C68 1.373 . S
C64 C70 1.505 . S
C65 C64 1.379 . S
C65 C67 1.369 . S
C65 H76 0.930 . S
C66 C68 1.383 . S
C66 C69 1.382 . S
C66 H77 0.930 . S
C67 C65 1.369 . S
C67 C69 1.392 . S
C67 H78 0.930 . S
C68 C64 1.373 . S
C68 C66 1.383 . S
C68 H79 0.931 . S
C69 C66 1.382 . S
C69 C67 1.392 . S
C70 Eu41 2.828 . S
C70 O54 1.249 . S
C70 O55 1.244 . S
C70 C64 1.505 . S
C71 O58 1.258 . S
C71 O59 1.242 . S
H72 C44 0.930 . S
H73 C45 0.930 . S
H74 C46 0.930 . S
H75 C47 0.931 . S
H76 C65 0.930 . S
H77 C66 0.930 . S
H78 C67 0.930 . S
H79 C68 0.931 . S
Eu80 C89 2.828 . S
Eu80 O91 2.392 . S
Eu80 O93 2.418 . S
Eu80 O98 2.373 . S
Eu80 O101 2.488 . S
Eu80 O102 2.471 . S
Eu80 O103 2.349 . S
Eu81 O90 2.373 . S
Eu81 O94 2.488 . S
Eu81 O95 2.471 . S
Eu81 O96 2.349 . S
Eu81 O99 2.392 . S
Eu81 O100 2.418 . S
Eu81 C110 2.828 . S
C82 O100 1.244 . S
C82 O103 1.265 . S
C83 C84 1.379 . S
C83 C87 1.373 . S
C83 C89 1.505 . S
C84 C83 1.379 . S
C84 C86 1.369 . S
C84 H112 0.930 . S
C85 C87 1.383 . S
C85 C88 1.382 . S
C85 H113 0.930 . S
C86 C84 1.369 . S
C86 C88 1.392 . S
C86 H114 0.930 . S
C87 C83 1.373 . S
C87 C85 1.383 . S
C87 H115 0.931 . S
C88 C85 1.382 . S
C88 C86 1.392 . S
C89 Eu80 2.828 . S
C89 C83 1.505 . S
C89 O101 1.249 . S
C89 O102 1.244 . S
O90 Eu81 2.373 . S
O90 C92 1.258 . S
O91 Eu80 2.392 . S
O91 C92 1.242 . S
C92 O90 1.258 . S
C92 O91 1.242 . S
O93 Eu80 2.418 . S
O93 C97 1.244 . S
O94 Eu81 2.488 . S
O94 C110 1.249 . S
O95 Eu81 2.471 . S
O95 C110 1.244 . S
O96 Eu81 2.349 . S
O96 C97 1.265 . S
C97 O93 1.244 . S
C97 O96 1.265 . S
O98 Eu80 2.373 . S
O98 C111 1.258 . S
O99 Eu81 2.392 . S
O99 C111 1.242 . S
O100 Eu81 2.418 . S
O100 C82 1.244 . S
O101 Eu80 2.488 . S
O101 C89 1.249 . S
O102 Eu80 2.471 . S
O102 C89 1.244 . S
O103 Eu80 2.349 . S
O103 C82 1.265 . S
C104 C105 1.379 . S
C104 C108 1.373 . S
C104 C110 1.505 . S
C105 C104 1.379 . S
C105 C107 1.369 . S
C105 H116 0.930 . S
C106 C108 1.383 . S
C106 C109 1.382 . S
C106 H117 0.930 . S
C107 C105 1.369 . S
C107 C109 1.392 . S
C107 H118 0.930 . S
C108 C104 1.373 . S
C108 C106 1.383 . S
C108 H119 0.931 . S
C109 C106 1.382 . S
C109 C107 1.392 . S
C110 Eu81 2.828 . S
C110 O94 1.249 . S
C110 O95 1.244 . S
C110 C104 1.505 . S
C111 O98 1.258 . S
C111 O99 1.242 . S
H112 C84 0.930 . S
H113 C85 0.930 . S
H114 C86 0.930 . S
H115 C87 0.931 . S
H116 C105 0.930 . S
H117 C106 0.930 . S
H118 C107 0.930 . S
H119 C108 0.931 . S
Eu120 C129 2.828 . S
Eu120 O131 2.392 . S
Eu120 O133 2.418 . S
Eu120 O138 2.373 . S
Eu120 O141 2.488 . S
Eu120 O142 2.471 . S
Eu120 O143 2.349 . S
Eu121 O130 2.373 . S
Eu121 O134 2.488 . S
Eu121 O135 2.471 . S
Eu121 O136 2.349 . S
Eu121 O139 2.392 . S
Eu121 O140 2.418 . S
Eu121 C150 2.828 . S
C122 O140 1.244 . S
C122 O143 1.265 . S
C123 C124 1.379 . S
C123 C127 1.373 . S
C123 C129 1.505 . S
C124 C123 1.379 . S
C124 C126 1.369 . S
C124 H152 0.930 . S
C125 C127 1.383 . S
C125 C128 1.382 . S
C125 H153 0.930 . S
C126 C124 1.369 . S
C126 C128 1.392 . S
C126 H154 0.930 . S
C127 C123 1.373 . S
C127 C125 1.383 . S
C127 H155 0.931 . S
C128 C125 1.382 . S
C128 C126 1.392 . S
C129 Eu120 2.828 . S
C129 C123 1.505 . S
C129 O141 1.249 . S
C129 O142 1.244 . S
O130 Eu121 2.373 . S
O130 C132 1.258 . S
O131 Eu120 2.392 . S
O131 C132 1.242 . S
C132 O130 1.258 . S
C132 O131 1.242 . S
O133 Eu120 2.418 . S
O133 C137 1.244 . S
O134 Eu121 2.488 . S
O134 C150 1.249 . S
O135 Eu121 2.471 . S
O135 C150 1.244 . S
O136 Eu121 2.349 . S
O136 C137 1.265 . S
C137 O133 1.244 . S
C137 O136 1.265 . S
O138 Eu120 2.373 . S
O138 C151 1.258 . S
O139 Eu121 2.392 . S
O139 C151 1.242 . S
O140 Eu121 2.418 . S
O140 C122 1.244 . S
O141 Eu120 2.488 . S
O141 C129 1.249 . S
O142 Eu120 2.471 . S
O142 C129 1.244 . S
O143 Eu120 2.349 . S
O143 C122 1.265 . S
C144 C145 1.379 . S
C144 C148 1.373 . S
C144 C150 1.505 . S
C145 C144 1.379 . S
C145 C147 1.369 . S
C145 H156 0.930 . S
C146 C148 1.383 . S
C146 C149 1.382 . S
C146 H157 0.930 . S
C147 C145 1.369 . S
C147 C149 1.392 . S
C147 H158 0.930 . S
C148 C144 1.373 . S
C148 C146 1.383 . S
C148 H159 0.931 . S
C149 C146 1.382 . S
C149 C147 1.392 . S
C150 Eu121 2.828 . S
C150 O134 1.249 . S
C150 O135 1.244 . S
C150 C144 1.505 . S
C151 O138 1.258 . S
C151 O139 1.242 . S
H152 C124 0.930 . S
H153 C125 0.930 . S
H154 C126 0.930 . S
H155 C127 0.931 . S
H156 C145 0.930 . S
H157 C146 0.930 . S
H158 C147 0.930 . S
H159 C148 0.931 . S
Eu160 C169 2.828 . S
Eu160 O171 2.392 . S
Eu160 O173 2.418 . S
Eu160 O178 2.373 . S
Eu160 O181 2.488 . S
Eu160 O182 2.471 . S
Eu160 O183 2.349 . S
Eu161 O170 2.373 . S
Eu161 O174 2.488 . S
Eu161 O175 2.471 . S
Eu161 O176 2.349 . S
Eu161 O179 2.392 . S
Eu161 O180 2.418 . S
Eu161 C190 2.828 . S
C162 O180 1.244 . S
C162 O183 1.265 . S
C163 C164 1.379 . S
C163 C167 1.373 . S
C163 C169 1.505 . S
C164 C163 1.379 . S
C164 C166 1.369 . S
C164 H192 0.930 . S
C165 C167 1.383 . S
C165 C168 1.382 . S
C165 H193 0.930 . S
C166 C164 1.369 . S
C166 C168 1.392 . S
C166 H194 0.930 . S
C167 C163 1.373 . S
C167 C165 1.383 . S
C167 H195 0.931 . S
C168 C165 1.382 . S
C168 C166 1.392 . S
C169 Eu160 2.828 . S
C169 C163 1.505 . S
C169 O181 1.249 . S
C169 O182 1.244 . S
O170 Eu161 2.373 . S
O170 C172 1.258 . S
O171 Eu160 2.392 . S
O171 C172 1.242 . S
C172 O170 1.258 . S
C172 O171 1.242 . S
O173 Eu160 2.418 . S
O173 C177 1.244 . S
O174 Eu161 2.488 . S
O174 C190 1.249 . S
O175 Eu161 2.471 . S
O175 C190 1.244 . S
O176 Eu161 2.349 . S
O176 C177 1.265 . S
C177 O173 1.244 . S
C177 O176 1.265 . S
O178 Eu160 2.373 . S
O178 C191 1.258 . S
O179 Eu161 2.392 . S
O179 C191 1.242 . S
O180 Eu161 2.418 . S
O180 C162 1.244 . S
O181 Eu160 2.488 . S
O181 C169 1.249 . S
O182 Eu160 2.471 . S
O182 C169 1.244 . S
O183 Eu160 2.349 . S
O183 C162 1.265 . S
C184 C185 1.379 . S
C184 C188 1.373 . S
C184 C190 1.505 . S
C185 C184 1.379 . S
C185 C187 1.369 . S
C185 H196 0.930 . S
C186 C188 1.383 . S
C186 C189 1.382 . S
C186 H197 0.930 . S
C187 C185 1.369 . S
C187 C189 1.392 . S
C187 H198 0.930 . S
C188 C184 1.373 . S
C188 C186 1.383 . S
C188 H199 0.931 . S
C189 C186 1.382 . S
C189 C187 1.392 . S
C190 Eu161 2.828 . S
C190 O174 1.249 . S
C190 O175 1.244 . S
C190 C184 1.505 . S
C191 O178 1.258 . S
C191 O179 1.242 . S
H192 C164 0.930 . S
H193 C165 0.930 . S
H194 C166 0.930 . S
H195 C167 0.931 . S
H196 C185 0.930 . S
H197 C186 0.930 . S
H198 C187 0.930 . S
H199 C188 0.931 . S
Eu200 C209 2.828 . S
Eu200 O211 2.392 . S
Eu200 O213 2.418 . S
Eu200 O218 2.373 . S
Eu200 O221 2.488 . S
Eu200 O222 2.471 . S
Eu200 O223 2.349 . S
Eu201 O210 2.373 . S
Eu201 O214 2.488 . S
Eu201 O215 2.471 . S
Eu201 O216 2.349 . S
Eu201 O219 2.392 . S
Eu201 O220 2.418 . S
Eu201 C230 2.828 . S
C202 O220 1.244 . S
C202 O223 1.265 . S
C203 C204 1.379 . S
C203 C207 1.373 . S
C203 C209 1.505 . S
C204 C203 1.379 . S
C204 C206 1.369 . S
C204 H232 0.930 . S
C205 C207 1.383 . S
C205 C208 1.382 . S
C205 H233 0.930 . S
C206 C204 1.369 . S
C206 C208 1.392 . S
C206 H234 0.930 . S
C207 C203 1.373 . S
C207 C205 1.383 . S
C207 H235 0.931 . S
C208 C205 1.382 . S
C208 C206 1.392 . S
C209 Eu200 2.828 . S
C209 C203 1.505 . S
C209 O221 1.249 . S
C209 O222 1.244 . S
O210 Eu201 2.373 . S
O210 C212 1.258 . S
O211 Eu200 2.392 . S
O211 C212 1.242 . S
C212 O210 1.258 . S
C212 O211 1.242 . S
O213 Eu200 2.418 . S
O213 C217 1.244 . S
O214 Eu201 2.488 . S
O214 C230 1.249 . S
O215 Eu201 2.471 . S
O215 C230 1.244 . S
O216 Eu201 2.349 . S
O216 C217 1.265 . S
C217 O213 1.244 . S
C217 O216 1.265 . S
O218 Eu200 2.373 . S
O218 C231 1.258 . S
O219 Eu201 2.392 . S
O219 C231 1.242 . S
O220 Eu201 2.418 . S
O220 C202 1.244 . S
O221 Eu200 2.488 . S
O221 C209 1.249 . S
O222 Eu200 2.471 . S
O222 C209 1.244 . S
O223 Eu200 2.349 . S
O223 C202 1.265 . S
C224 C225 1.379 . S
C224 C228 1.373 . S
C224 C230 1.505 . S
C225 C224 1.379 . S
C225 C227 1.369 . S
C225 H236 0.930 . S
C226 C228 1.383 . S
C226 C229 1.382 . S
C226 H237 0.930 . S
C227 C225 1.369 . S
C227 C229 1.392 . S
C227 H238 0.930 . S
C228 C224 1.373 . S
C228 C226 1.383 . S
C228 H239 0.931 . S
C229 C226 1.382 . S
C229 C227 1.392 . S
C230 Eu201 2.828 . S
C230 O214 1.249 . S
C230 O215 1.244 . S
C230 C224 1.505 . S
C231 O218 1.258 . S
C231 O219 1.242 . S
H232 C204 0.930 . S
H233 C205 0.930 . S
H234 C206 0.930 . S
H235 C207 0.931 . S
H236 C225 0.930 . S
H237 C226 0.930 . S
H238 C227 0.930 . S
H239 C228 0.931 . S
Eu240 C249 2.828 . S
Eu240 O251 2.392 . S
Eu240 O253 2.418 . S
Eu240 O258 2.373 . S
Eu240 O261 2.488 . S
Eu240 O262 2.471 . S
Eu240 O263 2.349 . S
Eu241 O250 2.373 . S
Eu241 O254 2.488 . S
Eu241 O255 2.471 . S
Eu241 O256 2.349 . S
Eu241 O259 2.392 . S
Eu241 O260 2.418 . S
Eu241 C270 2.828 . S
C242 O260 1.244 . S
C242 O263 1.265 . S
C243 C244 1.379 . S
C243 C247 1.373 . S
C243 C249 1.505 . S
C244 C243 1.379 . S
C244 C246 1.369 . S
C244 H272 0.930 . S
C245 C247 1.383 . S
C245 C248 1.382 . S
C245 H273 0.930 . S
C246 C244 1.369 . S
C246 C248 1.392 . S
C246 H274 0.930 . S
C247 C243 1.373 . S
C247 C245 1.383 . S
C247 H275 0.931 . S
C248 C245 1.382 . S
C248 C246 1.392 . S
C249 Eu240 2.828 . S
C249 C243 1.505 . S
C249 O261 1.249 . S
C249 O262 1.244 . S
O250 Eu241 2.373 . S
O250 C252 1.258 . S
O251 Eu240 2.392 . S
O251 C252 1.242 . S
C252 O250 1.258 . S
C252 O251 1.242 . S
O253 Eu240 2.418 . S
O253 C257 1.244 . S
O254 Eu241 2.488 . S
O254 C270 1.249 . S
O255 Eu241 2.471 . S
O255 C270 1.244 . S
O256 Eu241 2.349 . S
O256 C257 1.265 . S
C257 O253 1.244 . S
C257 O256 1.265 . S
O258 Eu240 2.373 . S
O258 C271 1.258 . S
O259 Eu241 2.392 . S
O259 C271 1.242 . S
O260 Eu241 2.418 . S
O260 C242 1.244 . S
O261 Eu240 2.488 . S
O261 C249 1.249 . S
O262 Eu240 2.471 . S
O262 C249 1.244 . S
O263 Eu240 2.349 . S
O263 C242 1.265 . S
C264 C265 1.379 . S
C264 C268 1.373 . S
C264 C270 1.505 . S
C265 C264 1.379 . S
C265 C267 1.369 . S
C265 H276 0.930 . S
C266 C268 1.383 . S
C266 C269 1.382 . S
C266 H277 0.930 . S
C267 C265 1.369 . S
C267 C269 1.392 . S
C267 H278 0.930 . S
C268 C264 1.373 . S
C268 C266 1.383 . S
C268 H279 0.931 . S
C269 C266 1.382 . S
C269 C267 1.392 . S
C270 Eu241 2.828 . S
C270 O254 1.249 . S
C270 O255 1.244 . S
C270 C264 1.505 . S
C271 O258 1.258 . S
C271 O259 1.242 . S
H272 C244 0.930 . S
H273 C245 0.930 . S
H274 C246 0.930 . S
H275 C247 0.931 . S
H276 C265 0.930 . S
H277 C266 0.930 . S
H278 C267 0.930 . S
H279 C268 0.931 . S
Eu280 C289 2.828 . S
Eu280 O291 2.392 . S
Eu280 O293 2.418 . S
Eu280 O298 2.373 . S
Eu280 O301 2.488 . S
Eu280 O302 2.471 . S
Eu280 O303 2.349 . S
Eu281 O290 2.373 . S
Eu281 O294 2.488 . S
Eu281 O295 2.471 . S
Eu281 O296 2.349 . S
Eu281 O299 2.392 . S
Eu281 O300 2.418 . S
Eu281 C310 2.828 . S
C282 O300 1.244 . S
C282 O303 1.265 . S
C283 C284 1.379 . S
C283 C287 1.373 . S
C283 C289 1.505 . S
C284 C283 1.379 . S
C284 C286 1.369 . S
C284 H312 0.930 . S
C285 C287 1.383 . S
C285 C288 1.382 . S
C285 H313 0.930 . S
C286 C284 1.369 . S
C286 C288 1.392 . S
C286 H314 0.930 . S
C287 C283 1.373 . S
C287 C285 1.383 . S
C287 H315 0.931 . S
C288 C285 1.382 . S
C288 C286 1.392 . S
C289 Eu280 2.828 . S
C289 C283 1.505 . S
C289 O301 1.249 . S
C289 O302 1.244 . S
O290 Eu281 2.373 . S
O290 C292 1.258 . S
O291 Eu280 2.392 . S
O291 C292 1.242 . S
C292 O290 1.258 . S
C292 O291 1.242 . S
O293 Eu280 2.418 . S
O293 C297 1.244 . S
O294 Eu281 2.488 . S
O294 C310 1.249 . S
O295 Eu281 2.471 . S
O295 C310 1.244 . S
O296 Eu281 2.349 . S
O296 C297 1.265 . S
C297 O293 1.244 . S
C297 O296 1.265 . S
O298 Eu280 2.373 . S
O298 C311 1.258 . S
O299 Eu281 2.392 . S
O299 C311 1.242 . S
O300 Eu281 2.418 . S
O300 C282 1.244 . S
O301 Eu280 2.488 . S
O301 C289 1.249 . S
O302 Eu280 2.471 . S
O302 C289 1.244 . S
O303 Eu280 2.349 . S
O303 C282 1.265 . S
C304 C305 1.379 . S
C304 C308 1.373 . S
C304 C310 1.505 . S
C305 C304 1.379 . S
C305 C307 1.369 . S
C305 H316 0.930 . S
C306 C308 1.383 . S
C306 C309 1.382 . S
C306 H317 0.930 . S
C307 C305 1.369 . S
C307 C309 1.392 . S
C307 H318 0.930 . S
C308 C304 1.373 . S
C308 C306 1.383 . S
C308 H319 0.931 . S
C309 C306 1.382 . S
C309 C307 1.392 . S
C310 Eu281 2.828 . S
C310 O294 1.249 . S
C310 O295 1.244 . S
C310 C304 1.505 . S
C311 O298 1.258 . S
C311 O299 1.242 . S
H312 C284 0.930 . S
H313 C285 0.930 . S
H314 C286 0.930 . S
H315 C287 0.931 . S
H316 C305 0.930 . S
H317 C306 0.930 . S
H318 C307 0.930 . S
H319 C308 0.931 . S
Cd320 N323 2.334 1_655 S
Cd320 N349 2.304 1_565 S
Cd320 O356 2.268 . S
Cd320 O359 2.273 1_665 S
Cd320 O360 2.417 . S
Cd320 O361 2.330 . S
Cd321 N336 2.304 1_455 S
Cd321 N340 2.334 1_545 S
Cd321 O357 2.273 1_445 S
Cd321 O358 2.268 . S
Cd321 O362 2.417 . S
Cd321 O363 2.330 . S
C322 N323 1.332 . S
C322 C326 1.381 . S
C322 H328 0.931 . S
N323 Cd320 2.334 1_455 S
N323 C322 1.332 . S
N323 C327 1.328 . S
C324 C325 1.396 . S
C324 C327 1.378 . S
C324 H366 0.931 . S
C325 C324 1.396 . S
C325 C326 1.382 . S
C326 C322 1.381 . S
C326 C325 1.382 . S
C326 H367 0.930 . S
C327 N323 1.328 . S
C327 C324 1.378 . S
C327 H329 0.930 1_455 S
H328 C322 0.931 . S
H329 C327 0.930 1_655 S
C330 O356 1.238 . S
C330 O357 1.253 . S
C331 C332 1.379 . S
C331 N336 1.337 . S
C331 H337 0.929 . S
C332 C331 1.379 . S
C332 C333 1.380 . S
C332 H368 0.929 . S
C333 C332 1.380 . S
C333 C334 1.399 . S
C334 C333 1.399 . S
C334 C335 1.376 1_655 S
C334 H369 0.931 . S
C335 C334 1.376 1_455 S
C335 N336 1.338 1_455 S
C335 H338 0.930 . S
N336 Cd321 2.304 1_655 S
N336 C331 1.337 . S
N336 C335 1.338 1_655 S
H337 C331 0.929 . S
H338 C335 0.930 . S
C339 N340 1.332 . S
C339 C343 1.381 . S
C339 H345 0.931 . S
N340 Cd321 2.334 1_565 S
N340 C339 1.332 . S
N340 C344 1.328 . S
C341 C342 1.396 . S
C341 C344 1.378 . S
C341 H370 0.931 . S
C342 C341 1.396 . S
C342 C343 1.382 . S
C343 C339 1.381 . S
C343 C342 1.382 . S
C343 H371 0.930 . S
C344 N340 1.328 . S
C344 C341 1.378 . S
C344 H346 0.930 1_565 S
H345 C339 0.931 . S
H346 C344 0.930 1_545 S
C347 O358 1.238 . S
C347 O359 1.253 . S
C348 O360 1.239 . S
C348 O361 1.230 . S
N349 Cd320 2.304 1_545 S
N349 C350 1.337 . S
N349 C354 1.338 . S
C350 N349 1.337 . S
C350 C351 1.379 . S
C350 H364 0.929 . S
C351 C350 1.379 . S
C351 C352 1.380 . S
C351 H372 0.929 . S
C352 C351 1.380 . S
C352 C353 1.399 . S
C353 C352 1.399 . S
C353 C354 1.376 . S
C353 H373 0.931 . S
C354 N349 1.338 . S
C354 C353 1.376 . S
C354 H365 0.930 1_545 S
C355 O362 1.239 . S
C355 O363 1.230 . S
O356 Cd320 2.268 . S
O356 C330 1.238 . S
O357 Cd321 2.273 1_665 S
O357 C330 1.253 . S
O358 Cd321 2.268 . S
O358 C347 1.238 . S
O359 Cd320 2.273 1_445 S
O359 C347 1.253 . S
O360 Cd320 2.417 . S
O360 C348 1.239 . S
O361 Cd320 2.330 . S
O361 C348 1.230 . S
O362 Cd321 2.417 . S
O362 C355 1.239 . S
O363 Cd321 2.330 . S
O363 C355 1.230 . S
H364 C350 0.929 . S
H365 C354 0.930 1_565 S
H366 C324 0.931 . S
H367 C326 0.930 . S
H368 C332 0.929 . S
H369 C334 0.931 . S
H370 C341 0.931 . S
H371 C343 0.930 . S
H372 C351 0.929 . S
H373 C353 0.931 . S
Cd374 N377 2.334 . S
Cd374 N403 2.304 1_565 S
Cd374 O410 2.268 1_554 S
Cd374 O413 2.273 1_565 S
Cd374 O414 2.417 . S
Cd374 O415 2.330 . S
Cd375 N390 2.304 . S
Cd375 N394 2.334 1_545 S
Cd375 O411 2.273 1_545 S
Cd375 O412 2.268 1_556 S
Cd375 O416 2.417 . S
Cd375 O417 2.330 . S
C376 N377 1.332 . S
C376 C380 1.381 . S
C376 H382 0.931 . S
N377 Cd374 2.334 . S
N377 C376 1.332 . S
N377 C381 1.328 . S
C378 C379 1.396 . S
C378 C381 1.378 . S
C378 H420 0.931 1_554 S
C379 C378 1.396 . S
C379 C380 1.382 . S
C380 C376 1.381 . S
C380 C379 1.382 . S
C380 H421 0.930 . S
C381 N377 1.328 . S
C381 C378 1.378 . S
C381 H383 0.930 1_554 S
H382 C376 0.931 . S
H383 C381 0.930 1_556 S
C384 O410 1.238 . S
C384 O411 1.253 . S
C385 C386 1.379 . S
C385 N390 1.337 . S
C385 H391 0.929 . S
C386 C385 1.379 . S
C386 C387 1.380 . S
C386 H422 0.929 . S
C387 C386 1.380 . S
C387 C388 1.411 . S
C388 C387 1.411 . S
C388 C389 1.375 . S
C388 H423 0.920 1_556 S
C389 C388 1.375 . S
C389 N390 1.338 . S
C389 H392 0.930 1_556 S
N390 Cd375 2.304 . S
N390 C385 1.337 . S
N390 C389 1.338 . S
H391 C385 0.929 . S
H392 C389 0.930 1_554 S
C393 N394 1.332 . S
C393 C397 1.381 . S
C393 H399 0.931 . S
N394 Cd375 2.334 1_565 S
N394 C393 1.332 . S
N394 C398 1.328 . S
C395 C396 1.396 . S
C395 C398 1.378 . S
C395 H424 0.926 1_556 S
C396 C395 1.396 . S
C396 C397 1.382 . S
C397 C393 1.381 . S
C397 C396 1.382 . S
C397 H425 0.930 . S
C398 N394 1.328 . S
C398 C395 1.378 . S
C398 H400 0.930 1_566 S
H399 C393 0.931 . S
H400 C398 0.930 1_544 S
C401 O412 1.238 . S
C401 O413 1.253 . S
C402 O414 1.239 . S
C402 O415 1.230 . S
N403 Cd374 2.304 1_545 S
N403 C404 1.337 . S
N403 C408 1.338 . S
C404 N403 1.337 . S
C404 C405 1.379 . S
C404 H418 0.929 . S
C405 C404 1.379 . S
C405 C406 1.380 . S
C405 H426 0.929 . S
C406 C405 1.380 . S
C406 C407 1.399 . S
C407 C406 1.399 . S
C407 C408 1.376 . S
C407 H427 0.931 1_554 S
C408 N403 1.338 . S
C408 C407 1.376 . S
C408 H419 0.930 1_544 S
C409 O416 1.239 . S
C409 O417 1.230 . S
O410 Cd374 2.268 1_556 S
O410 C384 1.238 . S
O411 Cd375 2.273 1_565 S
O411 C384 1.253 . S
O412 Cd375 2.268 1_554 S
O412 C401 1.238 . S
O413 Cd374 2.273 1_545 S
O413 C401 1.253 . S
O414 Cd374 2.417 . S
O414 C402 1.239 . S
O415 Cd374 2.330 . S
O415 C402 1.230 . S
O416 Cd375 2.417 . S
O416 C409 1.239 . S
O417 Cd375 2.330 . S
O417 C409 1.230 . S
H418 C404 0.929 . S
H419 C408 0.930 1_566 S
H420 C378 0.931 1_556 S
H421 C380 0.930 . S
H422 C386 0.929 . S
H423 C388 0.920 1_554 S
H424 C395 0.926 1_554 S
H425 C397 0.930 . S
H426 C405 0.929 . S
H427 C407 0.931 1_556 S
Cd428 N431 2.334 1_655 S
Cd428 N457 2.304 . S
Cd428 O464 2.268 1_554 S
Cd428 O467 2.273 1_655 S
Cd428 O468 2.417 . S
Cd428 O469 2.330 . S
Cd429 N444 2.304 1_455 S
Cd429 N448 2.334 . S
Cd429 O465 2.273 1_455 S
Cd429 O466 2.268 1_556 S
Cd429 O470 2.417 . S
Cd429 O471 2.330 . S
C430 N431 1.332 . S
C430 C434 1.381 . S
C430 H436 0.931 . S
N431 Cd428 2.334 1_455 S
N431 C430 1.332 . S
N431 C435 1.328 . S
C432 C433 1.396 . S
C432 C435 1.378 . S
C432 H474 0.931 1_554 S
C433 C432 1.396 . S
C433 C434 1.382 . S
C434 C430 1.381 . S
C434 C433 1.382 . S
C434 H475 0.930 . S
C435 N431 1.328 . S
C435 C432 1.378 . S
C435 H437 0.930 1_454 S
H436 C430 0.931 . S
H437 C435 0.930 1_656 S
C438 O464 1.238 . S
C438 O465 1.253 . S
C439 C440 1.379 . S
C439 N444 1.337 . S
C439 H445 0.929 . S
C440 C439 1.379 . S
C440 C441 1.380 . S
C440 H476 0.929 . S
C441 C440 1.380 . S
C441 C442 1.411 . S
C442 C441 1.411 . S
C442 C443 1.342 1_655 S
C442 H477 0.921 1_556 S
C443 C442 1.342 1_455 S
C443 N444 1.347 1_455 S
C443 H446 0.956 1_556 S
N444 Cd429 2.304 1_655 S
N444 C439 1.337 . S
N444 C443 1.347 1_655 S
H445 C439 0.929 . S
H446 C443 0.956 1_554 S
C447 N448 1.332 . S
C447 C451 1.381 . S
C447 H453 0.931 . S
N448 Cd429 2.334 . S
N448 C447 1.332 . S
N448 C452 1.328 . S
C449 C450 1.396 . S
C449 C452 1.378 . S
C449 H478 0.926 1_556 S
C450 C449 1.396 . S
C450 C451 1.382 . S
C451 C447 1.381 . S
C451 C450 1.382 . S
C451 H479 0.930 . S
C452 N448 1.328 . S
C452 C449 1.378 . S
C452 H454 0.930 1_556 S
H453 C447 0.931 . S
H454 C452 0.930 1_554 S
C455 O466 1.238 . S
C455 O467 1.253 . S
C456 O468 1.239 . S
C456 O469 1.230 . S
N457 Cd428 2.304 . S
N457 C458 1.337 . S
N457 C462 1.338 . S
C458 N457 1.337 . S
C458 C459 1.379 . S
C458 H472 0.929 . S
C459 C458 1.379 . S
C459 C460 1.380 . S
C459 H480 0.929 . S
C460 C459 1.380 . S
C460 C461 1.399 . S
C461 C460 1.399 . S
C461 C462 1.376 . S
C461 H481 0.931 1_554 S
C462 N457 1.338 . S
C462 C461 1.376 . S
C462 H473 0.930 1_554 S
C463 O470 1.239 . S
C463 O471 1.230 . S
O464 Cd428 2.268 1_556 S
O464 C438 1.238 . S
O465 Cd429 2.273 1_655 S
O465 C438 1.253 . S
O466 Cd429 2.268 1_554 S
O466 C455 1.238 . S
O467 Cd428 2.273 1_455 S
O467 C455 1.253 . S
O468 Cd428 2.417 . S
O468 C456 1.239 . S
O469 Cd428 2.330 . S
O469 C456 1.230 . S
O470 Cd429 2.417 . S
O470 C463 1.239 . S
O471 Cd429 2.330 . S
O471 C463 1.230 . S
H472 C458 0.929 . S
H473 C462 0.930 1_556 S
H474 C432 0.931 1_556 S
H475 C434 0.930 . S
H476 C440 0.929 . S
H477 C442 0.921 1_554 S
H478 C449 0.926 1_554 S
H479 C451 0.930 . S
H480 C459 0.929 . S
H481 C461 0.931 1_556 S
Cd482 N485 2.334 . S
Cd482 N511 2.304 . S
Cd482 O518 2.268 1_554 S
Cd482 O521 2.273 . S
Cd482 O522 2.417 . S
Cd482 O523 2.330 . S
Cd483 N498 2.304 . S
Cd483 N502 2.334 . S
Cd483 O519 2.273 . S
Cd483 O520 2.268 1_556 S
Cd483 O524 2.417 . S
Cd483 O525 2.330 . S
C484 N485 1.332 . S
C484 C488 1.381 . S
C484 H490 0.931 . S
N485 Cd482 2.334 . S
N485 C484 1.332 . S
N485 C489 1.328 . S
C486 C487 1.396 . S
C486 C489 1.378 . S
C486 H528 0.931 1_554 S
C487 C486 1.396 . S
C487 C488 1.382 . S
C488 C484 1.381 . S
C488 C487 1.382 . S
C488 H529 0.930 . S
C489 N485 1.328 . S
C489 C486 1.378 . S
C489 H491 0.930 1_554 S
H490 C484 0.931 . S
H491 C489 0.930 1_556 S
C492 O518 1.238 . S
C492 O519 1.253 . S
C493 C494 1.379 . S
C493 N498 1.337 . S
C493 H499 0.929 . S
C494 C493 1.379 . S
C494 C495 1.380 . S
C494 H530 0.929 . S
C495 C494 1.380 . S
C495 C496 1.410 . S
C496 C495 1.410 . S
C496 C497 1.375 . S
C496 H531 0.921 1_556 S
C497 C496 1.375 . S
C497 N498 1.338 . S
C497 H500 0.930 1_556 S
N498 Cd483 2.304 . S
N498 C493 1.337 . S
N498 C497 1.338 . S
H499 C493 0.929 . S
H500 C497 0.930 1_554 S
C501 N502 1.332 . S
C501 C505 1.381 . S
C501 H507 0.931 . S
N502 Cd483 2.334 . S
N502 C501 1.332 . S
N502 C506 1.328 . S
C503 C504 1.396 . S
C503 C506 1.378 . S
C503 H532 0.925 1_556 S
C504 C503 1.396 . S
C504 C505 1.382 . S
C505 C501 1.381 . S
C505 C504 1.382 . S
C505 H533 0.930 . S
C506 N502 1.328 . S
C506 C503 1.378 . S
C506 H508 0.930 1_556 S
H507 C501 0.931 . S
H508 C506 0.930 1_554 S
C509 O520 1.238 . S
C509 O521 1.253 . S
C510 O522 1.239 . S
C510 O523 1.230 . S
N511 Cd482 2.304 . S
N511 C512 1.337 . S
N511 C516 1.338 . S
C512 N511 1.337 . S
C512 C513 1.379 . S
C512 H526 0.929 . S
C513 C512 1.379 . S
C513 C514 1.380 . S
C513 H534 0.929 . S
C514 C513 1.380 . S
C514 C515 1.399 . S
C515 C514 1.399 . S
C515 C516 1.376 . S
C515 H535 0.909 1_554 S
C516 N511 1.338 . S
C516 C515 1.376 . S
C516 H527 0.930 1_554 S
C517 O524 1.239 . S
C517 O525 1.230 . S
O518 Cd482 2.268 1_556 S
O518 C492 1.238 . S
O519 Cd483 2.273 . S
O519 C492 1.253 . S
O520 Cd483 2.268 1_554 S
O520 C509 1.238 . S
O521 Cd482 2.273 . S
O521 C509 1.253 . S
O522 Cd482 2.417 . S
O522 C510 1.239 . S
O523 Cd482 2.330 . S
O523 C510 1.230 . S
O524 Cd483 2.417 . S
O524 C517 1.239 . S
O525 Cd483 2.330 . S
O525 C517 1.230 . S
H526 C512 0.929 . S
H527 C516 0.930 1_556 S
H528 C486 0.931 1_556 S
H529 C488 0.930 . S
H530 C494 0.929 . S
H531 C496 0.921 1_554 S
H532 C503 0.925 1_554 S
H533 C505 0.930 . S
H534 C513 0.929 . S
H535 C515 0.909 1_556 S
Cd536 N539 2.334 1_655 S
Cd536 N565 2.304 . S
Cd536 O572 2.268 . S
Cd536 O575 2.273 1_655 S
Cd536 O576 2.417 . S
Cd536 O577 2.330 . S
Cd537 N552 2.304 1_455 S
Cd537 N556 2.334 . S
Cd537 O573 2.273 1_455 S
Cd537 O574 2.268 . S
Cd537 O578 2.417 . S
Cd537 O579 2.330 . S
C538 N539 1.332 . S
C538 C542 1.381 . S
C538 H544 0.931 . S
N539 Cd536 2.334 1_455 S
N539 C538 1.332 . S
N539 C543 1.328 . S
C540 C541 1.396 . S
C540 C543 1.378 . S
C540 H582 0.931 . S
C541 C540 1.396 . S
C541 C542 1.382 . S
C542 C538 1.381 . S
C542 C541 1.382 . S
C542 H583 0.930 . S
C543 N539 1.328 . S
C543 C540 1.378 . S
C543 H545 0.930 1_455 S
H544 C538 0.931 . S
H545 C543 0.930 1_655 S
C546 O572 1.238 . S
C546 O573 1.253 . S
C547 C548 1.379 . S
C547 N552 1.337 . S
C547 H553 0.929 . S
C548 C547 1.379 . S
C548 C549 1.380 . S
C548 H584 0.929 . S
C549 C548 1.380 . S
C549 C550 1.399 . S
C550 C549 1.399 . S
C550 C551 1.342 1_655 S
C550 H585 0.931 . S
C551 C550 1.342 1_455 S
C551 N552 1.347 1_455 S
C551 H554 0.957 . S
N552 Cd537 2.304 1_655 S
N552 C547 1.337 . S
N552 C551 1.347 1_655 S
H553 C547 0.929 . S
H554 C551 0.957 . S
C555 N556 1.332 . S
C555 C559 1.381 . S
C555 H561 0.931 . S
N556 Cd537 2.334 . S
N556 C555 1.332 . S
N556 C560 1.328 . S
C557 C558 1.396 . S
C557 C560 1.378 . S
C557 H586 0.931 . S
C558 C557 1.396 . S
C558 C559 1.382 . S
C559 C555 1.381 . S
C559 C558 1.382 . S
C559 H587 0.930 . S
C560 N556 1.328 . S
C560 C557 1.378 . S
C560 H562 0.930 . S
H561 C555 0.931 . S
H562 C560 0.930 . S
C563 O574 1.238 . S
C563 O575 1.253 . S
C564 O576 1.239 . S
C564 O577 1.230 . S
N565 Cd536 2.304 . S
N565 C566 1.337 . S
N565 C570 1.338 . S
C566 N565 1.337 . S
C566 C567 1.379 . S
C566 H580 0.929 . S
C567 C566 1.379 . S
C567 C568 1.380 . S
C567 H588 0.929 . S
C568 C567 1.380 . S
C568 C569 1.399 . S
C569 C568 1.399 . S
C569 C570 1.376 . S
C569 H589 0.931 . S
C570 N565 1.338 . S
C570 C569 1.376 . S
C570 H581 0.930 . S
C571 O578 1.239 . S
C571 O579 1.230 . S
O572 Cd536 2.268 . S
O572 C546 1.238 . S
O573 Cd537 2.273 1_655 S
O573 C546 1.253 . S
O574 Cd537 2.268 . S
O574 C563 1.238 . S
O575 Cd536 2.273 1_455 S
O575 C563 1.253 . S
O576 Cd536 2.417 . S
O576 C564 1.239 . S
O577 Cd536 2.330 . S
O577 C564 1.230 . S
O578 Cd537 2.417 . S
O578 C571 1.239 . S
O579 Cd537 2.330 . S
O579 C571 1.230 . S
H580 C566 0.929 . S
H581 C570 0.930 . S
H582 C540 0.931 . S
H583 C542 0.930 . S
H584 C548 0.929 . S
H585 C550 0.931 . S
H586 C557 0.931 . S
H587 C559 0.930 . S
H588 C567 0.929 . S
H589 C569 0.931 . S
Cd590 N593 2.334 . S
Cd590 N619 2.304 1_565 S
Cd590 O626 2.268 . S
Cd590 O629 2.273 1_565 S
Cd590 O630 2.417 . S
Cd590 O631 2.330 . S
Cd591 N606 2.304 . S
Cd591 N610 2.334 1_545 S
Cd591 O627 2.273 1_545 S
Cd591 O628 2.268 . S
Cd591 O632 2.417 . S
Cd591 O633 2.330 . S
C592 N593 1.332 . S
C592 C596 1.381 . S
C592 H598 0.931 . S
N593 Cd590 2.334 . S
N593 C592 1.332 . S
N593 C597 1.328 . S
C594 C595 1.396 . S
C594 C597 1.378 . S
C594 H636 0.931 . S
C595 C594 1.396 . S
C595 C596 1.382 . S
C596 C592 1.381 . S
C596 C595 1.382 . S
C596 H637 0.930 . S
C597 N593 1.328 . S
C597 C594 1.378 . S
C597 H599 0.930 . S
H598 C592 0.931 . S
H599 C597 0.930 . S
C600 O626 1.238 . S
C600 O627 1.253 . S
C601 C602 1.379 . S
C601 N606 1.337 . S
C601 H607 0.929 . S
C602 C601 1.379 . S
C602 C603 1.380 . S
C602 H638 0.929 . S
C603 C602 1.380 . S
C603 C604 1.399 . S
C604 C603 1.399 . S
C604 C605 1.376 . S
C604 H639 0.931 . S
C605 C604 1.376 . S
C605 N606 1.338 . S
C605 H608 0.930 . S
N606 Cd591 2.304 . S
N606 C601 1.337 . S
N606 C605 1.338 . S
H607 C601 0.929 . S
H608 C605 0.930 . S
C609 N610 1.332 . S
C609 C613 1.381 . S
C609 H615 0.931 . S
N610 Cd591 2.334 1_565 S
N610 C609 1.332 . S
N610 C614 1.328 . S
C611 C612 1.396 . S
C611 C614 1.378 . S
C611 H640 0.931 . S
C612 C611 1.396 . S
C612 C613 1.382 . S
C613 C609 1.381 . S
C613 C612 1.382 . S
C613 H641 0.930 . S
C614 N610 1.328 . S
C614 C611 1.378 . S
C614 H616 0.930 1_565 S
H615 C609 0.931 . S
H616 C614 0.930 1_545 S
C617 O628 1.238 . S
C617 O629 1.253 . S
C618 O630 1.239 . S
C618 O631 1.230 . S
N619 Cd590 2.304 1_545 S
N619 C620 1.337 . S
N619 C624 1.338 . S
C620 N619 1.337 . S
C620 C621 1.379 . S
C620 H634 0.929 . S
C621 C620 1.379 . S
C621 C622 1.380 . S
C621 H642 0.929 . S
C622 C621 1.380 . S
C622 C623 1.399 . S
C623 C622 1.399 . S
C623 C624 1.376 . S
C623 H643 0.931 . S
C624 N619 1.338 . S
C624 C623 1.376 . S
C624 H635 0.930 1_545 S
C625 O632 1.239 . S
C625 O633 1.230 . S
O626 Cd590 2.268 . S
O626 C600 1.238 . S
O627 Cd591 2.273 1_565 S
O627 C600 1.253 . S
O628 Cd591 2.268 . S
O628 C617 1.238 . S
O629 Cd590 2.273 1_545 S
O629 C617 1.253 . S
O630 Cd590 2.417 . S
O630 C618 1.239 . S
O631 Cd590 2.330 . S
O631 C618 1.230 . S
O632 Cd591 2.417 . S
O632 C625 1.239 . S
O633 Cd591 2.330 . S
O633 C625 1.230 . S
H634 C620 0.929 . S
H635 C624 0.930 1_565 S
H636 C594 0.931 . S
H637 C596 0.930 . S
H638 C602 0.929 . S
H639 C604 0.931 . S
H640 C611 0.931 . S
H641 C613 0.930 . S
H642 C621 0.929 . S
H643 C623 0.931 . S
H644 C650 0.930 . S
H645 C654 0.930 . S
H646 C659 0.929 . S
H647 C657 0.929 . S
H648 C652 0.929 . S
H649 C658 0.929 . S
C650 H644 0.930 . S
C650 C651 1.367 . S
C650 C658 1.378 . S
C651 C650 1.367 . S
C651 C659 1.433 . S
C652 H648 0.929 . S
C652 C654 1.378 . S
C652 C656 1.350 . S
C653 C656 1.463 . S
C653 C658 1.350 . S
C653 N661 1.427 . S
C654 H645 0.930 . S
C654 C652 1.378 . S
C654 C655 1.367 . S
C655 C654 1.367 . S
C655 C657 1.433 . S
C656 C652 1.350 . S
C656 C653 1.463 . S
C656 N660 1.427 . S
C657 H647 0.929 . S
C657 C655 1.433 . S
C657 N660 1.384 . S
C658 H649 0.929 . S
C658 C650 1.378 . S
C658 C653 1.350 . S
C659 H646 0.929 . S
C659 C651 1.433 . S
C659 N661 1.384 . S
N660 C656 1.427 . S
N660 C657 1.384 . S
N661 C653 1.427 . S
N661 C659 1.384 . S
H662 C668 0.930 . S
H663 C672 0.930 . S
H664 C677 0.929 . S
H665 C675 0.929 . S
H666 C670 0.929 . S
H667 C676 0.929 . S
C668 H662 0.930 . S
C668 C669 1.367 . S
C668 C676 1.378 . S
C669 C668 1.367 . S
C669 C677 1.433 . S
C670 H666 0.929 . S
C670 C672 1.378 . S
C670 C674 1.350 . S
C671 C674 1.463 . S
C671 C676 1.350 . S
C671 N679 1.427 . S
C672 H663 0.930 . S
C672 C670 1.378 . S
C672 C673 1.367 . S
C673 C672 1.367 . S
C673 C675 1.433 . S
C674 C670 1.350 . S
C674 C671 1.463 . S
C674 N678 1.427 . S
C675 H665 0.929 . S
C675 C673 1.433 . S
C675 N678 1.384 . S
C676 H667 0.929 . S
C676 C668 1.378 . S
C676 C671 1.350 . S
C677 H664 0.929 . S
C677 C669 1.433 . S
C677 N679 1.384 . S
N678 C674 1.427 . S
N678 C675 1.384 . S
N679 C671 1.427 . S
N679 C677 1.384 . S
H680 C686 0.930 . S
H681 C690 0.930 . S
H682 C695 0.929 . S
H683 C693 0.929 . S
H684 C688 0.929 . S
H685 C694 0.929 . S
C686 H680 0.930 . S
C686 C687 1.367 . S
C686 C694 1.378 . S
C687 C686 1.367 . S
C687 C695 1.433 . S
C688 H684 0.929 . S
C688 C690 1.378 . S
C688 C692 1.350 . S
C689 C692 1.463 . S
C689 C694 1.350 . S
C689 N697 1.427 . S
C690 H681 0.930 . S
C690 C688 1.378 . S
C690 C691 1.367 . S
C691 C690 1.367 . S
C691 C693 1.433 . S
C692 C688 1.350 . S
C692 C689 1.463 . S
C692 N696 1.427 . S
C693 H683 0.929 . S
C693 C691 1.433 . S
C693 N696 1.384 . S
C694 H685 0.929 . S
C694 C686 1.378 . S
C694 C689 1.350 . S
C695 H682 0.929 . S
C695 C687 1.433 . S
C695 N697 1.384 . S
N696 C692 1.427 . S
N696 C693 1.384 . S
N697 C689 1.427 . S
N697 C695 1.384 . S
H698 C704 0.930 . S
H699 C708 0.930 . S
H700 C713 0.929 . S
H701 C711 0.929 . S
H702 C706 0.929 . S
H703 C712 0.929 . S
C704 H698 0.930 . S
C704 C705 1.367 . S
C704 C712 1.378 . S
C705 C704 1.367 . S
C705 C713 1.433 . S
C706 H702 0.929 . S
C706 C708 1.378 . S
C706 C710 1.350 . S
C707 C710 1.463 . S
C707 C712 1.350 . S
C707 N715 1.427 . S
C708 H699 0.930 . S
C708 C706 1.378 . S
C708 C709 1.367 . S
C709 C708 1.367 . S
C709 C711 1.433 . S
C710 C706 1.350 . S
C710 C707 1.463 . S
C710 N714 1.427 . S
C711 H701 0.929 . S
C711 C709 1.433 . S
C711 N714 1.384 . S
C712 H703 0.929 . S
C712 C704 1.378 . S
C712 C707 1.350 . S
C713 H700 0.929 . S
C713 C705 1.433 . S
C713 N715 1.384 . S
N714 C710 1.427 . S
N714 C711 1.384 . S
N715 C707 1.427 . S
N715 C713 1.384 . S
H716 C722 0.930 . S
H717 C726 0.930 . S
H718 C731 0.929 . S
H719 C729 0.929 . S
H720 C724 0.929 . S
H721 C730 0.929 . S
C722 H716 0.930 . S
C722 C723 1.367 . S
C722 C730 1.378 . S
C723 C722 1.367 . S
C723 C731 1.433 . S
C724 H720 0.929 . S
C724 C726 1.378 . S
C724 C728 1.350 . S
C725 C728 1.463 . S
C725 C730 1.350 . S
C725 N733 1.427 . S
C726 H717 0.930 . S
C726 C724 1.378 . S
C726 C727 1.367 . S
C727 C726 1.367 . S
C727 C729 1.433 . S
C728 C724 1.350 . S
C728 C725 1.463 . S
C728 N732 1.427 . S
C729 H719 0.929 . S
C729 C727 1.433 . S
C729 N732 1.384 . S
C730 H721 0.929 . S
C730 C722 1.378 . S
C730 C725 1.350 . S
C731 H718 0.929 . S
C731 C723 1.433 . S
C731 N733 1.384 . S
N732 C728 1.427 . S
N732 C729 1.384 . S
N733 C725 1.427 . S
N733 C731 1.384 . S
H734 C740 0.930 . S
H735 C744 0.930 . S
H736 C749 0.929 . S
H737 C747 0.929 . S
H738 C742 0.929 . S
H739 C748 0.929 . S
C740 H734 0.930 . S
C740 C741 1.367 . S
C740 C748 1.378 . S
C741 C740 1.367 . S
C741 C749 1.433 . S
C742 H738 0.929 . S
C742 C744 1.378 . S
C742 C746 1.350 . S
C743 C746 1.463 . S
C743 C748 1.350 . S
C743 N751 1.427 . S
C744 H735 0.930 . S
C744 C742 1.378 . S
C744 C745 1.367 . S
C745 C744 1.367 . S
C745 C747 1.433 . S
C746 C742 1.350 . S
C746 C743 1.463 . S
C746 N750 1.427 . S
C747 H737 0.929 . S
C747 C745 1.433 . S
C747 N750 1.384 . S
C748 H739 0.929 . S
C748 C740 1.378 . S
C748 C743 1.350 . S
C749 H736 0.929 . S
C749 C741 1.433 . S
C749 N751 1.384 . S
N750 C746 1.427 . S
N750 C747 1.384 . S
N751 C743 1.427 . S
N751 C749 1.384 . S
H752 C758 0.930 . S
H753 C762 0.930 . S
H754 C767 0.929 . S
H755 C765 0.929 . S
H756 C760 0.929 . S
H757 C766 0.929 . S
C758 H752 0.930 . S
C758 C759 1.367 . S
C758 C766 1.378 . S
C759 C758 1.367 . S
C759 C767 1.433 . S
C760 H756 0.929 . S
C760 C762 1.378 . S
C760 C764 1.350 . S
C761 C764 1.463 . S
C761 C766 1.350 . S
C761 N769 1.427 . S
C762 H753 0.930 . S
C762 C760 1.378 . S
C762 C763 1.367 . S
C763 C762 1.367 . S
C763 C765 1.433 . S
C764 C760 1.350 . S
C764 C761 1.463 . S
C764 N768 1.427 . S
C765 H755 0.929 . S
C765 C763 1.433 . S
C765 N768 1.384 . S
C766 H757 0.929 . S
C766 C758 1.378 . S
C766 C761 1.350 . S
C767 H754 0.929 . S
C767 C759 1.433 . S
C767 N769 1.384 . S
N768 C764 1.427 . S
N768 C765 1.384 . S
N769 C761 1.427 . S
N769 C767 1.384 . S
H770 C776 0.930 . S
H771 C780 0.930 . S
H772 C785 0.929 . S
H773 C783 0.929 . S
H774 C778 0.929 . S
H775 C784 0.929 . S
C776 H770 0.930 . S
C776 C777 1.367 . S
C776 C784 1.378 . S
C777 C776 1.367 . S
C777 C785 1.433 . S
C778 H774 0.929 . S
C778 C780 1.378 . S
C778 C782 1.350 . S
C779 C782 1.463 . S
C779 C784 1.350 . S
C779 N787 1.427 . S
C780 H771 0.930 . S
C780 C778 1.378 . S
C780 C781 1.367 . S
C781 C780 1.367 . S
C781 C783 1.433 . S
C782 C778 1.350 . S
C782 C779 1.463 . S
C782 N786 1.427 . S
C783 H773 0.929 . S
C783 C781 1.433 . S
C783 N786 1.384 . S
C784 H775 0.929 . S
C784 C776 1.378 . S
C784 C779 1.350 . S
C785 H772 0.929 . S
C785 C777 1.433 . S
C785 N787 1.384 . S
N786 C782 1.427 . S
N786 C783 1.384 . S
N787 C779 1.427 . S
N787 C785 1.384 . S
H788 C794 0.930 . S
H789 C798 0.930 . S
H790 C803 0.929 . S
H791 C801 0.929 . S
H792 C796 0.929 . S
H793 C802 0.929 . S
C794 H788 0.930 . S
C794 C795 1.367 . S
C794 C802 1.378 . S
C795 C794 1.367 . S
C795 C803 1.433 . S
C796 H792 0.929 . S
C796 C798 1.378 . S
C796 C800 1.350 . S
C797 C800 1.463 . S
C797 C802 1.350 . S
C797 N805 1.427 . S
C798 H789 0.930 . S
C798 C796 1.378 . S
C798 C799 1.367 . S
C799 C798 1.367 . S
C799 C801 1.433 . S
C800 C796 1.350 . S
C800 C797 1.463 . S
C800 N804 1.427 . S
C801 H791 0.929 . S
C801 C799 1.433 . S
C801 N804 1.384 . S
C802 H793 0.929 . S
C802 C794 1.378 . S
C802 C797 1.350 . S
C803 H790 0.929 . S
C803 C795 1.433 . S
C803 N805 1.384 . S
N804 C800 1.427 . S
N804 C801 1.384 . S
N805 C797 1.427 . S
N805 C803 1.384 . S
H806 C812 0.930 . S
H807 C816 0.930 . S
H808 C821 0.929 . S
H809 C819 0.929 . S
H810 C814 0.929 . S
H811 C820 0.929 . S
C812 H806 0.930 . S
C812 C813 1.367 . S
C812 C820 1.378 . S
C813 C812 1.367 . S
C813 C821 1.433 . S
C814 H810 0.929 . S
C814 C816 1.378 . S
C814 C818 1.350 . S
C815 C818 1.463 . S
C815 C820 1.350 . S
C815 N823 1.427 . S
C816 H807 0.930 . S
C816 C814 1.378 . S
C816 C817 1.367 . S
C817 C816 1.367 . S
C817 C819 1.433 . S
C818 C814 1.350 . S
C818 C815 1.463 . S
C818 N822 1.427 . S
C819 H809 0.929 . S
C819 C817 1.433 . S
C819 N822 1.384 . S
C820 H811 0.929 . S
C820 C812 1.378 . S
C820 C815 1.350 . S
C821 H808 0.929 . S
C821 C813 1.433 . S
C821 N823 1.384 . S
N822 C818 1.427 . S
N822 C819 1.384 . S
N823 C815 1.427 . S
N823 C821 1.384 . S
H824 C830 0.930 . S
H825 C834 0.930 . S
H826 C839 0.929 . S
H827 C837 0.929 . S
H828 C832 0.929 . S
H829 C838 0.929 . S
C830 H824 0.930 . S
C830 C831 1.367 . S
C830 C838 1.378 . S
C831 C830 1.367 . S
C831 C839 1.433 . S
C832 H828 0.929 . S
C832 C834 1.378 . S
C832 C836 1.350 . S
C833 C836 1.463 . S
C833 C838 1.350 . S
C833 N841 1.427 . S
C834 H825 0.930 . S
C834 C832 1.378 . S
C834 C835 1.367 . S
C835 C834 1.367 . S
C835 C837 1.433 . S
C836 C832 1.350 . S
C836 C833 1.463 . S
C836 N840 1.427 . S
C837 H827 0.929 . S
C837 C835 1.433 . S
C837 N840 1.384 . S
C838 H829 0.929 . S
C838 C830 1.378 . S
C838 C833 1.350 . S
C839 H826 0.929 . S
C839 C831 1.433 . S
C839 N841 1.384 . S
N840 C836 1.427 . S
N840 C837 1.384 . S
N841 C833 1.427 . S
N841 C839 1.384 . S
H842 C848 0.930 . S
H843 C852 0.930 . S
H844 C857 0.929 . S
H845 C855 0.929 . S
H846 C850 0.929 . S
H847 C856 0.929 . S
C848 H842 0.930 . S
C848 C849 1.367 . S
C848 C856 1.378 . S
C849 C848 1.367 . S
C849 C857 1.433 . S
C850 H846 0.929 . S
C850 C852 1.378 . S
C850 C854 1.350 . S
C851 C854 1.463 . S
C851 C856 1.350 . S
C851 N859 1.427 . S
C852 H843 0.930 . S
C852 C850 1.378 . S
C852 C853 1.367 . S
C853 C852 1.367 . S
C853 C855 1.433 . S
C854 C850 1.350 . S
C854 C851 1.463 . S
C854 N858 1.427 . S
C855 H845 0.929 . S
C855 C853 1.433 . S
C855 N858 1.384 . S
C856 H847 0.929 . S
C856 C848 1.378 . S
C856 C851 1.350 . S
C857 H844 0.929 . S
C857 C849 1.433 . S
C857 N859 1.384 . S
N858 C854 1.427 . S
N858 C855 1.384 . S
N859 C851 1.427 . S
N859 C857 1.384 . S
H860 C866 0.930 . S
H861 C870 0.930 . S
H862 C875 0.929 . S
H863 C873 0.929 . S
H864 C868 0.929 . S
H865 C874 0.929 . S
C866 H860 0.930 . S
C866 C867 1.367 . S
C866 C874 1.378 . S
C867 C866 1.367 . S
C867 C875 1.433 . S
C868 H864 0.929 . S
C868 C870 1.378 . S
C868 C872 1.350 . S
C869 C872 1.463 . S
C869 C874 1.350 . S
C869 N877 1.427 . S
C870 H861 0.930 . S
C870 C868 1.378 . S
C870 C871 1.367 . S
C871 C870 1.367 . S
C871 C873 1.433 . S
C872 C868 1.350 . S
C872 C869 1.463 . S
C872 N876 1.427 . S
C873 H863 0.929 . S
C873 C871 1.433 . S
C873 N876 1.384 . S
C874 H865 0.929 . S
C874 C866 1.378 . S
C874 C869 1.350 . S
C875 H862 0.929 . S
C875 C867 1.433 . S
C875 N877 1.384 . S
N876 C872 1.427 . S
N876 C873 1.384 . S
N877 C869 1.427 . S
N877 C875 1.384 . S
H878 C884 0.930 . S
H879 C888 0.930 . S
H880 C893 0.929 . S
H881 C891 0.929 . S
H882 C886 0.929 . S
H883 C892 0.929 . S
C884 H878 0.930 . S
C884 C885 1.367 . S
C884 C892 1.378 . S
C885 C884 1.367 . S
C885 C893 1.433 . S
C886 H882 0.929 . S
C886 C888 1.378 . S
C886 C890 1.350 . S
C887 C890 1.463 . S
C887 C892 1.350 . S
C887 N895 1.427 . S
C888 H879 0.930 . S
C888 C886 1.378 . S
C888 C889 1.367 . S
C889 C888 1.367 . S
C889 C891 1.433 . S
C890 C886 1.350 . S
C890 C887 1.463 . S
C890 N894 1.427 . S
C891 H881 0.929 . S
C891 C889 1.433 . S
C891 N894 1.384 . S
C892 H883 0.929 . S
C892 C884 1.378 . S
C892 C887 1.350 . S
C893 H880 0.929 . S
C893 C885 1.433 . S
C893 N895 1.384 . S
N894 C890 1.427 . S
N894 C891 1.384 . S
N895 C887 1.427 . S
N895 C893 1.384 . S
H896 C902 0.930 . S
H897 C906 0.930 . S
H898 C911 0.929 . S
H899 C909 0.929 . S
H900 C904 0.929 . S
H901 C910 0.929 . S
C902 H896 0.930 . S
C902 C903 1.367 . S
C902 C910 1.378 . S
C903 C902 1.367 . S
C903 C911 1.433 . S
C904 H900 0.929 . S
C904 C906 1.378 . S
C904 C908 1.350 . S
C905 C908 1.463 . S
C905 C910 1.350 . S
C905 N913 1.427 . S
C906 H897 0.930 . S
C906 C904 1.378 . S
C906 C907 1.367 . S
C907 C906 1.367 . S
C907 C909 1.433 . S
C908 C904 1.350 . S
C908 C905 1.463 . S
C908 N912 1.427 . S
C909 H899 0.929 . S
C909 C907 1.433 . S
C909 N912 1.384 . S
C910 H901 0.929 . S
C910 C902 1.378 . S
C910 C905 1.350 . S
C911 H898 0.929 . S
C911 C903 1.433 . S
C911 N913 1.384 . S
N912 C908 1.427 . S
N912 C909 1.384 . S
N913 C905 1.427 . S
N913 C911 1.384 . S
H914 C920 0.930 . S
H915 C924 0.930 . S
H916 C929 0.929 . S
H917 C927 0.929 . S
H918 C922 0.929 . S
H919 C928 0.929 . S
C920 H914 0.930 . S
C920 C921 1.367 . S
C920 C928 1.378 . S
C921 C920 1.367 . S
C921 C929 1.433 . S
C922 H918 0.929 . S
C922 C924 1.378 . S
C922 C926 1.350 . S
C923 C926 1.463 . S
C923 C928 1.350 . S
C923 N931 1.427 . S
C924 H915 0.930 . S
C924 C922 1.378 . S
C924 C925 1.367 . S
C925 C924 1.367 . S
C925 C927 1.433 . S
C926 C922 1.350 . S
C926 C923 1.463 . S
C926 N930 1.427 . S
C927 H917 0.929 . S
C927 C925 1.433 . S
C927 N930 1.384 . S
C928 H919 0.929 . S
C928 C920 1.378 . S
C928 C923 1.350 . S
C929 H916 0.929 . S
C929 C921 1.433 . S
C929 N931 1.384 . S
N930 C926 1.427 . S
N930 C927 1.384 . S
N931 C923 1.427 . S
N931 C929 1.384 . S
H932 C938 0.930 . S
H933 C942 0.930 . S
H934 C947 0.929 . S
H935 C945 0.929 . S
H936 C940 0.929 . S
H937 C946 0.929 . S
C938 H932 0.930 . S
C938 C939 1.367 . S
C938 C946 1.378 . S
C939 C938 1.367 . S
C939 C947 1.433 . S
C940 H936 0.929 . S
C940 C942 1.378 . S
C940 C944 1.350 . S
C941 C944 1.463 . S
C941 C946 1.350 . S
C941 N949 1.427 . S
C942 H933 0.930 . S
C942 C940 1.378 . S
C942 C943 1.367 . S
C943 C942 1.367 . S
C943 C945 1.433 . S
C944 C940 1.350 . S
C944 C941 1.463 . S
C944 N948 1.427 . S
C945 H935 0.929 . S
C945 C943 1.433 . S
C945 N948 1.384 . S
C946 H937 0.929 . S
C946 C938 1.378 . S
C946 C941 1.350 . S
C947 H934 0.929 . S
C947 C939 1.433 . S
C947 N949 1.384 . S
N948 C944 1.427 . S
N948 C945 1.384 . S
N949 C941 1.427 . S
N949 C947 1.384 . S
H950 C956 0.930 . S
H951 C960 0.930 . S
H952 C965 0.929 . S
H953 C963 0.929 . S
H954 C958 0.929 . S
H955 C964 0.929 . S
C956 H950 0.930 . S
C956 C957 1.367 . S
C956 C964 1.378 . S
C957 C956 1.367 . S
C957 C965 1.433 . S
C958 H954 0.929 . S
C958 C960 1.378 . S
C958 C962 1.350 . S
C959 C962 1.463 . S
C959 C964 1.350 . S
C959 N967 1.427 . S
C960 H951 0.930 . S
C960 C958 1.378 . S
C960 C961 1.367 . S
C961 C960 1.367 . S
C961 C963 1.433 . S
C962 C958 1.350 . S
C962 C959 1.463 . S
C962 N966 1.427 . S
C963 H953 0.929 . S
C963 C961 1.433 . S
C963 N966 1.384 . S
C964 H955 0.929 . S
C964 C956 1.378 . S
C964 C959 1.350 . S
C965 H952 0.929 . S
C965 C957 1.433 . S
C965 N967 1.384 . S
N966 C962 1.427 . S
N966 C963 1.384 . S
N967 C959 1.427 . S
N967 C965 1.384 . S
H968 C974 0.930 . S
H969 C978 0.930 1_554 S
H970 C983 0.929 . S
H971 C981 0.929 . S
H972 C976 0.929 . S
H973 C982 0.929 . S
C974 H968 0.930 . S
C974 C975 1.367 . S
C974 C982 1.378 . S
C975 C974 1.367 . S
C975 C983 1.433 . S
C976 H972 0.929 . S
C976 C978 1.378 . S
C976 C980 1.350 . S
C977 C980 1.463 . S
C977 C982 1.350 . S
C977 N985 1.427 . S
C978 H969 0.930 1_556 S
C978 C976 1.378 . S
C978 C979 1.367 . S
C979 C978 1.367 . S
C979 C981 1.433 . S
C980 C976 1.350 . S
C980 C977 1.463 . S
C980 N984 1.427 . S
C981 H971 0.929 . S
C981 C979 1.433 . S
C981 N984 1.384 . S
C982 H973 0.929 . S
C982 C974 1.378 . S
C982 C977 1.350 . S
C983 H970 0.929 . S
C983 C975 1.433 . S
C983 N985 1.384 . S
N984 C980 1.427 . S
N984 C981 1.384 . S
N985 C977 1.427 . S
N985 C983 1.384 . S
H986 C992 0.930 . S
H987 C996 0.930 . S
H988 C1001 0.929 . S
H989 C999 0.929 . S
H990 C994 0.929 . S
H991 C1000 0.929 . S
C992 H986 0.930 . S
C992 C993 1.367 . S
C992 C1000 1.378 . S
C993 C992 1.367 . S
C993 C1001 1.433 . S
C994 H990 0.929 . S
C994 C996 1.378 . S
C994 C998 1.350 . S
C995 C998 1.463 . S
C995 C1000 1.350 . S
C995 N1003 1.427 . S
C996 H987 0.930 . S
C996 C994 1.378 . S
C996 C997 1.367 . S
C997 C996 1.367 . S
C997 C999 1.433 . S
C998 C994 1.350 . S
C998 C995 1.463 . S
C998 N1002 1.427 . S
C999 H989 0.929 . S
C999 C997 1.433 . S
C999 N1002 1.384 . S
C1000 H991 0.929 . S
C1000 C992 1.378 . S
C1000 C995 1.350 . S
C1001 H988 0.929 . S
C1001 C993 1.433 . S
C1001 N1003 1.384 . S
N1002 C998 1.427 . S
N1002 C999 1.384 . S
N1003 C995 1.427 . S
N1003 C1001 1.384 . S
H1004 C1010 0.930 . S
H1005 C1014 0.930 . S
H1006 C1019 0.929 . S
H1007 C1017 0.929 . S
H1008 C1012 0.929 . S
H1009 C1018 0.929 . S
C1010 H1004 0.930 . S
C1010 C1011 1.367 . S
C1010 C1018 1.378 . S
C1011 C1010 1.367 . S
C1011 C1019 1.433 . S
C1012 H1008 0.929 . S
C1012 C1014 1.378 . S
C1012 C1016 1.350 . S
C1013 C1016 1.463 . S
C1013 C1018 1.350 . S
C1013 N1021 1.427 . S
C1014 H1005 0.930 . S
C1014 C1012 1.378 . S
C1014 C1015 1.367 . S
C1015 C1014 1.367 . S
C1015 C1017 1.433 . S
C1016 C1012 1.350 . S
C1016 C1013 1.463 . S
C1016 N1020 1.427 . S
C1017 H1007 0.929 . S
C1017 C1015 1.433 . S
C1017 N1020 1.384 . S
C1018 H1009 0.929 . S
C1018 C1010 1.378 . S
C1018 C1013 1.350 . S
C1019 H1006 0.929 . S
C1019 C1011 1.433 . S
C1019 N1021 1.384 . S
N1020 C1016 1.427 . S
N1020 C1017 1.384 . S
N1021 C1013 1.427 . S
N1021 C1019 1.384 . S
H1022 C1028 0.930 . S
H1023 C1032 0.930 . S
H1024 C1037 0.929 . S
H1025 C1035 0.929 . S
H1026 C1030 0.929 . S
H1027 C1036 0.929 . S
C1028 H1022 0.930 . S
C1028 C1029 1.367 . S
C1028 C1036 1.378 . S
C1029 C1028 1.367 . S
C1029 C1037 1.433 . S
C1030 H1026 0.929 . S
C1030 C1032 1.378 . S
C1030 C1034 1.350 . S
C1031 C1034 1.463 . S
C1031 C1036 1.350 . S
C1031 N1039 1.427 . S
C1032 H1023 0.930 . S
C1032 C1030 1.378 . S
C1032 C1033 1.367 . S
C1033 C1032 1.367 . S
C1033 C1035 1.433 . S
C1034 C1030 1.350 . S
C1034 C1031 1.463 . S
C1034 N1038 1.427 . S
C1035 H1025 0.929 . S
C1035 C1033 1.433 . S
C1035 N1038 1.384 . S
C1036 H1027 0.929 . S
C1036 C1028 1.378 . S
C1036 C1031 1.350 . S
C1037 H1024 0.929 . S
C1037 C1029 1.433 . S
C1037 N1039 1.384 . S
N1038 C1034 1.427 . S
N1038 C1035 1.384 . S
N1039 C1031 1.427 . S
N1039 C1037 1.384 . S
H1040 C1046 0.930 . S
H1041 C1050 0.930 . S
H1042 C1055 0.929 . S
H1043 C1053 0.929 . S
H1044 C1048 0.929 . S
H1045 C1054 0.929 . S
C1046 H1040 0.930 . S
C1046 C1047 1.367 . S
C1046 C1054 1.378 . S
C1047 C1046 1.367 . S
C1047 C1055 1.433 . S
C1048 H1044 0.929 . S
C1048 C1050 1.378 . S
C1048 C1052 1.350 . S
C1049 C1052 1.463 . S
C1049 C1054 1.350 . S
C1049 N1057 1.427 . S
C1050 H1041 0.930 . S
C1050 C1048 1.378 . S
C1050 C1051 1.367 . S
C1051 C1050 1.367 . S
C1051 C1053 1.433 . S
C1052 C1048 1.350 . S
C1052 C1049 1.463 . S
C1052 N1056 1.427 . S
C1053 H1043 0.929 . S
C1053 C1051 1.433 . S
C1053 N1056 1.384 . S
C1054 H1045 0.929 . S
C1054 C1046 1.378 . S
C1054 C1049 1.350 . S
C1055 H1042 0.929 . S
C1055 C1047 1.433 . S
C1055 N1057 1.384 . S
N1056 C1052 1.427 . S
N1056 C1053 1.384 . S
N1057 C1049 1.427 . S
N1057 C1055 1.384 . S
H1058 C1064 0.930 . S
H1059 C1068 0.930 . S
H1060 C1073 0.929 . S
H1061 C1071 0.929 . S
H1062 C1066 0.929 . S
H1063 C1072 0.929 . S
C1064 H1058 0.930 . S
C1064 C1065 1.367 . S
C1064 C1072 1.378 . S
C1065 C1064 1.367 . S
C1065 C1073 1.433 . S
C1066 H1062 0.929 . S
C1066 C1068 1.378 . S
C1066 C1070 1.350 . S
C1067 C1070 1.463 . S
C1067 C1072 1.350 . S
C1067 N1075 1.427 . S
C1068 H1059 0.930 . S
C1068 C1066 1.378 . S
C1068 C1069 1.367 . S
C1069 C1068 1.367 . S
C1069 C1071 1.433 . S
C1070 C1066 1.350 . S
C1070 C1067 1.463 . S
C1070 N1074 1.427 . S
C1071 H1061 0.929 . S
C1071 C1069 1.433 . S
C1071 N1074 1.384 . S
C1072 H1063 0.929 . S
C1072 C1064 1.378 . S
C1072 C1067 1.350 . S
C1073 H1060 0.929 . S
C1073 C1065 1.433 . S
C1073 N1075 1.384 . S
N1074 C1070 1.427 . S
N1074 C1071 1.384 . S
N1075 C1067 1.427 . S
N1075 C1073 1.384 . S
H1076 C1082 0.930 . S
H1077 C1086 0.930 . S
H1078 C1091 0.929 . S
H1079 C1089 0.929 . S
H1080 C1084 0.929 . S
H1081 C1090 0.929 . S
C1082 H1076 0.930 . S
C1082 C1083 1.367 . S
C1082 C1090 1.378 . S
C1083 C1082 1.367 . S
C1083 C1091 1.433 . S
C1084 H1080 0.929 . S
C1084 C1086 1.378 . S
C1084 C1088 1.350 . S
C1085 C1088 1.463 . S
C1085 C1090 1.350 . S
C1085 N1093 1.427 . S
C1086 H1077 0.930 . S
C1086 C1084 1.378 . S
C1086 C1087 1.367 . S
C1087 C1086 1.367 . S
C1087 C1089 1.433 . S
C1088 C1084 1.350 . S
C1088 C1085 1.463 . S
C1088 N1092 1.427 . S
C1089 H1079 0.929 . S
C1089 C1087 1.433 . S
C1089 N1092 1.384 . S
C1090 H1081 0.929 . S
C1090 C1082 1.378 . S
C1090 C1085 1.350 . S
C1091 H1078 0.929 . S
C1091 C1083 1.433 . S
C1091 N1093 1.384 . S
N1092 C1088 1.427 . S
N1092 C1089 1.384 . S
N1093 C1085 1.427 . S
N1093 C1091 1.384 . S
H1094 C1100 0.930 . S
H1095 C1104 0.930 1_554 S
H1096 C1109 0.929 . S
H1097 C1107 0.929 . S
H1098 C1102 0.929 . S
H1099 C1108 0.929 . S
C1100 H1094 0.930 . S
C1100 C1101 1.367 . S
C1100 C1108 1.378 . S
C1101 C1100 1.367 . S
C1101 C1109 1.433 . S
C1102 H1098 0.929 . S
C1102 C1104 1.378 . S
C1102 C1106 1.350 . S
C1103 C1106 1.463 . S
C1103 C1108 1.350 . S
C1103 N1111 1.427 . S
C1104 H1095 0.930 1_556 S
C1104 C1102 1.378 . S
C1104 C1105 1.367 . S
C1105 C1104 1.367 . S
C1105 C1107 1.433 . S
C1106 C1102 1.350 . S
C1106 C1103 1.463 . S
C1106 N1110 1.427 . S
C1107 H1097 0.929 . S
C1107 C1105 1.433 . S
C1107 N1110 1.384 . S
C1108 H1099 0.929 . S
C1108 C1100 1.378 . S
C1108 C1103 1.350 . S
C1109 H1096 0.929 . S
C1109 C1101 1.433 . S
C1109 N1111 1.384 . S
N1110 C1106 1.427 . S
N1110 C1107 1.384 . S
N1111 C1103 1.427 . S
N1111 C1109 1.384 . S
H1112 C1118 0.930 . S
H1113 C1122 0.930 . S
H1114 C1127 0.929 . S
H1115 C1125 0.929 . S
H1116 C1120 0.929 . S
H1117 C1126 0.929 . S
C1118 H1112 0.930 . S
C1118 C1119 1.367 . S
C1118 C1126 1.378 . S
C1119 C1118 1.367 . S
C1119 C1127 1.433 . S
C1120 H1116 0.929 . S
C1120 C1122 1.378 . S
C1120 C1124 1.350 . S
C1121 C1124 1.463 . S
C1121 C1126 1.350 . S
C1121 N1129 1.427 . S
C1122 H1113 0.930 . S
C1122 C1120 1.378 . S
C1122 C1123 1.367 . S
C1123 C1122 1.367 . S
C1123 C1125 1.433 . S
C1124 C1120 1.350 . S
C1124 C1121 1.463 . S
C1124 N1128 1.427 . S
C1125 H1115 0.929 . S
C1125 C1123 1.433 . S
C1125 N1128 1.384 . S
C1126 H1117 0.929 . S
C1126 C1118 1.378 . S
C1126 C1121 1.350 . S
C1127 H1114 0.929 . S
C1127 C1119 1.433 . S
C1127 N1129 1.384 . S
N1128 C1124 1.427 . S
N1128 C1125 1.384 . S
N1129 C1121 1.427 . S
N1129 C1127 1.384 . S
H1130 C1136 0.930 . S
H1131 C1140 0.930 . S
H1132 C1145 0.929 . S
H1133 C1143 0.929 . S
H1134 C1138 0.929 . S
H1135 C1144 0.929 . S
C1136 H1130 0.930 . S
C1136 C1137 1.367 . S
C1136 C1144 1.378 . S
C1137 C1136 1.367 . S
C1137 C1145 1.433 . S
C1138 H1134 0.929 . S
C1138 C1140 1.378 . S
C1138 C1142 1.350 . S
C1139 C1142 1.463 . S
C1139 C1144 1.350 . S
C1139 N1147 1.427 . S
C1140 H1131 0.930 . S
C1140 C1138 1.378 . S
C1140 C1141 1.367 . S
C1141 C1140 1.367 . S
C1141 C1143 1.433 . S
C1142 C1138 1.350 . S
C1142 C1139 1.463 . S
C1142 N1146 1.427 . S
C1143 H1133 0.929 . S
C1143 C1141 1.433 . S
C1143 N1146 1.384 . S
C1144 H1135 0.929 . S
C1144 C1136 1.378 . S
C1144 C1139 1.350 . S
C1145 H1132 0.929 . S
C1145 C1137 1.433 . S
C1145 N1147 1.384 . S
N1146 C1142 1.427 . S
N1146 C1143 1.384 . S
N1147 C1139 1.427 . S
N1147 C1145 1.384 . S
H1148 C1154 0.930 . S
H1149 C1158 0.930 . S
H1150 C1163 0.929 . S
H1151 C1161 0.929 . S
H1152 C1156 0.929 . S
H1153 C1162 0.929 . S
C1154 H1148 0.930 . S
C1154 C1155 1.367 . S
C1154 C1162 1.378 . S
C1155 C1154 1.367 . S
C1155 C1163 1.433 . S
C1156 H1152 0.929 . S
C1156 C1158 1.378 . S
C1156 C1160 1.350 . S
C1157 C1160 1.463 . S
C1157 C1162 1.350 . S
C1157 N1165 1.427 . S
C1158 H1149 0.930 . S
C1158 C1156 1.378 . S
C1158 C1159 1.367 . S
C1159 C1158 1.367 . S
C1159 C1161 1.433 . S
C1160 C1156 1.350 . S
C1160 C1157 1.463 . S
C1160 N1164 1.427 . S
C1161 H1151 0.929 . S
C1161 C1159 1.433 . S
C1161 N1164 1.384 . S
C1162 H1153 0.929 . S
C1162 C1154 1.378 . S
C1162 C1157 1.350 . S
C1163 H1150 0.929 . S
C1163 C1155 1.433 . S
C1163 N1165 1.384 . S
N1164 C1160 1.427 . S
N1164 C1161 1.384 . S
N1165 C1157 1.427 . S
N1165 C1163 1.384 . S
H1166 C1172 0.930 . S
H1167 C1176 0.930 . S
H1168 C1181 0.929 . S
H1169 C1179 0.929 . S
H1170 C1174 0.929 . S
H1171 C1180 0.929 . S
C1172 H1166 0.930 . S
C1172 C1173 1.367 . S
C1172 C1180 1.378 . S
C1173 C1172 1.367 . S
C1173 C1181 1.433 . S
C1174 H1170 0.929 . S
C1174 C1176 1.378 . S
C1174 C1178 1.350 . S
C1175 C1178 1.463 . S
C1175 C1180 1.350 . S
C1175 N1183 1.427 . S
C1176 H1167 0.930 . S
C1176 C1174 1.378 . S
C1176 C1177 1.367 . S
C1177 C1176 1.367 . S
C1177 C1179 1.433 . S
C1178 C1174 1.350 . S
C1178 C1175 1.463 . S
C1178 N1182 1.427 . S
C1179 H1169 0.929 . S
C1179 C1177 1.433 . S
C1179 N1182 1.384 . S
C1180 H1171 0.929 . S
C1180 C1172 1.378 . S
C1180 C1175 1.350 . S
C1181 H1168 0.929 . S
C1181 C1173 1.433 . S
C1181 N1183 1.384 . S
N1182 C1178 1.427 . S
N1182 C1179 1.384 . S
N1183 C1175 1.427 . S
N1183 C1181 1.384 . S
H1184 C1190 0.930 . S
H1185 C1194 0.930 1_556 S
H1186 C1199 0.929 . S
H1187 C1197 0.929 . S
H1188 C1192 0.929 . S
H1189 C1198 0.929 . S
C1190 H1184 0.930 . S
C1190 C1191 1.367 . S
C1190 C1198 1.378 . S
C1191 C1190 1.367 . S
C1191 C1199 1.433 . S
C1192 H1188 0.929 . S
C1192 C1194 1.378 . S
C1192 C1196 1.350 . S
C1193 C1196 1.463 . S
C1193 C1198 1.350 . S
C1193 N1201 1.427 . S
C1194 H1185 0.930 1_554 S
C1194 C1192 1.378 . S
C1194 C1195 1.367 . S
C1195 C1194 1.367 . S
C1195 C1197 1.433 . S
C1196 C1192 1.350 . S
C1196 C1193 1.463 . S
C1196 N1200 1.427 . S
C1197 H1187 0.929 . S
C1197 C1195 1.433 . S
C1197 N1200 1.384 . S
C1198 H1189 0.929 . S
C1198 C1190 1.378 . S
C1198 C1193 1.350 . S
C1199 H1186 0.929 . S
C1199 C1191 1.433 . S
C1199 N1201 1.384 . S
N1200 C1196 1.427 . S
N1200 C1197 1.384 . S
N1201 C1193 1.427 . S
N1201 C1199 1.384 . S
H1202 C1208 0.930 . S
H1203 C1212 0.930 . S
H1204 C1217 0.929 . S
H1205 C1215 0.929 . S
H1206 C1210 0.929 . S
H1207 C1216 0.929 . S
C1208 H1202 0.930 . S
C1208 C1209 1.367 . S
C1208 C1216 1.378 . S
C1209 C1208 1.367 . S
C1209 C1217 1.433 . S
C1210 H1206 0.929 . S
C1210 C1212 1.378 . S
C1210 C1214 1.350 . S
C1211 C1214 1.463 . S
C1211 C1216 1.350 . S
C1211 N1219 1.427 . S
C1212 H1203 0.930 . S
C1212 C1210 1.378 . S
C1212 C1213 1.367 . S
C1213 C1212 1.367 . S
C1213 C1215 1.433 . S
C1214 C1210 1.350 . S
C1214 C1211 1.463 . S
C1214 N1218 1.427 . S
C1215 H1205 0.929 . S
C1215 C1213 1.433 . S
C1215 N1218 1.384 . S
C1216 H1207 0.929 . S
C1216 C1208 1.378 . S
C1216 C1211 1.350 . S
C1217 H1204 0.929 . S
C1217 C1209 1.433 . S
C1217 N1219 1.384 . S
N1218 C1214 1.427 . S
N1218 C1215 1.384 . S
N1219 C1211 1.427 . S
N1219 C1217 1.384 . S
H1220 C1226 0.930 . S
H1221 C1230 0.930 . S
H1222 C1235 0.929 . S
H1223 C1233 0.929 . S
H1224 C1228 0.929 . S
H1225 C1234 0.929 . S
C1226 H1220 0.930 . S
C1226 C1227 1.367 . S
C1226 C1234 1.378 . S
C1227 C1226 1.367 . S
C1227 C1235 1.433 . S
C1228 H1224 0.929 . S
C1228 C1230 1.378 . S
C1228 C1232 1.350 . S
C1229 C1232 1.463 . S
C1229 C1234 1.350 . S
C1229 N1237 1.427 . S
C1230 H1221 0.930 . S
C1230 C1228 1.378 . S
C1230 C1231 1.367 . S
C1231 C1230 1.367 . S
C1231 C1233 1.433 . S
C1232 C1228 1.350 . S
C1232 C1229 1.463 . S
C1232 N1236 1.427 . S
C1233 H1223 0.929 . S
C1233 C1231 1.433 . S
C1233 N1236 1.384 . S
C1234 H1225 0.929 . S
C1234 C1226 1.378 . S
C1234 C1229 1.350 . S
C1235 H1222 0.929 . S
C1235 C1227 1.433 . S
C1235 N1237 1.384 . S
N1236 C1232 1.427 . S
N1236 C1233 1.384 . S
N1237 C1229 1.427 . S
N1237 C1235 1.384 . S
H1238 C1244 0.930 . S
H1239 C1248 0.930 . S
H1240 C1253 0.929 . S
H1241 C1251 0.929 . S
H1242 C1246 0.929 . S
H1243 C1252 0.929 . S
C1244 H1238 0.930 . S
C1244 C1245 1.367 . S
C1244 C1252 1.378 . S
C1245 C1244 1.367 . S
C1245 C1253 1.433 . S
C1246 H1242 0.929 . S
C1246 C1248 1.378 . S
C1246 C1250 1.350 . S
C1247 C1250 1.463 . S
C1247 C1252 1.350 . S
C1247 N1255 1.427 . S
C1248 H1239 0.930 . S
C1248 C1246 1.378 . S
C1248 C1249 1.367 . S
C1249 C1248 1.367 . S
C1249 C1251 1.433 . S
C1250 C1246 1.350 . S
C1250 C1247 1.463 . S
C1250 N1254 1.427 . S
C1251 H1241 0.929 . S
C1251 C1249 1.433 . S
C1251 N1254 1.384 . S
C1252 H1243 0.929 . S
C1252 C1244 1.378 . S
C1252 C1247 1.350 . S
C1253 H1240 0.929 . S
C1253 C1245 1.433 . S
C1253 N1255 1.384 . S
N1254 C1250 1.427 . S
N1254 C1251 1.384 . S
N1255 C1247 1.427 . S
N1255 C1253 1.384 . S
H1256 C1262 0.930 . S
H1257 C1266 0.930 . S
H1258 C1271 0.929 . S
H1259 C1269 0.929 . S
H1260 C1264 0.929 . S
H1261 C1270 0.929 . S
C1262 H1256 0.930 . S
C1262 C1263 1.367 . S
C1262 C1270 1.378 . S
C1263 C1262 1.367 . S
C1263 C1271 1.433 . S
C1264 H1260 0.929 . S
C1264 C1266 1.378 . S
C1264 C1268 1.350 . S
C1265 C1268 1.463 . S
C1265 C1270 1.350 . S
C1265 N1273 1.427 . S
C1266 H1257 0.930 . S
C1266 C1264 1.378 . S
C1266 C1267 1.367 . S
C1267 C1266 1.367 . S
C1267 C1269 1.433 . S
C1268 C1264 1.350 . S
C1268 C1265 1.463 . S
C1268 N1272 1.427 . S
C1269 H1259 0.929 . S
C1269 C1267 1.433 . S
C1269 N1272 1.384 . S
C1270 H1261 0.929 . S
C1270 C1262 1.378 . S
C1270 C1265 1.350 . S
C1271 H1258 0.929 . S
C1271 C1263 1.433 . S
C1271 N1273 1.384 . S
N1272 C1268 1.427 . S
N1272 C1269 1.384 . S
N1273 C1265 1.427 . S
N1273 C1271 1.384 . S
H1274 C1280 0.930 . S
H1275 C1284 0.930 . S
H1276 C1289 0.929 . S
H1277 C1287 0.929 . S
H1278 C1282 0.929 . S
H1279 C1288 0.929 . S
C1280 H1274 0.930 . S
C1280 C1281 1.367 . S
C1280 C1288 1.378 . S
C1281 C1280 1.367 . S
C1281 C1289 1.433 . S
C1282 H1278 0.929 . S
C1282 C1284 1.378 . S
C1282 C1286 1.350 . S
C1283 C1286 1.463 . S
C1283 C1288 1.350 . S
C1283 N1291 1.427 . S
C1284 H1275 0.930 . S
C1284 C1282 1.378 . S
C1284 C1285 1.367 . S
C1285 C1284 1.367 . S
C1285 C1287 1.433 . S
C1286 C1282 1.350 . S
C1286 C1283 1.463 . S
C1286 N1290 1.427 . S
C1287 H1277 0.929 . S
C1287 C1285 1.433 . S
C1287 N1290 1.384 . S
C1288 H1279 0.929 . S
C1288 C1280 1.378 . S
C1288 C1283 1.350 . S
C1289 H1276 0.929 . S
C1289 C1281 1.433 . S
C1289 N1291 1.384 . S
N1290 C1286 1.427 . S
N1290 C1287 1.384 . S
N1291 C1283 1.427 . S
N1291 C1289 1.384 . S
H1292 C1298 0.930 . S
H1293 C1302 0.930 . S
H1294 C1307 0.929 . S
H1295 C1305 0.929 . S
H1296 C1300 0.929 . S
H1297 C1306 0.929 . S
C1298 H1292 0.930 . S
C1298 C1299 1.367 . S
C1298 C1306 1.378 . S
C1299 C1298 1.367 . S
C1299 C1307 1.433 . S
C1300 H1296 0.929 . S
C1300 C1302 1.378 . S
C1300 C1304 1.350 . S
C1301 C1304 1.463 . S
C1301 C1306 1.350 . S
C1301 N1309 1.427 . S
C1302 H1293 0.930 . S
C1302 C1300 1.378 . S
C1302 C1303 1.367 . S
C1303 C1302 1.367 . S
C1303 C1305 1.433 . S
C1304 C1300 1.350 . S
C1304 C1301 1.463 . S
C1304 N1308 1.427 . S
C1305 H1295 0.929 . S
C1305 C1303 1.433 . S
C1305 N1308 1.384 . S
C1306 H1297 0.929 . S
C1306 C1298 1.378 . S
C1306 C1301 1.350 . S
C1307 H1294 0.929 . S
C1307 C1299 1.433 . S
C1307 N1309 1.384 . S
N1308 C1304 1.427 . S
N1308 C1305 1.384 . S
N1309 C1301 1.427 . S
N1309 C1307 1.384 . S
H1310 C1316 0.930 . S
H1311 C1320 0.930 . S
H1312 C1325 0.929 . S
H1313 C1323 0.929 . S
H1314 C1318 0.929 . S
H1315 C1324 0.929 . S
C1316 H1310 0.930 . S
C1316 C1317 1.367 . S
C1316 C1324 1.378 . S
C1317 C1316 1.367 . S
C1317 C1325 1.433 . S
C1318 H1314 0.929 . S
C1318 C1320 1.378 . S
C1318 C1322 1.350 . S
C1319 C1322 1.463 . S
C1319 C1324 1.350 . S
C1319 N1327 1.427 . S
C1320 H1311 0.930 . S
C1320 C1318 1.378 . S
C1320 C1321 1.367 . S
C1321 C1320 1.367 . S
C1321 C1323 1.433 . S
C1322 C1318 1.350 . S
C1322 C1319 1.463 . S
C1322 N1326 1.427 . S
C1323 H1313 0.929 . S
C1323 C1321 1.433 . S
C1323 N1326 1.384 . S
C1324 H1315 0.929 . S
C1324 C1316 1.378 . S
C1324 C1319 1.350 . S
C1325 H1312 0.929 . S
C1325 C1317 1.433 . S
C1325 N1327 1.384 . S
N1326 C1322 1.427 . S
N1326 C1323 1.384 . S
N1327 C1319 1.427 . S
N1327 C1325 1.384 . S
H1328 C1334 0.930 . S
H1329 C1338 0.930 . S
H1330 C1343 0.929 . S
H1331 C1341 0.929 . S
H1332 C1336 0.929 . S
H1333 C1342 0.929 . S
C1334 H1328 0.930 . S
C1334 C1335 1.367 . S
C1334 C1342 1.378 . S
C1335 C1334 1.367 . S
C1335 C1343 1.433 . S
C1336 H1332 0.929 . S
C1336 C1338 1.378 . S
C1336 C1340 1.350 . S
C1337 C1340 1.463 . S
C1337 C1342 1.350 . S
C1337 N1345 1.427 . S
C1338 H1329 0.930 . S
C1338 C1336 1.378 . S
C1338 C1339 1.367 . S
C1339 C1338 1.367 . S
C1339 C1341 1.433 . S
C1340 C1336 1.350 . S
C1340 C1337 1.463 . S
C1340 N1344 1.427 . S
C1341 H1331 0.929 . S
C1341 C1339 1.433 . S
C1341 N1344 1.384 . S
C1342 H1333 0.929 . S
C1342 C1334 1.378 . S
C1342 C1337 1.350 . S
C1343 H1330 0.929 . S
C1343 C1335 1.433 . S
C1343 N1345 1.384 . S
N1344 C1340 1.427 . S
N1344 C1341 1.384 . S
N1345 C1337 1.427 . S
N1345 C1343 1.384 . S
H1346 C1352 0.930 . S
H1347 C1356 0.930 . S
H1348 C1361 0.929 . S
H1349 C1359 0.929 . S
H1350 C1354 0.929 . S
H1351 C1360 0.929 . S
C1352 H1346 0.930 . S
C1352 C1353 1.367 . S
C1352 C1360 1.378 . S
C1353 C1352 1.367 . S
C1353 C1361 1.433 . S
C1354 H1350 0.929 . S
C1354 C1356 1.378 . S
C1354 C1358 1.350 . S
C1355 C1358 1.463 . S
C1355 C1360 1.350 . S
C1355 N1363 1.427 . S
C1356 H1347 0.930 . S
C1356 C1354 1.378 . S
C1356 C1357 1.367 . S
C1357 C1356 1.367 . S
C1357 C1359 1.433 . S
C1358 C1354 1.350 . S
C1358 C1355 1.463 . S
C1358 N1362 1.427 . S
C1359 H1349 0.929 . S
C1359 C1357 1.433 . S
C1359 N1362 1.384 . S
C1360 H1351 0.929 . S
C1360 C1352 1.378 . S
C1360 C1355 1.350 . S
C1361 H1348 0.929 . S
C1361 C1353 1.433 . S
C1361 N1363 1.384 . S
N1362 C1358 1.427 . S
N1362 C1359 1.384 . S
N1363 C1355 1.427 . S
N1363 C1361 1.384 . S
H1364 C1370 0.930 . S
H1365 C1374 0.930 . S
H1366 C1379 0.929 . S
H1367 C1377 0.929 . S
H1368 C1372 0.929 . S
H1369 C1378 0.929 . S
C1370 H1364 0.930 . S
C1370 C1371 1.367 . S
C1370 C1378 1.378 . S
C1371 C1370 1.367 . S
C1371 C1379 1.433 . S
C1372 H1368 0.929 . S
C1372 C1374 1.378 . S
C1372 C1376 1.350 . S
C1373 C1376 1.463 . S
C1373 C1378 1.350 . S
C1373 N1381 1.427 . S
C1374 H1365 0.930 . S
C1374 C1372 1.378 . S
C1374 C1375 1.367 . S
C1375 C1374 1.367 . S
C1375 C1377 1.433 . S
C1376 C1372 1.350 . S
C1376 C1373 1.463 . S
C1376 N1380 1.427 . S
C1377 H1367 0.929 . S
C1377 C1375 1.433 . S
C1377 N1380 1.384 . S
C1378 H1369 0.929 . S
C1378 C1370 1.378 . S
C1378 C1373 1.350 . S
C1379 H1366 0.929 . S
C1379 C1371 1.433 . S
C1379 N1381 1.384 . S
N1380 C1376 1.427 . S
N1380 C1377 1.384 . S
N1381 C1373 1.427 . S
N1381 C1379 1.384 . S
H1382 C1388 0.930 . S
H1383 C1392 0.930 . S
H1384 C1397 0.929 . S
H1385 C1395 0.929 . S
H1386 C1390 0.929 . S
H1387 C1396 0.929 . S
C1388 H1382 0.930 . S
C1388 C1389 1.367 . S
C1388 C1396 1.378 . S
C1389 C1388 1.367 . S
C1389 C1397 1.433 . S
C1390 H1386 0.929 . S
C1390 C1392 1.378 . S
C1390 C1394 1.350 . S
C1391 C1394 1.463 . S
C1391 C1396 1.350 . S
C1391 N1399 1.427 . S
C1392 H1383 0.930 . S
C1392 C1390 1.378 . S
C1392 C1393 1.367 . S
C1393 C1392 1.367 . S
C1393 C1395 1.433 . S
C1394 C1390 1.350 . S
C1394 C1391 1.463 . S
C1394 N1398 1.427 . S
C1395 H1385 0.929 . S
C1395 C1393 1.433 . S
C1395 N1398 1.384 . S
C1396 H1387 0.929 . S
C1396 C1388 1.378 . S
C1396 C1391 1.350 . S
C1397 H1384 0.929 . S
C1397 C1389 1.433 . S
C1397 N1399 1.384 . S
N1398 C1394 1.427 . S
N1398 C1395 1.384 . S
N1399 C1391 1.427 . S
N1399 C1397 1.384 . S
H1400 C1406 0.930 . S
H1401 C1410 0.930 . S
H1402 C1415 0.929 . S
H1403 C1413 0.929 . S
H1404 C1408 0.929 . S
H1405 C1414 0.929 . S
C1406 H1400 0.930 . S
C1406 C1407 1.367 . S
C1406 C1414 1.378 . S
C1407 C1406 1.367 . S
C1407 C1415 1.433 . S
C1408 H1404 0.929 . S
C1408 C1410 1.378 . S
C1408 C1412 1.350 . S
C1409 C1412 1.463 . S
C1409 C1414 1.350 . S
C1409 N1417 1.427 . S
C1410 H1401 0.930 . S
C1410 C1408 1.378 . S
C1410 C1411 1.367 . S
C1411 C1410 1.367 . S
C1411 C1413 1.433 . S
C1412 C1408 1.350 . S
C1412 C1409 1.463 . S
C1412 N1416 1.427 . S
C1413 H1403 0.929 . S
C1413 C1411 1.433 . S
C1413 N1416 1.384 . S
C1414 H1405 0.929 . S
C1414 C1406 1.378 . S
C1414 C1409 1.350 . S
C1415 H1402 0.929 . S
C1415 C1407 1.433 . S
C1415 N1417 1.384 . S
N1416 C1412 1.427 . S
N1416 C1413 1.384 . S
N1417 C1409 1.427 . S
N1417 C1415 1.384 . S
H1418 C1424 0.930 . S
H1419 C1428 0.930 . S
H1420 C1433 0.929 . S
H1421 C1431 0.929 . S
H1422 C1426 0.929 . S
H1423 C1432 0.929 . S
C1424 H1418 0.930 . S
C1424 C1425 1.367 . S
C1424 C1432 1.378 . S
C1425 C1424 1.367 . S
C1425 C1433 1.433 . S
C1426 H1422 0.929 . S
C1426 C1428 1.378 . S
C1426 C1430 1.350 . S
C1427 C1430 1.463 . S
C1427 C1432 1.350 . S
C1427 N1435 1.427 . S
C1428 H1419 0.930 . S
C1428 C1426 1.378 . S
C1428 C1429 1.367 . S
C1429 C1428 1.367 . S
C1429 C1431 1.433 . S
C1430 C1426 1.350 . S
C1430 C1427 1.463 . S
C1430 N1434 1.427 . S
C1431 H1421 0.929 . S
C1431 C1429 1.433 . S
C1431 N1434 1.384 . S
C1432 H1423 0.929 . S
C1432 C1424 1.378 . S
C1432 C1427 1.350 . S
C1433 H1420 0.929 . S
C1433 C1425 1.433 . S
C1433 N1435 1.384 . S
N1434 C1430 1.427 . S
N1434 C1431 1.384 . S
N1435 C1427 1.427 . S
N1435 C1433 1.384 . S
H1436 C1442 0.930 . S
H1437 C1446 0.930 . S
H1438 C1451 0.929 . S
H1439 C1449 0.929 . S
H1440 C1444 0.929 . S
H1441 C1450 0.929 . S
C1442 H1436 0.930 . S
C1442 C1443 1.367 . S
C1442 C1450 1.378 . S
C1443 C1442 1.367 . S
C1443 C1451 1.433 . S
C1444 H1440 0.929 . S
C1444 C1446 1.378 . S
C1444 C1448 1.350 . S
C1445 C1448 1.463 . S
C1445 C1450 1.350 . S
C1445 N1453 1.427 . S
C1446 H1437 0.930 . S
C1446 C1444 1.378 . S
C1446 C1447 1.367 . S
C1447 C1446 1.367 . S
C1447 C1449 1.433 . S
C1448 C1444 1.350 . S
C1448 C1445 1.463 . S
C1448 N1452 1.427 . S
C1449 H1439 0.929 . S
C1449 C1447 1.433 . S
C1449 N1452 1.384 . S
C1450 H1441 0.929 . S
C1450 C1442 1.378 . S
C1450 C1445 1.350 . S
C1451 H1438 0.929 . S
C1451 C1443 1.433 . S
C1451 N1453 1.384 . S
N1452 C1448 1.427 . S
N1452 C1449 1.384 . S
N1453 C1445 1.427 . S
N1453 C1451 1.384 . S
H1454 C1460 0.930 . S
H1455 C1464 0.930 . S
H1456 C1469 0.929 . S
H1457 C1467 0.929 . S
H1458 C1462 0.929 . S
H1459 C1468 0.929 . S
C1460 H1454 0.930 . S
C1460 C1461 1.367 . S
C1460 C1468 1.378 . S
C1461 C1460 1.367 . S
C1461 C1469 1.433 . S
C1462 H1458 0.929 . S
C1462 C1464 1.378 . S
C1462 C1466 1.350 . S
C1463 C1466 1.463 . S
C1463 C1468 1.350 . S
C1463 N1471 1.427 . S
C1464 H1455 0.930 . S
C1464 C1462 1.378 . S
C1464 C1465 1.367 . S
C1465 C1464 1.367 . S
C1465 C1467 1.433 . S
C1466 C1462 1.350 . S
C1466 C1463 1.463 . S
C1466 N1470 1.427 . S
C1467 H1457 0.929 . S
C1467 C1465 1.433 . S
C1467 N1470 1.384 . S
C1468 H1459 0.929 . S
C1468 C1460 1.378 . S
C1468 C1463 1.350 . S
C1469 H1456 0.929 . S
C1469 C1461 1.433 . S
C1469 N1471 1.384 . S
N1470 C1466 1.427 . S
N1470 C1467 1.384 . S
N1471 C1463 1.427 . S
N1471 C1469 1.384 . S
H1472 C1478 0.930 . S
H1473 C1482 0.930 . S
H1474 C1487 0.929 . S
H1475 C1485 0.929 . S
H1476 C1480 0.929 . S
H1477 C1486 0.929 . S
C1478 H1472 0.930 . S
C1478 C1479 1.367 . S
C1478 C1486 1.378 . S
C1479 C1478 1.367 . S
C1479 C1487 1.433 . S
C1480 H1476 0.929 . S
C1480 C1482 1.378 . S
C1480 C1484 1.350 . S
C1481 C1484 1.463 . S
C1481 C1486 1.350 . S
C1481 N1489 1.427 . S
C1482 H1473 0.930 . S
C1482 C1480 1.378 . S
C1482 C1483 1.367 . S
C1483 C1482 1.367 . S
C1483 C1485 1.433 . S
C1484 C1480 1.350 . S
C1484 C1481 1.463 . S
C1484 N1488 1.427 . S
C1485 H1475 0.929 . S
C1485 C1483 1.433 . S
C1485 N1488 1.384 . S
C1486 H1477 0.929 . S
C1486 C1478 1.378 . S
C1486 C1481 1.350 . S
C1487 H1474 0.929 . S
C1487 C1479 1.433 . S
C1487 N1489 1.384 . S
N1488 C1484 1.427 . S
N1488 C1485 1.384 . S
N1489 C1481 1.427 . S
N1489 C1487 1.384 . S
H1490 C1496 0.930 . S
H1491 C1500 0.930 . S
H1492 C1505 0.929 . S
H1493 C1503 0.929 . S
H1494 C1498 0.929 . S
H1495 C1504 0.929 . S
C1496 H1490 0.930 . S
C1496 C1497 1.367 . S
C1496 C1504 1.378 . S
C1497 C1496 1.367 . S
C1497 C1505 1.433 . S
C1498 H1494 0.929 . S
C1498 C1500 1.378 . S
C1498 C1502 1.350 . S
C1499 C1502 1.463 . S
C1499 C1504 1.350 . S
C1499 N1507 1.427 . S
C1500 H1491 0.930 . S
C1500 C1498 1.378 . S
C1500 C1501 1.367 . S
C1501 C1500 1.367 . S
C1501 C1503 1.433 . S
C1502 C1498 1.350 . S
C1502 C1499 1.463 . S
C1502 N1506 1.427 . S
C1503 H1493 0.929 . S
C1503 C1501 1.433 . S
C1503 N1506 1.384 . S
C1504 H1495 0.929 . S
C1504 C1496 1.378 . S
C1504 C1499 1.350 . S
C1505 H1492 0.929 . S
C1505 C1497 1.433 . S
C1505 N1507 1.384 . S
N1506 C1502 1.427 . S
N1506 C1503 1.384 . S
N1507 C1499 1.427 . S
N1507 C1505 1.384 . S
C655 C355 1.570 . S
C651 C2 1.557 . S
C673 C333 1.534 . S
C669 C48 1.582 . S
C691 C330 0.666 . S
C687 C97 0.678 . S
C705 C149 0.431 . S
C709 C342 0.377 . S
C723 C189 1.571 . S
C727 C325 1.529 . S
C745 C347 0.673 . S
C741 C202 0.673 . S
C759 C248 0.426 . S
C763 C352 0.343 . S
C777 C297 1.554 . S
C781 C348 1.567 . S
C799 C406 2.973 . S
C795 C31 3.021 . S
C813 C52 1.484 . S
C817 C456 1.496 . S
C835 C379 1.480 . S
C831 C88 1.536 . S
C853 C455 0.670 . S
C849 C122 0.677 . S
C867 C162 0.671 . S
C871 C384 0.685 . S
C889 C450 2.966 . S
C885 C231 3.012 . S
C903 C252 1.517 . S
C907 C409 1.535 . S
C921 C288 1.572 . S
C925 C441 1.519 . S
C939 C29 1.577 . S
C943 C433 1.522 . S
C957 C191 1.502 . S
C961 C463 1.509 . S
C979 C387 1.511 . S
C975 C229 1.557 . S
C997 C438 0.683 . S
C993 C257 0.684 . S
C1011 C292 3.026 . S
C1015 C396 2.981 . S
C1029 C92 3.025 . S
C1033 C460 2.980 . S
C1051 C402 1.532 . S
C1047 C151 1.512 . S
C1065 C57 0.691 . S
C1069 C401 0.693 . S
C1083 C282 1.556 . S
C1087 C517 1.572 . S
C1101 C168 1.583 . S
C1105 C495 1.550 . S
C1123 C492 0.670 . S
C1119 C217 0.668 . S
C1141 C504 0.381 . S
C1137 C269 0.446 . S
C1155 C69 1.580 . S
C1159 C487 1.527 . S
C1177 C509 0.668 . S
C1173 C82 0.679 . S
C1191 C128 0.432 . S
C1195 C514 0.371 . S
C1209 C17 1.554 . S
C1213 C510 1.569 . S
C1227 C311 3.021 . S
C1231 C568 2.978 . S
C1249 C618 1.494 . S
C1245 C172 1.484 . S
C1263 C208 1.539 . S
C1267 C541 1.482 . S
C1281 C242 0.688 . S
C1285 C617 0.670 . S
C1303 C546 0.673 . S
C1299 C42 0.691 . S
C1317 C111 3.011 . S
C1321 C612 2.960 . S
C1339 C571 1.535 . S
C1335 C132 1.515 . S
C1357 C603 1.529 . S
C1353 C8 1.577 . S
C1375 C595 1.523 . S
C1371 C309 1.577 . S
C1389 C71 1.503 . S
C1393 C625 1.512 . S
C1407 C109 1.551 . S
C1411 C549 1.496 . S
C1429 C600 0.682 . S
C1425 C137 0.686 . S
C1443 C12 3.025 . S
C1447 C558 2.975 . S
C1461 C212 3.023 . S
C1465 C622 2.979 . S
C1483 C564 1.533 . S
C1479 C271 1.512 . S
C1501 C563 0.694 . S
C1497 C177 0.689 . S
