# Generated by pormake.
# Topology scu, (8,4)-cn, num edge types: 1
# Building blocks:
#     Node 0, Type 0, BuildingBlock: GIZVER_clean_sbu_0, # of connection points: 8
#     Node 1, Type 1, BuildingBlock: NAWXER_clean_sbu_0, # of connection points: 4
#     Node 2, Type 1, BuildingBlock: NAWXER_clean_sbu_0, # of connection points: 4
#     Edge 3, Type (0, 1), BuildingBlock: TEMPAE_clean_linker_10, # of connection points: 2
#     Edge 4, Type (0, 1), BuildingBlock: TEMPAE_clean_linker_10, # of connection points: 2
#     Edge 5, Type (0, 1), BuildingBlock: TEMPAE_clean_linker_10, # of connection points: 2
#     Edge 6, Type (0, 1), BuildingBlock: TEMPAE_clean_linker_10, # of connection points: 2
#     Edge 7, Type (0, 1), BuildingBlock: TEMPAE_clean_linker_10, # of connection points: 2
#     Edge 8, Type (0, 1), BuildingBlock: TEMPAE_clean_linker_10, # of connection points: 2
#     Edge 9, Type (0, 1), BuildingBlock: TEMPAE_clean_linker_10, # of connection points: 2
#     Edge 10, Type (0, 1), BuildingBlock: TEMPAE_clean_linker_10, # of connection points: 2
# Relax obj value: 0.017
# Max RMSD: 0.079
# Mean RMSD: 0.059
data_MOF--net-scu--node1-GIZVER_clean_sbu_0--node2-NAWXER_clean_sbu_0--edge1-TEMPAE_clean_linker_10
_symmetry_space_group_name_H-M    P1
_symmetry_Int_Tables_number       1
_symmetry_cell_setting            triclinic
loop_
_symmetry_equiv_pos_as_xyz
'x, y, z'
_cell_length_a     23.652811
_cell_length_b     24.114597
_cell_length_c     22.401368
_cell_angle_alpha  100.35308
_cell_angle_beta   81.495318
_cell_angle_gamma 113.93621
loop_
_atom_site_label
_atom_site_type_symbol
_atom_site_fract_x
_atom_site_fract_y
_atom_site_fract_z
_atom_type_partial_charge
Co0 Co 0.02268 0.94871 0.1401 0.0
Co1 Co 0.11857 0.04087 0.10418 0.0
Co2 Co 0.009 0.01843 0.02427 0.0
O3 O 0.05222 0.98036 0.06349 0.0
H4 H 0.06691 0.95357 0.03406 0.0
O5 O 0.96811 0.05865 0.98505 0.0
Co6 Co 0.99423 0.07799 0.90361 0.0
Co7 Co 0.89609 1.00219 0.95633 0.0
H8 H 0.95969 0.09092 1.01212 0.0
O9 O 0.18656 0.02478 0.10941 0.0
O10 O 0.101 1.00752 0.17544 0.0
O11 O 0.11992 0.12212 0.12805 0.0
O12 O 0.03633 0.09832 0.0798 0.0
O13 O 0.08474 0.04838 0.96709 0.0
O14 O 0.01686 0.10204 0.83054 0.0
O15 O 0.96632 0.13869 0.91046 0.0
O16 O 0.03141 0.02009 0.88649 0.0
O17 O 0.97799 0.93752 0.96784 0.0
O18 O 0.87909 0.91821 0.95937 0.0
O19 O 0.91329 1.01566 0.87542 0.0
O20 O 0.83429 0.02371 0.94217 0.0
C21 C 0.02819 0.88146 0.18175 0.0
C22 C 0.93838 1.00576 0.14004 0.0
C23 C 0.0762 0.13475 0.1161 0.0
C24 C 0.15617 1.00659 0.16026 0.0
C25 C 0.99325 0.14185 0.85512 0.0
C26 C 0.08282 0.03662 0.90948 0.0
C27 C 0.92408 0.90118 0.95133 0.0
C28 C 0.85967 0.02079 0.88671 0.0
O29 O 0.99811 0.9151 0.20844 0.0
O30 O 0.05449 0.88959 0.12657 0.0
O31 O 0.934 0.99022 0.08277 0.0
O32 O 0.98331 1.00521 0.16494 0.0
C33 C 0.93447 0.57101 0.61106 0.0
C34 C 0.95794 0.42197 0.43882 0.0
O35 O 0.99064 0.57796 0.59365 0.0
Zn36 Zn 0.04115 0.5357 0.52975 0.0
O37 O 0.89017 0.52699 0.58503 0.0
Zn38 Zn 0.94104 0.49284 0.5253 0.0
O39 O 0.97624 0.45471 0.58086 0.0
O40 O 0.07759 0.50331 0.58198 0.0
O41 O 0.90608 0.42214 0.46418 0.0
O42 O 0.0089 0.46105 0.45924 0.0
O43 O 0.08967 0.6019 0.48098 0.0
O44 O 0.98931 0.56259 0.46807 0.0
C45 C 0.02736 0.46111 0.59942 0.0
C46 C 0.04462 0.60004 0.45453 0.0
C47 C 0.5769 0.98546 0.5773 0.0
C48 C 0.41796 0.9713 0.45111 0.0
O49 O 0.53503 0.9359 0.55535 0.0
Zn50 Zn 0.49486 0.97325 0.51436 0.0
O51 O 0.57826 0.03693 0.5683 0.0
Zn52 Zn 0.53101 0.07312 0.52318 0.0
O53 O 0.49449 0.11578 0.59046 0.0
O54 O 0.45279 1.0154 0.58817 0.0
O55 O 0.45453 0.02567 0.47015 0.0
O56 O 0.42497 0.92554 0.46479 0.0
O57 O 0.56571 1.01402 0.44744 0.0
O58 O 0.59671 0.11457 0.46243 0.0
C59 C 0.4552 0.06841 0.6128 0.0
C60 C 0.60088 0.06637 0.43141 0.0
C61 C 0.00668 0.1917 0.14899 0.0
C62 C 0.06276 0.18615 0.15356 0.0
C63 C 0.98616 0.23118 0.19154 0.0
C64 C 0.02295 0.26686 0.2398 0.0
C65 C 0.08153 0.26466 0.24243 0.0
C66 C 0.10056 0.224 0.19956 0.0
C67 C 0.92377 0.2317 0.18482 0.0
C68 C 0.12334 0.30392 0.29168 0.0
C69 C 0.99204 0.40205 0.33056 0.0
C70 C 0.96216 0.37884 0.38481 0.0
C71 C 0.01024 0.36544 0.28215 0.0
C72 C 0.99948 0.30464 0.28887 0.0
C73 C 0.96748 0.28044 0.3431 0.0
C74 C 0.94892 0.31794 0.39051 0.0
C75 C 0.04304 0.39242 0.2247 0.0
C76 C 0.95618 0.21634 0.35287 0.0
H77 H 0.97678 0.16297 0.11372 0.0
H78 H 0.14402 0.22036 0.20348 0.0
H79 H 0.88733 0.18545 0.18908 0.0
H80 H 0.91123 0.26539 0.21853 0.0
H81 H 0.92319 0.24155 0.13841 0.0
H82 H 0.16975 0.30134 0.28394 0.0
H83 H 0.12954 0.35242 0.29416 0.0
H84 H 0.10163 0.28888 0.33649 0.0
H85 H 1.00319 0.44969 0.32694 0.0
H86 H 0.92746 0.30078 0.43331 0.0
H87 H 0.01698 0.36452 0.18505 0.0
H88 H 0.09001 0.39124 0.21684 0.0
H89 H 0.04776 0.44046 0.22664 0.0
H90 H 0.944 0.18379 0.31046 0.0
H91 H 0.91865 0.19983 0.38945 0.0
H92 H 0.99919 0.21604 0.36666 0.0
C93 C 0.84964 0.04008 0.15135 0.0
C94 C 0.89274 0.02783 0.17803 0.0
C95 C 0.80407 0.05746 0.18752 0.0
C96 C 0.8011 0.06192 0.2517 0.0
C97 C 0.84666 0.05298 0.27879 0.0
C98 C 0.89197 0.03634 0.24172 0.0
C99 C 0.7578 0.06901 0.15714 0.0
C100 C 0.84522 0.0569 0.34701 0.0
C101 C 0.69622 0.12323 0.36532 0.0
C102 C 0.64803 0.06835 0.37921 0.0
C103 C 0.74514 0.1227 0.3211 0.0
C104 C 0.74555 0.06596 0.29033 0.0
C105 C 0.69495 1.01097 0.30166 0.0
C106 C 0.64694 1.01291 0.3455 0.0
C107 C 0.79644 0.18275 0.30826 0.0
C108 C 0.69304 0.94939 0.26996 0.0
H109 H 0.85082 0.03517 0.10217 0.0
H110 H 0.92547 0.02778 0.26292 0.0
H111 H 0.71101 0.03258 0.16424 0.0
H112 H 0.75497 0.11327 0.17799 0.0
H113 H 0.77014 0.06995 0.1074 0.0
H114 H 0.88987 0.06079 0.36126 0.0
H115 H 0.83484 0.09667 0.3706 0.0
H116 H 0.80782 1.01498 0.36236 0.0
H117 H 0.69687 0.16633 0.39034 0.0
H118 H 0.60938 0.97017 0.35488 0.0
H119 H 0.78751 0.19606 0.26679 0.0
H120 H 0.84207 0.17896 0.29954 0.0
H121 H 0.79894 0.21994 0.34641 0.0
H122 H 0.70001 0.94926 0.21988 0.0
H123 H 0.64843 0.91135 0.28093 0.0
H124 H 0.73127 0.94028 0.28384 0.0
C125 C 1.00257 0.82812 0.27396 0.0
C126 C 0.03571 0.8383 0.21682 0.0
C127 C 0.01046 0.79036 0.31011 0.0
C128 C 0.05267 0.76169 0.28899 0.0
C129 C 0.087 0.77224 0.23168 0.0
C130 C 0.07792 0.81021 0.19612 0.0
C131 C 0.97338 0.78112 0.3711 0.0
C132 C 0.1325 0.74266 0.2073 0.0
C133 C 0.09723 0.70023 0.41276 0.0
C134 C 0.05397 0.63968 0.40763 0.0
C135 C 0.09927 0.74013 0.37296 0.0
C136 C 0.05799 0.71853 0.32611 0.0
C137 C 0.01679 0.65625 0.3188 0.0
C138 C 0.0149 0.61784 0.35991 0.0
C139 C 0.14251 0.80622 0.3846 0.0
C140 C 0.97212 0.63091 0.26966 0.0
H141 H 0.9702 0.8499 0.29085 0.0
H142 H 0.10437 0.81836 0.15246 0.0
H143 H 0.94434 0.73178 0.37238 0.0
H144 H 1.00527 0.79624 0.40781 0.0
H145 H 0.94261 0.80687 0.38107 0.0
H146 H 0.16587 0.76654 0.17076 0.0
H147 H 0.15886 0.74205 0.24408 0.0
H148 H 0.10668 0.69449 0.18804 0.0
H149 H 0.12707 0.71742 0.44994 0.0
H150 H 0.98169 0.57072 0.3555 0.0
H151 H 0.11871 0.83088 0.41852 0.0
H152 H 0.15582 0.82827 0.34258 0.0
H153 H 0.18513 0.81103 0.40395 0.0
H154 H 0.93773 0.65253 0.2789 0.0
H155 H 0.94669 0.5805 0.26692 0.0
H156 H 0.99732 0.64197 0.22471 0.0
C157 C 0.15779 0.97403 0.25985 0.0
C158 C 0.18642 0.98838 0.20217 0.0
C159 C 0.18834 0.96127 0.3014 0.0
C160 C 0.24948 0.9634 0.28495 0.0
C161 C 0.27795 0.97651 0.22606 0.0
C162 C 0.24566 0.98779 0.18519 0.0
C163 C 0.15512 0.94902 0.36354 0.0
C164 C 0.34379 0.98187 0.20686 0.0
C165 C 0.35338 1.01479 0.41383 0.0
C166 C 0.36908 0.96445 0.41291 0.0
C167 C 0.31375 1.01425 0.37315 0.0
C168 C 0.28726 0.96116 0.33126 0.0
C169 C 0.30137 0.90916 0.33122 0.0
C170 C 0.34196 0.91137 0.37247 0.0
C171 C 0.30275 0.0719 0.37349 0.0
C172 C 0.27717 0.85206 0.28608 0.0
H173 H 0.11198 0.97435 0.2735 0.0
H174 H 0.26801 0.9983 0.14043 0.0
H175 H 0.10949 0.91022 0.35842 0.0
H176 H 0.1815 0.93867 0.39389 0.0
H177 H 0.14518 0.98944 0.38599 0.0
H178 H 0.36265 1.00342 0.16448 0.0
H179 H 0.37498 1.0093 0.24319 0.0
H180 H 0.34492 0.93561 0.1983 0.0
H181 H 0.37367 0.05585 0.44547 0.0
H182 H 0.35434 0.87251 0.37119 0.0
H183 H 0.25477 0.06489 0.39274 0.0
H184 H 0.3081 0.08313 0.3265 0.0
H185 H 0.33517 0.11194 0.40136 0.0
H186 H 0.23991 0.85081 0.2605 0.0
H187 H 0.2596 0.81081 0.30977 0.0
H188 H 0.31604 0.84898 0.2531 0.0
C189 C 0.87278 0.82266 0.86627 0.0
C190 C 0.91668 0.84378 0.90972 0.0
C191 C 0.87047 0.77439 0.81999 0.0
C192 C 0.91182 0.74497 0.8179 0.0
C193 C 0.95378 0.76355 0.86372 0.0
C194 C 0.95651 0.81353 0.90852 0.0
C195 C 0.82656 0.75774 0.77102 0.0
C196 C 0.99746 0.73221 0.86403 0.0
C197 C 0.87963 0.5952 0.71063 0.0
C198 C 0.92346 0.615 0.66156 0.0
C199 C 0.87582 0.63674 0.76252 0.0
C200 C 0.91551 0.69955 0.76424 0.0
C201 C 0.95828 0.71978 0.71363 0.0
C202 C 0.96238 0.67711 0.66346 0.0
C203 C 0.83073 0.61325 0.81614 0.0
C204 C 1.00004 0.78653 0.7125 0.0
H205 H 0.84231 0.84622 0.86615 0.0
H206 H 0.99042 0.82954 0.94194 0.0
H207 H 0.8537 0.76946 0.72695 0.0
H208 H 0.79847 0.7078 0.76497 0.0
H209 H 0.79461 0.78222 0.78142 0.0
H210 H 0.0206 0.74597 0.90711 0.0
H211 H 0.97206 0.68175 0.85759 0.0
H212 H 0.03379 0.74408 0.82564 0.0
H213 H 0.85034 0.54695 0.70955 0.0
H214 H 0.99638 0.69234 0.62545 0.0
H215 H 0.79817 0.63694 0.82665 0.0
H216 H 0.85642 0.62347 0.85705 0.0
H217 H 0.80337 0.56314 0.80782 0.0
H218 H 0.97182 0.81479 0.72068 0.0
H219 H 0.02857 0.79503 0.66846 0.0
H220 H 0.03169 0.80236 0.74947 0.0
C221 C 0.13956 0.03798 0.80563 0.0
C222 C 0.14094 0.04675 0.86913 0.0
C223 C 0.19412 0.04772 0.76683 0.0
C224 C 0.25161 0.06661 0.79201 0.0
C225 C 0.25355 0.07662 0.85605 0.0
C226 C 0.19822 0.06652 0.89383 0.0
C227 C 0.18994 0.0362 0.69878 0.0
C228 C 0.31387 0.09661 0.88464 0.0
C229 C 0.37148 0.01868 0.69064 0.0
C230 C 0.40865 0.07185 0.66411 0.0
C231 C 0.32162 1.01715 0.73359 0.0
C232 C 0.30844 0.07025 0.75111 0.0
C233 C 0.34738 0.12504 0.72682 0.0
C234 C 0.39713 0.12521 0.68345 0.0
C235 C 0.28144 0.95775 0.75828 0.0
C236 C 0.33504 0.18272 0.74491 0.0
H237 H 0.09568 0.0231 0.78602 0.0
H238 H 0.19989 0.07373 0.94283 0.0
H239 H 0.22286 0.07681 0.67755 0.0
H240 H 0.20327 0.9972 0.67885 0.0
H241 H 0.14246 0.02555 0.68651 0.0
H242 H 0.30831 0.10703 0.93501 0.0
H243 H 0.33211 0.0599 0.87321 0.0
H244 H 0.3492 0.13782 0.86608 0.0
H245 H 0.38022 0.97725 0.67657 0.0
H246 H 0.42553 0.16644 0.66323 0.0
H247 H 0.23389 0.94099 0.7435 0.0
H248 H 0.27751 0.96509 0.80878 0.0
H249 H 0.29995 0.9215 0.74253 0.0
H250 H 0.2907 0.17603 0.72784 0.0
H251 H 0.37266 0.22277 0.72638 0.0
H252 H 0.32998 0.19309 0.79524 0.0
C253 C 0.02106 0.18822 0.75831 0.0
C254 C 0.99841 0.19051 0.81991 0.0
C255 C 0.02909 0.23475 0.72432 0.0
C256 C 0.01437 0.28519 0.7525 0.0
C257 C 0.99176 0.28806 0.81474 0.0
C258 C 0.9838 0.24053 0.84769 0.0
C259 C 0.0524 0.22936 0.65787 0.0
C260 C 0.97546 0.34108 0.84633 0.0
C261 C 0.07722 0.42635 0.66962 0.0
C262 C 0.02565 0.41759 0.63964 0.0
C263 C 0.07402 0.38434 0.70771 0.0
C264 C 0.01821 0.33226 0.71536 0.0
C265 C 0.96617 0.32337 0.68521 0.0
C266 C 0.97047 0.36607 0.64808 0.0
C267 C 0.13038 0.39533 0.73938 0.0
C268 C 0.90604 0.2681 0.6913 0.0
H269 H 0.03246 0.14976 0.73631 0.0
H270 H 0.96671 0.2429 0.89533 0.0
H271 H 0.0164 0.2261 0.62926 0.0
H272 H 0.09415 0.27084 0.64869 0.0
H273 H 0.06433 0.18859 0.64348 0.0
H274 H 0.96178 0.33829 0.89567 0.0
H275 H 0.01557 0.38495 0.84097 0.0
H276 H 0.9365 0.34205 0.82496 0.0
H277 H 0.11988 0.46601 0.66354 0.0
H278 H 0.93029 0.35844 0.62496 0.0
H279 H 0.14631 0.35734 0.72357 0.0
H280 H 0.11829 0.396 0.78921 0.0
H281 H 0.16938 0.43914 0.73076 0.0
H282 H 0.91411 0.2256 0.67394 0.0
H283 H 0.86938 0.26866 0.66589 0.0
H284 H 0.88855 0.26589 0.73993 0.0
C285 C 0.76882 0.02699 0.84886 0.0
C286 C 0.82405 1.01703 0.83611 0.0
C287 C 0.7315 0.01906 0.80248 0.0
C288 C 0.74973 1.00056 0.74171 0.0
C289 C 0.80591 0.99131 0.72821 0.0
C290 C 0.84263 0.99989 0.77565 0.0
C291 C 0.67238 0.03034 0.81862 0.0
C292 C 0.82682 0.97182 0.66385 0.0
C293 C 0.61762 0.9339 0.63846 0.0
C294 C 0.62448 0.98583 0.61365 0.0
C295 C 0.66016 0.93703 0.67796 0.0
C296 C 0.71052 0.9933 0.69255 0.0
C297 C 0.71948 0.04481 0.6649 0.0
C298 C 0.67638 0.04044 0.6259 0.0
C299 C 0.64951 0.88106 0.70642 0.0
C300 C 0.7727 0.1056 0.67902 0.0
H301 H 0.75427 0.04058 0.89539 0.0
H302 H 0.8852 0.99196 0.76547 0.0
H303 H 0.67396 0.06699 0.79392 0.0
H304 H 0.63197 0.98836 0.80424 0.0
H305 H 0.66464 0.04407 0.86822 0.0
H306 H 0.87166 0.96645 0.66099 0.0
H307 H 0.79115 0.92768 0.64547 0.0
H308 H 0.83203 1.00606 0.63414 0.0
H309 H 0.57788 0.89153 0.62887 0.0
H310 H 0.68272 0.08063 0.60609 0.0
H311 H 0.63562 0.88854 0.75577 0.0
H312 H 0.69298 0.87299 0.70206 0.0
H313 H 0.61263 0.83936 0.68536 0.0
H314 H 0.76564 0.12516 0.72693 0.0
H315 H 0.77683 0.13922 0.64892 0.0
H316 H 0.81724 0.09948 0.67418 0.0
loop_
_geom_bond_atom_site_label_1
_geom_bond_atom_site_label_2
_geom_bond_distance
_geom_bond_site_symmetry_2
_ccdc_geom_bond_type
Co0 O3 2.042 . S
Co0 O10 2.264 1_565 S
Co0 O29 2.286 1_455 S
Co0 O30 2.069 . S
Co0 O32 2.015 1_455 S
Co1 O3 2.122 1_545 S
Co1 O9 2.073 . S
Co1 O10 2.327 . S
Co1 O11 1.976 . S
Co2 O3 2.087 1_545 S
Co2 O5 2.087 1_454 S
Co2 O12 2.116 . S
Co2 O13 2.143 1_554 S
Co2 O17 2.107 1_444 S
Co2 O31 2.144 1_445 S
O3 Co0 2.042 . S
O3 Co1 2.122 1_565 S
O3 Co2 2.087 1_565 S
O3 H4 0.980 . S
H4 O3 0.980 . S
O5 Co2 2.087 1_656 S
O5 Co6 2.046 . S
O5 Co7 2.122 1_545 S
O5 H8 0.980 . S
Co6 O5 2.046 . S
Co6 O14 2.287 1_655 S
Co6 O15 2.081 . S
Co6 O16 2.001 1_655 S
Co6 O19 2.274 1_545 S
Co7 O5 2.122 1_565 S
Co7 O18 1.976 . S
Co7 O19 2.327 . S
Co7 O20 2.073 . S
H8 O5 0.980 . S
O9 Co1 2.073 . S
O9 C24 1.245 1_545 S
O10 Co0 2.264 1_545 S
O10 Co1 2.327 . S
O10 C24 1.257 1_545 S
O11 Co1 1.976 . S
O11 C23 1.251 . S
O12 Co2 2.116 . S
O12 C23 1.274 . S
O13 Co2 2.143 1_556 S
O13 C26 1.246 . S
O14 Co6 2.287 1_455 S
O14 C25 1.259 1_455 S
O15 Co6 2.081 . S
O15 C25 1.289 . S
O16 Co6 2.001 1_455 S
O16 C26 1.257 . S
O17 Co2 2.107 1_666 S
O17 C27 1.274 . S
O18 Co7 1.976 . S
O18 C27 1.251 . S
O19 Co6 2.274 1_565 S
O19 Co7 2.327 . S
O19 C28 1.257 1_565 S
O20 Co7 2.073 . S
O20 C28 1.245 1_565 S
C21 O29 1.259 1_455 S
C21 O30 1.289 . S
C22 O31 1.246 . S
C22 O32 1.257 . S
C23 O11 1.251 . S
C23 O12 1.274 . S
C24 O9 1.245 1_565 S
C24 O10 1.257 1_565 S
C25 O14 1.259 1_655 S
C25 O15 1.289 . S
C26 O13 1.246 . S
C26 O16 1.257 . S
C27 O17 1.274 . S
C27 O18 1.251 . S
C28 O19 1.257 1_545 S
C28 O20 1.245 1_545 S
O29 Co0 2.286 1_655 S
O29 C21 1.259 1_655 S
O30 Co0 2.069 . S
O30 C21 1.289 . S
O31 Co2 2.144 1_665 S
O31 C22 1.246 . S
O32 Co0 2.015 1_655 S
O32 C22 1.257 . S
C33 O35 1.253 . S
C33 O37 1.254 1_455 S
C34 O41 1.246 . S
C34 O42 1.259 1_655 S
O35 C33 1.253 . S
O35 Zn36 2.028 . S
Zn36 O35 2.028 . S
Zn36 O40 2.035 . S
Zn36 O42 2.035 . S
Zn36 O43 2.028 . S
O37 C33 1.254 1_655 S
O37 Zn38 2.035 . S
Zn38 O37 2.035 . S
Zn38 O39 2.028 . S
Zn38 O41 2.028 . S
Zn38 O44 2.035 . S
O39 Zn38 2.028 . S
O39 C45 1.246 . S
O40 Zn36 2.035 . S
O40 C45 1.259 1_455 S
O41 C34 1.246 . S
O41 Zn38 2.028 . S
O42 C34 1.259 1_455 S
O42 Zn36 2.035 . S
O43 Zn36 2.028 . S
O43 C46 1.253 . S
O44 Zn38 2.035 . S
O44 C46 1.254 1_655 S
C45 O39 1.246 . S
C45 O40 1.259 1_655 S
C46 O43 1.253 . S
C46 O44 1.254 1_455 S
C47 O49 1.247 1_545 S
C47 O51 1.258 . S
C48 O55 1.253 . S
C48 O56 1.248 1_545 S
O49 C47 1.247 1_565 S
O49 Zn50 2.028 . S
Zn50 O49 2.028 . S
Zn50 O54 2.035 . S
Zn50 O56 2.035 . S
Zn50 O57 2.028 . S
O51 C47 1.258 . S
O51 Zn52 2.035 . S
Zn52 O51 2.035 . S
Zn52 O53 2.028 . S
Zn52 O55 2.028 . S
Zn52 O58 2.035 . S
O53 Zn52 2.028 . S
O53 C59 1.254 . S
O54 Zn50 2.035 . S
O54 C59 1.249 1_565 S
O55 C48 1.253 . S
O55 Zn52 2.028 . S
O56 C48 1.248 1_565 S
O56 Zn50 2.035 . S
O57 Zn50 2.028 . S
O57 C60 1.247 1_565 S
O58 Zn52 2.035 . S
O58 C60 1.258 . S
C59 O53 1.254 . S
C59 O54 1.249 1_545 S
C60 O57 1.247 1_545 S
C60 O58 1.258 . S
C61 C62 1.391 1_655 S
C61 C63 1.394 . S
C61 H77 0.931 . S
C62 C61 1.391 1_455 S
C62 C66 1.376 . S
C63 C61 1.394 . S
C63 C64 1.369 1_655 S
C63 C67 1.531 . S
C64 C63 1.369 1_455 S
C64 C65 1.410 . S
C64 C72 1.503 . S
C65 C64 1.410 . S
C65 C66 1.392 . S
C65 C68 1.511 . S
C66 C62 1.376 . S
C66 C65 1.392 . S
C66 H78 0.929 . S
C67 C63 1.531 . S
C67 H79 0.960 . S
C67 H80 0.962 . S
C67 H81 0.960 . S
C68 C65 1.511 . S
C68 H82 0.961 . S
C68 H83 0.961 . S
C68 H84 0.961 . S
C69 C70 1.370 1_655 S
C69 C71 1.363 . S
C69 H85 0.931 . S
C70 C69 1.370 1_455 S
C70 C74 1.408 . S
C71 C69 1.363 . S
C71 C72 1.370 1_655 S
C71 C75 1.524 . S
C72 C64 1.503 . S
C72 C71 1.370 1_455 S
C72 C73 1.403 . S
C73 C72 1.403 . S
C73 C74 1.404 . S
C73 C76 1.539 . S
C74 C70 1.408 . S
C74 C73 1.404 . S
C74 H86 0.930 . S
C75 C71 1.524 . S
C75 H87 0.956 . S
C75 H88 0.961 . S
C75 H89 0.961 . S
C76 C73 1.539 . S
C76 H90 0.958 . S
C76 H91 0.961 . S
C76 H92 0.960 . S
H77 C61 0.931 . S
H78 C66 0.929 . S
H79 C67 0.960 . S
H80 C67 0.962 . S
H81 C67 0.960 . S
H82 C68 0.961 . S
H83 C68 0.961 . S
H84 C68 0.961 . S
H85 C69 0.931 . S
H86 C74 0.930 . S
H87 C75 0.956 . S
H88 C75 0.961 . S
H89 C75 0.961 . S
H90 C76 0.958 . S
H91 C76 0.961 . S
H92 C76 0.960 . S
C93 C94 1.391 . S
C93 C95 1.394 . S
C93 H109 0.931 . S
C94 C93 1.391 . S
C94 C98 1.376 . S
C95 C93 1.394 . S
C95 C96 1.369 . S
C95 C99 1.531 . S
C96 C95 1.369 . S
C96 C97 1.410 . S
C96 C104 1.503 . S
C97 C96 1.410 . S
C97 C98 1.392 . S
C97 C100 1.511 . S
C98 C94 1.376 . S
C98 C97 1.392 . S
C98 H110 0.929 . S
C99 C95 1.531 . S
C99 H111 0.960 . S
C99 H112 0.962 1_565 S
C99 H113 0.960 . S
C100 C97 1.511 . S
C100 H114 0.961 . S
C100 H115 0.961 . S
C100 H116 0.961 . S
C101 C102 1.370 1_545 S
C101 C103 1.363 . S
C101 H117 0.931 . S
C102 C101 1.370 1_565 S
C102 C106 1.408 . S
C103 C101 1.363 . S
C103 C104 1.370 1_545 S
C103 C107 1.524 . S
C104 C96 1.503 . S
C104 C103 1.370 1_565 S
C104 C105 1.403 . S
C105 C104 1.403 . S
C105 C106 1.404 . S
C105 C108 1.539 . S
C106 C102 1.408 . S
C106 C105 1.404 . S
C106 H118 0.930 . S
C107 C103 1.524 . S
C107 H119 0.956 . S
C107 H120 0.961 . S
C107 H121 0.961 . S
C108 C105 1.539 . S
C108 H122 0.958 . S
C108 H123 0.961 . S
C108 H124 0.960 . S
H109 C93 0.931 . S
H110 C98 0.929 . S
H111 C99 0.960 . S
H112 C99 0.962 1_545 S
H113 C99 0.960 . S
H114 C100 0.961 . S
H115 C100 0.961 . S
H116 C100 0.961 . S
H117 C101 0.931 . S
H118 C106 0.930 . S
H119 C107 0.956 . S
H120 C107 0.961 . S
H121 C107 0.961 . S
H122 C108 0.958 . S
H123 C108 0.961 . S
H124 C108 0.960 . S
C125 C126 1.391 . S
C125 C127 1.394 . S
C125 H141 0.931 . S
C126 C125 1.391 . S
C126 C130 1.376 1_455 S
C127 C125 1.394 . S
C127 C128 1.369 1_455 S
C127 C131 1.531 . S
C128 C127 1.369 1_655 S
C128 C129 1.410 . S
C128 C136 1.503 . S
C129 C128 1.410 . S
C129 C130 1.392 . S
C129 C132 1.511 . S
C130 C126 1.376 1_655 S
C130 C129 1.392 . S
C130 H142 0.929 . S
C131 C127 1.531 . S
C131 H143 0.960 1_455 S
C131 H144 0.962 . S
C131 H145 0.972 . S
C132 C129 1.511 . S
C132 H146 0.961 . S
C132 H147 0.961 . S
C132 H148 0.961 . S
C133 C134 1.363 1_455 S
C133 C135 1.363 . S
C133 H149 0.931 . S
C134 C133 1.363 1_655 S
C134 C138 1.421 . S
C135 C133 1.363 . S
C135 C136 1.370 1_455 S
C135 C139 1.524 . S
C136 C128 1.503 . S
C136 C135 1.370 1_655 S
C136 C137 1.403 . S
C137 C136 1.403 . S
C137 C138 1.404 . S
C137 C140 1.539 . S
C138 C134 1.421 . S
C138 C137 1.404 . S
C138 H150 0.930 . S
C139 C135 1.524 . S
C139 H151 0.956 . S
C139 H152 0.961 . S
C139 H153 0.961 . S
C140 C137 1.539 . S
C140 H154 0.958 . S
C140 H155 0.961 . S
C140 H156 0.960 . S
H141 C125 0.931 . S
H142 C130 0.929 . S
H143 C131 0.960 1_655 S
H144 C131 0.962 . S
H145 C131 0.972 . S
H146 C132 0.961 . S
H147 C132 0.961 . S
H148 C132 0.961 . S
H149 C133 0.931 . S
H150 C138 0.930 . S
H151 C139 0.956 . S
H152 C139 0.961 . S
H153 C139 0.961 . S
H154 C140 0.958 . S
H155 C140 0.961 . S
H156 C140 0.960 . S
C157 C158 1.391 . S
C157 C159 1.394 . S
C157 H173 0.931 . S
C158 C157 1.391 . S
C158 C162 1.376 . S
C159 C157 1.394 . S
C159 C160 1.369 . S
C159 C163 1.531 . S
C160 C159 1.369 . S
C160 C161 1.410 . S
C160 C168 1.503 . S
C161 C160 1.410 . S
C161 C162 1.392 . S
C161 C164 1.511 1_565 S
C162 C158 1.376 . S
C162 C161 1.392 . S
C162 H174 0.929 1_565 S
C163 C159 1.531 . S
C163 H175 0.960 . S
C163 H176 0.962 . S
C163 H177 0.960 . S
C164 C161 1.511 1_545 S
C164 H178 0.961 . S
C164 H179 0.961 . S
C164 H180 0.961 1_545 S
C165 C166 1.370 1_545 S
C165 C167 1.363 . S
C165 H181 0.931 . S
C166 C165 1.370 1_565 S
C166 C170 1.408 . S
C167 C165 1.363 . S
C167 C168 1.370 1_545 S
C167 C171 1.524 . S
C168 C160 1.503 . S
C168 C167 1.370 1_565 S
C168 C169 1.403 . S
C169 C168 1.403 . S
C169 C170 1.404 . S
C169 C172 1.539 . S
C170 C166 1.408 . S
C170 C169 1.404 . S
C170 H182 0.930 . S
C171 C167 1.524 . S
C171 H183 0.956 . S
C171 H184 0.961 . S
C171 H185 0.961 . S
C172 C169 1.539 . S
C172 H186 0.958 . S
C172 H187 0.961 . S
C172 H188 0.960 . S
H173 C157 0.931 . S
H174 C162 0.929 1_545 S
H175 C163 0.960 . S
H176 C163 0.962 . S
H177 C163 0.960 . S
H178 C164 0.961 . S
H179 C164 0.961 . S
H180 C164 0.961 1_565 S
H181 C165 0.931 . S
H182 C170 0.930 . S
H183 C171 0.956 . S
H184 C171 0.961 . S
H185 C171 0.961 . S
H186 C172 0.958 . S
H187 C172 0.961 . S
H188 C172 0.960 . S
C189 C190 1.383 1_655 S
C189 C191 1.394 . S
C189 H205 0.931 . S
C190 C189 1.383 1_455 S
C190 C194 1.388 . S
C191 C189 1.394 . S
C191 C192 1.369 1_655 S
C191 C195 1.531 . S
C192 C191 1.369 1_455 S
C192 C193 1.410 . S
C192 C200 1.503 . S
C193 C192 1.410 . S
C193 C194 1.392 . S
C193 C196 1.511 . S
C194 C190 1.388 . S
C194 C193 1.392 . S
C194 H206 0.929 . S
C195 C191 1.531 . S
C195 H207 0.960 . S
C195 H208 0.962 . S
C195 H209 0.960 . S
C196 C193 1.511 . S
C196 H210 0.961 . S
C196 H211 0.961 . S
C196 H212 0.961 . S
C197 C198 1.370 1_655 S
C197 C199 1.363 . S
C197 H213 0.931 . S
C198 C197 1.370 1_455 S
C198 C202 1.408 . S
C199 C197 1.363 . S
C199 C200 1.370 1_655 S
C199 C203 1.524 . S
C200 C192 1.503 . S
C200 C199 1.370 1_455 S
C200 C201 1.403 . S
C201 C200 1.403 . S
C201 C202 1.404 . S
C201 C204 1.539 . S
C202 C198 1.408 . S
C202 C201 1.404 . S
C202 H214 0.930 . S
C203 C199 1.524 . S
C203 H215 0.956 . S
C203 H216 0.961 . S
C203 H217 0.961 . S
C204 C201 1.539 . S
C204 H218 0.958 . S
C204 H219 0.961 . S
C204 H220 0.960 . S
H205 C189 0.931 . S
H206 C194 0.929 . S
H207 C195 0.960 . S
H208 C195 0.962 . S
H209 C195 0.960 . S
H210 C196 0.961 . S
H211 C196 0.961 . S
H212 C196 0.961 . S
H213 C197 0.931 . S
H214 C202 0.930 . S
H215 C203 0.956 . S
H216 C203 0.961 . S
H217 C203 0.961 . S
H218 C204 0.958 . S
H219 C204 0.961 . S
H220 C204 0.960 . S
C221 C222 1.391 . S
C221 C223 1.394 . S
C221 H237 0.931 . S
C222 C221 1.391 . S
C222 C226 1.376 1_545 S
C223 C221 1.394 . S
C223 C224 1.369 . S
C223 C227 1.531 . S
C224 C223 1.369 . S
C224 C225 1.401 1_545 S
C224 C232 1.503 . S
C225 C224 1.401 1_565 S
C225 C226 1.390 . S
C225 C228 1.522 . S
C226 C222 1.376 1_565 S
C226 C225 1.390 . S
C226 H238 0.929 . S
C227 C223 1.531 . S
C227 H239 0.960 . S
C227 H240 0.962 . S
C227 H241 0.960 . S
C228 C225 1.522 . S
C228 H242 0.961 . S
C228 H243 0.961 . S
C228 H244 0.961 1_565 S
C229 C230 1.370 1_565 S
C229 C231 1.363 . S
C229 H245 0.931 . S
C230 C229 1.370 1_545 S
C230 C234 1.408 . S
C231 C229 1.363 . S
C231 C232 1.370 1_565 S
C231 C235 1.524 . S
C232 C224 1.503 . S
C232 C231 1.370 1_545 S
C232 C233 1.403 . S
C233 C232 1.403 . S
C233 C234 1.404 . S
C233 C236 1.539 . S
C234 C230 1.408 . S
C234 C233 1.404 . S
C234 H246 0.930 . S
C235 C231 1.524 . S
C235 H247 0.956 . S
C235 H248 0.961 . S
C235 H249 0.961 . S
C236 C233 1.539 . S
C236 H250 0.958 . S
C236 H251 0.961 . S
C236 H252 0.960 . S
H237 C221 0.931 . S
H238 C226 0.929 . S
H239 C227 0.960 . S
H240 C227 0.962 . S
H241 C227 0.960 . S
H242 C228 0.961 . S
H243 C228 0.961 . S
H244 C228 0.961 1_545 S
H245 C229 0.931 . S
H246 C234 0.930 . S
H247 C235 0.956 . S
H248 C235 0.961 . S
H249 C235 0.961 . S
H250 C236 0.958 . S
H251 C236 0.961 . S
H252 C236 0.960 . S
C253 C254 1.391 . S
C253 C255 1.394 . S
C253 H269 0.931 . S
C254 C253 1.391 . S
C254 C258 1.376 . S
C255 C253 1.394 . S
C255 C256 1.369 . S
C255 C259 1.531 1_655 S
C256 C255 1.369 . S
C256 C257 1.410 . S
C256 C264 1.503 . S
C257 C256 1.410 . S
C257 C258 1.392 . S
C257 C260 1.511 . S
C258 C254 1.376 . S
C258 C257 1.392 . S
C258 H270 0.929 . S
C259 C255 1.531 1_455 S
C259 H271 0.960 1_455 S
C259 H272 0.962 . S
C259 H273 0.960 1_455 S
C260 C257 1.511 . S
C260 H274 0.961 . S
C260 H275 0.961 . S
C260 H276 0.961 . S
C261 C262 1.370 1_455 S
C261 C263 1.363 . S
C261 H277 0.931 . S
C262 C261 1.370 1_655 S
C262 C266 1.408 . S
C263 C261 1.363 . S
C263 C264 1.370 1_455 S
C263 C267 1.524 . S
C264 C256 1.503 . S
C264 C263 1.370 1_655 S
C264 C265 1.403 . S
C265 C264 1.403 . S
C265 C266 1.404 . S
C265 C268 1.539 . S
C266 C262 1.408 . S
C266 C265 1.404 . S
C266 H278 0.930 . S
C267 C263 1.524 . S
C267 H279 0.956 . S
C267 H280 0.961 . S
C267 H281 0.961 . S
C268 C265 1.539 . S
C268 H282 0.958 . S
C268 H283 0.961 . S
C268 H284 0.960 . S
H269 C253 0.931 . S
H270 C258 0.929 . S
H271 C259 0.960 1_655 S
H272 C259 0.962 . S
H273 C259 0.960 1_655 S
H274 C260 0.961 . S
H275 C260 0.961 . S
H276 C260 0.961 . S
H277 C261 0.931 . S
H278 C266 0.930 . S
H279 C267 0.956 . S
H280 C267 0.961 . S
H281 C267 0.961 . S
H282 C268 0.958 . S
H283 C268 0.961 . S
H284 C268 0.960 . S
C285 C286 1.391 . S
C285 C287 1.394 . S
C285 H301 0.931 . S
C286 C285 1.391 . S
C286 C290 1.376 . S
C287 C285 1.394 . S
C287 C288 1.369 . S
C287 C291 1.531 . S
C288 C287 1.369 . S
C288 C289 1.410 . S
C288 C296 1.503 . S
C289 C288 1.410 . S
C289 C290 1.392 . S
C289 C292 1.511 1_545 S
C290 C286 1.376 . S
C290 C289 1.392 . S
C290 H302 0.929 . S
C291 C287 1.531 . S
C291 H303 0.960 . S
C291 H304 0.962 . S
C291 H305 0.960 . S
C292 C289 1.511 1_565 S
C292 H306 0.961 . S
C292 H307 0.961 . S
C292 H308 0.961 1_565 S
C293 C294 1.370 1_565 S
C293 C295 1.363 . S
C293 H309 0.931 . S
C294 C293 1.370 1_545 S
C294 C298 1.408 . S
C295 C293 1.363 . S
C295 C296 1.370 1_565 S
C295 C299 1.524 . S
C296 C288 1.503 . S
C296 C295 1.370 1_545 S
C296 C297 1.403 . S
C297 C296 1.403 . S
C297 C298 1.404 . S
C297 C300 1.539 . S
C298 C294 1.408 . S
C298 C297 1.404 . S
C298 H310 0.930 . S
C299 C295 1.524 . S
C299 H311 0.956 . S
C299 H312 0.961 . S
C299 H313 0.961 . S
C300 C297 1.539 . S
C300 H314 0.958 . S
C300 H315 0.961 . S
C300 H316 0.960 . S
H301 C285 0.931 . S
H302 C290 0.929 . S
H303 C291 0.960 . S
H304 C291 0.962 . S
H305 C291 0.960 . S
H306 C292 0.961 . S
H307 C292 0.961 . S
H308 C292 0.961 1_545 S
H309 C293 0.931 . S
H310 C298 0.930 . S
H311 C299 0.956 . S
H312 C299 0.961 . S
H313 C299 0.961 . S
H314 C300 0.958 . S
H315 C300 0.961 . S
H316 C300 0.960 . S
C62 C23 1.271 . S
C70 C34 1.392 1_455 S
C94 C22 1.411 . S
C102 C60 1.472 1_565 S
C126 C21 1.696 . S
C134 C46 1.721 1_655 S
C158 C24 1.502 . S
C166 C48 1.542 1_565 S
C190 C27 1.322 1_455 S
C198 C33 1.389 . S
C222 C26 1.419 . S
C230 C59 1.472 . S
C262 C45 1.728 . S
C254 C25 1.719 . S
C286 C28 1.507 . S
C294 C47 1.541 . S
