# Generated by pormake.
# Topology gar, (4,6)-cn, num edge types: 1
# Building blocks:
#     Node 0, Type 0, BuildingBlock: NAHDIM_clean_sbu_0, # of connection points: 4
#     Node 1, Type 0, BuildingBlock: NAHDIM_clean_sbu_0, # of connection points: 4
#     Node 2, Type 0, BuildingBlock: NAHDIM_clean_sbu_0, # of connection points: 4
#     Node 3, Type 0, BuildingBlock: NAHDIM_clean_sbu_0, # of connection points: 4
#     Node 4, Type 0, BuildingBlock: NAHDIM_clean_sbu_0, # of connection points: 4
#     Node 5, Type 0, BuildingBlock: NAHDIM_clean_sbu_0, # of connection points: 4
#     Node 6, Type 0, BuildingBlock: NAHDIM_clean_sbu_0, # of connection points: 4
#     Node 7, Type 0, BuildingBlock: NAHDIM_clean_sbu_0, # of connection points: 4
#     Node 8, Type 0, BuildingBlock: NAHDIM_clean_sbu_0, # of connection points: 4
#     Node 9, Type 0, BuildingBlock: NAHDIM_clean_sbu_0, # of connection points: 4
#     Node 10, Type 0, BuildingBlock: NAHDIM_clean_sbu_0, # of connection points: 4
#     Node 11, Type 0, BuildingBlock: NAHDIM_clean_sbu_0, # of connection points: 4
#     Node 12, Type 0, BuildingBlock: NAHDIM_clean_sbu_0, # of connection points: 4
#     Node 13, Type 0, BuildingBlock: NAHDIM_clean_sbu_0, # of connection points: 4
#     Node 14, Type 0, BuildingBlock: NAHDIM_clean_sbu_0, # of connection points: 4
#     Node 15, Type 0, BuildingBlock: NAHDIM_clean_sbu_0, # of connection points: 4
#     Node 16, Type 0, BuildingBlock: NAHDIM_clean_sbu_0, # of connection points: 4
#     Node 17, Type 0, BuildingBlock: NAHDIM_clean_sbu_0, # of connection points: 4
#     Node 18, Type 0, BuildingBlock: NAHDIM_clean_sbu_0, # of connection points: 4
#     Node 19, Type 0, BuildingBlock: NAHDIM_clean_sbu_0, # of connection points: 4
#     Node 20, Type 0, BuildingBlock: NAHDIM_clean_sbu_0, # of connection points: 4
#     Node 21, Type 0, BuildingBlock: NAHDIM_clean_sbu_0, # of connection points: 4
#     Node 22, Type 0, BuildingBlock: NAHDIM_clean_sbu_0, # of connection points: 4
#     Node 23, Type 0, BuildingBlock: NAHDIM_clean_sbu_0, # of connection points: 4
#     Node 24, Type 1, BuildingBlock: PAMTOO_clean_sbu_0, # of connection points: 6
#     Node 25, Type 1, BuildingBlock: PAMTOO_clean_sbu_0, # of connection points: 6
#     Node 26, Type 1, BuildingBlock: PAMTOO_clean_sbu_0, # of connection points: 6
#     Node 27, Type 1, BuildingBlock: PAMTOO_clean_sbu_0, # of connection points: 6
#     Node 28, Type 1, BuildingBlock: PAMTOO_clean_sbu_0, # of connection points: 6
#     Node 29, Type 1, BuildingBlock: PAMTOO_clean_sbu_0, # of connection points: 6
#     Node 30, Type 1, BuildingBlock: PAMTOO_clean_sbu_0, # of connection points: 6
#     Node 31, Type 1, BuildingBlock: PAMTOO_clean_sbu_0, # of connection points: 6
#     Node 32, Type 1, BuildingBlock: PAMTOO_clean_sbu_0, # of connection points: 6
#     Node 33, Type 1, BuildingBlock: PAMTOO_clean_sbu_0, # of connection points: 6
#     Node 34, Type 1, BuildingBlock: PAMTOO_clean_sbu_0, # of connection points: 6
#     Node 35, Type 1, BuildingBlock: PAMTOO_clean_sbu_0, # of connection points: 6
#     Node 36, Type 1, BuildingBlock: PAMTOO_clean_sbu_0, # of connection points: 6
#     Node 37, Type 1, BuildingBlock: PAMTOO_clean_sbu_0, # of connection points: 6
#     Node 38, Type 1, BuildingBlock: PAMTOO_clean_sbu_0, # of connection points: 6
#     Node 39, Type 1, BuildingBlock: PAMTOO_clean_sbu_0, # of connection points: 6
#     Edge 40, Type (0, 1), BuildingBlock: ZUJKAS_clean_linker_0, # of connection points: 2
#     Edge 41, Type (0, 1), BuildingBlock: ZUJKAS_clean_linker_0, # of connection points: 2
#     Edge 42, Type (0, 1), BuildingBlock: ZUJKAS_clean_linker_0, # of connection points: 2
#     Edge 43, Type (0, 1), BuildingBlock: ZUJKAS_clean_linker_0, # of connection points: 2
#     Edge 44, Type (0, 1), BuildingBlock: ZUJKAS_clean_linker_0, # of connection points: 2
#     Edge 45, Type (0, 1), BuildingBlock: ZUJKAS_clean_linker_0, # of connection points: 2
#     Edge 46, Type (0, 1), BuildingBlock: ZUJKAS_clean_linker_0, # of connection points: 2
#     Edge 47, Type (0, 1), BuildingBlock: ZUJKAS_clean_linker_0, # of connection points: 2
#     Edge 48, Type (0, 1), BuildingBlock: ZUJKAS_clean_linker_0, # of connection points: 2
#     Edge 49, Type (0, 1), BuildingBlock: ZUJKAS_clean_linker_0, # of connection points: 2
#     Edge 50, Type (0, 1), BuildingBlock: ZUJKAS_clean_linker_0, # of connection points: 2
#     Edge 51, Type (0, 1), BuildingBlock: ZUJKAS_clean_linker_0, # of connection points: 2
#     Edge 52, Type (0, 1), BuildingBlock: ZUJKAS_clean_linker_0, # of connection points: 2
#     Edge 53, Type (0, 1), BuildingBlock: ZUJKAS_clean_linker_0, # of connection points: 2
#     Edge 54, Type (0, 1), BuildingBlock: ZUJKAS_clean_linker_0, # of connection points: 2
#     Edge 55, Type (0, 1), BuildingBlock: ZUJKAS_clean_linker_0, # of connection points: 2
#     Edge 56, Type (0, 1), BuildingBlock: ZUJKAS_clean_linker_0, # of connection points: 2
#     Edge 57, Type (0, 1), BuildingBlock: ZUJKAS_clean_linker_0, # of connection points: 2
#     Edge 58, Type (0, 1), BuildingBlock: ZUJKAS_clean_linker_0, # of connection points: 2
#     Edge 59, Type (0, 1), BuildingBlock: ZUJKAS_clean_linker_0, # of connection points: 2
#     Edge 60, Type (0, 1), BuildingBlock: ZUJKAS_clean_linker_0, # of connection points: 2
#     Edge 61, Type (0, 1), BuildingBlock: ZUJKAS_clean_linker_0, # of connection points: 2
#     Edge 62, Type (0, 1), BuildingBlock: ZUJKAS_clean_linker_0, # of connection points: 2
#     Edge 63, Type (0, 1), BuildingBlock: ZUJKAS_clean_linker_0, # of connection points: 2
#     Edge 64, Type (0, 1), BuildingBlock: ZUJKAS_clean_linker_0, # of connection points: 2
#     Edge 65, Type (0, 1), BuildingBlock: ZUJKAS_clean_linker_0, # of connection points: 2
#     Edge 66, Type (0, 1), BuildingBlock: ZUJKAS_clean_linker_0, # of connection points: 2
#     Edge 67, Type (0, 1), BuildingBlock: ZUJKAS_clean_linker_0, # of connection points: 2
#     Edge 68, Type (0, 1), BuildingBlock: ZUJKAS_clean_linker_0, # of connection points: 2
#     Edge 69, Type (0, 1), BuildingBlock: ZUJKAS_clean_linker_0, # of connection points: 2
#     Edge 70, Type (0, 1), BuildingBlock: ZUJKAS_clean_linker_0, # of connection points: 2
#     Edge 71, Type (0, 1), BuildingBlock: ZUJKAS_clean_linker_0, # of connection points: 2
#     Edge 72, Type (0, 1), BuildingBlock: ZUJKAS_clean_linker_0, # of connection points: 2
#     Edge 73, Type (0, 1), BuildingBlock: ZUJKAS_clean_linker_0, # of connection points: 2
#     Edge 74, Type (0, 1), BuildingBlock: ZUJKAS_clean_linker_0, # of connection points: 2
#     Edge 75, Type (0, 1), BuildingBlock: ZUJKAS_clean_linker_0, # of connection points: 2
#     Edge 76, Type (0, 1), BuildingBlock: ZUJKAS_clean_linker_0, # of connection points: 2
#     Edge 77, Type (0, 1), BuildingBlock: ZUJKAS_clean_linker_0, # of connection points: 2
#     Edge 78, Type (0, 1), BuildingBlock: ZUJKAS_clean_linker_0, # of connection points: 2
#     Edge 79, Type (0, 1), BuildingBlock: ZUJKAS_clean_linker_0, # of connection points: 2
#     Edge 80, Type (0, 1), BuildingBlock: ZUJKAS_clean_linker_0, # of connection points: 2
#     Edge 81, Type (0, 1), BuildingBlock: ZUJKAS_clean_linker_0, # of connection points: 2
#     Edge 82, Type (0, 1), BuildingBlock: ZUJKAS_clean_linker_0, # of connection points: 2
#     Edge 83, Type (0, 1), BuildingBlock: ZUJKAS_clean_linker_0, # of connection points: 2
#     Edge 84, Type (0, 1), BuildingBlock: ZUJKAS_clean_linker_0, # of connection points: 2
#     Edge 85, Type (0, 1), BuildingBlock: ZUJKAS_clean_linker_0, # of connection points: 2
#     Edge 86, Type (0, 1), BuildingBlock: ZUJKAS_clean_linker_0, # of connection points: 2
#     Edge 87, Type (0, 1), BuildingBlock: ZUJKAS_clean_linker_0, # of connection points: 2
#     Edge 88, Type (0, 1), BuildingBlock: ZUJKAS_clean_linker_0, # of connection points: 2
#     Edge 89, Type (0, 1), BuildingBlock: ZUJKAS_clean_linker_0, # of connection points: 2
#     Edge 90, Type (0, 1), BuildingBlock: ZUJKAS_clean_linker_0, # of connection points: 2
#     Edge 91, Type (0, 1), BuildingBlock: ZUJKAS_clean_linker_0, # of connection points: 2
#     Edge 92, Type (0, 1), BuildingBlock: ZUJKAS_clean_linker_0, # of connection points: 2
#     Edge 93, Type (0, 1), BuildingBlock: ZUJKAS_clean_linker_0, # of connection points: 2
#     Edge 94, Type (0, 1), BuildingBlock: ZUJKAS_clean_linker_0, # of connection points: 2
#     Edge 95, Type (0, 1), BuildingBlock: ZUJKAS_clean_linker_0, # of connection points: 2
#     Edge 96, Type (0, 1), BuildingBlock: ZUJKAS_clean_linker_0, # of connection points: 2
#     Edge 97, Type (0, 1), BuildingBlock: ZUJKAS_clean_linker_0, # of connection points: 2
#     Edge 98, Type (0, 1), BuildingBlock: ZUJKAS_clean_linker_0, # of connection points: 2
#     Edge 99, Type (0, 1), BuildingBlock: ZUJKAS_clean_linker_0, # of connection points: 2
#     Edge 100, Type (0, 1), BuildingBlock: ZUJKAS_clean_linker_0, # of connection points: 2
#     Edge 101, Type (0, 1), BuildingBlock: ZUJKAS_clean_linker_0, # of connection points: 2
#     Edge 102, Type (0, 1), BuildingBlock: ZUJKAS_clean_linker_0, # of connection points: 2
#     Edge 103, Type (0, 1), BuildingBlock: ZUJKAS_clean_linker_0, # of connection points: 2
#     Edge 104, Type (0, 1), BuildingBlock: ZUJKAS_clean_linker_0, # of connection points: 2
#     Edge 105, Type (0, 1), BuildingBlock: ZUJKAS_clean_linker_0, # of connection points: 2
#     Edge 106, Type (0, 1), BuildingBlock: ZUJKAS_clean_linker_0, # of connection points: 2
#     Edge 107, Type (0, 1), BuildingBlock: ZUJKAS_clean_linker_0, # of connection points: 2
#     Edge 108, Type (0, 1), BuildingBlock: ZUJKAS_clean_linker_0, # of connection points: 2
#     Edge 109, Type (0, 1), BuildingBlock: ZUJKAS_clean_linker_0, # of connection points: 2
#     Edge 110, Type (0, 1), BuildingBlock: ZUJKAS_clean_linker_0, # of connection points: 2
#     Edge 111, Type (0, 1), BuildingBlock: ZUJKAS_clean_linker_0, # of connection points: 2
#     Edge 112, Type (0, 1), BuildingBlock: ZUJKAS_clean_linker_0, # of connection points: 2
#     Edge 113, Type (0, 1), BuildingBlock: ZUJKAS_clean_linker_0, # of connection points: 2
#     Edge 114, Type (0, 1), BuildingBlock: ZUJKAS_clean_linker_0, # of connection points: 2
#     Edge 115, Type (0, 1), BuildingBlock: ZUJKAS_clean_linker_0, # of connection points: 2
#     Edge 116, Type (0, 1), BuildingBlock: ZUJKAS_clean_linker_0, # of connection points: 2
#     Edge 117, Type (0, 1), BuildingBlock: ZUJKAS_clean_linker_0, # of connection points: 2
#     Edge 118, Type (0, 1), BuildingBlock: ZUJKAS_clean_linker_0, # of connection points: 2
#     Edge 119, Type (0, 1), BuildingBlock: ZUJKAS_clean_linker_0, # of connection points: 2
#     Edge 120, Type (0, 1), BuildingBlock: ZUJKAS_clean_linker_0, # of connection points: 2
#     Edge 121, Type (0, 1), BuildingBlock: ZUJKAS_clean_linker_0, # of connection points: 2
#     Edge 122, Type (0, 1), BuildingBlock: ZUJKAS_clean_linker_0, # of connection points: 2
#     Edge 123, Type (0, 1), BuildingBlock: ZUJKAS_clean_linker_0, # of connection points: 2
#     Edge 124, Type (0, 1), BuildingBlock: ZUJKAS_clean_linker_0, # of connection points: 2
#     Edge 125, Type (0, 1), BuildingBlock: ZUJKAS_clean_linker_0, # of connection points: 2
#     Edge 126, Type (0, 1), BuildingBlock: ZUJKAS_clean_linker_0, # of connection points: 2
#     Edge 127, Type (0, 1), BuildingBlock: ZUJKAS_clean_linker_0, # of connection points: 2
#     Edge 128, Type (0, 1), BuildingBlock: ZUJKAS_clean_linker_0, # of connection points: 2
#     Edge 129, Type (0, 1), BuildingBlock: ZUJKAS_clean_linker_0, # of connection points: 2
#     Edge 130, Type (0, 1), BuildingBlock: ZUJKAS_clean_linker_0, # of connection points: 2
#     Edge 131, Type (0, 1), BuildingBlock: ZUJKAS_clean_linker_0, # of connection points: 2
#     Edge 132, Type (0, 1), BuildingBlock: ZUJKAS_clean_linker_0, # of connection points: 2
#     Edge 133, Type (0, 1), BuildingBlock: ZUJKAS_clean_linker_0, # of connection points: 2
#     Edge 134, Type (0, 1), BuildingBlock: ZUJKAS_clean_linker_0, # of connection points: 2
#     Edge 135, Type (0, 1), BuildingBlock: ZUJKAS_clean_linker_0, # of connection points: 2
# Relax obj value: 0.138
# Max RMSD: 0.255
# Mean RMSD: 0.178
data_MOF--net-gar--node1-NAHDIM_clean_sbu_0--node2-PAMTOO_clean_sbu_0--edge1-ZUJKAS_clean_linker_0
_symmetry_space_group_name_H-M    P1
_symmetry_Int_Tables_number       1
_symmetry_cell_setting            triclinic
loop_
_symmetry_equiv_pos_as_xyz
'x, y, z'
_cell_length_a     76.619407
_cell_length_b     75.424436
_cell_length_c     71.985498
_cell_angle_alpha  96.312223
_cell_angle_beta   95.641953
_cell_angle_gamma 105.14392
loop_
_atom_site_label
_atom_site_type_symbol
_atom_site_fract_x
_atom_site_fract_y
_atom_site_fract_z
_atom_type_partial_charge
C0 C 0.07635 0.30283 0.35285 0.0
O1 O 0.07691 0.3015 0.37093 0.0
O2 O 0.03764 0.28344 0.37536 0.0
Zn3 Zn 0.04 0.30477 0.35957 0.0
O4 O 0.04518 0.3294 0.37719 0.0
C5 C 1.00068 0.28939 0.34603 0.0
O6 O 1.00241 0.27777 0.35795 0.0
O7 O 0.06171 0.30474 0.34413 0.0
C8 C 0.03227 0.33256 0.38575 0.0
O9 O 0.01652 0.3198 0.38315 0.0
C10 C 0.04295 0.28566 0.393 0.0
O11 O 0.05046 0.30253 0.40189 0.0
O12 O 0.01497 0.30159 0.34339 0.0
C13 C 0.97881 0.75928 0.69426 0.0
O14 O 0.97876 0.76102 0.6763 0.0
O15 O 0.0108 0.73219 0.67163 0.0
Zn16 Zn 0.01502 0.75739 0.68794 0.0
O17 O 0.01592 0.77755 0.67088 0.0
C18 C 0.04795 0.75012 0.70666 0.0
O19 O 0.03826 0.73282 0.70145 0.0
O20 O 0.99323 0.75718 0.70325 0.0
C21 C 0.03068 0.78833 0.66741 0.0
O22 O 0.04634 0.78632 0.6747 0.0
C23 C 0.01998 0.73089 0.65796 0.0
O24 O 0.03117 0.74603 0.65404 0.0
O25 O 0.04051 0.76305 0.70374 0.0
C26 C 0.57944 0.81257 0.84927 0.0
O27 O 0.5819 0.82413 0.86495 0.0
O28 O 0.53775 0.7826 0.87375 0.0
Zn29 Zn 0.54131 0.8038 0.85773 0.0
O30 O 0.54628 0.82873 0.87489 0.0
C31 C 0.50213 0.79497 0.84831 0.0
O32 O 0.5036 0.79075 0.86551 0.0
O33 O 0.5632 0.80285 0.84281 0.0
C34 C 0.54088 0.82959 0.89109 0.0
O35 O 0.53287 0.81409 0.89717 0.0
C36 C 0.55092 0.77898 0.88339 0.0
O37 O 0.56761 0.78929 0.88321 0.0
O38 O 0.51673 0.80065 0.84092 0.0
C39 C 0.47469 0.256 0.19337 0.0
O40 O 0.47487 0.25794 0.17546 0.0
O41 O 0.5066 0.22763 0.17161 0.0
Zn42 Zn 0.51099 0.25325 0.18751 0.0
O43 O 0.51257 0.27306 0.16995 0.0
C44 C 0.54944 0.25669 0.19495 0.0
O45 O 0.54609 0.25258 0.17652 0.0
O46 O 0.48893 0.25356 0.20241 0.0
C47 C 0.52345 0.2893 0.17408 0.0
O48 O 0.53434 0.29356 0.19015 0.0
C49 C 0.51061 0.22604 0.15483 0.0
O50 O 0.51636 0.24112 0.14708 0.0
O51 O 0.53626 0.25835 0.20399 0.0
C52 C 0.01096 0.79287 0.12433 0.0
O53 O 0.00617 0.78999 0.10597 0.0
O54 O 0.03934 0.77094 0.09633 0.0
Zn55 Zn 0.04633 0.79685 0.11224 0.0
O56 O 0.04559 0.81833 0.09677 0.0
C57 C 0.07344 0.78788 0.13692 0.0
O58 O 0.0593 0.77355 0.13682 0.0
O59 O 0.02777 0.79627 0.13069 0.0
C60 C 0.05102 0.835 0.10519 0.0
O61 O 0.05767 0.83783 0.12313 0.0
C62 C 0.0512 0.76389 0.08957 0.0
O63 O 0.06816 0.77417 0.0913 0.0
O64 O 0.07149 0.80065 0.12734 0.0
C65 C 0.52271 0.77892 0.40493 0.0
O66 O 0.51596 0.79325 0.4065 0.0
O67 O 0.48966 0.74029 0.43972 0.0
Zn68 Zn 0.49344 0.76376 0.42647 0.0
O69 O 0.49901 0.78868 0.44413 0.0
C70 C 0.45486 0.75489 0.40964 0.0
O71 O 0.45169 0.74738 0.42503 0.0
O72 O 0.51527 0.76467 0.41225 0.0
C73 C 0.48664 0.7967 0.44732 0.0
O74 O 0.46961 0.78795 0.44071 0.0
C75 C 0.50213 0.73793 0.45153 0.0
O76 O 0.51719 0.7515 0.45646 0.0
O77 O 0.47131 0.76208 0.40716 0.0
C78 C 0.51225 0.28669 0.62338 0.0
O79 O 0.50802 0.27851 0.60583 0.0
O80 O 0.5444 0.27194 0.59561 0.0
Zn81 Zn 0.54898 0.29712 0.61252 0.0
O82 O 0.55025 0.32013 0.59884 0.0
C83 C 0.58607 0.29562 0.62299 0.0
O84 O 0.58379 0.28822 0.60522 0.0
O85 O 0.52882 0.29537 0.62938 0.0
C86 C 0.53713 0.32217 0.58767 0.0
O87 O 0.52227 0.30831 0.58318 0.0
C88 C 0.54173 0.25795 0.60453 0.0
O89 O 0.54146 0.26081 0.62283 0.0
O90 O 0.57313 0.30102 0.62944 0.0
C91 C 0.027 0.28083 0.90386 0.0
O92 O 0.02387 0.29663 0.90999 0.0
O93 O 0.99653 0.24363 0.94012 0.0
Zn94 Zn 0.99668 0.26512 0.92443 0.0
O95 O 1.00226 0.29066 0.94083 0.0
C96 C 0.97006 0.27515 0.89976 0.0
O97 O 0.98291 0.29095 0.90347 0.0
O98 O 0.01706 0.26582 0.90805 0.0
C99 C 0.98988 0.29696 0.94746 0.0
O100 O 0.97314 0.28607 0.94527 0.0
C101 C 0.98577 0.22732 0.93543 0.0
O102 O 0.97328 0.22426 0.92069 0.0
O103 O 0.97263 0.26121 0.90703 0.0
C104 C 0.38161 0.06909 0.26837 0.0
O105 O 0.3976 0.07685 0.26344 0.0
O106 O 0.41788 0.0486 0.26145 0.0
Zn107 Zn 0.39744 0.03939 0.2764 0.0
O108 O 0.40766 0.04137 0.30351 0.0
C109 C 0.39297 1.00028 0.26615 0.0
O110 O 0.41031 0.00462 0.27306 0.0
O111 O 0.37888 0.05353 0.27437 0.0
C112 C 0.40196 0.02917 0.31398 0.0
O113 O 0.38824 0.01462 0.30723 0.0
C114 C 0.43349 0.05856 0.26924 0.0
O115 O 0.43621 0.06379 0.28755 0.0
O116 O 0.38483 0.01293 0.26606 0.0
C117 C 0.31601 0.17334 0.52162 0.0
O118 O 0.32149 0.19127 0.52748 0.0
O119 O 0.28345 0.19659 0.53863 0.0
Zn120 Zn 0.28089 0.18042 0.51369 0.0
O121 O 0.28401 0.1951 0.49186 0.0
C122 C 0.24155 0.16716 0.50755 0.0
O123 O 0.24277 0.18488 0.50785 0.0
O124 O 0.29938 0.16587 0.51505 0.0
C125 C 0.27904 0.18594 0.47543 0.0
O126 O 0.27228 0.16785 0.4737 0.0
C127 C 0.27849 0.21142 0.54083 0.0
O128 O 0.27193 0.21751 0.526 0.0
O129 O 0.25606 0.16202 0.50955 0.0
C130 C 0.14028 0.99233 0.78026 0.0
O131 O 0.12253 0.98535 0.77898 0.0
O132 O 0.11502 0.02396 0.76039 0.0
Zn133 Zn 0.13137 0.02751 0.78518 0.0
O134 O 0.11716 0.02327 0.80736 0.0
C135 C 0.14423 0.06683 0.78267 0.0
O136 O 0.12814 0.06383 0.77278 0.0
O137 O 0.14696 0.00983 0.78304 0.0
C138 C 0.11221 0.03637 0.81603 0.0
O139 O 0.11588 0.0526 0.81003 0.0
C140 C 0.09945 0.02709 0.75841 0.0
O141 O 0.09257 0.03226 0.77342 0.0
O142 O 0.14849 0.05347 0.78952 0.0
C143 C 0.23937 0.93461 0.00846 0.0
O144 O 0.23027 0.91804 -0.00022 0.0
O145 O 0.26262 0.90024 0.03008 0.0
Zn146 Zn 0.26924 0.91819 0.01166 0.0
O147 O 0.26374 0.90418 0.98555 0.0
C148 C 0.30482 0.93446 0.03305 0.0
O149 O 0.29608 0.93065 0.04757 0.0
O150 O 0.25614 0.93773 0.01457 0.0
C151 C 0.27057 0.8906 0.98306 0.0
O152 O 0.28037 0.88686 0.99736 0.0
C153 C 0.24941 0.8856 0.02608 0.0
O154 O 0.23908 0.88246 0.00973 0.0
O155 O 0.29604 0.93041 0.01654 0.0
C156 C 0.23975 0.3954 0.01943 0.0
O157 O 0.2371 0.37975 0.00815 0.0
O158 O 0.27277 0.37686 0.05751 0.0
Zn159 Zn 0.27389 0.38824 0.03349 0.0
O160 O 0.27127 0.36961 0.01017 0.0
C161 C 0.3119 0.40698 0.0463 0.0
O162 O 0.31052 0.39347 0.05661 0.0
O163 O 0.25423 0.40134 0.03114 0.0
C164 C 0.28492 0.36469 0.00501 0.0
O165 O 0.30072 0.37082 0.01578 0.0
C166 C 0.2634 0.36067 0.0592 0.0
O167 O 0.25361 0.34974 0.04423 0.0
O168 O 0.298 0.40754 0.03541 0.0
C169 C 0.80599 0.13477 0.00842 0.0
O170 O 0.79271 0.13756 0.99714 0.0
O171 O 0.80003 0.16953 0.06058 0.0
Zn172 Zn 0.79114 0.15551 0.03455 0.0
O173 O 0.78823 0.17302 0.01622 0.0
C174 C 0.75587 0.14052 0.046 0.0
O175 O 0.76154 0.15487 0.05933 0.0
O176 O 0.80829 0.14138 0.02579 0.0
C177 C 0.77695 0.18264 0.01777 0.0
O178 O 0.76757 0.18168 0.03212 0.0
C179 C 0.80898 0.18655 0.06341 0.0
O180 O 0.81363 0.19506 0.04894 0.0
O181 O 0.76646 0.13772 0.03416 0.0
C182 C 0.16621 0.49649 0.27264 0.0
O183 O 0.16082 0.5073 0.28509 0.0
O184 O 0.13558 0.50621 0.22088 0.0
Zn185 Zn 0.14717 0.51361 0.24764 0.0
O186 O 0.12764 0.5131 0.26425 0.0
C187 C 0.15998 0.55157 0.24142 0.0
O188 O 0.14598 0.54651 0.22805 0.0
O189 O 0.16179 0.49661 0.25519 0.0
C190 C 0.11473 0.52025 0.2601 0.0
O191 O 0.11391 0.52749 0.24437 0.0
C192 C 0.12159 0.49242 0.21629 0.0
O193 O 0.11548 0.4822 0.22917 0.0
O194 O 0.16341 0.53965 0.25133 0.0
C195 C 0.75282 0.9116 0.51953 0.0
O196 O 0.7576 0.90458 0.50394 0.0
O197 O 0.77556 0.88122 0.56021 0.0
Zn198 Zn 0.77846 0.89435 0.5373 0.0
O199 O 0.77511 0.87611 0.51355 0.0
C200 C 0.81331 0.92022 0.555 0.0
O201 O 0.8068 0.9178 0.57103 0.0
O202 O 0.75994 0.90895 0.53533 0.0
C203 C 0.78893 0.87205 0.50771 0.0
O204 O 0.80499 0.87902 0.51786 0.0
C205 C 0.78712 0.87327 0.56662 0.0
O206 O 0.80135 0.8732 0.55784 0.0
O207 O 0.80356 0.91198 0.53961 0.0
C208 C 0.92276 0.07301 0.26714 0.0
O209 O 0.93994 0.07943 0.26475 0.0
O210 O 0.94323 0.03743 0.24497 0.0
Zn211 Zn 0.93122 0.0375 0.26862 0.0
O212 O 0.94872 0.04236 0.29259 0.0
C213 C 0.91473 0.99783 0.25884 0.0
O214 O 0.92866 0.99846 0.24939 0.0
O215 O 0.91664 0.05608 0.26915 0.0
C216 C 0.95823 0.03133 0.29615 0.0
O217 O 0.95772 0.0174 0.28323 0.0
C218 C 0.9586 0.04793 0.24278 0.0
O219 O 0.96835 0.05995 0.25705 0.0
O220 O 0.91326 0.01266 0.26794 0.0
C221 C 0.32163 0.63795 0.505 0.0
O222 O 0.32032 0.65371 0.49968 0.0
O223 O 0.30764 0.65724 0.55752 0.0
Zn224 Zn 0.29715 0.64514 0.53111 0.0
O225 O 0.29217 0.66461 0.51613 0.0
C226 C 0.26123 0.63341 0.53956 0.0
O227 O 0.26595 0.65077 0.54764 0.0
O228 O 0.31339 0.63198 0.51852 0.0
C229 C 0.27959 0.66033 0.50223 0.0
O230 O 0.27014 0.6429 0.4974 0.0
C231 C 0.3166 0.67426 0.56056 0.0
O232 O 0.32046 0.68314 0.54612 0.0
O233 O 0.27297 0.62709 0.5318 0.0
C234 C 0.40391 0.55601 0.78486 0.0
O235 O 0.40139 0.54274 0.79554 0.0
O236 O 0.43954 0.53973 0.74494 0.0
Zn237 Zn 0.42704 0.53588 0.76813 0.0
O238 O 0.44468 0.53669 0.7912 0.0
C239 C 0.40684 0.49812 0.75119 0.0
O240 O 0.41879 0.5004 0.73917 0.0
O241 O 0.41459 0.55605 0.77242 0.0
C242 C 0.44823 0.52187 0.79521 0.0
O243 O 0.441 0.50635 0.78366 0.0
C244 C 0.45271 0.53338 0.74082 0.0
O245 O 0.45932 0.52371 0.75238 0.0
O246 O 0.40769 0.51131 0.76416 0.0
C247 C 0.6752 1.00013 0.78094 0.0
O248 O 0.66085 1.00131 0.78908 0.0
O249 O 0.64936 0.01146 0.73045 0.0
Zn250 Zn 0.66312 0.0232 0.75575 0.0
O251 O 0.64559 0.02793 0.77329 0.0
C252 C 0.6717 0.0596 0.74688 0.0
O253 O 0.65394 0.05457 0.74198 0.0
O254 O 0.67839 0.00791 0.76637 0.0
C255 C 0.65149 0.03993 0.7879 0.0
O256 O 0.669 0.0485 0.79142 0.0
C257 C 0.6332 1.00094 0.72861 0.0
O258 O 0.62578 0.99649 0.74375 0.0
O259 O 0.67934 0.04794 0.75298 0.0
C260 C 0.80926 0.67932 0.01841 0.0
O261 O 0.81519 0.6972 0.01773 0.0
O262 O 0.77809 0.70523 0.03956 0.0
Zn263 Zn 0.77429 0.68697 0.01597 0.0
O264 O 0.77665 0.6989 0.99241 0.0
C265 C 0.74437 0.66122 0.02743 0.0
O266 O 0.75591 0.6643 0.04296 0.0
O267 O 0.79228 0.672 0.01805 0.0
C268 C 0.78298 0.71607 0.99149 0.0
O269 O 0.7886 0.72785 0.00712 0.0
C270 C 0.76615 0.71362 0.04308 0.0
O271 O 0.75184 0.71124 0.03045 0.0
O272 O 0.74923 0.66955 0.0136 0.0
C273 C 0.88109 0.57183 0.75856 0.0
O274 O 0.88557 0.55866 0.7482 0.0
O275 O 0.91963 0.55675 0.77437 0.0
Zn276 Zn 0.89698 0.55565 0.78644 0.0
O277 O 0.90468 0.56128 0.81439 0.0
C278 C 0.88307 0.51793 0.76719 0.0
O279 O 0.89755 0.52258 0.75854 0.0
O280 O 0.88482 0.5737 0.77639 0.0
C281 C 0.89768 0.55038 0.82559 0.0
O282 O 0.88358 0.53614 0.81904 0.0
C283 C 0.93143 0.54916 0.78094 0.0
O284 O 0.92914 0.54155 0.79641 0.0
O285 O 0.87988 0.52979 0.7794 0.0
C286 C 0.75118 0.44792 0.52109 0.0
O287 O 0.75731 0.438 0.53273 0.0
O288 O 0.76591 0.40821 0.50875 0.0
Zn289 Zn 0.77057 0.43096 0.4958 0.0
O290 O 0.76493 0.42289 0.46777 0.0
C291 C 0.80553 0.44432 0.51868 0.0
O292 O 0.79695 0.43424 0.5305 0.0
O293 O 0.755 0.44699 0.5043 0.0
C294 C 0.77773 0.42267 0.45786 0.0
O295 O 0.79472 0.4287 0.46597 0.0
C296 C 0.77288 0.39518 0.50377 0.0
O297 O 0.7824 0.39642 0.48951 0.0
O298 O 0.79689 0.44528 0.50299 0.0
C299 C 0.63667 0.49731 0.28777 0.0
O300 O 0.62068 0.49286 0.29382 0.0
O301 O 0.61468 0.53434 0.26242 0.0
Zn302 Zn 0.6297 0.53326 0.28662 0.0
O303 O 0.61453 0.52957 0.30787 0.0
C304 C 0.64315 0.57243 0.29433 0.0
O305 O 0.62555 0.57084 0.29171 0.0
O306 O 0.64282 0.51347 0.28347 0.0
C307 C 0.62294 0.53009 0.32414 0.0
O308 O 0.6407 0.53268 0.32603 0.0
C309 C 0.60377 0.52053 0.25179 0.0
O310 O 0.60143 0.50386 0.25663 0.0
O311 O 0.64851 0.55783 0.29317 0.0
Dy312 Dy 0.04098 0.04468 0.03212 0.0
Dy313 Dy 1.00023 0.02071 0.01227 0.0
C314 C 0.03395 0.02762 0.98944 0.0
O315 O 0.03045 0.0647 0.01645 0.0
O316 O 0.99965 0.05037 0.01224 0.0
O317 O 0.06746 0.06284 0.03019 0.0
O318 O 0.0608 0.05437 0.05703 0.0
O319 O 1.00073 0.02304 0.04357 0.0
O320 O 0.02133 0.05137 0.05062 0.0
O321 O 0.01444 0.99895 0.01787 0.0
O322 O 0.03729 0.0163 0.04088 0.0
O323 O 0.97156 0.01057 0.01417 0.0
O324 O 0.98211 0.00305 0.98855 0.0
C325 C 0.01347 0.06494 0.01178 0.0
O326 O 0.04427 0.02864 0.00538 0.0
O327 O 0.01717 0.02874 0.98943 0.0
C328 C 0.0905 0.05673 0.05005 0.0
C329 C 0.12279 0.04559 0.05138 0.0
C330 C 0.1057 0.03231 0.04844 0.0
C331 C 0.0897 0.03783 0.04772 0.0
C332 C 0.10746 0.07008 0.0534 0.0
C333 C 0.12354 0.06455 0.05404 0.0
C334 C 0.07364 0.06238 0.04762 0.0
C335 C 0.00809 0.03842 0.05521 0.0
C336 C 0.0274 1.00012 0.03176 0.0
C337 C 0.95326 0.00884 0.98594 0.0
C338 C 0.92481 0.02338 0.97296 0.0
C339 C 0.94311 0.03376 0.97389 0.0
C340 C 0.95722 0.02653 0.98033 0.0
C341 C 0.93516 0.99793 0.98381 0.0
C342 C 0.92101 0.00511 0.97726 0.0
C343 C 0.96757 0.00301 0.99658 0.0
H344 H 0.10465 0.01761 0.04596 0.0
H345 H 0.07669 0.02734 0.04487 0.0
H346 H 0.10825 0.08473 0.0551 0.0
H347 H 0.13653 0.07506 0.0564 0.0
H348 H 0.94653 0.04793 0.9709 0.0
H349 H 0.97116 0.03515 0.98198 0.0
H350 H 0.9319 0.98426 0.98813 0.0
H351 H 0.90707 0.99668 0.97642 0.0
Dy352 Dy 0.27819 0.77188 0.24892 0.0
Dy353 Dy 0.26304 0.78711 0.28668 0.0
C354 C 0.28661 0.81469 0.26238 0.0
O355 O 0.30187 0.77854 0.27202 0.0
O356 O 0.28591 0.77605 0.29747 0.0
O357 O 0.29714 0.77531 0.22835 0.0
O358 O 0.27515 0.75002 0.22587 0.0
O359 O 0.24889 0.75676 0.27913 0.0
O360 O 0.27153 0.74829 0.26525 0.0
O361 O 0.24638 0.79379 0.26258 0.0
O362 O 0.24869 0.7704 0.24078 0.0
O363 O 0.24128 0.78537 0.30401 0.0
O364 O 0.26682 0.80673 0.31186 0.0
C365 C 0.30101 0.77673 0.28995 0.0
O366 O 0.28098 0.80182 0.24769 0.0
O367 O 0.28429 0.81081 0.27943 0.0
C368 C 0.28165 0.76253 0.19822 0.0
C369 C 0.27076 0.76977 0.16201 0.0
C370 C 0.26043 0.7719 0.17676 0.0
C371 C 0.26587 0.7684 0.19468 0.0
C372 C 0.29184 0.75997 0.18354 0.0
C373 C 0.28645 0.7636 0.16551 0.0
C374 C 0.28772 0.76012 0.2175 0.0
C375 C 0.25674 0.74401 0.27335 0.0
C376 C 0.24042 0.78286 0.24647 0.0
C377 C 0.25229 0.79328 0.33633 0.0
C378 C 0.25301 0.78087 0.37177 0.0
C379 C 0.26886 0.78491 0.36294 0.0
C380 C 0.26849 0.79095 0.34534 0.0
C381 C 0.23656 0.78974 0.34533 0.0
C382 C 0.23688 0.78349 0.3629 0.0
C383 C 0.25139 0.79825 0.31714 0.0
H384 H 0.24853 0.77703 0.17466 0.0
H385 H 0.25795 0.77069 0.20591 0.0
H386 H 0.30411 0.75553 0.18609 0.0
H387 H 0.29465 0.76183 0.15439 0.0
H388 H 0.28139 0.78267 0.3693 0.0
H389 H 0.28077 0.79333 0.33859 0.0
H390 H 0.22392 0.79139 0.33855 0.0
H391 H 0.22449 0.78046 0.36944 0.0
Dy392 Dy 0.50346 0.02535 0.53211 0.0
Dy393 Dy 0.54349 0.03402 0.51693 0.0
C394 C 0.50798 0.03533 0.49133 0.0
O395 O 0.50422 0.99854 0.51543 0.0
O396 O 0.53522 0.0033 0.51699 0.0
O397 O 0.4742 0.01455 0.52597 0.0
O398 O 0.48671 0.02725 0.55428 0.0
O399 O 0.54834 0.03158 0.54757 0.0
O400 O 0.52017 0.01381 0.55191 0.0
O401 O 0.53734 0.06156 0.5219 0.0
O402 O 0.51875 0.05454 0.54456 0.0
O403 O 0.57225 0.04859 0.52126 0.0
O404 O 0.56025 0.03029 0.49526 0.0
C405 C 0.51854 0.9922 0.5136 0.0
O406 O 0.50144 0.03952 0.50682 0.0
O407 O 0.52241 0.02908 0.49182 0.0
C408 C 0.45952 0.0334 0.54274 0.0
C409 C 0.43623 0.05675 0.5416 0.0
C410 C 0.45395 0.06261 0.53669 0.0
C411 C 0.46548 0.05103 0.53725 0.0
C412 C 0.44195 0.02748 0.54777 0.0
C413 C 0.43037 0.03907 0.54721 0.0
C414 C 0.47156 0.02115 0.54267 0.0
C415 C 0.53776 0.02047 0.55723 0.0
C416 C 0.52914 0.06684 0.53585 0.0
C417 C 0.58994 0.03081 0.50758 0.0
C418 C 0.61799 0.01303 0.51105 0.0
C419 C 0.6001 0.00385 0.51373 0.0
C420 C 0.58624 0.01269 0.5121 0.0
C421 C 0.60771 0.0401 0.50498 0.0
C422 C 0.62164 0.0313 0.50672 0.0
C423 C 0.5753 0.04003 0.50568 0.0
H424 H 0.4588 0.076 0.53203 0.0
H425 H 0.479 0.05577 0.5332 0.0
H426 H 0.43717 0.01389 0.55203 0.0
H427 H 0.41688 0.03423 0.55126 0.0
H428 H 0.59671 0.98971 0.5168 0.0
H429 H 0.57259 0.00532 0.51424 0.0
H430 H 0.61081 0.05415 0.50163 0.0
H431 H 0.6353 0.03889 0.50485 0.0
Dy432 Dy 0.29541 0.27812 0.77542 0.0
Dy433 Dy 0.25588 0.28877 0.76989 0.0
C434 C 0.29345 0.31748 0.76573 0.0
O435 O 0.29267 0.29308 0.80321 0.0
O436 O 0.26147 0.28642 0.80031 0.0
O437 O 0.32442 0.2868 0.78484 0.0
O438 O 0.31145 0.25863 0.77149 0.0
O439 O 0.24944 0.25809 0.76923 0.0
O440 O 0.27552 0.25555 0.78612 0.0
O441 O 0.26421 0.28605 0.741 0.0
O442 O 0.28203 0.26641 0.7461 0.0
O443 O 0.22771 0.28269 0.75742 0.0
O444 O 0.24 0.30771 0.77711 0.0
C445 C 0.27748 0.29198 0.81068 0.0
O446 O 0.30009 0.30346 0.76133 0.0
O447 O 0.2782 0.31524 0.77318 0.0
C448 C 0.34131 0.2725 0.7654 0.0
C449 C 0.36944 0.27562 0.74226 0.0
C450 C 0.3525 0.27815 0.7355 0.0
C451 C 0.33858 0.27664 0.74698 0.0
C452 C 0.35811 0.26992 0.7722 0.0
C453 C 0.37205 0.27146 0.76076 0.0
C454 C 0.32686 0.27111 0.77768 0.0
C455 C 0.25824 0.2487 0.77913 0.0
C456 C 0.27275 0.27408 0.73463 0.0
C457 C 0.20882 0.29356 0.77739 0.0
C458 C 0.17855 0.28886 0.79771 0.0
C459 C 0.19196 0.27955 0.80148 0.0
C460 C 0.20699 0.28193 0.79144 0.0
C461 C 0.1954 0.30263 0.77339 0.0
C462 C 0.18041 0.30032 0.78343 0.0
C463 C 0.22498 0.29701 0.76738 0.0
H464 H 0.35007 0.28158 0.72143 0.0
H465 H 0.32571 0.27878 0.74151 0.0
H466 H 0.36046 0.2667 0.78638 0.0
H467 H 0.3848 0.26917 0.76636 0.0
H468 H 0.19107 0.27078 0.81249 0.0
H469 H 0.21732 0.27491 0.79481 0.0
H470 H 0.1966 0.31168 0.76261 0.0
H471 H 0.17024 0.30748 0.77997 0.0
Dy472 Dy 0.03495 0.01457 0.52562 0.0
Dy473 Dy 0.02585 0.05557 0.53132 0.0
C474 C 0.99678 0.01817 0.5362 0.0
O475 O 0.02031 0.01746 0.49805 0.0
O476 O 0.02802 0.04921 0.50086 0.0
O477 O 0.02567 0.98506 0.51624 0.0
O478 O 0.05356 0.99762 0.52917 0.0
O479 O 0.05588 0.06122 0.53124 0.0
O480 O 0.05755 0.03403 0.51455 0.0
O481 O 0.02864 0.04761 0.56032 0.0
O482 O 0.04699 0.02843 0.55473 0.0
O483 O 0.03283 0.08465 0.54305 0.0
O484 O 0.00758 0.07205 0.52452 0.0
C485 C 0.02208 0.03286 0.49054 0.0
O486 O 0.01017 0.01083 0.54021 0.0
O487 O 0.99943 0.03354 0.5286 0.0
C488 C 0.03956 0.9672 0.53478 0.0
C489 C 0.03709 0.93816 0.55701 0.0
C490 C 0.02764 0.95162 0.56062 0.0
C491 C 0.02892 0.96604 0.54964 0.0
C492 C 0.04902 0.95387 0.53116 0.0
C493 C 0.04782 0.93951 0.54215 0.0
C494 C 0.04098 0.98217 0.52296 0.0
C495 C 0.06465 0.0517 0.52116 0.0
C496 C 0.04 0.03846 0.56642 0.0
C497 C 0.02227 0.10322 0.52254 0.0
C498 C 0.0271 0.13289 0.50095 0.0
C499 C 0.03165 0.11653 0.49459 0.0
C500 C 0.02929 0.10185 0.5053 0.0
C501 C 0.01793 0.11953 0.52906 0.0
C502 C 0.02034 0.13424 0.51841 0.0
C503 C 0.01871 0.08746 0.5334 0.0
H504 H 0.01944 0.95114 0.57207 0.0
H505 H 0.0216 0.97629 0.55275 0.0
H506 H 0.05729 0.95453 0.51975 0.0
H507 H 0.0551 0.92929 0.53883 0.0
H508 H 0.0371 0.11509 0.48136 0.0
H509 H 0.03275 0.08936 0.50004 0.0
H510 H 0.01241 0.1208 0.54228 0.0
H511 H 0.01649 0.1465 0.52364 0.0
Dy512 Dy 0.28366 0.80074 0.75924 0.0
Dy513 Dy 0.27375 0.76003 0.77434 0.0
C514 C 0.27247 0.7962 0.80025 0.0
O515 O 0.31083 0.79478 0.76466 0.0
O516 O 0.30315 0.77407 0.78564 0.0
O517 O 0.29801 0.82993 0.76326 0.0
O518 O 0.27877 0.81778 0.73818 0.0
O519 O 0.28779 0.75639 0.74913 0.0
O520 O 0.28221 0.78003 0.73413 0.0
O521 O 0.24794 0.76117 0.75737 0.0
O522 O 0.25345 0.79273 0.7602 0.0
O523 O 0.26234 0.7303 0.76885 0.0
O524 O 0.27404 0.74375 0.79715 0.0
C525 C 0.31553 0.78533 0.77772 0.0
O526 O 0.28384 0.80593 0.79028 0.0
O527 O 0.26405 0.77866 0.79459 0.0
C528 C 0.27859 0.84712 0.75232 0.0
C529 C 0.25749 0.87234 0.75765 0.0
C530 C 0.25509 0.85697 0.76751 0.0
C531 C 0.26553 0.84448 0.76486 0.0
C532 C 0.28131 0.86257 0.74268 0.0
C533 C 0.27087 0.87514 0.74537 0.0
C534 C 0.28844 0.8331 0.74861 0.0
C535 C 0.28699 0.76453 0.73402 0.0
C536 C 0.2421 0.776 0.75633 0.0
C537 C 0.27866 0.7148 0.7874 0.0
C538 C 0.29949 0.68914 0.78916 0.0
C539 C 0.30731 0.70713 0.78514 0.0
C540 C 0.29697 0.71983 0.78423 0.0
C541 C 0.2708 0.69698 0.79154 0.0
C542 C 0.28113 0.68423 0.79243 0.0
C543 C 0.26773 0.72803 0.78597 0.0
H544 H 0.2451 0.85456 0.77727 0.0
H545 H 0.26324 0.83259 0.77242 0.0
H546 H 0.29124 0.86472 0.73285 0.0
H547 H 0.27292 0.88676 0.73745 0.0
H548 H 0.32146 0.71145 0.78281 0.0
H549 H 0.30324 0.73358 0.78099 0.0
H550 H 0.25665 0.69287 0.79392 0.0
H551 H 0.27464 0.67042 0.79532 0.0
Dy552 Dy 0.52456 0.03574 0.01009 0.0
Dy553 Dy 0.53801 0.01895 0.04716 0.0
C554 C 0.53427 0.99693 0.00559 0.0
O555 O 0.50002 0.01496 0.0163 0.0
O556 O 0.50834 0.01558 0.04788 0.0
O557 O 0.51047 0.03208 0.98185 0.0
O558 O 0.52348 0.0597 0.99668 0.0
O559 O 0.53861 0.04859 0.05672 0.0
O560 O 0.51621 0.05095 0.03453 0.0
O561 O 0.56194 0.02658 0.0317 0.0
O562 O 0.55419 0.05017 0.01879 0.0
O563 O 0.55819 0.02233 0.07137 0.0
O564 O 0.53517 0.99775 0.06538 0.0
C565 C 0.49585 0.01159 0.03307 0.0
O566 O 0.53575 0.01268 0.99881 0.0
O567 O 0.53164 0.99555 0.02324 0.0
C568 C 0.52491 0.05455 0.96428 0.0
C569 C 0.54237 0.06154 0.93223 0.0
C570 C 0.55195 0.05828 0.9486 0.0
C571 C 0.54328 0.05477 0.96448 0.0
C572 C 0.51535 0.05813 0.94817 0.0
C573 C 0.52402 0.06159 0.9322 0.0
C574 C 0.51563 0.04976 0.9806 0.0
C575 C 0.52625 0.05676 0.051 0.0
C576 C 0.56653 0.042 0.02439 0.0
C577 C 0.54518 0.01088 0.09735 0.0
C578 C 0.53847 0.02132 0.13416 0.0
C579 C 0.52392 0.01236 0.11996 0.0
C580 C 0.52722 0.00727 0.10171 0.0
C581 C 0.55976 0.01919 0.11168 0.0
C582 C 0.55644 0.02447 0.12994 0.0
C583 C 0.54881 0.00771 0.07771 0.0
H584 H 0.56598 0.05779 0.94895 0.0
H585 H 0.5508 0.05185 0.97679 0.0
H586 H 0.50114 0.05796 0.94783 0.0
H587 H 0.51635 0.06414 0.9198 0.0
H588 H 0.50992 0.01001 0.12276 0.0
H589 H 0.51567 1.00107 0.09093 0.0
H590 H 0.57371 0.02215 0.1086 0.0
H591 H 0.56788 0.03126 0.14067 0.0
Dy592 Dy 0.26329 0.25994 0.26006 0.0
Dy593 Dy 0.28621 0.30083 0.28241 0.0
C594 C 0.28094 0.26514 0.30305 0.0
O595 O 0.24217 0.27521 0.26461 0.0
O596 O 0.25776 0.29598 0.2902 0.0
O597 O 0.24017 0.23587 0.25753 0.0
O598 O 0.25918 0.23774 0.23703 0.0
O599 O 0.27223 0.30659 0.25585 0.0
O600 O 0.26821 0.27838 0.23799 0.0
O601 O 0.30607 0.29076 0.26608 0.0
O602 O 0.29277 0.25942 0.26271 0.0
O603 O 0.30515 0.32774 0.28303 0.0
O604 O 0.29385 0.32001 0.30831 0.0
C605 C 0.24233 0.28694 0.2796 0.0
O606 O 0.26677 0.2568 0.29049 0.0
O607 O 0.29262 0.28052 0.30047 0.0
C608 C 0.24718 0.20864 0.24595 0.0
C609 C 0.25473 0.17453 0.24913 0.0
C610 C 0.2601 0.18901 0.26435 0.0
C611 C 0.25643 0.20595 0.26274 0.0
C612 C 0.24104 0.19402 0.23103 0.0
C613 C 0.2448 0.17704 0.23259 0.0
C614 C 0.24547 0.22712 0.24347 0.0
C615 C 0.26893 0.29603 0.23942 0.0
C616 C 0.30696 0.2736 0.26209 0.0
C617 C 0.29748 0.35094 0.303 0.0
C618 C 0.28238 0.38115 0.30779 0.0
C619 C 0.28686 0.37528 0.29011 0.0
C620 C 0.29431 0.36031 0.28772 0.0
C621 C 0.29394 0.35745 0.3209 0.0
C622 C 0.28637 0.37238 0.32326 0.0
C623 C 0.30282 0.3335 0.30013 0.0
H624 H 0.26808 0.18765 0.27713 0.0
H625 H 0.26146 0.21719 0.27433 0.0
H626 H 0.23394 0.19595 0.21795 0.0
H627 H 0.24046 0.16608 0.22068 0.0
H628 H 0.28375 0.38163 0.27788 0.0
H629 H 0.29689 0.35567 0.27373 0.0
H630 H 0.29639 0.35054 0.33292 0.0
H631 H 0.28323 0.37676 0.33708 0.0
Dy632 Dy 0.5313 0.51006 0.02341 0.0
Dy633 Dy 0.5226 0.55137 0.02762 0.0
C634 C 0.492 0.5147 0.03113 0.0
O635 O 0.52956 0.51743 0.99416 0.0
O636 O 0.51144 0.53711 0.99843 0.0
O637 O 0.52432 0.48074 0.01282 0.0
O638 O 0.54974 0.49388 0.03094 0.0
O639 O 0.548 0.5545 0.01432 0.0
O640 O 0.55783 0.53214 0.02763 0.0
O641 O 0.53604 0.54853 0.05588 0.0
O642 O 0.52772 0.51677 0.05337 0.0
O643 O 0.53195 0.58094 0.0367 0.0
O644 O 0.50447 0.56857 0.02253 0.0
C645 C 0.51839 0.52647 0.98737 0.0
O646 O 0.50112 0.50484 0.02197 0.0
O647 O 0.49925 0.5323 0.03792 0.0
C648 C 0.53564 0.4627 0.03382 0.0
C649 C 0.53147 0.43365 0.05625 0.0
C650 C 0.51704 0.44152 0.05204 0.0
C651 C 0.51913 0.45599 0.04102 0.0
C652 C 0.54996 0.45474 0.03785 0.0
C653 C 0.54793 0.44043 0.04896 0.0
C654 C 0.53856 0.47827 0.0226 0.0
C655 C 0.56118 0.54747 0.01996 0.0
C656 C 0.53378 0.53318 0.06358 0.0
C657 C 0.5194 0.59869 0.01672 0.0
C658 C 0.52361 0.62724 0.99367 0.0
C659 C 0.53423 0.61457 0.99239 0.0
C660 C 0.53209 0.60039 0.00375 0.0
C661 C 0.50875 0.61122 0.01799 0.0
C662 C 0.5108 0.62533 0.00658 0.0
C663 C 0.51707 0.58396 0.02893 0.0
H664 H 0.50425 0.43675 0.05758 0.0
H665 H 0.50792 0.46201 0.03827 0.0
H666 H 0.56281 0.45971 0.03247 0.0
H667 H 0.55924 0.43454 0.05172 0.0
H668 H 0.54405 0.61547 0.98245 0.0
H669 H 0.54036 0.59077 0.00241 0.0
H670 H 0.49887 0.61013 0.02789 0.0
H671 H 0.50255 0.63493 0.0081 0.0
Dy672 Dy 0.78181 0.30444 0.27157 0.0
Dy673 Dy 0.76971 0.25677 0.28154 0.0
C674 C 0.76683 0.28575 0.30753 0.0
O675 O 0.80866 0.29838 0.27846 0.0
O676 O 0.8003 0.26957 0.28951 0.0
O677 O 0.78933 0.32985 0.29112 0.0
O678 O 0.78546 0.33042 0.2607 0.0
O679 O 0.7802 0.25972 0.2533 0.0
O680 O 0.78576 0.28976 0.24487 0.0
O681 O 0.74363 0.26354 0.27075 0.0
O682 O 0.75147 0.29396 0.26325 0.0
O683 O 0.75738 0.22838 0.2687 0.0
O684 O 0.77152 0.23446 0.29725 0.0
C685 C 0.81268 0.28451 0.28618 0.0
O686 O 0.77409 0.28733 0.29229 0.0
O687 O 0.76229 0.26848 0.30934 0.0
C688 C 0.77601 0.35224 0.28029 0.0
C689 C 0.75338 0.37595 0.2852 0.0
C690 C 0.77236 0.38265 0.29053 0.0
C691 C 0.78359 0.37084 0.28815 0.0
C692 C 0.75711 0.34548 0.27505 0.0
C693 C 0.74588 0.3572 0.27753 0.0
C694 C 0.78778 0.33988 0.27761 0.0
C695 C 0.78498 0.27198 0.24146 0.0
C696 C 0.73939 0.27803 0.26443 0.0
C697 C 0.77489 0.20879 0.2782 0.0
C698 C 0.79748 0.18521 0.27245 0.0
C699 C 0.80223 0.20317 0.26738 0.0
C700 C 0.79103 0.21487 0.27026 0.0
C701 C 0.76983 0.19078 0.28285 0.0
C702 C 0.78103 0.17904 0.27997 0.0
C703 C 0.7641 0.22169 0.28286 0.0
H704 H 0.77852 0.39697 0.29669 0.0
H705 H 0.79816 0.37624 0.29239 0.0
H706 H 0.75105 0.33116 0.26892 0.0
H707 H 0.73136 0.35166 0.27303 0.0
H708 H 0.81491 0.20843 0.2618 0.0
H709 H 0.7952 0.22884 0.26675 0.0
H710 H 0.75742 0.18593 0.28904 0.0
H711 H 0.77689 0.1652 0.2838 0.0
Dy712 Dy 0.02999 0.54039 0.51128 0.0
Dy713 Dy 0.0399 0.52142 0.54836 0.0
C714 C 0.03736 0.5003 0.5068 0.0
O715 O 0.00448 0.53305 0.52449 0.0
O716 O 0.00997 0.50954 0.53969 0.0
O717 O 0.01174 0.54006 0.48636 0.0
O718 O 0.03615 0.56289 0.49477 0.0
O719 O 0.02931 0.54505 0.55935 0.0
O720 O 0.03682 0.56287 0.53603 0.0
O721 O 0.06545 0.54141 0.54338 0.0
O722 O 0.05919 0.54064 0.51157 0.0
O723 O 0.05476 0.52434 0.5761 0.0
O724 O 0.03797 0.49737 0.56258 0.0
C725 C 0.99871 0.51826 0.53262 0.0
O726 O 0.02725 0.51061 0.50055 0.0
O727 O 0.04646 0.50443 0.52387 0.0
C728 C 0.02697 0.55315 0.46246 0.0
C729 C 0.03577 0.54962 0.42551 0.0
C730 C 0.04306 0.54067 0.43923 0.0
C731 C 0.03867 0.5424 0.45756 0.0
C732 C 0.01955 0.562 0.44887 0.0
C733 C 0.02389 0.56023 0.43047 0.0
C734 C 0.02243 0.55494 0.4817 0.0
C735 C 0.03242 0.56117 0.55307 0.0
C736 C 0.07089 0.54408 0.52696 0.0
C737 C 0.03872 0.50476 0.59535 0.0
C738 C 0.02312 0.50519 0.6291 0.0
C739 C 0.01225 0.5031 0.61165 0.0
C740 C 0.02001 0.50303 0.59494 0.0
C741 C 0.04949 0.50605 0.61261 0.0
C742 C 0.04174 0.50625 0.62939 0.0
C743 C 0.04735 0.50716 0.57817 0.0
H744 H 0.05202 0.53217 0.43574 0.0
H745 H 0.0444 0.53536 0.46792 0.0
H746 H 0.01046 0.57031 0.4525 0.0
H747 H 0.01819 0.56737 0.42021 0.0
H748 H 0.9978 0.50194 0.61093 0.0
H749 H 0.01148 0.50218 0.58175 0.0
H750 H 0.064 0.50758 0.61315 0.0
H751 H 0.0505 0.50806 0.64262 0.0
Dy752 Dy 0.79483 0.78099 0.27835 0.0
Dy753 Dy 0.75531 0.79209 0.27448 0.0
C754 C 0.7929 0.82057 0.26952 0.0
O755 O 0.79289 0.79606 0.3064 0.0
O756 O 0.76176 0.78916 0.30456 0.0
O757 O 0.82387 0.78928 0.28743 0.0
O758 O 0.81064 0.76141 0.27338 0.0
O759 O 0.74863 0.76137 0.27365 0.0
O760 O 0.77518 0.75838 0.28921 0.0
O761 O 0.76258 0.78949 0.24521 0.0
O762 O 0.78109 0.77021 0.24896 0.0
O763 O 0.72701 0.78662 0.26262 0.0
O764 O 0.7398 0.81094 0.28312 0.0
C765 C 0.778 0.79483 0.31443 0.0
O766 O 0.79928 0.80649 0.26464 0.0
O767 O 0.77783 0.8184 0.27733 0.0
C768 C 0.84058 0.77526 0.26746 0.0
C769 C 0.8687 0.77853 0.24429 0.0
C770 C 0.85342 0.78499 0.23942 0.0
C771 C 0.83949 0.78336 0.2509 0.0
C772 C 0.85569 0.76874 0.27236 0.0
C773 C 0.86961 0.77034 0.2609 0.0
C774 C 0.82614 0.77367 0.27978 0.0
C775 C 0.75771 0.75181 0.28295 0.0
C776 C 0.77117 0.77787 0.23816 0.0
C777 C 0.70854 0.79695 0.28347 0.0
C778 C 0.67817 0.79166 0.30369 0.0
C779 C 0.69319 0.78513 0.30944 0.0
C780 C 0.70825 0.78777 0.29943 0.0
C781 C 0.69353 0.80322 0.27752 0.0
C782 C 0.67849 0.80059 0.28749 0.0
C783 C 0.72461 0.80068 0.27331 0.0
H784 H 0.85233 0.79156 0.22688 0.0
H785 H 0.82791 0.78851 0.2469 0.0
H786 H 0.85673 0.76239 0.28506 0.0
H787 H 0.88099 0.76495 0.26496 0.0
H788 H 0.69351 0.77836 0.32193 0.0
H789 H 0.71977 0.78288 0.30427 0.0
H790 H 0.69351 0.8103 0.26521 0.0
H791 H 0.66707 0.80553 0.28246 0.0
Dy792 Dy 0.78921 0.28381 0.73967 0.0
Dy793 Dy 0.7724 0.29444 0.77834 0.0
C794 C 0.79493 0.32543 0.75708 0.0
O795 O 0.81172 0.28773 0.76349 0.0
O796 O 0.79473 0.28217 0.78787 0.0
O797 O 0.8108 0.28966 0.72226 0.0
O798 O 0.78694 0.26631 0.71321 0.0
O799 O 0.75924 0.2643 0.76863 0.0
O800 O 0.78099 0.25742 0.75164 0.0
O801 O 0.75555 0.30216 0.75504 0.0
O802 O 0.75979 0.28188 0.73094 0.0
O803 O 0.74931 0.29322 0.79356 0.0
O804 O 0.77637 0.30905 0.80661 0.0
C805 C 0.81012 0.28377 0.78072 0.0
O806 O 0.7901 0.31374 0.74143 0.0
O807 O 0.79314 0.31976 0.77351 0.0
C808 C 0.79952 0.28324 0.69006 0.0
C809 C 0.79501 0.29544 0.65482 0.0
C810 C 0.78993 0.3043 0.6708 0.0
C811 C 0.79211 0.29821 0.68826 0.0
C812 C 0.80446 0.27422 0.67417 0.0
C813 C 0.80217 0.28025 0.65662 0.0
C814 C 0.80171 0.27689 0.70844 0.0
C815 C 0.76663 0.25222 0.76031 0.0
C816 C 0.75043 0.29271 0.73804 0.0
C817 C 0.75698 0.29281 0.82582 0.0
C818 C 0.75518 0.27572 0.85863 0.0
C819 C 0.75762 0.26618 0.8416 0.0
C820 C 0.75858 0.27468 0.82535 0.0
C821 C 0.75409 0.30226 0.84259 0.0
C822 C 0.75316 0.29376 0.85891 0.0
C823 C 0.75945 0.30215 0.80911 0.0
H824 H 0.7841 0.31584 0.66977 0.0
H825 H 0.788 0.30517 0.70037 0.0
H826 H 0.8101 0.26257 0.67535 0.0
H827 H 0.80628 0.27324 0.64455 0.0
H828 H 0.75893 0.25217 0.84086 0.0
H829 H 0.76088 0.26722 0.81248 0.0
H830 H 0.75296 0.31632 0.84315 0.0
H831 H 0.75144 0.30151 0.87187 0.0
Dy832 Dy 0.76834 0.76276 0.76329 0.0
Dy833 Dy 0.79065 0.80418 0.78436 0.0
C834 C 0.78316 0.77035 0.80654 0.0
O835 O 0.74603 0.7762 0.76861 0.0
O836 O 0.76197 0.80037 0.79138 0.0
O837 O 0.75977 0.7333 0.76381 0.0
O838 O 0.7513 0.74465 0.7392 0.0
O839 O 0.77645 0.80795 0.75715 0.0
O840 O 0.77717 0.78043 0.74116 0.0
O841 O 0.81124 0.79424 0.76907 0.0
O842 O 0.79789 0.76282 0.76484 0.0
O843 O 0.80922 0.83113 0.78431 0.0
O844 O 0.79839 0.82377 0.81 0.0
C845 C 0.74643 0.78965 0.78211 0.0
O846 O 0.76849 0.76303 0.79434 0.0
O847 O 0.79632 0.78373 0.80249 0.0
C848 C 0.75837 0.71607 0.73457 0.0
C849 C 0.77286 0.68834 0.71835 0.0
C850 C 0.78349 0.70694 0.72215 0.0
C851 C 0.77628 0.72069 0.73018 0.0
C852 C 0.74732 0.69784 0.72972 0.0
C853 C 0.75448 0.68406 0.72156 0.0
C854 C 0.75212 0.72966 0.74632 0.0
C855 C 0.7761 0.7975 0.74124 0.0
C856 C 0.81209 0.77711 0.76468 0.0
C857 C 0.80209 0.85444 0.80431 0.0
C858 C 0.78935 0.886 0.81085 0.0
C859 C 0.78518 0.87505 0.79305 0.0
C860 C 0.79141 0.85935 0.78984 0.0
C861 C 0.80662 0.86554 0.82198 0.0
C862 C 0.80022 0.8812 0.82527 0.0
C863 C 0.80732 0.83704 0.80153 0.0
H864 H 0.79774 0.71072 0.72012 0.0
H865 H 0.78501 0.73473 0.73393 0.0
H866 H 0.73345 0.69409 0.73304 0.0
H867 H 0.74589 0.66991 0.71855 0.0
H868 H 0.77654 0.87823 0.78179 0.0
H869 H 0.78747 0.85082 0.77617 0.0
H870 H 0.81473 0.86184 0.83334 0.0
H871 H 0.80363 0.88944 0.83909 0.0
Dy872 Dy 0.5396 0.54332 0.53414 0.0
Dy873 Dy 0.49958 0.52002 0.51181 0.0
C874 C 0.53489 0.52728 0.49131 0.0
O875 O 0.53045 0.56355 0.51757 0.0
O876 O 0.49956 0.54996 0.51291 0.0
O877 O 0.56663 0.56147 0.53448 0.0
O878 O 0.55738 0.55296 0.56047 0.0
O879 O 0.49858 0.52027 0.54271 0.0
O880 O 0.51833 0.54887 0.55111 0.0
O881 O 0.51284 0.49776 0.51812 0.0
O882 O 0.53598 0.51436 0.54132 0.0
O883 O 0.47038 0.51152 0.51087 0.0
O884 O 0.48293 0.50185 0.48754 0.0
C885 C 0.51367 0.56429 0.51268 0.0
O886 O 0.54448 0.52815 0.50767 0.0
O887 O 0.51808 0.5285 0.49036 0.0
C888 C 0.58816 0.55594 0.55688 0.0
C889 C 0.62074 0.54546 0.5618 0.0
C890 C 0.60381 0.53226 0.56099 0.0
C891 C 0.58765 0.53744 0.55845 0.0
C892 C 0.60501 0.56927 0.5583 0.0
C893 C 0.62122 0.56407 0.56071 0.0
C894 C 0.57122 0.56107 0.55233 0.0
C895 C 0.50518 0.53535 0.55493 0.0
C896 C 0.52577 0.49846 0.53188 0.0
C897 C 0.4552 0.50915 0.48067 0.0
C898 C 0.42915 0.52338 0.46172 0.0
C899 C 0.44732 0.53428 0.46667 0.0
C900 C 0.46023 0.5272 0.47605 0.0
C901 C 0.43749 0.49778 0.47469 0.0
C902 C 0.42456 0.50481 0.46518 0.0
C903 C 0.46774 0.50311 0.49359 0.0
H904 H 0.60301 0.51776 0.56144 0.0
H905 H 0.57475 0.52688 0.55714 0.0
H906 H 0.60561 0.5836 0.55702 0.0
H907 H 0.6341 0.57452 0.56134 0.0
H908 H 0.45132 0.5487 0.46451 0.0
H909 H 0.47389 0.53617 0.48062 0.0
H910 H 0.43344 0.48379 0.47815 0.0
H911 H 0.41075 0.49599 0.46131 0.0
Dy912 Dy 0.99414 0.52466 0.02053 0.0
Dy913 Dy 0.04216 0.53563 0.01605 0.0
C914 C 0.0174 0.53584 0.98396 0.0
O915 O 0.9985 0.49718 0.01064 0.0
O916 O 0.02976 0.50463 0.00769 0.0
O917 O 0.96988 0.52112 0.00099 0.0
O918 O 0.96821 0.52013 0.03099 0.0
O919 O 0.03308 0.53708 0.04489 0.0
O920 O 0.00612 0.51536 0.04543 0.0
O921 O 0.03514 0.56281 0.022 0.0
O922 O 0.00594 0.55512 0.0315 0.0
O923 O 0.06604 0.53482 0.03396 0.0
O924 O 0.06893 0.54545 0.0074 0.0
C925 C 0.01342 0.49259 0.00662 0.0
O926 O 0.01166 0.53189 -0.00041 0.0
O927 O 0.03492 0.53949 0.98573 0.0
C928 C 0.94822 0.53369 0.01436 0.0
C929 C 0.92629 0.5584 0.01381 0.0
C930 C 0.91994 0.54041 0.0036 0.0
C931 C 0.93084 0.52817 0.00389 0.0
C932 C 0.95472 0.55166 0.02438 0.0
C933 C 0.94384 0.56389 0.02416 0.0
C934 C 0.95962 0.5208 0.01451 0.0
C935 C 0.02327 0.52314 0.05226 0.0
C936 C 0.02124 0.56736 0.02905 0.0
C937 C 0.08965 0.52927 0.01806 0.0
C938 C 0.11395 0.50717 0.01439 0.0
C939 C 0.09498 0.49913 0.01037 0.0
C940 C 0.08294 0.51011 0.01218 0.0
C941 C 0.1085 0.53744 0.02158 0.0
C942 C 0.12057 0.5265 0.01973 0.0
C943 C 0.07712 0.54055 0.02191 0.0
H944 H 0.90662 0.53585 0.99524 0.0
H945 H 0.9257 0.51439 0.99591 0.0
H946 H 0.96817 0.55619 0.03248 0.0
H947 H 0.94908 0.57755 0.03234 0.0
H948 H 0.08941 0.48429 0.00643 0.0
H949 H 0.06839 0.50358 0.00951 0.0
H950 H 0.11388 0.55222 0.02615 0.0
H951 H 0.13509 0.53316 0.02264 0.0
H952 H 0.9621 0.19267 0.93242 0.0
H953 H 0.96628 0.16608 0.94705 0.0
H954 H 0.01908 0.19898 0.97482 0.0
H955 H 0.01468 0.22587 0.9607 0.0
H956 H 0.99008 0.14709 0.94294 0.0
H957 H 0.99943 0.17613 0.01842 0.0
H958 H 0.99162 0.18774 3e-05 0.0
H959 H 0.01556 0.18978 0.00558 0.0
C960 C 0.97452 0.19437 0.94184 0.0
C961 C 0.98799 0.21153 0.94544 0.0
C962 C 0.97692 0.17907 0.95019 0.0
C963 C 0.9929 0.18041 0.96234 0.0
C964 C 0.00639 0.19757 0.96598 0.0
H965 H 0.03794 0.09902 0.01268 0.0
H966 H 0.03252 0.12664 0.001 0.0
C967 C 0.0039 0.21297 0.95778 0.0
C968 C 0.99567 0.16361 0.97034 0.0
H969 H 0.00656 0.14737 0.01135 0.0
C970 C 0.99353 0.14718 0.95793 0.0
C971 C 1.00021 0.16353 0.98993 0.0
C972 C 1.00166 0.18018 0.00428 0.0
C973 C 0.99607 0.13095 0.96444 0.0
C974 C 1.0008 0.13096 0.98395 0.0
C975 C 1.00297 0.14734 0.99639 0.0
C976 C 0.00379 0.11418 0.99162 0.0
C977 C 0.99403 0.11396 0.95033 0.0
C978 C 0.98939 0.09796 0.99056 0.0
C979 C 0.9924 0.0821 0.99737 0.0
C980 C 0.00994 0.08204 0.00533 0.0
C981 C 0.02427 0.09843 0.0066 0.0
C982 C 0.02119 0.11431 -6e-05 0.0
H983 H 0.99397 0.11724 0.93565 0.0
H984 H 0.00525 0.10751 0.95353 0.0
H985 H 0.98095 0.1036 0.95116 0.0
H986 H 0.97578 0.09755 0.98442 0.0
H987 H 0.98101 0.06983 0.99617 0.0
H988 H 0.1056 0.81599 0.14222 0.0
H989 H 0.13472 0.81665 0.16031 0.0
H990 H 0.11082 0.76195 0.17375 0.0
H991 H 0.08178 0.76133 0.15615 0.0
H992 H 0.12991 0.78491 0.20452 0.0
H993 H 0.17206 0.78992 0.14585 0.0
H994 H 0.16086 0.80797 0.14903 0.0
H995 H 0.14748 0.78433 0.14191 0.0
C996 C 0.10658 0.80409 0.14899 0.0
C997 C 0.09131 0.78861 0.14769 0.0
C998 C 0.12328 0.80443 0.15923 0.0
C999 C 0.1251 0.78922 0.16821 0.0
C1000 C 0.10984 0.77383 0.16695 0.0
H1001 H 0.22302 0.76178 0.2129 0.0
H1002 H 0.19544 0.76401 0.19411 0.0
C1003 C 0.09319 0.77351 0.15683 0.0
C1004 C 0.14262 0.78935 0.17941 0.0
H1005 H 0.18758 0.79221 0.17656 0.0
C1006 C 0.14252 0.78654 0.19839 0.0
C1007 C 0.15906 0.79123 0.1714 0.0
C1008 C 0.15993 0.79336 0.15089 0.0
C1009 C 0.15829 0.78556 0.20953 0.0
C1010 C 0.17484 0.78785 0.20165 0.0
C1011 C 0.17496 0.79061 0.18266 0.0
C1012 C 0.19202 0.787 0.2128 0.0
C1013 C 0.15692 0.78153 0.22949 0.0
C1014 C 0.19954 0.79939 0.22942 0.0
C1015 C 0.21525 0.79809 0.24026 0.0
C1016 C 0.22395 0.78446 0.23466 0.0
C1017 C 0.21666 0.77238 0.21774 0.0
C1018 C 0.2009 0.77366 0.20693 0.0
H1019 H 0.14258 0.77519 0.23165 0.0
H1020 H 0.1652 0.77204 0.23324 0.0
H1021 H 0.16213 0.7947 0.23934 0.0
H1022 H 0.19322 0.81009 0.23405 0.0
H1023 H 0.22054 0.80778 0.25308 0.0
H1024 H 0.46305 0.81684 0.45654 0.0
H1025 H 0.47011 0.84968 0.46905 0.0
H1026 H 0.5276 0.85424 0.47181 0.0
H1027 H 0.52062 0.82127 0.45894 0.0
H1028 H 0.48955 0.87 0.50231 0.0
H1029 H 0.52242 0.89544 0.44124 0.0
H1030 H 0.50931 0.87167 0.44063 0.0
H1031 H 0.53227 0.8796 0.45256 0.0
C1032 C 0.47723 0.82475 0.45986 0.0
C1033 C 0.49126 0.81634 0.45659 0.0
C1034 C 0.48125 0.84359 0.46705 0.0
C1035 C 0.49938 0.85461 0.47109 0.0
C1036 C 0.51348 0.84617 0.46843 0.0
H1037 H 0.54476 0.9739 0.50866 0.0
H1038 H 0.54047 0.94074 0.49923 0.0
C1039 C 0.50947 0.82725 0.46122 0.0
C1040 C 0.50332 0.87489 0.47792 0.0
H1041 H 0.52236 0.91806 0.46665 0.0
C1042 C 0.49675 0.8805 0.49451 0.0
C1043 C 0.51271 0.88866 0.46778 0.0
C1044 C 0.51947 0.88362 0.44948 0.0
C1045 C 0.49936 0.89939 0.50125 0.0
C1046 C 0.50851 0.91315 0.49097 0.0
C1047 C 0.51532 0.90756 0.47454 0.0
C1048 C 0.51102 0.93338 0.49691 0.0
C1049 C 0.49254 0.90442 0.51952 0.0
C1050 C 0.4959 0.94047 0.49855 0.0
C1051 C 0.4983 0.95949 0.50398 0.0
C1052 C 0.51589 0.97194 0.50778 0.0
C1053 C 0.531 0.96481 0.50592 0.0
C1054 C 0.52858 0.94579 0.50049 0.0
H1055 H 0.49063 0.89294 0.52823 0.0
H1056 H 0.50211 0.91706 0.52792 0.0
H1057 H 0.47913 0.90724 0.51636 0.0
H1058 H 0.48218 0.9313 0.49545 0.0
H1059 H 0.48633 0.96443 0.50512 0.0
H1060 H 0.51613 0.30103 0.66081 0.0
H1061 H 0.49218 0.29908 0.68133 0.0
H1062 H 0.45184 0.26864 0.63485 0.0
H1063 H 0.47563 0.27026 0.61437 0.0
H1064 H 0.46145 0.31202 0.67809 0.0
H1065 H 0.44131 0.23557 0.67567 0.0
H1066 H 0.46209 0.24795 0.66769 0.0
H1067 H 0.44063 0.24292 0.65279 0.0
C1068 C 0.50217 0.29385 0.65497 0.0
C1069 C 0.49785 0.2857 0.63595 0.0
C1070 C 0.48849 0.29276 0.66672 0.0
C1071 C 0.47024 0.28344 0.65973 0.0
C1072 C 0.46586 0.27553 0.6407 0.0
H1073 H 0.36663 0.26289 0.70455 0.0
H1074 H 0.39117 0.26555 0.68476 0.0
C1075 C 0.47951 0.27657 0.62896 0.0
C1076 C 0.45569 0.28231 0.67219 0.0
H1077 H 0.42183 0.25175 0.68929 0.0
C1078 C 0.45287 0.29885 0.68065 0.0
C1079 C 0.44446 0.26511 0.67551 0.0
C1080 C 0.44735 0.24687 0.6676 0.0
C1081 C 0.43888 0.29865 0.69197 0.0
C1082 C 0.42756 0.28145 0.69515 0.0
C1083 C 0.43045 0.26492 0.68678 0.0
C1084 C 0.41268 0.28027 0.70717 0.0
C1085 C 0.43603 0.31686 0.70003 0.0
C1086 C 0.41661 0.28753 0.72639 0.0
C1087 C 0.40261 0.2861 0.73773 0.0
C1088 C 0.38435 0.2773 0.73012 0.0
C1089 C 0.38048 0.26999 0.71084 0.0
C1090 C 0.39451 0.27138 0.69953 0.0
H1091 H 0.44262 0.32838 0.69248 0.0
H1092 H 0.42127 0.31594 0.69934 0.0
H1093 H 0.44214 0.32034 0.71505 0.0
H1094 H 0.43056 0.29417 0.73269 0.0
H1095 H 0.40609 0.29204 0.75246 0.0
H1096 H 0.05967 0.81204 0.65562 0.0
H1097 H 0.0593 0.837 0.63674 0.0
H1098 H 1.00073 0.82344 0.63334 0.0
H1099 H 1.00094 0.79842 0.65234 0.0
H1100 H 0.04072 0.83452 0.59976 0.0
H1101 H 0.01771 0.87979 0.65274 0.0
H1102 H 0.02674 0.86104 0.65887 0.0
H1103 H 0.00382 0.85618 0.64727 0.0
C1104 C 0.04668 0.81434 0.6509 0.0
C1105 C 0.03033 0.80324 0.65558 0.0
C1106 C 0.04651 0.82863 0.64008 0.0
C1107 C 0.03002 0.83226 0.63383 0.0
C1108 C 0.01364 0.8211 0.63828 0.0
H1109 H 0.00668 0.91732 0.56965 0.0
H1110 H 0.00451 0.89141 0.58787 0.0
C1111 C 0.01379 0.80673 0.64905 0.0
C1112 C 0.03007 0.84758 0.62244 0.0
H1113 H 0.02102 0.88966 0.62294 0.0
C1114 C 0.03642 0.84658 0.60482 0.0
C1115 C 0.02436 0.86326 0.62902 0.0
C1116 C 0.01789 0.86531 0.64806 0.0
C1117 C 0.03713 0.86078 0.59355 0.0
C1118 C 0.03176 0.87666 0.60028 0.0
C1119 C 0.02518 0.87753 0.6178 0.0
C1120 C 0.03316 0.89262 0.58947 0.0
C1121 C 0.04332 0.85845 0.57439 0.0
C1122 C 0.05003 0.90221 0.58463 0.0
C1123 C 0.05131 0.91701 0.57422 0.0
C1124 C 0.03577 0.92272 0.56858 0.0
C1125 C 0.01894 0.91339 0.57386 0.0
C1126 C 0.01767 0.89851 0.58421 0.0
H1127 H 0.04167 0.84362 0.56912 0.0
H1128 H 0.03558 0.86426 0.56391 0.0
H1129 H 0.058 0.8659 0.57542 0.0
H1130 H 0.06228 0.8983 0.58898 0.0
H1131 H 0.06455 0.92412 0.57075 0.0
H1132 H 0.46921 0.77867 0.85891 0.0
H1133 H 0.43885 0.77808 0.84472 0.0
H1134 H 0.46223 0.80858 0.80171 0.0
H1135 H 0.49291 0.80886 0.81574 0.0
H1136 H 0.42477 0.80655 0.84084 0.0
H1137 H 0.42192 0.76797 0.76983 0.0
H1138 H 0.43943 0.76908 0.78896 0.0
H1139 H 0.44084 0.78837 0.77602 0.0
C1140 C 0.46799 0.78512 0.84631 0.0
C1141 C 0.48363 0.79379 0.83849 0.0
C1142 C 0.45052 0.7848 0.8382 0.0
C1143 C 0.44805 0.79313 0.82199 0.0
C1144 C 0.46362 0.80169 0.81397 0.0
H1145 H 0.34567 0.80539 0.76362 0.0
H1146 H 0.37794 0.80819 0.77378 0.0
C1147 C 0.48121 0.80192 0.82206 0.0
C1148 C 0.4292 0.79341 0.81428 0.0
H1149 H 0.39677 0.77964 0.77533 0.0
C1150 C 0.41871 0.80066 0.82649 0.0
C1151 C 0.42116 0.78585 0.79552 0.0
C1152 C 0.43132 0.77722 0.78183 0.0
C1153 C 0.40055 0.8004 0.82061 0.0
C1154 C 0.39239 0.79249 0.80201 0.0
C1155 C 0.40297 0.78568 0.7896 0.0
C1156 C 0.37273 0.79058 0.79552 0.0
C1157 C 0.39024 0.80871 0.8344 0.0
C1158 C 0.35895 0.77955 0.80413 0.0
C1159 C 0.3405 0.77788 0.79835 0.0
C1160 C 0.33527 0.78721 0.78376 0.0
C1161 C 0.3491 0.79809 0.77498 0.0
C1162 C 0.3676 0.79967 0.78073 0.0
H1163 H 0.39961 0.81844 0.84611 0.0
H1164 H 0.38148 0.81623 0.82724 0.0
H1165 H 0.38132 0.79742 0.8406 0.0
H1166 H 0.36247 0.77212 0.81534 0.0
H1167 H 0.33033 0.76924 0.80539 0.0
H1168 H 0.5278 0.21961 0.12446 0.0
H1169 H 0.52907 0.18998 0.10826 0.0
H1170 H 0.49459 0.16115 0.14557 0.0
H1171 H 0.49395 0.19103 0.16251 0.0
H1172 H 0.52067 0.14527 0.1404 0.0
H1173 H 0.4917 0.15476 0.07014 0.0
H1174 H 0.51167 0.17336 0.079 0.0
H1175 H 0.49179 0.17025 0.0911 0.0
C1176 C 0.52033 0.20699 0.12917 0.0
C1177 C 0.51059 0.20773 0.14469 0.0
C1178 C 0.52099 0.18998 0.11977 0.0
C1179 C 0.51152 0.17318 0.12527 0.0
C1180 C 0.50189 0.17386 0.1409 0.0
H1181 H 0.49619 0.06986 0.04953 0.0
H1182 H 0.49181 0.09672 0.06875 0.0
C1183 C 0.50148 0.19096 0.15055 0.0
C1184 C 0.51214 0.15505 0.11496 0.0
H1185 H 0.50738 0.13116 0.07073 0.0
C1186 C 0.51758 0.14211 0.12517 0.0
C1187 C 0.50776 0.15061 0.0951 0.0
C1188 C 0.50021 0.1629 0.08325 0.0
C1189 C 0.51926 0.12521 0.11609 0.0
C1190 C 0.51605 0.12135 0.09612 0.0
C1191 C 0.51014 0.13409 0.08599 0.0
C1192 C 0.51849 0.1042 0.08534 0.0
C1193 C 0.5241 0.11156 0.12811 0.0
C1194 C 0.53493 0.09922 0.08816 0.0
C1195 C 0.53732 0.08357 0.07737 0.0
C1196 C 0.52353 0.07283 0.06316 0.0
C1197 C 0.50714 0.07786 0.06029 0.0
C1198 C 0.50462 0.09327 0.0713 0.0
H1199 H 0.51996 0.11355 0.14239 0.0
H1200 H 0.51747 0.09701 0.12155 0.0
H1201 H 0.5391 0.1138 0.12988 0.0
H1202 H 0.5461 0.10765 0.09842 0.0
H1203 H 0.55018 0.08019 0.07981 0.0
H1204 H 0.08258 0.30783 0.31613 0.0
H1205 H 0.10962 0.30547 0.30115 0.0
H1206 H 0.13387 0.29283 0.35285 0.0
H1207 H 0.10723 0.29515 0.3678 0.0
H1208 H 0.14804 0.32558 0.3126 0.0
H1209 H 0.13596 0.24987 0.31279 0.0
H1210 H 0.11835 0.26146 0.31578 0.0
H1211 H 0.13535 0.26252 0.33526 0.0
C1212 C 0.09366 0.30452 0.32429 0.0
C1213 C 0.09257 0.30162 0.3432 0.0
C1214 C 0.10915 0.30321 0.31571 0.0
C1215 C 0.12377 0.29872 0.32576 0.0
C1216 C 0.12273 0.29601 0.34464 0.0
H1217 H 0.23712 0.31135 0.30852 0.0
H1218 H 0.20828 0.31463 0.31828 0.0
C1219 C 0.10741 0.29744 0.35322 0.0
C1220 C 0.14023 0.29692 0.31683 0.0
H1221 H 0.16533 0.26645 0.30667 0.0
C1222 C 0.15174 0.31261 0.31115 0.0
C1223 C 0.14508 0.27999 0.31474 0.0
C1224 C 0.13298 0.26243 0.31979 0.0
C1225 C 0.16816 0.31196 0.30406 0.0
C1226 C 0.17338 0.29519 0.30272 0.0
C1227 C 0.16154 0.27937 0.30782 0.0
C1228 C 0.19109 0.29374 0.29627 0.0
C1229 C 0.17971 0.32924 0.29796 0.0
C1230 C 0.19126 0.28069 0.28079 0.0
C1231 C 0.20781 0.27874 0.27517 0.0
C1232 C 0.22469 0.28965 0.28501 0.0
C1233 C 0.22447 0.30274 0.3005 0.0
C1234 C 0.20792 0.30473 0.30605 0.0
H1235 H 0.17161 0.33906 0.2948 0.0
H1236 H 0.19083 0.33641 0.30951 0.0
H1237 H 0.18599 0.32579 0.28527 0.0
H1238 H 0.17854 0.27194 0.27303 0.0
H1239 H 0.20733 0.26845 0.26325 0.0
H1240 H 0.94295 0.02279 0.21149 0.0
H1241 H 0.95226 0.02217 0.18001 0.0
H1242 H 0.99713 0.07085 0.19962 0.0
H1243 H 0.9881 0.07139 0.23133 0.0
H1244 H 0.95441 0.04897 0.15678 0.0
H1245 H 0.02204 0.03598 0.17264 0.0
H1246 H 0.00536 0.03297 0.18891 0.0
H1247 H 0.01911 0.0558 0.18692 0.0
C1248 C 0.95491 0.0333 0.20918 0.0
C1249 C 0.96482 0.04713 0.22395 0.0
C1250 C 0.96018 0.03292 0.19116 0.0
C1251 C 0.97549 0.04633 0.18751 0.0
C1252 C 0.98548 0.06014 0.20221 0.0
H1253 H 0.02317 0.06654 0.08431 0.0
H1254 H 0.01484 0.06921 0.11624 0.0
C1255 C 0.98026 0.06048 0.22031 0.0
C1256 C 0.98049 0.04616 0.16812 0.0
H1257 H 0.01448 0.04247 0.14186 0.0
C1258 C 0.96753 0.04751 0.15351 0.0
C1259 C 0.99763 0.0443 0.1639 0.0
C1260 C 0.0118 0.04201 0.17887 0.0
C1261 C 0.97128 0.04713 0.1348 0.0
C1262 C 0.98836 0.04515 0.13058 0.0
C1263 C 1.0014 0.04402 0.14519 0.0
C1264 C 0.99283 0.04385 0.11103 0.0
C1265 C 0.95703 0.04905 0.11971 0.0
C1266 C 0.9832 0.02868 0.09756 0.0
C1267 C 0.98793 0.02707 0.0793 0.0
C1268 C 1.0024 0.04062 0.07421 0.0
C1269 C 0.0119 0.0559 0.08772 0.0
C1270 C 0.00721 0.05744 0.10599 0.0
H1271 H 0.94658 0.05485 0.1258 0.0
H1272 H 0.9634 0.05812 0.10966 0.0
H1273 H 0.95001 0.03517 0.11168 0.0
H1274 H 0.97223 0.0179 0.10127 0.0
H1275 H 0.98038 0.0151 0.06927 0.0
H1276 H 0.25284 0.65616 0.47275 0.0
H1277 H 0.24726 0.68005 0.45441 0.0
H1278 H 0.2918 0.72101 0.48926 0.0
H1279 H 0.29759 0.69727 0.50766 0.0
H1280 H 0.24063 0.71622 0.46752 0.0
H1281 H 0.30379 0.72161 0.43368 0.0
H1282 H 0.29379 0.70201 0.44518 0.0
H1283 H 0.30639 0.72368 0.45899 0.0
C1284 C 0.26143 0.67026 0.47656 0.0
C1285 C 0.27576 0.6748 0.49154 0.0
C1286 C 0.25815 0.68388 0.46613 0.0
C1287 C 0.26922 0.70218 0.47045 0.0
C1288 C 0.28324 0.70688 0.48565 0.0
H1289 H 0.27821 0.7922 0.40326 0.0
H1290 H 0.28106 0.77531 0.43006 0.0
C1291 C 0.28651 0.6933 0.49613 0.0
C1292 C 0.26658 0.71616 0.45847 0.0
H1293 H 0.28585 0.74117 0.42548 0.0
C1294 C 0.25052 0.72181 0.45838 0.0
C1295 C 0.27958 0.72337 0.44668 0.0
C1296 C 0.29683 0.71732 0.44594 0.0
C1297 C 0.24709 0.73453 0.44665 0.0
C1298 C 0.2599 0.74139 0.43449 0.0
C1299 C 0.2761 0.73597 0.4349 0.0
C1300 C 0.2564 0.75319 0.42024 0.0
C1301 C 0.22985 0.74053 0.44744 0.0
C1302 C 0.24138 0.74654 0.40609 0.0
C1303 C 0.23969 0.7562 0.39085 0.0
C1304 C 0.25314 0.77251 0.3894 0.0
C1305 C 0.26773 0.77958 0.404 0.0
C1306 C 0.26934 0.77 0.41931 0.0
H1307 H 0.22479 0.73909 0.4613 0.0
H1308 H 0.232 0.75516 0.4449 0.0
H1309 H 0.21907 0.73157 0.43641 0.0
H1310 H 0.2315 0.73336 0.40625 0.0
H1311 H 0.22845 0.75031 0.37964 0.0
H1312 H 0.64426 0.00926 0.69496 0.0
H1313 H 0.62499 0.00654 0.66517 0.0
H1314 H 0.5777 0.97965 0.68981 0.0
H1315 H 0.59687 0.98259 0.7199 0.0
H1316 H 0.60028 0.97684 0.64072 0.0
H1317 H 0.56608 0.02653 0.674 0.0
H1318 H 0.58658 0.02275 0.6854 0.0
H1319 H 0.56497 0.00595 0.68479 0.0
C1320 C 0.6298 0.00252 0.69402 0.0
C1321 C 0.62204 0.99641 0.70989 0.0
C1322 C 0.61882 1.00094 0.67696 0.0
C1323 C 0.59991 0.99324 0.67544 0.0
C1324 C 0.59225 0.98597 0.69085 0.0
H1325 H 0.52012 1.0011 0.58309 0.0
H1326 H 0.53386 0.99188 0.6113 0.0
C1327 C 0.60323 0.98758 0.70799 0.0
C1328 C 0.58828 0.99423 0.65817 0.0
H1329 H 0.5578 0.0165 0.64155 0.0
C1330 C 0.59083 0.98534 0.64089 0.0
C1331 C 0.57602 0.00539 0.6585 0.0
C1332 C 0.57328 0.01584 0.67661 0.0
C1333 C 0.5817 0.98762 0.62383 0.0
C1334 C 0.56995 0.99927 0.62414 0.0
C1335 C 0.56685 0.00759 0.64144 0.0
C1336 C 0.56166 0.00405 0.60666 0.0
C1337 C 0.58485 0.97774 0.60561 0.0
C1338 C 0.5728 0.01415 0.59492 0.0
C1339 C 0.56503 0.01955 0.57889 0.0
C1340 C 0.54597 0.01496 0.57435 0.0
C1341 C 0.53485 0.00483 0.58617 0.0
C1342 C 0.54265 0.99952 0.60227 0.0
H1343 H 0.59006 0.96563 0.60799 0.0
H1344 H 0.57208 0.97291 0.59552 0.0
H1345 H 0.59515 0.98748 0.59906 0.0
H1346 H 0.58751 0.01809 0.59832 0.0
H1347 H 0.57399 0.02731 0.57007 0.0
H1348 H 0.25453 0.35032 0.97887 0.0
H1349 H 0.25304 0.33527 0.94664 0.0
H1350 H 0.31073 0.34047 0.9559 0.0
H1351 H 0.31231 0.35517 0.98821 0.0
H1352 H 0.27117 0.35114 0.91919 0.0
H1353 H 0.29067 0.28706 0.931 0.0
H1354 H 0.28398 0.30113 0.94943 0.0
H1355 H 0.30672 0.30785 0.9432 0.0
C1356 C 0.26686 0.34798 0.97416 0.0
C1357 C 0.28355 0.35395 0.98614 0.0
C1358 C 0.26597 0.33941 0.95572 0.0
C1359 C 0.28173 0.33655 0.94891 0.0
C1360 C 0.29832 0.34214 0.96095 0.0
H1361 H 0.30774 0.30386 0.83747 0.0
H1362 H 0.30877 0.31427 0.87115 0.0
C1363 C 0.29921 0.35066 0.97941 0.0
C1364 C 0.28105 0.32906 0.92881 0.0
H1365 H 0.29024 0.29463 0.89967 0.0
C1366 C 0.2752 0.3387 0.91493 0.0
C1367 C 0.28645 0.3129 0.92328 0.0
C1368 C 0.29215 0.30152 0.9375 0.0
C1369 C 0.27482 0.33279 0.89569 0.0
C1370 C 0.28024 0.31667 0.89016 0.0
C1371 C 0.28614 0.30702 0.90399 0.0
C1372 C 0.27957 0.30953 0.87001 0.0
C1373 C 0.26896 0.34405 0.88142 0.0
C1374 C 0.26279 0.30309 0.85836 0.0
C1375 C 0.26214 0.29713 0.83917 0.0
C1376 C 0.27828 0.29746 0.83124 0.0
C1377 C 0.29506 0.3035 0.84308 0.0
C1378 C 0.29568 0.30942 0.86233 0.0
H1379 H 0.26934 0.3582 0.888 0.0
H1380 H 0.27781 0.34528 0.87003 0.0
H1381 H 0.25476 0.33697 0.87488 0.0
H1382 H 0.25018 0.3028 0.86409 0.0
H1383 H 0.24895 0.29249 0.83054 0.0
H1384 H 0.95823 0.05564 0.32728 0.0
H1385 H 0.97125 0.05571 0.3597 0.0
H1386 H 0.99249 0.01013 0.34124 0.0
H1387 H 0.97953 0.00992 0.30871 0.0
H1388 H 0.96196 0.02391 0.37958 0.0
H1389 H 0.03631 0.04879 0.37534 0.0
H1390 H 0.01924 0.05261 0.35825 0.0
H1391 H 0.0233 0.03017 0.35749 0.0
C1392 C 0.96589 0.04579 0.33003 0.0
C1393 C 0.96781 0.03274 0.31539 0.0
C1394 C 0.97328 0.04583 0.34858 0.0
C1395 C 0.98288 0.03299 0.35282 0.0
C1396 C 0.9853 0.0203 0.3382 0.0
H1397 H 0.00538 0.00213 0.46451 0.0
H1398 H 0.99625 1.00127 0.43073 0.0
C1399 C 0.97784 0.02017 0.31964 0.0
C1400 C 0.98936 0.03218 0.37269 0.0
H1401 H 0.02774 0.03912 0.40411 0.0
C1402 C 0.97633 0.02719 0.38496 0.0
C1403 C 0.00812 0.03655 0.37961 0.0
C1404 C 0.02262 0.04247 0.36708 0.0
C1405 C 0.98156 0.02644 0.40403 0.0
C1406 C 1.00032 0.03067 0.41094 0.0
C1407 C 0.01337 0.03571 0.39868 0.0
C1408 C 0.0066 0.03089 0.43109 0.0
C1409 C 0.96704 0.02157 0.41678 0.0
C1410 C 0.01576 0.04778 0.44233 0.0
C1411 C 0.02094 0.04834 0.46158 0.0
C1412 C 0.0172 0.03197 0.46995 0.0
C1413 C 0.00842 0.01498 0.45853 0.0
C1414 C 1.00315 0.01446 0.43925 0.0
H1415 H 0.95347 0.02195 0.41006 0.0
H1416 H 0.96588 0.00736 0.42022 0.0
H1417 H 0.97073 0.03127 0.43022 0.0
H1418 H 0.01857 0.0606 0.43626 0.0
H1419 H 0.02776 0.06166 0.46989 0.0
H1420 H 0.32763 0.71184 0.57085 0.0
H1421 H 0.32694 0.72888 0.60157 0.0
H1422 H 0.31105 0.67736 0.62432 0.0
H1423 H 0.31157 0.66013 0.59363 0.0
H1424 H 0.2922 0.7202 0.61819 0.0
H1425 H 0.35171 0.71396 0.6653 0.0
H1426 H 0.35103 0.7122 0.63997 0.0
H1427 H 0.33829 0.69318 0.65036 0.0
C1428 C 0.32441 0.70413 0.58248 0.0
C1429 C 0.3195 0.68462 0.57977 0.0
C1430 C 0.32401 0.7139 0.60001 0.0
C1431 C 0.31901 0.70435 0.61515 0.0
C1432 C 0.31514 0.68496 0.61281 0.0
H1433 H 0.29128 0.72978 0.72614 0.0
H1434 H 0.29955 0.71603 0.69711 0.0
C1435 C 0.31538 0.67515 0.59526 0.0
C1436 C 0.3156 0.71438 0.6326 0.0
H1437 H 0.32987 0.72589 0.67981 0.0
C1438 C 0.30051 0.72164 0.63167 0.0
C1439 C 0.32638 0.71595 0.65007 0.0
C1440 C 0.34286 0.70854 0.6516 0.0
C1441 C 0.29558 0.73007 0.64791 0.0
C1442 C 0.3064 0.73174 0.66547 0.0
C1443 C 0.32164 0.72464 0.66634 0.0
C1444 C 0.3018 0.74037 0.68315 0.0
C1445 C 0.27845 0.73643 0.64619 0.0
C1446 C 0.30054 0.7587 0.68501 0.0
C1447 C 0.29557 0.76651 0.70148 0.0
C1448 C 0.2921 0.75624 0.71652 0.0
C1449 C 0.29382 0.73804 0.71479 0.0
C1450 C 0.29859 0.73017 0.69823 0.0
H1451 H 0.26918 0.72952 0.63306 0.0
H1452 H 0.27088 0.73361 0.65842 0.0
H1453 H 0.28217 0.7516 0.64573 0.0
H1454 H 0.30342 0.76697 0.67373 0.0
H1455 H 0.29462 0.78066 0.70247 0.0
H1456 H 0.65997 0.06276 0.8216 0.0
H1457 H 0.63902 0.06861 0.84354 0.0
H1458 H 0.59354 0.03271 0.80529 0.0
H1459 H 0.61437 0.0265 0.7834 0.0
H1460 H 0.60851 0.08302 0.83864 0.0
H1461 H 0.58931 0.01051 0.8547 0.0
H1462 H 0.60867 0.01946 0.84273 0.0
H1463 H 0.58599 0.01277 0.83012 0.0
C1464 C 0.64551 0.05611 0.81784 0.0
C1465 C 0.63884 0.04401 0.80087 0.0
C1466 C 0.63357 0.05953 0.83035 0.0
C1467 C 0.6148 0.05089 0.8261 0.0
C1468 C 0.60803 0.03924 0.80894 0.0
H1469 H 0.52804 0.04533 0.89626 0.0
H1470 H 0.54417 0.04498 0.8686 0.0
C1471 C 0.61995 0.03574 0.79645 0.0
C1472 C 0.60241 0.05367 0.83993 0.0
H1473 H 0.57419 0.03092 0.86866 0.0
C1474 C 0.60093 0.07165 0.84518 0.0
C1475 C 0.59259 0.03877 0.84839 0.0
C1476 C 0.59429 0.01931 0.84386 0.0
C1477 C 0.58984 0.07513 0.85876 0.0
C1478 C 0.58024 0.06026 0.86738 0.0
C1479 C 0.58148 0.04225 0.86188 0.0
C1480 C 0.56975 0.06307 0.88308 0.0
C1481 C 0.58848 0.09463 0.86373 0.0
C1482 C 0.57875 0.07366 0.90024 0.0
C1483 C 0.56956 0.07395 0.91602 0.0
C1484 C 0.55127 0.06355 0.91493 0.0
C1485 C 0.54206 0.05365 0.89749 0.0
C1486 C 0.55127 0.05335 0.88171 0.0
H1487 H 0.59215 0.10311 0.85228 0.0
H1488 H 0.57449 0.09462 0.86657 0.0
H1489 H 0.59809 0.10138 0.87664 0.0
H1490 H 0.5931 0.08098 0.90167 0.0
H1491 H 0.57694 0.08183 0.92925 0.0
H1492 H 0.27982 0.38108 0.0931 0.0
H1493 H 0.27995 0.37094 0.12421 0.0
H1494 H 0.24717 0.31633 0.09925 0.0
H1495 H 0.24692 0.32632 0.06798 0.0
H1496 H 0.24821 0.35452 0.14286 0.0
H1497 H 0.29325 0.30854 0.13029 0.0
H1498 H 0.29179 0.32653 0.11607 0.0
H1499 H 0.27396 0.30515 0.11258 0.0
C1500 C 0.27264 0.36689 0.09418 0.0
C1501 C 0.26342 0.35446 0.07802 0.0
C1502 C 0.2727 0.36116 0.11198 0.0
C1503 C 0.2637 0.34288 0.11396 0.0
C1504 C 0.25436 0.33046 0.09794 0.0
H1505 H 0.25394 0.27732 0.20464 0.0
H1506 H 0.25193 0.2898 0.17496 0.0
C1507 C 0.2542 0.3362 0.0801 0.0
C1508 C 0.26419 0.33679 0.1328 0.0
H1509 H 0.28038 0.30792 0.15877 0.0
C1510 C 0.25526 0.34437 0.14643 0.0
C1511 C 0.27348 0.32362 0.13733 0.0
C1512 C 0.28381 0.31554 0.1234 0.0
C1513 C 0.25494 0.3387 0.16438 0.0
C1514 C 0.26415 0.32542 0.16889 0.0
C1515 C 0.27328 0.31806 0.15529 0.0
C1516 C 0.2641 0.31841 0.18735 0.0
C1517 C 0.2443 0.34656 0.17812 0.0
C1518 C 0.27141 0.33038 0.2043 0.0
C1519 C 0.27244 0.32326 0.22144 0.0
C1520 C 0.26643 0.30404 0.22181 0.0
C1521 C 0.25882 0.29219 0.20485 0.0
C1522 C 0.25765 0.2993 0.18784 0.0
H1523 H 0.23427 0.35269 0.17091 0.0
H1524 H 0.23692 0.33571 0.18598 0.0
H1525 H 0.25388 0.35769 0.18847 0.0
H1526 H 0.27682 0.34514 0.20422 0.0
H1527 H 0.27849 0.33273 0.23425 0.0
H1528 H 0.20305 0.93185 0.00062 0.0
H1529 H 0.1877 0.95585 0.00809 0.0
H1530 H 0.23939 0.99461 0.03138 0.0
H1531 H 0.25484 0.97063 0.02428 0.0
H1532 H 0.21349 0.99378 0.05488 0.0
H1533 H 0.1862 1.00122 0.98296 0.0
H1534 H 0.1801 0.97753 0.98724 0.0
H1535 H 0.20372 0.9896 0.98732 0.0
C1536 C 0.21118 0.94553 0.00715 0.0
C1537 C 0.23014 0.94934 0.01187 0.0
C1538 C 0.20241 0.95926 0.01129 0.0
C1539 C 0.21247 0.97707 0.02001 0.0
C1540 C 0.23142 0.98098 0.02454 0.0
H1541 H 0.15163 0.0599 0.0329 0.0
H1542 H 0.177 0.0468 0.02724 0.0
C1543 C 0.2402 0.96725 0.02048 0.0
C1544 C 0.20301 0.99118 0.02551 0.0
H1545 H 0.17196 0.01246 0.00838 0.0
C1546 C 0.20463 0.99812 0.0447 0.0
C1547 C 0.19177 0.9971 0.01216 0.0
C1548 C 0.19048 0.99113 0.99125 0.0
C1549 C 0.19444 0.00999 0.05101 0.0
C1550 C 0.18211 0.01472 0.03781 0.0
C1551 C 0.18131 0.00867 0.01851 0.0
C1552 C 0.1687 0.02444 0.04371 0.0
C1553 C 0.19676 0.01711 0.07178 0.0
C1554 C 0.15588 0.0164 0.05514 0.0
C1555 C 0.1415 0.02391 0.05851 0.0
C1556 C 0.13957 0.03948 0.05033 0.0
C1557 C 0.15288 0.04801 0.03956 0.0
C1558 C 0.1673 0.0405 0.03622 0.0
H1559 H 0.21058 0.01776 0.07869 0.0
H1560 H 0.19457 0.03112 0.07422 0.0
H1561 H 0.18667 0.00748 0.07866 0.0
H1562 H 0.15648 0.00378 0.06073 0.0
H1563 H 0.13152 0.01714 0.06699 0.0
H1564 H 0.72908 0.64269 0.05498 0.0
H1565 H 0.69838 0.62173 0.05282 0.0
H1566 H 0.68721 0.62983 0.99495 0.0
H1567 H 0.71788 0.65072 0.9969 0.0
H1568 H 0.66512 0.63067 0.04372 0.0
H1569 H 0.67246 0.57273 0.99312 0.0
H1570 H 0.69182 0.59037 0.00607 0.0
H1571 H 0.67927 0.59525 0.98575 0.0
C1572 C 0.72014 0.63994 0.04176 0.0
C1573 C 0.72593 0.64834 0.0261 0.0
C1574 C 0.70262 0.62797 0.04056 0.0
C1575 C 0.69067 0.62408 0.02366 0.0
C1576 C 0.69638 0.63241 0.00801 0.0
H1577 H 0.57331 0.5809 0.00743 0.0
H1578 H 0.60489 0.59898 0.00792 0.0
C1579 C 0.71387 0.64443 0.0092 0.0
C1580 C 0.67193 0.61194 0.02267 0.0
H1581 H 0.64249 0.57138 0.00015 0.0
C1582 C 0.66017 0.61767 0.03426 0.0
C1583 C 0.66563 0.59494 0.01041 0.0
C1584 C 0.67797 0.58781 0.99823 0.0
C1585 C 0.64211 0.60699 0.03366 0.0
C1586 C 0.63565 0.59027 0.021 0.0
C1587 C 0.64749 0.58433 0.00968 0.0
C1588 C 0.61661 0.57874 0.01949 0.0
C1589 C 0.6301 0.61358 0.04669 0.0
C1590 C 0.61282 0.56114 0.02529 0.0
C1591 C 0.59478 0.55073 0.02502 0.0
C1592 C 0.58025 0.55773 0.01882 0.0
C1593 C 0.58415 0.57512 0.01238 0.0
C1594 C 0.60219 0.58551 0.01271 0.0
H1595 H 0.63819 0.62439 0.05833 0.0
H1596 H 0.62059 0.61963 0.03855 0.0
H1597 H 0.62184 0.60184 0.05287 0.0
H1598 H 0.62383 0.55568 0.03048 0.0
H1599 H 0.59224 0.53737 0.03 0.0
H1600 H 0.62843 0.46218 0.29731 0.0
H1601 H 0.64802 0.44122 0.29789 0.0
H1602 H 0.68997 0.48156 0.27734 0.0
H1603 H 0.67062 0.50265 0.27686 0.0
H1604 H 0.66406 0.42641 0.26816 0.0
H1605 H 0.71638 0.4703 0.32539 0.0
H1606 H 0.69405 0.47381 0.32045 0.0
H1607 H 0.71147 0.48212 0.30603 0.0
C1608 C 0.64181 0.46659 0.29288 0.0
C1609 C 0.64801 0.48414 0.28716 0.0
C1610 C 0.65297 0.45459 0.29323 0.0
C1611 C 0.67054 0.46 0.28799 0.0
C1612 C 0.67659 0.4773 0.28182 0.0
H1613 H 0.7598 0.41143 0.27693 0.0
H1614 H 0.73934 0.43146 0.27831 0.0
C1615 C 0.66546 0.48929 0.28145 0.0
C1616 C 0.68254 0.44751 0.28879 0.0
H1617 H 0.72369 0.44457 0.30911 0.0
C1618 C 0.67704 0.43029 0.2772 0.0
C1619 C 0.69944 0.45265 0.30063 0.0
C1620 C 0.70566 0.47065 0.31397 0.0
C1621 C 0.68826 0.41826 0.27673 0.0
C1622 C 0.70525 0.4235 0.28841 0.0
C1623 C 0.71066 0.44063 0.30015 0.0
C1624 C 0.71781 0.41155 0.28836 0.0
C1625 C 0.68208 0.40029 0.26333 0.0
C1626 C 0.71262 0.3939 0.29398 0.0
C1627 C 0.72431 0.38245 0.29329 0.0
C1628 C 0.74143 0.38851 0.28706 0.0
C1629 C 0.74678 0.40642 0.28195 0.0
C1630 C 0.73507 0.41784 0.28263 0.0
H1631 H 0.67088 0.40036 0.25232 0.0
H1632 H 0.69358 0.39757 0.25632 0.0
H1633 H 0.67697 0.38868 0.27136 0.0
H1634 H 0.69951 0.38896 0.29886 0.0
H1635 H 0.71994 0.36886 0.29765 0.0
H1636 H 0.82927 0.43991 0.54756 0.0
H1637 H 0.86236 0.45363 0.55347 0.0
H1638 H 0.85951 0.483 0.50565 0.0
H1639 H 0.82648 0.4693 0.49951 0.0
H1640 H 0.88672 0.44969 0.52404 0.0
H1641 H 0.89044 0.52264 0.55142 0.0
H1642 H 0.87083 0.50344 0.55246 0.0
H1643 H 0.87449 0.51226 0.53058 0.0
C1644 C 0.83565 0.44944 0.53842 0.0
C1645 C 0.82528 0.45351 0.52305 0.0
C1646 C 0.85452 0.45723 0.54182 0.0
C1647 C 0.86324 0.4694 0.53009 0.0
C1648 C 0.85292 0.47379 0.51498 0.0
H1649 H 0.97087 0.52823 0.51386 0.0
H1650 H 0.93823 0.51599 0.51481 0.0
C1651 C 0.83409 0.46589 0.51146 0.0
C1652 C 0.88328 0.47662 0.53281 0.0
H1653 H 0.91791 0.51655 0.54372 0.0
C1654 C 0.89363 0.46426 0.52854 0.0
C1655 C 0.89207 0.49563 0.53857 0.0
C1656 C 0.88146 0.50931 0.54367 0.0
C1657 C 0.91262 0.47054 0.5292 0.0
C1658 C 0.92146 0.48964 0.53479 0.0
C1659 C 0.91109 0.50192 0.53947 0.0
C1660 C 0.94133 0.49731 0.53488 0.0
C1661 C 0.92291 0.45682 0.52311 0.0
C1662 C 0.95391 0.49106 0.54608 0.0
C1663 C 0.9726 0.49788 0.54542 0.0
C1664 C 0.97901 0.51129 0.53376 0.0
C1665 C 0.96638 0.5179 0.52298 0.0
C1666 C 0.94772 0.51094 0.52352 0.0
H1667 H 0.91369 0.4439 0.5148 0.0
H1668 H 0.93358 0.46292 0.51447 0.0
H1669 H 0.92968 0.45296 0.53579 0.0
H1670 H 0.94927 0.48087 0.5553 0.0
H1671 H 0.98201 0.49269 0.55406 0.0
H1672 H 0.34702 0.05616 0.27687 0.0
H1673 H 0.32211 0.0707 0.27355 0.0
H1674 H 0.35719 0.11647 0.25233 0.0
H1675 H 0.38232 0.10214 0.25574 0.0
H1676 H 0.33757 0.12662 0.28132 0.0
H1677 H 0.29265 0.07488 0.22359 0.0
H1678 H 0.3004 0.06562 0.24383 0.0
H1679 H 0.31658 0.07659 0.22931 0.0
C1680 C 0.34946 0.06931 0.27145 0.0
C1681 C 0.36664 0.078 0.26651 0.0
C1682 C 0.33517 0.07751 0.26946 0.0
C1683 C 0.33779 0.09447 0.26244 0.0
C1684 C 0.35493 0.10329 0.25767 0.0
H1685 H 0.26976 0.15803 0.22178 0.0
H1686 H 0.28729 0.13559 0.22542 0.0
C1687 C 0.36925 0.0951 0.25963 0.0
C1688 C 0.32283 0.10337 0.26062 0.0
H1689 H 0.28091 0.09889 0.23651 0.0
C1690 C 0.32513 0.12055 0.2716 0.0
C1691 C 0.30672 0.09535 0.24785 0.0
C1692 C 0.3039 0.07716 0.23533 0.0
C1693 C 0.31179 0.1301 0.27001 0.0
C1694 C 0.29562 0.12207 0.2573 0.0
C1695 C 0.29324 0.10481 0.24641 0.0
C1696 C 0.28194 0.13234 0.25397 0.0
C1697 C 0.31537 0.14902 0.28145 0.0
C1698 C 0.27241 0.13712 0.26852 0.0
C1699 C 0.26233 0.14992 0.26648 0.0
C1700 C 0.26162 0.15801 0.24982 0.0
C1701 C 0.26993 0.15194 0.23471 0.0
C1702 C 0.28002 0.13918 0.23679 0.0
H1703 H 0.32985 0.15462 0.28787 0.0
H1704 H 0.31184 0.15903 0.27254 0.0
H1705 H 0.30673 0.14801 0.29299 0.0
H1706 H 0.27355 0.13171 0.28178 0.0
H1707 H 0.25583 0.15416 0.27823 0.0
H1708 H 0.35235 0.18455 0.53551 0.0
H1709 H 0.3733 0.16513 0.53858 0.0
H1710 H 0.32967 0.11666 0.51472 0.0
H1711 H 0.30872 0.1359 0.51137 0.0
H1712 H 0.37025 0.13517 0.55914 0.0
H1713 H 0.37048 0.11296 0.48309 0.0
H1714 H 0.36215 0.13227 0.49145 0.0
H1715 H 0.3481 0.10887 0.49013 0.0
C1716 C 0.34724 0.16978 0.53079 0.0
C1717 C 0.32888 0.16179 0.52313 0.0
C1718 C 0.35922 0.15871 0.53258 0.0
C1719 C 0.35309 0.13952 0.52663 0.0
C1720 C 0.33477 0.1315 0.51903 0.0
H1721 H 0.39988 0.04686 0.52799 0.0
H1722 H 0.37979 0.06717 0.5253 0.0
C1723 C 0.32279 0.14253 0.51723 0.0
C1724 C 0.36564 0.12774 0.52897 0.0
H1725 H 0.38407 0.09719 0.5047 0.0
C1726 C 0.3734 0.12696 0.54725 0.0
C1727 C 0.36964 0.11702 0.5134 0.0
C1728 C 0.36231 0.1179 0.49339 0.0
C1729 C 0.38474 0.11539 0.55043 0.0
C1730 C 0.38864 0.10458 0.53488 0.0
C1731 C 0.38098 0.10545 0.51659 0.0
C1732 C 0.4007 0.0923 0.53723 0.0
C1733 C 0.39209 0.11449 0.57044 0.0
C1734 C 0.4191 0.09973 0.54478 0.0
C1735 C 0.43057 0.08816 0.54647 0.0
C1736 C 0.42387 0.06894 0.54051 0.0
C1737 C 0.4054 0.06155 0.53298 0.0
C1738 C 0.39394 0.07314 0.5313 0.0
H1739 H 0.3842 0.11984 0.5808 0.0
H1740 H 0.39182 0.10004 0.57245 0.0
H1741 H 0.40645 0.12314 0.57353 0.0
H1742 H 0.42465 0.11452 0.54916 0.0
H1743 H 0.44469 0.09427 0.55246 0.0
H1744 H 0.68034 0.58064 0.30154 0.0
H1745 H 0.70239 0.61114 0.30421 0.0
H1746 H 0.65826 0.63629 0.29567 0.0
H1747 H 0.63617 0.60601 0.29339 0.0
H1748 H 0.70699 0.6335 0.27709 0.0
H1749 H 0.68994 0.67072 0.34034 0.0
H1750 H 0.68208 0.64579 0.33439 0.0
H1751 H 0.67022 0.66034 0.32324 0.0
C1752 C 0.67533 0.59271 0.3005 0.0
C1753 C 0.6565 0.59092 0.29726 0.0
C1754 C 0.68795 0.61011 0.30203 0.0
C1755 C 0.68197 0.62601 0.30044 0.0
C1756 C 0.66318 0.62428 0.29744 0.0
H1757 H 0.72091 0.73606 0.27726 0.0
H1758 H 0.70435 0.70529 0.28309 0.0
C1759 C 0.65056 0.60692 0.296 0.0
C1760 C 0.69527 0.64419 0.30037 0.0
H1761 H 0.70665 0.68977 0.31965 0.0
C1762 C 0.70717 0.64575 0.28662 0.0
C1763 C 0.6955 0.66013 0.31285 0.0
C1764 C 0.68387 0.65914 0.32866 0.0
C1765 C 0.71863 0.66301 0.28439 0.0
C1766 C 0.71821 0.67902 0.2963 0.0
C1767 C 0.70682 0.67741 0.31049 0.0
C1768 C 0.72852 0.69773 0.29335 0.0
C1769 C 0.73051 0.66417 0.2688 0.0
C1770 C 0.74759 0.70365 0.29736 0.0
C1771 C 0.75715 0.72129 0.29408 0.0
C1772 C 0.74775 0.73321 0.28666 0.0
C1773 C 0.7286 0.72721 0.28284 0.0
C1774 C 0.71909 0.70966 0.28623 0.0
H1775 H 0.72758 0.65078 0.25935 0.0
H1776 H 0.72854 0.67505 0.26024 0.0
H1777 H 0.74506 0.66812 0.27505 0.0
H1778 H 0.75504 0.69462 0.303 0.0
H1779 H 0.77188 0.72551 0.29721 0.0
H1780 H 0.89249 0.48698 0.75439 0.0
H1781 H 0.87371 0.45496 0.74998 0.0
H1782 H 0.828 0.47348 0.7665 0.0
H1783 H 0.84719 0.50562 0.77204 0.0
H1784 H 0.82992 0.44602 0.78312 0.0
H1785 H 0.83625 0.42555 0.70887 0.0
H1786 H 0.85858 0.43415 0.72192 0.0
H1787 H 0.84405 0.44941 0.71985 0.0
C1788 C 0.87837 0.48424 0.75689 0.0
C1789 C 0.87125 0.49875 0.76349 0.0
C1790 C 0.86758 0.46592 0.75417 0.0
C1791 C 0.84926 0.46178 0.75738 0.0
C1792 C 0.84205 0.47633 0.76378 0.0
H1793 H 0.78714 0.34456 0.72881 0.0
H1794 H 0.79771 0.3781 0.72842 0.0
C1795 C 0.853 0.49466 0.76695 0.0
C1796 C 0.83819 0.44217 0.75551 0.0
H1797 H 0.82891 0.40035 0.72765 0.0
C1798 C 0.82942 0.43611 0.77082 0.0
C1799 C 0.83704 0.42924 0.7393 0.0
C1800 C 0.84431 0.43501 0.7215 0.0
C1801 C 0.82045 0.41736 0.7708 0.0
C1802 C 0.82101 0.40417 0.75543 0.0
C1803 C 0.82884 0.41036 0.73966 0.0
C1804 C 0.81425 0.38391 0.75575 0.0
C1805 C 0.81044 0.412 0.78727 0.0
C1806 C 0.82027 0.37596 0.77104 0.0
C1807 C 0.81392 0.35694 0.77147 0.0
C1808 C 0.80193 0.34541 0.7563 0.0
C1809 C 0.79641 0.35319 0.74067 0.0
C1810 C 0.80242 0.37233 0.74046 0.0
H1811 H 0.80538 0.42353 0.79356 0.0
H1812 H 0.79865 0.39953 0.78304 0.0
H1813 H 0.81994 0.40905 0.7984 0.0
H1814 H 0.82997 0.38445 0.78264 0.0
H1815 H 0.81859 0.35122 0.78356 0.0
H1816 H 0.06511 0.87189 0.11853 0.0
H1817 H 0.0612 0.89855 0.1039 0.0
H1818 H 0.02901 0.86186 0.05535 0.0
H1819 H 0.03285 0.83492 0.06998 0.0
H1820 H 0.07064 0.90973 0.0688 0.0
H1821 H 0.99602 0.8949 0.07147 0.0
H1822 H 0.01027 0.88403 0.0851 0.0
H1823 H 0.00367 0.87629 0.0603 0.0
C1824 C 0.05721 0.86939 0.10471 0.0
C1825 C 0.04924 0.85114 0.09551 0.0
C1826 C 0.05501 0.88473 0.09633 0.0
C1827 C 0.04461 0.88231 0.0786 0.0
C1828 C 0.03686 0.86414 0.06917 0.0
H1829 H 0.01103 0.964 0.01554 0.0
H1830 H 0.01576 0.93553 0.0258 0.0
C1831 C 0.03918 0.84872 0.07751 0.0
C1832 C 0.04197 0.89889 0.07019 0.0
H1833 H 0.0098 0.921 0.05755 0.0
C1834 C 0.05733 0.91216 0.06629 0.0
C1835 C 0.02461 0.90212 0.06684 0.0
C1836 C 0.00767 0.8887 0.07125 0.0
C1837 C 0.05581 0.92843 0.05909 0.0
C1838 C 0.03849 0.93191 0.05615 0.0
C1839 C 0.0231 0.91848 0.0598 0.0
C1840 C 0.03605 0.94946 0.0496 0.0
C1841 C 0.0728 0.94154 0.05436 0.0
C1842 C 0.04573 0.96695 0.05955 0.0
C1843 C 0.04315 0.98333 0.05361 0.0
C1844 C 0.03061 0.98268 0.03769 0.0
C1845 C 0.02084 0.96514 0.02782 0.0
C1846 C 0.0235 0.94878 0.03372 0.0
H1847 H 0.08337 0.93429 0.05157 0.0
H1848 H 0.06976 0.94812 0.04182 0.0
H1849 H 0.07863 0.95263 0.06651 0.0
H1850 H 0.05511 0.96799 0.07214 0.0
H1851 H 0.05084 0.9965 0.06171 0.0
H1852 H 0.94422 0.24415 0.88071 0.0
H1853 H 0.91689 0.24331 0.85925 0.0
H1854 H 0.92946 0.30294 0.87069 0.0
H1855 H 0.95693 0.3039 0.89135 0.0
H1856 H 0.88671 0.25322 0.86324 0.0
H1857 H 0.92345 0.29651 0.81467 0.0
H1858 H 0.93518 0.28755 0.83281 0.0
H1859 H 0.92848 0.30855 0.83827 0.0
C1860 C 0.94115 0.25706 0.87857 0.0
C1861 C 0.95291 0.2741 0.88753 0.0
C1862 C 0.92552 0.25658 0.8663 0.0
C1863 C 0.92131 0.27311 0.86287 0.0
C1864 C 0.93269 0.29003 0.87247 0.0
H1865 H 0.81592 0.28554 0.81911 0.0
H1866 H 0.84245 0.28181 0.83838 0.0
C1867 C 0.94837 0.29054 0.88443 0.0
C1868 C 0.90498 0.27284 0.84952 0.0
H1869 H 0.89131 0.29326 0.8127 0.0
C1870 C 0.88774 0.26183 0.85206 0.0
C1871 C 0.90625 0.28372 0.83458 0.0
C1872 C 0.92437 0.29457 0.82978 0.0
C1873 C 0.87177 0.26192 0.84059 0.0
C1874 C 0.87293 0.27383 0.82654 0.0
C1875 C 0.89025 0.28433 0.82361 0.0
C1876 C 0.85648 0.27576 0.81477 0.0
C1877 C 0.8539 0.24895 0.8435 0.0
C1878 C 0.85565 0.27437 0.79503 0.0
C1879 C 0.84067 0.27702 0.78399 0.0
C1880 C 0.82604 0.28096 0.7924 0.0
C1881 C 0.82684 0.2823 0.81213 0.0
C1882 C 0.84198 0.27998 0.82319 0.0
H1883 H 0.85605 0.23667 0.84962 0.0
H1884 H 0.84722 0.25633 0.85358 0.0
H1885 H 0.84454 0.24404 0.83007 0.0
H1886 H 0.86664 0.27123 0.78812 0.0
H1887 H 0.8405 0.27584 0.76884 0.0
H1888 H 0.52963 0.2257 0.61884 0.0
H1889 H 0.52829 0.1943 0.60517 0.0
H1890 H 0.54837 0.2148 0.55553 0.0
H1891 H 0.54938 0.24655 0.56908 0.0
H1892 H 0.5209 0.18198 0.5467 0.0
H1893 H 0.57198 0.17418 0.60276 0.0
H1894 H 0.55324 0.18034 0.61224 0.0
H1895 H 0.56798 0.19631 0.59986 0.0
C1896 C 0.53375 0.22362 0.60498 0.0
C1897 C 0.53979 0.23875 0.59516 0.0
C1898 C 0.53309 0.20559 0.59722 0.0
C1899 C 0.53871 0.20214 0.57952 0.0
C1900 C 0.54414 0.21709 0.5693 0.0
H1901 H 0.54588 0.09647 0.5187 0.0
H1902 H 0.5486 0.12945 0.52809 0.0
C1903 C 0.54468 0.23524 0.57705 0.0
C1904 C 0.53887 0.18289 0.57194 0.0
H1905 H 0.55413 0.14617 0.58346 0.0
C1906 C 0.52835 0.17424 0.55462 0.0
C1907 C 0.54867 0.17271 0.58217 0.0
C1908 C 0.56125 0.18142 0.60018 0.0
C1909 C 0.52678 0.15556 0.54772 0.0
C1910 C 0.53604 0.14525 0.55834 0.0
C1911 C 0.5469 0.15401 0.57539 0.0
C1912 C 0.53423 0.12519 0.55233 0.0
C1913 C 0.51475 0.14675 0.52944 0.0
C1914 C 0.52547 0.1118 0.56295 0.0
C1915 C 0.52384 0.09293 0.55761 0.0
C1916 C 0.53116 0.08699 0.54162 0.0
C1917 C 0.5401 0.10048 0.5311 0.0
C1918 C 0.54158 0.11937 0.53638 0.0
H1919 H 0.50625 0.15561 0.52444 0.0
H1920 H 0.52339 0.14439 0.51844 0.0
H1921 H 0.50564 0.13306 0.53108 0.0
H1922 H 0.51976 0.11595 0.57536 0.0
H1923 H 0.51686 0.08301 0.56608 0.0
H1924 H 0.54027 0.75177 0.39897 0.0
H1925 H 0.56717 0.75311 0.38276 0.0
H1926 H 0.56846 0.80846 0.37179 0.0
H1927 H 0.54178 0.80735 0.3881 0.0
H1928 H 0.57194 0.75863 0.34552 0.0
H1929 H 0.62062 0.81471 0.39605 0.0
H1930 H 0.59867 0.80224 0.40158 0.0
H1931 H 0.60041 0.82064 0.38736 0.0
C1932 C 0.54631 0.76426 0.39317 0.0
C1933 C 0.5389 0.77949 0.39495 0.0
C1934 C 0.56168 0.76499 0.38389 0.0
C1935 C 0.57003 0.781 0.37633 0.0
C1936 C 0.56251 0.79611 0.37787 0.0
H1937 H 0.65912 0.81692 0.31221 0.0
H1938 H 0.63293 0.8133 0.32969 0.0
C1939 C 0.54716 0.7954 0.38712 0.0
C1940 C 0.58634 0.78181 0.36646 0.0
H1941 H 0.63064 0.80665 0.36681 0.0
C1942 C 0.58483 0.76902 0.35026 0.0
C1943 C 0.60317 0.79536 0.37266 0.0
C1944 C 0.60593 0.80891 0.39046 0.0
C1945 C 0.59949 0.7698 0.33974 0.0
C1946 C 0.61622 0.78355 0.34578 0.0
C1947 C 0.61781 0.79616 0.36215 0.0
C1948 C 0.6321 0.78546 0.33506 0.0
C1949 C 0.59674 0.75628 0.32192 0.0
C1950 C 0.64052 0.77108 0.33241 0.0
C1951 C 0.65547 0.77305 0.32228 0.0
C1952 C 0.66235 0.78949 0.31464 0.0
C1953 C 0.654 0.80394 0.31757 0.0
C1954 C 0.6391 0.80196 0.3277 0.0
H1955 H 0.58205 0.74967 0.31687 0.0
H1956 H 0.60315 0.7633 0.31052 0.0
H1957 H 0.60326 0.74516 0.32472 0.0
H1958 H 0.63559 0.75834 0.33825 0.0
H1959 H 0.66149 0.76161 0.32024 0.0
H1960 H 0.05223 0.28592 0.43072 0.0
H1961 H 0.04935 0.25936 0.44797 0.0
H1962 H 0.02621 0.22213 0.39648 0.0
H1963 H 0.02917 0.24865 0.37902 0.0
H1964 H 0.01762 0.23162 0.45141 0.0
H1965 H 0.06756 0.2015 0.41762 0.0
H1966 H 0.06638 0.22486 0.41585 0.0
H1967 H 0.04993 0.2055 0.4016 0.0
C1968 C 0.04657 0.2721 0.42301 0.0
C1969 C 0.04101 0.26945 0.40344 0.0
C1970 C 0.04492 0.25691 0.43292 0.0
C1971 C 0.0378 0.23873 0.4235 0.0
C1972 C 0.03207 0.23601 0.404 0.0
H1973 H 0.01885 0.13052 0.4626 0.0
H1974 H 0.02118 0.15596 0.44375 0.0
C1975 C 0.03368 0.25121 0.39406 0.0
C1976 C 0.03606 0.22272 0.43423 0.0
H1977 H 0.05089 0.18422 0.43877 0.0
C1978 C 0.02492 0.22127 0.44867 0.0
C1979 C 0.04552 0.20917 0.4306 0.0
C1980 C 0.05815 0.21033 0.41569 0.0
C1981 C 0.02286 0.20659 0.45946 0.0
C1982 C 0.03251 0.19317 0.45602 0.0
C1983 C 0.04352 0.19451 0.44144 0.0
C1984 C 0.03149 0.17774 0.46748 0.0
C1985 C 0.01006 0.2054 0.47422 0.0
C1986 C 0.03686 0.18147 0.48706 0.0
C1987 C 0.03557 0.16696 0.49788 0.0
C1988 C 0.02905 0.14835 0.48933 0.0
C1989 C 0.02408 0.14465 0.46964 0.0
C1990 C 0.02533 0.15919 0.45885 0.0
H1991 H 0.99999 0.21338 0.47148 0.0
H1992 H 1.00255 0.19077 0.4748 0.0
H1993 H 0.01807 0.21134 0.48824 0.0
H1994 H 0.04212 0.19565 0.494 0.0
H1995 H 0.03985 0.17033 0.51293 0.0
H1996 H 0.577 0.24675 0.17939 0.0
H1997 H 0.60824 0.25099 0.19338 0.0
H1998 H 0.59684 0.27671 0.24562 0.0
H1999 H 0.56501 0.27197 0.23168 0.0
H2000 H 0.63426 0.28145 0.20559 0.0
H2001 H 0.62245 0.24094 0.26519 0.0
H2002 H 0.60451 0.23999 0.24657 0.0
H2003 H 0.61144 0.25924 0.26531 0.0
C2004 C 0.58099 0.25323 0.19392 0.0
C2005 C 0.56835 0.25901 0.20437 0.0
C2006 C 0.59899 0.25566 0.20193 0.0
C2007 C 0.60507 0.26404 0.22067 0.0
C2008 C 0.59251 0.26984 0.23126 0.0
H2009 H 0.72338 0.30586 0.25797 0.0
H2010 H 0.69122 0.30327 0.24861 0.0
C2011 C 0.5743 0.26722 0.22325 0.0
C2012 C 0.62472 0.26711 0.22849 0.0
H2013 H 0.65301 0.25739 0.26347 0.0
C2014 C 0.63831 0.2762 0.21829 0.0
C2015 C 0.63018 0.26011 0.24493 0.0
C2016 C 0.61641 0.24937 0.25607 0.0
C2017 C 0.65698 0.27831 0.22386 0.0
C2018 C 0.66248 0.27165 0.24051 0.0
C2019 C 0.64892 0.26265 0.2508 0.0
C2020 C 0.68216 0.2734 0.24712 0.0
C2021 C 0.67053 0.28704 0.21135 0.0
C2022 C 0.68795 0.25761 0.2502 0.0
C2023 C 0.70642 0.25908 0.25587 0.0
C2024 C 0.71965 0.27641 0.25856 0.0
C2025 C 0.71375 0.29224 0.25578 0.0
C2026 C 0.69527 0.29077 0.25031 0.0
H2027 H 0.6639 0.28629 0.19674 0.0
H2028 H 0.67661 0.30191 0.21704 0.0
H2029 H 0.68168 0.28019 0.21078 0.0
H2030 H 0.67819 0.24403 0.24796 0.0
H2031 H 0.71034 0.24657 0.25791 0.0
H2032 H 0.55194 0.8647 0.88122 0.0
H2033 H 0.55278 0.89422 0.9 0.0
H2034 H 0.53392 0.865 0.94559 0.0
H2035 H 0.53309 0.8356 0.92708 0.0
H2036 H 0.52299 0.90413 0.91529 0.0
H2037 H 0.57867 0.90658 0.9717 0.0
H2038 H 0.57484 0.8917 0.9494 0.0
H2039 H 0.5609 0.88512 0.96754 0.0
C2040 C 0.54816 0.86458 0.89532 0.0
C2041 C 0.5425 0.84774 0.90263 0.0
C2042 C 0.5486 0.88146 0.90601 0.0
C2043 C 0.54363 0.88188 0.92431 0.0
C2044 C 0.53813 0.86511 0.93166 0.0
H2045 H 0.5295 0.9614 0.01367 0.0
H2046 H 0.53199 0.93428 0.99326 0.0
C2047 C 0.53758 0.84826 0.92098 0.0
C2048 C 0.54345 0.89965 0.93553 0.0
H2049 H 0.56089 0.92771 0.97744 0.0
C2050 C 0.53141 0.90941 0.92879 0.0
C2051 C 0.55437 0.9065 0.95318 0.0
C2052 C 0.56806 0.89705 0.96085 0.0
C2053 C 0.52955 0.92544 0.9395 0.0
C2054 C 0.54032 0.93218 0.9573 0.0
C2055 C 0.55258 0.92257 0.96386 0.0
C2056 C 0.53878 0.94887 0.96956 0.0
C2057 C 0.51553 0.93458 0.93196 0.0
C2058 C 0.54196 0.96625 0.96318 0.0
C2059 C 0.54043 0.98182 0.97481 0.0
C2060 C 0.5359 0.98042 0.99319 0.0
C2061 C 0.53299 0.96304 -0.00038 0.0
C2062 C 0.53443 0.94749 0.98795 0.0
H2063 H 0.50517 0.92504 0.92088 0.0
H2064 H 0.50842 0.93938 0.94341 0.0
H2065 H 0.52245 0.94683 0.92557 0.0
H2066 H 0.54577 0.96784 0.94925 0.0
H2067 H 0.54293 0.99498 0.96941 0.0
H2068 H 0.97123 0.75274 0.73028 0.0
H2069 H 0.94321 0.75348 0.74408 0.0
H2070 H 0.9211 0.76886 0.69281 0.0
H2071 H 0.94853 0.76773 0.67893 0.0
H2072 H 0.9268 0.78054 0.75191 0.0
H2073 H 0.87948 0.72612 0.69927 0.0
H2074 H 0.90391 0.73034 0.70091 0.0
H2075 H 0.89255 0.74432 0.68814 0.0
C2076 C 0.96035 0.75618 0.72193 0.0
C2077 C 0.96218 0.75997 0.70338 0.0
C2078 C 0.9443 0.75662 0.72984 0.0
C2079 C 0.92969 0.76078 0.71937 0.0
C2080 C 0.93177 0.76501 0.70106 0.0
H2081 H 0.84304 0.80318 0.75943 0.0
H2082 H 0.87122 0.79835 0.74964 0.0
C2083 C 0.94765 0.76448 0.69315 0.0
C2084 C 0.91245 0.76125 0.72752 0.0
H2085 H 0.86586 0.74596 0.71784 0.0
C2086 C 0.91349 0.77281 0.74453 0.0
C2087 C 0.89495 0.75093 0.71823 0.0
C2088 C 0.89263 0.73708 0.70074 0.0
C2089 C 0.89767 0.77492 0.75202 0.0
C2090 C 0.88017 0.76558 0.74204 0.0
C2091 C 0.87915 0.75342 0.72544 0.0
C2092 C 0.86281 0.76847 0.74829 0.0
C2093 C 0.89997 0.78702 0.77073 0.0
C2094 C 0.84813 0.75329 0.7502 0.0
C2095 C 0.83173 0.75601 0.75555 0.0
C2096 C 0.82954 0.774 0.75914 0.0
C2097 C 0.84419 0.78913 0.75705 0.0
C2098 C 0.86049 0.78639 0.75158 0.0
H2099 H 0.91307 0.78779 0.77935 0.0
H2100 H 0.90017 0.80132 0.76822 0.0
H2101 H 0.88864 0.7818 0.77895 0.0
H2102 H 0.84937 0.73928 0.7476 0.0
H2103 H 0.82078 0.74398 0.75687 0.0
H2104 H 0.10608 0.00611 0.83493 0.0
H2105 H 0.09243 0.00272 0.86415 0.0
H2106 H 0.08397 0.05711 0.86494 0.0
H2107 H 0.09789 0.06078 0.83601 0.0
H2108 H 0.09971 0.05223 0.89891 0.0
H2109 H 0.0391 0.99283 0.87217 0.0
H2110 H 0.06044 0.98862 0.86781 0.0
H2111 H 0.05281 0.00596 0.85668 0.0
C2112 C 0.10117 0.01729 0.84124 0.0
C2113 C 0.10307 0.03372 0.83313 0.0
C2114 C 0.09329 0.01528 0.85789 0.0
C2115 C 0.08697 0.02957 0.8666 0.0
C2116 C 0.08871 0.04589 0.85843 0.0
H2117 H 0.01761 0.02855 0.95419 0.0
H2118 H 0.03091 0.02826 0.92471 0.0
C2119 C 0.09666 0.04795 0.84187 0.0
C2120 C 0.07924 0.02795 0.88465 0.0
H2121 H 0.0446 0.00245 0.90522 0.0
C2122 C 0.08767 0.04134 0.9003 0.0
C2123 C 0.06342 0.01383 0.88638 0.0
C2124 C 0.05329 0.99958 0.86984 0.0
C2125 C 0.08071 0.04103 0.91762 0.0
C2126 C 0.06511 0.0267 0.91946 0.0
C2127 C 0.05666 0.01331 0.90382 0.0
C2128 C 0.05689 0.02588 0.93728 0.0
C2129 C 0.08983 0.05638 0.9336 0.0
C2130 C 0.06695 0.02425 0.95408 0.0
C2131 C 0.05943 0.02453 0.97101 0.0
C2132 C 0.04162 0.02626 0.9714 0.0
C2133 C 0.03138 0.02726 0.95442 0.0
C2134 C 0.03894 0.02707 0.93753 0.0
H2135 H 0.09858 0.06862 0.92852 0.0
H2136 H 0.07956 0.06093 0.94135 0.0
H2137 H 0.09862 0.05123 0.94365 0.0
H2138 H 0.08069 0.02292 0.95413 0.0
H2139 H 0.06764 0.02357 0.9838 0.0
H2140 H 0.78749 0.36591 0.49794 0.0
H2141 H 0.78923 0.3429 0.51899 0.0
H2142 H 0.75896 0.36745 0.55682 0.0
H2143 H 0.75691 0.39028 0.5358 0.0
H2144 H 0.80642 0.35163 0.55496 0.0
H2145 H 0.73451 0.31254 0.55499 0.0
H2146 H 0.74171 0.32683 0.53707 0.0
H2147 H 0.73772 0.33712 0.55948 0.0
C2148 C 0.7809 0.36619 0.51056 0.0
C2149 C 0.77211 0.37996 0.51523 0.0
C2150 C 0.7819 0.35303 0.52255 0.0
C2151 C 0.77403 0.35332 0.53933 0.0
C2152 C 0.76475 0.36668 0.54372 0.0
H2153 H 0.80434 0.33126 0.64798 0.0
H2154 H 0.79974 0.3428 0.61799 0.0
C2155 C 0.76372 0.37982 0.53175 0.0
C2156 C 0.77722 0.34114 0.55332 0.0
H2157 H 0.75561 0.31197 0.58209 0.0
C2158 C 0.79531 0.34267 0.56063 0.0
C2159 C 0.76274 0.32928 0.56056 0.0
C2160 C 0.74308 0.32618 0.55247 0.0
C2161 C 0.79927 0.33356 0.57579 0.0
C2162 C 0.78476 0.32288 0.58397 0.0
C2163 C 0.7667 0.32037 0.57591 0.0
C2164 C 0.78804 0.31558 0.60182 0.0
C2165 C 0.81895 0.33581 0.58323 0.0
C2166 C 0.78272 0.29645 0.60266 0.0
C2167 C 0.78527 0.28981 0.61983 0.0
C2168 C 0.79294 0.30224 0.63642 0.0
C2169 C 0.79827 0.32138 0.63546 0.0
C2170 C 0.79581 0.32797 0.61832 0.0
H2171 H 0.82804 0.33956 0.57233 0.0
H2172 H 0.82329 0.34714 0.59535 0.0
H2173 H 0.82077 0.32289 0.58817 0.0
H2174 H 0.77654 0.28671 0.59006 0.0
H2175 H 0.78088 0.275 0.62022 0.0
H2176 H 0.42576 0.05995 0.33468 0.0
H2177 H 0.44357 0.06203 0.3653 0.0
H2178 H 0.4187 0.00391 0.36659 0.0
H2179 H 0.40034 0.00187 0.33624 0.0
H2180 H 0.42118 0.0239 0.40024 0.0
H2181 H 0.48782 0.04315 0.37308 0.0
H2182 H 0.47452 0.05902 0.36895 0.0
H2183 H 0.46644 0.0353 0.35771 0.0
C2184 C 0.42402 0.04763 0.34153 0.0
C2185 C 0.41176 0.03071 0.33302 0.0
C2186 C 0.43431 0.04882 0.35895 0.0
C2187 C 0.43281 0.03302 0.36797 0.0
C2188 C 0.42016 0.01624 0.35978 0.0
H2189 H 0.51102 0.01906 0.45647 0.0
H2190 H 0.49264 0.01881 0.42664 0.0
C2191 C 0.40967 0.0151 0.34247 0.0
C2192 C 0.44443 0.03395 0.38592 0.0
H2193 H 0.48873 0.04537 0.40639 0.0
C2194 C 0.43596 0.02853 0.40159 0.0
C2195 C 0.46371 0.0397 0.38753 0.0
C2196 C 0.47367 0.04443 0.37087 0.0
C2197 C 0.44623 0.02888 0.41892 0.0
C2198 C 0.46549 0.03539 0.42074 0.0
C2199 C 0.47396 0.04063 0.40502 0.0
C2200 C 0.47712 0.03634 0.43869 0.0
C2201 C 0.43634 0.0218 0.43491 0.0
C2202 C 0.47482 0.0467 0.45524 0.0
C2203 C 0.48513 0.04667 0.47233 0.0
C2204 C 0.49819 0.0366 0.47307 0.0
C2205 C 0.50106 0.02695 0.45633 0.0
C2206 C 0.49056 0.02678 0.43929 0.0
H2207 H 0.42251 0.01246 0.42969 0.0
H2208 H 0.44409 0.01416 0.44329 0.0
H2209 H 0.43471 0.03373 0.44439 0.0
H2210 H 0.46492 0.05464 0.45498 0.0
H2211 H 0.48277 0.05442 0.48497 0.0
H2212 H 0.79141 0.71709 0.07378 0.0
H2213 H 0.7914 0.73155 0.10583 0.0
H2214 H 0.74385 0.74867 0.08733 0.0
H2215 H 0.74348 0.73384 0.05523 0.0
H2216 H 0.79363 0.76727 0.12119 0.0
H2217 H 0.72705 0.71916 0.12939 0.0
H2218 H 0.7394 0.71525 0.10996 0.0
H2219 H 0.72651 0.73203 0.10988 0.0
C2220 C 0.78101 0.72404 0.07647 0.0
C2221 C 0.76732 0.72414 0.06199 0.0
C2222 C 0.78104 0.73231 0.09481 0.0
C2223 C 0.76742 0.74085 0.09904 0.0
C2224 C 0.75423 0.74176 0.08446 0.0
H2225 H 0.74837 0.78617 0.21062 0.0
H2226 H 0.74723 0.77906 0.17636 0.0
C2227 C 0.75411 0.73338 0.0661 0.0
C2228 C 0.76684 0.74827 0.11884 0.0
H2229 H 0.74129 0.74217 0.15516 0.0
C2230 C 0.78214 0.76187 0.12858 0.0
C2231 C 0.75182 0.74118 0.12847 0.0
C2232 C 0.73531 0.72599 0.11899 0.0
C2233 C 0.78295 0.76838 0.14776 0.0
C2234 C 0.76813 0.76098 0.15744 0.0
C2235 C 0.75259 0.74783 0.14761 0.0
C2236 C 0.76902 0.76573 0.17807 0.0
C2237 C 0.79971 0.78301 0.15758 0.0
C2238 C 0.78148 0.76035 0.19028 0.0
C2239 C 0.78209 0.76424 0.20977 0.0
C2240 C 0.77022 0.77361 0.21745 0.0
C2241 C 0.75771 0.77897 0.20516 0.0
C2242 C 0.75704 0.77494 0.18561 0.0
H2243 H 0.80765 0.79058 0.14737 0.0
H2244 H 0.79596 0.79318 0.16769 0.0
H2245 H 0.80866 0.77628 0.16562 0.0
H2246 H 0.79064 0.75297 0.18471 0.0
H2247 H 0.79193 0.75995 0.21879 0.0
H2248 H 0.10912 0.01542 0.72461 0.0
H2249 H 0.09551 0.01757 0.69306 0.0
H2250 H 0.0556 0.04074 0.71715 0.0
H2251 H 0.06914 0.0387 0.74886 0.0
H2252 H 0.0578 0.00199 0.67532 0.0
H2253 H 0.08087 0.07919 0.68354 0.0
H2254 H 0.0908 0.066 0.69889 0.0
H2255 H 0.06861 0.06886 0.7015 0.0
C2256 C 0.09738 0.02088 0.72324 0.0
C2257 C 0.09028 0.02698 0.73928 0.0
C2258 C 0.08962 0.02209 0.70519 0.0
C2259 C 0.07472 0.02954 0.70282 0.0
C2260 C 0.06726 0.03519 0.71873 0.0
H2261 H 0.02544 0.05337 0.59582 0.0
H2262 H 0.03199 0.05123 0.62947 0.0
C2263 C 0.07496 0.03391 0.73682 0.0
C2264 C 0.06726 0.03155 0.68363 0.0
H2265 H 0.06499 0.06364 0.65414 0.0
C2266 C 0.05922 0.01546 0.67071 0.0
C2267 C 0.06904 0.04915 0.67774 0.0
C2268 C 0.07789 0.06685 0.69104 0.0
C2269 C 0.05322 0.01648 0.65191 0.0
C2270 C 0.05572 0.03407 0.64579 0.0
C2271 C 0.06314 0.05018 0.65888 0.0
C2272 C 0.05195 0.03593 0.6256 0.0
C2273 C 0.04433 0.99869 0.63875 0.0
C2274 C 0.06137 0.02852 0.6124 0.0
C2275 C 0.05769 0.02971 0.59329 0.0
C2276 C 0.0446 0.03851 0.58692 0.0
C2277 C 0.03557 0.04648 0.60024 0.0
C2278 C 0.03926 0.04524 0.61945 0.0
H2279 H 0.03832 0.9872 0.64661 0.0
H2280 H 0.03345 1.00045 0.62832 0.0
H2281 H 0.05477 0.99457 0.63096 0.0
H2282 H 0.07156 0.02172 0.61689 0.0
H2283 H 0.06505 0.02355 0.58351 0.0
H2284 H 0.74475 0.41188 0.43532 0.0
H2285 H 0.73726 0.39222 0.4046 0.0
H2286 H 0.7935 0.39154 0.40596 0.0
H2287 H 0.80119 0.41168 0.43614 0.0
H2288 H 0.77857 0.39281 0.37078 0.0
H2289 H 0.73278 0.33768 0.40285 0.0
H2290 H 0.72665 0.3591 0.40317 0.0
H2291 H 0.74741 0.3585 0.4168 0.0
C2292 C 0.75555 0.40776 0.4289 0.0
C2293 C 0.77351 0.41309 0.43827 0.0
C2294 C 0.75123 0.39646 0.41141 0.0
C2295 C 0.76473 0.39003 0.40324 0.0
C2296 C 0.78284 0.39627 0.41205 0.0
H2297 H 0.7694 0.28989 0.3454 0.0
H2298 H 0.76568 0.31607 0.36633 0.0
C2299 C 0.78722 0.40776 0.42935 0.0
C2300 C 0.76008 0.37564 0.38643 0.0
H2301 H 0.7382 0.32988 0.37208 0.0
C2302 C 0.76956 0.37909 0.3709 0.0
C2303 C 0.74832 0.35776 0.3867 0.0
C2304 C 0.73829 0.35291 0.4033 0.0
C2305 C 0.76855 0.36486 0.35618 0.0
C2306 C 0.75728 0.34682 0.3568 0.0
C2307 C 0.74685 0.34371 0.37169 0.0
C2308 C 0.75803 0.33048 0.34374 0.0
C2309 C 0.78042 0.36908 0.3408 0.0
C2310 C 0.75451 0.3296 0.32409 0.0
C2311 C 0.75704 0.3148 0.31217 0.0
C2312 C 0.76273 0.30057 0.31975 0.0
C2313 C 0.76513 0.30084 0.33931 0.0
C2314 C 0.76297 0.31577 0.35122 0.0
H2315 H 0.791 0.3826 0.34454 0.0
H2316 H 0.78733 0.35805 0.3377 0.0
H2317 H 0.77177 0.36975 0.32776 0.0
H2318 H 0.75007 0.34044 0.31798 0.0
H2319 H 0.75456 0.31445 0.29708 0.0
H2320 H 0.46989 0.07257 0.28221 0.0
H2321 H 0.49538 0.0744 0.26377 0.0
H2322 H 0.45732 0.05421 0.21286 0.0
H2323 H 0.43189 0.05246 0.23103 0.0
H2324 H 0.50057 0.04354 0.24323 0.0
H2325 H 0.49574 0.09595 0.19657 0.0
H2326 H 0.48505 0.09451 0.21786 0.0
H2327 H 0.47395 0.07964 0.19631 0.0
C2328 C 0.46697 0.06893 0.26703 0.0
C2329 C 0.44888 0.06225 0.25807 0.0
C2330 C 0.48155 0.06999 0.25655 0.0
C2331 C 0.47823 0.06467 0.23695 0.0
C2332 C 0.4602 0.05878 0.22792 0.0
H2333 H 0.51443 0.00308 0.15579 0.0
H2334 H 0.50467 0.01626 0.18416 0.0
C2335 C 0.44566 0.05763 0.23836 0.0
C2336 C 0.4932 0.06284 0.22608 0.0
H2337 H 0.50895 0.07165 0.18445 0.0
C2338 C 0.5028 0.05007 0.23064 0.0
C2339 C 0.49633 0.07158 0.20986 0.0
C2340 C 0.48735 0.08634 0.20498 0.0
C2341 C 0.5142 0.04455 0.21846 0.0
C2342 C 0.51578 0.05184 0.20125 0.0
C2343 C 0.50752 0.06587 0.19755 0.0
C2344 C 0.52373 0.04342 0.18585 0.0
C2345 C 0.52382 0.03039 0.22376 0.0
C2346 C 0.53768 0.05432 0.1774 0.0
C2347 C 0.54319 0.04683 0.16109 0.0
C2348 C 0.53465 0.0284 0.15288 0.0
C2349 C 0.52117 0.01734 0.16179 0.0
C2350 C 0.51574 0.0248 0.1781 0.0
H2351 H 0.52657 0.03121 0.23932 0.0
H2352 H 0.51495 0.01627 0.21815 0.0
H2353 H 0.53691 0.0323 0.21781 0.0
H2354 H 0.54385 0.06878 0.18307 0.0
H2355 H 0.55347 0.05572 0.15437 0.0
H2356 H 0.79317 0.75186 0.98372 0.0
H2357 H 0.79449 0.76212 0.95259 0.0
H2358 H 0.77653 0.70514 0.92611 0.0
H2359 H 0.77521 0.69475 0.95699 0.0
H2360 H 0.80752 0.72812 0.9123 0.0
H2361 H 0.74899 0.75886 0.91387 0.0
H2362 H 0.76653 0.76642 0.93383 0.0
H2363 H 0.75284 0.74274 0.92954 0.0
C2364 C 0.7895 0.74153 0.97127 0.0
C2365 C 0.78401 0.7225 0.97284 0.0
C2366 C 0.7902 0.74741 0.95352 0.0
C2367 C 0.78544 0.73436 0.9371 0.0
C2368 C 0.7802 0.7154 0.93863 0.0
H2369 H 0.7572 0.74525 0.82088 0.0
H2370 H 0.75863 0.73666 0.85266 0.0
C2371 C 0.77942 0.70952 0.95631 0.0
C2372 C 0.78587 0.74033 0.91823 0.0
H2373 H 0.76465 0.76164 0.88723 0.0
C2374 C 0.79823 0.73553 0.90681 0.0
C2375 C 0.77356 0.74979 0.91112 0.0
C2376 C 0.75961 0.75468 0.92261 0.0
C2377 C 0.79861 0.73996 0.8884 0.0
C2378 C 0.78639 0.74955 0.88135 0.0
C2379 C 0.77404 0.75435 0.89277 0.0
C2380 C 0.78593 0.75439 0.86199 0.0
C2381 C 0.81174 0.73397 0.87647 0.0
C2382 C 0.80082 0.76719 0.85676 0.0
C2383 C 0.80007 0.77215 0.83862 0.0
C2384 C 0.78436 0.76439 0.82541 0.0
C2385 C 0.76952 0.75143 0.83068 0.0
C2386 C 0.77028 0.74654 0.84884 0.0
H2387 H 0.81744 0.72341 0.88251 0.0
H2388 H 0.80494 0.72818 0.86191 0.0
H2389 H 0.82325 0.7462 0.87559 0.0
H2390 H 0.81292 0.77358 0.86682 0.0
H2391 H 0.81171 0.78222 0.83505 0.0
H2392 H 0.80536 0.11969 0.97194 0.0
H2393 H 0.82454 0.10084 0.96001 0.0
H2394 H 0.85231 0.10593 0.01625 0.0
H2395 H 0.83344 0.12499 0.02826 0.0
H2396 H 0.87573 0.11181 0.98854 0.0
H2397 H 0.81933 0.04674 0.96843 0.0
H2398 H 0.8162 0.06671 0.95847 0.0
H2399 H 0.81692 0.06651 0.98345 0.0
C2400 C 0.81556 0.11681 0.98177 0.0
C2401 C 0.81782 0.12374 0.00108 0.0
C2402 C 0.82645 0.10598 0.97493 0.0
C2403 C 0.83965 0.10181 0.9873 0.0
C2404 C 0.84215 0.10898 0.00649 0.0
H2405 H 0.89547 0.02028 0.99211 0.0
H2406 H 0.8739 0.0389 0.99143 0.0
C2407 C 0.83133 0.11983 0.01334 0.0
C2408 C 0.85088 0.08987 0.98045 0.0
H2409 H 0.84881 0.04522 0.96341 0.0
C2410 C 0.86988 0.0973 0.98282 0.0
C2411 C 0.84311 0.07095 0.97309 0.0
C2412 C 0.82279 0.06214 0.9708 0.0
C2413 C 0.88142 0.08615 0.97866 0.0
C2414 C 0.87368 0.06713 0.97161 0.0
C2415 C 0.85464 0.05985 0.96863 0.0
C2416 C 0.88513 0.05419 0.96963 0.0
C2417 C 0.90181 0.09456 0.9828 0.0
C2418 C 0.89816 0.05615 0.95705 0.0
C2419 C 0.91054 0.04541 0.95733 0.0
C2420 C 0.90997 0.03251 0.97013 0.0
C2421 C 0.89616 0.02987 0.98188 0.0
C2422 C 0.88386 0.04059 0.9816 0.0
H2423 H 0.90546 0.10858 0.99121 0.0
H2424 H 0.90831 0.08554 0.99061 0.0
H2425 H 0.90761 0.09586 0.96933 0.0
H2426 H 0.89912 0.06637 0.94747 0.0
H2427 H 0.92087 0.04758 0.94794 0.0
H2428 H 0.34493 0.40751 0.06485 0.0
H2429 H 0.37452 0.42923 0.06366 0.0
H2430 H 0.3487 0.45948 0.02735 0.0
H2431 H 0.31904 0.43758 0.02814 0.0
H2432 H 0.37767 0.45151 0.01362 0.0
H2433 H 0.39715 0.48221 0.08866 0.0
H2434 H 0.39114 0.45734 0.0856 0.0
H2435 H 0.37416 0.46897 0.07919 0.0
C2436 C 0.3455 0.4189 0.05678 0.0
C2437 C 0.32964 0.4208 0.04657 0.0
C2438 C 0.36242 0.4314 0.05623 0.0
C2439 C 0.36377 0.44615 0.04567 0.0
C2440 C 0.34793 0.44825 0.03569 0.0
H2441 H 0.46728 0.53065 0.04627 0.0
H2442 H 0.43555 0.51536 0.04955 0.0
C2443 C 0.33101 0.43571 0.03615 0.0
C2444 C 0.38186 0.45848 0.04387 0.0
H2445 H 0.42139 0.48615 0.06934 0.0
C2446 C 0.38714 0.45927 0.02579 0.0
C2447 C 0.39411 0.46881 0.05972 0.0
C2448 C 0.38879 0.46947 0.07936 0.0
C2449 C 0.40462 0.46949 0.02319 0.0
C2450 C 0.41725 0.47884 0.03915 0.0
C2451 C 0.41174 0.47875 0.05716 0.0
C2452 C 0.43645 0.48812 0.03742 0.0
C2453 C 0.40942 0.4701 0.00339 0.0
C2454 C 0.44751 0.47778 0.02987 0.0
C2455 C 0.46556 0.48642 0.02793 0.0
C2456 C 0.47297 0.50559 0.03368 0.0
C2457 C 0.46197 0.51588 0.04165 0.0
C2458 C 0.44386 0.50718 0.04354 0.0
H2459 H 0.39702 0.46714 0.99288 0.0
H2460 H 0.41855 0.48385 0.00198 0.0
H2461 H 0.41659 0.45939 -6e-05 0.0
H2462 H 0.44217 0.46296 0.02549 0.0
H2463 H 0.47368 0.47802 0.02193 0.0
H2464 H 0.37997 0.56003 0.80982 0.0
H2465 H 0.3621 0.58263 0.81142 0.0
H2466 H 0.38699 0.60662 0.7655 0.0
H2467 H 0.40481 0.58409 0.76369 0.0
H2468 H 0.37462 0.62266 0.81673 0.0
H2469 H 0.3314 0.59362 0.74797 0.0
H2470 H 0.34468 0.58086 0.76022 0.0
H2471 H 0.35554 0.59864 0.74713 0.0
C2472 C 0.38168 0.57013 0.80008 0.0
C2473 C 0.39373 0.57017 0.78654 0.0
C2474 C 0.37147 0.58303 0.80103 0.0
C2475 C 0.37305 0.59607 0.78839 0.0
C2476 C 0.38536 0.59644 0.77516 0.0
H2477 H 0.32355 0.68304 0.76519 0.0
H2478 H 0.3416 0.66073 0.76605 0.0
C2479 C 0.39559 0.5836 0.77422 0.0
C2480 C 0.36181 0.60931 0.78894 0.0
H2481 H 0.32892 0.62238 0.76275 0.0
C2482 C 0.36453 0.62256 0.805 0.0
C2483 C 0.34869 0.6091 0.7736 0.0
C2484 C 0.34473 0.5947 0.7563 0.0
C2485 C 0.35481 0.63598 0.80592 0.0
C2486 C 0.34179 0.63585 0.7905 0.0
C2487 C 0.33895 0.62246 0.77453 0.0
C2488 C 0.33113 0.64964 0.79046 0.0
C2489 C 0.35892 0.65048 0.82313 0.0
C2490 C 0.31915 0.6507 0.80383 0.0
C2491 C 0.30892 0.66355 0.80347 0.0
C2492 C 0.31039 0.6755 0.78966 0.0
C2493 C 0.32231 0.67427 0.77621 0.0
C2494 C 0.33255 0.66144 0.77659 0.0
H2495 H 0.37225 0.6515 0.83143 0.0
H2496 H 0.35909 0.66433 0.81913 0.0
H2497 H 0.34815 0.64671 0.83237 0.0
H2498 H 0.31761 0.64147 0.81444 0.0
H2499 H 0.29996 0.66422 0.81411 0.0
H2500 H 0.24598 0.59872 0.5198 0.0
H2501 H 0.2137 0.58135 0.51457 0.0
H2502 H 0.20098 0.62508 0.54985 0.0
H2503 H 0.23311 0.64266 0.55494 0.0
H2504 H 0.18995 0.56831 0.53974 0.0
H2505 H 0.16671 0.61926 0.50096 0.0
H2506 H 0.19044 0.61974 0.50549 0.0
H2507 H 0.17961 0.6295 0.52352 0.0
C2508 C 0.23632 0.60461 0.52652 0.0
C2509 C 0.24207 0.62214 0.53767 0.0
C2510 C 0.2179 0.59468 0.52348 0.0
C2511 C 0.20495 0.60215 0.53148 0.0
C2512 C 0.21073 0.61931 0.54316 0.0
H2513 H 0.09847 0.55353 0.55624 0.0
H2514 H 0.13097 0.56582 0.55511 0.0
C2515 C 0.22911 0.62927 0.54617 0.0
C2516 C 0.18538 0.59196 0.52784 0.0
H2517 H 0.14352 0.59654 0.51216 0.0
C2518 C 0.17979 0.57437 0.53352 0.0
C2519 C 0.17223 0.59972 0.51933 0.0
C2520 C 0.17754 0.61801 0.51179 0.0
C2521 C 0.16126 0.56473 0.53178 0.0
C2522 C 0.14804 0.5731 0.5245 0.0
C2523 C 0.15368 0.59026 0.51794 0.0
C2524 C 0.12833 0.56494 0.5248 0.0
C2525 C 0.15601 0.54576 0.53791 0.0
C2526 C 0.11599 0.56083 0.50814 0.0
C2527 C 0.09727 0.55394 0.50873 0.0
C2528 C 0.09063 0.55118 0.52603 0.0
C2529 C 0.10309 0.55538 0.54266 0.0
C2530 C 0.12172 0.56227 0.54204 0.0
H2531 H 0.16722 0.53898 0.53725 0.0
H2532 H 0.15318 0.54718 0.55275 0.0
H2533 H 0.14358 0.53661 0.52902 0.0
H2534 H 0.12085 0.56299 0.49471 0.0
H2535 H 0.08803 0.55087 0.49568 0.0
H2536 H 0.6731 0.98261 0.81237 0.0
H2537 H 0.69454 0.96673 0.82556 0.0
H2538 H 0.72726 0.97974 0.78084 0.0
H2539 H 0.70617 0.99575 0.76773 0.0
H2540 H 0.70326 0.93656 0.80774 0.0
H2541 H 0.76533 0.9953 0.82752 0.0
H2542 H 0.74285 0.99855 0.82278 0.0
H2543 H 0.75538 0.99425 0.80367 0.0
C2544 C 0.68494 0.98219 0.80542 0.0
C2545 C 0.68796 0.99046 0.78901 0.0
C2546 C 0.69718 0.97318 0.81302 0.0
C2547 C 0.71267 0.97245 0.80441 0.0
C2548 C 0.71566 0.98062 0.78801 0.0
H2549 H 0.78804 0.91282 0.78875 0.0
H2550 H 0.77036 0.93543 0.79195 0.0
C2551 C 0.70347 0.9896 0.78041 0.0
C2552 C 0.72502 0.96187 0.81148 0.0
H2553 H 0.77013 0.96473 0.82221 0.0
C2554 C 0.71783 0.94275 0.81139 0.0
C2555 C 0.744 0.97006 0.81631 0.0
C2556 C 0.75231 0.99071 0.81778 0.0
C2557 C 0.7293 0.93133 0.81456 0.0
C2558 C 0.74838 0.93938 0.81815 0.0
C2559 C 0.75548 0.95865 0.81939 0.0
C2560 C 0.76113 0.92773 0.81814 0.0
C2561 C 0.72104 0.91063 0.81278 0.0
C2562 C 0.76224 0.91643 0.83219 0.0
C2563 C 0.77228 0.90346 0.83036 0.0
C2564 C 0.78129 0.90165 0.81444 0.0
C2565 C 0.78102 0.91379 0.80102 0.0
C2566 C 0.77104 0.92675 0.80289 0.0
H2567 H 0.70621 0.90646 0.80755 0.0
H2568 H 0.728 0.90322 0.80302 0.0
H2569 H 0.7229 0.90603 0.82678 0.0
H2570 H 0.75477 0.91716 0.84414 0.0
H2571 H 0.77221 0.89421 0.84086 0.0
H2572 H 0.74247 0.93082 0.549 0.0
H2573 H 0.71982 0.94843 0.54763 0.0
H2574 H 0.70983 0.93455 0.48712 0.0
H2575 H 0.73248 0.9169 0.48828 0.0
H2576 H 0.71942 0.97925 0.52587 0.0
H2577 H 0.6586 0.91824 0.50613 0.0
H2578 H 0.68033 0.91634 0.51658 0.0
H2579 H 0.67696 0.91913 0.49217 0.0
C2580 C 0.73545 0.93148 0.53539 0.0
C2581 C 0.73923 0.92239 0.51874 0.0
C2582 C 0.72255 0.94158 0.53465 0.0
C2583 C 0.71308 0.94262 0.5173 0.0
C2584 C 0.71688 0.93371 0.50066 0.0
H2585 H 0.64553 0.01448 0.48912 0.0
H2586 H 0.66918 0.99811 0.49124 0.0
C2587 C 0.72987 0.92369 0.50136 0.0
C2588 C 0.69926 0.95311 0.51664 0.0
H2589 H 0.65357 0.94793 0.50666 0.0
C2590 C 0.70502 0.97244 0.52168 0.0
C2591 C 0.6805 0.9441 0.51132 0.0
C2592 C 0.67361 0.92329 0.50636 0.0
C2593 C 0.69246 0.98307 0.52129 0.0
C2594 C 0.67375 0.97409 0.51566 0.0
C2595 C 0.66797 0.95474 0.51086 0.0
C2596 C 0.65989 0.98453 0.51482 0.0
C2597 C 0.69922 0.00379 0.5271 0.0
C2598 C 0.64683 0.98222 0.52734 0.0
C2599 C 0.63342 0.99167 0.52631 0.0
C2600 C 0.63268 0.00348 0.51257 0.0
C2601 C 0.64586 0.00576 0.50007 0.0
C2602 C 0.65935 0.99637 0.5012 0.0
H2603 H 0.71345 0.00811 0.53438 0.0
H2604 H 0.69882 0.01082 0.51438 0.0
H2605 H 0.69029 0.0086 0.53659 0.0
H2606 H 0.64707 0.97312 0.53796 0.0
H2607 H 0.62368 0.9898 0.53635 0.0
H2608 H 0.37887 0.4893 0.77239 0.0
H2609 H 0.35813 0.45861 0.77296 0.0
H2610 H 0.38375 0.43508 0.72954 0.0
H2611 H 0.40453 0.46568 0.72877 0.0
H2612 H 0.33384 0.43155 0.73971 0.0
H2613 H 0.38803 0.40686 0.77743 0.0
H2614 H 0.38955 0.4312 0.77778 0.0
H2615 H 0.39352 0.41804 0.75709 0.0
C2616 C 0.38002 0.47763 0.76285 0.0
C2617 C 0.39343 0.4799 0.75061 0.0
C2618 C 0.36814 0.46015 0.76318 0.0
C2619 C 0.36957 0.44466 0.7514 0.0
C2620 C 0.38257 0.44692 0.73882 0.0
H2621 H 0.32246 0.32652 0.74603 0.0
H2622 H 0.33986 0.35744 0.74145 0.0
C2623 C 0.39439 0.46441 0.73838 0.0
C2624 C 0.35796 0.426 0.75281 0.0
H2625 H 0.35929 0.38523 0.76839 0.0
C2626 C 0.33933 0.42138 0.74597 0.0
C2627 C 0.36528 0.41286 0.76096 0.0
C2628 C 0.38516 0.41741 0.76887 0.0
C2629 C 0.32779 0.40372 0.74683 0.0
C2630 C 0.33508 0.39059 0.75515 0.0
C2631 C 0.35374 0.3953 0.76199 0.0
C2632 C 0.32368 0.37187 0.75701 0.0
C2633 C 0.30804 0.39916 0.73842 0.0
C2634 C 0.30879 0.3697 0.76729 0.0
C2635 C 0.29871 0.35201 0.76983 0.0
C2636 C 0.30352 0.33618 0.76236 0.0
C2637 C 0.31841 0.33841 0.75202 0.0
C2638 C 0.32837 0.35608 0.74937 0.0
H2639 H 0.30594 0.40847 0.72798 0.0
H2640 H 0.30303 0.38457 0.73141 0.0
H2641 H 0.29966 0.40102 0.74982 0.0
H2642 H 0.30521 0.38171 0.77371 0.0
H2643 H 0.28741 0.35077 0.77799 0.0
H2644 H 0.15518 0.58081 0.22425 0.0
H2645 H 0.17287 0.6133 0.23188 0.0
H2646 H 0.20745 0.59914 0.27549 0.0
H2647 H 0.18969 0.56659 0.26816 0.0
H2648 H 0.19544 0.63016 0.28701 0.0
H2649 H 0.22442 0.63581 0.21954 0.0
H2650 H 0.2 0.62717 0.21663 0.0
H2651 H 0.21379 0.61378 0.22673 0.0
C2652 C 0.16661 0.58456 0.23539 0.0
C2653 C 0.17108 0.57111 0.24554 0.0
C2654 C 0.17674 0.60313 0.23968 0.0
C2655 C 0.19158 0.60854 0.25408 0.0
C2656 C 0.19607 0.59519 0.26428 0.0
H2657 H 0.27194 0.71529 0.26829 0.0
H2658 H 0.25677 0.68225 0.26607 0.0
C2659 C 0.18593 0.57661 0.26003 0.0
C2660 C 0.20225 0.6282 0.25867 0.0
H2661 H 0.22803 0.66403 0.23972 0.0
C2662 C 0.20268 0.63758 0.27675 0.0
C2663 C 0.21185 0.63771 0.2453 0.0
C2664 C 0.21268 0.62808 0.22602 0.0
C2665 C 0.21215 0.65641 0.28167 0.0
C2666 C 0.22114 0.66609 0.26804 0.0
C2667 C 0.22101 0.65659 0.25011 0.0
C2668 C 0.23073 0.68612 0.27187 0.0
C2669 C 0.2126 0.6657 0.30144 0.0
C2670 C 0.22119 0.69927 0.27624 0.0
C2671 C 0.22987 0.71823 0.27764 0.0
C2672 C 0.24814 0.72427 0.27442 0.0
C2673 C 0.25781 0.71107 0.27071 0.0
C2674 C 0.24917 0.69219 0.26945 0.0
H2675 H 0.2096 0.65542 0.31144 0.0
H2676 H 0.2261 0.67573 0.30658 0.0
H2677 H 0.20209 0.67341 0.30151 0.0
H2678 H 0.20684 0.69487 0.2778 0.0
H2679 H 0.22205 0.72807 0.28041 0.0
H2680 H 0.52376 0.73031 0.48043 0.0
H2681 H 0.52303 0.70018 0.49044 0.0
H2682 H 0.47678 0.67386 0.44839 0.0
H2683 H 0.47728 0.70408 0.43834 0.0
H2684 H 0.49177 0.67226 0.5026 0.0
H2685 H 0.51805 0.64673 0.43844 0.0
H2686 H 0.5211 0.67113 0.4459 0.0
H2687 H 0.49918 0.65665 0.43511 0.0
C2688 C 0.51331 0.71817 0.47337 0.0
C2689 C 0.5006 0.7197 0.45851 0.0
C2690 C 0.51292 0.70092 0.47915 0.0
C2691 C 0.49997 0.68469 0.47009 0.0
C2692 C 0.487 0.68616 0.45552 0.0
H2693 H 0.48123 0.57305 0.50449 0.0
H2694 H 0.47682 0.60171 0.49413 0.0
C2695 C 0.48725 0.70348 0.44984 0.0
C2696 C 0.50045 0.66628 0.47566 0.0
H2697 H 0.51204 0.62656 0.46122 0.0
C2698 C 0.49604 0.66219 0.49349 0.0
C2699 C 0.50621 0.65321 0.46386 0.0
C2700 C 0.51154 0.65706 0.44478 0.0
C2701 C 0.49725 0.64544 0.49981 0.0
C2702 C 0.50307 0.63239 0.48804 0.0
C2703 C 0.50746 0.63648 0.4702 0.0
C2704 C 0.50556 0.61487 0.49437 0.0
C2705 C 0.49276 0.64197 0.51926 0.0
C2706 C 0.52314 0.61258 0.49781 0.0
C2707 C 0.52572 0.59629 0.50386 0.0
C2708 C 0.51075 0.58171 0.50645 0.0
C2709 C 0.4931 0.58395 0.50278 0.0
C2710 C 0.49055 0.60038 0.49687 0.0
H2711 H 0.49108 0.65453 0.52768 0.0
H2712 H 0.47985 0.63075 0.51801 0.0
H2713 H 0.50366 0.63732 0.52698 0.0
H2714 H 0.53493 0.62351 0.49593 0.0
H2715 H 0.53951 0.5951 0.50641 0.0
H2716 H 0.5961 0.31074 0.66034 0.0
H2717 H 0.62435 0.31219 0.68046 0.0
H2718 H 0.6428 0.28435 0.63387 0.0
H2719 H 0.61493 0.28317 0.61368 0.0
H2720 H 0.63799 0.28399 0.69069 0.0
H2721 H 0.68673 0.32826 0.65156 0.0
H2722 H 0.66248 0.32546 0.64747 0.0
H2723 H 0.67209 0.30809 0.63682 0.0
C2724 C 0.60625 0.30507 0.65434 0.0
C2725 C 0.60326 0.29696 0.63532 0.0
C2726 C 0.62239 0.30588 0.66587 0.0
C2727 C 0.6359 0.29869 0.65862 0.0
C2728 C 0.63285 0.29044 0.6397 0.0
H2729 H 0.73736 0.27808 0.70117 0.0
H2730 H 0.70955 0.28008 0.68268 0.0
C2731 C 0.61679 0.28968 0.62817 0.0
C2732 C 0.6529 0.29914 0.67091 0.0
H2733 H 0.69946 0.31257 0.67414 0.0
C2734 C 0.65142 0.29042 0.68718 0.0
C2735 C 0.67048 0.30752 0.66636 0.0
C2736 C 0.67309 0.31802 0.64971 0.0
C2737 C 0.66698 0.28933 0.69864 0.0
C2738 C 0.68452 0.29737 0.69385 0.0
C2739 C 0.68601 0.30632 0.67775 0.0
C2740 C 0.70148 0.29638 0.7052 0.0
C2741 C 0.66452 0.27908 0.71548 0.0
C2742 C 0.70636 0.30511 0.72395 0.0
C2743 C 0.72229 0.30405 0.73457 0.0
C2744 C 0.73371 0.29421 0.72666 0.0
C2745 C 0.72887 0.28568 0.70778 0.0
C2746 C 0.71298 0.28683 0.69716 0.0
H2747 H 0.65031 0.27027 0.71487 0.0
H2748 H 0.67396 0.27018 0.71648 0.0
H2749 H 0.6677 0.28927 0.72853 0.0
H2750 H 0.69786 0.31283 0.73035 0.0
H2751 H 0.72559 0.31085 0.74902 0.0
H2752 H 0.02226 0.32454 0.95151 0.0
H2753 H 0.02761 0.35765 0.96282 0.0
H2754 H 0.97135 0.34777 0.97211 0.0
H2755 H 0.96598 0.31477 0.96121 0.0
H2756 H 0.01173 0.38268 0.94828 0.0
H2757 H 0.99708 0.37817 0.02167 0.0
H2758 H 1.00064 0.35893 0.00674 0.0
H2759 H 0.97883 0.36386 0.00456 0.0
C2760 C 0.01108 0.32937 0.95623 0.0
C2761 C 0.99371 0.31688 0.95556 0.0
C2762 C 0.01415 0.34834 0.96263 0.0
C2763 C 0.99997 0.35526 0.96862 0.0
C2764 C 0.98266 0.3428 0.96803 0.0
H2765 H 0.9829 0.46284 0.00293 0.0
H2766 H 0.98042 0.43004 0.99354 0.0
C2767 C 0.97958 0.32387 0.96167 0.0
C2768 C 1.00298 0.37557 0.97467 0.0
H2769 H 0.99843 0.40711 0.01057 0.0
C2770 C 0.009 0.38804 0.96198 0.0
C2771 C 0.99938 0.38264 0.99253 0.0
C2772 C 0.9938 0.37023 0.00723 0.0
C2773 C 0.01098 0.40719 0.96641 0.0
C2774 C 0.00712 0.41421 0.98416 0.0
C2775 C 1.00131 0.40178 0.99693 0.0
C2776 C 0.00879 0.43434 0.98967 0.0
C2777 C 0.01665 0.41967 0.95178 0.0
C2778 C 0.02561 0.44779 0.99083 0.0
C2779 C 0.0271 0.46664 0.99618 0.0
C2780 C 0.01181 0.47253 0.00064 0.0
C2781 C 0.995 0.45896 -0.00043 0.0
C2782 C 0.99354 0.44013 0.99423 0.0
H2783 H 0.0146 0.41168 0.93745 0.0
H2784 H 0.00887 0.43018 0.95149 0.0
H2785 H 0.03136 0.4271 0.95534 0.0
H2786 H 0.03768 0.4437 0.98778 0.0
H2787 H 0.04031 0.47656 0.99691 0.0
H2788 H 0.97409 0.78558 0.11484 0.0
H2789 H 0.95075 0.78371 0.13591 0.0
H2790 H 0.99221 0.79573 0.1841 0.0
H2791 H 0.01576 0.79783 0.16309 0.0
H2792 H 0.9423 0.75981 0.16267 0.0
H2793 H 0.96342 0.83335 0.19637 0.0
H2794 H 0.97157 0.8257 0.17504 0.0
H2795 H 0.98116 0.82178 0.19752 0.0
C2796 C 0.97831 0.78793 0.12992 0.0
C2797 C 0.99685 0.79193 0.13726 0.0
C2798 C 0.96491 0.78683 0.14195 0.0
C2799 C 0.96972 0.78982 0.16159 0.0
C2800 C 0.9882 0.79373 0.169 0.0
H2801 H 0.90565 0.78761 0.2554 0.0
H2802 H 0.93 0.78975 0.23547 0.0
C2803 C 1.00165 0.79483 0.15696 0.0
C2804 C 0.95528 0.78833 0.1742 0.0
H2805 H 0.93984 0.81282 0.20869 0.0
C2806 C 0.94173 0.77141 0.1727 0.0
C2807 C 0.95458 0.80345 0.18734 0.0
C2808 C 0.96835 0.82216 0.18912 0.0
C2809 C 0.92764 0.76914 0.18409 0.0
C2810 C 0.92682 0.78432 0.1971 0.0
C2811 C 0.94044 0.8012 0.19871 0.0
C2812 C 0.91191 0.78297 0.20913 0.0
C2813 C 0.91395 0.75037 0.18234 0.0
C2814 C 0.89362 0.77869 0.20098 0.0
C2815 C 0.87963 0.77729 0.21234 0.0
C2816 C 0.88362 0.78028 0.23213 0.0
C2817 C 0.90201 0.78488 0.24023 0.0
C2818 C 0.91598 0.78626 0.22885 0.0
H2819 H 0.91928 0.73916 0.1758 0.0
H2820 H 0.91018 0.74711 0.19633 0.0
H2821 H 0.90141 0.75041 0.17324 0.0
H2822 H 0.89014 0.77645 0.18579 0.0
H2823 H 0.86565 0.77361 0.20558 0.0
H2824 H 0.49962 0.28727 0.14227 0.0
H2825 H 0.50008 0.31099 0.12141 0.0
H2826 H 0.54825 0.34692 0.15571 0.0
H2827 H 0.54789 0.32343 0.17664 0.0
H2828 H 0.49989 0.35008 0.13276 0.0
H2829 H 0.56121 0.3436 0.10031 0.0
H2830 H 0.54801 0.32554 0.11185 0.0
H2831 H 0.56355 0.34582 0.12562 0.0
C2832 C 0.51036 0.30019 0.14534 0.0
C2833 C 0.52375 0.30341 0.16113 0.0
C2834 C 0.51057 0.31374 0.13343 0.0
C2835 C 0.5243 0.33064 0.13691 0.0
C2836 C 0.53766 0.33389 0.15263 0.0
H2837 H 0.55615 0.43018 0.08483 0.0
H2838 H 0.55343 0.40508 0.1041 0.0
C2839 C 0.53738 0.32044 0.16462 0.0
C2840 C 0.52456 0.34509 0.12437 0.0
H2841 H 0.54977 0.36886 0.09384 0.0
C2842 C 0.5107 0.35413 0.12412 0.0
C2843 C 0.53873 0.35038 0.11321 0.0
C2844 C 0.55368 0.34077 0.11256 0.0
C2845 C 0.51092 0.36872 0.11342 0.0
C2846 C 0.52516 0.37408 0.10228 0.0
C2847 C 0.53887 0.36481 0.10237 0.0
C2848 C 0.52639 0.38953 0.09074 0.0
C2849 C 0.49627 0.37866 0.11473 0.0
C2850 C 0.51214 0.38918 0.07669 0.0
C2851 C 0.51363 0.40361 0.0657 0.0
C2852 C 0.52953 0.41855 0.0683 0.0
C2853 C 0.5438 0.4188 0.08231 0.0
C2854 C 0.54223 0.40447 0.09338 0.0
H2855 H 0.48964 0.37649 0.12767 0.0
H2856 H 0.50191 0.39379 0.11472 0.0
H2857 H 0.48558 0.37315 0.10239 0.0
H2858 H 0.49996 0.3776 0.074 0.0
H2859 H 0.50251 0.40285 0.05485 0.0
H2860 H 0.99004 0.31508 0.32613 0.0
H2861 H 0.95872 0.31547 0.3151 0.0
H2862 H 0.93775 0.26347 0.33555 0.0
H2863 H 0.9687 0.2631 0.34674 0.0
H2864 H 0.93017 0.29087 0.28998 0.0
H2865 H 0.91025 0.29596 0.36182 0.0
H2866 H 0.9337 0.29972 0.35768 0.0
H2867 H 0.91915 0.27651 0.35636 0.0
C2868 C 0.97876 0.30367 0.32815 0.0
C2869 C 0.98199 0.28914 0.3375 0.0
C2870 C 0.96083 0.30392 0.32187 0.0
C2871 C 0.94575 0.28971 0.32487 0.0
C2872 C 0.94903 0.27487 0.33349 0.0
H2873 H 0.82744 0.2596 0.30288 0.0
H2874 H 0.85963 0.26157 0.3115 0.0
C2875 C 0.96684 0.27463 0.33979 0.0
C2876 C 0.92656 0.29029 0.31919 0.0
H2877 H 0.88607 0.28855 0.33633 0.0
C2878 C 0.92058 0.29055 0.30015 0.0
C2879 C 0.91394 0.2899 0.33241 0.0
C2880 C 0.9196 0.2907 0.35323 0.0
C2881 C 0.90229 0.28976 0.29391 0.0
C2882 C 0.88961 0.28897 0.30709 0.0
C2883 C 0.89568 0.28903 0.32616 0.0
C2884 C 0.86994 0.28781 0.30142 0.0
C2885 C 0.89657 0.28917 0.27314 0.0
C2886 C 0.86482 0.30199 0.29302 0.0
C2887 C 0.84634 0.30094 0.28809 0.0
C2888 C 0.83242 0.2857 0.29149 0.0
C2889 C 0.83763 0.27157 0.29999 0.0
C2890 C 0.85611 0.27266 0.30496 0.0
H2891 H 0.90655 0.28526 0.26444 0.0
H2892 H 0.88297 0.27915 0.2685 0.0
H2893 H 0.89564 0.30311 0.27042 0.0
H2894 H 0.87514 0.31402 0.29047 0.0
H2895 H 0.84299 0.31215 0.28165 0.0
H2896 H 0.00376 0.696 0.66617 0.0
H2897 H 0.00521 0.6661 0.65001 0.0
H2898 H 0.03602 0.69441 0.60978 0.0
H2899 H 0.03498 0.72419 0.62598 0.0
H2900 H 0.99365 0.6482 0.61373 0.0
H2901 H 0.0688 0.6641 0.62834 0.0
H2902 H 0.05611 0.67811 0.63989 0.0
H2903 H 0.06168 0.68126 0.61653 0.0
C2904 C 0.01078 0.69584 0.65384 0.0
C2905 C 0.0194 0.71254 0.64749 0.0
C2906 C 0.01162 0.67873 0.64462 0.0
C2907 C 0.02111 0.67799 0.62893 0.0
C2908 C 0.02908 0.6946 0.62217 0.0
H2909 H 0.0417 0.59723 0.54635 0.0
H2910 H 0.03837 0.62453 0.56575 0.0
C2911 C 0.02835 0.71166 0.6314 0.0
C2912 C 0.02275 0.65996 0.61952 0.0
H2913 H 0.05391 0.63801 0.60502 0.0
C2914 C 0.00682 0.64588 0.61202 0.0
C2915 C 0.03995 0.65684 0.61737 0.0
C2916 C 0.0576 0.6708 0.62613 0.0
C2917 C 0.00764 0.62915 0.60179 0.0
C2918 C 0.02483 0.62635 0.5991 0.0
C2919 C 0.04074 0.64022 0.60698 0.0
C2920 C 0.02665 0.6095 0.58748 0.0
C2921 C 0.99013 0.61482 0.59335 0.0
C2922 C 0.02135 0.59193 0.59335 0.0
C2923 C 0.02335 0.57622 0.58231 0.0
C2924 C 0.03063 0.57778 0.56515 0.0
C2925 C 0.03599 0.59544 0.55942 0.0
C2926 C 0.03411 0.61111 0.57051 0.0
H2927 H 0.97807 0.62034 0.594 0.0
H2928 H 0.99078 0.60979 0.57841 0.0
H2929 H 0.98818 0.60274 0.60122 0.0
H2930 H 0.01579 0.59039 0.60653 0.0
H2931 H 0.01909 0.56286 0.58718 0.0
H2932 H 0.61511 0.83235 0.85959 0.0
H2933 H 0.6421 0.82794 0.84652 0.0
H2934 H 0.60825 0.7828 0.8059 0.0
H2935 H 0.58095 0.78732 0.81883 0.0
H2936 H 0.6555 0.798 0.84508 0.0
H2937 H 0.6404 0.81256 0.77224 0.0
H2938 H 0.62788 0.81815 0.79098 0.0
H2939 H 0.62289 0.79469 0.77938 0.0
C2940 C 0.61328 0.82156 0.84774 0.0
C2941 C 0.5957 0.81024 0.84027 0.0
C2942 C 0.62883 0.81903 0.84028 0.0
C2943 C 0.62738 0.80517 0.82503 0.0
C2944 C 0.60984 0.79387 0.8174 0.0
H2945 H 0.7113 0.76958 0.76745 0.0
H2946 H 0.68263 0.77304 0.7776 0.0
C2947 C 0.59419 0.79641 0.82488 0.0
C2948 C 0.64434 0.80224 0.81783 0.0
H2949 H 0.66654 0.80192 0.77874 0.0
C2950 C 0.65788 0.7989 0.83057 0.0
C2951 C 0.64758 0.8033 0.79887 0.0
C2952 C 0.63402 0.80753 0.78458 0.0
C2953 C 0.67435 0.79652 0.82494 0.0
C2954 C 0.67772 0.79787 0.80605 0.0
C2955 C 0.66409 0.80094 0.79322 0.0
C2956 C 0.69532 0.79621 0.79944 0.0
C2957 C 0.68784 0.79221 0.83926 0.0
C2958 C 0.71216 0.8083 0.80797 0.0
C2959 C 0.72865 0.80635 0.80219 0.0
C2960 C 0.72878 0.79232 0.7876 0.0
C2961 C 0.71186 0.78053 0.77875 0.0
C2962 C 0.69537 0.78249 0.78454 0.0
H2963 H 0.6812 0.78643 0.85116 0.0
H2964 H 0.69454 0.78216 0.83272 0.0
H2965 H 0.69854 0.80519 0.84515 0.0
H2966 H 0.71259 0.81929 0.81917 0.0
H2967 H 0.74131 0.81581 0.80931 0.0
H2968 H 0.4758 0.51624 0.72427 0.0
H2969 H 0.48505 0.51846 0.69286 0.0
H2970 H 0.4542 0.55792 0.68438 0.0
H2971 H 0.44452 0.55544 0.71555 0.0
H2972 H 0.44721 0.53104 0.65468 0.0
H2973 H 0.52195 0.55916 0.67429 0.0
H2974 H 0.5128 0.53816 0.68377 0.0
H2975 H 0.50612 0.55869 0.69133 0.0
C2976 C 0.47115 0.52555 0.71581 0.0
C2977 C 0.45944 0.53567 0.72241 0.0
C2978 C 0.47653 0.52687 0.69789 0.0
C2979 C 0.47053 0.53856 0.68638 0.0
C2980 C 0.45904 0.54886 0.69305 0.0
H2981 H 0.51377 0.56547 0.58238 0.0
H2982 H 0.50446 0.56695 0.61391 0.0
C2983 C 0.45354 0.54744 0.71088 0.0
C2984 C 0.47541 0.53932 0.667 0.0
H2985 H 0.51146 0.54751 0.64179 0.0
C2986 C 0.46126 0.53477 0.65186 0.0
C2987 C 0.49374 0.54444 0.66336 0.0
C2988 C 0.50952 0.55057 0.67906 0.0
C2989 C 0.46493 0.53482 0.63315 0.0
C2990 C 0.48326 0.5391 0.62947 0.0
C2991 C 0.49741 0.54405 0.64463 0.0
C2992 C 0.48808 0.53838 0.61001 0.0
C2993 C 0.44914 0.53053 0.61755 0.0
C2994 C 0.48195 0.52182 0.59735 0.0
C2995 C 0.48711 0.52097 0.57926 0.0
C2996 C 0.49873 0.5366 0.5736 0.0
C2997 C 0.5048 0.55318 0.58629 0.0
C2998 C 0.49953 0.55405 0.60433 0.0
H2999 H 0.43677 0.53314 0.62285 0.0
H3000 H 0.4526 0.53895 0.60603 0.0
H3001 H 0.44574 0.51565 0.61159 0.0
H3002 H 0.47347 0.50943 0.60158 0.0
H3003 H 0.48234 0.50793 0.5699 0.0
H3004 H 0.75241 0.20324 0.01539 0.0
H3005 H 0.7456 0.21986 0.98941 0.0
H3006 H 0.78712 0.2039 0.96068 0.0
H3007 H 0.79393 0.18717 0.98637 0.0
H3008 H 0.76933 0.24903 0.9737 0.0
H3009 H 0.74036 0.1853 0.92201 0.0
H3010 H 0.74353 0.18488 0.94714 0.0
H3011 H 0.7625 0.18671 0.93392 0.0
C3012 C 0.76013 0.20333 0.00358 0.0
C3013 C 0.7736 0.19376 0.00285 0.0
C3014 C 0.75622 0.21282 0.98878 0.0
C3015 C 0.76564 0.21277 0.97304 0.0
C3016 C 0.77946 0.20375 0.97257 0.0
H3017 H 0.77828 0.25608 0.87057 0.0
H3018 H 0.77873 0.24132 0.89905 0.0
C3019 C 0.78339 0.19429 0.98731 0.0
C3020 C 0.76111 0.22205 0.95696 0.0
H3021 H 0.74822 0.21397 0.90941 0.0
C3022 C 0.76444 0.2414 0.95967 0.0
C3023 C 0.7546 0.21195 0.93876 0.0
C3024 C 0.74985 0.19104 0.93526 0.0
C3025 C 0.76242 0.25107 0.94437 0.0
C3026 C 0.75675 0.24101 0.92606 0.0
C3027 C 0.75267 0.2216 0.9235 0.0
C3028 C 0.75635 0.25036 0.90914 0.0
C3029 C 0.76717 0.27197 0.94771 0.0
C3030 C 0.74355 0.26026 0.90543 0.0
C3031 C 0.74316 0.26862 0.88905 0.0
C3032 C 0.75552 0.2671 0.87614 0.0
C3033 C 0.76837 0.25723 0.88004 0.0
C3034 C 0.76872 0.24889 0.89635 0.0
H3035 H 0.77382 0.27777 0.96232 0.0
H3036 H 0.77642 0.27795 0.93767 0.0
H3037 H 0.75454 0.27644 0.94524 0.0
H3038 H 0.73374 0.2613 0.91506 0.0
H3039 H 0.733 0.27599 0.88631 0.0
H3040 H 0.13015 0.51196 0.18724 0.0
H3041 H 0.11057 0.51091 0.15811 0.0
H3042 H 0.06925 0.46606 0.17347 0.0
H3043 H 0.08869 0.46718 0.20296 0.0
H3044 H 0.09357 0.48247 0.12793 0.0
H3045 H 0.04344 0.50709 0.16764 0.0
H3046 H 0.06585 0.50785 0.17868 0.0
H3047 H 0.04843 0.48618 0.17337 0.0
C3048 C 0.11699 0.5017 0.18437 0.0
C3049 C 0.11086 0.48981 0.19753 0.0
C3050 C 0.10585 0.5011 0.16769 0.0
C3051 C 0.08838 0.48863 0.16385 0.0
C3052 C 0.08258 0.476 0.1764 0.0
H3053 H 0.00719 0.49521 0.0715 0.0
H3054 H 0.02152 0.48419 0.0982 0.0
C3055 C 0.09374 0.4766 0.19316 0.0
C3056 C 0.07605 0.48989 0.14726 0.0
H3057 H 0.03875 0.50482 0.13468 0.0
C3058 C 0.08143 0.48709 0.12935 0.0
C3059 C 0.06022 0.4959 0.14923 0.0
C3060 C 0.05412 0.49957 0.16824 0.0
C3061 C 0.07175 0.49082 0.11339 0.0
C3062 C 0.0565 0.49773 0.11552 0.0
C3063 C 0.05053 0.49958 0.13322 0.0
C3064 C 0.04757 0.50459 0.09984 0.0
C3065 C 0.07816 0.48777 0.09444 0.0
C3066 C 0.05738 0.52003 0.09243 0.0
C3067 C 0.04926 0.52644 0.07734 0.0
C3068 C 0.03114 0.51754 0.06944 0.0
C3069 C 0.02116 0.5024 0.0773 0.0
C3070 C 0.02931 0.49603 0.09247 0.0
H3071 H 0.08657 0.47778 0.09426 0.0
H3072 H 0.06643 0.48252 0.08306 0.0
H3073 H 0.08669 0.50115 0.0913 0.0
H3074 H 0.07139 0.52704 0.09824 0.0
H3075 H 0.05731 0.53818 0.07169 0.0
H3076 H 0.75808 0.8564 0.48245 0.0
H3077 H 0.7561 0.84054 0.45045 0.0
H3078 H 0.81418 0.84771 0.45826 0.0
H3079 H 0.81626 0.86323 0.49031 0.0
H3080 H 0.77304 0.85587 0.42192 0.0
H3081 H 0.79506 0.79351 0.43551 0.0
H3082 H 0.78834 0.80784 0.45371 0.0
H3083 H 0.81081 0.81488 0.44686 0.0
C3084 C 0.77039 0.85435 0.47746 0.0
C3085 C 0.78733 0.86107 0.48895 0.0
C3086 C 0.76923 0.8453 0.45917 0.0
C3087 C 0.78495 0.84273 0.45205 0.0
C3088 C 0.80182 0.84915 0.46359 0.0
H3089 H 0.80891 0.80808 0.34026 0.0
H3090 H 0.8107 0.81922 0.37391 0.0
C3091 C 0.80299 0.85814 0.48189 0.0
C3092 C 0.78394 0.83464 0.43212 0.0
H3093 H 0.79354 0.79995 0.40376 0.0
C3094 C 0.77738 0.84356 0.41796 0.0
C3095 C 0.78975 0.81865 0.42698 0.0
C3096 C 0.79623 0.80804 0.44156 0.0
C3097 C 0.7767 0.83708 0.39881 0.0
C3098 C 0.78254 0.82114 0.39368 0.0
C3099 C 0.78914 0.81221 0.40779 0.0
C3100 C 0.78149 0.81339 0.37368 0.0
C3101 C 0.77005 0.84755 0.38419 0.0
C3102 C 0.76448 0.80606 0.36261 0.0
C3103 C 0.76339 0.7997 0.34347 0.0
C3104 C 0.77934 0.80049 0.33501 0.0
C3105 C 0.79638 0.80734 0.3463 0.0
C3106 C 0.79744 0.81368 0.36551 0.0
H3107 H 0.77008 0.86173 0.39035 0.0
H3108 H 0.77864 0.84868 0.37258 0.0
H3109 H 0.75586 0.83992 0.37803 0.0
H3110 H 0.75201 0.80548 0.36874 0.0
H3111 H 0.75002 0.79443 0.33527 0.0
H3112 H 0.45684 0.49224 0.80854 0.0
H3113 H 0.47182 0.49128 0.83987 0.0
H3114 H 0.47865 0.54989 0.85456 0.0
H3115 H 0.46377 0.55106 0.8232 0.0
H3116 H 0.51 0.53674 0.86679 0.0
H3117 H 0.44447 0.49602 0.88665 0.0
H3118 H 0.45139 0.4867 0.8654 0.0
H3119 H 0.44545 0.50826 0.86642 0.0
C3120 C 0.46169 0.50498 0.81834 0.0
C3121 C 0.45893 0.5217 0.81343 0.0
C3122 C 0.47021 0.50438 0.83625 0.0
C3123 C 0.4761 0.52046 0.84956 0.0
C3124 C 0.47414 0.53732 0.84446 0.0
H3125 H 0.49346 0.5407 0.96907 0.0
H3126 H 0.48466 0.53809 0.93525 0.0
C3127 C 0.4656 0.53795 0.82655 0.0
C3128 C 0.48328 0.51953 0.86917 0.0
H3129 H 0.47033 0.50322 0.90953 0.0
C3130 C 0.50142 0.52928 0.87612 0.0
C3131 C 0.47195 0.5099 0.88128 0.0
C3132 C 0.45218 0.49972 0.87469 0.0
C3133 C 0.50847 0.52981 0.89502 0.0
C3134 C 0.49707 0.52031 0.90713 0.0
C3135 C 0.47904 0.51035 0.9001 0.0
C3136 C 0.50299 0.5219 0.92757 0.0
C3137 C 0.5278 0.54106 0.90213 0.0
C3138 C 0.5162 0.51354 0.93445 0.0
C3139 C 0.52128 0.51493 0.95391 0.0
C3140 C 0.51321 0.52473 0.96673 0.0
C3141 C 0.5 0.53306 0.95967 0.0
C3142 C 0.49491 0.53159 0.94031 0.0
H3143 H 0.53411 0.54945 0.89153 0.0
H3144 H 0.52816 0.5505 0.91522 0.0
H3145 H 0.53617 0.53159 0.90561 0.0
H3146 H 0.52245 0.50583 0.92478 0.0
H3147 H 0.53149 0.50835 0.95888 0.0
H3148 H 0.82172 0.22414 0.07363 0.0
H3149 H 0.82278 0.24166 0.10465 0.0
H3150 H 0.80354 0.19046 0.12719 0.0
H3151 H 0.80249 0.17285 0.09637 0.0
H3152 H 0.79133 0.23889 0.1229 0.0
H3153 H 0.84575 0.22107 0.16744 0.0
H3154 H 0.84379 0.21813 0.142 0.0
H3155 H 0.82943 0.20126 0.15374 0.0
C3156 C 0.81806 0.2166 0.08528 0.0
C3157 C 0.81195 0.19711 0.08254 0.0
C3158 C 0.81866 0.22664 0.10297 0.0
C3159 C 0.81341 0.21733 0.11821 0.0
C3160 C 0.80797 0.19788 0.11568 0.0
H3161 H 0.78321 0.23617 0.22765 0.0
H3162 H 0.79152 0.22483 0.19769 0.0
C3163 C 0.80727 0.18785 0.09802 0.0
C3164 C 0.81174 0.2278 0.13624 0.0
H3165 H 0.8249 0.23367 0.18368 0.0
C3166 C 0.79887 0.23805 0.13619 0.0
C3167 C 0.82156 0.22654 0.15348 0.0
C3168 C 0.83604 0.2163 0.15422 0.0
C3169 C 0.79488 0.24634 0.15307 0.0
C3170 C 0.80433 0.24463 0.17038 0.0
C3171 C 0.81765 0.23491 0.17037 0.0
C3172 C 0.79982 0.25188 0.1887 0.0
C3173 C 0.77997 0.25606 0.15226 0.0
C3174 C 0.80192 0.27091 0.19365 0.0
C3175 C 0.79704 0.27748 0.21075 0.0
C3176 C 0.79014 0.26513 0.22328 0.0
C3177 C 0.78839 0.2461 0.21836 0.0
C3178 C 0.7932 0.23957 0.20125 0.0
H3179 H 0.77135 0.25253 0.13831 0.0
H3180 H 0.77107 0.25238 0.16333 0.0
H3181 H 0.78622 0.27129 0.15477 0.0
H3182 H 0.80735 0.28068 0.1843 0.0
H3183 H 0.79876 0.29223 0.21414 0.0
H3184 H 0.08846 0.53882 0.25812 0.0
H3185 H 0.06942 0.5441 0.28245 0.0
H3186 H 0.09299 0.5109 0.31707 0.0
H3187 H 0.11194 0.50544 0.29291 0.0
H3188 H 0.0538 0.50464 0.31551 0.0
H3189 H 0.09354 0.57903 0.33265 0.0
H3190 H 0.08377 0.57057 0.30851 0.0
H3191 H 0.10175 0.56216 0.31892 0.0
C3192 C 0.08942 0.53246 0.27081 0.0
C3193 C 0.10184 0.52188 0.27371 0.0
C3194 C 0.07858 0.53553 0.28468 0.0
C3195 C 0.08001 0.52805 0.30157 0.0
C3196 C 0.09175 0.5168 0.3041 0.0
H3197 H 0.06954 0.55225 0.41534 0.0
H3198 H 0.07765 0.5478 0.38352 0.0
C3199 C 0.1026 0.51376 0.29031 0.0
C3200 C 0.07029 0.53279 0.31726 0.0
H3201 H 0.07179 0.5677 0.35232 0.0
C3202 C 0.05743 0.51848 0.3234 0.0
C3203 C 0.07528 0.55086 0.32752 0.0
C3204 C 0.08941 0.56658 0.32173 0.0
C3205 C 0.0499 0.52161 0.34004 0.0
C3206 C 0.05534 0.53954 0.3506 0.0
C3207 C 0.06763 0.55401 0.34404 0.0
C3208 C 0.05016 0.54301 0.36958 0.0
C3209 C 0.03701 0.50554 0.34677 0.0
C3210 C 0.03204 0.54202 0.37216 0.0
C3211 C 0.02734 0.54447 0.39036 0.0
C3212 C 0.04072 0.54791 0.40617 0.0
C3213 C 0.05891 0.54932 0.40343 0.0
C3214 C 0.06358 0.54692 0.38529 0.0
H3215 H 0.03606 0.49207 0.33819 0.0
H3216 H 0.04149 0.50476 0.36173 0.0
H3217 H 0.02318 0.50768 0.34591 0.0
H3218 H 0.02156 0.53917 0.36014 0.0
H3219 H 0.01321 0.54324 0.39208 0.0
H3220 H 0.80948 0.85558 0.58435 0.0
H3221 H 0.80626 0.84246 0.61383 0.0
H3222 H 0.75705 0.85928 0.61847 0.0
H3223 H 0.76 0.87223 0.58888 0.0
H3224 H 0.80537 0.86079 0.64937 0.0
H3225 H 0.74153 0.80442 0.62541 0.0
H3226 H 0.75505 0.81663 0.60919 0.0
H3227 H 0.74007 0.82711 0.62137 0.0
C3228 C 0.7979 0.85639 0.59155 0.0
C3229 C 0.78496 0.86489 0.58421 0.0
C3230 C 0.7961 0.84891 0.60842 0.0
C3231 C 0.7813 0.8497 0.6182 0.0
C3232 C 0.76838 0.85821 0.61095 0.0
H3233 H 0.77556 0.8328 0.73584 0.0
H3234 H 0.77622 0.84584 0.70614 0.0
C3235 C 0.77015 0.86568 0.59408 0.0
C3236 C 0.77971 0.8421 0.63628 0.0
H3237 H 0.75234 0.80968 0.65812 0.0
C3238 C 0.79378 0.84961 0.6513 0.0
C3239 C 0.76465 0.82742 0.63868 0.0
C3240 C 0.74952 0.81827 0.62278 0.0
C3241 C 0.79318 0.84288 0.66872 0.0
C3242 C 0.77794 0.82846 0.67124 0.0
C3243 C 0.76391 0.82087 0.65619 0.0
C3244 C 0.77669 0.82049 0.68914 0.0
C3245 C 0.80905 0.85096 0.68411 0.0
C3246 C 0.77617 0.80179 0.68931 0.0
C3247 C 0.77568 0.79427 0.7062 0.0
C3248 C 0.77563 0.80531 0.72326 0.0
C3249 C 0.77569 0.82395 0.72298 0.0
C3250 C 0.77617 0.83145 0.70604 0.0
H3251 H 0.82138 0.85874 0.67853 0.0
H3252 H 0.80529 0.86072 0.69465 0.0
H3253 H 0.81253 0.83989 0.69145 0.0
H3254 H 0.77649 0.79308 0.6764 0.0
H3255 H 0.77558 0.77985 0.70588 0.0
H3256 H 0.73547 0.44868 0.55356 0.0
H3257 H 0.71522 0.46741 0.56293 0.0
H3258 H 0.72137 0.49316 0.51245 0.0
H3259 H 0.74118 0.47421 0.50275 0.0
H3260 H 0.72009 0.50539 0.56951 0.0
H3261 H 0.66646 0.4726 0.509 0.0
H3262 H 0.68526 0.46321 0.51524 0.0
H3263 H 0.68834 0.48241 0.50195 0.0
C3264 C 0.73251 0.45835 0.54447 0.0
C3265 C 0.73971 0.4598 0.5273 0.0
C3266 C 0.721 0.46905 0.54986 0.0
C3267 C 0.71655 0.48138 0.5382 0.0
C3268 C 0.72429 0.48338 0.52142 0.0
H3269 H 0.64771 0.55501 0.53983 0.0
H3270 H 0.67292 0.54114 0.53631 0.0
C3271 C 0.73564 0.47258 0.51593 0.0
C3272 C 0.7035 0.49187 0.5433 0.0
H3273 H 0.66301 0.49938 0.52728 0.0
C3274 C 0.70757 0.50403 0.56035 0.0
C3275 C 0.6871 0.48991 0.53136 0.0
C3276 C 0.68141 0.47619 0.51346 0.0
C3277 C 0.6958 0.51465 0.56554 0.0
C3278 C 0.6797 0.51299 0.55335 0.0
C3279 C 0.67554 0.50072 0.53644 0.0
C3280 C 0.66661 0.52354 0.55788 0.0
C3281 C 0.70069 0.52778 0.58381 0.0
C3282 C 0.65503 0.5184 0.57144 0.0
C3283 C 0.64059 0.52625 0.57345 0.0
C3284 C 0.63759 0.53935 0.56194 0.0
C3285 C 0.64983 0.54513 0.54905 0.0
C3286 C 0.66416 0.53719 0.54697 0.0
H3287 H 0.71483 0.52932 0.59043 0.0
H3288 H 0.69928 0.54165 0.58137 0.0
H3289 H 0.69113 0.52246 0.59382 0.0
H3290 H 0.65664 0.5077 0.57981 0.0
H3291 H 0.63141 0.52164 0.58356 0.0
H3292 H 0.20836 0.17394 0.50889 0.0
H3293 H 0.17884 0.1513 0.50807 0.0
H3294 H 0.20427 0.10671 0.50106 0.0
H3295 H 0.23397 0.12929 0.50237 0.0
H3296 H 0.15903 0.12275 0.48113 0.0
H3297 H 0.17839 0.09571 0.54667 0.0
H3298 H 0.19228 0.11653 0.53971 0.0
H3299 H 0.1927 0.09412 0.5286 0.0
C3300 C 0.20769 0.15932 0.50714 0.0
C3301 C 0.22353 0.15342 0.50589 0.0
C3302 C 0.1908 0.14639 0.50665 0.0
C3303 C 0.18942 0.12734 0.50485 0.0
C3304 C 0.2051 0.12136 0.50293 0.0
H3305 H 0.09082 0.0366 0.508 0.0
H3306 H 0.12134 0.05336 0.5019 0.0
C3307 C 0.22204 0.13429 0.50358 0.0
C3308 C 0.17154 0.11387 0.50525 0.0
H3309 H 0.14874 0.08178 0.53073 0.0
C3310 C 0.15682 0.1137 0.4919 0.0
C3311 C 0.16868 0.10205 0.51931 0.0
C3312 C 0.18379 0.10216 0.5345 0.0
C3313 C 0.13924 0.10231 0.49248 0.0
C3314 C 0.13634 0.09089 0.50679 0.0
C3315 C 0.15112 0.09053 0.51973 0.0
C3316 C 0.1178 0.08061 0.50968 0.0
C3317 C 0.12381 0.10277 0.47798 0.0
C3318 C 0.10591 0.09044 0.51621 0.0
C3319 C 0.08866 0.08099 0.51986 0.0
C3320 C 0.08292 0.06148 0.51699 0.0
C3321 C 0.09482 0.05163 0.51028 0.0
C3322 C 0.11223 0.06115 0.50681 0.0
H3323 H 0.12889 0.10882 0.46549 0.0
H3324 H 0.11463 0.0886 0.47325 0.0
H3325 H 0.11565 0.11141 0.48439 0.0
H3326 H 0.1101 0.10547 0.51871 0.0
H3327 H 0.07981 0.08902 0.52492 0.0
H3328 H 0.17732 0.00245 0.78065 0.0
H3329 H 0.19722 0.98215 0.77641 0.0
H3330 H 0.15082 0.93415 0.77108 0.0
H3331 H 0.13073 0.95434 0.77502 0.0
H3332 H 0.20337 0.95544 0.79777 0.0
H3333 H 0.17448 0.92389 0.72415 0.0
H3334 H 0.16972 0.94441 0.73537 0.0
H3335 H 0.15788 0.92186 0.74032 0.0
C3336 C 0.17131 0.98757 0.77853 0.0
C3337 C 0.1524 0.98001 0.77807 0.0
C3338 C 0.18272 0.976 0.77612 0.0
C3339 C 0.17547 0.95665 0.77312 0.0
C3340 C 0.15665 0.94905 0.77296 0.0
H3341 H 0.22073 0.86309 0.75891 0.0
H3342 H 0.20135 0.88396 0.76306 0.0
C3343 C 0.1452 0.96061 0.77533 0.0
C3344 C 0.18767 0.94447 0.77052 0.0
H3345 H 0.19566 0.91058 0.73973 0.0
C3346 C 0.20176 0.9457 0.78504 0.0
C3347 C 0.18554 0.9318 0.75389 0.0
C3348 C 0.1712 0.93048 0.73746 0.0
C3349 C 0.21356 0.9343 0.78354 0.0
C3350 C 0.21134 0.92155 0.76696 0.0
C3351 C 0.1973 0.92037 0.75242 0.0
C3352 C 0.22326 0.90908 0.76455 0.0
C3353 C 0.22803 0.93568 0.79986 0.0
C3354 C 0.24198 0.9163 0.7638 0.0
C3355 C 0.25313 0.90441 0.76149 0.0
C3356 C 0.24573 0.88508 0.75989 0.0
C3357 C 0.22691 0.87792 0.76043 0.0
C3358 C 0.21579 0.88981 0.76267 0.0
H3359 H 0.22532 0.94303 0.81304 0.0
H3360 H 0.22895 0.92168 0.80242 0.0
H3361 H 0.24146 0.94352 0.79647 0.0
H3362 H 0.24795 0.93114 0.76493 0.0
H3363 H 0.26757 0.91035 0.7612 0.0
H3364 H 0.32632 0.94481 0.00594 0.0
H3365 H 0.35918 0.95897 0.01007 0.0
H3366 H 0.36129 0.95837 0.07007 0.0
H3367 H 0.32827 0.94401 0.0661 0.0
H3368 H 0.37904 0.99332 0.03335 0.0
H3369 H 0.40012 0.93207 0.05386 0.0
H3370 H 0.37752 0.9301 0.04235 0.0
H3371 H 0.38378 0.93956 0.06681 0.0
C3372 C 0.33372 0.94764 0.02004 0.0
C3373 C 0.32469 0.94323 0.0357 0.0
C3374 C 0.35249 0.95576 0.02235 0.0
C3375 C 0.36261 0.95952 0.04033 0.0
C3376 C 0.35369 0.95531 0.05605 0.0
H3377 H 0.48152 0.00363 0.06559 0.0
H3378 H 0.44926 0.992 0.06932 0.0
C3379 C 0.33485 0.9472 0.05376 0.0
C3380 C 0.38248 0.96802 0.04239 0.0
H3381 H 0.42349 0.95867 0.0513 0.0
C3382 C 0.38879 0.98583 0.03744 0.0
C3383 C 0.39509 0.9582 0.04783 0.0
C3384 C 0.38889 0.93887 0.05292 0.0
C3385 C 0.40743 0.99397 0.03735 0.0
C3386 C 0.41999 0.98384 0.042 0.0
C3387 C 0.41376 0.96633 0.04768 0.0
C3388 C 0.43947 0.99071 0.03985 0.0
C3389 C 0.41352 0.01326 0.03211 0.0
C3390 C 0.44456 0.99343 0.02197 0.0
C3391 C 0.4629 1.00003 0.01976 0.0
C3392 C 0.4765 0.00393 0.0354 0.0
C3393 C 0.47137 1.00082 0.05326 0.0
C3394 C 0.45297 0.9942 0.05545 0.0
H3395 H 0.40324 0.02103 0.03434 0.0
H3396 H 0.42674 0.02127 0.04047 0.0
H3397 H 0.41532 0.01227 0.01696 0.0
H3398 H 0.43433 0.99042 0.0097 0.0
H3399 H 0.46636 0.00215 0.00579 0.0
H3400 H 0.86999 0.57036 0.72103 0.0
H3401 H 0.85288 0.58957 0.70635 0.0
H3402 H 0.85274 0.61924 0.76105 0.0
H3403 H 0.86996 0.60029 0.77584 0.0
H3404 H 0.81859 0.59256 0.71302 0.0
H3405 H 0.86985 0.66095 0.72959 0.0
H3406 H 0.87571 0.63939 0.73094 0.0
H3407 H 0.8664 0.64956 0.75007 0.0
C3408 C 0.86647 0.58109 0.72992 0.0
C3409 C 0.87136 0.58384 0.7496 0.0
C3410 C 0.8567 0.59204 0.7215 0.0
C3411 C 0.85183 0.60599 0.73259 0.0
C3412 C 0.85675 0.60881 0.75221 0.0
H3413 H 0.76759 0.65556 0.73243 0.0
H3414 H 0.78606 0.6339 0.72999 0.0
C3415 C 0.86648 0.59788 0.76064 0.0
C3416 C 0.84062 0.61693 0.72396 0.0
H3417 H 0.83847 0.66137 0.72302 0.0
C3418 C 0.82304 0.60761 0.71484 0.0
C3419 C 0.84659 0.6365 0.72598 0.0
C3420 C 0.86575 0.64718 0.7345 0.0
C3421 C 0.81077 0.61744 0.70897 0.0
C3422 C 0.81621 0.63704 0.7126 0.0
C3423 C 0.83425 0.64633 0.7204 0.0
C3424 C 0.80297 0.64813 0.71081 0.0
C3425 C 0.79195 0.60676 0.69947 0.0
C3426 C 0.80619 0.66326 0.70066 0.0
C3427 C 0.79557 0.67574 0.70201 0.0
C3428 C 0.78168 0.67338 0.71369 0.0
C3429 C 0.7779 0.65763 0.723 0.0
C3430 C 0.78848 0.64518 0.72162 0.0
H3431 H 0.7921 0.59324 0.69169 0.0
H3432 H 0.78269 0.60381 0.71035 0.0
H3433 H 0.78635 0.61474 0.68949 0.0
H3434 H 0.81738 0.66582 0.69232 0.0
H3435 H 0.7987 0.68764 0.69452 0.0
H3436 H 0.80111 0.64197 0.01932 0.0
H3437 H 0.82201 0.62245 0.01901 0.0
H3438 H 0.86705 0.6704 0.01786 0.0
H3439 H 0.84627 0.69014 0.01836 0.0
H3440 H 0.84415 0.61778 0.99101 0.0
H3441 H 0.88529 0.64559 0.06112 0.0
H3442 H 0.86351 0.6498 0.05461 0.0
H3443 H 0.88357 0.6627 0.04604 0.0
C3444 C 0.81548 0.64843 0.01914 0.0
C3445 C 0.82204 0.66763 0.01889 0.0
C3446 C 0.82739 0.63723 0.01895 0.0
C3447 C 0.84607 0.64502 0.01862 0.0
C3448 C 0.85271 0.66418 0.01845 0.0
H3449 H 0.9365 0.59577 0.01209 0.0
H3450 H 0.9172 0.61702 0.01285 0.0
C3451 C 0.8408 0.67542 0.01864 0.0
C3452 C 0.85842 0.63289 0.01768 0.0
H3453 H 0.89516 0.62381 0.04152 0.0
C3454 C 0.85529 0.61906 0.00206 0.0
C3455 C 0.87295 0.63468 0.03211 0.0
C3456 C 0.8765 0.64888 0.04952 0.0
C3457 C 0.86638 0.60699 0.0004 0.0
C3458 C 0.8808 0.60867 0.0149 0.0
C3459 C 0.88408 0.62262 0.03044 0.0
C3460 C 0.8924 0.59579 0.01438 0.0
C3461 C 0.86274 0.5927 0.98306 0.0
C3462 C 0.88483 0.57689 0.01519 0.0
C3463 C 0.89581 0.56474 0.0149 0.0
C3464 C 0.91459 0.5713 0.01385 0.0
C3465 C 0.92213 0.5903 0.01311 0.0
C3466 C 0.91113 0.60245 0.01346 0.0
H3467 H 0.85424 0.59615 0.97133 0.0
H3468 H 0.87571 0.59142 0.97815 0.0
H3469 H 0.85532 0.579 0.98654 0.0
H3470 H 0.87045 0.57157 0.01628 0.0
H3471 H 0.88964 0.55027 0.01586 0.0
H3472 H 0.17956 0.07749 0.80009 0.0
H3473 H 0.20116 0.10842 0.80395 0.0
H3474 H 0.16006 0.12916 0.77542 0.0
H3475 H 0.1384 0.09847 0.77159 0.0
H3476 H 0.21289 0.1292 0.77468 0.0
H3477 H 0.17898 0.16661 0.82387 0.0
H3478 H 0.17392 0.14162 0.82005 0.0
H3479 H 0.16386 0.1535 0.80348 0.0
C3480 C 0.17508 0.08868 0.79477 0.0
C3481 C 0.15724 0.08553 0.78557 0.0
C3482 C 0.18744 0.10631 0.79698 0.0
C3483 C 0.1821 0.1211 0.79022 0.0
C3484 C 0.16432 0.11801 0.78108 0.0
H3485 H 0.22219 0.23104 0.76826 0.0
H3486 H 0.20559 0.19995 0.77297 0.0
C3487 C 0.152 0.10041 0.7788 0.0
C3488 C 0.19525 0.13963 0.7918 0.0
H3489 H 0.20097 0.18539 0.80749 0.0
C3490 C 0.21051 0.14149 0.78211 0.0
C3491 C 0.19208 0.15556 0.80157 0.0
C3492 C 0.17642 0.15425 0.81299 0.0
C3493 C 0.22213 0.15904 0.78103 0.0
C3494 C 0.21848 0.17503 0.79012 0.0
C3495 C 0.20367 0.17308 0.80048 0.0
C3496 C 0.22889 0.19395 0.78775 0.0
C3497 C 0.23764 0.16041 0.76938 0.0
C3498 C 0.24749 0.20095 0.79468 0.0
C3499 C 0.25711 0.21879 0.79198 0.0
C3500 C 0.24823 0.2299 0.78234 0.0
C3501 C 0.22952 0.22286 0.77566 0.0
C3502 C 0.21996 0.2051 0.77838 0.0
H3503 H 0.23667 0.14701 0.76064 0.0
H3504 H 0.23792 0.17116 0.75996 0.0
H3505 H 0.25077 0.16454 0.7789 0.0
H3506 H 0.25455 0.19263 0.8022 0.0
H3507 H 0.27148 0.22382 0.79738 0.0
H3508 H 0.40299 0.96925 0.27339 0.0
H3509 H 0.38385 0.93722 0.26748 0.0
H3510 H 0.34001 0.95506 0.2401 0.0
H3511 H 0.35889 0.98717 0.24643 0.0
H3512 H 0.32877 0.93459 0.26653 0.0
H3513 H 0.36697 0.89837 0.22162 0.0
H3514 H 0.38102 0.91119 0.24274 0.0
H3515 H 0.37194 0.92335 0.22569 0.0
C3516 C 0.3894 0.96631 0.2658 0.0
C3517 C 0.3824 0.98072 0.26047 0.0
C3518 C 0.37851 0.94797 0.26231 0.0
C3519 C 0.36058 0.94372 0.25314 0.0
C3520 C 0.35383 0.95803 0.24715 0.0
H3521 H 0.29238 0.82856 0.22921 0.0
H3522 H 0.30893 0.86013 0.22528 0.0
C3523 C 0.36463 0.97637 0.2508 0.0
C3524 C 0.34826 0.92475 0.25163 0.0
H3525 H 0.34481 0.8791 0.23776 0.0
C3526 C 0.33215 0.92248 0.25998 0.0
C3527 C 0.35253 0.90898 0.24286 0.0
C3528 C 0.36896 0.91059 0.23254 0.0
C3529 C 0.32061 0.90482 0.26053 0.0
C3530 C 0.32556 0.88901 0.25294 0.0
C3531 C 0.3412 0.89126 0.24381 0.0
C3532 C 0.31517 0.87006 0.25519 0.0
C3533 C 0.3033 0.90329 0.26935 0.0
C3534 C 0.31337 0.86521 0.2733 0.0
C3535 C 0.30387 0.84729 0.2756 0.0
C3536 C 0.29618 0.83379 0.25982 0.0
C3537 C 0.29811 0.83865 0.24166 0.0
C3538 C 0.30757 0.85665 0.23938 0.0
H3539 H 0.29866 0.91603 0.2689 0.0
H3540 H 0.29214 0.8912 0.26212 0.0
H3541 H 0.30587 0.90147 0.28437 0.0
H3542 H 0.31951 0.87524 0.2857 0.0
H3543 H 0.30279 0.84398 0.28978 0.0
H3544 H 0.56293 0.35589 0.59866 0.0
H3545 H 0.56223 0.38612 0.58945 0.0
H3546 H 0.51234 0.35999 0.55218 0.0
H3547 H 0.51271 0.32995 0.56158 0.0
H3548 H 0.56248 0.40002 0.55598 0.0
H3549 H 0.49739 0.39991 0.58323 0.0
H3550 H 0.50979 0.38338 0.5885 0.0
H3551 H 0.49532 0.37988 0.56638 0.0
C3552 C 0.55183 0.35656 0.58844 0.0
C3553 C 0.53778 0.34042 0.58102 0.0
C3554 C 0.55144 0.37389 0.58319 0.0
C3555 C 0.53699 0.37552 0.57043 0.0
C3556 C 0.52336 0.3593 0.56246 0.0
H3557 H 0.50535 0.46288 0.51811 0.0
H3558 H 0.5091 0.43381 0.52758 0.0
C3559 C 0.52368 0.34204 0.56777 0.0
C3560 C 0.53605 0.39408 0.56545 0.0
H3561 H 0.50821 0.42294 0.56379 0.0
C3562 C 0.55067 0.40508 0.55784 0.0
C3563 C 0.52069 0.40087 0.56792 0.0
C3564 C 0.50499 0.39049 0.57713 0.0
C3565 C 0.5501 0.42225 0.5521 0.0
C3566 C 0.53457 0.4288 0.55419 0.0
C3567 C 0.52007 0.41793 0.56203 0.0
C3568 C 0.53288 0.44671 0.54809 0.0
C3569 C 0.56591 0.43302 0.54333 0.0
C3570 C 0.54493 0.4638 0.5565 0.0
C3571 C 0.54279 0.48056 0.55115 0.0
C3572 C 0.52852 0.48065 0.53724 0.0
C3573 C 0.51654 0.46347 0.5288 0.0
C3574 C 0.51865 0.44676 0.53423 0.0
H3575 H 0.57477 0.42428 0.53875 0.0
H3576 H 0.561 0.43885 0.53097 0.0
H3577 H 0.57435 0.44475 0.55385 0.0
H3578 H 0.55584 0.46423 0.56746 0.0
H3579 H 0.55225 0.49346 0.55804 0.0
H3580 H 0.41852 0.74543 0.41346 0.0
H3581 H 0.39323 0.74928 0.39224 0.0
H3582 H 0.43064 0.77179 0.35431 0.0
H3583 H 0.45612 0.76804 0.37551 0.0
H3584 H 0.3903 0.7842 0.37997 0.0
H3585 H 0.38906 0.73022 0.32024 0.0
H3586 H 0.39981 0.73033 0.34376 0.0
H3587 H 0.41086 0.74638 0.32909 0.0
C3588 C 0.42141 0.75106 0.40054 0.0
C3589 C 0.4394 0.75638 0.3962 0.0
C3590 C 0.40691 0.7533 0.38844 0.0
C3591 C 0.41 0.76068 0.37161 0.0
C3592 C 0.4279 0.76584 0.3671 0.0
H3593 H 0.33575 0.78073 0.28094 0.0
H3594 H 0.36238 0.77769 0.30075 0.0
C3595 C 0.44246 0.76374 0.37928 0.0
C3596 C 0.39454 0.76353 0.35917 0.0
H3597 H 0.36879 0.74866 0.31598 0.0
C3598 C 0.38557 0.77643 0.36598 0.0
C3599 C 0.3885 0.7535 0.34086 0.0
C3600 C 0.39742 0.73922 0.333 0.0
C3601 C 0.3708 0.77967 0.35496 0.0
C3602 C 0.36444 0.76933 0.33677 0.0
C3603 C 0.37358 0.75656 0.3299 0.0
C3604 C 0.34821 0.77136 0.32479 0.0
C3605 C 0.36246 0.79447 0.36279 0.0
C3606 C 0.33124 0.76859 0.33154 0.0
C3607 C 0.31601 0.77048 0.32031 0.0
C3608 C 0.31729 0.77489 0.30189 0.0
C3609 C 0.33423 0.77736 0.29504 0.0
C3610 C 0.3495 0.7756 0.30636 0.0
H3611 H 0.37223 0.80484 0.37373 0.0
H3612 H 0.35795 0.80184 0.3515 0.0
H3613 H 0.35042 0.78792 0.3695 0.0
H3614 H 0.32969 0.76479 0.34548 0.0
H3615 H 0.30318 0.7683 0.32604 0.0
H3616 H 0.01853 0.73701 0.0876 0.0
H3617 H 0.01217 0.70359 0.07709 0.0
H3618 H 0.06688 0.71193 0.06309 0.0
H3619 H 0.07342 0.74514 0.07373 0.0
H3620 H 0.01352 0.68308 0.04269 0.0
H3621 H 0.06387 0.67285 0.09828 0.0
H3622 H 0.05661 0.6938 0.09898 0.0
H3623 H 0.07356 0.69037 0.08441 0.0
C3624 C 0.02918 0.73175 0.08218 0.0
C3625 C 0.04655 0.74383 0.08167 0.0
C3626 C 0.02552 0.71261 0.07619 0.0
C3627 C 0.03915 0.70511 0.06966 0.0
C3628 C 0.05625 0.71724 0.0685 0.0
H3629 H 0.05108 0.59698 0.02893 0.0
H3630 H 0.05431 0.62988 0.03847 0.0
C3631 C 0.05993 0.73632 0.07449 0.0
C3632 C 0.03566 0.68465 0.06421 0.0
H3633 H 0.0514 0.64765 0.0736 0.0
C3634 C 0.0217 0.6753 0.04955 0.0
C3635 C 0.04628 0.67442 0.07317 0.0
C3636 C 0.0608 0.68331 0.08971 0.0
C3637 C 0.0185 0.65621 0.04322 0.0
C3638 C 0.02936 0.64607 0.05196 0.0
C3639 C 0.04313 0.65538 0.0668 0.0
C3640 C 0.02697 0.6259 0.04576 0.0
C3641 C 0.00388 0.64717 0.02682 0.0
C3642 C 0.01055 0.61255 0.04679 0.0
C3643 C 0.00863 0.5936 0.04136 0.0
C3644 C 0.02313 0.58753 0.03479 0.0
C3645 C 0.03956 0.60099 0.03383 0.0
C3646 C 0.04147 0.61989 0.03932 0.0
H3647 H 0.99986 0.65759 0.01883 0.0
H3648 H 0.00854 0.63748 0.01701 0.0
H3649 H 0.9916 0.63909 0.0322 0.0
H3650 H 0.99926 0.61674 0.05205 0.0
H3651 H 0.99579 0.58374 0.04239 0.0
H3652 H 0.03844 0.25091 0.89014 0.0
H3653 H 0.06433 0.25107 0.87262 0.0
H3654 H 0.07583 0.31038 0.87452 0.0
H3655 H 0.05023 0.31041 0.89222 0.0
H3656 H 0.07131 0.26282 0.83811 0.0
H3657 H 0.12504 0.30427 0.89516 0.0
H3658 H 0.10197 0.29387 0.89929 0.0
H3659 H 0.10747 0.3153 0.88952 0.0
C3660 C 0.04649 0.264 0.88686 0.0
C3661 C 0.04231 0.28067 0.89272 0.0
C3662 C 0.06129 0.26406 0.87683 0.0
C3663 C 0.07225 0.28078 0.87256 0.0
C3664 C 0.06786 0.29736 0.87804 0.0
H3665 H 0.16384 0.31616 0.81164 0.0
H3666 H 0.13791 0.31311 0.82949 0.0
C3667 C 0.05311 0.29733 0.88807 0.0
C3668 C 0.0881 0.28092 0.86212 0.0
H3669 H 0.13409 0.29998 0.86463 0.0
C3670 C 0.08506 0.2708 0.84396 0.0
C3671 C 0.10607 0.29131 0.86978 0.0
C3672 C 0.11041 0.30166 0.88958 0.0
C3673 C 0.09939 0.27129 0.83303 0.0
C3674 C 0.11728 0.28198 0.84057 0.0
C3675 C 0.12036 0.29185 0.85883 0.0
C3676 C 0.13293 0.28354 0.82957 0.0
C3677 C 0.09518 0.26084 0.81329 0.0
C3678 C 0.13889 0.26796 0.82384 0.0
C3679 C 0.15371 0.26964 0.81355 0.0
C3680 C 0.16287 0.28696 0.8088 0.0
C3681 C 0.15693 0.30256 0.81476 0.0
C3682 C 0.14218 0.30087 0.82508 0.0
H3683 H 0.08034 0.25673 0.80814 0.0
H3684 H 0.10254 0.26935 0.80334 0.0
H3685 H 0.09976 0.24804 0.81314 0.0
H3686 H 0.13214 0.2545 0.82741 0.0
H3687 H 0.15786 0.25733 0.80913 0.0
H3688 H 0.51807 0.75582 0.88859 0.0
H3689 H 0.51289 0.73023 0.90746 0.0
H3690 H 0.57096 0.74082 0.92219 0.0
H3691 H 0.57625 0.76654 0.90371 0.0
H3692 H 0.52386 0.6982 0.90409 0.0
H3693 H 0.55357 0.74015 0.97353 0.0
H3694 H 0.54823 0.75046 0.953 0.0
H3695 H 0.56894 0.74349 0.95616 0.0
C3696 C 0.52974 0.75276 0.89592 0.0
C3697 C 0.54758 0.76335 0.89471 0.0
C3698 C 0.52676 0.73811 0.90669 0.0
C3699 C 0.54152 0.73378 0.91655 0.0
C3700 C 0.55932 0.74415 0.91513 0.0
H3701 H 0.55552 0.6494 0.98516 0.0
H3702 H 0.55934 0.67468 0.96595 0.0
C3703 C 0.56233 0.75882 0.90443 0.0
C3704 C 0.53836 0.71816 0.92795 0.0
H3705 H 0.54738 0.70737 0.97217 0.0
C3706 C 0.52888 0.70023 0.919 0.0
C3707 C 0.5449 0.72078 0.94744 0.0
C3708 C 0.55432 0.73978 0.95816 0.0
C3709 C 0.52617 0.68483 0.92887 0.0
C3710 C 0.53293 0.68744 0.94828 0.0
C3711 C 0.54229 0.70536 0.95727 0.0
C3712 C 0.53046 0.67175 0.95954 0.0
C3713 C 0.5165 0.66582 0.91834 0.0
C3714 C 0.51296 0.66176 0.96244 0.0
C3715 C 0.51073 0.64728 0.9734 0.0
C3716 C 0.52596 0.64247 0.98172 0.0
C3717 C 0.54348 0.65254 0.97877 0.0
C3718 C 0.5457 0.66707 0.96788 0.0
H3719 H 0.51597 0.66555 0.90283 0.0
H3720 H 0.52333 0.65535 0.92268 0.0
H3721 H 0.50228 0.66171 0.92166 0.0
H3722 H 0.50102 0.66528 0.95639 0.0
H3723 H 0.49704 0.63975 0.97526 0.0
H3724 H 0.06707 0.7253 0.7145 0.0
H3725 H 0.0998 0.73119 0.72364 0.0
H3726 H 0.10698 0.78981 0.72373 0.0
H3727 H 0.07402 0.78404 0.71469 0.0
H3728 H 0.12745 0.7468 0.70368 0.0
H3729 H 0.13613 0.7887 0.77407 0.0
H3730 H 0.11405 0.77529 0.76203 0.0
H3731 H 0.12509 0.79725 0.7552 0.0
C3732 C 0.07551 0.73952 0.71667 0.0
C3733 C 0.06777 0.7542 0.7139 0.0
C3734 C 0.09431 0.74285 0.72187 0.0
C3735 C 0.10597 0.76096 0.72457 0.0
C3736 C 0.09831 0.77573 0.72209 0.0
H3737 H 0.22493 0.80343 0.75245 0.0
H3738 H 0.19233 0.80002 0.74434 0.0
C3739 C 0.07942 0.7724 0.71686 0.0
C3740 C 0.12615 0.76407 0.72909 0.0
H3741 H 0.16305 0.78547 0.76223 0.0
C3742 C 0.13521 0.75524 0.71651 0.0
C3743 C 0.1364 0.77517 0.74576 0.0
C3744 C 0.12745 0.78454 0.76015 0.0
C3745 C 0.15409 0.75724 0.72005 0.0
C3746 C 0.1643 0.76807 0.73688 0.0
C3747 C 0.1553 0.77712 0.74935 0.0
C3748 C 0.18426 0.77006 0.74184 0.0
C3749 C 0.16298 0.748 0.70547 0.0
C3750 C 0.19074 0.7544 0.7434 0.0
C3751 C 0.20944 0.75629 0.74797 0.0
C3752 C 0.22218 0.77392 0.75127 0.0
C3753 C 0.21561 0.7896 0.74994 0.0
C3754 C 0.19691 0.78769 0.74533 0.0
H3755 H 0.15473 0.74504 0.69133 0.0
H3756 H 0.17684 0.75676 0.70437 0.0
H3757 H 0.16421 0.73459 0.7096 0.0
H3758 H 0.1813 0.74066 0.74125 0.0
H3759 H 0.21389 0.74389 0.74903 0.0
H3760 H 0.06308 0.36209 0.39567 0.0
H3761 H 0.06633 0.391 0.41677 0.0
H3762 H 0.00987 0.37208 0.4251 0.0
H3763 H 0.00658 0.34324 0.40444 0.0
H3764 H 0.04841 0.41827 0.41429 0.0
H3765 H 0.03512 0.38635 0.47897 0.0
H3766 H 0.03993 0.37388 0.4581 0.0
H3767 H 0.01734 0.37627 0.45968 0.0
C3768 C 0.05139 0.36406 0.40208 0.0
C3769 C 0.03461 0.35024 0.39844 0.0
C3770 C 0.05326 0.38061 0.41412 0.0
C3771 C 0.03843 0.38361 0.42283 0.0
C3772 C 0.02163 0.36995 0.41896 0.0
H3773 H 0.0195 0.48644 0.4711 0.0
H3774 H 0.02103 0.45881 0.45087 0.0
C3775 C 0.01976 0.35345 0.40701 0.0
C3776 C 0.04025 0.40112 0.43566 0.0
H3777 H 0.03346 0.41763 0.47976 0.0
C3778 C 0.0453 0.41815 0.42866 0.0
C3779 C 0.03647 0.40106 0.45453 0.0
C3780 C 0.0321 0.38343 0.46334 0.0
C3781 C 0.04605 0.43498 0.43977 0.0
C3782 C 0.04131 0.43479 0.45831 0.0
C3783 C 0.03687 0.41782 0.4655 0.0
C3784 C 0.04072 0.45194 0.47046 0.0
C3785 C 0.0521 0.45283 0.43158 0.0
C3786 C 0.05089 0.45712 0.48849 0.0
C3787 C 0.04989 0.47283 0.50022 0.0
C3788 C 0.03861 0.48372 0.49424 0.0
C3789 C 0.02841 0.47849 0.47618 0.0
C3790 C 0.02938 0.46273 0.46449 0.0
H3791 H 0.06042 0.45132 0.42001 0.0
H3792 H 0.0399 0.45666 0.42563 0.0
H3793 H 0.06021 0.46434 0.44254 0.0
H3794 H 0.05966 0.44899 0.49349 0.0
H3795 H 0.05794 0.47639 0.51402 0.0
H3796 H 0.46677 0.24954 0.22933 0.0
H3797 H 0.4386 0.2503 0.24284 0.0
H3798 H 0.41691 0.26559 0.19133 0.0
H3799 H 0.4445 0.26448 0.17775 0.0
H3800 H 0.422 0.27746 0.25032 0.0
H3801 H 0.37522 0.22269 0.19757 0.0
H3802 H 0.39966 0.22697 0.19951 0.0
H3803 H 0.38842 0.2409 0.18654 0.0
C3804 C 0.45596 0.25298 0.22087 0.0
C3805 C 0.45796 0.25675 0.20233 0.0
C3806 C 0.43982 0.25342 0.22861 0.0
C3807 C 0.42527 0.25756 0.218 0.0
C3808 C 0.42753 0.26177 0.1997 0.0
H3809 H 0.33776 0.29957 0.25638 0.0
H3810 H 0.36607 0.29478 0.24695 0.0
C3811 C 0.44351 0.26125 0.19196 0.0
C3812 C 0.40791 0.25799 0.22596 0.0
H3813 H 0.36133 0.24234 0.216 0.0
C3814 C 0.40876 0.26962 0.24288 0.0
C3815 C 0.39047 0.24754 0.21659 0.0
C3816 C 0.38836 0.23367 0.19916 0.0
C3817 C 0.39282 0.27166 0.25019 0.0
C3818 C 0.37538 0.26214 0.24015 0.0
C3819 C 0.37456 0.24992 0.22365 0.0
C3820 C 0.35792 0.26497 0.24621 0.0
C3821 C 0.39492 0.2839 0.26877 0.0
C3822 C 0.34334 0.2498 0.24839 0.0
C3823 C 0.32685 0.25249 0.25358 0.0
C3824 C 0.32446 0.27043 0.25669 0.0
C3825 C 0.33903 0.28554 0.25434 0.0
C3826 C 0.35541 0.28284 0.24907 0.0
H3827 H 0.40803 0.28492 0.2775 0.0
H3828 H 0.39493 0.29811 0.26608 0.0
H3829 H 0.38358 0.27864 0.27696 0.0
H3830 H 0.34473 0.23583 0.24614 0.0
H3831 H 0.31599 0.24049 0.25516 0.0
H3832 H 0.58647 0.52573 0.32546 0.0
H3833 H 0.57049 0.52365 0.35331 0.0
H3834 H 0.621 0.52838 0.38824 0.0
H3835 H 0.63706 0.53029 0.36051 0.0
H3836 H 0.59085 0.50001 0.39546 0.0
H3837 H 0.57484 0.56771 0.39455 0.0
H3838 H 0.56769 0.55197 0.37288 0.0
H3839 H 0.59159 0.56136 0.38122 0.0
C3840 C 0.59418 0.5263 0.33906 0.0
C3841 C 0.61306 0.52829 0.34079 0.0
C3842 C 0.58504 0.5252 0.35496 0.0
C3843 C 0.59464 0.52613 0.37284 0.0
C3844 C 0.61339 0.52772 0.37455 0.0
H3845 H 0.56998 0.52656 0.4878 0.0
H3846 H 0.58404 0.52527 0.45881 0.0
C3847 C 0.62253 0.52884 0.35869 0.0
C3848 C 0.5852 0.52554 0.38983 0.0
H3849 H 0.56252 0.54935 0.41719 0.0
C3850 C 0.58466 0.51078 0.40025 0.0
C3851 C 0.57714 0.53964 0.39598 0.0
C3852 C 0.57793 0.55617 0.38571 0.0
C3853 C 0.57608 0.50963 0.4166 0.0
C3854 C 0.56815 0.5238 0.42284 0.0
C3855 C 0.5686 0.53849 0.41234 0.0
C3856 C 0.55949 0.52383 0.44035 0.0
C3857 C 0.57532 0.49311 0.42688 0.0
C3858 C 0.54112 0.52377 0.43961 0.0
C3859 C 0.53307 0.52463 0.45615 0.0
C3860 C 0.54329 0.52568 0.47378 0.0
C3861 C 0.56169 0.52565 0.47446 0.0
C3862 C 0.56973 0.52481 0.45789 0.0
H3863 H 0.57751 0.48127 0.41768 0.0
H3864 H 0.58622 0.49705 0.43913 0.0
H3865 H 0.56199 0.48845 0.43223 0.0
H3866 H 0.53301 0.52311 0.42622 0.0
H3867 H 0.51887 0.52464 0.45511 0.0
H3868 H 0.26686 0.88886 0.06166 0.0
H3869 H 0.2655 0.86447 0.08156 0.0
H3870 H 0.22576 0.82573 0.03944 0.0
H3871 H 0.22703 0.85009 0.01928 0.0
H3872 H 0.23393 0.84105 0.0952 0.0
H3873 H 0.26957 0.80229 0.04858 0.0
H3874 H 0.27025 0.82621 0.04715 0.0
H3875 H 0.24989 0.80812 0.03802 0.0
C3876 C 0.2577 0.87521 0.05666 0.0
C3877 C 0.24714 0.87136 0.03884 0.0
C3878 C 0.25694 0.86131 0.06806 0.0
C3879 C 0.2457 0.84332 0.06182 0.0
C3880 C 0.23466 0.83952 0.04435 0.0
H3881 H 0.23684 0.76275 0.14197 0.0
H3882 H 0.22842 0.77753 0.11511 0.0
C3883 C 0.23534 0.85347 0.03293 0.0
C3884 C 0.24619 0.82857 0.07355 0.0
H3885 H 0.26346 0.79155 0.07735 0.0
C3886 C 0.24009 0.83001 0.09123 0.0
C3887 C 0.2544 0.81436 0.06825 0.0
C3888 C 0.26153 0.81259 0.04953 0.0
C3889 C 0.24255 0.81794 0.1041 0.0
C3890 C 0.25115 0.80399 0.099 0.0
C3891 C 0.25673 0.80218 0.08108 0.0
C3892 C 0.25617 0.79256 0.11288 0.0
C3893 C 0.23679 0.82083 0.12343 0.0
C3894 C 0.27459 0.79546 0.11982 0.0
C3895 C 0.27945 0.78707 0.13512 0.0
C3896 C 0.26591 0.77565 0.14369 0.0
C3897 C 0.24753 0.77174 0.13582 0.0
C3898 C 0.2427 0.78013 0.1205 0.0
H3899 H 0.23309 0.83409 0.12612 0.0
H3900 H 0.22473 0.80931 0.12465 0.0
H3901 H 0.2479 0.82078 0.13455 0.0
H3902 H 0.28516 0.80503 0.11406 0.0
H3903 H 0.29369 0.79047 0.14094 0.0
H3904 H 0.88894 0.52702 0.85181 0.0
H3905 H 0.90815 0.52594 0.88063 0.0
H3906 H 0.94821 0.5748 0.87078 0.0
H3907 H 0.92906 0.57617 0.84213 0.0
H3908 H 0.9428 0.52129 0.8797 0.0
H3909 H 0.94565 0.58541 0.92716 0.0
H3910 H 0.92828 0.57608 0.90709 0.0
H3911 H 0.95067 0.58938 0.90388 0.0
C3912 C 0.90162 0.53781 0.85601 0.0
C3913 C 0.90752 0.55162 0.84461 0.0
C3914 C 0.91259 0.53714 0.87246 0.0
C3915 C 0.92953 0.55034 0.87786 0.0
C3916 C 0.93504 0.56467 0.86704 0.0
H3917 H 0.02474 0.56007 0.95853 0.0
H3918 H 0.00345 0.5633 0.93203 0.0
C3919 C 0.92409 0.56537 0.8506 0.0
C3920 C 0.94232 0.54795 0.89354 0.0
H3921 H 0.9678 0.5695 0.93541 0.0
C3922 C 0.94815 0.53175 0.89197 0.0
C3923 C 0.94937 0.56171 0.90941 0.0
C3924 C 0.94306 0.57905 0.91212 0.0
C3925 C 0.96109 0.52906 0.90573 0.0
C3926 C 0.96821 0.54285 0.92153 0.0
C3927 C 0.96237 0.55903 0.92316 0.0
C3928 C 0.98131 0.54044 0.93683 0.0
C3929 C 0.96733 0.51165 0.90309 0.0
C3930 C 0.97588 0.52645 0.94806 0.0
C3931 C 0.98796 0.52461 0.96303 0.0
C3932 C 0.00555 0.53681 0.96708 0.0
C3933 C 0.0112 0.5505 0.95557 0.0
C3934 C 0.99906 0.55242 0.94059 0.0
H3935 H 0.96397 0.50471 0.88825 0.0
H3936 H 0.98228 0.51479 0.9073 0.0
H3937 H 0.9604 0.50176 0.91215 0.0
H3938 H 0.96221 0.51714 0.94541 0.0
H3939 H 0.98358 0.51362 0.97143 0.0
H3940 H 0.29263 0.20329 0.57415 0.0
H3941 H 0.29141 0.21743 0.60603 0.0
H3942 H 0.26399 0.25498 0.58322 0.0
H3943 H 0.26503 0.24084 0.55117 0.0
H3944 H 0.30528 0.25573 0.62294 0.0
H3945 H 0.22989 0.22905 0.61963 0.0
H3946 H 0.24252 0.21964 0.60307 0.0
H3947 H 0.2382 0.24165 0.60102 0.0
C3948 C 0.28639 0.21461 0.57586 0.0
C3949 C 0.27882 0.22086 0.56009 0.0
C3950 C 0.28573 0.22268 0.5941 0.0
C3951 C 0.2774 0.23706 0.59696 0.0
C3952 C 0.27023 0.24369 0.58129 0.0
H3953 H 0.25657 0.28773 0.70567 0.0
H3954 H 0.25784 0.2807 0.6718 0.0
C3955 C 0.27094 0.23566 0.563 0.0
C3956 C 0.27613 0.24488 0.61642 0.0
H3957 H 0.24603 0.24661 0.64811 0.0
C3958 C 0.29232 0.25387 0.62842 0.0
C3959 C 0.25919 0.24252 0.62347 0.0
C3960 C 0.24142 0.23259 0.61123 0.0
C3961 C 0.29207 0.26029 0.64742 0.0
C3962 C 0.27519 0.25727 0.65467 0.0
C3963 C 0.25894 0.24886 0.64251 0.0
C3964 C 0.27424 0.26157 0.67509 0.0
C3965 C 0.30991 0.27019 0.65956 0.0
C3966 C 0.28269 0.25284 0.68807 0.0
C3967 C 0.282 0.25679 0.70732 0.0
C3968 C 0.27269 0.26947 0.71405 0.0
C3969 C 0.26388 0.27793 0.70098 0.0
C3970 C 0.2646 0.27395 0.68164 0.0
H3971 H 0.32054 0.27643 0.65092 0.0
H3972 H 0.30824 0.28129 0.67014 0.0
H3973 H 0.31488 0.26007 0.66718 0.0
H3974 H 0.28982 0.24289 0.68329 0.0
H3975 H 0.28887 0.24992 0.71692 0.0
H3976 H 0.60631 0.55317 0.23766 0.0
H3977 H 0.5923 0.55764 0.20719 0.0
H3978 H 0.5667 0.4988 0.19427 0.0
H3979 H 0.58052 0.49417 0.22484 0.0
H3980 H 0.5976 0.54225 0.17206 0.0
H3981 H 0.52444 0.52118 0.18154 0.0
H3982 H 0.54254 0.52671 0.20108 0.0
H3983 H 0.53635 0.50437 0.18676 0.0
C3984 C 0.59756 0.54117 0.22844 0.0
C3985 C 0.59453 0.52329 0.2337 0.0
C3986 C 0.58957 0.54377 0.21102 0.0
C3987 C 0.57828 0.52859 0.19858 0.0
C3988 C 0.57507 0.51075 0.20383 0.0
H3989 H 0.52876 0.5043 0.08404 0.0
H3990 H 0.53912 0.50515 0.11729 0.0
C3991 C 0.58307 0.50812 0.22126 0.0
C3992 C 0.57079 0.53129 0.17964 0.0
H3993 H 0.53113 0.52396 0.1501 0.0
C3994 C 0.58306 0.53847 0.16731 0.0
C3995 C 0.55182 0.52636 0.17353 0.0
C3996 C 0.538 0.51939 0.18647 0.0
C3997 C 0.57691 0.54017 0.14875 0.0
C3998 C 0.55795 0.53484 0.14249 0.0
C3999 C 0.54565 0.52806 0.15497 0.0
C4000 C 0.5507 0.53491 0.12265 0.0
C4001 C 0.59076 0.54692 0.13575 0.0
C4002 C 0.55343 0.55146 0.11472 0.0
C4003 C 0.54753 0.55106 0.09559 0.0
C4004 C 0.53878 0.53408 0.08414 0.0
C4005 C 0.53555 0.51763 0.09237 0.0
C4006 C 0.54142 0.51806 0.11142 0.0
H4007 H 0.60472 0.5469 0.1416 0.0
H4008 H 0.58704 0.53814 0.12175 0.0
H4009 H 0.59103 0.56133 0.13363 0.0
H4010 H 0.56031 0.56464 0.12325 0.0
H4011 H 0.55016 0.56397 0.08972 0.0
H4012 H 0.28138 0.85943 0.97399 0.0
H4013 H 0.27897 0.8421 0.94268 0.0
H4014 H 0.25191 0.87925 0.91843 0.0
H4015 H 0.25401 0.89657 0.94978 0.0
H4016 H 0.23631 0.84101 0.90374 0.0
H4017 H 0.31138 0.8636 0.90364 0.0
H4018 H 0.30429 0.85254 0.92355 0.0
H4019 H 0.29998 0.87441 0.92045 0.0
C4020 C 0.27483 0.86388 0.96202 0.0
C4021 C 0.26808 0.8795 0.96431 0.0
C4022 C 0.2735 0.85398 0.94416 0.0
C4023 C 0.26555 0.85962 0.92828 0.0
C4024 C 0.25817 0.87477 0.93056 0.0
H4025 H 0.28319 0.83314 0.81355 0.0
H4026 H 0.27977 0.84819 0.8442 0.0
C4027 C 0.25943 0.88466 0.94845 0.0
C4028 C 0.26564 0.85019 0.90923 0.0
H4029 H 0.29424 0.84126 0.87828 0.0
C4030 C 0.24894 0.84105 0.89811 0.0
C4031 C 0.28217 0.85053 0.90193 0.0
C4032 C 0.30049 0.86093 0.91291 0.0
C4033 C 0.24836 0.832 0.87985 0.0
C4034 C 0.26491 0.83196 0.87276 0.0
C4035 C 0.28158 0.84124 0.88385 0.0
C4036 C 0.26544 0.82278 0.85369 0.0
C4037 C 0.23009 0.82287 0.86819 0.0
C4038 C 0.25839 0.8035 0.84887 0.0
C4039 C 0.26029 0.79482 0.8313 0.0
C4040 C 0.26946 0.80529 0.81841 0.0
C4041 C 0.2762 0.82464 0.82321 0.0
C4042 C 0.27422 0.83329 0.8407 0.0
H4043 H 0.21903 0.82798 0.87381 0.0
H4044 H 0.23044 0.82539 0.8533 0.0
H4045 H 0.22671 0.80767 0.86839 0.0
H4046 H 0.25187 0.79512 0.85887 0.0
H4047 H 0.255 0.77988 0.82802 0.0
H4048 H 0.95479 0.52776 0.78703 0.0
H4049 H 0.97405 0.51824 0.76482 0.0
H4050 H 0.95862 0.55317 0.72638 0.0
H4051 H 0.93939 0.56275 0.74833 0.0
H4052 H 0.95102 0.51124 0.71375 0.0
H4053 H 0.02272 0.54886 0.74407 0.0
H4054 H 0.00657 0.53867 0.75919 0.0
H4055 H 0.00402 0.55845 0.74867 0.0
C4056 C 0.95582 0.53373 0.77404 0.0
C4057 C 0.94543 0.54587 0.76934 0.0
C4058 C 0.96683 0.52829 0.76141 0.0
C4059 C 0.96766 0.53503 0.74405 0.0
C4060 C 0.9581 0.54788 0.73978 0.0
H4061 H 0.99956 0.52562 0.63684 0.0
H4062 H 0.98657 0.52998 0.66598 0.0
C4063 C 0.94713 0.55332 0.75233 0.0
C4064 C 0.97676 0.52732 0.72935 0.0
H4065 H 0.01807 0.53158 0.71375 0.0
C4066 C 0.9657 0.51544 0.71384 0.0
C4067 C 0.99588 0.5327 0.72974 0.0
C4068 C 0.00812 0.5454 0.74625 0.0
C4069 C 0.97324 0.50947 0.69821 0.0
C4070 C 0.99227 0.5158 0.69803 0.0
C4071 C 0.00346 0.52682 0.71399 0.0
C4072 C 1.00036 0.51288 0.68059 0.0
C4073 C 0.96074 0.49688 0.68175 0.0
C4074 C 0.01266 0.50206 0.67935 0.0
C4075 C 0.02003 0.49937 0.66258 0.0
C4076 C 0.01525 0.5076 0.64691 0.0
C4077 C 1.00314 0.51868 0.64844 0.0
C4078 C 0.99578 0.52128 0.66511 0.0
H4079 H 0.94769 0.48916 0.6861 0.0
H4080 H 0.95751 0.50537 0.67094 0.0
H4081 H 0.96735 0.48676 0.67516 0.0
H4082 H 0.01638 0.49556 0.69126 0.0
H4083 H 0.02929 0.49073 0.6618 0.0
H4084 H 0.26583 0.17071 0.43899 0.0
H4085 H 0.26823 0.18609 0.41082 0.0
H4086 H 0.2983 0.23768 0.44492 0.0
H4087 H 0.2959 0.22243 0.47335 0.0
H4088 H 0.25589 0.22058 0.40613 0.0
H4089 H 0.32936 0.22764 0.40048 0.0
H4090 H 0.31612 0.21028 0.41279 0.0
H4091 H 0.32301 0.23417 0.42316 0.0
C4092 C 0.27302 0.18532 0.44055 0.0
C4093 C 0.28069 0.19535 0.45843 0.0
C4094 C 0.27436 0.19407 0.42443 0.0
C4095 C 0.28356 0.21294 0.42583 0.0
C4096 C 0.2913 0.22304 0.44359 0.0
H4097 H 0.30361 0.28181 0.3357 0.0
H4098 H 0.30478 0.26995 0.36603 0.0
C4099 C 0.28985 0.21432 0.45979 0.0
C4100 C 0.28446 0.22205 0.40865 0.0
H4101 H 0.31294 0.23874 0.37714 0.0
C4102 C 0.26836 0.22464 0.3998 0.0
C4103 C 0.3008 0.22744 0.40061 0.0
C4104 C 0.31836 0.22472 0.40961 0.0
C4105 C 0.26811 0.23236 0.38295 0.0
C4106 C 0.2843 0.23712 0.37447 0.0
C4107 C 0.30053 0.23496 0.3836 0.0
C4108 C 0.28446 0.24388 0.35589 0.0
C4109 C 0.25052 0.23549 0.37451 0.0
C4110 C 0.27309 0.23292 0.34001 0.0
C4111 C 0.27231 0.23968 0.32275 0.0
C4112 C 0.28308 0.25745 0.32093 0.0
C4113 C 0.29511 0.26808 0.33664 0.0
C4114 C 0.29578 0.26134 0.35398 0.0
H4115 H 0.24128 0.2365 0.38531 0.0
H4116 H 0.25313 0.24836 0.36783 0.0
H4117 H 0.24333 0.2236 0.36355 0.0
H4118 H 0.26462 0.2192 0.34104 0.0
H4119 H 0.26307 0.23102 0.31089 0.0
H4120 H 0.3255 0.60412 0.51143 0.0
H4121 H 0.342 0.58541 0.49438 0.0
H4122 H 0.35704 0.62733 0.45823 0.0
H4123 H 0.3406 0.64632 0.47531 0.0
H4124 H 0.33691 0.57219 0.45363 0.0
H4125 H 0.40606 0.61905 0.48141 0.0
H4126 H 0.38623 0.62021 0.49259 0.0
H4127 H 0.38931 0.62893 0.4706 0.0
C4128 C 0.33233 0.60942 0.49989 0.0
C4129 C 0.33184 0.62677 0.4948 0.0
C4130 C 0.34166 0.59866 0.4901 0.0
C4131 C 0.35073 0.60505 0.47512 0.0
C4132 C 0.35019 0.62226 0.46986 0.0
H4133 H 0.43045 0.54945 0.43758 0.0
H4134 H 0.40959 0.56892 0.43414 0.0
C4135 C 0.34082 0.63307 0.47964 0.0
C4136 C 0.36119 0.59372 0.46561 0.0
H4137 H 0.40453 0.59018 0.46475 0.0
C4138 C 0.35171 0.57622 0.45571 0.0
C4139 C 0.38046 0.59918 0.46816 0.0
C4140 C 0.39123 0.61782 0.47882 0.0
C4141 C 0.36104 0.56356 0.44923 0.0
C4142 C 0.38027 0.56844 0.45313 0.0
C4143 C 0.38977 0.58646 0.46177 0.0
C4144 C 0.3906 0.55442 0.45141 0.0
C4145 C 0.35019 0.54484 0.43886 0.0
C4146 C 0.38658 0.53954 0.46183 0.0
C4147 C 0.39849 0.52854 0.46395 0.0
C4148 C 0.41476 0.53226 0.45577 0.0
C4149 C 0.41814 0.54637 0.44424 0.0
C4150 C 0.4062 0.55744 0.44216 0.0
H4151 H 0.33742 0.54578 0.43077 0.0
H4152 H 0.35819 0.53896 0.42903 0.0
H4153 H 0.34626 0.53515 0.44924 0.0
H4154 H 0.37492 0.53726 0.46953 0.0
H4155 H 0.39558 0.51805 0.47321 0.0
H4156 H 0.82992 0.92926 0.52417 0.0
H4157 H 0.86151 0.94649 0.52345 0.0
H4158 H 0.8713 0.95378 0.58419 0.0
H4159 H 0.83949 0.93674 0.58511 0.0
H4160 H 0.8863 0.98594 0.56888 0.0
H4161 H 0.90509 0.92565 0.53385 0.0
H4162 H 0.88569 0.93021 0.52125 0.0
H4163 H 0.88428 0.92328 0.54431 0.0
C4164 C 0.83874 0.93455 0.53741 0.0
C4165 C 0.83222 0.9315 0.55471 0.0
C4166 C 0.85683 0.94431 0.53695 0.0
C4167 C 0.86882 0.95106 0.55374 0.0
C4168 C 0.86227 0.94854 0.57107 0.0
H4169 H 0.9866 0.98777 0.5543 0.0
H4170 H 0.95595 0.97213 0.56045 0.0
C4171 C 0.8441 0.93881 0.57156 0.0
C4172 C 0.88819 0.9607 0.55309 0.0
H4173 H 0.92624 0.95533 0.53485 0.0
C4174 C 0.8951 0.97923 0.56158 0.0
C4175 C 0.89972 0.9518 0.54384 0.0
C4176 C 0.8934 0.93159 0.53546 0.0
C4177 C 0.9131 0.98931 0.5605 0.0
C4178 C 0.92431 0.98069 0.55037 0.0
C4179 C 0.91756 0.96198 0.54243 0.0
C4180 C 0.94298 0.99084 0.54753 0.0
C4181 C 0.91996 0.00905 0.5703 0.0
C4182 C 0.94584 0.00648 0.53811 0.0
C4183 C 0.96334 0.0155 0.53462 0.0
C4184 C 0.9783 0.00891 0.5403 0.0
C4185 C 0.97539 0.99321 0.54972 0.0
C4186 C 0.95789 0.98426 0.55327 0.0
H4187 H 0.91191 0.01165 0.58182 0.0
H4188 H 0.93454 0.01237 0.57629 0.0
H4189 H 0.91862 0.01864 0.55995 0.0
H4190 H 0.93447 0.01151 0.53313 0.0
H4191 H 0.96508 0.02747 0.52723 0.0
H4192 H 0.93089 0.10982 0.26281 0.0
H4193 H 0.91015 0.12965 0.26269 0.0
H4194 H 0.86619 0.08365 0.27156 0.0
H4195 H 0.88666 0.06371 0.27151 0.0
H4196 H 0.85693 0.10331 0.24277 0.0
H4197 H 0.89005 0.15013 0.30909 0.0
H4198 H 0.90488 0.14778 0.29167 0.0
H4199 H 0.89459 0.1281 0.3027 0.0
C4200 C 0.91683 0.10394 0.26479 0.0
C4201 C 0.91045 0.08521 0.26724 0.0
C4202 C 0.90503 0.11531 0.26479 0.0
C4203 C 0.88672 0.10814 0.26732 0.0
C4204 C 0.8803 0.08944 0.26962 0.0
H4205 H 0.80667 0.16368 0.29781 0.0
H4206 H 0.82817 0.14488 0.29553 0.0
C4207 C 0.89205 0.07809 0.26963 0.0
C4208 C 0.87407 0.11998 0.26739 0.0
H4209 H 0.8655 0.15742 0.29202 0.0
C4210 C 0.8588 0.11518 0.25349 0.0
C4211 C 0.87651 0.13532 0.28152 0.0
C4212 C 0.8923 0.14061 0.29721 0.0
C4213 C 0.84584 0.12533 0.25335 0.0
C4214 C 0.84839 0.14079 0.26736 0.0
C4215 C 0.86368 0.14561 0.28124 0.0
C4216 C 0.83502 0.15179 0.26828 0.0
C4217 C 0.82929 0.11914 0.23855 0.0
C4218 C 0.83179 0.16189 0.25369 0.0
C4219 C 0.81939 0.17253 0.25488 0.0
C4220 C 0.81007 0.1733 0.27072 0.0
C4221 C 0.81337 0.16313 0.28528 0.0
C4222 C 0.82576 0.15251 0.28408 0.0
H4223 H 0.82732 0.10473 0.23156 0.0
H4224 H 0.81678 0.11988 0.24481 0.0
H4225 H 0.83104 0.12846 0.22757 0.0
H4226 H 0.839 0.16171 0.2415 0.0
H4227 H 0.81708 0.18014 0.24339 0.0
H4228 H 0.72863 0.14511 0.0662 0.0
H4229 H 0.69678 0.12668 0.0612 0.0
H4230 H 0.70826 0.09069 0.01598 0.0
H4231 H 0.74012 0.10928 0.02062 0.0
H4232 H 0.67771 0.10205 0.00636 0.0
H4233 H 0.67509 0.07545 0.07511 0.0
H4234 H 0.68332 0.10026 0.07745 0.0
H4235 H 0.69629 0.08611 0.06681 0.0
C4236 C 0.72444 0.13317 0.05531 0.0
C4237 C 0.73691 0.12863 0.04384 0.0
C4238 C 0.70625 0.1226 0.05253 0.0
C4239 C 0.70024 0.10719 0.03839 0.0
C4240 C 0.71267 0.10251 0.02701 0.0
H4241 H 0.5948 0.02675 0.03043 0.0
H4242 H 0.62728 0.04186 0.03184 0.0
C4243 C 0.73086 0.11312 0.02973 0.0
C4244 C 0.68083 0.09638 0.03501 0.0
H4245 H 0.64654 0.07178 0.0565 0.0
C4246 C 0.67089 0.0953 0.01726 0.0
C4247 C 0.67207 0.08741 0.04918 0.0
C4248 C 0.68227 0.08718 0.06814 0.0
C4249 C 0.65227 0.08582 0.01344 0.0
C4250 C 0.64334 0.07755 0.02789 0.0
C4251 C 0.65339 0.07828 0.04549 0.0
C4252 C 0.62358 0.06804 0.02519 0.0
C4253 C 0.64241 0.08458 0.99393 0.0
C4254 C 0.61069 0.0777 0.02076 0.0
C4255 C 0.59205 0.06904 0.01981 0.0
C4256 C 0.58603 0.05068 0.02355 0.0
C4257 C 0.59898 0.04095 0.02757 0.0
C4258 C 0.61756 0.04955 0.02838 0.0
H4259 H 0.65205 0.08678 0.98329 0.0
H4260 H 0.63221 0.07089 0.98963 0.0
H4261 H 0.63513 0.09551 0.99387 0.0
H4262 H 0.61506 0.0921 0.01863 0.0
H4263 H 0.58242 0.07694 0.01676 0.0
H4264 H 0.17655 0.49146 0.30871 0.0
H4265 H 0.19616 0.4724 0.31879 0.0
H4266 H 0.20164 0.45622 0.26077 0.0
H4267 H 0.18186 0.47492 0.25053 0.0
H4268 H 0.19403 0.42672 0.28149 0.0
H4269 H 0.25162 0.48508 0.31868 0.0
H4270 H 0.22972 0.48402 0.32618 0.0
H4271 H 0.23351 0.4886 0.30273 0.0
C4272 C 0.18194 0.48384 0.2981 0.0
C4273 C 0.17773 0.48475 0.27883 0.0
C4274 C 0.1932 0.47305 0.3039 0.0
C4275 C 0.20053 0.46316 0.29053 0.0
C4276 C 0.19615 0.46384 0.27129 0.0
H4277 H 0.28857 0.41376 0.29301 0.0
H4278 H 0.26849 0.43418 0.29146 0.0
C4279 C 0.18485 0.47454 0.26547 0.0
C4280 C 0.21267 0.4519 0.29641 0.0
H4281 H 0.25464 0.45481 0.3195 0.0
C4282 C 0.20723 0.43281 0.28991 0.0
C4283 C 0.22991 0.45999 0.30727 0.0
C4284 C 0.23668 0.48057 0.31402 0.0
C4285 C 0.21872 0.42158 0.29372 0.0
C4286 C 0.23596 0.42966 0.3046 0.0
C4287 C 0.24131 0.4487 0.31134 0.0
C4288 C 0.24912 0.41874 0.30779 0.0
C4289 C 0.21262 0.40131 0.28546 0.0
C4290 C 0.24513 0.40375 0.31805 0.0
C4291 C 0.25651 0.39203 0.31887 0.0
C4292 C 0.27205 0.39519 0.30948 0.0
C4293 C 0.27655 0.41088 0.30016 0.0
C4294 C 0.26517 0.42258 0.29936 0.0
H4295 H 0.20063 0.39817 0.2744 0.0
H4296 H 0.22385 0.39705 0.27923 0.0
H4297 H 0.20875 0.39279 0.2968 0.0
H4298 H 0.23289 0.40074 0.32484 0.0
H4299 H 0.25262 0.37998 0.32604 0.0
H4300 H 0.20864 0.38829 0.99435 0.0
H4301 H 0.18695 0.40699 0.99209 0.0
H4302 H 0.21848 0.44552 0.03984 0.0
H4303 H 0.24034 0.42716 0.04204 0.0
H4304 H 0.16579 0.41687 0.01863 0.0
H4305 H 0.21385 0.4793 0.00023 0.0
H4306 H 0.21873 0.45708 0.99912 0.0
H4307 H 0.22199 0.47173 0.02136 0.0
C4308 C 0.21097 0.40076 0.00435 0.0
C4309 C 0.2263 0.40631 0.01828 0.0
C4310 C 0.19857 0.41142 0.00304 0.0
C4311 C 0.20131 0.42781 0.01558 0.0
C4312 C 0.21636 0.43315 0.02974 0.0
H4313 H 0.1444 0.51034 0.03918 0.0
H4314 H 0.16512 0.49061 0.03855 0.0
C4315 C 0.22878 0.42257 0.03103 0.0
C4316 C 0.1883 0.43922 0.01409 0.0
H4317 H 0.18553 0.48284 0.00868 0.0
C4318 C 0.17003 0.43124 0.01628 0.0
C4319 C 0.19392 0.45795 0.011 0.0
C4320 C 0.21315 0.467 0.00761 0.0
C4321 C 0.15733 0.4417 0.01603 0.0
C4322 C 0.16305 0.46052 0.01329 0.0
C4323 C 0.18124 0.46841 0.01084 0.0
C4324 C 0.15047 0.47242 0.01337 0.0
C4325 C 0.13804 0.43273 0.01927 0.0
C4326 C 0.13552 0.46884 0.99925 0.0
C4327 C 0.12372 0.48019 0.99945 0.0
C4328 C 0.12672 0.49536 0.01377 0.0
C4329 C 0.14184 0.49896 0.02779 0.0
C4330 C 0.15363 0.48764 0.02754 0.0
H4331 H 0.13681 0.41942 0.02497 0.0
H4332 H 0.13318 0.44216 0.0292 0.0
H4333 H 0.12892 0.42984 0.00568 0.0
H4334 H 0.13306 0.45734 0.988 0.0
H4335 H 0.11236 0.47719 0.9883 0.0
H4336 H 0.88333 0.99226 0.27506 0.0
H4337 H 0.86071 0.96284 0.27579 0.0
H4338 H 0.89223 0.93374 0.24412 0.0
H4339 H 0.91482 0.96317 0.24302 0.0
H4340 H 0.85481 0.92242 0.231 0.0
H4341 H 0.86765 0.92361 0.30853 0.0
H4342 H 0.86228 0.94388 0.30145 0.0
H4343 H 0.88299 0.93881 0.2959 0.0
C4344 C 0.88548 0.97962 0.26826 0.0
C4345 C 0.90094 0.98004 0.25908 0.0
C4346 C 0.87258 0.96281 0.26877 0.0
C4347 C 0.87497 0.94612 0.26028 0.0
C4348 C 0.8902 0.9465 0.25083 0.0
H4349 H 0.82285 0.82961 0.2512 0.0
H4350 H 0.84125 0.86053 0.24802 0.0
C4351 C 0.9031 0.96332 0.25025 0.0
C4352 C 0.86157 0.92824 0.26121 0.0
H4353 H 0.84308 0.89944 0.29184 0.0
C4354 C 0.85223 0.91738 0.24429 0.0
C4355 C 0.85823 0.92177 0.27859 0.0
C4356 C 0.86841 0.93252 0.29716 0.0
C4357 C 0.83957 0.90017 0.24429 0.0
C4358 C 0.8364 0.89362 0.26165 0.0
C4359 C 0.84552 0.9046 0.27858 0.0
C4360 C 0.82446 0.87495 0.26256 0.0
C4361 C 0.82963 0.88917 0.22575 0.0
C4362 C 0.80902 0.87285 0.27198 0.0
C4363 C 0.79844 0.85515 0.27389 0.0
C4364 C 0.8033 0.83929 0.26658 0.0
C4365 C 0.8187 0.84151 0.25698 0.0
C4366 C 0.82918 0.85917 0.25503 0.0
H4367 H 0.82984 0.8981 0.21444 0.0
H4368 H 0.83639 0.87834 0.22137 0.0
H4369 H 0.81523 0.88217 0.22708 0.0
H4370 H 0.80526 0.88492 0.27801 0.0
H4371 H 0.78671 0.85392 0.2814 0.0
H4372 H 0.70828 0.07482 0.75772 0.0
H4373 H 0.72544 0.10739 0.75983 0.0
H4374 H 0.67651 0.12077 0.7386 0.0
H4375 H 0.65924 0.08821 0.73622 0.0
H4376 H 0.70772 0.13719 0.72205 0.0
H4377 H 0.72074 0.14852 0.80038 0.0
H4378 H 0.72764 0.12942 0.78919 0.0
H4379 H 0.70387 0.12859 0.78721 0.0
C4380 C 0.70118 0.08466 0.75339 0.0
C4381 C 0.68237 0.07897 0.74692 0.0
C4382 C 0.71099 0.10326 0.75472 0.0
C4383 C 0.70214 0.11646 0.74968 0.0
C4384 C 0.68352 0.11075 0.74266 0.0
H4385 H 0.73664 0.23586 0.77635 0.0
H4386 H 0.72143 0.2027 0.77381 0.0
C4387 C 0.67369 0.09216 0.74132 0.0
C4388 C 0.71222 0.13628 0.75188 0.0
H4389 H 0.73511 0.17332 0.78473 0.0
C4390 C 0.71374 0.14511 0.73573 0.0
C4391 C 0.71981 0.14655 0.7698 0.0
C4392 C 0.71784 0.13788 0.78768 0.0
C4393 C 0.72283 0.16401 0.73701 0.0
C4394 C 0.73078 0.17417 0.75488 0.0
C4395 C 0.72912 0.16538 0.77105 0.0
C4396 C 0.74052 0.19409 0.7571 0.0
C4397 C 0.72353 0.17302 0.71928 0.0
C4398 C 0.7565 0.2001 0.7489 0.0
C4399 C 0.76521 0.21899 0.75029 0.0
C4400 C 0.75811 0.2322 0.75997 0.0
C4401 C 0.7424 0.22606 0.76869 0.0
C4402 C 0.73371 0.20714 0.76729 0.0
H4403 H 0.71325 0.16447 0.70754 0.0
H4404 H 0.7212 0.18696 0.72184 0.0
H4405 H 0.73724 0.17477 0.71474 0.0
H4406 H 0.76214 0.19016 0.74129 0.0
H4407 H 0.77735 0.22323 0.74352 0.0
loop_
_geom_bond_atom_site_label_1
_geom_bond_atom_site_label_2
_geom_bond_distance
_geom_bond_site_symmetry_2
_ccdc_geom_bond_type
C0 O1 1.160 . S
C0 O7 1.185 . S
O1 C0 1.160 . S
O2 Zn3 1.899 . S
O2 C10 1.284 . S
Zn3 O2 1.899 . S
Zn3 O4 2.032 . S
Zn3 O7 2.086 . S
Zn3 O12 1.977 . S
O4 Zn3 2.032 . S
O4 C8 1.278 . S
C5 O6 1.203 . S
C5 O12 1.267 1_655 S
O6 C5 1.203 . S
O7 C0 1.185 . S
O7 Zn3 2.086 . S
C8 O4 1.278 . S
C8 O9 1.211 . S
O9 C8 1.211 . S
C10 O2 1.284 . S
C10 O11 1.273 . S
O11 C10 1.273 . S
O12 Zn3 1.977 . S
O12 C5 1.267 1_455 S
C13 O14 1.160 . S
C13 O20 1.238 . S
O14 C13 1.160 . S
O15 Zn16 1.899 . S
O15 C23 1.284 . S
Zn16 O15 1.899 . S
Zn16 O17 2.032 . S
Zn16 O20 2.041 1_455 S
Zn16 O25 1.977 . S
O17 Zn16 2.032 . S
O17 C21 1.278 . S
C18 O19 1.203 . S
C18 O25 1.267 . S
O19 C18 1.203 . S
O20 C13 1.238 . S
O20 Zn16 2.041 1_655 S
C21 O17 1.278 . S
C21 O22 1.211 . S
O22 C21 1.211 . S
C23 O15 1.284 . S
C23 O24 1.273 . S
O24 C23 1.273 . S
O25 Zn16 1.977 . S
O25 C18 1.267 . S
C26 O27 1.160 . S
C26 O33 1.185 . S
O27 C26 1.160 . S
O28 Zn29 1.899 . S
O28 C36 1.284 . S
Zn29 O28 1.899 . S
Zn29 O30 2.032 . S
Zn29 O33 2.086 . S
Zn29 O38 1.977 . S
O30 Zn29 2.032 . S
O30 C34 1.278 . S
C31 O32 1.203 . S
C31 O38 1.267 . S
O32 C31 1.203 . S
O33 C26 1.185 . S
O33 Zn29 2.086 . S
C34 O30 1.278 . S
C34 O35 1.211 . S
O35 C34 1.211 . S
C36 O28 1.284 . S
C36 O37 1.273 . S
O37 C36 1.273 . S
O38 Zn29 1.977 . S
O38 C31 1.267 . S
C39 O40 1.160 . S
C39 O46 1.185 . S
O40 C39 1.160 . S
O41 Zn42 1.899 . S
O41 C49 1.284 . S
Zn42 O41 1.899 . S
Zn42 O43 2.032 . S
Zn42 O46 2.086 . S
Zn42 O51 1.977 . S
O43 Zn42 2.032 . S
O43 C47 1.278 . S
C44 O45 1.203 . S
C44 O51 1.267 . S
O45 C44 1.203 . S
O46 C39 1.185 . S
O46 Zn42 2.086 . S
C47 O43 1.278 . S
C47 O48 1.211 . S
O48 C47 1.211 . S
C49 O41 1.284 . S
C49 O50 1.273 . S
O50 C49 1.273 . S
O51 Zn42 1.977 . S
O51 C44 1.267 . S
C52 O53 1.160 . S
C52 O59 1.185 . S
O53 C52 1.160 . S
O54 Zn55 1.899 . S
O54 C62 1.284 . S
Zn55 O54 1.899 . S
Zn55 O56 2.032 . S
Zn55 O59 2.086 . S
Zn55 O64 1.977 . S
O56 Zn55 2.032 . S
O56 C60 1.278 . S
C57 O58 1.203 . S
C57 O64 1.267 . S
O58 C57 1.203 . S
O59 C52 1.185 . S
O59 Zn55 2.086 . S
C60 O56 1.278 . S
C60 O61 1.211 . S
O61 C60 1.211 . S
C62 O54 1.284 . S
C62 O63 1.273 . S
O63 C62 1.273 . S
O64 Zn55 1.977 . S
O64 C57 1.267 . S
C65 O66 1.160 . S
C65 O72 1.185 . S
O66 C65 1.160 . S
O67 Zn68 1.899 . S
O67 C75 1.284 . S
Zn68 O67 1.899 . S
Zn68 O69 2.032 . S
Zn68 O72 2.086 . S
Zn68 O77 1.977 . S
O69 Zn68 2.032 . S
O69 C73 1.278 . S
C70 O71 1.203 . S
C70 O77 1.267 . S
O71 C70 1.203 . S
O72 C65 1.185 . S
O72 Zn68 2.086 . S
C73 O69 1.278 . S
C73 O74 1.211 . S
O74 C73 1.211 . S
C75 O67 1.284 . S
C75 O76 1.273 . S
O76 C75 1.273 . S
O77 Zn68 1.977 . S
O77 C70 1.267 . S
C78 O79 1.160 . S
C78 O85 1.185 . S
O79 C78 1.160 . S
O80 Zn81 1.899 . S
O80 C88 1.284 . S
Zn81 O80 1.899 . S
Zn81 O82 2.032 . S
Zn81 O85 2.086 . S
Zn81 O90 1.977 . S
O82 Zn81 2.032 . S
O82 C86 1.278 . S
C83 O84 1.203 . S
C83 O90 1.267 . S
O84 C83 1.203 . S
O85 C78 1.185 . S
O85 Zn81 2.086 . S
C86 O82 1.278 . S
C86 O87 1.211 . S
O87 C86 1.211 . S
C88 O80 1.284 . S
C88 O89 1.273 . S
O89 C88 1.273 . S
O90 Zn81 1.977 . S
O90 C83 1.267 . S
C91 O92 1.160 . S
C91 O98 1.185 . S
O92 C91 1.160 . S
O93 Zn94 1.909 1_655 S
O93 C101 1.303 . S
Zn94 O93 1.909 1_455 S
Zn94 O95 2.032 . S
Zn94 O98 2.086 . S
Zn94 O103 1.977 1_455 S
O95 Zn94 2.032 . S
O95 C99 1.278 . S
C96 O97 1.203 . S
C96 O103 1.267 . S
O97 C96 1.203 . S
O98 C91 1.185 . S
O98 Zn94 2.086 . S
C99 O95 1.278 . S
C99 O100 1.211 1_455 S
O100 C99 1.211 1_655 S
C101 O93 1.303 . S
C101 O102 1.273 . S
O102 C101 1.273 . S
O103 Zn94 1.977 1_655 S
O103 C96 1.267 . S
C104 O105 1.160 . S
C104 O111 1.185 . S
O105 C104 1.160 . S
O106 Zn107 1.899 . S
O106 C114 1.284 . S
Zn107 O106 1.899 . S
Zn107 O108 2.032 . S
Zn107 O111 2.086 . S
Zn107 O116 1.977 1_545 S
O108 Zn107 2.032 . S
O108 C112 1.278 . S
C109 O110 1.203 . S
C109 O116 1.267 . S
O110 C109 1.203 . S
O111 C104 1.185 . S
O111 Zn107 2.086 . S
C112 O108 1.278 . S
C112 O113 1.211 1_545 S
O113 C112 1.211 1_565 S
C114 O106 1.284 . S
C114 O115 1.273 1_545 S
O115 C114 1.273 1_565 S
O116 Zn107 1.977 1_565 S
O116 C109 1.267 . S
C117 O118 1.160 . S
C117 O124 1.185 . S
O118 C117 1.160 . S
O119 Zn120 1.899 . S
O119 C127 1.284 . S
Zn120 O119 1.899 . S
Zn120 O121 2.032 . S
Zn120 O124 2.086 . S
Zn120 O129 1.977 . S
O121 Zn120 2.032 . S
O121 C125 1.278 . S
C122 O123 1.203 . S
C122 O129 1.267 . S
O123 C122 1.203 . S
O124 C117 1.185 . S
O124 Zn120 2.086 . S
C125 O121 1.278 . S
C125 O126 1.211 . S
O126 C125 1.211 . S
C127 O119 1.284 . S
C127 O128 1.273 . S
O128 C127 1.273 . S
O129 Zn120 1.977 . S
O129 C122 1.267 . S
C130 O131 1.158 1_545 S
C130 O137 1.197 . S
O131 C130 1.158 1_565 S
O132 Zn133 1.899 . S
O132 C140 1.284 . S
Zn133 O132 1.899 . S
Zn133 O134 2.032 . S
Zn133 O137 2.086 . S
Zn133 O142 1.977 . S
O134 Zn133 2.032 . S
O134 C138 1.278 . S
C135 O136 1.203 . S
C135 O142 1.267 . S
O136 C135 1.203 . S
O137 C130 1.197 . S
O137 Zn133 2.086 . S
C138 O134 1.278 . S
C138 O139 1.211 . S
O139 C138 1.211 . S
C140 O132 1.284 . S
C140 O141 1.273 . S
O141 C140 1.273 . S
O142 Zn133 1.977 . S
O142 C135 1.267 . S
C143 O144 1.160 . S
C143 O150 1.185 1_554 S
O144 C143 1.160 . S
O145 Zn146 1.899 . S
O145 C153 1.284 . S
Zn146 O145 1.899 . S
Zn146 O147 2.032 1_554 S
Zn146 O150 2.086 1_554 S
Zn146 O155 1.986 . S
O147 Zn146 2.032 1_556 S
O147 C151 1.278 . S
C148 O149 1.203 . S
C148 O155 1.276 . S
O149 C148 1.203 . S
O150 C143 1.185 1_556 S
O150 Zn146 2.086 1_556 S
C151 O147 1.278 . S
C151 O152 1.211 . S
O152 C151 1.211 . S
C153 O145 1.284 . S
C153 O154 1.273 . S
O154 C153 1.273 . S
O155 Zn146 1.986 . S
O155 C148 1.276 . S
C156 O157 1.160 . S
C156 O163 1.185 . S
O157 C156 1.160 . S
O158 Zn159 1.899 . S
O158 C166 1.284 . S
Zn159 O158 1.899 . S
Zn159 O160 2.032 . S
Zn159 O163 2.086 . S
Zn159 O168 1.977 . S
O160 Zn159 2.032 . S
O160 C164 1.278 1_554 S
C161 O162 1.203 . S
C161 O168 1.267 . S
O162 C161 1.203 . S
O163 C156 1.185 . S
O163 Zn159 2.086 . S
C164 O160 1.278 1_556 S
C164 O165 1.211 . S
O165 C164 1.211 . S
C166 O158 1.284 . S
C166 O167 1.273 . S
O167 C166 1.273 . S
O168 Zn159 1.977 . S
O168 C161 1.267 . S
C169 O170 1.160 . S
C169 O176 1.185 . S
O170 C169 1.160 . S
O171 Zn172 1.899 . S
O171 C179 1.284 . S
Zn172 O171 1.899 . S
Zn172 O173 2.032 . S
Zn172 O176 2.086 . S
Zn172 O181 1.977 . S
O173 Zn172 2.032 . S
O173 C177 1.278 . S
C174 O175 1.203 . S
C174 O181 1.267 . S
O175 C174 1.203 . S
O176 C169 1.185 . S
O176 Zn172 2.086 . S
C177 O173 1.278 . S
C177 O178 1.211 . S
O178 C177 1.211 . S
C179 O171 1.284 . S
C179 O180 1.273 . S
O180 C179 1.273 . S
O181 Zn172 1.977 . S
O181 C174 1.267 . S
C182 O183 1.160 . S
C182 O189 1.185 . S
O183 C182 1.160 . S
O184 Zn185 1.899 . S
O184 C192 1.284 . S
Zn185 O184 1.899 . S
Zn185 O186 2.032 . S
Zn185 O189 2.086 . S
Zn185 O194 1.977 . S
O186 Zn185 2.032 . S
O186 C190 1.278 . S
C187 O188 1.203 . S
C187 O194 1.267 . S
O188 C187 1.203 . S
O189 C182 1.185 . S
O189 Zn185 2.086 . S
C190 O186 1.278 . S
C190 O191 1.211 . S
O191 C190 1.211 . S
C192 O184 1.284 . S
C192 O193 1.273 . S
O193 C192 1.273 . S
O194 Zn185 1.977 . S
O194 C187 1.267 . S
C195 O196 1.160 . S
C195 O202 1.185 . S
O196 C195 1.160 . S
O197 Zn198 1.899 . S
O197 C205 1.284 . S
Zn198 O197 1.899 . S
Zn198 O199 2.032 . S
Zn198 O202 2.086 . S
Zn198 O207 1.977 . S
O199 Zn198 2.032 . S
O199 C203 1.278 . S
C200 O201 1.203 . S
C200 O207 1.267 . S
O201 C200 1.203 . S
O202 C195 1.185 . S
O202 Zn198 2.086 . S
C203 O199 1.278 . S
C203 O204 1.211 . S
O204 C203 1.211 . S
C205 O197 1.284 . S
C205 O206 1.273 . S
O206 C205 1.273 . S
O207 Zn198 1.977 . S
O207 C200 1.267 . S
C208 O209 1.160 . S
C208 O215 1.185 . S
O209 C208 1.160 . S
O210 Zn211 1.899 . S
O210 C218 1.284 . S
Zn211 O210 1.899 . S
Zn211 O212 2.032 . S
Zn211 O215 2.086 . S
Zn211 O220 1.977 . S
O212 Zn211 2.032 . S
O212 C216 1.278 . S
C213 O214 1.203 . S
C213 O220 1.267 1_565 S
O214 C213 1.203 . S
O215 C208 1.185 . S
O215 Zn211 2.086 . S
C216 O212 1.278 . S
C216 O217 1.211 . S
O217 C216 1.211 . S
C218 O210 1.284 . S
C218 O219 1.273 . S
O219 C218 1.273 . S
O220 Zn211 1.977 . S
O220 C213 1.267 1_545 S
C221 O222 1.160 . S
C221 O228 1.185 . S
O222 C221 1.160 . S
O223 Zn224 1.899 . S
O223 C231 1.284 . S
Zn224 O223 1.899 . S
Zn224 O225 2.032 . S
Zn224 O228 2.086 . S
Zn224 O233 1.977 . S
O225 Zn224 2.032 . S
O225 C229 1.278 . S
C226 O227 1.203 . S
C226 O233 1.267 . S
O227 C226 1.203 . S
O228 C221 1.185 . S
O228 Zn224 2.086 . S
C229 O225 1.278 . S
C229 O230 1.211 . S
O230 C229 1.211 . S
C231 O223 1.284 . S
C231 O232 1.273 . S
O232 C231 1.273 . S
O233 Zn224 1.977 . S
O233 C226 1.267 . S
C234 O235 1.160 . S
C234 O241 1.185 . S
O235 C234 1.160 . S
O236 Zn237 1.899 . S
O236 C244 1.284 . S
Zn237 O236 1.899 . S
Zn237 O238 2.032 . S
Zn237 O241 2.086 . S
Zn237 O246 1.977 . S
O238 Zn237 2.032 . S
O238 C242 1.278 . S
C239 O240 1.203 . S
C239 O246 1.267 . S
O240 C239 1.203 . S
O241 C234 1.185 . S
O241 Zn237 2.086 . S
C242 O238 1.278 . S
C242 O243 1.211 . S
O243 C242 1.211 . S
C244 O236 1.284 . S
C244 O245 1.273 . S
O245 C244 1.273 . S
O246 Zn237 1.977 . S
O246 C239 1.267 . S
C247 O248 1.160 . S
C247 O254 1.185 . S
O248 C247 1.160 . S
O249 Zn250 1.899 . S
O249 C257 1.284 . S
Zn250 O249 1.899 . S
Zn250 O251 2.032 . S
Zn250 O254 2.086 . S
Zn250 O259 1.977 . S
O251 Zn250 2.032 . S
O251 C255 1.278 . S
C252 O253 1.203 . S
C252 O259 1.267 . S
O253 C252 1.203 . S
O254 C247 1.185 . S
O254 Zn250 2.086 . S
C255 O251 1.278 . S
C255 O256 1.211 . S
O256 C255 1.211 . S
C257 O249 1.284 . S
C257 O258 1.273 . S
O258 C257 1.273 . S
O259 Zn250 1.977 . S
O259 C252 1.267 . S
C260 O261 1.160 . S
C260 O267 1.185 . S
O261 C260 1.160 . S
O262 Zn263 1.899 . S
O262 C270 1.284 . S
Zn263 O262 1.899 . S
Zn263 O264 2.010 1_554 S
Zn263 O267 2.086 . S
Zn263 O272 1.977 . S
O264 Zn263 2.010 1_556 S
O264 C268 1.291 . S
C265 O266 1.203 . S
C265 O272 1.267 . S
O266 C265 1.203 . S
O267 C260 1.185 . S
O267 Zn263 2.086 . S
C268 O264 1.291 . S
C268 O269 1.211 . S
O269 C268 1.211 . S
C270 O262 1.284 . S
C270 O271 1.273 . S
O271 C270 1.273 . S
O272 Zn263 1.977 . S
O272 C265 1.267 . S
C273 O274 1.160 . S
C273 O280 1.185 . S
O274 C273 1.160 . S
O275 Zn276 1.899 . S
O275 C283 1.284 . S
Zn276 O275 1.899 . S
Zn276 O277 2.032 . S
Zn276 O280 2.086 . S
Zn276 O285 1.977 . S
O277 Zn276 2.032 . S
O277 C281 1.278 . S
C278 O279 1.203 . S
C278 O285 1.267 . S
O279 C278 1.203 . S
O280 C273 1.185 . S
O280 Zn276 2.086 . S
C281 O277 1.278 . S
C281 O282 1.211 . S
O282 C281 1.211 . S
C283 O275 1.284 . S
C283 O284 1.273 . S
O284 C283 1.273 . S
O285 Zn276 1.977 . S
O285 C278 1.267 . S
C286 O287 1.160 . S
C286 O293 1.185 . S
O287 C286 1.160 . S
O288 Zn289 1.899 . S
O288 C296 1.284 . S
Zn289 O288 1.899 . S
Zn289 O290 2.032 . S
Zn289 O293 2.086 . S
Zn289 O298 1.977 . S
O290 Zn289 2.032 . S
O290 C294 1.278 . S
C291 O292 1.203 . S
C291 O298 1.267 . S
O292 C291 1.203 . S
O293 C286 1.185 . S
O293 Zn289 2.086 . S
C294 O290 1.278 . S
C294 O295 1.211 . S
O295 C294 1.211 . S
C296 O288 1.284 . S
C296 O297 1.273 . S
O297 C296 1.273 . S
O298 Zn289 1.977 . S
O298 C291 1.267 . S
C299 O300 1.160 . S
C299 O306 1.185 . S
O300 C299 1.160 . S
O301 Zn302 1.899 . S
O301 C309 1.284 . S
Zn302 O301 1.899 . S
Zn302 O303 2.032 . S
Zn302 O306 2.086 . S
Zn302 O311 1.977 . S
O303 Zn302 2.032 . S
O303 C307 1.278 . S
C304 O305 1.203 . S
C304 O311 1.267 . S
O305 C304 1.203 . S
O306 C299 1.185 . S
O306 Zn302 2.086 . S
C307 O303 1.278 . S
C307 O308 1.211 . S
O308 C307 1.211 . S
C309 O301 1.284 . S
C309 O310 1.273 . S
O310 C309 1.273 . S
O311 Zn302 1.977 . S
O311 C304 1.267 . S
Dy312 O315 2.307 . S
Dy312 O317 2.395 . S
Dy312 O318 2.379 . S
Dy312 O320 2.339 . S
Dy312 O322 2.298 . S
Dy312 O326 2.246 1_554 S
Dy312 C334 2.738 . S
Dy313 O316 2.298 1_655 S
Dy313 O319 2.275 1_655 S
Dy313 O321 2.307 1_645 S
Dy313 O323 2.395 . S
Dy313 O324 2.379 1_554 S
Dy313 O327 2.339 1_654 S
Dy313 C343 2.738 . S
C314 O326 1.284 . S
C314 O327 1.257 . S
O315 Dy312 2.307 . S
O315 C325 1.266 . S
O316 Dy313 2.298 1_455 S
O316 C325 1.236 . S
O317 Dy312 2.395 . S
O317 C334 1.255 . S
O318 Dy312 2.379 . S
O318 C334 1.249 . S
O319 Dy313 2.275 1_455 S
O319 C335 1.254 . S
O320 Dy312 2.339 . S
O320 C335 1.257 . S
O321 Dy313 2.307 1_465 S
O321 C336 1.266 . S
O322 Dy312 2.298 . S
O322 C336 1.236 1_545 S
O323 Dy313 2.395 . S
O323 C343 1.255 . S
O324 Dy313 2.379 1_556 S
O324 C343 1.249 1_556 S
C325 O315 1.266 . S
C325 O316 1.236 . S
O326 Dy312 2.246 1_556 S
O326 C314 1.284 . S
O327 Dy313 2.339 1_456 S
O327 C314 1.257 . S
C328 C331 1.344 . S
C328 C332 1.328 . S
C328 C334 1.516 . S
C329 C330 1.309 1_545 S
C329 C333 1.354 . S
C330 C329 1.309 1_565 S
C330 C331 1.371 1_565 S
C330 H344 0.930 . S
C331 C328 1.344 . S
C331 C330 1.371 1_545 S
C331 H345 0.932 1_545 S
C332 C328 1.328 . S
C332 C333 1.433 . S
C332 H346 0.931 . S
C333 C329 1.354 . S
C333 C332 1.433 . S
C333 H347 0.933 . S
C334 Dy312 2.738 . S
C334 O317 1.255 . S
C334 O318 1.249 . S
C334 C328 1.516 . S
C335 O319 1.254 . S
C335 O320 1.257 . S
C336 O321 1.266 . S
C336 O322 1.236 1_565 S
C337 C340 1.344 . S
C337 C341 1.328 1_554 S
C337 C343 1.516 . S
C338 C339 1.301 1_556 S
C338 C342 1.327 . S
C339 C338 1.301 1_554 S
C339 C340 1.371 . S
C339 H348 0.930 . S
C340 C337 1.344 . S
C340 C339 1.371 . S
C340 H349 0.931 . S
C341 C337 1.328 1_556 S
C341 C342 1.433 . S
C341 H350 0.931 . S
C342 C338 1.327 . S
C342 C341 1.433 . S
C342 H351 0.933 . S
C343 Dy313 2.738 . S
C343 O323 1.255 . S
C343 O324 1.249 1_554 S
C343 C337 1.516 . S
H344 C330 0.930 . S
H345 C331 0.932 1_565 S
H346 C332 0.931 . S
H347 C333 0.933 . S
H348 C339 0.930 . S
H349 C340 0.931 . S
H350 C341 0.931 . S
H351 C342 0.933 . S
Dy352 O355 2.307 . S
Dy352 O357 2.395 . S
Dy352 O358 2.379 . S
Dy352 O360 2.339 . S
Dy352 O362 2.298 . S
Dy352 O366 2.275 . S
Dy352 C374 2.738 . S
Dy353 O356 2.298 . S
Dy353 O359 2.275 . S
Dy353 O361 2.307 . S
Dy353 O363 2.395 . S
Dy353 O364 2.379 . S
Dy353 O367 2.339 . S
Dy353 C383 2.738 . S
C354 O366 1.254 . S
C354 O367 1.257 . S
O355 Dy352 2.307 . S
O355 C365 1.266 . S
O356 Dy353 2.298 . S
O356 C365 1.236 . S
O357 Dy352 2.395 . S
O357 C374 1.255 . S
O358 Dy352 2.379 . S
O358 C374 1.249 . S
O359 Dy353 2.275 . S
O359 C375 1.254 . S
O360 Dy352 2.339 . S
O360 C375 1.257 . S
O361 Dy353 2.307 . S
O361 C376 1.266 . S
O362 Dy352 2.298 . S
O362 C376 1.236 . S
O363 Dy353 2.395 . S
O363 C383 1.255 . S
O364 Dy353 2.379 . S
O364 C383 1.249 . S
C365 O355 1.266 . S
C365 O356 1.236 . S
O366 Dy352 2.275 . S
O366 C354 1.254 . S
O367 Dy353 2.339 . S
O367 C354 1.257 . S
C368 C371 1.344 . S
C368 C372 1.328 . S
C368 C374 1.516 . S
C369 C370 1.304 . S
C369 C373 1.323 . S
C370 C369 1.304 . S
C370 C371 1.371 . S
C370 H384 0.930 . S
C371 C368 1.344 . S
C371 C370 1.371 . S
C371 H385 0.931 . S
C372 C368 1.328 . S
C372 C373 1.433 . S
C372 H386 0.931 . S
C373 C369 1.323 . S
C373 C372 1.433 . S
C373 H387 0.933 . S
C374 Dy352 2.738 . S
C374 O357 1.255 . S
C374 O358 1.249 . S
C374 C368 1.516 . S
C375 O359 1.254 . S
C375 O360 1.257 . S
C376 O361 1.266 . S
C376 O362 1.236 . S
C377 C380 1.344 . S
C377 C381 1.328 . S
C377 C383 1.516 . S
C378 C379 1.304 . S
C378 C382 1.323 . S
C379 C378 1.304 . S
C379 C380 1.371 . S
C379 H388 0.930 . S
C380 C377 1.344 . S
C380 C379 1.371 . S
C380 H389 0.931 . S
C381 C377 1.328 . S
C381 C382 1.433 . S
C381 H390 0.931 . S
C382 C378 1.323 . S
C382 C381 1.433 . S
C382 H391 0.933 . S
C383 Dy353 2.738 . S
C383 O363 1.255 . S
C383 O364 1.249 . S
C383 C377 1.516 . S
H384 C370 0.930 . S
H385 C371 0.931 . S
H386 C372 0.931 . S
H387 C373 0.933 . S
H388 C379 0.930 . S
H389 C380 0.931 . S
H390 C381 0.931 . S
H391 C382 0.933 . S
Dy392 O395 2.307 . S
Dy392 O397 2.395 . S
Dy392 O398 2.379 . S
Dy392 O400 2.339 . S
Dy392 O402 2.298 . S
Dy392 O406 2.275 . S
Dy392 C414 2.738 . S
Dy393 O396 2.298 . S
Dy393 O399 2.275 . S
Dy393 O401 2.307 . S
Dy393 O403 2.395 . S
Dy393 O404 2.379 . S
Dy393 O407 2.339 . S
Dy393 C423 2.738 . S
C394 O406 1.254 . S
C394 O407 1.257 . S
O395 Dy392 2.307 . S
O395 C405 1.266 1_545 S
O396 Dy393 2.298 . S
O396 C405 1.236 1_545 S
O397 Dy392 2.395 . S
O397 C414 1.255 . S
O398 Dy392 2.379 . S
O398 C414 1.249 . S
O399 Dy393 2.275 . S
O399 C415 1.254 . S
O400 Dy392 2.339 . S
O400 C415 1.257 . S
O401 Dy393 2.307 . S
O401 C416 1.266 . S
O402 Dy392 2.298 . S
O402 C416 1.236 . S
O403 Dy393 2.395 . S
O403 C423 1.255 . S
O404 Dy393 2.379 . S
O404 C423 1.249 . S
C405 O395 1.266 1_565 S
C405 O396 1.236 1_565 S
O406 Dy392 2.275 . S
O406 C394 1.254 . S
O407 Dy393 2.339 . S
O407 C394 1.257 . S
C408 C411 1.344 . S
C408 C412 1.328 . S
C408 C414 1.516 . S
C409 C410 1.304 . S
C409 C413 1.323 . S
C410 C409 1.304 . S
C410 C411 1.371 . S
C410 H424 0.930 . S
C411 C408 1.344 . S
C411 C410 1.371 . S
C411 H425 0.931 . S
C412 C408 1.328 . S
C412 C413 1.433 . S
C412 H426 0.931 . S
C413 C409 1.323 . S
C413 C412 1.433 . S
C413 H427 0.933 . S
C414 Dy392 2.738 . S
C414 O397 1.255 . S
C414 O398 1.249 . S
C414 C408 1.516 . S
C415 O399 1.254 . S
C415 O400 1.257 . S
C416 O401 1.266 . S
C416 O402 1.236 . S
C417 C420 1.344 1_545 S
C417 C421 1.328 . S
C417 C423 1.516 . S
C418 C419 1.304 . S
C418 C422 1.323 . S
C419 C418 1.304 . S
C419 C420 1.371 . S
C419 H428 0.930 . S
C420 C417 1.344 1_565 S
C420 C419 1.371 . S
C420 H429 0.931 . S
C421 C417 1.328 . S
C421 C422 1.433 1_545 S
C421 H430 0.931 . S
C422 C418 1.323 . S
C422 C421 1.433 1_565 S
C422 H431 0.933 . S
C423 Dy393 2.738 . S
C423 O403 1.255 . S
C423 O404 1.249 . S
C423 C417 1.516 . S
H424 C410 0.930 . S
H425 C411 0.931 . S
H426 C412 0.931 . S
H427 C413 0.933 . S
H428 C419 0.930 . S
H429 C420 0.931 . S
H430 C421 0.931 . S
H431 C422 0.933 . S
Dy432 O435 2.307 . S
Dy432 O437 2.395 . S
Dy432 O438 2.379 . S
Dy432 O440 2.339 . S
Dy432 O442 2.298 . S
Dy432 O446 2.275 . S
Dy432 C454 2.738 . S
Dy433 O436 2.298 . S
Dy433 O439 2.275 . S
Dy433 O441 2.307 . S
Dy433 O443 2.395 . S
Dy433 O444 2.379 . S
Dy433 O447 2.339 . S
Dy433 C463 2.738 . S
C434 O446 1.254 . S
C434 O447 1.257 . S
O435 Dy432 2.307 . S
O435 C445 1.266 . S
O436 Dy433 2.298 . S
O436 C445 1.236 . S
O437 Dy432 2.395 . S
O437 C454 1.255 . S
O438 Dy432 2.379 . S
O438 C454 1.249 . S
O439 Dy433 2.275 . S
O439 C455 1.254 . S
O440 Dy432 2.339 . S
O440 C455 1.257 . S
O441 Dy433 2.307 . S
O441 C456 1.266 . S
O442 Dy432 2.298 . S
O442 C456 1.236 . S
O443 Dy433 2.395 . S
O443 C463 1.255 . S
O444 Dy433 2.379 . S
O444 C463 1.249 . S
C445 O435 1.266 . S
C445 O436 1.236 . S
O446 Dy432 2.275 . S
O446 C434 1.254 . S
O447 Dy433 2.339 . S
O447 C434 1.257 . S
C448 C451 1.344 . S
C448 C452 1.328 . S
C448 C454 1.516 . S
C449 C450 1.304 . S
C449 C453 1.323 . S
C450 C449 1.304 . S
C450 C451 1.371 . S
C450 H464 0.930 . S
C451 C448 1.344 . S
C451 C450 1.371 . S
C451 H465 0.931 . S
C452 C448 1.328 . S
C452 C453 1.433 . S
C452 H466 0.931 . S
C453 C449 1.323 . S
C453 C452 1.433 . S
C453 H467 0.933 . S
C454 Dy432 2.738 . S
C454 O437 1.255 . S
C454 O438 1.249 . S
C454 C448 1.516 . S
C455 O439 1.254 . S
C455 O440 1.257 . S
C456 O441 1.266 . S
C456 O442 1.236 . S
C457 C460 1.344 . S
C457 C461 1.328 . S
C457 C463 1.516 . S
C458 C459 1.304 . S
C458 C462 1.323 . S
C459 C458 1.304 . S
C459 C460 1.371 . S
C459 H468 0.930 . S
C460 C457 1.344 . S
C460 C459 1.371 . S
C460 H469 0.931 . S
C461 C457 1.328 . S
C461 C462 1.433 . S
C461 H470 0.931 . S
C462 C458 1.323 . S
C462 C461 1.433 . S
C462 H471 0.933 . S
C463 Dy433 2.738 . S
C463 O443 1.255 . S
C463 O444 1.249 . S
C463 C457 1.516 . S
H464 C450 0.930 . S
H465 C451 0.931 . S
H466 C452 0.931 . S
H467 C453 0.933 . S
H468 C459 0.930 . S
H469 C460 0.931 . S
H470 C461 0.931 . S
H471 C462 0.933 . S
Dy472 O475 2.307 . S
Dy472 O477 2.395 1_545 S
Dy472 O478 2.379 1_545 S
Dy472 O480 2.339 . S
Dy472 O482 2.298 . S
Dy472 O486 2.275 . S
Dy472 C494 2.738 1_545 S
Dy473 O476 2.298 . S
Dy473 O479 2.275 . S
Dy473 O481 2.307 . S
Dy473 O483 2.395 . S
Dy473 O484 2.379 1_455 S
Dy473 O487 2.339 1_455 S
Dy473 C503 2.738 . S
C474 O486 1.254 1_655 S
C474 O487 1.257 . S
O475 Dy472 2.307 . S
O475 C485 1.266 . S
O476 Dy473 2.298 . S
O476 C485 1.236 . S
O477 Dy472 2.395 1_565 S
O477 C494 1.255 . S
O478 Dy472 2.379 1_565 S
O478 C494 1.249 . S
O479 Dy473 2.275 . S
O479 C495 1.254 . S
O480 Dy472 2.339 . S
O480 C495 1.257 . S
O481 Dy473 2.307 . S
O481 C496 1.266 . S
O482 Dy472 2.298 . S
O482 C496 1.236 . S
O483 Dy473 2.395 . S
O483 C503 1.255 . S
O484 Dy473 2.379 1_655 S
O484 C503 1.249 1_655 S
C485 O475 1.266 . S
C485 O476 1.236 . S
O486 Dy472 2.275 . S
O486 C474 1.254 1_455 S
O487 Dy473 2.339 1_655 S
O487 C474 1.257 . S
C488 C491 1.344 . S
C488 C492 1.328 . S
C488 C494 1.516 . S
C489 C490 1.304 . S
C489 C493 1.323 . S
C490 C489 1.304 . S
C490 C491 1.371 . S
C490 H504 0.930 . S
C491 C488 1.344 . S
C491 C490 1.371 . S
C491 H505 0.931 . S
C492 C488 1.328 . S
C492 C493 1.433 . S
C492 H506 0.931 . S
C493 C489 1.323 . S
C493 C492 1.433 . S
C493 H507 0.933 . S
C494 Dy472 2.738 1_565 S
C494 O477 1.255 . S
C494 O478 1.249 . S
C494 C488 1.516 . S
C495 O479 1.254 . S
C495 O480 1.257 . S
C496 O481 1.266 . S
C496 O482 1.236 . S
C497 C500 1.344 . S
C497 C501 1.328 1_455 S
C497 C503 1.516 . S
C498 C499 1.304 . S
C498 C502 1.323 1_455 S
C499 C498 1.304 . S
C499 C500 1.371 . S
C499 H508 0.930 . S
C500 C497 1.344 . S
C500 C499 1.371 . S
C500 H509 0.931 . S
C501 C497 1.328 1_655 S
C501 C502 1.433 . S
C501 H510 0.931 . S
C502 C498 1.323 1_655 S
C502 C501 1.433 . S
C502 H511 0.933 . S
C503 Dy473 2.738 . S
C503 O483 1.255 . S
C503 O484 1.249 1_455 S
C503 C497 1.516 . S
H504 C490 0.930 . S
H505 C491 0.931 . S
H506 C492 0.931 . S
H507 C493 0.933 . S
H508 C499 0.930 . S
H509 C500 0.931 . S
H510 C501 0.931 . S
H511 C502 0.933 . S
Dy512 O515 2.307 . S
Dy512 O517 2.395 . S
Dy512 O518 2.379 . S
Dy512 O520 2.339 . S
Dy512 O522 2.298 . S
Dy512 O526 2.275 . S
Dy512 C534 2.738 . S
Dy513 O516 2.298 . S
Dy513 O519 2.275 . S
Dy513 O521 2.307 . S
Dy513 O523 2.395 . S
Dy513 O524 2.379 . S
Dy513 O527 2.339 . S
Dy513 C543 2.738 . S
C514 O526 1.254 . S
C514 O527 1.257 . S
O515 Dy512 2.307 . S
O515 C525 1.266 . S
O516 Dy513 2.298 . S
O516 C525 1.236 . S
O517 Dy512 2.395 . S
O517 C534 1.255 . S
O518 Dy512 2.379 . S
O518 C534 1.249 . S
O519 Dy513 2.275 . S
O519 C535 1.254 . S
O520 Dy512 2.339 . S
O520 C535 1.257 . S
O521 Dy513 2.307 . S
O521 C536 1.266 . S
O522 Dy512 2.298 . S
O522 C536 1.236 . S
O523 Dy513 2.395 . S
O523 C543 1.255 . S
O524 Dy513 2.379 . S
O524 C543 1.249 . S
C525 O515 1.266 . S
C525 O516 1.236 . S
O526 Dy512 2.275 . S
O526 C514 1.254 . S
O527 Dy513 2.339 . S
O527 C514 1.257 . S
C528 C531 1.344 . S
C528 C532 1.328 . S
C528 C534 1.516 . S
C529 C530 1.304 . S
C529 C533 1.323 . S
C530 C529 1.304 . S
C530 C531 1.371 . S
C530 H544 0.930 . S
C531 C528 1.344 . S
C531 C530 1.371 . S
C531 H545 0.931 . S
C532 C528 1.328 . S
C532 C533 1.433 . S
C532 H546 0.931 . S
C533 C529 1.323 . S
C533 C532 1.433 . S
C533 H547 0.933 . S
C534 Dy512 2.738 . S
C534 O517 1.255 . S
C534 O518 1.249 . S
C534 C528 1.516 . S
C535 O519 1.254 . S
C535 O520 1.257 . S
C536 O521 1.266 . S
C536 O522 1.236 . S
C537 C540 1.344 . S
C537 C541 1.328 . S
C537 C543 1.516 . S
C538 C539 1.304 . S
C538 C542 1.323 . S
C539 C538 1.304 . S
C539 C540 1.371 . S
C539 H548 0.930 . S
C540 C537 1.344 . S
C540 C539 1.371 . S
C540 H549 0.931 . S
C541 C537 1.328 . S
C541 C542 1.433 . S
C541 H550 0.931 . S
C542 C538 1.323 . S
C542 C541 1.433 . S
C542 H551 0.933 . S
C543 Dy513 2.738 . S
C543 O523 1.255 . S
C543 O524 1.249 . S
C543 C537 1.516 . S
H544 C530 0.930 . S
H545 C531 0.931 . S
H546 C532 0.931 . S
H547 C533 0.933 . S
H548 C539 0.930 . S
H549 C540 0.931 . S
H550 C541 0.931 . S
H551 C542 0.933 . S
Dy552 O555 2.307 . S
Dy552 O557 2.394 1_554 S
Dy552 O558 2.378 1_554 S
Dy552 O560 2.339 . S
Dy552 O562 2.298 . S
Dy552 O566 2.275 . S
Dy552 C574 2.738 1_554 S
Dy553 O556 2.298 . S
Dy553 O559 2.275 . S
Dy553 O561 2.307 . S
Dy553 O563 2.395 . S
Dy553 O564 2.379 1_545 S
Dy553 O567 2.339 1_545 S
Dy553 C583 2.738 . S
C554 O566 1.254 1_565 S
C554 O567 1.257 . S
O555 Dy552 2.307 . S
O555 C565 1.266 . S
O556 Dy553 2.298 . S
O556 C565 1.236 . S
O557 Dy552 2.394 1_556 S
O557 C574 1.255 . S
O558 Dy552 2.378 1_556 S
O558 C574 1.249 . S
O559 Dy553 2.275 . S
O559 C575 1.254 . S
O560 Dy552 2.339 . S
O560 C575 1.257 . S
O561 Dy553 2.307 . S
O561 C576 1.266 . S
O562 Dy552 2.298 . S
O562 C576 1.236 . S
O563 Dy553 2.395 . S
O563 C583 1.255 . S
O564 Dy553 2.379 1_565 S
O564 C583 1.249 1_565 S
C565 O555 1.266 . S
C565 O556 1.236 . S
O566 Dy552 2.275 . S
O566 C554 1.254 1_545 S
O567 Dy553 2.339 1_565 S
O567 C554 1.257 . S
C568 C571 1.344 . S
C568 C572 1.328 . S
C568 C574 1.516 . S
C569 C570 1.304 . S
C569 C573 1.323 . S
C570 C569 1.304 . S
C570 C571 1.371 . S
C570 H584 0.930 . S
C571 C568 1.344 . S
C571 C570 1.371 . S
C571 H585 0.931 . S
C572 C568 1.328 . S
C572 C573 1.433 . S
C572 H586 0.931 . S
C573 C569 1.323 . S
C573 C572 1.433 . S
C573 H587 0.933 . S
C574 Dy552 2.738 1_556 S
C574 O557 1.255 . S
C574 O558 1.249 . S
C574 C568 1.516 . S
C575 O559 1.254 . S
C575 O560 1.257 . S
C576 O561 1.266 . S
C576 O562 1.236 . S
C577 C580 1.344 . S
C577 C581 1.328 1_545 S
C577 C583 1.516 . S
C578 C579 1.304 1_565 S
C578 C582 1.323 . S
C579 C578 1.304 1_545 S
C579 C580 1.371 . S
C579 H588 0.930 . S
C580 C577 1.344 . S
C580 C579 1.371 . S
C580 H589 0.931 . S
C581 C577 1.328 1_565 S
C581 C582 1.433 . S
C581 H590 0.931 . S
C582 C578 1.323 . S
C582 C581 1.433 . S
C582 H591 0.933 . S
C583 Dy553 2.738 . S
C583 O563 1.255 . S
C583 O564 1.249 1_545 S
C583 C577 1.516 . S
H584 C570 0.930 . S
H585 C571 0.931 . S
H586 C572 0.931 . S
H587 C573 0.933 . S
H588 C579 0.930 . S
H589 C580 0.931 . S
H590 C581 0.931 . S
H591 C582 0.933 . S
Dy592 O595 2.307 . S
Dy592 O597 2.395 . S
Dy592 O598 2.379 . S
Dy592 O600 2.339 . S
Dy592 O602 2.298 . S
Dy592 O606 2.275 . S
Dy592 C614 2.738 . S
Dy593 O596 2.298 . S
Dy593 O599 2.275 . S
Dy593 O601 2.307 . S
Dy593 O603 2.395 . S
Dy593 O604 2.379 . S
Dy593 O607 2.339 . S
Dy593 C623 2.738 . S
C594 O606 1.254 . S
C594 O607 1.257 . S
O595 Dy592 2.307 . S
O595 C605 1.266 . S
O596 Dy593 2.298 . S
O596 C605 1.236 . S
O597 Dy592 2.395 . S
O597 C614 1.255 . S
O598 Dy592 2.379 . S
O598 C614 1.249 . S
O599 Dy593 2.275 . S
O599 C615 1.254 . S
O600 Dy592 2.339 . S
O600 C615 1.257 . S
O601 Dy593 2.307 . S
O601 C616 1.266 . S
O602 Dy592 2.298 . S
O602 C616 1.236 . S
O603 Dy593 2.395 . S
O603 C623 1.255 . S
O604 Dy593 2.379 . S
O604 C623 1.249 . S
C605 O595 1.266 . S
C605 O596 1.236 . S
O606 Dy592 2.275 . S
O606 C594 1.254 . S
O607 Dy593 2.339 . S
O607 C594 1.257 . S
C608 C611 1.344 . S
C608 C612 1.328 . S
C608 C614 1.516 . S
C609 C610 1.304 . S
C609 C613 1.323 . S
C610 C609 1.304 . S
C610 C611 1.371 . S
C610 H624 0.930 . S
C611 C608 1.344 . S
C611 C610 1.371 . S
C611 H625 0.931 . S
C612 C608 1.328 . S
C612 C613 1.433 . S
C612 H626 0.931 . S
C613 C609 1.323 . S
C613 C612 1.433 . S
C613 H627 0.933 . S
C614 Dy592 2.738 . S
C614 O597 1.255 . S
C614 O598 1.249 . S
C614 C608 1.516 . S
C615 O599 1.254 . S
C615 O600 1.257 . S
C616 O601 1.266 . S
C616 O602 1.236 . S
C617 C620 1.344 . S
C617 C621 1.328 . S
C617 C623 1.516 . S
C618 C619 1.304 . S
C618 C622 1.323 . S
C619 C618 1.304 . S
C619 C620 1.371 . S
C619 H628 0.930 . S
C620 C617 1.344 . S
C620 C619 1.371 . S
C620 H629 0.931 . S
C621 C617 1.328 . S
C621 C622 1.433 . S
C621 H630 0.931 . S
C622 C618 1.323 . S
C622 C621 1.433 . S
C622 H631 0.933 . S
C623 Dy593 2.738 . S
C623 O603 1.255 . S
C623 O604 1.249 . S
C623 C617 1.516 . S
H624 C610 0.930 . S
H625 C611 0.931 . S
H626 C612 0.931 . S
H627 C613 0.933 . S
H628 C619 0.930 . S
H629 C620 0.931 . S
H630 C621 0.931 . S
H631 C622 0.933 . S
Dy632 O635 2.307 1_554 S
Dy632 O637 2.395 . S
Dy632 O638 2.379 . S
Dy632 O640 2.339 . S
Dy632 O642 2.298 . S
Dy632 O646 2.275 . S
Dy632 C654 2.738 . S
Dy633 O636 2.298 1_554 S
Dy633 O639 2.275 . S
Dy633 O641 2.307 . S
Dy633 O643 2.395 . S
Dy633 O644 2.379 . S
Dy633 O647 2.339 . S
Dy633 C663 2.738 . S
C634 O646 1.254 . S
C634 O647 1.257 . S
O635 Dy632 2.307 1_556 S
O635 C645 1.266 . S
O636 Dy633 2.298 1_556 S
O636 C645 1.236 . S
O637 Dy632 2.395 . S
O637 C654 1.255 . S
O638 Dy632 2.379 . S
O638 C654 1.249 . S
O639 Dy633 2.275 . S
O639 C655 1.254 . S
O640 Dy632 2.339 . S
O640 C655 1.257 . S
O641 Dy633 2.307 . S
O641 C656 1.266 . S
O642 Dy632 2.298 . S
O642 C656 1.236 . S
O643 Dy633 2.395 . S
O643 C663 1.255 . S
O644 Dy633 2.379 . S
O644 C663 1.249 . S
C645 O635 1.266 . S
C645 O636 1.236 . S
O646 Dy632 2.275 . S
O646 C634 1.254 . S
O647 Dy633 2.339 . S
O647 C634 1.257 . S
C648 C651 1.344 . S
C648 C652 1.328 . S
C648 C654 1.516 . S
C649 C650 1.304 . S
C649 C653 1.323 . S
C650 C649 1.304 . S
C650 C651 1.371 . S
C650 H664 0.930 . S
C651 C648 1.344 . S
C651 C650 1.371 . S
C651 H665 0.931 . S
C652 C648 1.328 . S
C652 C653 1.433 . S
C652 H666 0.931 . S
C653 C649 1.323 . S
C653 C652 1.433 . S
C653 H667 0.933 . S
C654 Dy632 2.738 . S
C654 O637 1.255 . S
C654 O638 1.249 . S
C654 C648 1.516 . S
C655 O639 1.254 . S
C655 O640 1.257 . S
C656 O641 1.266 . S
C656 O642 1.236 . S
C657 C660 1.344 . S
C657 C661 1.328 . S
C657 C663 1.516 1_556 S
C658 C659 1.304 . S
C658 C662 1.323 . S
C659 C658 1.304 . S
C659 C660 1.371 . S
C659 H668 0.930 . S
C660 C657 1.344 . S
C660 C659 1.371 . S
C660 H669 0.931 . S
C661 C657 1.328 . S
C661 C662 1.433 . S
C661 H670 0.931 1_556 S
C662 C658 1.323 . S
C662 C661 1.433 . S
C662 H671 0.933 . S
C663 Dy633 2.738 . S
C663 O643 1.255 . S
C663 O644 1.249 . S
C663 C657 1.516 1_554 S
H664 C650 0.930 . S
H665 C651 0.931 . S
H666 C652 0.931 . S
H667 C653 0.933 . S
H668 C659 0.930 . S
H669 C660 0.931 . S
H670 C661 0.931 1_554 S
H671 C662 0.933 . S
Dy672 O675 2.307 . S
Dy672 O677 2.395 . S
Dy672 O678 2.379 . S
Dy672 O680 2.339 . S
Dy672 O682 2.298 . S
Dy672 O686 2.275 . S
Dy672 C694 2.738 . S
Dy673 O676 2.298 . S
Dy673 O679 2.275 . S
Dy673 O681 2.307 . S
Dy673 O683 2.395 . S
Dy673 O684 2.379 . S
Dy673 O687 2.339 . S
Dy673 C703 2.738 . S
C674 O686 1.254 . S
C674 O687 1.257 . S
O675 Dy672 2.307 . S
O675 C685 1.266 . S
O676 Dy673 2.298 . S
O676 C685 1.236 . S
O677 Dy672 2.395 . S
O677 C694 1.255 . S
O678 Dy672 2.379 . S
O678 C694 1.249 . S
O679 Dy673 2.275 . S
O679 C695 1.254 . S
O680 Dy672 2.339 . S
O680 C695 1.257 . S
O681 Dy673 2.307 . S
O681 C696 1.266 . S
O682 Dy672 2.298 . S
O682 C696 1.236 . S
O683 Dy673 2.395 . S
O683 C703 1.255 . S
O684 Dy673 2.379 . S
O684 C703 1.249 . S
C685 O675 1.266 . S
C685 O676 1.236 . S
O686 Dy672 2.275 . S
O686 C674 1.254 . S
O687 Dy673 2.339 . S
O687 C674 1.257 . S
C688 C691 1.344 . S
C688 C692 1.328 . S
C688 C694 1.516 . S
C689 C690 1.304 . S
C689 C693 1.323 . S
C690 C689 1.304 . S
C690 C691 1.371 . S
C690 H704 0.930 . S
C691 C688 1.344 . S
C691 C690 1.371 . S
C691 H705 0.931 . S
C692 C688 1.328 . S
C692 C693 1.433 . S
C692 H706 0.931 . S
C693 C689 1.323 . S
C693 C692 1.433 . S
C693 H707 0.933 . S
C694 Dy672 2.738 . S
C694 O677 1.255 . S
C694 O678 1.249 . S
C694 C688 1.516 . S
C695 O679 1.254 . S
C695 O680 1.257 . S
C696 O681 1.266 . S
C696 O682 1.236 . S
C697 C700 1.344 . S
C697 C701 1.328 . S
C697 C703 1.516 . S
C698 C699 1.304 . S
C698 C702 1.323 . S
C699 C698 1.304 . S
C699 C700 1.371 . S
C699 H708 0.930 . S
C700 C697 1.344 . S
C700 C699 1.371 . S
C700 H709 0.931 . S
C701 C697 1.328 . S
C701 C702 1.433 . S
C701 H710 0.931 . S
C702 C698 1.323 . S
C702 C701 1.433 . S
C702 H711 0.933 . S
C703 Dy673 2.738 . S
C703 O683 1.255 . S
C703 O684 1.249 . S
C703 C697 1.516 . S
H704 C690 0.930 . S
H705 C691 0.931 . S
H706 C692 0.931 . S
H707 C693 0.933 . S
H708 C699 0.930 . S
H709 C700 0.931 . S
H710 C701 0.931 . S
H711 C702 0.933 . S
Dy712 O715 2.307 1_455 S
Dy712 O717 2.395 . S
Dy712 O718 2.379 . S
Dy712 O720 2.339 . S
Dy712 O722 2.298 . S
Dy712 O726 2.275 . S
Dy712 C734 2.738 . S
Dy713 O716 2.298 1_455 S
Dy713 O719 2.275 . S
Dy713 O721 2.307 . S
Dy713 O723 2.395 . S
Dy713 O724 2.379 . S
Dy713 O727 2.339 . S
Dy713 C743 2.738 . S
C714 O726 1.254 . S
C714 O727 1.257 . S
O715 Dy712 2.307 1_655 S
O715 C725 1.266 . S
O716 Dy713 2.298 1_655 S
O716 C725 1.236 . S
O717 Dy712 2.395 . S
O717 C734 1.255 . S
O718 Dy712 2.379 . S
O718 C734 1.249 . S
O719 Dy713 2.275 . S
O719 C735 1.254 . S
O720 Dy712 2.339 . S
O720 C735 1.257 . S
O721 Dy713 2.307 . S
O721 C736 1.266 . S
O722 Dy712 2.298 . S
O722 C736 1.236 . S
O723 Dy713 2.395 . S
O723 C743 1.255 . S
O724 Dy713 2.379 . S
O724 C743 1.249 . S
C725 O715 1.266 . S
C725 O716 1.236 . S
O726 Dy712 2.275 . S
O726 C714 1.254 . S
O727 Dy713 2.339 . S
O727 C714 1.257 . S
C728 C731 1.344 . S
C728 C732 1.328 . S
C728 C734 1.516 . S
C729 C730 1.304 . S
C729 C733 1.323 . S
C730 C729 1.304 . S
C730 C731 1.371 . S
C730 H744 0.930 . S
C731 C728 1.344 . S
C731 C730 1.371 . S
C731 H745 0.931 . S
C732 C728 1.328 . S
C732 C733 1.433 . S
C732 H746 0.931 . S
C733 C729 1.323 . S
C733 C732 1.433 . S
C733 H747 0.933 . S
C734 Dy712 2.738 . S
C734 O717 1.255 . S
C734 O718 1.249 . S
C734 C728 1.516 . S
C735 O719 1.254 . S
C735 O720 1.257 . S
C736 O721 1.266 . S
C736 O722 1.236 . S
C737 C740 1.344 . S
C737 C741 1.328 . S
C737 C743 1.516 1_655 S
C738 C739 1.304 . S
C738 C742 1.323 . S
C739 C738 1.304 . S
C739 C740 1.371 . S
C739 H748 0.930 . S
C740 C737 1.344 . S
C740 C739 1.371 . S
C740 H749 0.931 . S
C741 C737 1.328 . S
C741 C742 1.433 . S
C741 H750 0.931 1_655 S
C742 C738 1.323 . S
C742 C741 1.433 . S
C742 H751 0.933 . S
C743 Dy713 2.738 . S
C743 O723 1.255 . S
C743 O724 1.249 . S
C743 C737 1.516 1_455 S
H744 C730 0.930 . S
H745 C731 0.931 . S
H746 C732 0.931 . S
H747 C733 0.933 . S
H748 C739 0.930 . S
H749 C740 0.931 . S
H750 C741 0.931 1_455 S
H751 C742 0.933 . S
Dy752 O755 2.307 . S
Dy752 O757 2.395 . S
Dy752 O758 2.379 . S
Dy752 O760 2.339 . S
Dy752 O762 2.298 . S
Dy752 O766 2.275 . S
Dy752 C774 2.738 . S
Dy753 O756 2.298 . S
Dy753 O759 2.275 . S
Dy753 O761 2.307 . S
Dy753 O763 2.395 . S
Dy753 O764 2.379 . S
Dy753 O767 2.339 . S
Dy753 C783 2.738 . S
C754 O766 1.254 . S
C754 O767 1.257 . S
O755 Dy752 2.307 . S
O755 C765 1.266 . S
O756 Dy753 2.298 . S
O756 C765 1.236 . S
O757 Dy752 2.395 . S
O757 C774 1.255 . S
O758 Dy752 2.379 . S
O758 C774 1.249 . S
O759 Dy753 2.275 . S
O759 C775 1.254 . S
O760 Dy752 2.339 . S
O760 C775 1.257 . S
O761 Dy753 2.307 . S
O761 C776 1.266 . S
O762 Dy752 2.298 . S
O762 C776 1.236 . S
O763 Dy753 2.395 . S
O763 C783 1.255 . S
O764 Dy753 2.379 . S
O764 C783 1.249 . S
C765 O755 1.266 . S
C765 O756 1.236 . S
O766 Dy752 2.275 . S
O766 C754 1.254 . S
O767 Dy753 2.339 . S
O767 C754 1.257 . S
C768 C771 1.344 . S
C768 C772 1.328 . S
C768 C774 1.516 . S
C769 C770 1.304 . S
C769 C773 1.323 . S
C770 C769 1.304 . S
C770 C771 1.371 . S
C770 H784 0.930 . S
C771 C768 1.344 . S
C771 C770 1.371 . S
C771 H785 0.931 . S
C772 C768 1.328 . S
C772 C773 1.433 . S
C772 H786 0.931 . S
C773 C769 1.323 . S
C773 C772 1.433 . S
C773 H787 0.933 . S
C774 Dy752 2.738 . S
C774 O757 1.255 . S
C774 O758 1.249 . S
C774 C768 1.516 . S
C775 O759 1.254 . S
C775 O760 1.257 . S
C776 O761 1.266 . S
C776 O762 1.236 . S
C777 C780 1.344 . S
C777 C781 1.328 . S
C777 C783 1.516 . S
C778 C779 1.304 . S
C778 C782 1.323 . S
C779 C778 1.304 . S
C779 C780 1.371 . S
C779 H788 0.930 . S
C780 C777 1.344 . S
C780 C779 1.371 . S
C780 H789 0.931 . S
C781 C777 1.328 . S
C781 C782 1.433 . S
C781 H790 0.931 . S
C782 C778 1.323 . S
C782 C781 1.433 . S
C782 H791 0.933 . S
C783 Dy753 2.738 . S
C783 O763 1.255 . S
C783 O764 1.249 . S
C783 C777 1.516 . S
H784 C770 0.930 . S
H785 C771 0.931 . S
H786 C772 0.931 . S
H787 C773 0.933 . S
H788 C779 0.930 . S
H789 C780 0.931 . S
H790 C781 0.931 . S
H791 C782 0.933 . S
Dy792 O795 2.307 . S
Dy792 O797 2.395 . S
Dy792 O798 2.379 . S
Dy792 O800 2.339 . S
Dy792 O802 2.298 . S
Dy792 O806 2.275 . S
Dy792 C814 2.738 . S
Dy793 O796 2.298 . S
Dy793 O799 2.275 . S
Dy793 O801 2.307 . S
Dy793 O803 2.395 . S
Dy793 O804 2.379 . S
Dy793 O807 2.339 . S
Dy793 C823 2.738 . S
C794 O806 1.254 . S
C794 O807 1.257 . S
O795 Dy792 2.307 . S
O795 C805 1.266 . S
O796 Dy793 2.298 . S
O796 C805 1.236 . S
O797 Dy792 2.395 . S
O797 C814 1.255 . S
O798 Dy792 2.379 . S
O798 C814 1.249 . S
O799 Dy793 2.275 . S
O799 C815 1.254 . S
O800 Dy792 2.339 . S
O800 C815 1.257 . S
O801 Dy793 2.307 . S
O801 C816 1.266 . S
O802 Dy792 2.298 . S
O802 C816 1.236 . S
O803 Dy793 2.395 . S
O803 C823 1.255 . S
O804 Dy793 2.379 . S
O804 C823 1.249 . S
C805 O795 1.266 . S
C805 O796 1.236 . S
O806 Dy792 2.275 . S
O806 C794 1.254 . S
O807 Dy793 2.339 . S
O807 C794 1.257 . S
C808 C811 1.344 . S
C808 C812 1.328 . S
C808 C814 1.516 . S
C809 C810 1.304 . S
C809 C813 1.323 . S
C810 C809 1.304 . S
C810 C811 1.371 . S
C810 H824 0.930 . S
C811 C808 1.344 . S
C811 C810 1.371 . S
C811 H825 0.931 . S
C812 C808 1.328 . S
C812 C813 1.433 . S
C812 H826 0.931 . S
C813 C809 1.323 . S
C813 C812 1.433 . S
C813 H827 0.933 . S
C814 Dy792 2.738 . S
C814 O797 1.255 . S
C814 O798 1.249 . S
C814 C808 1.516 . S
C815 O799 1.254 . S
C815 O800 1.257 . S
C816 O801 1.266 . S
C816 O802 1.236 . S
C817 C820 1.344 . S
C817 C821 1.328 . S
C817 C823 1.516 . S
C818 C819 1.304 . S
C818 C822 1.323 . S
C819 C818 1.304 . S
C819 C820 1.371 . S
C819 H828 0.930 . S
C820 C817 1.344 . S
C820 C819 1.371 . S
C820 H829 0.931 . S
C821 C817 1.328 . S
C821 C822 1.433 . S
C821 H830 0.931 . S
C822 C818 1.323 . S
C822 C821 1.433 . S
C822 H831 0.933 . S
C823 Dy793 2.738 . S
C823 O803 1.255 . S
C823 O804 1.249 . S
C823 C817 1.516 . S
H824 C810 0.930 . S
H825 C811 0.931 . S
H826 C812 0.931 . S
H827 C813 0.933 . S
H828 C819 0.930 . S
H829 C820 0.931 . S
H830 C821 0.931 . S
H831 C822 0.933 . S
Dy832 O835 2.307 . S
Dy832 O837 2.395 . S
Dy832 O838 2.379 . S
Dy832 O840 2.339 . S
Dy832 O842 2.298 . S
Dy832 O846 2.275 . S
Dy832 C854 2.738 . S
Dy833 O836 2.298 . S
Dy833 O839 2.275 . S
Dy833 O841 2.307 . S
Dy833 O843 2.395 . S
Dy833 O844 2.379 . S
Dy833 O847 2.339 . S
Dy833 C863 2.738 . S
C834 O846 1.254 . S
C834 O847 1.257 . S
O835 Dy832 2.307 . S
O835 C845 1.266 . S
O836 Dy833 2.298 . S
O836 C845 1.236 . S
O837 Dy832 2.395 . S
O837 C854 1.255 . S
O838 Dy832 2.379 . S
O838 C854 1.249 . S
O839 Dy833 2.275 . S
O839 C855 1.254 . S
O840 Dy832 2.339 . S
O840 C855 1.257 . S
O841 Dy833 2.307 . S
O841 C856 1.266 . S
O842 Dy832 2.298 . S
O842 C856 1.236 . S
O843 Dy833 2.395 . S
O843 C863 1.255 . S
O844 Dy833 2.379 . S
O844 C863 1.249 . S
C845 O835 1.266 . S
C845 O836 1.236 . S
O846 Dy832 2.275 . S
O846 C834 1.254 . S
O847 Dy833 2.339 . S
O847 C834 1.257 . S
C848 C851 1.344 . S
C848 C852 1.328 . S
C848 C854 1.516 . S
C849 C850 1.304 . S
C849 C853 1.323 . S
C850 C849 1.304 . S
C850 C851 1.371 . S
C850 H864 0.930 . S
C851 C848 1.344 . S
C851 C850 1.371 . S
C851 H865 0.931 . S
C852 C848 1.328 . S
C852 C853 1.433 . S
C852 H866 0.931 . S
C853 C849 1.323 . S
C853 C852 1.433 . S
C853 H867 0.933 . S
C854 Dy832 2.738 . S
C854 O837 1.255 . S
C854 O838 1.249 . S
C854 C848 1.516 . S
C855 O839 1.254 . S
C855 O840 1.257 . S
C856 O841 1.266 . S
C856 O842 1.236 . S
C857 C860 1.344 . S
C857 C861 1.328 . S
C857 C863 1.516 . S
C858 C859 1.304 . S
C858 C862 1.323 . S
C859 C858 1.304 . S
C859 C860 1.371 . S
C859 H868 0.930 . S
C860 C857 1.344 . S
C860 C859 1.371 . S
C860 H869 0.931 . S
C861 C857 1.328 . S
C861 C862 1.433 . S
C861 H870 0.931 . S
C862 C858 1.323 . S
C862 C861 1.433 . S
C862 H871 0.933 . S
C863 Dy833 2.738 . S
C863 O843 1.255 . S
C863 O844 1.249 . S
C863 C857 1.516 . S
H864 C850 0.930 . S
H865 C851 0.931 . S
H866 C852 0.931 . S
H867 C853 0.933 . S
H868 C859 0.930 . S
H869 C860 0.931 . S
H870 C861 0.931 . S
H871 C862 0.933 . S
Dy872 O875 2.307 . S
Dy872 O877 2.395 . S
Dy872 O878 2.379 . S
Dy872 O880 2.339 . S
Dy872 O882 2.298 . S
Dy872 O886 2.275 . S
Dy872 C894 2.738 . S
Dy873 O876 2.298 . S
Dy873 O879 2.275 . S
Dy873 O881 2.307 . S
Dy873 O883 2.395 . S
Dy873 O884 2.379 . S
Dy873 O887 2.339 . S
Dy873 C903 2.738 . S
C874 O886 1.254 . S
C874 O887 1.257 . S
O875 Dy872 2.307 . S
O875 C885 1.266 . S
O876 Dy873 2.298 . S
O876 C885 1.236 . S
O877 Dy872 2.395 . S
O877 C894 1.255 . S
O878 Dy872 2.379 . S
O878 C894 1.249 . S
O879 Dy873 2.275 . S
O879 C895 1.254 . S
O880 Dy872 2.339 . S
O880 C895 1.257 . S
O881 Dy873 2.307 . S
O881 C896 1.266 . S
O882 Dy872 2.298 . S
O882 C896 1.236 . S
O883 Dy873 2.395 . S
O883 C903 1.255 . S
O884 Dy873 2.379 . S
O884 C903 1.249 . S
C885 O875 1.266 . S
C885 O876 1.236 . S
O886 Dy872 2.275 . S
O886 C874 1.254 . S
O887 Dy873 2.339 . S
O887 C874 1.257 . S
C888 C891 1.344 . S
C888 C892 1.328 . S
C888 C894 1.516 . S
C889 C890 1.304 . S
C889 C893 1.323 . S
C890 C889 1.304 . S
C890 C891 1.371 . S
C890 H904 0.930 . S
C891 C888 1.344 . S
C891 C890 1.371 . S
C891 H905 0.931 . S
C892 C888 1.328 . S
C892 C893 1.433 . S
C892 H906 0.931 . S
C893 C889 1.323 . S
C893 C892 1.433 . S
C893 H907 0.933 . S
C894 Dy872 2.738 . S
C894 O877 1.255 . S
C894 O878 1.249 . S
C894 C888 1.516 . S
C895 O879 1.254 . S
C895 O880 1.257 . S
C896 O881 1.266 . S
C896 O882 1.236 . S
C897 C900 1.344 . S
C897 C901 1.328 . S
C897 C903 1.516 . S
C898 C899 1.304 . S
C898 C902 1.323 . S
C899 C898 1.304 . S
C899 C900 1.371 . S
C899 H908 0.930 . S
C900 C897 1.344 . S
C900 C899 1.371 . S
C900 H909 0.931 . S
C901 C897 1.328 . S
C901 C902 1.433 . S
C901 H910 0.931 . S
C902 C898 1.323 . S
C902 C901 1.433 . S
C902 H911 0.933 . S
C903 Dy873 2.738 . S
C903 O883 1.255 . S
C903 O884 1.249 . S
C903 C897 1.516 . S
H904 C890 0.930 . S
H905 C891 0.931 . S
H906 C892 0.931 . S
H907 C893 0.933 . S
H908 C899 0.930 . S
H909 C900 0.931 . S
H910 C901 0.931 . S
H911 C902 0.933 . S
Dy912 O915 2.307 . S
Dy912 O917 2.395 1_455 S
Dy912 O918 2.379 1_455 S
Dy912 O920 2.339 . S
Dy912 O922 2.298 . S
Dy912 O926 2.234 1_554 S
Dy912 C934 2.738 1_455 S
Dy913 O916 2.298 . S
Dy913 O919 2.275 . S
Dy913 O921 2.307 . S
Dy913 O923 2.395 . S
Dy913 O924 2.379 1_554 S
Dy913 O927 2.339 1_554 S
Dy913 C943 2.738 . S
C914 O926 1.296 . S
C914 O927 1.257 . S
O915 Dy912 2.307 . S
O915 C925 1.266 . S
O916 Dy913 2.298 . S
O916 C925 1.236 . S
O917 Dy912 2.395 1_655 S
O917 C934 1.255 . S
O918 Dy912 2.379 1_655 S
O918 C934 1.249 . S
O919 Dy913 2.275 . S
O919 C935 1.254 . S
O920 Dy912 2.339 . S
O920 C935 1.257 . S
O921 Dy913 2.307 . S
O921 C936 1.266 . S
O922 Dy912 2.298 . S
O922 C936 1.236 . S
O923 Dy913 2.395 . S
O923 C943 1.255 . S
O924 Dy913 2.379 1_556 S
O924 C943 1.249 1_556 S
C925 O915 1.266 . S
C925 O916 1.236 . S
O926 Dy912 2.234 1_556 S
O926 C914 1.296 . S
O927 Dy913 2.339 1_556 S
O927 C914 1.257 . S
C928 C931 1.344 . S
C928 C932 1.328 . S
C928 C934 1.516 . S
C929 C930 1.304 . S
C929 C933 1.323 . S
C930 C929 1.304 . S
C930 C931 1.371 . S
C930 H944 0.930 . S
C931 C928 1.344 . S
C931 C930 1.371 . S
C931 H945 0.931 . S
C932 C928 1.328 . S
C932 C933 1.433 . S
C932 H946 0.931 . S
C933 C929 1.323 . S
C933 C932 1.433 . S
C933 H947 0.933 . S
C934 Dy912 2.738 1_655 S
C934 O917 1.255 . S
C934 O918 1.249 . S
C934 C928 1.516 . S
C935 O919 1.254 . S
C935 O920 1.257 . S
C936 O921 1.266 . S
C936 O922 1.236 . S
C937 C940 1.344 1_556 S
C937 C941 1.328 . S
C937 C943 1.516 1_556 S
C938 C939 1.304 1_556 S
C938 C942 1.323 . S
C939 C938 1.304 1_554 S
C939 C940 1.371 . S
C939 H948 0.930 . S
C940 C937 1.344 1_554 S
C940 C939 1.371 . S
C940 H949 0.931 . S
C941 C937 1.328 . S
C941 C942 1.433 . S
C941 H950 0.931 . S
C942 C938 1.323 . S
C942 C941 1.433 . S
C942 H951 0.933 . S
C943 Dy913 2.738 . S
C943 O923 1.255 . S
C943 O924 1.249 1_554 S
C943 C937 1.516 1_554 S
H944 C930 0.930 . S
H945 C931 0.931 . S
H946 C932 0.931 . S
H947 C933 0.933 . S
H948 C939 0.930 . S
H949 C940 0.931 . S
H950 C941 0.931 . S
H951 C942 0.933 . S
H952 C960 0.903 1_554 S
H953 C962 0.930 1_554 S
H954 C964 0.930 . S
H955 C967 0.929 . S
H956 C970 0.930 . S
H957 C972 0.960 . S
H958 C972 0.960 1_554 S
H959 C972 0.960 . S
C960 H952 0.903 1_556 S
C960 C961 1.377 . S
C960 C962 1.384 . S
C961 C960 1.377 . S
C961 C967 1.390 1_655 S
C962 H953 0.930 1_556 S
C962 C960 1.384 . S
C962 C963 1.372 1_655 S
C963 C962 1.372 1_455 S
C963 C964 1.400 . S
C963 C968 1.490 . S
C964 H954 0.930 . S
C964 C963 1.400 . S
C964 C967 1.386 . S
H965 C981 0.930 . S
H966 C982 0.931 . S
C967 H955 0.929 . S
C967 C961 1.390 1_455 S
C967 C964 1.386 . S
C968 C963 1.490 . S
C968 C970 1.395 1_455 S
C968 C971 1.403 . S
H969 C975 0.933 . S
C970 H956 0.930 . S
C970 C968 1.395 1_655 S
C970 C973 1.403 . S
C971 C968 1.403 . S
C971 C972 1.524 . S
C971 C975 1.400 . S
C972 H957 0.960 . S
C972 H958 0.960 1_556 S
C972 H959 0.960 . S
C972 C971 1.524 . S
C973 C970 1.403 . S
C973 C974 1.392 1_656 S
C973 C977 1.497 1_556 S
C974 C973 1.392 1_454 S
C974 C975 1.385 1_554 S
C974 C976 1.478 . S
C975 H969 0.933 . S
C975 C971 1.400 . S
C975 C974 1.385 1_556 S
C976 C974 1.478 . S
C976 C978 1.381 . S
C976 C982 1.383 1_554 S
C977 C973 1.497 1_554 S
C977 H983 0.960 1_554 S
C977 H984 0.965 1_554 S
C977 H985 0.954 . S
C978 C976 1.381 . S
C978 C979 1.394 . S
C978 H986 0.930 . S
C979 C978 1.394 . S
C979 C980 1.383 . S
C979 H987 0.929 . S
C980 C979 1.383 . S
C980 C981 1.377 1_554 S
C981 H965 0.930 . S
C981 C980 1.377 1_556 S
C981 C982 1.379 . S
C982 H966 0.931 . S
C982 C976 1.383 1_556 S
C982 C981 1.379 . S
H983 C977 0.960 1_556 S
H984 C977 0.965 1_556 S
H985 C977 0.954 . S
H986 C978 0.930 . S
H987 C979 0.929 . S
H988 C996 0.929 . S
H989 C998 0.930 . S
H990 C1000 0.930 . S
H991 C1003 0.929 . S
H992 C1006 0.930 . S
H993 C1008 0.960 . S
H994 C1008 0.960 . S
H995 C1008 0.960 . S
C996 H988 0.929 . S
C996 C997 1.377 . S
C996 C998 1.384 . S
C997 C996 1.377 . S
C997 C1003 1.390 . S
C998 H989 0.930 . S
C998 C996 1.384 . S
C998 C999 1.372 . S
C999 C998 1.372 . S
C999 C1000 1.400 . S
C999 C1004 1.490 . S
C1000 H990 0.930 . S
C1000 C999 1.400 . S
C1000 C1003 1.386 . S
H1001 C1017 0.930 . S
H1002 C1018 0.931 . S
C1003 H991 0.929 . S
C1003 C997 1.390 . S
C1003 C1000 1.386 . S
C1004 C999 1.490 . S
C1004 C1006 1.395 . S
C1004 C1007 1.403 . S
H1005 C1011 0.930 . S
C1006 H992 0.930 . S
C1006 C1004 1.395 . S
C1006 C1009 1.403 . S
C1007 C1004 1.403 . S
C1007 C1008 1.524 . S
C1007 C1011 1.400 . S
C1008 H993 0.960 . S
C1008 H994 0.960 . S
C1008 H995 0.960 . S
C1008 C1007 1.524 . S
C1009 C1006 1.403 . S
C1009 C1010 1.392 . S
C1009 C1013 1.495 . S
C1010 C1009 1.392 . S
C1010 C1011 1.385 . S
C1010 C1012 1.478 . S
C1011 H1005 0.930 . S
C1011 C1007 1.400 . S
C1011 C1010 1.385 . S
C1012 C1010 1.478 . S
C1012 C1014 1.381 . S
C1012 C1018 1.383 . S
C1013 C1009 1.495 . S
C1013 H1019 0.959 . S
C1013 H1020 0.961 . S
C1013 H1021 0.960 . S
C1014 C1012 1.381 . S
C1014 C1015 1.394 . S
C1014 H1022 0.930 . S
C1015 C1014 1.394 . S
C1015 C1016 1.383 . S
C1015 H1023 0.929 . S
C1016 C1015 1.383 . S
C1016 C1017 1.377 . S
C1017 H1001 0.930 . S
C1017 C1016 1.377 . S
C1017 C1018 1.379 . S
C1018 H1002 0.931 . S
C1018 C1012 1.383 . S
C1018 C1017 1.379 . S
H1019 C1013 0.959 . S
H1020 C1013 0.961 . S
H1021 C1013 0.960 . S
H1022 C1014 0.930 . S
H1023 C1015 0.929 . S
H1024 C1032 0.929 . S
H1025 C1034 0.930 . S
H1026 C1036 0.930 . S
H1027 C1039 0.929 . S
H1028 C1042 0.930 . S
H1029 C1044 0.960 . S
H1030 C1044 0.960 . S
H1031 C1044 0.960 . S
C1032 H1024 0.929 . S
C1032 C1033 1.377 . S
C1032 C1034 1.384 . S
C1033 C1032 1.377 . S
C1033 C1039 1.390 . S
C1034 H1025 0.930 . S
C1034 C1032 1.384 . S
C1034 C1035 1.372 . S
C1035 C1034 1.372 . S
C1035 C1036 1.400 . S
C1035 C1040 1.490 . S
C1036 H1026 0.930 . S
C1036 C1035 1.400 . S
C1036 C1039 1.386 . S
H1037 C1053 0.930 . S
H1038 C1054 0.931 . S
C1039 H1027 0.929 . S
C1039 C1033 1.390 . S
C1039 C1036 1.386 . S
C1040 C1035 1.490 . S
C1040 C1042 1.395 . S
C1040 C1043 1.403 . S
H1041 C1047 0.930 . S
C1042 H1028 0.930 . S
C1042 C1040 1.395 . S
C1042 C1045 1.403 . S
C1043 C1040 1.403 . S
C1043 C1044 1.524 . S
C1043 C1047 1.400 . S
C1044 H1029 0.960 . S
C1044 H1030 0.960 . S
C1044 H1031 0.960 . S
C1044 C1043 1.524 . S
C1045 C1042 1.403 . S
C1045 C1046 1.392 . S
C1045 C1049 1.495 . S
C1046 C1045 1.392 . S
C1046 C1047 1.385 . S
C1046 C1048 1.478 . S
C1047 H1041 0.930 . S
C1047 C1043 1.400 . S
C1047 C1046 1.385 . S
C1048 C1046 1.478 . S
C1048 C1050 1.381 . S
C1048 C1054 1.383 . S
C1049 C1045 1.495 . S
C1049 H1055 0.959 . S
C1049 H1056 0.961 . S
C1049 H1057 0.960 . S
C1050 C1048 1.381 . S
C1050 C1051 1.394 . S
C1050 H1058 0.930 . S
C1051 C1050 1.394 . S
C1051 C1052 1.383 . S
C1051 H1059 0.929 . S
C1052 C1051 1.383 . S
C1052 C1053 1.377 . S
C1053 H1037 0.930 . S
C1053 C1052 1.377 . S
C1053 C1054 1.379 . S
C1054 H1038 0.931 . S
C1054 C1048 1.383 . S
C1054 C1053 1.379 . S
H1055 C1049 0.959 . S
H1056 C1049 0.961 . S
H1057 C1049 0.960 . S
H1058 C1050 0.930 . S
H1059 C1051 0.929 . S
H1060 C1068 0.929 . S
H1061 C1070 0.930 . S
H1062 C1072 0.930 . S
H1063 C1075 0.929 . S
H1064 C1078 0.930 . S
H1065 C1080 0.960 . S
H1066 C1080 0.960 . S
H1067 C1080 0.960 . S
C1068 H1060 0.929 . S
C1068 C1069 1.377 . S
C1068 C1070 1.384 . S
C1069 C1068 1.377 . S
C1069 C1075 1.390 . S
C1070 H1061 0.930 . S
C1070 C1068 1.384 . S
C1070 C1071 1.372 . S
C1071 C1070 1.372 . S
C1071 C1072 1.400 . S
C1071 C1076 1.490 . S
C1072 H1062 0.930 . S
C1072 C1071 1.400 . S
C1072 C1075 1.386 . S
H1073 C1089 0.930 . S
H1074 C1090 0.931 . S
C1075 H1063 0.929 . S
C1075 C1069 1.390 . S
C1075 C1072 1.386 . S
C1076 C1071 1.490 . S
C1076 C1078 1.395 . S
C1076 C1079 1.403 . S
H1077 C1083 0.930 . S
C1078 H1064 0.930 . S
C1078 C1076 1.395 . S
C1078 C1081 1.403 . S
C1079 C1076 1.403 . S
C1079 C1080 1.524 . S
C1079 C1083 1.400 . S
C1080 H1065 0.960 . S
C1080 H1066 0.960 . S
C1080 H1067 0.960 . S
C1080 C1079 1.524 . S
C1081 C1078 1.403 . S
C1081 C1082 1.392 . S
C1081 C1085 1.495 . S
C1082 C1081 1.392 . S
C1082 C1083 1.385 . S
C1082 C1084 1.478 . S
C1083 H1077 0.930 . S
C1083 C1079 1.400 . S
C1083 C1082 1.385 . S
C1084 C1082 1.478 . S
C1084 C1086 1.381 . S
C1084 C1090 1.383 . S
C1085 C1081 1.495 . S
C1085 H1091 0.959 . S
C1085 H1092 0.961 . S
C1085 H1093 0.960 . S
C1086 C1084 1.381 . S
C1086 C1087 1.394 . S
C1086 H1094 0.930 . S
C1087 C1086 1.394 . S
C1087 C1088 1.383 . S
C1087 H1095 0.929 . S
C1088 C1087 1.383 . S
C1088 C1089 1.377 . S
C1089 H1073 0.930 . S
C1089 C1088 1.377 . S
C1089 C1090 1.379 . S
C1090 H1074 0.931 . S
C1090 C1084 1.383 . S
C1090 C1089 1.379 . S
H1091 C1085 0.959 . S
H1092 C1085 0.961 . S
H1093 C1085 0.960 . S
H1094 C1086 0.930 . S
H1095 C1087 0.929 . S
H1096 C1104 0.929 . S
H1097 C1106 0.930 . S
H1098 C1108 0.930 . S
H1099 C1111 0.940 . S
H1100 C1114 0.930 . S
H1101 C1116 0.960 . S
H1102 C1116 0.960 . S
H1103 C1116 0.960 . S
C1104 H1096 0.929 . S
C1104 C1105 1.377 . S
C1104 C1106 1.384 . S
C1105 C1104 1.377 . S
C1105 C1111 1.390 . S
C1106 H1097 0.930 . S
C1106 C1104 1.384 . S
C1106 C1107 1.372 . S
C1107 C1106 1.372 . S
C1107 C1108 1.400 . S
C1107 C1112 1.490 . S
C1108 H1098 0.930 . S
C1108 C1107 1.400 . S
C1108 C1111 1.386 . S
H1109 C1125 0.930 . S
H1110 C1126 0.931 . S
C1111 H1099 0.940 . S
C1111 C1105 1.390 . S
C1111 C1108 1.386 . S
C1112 C1107 1.490 . S
C1112 C1114 1.395 . S
C1112 C1115 1.403 . S
H1113 C1119 0.930 . S
C1114 H1100 0.930 . S
C1114 C1112 1.395 . S
C1114 C1117 1.403 . S
C1115 C1112 1.403 . S
C1115 C1116 1.524 . S
C1115 C1119 1.400 . S
C1116 H1101 0.960 . S
C1116 H1102 0.960 . S
C1116 H1103 0.960 . S
C1116 C1115 1.524 . S
C1117 C1114 1.403 . S
C1117 C1118 1.392 . S
C1117 C1121 1.495 . S
C1118 C1117 1.392 . S
C1118 C1119 1.385 . S
C1118 C1120 1.478 . S
C1119 H1113 0.930 . S
C1119 C1115 1.400 . S
C1119 C1118 1.385 . S
C1120 C1118 1.478 . S
C1120 C1122 1.381 . S
C1120 C1126 1.383 . S
C1121 C1117 1.495 . S
C1121 H1127 0.959 . S
C1121 H1128 0.961 . S
C1121 H1129 0.960 . S
C1122 C1120 1.381 . S
C1122 C1123 1.394 . S
C1122 H1130 0.930 . S
C1123 C1122 1.394 . S
C1123 C1124 1.383 . S
C1123 H1131 0.929 . S
C1124 C1123 1.383 . S
C1124 C1125 1.377 . S
C1125 H1109 0.930 . S
C1125 C1124 1.377 . S
C1125 C1126 1.379 . S
C1126 H1110 0.931 . S
C1126 C1120 1.383 . S
C1126 C1125 1.379 . S
H1127 C1121 0.959 . S
H1128 C1121 0.961 . S
H1129 C1121 0.960 . S
H1130 C1122 0.930 . S
H1131 C1123 0.929 . S
H1132 C1140 0.929 . S
H1133 C1142 0.930 . S
H1134 C1144 0.930 . S
H1135 C1147 0.929 . S
H1136 C1150 0.930 . S
H1137 C1152 0.960 . S
H1138 C1152 0.960 . S
H1139 C1152 0.960 . S
C1140 H1132 0.929 . S
C1140 C1141 1.377 . S
C1140 C1142 1.384 . S
C1141 C1140 1.377 . S
C1141 C1147 1.390 . S
C1142 H1133 0.930 . S
C1142 C1140 1.384 . S
C1142 C1143 1.372 . S
C1143 C1142 1.372 . S
C1143 C1144 1.400 . S
C1143 C1148 1.490 . S
C1144 H1134 0.930 . S
C1144 C1143 1.400 . S
C1144 C1147 1.386 . S
H1145 C1161 0.930 . S
H1146 C1162 0.931 . S
C1147 H1135 0.929 . S
C1147 C1141 1.390 . S
C1147 C1144 1.386 . S
C1148 C1143 1.490 . S
C1148 C1150 1.395 . S
C1148 C1151 1.403 . S
H1149 C1155 0.930 . S
C1150 H1136 0.930 . S
C1150 C1148 1.395 . S
C1150 C1153 1.403 . S
C1151 C1148 1.403 . S
C1151 C1152 1.524 . S
C1151 C1155 1.400 . S
C1152 H1137 0.960 . S
C1152 H1138 0.960 . S
C1152 H1139 0.960 . S
C1152 C1151 1.524 . S
C1153 C1150 1.403 . S
C1153 C1154 1.392 . S
C1153 C1157 1.495 . S
C1154 C1153 1.392 . S
C1154 C1155 1.385 . S
C1154 C1156 1.478 . S
C1155 H1149 0.930 . S
C1155 C1151 1.400 . S
C1155 C1154 1.385 . S
C1156 C1154 1.478 . S
C1156 C1158 1.381 . S
C1156 C1162 1.383 . S
C1157 C1153 1.495 . S
C1157 H1163 0.959 . S
C1157 H1164 0.961 . S
C1157 H1165 0.960 . S
C1158 C1156 1.381 . S
C1158 C1159 1.394 . S
C1158 H1166 0.930 . S
C1159 C1158 1.394 . S
C1159 C1160 1.383 . S
C1159 H1167 0.929 . S
C1160 C1159 1.383 . S
C1160 C1161 1.377 . S
C1161 H1145 0.930 . S
C1161 C1160 1.377 . S
C1161 C1162 1.379 . S
C1162 H1146 0.931 . S
C1162 C1156 1.383 . S
C1162 C1161 1.379 . S
H1163 C1157 0.959 . S
H1164 C1157 0.961 . S
H1165 C1157 0.960 . S
H1166 C1158 0.930 . S
H1167 C1159 0.929 . S
H1168 C1176 0.929 . S
H1169 C1178 0.930 . S
H1170 C1180 0.930 . S
H1171 C1183 0.929 . S
H1172 C1186 0.930 . S
H1173 C1188 0.960 . S
H1174 C1188 0.960 . S
H1175 C1188 0.960 . S
C1176 H1168 0.929 . S
C1176 C1177 1.377 . S
C1176 C1178 1.384 . S
C1177 C1176 1.377 . S
C1177 C1183 1.390 . S
C1178 H1169 0.930 . S
C1178 C1176 1.384 . S
C1178 C1179 1.372 . S
C1179 C1178 1.372 . S
C1179 C1180 1.400 . S
C1179 C1184 1.490 . S
C1180 H1170 0.930 . S
C1180 C1179 1.400 . S
C1180 C1183 1.386 . S
H1181 C1197 0.930 . S
H1182 C1198 0.931 . S
C1183 H1171 0.929 . S
C1183 C1177 1.390 . S
C1183 C1180 1.386 . S
C1184 C1179 1.490 . S
C1184 C1186 1.395 . S
C1184 C1187 1.403 . S
H1185 C1191 0.930 . S
C1186 H1172 0.930 . S
C1186 C1184 1.395 . S
C1186 C1189 1.403 . S
C1187 C1184 1.403 . S
C1187 C1188 1.524 . S
C1187 C1191 1.400 . S
C1188 H1173 0.960 . S
C1188 H1174 0.960 . S
C1188 H1175 0.960 . S
C1188 C1187 1.524 . S
C1189 C1186 1.403 . S
C1189 C1190 1.392 . S
C1189 C1193 1.495 . S
C1190 C1189 1.392 . S
C1190 C1191 1.385 . S
C1190 C1192 1.478 . S
C1191 H1185 0.930 . S
C1191 C1187 1.400 . S
C1191 C1190 1.385 . S
C1192 C1190 1.478 . S
C1192 C1194 1.381 . S
C1192 C1198 1.383 . S
C1193 C1189 1.495 . S
C1193 H1199 0.959 . S
C1193 H1200 0.961 . S
C1193 H1201 0.960 . S
C1194 C1192 1.381 . S
C1194 C1195 1.394 . S
C1194 H1202 0.930 . S
C1195 C1194 1.394 . S
C1195 C1196 1.383 . S
C1195 H1203 0.929 . S
C1196 C1195 1.383 . S
C1196 C1197 1.377 . S
C1197 H1181 0.930 . S
C1197 C1196 1.377 . S
C1197 C1198 1.379 . S
C1198 H1182 0.931 . S
C1198 C1192 1.383 . S
C1198 C1197 1.379 . S
H1199 C1193 0.959 . S
H1200 C1193 0.961 . S
H1201 C1193 0.960 . S
H1202 C1194 0.930 . S
H1203 C1195 0.929 . S
H1204 C1212 0.929 . S
H1205 C1214 0.930 . S
H1206 C1216 0.930 . S
H1207 C1219 0.929 . S
H1208 C1222 0.930 . S
H1209 C1224 0.960 . S
H1210 C1224 0.960 . S
H1211 C1224 0.960 . S
C1212 H1204 0.929 . S
C1212 C1213 1.377 . S
C1212 C1214 1.384 . S
C1213 C1212 1.377 . S
C1213 C1219 1.390 . S
C1214 H1205 0.930 . S
C1214 C1212 1.384 . S
C1214 C1215 1.372 . S
C1215 C1214 1.372 . S
C1215 C1216 1.400 . S
C1215 C1220 1.490 . S
C1216 H1206 0.930 . S
C1216 C1215 1.400 . S
C1216 C1219 1.386 . S
H1217 C1233 0.930 . S
H1218 C1234 0.931 . S
C1219 H1207 0.929 . S
C1219 C1213 1.390 . S
C1219 C1216 1.386 . S
C1220 C1215 1.490 . S
C1220 C1222 1.395 . S
C1220 C1223 1.403 . S
H1221 C1227 0.930 . S
C1222 H1208 0.930 . S
C1222 C1220 1.395 . S
C1222 C1225 1.403 . S
C1223 C1220 1.403 . S
C1223 C1224 1.524 . S
C1223 C1227 1.400 . S
C1224 H1209 0.960 . S
C1224 H1210 0.960 . S
C1224 H1211 0.960 . S
C1224 C1223 1.524 . S
C1225 C1222 1.403 . S
C1225 C1226 1.392 . S
C1225 C1229 1.495 . S
C1226 C1225 1.392 . S
C1226 C1227 1.385 . S
C1226 C1228 1.478 . S
C1227 H1221 0.930 . S
C1227 C1223 1.400 . S
C1227 C1226 1.385 . S
C1228 C1226 1.478 . S
C1228 C1230 1.381 . S
C1228 C1234 1.383 . S
C1229 C1225 1.495 . S
C1229 H1235 0.959 . S
C1229 H1236 0.961 . S
C1229 H1237 0.960 . S
C1230 C1228 1.381 . S
C1230 C1231 1.394 . S
C1230 H1238 0.930 . S
C1231 C1230 1.394 . S
C1231 C1232 1.383 . S
C1231 H1239 0.929 . S
C1232 C1231 1.383 . S
C1232 C1233 1.377 . S
C1233 H1217 0.930 . S
C1233 C1232 1.377 . S
C1233 C1234 1.379 . S
C1234 H1218 0.931 . S
C1234 C1228 1.383 . S
C1234 C1233 1.379 . S
H1235 C1229 0.959 . S
H1236 C1229 0.961 . S
H1237 C1229 0.960 . S
H1238 C1230 0.930 . S
H1239 C1231 0.929 . S
H1240 C1248 0.929 . S
H1241 C1250 0.930 . S
H1242 C1252 0.930 . S
H1243 C1255 0.929 . S
H1244 C1258 0.930 . S
H1245 C1260 0.960 . S
H1246 C1260 0.960 . S
H1247 C1260 0.960 . S
C1248 H1240 0.929 . S
C1248 C1249 1.377 . S
C1248 C1250 1.384 . S
C1249 C1248 1.377 . S
C1249 C1255 1.390 . S
C1250 H1241 0.930 . S
C1250 C1248 1.384 . S
C1250 C1251 1.372 . S
C1251 C1250 1.372 . S
C1251 C1252 1.400 . S
C1251 C1256 1.490 . S
C1252 H1242 0.930 . S
C1252 C1251 1.400 . S
C1252 C1255 1.386 . S
H1253 C1269 0.930 . S
H1254 C1270 0.931 . S
C1255 H1243 0.929 . S
C1255 C1249 1.390 . S
C1255 C1252 1.386 . S
C1256 C1251 1.490 . S
C1256 C1258 1.395 . S
C1256 C1259 1.403 . S
H1257 C1263 0.930 1_455 S
C1258 H1244 0.930 . S
C1258 C1256 1.395 . S
C1258 C1261 1.403 . S
C1259 C1256 1.403 . S
C1259 C1260 1.524 1_655 S
C1259 C1263 1.400 . S
C1260 H1245 0.960 . S
C1260 H1246 0.960 . S
C1260 H1247 0.960 . S
C1260 C1259 1.524 1_455 S
C1261 C1258 1.403 . S
C1261 C1262 1.392 . S
C1261 C1265 1.495 . S
C1262 C1261 1.392 . S
C1262 C1263 1.385 . S
C1262 C1264 1.478 . S
C1263 H1257 0.930 1_655 S
C1263 C1259 1.400 . S
C1263 C1262 1.385 . S
C1264 C1262 1.478 . S
C1264 C1266 1.381 . S
C1264 C1270 1.383 1_655 S
C1265 C1261 1.495 . S
C1265 H1271 0.959 . S
C1265 H1272 0.961 . S
C1265 H1273 0.960 . S
C1266 C1264 1.381 . S
C1266 C1267 1.394 . S
C1266 H1274 0.930 . S
C1267 C1266 1.394 . S
C1267 C1268 1.383 1_655 S
C1267 H1275 0.929 . S
C1268 C1267 1.383 1_455 S
C1268 C1269 1.377 . S
C1269 H1253 0.930 . S
C1269 C1268 1.377 . S
C1269 C1270 1.379 . S
C1270 H1254 0.931 . S
C1270 C1264 1.383 1_455 S
C1270 C1269 1.379 . S
H1271 C1265 0.959 . S
H1272 C1265 0.961 . S
H1273 C1265 0.960 . S
H1274 C1266 0.930 . S
H1275 C1267 0.929 . S
H1276 C1284 0.929 . S
H1277 C1286 0.930 . S
H1278 C1288 0.930 . S
H1279 C1291 0.929 . S
H1280 C1294 0.930 . S
H1281 C1296 0.960 . S
H1282 C1296 0.960 . S
H1283 C1296 0.960 . S
C1284 H1276 0.929 . S
C1284 C1285 1.377 . S
C1284 C1286 1.384 . S
C1285 C1284 1.377 . S
C1285 C1291 1.390 . S
C1286 H1277 0.930 . S
C1286 C1284 1.384 . S
C1286 C1287 1.372 . S
C1287 C1286 1.372 . S
C1287 C1288 1.400 . S
C1287 C1292 1.490 . S
C1288 H1278 0.930 . S
C1288 C1287 1.400 . S
C1288 C1291 1.386 . S
H1289 C1305 0.930 . S
H1290 C1306 0.931 . S
C1291 H1279 0.929 . S
C1291 C1285 1.390 . S
C1291 C1288 1.386 . S
C1292 C1287 1.490 . S
C1292 C1294 1.395 . S
C1292 C1295 1.403 . S
H1293 C1299 0.930 . S
C1294 H1280 0.930 . S
C1294 C1292 1.395 . S
C1294 C1297 1.403 . S
C1295 C1292 1.403 . S
C1295 C1296 1.524 . S
C1295 C1299 1.400 . S
C1296 H1281 0.960 . S
C1296 H1282 0.960 . S
C1296 H1283 0.960 . S
C1296 C1295 1.524 . S
C1297 C1294 1.403 . S
C1297 C1298 1.392 . S
C1297 C1301 1.495 . S
C1298 C1297 1.392 . S
C1298 C1299 1.385 . S
C1298 C1300 1.478 . S
C1299 H1293 0.930 . S
C1299 C1295 1.400 . S
C1299 C1298 1.385 . S
C1300 C1298 1.478 . S
C1300 C1302 1.381 . S
C1300 C1306 1.383 . S
C1301 C1297 1.495 . S
C1301 H1307 0.959 . S
C1301 H1308 0.961 . S
C1301 H1309 0.960 . S
C1302 C1300 1.381 . S
C1302 C1303 1.394 . S
C1302 H1310 0.930 . S
C1303 C1302 1.394 . S
C1303 C1304 1.383 . S
C1303 H1311 0.929 . S
C1304 C1303 1.383 . S
C1304 C1305 1.377 . S
C1305 H1289 0.930 . S
C1305 C1304 1.377 . S
C1305 C1306 1.379 . S
C1306 H1290 0.931 . S
C1306 C1300 1.383 . S
C1306 C1305 1.379 . S
H1307 C1301 0.959 . S
H1308 C1301 0.961 . S
H1309 C1301 0.960 . S
H1310 C1302 0.930 . S
H1311 C1303 0.929 . S
H1312 C1320 0.929 . S
H1313 C1322 0.930 . S
H1314 C1324 0.930 . S
H1315 C1327 0.929 . S
H1316 C1330 0.930 . S
H1317 C1332 0.960 . S
H1318 C1332 0.960 . S
H1319 C1332 0.960 . S
C1320 H1312 0.929 . S
C1320 C1321 1.377 . S
C1320 C1322 1.384 . S
C1321 C1320 1.377 . S
C1321 C1327 1.390 . S
C1322 H1313 0.930 . S
C1322 C1320 1.384 . S
C1322 C1323 1.372 . S
C1323 C1322 1.372 . S
C1323 C1324 1.400 . S
C1323 C1328 1.490 . S
C1324 H1314 0.930 . S
C1324 C1323 1.400 . S
C1324 C1327 1.386 . S
H1325 C1341 0.930 . S
H1326 C1342 0.931 . S
C1327 H1315 0.929 . S
C1327 C1321 1.390 . S
C1327 C1324 1.386 . S
C1328 C1323 1.490 . S
C1328 C1330 1.395 . S
C1328 C1331 1.403 . S
H1329 C1335 0.930 . S
C1330 H1316 0.930 . S
C1330 C1328 1.395 . S
C1330 C1333 1.403 . S
C1331 C1328 1.403 . S
C1331 C1332 1.524 . S
C1331 C1335 1.400 . S
C1332 H1317 0.960 . S
C1332 H1318 0.960 . S
C1332 H1319 0.960 . S
C1332 C1331 1.524 . S
C1333 C1330 1.403 . S
C1333 C1334 1.392 . S
C1333 C1337 1.495 . S
C1334 C1333 1.392 . S
C1334 C1335 1.385 . S
C1334 C1336 1.478 . S
C1335 H1329 0.930 . S
C1335 C1331 1.400 . S
C1335 C1334 1.385 . S
C1336 C1334 1.478 . S
C1336 C1338 1.381 . S
C1336 C1342 1.383 . S
C1337 C1333 1.495 . S
C1337 H1343 0.959 . S
C1337 H1344 0.961 . S
C1337 H1345 0.960 . S
C1338 C1336 1.381 . S
C1338 C1339 1.394 . S
C1338 H1346 0.930 . S
C1339 C1338 1.394 . S
C1339 C1340 1.383 . S
C1339 H1347 0.929 . S
C1340 C1339 1.383 . S
C1340 C1341 1.377 . S
C1341 H1325 0.930 . S
C1341 C1340 1.377 . S
C1341 C1342 1.379 . S
C1342 H1326 0.931 . S
C1342 C1336 1.383 . S
C1342 C1341 1.379 . S
H1343 C1337 0.959 . S
H1344 C1337 0.961 . S
H1345 C1337 0.960 . S
H1346 C1338 0.930 . S
H1347 C1339 0.929 . S
H1348 C1356 0.929 . S
H1349 C1358 0.930 . S
H1350 C1360 0.930 . S
H1351 C1363 0.929 . S
H1352 C1366 0.930 . S
H1353 C1368 0.960 . S
H1354 C1368 0.960 . S
H1355 C1368 0.960 . S
C1356 H1348 0.929 . S
C1356 C1357 1.377 . S
C1356 C1358 1.384 . S
C1357 C1356 1.377 . S
C1357 C1363 1.390 . S
C1358 H1349 0.930 . S
C1358 C1356 1.384 . S
C1358 C1359 1.372 . S
C1359 C1358 1.372 . S
C1359 C1360 1.400 . S
C1359 C1364 1.490 . S
C1360 H1350 0.930 . S
C1360 C1359 1.400 . S
C1360 C1363 1.386 . S
H1361 C1377 0.930 . S
H1362 C1378 0.931 . S
C1363 H1351 0.929 . S
C1363 C1357 1.390 . S
C1363 C1360 1.386 . S
C1364 C1359 1.490 . S
C1364 C1366 1.395 . S
C1364 C1367 1.403 . S
H1365 C1371 0.930 . S
C1366 H1352 0.930 . S
C1366 C1364 1.395 . S
C1366 C1369 1.403 . S
C1367 C1364 1.403 . S
C1367 C1368 1.524 . S
C1367 C1371 1.400 . S
C1368 H1353 0.960 . S
C1368 H1354 0.960 . S
C1368 H1355 0.960 . S
C1368 C1367 1.524 . S
C1369 C1366 1.403 . S
C1369 C1370 1.392 . S
C1369 C1373 1.495 . S
C1370 C1369 1.392 . S
C1370 C1371 1.385 . S
C1370 C1372 1.478 . S
C1371 H1365 0.930 . S
C1371 C1367 1.400 . S
C1371 C1370 1.385 . S
C1372 C1370 1.478 . S
C1372 C1374 1.381 . S
C1372 C1378 1.383 . S
C1373 C1369 1.495 . S
C1373 H1379 0.959 . S
C1373 H1380 0.961 . S
C1373 H1381 0.960 . S
C1374 C1372 1.381 . S
C1374 C1375 1.394 . S
C1374 H1382 0.930 . S
C1375 C1374 1.394 . S
C1375 C1376 1.383 . S
C1375 H1383 0.929 . S
C1376 C1375 1.383 . S
C1376 C1377 1.377 . S
C1377 H1361 0.930 . S
C1377 C1376 1.377 . S
C1377 C1378 1.379 . S
C1378 H1362 0.931 . S
C1378 C1372 1.383 . S
C1378 C1377 1.379 . S
H1379 C1373 0.959 . S
H1380 C1373 0.961 . S
H1381 C1373 0.960 . S
H1382 C1374 0.930 . S
H1383 C1375 0.929 . S
H1384 C1392 0.929 . S
H1385 C1394 0.930 . S
H1386 C1396 0.930 . S
H1387 C1399 0.929 . S
H1388 C1402 0.930 . S
H1389 C1404 0.960 . S
H1390 C1404 0.960 . S
H1391 C1404 0.960 . S
C1392 H1384 0.929 . S
C1392 C1393 1.377 . S
C1392 C1394 1.384 . S
C1393 C1392 1.377 . S
C1393 C1399 1.390 . S
C1394 H1385 0.930 . S
C1394 C1392 1.384 . S
C1394 C1395 1.372 . S
C1395 C1394 1.372 . S
C1395 C1396 1.400 . S
C1395 C1400 1.490 . S
C1396 H1386 0.930 . S
C1396 C1395 1.400 . S
C1396 C1399 1.386 . S
H1397 C1413 0.930 . S
H1398 C1414 0.931 . S
C1399 H1387 0.929 . S
C1399 C1393 1.390 . S
C1399 C1396 1.386 . S
C1400 C1395 1.490 . S
C1400 C1402 1.395 . S
C1400 C1403 1.403 . S
H1401 C1407 0.883 1_455 S
C1402 H1388 0.930 . S
C1402 C1400 1.395 . S
C1402 C1405 1.403 . S
C1403 C1400 1.403 . S
C1403 C1404 1.524 1_655 S
C1403 C1407 1.414 . S
C1404 H1389 0.960 . S
C1404 H1390 0.960 . S
C1404 H1391 0.960 . S
C1404 C1403 1.524 1_455 S
C1405 C1402 1.403 . S
C1405 C1406 1.392 . S
C1405 C1409 1.495 . S
C1406 C1405 1.392 . S
C1406 C1407 1.420 . S
C1406 C1408 1.478 . S
C1407 H1401 0.883 1_655 S
C1407 C1403 1.414 . S
C1407 C1406 1.420 . S
C1408 C1406 1.478 . S
C1408 C1410 1.381 . S
C1408 C1414 1.383 1_655 S
C1409 C1405 1.495 . S
C1409 H1415 0.959 . S
C1409 H1416 0.961 1_545 S
C1409 H1417 0.960 . S
C1410 C1408 1.381 . S
C1410 C1411 1.394 . S
C1410 H1418 0.930 . S
C1411 C1410 1.394 . S
C1411 C1412 1.383 1_655 S
C1411 H1419 0.929 . S
C1412 C1411 1.383 1_455 S
C1412 C1413 1.377 . S
C1413 H1397 0.930 . S
C1413 C1412 1.377 . S
C1413 C1414 1.379 . S
C1414 H1398 0.931 . S
C1414 C1408 1.383 1_455 S
C1414 C1413 1.379 . S
H1415 C1409 0.959 . S
H1416 C1409 0.961 1_565 S
H1417 C1409 0.960 . S
H1418 C1410 0.930 . S
H1419 C1411 0.929 . S
H1420 C1428 0.929 . S
H1421 C1430 0.930 . S
H1422 C1432 0.930 . S
H1423 C1435 0.929 . S
H1424 C1438 0.930 . S
H1425 C1440 0.960 . S
H1426 C1440 0.960 . S
H1427 C1440 0.960 . S
C1428 H1420 0.929 . S
C1428 C1429 1.377 . S
C1428 C1430 1.384 . S
C1429 C1428 1.377 . S
C1429 C1435 1.390 . S
C1430 H1421 0.930 . S
C1430 C1428 1.384 . S
C1430 C1431 1.372 . S
C1431 C1430 1.372 . S
C1431 C1432 1.400 . S
C1431 C1436 1.490 . S
C1432 H1422 0.930 . S
C1432 C1431 1.400 . S
C1432 C1435 1.386 . S
H1433 C1449 0.930 . S
H1434 C1450 0.931 . S
C1435 H1423 0.929 . S
C1435 C1429 1.390 . S
C1435 C1432 1.386 . S
C1436 C1431 1.490 . S
C1436 C1438 1.395 . S
C1436 C1439 1.403 . S
H1437 C1443 0.930 . S
C1438 H1424 0.930 . S
C1438 C1436 1.395 . S
C1438 C1441 1.403 . S
C1439 C1436 1.403 . S
C1439 C1440 1.524 . S
C1439 C1443 1.400 . S
C1440 H1425 0.960 . S
C1440 H1426 0.960 . S
C1440 H1427 0.960 . S
C1440 C1439 1.524 . S
C1441 C1438 1.403 . S
C1441 C1442 1.392 . S
C1441 C1445 1.495 . S
C1442 C1441 1.392 . S
C1442 C1443 1.385 . S
C1442 C1444 1.478 . S
C1443 H1437 0.930 . S
C1443 C1439 1.400 . S
C1443 C1442 1.385 . S
C1444 C1442 1.478 . S
C1444 C1446 1.381 . S
C1444 C1450 1.383 . S
C1445 C1441 1.495 . S
C1445 H1451 0.959 . S
C1445 H1452 0.961 . S
C1445 H1453 0.960 . S
C1446 C1444 1.381 . S
C1446 C1447 1.394 . S
C1446 H1454 0.930 . S
C1447 C1446 1.394 . S
C1447 C1448 1.383 . S
C1447 H1455 0.929 . S
C1448 C1447 1.383 . S
C1448 C1449 1.377 . S
C1449 H1433 0.930 . S
C1449 C1448 1.377 . S
C1449 C1450 1.379 . S
C1450 H1434 0.931 . S
C1450 C1444 1.383 . S
C1450 C1449 1.379 . S
H1451 C1445 0.959 . S
H1452 C1445 0.961 . S
H1453 C1445 0.960 . S
H1454 C1446 0.930 . S
H1455 C1447 0.929 . S
H1456 C1464 0.929 . S
H1457 C1466 0.930 . S
H1458 C1468 0.930 . S
H1459 C1471 0.929 . S
H1460 C1474 0.930 . S
H1461 C1476 0.960 . S
H1462 C1476 0.960 . S
H1463 C1476 0.960 . S
C1464 H1456 0.929 . S
C1464 C1465 1.377 . S
C1464 C1466 1.384 . S
C1465 C1464 1.377 . S
C1465 C1471 1.390 . S
C1466 H1457 0.930 . S
C1466 C1464 1.384 . S
C1466 C1467 1.372 . S
C1467 C1466 1.372 . S
C1467 C1468 1.400 . S
C1467 C1472 1.490 . S
C1468 H1458 0.930 . S
C1468 C1467 1.400 . S
C1468 C1471 1.386 . S
H1469 C1485 0.930 . S
H1470 C1486 0.931 . S
C1471 H1459 0.929 . S
C1471 C1465 1.390 . S
C1471 C1468 1.386 . S
C1472 C1467 1.490 . S
C1472 C1474 1.395 . S
C1472 C1475 1.403 . S
H1473 C1479 0.930 . S
C1474 H1460 0.930 . S
C1474 C1472 1.395 . S
C1474 C1477 1.403 . S
C1475 C1472 1.403 . S
C1475 C1476 1.524 . S
C1475 C1479 1.400 . S
C1476 H1461 0.960 . S
C1476 H1462 0.960 . S
C1476 H1463 0.960 . S
C1476 C1475 1.524 . S
C1477 C1474 1.403 . S
C1477 C1478 1.392 . S
C1477 C1481 1.495 . S
C1478 C1477 1.392 . S
C1478 C1479 1.385 . S
C1478 C1480 1.478 . S
C1479 H1473 0.930 . S
C1479 C1475 1.400 . S
C1479 C1478 1.385 . S
C1480 C1478 1.478 . S
C1480 C1482 1.381 . S
C1480 C1486 1.383 . S
C1481 C1477 1.495 . S
C1481 H1487 0.959 . S
C1481 H1488 0.961 . S
C1481 H1489 0.960 . S
C1482 C1480 1.381 . S
C1482 C1483 1.394 . S
C1482 H1490 0.930 . S
C1483 C1482 1.394 . S
C1483 C1484 1.383 . S
C1483 H1491 0.929 . S
C1484 C1483 1.383 . S
C1484 C1485 1.377 . S
C1485 H1469 0.930 . S
C1485 C1484 1.377 . S
C1485 C1486 1.379 . S
C1486 H1470 0.931 . S
C1486 C1480 1.383 . S
C1486 C1485 1.379 . S
H1487 C1481 0.959 . S
H1488 C1481 0.961 . S
H1489 C1481 0.960 . S
H1490 C1482 0.930 . S
H1491 C1483 0.929 . S
H1492 C1500 0.929 . S
H1493 C1502 0.930 . S
H1494 C1504 0.930 . S
H1495 C1507 0.929 . S
H1496 C1510 0.930 . S
H1497 C1512 0.960 . S
H1498 C1512 0.960 . S
H1499 C1512 0.960 . S
C1500 H1492 0.929 . S
C1500 C1501 1.377 . S
C1500 C1502 1.384 . S
C1501 C1500 1.377 . S
C1501 C1507 1.390 . S
C1502 H1493 0.930 . S
C1502 C1500 1.384 . S
C1502 C1503 1.372 . S
C1503 C1502 1.372 . S
C1503 C1504 1.400 . S
C1503 C1508 1.490 . S
C1504 H1494 0.930 . S
C1504 C1503 1.400 . S
C1504 C1507 1.386 . S
H1505 C1521 0.930 . S
H1506 C1522 0.931 . S
C1507 H1495 0.929 . S
C1507 C1501 1.390 . S
C1507 C1504 1.386 . S
C1508 C1503 1.490 . S
C1508 C1510 1.395 . S
C1508 C1511 1.403 . S
H1509 C1515 0.930 . S
C1510 H1496 0.930 . S
C1510 C1508 1.395 . S
C1510 C1513 1.403 . S
C1511 C1508 1.403 . S
C1511 C1512 1.524 . S
C1511 C1515 1.400 . S
C1512 H1497 0.960 . S
C1512 H1498 0.960 . S
C1512 H1499 0.960 . S
C1512 C1511 1.524 . S
C1513 C1510 1.403 . S
C1513 C1514 1.392 . S
C1513 C1517 1.495 . S
C1514 C1513 1.392 . S
C1514 C1515 1.385 . S
C1514 C1516 1.478 . S
C1515 H1509 0.930 . S
C1515 C1511 1.400 . S
C1515 C1514 1.385 . S
C1516 C1514 1.478 . S
C1516 C1518 1.381 . S
C1516 C1522 1.383 . S
C1517 C1513 1.495 . S
C1517 H1523 0.959 . S
C1517 H1524 0.961 . S
C1517 H1525 0.960 . S
C1518 C1516 1.381 . S
C1518 C1519 1.394 . S
C1518 H1526 0.930 . S
C1519 C1518 1.394 . S
C1519 C1520 1.383 . S
C1519 H1527 0.929 . S
C1520 C1519 1.383 . S
C1520 C1521 1.377 . S
C1521 H1505 0.930 . S
C1521 C1520 1.377 . S
C1521 C1522 1.379 . S
C1522 H1506 0.931 . S
C1522 C1516 1.383 . S
C1522 C1521 1.379 . S
H1523 C1517 0.959 . S
H1524 C1517 0.961 . S
H1525 C1517 0.960 . S
H1526 C1518 0.930 . S
H1527 C1519 0.929 . S
H1528 C1536 0.929 . S
H1529 C1538 0.930 . S
H1530 C1540 0.930 . S
H1531 C1543 0.929 . S
H1532 C1546 0.930 . S
H1533 C1548 0.960 . S
H1534 C1548 0.960 1_556 S
H1535 C1548 0.960 . S
C1536 H1528 0.929 . S
C1536 C1537 1.377 . S
C1536 C1538 1.384 . S
C1537 C1536 1.377 . S
C1537 C1543 1.390 1_556 S
C1538 H1529 0.930 . S
C1538 C1536 1.384 . S
C1538 C1539 1.372 1_556 S
C1539 C1538 1.372 1_554 S
C1539 C1540 1.400 . S
C1539 C1544 1.490 . S
C1540 H1530 0.930 . S
C1540 C1539 1.400 . S
C1540 C1543 1.386 . S
H1541 C1557 0.930 . S
H1542 C1558 0.931 . S
C1543 H1531 0.929 . S
C1543 C1537 1.390 1_554 S
C1543 C1540 1.386 . S
C1544 C1539 1.490 . S
C1544 C1546 1.395 . S
C1544 C1547 1.403 . S
H1545 C1551 0.930 . S
C1546 H1532 0.930 . S
C1546 C1544 1.395 . S
C1546 C1549 1.403 . S
C1547 C1544 1.403 . S
C1547 C1548 1.524 . S
C1547 C1551 1.400 . S
C1548 H1533 0.960 . S
C1548 H1534 0.960 1_554 S
C1548 H1535 0.960 . S
C1548 C1547 1.524 . S
C1549 C1546 1.403 . S
C1549 C1550 1.392 . S
C1549 C1553 1.495 . S
C1550 C1549 1.392 . S
C1550 C1551 1.385 . S
C1550 C1552 1.478 . S
C1551 H1545 0.930 . S
C1551 C1547 1.400 . S
C1551 C1550 1.385 . S
C1552 C1550 1.478 . S
C1552 C1554 1.381 . S
C1552 C1558 1.383 . S
C1553 C1549 1.495 . S
C1553 H1559 0.959 . S
C1553 H1560 0.961 . S
C1553 H1561 0.960 . S
C1554 C1552 1.381 . S
C1554 C1555 1.394 . S
C1554 H1562 0.930 . S
C1555 C1554 1.394 . S
C1555 C1556 1.383 . S
C1555 H1563 0.929 . S
C1556 C1555 1.383 . S
C1556 C1557 1.377 1_565 S
C1557 H1541 0.930 . S
C1557 C1556 1.377 1_545 S
C1557 C1558 1.379 1_545 S
C1558 H1542 0.931 . S
C1558 C1552 1.383 . S
C1558 C1557 1.379 1_565 S
H1559 C1553 0.959 . S
H1560 C1553 0.961 . S
H1561 C1553 0.960 . S
H1562 C1554 0.930 . S
H1563 C1555 0.929 . S
H1564 C1572 0.929 . S
H1565 C1574 0.930 . S
H1566 C1576 0.942 . S
H1567 C1579 0.929 . S
H1568 C1582 0.930 . S
H1569 C1584 0.960 . S
H1570 C1584 0.960 1_554 S
H1571 C1584 0.960 . S
C1572 H1564 0.929 . S
C1572 C1573 1.377 . S
C1572 C1574 1.384 . S
C1573 C1572 1.377 . S
C1573 C1579 1.390 1_554 S
C1574 H1565 0.930 . S
C1574 C1572 1.384 . S
C1574 C1575 1.372 . S
C1575 C1574 1.372 . S
C1575 C1576 1.385 1_554 S
C1575 C1580 1.490 . S
C1576 H1566 0.942 . S
C1576 C1575 1.385 1_556 S
C1576 C1579 1.389 . S
H1577 C1593 0.930 1_556 S
H1578 C1594 0.931 1_556 S
C1579 H1567 0.929 . S
C1579 C1573 1.390 1_556 S
C1579 C1576 1.389 . S
C1580 C1575 1.490 . S
C1580 C1582 1.395 . S
C1580 C1583 1.403 . S
H1581 C1587 0.930 . S
C1582 H1568 0.930 . S
C1582 C1580 1.395 . S
C1582 C1585 1.403 . S
C1583 C1580 1.403 . S
C1583 C1584 1.524 1_554 S
C1583 C1587 1.400 . S
C1584 H1569 0.960 . S
C1584 H1570 0.960 1_556 S
C1584 H1571 0.960 . S
C1584 C1583 1.524 1_556 S
C1585 C1582 1.403 . S
C1585 C1586 1.392 . S
C1585 C1589 1.495 . S
C1586 C1585 1.392 . S
C1586 C1587 1.385 . S
C1586 C1588 1.478 . S
C1587 H1581 0.930 . S
C1587 C1583 1.400 . S
C1587 C1586 1.385 . S
C1588 C1586 1.478 . S
C1588 C1590 1.381 . S
C1588 C1594 1.383 . S
C1589 C1585 1.495 . S
C1589 H1595 0.959 . S
C1589 H1596 0.961 . S
C1589 H1597 0.960 . S
C1590 C1588 1.381 . S
C1590 C1591 1.394 . S
C1590 H1598 0.930 . S
C1591 C1590 1.394 . S
C1591 C1592 1.383 . S
C1591 H1599 0.929 . S
C1592 C1591 1.383 . S
C1592 C1593 1.377 . S
C1593 H1577 0.930 1_554 S
C1593 C1592 1.377 . S
C1593 C1594 1.379 . S
C1594 H1578 0.931 1_554 S
C1594 C1588 1.383 . S
C1594 C1593 1.379 . S
H1595 C1589 0.959 . S
H1596 C1589 0.961 . S
H1597 C1589 0.960 . S
H1598 C1590 0.930 . S
H1599 C1591 0.929 . S
H1600 C1608 0.929 . S
H1601 C1610 0.930 . S
H1602 C1612 0.930 . S
H1603 C1615 0.929 . S
H1604 C1618 0.930 . S
H1605 C1620 0.960 . S
H1606 C1620 0.960 . S
H1607 C1620 0.960 . S
C1608 H1600 0.929 . S
C1608 C1609 1.377 . S
C1608 C1610 1.384 . S
C1609 C1608 1.377 . S
C1609 C1615 1.390 . S
C1610 H1601 0.930 . S
C1610 C1608 1.384 . S
C1610 C1611 1.372 . S
C1611 C1610 1.372 . S
C1611 C1612 1.400 . S
C1611 C1616 1.490 . S
C1612 H1602 0.930 . S
C1612 C1611 1.400 . S
C1612 C1615 1.386 . S
H1613 C1629 0.930 . S
H1614 C1630 0.931 . S
C1615 H1603 0.929 . S
C1615 C1609 1.390 . S
C1615 C1612 1.386 . S
C1616 C1611 1.490 . S
C1616 C1618 1.395 . S
C1616 C1619 1.403 . S
H1617 C1623 0.930 . S
C1618 H1604 0.930 . S
C1618 C1616 1.395 . S
C1618 C1621 1.403 . S
C1619 C1616 1.403 . S
C1619 C1620 1.524 . S
C1619 C1623 1.400 . S
C1620 H1605 0.960 . S
C1620 H1606 0.960 . S
C1620 H1607 0.960 . S
C1620 C1619 1.524 . S
C1621 C1618 1.403 . S
C1621 C1622 1.392 . S
C1621 C1625 1.495 . S
C1622 C1621 1.392 . S
C1622 C1623 1.385 . S
C1622 C1624 1.478 . S
C1623 H1617 0.930 . S
C1623 C1619 1.400 . S
C1623 C1622 1.385 . S
C1624 C1622 1.478 . S
C1624 C1626 1.381 . S
C1624 C1630 1.383 . S
C1625 C1621 1.495 . S
C1625 H1631 0.959 . S
C1625 H1632 0.961 . S
C1625 H1633 0.960 . S
C1626 C1624 1.381 . S
C1626 C1627 1.394 . S
C1626 H1634 0.930 . S
C1627 C1626 1.394 . S
C1627 C1628 1.383 . S
C1627 H1635 0.929 . S
C1628 C1627 1.383 . S
C1628 C1629 1.377 . S
C1629 H1613 0.930 . S
C1629 C1628 1.377 . S
C1629 C1630 1.379 . S
C1630 H1614 0.931 . S
C1630 C1624 1.383 . S
C1630 C1629 1.379 . S
H1631 C1625 0.959 . S
H1632 C1625 0.961 . S
H1633 C1625 0.960 . S
H1634 C1626 0.930 . S
H1635 C1627 0.929 . S
H1636 C1644 0.929 . S
H1637 C1646 0.930 . S
H1638 C1648 0.930 . S
H1639 C1651 0.929 . S
H1640 C1654 0.930 . S
H1641 C1656 0.960 . S
H1642 C1656 0.960 . S
H1643 C1656 0.960 . S
C1644 H1636 0.929 . S
C1644 C1645 1.377 . S
C1644 C1646 1.384 . S
C1645 C1644 1.377 . S
C1645 C1651 1.390 . S
C1646 H1637 0.930 . S
C1646 C1644 1.384 . S
C1646 C1647 1.372 . S
C1647 C1646 1.372 . S
C1647 C1648 1.400 . S
C1647 C1652 1.490 . S
C1648 H1638 0.930 . S
C1648 C1647 1.400 . S
C1648 C1651 1.386 . S
H1649 C1665 0.930 . S
H1650 C1666 0.931 . S
C1651 H1639 0.929 . S
C1651 C1645 1.390 . S
C1651 C1648 1.386 . S
C1652 C1647 1.490 . S
C1652 C1654 1.395 . S
C1652 C1655 1.403 . S
H1653 C1659 0.930 . S
C1654 H1640 0.930 . S
C1654 C1652 1.395 . S
C1654 C1657 1.403 . S
C1655 C1652 1.403 . S
C1655 C1656 1.524 . S
C1655 C1659 1.400 . S
C1656 H1641 0.960 . S
C1656 H1642 0.960 . S
C1656 H1643 0.960 . S
C1656 C1655 1.524 . S
C1657 C1654 1.403 . S
C1657 C1658 1.392 . S
C1657 C1661 1.495 . S
C1658 C1657 1.392 . S
C1658 C1659 1.385 . S
C1658 C1660 1.478 . S
C1659 H1653 0.930 . S
C1659 C1655 1.400 . S
C1659 C1658 1.385 . S
C1660 C1658 1.478 . S
C1660 C1662 1.381 . S
C1660 C1666 1.383 . S
C1661 C1657 1.495 . S
C1661 H1667 0.959 . S
C1661 H1668 0.961 . S
C1661 H1669 0.960 . S
C1662 C1660 1.381 . S
C1662 C1663 1.394 . S
C1662 H1670 0.930 . S
C1663 C1662 1.394 . S
C1663 C1664 1.383 . S
C1663 H1671 0.929 . S
C1664 C1663 1.383 . S
C1664 C1665 1.377 . S
C1665 H1649 0.930 . S
C1665 C1664 1.377 . S
C1665 C1666 1.379 . S
C1666 H1650 0.931 . S
C1666 C1660 1.383 . S
C1666 C1665 1.379 . S
H1667 C1661 0.959 . S
H1668 C1661 0.961 . S
H1669 C1661 0.960 . S
H1670 C1662 0.930 . S
H1671 C1663 0.929 . S
H1672 C1680 0.929 . S
H1673 C1682 0.930 . S
H1674 C1684 0.930 . S
H1675 C1687 0.929 . S
H1676 C1690 0.930 . S
H1677 C1692 0.960 . S
H1678 C1692 0.960 . S
H1679 C1692 0.960 . S
C1680 H1672 0.929 . S
C1680 C1681 1.377 . S
C1680 C1682 1.384 . S
C1681 C1680 1.377 . S
C1681 C1687 1.390 . S
C1682 H1673 0.930 . S
C1682 C1680 1.384 . S
C1682 C1683 1.372 . S
C1683 C1682 1.372 . S
C1683 C1684 1.400 . S
C1683 C1688 1.490 . S
C1684 H1674 0.930 . S
C1684 C1683 1.400 . S
C1684 C1687 1.386 . S
H1685 C1701 0.930 . S
H1686 C1702 0.931 . S
C1687 H1675 0.929 . S
C1687 C1681 1.390 . S
C1687 C1684 1.386 . S
C1688 C1683 1.490 . S
C1688 C1690 1.395 . S
C1688 C1691 1.403 . S
H1689 C1695 0.930 . S
C1690 H1676 0.930 . S
C1690 C1688 1.395 . S
C1690 C1693 1.403 . S
C1691 C1688 1.403 . S
C1691 C1692 1.524 . S
C1691 C1695 1.400 . S
C1692 H1677 0.960 . S
C1692 H1678 0.960 . S
C1692 H1679 0.960 . S
C1692 C1691 1.524 . S
C1693 C1690 1.403 . S
C1693 C1694 1.392 . S
C1693 C1697 1.495 . S
C1694 C1693 1.392 . S
C1694 C1695 1.385 . S
C1694 C1696 1.478 . S
C1695 H1689 0.930 . S
C1695 C1691 1.400 . S
C1695 C1694 1.385 . S
C1696 C1694 1.478 . S
C1696 C1698 1.381 . S
C1696 C1702 1.383 . S
C1697 C1693 1.495 . S
C1697 H1703 0.959 . S
C1697 H1704 0.961 . S
C1697 H1705 0.960 . S
C1698 C1696 1.381 . S
C1698 C1699 1.394 . S
C1698 H1706 0.930 . S
C1699 C1698 1.394 . S
C1699 C1700 1.383 . S
C1699 H1707 0.929 . S
C1700 C1699 1.383 . S
C1700 C1701 1.377 . S
C1701 H1685 0.930 . S
C1701 C1700 1.377 . S
C1701 C1702 1.379 . S
C1702 H1686 0.931 . S
C1702 C1696 1.383 . S
C1702 C1701 1.379 . S
H1703 C1697 0.959 . S
H1704 C1697 0.961 . S
H1705 C1697 0.960 . S
H1706 C1698 0.930 . S
H1707 C1699 0.929 . S
H1708 C1716 0.929 . S
H1709 C1718 0.930 . S
H1710 C1720 0.930 . S
H1711 C1723 0.929 . S
H1712 C1726 0.930 . S
H1713 C1728 0.960 . S
H1714 C1728 0.960 . S
H1715 C1728 0.960 . S
C1716 H1708 0.929 . S
C1716 C1717 1.377 . S
C1716 C1718 1.384 . S
C1717 C1716 1.377 . S
C1717 C1723 1.390 . S
C1718 H1709 0.930 . S
C1718 C1716 1.384 . S
C1718 C1719 1.372 . S
C1719 C1718 1.372 . S
C1719 C1720 1.400 . S
C1719 C1724 1.490 . S
C1720 H1710 0.930 . S
C1720 C1719 1.400 . S
C1720 C1723 1.386 . S
H1721 C1737 0.930 . S
H1722 C1738 0.931 . S
C1723 H1711 0.929 . S
C1723 C1717 1.390 . S
C1723 C1720 1.386 . S
C1724 C1719 1.490 . S
C1724 C1726 1.395 . S
C1724 C1727 1.403 . S
H1725 C1731 0.930 . S
C1726 H1712 0.930 . S
C1726 C1724 1.395 . S
C1726 C1729 1.403 . S
C1727 C1724 1.403 . S
C1727 C1728 1.524 . S
C1727 C1731 1.400 . S
C1728 H1713 0.960 . S
C1728 H1714 0.960 . S
C1728 H1715 0.960 . S
C1728 C1727 1.524 . S
C1729 C1726 1.403 . S
C1729 C1730 1.392 . S
C1729 C1733 1.495 . S
C1730 C1729 1.392 . S
C1730 C1731 1.385 . S
C1730 C1732 1.478 . S
C1731 H1725 0.930 . S
C1731 C1727 1.400 . S
C1731 C1730 1.385 . S
C1732 C1730 1.478 . S
C1732 C1734 1.381 . S
C1732 C1738 1.383 . S
C1733 C1729 1.495 . S
C1733 H1739 0.959 . S
C1733 H1740 0.961 . S
C1733 H1741 0.960 . S
C1734 C1732 1.381 . S
C1734 C1735 1.394 . S
C1734 H1742 0.930 . S
C1735 C1734 1.394 . S
C1735 C1736 1.383 . S
C1735 H1743 0.929 . S
C1736 C1735 1.383 . S
C1736 C1737 1.377 . S
C1737 H1721 0.930 . S
C1737 C1736 1.377 . S
C1737 C1738 1.379 . S
C1738 H1722 0.931 . S
C1738 C1732 1.383 . S
C1738 C1737 1.379 . S
H1739 C1733 0.959 . S
H1740 C1733 0.961 . S
H1741 C1733 0.960 . S
H1742 C1734 0.930 . S
H1743 C1735 0.929 . S
H1744 C1752 0.929 . S
H1745 C1754 0.930 . S
H1746 C1756 0.930 . S
H1747 C1759 0.929 . S
H1748 C1762 0.930 . S
H1749 C1764 0.960 . S
H1750 C1764 0.960 . S
H1751 C1764 0.960 . S
C1752 H1744 0.929 . S
C1752 C1753 1.377 . S
C1752 C1754 1.384 . S
C1753 C1752 1.377 . S
C1753 C1759 1.390 . S
C1754 H1745 0.930 . S
C1754 C1752 1.384 . S
C1754 C1755 1.372 . S
C1755 C1754 1.372 . S
C1755 C1756 1.400 . S
C1755 C1760 1.490 . S
C1756 H1746 0.930 . S
C1756 C1755 1.400 . S
C1756 C1759 1.386 . S
H1757 C1773 0.930 . S
H1758 C1774 0.931 . S
C1759 H1747 0.929 . S
C1759 C1753 1.390 . S
C1759 C1756 1.386 . S
C1760 C1755 1.490 . S
C1760 C1762 1.395 . S
C1760 C1763 1.403 . S
H1761 C1767 0.930 . S
C1762 H1748 0.930 . S
C1762 C1760 1.395 . S
C1762 C1765 1.403 . S
C1763 C1760 1.403 . S
C1763 C1764 1.524 . S
C1763 C1767 1.400 . S
C1764 H1749 0.960 . S
C1764 H1750 0.960 . S
C1764 H1751 0.960 . S
C1764 C1763 1.524 . S
C1765 C1762 1.403 . S
C1765 C1766 1.392 . S
C1765 C1769 1.495 . S
C1766 C1765 1.392 . S
C1766 C1767 1.385 . S
C1766 C1768 1.478 . S
C1767 H1761 0.930 . S
C1767 C1763 1.400 . S
C1767 C1766 1.385 . S
C1768 C1766 1.478 . S
C1768 C1770 1.381 . S
C1768 C1774 1.383 . S
C1769 C1765 1.495 . S
C1769 H1775 0.959 . S
C1769 H1776 0.961 . S
C1769 H1777 0.960 . S
C1770 C1768 1.381 . S
C1770 C1771 1.394 . S
C1770 H1778 0.930 . S
C1771 C1770 1.394 . S
C1771 C1772 1.383 . S
C1771 H1779 0.929 . S
C1772 C1771 1.383 . S
C1772 C1773 1.377 . S
C1773 H1757 0.930 . S
C1773 C1772 1.377 . S
C1773 C1774 1.379 . S
C1774 H1758 0.931 . S
C1774 C1768 1.383 . S
C1774 C1773 1.379 . S
H1775 C1769 0.959 . S
H1776 C1769 0.961 . S
H1777 C1769 0.960 . S
H1778 C1770 0.930 . S
H1779 C1771 0.929 . S
H1780 C1788 0.929 . S
H1781 C1790 0.930 . S
H1782 C1792 0.930 . S
H1783 C1795 0.929 . S
H1784 C1798 0.930 . S
H1785 C1800 0.960 . S
H1786 C1800 0.960 . S
H1787 C1800 0.960 . S
C1788 H1780 0.929 . S
C1788 C1789 1.377 . S
C1788 C1790 1.384 . S
C1789 C1788 1.377 . S
C1789 C1795 1.390 . S
C1790 H1781 0.930 . S
C1790 C1788 1.384 . S
C1790 C1791 1.372 . S
C1791 C1790 1.372 . S
C1791 C1792 1.400 . S
C1791 C1796 1.490 . S
C1792 H1782 0.930 . S
C1792 C1791 1.400 . S
C1792 C1795 1.386 . S
H1793 C1809 0.930 . S
H1794 C1810 0.931 . S
C1795 H1783 0.929 . S
C1795 C1789 1.390 . S
C1795 C1792 1.386 . S
C1796 C1791 1.490 . S
C1796 C1798 1.395 . S
C1796 C1799 1.403 . S
H1797 C1803 0.930 . S
C1798 H1784 0.930 . S
C1798 C1796 1.395 . S
C1798 C1801 1.403 . S
C1799 C1796 1.403 . S
C1799 C1800 1.524 . S
C1799 C1803 1.400 . S
C1800 H1785 0.960 . S
C1800 H1786 0.960 . S
C1800 H1787 0.960 . S
C1800 C1799 1.524 . S
C1801 C1798 1.403 . S
C1801 C1802 1.392 . S
C1801 C1805 1.495 . S
C1802 C1801 1.392 . S
C1802 C1803 1.385 . S
C1802 C1804 1.478 . S
C1803 H1797 0.930 . S
C1803 C1799 1.400 . S
C1803 C1802 1.385 . S
C1804 C1802 1.478 . S
C1804 C1806 1.381 . S
C1804 C1810 1.383 . S
C1805 C1801 1.495 . S
C1805 H1811 0.959 . S
C1805 H1812 0.961 . S
C1805 H1813 0.960 . S
C1806 C1804 1.381 . S
C1806 C1807 1.394 . S
C1806 H1814 0.930 . S
C1807 C1806 1.394 . S
C1807 C1808 1.383 . S
C1807 H1815 0.929 . S
C1808 C1807 1.383 . S
C1808 C1809 1.377 . S
C1809 H1793 0.930 . S
C1809 C1808 1.377 . S
C1809 C1810 1.379 . S
C1810 H1794 0.931 . S
C1810 C1804 1.383 . S
C1810 C1809 1.379 . S
H1811 C1805 0.959 . S
H1812 C1805 0.961 . S
H1813 C1805 0.960 . S
H1814 C1806 0.930 . S
H1815 C1807 0.929 . S
H1816 C1824 0.929 . S
H1817 C1826 0.930 . S
H1818 C1828 0.930 . S
H1819 C1831 0.929 . S
H1820 C1834 0.930 . S
H1821 C1836 0.960 1_655 S
H1822 C1836 0.960 . S
H1823 C1836 0.960 . S
C1824 H1816 0.929 . S
C1824 C1825 1.377 . S
C1824 C1826 1.384 . S
C1825 C1824 1.377 . S
C1825 C1831 1.390 . S
C1826 H1817 0.930 . S
C1826 C1824 1.384 . S
C1826 C1827 1.372 . S
C1827 C1826 1.372 . S
C1827 C1828 1.400 . S
C1827 C1832 1.490 . S
C1828 H1818 0.930 . S
C1828 C1827 1.400 . S
C1828 C1831 1.386 . S
H1829 C1845 0.930 . S
H1830 C1846 0.931 . S
C1831 H1819 0.929 . S
C1831 C1825 1.390 . S
C1831 C1828 1.386 . S
C1832 C1827 1.490 . S
C1832 C1834 1.395 . S
C1832 C1835 1.403 . S
H1833 C1839 0.930 . S
C1834 H1820 0.930 . S
C1834 C1832 1.395 . S
C1834 C1837 1.403 . S
C1835 C1832 1.403 . S
C1835 C1836 1.524 . S
C1835 C1839 1.400 . S
C1836 H1821 0.960 1_455 S
C1836 H1822 0.960 . S
C1836 H1823 0.960 . S
C1836 C1835 1.524 . S
C1837 C1834 1.403 . S
C1837 C1838 1.392 . S
C1837 C1841 1.495 . S
C1838 C1837 1.392 . S
C1838 C1839 1.385 . S
C1838 C1840 1.478 . S
C1839 H1833 0.930 . S
C1839 C1835 1.400 . S
C1839 C1838 1.385 . S
C1840 C1838 1.478 . S
C1840 C1842 1.381 . S
C1840 C1846 1.383 . S
C1841 C1837 1.495 . S
C1841 H1847 0.959 . S
C1841 H1848 0.961 . S
C1841 H1849 0.960 . S
C1842 C1840 1.381 . S
C1842 C1843 1.394 . S
C1842 H1850 0.930 . S
C1843 C1842 1.394 . S
C1843 C1844 1.383 . S
C1843 H1851 0.929 . S
C1844 C1843 1.383 . S
C1844 C1845 1.377 . S
C1845 H1829 0.930 . S
C1845 C1844 1.377 . S
C1845 C1846 1.379 . S
C1846 H1830 0.931 . S
C1846 C1840 1.383 . S
C1846 C1845 1.379 . S
H1847 C1841 0.959 . S
H1848 C1841 0.961 . S
H1849 C1841 0.960 . S
H1850 C1842 0.930 . S
H1851 C1843 0.929 . S
H1852 C1860 0.929 . S
H1853 C1862 0.930 . S
H1854 C1864 0.930 . S
H1855 C1867 0.929 . S
H1856 C1870 0.930 . S
H1857 C1872 0.960 . S
H1858 C1872 0.960 . S
H1859 C1872 0.960 . S
C1860 H1852 0.929 . S
C1860 C1861 1.377 . S
C1860 C1862 1.384 . S
C1861 C1860 1.377 . S
C1861 C1867 1.390 . S
C1862 H1853 0.930 . S
C1862 C1860 1.384 . S
C1862 C1863 1.372 . S
C1863 C1862 1.372 . S
C1863 C1864 1.400 . S
C1863 C1868 1.490 . S
C1864 H1854 0.930 . S
C1864 C1863 1.400 . S
C1864 C1867 1.386 . S
H1865 C1881 0.930 . S
H1866 C1882 0.931 . S
C1867 H1855 0.929 . S
C1867 C1861 1.390 . S
C1867 C1864 1.386 . S
C1868 C1863 1.490 . S
C1868 C1870 1.395 . S
C1868 C1871 1.403 . S
H1869 C1875 0.930 . S
C1870 H1856 0.930 . S
C1870 C1868 1.395 . S
C1870 C1873 1.403 . S
C1871 C1868 1.403 . S
C1871 C1872 1.524 . S
C1871 C1875 1.400 . S
C1872 H1857 0.960 . S
C1872 H1858 0.960 . S
C1872 H1859 0.960 . S
C1872 C1871 1.524 . S
C1873 C1870 1.403 . S
C1873 C1874 1.392 . S
C1873 C1877 1.495 . S
C1874 C1873 1.392 . S
C1874 C1875 1.385 . S
C1874 C1876 1.478 . S
C1875 H1869 0.930 . S
C1875 C1871 1.400 . S
C1875 C1874 1.385 . S
C1876 C1874 1.478 . S
C1876 C1878 1.381 . S
C1876 C1882 1.383 . S
C1877 C1873 1.495 . S
C1877 H1883 0.959 . S
C1877 H1884 0.961 . S
C1877 H1885 0.960 . S
C1878 C1876 1.381 . S
C1878 C1879 1.394 . S
C1878 H1886 0.930 . S
C1879 C1878 1.394 . S
C1879 C1880 1.383 . S
C1879 H1887 0.929 . S
C1880 C1879 1.383 . S
C1880 C1881 1.377 . S
C1881 H1865 0.930 . S
C1881 C1880 1.377 . S
C1881 C1882 1.379 . S
C1882 H1866 0.931 . S
C1882 C1876 1.383 . S
C1882 C1881 1.379 . S
H1883 C1877 0.959 . S
H1884 C1877 0.961 . S
H1885 C1877 0.960 . S
H1886 C1878 0.930 . S
H1887 C1879 0.929 . S
H1888 C1896 0.929 . S
H1889 C1898 0.930 . S
H1890 C1900 0.930 . S
H1891 C1903 0.929 . S
H1892 C1906 0.930 . S
H1893 C1908 0.960 . S
H1894 C1908 0.960 . S
H1895 C1908 0.960 . S
C1896 H1888 0.929 . S
C1896 C1897 1.377 . S
C1896 C1898 1.384 . S
C1897 C1896 1.377 . S
C1897 C1903 1.390 . S
C1898 H1889 0.930 . S
C1898 C1896 1.384 . S
C1898 C1899 1.372 . S
C1899 C1898 1.372 . S
C1899 C1900 1.400 . S
C1899 C1904 1.490 . S
C1900 H1890 0.930 . S
C1900 C1899 1.400 . S
C1900 C1903 1.386 . S
H1901 C1917 0.930 . S
H1902 C1918 0.931 . S
C1903 H1891 0.929 . S
C1903 C1897 1.390 . S
C1903 C1900 1.386 . S
C1904 C1899 1.490 . S
C1904 C1906 1.395 . S
C1904 C1907 1.403 . S
H1905 C1911 0.930 . S
C1906 H1892 0.930 . S
C1906 C1904 1.395 . S
C1906 C1909 1.403 . S
C1907 C1904 1.403 . S
C1907 C1908 1.524 . S
C1907 C1911 1.400 . S
C1908 H1893 0.960 . S
C1908 H1894 0.960 . S
C1908 H1895 0.960 . S
C1908 C1907 1.524 . S
C1909 C1906 1.403 . S
C1909 C1910 1.392 . S
C1909 C1913 1.495 . S
C1910 C1909 1.392 . S
C1910 C1911 1.385 . S
C1910 C1912 1.478 . S
C1911 H1905 0.930 . S
C1911 C1907 1.400 . S
C1911 C1910 1.385 . S
C1912 C1910 1.478 . S
C1912 C1914 1.381 . S
C1912 C1918 1.383 . S
C1913 C1909 1.495 . S
C1913 H1919 0.959 . S
C1913 H1920 0.961 . S
C1913 H1921 0.960 . S
C1914 C1912 1.381 . S
C1914 C1915 1.394 . S
C1914 H1922 0.930 . S
C1915 C1914 1.394 . S
C1915 C1916 1.383 . S
C1915 H1923 0.929 . S
C1916 C1915 1.383 . S
C1916 C1917 1.377 . S
C1917 H1901 0.930 . S
C1917 C1916 1.377 . S
C1917 C1918 1.379 . S
C1918 H1902 0.931 . S
C1918 C1912 1.383 . S
C1918 C1917 1.379 . S
H1919 C1913 0.959 . S
H1920 C1913 0.961 . S
H1921 C1913 0.960 . S
H1922 C1914 0.930 . S
H1923 C1915 0.929 . S
H1924 C1932 0.929 . S
H1925 C1934 0.930 . S
H1926 C1936 0.930 . S
H1927 C1939 0.929 . S
H1928 C1942 0.930 . S
H1929 C1944 0.960 . S
H1930 C1944 0.960 . S
H1931 C1944 0.960 . S
C1932 H1924 0.929 . S
C1932 C1933 1.377 . S
C1932 C1934 1.384 . S
C1933 C1932 1.377 . S
C1933 C1939 1.390 . S
C1934 H1925 0.930 . S
C1934 C1932 1.384 . S
C1934 C1935 1.372 . S
C1935 C1934 1.372 . S
C1935 C1936 1.400 . S
C1935 C1940 1.490 . S
C1936 H1926 0.930 . S
C1936 C1935 1.400 . S
C1936 C1939 1.386 . S
H1937 C1953 0.930 . S
H1938 C1954 0.931 . S
C1939 H1927 0.929 . S
C1939 C1933 1.390 . S
C1939 C1936 1.386 . S
C1940 C1935 1.490 . S
C1940 C1942 1.395 . S
C1940 C1943 1.403 . S
H1941 C1947 0.930 . S
C1942 H1928 0.930 . S
C1942 C1940 1.395 . S
C1942 C1945 1.403 . S
C1943 C1940 1.403 . S
C1943 C1944 1.524 . S
C1943 C1947 1.400 . S
C1944 H1929 0.960 . S
C1944 H1930 0.960 . S
C1944 H1931 0.960 . S
C1944 C1943 1.524 . S
C1945 C1942 1.403 . S
C1945 C1946 1.392 . S
C1945 C1949 1.495 . S
C1946 C1945 1.392 . S
C1946 C1947 1.385 . S
C1946 C1948 1.478 . S
C1947 H1941 0.930 . S
C1947 C1943 1.400 . S
C1947 C1946 1.385 . S
C1948 C1946 1.478 . S
C1948 C1950 1.381 . S
C1948 C1954 1.383 . S
C1949 C1945 1.495 . S
C1949 H1955 0.959 . S
C1949 H1956 0.961 . S
C1949 H1957 0.960 . S
C1950 C1948 1.381 . S
C1950 C1951 1.394 . S
C1950 H1958 0.930 . S
C1951 C1950 1.394 . S
C1951 C1952 1.383 . S
C1951 H1959 0.929 . S
C1952 C1951 1.383 . S
C1952 C1953 1.377 . S
C1953 H1937 0.930 . S
C1953 C1952 1.377 . S
C1953 C1954 1.379 . S
C1954 H1938 0.931 . S
C1954 C1948 1.383 . S
C1954 C1953 1.379 . S
H1955 C1949 0.959 . S
H1956 C1949 0.961 . S
H1957 C1949 0.960 . S
H1958 C1950 0.930 . S
H1959 C1951 0.929 . S
H1960 C1968 0.929 . S
H1961 C1970 0.930 . S
H1962 C1972 0.930 . S
H1963 C1975 0.929 . S
H1964 C1978 0.930 . S
H1965 C1980 0.960 . S
H1966 C1980 0.960 . S
H1967 C1980 0.960 . S
C1968 H1960 0.929 . S
C1968 C1969 1.377 . S
C1968 C1970 1.384 . S
C1969 C1968 1.377 . S
C1969 C1975 1.390 . S
C1970 H1961 0.930 . S
C1970 C1968 1.384 . S
C1970 C1971 1.372 . S
C1971 C1970 1.372 . S
C1971 C1972 1.400 . S
C1971 C1976 1.490 . S
C1972 H1962 0.930 . S
C1972 C1971 1.400 . S
C1972 C1975 1.386 . S
H1973 C1989 0.930 . S
H1974 C1990 0.931 . S
C1975 H1963 0.929 . S
C1975 C1969 1.390 . S
C1975 C1972 1.386 . S
C1976 C1971 1.490 . S
C1976 C1978 1.395 1_455 S
C1976 C1979 1.403 . S
H1977 C1983 0.930 . S
C1978 H1964 0.930 . S
C1978 C1976 1.395 1_655 S
C1978 C1981 1.403 . S
C1979 C1976 1.403 . S
C1979 C1980 1.524 . S
C1979 C1983 1.400 . S
C1980 H1965 0.960 . S
C1980 H1966 0.960 . S
C1980 H1967 0.960 . S
C1980 C1979 1.524 . S
C1981 C1978 1.403 . S
C1981 C1982 1.392 1_655 S
C1981 C1985 1.495 . S
C1982 C1981 1.392 1_455 S
C1982 C1983 1.385 . S
C1982 C1984 1.478 . S
C1983 H1977 0.930 . S
C1983 C1979 1.400 . S
C1983 C1982 1.385 . S
C1984 C1982 1.478 . S
C1984 C1986 1.381 . S
C1984 C1990 1.383 . S
C1985 C1981 1.495 . S
C1985 H1991 0.959 . S
C1985 H1992 0.961 . S
C1985 H1993 0.960 . S
C1986 C1984 1.381 . S
C1986 C1987 1.393 . S
C1986 H1994 0.936 . S
C1987 C1986 1.393 . S
C1987 C1988 1.389 . S
C1987 H1995 0.926 1_455 S
C1988 C1987 1.389 . S
C1988 C1989 1.377 . S
C1989 H1973 0.930 . S
C1989 C1988 1.377 . S
C1989 C1990 1.379 . S
C1990 H1974 0.931 . S
C1990 C1984 1.383 . S
C1990 C1989 1.379 . S
H1991 C1985 0.959 . S
H1992 C1985 0.961 . S
H1993 C1985 0.960 . S
H1994 C1986 0.936 . S
H1995 C1987 0.926 1_655 S
H1996 C2004 0.929 . S
H1997 C2006 0.930 . S
H1998 C2008 0.930 . S
H1999 C2011 0.929 . S
H2000 C2014 0.930 . S
H2001 C2016 0.960 . S
H2002 C2016 0.960 . S
H2003 C2016 0.960 . S
C2004 H1996 0.929 . S
C2004 C2005 1.377 . S
C2004 C2006 1.384 . S
C2005 C2004 1.377 . S
C2005 C2011 1.390 . S
C2006 H1997 0.930 . S
C2006 C2004 1.384 . S
C2006 C2007 1.372 . S
C2007 C2006 1.372 . S
C2007 C2008 1.400 . S
C2007 C2012 1.490 . S
C2008 H1998 0.930 . S
C2008 C2007 1.400 . S
C2008 C2011 1.386 . S
H2009 C2025 0.930 . S
H2010 C2026 0.931 . S
C2011 H1999 0.929 . S
C2011 C2005 1.390 . S
C2011 C2008 1.386 . S
C2012 C2007 1.490 . S
C2012 C2014 1.395 . S
C2012 C2015 1.403 . S
H2013 C2019 0.930 . S
C2014 H2000 0.930 . S
C2014 C2012 1.395 . S
C2014 C2017 1.403 . S
C2015 C2012 1.403 . S
C2015 C2016 1.524 . S
C2015 C2019 1.400 . S
C2016 H2001 0.960 . S
C2016 H2002 0.960 . S
C2016 H2003 0.960 . S
C2016 C2015 1.524 . S
C2017 C2014 1.403 . S
C2017 C2018 1.392 . S
C2017 C2021 1.495 . S
C2018 C2017 1.392 . S
C2018 C2019 1.385 . S
C2018 C2020 1.478 . S
C2019 H2013 0.930 . S
C2019 C2015 1.400 . S
C2019 C2018 1.385 . S
C2020 C2018 1.478 . S
C2020 C2022 1.381 . S
C2020 C2026 1.383 . S
C2021 C2017 1.495 . S
C2021 H2027 0.959 . S
C2021 H2028 0.961 . S
C2021 H2029 0.960 . S
C2022 C2020 1.381 . S
C2022 C2023 1.394 . S
C2022 H2030 0.930 . S
C2023 C2022 1.394 . S
C2023 C2024 1.383 . S
C2023 H2031 0.929 . S
C2024 C2023 1.383 . S
C2024 C2025 1.377 . S
C2025 H2009 0.930 . S
C2025 C2024 1.377 . S
C2025 C2026 1.379 . S
C2026 H2010 0.931 . S
C2026 C2020 1.383 . S
C2026 C2025 1.379 . S
H2027 C2021 0.959 . S
H2028 C2021 0.961 . S
H2029 C2021 0.960 . S
H2030 C2022 0.930 . S
H2031 C2023 0.929 . S
H2032 C2040 0.929 . S
H2033 C2042 0.930 . S
H2034 C2044 0.930 . S
H2035 C2047 0.929 . S
H2036 C2050 0.930 . S
H2037 C2052 0.960 . S
H2038 C2052 0.960 . S
H2039 C2052 0.960 . S
C2040 H2032 0.929 . S
C2040 C2041 1.377 . S
C2040 C2042 1.384 . S
C2041 C2040 1.377 . S
C2041 C2047 1.390 . S
C2042 H2033 0.930 . S
C2042 C2040 1.384 . S
C2042 C2043 1.372 . S
C2043 C2042 1.372 . S
C2043 C2044 1.400 . S
C2043 C2048 1.490 . S
C2044 H2034 0.930 . S
C2044 C2043 1.400 . S
C2044 C2047 1.386 . S
H2045 C2061 0.930 1_554 S
H2046 C2062 0.931 . S
C2047 H2035 0.929 . S
C2047 C2041 1.390 . S
C2047 C2044 1.386 . S
C2048 C2043 1.490 . S
C2048 C2050 1.395 . S
C2048 C2051 1.403 . S
H2049 C2055 0.930 . S
C2050 H2036 0.930 . S
C2050 C2048 1.395 . S
C2050 C2053 1.403 . S
C2051 C2048 1.403 . S
C2051 C2052 1.524 . S
C2051 C2055 1.400 . S
C2052 H2037 0.960 . S
C2052 H2038 0.960 . S
C2052 H2039 0.960 . S
C2052 C2051 1.524 . S
C2053 C2050 1.403 . S
C2053 C2054 1.392 . S
C2053 C2057 1.495 . S
C2054 C2053 1.392 . S
C2054 C2055 1.385 . S
C2054 C2056 1.478 . S
C2055 H2049 0.930 . S
C2055 C2051 1.400 . S
C2055 C2054 1.385 . S
C2056 C2054 1.478 . S
C2056 C2058 1.381 . S
C2056 C2062 1.383 . S
C2057 C2053 1.495 . S
C2057 H2063 0.959 . S
C2057 H2064 0.961 . S
C2057 H2065 0.960 . S
C2058 C2056 1.381 . S
C2058 C2059 1.394 . S
C2058 H2066 0.930 . S
C2059 C2058 1.394 . S
C2059 C2060 1.383 . S
C2059 H2067 0.929 . S
C2060 C2059 1.383 . S
C2060 C2061 1.377 . S
C2061 H2045 0.930 1_556 S
C2061 C2060 1.377 . S
C2061 C2062 1.379 . S
C2062 H2046 0.931 . S
C2062 C2056 1.383 . S
C2062 C2061 1.379 . S
H2063 C2057 0.959 . S
H2064 C2057 0.961 . S
H2065 C2057 0.960 . S
H2066 C2058 0.930 . S
H2067 C2059 0.929 . S
H2068 C2076 0.929 . S
H2069 C2078 0.930 . S
H2070 C2080 0.930 . S
H2071 C2083 0.929 . S
H2072 C2086 0.930 . S
H2073 C2088 0.960 . S
H2074 C2088 0.960 . S
H2075 C2088 0.960 . S
C2076 H2068 0.929 . S
C2076 C2077 1.377 . S
C2076 C2078 1.384 . S
C2077 C2076 1.377 . S
C2077 C2083 1.390 . S
C2078 H2069 0.930 . S
C2078 C2076 1.384 . S
C2078 C2079 1.372 . S
C2079 C2078 1.372 . S
C2079 C2080 1.400 . S
C2079 C2084 1.490 . S
C2080 H2070 0.930 . S
C2080 C2079 1.400 . S
C2080 C2083 1.386 . S
H2081 C2097 0.930 . S
H2082 C2098 0.931 . S
C2083 H2071 0.929 . S
C2083 C2077 1.390 . S
C2083 C2080 1.386 . S
C2084 C2079 1.490 . S
C2084 C2086 1.395 . S
C2084 C2087 1.403 . S
H2085 C2091 0.930 . S
C2086 H2072 0.930 . S
C2086 C2084 1.395 . S
C2086 C2089 1.403 . S
C2087 C2084 1.403 . S
C2087 C2088 1.524 . S
C2087 C2091 1.400 . S
C2088 H2073 0.960 . S
C2088 H2074 0.960 . S
C2088 H2075 0.960 . S
C2088 C2087 1.524 . S
C2089 C2086 1.403 . S
C2089 C2090 1.392 . S
C2089 C2093 1.495 . S
C2090 C2089 1.392 . S
C2090 C2091 1.385 . S
C2090 C2092 1.478 . S
C2091 H2085 0.930 . S
C2091 C2087 1.400 . S
C2091 C2090 1.385 . S
C2092 C2090 1.478 . S
C2092 C2094 1.381 . S
C2092 C2098 1.383 . S
C2093 C2089 1.495 . S
C2093 H2099 0.959 . S
C2093 H2100 0.961 . S
C2093 H2101 0.960 . S
C2094 C2092 1.381 . S
C2094 C2095 1.394 . S
C2094 H2102 0.930 . S
C2095 C2094 1.394 . S
C2095 C2096 1.383 . S
C2095 H2103 0.929 . S
C2096 C2095 1.383 . S
C2096 C2097 1.377 . S
C2097 H2081 0.930 . S
C2097 C2096 1.377 . S
C2097 C2098 1.379 . S
C2098 H2082 0.931 . S
C2098 C2092 1.383 . S
C2098 C2097 1.379 . S
H2099 C2093 0.959 . S
H2100 C2093 0.961 . S
H2101 C2093 0.960 . S
H2102 C2094 0.930 . S
H2103 C2095 0.929 . S
H2104 C2112 0.929 . S
H2105 C2114 0.930 . S
H2106 C2116 0.930 . S
H2107 C2119 0.929 . S
H2108 C2122 0.930 . S
H2109 C2124 0.960 . S
H2110 C2124 0.960 . S
H2111 C2124 0.960 . S
C2112 H2104 0.929 . S
C2112 C2113 1.377 . S
C2112 C2114 1.384 . S
C2113 C2112 1.377 . S
C2113 C2119 1.390 . S
C2114 H2105 0.930 . S
C2114 C2112 1.384 . S
C2114 C2115 1.372 . S
C2115 C2114 1.372 . S
C2115 C2116 1.400 . S
C2115 C2120 1.490 . S
C2116 H2106 0.930 . S
C2116 C2115 1.400 . S
C2116 C2119 1.386 . S
H2117 C2133 0.930 . S
H2118 C2134 0.931 . S
C2119 H2107 0.929 . S
C2119 C2113 1.390 . S
C2119 C2116 1.386 . S
C2120 C2115 1.490 . S
C2120 C2122 1.395 . S
C2120 C2123 1.403 . S
H2121 C2127 0.930 . S
C2122 H2108 0.930 . S
C2122 C2120 1.395 . S
C2122 C2125 1.403 . S
C2123 C2120 1.403 . S
C2123 C2124 1.524 . S
C2123 C2127 1.400 . S
C2124 H2109 0.960 . S
C2124 H2110 0.960 . S
C2124 H2111 0.960 . S
C2124 C2123 1.524 . S
C2125 C2122 1.403 . S
C2125 C2126 1.392 . S
C2125 C2129 1.495 . S
C2126 C2125 1.392 . S
C2126 C2127 1.385 . S
C2126 C2128 1.478 . S
C2127 H2121 0.930 . S
C2127 C2123 1.400 . S
C2127 C2126 1.385 . S
C2128 C2126 1.478 . S
C2128 C2130 1.381 . S
C2128 C2134 1.383 . S
C2129 C2125 1.495 . S
C2129 H2135 0.959 . S
C2129 H2136 0.961 . S
C2129 H2137 0.960 . S
C2130 C2128 1.381 . S
C2130 C2131 1.394 . S
C2130 H2138 0.930 1_545 S
C2131 C2130 1.394 . S
C2131 C2132 1.383 . S
C2131 H2139 0.929 1_545 S
C2132 C2131 1.383 . S
C2132 C2133 1.377 . S
C2133 H2117 0.930 . S
C2133 C2132 1.377 . S
C2133 C2134 1.379 . S
C2134 H2118 0.931 . S
C2134 C2128 1.383 . S
C2134 C2133 1.379 . S
H2135 C2129 0.959 . S
H2136 C2129 0.961 . S
H2137 C2129 0.960 . S
H2138 C2130 0.930 1_565 S
H2139 C2131 0.929 1_565 S
H2140 C2148 0.929 . S
H2141 C2150 0.930 . S
H2142 C2152 0.930 . S
H2143 C2155 0.929 . S
H2144 C2158 0.930 . S
H2145 C2160 0.960 . S
H2146 C2160 0.960 . S
H2147 C2160 0.960 . S
C2148 H2140 0.929 . S
C2148 C2149 1.377 . S
C2148 C2150 1.384 . S
C2149 C2148 1.377 . S
C2149 C2155 1.390 . S
C2150 H2141 0.930 . S
C2150 C2148 1.384 . S
C2150 C2151 1.372 . S
C2151 C2150 1.372 . S
C2151 C2152 1.400 . S
C2151 C2156 1.490 . S
C2152 H2142 0.930 . S
C2152 C2151 1.400 . S
C2152 C2155 1.386 . S
H2153 C2169 0.930 . S
H2154 C2170 0.931 . S
C2155 H2143 0.929 . S
C2155 C2149 1.390 . S
C2155 C2152 1.386 . S
C2156 C2151 1.490 . S
C2156 C2158 1.395 . S
C2156 C2159 1.403 . S
H2157 C2163 0.930 . S
C2158 H2144 0.930 . S
C2158 C2156 1.395 . S
C2158 C2161 1.403 . S
C2159 C2156 1.403 . S
C2159 C2160 1.524 . S
C2159 C2163 1.400 . S
C2160 H2145 0.960 . S
C2160 H2146 0.960 . S
C2160 H2147 0.960 . S
C2160 C2159 1.524 . S
C2161 C2158 1.403 . S
C2161 C2162 1.392 . S
C2161 C2165 1.495 . S
C2162 C2161 1.392 . S
C2162 C2163 1.385 . S
C2162 C2164 1.478 . S
C2163 H2157 0.930 . S
C2163 C2159 1.400 . S
C2163 C2162 1.385 . S
C2164 C2162 1.478 . S
C2164 C2166 1.381 . S
C2164 C2170 1.383 . S
C2165 C2161 1.495 . S
C2165 H2171 0.959 . S
C2165 H2172 0.961 . S
C2165 H2173 0.960 . S
C2166 C2164 1.381 . S
C2166 C2167 1.394 . S
C2166 H2174 0.930 . S
C2167 C2166 1.394 . S
C2167 C2168 1.383 . S
C2167 H2175 0.929 . S
C2168 C2167 1.383 . S
C2168 C2169 1.377 . S
C2169 H2153 0.930 . S
C2169 C2168 1.377 . S
C2169 C2170 1.379 . S
C2170 H2154 0.931 . S
C2170 C2164 1.383 . S
C2170 C2169 1.379 . S
H2171 C2165 0.959 . S
H2172 C2165 0.961 . S
H2173 C2165 0.960 . S
H2174 C2166 0.930 . S
H2175 C2167 0.929 . S
H2176 C2184 0.929 . S
H2177 C2186 0.930 . S
H2178 C2188 0.930 . S
H2179 C2191 0.929 . S
H2180 C2194 0.930 . S
H2181 C2196 0.960 . S
H2182 C2196 0.960 . S
H2183 C2196 0.960 1_565 S
C2184 H2176 0.929 . S
C2184 C2185 1.377 . S
C2184 C2186 1.384 . S
C2185 C2184 1.377 . S
C2185 C2191 1.390 1_545 S
C2186 H2177 0.930 . S
C2186 C2184 1.384 . S
C2186 C2187 1.372 . S
C2187 C2186 1.372 . S
C2187 C2188 1.400 1_545 S
C2187 C2192 1.490 . S
C2188 H2178 0.930 . S
C2188 C2187 1.400 1_565 S
C2188 C2191 1.386 . S
H2189 C2205 0.930 . S
H2190 C2206 0.931 . S
C2191 H2179 0.929 . S
C2191 C2185 1.390 1_565 S
C2191 C2188 1.386 . S
C2192 C2187 1.490 . S
C2192 C2194 1.395 . S
C2192 C2195 1.403 . S
H2193 C2199 0.930 . S
C2194 H2180 0.930 . S
C2194 C2192 1.395 . S
C2194 C2197 1.403 . S
C2195 C2192 1.403 . S
C2195 C2196 1.524 . S
C2195 C2199 1.400 . S
C2196 H2181 0.960 . S
C2196 H2182 0.960 . S
C2196 H2183 0.960 1_545 S
C2196 C2195 1.524 . S
C2197 C2194 1.403 . S
C2197 C2198 1.392 . S
C2197 C2201 1.495 . S
C2198 C2197 1.392 . S
C2198 C2199 1.385 . S
C2198 C2200 1.478 . S
C2199 H2193 0.930 . S
C2199 C2195 1.400 . S
C2199 C2198 1.385 . S
C2200 C2198 1.478 . S
C2200 C2202 1.381 . S
C2200 C2206 1.383 . S
C2201 C2197 1.495 . S
C2201 H2207 0.959 . S
C2201 H2208 0.961 . S
C2201 H2209 0.960 . S
C2202 C2200 1.381 . S
C2202 C2203 1.394 . S
C2202 H2210 0.930 . S
C2203 C2202 1.394 . S
C2203 C2204 1.383 . S
C2203 H2211 0.929 . S
C2204 C2203 1.383 . S
C2204 C2205 1.377 . S
C2205 H2189 0.930 . S
C2205 C2204 1.377 . S
C2205 C2206 1.379 . S
C2206 H2190 0.931 . S
C2206 C2200 1.383 . S
C2206 C2205 1.379 . S
H2207 C2201 0.959 . S
H2208 C2201 0.961 . S
H2209 C2201 0.960 . S
H2210 C2202 0.930 . S
H2211 C2203 0.929 . S
H2212 C2220 0.929 . S
H2213 C2222 0.930 . S
H2214 C2224 0.930 . S
H2215 C2227 0.929 . S
H2216 C2230 0.930 . S
H2217 C2232 0.960 . S
H2218 C2232 0.960 . S
H2219 C2232 0.960 . S
C2220 H2212 0.929 . S
C2220 C2221 1.377 . S
C2220 C2222 1.384 . S
C2221 C2220 1.377 . S
C2221 C2227 1.390 . S
C2222 H2213 0.930 . S
C2222 C2220 1.384 . S
C2222 C2223 1.372 . S
C2223 C2222 1.372 . S
C2223 C2224 1.400 . S
C2223 C2228 1.490 . S
C2224 H2214 0.930 . S
C2224 C2223 1.400 . S
C2224 C2227 1.386 . S
H2225 C2241 0.930 . S
H2226 C2242 0.931 . S
C2227 H2215 0.929 . S
C2227 C2221 1.390 . S
C2227 C2224 1.386 . S
C2228 C2223 1.490 . S
C2228 C2230 1.395 . S
C2228 C2231 1.403 . S
H2229 C2235 0.930 . S
C2230 H2216 0.930 . S
C2230 C2228 1.395 . S
C2230 C2233 1.403 . S
C2231 C2228 1.403 . S
C2231 C2232 1.524 . S
C2231 C2235 1.400 . S
C2232 H2217 0.960 . S
C2232 H2218 0.960 . S
C2232 H2219 0.960 . S
C2232 C2231 1.524 . S
C2233 C2230 1.403 . S
C2233 C2234 1.392 . S
C2233 C2237 1.495 . S
C2234 C2233 1.392 . S
C2234 C2235 1.385 . S
C2234 C2236 1.478 . S
C2235 H2229 0.930 . S
C2235 C2231 1.400 . S
C2235 C2234 1.385 . S
C2236 C2234 1.478 . S
C2236 C2238 1.381 . S
C2236 C2242 1.383 . S
C2237 C2233 1.495 . S
C2237 H2243 0.959 . S
C2237 H2244 0.961 . S
C2237 H2245 0.960 . S
C2238 C2236 1.381 . S
C2238 C2239 1.394 . S
C2238 H2246 0.930 . S
C2239 C2238 1.394 . S
C2239 C2240 1.383 . S
C2239 H2247 0.929 . S
C2240 C2239 1.383 . S
C2240 C2241 1.377 . S
C2241 H2225 0.930 . S
C2241 C2240 1.377 . S
C2241 C2242 1.379 . S
C2242 H2226 0.931 . S
C2242 C2236 1.383 . S
C2242 C2241 1.379 . S
H2243 C2237 0.959 . S
H2244 C2237 0.961 . S
H2245 C2237 0.960 . S
H2246 C2238 0.930 . S
H2247 C2239 0.929 . S
H2248 C2256 0.929 . S
H2249 C2258 0.930 . S
H2250 C2260 0.930 . S
H2251 C2263 0.929 . S
H2252 C2266 0.930 . S
H2253 C2268 0.960 . S
H2254 C2268 0.960 . S
H2255 C2268 0.960 . S
C2256 H2248 0.929 . S
C2256 C2257 1.377 . S
C2256 C2258 1.384 . S
C2257 C2256 1.377 . S
C2257 C2263 1.390 . S
C2258 H2249 0.930 . S
C2258 C2256 1.384 . S
C2258 C2259 1.372 . S
C2259 C2258 1.372 . S
C2259 C2260 1.400 . S
C2259 C2264 1.490 . S
C2260 H2250 0.930 . S
C2260 C2259 1.400 . S
C2260 C2263 1.386 . S
H2261 C2277 0.930 . S
H2262 C2278 0.931 . S
C2263 H2251 0.929 . S
C2263 C2257 1.390 . S
C2263 C2260 1.386 . S
C2264 C2259 1.490 . S
C2264 C2266 1.395 . S
C2264 C2267 1.403 . S
H2265 C2271 0.930 . S
C2266 H2252 0.930 . S
C2266 C2264 1.395 . S
C2266 C2269 1.403 . S
C2267 C2264 1.403 . S
C2267 C2268 1.524 . S
C2267 C2271 1.400 . S
C2268 H2253 0.960 . S
C2268 H2254 0.960 . S
C2268 H2255 0.960 . S
C2268 C2267 1.524 . S
C2269 C2266 1.403 . S
C2269 C2270 1.392 . S
C2269 C2273 1.495 . S
C2270 C2269 1.392 . S
C2270 C2271 1.385 . S
C2270 C2272 1.478 . S
C2271 H2265 0.930 . S
C2271 C2267 1.400 . S
C2271 C2270 1.385 . S
C2272 C2270 1.478 . S
C2272 C2274 1.381 . S
C2272 C2278 1.383 . S
C2273 C2269 1.495 . S
C2273 H2279 0.959 . S
C2273 H2280 0.961 . S
C2273 H2281 0.960 . S
C2274 C2272 1.381 . S
C2274 C2275 1.394 . S
C2274 H2282 0.930 . S
C2275 C2274 1.394 . S
C2275 C2276 1.383 . S
C2275 H2283 0.929 . S
C2276 C2275 1.383 . S
C2276 C2277 1.377 . S
C2277 H2261 0.930 . S
C2277 C2276 1.377 . S
C2277 C2278 1.379 . S
C2278 H2262 0.931 . S
C2278 C2272 1.383 . S
C2278 C2277 1.379 . S
H2279 C2273 0.959 . S
H2280 C2273 0.961 . S
H2281 C2273 0.960 . S
H2282 C2274 0.930 . S
H2283 C2275 0.929 . S
H2284 C2292 0.929 . S
H2285 C2294 0.930 . S
H2286 C2296 0.930 . S
H2287 C2299 0.929 . S
H2288 C2302 0.930 . S
H2289 C2304 0.960 . S
H2290 C2304 0.960 . S
H2291 C2304 0.960 . S
C2292 H2284 0.929 . S
C2292 C2293 1.377 . S
C2292 C2294 1.384 . S
C2293 C2292 1.377 . S
C2293 C2299 1.390 . S
C2294 H2285 0.930 . S
C2294 C2292 1.384 . S
C2294 C2295 1.372 . S
C2295 C2294 1.372 . S
C2295 C2296 1.400 . S
C2295 C2300 1.490 . S
C2296 H2286 0.930 . S
C2296 C2295 1.400 . S
C2296 C2299 1.386 . S
H2297 C2313 0.930 . S
H2298 C2314 0.931 . S
C2299 H2287 0.929 . S
C2299 C2293 1.390 . S
C2299 C2296 1.386 . S
C2300 C2295 1.490 . S
C2300 C2302 1.395 . S
C2300 C2303 1.403 . S
H2301 C2307 0.930 . S
C2302 H2288 0.930 . S
C2302 C2300 1.395 . S
C2302 C2305 1.403 . S
C2303 C2300 1.403 . S
C2303 C2304 1.524 . S
C2303 C2307 1.400 . S
C2304 H2289 0.960 . S
C2304 H2290 0.960 . S
C2304 H2291 0.960 . S
C2304 C2303 1.524 . S
C2305 C2302 1.403 . S
C2305 C2306 1.392 . S
C2305 C2309 1.495 . S
C2306 C2305 1.392 . S
C2306 C2307 1.385 . S
C2306 C2308 1.478 . S
C2307 H2301 0.930 . S
C2307 C2303 1.400 . S
C2307 C2306 1.385 . S
C2308 C2306 1.478 . S
C2308 C2310 1.381 . S
C2308 C2314 1.383 . S
C2309 C2305 1.495 . S
C2309 H2315 0.959 . S
C2309 H2316 0.961 . S
C2309 H2317 0.960 . S
C2310 C2308 1.381 . S
C2310 C2311 1.394 . S
C2310 H2318 0.930 . S
C2311 C2310 1.394 . S
C2311 C2312 1.383 . S
C2311 H2319 0.929 . S
C2312 C2311 1.383 . S
C2312 C2313 1.377 . S
C2313 H2297 0.930 . S
C2313 C2312 1.377 . S
C2313 C2314 1.379 . S
C2314 H2298 0.931 . S
C2314 C2308 1.383 . S
C2314 C2313 1.379 . S
H2315 C2309 0.959 . S
H2316 C2309 0.961 . S
H2317 C2309 0.960 . S
H2318 C2310 0.930 . S
H2319 C2311 0.929 . S
H2320 C2328 0.929 . S
H2321 C2330 0.930 . S
H2322 C2332 0.930 . S
H2323 C2335 0.929 . S
H2324 C2338 0.930 . S
H2325 C2340 0.960 . S
H2326 C2340 0.960 . S
H2327 C2340 0.960 . S
C2328 H2320 0.929 . S
C2328 C2329 1.377 . S
C2328 C2330 1.384 . S
C2329 C2328 1.377 . S
C2329 C2335 1.390 1_545 S
C2330 H2321 0.930 . S
C2330 C2328 1.384 . S
C2330 C2331 1.372 1_545 S
C2331 C2330 1.372 1_565 S
C2331 C2332 1.400 . S
C2331 C2336 1.490 . S
C2332 H2322 0.930 . S
C2332 C2331 1.400 . S
C2332 C2335 1.386 . S
H2333 C2349 0.930 . S
H2334 C2350 0.931 . S
C2335 H2323 0.929 . S
C2335 C2329 1.390 1_565 S
C2335 C2332 1.386 . S
C2336 C2331 1.490 . S
C2336 C2338 1.395 . S
C2336 C2339 1.403 1_565 S
H2337 C2343 0.930 . S
C2338 H2324 0.930 . S
C2338 C2336 1.395 . S
C2338 C2341 1.403 . S
C2339 C2336 1.403 1_545 S
C2339 C2340 1.524 . S
C2339 C2343 1.400 . S
C2340 H2325 0.960 . S
C2340 H2326 0.960 . S
C2340 H2327 0.960 . S
C2340 C2339 1.524 . S
C2341 C2338 1.403 . S
C2341 C2342 1.392 . S
C2341 C2345 1.495 . S
C2342 C2341 1.392 . S
C2342 C2343 1.385 1_565 S
C2342 C2344 1.478 . S
C2343 H2337 0.930 . S
C2343 C2339 1.400 . S
C2343 C2342 1.385 1_545 S
C2344 C2342 1.478 . S
C2344 C2346 1.381 . S
C2344 C2350 1.383 . S
C2345 C2341 1.495 . S
C2345 H2351 0.959 . S
C2345 H2352 0.961 . S
C2345 H2353 0.960 . S
C2346 C2344 1.381 . S
C2346 C2347 1.394 . S
C2346 H2354 0.930 1_565 S
C2347 C2346 1.394 . S
C2347 C2348 1.383 . S
C2347 H2355 0.927 1_565 S
C2348 C2347 1.383 . S
C2348 C2349 1.377 . S
C2349 H2333 0.930 . S
C2349 C2348 1.377 . S
C2349 C2350 1.379 . S
C2350 H2334 0.931 . S
C2350 C2344 1.383 . S
C2350 C2349 1.379 . S
H2351 C2345 0.959 . S
H2352 C2345 0.961 . S
H2353 C2345 0.960 . S
H2354 C2346 0.930 1_545 S
H2355 C2347 0.927 1_545 S
H2356 C2364 0.929 . S
H2357 C2366 0.930 . S
H2358 C2368 0.930 . S
H2359 C2371 0.929 . S
H2360 C2374 0.930 . S
H2361 C2376 0.960 . S
H2362 C2376 0.960 . S
H2363 C2376 0.960 . S
C2364 H2356 0.929 . S
C2364 C2365 1.377 . S
C2364 C2366 1.384 . S
C2365 C2364 1.377 . S
C2365 C2371 1.390 . S
C2366 H2357 0.930 . S
C2366 C2364 1.384 . S
C2366 C2367 1.372 . S
C2367 C2366 1.372 . S
C2367 C2368 1.400 . S
C2367 C2372 1.490 . S
C2368 H2358 0.930 . S
C2368 C2367 1.400 . S
C2368 C2371 1.386 . S
H2369 C2385 0.930 . S
H2370 C2386 0.931 . S
C2371 H2359 0.929 . S
C2371 C2365 1.390 . S
C2371 C2368 1.386 . S
C2372 C2367 1.490 . S
C2372 C2374 1.395 . S
C2372 C2375 1.403 . S
H2373 C2379 0.930 . S
C2374 H2360 0.930 . S
C2374 C2372 1.395 . S
C2374 C2377 1.403 . S
C2375 C2372 1.403 . S
C2375 C2376 1.524 . S
C2375 C2379 1.400 . S
C2376 H2361 0.960 . S
C2376 H2362 0.960 . S
C2376 H2363 0.960 . S
C2376 C2375 1.524 . S
C2377 C2374 1.403 . S
C2377 C2378 1.392 . S
C2377 C2381 1.495 . S
C2378 C2377 1.392 . S
C2378 C2379 1.385 . S
C2378 C2380 1.478 . S
C2379 H2373 0.930 . S
C2379 C2375 1.400 . S
C2379 C2378 1.385 . S
C2380 C2378 1.478 . S
C2380 C2382 1.381 . S
C2380 C2386 1.383 . S
C2381 C2377 1.495 . S
C2381 H2387 0.959 . S
C2381 H2388 0.961 . S
C2381 H2389 0.960 . S
C2382 C2380 1.381 . S
C2382 C2383 1.394 . S
C2382 H2390 0.930 . S
C2383 C2382 1.394 . S
C2383 C2384 1.383 . S
C2383 H2391 0.929 . S
C2384 C2383 1.383 . S
C2384 C2385 1.377 . S
C2385 H2369 0.930 . S
C2385 C2384 1.377 . S
C2385 C2386 1.379 . S
C2386 H2370 0.931 . S
C2386 C2380 1.383 . S
C2386 C2385 1.379 . S
H2387 C2381 0.959 . S
H2388 C2381 0.961 . S
H2389 C2381 0.960 . S
H2390 C2382 0.930 . S
H2391 C2383 0.929 . S
H2392 C2400 0.929 . S
H2393 C2402 0.930 . S
H2394 C2404 0.930 . S
H2395 C2407 0.929 . S
H2396 C2410 0.930 . S
H2397 C2412 0.960 . S
H2398 C2412 0.960 . S
H2399 C2412 0.960 . S
C2400 H2392 0.929 . S
C2400 C2401 1.377 . S
C2400 C2402 1.384 . S
C2401 C2400 1.377 . S
C2401 C2407 1.390 . S
C2402 H2393 0.930 . S
C2402 C2400 1.384 . S
C2402 C2403 1.372 . S
C2403 C2402 1.372 . S
C2403 C2404 1.400 . S
C2403 C2408 1.490 . S
C2404 H2394 0.930 . S
C2404 C2403 1.400 . S
C2404 C2407 1.386 . S
H2405 C2421 0.930 . S
H2406 C2422 0.929 1_556 S
C2407 H2395 0.929 . S
C2407 C2401 1.390 . S
C2407 C2404 1.386 . S
C2408 C2403 1.490 . S
C2408 C2410 1.395 . S
C2408 C2411 1.403 . S
H2409 C2415 0.930 1_556 S
C2410 H2396 0.930 . S
C2410 C2408 1.395 . S
C2410 C2413 1.403 . S
C2411 C2408 1.403 . S
C2411 C2412 1.524 1_554 S
C2411 C2415 1.400 . S
C2412 H2397 0.960 . S
C2412 H2398 0.960 . S
C2412 H2399 0.960 . S
C2412 C2411 1.524 1_556 S
C2413 C2410 1.403 . S
C2413 C2414 1.392 . S
C2413 C2417 1.495 . S
C2414 C2413 1.392 . S
C2414 C2415 1.385 . S
C2414 C2416 1.478 . S
C2415 H2409 0.930 1_554 S
C2415 C2411 1.400 . S
C2415 C2414 1.385 . S
C2416 C2414 1.478 . S
C2416 C2418 1.381 . S
C2416 C2422 1.383 . S
C2417 C2413 1.495 . S
C2417 H2423 0.959 . S
C2417 H2424 0.961 . S
C2417 H2425 0.960 . S
C2418 C2416 1.381 . S
C2418 C2419 1.394 . S
C2418 H2426 0.930 . S
C2419 C2418 1.394 . S
C2419 C2420 1.363 1_554 S
C2419 H2427 0.929 . S
C2420 C2419 1.363 1_556 S
C2420 C2421 1.381 . S
C2421 H2405 0.930 . S
C2421 C2420 1.381 . S
C2421 C2422 1.379 1_556 S
C2422 H2406 0.929 1_554 S
C2422 C2416 1.383 . S
C2422 C2421 1.379 1_554 S
H2423 C2417 0.959 . S
H2424 C2417 0.961 . S
H2425 C2417 0.960 . S
H2426 C2418 0.930 . S
H2427 C2419 0.929 . S
H2428 C2436 0.929 . S
H2429 C2438 0.930 . S
H2430 C2440 0.930 . S
H2431 C2443 0.929 . S
H2432 C2446 0.930 . S
H2433 C2448 0.960 . S
H2434 C2448 0.960 . S
H2435 C2448 0.960 . S
C2436 H2428 0.929 . S
C2436 C2437 1.377 . S
C2436 C2438 1.384 . S
C2437 C2436 1.377 . S
C2437 C2443 1.390 . S
C2438 H2429 0.930 . S
C2438 C2436 1.384 . S
C2438 C2439 1.372 . S
C2439 C2438 1.372 . S
C2439 C2440 1.400 . S
C2439 C2444 1.490 . S
C2440 H2430 0.930 . S
C2440 C2439 1.400 . S
C2440 C2443 1.386 . S
H2441 C2457 0.930 . S
H2442 C2458 0.931 . S
C2443 H2431 0.929 . S
C2443 C2437 1.390 . S
C2443 C2440 1.386 . S
C2444 C2439 1.490 . S
C2444 C2446 1.395 . S
C2444 C2447 1.403 . S
H2445 C2451 0.930 . S
C2446 H2432 0.930 . S
C2446 C2444 1.395 . S
C2446 C2449 1.403 . S
C2447 C2444 1.403 . S
C2447 C2448 1.524 . S
C2447 C2451 1.400 . S
C2448 H2433 0.960 . S
C2448 H2434 0.960 . S
C2448 H2435 0.960 . S
C2448 C2447 1.524 . S
C2449 C2446 1.403 . S
C2449 C2450 1.392 . S
C2449 C2453 1.495 . S
C2450 C2449 1.392 . S
C2450 C2451 1.385 . S
C2450 C2452 1.478 . S
C2451 H2445 0.930 . S
C2451 C2447 1.400 . S
C2451 C2450 1.385 . S
C2452 C2450 1.478 . S
C2452 C2454 1.381 . S
C2452 C2458 1.383 . S
C2453 C2449 1.495 . S
C2453 H2459 0.959 . S
C2453 H2460 0.961 . S
C2453 H2461 0.960 . S
C2454 C2452 1.381 . S
C2454 C2455 1.394 . S
C2454 H2462 0.930 . S
C2455 C2454 1.394 . S
C2455 C2456 1.383 . S
C2455 H2463 0.929 . S
C2456 C2455 1.383 . S
C2456 C2457 1.377 . S
C2457 H2441 0.930 . S
C2457 C2456 1.377 . S
C2457 C2458 1.379 . S
C2458 H2442 0.931 . S
C2458 C2452 1.383 . S
C2458 C2457 1.379 . S
H2459 C2453 0.959 . S
H2460 C2453 0.961 . S
H2461 C2453 0.960 . S
H2462 C2454 0.930 . S
H2463 C2455 0.929 . S
H2464 C2472 0.929 . S
H2465 C2474 0.930 . S
H2466 C2476 0.930 . S
H2467 C2479 0.929 . S
H2468 C2482 0.930 . S
H2469 C2484 0.960 . S
H2470 C2484 0.960 . S
H2471 C2484 0.960 . S
C2472 H2464 0.929 . S
C2472 C2473 1.377 . S
C2472 C2474 1.384 . S
C2473 C2472 1.377 . S
C2473 C2479 1.390 . S
C2474 H2465 0.930 . S
C2474 C2472 1.384 . S
C2474 C2475 1.372 . S
C2475 C2474 1.372 . S
C2475 C2476 1.400 . S
C2475 C2480 1.490 . S
C2476 H2466 0.930 . S
C2476 C2475 1.400 . S
C2476 C2479 1.386 . S
H2477 C2493 0.930 . S
H2478 C2494 0.931 . S
C2479 H2467 0.929 . S
C2479 C2473 1.390 . S
C2479 C2476 1.386 . S
C2480 C2475 1.490 . S
C2480 C2482 1.395 . S
C2480 C2483 1.403 . S
H2481 C2487 0.930 . S
C2482 H2468 0.930 . S
C2482 C2480 1.395 . S
C2482 C2485 1.403 . S
C2483 C2480 1.403 . S
C2483 C2484 1.524 . S
C2483 C2487 1.400 . S
C2484 H2469 0.960 . S
C2484 H2470 0.960 . S
C2484 H2471 0.960 . S
C2484 C2483 1.524 . S
C2485 C2482 1.403 . S
C2485 C2486 1.392 . S
C2485 C2489 1.495 . S
C2486 C2485 1.392 . S
C2486 C2487 1.385 . S
C2486 C2488 1.478 . S
C2487 H2481 0.930 . S
C2487 C2483 1.400 . S
C2487 C2486 1.385 . S
C2488 C2486 1.478 . S
C2488 C2490 1.381 . S
C2488 C2494 1.383 . S
C2489 C2485 1.495 . S
C2489 H2495 0.959 . S
C2489 H2496 0.961 . S
C2489 H2497 0.960 . S
C2490 C2488 1.381 . S
C2490 C2491 1.394 . S
C2490 H2498 0.930 . S
C2491 C2490 1.394 . S
C2491 C2492 1.383 . S
C2491 H2499 0.929 . S
C2492 C2491 1.383 . S
C2492 C2493 1.377 . S
C2493 H2477 0.930 . S
C2493 C2492 1.377 . S
C2493 C2494 1.379 . S
C2494 H2478 0.931 . S
C2494 C2488 1.383 . S
C2494 C2493 1.379 . S
H2495 C2489 0.959 . S
H2496 C2489 0.961 . S
H2497 C2489 0.960 . S
H2498 C2490 0.930 . S
H2499 C2491 0.929 . S
H2500 C2508 0.929 . S
H2501 C2510 0.930 . S
H2502 C2512 0.930 . S
H2503 C2515 0.929 . S
H2504 C2518 0.930 . S
H2505 C2520 0.960 . S
H2506 C2520 0.960 . S
H2507 C2520 0.960 . S
C2508 H2500 0.929 . S
C2508 C2509 1.377 . S
C2508 C2510 1.384 . S
C2509 C2508 1.377 . S
C2509 C2515 1.390 . S
C2510 H2501 0.930 . S
C2510 C2508 1.384 . S
C2510 C2511 1.372 . S
C2511 C2510 1.372 . S
C2511 C2512 1.400 . S
C2511 C2516 1.490 . S
C2512 H2502 0.930 . S
C2512 C2511 1.400 . S
C2512 C2515 1.386 . S
H2513 C2529 0.930 . S
H2514 C2530 0.931 . S
C2515 H2503 0.929 . S
C2515 C2509 1.390 . S
C2515 C2512 1.386 . S
C2516 C2511 1.490 . S
C2516 C2518 1.395 . S
C2516 C2519 1.403 . S
H2517 C2523 0.930 . S
C2518 H2504 0.930 . S
C2518 C2516 1.395 . S
C2518 C2521 1.403 . S
C2519 C2516 1.403 . S
C2519 C2520 1.524 . S
C2519 C2523 1.400 . S
C2520 H2505 0.960 . S
C2520 H2506 0.960 . S
C2520 H2507 0.960 . S
C2520 C2519 1.524 . S
C2521 C2518 1.403 . S
C2521 C2522 1.392 . S
C2521 C2525 1.495 . S
C2522 C2521 1.392 . S
C2522 C2523 1.385 . S
C2522 C2524 1.478 . S
C2523 H2517 0.930 . S
C2523 C2519 1.400 . S
C2523 C2522 1.385 . S
C2524 C2522 1.478 . S
C2524 C2526 1.381 . S
C2524 C2530 1.383 . S
C2525 C2521 1.495 . S
C2525 H2531 0.959 . S
C2525 H2532 0.961 . S
C2525 H2533 0.960 . S
C2526 C2524 1.381 . S
C2526 C2527 1.394 . S
C2526 H2534 0.930 . S
C2527 C2526 1.394 . S
C2527 C2528 1.383 . S
C2527 H2535 0.929 . S
C2528 C2527 1.383 . S
C2528 C2529 1.377 . S
C2529 H2513 0.930 . S
C2529 C2528 1.377 . S
C2529 C2530 1.379 . S
C2530 H2514 0.931 . S
C2530 C2524 1.383 . S
C2530 C2529 1.379 . S
H2531 C2525 0.959 . S
H2532 C2525 0.961 . S
H2533 C2525 0.960 . S
H2534 C2526 0.930 . S
H2535 C2527 0.929 . S
H2536 C2544 0.929 . S
H2537 C2546 0.930 . S
H2538 C2548 0.930 . S
H2539 C2551 0.929 . S
H2540 C2554 0.930 . S
H2541 C2556 0.960 . S
H2542 C2556 0.960 1_545 S
H2543 C2556 0.960 1_545 S
C2544 H2536 0.929 . S
C2544 C2545 1.377 . S
C2544 C2546 1.384 1_545 S
C2545 C2544 1.377 . S
C2545 C2551 1.390 . S
C2546 H2537 0.930 . S
C2546 C2544 1.384 1_565 S
C2546 C2547 1.372 . S
C2547 C2546 1.372 . S
C2547 C2548 1.400 1_565 S
C2547 C2552 1.490 . S
C2548 H2538 0.930 . S
C2548 C2547 1.400 1_545 S
C2548 C2551 1.386 . S
H2549 C2565 0.930 . S
H2550 C2566 0.931 . S
C2551 H2539 0.929 . S
C2551 C2545 1.390 . S
C2551 C2548 1.386 . S
C2552 C2547 1.490 . S
C2552 C2554 1.395 . S
C2552 C2555 1.403 . S
H2553 C2559 0.930 . S
C2554 H2540 0.930 . S
C2554 C2552 1.395 . S
C2554 C2557 1.403 . S
C2555 C2552 1.403 . S
C2555 C2556 1.524 . S
C2555 C2559 1.400 . S
C2556 H2541 0.960 . S
C2556 H2542 0.960 1_565 S
C2556 H2543 0.960 1_565 S
C2556 C2555 1.524 . S
C2557 C2554 1.403 . S
C2557 C2558 1.392 . S
C2557 C2561 1.495 . S
C2558 C2557 1.392 . S
C2558 C2559 1.385 . S
C2558 C2560 1.478 . S
C2559 H2553 0.930 . S
C2559 C2555 1.400 . S
C2559 C2558 1.385 . S
C2560 C2558 1.478 . S
C2560 C2562 1.381 . S
C2560 C2566 1.383 . S
C2561 C2557 1.495 . S
C2561 H2567 0.959 . S
C2561 H2568 0.961 . S
C2561 H2569 0.960 . S
C2562 C2560 1.381 . S
C2562 C2563 1.394 . S
C2562 H2570 0.930 . S
C2563 C2562 1.394 . S
C2563 C2564 1.383 . S
C2563 H2571 0.929 . S
C2564 C2563 1.383 . S
C2564 C2565 1.377 . S
C2565 H2549 0.930 . S
C2565 C2564 1.377 . S
C2565 C2566 1.379 . S
C2566 H2550 0.931 . S
C2566 C2560 1.383 . S
C2566 C2565 1.379 . S
H2567 C2561 0.959 . S
H2568 C2561 0.961 . S
H2569 C2561 0.960 . S
H2570 C2562 0.930 . S
H2571 C2563 0.929 . S
H2572 C2580 0.929 . S
H2573 C2582 0.930 . S
H2574 C2584 0.930 . S
H2575 C2587 0.929 . S
H2576 C2590 0.930 . S
H2577 C2592 0.960 . S
H2578 C2592 0.960 . S
H2579 C2592 0.960 . S
C2580 H2572 0.929 . S
C2580 C2581 1.377 . S
C2580 C2582 1.384 . S
C2581 C2580 1.377 . S
C2581 C2587 1.390 . S
C2582 H2573 0.930 . S
C2582 C2580 1.384 . S
C2582 C2583 1.372 . S
C2583 C2582 1.372 . S
C2583 C2584 1.400 . S
C2583 C2588 1.490 . S
C2584 H2574 0.930 . S
C2584 C2583 1.400 . S
C2584 C2587 1.386 . S
H2585 C2601 0.930 . S
H2586 C2602 0.931 . S
C2587 H2575 0.929 . S
C2587 C2581 1.390 . S
C2587 C2584 1.386 . S
C2588 C2583 1.490 . S
C2588 C2590 1.395 . S
C2588 C2591 1.403 . S
H2589 C2595 0.930 . S
C2590 H2576 0.930 . S
C2590 C2588 1.395 . S
C2590 C2593 1.403 . S
C2591 C2588 1.403 . S
C2591 C2592 1.524 . S
C2591 C2595 1.400 . S
C2592 H2577 0.960 . S
C2592 H2578 0.960 . S
C2592 H2579 0.960 . S
C2592 C2591 1.524 . S
C2593 C2590 1.403 . S
C2593 C2594 1.392 . S
C2593 C2597 1.495 . S
C2594 C2593 1.392 . S
C2594 C2595 1.385 . S
C2594 C2596 1.478 . S
C2595 H2589 0.930 . S
C2595 C2591 1.400 . S
C2595 C2594 1.385 . S
C2596 C2594 1.478 . S
C2596 C2598 1.381 . S
C2596 C2602 1.383 . S
C2597 C2593 1.495 . S
C2597 H2603 0.959 . S
C2597 H2604 0.961 . S
C2597 H2605 0.960 . S
C2598 C2596 1.381 . S
C2598 C2599 1.394 . S
C2598 H2606 0.930 . S
C2599 C2598 1.394 . S
C2599 C2600 1.383 . S
C2599 H2607 0.929 . S
C2600 C2599 1.383 . S
C2600 C2601 1.377 . S
C2601 H2585 0.930 . S
C2601 C2600 1.377 . S
C2601 C2602 1.379 . S
C2602 H2586 0.931 . S
C2602 C2596 1.383 . S
C2602 C2601 1.379 . S
H2603 C2597 0.959 . S
H2604 C2597 0.961 . S
H2605 C2597 0.960 . S
H2606 C2598 0.930 . S
H2607 C2599 0.929 . S
H2608 C2616 0.929 . S
H2609 C2618 0.930 . S
H2610 C2620 0.930 . S
H2611 C2623 0.929 . S
H2612 C2626 0.930 . S
H2613 C2628 0.960 . S
H2614 C2628 0.960 . S
H2615 C2628 0.960 . S
C2616 H2608 0.929 . S
C2616 C2617 1.377 . S
C2616 C2618 1.384 . S
C2617 C2616 1.377 . S
C2617 C2623 1.390 . S
C2618 H2609 0.930 . S
C2618 C2616 1.384 . S
C2618 C2619 1.372 . S
C2619 C2618 1.372 . S
C2619 C2620 1.400 . S
C2619 C2624 1.490 . S
C2620 H2610 0.930 . S
C2620 C2619 1.400 . S
C2620 C2623 1.386 . S
H2621 C2637 0.930 . S
H2622 C2638 0.931 . S
C2623 H2611 0.929 . S
C2623 C2617 1.390 . S
C2623 C2620 1.386 . S
C2624 C2619 1.490 . S
C2624 C2626 1.395 . S
C2624 C2627 1.403 . S
H2625 C2631 0.930 . S
C2626 H2612 0.930 . S
C2626 C2624 1.395 . S
C2626 C2629 1.403 . S
C2627 C2624 1.403 . S
C2627 C2628 1.524 . S
C2627 C2631 1.400 . S
C2628 H2613 0.960 . S
C2628 H2614 0.960 . S
C2628 H2615 0.960 . S
C2628 C2627 1.524 . S
C2629 C2626 1.403 . S
C2629 C2630 1.392 . S
C2629 C2633 1.495 . S
C2630 C2629 1.392 . S
C2630 C2631 1.385 . S
C2630 C2632 1.478 . S
C2631 H2625 0.930 . S
C2631 C2627 1.400 . S
C2631 C2630 1.385 . S
C2632 C2630 1.478 . S
C2632 C2634 1.381 . S
C2632 C2638 1.383 . S
C2633 C2629 1.495 . S
C2633 H2639 0.959 . S
C2633 H2640 0.961 . S
C2633 H2641 0.960 . S
C2634 C2632 1.381 . S
C2634 C2635 1.394 . S
C2634 H2642 0.930 . S
C2635 C2634 1.394 . S
C2635 C2636 1.383 . S
C2635 H2643 0.929 . S
C2636 C2635 1.383 . S
C2636 C2637 1.377 . S
C2637 H2621 0.930 . S
C2637 C2636 1.377 . S
C2637 C2638 1.379 . S
C2638 H2622 0.931 . S
C2638 C2632 1.383 . S
C2638 C2637 1.379 . S
H2639 C2633 0.959 . S
H2640 C2633 0.961 . S
H2641 C2633 0.960 . S
H2642 C2634 0.930 . S
H2643 C2635 0.929 . S
H2644 C2652 0.929 . S
H2645 C2654 0.930 . S
H2646 C2656 0.930 . S
H2647 C2659 0.929 . S
H2648 C2662 0.930 . S
H2649 C2664 0.960 . S
H2650 C2664 0.960 . S
H2651 C2664 0.960 . S
C2652 H2644 0.929 . S
C2652 C2653 1.377 . S
C2652 C2654 1.384 . S
C2653 C2652 1.377 . S
C2653 C2659 1.390 . S
C2654 H2645 0.930 . S
C2654 C2652 1.384 . S
C2654 C2655 1.372 . S
C2655 C2654 1.372 . S
C2655 C2656 1.400 . S
C2655 C2660 1.490 . S
C2656 H2646 0.930 . S
C2656 C2655 1.400 . S
C2656 C2659 1.386 . S
H2657 C2673 0.930 . S
H2658 C2674 0.931 . S
C2659 H2647 0.929 . S
C2659 C2653 1.390 . S
C2659 C2656 1.386 . S
C2660 C2655 1.490 . S
C2660 C2662 1.395 . S
C2660 C2663 1.403 . S
H2661 C2667 0.930 . S
C2662 H2648 0.930 . S
C2662 C2660 1.395 . S
C2662 C2665 1.403 . S
C2663 C2660 1.403 . S
C2663 C2664 1.524 . S
C2663 C2667 1.400 . S
C2664 H2649 0.960 . S
C2664 H2650 0.960 . S
C2664 H2651 0.960 . S
C2664 C2663 1.524 . S
C2665 C2662 1.403 . S
C2665 C2666 1.392 . S
C2665 C2669 1.495 . S
C2666 C2665 1.392 . S
C2666 C2667 1.385 . S
C2666 C2668 1.478 . S
C2667 H2661 0.930 . S
C2667 C2663 1.400 . S
C2667 C2666 1.385 . S
C2668 C2666 1.478 . S
C2668 C2670 1.381 . S
C2668 C2674 1.383 . S
C2669 C2665 1.495 . S
C2669 H2675 0.959 . S
C2669 H2676 0.961 . S
C2669 H2677 0.960 . S
C2670 C2668 1.381 . S
C2670 C2671 1.394 . S
C2670 H2678 0.930 . S
C2671 C2670 1.394 . S
C2671 C2672 1.383 . S
C2671 H2679 0.929 . S
C2672 C2671 1.383 . S
C2672 C2673 1.377 . S
C2673 H2657 0.930 . S
C2673 C2672 1.377 . S
C2673 C2674 1.379 . S
C2674 H2658 0.931 . S
C2674 C2668 1.383 . S
C2674 C2673 1.379 . S
H2675 C2669 0.959 . S
H2676 C2669 0.961 . S
H2677 C2669 0.960 . S
H2678 C2670 0.930 . S
H2679 C2671 0.929 . S
H2680 C2688 0.929 . S
H2681 C2690 0.930 . S
H2682 C2692 0.930 . S
H2683 C2695 0.929 . S
H2684 C2698 0.930 . S
H2685 C2700 0.960 . S
H2686 C2700 0.960 . S
H2687 C2700 0.960 . S
C2688 H2680 0.929 . S
C2688 C2689 1.377 . S
C2688 C2690 1.384 . S
C2689 C2688 1.377 . S
C2689 C2695 1.390 . S
C2690 H2681 0.930 . S
C2690 C2688 1.384 . S
C2690 C2691 1.372 . S
C2691 C2690 1.372 . S
C2691 C2692 1.400 . S
C2691 C2696 1.490 . S
C2692 H2682 0.930 . S
C2692 C2691 1.400 . S
C2692 C2695 1.386 . S
H2693 C2709 0.930 . S
H2694 C2710 0.931 . S
C2695 H2683 0.929 . S
C2695 C2689 1.390 . S
C2695 C2692 1.386 . S
C2696 C2691 1.490 . S
C2696 C2698 1.395 . S
C2696 C2699 1.403 . S
H2697 C2703 0.930 . S
C2698 H2684 0.930 . S
C2698 C2696 1.395 . S
C2698 C2701 1.403 . S
C2699 C2696 1.403 . S
C2699 C2700 1.524 . S
C2699 C2703 1.400 . S
C2700 H2685 0.960 . S
C2700 H2686 0.960 . S
C2700 H2687 0.960 . S
C2700 C2699 1.524 . S
C2701 C2698 1.403 . S
C2701 C2702 1.392 . S
C2701 C2705 1.495 . S
C2702 C2701 1.392 . S
C2702 C2703 1.385 . S
C2702 C2704 1.478 . S
C2703 H2697 0.930 . S
C2703 C2699 1.400 . S
C2703 C2702 1.385 . S
C2704 C2702 1.478 . S
C2704 C2706 1.381 . S
C2704 C2710 1.383 . S
C2705 C2701 1.495 . S
C2705 H2711 0.959 . S
C2705 H2712 0.961 . S
C2705 H2713 0.960 . S
C2706 C2704 1.381 . S
C2706 C2707 1.394 . S
C2706 H2714 0.930 . S
C2707 C2706 1.394 . S
C2707 C2708 1.383 . S
C2707 H2715 0.929 . S
C2708 C2707 1.383 . S
C2708 C2709 1.377 . S
C2709 H2693 0.930 . S
C2709 C2708 1.377 . S
C2709 C2710 1.379 . S
C2710 H2694 0.931 . S
C2710 C2704 1.383 . S
C2710 C2709 1.379 . S
H2711 C2705 0.959 . S
H2712 C2705 0.961 . S
H2713 C2705 0.960 . S
H2714 C2706 0.930 . S
H2715 C2707 0.929 . S
H2716 C2724 0.929 . S
H2717 C2726 0.930 . S
H2718 C2728 0.930 . S
H2719 C2731 0.929 . S
H2720 C2734 0.930 . S
H2721 C2736 0.960 . S
H2722 C2736 0.960 . S
H2723 C2736 0.960 . S
C2724 H2716 0.929 . S
C2724 C2725 1.377 . S
C2724 C2726 1.384 . S
C2725 C2724 1.377 . S
C2725 C2731 1.390 . S
C2726 H2717 0.930 . S
C2726 C2724 1.384 . S
C2726 C2727 1.372 . S
C2727 C2726 1.372 . S
C2727 C2728 1.400 . S
C2727 C2732 1.490 . S
C2728 H2718 0.930 . S
C2728 C2727 1.400 . S
C2728 C2731 1.386 . S
H2729 C2745 0.930 . S
H2730 C2746 0.931 . S
C2731 H2719 0.929 . S
C2731 C2725 1.390 . S
C2731 C2728 1.386 . S
C2732 C2727 1.490 . S
C2732 C2734 1.395 . S
C2732 C2735 1.403 . S
H2733 C2739 0.930 . S
C2734 H2720 0.930 . S
C2734 C2732 1.395 . S
C2734 C2737 1.403 . S
C2735 C2732 1.403 . S
C2735 C2736 1.524 . S
C2735 C2739 1.400 . S
C2736 H2721 0.960 . S
C2736 H2722 0.960 . S
C2736 H2723 0.960 . S
C2736 C2735 1.524 . S
C2737 C2734 1.403 . S
C2737 C2738 1.392 . S
C2737 C2741 1.495 . S
C2738 C2737 1.392 . S
C2738 C2739 1.385 . S
C2738 C2740 1.478 . S
C2739 H2733 0.930 . S
C2739 C2735 1.400 . S
C2739 C2738 1.385 . S
C2740 C2738 1.478 . S
C2740 C2742 1.381 . S
C2740 C2746 1.383 . S
C2741 C2737 1.495 . S
C2741 H2747 0.959 . S
C2741 H2748 0.961 . S
C2741 H2749 0.960 . S
C2742 C2740 1.381 . S
C2742 C2743 1.394 . S
C2742 H2750 0.930 . S
C2743 C2742 1.394 . S
C2743 C2744 1.383 . S
C2743 H2751 0.929 . S
C2744 C2743 1.383 . S
C2744 C2745 1.377 . S
C2745 H2729 0.930 . S
C2745 C2744 1.377 . S
C2745 C2746 1.379 . S
C2746 H2730 0.931 . S
C2746 C2740 1.383 . S
C2746 C2745 1.379 . S
H2747 C2741 0.959 . S
H2748 C2741 0.961 . S
H2749 C2741 0.960 . S
H2750 C2742 0.930 . S
H2751 C2743 0.929 . S
H2752 C2760 0.929 . S
H2753 C2762 0.930 . S
H2754 C2764 0.922 1_654 S
H2755 C2767 0.929 . S
H2756 C2770 0.930 . S
H2757 C2772 0.960 . S
H2758 C2772 0.960 . S
H2759 C2772 0.960 . S
C2760 H2752 0.929 . S
C2760 C2761 1.377 . S
C2760 C2762 1.384 . S
C2761 C2760 1.377 . S
C2761 C2767 1.390 1_455 S
C2762 H2753 0.930 . S
C2762 C2760 1.384 . S
C2762 C2763 1.372 . S
C2763 C2762 1.372 . S
C2763 C2764 1.405 . S
C2763 C2768 1.490 . S
C2764 H2754 0.922 1_456 S
C2764 C2763 1.405 . S
C2764 C2767 1.388 1_455 S
H2765 C2781 0.930 1_655 S
H2766 C2782 0.931 1_655 S
C2767 H2755 0.929 . S
C2767 C2761 1.390 1_655 S
C2767 C2764 1.388 1_655 S
C2768 C2763 1.490 . S
C2768 C2770 1.395 . S
C2768 C2771 1.403 1_556 S
H2769 C2775 0.930 . S
C2770 H2756 0.930 . S
C2770 C2768 1.395 . S
C2770 C2773 1.403 . S
C2771 C2768 1.403 1_554 S
C2771 C2772 1.524 . S
C2771 C2775 1.400 . S
C2772 H2757 0.960 . S
C2772 H2758 0.960 . S
C2772 H2759 0.960 . S
C2772 C2771 1.524 . S
C2773 C2770 1.403 . S
C2773 C2774 1.392 . S
C2773 C2777 1.495 . S
C2774 C2773 1.392 . S
C2774 C2775 1.385 1_556 S
C2774 C2776 1.478 1_556 S
C2775 H2769 0.930 . S
C2775 C2771 1.400 . S
C2775 C2774 1.385 1_554 S
C2776 C2774 1.478 1_554 S
C2776 C2778 1.383 1_554 S
C2776 C2782 1.380 . S
C2777 C2773 1.495 . S
C2777 H2783 0.959 1_455 S
C2777 H2784 0.961 1_455 S
C2777 H2785 0.960 . S
C2778 C2776 1.383 1_556 S
C2778 C2779 1.404 . S
C2778 H2786 0.930 . S
C2779 C2778 1.404 . S
C2779 C2780 1.350 1_556 S
C2779 H2787 0.955 . S
C2780 C2779 1.350 1_554 S
C2780 C2781 1.377 . S
C2781 H2765 0.930 1_455 S
C2781 C2780 1.377 . S
C2781 C2782 1.379 . S
C2782 H2766 0.931 1_455 S
C2782 C2776 1.380 . S
C2782 C2781 1.379 . S
H2783 C2777 0.959 1_655 S
H2784 C2777 0.961 1_655 S
H2785 C2777 0.960 . S
H2786 C2778 0.930 . S
H2787 C2779 0.955 . S
H2788 C2796 0.929 . S
H2789 C2798 0.930 . S
H2790 C2800 0.930 . S
H2791 C2803 0.929 1_455 S
H2792 C2806 0.930 . S
H2793 C2808 0.960 . S
H2794 C2808 0.960 . S
H2795 C2808 0.960 . S
C2796 H2788 0.929 . S
C2796 C2797 1.377 . S
C2796 C2798 1.384 . S
C2797 C2796 1.377 . S
C2797 C2803 1.390 . S
C2798 H2789 0.930 . S
C2798 C2796 1.384 . S
C2798 C2799 1.372 . S
C2799 C2798 1.372 . S
C2799 C2800 1.400 . S
C2799 C2804 1.490 . S
C2800 H2790 0.930 . S
C2800 C2799 1.400 . S
C2800 C2803 1.386 . S
H2801 C2817 0.930 . S
H2802 C2818 0.931 . S
C2803 H2791 0.929 1_655 S
C2803 C2797 1.390 . S
C2803 C2800 1.386 . S
C2804 C2799 1.490 . S
C2804 C2806 1.395 . S
C2804 C2807 1.403 . S
H2805 C2811 0.930 . S
C2806 H2792 0.930 . S
C2806 C2804 1.395 . S
C2806 C2809 1.403 . S
C2807 C2804 1.403 . S
C2807 C2808 1.524 . S
C2807 C2811 1.400 . S
C2808 H2793 0.960 . S
C2808 H2794 0.960 . S
C2808 H2795 0.960 . S
C2808 C2807 1.524 . S
C2809 C2806 1.403 . S
C2809 C2810 1.392 . S
C2809 C2813 1.495 . S
C2810 C2809 1.392 . S
C2810 C2811 1.385 . S
C2810 C2812 1.478 . S
C2811 H2805 0.930 . S
C2811 C2807 1.400 . S
C2811 C2810 1.385 . S
C2812 C2810 1.478 . S
C2812 C2814 1.381 . S
C2812 C2818 1.383 . S
C2813 C2809 1.495 . S
C2813 H2819 0.959 . S
C2813 H2820 0.961 . S
C2813 H2821 0.960 . S
C2814 C2812 1.381 . S
C2814 C2815 1.394 . S
C2814 H2822 0.930 . S
C2815 C2814 1.394 . S
C2815 C2816 1.383 . S
C2815 H2823 0.929 . S
C2816 C2815 1.383 . S
C2816 C2817 1.377 . S
C2817 H2801 0.930 . S
C2817 C2816 1.377 . S
C2817 C2818 1.379 . S
C2818 H2802 0.931 . S
C2818 C2812 1.383 . S
C2818 C2817 1.379 . S
H2819 C2813 0.959 . S
H2820 C2813 0.961 . S
H2821 C2813 0.960 . S
H2822 C2814 0.930 . S
H2823 C2815 0.929 . S
H2824 C2832 0.929 . S
H2825 C2834 0.930 . S
H2826 C2836 0.930 . S
H2827 C2839 0.929 . S
H2828 C2842 0.930 . S
H2829 C2844 0.960 . S
H2830 C2844 0.960 . S
H2831 C2844 0.960 . S
C2832 H2824 0.929 . S
C2832 C2833 1.377 . S
C2832 C2834 1.384 . S
C2833 C2832 1.377 . S
C2833 C2839 1.390 . S
C2834 H2825 0.930 . S
C2834 C2832 1.384 . S
C2834 C2835 1.372 . S
C2835 C2834 1.372 . S
C2835 C2836 1.400 . S
C2835 C2840 1.490 . S
C2836 H2826 0.930 . S
C2836 C2835 1.400 . S
C2836 C2839 1.386 . S
H2837 C2853 0.930 . S
H2838 C2854 0.931 . S
C2839 H2827 0.929 . S
C2839 C2833 1.390 . S
C2839 C2836 1.386 . S
C2840 C2835 1.490 . S
C2840 C2842 1.395 . S
C2840 C2843 1.403 . S
H2841 C2847 0.930 . S
C2842 H2828 0.930 . S
C2842 C2840 1.395 . S
C2842 C2845 1.403 . S
C2843 C2840 1.403 . S
C2843 C2844 1.524 . S
C2843 C2847 1.400 . S
C2844 H2829 0.960 . S
C2844 H2830 0.960 . S
C2844 H2831 0.960 . S
C2844 C2843 1.524 . S
C2845 C2842 1.403 . S
C2845 C2846 1.392 . S
C2845 C2849 1.495 . S
C2846 C2845 1.392 . S
C2846 C2847 1.385 . S
C2846 C2848 1.478 . S
C2847 H2841 0.930 . S
C2847 C2843 1.400 . S
C2847 C2846 1.385 . S
C2848 C2846 1.478 . S
C2848 C2850 1.381 . S
C2848 C2854 1.383 . S
C2849 C2845 1.495 . S
C2849 H2855 0.959 . S
C2849 H2856 0.961 . S
C2849 H2857 0.960 . S
C2850 C2848 1.381 . S
C2850 C2851 1.394 . S
C2850 H2858 0.930 . S
C2851 C2850 1.394 . S
C2851 C2852 1.383 . S
C2851 H2859 0.929 . S
C2852 C2851 1.383 . S
C2852 C2853 1.377 . S
C2853 H2837 0.930 . S
C2853 C2852 1.377 . S
C2853 C2854 1.379 . S
C2854 H2838 0.931 . S
C2854 C2848 1.383 . S
C2854 C2853 1.379 . S
H2855 C2849 0.959 . S
H2856 C2849 0.961 . S
H2857 C2849 0.960 . S
H2858 C2850 0.930 . S
H2859 C2851 0.929 . S
H2860 C2868 0.929 . S
H2861 C2870 0.930 . S
H2862 C2872 0.930 . S
H2863 C2875 0.929 . S
H2864 C2878 0.930 . S
H2865 C2880 0.960 . S
H2866 C2880 0.960 . S
H2867 C2880 0.960 . S
C2868 H2860 0.929 . S
C2868 C2869 1.377 . S
C2868 C2870 1.384 . S
C2869 C2868 1.377 . S
C2869 C2875 1.390 . S
C2870 H2861 0.930 . S
C2870 C2868 1.384 . S
C2870 C2871 1.372 . S
C2871 C2870 1.372 . S
C2871 C2872 1.400 . S
C2871 C2876 1.490 . S
C2872 H2862 0.930 . S
C2872 C2871 1.400 . S
C2872 C2875 1.386 . S
H2873 C2889 0.930 . S
H2874 C2890 0.931 . S
C2875 H2863 0.929 . S
C2875 C2869 1.390 . S
C2875 C2872 1.386 . S
C2876 C2871 1.490 . S
C2876 C2878 1.395 . S
C2876 C2879 1.403 . S
H2877 C2883 0.930 . S
C2878 H2864 0.930 . S
C2878 C2876 1.395 . S
C2878 C2881 1.403 . S
C2879 C2876 1.403 . S
C2879 C2880 1.524 . S
C2879 C2883 1.400 . S
C2880 H2865 0.960 . S
C2880 H2866 0.960 . S
C2880 H2867 0.960 . S
C2880 C2879 1.524 . S
C2881 C2878 1.403 . S
C2881 C2882 1.392 . S
C2881 C2885 1.495 . S
C2882 C2881 1.392 . S
C2882 C2883 1.385 . S
C2882 C2884 1.478 . S
C2883 H2877 0.930 . S
C2883 C2879 1.400 . S
C2883 C2882 1.385 . S
C2884 C2882 1.478 . S
C2884 C2886 1.381 . S
C2884 C2890 1.383 . S
C2885 C2881 1.495 . S
C2885 H2891 0.959 . S
C2885 H2892 0.961 . S
C2885 H2893 0.960 . S
C2886 C2884 1.381 . S
C2886 C2887 1.394 . S
C2886 H2894 0.930 . S
C2887 C2886 1.394 . S
C2887 C2888 1.383 . S
C2887 H2895 0.929 . S
C2888 C2887 1.383 . S
C2888 C2889 1.377 . S
C2889 H2873 0.930 . S
C2889 C2888 1.377 . S
C2889 C2890 1.379 . S
C2890 H2874 0.931 . S
C2890 C2884 1.383 . S
C2890 C2889 1.379 . S
H2891 C2885 0.959 . S
H2892 C2885 0.961 . S
H2893 C2885 0.960 . S
H2894 C2886 0.930 . S
H2895 C2887 0.929 . S
H2896 C2904 0.929 . S
H2897 C2906 0.930 . S
H2898 C2908 0.930 . S
H2899 C2911 0.929 . S
H2900 C2914 0.930 1_655 S
H2901 C2916 0.960 . S
H2902 C2916 0.960 . S
H2903 C2916 0.960 . S
C2904 H2896 0.929 . S
C2904 C2905 1.377 . S
C2904 C2906 1.384 . S
C2905 C2904 1.377 . S
C2905 C2911 1.390 . S
C2906 H2897 0.930 . S
C2906 C2904 1.384 . S
C2906 C2907 1.372 . S
C2907 C2906 1.372 . S
C2907 C2908 1.400 . S
C2907 C2912 1.490 . S
C2908 H2898 0.930 . S
C2908 C2907 1.400 . S
C2908 C2911 1.386 . S
H2909 C2925 0.930 . S
H2910 C2926 0.931 . S
C2911 H2899 0.929 . S
C2911 C2905 1.390 . S
C2911 C2908 1.386 . S
C2912 C2907 1.490 . S
C2912 C2914 1.395 . S
C2912 C2915 1.403 . S
H2913 C2919 0.930 . S
C2914 H2900 0.930 1_455 S
C2914 C2912 1.395 . S
C2914 C2917 1.403 . S
C2915 C2912 1.403 . S
C2915 C2916 1.524 . S
C2915 C2919 1.400 . S
C2916 H2901 0.960 . S
C2916 H2902 0.960 . S
C2916 H2903 0.960 . S
C2916 C2915 1.524 . S
C2917 C2914 1.403 . S
C2917 C2918 1.392 . S
C2917 C2921 1.495 1_455 S
C2918 C2917 1.392 . S
C2918 C2919 1.385 . S
C2918 C2920 1.478 . S
C2919 H2913 0.930 . S
C2919 C2915 1.400 . S
C2919 C2918 1.385 . S
C2920 C2918 1.478 . S
C2920 C2922 1.381 . S
C2920 C2926 1.383 . S
C2921 C2917 1.495 1_655 S
C2921 H2927 0.959 . S
C2921 H2928 0.961 . S
C2921 H2929 0.960 . S
C2922 C2920 1.381 . S
C2922 C2923 1.394 . S
C2922 H2930 0.930 . S
C2923 C2922 1.394 . S
C2923 C2924 1.383 . S
C2923 H2931 0.929 . S
C2924 C2923 1.383 . S
C2924 C2925 1.377 . S
C2925 H2909 0.930 . S
C2925 C2924 1.377 . S
C2925 C2926 1.379 . S
C2926 H2910 0.931 . S
C2926 C2920 1.383 . S
C2926 C2925 1.379 . S
H2927 C2921 0.959 . S
H2928 C2921 0.961 . S
H2929 C2921 0.960 . S
H2930 C2922 0.930 . S
H2931 C2923 0.929 . S
H2932 C2940 0.929 . S
H2933 C2942 0.930 . S
H2934 C2944 0.930 . S
H2935 C2947 0.929 . S
H2936 C2950 0.930 . S
H2937 C2952 0.960 . S
H2938 C2952 0.960 . S
H2939 C2952 0.960 . S
C2940 H2932 0.929 . S
C2940 C2941 1.377 . S
C2940 C2942 1.384 . S
C2941 C2940 1.377 . S
C2941 C2947 1.390 . S
C2942 H2933 0.930 . S
C2942 C2940 1.384 . S
C2942 C2943 1.372 . S
C2943 C2942 1.372 . S
C2943 C2944 1.400 . S
C2943 C2948 1.490 . S
C2944 H2934 0.930 . S
C2944 C2943 1.400 . S
C2944 C2947 1.386 . S
H2945 C2961 0.930 . S
H2946 C2962 0.931 . S
C2947 H2935 0.929 . S
C2947 C2941 1.390 . S
C2947 C2944 1.386 . S
C2948 C2943 1.490 . S
C2948 C2950 1.395 . S
C2948 C2951 1.403 . S
H2949 C2955 0.930 . S
C2950 H2936 0.930 . S
C2950 C2948 1.395 . S
C2950 C2953 1.403 . S
C2951 C2948 1.403 . S
C2951 C2952 1.524 . S
C2951 C2955 1.400 . S
C2952 H2937 0.960 . S
C2952 H2938 0.960 . S
C2952 H2939 0.960 . S
C2952 C2951 1.524 . S
C2953 C2950 1.403 . S
C2953 C2954 1.392 . S
C2953 C2957 1.495 . S
C2954 C2953 1.392 . S
C2954 C2955 1.385 . S
C2954 C2956 1.478 . S
C2955 H2949 0.930 . S
C2955 C2951 1.400 . S
C2955 C2954 1.385 . S
C2956 C2954 1.478 . S
C2956 C2958 1.381 . S
C2956 C2962 1.383 . S
C2957 C2953 1.495 . S
C2957 H2963 0.959 . S
C2957 H2964 0.961 . S
C2957 H2965 0.960 . S
C2958 C2956 1.381 . S
C2958 C2959 1.394 . S
C2958 H2966 0.930 . S
C2959 C2958 1.394 . S
C2959 C2960 1.383 . S
C2959 H2967 0.929 . S
C2960 C2959 1.383 . S
C2960 C2961 1.377 . S
C2961 H2945 0.930 . S
C2961 C2960 1.377 . S
C2961 C2962 1.379 . S
C2962 H2946 0.931 . S
C2962 C2956 1.383 . S
C2962 C2961 1.379 . S
H2963 C2957 0.959 . S
H2964 C2957 0.961 . S
H2965 C2957 0.960 . S
H2966 C2958 0.930 . S
H2967 C2959 0.929 . S
H2968 C2976 0.929 . S
H2969 C2978 0.930 . S
H2970 C2980 0.930 . S
H2971 C2983 0.929 . S
H2972 C2986 0.930 . S
H2973 C2988 0.960 . S
H2974 C2988 0.960 . S
H2975 C2988 0.960 . S
C2976 H2968 0.929 . S
C2976 C2977 1.377 . S
C2976 C2978 1.384 . S
C2977 C2976 1.377 . S
C2977 C2983 1.390 . S
C2978 H2969 0.930 . S
C2978 C2976 1.384 . S
C2978 C2979 1.372 . S
C2979 C2978 1.372 . S
C2979 C2980 1.400 . S
C2979 C2984 1.490 . S
C2980 H2970 0.930 . S
C2980 C2979 1.400 . S
C2980 C2983 1.386 . S
H2981 C2997 0.930 . S
H2982 C2998 0.931 . S
C2983 H2971 0.929 . S
C2983 C2977 1.390 . S
C2983 C2980 1.386 . S
C2984 C2979 1.490 . S
C2984 C2986 1.395 . S
C2984 C2987 1.403 . S
H2985 C2991 0.930 . S
C2986 H2972 0.930 . S
C2986 C2984 1.395 . S
C2986 C2989 1.403 . S
C2987 C2984 1.403 . S
C2987 C2988 1.524 . S
C2987 C2991 1.400 . S
C2988 H2973 0.960 . S
C2988 H2974 0.960 . S
C2988 H2975 0.960 . S
C2988 C2987 1.524 . S
C2989 C2986 1.403 . S
C2989 C2990 1.392 . S
C2989 C2993 1.495 . S
C2990 C2989 1.392 . S
C2990 C2991 1.385 . S
C2990 C2992 1.478 . S
C2991 H2985 0.930 . S
C2991 C2987 1.400 . S
C2991 C2990 1.385 . S
C2992 C2990 1.478 . S
C2992 C2994 1.381 . S
C2992 C2998 1.383 . S
C2993 C2989 1.495 . S
C2993 H2999 0.959 . S
C2993 H3000 0.961 . S
C2993 H3001 0.960 . S
C2994 C2992 1.381 . S
C2994 C2995 1.394 . S
C2994 H3002 0.930 . S
C2995 C2994 1.394 . S
C2995 C2996 1.383 . S
C2995 H3003 0.929 . S
C2996 C2995 1.383 . S
C2996 C2997 1.377 . S
C2997 H2981 0.930 . S
C2997 C2996 1.377 . S
C2997 C2998 1.379 . S
C2998 H2982 0.931 . S
C2998 C2992 1.383 . S
C2998 C2997 1.379 . S
H2999 C2993 0.959 . S
H3000 C2993 0.961 . S
H3001 C2993 0.960 . S
H3002 C2994 0.930 . S
H3003 C2995 0.929 . S
H3004 C3012 0.929 . S
H3005 C3014 0.930 . S
H3006 C3016 0.930 . S
H3007 C3019 0.929 . S
H3008 C3022 0.930 . S
H3009 C3024 0.960 . S
H3010 C3024 0.960 . S
H3011 C3024 0.960 . S
C3012 H3004 0.929 . S
C3012 C3013 1.377 . S
C3012 C3014 1.384 1_554 S
C3013 C3012 1.377 . S
C3013 C3019 1.390 . S
C3014 H3005 0.930 . S
C3014 C3012 1.384 1_556 S
C3014 C3015 1.372 . S
C3015 C3014 1.372 . S
C3015 C3016 1.400 . S
C3015 C3020 1.490 . S
C3016 H3006 0.930 . S
C3016 C3015 1.400 . S
C3016 C3019 1.386 1_556 S
H3017 C3033 0.930 . S
H3018 C3034 0.931 . S
C3019 H3007 0.929 . S
C3019 C3013 1.390 . S
C3019 C3016 1.386 1_554 S
C3020 C3015 1.490 . S
C3020 C3022 1.395 . S
C3020 C3023 1.403 . S
H3021 C3027 0.930 . S
C3022 H3008 0.930 . S
C3022 C3020 1.395 . S
C3022 C3025 1.403 . S
C3023 C3020 1.403 . S
C3023 C3024 1.524 . S
C3023 C3027 1.400 . S
C3024 H3009 0.960 . S
C3024 H3010 0.960 . S
C3024 H3011 0.960 . S
C3024 C3023 1.524 . S
C3025 C3022 1.403 . S
C3025 C3026 1.392 . S
C3025 C3029 1.495 . S
C3026 C3025 1.392 . S
C3026 C3027 1.385 . S
C3026 C3028 1.478 . S
C3027 H3021 0.930 . S
C3027 C3023 1.400 . S
C3027 C3026 1.385 . S
C3028 C3026 1.478 . S
C3028 C3030 1.381 . S
C3028 C3034 1.383 . S
C3029 C3025 1.495 . S
C3029 H3035 0.959 . S
C3029 H3036 0.961 . S
C3029 H3037 0.960 . S
C3030 C3028 1.381 . S
C3030 C3031 1.394 . S
C3030 H3038 0.930 . S
C3031 C3030 1.394 . S
C3031 C3032 1.383 . S
C3031 H3039 0.929 . S
C3032 C3031 1.383 . S
C3032 C3033 1.377 . S
C3033 H3017 0.930 . S
C3033 C3032 1.377 . S
C3033 C3034 1.379 . S
C3034 H3018 0.931 . S
C3034 C3028 1.383 . S
C3034 C3033 1.379 . S
H3035 C3029 0.959 . S
H3036 C3029 0.961 . S
H3037 C3029 0.960 . S
H3038 C3030 0.930 . S
H3039 C3031 0.929 . S
H3040 C3048 0.929 . S
H3041 C3050 0.930 . S
H3042 C3052 0.930 . S
H3043 C3055 0.929 . S
H3044 C3058 0.930 . S
H3045 C3060 0.960 . S
H3046 C3060 0.960 . S
H3047 C3060 0.960 . S
C3048 H3040 0.929 . S
C3048 C3049 1.377 . S
C3048 C3050 1.384 . S
C3049 C3048 1.377 . S
C3049 C3055 1.390 . S
C3050 H3041 0.930 . S
C3050 C3048 1.384 . S
C3050 C3051 1.372 . S
C3051 C3050 1.372 . S
C3051 C3052 1.400 . S
C3051 C3056 1.490 . S
C3052 H3042 0.930 . S
C3052 C3051 1.400 . S
C3052 C3055 1.386 . S
H3053 C3069 0.930 . S
H3054 C3070 0.931 . S
C3055 H3043 0.929 . S
C3055 C3049 1.390 . S
C3055 C3052 1.386 . S
C3056 C3051 1.490 . S
C3056 C3058 1.395 . S
C3056 C3059 1.403 . S
H3057 C3063 0.930 . S
C3058 H3044 0.930 . S
C3058 C3056 1.395 . S
C3058 C3061 1.403 . S
C3059 C3056 1.403 . S
C3059 C3060 1.524 . S
C3059 C3063 1.400 . S
C3060 H3045 0.960 . S
C3060 H3046 0.960 . S
C3060 H3047 0.960 . S
C3060 C3059 1.524 . S
C3061 C3058 1.403 . S
C3061 C3062 1.392 . S
C3061 C3065 1.495 . S
C3062 C3061 1.392 . S
C3062 C3063 1.385 . S
C3062 C3064 1.478 . S
C3063 H3057 0.930 . S
C3063 C3059 1.400 . S
C3063 C3062 1.385 . S
C3064 C3062 1.478 . S
C3064 C3066 1.381 . S
C3064 C3070 1.383 . S
C3065 C3061 1.495 . S
C3065 H3071 0.959 . S
C3065 H3072 0.961 . S
C3065 H3073 0.960 . S
C3066 C3064 1.381 . S
C3066 C3067 1.394 . S
C3066 H3074 0.930 . S
C3067 C3066 1.394 . S
C3067 C3068 1.383 . S
C3067 H3075 0.929 . S
C3068 C3067 1.383 . S
C3068 C3069 1.377 . S
C3069 H3053 0.930 . S
C3069 C3068 1.377 . S
C3069 C3070 1.379 . S
C3070 H3054 0.931 . S
C3070 C3064 1.383 . S
C3070 C3069 1.379 . S
H3071 C3065 0.959 . S
H3072 C3065 0.961 . S
H3073 C3065 0.960 . S
H3074 C3066 0.930 . S
H3075 C3067 0.929 . S
H3076 C3084 0.929 . S
H3077 C3086 0.930 . S
H3078 C3088 0.930 . S
H3079 C3091 0.929 . S
H3080 C3094 0.930 . S
H3081 C3096 0.960 . S
H3082 C3096 0.960 . S
H3083 C3096 0.960 . S
C3084 H3076 0.929 . S
C3084 C3085 1.377 . S
C3084 C3086 1.384 . S
C3085 C3084 1.377 . S
C3085 C3091 1.390 . S
C3086 H3077 0.930 . S
C3086 C3084 1.384 . S
C3086 C3087 1.372 . S
C3087 C3086 1.372 . S
C3087 C3088 1.400 . S
C3087 C3092 1.490 . S
C3088 H3078 0.930 . S
C3088 C3087 1.400 . S
C3088 C3091 1.386 . S
H3089 C3105 0.930 . S
H3090 C3106 0.931 . S
C3091 H3079 0.929 . S
C3091 C3085 1.390 . S
C3091 C3088 1.386 . S
C3092 C3087 1.490 . S
C3092 C3094 1.395 . S
C3092 C3095 1.403 . S
H3093 C3099 0.930 . S
C3094 H3080 0.930 . S
C3094 C3092 1.395 . S
C3094 C3097 1.403 . S
C3095 C3092 1.403 . S
C3095 C3096 1.524 . S
C3095 C3099 1.400 . S
C3096 H3081 0.960 . S
C3096 H3082 0.960 . S
C3096 H3083 0.960 . S
C3096 C3095 1.524 . S
C3097 C3094 1.403 . S
C3097 C3098 1.392 . S
C3097 C3101 1.495 . S
C3098 C3097 1.392 . S
C3098 C3099 1.385 . S
C3098 C3100 1.478 . S
C3099 H3093 0.930 . S
C3099 C3095 1.400 . S
C3099 C3098 1.385 . S
C3100 C3098 1.478 . S
C3100 C3102 1.381 . S
C3100 C3106 1.383 . S
C3101 C3097 1.495 . S
C3101 H3107 0.959 . S
C3101 H3108 0.961 . S
C3101 H3109 0.960 . S
C3102 C3100 1.381 . S
C3102 C3103 1.394 . S
C3102 H3110 0.930 . S
C3103 C3102 1.394 . S
C3103 C3104 1.383 . S
C3103 H3111 0.929 . S
C3104 C3103 1.383 . S
C3104 C3105 1.377 . S
C3105 H3089 0.930 . S
C3105 C3104 1.377 . S
C3105 C3106 1.379 . S
C3106 H3090 0.931 . S
C3106 C3100 1.383 . S
C3106 C3105 1.379 . S
H3107 C3101 0.959 . S
H3108 C3101 0.961 . S
H3109 C3101 0.960 . S
H3110 C3102 0.930 . S
H3111 C3103 0.929 . S
H3112 C3120 0.929 . S
H3113 C3122 0.930 . S
H3114 C3124 0.930 . S
H3115 C3127 0.929 . S
H3116 C3130 0.930 . S
H3117 C3132 0.960 . S
H3118 C3132 0.960 . S
H3119 C3132 0.960 . S
C3120 H3112 0.929 . S
C3120 C3121 1.377 . S
C3120 C3122 1.384 . S
C3121 C3120 1.377 . S
C3121 C3127 1.390 . S
C3122 H3113 0.930 . S
C3122 C3120 1.384 . S
C3122 C3123 1.372 . S
C3123 C3122 1.372 . S
C3123 C3124 1.400 . S
C3123 C3128 1.490 . S
C3124 H3114 0.930 . S
C3124 C3123 1.400 . S
C3124 C3127 1.386 . S
H3125 C3141 0.930 . S
H3126 C3142 0.931 . S
C3127 H3115 0.929 . S
C3127 C3121 1.390 . S
C3127 C3124 1.386 . S
C3128 C3123 1.490 . S
C3128 C3130 1.395 . S
C3128 C3131 1.403 . S
H3129 C3135 0.930 . S
C3130 H3116 0.930 . S
C3130 C3128 1.395 . S
C3130 C3133 1.403 . S
C3131 C3128 1.403 . S
C3131 C3132 1.524 . S
C3131 C3135 1.400 . S
C3132 H3117 0.960 . S
C3132 H3118 0.960 . S
C3132 H3119 0.960 . S
C3132 C3131 1.524 . S
C3133 C3130 1.403 . S
C3133 C3134 1.392 . S
C3133 C3137 1.495 . S
C3134 C3133 1.392 . S
C3134 C3135 1.385 . S
C3134 C3136 1.478 . S
C3135 H3129 0.930 . S
C3135 C3131 1.400 . S
C3135 C3134 1.385 . S
C3136 C3134 1.478 . S
C3136 C3138 1.381 . S
C3136 C3142 1.383 . S
C3137 C3133 1.495 . S
C3137 H3143 0.959 . S
C3137 H3144 0.961 . S
C3137 H3145 0.960 . S
C3138 C3136 1.381 . S
C3138 C3139 1.394 . S
C3138 H3146 0.930 . S
C3139 C3138 1.394 . S
C3139 C3140 1.383 . S
C3139 H3147 0.929 . S
C3140 C3139 1.383 . S
C3140 C3141 1.377 . S
C3141 H3125 0.930 . S
C3141 C3140 1.377 . S
C3141 C3142 1.379 . S
C3142 H3126 0.931 . S
C3142 C3136 1.383 . S
C3142 C3141 1.379 . S
H3143 C3137 0.959 . S
H3144 C3137 0.961 . S
H3145 C3137 0.960 . S
H3146 C3138 0.930 . S
H3147 C3139 0.929 . S
H3148 C3156 0.929 . S
H3149 C3158 0.930 . S
H3150 C3160 0.930 . S
H3151 C3163 0.929 . S
H3152 C3166 0.930 . S
H3153 C3168 0.960 . S
H3154 C3168 0.960 . S
H3155 C3168 0.960 . S
C3156 H3148 0.929 . S
C3156 C3157 1.377 . S
C3156 C3158 1.384 . S
C3157 C3156 1.377 . S
C3157 C3163 1.390 . S
C3158 H3149 0.930 . S
C3158 C3156 1.384 . S
C3158 C3159 1.372 . S
C3159 C3158 1.372 . S
C3159 C3160 1.400 . S
C3159 C3164 1.490 . S
C3160 H3150 0.930 . S
C3160 C3159 1.400 . S
C3160 C3163 1.386 . S
H3161 C3177 0.930 . S
H3162 C3178 0.931 . S
C3163 H3151 0.929 . S
C3163 C3157 1.390 . S
C3163 C3160 1.386 . S
C3164 C3159 1.490 . S
C3164 C3166 1.395 . S
C3164 C3167 1.403 . S
H3165 C3171 0.930 . S
C3166 H3152 0.930 . S
C3166 C3164 1.395 . S
C3166 C3169 1.403 . S
C3167 C3164 1.403 . S
C3167 C3168 1.524 . S
C3167 C3171 1.400 . S
C3168 H3153 0.960 . S
C3168 H3154 0.960 . S
C3168 H3155 0.960 . S
C3168 C3167 1.524 . S
C3169 C3166 1.403 . S
C3169 C3170 1.392 . S
C3169 C3173 1.495 . S
C3170 C3169 1.392 . S
C3170 C3171 1.385 . S
C3170 C3172 1.478 . S
C3171 H3165 0.930 . S
C3171 C3167 1.400 . S
C3171 C3170 1.385 . S
C3172 C3170 1.478 . S
C3172 C3174 1.381 . S
C3172 C3178 1.383 . S
C3173 C3169 1.495 . S
C3173 H3179 0.959 . S
C3173 H3180 0.961 . S
C3173 H3181 0.960 . S
C3174 C3172 1.381 . S
C3174 C3175 1.394 . S
C3174 H3182 0.930 . S
C3175 C3174 1.394 . S
C3175 C3176 1.383 . S
C3175 H3183 0.929 . S
C3176 C3175 1.383 . S
C3176 C3177 1.377 . S
C3177 H3161 0.930 . S
C3177 C3176 1.377 . S
C3177 C3178 1.379 . S
C3178 H3162 0.931 . S
C3178 C3172 1.383 . S
C3178 C3177 1.379 . S
H3179 C3173 0.959 . S
H3180 C3173 0.961 . S
H3181 C3173 0.960 . S
H3182 C3174 0.930 . S
H3183 C3175 0.929 . S
H3184 C3192 0.929 . S
H3185 C3194 0.930 . S
H3186 C3196 0.930 . S
H3187 C3199 0.929 . S
H3188 C3202 0.930 . S
H3189 C3204 0.960 . S
H3190 C3204 0.960 . S
H3191 C3204 0.960 . S
C3192 H3184 0.929 . S
C3192 C3193 1.377 . S
C3192 C3194 1.384 . S
C3193 C3192 1.377 . S
C3193 C3199 1.390 . S
C3194 H3185 0.930 . S
C3194 C3192 1.384 . S
C3194 C3195 1.372 . S
C3195 C3194 1.372 . S
C3195 C3196 1.400 . S
C3195 C3200 1.490 . S
C3196 H3186 0.930 . S
C3196 C3195 1.400 . S
C3196 C3199 1.386 . S
H3197 C3213 0.930 . S
H3198 C3214 0.931 . S
C3199 H3187 0.929 . S
C3199 C3193 1.390 . S
C3199 C3196 1.386 . S
C3200 C3195 1.490 . S
C3200 C3202 1.395 . S
C3200 C3203 1.403 . S
H3201 C3207 0.930 . S
C3202 H3188 0.930 . S
C3202 C3200 1.395 . S
C3202 C3205 1.403 . S
C3203 C3200 1.403 . S
C3203 C3204 1.524 . S
C3203 C3207 1.400 . S
C3204 H3189 0.960 . S
C3204 H3190 0.960 . S
C3204 H3191 0.960 . S
C3204 C3203 1.524 . S
C3205 C3202 1.403 . S
C3205 C3206 1.392 . S
C3205 C3209 1.495 . S
C3206 C3205 1.392 . S
C3206 C3207 1.385 . S
C3206 C3208 1.478 . S
C3207 H3201 0.930 . S
C3207 C3203 1.400 . S
C3207 C3206 1.385 . S
C3208 C3206 1.478 . S
C3208 C3210 1.381 . S
C3208 C3214 1.383 . S
C3209 C3205 1.495 . S
C3209 H3215 0.959 . S
C3209 H3216 0.961 . S
C3209 H3217 0.960 . S
C3210 C3208 1.381 . S
C3210 C3211 1.394 . S
C3210 H3218 0.930 . S
C3211 C3210 1.394 . S
C3211 C3212 1.383 . S
C3211 H3219 0.929 . S
C3212 C3211 1.383 . S
C3212 C3213 1.377 . S
C3213 H3197 0.930 . S
C3213 C3212 1.377 . S
C3213 C3214 1.379 . S
C3214 H3198 0.931 . S
C3214 C3208 1.383 . S
C3214 C3213 1.379 . S
H3215 C3209 0.959 . S
H3216 C3209 0.961 . S
H3217 C3209 0.960 . S
H3218 C3210 0.930 . S
H3219 C3211 0.929 . S
H3220 C3228 0.929 . S
H3221 C3230 0.930 . S
H3222 C3232 0.930 . S
H3223 C3235 0.929 . S
H3224 C3238 0.930 . S
H3225 C3240 0.960 . S
H3226 C3240 0.960 . S
H3227 C3240 0.960 . S
C3228 H3220 0.929 . S
C3228 C3229 1.377 . S
C3228 C3230 1.384 . S
C3229 C3228 1.377 . S
C3229 C3235 1.390 . S
C3230 H3221 0.930 . S
C3230 C3228 1.384 . S
C3230 C3231 1.372 . S
C3231 C3230 1.372 . S
C3231 C3232 1.400 . S
C3231 C3236 1.490 . S
C3232 H3222 0.930 . S
C3232 C3231 1.400 . S
C3232 C3235 1.386 . S
H3233 C3249 0.930 . S
H3234 C3250 0.931 . S
C3235 H3223 0.929 . S
C3235 C3229 1.390 . S
C3235 C3232 1.386 . S
C3236 C3231 1.490 . S
C3236 C3238 1.395 . S
C3236 C3239 1.403 . S
H3237 C3243 0.930 . S
C3238 H3224 0.930 . S
C3238 C3236 1.395 . S
C3238 C3241 1.403 . S
C3239 C3236 1.403 . S
C3239 C3240 1.524 . S
C3239 C3243 1.400 . S
C3240 H3225 0.960 . S
C3240 H3226 0.960 . S
C3240 H3227 0.960 . S
C3240 C3239 1.524 . S
C3241 C3238 1.403 . S
C3241 C3242 1.392 . S
C3241 C3245 1.495 . S
C3242 C3241 1.392 . S
C3242 C3243 1.385 . S
C3242 C3244 1.478 . S
C3243 H3237 0.930 . S
C3243 C3239 1.400 . S
C3243 C3242 1.385 . S
C3244 C3242 1.478 . S
C3244 C3246 1.381 . S
C3244 C3250 1.383 . S
C3245 C3241 1.495 . S
C3245 H3251 0.959 . S
C3245 H3252 0.961 . S
C3245 H3253 0.960 . S
C3246 C3244 1.381 . S
C3246 C3247 1.394 . S
C3246 H3254 0.930 . S
C3247 C3246 1.394 . S
C3247 C3248 1.383 . S
C3247 H3255 0.929 . S
C3248 C3247 1.383 . S
C3248 C3249 1.377 . S
C3249 H3233 0.930 . S
C3249 C3248 1.377 . S
C3249 C3250 1.379 . S
C3250 H3234 0.931 . S
C3250 C3244 1.383 . S
C3250 C3249 1.379 . S
H3251 C3245 0.959 . S
H3252 C3245 0.961 . S
H3253 C3245 0.960 . S
H3254 C3246 0.930 . S
H3255 C3247 0.929 . S
H3256 C3264 0.929 . S
H3257 C3266 0.930 . S
H3258 C3268 0.930 . S
H3259 C3271 0.929 . S
H3260 C3274 0.930 . S
H3261 C3276 0.960 . S
H3262 C3276 0.960 . S
H3263 C3276 0.960 . S
C3264 H3256 0.929 . S
C3264 C3265 1.377 . S
C3264 C3266 1.384 . S
C3265 C3264 1.377 . S
C3265 C3271 1.390 . S
C3266 H3257 0.930 . S
C3266 C3264 1.384 . S
C3266 C3267 1.372 . S
C3267 C3266 1.372 . S
C3267 C3268 1.400 . S
C3267 C3272 1.490 . S
C3268 H3258 0.930 . S
C3268 C3267 1.400 . S
C3268 C3271 1.386 . S
H3269 C3285 0.930 . S
H3270 C3286 0.931 . S
C3271 H3259 0.929 . S
C3271 C3265 1.390 . S
C3271 C3268 1.386 . S
C3272 C3267 1.490 . S
C3272 C3274 1.395 . S
C3272 C3275 1.403 . S
H3273 C3279 0.930 . S
C3274 H3260 0.930 . S
C3274 C3272 1.395 . S
C3274 C3277 1.403 . S
C3275 C3272 1.403 . S
C3275 C3276 1.524 . S
C3275 C3279 1.400 . S
C3276 H3261 0.960 . S
C3276 H3262 0.960 . S
C3276 H3263 0.960 . S
C3276 C3275 1.524 . S
C3277 C3274 1.403 . S
C3277 C3278 1.392 . S
C3277 C3281 1.495 . S
C3278 C3277 1.392 . S
C3278 C3279 1.385 . S
C3278 C3280 1.478 . S
C3279 H3273 0.930 . S
C3279 C3275 1.400 . S
C3279 C3278 1.385 . S
C3280 C3278 1.478 . S
C3280 C3282 1.381 . S
C3280 C3286 1.383 . S
C3281 C3277 1.495 . S
C3281 H3287 0.959 . S
C3281 H3288 0.961 . S
C3281 H3289 0.960 . S
C3282 C3280 1.381 . S
C3282 C3283 1.394 . S
C3282 H3290 0.930 . S
C3283 C3282 1.394 . S
C3283 C3284 1.383 . S
C3283 H3291 0.929 . S
C3284 C3283 1.383 . S
C3284 C3285 1.377 . S
C3285 H3269 0.930 . S
C3285 C3284 1.377 . S
C3285 C3286 1.379 . S
C3286 H3270 0.931 . S
C3286 C3280 1.383 . S
C3286 C3285 1.379 . S
H3287 C3281 0.959 . S
H3288 C3281 0.961 . S
H3289 C3281 0.960 . S
H3290 C3282 0.930 . S
H3291 C3283 0.929 . S
H3292 C3300 0.929 . S
H3293 C3302 0.930 . S
H3294 C3304 0.930 . S
H3295 C3307 0.929 . S
H3296 C3310 0.930 . S
H3297 C3312 0.960 . S
H3298 C3312 0.960 . S
H3299 C3312 0.960 . S
C3300 H3292 0.929 . S
C3300 C3301 1.377 . S
C3300 C3302 1.384 . S
C3301 C3300 1.377 . S
C3301 C3307 1.390 . S
C3302 H3293 0.930 . S
C3302 C3300 1.384 . S
C3302 C3303 1.372 . S
C3303 C3302 1.372 . S
C3303 C3304 1.400 . S
C3303 C3308 1.490 . S
C3304 H3294 0.930 . S
C3304 C3303 1.400 . S
C3304 C3307 1.386 . S
H3305 C3321 0.930 . S
H3306 C3322 0.931 . S
C3307 H3295 0.929 . S
C3307 C3301 1.390 . S
C3307 C3304 1.386 . S
C3308 C3303 1.490 . S
C3308 C3310 1.395 . S
C3308 C3311 1.403 . S
H3309 C3315 0.930 . S
C3310 H3296 0.930 . S
C3310 C3308 1.395 . S
C3310 C3313 1.403 . S
C3311 C3308 1.403 . S
C3311 C3312 1.524 . S
C3311 C3315 1.400 . S
C3312 H3297 0.960 . S
C3312 H3298 0.960 . S
C3312 H3299 0.960 . S
C3312 C3311 1.524 . S
C3313 C3310 1.403 . S
C3313 C3314 1.392 . S
C3313 C3317 1.495 . S
C3314 C3313 1.392 . S
C3314 C3315 1.385 . S
C3314 C3316 1.478 . S
C3315 H3309 0.930 . S
C3315 C3311 1.400 . S
C3315 C3314 1.385 . S
C3316 C3314 1.478 . S
C3316 C3318 1.381 . S
C3316 C3322 1.383 . S
C3317 C3313 1.495 . S
C3317 H3323 0.959 . S
C3317 H3324 0.961 . S
C3317 H3325 0.960 . S
C3318 C3316 1.381 . S
C3318 C3319 1.394 . S
C3318 H3326 0.930 . S
C3319 C3318 1.394 . S
C3319 C3320 1.383 . S
C3319 H3327 0.929 . S
C3320 C3319 1.383 . S
C3320 C3321 1.377 . S
C3321 H3305 0.930 . S
C3321 C3320 1.377 . S
C3321 C3322 1.379 . S
C3322 H3306 0.931 . S
C3322 C3316 1.383 . S
C3322 C3321 1.379 . S
H3323 C3317 0.959 . S
H3324 C3317 0.961 . S
H3325 C3317 0.960 . S
H3326 C3318 0.930 . S
H3327 C3319 0.929 . S
H3328 C3336 0.929 1_545 S
H3329 C3338 0.930 . S
H3330 C3340 0.930 . S
H3331 C3343 0.929 . S
H3332 C3346 0.930 . S
H3333 C3348 0.960 . S
H3334 C3348 0.960 . S
H3335 C3348 0.960 . S
C3336 H3328 0.929 1_565 S
C3336 C3337 1.377 . S
C3336 C3338 1.384 . S
C3337 C3336 1.377 . S
C3337 C3343 1.390 . S
C3338 H3329 0.930 . S
C3338 C3336 1.384 . S
C3338 C3339 1.372 . S
C3339 C3338 1.372 . S
C3339 C3340 1.400 . S
C3339 C3344 1.490 . S
C3340 H3330 0.930 . S
C3340 C3339 1.400 . S
C3340 C3343 1.386 . S
H3341 C3357 0.930 . S
H3342 C3358 0.931 . S
C3343 H3331 0.929 . S
C3343 C3337 1.390 . S
C3343 C3340 1.386 . S
C3344 C3339 1.490 . S
C3344 C3346 1.395 . S
C3344 C3347 1.403 . S
H3345 C3351 0.930 . S
C3346 H3332 0.930 . S
C3346 C3344 1.395 . S
C3346 C3349 1.403 . S
C3347 C3344 1.403 . S
C3347 C3348 1.524 . S
C3347 C3351 1.400 . S
C3348 H3333 0.960 . S
C3348 H3334 0.960 . S
C3348 H3335 0.960 . S
C3348 C3347 1.524 . S
C3349 C3346 1.403 . S
C3349 C3350 1.392 . S
C3349 C3353 1.495 . S
C3350 C3349 1.392 . S
C3350 C3351 1.385 . S
C3350 C3352 1.478 . S
C3351 H3345 0.930 . S
C3351 C3347 1.400 . S
C3351 C3350 1.385 . S
C3352 C3350 1.478 . S
C3352 C3354 1.381 . S
C3352 C3358 1.383 . S
C3353 C3349 1.495 . S
C3353 H3359 0.959 . S
C3353 H3360 0.961 . S
C3353 H3361 0.960 . S
C3354 C3352 1.381 . S
C3354 C3355 1.394 . S
C3354 H3362 0.930 . S
C3355 C3354 1.394 . S
C3355 C3356 1.383 . S
C3355 H3363 0.929 . S
C3356 C3355 1.383 . S
C3356 C3357 1.377 . S
C3357 H3341 0.930 . S
C3357 C3356 1.377 . S
C3357 C3358 1.379 . S
C3358 H3342 0.931 . S
C3358 C3352 1.383 . S
C3358 C3357 1.379 . S
H3359 C3353 0.959 . S
H3360 C3353 0.961 . S
H3361 C3353 0.960 . S
H3362 C3354 0.930 . S
H3363 C3355 0.929 . S
H3364 C3372 0.929 . S
H3365 C3374 0.930 . S
H3366 C3376 0.930 . S
H3367 C3379 0.929 . S
H3368 C3382 0.930 . S
H3369 C3384 0.960 . S
H3370 C3384 0.960 . S
H3371 C3384 0.960 . S
C3372 H3364 0.929 . S
C3372 C3373 1.377 1_556 S
C3372 C3374 1.384 . S
C3373 C3372 1.377 1_554 S
C3373 C3379 1.390 . S
C3374 H3365 0.930 . S
C3374 C3372 1.384 . S
C3374 C3375 1.372 1_556 S
C3375 C3374 1.372 1_554 S
C3375 C3376 1.400 . S
C3375 C3380 1.490 . S
C3376 H3366 0.930 . S
C3376 C3375 1.400 . S
C3376 C3379 1.386 . S
H3377 C3393 0.930 . S
H3378 C3394 0.933 . S
C3379 H3367 0.929 . S
C3379 C3373 1.390 . S
C3379 C3376 1.386 . S
C3380 C3375 1.490 . S
C3380 C3382 1.395 . S
C3380 C3383 1.403 . S
H3381 C3387 0.930 . S
C3382 H3368 0.930 . S
C3382 C3380 1.395 . S
C3382 C3385 1.403 . S
C3383 C3380 1.403 . S
C3383 C3384 1.524 . S
C3383 C3387 1.400 . S
C3384 H3369 0.960 . S
C3384 H3370 0.960 . S
C3384 H3371 0.960 . S
C3384 C3383 1.524 . S
C3385 C3382 1.403 . S
C3385 C3386 1.392 . S
C3385 C3389 1.495 1_565 S
C3386 C3385 1.392 . S
C3386 C3387 1.385 . S
C3386 C3388 1.478 . S
C3387 H3381 0.930 . S
C3387 C3383 1.400 . S
C3387 C3386 1.385 . S
C3388 C3386 1.478 . S
C3388 C3390 1.381 1_565 S
C3388 C3394 1.382 . S
C3389 C3385 1.495 1_545 S
C3389 H3395 0.959 . S
C3389 H3396 0.961 . S
C3389 H3397 0.964 1_554 S
C3390 C3388 1.381 1_545 S
C3390 C3391 1.394 . S
C3390 H3398 0.930 1_554 S
C3391 C3390 1.394 . S
C3391 C3392 1.383 . S
C3391 H3399 0.929 1_554 S
C3392 C3391 1.383 . S
C3392 C3393 1.377 . S
C3393 H3377 0.930 . S
C3393 C3392 1.377 . S
C3393 C3394 1.379 1_545 S
C3394 H3378 0.933 . S
C3394 C3388 1.382 . S
C3394 C3393 1.379 1_565 S
H3395 C3389 0.959 . S
H3396 C3389 0.961 . S
H3397 C3389 0.964 1_556 S
H3398 C3390 0.930 1_556 S
H3399 C3391 0.929 1_556 S
H3400 C3408 0.929 . S
H3401 C3410 0.930 . S
H3402 C3412 0.930 . S
H3403 C3415 0.929 . S
H3404 C3418 0.930 . S
H3405 C3420 0.960 . S
H3406 C3420 0.960 . S
H3407 C3420 0.960 . S
C3408 H3400 0.929 . S
C3408 C3409 1.377 . S
C3408 C3410 1.384 . S
C3409 C3408 1.377 . S
C3409 C3415 1.390 . S
C3410 H3401 0.930 . S
C3410 C3408 1.384 . S
C3410 C3411 1.372 . S
C3411 C3410 1.372 . S
C3411 C3412 1.400 . S
C3411 C3416 1.490 . S
C3412 H3402 0.930 . S
C3412 C3411 1.400 . S
C3412 C3415 1.386 . S
H3413 C3429 0.930 . S
H3414 C3430 0.931 . S
C3415 H3403 0.929 . S
C3415 C3409 1.390 . S
C3415 C3412 1.386 . S
C3416 C3411 1.490 . S
C3416 C3418 1.395 . S
C3416 C3419 1.403 . S
H3417 C3423 0.930 . S
C3418 H3404 0.930 . S
C3418 C3416 1.395 . S
C3418 C3421 1.403 . S
C3419 C3416 1.403 . S
C3419 C3420 1.524 . S
C3419 C3423 1.400 . S
C3420 H3405 0.960 . S
C3420 H3406 0.960 . S
C3420 H3407 0.960 . S
C3420 C3419 1.524 . S
C3421 C3418 1.403 . S
C3421 C3422 1.392 . S
C3421 C3425 1.495 . S
C3422 C3421 1.392 . S
C3422 C3423 1.385 . S
C3422 C3424 1.478 . S
C3423 H3417 0.930 . S
C3423 C3419 1.400 . S
C3423 C3422 1.385 . S
C3424 C3422 1.478 . S
C3424 C3426 1.381 . S
C3424 C3430 1.383 . S
C3425 C3421 1.495 . S
C3425 H3431 0.959 . S
C3425 H3432 0.961 . S
C3425 H3433 0.960 . S
C3426 C3424 1.381 . S
C3426 C3427 1.394 . S
C3426 H3434 0.930 . S
C3427 C3426 1.394 . S
C3427 C3428 1.383 . S
C3427 H3435 0.929 . S
C3428 C3427 1.383 . S
C3428 C3429 1.377 . S
C3429 H3413 0.930 . S
C3429 C3428 1.377 . S
C3429 C3430 1.379 . S
C3430 H3414 0.931 . S
C3430 C3424 1.383 . S
C3430 C3429 1.379 . S
H3431 C3425 0.959 . S
H3432 C3425 0.961 . S
H3433 C3425 0.960 . S
H3434 C3426 0.930 . S
H3435 C3427 0.929 . S
H3436 C3444 0.929 1_556 S
H3437 C3446 0.930 1_556 S
H3438 C3448 0.930 . S
H3439 C3451 0.929 . S
H3440 C3454 0.930 . S
H3441 C3456 0.960 . S
H3442 C3456 0.960 . S
H3443 C3456 0.960 . S
C3444 H3436 0.929 1_554 S
C3444 C3445 1.377 . S
C3444 C3446 1.384 . S
C3445 C3444 1.377 . S
C3445 C3451 1.390 . S
C3446 H3437 0.930 1_554 S
C3446 C3444 1.384 . S
C3446 C3447 1.372 . S
C3447 C3446 1.372 . S
C3447 C3448 1.400 . S
C3447 C3452 1.490 . S
C3448 H3438 0.930 . S
C3448 C3447 1.400 . S
C3448 C3451 1.386 . S
H3449 C3465 0.930 . S
H3450 C3466 0.931 . S
C3451 H3439 0.929 . S
C3451 C3445 1.390 . S
C3451 C3448 1.386 . S
C3452 C3447 1.490 . S
C3452 C3454 1.395 . S
C3452 C3455 1.403 . S
H3453 C3459 0.930 . S
C3454 H3440 0.930 . S
C3454 C3452 1.395 . S
C3454 C3457 1.403 . S
C3455 C3452 1.403 . S
C3455 C3456 1.524 . S
C3455 C3459 1.400 . S
C3456 H3441 0.960 . S
C3456 H3442 0.960 . S
C3456 H3443 0.960 . S
C3456 C3455 1.524 . S
C3457 C3454 1.403 . S
C3457 C3458 1.392 . S
C3457 C3461 1.495 . S
C3458 C3457 1.392 . S
C3458 C3459 1.385 . S
C3458 C3460 1.478 . S
C3459 H3453 0.930 . S
C3459 C3455 1.400 . S
C3459 C3458 1.385 . S
C3460 C3458 1.478 . S
C3460 C3462 1.381 . S
C3460 C3466 1.383 . S
C3461 C3457 1.495 . S
C3461 H3467 0.959 1_554 S
C3461 H3468 0.961 . S
C3461 H3469 0.960 1_554 S
C3462 C3460 1.381 . S
C3462 C3463 1.394 . S
C3462 H3470 0.930 . S
C3463 C3462 1.394 . S
C3463 C3464 1.383 . S
C3463 H3471 0.929 . S
C3464 C3463 1.383 . S
C3464 C3465 1.377 . S
C3465 H3449 0.930 . S
C3465 C3464 1.377 . S
C3465 C3466 1.379 . S
C3466 H3450 0.931 . S
C3466 C3460 1.383 . S
C3466 C3465 1.379 . S
H3467 C3461 0.959 1_556 S
H3468 C3461 0.961 . S
H3469 C3461 0.960 1_556 S
H3470 C3462 0.930 . S
H3471 C3463 0.929 . S
H3472 C3480 0.929 . S
H3473 C3482 0.930 . S
H3474 C3484 0.930 . S
H3475 C3487 0.929 . S
H3476 C3490 0.930 . S
H3477 C3492 0.960 . S
H3478 C3492 0.960 . S
H3479 C3492 0.960 . S
C3480 H3472 0.929 . S
C3480 C3481 1.377 . S
C3480 C3482 1.384 . S
C3481 C3480 1.377 . S
C3481 C3487 1.390 . S
C3482 H3473 0.930 . S
C3482 C3480 1.384 . S
C3482 C3483 1.372 . S
C3483 C3482 1.372 . S
C3483 C3484 1.400 . S
C3483 C3488 1.490 . S
C3484 H3474 0.930 . S
C3484 C3483 1.400 . S
C3484 C3487 1.386 . S
H3485 C3501 0.930 . S
H3486 C3502 0.931 . S
C3487 H3475 0.929 . S
C3487 C3481 1.390 . S
C3487 C3484 1.386 . S
C3488 C3483 1.490 . S
C3488 C3490 1.395 . S
C3488 C3491 1.403 . S
H3489 C3495 0.930 . S
C3490 H3476 0.930 . S
C3490 C3488 1.395 . S
C3490 C3493 1.403 . S
C3491 C3488 1.403 . S
C3491 C3492 1.524 . S
C3491 C3495 1.400 . S
C3492 H3477 0.960 . S
C3492 H3478 0.960 . S
C3492 H3479 0.960 . S
C3492 C3491 1.524 . S
C3493 C3490 1.403 . S
C3493 C3494 1.392 . S
C3493 C3497 1.495 . S
C3494 C3493 1.392 . S
C3494 C3495 1.385 . S
C3494 C3496 1.478 . S
C3495 H3489 0.930 . S
C3495 C3491 1.400 . S
C3495 C3494 1.385 . S
C3496 C3494 1.478 . S
C3496 C3498 1.381 . S
C3496 C3502 1.383 . S
C3497 C3493 1.495 . S
C3497 H3503 0.959 . S
C3497 H3504 0.961 . S
C3497 H3505 0.960 . S
C3498 C3496 1.381 . S
C3498 C3499 1.394 . S
C3498 H3506 0.930 . S
C3499 C3498 1.394 . S
C3499 C3500 1.383 . S
C3499 H3507 0.929 . S
C3500 C3499 1.383 . S
C3500 C3501 1.377 . S
C3501 H3485 0.930 . S
C3501 C3500 1.377 . S
C3501 C3502 1.379 . S
C3502 H3486 0.931 . S
C3502 C3496 1.383 . S
C3502 C3501 1.379 . S
H3503 C3497 0.959 . S
H3504 C3497 0.961 . S
H3505 C3497 0.960 . S
H3506 C3498 0.930 . S
H3507 C3499 0.929 . S
H3508 C3516 0.929 . S
H3509 C3518 0.930 . S
H3510 C3520 0.930 . S
H3511 C3523 0.929 . S
H3512 C3526 0.930 . S
H3513 C3528 0.960 . S
H3514 C3528 0.960 . S
H3515 C3528 0.960 . S
C3516 H3508 0.929 . S
C3516 C3517 1.377 . S
C3516 C3518 1.384 . S
C3517 C3516 1.377 . S
C3517 C3523 1.390 . S
C3518 H3509 0.930 . S
C3518 C3516 1.384 . S
C3518 C3519 1.372 . S
C3519 C3518 1.372 . S
C3519 C3520 1.400 . S
C3519 C3524 1.490 . S
C3520 H3510 0.930 . S
C3520 C3519 1.400 . S
C3520 C3523 1.386 . S
H3521 C3537 0.930 . S
H3522 C3538 0.931 . S
C3523 H3511 0.929 . S
C3523 C3517 1.390 . S
C3523 C3520 1.386 . S
C3524 C3519 1.490 . S
C3524 C3526 1.395 . S
C3524 C3527 1.403 . S
H3525 C3531 0.930 . S
C3526 H3512 0.930 . S
C3526 C3524 1.395 . S
C3526 C3529 1.403 . S
C3527 C3524 1.403 . S
C3527 C3528 1.524 . S
C3527 C3531 1.400 . S
C3528 H3513 0.960 . S
C3528 H3514 0.960 . S
C3528 H3515 0.960 . S
C3528 C3527 1.524 . S
C3529 C3526 1.403 . S
C3529 C3530 1.392 . S
C3529 C3533 1.495 . S
C3530 C3529 1.392 . S
C3530 C3531 1.385 . S
C3530 C3532 1.478 . S
C3531 H3525 0.930 . S
C3531 C3527 1.400 . S
C3531 C3530 1.385 . S
C3532 C3530 1.478 . S
C3532 C3534 1.381 . S
C3532 C3538 1.383 . S
C3533 C3529 1.495 . S
C3533 H3539 0.959 . S
C3533 H3540 0.961 . S
C3533 H3541 0.960 . S
C3534 C3532 1.381 . S
C3534 C3535 1.394 . S
C3534 H3542 0.930 . S
C3535 C3534 1.394 . S
C3535 C3536 1.383 . S
C3535 H3543 0.929 . S
C3536 C3535 1.383 . S
C3536 C3537 1.377 . S
C3537 H3521 0.930 . S
C3537 C3536 1.377 . S
C3537 C3538 1.379 . S
C3538 H3522 0.931 . S
C3538 C3532 1.383 . S
C3538 C3537 1.379 . S
H3539 C3533 0.959 . S
H3540 C3533 0.961 . S
H3541 C3533 0.960 . S
H3542 C3534 0.930 . S
H3543 C3535 0.929 . S
H3544 C3552 0.929 . S
H3545 C3554 0.930 . S
H3546 C3556 0.930 . S
H3547 C3559 0.929 . S
H3548 C3562 0.930 . S
H3549 C3564 0.960 . S
H3550 C3564 0.960 . S
H3551 C3564 0.960 . S
C3552 H3544 0.929 . S
C3552 C3553 1.377 . S
C3552 C3554 1.384 . S
C3553 C3552 1.377 . S
C3553 C3559 1.390 . S
C3554 H3545 0.930 . S
C3554 C3552 1.384 . S
C3554 C3555 1.372 . S
C3555 C3554 1.372 . S
C3555 C3556 1.400 . S
C3555 C3560 1.490 . S
C3556 H3546 0.930 . S
C3556 C3555 1.400 . S
C3556 C3559 1.386 . S
H3557 C3573 0.930 . S
H3558 C3574 0.931 . S
C3559 H3547 0.929 . S
C3559 C3553 1.390 . S
C3559 C3556 1.386 . S
C3560 C3555 1.490 . S
C3560 C3562 1.395 . S
C3560 C3563 1.403 . S
H3561 C3567 0.930 . S
C3562 H3548 0.930 . S
C3562 C3560 1.395 . S
C3562 C3565 1.403 . S
C3563 C3560 1.403 . S
C3563 C3564 1.524 . S
C3563 C3567 1.400 . S
C3564 H3549 0.960 . S
C3564 H3550 0.960 . S
C3564 H3551 0.960 . S
C3564 C3563 1.524 . S
C3565 C3562 1.403 . S
C3565 C3566 1.392 . S
C3565 C3569 1.495 . S
C3566 C3565 1.392 . S
C3566 C3567 1.385 . S
C3566 C3568 1.478 . S
C3567 H3561 0.930 . S
C3567 C3563 1.400 . S
C3567 C3566 1.385 . S
C3568 C3566 1.478 . S
C3568 C3570 1.381 . S
C3568 C3574 1.383 . S
C3569 C3565 1.495 . S
C3569 H3575 0.959 . S
C3569 H3576 0.961 . S
C3569 H3577 0.960 . S
C3570 C3568 1.381 . S
C3570 C3571 1.394 . S
C3570 H3578 0.930 . S
C3571 C3570 1.394 . S
C3571 C3572 1.383 . S
C3571 H3579 0.929 . S
C3572 C3571 1.383 . S
C3572 C3573 1.377 . S
C3573 H3557 0.930 . S
C3573 C3572 1.377 . S
C3573 C3574 1.379 . S
C3574 H3558 0.931 . S
C3574 C3568 1.383 . S
C3574 C3573 1.379 . S
H3575 C3569 0.959 . S
H3576 C3569 0.961 . S
H3577 C3569 0.960 . S
H3578 C3570 0.930 . S
H3579 C3571 0.929 . S
H3580 C3588 0.929 . S
H3581 C3590 0.930 . S
H3582 C3592 0.930 . S
H3583 C3595 0.929 . S
H3584 C3598 0.930 . S
H3585 C3600 0.960 . S
H3586 C3600 0.960 . S
H3587 C3600 0.960 . S
C3588 H3580 0.929 . S
C3588 C3589 1.377 . S
C3588 C3590 1.384 . S
C3589 C3588 1.377 . S
C3589 C3595 1.390 . S
C3590 H3581 0.930 . S
C3590 C3588 1.384 . S
C3590 C3591 1.372 . S
C3591 C3590 1.372 . S
C3591 C3592 1.400 . S
C3591 C3596 1.490 . S
C3592 H3582 0.930 . S
C3592 C3591 1.400 . S
C3592 C3595 1.386 . S
H3593 C3609 0.930 . S
H3594 C3610 0.931 . S
C3595 H3583 0.929 . S
C3595 C3589 1.390 . S
C3595 C3592 1.386 . S
C3596 C3591 1.490 . S
C3596 C3598 1.395 . S
C3596 C3599 1.403 . S
H3597 C3603 0.930 . S
C3598 H3584 0.930 . S
C3598 C3596 1.395 . S
C3598 C3601 1.403 . S
C3599 C3596 1.403 . S
C3599 C3600 1.524 . S
C3599 C3603 1.400 . S
C3600 H3585 0.960 . S
C3600 H3586 0.960 . S
C3600 H3587 0.960 . S
C3600 C3599 1.524 . S
C3601 C3598 1.403 . S
C3601 C3602 1.392 . S
C3601 C3605 1.495 . S
C3602 C3601 1.392 . S
C3602 C3603 1.385 . S
C3602 C3604 1.478 . S
C3603 H3597 0.930 . S
C3603 C3599 1.400 . S
C3603 C3602 1.385 . S
C3604 C3602 1.478 . S
C3604 C3606 1.381 . S
C3604 C3610 1.383 . S
C3605 C3601 1.495 . S
C3605 H3611 0.959 . S
C3605 H3612 0.961 . S
C3605 H3613 0.960 . S
C3606 C3604 1.381 . S
C3606 C3607 1.394 . S
C3606 H3614 0.930 . S
C3607 C3606 1.394 . S
C3607 C3608 1.383 . S
C3607 H3615 0.929 . S
C3608 C3607 1.383 . S
C3608 C3609 1.377 . S
C3609 H3593 0.930 . S
C3609 C3608 1.377 . S
C3609 C3610 1.379 . S
C3610 H3594 0.931 . S
C3610 C3604 1.383 . S
C3610 C3609 1.379 . S
H3611 C3605 0.959 . S
H3612 C3605 0.961 . S
H3613 C3605 0.960 . S
H3614 C3606 0.930 . S
H3615 C3607 0.929 . S
H3616 C3624 0.929 . S
H3617 C3626 0.930 . S
H3618 C3628 0.930 . S
H3619 C3631 0.929 . S
H3620 C3634 0.930 . S
H3621 C3636 0.960 . S
H3622 C3636 0.960 . S
H3623 C3636 0.960 . S
C3624 H3616 0.929 . S
C3624 C3625 1.377 . S
C3624 C3626 1.384 . S
C3625 C3624 1.377 . S
C3625 C3631 1.390 . S
C3626 H3617 0.930 . S
C3626 C3624 1.384 . S
C3626 C3627 1.372 . S
C3627 C3626 1.372 . S
C3627 C3628 1.400 . S
C3627 C3632 1.490 . S
C3628 H3618 0.930 . S
C3628 C3627 1.400 . S
C3628 C3631 1.386 . S
H3629 C3645 0.930 1_556 S
H3630 C3646 0.931 . S
C3631 H3619 0.929 . S
C3631 C3625 1.390 . S
C3631 C3628 1.386 . S
C3632 C3627 1.490 . S
C3632 C3634 1.395 . S
C3632 C3635 1.403 . S
H3633 C3639 0.930 . S
C3634 H3620 0.930 . S
C3634 C3632 1.395 . S
C3634 C3637 1.403 . S
C3635 C3632 1.403 . S
C3635 C3636 1.524 . S
C3635 C3639 1.400 . S
C3636 H3621 0.960 . S
C3636 H3622 0.960 . S
C3636 H3623 0.960 . S
C3636 C3635 1.524 . S
C3637 C3634 1.403 . S
C3637 C3638 1.392 . S
C3637 C3641 1.495 . S
C3638 C3637 1.392 . S
C3638 C3639 1.385 . S
C3638 C3640 1.478 . S
C3639 H3633 0.930 . S
C3639 C3635 1.400 . S
C3639 C3638 1.385 . S
C3640 C3638 1.478 . S
C3640 C3642 1.381 . S
C3640 C3646 1.383 . S
C3641 C3637 1.495 . S
C3641 H3647 0.964 1_455 S
C3641 H3648 0.961 1_455 S
C3641 H3649 0.960 . S
C3642 C3640 1.381 . S
C3642 C3643 1.394 . S
C3642 H3650 0.930 . S
C3643 C3642 1.394 . S
C3643 C3644 1.383 . S
C3643 H3651 0.929 . S
C3644 C3643 1.383 . S
C3644 C3645 1.377 . S
C3645 H3629 0.930 1_554 S
C3645 C3644 1.377 . S
C3645 C3646 1.379 . S
C3646 H3630 0.931 . S
C3646 C3640 1.383 . S
C3646 C3645 1.379 . S
H3647 C3641 0.964 1_655 S
H3648 C3641 0.961 1_655 S
H3649 C3641 0.960 . S
H3650 C3642 0.930 . S
H3651 C3643 0.929 . S
H3652 C3660 0.929 . S
H3653 C3662 0.930 . S
H3654 C3664 0.930 . S
H3655 C3667 0.929 . S
H3656 C3670 0.930 . S
H3657 C3672 0.960 . S
H3658 C3672 0.960 . S
H3659 C3672 0.960 . S
C3660 H3652 0.929 . S
C3660 C3661 1.377 . S
C3660 C3662 1.384 . S
C3661 C3660 1.377 . S
C3661 C3667 1.390 . S
C3662 H3653 0.930 . S
C3662 C3660 1.384 . S
C3662 C3663 1.372 . S
C3663 C3662 1.372 . S
C3663 C3664 1.400 . S
C3663 C3668 1.490 . S
C3664 H3654 0.930 . S
C3664 C3663 1.400 . S
C3664 C3667 1.386 . S
H3665 C3681 0.930 . S
H3666 C3682 0.931 . S
C3667 H3655 0.929 . S
C3667 C3661 1.390 . S
C3667 C3664 1.386 . S
C3668 C3663 1.490 . S
C3668 C3670 1.395 . S
C3668 C3671 1.403 . S
H3669 C3675 0.930 . S
C3670 H3656 0.930 . S
C3670 C3668 1.395 . S
C3670 C3673 1.403 . S
C3671 C3668 1.403 . S
C3671 C3672 1.524 . S
C3671 C3675 1.400 . S
C3672 H3657 0.960 . S
C3672 H3658 0.960 . S
C3672 H3659 0.960 . S
C3672 C3671 1.524 . S
C3673 C3670 1.403 . S
C3673 C3674 1.392 . S
C3673 C3677 1.495 . S
C3674 C3673 1.392 . S
C3674 C3675 1.385 . S
C3674 C3676 1.478 . S
C3675 H3669 0.930 . S
C3675 C3671 1.400 . S
C3675 C3674 1.385 . S
C3676 C3674 1.478 . S
C3676 C3678 1.381 . S
C3676 C3682 1.383 . S
C3677 C3673 1.495 . S
C3677 H3683 0.959 . S
C3677 H3684 0.961 . S
C3677 H3685 0.960 . S
C3678 C3676 1.381 . S
C3678 C3679 1.394 . S
C3678 H3686 0.930 . S
C3679 C3678 1.394 . S
C3679 C3680 1.383 . S
C3679 H3687 0.929 . S
C3680 C3679 1.383 . S
C3680 C3681 1.377 . S
C3681 H3665 0.930 . S
C3681 C3680 1.377 . S
C3681 C3682 1.379 . S
C3682 H3666 0.931 . S
C3682 C3676 1.383 . S
C3682 C3681 1.379 . S
H3683 C3677 0.959 . S
H3684 C3677 0.961 . S
H3685 C3677 0.960 . S
H3686 C3678 0.930 . S
H3687 C3679 0.929 . S
H3688 C3696 0.929 . S
H3689 C3698 0.930 . S
H3690 C3700 0.930 . S
H3691 C3703 0.929 . S
H3692 C3706 0.930 . S
H3693 C3708 0.960 . S
H3694 C3708 0.960 . S
H3695 C3708 0.960 . S
C3696 H3688 0.929 . S
C3696 C3697 1.377 . S
C3696 C3698 1.384 . S
C3697 C3696 1.377 . S
C3697 C3703 1.390 . S
C3698 H3689 0.930 . S
C3698 C3696 1.384 . S
C3698 C3699 1.372 . S
C3699 C3698 1.372 . S
C3699 C3700 1.400 . S
C3699 C3704 1.490 . S
C3700 H3690 0.930 . S
C3700 C3699 1.400 . S
C3700 C3703 1.386 . S
H3701 C3717 0.930 . S
H3702 C3718 0.931 . S
C3703 H3691 0.929 . S
C3703 C3697 1.390 . S
C3703 C3700 1.386 . S
C3704 C3699 1.490 . S
C3704 C3706 1.395 . S
C3704 C3707 1.403 . S
H3705 C3711 0.930 . S
C3706 H3692 0.930 . S
C3706 C3704 1.395 . S
C3706 C3709 1.403 . S
C3707 C3704 1.403 . S
C3707 C3708 1.524 . S
C3707 C3711 1.400 . S
C3708 H3693 0.960 . S
C3708 H3694 0.960 . S
C3708 H3695 0.960 . S
C3708 C3707 1.524 . S
C3709 C3706 1.403 . S
C3709 C3710 1.392 . S
C3709 C3713 1.495 . S
C3710 C3709 1.392 . S
C3710 C3711 1.385 . S
C3710 C3712 1.478 . S
C3711 H3705 0.930 . S
C3711 C3707 1.400 . S
C3711 C3710 1.385 . S
C3712 C3710 1.478 . S
C3712 C3714 1.381 . S
C3712 C3718 1.383 . S
C3713 C3709 1.495 . S
C3713 H3719 0.959 . S
C3713 H3720 0.961 . S
C3713 H3721 0.960 . S
C3714 C3712 1.381 . S
C3714 C3715 1.394 . S
C3714 H3722 0.930 . S
C3715 C3714 1.394 . S
C3715 C3716 1.383 . S
C3715 H3723 0.929 . S
C3716 C3715 1.383 . S
C3716 C3717 1.377 . S
C3717 H3701 0.930 . S
C3717 C3716 1.377 . S
C3717 C3718 1.379 . S
C3718 H3702 0.931 . S
C3718 C3712 1.383 . S
C3718 C3717 1.379 . S
H3719 C3713 0.959 . S
H3720 C3713 0.961 . S
H3721 C3713 0.960 . S
H3722 C3714 0.930 . S
H3723 C3715 0.929 . S
H3724 C3732 0.929 . S
H3725 C3734 0.930 . S
H3726 C3736 0.930 . S
H3727 C3739 0.929 . S
H3728 C3742 0.930 . S
H3729 C3744 0.960 . S
H3730 C3744 0.960 . S
H3731 C3744 0.960 . S
C3732 H3724 0.929 . S
C3732 C3733 1.377 . S
C3732 C3734 1.384 . S
C3733 C3732 1.377 . S
C3733 C3739 1.390 . S
C3734 H3725 0.930 . S
C3734 C3732 1.384 . S
C3734 C3735 1.372 . S
C3735 C3734 1.372 . S
C3735 C3736 1.400 . S
C3735 C3740 1.490 . S
C3736 H3726 0.930 . S
C3736 C3735 1.400 . S
C3736 C3739 1.386 . S
H3737 C3753 0.930 . S
H3738 C3754 0.931 . S
C3739 H3727 0.929 . S
C3739 C3733 1.390 . S
C3739 C3736 1.386 . S
C3740 C3735 1.490 . S
C3740 C3742 1.395 . S
C3740 C3743 1.403 . S
H3741 C3747 0.930 . S
C3742 H3728 0.930 . S
C3742 C3740 1.395 . S
C3742 C3745 1.403 . S
C3743 C3740 1.403 . S
C3743 C3744 1.524 . S
C3743 C3747 1.400 . S
C3744 H3729 0.960 . S
C3744 H3730 0.960 . S
C3744 H3731 0.960 . S
C3744 C3743 1.524 . S
C3745 C3742 1.403 . S
C3745 C3746 1.392 . S
C3745 C3749 1.495 . S
C3746 C3745 1.392 . S
C3746 C3747 1.385 . S
C3746 C3748 1.478 . S
C3747 H3741 0.930 . S
C3747 C3743 1.400 . S
C3747 C3746 1.385 . S
C3748 C3746 1.478 . S
C3748 C3750 1.381 . S
C3748 C3754 1.383 . S
C3749 C3745 1.495 . S
C3749 H3755 0.959 . S
C3749 H3756 0.961 . S
C3749 H3757 0.960 . S
C3750 C3748 1.381 . S
C3750 C3751 1.394 . S
C3750 H3758 0.930 . S
C3751 C3750 1.394 . S
C3751 C3752 1.383 . S
C3751 H3759 0.929 . S
C3752 C3751 1.383 . S
C3752 C3753 1.377 . S
C3753 H3737 0.930 . S
C3753 C3752 1.377 . S
C3753 C3754 1.379 . S
C3754 H3738 0.931 . S
C3754 C3748 1.383 . S
C3754 C3753 1.379 . S
H3755 C3749 0.959 . S
H3756 C3749 0.961 . S
H3757 C3749 0.960 . S
H3758 C3750 0.930 . S
H3759 C3751 0.929 . S
H3760 C3768 0.929 . S
H3761 C3770 0.930 . S
H3762 C3772 0.930 . S
H3763 C3775 0.929 . S
H3764 C3778 0.930 . S
H3765 C3780 0.960 . S
H3766 C3780 0.960 . S
H3767 C3780 0.960 . S
C3768 H3760 0.929 . S
C3768 C3769 1.377 . S
C3768 C3770 1.384 . S
C3769 C3768 1.377 . S
C3769 C3775 1.390 . S
C3770 H3761 0.930 . S
C3770 C3768 1.384 . S
C3770 C3771 1.372 . S
C3771 C3770 1.372 . S
C3771 C3772 1.400 . S
C3771 C3776 1.490 . S
C3772 H3762 0.930 . S
C3772 C3771 1.400 . S
C3772 C3775 1.386 . S
H3773 C3789 0.930 . S
H3774 C3790 0.931 . S
C3775 H3763 0.929 . S
C3775 C3769 1.390 . S
C3775 C3772 1.386 . S
C3776 C3771 1.490 . S
C3776 C3778 1.395 . S
C3776 C3779 1.403 . S
H3777 C3783 0.930 . S
C3778 H3764 0.930 . S
C3778 C3776 1.395 . S
C3778 C3781 1.403 . S
C3779 C3776 1.403 . S
C3779 C3780 1.524 . S
C3779 C3783 1.400 . S
C3780 H3765 0.960 . S
C3780 H3766 0.960 . S
C3780 H3767 0.960 . S
C3780 C3779 1.524 . S
C3781 C3778 1.403 . S
C3781 C3782 1.392 . S
C3781 C3785 1.495 . S
C3782 C3781 1.392 . S
C3782 C3783 1.385 . S
C3782 C3784 1.478 . S
C3783 H3777 0.930 . S
C3783 C3779 1.400 . S
C3783 C3782 1.385 . S
C3784 C3782 1.478 . S
C3784 C3786 1.381 . S
C3784 C3790 1.383 . S
C3785 C3781 1.495 . S
C3785 H3791 0.959 . S
C3785 H3792 0.961 . S
C3785 H3793 0.960 . S
C3786 C3784 1.381 . S
C3786 C3787 1.394 . S
C3786 H3794 0.930 . S
C3787 C3786 1.394 . S
C3787 C3788 1.383 . S
C3787 H3795 0.929 . S
C3788 C3787 1.383 . S
C3788 C3789 1.377 . S
C3789 H3773 0.930 . S
C3789 C3788 1.377 . S
C3789 C3790 1.379 . S
C3790 H3774 0.931 . S
C3790 C3784 1.383 . S
C3790 C3789 1.379 . S
H3791 C3785 0.959 . S
H3792 C3785 0.961 . S
H3793 C3785 0.960 . S
H3794 C3786 0.930 . S
H3795 C3787 0.929 . S
H3796 C3804 0.929 . S
H3797 C3806 0.930 . S
H3798 C3808 0.930 . S
H3799 C3811 0.929 . S
H3800 C3814 0.930 . S
H3801 C3816 0.960 . S
H3802 C3816 0.960 . S
H3803 C3816 0.960 . S
C3804 H3796 0.929 . S
C3804 C3805 1.377 . S
C3804 C3806 1.384 . S
C3805 C3804 1.377 . S
C3805 C3811 1.390 . S
C3806 H3797 0.930 . S
C3806 C3804 1.384 . S
C3806 C3807 1.372 . S
C3807 C3806 1.372 . S
C3807 C3808 1.400 . S
C3807 C3812 1.490 . S
C3808 H3798 0.930 . S
C3808 C3807 1.400 . S
C3808 C3811 1.386 . S
H3809 C3825 0.930 . S
H3810 C3826 0.931 . S
C3811 H3799 0.929 . S
C3811 C3805 1.390 . S
C3811 C3808 1.386 . S
C3812 C3807 1.490 . S
C3812 C3814 1.395 . S
C3812 C3815 1.403 . S
H3813 C3819 0.930 . S
C3814 H3800 0.930 . S
C3814 C3812 1.395 . S
C3814 C3817 1.403 . S
C3815 C3812 1.403 . S
C3815 C3816 1.524 . S
C3815 C3819 1.400 . S
C3816 H3801 0.960 . S
C3816 H3802 0.960 . S
C3816 H3803 0.960 . S
C3816 C3815 1.524 . S
C3817 C3814 1.403 . S
C3817 C3818 1.392 . S
C3817 C3821 1.495 . S
C3818 C3817 1.392 . S
C3818 C3819 1.385 . S
C3818 C3820 1.478 . S
C3819 H3813 0.930 . S
C3819 C3815 1.400 . S
C3819 C3818 1.385 . S
C3820 C3818 1.478 . S
C3820 C3822 1.381 . S
C3820 C3826 1.383 . S
C3821 C3817 1.495 . S
C3821 H3827 0.959 . S
C3821 H3828 0.961 . S
C3821 H3829 0.960 . S
C3822 C3820 1.381 . S
C3822 C3823 1.394 . S
C3822 H3830 0.930 . S
C3823 C3822 1.394 . S
C3823 C3824 1.383 . S
C3823 H3831 0.929 . S
C3824 C3823 1.383 . S
C3824 C3825 1.377 . S
C3825 H3809 0.930 . S
C3825 C3824 1.377 . S
C3825 C3826 1.379 . S
C3826 H3810 0.931 . S
C3826 C3820 1.383 . S
C3826 C3825 1.379 . S
H3827 C3821 0.959 . S
H3828 C3821 0.961 . S
H3829 C3821 0.960 . S
H3830 C3822 0.930 . S
H3831 C3823 0.929 . S
H3832 C3840 0.929 . S
H3833 C3842 0.930 . S
H3834 C3844 0.930 . S
H3835 C3847 0.929 . S
H3836 C3850 0.930 . S
H3837 C3852 0.960 . S
H3838 C3852 0.960 . S
H3839 C3852 0.960 . S
C3840 H3832 0.929 . S
C3840 C3841 1.377 . S
C3840 C3842 1.384 . S
C3841 C3840 1.377 . S
C3841 C3847 1.390 . S
C3842 H3833 0.930 . S
C3842 C3840 1.384 . S
C3842 C3843 1.372 . S
C3843 C3842 1.372 . S
C3843 C3844 1.400 . S
C3843 C3848 1.490 . S
C3844 H3834 0.930 . S
C3844 C3843 1.400 . S
C3844 C3847 1.386 . S
H3845 C3861 0.930 . S
H3846 C3862 0.931 . S
C3847 H3835 0.929 . S
C3847 C3841 1.390 . S
C3847 C3844 1.386 . S
C3848 C3843 1.490 . S
C3848 C3850 1.395 . S
C3848 C3851 1.403 . S
H3849 C3855 0.930 . S
C3850 H3836 0.930 . S
C3850 C3848 1.395 . S
C3850 C3853 1.403 . S
C3851 C3848 1.403 . S
C3851 C3852 1.524 . S
C3851 C3855 1.400 . S
C3852 H3837 0.960 . S
C3852 H3838 0.960 . S
C3852 H3839 0.960 . S
C3852 C3851 1.524 . S
C3853 C3850 1.403 . S
C3853 C3854 1.392 . S
C3853 C3857 1.495 . S
C3854 C3853 1.392 . S
C3854 C3855 1.385 . S
C3854 C3856 1.478 . S
C3855 H3849 0.930 . S
C3855 C3851 1.400 . S
C3855 C3854 1.385 . S
C3856 C3854 1.478 . S
C3856 C3858 1.381 . S
C3856 C3862 1.383 . S
C3857 C3853 1.495 . S
C3857 H3863 0.959 . S
C3857 H3864 0.961 . S
C3857 H3865 0.960 . S
C3858 C3856 1.381 . S
C3858 C3859 1.394 . S
C3858 H3866 0.930 . S
C3859 C3858 1.394 . S
C3859 C3860 1.383 . S
C3859 H3867 0.929 . S
C3860 C3859 1.383 . S
C3860 C3861 1.377 . S
C3861 H3845 0.930 . S
C3861 C3860 1.377 . S
C3861 C3862 1.379 . S
C3862 H3846 0.931 . S
C3862 C3856 1.383 . S
C3862 C3861 1.379 . S
H3863 C3857 0.959 . S
H3864 C3857 0.961 . S
H3865 C3857 0.960 . S
H3866 C3858 0.930 . S
H3867 C3859 0.929 . S
H3868 C3876 0.929 . S
H3869 C3878 0.930 . S
H3870 C3880 0.930 . S
H3871 C3883 0.929 . S
H3872 C3886 0.930 . S
H3873 C3888 0.960 . S
H3874 C3888 0.960 . S
H3875 C3888 0.960 . S
C3876 H3868 0.929 . S
C3876 C3877 1.377 . S
C3876 C3878 1.384 . S
C3877 C3876 1.377 . S
C3877 C3883 1.390 . S
C3878 H3869 0.930 . S
C3878 C3876 1.384 . S
C3878 C3879 1.372 . S
C3879 C3878 1.372 . S
C3879 C3880 1.400 . S
C3879 C3884 1.490 . S
C3880 H3870 0.930 . S
C3880 C3879 1.400 . S
C3880 C3883 1.386 . S
H3881 C3897 0.930 . S
H3882 C3898 0.931 . S
C3883 H3871 0.929 . S
C3883 C3877 1.390 . S
C3883 C3880 1.386 . S
C3884 C3879 1.490 . S
C3884 C3886 1.395 . S
C3884 C3887 1.403 . S
H3885 C3891 0.930 . S
C3886 H3872 0.930 . S
C3886 C3884 1.395 . S
C3886 C3889 1.403 . S
C3887 C3884 1.403 . S
C3887 C3888 1.524 . S
C3887 C3891 1.400 . S
C3888 H3873 0.960 . S
C3888 H3874 0.960 . S
C3888 H3875 0.960 . S
C3888 C3887 1.524 . S
C3889 C3886 1.403 . S
C3889 C3890 1.392 . S
C3889 C3893 1.495 . S
C3890 C3889 1.392 . S
C3890 C3891 1.385 . S
C3890 C3892 1.478 . S
C3891 H3885 0.930 . S
C3891 C3887 1.400 . S
C3891 C3890 1.385 . S
C3892 C3890 1.478 . S
C3892 C3894 1.381 . S
C3892 C3898 1.383 . S
C3893 C3889 1.495 . S
C3893 H3899 0.959 . S
C3893 H3900 0.961 . S
C3893 H3901 0.960 . S
C3894 C3892 1.381 . S
C3894 C3895 1.394 . S
C3894 H3902 0.930 . S
C3895 C3894 1.394 . S
C3895 C3896 1.383 . S
C3895 H3903 0.929 . S
C3896 C3895 1.383 . S
C3896 C3897 1.377 . S
C3897 H3881 0.930 . S
C3897 C3896 1.377 . S
C3897 C3898 1.379 . S
C3898 H3882 0.931 . S
C3898 C3892 1.383 . S
C3898 C3897 1.379 . S
H3899 C3893 0.959 . S
H3900 C3893 0.961 . S
H3901 C3893 0.960 . S
H3902 C3894 0.930 . S
H3903 C3895 0.929 . S
H3904 C3912 0.929 . S
H3905 C3914 0.930 . S
H3906 C3916 0.930 . S
H3907 C3919 0.929 . S
H3908 C3922 0.930 . S
H3909 C3924 0.960 . S
H3910 C3924 0.960 . S
H3911 C3924 0.960 . S
C3912 H3904 0.929 . S
C3912 C3913 1.377 . S
C3912 C3914 1.384 . S
C3913 C3912 1.377 . S
C3913 C3919 1.390 . S
C3914 H3905 0.930 . S
C3914 C3912 1.384 . S
C3914 C3915 1.372 . S
C3915 C3914 1.372 . S
C3915 C3916 1.400 . S
C3915 C3920 1.490 . S
C3916 H3906 0.930 . S
C3916 C3915 1.400 . S
C3916 C3919 1.386 . S
H3917 C3933 0.930 . S
H3918 C3934 0.931 1_455 S
C3919 H3907 0.929 . S
C3919 C3913 1.390 . S
C3919 C3916 1.386 . S
C3920 C3915 1.490 . S
C3920 C3922 1.395 . S
C3920 C3923 1.403 . S
H3921 C3927 0.930 . S
C3922 H3908 0.930 . S
C3922 C3920 1.395 . S
C3922 C3925 1.403 . S
C3923 C3920 1.403 . S
C3923 C3924 1.524 . S
C3923 C3927 1.400 . S
C3924 H3909 0.960 . S
C3924 H3910 0.960 . S
C3924 H3911 0.960 . S
C3924 C3923 1.524 . S
C3925 C3922 1.403 . S
C3925 C3926 1.392 . S
C3925 C3929 1.495 . S
C3926 C3925 1.392 . S
C3926 C3927 1.385 . S
C3926 C3928 1.478 . S
C3927 H3921 0.930 . S
C3927 C3923 1.400 . S
C3927 C3926 1.385 . S
C3928 C3926 1.478 . S
C3928 C3930 1.381 . S
C3928 C3934 1.383 . S
C3929 C3925 1.495 . S
C3929 H3935 0.959 . S
C3929 H3936 0.961 . S
C3929 H3937 0.960 . S
C3930 C3928 1.381 . S
C3930 C3931 1.394 . S
C3930 H3938 0.930 . S
C3931 C3930 1.394 . S
C3931 C3932 1.383 1_655 S
C3931 H3939 0.929 . S
C3932 C3931 1.383 1_455 S
C3932 C3933 1.377 . S
C3933 H3917 0.930 . S
C3933 C3932 1.377 . S
C3933 C3934 1.379 1_455 S
C3934 H3918 0.931 1_655 S
C3934 C3928 1.383 . S
C3934 C3933 1.379 1_655 S
H3935 C3929 0.959 . S
H3936 C3929 0.961 . S
H3937 C3929 0.960 . S
H3938 C3930 0.930 . S
H3939 C3931 0.929 . S
H3940 C3948 0.929 . S
H3941 C3950 0.930 . S
H3942 C3952 0.930 . S
H3943 C3955 0.929 . S
H3944 C3958 0.930 . S
H3945 C3960 0.960 . S
H3946 C3960 0.960 . S
H3947 C3960 0.960 . S
C3948 H3940 0.929 . S
C3948 C3949 1.377 . S
C3948 C3950 1.384 . S
C3949 C3948 1.377 . S
C3949 C3955 1.390 . S
C3950 H3941 0.930 . S
C3950 C3948 1.384 . S
C3950 C3951 1.372 . S
C3951 C3950 1.372 . S
C3951 C3952 1.400 . S
C3951 C3956 1.490 . S
C3952 H3942 0.930 . S
C3952 C3951 1.400 . S
C3952 C3955 1.386 . S
H3953 C3969 0.930 . S
H3954 C3970 0.931 . S
C3955 H3943 0.929 . S
C3955 C3949 1.390 . S
C3955 C3952 1.386 . S
C3956 C3951 1.490 . S
C3956 C3958 1.395 . S
C3956 C3959 1.403 . S
H3957 C3963 0.930 . S
C3958 H3944 0.930 . S
C3958 C3956 1.395 . S
C3958 C3961 1.403 . S
C3959 C3956 1.403 . S
C3959 C3960 1.524 . S
C3959 C3963 1.400 . S
C3960 H3945 0.960 . S
C3960 H3946 0.960 . S
C3960 H3947 0.960 . S
C3960 C3959 1.524 . S
C3961 C3958 1.403 . S
C3961 C3962 1.392 . S
C3961 C3965 1.495 . S
C3962 C3961 1.392 . S
C3962 C3963 1.385 . S
C3962 C3964 1.478 . S
C3963 H3957 0.930 . S
C3963 C3959 1.400 . S
C3963 C3962 1.385 . S
C3964 C3962 1.478 . S
C3964 C3966 1.381 . S
C3964 C3970 1.383 . S
C3965 C3961 1.495 . S
C3965 H3971 0.959 . S
C3965 H3972 0.961 . S
C3965 H3973 0.960 . S
C3966 C3964 1.381 . S
C3966 C3967 1.394 . S
C3966 H3974 0.930 . S
C3967 C3966 1.394 . S
C3967 C3968 1.383 . S
C3967 H3975 0.929 . S
C3968 C3967 1.383 . S
C3968 C3969 1.377 . S
C3969 H3953 0.930 . S
C3969 C3968 1.377 . S
C3969 C3970 1.379 . S
C3970 H3954 0.931 . S
C3970 C3964 1.383 . S
C3970 C3969 1.379 . S
H3971 C3965 0.959 . S
H3972 C3965 0.961 . S
H3973 C3965 0.960 . S
H3974 C3966 0.930 . S
H3975 C3967 0.929 . S
H3976 C3984 0.929 . S
H3977 C3986 0.930 . S
H3978 C3988 0.930 . S
H3979 C3991 0.929 . S
H3980 C3994 0.930 . S
H3981 C3996 0.960 . S
H3982 C3996 0.960 . S
H3983 C3996 0.960 . S
C3984 H3976 0.929 . S
C3984 C3985 1.377 . S
C3984 C3986 1.384 . S
C3985 C3984 1.377 . S
C3985 C3991 1.390 . S
C3986 H3977 0.930 . S
C3986 C3984 1.384 . S
C3986 C3987 1.372 . S
C3987 C3986 1.372 . S
C3987 C3988 1.400 . S
C3987 C3992 1.490 . S
C3988 H3978 0.930 . S
C3988 C3987 1.400 . S
C3988 C3991 1.386 . S
H3989 C4005 0.930 . S
H3990 C4006 0.931 . S
C3991 H3979 0.929 . S
C3991 C3985 1.390 . S
C3991 C3988 1.386 . S
C3992 C3987 1.490 . S
C3992 C3994 1.395 . S
C3992 C3995 1.403 . S
H3993 C3999 0.930 . S
C3994 H3980 0.930 . S
C3994 C3992 1.395 . S
C3994 C3997 1.403 . S
C3995 C3992 1.403 . S
C3995 C3996 1.524 . S
C3995 C3999 1.400 . S
C3996 H3981 0.960 . S
C3996 H3982 0.960 . S
C3996 H3983 0.960 . S
C3996 C3995 1.524 . S
C3997 C3994 1.403 . S
C3997 C3998 1.392 . S
C3997 C4001 1.495 . S
C3998 C3997 1.392 . S
C3998 C3999 1.385 . S
C3998 C4000 1.478 . S
C3999 H3993 0.930 . S
C3999 C3995 1.400 . S
C3999 C3998 1.385 . S
C4000 C3998 1.478 . S
C4000 C4002 1.381 . S
C4000 C4006 1.383 . S
C4001 C3997 1.495 . S
C4001 H4007 0.959 . S
C4001 H4008 0.961 . S
C4001 H4009 0.960 . S
C4002 C4000 1.381 . S
C4002 C4003 1.394 . S
C4002 H4010 0.930 . S
C4003 C4002 1.394 . S
C4003 C4004 1.383 . S
C4003 H4011 0.929 . S
C4004 C4003 1.383 . S
C4004 C4005 1.377 . S
C4005 H3989 0.930 . S
C4005 C4004 1.377 . S
C4005 C4006 1.379 . S
C4006 H3990 0.931 . S
C4006 C4000 1.383 . S
C4006 C4005 1.379 . S
H4007 C4001 0.959 . S
H4008 C4001 0.961 . S
H4009 C4001 0.960 . S
H4010 C4002 0.930 . S
H4011 C4003 0.929 . S
H4012 C4020 0.929 . S
H4013 C4022 0.930 . S
H4014 C4024 0.930 . S
H4015 C4027 0.929 . S
H4016 C4030 0.930 . S
H4017 C4032 0.960 . S
H4018 C4032 0.960 . S
H4019 C4032 0.960 . S
C4020 H4012 0.929 . S
C4020 C4021 1.377 . S
C4020 C4022 1.384 . S
C4021 C4020 1.377 . S
C4021 C4027 1.390 . S
C4022 H4013 0.930 . S
C4022 C4020 1.384 . S
C4022 C4023 1.372 . S
C4023 C4022 1.372 . S
C4023 C4024 1.400 . S
C4023 C4028 1.490 . S
C4024 H4014 0.930 . S
C4024 C4023 1.400 . S
C4024 C4027 1.386 . S
H4025 C4041 0.930 . S
H4026 C4042 0.931 . S
C4027 H4015 0.929 . S
C4027 C4021 1.390 . S
C4027 C4024 1.386 . S
C4028 C4023 1.490 . S
C4028 C4030 1.395 . S
C4028 C4031 1.403 . S
H4029 C4035 0.930 . S
C4030 H4016 0.930 . S
C4030 C4028 1.395 . S
C4030 C4033 1.403 . S
C4031 C4028 1.403 . S
C4031 C4032 1.524 . S
C4031 C4035 1.400 . S
C4032 H4017 0.960 . S
C4032 H4018 0.960 . S
C4032 H4019 0.960 . S
C4032 C4031 1.524 . S
C4033 C4030 1.403 . S
C4033 C4034 1.392 . S
C4033 C4037 1.495 . S
C4034 C4033 1.392 . S
C4034 C4035 1.385 . S
C4034 C4036 1.478 . S
C4035 H4029 0.930 . S
C4035 C4031 1.400 . S
C4035 C4034 1.385 . S
C4036 C4034 1.478 . S
C4036 C4038 1.381 . S
C4036 C4042 1.383 . S
C4037 C4033 1.495 . S
C4037 H4043 0.959 . S
C4037 H4044 0.961 . S
C4037 H4045 0.960 . S
C4038 C4036 1.381 . S
C4038 C4039 1.394 . S
C4038 H4046 0.930 . S
C4039 C4038 1.394 . S
C4039 C4040 1.383 . S
C4039 H4047 0.929 . S
C4040 C4039 1.383 . S
C4040 C4041 1.377 . S
C4041 H4025 0.930 . S
C4041 C4040 1.377 . S
C4041 C4042 1.379 . S
C4042 H4026 0.931 . S
C4042 C4036 1.383 . S
C4042 C4041 1.379 . S
H4043 C4037 0.959 . S
H4044 C4037 0.961 . S
H4045 C4037 0.960 . S
H4046 C4038 0.930 . S
H4047 C4039 0.929 . S
H4048 C4056 0.929 . S
H4049 C4058 0.930 . S
H4050 C4060 0.930 . S
H4051 C4063 0.929 . S
H4052 C4066 0.930 . S
H4053 C4068 0.960 . S
H4054 C4068 0.960 . S
H4055 C4068 0.960 . S
C4056 H4048 0.929 . S
C4056 C4057 1.377 . S
C4056 C4058 1.384 . S
C4057 C4056 1.377 . S
C4057 C4063 1.390 . S
C4058 H4049 0.930 . S
C4058 C4056 1.384 . S
C4058 C4059 1.372 . S
C4059 C4058 1.372 . S
C4059 C4060 1.400 . S
C4059 C4064 1.490 . S
C4060 H4050 0.930 . S
C4060 C4059 1.400 . S
C4060 C4063 1.386 . S
H4061 C4077 0.930 . S
H4062 C4078 0.931 . S
C4063 H4051 0.929 . S
C4063 C4057 1.390 . S
C4063 C4060 1.386 . S
C4064 C4059 1.490 . S
C4064 C4066 1.395 . S
C4064 C4067 1.403 . S
H4065 C4071 0.930 . S
C4066 H4052 0.930 . S
C4066 C4064 1.395 . S
C4066 C4069 1.403 . S
C4067 C4064 1.403 . S
C4067 C4068 1.524 . S
C4067 C4071 1.400 . S
C4068 H4053 0.960 . S
C4068 H4054 0.960 . S
C4068 H4055 0.960 . S
C4068 C4067 1.524 . S
C4069 C4066 1.403 . S
C4069 C4070 1.392 . S
C4069 C4073 1.495 . S
C4070 C4069 1.392 . S
C4070 C4071 1.385 . S
C4070 C4072 1.478 . S
C4071 H4065 0.930 . S
C4071 C4067 1.400 . S
C4071 C4070 1.385 . S
C4072 C4070 1.478 . S
C4072 C4074 1.381 . S
C4072 C4078 1.383 . S
C4073 C4069 1.495 . S
C4073 H4079 0.959 . S
C4073 H4080 0.961 . S
C4073 H4081 0.960 . S
C4074 C4072 1.381 . S
C4074 C4075 1.394 . S
C4074 H4082 0.930 . S
C4075 C4074 1.394 . S
C4075 C4076 1.383 . S
C4075 H4083 0.929 . S
C4076 C4075 1.383 . S
C4076 C4077 1.377 . S
C4077 H4061 0.930 . S
C4077 C4076 1.377 . S
C4077 C4078 1.379 . S
C4078 H4062 0.931 . S
C4078 C4072 1.383 . S
C4078 C4077 1.379 . S
H4079 C4073 0.959 . S
H4080 C4073 0.961 . S
H4081 C4073 0.960 . S
H4082 C4074 0.930 . S
H4083 C4075 0.929 . S
H4084 C4092 0.929 . S
H4085 C4094 0.930 . S
H4086 C4096 0.930 . S
H4087 C4099 0.929 . S
H4088 C4102 0.930 . S
H4089 C4104 0.960 . S
H4090 C4104 0.960 . S
H4091 C4104 0.960 . S
C4092 H4084 0.929 . S
C4092 C4093 1.377 . S
C4092 C4094 1.384 . S
C4093 C4092 1.377 . S
C4093 C4099 1.390 . S
C4094 H4085 0.930 . S
C4094 C4092 1.384 . S
C4094 C4095 1.372 . S
C4095 C4094 1.372 . S
C4095 C4096 1.400 . S
C4095 C4100 1.490 . S
C4096 H4086 0.930 . S
C4096 C4095 1.400 . S
C4096 C4099 1.386 . S
H4097 C4113 0.930 . S
H4098 C4114 0.931 . S
C4099 H4087 0.929 . S
C4099 C4093 1.390 . S
C4099 C4096 1.386 . S
C4100 C4095 1.490 . S
C4100 C4102 1.395 . S
C4100 C4103 1.403 . S
H4101 C4107 0.930 . S
C4102 H4088 0.930 . S
C4102 C4100 1.395 . S
C4102 C4105 1.403 . S
C4103 C4100 1.403 . S
C4103 C4104 1.524 . S
C4103 C4107 1.400 . S
C4104 H4089 0.960 . S
C4104 H4090 0.960 . S
C4104 H4091 0.960 . S
C4104 C4103 1.524 . S
C4105 C4102 1.403 . S
C4105 C4106 1.392 . S
C4105 C4109 1.495 . S
C4106 C4105 1.392 . S
C4106 C4107 1.385 . S
C4106 C4108 1.478 . S
C4107 H4101 0.930 . S
C4107 C4103 1.400 . S
C4107 C4106 1.385 . S
C4108 C4106 1.478 . S
C4108 C4110 1.381 . S
C4108 C4114 1.383 . S
C4109 C4105 1.495 . S
C4109 H4115 0.959 . S
C4109 H4116 0.961 . S
C4109 H4117 0.960 . S
C4110 C4108 1.381 . S
C4110 C4111 1.394 . S
C4110 H4118 0.930 . S
C4111 C4110 1.394 . S
C4111 C4112 1.383 . S
C4111 H4119 0.929 . S
C4112 C4111 1.383 . S
C4112 C4113 1.377 . S
C4113 H4097 0.930 . S
C4113 C4112 1.377 . S
C4113 C4114 1.379 . S
C4114 H4098 0.931 . S
C4114 C4108 1.383 . S
C4114 C4113 1.379 . S
H4115 C4109 0.959 . S
H4116 C4109 0.961 . S
H4117 C4109 0.960 . S
H4118 C4110 0.930 . S
H4119 C4111 0.929 . S
H4120 C4128 0.929 . S
H4121 C4130 0.930 . S
H4122 C4132 0.930 . S
H4123 C4135 0.929 . S
H4124 C4138 0.930 . S
H4125 C4140 0.960 . S
H4126 C4140 0.960 . S
H4127 C4140 0.960 . S
C4128 H4120 0.929 . S
C4128 C4129 1.377 . S
C4128 C4130 1.384 . S
C4129 C4128 1.377 . S
C4129 C4135 1.390 . S
C4130 H4121 0.930 . S
C4130 C4128 1.384 . S
C4130 C4131 1.372 . S
C4131 C4130 1.372 . S
C4131 C4132 1.400 . S
C4131 C4136 1.490 . S
C4132 H4122 0.930 . S
C4132 C4131 1.400 . S
C4132 C4135 1.386 . S
H4133 C4149 0.930 . S
H4134 C4150 0.931 . S
C4135 H4123 0.929 . S
C4135 C4129 1.390 . S
C4135 C4132 1.386 . S
C4136 C4131 1.490 . S
C4136 C4138 1.395 . S
C4136 C4139 1.403 . S
H4137 C4143 0.930 . S
C4138 H4124 0.930 . S
C4138 C4136 1.395 . S
C4138 C4141 1.403 . S
C4139 C4136 1.403 . S
C4139 C4140 1.524 . S
C4139 C4143 1.400 . S
C4140 H4125 0.960 . S
C4140 H4126 0.960 . S
C4140 H4127 0.960 . S
C4140 C4139 1.524 . S
C4141 C4138 1.403 . S
C4141 C4142 1.392 . S
C4141 C4145 1.495 . S
C4142 C4141 1.392 . S
C4142 C4143 1.385 . S
C4142 C4144 1.478 . S
C4143 H4137 0.930 . S
C4143 C4139 1.400 . S
C4143 C4142 1.385 . S
C4144 C4142 1.478 . S
C4144 C4146 1.381 . S
C4144 C4150 1.383 . S
C4145 C4141 1.495 . S
C4145 H4151 0.959 . S
C4145 H4152 0.961 . S
C4145 H4153 0.960 . S
C4146 C4144 1.381 . S
C4146 C4147 1.394 . S
C4146 H4154 0.930 . S
C4147 C4146 1.394 . S
C4147 C4148 1.383 . S
C4147 H4155 0.929 . S
C4148 C4147 1.383 . S
C4148 C4149 1.377 . S
C4149 H4133 0.930 . S
C4149 C4148 1.377 . S
C4149 C4150 1.379 . S
C4150 H4134 0.931 . S
C4150 C4144 1.383 . S
C4150 C4149 1.379 . S
H4151 C4145 0.959 . S
H4152 C4145 0.961 . S
H4153 C4145 0.960 . S
H4154 C4146 0.930 . S
H4155 C4147 0.929 . S
H4156 C4164 0.929 . S
H4157 C4166 0.930 . S
H4158 C4168 0.930 . S
H4159 C4171 0.929 . S
H4160 C4174 0.930 . S
H4161 C4176 0.960 . S
H4162 C4176 0.960 . S
H4163 C4176 0.960 . S
C4164 H4156 0.929 . S
C4164 C4165 1.377 . S
C4164 C4166 1.384 . S
C4165 C4164 1.377 . S
C4165 C4171 1.390 . S
C4166 H4157 0.930 . S
C4166 C4164 1.384 . S
C4166 C4167 1.372 . S
C4167 C4166 1.372 . S
C4167 C4168 1.400 . S
C4167 C4172 1.490 . S
C4168 H4158 0.930 . S
C4168 C4167 1.400 . S
C4168 C4171 1.386 . S
H4169 C4185 0.937 1_545 S
H4170 C4186 0.931 . S
C4171 H4159 0.929 . S
C4171 C4165 1.390 . S
C4171 C4168 1.386 . S
C4172 C4167 1.490 . S
C4172 C4174 1.395 . S
C4172 C4175 1.403 . S
H4173 C4179 0.930 . S
C4174 H4160 0.930 . S
C4174 C4172 1.395 . S
C4174 C4177 1.403 . S
C4175 C4172 1.403 . S
C4175 C4176 1.524 . S
C4175 C4179 1.400 . S
C4176 H4161 0.960 . S
C4176 H4162 0.960 . S
C4176 H4163 0.960 . S
C4176 C4175 1.524 . S
C4177 C4174 1.403 . S
C4177 C4178 1.392 . S
C4177 C4181 1.495 . S
C4178 C4177 1.392 . S
C4178 C4179 1.385 . S
C4178 C4180 1.478 . S
C4179 H4173 0.930 . S
C4179 C4175 1.400 . S
C4179 C4178 1.385 . S
C4180 C4178 1.478 . S
C4180 C4182 1.381 . S
C4180 C4186 1.383 . S
C4181 C4177 1.495 . S
C4181 H4187 0.959 . S
C4181 H4188 0.961 1_565 S
C4181 H4189 0.949 1_565 S
C4182 C4180 1.381 . S
C4182 C4183 1.394 1_565 S
C4182 H4190 0.930 . S
C4183 C4182 1.394 1_545 S
C4183 C4184 1.383 . S
C4183 H4191 0.929 . S
C4184 C4183 1.383 . S
C4184 C4185 1.377 1_545 S
C4185 H4169 0.937 1_565 S
C4185 C4184 1.377 1_565 S
C4185 C4186 1.379 . S
C4186 H4170 0.931 . S
C4186 C4180 1.383 . S
C4186 C4185 1.379 . S
H4187 C4181 0.959 . S
H4188 C4181 0.961 1_545 S
H4189 C4181 0.949 1_545 S
H4190 C4182 0.930 . S
H4191 C4183 0.929 . S
H4192 C4200 0.929 . S
H4193 C4202 0.930 . S
H4194 C4204 0.930 . S
H4195 C4207 0.929 . S
H4196 C4210 0.930 . S
H4197 C4212 0.960 . S
H4198 C4212 0.960 . S
H4199 C4212 0.960 . S
C4200 H4192 0.929 . S
C4200 C4201 1.377 . S
C4200 C4202 1.384 . S
C4201 C4200 1.377 . S
C4201 C4207 1.390 . S
C4202 H4193 0.930 . S
C4202 C4200 1.384 . S
C4202 C4203 1.372 . S
C4203 C4202 1.372 . S
C4203 C4204 1.400 . S
C4203 C4208 1.490 . S
C4204 H4194 0.930 . S
C4204 C4203 1.400 . S
C4204 C4207 1.386 . S
H4205 C4221 0.930 . S
H4206 C4222 0.931 . S
C4207 H4195 0.929 . S
C4207 C4201 1.390 . S
C4207 C4204 1.386 . S
C4208 C4203 1.490 . S
C4208 C4210 1.395 . S
C4208 C4211 1.403 . S
H4209 C4215 0.930 . S
C4210 H4196 0.930 . S
C4210 C4208 1.395 . S
C4210 C4213 1.403 . S
C4211 C4208 1.403 . S
C4211 C4212 1.524 . S
C4211 C4215 1.400 . S
C4212 H4197 0.960 . S
C4212 H4198 0.960 . S
C4212 H4199 0.960 . S
C4212 C4211 1.524 . S
C4213 C4210 1.403 . S
C4213 C4214 1.392 . S
C4213 C4217 1.495 . S
C4214 C4213 1.392 . S
C4214 C4215 1.385 . S
C4214 C4216 1.478 . S
C4215 H4209 0.930 . S
C4215 C4211 1.400 . S
C4215 C4214 1.385 . S
C4216 C4214 1.478 . S
C4216 C4218 1.381 . S
C4216 C4222 1.383 . S
C4217 C4213 1.495 . S
C4217 H4223 0.959 . S
C4217 H4224 0.961 . S
C4217 H4225 0.960 . S
C4218 C4216 1.381 . S
C4218 C4219 1.394 . S
C4218 H4226 0.930 . S
C4219 C4218 1.394 . S
C4219 C4220 1.383 . S
C4219 H4227 0.929 . S
C4220 C4219 1.383 . S
C4220 C4221 1.377 . S
C4221 H4205 0.930 . S
C4221 C4220 1.377 . S
C4221 C4222 1.379 . S
C4222 H4206 0.931 . S
C4222 C4216 1.383 . S
C4222 C4221 1.379 . S
H4223 C4217 0.959 . S
H4224 C4217 0.961 . S
H4225 C4217 0.960 . S
H4226 C4218 0.930 . S
H4227 C4219 0.929 . S
H4228 C4236 0.929 . S
H4229 C4238 0.930 . S
H4230 C4240 0.930 . S
H4231 C4243 0.929 . S
H4232 C4246 0.930 . S
H4233 C4248 0.960 . S
H4234 C4248 0.960 . S
H4235 C4248 0.960 . S
C4236 H4228 0.929 . S
C4236 C4237 1.377 . S
C4236 C4238 1.384 . S
C4237 C4236 1.377 . S
C4237 C4243 1.390 . S
C4238 H4229 0.930 . S
C4238 C4236 1.384 . S
C4238 C4239 1.372 . S
C4239 C4238 1.372 . S
C4239 C4240 1.400 . S
C4239 C4244 1.490 . S
C4240 H4230 0.930 . S
C4240 C4239 1.400 . S
C4240 C4243 1.386 . S
H4241 C4257 0.930 . S
H4242 C4258 0.931 . S
C4243 H4231 0.929 . S
C4243 C4237 1.390 . S
C4243 C4240 1.386 . S
C4244 C4239 1.490 . S
C4244 C4246 1.395 . S
C4244 C4247 1.403 . S
H4245 C4251 0.930 . S
C4246 H4232 0.930 . S
C4246 C4244 1.395 . S
C4246 C4249 1.403 . S
C4247 C4244 1.403 . S
C4247 C4248 1.524 . S
C4247 C4251 1.400 . S
C4248 H4233 0.960 . S
C4248 H4234 0.960 . S
C4248 H4235 0.960 . S
C4248 C4247 1.524 . S
C4249 C4246 1.403 . S
C4249 C4250 1.392 . S
C4249 C4253 1.495 . S
C4250 C4249 1.392 . S
C4250 C4251 1.385 . S
C4250 C4252 1.478 . S
C4251 H4245 0.930 . S
C4251 C4247 1.400 . S
C4251 C4250 1.385 . S
C4252 C4250 1.478 . S
C4252 C4254 1.381 . S
C4252 C4258 1.383 . S
C4253 C4249 1.495 . S
C4253 H4259 0.959 . S
C4253 H4260 0.961 . S
C4253 H4261 0.960 . S
C4254 C4252 1.381 . S
C4254 C4255 1.394 . S
C4254 H4262 0.930 . S
C4255 C4254 1.394 . S
C4255 C4256 1.383 . S
C4255 H4263 0.929 . S
C4256 C4255 1.383 . S
C4256 C4257 1.377 . S
C4257 H4241 0.930 . S
C4257 C4256 1.377 . S
C4257 C4258 1.379 . S
C4258 H4242 0.931 . S
C4258 C4252 1.383 . S
C4258 C4257 1.379 . S
H4259 C4253 0.959 . S
H4260 C4253 0.961 . S
H4261 C4253 0.960 . S
H4262 C4254 0.930 . S
H4263 C4255 0.929 . S
H4264 C4272 0.929 . S
H4265 C4274 0.930 . S
H4266 C4276 0.930 . S
H4267 C4279 0.929 . S
H4268 C4282 0.930 . S
H4269 C4284 0.960 . S
H4270 C4284 0.960 . S
H4271 C4284 0.960 . S
C4272 H4264 0.929 . S
C4272 C4273 1.377 . S
C4272 C4274 1.384 . S
C4273 C4272 1.377 . S
C4273 C4279 1.390 . S
C4274 H4265 0.930 . S
C4274 C4272 1.384 . S
C4274 C4275 1.372 . S
C4275 C4274 1.372 . S
C4275 C4276 1.400 . S
C4275 C4280 1.490 . S
C4276 H4266 0.930 . S
C4276 C4275 1.400 . S
C4276 C4279 1.386 . S
H4277 C4293 0.930 . S
H4278 C4294 0.931 . S
C4279 H4267 0.929 . S
C4279 C4273 1.390 . S
C4279 C4276 1.386 . S
C4280 C4275 1.490 . S
C4280 C4282 1.395 . S
C4280 C4283 1.403 . S
H4281 C4287 0.930 . S
C4282 H4268 0.930 . S
C4282 C4280 1.395 . S
C4282 C4285 1.403 . S
C4283 C4280 1.403 . S
C4283 C4284 1.524 . S
C4283 C4287 1.400 . S
C4284 H4269 0.960 . S
C4284 H4270 0.960 . S
C4284 H4271 0.960 . S
C4284 C4283 1.524 . S
C4285 C4282 1.403 . S
C4285 C4286 1.392 . S
C4285 C4289 1.495 . S
C4286 C4285 1.392 . S
C4286 C4287 1.385 . S
C4286 C4288 1.478 . S
C4287 H4281 0.930 . S
C4287 C4283 1.400 . S
C4287 C4286 1.385 . S
C4288 C4286 1.478 . S
C4288 C4290 1.381 . S
C4288 C4294 1.383 . S
C4289 C4285 1.495 . S
C4289 H4295 0.959 . S
C4289 H4296 0.961 . S
C4289 H4297 0.960 . S
C4290 C4288 1.381 . S
C4290 C4291 1.394 . S
C4290 H4298 0.930 . S
C4291 C4290 1.394 . S
C4291 C4292 1.383 . S
C4291 H4299 0.929 . S
C4292 C4291 1.383 . S
C4292 C4293 1.377 . S
C4293 H4277 0.930 . S
C4293 C4292 1.377 . S
C4293 C4294 1.379 . S
C4294 H4278 0.931 . S
C4294 C4288 1.383 . S
C4294 C4293 1.379 . S
H4295 C4289 0.959 . S
H4296 C4289 0.961 . S
H4297 C4289 0.960 . S
H4298 C4290 0.930 . S
H4299 C4291 0.929 . S
H4300 C4308 0.929 . S
H4301 C4310 0.930 . S
H4302 C4312 0.930 . S
H4303 C4315 0.929 . S
H4304 C4318 0.930 . S
H4305 C4320 0.960 . S
H4306 C4320 0.960 . S
H4307 C4320 0.960 . S
C4308 H4300 0.929 . S
C4308 C4309 1.377 . S
C4308 C4310 1.384 . S
C4309 C4308 1.377 . S
C4309 C4315 1.390 . S
C4310 H4301 0.930 . S
C4310 C4308 1.384 . S
C4310 C4311 1.372 . S
C4311 C4310 1.372 . S
C4311 C4312 1.400 . S
C4311 C4316 1.490 . S
C4312 H4302 0.930 . S
C4312 C4311 1.400 . S
C4312 C4315 1.386 . S
H4313 C4329 0.930 . S
H4314 C4330 0.931 . S
C4315 H4303 0.929 . S
C4315 C4309 1.390 . S
C4315 C4312 1.386 . S
C4316 C4311 1.490 . S
C4316 C4318 1.395 . S
C4316 C4319 1.403 1_554 S
H4317 C4323 0.930 . S
C4318 H4304 0.930 . S
C4318 C4316 1.395 . S
C4318 C4321 1.403 . S
C4319 C4316 1.403 1_556 S
C4319 C4320 1.524 . S
C4319 C4323 1.400 . S
C4320 H4305 0.960 . S
C4320 H4306 0.960 . S
C4320 H4307 0.960 . S
C4320 C4319 1.524 . S
C4321 C4318 1.403 . S
C4321 C4322 1.392 . S
C4321 C4325 1.495 . S
C4322 C4321 1.392 . S
C4322 C4323 1.385 1_554 S
C4322 C4324 1.478 . S
C4323 H4317 0.930 . S
C4323 C4319 1.400 . S
C4323 C4322 1.385 1_556 S
C4324 C4322 1.478 . S
C4324 C4326 1.377 1_554 S
C4324 C4330 1.383 . S
C4325 C4321 1.495 . S
C4325 H4331 0.959 . S
C4325 H4332 0.961 . S
C4325 H4333 0.960 . S
C4326 C4324 1.377 1_556 S
C4326 C4327 1.410 . S
C4326 H4334 0.929 . S
C4327 C4326 1.410 . S
C4327 C4328 1.383 . S
C4327 H4335 0.929 . S
C4328 C4327 1.383 . S
C4328 C4329 1.377 . S
C4329 H4313 0.930 . S
C4329 C4328 1.377 . S
C4329 C4330 1.379 1_556 S
C4330 H4314 0.931 . S
C4330 C4324 1.383 . S
C4330 C4329 1.379 1_554 S
H4331 C4325 0.959 . S
H4332 C4325 0.961 . S
H4333 C4325 0.960 . S
H4334 C4326 0.929 . S
H4335 C4327 0.929 . S
H4336 C4344 0.929 . S
H4337 C4346 0.930 . S
H4338 C4348 0.930 . S
H4339 C4351 0.929 . S
H4340 C4354 0.930 . S
H4341 C4356 0.960 . S
H4342 C4356 0.960 . S
H4343 C4356 0.960 . S
C4344 H4336 0.929 . S
C4344 C4345 1.377 . S
C4344 C4346 1.384 . S
C4345 C4344 1.377 . S
C4345 C4351 1.390 . S
C4346 H4337 0.930 . S
C4346 C4344 1.384 . S
C4346 C4347 1.372 . S
C4347 C4346 1.372 . S
C4347 C4348 1.400 . S
C4347 C4352 1.490 . S
C4348 H4338 0.930 . S
C4348 C4347 1.400 . S
C4348 C4351 1.386 . S
H4349 C4365 0.930 . S
H4350 C4366 0.931 . S
C4351 H4339 0.929 . S
C4351 C4345 1.390 . S
C4351 C4348 1.386 . S
C4352 C4347 1.490 . S
C4352 C4354 1.395 . S
C4352 C4355 1.403 . S
H4353 C4359 0.930 . S
C4354 H4340 0.930 . S
C4354 C4352 1.395 . S
C4354 C4357 1.403 . S
C4355 C4352 1.403 . S
C4355 C4356 1.524 . S
C4355 C4359 1.400 . S
C4356 H4341 0.960 . S
C4356 H4342 0.960 . S
C4356 H4343 0.960 . S
C4356 C4355 1.524 . S
C4357 C4354 1.403 . S
C4357 C4358 1.392 . S
C4357 C4361 1.495 . S
C4358 C4357 1.392 . S
C4358 C4359 1.385 . S
C4358 C4360 1.478 . S
C4359 H4353 0.930 . S
C4359 C4355 1.400 . S
C4359 C4358 1.385 . S
C4360 C4358 1.478 . S
C4360 C4362 1.381 . S
C4360 C4366 1.383 . S
C4361 C4357 1.495 . S
C4361 H4367 0.959 . S
C4361 H4368 0.961 . S
C4361 H4369 0.960 . S
C4362 C4360 1.381 . S
C4362 C4363 1.394 . S
C4362 H4370 0.930 . S
C4363 C4362 1.394 . S
C4363 C4364 1.383 . S
C4363 H4371 0.929 . S
C4364 C4363 1.383 . S
C4364 C4365 1.377 . S
C4365 H4349 0.930 . S
C4365 C4364 1.377 . S
C4365 C4366 1.379 . S
C4366 H4350 0.931 . S
C4366 C4360 1.383 . S
C4366 C4365 1.379 . S
H4367 C4361 0.959 . S
H4368 C4361 0.961 . S
H4369 C4361 0.960 . S
H4370 C4362 0.930 . S
H4371 C4363 0.929 . S
H4372 C4380 0.929 . S
H4373 C4382 0.930 . S
H4374 C4384 0.930 . S
H4375 C4387 0.929 . S
H4376 C4390 0.930 . S
H4377 C4392 0.960 . S
H4378 C4392 0.960 . S
H4379 C4392 0.960 . S
C4380 H4372 0.929 . S
C4380 C4381 1.377 . S
C4380 C4382 1.384 . S
C4381 C4380 1.377 . S
C4381 C4387 1.390 . S
C4382 H4373 0.930 . S
C4382 C4380 1.384 . S
C4382 C4383 1.372 . S
C4383 C4382 1.372 . S
C4383 C4384 1.400 . S
C4383 C4388 1.490 . S
C4384 H4374 0.930 . S
C4384 C4383 1.400 . S
C4384 C4387 1.386 . S
H4385 C4401 0.930 . S
H4386 C4402 0.931 . S
C4387 H4375 0.929 . S
C4387 C4381 1.390 . S
C4387 C4384 1.386 . S
C4388 C4383 1.490 . S
C4388 C4390 1.395 . S
C4388 C4391 1.403 . S
H4389 C4395 0.930 . S
C4390 H4376 0.930 . S
C4390 C4388 1.395 . S
C4390 C4393 1.403 . S
C4391 C4388 1.403 . S
C4391 C4392 1.524 . S
C4391 C4395 1.400 . S
C4392 H4377 0.960 . S
C4392 H4378 0.960 . S
C4392 H4379 0.960 . S
C4392 C4391 1.524 . S
C4393 C4390 1.403 . S
C4393 C4394 1.392 . S
C4393 C4397 1.495 . S
C4394 C4393 1.392 . S
C4394 C4395 1.385 . S
C4394 C4396 1.478 . S
C4395 H4389 0.930 . S
C4395 C4391 1.400 . S
C4395 C4394 1.385 . S
C4396 C4394 1.478 . S
C4396 C4398 1.381 . S
C4396 C4402 1.383 . S
C4397 C4393 1.495 . S
C4397 H4403 0.959 . S
C4397 H4404 0.961 . S
C4397 H4405 0.960 . S
C4398 C4396 1.381 . S
C4398 C4399 1.394 . S
C4398 H4406 0.930 . S
C4399 C4398 1.394 . S
C4399 C4400 1.383 . S
C4399 H4407 0.929 . S
C4400 C4399 1.383 . S
C4400 C4401 1.377 . S
C4401 H4385 0.930 . S
C4401 C4400 1.377 . S
C4401 C4402 1.379 . S
C4402 H4386 0.931 . S
C4402 C4396 1.383 . S
C4402 C4401 1.379 . S
H4403 C4397 0.959 . S
H4404 C4397 0.961 . S
H4405 C4397 0.960 . S
H4406 C4398 0.930 . S
H4407 C4399 0.929 . S
C961 C101 2.068 . S
C980 C325 2.048 . S
C997 C57 2.033 . S
C1016 C376 2.052 . S
C1033 C73 1.444 . S
C1052 C405 1.527 . S
C1088 C449 1.421 . S
C1069 C78 1.423 . S
C1105 C21 1.392 . S
C1124 C489 1.405 . S
C1160 C525 1.492 . S
C1141 C31 1.453 . S
C1196 C575 1.788 . S
C1177 C49 1.771 . S
C1213 C0 2.032 . S
C1232 C605 2.129 . S
C1268 C335 1.804 . S
C1249 C218 1.824 . S
C1285 C229 0.424 . S
C1304 C378 0.505 . S
C1340 C415 1.189 . S
C1321 C257 1.178 . S
C1376 C445 1.281 . S
C1357 C164 1.247 . S
C1393 C216 1.287 . S
C1412 C485 1.327 . S
C1448 C535 0.835 . S
C1429 C231 0.857 . S
C1484 C569 0.693 . S
C1465 C255 0.701 . S
C1520 C615 1.772 . S
C1501 C166 1.792 . S
C1556 C329 0.864 1_565 S
C1537 C143 0.900 1_556 S
C1573 C265 1.684 . S
C1592 C655 1.700 . S
C1628 C689 1.318 . S
C1609 C299 1.288 . S
C1664 C725 0.827 . S
C1645 C291 0.847 . S
C1681 C104 1.133 . S
C1700 C609 1.126 . S
C1717 C117 1.390 . S
C1736 C409 1.383 . S
C1753 C304 1.537 . S
C1772 C775 1.531 . S
C1808 C794 0.134 . S
C1789 C278 0.359 . S
C1844 C336 1.980 . S
C1825 C60 1.981 . S
C1880 C805 1.927 . S
C1861 C96 1.950 . S
C1897 C88 1.395 . S
C1916 C416 1.391 . S
C1933 C65 1.384 . S
C1952 C778 1.370 . S
C1988 C498 1.338 . S
C1969 C10 1.338 . S
C2005 C44 1.341 . S
C2024 C696 1.376 . S
C2060 C554 1.682 1_556 S
C2041 C34 1.632 . S
C2096 C856 2.059 . S
C2077 C13 2.053 . S
C2132 C314 1.706 . S
C2113 C138 1.692 . S
C2168 C809 0.460 . S
C2149 C296 0.336 . S
C2185 C112 1.073 . S
C2204 C394 1.090 . S
C2221 C270 1.186 . S
C2240 C776 1.175 . S
C2257 C140 1.216 . S
C2276 C496 1.188 . S
C2312 C674 0.742 . S
C2293 C294 0.757 . S
C2329 C114 0.614 . S
C2348 C578 0.689 . S
C2365 C268 1.654 . S
C2384 C834 1.665 . S
C2401 C169 0.918 . S
C2420 C338 0.859 . S
C2437 C161 1.602 . S
C2456 C634 1.604 . S
C2473 C234 1.320 . S
C2492 C538 1.255 . S
C2509 C226 0.773 . S
C2528 C736 0.767 . S
C2564 C858 1.093 . S
C2545 C247 1.162 . S
C2581 C195 1.412 . S
C2600 C418 1.368 . S
C2636 C434 1.435 . S
C2617 C239 1.445 . S
C2672 C375 0.337 . S
C2653 C187 0.397 . S
C2689 C75 2.067 . S
C2708 C885 2.055 . S
C2744 C816 2.050 . S
C2725 C83 2.033 . S
C2761 C99 1.453 . S
C2780 C925 1.510 . S
C2797 C52 1.433 1_655 S
C2816 C769 1.415 . S
C2833 C47 1.400 . S
C2852 C649 1.374 . S
C2888 C685 1.519 . S
C2869 C5 1.451 . S
C2924 C735 1.791 . S
C2905 C23 1.773 . S
C2960 C845 2.114 . S
C2941 C26 2.038 . S
C2996 C895 1.795 . S
C2977 C244 1.824 . S
C3013 C177 0.423 . S
C3032 C818 0.508 . S
C3068 C935 1.189 . S
C3049 C192 1.180 . S
C3104 C765 1.288 . S
C3085 C203 1.243 . S
C3140 C645 1.351 . S
C3121 C242 1.275 . S
C3157 C179 0.856 . S
C3176 C695 0.852 . S
C3212 C729 0.653 . S
C3193 C190 0.684 . S
C3229 C205 1.791 . S
C3248 C855 1.763 . S
C3284 C889 0.938 . S
C3265 C286 0.889 . S
C3301 C122 1.680 . S
C3320 C495 1.706 . S
C3356 C529 1.272 . S
C3337 C130 1.276 1_565 S
C3392 C565 0.879 . S
C3373 C148 0.848 . S
C3428 C849 1.181 . S
C3409 C273 1.127 . S
C3445 C260 1.387 . S
C3464 C929 1.361 . S
C3500 C455 1.530 . S
C3481 C135 1.538 . S
C3536 C354 0.120 . S
C3517 C109 0.359 . S
C3553 C86 1.982 . S
C3572 C896 1.974 . S
C3608 C365 1.923 . S
C3589 C70 1.946 . S
C3625 C62 1.393 . S
C3644 C936 1.367 . S
C3661 C91 1.384 . S
C3680 C458 1.369 . S
C3697 C36 1.340 . S
C3716 C658 1.298 . S
C3752 C536 1.376 . S
C3733 C18 1.346 . S
C3769 C8 1.631 . S
C3788 C714 1.686 . S
C3805 C39 2.054 . S
C3824 C616 2.056 . S
C3860 C874 1.711 . S
C3841 C307 1.691 . S
C3877 C153 0.344 . S
C3896 C369 0.324 . S
C3932 C914 1.056 . S
C3913 C281 1.069 . S
C3949 C127 1.185 . S
C3968 C456 1.164 . S
C3985 C309 1.216 . S
C4004 C656 1.184 . S
C4040 C514 0.768 . S
C4021 C151 0.752 . S
C4057 C283 0.608 . S
C4076 C738 0.640 . S
C4112 C594 1.652 . S
C4093 C125 1.654 . S
C4148 C898 0.941 . S
C4129 C221 0.920 . S
C4184 C474 1.586 . S
C4165 C200 1.601 . S
C4201 C208 1.316 . S
C4220 C698 1.275 . S
C4256 C576 0.743 . S
C4237 C174 0.760 . S
C4273 C182 1.159 . S
C4292 C618 1.106 . S
C4309 C156 1.414 . S
C4328 C938 1.330 . S
C4364 C754 1.452 . S
C4345 C213 1.446 . S
C4400 C815 0.278 . S
C4381 C252 0.422 . S
