# Generated by pormake.
# Topology anh, (6,3)-cn, num edge types: 1
# Building blocks:
#     Node 0, Type 0, BuildingBlock: GEDQOX_clean_sbu_0, # of connection points: 6
#     Node 1, Type 0, BuildingBlock: GEDQOX_clean_sbu_0, # of connection points: 6
#     Node 2, Type 0, BuildingBlock: GEDQOX_clean_sbu_0, # of connection points: 6
#     Node 3, Type 1, BuildingBlock: OLANEW_clean_sbu_2, # of connection points: 3
#     Node 4, Type 1, BuildingBlock: OLANEW_clean_sbu_2, # of connection points: 3
#     Node 5, Type 1, BuildingBlock: OLANEW_clean_sbu_2, # of connection points: 3
#     Node 6, Type 1, BuildingBlock: OLANEW_clean_sbu_2, # of connection points: 3
#     Node 7, Type 1, BuildingBlock: OLANEW_clean_sbu_2, # of connection points: 3
#     Node 8, Type 1, BuildingBlock: OLANEW_clean_sbu_2, # of connection points: 3
#     Edge 9, Type (0, 1), BuildingBlock: EZIPEK_clean_linker_0, # of connection points: 2
#     Edge 10, Type (0, 1), BuildingBlock: EZIPEK_clean_linker_0, # of connection points: 2
#     Edge 11, Type (0, 1), BuildingBlock: EZIPEK_clean_linker_0, # of connection points: 2
#     Edge 12, Type (0, 1), BuildingBlock: EZIPEK_clean_linker_0, # of connection points: 2
#     Edge 13, Type (0, 1), BuildingBlock: EZIPEK_clean_linker_0, # of connection points: 2
#     Edge 14, Type (0, 1), BuildingBlock: EZIPEK_clean_linker_0, # of connection points: 2
#     Edge 15, Type (0, 1), BuildingBlock: EZIPEK_clean_linker_0, # of connection points: 2
#     Edge 16, Type (0, 1), BuildingBlock: EZIPEK_clean_linker_0, # of connection points: 2
#     Edge 17, Type (0, 1), BuildingBlock: EZIPEK_clean_linker_0, # of connection points: 2
#     Edge 18, Type (0, 1), BuildingBlock: EZIPEK_clean_linker_0, # of connection points: 2
#     Edge 19, Type (0, 1), BuildingBlock: EZIPEK_clean_linker_0, # of connection points: 2
#     Edge 20, Type (0, 1), BuildingBlock: EZIPEK_clean_linker_0, # of connection points: 2
#     Edge 21, Type (0, 1), BuildingBlock: EZIPEK_clean_linker_0, # of connection points: 2
#     Edge 22, Type (0, 1), BuildingBlock: EZIPEK_clean_linker_0, # of connection points: 2
#     Edge 23, Type (0, 1), BuildingBlock: EZIPEK_clean_linker_0, # of connection points: 2
#     Edge 24, Type (0, 1), BuildingBlock: EZIPEK_clean_linker_0, # of connection points: 2
#     Edge 25, Type (0, 1), BuildingBlock: EZIPEK_clean_linker_0, # of connection points: 2
#     Edge 26, Type (0, 1), BuildingBlock: EZIPEK_clean_linker_0, # of connection points: 2
# Relax obj value: 0.190
# Max RMSD: 0.196
# Mean RMSD: 0.124
data_MOF--net-anh--node1-GEDQOX_clean_sbu_0--node2-OLANEW_clean_sbu_2--edge1-EZIPEK_clean_linker_0
_symmetry_space_group_name_H-M    P1
_symmetry_Int_Tables_number       1
_symmetry_cell_setting            triclinic
loop_
_symmetry_equiv_pos_as_xyz
'x, y, z'
_cell_length_a     29.308943
_cell_length_b     25.616637
_cell_length_c     37.273206
_cell_angle_alpha  92.854721
_cell_angle_beta   90.151028
_cell_angle_gamma 104.44335
loop_
_atom_site_label
_atom_site_type_symbol
_atom_site_fract_x
_atom_site_fract_y
_atom_site_fract_z
_atom_type_partial_charge
Nd0 Nd 0.0585 0.57239 0.12594 0.0
Nd1 Nd 0.03582 0.45295 0.12203 0.0
C2 C 0.09549 0.67718 0.12079 0.0
C3 C 0.1411 0.71182 0.13335 0.0
C4 C 0.1565 0.76491 0.12251 0.0
C5 C 0.19914 0.79815 0.13601 0.0
C6 C 0.22652 0.77843 0.16045 0.0
C7 C 0.21132 0.72517 0.17087 0.0
C8 C 0.16892 0.69215 0.15744 0.0
C9 C 0.03811 0.52813 0.1915 0.0
C10 C 0.14724 0.51508 0.12267 0.0
C11 C 0.01992 0.34969 0.13557 0.0
C12 C 0.97685 0.30977 0.14493 0.0
C13 C 0.97969 0.26831 0.16738 0.0
C14 C 0.93862 0.23447 0.1803 0.0
C15 C 0.89437 0.24186 0.17086 0.0
C16 C 0.89147 0.28265 0.14788 0.0
C17 C 0.93247 0.31662 0.13514 0.0
C18 C 0.02791 0.49592 0.05663 0.0
C19 C 0.94852 0.50999 0.12337 0.0
O20 O 0.09683 0.64147 0.09482 0.0
O21 O 0.06714 0.65696 0.14625 0.0
O22 O 0.0241 0.56917 0.18127 0.0
O23 O 0.06338 0.51308 0.16782 0.0
O24 O 0.13352 0.55935 0.1315 0.0
O25 O 0.11626 0.46874 0.11474 0.0
O26 O 0.03444 0.38877 0.15991 0.0
O27 O 0.02201 0.3668 0.10298 0.0
O28 O 0.9988 0.4529 0.06753 0.0
O29 O 0.06052 0.51341 0.07954 0.0
O30 O 0.9633 0.46926 0.13536 0.0
O31 O 0.97902 0.55238 0.1112 0.0
H32 H 0.1354 0.78074 0.104 0.0
H33 H 0.21058 0.83926 0.12772 0.0
H34 H 0.23208 0.7094 0.1897 0.0
H35 H 0.15754 0.65148 0.16635 0.0
H36 H 1.01366 0.26312 0.1757 0.0
H37 H 0.94129 0.20319 0.19812 0.0
H38 H 0.85751 0.28891 0.14053 0.0
H39 H 0.92958 0.34912 0.11844 0.0
Nd40 Nd 0.45524 0.98468 0.52142 0.0
Nd41 Nd 0.56222 0.01012 0.51624 0.0
C42 C 0.36583 0.94298 0.53653 0.0
C43 C 0.33208 0.89183 0.52559 0.0
C44 C 0.29056 0.87391 0.54484 0.0
C45 C 0.25859 0.82504 0.53445 0.0
C46 C 0.26795 0.79366 0.50473 0.0
C47 C 0.3097 0.81139 0.48568 0.0
C48 C 0.34159 0.86016 0.49607 0.0
C49 C 0.48847 -0.00154 0.45286 0.0
C50 C 0.50934 0.88442 0.51645 0.0
C51 C 0.65005 0.04783 0.49585 0.0
C52 C 0.68401 0.10033 0.49166 0.0
C53 C 0.67234 0.14055 0.47174 0.0
C54 C 0.70612 0.18849 0.46607 0.0
C55 C 0.7518 0.19708 0.48047 0.0
C56 C 0.76313 0.1578 0.50126 0.0
C57 C 0.72947 0.10964 0.5067 0.0
C58 C 0.52934 0.99171 0.58433 0.0
C59 C 0.51032 0.11094 0.52918 0.0
O60 O 0.40081 0.93895 0.55714 0.0
O61 O 0.3793 0.97656 0.51107 0.0
O62 O 0.45098 0.01214 0.46386 0.0
O63 O 0.50415 0.97416 0.47673 0.0
O64 O 0.47109 0.90091 0.52445 0.0
O65 O 0.54839 0.91845 0.50658 0.0
O66 O 0.61395 0.03488 0.47349 0.0
O67 O 0.63906 0.03415 0.52868 0.0
O68 O 0.56629 0.97793 0.57198 0.0
O69 O 0.51335 0.01859 0.56203 0.0
O70 O 0.54831 0.09537 0.51897 0.0
O71 O 0.47056 0.07541 0.53615 0.0
H72 H 0.28284 0.89775 0.5678 0.0
H73 H 0.22647 0.81181 0.5494 0.0
H74 H 0.31742 0.78757 0.46272 0.0
H75 H 0.37359 0.87336 0.48099 0.0
H76 H 0.63747 0.13462 0.45999 0.0
H77 H 0.69693 0.21851 0.44994 0.0
H78 H 0.79834 0.16387 0.51244 0.0
H79 H 0.73919 0.0792 0.52213 0.0
Nd80 Nd 0.45086 0.50376 0.86949 0.0
Nd81 Nd 0.56087 0.52842 0.8708 0.0
C82 C 0.36035 0.47652 0.85279 0.0
C83 C 0.32968 0.50397 0.8343 0.0
C84 C 0.34882 0.54637 0.81193 0.0
C85 C 0.31965 0.57489 0.79638 0.0
C86 C 0.27132 0.56157 0.80351 0.0
C87 C 0.25221 0.51866 0.82535 0.0
C88 C 0.28126 0.49 0.84068 0.0
C89 C 0.49275 0.52212 0.93677 0.0
C90 C 0.50951 0.62613 0.86906 0.0
C91 C 0.64936 0.54315 0.89113 0.0
C92 C 0.6893 0.52964 0.87297 0.0
C93 C 0.6826 0.50141 0.83929 0.0
C94 C 0.72062 0.48841 0.82176 0.0
C95 C 0.76549 0.50328 0.83793 0.0
C96 C 0.77219 0.53177 0.87148 0.0
C97 C 0.7342 0.54493 0.88895 0.0
C98 C 0.53131 0.52798 0.8005 0.0
C99 C 0.50101 0.40382 0.85605 0.0
O100 O 0.39219 0.46174 0.833 0.0
O101 O 0.37677 0.49861 0.8841 0.0
O102 O 0.4552 0.53726 0.92833 0.0
O103 O 0.50491 0.49554 0.91077 0.0
O104 O 0.47187 0.5916 0.85514 0.0
O105 O 0.54395 0.61016 0.88441 0.0
O106 O 0.61597 0.50173 0.90012 0.0
O107 O 0.63328 0.58059 0.87654 0.0
O108 O 0.57523 0.53586 0.80985 0.0
O109 O 0.50604 0.52043 0.82792 0.0
O110 O 0.54297 0.4381 0.85595 0.0
O111 O 0.46202 0.41841 0.8644 0.0
H112 H 0.38634 0.5579 0.80699 0.0
H113 H 0.33474 0.6079 0.77952 0.0
H114 H 0.21486 0.50799 0.83097 0.0
H115 H 0.26612 0.45763 0.85804 0.0
H116 H 0.64796 0.48929 0.82669 0.0
H117 H 0.71509 0.46646 0.79587 0.0
H118 H 0.80681 0.54349 0.88416 0.0
H119 H 0.73979 0.56679 0.91487 0.0
O120 O 0.60944 0.05455 0.30671 0.0
Cd121 Cd 0.62912 0.05795 0.24291 0.0
O122 O 0.54552 0.00058 0.28315 0.0
Cd123 Cd 0.47379 0.94992 0.28304 0.0
O124 O 0.40606 0.90396 0.26058 0.0
C125 C 0.40042 0.90412 0.22676 0.0
O126 O 0.43469 0.93152 0.20739 0.0
C127 C 0.56859 0.02408 0.31077 0.0
C128 C 0.71843 0.11651 0.22481 0.0
O129 O 0.6847 0.13976 0.22911 0.0
O130 O 0.71054 0.06604 0.23025 0.0
O131 O 0.50986 0.47408 0.62957 0.0
Cd132 Cd 0.50352 0.44466 0.56564 0.0
O133 O 0.46475 0.53181 0.63224 0.0
Cd134 Cd 0.46316 0.55036 0.57542 0.0
O135 O 0.47253 0.6206 0.54169 0.0
C136 C 0.48399 0.66603 0.5592 0.0
O137 O 0.48986 0.66695 0.5942 0.0
C138 C 0.48928 0.5047 0.64777 0.0
C139 C 0.5082 0.3365 0.55533 0.0
O140 O 0.54557 0.37526 0.55557 0.0
O141 O 0.46857 0.34839 0.55978 0.0
O142 O 0.03112 0.56351 0.89004 0.0
Cd143 Cd 0.02115 0.59034 0.82871 0.0
O144 O 0.0485 0.48458 0.88238 0.0
Cd145 Cd 0.04139 0.48367 0.82426 0.0
O146 O 0.97761 0.48108 0.79395 0.0
C147 C 0.9436 0.46987 0.81555 0.0
O148 O 0.95193 0.4577 0.84835 0.0
C149 C 0.04075 0.52238 0.90308 0.0
C150 C 0.10722 0.61648 0.794 0.0
O151 O 0.09495 0.65072 0.81567 0.0
O152 O 0.07798 0.57041 0.78843 0.0
O153 O 0.07392 0.50065 0.36306 0.0
Cd154 Cd 0.07506 0.49859 0.42852 0.0
O155 O 0.99642 0.48127 0.35749 0.0
Cd156 Cd 0.98005 0.45518 0.41184 0.0
O157 O 0.93414 0.39004 0.4402 0.0
C158 C 0.89075 0.38914 0.44303 0.0
O159 O 0.87531 0.42932 0.4315 0.0
C160 C 0.03703 0.49482 0.34372 0.0
C161 C 0.13639 0.59353 0.45644 0.0
O162 O 0.15124 0.55135 0.44885 0.0
O163 O 0.0925 0.59068 0.45163 0.0
O164 O 0.50491 0.94054 0.75112 0.0
Cd165 Cd 0.49654 0.94041 0.8162 0.0
O166 O 0.5003 0.02385 0.75889 0.0
Cd167 Cd 0.49978 0.10381 0.74319 0.0
O168 O 0.50047 0.18454 0.76352 0.0
C169 C 0.49869 0.19061 0.79749 0.0
O170 O 0.49628 0.14902 0.81729 0.0
C171 C 0.50465 0.98506 0.73783 0.0
C172 C 0.50588 0.84314 0.84 0.0
O173 O 0.4655 0.84905 0.83047 0.0
O174 O 0.54175 0.88366 0.83921 0.0
O175 O 0.5965 0.50859 0.08755 0.0
Cd176 Cd 0.65066 0.50257 0.13876 0.0
O177 O 0.52645 0.50803 0.11094 0.0
Cd178 Cd 0.44949 0.50861 0.1086 0.0
O179 O 0.37083 0.49835 0.11238 0.0
C180 C 0.3506 0.5372 0.11453 0.0
O181 O 0.37645 0.58709 0.11448 0.0
C182 C 0.55324 0.50977 0.08376 0.0
C183 C 0.74788 0.50605 0.12803 0.0
O184 O 0.71607 0.46147 0.1247 0.0
O185 O 0.73434 0.54929 0.13498 0.0
C186 C 0.22809 0.53484 0.15233 0.0
C187 C 0.19905 0.51806 0.12116 0.0
C188 C 0.2683 0.50538 0.08747 0.0
C189 C 0.29805 0.52707 0.1176 0.0
N190 N 0.30702 0.56709 0.17797 0.0
N191 N 0.19315 0.4972 0.05732 0.0
C192 C 0.27809 0.54326 0.14978 0.0
C193 C 0.21954 0.50545 0.08833 0.0
N194 N 0.20767 0.54058 0.18476 0.0
N195 N 0.28668 0.48522 0.05776 0.0
H196 H 0.15823 0.49967 0.0566 0.0
H197 H 0.20692 0.4934 0.03188 0.0
H198 H 0.32243 0.48694 0.05525 0.0
H199 H 0.26604 0.46322 0.03668 0.0
H200 H 0.22609 0.54718 0.20915 0.0
H201 H 0.17135 0.5341 0.18781 0.0
H202 H 0.29568 0.58627 0.20025 0.0
H203 H 0.34322 0.57039 0.17828 0.0
C204 C 0.79421 0.29435 0.49354 0.0
C205 C 0.78861 0.24595 0.47188 0.0
C206 C 0.84863 0.29209 0.43068 0.0
C207 C 0.85659 0.33953 0.45364 0.0
N208 N 0.84212 0.38467 0.50909 0.0
N209 N 0.81447 0.19573 0.42292 0.0
C210 C 0.83071 0.3404 0.48569 0.0
C211 C 0.81715 0.24391 0.44142 0.0
N212 N 0.76401 0.29647 0.52117 0.0
N213 N 0.86921 0.29382 0.3977 0.0
H214 H 0.79051 0.15987 0.42899 0.0
H215 H 0.83825 0.19033 0.40324 0.0
H216 H 0.89217 0.32836 0.38853 0.0
H217 H 0.86051 0.26249 0.37805 0.0
H218 H 0.7626 0.33197 0.53546 0.0
H219 H 0.73799 0.26298 0.52844 0.0
H220 H 0.82809 0.38599 0.53465 0.0
H221 H 0.86855 0.41907 0.50405 0.0
C222 C 0.54602 0.71308 0.8412 0.0
C223 C 0.51365 0.68424 0.86584 0.0
C224 C 0.48353 0.76406 0.87881 0.0
C225 C 0.51097 0.78998 0.85046 0.0
N226 N 0.56316 0.78623 0.80082 0.0
N227 N 0.44993 0.68028 0.90724 0.0
C228 C 0.54138 0.7641 0.83089 0.0
C229 C 0.48192 0.7092 0.88446 0.0
N230 N 0.58073 0.69149 0.82712 0.0
N231 N 0.46039 0.7925 0.9011 0.0
H232 H 0.44986 0.64122 0.91397 0.0
H233 H 0.42198 0.69388 0.91803 0.0
H234 H 0.46174 0.83316 0.89823 0.0
H235 H 0.44355 0.77751 0.92436 0.0
H236 H 0.6085 0.71337 0.81236 0.0
H237 H 0.58401 0.65301 0.83233 0.0
H238 H 0.58108 0.766 0.78308 0.0
H239 H 0.55975 0.82275 0.79147 0.0
C240 C 0.87346 0.50692 0.15794 0.0
C241 C 0.89686 0.50837 0.12445 0.0
C242 C 0.82324 0.51231 0.0935 0.0
C243 C 0.79919 0.50701 0.12663 0.0
N244 N 0.79937 0.49094 0.18976 0.0
N245 N 0.89091 0.50012 0.05986 0.0
C246 C 0.82376 0.50182 0.15865 0.0
C247 C 0.87091 0.50796 0.09207 0.0
N248 N 0.89899 0.51257 0.18926 0.0
N249 N 0.80065 0.52205 0.06338 0.0
H250 H 0.92452 0.49365 0.05799 0.0
H251 H 0.87266 0.49431 0.03539 0.0
H252 H 0.7655 0.52397 0.06328 0.0
H253 H 0.81767 0.53232 0.03929 0.0
H254 H 0.88521 0.51807 0.21447 0.0
H255 H 0.93516 0.51621 0.19001 0.0
H256 H 0.81384 0.48022 0.21297 0.0
H257 H 0.76341 0.48854 0.19164 0.0
C258 C 0.20311 0.7418 0.46321 0.0
C259 C 0.23355 0.74254 0.49297 0.0
C260 C 0.19677 0.64692 0.50113 0.0
C261 C 0.16949 0.64491 0.4693 0.0
N262 N 0.15316 0.68787 0.41617 0.0
N263 N 0.26492 0.69463 0.53708 0.0
C264 C 0.17425 0.69172 0.44932 0.0
C265 C 0.23198 0.69472 0.51106 0.0
N266 N 0.2011 0.78914 0.44865 0.0
N267 N 0.1877 0.60397 0.52267 0.0
H268 H 0.29087 0.72906 0.54538 0.0
H269 H 0.26895 0.65965 0.54838 0.0
H270 H 0.16164 0.56861 0.51667 0.0
H271 H 0.20295 0.60514 0.54806 0.0
H272 H 0.17587 0.79183 0.42958 0.0
H273 H 0.22214 0.8266 0.4578 0.0
H274 H 0.15958 0.71931 0.39872 0.0
H275 H 0.13268 0.65174 0.40451 0.0
C276 C 0.46556 0.32308 0.81495 0.0
C277 C 0.49725 0.3472 0.84356 0.0
C278 C 0.53144 0.26917 0.84101 0.0
C279 C 0.49727 0.24346 0.81449 0.0
N280 N 0.42419 0.24005 0.78333 0.0
N281 N 0.55247 0.33779 0.88943 0.0
C282 C 0.46195 0.2686 0.80364 0.0
C283 C 0.52785 0.31858 0.85832 0.0
N284 N 0.44091 0.35275 0.79697 0.0
N285 N 0.56857 0.24789 0.84848 0.0
H286 H 0.54951 0.37303 0.90347 0.0
H287 H 0.57186 0.31597 0.90322 0.0
H288 H 0.57318 0.21237 0.83583 0.0
H289 H 0.59712 0.26809 0.86475 0.0
H290 H 0.4216 0.33837 0.77345 0.0
H291 H 0.44377 0.39361 0.80283 0.0
H292 H 0.39503 0.25492 0.77785 0.0
H293 H 0.41958 0.1995 0.77518 0.0
C294 C 0.46709 0.78603 0.50828 0.0
C295 C 0.50775 0.82614 0.5206 0.0
C296 C 0.53806 0.75509 0.54693 0.0
C297 C 0.49368 0.71801 0.54104 0.0
N298 N 0.41379 0.69925 0.51823 0.0
N299 N 0.58021 0.84832 0.55629 0.0
C300 C 0.4577 0.73345 0.52186 0.0
C301 C 0.54323 0.81053 0.54069 0.0
N302 N 0.43787 0.79788 0.48303 0.0
N303 N 0.57557 0.73716 0.55831 0.0
H304 H 0.58598 0.88954 0.55355 0.0
H305 H 0.60325 0.83898 0.57483 0.0
H306 H 0.57309 0.6966 0.56262 0.0
H307 H 0.60996 0.76129 0.5596 0.0
H308 H 0.41 0.76908 0.47074 0.0
H309 H 0.44466 0.83526 0.47154 0.0
H310 H 0.38474 0.71095 0.50839 0.0
H311 H 0.40548 0.66038 0.52758 0.0
C312 C 0.83974 0.52942 0.80352 0.0
C313 C 0.80608 0.48887 0.82035 0.0
C314 C 0.85818 0.42816 0.8145 0.0
C315 C 0.89534 0.47257 0.80603 0.0
N316 N 0.92167 0.56479 0.7887 0.0
N317 N 0.78095 0.39822 0.84044 0.0
C318 C 0.88598 0.52269 0.79838 0.0
C319 C 0.81413 0.43724 0.82464 0.0
N320 N 0.82735 0.57436 0.79287 0.0
N321 N 0.86575 0.3776 0.81326 0.0
H322 H 0.74783 0.40316 0.84755 0.0
H323 H 0.787 0.36202 0.8482 0.0
H324 H 0.89799 0.37058 0.80543 0.0
H325 H 0.83928 0.3426 0.81643 0.0
H326 H 0.84881 0.60343 0.77763 0.0
H327 H 0.79359 0.58004 0.79659 0.0
H328 H 0.91857 0.60433 0.78793 0.0
H329 H 0.95511 0.56063 0.78218 0.0
C330 C 0.26977 0.85208 0.2041 0.0
C331 C 0.2711 0.81335 0.17582 0.0
C332 C 0.35683 0.83145 0.18274 0.0
C333 C 0.35591 0.87311 0.20913 0.0
N334 N 0.31291 0.93034 0.24002 0.0
N335 N 0.31581 0.77255 0.13366 0.0
C336 C 0.31274 0.88548 0.21849 0.0
C337 C 0.31468 0.80503 0.16372 0.0
N338 N 0.2275 0.85571 0.21806 0.0
N339 N 0.39743 0.81527 0.17711 0.0
H340 H 0.28552 0.75238 0.11913 0.0
H341 H 0.34689 0.76934 0.1213 0.0
H342 H 0.42887 0.83279 0.19101 0.0
H343 H 0.39896 0.78127 0.16111 0.0
H344 H 0.22454 0.87868 0.24138 0.0
H345 H 0.19518 0.83244 0.20797 0.0
H346 H 0.28304 0.94465 0.24462 0.0
H347 H 0.34371 0.95624 0.25074 0.0
C348 C 0.53014 0.20797 0.50999 0.0
C349 C 0.51354 0.16982 0.53656 0.0
C350 C 0.49699 0.24233 0.57668 0.0
C351 C 0.51079 0.27938 0.54924 0.0
N352 N 0.53369 0.2965 0.48807 0.0
N353 N 0.49377 0.15376 0.59853 0.0
C354 C 0.5261 0.26209 0.51562 0.0
C355 C 0.5 0.18779 0.57077 0.0
N356 N 0.55107 0.19327 0.4797 0.0
N357 N 0.48045 0.25926 0.60834 0.0
H358 H 0.49829 0.11468 0.596 0.0
H359 H 0.48868 0.16534 0.62505 0.0
H360 H 0.48123 0.29954 0.61485 0.0
H361 H 0.46372 0.23336 0.62758 0.0
H362 H 0.56961 0.22073 0.46199 0.0
H363 H 0.55374 0.15426 0.47336 0.0
H364 H 0.53865 0.28461 0.46156 0.0
H365 H 0.53091 0.33629 0.49085 0.0
C366 C 0.23435 0.63962 0.80866 0.0
C367 C 0.23974 0.59261 0.78915 0.0
C368 C 0.1667 0.58667 0.75576 0.0
C369 C 0.1565 0.62472 0.78125 0.0
N370 N 0.19009 0.70797 0.8149 0.0
N371 N 0.21828 0.52867 0.73873 0.0
C372 C 0.19365 0.65836 0.80211 0.0
C373 C 0.20868 0.56929 0.76019 0.0
N374 N 0.26617 0.66379 0.83503 0.0
N375 N 0.13578 0.56758 0.7279 0.0
H376 H 0.24979 0.517 0.74108 0.0
H377 H 0.19553 0.50653 0.71887 0.0
H378 H 0.1062 0.58266 0.72416 0.0
H379 H 0.14087 0.54066 0.70739 0.0
H380 H 0.26094 0.69406 0.85307 0.0
H381 H 0.29702 0.6518 0.83986 0.0
H382 H 0.21729 0.73579 0.82866 0.0
H383 H 0.16205 0.72368 0.80745 0.0
C384 C 0.83389 0.22375 0.2192 0.0
C385 C 0.85079 0.20788 0.18579 0.0
C386 C 0.78039 0.13295 0.1776 0.0
C387 C 0.76478 0.1468 0.212 0.0
N388 N 0.77982 0.19907 0.26829 0.0
N389 N 0.84497 0.14303 0.13584 0.0
C390 C 0.79242 0.19052 0.2336 0.0
C391 C 0.82552 0.16102 0.16583 0.0
N392 N 0.85689 0.27128 0.2367 0.0
N393 N 0.75109 0.09491 0.15538 0.0
H394 H 0.87749 0.16333 0.12595 0.0
H395 H 0.8308 0.10587 0.12239 0.0
H396 H 0.71753 0.07371 0.16274 0.0
H397 H 0.75826 0.08746 0.12853 0.0
H398 H 0.84345 0.28829 0.25894 0.0
H399 H 0.88818 0.29586 0.22755 0.0
H400 H 0.80101 0.22661 0.28667 0.0
H401 H 0.74981 0.17528 0.27976 0.0
C402 C 0.06508 0.48221 0.99725 0.0
C403 C 0.03401 0.50568 0.01788 0.0
C404 C 1.00351 0.53323 0.96295 0.0
C405 C 0.03909 0.51685 0.94269 0.0
N406 N 0.11167 0.48789 0.94351 0.0
N407 N 0.98456 0.56811 0.02068 0.0
C408 C 0.07227 0.49473 0.96063 0.0
C409 C 1.00665 0.53583 0.00088 0.0
N410 N 0.08682 0.44695 0.01213 0.0
N411 N 0.96499 0.54298 0.94643 0.0
H412 H 0.98871 0.57357 0.04843 0.0
H413 H 0.96707 0.59404 0.00909 0.0
H414 H 0.95816 0.53613 0.91892 0.0
H415 H 0.93671 0.55085 0.96075 0.0
H416 H 0.1062 0.42488 0.9971 0.0
H417 H 0.08218 0.43634 0.03878 0.0
H418 H 0.1387 0.47625 0.95665 0.0
H419 H 0.12004 0.49987 0.91751 0.0
C420 C 0.51198 0.05411 0.39861 0.0
C421 C 0.50676 0.00437 0.41559 0.0
C422 C 0.54478 0.96908 0.36444 0.0
C423 C 0.54749 0.01742 0.34679 0.0
N424 N 0.52601 0.10187 0.34348 0.0
N425 N 0.50621 0.90982 0.40973 0.0
C426 C 0.52882 0.05876 0.36283 0.0
C427 C 0.51999 0.96053 0.3972 0.0
N428 N 0.50275 0.09775 0.41698 0.0
N429 N 0.5666 0.93162 0.35019 0.0
H430 H 0.48491 0.90089 0.43204 0.0
H431 H 0.51097 0.87547 0.39566 0.0
H432 H 0.58435 0.93602 0.32587 0.0
H433 H 0.57048 0.8985 0.36391 0.0
H434 H 0.51146 0.13656 0.40759 0.0
H435 H 0.48989 0.0967 0.44297 0.0
H436 H 0.50758 0.13004 0.35193 0.0
H437 H 0.5388 0.10717 0.31747 0.0
C438 C 0.5083 0.56536 0.74431 0.0
C439 C 0.51434 0.52044 0.76265 0.0
C440 C 0.49369 0.46357 0.70733 0.0
C441 C 0.49533 0.51008 0.68766 0.0
N442 N 0.51539 0.60789 0.68756 0.0
N443 N 0.52278 0.42895 0.75944 0.0
C444 C 0.50521 0.56182 0.70616 0.0
C445 C 0.50988 0.47009 0.74358 0.0
N446 N 0.50623 0.6117 0.76321 0.0
N447 N 0.4752 0.41312 0.69198 0.0
H448 H 0.53526 0.43219 0.78584 0.0
H449 H 0.52476 0.39339 0.74538 0.0
H450 H 0.46033 0.40651 0.66619 0.0
H451 H 0.46964 0.37828 0.70639 0.0
H452 H 0.4975 0.64407 0.75145 0.0
H453 H 0.50869 0.61547 0.79113 0.0
H454 H 0.52713 0.64629 0.7 0.0
H455 H 0.51777 0.60799 0.65969 0.0
C456 C 0.48647 0.94997 0.63806 0.0
C457 C 0.5197 0.99328 0.62326 0.0
C458 C 0.5441 0.03189 0.6839 0.0
C459 C 0.50824 0.99066 0.69845 0.0
N460 N 0.43739 0.91923 0.68866 0.0
N461 N 0.57446 0.08069 0.63137 0.0
C462 C 0.477 0.95234 0.67529 0.0
C463 C 0.54651 0.03612 0.64598 0.0
N464 N 0.46532 0.90538 0.61697 0.0
N465 N 0.57766 0.06481 0.70598 0.0
H466 H 0.57815 0.08454 0.60373 0.0
H467 H 0.59075 0.11567 0.64653 0.0
H468 H 0.57814 0.06212 0.73378 0.0
H469 H 0.60747 0.09158 0.69655 0.0
H470 H 0.44474 0.87016 0.62715 0.0
H471 H 0.47199 0.90174 0.58973 0.0
H472 H 0.41105 0.89426 0.67237 0.0
H473 H 0.4283 0.92094 0.71565 0.0
C474 C 0.47912 0.48056 0.99693 0.0
C475 C 0.50761 0.51857 0.97453 0.0
C476 C 0.5603 0.55589 0.02566 0.0
C477 C 0.53508 0.51429 0.04704 0.0
N478 N 0.47496 0.43104 0.05109 0.0
N479 N 0.58099 0.58424 0.9658 0.0
C480 C 0.49538 0.47515 0.0323 0.0
C481 C 0.5499 0.55378 0.98836 0.0
N482 N 0.43677 0.44917 0.98435 0.0
N483 N 0.59309 0.59868 0.04123 0.0
H484 H 0.57518 0.58258 0.93824 0.0
H485 H 0.61459 0.60643 0.97388 0.0
H486 H 0.60048 0.60287 0.06877 0.0
H487 H 0.60914 0.63277 0.02753 0.0
H488 H 0.41193 0.42576 0.00076 0.0
H489 H 0.42505 0.44892 0.95789 0.0
H490 H 0.44935 0.39825 0.04019 0.0
H491 H 0.48643 0.42473 0.07663 0.0
C492 C 0.0703 0.55707 0.25363 0.0
C493 C 0.04115 0.51732 0.23 0.0
C494 C 0.01728 0.45909 0.28033 0.0
C495 C 0.04086 0.50193 0.30454 0.0
N496 N 0.08471 0.5948 0.31468 0.0
N497 N 0.98218 0.43303 0.22134 0.0
C498 C 0.06635 0.55171 0.29134 0.0
C499 C 1.01346 0.46888 0.24343 0.0
N500 N 0.10245 0.59939 0.24002 0.0
N501 N 0.99998 0.40848 0.29237 0.0
H502 H 0.97882 0.43845 0.19412 0.0
H503 H 0.95711 0.4002 0.2305 0.0
H504 H 1.00327 0.39926 0.31905 0.0
H505 H 0.98673 0.37455 0.27533 0.0
H506 H 0.128 0.62652 0.25576 0.0
H507 H 0.10661 0.6044 0.21253 0.0
H508 H 0.09907 0.63364 0.3064 0.0
H509 H 0.08187 0.59305 0.34249 0.0
loop_
_geom_bond_atom_site_label_1
_geom_bond_atom_site_label_2
_geom_bond_distance
_geom_bond_site_symmetry_2
_ccdc_geom_bond_type
Nd0 C2 2.836 . S
Nd0 O20 2.500 . S
Nd0 O21 2.492 . S
Nd0 O22 2.487 . S
Nd0 O23 2.682 . S
Nd0 O24 2.410 . S
Nd0 O29 2.414 . S
Nd0 O31 2.424 1_455 S
Nd1 C11 2.836 . S
Nd1 O23 2.414 1_655 S
Nd1 O25 2.424 1_655 S
Nd1 O26 2.500 . S
Nd1 O27 2.492 . S
Nd1 O28 2.487 . S
Nd1 O29 2.682 1_655 S
Nd1 O30 2.410 . S
C2 Nd0 2.836 . S
C2 C3 1.498 . S
C2 O20 1.258 . S
C2 O21 1.239 . S
C3 C2 1.498 . S
C3 C4 1.366 . S
C3 C8 1.407 . S
C4 C3 1.366 . S
C4 C5 1.392 . S
C4 H32 0.930 . S
C5 C4 1.392 . S
C5 C6 1.398 . S
C5 H33 0.929 . S
C6 C5 1.398 . S
C6 C7 1.352 . S
C7 C6 1.352 . S
C7 C8 1.384 . S
C7 H34 0.930 . S
C8 C3 1.407 . S
C8 C7 1.384 . S
C8 H35 0.929 . S
C9 O22 1.241 . S
C9 O23 1.273 . S
C10 O24 1.251 . S
C10 O25 1.268 . S
C11 Nd1 2.836 . S
C11 C12 1.498 . S
C11 O26 1.258 . S
C11 O27 1.239 . S
C12 C11 1.498 . S
C12 C13 1.366 . S
C12 C17 1.407 . S
C13 C12 1.366 . S
C13 C14 1.392 . S
C13 H36 0.930 . S
C14 C13 1.392 . S
C14 C15 1.398 . S
C14 H37 0.929 . S
C15 C14 1.398 . S
C15 C16 1.352 . S
C16 C15 1.352 . S
C16 C17 1.384 . S
C16 H38 0.930 . S
C17 C12 1.407 . S
C17 C16 1.384 . S
C17 H39 0.929 . S
C18 O28 1.241 1_455 S
C18 O29 1.273 . S
C19 O30 1.251 . S
C19 O31 1.268 . S
O20 Nd0 2.500 . S
O20 C2 1.258 . S
O21 Nd0 2.492 . S
O21 C2 1.239 . S
O22 Nd0 2.487 . S
O22 C9 1.241 . S
O23 Nd0 2.682 . S
O23 Nd1 2.414 1_455 S
O23 C9 1.273 . S
O24 Nd0 2.410 . S
O24 C10 1.251 . S
O25 Nd1 2.424 1_455 S
O25 C10 1.268 . S
O26 Nd1 2.500 . S
O26 C11 1.258 . S
O27 Nd1 2.492 . S
O27 C11 1.239 . S
O28 Nd1 2.487 . S
O28 C18 1.241 1_655 S
O29 Nd0 2.414 . S
O29 Nd1 2.682 1_455 S
O29 C18 1.273 . S
O30 Nd1 2.410 . S
O30 C19 1.251 . S
O31 Nd0 2.424 1_655 S
O31 C19 1.268 . S
H32 C4 0.930 . S
H33 C5 0.929 . S
H34 C7 0.930 . S
H35 C8 0.929 . S
H36 C13 0.930 . S
H37 C14 0.929 . S
H38 C16 0.930 . S
H39 C17 0.929 . S
Nd40 C42 2.836 . S
Nd40 O60 2.500 . S
Nd40 O61 2.492 . S
Nd40 O62 2.487 . S
Nd40 O63 2.682 1_565 S
Nd40 O64 2.410 . S
Nd40 O69 2.414 1_565 S
Nd40 O71 2.424 1_565 S
Nd41 C51 2.836 . S
Nd41 O63 2.414 . S
Nd41 O65 2.424 1_545 S
Nd41 O66 2.500 . S
Nd41 O67 2.492 . S
Nd41 O68 2.487 . S
Nd41 O69 2.682 . S
Nd41 O70 2.410 . S
C42 Nd40 2.836 . S
C42 C43 1.498 . S
C42 O60 1.258 . S
C42 O61 1.239 . S
C43 C42 1.498 . S
C43 C44 1.366 . S
C43 C48 1.407 . S
C44 C43 1.366 . S
C44 C45 1.392 . S
C44 H72 0.930 . S
C45 C44 1.392 . S
C45 C46 1.398 . S
C45 H73 0.929 . S
C46 C45 1.398 . S
C46 C47 1.352 . S
C47 C46 1.352 . S
C47 C48 1.384 . S
C47 H74 0.930 . S
C48 C43 1.407 . S
C48 C47 1.384 . S
C48 H75 0.929 . S
C49 O62 1.241 1_545 S
C49 O63 1.273 . S
C50 O64 1.251 . S
C50 O65 1.268 . S
C51 Nd41 2.836 . S
C51 C52 1.498 . S
C51 O66 1.258 . S
C51 O67 1.239 . S
C52 C51 1.498 . S
C52 C53 1.366 . S
C52 C57 1.407 . S
C53 C52 1.366 . S
C53 C54 1.392 . S
C53 H76 0.930 . S
C54 C53 1.392 . S
C54 C55 1.398 . S
C54 H77 0.929 . S
C55 C54 1.398 . S
C55 C56 1.352 . S
C56 C55 1.352 . S
C56 C57 1.384 . S
C56 H78 0.930 . S
C57 C52 1.407 . S
C57 C56 1.384 . S
C57 H79 0.929 . S
C58 O68 1.241 . S
C58 O69 1.273 . S
C59 O70 1.251 . S
C59 O71 1.268 . S
O60 Nd40 2.500 . S
O60 C42 1.258 . S
O61 Nd40 2.492 . S
O61 C42 1.239 . S
O62 Nd40 2.487 . S
O62 C49 1.241 1_565 S
O63 Nd40 2.682 1_545 S
O63 Nd41 2.414 . S
O63 C49 1.273 . S
O64 Nd40 2.410 . S
O64 C50 1.251 . S
O65 Nd41 2.424 1_565 S
O65 C50 1.268 . S
O66 Nd41 2.500 . S
O66 C51 1.258 . S
O67 Nd41 2.492 . S
O67 C51 1.239 . S
O68 Nd41 2.487 . S
O68 C58 1.241 . S
O69 Nd40 2.414 1_545 S
O69 Nd41 2.682 . S
O69 C58 1.273 . S
O70 Nd41 2.410 . S
O70 C59 1.251 . S
O71 Nd40 2.424 1_545 S
O71 C59 1.268 . S
H72 C44 0.930 . S
H73 C45 0.929 . S
H74 C47 0.930 . S
H75 C48 0.929 . S
H76 C53 0.930 . S
H77 C54 0.929 . S
H78 C56 0.930 . S
H79 C57 0.929 . S
Nd80 C82 2.836 . S
Nd80 O100 2.500 . S
Nd80 O101 2.492 . S
Nd80 O102 2.487 . S
Nd80 O103 2.682 . S
Nd80 O104 2.410 . S
Nd80 O109 2.414 . S
Nd80 O111 2.424 . S
Nd81 C91 2.836 . S
Nd81 O103 2.414 . S
Nd81 O105 2.424 . S
Nd81 O106 2.500 . S
Nd81 O107 2.492 . S
Nd81 O108 2.487 . S
Nd81 O109 2.682 . S
Nd81 O110 2.410 . S
C82 Nd80 2.836 . S
C82 C83 1.498 . S
C82 O100 1.258 . S
C82 O101 1.239 . S
C83 C82 1.498 . S
C83 C84 1.366 . S
C83 C88 1.407 . S
C84 C83 1.366 . S
C84 C85 1.392 . S
C84 H112 0.930 . S
C85 C84 1.392 . S
C85 C86 1.398 . S
C85 H113 0.929 . S
C86 C85 1.398 . S
C86 C87 1.352 . S
C87 C86 1.352 . S
C87 C88 1.384 . S
C87 H114 0.930 . S
C88 C83 1.407 . S
C88 C87 1.384 . S
C88 H115 0.929 . S
C89 O102 1.241 . S
C89 O103 1.273 . S
C90 O104 1.251 . S
C90 O105 1.268 . S
C91 Nd81 2.836 . S
C91 C92 1.498 . S
C91 O106 1.258 . S
C91 O107 1.239 . S
C92 C91 1.498 . S
C92 C93 1.366 . S
C92 C97 1.407 . S
C93 C92 1.366 . S
C93 C94 1.392 . S
C93 H116 0.930 . S
C94 C93 1.392 . S
C94 C95 1.398 . S
C94 H117 0.929 . S
C95 C94 1.398 . S
C95 C96 1.352 . S
C96 C95 1.352 . S
C96 C97 1.384 . S
C96 H118 0.930 . S
C97 C92 1.407 . S
C97 C96 1.384 . S
C97 H119 0.929 . S
C98 O108 1.241 . S
C98 O109 1.273 . S
C99 O110 1.251 . S
C99 O111 1.268 . S
O100 Nd80 2.500 . S
O100 C82 1.258 . S
O101 Nd80 2.492 . S
O101 C82 1.239 . S
O102 Nd80 2.487 . S
O102 C89 1.241 . S
O103 Nd80 2.682 . S
O103 Nd81 2.414 . S
O103 C89 1.273 . S
O104 Nd80 2.410 . S
O104 C90 1.251 . S
O105 Nd81 2.424 . S
O105 C90 1.268 . S
O106 Nd81 2.500 . S
O106 C91 1.258 . S
O107 Nd81 2.492 . S
O107 C91 1.239 . S
O108 Nd81 2.487 . S
O108 C98 1.241 . S
O109 Nd80 2.414 . S
O109 Nd81 2.682 . S
O109 C98 1.273 . S
O110 Nd81 2.410 . S
O110 C99 1.251 . S
O111 Nd80 2.424 . S
O111 C99 1.268 . S
H112 C84 0.930 . S
H113 C85 0.929 . S
H114 C87 0.930 . S
H115 C88 0.929 . S
H116 C93 0.930 . S
H117 C94 0.929 . S
H118 C96 0.930 . S
H119 C97 0.929 . S
O120 Cd121 2.300 . S
O120 C127 1.275 . S
Cd121 O120 2.300 . S
Cd121 O129 2.381 . S
Cd121 O130 2.378 . S
O122 Cd123 2.385 . S
O122 C127 1.255 1_565 S
Cd123 O122 2.385 . S
Cd123 O124 2.317 . S
O124 Cd123 2.317 . S
O124 C125 1.232 . S
C125 O124 1.232 . S
C125 O126 1.218 . S
O126 C125 1.218 . S
C127 O120 1.275 . S
C127 O122 1.255 1_545 S
C128 O129 1.258 . S
C128 O130 1.256 . S
O129 Cd121 2.381 . S
O129 C128 1.258 . S
O130 Cd121 2.378 . S
O130 C128 1.256 . S
O131 Cd132 2.300 . S
O131 C138 1.275 . S
Cd132 O131 2.300 . S
Cd132 O140 2.381 . S
Cd132 O141 2.378 . S
O133 Cd134 2.385 . S
O133 C138 1.255 . S
Cd134 O133 2.385 . S
Cd134 O135 2.317 . S
O135 Cd134 2.317 . S
O135 C136 1.232 . S
C136 O135 1.232 . S
C136 O137 1.218 . S
O137 C136 1.218 . S
C138 O131 1.275 . S
C138 O133 1.255 . S
C139 O140 1.258 . S
C139 O141 1.256 . S
O140 Cd132 2.381 . S
O140 C139 1.258 . S
O141 Cd132 2.378 . S
O141 C139 1.256 . S
O142 Cd143 2.300 . S
O142 C149 1.275 . S
Cd143 O142 2.300 . S
Cd143 O151 2.381 . S
Cd143 O152 2.378 . S
O144 Cd145 2.385 . S
O144 C149 1.255 1_655 S
Cd145 O144 2.385 . S
Cd145 O146 2.317 . S
O146 Cd145 2.317 . S
O146 C147 1.232 . S
C147 O146 1.232 . S
C147 O148 1.218 . S
O148 C147 1.218 . S
C149 O142 1.275 . S
C149 O144 1.255 1_455 S
C150 O151 1.258 . S
C150 O152 1.256 . S
O151 Cd143 2.381 . S
O151 C150 1.258 . S
O152 Cd143 2.378 . S
O152 C150 1.256 . S
O153 Cd154 2.300 . S
O153 C160 1.275 1_455 S
Cd154 O153 2.300 . S
Cd154 O162 2.381 . S
Cd154 O163 2.378 . S
O155 Cd156 2.385 . S
O155 C160 1.255 . S
Cd156 O155 2.385 . S
Cd156 O157 2.317 . S
O157 Cd156 2.317 . S
O157 C158 1.232 . S
C158 O157 1.232 . S
C158 O159 1.218 . S
O159 C158 1.218 . S
C160 O153 1.275 1_655 S
C160 O155 1.255 . S
C161 O162 1.258 . S
C161 O163 1.256 . S
O162 Cd154 2.381 . S
O162 C161 1.258 . S
O163 Cd154 2.378 . S
O163 C161 1.256 . S
O164 Cd165 2.300 . S
O164 C171 1.275 1_565 S
Cd165 O164 2.300 . S
Cd165 O173 2.381 . S
Cd165 O174 2.378 . S
O166 Cd167 2.385 . S
O166 C171 1.255 . S
Cd167 O166 2.385 . S
Cd167 O168 2.317 . S
O168 Cd167 2.317 . S
O168 C169 1.232 . S
C169 O168 1.232 . S
C169 O170 1.218 . S
O170 C169 1.218 . S
C171 O164 1.275 1_545 S
C171 O166 1.255 . S
C172 O173 1.258 . S
C172 O174 1.256 . S
O173 Cd165 2.381 . S
O173 C172 1.258 . S
O174 Cd165 2.378 . S
O174 C172 1.256 . S
O175 Cd176 2.300 . S
O175 C182 1.275 . S
Cd176 O175 2.300 . S
Cd176 O184 2.381 . S
Cd176 O185 2.378 . S
O177 Cd178 2.385 . S
O177 C182 1.255 . S
Cd178 O177 2.385 . S
Cd178 O179 2.317 . S
O179 Cd178 2.317 . S
O179 C180 1.232 . S
C180 O179 1.232 . S
C180 O181 1.218 . S
O181 C180 1.218 . S
C182 O175 1.275 . S
C182 O177 1.255 . S
C183 O184 1.258 . S
C183 O185 1.256 . S
O184 Cd176 2.381 . S
O184 C183 1.258 . S
O185 Cd176 2.378 . S
O185 C183 1.256 . S
C186 C187 1.363 . S
C186 C192 1.379 . S
C186 N194 1.356 . S
C187 C186 1.363 . S
C187 C193 1.363 . S
C188 C189 1.363 . S
C188 C193 1.379 . S
C188 N195 1.356 . S
C189 C188 1.363 . S
C189 C192 1.363 . S
N190 C192 1.356 . S
N190 H202 0.984 . S
N190 H203 0.985 . S
N191 C193 1.356 . S
N191 H196 0.984 . S
N191 H197 0.985 . S
C192 C186 1.379 . S
C192 C189 1.363 . S
C192 N190 1.356 . S
C193 C187 1.363 . S
C193 C188 1.379 . S
C193 N191 1.356 . S
N194 C186 1.356 . S
N194 H200 0.984 . S
N194 H201 0.984 . S
N195 C188 1.356 . S
N195 H198 0.984 . S
N195 H199 0.985 . S
H196 N191 0.984 . S
H197 N191 0.985 . S
H198 N195 0.984 . S
H199 N195 0.985 . S
H200 N194 0.984 . S
H201 N194 0.984 . S
H202 N190 0.984 . S
H203 N190 0.985 . S
C204 C205 1.363 . S
C204 C210 1.379 . S
C204 N212 1.356 . S
C205 C204 1.363 . S
C205 C211 1.363 . S
C206 C207 1.363 . S
C206 C211 1.379 . S
C206 N213 1.356 . S
C207 C206 1.363 . S
C207 C210 1.363 . S
N208 C210 1.356 . S
N208 H220 0.984 . S
N208 H221 0.985 . S
N209 C211 1.356 . S
N209 H214 0.984 . S
N209 H215 0.985 . S
C210 C204 1.379 . S
C210 C207 1.363 . S
C210 N208 1.356 . S
C211 C205 1.363 . S
C211 C206 1.379 . S
C211 N209 1.356 . S
N212 C204 1.356 . S
N212 H218 0.984 . S
N212 H219 0.984 . S
N213 C206 1.356 . S
N213 H216 0.984 . S
N213 H217 0.985 . S
H214 N209 0.984 . S
H215 N209 0.985 . S
H216 N213 0.984 . S
H217 N213 0.985 . S
H218 N212 0.984 . S
H219 N212 0.984 . S
H220 N208 0.984 . S
H221 N208 0.985 . S
C222 C223 1.363 . S
C222 C228 1.379 . S
C222 N230 1.356 . S
C223 C222 1.363 . S
C223 C229 1.363 . S
C224 C225 1.363 . S
C224 C229 1.379 . S
C224 N231 1.356 . S
C225 C224 1.363 . S
C225 C228 1.363 . S
N226 C228 1.356 . S
N226 H238 0.984 . S
N226 H239 0.985 . S
N227 C229 1.356 . S
N227 H232 0.984 . S
N227 H233 0.985 . S
C228 C222 1.379 . S
C228 C225 1.363 . S
C228 N226 1.356 . S
C229 C223 1.363 . S
C229 C224 1.379 . S
C229 N227 1.356 . S
N230 C222 1.356 . S
N230 H236 0.984 . S
N230 H237 0.984 . S
N231 C224 1.356 . S
N231 H234 0.984 . S
N231 H235 0.985 . S
H232 N227 0.984 . S
H233 N227 0.985 . S
H234 N231 0.984 . S
H235 N231 0.985 . S
H236 N230 0.984 . S
H237 N230 0.984 . S
H238 N226 0.984 . S
H239 N226 0.985 . S
C240 C241 1.363 . S
C240 C246 1.379 . S
C240 N248 1.356 . S
C241 C240 1.363 . S
C241 C247 1.363 . S
C242 C243 1.363 . S
C242 C247 1.379 . S
C242 N249 1.356 . S
C243 C242 1.363 . S
C243 C246 1.363 . S
N244 C246 1.356 . S
N244 H256 0.984 . S
N244 H257 0.985 . S
N245 C247 1.356 . S
N245 H250 0.984 . S
N245 H251 0.985 . S
C246 C240 1.379 . S
C246 C243 1.363 . S
C246 N244 1.356 . S
C247 C241 1.363 . S
C247 C242 1.379 . S
C247 N245 1.356 . S
N248 C240 1.356 . S
N248 H254 0.984 . S
N248 H255 0.984 . S
N249 C242 1.356 . S
N249 H252 0.984 . S
N249 H253 0.985 . S
H250 N245 0.984 . S
H251 N245 0.985 . S
H252 N249 0.984 . S
H253 N249 0.985 . S
H254 N248 0.984 . S
H255 N248 0.984 . S
H256 N244 0.984 . S
H257 N244 0.985 . S
C258 C259 1.363 . S
C258 C264 1.379 . S
C258 N266 1.356 . S
C259 C258 1.363 . S
C259 C265 1.363 . S
C260 C261 1.363 . S
C260 C265 1.379 . S
C260 N267 1.356 . S
C261 C260 1.363 . S
C261 C264 1.363 . S
N262 C264 1.356 . S
N262 H274 0.984 . S
N262 H275 0.985 . S
N263 C265 1.356 . S
N263 H268 0.984 . S
N263 H269 0.985 . S
C264 C258 1.379 . S
C264 C261 1.363 . S
C264 N262 1.356 . S
C265 C259 1.363 . S
C265 C260 1.379 . S
C265 N263 1.356 . S
N266 C258 1.356 . S
N266 H272 0.984 . S
N266 H273 0.984 . S
N267 C260 1.356 . S
N267 H270 0.984 . S
N267 H271 0.985 . S
H268 N263 0.984 . S
H269 N263 0.985 . S
H270 N267 0.984 . S
H271 N267 0.985 . S
H272 N266 0.984 . S
H273 N266 0.984 . S
H274 N262 0.984 . S
H275 N262 0.985 . S
C276 C277 1.363 . S
C276 C282 1.379 . S
C276 N284 1.356 . S
C277 C276 1.363 . S
C277 C283 1.363 . S
C278 C279 1.363 . S
C278 C283 1.379 . S
C278 N285 1.356 . S
C279 C278 1.363 . S
C279 C282 1.363 . S
N280 C282 1.356 . S
N280 H292 0.984 . S
N280 H293 0.985 . S
N281 C283 1.356 . S
N281 H286 0.984 . S
N281 H287 0.985 . S
C282 C276 1.379 . S
C282 C279 1.363 . S
C282 N280 1.356 . S
C283 C277 1.363 . S
C283 C278 1.379 . S
C283 N281 1.356 . S
N284 C276 1.356 . S
N284 H290 0.984 . S
N284 H291 0.984 . S
N285 C278 1.356 . S
N285 H288 0.984 . S
N285 H289 0.985 . S
H286 N281 0.984 . S
H287 N281 0.985 . S
H288 N285 0.984 . S
H289 N285 0.985 . S
H290 N284 0.984 . S
H291 N284 0.984 . S
H292 N280 0.984 . S
H293 N280 0.985 . S
C294 C295 1.363 . S
C294 C300 1.379 . S
C294 N302 1.356 . S
C295 C294 1.363 . S
C295 C301 1.363 . S
C296 C297 1.363 . S
C296 C301 1.379 . S
C296 N303 1.356 . S
C297 C296 1.363 . S
C297 C300 1.363 . S
N298 C300 1.356 . S
N298 H310 0.984 . S
N298 H311 0.985 . S
N299 C301 1.356 . S
N299 H304 0.984 . S
N299 H305 0.985 . S
C300 C294 1.379 . S
C300 C297 1.363 . S
C300 N298 1.356 . S
C301 C295 1.363 . S
C301 C296 1.379 . S
C301 N299 1.356 . S
N302 C294 1.356 . S
N302 H308 0.984 . S
N302 H309 0.984 . S
N303 C296 1.356 . S
N303 H306 0.984 . S
N303 H307 0.985 . S
H304 N299 0.984 . S
H305 N299 0.985 . S
H306 N303 0.984 . S
H307 N303 0.985 . S
H308 N302 0.984 . S
H309 N302 0.984 . S
H310 N298 0.984 . S
H311 N298 0.985 . S
C312 C313 1.363 . S
C312 C318 1.379 . S
C312 N320 1.356 . S
C313 C312 1.363 . S
C313 C319 1.363 . S
C314 C315 1.363 . S
C314 C319 1.379 . S
C314 N321 1.356 . S
C315 C314 1.363 . S
C315 C318 1.363 . S
N316 C318 1.356 . S
N316 H328 0.984 . S
N316 H329 0.985 . S
N317 C319 1.356 . S
N317 H322 0.984 . S
N317 H323 0.985 . S
C318 C312 1.379 . S
C318 C315 1.363 . S
C318 N316 1.356 . S
C319 C313 1.363 . S
C319 C314 1.379 . S
C319 N317 1.356 . S
N320 C312 1.356 . S
N320 H326 0.984 . S
N320 H327 0.984 . S
N321 C314 1.356 . S
N321 H324 0.984 . S
N321 H325 0.985 . S
H322 N317 0.984 . S
H323 N317 0.985 . S
H324 N321 0.984 . S
H325 N321 0.985 . S
H326 N320 0.984 . S
H327 N320 0.984 . S
H328 N316 0.984 . S
H329 N316 0.985 . S
C330 C331 1.363 . S
C330 C336 1.379 . S
C330 N338 1.356 . S
C331 C330 1.363 . S
C331 C337 1.363 . S
C332 C333 1.363 . S
C332 C337 1.379 . S
C332 N339 1.356 . S
C333 C332 1.363 . S
C333 C336 1.363 . S
N334 C336 1.356 . S
N334 H346 0.984 . S
N334 H347 0.985 . S
N335 C337 1.356 . S
N335 H340 0.984 . S
N335 H341 0.985 . S
C336 C330 1.379 . S
C336 C333 1.363 . S
C336 N334 1.356 . S
C337 C331 1.363 . S
C337 C332 1.379 . S
C337 N335 1.356 . S
N338 C330 1.356 . S
N338 H344 0.984 . S
N338 H345 0.984 . S
N339 C332 1.356 . S
N339 H342 0.984 . S
N339 H343 0.985 . S
H340 N335 0.984 . S
H341 N335 0.985 . S
H342 N339 0.984 . S
H343 N339 0.985 . S
H344 N338 0.984 . S
H345 N338 0.984 . S
H346 N334 0.984 . S
H347 N334 0.985 . S
C348 C349 1.363 . S
C348 C354 1.379 . S
C348 N356 1.356 . S
C349 C348 1.363 . S
C349 C355 1.363 . S
C350 C351 1.363 . S
C350 C355 1.379 . S
C350 N357 1.356 . S
C351 C350 1.363 . S
C351 C354 1.363 . S
N352 C354 1.356 . S
N352 H364 0.984 . S
N352 H365 0.985 . S
N353 C355 1.356 . S
N353 H358 0.984 . S
N353 H359 0.985 . S
C354 C348 1.379 . S
C354 C351 1.363 . S
C354 N352 1.356 . S
C355 C349 1.363 . S
C355 C350 1.379 . S
C355 N353 1.356 . S
N356 C348 1.356 . S
N356 H362 0.984 . S
N356 H363 0.984 . S
N357 C350 1.356 . S
N357 H360 0.984 . S
N357 H361 0.985 . S
H358 N353 0.984 . S
H359 N353 0.985 . S
H360 N357 0.984 . S
H361 N357 0.985 . S
H362 N356 0.984 . S
H363 N356 0.984 . S
H364 N352 0.984 . S
H365 N352 0.985 . S
C366 C367 1.363 . S
C366 C372 1.379 . S
C366 N374 1.356 . S
C367 C366 1.363 . S
C367 C373 1.363 . S
C368 C369 1.363 . S
C368 C373 1.379 . S
C368 N375 1.356 . S
C369 C368 1.363 . S
C369 C372 1.363 . S
N370 C372 1.356 . S
N370 H382 0.984 . S
N370 H383 0.985 . S
N371 C373 1.356 . S
N371 H376 0.984 . S
N371 H377 0.985 . S
C372 C366 1.379 . S
C372 C369 1.363 . S
C372 N370 1.356 . S
C373 C367 1.363 . S
C373 C368 1.379 . S
C373 N371 1.356 . S
N374 C366 1.356 . S
N374 H380 0.984 . S
N374 H381 0.984 . S
N375 C368 1.356 . S
N375 H378 0.984 . S
N375 H379 0.985 . S
H376 N371 0.984 . S
H377 N371 0.985 . S
H378 N375 0.984 . S
H379 N375 0.985 . S
H380 N374 0.984 . S
H381 N374 0.984 . S
H382 N370 0.984 . S
H383 N370 0.985 . S
C384 C385 1.363 . S
C384 C390 1.379 . S
C384 N392 1.356 . S
C385 C384 1.363 . S
C385 C391 1.363 . S
C386 C387 1.363 . S
C386 C391 1.379 . S
C386 N393 1.356 . S
C387 C386 1.363 . S
C387 C390 1.363 . S
N388 C390 1.356 . S
N388 H400 0.984 . S
N388 H401 0.985 . S
N389 C391 1.356 . S
N389 H394 0.984 . S
N389 H395 0.985 . S
C390 C384 1.379 . S
C390 C387 1.363 . S
C390 N388 1.356 . S
C391 C385 1.363 . S
C391 C386 1.379 . S
C391 N389 1.356 . S
N392 C384 1.356 . S
N392 H398 0.984 . S
N392 H399 0.984 . S
N393 C386 1.356 . S
N393 H396 0.984 . S
N393 H397 0.985 . S
H394 N389 0.984 . S
H395 N389 0.985 . S
H396 N393 0.984 . S
H397 N393 0.985 . S
H398 N392 0.984 . S
H399 N392 0.984 . S
H400 N388 0.984 . S
H401 N388 0.985 . S
C402 C403 1.363 . S
C402 C408 1.379 1_554 S
C402 N410 1.356 . S
C403 C402 1.363 . S
C403 C409 1.363 . S
C404 C405 1.363 1_554 S
C404 C409 1.379 . S
C404 N411 1.356 1_554 S
C405 C404 1.363 1_556 S
C405 C408 1.363 . S
N406 C408 1.356 . S
N406 H418 0.984 1_455 S
N406 H419 0.985 . S
N407 C409 1.356 . S
N407 H412 0.984 . S
N407 H413 0.985 . S
C408 C402 1.379 1_556 S
C408 C405 1.363 . S
C408 N406 1.356 . S
C409 C403 1.363 . S
C409 C404 1.379 . S
C409 N407 1.356 . S
N410 C402 1.356 . S
N410 H416 0.984 . S
N410 H417 0.984 . S
N411 C404 1.356 1_556 S
N411 H414 0.984 . S
N411 H415 0.985 1_556 S
H412 N407 0.984 . S
H413 N407 0.985 . S
H414 N411 0.984 . S
H415 N411 0.985 1_554 S
H416 N410 0.984 . S
H417 N410 0.984 . S
H418 N406 0.984 1_655 S
H419 N406 0.985 . S
C420 C421 1.363 . S
C420 C426 1.379 . S
C420 N428 1.356 . S
C421 C420 1.363 . S
C421 C427 1.363 1_545 S
C422 C423 1.363 1_565 S
C422 C427 1.379 . S
C422 N429 1.356 . S
C423 C422 1.363 1_545 S
C423 C426 1.363 . S
N424 C426 1.356 . S
N424 H436 0.984 . S
N424 H437 0.985 . S
N425 C427 1.356 . S
N425 H430 0.984 . S
N425 H431 0.985 . S
C426 C420 1.379 . S
C426 C423 1.363 . S
C426 N424 1.356 . S
C427 C421 1.363 1_565 S
C427 C422 1.379 . S
C427 N425 1.356 . S
N428 C420 1.356 . S
N428 H434 0.984 . S
N428 H435 0.984 . S
N429 C422 1.356 . S
N429 H432 0.984 . S
N429 H433 0.985 . S
H430 N425 0.984 . S
H431 N425 0.985 . S
H432 N429 0.984 . S
H433 N429 0.985 . S
H434 N428 0.984 . S
H435 N428 0.984 . S
H436 N424 0.984 . S
H437 N424 0.985 . S
C438 C439 1.363 . S
C438 C444 1.379 . S
C438 N446 1.356 . S
C439 C438 1.363 . S
C439 C445 1.363 . S
C440 C441 1.363 . S
C440 C445 1.379 . S
C440 N447 1.356 . S
C441 C440 1.363 . S
C441 C444 1.363 . S
N442 C444 1.356 . S
N442 H454 0.984 . S
N442 H455 0.985 . S
N443 C445 1.356 . S
N443 H448 0.984 . S
N443 H449 0.985 . S
C444 C438 1.379 . S
C444 C441 1.363 . S
C444 N442 1.356 . S
C445 C439 1.363 . S
C445 C440 1.379 . S
C445 N443 1.356 . S
N446 C438 1.356 . S
N446 H452 0.984 . S
N446 H453 0.984 . S
N447 C440 1.356 . S
N447 H450 0.984 . S
N447 H451 0.985 . S
H448 N443 0.984 . S
H449 N443 0.985 . S
H450 N447 0.984 . S
H451 N447 0.985 . S
H452 N446 0.984 . S
H453 N446 0.984 . S
H454 N442 0.984 . S
H455 N442 0.985 . S
C456 C457 1.363 1_565 S
C456 C462 1.379 . S
C456 N464 1.356 . S
C457 C456 1.363 1_545 S
C457 C463 1.363 . S
C458 C459 1.363 . S
C458 C463 1.379 . S
C458 N465 1.356 . S
C459 C458 1.363 . S
C459 C462 1.363 1_545 S
N460 C462 1.356 . S
N460 H472 0.984 . S
N460 H473 0.985 . S
N461 C463 1.356 . S
N461 H466 0.984 . S
N461 H467 0.985 . S
C462 C456 1.379 . S
C462 C459 1.363 1_565 S
C462 N460 1.356 . S
C463 C457 1.363 . S
C463 C458 1.379 . S
C463 N461 1.356 . S
N464 C456 1.356 . S
N464 H470 0.984 . S
N464 H471 0.984 . S
N465 C458 1.356 . S
N465 H468 0.984 . S
N465 H469 0.985 . S
H466 N461 0.984 . S
H467 N461 0.985 . S
H468 N465 0.984 . S
H469 N465 0.985 . S
H470 N464 0.984 . S
H471 N464 0.984 . S
H472 N460 0.984 . S
H473 N460 0.985 . S
C474 C475 1.363 . S
C474 C480 1.379 . S
C474 N482 1.356 . S
C475 C474 1.363 . S
C475 C481 1.363 . S
C476 C477 1.363 1_556 S
C476 C481 1.379 . S
C476 N483 1.356 1_556 S
C477 C476 1.363 1_554 S
C477 C480 1.363 1_554 S
N478 C480 1.356 1_554 S
N478 H490 0.984 1_554 S
N478 H491 0.985 . S
N479 C481 1.356 . S
N479 H484 0.984 . S
N479 H485 0.985 . S
C480 C474 1.379 . S
C480 C477 1.363 1_556 S
C480 N478 1.356 1_556 S
C481 C475 1.363 . S
C481 C476 1.379 . S
C481 N479 1.356 . S
N482 C474 1.356 . S
N482 H488 0.984 . S
N482 H489 0.984 . S
N483 C476 1.356 1_554 S
N483 H486 0.984 . S
N483 H487 0.985 . S
H484 N479 0.984 . S
H485 N479 0.985 . S
H486 N483 0.984 . S
H487 N483 0.985 . S
H488 N482 0.984 . S
H489 N482 0.984 . S
H490 N478 0.984 1_556 S
H491 N478 0.985 . S
C492 C493 1.363 . S
C492 C498 1.379 . S
C492 N500 1.356 . S
C493 C492 1.363 . S
C493 C499 1.363 1_455 S
C494 C495 1.363 . S
C494 C499 1.379 . S
C494 N501 1.356 . S
C495 C494 1.363 . S
C495 C498 1.363 1_655 S
N496 C498 1.356 . S
N496 H508 0.984 . S
N496 H509 0.985 . S
N497 C499 1.356 . S
N497 H502 0.984 . S
N497 H503 0.985 . S
C498 C492 1.379 . S
C498 C495 1.363 1_455 S
C498 N496 1.356 . S
C499 C493 1.363 1_655 S
C499 C494 1.379 . S
C499 N497 1.356 . S
N500 C492 1.356 . S
N500 H506 0.984 . S
N500 H507 0.984 . S
N501 C494 1.356 . S
N501 H504 0.984 . S
N501 H505 0.985 . S
H502 N497 0.984 . S
H503 N497 0.985 . S
H504 N501 0.984 . S
H505 N501 0.985 . S
H506 N500 0.984 . S
H507 N500 0.984 . S
H508 N496 0.984 . S
H509 N496 0.985 . S
C187 C10 3.263 . S
C189 C180 2.909 . S
C205 C55 1.375 . S
C207 C158 1.194 . S
C223 C90 1.868 . S
C225 C172 1.832 . S
C241 C19 2.984 . S
C243 C183 2.901 . S
C261 C161 1.181 . S
C259 C46 1.169 . S
C279 C169 1.767 . S
C277 C99 2.119 . S
C295 C50 2.033 . S
C297 C136 1.746 . S
C313 C95 0.957 . S
C315 C147 0.766 . S
C331 C6 1.402 . S
C333 C125 1.242 . S
C351 C139 1.872 . S
C349 C59 1.960 . S
C369 C150 0.497 . S
C367 C86 0.650 . S
C385 C15 1.235 . S
C387 C128 1.218 . S
C405 C149 1.126 . S
C403 C18 1.199 . S
C421 C49 1.447 . S
C423 C127 1.433 . S
C439 C98 1.418 . S
C441 C138 1.372 . S
C459 C171 1.374 . S
C457 C58 1.396 . S
C477 C182 1.677 . S
C475 C89 1.682 . S
C493 C9 1.516 . S
C495 C160 1.473 . S
