# Generated by pormake.
# Topology apo, (3,6)-cn, num edge types: 1
# Building blocks:
#     Node 0, Type 0, BuildingBlock: OLANEW_clean_sbu_2, # of connection points: 3
#     Node 1, Type 0, BuildingBlock: OLANEW_clean_sbu_2, # of connection points: 3
#     Node 2, Type 0, BuildingBlock: OLANEW_clean_sbu_2, # of connection points: 3
#     Node 3, Type 0, BuildingBlock: OLANEW_clean_sbu_2, # of connection points: 3
#     Node 4, Type 0, BuildingBlock: OLANEW_clean_sbu_2, # of connection points: 3
#     Node 5, Type 0, BuildingBlock: OLANEW_clean_sbu_2, # of connection points: 3
#     Node 6, Type 0, BuildingBlock: OLANEW_clean_sbu_2, # of connection points: 3
#     Node 7, Type 0, BuildingBlock: OLANEW_clean_sbu_2, # of connection points: 3
#     Node 8, Type 1, BuildingBlock: KUMBOL_clean_sbu_1, # of connection points: 6
#     Node 9, Type 1, BuildingBlock: KUMBOL_clean_sbu_1, # of connection points: 6
#     Node 10, Type 1, BuildingBlock: KUMBOL_clean_sbu_1, # of connection points: 6
#     Node 11, Type 1, BuildingBlock: KUMBOL_clean_sbu_1, # of connection points: 6
#     Edge 12, Type (0, 1), BuildingBlock: CIFDUS_clean_linker_0, # of connection points: 2
#     Edge 13, Type (0, 1), BuildingBlock: CIFDUS_clean_linker_0, # of connection points: 2
#     Edge 14, Type (0, 1), BuildingBlock: CIFDUS_clean_linker_0, # of connection points: 2
#     Edge 15, Type (0, 1), BuildingBlock: CIFDUS_clean_linker_0, # of connection points: 2
#     Edge 16, Type (0, 1), BuildingBlock: CIFDUS_clean_linker_0, # of connection points: 2
#     Edge 17, Type (0, 1), BuildingBlock: CIFDUS_clean_linker_0, # of connection points: 2
#     Edge 18, Type (0, 1), BuildingBlock: CIFDUS_clean_linker_0, # of connection points: 2
#     Edge 19, Type (0, 1), BuildingBlock: CIFDUS_clean_linker_0, # of connection points: 2
#     Edge 20, Type (0, 1), BuildingBlock: CIFDUS_clean_linker_0, # of connection points: 2
#     Edge 21, Type (0, 1), BuildingBlock: CIFDUS_clean_linker_0, # of connection points: 2
#     Edge 22, Type (0, 1), BuildingBlock: CIFDUS_clean_linker_0, # of connection points: 2
#     Edge 23, Type (0, 1), BuildingBlock: CIFDUS_clean_linker_0, # of connection points: 2
#     Edge 24, Type (0, 1), BuildingBlock: CIFDUS_clean_linker_0, # of connection points: 2
#     Edge 25, Type (0, 1), BuildingBlock: CIFDUS_clean_linker_0, # of connection points: 2
#     Edge 26, Type (0, 1), BuildingBlock: CIFDUS_clean_linker_0, # of connection points: 2
#     Edge 27, Type (0, 1), BuildingBlock: CIFDUS_clean_linker_0, # of connection points: 2
#     Edge 28, Type (0, 1), BuildingBlock: CIFDUS_clean_linker_0, # of connection points: 2
#     Edge 29, Type (0, 1), BuildingBlock: CIFDUS_clean_linker_0, # of connection points: 2
#     Edge 30, Type (0, 1), BuildingBlock: CIFDUS_clean_linker_0, # of connection points: 2
#     Edge 31, Type (0, 1), BuildingBlock: CIFDUS_clean_linker_0, # of connection points: 2
#     Edge 32, Type (0, 1), BuildingBlock: CIFDUS_clean_linker_0, # of connection points: 2
#     Edge 33, Type (0, 1), BuildingBlock: CIFDUS_clean_linker_0, # of connection points: 2
#     Edge 34, Type (0, 1), BuildingBlock: CIFDUS_clean_linker_0, # of connection points: 2
#     Edge 35, Type (0, 1), BuildingBlock: CIFDUS_clean_linker_0, # of connection points: 2
# Relax obj value: 0.030
# Max RMSD: 0.232
# Mean RMSD: 0.138
data_MOF--net-apo--node1-OLANEW_clean_sbu_2--node2-KUMBOL_clean_sbu_1--edge1-CIFDUS_clean_linker_0
_symmetry_space_group_name_H-M    P1
_symmetry_Int_Tables_number       1
_symmetry_cell_setting            triclinic
loop_
_symmetry_equiv_pos_as_xyz
'x, y, z'
_cell_length_a     25.610387
_cell_length_b     39.282291
_cell_length_c     50.506898
_cell_angle_alpha  88.579713
_cell_angle_beta   89.985894
_cell_angle_gamma 90.115877
loop_
_atom_site_label
_atom_site_type_symbol
_atom_site_fract_x
_atom_site_fract_y
_atom_site_fract_z
_atom_type_partial_charge
O0 O 0.26182 0.41176 0.35888 0.0
Cd1 Cd 0.22157 0.36559 0.38541 0.0
O2 O 0.33771 0.40916 0.37944 0.0
Cd3 Cd 0.3157 0.37556 0.41277 0.0
O4 O 0.323 0.37627 0.45601 0.0
C5 C 0.33996 0.40466 0.46403 0.0
O6 O 0.35064 0.42876 0.44632 0.0
C7 C 0.30886 0.42173 0.36119 0.0
C8 C 0.17286 0.31705 0.35391 0.0
O9 O 0.14893 0.34413 0.36064 0.0
O10 O 0.21989 0.31287 0.36202 0.0
O11 O 0.28202 0.15489 0.947 0.0
Cd12 Cd 0.28049 0.15642 0.89824 0.0
O13 O 0.22065 0.1155 0.94813 0.0
Cd14 Cd 0.22114 0.10426 0.90598 0.0
O15 O 0.20931 0.069 0.87367 0.0
C16 C 0.16612 0.06997 0.86133 0.0
O17 O 0.13214 0.09364 0.86721 0.0
C18 C 0.25049 0.13591 0.96015 0.0
C19 C 0.3258 0.21345 0.87278 0.0
O20 O 0.27807 0.2139 0.88043 0.0
O21 O 0.3524 0.18643 0.87778 0.0
O22 O 0.81531 0.10836 0.64622 0.0
Cd23 Cd 0.76687 0.15431 0.62324 0.0
O24 O 0.85703 0.09345 0.61012 0.0
Cd25 Cd 0.83066 0.13311 0.58202 0.0
O26 O 0.83563 0.15582 0.54196 0.0
C27 C 0.85861 0.13766 0.52502 0.0
O28 O 0.87612 0.10755 0.53264 0.0
C29 C 0.84683 0.08864 0.63459 0.0
C30 C 0.71787 0.20058 0.65653 0.0
O31 O 0.69886 0.17082 0.65311 0.0
O32 O 0.7605 0.20852 0.64458 0.0
O33 O 0.72106 0.30751 0.04394 0.0
Cd34 Cd 0.70221 0.28115 0.08733 0.0
O35 O 0.69492 0.35481 0.06126 0.0
Cd36 Cd 0.66783 0.40724 0.06481 0.0
O37 O 0.64052 0.45122 0.08637 0.0
C38 C 0.64773 0.44921 0.11125 0.0
O39 O 0.67116 0.42211 0.12131 0.0
C40 C 0.71078 0.33901 0.04111 0.0
C41 C 0.78814 0.26196 0.11807 0.0
O42 O 0.76943 0.24231 0.10052 0.0
O43 O 0.76703 0.29126 0.12065 0.0
O44 O 0.70856 0.60511 0.63598 0.0
Cd45 Cd 0.74871 0.6494 0.60755 0.0
O46 O 0.76948 0.56843 0.62549 0.0
Cd47 Cd 0.79598 0.59828 0.59103 0.0
O48 O 0.79715 0.60191 0.54781 0.0
C49 C 0.75384 0.60471 0.53564 0.0
O50 O 0.71083 0.60801 0.54953 0.0
C51 C 0.72984 0.57608 0.63927 0.0
C52 C 0.81056 0.69437 0.63617 0.0
O53 O 0.76271 0.70118 0.63083 0.0
O54 O 0.82923 0.66624 0.62805 0.0
O55 O 0.83434 0.88956 0.14853 0.0
Cd56 Cd 0.77916 0.85218 0.12217 0.0
O57 O 0.81868 0.93212 0.1205 0.0
Cd58 Cd 0.78321 0.90263 0.08912 0.0
O59 O 0.78522 0.89563 0.04633 0.0
C60 C 0.82543 0.90853 0.03519 0.0
O61 O 0.86066 0.92315 0.05005 0.0
C62 C 0.83904 0.92088 0.14196 0.0
C63 C 0.71465 0.80865 0.15228 0.0
O64 O 0.76003 0.79924 0.14466 0.0
O65 O 0.69986 0.83893 0.14597 0.0
O66 O 0.21726 0.89243 0.34901 0.0
Cd67 Cd 0.26197 0.85458 0.38106 0.0
O68 O 0.19122 0.92632 0.38042 0.0
Cd69 Cd 0.21552 0.89418 0.41392 0.0
O70 O 0.20099 0.87392 0.4538 0.0
C71 C 0.15736 0.85916 0.45767 0.0
O72 O 0.12584 0.85527 0.43744 0.0
C73 C 0.19439 0.9195 0.356 0.0
C74 C 0.32687 0.80774 0.35658 0.0
O75 O 0.28161 0.79877 0.36508 0.0
O76 O 0.34135 0.83862 0.35969 0.0
O77 O 0.29252 0.59215 0.85765 0.0
Cd78 Cd 0.22894 0.62783 0.88097 0.0
O79 O 0.31667 0.56756 0.89533 0.0
Cd80 Cd 0.27321 0.59963 0.92209 0.0
O81 O 0.26625 0.62095 0.96135 0.0
C82 C 0.30427 0.61411 0.97675 0.0
O83 O 0.34287 0.59556 0.96789 0.0
C84 C 0.31968 0.56993 0.87023 0.0
C85 C 0.18845 0.68555 0.85438 0.0
O86 O 0.22647 0.68815 0.87072 0.0
O87 O 0.17073 0.65568 0.84995 0.0
C88 C 0.85492 0.10215 0.2333 0.0
C89 C 0.84457 0.04109 0.23984 0.0
C90 C 0.87305 0.07131 0.24374 0.0
C91 C 0.79822 0.04224 0.22498 0.0
C92 C 0.80812 0.10348 0.21863 0.0
C93 C 0.78005 0.07334 0.21441 0.0
N94 N 0.88362 0.13076 0.2371 0.0
C95 C 0.86649 0.16173 0.22803 0.0
C96 C 0.79113 0.13507 0.20849 0.0
C97 C 0.82025 0.16436 0.21341 0.0
Gd98 Gd 0.09938 0.11324 0.21946 0.0
Gd99 Gd 0.96323 0.12354 0.25935 0.0
N100 N 0.91925 0.07083 0.25712 0.0
C101 C 0.86357 0.01059 0.25097 0.0
C102 C 0.93619 0.0415 0.26932 0.0
C103 C 0.90913 0.01092 0.26611 0.0
H104 H 0.96993 0.04142 0.28192 0.0
H105 H 0.92331 0.98763 0.27546 0.0
H106 H 0.08147 0.19053 0.18808 0.0
H107 H 0.88839 0.18442 0.23235 0.0
H108 H 0.11893 0.24778 0.18939 0.0
H109 H 0.8429 0.98681 0.24839 0.0
H110 H 0.77607 0.01922 0.22161 0.0
H111 H 0.17527 0.06441 0.25817 0.0
H112 H 0.75543 0.13715 0.19707 0.0
H113 H 0.8071 0.18896 0.20596 0.0
H114 H 0.26507 0.23607 0.24801 0.0
H115 H 0.74417 0.07381 0.20304 0.0
H116 H 0.3002 0.12601 0.28683 0.0
H117 H 0.2553 0.07027 0.28505 0.0
N118 N 0.17445 0.11632 0.24557 0.0
C119 C 0.19905 0.14704 0.24571 0.0
C120 C 0.19423 0.08887 0.2592 0.0
C121 C 0.26511 0.12356 0.27504 0.0
C122 C 0.23975 0.09208 0.2742 0.0
C123 C 0.24484 0.15153 0.26074 0.0
H124 H 0.30337 0.18779 0.27299 0.0
N125 N 0.13195 0.1695 0.21779 0.0
C126 C 0.17685 0.17444 0.23175 0.0
C127 C 0.17871 0.23361 0.21746 0.0
C128 C 0.20084 0.20679 0.23229 0.0
C129 C 0.11271 0.19503 0.20176 0.0
C130 C 0.13497 0.22755 0.20182 0.0
O131 O 0.96118 0.09781 0.22001 0.0
O132 O 0.04018 0.07075 0.21379 0.0
O133 O 0.12375 0.11854 0.17797 0.0
O134 O 0.16056 0.08077 0.20446 0.0
O135 O 0.02807 0.09169 0.27811 0.0
O136 O 0.07683 0.06762 0.24468 0.0
O137 O 0.09825 0.1356 0.26059 0.0
O138 O 0.0223 0.16592 0.26078 0.0
O139 O 0.9532 0.11608 0.30181 0.0
O140 O 0.9074 0.15412 0.28062 0.0
O141 O 0.03186 0.13921 0.19849 0.0
O142 O 0.98772 0.16667 0.23155 0.0
C143 C 0.98926 0.07309 0.21055 0.0
C144 C 0.06019 0.06821 0.26932 0.0
C145 C 0.19413 0.08421 0.15946 0.0
C146 C 0.22382 0.08842 0.11345 0.0
C147 C 0.27187 0.05394 0.14572 0.0
C148 C 0.2363 0.06249 0.16538 0.0
C149 C 0.26595 0.06696 0.11996 0.0
C150 C 0.18773 0.09686 0.1333 0.0
C151 C 0.15924 0.09506 0.18098 0.0
C152 C 0.24637 0.21134 0.2473 0.0
C153 C 0.26832 0.18381 0.26146 0.0
H154 H 0.19598 0.25882 0.21735 0.0
C155 C 0.07057 0.16146 0.26866 0.0
C156 C 0.99788 0.16203 0.20632 0.0
C157 C 0.92948 0.16487 0.32521 0.0
C158 C 0.92829 0.17605 0.37261 0.0
C159 C 0.95734 0.21987 0.34098 0.0
C160 C 0.94856 0.19791 0.3201 0.0
C161 C 0.9472 0.20912 0.36708 0.0
C162 C 0.91947 0.15412 0.35143 0.0
C163 C 0.92007 0.14104 0.30365 0.0
H164 H 0.30432 0.03729 0.15051 0.0
H165 H 0.24235 0.0525 0.18532 0.0
H166 H 0.29389 0.05982 0.10498 0.0
H167 H 0.15544 0.11369 0.12845 0.0
H168 H 0.97224 0.24528 0.33694 0.0
H169 H 0.95655 0.20671 0.30003 0.0
H170 H 0.95497 0.22646 0.38296 0.0
H171 H 0.90436 0.12866 0.35528 0.0
C172 C 0.69568 0.42195 0.75949 0.0
C173 C 0.69802 0.48354 0.76239 0.0
C174 C 0.67131 0.45231 0.76573 0.0
C175 C 0.74927 0.48385 0.75248 0.0
C176 C 0.7471 0.42217 0.74952 0.0
C177 C 0.77371 0.45326 0.74604 0.0
N178 N 0.66865 0.3923 0.76261 0.0
C179 C 0.69097 0.36192 0.7567 0.0
C180 C 0.77005 0.39112 0.74308 0.0
C181 C 0.74189 0.36087 0.74676 0.0
Gd182 Gd 0.45827 0.39053 0.72928 0.0
Gd183 Gd 0.58292 0.39678 0.77829 0.0
N184 N 0.62097 0.45128 0.77444 0.0
C185 C 0.6723 0.51356 0.76898 0.0
C186 C 0.59655 0.48034 0.78192 0.0
C187 C 0.62154 0.51189 0.77902 0.0
H188 H 0.55811 0.47947 0.79043 0.0
H189 H 0.60173 0.53491 0.78469 0.0
H190 H 0.50072 0.32198 0.69512 0.0
H191 H 0.66967 0.33841 0.75991 0.0
H192 H 0.48445 0.26047 0.6948 0.0
H193 H 0.69145 0.53807 0.76667 0.0
H194 H 0.77028 0.50763 0.74964 0.0
H195 H 0.3622 0.42385 0.76489 0.0
H196 H 0.80945 0.39023 0.73532 0.0
H197 H 0.7594 0.33674 0.74197 0.0
H198 H 0.33602 0.24436 0.75148 0.0
H199 H 0.81318 0.45395 0.73831 0.0
H200 H 0.25853 0.34306 0.78897 0.0
H201 H 0.28237 0.40416 0.78842 0.0
N202 N 0.38279 0.37436 0.75253 0.0
C203 C 0.3696 0.34083 0.7518 0.0
C204 C 0.35176 0.39718 0.76504 0.0
C205 C 0.29323 0.3516 0.77846 0.0
C206 C 0.30665 0.38611 0.77828 0.0
C207 C 0.32479 0.32848 0.76515 0.0
H208 H 0.27944 0.2835 0.77557 0.0
N209 N 0.44484 0.33145 0.72534 0.0
C210 C 0.40214 0.31871 0.73838 0.0
C211 C 0.42106 0.2624 0.72272 0.0
C212 C 0.38972 0.28371 0.73776 0.0
C213 C 0.47204 0.31132 0.70855 0.0
C214 C 0.46172 0.27641 0.70762 0.0
O215 O 0.59145 0.4231 0.73828 0.0
O216 O 0.50908 0.43718 0.72242 0.0
O217 O 0.4378 0.38575 0.68707 0.0
O218 O 0.39308 0.41853 0.71297 0.0
O219 O 0.50897 0.42526 0.78971 0.0
O220 O 0.46417 0.43936 0.75105 0.0
O221 O 0.45388 0.37252 0.77257 0.0
O222 O 0.53423 0.34932 0.77836 0.0
O223 O 0.5753 0.40504 0.82051 0.0
O224 O 0.63623 0.37222 0.80612 0.0
O225 O 0.53686 0.37192 0.71443 0.0
O226 O 0.57321 0.35065 0.75304 0.0
C227 C 0.55993 0.44195 0.72363 0.0
C228 C 0.47465 0.44383 0.77618 0.0
C229 C 0.36298 0.41704 0.66771 0.0
C230 C 0.33756 0.4184 0.62109 0.0
C231 C 0.28789 0.4503 0.65303 0.0
C232 C 0.32103 0.43885 0.6732 0.0
C233 C 0.29621 0.44035 0.62711 0.0
C234 C 0.37071 0.40644 0.64154 0.0
C235 C 0.39874 0.40666 0.68942 0.0
C236 C 0.34577 0.27121 0.75156 0.0
C237 C 0.31336 0.29352 0.76516 0.0
H238 H 0.41284 0.23539 0.72175 0.0
C239 C 0.48432 0.34946 0.78365 0.0
C240 C 0.57122 0.35255 0.72705 0.0
C241 C 0.6534 0.40132 0.84538 0.0
C242 C 0.69503 0.39887 0.88892 0.0
C243 C 0.72021 0.4425 0.85628 0.0
C244 C 0.68421 0.42964 0.83832 0.0
C245 C 0.72576 0.42724 0.8814 0.0
C246 C 0.65873 0.38616 0.87065 0.0
C247 C 0.61618 0.38673 0.82661 0.0
H248 H 0.25585 0.46715 0.65748 0.0
H249 H 0.3139 0.44734 0.69312 0.0
H250 H 0.27013 0.44969 0.61169 0.0
H251 H 0.40298 0.38978 0.63694 0.0
H252 H 0.74409 0.46426 0.85065 0.0
H253 H 0.68064 0.44172 0.81901 0.0
H254 H 0.75457 0.43739 0.89479 0.0
H255 H 0.63416 0.36459 0.87611 0.0
C256 C 0.8331 0.83096 0.75279 0.0
C257 C 0.85051 0.77164 0.76364 0.0
C258 C 0.86513 0.80626 0.76427 0.0
C259 C 0.80533 0.76216 0.74984 0.0
C260 C 0.78679 0.82171 0.73969 0.0
C261 C 0.77355 0.78714 0.7379 0.0
N262 N 0.84765 0.86414 0.75419 0.0
C263 C 0.81698 0.88949 0.74373 0.0
C264 C 0.75544 0.8475 0.72856 0.0
C265 C 0.77046 0.88155 0.73074 0.0
Gd266 Gd 0.05155 0.88268 0.72526 0.0
Gd267 Gd 0.92774 0.87506 0.77477 0.0
N268 N 0.90891 0.81621 0.7773 0.0
C269 C 0.8806 0.74772 0.77778 0.0
C270 C 0.93414 0.79355 0.79372 0.0
C271 C 0.92173 0.75887 0.7935 0.0
H272 H 0.96318 0.80205 0.80753 0.0
H273 H 0.94321 0.74089 0.80586 0.0
H274 H 0.03631 0.96718 0.7127 0.0
H275 H 0.82882 0.91579 0.74521 0.0
H276 H 0.0847 0.02015 0.71991 0.0
H277 H 0.8707 0.72089 0.77783 0.0
H278 H 0.79395 0.73565 0.74885 0.0
H279 H 0.13195 0.81912 0.74428 0.0
H280 H 0.71961 0.84142 0.71829 0.0
H281 H 0.74642 0.90165 0.72227 0.0
H282 H 0.24567 0.98328 0.75959 0.0
H283 H 0.73847 0.77948 0.72762 0.0
H284 H 0.27206 0.86357 0.77414 0.0
H285 H 0.21875 0.81261 0.76496 0.0
N286 N 0.13471 0.87323 0.74333 0.0
C287 C 0.16406 0.90156 0.74734 0.0
C288 C 0.15415 0.84156 0.74897 0.0
C289 C 0.2337 0.8666 0.76536 0.0
C290 C 0.20366 0.83777 0.7603 0.0
C291 C 0.21424 0.89898 0.7587 0.0
H292 H 0.28184 0.92716 0.77191 0.0
N293 N 0.09443 0.93515 0.73006 0.0
C294 C 0.14362 0.93334 0.74028 0.0
C295 C 0.15112 0.99468 0.73737 0.0
C296 C 0.17296 0.96315 0.74453 0.0
C297 C 0.07386 0.96573 0.7221 0.0
C298 C 0.10156 0.99592 0.72591 0.0
O299 O 0.91846 0.86448 0.7312 0.0
O300 O 0.99534 0.83858 0.72164 0.0
O301 O 0.04599 0.89332 0.68285 0.0
O302 O 0.11052 0.86387 0.69861 0.0
O303 O 0.00586 0.85044 0.7861 0.0
O304 O 0.03643 0.83267 0.74608 0.0
O305 O 0.05841 0.90487 0.76637 0.0
O306 O 0.97608 0.92228 0.77808 0.0
O307 O 0.92447 0.87074 0.8178 0.0
O308 O 0.86256 0.89614 0.79638 0.0
O309 O 0.98222 0.91638 0.71444 0.0
O310 O 0.92979 0.92515 0.75162 0.0
C311 C 0.94504 0.84228 0.71787 0.0
C312 C 0.03397 0.82951 0.77192 0.0
C313 C 0.07919 0.8492 0.65687 0.0
C314 C 0.0923 0.8313 0.61143 0.0
C315 C 0.04949 0.79347 0.6436 0.0
C316 C 0.05549 0.81777 0.66304 0.0
C317 C 0.06781 0.80008 0.61795 0.0
C318 C 0.0975 0.85589 0.63111 0.0
C319 C 0.08644 0.87464 0.67739 0.0
C320 C 0.22276 0.96063 0.75603 0.0
C321 C 0.24333 0.92866 0.76308 0.0
H322 H 0.17233 0.01815 0.74041 0.0
C323 C 0.02686 0.92626 0.77788 0.0
C324 C 0.94579 0.93322 0.72731 0.0
C325 C 0.88753 0.91876 0.83722 0.0
C326 C 0.89084 0.94067 0.88198 0.0
C327 C 0.90541 0.97866 0.84391 0.0
C328 C 0.89826 0.95159 0.82693 0.0
C329 C 0.90189 0.97329 0.87127 0.0
C330 C 0.88353 0.91344 0.86474 0.0
C331 C 0.88316 0.88976 0.81945 0.0
H332 H 0.03114 0.76927 0.64852 0.0
H333 H 0.04233 0.81184 0.68294 0.0
H334 H 0.06371 0.78051 0.60337 0.0
H335 H 0.11565 0.88026 0.62642 0.0
H336 H 0.91386 0.00386 0.83585 0.0
H337 H 0.90137 0.95628 0.80578 0.0
H338 H 0.90729 0.99475 0.88405 0.0
H339 H 0.87594 0.88803 0.87272 0.0
C340 C 0.68064 0.64868 0.26478 0.0
C341 C 0.67475 0.70467 0.28367 0.0
C342 C 0.65341 0.67203 0.27971 0.0
C343 C 0.72208 0.71394 0.27139 0.0
C344 C 0.72868 0.65763 0.25286 0.0
C345 C 0.74897 0.69049 0.25603 0.0
N346 N 0.65921 0.61743 0.26124 0.0
C347 C 0.6845 0.59347 0.24695 0.0
C348 C 0.75462 0.63334 0.23787 0.0
C349 C 0.73254 0.60107 0.23502 0.0
Gd350 Gd 0.4523 0.62433 0.23372 0.0
Gd351 Gd 0.57819 0.60696 0.28138 0.0
N352 N 0.60726 0.66244 0.29115 0.0
C353 C 0.64871 0.72668 0.30052 0.0
C354 C 0.58517 0.68249 0.30982 0.0
C355 C 0.6044 0.71523 0.31412 0.0
H356 H 0.55382 0.67322 0.32223 0.0
H357 H 0.5857 0.7313 0.3284 0.0
H358 H 0.46295 0.54969 0.20124 0.0
H359 H 0.66721 0.56861 0.2446 0.0
H360 H 0.41119 0.49808 0.1951 0.0
H361 H 0.66382 0.75194 0.3041 0.0
H362 H 0.73871 0.73902 0.27403 0.0
H363 H 0.37654 0.67652 0.2682 0.0
H364 H 0.79161 0.63926 0.2284 0.0
H365 H 0.75235 0.58213 0.22352 0.0
H366 H 0.25076 0.51939 0.24053 0.0
H367 H 0.78562 0.69795 0.24684 0.0
H368 H 0.23145 0.62569 0.28389 0.0
H369 H 0.289 0.67584 0.28875 0.0
N370 N 0.36994 0.6265 0.25365 0.0
C371 C 0.3384 0.59913 0.24993 0.0
C372 C 0.35248 0.65407 0.2669 0.0
C373 C 0.27013 0.6257 0.27519 0.0
C374 C 0.30257 0.65398 0.2781 0.0
C375 C 0.28772 0.59789 0.26085 0.0
H376 H 0.21743 0.56756 0.26563 0.0
N377 N 0.40726 0.57317 0.22617 0.0
C378 C 0.35755 0.57174 0.23583 0.0
C379 C 0.34597 0.51578 0.21781 0.0
C380 C 0.32593 0.54275 0.23221 0.0
C381 C 0.42584 0.5476 0.21099 0.0
C382 C 0.39592 0.51839 0.20693 0.0
O383 O 0.59024 0.63175 0.24105 0.0
O384 O 0.51663 0.66392 0.23568 0.0
O385 O 0.44285 0.62847 0.19049 0.0
O386 O 0.4031 0.66372 0.21674 0.0
O387 O 0.50584 0.63098 0.29911 0.0
O388 O 0.47773 0.66267 0.26326 0.0
O389 O 0.43813 0.59109 0.27088 0.0
O390 O 0.51801 0.56584 0.2775 0.0
O391 O 0.59248 0.60051 0.32403 0.0
O392 O 0.63325 0.5689 0.2957 0.0
O393 O 0.51907 0.59426 0.21606 0.0
O394 O 0.5609 0.56665 0.25143 0.0
C395 C 0.56599 0.65808 0.23057 0.0
C396 C 0.47794 0.65604 0.28877 0.0
C397 C 0.38787 0.67305 0.16994 0.0
C398 C 0.36136 0.67614 0.12346 0.0
C399 C 0.34511 0.72379 0.15217 0.0
C400 C 0.36779 0.70591 0.17337 0.0
C401 C 0.34193 0.70912 0.12737 0.0
C402 C 0.38461 0.65827 0.14494 0.0
C403 C 0.41157 0.65446 0.19263 0.0
C404 C 0.27543 0.54153 0.24305 0.0
C405 C 0.25641 0.56898 0.25733 0.0
H406 H 0.32291 0.4931 0.21459 0.0
C407 C 0.4678 0.56751 0.28214 0.0
C408 C 0.55013 0.57025 0.22592 0.0
C409 C 0.65417 0.55831 0.34194 0.0
C410 C 0.68635 0.55545 0.38748 0.0
C411 C 0.7075 0.51057 0.35699 0.0
C412 C 0.67938 0.52738 0.337 0.0
C413 C 0.71122 0.52452 0.38204 0.0
C414 C 0.65731 0.5721 0.36735 0.0
C415 C 0.62635 0.57645 0.32029 0.0
H416 H 0.33008 0.74919 0.15494 0.0
H417 H 0.36989 0.71791 0.19242 0.0
H418 H 0.32482 0.72382 0.11116 0.0
H419 H 0.39921 0.63269 0.14237 0.0
H420 H 0.72668 0.4867 0.35303 0.0
H421 H 0.67742 0.51616 0.31764 0.0
H422 H 0.73315 0.51092 0.39727 0.0
H423 H 0.63849 0.59616 0.37125 0.0
H424 H 0.13835 0.97642 0.36532 0.0
H425 H 0.19824 0.91623 0.30176 0.0
H426 H 0.16092 0.95648 0.26924 0.0
H427 H 0.11235 0.00934 0.25898 0.0
H428 H 0.05327 0.06899 0.32313 0.0
H429 H 0.08893 0.0281 0.35524 0.0
C430 C 0.14334 0.97199 0.34436 0.0
C431 C 0.17129 0.94336 0.33604 0.0
C432 C 0.12181 0.99513 0.32584 0.0
C433 C 0.177 0.93806 0.30875 0.0
C434 C 0.15567 0.96108 0.29014 0.0
C435 C 0.10728 0.0134 0.27998 0.0
C436 C 0.08037 0.04236 0.28857 0.0
C437 C 0.12817 0.98979 0.29847 0.0
C438 C 0.07374 0.04699 0.31588 0.0
C439 C 0.09427 0.02365 0.33431 0.0
H440 H 0.32932 0.56168 0.81678 0.0
H441 H 0.38789 0.52411 0.89214 0.0
H442 H 0.44216 0.48288 0.86985 0.0
H443 H 0.47118 0.45594 0.82914 0.0
H444 H 0.4118 0.49273 0.75372 0.0
H445 H 0.36019 0.53558 0.77585 0.0
C446 C 0.35416 0.54461 0.82832 0.0
C447 C 0.35422 0.54605 0.85612 0.0
C448 C 0.38521 0.52061 0.81538 0.0
C449 C 0.38672 0.52361 0.87072 0.0
C450 C 0.41791 0.49993 0.858 0.0
C451 C 0.44723 0.47344 0.8175 0.0
C452 C 0.44537 0.47088 0.7898 0.0
C453 C 0.41717 0.49798 0.83035 0.0
C454 C 0.41392 0.49385 0.7751 0.0
C455 C 0.38429 0.51847 0.78773 0.0
H456 H 0.63042 0.57364 0.65851 0.0
H457 H 0.77707 0.51963 0.66036 0.0
H458 H 0.73727 0.47358 0.68667 0.0
H459 H 0.66015 0.44725 0.70698 0.0
H460 H 0.51275 0.50022 0.70501 0.0
H461 H 0.55325 0.54776 0.6803 0.0
C462 C 0.6538 0.55199 0.66496 0.0
C463 C 0.70664 0.55008 0.65746 0.0
C464 C 0.63035 0.52517 0.67963 0.0
C465 C 0.73628 0.52168 0.66576 0.0
C466 C 0.71354 0.49528 0.68075 0.0
C467 C 0.63693 0.46934 0.70141 0.0
C468 C 0.58358 0.47026 0.70791 0.0
C469 C 0.66047 0.49652 0.68742 0.0
C470 C 0.55384 0.49877 0.70005 0.0
C471 C 0.57705 0.52605 0.6861 0.0
H472 H 0.83619 0.98958 0.1401 0.0
H473 H 0.91195 0.90499 0.18021 0.0
H474 H 0.96822 0.94458 0.20392 0.0
H475 H 0.99669 0.00382 0.21268 0.0
H476 H 0.91587 0.08736 0.17396 0.0
H477 H 0.86135 0.04766 0.14999 0.0
C478 C 0.86496 0.97972 0.15404 0.0
C479 C 0.87014 0.94439 0.1582 0.0
C480 C 0.89685 0.0025 0.16756 0.0
C481 C 0.90711 0.93211 0.17666 0.0
C482 C 0.93953 0.95472 0.19009 0.0
C483 C 0.96781 0.01309 0.19856 0.0
C484 C 0.96116 0.04832 0.19444 0.0
C485 C 0.93518 0.99 0.18546 0.0
C486 C 0.92234 0.06029 0.17695 0.0
C487 C 0.89088 0.03764 0.16342 0.0
H488 H 0.83061 0.06702 0.68603 0.0
H489 H 0.91709 0.04347 0.61537 0.0
H490 H 0.95449 0.99364 0.63763 0.0
H491 H 0.96207 0.95612 0.67663 0.0
H492 H 0.87696 0.97919 0.74779 0.0
H493 H 0.83954 0.0295 0.72574 0.0
C494 C 0.8578 0.05108 0.67554 0.0
C495 C 0.87082 0.05914 0.649 0.0
C496 C 0.87929 0.02216 0.68847 0.0
C497 C 0.90615 0.03805 0.63576 0.0
C498 C 0.92761 0.00942 0.64846 0.0
C499 C 0.93541 0.97209 0.68743 0.0
C500 C 0.92245 0.96367 0.71388 0.0
C501 C 0.91429 0.00113 0.67474 0.0
C502 C 0.88763 0.98482 0.72739 0.0
C503 C 0.86625 0.01373 0.71482 0.0
H504 H 0.65416 0.44997 0.16476 0.0
H505 H 0.59764 0.50862 0.09731 0.0
H506 H 0.56327 0.55163 0.12682 0.0
H507 H 0.54783 0.5719 0.17185 0.0
H508 H 0.60369 0.51224 0.23903 0.0
H509 H 0.63994 0.47044 0.20943 0.0
C510 C 0.63448 0.47219 0.15644 0.0
C511 C 0.62839 0.47599 0.12886 0.0
C512 C 0.6146 0.49665 0.17347 0.0
C513 C 0.6028 0.50501 0.11848 0.0
C514 C 0.58309 0.52961 0.13534 0.0
C515 C 0.56788 0.54975 0.18004 0.0
C516 C 0.57273 0.54525 0.20768 0.0
C517 C 0.58848 0.52557 0.16289 0.0
C518 C 0.59922 0.51646 0.21788 0.0
C519 C 0.61999 0.49245 0.20096 0.0
H520 H 0.41004 0.44052 0.35519 0.0
H521 H 0.25466 0.46557 0.32814 0.0
H522 H 0.2894 0.51392 0.30212 0.0
H523 H 0.36412 0.54993 0.28819 0.0
H524 H 0.5194 0.52221 0.31391 0.0
H525 H 0.48416 0.47469 0.3399 0.0
C526 C 0.38367 0.45643 0.34353 0.0
C527 C 0.32981 0.44944 0.34371 0.0
C528 C 0.40384 0.48399 0.32858 0.0
C529 C 0.29635 0.47026 0.32831 0.0
C530 C 0.31615 0.49804 0.31353 0.0
C531 C 0.3903 0.53333 0.29912 0.0
C532 C 0.44444 0.53955 0.29857 0.0
C533 C 0.36987 0.50529 0.31366 0.0
C534 C 0.47758 0.51799 0.31358 0.0
C535 C 0.45752 0.49069 0.32851 0.0
H536 H 0.0756 0.06374 0.83412 0.0
H537 H 0.22352 0.01398 0.84799 0.0
H538 H 0.19464 0.96548 0.82224 0.0
H539 H 0.12429 0.93521 0.79888 0.0
H540 H 0.97722 0.98608 0.78507 0.0
H541 H 0.00853 0.03575 0.80815 0.0
C542 C 0.1018 0.04246 0.83137 0.0
C543 C 0.15141 0.0424 0.84323 0.0
C544 C 0.08474 0.01452 0.81692 0.0
C545 C 0.18494 0.01465 0.83922 0.0
C546 C 0.1684 0.98681 0.82458 0.0
C547 C 0.09943 0.95734 0.80068 0.0
C548 C 0.04822 0.95671 0.79067 0.0
C549 C 0.11791 0.98614 0.81383 0.0
C550 C 0.01637 0.98556 0.79318 0.0
C551 C 0.03437 0.01414 0.80618 0.0
H552 H 0.17201 0.11531 0.99293 0.0
H553 H 0.32949 0.15452 0.99327 0.0
H554 H 0.33399 0.14528 0.04131 0.0
H555 H 0.29576 0.12118 0.08257 0.0
H556 H 0.13762 0.08342 0.08228 0.0
H557 H 0.13047 0.09726 0.03488 0.0
C558 C 0.20713 0.1222 0.00356 0.0
C559 C 0.25061 0.13519 0.9895 0.0
C560 C 0.20935 0.1169 0.03114 0.0
C561 C 0.29552 0.14447 0.0036 0.0
C562 C 0.29821 0.13901 0.03105 0.0
C563 C 0.25961 0.11636 0.0721 0.0
C564 C 0.21741 0.10102 0.08573 0.0
C565 C 0.25581 0.12449 0.04491 0.0
C566 C 0.17051 0.09527 0.07216 0.0
C567 C 0.16656 0.10301 0.04507 0.0
H568 H 0.33872 0.35908 0.50608 0.0
H569 H 0.35376 0.46622 0.48617 0.0
H570 H 0.35822 0.47944 0.5329 0.0
H571 H 0.35255 0.46131 0.57948 0.0
H572 H 0.3397 0.35471 0.60045 0.0
H573 H 0.34049 0.3404 0.55336 0.0
C574 C 0.34315 0.38527 0.51201 0.0
C575 C 0.34526 0.41163 0.49261 0.0
C576 C 0.34622 0.39279 0.5391 0.0
C577 C 0.35175 0.44541 0.50061 0.0
C578 C 0.35431 0.45306 0.52738 0.0
C579 C 0.35052 0.43493 0.57366 0.0
C580 C 0.34574 0.40908 0.59319 0.0
C581 C 0.35086 0.42706 0.54675 0.0
C582 C 0.34362 0.37496 0.58563 0.0
C583 C 0.34368 0.36685 0.55875 0.0
H584 H 0.70459 0.30832 0.99391 0.0
H585 H 0.72469 0.40689 0.02831 0.0
H586 H 0.72139 0.43407 0.98434 0.0
H587 H 0.70944 0.42991 0.93619 0.0
H588 H 0.69369 0.33084 0.90183 0.0
H589 H 0.69859 0.30384 0.94573 0.0
C590 C 0.70862 0.33575 0.99181 0.0
C591 C 0.71328 0.35563 0.01449 0.0
C592 C 0.70725 0.35114 0.96645 0.0
C593 C 0.71885 0.39109 0.01136 0.0
C594 C 0.71759 0.40662 0.98615 0.0
C595 C 0.7078 0.40238 0.93823 0.0
C596 C 0.70065 0.38251 0.91567 0.0
C597 C 0.7111 0.38693 0.96357 0.0
C598 C 0.69805 0.34686 0.91883 0.0
C599 C 0.70122 0.33135 0.94394 0.0
H600 H 0.9046 0.10387 0.48508 0.0
H601 H 0.83108 0.19946 0.50269 0.0
H602 H 0.8463 0.21987 0.45717 0.0
H603 H 0.88068 0.21045 0.41227 0.0
H604 H 0.9545 0.11476 0.39531 0.0
H605 H 0.93857 0.09446 0.44063 0.0
C606 C 0.8918 0.12918 0.47903 0.0
C607 C 0.86677 0.15009 0.49734 0.0
C608 C 0.90066 0.14073 0.45288 0.0
C609 C 0.85043 0.1828 0.48904 0.0
C610 C 0.85917 0.19451 0.463 0.0
C611 C 0.89359 0.18526 0.41858 0.0
C612 C 0.91864 0.16414 0.40037 0.0
C613 C 0.88439 0.17372 0.44476 0.0
C614 C 0.93453 0.13138 0.40877 0.0
C615 C 0.92569 0.1198 0.43474 0.0
H616 H 0.90388 0.93761 0.0066 0.0
H617 H 0.76071 0.88074 0.99814 0.0
H618 H 0.76954 0.88431 0.94991 0.0
H619 H 0.81626 0.90579 0.91007 0.0
H620 H 0.95836 0.9635 0.91918 0.0
H621 H 0.9515 0.95745 0.96726 0.0
C622 C 0.87465 0.92581 0.99427 0.0
C623 C 0.83161 0.90902 0.00601 0.0
C624 C 0.87967 0.92827 0.96664 0.0
C625 C 0.79419 0.89389 0.98965 0.0
C626 C 0.79918 0.89594 0.96205 0.0
C627 C 0.84596 0.9167 0.92263 0.0
C628 C 0.8876 0.93523 0.91111 0.0
C629 C 0.84153 0.91335 0.95033 0.0
C630 C 0.92557 0.94952 0.92759 0.0
C631 C 0.92178 0.94597 0.95507 0.0
H632 H 0.66772 0.60826 0.50406 0.0
H633 H 0.83376 0.58949 0.50211 0.0
H634 H 0.82772 0.57444 0.45565 0.0
H635 H 0.77453 0.56274 0.41649 0.0
H636 H 0.6086 0.58093 0.41827 0.0
H637 H 0.61543 0.60047 0.46379 0.0
C638 C 0.70271 0.60122 0.49342 0.0
C639 C 0.75104 0.5997 0.50669 0.0
C640 C 0.69893 0.59232 0.46671 0.0
C641 C 0.79601 0.59076 0.49249 0.0
C642 C 0.79259 0.58202 0.46591 0.0
C643 C 0.7399 0.57104 0.42687 0.0
C644 C 0.69106 0.57005 0.41419 0.0
C645 C 0.74412 0.58203 0.453 0.0
C646 C 0.64664 0.58153 0.42762 0.0
C647 C 0.65051 0.59253 0.45367 0.0
H648 H 0.38287 0.607 0.01245 0.0
H649 H 0.22902 0.65016 0.00237 0.0
H650 H 0.2325 0.67205 0.0472 0.0
H651 H 0.27965 0.6795 0.08896 0.0
H652 H 0.4348 0.6381 0.09828 0.0
H653 H 0.42983 0.61432 0.05417 0.0
C654 C 0.34999 0.62113 0.02004 0.0
C655 C 0.3058 0.62699 0.00403 0.0
C656 C 0.35237 0.63381 0.04573 0.0
C657 C 0.26359 0.64536 0.01422 0.0
C658 C 0.26553 0.65787 0.03987 0.0
C659 C 0.31259 0.66552 0.08128 0.0
C660 C 0.3576 0.66072 0.09694 0.0
C661 C 0.30985 0.65241 0.05572 0.0
C662 C 0.39944 0.64188 0.08684 0.0
C663 C 0.3968 0.62848 0.06152 0.0
H664 H 0.20701 0.87122 0.50423 0.0
H665 H 0.06832 0.82528 0.47199 0.0
H666 H 0.03636 0.81238 0.51661 0.0
H667 H 0.04602 0.81604 0.56472 0.0
H668 H 0.18473 0.8616 0.59714 0.0
H669 H 0.21797 0.87323 0.55249 0.0
C670 C 0.16998 0.85815 0.50695 0.0
C671 C 0.14011 0.84929 0.48477 0.0
C672 C 0.15151 0.85107 0.53269 0.0
C673 C 0.09212 0.83246 0.48868 0.0
C674 C 0.07371 0.82511 0.51421 0.0
C675 C 0.0838 0.82816 0.56204 0.0
C676 C 0.11271 0.83803 0.58426 0.0
C677 C 0.10283 0.83458 0.53634 0.0
C678 C 0.16126 0.85421 0.58039 0.0
C679 C 0.18049 0.86065 0.55486 0.0
H680 H 0.20505 0.25246 0.34442 0.0
H681 H 0.08197 0.32411 0.32608 0.0
H682 H 0.03945 0.28239 0.29816 0.0
H683 H 0.03816 0.22598 0.27817 0.0
H684 H 0.15781 0.15301 0.29907 0.0
H685 H 0.20129 0.19501 0.32623 0.0
C686 C 0.16897 0.25898 0.33428 0.0
C687 C 0.14693 0.29146 0.33724 0.0
C688 C 0.14433 0.23472 0.31851 0.0
C689 C 0.09984 0.29933 0.32416 0.0
C690 C 0.07551 0.2755 0.30815 0.0
C691 C 0.07338 0.21912 0.28893 0.0
C692 C 0.09509 0.18653 0.28624 0.0
C693 C 0.09744 0.24314 0.30513 0.0
C694 C 0.14094 0.17817 0.30023 0.0
C695 C 0.16563 0.2021 0.31597 0.0
H696 H 0.41998 0.21617 0.848 0.0
H697 H 0.28338 0.27659 0.86364 0.0
H698 H 0.32074 0.32435 0.83802 0.0
H699 H 0.39258 0.349 0.81113 0.0
H700 H 0.52679 0.28719 0.79392 0.0
H701 H 0.49053 0.24027 0.8206 0.0
C702 C 0.39843 0.23982 0.84595 0.0
C703 C 0.34905 0.24279 0.85787 0.0
C704 C 0.41983 0.26703 0.83095 0.0
C705 C 0.32154 0.27359 0.85475 0.0
C706 C 0.34286 0.30094 0.84009 0.0
C707 C 0.41351 0.32511 0.813 0.0
C708 C 0.462 0.32151 0.80032 0.0
C709 C 0.39195 0.29793 0.82804 0.0
C710 C 0.48938 0.2907 0.80348 0.0
C711 C 0.46859 0.26376 0.81866 0.0
H712 H 0.7123 0.26921 0.64932 0.0
H713 H 0.66138 0.18676 0.70108 0.0
H714 H 0.61408 0.22692 0.7285 0.0
H715 H 0.58524 0.28539 0.73709 0.0
H716 H 0.62777 0.36695 0.68268 0.0
H717 H 0.68048 0.32749 0.65694 0.0
C718 C 0.69114 0.26017 0.66673 0.0
C719 C 0.69064 0.22518 0.67336 0.0
C720 C 0.66247 0.28326 0.68183 0.0
C721 C 0.66231 0.21361 0.69564 0.0
C722 C 0.63532 0.23654 0.71131 0.0
C723 C 0.60639 0.29442 0.71966 0.0
C724 C 0.60318 0.32888 0.71175 0.0
C725 C 0.63487 0.27138 0.70451 0.0
C726 C 0.62978 0.34041 0.68896 0.0
C727 C 0.6599 0.3179 0.67433 0.0
H728 H 0.84732 0.20534 0.11331 0.0
H729 H 0.82515 0.29235 0.16255 0.0
H730 H 0.89083 0.27031 0.19362 0.0
H731 H 0.95116 0.2244 0.20807 0.0
H732 H 0.97191 0.13764 0.15844 0.0
H733 H 0.91093 0.16172 0.12615 0.0
C734 C 0.85708 0.21965 0.13073 0.0
C735 C 0.8311 0.25031 0.13567 0.0
C736 C 0.89469 0.20683 0.1485 0.0
C737 C 0.84455 0.26865 0.15826 0.0
C738 C 0.88203 0.25602 0.17609 0.0
C739 C 0.94242 0.21097 0.19009 0.0
C740 C 0.96527 0.17906 0.18586 0.0
C741 C 0.90683 0.22488 0.1716 0.0
C742 C 0.95455 0.16215 0.16227 0.0
C743 C 0.91948 0.17582 0.14381 0.0
H744 H 0.78858 0.76004 0.64746 0.0
H745 H 0.90619 0.68251 0.65863 0.0
H746 H 0.95926 0.7217 0.68424 0.0
H747 H 0.97084 0.77757 0.70474 0.0
H748 H 0.85479 0.85557 0.69163 0.0
H749 H 0.80237 0.81658 0.66571 0.0
C750 C 0.82581 0.75168 0.65549 0.0
C751 C 0.84319 0.71832 0.65126 0.0
C752 C 0.85637 0.77443 0.66992 0.0
C753 C 0.89182 0.70805 0.6616 0.0
C754 C 0.9222 0.73043 0.67627 0.0
C755 C 0.93451 0.78615 0.69581 0.0
C756 C 0.91646 0.8193 0.70024 0.0
C757 C 0.90478 0.76365 0.68065 0.0
C758 C 0.86913 0.83001 0.68877 0.0
C759 C 0.83919 0.80776 0.6739 0.0
H760 H 0.72961 0.74121 0.16194 0.0
H761 H 0.62186 0.82287 0.17668 0.0
H762 H 0.56511 0.78346 0.20163 0.0
H763 H 0.54685 0.72558 0.21992 0.0
H764 H 0.6541 0.64427 0.20331 0.0
H765 H 0.71023 0.68371 0.17863 0.0
C766 C 0.69378 0.75047 0.17064 0.0
C767 C 0.68019 0.78497 0.16753 0.0
C768 C 0.66118 0.72768 0.1847 0.0
C769 C 0.63333 0.79642 0.17878 0.0
C770 C 0.60082 0.77389 0.19305 0.0
C771 C 0.58224 0.71653 0.21065 0.0
C772 C 0.59671 0.68215 0.21381 0.0
C773 C 0.61434 0.73942 0.19616 0.0
C774 C 0.64264 0.67075 0.20167 0.0
C775 C 0.67471 0.69326 0.18743 0.0
H776 H 0.33204 0.73895 0.36418 0.0
H777 H 0.3984 0.82252 0.3184 0.0
H778 H 0.45233 0.78287 0.29391 0.0
H779 H 0.47801 0.72435 0.28427 0.0
H780 H 0.41731 0.64073 0.33178 0.0
H781 H 0.36404 0.6804 0.35714 0.0
C782 C 0.35844 0.74838 0.34888 0.0
C783 C 0.36093 0.78352 0.34287 0.0
C784 C 0.39033 0.72547 0.33531 0.0
C785 C 0.39583 0.79557 0.32333 0.0
C786 C 0.42659 0.77293 0.3093 0.0
C787 C 0.45342 0.71496 0.30037 0.0
C788 C 0.45105 0.67987 0.30619 0.0
C789 C 0.42382 0.73786 0.31497 0.0
C790 C 0.41977 0.66778 0.3272 0.0
C791 C 0.38913 0.69039 0.3415 0.0
H792 H 0.13046 0.68884 0.80938 0.0
H793 H 0.19201 0.75103 0.87129 0.0
H794 H 0.14782 0.80099 0.85208 0.0
H795 H 0.09044 0.82703 0.81767 0.0
H796 H 0.03523 0.76532 0.75406 0.0
H797 H 0.07763 0.71522 0.77393 0.0
C798 C 0.13428 0.71334 0.81863 0.0
C799 C 0.16425 0.71616 0.8418 0.0
C800 C 0.10956 0.74206 0.80722 0.0
C801 C 0.1693 0.74818 0.85339 0.0
C802 C 0.14384 0.77675 0.84248 0.0
C803 C 0.08763 0.80252 0.80835 0.0
C804 C 0.05943 0.79964 0.78466 0.0
C805 C 0.11359 0.77398 0.81947 0.0
C806 C 0.0568 0.76801 0.77235 0.0
C807 C 0.08098 0.73939 0.78369 0.0
loop_
_geom_bond_atom_site_label_1
_geom_bond_atom_site_label_2
_geom_bond_distance
_geom_bond_site_symmetry_2
_ccdc_geom_bond_type
O0 Cd1 2.300 . S
O0 C7 1.275 . S
Cd1 O0 2.300 . S
Cd1 O9 2.381 . S
Cd1 O10 2.378 . S
O2 Cd3 2.385 . S
O2 C7 1.255 . S
Cd3 O2 2.385 . S
Cd3 O4 2.317 . S
O4 Cd3 2.317 . S
O4 C5 1.232 . S
C5 O4 1.232 . S
C5 O6 1.218 . S
O6 C5 1.218 . S
C7 O0 1.275 . S
C7 O2 1.255 . S
C8 O9 1.258 . S
C8 O10 1.256 . S
O9 Cd1 2.381 . S
O9 C8 1.258 . S
O10 Cd1 2.378 . S
O10 C8 1.256 . S
O11 Cd12 2.300 . S
O11 C18 1.275 . S
Cd12 O11 2.300 . S
Cd12 O20 2.381 . S
Cd12 O21 2.378 . S
O13 Cd14 2.385 . S
O13 C18 1.255 . S
Cd14 O13 2.385 . S
Cd14 O15 2.317 . S
O15 Cd14 2.317 . S
O15 C16 1.232 . S
C16 O15 1.232 . S
C16 O17 1.218 . S
O17 C16 1.218 . S
C18 O11 1.275 . S
C18 O13 1.255 . S
C19 O20 1.258 . S
C19 O21 1.256 . S
O20 Cd12 2.381 . S
O20 C19 1.258 . S
O21 Cd12 2.378 . S
O21 C19 1.256 . S
O22 Cd23 2.300 . S
O22 C29 1.275 . S
Cd23 O22 2.300 . S
Cd23 O31 2.381 . S
Cd23 O32 2.378 . S
O24 Cd25 2.385 . S
O24 C29 1.255 . S
Cd25 O24 2.385 . S
Cd25 O26 2.317 . S
O26 Cd25 2.317 . S
O26 C27 1.232 . S
C27 O26 1.232 . S
C27 O28 1.218 . S
O28 C27 1.218 . S
C29 O22 1.275 . S
C29 O24 1.255 . S
C30 O31 1.258 . S
C30 O32 1.256 . S
O31 Cd23 2.381 . S
O31 C30 1.258 . S
O32 Cd23 2.378 . S
O32 C30 1.256 . S
O33 Cd34 2.300 . S
O33 C40 1.275 . S
Cd34 O33 2.300 . S
Cd34 O42 2.381 . S
Cd34 O43 2.378 . S
O35 Cd36 2.385 . S
O35 C40 1.255 . S
Cd36 O35 2.385 . S
Cd36 O37 2.317 . S
O37 Cd36 2.317 . S
O37 C38 1.232 . S
C38 O37 1.232 . S
C38 O39 1.218 . S
O39 C38 1.218 . S
C40 O33 1.275 . S
C40 O35 1.255 . S
C41 O42 1.258 . S
C41 O43 1.256 . S
O42 Cd34 2.381 . S
O42 C41 1.258 . S
O43 Cd34 2.378 . S
O43 C41 1.256 . S
O44 Cd45 2.300 . S
O44 C51 1.275 . S
Cd45 O44 2.300 . S
Cd45 O53 2.381 . S
Cd45 O54 2.378 . S
O46 Cd47 2.385 . S
O46 C51 1.255 . S
Cd47 O46 2.385 . S
Cd47 O48 2.317 . S
O48 Cd47 2.317 . S
O48 C49 1.232 . S
C49 O48 1.232 . S
C49 O50 1.218 . S
O50 C49 1.218 . S
C51 O44 1.275 . S
C51 O46 1.255 . S
C52 O53 1.258 . S
C52 O54 1.256 . S
O53 Cd45 2.381 . S
O53 C52 1.258 . S
O54 Cd45 2.378 . S
O54 C52 1.256 . S
O55 Cd56 2.300 . S
O55 C62 1.275 . S
Cd56 O55 2.300 . S
Cd56 O64 2.381 . S
Cd56 O65 2.378 . S
O57 Cd58 2.385 . S
O57 C62 1.255 . S
Cd58 O57 2.385 . S
Cd58 O59 2.317 . S
O59 Cd58 2.317 . S
O59 C60 1.232 . S
C60 O59 1.232 . S
C60 O61 1.218 . S
O61 C60 1.218 . S
C62 O55 1.275 . S
C62 O57 1.255 . S
C63 O64 1.258 . S
C63 O65 1.256 . S
O64 Cd56 2.381 . S
O64 C63 1.258 . S
O65 Cd56 2.378 . S
O65 C63 1.256 . S
O66 Cd67 2.300 . S
O66 C73 1.275 . S
Cd67 O66 2.300 . S
Cd67 O75 2.381 . S
Cd67 O76 2.378 . S
O68 Cd69 2.385 . S
O68 C73 1.255 . S
Cd69 O68 2.385 . S
Cd69 O70 2.317 . S
O70 Cd69 2.317 . S
O70 C71 1.232 . S
C71 O70 1.232 . S
C71 O72 1.218 . S
O72 C71 1.218 . S
C73 O66 1.275 . S
C73 O68 1.255 . S
C74 O75 1.258 . S
C74 O76 1.256 . S
O75 Cd67 2.381 . S
O75 C74 1.258 . S
O76 Cd67 2.378 . S
O76 C74 1.256 . S
O77 Cd78 2.300 . S
O77 C84 1.275 . S
Cd78 O77 2.300 . S
Cd78 O86 2.381 . S
Cd78 O87 2.378 . S
O79 Cd80 2.385 . S
O79 C84 1.255 . S
Cd80 O79 2.385 . S
Cd80 O81 2.317 . S
O81 Cd80 2.317 . S
O81 C82 1.232 . S
C82 O81 1.232 . S
C82 O83 1.218 . S
O83 C82 1.218 . S
C84 O77 1.275 . S
C84 O79 1.255 . S
C85 O86 1.258 . S
C85 O87 1.256 . S
O86 Cd78 2.381 . S
O86 C85 1.258 . S
O87 Cd78 2.378 . S
O87 C85 1.256 . S
C88 C90 1.422 . S
C88 C92 1.415 . S
C88 N94 1.369 . S
C89 C90 1.421 . S
C89 C91 1.417 . S
C89 C101 1.422 1_545 S
C90 C88 1.422 . S
C90 C89 1.421 . S
C90 N100 1.359 . S
C91 C89 1.417 . S
C91 C93 1.329 . S
C91 H110 0.931 . S
C92 C88 1.415 . S
C92 C93 1.437 . S
C92 C96 1.413 . S
C93 C91 1.329 . S
C93 C92 1.437 . S
C93 H115 0.929 . S
N94 C88 1.369 . S
N94 C95 1.338 . S
N94 Gd99 2.622 . S
C95 N94 1.338 . S
C95 C97 1.378 . S
C95 H107 0.929 . S
C96 C92 1.413 . S
C96 C97 1.348 . S
C96 H112 0.931 . S
C97 C95 1.378 . S
C97 C96 1.348 . S
C97 H113 0.930 . S
Gd98 N118 2.622 . S
Gd98 N125 2.570 . S
Gd98 O132 2.353 . S
Gd98 O133 2.468 . S
Gd98 O134 2.427 . S
Gd98 O136 2.388 . S
Gd98 O137 2.386 . S
Gd98 O141 2.307 . S
Gd98 C151 2.805 . S
Gd99 N94 2.622 . S
Gd99 N100 2.570 . S
Gd99 O131 2.386 . S
Gd99 O135 2.307 1_655 S
Gd99 O138 2.353 1_655 S
Gd99 O139 2.468 . S
Gd99 O140 2.427 . S
Gd99 O142 2.388 . S
Gd99 C163 2.805 . S
N100 C90 1.359 . S
N100 Gd99 2.570 . S
N100 C102 1.343 . S
C101 C89 1.422 1_565 S
C101 C103 1.321 . S
C101 H109 0.931 . S
C102 N100 1.343 . S
C102 C103 1.390 1_545 S
C102 H104 0.931 . S
C103 C101 1.321 . S
C103 C102 1.390 1_565 S
C103 H105 0.930 . S
H104 C102 0.931 . S
H105 C103 0.930 . S
H106 C129 0.931 . S
H107 C95 0.929 . S
H108 C130 0.930 . S
H109 C101 0.931 . S
H110 C91 0.931 . S
H111 C120 0.929 . S
H112 C96 0.931 . S
H113 C97 0.930 . S
H114 C152 0.930 . S
H115 C93 0.929 . S
H116 C121 0.931 . S
H117 C122 0.930 . S
N118 Gd98 2.622 . S
N118 C119 1.369 . S
N118 C120 1.338 . S
C119 N118 1.369 . S
C119 C123 1.415 . S
C119 C126 1.422 . S
C120 H111 0.929 . S
C120 N118 1.338 . S
C120 C122 1.378 . S
C121 H116 0.931 . S
C121 C122 1.348 . S
C121 C123 1.413 . S
C122 H117 0.930 . S
C122 C120 1.378 . S
C122 C121 1.348 . S
C123 C119 1.415 . S
C123 C121 1.413 . S
C123 C153 1.437 . S
H124 C153 0.929 . S
N125 Gd98 2.570 . S
N125 C126 1.359 . S
N125 C129 1.343 . S
C126 C119 1.422 . S
C126 N125 1.359 . S
C126 C128 1.421 . S
C127 C128 1.422 . S
C127 C130 1.321 . S
C127 H154 0.931 . S
C128 C126 1.421 . S
C128 C127 1.422 . S
C128 C152 1.417 . S
C129 H106 0.931 . S
C129 N125 1.343 . S
C129 C130 1.390 . S
C130 H108 0.930 . S
C130 C127 1.321 . S
C130 C129 1.390 . S
O131 Gd99 2.386 . S
O131 C143 1.265 . S
O132 Gd98 2.353 . S
O132 C143 1.242 1_455 S
O133 Gd98 2.468 . S
O133 C151 1.263 . S
O134 Gd98 2.427 . S
O134 C151 1.252 . S
O135 Gd99 2.307 1_455 S
O135 C144 1.261 . S
O136 Gd98 2.388 . S
O136 C144 1.252 . S
O137 Gd98 2.386 . S
O137 C155 1.265 . S
O138 Gd99 2.353 1_455 S
O138 C155 1.242 . S
O139 Gd99 2.468 . S
O139 C163 1.263 . S
O140 Gd99 2.427 . S
O140 C163 1.252 . S
O141 Gd98 2.307 . S
O141 C156 1.261 1_455 S
O142 Gd99 2.388 . S
O142 C156 1.252 . S
C143 O131 1.265 . S
C143 O132 1.242 1_655 S
C144 O135 1.261 . S
C144 O136 1.252 . S
C145 C148 1.394 . S
C145 C150 1.370 . S
C145 C151 1.500 . S
C146 C149 1.383 . S
C146 C150 1.395 . S
C147 C148 1.396 . S
C147 C149 1.365 . S
C147 H164 0.929 . S
C148 C145 1.394 . S
C148 C147 1.396 . S
C148 H165 0.930 . S
C149 C146 1.383 . S
C149 C147 1.365 . S
C149 H166 0.931 . S
C150 C145 1.370 . S
C150 C146 1.395 . S
C150 H167 0.930 . S
C151 Gd98 2.805 . S
C151 O133 1.263 . S
C151 O134 1.252 . S
C151 C145 1.500 . S
C152 H114 0.930 . S
C152 C128 1.417 . S
C152 C153 1.329 . S
C153 C123 1.437 . S
C153 H124 0.929 . S
C153 C152 1.329 . S
H154 C127 0.931 . S
C155 O137 1.265 . S
C155 O138 1.242 . S
C156 O141 1.261 1_655 S
C156 O142 1.252 . S
C157 C160 1.394 . S
C157 C162 1.370 . S
C157 C163 1.500 . S
C158 C161 1.383 . S
C158 C162 1.395 . S
C159 C160 1.396 . S
C159 C161 1.365 . S
C159 H168 0.929 . S
C160 C157 1.394 . S
C160 C159 1.396 . S
C160 H169 0.930 . S
C161 C158 1.383 . S
C161 C159 1.365 . S
C161 H170 0.931 . S
C162 C157 1.370 . S
C162 C158 1.395 . S
C162 H171 0.930 . S
C163 Gd99 2.805 . S
C163 O139 1.263 . S
C163 O140 1.252 . S
C163 C157 1.500 . S
H164 C147 0.929 . S
H165 C148 0.930 . S
H166 C149 0.931 . S
H167 C150 0.930 . S
H168 C159 0.929 . S
H169 C160 0.930 . S
H170 C161 0.931 . S
H171 C162 0.930 . S
C172 C174 1.422 . S
C172 C176 1.415 . S
C172 N178 1.369 . S
C173 C174 1.421 . S
C173 C175 1.417 . S
C173 C185 1.422 . S
C174 C172 1.422 . S
C174 C173 1.421 . S
C174 N184 1.359 . S
C175 C173 1.417 . S
C175 C177 1.329 . S
C175 H194 0.930 . S
C176 C172 1.415 . S
C176 C177 1.437 . S
C176 C180 1.413 . S
C177 C175 1.329 . S
C177 C176 1.437 . S
C177 H199 0.929 . S
N178 C172 1.369 . S
N178 C179 1.338 . S
N178 Gd183 2.622 . S
C179 N178 1.338 . S
C179 C181 1.378 . S
C179 H191 0.929 . S
C180 C176 1.413 . S
C180 C181 1.348 . S
C180 H196 0.931 . S
C181 C179 1.378 . S
C181 C180 1.348 . S
C181 H197 0.930 . S
Gd182 N202 2.622 . S
Gd182 N209 2.570 . S
Gd182 O216 2.353 . S
Gd182 O217 2.468 . S
Gd182 O218 2.427 . S
Gd182 O220 2.388 . S
Gd182 O221 2.386 . S
Gd182 O225 2.307 . S
Gd182 C235 2.805 . S
Gd183 N178 2.622 . S
Gd183 N184 2.570 . S
Gd183 O215 2.386 . S
Gd183 O219 2.307 . S
Gd183 O222 2.353 . S
Gd183 O223 2.468 . S
Gd183 O224 2.427 . S
Gd183 O226 2.388 . S
Gd183 C247 2.805 . S
N184 C174 1.359 . S
N184 Gd183 2.570 . S
N184 C186 1.343 . S
C185 C173 1.422 . S
C185 C187 1.321 . S
C185 H193 0.931 . S
C186 N184 1.343 . S
C186 C187 1.390 . S
C186 H188 0.931 . S
C187 C185 1.321 . S
C187 C186 1.390 . S
C187 H189 0.930 . S
H188 C186 0.931 . S
H189 C187 0.930 . S
H190 C213 0.931 . S
H191 C179 0.929 . S
H192 C214 0.930 . S
H193 C185 0.931 . S
H194 C175 0.930 . S
H195 C204 0.929 . S
H196 C180 0.931 . S
H197 C181 0.930 . S
H198 C236 0.930 . S
H199 C177 0.929 . S
H200 C205 0.931 . S
H201 C206 0.930 . S
N202 Gd182 2.622 . S
N202 C203 1.369 . S
N202 C204 1.338 . S
C203 N202 1.369 . S
C203 C207 1.415 . S
C203 C210 1.422 . S
C204 H195 0.929 . S
C204 N202 1.338 . S
C204 C206 1.378 . S
C205 H200 0.931 . S
C205 C206 1.348 . S
C205 C207 1.413 . S
C206 H201 0.930 . S
C206 C204 1.378 . S
C206 C205 1.348 . S
C207 C203 1.415 . S
C207 C205 1.413 . S
C207 C237 1.437 . S
H208 C237 0.929 . S
N209 Gd182 2.570 . S
N209 C210 1.359 . S
N209 C213 1.343 . S
C210 C203 1.422 . S
C210 N209 1.359 . S
C210 C212 1.421 . S
C211 C212 1.422 . S
C211 C214 1.321 . S
C211 H238 0.931 . S
C212 C210 1.421 . S
C212 C211 1.422 . S
C212 C236 1.417 . S
C213 H190 0.931 . S
C213 N209 1.343 . S
C213 C214 1.390 . S
C214 H192 0.930 . S
C214 C211 1.321 . S
C214 C213 1.390 . S
O215 Gd183 2.386 . S
O215 C227 1.265 . S
O216 Gd182 2.353 . S
O216 C227 1.242 . S
O217 Gd182 2.468 . S
O217 C235 1.263 . S
O218 Gd182 2.427 . S
O218 C235 1.252 . S
O219 Gd183 2.307 . S
O219 C228 1.261 . S
O220 Gd182 2.388 . S
O220 C228 1.252 . S
O221 Gd182 2.386 . S
O221 C239 1.265 . S
O222 Gd183 2.353 . S
O222 C239 1.242 . S
O223 Gd183 2.468 . S
O223 C247 1.263 . S
O224 Gd183 2.427 . S
O224 C247 1.252 . S
O225 Gd182 2.307 . S
O225 C240 1.261 . S
O226 Gd183 2.388 . S
O226 C240 1.252 . S
C227 O215 1.265 . S
C227 O216 1.242 . S
C228 O219 1.261 . S
C228 O220 1.252 . S
C229 C232 1.394 . S
C229 C234 1.370 . S
C229 C235 1.500 . S
C230 C233 1.383 . S
C230 C234 1.395 . S
C231 C232 1.396 . S
C231 C233 1.365 . S
C231 H248 0.929 . S
C232 C229 1.394 . S
C232 C231 1.396 . S
C232 H249 0.930 . S
C233 C230 1.383 . S
C233 C231 1.365 . S
C233 H250 0.931 . S
C234 C229 1.370 . S
C234 C230 1.395 . S
C234 H251 0.930 . S
C235 Gd182 2.805 . S
C235 O217 1.263 . S
C235 O218 1.252 . S
C235 C229 1.500 . S
C236 H198 0.930 . S
C236 C212 1.417 . S
C236 C237 1.329 . S
C237 C207 1.437 . S
C237 H208 0.929 . S
C237 C236 1.329 . S
H238 C211 0.931 . S
C239 O221 1.265 . S
C239 O222 1.242 . S
C240 O225 1.261 . S
C240 O226 1.252 . S
C241 C244 1.394 . S
C241 C246 1.370 . S
C241 C247 1.500 . S
C242 C245 1.383 . S
C242 C246 1.395 . S
C243 C244 1.396 . S
C243 C245 1.365 . S
C243 H252 0.929 . S
C244 C241 1.394 . S
C244 C243 1.396 . S
C244 H253 0.930 . S
C245 C242 1.383 . S
C245 C243 1.365 . S
C245 H254 0.931 . S
C246 C241 1.370 . S
C246 C242 1.395 . S
C246 H255 0.930 . S
C247 Gd183 2.805 . S
C247 O223 1.263 . S
C247 O224 1.252 . S
C247 C241 1.500 . S
H248 C231 0.929 . S
H249 C232 0.930 . S
H250 C233 0.931 . S
H251 C234 0.930 . S
H252 C243 0.929 . S
H253 C244 0.930 . S
H254 C245 0.931 . S
H255 C246 0.930 . S
C256 C258 1.422 . S
C256 C260 1.415 . S
C256 N262 1.369 . S
C257 C258 1.421 . S
C257 C259 1.417 . S
C257 C269 1.422 . S
C258 C256 1.422 . S
C258 C257 1.421 . S
C258 N268 1.359 . S
C259 C257 1.417 . S
C259 C261 1.329 . S
C259 H278 0.930 . S
C260 C256 1.415 . S
C260 C261 1.437 . S
C260 C264 1.413 . S
C261 C259 1.329 . S
C261 C260 1.437 . S
C261 H283 0.929 . S
N262 C256 1.369 . S
N262 C263 1.338 . S
N262 Gd267 2.622 . S
C263 N262 1.338 . S
C263 C265 1.378 . S
C263 H275 0.929 . S
C264 C260 1.413 . S
C264 C265 1.348 . S
C264 H280 0.931 . S
C265 C263 1.378 . S
C265 C264 1.348 . S
C265 H281 0.930 . S
Gd266 N286 2.622 . S
Gd266 N293 2.570 . S
Gd266 O300 2.356 . S
Gd266 O301 2.468 . S
Gd266 O302 2.427 . S
Gd266 O304 2.388 . S
Gd266 O305 2.386 . S
Gd266 O309 2.307 . S
Gd266 C319 2.805 . S
Gd267 N262 2.622 . S
Gd267 N268 2.570 . S
Gd267 O299 2.386 . S
Gd267 O303 2.307 1_655 S
Gd267 O306 2.353 1_655 S
Gd267 O307 2.468 . S
Gd267 O308 2.427 . S
Gd267 O310 2.388 . S
Gd267 C331 2.805 . S
N268 C258 1.359 . S
N268 Gd267 2.570 . S
N268 C270 1.343 . S
C269 C257 1.422 . S
C269 C271 1.321 . S
C269 H277 0.931 . S
C270 N268 1.343 . S
C270 C271 1.390 . S
C270 H272 0.931 . S
C271 C269 1.321 . S
C271 C270 1.390 . S
C271 H273 0.930 . S
H272 C270 0.931 . S
H273 C271 0.930 . S
H274 C297 0.931 . S
H275 C263 0.929 . S
H276 C298 0.930 . S
H277 C269 0.931 . S
H278 C259 0.930 . S
H279 C288 0.929 . S
H280 C264 0.931 . S
H281 C265 0.930 . S
H282 C320 0.930 1_545 S
H283 C261 0.929 . S
H284 C289 0.931 . S
H285 C290 0.930 . S
N286 Gd266 2.622 . S
N286 C287 1.369 . S
N286 C288 1.338 . S
C287 N286 1.369 . S
C287 C291 1.415 . S
C287 C294 1.422 . S
C288 H279 0.929 . S
C288 N286 1.338 . S
C288 C290 1.378 . S
C289 H284 0.931 . S
C289 C290 1.348 . S
C289 C291 1.413 . S
C290 H285 0.930 . S
C290 C288 1.378 . S
C290 C289 1.348 . S
C291 C287 1.415 . S
C291 C289 1.413 . S
C291 C321 1.437 . S
H292 C321 0.929 . S
N293 Gd266 2.570 . S
N293 C294 1.359 . S
N293 C297 1.343 . S
C294 C287 1.422 . S
C294 N293 1.359 . S
C294 C296 1.421 . S
C295 C296 1.422 1_545 S
C295 C298 1.321 . S
C295 H322 0.931 . S
C296 C294 1.421 . S
C296 C295 1.422 1_565 S
C296 C320 1.417 . S
C297 H274 0.931 . S
C297 N293 1.343 . S
C297 C298 1.390 1_565 S
C298 H276 0.930 . S
C298 C295 1.321 . S
C298 C297 1.390 1_545 S
O299 Gd267 2.386 . S
O299 C311 1.265 . S
O300 Gd266 2.356 . S
O300 C311 1.238 1_455 S
O301 Gd266 2.468 . S
O301 C319 1.263 . S
O302 Gd266 2.427 . S
O302 C319 1.252 . S
O303 Gd267 2.307 1_455 S
O303 C312 1.261 . S
O304 Gd266 2.388 . S
O304 C312 1.252 . S
O305 Gd266 2.386 . S
O305 C323 1.265 . S
O306 Gd267 2.353 1_455 S
O306 C323 1.242 . S
O307 Gd267 2.468 . S
O307 C331 1.263 . S
O308 Gd267 2.427 . S
O308 C331 1.252 . S
O309 Gd266 2.307 . S
O309 C324 1.261 1_455 S
O310 Gd267 2.388 . S
O310 C324 1.252 . S
C311 O299 1.265 . S
C311 O300 1.238 1_655 S
C312 O303 1.261 . S
C312 O304 1.252 . S
C313 C316 1.394 . S
C313 C318 1.370 . S
C313 C319 1.500 . S
C314 C317 1.383 . S
C314 C318 1.395 . S
C315 C316 1.396 . S
C315 C317 1.365 . S
C315 H332 0.929 . S
C316 C313 1.394 . S
C316 C315 1.396 . S
C316 H333 0.930 . S
C317 C314 1.383 . S
C317 C315 1.365 . S
C317 H334 0.931 . S
C318 C313 1.370 . S
C318 C314 1.395 . S
C318 H335 0.930 . S
C319 Gd266 2.805 . S
C319 O301 1.263 . S
C319 O302 1.252 . S
C319 C313 1.500 . S
C320 H282 0.930 1_565 S
C320 C296 1.417 . S
C320 C321 1.329 . S
C321 C291 1.437 . S
C321 H292 0.929 . S
C321 C320 1.329 . S
H322 C295 0.931 . S
C323 O305 1.265 . S
C323 O306 1.242 . S
C324 O309 1.261 1_655 S
C324 O310 1.252 . S
C325 C328 1.394 . S
C325 C330 1.370 . S
C325 C331 1.500 . S
C326 C329 1.383 . S
C326 C330 1.395 . S
C327 C328 1.396 . S
C327 C329 1.365 . S
C327 H336 0.929 . S
C328 C325 1.394 . S
C328 C327 1.396 . S
C328 H337 0.930 . S
C329 C326 1.383 . S
C329 C327 1.365 . S
C329 H338 0.931 . S
C330 C325 1.370 . S
C330 C326 1.395 . S
C330 H339 0.930 . S
C331 Gd267 2.805 . S
C331 O307 1.263 . S
C331 O308 1.252 . S
C331 C325 1.500 . S
H332 C315 0.929 . S
H333 C316 0.930 . S
H334 C317 0.931 . S
H335 C318 0.930 . S
H336 C327 0.929 . S
H337 C328 0.930 . S
H338 C329 0.931 . S
H339 C330 0.930 . S
C340 C342 1.422 . S
C340 C344 1.415 . S
C340 N346 1.369 . S
C341 C342 1.421 . S
C341 C343 1.417 . S
C341 C353 1.422 . S
C342 C340 1.422 . S
C342 C341 1.421 . S
C342 N352 1.359 . S
C343 C341 1.417 . S
C343 C345 1.329 . S
C343 H362 0.930 . S
C344 C340 1.415 . S
C344 C345 1.437 . S
C344 C348 1.413 . S
C345 C343 1.329 . S
C345 C344 1.437 . S
C345 H367 0.929 . S
N346 C340 1.369 . S
N346 C347 1.338 . S
N346 Gd351 2.622 . S
C347 N346 1.338 . S
C347 C349 1.378 . S
C347 H359 0.929 . S
C348 C344 1.413 . S
C348 C349 1.348 . S
C348 H364 0.931 . S
C349 C347 1.378 . S
C349 C348 1.348 . S
C349 H365 0.930 . S
Gd350 N370 2.622 . S
Gd350 N377 2.570 . S
Gd350 O384 2.353 . S
Gd350 O385 2.468 . S
Gd350 O386 2.427 . S
Gd350 O388 2.388 . S
Gd350 O389 2.386 . S
Gd350 O393 2.307 . S
Gd350 C403 2.805 . S
Gd351 N346 2.622 . S
Gd351 N352 2.570 . S
Gd351 O383 2.386 . S
Gd351 O387 2.307 . S
Gd351 O390 2.353 . S
Gd351 O391 2.468 . S
Gd351 O392 2.427 . S
Gd351 O394 2.388 . S
Gd351 C415 2.805 . S
N352 C342 1.359 . S
N352 Gd351 2.570 . S
N352 C354 1.343 . S
C353 C341 1.422 . S
C353 C355 1.321 . S
C353 H361 0.931 . S
C354 N352 1.343 . S
C354 C355 1.390 . S
C354 H356 0.931 . S
C355 C353 1.321 . S
C355 C354 1.390 . S
C355 H357 0.930 . S
H356 C354 0.931 . S
H357 C355 0.930 . S
H358 C381 0.931 . S
H359 C347 0.929 . S
H360 C382 0.930 . S
H361 C353 0.931 . S
H362 C343 0.930 . S
H363 C372 0.929 . S
H364 C348 0.931 . S
H365 C349 0.930 . S
H366 C404 0.930 . S
H367 C345 0.929 . S
H368 C373 0.931 . S
H369 C374 0.930 . S
N370 Gd350 2.622 . S
N370 C371 1.369 . S
N370 C372 1.338 . S
C371 N370 1.369 . S
C371 C375 1.415 . S
C371 C378 1.422 . S
C372 H363 0.929 . S
C372 N370 1.338 . S
C372 C374 1.378 . S
C373 H368 0.931 . S
C373 C374 1.348 . S
C373 C375 1.413 . S
C374 H369 0.930 . S
C374 C372 1.378 . S
C374 C373 1.348 . S
C375 C371 1.415 . S
C375 C373 1.413 . S
C375 C405 1.437 . S
H376 C405 0.929 . S
N377 Gd350 2.570 . S
N377 C378 1.359 . S
N377 C381 1.343 . S
C378 C371 1.422 . S
C378 N377 1.359 . S
C378 C380 1.421 . S
C379 C380 1.422 . S
C379 C382 1.321 . S
C379 H406 0.931 . S
C380 C378 1.421 . S
C380 C379 1.422 . S
C380 C404 1.417 . S
C381 H358 0.931 . S
C381 N377 1.343 . S
C381 C382 1.390 . S
C382 H360 0.930 . S
C382 C379 1.321 . S
C382 C381 1.390 . S
O383 Gd351 2.386 . S
O383 C395 1.265 . S
O384 Gd350 2.353 . S
O384 C395 1.242 . S
O385 Gd350 2.468 . S
O385 C403 1.263 . S
O386 Gd350 2.427 . S
O386 C403 1.252 . S
O387 Gd351 2.307 . S
O387 C396 1.261 . S
O388 Gd350 2.388 . S
O388 C396 1.252 . S
O389 Gd350 2.386 . S
O389 C407 1.265 . S
O390 Gd351 2.353 . S
O390 C407 1.242 . S
O391 Gd351 2.468 . S
O391 C415 1.263 . S
O392 Gd351 2.427 . S
O392 C415 1.252 . S
O393 Gd350 2.307 . S
O393 C408 1.261 . S
O394 Gd351 2.388 . S
O394 C408 1.252 . S
C395 O383 1.265 . S
C395 O384 1.242 . S
C396 O387 1.261 . S
C396 O388 1.252 . S
C397 C400 1.394 . S
C397 C402 1.370 . S
C397 C403 1.500 . S
C398 C401 1.383 . S
C398 C402 1.395 . S
C399 C400 1.396 . S
C399 C401 1.365 . S
C399 H416 0.929 . S
C400 C397 1.394 . S
C400 C399 1.396 . S
C400 H417 0.930 . S
C401 C398 1.383 . S
C401 C399 1.365 . S
C401 H418 0.931 . S
C402 C397 1.370 . S
C402 C398 1.395 . S
C402 H419 0.930 . S
C403 Gd350 2.805 . S
C403 O385 1.263 . S
C403 O386 1.252 . S
C403 C397 1.500 . S
C404 H366 0.930 . S
C404 C380 1.417 . S
C404 C405 1.329 . S
C405 C375 1.437 . S
C405 H376 0.929 . S
C405 C404 1.329 . S
H406 C379 0.931 . S
C407 O389 1.265 . S
C407 O390 1.242 . S
C408 O393 1.261 . S
C408 O394 1.252 . S
C409 C412 1.394 . S
C409 C414 1.370 . S
C409 C415 1.500 . S
C410 C413 1.383 . S
C410 C414 1.395 . S
C411 C412 1.396 . S
C411 C413 1.365 . S
C411 H420 0.929 . S
C412 C409 1.394 . S
C412 C411 1.396 . S
C412 H421 0.930 . S
C413 C410 1.383 . S
C413 C411 1.365 . S
C413 H422 0.931 . S
C414 C409 1.370 . S
C414 C410 1.395 . S
C414 H423 0.930 . S
C415 Gd351 2.805 . S
C415 O391 1.263 . S
C415 O392 1.252 . S
C415 C409 1.500 . S
H416 C399 0.929 . S
H417 C400 0.930 . S
H418 C401 0.931 . S
H419 C402 0.930 . S
H420 C411 0.929 . S
H421 C412 0.930 . S
H422 C413 0.931 . S
H423 C414 0.930 . S
H424 C430 0.930 . S
H425 C433 0.930 . S
H426 C434 0.930 . S
H427 C435 0.930 . S
H428 C438 0.930 . S
H429 C439 0.930 . S
C430 H424 0.930 . S
C430 C431 1.355 . S
C430 C432 1.415 . S
C431 C430 1.355 . S
C431 C433 1.419 . S
C432 C430 1.415 . S
C432 C437 1.425 . S
C432 C439 1.409 1_565 S
C433 H425 0.930 . S
C433 C431 1.419 . S
C433 C434 1.362 . S
C434 H426 0.930 . S
C434 C433 1.362 . S
C434 C437 1.409 . S
C435 H427 0.930 . S
C435 C436 1.355 . S
C435 C437 1.415 1_545 S
C436 C435 1.355 . S
C436 C438 1.419 . S
C437 C432 1.425 . S
C437 C434 1.409 . S
C437 C435 1.415 1_565 S
C438 H428 0.930 . S
C438 C436 1.419 . S
C438 C439 1.362 . S
C439 H429 0.930 . S
C439 C432 1.409 1_545 S
C439 C438 1.362 . S
H440 C446 0.930 . S
H441 C449 0.930 . S
H442 C450 0.930 . S
H443 C451 0.930 . S
H444 C454 0.930 . S
H445 C455 0.930 . S
C446 H440 0.930 . S
C446 C447 1.355 . S
C446 C448 1.415 . S
C447 C446 1.355 . S
C447 C449 1.419 . S
C448 C446 1.415 . S
C448 C453 1.425 . S
C448 C455 1.409 . S
C449 H441 0.930 . S
C449 C447 1.419 . S
C449 C450 1.362 . S
C450 H442 0.930 . S
C450 C449 1.362 . S
C450 C453 1.409 . S
C451 H443 0.930 . S
C451 C452 1.355 . S
C451 C453 1.415 . S
C452 C451 1.355 . S
C452 C454 1.419 . S
C453 C448 1.425 . S
C453 C450 1.409 . S
C453 C451 1.415 . S
C454 H444 0.930 . S
C454 C452 1.419 . S
C454 C455 1.362 . S
C455 H445 0.930 . S
C455 C448 1.409 . S
C455 C454 1.362 . S
H456 C462 0.930 . S
H457 C465 0.930 . S
H458 C466 0.930 . S
H459 C467 0.930 . S
H460 C470 0.930 . S
H461 C471 0.930 . S
C462 H456 0.930 . S
C462 C463 1.355 . S
C462 C464 1.415 . S
C463 C462 1.355 . S
C463 C465 1.419 . S
C464 C462 1.415 . S
C464 C469 1.425 . S
C464 C471 1.409 . S
C465 H457 0.930 . S
C465 C463 1.419 . S
C465 C466 1.362 . S
C466 H458 0.930 . S
C466 C465 1.362 . S
C466 C469 1.409 . S
C467 H459 0.930 . S
C467 C468 1.355 . S
C467 C469 1.415 . S
C468 C467 1.355 . S
C468 C470 1.419 . S
C469 C464 1.425 . S
C469 C466 1.409 . S
C469 C467 1.415 . S
C470 H460 0.930 . S
C470 C468 1.419 . S
C470 C471 1.362 . S
C471 H461 0.930 . S
C471 C464 1.409 . S
C471 C470 1.362 . S
H472 C478 0.930 . S
H473 C481 0.930 . S
H474 C482 0.930 . S
H475 C483 0.930 . S
H476 C486 0.930 . S
H477 C487 0.930 . S
C478 H472 0.930 . S
C478 C479 1.355 . S
C478 C480 1.415 . S
C479 C478 1.355 . S
C479 C481 1.419 . S
C480 C478 1.415 . S
C480 C485 1.425 . S
C480 C487 1.409 1_565 S
C481 H473 0.930 . S
C481 C479 1.419 . S
C481 C482 1.362 . S
C482 H474 0.930 . S
C482 C481 1.362 . S
C482 C485 1.409 . S
C483 H475 0.930 . S
C483 C484 1.355 1_565 S
C483 C485 1.415 . S
C484 C483 1.355 1_545 S
C484 C486 1.419 . S
C485 C480 1.425 . S
C485 C482 1.409 . S
C485 C483 1.415 . S
C486 H476 0.930 . S
C486 C484 1.419 . S
C486 C487 1.362 . S
C487 H477 0.930 . S
C487 C480 1.409 1_545 S
C487 C486 1.362 . S
H488 C494 0.930 . S
H489 C497 0.930 . S
H490 C498 0.930 . S
H491 C499 0.930 . S
H492 C502 0.930 . S
H493 C503 0.930 . S
C494 H488 0.930 . S
C494 C495 1.355 . S
C494 C496 1.415 . S
C495 C494 1.355 . S
C495 C497 1.419 . S
C496 C494 1.415 . S
C496 C501 1.425 . S
C496 C503 1.409 . S
C497 H489 0.930 . S
C497 C495 1.419 . S
C497 C498 1.362 . S
C498 H490 0.930 . S
C498 C497 1.362 . S
C498 C501 1.409 . S
C499 H491 0.930 . S
C499 C500 1.355 . S
C499 C501 1.415 1_565 S
C500 C499 1.355 . S
C500 C502 1.419 . S
C501 C496 1.425 . S
C501 C498 1.409 . S
C501 C499 1.415 1_545 S
C502 H492 0.930 . S
C502 C500 1.419 . S
C502 C503 1.362 1_565 S
C503 H493 0.930 . S
C503 C496 1.409 . S
C503 C502 1.362 1_545 S
H504 C510 0.930 . S
H505 C513 0.930 . S
H506 C514 0.930 . S
H507 C515 0.930 . S
H508 C518 0.930 . S
H509 C519 0.930 . S
C510 H504 0.930 . S
C510 C511 1.355 . S
C510 C512 1.415 . S
C511 C510 1.355 . S
C511 C513 1.419 . S
C512 C510 1.415 . S
C512 C517 1.425 . S
C512 C519 1.409 . S
C513 H505 0.930 . S
C513 C511 1.419 . S
C513 C514 1.362 . S
C514 H506 0.930 . S
C514 C513 1.362 . S
C514 C517 1.409 . S
C515 H507 0.930 . S
C515 C516 1.355 . S
C515 C517 1.415 . S
C516 C515 1.355 . S
C516 C518 1.419 . S
C517 C512 1.425 . S
C517 C514 1.409 . S
C517 C515 1.415 . S
C518 H508 0.930 . S
C518 C516 1.419 . S
C518 C519 1.362 . S
C519 H509 0.930 . S
C519 C512 1.409 . S
C519 C518 1.362 . S
H520 C526 0.930 . S
H521 C529 0.930 . S
H522 C530 0.930 . S
H523 C531 0.930 . S
H524 C534 0.930 . S
H525 C535 0.930 . S
C526 H520 0.930 . S
C526 C527 1.355 . S
C526 C528 1.415 . S
C527 C526 1.355 . S
C527 C529 1.419 . S
C528 C526 1.415 . S
C528 C533 1.425 . S
C528 C535 1.409 . S
C529 H521 0.930 . S
C529 C527 1.419 . S
C529 C530 1.362 . S
C530 H522 0.930 . S
C530 C529 1.362 . S
C530 C533 1.409 . S
C531 H523 0.930 . S
C531 C532 1.355 . S
C531 C533 1.415 . S
C532 C531 1.355 . S
C532 C534 1.419 . S
C533 C528 1.425 . S
C533 C530 1.409 . S
C533 C531 1.415 . S
C534 H524 0.930 . S
C534 C532 1.419 . S
C534 C535 1.362 . S
C535 H525 0.930 . S
C535 C528 1.409 . S
C535 C534 1.362 . S
H536 C542 0.930 . S
H537 C545 0.930 . S
H538 C546 0.930 . S
H539 C547 0.930 . S
H540 C550 0.930 . S
H541 C551 0.930 . S
C542 H536 0.930 . S
C542 C543 1.355 . S
C542 C544 1.415 . S
C543 C542 1.355 . S
C543 C545 1.419 . S
C544 C542 1.415 . S
C544 C549 1.425 1_545 S
C544 C551 1.409 . S
C545 H537 0.930 . S
C545 C543 1.419 . S
C545 C546 1.362 1_545 S
C546 H538 0.930 . S
C546 C545 1.362 1_565 S
C546 C549 1.409 . S
C547 H539 0.930 . S
C547 C548 1.355 . S
C547 C549 1.415 . S
C548 C547 1.355 . S
C548 C550 1.419 1_565 S
C549 C544 1.425 1_565 S
C549 C546 1.409 . S
C549 C547 1.415 . S
C550 H540 0.930 . S
C550 C548 1.419 1_545 S
C550 C551 1.362 . S
C551 H541 0.930 . S
C551 C544 1.409 . S
C551 C550 1.362 . S
H552 C558 0.930 . S
H553 C561 0.930 . S
H554 C562 0.930 . S
H555 C563 0.930 . S
H556 C566 0.930 . S
H557 C567 0.954 . S
C558 H552 0.930 . S
C558 C559 1.355 . S
C558 C560 1.415 1_556 S
C559 C558 1.355 . S
C559 C561 1.419 . S
C560 C558 1.415 1_554 S
C560 C565 1.425 . S
C560 C567 1.409 . S
C561 H553 0.930 . S
C561 C559 1.419 . S
C561 C562 1.362 1_556 S
C562 H554 0.930 . S
C562 C561 1.362 1_554 S
C562 C565 1.409 . S
C563 H555 0.930 . S
C563 C564 1.355 . S
C563 C565 1.415 . S
C564 C563 1.355 . S
C564 C566 1.419 . S
C565 C560 1.425 . S
C565 C562 1.409 . S
C565 C563 1.415 . S
C566 H556 0.930 . S
C566 C564 1.419 . S
C566 C567 1.362 . S
C567 H557 0.954 . S
C567 C560 1.409 . S
C567 C566 1.362 . S
H568 C574 0.930 . S
H569 C577 0.930 . S
H570 C578 0.930 . S
H571 C579 0.930 . S
H572 C582 0.930 . S
H573 C583 0.930 . S
C574 H568 0.930 . S
C574 C575 1.355 . S
C574 C576 1.415 . S
C575 C574 1.355 . S
C575 C577 1.419 . S
C576 C574 1.415 . S
C576 C581 1.425 . S
C576 C583 1.409 . S
C577 H569 0.930 . S
C577 C575 1.419 . S
C577 C578 1.362 . S
C578 H570 0.930 . S
C578 C577 1.362 . S
C578 C581 1.409 . S
C579 H571 0.930 . S
C579 C580 1.355 . S
C579 C581 1.415 . S
C580 C579 1.355 . S
C580 C582 1.419 . S
C581 C576 1.425 . S
C581 C578 1.409 . S
C581 C579 1.415 . S
C582 H572 0.930 . S
C582 C580 1.419 . S
C582 C583 1.362 . S
C583 H573 0.930 . S
C583 C576 1.409 . S
C583 C582 1.362 . S
H584 C590 0.930 . S
H585 C593 0.930 . S
H586 C594 0.927 1_556 S
H587 C595 0.930 . S
H588 C598 0.930 . S
H589 C599 0.930 . S
C590 H584 0.930 . S
C590 C591 1.355 . S
C590 C592 1.415 1_554 S
C591 C590 1.355 . S
C591 C593 1.419 . S
C592 C590 1.415 1_556 S
C592 C597 1.425 . S
C592 C599 1.409 . S
C593 H585 0.930 . S
C593 C591 1.419 . S
C593 C594 1.386 . S
C594 H586 0.927 1_554 S
C594 C593 1.386 . S
C594 C597 1.389 1_554 S
C595 H587 0.930 . S
C595 C596 1.355 . S
C595 C597 1.415 . S
C596 C595 1.355 . S
C596 C598 1.419 . S
C597 C592 1.425 . S
C597 C594 1.389 1_556 S
C597 C595 1.415 . S
C598 H588 0.930 . S
C598 C596 1.419 . S
C598 C599 1.362 . S
C599 H589 0.930 . S
C599 C592 1.409 . S
C599 C598 1.362 . S
H600 C606 0.930 . S
H601 C609 0.930 . S
H602 C610 0.930 . S
H603 C611 0.930 . S
H604 C614 0.930 . S
H605 C615 0.930 . S
C606 H600 0.930 . S
C606 C607 1.355 . S
C606 C608 1.415 . S
C607 C606 1.355 . S
C607 C609 1.419 . S
C608 C606 1.415 . S
C608 C613 1.425 . S
C608 C615 1.409 . S
C609 H601 0.930 . S
C609 C607 1.419 . S
C609 C610 1.362 . S
C610 H602 0.930 . S
C610 C609 1.362 . S
C610 C613 1.409 . S
C611 H603 0.930 . S
C611 C612 1.355 . S
C611 C613 1.415 . S
C612 C611 1.355 . S
C612 C614 1.419 . S
C613 C608 1.425 . S
C613 C610 1.409 . S
C613 C611 1.415 . S
C614 H604 0.930 . S
C614 C612 1.419 . S
C614 C615 1.362 . S
C615 H605 0.930 . S
C615 C608 1.409 . S
C615 C614 1.362 . S
H616 C622 0.930 . S
H617 C625 0.930 1_554 S
H618 C626 0.930 . S
H619 C627 0.930 . S
H620 C630 0.930 . S
H621 C631 0.930 . S
C622 H616 0.930 . S
C622 C623 1.355 . S
C622 C624 1.415 1_554 S
C623 C622 1.355 . S
C623 C625 1.419 1_554 S
C624 C622 1.415 1_556 S
C624 C629 1.425 . S
C624 C631 1.409 . S
C625 H617 0.930 1_556 S
C625 C623 1.419 1_556 S
C625 C626 1.362 . S
C626 H618 0.930 . S
C626 C625 1.362 . S
C626 C629 1.409 . S
C627 H619 0.930 . S
C627 C628 1.355 . S
C627 C629 1.415 . S
C628 C627 1.355 . S
C628 C630 1.419 . S
C629 C624 1.425 . S
C629 C626 1.409 . S
C629 C627 1.415 . S
C630 H620 0.930 . S
C630 C628 1.419 . S
C630 C631 1.362 . S
C631 H621 0.930 . S
C631 C624 1.409 . S
C631 C630 1.362 . S
H632 C638 0.930 . S
H633 C641 0.930 . S
H634 C642 0.930 . S
H635 C643 0.930 . S
H636 C646 0.930 . S
H637 C647 0.930 . S
C638 H632 0.930 . S
C638 C639 1.355 . S
C638 C640 1.415 . S
C639 C638 1.355 . S
C639 C641 1.419 . S
C640 C638 1.415 . S
C640 C645 1.425 . S
C640 C647 1.409 . S
C641 H633 0.930 . S
C641 C639 1.419 . S
C641 C642 1.362 . S
C642 H634 0.930 . S
C642 C641 1.362 . S
C642 C645 1.409 . S
C643 H635 0.930 . S
C643 C644 1.355 . S
C643 C645 1.415 . S
C644 C643 1.355 . S
C644 C646 1.419 . S
C645 C640 1.425 . S
C645 C642 1.409 . S
C645 C643 1.415 . S
C646 H636 0.930 . S
C646 C644 1.419 . S
C646 C647 1.362 . S
C647 H637 0.930 . S
C647 C640 1.409 . S
C647 C646 1.362 . S
H648 C654 0.930 . S
H649 C657 0.934 . S
H650 C658 0.930 . S
H651 C659 0.930 . S
H652 C662 0.930 . S
H653 C663 0.930 . S
C654 H648 0.930 . S
C654 C655 1.355 . S
C654 C656 1.415 1_556 S
C655 C654 1.355 . S
C655 C657 1.428 . S
C656 C654 1.415 1_554 S
C656 C661 1.425 . S
C656 C663 1.409 . S
C657 H649 0.934 . S
C657 C655 1.428 . S
C657 C658 1.349 1_556 S
C658 H650 0.930 . S
C658 C657 1.349 1_554 S
C658 C661 1.409 . S
C659 H651 0.930 . S
C659 C660 1.355 . S
C659 C661 1.415 . S
C660 C659 1.355 . S
C660 C662 1.419 . S
C661 C656 1.425 . S
C661 C658 1.409 . S
C661 C659 1.415 . S
C662 H652 0.930 . S
C662 C660 1.419 . S
C662 C663 1.362 . S
C663 H653 0.930 . S
C663 C656 1.409 . S
C663 C662 1.362 . S
H664 C670 0.930 . S
H665 C673 0.930 . S
H666 C674 0.930 . S
H667 C675 0.930 . S
H668 C678 0.930 . S
H669 C679 0.930 . S
C670 H664 0.930 . S
C670 C671 1.355 . S
C670 C672 1.415 . S
C671 C670 1.355 . S
C671 C673 1.419 . S
C672 C670 1.415 . S
C672 C677 1.425 . S
C672 C679 1.409 . S
C673 H665 0.930 . S
C673 C671 1.419 . S
C673 C674 1.362 . S
C674 H666 0.930 . S
C674 C673 1.362 . S
C674 C677 1.409 . S
C675 H667 0.930 . S
C675 C676 1.355 . S
C675 C677 1.415 . S
C676 C675 1.355 . S
C676 C678 1.419 . S
C677 C672 1.425 . S
C677 C674 1.409 . S
C677 C675 1.415 . S
C678 H668 0.930 . S
C678 C676 1.419 . S
C678 C679 1.362 . S
C679 H669 0.930 . S
C679 C672 1.409 . S
C679 C678 1.362 . S
H680 C686 0.930 . S
H681 C689 0.930 . S
H682 C690 0.930 . S
H683 C691 0.930 . S
H684 C694 0.930 . S
H685 C695 0.930 . S
C686 H680 0.930 . S
C686 C687 1.355 . S
C686 C688 1.415 . S
C687 C686 1.355 . S
C687 C689 1.419 . S
C688 C686 1.415 . S
C688 C693 1.425 . S
C688 C695 1.409 . S
C689 H681 0.930 . S
C689 C687 1.419 . S
C689 C690 1.362 . S
C690 H682 0.930 . S
C690 C689 1.362 . S
C690 C693 1.409 . S
C691 H683 0.930 . S
C691 C692 1.355 . S
C691 C693 1.415 . S
C692 C691 1.355 . S
C692 C694 1.419 . S
C693 C688 1.425 . S
C693 C690 1.409 . S
C693 C691 1.415 . S
C694 H684 0.930 . S
C694 C692 1.419 . S
C694 C695 1.362 . S
C695 H685 0.930 . S
C695 C688 1.409 . S
C695 C694 1.362 . S
H696 C702 0.930 . S
H697 C705 0.930 . S
H698 C706 0.930 . S
H699 C707 0.930 . S
H700 C710 0.930 . S
H701 C711 0.930 . S
C702 H696 0.930 . S
C702 C703 1.355 . S
C702 C704 1.415 . S
C703 C702 1.355 . S
C703 C705 1.419 . S
C704 C702 1.415 . S
C704 C709 1.425 . S
C704 C711 1.409 . S
C705 H697 0.930 . S
C705 C703 1.419 . S
C705 C706 1.362 . S
C706 H698 0.930 . S
C706 C705 1.362 . S
C706 C709 1.409 . S
C707 H699 0.930 . S
C707 C708 1.355 . S
C707 C709 1.415 . S
C708 C707 1.355 . S
C708 C710 1.419 . S
C709 C704 1.425 . S
C709 C706 1.409 . S
C709 C707 1.415 . S
C710 H700 0.930 . S
C710 C708 1.419 . S
C710 C711 1.362 . S
C711 H701 0.930 . S
C711 C704 1.409 . S
C711 C710 1.362 . S
H712 C718 0.930 . S
H713 C721 0.930 . S
H714 C722 0.930 . S
H715 C723 0.930 . S
H716 C726 0.930 . S
H717 C727 0.930 . S
C718 H712 0.930 . S
C718 C719 1.355 . S
C718 C720 1.415 . S
C719 C718 1.355 . S
C719 C721 1.419 . S
C720 C718 1.415 . S
C720 C725 1.425 . S
C720 C727 1.409 . S
C721 H713 0.930 . S
C721 C719 1.419 . S
C721 C722 1.362 . S
C722 H714 0.930 . S
C722 C721 1.362 . S
C722 C725 1.409 . S
C723 H715 0.930 . S
C723 C724 1.355 . S
C723 C725 1.415 . S
C724 C723 1.355 . S
C724 C726 1.419 . S
C725 C720 1.425 . S
C725 C722 1.409 . S
C725 C723 1.415 . S
C726 H716 0.930 . S
C726 C724 1.419 . S
C726 C727 1.362 . S
C727 H717 0.930 . S
C727 C720 1.409 . S
C727 C726 1.362 . S
H728 C734 0.930 . S
H729 C737 0.930 . S
H730 C738 0.930 . S
H731 C739 0.930 1_455 S
H732 C742 0.930 . S
H733 C743 0.930 . S
C734 H728 0.930 . S
C734 C735 1.355 . S
C734 C736 1.415 . S
C735 C734 1.355 . S
C735 C737 1.419 . S
C736 C734 1.415 . S
C736 C741 1.425 . S
C736 C743 1.409 . S
C737 H729 0.930 . S
C737 C735 1.419 . S
C737 C738 1.362 . S
C738 H730 0.930 . S
C738 C737 1.362 . S
C738 C741 1.409 . S
C739 H731 0.930 1_655 S
C739 C740 1.355 . S
C739 C741 1.415 . S
C740 C739 1.355 . S
C740 C742 1.419 . S
C741 C736 1.425 . S
C741 C738 1.409 . S
C741 C739 1.415 . S
C742 H732 0.930 . S
C742 C740 1.419 . S
C742 C743 1.362 . S
C743 H733 0.930 . S
C743 C736 1.409 . S
C743 C742 1.362 . S
H744 C750 0.930 . S
H745 C753 0.930 . S
H746 C754 0.930 . S
H747 C755 0.930 . S
H748 C758 0.930 . S
H749 C759 0.930 . S
C750 H744 0.930 . S
C750 C751 1.355 . S
C750 C752 1.415 . S
C751 C750 1.355 . S
C751 C753 1.419 . S
C752 C750 1.415 . S
C752 C757 1.425 . S
C752 C759 1.409 . S
C753 H745 0.930 . S
C753 C751 1.419 . S
C753 C754 1.362 . S
C754 H746 0.930 . S
C754 C753 1.362 . S
C754 C757 1.409 . S
C755 H747 0.930 . S
C755 C756 1.355 . S
C755 C757 1.415 . S
C756 C755 1.355 . S
C756 C758 1.419 . S
C757 C752 1.425 . S
C757 C754 1.409 . S
C757 C755 1.415 . S
C758 H748 0.930 . S
C758 C756 1.419 . S
C758 C759 1.362 . S
C759 H749 0.930 . S
C759 C752 1.409 . S
C759 C758 1.362 . S
H760 C766 0.930 . S
H761 C769 0.930 . S
H762 C770 0.930 . S
H763 C771 0.930 . S
H764 C774 0.930 . S
H765 C775 0.930 . S
C766 H760 0.930 . S
C766 C767 1.355 . S
C766 C768 1.415 . S
C767 C766 1.355 . S
C767 C769 1.419 . S
C768 C766 1.415 . S
C768 C773 1.425 . S
C768 C775 1.409 . S
C769 H761 0.930 . S
C769 C767 1.419 . S
C769 C770 1.362 . S
C770 H762 0.930 . S
C770 C769 1.362 . S
C770 C773 1.409 . S
C771 H763 0.930 . S
C771 C772 1.355 . S
C771 C773 1.415 . S
C772 C771 1.355 . S
C772 C774 1.419 . S
C773 C768 1.425 . S
C773 C770 1.409 . S
C773 C771 1.415 . S
C774 H764 0.930 . S
C774 C772 1.419 . S
C774 C775 1.362 . S
C775 H765 0.930 . S
C775 C768 1.409 . S
C775 C774 1.362 . S
H776 C782 0.930 . S
H777 C785 0.930 . S
H778 C786 0.930 . S
H779 C787 0.930 . S
H780 C790 0.930 . S
H781 C791 0.930 . S
C782 H776 0.930 . S
C782 C783 1.355 . S
C782 C784 1.415 . S
C783 C782 1.355 . S
C783 C785 1.419 . S
C784 C782 1.415 . S
C784 C789 1.425 . S
C784 C791 1.409 . S
C785 H777 0.930 . S
C785 C783 1.419 . S
C785 C786 1.362 . S
C786 H778 0.930 . S
C786 C785 1.362 . S
C786 C789 1.409 . S
C787 H779 0.930 . S
C787 C788 1.355 . S
C787 C789 1.415 . S
C788 C787 1.355 . S
C788 C790 1.419 . S
C789 C784 1.425 . S
C789 C786 1.409 . S
C789 C787 1.415 . S
C790 H780 0.930 . S
C790 C788 1.419 . S
C790 C791 1.362 . S
C791 H781 0.930 . S
C791 C784 1.409 . S
C791 C790 1.362 . S
H792 C798 0.930 . S
H793 C801 0.930 . S
H794 C802 0.930 . S
H795 C803 0.930 . S
H796 C806 0.930 1_655 S
H797 C807 0.930 . S
C798 H792 0.930 . S
C798 C799 1.355 . S
C798 C800 1.415 . S
C799 C798 1.355 . S
C799 C801 1.419 . S
C800 C798 1.415 . S
C800 C805 1.425 . S
C800 C807 1.409 . S
C801 H793 0.930 . S
C801 C799 1.419 . S
C801 C802 1.362 . S
C802 H794 0.930 . S
C802 C801 1.362 . S
C802 C805 1.409 . S
C803 H795 0.930 . S
C803 C804 1.355 . S
C803 C805 1.415 . S
C804 C803 1.355 . S
C804 C806 1.419 . S
C805 C800 1.425 . S
C805 C802 1.409 . S
C805 C803 1.415 . S
C806 H796 0.930 1_455 S
C806 C804 1.419 . S
C806 C807 1.362 . S
C807 H797 0.930 . S
C807 C800 1.409 . S
C807 C806 1.362 . S
C431 C73 1.575 . S
C436 C144 1.657 . S
C452 C228 1.750 . S
C447 C84 1.708 . S
C468 C227 1.642 . S
C463 C51 1.567 . S
C479 C62 1.724 . S
C484 C143 1.736 . S
C500 C324 1.628 . S
C495 C29 1.585 . S
C516 C408 1.596 . S
C511 C38 1.438 . S
C527 C7 1.587 . S
C532 C407 1.650 . S
C543 C16 1.456 . S
C548 C323 1.612 . S
C564 C146 1.516 . S
C559 C18 1.638 . S
C580 C230 1.517 . S
C575 C5 1.417 . S
C596 C242 1.409 . S
C591 C40 1.656 . S
C612 C158 1.507 . S
C607 C27 1.432 . S
C628 C326 1.382 . S
C623 C60 1.297 . S
C639 C49 1.314 . S
C644 C410 1.414 . S
C660 C398 1.356 . S
C655 C82 1.307 . S
C671 C71 1.421 . S
C676 C314 1.348 . S
C692 C155 1.631 . S
C687 C8 1.614 . S
C708 C239 1.565 . S
C703 C19 1.559 . S
C719 C30 1.612 . S
C724 C240 1.636 . S
C740 C156 1.544 . S
C735 C41 1.525 . S
C756 C311 1.423 . S
C751 C52 1.422 . S
C767 C63 1.539 . S
C772 C395 1.535 . S
C783 C74 1.407 . S
C788 C396 1.414 . S
C799 C85 1.533 . S
C804 C312 1.508 . S
