# Generated by pormake.
# Topology eea, (3,6)-cn, num edge types: 1
# Building blocks:
#     Node 0, Type 0, BuildingBlock: WUSLED_clean_sbu_0, # of connection points: 3
#     Node 1, Type 0, BuildingBlock: WUSLED_clean_sbu_0, # of connection points: 3
#     Node 2, Type 0, BuildingBlock: WUSLED_clean_sbu_0, # of connection points: 3
#     Node 3, Type 0, BuildingBlock: WUSLED_clean_sbu_0, # of connection points: 3
#     Node 4, Type 0, BuildingBlock: WUSLED_clean_sbu_0, # of connection points: 3
#     Node 5, Type 0, BuildingBlock: WUSLED_clean_sbu_0, # of connection points: 3
#     Node 6, Type 0, BuildingBlock: WUSLED_clean_sbu_0, # of connection points: 3
#     Node 7, Type 0, BuildingBlock: WUSLED_clean_sbu_0, # of connection points: 3
#     Node 8, Type 0, BuildingBlock: WUSLED_clean_sbu_0, # of connection points: 3
#     Node 9, Type 0, BuildingBlock: WUSLED_clean_sbu_0, # of connection points: 3
#     Node 10, Type 0, BuildingBlock: WUSLED_clean_sbu_0, # of connection points: 3
#     Node 11, Type 0, BuildingBlock: WUSLED_clean_sbu_0, # of connection points: 3
#     Node 12, Type 0, BuildingBlock: WUSLED_clean_sbu_0, # of connection points: 3
#     Node 13, Type 0, BuildingBlock: WUSLED_clean_sbu_0, # of connection points: 3
#     Node 14, Type 0, BuildingBlock: WUSLED_clean_sbu_0, # of connection points: 3
#     Node 15, Type 0, BuildingBlock: WUSLED_clean_sbu_0, # of connection points: 3
#     Node 16, Type 0, BuildingBlock: WUSLED_clean_sbu_0, # of connection points: 3
#     Node 17, Type 0, BuildingBlock: WUSLED_clean_sbu_0, # of connection points: 3
#     Node 18, Type 1, BuildingBlock: NUHQIS_clean_sbu_0, # of connection points: 6
#     Node 19, Type 1, BuildingBlock: NUHQIS_clean_sbu_0, # of connection points: 6
#     Node 20, Type 1, BuildingBlock: NUHQIS_clean_sbu_0, # of connection points: 6
#     Node 21, Type 1, BuildingBlock: NUHQIS_clean_sbu_0, # of connection points: 6
#     Node 22, Type 1, BuildingBlock: NUHQIS_clean_sbu_0, # of connection points: 6
#     Node 23, Type 1, BuildingBlock: NUHQIS_clean_sbu_0, # of connection points: 6
#     Node 24, Type 1, BuildingBlock: NUHQIS_clean_sbu_0, # of connection points: 6
#     Node 25, Type 1, BuildingBlock: NUHQIS_clean_sbu_0, # of connection points: 6
#     Node 26, Type 1, BuildingBlock: NUHQIS_clean_sbu_0, # of connection points: 6
#     Edge 27, Type (0, 1), BuildingBlock: ZUJKAS_clean_linker_0, # of connection points: 2
#     Edge 28, Type (0, 1), BuildingBlock: ZUJKAS_clean_linker_0, # of connection points: 2
#     Edge 29, Type (0, 1), BuildingBlock: ZUJKAS_clean_linker_0, # of connection points: 2
#     Edge 30, Type (0, 1), BuildingBlock: ZUJKAS_clean_linker_0, # of connection points: 2
#     Edge 31, Type (0, 1), BuildingBlock: ZUJKAS_clean_linker_0, # of connection points: 2
#     Edge 32, Type (0, 1), BuildingBlock: ZUJKAS_clean_linker_0, # of connection points: 2
#     Edge 33, Type (0, 1), BuildingBlock: ZUJKAS_clean_linker_0, # of connection points: 2
#     Edge 34, Type (0, 1), BuildingBlock: ZUJKAS_clean_linker_0, # of connection points: 2
#     Edge 35, Type (0, 1), BuildingBlock: ZUJKAS_clean_linker_0, # of connection points: 2
#     Edge 36, Type (0, 1), BuildingBlock: ZUJKAS_clean_linker_0, # of connection points: 2
#     Edge 37, Type (0, 1), BuildingBlock: ZUJKAS_clean_linker_0, # of connection points: 2
#     Edge 38, Type (0, 1), BuildingBlock: ZUJKAS_clean_linker_0, # of connection points: 2
#     Edge 39, Type (0, 1), BuildingBlock: ZUJKAS_clean_linker_0, # of connection points: 2
#     Edge 40, Type (0, 1), BuildingBlock: ZUJKAS_clean_linker_0, # of connection points: 2
#     Edge 41, Type (0, 1), BuildingBlock: ZUJKAS_clean_linker_0, # of connection points: 2
#     Edge 42, Type (0, 1), BuildingBlock: ZUJKAS_clean_linker_0, # of connection points: 2
#     Edge 43, Type (0, 1), BuildingBlock: ZUJKAS_clean_linker_0, # of connection points: 2
#     Edge 44, Type (0, 1), BuildingBlock: ZUJKAS_clean_linker_0, # of connection points: 2
#     Edge 45, Type (0, 1), BuildingBlock: ZUJKAS_clean_linker_0, # of connection points: 2
#     Edge 46, Type (0, 1), BuildingBlock: ZUJKAS_clean_linker_0, # of connection points: 2
#     Edge 47, Type (0, 1), BuildingBlock: ZUJKAS_clean_linker_0, # of connection points: 2
#     Edge 48, Type (0, 1), BuildingBlock: ZUJKAS_clean_linker_0, # of connection points: 2
#     Edge 49, Type (0, 1), BuildingBlock: ZUJKAS_clean_linker_0, # of connection points: 2
#     Edge 50, Type (0, 1), BuildingBlock: ZUJKAS_clean_linker_0, # of connection points: 2
#     Edge 51, Type (0, 1), BuildingBlock: ZUJKAS_clean_linker_0, # of connection points: 2
#     Edge 52, Type (0, 1), BuildingBlock: ZUJKAS_clean_linker_0, # of connection points: 2
#     Edge 53, Type (0, 1), BuildingBlock: ZUJKAS_clean_linker_0, # of connection points: 2
#     Edge 54, Type (0, 1), BuildingBlock: ZUJKAS_clean_linker_0, # of connection points: 2
#     Edge 55, Type (0, 1), BuildingBlock: ZUJKAS_clean_linker_0, # of connection points: 2
#     Edge 56, Type (0, 1), BuildingBlock: ZUJKAS_clean_linker_0, # of connection points: 2
#     Edge 57, Type (0, 1), BuildingBlock: ZUJKAS_clean_linker_0, # of connection points: 2
#     Edge 58, Type (0, 1), BuildingBlock: ZUJKAS_clean_linker_0, # of connection points: 2
#     Edge 59, Type (0, 1), BuildingBlock: ZUJKAS_clean_linker_0, # of connection points: 2
#     Edge 60, Type (0, 1), BuildingBlock: ZUJKAS_clean_linker_0, # of connection points: 2
#     Edge 61, Type (0, 1), BuildingBlock: ZUJKAS_clean_linker_0, # of connection points: 2
#     Edge 62, Type (0, 1), BuildingBlock: ZUJKAS_clean_linker_0, # of connection points: 2
#     Edge 63, Type (0, 1), BuildingBlock: ZUJKAS_clean_linker_0, # of connection points: 2
#     Edge 64, Type (0, 1), BuildingBlock: ZUJKAS_clean_linker_0, # of connection points: 2
#     Edge 65, Type (0, 1), BuildingBlock: ZUJKAS_clean_linker_0, # of connection points: 2
#     Edge 66, Type (0, 1), BuildingBlock: ZUJKAS_clean_linker_0, # of connection points: 2
#     Edge 67, Type (0, 1), BuildingBlock: ZUJKAS_clean_linker_0, # of connection points: 2
#     Edge 68, Type (0, 1), BuildingBlock: ZUJKAS_clean_linker_0, # of connection points: 2
#     Edge 69, Type (0, 1), BuildingBlock: ZUJKAS_clean_linker_0, # of connection points: 2
#     Edge 70, Type (0, 1), BuildingBlock: ZUJKAS_clean_linker_0, # of connection points: 2
#     Edge 71, Type (0, 1), BuildingBlock: ZUJKAS_clean_linker_0, # of connection points: 2
#     Edge 72, Type (0, 1), BuildingBlock: ZUJKAS_clean_linker_0, # of connection points: 2
#     Edge 73, Type (0, 1), BuildingBlock: ZUJKAS_clean_linker_0, # of connection points: 2
#     Edge 74, Type (0, 1), BuildingBlock: ZUJKAS_clean_linker_0, # of connection points: 2
#     Edge 75, Type (0, 1), BuildingBlock: ZUJKAS_clean_linker_0, # of connection points: 2
#     Edge 76, Type (0, 1), BuildingBlock: ZUJKAS_clean_linker_0, # of connection points: 2
#     Edge 77, Type (0, 1), BuildingBlock: ZUJKAS_clean_linker_0, # of connection points: 2
#     Edge 78, Type (0, 1), BuildingBlock: ZUJKAS_clean_linker_0, # of connection points: 2
#     Edge 79, Type (0, 1), BuildingBlock: ZUJKAS_clean_linker_0, # of connection points: 2
#     Edge 80, Type (0, 1), BuildingBlock: ZUJKAS_clean_linker_0, # of connection points: 2
# Relax obj value: 0.035
# Max RMSD: 0.130
# Mean RMSD: 0.069
data_MOF--net-eea--node1-WUSLED_clean_sbu_0--node2-NUHQIS_clean_sbu_0--edge1-ZUJKAS_clean_linker_0
_symmetry_space_group_name_H-M    P1
_symmetry_Int_Tables_number       1
_symmetry_cell_setting            triclinic
loop_
_symmetry_equiv_pos_as_xyz
'x, y, z'
_cell_length_a     82.864263
_cell_length_b     82.962401
_cell_length_c     109.79501
_cell_angle_alpha  92.970597
_cell_angle_beta   93.707596
_cell_angle_gamma 119.78596
loop_
_atom_site_label
_atom_site_type_symbol
_atom_site_fract_x
_atom_site_fract_y
_atom_site_fract_z
_atom_type_partial_charge
C0 C 0.27164 0.17657 0.40135 0.0
C1 C 0.26837 0.18763 0.40982 0.0
C2 C 0.26284 0.20333 0.39324 0.0
C3 C 0.26398 0.20087 0.4058 0.0
C4 C 0.26685 0.19268 0.38488 0.0
C5 C 0.27116 0.1794 0.3889 0.0
U6 U 0.28529 0.15282 0.42573 0.0
O7 O 0.27134 0.12337 0.4293 0.0
O8 O 0.29998 0.13687 0.42407 0.0
C9 C 0.28525 0.12119 0.42623 0.0
C10 C 0.27457 0.1614 0.40523 0.0
C11 C 0.27994 0.10477 0.41759 0.0
C12 C 0.26133 0.08382 0.39952 0.0
C13 C 0.26756 0.10044 0.40699 0.0
C14 C 0.28037 0.07606 0.41291 0.0
C15 C 0.26746 0.07129 0.40249 0.0
C16 C 0.28652 0.09263 0.42037 0.0
C17 C 0.30075 0.17533 0.45886 0.0
C18 C 0.3093 0.16143 0.47521 0.0
C19 C 0.30665 0.18882 0.47995 0.0
C20 C 0.30192 0.18896 0.46752 0.0
C21 C 0.31034 0.17502 0.48399 0.0
C22 C 0.30452 0.16158 0.46275 0.0
C23 C 0.29499 0.17537 0.44591 0.0
O24 O 0.29198 0.16589 0.40837 0.0
O25 O 0.26289 0.15061 0.41269 0.0
O26 O 0.27758 0.16287 0.44204 0.0
O27 O 0.30685 0.17673 0.43807 0.0
H28 H 0.26873 0.18567 0.4195 0.0
H29 H 0.26083 0.20868 0.4125 0.0
H30 H 0.26644 0.19443 0.37518 0.0
H31 H 0.27376 0.17107 0.38224 0.0
H32 H 0.25158 0.08068 0.39149 0.0
H33 H 0.26239 0.10971 0.40466 0.0
H34 H 0.2852 0.06666 0.41558 0.0
H35 H 0.29604 0.09571 0.42853 0.0
H36 H 0.31224 0.15073 0.47796 0.0
H37 H 0.30699 0.1993 0.48643 0.0
H38 H 0.29892 0.1996 0.46468 0.0
H39 H 0.30364 0.15091 0.45617 0.0
C40 C 0.9226 0.17207 0.40686 0.0
C41 C 0.93372 0.18985 0.4132 0.0
C42 C 0.95692 0.19802 0.39845 0.0
C43 C 0.95074 0.20272 0.40903 0.0
C44 C 0.9456 0.18014 0.39218 0.0
C45 C 0.92867 0.16737 0.39633 0.0
U46 U 0.8854 0.15087 0.43003 0.0
O47 O 0.85467 0.1351 0.42603 0.0
O48 O 0.86938 0.12157 0.4339 0.0
C49 C 0.85334 0.11951 0.42932 0.0
C50 C 0.90474 0.15798 0.41094 0.0
C51 C 0.8414 0.10252 0.42092 0.0
C52 C 0.83736 0.07924 0.40473 0.0
C53 C 0.84876 0.09634 0.41181 0.0
C54 C 0.81103 0.07468 0.4155 0.0
C55 C 0.81839 0.06806 0.40661 0.0
C56 C 0.82242 0.0917 0.42257 0.0
C57 C 0.89128 0.17422 0.4623 0.0
C58 C 0.87055 0.15849 0.47781 0.0
C59 C 0.89561 0.19049 0.48238 0.0
C60 C 0.90096 0.19031 0.47056 0.0
C61 C 0.88045 0.17452 0.48623 0.0
C62 C 0.87592 0.15834 0.46596 0.0
C63 C 0.89778 0.17405 0.45011 0.0
O64 O 0.90596 0.14822 0.41964 0.0
O65 O 0.89212 0.16293 0.41238 0.0
O66 O 0.88773 0.17525 0.44082 0.0
O67 O 0.90272 0.1615 0.44778 0.0
H68 H 0.92928 0.19375 0.42136 0.0
H69 H 0.95896 0.21639 0.41404 0.0
H70 H 0.94997 0.17581 0.38417 0.0
H71 H 0.92033 0.15368 0.39134 0.0
H72 H 0.84345 0.0747 0.39786 0.0
H73 H 0.86338 0.10453 0.41035 0.0
H74 H 0.79659 0.06638 0.41733 0.0
H75 H 0.81649 0.0962 0.42958 0.0
H76 H 0.85894 0.14588 0.48046 0.0
H77 H 0.90337 0.20318 0.48851 0.0
H78 H 0.91281 0.20273 0.46789 0.0
H79 H 0.86828 0.14576 0.45972 0.0
C80 C 0.86636 0.77453 0.41546 0.0
C81 C 0.85344 0.77391 0.42337 0.0
C82 C 0.83806 0.78232 0.40718 0.0
C83 C 0.83941 0.77775 0.41926 0.0
C84 C 0.85088 0.78254 0.39928 0.0
C85 C 0.86485 0.77871 0.40338 0.0
U86 U 0.89246 0.75903 0.43829 0.0
O87 O 0.90797 0.74449 0.43427 0.0
O88 O 0.92268 0.77261 0.44394 0.0
C89 C 0.92416 0.75877 0.43885 0.0
C90 C 0.88186 0.77146 0.4196 0.0
C91 C 0.93992 0.76407 0.43137 0.0
C92 C 0.9556 0.77617 0.41317 0.0
C93 C 0.94012 0.77081 0.41987 0.0
C94 C 0.97068 0.76796 0.42933 0.0
C95 C 0.97118 0.77497 0.41787 0.0
C96 C 0.95525 0.7626 0.43599 0.0
C97 C 0.87167 0.73968 0.46843 0.0
C98 C 0.88769 0.73466 0.48595 0.0
C99 C 0.85482 0.72478 0.48565 0.0
C100 C 0.85512 0.73132 0.47413 0.0
C101 C 0.8711 0.72642 0.49178 0.0
C102 C 0.88796 0.74121 0.47438 0.0
C103 C 0.87157 0.7472 0.45653 0.0
O104 O 0.89296 0.78229 0.42924 0.0
O105 O 0.87774 0.75401 0.41981 0.0
O106 O 0.86942 0.73636 0.44667 0.0
O107 O 0.8842 0.76476 0.45592 0.0
H108 H 0.85438 0.77071 0.43274 0.0
H109 H 0.82991 0.77759 0.42564 0.0
H110 H 0.8501 0.78562 0.38987 0.0
H111 H 0.87463 0.77918 0.39712 0.0
H112 H 0.95554 0.78163 0.40442 0.0
H113 H 0.92842 0.77209 0.41616 0.0
H114 H 0.98222 0.76651 0.43317 0.0
H115 H 0.95533 0.75735 0.44481 0.0
H116 H 0.90045 0.73599 0.49032 0.0
H117 H 0.84187 0.71883 0.48988 0.0
H118 H 0.84241 0.73009 0.46972 0.0
H119 H 0.90089 0.74759 0.47012 0.0
C120 C 0.08841 0.24165 0.62475 0.0
C121 C 0.07344 0.23922 0.61658 0.0
C122 C 0.05403 0.23374 0.63349 0.0
C123 C 0.05641 0.23531 0.62092 0.0
C124 C 0.06929 0.23666 0.64162 0.0
C125 C 0.08625 0.24054 0.63729 0.0
U126 U 0.12573 0.25589 0.60163 0.0
O127 O 0.15641 0.27049 0.60563 0.0
O128 O 0.14137 0.24198 0.59655 0.0
C129 C 0.1575 0.25594 0.60151 0.0
C130 C 0.10612 0.24451 0.62049 0.0
C131 C 0.16911 0.25093 0.60942 0.0
C132 C 0.17328 0.23495 0.62628 0.0
C133 C 0.16215 0.2402 0.61929 0.0
C134 C 0.1985 0.2514 0.61372 0.0
C135 C 0.19159 0.2404 0.62353 0.0
C136 C 0.18738 0.25658 0.60676 0.0
C137 C 0.12002 0.27393 0.57091 0.0
C138 C 0.14036 0.27953 0.55467 0.0
C139 C 0.1158 0.28727 0.55258 0.0
C140 C 0.1105 0.28101 0.56404 0.0
C141 C 0.13077 0.28657 0.54769 0.0
C142 C 0.13505 0.27329 0.56618 0.0
C143 C 0.11378 0.26702 0.58284 0.0
O144 O 0.10464 0.23323 0.61107 0.0
O145 O 0.11931 0.26188 0.61994 0.0
O146 O 0.12394 0.27819 0.59263 0.0
O147 O 0.10879 0.24948 0.58389 0.0
H148 H 0.07482 0.24001 0.60686 0.0
H149 H 0.04495 0.23303 0.61437 0.0
H150 H 0.06816 0.23594 0.65137 0.0
H151 H 0.09765 0.24244 0.64375 0.0
H152 H 0.16757 0.22666 0.63384 0.0
H153 H 0.14808 0.23574 0.62151 0.0
H154 H 0.21238 0.25563 0.61121 0.0
H155 H 0.19298 0.26481 0.59915 0.0
H156 H 0.15208 0.27897 0.55129 0.0
H157 H 0.10791 0.29233 0.54743 0.0
H158 H 0.09882 0.28156 0.56752 0.0
H159 H 0.14262 0.26792 0.57136 0.0
C160 C 0.74397 0.84248 0.64117 0.0
C161 C 0.73684 0.82536 0.63405 0.0
C162 C 0.75295 0.81556 0.64868 0.0
C163 C 0.74125 0.81199 0.63779 0.0
C164 C 0.75974 0.83265 0.65587 0.0
C165 C 0.75528 0.84595 0.65213 0.0
U166 U 0.72886 0.86393 0.61609 0.0
O167 O 0.71392 0.87966 0.61703 0.0
O168 O 0.74234 0.89292 0.61145 0.0
C169 C 0.72831 0.8951 0.61423 0.0
C170 C 0.74067 0.85725 0.63697 0.0
C171 C 0.73356 0.9122 0.6221 0.0
C172 C 0.74667 0.93163 0.64149 0.0
C173 C 0.74054 0.91464 0.63445 0.0
C174 C 0.73857 0.94368 0.62392 0.0
C175 C 0.74594 0.94645 0.63626 0.0
C176 C 0.73244 0.92674 0.61694 0.0
C177 C 0.71284 0.83935 0.5836 0.0
C178 C 0.70834 0.85438 0.56631 0.0
C179 C 0.7033 0.82302 0.56314 0.0
C180 C 0.70784 0.82343 0.57569 0.0
C181 C 0.70371 0.83857 0.55826 0.0
C182 C 0.71288 0.85476 0.57888 0.0
C183 C 0.71886 0.84 0.59661 0.0
O184 O 0.75193 0.86745 0.62912 0.0
O185 O 0.72312 0.85246 0.63397 0.0
O186 O 0.70716 0.83912 0.60444 0.0
O187 O 0.73629 0.85273 0.60021 0.0
H188 H 0.72813 0.82246 0.62551 0.0
H189 H 0.73558 0.79891 0.63211 0.0
H190 H 0.769 0.83603 0.66419 0.0
H191 H 0.76102 0.85916 0.65769 0.0
H192 H 0.75206 0.93318 0.65098 0.0
H193 H 0.74153 0.90353 0.63858 0.0
H194 H 0.73809 0.95482 0.6195 0.0
H195 H 0.7272 0.92513 0.60739 0.0
H196 H 0.70897 0.86665 0.56287 0.0
H197 H 0.69951 0.81052 0.55725 0.0
H198 H 0.70771 0.8114 0.57919 0.0
H199 H 0.71678 0.86721 0.58487 0.0
C200 C 0.09134 0.8421 0.62894 0.0
C201 C 0.07817 0.82659 0.621 0.0
C202 C 0.05632 0.81661 0.63668 0.0
C203 C 0.06081 0.8139 0.62486 0.0
C204 C 0.06981 0.83198 0.64463 0.0
C205 C 0.08709 0.84456 0.64079 0.0
U206 U 0.12924 0.86406 0.60626 0.0
O207 O 0.14525 0.89348 0.60266 0.0
O208 O 0.15991 0.88 0.61066 0.0
C209 C 0.16122 0.89562 0.60746 0.0
C210 C 0.10928 0.8564 0.62507 0.0
C211 C 0.17296 0.91254 0.61599 0.0
C212 C 0.17656 0.93717 0.63091 0.0
C213 C 0.16512 0.92011 0.6238 0.0
C214 C 0.20384 0.93893 0.62284 0.0
C215 C 0.19606 0.94694 0.63038 0.0
C216 C 0.19241 0.92195 0.61572 0.0
C217 C 0.12451 0.84115 0.57397 0.0
C218 C 0.14321 0.8576 0.55777 0.0
C219 C 0.12299 0.82406 0.55483 0.0
C220 C 0.11738 0.82429 0.56657 0.0
C221 C 0.13583 0.84073 0.55021 0.0
C222 C 0.13765 0.8578 0.56955 0.0
C223 C 0.11766 0.84117 0.58607 0.0
O224 O 0.12208 0.85164 0.6238 0.0
O225 O 0.1082 0.86621 0.61637 0.0
O226 O 0.11246 0.85354 0.58833 0.0
O227 O 0.12749 0.83993 0.59549 0.0
H228 H 0.08119 0.82447 0.61179 0.0
H229 H 0.05073 0.8023 0.61847 0.0
H230 H 0.06703 0.83435 0.65386 0.0
H231 H 0.09709 0.8564 0.64707 0.0
H232 H 0.17013 0.94279 0.63674 0.0
H233 H 0.15015 0.91305 0.62422 0.0
H234 H 0.21874 0.94612 0.62208 0.0
H235 H 0.19874 0.91639 0.60972 0.0
H236 H 0.15332 0.87066 0.5546 0.0
H237 H 0.11685 0.81084 0.54924 0.0
H238 H 0.10722 0.81129 0.5698 0.0
H239 H 0.14343 0.87098 0.57515 0.0
C240 C 0.93968 0.51029 0.73458 0.0
C241 C 0.938 0.52238 0.74315 0.0
C242 C 0.93051 0.53684 0.72659 0.0
C243 C 0.93344 0.53554 0.73919 0.0
C244 C 0.93294 0.52513 0.71807 0.0
C245 C 0.93744 0.51197 0.72204 0.0
U246 U 0.95331 0.4867 0.75906 0.0
O247 O 0.93904 0.45728 0.76278 0.0
O248 O 0.96765 0.47042 0.75753 0.0
C249 C 0.95289 0.45491 0.75986 0.0
C250 C 0.94257 0.49513 0.7385 0.0
C251 C 0.9475 0.43823 0.75148 0.0
C252 C 0.93189 0.41872 0.73236 0.0
C253 C 0.93809 0.4354 0.73978 0.0
C254 C 0.94486 0.40783 0.74816 0.0
C255 C 0.93503 0.40463 0.73652 0.0
C256 C 0.95102 0.42445 0.75554 0.0
C257 C 0.96921 0.50913 0.7922 0.0
C258 C 0.96515 0.49315 0.8107 0.0
C259 C 0.9881 0.52601 0.81134 0.0
C260 C 0.98322 0.52567 0.79884 0.0
C261 C 0.97892 0.50981 0.81745 0.0
C262 C 0.96041 0.49278 0.79819 0.0
C263 C 0.96349 0.50937 0.77921 0.0
O264 O 0.95997 0.49955 0.74163 0.0
O265 O 0.93092 0.48452 0.74604 0.0
O266 O 0.94596 0.49735 0.77524 0.0
O267 O 0.97526 0.51056 0.77135 0.0
H268 H 0.93968 0.52128 0.75289 0.0
H269 H 0.93152 0.54419 0.746 0.0
H270 H 0.93113 0.52597 0.70831 0.0
H271 H 0.93877 0.5028 0.7153 0.0
H272 H 0.92454 0.41682 0.7234 0.0
H273 H 0.93526 0.44594 0.7365 0.0
H274 H 0.94727 0.39722 0.75177 0.0
H275 H 0.95819 0.42636 0.76457 0.0
H276 H 0.95802 0.48038 0.81511 0.0
H277 H 0.99867 0.53908 0.8163 0.0
H278 H 0.99019 0.53843 0.7944 0.0
H279 H 0.94968 0.47977 0.79324 0.0
C280 C 0.59009 0.50682 0.74004 0.0
C281 C 0.60077 0.52496 0.74596 0.0
C282 C 0.6242 0.53278 0.73142 0.0
C283 C 0.61767 0.53784 0.74168 0.0
C284 C 0.6133 0.51456 0.72556 0.0
C285 C 0.59647 0.50179 0.72982 0.0
U286 U 0.5535 0.48571 0.7636 0.0
O287 O 0.52285 0.46884 0.75994 0.0
O288 O 0.53865 0.45657 0.76807 0.0
C289 C 0.52225 0.45375 0.76364 0.0
C290 C 0.57249 0.49264 0.74436 0.0
C291 C 0.51034 0.43615 0.75583 0.0
C292 C 0.49882 0.41777 0.73597 0.0
C293 C 0.51051 0.43484 0.74303 0.0
C294 C 0.48689 0.40324 0.75443 0.0
C295 C 0.4868 0.40175 0.74159 0.0
C296 C 0.4985 0.42024 0.76144 0.0
C297 C 0.5584 0.50887 0.79559 0.0
C298 C 0.54275 0.49184 0.81261 0.0
C299 C 0.55658 0.52542 0.81395 0.0
C300 C 0.56231 0.52555 0.8022 0.0
C301 C 0.54693 0.50858 0.81937 0.0
C302 C 0.54833 0.49197 0.80083 0.0
C303 C 0.56523 0.50929 0.78343 0.0
O304 O 0.57424 0.48341 0.75323 0.0
O305 O 0.55954 0.49716 0.74571 0.0
O306 O 0.55484 0.50988 0.77408 0.0
O307 O 0.57125 0.49758 0.78111 0.0
H308 H 0.59609 0.52912 0.7539 0.0
H309 H 0.62557 0.55177 0.74636 0.0
H310 H 0.61795 0.50996 0.71781 0.0
H311 H 0.58849 0.48782 0.72516 0.0
H312 H 0.49904 0.41716 0.72611 0.0
H313 H 0.51961 0.44699 0.73853 0.0
H314 H 0.47816 0.39118 0.75912 0.0
H315 H 0.49826 0.42094 0.7713 0.0
H316 H 0.53511 0.47861 0.81642 0.0
H317 H 0.56014 0.53857 0.81893 0.0
H318 H 0.57002 0.53874 0.79833 0.0
H319 H 0.54496 0.47887 0.79586 0.0
C320 C 0.53038 0.10478 0.74791 0.0
C321 C 0.52273 0.11174 0.75634 0.0
C322 C 0.5016 0.11207 0.73987 0.0
C323 C 0.50853 0.11538 0.75236 0.0
C324 C 0.50896 0.10456 0.73155 0.0
C325 C 0.5232 0.10102 0.73553 0.0
U326 U 0.5587 0.09195 0.77071 0.0
O327 O 0.57442 0.07748 0.76714 0.0
O328 O 0.58909 0.10626 0.77575 0.0
C329 C 0.59062 0.09218 0.7712 0.0
C330 C 0.54639 0.10223 0.75165 0.0
C331 C 0.60613 0.09698 0.76357 0.0
C332 C 0.62209 0.10953 0.74555 0.0
C333 C 0.60661 0.10424 0.75224 0.0
C334 C 0.63655 0.10014 0.76138 0.0
C335 C 0.63738 0.10777 0.75012 0.0
C336 C 0.62111 0.09483 0.76801 0.0
C337 C 0.54041 0.07633 0.80216 0.0
C338 C 0.54535 0.05701 0.81622 0.0
C339 C 0.53554 0.07842 0.82367 0.0
C340 C 0.53554 0.0841 0.8119 0.0
C341 C 0.54035 0.06474 0.826 0.0
C342 C 0.54545 0.06279 0.80442 0.0
C343 C 0.53931 0.08217 0.78975 0.0
O344 O 0.55844 0.11403 0.76063 0.0
O345 O 0.54261 0.08497 0.7525 0.0
O346 O 0.53667 0.07037 0.78032 0.0
O347 O 0.5514 0.09957 0.78821 0.0
H348 H 0.52799 0.11472 0.76596 0.0
H349 H 0.5034 0.12131 0.75904 0.0
H350 H 0.50376 0.10145 0.72192 0.0
H351 H 0.52883 0.09558 0.72887 0.0
H352 H 0.62231 0.11545 0.73696 0.0
H353 H 0.59517 0.10604 0.74867 0.0
H354 H 0.64786 0.09825 0.76509 0.0
H355 H 0.62098 0.08921 0.77672 0.0
H356 H 0.54929 0.04656 0.81771 0.0
H357 H 0.53131 0.08447 0.8309 0.0
H358 H 0.53148 0.09445 0.81038 0.0
H359 H 0.54931 0.05659 0.79707 0.0
C360 C 0.75507 0.57485 0.95769 0.0
C361 C 0.74477 0.58234 0.95225 0.0
C362 C 0.72101 0.56804 0.96649 0.0
C363 C 0.72788 0.57897 0.95661 0.0
C364 C 0.73147 0.56057 0.97183 0.0
C365 C 0.74827 0.56397 0.96748 0.0
U366 U 0.79266 0.5898 0.93467 0.0
O367 O 0.82336 0.60465 0.93877 0.0
O368 O 0.80858 0.57619 0.9296 0.0
C369 C 0.82465 0.59026 0.93454 0.0
C370 C 0.77292 0.57808 0.95346 0.0
C371 C 0.83666 0.58545 0.94222 0.0
C372 C 0.84129 0.56813 0.95802 0.0
C373 C 0.82978 0.5734 0.95149 0.0
C374 C 0.86674 0.58722 0.94628 0.0
C375 C 0.85986 0.57476 0.95536 0.0
C376 C 0.85526 0.59247 0.9398 0.0
C377 C 0.78664 0.6075 0.90384 0.0
C378 C 0.80868 0.61599 0.88844 0.0
C379 C 0.78064 0.61796 0.88465 0.0
C380 C 0.77536 0.61169 0.89612 0.0
C381 C 0.79737 0.6202 0.88062 0.0
C382 C 0.80337 0.60972 0.89995 0.0
C383 C 0.7805 0.60062 0.91579 0.0
O384 O 0.77165 0.56688 0.94407 0.0
O385 O 0.7859 0.59553 0.95289 0.0
O386 O 0.79057 0.61187 0.92558 0.0
O387 O 0.77573 0.58315 0.91688 0.0
H388 H 0.74978 0.59081 0.94467 0.0
H389 H 0.72034 0.58509 0.95233 0.0
H390 H 0.72653 0.55181 0.97927 0.0
H391 H 0.75597 0.55799 0.97178 0.0
H392 H 0.83548 0.55844 0.96489 0.0
H393 H 0.81544 0.56782 0.95351 0.0
H394 H 0.88102 0.59289 0.94413 0.0
H395 H 0.86087 0.60184 0.93272 0.0
H396 H 0.82175 0.61773 0.88573 0.0
H397 H 0.77141 0.62075 0.87885 0.0
H398 H 0.76235 0.60999 0.89893 0.0
H399 H 0.81229 0.60657 0.90579 0.0
C400 C 0.40942 0.17511 0.97435 0.0
C401 C 0.4005 0.15716 0.96811 0.0
C402 C 0.41873 0.14832 0.98169 0.0
C403 C 0.40505 0.14385 0.97177 0.0
C404 C 0.42737 0.16629 0.98799 0.0
C405 C 0.42273 0.17951 0.98437 0.0
U406 U 0.39343 0.19654 0.94962 0.0
O407 O 0.37848 0.21225 0.95112 0.0
O408 O 0.40666 0.22559 0.94514 0.0
C409 C 0.39281 0.22777 0.94836 0.0
C410 C 0.40582 0.18975 0.97023 0.0
C411 C 0.39841 0.24465 0.95661 0.0
C412 C 0.41544 0.26499 0.97522 0.0
C413 C 0.40882 0.24806 0.968 0.0
C414 C 0.40083 0.27498 0.95987 0.0
C415 C 0.41175 0.27879 0.97116 0.0
C416 C 0.39424 0.25808 0.95269 0.0
C417 C 0.3767 0.1717 0.91705 0.0
C418 C 0.36838 0.18477 0.90006 0.0
C419 C 0.36969 0.15642 0.89636 0.0
C420 C 0.37468 0.15714 0.90887 0.0
C421 C 0.3666 0.1703 0.89176 0.0
C422 C 0.37341 0.18547 0.91259 0.0
C423 C 0.38309 0.17272 0.93003 0.0
O424 O 0.41684 0.20002 0.9623 0.0
O425 O 0.38821 0.18488 0.96746 0.0
O426 O 0.37157 0.1718 0.93802 0.0
O427 O 0.40053 0.1856 0.93343 0.0
H428 H 0.39022 0.15351 0.96031 0.0
H429 H 0.39793 0.13011 0.9668 0.0
H430 H 0.43819 0.1704 0.99551 0.0
H431 H 0.42986 0.19334 0.98924 0.0
H432 H 0.42359 0.26734 0.98392 0.0
H433 H 0.41215 0.2378 0.97119 0.0
H434 H 0.39793 0.28532 0.95634 0.0
H435 H 0.3863 0.25571 0.9439 0.0
H436 H 0.3659 0.19556 0.89687 0.0
H437 H 0.36876 0.14525 0.89026 0.0
H438 H 0.37731 0.14646 0.91214 0.0
H439 H 0.37494 0.19686 0.91879 0.0
C440 C 0.75672 0.17424 0.96226 0.0
C441 C 0.74415 0.15813 0.95456 0.0
C442 C 0.7221 0.14796 0.97013 0.0
C443 C 0.72698 0.1451 0.95846 0.0
C444 C 0.7349 0.16412 0.97778 0.0
C445 C 0.75198 0.17706 0.97388 0.0
U446 U 0.79448 0.19627 0.93956 0.0
O447 O 0.81061 0.22572 0.93602 0.0
O448 O 0.82517 0.21202 0.94386 0.0
C449 C 0.82657 0.2277 0.94071 0.0
C450 C 0.77464 0.1886 0.95842 0.0
C451 C 0.83859 0.24462 0.94918 0.0
C452 C 0.84282 0.26968 0.96397 0.0
C453 C 0.83109 0.25253 0.95703 0.0
C454 C 0.8697 0.2708 0.9557 0.0
C455 C 0.86226 0.27924 0.96319 0.0
C456 C 0.85799 0.25372 0.94877 0.0
C457 C 0.78954 0.17341 0.90719 0.0
C458 C 0.80651 0.18971 0.89034 0.0
C459 C 0.78936 0.15594 0.88862 0.0
C460 C 0.7839 0.15636 0.90039 0.0
C461 C 0.80056 0.17261 0.88335 0.0
C462 C 0.80109 0.1901 0.90214 0.0
C463 C 0.78276 0.17346 0.91932 0.0
O464 O 0.78743 0.18385 0.95709 0.0
O465 O 0.77353 0.19846 0.94975 0.0
O466 O 0.77761 0.18587 0.92166 0.0
O467 O 0.79255 0.17209 0.92871 0.0
H468 H 0.74757 0.15571 0.94554 0.0
H469 H 0.71758 0.13276 0.95237 0.0
H470 H 0.73157 0.16703 0.98671 0.0
H471 H 0.76144 0.18945 0.97993 0.0
H472 H 0.83658 0.27578 0.96958 0.0
H473 H 0.81614 0.24573 0.95753 0.0
H474 H 0.88461 0.27754 0.95504 0.0
H475 H 0.86408 0.24783 0.94282 0.0
H476 H 0.81496 0.20283 0.88658 0.0
H477 H 0.78479 0.14251 0.88366 0.0
H478 H 0.77508 0.14332 0.90414 0.0
H479 H 0.80568 0.20345 0.90724 0.0
C480 C 0.60565 0.84374 0.06903 0.0
C481 C 0.60712 0.85717 0.07804 0.0
C482 C 0.59714 0.87139 0.06259 0.0
C483 C 0.6029 0.87088 0.07485 0.0
C484 C 0.59624 0.85819 0.05357 0.0
C485 C 0.60043 0.84449 0.05678 0.0
U486 U 0.61962 0.81937 0.09254 0.0
O487 O 0.60556 0.78984 0.09595 0.0
O488 O 0.63404 0.80324 0.09043 0.0
C489 C 0.61935 0.78759 0.09266 0.0
C490 C 0.60846 0.82832 0.07237 0.0
C491 C 0.61385 0.77118 0.08397 0.0
C492 C 0.59507 0.75032 0.06591 0.0
C493 C 0.60131 0.76688 0.07346 0.0
C494 C 0.61437 0.74258 0.07906 0.0
C495 C 0.60135 0.73784 0.06871 0.0
C496 C 0.62053 0.75907 0.0866 0.0
C497 C 0.63609 0.84145 0.12579 0.0
C498 C 0.63313 0.82515 0.14404 0.0
C499 C 0.65416 0.85854 0.14509 0.0
C500 C 0.64922 0.85823 0.13262 0.0
C501 C 0.64595 0.84205 0.151 0.0
C502 C 0.62831 0.82484 0.13154 0.0
C503 C 0.63009 0.8417 0.11288 0.0
O504 O 0.62588 0.8326 0.07524 0.0
O505 O 0.59697 0.81747 0.0799 0.0
O506 O 0.61254 0.82958 0.10904 0.0
O507 O 0.64172 0.84306 0.10486 0.0
H508 H 0.61118 0.85681 0.08756 0.0
H509 H 0.60399 0.88097 0.08199 0.0
H510 H 0.59164 0.85801 0.04408 0.0
H511 H 0.59916 0.83418 0.04972 0.0
H512 H 0.58523 0.7472 0.05794 0.0
H513 H 0.59606 0.77612 0.07125 0.0
H514 H 0.6193 0.73321 0.08161 0.0
H515 H 0.63017 0.76214 0.09469 0.0
H516 H 0.62676 0.81218 0.14829 0.0
H517 H 0.66397 0.87178 0.15021 0.0
H518 H 0.65538 0.87119 0.12835 0.0
H519 H 0.61827 0.81167 0.12643 0.0
C520 C 0.25576 0.83874 0.07327 0.0
C521 C 0.2705 0.85272 0.08137 0.0
C522 C 0.29021 0.86363 0.06456 0.0
C523 C 0.28756 0.86509 0.07704 0.0
C524 C 0.27517 0.84987 0.05648 0.0
C525 C 0.25817 0.83759 0.0608 0.0
U526 U 0.21959 0.81782 0.09705 0.0
O527 O 0.18883 0.80169 0.09365 0.0
O528 O 0.20414 0.78869 0.1014 0.0
C529 C 0.18782 0.78639 0.09726 0.0
C530 C 0.23813 0.82456 0.07759 0.0
C531 C 0.17531 0.76888 0.08952 0.0
C532 C 0.16811 0.74723 0.07145 0.0
C533 C 0.17978 0.76469 0.0781 0.0
C534 C 0.14734 0.73827 0.08747 0.0
C535 C 0.15191 0.73368 0.07618 0.0
C536 C 0.15892 0.75565 0.09405 0.0
C537 C 0.22632 0.84176 0.1292 0.0
C538 C 0.20263 0.82922 0.14349 0.0
C539 C 0.2338 0.85447 0.1506 0.0
C540 C 0.23912 0.85444 0.13875 0.0
C541 C 0.21551 0.84179 0.15316 0.0
C542 C 0.20801 0.82916 0.13164 0.0
C543 C 0.2325 0.84148 0.11691 0.0
O544 O 0.23978 0.81509 0.08634 0.0
O545 O 0.2254 0.82933 0.07914 0.0
O546 O 0.2221 0.84236 0.10769 0.0
O547 O 0.2376 0.82907 0.11455 0.0
H548 H 0.26893 0.85383 0.09105 0.0
H549 H 0.29885 0.87541 0.08354 0.0
H550 H 0.27653 0.84853 0.04679 0.0
H551 H 0.24696 0.82694 0.0544 0.0
H552 H 0.17206 0.74412 0.06281 0.0
H553 H 0.19243 0.77475 0.07446 0.0
H554 H 0.13482 0.72833 0.09129 0.0
H555 H 0.15521 0.75865 0.10283 0.0
H556 H 0.1885 0.81914 0.14514 0.0
H557 H 0.24401 0.86451 0.15775 0.0
H558 H 0.25332 0.86427 0.13707 0.0
H559 H 0.19794 0.81915 0.12441 0.0
C560 C 0.20007 0.44236 0.08249 0.0
C561 C 0.18281 0.43369 0.08741 0.0
C562 C 0.17113 0.44914 0.074 0.0
C563 C 0.16847 0.43705 0.0832 0.0
C564 C 0.18856 0.45787 0.06922 0.0
C565 C 0.20281 0.45449 0.07341 0.0
U566 U 0.22614 0.42635 0.10501 0.0
O567 O 0.24096 0.41116 0.1007 0.0
O568 O 0.25641 0.43939 0.1102 0.0
C569 C 0.2574 0.42533 0.10498 0.0
C570 C 0.2154 0.43896 0.08648 0.0
C571 C 0.27268 0.43021 0.09711 0.0
C572 C 0.29103 0.4473 0.08095 0.0
C573 C 0.27583 0.44223 0.08787 0.0
C574 C 0.29987 0.42812 0.09227 0.0
C575 C 0.30335 0.44039 0.08311 0.0
C576 C 0.28473 0.42312 0.09917 0.0
C577 C 0.20587 0.40759 0.13544 0.0
C578 C 0.22178 0.40226 0.15288 0.0
C579 C 0.18903 0.39283 0.15269 0.0
C580 C 0.18937 0.39944 0.14119 0.0
C581 C 0.20524 0.3942 0.15875 0.0
C582 C 0.22209 0.40887 0.14132 0.0
C583 C 0.20578 0.41512 0.12354 0.0
O584 O 0.22686 0.4498 0.09599 0.0
O585 O 0.21101 0.42142 0.08673 0.0
O586 O 0.20312 0.4041 0.11366 0.0
O587 O 0.21869 0.43255 0.12283 0.0
H588 H 0.1804 0.42427 0.09444 0.0
H589 H 0.15522 0.42995 0.08703 0.0
H590 H 0.19132 0.46753 0.06232 0.0
H591 H 0.21605 0.46138 0.06953 0.0
H592 H 0.29311 0.45659 0.07388 0.0
H593 H 0.26664 0.44783 0.08609 0.0
H594 H 0.30915 0.42272 0.09434 0.0
H595 H 0.2826 0.41387 0.10629 0.0
H596 H 0.23447 0.40338 0.15718 0.0
H597 H 0.17612 0.38703 0.15696 0.0
H598 H 0.17673 0.3984 0.13684 0.0
H599 H 0.23498 0.41509 0.13702 0.0
C600 C 0.42177 0.90855 0.2916 0.0
C601 C 0.40721 0.90726 0.28354 0.0
C602 C 0.38745 0.90096 0.30032 0.0
C603 C 0.39021 0.90351 0.28787 0.0
C604 C 0.40232 0.90277 0.30836 0.0
C605 C 0.41925 0.9065 0.30404 0.0
U606 U 0.459 0.92264 0.26845 0.0
O607 O 0.48958 0.93617 0.27229 0.0
O608 O 0.47372 0.90795 0.26275 0.0
C609 C 0.4901 0.92148 0.26772 0.0
C610 C 0.43933 0.91108 0.28727 0.0
C611 C 0.50173 0.91578 0.27498 0.0
C612 C 0.51376 0.91065 0.29436 0.0
C613 C 0.50205 0.91565 0.28779 0.0
C614 C 0.52473 0.90567 0.27539 0.0
C615 C 0.52536 0.90571 0.28824 0.0
C616 C 0.51308 0.91066 0.26887 0.0
C617 C 0.45408 0.94196 0.23812 0.0
C618 C 0.46984 0.94249 0.22003 0.0
C619 C 0.45379 0.96009 0.22145 0.0
C620 C 0.44876 0.95396 0.23299 0.0
C621 C 0.46423 0.95428 0.21473 0.0
C622 C 0.46484 0.93642 0.23161 0.0
C623 C 0.44772 0.93496 0.25003 0.0
O624 O 0.43754 0.89996 0.27767 0.0
O625 O 0.45288 0.92836 0.28693 0.0
O626 O 0.45815 0.94574 0.25988 0.0
O627 O 0.44195 0.91721 0.2509 0.0
H628 H 0.40886 0.90879 0.27389 0.0
H629 H 0.37906 0.90209 0.28138 0.0
H630 H 0.4009 0.90128 0.31804 0.0
H631 H 0.43032 0.90751 0.31042 0.0
H632 H 0.51396 0.91096 0.30424 0.0
H633 H 0.49338 0.91954 0.2927 0.0
H634 H 0.53313 0.90161 0.27032 0.0
H635 H 0.51298 0.91059 0.25899 0.0
H636 H 0.47772 0.93756 0.21513 0.0
H637 H 0.44951 0.96943 0.21782 0.0
H638 H 0.44053 0.95849 0.23787 0.0
H639 H 0.46915 0.92718 0.2354 0.0
C640 C 0.076 0.50846 0.30765 0.0
C641 C 0.07268 0.4935 0.2993 0.0
C642 C 0.08502 0.48149 0.31495 0.0
C643 C 0.07713 0.48012 0.30291 0.0
C644 C 0.08781 0.49627 0.32336 0.0
C645 C 0.08335 0.50963 0.31973 0.0
U646 U 0.06209 0.53097 0.28279 0.0
O647 O 0.0472 0.54678 0.28366 0.0
O648 O 0.07589 0.56015 0.27855 0.0
C649 C 0.06181 0.56232 0.28119 0.0
C650 C 0.07296 0.5235 0.3037 0.0
C651 C 0.06692 0.57919 0.28929 0.0
C652 C 0.08088 0.59852 0.30864 0.0
C653 C 0.07469 0.58165 0.30145 0.0
C654 C 0.07119 0.61037 0.29166 0.0
C655 C 0.07942 0.61319 0.30378 0.0
C656 C 0.06501 0.59354 0.28451 0.0
C657 C 0.04738 0.5071 0.25001 0.0
C658 C 0.03765 0.5194 0.23321 0.0
C659 C 0.04411 0.49432 0.229 0.0
C660 C 0.04831 0.49443 0.24155 0.0
C661 C 0.03888 0.5069 0.22466 0.0
C662 C 0.04195 0.51956 0.24578 0.0
C663 C 0.05289 0.50761 0.26309 0.0
O664 O 0.0846 0.53407 0.29615 0.0
O665 O 0.05551 0.51879 0.30042 0.0
O666 O 0.04085 0.50649 0.27072 0.0
O667 O 0.07022 0.52032 0.26698 0.0
H668 H 0.067 0.49239 0.28992 0.0
H669 H 0.07455 0.46879 0.29625 0.0
H670 H 0.09406 0.49792 0.33264 0.0
H671 H 0.08609 0.52115 0.32628 0.0
H672 H 0.08693 0.60011 0.31798 0.0
H673 H 0.07629 0.57069 0.30528 0.0
H674 H 0.07011 0.6214 0.28751 0.0
H675 H 0.05915 0.59191 0.27511 0.0
H676 H 0.03384 0.52938 0.23015 0.0
H677 H 0.04494 0.48434 0.22269 0.0
H678 H 0.05249 0.48472 0.24466 0.0
H679 H 0.0413 0.52955 0.25219 0.0
C680 C 0.42399 0.50579 0.29565 0.0
C681 C 0.40821 0.4951 0.28713 0.0
C682 C 0.38923 0.48016 0.30369 0.0
C683 C 0.391 0.48239 0.29112 0.0
C684 C 0.40528 0.49046 0.3121 0.0
C685 C 0.42242 0.50312 0.30812 0.0
U686 U 0.46148 0.52935 0.27303 0.0
O687 O 0.47705 0.55896 0.26979 0.0
O688 O 0.49219 0.54552 0.27711 0.0
C689 C 0.49321 0.56116 0.27421 0.0
C690 C 0.44184 0.52066 0.29199 0.0
C691 C 0.50502 0.5779 0.28285 0.0
C692 C 0.50892 0.60034 0.29962 0.0
C693 C 0.49761 0.58351 0.29224 0.0
C694 C 0.53523 0.60583 0.28852 0.0
C695 C 0.52785 0.61185 0.29775 0.0
C696 C 0.52394 0.58906 0.28117 0.0
C697 C 0.45573 0.50682 0.24034 0.0
C698 C 0.47903 0.52014 0.22586 0.0
C699 C 0.44863 0.4933 0.21915 0.0
C700 C 0.44333 0.49335 0.23099 0.0
C701 C 0.46651 0.50676 0.21638 0.0
C702 C 0.47366 0.5202 0.23773 0.0
C703 C 0.44947 0.50684 0.25263 0.0
O704 O 0.45491 0.51638 0.29045 0.0
O705 O 0.44058 0.53087 0.28362 0.0
O706 O 0.44435 0.51919 0.25518 0.0
O707 O 0.4597 0.50561 0.26181 0.0
H708 H 0.40908 0.49692 0.27745 0.0
H709 H 0.37894 0.4748 0.28438 0.0
H710 H 0.40457 0.48888 0.32182 0.0
H711 H 0.43442 0.51118 0.31485 0.0
H712 H 0.50281 0.60439 0.30674 0.0
H713 H 0.48302 0.57505 0.29372 0.0
H714 H 0.54962 0.61439 0.28665 0.0
H715 H 0.5299 0.58503 0.27394 0.0
H716 H 0.49282 0.53081 0.22405 0.0
H717 H 0.43873 0.48261 0.21217 0.0
H718 H 0.42945 0.48288 0.23283 0.0
H719 H 0.48342 0.53078 0.24482 0.0
Tb720 Tb 0.50164 0.99819 1.00519 0.0
Eu721 Eu 0.51318 0.01771 0.03402 0.0
C722 C 0.51773 0.98349 0.02581 0.0
C723 C 0.47216 0.98318 0.02449 0.0
C724 C 0.49986 0.99111 0.9709 0.0
C725 C 0.5095 0.98742 0.95095 0.0
C726 C 0.50472 0.98131 0.96251 0.0
C727 C 0.5 1.00729 0.96755 0.0
C728 C 0.50468 0.01337 0.95593 0.0
C729 C 0.50945 1.00349 0.94744 0.0
C730 C 0.49502 0.98427 0.98307 0.0
O731 O 0.49039 0.01697 1.00638 0.0
O732 O 0.50872 0.03759 0.02305 0.0
O733 O 0.53969 0.02998 0.0245 0.0
O734 O 0.52654 0.02526 1.00465 0.0
C735 C 0.49674 0.03284 1.01323 0.0
O736 O 0.50832 0.03106 0.04998 0.0
O737 O 0.53122 0.02544 0.05122 0.0
O738 O 0.51077 0.98955 0.03404 0.0
O739 O 0.519 0.98886 1.01471 0.0
O740 O 0.47909 0.97856 1.01533 0.0
O741 O 0.48198 0.99913 0.03132 0.0
C742 C 0.5412 0.0332 1.01289 0.0
O743 O 0.50883 0.98634 0.99061 0.0
O744 O 0.48384 0.98822 0.98866 0.0
C745 C 0.51605 0.02358 0.06933 0.0
C746 C 0.50684 0.01125 0.09286 0.0
C747 C 0.50361 0.02521 0.0886 0.0
C748 C 0.50822 0.03134 0.077 0.0
C749 C 0.51912 0.00948 0.0735 0.0
C750 C 0.51462 1.00343 0.08515 0.0
C751 C 0.52124 0.0307 0.05721 0.0
H752 H 0.51342 0.97961 0.9448 0.0
H753 H 0.50488 0.96889 0.96494 0.0
H754 H 0.49643 0.0152 0.97388 0.0
H755 H 0.50426 0.02567 0.95355 0.0
H756 H 0.49785 0.0317 0.09433 0.0
H757 H 0.5058 0.04229 0.07405 0.0
H758 H 0.52506 1.00313 0.06781 0.0
H759 H 0.5171 0.99251 0.08807 0.0
Tb760 Tb 0.01586 0.50811 1.00724 0.0
Eu761 Eu 0.99882 0.50346 0.03415 0.0
C762 C 0.03203 0.54195 0.02764 0.0
C763 C 0.0342 0.49796 0.02962 0.0
C764 C 0.02256 0.51347 0.97358 0.0
C765 C 0.03256 0.52991 0.95534 0.0
C766 C 0.03603 0.52816 0.96771 0.0
C767 C 1.00529 0.50082 0.96689 0.0
C768 C 1.00187 0.50248 0.95451 0.0
C769 C 0.01557 0.51687 0.94849 0.0
C770 C 0.0274 0.51056 0.98619 0.0
O771 O 1.00005 0.47849 1.00987 0.0
O772 O 0.97811 0.47884 0.02112 0.0
O773 O 0.98575 0.51678 0.02285 0.0
O774 O 0.98985 0.50844 1.00345 0.0
C775 C 0.98329 0.46993 1.01357 0.0
O776 O 0.9847 0.48573 0.04848 0.0
O777 O 0.9923 0.51488 0.05022 0.0
O778 O 0.0264 0.53022 0.03609 0.0
O779 O 0.0259 0.53619 1.016 0.0
O780 O 0.03677 0.50674 0.01962 0.0
O781 O 0.01936 0.4931 0.03554 0.0
C782 C 0.98206 0.51494 1.01085 0.0
O783 O 0.03392 0.52459 0.99459 0.0
O784 O 0.01574 0.495 0.99039 0.0
C785 C 0.99082 0.50055 0.06859 0.0
C786 C 1.0003 0.5029 0.09407 0.0
C787 C 0.9816 0.49208 0.08889 0.0
C788 C 0.97694 0.49095 0.0763 0.0
C789 C 0.00956 0.51119 0.07361 0.0
C790 C 0.01426 0.51235 0.08625 0.0
C791 C 0.98528 0.4993 0.0554 0.0
H792 H 0.04332 0.54138 0.95111 0.0
H793 H 0.04947 0.53807 0.97263 0.0
H794 H 0.99459 0.48927 0.97111 0.0
H795 H 0.98871 0.49202 0.94955 0.0
H796 H 0.97053 0.48433 0.09457 0.0
H797 H 0.96241 0.48258 0.07257 0.0
H798 H 0.0205 0.51868 0.06777 0.0
H799 H 0.02877 0.52091 0.08993 0.0
Tb800 Tb 0.51673 0.50884 0.03258 0.0
Eu801 Eu 0.50046 0.51032 1.00435 0.0
C802 C 0.49658 0.47306 1.0136 0.0
C803 C 0.54243 0.51687 1.01079 0.0
C804 C 0.5206 0.50571 0.0668 0.0
C805 C 0.52273 0.49696 0.08742 0.0
C806 C 0.52785 0.49847 0.07544 0.0
C807 C 0.50761 0.51087 0.07025 0.0
C808 C 0.50256 0.50946 0.08226 0.0
C809 C 0.5103 0.50279 0.0911 0.0
C810 C 0.52804 0.50938 0.05471 0.0
O811 O 0.53071 0.53746 0.02775 0.0
O812 O 0.50618 0.53595 1.01619 0.0
O813 O 0.47531 0.49735 1.01505 0.0
O814 O 0.49051 0.50854 0.03452 0.0
C815 C 0.52186 0.54565 0.02334 0.0
O816 O 0.50162 0.52705 0.98935 0.0
O817 O 0.48188 0.49732 0.98736 0.0
O818 O 0.50131 0.48375 1.00456 0.0
O819 O 0.49809 0.47994 0.02497 0.0
O820 O 0.5382 0.50997 0.02146 0.0
O821 O 0.53111 0.52021 1.00379 0.0
C822 C 0.4751 0.50057 0.02689 0.0
O823 O 0.52246 0.49519 0.04655 0.0
O824 O 0.52874 0.52364 0.04982 0.0
C825 C 0.49425 0.51173 0.96921 0.0
C826 C 0.50264 0.51055 0.94463 0.0
C827 C 0.50287 0.52635 0.95019 0.0
C828 C 0.49866 0.52688 0.96229 0.0
C829 C 0.49417 0.49596 0.96377 0.0
C830 C 0.4983 0.49538 0.95162 0.0
C831 C 0.48945 0.51268 0.98192 0.0
H832 H 0.5287 0.49138 0.09385 0.0
H833 H 0.53787 0.49439 0.073 0.0
H834 H 0.50179 0.51653 0.06377 0.0
H835 H 0.49309 0.51426 0.0847 0.0
H836 H 0.50647 0.53844 0.94523 0.0
H837 H 0.49884 0.53921 0.96626 0.0
H838 H 0.4908 0.48403 0.96886 0.0
H839 H 0.49776 0.48288 0.94764 0.0
Tb840 Tb 0.16745 0.33264 0.33894 0.0
Eu841 Eu 0.18076 0.35164 0.36792 0.0
C842 C 0.18494 0.31756 0.3584 0.0
C843 C 0.13939 0.31628 0.35922 0.0
C844 C 0.16634 0.32595 0.30462 0.0
C845 C 0.16621 0.318 0.28295 0.0
C846 C 0.1605 0.3126 0.29451 0.0
C847 C 0.17845 0.34481 0.30307 0.0
C848 C 0.18415 0.35026 0.29149 0.0
C849 C 0.17787 0.33694 0.28121 0.0
C850 C 0.15878 0.32002 0.31645 0.0
O851 O 0.15396 0.34887 0.34271 0.0
O852 O 0.17583 0.37139 0.35707 0.0
O853 O 0.20682 0.36336 0.35801 0.0
O854 O 0.19314 0.35911 0.33833 0.0
C855 C 0.1618 0.36566 0.34852 0.0
O856 O 0.17736 0.36596 0.38398 0.0
O857 O 0.19902 0.35857 0.38495 0.0
O858 O 0.17869 0.32362 0.36713 0.0
O859 O 0.18541 0.32302 0.34733 0.0
O860 O 0.14503 0.31267 0.34897 0.0
O861 O 0.14982 0.33159 0.36661 0.0
C862 C 0.20802 0.36663 0.3464 0.0
O863 O 0.1683 0.31576 0.3242 0.0
O864 O 0.15278 0.32998 0.32194 0.0
C865 C 0.18487 0.35812 0.4031 0.0
C866 C 0.17497 0.34536 0.4264 0.0
C867 C 0.18637 0.36451 0.42514 0.0
C868 C 0.19125 0.37079 0.41362 0.0
C869 C 0.17345 0.33899 0.40423 0.0
C870 C 0.16858 0.33267 0.41578 0.0
C871 C 0.19013 0.36508 0.39104 0.0
H872 H 0.16137 0.3073 0.27534 0.0
H873 H 0.15121 0.29797 0.2955 0.0
H874 H 0.18312 0.35538 0.31076 0.0
H875 H 0.193 0.36497 0.29054 0.0
H876 H 0.19176 0.37467 0.4331 0.0
H877 H 0.20009 0.3856 0.41293 0.0
H878 H 0.16827 0.32898 0.39619 0.0
H879 H 0.15961 0.31786 0.41636 0.0
Tb880 Tb 0.68206 0.84064 0.34104 0.0
Eu881 Eu 0.6653 0.83656 0.36786 0.0
C882 C 0.69852 0.87473 0.36114 0.0
C883 C 0.70038 0.83076 0.36342 0.0
C884 C 0.68831 0.84477 0.30724 0.0
C885 C 0.69671 0.86189 0.28915 0.0
C886 C 0.70043 0.86056 0.30157 0.0
C887 C 0.67214 0.83048 0.30029 0.0
C888 C 0.66847 0.83176 0.28787 0.0
C889 C 0.68083 0.84735 0.28207 0.0
C890 C 0.69355 0.84269 0.32 0.0
O891 O 0.66629 0.81115 0.34403 0.0
O892 O 0.64425 0.81201 0.35488 0.0
O893 O 0.65267 0.85018 0.35646 0.0
O894 O 0.65587 0.84065 0.33718 0.0
C895 C 0.64943 0.8028 0.3476 0.0
O896 O 0.65149 0.81935 0.38245 0.0
O897 O 0.6588 0.8484 0.38375 0.0
O898 O 0.69313 0.86312 0.36966 0.0
O899 O 0.69198 0.86882 0.34957 0.0
O900 O 0.70324 0.8401 0.35367 0.0
O901 O 0.68523 0.82541 0.36906 0.0
C902 C 0.64853 0.84777 0.3445 0.0
O903 O 0.69958 0.85697 0.32812 0.0
O904 O 0.68251 0.82717 0.32449 0.0
C905 C 0.65765 0.83483 0.40234 0.0
C906 C 0.66762 0.83779 0.42779 0.0
C907 C 0.64946 0.83333 0.42325 0.0
C908 C 0.64455 0.83188 0.41067 0.0
C909 C 0.6758 0.83929 0.40674 0.0
C910 C 0.68075 0.84073 0.41937 0.0
C911 C 0.65191 0.83304 0.38915 0.0
H912 H 0.7064 0.87425 0.28507 0.0
H913 H 0.71304 0.87173 0.30668 0.0
H914 H 0.66253 0.81804 0.30433 0.0
H915 H 0.65624 0.82017 0.28272 0.0
H916 H 0.6389 0.83065 0.42942 0.0
H917 H 0.63045 0.82835 0.40742 0.0
H918 H 0.6861 0.84164 0.40041 0.0
H919 H 0.6949 0.84435 0.42255 0.0
Tb920 Tb 0.18304 0.84228 0.3655 0.0
Eu921 Eu 0.16659 0.84396 0.33743 0.0
C922 C 0.16307 0.8067 0.34647 0.0
C923 C 0.20844 0.85055 0.34374 0.0
C924 C 0.18828 0.84153 0.4 0.0
C925 C 0.17088 0.82337 0.41621 0.0
C926 C 0.17597 0.82427 0.4042 0.0
C927 C 0.19535 0.85779 0.4081 0.0
C928 C 0.19022 0.85691 0.42004 0.0
C929 C 0.17797 0.8397 0.4243 0.0
C930 C 0.1948 0.84291 0.38757 0.0
O931 O 0.19647 0.871 0.36087 0.0
O932 O 0.17192 0.86944 0.34928 0.0
O933 O 0.14159 0.83124 0.34832 0.0
O934 O 0.15698 0.84211 0.36776 0.0
C935 C 0.18748 0.87911 0.35654 0.0
O936 O 0.16772 0.86047 0.32229 0.0
O937 O 0.14787 0.8308 0.32053 0.0
O938 O 0.16777 0.8175 0.33748 0.0
O939 O 0.16436 0.81347 0.35782 0.0
O940 O 0.20366 0.84238 0.35395 0.0
O941 O 0.19751 0.85494 0.33722 0.0
C942 C 0.14151 0.8343 0.3602 0.0
O943 O 0.18699 0.82804 0.37977 0.0
O944 O 0.19765 0.85761 0.38224 0.0
C945 C 0.15976 0.84474 0.30234 0.0
C946 C 0.1684 0.84303 0.2779 0.0
C947 C 0.15865 0.85219 0.28126 0.0
C948 C 0.15439 0.85301 0.29333 0.0
C949 C 0.16957 0.83566 0.29912 0.0
C950 C 0.17382 0.83478 0.28702 0.0
C951 C 0.15523 0.84608 0.31501 0.0
H952 H 0.1613 0.80989 0.41914 0.0
H953 H 0.17037 0.81143 0.39826 0.0
H954 H 0.20511 0.87128 0.40524 0.0
H955 H 0.19625 0.86974 0.42604 0.0
H956 H 0.15454 0.859 0.2746 0.0
H957 H 0.14694 0.86022 0.29564 0.0
H958 H 0.17392 0.82924 0.30596 0.0
H959 H 0.18118 0.82746 0.28478 0.0
Tb960 Tb 0.83498 0.66578 0.67215 0.0
Eu961 Eu 0.84838 0.6856 0.70098 0.0
C962 C 0.8526 0.65127 0.69198 0.0
C963 C 0.80704 0.65007 0.69246 0.0
C964 C 0.83336 0.65843 0.63786 0.0
C965 C 0.83389 0.65023 0.61634 0.0
C966 C 0.82839 0.64494 0.62795 0.0
C967 C 0.84436 0.67738 0.63605 0.0
C968 C 0.84985 0.68272 0.62441 0.0
C969 C 0.84446 0.66922 0.61433 0.0
C970 C 0.82625 0.65247 0.6498 0.0
O971 O 0.82168 0.68233 0.67553 0.0
O972 O 0.84349 0.70508 0.68982 0.0
O973 O 0.8744 0.69751 0.691 0.0
O974 O 0.8606 0.69214 0.67122 0.0
C975 C 0.82945 0.69917 0.68125 0.0
O976 O 0.84462 0.69989 0.71692 0.0
O977 O 0.8667 0.69308 0.71803 0.0
O978 O 0.84654 0.6577 0.70063 0.0
O979 O 0.85285 0.65625 0.68079 0.0
O980 O 0.81282 0.64605 0.68242 0.0
O981 O 0.81738 0.66568 0.69959 0.0
C982 C 0.8755 0.70016 0.67929 0.0
O983 O 0.83659 0.64922 0.65754 0.0
O984 O 0.81946 0.66173 0.65524 0.0
C985 C 0.85222 0.69227 0.73611 0.0
C986 C 0.84233 0.67941 0.75942 0.0
C987 C 0.85092 0.69857 0.75782 0.0
C988 C 0.85581 0.7049 0.74631 0.0
C989 C 0.84355 0.67312 0.73759 0.0
C990 C 0.83871 0.66676 0.74913 0.0
C991 C 0.85748 0.69928 0.72405 0.0
H992 H 0.82978 0.63941 0.60891 0.0
H993 H 0.81999 0.63024 0.62916 0.0
H994 H 0.84839 0.68806 0.64358 0.0
H995 H 0.85783 0.69746 0.62325 0.0
H996 H 0.85415 0.70874 0.76553 0.0
H997 H 0.86248 0.71973 0.74537 0.0
H998 H 0.84051 0.66309 0.72982 0.0
H999 H 0.83191 0.65191 0.74996 0.0
Tb1000 Tb 0.35064 0.17714 0.6737 0.0
Eu1001 Eu 0.33356 0.1719 0.70071 0.0
C1002 C 0.36583 0.21076 0.69356 0.0
C1003 C 0.36866 0.16652 0.69629 0.0
C1004 C 0.35754 0.18038 0.63999 0.0
C1005 C 0.36552 0.19161 0.62001 0.0
C1006 C 0.37047 0.19259 0.63254 0.0
C1007 C 0.33943 0.16721 0.63473 0.0
C1008 C 0.33446 0.16616 0.62214 0.0
C1009 C 0.34748 0.17834 0.61462 0.0
C1010 C 0.36358 0.18157 0.6531 0.0
O1011 O 0.32417 0.15086 0.67145 0.0
O1012 O 0.32374 0.14332 0.69123 0.0
O1013 O 0.31215 0.17298 0.68757 0.0
O1014 O 0.33069 0.18707 0.67223 0.0
C1015 C 0.31841 0.13839 0.67946 0.0
O1016 O 0.31562 0.15464 0.71416 0.0
O1017 O 0.33224 0.1846 0.71818 0.0
O1018 O 0.34966 0.20247 0.69804 0.0
O1019 O 0.37062 0.20131 0.68613 0.0
O1020 O 0.36444 0.16501 0.68435 0.0
O1021 O 0.36072 0.17207 0.70419 0.0
C1022 C 0.31534 0.18193 0.67765 0.0
O1023 O 0.36407 0.19492 0.66019 0.0
O1024 O 0.35686 0.16601 0.65827 0.0
C1025 C 0.32581 0.16654 0.73515 0.0
C1026 C 0.33339 0.1649 0.76041 0.0
C1027 C 0.31509 0.15432 0.75454 0.0
C1028 C 0.31135 0.15519 0.74205 0.0
C1029 C 0.34423 0.17662 0.74087 0.0
C1030 C 0.34797 0.17585 0.75338 0.0
C1031 C 0.32115 0.16877 0.72236 0.0
H1032 H 0.37598 0.20103 0.61449 0.0
H1033 H 0.38453 0.20282 0.63642 0.0
H1034 H 0.32918 0.1577 0.64033 0.0
H1035 H 0.3204 0.15592 0.61831 0.0
H1036 H 0.30352 0.14588 0.75968 0.0
H1037 H 0.29704 0.14737 0.73784 0.0
H1038 H 0.35567 0.18542 0.73574 0.0
H1039 H 0.36226 0.18395 0.75758 0.0
Tb1040 Tb 0.84983 0.1754 0.69893 0.0
Eu1041 Eu 0.8338 0.17767 0.67085 0.0
C1042 C 0.82983 0.14016 0.67961 0.0
C1043 C 0.87544 0.18384 0.67727 0.0
C1044 C 0.85446 0.17404 0.73337 0.0
C1045 C 0.84029 0.15611 0.75049 0.0
C1046 C 0.84525 0.15689 0.73847 0.0
C1047 C 0.85852 0.19037 0.74061 0.0
C1048 C 0.85359 0.1896 0.75261 0.0
C1049 C 0.84456 0.1725 0.75777 0.0
C1050 C 0.8611 0.17521 0.72098 0.0
O1051 O 0.86331 0.20433 0.69473 0.0
O1052 O 0.83928 0.20319 0.68271 0.0
O1053 O 0.80877 0.16504 0.68169 0.0
O1054 O 0.82404 0.17574 0.70117 0.0
C1055 C 0.85455 0.21261 0.69028 0.0
O1056 O 0.83543 0.19409 0.6556 0.0
O1057 O 0.8147 0.16468 0.65406 0.0
O1058 O 0.83485 0.15113 0.67073 0.0
O1059 O 0.83097 0.14677 0.69098 0.0
O1060 O 0.87048 0.1755 0.6874 0.0
O1061 O 0.86469 0.18847 0.67078 0.0
C1062 C 0.80862 0.16808 0.69356 0.0
O1063 O 0.85261 0.16041 0.71313 0.0
O1064 O 0.86498 0.1902 0.71567 0.0
C1065 C 0.82671 0.1779 0.63577 0.0
C1066 C 0.83486 0.17534 0.61132 0.0
C1067 C 0.81975 0.1778 0.61389 0.0
C1068 C 0.81573 0.17906 0.62597 0.0
C1069 C 0.84175 0.17535 0.63332 0.0
C1070 C 0.8458 0.17409 0.62121 0.0
C1071 C 0.82248 0.17983 0.64844 0.0
H1072 H 0.83354 0.14271 0.7542 0.0
H1073 H 0.84216 0.14407 0.73323 0.0
H1074 H 0.86576 0.20388 0.73707 0.0
H1075 H 0.85688 0.20248 0.75785 0.0
H1076 H 0.81119 0.17912 0.60657 0.0
H1077 H 0.80413 0.18113 0.62768 0.0
H1078 H 0.85039 0.17441 0.64077 0.0
H1079 H 0.85741 0.17198 0.61959 0.0
H1080 H 0.30804 0.85402 0.04791 0.0
H1081 H 0.33837 0.87394 0.04056 0.0
H1082 H 0.34473 0.92103 0.06336 0.0
H1083 H 0.31432 0.90119 0.07077 0.0
H1084 H 0.35132 0.9059 0.02833 0.0
H1085 H 0.39306 0.9213 0.07336 0.0
H1086 H 0.36887 0.90308 0.07062 0.0
H1087 H 0.37484 0.92704 0.07347 0.0
C1088 C 0.31579 0.86865 0.05131 0.0
C1089 C 0.30869 0.87595 0.05999 0.0
C1090 C 0.33319 0.88002 0.04712 0.0
C1091 C 0.34401 0.89894 0.05153 0.0
C1092 C 0.33686 0.90638 0.06002 0.0
H1093 H 0.45235 0.99069 0.04048 0.0
H1094 H 0.42124 0.96985 0.04615 0.0
C1095 C 0.31945 0.895 0.06426 0.0
C1096 C 0.36273 0.91082 0.04722 0.0
H1097 H 0.40918 0.93816 0.05717 0.0
C1098 C 0.364 0.91289 0.03463 0.0
C1099 C 0.3793 0.91991 0.05541 0.0
C1100 C 0.37905 0.91763 0.06896 0.0
C1101 C 0.38127 0.92419 0.03006 0.0
C1102 C 0.39782 0.93339 0.03828 0.0
C1103 C 0.39654 0.93115 0.05085 0.0
C1104 C 0.41655 0.94603 0.03421 0.0
C1105 C 0.38153 0.92663 1.01654 0.0
C1106 C 0.42445 0.93967 0.02555 0.0
C1107 C 0.44239 0.95169 0.02219 0.0
C1108 C 0.45286 0.97024 0.02754 0.0
C1109 C 0.44483 0.9765 0.03618 0.0
C1110 C 0.42696 0.96457 0.03945 0.0
H1111 H 0.36746 0.92268 1.0121 0.0
H1112 H 0.39148 0.94129 1.01496 0.0
H1113 H 0.38609 0.91752 1.012 0.0
H1114 H 0.41689 0.92532 0.02155 0.0
H1115 H 0.44816 0.94636 1.01557 0.0
H1116 H 0.14602 0.45337 0.08712 0.0
H1117 H 0.12192 0.46033 0.07955 0.0
H1118 H 0.13835 0.46118 0.04302 0.0
H1119 H 0.16184 0.45343 0.05037 0.0
H1120 H 0.12592 0.49072 0.06906 0.0
H1121 H 0.08256 0.42809 0.03633 0.0
H1122 H 0.1003 0.42959 0.04753 0.0
H1123 H 0.10664 0.44025 0.03342 0.0
C1124 C 0.14429 0.45467 0.07743 0.0
C1125 C 0.15595 0.4528 0.06938 0.0
C1126 C 0.13057 0.4588 0.07312 0.0
C1127 C 0.12808 0.46105 0.06067 0.0
C1128 C 0.13966 0.45915 0.05261 0.0
H1129 H 0.06294 0.49881 0.01797 0.0
H1130 H 0.08569 0.49007 0.02566 0.0
C1131 C 0.15332 0.45496 0.05689 0.0
C1132 C 0.11398 0.46618 0.05619 0.0
H1133 H 0.07659 0.45332 0.0349 0.0
C1134 C 0.11505 0.48244 0.06166 0.0
C1135 C 0.09975 0.45542 0.04651 0.0
C1136 C 0.09709 0.43727 0.04068 0.0
C1137 C 0.10259 0.48839 0.05757 0.0
C1138 C 0.08858 0.47777 0.0478 0.0
C1139 C 0.08742 0.4615 0.04235 0.0
C1140 C 0.07486 0.48325 0.04322 0.0
C1141 C 0.10469 0.50619 0.06356 0.0
C1142 C 0.06114 0.48221 0.05051 0.0
C1143 C 0.04802 0.48708 0.04612 0.0
C1144 C 0.04841 0.49319 0.03435 0.0
C1145 C 0.06226 0.49428 0.0271 0.0
C1146 C 0.07526 0.48923 0.03145 0.0
H1147 H 0.11821 0.51454 0.06938 0.0
H1148 H 0.10366 0.51487 0.05652 0.0
H1149 H 0.0932 0.50273 0.06944 0.0
H1150 H 0.06046 0.47747 0.05957 0.0
H1151 H 0.03759 0.48605 0.05198 0.0
H1152 H 0.56504 0.71387 0.05925 0.0
H1153 H 0.55184 0.68214 0.04936 0.0
H1154 H 0.60672 0.68816 0.05198 0.0
H1155 H 0.62013 0.72002 0.06168 0.0
H1156 H 0.56214 0.6669 0.02745 0.0
H1157 H 0.5733 0.64315 0.07207 0.0
H1158 H 0.57333 0.66482 0.07102 0.0
H1159 H 0.59322 0.66311 0.06725 0.0
C1160 C 0.57439 0.70863 0.05748 0.0
C1161 C 0.59364 0.71945 0.06139 0.0
C1162 C 0.5668 0.69046 0.05187 0.0
C1163 C 0.57828 0.68277 0.0501 0.0
C1164 C 0.5976 0.6938 0.05342 0.0
H1165 H 0.55759 0.5709 0.03265 0.0
H1166 H 0.57112 0.60434 0.03799 0.0
C1167 C 0.60521 0.71196 0.05901 0.0
C1168 C 0.56995 0.66282 0.0456 0.0
H1169 H 0.5616 0.62096 0.05484 0.0
C1170 C 0.56198 0.6568 0.0334 0.0
C1171 C 0.56978 0.64974 0.05342 0.0
C1172 C 0.57773 0.65541 0.0667 0.0
C1173 C 0.55418 0.63803 0.02872 0.0
C1174 C 0.55393 0.62489 0.03658 0.0
C1175 C 0.56182 0.631 0.0488 0.0
C1176 C 0.54581 0.60478 0.0324 0.0
C1177 C 0.54678 0.63259 1.01535 0.0
C1178 C 0.52705 0.5938 0.02743 0.0
C1179 C 0.5193 0.57463 0.02423 0.0
C1180 C 0.53009 0.56603 0.02616 0.0
C1181 C 0.54886 0.57706 0.0311 0.0
C1182 C 0.55663 0.59621 0.03414 0.0
H1183 H 0.55296 0.64483 1.00991 0.0
H1184 H 0.54973 0.62187 1.01135 0.0
H1185 H 0.53141 0.62672 1.01444 0.0
H1186 H 0.51824 0.59995 0.0263 0.0
H1187 H 0.50476 0.56649 0.02053 0.0
H1188 H 0.89114 0.30915 0.95433 0.0
H1189 H 0.91106 0.34062 0.96444 0.0
H1190 H 0.88098 0.32461 0.99636 0.0
H1191 H 0.86123 0.29279 0.98642 0.0
H1192 H 0.89972 0.36538 0.97268 0.0
H1193 H 0.93598 0.35025 1.01096 0.0
H1194 H 0.92333 0.33376 0.9977 0.0
H1195 H 0.91087 0.33682 1.00956 0.0
C1196 C 0.88893 0.31216 0.9636 0.0
C1197 C 0.87463 0.29832 0.96959 0.0
C1198 C 0.90027 0.33024 0.96932 0.0
C1199 C 0.89767 0.33496 0.98121 0.0
C1200 C 0.88345 0.32123 0.98726 0.0
H1201 H 0.94807 0.44695 0.02009 0.0
H1202 H 0.92675 0.41399 1.01288 0.0
C1203 C 0.87204 0.30309 0.98151 0.0
C1204 C 0.90947 0.35446 0.98695 0.0
H1205 H 0.94254 0.38146 1.01073 0.0
C1206 C 0.90902 0.36887 0.98103 0.0
C1207 C 0.92165 0.35902 0.99783 0.0
C1208 C 0.92318 0.34421 1.00437 0.0
C1209 C 0.92045 0.38766 0.98565 0.0
C1210 C 0.93268 0.39219 0.99644 0.0
C1211 C 0.93304 0.37786 1.00247 0.0
C1212 C 0.94577 0.41187 1.00121 0.0
C1213 C 0.91968 0.40268 0.97891 0.0
C1214 C 0.9635 0.42151 0.99703 0.0
C1215 C 0.97569 0.44031 1.0011 0.0
C1216 C 0.97038 0.44987 1.00943 0.0
C1217 C 0.95261 0.44007 1.01367 0.0
C1218 C 0.94043 0.42123 1.00959 0.0
H1219 H 0.90896 0.39685 0.97084 0.0
H1220 H 0.9165 0.4114 0.98522 0.0
H1221 H 0.93354 0.41195 0.97575 0.0
H1222 H 0.96781 0.41451 0.99052 0.0
H1223 H 0.98924 0.44739 0.99762 0.0
H1224 H 0.71251 0.56615 0.99037 0.0
H1225 H 0.68238 0.55741 0.99787 0.0
H1226 H 0.65853 0.55319 0.96096 0.0
H1227 H 0.68841 0.5611 0.95329 0.0
H1228 H 0.66048 0.57318 0.99705 0.0
H1229 H 0.62209 0.50287 0.97149 0.0
H1230 H 0.64724 0.517 0.9728 0.0
H1231 H 0.63311 0.52131 0.96178 0.0
C1232 C 0.70082 0.56316 0.98379 0.0
C1233 C 0.70292 0.56409 0.97117 0.0
C1234 C 0.6836 0.55831 0.98813 0.0
C1235 C 0.668 0.55422 0.97997 0.0
C1236 C 0.67019 0.5558 0.96742 0.0
H1237 H 0.55338 0.52491 0.98784 0.0
H1238 H 0.58388 0.53393 0.98086 0.0
C1239 C 0.68741 0.5606 0.96306 0.0
C1240 C 0.6495 0.54827 0.98463 0.0
H1241 H 0.6038 0.51314 0.98156 0.0
C1242 C 0.64813 0.56 0.99371 0.0
C1243 C 0.63333 0.53101 0.98034 0.0
C1244 C 0.63399 0.51722 0.97116 0.0
C1245 C 0.63102 0.55515 0.99838 0.0
C1246 C 0.61485 0.53804 0.99395 0.0
C1247 C 0.6162 0.52627 0.98493 0.0
C1248 C 0.59628 0.53229 0.99835 0.0
C1249 C 0.63023 0.56855 1.00782 0.0
C1250 C 0.59295 0.52805 1.01049 0.0
C1251 C 0.5754 0.52272 1.01452 0.0
C1252 C 0.56085 0.52162 1.0065 0.0
C1253 C 0.56423 0.52568 0.99431 0.0
C1254 C 0.58169 0.53083 0.99027 0.0
H1255 H 0.64298 0.58258 1.00858 0.0
H1256 H 0.61781 0.57002 1.00551 0.0
H1257 H 0.62897 0.56301 1.01691 0.0
H1258 H 0.60394 0.52884 1.01684 0.0
H1259 H 0.57334 0.51972 0.02396 0.0
H1260 H 0.42829 0.14221 1.00474 0.0
H1261 H 0.44123 0.12238 1.01009 0.0
H1262 H 0.4347 0.10302 0.97191 0.0
H1263 H 0.42273 0.12353 0.9664 0.0
H1264 H 0.42788 0.08505 1.00693 0.0
H1265 H 0.48949 0.12177 0.98103 0.0
H1266 H 0.47413 0.13079 0.98389 0.0
H1267 H 0.46767 0.11267 0.97168 0.0
C1268 C 0.42975 0.13387 0.99745 0.0
C1269 C 0.42471 0.13474 0.9851 0.0
C1270 C 0.43702 0.12241 1.00054 0.0
C1271 C 0.43938 0.11154 0.99138 0.0
C1272 C 0.43348 0.11165 0.97911 0.0
H1273 H 0.47759 0.03156 0.99163 0.0
H1274 H 0.46376 0.0508 0.98668 0.0
C1275 C 0.42636 0.12321 0.976 0.0
C1276 C 0.4483 0.10039 0.99464 0.0
H1277 H 0.48483 0.0938 0.98897 0.0
C1278 C 0.44038 0.08704 1.00306 0.0
C1279 C 0.46472 0.10308 0.98964 0.0
C1280 C 0.47462 0.11798 0.98116 0.0
C1281 C 0.44822 0.07606 1.0064 0.0
C1282 C 0.46439 0.07856 1.00123 0.0
C1283 C 0.47237 0.09192 0.99287 0.0
C1284 C 0.47311 0.06723 1.00427 0.0
C1285 C 0.43904 0.06164 1.01529 0.0
C1286 C 0.48323 0.07036 1.01574 0.0
C1287 C 0.49133 0.05951 0.01857 0.0
C1288 C 0.48932 0.04524 1.01001 0.0
C1289 C 0.47935 0.04236 0.99847 0.0
C1290 C 0.47143 0.05333 0.99561 0.0
H1291 H 0.42526 0.05975 1.01725 0.0
H1292 H 0.4371 0.048 1.01159 0.0
H1293 H 0.44825 0.06603 0.02404 0.0
H1294 H 0.4848 0.08116 0.02249 0.0
H1295 H 0.49885 0.06206 0.02756 0.0
H1296 H 0.71454 0.1365 0.99317 0.0
H1297 H 0.68409 0.11644 1.00034 0.0
H1298 H 0.65726 0.10878 0.96385 0.0
H1299 H 0.68764 0.12906 0.95662 0.0
H1300 H 0.65361 0.12238 0.99962 0.0
H1301 H 0.63438 0.05519 0.97345 0.0
H1302 H 0.65798 0.07475 0.97541 0.0
H1303 H 0.64093 0.07435 0.96424 0.0
C1304 C 0.70219 0.13059 0.98664 0.0
C1305 C 0.70363 0.13452 0.97429 0.0
C1306 C 0.68477 0.11903 0.99076 0.0
C1307 C 0.66837 0.11094 0.98263 0.0
C1308 C 0.66973 0.11455 0.97026 0.0
H1309 H 0.54966 0.0428 0.98966 0.0
H1310 H 0.58047 0.06194 0.98273 0.0
C1311 C 0.68716 0.12616 0.96613 0.0
C1312 C 0.6498 0.0995 0.98723 0.0
H1313 H 0.61064 0.05621 0.98389 0.0
C1314 C 0.64426 0.10788 0.99623 0.0
C1315 C 0.63756 0.08059 0.9828 0.0
C1316 C 0.64302 0.07059 0.97352 0.0
C1317 C 0.6267 0.09802 1.00071 0.0
C1318 C 0.61443 0.07911 0.99626 0.0
C1319 C 0.62001 0.07071 0.9873 0.0
C1320 C 0.59567 0.06784 1.00068 0.0
C1321 C 0.62124 0.10811 1.00993 0.0
C1322 C 0.59388 0.06467 1.01311 0.0
C1323 C 0.57621 0.05374 1.01713 0.0
C1324 C 0.55993 0.04564 1.00881 0.0
C1325 C 0.56181 0.04886 0.99637 0.0
C1326 C 0.57947 0.05978 0.99236 0.0
H1327 H 0.62986 0.1235 1.00993 0.0
H1328 H 0.60628 0.10394 1.00805 0.0
H1329 H 0.6234 0.10448 0.01925 0.0
H1330 H 0.60617 0.0704 0.01967 0.0
H1331 H 0.57535 0.05145 0.02675 0.0
H1332 H 0.88382 0.56537 0.94529 0.0
H1333 H 0.90385 0.55528 0.95554 0.0
H1334 H 0.88348 0.55956 0.99002 0.0
H1335 H 0.86329 0.56967 0.97979 0.0
H1336 H 0.93223 0.57337 0.97393 0.0
H1337 H 0.87644 0.50751 0.98905 0.0
H1338 H 0.87158 0.5204 0.97808 0.0
H1339 H 0.87555 0.52793 0.99419 0.0
C1340 C 0.88363 0.56427 0.95507 0.0
C1341 C 0.87191 0.56837 0.9617 0.0
C1342 C 0.89506 0.5584 0.96092 0.0
C1343 C 0.89504 0.55639 0.97353 0.0
C1344 C 0.88345 0.56057 0.98022 0.0
H1345 H 0.96037 0.52561 0.02294 0.0
H1346 H 0.93946 0.53589 1.01417 0.0
C1347 C 0.87192 0.56639 0.97436 0.0
C1348 C 0.90751 0.55034 0.97962 0.0
H1349 H 0.90769 0.5164 0.99597 0.0
C1350 C 0.92683 0.56089 0.97873 0.0
C1351 C 0.90053 0.53408 0.98593 0.0
C1352 C 0.87988 0.52171 0.9868 0.0
C1353 C 0.93931 0.55568 0.98397 0.0
C1354 C 0.9323 0.53932 0.99014 0.0
C1355 C 0.91304 0.52891 0.99121 0.0
C1356 C 0.94475 0.53271 0.99542 0.0
C1357 C 0.95995 0.56787 0.98298 0.0
C1358 C 0.95446 0.52719 0.98778 0.0
C1359 C 0.96637 0.52121 0.99276 0.0
C1360 C 0.96886 0.52063 1.0055 0.0
C1361 C 0.95889 0.52593 1.01311 0.0
C1362 C 0.94689 0.5318 1.0081 0.0
H1363 H 0.9635 0.58205 0.98065 0.0
H1364 H 0.96827 0.56919 0.99171 0.0
H1365 H 0.96414 0.56142 0.97564 0.0
H1366 H 0.95281 0.52749 0.97795 0.0
H1367 H 0.97378 0.51722 0.98659 0.0
H1368 H 0.39567 0.30048 0.9748 0.0
H1369 H 0.41079 0.33271 0.98406 0.0
H1370 H 0.46159 0.33158 0.99319 0.0
H1371 H 0.44687 0.29965 0.98347 0.0
H1372 H 0.4278 0.35042 1.00701 0.0
H1373 H 0.47893 0.37526 0.97244 0.0
H1374 H 0.45883 0.35208 0.97095 0.0
H1375 H 0.47926 0.35757 0.98102 0.0
C1376 C 0.41008 0.30708 0.97874 0.0
C1377 C 0.42012 0.29751 0.9782 0.0
C1378 C 0.41866 0.32547 0.98414 0.0
C1379 C 0.43745 0.3347 0.9891 0.0
C1380 C 0.4472 0.32487 0.98919 0.0
H1381 H 0.49187 0.44679 0.02941 0.0
H1382 H 0.47814 0.4131 0.02435 0.0
C1383 C 0.43866 0.30651 0.98375 0.0
C1384 C 0.44703 0.35485 0.99356 0.0
H1385 H 0.48266 0.39757 0.98823 0.0
C1386 C 0.43984 0.36075 1.00295 0.0
C1387 C 0.46256 0.36834 0.98812 0.0
C1388 C 0.47027 0.36308 0.9775 0.0
C1389 C 0.44768 0.37978 1.00698 0.0
C1390 C 0.46342 0.39325 1.00166 0.0
C1391 C 0.47069 0.38727 0.99237 0.0
C1392 C 0.47191 0.41368 1.00497 0.0
C1393 C 0.43858 0.38526 1.01656 0.0
C1394 C 0.47358 0.42536 0.99574 0.0
C1395 C 0.48176 0.4446 0.99856 0.0
C1396 C 0.48838 0.45266 1.01072 0.0
C1397 C 0.48678 0.441 0.01998 0.0
C1398 C 0.47879 0.42171 1.01711 0.0
H1399 H 0.42401 0.37398 1.01725 0.0
H1400 H 0.44665 0.38803 0.02564 0.0
H1401 H 0.43833 0.39811 1.01451 0.0
H1402 H 0.46842 0.41956 0.98631 0.0
H1403 H 0.48267 0.45313 0.9912 0.0
H1404 H 0.13698 0.70051 0.08628 0.0
H1405 H 0.11672 0.66916 0.07609 0.0
H1406 H 0.11963 0.69193 0.04135 0.0
H1407 H 0.14009 0.72353 0.05153 0.0
H1408 H 0.08203 0.65528 0.06315 0.0
H1409 H 0.13164 0.65064 0.03334 0.0
H1410 H 0.13926 0.66857 0.04592 0.0
H1411 H 0.12821 0.67021 0.03179 0.0
C1412 C 0.13329 0.6989 0.07647 0.0
C1413 C 0.1401 0.71457 0.06973 0.0
C1414 C 0.12176 0.68093 0.07065 0.0
C1415 C 0.11676 0.67812 0.05794 0.0
C1416 C 0.12358 0.6937 0.05113 0.0
H1417 H 0.04484 0.5711 1.01317 0.0
H1418 H 0.0648 0.60448 0.01978 0.0
C1419 C 0.13525 0.71176 0.05696 0.0
C1420 C 0.10389 0.65886 0.05207 0.0
H1421 H 0.1011 0.62463 0.03179 0.0
C1422 C 0.0862 0.64861 0.05626 0.0
C1423 C 0.10922 0.6502 0.04298 0.0
C1424 C 0.12816 0.66037 0.03827 0.0
C1425 C 0.07386 0.62991 0.0518 0.0
C1426 C 0.07946 0.62102 0.04307 0.0
C1427 C 0.09687 0.63142 0.03854 0.0
C1428 C 0.06775 0.60075 0.03898 0.0
C1429 C 0.05488 0.61987 0.05648 0.0
C1430 C 0.06309 0.58751 0.04753 0.0
C1431 C 0.05168 0.56846 0.04383 0.0
C1432 C 0.04477 0.56217 0.03143 0.0
C1433 C 0.04985 0.57544 0.02282 0.0
C1434 C 0.06127 0.59454 0.02654 0.0
H1435 H 0.05063 0.62981 0.06009 0.0
H1436 H 0.04403 0.61001 0.04915 0.0
H1437 H 0.05542 0.61179 0.06409 0.0
H1438 H 0.06828 0.59192 0.05714 0.0
H1439 H 0.04823 0.55871 0.0507 0.0
H1440 H 0.3176 0.41896 0.07423 0.0
H1441 H 0.34599 0.42906 0.06401 0.0
H1442 H 0.35536 0.48513 0.06583 0.0
H1443 H 0.32702 0.47519 0.07613 0.0
H1444 H 0.36162 0.47372 0.04324 0.0
H1445 H 0.39905 0.45962 0.08116 0.0
H1446 H 0.37685 0.43983 0.07536 0.0
H1447 H 0.37778 0.4601 0.08287 0.0
C1448 C 0.32573 0.43348 0.07254 0.0
C1449 C 0.32004 0.44628 0.07614 0.0
C1450 C 0.34199 0.43923 0.06667 0.0
C1451 C 0.35305 0.45794 0.06434 0.0
C1452 C 0.34712 0.47063 0.06757 0.0
H1453 H 0.46943 0.51093 0.0496 0.0
H1454 H 0.43973 0.50103 0.05809 0.0
C1455 C 0.33083 0.46489 0.07342 0.0
C1456 C 0.37088 0.46432 0.05867 0.0
H1457 H 0.41368 0.46759 0.06284 0.0
C1458 C 0.37302 0.47241 0.04753 0.0
C1459 C 0.38589 0.46287 0.06434 0.0
C1460 C 0.38492 0.45531 0.07665 0.0
C1461 C 0.38964 0.47889 0.04184 0.0
C1462 C 0.40447 0.47694 0.04734 0.0
C1463 C 0.40234 0.46899 0.05855 0.0
C1464 C 0.42248 0.48341 0.04184 0.0
C1465 C 0.39128 0.48818 0.03017 0.0
C1466 C 0.42283 0.47681 0.02985 0.0
C1467 C 0.43986 0.48267 0.0249 0.0
C1468 C 0.45696 0.495 0.03189 0.0
C1469 C 0.45657 0.50145 0.04392 0.0
C1470 C 0.43955 0.49577 0.04881 0.0
H1471 H 0.38135 0.49349 0.02919 0.0
H1472 H 0.40567 0.5 0.02983 0.0
H1473 H 0.38789 0.47785 0.0222 0.0
H1474 H 0.40995 0.46687 0.02438 0.0
H1475 H 0.43961 0.4772 1.01567 0.0
H1476 H 0.60425 0.89105 0.04233 0.0
H1477 H 0.59228 0.91146 0.03623 0.0
H1478 H 0.5644 0.90269 0.06912 0.0
H1479 H 0.57612 0.88217 0.07523 0.0
H1480 H 0.55449 0.90111 0.03209 0.0
H1481 H 0.5914 0.95954 0.06883 0.0
H1482 H 0.59869 0.94268 0.06561 0.0
H1483 H 0.57924 0.93693 0.07437 0.0
C1484 C 0.59563 0.89351 0.04829 0.0
C1485 C 0.59117 0.88497 0.05928 0.0
C1486 C 0.58887 0.90525 0.04482 0.0
C1487 C 0.57765 0.90878 0.05229 0.0
C1488 C 0.57339 0.9005 0.06334 0.0
H1489 H 0.51531 0.96713 0.0472 0.0
H1490 H 0.52969 0.94874 0.05321 0.0
C1491 C 0.58012 0.88877 0.06682 0.0
C1492 C 0.56939 0.92013 0.04819 0.0
H1493 H 0.56653 0.95887 0.05628 0.0
C1494 C 0.55722 0.91382 0.03732 0.0
C1495 C 0.57291 0.93665 0.05506 0.0
C1496 C 0.5864 0.94448 0.06656 0.0
C1497 C 0.54809 0.92331 0.03329 0.0
C1498 C 0.55152 0.93979 0.0402 0.0
C1499 C 0.56384 0.9462 0.05102 0.0
C1500 C 0.54249 0.95062 0.03638 0.0
C1501 C 0.53442 0.91523 0.02188 0.0
C1502 C 0.54497 0.95788 0.02495 0.0
C1503 C 0.5366 0.96821 0.02143 0.0
C1504 C 0.5258 0.97175 0.02935 0.0
C1505 C 0.52346 0.9646 0.04085 0.0
C1506 C 0.53172 0.95413 0.04432 0.0
H1507 H 0.52937 0.90013 0.01976 0.0
H1508 H 0.52214 0.91705 0.02282 0.0
H1509 H 0.54146 0.92253 1.01396 0.0
H1510 H 0.55361 0.95579 0.01879 0.0
H1511 H 0.5389 0.97369 1.01257 0.0
H1512 H 0.99025 0.22228 0.41219 0.0
H1513 H 0.02052 0.24268 0.40487 0.0
H1514 H 0.9957 0.22366 0.36748 0.0
H1515 H 0.96527 0.20394 0.37468 0.0
H1516 H 0.04103 0.23277 0.39168 0.0
H1517 H 0.02458 0.27909 0.36555 0.0
H1518 H 0.00922 0.26392 0.37595 0.0
H1519 H 0.00915 0.25482 0.36069 0.0
C1520 C 0.9911 0.22273 0.4024 0.0
C1521 C 0.97522 0.21138 0.39405 0.0
C1522 C 0.00849 0.23431 0.39822 0.0
C1523 C 0.01043 0.23492 0.3856 0.0
C1524 C 0.99458 0.22378 0.37725 0.0
H1525 H 0.10898 0.28815 0.34464 0.0
H1526 H 0.07752 0.26758 0.35062 0.0
C1527 C 0.97718 0.21227 0.38141 0.0
C1528 C 0.0292 0.24637 0.38122 0.0
H1529 H 0.05362 0.28072 0.36276 0.0
C1530 C 0.04376 0.2433 0.3854 0.0
C1531 C 0.03284 0.26011 0.37297 0.0
C1532 C 0.01818 0.26484 0.36861 0.0
C1533 C 0.06171 0.25343 0.38151 0.0
C1534 C 0.0653 0.26709 0.37327 0.0
C1535 C 0.05078 0.27011 0.36899 0.0
C1536 C 0.08436 0.27914 0.36959 0.0
C1537 C 0.07673 0.2494 0.3862 0.0
C1538 C 0.09858 0.29244 0.37825 0.0
C1539 C 0.11643 0.30422 0.37486 0.0
C1540 C 0.12055 0.30294 0.36272 0.0
C1541 C 0.10633 0.28942 0.35407 0.0
C1542 C 0.08834 0.27773 0.35745 0.0
H1543 H 0.07083 0.23592 0.39034 0.0
H1544 H 0.08494 0.24906 0.37869 0.0
H1545 H 0.08648 0.26067 0.39333 0.0
H1546 H 0.09579 0.29388 0.38763 0.0
H1547 H 0.12701 0.3144 0.3818 0.0
H1548 H 0.80133 0.76631 0.41217 0.0
H1549 H 0.77785 0.77429 0.40481 0.0
H1550 H 0.81848 0.81716 0.38499 0.0
H1551 H 0.84205 0.80951 0.39241 0.0
H1552 H 0.77886 0.80905 0.40786 0.0
H1553 H 0.77414 0.78656 0.35864 0.0
H1554 H 0.78469 0.77962 0.37064 0.0
H1555 H 0.79745 0.80253 0.36556 0.0
C1556 C 0.80533 0.77752 0.40631 0.0
C1557 C 0.82362 0.78714 0.40283 0.0
C1558 C 0.79184 0.78199 0.40205 0.0
C1559 C 0.79628 0.79611 0.39416 0.0
C1560 C 0.81456 0.80592 0.39082 0.0
H1561 H 0.73603 0.84388 0.35705 0.0
H1562 H 0.75914 0.83573 0.36487 0.0
C1563 C 0.82805 0.80148 0.39507 0.0
C1564 C 0.78198 0.80089 0.38964 0.0
H1565 H 0.75857 0.80312 0.36356 0.0
C1566 C 0.77433 0.80765 0.39818 0.0
C1567 C 0.77615 0.79919 0.377 0.0
C1568 C 0.78338 0.79143 0.36741 0.0
C1569 C 0.76135 0.81314 0.39443 0.0
C1570 C 0.75544 0.81138 0.38177 0.0
C1571 C 0.76307 0.80453 0.37324 0.0
C1572 C 0.74137 0.8165 0.37717 0.0
C1573 C 0.75456 0.82132 0.40407 0.0
C1574 C 0.72356 0.80829 0.38135 0.0
C1575 C 0.71038 0.81308 0.37699 0.0
C1576 C 0.71457 0.82596 0.36817 0.0
C1577 C 0.73231 0.83394 0.36384 0.0
C1578 C 0.74555 0.82927 0.3683 0.0
H1579 H 0.76446 0.82698 0.41255 0.0
H1580 H 0.75261 0.83266 0.40065 0.0
H1581 H 0.74094 0.81021 0.40656 0.0
H1582 H 0.71972 0.79799 0.3879 0.0
H1583 H 0.6968 0.80646 0.38043 0.0
H1584 H 0.23115 0.04743 0.39302 0.0
H1585 H 0.21781 0.01566 0.38318 0.0
H1586 H 0.27253 0.02128 0.38601 0.0
H1587 H 0.28607 0.05317 0.3957 0.0
H1588 H 0.22736 1.00033 0.36149 0.0
H1589 H 0.23952 0.97619 0.40567 0.0
H1590 H 0.24 0.9981 0.40483 0.0
H1591 H 0.2595 0.99593 0.40072 0.0
C1592 C 0.24043 0.04208 0.39132 0.0
C1593 C 0.25967 0.05281 0.39527 0.0
C1594 C 0.23275 0.02389 0.38573 0.0
C1595 C 0.24415 0.01606 0.38404 0.0
C1596 C 0.26346 0.02699 0.38742 0.0
H1597 H 0.2233 0.90444 0.36557 0.0
H1598 H 0.23677 0.9378 0.3711 0.0
C1599 C 0.27116 0.04518 0.39299 0.0
C1600 C 0.2357 0.99612 0.37945 0.0
H1601 H 0.22763 0.95416 0.38833 0.0
C1602 C 0.22737 0.99018 0.36732 0.0
C1603 C 0.23574 0.98297 0.38712 0.0
C1604 C 0.24403 0.9885 0.40034 0.0
C1605 C 0.21944 0.97143 0.36255 0.0
C1606 C 0.21943 0.95823 0.37025 0.0
C1607 C 0.22766 0.96424 0.38241 0.0
C1608 C 0.21129 0.93815 0.36595 0.0
C1609 C 0.21164 0.96609 0.34924 0.0
C1610 C 0.19244 0.92714 0.36114 0.0
C1611 C 0.18473 0.908 0.35781 0.0
C1612 C 0.19563 0.89947 0.35946 0.0
C1613 C 0.21448 0.91053 0.36424 0.0
C1614 C 0.22222 0.92964 0.3674 0.0
H1615 H 0.2176 0.97838 0.34384 0.0
H1616 H 0.21451 0.95542 0.34504 0.0
H1617 H 0.19628 0.96019 0.34855 0.0
H1618 H 0.18356 0.93323 0.36024 0.0
H1619 H 0.17012 0.89981 0.35425 0.0
H1620 H 0.5178 0.63757 0.30504 0.0
H1621 H 0.53804 0.66917 0.31509 0.0
H1622 H 0.58507 0.66024 0.31646 0.0
H1623 H 0.56491 0.62848 0.30669 0.0
H1624 H 0.56424 0.68259 0.3387 0.0
H1625 H 0.59903 0.70684 0.2963 0.0
H1626 H 0.57657 0.68588 0.2961 0.0
H1627 H 0.59753 0.68597 0.30149 0.0
C1628 C 0.53236 0.64214 0.30769 0.0
C1629 C 0.53972 0.63045 0.30492 0.0
C1630 C 0.54392 0.66026 0.31339 0.0
C1631 C 0.56308 0.66711 0.31637 0.0
C1632 C 0.57036 0.6553 0.31408 0.0
H1633 H 0.65834 0.77736 0.33832 0.0
H1634 H 0.63725 0.74432 0.33171 0.0
C1635 C 0.55881 0.63717 0.30843 0.0
C1636 C 0.57565 0.68687 0.32134 0.0
H1637 H 0.6105 0.72851 0.3138 0.0
C1638 C 0.57436 0.69269 0.33328 0.0
C1639 C 0.58887 0.69994 0.31426 0.0
C1640 C 0.5906 0.69448 0.30129 0.0
C1641 C 0.58622 0.71121 0.33843 0.0
C1642 C 0.59933 0.7244 0.33128 0.0
C1643 C 0.60051 0.71849 0.31931 0.0
C1644 C 0.61212 0.74437 0.33597 0.0
C1645 C 0.58491 0.71624 0.35159 0.0
C1646 C 0.60512 0.75556 0.34057 0.0
C1647 C 0.61723 0.77446 0.34454 0.0
C1648 C 0.63656 0.78268 0.34374 0.0
C1649 C 0.64352 0.77151 0.33904 0.0
C1650 C 0.63146 0.75258 0.33525 0.0
H1651 H 0.57876 0.70374 0.35679 0.0
H1652 H 0.59886 0.72659 0.35632 0.0
H1653 H 0.57569 0.72238 0.35182 0.0
H1654 H 0.59024 0.74979 0.34088 0.0
H1655 H 0.6114 0.78273 0.348 0.0
H1656 H 0.36371 0.91418 0.29398 0.0
H1657 H 0.33359 0.9057 0.3016 0.0
H1658 H 0.33932 0.86792 0.3246 0.0
H1659 H 0.36924 0.8761 0.31698 0.0
H1660 H 0.30113 0.87021 0.30041 0.0
H1661 H 0.32799 0.89947 0.34876 0.0
H1662 H 0.34301 0.90551 0.33655 0.0
H1663 H 0.33531 0.8837 0.34303 0.0
C1664 C 0.35855 0.904 0.30062 0.0
C1665 C 0.36906 0.89595 0.30492 0.0
C1666 C 0.34135 0.89924 0.30502 0.0
C1667 C 0.33432 0.88641 0.31384 0.0
C1668 C 0.34465 0.8782 0.31803 0.0
H1669 H 0.23327 0.83952 0.35193 0.0
H1670 H 0.26345 0.84769 0.34448 0.0
C1671 C 0.3618 0.88293 0.31365 0.0
C1672 C 0.31593 0.88117 0.3184 0.0
H1673 H 0.29508 0.88097 0.34432 0.0
C1674 C 0.29981 0.87265 0.31 0.0
C1675 C 0.31418 0.88421 0.33094 0.0
C1676 C 0.33104 0.89387 0.34035 0.0
C1677 C 0.28198 0.8668 0.31379 0.0
C1678 C 0.28021 0.86997 0.32633 0.0
C1679 C 0.29636 0.87848 0.33473 0.0
C1680 C 0.26182 0.86492 0.33085 0.0
C1681 C 0.26517 0.85684 0.30435 0.0
C1682 C 0.25093 0.87208 0.32585 0.0
C1683 C 0.23363 0.86728 0.32999 0.0
C1684 C 0.22687 0.85545 0.33942 0.0
C1685 C 0.23798 0.84861 0.34464 0.0
C1686 C 0.25526 0.85329 0.34039 0.0
H1687 H 0.26814 0.85039 0.29632 0.0
H1688 H 0.25293 0.84578 0.3083 0.0
H1689 H 0.26142 0.86706 0.30098 0.0
H1690 H 0.25586 0.88152 0.31877 0.0
H1691 H 0.22564 0.87306 0.32585 0.0
H1692 H 0.10261 0.46741 0.30141 0.0
H1693 H 0.11436 0.44698 0.30765 0.0
H1694 H 0.09433 0.44583 0.34305 0.0
H1695 H 0.08192 0.46577 0.33674 0.0
H1696 H 0.14109 0.45459 0.32677 0.0
H1697 H 0.07455 0.39061 0.33294 0.0
H1698 H 0.0753 0.40936 0.32488 0.0
H1699 H 0.07798 0.41141 0.34136 0.0
C1700 C 0.10032 0.4625 0.31043 0.0
C1701 C 0.09123 0.4682 0.31855 0.0
C1702 C 0.1072 0.45094 0.31402 0.0
C1703 C 0.10509 0.44473 0.32578 0.0
C1704 C 0.09587 0.4502 0.33387 0.0
H1705 H 0.17114 0.39986 0.36004 0.0
H1706 H 0.15753 0.41937 0.35514 0.0
C1707 C 0.08896 0.46177 0.33029 0.0
C1708 C 0.11333 0.43326 0.32969 0.0
H1709 H 0.10258 0.39098 0.33949 0.0
C1710 C 0.13268 0.44068 0.32956 0.0
C1711 C 0.10231 0.41506 0.33322 0.0
C1712 C 0.08136 0.40602 0.33302 0.0
C1713 C 0.14131 0.43041 0.33285 0.0
C1714 C 0.13035 0.41234 0.33661 0.0
C1715 C 0.11099 0.40491 0.33673 0.0
C1716 C 0.13853 0.40053 0.33984 0.0
C1717 C 0.162 0.4388 0.33195 0.0
C1718 C 0.13209 0.38329 0.33305 0.0
C1719 C 0.13972 0.37207 0.33588 0.0
C1720 C 0.15396 0.37783 0.34559 0.0
C1721 C 0.16031 0.39507 0.35245 0.0
C1722 C 0.1526 0.40628 0.34963 0.0
H1723 H 0.16739 0.45061 0.32613 0.0
H1724 H 0.16964 0.44418 0.34125 0.0
H1725 H 0.16519 0.42817 0.3281 0.0
H1726 H 0.12124 0.37856 0.32547 0.0
H1727 H 0.13445 0.35889 0.33039 0.0
H1728 H 0.36136 0.44543 0.29357 0.0
H1729 H 0.33054 0.42591 0.30063 0.0
H1730 H 0.34433 0.46722 0.33097 0.0
H1731 H 0.37488 0.48695 0.32386 0.0
H1732 H 0.32106 0.41103 0.32387 0.0
H1733 H 0.29447 0.45916 0.31414 0.0
H1734 H 0.31477 0.4609 0.30778 0.0
H1735 H 0.31658 0.4698 0.32338 0.0
C1736 C 0.35779 0.45043 0.3017 0.0
C1737 C 0.37064 0.46783 0.30811 0.0
C1738 C 0.34021 0.43919 0.30577 0.0
C1739 C 0.33502 0.4452 0.31624 0.0
C1740 C 0.3479 0.46239 0.32277 0.0
H1741 H 0.24261 0.38175 0.35946 0.0
H1742 H 0.27326 0.4004 0.35208 0.0
C1743 C 0.36547 0.47358 0.31875 0.0
C1744 C 0.31614 0.4336 0.32036 0.0
H1745 H 0.27586 0.43367 0.32532 0.0
C1746 C 0.31115 0.41595 0.32416 0.0
C1747 C 0.30313 0.43993 0.32062 0.0
C1748 C 0.30738 0.45841 0.31617 0.0
C1749 C 0.29366 0.40465 0.32844 0.0
C1750 C 0.28087 0.41123 0.32902 0.0
C1751 C 0.28573 0.42871 0.32499 0.0
C1752 C 0.26225 0.40007 0.33359 0.0
C1753 C 0.2889 0.38565 0.33214 0.0
C1754 C 0.24582 0.39405 0.32576 0.0
C1755 C 0.22826 0.38342 0.32996 0.0
C1756 C 0.22671 0.37871 0.34214 0.0
C1757 C 0.24322 0.38509 0.35003 0.0
C1758 C 0.26079 0.39564 0.3458 0.0
H1759 H 0.29824 0.38094 0.32852 0.0
H1760 H 0.29048 0.38625 0.34229 0.0
H1761 H 0.27419 0.37512 0.32882 0.0
H1762 H 0.24659 0.39738 0.31633 0.0
H1763 H 0.2159 0.3788 0.3236 0.0
H1764 H 0.5612 0.9152 0.28417 0.0
H1765 H 0.58135 0.90522 0.29443 0.0
H1766 H 0.53912 0.87532 0.31842 0.0
H1767 H 0.51856 0.88473 0.30792 0.0
H1768 H 0.59599 0.91083 0.3187 0.0
H1769 H 0.54957 0.83524 0.30421 0.0
H1770 H 0.54638 0.85299 0.29749 0.0
H1771 H 0.53873 0.8461 0.31227 0.0
C1772 C 0.55607 0.90635 0.29155 0.0
C1773 C 0.53809 0.90058 0.29509 0.0
C1774 C 0.5677 0.90077 0.29748 0.0
C1775 C 0.56166 0.88924 0.30706 0.0
C1776 C 0.54397 0.88391 0.31089 0.0
H1777 H 0.63293 0.86569 0.35642 0.0
H1778 H 0.61191 0.87573 0.34759 0.0
C1779 C 0.5323 0.88949 0.30496 0.0
C1780 C 0.5739 0.88278 0.31292 0.0
H1781 H 0.57662 0.84372 0.31768 0.0
C1782 C 0.59173 0.89615 0.31851 0.0
C1783 C 0.56845 0.86363 0.31254 0.0
C1784 C 0.54981 0.84863 0.30622 0.0
C1785 C 0.60418 0.89091 0.32377 0.0
C1786 C 0.5986 0.87176 0.32355 0.0
C1787 C 0.58083 0.85839 0.31791 0.0
C1788 C 0.61116 0.86536 0.32895 0.0
C1789 C 0.62337 0.90594 0.32928 0.0
C1790 C 0.61744 0.85581 0.32147 0.0
C1791 C 0.62949 0.85001 0.32648 0.0
C1792 C 0.63537 0.85348 0.33914 0.0
C1793 C 0.62877 0.86279 0.34663 0.0
C1794 C 0.6168 0.86865 0.3416 0.0
H1795 H 0.62699 0.91982 0.32627 0.0
H1796 H 0.62375 0.9069 0.33942 0.0
H1797 H 0.63419 0.90256 0.32676 0.0
H1798 H 0.6132 0.85304 0.31169 0.0
H1799 H 0.63423 0.84286 0.32043 0.0
H1800 H 0.11203 0.63207 0.31914 0.0
H1801 H 0.12629 0.66364 0.3294 0.0
H1802 H 0.0796 0.66837 0.31436 0.0
H1803 H 0.06484 0.63654 0.30457 0.0
H1804 H 0.13796 0.69483 0.31845 0.0
H1805 H 0.08565 0.68964 0.34918 0.0
H1806 H 0.0851 0.66931 0.34192 0.0
H1807 H 0.07536 0.68123 0.33366 0.0
C1808 C 0.10452 0.6396 0.31829 0.0
C1809 C 0.08727 0.63171 0.31099 0.0
C1810 C 0.11278 0.65774 0.32409 0.0
C1811 C 0.10395 0.66837 0.32278 0.0
C1812 C 0.08653 0.66037 0.31575 0.0
H1813 H 0.15482 0.78733 0.32387 0.0
H1814 H 0.14137 0.75381 0.3191 0.0
C1815 C 0.07822 0.64222 0.31 0.0
C1816 C 0.11367 0.68831 0.32781 0.0
H1817 H 0.10785 0.7206 0.34455 0.0
C1818 C 0.13145 0.7004 0.32428 0.0
C1819 C 0.10536 0.6956 0.33558 0.0
C1820 C 0.08691 0.68322 0.34041 0.0
C1821 C 0.1408 0.71964 0.3279 0.0
C1822 C 0.13195 0.72711 0.33499 0.0
C1823 C 0.11452 0.71493 0.33896 0.0
C1824 C 0.14027 0.74754 0.33802 0.0
C1825 C 0.16011 0.73175 0.32409 0.0
C1826 C 0.14366 0.75519 0.35026 0.0
C1827 C 0.15121 0.77442 0.35304 0.0
C1828 C 0.15545 0.78637 0.34362 0.0
C1829 C 0.15192 0.77861 0.33138 0.0
C1830 C 0.14431 0.75942 0.32861 0.0
H1831 H 0.16714 0.72355 0.3223 0.0
H1832 H 0.15897 0.73771 0.31547 0.0
H1833 H 0.16904 0.74343 0.33121 0.0
H1834 H 0.14054 0.74628 0.35767 0.0
H1835 H 0.15368 0.77989 0.36256 0.0
H1836 H 0.78159 0.05143 0.3971 0.0
H1837 H 0.76141 0.01931 0.38792 0.0
H1838 H 0.80794 0.00965 0.39165 0.0
H1839 H 0.82821 0.04169 0.40091 0.0
H1840 H 0.78561 0.99409 0.36912 0.0
H1841 H 0.74277 0.9746 0.40842 0.0
H1842 H 0.74419 0.99414 0.4012 0.0
H1843 H 0.76489 0.996 0.409 0.0
C1844 C 0.78755 0.04248 0.39597 0.0
C1845 C 0.80652 0.04914 0.39987 0.0
C1846 C 0.77598 0.02411 0.39071 0.0
C1847 C 0.78308 0.01196 0.3893 0.0
C1848 C 0.80215 0.01876 0.39268 0.0
H1849 H 0.7199 0.89124 0.38302 0.0
H1850 H 0.74073 0.92451 0.38911 0.0
C1851 C 0.81374 0.03714 0.39793 0.0
C1852 C 0.77052 0.99197 0.38474 0.0
H1853 H 0.73277 0.95176 0.39158 0.0
C1854 C 0.77403 0.98481 0.374 0.0
C1855 C 0.75558 0.97982 0.39123 0.0
C1856 C 0.75167 0.98643 0.40316 0.0
C1857 C 0.76298 0.96586 0.36954 0.0
C1858 C 0.74779 0.95378 0.3759 0.0
C1859 C 0.74433 0.96098 0.38665 0.0
C1860 C 0.73561 0.9335 0.37185 0.0
C1861 C 0.76803 0.9589 0.35826 0.0
C1862 C 0.72568 0.92737 0.36011 0.0
C1863 C 0.7139 0.90828 0.35654 0.0
C1864 C 0.71152 0.89493 0.36473 0.0
C1865 C 0.72137 0.90112 0.37649 0.0
C1866 C 0.7333 0.92016 0.37999 0.0
H1867 H 0.78278 0.96839 0.35659 0.0
H1868 H 0.76597 0.94472 0.35906 0.0
H1869 H 0.75893 0.95821 0.35015 0.0
H1870 H 0.72679 0.93734 0.35376 0.0
H1871 H 0.70637 0.90402 0.34746 0.0
H1872 H 1.00805 0.79447 0.42718 0.0
H1873 H 0.03565 0.80386 0.41624 0.0
H1874 H 1.00039 0.77909 0.38216 0.0
H1875 H 0.9726 0.76955 0.39308 0.0
H1876 H 0.04536 0.78165 0.40261 0.0
H1877 H 0.0381 0.83094 0.37349 0.0
H1878 H 0.02494 0.82243 0.38647 0.0
H1879 H 0.01803 0.80788 0.37224 0.0
C1880 C 1.0061 0.79093 0.41736 0.0
C1881 C 0.98803 0.7812 0.41104 0.0
C1882 C 0.02194 0.7964 0.4111 0.0
C1883 C 0.02018 0.7924 0.39834 0.0
C1884 C 1.00218 0.78271 0.39196 0.0
H1885 H 0.10602 0.81643 0.348 0.0
H1886 H 0.07634 0.80568 0.35688 0.0
C1887 C 0.98628 0.77724 0.39823 0.0
C1888 C 0.03723 0.79794 0.39189 0.0
H1889 H 0.0627 0.82506 0.37014 0.0
C1890 C 0.04913 0.79115 0.39552 0.0
C1891 C 0.04213 0.81023 0.38255 0.0
C1892 C 0.03024 0.81845 0.3785 0.0
C1893 C 0.06576 0.79631 0.39012 0.0
C1894 C 0.07089 0.80894 0.38098 0.0
C1895 C 0.05881 0.81544 0.37716 0.0
C1896 C 0.08897 0.81591 0.37554 0.0
C1897 C 0.07755 0.78796 0.39415 0.0
C1898 C 0.10602 0.82562 0.38302 0.0
C1899 C 0.12303 0.83179 0.37803 0.0
C1900 C 0.1234 0.82852 0.36535 0.0
C1901 C 0.10631 0.81919 0.35783 0.0
C1902 C 0.08928 0.813 0.36285 0.0
H1903 H 0.06922 0.77474 0.39836 0.0
H1904 H 0.08392 0.78514 0.38632 0.0
H1905 H 0.08898 0.79793 0.40113 0.0
H1906 H 0.10621 0.82844 0.39281 0.0
H1907 H 0.1358 0.83897 0.38411 0.0
H1908 H 0.2392 0.19764 0.37282 0.0
H1909 H 0.22756 0.21789 0.36603 0.0
H1910 H 0.25951 0.25789 0.3971 0.0
H1911 H 0.27181 0.238 0.40375 0.0
H1912 H 0.20656 0.22874 0.37884 0.0
H1913 H 0.27209 0.2907 0.36866 0.0
H1914 H 0.27039 0.26842 0.37053 0.0
H1915 H 0.27311 0.28361 0.38374 0.0
C1916 C 0.24412 0.21093 0.37808 0.0
C1917 C 0.25654 0.2162 0.38882 0.0
C1918 C 0.23732 0.22243 0.37423 0.0
C1919 C 0.2428 0.2395 0.38097 0.0
C1920 C 0.25533 0.24493 0.39162 0.0
H1921 H 0.18477 0.30222 0.37989 0.0
H1922 H 0.19873 0.2832 0.38503 0.0
C1923 C 0.26218 0.23343 0.39549 0.0
C1924 C 0.2345 0.25098 0.37722 0.0
H1925 H 0.24513 0.29396 0.36876 0.0
C1926 C 0.21499 0.24298 0.37659 0.0
C1927 C 0.2455 0.26949 0.37418 0.0
C1928 C 0.26642 0.27855 0.37419 0.0
C1929 C 0.20622 0.25307 0.3732 0.0
C1930 C 0.21725 0.27175 0.37051 0.0
C1931 C 0.23673 0.27967 0.37092 0.0
C1932 C 0.20879 0.28329 0.36732 0.0
C1933 C 0.18518 0.2436 0.37238 0.0
C1934 C 0.21002 0.28986 0.3557 0.0
C1935 C 0.20201 0.30074 0.35271 0.0
C1936 C 0.19278 0.3054 0.36134 0.0
C1937 C 0.19168 0.29884 0.373 0.0
C1938 C 0.19961 0.28791 0.37595 0.0
H1939 H 0.17859 0.22816 0.37182 0.0
H1940 H 0.18106 0.24822 0.3807 0.0
H1941 H 0.17955 0.2474 0.36426 0.0
H1942 H 0.2171 0.28649 0.34893 0.0
H1943 H 0.20322 0.30564 0.34368 0.0
H1944 H 0.65712 0.55828 0.74508 0.0
H1945 H 0.68741 0.57855 0.73776 0.0
H1946 H 0.66339 0.55696 0.70046 0.0
H1947 H 0.63291 0.53737 0.70762 0.0
H1948 H 0.70857 0.56835 0.72566 0.0
H1949 H 0.69154 0.61193 0.69691 0.0
H1950 H 0.67608 0.59735 0.7075 0.0
H1951 H 0.67654 0.58741 0.69265 0.0
C1952 C 0.65813 0.55814 0.73529 0.0
C1953 C 0.64246 0.54611 0.72697 0.0
C1954 C 0.67555 0.56965 0.73112 0.0
C1955 C 0.67773 0.56949 0.71853 0.0
C1956 C 0.66207 0.55768 0.71019 0.0
H1957 H 0.77704 0.62098 0.67819 0.0
H1958 H 0.74551 0.60062 0.68412 0.0
C1959 C 0.64465 0.54624 0.71434 0.0
C1960 C 0.69656 0.58084 0.71421 0.0
H1961 H 0.72092 0.61387 0.69494 0.0
C1962 C 0.71125 0.57836 0.71898 0.0
C1963 C 0.70012 0.59388 0.70545 0.0
C1964 C 0.68529 0.59796 0.70041 0.0
C1965 C 0.72927 0.58841 0.7152 0.0
C1966 C 0.73279 0.60138 0.70645 0.0
C1967 C 0.71813 0.60379 0.70157 0.0
C1968 C 0.75189 0.61334 0.7028 0.0
C1969 C 0.74444 0.58503 0.72054 0.0
C1970 C 0.76587 0.62723 0.71131 0.0
C1971 C 0.78376 0.63889 0.70795 0.0
C1972 C 0.78817 0.6369 0.69598 0.0
C1973 C 0.77418 0.62281 0.68748 0.0
C1974 C 0.75614 0.61123 0.69084 0.0
H1975 H 0.73865 0.57189 0.72508 0.0
H1976 H 0.75292 0.58438 0.7133 0.0
H1977 H 0.7539 0.59677 0.72749 0.0
H1978 H 0.76286 0.62921 0.72054 0.0
H1979 H 0.79415 0.64953 0.71476 0.0
H1980 H 0.49897 0.12676 0.71844 0.0
H1981 H 0.47576 0.13514 0.7114 0.0
H1982 H 0.44861 0.11744 0.74427 0.0
H1983 H 0.47147 0.1085 0.75129 0.0
H1984 H 0.43472 0.11127 0.70805 0.0
H1985 H 0.45979 0.17242 0.74258 0.0
H1986 H 0.47408 0.16238 0.7389 0.0
H1987 H 0.45543 0.15085 0.74835 0.0
C1988 C 0.48794 0.12437 0.72414 0.0
C1989 C 0.48719 0.11693 0.73548 0.0
C1990 C 0.47474 0.12931 0.72011 0.0
C1991 C 0.46059 0.12712 0.72737 0.0
C1992 C 0.45961 0.11953 0.73862 0.0
H1993 H 0.37452 0.1585 0.71954 0.0
H1994 H 0.39618 0.1483 0.72691 0.0
C1995 C 0.47275 0.11448 0.74263 0.0
C1996 C 0.44685 0.13276 0.72312 0.0
H1997 H 0.43297 0.16458 0.72923 0.0
C1998 C 0.43432 0.12293 0.71266 0.0
C1999 C 0.44627 0.14788 0.7292 0.0
C2000 C 0.45966 0.15914 0.74034 0.0
C2001 C 0.42106 0.12766 0.7082 0.0
C2002 C 0.4207 0.14308 0.71413 0.0
C2003 C 0.43321 0.15281 0.72465 0.0
C2004 C 0.40755 0.14937 0.70957 0.0
C2005 C 0.40726 0.11574 0.69737 0.0
C2006 C 0.40689 0.15375 0.69742 0.0
C2007 C 0.39432 0.15936 0.69313 0.0
C2008 C 0.3824 0.16113 0.70097 0.0
C2009 C 0.38348 0.15731 0.71324 0.0
C2010 C 0.39588 0.15145 0.71748 0.0
H2011 H 0.40542 0.1015 0.6965 0.0
H2012 H 0.39338 0.11447 0.69812 0.0
H2013 H 0.41259 0.1222 0.68883 0.0
H2014 H 0.41614 0.1529 0.69123 0.0
H2015 H 0.39405 0.16241 0.68367 0.0
H2016 H 0.95162 0.38334 0.73358 0.0
H2017 H 0.9374 0.35149 0.72377 0.0
H2018 H 0.88699 0.3524 0.71281 0.0
H2019 H 0.90089 0.38412 0.72288 0.0
H2020 H 0.90188 0.3215 0.73123 0.0
H2021 H 0.89905 0.3302 0.68133 0.0
H2022 H 0.91561 0.34881 0.69256 0.0
H2023 H 0.8915 0.34265 0.6912 0.0
C2024 C 0.93753 0.37684 0.72904 0.0
C2025 C 0.92735 0.38627 0.72914 0.0
C2026 C 0.92949 0.35868 0.72336 0.0
C2027 C 0.9112 0.34965 0.71752 0.0
C2028 C 0.90123 0.35924 0.71713 0.0
H2029 H 0.83902 0.23436 0.68502 0.0
H2030 H 0.85215 0.26769 0.69139 0.0
C2031 C 0.90924 0.3774 0.72287 0.0
C2032 C 0.90201 0.32965 0.71294 0.0
H2033 H 0.88522 0.29935 0.68694 0.0
C2034 C 0.89825 0.31664 0.72155 0.0
C2035 C 0.89708 0.32339 0.70032 0.0
C2036 C 0.90106 0.33692 0.69075 0.0
C2037 C 0.88971 0.29748 0.71789 0.0
C2038 C 0.88526 0.29119 0.70524 0.0
C2039 C 0.88871 0.30419 0.69662 0.0
C2040 C 0.8776 0.27125 0.70086 0.0
C2041 C 0.88529 0.28414 0.72766 0.0
C2042 C 0.88773 0.26232 0.70383 0.0
C2043 C 0.88025 0.24334 0.70032 0.0
C2044 C 0.86255 0.23289 0.69358 0.0
C2045 C 0.85266 0.24199 0.69025 0.0
C2046 C 0.86014 0.26103 0.69385 0.0
H2047 H 0.88425 0.29034 0.73658 0.0
H2048 H 0.87197 0.2709 0.72495 0.0
H2049 H 0.89668 0.28084 0.72904 0.0
H2050 H 0.90143 0.27002 0.70897 0.0
H2051 H 0.88836 0.23687 0.70292 0.0
H2052 H 0.23098 0.96112 0.64279 0.0
H2053 H 0.25164 0.99282 0.65257 0.0
H2054 H 0.20948 1.00727 0.64285 0.0
H2055 H 0.18878 0.97567 0.63308 0.0
H2056 H 0.26602 0.02531 0.64203 0.0
H2057 H 0.22398 0.02716 0.67869 0.0
H2058 H 0.219 1.0057 0.67019 0.0
H2059 H 0.21114 0.02044 0.66376 0.0
C2060 C 0.22606 0.97102 0.64278 0.0
C2061 C 0.20817 0.96579 0.63716 0.0
C2062 C 0.23788 0.98913 0.64842 0.0
C2063 C 0.23206 1.00241 0.64861 0.0
C2064 C 0.21414 0.99718 0.64311 0.0
H2065 H 0.30288 0.12293 0.65599 0.0
H2066 H 0.28233 0.08994 0.6489 0.0
C2067 C 0.2023 0.97907 0.63751 0.0
C2068 C 0.24509 0.02199 0.6539 0.0
H2069 H 0.2492 0.05658 0.67443 0.0
C2070 C 0.26238 0.0321 0.64918 0.0
C2071 C 0.24052 0.03081 0.66336 0.0
C2072 C 0.22274 0.02042 0.66939 0.0
C2073 C 0.27497 0.05087 0.65339 0.0
C2074 C 0.26998 0.05997 0.6624 0.0
C2075 C 0.25293 0.04971 0.6674 0.0
C2076 C 0.28225 0.0801 0.66678 0.0
C2077 C 0.2936 0.0607 0.64824 0.0
C2078 C 0.28862 0.08568 0.67926 0.0
C2079 C 0.30025 0.10458 0.6834 0.0
C2080 C 0.30572 0.11835 0.67511 0.0
C2081 C 0.29908 0.11272 0.66263 0.0
C2082 C 0.28741 0.09383 0.65852 0.0
H2083 H 0.29746 0.05062 0.64431 0.0
H2084 H 0.29276 0.06886 0.64078 0.0
H2085 H 0.30488 0.07046 0.65539 0.0
H2086 H 0.28476 0.07536 0.68583 0.0
H2087 H 0.30504 0.10836 0.69306 0.0
H2088 H 0.02931 0.24544 0.62638 0.0
H2089 H 0.99925 0.23689 0.6341 0.0
H2090 H 1.007 0.20197 0.65877 0.0
H2091 H 0.03688 0.21024 0.65105 0.0
H2092 H 0.96753 0.20118 0.63405 0.0
H2093 H 0.99506 0.23444 0.68161 0.0
H2094 H 0.00977 0.23979 0.66927 0.0
H2095 H 1.00282 0.21873 0.67657 0.0
C2096 C 0.0246 0.23588 0.63341 0.0
C2097 C 0.03566 0.22866 0.63814 0.0
C2098 C 1.00744 0.23107 0.63786 0.0
C2099 C 1.00099 0.21904 0.64718 0.0
C2100 C 0.01187 0.21165 0.65181 0.0
H2101 H 0.90066 0.17363 0.68605 0.0
H2102 H 0.93078 0.18152 0.67862 0.0
C2103 C 0.029 0.21642 0.64737 0.0
C2104 C 0.98264 0.21375 0.65179 0.0
H2105 H 0.96216 0.21517 0.67759 0.0
C2106 C 0.96636 0.20431 0.64356 0.0
C2107 C 0.98109 0.21771 0.66423 0.0
C2108 C 0.99811 0.22837 0.67343 0.0
C2109 C 0.94858 0.19848 0.64742 0.0
C2110 C 0.94701 0.20258 0.65984 0.0
C2111 C 0.96331 0.21197 0.66809 0.0
C2112 C 0.92867 0.19767 0.66437 0.0
C2113 C 0.93162 0.18758 0.63819 0.0
C2114 C 0.91754 0.20432 0.659 0.0
C2115 C 0.9003 0.19971 0.66316 0.0
C2116 C 0.89382 0.18854 0.67294 0.0
C2117 C 0.90514 0.18218 0.67849 0.0
C2118 C 0.92239 0.18671 0.67425 0.0
H2119 H 0.93459 0.18068 0.63042 0.0
H2120 H 0.91964 0.17675 0.64249 0.0
H2121 H 0.92745 0.19726 0.63439 0.0
H2122 H 0.92226 0.21323 0.65162 0.0
H2123 H 0.89212 0.20508 0.65872 0.0
H2124 H 0.76222 0.79455 0.63375 0.0
H2125 H 0.77365 0.77374 0.63975 0.0
H2126 H 0.76946 0.78575 0.67771 0.0
H2127 H 0.75732 0.80603 0.67177 0.0
H2128 H 0.80582 0.78371 0.65462 0.0
H2129 H 0.74407 0.72899 0.67426 0.0
H2130 H 0.74274 0.74559 0.66486 0.0
H2131 H 0.75184 0.75231 0.68074 0.0
C2132 C 0.76331 0.79246 0.64336 0.0
C2133 C 0.7588 0.80198 0.65227 0.0
C2134 C 0.77 0.78067 0.64678 0.0
C2135 C 0.77226 0.77805 0.65917 0.0
C2136 C 0.76755 0.78731 0.66808 0.0
H2137 H 0.84223 0.73558 0.69006 0.0
H2138 H 0.82855 0.75501 0.68503 0.0
C2139 C 0.76082 0.79908 0.66467 0.0
C2140 C 0.78051 0.76645 0.66276 0.0
H2141 H 0.77222 0.72799 0.67727 0.0
C2142 C 0.79846 0.77152 0.65956 0.0
C2143 C 0.77085 0.75046 0.66913 0.0
C2144 C 0.75124 0.74387 0.67237 0.0
C2145 C 0.80705 0.76113 0.66264 0.0
C2146 C 0.79755 0.74539 0.66923 0.0
C2147 C 0.77955 0.74021 0.67234 0.0
C2148 C 0.80577 0.73367 0.6725 0.0
C2149 C 0.82607 0.76682 0.65859 0.0
C2150 C 0.79735 0.71518 0.66726 0.0
C2151 C 0.80512 0.70408 0.67008 0.0
C2152 C 0.82142 0.71118 0.6783 0.0
C2153 C 0.82972 0.72968 0.68366 0.0
C2154 C 0.82196 0.74082 0.68077 0.0
H2155 H 0.82982 0.77689 0.65153 0.0
H2156 H 0.83678 0.77354 0.66662 0.0
H2157 H 0.82659 0.75443 0.65481 0.0
H2158 H 0.78484 0.70939 0.66087 0.0
H2159 H 0.79827 0.68988 0.66581 0.0
H2160 H 0.0352 0.77826 0.63275 0.0
H2161 H 1.00433 0.75774 0.63946 0.0
H2162 H 1.00428 0.80563 0.65663 0.0
H2163 H 0.03475 0.82617 0.64974 0.0
H2164 H 0.99298 0.7529 0.66328 0.0
H2165 H 0.9543 0.77873 0.63504 0.0
H2166 H 0.97748 0.78353 0.63238 0.0
H2167 H 0.97434 0.79697 0.6444 0.0
C2168 C 0.02853 0.78443 0.63785 0.0
C2169 C 0.03751 0.8039 0.64068 0.0
C2170 C 0.01093 0.77267 0.64175 0.0
C2171 C 1.00185 0.78014 0.64842 0.0
C2172 C 0.01084 0.79953 0.65133 0.0
H2173 H 0.90933 0.7228 0.69297 0.0
H2174 H 0.93986 0.74175 0.68551 0.0
C2175 C 0.0284 0.81126 0.64748 0.0
C2176 C 0.98308 0.76777 0.65248 0.0
H2177 H 0.93832 0.75979 0.65065 0.0
C2178 C 0.98099 0.75432 0.66047 0.0
C2179 C 0.96735 0.76942 0.64869 0.0
C2180 C 0.96837 0.78281 0.63956 0.0
C2181 C 0.96374 0.74282 0.66499 0.0
C2182 C 0.9482 0.74504 0.66161 0.0
C2183 C 0.95022 0.7582 0.65339 0.0
C2184 C 0.92962 0.73365 0.66627 0.0
C2185 C 0.96229 0.72817 0.67316 0.0
C2186 C 0.91349 0.72327 0.65798 0.0
C2187 C 0.89596 0.71267 0.66222 0.0
C2188 C 0.89409 0.71216 0.67488 0.0
C2189 C 0.91022 0.72275 0.68317 0.0
C2190 C 0.92776 0.73348 0.67891 0.0
H2191 H 0.97339 0.7246 0.67193 0.0
H2192 H 0.964 0.73363 0.68288 0.0
H2193 H 0.94846 0.71522 0.6713 0.0
H2194 H 0.91447 0.72321 0.64819 0.0
H2195 H 0.8839 0.70467 0.65553 0.0
H2196 H 0.22921 0.26069 0.63108 0.0
H2197 H 0.24883 0.24983 0.64106 0.0
H2198 H 0.20031 0.19561 0.64225 0.0
H2199 H 0.18063 0.20616 0.63192 0.0
H2200 H 0.24781 0.23493 0.66362 0.0
H2201 H 0.23583 0.18381 0.62442 0.0
H2202 H 0.22972 0.20177 0.62313 0.0
H2203 H 0.21497 0.18112 0.63029 0.0
C2204 C 0.22269 0.24641 0.6334 0.0
C2205 C 0.20332 0.23425 0.63055 0.0
C2206 C 0.23393 0.24027 0.63919 0.0
C2207 C 0.22612 0.22181 0.64223 0.0
C2208 C 0.20672 0.20982 0.6398 0.0
H2209 H 0.28433 0.17845 0.68768 0.0
H2210 H 0.26229 0.18776 0.67949 0.0
C2211 C 0.19544 0.21595 0.63401 0.0
C2212 C 0.23838 0.21509 0.64767 0.0
H2213 H 0.25369 0.18422 0.64223 0.0
C2214 C 0.24905 0.22379 0.65897 0.0
C2215 C 0.24017 0.20071 0.64152 0.0
C2216 C 0.22971 0.19138 0.62912 0.0
C2217 C 0.26138 0.21845 0.6643 0.0
C2218 C 0.26296 0.2039 0.65823 0.0
C2219 C 0.25234 0.19525 0.64692 0.0
C2220 C 0.27612 0.19795 0.66321 0.0
C2221 C 0.27298 0.22875 0.67624 0.0
C2222 C 0.29099 0.20019 0.65667 0.0
C2223 C 0.3036 0.19486 0.66131 0.0
C2224 C 0.30154 0.18701 0.67257 0.0
C2225 C 0.2864 0.18447 0.67901 0.0
C2226 C 0.27384 0.1899 0.67437 0.0
H2227 H 0.2731 0.24205 0.67837 0.0
H2228 H 0.26706 0.21986 0.68381 0.0
H2229 H 0.28762 0.23185 0.67598 0.0
H2230 H 0.29298 0.20628 0.64801 0.0
H2231 H 0.31501 0.19697 0.65606 0.0
H2232 H 0.73191 0.97025 0.6359 0.0
H2233 H 0.74668 1.00228 0.64539 0.0
H2234 H 0.79164 0.99667 0.66265 0.0
H2235 H 0.77746 0.96491 0.6527 0.0
H2236 H 0.75703 0.01853 0.669 0.0
H2237 H 0.81947 0.04141 0.64354 0.0
H2238 H 0.79865 0.01892 0.63998 0.0
H2239 H 0.81508 0.02282 0.6529 0.0
C2240 C 0.74499 0.97582 0.64166 0.0
C2241 C 0.75364 0.96505 0.64334 0.0
C2242 C 0.75333 0.99411 0.64718 0.0
C2243 C 0.77048 1.00203 0.65452 0.0
C2244 C 0.77863 0.991 0.65679 0.0
H2245 H 0.81994 0.11299 0.69547 0.0
H2246 H 0.80605 0.07935 0.69031 0.0
C2247 C 0.77035 0.97273 0.65121 0.0
C2248 C 0.78013 0.02207 0.65927 0.0
H2249 H 0.81967 0.06396 0.65762 0.0
C2250 C 0.77077 0.02846 0.66658 0.0
C2251 C 0.79796 0.03507 0.65595 0.0
C2252 C 0.80834 0.0293 0.64757 0.0
C2253 C 0.77865 0.0475 0.67056 0.0
C2254 C 0.79657 0.06045 0.66734 0.0
C2255 C 0.80601 0.05401 0.66016 0.0
C2256 C 0.80535 0.08088 0.67067 0.0
C2257 C 0.76742 0.05363 0.67778 0.0
C2258 C 0.81013 0.09301 0.66139 0.0
C2259 C 0.81828 0.11224 0.66432 0.0
C2260 C 0.82184 0.1198 0.6766 0.0
C2261 C 0.81728 0.10765 0.68592 0.0
C2262 C 0.80921 0.08838 0.68297 0.0
H2263 H 0.75236 0.04282 0.67686 0.0
H2264 H 0.77272 0.05621 0.68763 0.0
H2265 H 0.76877 0.06677 0.67474 0.0
H2266 H 0.80735 0.08757 0.65184 0.0
H2267 H 0.82159 0.12115 0.65689 0.0
H2268 H 0.45068 0.376 0.74476 0.0
H2269 H 0.43127 0.34476 0.73419 0.0
H2270 H 0.47466 0.35484 0.7109 0.0
H2271 H 0.49454 0.38595 0.72178 0.0
H2272 H 0.41751 0.33217 0.70978 0.0
H2273 H 0.46575 0.30721 0.72549 0.0
H2274 H 0.46809 0.32881 0.73193 0.0
H2275 H 0.47585 0.32751 0.71719 0.0
C2276 C 0.4562 0.37157 0.73745 0.0
C2277 C 0.47434 0.38343 0.73428 0.0
C2278 C 0.445 0.35373 0.73134 0.0
C2279 C 0.45163 0.34729 0.72191 0.0
C2280 C 0.46939 0.35935 0.71832 0.0
H2281 H 0.39963 0.23356 0.68504 0.0
H2282 H 0.42051 0.2671 0.69059 0.0
C2283 C 0.48066 0.37723 0.72447 0.0
C2284 C 0.44002 0.32778 0.71615 0.0
H2285 H 0.43826 0.2857 0.71309 0.0
C2286 C 0.42209 0.32203 0.71044 0.0
C2287 C 0.44603 0.31455 0.71696 0.0
C2288 C 0.46491 0.31971 0.7233 0.0
C2289 C 0.40993 0.30342 0.70568 0.0
C2290 C 0.41569 0.29006 0.70687 0.0
C2291 C 0.43384 0.29592 0.71221 0.0
C2292 C 0.40282 0.26981 0.70321 0.0
C2293 C 0.39102 0.29826 0.6994 0.0
C2294 C 0.38606 0.26011 0.7086 0.0
C2295 C 0.3741 0.24098 0.70545 0.0
C2296 C 0.37871 0.23105 0.69692 0.0
C2297 C 0.39562 0.24076 0.69163 0.0
C2298 C 0.40758 0.25994 0.69478 0.0
H2299 H 0.39105 0.31056 0.69582 0.0
H2300 H 0.38659 0.28725 0.69168 0.0
H2301 H 0.38052 0.29287 0.70611 0.0
H2302 H 0.3823 0.26728 0.71537 0.0
H2303 H 0.36128 0.23398 0.70977 0.0
H2304 H 0.67407 0.12672 0.75976 0.0
H2305 H 0.7019 0.13648 0.74902 0.0
H2306 H 0.66728 0.11316 0.7146 0.0
H2307 H 0.63924 0.1033 0.72531 0.0
H2308 H 0.71174 0.11476 0.73515 0.0
H2309 H 0.70544 0.16531 0.70682 0.0
H2310 H 0.69191 0.15629 0.71958 0.0
H2311 H 0.6853 0.14228 0.70514 0.0
C2312 C 0.67231 0.12358 0.7499 0.0
C2313 C 0.65435 0.11417 0.74342 0.0
C2314 C 0.68829 0.12926 0.74376 0.0
C2315 C 0.68676 0.12577 0.73097 0.0
C2316 C 0.66887 0.11639 0.72443 0.0
H2317 H 0.77329 0.15063 0.68122 0.0
H2318 H 0.74351 0.13987 0.68993 0.0
C2319 C 0.65284 0.11073 0.73058 0.0
C2320 C 0.70395 0.1315 0.72466 0.0
H2321 H 0.72997 0.15935 0.70338 0.0
C2322 C 0.71572 0.12452 0.72821 0.0
C2323 C 0.70911 0.14414 0.71553 0.0
C2324 C 0.69739 0.1526 0.71158 0.0
C2325 C 0.73245 0.12982 0.72293 0.0
C2326 C 0.73782 0.14277 0.71399 0.0
C2327 C 0.72589 0.14948 0.71025 0.0
C2328 C 0.75597 0.14979 0.70865 0.0
C2329 C 0.74412 0.1213 0.72688 0.0
C2330 C 0.77294 0.15933 0.71623 0.0
C2331 C 0.78999 0.1655 0.71131 0.0
C2332 C 0.7905 0.16239 0.69864 0.0
C2333 C 0.77348 0.15325 0.69102 0.0
C2334 C 0.7564 0.14707 0.69597 0.0
H2335 H 0.73569 0.10799 0.73097 0.0
H2336 H 0.75052 0.1186 0.71902 0.0
H2337 H 0.75553 0.13112 0.73393 0.0
H2338 H 0.77301 0.16199 0.72601 0.0
H2339 H 0.80274 0.17255 0.71748 0.0
H2340 H 0.90413 0.52978 0.70759 0.0
H2341 H 0.89227 0.54998 0.70107 0.0
H2342 H 0.92921 0.59252 0.72971 0.0
H2343 H 0.94165 0.5726 0.73607 0.0
H2344 H 0.87425 0.56352 0.715 0.0
H2345 H 0.93807 0.62176 0.69952 0.0
H2346 H 0.93592 0.59944 0.70197 0.0
H2347 H 0.94113 0.61623 0.7148 0.0
C2348 C 0.91005 0.54358 0.71236 0.0
C2349 C 0.92394 0.54958 0.72232 0.0
C2350 C 0.90313 0.55506 0.70867 0.0
C2351 C 0.90998 0.57283 0.71481 0.0
C2352 C 0.92394 0.57898 0.7247 0.0
H2353 H 0.85453 0.63831 0.71414 0.0
H2354 H 0.86839 0.61929 0.71952 0.0
C2355 C 0.93089 0.56749 0.72841 0.0
C2356 C 0.90173 0.58444 0.71123 0.0
H2357 H 0.91203 0.62626 0.70079 0.0
C2358 C 0.88251 0.57722 0.71187 0.0
C2359 C 0.91248 0.60223 0.70703 0.0
C2360 C 0.93301 0.61035 0.70566 0.0
C2361 C 0.87378 0.58739 0.70856 0.0
C2362 C 0.88461 0.60538 0.70467 0.0
C2363 C 0.90379 0.61252 0.70387 0.0
C2364 C 0.87624 0.61698 0.70138 0.0
C2365 C 0.85297 0.57867 0.70909 0.0
C2366 C 0.87632 0.62226 0.68943 0.0
C2367 C 0.86842 0.63317 0.68631 0.0
C2368 C 0.8604 0.63914 0.69512 0.0
C2369 C 0.86045 0.63388 0.7071 0.0
C2370 C 0.86833 0.62295 0.71019 0.0
H2371 H 0.84605 0.56329 0.70925 0.0
H2372 H 0.85037 0.58451 0.71757 0.0
H2373 H 0.84639 0.5818 0.70112 0.0
H2374 H 0.88242 0.61784 0.6825 0.0
H2375 H 0.86872 0.63704 0.67702 0.0
H2376 H 0.44237 0.95839 0.19664 0.0
H2377 H 0.45 0.96809 0.17615 0.0
H2378 H 0.50409 0.97313 0.18364 0.0
H2379 H 0.49676 0.96376 0.20426 0.0
H2380 H 0.48014 1.00161 0.16935 0.0
H2381 H 0.48256 0.93924 0.15106 0.0
H2382 H 0.47199 0.9397 0.16485 0.0
H2383 H 0.49698 0.95085 0.16521 0.0
C2384 C 0.45598 0.96172 0.19401 0.0
C2385 C 0.46892 0.96023 0.20218 0.0
C2386 C 0.46027 0.96717 0.18224 0.0
C2387 C 0.47751 0.9711 0.17827 0.0
C2388 C 0.49054 0.9698 0.18639 0.0
H2389 H 0.52766 1.00403 0.10985 0.0
H2390 H 0.52057 0.99462 0.13049 0.0
C2391 C 0.4863 0.9644 0.19819 0.0
C2392 C 0.48192 0.97684 0.16572 0.0
H2393 H 0.49187 0.96395 0.13838 0.0
C2394 C 0.48265 0.99336 0.16256 0.0
C2395 C 0.48526 0.96609 0.15687 0.0
C2396 C 0.48403 0.9479 0.15958 0.0
C2397 C 0.48693 0.99959 0.15089 0.0
C2398 C 0.49013 0.98878 0.14198 0.0
C2399 C 0.48942 0.97226 0.14517 0.0
C2400 C 0.49426 0.99435 0.12934 0.0
C2401 C 0.48845 0.01797 0.14833 0.0
C2402 C 0.48171 0.99703 0.12168 0.0
C2403 C 0.48575 1.00245 0.10986 0.0
C2404 C 0.50234 1.00509 0.10536 0.0
C2405 C 0.51469 1.00199 0.11296 0.0
C2406 C 0.51069 0.99668 0.1248 0.0
H2407 H 0.49106 0.02694 0.15694 0.0
H2408 H 0.49987 0.02574 0.14252 0.0
H2409 H 0.47511 0.0153 0.1434 0.0
H2410 H 0.46868 0.9948 0.12479 0.0
H2411 H 0.47576 1.00436 0.10419 0.0
H2412 H 0.05869 0.50451 0.20636 0.0
H2413 H 0.05246 0.50467 0.18431 0.0
H2414 H 1.00431 0.50988 0.19048 0.0
H2415 H 0.01052 0.50982 0.21259 0.0
H2416 H 0.02166 0.48039 0.16866 0.0
H2417 H 0.03193 0.55181 0.16911 0.0
H2418 H 0.03906 0.54374 0.18223 0.0
H2419 H 0.01495 0.53724 0.17884 0.0
C2420 C 0.04673 0.50563 0.20303 0.0
C2421 C 0.03511 0.50718 0.21124 0.0
C2422 C 0.04324 0.5058 0.19042 0.0
C2423 C 0.02809 0.50757 0.18574 0.0
C2424 C 0.01635 0.50897 0.19389 0.0
H2425 H 0.98118 0.50635 0.11253 0.0
H2426 H 0.98813 0.50721 0.1346 0.0
C2427 C 0.0199 0.50889 0.20653 0.0
C2428 C 0.02433 0.50741 0.17229 0.0
H2429 H 0.01965 0.53276 0.15018 0.0
C2430 C 0.02132 0.49189 0.16461 0.0
C2431 C 0.02387 0.52241 0.16701 0.0
C2432 C 0.02779 0.53982 0.1747 0.0
C2433 C 0.01754 0.49079 0.15184 0.0
C2434 C 0.01705 0.50577 0.14657 0.0
C2435 C 0.02005 0.52129 0.15424 0.0
C2436 C 0.01312 0.50546 0.13313 0.0
C2437 C 0.01365 0.4734 0.14413 0.0
C2438 C 0.02503 0.50448 0.12496 0.0
C2439 C 0.02102 0.50384 0.11229 0.0
C2440 C 1.00505 0.50425 0.10755 0.0
C2441 C 0.9934 0.50565 0.11582 0.0
C2442 C 0.99742 0.50628 0.12846 0.0
H2443 H 0.00995 0.4615 0.14974 0.0
H2444 H 1.00208 0.46927 0.13678 0.0
H2445 H 0.02636 0.47618 0.13973 0.0
H2446 H 0.03743 0.50418 0.12837 0.0
H2447 H 0.03025 0.50268 0.10621 0.0
H2448 H 0.50011 0.51306 0.20896 0.0
H2449 H 0.50847 0.51307 0.18792 0.0
H2450 H 0.45318 0.50028 0.17389 0.0
H2451 H 0.4449 0.50075 0.1948 0.0
H2452 H 0.49214 0.48428 0.1688 0.0
H2453 H 0.48658 0.5452 0.15595 0.0
H2454 H 0.48767 0.54006 0.17166 0.0
H2455 H 0.46602 0.52766 0.16187 0.0
C2456 C 0.48981 0.51049 0.2014 0.0
C2457 C 0.47182 0.50694 0.20361 0.0
C2458 C 0.49457 0.51038 0.18937 0.0
C2459 C 0.48154 0.50693 0.1793 0.0
C2460 C 0.46359 0.5033 0.18149 0.0
H2461 H 0.4769 0.49467 0.09989 0.0
H2462 H 0.47045 0.49558 0.12128 0.0
C2463 C 0.4588 0.50336 0.19348 0.0
C2464 C 0.48649 0.50668 0.16651 0.0
H2465 H 0.48881 0.52654 0.13966 0.0
C2466 C 0.49156 0.49362 0.16246 0.0
C2467 C 0.48575 0.51887 0.15821 0.0
C2468 C 0.48139 0.53387 0.16215 0.0
C2469 C 0.49537 0.49207 0.15027 0.0
C2470 C 0.49434 0.50407 0.14194 0.0
C2471 C 0.48948 0.51726 0.14602 0.0
C2472 C 0.49829 0.50321 0.12894 0.0
C2473 C 0.5 0.47727 0.14632 0.0
C2474 C 0.51615 0.50736 0.12611 0.0
C2475 C 0.51996 0.50704 0.11388 0.0
C2476 C 0.506 0.50256 0.10416 0.0
C2477 C 0.48809 0.49839 0.10707 0.0
C2478 C 0.48433 0.4988 0.11931 0.0
H2479 H 0.49597 0.46647 0.15289 0.0
H2480 H 0.49284 0.47035 0.13709 0.0
H2481 H 0.5153 0.48388 0.14583 0.0
H2482 H 0.52727 0.51119 0.13337 0.0
H2483 H 0.53402 0.51075 0.11206 0.0
H2484 H 0.01333 0.52651 0.83081 0.0
H2485 H 0.02018 0.52777 0.85302 0.0
H2486 H 0.9611 0.4964 0.85667 0.0
H2487 H 0.95421 0.4948 0.83452 0.0
H2488 H 0.01132 0.54296 0.87178 0.0
H2489 H 0.97907 0.46701 0.87534 0.0
H2490 H 0.98323 0.47684 0.86082 0.0
H2491 H 0.96296 0.47301 0.86816 0.0
C2492 C 1.00182 0.51983 0.83636 0.0
C2493 C 0.98323 0.51041 0.8309 0.0
C2494 C 1.00574 0.52053 0.84904 0.0
C2495 C 0.99117 0.51187 0.85651 0.0
C2496 C 0.9726 0.5027 0.85108 0.0
H2497 H 0.98295 0.50878 0.9348 0.0
H2498 H 0.97758 0.50814 0.91255 0.0
C2499 C 0.96868 0.50184 0.83841 0.0
C2500 C 0.99533 0.51291 0.87002 0.0
H2501 H 0.98681 0.4863 0.89415 0.0
C2502 C 1.00609 0.53056 0.87665 0.0
C2503 C 0.98856 0.49673 0.8764 0.0
C2504 C 0.97798 0.47733 0.8698 0.0
C2505 C 0.00986 0.53245 0.88947 0.0
C2506 C 1.00271 0.51629 0.89583 0.0
C2507 C 0.99211 0.49866 0.88924 0.0
C2508 C 1.00622 0.51737 0.90935 0.0
C2509 C 0.02115 0.55169 0.8962 0.0
C2510 C 0.0241 0.52273 0.9149 0.0
C2511 C 0.0272 0.52287 0.9276 0.0
C2512 C 0.01246 0.5177 0.93503 0.0
C2513 C 0.99459 0.5126 0.92939 0.0
C2514 C 0.9915 0.51232 0.91668 0.0
H2515 H 0.02306 0.56279 0.89022 0.0
H2516 H 0.01429 0.55291 0.90428 0.0
H2517 H 0.03517 0.55412 0.89959 0.0
H2518 H 0.0356 0.52643 0.90937 0.0
H2519 H 0.04105 0.52653 0.93152 0.0
H2520 H 0.5504 0.48908 0.83774 0.0
H2521 H 0.5422 0.48921 0.85877 0.0
H2522 H 0.52373 0.52822 0.85104 0.0
H2523 H 0.53176 0.52806 0.82993 0.0
H2524 H 0.55655 0.52233 0.87657 0.0
H2525 H 0.47919 0.48446 0.86619 0.0
H2526 H 0.49444 0.4833 0.85558 0.0
H2527 H 0.49227 0.50373 0.8574 0.0
C2528 C 0.5444 0.49753 0.84046 0.0
C2529 C 0.54166 0.5085 0.83212 0.0
C2530 C 0.53982 0.49767 0.85251 0.0
C2531 C 0.5322 0.50858 0.85644 0.0
C2532 C 0.5294 0.51953 0.84816 0.0
H2533 H 0.49267 0.52443 0.92514 0.0
H2534 H 0.50044 0.52441 0.90406 0.0
C2535 C 0.53413 0.51953 0.83613 0.0
C2536 C 0.52763 0.50885 0.86931 0.0
H2537 H 0.49127 0.49622 0.88678 0.0
C2538 C 0.54228 0.51659 0.87882 0.0
C2539 C 0.50903 0.50146 0.87221 0.0
C2540 C 0.49275 0.49263 0.86235 0.0
C2541 C 0.53886 0.51738 0.89117 0.0
C2542 C 0.5202 0.50972 0.89412 0.0
C2543 C 0.50556 0.50204 0.88456 0.0
C2544 C 0.51558 0.50969 0.90704 0.0
C2545 C 0.55534 0.52689 0.90087 0.0
C2546 C 0.52124 0.5012 0.91577 0.0
C2547 C 0.51705 0.50143 0.92792 0.0
C2548 C 0.50688 0.50996 0.93161 0.0
C2549 C 0.50086 0.51807 0.92275 0.0
C2550 C 0.50516 0.51793 0.91063 0.0
H2551 H 0.56835 0.53668 0.89695 0.0
H2552 H 0.55281 0.53476 0.90827 0.0
H2553 H 0.55767 0.5162 0.90501 0.0
H2554 H 0.52891 0.49434 0.91319 0.0
H2555 H 0.52203 0.49513 0.93444 0.0
H2556 H 0.52687 0.02896 0.83237 0.0
H2557 H 0.52334 0.01852 0.85302 0.0
H2558 H 0.54869 0.07559 0.86864 0.0
H2559 H 0.55228 0.08612 0.84809 0.0
H2560 H 0.54878 0.02685 0.87385 0.0
H2561 H 0.49845 0.05062 0.88286 0.0
H2562 H 0.50508 0.04884 0.86773 0.0
H2563 H 0.52024 0.06862 0.87854 0.0
C2564 C 0.53192 0.03931 0.8402 0.0
C2565 C 0.53964 0.05838 0.83854 0.0
C2566 C 0.52982 0.03331 0.85201 0.0
C2567 C 0.53536 0.04623 0.86238 0.0
C2568 C 0.54385 0.06531 0.86077 0.0
H2569 H 0.52908 0.0394 0.94093 0.0
H2570 H 0.53601 0.04946 0.92041 0.0
C2571 C 0.54589 0.07131 0.849 0.0
C2572 C 0.53187 0.0398 0.87487 0.0
H2573 H 0.50936 0.04062 0.89972 0.0
C2574 C 0.5401 0.02978 0.87949 0.0
C2575 C 0.52048 0.04356 0.88223 0.0
C2576 C 0.51039 0.05334 0.87757 0.0
C2577 C 0.53758 0.02382 0.89135 0.0
C2578 C 0.52634 0.02777 0.89873 0.0
C2579 C 0.51807 0.0377 0.89409 0.0
C2580 C 0.52272 0.02153 0.91124 0.0
C2581 C 0.54725 0.01366 0.896 0.0
C2582 C 0.51278 1.00247 0.91292 0.0
C2583 C 0.50857 0.99664 0.92462 0.0
C2584 C 0.5142 0.00975 0.93496 0.0
C2585 C 0.52426 0.02887 0.93322 0.0
C2586 C 0.52837 0.03467 0.92149 0.0
H2587 H 0.55873 0.01557 0.89046 0.0
H2588 H 0.55308 0.01856 0.90573 0.0
H2589 H 0.53695 0.99851 0.89546 0.0
H2590 H 0.50791 0.99206 0.90512 0.0
H2591 H 0.5005 0.98182 0.92551 0.0
H2592 H 0.14116 0.27059 0.52953 0.0
H2593 H 0.14921 0.28073 0.50913 0.0
H2594 H 0.1398 0.32663 0.5172 0.0
H2595 H 0.13229 0.31694 0.53771 0.0
H2596 H 0.12705 0.28438 0.49042 0.0
H2597 H 0.19121 0.35245 0.5046 0.0
H2598 H 0.18069 0.33465 0.51496 0.0
H2599 H 0.17106 0.34936 0.51168 0.0
C2600 C 0.14109 0.28302 0.52705 0.0
C2601 C 0.13613 0.29296 0.53533 0.0
C2602 C 0.14557 0.28872 0.51534 0.0
C2603 C 0.14535 0.30459 0.51166 0.0
C2604 C 0.14039 0.31453 0.51988 0.0
H2605 H 0.16533 0.36124 0.44505 0.0
H2606 H 0.15781 0.35085 0.46542 0.0
C2607 C 0.13589 0.30883 0.53158 0.0
C2608 C 0.14977 0.31041 0.49911 0.0
H2609 H 0.17936 0.34663 0.4836 0.0
C2610 C 0.13856 0.29795 0.48892 0.0
C2611 C 0.16474 0.32814 0.49714 0.0
C2612 C 0.17774 0.34189 0.50766 0.0
C2613 C 0.14167 0.30286 0.47686 0.0
C2614 C 0.15664 0.3206 0.47489 0.0
C2615 C 0.16787 0.33304 0.48508 0.0
C2616 C 0.1609 0.3266 0.46234 0.0
C2617 C 0.12854 0.28918 0.46636 0.0
C2618 C 0.1653 0.31654 0.4538 0.0
C2619 C 0.16964 0.32247 0.44212 0.0
C2620 C 0.16987 0.33873 0.43874 0.0
C2621 C 0.16551 0.34879 0.44735 0.0
C2622 C 0.16112 0.34283 0.45901 0.0
H2623 H 0.11505 0.27869 0.46945 0.0
H2624 H 0.12561 0.29647 0.45908 0.0
H2625 H 0.13508 0.28159 0.46229 0.0
H2626 H 0.16568 0.30425 0.45623 0.0
H2627 H 0.17324 0.31454 0.43583 0.0
H2628 H 0.68367 0.85237 0.5463 0.0
H2629 H 0.67787 0.85245 0.52414 0.0
H2630 H 0.70939 0.82487 0.51761 0.0
H2631 H 0.71535 0.82482 0.53969 0.0
H2632 H 0.70369 0.86857 0.50703 0.0
H2633 H 0.66046 0.79189 0.49582 0.0
H2634 H 0.66552 0.80284 0.5113 0.0
H2635 H 0.6827 0.79938 0.50426 0.0
C2636 C 0.68941 0.84636 0.54015 0.0
C2637 C 0.69987 0.83846 0.54479 0.0
C2638 C 0.68602 0.84636 0.52749 0.0
C2639 C 0.69293 0.83839 0.51921 0.0
C2640 C 0.70353 0.83068 0.52381 0.0
H2641 H 0.68862 0.82501 0.43969 0.0
H2642 H 0.69568 0.82617 0.46184 0.0
C2643 C 0.70691 0.83066 0.53645 0.0
C2644 C 0.68949 0.83857 0.50578 0.0
H2645 H 0.67007 0.81022 0.479 0.0
C2646 C 0.69625 0.85582 0.5009 0.0
C2647 C 0.67984 0.82191 0.4978 0.0
C2648 C 0.67155 0.80294 0.50254 0.0
C2649 C 0.69393 0.85689 0.48823 0.0
C2650 C 0.6843 0.84023 0.48024 0.0
C2651 C 0.67753 0.82298 0.48513 0.0
C2652 C 0.68075 0.84035 0.46682 0.0
C2653 C 0.70214 0.87585 0.48348 0.0
C2654 C 0.66999 0.8479 0.46225 0.0
C2655 C 0.66604 0.84737 0.44961 0.0
C2656 C 0.67264 0.83913 0.44124 0.0
C2657 C 0.68352 0.83167 0.44585 0.0
C2658 C 0.68746 0.83221 0.45851 0.0
H2659 H 0.71328 0.8869 0.49018 0.0
H2660 H 0.70809 0.87595 0.47469 0.0
H2661 H 0.69097 0.8794 0.48184 0.0
H2662 H 0.66438 0.85396 0.46847 0.0
H2663 H 0.65777 0.8534 0.4464 0.0
H2664 H 0.14036 0.86546 0.53326 0.0
H2665 H 0.14778 0.86449 0.51212 0.0
H2666 H 0.15062 0.81471 0.51701 0.0
H2667 H 0.1432 0.81556 0.53817 0.0
H2668 H 0.17836 0.86571 0.50275 0.0
H2669 H 0.11431 0.79861 0.48622 0.0
H2670 H 0.11685 0.81122 0.50077 0.0
H2671 H 0.12781 0.79729 0.49918 0.0
C2672 C 0.14271 0.85438 0.52989 0.0
C2673 C 0.14106 0.84053 0.53744 0.0
C2674 C 0.14686 0.85379 0.51776 0.0
C2675 C 0.14941 0.83933 0.51286 0.0
C2676 C 0.14823 0.82573 0.52045 0.0
H2677 H 0.17454 0.81412 0.44042 0.0
H2678 H 0.16787 0.81391 0.46186 0.0
C2679 C 0.14401 0.82626 0.53257 0.0
C2680 C 0.15349 0.83865 0.49987 0.0
H2681 H 0.13721 0.81182 0.47232 0.0
C2682 C 0.16933 0.85394 0.4961 0.0
C2683 C 0.14176 0.82326 0.49116 0.0
C2684 C 0.12414 0.80672 0.49447 0.0
C2685 C 0.17384 0.85422 0.48394 0.0
C2686 C 0.16201 0.83892 0.47521 0.0
C2687 C 0.14628 0.82354 0.479 0.0
C2688 C 0.16556 0.83878 0.46207 0.0
C2689 C 0.19145 0.87077 0.48063 0.0
C2690 C 0.16604 0.85255 0.45494 0.0
C2691 C 0.16978 0.85267 0.44267 0.0
C2692 C 0.173 0.83893 0.4372 0.0
C2693 C 0.17199 0.82484 0.44428 0.0
C2694 C 0.16828 0.82475 0.45657 0.0
H2695 H 0.20148 0.87858 0.48886 0.0
H2696 H 0.19848 0.86635 0.47406 0.0
H2697 H 0.1878 0.88046 0.47624 0.0
H2698 H 0.16349 0.86323 0.45885 0.0
H2699 H 0.17005 0.86351 0.43745 0.0
H2700 H 0.62132 0.82461 0.16775 0.0
H2701 H 0.62802 0.82639 0.18995 0.0
H2702 H 0.6868 0.86222 0.18687 0.0
H2703 H 0.68013 0.86073 0.16465 0.0
H2704 H 0.64893 0.81602 0.20353 0.0
H2705 H 0.67821 0.89232 0.21296 0.0
H2706 H 0.66609 0.87981 0.19831 0.0
H2707 H 0.69014 0.88633 0.20212 0.0
C2708 C 0.63569 0.83279 0.17179 0.0
C2709 C 0.65019 0.8426 0.16444 0.0
C2710 C 0.63949 0.83386 0.18449 0.0
C2711 C 0.65787 0.84473 0.19014 0.0
C2712 C 0.67244 0.85418 0.18279 0.0
H2713 H 0.70685 0.86095 0.26546 0.0
H2714 H 0.70132 0.86071 0.24328 0.0
C2715 C 0.66863 0.85325 0.17008 0.0
C2716 C 0.66171 0.84586 0.20368 0.0
H2717 H 0.68087 0.87632 0.22962 0.0
C2718 C 0.65584 0.82921 0.20922 0.0
C2719 C 0.67073 0.86308 0.21114 0.0
C2720 C 0.6765 0.88139 0.20586 0.0
C2721 C 0.65891 0.82931 0.22197 0.0
C2722 C 0.66797 0.8465 0.22939 0.0
C2723 C 0.67395 0.86317 0.22388 0.0
C2724 C 0.67127 0.84739 0.24291 0.0
C2725 C 0.65266 0.81104 0.22742 0.0
C2726 C 0.65622 0.84035 0.25008 0.0
C2727 C 0.65932 0.84068 0.2628 0.0
C2728 C 0.67756 0.84803 0.26861 0.0
C2729 C 0.69264 0.85542 0.26137 0.0
C2730 C 0.68952 0.85518 0.24867 0.0
H2731 H 0.64929 0.79948 0.22031 0.0
H2732 H 0.66366 0.81227 0.23437 0.0
H2733 H 0.63993 0.80734 0.23207 0.0
H2734 H 0.64204 0.83455 0.24582 0.0
H2735 H 0.6474 0.83519 0.26806 0.0
H2736 H 0.23605 0.84525 0.17475 0.0
H2737 H 0.22734 0.845 0.19562 0.0
H2738 H 0.17409 0.83759 0.18145 0.0
H2739 H 0.1827 0.83779 0.16051 0.0
H2740 H 0.21848 0.86841 0.20824 0.0
H2741 H 0.15827 0.79607 0.20387 0.0
H2742 H 0.17479 0.80457 0.19259 0.0
H2743 H 0.15658 0.81037 0.19271 0.0
C2744 C 0.2225 0.84364 0.17605 0.0
C2745 C 0.21007 0.84151 0.16591 0.0
C2746 C 0.2175 0.84342 0.18801 0.0
C2747 C 0.19993 0.84098 0.19014 0.0
C2748 C 0.18754 0.83902 0.18006 0.0
H2749 H 0.14658 0.83815 0.25654 0.0
H2750 H 0.1545 0.83817 0.23548 0.0
C2751 C 0.1925 0.83917 0.16807 0.0
C2752 C 0.19488 0.84099 0.20295 0.0
H2753 H 0.16304 0.81479 0.2223 0.0
C2754 C 0.2064 0.85665 0.21132 0.0
C2755 C 0.17907 0.82568 0.20699 0.0
C2756 C 0.16654 0.80814 0.19862 0.0
C2757 C 0.20243 0.85753 0.22353 0.0
C2758 C 0.1867 0.84217 0.22759 0.0
C2759 C 0.17511 0.82655 0.2192 0.0
C2760 C 0.18197 0.84208 0.24048 0.0
C2761 C 0.21492 0.87511 0.23188 0.0
C2762 C 0.19464 0.84397 0.25037 0.0
C2763 C 0.19022 0.84413 0.26247 0.0
C2764 C 0.17295 0.84228 0.26498 0.0
C2765 C 0.16014 0.83998 0.25502 0.0
C2766 C 0.16459 0.83984 0.24293 0.0
H2767 H 0.223 0.88721 0.2266 0.0
H2768 H 0.20667 0.87855 0.23799 0.0
H2769 H 0.22507 0.87302 0.23769 0.0
H2770 H 0.20798 0.84531 0.24873 0.0
H2771 H 0.2005 0.84605 0.26986 0.0
H2772 H 0.23206 0.41051 0.17855 0.0
H2773 H 0.23039 0.40047 0.19925 0.0
H2774 H 0.17544 0.35346 0.18811 0.0
H2775 H 0.17727 0.36296 0.16734 0.0
H2776 H 0.20558 0.3972 0.21538 0.0
H2777 H 0.20012 0.32848 0.20562 0.0
H2778 H 0.20712 0.34554 0.1946 0.0
H2779 H 0.18276 0.33069 0.19642 0.0
C2780 C 0.21978 0.39781 0.18042 0.0
C2781 C 0.2048 0.38757 0.17122 0.0
C2782 C 0.21879 0.39215 0.19231 0.0
C2783 C 0.20289 0.37605 0.19525 0.0
C2784 C 0.18803 0.36571 0.18605 0.0
H2785 H 0.15551 0.32269 0.25937 0.0
H2786 H 0.16318 0.33255 0.23894 0.0
C2787 C 0.189 0.37133 0.17418 0.0
C2788 C 0.20132 0.37063 0.20807 0.0
H2789 H 0.19153 0.3341 0.22515 0.0
C2790 C 0.20275 0.38349 0.21754 0.0
C2791 C 0.19764 0.35274 0.21093 0.0
C2792 C 0.19701 0.33864 0.20138 0.0
C2793 C 0.19988 0.3787 0.22964 0.0
C2794 C 0.19568 0.36063 0.23243 0.0
C2795 C 0.19466 0.34792 0.22302 0.0
C2796 C 0.19151 0.3544 0.24492 0.0
C2797 C 0.20065 0.39281 0.23926 0.0
C2798 C 0.20497 0.36318 0.25511 0.0
C2799 C 0.20066 0.35748 0.26686 0.0
C2800 C 0.1828 0.34278 0.26867 0.0
C2801 C 0.16948 0.33385 0.25836 0.0
C2802 C 0.17381 0.33954 0.24665 0.0
H2803 H 0.19997 0.40443 0.23513 0.0
H2804 H 0.18898 0.3861 0.24507 0.0
H2805 H 0.21398 0.39884 0.24529 0.0
H2806 H 0.21884 0.37443 0.25398 0.0
H2807 H 0.21138 0.3645 0.27451 0.0
H2808 H 0.81335 0.60809 0.86392 0.0
H2809 H 0.82158 0.61841 0.84358 0.0
H2810 H 0.80123 0.65679 0.84877 0.0
H2811 H 0.79353 0.64702 0.86923 0.0
H2812 H 0.79828 0.6167 0.82349 0.0
H2813 H 0.85274 0.69016 0.83786 0.0
H2814 H 0.84415 0.67252 0.84849 0.0
H2815 H 0.8308 0.68328 0.84384 0.0
C2816 C 0.8109 0.61895 0.86083 0.0
C2817 C 0.80281 0.62674 0.86829 0.0
C2818 C 0.81549 0.62474 0.84914 0.0
C2819 C 0.81226 0.63856 0.84467 0.0
C2820 C 0.80418 0.64635 0.85207 0.0
H2821 H 0.8272 0.69159 0.77668 0.0
H2822 H 0.81968 0.68117 0.79705 0.0
C2823 C 0.79957 0.64057 0.86374 0.0
C2824 C 0.81683 0.64444 0.83214 0.0
H2825 H 0.84257 0.68228 0.81657 0.0
C2826 C 0.80806 0.63101 0.82198 0.0
C2827 C 0.82953 0.66314 0.83014 0.0
C2828 C 0.83999 0.6781 0.84065 0.0
C2829 C 0.81131 0.63583 0.80991 0.0
C2830 C 0.82401 0.65454 0.80791 0.0
C2831 C 0.83282 0.66795 0.81807 0.0
C2832 C 0.82833 0.66055 0.79537 0.0
C2833 C 0.8007 0.6209 0.7994 0.0
C2834 C 0.83587 0.65257 0.78761 0.0
C2835 C 0.84021 0.65851 0.77592 0.0
C2836 C 0.8373 0.67273 0.77176 0.0
C2837 C 0.82983 0.68076 0.77959 0.0
C2838 C 0.82544 0.67476 0.79125 0.0
H2839 H 0.78794 0.60889 0.80223 0.0
H2840 H 0.79653 0.62652 0.7916 0.0
H2841 H 0.80978 0.61562 0.79616 0.0
H2842 H 0.83869 0.64192 0.79065 0.0
H2843 H 0.84623 0.65224 0.77025 0.0
H2844 H 0.34366 0.13991 0.87534 0.0
H2845 H 0.33814 0.13912 0.8531 0.0
H2846 H 0.37332 0.19893 0.85549 0.0
H2847 H 0.37948 0.19981 0.87767 0.0
H2848 H 0.32286 0.15632 0.8391 0.0
H2849 H 0.3963 0.18113 0.83003 0.0
H2850 H 0.38783 0.17323 0.84455 0.0
H2851 H 0.39357 0.19626 0.84095 0.0
C2852 C 0.35037 0.1529 0.87114 0.0
C2853 C 0.36217 0.16991 0.87832 0.0
C2854 C 0.34709 0.15243 0.85842 0.0
C2855 C 0.35559 0.16892 0.85259 0.0
C2856 C 0.36692 0.18598 0.85975 0.0
H2857 H 0.35598 0.19502 0.77698 0.0
H2858 H 0.361 0.19563 0.79924 0.0
C2859 C 0.37023 0.18648 0.87247 0.0
C2860 C 0.35259 0.16824 0.83903 0.0
H2861 H 0.3754 0.1784 0.81321 0.0
C2862 C 0.33433 0.16107 0.83342 0.0
C2863 C 0.36758 0.17445 0.83164 0.0
C2864 C 0.38741 0.18155 0.83706 0.0
C2865 C 0.33067 0.1603 0.82066 0.0
C2866 C 0.34566 0.16652 0.81326 0.0
C2867 C 0.36393 0.17365 0.81887 0.0
C2868 C 0.34276 0.16592 0.79969 0.0
C2869 C 0.31084 0.15327 0.81526 0.0
C2870 C 0.33112 0.14897 0.79247 0.0
C2871 C 0.32823 0.14858 0.77973 0.0
C2872 C 0.33709 0.16511 0.77391 0.0
C2873 C 0.34909 0.182 0.78114 0.0
C2874 C 0.3519 0.18239 0.79388 0.0
H2875 H 0.30206 0.15393 0.82227 0.0
H2876 H 0.31043 0.16146 0.80768 0.0
H2877 H 0.30455 0.13848 0.81151 0.0
H2878 H 0.32431 0.13601 0.7967 0.0
H2879 H 0.31914 0.1353 0.77442 0.0
H2880 H 0.77873 0.14833 0.86336 0.0
H2881 H 0.78678 0.14759 0.84242 0.0
H2882 H 0.84131 0.19558 0.85298 0.0
H2883 H 0.8337 0.19593 0.8741 0.0
H2884 H 0.79578 0.17371 0.8263 0.0
H2885 H 0.85487 0.16085 0.8351 0.0
H2886 H 0.83911 0.15824 0.84642 0.0
H2887 H 0.85779 0.18103 0.84403 0.0
C2888 C 0.79259 0.15853 0.86133 0.0
C2889 C 0.80559 0.17211 0.87053 0.0
C2890 C 0.79711 0.15818 0.84928 0.0
C2891 C 0.81476 0.17134 0.8461 0.0
C2892 C 0.82775 0.185 0.85522 0.0
H2893 H 0.86605 0.19682 0.77778 0.0
H2894 H 0.8584 0.19629 0.79895 0.0
C2895 C 0.82326 0.18534 0.86729 0.0
C2896 C 0.81925 0.17113 0.83317 0.0
H2897 H 0.85026 0.16867 0.81512 0.0
C2898 C 0.80763 0.17249 0.82386 0.0
C2899 C 0.83473 0.16957 0.82994 0.0
C2900 C 0.84725 0.16716 0.83937 0.0
C2901 C 0.81124 0.17267 0.8115 0.0
C2902 C 0.82675 0.17118 0.80829 0.0
C2903 C 0.83837 0.16982 0.81758 0.0
C2904 C 0.83129 0.17127 0.79537 0.0
C2905 C 0.79866 0.17492 0.80203 0.0
C2906 C 0.81871 0.15724 0.78629 0.0
C2907 C 0.823 0.15755 0.77412 0.0
C2908 C 0.84 0.17189 0.77077 0.0
C2909 C 0.85268 0.18575 0.77995 0.0
C2910 C 0.8484 0.1854 0.7921 0.0
H2911 H 0.79036 0.18045 0.80628 0.0
H2912 H 0.80691 0.18444 0.79526 0.0
H2913 H 0.78874 0.16111 0.79701 0.0
H2914 H 0.80556 0.14601 0.78861 0.0
H2915 H 0.81287 0.1467 0.76731 0.0
H2916 H 0.29856 0.14452 0.49716 0.0
H2917 H 0.3046 0.14423 0.51926 0.0
H2918 H 0.33795 0.20426 0.52316 0.0
H2919 H 0.3323 0.20471 0.50108 0.0
H2920 H 0.33952 0.15946 0.53464 0.0
H2921 H 0.29797 0.19239 0.54738 0.0
H2922 H 0.29598 0.18215 0.53204 0.0
H2923 H 0.31543 0.20485 0.53729 0.0
C2924 C 0.30739 0.15766 0.50268 0.0
C2925 C 0.3148 0.17466 0.49732 0.0
C2926 C 0.31073 0.15746 0.51532 0.0
C2927 C 0.32143 0.17423 0.52287 0.0
C2928 C 0.32931 0.19117 0.51753 0.0
H2929 H 0.35642 0.20713 0.6003 0.0
H2930 H 0.34987 0.20529 0.57808 0.0
C2931 C 0.32603 0.1914 0.50491 0.0
C2932 C 0.32428 0.17408 0.53635 0.0
H2933 H 0.31587 0.18879 0.56361 0.0
C2934 C 0.33426 0.16576 0.54099 0.0
C2935 C 0.31739 0.18231 0.5446 0.0
C2936 C 0.30595 0.1908 0.54012 0.0
C2937 C 0.33799 0.1659 0.55369 0.0
C2938 C 0.3312 0.17425 0.56195 0.0
C2939 C 0.32106 0.1824 0.55728 0.0
C2940 C 0.33488 0.17512 0.57547 0.0
C2941 C 0.34965 0.15763 0.55815 0.0
C2942 C 0.32833 0.15876 0.58144 0.0
C2943 C 0.33213 0.15977 0.59416 0.0
C2944 C 0.34252 0.17716 0.60117 0.0
C2945 C 0.34866 0.1935 0.59517 0.0
C2946 C 0.34484 0.19248 0.58247 0.0
H2947 H 0.35756 0.15603 0.55084 0.0
H2948 H 0.3597 0.16643 0.56615 0.0
H2949 H 0.34033 0.1436 0.56107 0.0
H2950 H 0.32029 0.1452 0.57626 0.0
H2951 H 0.32728 0.14691 0.59847 0.0
H2952 H 0.84532 0.15855 0.49411 0.0
H2953 H 0.83721 0.15852 0.51518 0.0
H2954 H 0.89573 0.19028 0.52847 0.0
H2955 H 0.90397 0.19025 0.50751 0.0
H2956 H 0.84652 0.14465 0.53543 0.0
H2957 H 0.87513 0.22088 0.54438 0.0
H2958 H 0.87126 0.20951 0.52914 0.0
H2959 H 0.89167 0.2148 0.53915 0.0
C2960 C 0.85649 0.16547 0.50151 0.0
C2961 C 0.87532 0.17452 0.49905 0.0
C2962 C 0.85181 0.16551 0.51356 0.0
C2963 C 0.86584 0.17468 0.52341 0.0
C2964 C 0.88463 0.18352 0.52101 0.0
H2965 H 0.86939 0.19077 0.60268 0.0
H2966 H 0.87647 0.18973 0.58145 0.0
C2967 C 0.88932 0.18349 0.50899 0.0
C2968 C 0.86089 0.17462 0.53623 0.0
H2969 H 0.86629 0.20326 0.5616 0.0
C2970 C 0.85073 0.15745 0.54113 0.0
C2971 C 0.8664 0.19133 0.54369 0.0
C2972 C 0.87656 0.21018 0.53881 0.0
C2973 C 0.84635 0.15656 0.55334 0.0
C2974 C 0.85198 0.17328 0.56083 0.0
C2975 C 0.86204 0.19044 0.5559 0.0
C2976 C 0.84757 0.17332 0.57378 0.0
C2977 C 0.83615 0.13771 0.55822 0.0
C2978 C 0.82895 0.16452 0.57658 0.0
C2979 C 0.82485 0.16497 0.58873 0.0
C2980 C 0.83928 0.17435 0.59839 0.0
C2981 C 0.85792 0.18317 0.59554 0.0
C2982 C 0.862 0.18271 0.58338 0.0
H2983 H 0.83735 0.12693 0.55256 0.0
H2984 H 0.84161 0.13832 0.56783 0.0
H2985 H 0.82109 0.13324 0.55803 0.0
H2986 H 0.81755 0.15748 0.56934 0.0
H2987 H 0.81034 0.15788 0.59055 0.0
H2988 H 0.84343 0.69506 0.50047 0.0
H2989 H 0.84168 0.68589 0.52136 0.0
H2990 H 0.89634 0.73343 0.53234 0.0
H2991 H 0.89794 0.74311 0.51156 0.0
H2992 H 0.86393 0.67701 0.5361 0.0
H2993 H 0.86504 0.74 0.55707 0.0
H2994 H 0.86143 0.73398 0.5407 0.0
H2995 H 0.88456 0.74475 0.54864 0.0
C2996 C 0.85505 0.70368 0.50733 0.0
C2997 C 0.87073 0.71999 0.50431 0.0
C2998 C 0.85408 0.69832 0.51927 0.0
C2999 C 0.86871 0.70914 0.52852 0.0
C3000 C 0.88469 0.72505 0.52545 0.0
H3001 H 0.87699 0.69824 0.60755 0.0
H3002 H 0.88411 0.70777 0.58691 0.0
C3003 C 0.88567 0.73045 0.5135 0.0
C3004 C 0.86701 0.70384 0.54135 0.0
H3005 H 0.86497 0.71874 0.57056 0.0
C3006 C 0.8642 0.68616 0.54364 0.0
C3007 C 0.86739 0.71577 0.55122 0.0
C3008 C 0.86961 0.73462 0.54932 0.0
C3009 C 0.86174 0.68009 0.55547 0.0
C3010 C 0.86177 0.69189 0.56528 0.0
C3011 C 0.86496 0.7097 0.56305 0.0
C3012 C 0.85772 0.68573 0.5778 0.0
C3013 C 0.85929 0.66116 0.55738 0.0
C3014 C 0.84044 0.6703 0.57961 0.0
C3015 C 0.83626 0.66489 0.5914 0.0
C3016 C 0.84924 0.67483 0.60173 0.0
C3017 C 0.86656 0.69033 0.59988 0.0
C3018 C 0.87071 0.69575 0.58806 0.0
H3019 H 0.86495 0.6563 0.55004 0.0
H3020 H 0.86632 0.66136 0.56639 0.0
H3021 H 0.84417 0.65088 0.55716 0.0
H3022 H 0.82999 0.66262 0.57191 0.0
H3023 H 0.82263 0.65316 0.59243 0.0
loop_
_geom_bond_atom_site_label_1
_geom_bond_atom_site_label_2
_geom_bond_distance
_geom_bond_site_symmetry_2
_ccdc_geom_bond_type
C0 C1 1.264 . S
C0 C5 1.479 . S
C0 C10 1.465 . S
C1 C0 1.264 . S
C1 C3 1.339 . S
C1 H28 0.931 . S
C2 C3 1.395 . S
C2 C4 1.320 . S
C3 C1 1.339 . S
C3 C2 1.395 . S
C3 H29 0.929 . S
C4 C2 1.320 . S
C4 C5 1.405 . S
C4 H30 0.930 . S
C5 C0 1.479 . S
C5 C4 1.405 . S
C5 H31 0.931 . S
U6 O7 2.454 . S
U6 O8 2.458 . S
U6 C9 2.984 . S
U6 C10 2.847 . S
U6 C23 2.882 . S
U6 O24 2.441 . S
U6 O25 2.420 . S
U6 O26 2.455 . S
U6 O27 2.449 . S
O7 U6 2.454 . S
O7 C9 1.353 . S
O8 U6 2.458 . S
O8 C9 1.286 . S
C9 U6 2.984 . S
C9 O7 1.353 . S
C9 O8 1.286 . S
C9 C11 1.363 . S
C10 C0 1.465 . S
C10 U6 2.847 . S
C10 O24 1.249 . S
C10 O25 1.202 . S
C11 C9 1.363 . S
C11 C13 1.408 . S
C11 C16 1.342 . S
C12 C13 1.310 . S
C12 C15 1.461 . S
C12 H32 0.932 . S
C13 C11 1.408 . S
C13 C12 1.310 . S
C13 H33 0.930 . S
C14 C15 1.474 . S
C14 C16 1.285 . S
C14 H34 0.929 . S
C15 C12 1.461 . S
C15 C14 1.474 . S
C16 C11 1.342 . S
C16 C14 1.285 . S
C16 H35 0.930 . S
C17 C20 1.424 . S
C17 C22 1.245 . S
C17 C23 1.428 . S
C18 C21 1.260 . S
C18 C22 1.477 . S
C18 H36 0.932 . S
C19 C20 1.384 . S
C19 C21 1.479 . S
C19 H37 0.929 . S
C20 C17 1.424 . S
C20 C19 1.384 . S
C20 H38 0.928 . S
C21 C18 1.260 . S
C21 C19 1.479 . S
C22 C17 1.245 . S
C22 C18 1.477 . S
C22 H39 0.932 . S
C23 U6 2.882 . S
C23 C17 1.428 . S
C23 O26 1.301 . S
C23 O27 1.282 . S
O24 U6 2.441 . S
O24 C10 1.249 . S
O25 U6 2.420 . S
O25 C10 1.202 . S
O26 U6 2.455 . S
O26 C23 1.301 . S
O27 U6 2.449 . S
O27 C23 1.282 . S
H28 C1 0.931 . S
H29 C3 0.929 . S
H30 C4 0.930 . S
H31 C5 0.931 . S
H32 C12 0.932 . S
H33 C13 0.930 . S
H34 C14 0.929 . S
H35 C16 0.930 . S
H36 C18 0.932 . S
H37 C19 0.929 . S
H38 C20 0.928 . S
H39 C22 0.932 . S
C40 C41 1.264 . S
C40 C45 1.479 . S
C40 C50 1.465 . S
C41 C40 1.264 . S
C41 C43 1.339 . S
C41 H68 0.931 . S
C42 C43 1.395 . S
C42 C44 1.320 . S
C43 C41 1.339 . S
C43 C42 1.395 . S
C43 H69 0.929 . S
C44 C42 1.320 . S
C44 C45 1.405 . S
C44 H70 0.930 . S
C45 C40 1.479 . S
C45 C44 1.405 . S
C45 H71 0.931 . S
U46 O47 2.454 . S
U46 O48 2.458 . S
U46 C49 2.984 . S
U46 C50 2.847 . S
U46 C63 2.882 . S
U46 O64 2.441 . S
U46 O65 2.420 . S
U46 O66 2.455 . S
U46 O67 2.449 . S
O47 U46 2.454 . S
O47 C49 1.353 . S
O48 U46 2.458 . S
O48 C49 1.286 . S
C49 U46 2.984 . S
C49 O47 1.353 . S
C49 O48 1.286 . S
C49 C51 1.363 . S
C50 C40 1.465 . S
C50 U46 2.847 . S
C50 O64 1.249 . S
C50 O65 1.202 . S
C51 C49 1.363 . S
C51 C53 1.408 . S
C51 C56 1.342 . S
C52 C53 1.310 . S
C52 C55 1.461 . S
C52 H72 0.932 . S
C53 C51 1.408 . S
C53 C52 1.310 . S
C53 H73 0.930 . S
C54 C55 1.474 . S
C54 C56 1.285 . S
C54 H74 0.929 . S
C55 C52 1.461 . S
C55 C54 1.474 . S
C56 C51 1.342 . S
C56 C54 1.285 . S
C56 H75 0.930 . S
C57 C60 1.424 . S
C57 C62 1.245 . S
C57 C63 1.428 . S
C58 C61 1.260 . S
C58 C62 1.477 . S
C58 H76 0.932 . S
C59 C60 1.384 . S
C59 C61 1.479 . S
C59 H77 0.929 . S
C60 C57 1.424 . S
C60 C59 1.384 . S
C60 H78 0.928 . S
C61 C58 1.260 . S
C61 C59 1.479 . S
C62 C57 1.245 . S
C62 C58 1.477 . S
C62 H79 0.932 . S
C63 U46 2.882 . S
C63 C57 1.428 . S
C63 O66 1.301 . S
C63 O67 1.282 . S
O64 U46 2.441 . S
O64 C50 1.249 . S
O65 U46 2.420 . S
O65 C50 1.202 . S
O66 U46 2.455 . S
O66 C63 1.301 . S
O67 U46 2.449 . S
O67 C63 1.282 . S
H68 C41 0.931 . S
H69 C43 0.929 . S
H70 C44 0.930 . S
H71 C45 0.931 . S
H72 C52 0.932 . S
H73 C53 0.930 . S
H74 C54 0.929 . S
H75 C56 0.930 . S
H76 C58 0.932 . S
H77 C59 0.929 . S
H78 C60 0.928 . S
H79 C62 0.932 . S
C80 C81 1.264 . S
C80 C85 1.479 . S
C80 C90 1.465 . S
C81 C80 1.264 . S
C81 C83 1.339 . S
C81 H108 0.931 . S
C82 C83 1.395 . S
C82 C84 1.320 . S
C83 C81 1.339 . S
C83 C82 1.395 . S
C83 H109 0.929 . S
C84 C82 1.320 . S
C84 C85 1.405 . S
C84 H110 0.930 . S
C85 C80 1.479 . S
C85 C84 1.405 . S
C85 H111 0.931 . S
U86 O87 2.454 . S
U86 O88 2.458 . S
U86 C89 2.984 . S
U86 C90 2.847 . S
U86 C103 2.882 . S
U86 O104 2.441 . S
U86 O105 2.420 . S
U86 O106 2.455 . S
U86 O107 2.449 . S
O87 U86 2.454 . S
O87 C89 1.353 . S
O88 U86 2.458 . S
O88 C89 1.286 . S
C89 U86 2.984 . S
C89 O87 1.353 . S
C89 O88 1.286 . S
C89 C91 1.363 . S
C90 C80 1.465 . S
C90 U86 2.847 . S
C90 O104 1.249 . S
C90 O105 1.202 . S
C91 C89 1.363 . S
C91 C93 1.408 . S
C91 C96 1.342 . S
C92 C93 1.310 . S
C92 C95 1.461 . S
C92 H112 0.932 . S
C93 C91 1.408 . S
C93 C92 1.310 . S
C93 H113 0.930 . S
C94 C95 1.474 . S
C94 C96 1.285 . S
C94 H114 0.929 . S
C95 C92 1.461 . S
C95 C94 1.474 . S
C96 C91 1.342 . S
C96 C94 1.285 . S
C96 H115 0.930 . S
C97 C100 1.424 . S
C97 C102 1.245 . S
C97 C103 1.428 . S
C98 C101 1.260 . S
C98 C102 1.477 . S
C98 H116 0.932 . S
C99 C100 1.384 . S
C99 C101 1.479 . S
C99 H117 0.929 . S
C100 C97 1.424 . S
C100 C99 1.384 . S
C100 H118 0.928 . S
C101 C98 1.260 . S
C101 C99 1.479 . S
C102 C97 1.245 . S
C102 C98 1.477 . S
C102 H119 0.932 . S
C103 U86 2.882 . S
C103 C97 1.428 . S
C103 O106 1.301 . S
C103 O107 1.282 . S
O104 U86 2.441 . S
O104 C90 1.249 . S
O105 U86 2.420 . S
O105 C90 1.202 . S
O106 U86 2.455 . S
O106 C103 1.301 . S
O107 U86 2.449 . S
O107 C103 1.282 . S
H108 C81 0.931 . S
H109 C83 0.929 . S
H110 C84 0.930 . S
H111 C85 0.931 . S
H112 C92 0.932 . S
H113 C93 0.930 . S
H114 C94 0.929 . S
H115 C96 0.930 . S
H116 C98 0.932 . S
H117 C99 0.929 . S
H118 C100 0.928 . S
H119 C102 0.932 . S
C120 C121 1.264 . S
C120 C125 1.479 . S
C120 C130 1.465 . S
C121 C120 1.264 . S
C121 C123 1.339 . S
C121 H148 0.931 . S
C122 C123 1.395 . S
C122 C124 1.320 . S
C123 C121 1.339 . S
C123 C122 1.395 . S
C123 H149 0.929 . S
C124 C122 1.320 . S
C124 C125 1.405 . S
C124 H150 0.930 . S
C125 C120 1.479 . S
C125 C124 1.405 . S
C125 H151 0.931 . S
U126 O127 2.454 . S
U126 O128 2.458 . S
U126 C129 2.984 . S
U126 C130 2.847 . S
U126 C143 2.882 . S
U126 O144 2.441 . S
U126 O145 2.420 . S
U126 O146 2.455 . S
U126 O147 2.449 . S
O127 U126 2.454 . S
O127 C129 1.353 . S
O128 U126 2.458 . S
O128 C129 1.286 . S
C129 U126 2.984 . S
C129 O127 1.353 . S
C129 O128 1.286 . S
C129 C131 1.363 . S
C130 C120 1.465 . S
C130 U126 2.847 . S
C130 O144 1.249 . S
C130 O145 1.202 . S
C131 C129 1.363 . S
C131 C133 1.408 . S
C131 C136 1.342 . S
C132 C133 1.310 . S
C132 C135 1.461 . S
C132 H152 0.932 . S
C133 C131 1.408 . S
C133 C132 1.310 . S
C133 H153 0.930 . S
C134 C135 1.474 . S
C134 C136 1.285 . S
C134 H154 0.929 . S
C135 C132 1.461 . S
C135 C134 1.474 . S
C136 C131 1.342 . S
C136 C134 1.285 . S
C136 H155 0.930 . S
C137 C140 1.424 . S
C137 C142 1.245 . S
C137 C143 1.428 . S
C138 C141 1.260 . S
C138 C142 1.477 . S
C138 H156 0.932 . S
C139 C140 1.384 . S
C139 C141 1.479 . S
C139 H157 0.929 . S
C140 C137 1.424 . S
C140 C139 1.384 . S
C140 H158 0.928 . S
C141 C138 1.260 . S
C141 C139 1.479 . S
C142 C137 1.245 . S
C142 C138 1.477 . S
C142 H159 0.932 . S
C143 U126 2.882 . S
C143 C137 1.428 . S
C143 O146 1.301 . S
C143 O147 1.282 . S
O144 U126 2.441 . S
O144 C130 1.249 . S
O145 U126 2.420 . S
O145 C130 1.202 . S
O146 U126 2.455 . S
O146 C143 1.301 . S
O147 U126 2.449 . S
O147 C143 1.282 . S
H148 C121 0.931 . S
H149 C123 0.929 . S
H150 C124 0.930 . S
H151 C125 0.931 . S
H152 C132 0.932 . S
H153 C133 0.930 . S
H154 C134 0.929 . S
H155 C136 0.930 . S
H156 C138 0.932 . S
H157 C139 0.929 . S
H158 C140 0.928 . S
H159 C142 0.932 . S
C160 C161 1.264 . S
C160 C165 1.479 . S
C160 C170 1.465 . S
C161 C160 1.264 . S
C161 C163 1.339 . S
C161 H188 0.931 . S
C162 C163 1.395 . S
C162 C164 1.320 . S
C163 C161 1.339 . S
C163 C162 1.395 . S
C163 H189 0.929 . S
C164 C162 1.320 . S
C164 C165 1.405 . S
C164 H190 0.930 . S
C165 C160 1.479 . S
C165 C164 1.405 . S
C165 H191 0.931 . S
U166 O167 2.454 . S
U166 O168 2.458 . S
U166 C169 2.984 . S
U166 C170 2.847 . S
U166 C183 2.882 . S
U166 O184 2.441 . S
U166 O185 2.420 . S
U166 O186 2.455 . S
U166 O187 2.449 . S
O167 U166 2.454 . S
O167 C169 1.353 . S
O168 U166 2.458 . S
O168 C169 1.286 . S
C169 U166 2.984 . S
C169 O167 1.353 . S
C169 O168 1.286 . S
C169 C171 1.363 . S
C170 C160 1.465 . S
C170 U166 2.847 . S
C170 O184 1.249 . S
C170 O185 1.202 . S
C171 C169 1.363 . S
C171 C173 1.408 . S
C171 C176 1.342 . S
C172 C173 1.310 . S
C172 C175 1.461 . S
C172 H192 0.932 . S
C173 C171 1.408 . S
C173 C172 1.310 . S
C173 H193 0.930 . S
C174 C175 1.474 . S
C174 C176 1.285 . S
C174 H194 0.929 . S
C175 C172 1.461 . S
C175 C174 1.474 . S
C176 C171 1.342 . S
C176 C174 1.285 . S
C176 H195 0.930 . S
C177 C180 1.424 . S
C177 C182 1.245 . S
C177 C183 1.428 . S
C178 C181 1.260 . S
C178 C182 1.477 . S
C178 H196 0.932 . S
C179 C180 1.384 . S
C179 C181 1.479 . S
C179 H197 0.929 . S
C180 C177 1.424 . S
C180 C179 1.384 . S
C180 H198 0.928 . S
C181 C178 1.260 . S
C181 C179 1.479 . S
C182 C177 1.245 . S
C182 C178 1.477 . S
C182 H199 0.932 . S
C183 U166 2.882 . S
C183 C177 1.428 . S
C183 O186 1.301 . S
C183 O187 1.282 . S
O184 U166 2.441 . S
O184 C170 1.249 . S
O185 U166 2.420 . S
O185 C170 1.202 . S
O186 U166 2.455 . S
O186 C183 1.301 . S
O187 U166 2.449 . S
O187 C183 1.282 . S
H188 C161 0.931 . S
H189 C163 0.929 . S
H190 C164 0.930 . S
H191 C165 0.931 . S
H192 C172 0.932 . S
H193 C173 0.930 . S
H194 C174 0.929 . S
H195 C176 0.930 . S
H196 C178 0.932 . S
H197 C179 0.929 . S
H198 C180 0.928 . S
H199 C182 0.932 . S
C200 C201 1.264 . S
C200 C205 1.479 . S
C200 C210 1.465 . S
C201 C200 1.264 . S
C201 C203 1.339 . S
C201 H228 0.931 . S
C202 C203 1.395 . S
C202 C204 1.320 . S
C203 C201 1.339 . S
C203 C202 1.395 . S
C203 H229 0.929 . S
C204 C202 1.320 . S
C204 C205 1.405 . S
C204 H230 0.930 . S
C205 C200 1.479 . S
C205 C204 1.405 . S
C205 H231 0.931 . S
U206 O207 2.454 . S
U206 O208 2.458 . S
U206 C209 2.984 . S
U206 C210 2.847 . S
U206 C223 2.882 . S
U206 O224 2.441 . S
U206 O225 2.420 . S
U206 O226 2.455 . S
U206 O227 2.449 . S
O207 U206 2.454 . S
O207 C209 1.353 . S
O208 U206 2.458 . S
O208 C209 1.286 . S
C209 U206 2.984 . S
C209 O207 1.353 . S
C209 O208 1.286 . S
C209 C211 1.363 . S
C210 C200 1.465 . S
C210 U206 2.847 . S
C210 O224 1.249 . S
C210 O225 1.202 . S
C211 C209 1.363 . S
C211 C213 1.408 . S
C211 C216 1.342 . S
C212 C213 1.310 . S
C212 C215 1.461 . S
C212 H232 0.932 . S
C213 C211 1.408 . S
C213 C212 1.310 . S
C213 H233 0.930 . S
C214 C215 1.474 . S
C214 C216 1.285 . S
C214 H234 0.929 . S
C215 C212 1.461 . S
C215 C214 1.474 . S
C216 C211 1.342 . S
C216 C214 1.285 . S
C216 H235 0.930 . S
C217 C220 1.424 . S
C217 C222 1.245 . S
C217 C223 1.428 . S
C218 C221 1.260 . S
C218 C222 1.477 . S
C218 H236 0.932 . S
C219 C220 1.384 . S
C219 C221 1.479 . S
C219 H237 0.929 . S
C220 C217 1.424 . S
C220 C219 1.384 . S
C220 H238 0.928 . S
C221 C218 1.260 . S
C221 C219 1.479 . S
C222 C217 1.245 . S
C222 C218 1.477 . S
C222 H239 0.932 . S
C223 U206 2.882 . S
C223 C217 1.428 . S
C223 O226 1.301 . S
C223 O227 1.282 . S
O224 U206 2.441 . S
O224 C210 1.249 . S
O225 U206 2.420 . S
O225 C210 1.202 . S
O226 U206 2.455 . S
O226 C223 1.301 . S
O227 U206 2.449 . S
O227 C223 1.282 . S
H228 C201 0.931 . S
H229 C203 0.929 . S
H230 C204 0.930 . S
H231 C205 0.931 . S
H232 C212 0.932 . S
H233 C213 0.930 . S
H234 C214 0.929 . S
H235 C216 0.930 . S
H236 C218 0.932 . S
H237 C219 0.929 . S
H238 C220 0.928 . S
H239 C222 0.932 . S
C240 C241 1.264 . S
C240 C245 1.479 . S
C240 C250 1.465 . S
C241 C240 1.264 . S
C241 C243 1.339 . S
C241 H268 0.931 . S
C242 C243 1.395 . S
C242 C244 1.320 . S
C243 C241 1.339 . S
C243 C242 1.395 . S
C243 H269 0.929 . S
C244 C242 1.320 . S
C244 C245 1.405 . S
C244 H270 0.930 . S
C245 C240 1.479 . S
C245 C244 1.405 . S
C245 H271 0.931 . S
U246 O247 2.454 . S
U246 O248 2.458 . S
U246 C249 2.984 . S
U246 C250 2.847 . S
U246 C263 2.882 . S
U246 O264 2.441 . S
U246 O265 2.420 . S
U246 O266 2.455 . S
U246 O267 2.449 . S
O247 U246 2.454 . S
O247 C249 1.353 . S
O248 U246 2.458 . S
O248 C249 1.286 . S
C249 U246 2.984 . S
C249 O247 1.353 . S
C249 O248 1.286 . S
C249 C251 1.363 . S
C250 C240 1.465 . S
C250 U246 2.847 . S
C250 O264 1.249 . S
C250 O265 1.202 . S
C251 C249 1.363 . S
C251 C253 1.408 . S
C251 C256 1.342 . S
C252 C253 1.310 . S
C252 C255 1.461 . S
C252 H272 0.932 . S
C253 C251 1.408 . S
C253 C252 1.310 . S
C253 H273 0.930 . S
C254 C255 1.474 . S
C254 C256 1.285 . S
C254 H274 0.929 . S
C255 C252 1.461 . S
C255 C254 1.474 . S
C256 C251 1.342 . S
C256 C254 1.285 . S
C256 H275 0.930 . S
C257 C260 1.424 . S
C257 C262 1.245 . S
C257 C263 1.428 . S
C258 C261 1.260 . S
C258 C262 1.477 . S
C258 H276 0.932 . S
C259 C260 1.384 . S
C259 C261 1.479 . S
C259 H277 0.929 . S
C260 C257 1.424 . S
C260 C259 1.384 . S
C260 H278 0.928 . S
C261 C258 1.260 . S
C261 C259 1.479 . S
C262 C257 1.245 . S
C262 C258 1.477 . S
C262 H279 0.932 . S
C263 U246 2.882 . S
C263 C257 1.428 . S
C263 O266 1.301 . S
C263 O267 1.282 . S
O264 U246 2.441 . S
O264 C250 1.249 . S
O265 U246 2.420 . S
O265 C250 1.202 . S
O266 U246 2.455 . S
O266 C263 1.301 . S
O267 U246 2.449 . S
O267 C263 1.282 . S
H268 C241 0.931 . S
H269 C243 0.929 . S
H270 C244 0.930 . S
H271 C245 0.931 . S
H272 C252 0.932 . S
H273 C253 0.930 . S
H274 C254 0.929 . S
H275 C256 0.930 . S
H276 C258 0.932 . S
H277 C259 0.929 . S
H278 C260 0.928 . S
H279 C262 0.932 . S
C280 C281 1.264 . S
C280 C285 1.479 . S
C280 C290 1.465 . S
C281 C280 1.264 . S
C281 C283 1.339 . S
C281 H308 0.931 . S
C282 C283 1.395 . S
C282 C284 1.320 . S
C283 C281 1.339 . S
C283 C282 1.395 . S
C283 H309 0.929 . S
C284 C282 1.320 . S
C284 C285 1.405 . S
C284 H310 0.930 . S
C285 C280 1.479 . S
C285 C284 1.405 . S
C285 H311 0.931 . S
U286 O287 2.454 . S
U286 O288 2.458 . S
U286 C289 2.984 . S
U286 C290 2.847 . S
U286 C303 2.882 . S
U286 O304 2.441 . S
U286 O305 2.420 . S
U286 O306 2.455 . S
U286 O307 2.449 . S
O287 U286 2.454 . S
O287 C289 1.353 . S
O288 U286 2.458 . S
O288 C289 1.286 . S
C289 U286 2.984 . S
C289 O287 1.353 . S
C289 O288 1.286 . S
C289 C291 1.363 . S
C290 C280 1.465 . S
C290 U286 2.847 . S
C290 O304 1.249 . S
C290 O305 1.202 . S
C291 C289 1.363 . S
C291 C293 1.408 . S
C291 C296 1.342 . S
C292 C293 1.310 . S
C292 C295 1.461 . S
C292 H312 0.932 . S
C293 C291 1.408 . S
C293 C292 1.310 . S
C293 H313 0.930 . S
C294 C295 1.474 . S
C294 C296 1.285 . S
C294 H314 0.929 . S
C295 C292 1.461 . S
C295 C294 1.474 . S
C296 C291 1.342 . S
C296 C294 1.285 . S
C296 H315 0.930 . S
C297 C300 1.424 . S
C297 C302 1.245 . S
C297 C303 1.428 . S
C298 C301 1.260 . S
C298 C302 1.477 . S
C298 H316 0.932 . S
C299 C300 1.384 . S
C299 C301 1.479 . S
C299 H317 0.929 . S
C300 C297 1.424 . S
C300 C299 1.384 . S
C300 H318 0.928 . S
C301 C298 1.260 . S
C301 C299 1.479 . S
C302 C297 1.245 . S
C302 C298 1.477 . S
C302 H319 0.932 . S
C303 U286 2.882 . S
C303 C297 1.428 . S
C303 O306 1.301 . S
C303 O307 1.282 . S
O304 U286 2.441 . S
O304 C290 1.249 . S
O305 U286 2.420 . S
O305 C290 1.202 . S
O306 U286 2.455 . S
O306 C303 1.301 . S
O307 U286 2.449 . S
O307 C303 1.282 . S
H308 C281 0.931 . S
H309 C283 0.929 . S
H310 C284 0.930 . S
H311 C285 0.931 . S
H312 C292 0.932 . S
H313 C293 0.930 . S
H314 C294 0.929 . S
H315 C296 0.930 . S
H316 C298 0.932 . S
H317 C299 0.929 . S
H318 C300 0.928 . S
H319 C302 0.932 . S
C320 C321 1.264 . S
C320 C325 1.479 . S
C320 C330 1.465 . S
C321 C320 1.264 . S
C321 C323 1.339 . S
C321 H348 0.931 . S
C322 C323 1.395 . S
C322 C324 1.320 . S
C323 C321 1.339 . S
C323 C322 1.395 . S
C323 H349 0.929 . S
C324 C322 1.320 . S
C324 C325 1.405 . S
C324 H350 0.930 . S
C325 C320 1.479 . S
C325 C324 1.405 . S
C325 H351 0.931 . S
U326 O327 2.454 . S
U326 O328 2.458 . S
U326 C329 2.984 . S
U326 C330 2.847 . S
U326 C343 2.882 . S
U326 O344 2.441 . S
U326 O345 2.420 . S
U326 O346 2.455 . S
U326 O347 2.449 . S
O327 U326 2.454 . S
O327 C329 1.353 . S
O328 U326 2.458 . S
O328 C329 1.286 . S
C329 U326 2.984 . S
C329 O327 1.353 . S
C329 O328 1.286 . S
C329 C331 1.363 . S
C330 C320 1.465 . S
C330 U326 2.847 . S
C330 O344 1.249 . S
C330 O345 1.202 . S
C331 C329 1.363 . S
C331 C333 1.408 . S
C331 C336 1.342 . S
C332 C333 1.310 . S
C332 C335 1.461 . S
C332 H352 0.932 . S
C333 C331 1.408 . S
C333 C332 1.310 . S
C333 H353 0.930 . S
C334 C335 1.474 . S
C334 C336 1.285 . S
C334 H354 0.929 . S
C335 C332 1.461 . S
C335 C334 1.474 . S
C336 C331 1.342 . S
C336 C334 1.285 . S
C336 H355 0.930 . S
C337 C340 1.424 . S
C337 C342 1.245 . S
C337 C343 1.428 . S
C338 C341 1.260 . S
C338 C342 1.477 . S
C338 H356 0.932 . S
C339 C340 1.384 . S
C339 C341 1.479 . S
C339 H357 0.929 . S
C340 C337 1.424 . S
C340 C339 1.384 . S
C340 H358 0.928 . S
C341 C338 1.260 . S
C341 C339 1.479 . S
C342 C337 1.245 . S
C342 C338 1.477 . S
C342 H359 0.932 . S
C343 U326 2.882 . S
C343 C337 1.428 . S
C343 O346 1.301 . S
C343 O347 1.282 . S
O344 U326 2.441 . S
O344 C330 1.249 . S
O345 U326 2.420 . S
O345 C330 1.202 . S
O346 U326 2.455 . S
O346 C343 1.301 . S
O347 U326 2.449 . S
O347 C343 1.282 . S
H348 C321 0.931 . S
H349 C323 0.929 . S
H350 C324 0.930 . S
H351 C325 0.931 . S
H352 C332 0.932 . S
H353 C333 0.930 . S
H354 C334 0.929 . S
H355 C336 0.930 . S
H356 C338 0.932 . S
H357 C339 0.929 . S
H358 C340 0.928 . S
H359 C342 0.932 . S
C360 C361 1.264 . S
C360 C365 1.479 . S
C360 C370 1.465 . S
C361 C360 1.264 . S
C361 C363 1.339 . S
C361 H388 0.931 . S
C362 C363 1.395 . S
C362 C364 1.320 . S
C363 C361 1.339 . S
C363 C362 1.395 . S
C363 H389 0.929 . S
C364 C362 1.320 . S
C364 C365 1.405 . S
C364 H390 0.930 . S
C365 C360 1.479 . S
C365 C364 1.405 . S
C365 H391 0.931 . S
U366 O367 2.454 . S
U366 O368 2.458 . S
U366 C369 2.984 . S
U366 C370 2.847 . S
U366 C383 2.882 . S
U366 O384 2.441 . S
U366 O385 2.420 . S
U366 O386 2.455 . S
U366 O387 2.449 . S
O367 U366 2.454 . S
O367 C369 1.353 . S
O368 U366 2.458 . S
O368 C369 1.286 . S
C369 U366 2.984 . S
C369 O367 1.353 . S
C369 O368 1.286 . S
C369 C371 1.363 . S
C370 C360 1.465 . S
C370 U366 2.847 . S
C370 O384 1.249 . S
C370 O385 1.202 . S
C371 C369 1.363 . S
C371 C373 1.408 . S
C371 C376 1.342 . S
C372 C373 1.310 . S
C372 C375 1.461 . S
C372 H392 0.932 . S
C373 C371 1.408 . S
C373 C372 1.310 . S
C373 H393 0.930 . S
C374 C375 1.474 . S
C374 C376 1.285 . S
C374 H394 0.929 . S
C375 C372 1.461 . S
C375 C374 1.474 . S
C376 C371 1.342 . S
C376 C374 1.285 . S
C376 H395 0.930 . S
C377 C380 1.424 . S
C377 C382 1.245 . S
C377 C383 1.428 . S
C378 C381 1.260 . S
C378 C382 1.477 . S
C378 H396 0.932 . S
C379 C380 1.384 . S
C379 C381 1.479 . S
C379 H397 0.929 . S
C380 C377 1.424 . S
C380 C379 1.384 . S
C380 H398 0.928 . S
C381 C378 1.260 . S
C381 C379 1.479 . S
C382 C377 1.245 . S
C382 C378 1.477 . S
C382 H399 0.932 . S
C383 U366 2.882 . S
C383 C377 1.428 . S
C383 O386 1.301 . S
C383 O387 1.282 . S
O384 U366 2.441 . S
O384 C370 1.249 . S
O385 U366 2.420 . S
O385 C370 1.202 . S
O386 U366 2.455 . S
O386 C383 1.301 . S
O387 U366 2.449 . S
O387 C383 1.282 . S
H388 C361 0.931 . S
H389 C363 0.929 . S
H390 C364 0.930 . S
H391 C365 0.931 . S
H392 C372 0.932 . S
H393 C373 0.930 . S
H394 C374 0.929 . S
H395 C376 0.930 . S
H396 C378 0.932 . S
H397 C379 0.929 . S
H398 C380 0.928 . S
H399 C382 0.932 . S
C400 C401 1.264 . S
C400 C405 1.479 . S
C400 C410 1.465 . S
C401 C400 1.264 . S
C401 C403 1.339 . S
C401 H428 0.931 . S
C402 C403 1.395 . S
C402 C404 1.320 . S
C403 C401 1.339 . S
C403 C402 1.395 . S
C403 H429 0.929 . S
C404 C402 1.320 . S
C404 C405 1.405 . S
C404 H430 0.930 . S
C405 C400 1.479 . S
C405 C404 1.405 . S
C405 H431 0.931 . S
U406 O407 2.454 . S
U406 O408 2.458 . S
U406 C409 2.984 . S
U406 C410 2.847 . S
U406 C423 2.882 . S
U406 O424 2.441 . S
U406 O425 2.420 . S
U406 O426 2.455 . S
U406 O427 2.449 . S
O407 U406 2.454 . S
O407 C409 1.353 . S
O408 U406 2.458 . S
O408 C409 1.286 . S
C409 U406 2.984 . S
C409 O407 1.353 . S
C409 O408 1.286 . S
C409 C411 1.363 . S
C410 C400 1.465 . S
C410 U406 2.847 . S
C410 O424 1.249 . S
C410 O425 1.202 . S
C411 C409 1.363 . S
C411 C413 1.408 . S
C411 C416 1.342 . S
C412 C413 1.310 . S
C412 C415 1.461 . S
C412 H432 0.932 . S
C413 C411 1.408 . S
C413 C412 1.310 . S
C413 H433 0.930 . S
C414 C415 1.474 . S
C414 C416 1.285 . S
C414 H434 0.929 . S
C415 C412 1.461 . S
C415 C414 1.474 . S
C416 C411 1.342 . S
C416 C414 1.285 . S
C416 H435 0.930 . S
C417 C420 1.424 . S
C417 C422 1.245 . S
C417 C423 1.428 . S
C418 C421 1.260 . S
C418 C422 1.477 . S
C418 H436 0.932 . S
C419 C420 1.384 . S
C419 C421 1.479 . S
C419 H437 0.929 . S
C420 C417 1.424 . S
C420 C419 1.384 . S
C420 H438 0.928 . S
C421 C418 1.260 . S
C421 C419 1.479 . S
C422 C417 1.245 . S
C422 C418 1.477 . S
C422 H439 0.932 . S
C423 U406 2.882 . S
C423 C417 1.428 . S
C423 O426 1.301 . S
C423 O427 1.282 . S
O424 U406 2.441 . S
O424 C410 1.249 . S
O425 U406 2.420 . S
O425 C410 1.202 . S
O426 U406 2.455 . S
O426 C423 1.301 . S
O427 U406 2.449 . S
O427 C423 1.282 . S
H428 C401 0.931 . S
H429 C403 0.929 . S
H430 C404 0.930 . S
H431 C405 0.931 . S
H432 C412 0.932 . S
H433 C413 0.930 . S
H434 C414 0.929 . S
H435 C416 0.930 . S
H436 C418 0.932 . S
H437 C419 0.929 . S
H438 C420 0.928 . S
H439 C422 0.932 . S
C440 C441 1.264 . S
C440 C445 1.479 . S
C440 C450 1.465 . S
C441 C440 1.264 . S
C441 C443 1.339 . S
C441 H468 0.931 . S
C442 C443 1.395 . S
C442 C444 1.320 . S
C443 C441 1.339 . S
C443 C442 1.395 . S
C443 H469 0.929 . S
C444 C442 1.320 . S
C444 C445 1.405 . S
C444 H470 0.930 . S
C445 C440 1.479 . S
C445 C444 1.405 . S
C445 H471 0.931 . S
U446 O447 2.454 . S
U446 O448 2.458 . S
U446 C449 2.984 . S
U446 C450 2.847 . S
U446 C463 2.882 . S
U446 O464 2.441 . S
U446 O465 2.420 . S
U446 O466 2.455 . S
U446 O467 2.449 . S
O447 U446 2.454 . S
O447 C449 1.353 . S
O448 U446 2.458 . S
O448 C449 1.286 . S
C449 U446 2.984 . S
C449 O447 1.353 . S
C449 O448 1.286 . S
C449 C451 1.363 . S
C450 C440 1.465 . S
C450 U446 2.847 . S
C450 O464 1.249 . S
C450 O465 1.202 . S
C451 C449 1.363 . S
C451 C453 1.408 . S
C451 C456 1.342 . S
C452 C453 1.310 . S
C452 C455 1.461 . S
C452 H472 0.932 . S
C453 C451 1.408 . S
C453 C452 1.310 . S
C453 H473 0.930 . S
C454 C455 1.474 . S
C454 C456 1.285 . S
C454 H474 0.929 . S
C455 C452 1.461 . S
C455 C454 1.474 . S
C456 C451 1.342 . S
C456 C454 1.285 . S
C456 H475 0.930 . S
C457 C460 1.424 . S
C457 C462 1.245 . S
C457 C463 1.428 . S
C458 C461 1.260 . S
C458 C462 1.477 . S
C458 H476 0.932 . S
C459 C460 1.384 . S
C459 C461 1.479 . S
C459 H477 0.929 . S
C460 C457 1.424 . S
C460 C459 1.384 . S
C460 H478 0.928 . S
C461 C458 1.260 . S
C461 C459 1.479 . S
C462 C457 1.245 . S
C462 C458 1.477 . S
C462 H479 0.932 . S
C463 U446 2.882 . S
C463 C457 1.428 . S
C463 O466 1.301 . S
C463 O467 1.282 . S
O464 U446 2.441 . S
O464 C450 1.249 . S
O465 U446 2.420 . S
O465 C450 1.202 . S
O466 U446 2.455 . S
O466 C463 1.301 . S
O467 U446 2.449 . S
O467 C463 1.282 . S
H468 C441 0.931 . S
H469 C443 0.929 . S
H470 C444 0.930 . S
H471 C445 0.931 . S
H472 C452 0.932 . S
H473 C453 0.930 . S
H474 C454 0.929 . S
H475 C456 0.930 . S
H476 C458 0.932 . S
H477 C459 0.929 . S
H478 C460 0.928 . S
H479 C462 0.932 . S
C480 C481 1.264 . S
C480 C485 1.479 . S
C480 C490 1.465 . S
C481 C480 1.264 . S
C481 C483 1.339 . S
C481 H508 0.931 . S
C482 C483 1.395 . S
C482 C484 1.320 . S
C483 C481 1.339 . S
C483 C482 1.395 . S
C483 H509 0.929 . S
C484 C482 1.320 . S
C484 C485 1.405 . S
C484 H510 0.930 . S
C485 C480 1.479 . S
C485 C484 1.405 . S
C485 H511 0.931 . S
U486 O487 2.454 . S
U486 O488 2.458 . S
U486 C489 2.984 . S
U486 C490 2.847 . S
U486 C503 2.882 . S
U486 O504 2.441 . S
U486 O505 2.420 . S
U486 O506 2.455 . S
U486 O507 2.449 . S
O487 U486 2.454 . S
O487 C489 1.353 . S
O488 U486 2.458 . S
O488 C489 1.286 . S
C489 U486 2.984 . S
C489 O487 1.353 . S
C489 O488 1.286 . S
C489 C491 1.363 . S
C490 C480 1.465 . S
C490 U486 2.847 . S
C490 O504 1.249 . S
C490 O505 1.202 . S
C491 C489 1.363 . S
C491 C493 1.408 . S
C491 C496 1.342 . S
C492 C493 1.310 . S
C492 C495 1.461 . S
C492 H512 0.932 . S
C493 C491 1.408 . S
C493 C492 1.310 . S
C493 H513 0.930 . S
C494 C495 1.474 . S
C494 C496 1.285 . S
C494 H514 0.929 . S
C495 C492 1.461 . S
C495 C494 1.474 . S
C496 C491 1.342 . S
C496 C494 1.285 . S
C496 H515 0.930 . S
C497 C500 1.424 . S
C497 C502 1.245 . S
C497 C503 1.428 . S
C498 C501 1.260 . S
C498 C502 1.477 . S
C498 H516 0.932 . S
C499 C500 1.384 . S
C499 C501 1.479 . S
C499 H517 0.929 . S
C500 C497 1.424 . S
C500 C499 1.384 . S
C500 H518 0.928 . S
C501 C498 1.260 . S
C501 C499 1.479 . S
C502 C497 1.245 . S
C502 C498 1.477 . S
C502 H519 0.932 . S
C503 U486 2.882 . S
C503 C497 1.428 . S
C503 O506 1.301 . S
C503 O507 1.282 . S
O504 U486 2.441 . S
O504 C490 1.249 . S
O505 U486 2.420 . S
O505 C490 1.202 . S
O506 U486 2.455 . S
O506 C503 1.301 . S
O507 U486 2.449 . S
O507 C503 1.282 . S
H508 C481 0.931 . S
H509 C483 0.929 . S
H510 C484 0.930 . S
H511 C485 0.931 . S
H512 C492 0.932 . S
H513 C493 0.930 . S
H514 C494 0.929 . S
H515 C496 0.930 . S
H516 C498 0.932 . S
H517 C499 0.929 . S
H518 C500 0.928 . S
H519 C502 0.932 . S
C520 C521 1.264 . S
C520 C525 1.479 . S
C520 C530 1.465 . S
C521 C520 1.264 . S
C521 C523 1.339 . S
C521 H548 0.931 . S
C522 C523 1.395 . S
C522 C524 1.320 . S
C523 C521 1.339 . S
C523 C522 1.395 . S
C523 H549 0.929 . S
C524 C522 1.320 . S
C524 C525 1.405 . S
C524 H550 0.930 . S
C525 C520 1.479 . S
C525 C524 1.405 . S
C525 H551 0.931 . S
U526 O527 2.454 . S
U526 O528 2.458 . S
U526 C529 2.984 . S
U526 C530 2.847 . S
U526 C543 2.882 . S
U526 O544 2.441 . S
U526 O545 2.420 . S
U526 O546 2.455 . S
U526 O547 2.449 . S
O527 U526 2.454 . S
O527 C529 1.353 . S
O528 U526 2.458 . S
O528 C529 1.286 . S
C529 U526 2.984 . S
C529 O527 1.353 . S
C529 O528 1.286 . S
C529 C531 1.363 . S
C530 C520 1.465 . S
C530 U526 2.847 . S
C530 O544 1.249 . S
C530 O545 1.202 . S
C531 C529 1.363 . S
C531 C533 1.408 . S
C531 C536 1.342 . S
C532 C533 1.310 . S
C532 C535 1.461 . S
C532 H552 0.932 . S
C533 C531 1.408 . S
C533 C532 1.310 . S
C533 H553 0.930 . S
C534 C535 1.474 . S
C534 C536 1.285 . S
C534 H554 0.929 . S
C535 C532 1.461 . S
C535 C534 1.474 . S
C536 C531 1.342 . S
C536 C534 1.285 . S
C536 H555 0.930 . S
C537 C540 1.424 . S
C537 C542 1.245 . S
C537 C543 1.428 . S
C538 C541 1.260 . S
C538 C542 1.477 . S
C538 H556 0.932 . S
C539 C540 1.384 . S
C539 C541 1.479 . S
C539 H557 0.929 . S
C540 C537 1.424 . S
C540 C539 1.384 . S
C540 H558 0.928 . S
C541 C538 1.260 . S
C541 C539 1.479 . S
C542 C537 1.245 . S
C542 C538 1.477 . S
C542 H559 0.932 . S
C543 U526 2.882 . S
C543 C537 1.428 . S
C543 O546 1.301 . S
C543 O547 1.282 . S
O544 U526 2.441 . S
O544 C530 1.249 . S
O545 U526 2.420 . S
O545 C530 1.202 . S
O546 U526 2.455 . S
O546 C543 1.301 . S
O547 U526 2.449 . S
O547 C543 1.282 . S
H548 C521 0.931 . S
H549 C523 0.929 . S
H550 C524 0.930 . S
H551 C525 0.931 . S
H552 C532 0.932 . S
H553 C533 0.930 . S
H554 C534 0.929 . S
H555 C536 0.930 . S
H556 C538 0.932 . S
H557 C539 0.929 . S
H558 C540 0.928 . S
H559 C542 0.932 . S
C560 C561 1.264 . S
C560 C565 1.479 . S
C560 C570 1.465 . S
C561 C560 1.264 . S
C561 C563 1.339 . S
C561 H588 0.931 . S
C562 C563 1.395 . S
C562 C564 1.320 . S
C563 C561 1.339 . S
C563 C562 1.395 . S
C563 H589 0.929 . S
C564 C562 1.320 . S
C564 C565 1.405 . S
C564 H590 0.930 . S
C565 C560 1.479 . S
C565 C564 1.405 . S
C565 H591 0.931 . S
U566 O567 2.454 . S
U566 O568 2.458 . S
U566 C569 2.984 . S
U566 C570 2.847 . S
U566 C583 2.882 . S
U566 O584 2.441 . S
U566 O585 2.420 . S
U566 O586 2.455 . S
U566 O587 2.449 . S
O567 U566 2.454 . S
O567 C569 1.353 . S
O568 U566 2.458 . S
O568 C569 1.286 . S
C569 U566 2.984 . S
C569 O567 1.353 . S
C569 O568 1.286 . S
C569 C571 1.363 . S
C570 C560 1.465 . S
C570 U566 2.847 . S
C570 O584 1.249 . S
C570 O585 1.202 . S
C571 C569 1.363 . S
C571 C573 1.408 . S
C571 C576 1.342 . S
C572 C573 1.310 . S
C572 C575 1.461 . S
C572 H592 0.932 . S
C573 C571 1.408 . S
C573 C572 1.310 . S
C573 H593 0.930 . S
C574 C575 1.474 . S
C574 C576 1.285 . S
C574 H594 0.929 . S
C575 C572 1.461 . S
C575 C574 1.474 . S
C576 C571 1.342 . S
C576 C574 1.285 . S
C576 H595 0.930 . S
C577 C580 1.424 . S
C577 C582 1.245 . S
C577 C583 1.428 . S
C578 C581 1.260 . S
C578 C582 1.477 . S
C578 H596 0.932 . S
C579 C580 1.384 . S
C579 C581 1.479 . S
C579 H597 0.929 . S
C580 C577 1.424 . S
C580 C579 1.384 . S
C580 H598 0.928 . S
C581 C578 1.260 . S
C581 C579 1.479 . S
C582 C577 1.245 . S
C582 C578 1.477 . S
C582 H599 0.932 . S
C583 U566 2.882 . S
C583 C577 1.428 . S
C583 O586 1.301 . S
C583 O587 1.282 . S
O584 U566 2.441 . S
O584 C570 1.249 . S
O585 U566 2.420 . S
O585 C570 1.202 . S
O586 U566 2.455 . S
O586 C583 1.301 . S
O587 U566 2.449 . S
O587 C583 1.282 . S
H588 C561 0.931 . S
H589 C563 0.929 . S
H590 C564 0.930 . S
H591 C565 0.931 . S
H592 C572 0.932 . S
H593 C573 0.930 . S
H594 C574 0.929 . S
H595 C576 0.930 . S
H596 C578 0.932 . S
H597 C579 0.929 . S
H598 C580 0.928 . S
H599 C582 0.932 . S
C600 C601 1.264 . S
C600 C605 1.479 . S
C600 C610 1.465 . S
C601 C600 1.264 . S
C601 C603 1.339 . S
C601 H628 0.931 . S
C602 C603 1.395 . S
C602 C604 1.320 . S
C603 C601 1.339 . S
C603 C602 1.395 . S
C603 H629 0.929 . S
C604 C602 1.320 . S
C604 C605 1.405 . S
C604 H630 0.930 . S
C605 C600 1.479 . S
C605 C604 1.405 . S
C605 H631 0.931 . S
U606 O607 2.454 . S
U606 O608 2.458 . S
U606 C609 2.984 . S
U606 C610 2.847 . S
U606 C623 2.882 . S
U606 O624 2.441 . S
U606 O625 2.420 . S
U606 O626 2.455 . S
U606 O627 2.449 . S
O607 U606 2.454 . S
O607 C609 1.353 . S
O608 U606 2.458 . S
O608 C609 1.286 . S
C609 U606 2.984 . S
C609 O607 1.353 . S
C609 O608 1.286 . S
C609 C611 1.363 . S
C610 C600 1.465 . S
C610 U606 2.847 . S
C610 O624 1.249 . S
C610 O625 1.202 . S
C611 C609 1.363 . S
C611 C613 1.408 . S
C611 C616 1.342 . S
C612 C613 1.310 . S
C612 C615 1.461 . S
C612 H632 0.932 . S
C613 C611 1.408 . S
C613 C612 1.310 . S
C613 H633 0.930 . S
C614 C615 1.474 . S
C614 C616 1.285 . S
C614 H634 0.929 . S
C615 C612 1.461 . S
C615 C614 1.474 . S
C616 C611 1.342 . S
C616 C614 1.285 . S
C616 H635 0.930 . S
C617 C620 1.424 . S
C617 C622 1.245 . S
C617 C623 1.428 . S
C618 C621 1.260 . S
C618 C622 1.477 . S
C618 H636 0.932 . S
C619 C620 1.384 . S
C619 C621 1.479 . S
C619 H637 0.929 . S
C620 C617 1.424 . S
C620 C619 1.384 . S
C620 H638 0.928 . S
C621 C618 1.260 . S
C621 C619 1.479 . S
C622 C617 1.245 . S
C622 C618 1.477 . S
C622 H639 0.932 . S
C623 U606 2.882 . S
C623 C617 1.428 . S
C623 O626 1.301 . S
C623 O627 1.282 . S
O624 U606 2.441 . S
O624 C610 1.249 . S
O625 U606 2.420 . S
O625 C610 1.202 . S
O626 U606 2.455 . S
O626 C623 1.301 . S
O627 U606 2.449 . S
O627 C623 1.282 . S
H628 C601 0.931 . S
H629 C603 0.929 . S
H630 C604 0.930 . S
H631 C605 0.931 . S
H632 C612 0.932 . S
H633 C613 0.930 . S
H634 C614 0.929 . S
H635 C616 0.930 . S
H636 C618 0.932 . S
H637 C619 0.929 . S
H638 C620 0.928 . S
H639 C622 0.932 . S
C640 C641 1.264 . S
C640 C645 1.479 . S
C640 C650 1.465 . S
C641 C640 1.264 . S
C641 C643 1.339 . S
C641 H668 0.931 . S
C642 C643 1.395 . S
C642 C644 1.320 . S
C643 C641 1.339 . S
C643 C642 1.395 . S
C643 H669 0.929 . S
C644 C642 1.320 . S
C644 C645 1.405 . S
C644 H670 0.930 . S
C645 C640 1.479 . S
C645 C644 1.405 . S
C645 H671 0.931 . S
U646 O647 2.454 . S
U646 O648 2.458 . S
U646 C649 2.984 . S
U646 C650 2.847 . S
U646 C663 2.882 . S
U646 O664 2.441 . S
U646 O665 2.420 . S
U646 O666 2.455 . S
U646 O667 2.449 . S
O647 U646 2.454 . S
O647 C649 1.353 . S
O648 U646 2.458 . S
O648 C649 1.286 . S
C649 U646 2.984 . S
C649 O647 1.353 . S
C649 O648 1.286 . S
C649 C651 1.363 . S
C650 C640 1.465 . S
C650 U646 2.847 . S
C650 O664 1.249 . S
C650 O665 1.202 . S
C651 C649 1.363 . S
C651 C653 1.408 . S
C651 C656 1.342 . S
C652 C653 1.310 . S
C652 C655 1.461 . S
C652 H672 0.932 . S
C653 C651 1.408 . S
C653 C652 1.310 . S
C653 H673 0.930 . S
C654 C655 1.474 . S
C654 C656 1.285 . S
C654 H674 0.929 . S
C655 C652 1.461 . S
C655 C654 1.474 . S
C656 C651 1.342 . S
C656 C654 1.285 . S
C656 H675 0.930 . S
C657 C660 1.424 . S
C657 C662 1.245 . S
C657 C663 1.428 . S
C658 C661 1.260 . S
C658 C662 1.477 . S
C658 H676 0.932 . S
C659 C660 1.384 . S
C659 C661 1.479 . S
C659 H677 0.929 . S
C660 C657 1.424 . S
C660 C659 1.384 . S
C660 H678 0.928 . S
C661 C658 1.260 . S
C661 C659 1.479 . S
C662 C657 1.245 . S
C662 C658 1.477 . S
C662 H679 0.932 . S
C663 U646 2.882 . S
C663 C657 1.428 . S
C663 O666 1.301 . S
C663 O667 1.282 . S
O664 U646 2.441 . S
O664 C650 1.249 . S
O665 U646 2.420 . S
O665 C650 1.202 . S
O666 U646 2.455 . S
O666 C663 1.301 . S
O667 U646 2.449 . S
O667 C663 1.282 . S
H668 C641 0.931 . S
H669 C643 0.929 . S
H670 C644 0.930 . S
H671 C645 0.931 . S
H672 C652 0.932 . S
H673 C653 0.930 . S
H674 C654 0.929 . S
H675 C656 0.930 . S
H676 C658 0.932 . S
H677 C659 0.929 . S
H678 C660 0.928 . S
H679 C662 0.932 . S
C680 C681 1.264 . S
C680 C685 1.479 . S
C680 C690 1.465 . S
C681 C680 1.264 . S
C681 C683 1.339 . S
C681 H708 0.931 . S
C682 C683 1.395 . S
C682 C684 1.320 . S
C683 C681 1.339 . S
C683 C682 1.395 . S
C683 H709 0.929 . S
C684 C682 1.320 . S
C684 C685 1.405 . S
C684 H710 0.930 . S
C685 C680 1.479 . S
C685 C684 1.405 . S
C685 H711 0.931 . S
U686 O687 2.454 . S
U686 O688 2.458 . S
U686 C689 2.984 . S
U686 C690 2.847 . S
U686 C703 2.882 . S
U686 O704 2.441 . S
U686 O705 2.420 . S
U686 O706 2.455 . S
U686 O707 2.449 . S
O687 U686 2.454 . S
O687 C689 1.353 . S
O688 U686 2.458 . S
O688 C689 1.286 . S
C689 U686 2.984 . S
C689 O687 1.353 . S
C689 O688 1.286 . S
C689 C691 1.363 . S
C690 C680 1.465 . S
C690 U686 2.847 . S
C690 O704 1.249 . S
C690 O705 1.202 . S
C691 C689 1.363 . S
C691 C693 1.408 . S
C691 C696 1.342 . S
C692 C693 1.310 . S
C692 C695 1.461 . S
C692 H712 0.932 . S
C693 C691 1.408 . S
C693 C692 1.310 . S
C693 H713 0.930 . S
C694 C695 1.474 . S
C694 C696 1.285 . S
C694 H714 0.929 . S
C695 C692 1.461 . S
C695 C694 1.474 . S
C696 C691 1.342 . S
C696 C694 1.285 . S
C696 H715 0.930 . S
C697 C700 1.424 . S
C697 C702 1.245 . S
C697 C703 1.428 . S
C698 C701 1.260 . S
C698 C702 1.477 . S
C698 H716 0.932 . S
C699 C700 1.384 . S
C699 C701 1.479 . S
C699 H717 0.929 . S
C700 C697 1.424 . S
C700 C699 1.384 . S
C700 H718 0.928 . S
C701 C698 1.260 . S
C701 C699 1.479 . S
C702 C697 1.245 . S
C702 C698 1.477 . S
C702 H719 0.932 . S
C703 U686 2.882 . S
C703 C697 1.428 . S
C703 O706 1.301 . S
C703 O707 1.282 . S
O704 U686 2.441 . S
O704 C690 1.249 . S
O705 U686 2.420 . S
O705 C690 1.202 . S
O706 U686 2.455 . S
O706 C703 1.301 . S
O707 U686 2.449 . S
O707 C703 1.282 . S
H708 C681 0.931 . S
H709 C683 0.929 . S
H710 C684 0.930 . S
H711 C685 0.931 . S
H712 C692 0.932 . S
H713 C693 0.930 . S
H714 C694 0.929 . S
H715 C696 0.930 . S
H716 C698 0.932 . S
H717 C699 0.929 . S
H718 C700 0.928 . S
H719 C702 0.932 . S
Tb720 C730 2.825 . S
Tb720 O731 2.347 1_565 S
Tb720 O734 2.366 1_565 S
Tb720 O739 2.418 . S
Tb720 O740 2.397 . S
Tb720 O743 2.479 . S
Tb720 O744 2.471 1_565 S
Eu721 O732 2.418 . S
Eu721 O733 2.384 . S
Eu721 O736 2.479 . S
Eu721 O737 2.471 1_545 S
Eu721 O738 2.347 1_545 S
Eu721 O741 2.366 1_545 S
Eu721 C751 2.825 . S
C722 O738 1.259 . S
C722 O739 1.265 1_554 S
C723 O740 1.239 1_554 S
C723 O741 1.265 . S
C724 C726 1.380 . S
C724 C727 1.374 1_565 S
C724 C730 1.507 . S
C725 C726 1.384 . S
C725 C729 1.387 1_565 S
C725 H752 0.930 . S
C726 C724 1.380 . S
C726 C725 1.384 . S
C726 H753 0.931 . S
C727 C724 1.374 1_545 S
C727 C728 1.390 . S
C727 H754 0.930 . S
C728 C727 1.390 . S
C728 C729 1.391 . S
C728 H755 0.930 . S
C729 C725 1.387 1_545 S
C729 C728 1.391 . S
C730 Tb720 2.825 . S
C730 C724 1.507 . S
C730 O743 1.238 . S
C730 O744 1.247 1_565 S
O731 Tb720 2.347 1_545 S
O731 C735 1.261 . S
O732 Eu721 2.418 . S
O732 C735 1.259 1_554 S
O733 Eu721 2.384 . S
O733 C742 1.255 1_554 S
O734 Tb720 2.366 1_545 S
O734 C742 1.265 . S
C735 O731 1.261 . S
C735 O732 1.259 1_556 S
O736 Eu721 2.479 . S
O736 C751 1.238 . S
O737 Eu721 2.471 1_565 S
O737 C751 1.247 1_565 S
O738 Eu721 2.347 1_565 S
O738 C722 1.259 . S
O739 Tb720 2.418 . S
O739 C722 1.265 1_556 S
O740 Tb720 2.397 . S
O740 C723 1.239 1_556 S
O741 Eu721 2.366 1_565 S
O741 C723 1.265 . S
C742 O733 1.255 1_556 S
C742 O734 1.265 . S
O743 Tb720 2.479 . S
O743 C730 1.238 . S
O744 Tb720 2.471 1_545 S
O744 C730 1.247 1_545 S
C745 C748 1.380 . S
C745 C749 1.374 1_545 S
C745 C751 1.507 . S
C746 C747 1.387 1_565 S
C746 C750 1.391 . S
C747 C746 1.387 1_545 S
C747 C748 1.384 . S
C747 H756 0.930 . S
C748 C745 1.380 . S
C748 C747 1.384 . S
C748 H757 0.931 . S
C749 C745 1.374 1_565 S
C749 C750 1.390 . S
C749 H758 0.930 . S
C750 C746 1.391 . S
C750 C749 1.390 . S
C750 H759 0.930 . S
C751 Eu721 2.825 . S
C751 O736 1.238 . S
C751 O737 1.247 1_545 S
C751 C745 1.507 . S
H752 C725 0.930 . S
H753 C726 0.931 . S
H754 C727 0.930 . S
H755 C728 0.930 . S
H756 C747 0.930 . S
H757 C748 0.931 . S
H758 C749 0.930 . S
H759 C750 0.930 . S
Tb760 C770 2.825 . S
Tb760 O771 2.347 1_455 S
Tb760 O774 2.366 1_455 S
Tb760 O779 2.418 . S
Tb760 O780 2.384 1_556 S
Tb760 O783 2.479 . S
Tb760 O784 2.471 1_455 S
Eu761 O772 2.418 . S
Eu761 O773 2.438 . S
Eu761 O776 2.479 . S
Eu761 O777 2.471 1_655 S
Eu761 O778 2.347 1_655 S
Eu761 O781 2.366 1_655 S
Eu761 C791 2.825 . S
C762 O778 1.259 . S
C762 O779 1.265 1_554 S
C763 O780 1.255 . S
C763 O781 1.265 . S
C764 C766 1.393 . S
C764 C767 1.350 1_455 S
C764 C770 1.518 . S
C765 C766 1.384 . S
C765 C769 1.387 1_455 S
C765 H792 0.930 . S
C766 C764 1.393 . S
C766 C765 1.384 . S
C766 H793 0.931 . S
C767 C764 1.350 1_655 S
C767 C768 1.390 . S
C767 H794 0.930 . S
C768 C767 1.390 . S
C768 C769 1.391 . S
C768 H795 0.930 . S
C769 C765 1.387 1_655 S
C769 C768 1.391 . S
C770 Tb760 2.825 . S
C770 C764 1.518 . S
C770 O783 1.238 . S
C770 O784 1.247 1_455 S
O771 Tb760 2.347 1_655 S
O771 C775 1.259 . S
O772 Eu761 2.418 . S
O772 C775 1.265 1_554 S
O773 Eu761 2.438 . S
O773 C782 1.189 1_554 S
O774 Tb760 2.366 1_655 S
O774 C782 1.265 . S
C775 O771 1.259 . S
C775 O772 1.265 1_556 S
O776 Eu761 2.479 . S
O776 C791 1.238 . S
O777 Eu761 2.471 1_455 S
O777 C791 1.247 1_455 S
O778 Eu761 2.347 1_455 S
O778 C762 1.259 . S
O779 Tb760 2.418 . S
O779 C762 1.265 1_556 S
O780 Tb760 2.384 1_554 S
O780 C763 1.255 . S
O781 Eu761 2.366 1_455 S
O781 C763 1.265 . S
C782 O773 1.189 1_556 S
C782 O774 1.265 . S
O783 Tb760 2.479 . S
O783 C770 1.238 . S
O784 Tb760 2.471 1_655 S
O784 C770 1.247 1_655 S
C785 C788 1.375 1_455 S
C785 C789 1.383 . S
C785 C791 1.503 1_455 S
C786 C787 1.387 1_455 S
C786 C790 1.391 . S
C787 C786 1.387 1_655 S
C787 C788 1.384 . S
C787 H796 0.930 . S
C788 C785 1.375 1_655 S
C788 C787 1.384 . S
C788 H797 0.931 . S
C789 C785 1.383 . S
C789 C790 1.390 . S
C789 H798 0.930 . S
C790 C786 1.391 . S
C790 C789 1.390 . S
C790 H799 0.930 . S
C791 Eu761 2.825 . S
C791 O776 1.238 . S
C791 O777 1.247 1_655 S
C791 C785 1.503 1_655 S
H792 C765 0.930 . S
H793 C766 0.931 . S
H794 C767 0.930 . S
H795 C768 0.930 . S
H796 C787 0.930 . S
H797 C788 0.931 . S
H798 C789 0.930 . S
H799 C790 0.930 . S
Tb800 C810 2.825 . S
Tb800 O811 2.347 . S
Tb800 O814 2.366 . S
Tb800 O819 2.418 . S
Tb800 O820 2.384 . S
Tb800 O823 2.479 . S
Tb800 O824 2.471 . S
Eu801 O812 2.418 . S
Eu801 O813 2.384 1_556 S
Eu801 O816 2.479 . S
Eu801 O817 2.471 . S
Eu801 O818 2.347 . S
Eu801 O821 2.366 . S
Eu801 C831 2.825 . S
C802 O818 1.259 . S
C802 O819 1.265 1_556 S
C803 O820 1.255 1_556 S
C803 O821 1.265 . S
C804 C806 1.380 . S
C804 C807 1.374 . S
C804 C810 1.507 . S
C805 C806 1.384 . S
C805 C809 1.387 . S
C805 H832 0.930 . S
C806 C804 1.380 . S
C806 C805 1.384 . S
C806 H833 0.931 . S
C807 C804 1.374 . S
C807 C808 1.390 . S
C807 H834 0.930 . S
C808 C807 1.390 . S
C808 C809 1.391 . S
C808 H835 0.930 . S
C809 C805 1.387 . S
C809 C808 1.391 . S
C810 Tb800 2.825 . S
C810 C804 1.507 . S
C810 O823 1.238 . S
C810 O824 1.247 . S
O811 Tb800 2.347 . S
O811 C815 1.259 . S
O812 Eu801 2.418 . S
O812 C815 1.265 1_556 S
O813 Eu801 2.384 1_554 S
O813 C822 1.255 . S
O814 Tb800 2.366 . S
O814 C822 1.265 . S
C815 O811 1.259 . S
C815 O812 1.265 1_554 S
O816 Eu801 2.479 . S
O816 C831 1.238 . S
O817 Eu801 2.471 . S
O817 C831 1.247 . S
O818 Eu801 2.347 . S
O818 C802 1.259 . S
O819 Tb800 2.418 . S
O819 C802 1.265 1_554 S
O820 Tb800 2.384 . S
O820 C803 1.255 1_554 S
O821 Eu801 2.366 . S
O821 C803 1.265 . S
C822 O813 1.255 . S
C822 O814 1.265 . S
O823 Tb800 2.479 . S
O823 C810 1.238 . S
O824 Tb800 2.471 . S
O824 C810 1.247 . S
C825 C828 1.380 . S
C825 C829 1.374 . S
C825 C831 1.507 . S
C826 C827 1.387 . S
C826 C830 1.391 . S
C827 C826 1.387 . S
C827 C828 1.384 . S
C827 H836 0.930 . S
C828 C825 1.380 . S
C828 C827 1.384 . S
C828 H837 0.931 . S
C829 C825 1.374 . S
C829 C830 1.390 . S
C829 H838 0.930 . S
C830 C826 1.391 . S
C830 C829 1.390 . S
C830 H839 0.930 . S
C831 Eu801 2.825 . S
C831 O816 1.238 . S
C831 O817 1.247 . S
C831 C825 1.507 . S
H832 C805 0.930 . S
H833 C806 0.931 . S
H834 C807 0.930 . S
H835 C808 0.930 . S
H836 C827 0.930 . S
H837 C828 0.931 . S
H838 C829 0.930 . S
H839 C830 0.930 . S
Tb840 C850 2.825 . S
Tb840 O851 2.347 . S
Tb840 O854 2.366 . S
Tb840 O859 2.418 . S
Tb840 O860 2.384 . S
Tb840 O863 2.479 . S
Tb840 O864 2.471 . S
Eu841 O852 2.418 . S
Eu841 O853 2.384 . S
Eu841 O856 2.479 . S
Eu841 O857 2.471 . S
Eu841 O858 2.347 . S
Eu841 O861 2.366 . S
Eu841 C871 2.825 . S
C842 O858 1.259 . S
C842 O859 1.265 . S
C843 O860 1.255 . S
C843 O861 1.265 . S
C844 C846 1.380 . S
C844 C847 1.374 . S
C844 C850 1.507 . S
C845 C846 1.384 . S
C845 C849 1.387 . S
C845 H872 0.930 . S
C846 C844 1.380 . S
C846 C845 1.384 . S
C846 H873 0.931 . S
C847 C844 1.374 . S
C847 C848 1.390 . S
C847 H874 0.930 . S
C848 C847 1.390 . S
C848 C849 1.391 . S
C848 H875 0.930 . S
C849 C845 1.387 . S
C849 C848 1.391 . S
C850 Tb840 2.825 . S
C850 C844 1.507 . S
C850 O863 1.238 . S
C850 O864 1.247 . S
O851 Tb840 2.347 . S
O851 C855 1.259 . S
O852 Eu841 2.418 . S
O852 C855 1.265 . S
O853 Eu841 2.384 . S
O853 C862 1.255 . S
O854 Tb840 2.366 . S
O854 C862 1.265 . S
C855 O851 1.259 . S
C855 O852 1.265 . S
O856 Eu841 2.479 . S
O856 C871 1.238 . S
O857 Eu841 2.471 . S
O857 C871 1.247 . S
O858 Eu841 2.347 . S
O858 C842 1.259 . S
O859 Tb840 2.418 . S
O859 C842 1.265 . S
O860 Tb840 2.384 . S
O860 C843 1.255 . S
O861 Eu841 2.366 . S
O861 C843 1.265 . S
C862 O853 1.255 . S
C862 O854 1.265 . S
O863 Tb840 2.479 . S
O863 C850 1.238 . S
O864 Tb840 2.471 . S
O864 C850 1.247 . S
C865 C868 1.380 . S
C865 C869 1.374 . S
C865 C871 1.507 . S
C866 C867 1.387 . S
C866 C870 1.391 . S
C867 C866 1.387 . S
C867 C868 1.384 . S
C867 H876 0.930 . S
C868 C865 1.380 . S
C868 C867 1.384 . S
C868 H877 0.931 . S
C869 C865 1.374 . S
C869 C870 1.390 . S
C869 H878 0.930 . S
C870 C866 1.391 . S
C870 C869 1.390 . S
C870 H879 0.930 . S
C871 Eu841 2.825 . S
C871 O856 1.238 . S
C871 O857 1.247 . S
C871 C865 1.507 . S
H872 C845 0.930 . S
H873 C846 0.931 . S
H874 C847 0.930 . S
H875 C848 0.930 . S
H876 C867 0.930 . S
H877 C868 0.931 . S
H878 C869 0.930 . S
H879 C870 0.930 . S
Tb880 C890 2.825 . S
Tb880 O891 2.347 . S
Tb880 O894 2.366 . S
Tb880 O899 2.418 . S
Tb880 O900 2.384 . S
Tb880 O903 2.479 . S
Tb880 O904 2.471 . S
Eu881 O892 2.418 . S
Eu881 O893 2.384 . S
Eu881 O896 2.479 . S
Eu881 O897 2.471 . S
Eu881 O898 2.347 . S
Eu881 O901 2.366 . S
Eu881 C911 2.825 . S
C882 O898 1.259 . S
C882 O899 1.265 . S
C883 O900 1.255 . S
C883 O901 1.265 . S
C884 C886 1.380 . S
C884 C887 1.374 . S
C884 C890 1.507 . S
C885 C886 1.384 . S
C885 C889 1.387 . S
C885 H912 0.930 . S
C886 C884 1.380 . S
C886 C885 1.384 . S
C886 H913 0.931 . S
C887 C884 1.374 . S
C887 C888 1.390 . S
C887 H914 0.930 . S
C888 C887 1.390 . S
C888 C889 1.391 . S
C888 H915 0.930 . S
C889 C885 1.387 . S
C889 C888 1.391 . S
C890 Tb880 2.825 . S
C890 C884 1.507 . S
C890 O903 1.238 . S
C890 O904 1.247 . S
O891 Tb880 2.347 . S
O891 C895 1.259 . S
O892 Eu881 2.418 . S
O892 C895 1.265 . S
O893 Eu881 2.384 . S
O893 C902 1.255 . S
O894 Tb880 2.366 . S
O894 C902 1.265 . S
C895 O891 1.259 . S
C895 O892 1.265 . S
O896 Eu881 2.479 . S
O896 C911 1.238 . S
O897 Eu881 2.471 . S
O897 C911 1.247 . S
O898 Eu881 2.347 . S
O898 C882 1.259 . S
O899 Tb880 2.418 . S
O899 C882 1.265 . S
O900 Tb880 2.384 . S
O900 C883 1.255 . S
O901 Eu881 2.366 . S
O901 C883 1.265 . S
C902 O893 1.255 . S
C902 O894 1.265 . S
O903 Tb880 2.479 . S
O903 C890 1.238 . S
O904 Tb880 2.471 . S
O904 C890 1.247 . S
C905 C908 1.380 . S
C905 C909 1.374 . S
C905 C911 1.507 . S
C906 C907 1.387 . S
C906 C910 1.391 . S
C907 C906 1.387 . S
C907 C908 1.384 . S
C907 H916 0.930 . S
C908 C905 1.380 . S
C908 C907 1.384 . S
C908 H917 0.931 . S
C909 C905 1.374 . S
C909 C910 1.390 . S
C909 H918 0.930 . S
C910 C906 1.391 . S
C910 C909 1.390 . S
C910 H919 0.930 . S
C911 Eu881 2.825 . S
C911 O896 1.238 . S
C911 O897 1.247 . S
C911 C905 1.507 . S
H912 C885 0.930 . S
H913 C886 0.931 . S
H914 C887 0.930 . S
H915 C888 0.930 . S
H916 C907 0.930 . S
H917 C908 0.931 . S
H918 C909 0.930 . S
H919 C910 0.930 . S
Tb920 C930 2.825 . S
Tb920 O931 2.347 . S
Tb920 O934 2.366 . S
Tb920 O939 2.418 . S
Tb920 O940 2.384 . S
Tb920 O943 2.479 . S
Tb920 O944 2.471 . S
Eu921 O932 2.418 . S
Eu921 O933 2.384 . S
Eu921 O936 2.479 . S
Eu921 O937 2.471 . S
Eu921 O938 2.347 . S
Eu921 O941 2.366 . S
Eu921 C951 2.825 . S
C922 O938 1.259 . S
C922 O939 1.265 . S
C923 O940 1.255 . S
C923 O941 1.265 . S
C924 C926 1.380 . S
C924 C927 1.374 . S
C924 C930 1.507 . S
C925 C926 1.384 . S
C925 C929 1.387 . S
C925 H952 0.930 . S
C926 C924 1.380 . S
C926 C925 1.384 . S
C926 H953 0.931 . S
C927 C924 1.374 . S
C927 C928 1.390 . S
C927 H954 0.930 . S
C928 C927 1.390 . S
C928 C929 1.391 . S
C928 H955 0.930 . S
C929 C925 1.387 . S
C929 C928 1.391 . S
C930 Tb920 2.825 . S
C930 C924 1.507 . S
C930 O943 1.238 . S
C930 O944 1.247 . S
O931 Tb920 2.347 . S
O931 C935 1.259 . S
O932 Eu921 2.418 . S
O932 C935 1.265 . S
O933 Eu921 2.384 . S
O933 C942 1.255 . S
O934 Tb920 2.366 . S
O934 C942 1.265 . S
C935 O931 1.259 . S
C935 O932 1.265 . S
O936 Eu921 2.479 . S
O936 C951 1.238 . S
O937 Eu921 2.471 . S
O937 C951 1.247 . S
O938 Eu921 2.347 . S
O938 C922 1.259 . S
O939 Tb920 2.418 . S
O939 C922 1.265 . S
O940 Tb920 2.384 . S
O940 C923 1.255 . S
O941 Eu921 2.366 . S
O941 C923 1.265 . S
C942 O933 1.255 . S
C942 O934 1.265 . S
O943 Tb920 2.479 . S
O943 C930 1.238 . S
O944 Tb920 2.471 . S
O944 C930 1.247 . S
C945 C948 1.380 . S
C945 C949 1.374 . S
C945 C951 1.507 . S
C946 C947 1.387 . S
C946 C950 1.391 . S
C947 C946 1.387 . S
C947 C948 1.384 . S
C947 H956 0.930 . S
C948 C945 1.380 . S
C948 C947 1.384 . S
C948 H957 0.931 . S
C949 C945 1.374 . S
C949 C950 1.390 . S
C949 H958 0.930 . S
C950 C946 1.391 . S
C950 C949 1.390 . S
C950 H959 0.930 . S
C951 Eu921 2.825 . S
C951 O936 1.238 . S
C951 O937 1.247 . S
C951 C945 1.507 . S
H952 C925 0.930 . S
H953 C926 0.931 . S
H954 C927 0.930 . S
H955 C928 0.930 . S
H956 C947 0.930 . S
H957 C948 0.931 . S
H958 C949 0.930 . S
H959 C950 0.930 . S
Tb960 C970 2.825 . S
Tb960 O971 2.347 . S
Tb960 O974 2.366 . S
Tb960 O979 2.418 . S
Tb960 O980 2.384 . S
Tb960 O983 2.479 . S
Tb960 O984 2.471 . S
Eu961 O972 2.418 . S
Eu961 O973 2.384 . S
Eu961 O976 2.479 . S
Eu961 O977 2.471 . S
Eu961 O978 2.347 . S
Eu961 O981 2.366 . S
Eu961 C991 2.825 . S
C962 O978 1.259 . S
C962 O979 1.265 . S
C963 O980 1.255 . S
C963 O981 1.265 . S
C964 C966 1.380 . S
C964 C967 1.374 . S
C964 C970 1.507 . S
C965 C966 1.384 . S
C965 C969 1.387 . S
C965 H992 0.930 . S
C966 C964 1.380 . S
C966 C965 1.384 . S
C966 H993 0.931 . S
C967 C964 1.374 . S
C967 C968 1.390 . S
C967 H994 0.930 . S
C968 C967 1.390 . S
C968 C969 1.391 . S
C968 H995 0.930 . S
C969 C965 1.387 . S
C969 C968 1.391 . S
C970 Tb960 2.825 . S
C970 C964 1.507 . S
C970 O983 1.238 . S
C970 O984 1.247 . S
O971 Tb960 2.347 . S
O971 C975 1.259 . S
O972 Eu961 2.418 . S
O972 C975 1.265 . S
O973 Eu961 2.384 . S
O973 C982 1.255 . S
O974 Tb960 2.366 . S
O974 C982 1.265 . S
C975 O971 1.259 . S
C975 O972 1.265 . S
O976 Eu961 2.479 . S
O976 C991 1.238 . S
O977 Eu961 2.471 . S
O977 C991 1.247 . S
O978 Eu961 2.347 . S
O978 C962 1.259 . S
O979 Tb960 2.418 . S
O979 C962 1.265 . S
O980 Tb960 2.384 . S
O980 C963 1.255 . S
O981 Eu961 2.366 . S
O981 C963 1.265 . S
C982 O973 1.255 . S
C982 O974 1.265 . S
O983 Tb960 2.479 . S
O983 C970 1.238 . S
O984 Tb960 2.471 . S
O984 C970 1.247 . S
C985 C988 1.380 . S
C985 C989 1.374 . S
C985 C991 1.507 . S
C986 C987 1.387 . S
C986 C990 1.391 . S
C987 C986 1.387 . S
C987 C988 1.384 . S
C987 H996 0.930 . S
C988 C985 1.380 . S
C988 C987 1.384 . S
C988 H997 0.931 . S
C989 C985 1.374 . S
C989 C990 1.390 . S
C989 H998 0.930 . S
C990 C986 1.391 . S
C990 C989 1.390 . S
C990 H999 0.930 . S
C991 Eu961 2.825 . S
C991 O976 1.238 . S
C991 O977 1.247 . S
C991 C985 1.507 . S
H992 C965 0.930 . S
H993 C966 0.931 . S
H994 C967 0.930 . S
H995 C968 0.930 . S
H996 C987 0.930 . S
H997 C988 0.931 . S
H998 C989 0.930 . S
H999 C990 0.930 . S
Tb1000 C1010 2.825 . S
Tb1000 O1011 2.347 . S
Tb1000 O1014 2.366 . S
Tb1000 O1019 2.418 . S
Tb1000 O1020 2.384 . S
Tb1000 O1023 2.479 . S
Tb1000 O1024 2.471 . S
Eu1001 O1012 2.418 . S
Eu1001 O1013 2.384 . S
Eu1001 O1016 2.479 . S
Eu1001 O1017 2.471 . S
Eu1001 O1018 2.347 . S
Eu1001 O1021 2.366 . S
Eu1001 C1031 2.825 . S
C1002 O1018 1.259 . S
C1002 O1019 1.265 . S
C1003 O1020 1.255 . S
C1003 O1021 1.265 . S
C1004 C1006 1.380 . S
C1004 C1007 1.374 . S
C1004 C1010 1.507 . S
C1005 C1006 1.384 . S
C1005 C1009 1.387 . S
C1005 H1032 0.930 . S
C1006 C1004 1.380 . S
C1006 C1005 1.384 . S
C1006 H1033 0.931 . S
C1007 C1004 1.374 . S
C1007 C1008 1.390 . S
C1007 H1034 0.930 . S
C1008 C1007 1.390 . S
C1008 C1009 1.391 . S
C1008 H1035 0.930 . S
C1009 C1005 1.387 . S
C1009 C1008 1.391 . S
C1010 Tb1000 2.825 . S
C1010 C1004 1.507 . S
C1010 O1023 1.238 . S
C1010 O1024 1.247 . S
O1011 Tb1000 2.347 . S
O1011 C1015 1.259 . S
O1012 Eu1001 2.418 . S
O1012 C1015 1.265 . S
O1013 Eu1001 2.384 . S
O1013 C1022 1.255 . S
O1014 Tb1000 2.366 . S
O1014 C1022 1.265 . S
C1015 O1011 1.259 . S
C1015 O1012 1.265 . S
O1016 Eu1001 2.479 . S
O1016 C1031 1.238 . S
O1017 Eu1001 2.471 . S
O1017 C1031 1.247 . S
O1018 Eu1001 2.347 . S
O1018 C1002 1.259 . S
O1019 Tb1000 2.418 . S
O1019 C1002 1.265 . S
O1020 Tb1000 2.384 . S
O1020 C1003 1.255 . S
O1021 Eu1001 2.366 . S
O1021 C1003 1.265 . S
C1022 O1013 1.255 . S
C1022 O1014 1.265 . S
O1023 Tb1000 2.479 . S
O1023 C1010 1.238 . S
O1024 Tb1000 2.471 . S
O1024 C1010 1.247 . S
C1025 C1028 1.380 . S
C1025 C1029 1.374 . S
C1025 C1031 1.507 . S
C1026 C1027 1.387 . S
C1026 C1030 1.391 . S
C1027 C1026 1.387 . S
C1027 C1028 1.384 . S
C1027 H1036 0.930 . S
C1028 C1025 1.380 . S
C1028 C1027 1.384 . S
C1028 H1037 0.931 . S
C1029 C1025 1.374 . S
C1029 C1030 1.390 . S
C1029 H1038 0.930 . S
C1030 C1026 1.391 . S
C1030 C1029 1.390 . S
C1030 H1039 0.930 . S
C1031 Eu1001 2.825 . S
C1031 O1016 1.238 . S
C1031 O1017 1.247 . S
C1031 C1025 1.507 . S
H1032 C1005 0.930 . S
H1033 C1006 0.931 . S
H1034 C1007 0.930 . S
H1035 C1008 0.930 . S
H1036 C1027 0.930 . S
H1037 C1028 0.931 . S
H1038 C1029 0.930 . S
H1039 C1030 0.930 . S
Tb1040 C1050 2.825 . S
Tb1040 O1051 2.347 . S
Tb1040 O1054 2.366 . S
Tb1040 O1059 2.418 . S
Tb1040 O1060 2.384 . S
Tb1040 O1063 2.479 . S
Tb1040 O1064 2.471 . S
Eu1041 O1052 2.418 . S
Eu1041 O1053 2.384 . S
Eu1041 O1056 2.479 . S
Eu1041 O1057 2.471 . S
Eu1041 O1058 2.347 . S
Eu1041 O1061 2.366 . S
Eu1041 C1071 2.825 . S
C1042 O1058 1.259 . S
C1042 O1059 1.265 . S
C1043 O1060 1.255 . S
C1043 O1061 1.265 . S
C1044 C1046 1.380 . S
C1044 C1047 1.374 . S
C1044 C1050 1.507 . S
C1045 C1046 1.384 . S
C1045 C1049 1.387 . S
C1045 H1072 0.930 . S
C1046 C1044 1.380 . S
C1046 C1045 1.384 . S
C1046 H1073 0.931 . S
C1047 C1044 1.374 . S
C1047 C1048 1.390 . S
C1047 H1074 0.930 . S
C1048 C1047 1.390 . S
C1048 C1049 1.391 . S
C1048 H1075 0.930 . S
C1049 C1045 1.387 . S
C1049 C1048 1.391 . S
C1050 Tb1040 2.825 . S
C1050 C1044 1.507 . S
C1050 O1063 1.238 . S
C1050 O1064 1.247 . S
O1051 Tb1040 2.347 . S
O1051 C1055 1.259 . S
O1052 Eu1041 2.418 . S
O1052 C1055 1.265 . S
O1053 Eu1041 2.384 . S
O1053 C1062 1.255 . S
O1054 Tb1040 2.366 . S
O1054 C1062 1.265 . S
C1055 O1051 1.259 . S
C1055 O1052 1.265 . S
O1056 Eu1041 2.479 . S
O1056 C1071 1.238 . S
O1057 Eu1041 2.471 . S
O1057 C1071 1.247 . S
O1058 Eu1041 2.347 . S
O1058 C1042 1.259 . S
O1059 Tb1040 2.418 . S
O1059 C1042 1.265 . S
O1060 Tb1040 2.384 . S
O1060 C1043 1.255 . S
O1061 Eu1041 2.366 . S
O1061 C1043 1.265 . S
C1062 O1053 1.255 . S
C1062 O1054 1.265 . S
O1063 Tb1040 2.479 . S
O1063 C1050 1.238 . S
O1064 Tb1040 2.471 . S
O1064 C1050 1.247 . S
C1065 C1068 1.380 . S
C1065 C1069 1.374 . S
C1065 C1071 1.507 . S
C1066 C1067 1.387 . S
C1066 C1070 1.391 . S
C1067 C1066 1.387 . S
C1067 C1068 1.384 . S
C1067 H1076 0.930 . S
C1068 C1065 1.380 . S
C1068 C1067 1.384 . S
C1068 H1077 0.931 . S
C1069 C1065 1.374 . S
C1069 C1070 1.390 . S
C1069 H1078 0.930 . S
C1070 C1066 1.391 . S
C1070 C1069 1.390 . S
C1070 H1079 0.930 . S
C1071 Eu1041 2.825 . S
C1071 O1056 1.238 . S
C1071 O1057 1.247 . S
C1071 C1065 1.507 . S
H1072 C1045 0.930 . S
H1073 C1046 0.931 . S
H1074 C1047 0.930 . S
H1075 C1048 0.930 . S
H1076 C1067 0.930 . S
H1077 C1068 0.931 . S
H1078 C1069 0.930 . S
H1079 C1070 0.930 . S
H1080 C1088 0.929 . S
H1081 C1090 0.930 . S
H1082 C1092 0.930 . S
H1083 C1095 0.929 . S
H1084 C1098 0.930 . S
H1085 C1100 0.960 . S
H1086 C1100 0.960 . S
H1087 C1100 0.960 . S
C1088 H1080 0.929 . S
C1088 C1089 1.377 . S
C1088 C1090 1.384 . S
C1089 C1088 1.377 . S
C1089 C1095 1.390 . S
C1090 H1081 0.930 . S
C1090 C1088 1.384 . S
C1090 C1091 1.372 . S
C1091 C1090 1.372 . S
C1091 C1092 1.400 . S
C1091 C1096 1.490 . S
C1092 H1082 0.930 . S
C1092 C1091 1.400 . S
C1092 C1095 1.386 . S
H1093 C1109 0.930 . S
H1094 C1110 0.931 . S
C1095 H1083 0.929 . S
C1095 C1089 1.390 . S
C1095 C1092 1.386 . S
C1096 C1091 1.490 . S
C1096 C1098 1.395 . S
C1096 C1099 1.403 . S
H1097 C1103 0.930 . S
C1098 H1084 0.930 . S
C1098 C1096 1.395 . S
C1098 C1101 1.403 . S
C1099 C1096 1.403 . S
C1099 C1100 1.524 . S
C1099 C1103 1.400 . S
C1100 H1085 0.960 . S
C1100 H1086 0.960 . S
C1100 H1087 0.960 . S
C1100 C1099 1.524 . S
C1101 C1098 1.403 . S
C1101 C1102 1.392 . S
C1101 C1105 1.495 . S
C1102 C1101 1.392 . S
C1102 C1103 1.385 . S
C1102 C1104 1.478 . S
C1103 H1097 0.930 . S
C1103 C1099 1.400 . S
C1103 C1102 1.385 . S
C1104 C1102 1.478 . S
C1104 C1106 1.381 . S
C1104 C1110 1.383 . S
C1105 C1101 1.495 . S
C1105 H1111 0.958 1_554 S
C1105 H1112 0.952 1_554 S
C1105 H1113 0.960 . S
C1106 C1104 1.381 . S
C1106 C1107 1.394 . S
C1106 H1114 0.930 . S
C1107 C1106 1.394 . S
C1107 C1108 1.383 . S
C1107 H1115 0.929 . S
C1108 C1107 1.383 . S
C1108 C1109 1.377 . S
C1109 H1093 0.930 . S
C1109 C1108 1.377 . S
C1109 C1110 1.379 . S
C1110 H1094 0.931 . S
C1110 C1104 1.383 . S
C1110 C1109 1.379 . S
H1111 C1105 0.958 1_556 S
H1112 C1105 0.952 1_556 S
H1113 C1105 0.960 . S
H1114 C1106 0.930 . S
H1115 C1107 0.929 . S
H1116 C1124 0.929 . S
H1117 C1126 0.930 . S
H1118 C1128 0.930 . S
H1119 C1131 0.929 . S
H1120 C1134 0.930 . S
H1121 C1136 0.960 . S
H1122 C1136 0.960 . S
H1123 C1136 0.960 . S
C1124 H1116 0.929 . S
C1124 C1125 1.377 . S
C1124 C1126 1.384 . S
C1125 C1124 1.377 . S
C1125 C1131 1.390 . S
C1126 H1117 0.930 . S
C1126 C1124 1.384 . S
C1126 C1127 1.372 . S
C1127 C1126 1.372 . S
C1127 C1128 1.400 . S
C1127 C1132 1.490 . S
C1128 H1118 0.930 . S
C1128 C1127 1.400 . S
C1128 C1131 1.386 . S
H1129 C1145 0.930 . S
H1130 C1146 0.931 . S
C1131 H1119 0.929 . S
C1131 C1125 1.390 . S
C1131 C1128 1.386 . S
C1132 C1127 1.490 . S
C1132 C1134 1.395 . S
C1132 C1135 1.403 . S
H1133 C1139 0.930 . S
C1134 H1120 0.930 . S
C1134 C1132 1.395 . S
C1134 C1137 1.403 . S
C1135 C1132 1.403 . S
C1135 C1136 1.524 . S
C1135 C1139 1.400 . S
C1136 H1121 0.960 . S
C1136 H1122 0.960 . S
C1136 H1123 0.960 . S
C1136 C1135 1.524 . S
C1137 C1134 1.403 . S
C1137 C1138 1.392 . S
C1137 C1141 1.495 . S
C1138 C1137 1.392 . S
C1138 C1139 1.385 . S
C1138 C1140 1.478 . S
C1139 H1133 0.930 . S
C1139 C1135 1.400 . S
C1139 C1138 1.385 . S
C1140 C1138 1.478 . S
C1140 C1142 1.381 . S
C1140 C1146 1.383 . S
C1141 C1137 1.495 . S
C1141 H1147 0.959 . S
C1141 H1148 0.961 . S
C1141 H1149 0.960 . S
C1142 C1140 1.381 . S
C1142 C1143 1.394 . S
C1142 H1150 0.930 . S
C1143 C1142 1.394 . S
C1143 C1144 1.383 . S
C1143 H1151 0.929 . S
C1144 C1143 1.383 . S
C1144 C1145 1.377 . S
C1145 H1129 0.930 . S
C1145 C1144 1.377 . S
C1145 C1146 1.379 . S
C1146 H1130 0.931 . S
C1146 C1140 1.383 . S
C1146 C1145 1.379 . S
H1147 C1141 0.959 . S
H1148 C1141 0.961 . S
H1149 C1141 0.960 . S
H1150 C1142 0.930 . S
H1151 C1143 0.929 . S
H1152 C1160 0.929 . S
H1153 C1162 0.930 . S
H1154 C1164 0.930 . S
H1155 C1167 0.929 . S
H1156 C1170 0.930 . S
H1157 C1172 0.960 . S
H1158 C1172 0.960 . S
H1159 C1172 0.960 . S
C1160 H1152 0.929 . S
C1160 C1161 1.377 . S
C1160 C1162 1.384 . S
C1161 C1160 1.377 . S
C1161 C1167 1.390 . S
C1162 H1153 0.930 . S
C1162 C1160 1.384 . S
C1162 C1163 1.372 . S
C1163 C1162 1.372 . S
C1163 C1164 1.400 . S
C1163 C1168 1.490 . S
C1164 H1154 0.930 . S
C1164 C1163 1.400 . S
C1164 C1167 1.386 . S
H1165 C1181 0.930 . S
H1166 C1182 0.931 . S
C1167 H1155 0.929 . S
C1167 C1161 1.390 . S
C1167 C1164 1.386 . S
C1168 C1163 1.490 . S
C1168 C1170 1.395 . S
C1168 C1171 1.403 . S
H1169 C1175 0.930 . S
C1170 H1156 0.930 . S
C1170 C1168 1.395 . S
C1170 C1173 1.403 . S
C1171 C1168 1.403 . S
C1171 C1172 1.524 . S
C1171 C1175 1.400 . S
C1172 H1157 0.960 . S
C1172 H1158 0.960 . S
C1172 H1159 0.960 . S
C1172 C1171 1.524 . S
C1173 C1170 1.403 . S
C1173 C1174 1.392 . S
C1173 C1177 1.495 1_554 S
C1174 C1173 1.392 . S
C1174 C1175 1.385 . S
C1174 C1176 1.478 . S
C1175 H1169 0.930 . S
C1175 C1171 1.400 . S
C1175 C1174 1.385 . S
C1176 C1174 1.478 . S
C1176 C1178 1.381 . S
C1176 C1182 1.383 . S
C1177 C1173 1.495 1_556 S
C1177 H1183 0.959 . S
C1177 H1184 0.961 . S
C1177 H1185 0.960 1_556 S
C1178 C1176 1.381 . S
C1178 C1179 1.394 . S
C1178 H1186 0.930 . S
C1179 C1178 1.394 . S
C1179 C1180 1.383 . S
C1179 H1187 0.929 . S
C1180 C1179 1.383 . S
C1180 C1181 1.377 . S
C1181 H1165 0.930 . S
C1181 C1180 1.377 . S
C1181 C1182 1.379 . S
C1182 H1166 0.931 . S
C1182 C1176 1.383 . S
C1182 C1181 1.379 . S
H1183 C1177 0.959 . S
H1184 C1177 0.961 . S
H1185 C1177 0.960 1_554 S
H1186 C1178 0.930 . S
H1187 C1179 0.929 . S
H1188 C1196 0.929 . S
H1189 C1198 0.930 . S
H1190 C1200 0.930 . S
H1191 C1203 0.929 . S
H1192 C1206 0.930 . S
H1193 C1208 0.960 . S
H1194 C1208 0.960 . S
H1195 C1208 0.960 . S
C1196 H1188 0.929 . S
C1196 C1197 1.377 . S
C1196 C1198 1.384 . S
C1197 C1196 1.377 . S
C1197 C1203 1.390 . S
C1198 H1189 0.930 . S
C1198 C1196 1.384 . S
C1198 C1199 1.372 . S
C1199 C1198 1.372 . S
C1199 C1200 1.400 . S
C1199 C1204 1.490 . S
C1200 H1190 0.930 . S
C1200 C1199 1.400 . S
C1200 C1203 1.386 . S
H1201 C1217 0.848 1_554 S
H1202 C1218 0.871 1_554 S
C1203 H1191 0.929 . S
C1203 C1197 1.390 . S
C1203 C1200 1.386 . S
C1204 C1199 1.490 . S
C1204 C1206 1.395 . S
C1204 C1207 1.403 . S
H1205 C1211 0.930 . S
C1206 H1192 0.930 . S
C1206 C1204 1.395 . S
C1206 C1209 1.403 . S
C1207 C1204 1.403 . S
C1207 C1208 1.524 . S
C1207 C1211 1.400 . S
C1208 H1193 0.960 . S
C1208 H1194 0.960 . S
C1208 H1195 0.960 . S
C1208 C1207 1.524 . S
C1209 C1206 1.403 . S
C1209 C1210 1.392 . S
C1209 C1213 1.495 . S
C1210 C1209 1.392 . S
C1210 C1211 1.385 . S
C1210 C1212 1.478 . S
C1211 H1205 0.930 . S
C1211 C1207 1.400 . S
C1211 C1210 1.385 . S
C1212 C1210 1.478 . S
C1212 C1214 1.381 . S
C1212 C1218 1.383 . S
C1213 C1209 1.495 . S
C1213 H1219 0.959 . S
C1213 H1220 0.961 . S
C1213 H1221 0.960 . S
C1214 C1212 1.381 . S
C1214 C1215 1.394 . S
C1214 H1222 0.930 . S
C1215 C1214 1.394 . S
C1215 C1216 1.383 . S
C1215 H1223 0.929 . S
C1216 C1215 1.383 . S
C1216 C1217 1.442 . S
C1217 H1201 0.848 1_556 S
C1217 C1216 1.442 . S
C1217 C1218 1.399 . S
C1218 H1202 0.871 1_556 S
C1218 C1212 1.383 . S
C1218 C1217 1.399 . S
H1219 C1213 0.959 . S
H1220 C1213 0.961 . S
H1221 C1213 0.960 . S
H1222 C1214 0.930 . S
H1223 C1215 0.929 . S
H1224 C1232 0.929 . S
H1225 C1234 0.930 . S
H1226 C1236 0.930 . S
H1227 C1239 0.929 . S
H1228 C1242 0.930 . S
H1229 C1244 0.960 . S
H1230 C1244 0.960 . S
H1231 C1244 0.960 . S
C1232 H1224 0.929 . S
C1232 C1233 1.377 . S
C1232 C1234 1.384 . S
C1233 C1232 1.377 . S
C1233 C1239 1.390 . S
C1234 H1225 0.930 . S
C1234 C1232 1.384 . S
C1234 C1235 1.372 . S
C1235 C1234 1.372 . S
C1235 C1236 1.400 . S
C1235 C1240 1.490 . S
C1236 H1226 0.930 . S
C1236 C1235 1.400 . S
C1236 C1239 1.386 . S
H1237 C1253 0.930 . S
H1238 C1254 0.931 . S
C1239 H1227 0.929 . S
C1239 C1233 1.390 . S
C1239 C1236 1.386 . S
C1240 C1235 1.490 . S
C1240 C1242 1.395 . S
C1240 C1243 1.403 . S
H1241 C1247 0.930 . S
C1242 H1228 0.930 . S
C1242 C1240 1.395 . S
C1242 C1245 1.403 . S
C1243 C1240 1.403 . S
C1243 C1244 1.524 . S
C1243 C1247 1.400 . S
C1244 H1229 0.960 . S
C1244 H1230 0.960 . S
C1244 H1231 0.960 . S
C1244 C1243 1.524 . S
C1245 C1242 1.403 . S
C1245 C1246 1.392 . S
C1245 C1249 1.495 . S
C1246 C1245 1.392 . S
C1246 C1247 1.385 . S
C1246 C1248 1.478 . S
C1247 H1241 0.930 . S
C1247 C1243 1.400 . S
C1247 C1246 1.385 . S
C1248 C1246 1.478 . S
C1248 C1250 1.381 . S
C1248 C1254 1.383 . S
C1249 C1245 1.495 . S
C1249 H1255 0.959 . S
C1249 H1256 0.961 . S
C1249 H1257 0.960 . S
C1250 C1248 1.381 . S
C1250 C1251 1.394 . S
C1250 H1258 0.930 . S
C1251 C1250 1.394 . S
C1251 C1252 1.383 . S
C1251 H1259 0.929 1_556 S
C1252 C1251 1.383 . S
C1252 C1253 1.377 . S
C1253 H1237 0.930 . S
C1253 C1252 1.377 . S
C1253 C1254 1.379 . S
C1254 H1238 0.931 . S
C1254 C1248 1.383 . S
C1254 C1253 1.379 . S
H1255 C1249 0.959 . S
H1256 C1249 0.961 . S
H1257 C1249 0.960 . S
H1258 C1250 0.930 . S
H1259 C1251 0.929 1_554 S
H1260 C1268 0.929 . S
H1261 C1270 0.930 . S
H1262 C1272 0.930 . S
H1263 C1275 0.929 . S
H1264 C1278 0.930 . S
H1265 C1280 0.960 . S
H1266 C1280 0.960 . S
H1267 C1280 0.960 . S
C1268 H1260 0.929 . S
C1268 C1269 1.377 . S
C1268 C1270 1.384 . S
C1269 C1268 1.377 . S
C1269 C1275 1.390 . S
C1270 H1261 0.930 . S
C1270 C1268 1.384 . S
C1270 C1271 1.372 . S
C1271 C1270 1.372 . S
C1271 C1272 1.400 . S
C1271 C1276 1.490 . S
C1272 H1262 0.930 . S
C1272 C1271 1.400 . S
C1272 C1275 1.386 . S
H1273 C1289 0.930 . S
H1274 C1290 0.931 . S
C1275 H1263 0.929 . S
C1275 C1269 1.390 . S
C1275 C1272 1.386 . S
C1276 C1271 1.490 . S
C1276 C1278 1.395 . S
C1276 C1279 1.403 . S
H1277 C1283 0.930 . S
C1278 H1264 0.930 . S
C1278 C1276 1.395 . S
C1278 C1281 1.403 . S
C1279 C1276 1.403 . S
C1279 C1280 1.524 . S
C1279 C1283 1.400 . S
C1280 H1265 0.960 . S
C1280 H1266 0.960 . S
C1280 H1267 0.960 . S
C1280 C1279 1.524 . S
C1281 C1278 1.403 . S
C1281 C1282 1.392 . S
C1281 C1285 1.495 1_556 S
C1282 C1281 1.392 . S
C1282 C1283 1.385 . S
C1282 C1284 1.478 . S
C1283 H1277 0.930 . S
C1283 C1279 1.400 . S
C1283 C1282 1.385 . S
C1284 C1282 1.478 . S
C1284 C1286 1.308 1_556 S
C1284 C1290 1.383 . S
C1285 C1281 1.495 1_554 S
C1285 H1291 0.959 . S
C1285 H1292 0.987 . S
C1285 H1293 0.960 . S
C1286 C1284 1.308 1_554 S
C1286 C1287 1.414 . S
C1286 H1294 0.990 . S
C1287 C1286 1.414 . S
C1287 C1288 1.383 1_554 S
C1287 H1295 0.929 . S
C1288 C1287 1.383 1_556 S
C1288 C1289 1.377 . S
C1289 H1273 0.930 . S
C1289 C1288 1.377 . S
C1289 C1290 1.379 . S
C1290 H1274 0.931 . S
C1290 C1284 1.383 . S
C1290 C1289 1.379 . S
H1291 C1285 0.959 . S
H1292 C1285 0.987 . S
H1293 C1285 0.960 . S
H1294 C1286 0.990 . S
H1295 C1287 0.929 . S
H1296 C1304 0.929 . S
H1297 C1306 0.930 . S
H1298 C1308 0.930 . S
H1299 C1311 0.929 . S
H1300 C1314 0.930 . S
H1301 C1316 0.960 . S
H1302 C1316 0.960 . S
H1303 C1316 0.960 . S
C1304 H1296 0.929 . S
C1304 C1305 1.377 . S
C1304 C1306 1.384 . S
C1305 C1304 1.377 . S
C1305 C1311 1.390 . S
C1306 H1297 0.930 . S
C1306 C1304 1.384 . S
C1306 C1307 1.372 . S
C1307 C1306 1.372 . S
C1307 C1308 1.400 . S
C1307 C1312 1.490 . S
C1308 H1298 0.930 . S
C1308 C1307 1.400 . S
C1308 C1311 1.386 . S
H1309 C1325 0.930 . S
H1310 C1326 0.931 . S
C1311 H1299 0.929 . S
C1311 C1305 1.390 . S
C1311 C1308 1.386 . S
C1312 C1307 1.490 . S
C1312 C1314 1.395 . S
C1312 C1315 1.403 . S
H1313 C1319 0.930 . S
C1314 H1300 0.930 . S
C1314 C1312 1.395 . S
C1314 C1317 1.403 . S
C1315 C1312 1.403 . S
C1315 C1316 1.524 . S
C1315 C1319 1.400 . S
C1316 H1301 0.960 . S
C1316 H1302 0.960 . S
C1316 H1303 0.960 . S
C1316 C1315 1.524 . S
C1317 C1314 1.403 . S
C1317 C1318 1.392 . S
C1317 C1321 1.495 . S
C1318 C1317 1.392 . S
C1318 C1319 1.385 . S
C1318 C1320 1.478 . S
C1319 H1313 0.930 . S
C1319 C1315 1.400 . S
C1319 C1318 1.385 . S
C1320 C1318 1.478 . S
C1320 C1322 1.381 . S
C1320 C1326 1.383 . S
C1321 C1317 1.495 . S
C1321 H1327 0.959 . S
C1321 H1328 0.961 . S
C1321 H1329 0.960 . S
C1322 C1320 1.381 . S
C1322 C1323 1.394 . S
C1322 H1330 0.938 . S
C1323 C1322 1.394 . S
C1323 C1324 1.383 . S
C1323 H1331 0.929 1_556 S
C1324 C1323 1.383 . S
C1324 C1325 1.377 . S
C1325 H1309 0.930 . S
C1325 C1324 1.377 . S
C1325 C1326 1.379 . S
C1326 H1310 0.931 . S
C1326 C1320 1.383 . S
C1326 C1325 1.379 . S
H1327 C1321 0.959 . S
H1328 C1321 0.961 . S
H1329 C1321 0.960 . S
H1330 C1322 0.938 . S
H1331 C1323 0.929 1_554 S
H1332 C1340 0.929 . S
H1333 C1342 0.930 . S
H1334 C1344 0.930 . S
H1335 C1347 0.929 . S
H1336 C1350 0.930 . S
H1337 C1352 0.960 . S
H1338 C1352 0.960 . S
H1339 C1352 0.960 . S
C1340 H1332 0.929 . S
C1340 C1341 1.377 . S
C1340 C1342 1.384 . S
C1341 C1340 1.377 . S
C1341 C1347 1.390 . S
C1342 H1333 0.930 . S
C1342 C1340 1.384 . S
C1342 C1343 1.372 . S
C1343 C1342 1.372 . S
C1343 C1344 1.400 . S
C1343 C1348 1.490 . S
C1344 H1334 0.930 . S
C1344 C1343 1.400 . S
C1344 C1347 1.386 . S
H1345 C1361 0.982 . S
H1346 C1362 0.931 . S
C1347 H1335 0.929 . S
C1347 C1341 1.390 . S
C1347 C1344 1.386 . S
C1348 C1343 1.490 . S
C1348 C1350 1.395 . S
C1348 C1351 1.403 . S
H1349 C1355 0.930 . S
C1350 H1336 0.930 . S
C1350 C1348 1.395 . S
C1350 C1353 1.403 . S
C1351 C1348 1.403 . S
C1351 C1352 1.524 . S
C1351 C1355 1.400 . S
C1352 H1337 0.960 . S
C1352 H1338 0.960 . S
C1352 H1339 0.960 . S
C1352 C1351 1.524 . S
C1353 C1350 1.403 . S
C1353 C1354 1.392 . S
C1353 C1357 1.495 . S
C1354 C1353 1.392 . S
C1354 C1355 1.385 . S
C1354 C1356 1.478 . S
C1355 H1349 0.930 . S
C1355 C1351 1.400 . S
C1355 C1354 1.385 . S
C1356 C1354 1.478 . S
C1356 C1358 1.381 . S
C1356 C1362 1.383 . S
C1357 C1353 1.495 . S
C1357 H1363 0.959 . S
C1357 H1364 0.961 . S
C1357 H1365 0.960 . S
C1358 C1356 1.381 . S
C1358 C1359 1.394 . S
C1358 H1366 0.930 . S
C1359 C1358 1.394 . S
C1359 C1360 1.383 . S
C1359 H1367 0.929 . S
C1360 C1359 1.383 . S
C1360 C1361 1.377 . S
C1361 H1345 0.982 . S
C1361 C1360 1.377 . S
C1361 C1362 1.379 . S
C1362 H1346 0.931 . S
C1362 C1356 1.383 . S
C1362 C1361 1.379 . S
H1363 C1357 0.959 . S
H1364 C1357 0.961 . S
H1365 C1357 0.960 . S
H1366 C1358 0.930 . S
H1367 C1359 0.929 . S
H1368 C1376 0.929 . S
H1369 C1378 0.930 . S
H1370 C1380 0.930 . S
H1371 C1383 0.929 . S
H1372 C1386 0.930 . S
H1373 C1388 0.960 . S
H1374 C1388 0.960 . S
H1375 C1388 0.960 . S
C1376 H1368 0.929 . S
C1376 C1377 1.377 . S
C1376 C1378 1.384 . S
C1377 C1376 1.377 . S
C1377 C1383 1.390 . S
C1378 H1369 0.930 . S
C1378 C1376 1.384 . S
C1378 C1379 1.372 . S
C1379 C1378 1.372 . S
C1379 C1380 1.400 . S
C1379 C1384 1.490 . S
C1380 H1370 0.930 . S
C1380 C1379 1.400 . S
C1380 C1383 1.386 . S
H1381 C1397 0.930 . S
H1382 C1398 0.931 . S
C1383 H1371 0.929 . S
C1383 C1377 1.390 . S
C1383 C1380 1.386 . S
C1384 C1379 1.490 . S
C1384 C1386 1.395 . S
C1384 C1387 1.403 . S
H1385 C1391 0.930 . S
C1386 H1372 0.930 . S
C1386 C1384 1.395 . S
C1386 C1389 1.403 . S
C1387 C1384 1.403 . S
C1387 C1388 1.524 . S
C1387 C1391 1.400 . S
C1388 H1373 0.960 . S
C1388 H1374 0.960 . S
C1388 H1375 0.960 . S
C1388 C1387 1.524 . S
C1389 C1386 1.403 . S
C1389 C1390 1.392 . S
C1389 C1393 1.495 1_556 S
C1390 C1389 1.392 . S
C1390 C1391 1.385 . S
C1390 C1392 1.478 . S
C1391 H1385 0.930 . S
C1391 C1387 1.400 . S
C1391 C1390 1.385 . S
C1392 C1390 1.478 . S
C1392 C1394 1.381 . S
C1392 C1398 1.383 . S
C1393 C1389 1.495 1_554 S
C1393 H1399 0.959 . S
C1393 H1400 0.961 . S
C1393 H1401 0.960 . S
C1394 C1392 1.381 . S
C1394 C1395 1.394 . S
C1394 H1402 0.930 . S
C1395 C1394 1.394 . S
C1395 C1396 1.383 . S
C1395 H1403 0.929 . S
C1396 C1395 1.383 . S
C1396 C1397 1.377 . S
C1397 H1381 0.930 . S
C1397 C1396 1.377 . S
C1397 C1398 1.379 . S
C1398 H1382 0.931 . S
C1398 C1392 1.383 . S
C1398 C1397 1.379 . S
H1399 C1393 0.959 . S
H1400 C1393 0.961 . S
H1401 C1393 0.960 . S
H1402 C1394 0.930 . S
H1403 C1395 0.929 . S
H1404 C1412 0.929 . S
H1405 C1414 0.930 . S
H1406 C1416 0.930 . S
H1407 C1419 0.929 . S
H1408 C1422 0.930 . S
H1409 C1424 0.960 . S
H1410 C1424 0.960 . S
H1411 C1424 0.960 . S
C1412 H1404 0.929 . S
C1412 C1413 1.377 . S
C1412 C1414 1.384 . S
C1413 C1412 1.377 . S
C1413 C1419 1.390 . S
C1414 H1405 0.930 . S
C1414 C1412 1.384 . S
C1414 C1415 1.372 . S
C1415 C1414 1.372 . S
C1415 C1416 1.400 . S
C1415 C1420 1.490 . S
C1416 H1406 0.930 . S
C1416 C1415 1.400 . S
C1416 C1419 1.386 . S
H1417 C1433 0.916 1_556 S
H1418 C1434 0.931 . S
C1419 H1407 0.929 . S
C1419 C1413 1.390 . S
C1419 C1416 1.386 . S
C1420 C1415 1.490 . S
C1420 C1422 1.395 . S
C1420 C1423 1.403 . S
H1421 C1427 0.930 . S
C1422 H1408 0.930 . S
C1422 C1420 1.395 . S
C1422 C1425 1.403 . S
C1423 C1420 1.403 . S
C1423 C1424 1.524 . S
C1423 C1427 1.400 . S
C1424 H1409 0.960 . S
C1424 H1410 0.960 . S
C1424 H1411 0.960 . S
C1424 C1423 1.524 . S
C1425 C1422 1.403 . S
C1425 C1426 1.392 . S
C1425 C1429 1.495 . S
C1426 C1425 1.392 . S
C1426 C1427 1.385 . S
C1426 C1428 1.478 . S
C1427 H1421 0.930 . S
C1427 C1423 1.400 . S
C1427 C1426 1.385 . S
C1428 C1426 1.478 . S
C1428 C1430 1.381 . S
C1428 C1434 1.383 . S
C1429 C1425 1.495 . S
C1429 H1435 0.959 . S
C1429 H1436 0.961 . S
C1429 H1437 0.960 . S
C1430 C1428 1.381 . S
C1430 C1431 1.394 . S
C1430 H1438 0.930 . S
C1431 C1430 1.394 . S
C1431 C1432 1.383 . S
C1431 H1439 0.929 . S
C1432 C1431 1.383 . S
C1432 C1433 1.377 . S
C1433 H1417 0.916 1_554 S
C1433 C1432 1.377 . S
C1433 C1434 1.379 . S
C1434 H1418 0.931 . S
C1434 C1428 1.383 . S
C1434 C1433 1.379 . S
H1435 C1429 0.959 . S
H1436 C1429 0.961 . S
H1437 C1429 0.960 . S
H1438 C1430 0.930 . S
H1439 C1431 0.929 . S
H1440 C1448 0.929 . S
H1441 C1450 0.930 . S
H1442 C1452 0.930 . S
H1443 C1455 0.929 . S
H1444 C1458 0.930 . S
H1445 C1460 0.960 . S
H1446 C1460 0.960 . S
H1447 C1460 0.960 . S
C1448 H1440 0.929 . S
C1448 C1449 1.377 . S
C1448 C1450 1.384 . S
C1449 C1448 1.377 . S
C1449 C1455 1.390 . S
C1450 H1441 0.930 . S
C1450 C1448 1.384 . S
C1450 C1451 1.372 . S
C1451 C1450 1.372 . S
C1451 C1452 1.400 . S
C1451 C1456 1.490 . S
C1452 H1442 0.930 . S
C1452 C1451 1.400 . S
C1452 C1455 1.386 . S
H1453 C1469 0.930 . S
H1454 C1470 0.931 . S
C1455 H1443 0.929 . S
C1455 C1449 1.390 . S
C1455 C1452 1.386 . S
C1456 C1451 1.490 . S
C1456 C1458 1.395 . S
C1456 C1459 1.403 . S
H1457 C1463 0.930 . S
C1458 H1444 0.930 . S
C1458 C1456 1.395 . S
C1458 C1461 1.403 . S
C1459 C1456 1.403 . S
C1459 C1460 1.524 . S
C1459 C1463 1.400 . S
C1460 H1445 0.960 . S
C1460 H1446 0.960 . S
C1460 H1447 0.960 . S
C1460 C1459 1.524 . S
C1461 C1458 1.403 . S
C1461 C1462 1.392 . S
C1461 C1465 1.495 . S
C1462 C1461 1.392 . S
C1462 C1463 1.385 . S
C1462 C1464 1.478 . S
C1463 H1457 0.930 . S
C1463 C1459 1.400 . S
C1463 C1462 1.385 . S
C1464 C1462 1.478 . S
C1464 C1466 1.381 . S
C1464 C1470 1.383 . S
C1465 C1461 1.495 . S
C1465 H1471 0.959 . S
C1465 H1472 0.961 . S
C1465 H1473 0.960 . S
C1466 C1464 1.381 . S
C1466 C1467 1.394 . S
C1466 H1474 0.930 . S
C1467 C1466 1.394 . S
C1467 C1468 1.383 . S
C1467 H1475 0.929 . S
C1468 C1467 1.383 . S
C1468 C1469 1.377 . S
C1469 H1453 0.930 . S
C1469 C1468 1.377 . S
C1469 C1470 1.379 . S
C1470 H1454 0.931 . S
C1470 C1464 1.383 . S
C1470 C1469 1.379 . S
H1471 C1465 0.959 . S
H1472 C1465 0.961 . S
H1473 C1465 0.960 . S
H1474 C1466 0.930 . S
H1475 C1467 0.929 . S
H1476 C1484 0.929 . S
H1477 C1486 0.930 . S
H1478 C1488 0.930 . S
H1479 C1491 0.929 . S
H1480 C1494 0.930 . S
H1481 C1496 0.960 . S
H1482 C1496 0.960 . S
H1483 C1496 0.960 . S
C1484 H1476 0.929 . S
C1484 C1485 1.377 . S
C1484 C1486 1.384 . S
C1485 C1484 1.377 . S
C1485 C1491 1.390 . S
C1486 H1477 0.930 . S
C1486 C1484 1.384 . S
C1486 C1487 1.372 . S
C1487 C1486 1.372 . S
C1487 C1488 1.400 . S
C1487 C1492 1.490 . S
C1488 H1478 0.930 . S
C1488 C1487 1.400 . S
C1488 C1491 1.386 . S
H1489 C1505 0.930 . S
H1490 C1506 0.931 . S
C1491 H1479 0.929 . S
C1491 C1485 1.390 . S
C1491 C1488 1.386 . S
C1492 C1487 1.490 . S
C1492 C1494 1.395 . S
C1492 C1495 1.403 . S
H1493 C1499 0.930 . S
C1494 H1480 0.930 . S
C1494 C1492 1.395 . S
C1494 C1497 1.403 . S
C1495 C1492 1.403 . S
C1495 C1496 1.524 . S
C1495 C1499 1.400 . S
C1496 H1481 0.960 . S
C1496 H1482 0.960 . S
C1496 H1483 0.960 . S
C1496 C1495 1.524 . S
C1497 C1494 1.403 . S
C1497 C1498 1.392 . S
C1497 C1501 1.495 1_554 S
C1498 C1497 1.392 . S
C1498 C1499 1.385 . S
C1498 C1500 1.478 . S
C1499 H1493 0.930 . S
C1499 C1495 1.400 . S
C1499 C1498 1.385 . S
C1500 C1498 1.478 . S
C1500 C1502 1.381 . S
C1500 C1506 1.383 . S
C1501 C1497 1.495 1_556 S
C1501 H1507 0.959 . S
C1501 H1508 0.961 . S
C1501 H1509 0.960 . S
C1502 C1500 1.381 . S
C1502 C1503 1.394 . S
C1502 H1510 0.930 . S
C1503 C1502 1.394 . S
C1503 C1504 1.383 . S
C1503 H1511 0.953 . S
C1504 C1503 1.383 . S
C1504 C1505 1.377 . S
C1505 H1489 0.930 . S
C1505 C1504 1.377 . S
C1505 C1506 1.379 . S
C1506 H1490 0.931 . S
C1506 C1500 1.383 . S
C1506 C1505 1.379 . S
H1507 C1501 0.959 . S
H1508 C1501 0.961 . S
H1509 C1501 0.960 . S
H1510 C1502 0.930 . S
H1511 C1503 0.953 . S
H1512 C1520 0.929 . S
H1513 C1522 0.928 1_455 S
H1514 C1524 0.930 . S
H1515 C1527 0.929 . S
H1516 C1530 0.930 . S
H1517 C1532 0.960 . S
H1518 C1532 0.960 . S
H1519 C1532 0.960 . S
C1520 H1512 0.929 . S
C1520 C1521 1.377 . S
C1520 C1522 1.386 . S
C1521 C1520 1.377 . S
C1521 C1527 1.390 . S
C1522 H1513 0.928 1_655 S
C1522 C1520 1.386 . S
C1522 C1523 1.371 1_655 S
C1523 C1522 1.371 1_455 S
C1523 C1524 1.400 1_455 S
C1523 C1528 1.490 . S
C1524 H1514 0.930 . S
C1524 C1523 1.400 1_655 S
C1524 C1527 1.386 . S
H1525 C1541 0.930 . S
H1526 C1542 0.931 . S
C1527 H1515 0.929 . S
C1527 C1521 1.390 . S
C1527 C1524 1.386 . S
C1528 C1523 1.490 . S
C1528 C1530 1.395 . S
C1528 C1531 1.403 . S
H1529 C1535 0.930 . S
C1530 H1516 0.930 . S
C1530 C1528 1.395 . S
C1530 C1533 1.403 . S
C1531 C1528 1.403 . S
C1531 C1532 1.524 . S
C1531 C1535 1.400 . S
C1532 H1517 0.960 . S
C1532 H1518 0.960 . S
C1532 H1519 0.960 . S
C1532 C1531 1.524 . S
C1533 C1530 1.403 . S
C1533 C1534 1.392 . S
C1533 C1537 1.495 . S
C1534 C1533 1.392 . S
C1534 C1535 1.385 . S
C1534 C1536 1.478 . S
C1535 H1529 0.930 . S
C1535 C1531 1.400 . S
C1535 C1534 1.385 . S
C1536 C1534 1.478 . S
C1536 C1538 1.381 . S
C1536 C1542 1.383 . S
C1537 C1533 1.495 . S
C1537 H1543 0.959 . S
C1537 H1544 0.961 . S
C1537 H1545 0.960 . S
C1538 C1536 1.381 . S
C1538 C1539 1.394 . S
C1538 H1546 0.930 . S
C1539 C1538 1.394 . S
C1539 C1540 1.383 . S
C1539 H1547 0.929 . S
C1540 C1539 1.383 . S
C1540 C1541 1.377 . S
C1541 H1525 0.930 . S
C1541 C1540 1.377 . S
C1541 C1542 1.379 . S
C1542 H1526 0.931 . S
C1542 C1536 1.383 . S
C1542 C1541 1.379 . S
H1543 C1537 0.959 . S
H1544 C1537 0.961 . S
H1545 C1537 0.960 . S
H1546 C1538 0.930 . S
H1547 C1539 0.929 . S
H1548 C1556 0.929 . S
H1549 C1558 0.930 . S
H1550 C1560 0.930 . S
H1551 C1563 0.929 . S
H1552 C1566 0.930 . S
H1553 C1568 0.960 . S
H1554 C1568 0.960 . S
H1555 C1568 0.960 . S
C1556 H1548 0.929 . S
C1556 C1557 1.377 . S
C1556 C1558 1.384 . S
C1557 C1556 1.377 . S
C1557 C1563 1.390 . S
C1558 H1549 0.930 . S
C1558 C1556 1.384 . S
C1558 C1559 1.372 . S
C1559 C1558 1.372 . S
C1559 C1560 1.400 . S
C1559 C1564 1.490 . S
C1560 H1550 0.930 . S
C1560 C1559 1.400 . S
C1560 C1563 1.386 . S
H1561 C1577 0.930 . S
H1562 C1578 0.931 . S
C1563 H1551 0.929 . S
C1563 C1557 1.390 . S
C1563 C1560 1.386 . S
C1564 C1559 1.490 . S
C1564 C1566 1.395 . S
C1564 C1567 1.403 . S
H1565 C1571 0.930 . S
C1566 H1552 0.930 . S
C1566 C1564 1.395 . S
C1566 C1569 1.403 . S
C1567 C1564 1.403 . S
C1567 C1568 1.524 . S
C1567 C1571 1.400 . S
C1568 H1553 0.960 . S
C1568 H1554 0.960 . S
C1568 H1555 0.960 . S
C1568 C1567 1.524 . S
C1569 C1566 1.403 . S
C1569 C1570 1.392 . S
C1569 C1573 1.495 . S
C1570 C1569 1.392 . S
C1570 C1571 1.385 . S
C1570 C1572 1.478 . S
C1571 H1565 0.930 . S
C1571 C1567 1.400 . S
C1571 C1570 1.385 . S
C1572 C1570 1.478 . S
C1572 C1574 1.381 . S
C1572 C1578 1.383 . S
C1573 C1569 1.495 . S
C1573 H1579 0.959 . S
C1573 H1580 0.961 . S
C1573 H1581 0.960 . S
C1574 C1572 1.381 . S
C1574 C1575 1.394 . S
C1574 H1582 0.930 . S
C1575 C1574 1.394 . S
C1575 C1576 1.383 . S
C1575 H1583 0.929 . S
C1576 C1575 1.383 . S
C1576 C1577 1.377 . S
C1577 H1561 0.930 . S
C1577 C1576 1.377 . S
C1577 C1578 1.379 . S
C1578 H1562 0.931 . S
C1578 C1572 1.383 . S
C1578 C1577 1.379 . S
H1579 C1573 0.959 . S
H1580 C1573 0.961 . S
H1581 C1573 0.960 . S
H1582 C1574 0.930 . S
H1583 C1575 0.929 . S
H1584 C1592 0.929 . S
H1585 C1594 0.930 . S
H1586 C1596 0.930 . S
H1587 C1599 0.929 . S
H1588 C1602 0.930 . S
H1589 C1604 0.960 . S
H1590 C1604 0.960 . S
H1591 C1604 0.960 . S
C1592 H1584 0.929 . S
C1592 C1593 1.377 . S
C1592 C1594 1.384 . S
C1593 C1592 1.377 . S
C1593 C1599 1.390 . S
C1594 H1585 0.930 . S
C1594 C1592 1.384 . S
C1594 C1595 1.372 . S
C1595 C1594 1.372 . S
C1595 C1596 1.400 . S
C1595 C1600 1.490 1_545 S
C1596 H1586 0.930 . S
C1596 C1595 1.400 . S
C1596 C1599 1.386 . S
H1597 C1613 0.930 . S
H1598 C1614 0.931 . S
C1599 H1587 0.929 . S
C1599 C1593 1.390 . S
C1599 C1596 1.386 . S
C1600 C1595 1.490 1_565 S
C1600 C1602 1.395 . S
C1600 C1603 1.403 . S
H1601 C1607 0.930 . S
C1602 H1588 0.930 . S
C1602 C1600 1.395 . S
C1602 C1605 1.403 . S
C1603 C1600 1.403 . S
C1603 C1604 1.524 . S
C1603 C1607 1.400 . S
C1604 H1589 0.960 . S
C1604 H1590 0.960 . S
C1604 H1591 0.960 . S
C1604 C1603 1.524 . S
C1605 C1602 1.403 . S
C1605 C1606 1.392 . S
C1605 C1609 1.495 . S
C1606 C1605 1.392 . S
C1606 C1607 1.385 . S
C1606 C1608 1.478 . S
C1607 H1601 0.930 . S
C1607 C1603 1.400 . S
C1607 C1606 1.385 . S
C1608 C1606 1.478 . S
C1608 C1610 1.381 . S
C1608 C1614 1.383 . S
C1609 C1605 1.495 . S
C1609 H1615 0.959 . S
C1609 H1616 0.961 . S
C1609 H1617 0.960 . S
C1610 C1608 1.381 . S
C1610 C1611 1.394 . S
C1610 H1618 0.930 . S
C1611 C1610 1.394 . S
C1611 C1612 1.383 . S
C1611 H1619 0.929 . S
C1612 C1611 1.383 . S
C1612 C1613 1.377 . S
C1613 H1597 0.930 . S
C1613 C1612 1.377 . S
C1613 C1614 1.379 . S
C1614 H1598 0.931 . S
C1614 C1608 1.383 . S
C1614 C1613 1.379 . S
H1615 C1609 0.959 . S
H1616 C1609 0.961 . S
H1617 C1609 0.960 . S
H1618 C1610 0.930 . S
H1619 C1611 0.929 . S
H1620 C1628 0.929 . S
H1621 C1630 0.930 . S
H1622 C1632 0.930 . S
H1623 C1635 0.929 . S
H1624 C1638 0.930 . S
H1625 C1640 0.960 . S
H1626 C1640 0.960 . S
H1627 C1640 0.960 . S
C1628 H1620 0.929 . S
C1628 C1629 1.377 . S
C1628 C1630 1.384 . S
C1629 C1628 1.377 . S
C1629 C1635 1.390 . S
C1630 H1621 0.930 . S
C1630 C1628 1.384 . S
C1630 C1631 1.372 . S
C1631 C1630 1.372 . S
C1631 C1632 1.400 . S
C1631 C1636 1.490 . S
C1632 H1622 0.930 . S
C1632 C1631 1.400 . S
C1632 C1635 1.386 . S
H1633 C1649 0.930 . S
H1634 C1650 0.931 . S
C1635 H1623 0.929 . S
C1635 C1629 1.390 . S
C1635 C1632 1.386 . S
C1636 C1631 1.490 . S
C1636 C1638 1.395 . S
C1636 C1639 1.403 . S
H1637 C1643 0.930 . S
C1638 H1624 0.930 . S
C1638 C1636 1.395 . S
C1638 C1641 1.403 . S
C1639 C1636 1.403 . S
C1639 C1640 1.524 . S
C1639 C1643 1.400 . S
C1640 H1625 0.960 . S
C1640 H1626 0.960 . S
C1640 H1627 0.960 . S
C1640 C1639 1.524 . S
C1641 C1638 1.403 . S
C1641 C1642 1.392 . S
C1641 C1645 1.495 . S
C1642 C1641 1.392 . S
C1642 C1643 1.385 . S
C1642 C1644 1.478 . S
C1643 H1637 0.930 . S
C1643 C1639 1.400 . S
C1643 C1642 1.385 . S
C1644 C1642 1.478 . S
C1644 C1646 1.381 . S
C1644 C1650 1.383 . S
C1645 C1641 1.495 . S
C1645 H1651 0.959 . S
C1645 H1652 0.961 . S
C1645 H1653 0.960 . S
C1646 C1644 1.381 . S
C1646 C1647 1.394 . S
C1646 H1654 0.930 . S
C1647 C1646 1.394 . S
C1647 C1648 1.383 . S
C1647 H1655 0.929 . S
C1648 C1647 1.383 . S
C1648 C1649 1.377 . S
C1649 H1633 0.930 . S
C1649 C1648 1.377 . S
C1649 C1650 1.379 . S
C1650 H1634 0.931 . S
C1650 C1644 1.383 . S
C1650 C1649 1.379 . S
H1651 C1645 0.959 . S
H1652 C1645 0.961 . S
H1653 C1645 0.960 . S
H1654 C1646 0.930 . S
H1655 C1647 0.929 . S
H1656 C1664 0.929 . S
H1657 C1666 0.930 . S
H1658 C1668 0.930 . S
H1659 C1671 0.929 . S
H1660 C1674 0.930 . S
H1661 C1676 0.960 . S
H1662 C1676 0.960 . S
H1663 C1676 0.960 . S
C1664 H1656 0.929 . S
C1664 C1665 1.377 . S
C1664 C1666 1.384 . S
C1665 C1664 1.377 . S
C1665 C1671 1.390 . S
C1666 H1657 0.930 . S
C1666 C1664 1.384 . S
C1666 C1667 1.372 . S
C1667 C1666 1.372 . S
C1667 C1668 1.400 . S
C1667 C1672 1.490 . S
C1668 H1658 0.930 . S
C1668 C1667 1.400 . S
C1668 C1671 1.386 . S
H1669 C1685 0.930 . S
H1670 C1686 0.931 . S
C1671 H1659 0.929 . S
C1671 C1665 1.390 . S
C1671 C1668 1.386 . S
C1672 C1667 1.490 . S
C1672 C1674 1.395 . S
C1672 C1675 1.403 . S
H1673 C1679 0.930 . S
C1674 H1660 0.930 . S
C1674 C1672 1.395 . S
C1674 C1677 1.403 . S
C1675 C1672 1.403 . S
C1675 C1676 1.524 . S
C1675 C1679 1.400 . S
C1676 H1661 0.960 . S
C1676 H1662 0.960 . S
C1676 H1663 0.960 . S
C1676 C1675 1.524 . S
C1677 C1674 1.403 . S
C1677 C1678 1.392 . S
C1677 C1681 1.495 . S
C1678 C1677 1.392 . S
C1678 C1679 1.385 . S
C1678 C1680 1.478 . S
C1679 H1673 0.930 . S
C1679 C1675 1.400 . S
C1679 C1678 1.385 . S
C1680 C1678 1.478 . S
C1680 C1682 1.381 . S
C1680 C1686 1.383 . S
C1681 C1677 1.495 . S
C1681 H1687 0.959 . S
C1681 H1688 0.961 . S
C1681 H1689 0.960 . S
C1682 C1680 1.381 . S
C1682 C1683 1.394 . S
C1682 H1690 0.930 . S
C1683 C1682 1.394 . S
C1683 C1684 1.383 . S
C1683 H1691 0.929 . S
C1684 C1683 1.383 . S
C1684 C1685 1.377 . S
C1685 H1669 0.930 . S
C1685 C1684 1.377 . S
C1685 C1686 1.379 . S
C1686 H1670 0.931 . S
C1686 C1680 1.383 . S
C1686 C1685 1.379 . S
H1687 C1681 0.959 . S
H1688 C1681 0.961 . S
H1689 C1681 0.960 . S
H1690 C1682 0.930 . S
H1691 C1683 0.929 . S
H1692 C1700 0.929 . S
H1693 C1702 0.930 . S
H1694 C1704 0.930 . S
H1695 C1707 0.929 . S
H1696 C1710 0.930 . S
H1697 C1712 0.960 . S
H1698 C1712 0.960 . S
H1699 C1712 0.960 . S
C1700 H1692 0.929 . S
C1700 C1701 1.377 . S
C1700 C1702 1.384 . S
C1701 C1700 1.377 . S
C1701 C1707 1.390 . S
C1702 H1693 0.930 . S
C1702 C1700 1.384 . S
C1702 C1703 1.372 . S
C1703 C1702 1.372 . S
C1703 C1704 1.400 . S
C1703 C1708 1.490 . S
C1704 H1694 0.930 . S
C1704 C1703 1.400 . S
C1704 C1707 1.386 . S
H1705 C1721 0.930 . S
H1706 C1722 0.931 . S
C1707 H1695 0.929 . S
C1707 C1701 1.390 . S
C1707 C1704 1.386 . S
C1708 C1703 1.490 . S
C1708 C1710 1.395 . S
C1708 C1711 1.403 . S
H1709 C1715 0.930 . S
C1710 H1696 0.930 . S
C1710 C1708 1.395 . S
C1710 C1713 1.403 . S
C1711 C1708 1.403 . S
C1711 C1712 1.524 . S
C1711 C1715 1.400 . S
C1712 H1697 0.960 . S
C1712 H1698 0.960 . S
C1712 H1699 0.960 . S
C1712 C1711 1.524 . S
C1713 C1710 1.403 . S
C1713 C1714 1.392 . S
C1713 C1717 1.495 . S
C1714 C1713 1.392 . S
C1714 C1715 1.385 . S
C1714 C1716 1.478 . S
C1715 H1709 0.930 . S
C1715 C1711 1.400 . S
C1715 C1714 1.385 . S
C1716 C1714 1.478 . S
C1716 C1718 1.381 . S
C1716 C1722 1.383 . S
C1717 C1713 1.495 . S
C1717 H1723 0.959 . S
C1717 H1724 0.961 . S
C1717 H1725 0.960 . S
C1718 C1716 1.381 . S
C1718 C1719 1.394 . S
C1718 H1726 0.930 . S
C1719 C1718 1.394 . S
C1719 C1720 1.383 . S
C1719 H1727 0.929 . S
C1720 C1719 1.383 . S
C1720 C1721 1.377 . S
C1721 H1705 0.930 . S
C1721 C1720 1.377 . S
C1721 C1722 1.379 . S
C1722 H1706 0.931 . S
C1722 C1716 1.383 . S
C1722 C1721 1.379 . S
H1723 C1717 0.959 . S
H1724 C1717 0.961 . S
H1725 C1717 0.960 . S
H1726 C1718 0.930 . S
H1727 C1719 0.929 . S
H1728 C1736 0.929 . S
H1729 C1738 0.930 . S
H1730 C1740 0.930 . S
H1731 C1743 0.929 . S
H1732 C1746 0.930 . S
H1733 C1748 0.960 . S
H1734 C1748 0.960 . S
H1735 C1748 0.960 . S
C1736 H1728 0.929 . S
C1736 C1737 1.377 . S
C1736 C1738 1.384 . S
C1737 C1736 1.377 . S
C1737 C1743 1.390 . S
C1738 H1729 0.930 . S
C1738 C1736 1.384 . S
C1738 C1739 1.372 . S
C1739 C1738 1.372 . S
C1739 C1740 1.400 . S
C1739 C1744 1.490 . S
C1740 H1730 0.930 . S
C1740 C1739 1.400 . S
C1740 C1743 1.386 . S
H1741 C1757 0.930 . S
H1742 C1758 0.931 . S
C1743 H1731 0.929 . S
C1743 C1737 1.390 . S
C1743 C1740 1.386 . S
C1744 C1739 1.490 . S
C1744 C1746 1.395 . S
C1744 C1747 1.403 . S
H1745 C1751 0.930 . S
C1746 H1732 0.930 . S
C1746 C1744 1.395 . S
C1746 C1749 1.403 . S
C1747 C1744 1.403 . S
C1747 C1748 1.524 . S
C1747 C1751 1.400 . S
C1748 H1733 0.960 . S
C1748 H1734 0.960 . S
C1748 H1735 0.960 . S
C1748 C1747 1.524 . S
C1749 C1746 1.403 . S
C1749 C1750 1.392 . S
C1749 C1753 1.495 . S
C1750 C1749 1.392 . S
C1750 C1751 1.385 . S
C1750 C1752 1.478 . S
C1751 H1745 0.930 . S
C1751 C1747 1.400 . S
C1751 C1750 1.385 . S
C1752 C1750 1.478 . S
C1752 C1754 1.381 . S
C1752 C1758 1.383 . S
C1753 C1749 1.495 . S
C1753 H1759 0.959 . S
C1753 H1760 0.961 . S
C1753 H1761 0.960 . S
C1754 C1752 1.381 . S
C1754 C1755 1.394 . S
C1754 H1762 0.930 . S
C1755 C1754 1.394 . S
C1755 C1756 1.383 . S
C1755 H1763 0.929 . S
C1756 C1755 1.383 . S
C1756 C1757 1.377 . S
C1757 H1741 0.930 . S
C1757 C1756 1.377 . S
C1757 C1758 1.379 . S
C1758 H1742 0.931 . S
C1758 C1752 1.383 . S
C1758 C1757 1.379 . S
H1759 C1753 0.959 . S
H1760 C1753 0.961 . S
H1761 C1753 0.960 . S
H1762 C1754 0.930 . S
H1763 C1755 0.929 . S
H1764 C1772 0.929 . S
H1765 C1774 0.930 . S
H1766 C1776 0.930 . S
H1767 C1779 0.929 . S
H1768 C1782 0.930 . S
H1769 C1784 0.960 . S
H1770 C1784 0.960 . S
H1771 C1784 0.960 . S
C1772 H1764 0.929 . S
C1772 C1773 1.377 . S
C1772 C1774 1.384 . S
C1773 C1772 1.377 . S
C1773 C1779 1.390 . S
C1774 H1765 0.930 . S
C1774 C1772 1.384 . S
C1774 C1775 1.372 . S
C1775 C1774 1.372 . S
C1775 C1776 1.400 . S
C1775 C1780 1.490 . S
C1776 H1766 0.930 . S
C1776 C1775 1.400 . S
C1776 C1779 1.386 . S
H1777 C1793 0.930 . S
H1778 C1794 0.931 . S
C1779 H1767 0.929 . S
C1779 C1773 1.390 . S
C1779 C1776 1.386 . S
C1780 C1775 1.490 . S
C1780 C1782 1.395 . S
C1780 C1783 1.403 . S
H1781 C1787 0.930 . S
C1782 H1768 0.930 . S
C1782 C1780 1.395 . S
C1782 C1785 1.403 . S
C1783 C1780 1.403 . S
C1783 C1784 1.524 . S
C1783 C1787 1.400 . S
C1784 H1769 0.960 . S
C1784 H1770 0.960 . S
C1784 H1771 0.960 . S
C1784 C1783 1.524 . S
C1785 C1782 1.403 . S
C1785 C1786 1.392 . S
C1785 C1789 1.495 . S
C1786 C1785 1.392 . S
C1786 C1787 1.385 . S
C1786 C1788 1.478 . S
C1787 H1781 0.930 . S
C1787 C1783 1.400 . S
C1787 C1786 1.385 . S
C1788 C1786 1.478 . S
C1788 C1790 1.381 . S
C1788 C1794 1.383 . S
C1789 C1785 1.495 . S
C1789 H1795 0.959 . S
C1789 H1796 0.961 . S
C1789 H1797 0.960 . S
C1790 C1788 1.381 . S
C1790 C1791 1.394 . S
C1790 H1798 0.930 . S
C1791 C1790 1.394 . S
C1791 C1792 1.383 . S
C1791 H1799 0.929 . S
C1792 C1791 1.383 . S
C1792 C1793 1.377 . S
C1793 H1777 0.930 . S
C1793 C1792 1.377 . S
C1793 C1794 1.379 . S
C1794 H1778 0.931 . S
C1794 C1788 1.383 . S
C1794 C1793 1.379 . S
H1795 C1789 0.959 . S
H1796 C1789 0.961 . S
H1797 C1789 0.960 . S
H1798 C1790 0.930 . S
H1799 C1791 0.929 . S
H1800 C1808 0.929 . S
H1801 C1810 0.930 . S
H1802 C1812 0.930 . S
H1803 C1815 0.929 . S
H1804 C1818 0.930 . S
H1805 C1820 0.960 . S
H1806 C1820 0.960 . S
H1807 C1820 0.960 . S
C1808 H1800 0.929 . S
C1808 C1809 1.377 . S
C1808 C1810 1.384 . S
C1809 C1808 1.377 . S
C1809 C1815 1.390 . S
C1810 H1801 0.930 . S
C1810 C1808 1.384 . S
C1810 C1811 1.372 . S
C1811 C1810 1.372 . S
C1811 C1812 1.400 . S
C1811 C1816 1.490 . S
C1812 H1802 0.930 . S
C1812 C1811 1.400 . S
C1812 C1815 1.386 . S
H1813 C1829 0.930 . S
H1814 C1830 0.931 . S
C1815 H1803 0.929 . S
C1815 C1809 1.390 . S
C1815 C1812 1.386 . S
C1816 C1811 1.490 . S
C1816 C1818 1.395 . S
C1816 C1819 1.403 . S
H1817 C1823 0.930 . S
C1818 H1804 0.930 . S
C1818 C1816 1.395 . S
C1818 C1821 1.403 . S
C1819 C1816 1.403 . S
C1819 C1820 1.524 . S
C1819 C1823 1.400 . S
C1820 H1805 0.960 . S
C1820 H1806 0.960 . S
C1820 H1807 0.960 . S
C1820 C1819 1.524 . S
C1821 C1818 1.403 . S
C1821 C1822 1.392 . S
C1821 C1825 1.495 . S
C1822 C1821 1.392 . S
C1822 C1823 1.385 . S
C1822 C1824 1.478 . S
C1823 H1817 0.930 . S
C1823 C1819 1.400 . S
C1823 C1822 1.385 . S
C1824 C1822 1.478 . S
C1824 C1826 1.381 . S
C1824 C1830 1.383 . S
C1825 C1821 1.495 . S
C1825 H1831 0.959 . S
C1825 H1832 0.961 . S
C1825 H1833 0.960 . S
C1826 C1824 1.381 . S
C1826 C1827 1.394 . S
C1826 H1834 0.930 . S
C1827 C1826 1.394 . S
C1827 C1828 1.383 . S
C1827 H1835 0.929 . S
C1828 C1827 1.383 . S
C1828 C1829 1.377 . S
C1829 H1813 0.930 . S
C1829 C1828 1.377 . S
C1829 C1830 1.379 . S
C1830 H1814 0.931 . S
C1830 C1824 1.383 . S
C1830 C1829 1.379 . S
H1831 C1825 0.959 . S
H1832 C1825 0.961 . S
H1833 C1825 0.960 . S
H1834 C1826 0.930 . S
H1835 C1827 0.929 . S
H1836 C1844 0.929 . S
H1837 C1846 0.930 . S
H1838 C1848 0.930 . S
H1839 C1851 0.929 . S
H1840 C1854 0.930 . S
H1841 C1856 0.960 . S
H1842 C1856 0.960 . S
H1843 C1856 0.960 . S
C1844 H1836 0.929 . S
C1844 C1845 1.377 . S
C1844 C1846 1.384 . S
C1845 C1844 1.377 . S
C1845 C1851 1.390 . S
C1846 H1837 0.930 . S
C1846 C1844 1.384 . S
C1846 C1847 1.372 . S
C1847 C1846 1.372 . S
C1847 C1848 1.400 . S
C1847 C1852 1.490 1_545 S
C1848 H1838 0.930 . S
C1848 C1847 1.400 . S
C1848 C1851 1.386 . S
H1849 C1865 0.930 . S
H1850 C1866 0.931 . S
C1851 H1839 0.929 . S
C1851 C1845 1.390 . S
C1851 C1848 1.386 . S
C1852 C1847 1.490 1_565 S
C1852 C1854 1.395 . S
C1852 C1855 1.403 . S
H1853 C1859 0.930 . S
C1854 H1840 0.930 . S
C1854 C1852 1.395 . S
C1854 C1857 1.403 . S
C1855 C1852 1.403 . S
C1855 C1856 1.524 . S
C1855 C1859 1.400 . S
C1856 H1841 0.960 . S
C1856 H1842 0.960 . S
C1856 H1843 0.960 . S
C1856 C1855 1.524 . S
C1857 C1854 1.403 . S
C1857 C1858 1.392 . S
C1857 C1861 1.495 . S
C1858 C1857 1.392 . S
C1858 C1859 1.385 . S
C1858 C1860 1.478 . S
C1859 H1853 0.930 . S
C1859 C1855 1.400 . S
C1859 C1858 1.385 . S
C1860 C1858 1.478 . S
C1860 C1862 1.381 . S
C1860 C1866 1.383 . S
C1861 C1857 1.495 . S
C1861 H1867 0.959 . S
C1861 H1868 0.961 . S
C1861 H1869 0.960 . S
C1862 C1860 1.381 . S
C1862 C1863 1.394 . S
C1862 H1870 0.930 . S
C1863 C1862 1.394 . S
C1863 C1864 1.383 . S
C1863 H1871 0.929 . S
C1864 C1863 1.383 . S
C1864 C1865 1.377 . S
C1865 H1849 0.930 . S
C1865 C1864 1.377 . S
C1865 C1866 1.379 . S
C1866 H1850 0.931 . S
C1866 C1860 1.383 . S
C1866 C1865 1.379 . S
H1867 C1861 0.959 . S
H1868 C1861 0.961 . S
H1869 C1861 0.960 . S
H1870 C1862 0.930 . S
H1871 C1863 0.929 . S
H1872 C1880 0.929 . S
H1873 C1882 0.930 . S
H1874 C1884 0.927 . S
H1875 C1887 0.929 . S
H1876 C1890 0.930 . S
H1877 C1892 0.960 . S
H1878 C1892 0.960 . S
H1879 C1892 0.960 . S
C1880 H1872 0.929 . S
C1880 C1881 1.377 . S
C1880 C1882 1.384 1_655 S
C1881 C1880 1.377 . S
C1881 C1887 1.390 . S
C1882 H1873 0.930 . S
C1882 C1880 1.384 1_455 S
C1882 C1883 1.372 . S
C1883 C1882 1.372 . S
C1883 C1884 1.385 1_455 S
C1883 C1888 1.490 . S
C1884 H1874 0.927 . S
C1884 C1883 1.385 1_655 S
C1884 C1887 1.405 . S
H1885 C1901 0.930 . S
H1886 C1902 0.931 . S
C1887 H1875 0.929 . S
C1887 C1881 1.390 . S
C1887 C1884 1.405 . S
C1888 C1883 1.490 . S
C1888 C1890 1.395 . S
C1888 C1891 1.403 . S
H1889 C1895 0.930 . S
C1890 H1876 0.930 . S
C1890 C1888 1.395 . S
C1890 C1893 1.403 . S
C1891 C1888 1.403 . S
C1891 C1892 1.524 . S
C1891 C1895 1.400 . S
C1892 H1877 0.960 . S
C1892 H1878 0.960 . S
C1892 H1879 0.960 . S
C1892 C1891 1.524 . S
C1893 C1890 1.403 . S
C1893 C1894 1.392 . S
C1893 C1897 1.495 . S
C1894 C1893 1.392 . S
C1894 C1895 1.385 . S
C1894 C1896 1.478 . S
C1895 H1889 0.930 . S
C1895 C1891 1.400 . S
C1895 C1894 1.385 . S
C1896 C1894 1.478 . S
C1896 C1898 1.381 . S
C1896 C1902 1.383 . S
C1897 C1893 1.495 . S
C1897 H1903 0.959 . S
C1897 H1904 0.961 . S
C1897 H1905 0.960 . S
C1898 C1896 1.381 . S
C1898 C1899 1.394 . S
C1898 H1906 0.930 . S
C1899 C1898 1.394 . S
C1899 C1900 1.383 . S
C1899 H1907 0.929 . S
C1900 C1899 1.383 . S
C1900 C1901 1.377 . S
C1901 H1885 0.930 . S
C1901 C1900 1.377 . S
C1901 C1902 1.379 . S
C1902 H1886 0.931 . S
C1902 C1896 1.383 . S
C1902 C1901 1.379 . S
H1903 C1897 0.959 . S
H1904 C1897 0.961 . S
H1905 C1897 0.960 . S
H1906 C1898 0.930 . S
H1907 C1899 0.929 . S
H1908 C1916 0.929 . S
H1909 C1918 0.930 . S
H1910 C1920 0.930 . S
H1911 C1923 0.929 . S
H1912 C1926 0.930 . S
H1913 C1928 0.960 . S
H1914 C1928 0.960 . S
H1915 C1928 0.960 . S
C1916 H1908 0.929 . S
C1916 C1917 1.377 . S
C1916 C1918 1.384 . S
C1917 C1916 1.377 . S
C1917 C1923 1.390 . S
C1918 H1909 0.930 . S
C1918 C1916 1.384 . S
C1918 C1919 1.372 . S
C1919 C1918 1.372 . S
C1919 C1920 1.400 . S
C1919 C1924 1.490 . S
C1920 H1910 0.930 . S
C1920 C1919 1.400 . S
C1920 C1923 1.386 . S
H1921 C1937 0.930 . S
H1922 C1938 0.931 . S
C1923 H1911 0.929 . S
C1923 C1917 1.390 . S
C1923 C1920 1.386 . S
C1924 C1919 1.490 . S
C1924 C1926 1.395 . S
C1924 C1927 1.403 . S
H1925 C1931 0.930 . S
C1926 H1912 0.930 . S
C1926 C1924 1.395 . S
C1926 C1929 1.403 . S
C1927 C1924 1.403 . S
C1927 C1928 1.524 . S
C1927 C1931 1.400 . S
C1928 H1913 0.960 . S
C1928 H1914 0.960 . S
C1928 H1915 0.960 . S
C1928 C1927 1.524 . S
C1929 C1926 1.403 . S
C1929 C1930 1.392 . S
C1929 C1933 1.495 . S
C1930 C1929 1.392 . S
C1930 C1931 1.385 . S
C1930 C1932 1.478 . S
C1931 H1925 0.930 . S
C1931 C1927 1.400 . S
C1931 C1930 1.385 . S
C1932 C1930 1.478 . S
C1932 C1934 1.381 . S
C1932 C1938 1.383 . S
C1933 C1929 1.495 . S
C1933 H1939 0.959 . S
C1933 H1940 0.961 . S
C1933 H1941 0.960 . S
C1934 C1932 1.381 . S
C1934 C1935 1.394 . S
C1934 H1942 0.930 . S
C1935 C1934 1.394 . S
C1935 C1936 1.383 . S
C1935 H1943 0.929 . S
C1936 C1935 1.383 . S
C1936 C1937 1.377 . S
C1937 H1921 0.930 . S
C1937 C1936 1.377 . S
C1937 C1938 1.379 . S
C1938 H1922 0.931 . S
C1938 C1932 1.383 . S
C1938 C1937 1.379 . S
H1939 C1933 0.959 . S
H1940 C1933 0.961 . S
H1941 C1933 0.960 . S
H1942 C1934 0.930 . S
H1943 C1935 0.929 . S
H1944 C1952 0.929 . S
H1945 C1954 0.930 . S
H1946 C1956 0.930 . S
H1947 C1959 0.929 . S
H1948 C1962 0.930 . S
H1949 C1964 0.960 . S
H1950 C1964 0.960 . S
H1951 C1964 0.960 . S
C1952 H1944 0.929 . S
C1952 C1953 1.377 . S
C1952 C1954 1.384 . S
C1953 C1952 1.377 . S
C1953 C1959 1.390 . S
C1954 H1945 0.930 . S
C1954 C1952 1.384 . S
C1954 C1955 1.372 . S
C1955 C1954 1.372 . S
C1955 C1956 1.400 . S
C1955 C1960 1.490 . S
C1956 H1946 0.930 . S
C1956 C1955 1.400 . S
C1956 C1959 1.386 . S
H1957 C1973 0.930 . S
H1958 C1974 0.931 . S
C1959 H1947 0.929 . S
C1959 C1953 1.390 . S
C1959 C1956 1.386 . S
C1960 C1955 1.490 . S
C1960 C1962 1.395 . S
C1960 C1963 1.403 . S
H1961 C1967 0.930 . S
C1962 H1948 0.930 . S
C1962 C1960 1.395 . S
C1962 C1965 1.403 . S
C1963 C1960 1.403 . S
C1963 C1964 1.524 . S
C1963 C1967 1.400 . S
C1964 H1949 0.960 . S
C1964 H1950 0.960 . S
C1964 H1951 0.960 . S
C1964 C1963 1.524 . S
C1965 C1962 1.403 . S
C1965 C1966 1.392 . S
C1965 C1969 1.495 . S
C1966 C1965 1.392 . S
C1966 C1967 1.385 . S
C1966 C1968 1.478 . S
C1967 H1961 0.930 . S
C1967 C1963 1.400 . S
C1967 C1966 1.385 . S
C1968 C1966 1.478 . S
C1968 C1970 1.381 . S
C1968 C1974 1.383 . S
C1969 C1965 1.495 . S
C1969 H1975 0.959 . S
C1969 H1976 0.961 . S
C1969 H1977 0.960 . S
C1970 C1968 1.381 . S
C1970 C1971 1.394 . S
C1970 H1978 0.930 . S
C1971 C1970 1.394 . S
C1971 C1972 1.383 . S
C1971 H1979 0.929 . S
C1972 C1971 1.383 . S
C1972 C1973 1.377 . S
C1973 H1957 0.930 . S
C1973 C1972 1.377 . S
C1973 C1974 1.379 . S
C1974 H1958 0.931 . S
C1974 C1968 1.383 . S
C1974 C1973 1.379 . S
H1975 C1969 0.959 . S
H1976 C1969 0.961 . S
H1977 C1969 0.960 . S
H1978 C1970 0.930 . S
H1979 C1971 0.929 . S
H1980 C1988 0.929 . S
H1981 C1990 0.930 . S
H1982 C1992 0.930 . S
H1983 C1995 0.929 . S
H1984 C1998 0.930 . S
H1985 C2000 0.960 . S
H1986 C2000 0.960 . S
H1987 C2000 0.960 . S
C1988 H1980 0.929 . S
C1988 C1989 1.377 . S
C1988 C1990 1.384 . S
C1989 C1988 1.377 . S
C1989 C1995 1.390 . S
C1990 H1981 0.930 . S
C1990 C1988 1.384 . S
C1990 C1991 1.372 . S
C1991 C1990 1.372 . S
C1991 C1992 1.400 . S
C1991 C1996 1.490 . S
C1992 H1982 0.930 . S
C1992 C1991 1.400 . S
C1992 C1995 1.386 . S
H1993 C2009 0.930 . S
H1994 C2010 0.931 . S
C1995 H1983 0.929 . S
C1995 C1989 1.390 . S
C1995 C1992 1.386 . S
C1996 C1991 1.490 . S
C1996 C1998 1.395 . S
C1996 C1999 1.403 . S
H1997 C2003 0.930 . S
C1998 H1984 0.930 . S
C1998 C1996 1.395 . S
C1998 C2001 1.403 . S
C1999 C1996 1.403 . S
C1999 C2000 1.524 . S
C1999 C2003 1.400 . S
C2000 H1985 0.960 . S
C2000 H1986 0.960 . S
C2000 H1987 0.960 . S
C2000 C1999 1.524 . S
C2001 C1998 1.403 . S
C2001 C2002 1.392 . S
C2001 C2005 1.495 . S
C2002 C2001 1.392 . S
C2002 C2003 1.385 . S
C2002 C2004 1.478 . S
C2003 H1997 0.930 . S
C2003 C1999 1.400 . S
C2003 C2002 1.385 . S
C2004 C2002 1.478 . S
C2004 C2006 1.381 . S
C2004 C2010 1.383 . S
C2005 C2001 1.495 . S
C2005 H2011 0.959 . S
C2005 H2012 0.961 . S
C2005 H2013 0.960 . S
C2006 C2004 1.381 . S
C2006 C2007 1.394 . S
C2006 H2014 0.930 . S
C2007 C2006 1.394 . S
C2007 C2008 1.383 . S
C2007 H2015 0.929 . S
C2008 C2007 1.383 . S
C2008 C2009 1.377 . S
C2009 H1993 0.930 . S
C2009 C2008 1.377 . S
C2009 C2010 1.379 . S
C2010 H1994 0.931 . S
C2010 C2004 1.383 . S
C2010 C2009 1.379 . S
H2011 C2005 0.959 . S
H2012 C2005 0.961 . S
H2013 C2005 0.960 . S
H2014 C2006 0.930 . S
H2015 C2007 0.929 . S
H2016 C2024 0.929 . S
H2017 C2026 0.930 . S
H2018 C2028 0.930 . S
H2019 C2031 0.929 . S
H2020 C2034 0.930 . S
H2021 C2036 0.960 . S
H2022 C2036 0.960 . S
H2023 C2036 0.960 . S
C2024 H2016 0.929 . S
C2024 C2025 1.377 . S
C2024 C2026 1.384 . S
C2025 C2024 1.377 . S
C2025 C2031 1.390 . S
C2026 H2017 0.930 . S
C2026 C2024 1.384 . S
C2026 C2027 1.372 . S
C2027 C2026 1.372 . S
C2027 C2028 1.400 . S
C2027 C2032 1.490 . S
C2028 H2018 0.930 . S
C2028 C2027 1.400 . S
C2028 C2031 1.386 . S
H2029 C2045 0.930 . S
H2030 C2046 0.931 . S
C2031 H2019 0.929 . S
C2031 C2025 1.390 . S
C2031 C2028 1.386 . S
C2032 C2027 1.490 . S
C2032 C2034 1.395 . S
C2032 C2035 1.403 . S
H2033 C2039 0.930 . S
C2034 H2020 0.930 . S
C2034 C2032 1.395 . S
C2034 C2037 1.403 . S
C2035 C2032 1.403 . S
C2035 C2036 1.524 . S
C2035 C2039 1.400 . S
C2036 H2021 0.960 . S
C2036 H2022 0.960 . S
C2036 H2023 0.960 . S
C2036 C2035 1.524 . S
C2037 C2034 1.403 . S
C2037 C2038 1.392 . S
C2037 C2041 1.495 . S
C2038 C2037 1.392 . S
C2038 C2039 1.385 . S
C2038 C2040 1.478 . S
C2039 H2033 0.930 . S
C2039 C2035 1.400 . S
C2039 C2038 1.385 . S
C2040 C2038 1.478 . S
C2040 C2042 1.381 . S
C2040 C2046 1.383 . S
C2041 C2037 1.495 . S
C2041 H2047 0.959 . S
C2041 H2048 0.961 . S
C2041 H2049 0.960 . S
C2042 C2040 1.381 . S
C2042 C2043 1.394 . S
C2042 H2050 0.930 . S
C2043 C2042 1.394 . S
C2043 C2044 1.383 . S
C2043 H2051 0.929 . S
C2044 C2043 1.383 . S
C2044 C2045 1.377 . S
C2045 H2029 0.930 . S
C2045 C2044 1.377 . S
C2045 C2046 1.379 . S
C2046 H2030 0.931 . S
C2046 C2040 1.383 . S
C2046 C2045 1.379 . S
H2047 C2041 0.959 . S
H2048 C2041 0.961 . S
H2049 C2041 0.960 . S
H2050 C2042 0.930 . S
H2051 C2043 0.929 . S
H2052 C2060 0.929 . S
H2053 C2062 0.930 . S
H2054 C2064 0.930 . S
H2055 C2067 0.929 . S
H2056 C2070 0.930 . S
H2057 C2072 0.960 . S
H2058 C2072 0.960 . S
H2059 C2072 0.960 . S
C2060 H2052 0.929 . S
C2060 C2061 1.377 . S
C2060 C2062 1.384 . S
C2061 C2060 1.377 . S
C2061 C2067 1.390 . S
C2062 H2053 0.930 . S
C2062 C2060 1.384 . S
C2062 C2063 1.372 . S
C2063 C2062 1.372 . S
C2063 C2064 1.400 . S
C2063 C2068 1.490 1_565 S
C2064 H2054 0.930 . S
C2064 C2063 1.400 . S
C2064 C2067 1.386 . S
H2065 C2081 0.930 . S
H2066 C2082 0.931 . S
C2067 H2055 0.929 . S
C2067 C2061 1.390 . S
C2067 C2064 1.386 . S
C2068 C2063 1.490 1_545 S
C2068 C2070 1.395 . S
C2068 C2071 1.403 . S
H2069 C2075 0.930 . S
C2070 H2056 0.930 . S
C2070 C2068 1.395 . S
C2070 C2073 1.403 . S
C2071 C2068 1.403 . S
C2071 C2072 1.524 . S
C2071 C2075 1.400 . S
C2072 H2057 0.960 . S
C2072 H2058 0.960 . S
C2072 H2059 0.960 . S
C2072 C2071 1.524 . S
C2073 C2070 1.403 . S
C2073 C2074 1.392 . S
C2073 C2077 1.495 . S
C2074 C2073 1.392 . S
C2074 C2075 1.385 . S
C2074 C2076 1.478 . S
C2075 H2069 0.930 . S
C2075 C2071 1.400 . S
C2075 C2074 1.385 . S
C2076 C2074 1.478 . S
C2076 C2078 1.381 . S
C2076 C2082 1.383 . S
C2077 C2073 1.495 . S
C2077 H2083 0.959 . S
C2077 H2084 0.961 . S
C2077 H2085 0.960 . S
C2078 C2076 1.381 . S
C2078 C2079 1.394 . S
C2078 H2086 0.930 . S
C2079 C2078 1.394 . S
C2079 C2080 1.383 . S
C2079 H2087 0.929 . S
C2080 C2079 1.383 . S
C2080 C2081 1.377 . S
C2081 H2065 0.930 . S
C2081 C2080 1.377 . S
C2081 C2082 1.379 . S
C2082 H2066 0.931 . S
C2082 C2076 1.383 . S
C2082 C2081 1.379 . S
H2083 C2077 0.959 . S
H2084 C2077 0.961 . S
H2085 C2077 0.960 . S
H2086 C2078 0.930 . S
H2087 C2079 0.929 . S
H2088 C2096 0.929 . S
H2089 C2098 0.930 . S
H2090 C2100 0.930 . S
H2091 C2103 0.929 . S
H2092 C2106 0.930 . S
H2093 C2108 0.960 . S
H2094 C2108 0.960 . S
H2095 C2108 0.960 . S
C2096 H2088 0.929 . S
C2096 C2097 1.377 . S
C2096 C2098 1.384 1_455 S
C2097 C2096 1.377 . S
C2097 C2103 1.390 . S
C2098 H2089 0.930 . S
C2098 C2096 1.384 1_655 S
C2098 C2099 1.372 . S
C2099 C2098 1.372 . S
C2099 C2100 1.400 . S
C2099 C2104 1.490 . S
C2100 H2090 0.930 . S
C2100 C2099 1.400 . S
C2100 C2103 1.386 1_655 S
H2101 C2117 0.930 . S
H2102 C2118 0.931 . S
C2103 H2091 0.929 . S
C2103 C2097 1.390 . S
C2103 C2100 1.386 1_455 S
C2104 C2099 1.490 . S
C2104 C2106 1.395 . S
C2104 C2107 1.403 . S
H2105 C2111 0.930 . S
C2106 H2092 0.930 . S
C2106 C2104 1.395 . S
C2106 C2109 1.403 . S
C2107 C2104 1.403 . S
C2107 C2108 1.524 . S
C2107 C2111 1.400 . S
C2108 H2093 0.960 . S
C2108 H2094 0.960 . S
C2108 H2095 0.960 . S
C2108 C2107 1.524 . S
C2109 C2106 1.403 . S
C2109 C2110 1.392 . S
C2109 C2113 1.495 . S
C2110 C2109 1.392 . S
C2110 C2111 1.385 . S
C2110 C2112 1.478 . S
C2111 H2105 0.930 . S
C2111 C2107 1.400 . S
C2111 C2110 1.385 . S
C2112 C2110 1.478 . S
C2112 C2114 1.381 . S
C2112 C2118 1.383 . S
C2113 C2109 1.495 . S
C2113 H2119 0.959 . S
C2113 H2120 0.961 . S
C2113 H2121 0.960 . S
C2114 C2112 1.381 . S
C2114 C2115 1.394 . S
C2114 H2122 0.930 . S
C2115 C2114 1.394 . S
C2115 C2116 1.383 . S
C2115 H2123 0.929 . S
C2116 C2115 1.383 . S
C2116 C2117 1.377 . S
C2117 H2101 0.930 . S
C2117 C2116 1.377 . S
C2117 C2118 1.379 . S
C2118 H2102 0.931 . S
C2118 C2112 1.383 . S
C2118 C2117 1.379 . S
H2119 C2113 0.959 . S
H2120 C2113 0.961 . S
H2121 C2113 0.960 . S
H2122 C2114 0.930 . S
H2123 C2115 0.929 . S
H2124 C2132 0.929 . S
H2125 C2134 0.930 . S
H2126 C2136 0.930 . S
H2127 C2139 0.929 . S
H2128 C2142 0.930 . S
H2129 C2144 0.960 . S
H2130 C2144 0.960 . S
H2131 C2144 0.960 . S
C2132 H2124 0.929 . S
C2132 C2133 1.377 . S
C2132 C2134 1.384 . S
C2133 C2132 1.377 . S
C2133 C2139 1.390 . S
C2134 H2125 0.930 . S
C2134 C2132 1.384 . S
C2134 C2135 1.372 . S
C2135 C2134 1.372 . S
C2135 C2136 1.400 . S
C2135 C2140 1.490 . S
C2136 H2126 0.930 . S
C2136 C2135 1.400 . S
C2136 C2139 1.386 . S
H2137 C2153 0.930 . S
H2138 C2154 0.931 . S
C2139 H2127 0.929 . S
C2139 C2133 1.390 . S
C2139 C2136 1.386 . S
C2140 C2135 1.490 . S
C2140 C2142 1.395 . S
C2140 C2143 1.403 . S
H2141 C2147 0.930 . S
C2142 H2128 0.930 . S
C2142 C2140 1.395 . S
C2142 C2145 1.403 . S
C2143 C2140 1.403 . S
C2143 C2144 1.524 . S
C2143 C2147 1.400 . S
C2144 H2129 0.960 . S
C2144 H2130 0.960 . S
C2144 H2131 0.960 . S
C2144 C2143 1.524 . S
C2145 C2142 1.403 . S
C2145 C2146 1.392 . S
C2145 C2149 1.495 . S
C2146 C2145 1.392 . S
C2146 C2147 1.385 . S
C2146 C2148 1.478 . S
C2147 H2141 0.930 . S
C2147 C2143 1.400 . S
C2147 C2146 1.385 . S
C2148 C2146 1.478 . S
C2148 C2150 1.381 . S
C2148 C2154 1.383 . S
C2149 C2145 1.495 . S
C2149 H2155 0.959 . S
C2149 H2156 0.961 . S
C2149 H2157 0.960 . S
C2150 C2148 1.381 . S
C2150 C2151 1.394 . S
C2150 H2158 0.930 . S
C2151 C2150 1.394 . S
C2151 C2152 1.383 . S
C2151 H2159 0.929 . S
C2152 C2151 1.383 . S
C2152 C2153 1.377 . S
C2153 H2137 0.930 . S
C2153 C2152 1.377 . S
C2153 C2154 1.379 . S
C2154 H2138 0.931 . S
C2154 C2148 1.383 . S
C2154 C2153 1.379 . S
H2155 C2149 0.959 . S
H2156 C2149 0.961 . S
H2157 C2149 0.960 . S
H2158 C2150 0.930 . S
H2159 C2151 0.929 . S
H2160 C2168 0.929 . S
H2161 C2170 0.929 . S
H2162 C2172 0.923 . S
H2163 C2175 0.929 . S
H2164 C2178 0.930 . S
H2165 C2180 0.960 . S
H2166 C2180 0.960 . S
H2167 C2180 0.960 . S
C2168 H2160 0.929 . S
C2168 C2169 1.377 . S
C2168 C2170 1.384 . S
C2169 C2168 1.377 . S
C2169 C2175 1.390 . S
C2170 H2161 0.929 . S
C2170 C2168 1.384 . S
C2170 C2171 1.372 1_455 S
C2171 C2170 1.372 1_655 S
C2171 C2172 1.400 1_655 S
C2171 C2176 1.490 . S
C2172 H2162 0.923 . S
C2172 C2171 1.400 1_455 S
C2172 C2175 1.386 . S
H2173 C2189 0.930 . S
H2174 C2190 0.931 . S
C2175 H2163 0.929 . S
C2175 C2169 1.390 . S
C2175 C2172 1.386 . S
C2176 C2171 1.490 . S
C2176 C2178 1.395 . S
C2176 C2179 1.403 . S
H2177 C2183 0.930 . S
C2178 H2164 0.930 . S
C2178 C2176 1.395 . S
C2178 C2181 1.403 . S
C2179 C2176 1.403 . S
C2179 C2180 1.524 . S
C2179 C2183 1.400 . S
C2180 H2165 0.960 . S
C2180 H2166 0.960 . S
C2180 H2167 0.960 . S
C2180 C2179 1.524 . S
C2181 C2178 1.403 . S
C2181 C2182 1.392 . S
C2181 C2185 1.495 . S
C2182 C2181 1.392 . S
C2182 C2183 1.385 . S
C2182 C2184 1.478 . S
C2183 H2177 0.930 . S
C2183 C2179 1.400 . S
C2183 C2182 1.385 . S
C2184 C2182 1.478 . S
C2184 C2186 1.381 . S
C2184 C2190 1.383 . S
C2185 C2181 1.495 . S
C2185 H2191 0.959 . S
C2185 H2192 0.961 . S
C2185 H2193 0.960 . S
C2186 C2184 1.381 . S
C2186 C2187 1.394 . S
C2186 H2194 0.930 . S
C2187 C2186 1.394 . S
C2187 C2188 1.383 . S
C2187 H2195 0.929 . S
C2188 C2187 1.383 . S
C2188 C2189 1.377 . S
C2189 H2173 0.930 . S
C2189 C2188 1.377 . S
C2189 C2190 1.379 . S
C2190 H2174 0.931 . S
C2190 C2184 1.383 . S
C2190 C2189 1.379 . S
H2191 C2185 0.959 . S
H2192 C2185 0.961 . S
H2193 C2185 0.960 . S
H2194 C2186 0.930 . S
H2195 C2187 0.929 . S
H2196 C2204 0.929 . S
H2197 C2206 0.930 . S
H2198 C2208 0.930 . S
H2199 C2211 0.929 . S
H2200 C2214 0.930 . S
H2201 C2216 0.960 . S
H2202 C2216 0.960 . S
H2203 C2216 0.960 . S
C2204 H2196 0.929 . S
C2204 C2205 1.377 . S
C2204 C2206 1.384 . S
C2205 C2204 1.377 . S
C2205 C2211 1.390 . S
C2206 H2197 0.930 . S
C2206 C2204 1.384 . S
C2206 C2207 1.372 . S
C2207 C2206 1.372 . S
C2207 C2208 1.400 . S
C2207 C2212 1.490 . S
C2208 H2198 0.930 . S
C2208 C2207 1.400 . S
C2208 C2211 1.386 . S
H2209 C2225 0.930 . S
H2210 C2226 0.931 . S
C2211 H2199 0.929 . S
C2211 C2205 1.390 . S
C2211 C2208 1.386 . S
C2212 C2207 1.490 . S
C2212 C2214 1.395 . S
C2212 C2215 1.403 . S
H2213 C2219 0.930 . S
C2214 H2200 0.930 . S
C2214 C2212 1.395 . S
C2214 C2217 1.403 . S
C2215 C2212 1.403 . S
C2215 C2216 1.524 . S
C2215 C2219 1.400 . S
C2216 H2201 0.960 . S
C2216 H2202 0.960 . S
C2216 H2203 0.960 . S
C2216 C2215 1.524 . S
C2217 C2214 1.403 . S
C2217 C2218 1.392 . S
C2217 C2221 1.495 . S
C2218 C2217 1.392 . S
C2218 C2219 1.385 . S
C2218 C2220 1.478 . S
C2219 H2213 0.930 . S
C2219 C2215 1.400 . S
C2219 C2218 1.385 . S
C2220 C2218 1.478 . S
C2220 C2222 1.381 . S
C2220 C2226 1.383 . S
C2221 C2217 1.495 . S
C2221 H2227 0.959 . S
C2221 H2228 0.961 . S
C2221 H2229 0.960 . S
C2222 C2220 1.381 . S
C2222 C2223 1.394 . S
C2222 H2230 0.930 . S
C2223 C2222 1.394 . S
C2223 C2224 1.383 . S
C2223 H2231 0.929 . S
C2224 C2223 1.383 . S
C2224 C2225 1.377 . S
C2225 H2209 0.930 . S
C2225 C2224 1.377 . S
C2225 C2226 1.379 . S
C2226 H2210 0.931 . S
C2226 C2220 1.383 . S
C2226 C2225 1.379 . S
H2227 C2221 0.959 . S
H2228 C2221 0.961 . S
H2229 C2221 0.960 . S
H2230 C2222 0.930 . S
H2231 C2223 0.929 . S
H2232 C2240 0.929 . S
H2233 C2242 0.930 . S
H2234 C2244 0.930 . S
H2235 C2247 0.929 . S
H2236 C2250 0.930 . S
H2237 C2252 0.960 . S
H2238 C2252 0.960 . S
H2239 C2252 0.960 . S
C2240 H2232 0.929 . S
C2240 C2241 1.377 . S
C2240 C2242 1.384 . S
C2241 C2240 1.377 . S
C2241 C2247 1.390 . S
C2242 H2233 0.930 . S
C2242 C2240 1.384 . S
C2242 C2243 1.372 . S
C2243 C2242 1.372 . S
C2243 C2244 1.400 . S
C2243 C2248 1.490 1_565 S
C2244 H2234 0.930 . S
C2244 C2243 1.400 . S
C2244 C2247 1.386 . S
H2245 C2261 0.930 . S
H2246 C2262 0.931 . S
C2247 H2235 0.929 . S
C2247 C2241 1.390 . S
C2247 C2244 1.386 . S
C2248 C2243 1.490 1_545 S
C2248 C2250 1.395 . S
C2248 C2251 1.403 . S
H2249 C2255 0.930 . S
C2250 H2236 0.930 . S
C2250 C2248 1.395 . S
C2250 C2253 1.403 . S
C2251 C2248 1.403 . S
C2251 C2252 1.524 . S
C2251 C2255 1.400 . S
C2252 H2237 0.960 . S
C2252 H2238 0.960 . S
C2252 H2239 0.960 . S
C2252 C2251 1.524 . S
C2253 C2250 1.403 . S
C2253 C2254 1.392 . S
C2253 C2257 1.495 . S
C2254 C2253 1.392 . S
C2254 C2255 1.385 . S
C2254 C2256 1.478 . S
C2255 H2249 0.930 . S
C2255 C2251 1.400 . S
C2255 C2254 1.385 . S
C2256 C2254 1.478 . S
C2256 C2258 1.381 . S
C2256 C2262 1.383 . S
C2257 C2253 1.495 . S
C2257 H2263 0.959 . S
C2257 H2264 0.961 . S
C2257 H2265 0.960 . S
C2258 C2256 1.381 . S
C2258 C2259 1.394 . S
C2258 H2266 0.930 . S
C2259 C2258 1.394 . S
C2259 C2260 1.383 . S
C2259 H2267 0.929 . S
C2260 C2259 1.383 . S
C2260 C2261 1.377 . S
C2261 H2245 0.930 . S
C2261 C2260 1.377 . S
C2261 C2262 1.379 . S
C2262 H2246 0.931 . S
C2262 C2256 1.383 . S
C2262 C2261 1.379 . S
H2263 C2257 0.959 . S
H2264 C2257 0.961 . S
H2265 C2257 0.960 . S
H2266 C2258 0.930 . S
H2267 C2259 0.929 . S
H2268 C2276 0.929 . S
H2269 C2278 0.930 . S
H2270 C2280 0.930 . S
H2271 C2283 0.929 . S
H2272 C2286 0.930 . S
H2273 C2288 0.960 . S
H2274 C2288 0.960 . S
H2275 C2288 0.960 . S
C2276 H2268 0.929 . S
C2276 C2277 1.377 . S
C2276 C2278 1.384 . S
C2277 C2276 1.377 . S
C2277 C2283 1.390 . S
C2278 H2269 0.930 . S
C2278 C2276 1.384 . S
C2278 C2279 1.372 . S
C2279 C2278 1.372 . S
C2279 C2280 1.400 . S
C2279 C2284 1.490 . S
C2280 H2270 0.930 . S
C2280 C2279 1.400 . S
C2280 C2283 1.386 . S
H2281 C2297 0.930 . S
H2282 C2298 0.931 . S
C2283 H2271 0.929 . S
C2283 C2277 1.390 . S
C2283 C2280 1.386 . S
C2284 C2279 1.490 . S
C2284 C2286 1.395 . S
C2284 C2287 1.403 . S
H2285 C2291 0.930 . S
C2286 H2272 0.930 . S
C2286 C2284 1.395 . S
C2286 C2289 1.403 . S
C2287 C2284 1.403 . S
C2287 C2288 1.524 . S
C2287 C2291 1.400 . S
C2288 H2273 0.960 . S
C2288 H2274 0.960 . S
C2288 H2275 0.960 . S
C2288 C2287 1.524 . S
C2289 C2286 1.403 . S
C2289 C2290 1.392 . S
C2289 C2293 1.495 . S
C2290 C2289 1.392 . S
C2290 C2291 1.385 . S
C2290 C2292 1.478 . S
C2291 H2285 0.930 . S
C2291 C2287 1.400 . S
C2291 C2290 1.385 . S
C2292 C2290 1.478 . S
C2292 C2294 1.381 . S
C2292 C2298 1.383 . S
C2293 C2289 1.495 . S
C2293 H2299 0.959 . S
C2293 H2300 0.961 . S
C2293 H2301 0.960 . S
C2294 C2292 1.381 . S
C2294 C2295 1.394 . S
C2294 H2302 0.930 . S
C2295 C2294 1.394 . S
C2295 C2296 1.383 . S
C2295 H2303 0.929 . S
C2296 C2295 1.383 . S
C2296 C2297 1.377 . S
C2297 H2281 0.930 . S
C2297 C2296 1.377 . S
C2297 C2298 1.379 . S
C2298 H2282 0.931 . S
C2298 C2292 1.383 . S
C2298 C2297 1.379 . S
H2299 C2293 0.959 . S
H2300 C2293 0.961 . S
H2301 C2293 0.960 . S
H2302 C2294 0.930 . S
H2303 C2295 0.929 . S
H2304 C2312 0.929 . S
H2305 C2314 0.930 . S
H2306 C2316 0.930 . S
H2307 C2319 0.929 . S
H2308 C2322 0.930 . S
H2309 C2324 0.960 . S
H2310 C2324 0.960 . S
H2311 C2324 0.960 . S
C2312 H2304 0.929 . S
C2312 C2313 1.377 . S
C2312 C2314 1.384 . S
C2313 C2312 1.377 . S
C2313 C2319 1.390 . S
C2314 H2305 0.930 . S
C2314 C2312 1.384 . S
C2314 C2315 1.372 . S
C2315 C2314 1.372 . S
C2315 C2316 1.400 . S
C2315 C2320 1.490 . S
C2316 H2306 0.930 . S
C2316 C2315 1.400 . S
C2316 C2319 1.386 . S
H2317 C2333 0.930 . S
H2318 C2334 0.931 . S
C2319 H2307 0.929 . S
C2319 C2313 1.390 . S
C2319 C2316 1.386 . S
C2320 C2315 1.490 . S
C2320 C2322 1.395 . S
C2320 C2323 1.403 . S
H2321 C2327 0.930 . S
C2322 H2308 0.930 . S
C2322 C2320 1.395 . S
C2322 C2325 1.403 . S
C2323 C2320 1.403 . S
C2323 C2324 1.524 . S
C2323 C2327 1.400 . S
C2324 H2309 0.960 . S
C2324 H2310 0.960 . S
C2324 H2311 0.960 . S
C2324 C2323 1.524 . S
C2325 C2322 1.403 . S
C2325 C2326 1.392 . S
C2325 C2329 1.495 . S
C2326 C2325 1.392 . S
C2326 C2327 1.385 . S
C2326 C2328 1.478 . S
C2327 H2321 0.930 . S
C2327 C2323 1.400 . S
C2327 C2326 1.385 . S
C2328 C2326 1.478 . S
C2328 C2330 1.381 . S
C2328 C2334 1.383 . S
C2329 C2325 1.495 . S
C2329 H2335 0.959 . S
C2329 H2336 0.961 . S
C2329 H2337 0.960 . S
C2330 C2328 1.381 . S
C2330 C2331 1.394 . S
C2330 H2338 0.930 . S
C2331 C2330 1.394 . S
C2331 C2332 1.383 . S
C2331 H2339 0.929 . S
C2332 C2331 1.383 . S
C2332 C2333 1.377 . S
C2333 H2317 0.930 . S
C2333 C2332 1.377 . S
C2333 C2334 1.379 . S
C2334 H2318 0.931 . S
C2334 C2328 1.383 . S
C2334 C2333 1.379 . S
H2335 C2329 0.959 . S
H2336 C2329 0.961 . S
H2337 C2329 0.960 . S
H2338 C2330 0.930 . S
H2339 C2331 0.929 . S
H2340 C2348 0.929 . S
H2341 C2350 0.930 . S
H2342 C2352 0.930 . S
H2343 C2355 0.929 . S
H2344 C2358 0.930 . S
H2345 C2360 0.960 . S
H2346 C2360 0.960 . S
H2347 C2360 0.960 . S
C2348 H2340 0.929 . S
C2348 C2349 1.377 . S
C2348 C2350 1.384 . S
C2349 C2348 1.377 . S
C2349 C2355 1.390 . S
C2350 H2341 0.930 . S
C2350 C2348 1.384 . S
C2350 C2351 1.372 . S
C2351 C2350 1.372 . S
C2351 C2352 1.400 . S
C2351 C2356 1.490 . S
C2352 H2342 0.930 . S
C2352 C2351 1.400 . S
C2352 C2355 1.386 . S
H2353 C2369 0.930 . S
H2354 C2370 0.931 . S
C2355 H2343 0.929 . S
C2355 C2349 1.390 . S
C2355 C2352 1.386 . S
C2356 C2351 1.490 . S
C2356 C2358 1.395 . S
C2356 C2359 1.403 . S
H2357 C2363 0.930 . S
C2358 H2344 0.930 . S
C2358 C2356 1.395 . S
C2358 C2361 1.403 . S
C2359 C2356 1.403 . S
C2359 C2360 1.524 . S
C2359 C2363 1.400 . S
C2360 H2345 0.960 . S
C2360 H2346 0.960 . S
C2360 H2347 0.960 . S
C2360 C2359 1.524 . S
C2361 C2358 1.403 . S
C2361 C2362 1.392 . S
C2361 C2365 1.495 . S
C2362 C2361 1.392 . S
C2362 C2363 1.385 . S
C2362 C2364 1.478 . S
C2363 H2357 0.930 . S
C2363 C2359 1.400 . S
C2363 C2362 1.385 . S
C2364 C2362 1.478 . S
C2364 C2366 1.381 . S
C2364 C2370 1.383 . S
C2365 C2361 1.495 . S
C2365 H2371 0.959 . S
C2365 H2372 0.961 . S
C2365 H2373 0.960 . S
C2366 C2364 1.381 . S
C2366 C2367 1.394 . S
C2366 H2374 0.930 . S
C2367 C2366 1.394 . S
C2367 C2368 1.383 . S
C2367 H2375 0.929 . S
C2368 C2367 1.383 . S
C2368 C2369 1.377 . S
C2369 H2353 0.930 . S
C2369 C2368 1.377 . S
C2369 C2370 1.379 . S
C2370 H2354 0.931 . S
C2370 C2364 1.383 . S
C2370 C2369 1.379 . S
H2371 C2365 0.959 . S
H2372 C2365 0.961 . S
H2373 C2365 0.960 . S
H2374 C2366 0.930 . S
H2375 C2367 0.929 . S
H2376 C2384 0.929 . S
H2377 C2386 0.930 . S
H2378 C2388 0.930 . S
H2379 C2391 0.929 . S
H2380 C2394 0.930 . S
H2381 C2396 0.960 . S
H2382 C2396 0.960 . S
H2383 C2396 0.960 . S
C2384 H2376 0.929 . S
C2384 C2385 1.377 . S
C2384 C2386 1.384 . S
C2385 C2384 1.377 . S
C2385 C2391 1.390 . S
C2386 H2377 0.930 . S
C2386 C2384 1.384 . S
C2386 C2387 1.372 . S
C2387 C2386 1.372 . S
C2387 C2388 1.400 . S
C2387 C2392 1.490 . S
C2388 H2378 0.930 . S
C2388 C2387 1.400 . S
C2388 C2391 1.386 . S
H2389 C2405 0.930 . S
H2390 C2406 0.931 . S
C2391 H2379 0.929 . S
C2391 C2385 1.390 . S
C2391 C2388 1.386 . S
C2392 C2387 1.490 . S
C2392 C2394 1.395 . S
C2392 C2395 1.403 . S
H2393 C2399 0.930 . S
C2394 H2380 0.930 . S
C2394 C2392 1.395 . S
C2394 C2397 1.403 . S
C2395 C2392 1.403 . S
C2395 C2396 1.524 . S
C2395 C2399 1.400 . S
C2396 H2381 0.960 . S
C2396 H2382 0.960 . S
C2396 H2383 0.960 . S
C2396 C2395 1.524 . S
C2397 C2394 1.403 . S
C2397 C2398 1.392 . S
C2397 C2401 1.495 1_565 S
C2398 C2397 1.392 . S
C2398 C2399 1.385 . S
C2398 C2400 1.478 . S
C2399 H2393 0.930 . S
C2399 C2395 1.400 . S
C2399 C2398 1.385 . S
C2400 C2398 1.478 . S
C2400 C2402 1.381 . S
C2400 C2406 1.383 . S
C2401 C2397 1.495 1_545 S
C2401 H2407 0.959 . S
C2401 H2408 0.961 . S
C2401 H2409 0.960 . S
C2402 C2400 1.381 . S
C2402 C2403 1.394 . S
C2402 H2410 0.930 . S
C2403 C2402 1.394 . S
C2403 C2404 1.383 . S
C2403 H2411 0.929 . S
C2404 C2403 1.383 . S
C2404 C2405 1.377 . S
C2405 H2389 0.930 . S
C2405 C2404 1.377 . S
C2405 C2406 1.379 . S
C2406 H2390 0.931 . S
C2406 C2400 1.383 . S
C2406 C2405 1.379 . S
H2407 C2401 0.959 . S
H2408 C2401 0.961 . S
H2409 C2401 0.960 . S
H2410 C2402 0.930 . S
H2411 C2403 0.929 . S
H2412 C2420 0.929 . S
H2413 C2422 0.930 . S
H2414 C2424 0.930 . S
H2415 C2427 0.929 . S
H2416 C2430 0.930 . S
H2417 C2432 0.960 . S
H2418 C2432 0.960 . S
H2419 C2432 0.960 . S
C2420 H2412 0.929 . S
C2420 C2421 1.377 . S
C2420 C2422 1.384 . S
C2421 C2420 1.377 . S
C2421 C2427 1.390 1_455 S
C2422 H2413 0.930 . S
C2422 C2420 1.384 . S
C2422 C2423 1.372 . S
C2423 C2422 1.372 . S
C2423 C2424 1.400 1_455 S
C2423 C2428 1.490 . S
C2424 H2414 0.930 . S
C2424 C2423 1.400 1_655 S
C2424 C2427 1.386 . S
H2425 C2441 0.930 . S
H2426 C2442 0.931 . S
C2427 H2415 0.929 . S
C2427 C2421 1.390 1_655 S
C2427 C2424 1.386 . S
C2428 C2423 1.490 . S
C2428 C2430 1.395 . S
C2428 C2431 1.403 . S
H2429 C2435 0.930 . S
C2430 H2416 0.930 . S
C2430 C2428 1.395 . S
C2430 C2433 1.403 . S
C2431 C2428 1.403 . S
C2431 C2432 1.524 . S
C2431 C2435 1.400 . S
C2432 H2417 0.960 . S
C2432 H2418 0.960 . S
C2432 H2419 0.960 . S
C2432 C2431 1.524 . S
C2433 C2430 1.403 . S
C2433 C2434 1.392 . S
C2433 C2437 1.495 . S
C2434 C2433 1.392 . S
C2434 C2435 1.385 . S
C2434 C2436 1.478 . S
C2435 H2429 0.930 . S
C2435 C2431 1.400 . S
C2435 C2434 1.385 . S
C2436 C2434 1.478 . S
C2436 C2438 1.381 . S
C2436 C2442 1.383 1_455 S
C2437 C2433 1.495 . S
C2437 H2443 0.959 . S
C2437 H2444 0.961 1_455 S
C2437 H2445 0.960 . S
C2438 C2436 1.381 . S
C2438 C2439 1.394 . S
C2438 H2446 0.930 . S
C2439 C2438 1.394 . S
C2439 C2440 1.383 . S
C2439 H2447 0.929 . S
C2440 C2439 1.383 . S
C2440 C2441 1.377 1_455 S
C2441 H2425 0.930 . S
C2441 C2440 1.377 1_655 S
C2441 C2442 1.379 . S
C2442 H2426 0.931 . S
C2442 C2436 1.383 1_655 S
C2442 C2441 1.379 . S
H2443 C2437 0.959 . S
H2444 C2437 0.961 1_655 S
H2445 C2437 0.960 . S
H2446 C2438 0.930 . S
H2447 C2439 0.929 . S
H2448 C2456 0.929 . S
H2449 C2458 0.930 . S
H2450 C2460 0.930 . S
H2451 C2463 0.929 . S
H2452 C2466 0.930 . S
H2453 C2468 0.960 . S
H2454 C2468 0.960 . S
H2455 C2468 0.960 . S
C2456 H2448 0.929 . S
C2456 C2457 1.377 . S
C2456 C2458 1.384 . S
C2457 C2456 1.377 . S
C2457 C2463 1.390 . S
C2458 H2449 0.930 . S
C2458 C2456 1.384 . S
C2458 C2459 1.372 . S
C2459 C2458 1.372 . S
C2459 C2460 1.400 . S
C2459 C2464 1.490 . S
C2460 H2450 0.930 . S
C2460 C2459 1.400 . S
C2460 C2463 1.386 . S
H2461 C2477 0.930 . S
H2462 C2478 0.931 . S
C2463 H2451 0.929 . S
C2463 C2457 1.390 . S
C2463 C2460 1.386 . S
C2464 C2459 1.490 . S
C2464 C2466 1.395 . S
C2464 C2467 1.403 . S
H2465 C2471 0.930 . S
C2466 H2452 0.930 . S
C2466 C2464 1.395 . S
C2466 C2469 1.403 . S
C2467 C2464 1.403 . S
C2467 C2468 1.524 . S
C2467 C2471 1.400 . S
C2468 H2453 0.960 . S
C2468 H2454 0.960 . S
C2468 H2455 0.960 . S
C2468 C2467 1.524 . S
C2469 C2466 1.403 . S
C2469 C2470 1.392 . S
C2469 C2473 1.495 . S
C2470 C2469 1.392 . S
C2470 C2471 1.385 . S
C2470 C2472 1.478 . S
C2471 H2465 0.930 . S
C2471 C2467 1.400 . S
C2471 C2470 1.385 . S
C2472 C2470 1.478 . S
C2472 C2474 1.381 . S
C2472 C2478 1.383 . S
C2473 C2469 1.495 . S
C2473 H2479 0.959 . S
C2473 H2480 0.961 . S
C2473 H2481 0.960 . S
C2474 C2472 1.381 . S
C2474 C2475 1.394 . S
C2474 H2482 0.930 . S
C2475 C2474 1.394 . S
C2475 C2476 1.383 . S
C2475 H2483 0.929 . S
C2476 C2475 1.383 . S
C2476 C2477 1.377 . S
C2477 H2461 0.930 . S
C2477 C2476 1.377 . S
C2477 C2478 1.379 . S
C2478 H2462 0.931 . S
C2478 C2472 1.383 . S
C2478 C2477 1.379 . S
H2479 C2473 0.959 . S
H2480 C2473 0.961 . S
H2481 C2473 0.960 . S
H2482 C2474 0.930 . S
H2483 C2475 0.929 . S
H2484 C2492 0.929 . S
H2485 C2494 0.930 . S
H2486 C2496 0.930 . S
H2487 C2499 0.929 . S
H2488 C2502 0.930 . S
H2489 C2504 0.960 . S
H2490 C2504 0.960 . S
H2491 C2504 0.960 . S
C2492 H2484 0.929 . S
C2492 C2493 1.377 1_455 S
C2492 C2494 1.384 . S
C2493 C2492 1.377 1_655 S
C2493 C2499 1.390 . S
C2494 H2485 0.930 . S
C2494 C2492 1.384 . S
C2494 C2495 1.372 1_455 S
C2495 C2494 1.372 1_655 S
C2495 C2496 1.400 . S
C2495 C2500 1.490 . S
C2496 H2486 0.930 . S
C2496 C2495 1.400 . S
C2496 C2499 1.386 . S
H2497 C2513 0.930 . S
H2498 C2514 0.931 . S
C2499 H2487 0.929 . S
C2499 C2493 1.390 . S
C2499 C2496 1.386 . S
C2500 C2495 1.490 . S
C2500 C2502 1.395 1_655 S
C2500 C2503 1.403 . S
H2501 C2507 0.930 . S
C2502 H2488 0.930 . S
C2502 C2500 1.395 1_455 S
C2502 C2505 1.403 . S
C2503 C2500 1.403 . S
C2503 C2504 1.524 . S
C2503 C2507 1.400 . S
C2504 H2489 0.960 . S
C2504 H2490 0.960 . S
C2504 H2491 0.960 . S
C2504 C2503 1.524 . S
C2505 C2502 1.403 . S
C2505 C2506 1.392 1_455 S
C2505 C2509 1.495 . S
C2506 C2505 1.392 1_655 S
C2506 C2507 1.385 . S
C2506 C2508 1.478 . S
C2507 H2501 0.930 . S
C2507 C2503 1.400 . S
C2507 C2506 1.385 . S
C2508 C2506 1.478 . S
C2508 C2510 1.381 1_655 S
C2508 C2514 1.383 . S
C2509 C2505 1.495 . S
C2509 H2515 0.959 . S
C2509 H2516 0.961 . S
C2509 H2517 0.960 . S
C2510 C2508 1.381 1_455 S
C2510 C2511 1.394 . S
C2510 H2518 0.930 . S
C2511 C2510 1.394 . S
C2511 C2512 1.383 1_455 S
C2511 H2519 0.929 . S
C2512 C2511 1.383 1_655 S
C2512 C2513 1.377 . S
C2513 H2497 0.930 . S
C2513 C2512 1.377 . S
C2513 C2514 1.379 . S
C2514 H2498 0.931 . S
C2514 C2508 1.383 . S
C2514 C2513 1.379 . S
H2515 C2509 0.959 . S
H2516 C2509 0.961 . S
H2517 C2509 0.960 . S
H2518 C2510 0.930 . S
H2519 C2511 0.929 . S
H2520 C2528 0.929 . S
H2521 C2530 0.930 . S
H2522 C2532 0.930 . S
H2523 C2535 0.929 . S
H2524 C2538 0.930 . S
H2525 C2540 0.960 . S
H2526 C2540 0.960 . S
H2527 C2540 0.960 . S
C2528 H2520 0.929 . S
C2528 C2529 1.377 . S
C2528 C2530 1.384 . S
C2529 C2528 1.377 . S
C2529 C2535 1.390 . S
C2530 H2521 0.930 . S
C2530 C2528 1.384 . S
C2530 C2531 1.372 . S
C2531 C2530 1.372 . S
C2531 C2532 1.400 . S
C2531 C2536 1.490 . S
C2532 H2522 0.930 . S
C2532 C2531 1.400 . S
C2532 C2535 1.386 . S
H2533 C2549 0.930 . S
H2534 C2550 0.931 . S
C2535 H2523 0.929 . S
C2535 C2529 1.390 . S
C2535 C2532 1.386 . S
C2536 C2531 1.490 . S
C2536 C2538 1.395 . S
C2536 C2539 1.403 . S
H2537 C2543 0.930 . S
C2538 H2524 0.930 . S
C2538 C2536 1.395 . S
C2538 C2541 1.403 . S
C2539 C2536 1.403 . S
C2539 C2540 1.524 . S
C2539 C2543 1.400 . S
C2540 H2525 0.960 . S
C2540 H2526 0.960 . S
C2540 H2527 0.960 . S
C2540 C2539 1.524 . S
C2541 C2538 1.403 . S
C2541 C2542 1.392 . S
C2541 C2545 1.495 . S
C2542 C2541 1.392 . S
C2542 C2543 1.385 . S
C2542 C2544 1.478 . S
C2543 H2537 0.930 . S
C2543 C2539 1.400 . S
C2543 C2542 1.385 . S
C2544 C2542 1.478 . S
C2544 C2546 1.381 . S
C2544 C2550 1.383 . S
C2545 C2541 1.495 . S
C2545 H2551 0.959 . S
C2545 H2552 0.961 . S
C2545 H2553 0.960 . S
C2546 C2544 1.381 . S
C2546 C2547 1.394 . S
C2546 H2554 0.930 . S
C2547 C2546 1.394 . S
C2547 C2548 1.383 . S
C2547 H2555 0.929 . S
C2548 C2547 1.383 . S
C2548 C2549 1.377 . S
C2549 H2533 0.930 . S
C2549 C2548 1.377 . S
C2549 C2550 1.379 . S
C2550 H2534 0.931 . S
C2550 C2544 1.383 . S
C2550 C2549 1.379 . S
H2551 C2545 0.959 . S
H2552 C2545 0.961 . S
H2553 C2545 0.960 . S
H2554 C2546 0.930 . S
H2555 C2547 0.929 . S
H2556 C2564 0.929 . S
H2557 C2566 0.930 . S
H2558 C2568 0.930 . S
H2559 C2571 0.929 . S
H2560 C2574 0.930 . S
H2561 C2576 0.960 . S
H2562 C2576 0.960 . S
H2563 C2576 0.960 . S
C2564 H2556 0.929 . S
C2564 C2565 1.377 . S
C2564 C2566 1.384 . S
C2565 C2564 1.377 . S
C2565 C2571 1.390 . S
C2566 H2557 0.930 . S
C2566 C2564 1.384 . S
C2566 C2567 1.372 . S
C2567 C2566 1.372 . S
C2567 C2568 1.400 . S
C2567 C2572 1.490 . S
C2568 H2558 0.930 . S
C2568 C2567 1.400 . S
C2568 C2571 1.386 . S
H2569 C2585 0.930 . S
H2570 C2586 0.931 . S
C2571 H2559 0.929 . S
C2571 C2565 1.390 . S
C2571 C2568 1.386 . S
C2572 C2567 1.490 . S
C2572 C2574 1.395 . S
C2572 C2575 1.403 . S
H2573 C2579 0.930 . S
C2574 H2560 0.930 . S
C2574 C2572 1.395 . S
C2574 C2577 1.403 . S
C2575 C2572 1.403 . S
C2575 C2576 1.524 . S
C2575 C2579 1.400 . S
C2576 H2561 0.960 . S
C2576 H2562 0.960 . S
C2576 H2563 0.960 . S
C2576 C2575 1.524 . S
C2577 C2574 1.403 . S
C2577 C2578 1.392 . S
C2577 C2581 1.495 . S
C2578 C2577 1.392 . S
C2578 C2579 1.385 . S
C2578 C2580 1.478 . S
C2579 H2573 0.930 . S
C2579 C2575 1.400 . S
C2579 C2578 1.385 . S
C2580 C2578 1.478 . S
C2580 C2582 1.375 1_545 S
C2580 C2586 1.383 . S
C2581 C2577 1.495 . S
C2581 H2587 0.959 . S
C2581 H2588 0.961 . S
C2581 H2589 0.962 . S
C2582 C2580 1.375 1_565 S
C2582 C2583 1.396 . S
C2582 H2590 0.935 . S
C2583 C2582 1.396 . S
C2583 C2584 1.383 1_565 S
C2583 H2591 0.929 . S
C2584 C2583 1.383 1_545 S
C2584 C2585 1.377 . S
C2585 H2569 0.930 . S
C2585 C2584 1.377 . S
C2585 C2586 1.379 . S
C2586 H2570 0.931 . S
C2586 C2580 1.383 . S
C2586 C2585 1.379 . S
H2587 C2581 0.959 . S
H2588 C2581 0.961 . S
H2589 C2581 0.962 . S
H2590 C2582 0.935 . S
H2591 C2583 0.929 . S
H2592 C2600 0.929 . S
H2593 C2602 0.930 . S
H2594 C2604 0.930 . S
H2595 C2607 0.929 . S
H2596 C2610 0.930 . S
H2597 C2612 0.960 . S
H2598 C2612 0.960 . S
H2599 C2612 0.960 . S
C2600 H2592 0.929 . S
C2600 C2601 1.377 . S
C2600 C2602 1.384 . S
C2601 C2600 1.377 . S
C2601 C2607 1.390 . S
C2602 H2593 0.930 . S
C2602 C2600 1.384 . S
C2602 C2603 1.372 . S
C2603 C2602 1.372 . S
C2603 C2604 1.400 . S
C2603 C2608 1.490 . S
C2604 H2594 0.930 . S
C2604 C2603 1.400 . S
C2604 C2607 1.386 . S
H2605 C2621 0.930 . S
H2606 C2622 0.931 . S
C2607 H2595 0.929 . S
C2607 C2601 1.390 . S
C2607 C2604 1.386 . S
C2608 C2603 1.490 . S
C2608 C2610 1.395 . S
C2608 C2611 1.403 . S
H2609 C2615 0.930 . S
C2610 H2596 0.930 . S
C2610 C2608 1.395 . S
C2610 C2613 1.403 . S
C2611 C2608 1.403 . S
C2611 C2612 1.524 . S
C2611 C2615 1.400 . S
C2612 H2597 0.960 . S
C2612 H2598 0.960 . S
C2612 H2599 0.960 . S
C2612 C2611 1.524 . S
C2613 C2610 1.403 . S
C2613 C2614 1.392 . S
C2613 C2617 1.495 . S
C2614 C2613 1.392 . S
C2614 C2615 1.385 . S
C2614 C2616 1.478 . S
C2615 H2609 0.930 . S
C2615 C2611 1.400 . S
C2615 C2614 1.385 . S
C2616 C2614 1.478 . S
C2616 C2618 1.381 . S
C2616 C2622 1.383 . S
C2617 C2613 1.495 . S
C2617 H2623 0.959 . S
C2617 H2624 0.961 . S
C2617 H2625 0.960 . S
C2618 C2616 1.381 . S
C2618 C2619 1.394 . S
C2618 H2626 0.930 . S
C2619 C2618 1.394 . S
C2619 C2620 1.383 . S
C2619 H2627 0.929 . S
C2620 C2619 1.383 . S
C2620 C2621 1.377 . S
C2621 H2605 0.930 . S
C2621 C2620 1.377 . S
C2621 C2622 1.379 . S
C2622 H2606 0.931 . S
C2622 C2616 1.383 . S
C2622 C2621 1.379 . S
H2623 C2617 0.959 . S
H2624 C2617 0.961 . S
H2625 C2617 0.960 . S
H2626 C2618 0.930 . S
H2627 C2619 0.929 . S
H2628 C2636 0.929 . S
H2629 C2638 0.930 . S
H2630 C2640 0.930 . S
H2631 C2643 0.929 . S
H2632 C2646 0.930 . S
H2633 C2648 0.960 . S
H2634 C2648 0.960 . S
H2635 C2648 0.960 . S
C2636 H2628 0.929 . S
C2636 C2637 1.377 . S
C2636 C2638 1.384 . S
C2637 C2636 1.377 . S
C2637 C2643 1.390 . S
C2638 H2629 0.930 . S
C2638 C2636 1.384 . S
C2638 C2639 1.372 . S
C2639 C2638 1.372 . S
C2639 C2640 1.400 . S
C2639 C2644 1.490 . S
C2640 H2630 0.930 . S
C2640 C2639 1.400 . S
C2640 C2643 1.386 . S
H2641 C2657 0.930 . S
H2642 C2658 0.931 . S
C2643 H2631 0.929 . S
C2643 C2637 1.390 . S
C2643 C2640 1.386 . S
C2644 C2639 1.490 . S
C2644 C2646 1.395 . S
C2644 C2647 1.403 . S
H2645 C2651 0.930 . S
C2646 H2632 0.930 . S
C2646 C2644 1.395 . S
C2646 C2649 1.403 . S
C2647 C2644 1.403 . S
C2647 C2648 1.524 . S
C2647 C2651 1.400 . S
C2648 H2633 0.960 . S
C2648 H2634 0.960 . S
C2648 H2635 0.960 . S
C2648 C2647 1.524 . S
C2649 C2646 1.403 . S
C2649 C2650 1.392 . S
C2649 C2653 1.495 . S
C2650 C2649 1.392 . S
C2650 C2651 1.385 . S
C2650 C2652 1.478 . S
C2651 H2645 0.930 . S
C2651 C2647 1.400 . S
C2651 C2650 1.385 . S
C2652 C2650 1.478 . S
C2652 C2654 1.381 . S
C2652 C2658 1.383 . S
C2653 C2649 1.495 . S
C2653 H2659 0.959 . S
C2653 H2660 0.961 . S
C2653 H2661 0.960 . S
C2654 C2652 1.381 . S
C2654 C2655 1.394 . S
C2654 H2662 0.930 . S
C2655 C2654 1.394 . S
C2655 C2656 1.383 . S
C2655 H2663 0.929 . S
C2656 C2655 1.383 . S
C2656 C2657 1.377 . S
C2657 H2641 0.930 . S
C2657 C2656 1.377 . S
C2657 C2658 1.379 . S
C2658 H2642 0.931 . S
C2658 C2652 1.383 . S
C2658 C2657 1.379 . S
H2659 C2653 0.959 . S
H2660 C2653 0.961 . S
H2661 C2653 0.960 . S
H2662 C2654 0.930 . S
H2663 C2655 0.929 . S
H2664 C2672 0.929 . S
H2665 C2674 0.930 . S
H2666 C2676 0.930 . S
H2667 C2679 0.929 . S
H2668 C2682 0.930 . S
H2669 C2684 0.960 . S
H2670 C2684 0.960 . S
H2671 C2684 0.960 . S
C2672 H2664 0.929 . S
C2672 C2673 1.377 . S
C2672 C2674 1.384 . S
C2673 C2672 1.377 . S
C2673 C2679 1.390 . S
C2674 H2665 0.930 . S
C2674 C2672 1.384 . S
C2674 C2675 1.372 . S
C2675 C2674 1.372 . S
C2675 C2676 1.400 . S
C2675 C2680 1.490 . S
C2676 H2666 0.930 . S
C2676 C2675 1.400 . S
C2676 C2679 1.386 . S
H2677 C2693 0.930 . S
H2678 C2694 0.931 . S
C2679 H2667 0.929 . S
C2679 C2673 1.390 . S
C2679 C2676 1.386 . S
C2680 C2675 1.490 . S
C2680 C2682 1.395 . S
C2680 C2683 1.403 . S
H2681 C2687 0.930 . S
C2682 H2668 0.930 . S
C2682 C2680 1.395 . S
C2682 C2685 1.403 . S
C2683 C2680 1.403 . S
C2683 C2684 1.524 . S
C2683 C2687 1.400 . S
C2684 H2669 0.960 . S
C2684 H2670 0.960 . S
C2684 H2671 0.960 . S
C2684 C2683 1.524 . S
C2685 C2682 1.403 . S
C2685 C2686 1.392 . S
C2685 C2689 1.495 . S
C2686 C2685 1.392 . S
C2686 C2687 1.385 . S
C2686 C2688 1.478 . S
C2687 H2681 0.930 . S
C2687 C2683 1.400 . S
C2687 C2686 1.385 . S
C2688 C2686 1.478 . S
C2688 C2690 1.381 . S
C2688 C2694 1.383 . S
C2689 C2685 1.495 . S
C2689 H2695 0.959 . S
C2689 H2696 0.961 . S
C2689 H2697 0.960 . S
C2690 C2688 1.381 . S
C2690 C2691 1.394 . S
C2690 H2698 0.930 . S
C2691 C2690 1.394 . S
C2691 C2692 1.383 . S
C2691 H2699 0.929 . S
C2692 C2691 1.383 . S
C2692 C2693 1.377 . S
C2693 H2677 0.930 . S
C2693 C2692 1.377 . S
C2693 C2694 1.379 . S
C2694 H2678 0.931 . S
C2694 C2688 1.383 . S
C2694 C2693 1.379 . S
H2695 C2689 0.959 . S
H2696 C2689 0.961 . S
H2697 C2689 0.960 . S
H2698 C2690 0.930 . S
H2699 C2691 0.929 . S
H2700 C2708 0.929 . S
H2701 C2710 0.930 . S
H2702 C2712 0.930 . S
H2703 C2715 0.929 . S
H2704 C2718 0.930 . S
H2705 C2720 0.960 . S
H2706 C2720 0.960 . S
H2707 C2720 0.960 . S
C2708 H2700 0.929 . S
C2708 C2709 1.377 . S
C2708 C2710 1.384 . S
C2709 C2708 1.377 . S
C2709 C2715 1.390 . S
C2710 H2701 0.930 . S
C2710 C2708 1.384 . S
C2710 C2711 1.372 . S
C2711 C2710 1.372 . S
C2711 C2712 1.400 . S
C2711 C2716 1.490 . S
C2712 H2702 0.930 . S
C2712 C2711 1.400 . S
C2712 C2715 1.386 . S
H2713 C2729 0.930 . S
H2714 C2730 0.931 . S
C2715 H2703 0.929 . S
C2715 C2709 1.390 . S
C2715 C2712 1.386 . S
C2716 C2711 1.490 . S
C2716 C2718 1.395 . S
C2716 C2719 1.403 . S
H2717 C2723 0.930 . S
C2718 H2704 0.930 . S
C2718 C2716 1.395 . S
C2718 C2721 1.403 . S
C2719 C2716 1.403 . S
C2719 C2720 1.524 . S
C2719 C2723 1.400 . S
C2720 H2705 0.960 . S
C2720 H2706 0.960 . S
C2720 H2707 0.960 . S
C2720 C2719 1.524 . S
C2721 C2718 1.403 . S
C2721 C2722 1.392 . S
C2721 C2725 1.495 . S
C2722 C2721 1.392 . S
C2722 C2723 1.385 . S
C2722 C2724 1.478 . S
C2723 H2717 0.930 . S
C2723 C2719 1.400 . S
C2723 C2722 1.385 . S
C2724 C2722 1.478 . S
C2724 C2726 1.381 . S
C2724 C2730 1.383 . S
C2725 C2721 1.495 . S
C2725 H2731 0.959 . S
C2725 H2732 0.961 . S
C2725 H2733 0.960 . S
C2726 C2724 1.381 . S
C2726 C2727 1.394 . S
C2726 H2734 0.930 . S
C2727 C2726 1.394 . S
C2727 C2728 1.383 . S
C2727 H2735 0.929 . S
C2728 C2727 1.383 . S
C2728 C2729 1.377 . S
C2729 H2713 0.930 . S
C2729 C2728 1.377 . S
C2729 C2730 1.379 . S
C2730 H2714 0.931 . S
C2730 C2724 1.383 . S
C2730 C2729 1.379 . S
H2731 C2725 0.959 . S
H2732 C2725 0.961 . S
H2733 C2725 0.960 . S
H2734 C2726 0.930 . S
H2735 C2727 0.929 . S
H2736 C2744 0.929 . S
H2737 C2746 0.930 . S
H2738 C2748 0.930 . S
H2739 C2751 0.929 . S
H2740 C2754 0.930 . S
H2741 C2756 0.960 . S
H2742 C2756 0.960 . S
H2743 C2756 0.960 . S
C2744 H2736 0.929 . S
C2744 C2745 1.377 . S
C2744 C2746 1.384 . S
C2745 C2744 1.377 . S
C2745 C2751 1.390 . S
C2746 H2737 0.930 . S
C2746 C2744 1.384 . S
C2746 C2747 1.372 . S
C2747 C2746 1.372 . S
C2747 C2748 1.400 . S
C2747 C2752 1.490 . S
C2748 H2738 0.930 . S
C2748 C2747 1.400 . S
C2748 C2751 1.386 . S
H2749 C2765 0.930 . S
H2750 C2766 0.931 . S
C2751 H2739 0.929 . S
C2751 C2745 1.390 . S
C2751 C2748 1.386 . S
C2752 C2747 1.490 . S
C2752 C2754 1.395 . S
C2752 C2755 1.403 . S
H2753 C2759 0.930 . S
C2754 H2740 0.930 . S
C2754 C2752 1.395 . S
C2754 C2757 1.403 . S
C2755 C2752 1.403 . S
C2755 C2756 1.524 . S
C2755 C2759 1.400 . S
C2756 H2741 0.960 . S
C2756 H2742 0.960 . S
C2756 H2743 0.960 . S
C2756 C2755 1.524 . S
C2757 C2754 1.403 . S
C2757 C2758 1.392 . S
C2757 C2761 1.495 . S
C2758 C2757 1.392 . S
C2758 C2759 1.385 . S
C2758 C2760 1.478 . S
C2759 H2753 0.930 . S
C2759 C2755 1.400 . S
C2759 C2758 1.385 . S
C2760 C2758 1.478 . S
C2760 C2762 1.381 . S
C2760 C2766 1.383 . S
C2761 C2757 1.495 . S
C2761 H2767 0.959 . S
C2761 H2768 0.961 . S
C2761 H2769 0.960 . S
C2762 C2760 1.381 . S
C2762 C2763 1.394 . S
C2762 H2770 0.930 . S
C2763 C2762 1.394 . S
C2763 C2764 1.383 . S
C2763 H2771 0.929 . S
C2764 C2763 1.383 . S
C2764 C2765 1.377 . S
C2765 H2749 0.930 . S
C2765 C2764 1.377 . S
C2765 C2766 1.379 . S
C2766 H2750 0.931 . S
C2766 C2760 1.383 . S
C2766 C2765 1.379 . S
H2767 C2761 0.959 . S
H2768 C2761 0.961 . S
H2769 C2761 0.960 . S
H2770 C2762 0.930 . S
H2771 C2763 0.929 . S
H2772 C2780 0.929 . S
H2773 C2782 0.930 . S
H2774 C2784 0.930 . S
H2775 C2787 0.929 . S
H2776 C2790 0.930 . S
H2777 C2792 0.960 . S
H2778 C2792 0.960 . S
H2779 C2792 0.960 . S
C2780 H2772 0.929 . S
C2780 C2781 1.377 . S
C2780 C2782 1.384 . S
C2781 C2780 1.377 . S
C2781 C2787 1.390 . S
C2782 H2773 0.930 . S
C2782 C2780 1.384 . S
C2782 C2783 1.372 . S
C2783 C2782 1.372 . S
C2783 C2784 1.400 . S
C2783 C2788 1.490 . S
C2784 H2774 0.930 . S
C2784 C2783 1.400 . S
C2784 C2787 1.386 . S
H2785 C2801 0.930 . S
H2786 C2802 0.931 . S
C2787 H2775 0.929 . S
C2787 C2781 1.390 . S
C2787 C2784 1.386 . S
C2788 C2783 1.490 . S
C2788 C2790 1.395 . S
C2788 C2791 1.403 . S
H2789 C2795 0.930 . S
C2790 H2776 0.930 . S
C2790 C2788 1.395 . S
C2790 C2793 1.403 . S
C2791 C2788 1.403 . S
C2791 C2792 1.524 . S
C2791 C2795 1.400 . S
C2792 H2777 0.960 . S
C2792 H2778 0.960 . S
C2792 H2779 0.960 . S
C2792 C2791 1.524 . S
C2793 C2790 1.403 . S
C2793 C2794 1.392 . S
C2793 C2797 1.495 . S
C2794 C2793 1.392 . S
C2794 C2795 1.385 . S
C2794 C2796 1.478 . S
C2795 H2789 0.930 . S
C2795 C2791 1.400 . S
C2795 C2794 1.385 . S
C2796 C2794 1.478 . S
C2796 C2798 1.381 . S
C2796 C2802 1.383 . S
C2797 C2793 1.495 . S
C2797 H2803 0.959 . S
C2797 H2804 0.961 . S
C2797 H2805 0.960 . S
C2798 C2796 1.381 . S
C2798 C2799 1.394 . S
C2798 H2806 0.930 . S
C2799 C2798 1.394 . S
C2799 C2800 1.383 . S
C2799 H2807 0.929 . S
C2800 C2799 1.383 . S
C2800 C2801 1.377 . S
C2801 H2785 0.930 . S
C2801 C2800 1.377 . S
C2801 C2802 1.379 . S
C2802 H2786 0.931 . S
C2802 C2796 1.383 . S
C2802 C2801 1.379 . S
H2803 C2797 0.959 . S
H2804 C2797 0.961 . S
H2805 C2797 0.960 . S
H2806 C2798 0.930 . S
H2807 C2799 0.929 . S
H2808 C2816 0.929 . S
H2809 C2818 0.930 . S
H2810 C2820 0.930 . S
H2811 C2823 0.929 . S
H2812 C2826 0.930 . S
H2813 C2828 0.960 . S
H2814 C2828 0.960 . S
H2815 C2828 0.960 . S
C2816 H2808 0.929 . S
C2816 C2817 1.377 . S
C2816 C2818 1.384 . S
C2817 C2816 1.377 . S
C2817 C2823 1.390 . S
C2818 H2809 0.930 . S
C2818 C2816 1.384 . S
C2818 C2819 1.372 . S
C2819 C2818 1.372 . S
C2819 C2820 1.400 . S
C2819 C2824 1.490 . S
C2820 H2810 0.930 . S
C2820 C2819 1.400 . S
C2820 C2823 1.386 . S
H2821 C2837 0.930 . S
H2822 C2838 0.931 . S
C2823 H2811 0.929 . S
C2823 C2817 1.390 . S
C2823 C2820 1.386 . S
C2824 C2819 1.490 . S
C2824 C2826 1.395 . S
C2824 C2827 1.403 . S
H2825 C2831 0.930 . S
C2826 H2812 0.930 . S
C2826 C2824 1.395 . S
C2826 C2829 1.403 . S
C2827 C2824 1.403 . S
C2827 C2828 1.524 . S
C2827 C2831 1.400 . S
C2828 H2813 0.960 . S
C2828 H2814 0.960 . S
C2828 H2815 0.960 . S
C2828 C2827 1.524 . S
C2829 C2826 1.403 . S
C2829 C2830 1.392 . S
C2829 C2833 1.495 . S
C2830 C2829 1.392 . S
C2830 C2831 1.385 . S
C2830 C2832 1.478 . S
C2831 H2825 0.930 . S
C2831 C2827 1.400 . S
C2831 C2830 1.385 . S
C2832 C2830 1.478 . S
C2832 C2834 1.381 . S
C2832 C2838 1.383 . S
C2833 C2829 1.495 . S
C2833 H2839 0.959 . S
C2833 H2840 0.961 . S
C2833 H2841 0.960 . S
C2834 C2832 1.381 . S
C2834 C2835 1.394 . S
C2834 H2842 0.930 . S
C2835 C2834 1.394 . S
C2835 C2836 1.383 . S
C2835 H2843 0.929 . S
C2836 C2835 1.383 . S
C2836 C2837 1.377 . S
C2837 H2821 0.930 . S
C2837 C2836 1.377 . S
C2837 C2838 1.379 . S
C2838 H2822 0.931 . S
C2838 C2832 1.383 . S
C2838 C2837 1.379 . S
H2839 C2833 0.959 . S
H2840 C2833 0.961 . S
H2841 C2833 0.960 . S
H2842 C2834 0.930 . S
H2843 C2835 0.929 . S
H2844 C2852 0.929 . S
H2845 C2854 0.930 . S
H2846 C2856 0.930 . S
H2847 C2859 0.929 . S
H2848 C2862 0.930 . S
H2849 C2864 0.960 . S
H2850 C2864 0.960 . S
H2851 C2864 0.960 . S
C2852 H2844 0.929 . S
C2852 C2853 1.377 . S
C2852 C2854 1.384 . S
C2853 C2852 1.377 . S
C2853 C2859 1.390 . S
C2854 H2845 0.930 . S
C2854 C2852 1.384 . S
C2854 C2855 1.372 . S
C2855 C2854 1.372 . S
C2855 C2856 1.400 . S
C2855 C2860 1.490 . S
C2856 H2846 0.930 . S
C2856 C2855 1.400 . S
C2856 C2859 1.386 . S
H2857 C2873 0.930 . S
H2858 C2874 0.931 . S
C2859 H2847 0.929 . S
C2859 C2853 1.390 . S
C2859 C2856 1.386 . S
C2860 C2855 1.490 . S
C2860 C2862 1.395 . S
C2860 C2863 1.403 . S
H2861 C2867 0.930 . S
C2862 H2848 0.930 . S
C2862 C2860 1.395 . S
C2862 C2865 1.403 . S
C2863 C2860 1.403 . S
C2863 C2864 1.524 . S
C2863 C2867 1.400 . S
C2864 H2849 0.960 . S
C2864 H2850 0.960 . S
C2864 H2851 0.960 . S
C2864 C2863 1.524 . S
C2865 C2862 1.403 . S
C2865 C2866 1.392 . S
C2865 C2869 1.495 . S
C2866 C2865 1.392 . S
C2866 C2867 1.385 . S
C2866 C2868 1.478 . S
C2867 H2861 0.930 . S
C2867 C2863 1.400 . S
C2867 C2866 1.385 . S
C2868 C2866 1.478 . S
C2868 C2870 1.381 . S
C2868 C2874 1.383 . S
C2869 C2865 1.495 . S
C2869 H2875 0.959 . S
C2869 H2876 0.961 . S
C2869 H2877 0.960 . S
C2870 C2868 1.381 . S
C2870 C2871 1.394 . S
C2870 H2878 0.930 . S
C2871 C2870 1.394 . S
C2871 C2872 1.383 . S
C2871 H2879 0.929 . S
C2872 C2871 1.383 . S
C2872 C2873 1.377 . S
C2873 H2857 0.930 . S
C2873 C2872 1.377 . S
C2873 C2874 1.379 . S
C2874 H2858 0.931 . S
C2874 C2868 1.383 . S
C2874 C2873 1.379 . S
H2875 C2869 0.959 . S
H2876 C2869 0.961 . S
H2877 C2869 0.960 . S
H2878 C2870 0.930 . S
H2879 C2871 0.929 . S
H2880 C2888 0.929 . S
H2881 C2890 0.930 . S
H2882 C2892 0.930 . S
H2883 C2895 0.929 . S
H2884 C2898 0.930 . S
H2885 C2900 0.960 . S
H2886 C2900 0.960 . S
H2887 C2900 0.960 . S
C2888 H2880 0.929 . S
C2888 C2889 1.377 . S
C2888 C2890 1.384 . S
C2889 C2888 1.377 . S
C2889 C2895 1.390 . S
C2890 H2881 0.930 . S
C2890 C2888 1.384 . S
C2890 C2891 1.372 . S
C2891 C2890 1.372 . S
C2891 C2892 1.400 . S
C2891 C2896 1.490 . S
C2892 H2882 0.930 . S
C2892 C2891 1.400 . S
C2892 C2895 1.386 . S
H2893 C2909 0.930 . S
H2894 C2910 0.931 . S
C2895 H2883 0.929 . S
C2895 C2889 1.390 . S
C2895 C2892 1.386 . S
C2896 C2891 1.490 . S
C2896 C2898 1.395 . S
C2896 C2899 1.403 . S
H2897 C2903 0.930 . S
C2898 H2884 0.930 . S
C2898 C2896 1.395 . S
C2898 C2901 1.403 . S
C2899 C2896 1.403 . S
C2899 C2900 1.524 . S
C2899 C2903 1.400 . S
C2900 H2885 0.960 . S
C2900 H2886 0.960 . S
C2900 H2887 0.960 . S
C2900 C2899 1.524 . S
C2901 C2898 1.403 . S
C2901 C2902 1.392 . S
C2901 C2905 1.495 . S
C2902 C2901 1.392 . S
C2902 C2903 1.385 . S
C2902 C2904 1.478 . S
C2903 H2897 0.930 . S
C2903 C2899 1.400 . S
C2903 C2902 1.385 . S
C2904 C2902 1.478 . S
C2904 C2906 1.381 . S
C2904 C2910 1.383 . S
C2905 C2901 1.495 . S
C2905 H2911 0.959 . S
C2905 H2912 0.961 . S
C2905 H2913 0.960 . S
C2906 C2904 1.381 . S
C2906 C2907 1.394 . S
C2906 H2914 0.930 . S
C2907 C2906 1.394 . S
C2907 C2908 1.383 . S
C2907 H2915 0.929 . S
C2908 C2907 1.383 . S
C2908 C2909 1.377 . S
C2909 H2893 0.930 . S
C2909 C2908 1.377 . S
C2909 C2910 1.379 . S
C2910 H2894 0.931 . S
C2910 C2904 1.383 . S
C2910 C2909 1.379 . S
H2911 C2905 0.959 . S
H2912 C2905 0.961 . S
H2913 C2905 0.960 . S
H2914 C2906 0.930 . S
H2915 C2907 0.929 . S
H2916 C2924 0.929 . S
H2917 C2926 0.930 . S
H2918 C2928 0.930 . S
H2919 C2931 0.929 . S
H2920 C2934 0.930 . S
H2921 C2936 0.960 . S
H2922 C2936 0.960 . S
H2923 C2936 0.960 . S
C2924 H2916 0.929 . S
C2924 C2925 1.377 . S
C2924 C2926 1.384 . S
C2925 C2924 1.377 . S
C2925 C2931 1.390 . S
C2926 H2917 0.930 . S
C2926 C2924 1.384 . S
C2926 C2927 1.372 . S
C2927 C2926 1.372 . S
C2927 C2928 1.400 . S
C2927 C2932 1.490 . S
C2928 H2918 0.930 . S
C2928 C2927 1.400 . S
C2928 C2931 1.386 . S
H2929 C2945 0.930 . S
H2930 C2946 0.931 . S
C2931 H2919 0.929 . S
C2931 C2925 1.390 . S
C2931 C2928 1.386 . S
C2932 C2927 1.490 . S
C2932 C2934 1.395 . S
C2932 C2935 1.403 . S
H2933 C2939 0.930 . S
C2934 H2920 0.930 . S
C2934 C2932 1.395 . S
C2934 C2937 1.403 . S
C2935 C2932 1.403 . S
C2935 C2936 1.524 . S
C2935 C2939 1.400 . S
C2936 H2921 0.960 . S
C2936 H2922 0.960 . S
C2936 H2923 0.960 . S
C2936 C2935 1.524 . S
C2937 C2934 1.403 . S
C2937 C2938 1.392 . S
C2937 C2941 1.495 . S
C2938 C2937 1.392 . S
C2938 C2939 1.385 . S
C2938 C2940 1.478 . S
C2939 H2933 0.930 . S
C2939 C2935 1.400 . S
C2939 C2938 1.385 . S
C2940 C2938 1.478 . S
C2940 C2942 1.381 . S
C2940 C2946 1.383 . S
C2941 C2937 1.495 . S
C2941 H2947 0.959 . S
C2941 H2948 0.961 . S
C2941 H2949 0.960 . S
C2942 C2940 1.381 . S
C2942 C2943 1.394 . S
C2942 H2950 0.930 . S
C2943 C2942 1.394 . S
C2943 C2944 1.383 . S
C2943 H2951 0.929 . S
C2944 C2943 1.383 . S
C2944 C2945 1.377 . S
C2945 H2929 0.930 . S
C2945 C2944 1.377 . S
C2945 C2946 1.379 . S
C2946 H2930 0.931 . S
C2946 C2940 1.383 . S
C2946 C2945 1.379 . S
H2947 C2941 0.959 . S
H2948 C2941 0.961 . S
H2949 C2941 0.960 . S
H2950 C2942 0.930 . S
H2951 C2943 0.929 . S
H2952 C2960 0.929 . S
H2953 C2962 0.930 . S
H2954 C2964 0.930 . S
H2955 C2967 0.929 . S
H2956 C2970 0.930 . S
H2957 C2972 0.960 . S
H2958 C2972 0.960 . S
H2959 C2972 0.960 . S
C2960 H2952 0.929 . S
C2960 C2961 1.377 . S
C2960 C2962 1.384 . S
C2961 C2960 1.377 . S
C2961 C2967 1.390 . S
C2962 H2953 0.930 . S
C2962 C2960 1.384 . S
C2962 C2963 1.372 . S
C2963 C2962 1.372 . S
C2963 C2964 1.400 . S
C2963 C2968 1.490 . S
C2964 H2954 0.930 . S
C2964 C2963 1.400 . S
C2964 C2967 1.386 . S
H2965 C2981 0.930 . S
H2966 C2982 0.931 . S
C2967 H2955 0.929 . S
C2967 C2961 1.390 . S
C2967 C2964 1.386 . S
C2968 C2963 1.490 . S
C2968 C2970 1.395 . S
C2968 C2971 1.403 . S
H2969 C2975 0.930 . S
C2970 H2956 0.930 . S
C2970 C2968 1.395 . S
C2970 C2973 1.403 . S
C2971 C2968 1.403 . S
C2971 C2972 1.524 . S
C2971 C2975 1.400 . S
C2972 H2957 0.960 . S
C2972 H2958 0.960 . S
C2972 H2959 0.960 . S
C2972 C2971 1.524 . S
C2973 C2970 1.403 . S
C2973 C2974 1.392 . S
C2973 C2977 1.495 . S
C2974 C2973 1.392 . S
C2974 C2975 1.385 . S
C2974 C2976 1.478 . S
C2975 H2969 0.930 . S
C2975 C2971 1.400 . S
C2975 C2974 1.385 . S
C2976 C2974 1.478 . S
C2976 C2978 1.381 . S
C2976 C2982 1.383 . S
C2977 C2973 1.495 . S
C2977 H2983 0.959 . S
C2977 H2984 0.961 . S
C2977 H2985 0.960 . S
C2978 C2976 1.381 . S
C2978 C2979 1.394 . S
C2978 H2986 0.930 . S
C2979 C2978 1.394 . S
C2979 C2980 1.383 . S
C2979 H2987 0.929 . S
C2980 C2979 1.383 . S
C2980 C2981 1.377 . S
C2981 H2965 0.930 . S
C2981 C2980 1.377 . S
C2981 C2982 1.379 . S
C2982 H2966 0.931 . S
C2982 C2976 1.383 . S
C2982 C2981 1.379 . S
H2983 C2977 0.959 . S
H2984 C2977 0.961 . S
H2985 C2977 0.960 . S
H2986 C2978 0.930 . S
H2987 C2979 0.929 . S
H2988 C2996 0.929 . S
H2989 C2998 0.930 . S
H2990 C3000 0.930 . S
H2991 C3003 0.929 . S
H2992 C3006 0.930 . S
H2993 C3008 0.960 . S
H2994 C3008 0.960 . S
H2995 C3008 0.960 . S
C2996 H2988 0.929 . S
C2996 C2997 1.377 . S
C2996 C2998 1.384 . S
C2997 C2996 1.377 . S
C2997 C3003 1.390 . S
C2998 H2989 0.930 . S
C2998 C2996 1.384 . S
C2998 C2999 1.372 . S
C2999 C2998 1.372 . S
C2999 C3000 1.400 . S
C2999 C3004 1.490 . S
C3000 H2990 0.930 . S
C3000 C2999 1.400 . S
C3000 C3003 1.386 . S
H3001 C3017 0.930 . S
H3002 C3018 0.931 . S
C3003 H2991 0.929 . S
C3003 C2997 1.390 . S
C3003 C3000 1.386 . S
C3004 C2999 1.490 . S
C3004 C3006 1.395 . S
C3004 C3007 1.403 . S
H3005 C3011 0.930 . S
C3006 H2992 0.930 . S
C3006 C3004 1.395 . S
C3006 C3009 1.403 . S
C3007 C3004 1.403 . S
C3007 C3008 1.524 . S
C3007 C3011 1.400 . S
C3008 H2993 0.960 . S
C3008 H2994 0.960 . S
C3008 H2995 0.960 . S
C3008 C3007 1.524 . S
C3009 C3006 1.403 . S
C3009 C3010 1.392 . S
C3009 C3013 1.495 . S
C3010 C3009 1.392 . S
C3010 C3011 1.385 . S
C3010 C3012 1.478 . S
C3011 H3005 0.930 . S
C3011 C3007 1.400 . S
C3011 C3010 1.385 . S
C3012 C3010 1.478 . S
C3012 C3014 1.381 . S
C3012 C3018 1.383 . S
C3013 C3009 1.495 . S
C3013 H3019 0.959 . S
C3013 H3020 0.961 . S
C3013 H3021 0.960 . S
C3014 C3012 1.381 . S
C3014 C3015 1.394 . S
C3014 H3022 0.930 . S
C3015 C3014 1.394 . S
C3015 C3016 1.383 . S
C3015 H3023 0.929 . S
C3016 C3015 1.383 . S
C3016 C3017 1.377 . S
C3017 H3001 0.930 . S
C3017 C3016 1.377 . S
C3017 C3018 1.379 . S
C3018 H3002 0.931 . S
C3018 C3012 1.383 . S
C3018 C3017 1.379 . S
H3019 C3013 0.959 . S
H3020 C3013 0.961 . S
H3021 C3013 0.960 . S
H3022 C3014 0.930 . S
H3023 C3015 0.929 . S
C1089 C522 1.716 . S
C1108 C723 1.708 . S
C1125 C562 1.861 . S
C1144 C763 1.857 . S
C1161 C495 1.777 . S
C1180 C815 1.777 . S
C1197 C455 1.569 . S
C1216 C775 1.572 . S
C1252 C803 1.438 . S
C1233 C362 1.440 . S
C1269 C402 1.400 . S
C1288 C735 1.376 . S
C1324 C742 1.749 . S
C1305 C442 1.679 . S
C1360 C782 1.817 . S
C1341 C375 1.821 . S
C1377 C415 1.793 . S
C1396 C802 1.777 . S
C1413 C535 1.572 . S
C1432 C762 1.581 . S
C1449 C575 1.412 . S
C1468 C822 1.410 . S
C1504 C722 1.404 . S
C1485 C482 1.364 . S
C1540 C843 1.722 . S
C1521 C42 1.720 . S
C1557 C82 1.861 . S
C1576 C883 1.857 . S
C1593 C15 1.777 . S
C1612 C935 1.778 . S
C1629 C695 1.564 . S
C1648 C895 1.549 . S
C1665 C602 1.442 . S
C1684 C923 1.447 . S
C1701 C642 1.403 . S
C1720 C855 1.395 . S
C1737 C682 1.672 . S
C1756 C862 1.730 . S
C1773 C615 1.821 . S
C1792 C902 1.815 . S
C1828 C922 1.804 . S
C1809 C655 1.795 . S
C1845 C55 1.575 . S
C1864 C882 1.545 . S
C1900 C942 1.408 . S
C1881 C95 1.408 . S
C1917 C2 1.362 . S
C1936 C842 1.428 . S
C1972 C963 1.721 . S
C1953 C282 1.719 . S
C1989 C322 1.861 . S
C2008 C1003 1.844 . S
C2044 C1055 1.810 . S
C2025 C255 1.786 . S
C2080 C1015 1.579 . S
C2061 C215 1.571 . S
C2116 C1043 1.448 . S
C2097 C122 1.442 . S
C2133 C162 1.404 . S
C2152 C975 1.404 . S
C2169 C202 1.677 . S
C2188 C982 1.733 . S
C2205 C135 1.823 . S
C2224 C1022 1.812 . S
C2260 C1042 1.786 . S
C2241 C175 1.789 . S
C2277 C295 1.571 . S
C2296 C1002 1.566 . S
C2313 C335 1.407 . S
C2332 C1062 1.407 . S
C2349 C242 1.360 . S
C2368 C962 1.431 . S
C2385 C621 1.210 . S
C2404 C746 1.207 . S
C2440 C786 1.958 . S
C2421 C661 1.983 . S
C2457 C701 1.584 . S
C2476 C809 1.618 . S
C2493 C261 1.929 . S
C2512 C769 1.974 . S
C2529 C301 1.608 . S
C2548 C826 1.605 . S
C2584 C729 1.210 . S
C2565 C341 1.200 . S
C2601 C141 1.208 . S
C2620 C866 1.211 . S
C2637 C181 1.984 . S
C2656 C906 1.951 . S
C2673 C221 1.580 . S
C2692 C929 1.617 . S
C2709 C501 1.924 . S
C2728 C889 1.970 . S
C2764 C946 1.601 . S
C2745 C541 1.608 . S
C2781 C581 1.203 . S
C2800 C849 1.195 . S
C2817 C381 1.207 . S
C2836 C986 1.207 . S
C2853 C421 1.983 . S
C2872 C1026 1.941 . S
C2908 C1049 1.631 . S
C2889 C461 1.588 . S
C2925 C21 1.923 . S
C2944 C1009 1.960 . S
C2961 C61 1.608 . S
C2980 C1066 1.599 . S
C2997 C101 1.202 . S
C3016 C969 1.201 . S
