# Generated by pormake.
# Topology myd, (4,6)-cn, num edge types: 1
# Building blocks:
#     Node 0, Type 0, BuildingBlock: KOZSID_clean_sbu_0, # of connection points: 4
#     Node 1, Type 0, BuildingBlock: KOZSID_clean_sbu_0, # of connection points: 4
#     Node 2, Type 0, BuildingBlock: KOZSID_clean_sbu_0, # of connection points: 4
#     Node 3, Type 0, BuildingBlock: KOZSID_clean_sbu_0, # of connection points: 4
#     Node 4, Type 0, BuildingBlock: KOZSID_clean_sbu_0, # of connection points: 4
#     Node 5, Type 0, BuildingBlock: KOZSID_clean_sbu_0, # of connection points: 4
#     Node 6, Type 0, BuildingBlock: KOZSID_clean_sbu_0, # of connection points: 4
#     Node 7, Type 0, BuildingBlock: KOZSID_clean_sbu_0, # of connection points: 4
#     Node 8, Type 0, BuildingBlock: KOZSID_clean_sbu_0, # of connection points: 4
#     Node 9, Type 0, BuildingBlock: KOZSID_clean_sbu_0, # of connection points: 4
#     Node 10, Type 0, BuildingBlock: KOZSID_clean_sbu_0, # of connection points: 4
#     Node 11, Type 0, BuildingBlock: KOZSID_clean_sbu_0, # of connection points: 4
#     Node 12, Type 1, BuildingBlock: FUNLAD_clean_sbu_0, # of connection points: 6
#     Node 13, Type 1, BuildingBlock: FUNLAD_clean_sbu_0, # of connection points: 6
#     Node 14, Type 1, BuildingBlock: FUNLAD_clean_sbu_0, # of connection points: 6
#     Node 15, Type 1, BuildingBlock: FUNLAD_clean_sbu_0, # of connection points: 6
#     Node 16, Type 1, BuildingBlock: FUNLAD_clean_sbu_0, # of connection points: 6
#     Node 17, Type 1, BuildingBlock: FUNLAD_clean_sbu_0, # of connection points: 6
#     Node 18, Type 1, BuildingBlock: FUNLAD_clean_sbu_0, # of connection points: 6
#     Node 19, Type 1, BuildingBlock: FUNLAD_clean_sbu_0, # of connection points: 6
#     Edge 20, Type (0, 1), BuildingBlock: MIFKUJ_clean_linker_0, # of connection points: 2
#     Edge 21, Type (0, 1), BuildingBlock: MIFKUJ_clean_linker_0, # of connection points: 2
#     Edge 22, Type (0, 1), BuildingBlock: MIFKUJ_clean_linker_0, # of connection points: 2
#     Edge 23, Type (0, 1), BuildingBlock: MIFKUJ_clean_linker_0, # of connection points: 2
#     Edge 24, Type (0, 1), BuildingBlock: MIFKUJ_clean_linker_0, # of connection points: 2
#     Edge 25, Type (0, 1), BuildingBlock: MIFKUJ_clean_linker_0, # of connection points: 2
#     Edge 26, Type (0, 1), BuildingBlock: MIFKUJ_clean_linker_0, # of connection points: 2
#     Edge 27, Type (0, 1), BuildingBlock: MIFKUJ_clean_linker_0, # of connection points: 2
#     Edge 28, Type (0, 1), BuildingBlock: MIFKUJ_clean_linker_0, # of connection points: 2
#     Edge 29, Type (0, 1), BuildingBlock: MIFKUJ_clean_linker_0, # of connection points: 2
#     Edge 30, Type (0, 1), BuildingBlock: MIFKUJ_clean_linker_0, # of connection points: 2
#     Edge 31, Type (0, 1), BuildingBlock: MIFKUJ_clean_linker_0, # of connection points: 2
#     Edge 32, Type (0, 1), BuildingBlock: MIFKUJ_clean_linker_0, # of connection points: 2
#     Edge 33, Type (0, 1), BuildingBlock: MIFKUJ_clean_linker_0, # of connection points: 2
#     Edge 34, Type (0, 1), BuildingBlock: MIFKUJ_clean_linker_0, # of connection points: 2
#     Edge 35, Type (0, 1), BuildingBlock: MIFKUJ_clean_linker_0, # of connection points: 2
#     Edge 36, Type (0, 1), BuildingBlock: MIFKUJ_clean_linker_0, # of connection points: 2
#     Edge 37, Type (0, 1), BuildingBlock: MIFKUJ_clean_linker_0, # of connection points: 2
#     Edge 38, Type (0, 1), BuildingBlock: MIFKUJ_clean_linker_0, # of connection points: 2
#     Edge 39, Type (0, 1), BuildingBlock: MIFKUJ_clean_linker_0, # of connection points: 2
#     Edge 40, Type (0, 1), BuildingBlock: MIFKUJ_clean_linker_0, # of connection points: 2
#     Edge 41, Type (0, 1), BuildingBlock: MIFKUJ_clean_linker_0, # of connection points: 2
#     Edge 42, Type (0, 1), BuildingBlock: MIFKUJ_clean_linker_0, # of connection points: 2
#     Edge 43, Type (0, 1), BuildingBlock: MIFKUJ_clean_linker_0, # of connection points: 2
#     Edge 44, Type (0, 1), BuildingBlock: MIFKUJ_clean_linker_0, # of connection points: 2
#     Edge 45, Type (0, 1), BuildingBlock: MIFKUJ_clean_linker_0, # of connection points: 2
#     Edge 46, Type (0, 1), BuildingBlock: MIFKUJ_clean_linker_0, # of connection points: 2
#     Edge 47, Type (0, 1), BuildingBlock: MIFKUJ_clean_linker_0, # of connection points: 2
#     Edge 48, Type (0, 1), BuildingBlock: MIFKUJ_clean_linker_0, # of connection points: 2
#     Edge 49, Type (0, 1), BuildingBlock: MIFKUJ_clean_linker_0, # of connection points: 2
#     Edge 50, Type (0, 1), BuildingBlock: MIFKUJ_clean_linker_0, # of connection points: 2
#     Edge 51, Type (0, 1), BuildingBlock: MIFKUJ_clean_linker_0, # of connection points: 2
#     Edge 52, Type (0, 1), BuildingBlock: MIFKUJ_clean_linker_0, # of connection points: 2
#     Edge 53, Type (0, 1), BuildingBlock: MIFKUJ_clean_linker_0, # of connection points: 2
#     Edge 54, Type (0, 1), BuildingBlock: MIFKUJ_clean_linker_0, # of connection points: 2
#     Edge 55, Type (0, 1), BuildingBlock: MIFKUJ_clean_linker_0, # of connection points: 2
#     Edge 56, Type (0, 1), BuildingBlock: MIFKUJ_clean_linker_0, # of connection points: 2
#     Edge 57, Type (0, 1), BuildingBlock: MIFKUJ_clean_linker_0, # of connection points: 2
#     Edge 58, Type (0, 1), BuildingBlock: MIFKUJ_clean_linker_0, # of connection points: 2
#     Edge 59, Type (0, 1), BuildingBlock: MIFKUJ_clean_linker_0, # of connection points: 2
#     Edge 60, Type (0, 1), BuildingBlock: MIFKUJ_clean_linker_0, # of connection points: 2
#     Edge 61, Type (0, 1), BuildingBlock: MIFKUJ_clean_linker_0, # of connection points: 2
#     Edge 62, Type (0, 1), BuildingBlock: MIFKUJ_clean_linker_0, # of connection points: 2
#     Edge 63, Type (0, 1), BuildingBlock: MIFKUJ_clean_linker_0, # of connection points: 2
#     Edge 64, Type (0, 1), BuildingBlock: MIFKUJ_clean_linker_0, # of connection points: 2
#     Edge 65, Type (0, 1), BuildingBlock: MIFKUJ_clean_linker_0, # of connection points: 2
#     Edge 66, Type (0, 1), BuildingBlock: MIFKUJ_clean_linker_0, # of connection points: 2
#     Edge 67, Type (0, 1), BuildingBlock: MIFKUJ_clean_linker_0, # of connection points: 2
# Relax obj value: 0.232
# Max RMSD: 0.218
# Mean RMSD: 0.149
data_MOF--net-myd--node1-KOZSID_clean_sbu_0--node2-FUNLAD_clean_sbu_0--edge1-MIFKUJ_clean_linker_0
_symmetry_space_group_name_H-M    P1
_symmetry_Int_Tables_number       1
_symmetry_cell_setting            triclinic
loop_
_symmetry_equiv_pos_as_xyz
'x, y, z'
_cell_length_a     64.384972
_cell_length_b     64.547871
_cell_length_c     69.03594
_cell_angle_alpha  87.37163
_cell_angle_beta   85.466906
_cell_angle_gamma 90.811076
loop_
_atom_site_label
_atom_site_type_symbol
_atom_site_fract_x
_atom_site_fract_y
_atom_site_fract_z
_atom_type_partial_charge
C0 C 0.99216 0.28607 0.36349 0.0
C1 C 0.97225 0.29137 0.37049 0.0
C2 C 0.95885 0.27773 0.36314 0.0
C3 C 0.97129 0.26498 0.35207 0.0
N4 N 0.99188 0.26925 0.35237 0.0
Co5 Co 0.01536 0.2564 0.33647 0.0
N6 N 0.99556 0.24003 0.32182 0.0
C7 C 0.97455 0.23916 0.32503 0.0
C8 C 0.96502 0.22697 0.31252 0.0
C9 C 0.98086 0.2195 0.30066 0.0
C10 C 0.9993 0.22745 0.30674 0.0
N11 N 0.03892 0.24412 0.32028 0.0
C12 C 0.03866 0.23104 0.30544 0.0
C13 C 0.05873 0.22594 0.29859 0.0
C14 C 0.07208 0.23638 0.30923 0.0
C15 C 0.05953 0.24714 0.32203 0.0
N16 N 0.03503 0.2728 0.35121 0.0
C17 C 0.05604 0.27172 0.35008 0.0
C18 C 0.06532 0.28608 0.36082 0.0
C19 C 0.04933 0.29736 0.36887 0.0
C20 C 0.03118 0.2892 0.36252 0.0
N21 N 0.016 0.2323 0.35577 0.0
C22 C 0.01705 0.19182 0.37307 0.0
C23 C 0.0354 0.2032 0.36787 0.0
C24 C 0.03451 0.22339 0.35974 0.0
C25 C 0.99817 0.20193 0.37154 0.0
C26 C 0.99802 0.22208 0.36307 0.0
N27 N 0.01476 0.27972 0.31697 0.0
C28 C 0.03295 0.30507 0.29475 0.0
C29 C 0.01442 0.31015 0.28658 0.0
C30 C 0.99593 0.30045 0.29449 0.0
C31 C 0.99643 0.28549 0.30968 0.0
C32 C 0.03277 0.28988 0.30984 0.0
H33 H 0.98188 0.27848 0.31508 0.0
H34 H 0.04744 0.28623 0.31523 0.0
H35 H 0.04906 0.23108 0.35617 0.0
H36 H 0.98311 0.22865 0.36192 0.0
C37 C 0.96414 0.25097 0.33913 0.0
C38 C 0.01077 0.29832 0.36651 0.0
C39 C 0.01991 0.2227 0.29767 0.0
C40 C 0.0666 0.25986 0.33612 0.0
H41 H 0.96783 0.30429 0.37928 0.0
H42 H 0.94199 0.27793 0.36467 0.0
H43 H 0.94848 0.22416 0.31185 0.0
H44 H 0.97895 0.20948 0.28877 0.0
H45 H 0.06331 0.21556 0.2872 0.0
H46 H 0.08893 0.23603 0.3079 0.0
H47 H 0.08183 0.28897 0.36159 0.0
H48 H 0.05087 0.31066 0.37768 0.0
H49 H 0.05045 0.19637 0.36963 0.0
H50 H 0.9835 0.19397 0.37588 0.0
H51 H 0.04765 0.31216 0.28905 0.0
H52 H 0.98115 0.30422 0.28884 0.0
C53 C 0.99567 0.71134 0.13691 0.0
C54 C 0.97737 0.70616 0.12871 0.0
C55 C 0.96208 0.71794 0.13714 0.0
C56 C 0.9718 0.72949 0.15003 0.0
N57 N 0.99246 0.72604 0.15021 0.0
Co58 Co 0.01219 0.73846 0.16783 0.0
N59 N 0.98931 0.75467 0.18112 0.0
C60 C 0.96898 0.75461 0.17749 0.0
C61 C 0.95732 0.76855 0.18782 0.0
C62 C 0.97108 0.7784 0.19846 0.0
C63 C 0.9904 0.76972 0.19408 0.0
N64 N 0.03192 0.75066 0.18545 0.0
C65 C 0.02875 0.76555 0.19846 0.0
C66 C 0.04664 0.76974 0.2077 0.0
C67 C 0.06186 0.75755 0.19972 0.0
C68 C 0.05239 0.74656 0.18626 0.0
N69 N 0.0351 0.72239 0.1544 0.0
C70 C 0.05549 0.72262 0.15789 0.0
C71 C 0.06745 0.70982 0.14648 0.0
C72 C 0.05388 0.70062 0.13519 0.0
C73 C 0.03432 0.7083 0.14048 0.0
N74 N 0.01817 0.76263 0.149 0.0
C75 C 0.0251 0.80244 0.13055 0.0
C76 C 0.04154 0.7911 0.13746 0.0
C77 C 0.03784 0.77124 0.14621 0.0
C78 C 0.00546 0.79274 0.13154 0.0
C79 C 0.00236 0.77296 0.14073 0.0
N80 N 0.00615 0.71478 0.18726 0.0
C81 C 0.01791 0.69102 0.2122 0.0
C82 C 0.99741 0.68512 0.21869 0.0
C83 C 0.98146 0.69361 0.20828 0.0
C84 C 0.98611 0.70827 0.19286 0.0
C85 C 0.02186 0.70539 0.19648 0.0
H86 H 0.97319 0.71435 0.18587 0.0
H87 H 0.03781 0.70898 0.19232 0.0
H88 H 0.051 0.7635 0.1513 0.0
H89 H 0.98687 0.76672 0.1417 0.0
C90 C 0.96172 0.74278 0.16294 0.0
C91 C 0.01541 0.70106 0.13239 0.0
C92 C 0.00959 0.77711 0.20153 0.0
C93 C 0.06266 0.73379 0.17295 0.0
H94 H 0.97509 0.69467 0.11812 0.0
H95 H 0.9457 0.71763 0.13461 0.0
H96 H 0.94095 0.77183 0.18704 0.0
H97 H 0.96735 0.79103 0.20782 0.0
H98 H 0.04865 0.78097 0.21861 0.0
H99 H 0.07808 0.75734 0.20281 0.0
H100 H 0.08397 0.70705 0.14675 0.0
H101 H 0.05783 0.6892 0.12457 0.0
H102 H 0.05719 0.79767 0.13644 0.0
H103 H 0.99227 0.80076 0.12613 0.0
H104 H 0.03102 0.68514 0.2195 0.0
H105 H 0.96533 0.68915 0.21202 0.0
C106 C 0.34661 0.98721 0.25989 0.0
C107 C 0.35363 0.96764 0.26506 0.0
C108 C 0.34613 0.95431 0.25238 0.0
C109 C 0.33484 0.96639 0.24036 0.0
N110 N 0.33506 0.98673 0.24424 0.0
Co111 Co 0.31828 0.00911 0.23204 0.0
N112 N 0.30466 0.98897 0.21551 0.0
C113 C 0.30924 0.96871 0.21394 0.0
C114 C 0.29832 0.95899 0.2006 0.0
C115 C 0.28621 0.97401 0.193 0.0
C116 C 0.29038 0.99208 0.20227 0.0
N117 N 0.30069 0.03137 0.22083 0.0
C118 C 0.28614 0.03035 0.20771 0.0
C119 C 0.27721 0.0495 0.20433 0.0
C120 C 0.28667 0.06316 0.21549 0.0
C121 C 0.30066 0.0516 0.22512 0.0
N122 N 0.33258 0.02934 0.24796 0.0
C123 C 0.33082 0.05019 0.24703 0.0
C124 C 0.34228 0.05999 0.25995 0.0
C125 C 0.35162 0.04444 0.26994 0.0
C126 C 0.34517 0.02597 0.26261 0.0
N127 N 0.34031 0.01435 0.21006 0.0
C128 C 0.36506 0.01999 0.17428 0.0
C129 C 0.35438 0.03648 0.1826 0.0
C130 C 0.34256 0.03346 0.20046 0.0
C131 C 0.36441 1.001 0.18492 0.0
C132 C 0.35207 0.99854 0.2026 0.0
N133 N 0.2961 0.00386 0.25352 0.0
C134 C 0.27317 0.01614 0.27993 0.0
C135 C 0.26379 0.99645 0.28348 0.0
C136 C 0.27117 0.98055 0.27175 0.0
C137 C 0.28726 0.9845 0.25714 0.0
C138 C 0.28904 0.0195 0.26497 0.0
H139 H 0.29224 0.97166 0.24884 0.0
H140 H 0.29539 0.0349 0.2629 0.0
H141 H 0.33496 0.04679 0.20589 0.0
H142 H 0.35188 0.9835 0.20963 0.0
C143 C 0.32302 0.95903 0.22593 0.0
C144 C 0.35041 0.00562 0.27079 0.0
C145 C 0.2808 0.01187 0.1976 0.0
C146 C 0.3154 0.05959 0.23673 0.0
H147 H 0.36274 0.96327 0.27706 0.0
H148 H 0.34806 0.93768 0.25238 0.0
H149 H 0.29904 0.9429 0.19688 0.0
H150 H 0.27561 0.97192 0.1818 0.0
H151 H 0.26537 0.05329 0.19452 0.0
H152 H 0.28408 0.07965 0.21609 0.0
H153 H 0.34274 0.07638 0.26264 0.0
H154 H 0.36138 0.04639 0.28182 0.0
H155 H 0.35494 0.05169 0.17523 0.0
H156 H 0.37266 0.98779 0.17924 0.0
H157 H 0.26847 0.02898 0.28872 0.0
H158 H 0.26439 0.96507 0.27354 0.0
C159 C 0.66627 0.48433 0.21866 0.0
C160 C 0.6568 0.46601 0.21382 0.0
C161 C 0.66631 0.45025 0.22331 0.0
C162 C 0.68102 0.45977 0.2333 0.0
N163 N 0.68129 0.48071 0.23102 0.0
Co164 Co 0.70115 0.50055 0.24177 0.0
N165 N 0.71544 0.47728 0.25538 0.0
C166 C 0.71114 0.45674 0.25501 0.0
C167 C 0.72215 0.44474 0.26733 0.0
C168 C 0.73377 0.45848 0.27656 0.0
C169 C 0.72924 0.47813 0.26916 0.0
N170 N 0.72118 0.52033 0.25223 0.0
C171 C 0.73485 0.51687 0.26586 0.0
C172 C 0.74551 0.53487 0.26966 0.0
C173 C 0.73778 0.55043 0.25841 0.0
C174 C 0.72298 0.54104 0.24838 0.0
N175 N 0.68651 0.5239 0.2287 0.0
C176 C 0.6909 0.54445 0.22914 0.0
C177 C 0.67818 0.55669 0.21865 0.0
C178 C 0.66506 0.54316 0.21083 0.0
C179 C 0.67067 0.52339 0.21696 0.0
N180 N 0.68214 0.50291 0.26565 0.0
C181 C 0.66167 0.50549 0.30316 0.0
C182 C 0.66907 0.52331 0.29234 0.0
C183 C 0.67915 0.52169 0.27381 0.0
C184 C 0.66345 0.48649 0.29421 0.0
C185 C 0.67344 0.4856 0.27552 0.0
N186 N 0.72061 0.49821 0.21796 0.0
C187 C 0.74244 0.51433 0.19102 0.0
C188 C 0.75037 0.49517 0.18587 0.0
C189 C 0.74263 0.47748 0.1966 0.0
C190 C 0.7277 0.47931 0.21227 0.0
C191 C 0.72779 0.5155 0.207 0.0
H192 H 0.72231 0.46519 0.2196 0.0
H193 H 0.72279 0.53065 0.21029 0.0
H194 H 0.68501 0.53578 0.26661 0.0
H195 H 0.67463 0.47065 0.26961 0.0
C196 C 0.69511 0.44945 0.24451 0.0
C197 C 0.66147 0.50462 0.21013 0.0
C198 C 0.73684 0.49725 0.27673 0.0
C199 C 0.70827 0.55156 0.238 0.0
H200 H 0.64464 0.46411 0.20407 0.0
H201 H 0.66319 0.43379 0.22265 0.0
H202 H 0.72099 0.4281 0.27007 0.0
H203 H 0.74369 0.45444 0.28803 0.0
H204 H 0.75696 0.53667 0.28017 0.0
H205 H 0.74153 0.56683 0.25849 0.0
H206 H 0.67887 0.5734 0.21637 0.0
H207 H 0.65315 0.54728 0.20119 0.0
H208 H 0.66748 0.53852 0.29824 0.0
H209 H 0.65794 0.47218 0.30182 0.0
H210 H 0.74801 0.52849 0.18314 0.0
H211 H 0.74808 0.46224 0.19292 0.0
C212 C 0.29887 0.349 0.98386 0.0
C213 C 0.30372 0.35819 0.96547 0.0
C214 C 0.28836 0.35198 0.95412 0.0
C215 C 0.27508 0.33936 0.96615 0.0
N216 N 0.28117 0.33734 0.98431 0.0
Co217 Co 0.26746 0.31984 0.00609 0.0
N218 N 0.25273 0.30276 0.98817 0.0
C219 C 0.24978 0.30815 0.96951 0.0
C220 C 0.23912 0.29319 0.96061 0.0
C221 C 0.23486 0.2776 0.97461 0.0
C222 C 0.24303 0.28401 0.99144 0.0
N223 N 0.25396 0.30247 0.02808 0.0
C224 C 0.2441 0.28378 0.02813 0.0
C225 C 0.23616 0.27758 0.04685 0.0
C226 C 0.24113 0.29303 0.05876 0.0
C227 C 0.25175 0.3078 0.04677 0.0
N228 N 0.28212 0.33708 0.02386 0.0
C229 C 0.27682 0.33907 0.0429 0.0
C230 C 0.29046 0.35177 0.05139 0.0
C231 C 0.30522 0.35804 0.03673 0.0
C232 C 0.29972 0.34874 0.02013 0.0
N233 N 0.2436 0.33856 0.00756 0.0
C234 C 0.20869 0.36416 0.00603 0.0
C235 C 0.20637 0.34263 0.009 0.0
C236 C 0.22385 0.33023 0.0097 0.0
C237 C 0.22898 0.37272 0.00464 0.0
C238 C 0.24623 0.35965 0.00544 0.0
N239 N 0.29094 0.30094 0.0044 0.0
C240 C 0.31581 0.27936 0.01965 0.0
C241 C 0.32236 0.27144 1.00166 0.0
C242 C 0.31342 0.27916 0.98504 0.0
C243 C 0.29792 0.29397 0.98669 0.0
C244 C 0.29995 0.29402 0.02073 0.0
H245 H 0.29128 0.29947 0.97362 0.0
H246 H 0.29469 0.29945 0.03479 0.0
H247 H 0.22124 0.31374 0.01156 0.0
H248 H 0.26169 0.36653 0.00392 0.0
C249 C 0.25996 0.3257 0.96016 0.0
C250 C 0.3108 0.35189 1.00084 0.0
C251 C 0.23965 0.27289 0.0106 0.0
C252 C 0.26211 0.32537 0.05279 0.0
H253 H 0.31704 0.36804 0.96069 0.0
H254 H 0.28772 0.35526 0.93866 0.0
H255 H 0.23545 0.29327 0.94557 0.0
H256 H 0.22649 0.26329 0.97268 0.0
H257 H 0.22722 0.26363 0.05138 0.0
H258 H 0.23771 0.29325 0.07436 0.0
H259 H 0.2904 0.35511 0.06662 0.0
H260 H 0.31856 0.3681 0.03811 0.0
H261 H 0.19107 0.33527 0.01069 0.0
H262 H 0.23158 0.38929 0.00238 0.0
H263 H 0.32234 0.27375 0.03285 0.0
H264 H 0.31828 0.27366 0.97082 0.0
C265 C 0.25531 0.66967 0.47459 0.0
C266 C 0.25588 0.66281 0.45581 0.0
C267 C 0.27183 0.67344 0.44536 0.0
C268 C 0.28001 0.6862 0.45827 0.0
N269 N 0.27052 0.68406 0.47645 0.0
Co270 Co 0.2762 0.70073 0.49935 0.0
N271 N 0.29619 0.71966 0.48295 0.0
C272 C 0.30181 0.71843 0.46373 0.0
C273 C 0.31617 0.73324 0.45652 0.0
C274 C 0.31998 0.74466 0.47203 0.0
C275 C 0.30756 0.73619 0.4879 0.0
N276 N 0.28194 0.71716 0.52235 0.0
C277 C 0.2946 0.73395 0.5236 0.0
C278 C 0.29387 0.74069 0.54246 0.0
C279 C 0.28064 0.72747 0.55357 0.0
C280 C 0.27394 0.71355 0.54094 0.0
N281 N 0.25579 0.68211 0.51557 0.0
C282 C 0.25087 0.68245 0.53496 0.0
C283 C 0.23545 0.66849 0.54176 0.0
C284 C 0.22977 0.65904 0.52565 0.0
C285 C 0.24207 0.66791 0.50994 0.0
N286 N 0.29976 0.682 0.50532 0.0
C287 C 0.33514 0.65886 0.5146 0.0
C288 C 0.31844 0.6614 0.52844 0.0
C289 C 0.30116 0.67301 0.52359 0.0
C290 C 0.33349 0.66746 0.49588 0.0
C291 C 0.31576 0.67857 0.49154 0.0
N292 N 0.25295 0.71943 0.49342 0.0
C293 C 0.2222 0.7385 0.50388 0.0
C294 C 0.21954 0.74553 0.48474 0.0
C295 C 0.23403 0.73921 0.47008 0.0
C296 C 0.25041 0.7263 0.47469 0.0
C297 C 0.23884 0.7256 0.50786 0.0
H298 H 0.26088 0.72204 0.46283 0.0
H299 H 0.23996 0.72067 0.52271 0.0
H300 H 0.28936 0.67472 0.53502 0.0
H301 H 0.31559 0.6844 0.47693 0.0
C302 C 0.2941 0.70253 0.45308 0.0
C303 C 0.23916 0.66342 0.48984 0.0
C304 C 0.30765 0.74393 0.50746 0.0
C305 C 0.25967 0.69734 0.54601 0.0
H306 H 0.24536 0.65193 0.44999 0.0
H307 H 0.27608 0.67288 0.42991 0.0
H308 H 0.32334 0.73524 0.44182 0.0
H309 H 0.33097 0.75753 0.4717 0.0
H310 H 0.30204 0.75382 0.54769 0.0
H311 H 0.27631 0.72803 0.56901 0.0
H312 H 0.22853 0.66613 0.55651 0.0
H313 H 0.21745 0.64749 0.52535 0.0
H314 H 0.31897 0.65501 0.54318 0.0
H315 H 0.34584 0.66558 0.48453 0.0
H316 H 0.21133 0.74266 0.51579 0.0
H317 H 0.23297 0.74441 0.45506 0.0
C318 C 0.78396 0.82733 0.4697 0.0
C319 C 0.78918 0.831 0.44996 0.0
C320 C 0.77457 0.82074 0.44049 0.0
C321 C 0.76136 0.81137 0.45496 0.0
N322 N 0.76628 0.8155 0.47307 0.0
Co323 Co 0.75297 0.80277 0.49817 0.0
N324 N 0.73426 0.78436 0.48437 0.0
C325 C 0.73161 0.78545 0.46512 0.0
C326 C 0.71691 0.77168 0.45984 0.0
C327 C 0.70967 0.76123 0.47673 0.0
C328 C 0.72052 0.76914 0.49143 0.0
N329 N 0.74094 0.78899 0.52329 0.0
C330 C 0.72756 0.77253 0.52672 0.0
C331 C 0.72462 0.76705 0.54646 0.0
C332 C 0.73622 0.78071 0.55581 0.0
C333 C 0.74579 0.79353 0.54133 0.0
N334 N 0.77101 0.82188 0.51195 0.0
C335 C 0.77012 0.82444 0.5313 0.0
C336 C 0.7849 0.83809 0.53663 0.0
C337 C 0.79612 0.84436 0.51972 0.0
C338 C 0.78747 0.83416 0.50493 0.0
N339 N 0.73024 0.82388 0.4991 0.0
C340 C 0.69399 0.84871 0.5 0.0
C341 C 0.70179 0.8408 0.51715 0.0
C342 C 0.71977 0.82871 0.51639 0.0
C343 C 0.70541 0.84491 0.48249 0.0
C344 C 0.72334 0.83279 0.48237 0.0
N345 N 0.77514 0.78174 0.49712 0.0
C346 C 0.80411 0.76451 0.51092 0.0
C347 C 0.80681 0.75203 0.4949 0.0
C348 C 0.79349 0.75478 0.48002 0.0
C349 C 0.77803 0.76971 0.48132 0.0
C350 C 0.7881 0.77903 0.51185 0.0
H351 H 0.76859 0.77135 0.46931 0.0
H352 H 0.7864 0.78792 0.52459 0.0
H353 H 0.72456 0.82318 0.53007 0.0
H354 H 0.73108 0.83074 0.46844 0.0
C355 C 0.74477 0.79789 0.45217 0.0
C356 C 0.79636 0.8352 0.48474 0.0
C357 C 0.71706 0.76187 0.51186 0.0
C358 C 0.75864 0.81054 0.54418 0.0
H359 H 0.80238 0.83989 0.44314 0.0
H360 H 0.77402 0.81971 0.42494 0.0
H361 H 0.71234 0.76919 0.44535 0.0
H362 H 0.69779 0.74911 0.47805 0.0
H363 H 0.71501 0.75454 0.55344 0.0
H364 H 0.73746 0.78128 0.57132 0.0
H365 H 0.78819 0.8418 0.55123 0.0
H366 H 0.80974 0.85446 0.51859 0.0
H367 H 0.69373 0.84333 0.53118 0.0
H368 H 0.70056 0.85122 0.46879 0.0
H369 H 0.81402 0.76277 0.52284 0.0
H370 H 0.79517 0.7456 0.46726 0.0
C371 C 0.49169 0.79915 0.87859 0.0
C372 C 0.47256 0.80447 0.88748 0.0
C373 C 0.4582 0.79078 0.88164 0.0
C374 C 0.46936 0.77788 0.86965 0.0
N375 N 0.49007 0.7821 0.86797 0.0
Co376 Co 0.51191 0.76839 0.85088 0.0
N377 N 0.49038 0.75201 0.83826 0.0
C378 C 0.46951 0.75201 0.84267 0.0
C379 C 0.45861 0.73961 0.83133 0.0
C380 C 0.47335 0.7311 0.81896 0.0
C381 C 0.49255 0.73871 0.82358 0.0
N382 N 0.53383 0.75486 0.83372 0.0
C383 C 0.532 0.74099 0.81973 0.0
C384 C 0.5514 0.73491 0.81192 0.0
C385 C 0.56594 0.74546 0.82112 0.0
C386 C 0.55471 0.75723 0.83407 0.0
N387 N 0.53329 0.78516 0.86336 0.0
C388 C 0.55424 0.78391 0.86032 0.0
C389 C 0.56487 0.79893 0.86909 0.0
C390 C 0.54986 0.81086 0.8778 0.0
C391 C 0.53078 0.80229 0.87401 0.0
N392 N 0.5137 0.745 0.87072 0.0
C393 C 0.51632 0.70521 0.88916 0.0
C394 C 0.53424 0.71732 0.88395 0.0
C395 C 0.53255 0.73712 0.87506 0.0
C396 C 0.49706 0.71435 0.88701 0.0
C397 C 0.49614 0.73419 0.87815 0.0
N398 N 0.51012 0.79105 0.83089 0.0
C399 C 0.52678 0.81468 0.80608 0.0
C400 C 0.50743 0.82041 0.79994 0.0
C401 C 0.48947 0.81202 0.81017 0.0
C402 C 0.49115 0.79759 0.82559 0.0
C403 C 0.52777 0.80001 0.82148 0.0
H404 H 0.47692 0.79157 0.83279 0.0
H405 H 0.54294 0.79575 0.82527 0.0
H406 H 0.54679 0.74532 0.87119 0.0
H407 H 0.48097 0.74004 0.87687 0.0
C408 C 0.46061 0.76408 0.85739 0.0
C409 C 0.51067 0.81168 0.87944 0.0
C410 C 0.51235 0.73279 0.81365 0.0
C411 C 0.56328 0.77083 0.84658 0.0
H412 H 0.46924 0.81749 0.8965 0.0
H413 H 0.44147 0.79109 0.88473 0.0
H414 H 0.4419 0.73714 0.8319 0.0
H415 H 0.47028 0.72051 0.80778 0.0
H416 H 0.55475 0.72385 0.80083 0.0
H417 H 0.58272 0.7446 0.8187 0.0
H418 H 0.58154 0.80179 0.86806 0.0
H419 H 0.55285 0.82484 0.88521 0.0
H420 H 0.54958 0.71122 0.88578 0.0
H421 H 0.48268 0.70602 0.89171 0.0
H422 H 0.5411 0.82081 0.79851 0.0
H423 H 0.47415 0.81632 0.8061 0.0
C424 C 0.53123 0.27723 0.65333 0.0
C425 C 0.55076 0.28208 0.64416 0.0
C426 C 0.56385 0.26673 0.64991 0.0
C427 C 0.55158 0.25333 0.66212 0.0
N428 N 0.53166 0.25931 0.66423 0.0
Co429 Co 0.50877 0.24462 0.68029 0.0
N430 N 0.52847 0.22993 0.69658 0.0
C431 C 0.549 0.22781 0.69178 0.0
C432 C 0.55886 0.2171 0.70592 0.0
C433 C 0.54355 0.21192 0.72036 0.0
C434 C 0.52502 0.21957 0.71414 0.0
N435 N 0.48575 0.2296 0.6961 0.0
C436 C 0.48572 0.21883 0.71346 0.0
C437 C 0.46624 0.20981 0.71866 0.0
C438 C 0.45381 0.21511 0.704 0.0
C439 C 0.46631 0.22695 0.69062 0.0
N440 N 0.48934 0.25977 0.66407 0.0
C441 C 0.46934 0.25444 0.66237 0.0
C442 C 0.45919 0.26925 0.65196 0.0
C443 C 0.47373 0.28477 0.64689 0.0
C444 C 0.4922 0.27848 0.65425 0.0
N445 N 0.51007 0.22188 0.66236 0.0
C446 C 0.50969 0.1889 0.63717 0.0
C447 C 0.51095 0.20959 0.62984 0.0
C448 C 0.51113 0.22582 0.64266 0.0
C449 C 0.5089 0.18523 0.65739 0.0
C450 C 0.5092 0.2018 0.66962 0.0
N451 N 0.50716 0.26723 0.69806 0.0
C452 C 0.48615 0.29103 0.71645 0.0
C453 C 0.50397 0.30212 0.72072 0.0
C454 C 0.52351 0.29498 0.71359 0.0
C455 C 0.52477 0.2773 0.70265 0.0
C456 C 0.48807 0.27395 0.70492 0.0
H457 H 0.53996 0.27205 0.69753 0.0
H458 H 0.47398 0.26637 0.70135 0.0
H459 H 0.51193 0.24158 0.63665 0.0
H460 H 0.50834 0.19825 0.68505 0.0
C461 C 0.55878 0.2383 0.67517 0.0
C462 C 0.51253 0.28974 0.65137 0.0
C463 C 0.50427 0.21499 0.72426 0.0
C464 C 0.45968 0.23851 0.67457 0.0
H465 H 0.55512 0.2955 0.63466 0.0
H466 H 0.58053 0.26617 0.64657 0.0
H467 H 0.57531 0.21389 0.70598 0.0
H468 H 0.5458 0.20322 0.73378 0.0
H469 H 0.46158 0.2001 0.73151 0.0
H470 H 0.43746 0.21124 0.70345 0.0
H471 H 0.44277 0.26953 0.64959 0.0
H472 H 0.47061 0.29915 0.63917 0.0
H473 H 0.51184 0.21325 0.61434 0.0
H474 H 0.50751 0.16963 0.66387 0.0
H475 H 0.4707 0.29531 0.72199 0.0
H476 H 0.53782 0.30303 0.71615 0.0
C477 C 0.85145 0.48953 0.76215 0.0
C478 C 0.86108 0.47112 0.767 0.0
C479 C 0.85229 0.45607 0.75683 0.0
C480 C 0.83797 0.46613 0.74629 0.0
N481 N 0.83738 0.48675 0.74884 0.0
Co482 Co 0.81886 0.50724 0.73642 0.0
N483 N 0.80236 0.4846 0.72541 0.0
C484 C 0.80525 0.46395 0.72778 0.0
C485 C 0.79122 0.45214 0.71895 0.0
C486 C 0.77856 0.46607 0.71046 0.0
C487 C 0.78571 0.48566 0.71456 0.0
N488 N 0.80096 0.52785 0.72328 0.0
C489 C 0.78516 0.52488 0.71177 0.0
C490 C 0.77762 0.54359 0.70475 0.0
C491 C 0.78916 0.55891 0.71196 0.0
C492 C 0.80305 0.54874 0.7229 0.0
N493 N 0.83458 0.52974 0.74854 0.0
C494 C 0.83159 0.55039 0.74643 0.0
C495 C 0.84285 0.56193 0.7582 0.0
C496 C 0.85331 0.5478 0.76886 0.0
C497 C 0.84798 0.52835 0.76278 0.0
N498 N 0.83862 0.5089 0.71245 0.0
C499 C 0.86191 0.51221 0.67571 0.0
C500 C 0.85925 0.52935 0.68731 0.0
C501 C 0.84773 0.52737 0.70542 0.0
C502 C 0.85354 0.49318 0.68337 0.0
C503 C 0.84231 0.49185 0.7016 0.0
N504 N 0.79905 0.5056 0.76001 0.0
C505 C 0.77416 0.52181 0.7824 0.0
C506 C 0.77046 0.50309 0.79322 0.0
C507 C 0.78148 0.48571 0.78722 0.0
C508 C 0.79547 0.48724 0.77063 0.0
C509 C 0.78855 0.52276 0.76608 0.0
H510 H 0.80313 0.47334 0.76656 0.0
H511 H 0.79093 0.53753 0.75855 0.0
H512 H 0.84621 0.54115 0.71326 0.0
H513 H 0.83643 0.47684 0.70632 0.0
C514 C 0.82235 0.45628 0.73695 0.0
C515 C 0.85508 0.5089 0.77156 0.0
C516 C 0.77676 0.50476 0.7071 0.0
C517 C 0.81718 0.55832 0.73408 0.0
H518 H 0.87262 0.46871 0.77743 0.0
H519 H 0.85506 0.43958 0.75797 0.0
H520 H 0.79057 0.43542 0.71836 0.0
H521 H 0.76579 0.46229 0.70189 0.0
H522 H 0.76501 0.54592 0.69543 0.0
H523 H 0.78745 0.57548 0.70972 0.0
H524 H 0.84282 0.57859 0.75945 0.0
H525 H 0.86319 0.5515 0.78021 0.0
H526 H 0.86593 0.54437 0.68246 0.0
H527 H 0.855 0.47932 0.67514 0.0
H528 H 0.76613 0.53573 0.78662 0.0
H529 H 0.77897 0.47083 0.79504 0.0
C530 C 0.17359 0.02597 0.75858 0.0
C531 C 0.16424 0.04457 0.76317 0.0
C532 C 0.16563 0.05699 0.74636 0.0
C533 C 0.17563 0.04532 0.73245 0.0
N534 N 0.18065 0.02648 0.73957 0.0
Co535 Co 0.19417 0.00468 0.72422 0.0
N536 N 0.20647 0.02524 0.70424 0.0
C537 C 0.19787 0.04362 0.70011 0.0
C538 C 0.20589 0.05259 0.6827 0.0
C539 C 0.22048 0.03897 0.67556 0.0
C540 C 0.22141 0.02281 0.68952 0.0
N541 N 0.20731 0.98276 0.70866 0.0
C542 C 0.22218 0.98437 0.69361 0.0
C543 C 0.22307 0.96598 0.68385 0.0
C544 C 0.20932 0.95219 0.69399 0.0
C545 C 0.20016 0.96308 0.70888 0.0
N546 N 0.18188 0.98428 0.7443 0.0
C547 C 0.17903 0.96392 0.74189 0.0
C548 C 0.17182 0.95334 0.75885 0.0
C549 C 0.16987 0.96805 0.77263 0.0
C550 C 0.17563 0.98702 0.76324 0.0
N551 N 0.16935 1.00234 0.70973 0.0
C552 C 0.1345 0.99802 0.68857 0.0
C553 C 0.13212 0.9986 0.70884 0.0
C554 C 0.14981 1.00103 0.71918 0.0
C555 C 0.15443 0.99972 0.67911 0.0
C556 C 0.1716 1.00166 0.6899 0.0
N557 N 0.21869 0.00688 0.73862 0.0
C558 C 0.24216 0.9904 0.75951 0.0
C559 C 0.24804 0.00976 0.76581 0.0
C560 C 0.24024 0.02771 0.75705 0.0
C561 C 0.2257 0.02592 0.74329 0.0
C562 C 0.22744 0.9893 0.74586 0.0
H563 H 0.21925 0.03989 0.7372 0.0
H564 H 0.22222 0.97419 0.74201 0.0
H565 H 0.14773 1.00163 0.73481 0.0
H566 H 0.18673 1.00237 0.68209 0.0
C567 C 0.18323 0.05222 0.71356 0.0
C568 C 0.17385 0.00753 0.772 0.0
C569 C 0.23387 0.00375 0.68727 0.0
C570 C 0.18685 0.95501 0.72464 0.0
H571 H 0.15688 0.04863 0.77709 0.0
H572 H 0.16045 0.0728 0.74466 0.0
H573 H 0.20129 0.06698 0.67573 0.0
H574 H 0.2282 0.04025 0.66108 0.0
H575 H 0.23235 0.96289 0.67057 0.0
H576 H 0.20649 0.93615 0.69092 0.0
H577 H 0.16932 0.93677 0.76119 0.0
H578 H 0.16497 0.96492 0.78782 0.0
H579 H 0.11682 0.99717 0.71657 0.0
H580 H 0.15676 0.99903 0.66343 0.0
H581 H 0.2479 0.97618 0.76594 0.0
H582 H 0.24479 0.04296 0.7613 0.0
C583 C 0.76954 0.18207 0.96825 0.0
C584 C 0.76923 0.17626 0.94918 0.0
C585 C 0.78451 0.18768 0.93858 0.0
C586 C 0.7932 0.1998 0.95171 0.0
N587 N 0.78468 0.1965 0.97015 0.0
Co588 Co 0.79136 0.21179 0.99361 0.0
N589 N 0.81056 0.23167 0.9774 0.0
C590 C 0.81542 0.23149 0.95796 0.0
C591 C 0.82937 0.24675 0.95094 0.0
C592 C 0.83368 0.25738 0.96681 0.0
C593 C 0.82194 0.24802 0.98268 0.0
N594 N 0.79804 0.22693 0.01712 0.0
C595 C 0.81046 0.24383 0.01866 0.0
C596 C 0.81044 0.24958 0.03782 0.0
C597 C 0.7979 0.23562 0.04879 0.0
C598 C 0.79086 0.22228 0.0358 0.0
N599 N 0.77185 0.19216 0.0097 0.0
C600 C 0.76785 0.19134 0.02925 0.0
C601 C 0.75277 0.17698 0.03595 0.0
C602 C 0.74637 0.16845 0.01966 0.0
C603 C 0.75797 0.17821 0.00395 0.0
N604 N 0.81536 0.19295 0.99759 0.0
C605 C 0.85134 0.16947 0.00391 0.0
C606 C 0.8356 0.17157 0.01879 0.0
C607 C 0.81799 0.18337 0.01538 0.0
C608 C 0.84842 0.1787 0.98568 0.0
C609 C 0.83042 0.18998 0.98281 0.0
N610 N 0.7677 0.23062 0.98964 0.0
C611 C 0.73722 0.2488 0.00227 0.0
C612 C 0.73422 0.25756 0.98379 0.0
C613 C 0.74821 0.25238 0.9683 0.0
C614 C 0.76461 0.23897 0.9715 0.0
C615 C 0.75395 0.23555 0.00486 0.0
H616 H 0.77462 0.23553 0.95905 0.0
H617 H 0.75555 0.2295 0.01931 0.0
H618 H 0.80694 0.18472 0.02751 0.0
H619 H 0.82927 0.1963 0.96849 0.0
C620 C 0.80712 0.21635 0.94679 0.0
C621 C 0.75424 0.17476 0.98382 0.0
C622 C 0.82254 0.2549 0.00251 0.0
C623 C 0.77699 0.20569 0.04064 0.0
H624 H 0.75854 0.1655 0.9434 0.0
H625 H 0.78804 0.18797 0.92297 0.0
H626 H 0.83587 0.24964 0.9361 0.0
H627 H 0.84449 0.27039 0.96668 0.0
H628 H 0.81859 0.26256 0.04333 0.0
H629 H 0.79419 0.23534 0.06437 0.0
H630 H 0.7465 0.17379 0.05082 0.0
H631 H 0.73405 0.15692 0.01928 0.0
H632 H 0.83713 0.16466 0.03319 0.0
H633 H 0.85998 0.17716 0.97357 0.0
H634 H 0.72696 0.25245 0.0148 0.0
H635 H 0.74642 0.25847 0.95366 0.0
C636 C 0.11832 0.04093 0.07163 0.0
N637 N 0.09589 0.04206 0.01477 0.0
C638 C 0.11615 0.04553 0.00799 0.0
C639 C 0.12287 0.04192 0.98868 0.0
C640 C 0.10866 0.03481 0.97588 0.0
C641 C 0.08792 0.03086 0.98342 0.0
C642 C 0.08187 0.03459 0.00293 0.0
Zn643 Zn 0.08675 0.05113 0.04275 0.0
C644 C 0.06322 0.0178 0.06796 0.0
N645 N 0.0694 0.07251 0.10011 0.0
C646 C 0.08445 0.08291 0.10874 0.0
C647 C 0.04946 0.07122 0.10835 0.0
C648 C 0.04394 0.08121 0.1256 0.0
C649 C 0.05904 0.09279 0.13432 0.0
C650 C 0.0796 0.09318 0.12584 0.0
Zn651 Zn 0.07745 0.06154 0.07287 0.0
O652 O 0.11559 0.03982 0.05359 0.0
C653 C 0.10258 0.09399 0.04815 0.0
O654 O 0.10455 0.04918 0.0828 0.0
H655 H 0.03767 0.06302 0.10122 0.0
H656 H 0.12711 0.05164 0.01745 0.0
H657 H 0.10021 0.08382 0.10204 0.0
O658 O 0.10155 0.08045 0.03545 0.0
O659 O 0.09361 0.09025 0.06504 0.0
H660 H 0.0658 0.03204 0.00845 0.0
O661 O 0.04997 0.07386 0.06257 0.0
O662 O 0.05759 0.06297 0.03322 0.0
O663 O 0.06239 0.0321 0.08016 0.0
O664 O 0.07202 0.02159 0.05091 0.0
C665 C 0.04521 0.07225 0.04517 0.0
H666 H 0.13909 0.04484 0.98383 0.0
H667 H 0.07628 0.02558 0.9742 0.0
H668 H 0.02787 0.08058 0.13158 0.0
H669 H 0.09181 0.10163 0.1322 0.0
C670 C 0.93301 0.47769 0.0549 0.0
N671 N 0.956 0.48683 0.99544 0.0
C672 C 0.93554 0.48347 0.99268 0.0
C673 C 0.92796 0.48765 0.97455 0.0
C674 C 0.94156 0.49484 0.95866 0.0
C675 C 0.96253 0.49879 0.96202 0.0
C676 C 0.96942 0.49474 0.9806 0.0
Zn677 Zn 0.96612 0.47585 0.02177 0.0
C678 C 0.98603 0.5075 0.04452 0.0
N679 N 0.98512 0.44935 0.07542 0.0
C680 C 0.97123 0.43642 0.086 0.0
C681 C 0.00439 0.45314 0.08146 0.0
C682 C 0.01039 0.44343 0.09863 0.0
C683 C 0.99643 0.42971 0.10962 0.0
C684 C 0.97654 0.42649 0.10319 0.0
Zn685 Zn 0.97625 0.4619 0.04969 0.0
O686 O 0.93642 0.4833 0.03698 0.0
C687 C 0.9553 0.43063 0.02743 0.0
O688 O 0.94718 0.46839 0.06341 0.0
H689 H 0.01522 0.46345 0.07281 0.0
H690 H 0.92507 0.47678 0.00437 0.0
H691 H 0.956 0.43359 0.08099 0.0
O692 O 0.95387 0.44646 0.01606 0.0
O693 O 0.96478 0.43229 0.04276 0.0
H694 H 0.98567 0.49718 0.98292 0.0
O695 O 0.00541 0.45569 0.03617 0.0
O696 O 0.99643 0.46778 0.00778 0.0
O697 O 0.98714 0.4917 0.05612 0.0
O698 O 0.97822 0.50549 0.02828 0.0
C699 C 0.00996 0.45963 0.01818 0.0
H700 H 0.91157 0.48483 0.97301 0.0
H701 H 0.97374 0.50418 0.9503 0.0
H702 H 0.02591 0.44628 0.10301 0.0
H703 H 0.96511 0.41639 0.11138 0.0
C704 C 0.03104 0.97296 0.42134 0.0
N705 N 0.04091 0.92074 0.38798 0.0
C706 C 0.02224 0.92466 0.38073 0.0
C707 C 0.01876 0.91949 0.36188 0.0
C708 C 0.03476 0.91053 0.35031 0.0
C709 C 0.05403 0.90703 0.35794 0.0
C710 C 0.05675 0.91216 0.377 0.0
Zn711 Zn 0.0449 0.92879 0.41556 0.0
C712 C 0.08615 0.94901 0.41778 0.0
N713 N 0.052 0.94762 0.47303 0.0
C714 C 0.0367 0.95812 0.48297 0.0
C715 C 0.06945 0.94165 0.48153 0.0
C716 C 0.07171 0.94562 0.50095 0.0
C717 C 0.05606 0.95617 0.51158 0.0
C718 C 0.03853 0.96277 0.50234 0.0
Zn719 Zn 0.04826 0.93928 0.44529 0.0
O720 O 0.0333 0.95926 0.40869 0.0
C721 C 0.00648 0.91841 0.44214 0.0
O722 O 0.03541 0.96851 0.43864 0.0
H723 H 0.08151 0.9335 0.47335 0.0
H724 H 0.00998 0.93176 0.38961 0.0
H725 H 0.02288 0.96258 0.47598 0.0
O726 O 0.01434 0.91749 0.42475 0.0
O727 O 0.01729 0.92664 0.45455 0.0
H728 H 0.07147 0.90919 0.38305 0.0
O729 O 0.0617 0.91006 0.45156 0.0
O730 O 0.05775 0.89892 0.42256 0.0
O731 O 0.07916 0.95178 0.43526 0.0
O732 O 0.07493 0.93966 0.40658 0.0
C733 C 0.06434 0.89598 0.43938 0.0
H734 H 0.00373 0.92246 0.35639 0.0
H735 H 0.06661 0.89989 0.34945 0.0
H736 H 0.08557 0.94052 0.5076 0.0
H737 H 0.02615 0.97091 0.51017 0.0
C738 C 0.93908 0.58297 0.45029 0.0
N739 N 1.00051 0.56015 0.44614 0.0
C740 C 0.00786 0.57869 0.43797 0.0
C741 C 0.0278 0.58588 0.44115 0.0
C742 C 0.04023 0.5741 0.45314 0.0
C743 C 0.03223 0.55513 0.46159 0.0
C744 C 0.01229 0.54833 0.45774 0.0
Zn745 Zn 0.971 0.55059 0.44078 0.0
C746 C 0.94775 0.53006 0.47589 0.0
N747 N 0.90974 0.53167 0.42947 0.0
C748 C 0.89689 0.54591 0.42186 0.0
C749 C 0.90339 0.5116 0.43337 0.0
C750 C 0.88363 0.50503 0.42898 0.0
C751 C 0.87022 0.51938 0.4209 0.0
C752 C 0.87689 0.5401 0.41759 0.0
Zn753 Zn 0.93912 0.54071 0.43473 0.0
O754 O 0.95875 0.58051 0.44927 0.0
C755 C 0.96156 0.56272 0.39986 0.0
O756 O 0.92751 0.56847 0.4452 0.0
H757 H 0.9138 0.50059 0.43958 0.0
H758 H 0.99821 0.58801 0.42901 0.0
H759 H 0.90228 0.56174 0.41873 0.0
O760 O 0.97627 0.56219 0.41113 0.0
O761 O 0.94386 0.55494 0.406 0.0
H762 H 0.00619 0.53363 0.46407 0.0
O763 O 0.95091 0.5126 0.42443 0.0
O764 O 0.98233 0.52014 0.43238 0.0
O765 O 0.93444 0.52731 0.46354 0.0
O766 O 0.9649 0.53938 0.47036 0.0
C767 C 0.96974 0.50741 0.42554 0.0
H768 H 0.03331 0.60072 0.43459 0.0
H769 H 0.0414 0.54557 0.47086 0.0
H770 H 0.87896 0.4889 0.43163 0.0
H771 H 0.86707 0.55148 0.41102 0.0
C772 C 0.41664 0.96943 0.55847 0.0
N773 N 0.44169 0.97541 0.49907 0.0
C774 C 0.42173 0.97091 0.49523 0.0
C775 C 0.41489 0.97528 0.47677 0.0
C776 C 0.42867 0.98433 0.46184 0.0
C777 C 0.44914 0.98909 0.46625 0.0
C778 C 0.45533 0.98452 0.48502 0.0
Zn779 Zn 0.45078 0.9655 0.52622 0.0
C780 C 0.47053 0.99802 0.54784 0.0
N781 N 0.46756 0.94167 0.5816 0.0
C782 C 0.45356 0.92936 0.59275 0.0
C783 C 0.48653 0.94641 0.5878 0.0
C784 C 0.49213 0.93841 0.60577 0.0
C785 C 0.47804 0.92547 0.61749 0.0
C786 C 0.45845 0.92116 0.61082 0.0
Zn787 Zn 0.45957 0.95258 0.555 0.0
O788 O 0.42077 0.97481 0.54052 0.0
C789 C 0.43893 0.92045 0.53376 0.0
O790 O 0.43017 0.95977 0.56751 0.0
H791 H 0.49743 0.95622 0.5787 0.0
H792 H 0.41115 0.96334 0.50638 0.0
H793 H 0.43854 0.9258 0.5876 0.0
O794 O 0.4379 0.9359 0.52182 0.0
O795 O 0.4481 0.92261 0.5492 0.0
H796 H 0.47116 0.98789 0.48824 0.0
O797 O 0.48895 0.94533 0.54273 0.0
O798 O 0.48148 0.95553 0.51334 0.0
O799 O 0.47065 0.98282 0.56027 0.0
O800 O 0.46344 0.99527 0.5314 0.0
C801 C 0.4944 0.94778 0.52472 0.0
H802 H 0.3991 0.97096 0.47409 0.0
H803 H 0.46029 0.99625 0.45531 0.0
H804 H 0.50747 0.94198 0.61024 0.0
H805 H 0.44694 0.91159 0.61949 0.0
C806 C 0.59917 0.53533 0.59905 0.0
N807 N 0.57564 0.53136 0.54353 0.0
C808 C 0.59602 0.53432 0.53697 0.0
C809 C 0.60293 0.52988 0.51797 0.0
C810 C 0.58877 0.5226 0.50526 0.0
C811 C 0.56792 0.51905 0.51258 0.0
C812 C 0.56167 0.52354 0.53184 0.0
Zn813 Zn 0.5666 0.54204 0.57063 0.0
C814 C 0.54472 0.50967 0.59778 0.0
N815 N 0.55002 0.56766 0.62624 0.0
C816 C 0.56509 0.5796 0.63323 0.0
C817 C 0.53055 0.56611 0.63553 0.0
C818 C 0.52551 0.57737 0.65214 0.0
C819 C 0.5406 0.5905 0.65909 0.0
C820 C 0.56071 0.59116 0.64959 0.0
Zn821 Zn 0.55762 0.55486 0.59972 0.0
O822 O 0.59538 0.53152 0.58172 0.0
C823 C 0.58135 0.58615 0.57238 0.0
O824 O 0.58597 0.54515 0.60953 0.0
H825 H 0.51872 0.55667 0.6297 0.0
H826 H 0.60692 0.54078 0.54629 0.0
H827 H 0.58048 0.58074 0.62572 0.0
O828 O 0.58145 0.5708 0.56154 0.0
O829 O 0.57177 0.58433 0.58923 0.0
H830 H 0.54551 0.52141 0.53723 0.0
O831 O 0.52895 0.56461 0.58955 0.0
O832 O 0.53741 0.55315 0.56057 0.0
O833 O 0.54454 0.5245 0.60948 0.0
O834 O 0.55211 0.51299 0.58021 0.0
C835 C 0.5245 0.56228 0.57215 0.0
H836 H 0.61923 0.53248 0.51322 0.0
H837 H 0.55636 0.51361 0.50334 0.0
H838 H 0.50978 0.57646 0.65899 0.0
H839 H 0.57291 0.60082 0.6546 0.0
C840 C 0.54304 0.48931 0.94317 0.0
N841 N 0.54729 0.43782 0.90853 0.0
C842 C 0.52754 0.44209 0.9041 0.0
C843 C 0.52035 0.43572 0.88682 0.0
C844 C 0.53362 0.42485 0.87396 0.0
C845 C 0.55414 0.42115 0.87862 0.0
C846 C 0.5607 0.42781 0.89612 0.0
Zn847 Zn 0.5557 0.44588 0.93483 0.0
C848 C 0.59724 0.46576 0.93228 0.0
N849 N 0.57095 0.46284 0.99064 0.0
C850 C 0.55675 0.4727 0.00245 0.0
C851 C 0.59022 0.45841 0.99627 0.0
C852 C 0.59588 0.46397 0.01445 0.0
C853 C 0.58155 0.47418 0.02695 0.0
C854 C 0.56175 0.47852 0.02076 0.0
Zn855 Zn 0.56324 0.45459 0.96398 0.0
O856 O 0.54149 0.47559 0.93069 0.0
C857 C 0.52099 0.43416 0.96507 0.0
O858 O 0.55147 0.48457 0.95875 0.0
H859 H 0.60123 0.4505 0.98667 0.0
H860 H 0.51713 0.45002 0.91423 0.0
H861 H 0.54154 0.47612 0.99762 0.0
O862 O 0.52757 0.43282 0.9474 0.0
O863 O 0.53248 0.44332 0.97638 0.0
H864 H 0.57636 0.42467 0.89995 0.0
O865 O 0.57574 0.42493 0.96898 0.0
O866 O 0.57102 0.41652 0.93924 0.0
O867 O 0.59363 0.46549 0.95073 0.0
O868 O 0.58349 0.45877 0.92202 0.0
C869 C 0.57807 0.41206 0.95563 0.0
H870 H 0.50434 0.43863 0.88391 0.0
H871 H 0.56492 0.41299 0.86895 0.0
H872 H 0.61121 0.46007 0.01875 0.0
H873 H 0.55033 0.48656 0.02987 0.0
C874 C 0.45021 0.10165 0.95006 0.0
N875 N 0.51098 0.07767 0.94978 0.0
C876 C 0.51757 0.09736 0.94437 0.0
C877 C 0.53732 0.10435 0.94834 0.0
C878 C 0.55059 0.09095 0.95791 0.0
C879 C 0.54341 0.07068 0.96337 0.0
C880 C 0.52342 0.06435 0.9592 0.0
Zn881 Zn 0.48201 0.06856 0.94264 0.0
C882 C 0.45577 0.04817 0.97596 0.0
N883 N 0.42217 0.05114 0.92641 0.0
C884 C 0.41027 0.06495 0.91698 0.0
C885 C 0.41582 0.03105 0.93014 0.0
C886 C 0.39731 0.02387 0.9234 0.0
C887 C 0.38512 0.03765 0.91312 0.0
C888 C 0.39147 0.05852 0.9103 0.0
Zn889 Zn 0.45075 0.06007 0.93377 0.0
O890 O 0.46937 0.09784 0.95169 0.0
C891 C 0.47554 0.08255 0.90081 0.0
O892 O 0.43887 0.08825 0.94286 0.0
H893 H 0.42544 0.02039 0.93783 0.0
H894 H 0.50754 0.10767 0.93677 0.0
H895 H 0.41568 0.08081 0.91408 0.0
O896 O 0.48907 0.08207 0.91334 0.0
O897 O 0.45788 0.07383 0.90532 0.0
H898 H 0.51788 0.04876 0.96338 0.0
O899 O 0.46284 0.03155 0.92452 0.0
O900 O 0.49383 0.03858 0.93376 0.0
O901 O 0.44335 0.04733 0.96255 0.0
O902 O 0.47405 0.05576 0.9718 0.0
C903 C 0.48147 0.02611 0.92635 0.0
H904 H 0.54231 0.11998 0.94358 0.0
H905 H 0.55306 0.0599 0.97092 0.0
H906 H 0.39281 0.00766 0.92578 0.0
H907 H 0.38254 0.06947 0.90214 0.0
H908 H 0.04035 0.16211 0.35537 0.0
H909 H 0.04047 0.12484 0.36377 0.0
H910 H 0.99521 0.13324 0.41208 0.0
H911 H 0.99489 0.17065 0.40364 0.0
H912 H 0.03075 0.10736 0.42045 0.0
H913 H 0.97829 0.11453 0.37408 0.0
H914 H 0.96591 0.12647 0.34264 0.0
H915 H 0.01259 0.0905 0.31242 0.0
H916 H 0.02553 0.07864 0.34368 0.0
H917 H 0.0116 1.00146 0.4442 0.0
H918 H 0.00633 0.03816 0.43598 0.0
H919 H 0.03463 0.03034 0.37803 0.0
H920 H 0.03863 0.99334 0.38588 0.0
H921 H 0.0067 0.05667 0.37477 0.0
H922 H 0.06146 0.05099 0.41727 0.0
H923 H 0.07841 0.04002 0.44677 0.0
H924 H 0.03368 0.07371 0.48184 0.0
H925 H 0.01628 0.08465 0.45255 0.0
C926 C 0.03056 0.15606 0.36791 0.0
C927 C 0.01766 0.16934 0.3789 0.0
C928 C 0.03055 0.13475 0.3726 0.0
C929 C 0.01777 0.12625 0.38848 0.0
C930 C 0.00517 0.13948 0.39975 0.0
C931 C 0.00494 0.16081 0.39488 0.0
C932 C 0.01752 0.10351 0.39319 0.0
C933 C 0.02517 0.09624 0.41065 0.0
C934 C 0.01103 0.08903 0.38001 0.0
C935 C 0.00299 0.09584 0.36122 0.0
C936 C 0.98602 0.10929 0.36073 0.0
C937 C 0.9789 0.11604 0.34293 0.0
C938 C 0.98851 0.10931 0.32553 0.0
C939 C 0.00521 0.09575 0.3259 0.0
C940 C 0.01243 0.08899 0.34365 0.0
C941 C 0.01637 0.00753 0.42961 0.0
C942 C 0.02558 0.99454 0.4157 0.0
C943 C 0.01356 0.02859 0.42496 0.0
C944 C 0.02066 0.03735 0.40653 0.0
C945 C 0.02909 0.02414 0.39238 0.0
C946 C 0.03136 1.00294 0.39687 0.0
C947 C 0.01993 0.06027 0.40219 0.0
C948 C 0.01217 0.06766 0.38473 0.0
C949 C 0.02695 0.07489 0.41511 0.0
C950 C 0.03744 0.06845 0.43275 0.0
C951 C 0.05516 0.05595 0.43129 0.0
C952 C 0.06485 0.04975 0.44797 0.0
C953 C 0.05709 0.05612 0.46617 0.0
C954 C 0.03965 0.06876 0.46773 0.0
C955 C 0.02987 0.07498 0.45109 0.0
H956 H 0.06462 0.0513 0.47907 0.0
H957 H 0.98299 0.11457 0.31177 0.0
H958 H 0.00279 0.311 0.40358 0.0
H959 H 0.99848 0.34665 0.41413 0.0
H960 H 0.01009 0.36991 0.35459 0.0
H961 H 0.01481 0.33423 0.3442 0.0
H962 H 0.02842 0.39502 0.3776 0.0
H963 H 0.96046 0.36437 0.3768 0.0
H964 H 0.93282 0.33789 0.3851 0.0
H965 H 0.93413 0.34989 0.44567 0.0
H966 H 0.96207 0.37619 0.43775 0.0
H967 H 0.94739 0.48015 0.40609 0.0
H968 H 0.95667 0.44554 0.39638 0.0
H969 H 0.01574 0.4518 0.42117 0.0
H970 H 0.00666 0.48703 0.43057 0.0
H971 H 0.96278 0.41181 0.41572 0.0
H972 H 0.05174 0.42077 0.39755 0.0
H973 H 0.07772 0.44779 0.38554 0.0
H974 H 0.03082 0.48094 0.35657 0.0
H975 H 0.00465 0.454 0.3682 0.0
C976 C 0.00453 0.3238 0.39284 0.0
C977 C 0.00896 0.31998 0.3731 0.0
C978 C 1.00202 0.34416 0.39882 0.0
C979 C 0.00368 0.3611 0.38515 0.0
C980 C 0.00873 0.35722 0.36546 0.0
C981 C 0.01133 0.33685 0.3595 0.0
C982 C 0.99931 0.38272 0.39123 0.0
C983 C 0.0141 0.39866 0.38602 0.0
C984 C 0.98048 0.38772 0.4019 0.0
C985 C 0.9635 0.3721 0.4067 0.0
C986 C 0.95495 0.36126 0.3919 0.0
C987 C 0.93923 0.34629 0.39653 0.0
C988 C 0.93175 0.34218 0.4159 0.0
C989 C 0.93996 0.35307 0.43067 0.0
C990 C 0.95574 0.36801 0.42612 0.0
C991 C 0.96245 0.47431 0.40943 0.0
C992 C 0.97628 0.48651 0.41914 0.0
C993 C 0.96771 0.45436 0.4039 0.0
C994 C 0.98694 0.44585 0.40793 0.0
C995 C 1.0009 0.458 0.41759 0.0
C996 C 0.99568 0.47816 0.42303 0.0
C997 C 0.99193 0.42421 0.40221 0.0
C998 C 0.97721 0.4082 0.40748 0.0
C999 C 0.01057 0.4193 0.39115 0.0
C1000 C 0.02621 0.43549 0.38394 0.0
C1001 C 0.047 0.43381 0.38858 0.0
C1002 C 0.06176 0.44911 0.38184 0.0
C1003 C 0.05591 0.46611 0.37036 0.0
C1004 C 0.03531 0.46781 0.36553 0.0
C1005 C 0.02051 0.45254 0.37221 0.0
H1006 H 0.06735 0.47794 0.36518 0.0
H1007 H 0.91957 0.33058 0.41946 0.0
H1008 H 0.04537 0.83346 0.14749 0.0
H1009 H 0.04988 0.86995 0.1363 0.0
H1010 H 0.01655 0.85802 0.08611 0.0
H1011 H 0.01177 0.82144 0.09738 0.0
H1012 H 0.05564 0.8822 0.07841 0.0
H1013 H 0.99158 0.88119 0.12053 0.0
H1014 H 0.97059 0.87304 0.15147 0.0
H1015 H 0.01191 0.91059 0.18161 0.0
H1016 H 0.03331 0.91874 0.15089 0.0
H1017 H 0.0501 0.98711 0.0453 0.0
H1018 H 0.04117 0.951 0.05529 0.0
H1019 H 0.05302 0.96337 0.11439 0.0
H1020 H 0.0605 0.99972 0.10464 0.0
H1021 H 0.02367 0.93807 0.11711 0.0
H1022 H 0.08904 0.9379 0.07937 0.0
H1023 H 0.11415 0.94522 0.05093 0.0
H1024 H 0.07647 0.90943 0.01567 0.0
H1025 H 0.05098 0.90212 0.04386 0.0
C1026 C 0.03913 0.83856 0.13399 0.0
C1027 C 0.02827 0.82451 0.12328 0.0
C1028 C 0.04162 0.85945 0.12767 0.0
C1029 C 0.0335 0.86677 0.11039 0.0
C1030 C 0.02294 0.85274 0.09949 0.0
C1031 C 0.02014 0.83187 0.10598 0.0
C1032 C 0.03597 0.88909 0.10383 0.0
C1033 C 0.04839 0.89445 0.08667 0.0
C1034 C 0.0272 0.9051 0.11502 0.0
C1035 C 0.01413 0.90045 0.13343 0.0
C1036 C 0.99627 0.8876 0.13377 0.0
C1037 C 0.98429 0.883 0.15127 0.0
C1038 C 0.98994 0.89127 0.16849 0.0
C1039 C 0.00756 0.90419 0.16826 0.0
C1040 C 0.0196 0.90883 0.1508 0.0
C1041 C 0.05052 0.98215 0.06046 0.0
C1042 C 0.05601 0.99631 0.07416 0.0
C1043 C 0.04563 0.96139 0.06617 0.0
C1044 C 0.04693 0.95404 0.08557 0.0
C1045 C 0.05187 0.9684 0.09933 0.0
C1046 C 0.05617 0.98927 0.09373 0.0
C1047 C 0.04351 0.93146 0.09154 0.0
C1048 C 0.03091 0.92597 0.10867 0.0
C1049 C 0.05271 0.91533 0.08064 0.0
C1050 C 0.06799 0.91966 0.06367 0.0
C1051 C 0.08604 0.93171 0.06552 0.0
C1052 C 0.10035 0.93585 0.04945 0.0
C1053 C 0.09687 0.92785 0.03149 0.0
C1054 C 0.07911 0.91565 0.02958 0.0
C1055 C 0.06474 0.91149 0.0456 0.0
H1056 H 0.10797 0.93107 0.01907 0.0
H1057 H 0.98064 0.88774 0.18201 0.0
H1058 H 0.0105 0.69808 0.09367 0.0
H1059 H 0.00891 0.66627 0.07551 0.0
H1060 H 0.02015 0.62973 0.12744 0.0
H1061 H 0.02157 0.66152 0.14557 0.0
H1062 H 0.04249 0.61615 0.09419 0.0
H1063 H 0.97218 0.63472 0.11512 0.0
H1064 H 0.94256 0.65848 0.11778 0.0
H1065 H 0.94169 0.66233 0.05558 0.0
H1066 H 0.97161 0.63889 0.05254 0.0
H1067 H 0.00298 0.51659 0.07819 0.0
H1068 H 0.0112 0.55065 0.08962 0.0
H1069 H 0.99246 0.57948 0.0363 0.0
H1070 H 0.98376 0.54528 0.02483 0.0
H1071 H 0.97574 0.59875 0.06686 0.0
H1072 H 0.04413 0.57776 0.04582 0.0
H1073 H 0.07413 0.55448 0.04301 0.0
H1074 H 0.07907 0.55537 0.10463 0.0
H1075 H 0.04889 0.57842 0.10787 0.0
C1076 C 0.01273 0.68321 0.10108 0.0
C1077 C 0.0159 0.68206 0.12098 0.0
C1078 C 0.01184 0.66511 0.09076 0.0
C1079 C 0.01423 0.64563 0.10019 0.0
C1080 C 0.01827 0.6446 0.1199 0.0
C1081 C 0.01902 0.66268 0.13024 0.0
C1082 C 0.01141 0.62624 0.08986 0.0
C1083 C 0.02787 0.61225 0.08831 0.0
C1084 C 0.9925 0.62144 0.08175 0.0
C1085 C 0.97429 0.63524 0.08359 0.0
C1086 C 0.96578 0.64076 0.102 0.0
C1087 C 0.94893 0.65415 0.10358 0.0
C1088 C 0.94028 0.66195 0.08686 0.0
C1089 C 0.94843 0.65631 0.06852 0.0
C1090 C 0.96534 0.64297 0.06686 0.0
C1091 C 1.00078 0.53012 0.06876 0.0
C1092 C 0.99269 0.52817 0.05057 0.0
C1093 C 0.0056 0.54963 0.0753 0.0
C1094 C 0.00268 0.56767 0.06375 0.0
C1095 C 0.99489 0.56579 0.04545 0.0
C1096 C 0.99001 0.54622 0.03888 0.0
C1097 C 0.00677 0.58843 0.07133 0.0
C1098 C 0.9905 0.6027 0.07245 0.0
C1099 C 0.02588 0.5935 0.07898 0.0
C1100 C 0.04413 0.57971 0.0771 0.0
C1101 C 0.05151 0.57288 0.0588 0.0
C1102 C 0.06857 0.55974 0.05712 0.0
C1103 C 0.07847 0.55342 0.07363 0.0
C1104 C 0.07137 0.56027 0.09185 0.0
C1105 C 0.0543 0.57339 0.09361 0.0
H1106 H 0.09168 0.54324 0.0723 0.0
H1107 H 0.92723 0.67232 0.08811 0.0
H1108 H 0.35026 0.03765 0.14152 0.0
H1109 H 0.36744 0.0407 0.10852 0.0
H1110 H 0.42174 0.01103 0.1288 0.0
H1111 H 0.40445 0.00759 0.1619 0.0
H1112 H 0.42879 0.04996 0.10265 0.0
H1113 H 0.39415 0.98248 0.10632 0.0
H1114 H 0.36362 0.95903 0.11323 0.0
H1115 H 0.33066 0.99352 0.07109 0.0
H1116 H 0.36089 0.01737 0.06415 0.0
H1117 H 0.47837 0.03991 0.00768 0.0
H1118 H 0.46485 0.03307 0.04162 0.0
H1119 H 0.40199 0.03857 0.02465 0.0
H1120 H 0.41535 0.04416 0.99082 0.0
H1121 H 0.40071 0.01025 0.05038 0.0
H1122 H 0.43046 0.07872 0.04743 0.0
H1123 H 0.45779 0.10578 0.0405 0.0
H1124 H 0.49606 0.07468 0.08053 0.0
H1125 H 0.46903 0.04728 0.08752 0.0
C1126 C 0.36592 0.03191 0.139 0.0
C1127 C 0.376 0.0224 0.15437 0.0
C1128 C 0.37569 0.0336 0.12011 0.0
C1129 C 0.39588 0.02609 0.11616 0.0
C1130 C 0.40618 0.01696 0.13151 0.0
C1131 C 0.39624 0.01491 0.15038 0.0
C1132 C 0.4059 0.02739 0.09589 0.0
C1133 C 0.42292 0.04104 0.09125 0.0
C1134 C 0.39777 0.01632 0.08087 0.0
C1135 C 0.37972 1.0018 0.08484 0.0
C1136 C 0.38033 0.98515 0.09864 0.0
C1137 C 0.36309 0.97177 0.10254 0.0
C1138 C 0.34519 0.97481 0.09263 0.0
C1139 C 0.34453 0.99119 0.07876 0.0
C1140 C 0.36172 0.00463 0.07482 0.0
C1141 C 0.46167 0.03941 0.01119 0.0
C1142 C 0.44798 0.04254 0.99647 0.0
C1143 C 0.45391 0.0357 0.03068 0.0
C1144 C 0.4323 0.03568 0.03599 0.0
C1145 C 0.41869 0.03842 0.02116 0.0
C1146 C 0.42639 0.04165 1.0017 0.0
C1147 C 0.4237 0.03303 0.05686 0.0
C1148 C 0.40684 0.01913 0.06168 0.0
C1149 C 0.43159 0.04437 0.07193 0.0
C1150 C 0.44783 0.06084 0.06783 0.0
C1151 C 0.44477 0.07758 0.05465 0.0
C1152 C 0.46019 0.09299 0.05073 0.0
C1153 C 0.47868 0.09192 0.06002 0.0
C1154 C 0.48175 0.07547 0.07331 0.0
C1155 C 0.46638 0.06 0.07727 0.0
H1156 H 0.49061 0.10386 0.05697 0.0
H1157 H 0.33186 0.96444 0.09568 0.0
H1158 H 0.61998 0.49865 0.20645 0.0
H1159 H 0.60266 0.49736 0.17601 0.0
H1160 H 0.6613 0.51203 0.14317 0.0
H1161 H 0.67851 0.5133 0.17357 0.0
H1162 H 0.62813 0.53233 0.12795 0.0
H1163 H 0.64597 0.46323 0.15005 0.0
H1164 H 0.64568 0.43372 0.17405 0.0
H1165 H 0.57897 0.42939 0.17535 0.0
H1166 H 0.57884 0.45914 0.15158 0.0
H1167 H 0.61844 0.49106 0.03619 0.0
H1168 H 0.62837 0.49958 0.06833 0.0
H1169 H 0.56748 0.47988 0.09365 0.0
H1170 H 0.55762 0.47071 0.06156 0.0
H1171 H 0.59783 0.46396 0.11408 0.0
H1172 H 0.58052 0.53105 0.08893 0.0
H1173 H 0.58127 0.56067 0.06501 0.0
H1174 H 0.64703 0.56887 0.0692 0.0
H1175 H 0.64675 0.5391 0.09294 0.0
C1176 C 0.62898 0.50183 0.19268 0.0
C1177 C 0.65048 0.50585 0.19211 0.0
C1178 C 0.61917 0.50109 0.17538 0.0
C1179 C 0.63078 0.5044 0.15738 0.0
C1180 C 0.65209 0.50946 0.15692 0.0
C1181 C 0.66189 0.51011 0.17419 0.0
C1182 C 0.62121 0.50105 0.13898 0.0
C1183 C 0.62157 0.51738 0.12484 0.0
C1184 C 0.61229 0.48165 0.13517 0.0
C1185 C 0.61238 0.46355 0.14921 0.0
C1186 C 0.63123 0.45608 0.15556 0.0
C1187 C 0.63114 0.4393 0.1691 0.0
C1188 C 0.61231 0.42972 0.17626 0.0
C1189 C 0.59354 0.43686 0.16982 0.0
C1190 C 0.59353 0.45367 0.15631 0.0
C1191 C 0.60718 0.48847 0.04861 0.0
C1192 C 0.58726 0.48017 0.04635 0.0
C1193 C 0.6128 0.49357 0.06693 0.0
C1194 C 0.59857 0.4906 0.08334 0.0
C1195 C 0.57864 0.4824 0.08115 0.0
C1196 C 0.573 0.4773 0.0628 0.0
C1197 C 0.60492 0.49519 0.10287 0.0
C1198 C 0.60404 0.47904 0.11724 0.0
C1199 C 0.6134 0.51475 0.10685 0.0
C1200 C 0.61363 0.53273 0.09262 0.0
C1201 C 0.59518 0.53907 0.08464 0.0
C1202 C 0.59551 0.5559 0.07113 0.0
C1203 C 0.61419 0.56662 0.06556 0.0
C1204 C 0.63257 0.56055 0.07352 0.0
C1205 C 0.63233 0.54371 0.08702 0.0
H1206 H 0.61442 0.57965 0.0551 0.0
H1207 H 0.61228 0.41674 0.18676 0.0
H1208 H 0.38987 0.99476 0.27902 0.0
H1209 H 0.40409 0.99199 0.31103 0.0
H1210 H 0.34491 0.01024 0.33817 0.0
H1211 H 0.33079 0.01307 0.30612 0.0
H1212 H 0.3764 0.02988 0.35347 0.0
H1213 H 0.36007 0.95962 0.33972 0.0
H1214 H 0.36117 0.92856 0.3202 0.0
H1215 H 0.42753 0.92612 0.32263 0.0
H1216 H 0.42687 0.95741 0.3419 0.0
H1217 H 0.39083 0.99843 0.45141 0.0
H1218 H 0.37876 1.00265 0.41883 0.0
H1219 H 0.43857 0.98347 0.39398 0.0
H1220 H 0.45059 0.97861 0.42665 0.0
H1221 H 0.40779 0.96464 0.37709 0.0
H1222 H 0.42406 0.0346 0.39132 0.0
H1223 H 0.42295 0.06591 0.41051 0.0
H1224 H 0.35675 0.06895 0.4071 0.0
H1225 H 0.35742 0.03748 0.38811 0.0
C1226 C 0.37993 0.99803 0.29188 0.0
C1227 C 0.35917 0.00381 0.29021 0.0
C1228 C 0.38802 0.99645 0.31015 0.0
C1229 C 0.37552 1.00064 0.32714 0.0
C1230 C 0.35488 0.00686 0.32536 0.0
C1231 C 0.34679 0.00841 0.30709 0.0
C1232 C 0.38389 0.99848 0.34673 0.0
C1233 C 0.38303 0.01552 0.35871 0.0
C1234 C 0.39303 0.97993 0.35349 0.0
C1235 C 0.39344 0.96099 0.34209 0.0
C1236 C 0.37492 0.95256 0.33597 0.0
C1237 C 0.37546 0.9349 0.32496 0.0
C1238 C 0.39442 0.92541 0.32014 0.0
C1239 C 0.41286 0.93352 0.32635 0.0
C1240 C 0.41241 0.95121 0.33733 0.0
C1241 C 0.40145 0.99503 0.43905 0.0
C1242 C 0.42173 0.98815 0.44177 0.0
C1243 C 0.39456 0.99764 0.42035 0.0
C1244 C 0.40777 0.99358 0.40381 0.0
C1245 C 0.42805 0.98677 0.40645 0.0
C1246 C 0.43499 0.98419 0.42517 0.0
C1247 C 0.40026 0.99603 0.38387 0.0
C1248 C 0.40124 0.97903 0.37183 0.0
C1249 C 0.39122 0.01461 0.37705 0.0
C1250 C 0.39077 0.03356 0.38845 0.0
C1251 C 0.40924 0.04185 0.39479 0.0
C1252 C 0.40869 0.05965 0.40561 0.0
C1253 C 0.38979 0.06939 0.41007 0.0
C1254 C 0.37138 0.06138 0.40367 0.0
C1255 C 0.37184 0.04357 0.39286 0.0
H1256 H 0.3894 0.08316 0.41844 0.0
H1257 H 0.39481 0.91173 0.31161 0.0
H1258 H 0.67432 0.53124 0.33068 0.0
H1259 H 0.66087 0.53291 0.36448 0.0
H1260 H 0.61716 0.48317 0.35713 0.0
H1261 H 0.62962 0.48231 0.32279 0.0
H1262 H 0.59875 0.51099 0.3785 0.0
H1263 H 0.66319 0.47528 0.38052 0.0
H1264 H 0.70066 0.47004 0.37261 0.0
H1265 H 0.71513 0.52585 0.40071 0.0
H1266 H 0.67765 0.53152 0.40865 0.0
H1267 H 0.57643 0.49224 0.4815 0.0
H1268 H 0.58794 0.4879 0.44726 0.0
H1269 H 0.62841 0.54164 0.44757 0.0
H1270 H 0.6167 0.54643 0.48147 0.0
H1271 H 0.64819 0.50916 0.43014 0.0
H1272 H 0.58326 0.54509 0.42688 0.0
H1273 H 0.54562 0.55006 0.43432 0.0
H1274 H 0.5322 0.49265 0.40842 0.0
H1275 H 0.56981 0.48718 0.40107 0.0
C1276 C 0.66157 0.52088 0.33605 0.0
C1277 C 0.65308 0.50664 0.32384 0.0
C1278 C 0.65411 0.52163 0.35556 0.0
C1279 C 0.63828 0.50787 0.36355 0.0
C1280 C 0.6295 0.49386 0.35138 0.0
C1281 C 0.63679 0.49325 0.33175 0.0
C1282 C 0.63093 0.50818 0.38458 0.0
C1283 C 0.60955 0.51021 0.3898 0.0
C1284 C 0.645 0.5075 0.39939 0.0
C1285 C 0.66759 0.5039 0.39505 0.0
C1286 C 0.67435 0.48648 0.38494 0.0
C1287 C 0.69561 0.48344 0.38045 0.0
C1288 C 0.7103 0.49765 0.38609 0.0
C1289 C 0.70374 0.51487 0.39633 0.0
C1290 C 0.68248 0.51798 0.40088 0.0
C1291 C 0.58763 0.50326 0.47426 0.0
C1292 C 0.59568 0.51963 0.48439 0.0
C1293 C 0.59426 0.5007 0.45468 0.0
C1294 C 0.60904 0.51447 0.44483 0.0
C1295 C 0.61714 0.53073 0.4549 0.0
C1296 C 0.61046 0.53337 0.47437 0.0
C1297 C 0.61607 0.51213 0.42399 0.0
C1298 C 0.6374 0.50973 0.41883 0.0
C1299 C 0.60195 0.51232 0.40926 0.0
C1300 C 0.57935 0.51561 0.41363 0.0
C1301 C 0.57229 0.53343 0.42292 0.0
C1302 C 0.55096 0.53636 0.42709 0.0
C1303 C 0.53653 0.52165 0.4219 0.0
C1304 C 0.5434 0.50401 0.41247 0.0
C1305 C 0.56472 0.501 0.40829 0.0
H1306 H 0.52002 0.52395 0.42514 0.0
H1307 H 0.72676 0.49531 0.38256 0.0
H1308 H 0.1743 0.35554 0.98671 0.0
H1309 H 0.14229 0.37508 0.98569 0.0
H1310 H 0.16824 0.42224 0.01941 0.0
H1311 H 0.20026 0.40226 0.02109 0.0
H1312 H 0.12943 0.41203 0.0335 0.0
H1313 H 0.16194 0.43038 0.97007 0.0
H1314 H 0.17934 0.42378 0.93788 0.0
H1315 H 0.12565 0.38917 0.92357 0.0
H1316 H 0.10803 0.39532 0.95578 0.0
H1317 H 0.04535 0.47825 0.02721 0.0
H1318 H 0.0809 0.46584 0.02111 0.0
H1319 H 0.05802 0.41705 0.9873 0.0
H1320 H 0.02242 0.43011 0.99281 0.0
H1321 H 0.09624 0.42987 0.97258 0.0
H1322 H 0.06459 0.40944 0.03608 0.0
H1323 H 0.04667 0.41546 0.06821 0.0
H1324 H 0.09853 0.45277 0.08251 0.0
H1325 H 0.11659 0.44731 0.05032 0.0
C1326 C 0.17325 0.37004 0.99398 0.0
C1327 C 0.18987 0.37721 0.00414 0.0
C1328 C 0.15496 0.38136 0.99318 0.0
C1329 C 0.15283 0.40029 0.0023 0.0
C1330 C 0.1695 0.4077 0.0122 0.0
C1331 C 0.18788 0.39634 0.01303 0.0
C1332 C 0.13282 0.41174 0.00223 0.0
C1333 C 0.1224 0.41628 0.02014 0.0
C1334 C 0.12323 0.41677 0.98486 0.0
C1335 C 0.13373 0.41319 0.96541 0.0
C1336 C 0.1539 0.42125 0.96011 0.0
C1337 C 0.16379 0.4176 0.94185 0.0
C1338 C 0.15362 0.40603 0.92871 0.0
C1339 C 0.13351 0.39812 0.93377 0.0
C1340 C 0.12355 0.40171 0.95202 0.0
C1341 C 0.04807 0.46533 0.01789 0.0
C1342 C 0.03129 0.45525 0.01028 0.0
C1343 C 0.06834 0.45809 0.0146 0.0
C1344 C 0.07213 0.44016 0.00416 0.0
C1345 C 0.05552 0.43086 0.99546 0.0
C1346 C 0.0352 0.43836 0.9985 0.0
C1347 C 0.09294 0.43019 0.00382 0.0
C1348 C 0.10341 0.42581 0.9859 0.0
C1349 C 0.10255 0.42514 0.0212 0.0
C1350 C 0.09187 0.42811 0.04072 0.0
C1351 C 0.07212 0.41902 0.04604 0.0
C1352 C 0.06194 0.42234 0.06425 0.0
C1353 C 0.07145 0.43451 0.07737 0.0
C1354 C 0.09118 0.44336 0.07232 0.0
C1355 C 0.10139 0.44016 0.05409 0.0
H1356 H 0.06357 0.43704 0.09148 0.0
H1357 H 0.16131 0.40321 0.91458 0.0
H1358 H 0.2012 0.68104 0.49302 0.0
H1359 H 0.16744 0.66538 0.4873 0.0
H1360 H 0.19831 0.60939 0.47007 0.0
H1361 H 0.23196 0.62486 0.47659 0.0
H1362 H 0.15097 0.65239 0.45714 0.0
H1363 H 0.16699 0.56736 0.48257 0.0
H1364 H 0.18805 0.54872 0.50587 0.0
H1365 H 0.18852 0.60222 0.54058 0.0
H1366 H 0.16719 0.62106 0.51768 0.0
H1367 H 0.07112 0.58898 0.42662 0.0
H1368 H 0.10521 0.60323 0.4329 0.0
H1369 H 0.09062 0.5916 0.49458 0.0
H1370 H 0.0568 0.57661 0.48823 0.0
H1371 H 0.12905 0.58326 0.48678 0.0
H1372 H 0.08717 0.64112 0.47127 0.0
H1373 H 0.06396 0.66226 0.45194 0.0
H1374 H 0.11137 0.66749 0.40452 0.0
H1375 H 0.13477 0.64613 0.42348 0.0
C1376 C 0.20067 0.66541 0.48795 0.0
C1377 C 0.21905 0.65416 0.48505 0.0
C1378 C 0.18144 0.65649 0.48463 0.0
C1379 C 0.18024 0.63612 0.47839 0.0
C1380 C 0.19874 0.625 0.47516 0.0
C1381 C 0.21796 0.63388 0.47867 0.0
C1382 C 0.15963 0.62652 0.47544 0.0
C1383 C 0.14621 0.63725 0.46359 0.0
C1384 C 0.15311 0.607 0.48425 0.0
C1385 C 0.16568 0.59568 0.49828 0.0
C1386 C 0.17151 0.57511 0.49522 0.0
C1387 C 0.1835 0.56451 0.50836 0.0
C1388 C 0.18968 0.5743 0.52466 0.0
C1389 C 0.18379 0.59468 0.52791 0.0
C1390 C 0.17176 0.60533 0.51485 0.0
C1391 C 0.07525 0.58943 0.4415 0.0
C1392 C 0.06128 0.58182 0.45695 0.0
C1393 C 0.0947 0.59764 0.4451 0.0
C1394 C 0.1004 0.59893 0.46426 0.0
C1395 C 0.08664 0.59084 0.47968 0.0
C1396 C 0.0673 0.58228 0.47605 0.0
C1397 C 0.12051 0.60899 0.46822 0.0
C1398 C 0.13383 0.59836 0.48026 0.0
C1399 C 0.12664 0.62895 0.46015 0.0
C1400 C 0.11264 0.64186 0.44873 0.0
C1401 C 0.09259 0.64666 0.45667 0.0
C1402 C 0.07941 0.6587 0.44579 0.0
C1403 C 0.08617 0.66617 0.427 0.0
C1404 C 0.10614 0.66166 0.41907 0.0
C1405 C 0.11938 0.64961 0.42988 0.0
H1406 H 0.07594 0.67549 0.4186 0.0
H1407 H 0.19898 0.56608 0.5348 0.0
H1408 H 0.83198 0.81489 0.47394 0.0
H1409 H 0.8674 0.82951 0.46713 0.0
H1410 H 0.84407 0.89069 0.4775 0.0
H1411 H 0.80863 0.87603 0.48387 0.0
H1412 H 0.87189 0.89295 0.44743 0.0
H1413 H 0.86978 0.86221 0.51204 0.0
H1414 H 0.86351 0.83398 0.53721 0.0
H1415 H 0.91001 0.79736 0.50748 0.0
H1416 H 0.91635 0.82527 0.48196 0.0
H1417 H 0.98443 0.91576 0.47822 0.0
H1418 H 0.94868 0.90243 0.48623 0.0
H1419 H 0.94404 0.88874 0.42618 0.0
H1420 H 0.97943 0.90205 0.41808 0.0
H1421 H 0.92984 0.8647 0.48332 0.0
H1422 H 0.89495 0.89761 0.4137 0.0
H1423 H 0.90035 0.92745 0.39011 0.0
H1424 H 0.92665 0.96315 0.43341 0.0
H1425 H 0.92115 0.93364 0.45733 0.0
C1426 C 0.83449 0.83147 0.47462 0.0
C1427 C 0.81768 0.84434 0.47959 0.0
C1428 C 0.85473 0.83982 0.47086 0.0
C1429 C 0.85862 0.86123 0.47211 0.0
C1430 C 0.84162 0.87415 0.4765 0.0
C1431 C 0.82138 0.86579 0.48019 0.0
C1432 C 0.88034 0.87015 0.46904 0.0
C1433 C 0.88452 0.8867 0.45528 0.0
C1434 C 0.89691 0.86241 0.4795 0.0
C1435 C 0.89342 0.84577 0.49501 0.0
C1436 C 0.8786 0.84809 0.51082 0.0
C1437 C 0.87503 0.83215 0.52515 0.0
C1438 C 0.88633 0.81387 0.52393 0.0
C1439 C 0.90127 0.81152 0.5084 0.0
C1440 C 0.90487 0.82741 0.49401 0.0
C1441 C 0.97579 0.90991 0.46673 0.0
C1442 C 0.98488 0.9101 0.44748 0.0
C1443 C 0.95535 0.90221 0.47134 0.0
C1444 C 0.94346 0.89474 0.45679 0.0
C1445 C 0.95266 0.89467 0.43765 0.0
C1446 C 0.97302 0.90226 0.43305 0.0
C1447 C 0.92143 0.88717 0.46141 0.0
C1448 C 0.91719 0.87089 0.47547 0.0
C1449 C 0.90472 0.89538 0.45144 0.0
C1450 C 0.90781 0.91333 0.43725 0.0
C1451 C 0.9018 0.91186 0.41821 0.0
C1452 C 0.90489 0.92871 0.40478 0.0
C1453 C 0.9139 0.94716 0.41024 0.0
C1454 C 0.91975 0.94883 0.42918 0.0
C1455 C 0.91667 0.93203 0.44267 0.0
H1456 H 0.9163 0.96018 0.39981 0.0
H1457 H 0.88353 0.80154 0.53503 0.0
H1458 H 0.33797 0.62107 0.53403 0.0
H1459 H 0.36954 0.60318 0.54252 0.0
H1460 H 0.4072 0.65426 0.51595 0.0
H1461 H 0.3757 0.67164 0.50667 0.0
H1462 H 0.42642 0.62178 0.50784 0.0
H1463 H 0.39521 0.64555 0.56781 0.0
H1464 H 0.36738 0.64966 0.59395 0.0
H1465 H 0.36451 0.5837 0.60553 0.0
H1466 H 0.39216 0.57918 0.57928 0.0
H1467 H 0.49967 0.59081 0.58989 0.0
H1468 H 0.46794 0.60606 0.5791 0.0
H1469 H 0.47202 0.56807 0.52914 0.0
H1470 H 0.50456 0.55346 0.53948 0.0
H1471 H 0.43179 0.59354 0.57523 0.0
H1472 H 0.44822 0.59056 0.49171 0.0
H1473 H 0.47819 0.5917 0.46705 0.0
H1474 H 0.51447 0.62534 0.50516 0.0
H1475 H 0.48464 0.62461 0.52993 0.0
C1476 C 0.35301 0.62845 0.53001 0.0
C1477 C 0.35432 0.6478 0.51973 0.0
C1478 C 0.3711 0.61825 0.53494 0.0
C1479 C 0.39095 0.62744 0.53024 0.0
C1480 C 0.39221 0.6467 0.51977 0.0
C1481 C 0.37416 0.65668 0.51449 0.0
C1482 C 0.41035 0.6172 0.53634 0.0
C1483 C 0.42752 0.61559 0.52259 0.0
C1484 C 0.41219 0.60936 0.55566 0.0
C1485 C 0.39559 0.61201 0.57146 0.0
C1486 C 0.38854 0.63191 0.57585 0.0
C1487 C 0.37281 0.63432 0.59069 0.0
C1488 C 0.36414 0.61695 0.60136 0.0
C1489 C 0.37122 0.59714 0.59723 0.0
C1490 C 0.38692 0.59465 0.58239 0.0
C1491 C 0.49388 0.58569 0.57657 0.0
C1492 C 0.50477 0.57093 0.56552 0.0
C1493 C 0.4756 0.59441 0.57042 0.0
C1494 C 0.46747 0.58849 0.55315 0.0
C1495 C 0.47809 0.57337 0.54228 0.0
C1496 C 0.49667 0.56489 0.54826 0.0
C1497 C 0.44793 0.59821 0.54677 0.0
C1498 C 0.43068 0.59965 0.56045 0.0
C1499 C 0.44632 0.60662 0.5276 0.0
C1500 C 0.46428 0.60731 0.51274 0.0
C1501 C 0.46258 0.59824 0.49479 0.0
C1502 C 0.47954 0.59881 0.48081 0.0
C1503 C 0.49825 0.60852 0.48457 0.0
C1504 C 0.5 0.61775 0.5023 0.0
C1505 C 0.48308 0.61725 0.51632 0.0
H1506 H 0.51136 0.60893 0.47373 0.0
H1507 H 0.35197 0.61884 0.61284 0.0
H1508 H 0.54284 0.68744 0.91427 0.0
H1509 H 0.54586 0.65061 0.92354 0.0
H1510 H 0.4962 0.63575 0.88779 0.0
H1511 H 0.49299 0.67249 0.87864 0.0
H1512 H 0.49111 0.61329 0.92009 0.0
H1513 H 0.54785 0.62762 0.873 0.0
H1514 H 0.57924 0.64559 0.85731 0.0
H1515 H 0.61274 0.63 0.90719 0.0
H1516 H 0.58142 0.61221 0.92333 0.0
H1517 H 0.51905 0.50452 0.91467 0.0
H1518 H 0.51252 0.54109 0.90604 0.0
H1519 H 0.54833 0.55992 0.95261 0.0
H1520 H 0.55448 0.52361 0.96162 0.0
H1521 H 0.55989 0.57951 0.91364 0.0
H1522 H 0.50031 0.56482 0.95997 0.0
H1523 H 0.46855 0.54529 0.97265 0.0
H1524 H 0.44016 0.55988 0.91958 0.0
H1525 H 0.4719 0.57925 0.90647 0.0
C1526 C 0.53258 0.67632 0.90837 0.0
C1527 C 0.51766 0.68296 0.89572 0.0
C1528 C 0.53434 0.65524 0.91365 0.0
C1529 C 0.52144 0.64028 0.90617 0.0
C1530 C 0.5063 0.64692 0.89381 0.0
C1531 C 0.50444 0.66799 0.88864 0.0
C1532 C 0.52379 0.61773 0.91112 0.0
C1533 C 0.50614 0.60591 0.91844 0.0
C1534 C 0.54336 0.60794 0.90903 0.0
C1535 C 0.5622 0.61879 0.89947 0.0
C1536 C 0.56184 0.6282 0.88071 0.0
C1537 C 0.57964 0.63832 0.87172 0.0
C1538 C 0.59795 0.63899 0.88128 0.0
C1539 C 0.59852 0.62951 0.89983 0.0
C1540 C 0.58076 0.6194 0.9089 0.0
C1541 C 0.52527 0.51644 0.92323 0.0
C1542 C 0.53724 0.51112 0.93886 0.0
C1543 C 0.52156 0.53731 0.91827 0.0
C1544 C 0.53001 0.55318 0.92866 0.0
C1545 C 0.54171 0.5479 0.94439 0.0
C1546 C 0.54509 0.52711 0.94958 0.0
C1547 C 0.52733 0.57535 0.92281 0.0
C1548 C 0.54492 0.58702 0.91526 0.0
C1549 C 0.50766 0.58485 0.92426 0.0
C1550 C 0.48857 0.57328 0.93216 0.0
C1551 C 0.48738 0.56369 0.95093 0.0
C1552 C 0.46936 0.55269 0.95821 0.0
C1553 C 0.45237 0.55129 0.94691 0.0
C1554 C 0.45335 0.56094 0.92831 0.0
C1555 C 0.47134 0.57195 0.92096 0.0
H1556 H 0.43844 0.54276 0.95257 0.0
H1557 H 0.61173 0.64682 0.87428 0.0
H1558 H 0.49074 0.84255 0.8606 0.0
H1559 H 0.48757 0.87894 0.86868 0.0
H1560 H 0.52446 0.86765 0.91753 0.0
H1561 H 0.526 0.83082 0.91036 0.0
H1562 H 0.49691 0.89252 0.92828 0.0
H1563 H 0.54359 0.89341 0.87088 0.0
H1564 H 0.55516 0.88518 0.83724 0.0
H1565 H 0.50387 0.91884 0.81608 0.0
H1566 H 0.49181 0.92703 0.84963 0.0
H1567 H 0.51342 1.00214 0.93889 0.0
H1568 H 0.5212 0.96614 0.93084 0.0
H1569 H 0.47189 0.96683 0.89208 0.0
H1570 H 0.46383 1.00239 0.90027 0.0
H1571 H 0.50904 0.94817 0.87648 0.0
H1572 H 0.46217 0.9451 0.93514 0.0
H1573 H 0.4517 0.9531 0.96908 0.0
H1574 H 0.50652 0.92369 0.98791 0.0
H1575 H 0.51748 0.91579 0.95401 0.0
C1576 C 0.49813 0.84788 0.87308 0.0
C1577 C 0.50916 0.83398 0.8845 0.0
C1578 C 0.49653 0.86878 0.8776 0.0
C1579 C 0.5064 0.87647 0.89337 0.0
C1580 C 0.51693 0.86237 0.90512 0.0
C1581 C 0.51806 0.84134 0.90088 0.0
C1582 C 0.50545 0.89905 0.89774 0.0
C1583 C 0.49998 0.9046 0.91694 0.0
C1584 C 0.5092 0.91512 0.88306 0.0
C1585 C 0.51671 0.9107 0.8628 0.0
C1586 C 0.53474 0.899 0.85906 0.0
C1587 C 0.54138 0.89433 0.84001 0.0
C1588 C 0.53023 0.90144 0.82454 0.0
C1589 C 0.51248 0.91333 0.82808 0.0
C1590 C 0.50575 0.91801 0.84711 0.0
C1591 C 0.50443 0.99468 0.92849 0.0
C1592 C 0.48797 0.00515 0.92028 0.0
C1593 C 0.50882 0.97408 0.92395 0.0
C1594 C 0.49706 0.9637 0.91089 0.0
C1595 C 0.4812 0.97445 0.90215 0.0
C1596 C 0.47658 0.99481 0.90692 0.0
C1597 C 0.50047 0.9414 0.90688 0.0
C1598 C 0.50632 0.93596 0.88777 0.0
C1599 C 0.49742 0.92547 0.92166 0.0
C1600 C 0.49076 0.93008 0.94203 0.0
C1601 C 0.47208 0.9405 0.9465 0.0
C1602 C 0.46604 0.94499 0.96573 0.0
C1603 C 0.47847 0.93896 0.98064 0.0
C1604 C 0.49693 0.92839 0.97635 0.0
C1605 C 0.50306 0.9239 0.95713 0.0
H1606 H 0.47376 0.94245 0.99552 0.0
H1607 H 0.53536 0.89776 0.8098 0.0
H1608 H 0.53578 0.31798 0.66859 0.0
H1609 H 0.54294 0.3543 0.65904 0.0
H1610 H 0.50172 0.35015 0.61301 0.0
H1611 H 0.49747 0.31289 0.62053 0.0
H1612 H 0.53147 0.37422 0.60049 0.0
H1613 H 0.48897 0.37503 0.66482 0.0
H1614 H 0.4858 0.36145 0.69898 0.0
H1615 H 0.54743 0.38435 0.70657 0.0
H1616 H 0.55069 0.3986 0.67268 0.0
H1617 H 0.5213 0.48142 0.58021 0.0
H1618 H 0.51455 0.44488 0.59001 0.0
H1619 H 0.55036 0.45194 0.63971 0.0
H1620 H 0.55531 0.48892 0.6308 0.0
H1621 H 0.52407 0.4263 0.65108 0.0
H1622 H 0.56842 0.4282 0.59276 0.0
H1623 H 0.58046 0.43758 0.55864 0.0
H1624 H 0.52679 0.40685 0.5393 0.0
H1625 H 0.51428 0.39751 0.57333 0.0
C1626 C 0.52814 0.32482 0.65647 0.0
C1627 C 0.51504 0.31259 0.64607 0.0
C1628 C 0.53197 0.34585 0.65118 0.0
C1629 C 0.52192 0.35572 0.63596 0.0
C1630 C 0.50926 0.34334 0.62519 0.0
C1631 C 0.50624 0.32201 0.62991 0.0
C1632 C 0.52476 0.37869 0.63103 0.0
C1633 C 0.52945 0.38561 0.61153 0.0
C1634 C 0.52334 0.39382 0.64537 0.0
C1635 C 0.52005 0.38782 0.6663 0.0
C1636 C 0.50167 0.37745 0.67392 0.0
C1637 C 0.49992 0.36956 0.69319 0.0
C1638 C 0.51651 0.37186 0.70485 0.0
C1639 C 0.53466 0.38251 0.69747 0.0
C1640 C 0.53635 0.39075 0.67835 0.0
C1641 C 0.52736 0.4752 0.59343 0.0
C1642 C 0.5387 0.48809 0.6048 0.0
C1643 C 0.52381 0.45414 0.59891 0.0
C1644 C 0.53248 0.44506 0.61535 0.0
C1645 C 0.54342 0.4582 0.62696 0.0
C1646 C 0.54626 0.47945 0.62188 0.0
C1647 C 0.53035 0.42203 0.62035 0.0
C1648 C 0.52584 0.41507 0.63989 0.0
C1649 C 0.53283 0.40682 0.6061 0.0
C1650 C 0.54031 0.41235 0.5856 0.0
C1651 C 0.55912 0.42356 0.58123 0.0
C1652 C 0.56603 0.42885 0.56191 0.0
C1653 C 0.55436 0.42286 0.54682 0.0
C1654 C 0.53579 0.41151 0.55101 0.0
C1655 C 0.52878 0.40619 0.57031 0.0
H1656 H 0.55974 0.42698 0.53187 0.0
H1657 H 0.51531 0.36564 0.71967 0.0
H1658 H 0.48938 0.18672 0.60365 0.0
H1659 H 0.4854 0.15661 0.58395 0.0
H1660 H 0.52248 0.12047 0.62195 0.0
H1661 H 0.52754 0.15073 0.64098 0.0
H1662 H 0.53173 0.11017 0.58651 0.0
H1663 H 0.4675 0.11882 0.62585 0.0
H1664 H 0.43649 0.13752 0.63838 0.0
H1665 H 0.41639 0.14454 0.58064 0.0
H1666 H 0.44744 0.1261 0.56772 0.0
H1667 H 0.49343 0.00757 0.57794 0.0
H1668 H 0.50249 0.04198 0.58838 0.0
H1669 H 0.47212 0.0702 0.5406 0.0
H1670 H 0.46309 0.0357 0.52991 0.0
H1671 H 0.45986 0.08636 0.57676 0.0
H1672 H 0.52321 0.07295 0.53876 0.0
H1673 H 0.55372 0.05256 0.52799 0.0
H1674 H 0.57501 0.05269 0.58538 0.0
H1675 H 0.54445 0.07283 0.59658 0.0
C1676 C 0.49706 0.1725 0.6076 0.0
C1677 C 0.50858 0.17116 0.62411 0.0
C1678 C 0.49455 0.15518 0.59643 0.0
C1679 C 0.50325 0.13607 0.60167 0.0
C1680 C 0.51547 0.13495 0.61764 0.0
C1681 C 0.51815 0.15227 0.62868 0.0
C1682 C 0.49908 0.11698 0.59111 0.0
C1683 C 0.51599 0.10493 0.5845 0.0
C1684 C 0.47859 0.11025 0.58806 0.0
C1685 C 0.45991 0.12131 0.59579 0.0
C1686 C 0.45655 0.1245 0.61581 0.0
C1687 C 0.43895 0.13503 0.62298 0.0
C1688 C 0.42451 0.14227 0.61031 0.0
C1689 C 0.42761 0.13896 0.59043 0.0
C1690 C 0.4452 0.12846 0.58318 0.0
C1691 C 0.48886 0.02108 0.5695 0.0
C1692 C 0.47753 0.01889 0.55308 0.0
C1693 C 0.49412 0.04075 0.57546 0.0
C1694 C 0.48807 0.05867 0.56522 0.0
C1695 C 0.47698 0.05657 0.54868 0.0
C1696 C 0.47192 0.03685 0.54255 0.0
C1697 C 0.49246 0.07948 0.57249 0.0
C1698 C 0.47559 0.0918 0.57852 0.0
C1699 C 0.51296 0.08629 0.57526 0.0
C1700 C 0.53144 0.07428 0.56855 0.0
C1701 C 0.53431 0.0685 0.54913 0.0
C1702 C 0.55163 0.05701 0.54294 0.0
C1703 C 0.56628 0.0513 0.556 0.0
C1704 C 0.56365 0.05711 0.57528 0.0
C1705 C 0.54634 0.06859 0.58155 0.0
H1706 H 0.57968 0.0424 0.55118 0.0
H1707 H 0.4109 0.15042 0.61589 0.0
H1708 H 0.8866 0.4837 0.65664 0.0
H1709 H 0.90229 0.4862 0.62332 0.0
H1710 H 0.87867 0.54803 0.61599 0.0
H1711 H 0.8617 0.54513 0.64889 0.0
H1712 H 0.87331 0.52931 0.58506 0.0
H1713 H 0.93174 0.53766 0.62222 0.0
H1714 H 0.95558 0.52923 0.64759 0.0
H1715 H 0.97079 0.47193 0.62103 0.0
H1716 H 0.94682 0.4799 0.59564 0.0
H1717 H 0.96707 0.54328 0.50716 0.0
H1718 H 0.9543 0.53956 0.54147 0.0
H1719 H 0.90314 0.50112 0.52652 0.0
H1720 H 0.91542 0.50539 0.49212 0.0
H1721 H 0.94689 0.51061 0.56874 0.0
H1722 H 0.85869 0.51223 0.55518 0.0
H1723 H 0.83658 0.52494 0.52973 0.0
H1724 H 0.88355 0.57033 0.5092 0.0
H1725 H 0.90561 0.55845 0.53496 0.0
C1726 C 0.88451 0.4978 0.64795 0.0
C1727 C 0.87277 0.5142 0.65565 0.0
C1728 C 0.89379 0.49931 0.62889 0.0
C1729 C 0.89198 0.51742 0.61708 0.0
C1730 C 0.8804 0.53388 0.62473 0.0
C1731 C 0.87089 0.53229 0.64373 0.0
C1732 C 0.90173 0.51902 0.59664 0.0
C1733 C 0.8894 0.52521 0.58154 0.0
C1734 C 0.92288 0.51415 0.59191 0.0
C1735 C 0.93733 0.5093 0.60713 0.0
C1736 C 0.94005 0.52319 0.62188 0.0
C1737 C 0.95361 0.51851 0.63624 0.0
C1738 C 0.96466 0.50003 0.63595 0.0
C1739 C 0.96221 0.48623 0.62126 0.0
C1740 C 0.94865 0.49083 0.60686 0.0
C1741 C 0.95328 0.53376 0.51119 0.0
C1742 C 0.94215 0.52481 0.49685 0.0
C1743 C 0.94598 0.53164 0.53086 0.0
C1744 C 0.92748 0.52043 0.53662 0.0
C1745 C 0.91717 0.51027 0.52244 0.0
C1746 C 0.92428 0.51263 0.50276 0.0
C1747 C 0.91833 0.52041 0.55719 0.0
C1748 C 0.93078 0.51462 0.57229 0.0
C1749 C 0.89748 0.52632 0.56197 0.0
C1750 C 0.88394 0.53422 0.54689 0.0
C1751 C 0.86423 0.52505 0.54536 0.0
C1752 C 0.85169 0.53214 0.53089 0.0
C1753 C 0.85868 0.5484 0.51784 0.0
C1754 C 0.87817 0.55771 0.5193 0.0
C1755 C 0.89067 0.55084 0.53388 0.0
H1756 H 0.84898 0.55381 0.5066 0.0
H1757 H 0.97515 0.49644 0.64709 0.0
H1758 H 0.11703 0.02579 0.66443 0.0
H1759 H 0.09506 0.01753 0.63827 0.0
H1760 H 0.09211 0.95339 0.65894 0.0
H1761 H 0.11377 0.96176 0.68533 0.0
H1762 H 0.11096 0.96159 0.62053 0.0
H1763 H 0.04854 0.97733 0.65915 0.0
H1764 H 0.0257 0.99875 0.68013 0.0
H1765 H 0.02643 0.04635 0.63454 0.0
H1766 H 0.04953 0.02535 0.61336 0.0
H1767 H 0.06279 0.92759 0.54036 0.0
H1768 H 0.06865 0.93378 0.5742 0.0
H1769 H 0.06041 0.99941 0.56311 0.0
H1770 H 0.05362 0.99304 0.52938 0.0
H1771 H 0.04467 0.98885 0.59851 0.0
H1772 H 0.10935 0.97769 0.56184 0.0
H1773 H 0.13433 0.95936 0.54007 0.0
H1774 H 0.13238 0.90718 0.5811 0.0
H1775 H 0.10713 0.9251 0.60301 0.0
C1776 C 0.11086 0.01015 0.66384 0.0
C1777 C 0.11679 0.99441 0.67687 0.0
C1778 C 0.09838 0.00543 0.64893 0.0
C1779 C 0.09198 0.98486 0.64672 0.0
C1780 C 0.09679 0.96937 0.66053 0.0
C1781 C 0.10902 0.97416 0.67561 0.0
C1782 C 0.08359 0.97909 0.62834 0.0
C1783 C 0.09621 0.96711 0.61589 0.0
C1784 C 0.06485 0.98716 0.62202 0.0
C1785 C 0.05092 0.99982 0.63471 0.0
C1786 C 0.04399 0.99245 0.65365 0.0
C1787 C 0.03096 0.0045 0.66557 0.0
C1788 C 0.02465 0.02392 0.65869 0.0
C1789 C 0.03133 0.03131 0.63985 0.0
C1790 C 0.04438 0.01932 0.62787 0.0
C1791 C 0.06205 0.94329 0.54525 0.0
C1792 C 0.05803 0.95989 0.53231 0.0
C1793 C 0.06541 0.94684 0.56454 0.0
C1794 C 0.06545 0.96712 0.57109 0.0
C1795 C 0.06052 0.98364 0.55838 0.0
C1796 C 0.05673 0.98002 0.53913 0.0
C1797 C 0.072 0.97119 0.59073 0.0
C1798 C 0.05923 0.98301 0.60329 0.0
C1799 C 0.09093 0.96343 0.59706 0.0
C1800 C 0.10617 0.95264 0.58396 0.0
C1801 C 0.11413 0.96224 0.56616 0.0
C1802 C 0.12835 0.95194 0.5538 0.0
C1803 C 0.13489 0.93209 0.55918 0.0
C1804 C 0.12727 0.92254 0.57695 0.0
C1805 C 0.11301 0.93276 0.58934 0.0
H1806 H 0.14591 0.92414 0.5496 0.0
H1807 H 0.01456 0.03322 0.66794 0.0
H1808 H 0.8925 0.52612 0.77952 0.0
H1809 H 0.90813 0.5255 0.81079 0.0
H1810 H 0.85606 0.4884 0.83692 0.0
H1811 H 0.83993 0.49014 0.80591 0.0
H1812 H 0.86479 0.51523 0.86106 0.0
H1813 H 0.9063 0.4684 0.82348 0.0
H1814 H 0.9286 0.45711 0.79536 0.0
H1815 H 0.9744 0.50375 0.80495 0.0
H1816 H 0.95223 0.51552 0.83298 0.0
H1817 H 0.91184 0.47134 0.94278 0.0
H1818 H 0.89837 0.4759 0.91094 0.0
H1819 H 0.94112 0.52721 0.89645 0.0
H1820 H 0.95411 0.52357 0.92885 0.0
H1821 H 0.93829 0.49528 0.86664 0.0
H1822 H 0.89529 0.5401 0.90628 0.0
H1823 H 0.87245 0.54834 0.93518 0.0
H1824 H 0.82866 0.50114 0.92219 0.0
H1825 H 0.85141 0.4924 0.89337 0.0
C1826 C 0.88434 0.51807 0.79205 0.0
C1827 C 0.8649 0.50845 0.79045 0.0
C1828 C 0.89337 0.51748 0.80987 0.0
C1829 C 0.88345 0.50668 0.8263 0.0
C1830 C 0.86406 0.4969 0.82457 0.0
C1831 C 0.85488 0.4978 0.80685 0.0
C1832 C 0.89306 0.50569 0.84534 0.0
C1833 C 0.8808 0.51065 0.86221 0.0
C1834 C 0.9141 0.50007 0.84701 0.0
C1835 C 0.9275 0.49299 0.8302 0.0
C1836 C 0.92106 0.47635 0.81951 0.0
C1837 C 0.93368 0.46985 0.8036 0.0
C1838 C 0.95288 0.47974 0.79834 0.0
C1839 C 0.95951 0.49612 0.80902 0.0
C1840 C 0.94693 0.50271 0.82493 0.0
C1841 C 0.91821 0.48391 0.93309 0.0
C1842 C 0.93393 0.4973 0.93872 0.0
C1843 C 0.91058 0.48632 0.91474 0.0
C1844 C 0.91864 0.50195 0.90138 0.0
C1845 C 0.9347 0.51502 0.90658 0.0
C1846 C 0.94216 0.51283 0.92511 0.0
C1847 C 0.90994 0.50467 0.88212 0.0
C1848 C 0.92234 0.5 0.86531 0.0
C1849 C 0.88893 0.51014 0.88053 0.0
C1850 C 0.87515 0.51548 0.89777 0.0
C1851 C 0.88088 0.53136 0.90968 0.0
C1852 C 0.86793 0.53614 0.92603 0.0
C1853 C 0.84914 0.52524 0.93054 0.0
C1854 C 0.84323 0.50956 0.91869 0.0
C1855 C 0.85614 0.5047 0.90233 0.0
H1856 H 0.83914 0.52896 0.9432 0.0
H1857 H 0.96263 0.47468 0.78602 0.0
H1858 H 0.19309 0.03162 0.79694 0.0
H1859 H 0.18238 0.03773 0.83095 0.0
H1860 H 0.13111 0.99414 0.82927 0.0
H1861 H 0.14024 0.99035 0.7947 0.0
H1862 H 0.11723 0.02153 0.84884 0.0
H1863 H 0.1838 0.98667 0.85285 0.0
H1864 H 0.22174 0.98239 0.84651 0.0
H1865 H 0.23295 0.04155 0.87013 0.0
H1866 H 0.19512 0.04628 0.87639 0.0
H1867 H 0.0958 0.00505 0.95166 0.0
H1868 H 0.10688 1.00105 0.91733 0.0
H1869 H 0.14809 0.05419 0.91786 0.0
H1870 H 0.13683 0.0586 0.95198 0.0
H1871 H 0.16745 0.02305 0.89959 0.0
H1872 H 0.10243 0.05764 0.8964 0.0
H1873 H 0.06484 0.06279 0.90397 0.0
H1874 H 0.05109 0.00478 0.8793 0.0
H1875 H 0.08864 0.99913 0.87181 0.0
C1876 C 0.1796 0.02328 0.80393 0.0
C1877 C 0.16808 0.00977 0.79329 0.0
C1878 C 0.17358 0.02657 0.82354 0.0
C1879 C 0.1563 0.01582 0.83328 0.0
C1880 C 0.14467 1.0025 0.82247 0.0
C1881 C 0.1502 0.9999 0.80269 0.0
C1882 C 0.14966 0.01892 0.85437 0.0
C1883 C 0.12831 0.0214 0.85988 0.0
C1884 C 0.16392 0.01971 0.86905 0.0
C1885 C 0.18663 0.01688 0.86496 0.0
C1886 C 0.19436 0.99881 0.85657 0.0
C1887 C 0.21586 0.99631 0.85301 0.0
C1888 C 0.22973 0.0117 0.85794 0.0
C1889 C 0.22218 0.02965 0.86634 0.0
C1890 C 0.20073 0.03224 0.8699 0.0
C1891 C 0.10705 0.01606 0.94448 0.0
C1892 C 0.11539 0.03214 0.95481 0.0
C1893 C 0.11343 0.0137 0.92478 0.0
C1894 C 0.12828 0.02738 0.91487 0.0
C1895 C 0.13671 0.04335 0.92514 0.0
C1896 C 0.13029 0.04578 0.94477 0.0
C1897 C 0.13518 0.025 0.89387 0.0
C1898 C 0.15649 0.02286 0.88844 0.0
C1899 C 0.12094 0.02449 0.87928 0.0
C1900 C 0.09836 0.02787 0.88373 0.0
C1901 C 0.0914 0.0459 0.89273 0.0
C1902 C 0.0701 0.04892 0.89698 0.0
C1903 C 0.05559 0.03409 0.89217 0.0
C1904 C 0.06235 0.01623 0.88305 0.0
C1905 C 0.08364 0.01312 0.87878 0.0
H1906 H 0.0391 0.03647 0.89547 0.0
H1907 H 0.24635 0.00977 0.85536 0.0
H1908 H 0.6791 0.87689 0.5263 0.0
H1909 H 0.64576 0.89459 0.52765 0.0
H1910 H 0.62995 0.86504 0.4759 0.0
H1911 H 0.66327 0.84717 0.47449 0.0
H1912 H 0.61802 0.90504 0.47469 0.0
H1913 H 0.60935 0.84727 0.52092 0.0
H1914 H 0.61818 0.82476 0.54881 0.0
H1915 H 0.61144 0.87599 0.58622 0.0
H1916 H 0.60285 0.89889 0.55848 0.0
H1917 H 0.50806 0.92949 0.49055 0.0
H1918 H 0.5422 0.91355 0.48335 0.0
H1919 H 0.56288 0.93571 0.53677 0.0
H1920 H 0.52893 0.95081 0.54418 0.0
H1921 H 0.57146 0.89728 0.53539 0.0
H1922 H 0.58129 0.95553 0.48895 0.0
H1923 H 0.57266 0.97809 0.46101 0.0
H1924 H 0.57699 0.9263 0.4241 0.0
H1925 H 0.5854 0.90337 0.45189 0.0
C1926 C 0.66854 0.87402 0.51524 0.0
C1927 C 0.67397 0.86041 0.50036 0.0
C1928 C 0.64942 0.88424 0.51599 0.0
C1929 C 0.63509 0.881 0.50202 0.0
C1930 C 0.64067 0.86787 0.48686 0.0
C1931 C 0.65982 0.85767 0.48606 0.0
C1932 C 0.6141 0.89082 0.50361 0.0
C1933 C 0.60772 0.90316 0.48789 0.0
C1934 C 0.60063 0.88861 0.52085 0.0
C1935 C 0.60563 0.87483 0.53759 0.0
C1936 C 0.60988 0.85377 0.53507 0.0
C1937 C 0.61483 0.84094 0.55085 0.0
C1938 C 0.61542 0.84895 0.56927 0.0
C1939 C 0.611 0.86981 0.57194 0.0
C1940 C 0.60608 0.88271 0.5562 0.0
C1941 C 0.52009 0.93129 0.50048 0.0
C1942 C 0.51577 0.94137 0.51795 0.0
C1943 C 0.53963 0.92215 0.4964 0.0
C1944 C 0.55529 0.92329 0.50954 0.0
C1945 C 0.55116 0.93431 0.52645 0.0
C1946 C 0.53171 0.94308 0.53063 0.0
C1947 C 0.57552 0.91209 0.50668 0.0
C1948 C 0.58171 0.89928 0.52216 0.0
C1949 C 0.58876 0.91393 0.48924 0.0
C1950 C 0.58374 0.9277 0.47254 0.0
C1951 C 0.58024 0.94893 0.47491 0.0
C1952 C 0.57542 0.96178 0.45909 0.0
C1953 C 0.57422 0.95362 0.44081 0.0
C1954 C 0.57789 0.93259 0.43828 0.0
C1955 C 0.5827 0.91967 0.45405 0.0
H1956 H 0.57049 0.9636 0.42858 0.0
H1957 H 0.61926 0.83899 0.58147 0.0
H1958 H 0.71657 0.19286 0.98703 0.0
H1959 H 0.68249 0.17715 0.98247 0.0
H1960 H 0.71238 0.12015 0.96689 0.0
H1961 H 0.74655 0.13602 0.97137 0.0
H1962 H 0.68114 0.13023 0.94329 0.0
H1963 H 0.68985 0.12422 0.01144 0.0
H1964 H 0.6977 0.13711 0.04317 0.0
H1965 H 0.64543 0.17764 0.04238 0.0
H1966 H 0.63751 0.1653 0.01044 0.0
H1967 H 0.58715 0.06977 0.9535 0.0
H1968 H 0.62234 0.08245 0.95826 0.0
H1969 H 0.59736 0.14112 0.97537 0.0
H1970 H 0.56216 0.1284 0.97108 0.0
H1971 H 0.62699 0.12816 0.99869 0.0
H1972 H 0.61961 0.13586 0.92991 0.0
H1973 H 0.61225 0.124 0.89766 0.0
H1974 H 0.66211 0.08065 0.89958 0.0
H1975 H 0.66958 0.09207 0.93199 0.0
C1976 C 0.71578 0.17705 0.98243 0.0
C1977 C 0.73399 0.1656 0.97941 0.0
C1978 C 0.69638 0.16807 0.97992 0.0
C1979 C 0.69488 0.1474 0.97455 0.0
C1980 C 0.71319 0.13611 0.97102 0.0
C1981 C 0.73263 0.14513 0.97355 0.0
C1982 C 0.67413 0.13746 0.97321 0.0
C1983 C 0.6694 0.12947 0.95548 0.0
C1984 C 0.65872 0.13678 0.98905 0.0
C1985 C 0.66318 0.14394 0.00845 0.0
C1986 C 0.6801 0.13598 0.01797 0.0
C1987 C 0.68456 0.14318 0.036 0.0
C1988 C 0.67209 0.15821 0.04477 0.0
C1989 C 0.65509 0.16602 0.03556 0.0
C1990 C 0.6506 0.15891 0.01749 0.0
C1991 C 0.58913 0.08527 0.95853 0.0
C1992 C 0.57186 0.09813 0.9618 0.0
C1993 C 0.60926 0.09256 0.96108 0.0
C1994 C 0.61251 0.11283 0.96694 0.0
C1995 C 0.59525 0.12546 0.97077 0.0
C1996 C 0.57515 0.11822 0.96816 0.0
C1997 C 0.6339 0.12112 0.9687 0.0
C1998 C 0.63876 0.12879 0.98653 0.0
C1999 C 0.64943 0.12151 0.95295 0.0
C2000 C 0.64499 0.11465 0.93346 0.0
C2001 C 0.62889 0.12367 0.92353 0.0
C2002 C 0.62472 0.11705 0.90521 0.0
C2003 C 0.63666 0.10153 0.8966 0.0
C2004 C 0.65284 0.09264 0.90628 0.0
C2005 C 0.65706 0.09919 0.92462 0.0
H2006 H 0.63342 0.09643 0.88241 0.0
H2007 H 0.67557 0.16377 0.05873 0.0
H2008 H 0.32271 0.39219 0.99172 0.0
H2009 H 0.35824 0.407 0.98844 0.0
H2010 H 0.38265 0.34668 0.00239 0.0
H2011 H 0.34701 0.33204 0.00604 0.0
H2012 H 0.40358 0.3755 0.01964 0.0
H2013 H 0.38329 0.36633 0.9552 0.0
H2014 H 0.36063 0.3704 0.92816 0.0
H2015 H 0.36906 0.43654 0.92753 0.0
H2016 H 0.3915 0.43289 0.95482 0.0
H2017 H 0.49801 0.4076 0.94574 0.0
H2018 H 0.46289 0.39433 0.95434 0.0
H2019 H 0.4603 0.42743 0.00734 0.0
H2020 H 0.49613 0.44058 0.9989 0.0
H2021 H 0.42804 0.41313 0.9576 0.0
H2022 H 0.42484 0.40179 0.0412 0.0
H2023 H 0.44841 0.39401 0.06699 0.0
H2024 H 0.48947 0.36253 0.02649 0.0
H2025 H 0.46602 0.36989 1.00055 0.0
C2026 C 0.33573 0.38217 0.99402 0.0
C2027 C 0.33229 0.36096 0.99877 0.0
C2028 C 0.35601 0.3906 0.99218 0.0
C2029 C 0.37326 0.37793 0.9949 0.0
C2030 C 0.36969 0.3568 1.0002 0.0
C2031 C 0.34938 0.34841 0.00214 0.0
C2032 C 0.39502 0.38651 0.99148 0.0
C2033 C 0.4089 0.38382 0.0061 0.0
C2034 C 0.40219 0.39711 0.97374 0.0
C2035 C 0.3889 0.39935 0.95718 0.0
C2036 C 0.3802 0.38175 0.94938 0.0
C2037 C 0.3674 0.38398 0.93401 0.0
C2038 C 0.36337 0.40372 0.92616 0.0
C2039 C 0.37217 0.42127 0.93365 0.0
C2040 C 0.38494 0.41913 0.94906 0.0
C2041 C 0.49013 0.41203 0.95934 0.0
C2042 C 0.49997 0.42525 0.97161 0.0
C2043 C 0.4699 0.40444 0.9642 0.0
C2044 C 0.45874 0.40984 0.98147 0.0
C2045 C 0.46858 0.42282 0.994 0.0
C2046 C 0.48907 0.43036 0.98917 0.0
C2047 C 0.43673 0.40214 0.98574 0.0
C2048 C 0.42273 0.40502 0.97125 0.0
C2049 C 0.42967 0.39127 0.00339 0.0
C2050 C 0.4438 0.38662 0.0189 0.0
C2051 C 0.43888 0.39317 0.03782 0.0
C2052 C 0.45222 0.38884 0.05246 0.0
C2053 C 0.47047 0.37786 0.04836 0.0
C2054 C 0.47538 0.37111 0.02963 0.0
C2055 C 0.46208 0.37539 0.01495 0.0
H2056 H 0.48078 0.37453 0.05971 0.0
H2057 H 0.35346 0.40542 0.91426 0.0
H2058 H 0.89152 0.18236 0.99401 0.0
H2059 H 0.92359 0.16411 0.99988 0.0
H2060 H 0.88733 0.1123 0.02691 0.0
H2061 H 0.85521 0.13105 0.02183 0.0
H2062 H 0.9177 0.11717 0.04682 0.0
H2063 H 0.91384 0.11244 0.97875 0.0
H2064 H 0.91011 0.12484 0.9449 0.0
H2065 H 0.96568 0.16232 0.94531 0.0
H2066 H 0.9696 0.15037 0.97926 0.0
H2067 H 0.0236 0.06389 0.01337 0.0
H2068 H 0.9899 0.07793 0.00529 0.0
H2069 H 0.98909 0.11598 0.05512 0.0
H2070 H 0.022 0.10143 0.06365 0.0
H2071 H 0.97563 0.11345 0.99534 0.0
H2072 H 0.94166 0.12388 0.07499 0.0
H2073 H 0.94364 0.10694 0.10754 0.0
H2074 H 0.96016 0.04964 0.08159 0.0
H2075 H 0.958 0.06615 0.0489 0.0
C2076 C 0.8904 0.16703 1.00113 0.0
C2077 C 0.87082 0.1581 0.00737 0.0
C2078 C 0.90878 0.15651 0.00439 0.0
C2079 C 0.90807 0.13653 0.0135 0.0
C2080 C 0.88846 0.12765 0.01983 0.0
C2081 C 0.87006 0.13836 0.01691 0.0
C2082 C 0.92773 0.12518 0.01686 0.0
C2083 C 0.93029 0.11634 0.03549 0.0
C2084 C 0.94415 0.12346 0.00206 0.0
C2085 C 0.94192 0.13063 0.98161 0.0
C2086 C 0.9252 0.12343 0.97166 0.0
C2087 C 0.92305 0.13036 0.95245 0.0
C2088 C 0.93762 0.14439 0.94298 0.0
C2089 C 0.9544 0.15147 0.95268 0.0
C2090 C 0.9566 0.1446 0.9719 0.0
C2091 C 0.01618 0.07522 0.02259 0.0
C2092 C 0.0254 0.08133 0.03928 0.0
C2093 C 0.99691 0.08329 0.01795 0.0
C2094 C 0.98657 0.09773 0.02981 0.0
C2095 C 0.99627 0.1044 0.04603 0.0
C2096 C 0.01524 0.09613 0.05083 0.0
C2097 C 0.96573 0.10596 0.0254 0.0
C2098 C 0.96296 0.1142 0.0066 0.0
C2099 C 0.94882 0.10647 0.03985 0.0
C2100 C 0.94983 0.09632 0.05949 0.0
C2101 C 0.9456 0.10764 0.07623 0.0
C2102 C 0.94679 0.09812 0.09471 0.0
C2103 C 0.95208 0.07725 0.09663 0.0
C2104 C 0.95613 0.06583 0.08008 0.0
C2105 C 0.95495 0.07527 0.06157 0.0
H2106 H 0.95301 0.06991 0.11094 0.0
H2107 H 0.93593 0.14974 0.92811 0.0
H2108 H 0.00845 0.18175 0.29736 0.0
H2109 H 0.01223 0.15874 0.27007 0.0
H2110 H 0.0411 0.20895 0.23357 0.0
H2111 H 0.03606 0.23221 0.26057 0.0
H2112 H 0.01702 0.18889 0.21319 0.0
H2113 H 0.06886 0.16753 0.25624 0.0
H2114 H 0.08137 0.1555 0.28761 0.0
H2115 H 0.04337 0.10029 0.28775 0.0
H2116 H 0.03031 0.11217 0.25654 0.0
H2117 H 0.07126 0.13251 0.14031 0.0
H2118 H 0.06236 0.15312 0.16849 0.0
H2119 H 0.02493 0.10224 0.19557 0.0
H2120 H 0.03394 0.08135 0.16732 0.0
H2121 H 0.05089 0.12079 0.2211 0.0
H2122 H 1.00103 0.14197 0.17646 0.0
H2123 H 0.98948 0.15445 0.14484 0.0
H2124 H 0.02559 0.21056 0.14735 0.0
H2125 H 0.03762 0.19828 0.17886 0.0
C2126 C 0.01539 0.18784 0.28342 0.0
C2127 C 0.02196 0.20871 0.281 0.0
C2128 C 0.01776 0.17466 0.26787 0.0
C2129 C 0.02735 0.18191 0.24974 0.0
C2130 C 0.03369 0.20288 0.24734 0.0
C2131 C 0.03092 0.21616 0.26277 0.0
C2132 C 0.03091 0.16776 0.2333 0.0
C2133 C 0.02465 0.17412 0.21493 0.0
C2134 C 0.04038 0.14815 0.23553 0.0
C2135 C 0.04846 0.14084 0.25415 0.0
C2136 C 0.06307 0.15288 0.26302 0.0
C2137 C 0.07025 0.1461 0.28078 0.0
C2138 C 0.0631 0.12718 0.28971 0.0
C2139 C 0.04882 0.11498 0.28086 0.0
C2140 C 0.04153 0.12172 0.26313 0.0
C2141 C 0.06124 0.12561 0.1523 0.0
C2142 C 0.05337 0.10523 0.15158 0.0
C2143 C 0.05605 0.13749 0.16836 0.0
C2144 C 0.04286 0.1293 0.18411 0.0
C2145 C 0.0351 0.10889 0.18356 0.0
C2146 C 0.04015 0.09702 0.16737 0.0
C2147 C 0.03732 0.14216 0.20106 0.0
C2148 C 0.04318 0.13553 0.21946 0.0
C2149 C 0.02768 0.16162 0.19885 0.0
C2150 C 0.02036 0.16912 0.17996 0.0
C2151 C 0.00664 0.1569 0.1702 0.0
C2152 C 0.99998 0.16395 0.15231 0.0
C2153 C 0.00683 0.18327 0.14407 0.0
C2154 C 0.02031 0.1956 0.15374 0.0
C2155 C 0.02704 0.1886 0.17163 0.0
H2156 H 1.00167 0.1887 0.13022 0.0
H2157 H 0.06866 0.12196 0.30347 0.0
H2158 H 0.99449 0.30473 0.25383 0.0
H2159 H 0.99583 0.32731 0.22437 0.0
H2160 H 0.03621 0.37026 0.25016 0.0
H2161 H 0.03483 0.3477 0.27991 0.0
H2162 H 0.00327 0.38925 0.23073 0.0
H2163 H 0.05796 0.34104 0.21828 0.0
H2164 H 0.07347 0.30638 0.21706 0.0
H2165 H 0.03052 0.28866 0.176 0.0
H2166 H 0.01453 0.32312 0.1772 0.0
H2167 H 0.01878 0.44456 0.13851 0.0
H2168 H 0.02668 0.42621 0.16885 0.0
H2169 H 0.9949 0.37148 0.15174 0.0
H2170 H 0.98778 0.38933 0.1212 0.0
H2171 H 0.02906 0.36092 0.16783 0.0
H2172 H 0.97133 0.40599 0.1834 0.0
H2173 H 0.95369 0.43961 0.18517 0.0
H2174 H 1.00029 0.46224 0.22049 0.0
H2175 H 0.01836 0.42882 0.21872 0.0
C2176 C 0.00345 0.3191 0.25334 0.0
C2177 C 0.01454 0.32448 0.26917 0.0
C2178 C 0.00434 0.33189 0.23645 0.0
C2179 C 0.01629 0.35031 0.23505 0.0
C2180 C 0.02698 0.35604 0.25097 0.0
C2181 C 0.02625 0.34312 0.26787 0.0
C2182 C 0.01764 0.36333 0.21678 0.0
C2183 C 0.00931 0.38327 0.217 0.0
C2184 C 0.0252 0.35532 0.19889 0.0
C2185 C 0.03495 0.33464 0.19794 0.0
C2186 C 0.05172 0.32971 0.20909 0.0
C2187 C 0.06062 0.3101 0.20839 0.0
C2188 C 0.05296 0.29531 0.19648 0.0
C2189 C 0.03643 0.30013 0.18522 0.0
C2190 C 0.02746 0.31971 0.18589 0.0
C2191 C 0.01377 0.42852 0.1411 0.0
C2192 C 0.00241 0.41849 0.12755 0.0
C2193 C 0.01813 0.41812 0.15852 0.0
C2194 C 0.01109 0.39757 0.1627 0.0
C2195 C 1.00041 0.38735 0.14888 0.0
C2196 C 0.99615 0.39767 0.1315 0.0
C2197 C 0.01415 0.38669 0.18165 0.0
C2198 C 0.02335 0.3671 0.18156 0.0
C2199 C 0.00718 0.39495 0.19963 0.0
C2200 C 0.99633 0.41502 0.20072 0.0
C2201 C 0.9779 0.4182 0.19141 0.0
C2202 C 0.96782 0.4372 0.19244 0.0
C2203 C 0.97591 0.45308 0.20288 0.0
C2204 C 0.99407 0.44995 0.21237 0.0
C2205 C 0.00424 0.43099 0.21136 0.0
H2206 H 0.96807 0.46777 0.20366 0.0
H2207 H 0.05986 0.28013 0.19596 0.0
H2208 H 0.99031 0.78426 0.23697 0.0
H2209 H 0.9936 0.81531 0.25576 0.0
H2210 H 0.03442 0.84381 0.20918 0.0
H2211 H 0.03055 0.81293 0.19004 0.0
H2212 H 0.0499 0.84105 0.24808 0.0
H2213 H 0.99194 0.86536 0.21528 0.0
H2214 H 0.95723 0.86243 0.20278 0.0
H2215 H 0.9291 0.8534 0.26108 0.0
H2216 H 0.96365 0.85574 0.27395 0.0
H2217 H 0.05842 0.91877 0.31614 0.0
H2218 H 0.05325 0.90469 0.28442 0.0
H2219 H 0.99788 0.87191 0.3095 0.0
H2220 H 0.00252 0.88666 0.34079 0.0
H2221 H 0.99194 0.88423 0.27414 0.0
H2222 H 0.0479 0.84966 0.30567 0.0
H2223 H 0.08168 0.84887 0.32024 0.0
H2224 H 0.11246 0.87356 0.26649 0.0
H2225 H 0.07878 0.87475 0.25169 0.0
C2226 C 0.99952 0.7974 0.23061 0.0
C2227 C 0.00998 0.79651 0.2121 0.0
C2228 C 1.00142 0.81504 0.24129 0.0
C2229 C 0.01411 0.83182 0.23371 0.0
C2230 C 0.02445 0.83103 0.21512 0.0
C2231 C 0.02224 0.81351 0.20428 0.0
C2232 C 0.01782 0.84924 0.24613 0.0
C2233 C 0.03743 0.85096 0.25341 0.0
C2234 C 1.00135 0.86172 0.25325 0.0
C2235 C 0.98045 0.86065 0.24559 0.0
C2236 C 0.97838 0.8626 0.22545 0.0
C2237 C 0.95873 0.86106 0.21829 0.0
C2238 C 0.94099 0.85775 0.23113 0.0
C2239 C 0.94286 0.85598 0.25116 0.0
C2240 C 0.96248 0.85743 0.25839 0.0
C2241 C 0.04502 0.90878 0.3147 0.0
C2242 C 0.03093 0.90363 0.33083 0.0
C2243 C 0.04207 0.90076 0.29664 0.0
C2244 C 0.02536 0.88696 0.29466 0.0
C2245 C 0.01083 0.88257 0.31063 0.0
C2246 C 0.01353 0.89091 0.32852 0.0
C2247 C 0.02384 0.87549 0.27671 0.0
C2248 C 0.00463 0.87485 0.26839 0.0
C2249 C 0.04056 0.86361 0.2689 0.0
C2250 C 0.06083 0.86254 0.27767 0.0
C2251 C 0.06187 0.85501 0.297 0.0
C2252 C 0.08099 0.85449 0.3053 0.0
C2253 C 0.09919 0.86123 0.29432 0.0
C2254 C 0.09833 0.8684 0.27499 0.0
C2255 C 0.07924 0.86901 0.26664 0.0
H2256 H 0.11398 0.86085 0.30077 0.0
H2257 H 0.92579 0.85657 0.22556 0.0
H2258 H 0.9628 0.68411 0.24515 0.0
H2259 H 0.95585 0.66182 0.27432 0.0
H2260 H 0.01509 0.6325 0.26313 0.0
H2261 H 0.02133 0.65334 0.2329 0.0
H2262 H 0.99006 0.60453 0.27702 0.0
H2263 H 0.00491 0.67206 0.29817 0.0
H2264 H 1.00158 0.70989 0.30055 0.0
H2265 H 0.93814 0.70148 0.32415 0.0
H2266 H 0.94101 0.6636 0.32167 0.0
H2267 H 0.99841 0.57117 0.37807 0.0
H2268 H 0.00361 0.59028 0.34644 0.0
H2269 H 0.93732 0.5983 0.34606 0.0
H2270 H 0.93191 0.57869 0.37739 0.0
H2271 H 0.96581 0.6365 0.33859 0.0
H2272 H 0.95377 0.56704 0.31749 0.0
H2273 H 0.96063 0.5296 0.31661 0.0
H2274 H 0.02393 0.54284 0.2947 0.0
H2275 H 0.01752 0.58039 0.29573 0.0
C2276 C 0.97424 0.67266 0.24852 0.0
C2277 C 0.99278 0.67086 0.23643 0.0
C2278 C 0.97037 0.66009 0.26556 0.0
C2279 C 0.98516 0.64575 0.27142 0.0
C2280 C 0.00343 0.64352 0.25918 0.0
C2281 C 0.00712 0.65576 0.24191 0.0
C2282 C 0.98168 0.6332 0.29027 0.0
C2283 C 0.98499 0.61168 0.29047 0.0
C2284 C 0.97491 0.64224 0.30801 0.0
C2285 C 0.97311 0.66501 0.30954 0.0
C2286 C 0.99021 0.67829 0.30374 0.0
C2287 C 0.98841 0.69974 0.30512 0.0
C2288 C 0.96964 0.70809 0.31244 0.0
C2289 C 0.95266 0.695 0.31845 0.0
C2290 C 0.95436 0.67353 0.31707 0.0
C2291 C 0.98492 0.57683 0.37117 0.0
C2292 C 0.96473 0.57333 0.38024 0.0
C2293 C 0.98792 0.58774 0.3531 0.0
C2294 C 0.97086 0.59573 0.34391 0.0
C2295 C 0.9507 0.59228 0.3529 0.0
C2296 C 0.94764 0.58097 0.37076 0.0
C2297 C 0.9741 0.60809 0.32513 0.0
C2298 C 0.97082 0.62952 0.32504 0.0
C2299 C 0.9814 0.59908 0.30764 0.0
C2300 C 0.98522 0.57652 0.30689 0.0
C2301 C 0.96921 0.56197 0.31266 0.0
C2302 C 0.973 0.54073 0.3121 0.0
C2303 C 0.99272 0.53384 0.30566 0.0
C2304 C 0.00867 0.54819 0.29971 0.0
C2305 C 0.00496 0.56946 0.30027 0.0
H2306 H 0.99563 0.51739 0.30523 0.0
H2307 H 0.96828 0.7247 0.31351 0.0
H2308 H 0.24038 0.99861 0.19985 0.0
H2309 H 0.21591 1.00117 0.17439 0.0
H2310 H 0.26387 0.03089 0.13499 0.0
H2311 H 0.2882 0.02866 0.16073 0.0
H2312 H 0.22815 0.05018 0.13205 0.0
H2313 H 0.24928 0.98013 0.1305 0.0
H2314 H 0.25666 0.94519 0.14388 0.0
H2315 H 0.19211 0.93613 0.16364 0.0
H2316 H 0.18438 0.97119 0.15069 0.0
H2317 H 0.15887 0.04275 0.05569 0.0
H2318 H 0.19021 0.03489 0.07284 0.0
H2319 H 0.1513 0.01387 0.12387 0.0
H2320 H 0.12024 0.02204 0.10709 0.0
H2321 H 0.18676 0.98877 0.1159 0.0
H2322 H 0.1679 0.06124 0.12153 0.0
H2323 H 0.16077 0.09609 0.1077 0.0
H2324 H 0.2224 0.0998 0.07887 0.0
H2325 H 0.22976 0.06479 0.0923 0.0
C2326 C 0.2456 0.00563 0.18572 0.0
C2327 C 0.26606 0.01336 0.18209 0.0
C2328 C 0.23171 0.00702 0.17115 0.0
C2329 C 0.23811 0.01593 0.15262 0.0
C2330 C 0.25857 0.02388 0.14911 0.0
C2331 C 0.27245 0.02257 0.16374 0.0
C2332 C 0.22327 0.01719 0.13711 0.0
C2333 C 0.21945 0.03665 0.12823 0.0
C2334 C 0.21178 0.99959 0.13211 0.0
C2335 C 0.21628 0.97837 0.13972 0.0
C2336 C 0.23667 0.97075 0.13781 0.0
C2337 C 0.24091 0.95091 0.14531 0.0
C2338 C 0.22487 0.93846 0.15463 0.0
C2339 C 0.20452 0.9458 0.15642 0.0
C2340 C 0.2002 0.96565 0.14898 0.0
C2341 C 0.1571 0.03602 0.07041 0.0
C2342 C 0.1372 0.03307 0.08012 0.0
C2343 C 0.17495 0.03163 0.0802 0.0
C2344 C 0.17305 0.0239 0.09967 0.0
C2345 C 0.15314 0.01977 0.10887 0.0
C2346 C 0.13542 0.02451 0.09928 0.0
C2347 C 0.19144 0.02174 0.11126 0.0
C2348 C 0.19585 1.00216 0.11944 0.0
C2349 C 0.20358 0.03916 0.1155 0.0
C2350 C 0.19929 0.06032 0.10771 0.0
C2351 C 0.17987 0.06943 0.11212 0.0
C2352 C 0.17579 0.08921 0.10437 0.0
C2353 C 0.1911 0.10012 0.09236 0.0
C2354 C 0.21054 0.0913 0.08814 0.0
C2355 C 0.21468 0.07149 0.09582 0.0
H2356 H 0.18791 0.11543 0.08636 0.0
H2357 H 0.22818 0.9231 0.16043 0.0
H2358 H 0.78658 0.474 0.18707 0.0
H2359 H 0.81556 0.4734 0.16189 0.0
H2360 H 0.78149 0.5125 0.12373 0.0
H2361 H 0.75245 0.51343 0.14906 0.0
H2362 H 0.8036 0.47533 0.10639 0.0
H2363 H 0.81485 0.53645 0.14196 0.0
H2364 H 0.81743 0.55579 0.17169 0.0
H2365 H 0.86743 0.51707 0.18809 0.0
H2366 H 0.86492 0.49727 0.1586 0.0
H2367 H 0.89693 0.49428 0.04197 0.0
H2368 H 0.8639 0.49958 0.06145 0.0
H2369 H 0.89088 0.47468 0.11261 0.0
H2370 H 0.92357 0.46957 0.09357 0.0
H2371 H 0.87017 0.50881 0.12074 0.0
H2372 H 0.85776 0.44583 0.08828 0.0
H2373 H 0.85542 0.42433 0.05988 0.0
H2374 H 0.80836 0.464 0.03877 0.0
H2375 H 0.81063 0.48593 0.06693 0.0
C2376 C 0.78515 0.48227 0.17323 0.0
C2377 C 0.76727 0.49378 0.17003 0.0
C2378 C 0.80172 0.48196 0.1589 0.0
C2379 C 0.80065 0.49293 0.14098 0.0
C2380 C 0.78257 0.5039 0.13746 0.0
C2381 C 0.76609 0.50452 0.15195 0.0
C2382 C 0.81897 0.49365 0.12647 0.0
C2383 C 0.81807 0.48299 0.10928 0.0
C2384 C 0.8379 0.5033 0.13048 0.0
C2385 C 0.83956 0.51526 0.14816 0.0
C2386 C 0.82627 0.53194 0.15199 0.0
C2387 C 0.82774 0.543 0.16878 0.0
C2388 C 0.84255 0.53763 0.18179 0.0
C2389 C 0.85595 0.5212 0.17801 0.0
C2390 C 0.85452 0.51006 0.16125 0.0
C2391 C 0.89578 0.49003 0.05738 0.0
C2392 C 0.91292 0.48152 0.06617 0.0
C2393 C 0.8769 0.49298 0.06848 0.0
C2394 C 0.87488 0.48746 0.08852 0.0
C2395 C 0.89204 0.47915 0.09724 0.0
C2396 C 0.91076 0.47618 0.08624 0.0
C2397 C 0.85505 0.49015 0.1007 0.0
C2398 C 0.85565 0.50144 0.11757 0.0
C2399 C 0.83596 0.48084 0.09647 0.0
C2400 C 0.83455 0.46767 0.07957 0.0
C2401 C 0.84705 0.45008 0.07749 0.0
C2402 C 0.84571 0.43779 0.06146 0.0
C2403 C 0.83181 0.44284 0.0475 0.0
C2404 C 0.81916 0.46015 0.04957 0.0
C2405 C 0.82046 0.4725 0.06557 0.0
H2406 H 0.83079 0.43331 0.0351 0.0
H2407 H 0.84367 0.54622 0.19478 0.0
H2408 H 0.23292 0.02311 0.2961 0.0
H2409 H 0.20451 0.01647 0.32132 0.0
H2410 H 0.22585 0.95418 0.33101 0.0
H2411 H 0.25491 0.96086 0.30651 0.0
H2412 H 0.18228 0.95697 0.3264 0.0
H2413 H 0.23456 0.98769 0.36316 0.0
H2414 H 0.25978 0.01492 0.37014 0.0
H2415 H 0.21064 0.05913 0.37483 0.0
H2416 H 0.18515 0.03222 0.36758 0.0
H2417 H 0.11829 0.92428 0.40821 0.0
H2418 H 0.15017 0.93386 0.38792 0.0
H2419 H 0.13232 0.99807 0.38741 0.0
H2420 H 0.10066 0.98844 0.40842 0.0
H2421 H 0.17373 0.99564 0.38694 0.0
H2422 H 0.12133 0.96681 0.35078 0.0
H2423 H 0.095 0.9411 0.3428 0.0
H2424 H 0.14249 0.89555 0.33488 0.0
H2425 H 0.16906 0.92085 0.34322 0.0
C2426 C 0.23191 0.00809 0.30378 0.0
C2427 C 0.24641 0.99255 0.29909 0.0
C2428 C 0.2155 0.00429 0.31815 0.0
C2429 C 0.21305 0.98483 0.32809 0.0
C2430 C 0.22737 0.96928 0.32347 0.0
C2431 C 0.24394 0.97313 0.3093 0.0
C2432 C 0.19537 0.98054 0.34307 0.0
C2433 C 0.18056 0.96522 0.33976 0.0
C2434 C 0.1927 0.99184 0.36017 0.0
C2435 C 0.20798 0.00799 0.36463 0.0
C2436 C 0.22916 0.00327 0.36551 0.0
C2437 C 0.2435 0.01863 0.36955 0.0
C2438 C 0.23683 0.03876 0.37287 0.0
C2439 C 0.21579 0.04354 0.37222 0.0
C2440 C 0.20139 0.02824 0.36816 0.0
C2441 C 0.12159 0.94052 0.40432 0.0
C2442 C 0.10727 0.95568 0.41005 0.0
C2443 C 0.13966 0.94597 0.39252 0.0
C2444 C 0.14345 0.96664 0.38568 0.0
C2445 C 0.12975 0.98202 0.39241 0.0
C2446 C 0.11174 0.97656 0.40451 0.0
C2447 C 0.16077 0.97178 0.37045 0.0
C2448 C 0.17543 0.98734 0.37362 0.0
C2449 C 0.16312 0.96094 0.353 0.0
C2450 C 0.14718 0.9457 0.34781 0.0
C2451 C 0.12615 0.95127 0.34749 0.0
C2452 C 0.11117 0.93677 0.34289 0.0
C2453 C 0.11706 0.9167 0.33837 0.0
C2454 C 0.13795 0.9111 0.33842 0.0
C2455 C 0.15297 0.92551 0.34308 0.0
H2456 H 0.10547 0.90551 0.33477 0.0
H2457 H 0.24796 0.05063 0.376 0.0
H2458 H 0.77343 0.48135 0.2871 0.0
H2459 H 0.78749 0.48195 0.31907 0.0
H2460 H 0.73335 0.5146 0.34141 0.0
H2461 H 0.719 0.51353 0.30943 0.0
H2462 H 0.77333 0.53292 0.34754 0.0
H2463 H 0.73655 0.46882 0.35724 0.0
H2464 H 0.72484 0.43396 0.34931 0.0
H2465 H 0.78764 0.41245 0.34926 0.0
H2466 H 0.79979 0.44728 0.35694 0.0
H2467 H 0.83168 0.53553 0.42892 0.0
H2468 H 0.80014 0.52822 0.4125 0.0
H2469 H 0.83307 0.48165 0.37987 0.0
H2470 H 0.8641 0.48825 0.39689 0.0
H2471 H 0.79414 0.47048 0.38543 0.0
H2472 H 0.83168 0.53459 0.36387 0.0
H2473 H 0.84618 0.56944 0.36853 0.0
H2474 H 0.78512 0.59049 0.387 0.0
H2475 H 0.77032 0.55565 0.38269 0.0
C2476 C 0.76445 0.48832 0.29897 0.0
C2477 C 0.74512 0.49714 0.29609 0.0
C2478 C 0.77241 0.48864 0.31714 0.0
C2479 C 0.76128 0.49807 0.33258 0.0
C2480 C 0.74202 0.5071 0.32967 0.0
C2481 C 0.73391 0.50653 0.31152 0.0
C2482 C 0.77076 0.49968 0.35121 0.0
C2483 C 0.77739 0.51934 0.35621 0.0
C2484 C 0.77631 0.48186 0.36216 0.0
C2485 C 0.76907 0.46075 0.35769 0.0
C2486 C 0.74788 0.4567 0.35549 0.0
C2487 C 0.74116 0.43693 0.35102 0.0
C2488 C 0.75548 0.42099 0.34878 0.0
C2489 C 0.77655 0.4248 0.35103 0.0
C2490 C 0.78336 0.44457 0.35548 0.0
C2491 C 0.83189 0.52336 0.4186 0.0
C2492 C 0.85027 0.51256 0.41397 0.0
C2493 C 0.81395 0.51923 0.40921 0.0
C2494 C 0.8144 0.50475 0.3946 0.0
C2495 C 0.83232 0.49291 0.39106 0.0
C2496 C 0.85008 0.49671 0.40075 0.0
C2497 C 0.79755 0.50366 0.3812 0.0
C2498 C 0.78951 0.48412 0.37718 0.0
C2499 C 0.79111 0.52155 0.37075 0.0
C2500 C 0.79996 0.54249 0.37321 0.0
C2501 C 0.82139 0.54664 0.36903 0.0
C2502 C 0.82965 0.56637 0.37161 0.0
C2503 C 0.81659 0.58215 0.37812 0.0
C2504 C 0.79523 0.57823 0.38202 0.0
C2505 C 0.78689 0.5585 0.37952 0.0
H2506 H 0.82302 0.59742 0.3801 0.0
H2507 H 0.75026 0.40569 0.34531 0.0
H2508 H 0.24923 0.23388 0.02366 0.0
H2509 H 0.22561 0.20362 0.02964 0.0
H2510 H 0.1752 0.23983 0.00911 0.0
H2511 H 0.19861 0.27016 0.00396 0.0
H2512 H 0.16132 0.21849 0.03976 0.0
H2513 H 0.20135 0.20229 0.9812 0.0
H2514 H 0.23334 0.19683 0.96011 0.0
H2515 H 0.25053 0.14745 0.99917 0.0
H2516 H 0.21876 0.15281 0.02065 0.0
H2517 H 0.11888 0.10961 0.01253 0.0
H2518 H 0.14134 0.14033 0.00546 0.0
H2519 H 0.13865 0.15185 0.06668 0.0
H2520 H 0.11561 0.1216 0.07375 0.0
H2521 H 0.1784 0.14964 0.0143 0.0
H2522 H 0.14419 0.20271 0.07391 0.0
H2523 H 0.1104 0.20918 0.09186 0.0
H2524 H 0.07814 0.18674 0.04468 0.0
H2525 H 0.11172 0.18039 0.02635 0.0
C2526 C 0.23314 0.23519 0.02028 0.0
C2527 C 0.22579 0.25411 0.01294 0.0
C2528 C 0.21965 0.21794 0.02364 0.0
C2529 C 0.19862 0.21928 0.01954 0.0
C2530 C 0.19132 0.23831 0.01233 0.0
C2531 C 0.20473 0.25557 0.00919 0.0
C2532 C 0.18408 0.20104 0.02306 0.0
C2533 C 0.16509 0.20344 0.03419 0.0
C2534 C 0.18872 0.18142 0.01556 0.0
C2535 C 0.20778 0.17808 0.00262 0.0
C2536 C 0.21202 0.19036 0.98536 0.0
C2537 C 0.23011 0.18727 0.97333 0.0
C2538 C 0.24399 0.17184 0.97832 0.0
C2539 C 0.23978 0.15942 0.99534 0.0
C2540 C 0.22173 0.16246 0.00744 0.0
C2541 C 0.12287 0.11883 0.02447 0.0
C2542 C 0.11528 0.11325 0.04369 0.0
C2543 C 0.13583 0.13634 0.02041 0.0
C2544 C 0.1416 0.14861 0.03548 0.0
C2545 C 0.13412 0.14297 0.05471 0.0
C2546 C 0.12094 0.12561 0.05876 0.0
C2547 C 0.1557 0.16707 0.03109 0.0
C2548 C 0.17463 0.16469 0.01988 0.0
C2549 C 0.15076 0.18686 0.03807 0.0
C2550 C 0.13047 0.19089 0.04885 0.0
C2551 C 0.12988 0.19924 0.06734 0.0
C2552 C 0.11077 0.20287 0.07759 0.0
C2553 C 0.09214 0.19831 0.06945 0.0
C2554 C 0.09258 0.19019 0.051 0.0
C2555 C 0.11165 0.18655 0.04069 0.0
H2556 H 0.07736 0.20111 0.07741 0.0
H2557 H 0.25798 0.16947 0.96899 0.0
H2558 H 0.19612 0.74526 0.45305 0.0
H2559 H 0.16812 0.76855 0.44504 0.0
H2560 H 0.17465 0.8004 0.49782 0.0
H2561 H 0.20285 0.77734 0.50585 0.0
H2562 H 0.13403 0.79373 0.49235 0.0
H2563 H 0.19449 0.82118 0.45348 0.0
H2564 H 0.22486 0.81964 0.42951 0.0
H2565 H 0.1848 0.80253 0.38579 0.0
H2566 H 0.1542 0.80369 0.40959 0.0
H2567 H 0.08262 0.88741 0.47312 0.0
H2568 H 0.1066 0.85981 0.48019 0.0
H2569 H 0.09914 0.835 0.42414 0.0
H2570 H 0.07543 0.86319 0.41667 0.0
H2571 H 0.13873 0.83587 0.43019 0.0
H2572 H 0.0779 0.81036 0.46833 0.0
H2573 H 0.04742 0.81182 0.49218 0.0
H2574 H 0.0876 0.82474 0.53707 0.0
H2575 H 0.11832 0.82364 0.51343 0.0
C2576 C 0.19178 0.75733 0.46291 0.0
C2577 C 0.20196 0.75941 0.48008 0.0
C2578 C 0.17567 0.77063 0.45831 0.0
C2579 C 0.16935 0.78644 0.4707 0.0
C2580 C 0.17918 0.78833 0.48801 0.0
C2581 C 0.1953 0.77504 0.49262 0.0
C2582 C 0.15264 0.80111 0.46559 0.0
C2583 C 0.13516 0.8031 0.47884 0.0
C2584 C 0.15372 0.81292 0.4477 0.0
C2585 C 0.17209 0.8123 0.43337 0.0
C2586 C 0.19218 0.81693 0.43879 0.0
C2587 C 0.20943 0.81615 0.42523 0.0
C2588 C 0.20677 0.81093 0.40615 0.0
C2589 C 0.18684 0.80653 0.40058 0.0
C2590 C 0.16954 0.80726 0.4141 0.0
C2591 C 0.08579 0.87595 0.46234 0.0
C2592 C 0.07693 0.87754 0.44432 0.0
C2593 C 0.09952 0.86004 0.46647 0.0
C2594 C 0.10458 0.84501 0.45285 0.0
C2595 C 0.0955 0.84632 0.43495 0.0
C2596 C 0.08181 0.86239 0.43073 0.0
C2597 C 0.12012 0.82868 0.45704 0.0
C2598 C 0.13743 0.82638 0.44363 0.0
C2599 C 0.11884 0.81651 0.47476 0.0
C2600 C 0.1004 0.81706 0.48906 0.0
C2601 C 0.08023 0.81365 0.48326 0.0
C2602 C 0.06291 0.81439 0.49675 0.0
C2603 C 0.06557 0.81841 0.51612 0.0
C2604 C 0.08556 0.82164 0.52206 0.0
C2605 C 0.10294 0.82093 0.50862 0.0
H2606 H 0.05214 0.81899 0.52654 0.0
H2607 H 0.22014 0.81034 0.39567 0.0
H2608 H 0.84856 0.75649 0.49949 0.0
H2609 H 0.87555 0.73003 0.49544 0.0
H2610 H 0.82862 0.68502 0.48364 0.0
H2611 H 0.80179 0.71136 0.48734 0.0
H2612 H 0.85796 0.67082 0.51088 0.0
H2613 H 0.85621 0.70641 0.44704 0.0
H2614 H 0.85925 0.73753 0.42484 0.0
H2615 H 0.92189 0.74819 0.43975 0.0
H2616 H 0.9191 0.71727 0.46226 0.0
H2617 H 0.89791 0.58836 0.46003 0.0
H2618 H 0.88061 0.619 0.4718 0.0
H2619 H 0.93972 0.65164 0.46965 0.0
H2620 H 0.95744 0.62057 0.45766 0.0
H2621 H 0.91023 0.67553 0.45397 0.0
H2622 H 0.91528 0.63795 0.51322 0.0
H2623 H 0.91345 0.60912 0.53801 0.0
H2624 H 0.84729 0.60382 0.53478 0.0
H2625 H 0.84872 0.63241 0.50973 0.0
C2626 C 0.84405 0.74089 0.49618 0.0
C2627 C 0.82311 0.73596 0.49366 0.0
C2628 C 0.85946 0.72584 0.4938 0.0
C2629 C 0.85408 0.70558 0.48919 0.0
C2630 C 0.8331 0.70055 0.48721 0.0
C2631 C 0.81781 0.71562 0.48924 0.0
C2632 C 0.87017 0.68954 0.48591 0.0
C2633 C 0.86935 0.67175 0.49841 0.0
C2634 C 0.88565 0.69124 0.47015 0.0
C2635 C 0.88735 0.70969 0.4565 0.0
C2636 C 0.87056 0.7155 0.44571 0.0
C2637 C 0.87225 0.73307 0.43305 0.0
C2638 C 0.89073 0.74487 0.43093 0.0
C2639 C 0.90757 0.73907 0.44143 0.0
C2640 C 0.90595 0.72151 0.45414 0.0
C2641 C 0.90738 0.60197 0.46206 0.0
C2642 C 0.92914 0.60197 0.45782 0.0
C2643 C 0.89741 0.6195 0.46898 0.0
C2644 C 0.90883 0.6376 0.4719 0.0
C2645 C 0.93058 0.63781 0.46763 0.0
C2646 C 0.94069 0.62006 0.4608 0.0
C2647 C 0.89753 0.65632 0.47856 0.0
C2648 C 0.89918 0.67464 0.46669 0.0
C2649 C 0.88302 0.65525 0.49514 0.0
C2650 C 0.88213 0.63734 0.50952 0.0
C2651 C 0.90036 0.6305 0.51761 0.0
C2652 C 0.89938 0.61425 0.53178 0.0
C2653 C 0.88024 0.60478 0.53808 0.0
C2654 C 0.86208 0.6113 0.52999 0.0
C2655 C 0.86297 0.62753 0.5158 0.0
H2656 H 0.87949 0.59235 0.54918 0.0
H2657 H 0.89201 0.75848 0.42112 0.0
H2658 H 0.30579 0.78412 0.49397 0.0
H2659 H 0.33011 0.81275 0.49884 0.0
H2660 H 0.3653 0.77174 0.53436 0.0
H2661 H 0.34127 0.74295 0.52906 0.0
H2662 H 0.35613 0.81261 0.54979 0.0
H2663 H 0.38467 0.78087 0.49191 0.0
H2664 H 0.38258 0.76731 0.4593 0.0
H2665 H 0.36657 0.82767 0.43696 0.0
H2666 H 0.36815 0.84151 0.46955 0.0
H2667 H 0.44103 0.88293 0.55379 0.0
H2668 H 0.42096 0.85124 0.54933 0.0
H2669 H 0.39178 0.88204 0.50202 0.0
H2670 H 0.41226 0.91339 0.50592 0.0
H2671 H 0.39936 0.84432 0.4931 0.0
H2672 H 0.36774 0.87612 0.54932 0.0
H2673 H 0.36678 0.891 0.58164 0.0
H2674 H 0.38534 0.83272 0.60674 0.0
H2675 H 0.38671 0.81757 0.57449 0.0
C2676 C 0.31873 0.78131 0.5028 0.0
C2677 C 0.32183 0.76145 0.51109 0.0
C2678 C 0.33255 0.79759 0.50559 0.0
C2679 C 0.3495 0.79428 0.51689 0.0
C2680 C 0.35228 0.77456 0.52562 0.0
C2681 C 0.33864 0.7582 0.52259 0.0
C2682 C 0.36462 0.81132 0.5191 0.0
C2683 C 0.36586 0.81937 0.5375 0.0
C2684 C 0.37685 0.82038 0.50292 0.0
C2685 C 0.37635 0.81219 0.48322 0.0
C2686 C 0.38055 0.79122 0.48008 0.0
C2687 C 0.37947 0.78349 0.4616 0.0
C2688 C 0.37441 0.79661 0.44607 0.0
C2689 C 0.37047 0.81752 0.449 0.0
C2690 C 0.37146 0.82532 0.46747 0.0
C2691 C 0.43049 0.88286 0.54231 0.0
C2692 C 0.42817 0.90071 0.53028 0.0
C2693 C 0.41894 0.86478 0.53984 0.0
C2694 C 0.40455 0.86435 0.52556 0.0
C2695 C 0.40274 0.88196 0.51315 0.0
C2696 C 0.41446 0.89991 0.51544 0.0
C2697 C 0.39085 0.84588 0.52384 0.0
C2698 C 0.38982 0.83752 0.5055 0.0
C2699 C 0.37852 0.83677 0.54003 0.0
C2700 C 0.37755 0.84578 0.55946 0.0
C2701 C 0.37176 0.86652 0.56171 0.0
C2702 C 0.37112 0.875 0.58002 0.0
C2703 C 0.37605 0.86283 0.59623 0.0
C2704 C 0.38157 0.84214 0.59417 0.0
C2705 C 0.38227 0.83359 0.57588 0.0
H2706 H 0.37555 0.86942 0.61039 0.0
H2707 H 0.37357 0.79059 0.43177 0.0
H2708 H 0.50088 0.69181 0.81694 0.0
H2709 H 0.50267 0.66658 0.79135 0.0
H2710 H 0.52745 0.71438 0.74974 0.0
H2711 H 0.52479 0.73972 0.77521 0.0
H2712 H 0.50082 0.69152 0.73338 0.0
H2713 H 0.55853 0.677 0.77169 0.0
H2714 H 0.57525 0.66876 0.80197 0.0
H2715 H 0.53991 0.61169 0.81028 0.0
H2716 H 0.52274 0.61975 0.78018 0.0
H2717 H 0.55088 0.63144 0.66099 0.0
H2718 H 0.54335 0.65411 0.68793 0.0
H2719 H 0.511 0.6037 0.72127 0.0
H2720 H 0.51861 0.58075 0.69422 0.0
H2721 H 0.53892 0.62597 0.74266 0.0
H2722 H 0.48308 0.64028 0.70238 0.0
H2723 H 0.46738 0.64918 0.67171 0.0
H2724 H 0.50089 0.70741 0.66658 0.0
H2725 H 0.51705 0.69873 0.69709 0.0
C2726 C 0.50649 0.69687 0.80226 0.0
C2727 C 0.5127 0.71762 0.79796 0.0
C2728 C 0.50769 0.68246 0.78768 0.0
C2729 C 0.51553 0.68843 0.76861 0.0
C2730 C 0.52137 0.70932 0.76429 0.0
C2731 C 0.51993 0.72378 0.77882 0.0
C2732 C 0.51794 0.67298 0.75318 0.0
C2733 C 0.50933 0.6773 0.73539 0.0
C2734 C 0.52863 0.65412 0.75585 0.0
C2735 C 0.53919 0.64908 0.77378 0.0
C2736 C 0.55423 0.66275 0.78003 0.0
C2737 C 0.5638 0.65811 0.79716 0.0
C2738 C 0.5586 0.63974 0.80807 0.0
C2739 C 0.54389 0.62593 0.80183 0.0
C2740 C 0.53425 0.63052 0.78473 0.0
C2741 C 0.54223 0.62511 0.67408 0.0
C2742 C 0.53541 0.60425 0.67549 0.0
C2743 C 0.53782 0.63815 0.68943 0.0
C2744 C 0.52651 0.63066 0.7066 0.0
C2745 C 0.51972 0.60981 0.70814 0.0
C2746 C 0.52396 0.59676 0.69265 0.0
C2747 C 0.52203 0.64472 0.72287 0.0
C2748 C 0.53026 0.64013 0.74077 0.0
C2749 C 0.51119 0.66344 0.72025 0.0
C2750 C 0.50141 0.66877 0.70195 0.0
C2751 C 0.48723 0.65491 0.69464 0.0
C2752 C 0.47823 0.65993 0.67729 0.0
C2753 C 0.48317 0.67883 0.66718 0.0
C2754 C 0.49709 0.69277 0.67442 0.0
C2755 C 0.50616 0.68782 0.69175 0.0
H2756 H 0.47618 0.68269 0.65376 0.0
H2757 H 0.56601 0.63618 0.82134 0.0
H2758 H 0.48374 0.81336 0.77005 0.0
H2759 H 0.48241 0.834 0.73964 0.0
H2760 H 0.52658 0.87797 0.75879 0.0
H2761 H 0.52801 0.85724 0.78947 0.0
H2762 H 0.4905 0.8957 0.74095 0.0
H2763 H 0.54528 0.84745 0.72817 0.0
H2764 H 0.56109 0.81288 0.7284 0.0
H2765 H 0.51473 0.79095 0.69248 0.0
H2766 H 0.49843 0.82531 0.69229 0.0
H2767 H 0.5001 0.9435 0.645 0.0
H2768 H 0.50889 0.928 0.67626 0.0
H2769 H 0.47696 0.87133 0.66431 0.0
H2770 H 0.46905 0.88627 0.63277 0.0
H2771 H 0.51204 0.8626 0.67922 0.0
H2772 H 0.45472 0.90785 0.69487 0.0
H2773 H 0.43649 0.94119 0.69547 0.0
H2774 H 0.48499 0.96762 0.72634 0.0
H2775 H 0.50366 0.93449 0.7257 0.0
C2776 C 0.49297 0.82756 0.76791 0.0
C2777 C 0.50596 0.83373 0.78209 0.0
C2778 C 0.4923 0.83924 0.7505 0.0
C2779 C 0.50453 0.85737 0.74697 0.0
C2780 C 0.5171 0.86397 0.76129 0.0
C2781 C 0.51797 0.8521 0.77869 0.0
C2782 C 0.50434 0.86896 0.72802 0.0
C2783 C 0.49561 0.88872 0.72742 0.0
C2784 C 0.51063 0.85956 0.71046 0.0
C2785 C 0.52055 0.83893 0.71033 0.0
C2786 C 0.53837 0.83522 0.72043 0.0
C2787 C 0.54743 0.81566 0.72054 0.0
C2788 C 0.5389 0.79972 0.71049 0.0
C2789 C 0.52132 0.80331 0.70026 0.0
C2790 C 0.51218 0.82283 0.70013 0.0
C2791 C 0.49518 0.92765 0.64893 0.0
C2792 C 0.48372 0.91619 0.63642 0.0
C2793 C 0.50004 0.91888 0.66689 0.0
C2794 C 0.49335 0.89859 0.67275 0.0
C2795 C 0.48224 0.88704 0.66014 0.0
C2796 C 0.47751 0.8957 0.64218 0.0
C2797 C 0.49768 0.88923 0.69202 0.0
C2798 C 0.50724 0.86983 0.69269 0.0
C2799 C 0.4919 0.89887 0.70963 0.0
C2800 C 0.48071 0.91879 0.71001 0.0
C2801 C 0.46159 0.92083 0.70164 0.0
C2802 C 0.45116 0.93967 0.70201 0.0
C2803 C 0.45961 0.95653 0.71088 0.0
C2804 C 0.47849 0.95456 0.71944 0.0
C2805 C 0.48899 0.93576 0.71908 0.0
H2806 H 0.45151 0.97111 0.71116 0.0
H2807 H 0.54594 0.78459 0.7106 0.0
H2808 H 0.47179 0.33004 0.72409 0.0
H2809 H 0.46718 0.35739 0.74725 0.0
H2810 H 0.5275 0.34455 0.76742 0.0
H2811 H 0.53165 0.31608 0.74577 0.0
H2812 H 0.48076 0.34326 0.79421 0.0
H2813 H 0.53854 0.40621 0.75807 0.0
H2814 H 0.54548 0.42698 0.72726 0.0
H2815 H 0.48264 0.41598 0.71312 0.0
H2816 H 0.47529 0.39535 0.74392 0.0
H2817 H 0.54039 0.38653 0.86015 0.0
H2818 H 0.52615 0.37169 0.83213 0.0
H2819 H 0.49366 0.42841 0.82062 0.0
H2820 H 0.50851 0.44372 0.84844 0.0
H2821 H 0.51179 0.41427 0.78784 0.0
H2822 H 0.46569 0.38684 0.83884 0.0
H2823 H 0.45424 0.37077 0.87106 0.0
H2824 H 0.48585 0.31485 0.85624 0.0
H2825 H 0.49779 0.33068 0.82404 0.0
C2826 C 0.48407 0.3328 0.73354 0.0
C2827 C 0.50206 0.32049 0.73306 0.0
C2828 C 0.48151 0.34877 0.74648 0.0
C2829 C 0.49718 0.35316 0.75866 0.0
C2830 C 0.51543 0.34158 0.75775 0.0
C2831 C 0.5178 0.32532 0.74523 0.0
C2832 C 0.49386 0.36759 0.77443 0.0
C2833 C 0.48716 0.35895 0.79288 0.0
C2834 C 0.50151 0.38822 0.77243 0.0
C2835 C 0.50647 0.39896 0.75316 0.0
C2836 C 0.52626 0.4081 0.74831 0.0
C2837 C 0.53022 0.41998 0.73092 0.0
C2838 C 0.51448 0.42288 0.71829 0.0
C2839 C 0.4948 0.41376 0.72294 0.0
C2840 C 0.49078 0.40183 0.74029 0.0
C2841 C 0.53044 0.39597 0.85153 0.0
C2842 C 0.5256 0.4163 0.85645 0.0
C2843 C 0.52205 0.38736 0.8357 0.0
C2844 C 0.5085 0.39882 0.8246 0.0
C2845 C 0.5039 0.41927 0.82919 0.0
C2846 C 0.51233 0.42793 0.84507 0.0
C2847 C 0.49999 0.3894 0.80775 0.0
C2848 C 0.50468 0.39888 0.78922 0.0
C2849 C 0.48987 0.36974 0.80965 0.0
C2850 C 0.48268 0.36 0.82899 0.0
C2851 C 0.47031 0.37116 0.84248 0.0
C2852 C 0.46372 0.36208 0.86074 0.0
C2853 C 0.46932 0.34181 0.86569 0.0
C2854 C 0.48151 0.33055 0.85237 0.0
C2855 C 0.48816 0.33956 0.83409 0.0
H2856 H 0.4642 0.33481 0.87985 0.0
H2857 H 0.51758 0.43207 0.70483 0.0
H2858 H 0.51634 0.17476 0.72955 0.0
H2859 H 0.51236 0.15242 0.7593 0.0
H2860 H 0.48191 0.2019 0.78981 0.0
H2861 H 0.48672 0.22454 0.76009 0.0
H2862 H 0.5063 0.18336 0.81312 0.0
H2863 H 0.4547 0.15965 0.77312 0.0
H2864 H 0.44103 0.14718 0.7433 0.0
H2865 H 0.47915 0.09328 0.74664 0.0
H2866 H 0.4933 0.10559 0.77633 0.0
H2867 H 0.44796 0.09098 0.87336 0.0
H2868 H 0.45325 0.11323 0.84378 0.0
H2869 H 0.51742 0.12351 0.85514 0.0
H2870 H 0.51199 0.10176 0.8852 0.0
H2871 H 0.47491 0.11293 0.81124 0.0
H2872 H 0.53464 0.17115 0.83773 0.0
H2873 H 0.54404 0.18553 0.86844 0.0
H2874 H 0.48175 0.17359 0.8939 0.0
H2875 H 0.47192 0.1594 0.86327 0.0
C2876 C 0.50907 0.18093 0.7427 0.0
C2877 C 0.50216 0.2015 0.74262 0.0
C2878 C 0.50658 0.16808 0.75969 0.0
C2879 C 0.49661 0.17527 0.77692 0.0
C2880 C 0.48972 0.1959 0.77682 0.0
C2881 C 0.4924 0.20883 0.75983 0.0
C2882 C 0.49315 0.16123 0.7949 0.0
C2883 C 0.49948 0.16794 0.81265 0.0
C2884 C 0.48382 0.14121 0.7946 0.0
C2885 C 0.4752 0.13364 0.77686 0.0
C2886 C 0.46027 0.1452 0.76743 0.0
C2887 C 0.45243 0.13816 0.75055 0.0
C2888 C 0.45925 0.11947 0.74306 0.0
C2889 C 0.47389 0.10776 0.75245 0.0
C2890 C 0.48182 0.11476 0.76931 0.0
C2891 C 0.46327 0.09785 0.86955 0.0
C2892 C 0.47952 0.09456 0.8818 0.0
C2893 C 0.46629 0.11062 0.85253 0.0
C2894 C 0.48566 0.12045 0.84719 0.0
C2895 C 0.50216 0.11658 0.85904 0.0
C2896 C 0.49909 0.10395 0.8762 0.0
C2897 C 0.48837 0.1349 0.82942 0.0
C2898 C 0.48186 0.12828 0.8117 0.0
C2899 C 0.49695 0.15524 0.82988 0.0
C2900 C 0.50263 0.16402 0.84827 0.0
C2901 C 0.52294 0.17167 0.84986 0.0
C2902 C 0.52834 0.17978 0.86726 0.0
C2903 C 0.51352 0.18041 0.88313 0.0
C2904 C 0.49324 0.17302 0.88162 0.0
C2905 C 0.48775 0.16493 0.86425 0.0
H2906 H 0.51775 0.18666 0.89659 0.0
H2907 H 0.45316 0.11404 0.72999 0.0
H2908 H 0.77999 0.50781 0.66758 0.0
H2909 H 0.75149 0.50892 0.6459 0.0
H2910 H 0.7067 0.50151 0.69577 0.0
H2911 H 0.73529 0.50003 0.71734 0.0
H2912 H 0.69495 0.47906 0.66667 0.0
H2913 H 0.7188 0.54891 0.67398 0.0
H2914 H 0.74486 0.57737 0.6728 0.0
H2915 H 0.75741 0.57138 0.61131 0.0
H2916 H 0.73166 0.54259 0.61219 0.0
H2917 H 0.60513 0.52876 0.63724 0.0
H2918 H 0.63717 0.51934 0.6518 0.0
H2919 H 0.66939 0.51752 0.59474 0.0
H2920 H 0.63697 0.52667 0.57989 0.0
H2921 H 0.68966 0.5419 0.62325 0.0
H2922 H 0.66137 0.47401 0.61647 0.0
H2923 H 0.63382 0.44689 0.61911 0.0
H2924 H 0.62798 0.4508 0.68122 0.0
H2925 H 0.65528 0.4782 0.67893 0.0
C2926 C 0.76402 0.50619 0.67377 0.0
C2927 C 0.75963 0.50388 0.69399 0.0
C2928 C 0.74778 0.5069 0.66145 0.0
C2929 C 0.72692 0.50554 0.66921 0.0
C2930 C 0.72265 0.50256 0.68944 0.0
C2931 C 0.73889 0.50178 0.70175 0.0
C2932 C 0.70952 0.5082 0.65642 0.0
C2933 C 0.69378 0.49283 0.65723 0.0
C2934 C 0.70815 0.52599 0.64379 0.0
C2935 C 0.72349 0.54342 0.64319 0.0
C2936 C 0.72723 0.55354 0.66023 0.0
C2937 C 0.74194 0.56975 0.65961 0.0
C2938 C 0.75283 0.57614 0.642 0.0
C2939 C 0.74899 0.56637 0.62495 0.0
C2940 C 0.73435 0.55011 0.6255 0.0
C2941 C 0.61897 0.52623 0.62773 0.0
C2942 C 0.61855 0.52847 0.6074 0.0
C2943 C 0.63725 0.52078 0.63609 0.0
C2944 C 0.65561 0.51766 0.62435 0.0
C2945 C 0.65533 0.51981 0.60403 0.0
C2946 C 0.63683 0.52494 0.59558 0.0
C2947 C 0.67506 0.51288 0.63369 0.0
C2948 C 0.6911 0.52792 0.63235 0.0
C2949 C 0.67657 0.49493 0.64602 0.0
C2950 C 0.66029 0.47828 0.64751 0.0
C2951 C 0.65411 0.46921 0.63068 0.0
C2952 C 0.63855 0.45376 0.63212 0.0
C2953 C 0.62913 0.44715 0.65032 0.0
C2954 C 0.63529 0.45594 0.66712 0.0
C2955 C 0.65083 0.47141 0.66577 0.0
H2956 H 0.61708 0.4352 0.6514 0.0
H2957 H 0.7642 0.5887 0.64155 0.0
H2958 H 0.2624 0.97146 0.68602 0.0
H2959 H 0.29321 0.96827 0.66394 0.0
H2960 H 0.28998 0.03277 0.64614 0.0
H2961 H 0.25966 0.03629 0.66856 0.0
H2962 H 0.29392 0.00642 0.61382 0.0
H2963 H 0.32675 0.01818 0.67232 0.0
H2964 H 0.3332 0.01222 0.70684 0.0
H2965 H 0.35138 0.94979 0.69604 0.0
H2966 H 0.34473 0.95527 0.66149 0.0
H2967 H 0.39195 0.0039 0.55509 0.0
H2968 H 0.36188 0.01278 0.57724 0.0
H2969 H 0.36613 0.95376 0.60858 0.0
H2970 H 0.39643 0.94541 0.5872 0.0
H2971 H 0.36179 0.98109 0.63358 0.0
H2972 H 0.32611 0.96716 0.57666 0.0
H2973 H 0.31852 0.97144 0.54226 0.0
H2974 H 0.30463 0.03555 0.54995 0.0
H2975 H 0.31239 0.03171 0.58436 0.0
C2976 C 0.26729 0.98484 0.67673 0.0
C2977 C 0.25569 0.0033 0.67683 0.0
C2978 C 0.28548 0.98306 0.66441 0.0
C2979 C 0.29331 0.99999 0.65246 0.0
C2980 C 0.28354 0.01913 0.65432 0.0
C2981 C 0.26547 0.02092 0.66685 0.0
C2982 C 0.31155 0.99763 0.63802 0.0
C2983 C 0.30889 1.0012 0.61814 0.0
C2984 C 0.33095 0.9904 0.64358 0.0
C2985 C 0.33507 0.98709 0.66434 0.0
C2986 C 0.33196 0.00312 0.67733 0.0
C2987 C 0.33568 0.99984 0.6969 0.0
C2988 C 0.34265 0.98062 0.70364 0.0
C2989 C 0.34597 0.96466 0.6908 0.0
C2990 C 0.34224 0.96786 0.67122 0.0
C2991 C 0.38618 0.99275 0.56652 0.0
C2992 C 0.39655 0.97399 0.56941 0.0
C2993 C 0.36898 0.99781 0.57922 0.0
C2994 C 0.36157 0.98396 0.59473 0.0
C2995 C 0.37153 0.96488 0.59698 0.0
C2996 C 0.38882 0.96004 0.58462 0.0
C2997 C 0.34409 0.98932 0.6092 0.0
C2998 C 0.34689 0.9864 0.62916 0.0
C2999 C 0.32473 0.99687 0.60368 0.0
C3000 C 0.32006 0.99921 0.58301 0.0
C3001 C 0.3216 0.98221 0.57097 0.0
C3002 C 0.31724 0.98455 0.55148 0.0
C3003 C 0.31116 0.00377 0.54391 0.0
C3004 C 0.30938 0.02068 0.55583 0.0
C3005 C 0.31374 0.01843 0.57533 0.0
H3006 H 0.30779 0.00555 0.52881 0.0
H3007 H 0.34552 0.97811 0.7188 0.0
H3008 H 0.77475 0.48482 0.82925 0.0
H3009 H 0.74856 0.48142 0.85699 0.0
H3010 H 0.7045 0.51389 0.82324 0.0
H3011 H 0.73088 0.51791 0.79579 0.0
H3012 H 0.70007 0.52625 0.85813 0.0
H3013 H 0.70493 0.4589 0.83105 0.0
H3014 H 0.72258 0.42731 0.82016 0.0
H3015 H 0.74104 0.41436 0.87784 0.0
H3016 H 0.72372 0.44604 0.88901 0.0
H3017 H 0.60262 0.48474 0.8965 0.0
H3018 H 0.63528 0.4943 0.8777 0.0
H3019 H 0.66966 0.47366 0.92591 0.0
H3020 H 0.63664 0.46434 0.94514 0.0
H3021 H 0.68233 0.4565 0.88862 0.0
H3022 H 0.671 0.52257 0.91577 0.0
H3023 H 0.6505 0.55307 0.92499 0.0
H3024 H 0.64116 0.56733 0.86497 0.0
H3025 H 0.66134 0.53673 0.8554 0.0
C3026 C 0.75947 0.49125 0.8278 0.0
C3027 C 0.75483 0.50156 0.81031 0.0
C3028 C 0.74448 0.48926 0.84365 0.0
C3029 C 0.72435 0.49709 0.84219 0.0
C3030 C 0.71987 0.50773 0.82483 0.0
C3031 C 0.73496 0.51002 0.8091 0.0
C3032 C 0.70774 0.49385 0.85847 0.0
C3033 C 0.69617 0.51096 0.8647 0.0
C3034 C 0.70284 0.47399 0.86749 0.0
C3035 C 0.71327 0.45496 0.8608 0.0
C3036 C 0.7129 0.4494 0.84137 0.0
C3037 C 0.72282 0.43147 0.83516 0.0
C3038 C 0.73299 0.41888 0.84829 0.0
C3039 C 0.73321 0.42416 0.86768 0.0
C3040 C 0.72334 0.44209 0.87396 0.0
C3041 C 0.6171 0.48254 0.90325 0.0
C3042 C 0.6171 0.4738 0.92229 0.0
C3043 C 0.63576 0.48806 0.89249 0.0
C3044 C 0.65489 0.48476 0.90041 0.0
C3045 C 0.65502 0.47641 0.91958 0.0
C3046 C 0.63621 0.47121 0.93056 0.0
C3047 C 0.67452 0.4888 0.8879 0.0
C3048 C 0.68658 0.47183 0.88231 0.0
C3049 C 0.67959 0.50869 0.87921 0.0
C3050 C 0.6676 0.52726 0.88488 0.0
C3051 C 0.66446 0.53212 0.90454 0.0
C3052 C 0.65291 0.54945 0.90983 0.0
C3053 C 0.6445 0.56211 0.89558 0.0
C3054 C 0.64768 0.55751 0.876 0.0
C3055 C 0.6592 0.54019 0.87063 0.0
H3056 H 0.63556 0.57551 0.8997 0.0
H3057 H 0.74065 0.405 0.84345 0.0
H3058 H 0.28403 0.98948 0.77222 0.0
H3059 H 0.30414 0.99108 0.80083 0.0
H3060 H 0.26013 0.0341 0.82598 0.0
H3061 H 0.24018 0.03268 0.79743 0.0
H3062 H 0.29846 0.04714 0.82854 0.0
H3063 H 0.2618 0.98162 0.84044 0.0
H3064 H 0.25098 0.9462 0.83353 0.0
H3065 H 0.31467 0.92705 0.83162 0.0
H3066 H 0.3259 0.9625 0.83832 0.0
H3067 H 0.34553 0.05229 0.91547 0.0
H3068 H 0.31782 0.04357 0.89468 0.0
H3069 H 0.35743 0.99817 0.8672 0.0
H3070 H 0.38466 0.00619 0.88854 0.0
H3071 H 0.31863 0.9855 0.86789 0.0
H3072 H 0.35644 0.04913 0.84924 0.0
H3073 H 0.37021 0.08415 0.85432 0.0
H3074 H 0.3079 0.10594 0.86557 0.0
H3075 H 0.29378 0.07093 0.86085 0.0
C3076 C 0.27868 0.99921 0.78392 0.0
C3077 C 0.26071 0.0111 0.78261 0.0
C3078 C 0.29006 1.00001 0.80027 0.0
C3079 C 0.28339 0.01242 0.81567 0.0
C3080 C 0.26547 0.02433 0.81431 0.0
C3081 C 0.2542 0.02366 0.79794 0.0
C3082 C 0.29564 0.01391 0.8328 0.0
C3083 C 0.30251 0.03367 0.83737 0.0
C3084 C 0.3015 0.99623 0.84389 0.0
C3085 C 0.29469 0.97485 0.83985 0.0
C3086 C 0.27352 0.96994 0.8385 0.0
C3087 C 0.26731 0.94982 0.8346 0.0
C3088 C 0.28213 0.93437 0.83212 0.0
C3089 C 0.3032 0.93903 0.83355 0.0
C3090 C 0.30948 0.95914 0.83742 0.0
C3091 C 0.34801 0.04009 0.90531 0.0
C3092 C 0.36717 0.03001 0.90339 0.0
C3093 C 0.33227 0.03515 0.89344 0.0
C3094 C 0.3358 0.0206 0.87906 0.0
C3095 C 0.35438 0.00948 0.87814 0.0
C3096 C 0.36994 0.01409 0.8903 0.0
C3097 C 0.32139 0.0187 0.86353 0.0
C3098 C 0.31423 0.99893 0.85921 0.0
C3099 C 0.31563 0.03627 0.85229 0.0
C3100 C 0.32407 0.05738 0.85491 0.0
C3101 C 0.34569 0.06137 0.85291 0.0
C3102 C 0.35355 0.08121 0.85572 0.0
C3103 C 0.33994 0.09724 0.86032 0.0
C3104 C 0.31842 0.09349 0.86205 0.0
C3105 C 0.31048 0.07365 0.85931 0.0
H3106 H 0.34606 0.1126 0.86249 0.0
H3107 H 0.2773 0.9188 0.8291 0.0
H3108 H 0.72045 0.72112 0.50326 0.0
H3109 H 0.69595 0.69236 0.51329 0.0
H3110 H 0.65531 0.73474 0.54373 0.0
H3111 H 0.67977 0.7635 0.53355 0.0
H3112 H 0.66096 0.6985 0.56572 0.0
H3113 H 0.64326 0.71775 0.50099 0.0
H3114 H 0.65091 0.72522 0.46579 0.0
H3115 H 0.67249 0.66313 0.45904 0.0
H3116 H 0.66531 0.65539 0.49428 0.0
H3117 H 0.57718 0.62549 0.58584 0.0
H3118 H 0.5981 0.65653 0.57513 0.0
H3119 H 0.63476 0.62069 0.53412 0.0
H3120 H 0.61316 0.59012 0.54395 0.0
H3121 H 0.62988 0.65534 0.51749 0.0
H3122 H 0.65082 0.63604 0.58119 0.0
H3123 H 0.64551 0.62774 0.61649 0.0
H3124 H 0.62057 0.68822 0.62538 0.0
H3125 H 0.62551 0.69679 0.59009 0.0
C3126 C 0.70622 0.72423 0.51201 0.0
C3127 C 0.70197 0.74445 0.51767 0.0
C3128 C 0.69224 0.70784 0.51773 0.0
C3129 C 0.6737 0.71137 0.52921 0.0
C3130 C 0.6695 0.7316 0.53493 0.0
C3131 C 0.68342 0.74801 0.52909 0.0
C3132 C 0.65873 0.69396 0.53527 0.0
C3133 C 0.65392 0.68922 0.55519 0.0
C3134 C 0.64991 0.68152 0.52156 0.0
C3135 C 0.6539 0.68605 0.50031 0.0
C3136 C 0.64976 0.70573 0.49203 0.0
C3137 C 0.65401 0.71001 0.47206 0.0
C3138 C 0.66222 0.69467 0.46019 0.0
C3139 C 0.66615 0.675 0.46825 0.0
C3140 C 0.66198 0.67066 0.48822 0.0
C3141 C 0.58963 0.62431 0.57446 0.0
C3142 C 0.59348 0.60532 0.56577 0.0
C3143 C 0.60173 0.64205 0.56843 0.0
C3144 C 0.61843 0.64104 0.55402 0.0
C3145 C 0.62205 0.62207 0.54522 0.0
C3146 C 0.60967 0.60451 0.5509 0.0
C3147 C 0.63224 0.65953 0.54806 0.0
C3148 C 0.63683 0.66457 0.52811 0.0
C3149 C 0.64114 0.67203 0.56176 0.0
C3150 C 0.63834 0.66697 0.58299 0.0
C3151 C 0.6441 0.64752 0.59067 0.0
C3152 C 0.64116 0.64277 0.61067 0.0
C3153 C 0.63265 0.65742 0.62316 0.0
C3154 C 0.62713 0.67688 0.61568 0.0
C3155 C 0.63001 0.6817 0.59569 0.0
H3156 H 0.63038 0.65371 0.63864 0.0
H3157 H 0.6655 0.69802 0.44473 0.0
H3158 H 0.73542 0.29349 0.96091 0.0
H3159 H 0.7072 0.31765 0.95603 0.0
H3160 H 0.66551 0.27932 0.99489 0.0
H3161 H 0.69363 0.25481 0.99958 0.0
H3162 H 0.64638 0.29339 0.96262 0.0
H3163 H 0.68629 0.32228 0.01096 0.0
H3164 H 0.71818 0.33466 0.02466 0.0
H3165 H 0.728 0.38072 0.97782 0.0
H3166 H 0.6963 0.36841 0.96368 0.0
H3167 H 0.59368 0.3983 0.98942 0.0
H3168 H 0.61791 0.37023 0.99422 0.0
H3169 H 0.61629 0.35537 0.93408 0.0
H3170 H 0.59174 0.38352 0.92915 0.0
H3171 H 0.65623 0.367 0.97811 0.0
H3172 H 0.62714 0.30303 0.93032 0.0
H3173 H 0.59413 0.29005 0.9191 0.0
H3174 H 0.56034 0.31333 0.96943 0.0
H3175 H 0.59316 0.32619 0.98107 0.0
C3176 C 0.72021 0.29004 0.96828 0.0
C3177 C 0.71686 0.27219 0.98069 0.0
C3178 C 0.7041 0.30397 0.96556 0.0
C3179 C 0.68423 0.30042 0.97519 0.0
C3180 C 0.68069 0.28242 0.9873 0.0
C3181 C 0.69685 0.26852 0.99011 0.0
C3182 C 0.66739 0.31582 0.97304 0.0
C3183 C 0.64854 0.3095 0.96596 0.0
C3184 C 0.67001 0.3368 0.97767 0.0
C3185 C 0.68903 0.34429 0.98617 0.0
C3186 C 0.69534 0.33494 0.0035 0.0
C3187 C 0.71336 0.34197 0.01136 0.0
C3188 C 0.72514 0.35843 0.00209 0.0
C3189 C 0.71888 0.36795 0.98497 0.0
C3190 C 0.70087 0.36096 0.97703 0.0
C3191 C 0.59819 0.38892 0.97722 0.0
C3192 C 0.59071 0.39324 0.95886 0.0
C3193 C 0.61218 0.37289 0.97999 0.0
C3194 C 0.61904 0.36064 0.96454 0.0
C3195 C 0.61112 0.36445 0.94631 0.0
C3196 C 0.59706 0.38056 0.9435 0.0
C3197 C 0.63524 0.34469 0.96744 0.0
C3198 C 0.65404 0.35092 0.97466 0.0
C3199 C 0.6324 0.32361 0.96321 0.0
C3200 C 0.61259 0.31577 0.95644 0.0
C3201 C 0.61267 0.30532 0.93902 0.0
C3202 C 0.59399 0.29799 0.93258 0.0
C3203 C 0.57514 0.30093 0.94351 0.0
C3204 C 0.57494 0.31114 0.96093 0.0
C3205 C 0.59357 0.31848 0.96744 0.0
H3206 H 0.5607 0.29526 0.93849 0.0
H3207 H 0.73909 0.36385 0.0082 0.0
H3208 H 0.36081 0.2694 0.0162 0.0
H3209 H 0.38654 0.24176 0.01189 0.0
H3210 H 0.34386 0.20785 0.97947 0.0
H3211 H 0.31837 0.23533 0.98357 0.0
H3212 H 0.36309 0.18309 0.00768 0.0
H3213 H 0.3813 0.23556 0.95566 0.0
H3214 H 0.39181 0.27088 0.94318 0.0
H3215 H 0.44687 0.2676 0.97439 0.0
H3216 H 0.43651 0.23233 0.98728 0.0
H3217 H 0.41061 0.11418 0.94612 0.0
H3218 H 0.39339 0.14427 0.95932 0.0
H3219 H 0.45015 0.16325 0.98322 0.0
H3220 H 0.46782 0.13284 0.96983 0.0
H3221 H 0.42881 0.19656 0.9661 0.0
H3222 H 0.41422 0.14215 0.01362 0.0
H3223 H 0.4045 0.10662 0.02601 0.0
H3224 H 0.34379 0.11346 0.0051 0.0
H3225 H 0.35326 0.14891 0.99227 0.0
C3226 C 0.35694 0.25594 0.0083 0.0
C3227 C 0.33769 0.25453 1.0001 0.0
C3228 C 0.37163 0.24024 0.00579 0.0
C3229 C 0.36711 0.2228 0.99531 0.0
C3230 C 0.34765 0.22116 0.98762 0.0
C3231 C 0.33317 0.23691 0.98987 0.0
C3232 C 0.38263 0.20636 0.99168 0.0
C3233 C 0.37748 0.18602 0.99862 0.0
C3234 C 0.40176 0.21032 0.98046 0.0
C3235 C 0.408 0.23144 0.97263 0.0
C3236 C 0.39555 0.24245 0.96 0.0
C3237 C 0.4015 0.26244 0.95283 0.0
C3238 C 0.41996 0.27151 0.95805 0.0
C3239 C 0.43255 0.26057 0.9704 0.0
C3240 C 0.42665 0.24058 0.97764 0.0
C3241 C 0.41958 0.12472 0.9541 0.0
C3242 C 0.44059 0.12096 0.95706 0.0
C3243 C 0.40965 0.14193 0.96169 0.0
C3244 C 0.42037 0.1558 0.97255 0.0
C3245 C 0.44157 0.15264 0.97498 0.0
C3246 C 0.45162 0.13528 0.96734 0.0
C3247 C 0.40888 0.17319 0.98152 0.0
C3248 C 0.41473 0.19367 0.9756 0.0
C3249 C 0.39048 0.16941 0.9939 0.0
C3250 C 0.3845 0.1482 1.0019 0.0
C3251 C 0.39883 0.13605 0.01156 0.0
C3252 C 0.39337 0.11592 0.01867 0.0
C3253 C 0.37355 0.10778 0.01632 0.0
C3254 C 0.35914 0.11979 0.00691 0.0
C3255 C 0.36454 0.13992 0.99974 0.0
H3256 H 0.36935 0.09219 0.02182 0.0
H3257 H 0.42453 0.28699 0.95248 0.0
H3258 H 0.81881 0.29541 0.99073 0.0
H3259 H 0.84271 0.32444 0.99548 0.0
H3260 H 0.88076 0.28325 0.02798 0.0
H3261 H 0.85716 0.25409 0.02277 0.0
H3262 H 0.87128 0.32415 0.04469 0.0
H3263 H 0.89757 0.29304 0.98528 0.0
H3264 H 0.8935 0.27999 0.95276 0.0
H3265 H 0.87574 0.34053 0.93237 0.0
H3266 H 0.8793 0.35385 0.96491 0.0
H3267 H 0.95763 0.39263 0.04651 0.0
H3268 H 0.93665 0.3615 0.04224 0.0
H3269 H 0.90637 0.39379 0.99644 0.0
H3270 H 0.92775 0.42459 1.00013 0.0
H3271 H 0.91251 0.35606 0.98686 0.0
H3272 H 0.88363 0.38776 0.044 0.0
H3273 H 0.88404 0.40254 0.07629 0.0
H3274 H 0.90257 0.34391 0.10065 0.0
H3275 H 0.90258 0.32884 0.06842 0.0
C3276 C 0.83226 0.29267 0.99892 0.0
C3277 C 0.83631 0.27266 0.00634 0.0
C3278 C 0.84583 0.30917 1.00165 0.0
C3279 C 0.86347 0.3059 0.01203 0.0
C3280 C 0.86717 0.28603 0.01998 0.0
C3281 C 0.85378 0.26946 0.01699 0.0
C3282 C 0.87855 0.32307 0.0138 0.0
C3283 C 0.88056 0.33098 0.03214 0.0
C3284 C 0.89012 0.33225 0.99729 0.0
C3285 C 0.88853 0.32439 0.97758 0.0
C3286 C 0.89266 0.30353 0.9739 0.0
C3287 C 0.89045 0.29609 0.95547 0.0
C3288 C 0.88433 0.30941 0.94052 0.0
C3289 C 0.88047 0.33023 0.94397 0.0
C3290 C 0.88259 0.33773 0.9624 0.0
C3291 C 0.9467 0.39299 0.03536 0.0
C3292 C 0.9443 0.41111 0.02372 0.0
C3293 C 0.9346 0.37524 0.03302 0.0
C3294 C 0.91961 0.37542 0.01927 0.0
C3295 C 0.91778 0.39325 0.00716 0.0
C3296 C 0.93003 0.41089 0.00932 0.0
C3297 C 0.90535 0.35734 0.01784 0.0
C3298 C 0.90341 0.34923 0.99951 0.0
C3299 C 0.89349 0.34828 0.03433 0.0
C3300 C 0.89332 0.35723 0.05376 0.0
C3301 C 0.88793 0.37805 0.05621 0.0
C3302 C 0.88807 0.38648 0.0745 0.0
C3303 C 0.89337 0.37419 0.09049 0.0
C3304 C 0.89849 0.35342 0.08824 0.0
C3305 C 0.89842 0.34492 0.06997 0.0
H3306 H 0.89347 0.38074 0.10464 0.0
H3307 H 0.88261 0.30362 0.92626 0.0
loop_
_geom_bond_atom_site_label_1
_geom_bond_atom_site_label_2
_geom_bond_distance
_geom_bond_site_symmetry_2
_ccdc_geom_bond_type
C0 C1 1.443 . S
C0 N4 1.376 . S
C0 C38 1.389 . S
C1 C0 1.443 . S
C1 C2 1.340 . S
C1 H41 0.951 . S
C2 C1 1.340 . S
C2 C3 1.439 . S
C2 H42 0.950 . S
C3 C2 1.439 . S
C3 N4 1.374 . S
C3 C37 1.395 . S
N4 C0 1.376 . S
N4 C3 1.374 . S
N4 Co5 2.008 1_655 S
Co5 N4 2.008 1_455 S
Co5 N6 1.995 1_455 S
Co5 N11 2.008 . S
Co5 N16 1.995 . S
Co5 N21 2.282 . S
Co5 N27 2.282 . S
N6 Co5 1.995 1_655 S
N6 C7 1.376 . S
N6 C10 1.383 . S
C7 N6 1.376 . S
C7 C8 1.446 . S
C7 C37 1.391 . S
C8 C7 1.446 . S
C8 C9 1.339 . S
C8 H43 0.949 . S
C9 C8 1.339 . S
C9 C10 1.439 . S
C9 H44 0.950 . S
C10 N6 1.383 . S
C10 C9 1.439 . S
C10 C39 1.392 1_655 S
N11 Co5 2.008 . S
N11 C12 1.376 . S
N11 C15 1.374 . S
C12 N11 1.376 . S
C12 C13 1.443 . S
C12 C39 1.389 . S
C13 C12 1.443 . S
C13 C14 1.340 . S
C13 H45 0.951 . S
C14 C13 1.340 . S
C14 C15 1.439 . S
C14 H46 0.950 . S
C15 N11 1.374 . S
C15 C14 1.439 . S
C15 C40 1.395 . S
N16 Co5 1.995 . S
N16 C17 1.376 . S
N16 C20 1.383 . S
C17 N16 1.376 . S
C17 C18 1.446 . S
C17 C40 1.391 . S
C18 C17 1.446 . S
C18 C19 1.339 . S
C18 H47 0.949 . S
C19 C18 1.339 . S
C19 C20 1.439 . S
C19 H48 0.950 . S
C20 N16 1.383 . S
C20 C19 1.439 . S
C20 C38 1.392 1_455 S
N21 Co5 2.282 . S
N21 C24 1.332 . S
N21 C26 1.332 1_455 S
C22 C23 1.386 . S
C22 C25 1.390 . S
C23 C22 1.386 . S
C23 C24 1.382 . S
C23 H49 0.950 . S
C24 N21 1.332 . S
C24 C23 1.382 . S
C24 H35 0.952 . S
C25 C22 1.390 . S
C25 C26 1.382 1_455 S
C25 H50 0.949 1_455 S
C26 N21 1.332 1_655 S
C26 C25 1.382 1_655 S
C26 H36 0.948 . S
N27 Co5 2.282 . S
N27 C31 1.332 1_455 S
N27 C32 1.332 . S
C28 C29 1.388 1_455 S
C28 C32 1.382 . S
C28 H51 0.950 . S
C29 C28 1.388 1_655 S
C29 C30 1.386 . S
C30 C29 1.386 . S
C30 C31 1.382 . S
C30 H52 0.950 . S
C31 N27 1.332 1_655 S
C31 C30 1.382 . S
C31 H33 0.952 . S
C32 N27 1.332 . S
C32 C28 1.382 . S
C32 H34 0.948 . S
H33 C31 0.952 . S
H34 C32 0.948 . S
H35 C24 0.952 . S
H36 C26 0.948 . S
C37 C3 1.395 . S
C37 C7 1.391 . S
C38 C0 1.389 . S
C38 C20 1.392 1_655 S
C39 C10 1.392 1_455 S
C39 C12 1.389 . S
C40 C15 1.395 . S
C40 C17 1.391 . S
H41 C1 0.951 . S
H42 C2 0.950 . S
H43 C8 0.949 . S
H44 C9 0.950 . S
H45 C13 0.951 . S
H46 C14 0.950 . S
H47 C18 0.949 . S
H48 C19 0.950 . S
H49 C23 0.950 . S
H50 C25 0.949 1_655 S
H51 C28 0.950 . S
H52 C30 0.950 . S
C53 C54 1.443 . S
C53 N57 1.376 . S
C53 C91 1.413 . S
C54 C53 1.443 . S
C54 C55 1.340 . S
C54 H94 0.951 . S
C55 C54 1.340 . S
C55 C56 1.439 . S
C55 H95 0.950 . S
C56 C55 1.439 . S
C56 N57 1.374 . S
C56 C90 1.395 . S
N57 C53 1.376 . S
N57 C56 1.374 . S
N57 Co58 2.008 1_655 S
Co58 N57 2.008 1_455 S
Co58 N59 1.995 1_455 S
Co58 N64 2.008 . S
Co58 N69 1.995 . S
Co58 N74 2.282 . S
Co58 N80 2.282 . S
N59 Co58 1.995 1_655 S
N59 C60 1.376 . S
N59 C63 1.383 . S
C60 N59 1.376 . S
C60 C61 1.446 . S
C60 C90 1.391 . S
C61 C60 1.446 . S
C61 C62 1.339 . S
C61 H96 0.949 . S
C62 C61 1.339 . S
C62 C63 1.439 . S
C62 H97 0.950 . S
C63 N59 1.383 . S
C63 C62 1.439 . S
C63 C92 1.392 1_655 S
N64 Co58 2.008 . S
N64 C65 1.376 . S
N64 C68 1.374 . S
C65 N64 1.376 . S
C65 C66 1.443 . S
C65 C92 1.389 . S
C66 C65 1.443 . S
C66 C67 1.340 . S
C66 H98 0.951 . S
C67 C66 1.340 . S
C67 C68 1.439 . S
C67 H99 0.950 . S
C68 N64 1.374 . S
C68 C67 1.439 . S
C68 C93 1.395 . S
N69 Co58 1.995 . S
N69 C70 1.376 . S
N69 C73 1.383 . S
C70 N69 1.376 . S
C70 C71 1.446 . S
C70 C93 1.391 . S
C71 C70 1.446 . S
C71 C72 1.339 . S
C71 H100 0.949 . S
C72 C71 1.339 . S
C72 C73 1.439 . S
C72 H101 0.950 . S
C73 N69 1.383 . S
C73 C72 1.439 . S
C73 C91 1.362 1_455 S
N74 Co58 2.282 . S
N74 C77 1.332 . S
N74 C79 1.298 1_455 S
C75 C76 1.386 . S
C75 C78 1.388 . S
C76 C75 1.386 . S
C76 C77 1.382 . S
C76 H102 0.950 . S
C77 N74 1.332 . S
C77 C76 1.382 . S
C77 H88 0.952 . S
C78 C75 1.388 . S
C78 C79 1.376 1_455 S
C78 H103 0.950 1_455 S
C79 N74 1.298 1_655 S
C79 C78 1.376 1_655 S
C79 H89 0.993 . S
N80 Co58 2.282 . S
N80 C84 1.332 1_455 S
N80 C85 1.332 . S
C81 C82 1.388 1_455 S
C81 C85 1.382 . S
C81 H104 0.950 . S
C82 C81 1.388 1_655 S
C82 C83 1.386 . S
C83 C82 1.386 . S
C83 C84 1.382 . S
C83 H105 0.950 . S
C84 N80 1.332 1_655 S
C84 C83 1.382 . S
C84 H86 0.952 . S
C85 N80 1.332 . S
C85 C81 1.382 . S
C85 H87 0.948 . S
H86 C84 0.952 . S
H87 C85 0.948 . S
H88 C77 0.952 . S
H89 C79 0.993 . S
C90 C56 1.395 . S
C90 C60 1.391 . S
C91 C53 1.413 . S
C91 C73 1.362 1_655 S
C92 C63 1.392 1_455 S
C92 C65 1.389 . S
C93 C68 1.395 . S
C93 C70 1.391 . S
H94 C54 0.951 . S
H95 C55 0.950 . S
H96 C61 0.949 . S
H97 C62 0.950 . S
H98 C66 0.951 . S
H99 C67 0.950 . S
H100 C71 0.949 . S
H101 C72 0.950 . S
H102 C76 0.950 . S
H103 C78 0.950 1_655 S
H104 C81 0.950 . S
H105 C83 0.950 . S
C106 C107 1.443 . S
C106 N110 1.376 . S
C106 C144 1.387 . S
C107 C106 1.443 . S
C107 C108 1.340 . S
C107 H147 0.951 . S
C108 C107 1.340 . S
C108 C109 1.439 . S
C108 H148 0.950 . S
C109 C108 1.439 . S
C109 N110 1.374 . S
C109 C143 1.395 . S
N110 C106 1.376 . S
N110 C109 1.374 . S
N110 Co111 2.008 1_565 S
Co111 N110 2.008 1_545 S
Co111 N112 1.995 1_545 S
Co111 N117 2.008 . S
Co111 N122 1.995 . S
Co111 N127 2.282 . S
Co111 N133 2.282 . S
N112 Co111 1.995 1_565 S
N112 C113 1.376 . S
N112 C116 1.383 . S
C113 N112 1.376 . S
C113 C114 1.446 . S
C113 C143 1.391 . S
C114 C113 1.446 . S
C114 C115 1.339 . S
C114 H149 0.949 . S
C115 C114 1.339 . S
C115 C116 1.439 . S
C115 H150 0.950 . S
C116 N112 1.383 . S
C116 C115 1.439 . S
C116 C145 1.392 1_565 S
N117 Co111 2.008 . S
N117 C118 1.376 . S
N117 C121 1.374 . S
C118 N117 1.376 . S
C118 C119 1.443 . S
C118 C145 1.389 . S
C119 C118 1.443 . S
C119 C120 1.340 . S
C119 H151 0.951 . S
C120 C119 1.340 . S
C120 C121 1.439 . S
C120 H152 0.950 . S
C121 N117 1.374 . S
C121 C120 1.439 . S
C121 C146 1.395 . S
N122 Co111 1.995 . S
N122 C123 1.376 . S
N122 C126 1.383 . S
C123 N122 1.376 . S
C123 C124 1.446 . S
C123 C146 1.391 . S
C124 C123 1.446 . S
C124 C125 1.339 . S
C124 H153 0.949 . S
C125 C124 1.339 . S
C125 C126 1.439 . S
C125 H154 0.950 . S
C126 N122 1.383 . S
C126 C125 1.439 . S
C126 C144 1.394 1_545 S
N127 Co111 2.282 . S
N127 C130 1.332 . S
N127 C132 1.332 . S
C128 C129 1.386 . S
C128 C131 1.388 . S
C129 C128 1.386 . S
C129 C130 1.382 . S
C129 H155 0.950 . S
C130 N127 1.332 . S
C130 C129 1.382 . S
C130 H141 0.952 . S
C131 C128 1.388 . S
C131 C132 1.382 . S
C131 H156 0.950 1_545 S
C132 N127 1.332 . S
C132 C131 1.382 . S
C132 H142 0.948 1_545 S
N133 Co111 2.282 . S
N133 C137 1.332 1_545 S
N133 C138 1.332 . S
C134 C135 1.388 1_545 S
C134 C138 1.382 . S
C134 H157 0.950 . S
C135 C134 1.388 1_565 S
C135 C136 1.386 . S
C136 C135 1.386 . S
C136 C137 1.382 . S
C136 H158 0.950 . S
C137 N133 1.332 1_565 S
C137 C136 1.382 . S
C137 H139 0.952 . S
C138 N133 1.332 . S
C138 C134 1.382 . S
C138 H140 0.948 . S
H139 C137 0.952 . S
H140 C138 0.948 . S
H141 C130 0.952 . S
H142 C132 0.948 1_565 S
C143 C109 1.395 . S
C143 C113 1.391 . S
C144 C106 1.387 . S
C144 C126 1.394 1_565 S
C145 C116 1.392 1_545 S
C145 C118 1.389 . S
C146 C121 1.395 . S
C146 C123 1.391 . S
H147 C107 0.951 . S
H148 C108 0.950 . S
H149 C114 0.949 . S
H150 C115 0.950 . S
H151 C119 0.951 . S
H152 C120 0.950 . S
H153 C124 0.949 . S
H154 C125 0.950 . S
H155 C129 0.950 . S
H156 C131 0.950 1_565 S
H157 C134 0.950 . S
H158 C136 0.950 . S
C159 C160 1.443 . S
C159 N163 1.376 . S
C159 C197 1.389 . S
C160 C159 1.443 . S
C160 C161 1.340 . S
C160 H200 0.951 . S
C161 C160 1.340 . S
C161 C162 1.439 . S
C161 H201 0.950 . S
C162 C161 1.439 . S
C162 N163 1.374 . S
C162 C196 1.395 . S
N163 C159 1.376 . S
N163 C162 1.374 . S
N163 Co164 2.008 . S
Co164 N163 2.008 . S
Co164 N165 1.995 . S
Co164 N170 2.008 . S
Co164 N175 1.995 . S
Co164 N180 2.282 . S
Co164 N186 2.282 . S
N165 Co164 1.995 . S
N165 C166 1.376 . S
N165 C169 1.383 . S
C166 N165 1.376 . S
C166 C167 1.446 . S
C166 C196 1.391 . S
C167 C166 1.446 . S
C167 C168 1.339 . S
C167 H202 0.949 . S
C168 C167 1.339 . S
C168 C169 1.439 . S
C168 H203 0.950 . S
C169 N165 1.383 . S
C169 C168 1.439 . S
C169 C198 1.392 . S
N170 Co164 2.008 . S
N170 C171 1.376 . S
N170 C174 1.374 . S
C171 N170 1.376 . S
C171 C172 1.443 . S
C171 C198 1.389 . S
C172 C171 1.443 . S
C172 C173 1.340 . S
C172 H204 0.951 . S
C173 C172 1.340 . S
C173 C174 1.439 . S
C173 H205 0.950 . S
C174 N170 1.374 . S
C174 C173 1.439 . S
C174 C199 1.395 . S
N175 Co164 1.995 . S
N175 C176 1.376 . S
N175 C179 1.383 . S
C176 N175 1.376 . S
C176 C177 1.446 . S
C176 C199 1.391 . S
C177 C176 1.446 . S
C177 C178 1.339 . S
C177 H206 0.949 . S
C178 C177 1.339 . S
C178 C179 1.439 . S
C178 H207 0.950 . S
C179 N175 1.383 . S
C179 C178 1.439 . S
C179 C197 1.392 . S
N180 Co164 2.282 . S
N180 C183 1.332 . S
N180 C185 1.332 . S
C181 C182 1.386 . S
C181 C184 1.388 . S
C182 C181 1.386 . S
C182 C183 1.382 . S
C182 H208 0.950 . S
C183 N180 1.332 . S
C183 C182 1.382 . S
C183 H194 0.952 . S
C184 C181 1.388 . S
C184 C185 1.382 . S
C184 H209 0.950 . S
C185 N180 1.332 . S
C185 C184 1.382 . S
C185 H195 0.948 . S
N186 Co164 2.282 . S
N186 C190 1.332 . S
N186 C191 1.332 . S
C187 C188 1.388 . S
C187 C191 1.382 . S
C187 H210 0.950 . S
C188 C187 1.388 . S
C188 C189 1.386 . S
C189 C188 1.386 . S
C189 C190 1.382 . S
C189 H211 0.950 . S
C190 N186 1.332 . S
C190 C189 1.382 . S
C190 H192 0.952 . S
C191 N186 1.332 . S
C191 C187 1.382 . S
C191 H193 0.948 . S
H192 C190 0.952 . S
H193 C191 0.948 . S
H194 C183 0.952 . S
H195 C185 0.948 . S
C196 C162 1.395 . S
C196 C166 1.391 . S
C197 C159 1.389 . S
C197 C179 1.392 . S
C198 C169 1.392 . S
C198 C171 1.389 . S
C199 C174 1.395 . S
C199 C176 1.391 . S
H200 C160 0.951 . S
H201 C161 0.950 . S
H202 C167 0.949 . S
H203 C168 0.950 . S
H204 C172 0.951 . S
H205 C173 0.950 . S
H206 C177 0.949 . S
H207 C178 0.950 . S
H208 C182 0.950 . S
H209 C184 0.950 . S
H210 C187 0.950 . S
H211 C189 0.950 . S
C212 C213 1.443 . S
C212 N216 1.376 . S
C212 C250 1.389 . S
C213 C212 1.443 . S
C213 C214 1.340 . S
C213 H253 0.951 . S
C214 C213 1.340 . S
C214 C215 1.439 . S
C214 H254 0.950 . S
C215 C214 1.439 . S
C215 N216 1.374 . S
C215 C249 1.395 . S
N216 C212 1.376 . S
N216 C215 1.374 . S
N216 Co217 2.008 1_556 S
Co217 N216 2.008 1_554 S
Co217 N218 1.995 1_554 S
Co217 N223 2.008 . S
Co217 N228 1.995 . S
Co217 N233 2.282 . S
Co217 N239 2.282 1_554 S
N218 Co217 1.995 1_556 S
N218 C219 1.376 . S
N218 C222 1.383 . S
C219 N218 1.376 . S
C219 C220 1.446 . S
C219 C249 1.391 . S
C220 C219 1.446 . S
C220 C221 1.339 . S
C220 H255 0.949 . S
C221 C220 1.339 . S
C221 C222 1.439 . S
C221 H256 0.950 . S
C222 N218 1.383 . S
C222 C221 1.439 . S
C222 C251 1.392 1_556 S
N223 Co217 2.008 . S
N223 C224 1.376 . S
N223 C227 1.374 . S
C224 N223 1.376 . S
C224 C225 1.443 . S
C224 C251 1.389 . S
C225 C224 1.443 . S
C225 C226 1.340 . S
C225 H257 0.951 . S
C226 C225 1.340 . S
C226 C227 1.439 . S
C226 H258 0.950 . S
C227 N223 1.374 . S
C227 C226 1.439 . S
C227 C252 1.395 . S
N228 Co217 1.995 . S
N228 C229 1.376 . S
N228 C232 1.383 . S
C229 N228 1.376 . S
C229 C230 1.446 . S
C229 C252 1.391 . S
C230 C229 1.446 . S
C230 C231 1.339 . S
C230 H259 0.949 . S
C231 C230 1.339 . S
C231 C232 1.439 . S
C231 H260 0.950 . S
C232 N228 1.383 . S
C232 C231 1.439 . S
C232 C250 1.392 1_554 S
N233 Co217 2.282 . S
N233 C236 1.332 . S
N233 C238 1.332 1_554 S
C234 C235 1.386 . S
C234 C237 1.388 1_554 S
C235 C234 1.386 . S
C235 C236 1.382 . S
C235 H261 0.950 . S
C236 N233 1.332 . S
C236 C235 1.382 . S
C236 H247 0.952 . S
C237 C234 1.388 1_556 S
C237 C238 1.382 . S
C237 H262 0.950 . S
C238 N233 1.332 1_556 S
C238 C237 1.382 . S
C238 H248 0.948 . S
N239 Co217 2.282 1_556 S
N239 C243 1.332 . S
N239 C244 1.332 1_556 S
C240 C241 1.388 1_554 S
C240 C244 1.382 . S
C240 H263 0.950 . S
C241 C240 1.388 1_556 S
C241 C242 1.386 . S
C242 C241 1.386 . S
C242 C243 1.382 . S
C242 H264 0.950 . S
C243 N239 1.332 . S
C243 C242 1.382 . S
C243 H245 0.952 . S
C244 N239 1.332 1_554 S
C244 C240 1.382 . S
C244 H246 0.948 . S
H245 C243 0.952 . S
H246 C244 0.948 . S
H247 C236 0.952 . S
H248 C238 0.948 . S
C249 C215 1.395 . S
C249 C219 1.391 . S
C250 C212 1.389 . S
C250 C232 1.392 1_556 S
C251 C222 1.392 1_554 S
C251 C224 1.389 . S
C252 C227 1.395 . S
C252 C229 1.391 . S
H253 C213 0.951 . S
H254 C214 0.950 . S
H255 C220 0.949 . S
H256 C221 0.950 . S
H257 C225 0.951 . S
H258 C226 0.950 . S
H259 C230 0.949 . S
H260 C231 0.950 . S
H261 C235 0.950 . S
H262 C237 0.950 . S
H263 C240 0.950 . S
H264 C242 0.950 . S
C265 C266 1.443 . S
C265 N269 1.376 . S
C265 C303 1.389 . S
C266 C265 1.443 . S
C266 C267 1.340 . S
C266 H306 0.951 . S
C267 C266 1.340 . S
C267 C268 1.439 . S
C267 H307 0.950 . S
C268 C267 1.439 . S
C268 N269 1.374 . S
C268 C302 1.395 . S
N269 C265 1.376 . S
N269 C268 1.374 . S
N269 Co270 2.008 . S
Co270 N269 2.008 . S
Co270 N271 1.995 . S
Co270 N276 2.008 . S
Co270 N281 1.995 . S
Co270 N286 2.282 . S
Co270 N292 2.282 . S
N271 Co270 1.995 . S
N271 C272 1.376 . S
N271 C275 1.383 . S
C272 N271 1.376 . S
C272 C273 1.446 . S
C272 C302 1.391 . S
C273 C272 1.446 . S
C273 C274 1.339 . S
C273 H308 0.949 . S
C274 C273 1.339 . S
C274 C275 1.439 . S
C274 H309 0.950 . S
C275 N271 1.383 . S
C275 C274 1.439 . S
C275 C304 1.392 . S
N276 Co270 2.008 . S
N276 C277 1.376 . S
N276 C280 1.374 . S
C277 N276 1.376 . S
C277 C278 1.443 . S
C277 C304 1.389 . S
C278 C277 1.443 . S
C278 C279 1.340 . S
C278 H310 0.951 . S
C279 C278 1.340 . S
C279 C280 1.439 . S
C279 H311 0.950 . S
C280 N276 1.374 . S
C280 C279 1.439 . S
C280 C305 1.395 . S
N281 Co270 1.995 . S
N281 C282 1.376 . S
N281 C285 1.383 . S
C282 N281 1.376 . S
C282 C283 1.446 . S
C282 C305 1.391 . S
C283 C282 1.446 . S
C283 C284 1.339 . S
C283 H312 0.949 . S
C284 C283 1.339 . S
C284 C285 1.439 . S
C284 H313 0.950 . S
C285 N281 1.383 . S
C285 C284 1.439 . S
C285 C303 1.392 . S
N286 Co270 2.282 . S
N286 C289 1.332 . S
N286 C291 1.332 . S
C287 C288 1.386 . S
C287 C290 1.388 . S
C288 C287 1.386 . S
C288 C289 1.382 . S
C288 H314 0.950 . S
C289 N286 1.332 . S
C289 C288 1.382 . S
C289 H300 0.952 . S
C290 C287 1.388 . S
C290 C291 1.382 . S
C290 H315 0.950 . S
C291 N286 1.332 . S
C291 C290 1.382 . S
C291 H301 0.948 . S
N292 Co270 2.282 . S
N292 C296 1.332 . S
N292 C297 1.332 . S
C293 C294 1.388 . S
C293 C297 1.382 . S
C293 H316 0.950 . S
C294 C293 1.388 . S
C294 C295 1.386 . S
C295 C294 1.386 . S
C295 C296 1.382 . S
C295 H317 0.950 . S
C296 N292 1.332 . S
C296 C295 1.382 . S
C296 H298 0.952 . S
C297 N292 1.332 . S
C297 C293 1.382 . S
C297 H299 0.948 . S
H298 C296 0.952 . S
H299 C297 0.948 . S
H300 C289 0.952 . S
H301 C291 0.948 . S
C302 C268 1.395 . S
C302 C272 1.391 . S
C303 C265 1.389 . S
C303 C285 1.392 . S
C304 C275 1.392 . S
C304 C277 1.389 . S
C305 C280 1.395 . S
C305 C282 1.391 . S
H306 C266 0.951 . S
H307 C267 0.950 . S
H308 C273 0.949 . S
H309 C274 0.950 . S
H310 C278 0.951 . S
H311 C279 0.950 . S
H312 C283 0.949 . S
H313 C284 0.950 . S
H314 C288 0.950 . S
H315 C290 0.950 . S
H316 C293 0.950 . S
H317 C295 0.950 . S
C318 C319 1.443 . S
C318 N322 1.376 . S
C318 C356 1.389 . S
C319 C318 1.443 . S
C319 C320 1.340 . S
C319 H359 0.951 . S
C320 C319 1.340 . S
C320 C321 1.439 . S
C320 H360 0.950 . S
C321 C320 1.439 . S
C321 N322 1.374 . S
C321 C355 1.395 . S
N322 C318 1.376 . S
N322 C321 1.374 . S
N322 Co323 2.008 . S
Co323 N322 2.008 . S
Co323 N324 1.995 . S
Co323 N329 2.008 . S
Co323 N334 1.995 . S
Co323 N339 2.282 . S
Co323 N345 2.282 . S
N324 Co323 1.995 . S
N324 C325 1.376 . S
N324 C328 1.383 . S
C325 N324 1.376 . S
C325 C326 1.446 . S
C325 C355 1.391 . S
C326 C325 1.446 . S
C326 C327 1.339 . S
C326 H361 0.949 . S
C327 C326 1.339 . S
C327 C328 1.439 . S
C327 H362 0.950 . S
C328 N324 1.383 . S
C328 C327 1.439 . S
C328 C357 1.392 . S
N329 Co323 2.008 . S
N329 C330 1.376 . S
N329 C333 1.374 . S
C330 N329 1.376 . S
C330 C331 1.443 . S
C330 C357 1.389 . S
C331 C330 1.443 . S
C331 C332 1.340 . S
C331 H363 0.951 . S
C332 C331 1.340 . S
C332 C333 1.439 . S
C332 H364 0.950 . S
C333 N329 1.374 . S
C333 C332 1.439 . S
C333 C358 1.395 . S
N334 Co323 1.995 . S
N334 C335 1.376 . S
N334 C338 1.383 . S
C335 N334 1.376 . S
C335 C336 1.446 . S
C335 C358 1.391 . S
C336 C335 1.446 . S
C336 C337 1.339 . S
C336 H365 0.949 . S
C337 C336 1.339 . S
C337 C338 1.439 . S
C337 H366 0.950 . S
C338 N334 1.383 . S
C338 C337 1.439 . S
C338 C356 1.392 . S
N339 Co323 2.282 . S
N339 C342 1.332 . S
N339 C344 1.332 . S
C340 C341 1.386 . S
C340 C343 1.388 . S
C341 C340 1.386 . S
C341 C342 1.382 . S
C341 H367 0.950 . S
C342 N339 1.332 . S
C342 C341 1.382 . S
C342 H353 0.952 . S
C343 C340 1.388 . S
C343 C344 1.382 . S
C343 H368 0.950 . S
C344 N339 1.332 . S
C344 C343 1.382 . S
C344 H354 0.948 . S
N345 Co323 2.282 . S
N345 C349 1.332 . S
N345 C350 1.332 . S
C346 C347 1.388 . S
C346 C350 1.382 . S
C346 H369 0.950 . S
C347 C346 1.388 . S
C347 C348 1.386 . S
C348 C347 1.386 . S
C348 C349 1.382 . S
C348 H370 0.950 . S
C349 N345 1.332 . S
C349 C348 1.382 . S
C349 H351 0.952 . S
C350 N345 1.332 . S
C350 C346 1.382 . S
C350 H352 0.948 . S
H351 C349 0.952 . S
H352 C350 0.948 . S
H353 C342 0.952 . S
H354 C344 0.948 . S
C355 C321 1.395 . S
C355 C325 1.391 . S
C356 C318 1.389 . S
C356 C338 1.392 . S
C357 C328 1.392 . S
C357 C330 1.389 . S
C358 C333 1.395 . S
C358 C335 1.391 . S
H359 C319 0.951 . S
H360 C320 0.950 . S
H361 C326 0.949 . S
H362 C327 0.950 . S
H363 C331 0.951 . S
H364 C332 0.950 . S
H365 C336 0.949 . S
H366 C337 0.950 . S
H367 C341 0.950 . S
H368 C343 0.950 . S
H369 C346 0.950 . S
H370 C348 0.950 . S
C371 C372 1.443 . S
C371 N375 1.376 . S
C371 C409 1.389 . S
C372 C371 1.443 . S
C372 C373 1.340 . S
C372 H412 0.951 . S
C373 C372 1.340 . S
C373 C374 1.439 . S
C373 H413 0.950 . S
C374 C373 1.439 . S
C374 N375 1.374 . S
C374 C408 1.395 . S
N375 C371 1.376 . S
N375 C374 1.374 . S
N375 Co376 2.008 . S
Co376 N375 2.008 . S
Co376 N377 1.995 . S
Co376 N382 2.008 . S
Co376 N387 1.995 . S
Co376 N392 2.282 . S
Co376 N398 2.282 . S
N377 Co376 1.995 . S
N377 C378 1.376 . S
N377 C381 1.383 . S
C378 N377 1.376 . S
C378 C379 1.446 . S
C378 C408 1.391 . S
C379 C378 1.446 . S
C379 C380 1.339 . S
C379 H414 0.949 . S
C380 C379 1.339 . S
C380 C381 1.439 . S
C380 H415 0.950 . S
C381 N377 1.383 . S
C381 C380 1.439 . S
C381 C410 1.392 . S
N382 Co376 2.008 . S
N382 C383 1.376 . S
N382 C386 1.374 . S
C383 N382 1.376 . S
C383 C384 1.443 . S
C383 C410 1.389 . S
C384 C383 1.443 . S
C384 C385 1.340 . S
C384 H416 0.951 . S
C385 C384 1.340 . S
C385 C386 1.439 . S
C385 H417 0.950 . S
C386 N382 1.374 . S
C386 C385 1.439 . S
C386 C411 1.395 . S
N387 Co376 1.995 . S
N387 C388 1.376 . S
N387 C391 1.383 . S
C388 N387 1.376 . S
C388 C389 1.446 . S
C388 C411 1.391 . S
C389 C388 1.446 . S
C389 C390 1.339 . S
C389 H418 0.949 . S
C390 C389 1.339 . S
C390 C391 1.439 . S
C390 H419 0.950 . S
C391 N387 1.383 . S
C391 C390 1.439 . S
C391 C409 1.392 . S
N392 Co376 2.282 . S
N392 C395 1.332 . S
N392 C397 1.332 . S
C393 C394 1.386 . S
C393 C396 1.388 . S
C394 C393 1.386 . S
C394 C395 1.382 . S
C394 H420 0.950 . S
C395 N392 1.332 . S
C395 C394 1.382 . S
C395 H406 0.952 . S
C396 C393 1.388 . S
C396 C397 1.382 . S
C396 H421 0.950 . S
C397 N392 1.332 . S
C397 C396 1.382 . S
C397 H407 0.948 . S
N398 Co376 2.282 . S
N398 C402 1.332 . S
N398 C403 1.332 . S
C399 C400 1.388 . S
C399 C403 1.382 . S
C399 H422 0.950 . S
C400 C399 1.388 . S
C400 C401 1.386 . S
C401 C400 1.386 . S
C401 C402 1.382 . S
C401 H423 0.950 . S
C402 N398 1.332 . S
C402 C401 1.382 . S
C402 H404 0.952 . S
C403 N398 1.332 . S
C403 C399 1.382 . S
C403 H405 0.948 . S
H404 C402 0.952 . S
H405 C403 0.948 . S
H406 C395 0.952 . S
H407 C397 0.948 . S
C408 C374 1.395 . S
C408 C378 1.391 . S
C409 C371 1.389 . S
C409 C391 1.392 . S
C410 C381 1.392 . S
C410 C383 1.389 . S
C411 C386 1.395 . S
C411 C388 1.391 . S
H412 C372 0.951 . S
H413 C373 0.950 . S
H414 C379 0.949 . S
H415 C380 0.950 . S
H416 C384 0.951 . S
H417 C385 0.950 . S
H418 C389 0.949 . S
H419 C390 0.950 . S
H420 C394 0.950 . S
H421 C396 0.950 . S
H422 C399 0.950 . S
H423 C401 0.950 . S
C424 C425 1.443 . S
C424 N428 1.376 . S
C424 C462 1.389 . S
C425 C424 1.443 . S
C425 C426 1.340 . S
C425 H465 0.951 . S
C426 C425 1.340 . S
C426 C427 1.439 . S
C426 H466 0.950 . S
C427 C426 1.439 . S
C427 N428 1.374 . S
C427 C461 1.395 . S
N428 C424 1.376 . S
N428 C427 1.374 . S
N428 Co429 2.008 . S
Co429 N428 2.008 . S
Co429 N430 1.995 . S
Co429 N435 2.008 . S
Co429 N440 1.995 . S
Co429 N445 2.282 . S
Co429 N451 2.282 . S
N430 Co429 1.995 . S
N430 C431 1.376 . S
N430 C434 1.383 . S
C431 N430 1.376 . S
C431 C432 1.446 . S
C431 C461 1.391 . S
C432 C431 1.446 . S
C432 C433 1.339 . S
C432 H467 0.949 . S
C433 C432 1.339 . S
C433 C434 1.439 . S
C433 H468 0.950 . S
C434 N430 1.383 . S
C434 C433 1.439 . S
C434 C463 1.392 . S
N435 Co429 2.008 . S
N435 C436 1.376 . S
N435 C439 1.374 . S
C436 N435 1.376 . S
C436 C437 1.443 . S
C436 C463 1.389 . S
C437 C436 1.443 . S
C437 C438 1.340 . S
C437 H469 0.951 . S
C438 C437 1.340 . S
C438 C439 1.439 . S
C438 H470 0.950 . S
C439 N435 1.374 . S
C439 C438 1.439 . S
C439 C464 1.395 . S
N440 Co429 1.995 . S
N440 C441 1.376 . S
N440 C444 1.383 . S
C441 N440 1.376 . S
C441 C442 1.446 . S
C441 C464 1.391 . S
C442 C441 1.446 . S
C442 C443 1.339 . S
C442 H471 0.949 . S
C443 C442 1.339 . S
C443 C444 1.439 . S
C443 H472 0.950 . S
C444 N440 1.383 . S
C444 C443 1.439 . S
C444 C462 1.392 . S
N445 Co429 2.282 . S
N445 C448 1.332 . S
N445 C450 1.332 . S
C446 C447 1.386 . S
C446 C449 1.388 . S
C447 C446 1.386 . S
C447 C448 1.382 . S
C447 H473 0.950 . S
C448 N445 1.332 . S
C448 C447 1.382 . S
C448 H459 0.952 . S
C449 C446 1.388 . S
C449 C450 1.382 . S
C449 H474 0.950 . S
C450 N445 1.332 . S
C450 C449 1.382 . S
C450 H460 0.948 . S
N451 Co429 2.282 . S
N451 C455 1.332 . S
N451 C456 1.332 . S
C452 C453 1.388 . S
C452 C456 1.382 . S
C452 H475 0.950 . S
C453 C452 1.388 . S
C453 C454 1.386 . S
C454 C453 1.386 . S
C454 C455 1.382 . S
C454 H476 0.950 . S
C455 N451 1.332 . S
C455 C454 1.382 . S
C455 H457 0.952 . S
C456 N451 1.332 . S
C456 C452 1.382 . S
C456 H458 0.948 . S
H457 C455 0.952 . S
H458 C456 0.948 . S
H459 C448 0.952 . S
H460 C450 0.948 . S
C461 C427 1.395 . S
C461 C431 1.391 . S
C462 C424 1.389 . S
C462 C444 1.392 . S
C463 C434 1.392 . S
C463 C436 1.389 . S
C464 C439 1.395 . S
C464 C441 1.391 . S
H465 C425 0.951 . S
H466 C426 0.950 . S
H467 C432 0.949 . S
H468 C433 0.950 . S
H469 C437 0.951 . S
H470 C438 0.950 . S
H471 C442 0.949 . S
H472 C443 0.950 . S
H473 C447 0.950 . S
H474 C449 0.950 . S
H475 C452 0.950 . S
H476 C454 0.950 . S
C477 C478 1.443 . S
C477 N481 1.376 . S
C477 C515 1.389 . S
C478 C477 1.443 . S
C478 C479 1.340 . S
C478 H518 0.951 . S
C479 C478 1.340 . S
C479 C480 1.439 . S
C479 H519 0.950 . S
C480 C479 1.439 . S
C480 N481 1.374 . S
C480 C514 1.395 . S
N481 C477 1.376 . S
N481 C480 1.374 . S
N481 Co482 2.008 . S
Co482 N481 2.008 . S
Co482 N483 1.995 . S
Co482 N488 2.008 . S
Co482 N493 1.995 . S
Co482 N498 2.282 . S
Co482 N504 2.282 . S
N483 Co482 1.995 . S
N483 C484 1.376 . S
N483 C487 1.383 . S
C484 N483 1.376 . S
C484 C485 1.446 . S
C484 C514 1.391 . S
C485 C484 1.446 . S
C485 C486 1.339 . S
C485 H520 0.949 . S
C486 C485 1.339 . S
C486 C487 1.439 . S
C486 H521 0.950 . S
C487 N483 1.383 . S
C487 C486 1.439 . S
C487 C516 1.392 . S
N488 Co482 2.008 . S
N488 C489 1.376 . S
N488 C492 1.374 . S
C489 N488 1.376 . S
C489 C490 1.443 . S
C489 C516 1.389 . S
C490 C489 1.443 . S
C490 C491 1.340 . S
C490 H522 0.951 . S
C491 C490 1.340 . S
C491 C492 1.439 . S
C491 H523 0.950 . S
C492 N488 1.374 . S
C492 C491 1.439 . S
C492 C517 1.395 . S
N493 Co482 1.995 . S
N493 C494 1.376 . S
N493 C497 1.383 . S
C494 N493 1.376 . S
C494 C495 1.446 . S
C494 C517 1.391 . S
C495 C494 1.446 . S
C495 C496 1.339 . S
C495 H524 0.949 . S
C496 C495 1.339 . S
C496 C497 1.439 . S
C496 H525 0.950 . S
C497 N493 1.383 . S
C497 C496 1.439 . S
C497 C515 1.392 . S
N498 Co482 2.282 . S
N498 C501 1.332 . S
N498 C503 1.332 . S
C499 C500 1.386 . S
C499 C502 1.388 . S
C500 C499 1.386 . S
C500 C501 1.382 . S
C500 H526 0.950 . S
C501 N498 1.332 . S
C501 C500 1.382 . S
C501 H512 0.952 . S
C502 C499 1.388 . S
C502 C503 1.382 . S
C502 H527 0.950 . S
C503 N498 1.332 . S
C503 C502 1.382 . S
C503 H513 0.948 . S
N504 Co482 2.282 . S
N504 C508 1.332 . S
N504 C509 1.332 . S
C505 C506 1.388 . S
C505 C509 1.382 . S
C505 H528 0.950 . S
C506 C505 1.388 . S
C506 C507 1.386 . S
C507 C506 1.386 . S
C507 C508 1.382 . S
C507 H529 0.950 . S
C508 N504 1.332 . S
C508 C507 1.382 . S
C508 H510 0.952 . S
C509 N504 1.332 . S
C509 C505 1.382 . S
C509 H511 0.948 . S
H510 C508 0.952 . S
H511 C509 0.948 . S
H512 C501 0.952 . S
H513 C503 0.948 . S
C514 C480 1.395 . S
C514 C484 1.391 . S
C515 C477 1.389 . S
C515 C497 1.392 . S
C516 C487 1.392 . S
C516 C489 1.389 . S
C517 C492 1.395 . S
C517 C494 1.391 . S
H518 C478 0.951 . S
H519 C479 0.950 . S
H520 C485 0.949 . S
H521 C486 0.950 . S
H522 C490 0.951 . S
H523 C491 0.950 . S
H524 C495 0.949 . S
H525 C496 0.950 . S
H526 C500 0.950 . S
H527 C502 0.950 . S
H528 C505 0.950 . S
H529 C507 0.950 . S
C530 C531 1.443 . S
C530 N534 1.376 . S
C530 C568 1.389 . S
C531 C530 1.443 . S
C531 C532 1.340 . S
C531 H571 0.951 . S
C532 C531 1.340 . S
C532 C533 1.439 . S
C532 H572 0.950 . S
C533 C532 1.439 . S
C533 N534 1.374 . S
C533 C567 1.395 . S
N534 C530 1.376 . S
N534 C533 1.374 . S
N534 Co535 2.008 . S
Co535 N534 2.008 . S
Co535 N536 1.995 . S
Co535 N541 2.008 1_545 S
Co535 N546 1.995 1_545 S
Co535 N551 2.277 1_545 S
Co535 N557 2.282 . S
N536 Co535 1.995 . S
N536 C537 1.376 . S
N536 C540 1.383 . S
C537 N536 1.376 . S
C537 C538 1.446 . S
C537 C567 1.391 . S
C538 C537 1.446 . S
C538 C539 1.339 . S
C538 H573 0.949 . S
C539 C538 1.339 . S
C539 C540 1.439 . S
C539 H574 0.950 . S
C540 N536 1.383 . S
C540 C539 1.439 . S
C540 C569 1.392 1_545 S
N541 Co535 2.008 1_565 S
N541 C542 1.376 . S
N541 C545 1.374 . S
C542 N541 1.376 . S
C542 C543 1.443 . S
C542 C569 1.389 . S
C543 C542 1.443 . S
C543 C544 1.340 . S
C543 H575 0.951 . S
C544 C543 1.340 . S
C544 C545 1.439 . S
C544 H576 0.950 . S
C545 N541 1.374 . S
C545 C544 1.439 . S
C545 C570 1.395 . S
N546 Co535 1.995 1_565 S
N546 C547 1.376 . S
N546 C550 1.383 . S
C547 N546 1.376 . S
C547 C548 1.446 . S
C547 C570 1.391 . S
C548 C547 1.446 . S
C548 C549 1.339 . S
C548 H577 0.949 . S
C549 C548 1.339 . S
C549 C550 1.439 . S
C549 H578 0.950 . S
C550 N546 1.383 . S
C550 C549 1.439 . S
C550 C568 1.392 1_565 S
N551 Co535 2.277 1_565 S
N551 C554 1.370 . S
N551 C556 1.305 1_565 S
C552 C553 1.386 . S
C552 C555 1.388 1_565 S
C553 C552 1.386 . S
C553 C554 1.382 . S
C553 H579 0.950 . S
C554 N551 1.370 . S
C554 C553 1.382 . S
C554 H565 0.952 . S
C555 C552 1.388 1_545 S
C555 C556 1.382 . S
C555 H580 0.950 . S
C556 N551 1.305 1_545 S
C556 C555 1.382 . S
C556 H566 0.948 . S
N557 Co535 2.282 . S
N557 C561 1.332 . S
N557 C562 1.332 1_545 S
C558 C559 1.388 1_565 S
C558 C562 1.382 . S
C558 H581 0.950 . S
C559 C558 1.388 1_545 S
C559 C560 1.386 . S
C560 C559 1.386 . S
C560 C561 1.382 . S
C560 H582 0.950 . S
C561 N557 1.332 . S
C561 C560 1.382 . S
C561 H563 0.952 . S
C562 N557 1.332 1_565 S
C562 C558 1.382 . S
C562 H564 0.948 . S
H563 C561 0.952 . S
H564 C562 0.948 . S
H565 C554 0.952 . S
H566 C556 0.948 . S
C567 C533 1.395 . S
C567 C537 1.391 . S
C568 C530 1.389 . S
C568 C550 1.392 1_545 S
C569 C540 1.392 1_565 S
C569 C542 1.389 . S
C570 C545 1.395 . S
C570 C547 1.391 . S
H571 C531 0.951 . S
H572 C532 0.950 . S
H573 C538 0.949 . S
H574 C539 0.950 . S
H575 C543 0.951 . S
H576 C544 0.950 . S
H577 C548 0.949 . S
H578 C549 0.950 . S
H579 C553 0.950 . S
H580 C555 0.950 . S
H581 C558 0.950 . S
H582 C560 0.950 . S
C583 C584 1.443 . S
C583 N587 1.376 . S
C583 C621 1.421 . S
C584 C583 1.443 . S
C584 C585 1.340 . S
C584 H624 0.951 . S
C585 C584 1.340 . S
C585 C586 1.439 . S
C585 H625 0.950 . S
C586 C585 1.439 . S
C586 N587 1.374 . S
C586 C620 1.395 . S
N587 C583 1.376 . S
N587 C586 1.374 . S
N587 Co588 2.008 1_556 S
Co588 N587 2.008 1_554 S
Co588 N589 1.995 1_554 S
Co588 N594 2.008 . S
Co588 N599 1.995 . S
Co588 N604 2.282 . S
Co588 N610 2.282 . S
N589 Co588 1.995 1_556 S
N589 C590 1.376 . S
N589 C593 1.383 . S
C590 N589 1.376 . S
C590 C591 1.446 . S
C590 C620 1.391 . S
C591 C590 1.446 . S
C591 C592 1.339 . S
C591 H626 0.949 . S
C592 C591 1.339 . S
C592 C593 1.439 . S
C592 H627 0.950 . S
C593 N589 1.383 . S
C593 C592 1.439 . S
C593 C622 1.392 1_556 S
N594 Co588 2.008 . S
N594 C595 1.376 . S
N594 C598 1.374 . S
C595 N594 1.376 . S
C595 C596 1.443 . S
C595 C622 1.389 . S
C596 C595 1.443 . S
C596 C597 1.340 . S
C596 H628 0.951 . S
C597 C596 1.340 . S
C597 C598 1.439 . S
C597 H629 0.950 . S
C598 N594 1.374 . S
C598 C597 1.439 . S
C598 C623 1.395 . S
N599 Co588 1.995 . S
N599 C600 1.376 . S
N599 C603 1.383 . S
C600 N599 1.376 . S
C600 C601 1.446 . S
C600 C623 1.391 . S
C601 C600 1.446 . S
C601 C602 1.339 . S
C601 H630 0.949 . S
C602 C601 1.339 . S
C602 C603 1.439 . S
C602 H631 0.950 . S
C603 N599 1.383 . S
C603 C602 1.439 . S
C603 C621 1.349 1_554 S
N604 Co588 2.282 . S
N604 C607 1.332 . S
N604 C609 1.330 . S
C605 C606 1.386 . S
C605 C608 1.388 . S
C606 C605 1.386 . S
C606 C607 1.382 . S
C606 H632 0.950 . S
C607 N604 1.332 . S
C607 C606 1.382 . S
C607 H618 0.952 . S
C608 C605 1.388 . S
C608 C609 1.382 . S
C608 H633 0.950 1_554 S
C609 N604 1.330 . S
C609 C608 1.382 . S
C609 H619 0.950 1_554 S
N610 Co588 2.282 . S
N610 C614 1.332 1_554 S
N610 C615 1.332 . S
C611 C612 1.388 1_554 S
C611 C615 1.382 . S
C611 H634 0.950 . S
C612 C611 1.388 1_556 S
C612 C613 1.386 . S
C613 C612 1.386 . S
C613 C614 1.382 . S
C613 H635 0.950 . S
C614 N610 1.332 1_556 S
C614 C613 1.382 . S
C614 H616 0.952 . S
C615 N610 1.332 . S
C615 C611 1.382 . S
C615 H617 0.948 . S
H616 C614 0.952 . S
H617 C615 0.948 . S
H618 C607 0.952 . S
H619 C609 0.950 1_556 S
C620 C586 1.395 . S
C620 C590 1.391 . S
C621 C583 1.421 . S
C621 C603 1.349 1_556 S
C622 C593 1.392 1_554 S
C622 C595 1.389 . S
C623 C598 1.395 . S
C623 C600 1.391 . S
H624 C584 0.951 . S
H625 C585 0.950 . S
H626 C591 0.949 . S
H627 C592 0.950 . S
H628 C596 0.951 . S
H629 C597 0.950 . S
H630 C601 0.949 . S
H631 C602 0.950 . S
H632 C606 0.950 . S
H633 C608 0.950 1_556 S
H634 C611 0.950 . S
H635 C613 0.950 . S
C636 O652 1.251 . S
C636 O654 1.254 . S
N637 C638 1.333 . S
N637 C642 1.307 1_554 S
N637 Zn643 2.020 . S
C638 N637 1.333 . S
C638 C639 1.379 1_554 S
C638 H656 0.952 . S
C639 C638 1.379 1_556 S
C639 C640 1.390 . S
C639 H666 0.949 . S
C640 C639 1.390 . S
C640 C641 1.357 . S
C641 C640 1.357 . S
C641 C642 1.370 . S
C641 H667 0.950 . S
C642 N637 1.307 1_556 S
C642 C641 1.370 . S
C642 H660 0.948 1_556 S
Zn643 N637 2.020 . S
Zn643 O652 2.039 . S
Zn643 O658 2.034 . S
Zn643 O662 2.025 . S
Zn643 O664 2.024 . S
C644 O663 1.246 . S
C644 O664 1.249 . S
N645 C646 1.307 . S
N645 C647 1.333 . S
N645 Zn651 2.020 . S
C646 N645 1.307 . S
C646 C650 1.370 . S
C646 H657 0.948 . S
C647 N645 1.333 . S
C647 C648 1.379 . S
C647 H655 0.952 . S
C648 C647 1.379 . S
C648 C649 1.390 . S
C648 H668 0.949 . S
C649 C648 1.390 . S
C649 C650 1.357 . S
C650 C646 1.370 . S
C650 C649 1.357 . S
C650 H669 0.950 . S
Zn651 N645 2.020 . S
Zn651 O654 2.025 . S
Zn651 O659 2.024 . S
Zn651 O661 2.039 . S
Zn651 O663 2.034 . S
O652 C636 1.251 . S
O652 Zn643 2.039 . S
C653 O658 1.246 . S
C653 O659 1.249 . S
O654 C636 1.254 . S
O654 Zn651 2.025 . S
H655 C647 0.952 . S
H656 C638 0.952 . S
H657 C646 0.948 . S
O658 Zn643 2.034 . S
O658 C653 1.246 . S
O659 Zn651 2.024 . S
O659 C653 1.249 . S
H660 C642 0.948 1_554 S
O661 Zn651 2.039 . S
O661 C665 1.251 . S
O662 Zn643 2.025 . S
O662 C665 1.254 . S
O663 C644 1.246 . S
O663 Zn651 2.034 . S
O664 Zn643 2.024 . S
O664 C644 1.249 . S
C665 O661 1.251 . S
C665 O662 1.254 . S
H666 C639 0.949 . S
H667 C641 0.950 . S
H668 C648 0.949 . S
H669 C650 0.950 . S
C670 O686 1.251 . S
C670 O688 1.254 . S
N671 C672 1.333 . S
N671 C676 1.307 . S
N671 Zn677 2.020 1_556 S
C672 N671 1.333 . S
C672 C673 1.379 . S
C672 H690 0.952 1_556 S
C673 C672 1.379 . S
C673 C674 1.390 . S
C673 H700 0.949 . S
C674 C673 1.390 . S
C674 C675 1.357 . S
C675 C674 1.357 . S
C675 C676 1.370 . S
C675 H701 0.950 . S
C676 N671 1.307 . S
C676 C675 1.370 . S
C676 H694 0.948 . S
Zn677 N671 2.020 1_554 S
Zn677 O686 2.039 . S
Zn677 O692 2.034 . S
Zn677 O696 2.025 . S
Zn677 O698 2.024 . S
C678 O697 1.246 . S
C678 O698 1.249 . S
N679 C680 1.307 . S
N679 C681 1.333 . S
N679 Zn685 2.020 . S
C680 N679 1.307 . S
C680 C684 1.370 . S
C680 H691 0.948 . S
C681 N679 1.333 . S
C681 C682 1.370 1_655 S
C681 H689 0.952 1_655 S
C682 C681 1.370 1_455 S
C682 C683 1.376 1_455 S
C682 H702 0.973 . S
C683 C682 1.376 1_655 S
C683 C684 1.357 . S
C684 C680 1.370 . S
C684 C683 1.357 . S
C684 H703 0.950 . S
Zn685 N679 2.020 . S
Zn685 O688 2.025 . S
Zn685 O693 2.024 . S
Zn685 O695 2.039 . S
Zn685 O697 2.034 . S
O686 C670 1.251 . S
O686 Zn677 2.039 . S
C687 O692 1.246 . S
C687 O693 1.249 . S
O688 C670 1.254 . S
O688 Zn685 2.025 . S
H689 C681 0.952 1_455 S
H690 C672 0.952 1_554 S
H691 C680 0.948 . S
O692 Zn677 2.034 . S
O692 C687 1.246 . S
O693 Zn685 2.024 . S
O693 C687 1.249 . S
H694 C676 0.948 . S
O695 Zn685 2.039 . S
O695 C699 1.251 . S
O696 Zn677 2.025 . S
O696 C699 1.254 . S
O697 C678 1.246 . S
O697 Zn685 2.034 . S
O698 Zn677 2.024 . S
O698 C678 1.249 . S
C699 O695 1.251 . S
C699 O696 1.254 . S
H700 C673 0.949 . S
H701 C675 0.950 . S
H702 C682 0.973 . S
H703 C684 0.950 . S
C704 O720 1.251 . S
C704 O722 1.254 . S
N705 C706 1.333 . S
N705 C710 1.307 . S
N705 Zn711 2.020 . S
C706 N705 1.333 . S
C706 C707 1.379 . S
C706 H724 0.952 . S
C707 C706 1.379 . S
C707 C708 1.390 . S
C707 H734 0.949 . S
C708 C707 1.390 . S
C708 C709 1.357 . S
C709 C708 1.357 . S
C709 C710 1.370 . S
C709 H735 0.950 . S
C710 N705 1.307 . S
C710 C709 1.370 . S
C710 H728 0.948 . S
Zn711 N705 2.020 . S
Zn711 O720 2.039 . S
Zn711 O726 2.034 . S
Zn711 O730 2.025 . S
Zn711 O732 2.024 . S
C712 O731 1.246 . S
C712 O732 1.249 . S
N713 C714 1.307 . S
N713 C715 1.333 . S
N713 Zn719 2.020 . S
C714 N713 1.307 . S
C714 C718 1.370 . S
C714 H725 0.948 . S
C715 N713 1.333 . S
C715 C716 1.379 . S
C715 H723 0.952 . S
C716 C715 1.379 . S
C716 C717 1.390 . S
C716 H736 0.949 . S
C717 C716 1.390 . S
C717 C718 1.357 . S
C718 C714 1.370 . S
C718 C717 1.357 . S
C718 H737 0.950 . S
Zn719 N713 2.020 . S
Zn719 O722 2.025 . S
Zn719 O727 2.024 . S
Zn719 O729 2.039 . S
Zn719 O731 2.034 . S
O720 C704 1.251 . S
O720 Zn711 2.039 . S
C721 O726 1.246 . S
C721 O727 1.249 . S
O722 C704 1.254 . S
O722 Zn719 2.025 . S
H723 C715 0.952 . S
H724 C706 0.952 . S
H725 C714 0.948 . S
O726 Zn711 2.034 . S
O726 C721 1.246 . S
O727 Zn719 2.024 . S
O727 C721 1.249 . S
H728 C710 0.948 . S
O729 Zn719 2.039 . S
O729 C733 1.251 . S
O730 Zn711 2.025 . S
O730 C733 1.254 . S
O731 C712 1.246 . S
O731 Zn719 2.034 . S
O732 Zn711 2.024 . S
O732 C712 1.249 . S
C733 O729 1.251 . S
C733 O730 1.254 . S
H734 C707 0.949 . S
H735 C709 0.950 . S
H736 C716 0.949 . S
H737 C718 0.950 . S
C738 O754 1.251 . S
C738 O756 1.254 . S
N739 C740 1.333 1_655 S
N739 C744 1.307 1_655 S
N739 Zn745 2.020 . S
C740 N739 1.333 1_455 S
C740 C741 1.379 . S
C740 H758 0.952 1_455 S
C741 C740 1.379 . S
C741 C742 1.390 . S
C741 H768 0.949 . S
C742 C741 1.390 . S
C742 C743 1.357 . S
C743 C742 1.357 . S
C743 C744 1.370 . S
C743 H769 0.950 . S
C744 N739 1.307 1_455 S
C744 C743 1.370 . S
C744 H762 0.948 . S
Zn745 N739 2.020 . S
Zn745 O754 2.039 . S
Zn745 O760 2.034 . S
Zn745 O764 2.025 . S
Zn745 O766 2.024 . S
C746 O765 1.246 . S
C746 O766 1.249 . S
N747 C748 1.307 . S
N747 C749 1.333 . S
N747 Zn753 2.020 . S
C748 N747 1.307 . S
C748 C752 1.370 . S
C748 H759 0.948 . S
C749 N747 1.333 . S
C749 C750 1.379 . S
C749 H757 0.952 . S
C750 C749 1.379 . S
C750 C751 1.390 . S
C750 H770 0.949 . S
C751 C750 1.390 . S
C751 C752 1.357 . S
C752 C748 1.370 . S
C752 C751 1.357 . S
C752 H771 0.950 . S
Zn753 N747 2.020 . S
Zn753 O756 2.025 . S
Zn753 O761 2.024 . S
Zn753 O763 2.039 . S
Zn753 O765 2.034 . S
O754 C738 1.251 . S
O754 Zn745 2.039 . S
C755 O760 1.246 . S
C755 O761 1.249 . S
O756 C738 1.254 . S
O756 Zn753 2.025 . S
H757 C749 0.952 . S
H758 C740 0.952 1_655 S
H759 C748 0.948 . S
O760 Zn745 2.034 . S
O760 C755 1.246 . S
O761 Zn753 2.024 . S
O761 C755 1.249 . S
H762 C744 0.948 . S
O763 Zn753 2.039 . S
O763 C767 1.251 . S
O764 Zn745 2.025 . S
O764 C767 1.254 . S
O765 C746 1.246 . S
O765 Zn753 2.034 . S
O766 Zn745 2.024 . S
O766 C746 1.249 . S
C767 O763 1.251 . S
C767 O764 1.254 . S
H768 C741 0.949 . S
H769 C743 0.950 . S
H770 C750 0.949 . S
H771 C752 0.950 . S
C772 O788 1.251 . S
C772 O790 1.254 . S
N773 C774 1.333 . S
N773 C778 1.307 . S
N773 Zn779 2.020 . S
C774 N773 1.333 . S
C774 C775 1.379 . S
C774 H792 0.952 . S
C775 C774 1.379 . S
C775 C776 1.390 . S
C775 H802 0.949 . S
C776 C775 1.390 . S
C776 C777 1.357 . S
C777 C776 1.357 . S
C777 C778 1.370 . S
C777 H803 0.950 . S
C778 N773 1.307 . S
C778 C777 1.370 . S
C778 H796 0.948 . S
Zn779 N773 2.020 . S
Zn779 O788 2.039 . S
Zn779 O794 2.034 . S
Zn779 O798 2.025 . S
Zn779 O800 2.024 . S
C780 O799 1.246 . S
C780 O800 1.249 . S
N781 C782 1.307 . S
N781 C783 1.333 . S
N781 Zn787 2.020 . S
C782 N781 1.307 . S
C782 C786 1.370 . S
C782 H793 0.948 . S
C783 N781 1.333 . S
C783 C784 1.379 . S
C783 H791 0.952 . S
C784 C783 1.379 . S
C784 C785 1.390 . S
C784 H804 0.949 . S
C785 C784 1.390 . S
C785 C786 1.357 . S
C786 C782 1.370 . S
C786 C785 1.357 . S
C786 H805 0.950 . S
Zn787 N781 2.020 . S
Zn787 O790 2.025 . S
Zn787 O795 2.024 . S
Zn787 O797 2.039 . S
Zn787 O799 2.034 . S
O788 C772 1.251 . S
O788 Zn779 2.039 . S
C789 O794 1.246 . S
C789 O795 1.249 . S
O790 C772 1.254 . S
O790 Zn787 2.025 . S
H791 C783 0.952 . S
H792 C774 0.952 . S
H793 C782 0.948 . S
O794 Zn779 2.034 . S
O794 C789 1.246 . S
O795 Zn787 2.024 . S
O795 C789 1.249 . S
H796 C778 0.948 . S
O797 Zn787 2.039 . S
O797 C801 1.251 . S
O798 Zn779 2.025 . S
O798 C801 1.254 . S
O799 C780 1.246 . S
O799 Zn787 2.034 . S
O800 Zn779 2.024 . S
O800 C780 1.249 . S
C801 O797 1.251 . S
C801 O798 1.254 . S
H802 C775 0.949 . S
H803 C777 0.950 . S
H804 C784 0.949 . S
H805 C786 0.950 . S
C806 O822 1.251 . S
C806 O824 1.254 . S
N807 C808 1.333 . S
N807 C812 1.307 . S
N807 Zn813 2.020 . S
C808 N807 1.333 . S
C808 C809 1.379 . S
C808 H826 0.952 . S
C809 C808 1.379 . S
C809 C810 1.390 . S
C809 H836 0.949 . S
C810 C809 1.390 . S
C810 C811 1.357 . S
C811 C810 1.357 . S
C811 C812 1.370 . S
C811 H837 0.950 . S
C812 N807 1.307 . S
C812 C811 1.370 . S
C812 H830 0.948 . S
Zn813 N807 2.020 . S
Zn813 O822 2.039 . S
Zn813 O828 2.034 . S
Zn813 O832 2.025 . S
Zn813 O834 2.024 . S
C814 O833 1.246 . S
C814 O834 1.249 . S
N815 C816 1.307 . S
N815 C817 1.333 . S
N815 Zn821 2.020 . S
C816 N815 1.307 . S
C816 C820 1.370 . S
C816 H827 0.948 . S
C817 N815 1.333 . S
C817 C818 1.379 . S
C817 H825 0.952 . S
C818 C817 1.379 . S
C818 C819 1.390 . S
C818 H838 0.949 . S
C819 C818 1.390 . S
C819 C820 1.357 . S
C820 C816 1.370 . S
C820 C819 1.357 . S
C820 H839 0.950 . S
Zn821 N815 2.020 . S
Zn821 O824 2.025 . S
Zn821 O829 2.024 . S
Zn821 O831 2.039 . S
Zn821 O833 2.034 . S
O822 C806 1.251 . S
O822 Zn813 2.039 . S
C823 O828 1.246 . S
C823 O829 1.249 . S
O824 C806 1.254 . S
O824 Zn821 2.025 . S
H825 C817 0.952 . S
H826 C808 0.952 . S
H827 C816 0.948 . S
O828 Zn813 2.034 . S
O828 C823 1.246 . S
O829 Zn821 2.024 . S
O829 C823 1.249 . S
H830 C812 0.948 . S
O831 Zn821 2.039 . S
O831 C835 1.251 . S
O832 Zn813 2.025 . S
O832 C835 1.254 . S
O833 C814 1.246 . S
O833 Zn821 2.034 . S
O834 Zn813 2.024 . S
O834 C814 1.249 . S
C835 O831 1.251 . S
C835 O832 1.254 . S
H836 C809 0.949 . S
H837 C811 0.950 . S
H838 C818 0.949 . S
H839 C820 0.950 . S
C840 O856 1.251 . S
C840 O858 1.254 . S
N841 C842 1.333 . S
N841 C846 1.307 . S
N841 Zn847 2.020 . S
C842 N841 1.333 . S
C842 C843 1.379 . S
C842 H860 0.952 . S
C843 C842 1.379 . S
C843 C844 1.390 . S
C843 H870 0.949 . S
C844 C843 1.390 . S
C844 C845 1.357 . S
C845 C844 1.357 . S
C845 C846 1.370 . S
C845 H871 0.950 . S
C846 N841 1.307 . S
C846 C845 1.370 . S
C846 H864 0.948 . S
Zn847 N841 2.020 . S
Zn847 O856 2.039 . S
Zn847 O862 2.034 . S
Zn847 O866 2.025 . S
Zn847 O868 2.024 . S
C848 O867 1.246 . S
C848 O868 1.249 . S
N849 C850 1.307 . S
N849 C851 1.333 . S
N849 Zn855 2.020 . S
C850 N849 1.307 . S
C850 C854 1.370 1_556 S
C850 H861 0.948 . S
C851 N849 1.333 . S
C851 C852 1.379 1_556 S
C851 H859 0.952 . S
C852 C851 1.379 1_554 S
C852 C853 1.390 . S
C852 H872 0.949 . S
C853 C852 1.390 . S
C853 C854 1.357 . S
C854 C850 1.370 1_554 S
C854 C853 1.357 . S
C854 H873 0.950 . S
Zn855 N849 2.020 . S
Zn855 O858 2.025 . S
Zn855 O863 2.024 . S
Zn855 O865 2.039 . S
Zn855 O867 2.034 . S
O856 C840 1.251 . S
O856 Zn847 2.039 . S
C857 O862 1.246 . S
C857 O863 1.249 . S
O858 C840 1.254 . S
O858 Zn855 2.025 . S
H859 C851 0.952 . S
H860 C842 0.952 . S
H861 C850 0.948 . S
O862 Zn847 2.034 . S
O862 C857 1.246 . S
O863 Zn855 2.024 . S
O863 C857 1.249 . S
H864 C846 0.948 . S
O865 Zn855 2.039 . S
O865 C869 1.251 . S
O866 Zn847 2.025 . S
O866 C869 1.254 . S
O867 C848 1.246 . S
O867 Zn855 2.034 . S
O868 Zn847 2.024 . S
O868 C848 1.249 . S
C869 O865 1.251 . S
C869 O866 1.254 . S
H870 C843 0.949 . S
H871 C845 0.950 . S
H872 C852 0.949 . S
H873 C854 0.950 . S
C874 O890 1.251 . S
C874 O892 1.254 . S
N875 C876 1.333 . S
N875 C880 1.307 . S
N875 Zn881 2.020 . S
C876 N875 1.333 . S
C876 C877 1.379 . S
C876 H894 0.952 . S
C877 C876 1.379 . S
C877 C878 1.390 . S
C877 H904 0.949 . S
C878 C877 1.390 . S
C878 C879 1.357 . S
C879 C878 1.357 . S
C879 C880 1.370 . S
C879 H905 0.950 . S
C880 N875 1.307 . S
C880 C879 1.370 . S
C880 H898 0.948 . S
Zn881 N875 2.020 . S
Zn881 O890 2.039 . S
Zn881 O896 2.034 . S
Zn881 O900 2.025 . S
Zn881 O902 2.024 . S
C882 O901 1.246 . S
C882 O902 1.249 . S
N883 C884 1.307 . S
N883 C885 1.333 . S
N883 Zn889 2.020 . S
C884 N883 1.307 . S
C884 C888 1.370 . S
C884 H895 0.948 . S
C885 N883 1.333 . S
C885 C886 1.379 . S
C885 H893 0.952 . S
C886 C885 1.379 . S
C886 C887 1.390 . S
C886 H906 0.976 . S
C887 C886 1.390 . S
C887 C888 1.357 . S
C888 C884 1.370 . S
C888 C887 1.357 . S
C888 H907 0.950 . S
Zn889 N883 2.020 . S
Zn889 O892 2.025 . S
Zn889 O897 2.024 . S
Zn889 O899 2.039 . S
Zn889 O901 2.034 . S
O890 C874 1.251 . S
O890 Zn881 2.039 . S
C891 O896 1.246 . S
C891 O897 1.249 . S
O892 C874 1.254 . S
O892 Zn889 2.025 . S
H893 C885 0.952 . S
H894 C876 0.952 . S
H895 C884 0.948 . S
O896 Zn881 2.034 . S
O896 C891 1.246 . S
O897 Zn889 2.024 . S
O897 C891 1.249 . S
H898 C880 0.948 . S
O899 Zn889 2.039 . S
O899 C903 1.251 . S
O900 Zn881 2.025 . S
O900 C903 1.254 . S
O901 C882 1.246 . S
O901 Zn889 2.034 . S
O902 Zn881 2.024 . S
O902 C882 1.249 . S
C903 O899 1.251 . S
C903 O900 1.254 . S
H904 C877 0.949 . S
H905 C879 0.950 . S
H906 C886 0.976 . S
H907 C888 0.950 . S
H908 C926 0.951 . S
H909 C928 0.951 . S
H910 C930 0.950 . S
H911 C931 0.950 . S
H912 C933 0.950 . S
H913 C936 0.950 . S
H914 C937 0.950 . S
H915 C939 0.946 1_455 S
H916 C940 0.950 . S
H917 C941 0.951 1_565 S
H918 C943 0.951 . S
H919 C945 0.950 . S
H920 C946 0.950 . S
H921 C948 0.950 . S
H922 C951 0.950 . S
H923 C952 0.950 . S
H924 C954 0.950 . S
H925 C955 0.950 . S
C926 H908 0.951 . S
C926 C927 1.366 . S
C926 C928 1.388 . S
C927 C926 1.366 . S
C927 C931 1.385 . S
C928 H909 0.951 . S
C928 C926 1.388 . S
C928 C929 1.366 . S
C929 C928 1.366 . S
C929 C930 1.414 . S
C929 C932 1.499 . S
C930 H910 0.950 . S
C930 C929 1.414 . S
C930 C931 1.374 . S
C931 H911 0.950 . S
C931 C927 1.385 . S
C931 C930 1.374 . S
C932 C929 1.499 . S
C932 C933 1.373 . S
C932 C934 1.389 . S
C933 H912 0.950 . S
C933 C932 1.373 . S
C933 C949 1.377 . S
C934 C932 1.389 . S
C934 C935 1.524 . S
C934 C948 1.377 . S
C935 C934 1.524 . S
C935 C936 1.397 1_455 S
C935 C940 1.363 . S
C936 H913 0.950 . S
C936 C935 1.397 1_655 S
C936 C937 1.334 . S
C937 H914 0.950 . S
C937 C936 1.334 . S
C937 C938 1.287 . S
C938 C937 1.287 . S
C938 C939 1.524 . S
C938 H957 0.913 . S
C939 H915 0.946 1_655 S
C939 C938 1.524 . S
C939 C940 1.415 1_655 S
C940 H916 0.950 . S
C940 C935 1.363 . S
C940 C939 1.415 1_455 S
C941 H917 0.951 1_545 S
C941 C942 1.366 1_545 S
C941 C943 1.388 . S
C942 C941 1.366 1_565 S
C942 C946 1.385 . S
C943 H918 0.951 . S
C943 C941 1.388 . S
C943 C944 1.366 . S
C944 C943 1.366 . S
C944 C945 1.414 . S
C944 C947 1.499 . S
C945 H919 0.950 . S
C945 C944 1.414 . S
C945 C946 1.374 1_545 S
C946 H920 0.950 . S
C946 C942 1.385 . S
C946 C945 1.374 1_565 S
C947 C944 1.499 . S
C947 C948 1.373 . S
C947 C949 1.389 . S
C948 H921 0.950 . S
C948 C934 1.377 . S
C948 C947 1.373 . S
C949 C933 1.377 . S
C949 C947 1.389 . S
C949 C950 1.524 . S
C950 C949 1.524 . S
C950 C951 1.397 . S
C950 C955 1.363 . S
C951 H922 0.950 . S
C951 C950 1.397 . S
C951 C952 1.334 . S
C952 H923 0.950 . S
C952 C951 1.334 . S
C952 C953 1.287 . S
C953 C952 1.287 . S
C953 C954 1.524 . S
C953 H956 0.999 . S
C954 H924 0.950 . S
C954 C953 1.524 . S
C954 C955 1.415 . S
C955 H925 0.950 . S
C955 C950 1.363 . S
C955 C954 1.415 . S
H956 C953 0.999 . S
H957 C938 0.913 . S
H958 C976 0.951 . S
H959 C978 0.951 . S
H960 C980 0.950 . S
H961 C981 0.962 . S
H962 C983 0.970 . S
H963 C986 0.950 . S
H964 C987 0.950 . S
H965 C989 0.950 . S
H966 C990 0.950 . S
H967 C991 0.951 . S
H968 C993 0.951 . S
H969 C995 0.950 . S
H970 C996 0.950 . S
H971 C998 0.950 . S
H972 C1001 0.950 . S
H973 C1002 0.950 . S
H974 C1004 0.950 . S
H975 C1005 0.950 . S
C976 H958 0.951 . S
C976 C977 1.366 . S
C976 C978 1.388 . S
C977 C976 1.366 . S
C977 C981 1.385 . S
C978 H959 0.951 . S
C978 C976 1.388 . S
C978 C979 1.366 . S
C979 C978 1.366 . S
C979 C980 1.414 . S
C979 C982 1.499 . S
C980 H960 0.950 . S
C980 C979 1.414 . S
C980 C981 1.374 . S
C981 H961 0.962 . S
C981 C977 1.385 . S
C981 C980 1.374 . S
C982 C979 1.499 . S
C982 C983 1.355 1_655 S
C982 C984 1.389 . S
C983 H962 0.970 . S
C983 C982 1.355 1_455 S
C983 C999 1.375 1_455 S
C984 C982 1.389 . S
C984 C985 1.524 . S
C984 C998 1.377 . S
C985 C984 1.524 . S
C985 C986 1.397 . S
C985 C990 1.363 . S
C986 H963 0.950 . S
C986 C985 1.397 . S
C986 C987 1.334 . S
C987 H964 0.950 . S
C987 C986 1.334 . S
C987 C988 1.287 . S
C988 C987 1.287 . S
C988 C989 1.524 . S
C988 H1007 0.913 . S
C989 H965 0.950 . S
C989 C988 1.524 . S
C989 C990 1.415 . S
C990 H966 0.950 . S
C990 C985 1.363 . S
C990 C989 1.415 . S
C991 H967 0.951 . S
C991 C992 1.366 . S
C991 C993 1.388 . S
C992 C991 1.366 . S
C992 C996 1.385 . S
C993 H968 0.951 . S
C993 C991 1.388 . S
C993 C994 1.366 . S
C994 C993 1.366 . S
C994 C995 1.414 . S
C994 C997 1.499 . S
C995 H969 0.950 . S
C995 C994 1.414 . S
C995 C996 1.374 . S
C996 H970 0.950 . S
C996 C992 1.385 . S
C996 C995 1.374 . S
C997 C994 1.499 . S
C997 C998 1.373 . S
C997 C999 1.410 . S
C998 H971 0.950 . S
C998 C984 1.377 . S
C998 C997 1.373 . S
C999 C983 1.375 1_655 S
C999 C997 1.410 . S
C999 C1000 1.503 1_655 S
C1000 C999 1.503 1_455 S
C1000 C1001 1.397 . S
C1000 C1005 1.363 . S
C1001 H972 0.950 . S
C1001 C1000 1.397 . S
C1001 C1002 1.334 . S
C1002 H973 0.950 . S
C1002 C1001 1.334 . S
C1002 C1003 1.287 . S
C1003 C1002 1.287 . S
C1003 C1004 1.524 . S
C1003 H1006 0.999 . S
C1004 H974 0.950 . S
C1004 C1003 1.524 . S
C1004 C1005 1.415 . S
C1005 H975 0.950 . S
C1005 C1000 1.363 . S
C1005 C1004 1.415 . S
H1006 C1003 0.999 . S
H1007 C988 0.913 . S
H1008 C1026 0.951 . S
H1009 C1028 0.951 . S
H1010 C1030 0.950 . S
H1011 C1031 0.950 . S
H1012 C1033 0.950 . S
H1013 C1036 0.950 . S
H1014 C1037 0.950 . S
H1015 C1039 0.950 . S
H1016 C1040 0.950 . S
H1017 C1041 0.951 . S
H1018 C1043 0.951 . S
H1019 C1045 0.950 . S
H1020 C1046 0.950 1_545 S
H1021 C1048 0.950 . S
H1022 C1051 0.950 . S
H1023 C1052 0.950 . S
H1024 C1054 0.950 . S
H1025 C1055 0.950 . S
C1026 H1008 0.951 . S
C1026 C1027 1.366 . S
C1026 C1028 1.388 . S
C1027 C1026 1.366 . S
C1027 C1031 1.385 . S
C1028 H1009 0.951 . S
C1028 C1026 1.388 . S
C1028 C1029 1.366 . S
C1029 C1028 1.366 . S
C1029 C1030 1.414 . S
C1029 C1032 1.499 . S
C1030 H1010 0.950 . S
C1030 C1029 1.414 . S
C1030 C1031 1.374 . S
C1031 H1011 0.950 . S
C1031 C1027 1.385 . S
C1031 C1030 1.374 . S
C1032 C1029 1.499 . S
C1032 C1033 1.373 . S
C1032 C1034 1.389 . S
C1033 H1012 0.950 . S
C1033 C1032 1.373 . S
C1033 C1049 1.377 . S
C1034 C1032 1.389 . S
C1034 C1035 1.524 . S
C1034 C1048 1.377 . S
C1035 C1034 1.524 . S
C1035 C1036 1.397 1_455 S
C1035 C1040 1.363 . S
C1036 H1013 0.950 . S
C1036 C1035 1.397 1_655 S
C1036 C1037 1.334 . S
C1037 H1014 0.950 . S
C1037 C1036 1.334 . S
C1037 C1038 1.287 . S
C1038 C1037 1.287 . S
C1038 C1039 1.524 . S
C1038 H1057 0.913 . S
C1039 H1015 0.950 . S
C1039 C1038 1.524 . S
C1039 C1040 1.415 1_655 S
C1040 H1016 0.950 . S
C1040 C1035 1.363 . S
C1040 C1039 1.415 1_455 S
C1041 H1017 0.951 . S
C1041 C1042 1.368 . S
C1041 C1043 1.388 . S
C1042 C1041 1.368 . S
C1042 C1046 1.386 . S
C1043 H1018 0.951 . S
C1043 C1041 1.388 . S
C1043 C1044 1.366 . S
C1044 C1043 1.366 . S
C1044 C1045 1.414 . S
C1044 C1047 1.499 . S
C1045 H1019 0.950 . S
C1045 C1044 1.414 . S
C1045 C1046 1.374 . S
C1046 H1020 0.950 1_565 S
C1046 C1042 1.386 . S
C1046 C1045 1.374 . S
C1047 C1044 1.499 . S
C1047 C1048 1.373 . S
C1047 C1049 1.389 . S
C1048 H1021 0.950 . S
C1048 C1034 1.377 . S
C1048 C1047 1.373 . S
C1049 C1033 1.377 . S
C1049 C1047 1.389 . S
C1049 C1050 1.524 . S
C1050 C1049 1.524 . S
C1050 C1051 1.397 . S
C1050 C1055 1.363 . S
C1051 H1022 0.950 . S
C1051 C1050 1.397 . S
C1051 C1052 1.334 . S
C1052 H1023 0.950 . S
C1052 C1051 1.334 . S
C1052 C1053 1.287 . S
C1053 C1052 1.287 . S
C1053 C1054 1.524 . S
C1053 H1056 0.999 . S
C1054 H1024 0.950 . S
C1054 C1053 1.524 . S
C1054 C1055 1.415 . S
C1055 H1025 0.950 . S
C1055 C1050 1.363 . S
C1055 C1054 1.415 . S
H1056 C1053 0.999 . S
H1057 C1038 0.913 . S
H1058 C1076 0.951 . S
H1059 C1078 0.951 . S
H1060 C1080 0.950 . S
H1061 C1081 0.950 . S
H1062 C1083 0.950 . S
H1063 C1086 0.950 . S
H1064 C1087 0.950 . S
H1065 C1089 0.950 . S
H1066 C1090 0.950 . S
H1067 C1091 0.951 1_455 S
H1068 C1093 0.921 1_455 S
H1069 C1095 0.950 . S
H1070 C1096 0.950 . S
H1071 C1098 0.950 . S
H1072 C1101 0.950 . S
H1073 C1102 0.950 . S
H1074 C1104 0.950 . S
H1075 C1105 0.950 . S
C1076 H1058 0.951 . S
C1076 C1077 1.366 . S
C1076 C1078 1.388 . S
C1077 C1076 1.366 . S
C1077 C1081 1.385 1_655 S
C1078 H1059 0.951 . S
C1078 C1076 1.388 . S
C1078 C1079 1.366 . S
C1079 C1078 1.366 . S
C1079 C1080 1.414 1_655 S
C1079 C1082 1.499 . S
C1080 H1060 0.950 . S
C1080 C1079 1.414 1_455 S
C1080 C1081 1.374 . S
C1081 H1061 0.950 . S
C1081 C1077 1.385 1_455 S
C1081 C1080 1.374 . S
C1082 C1079 1.499 . S
C1082 C1083 1.373 1_655 S
C1082 C1084 1.389 . S
C1083 H1062 0.950 . S
C1083 C1082 1.373 1_455 S
C1083 C1099 1.377 . S
C1084 C1082 1.389 . S
C1084 C1085 1.524 . S
C1084 C1098 1.377 . S
C1085 C1084 1.524 . S
C1085 C1086 1.397 . S
C1085 C1090 1.363 . S
C1086 H1063 0.950 . S
C1086 C1085 1.397 . S
C1086 C1087 1.334 . S
C1087 H1064 0.950 . S
C1087 C1086 1.334 . S
C1087 C1088 1.287 . S
C1088 C1087 1.287 . S
C1088 C1089 1.524 . S
C1088 H1107 0.913 . S
C1089 H1065 0.950 . S
C1089 C1088 1.524 . S
C1089 C1090 1.415 . S
C1090 H1066 0.950 . S
C1090 C1085 1.363 . S
C1090 C1089 1.415 . S
C1091 H1067 0.951 1_655 S
C1091 C1092 1.366 . S
C1091 C1093 1.392 . S
C1092 C1091 1.366 . S
C1092 C1096 1.385 . S
C1093 H1068 0.921 1_655 S
C1093 C1091 1.392 . S
C1093 C1094 1.391 . S
C1094 C1093 1.391 . S
C1094 C1095 1.414 . S
C1094 C1097 1.499 . S
C1095 H1069 0.950 . S
C1095 C1094 1.414 . S
C1095 C1096 1.374 . S
C1096 H1070 0.950 . S
C1096 C1092 1.385 . S
C1096 C1095 1.374 . S
C1097 C1094 1.499 . S
C1097 C1098 1.373 . S
C1097 C1099 1.389 1_655 S
C1098 H1071 0.950 . S
C1098 C1084 1.377 . S
C1098 C1097 1.373 . S
C1099 C1083 1.377 . S
C1099 C1097 1.389 1_455 S
C1099 C1100 1.524 . S
C1100 C1099 1.524 . S
C1100 C1101 1.397 . S
C1100 C1105 1.363 . S
C1101 H1072 0.950 . S
C1101 C1100 1.397 . S
C1101 C1102 1.334 . S
C1102 H1073 0.950 . S
C1102 C1101 1.334 . S
C1102 C1103 1.287 . S
C1103 C1102 1.287 . S
C1103 C1104 1.524 . S
C1103 H1106 0.999 . S
C1104 H1074 0.950 . S
C1104 C1103 1.524 . S
C1104 C1105 1.415 . S
C1105 H1075 0.950 . S
C1105 C1100 1.363 . S
C1105 C1104 1.415 . S
H1106 C1103 0.999 . S
H1107 C1088 0.913 . S
H1108 C1126 0.951 . S
H1109 C1128 0.951 . S
H1110 C1130 0.950 . S
H1111 C1131 0.950 . S
H1112 C1133 0.950 . S
H1113 C1136 0.953 . S
H1114 C1137 0.950 1_565 S
H1115 C1139 0.950 . S
H1116 C1140 0.950 . S
H1117 C1141 0.941 1_556 S
H1118 C1143 0.951 . S
H1119 C1145 0.950 . S
H1120 C1146 0.950 . S
H1121 C1148 0.950 . S
H1122 C1151 0.950 . S
H1123 C1152 0.950 . S
H1124 C1154 0.950 . S
H1125 C1155 0.950 . S
C1126 H1108 0.951 . S
C1126 C1127 1.366 . S
C1126 C1128 1.388 . S
C1127 C1126 1.366 . S
C1127 C1131 1.385 . S
C1128 H1109 0.951 . S
C1128 C1126 1.388 . S
C1128 C1129 1.366 . S
C1129 C1128 1.366 . S
C1129 C1130 1.414 . S
C1129 C1132 1.499 . S
C1130 H1110 0.950 . S
C1130 C1129 1.414 . S
C1130 C1131 1.374 . S
C1131 H1111 0.950 . S
C1131 C1127 1.385 . S
C1131 C1130 1.374 . S
C1132 C1129 1.499 . S
C1132 C1133 1.373 . S
C1132 C1134 1.389 . S
C1133 H1112 0.950 . S
C1133 C1132 1.373 . S
C1133 C1149 1.377 . S
C1134 C1132 1.389 . S
C1134 C1135 1.524 . S
C1134 C1148 1.377 . S
C1135 C1134 1.524 . S
C1135 C1136 1.397 . S
C1135 C1140 1.363 . S
C1136 H1113 0.953 . S
C1136 C1135 1.397 . S
C1136 C1137 1.334 . S
C1137 H1114 0.950 1_545 S
C1137 C1136 1.334 . S
C1137 C1138 1.287 . S
C1138 C1137 1.287 . S
C1138 C1139 1.524 . S
C1138 H1157 0.913 . S
C1139 H1115 0.950 . S
C1139 C1138 1.524 . S
C1139 C1140 1.415 . S
C1140 H1116 0.950 . S
C1140 C1135 1.363 . S
C1140 C1139 1.415 . S
C1141 H1117 0.941 1_554 S
C1141 C1142 1.338 1_554 S
C1141 C1143 1.426 . S
C1142 C1141 1.338 1_556 S
C1142 C1146 1.385 . S
C1143 H1118 0.951 . S
C1143 C1141 1.426 . S
C1143 C1144 1.366 . S
C1144 C1143 1.366 . S
C1144 C1145 1.414 . S
C1144 C1147 1.499 . S
C1145 H1119 0.950 . S
C1145 C1144 1.414 . S
C1145 C1146 1.374 1_554 S
C1146 H1120 0.950 . S
C1146 C1142 1.385 . S
C1146 C1145 1.374 1_556 S
C1147 C1144 1.499 . S
C1147 C1148 1.373 . S
C1147 C1149 1.389 . S
C1148 H1121 0.950 . S
C1148 C1134 1.377 . S
C1148 C1147 1.373 . S
C1149 C1133 1.377 . S
C1149 C1147 1.389 . S
C1149 C1150 1.524 . S
C1150 C1149 1.524 . S
C1150 C1151 1.397 . S
C1150 C1155 1.363 . S
C1151 H1122 0.950 . S
C1151 C1150 1.397 . S
C1151 C1152 1.334 . S
C1152 H1123 0.950 . S
C1152 C1151 1.334 . S
C1152 C1153 1.287 . S
C1153 C1152 1.287 . S
C1153 C1154 1.524 . S
C1153 H1156 0.999 . S
C1154 H1124 0.950 . S
C1154 C1153 1.524 . S
C1154 C1155 1.415 . S
C1155 H1125 0.950 . S
C1155 C1150 1.363 . S
C1155 C1154 1.415 . S
H1156 C1153 0.999 . S
H1157 C1138 0.913 . S
H1158 C1176 0.951 . S
H1159 C1178 0.951 . S
H1160 C1180 0.950 . S
H1161 C1181 0.950 . S
H1162 C1183 0.950 . S
H1163 C1186 0.950 . S
H1164 C1187 0.950 . S
H1165 C1189 0.950 . S
H1166 C1190 0.950 . S
H1167 C1191 0.951 . S
H1168 C1193 0.951 . S
H1169 C1195 0.950 . S
H1170 C1196 0.950 . S
H1171 C1198 0.950 . S
H1172 C1201 0.950 . S
H1173 C1202 0.950 . S
H1174 C1204 0.950 . S
H1175 C1205 0.950 . S
C1176 H1158 0.951 . S
C1176 C1177 1.366 . S
C1176 C1178 1.388 . S
C1177 C1176 1.366 . S
C1177 C1181 1.385 . S
C1178 H1159 0.951 . S
C1178 C1176 1.388 . S
C1178 C1179 1.366 . S
C1179 C1178 1.366 . S
C1179 C1180 1.414 . S
C1179 C1182 1.499 . S
C1180 H1160 0.950 . S
C1180 C1179 1.414 . S
C1180 C1181 1.374 . S
C1181 H1161 0.950 . S
C1181 C1177 1.385 . S
C1181 C1180 1.374 . S
C1182 C1179 1.499 . S
C1182 C1183 1.373 . S
C1182 C1184 1.389 . S
C1183 H1162 0.950 . S
C1183 C1182 1.373 . S
C1183 C1199 1.377 . S
C1184 C1182 1.389 . S
C1184 C1185 1.524 . S
C1184 C1198 1.377 . S
C1185 C1184 1.524 . S
C1185 C1186 1.397 . S
C1185 C1190 1.363 . S
C1186 H1163 0.950 . S
C1186 C1185 1.397 . S
C1186 C1187 1.334 . S
C1187 H1164 0.950 . S
C1187 C1186 1.334 . S
C1187 C1188 1.287 . S
C1188 C1187 1.287 . S
C1188 C1189 1.524 . S
C1188 H1207 0.913 . S
C1189 H1165 0.950 . S
C1189 C1188 1.524 . S
C1189 C1190 1.415 . S
C1190 H1166 0.950 . S
C1190 C1185 1.363 . S
C1190 C1189 1.415 . S
C1191 H1167 0.951 . S
C1191 C1192 1.366 . S
C1191 C1193 1.388 . S
C1192 C1191 1.366 . S
C1192 C1196 1.385 . S
C1193 H1168 0.951 . S
C1193 C1191 1.388 . S
C1193 C1194 1.366 . S
C1194 C1193 1.366 . S
C1194 C1195 1.414 . S
C1194 C1197 1.499 . S
C1195 H1169 0.950 . S
C1195 C1194 1.414 . S
C1195 C1196 1.374 . S
C1196 H1170 0.950 . S
C1196 C1192 1.385 . S
C1196 C1195 1.374 . S
C1197 C1194 1.499 . S
C1197 C1198 1.373 . S
C1197 C1199 1.389 . S
C1198 H1171 0.950 . S
C1198 C1184 1.377 . S
C1198 C1197 1.373 . S
C1199 C1183 1.377 . S
C1199 C1197 1.389 . S
C1199 C1200 1.524 . S
C1200 C1199 1.524 . S
C1200 C1201 1.397 . S
C1200 C1205 1.363 . S
C1201 H1172 0.950 . S
C1201 C1200 1.397 . S
C1201 C1202 1.334 . S
C1202 H1173 0.950 . S
C1202 C1201 1.334 . S
C1202 C1203 1.287 . S
C1203 C1202 1.287 . S
C1203 C1204 1.524 . S
C1203 H1206 0.999 . S
C1204 H1174 0.950 . S
C1204 C1203 1.524 . S
C1204 C1205 1.415 . S
C1205 H1175 0.950 . S
C1205 C1200 1.363 . S
C1205 C1204 1.415 . S
H1206 C1203 0.999 . S
H1207 C1188 0.913 . S
H1208 C1226 0.951 . S
H1209 C1228 0.951 . S
H1210 C1230 0.950 . S
H1211 C1231 0.950 . S
H1212 C1233 0.950 . S
H1213 C1236 0.950 . S
H1214 C1237 0.950 . S
H1215 C1239 0.950 . S
H1216 C1240 0.950 . S
H1217 C1241 0.951 . S
H1218 C1243 0.951 . S
H1219 C1245 0.950 . S
H1220 C1246 0.950 . S
H1221 C1248 0.950 . S
H1222 C1251 0.950 . S
H1223 C1252 0.950 . S
H1224 C1254 0.950 . S
H1225 C1255 0.950 . S
C1226 H1208 0.951 . S
C1226 C1227 1.366 . S
C1226 C1228 1.388 . S
C1227 C1226 1.366 . S
C1227 C1231 1.385 1_565 S
C1228 H1209 0.951 . S
C1228 C1226 1.388 . S
C1228 C1229 1.366 . S
C1229 C1228 1.366 . S
C1229 C1230 1.414 1_565 S
C1229 C1232 1.499 . S
C1230 H1210 0.950 . S
C1230 C1229 1.414 1_545 S
C1230 C1231 1.374 . S
C1231 H1211 0.950 . S
C1231 C1227 1.385 1_545 S
C1231 C1230 1.374 . S
C1232 C1229 1.499 . S
C1232 C1233 1.373 1_565 S
C1232 C1234 1.389 . S
C1233 H1212 0.950 . S
C1233 C1232 1.373 1_545 S
C1233 C1249 1.377 . S
C1234 C1232 1.389 . S
C1234 C1235 1.524 . S
C1234 C1248 1.377 . S
C1235 C1234 1.524 . S
C1235 C1236 1.397 . S
C1235 C1240 1.363 . S
C1236 H1213 0.950 . S
C1236 C1235 1.397 . S
C1236 C1237 1.334 . S
C1237 H1214 0.950 . S
C1237 C1236 1.334 . S
C1237 C1238 1.287 . S
C1238 C1237 1.287 . S
C1238 C1239 1.524 . S
C1238 H1257 0.913 . S
C1239 H1215 0.950 . S
C1239 C1238 1.524 . S
C1239 C1240 1.415 . S
C1240 H1216 0.950 . S
C1240 C1235 1.363 . S
C1240 C1239 1.415 . S
C1241 H1217 0.951 . S
C1241 C1242 1.366 1_545 S
C1241 C1243 1.388 . S
C1242 C1241 1.366 1_565 S
C1242 C1246 1.385 . S
C1243 H1218 0.951 . S
C1243 C1241 1.388 . S
C1243 C1244 1.366 1_545 S
C1244 C1243 1.366 1_565 S
C1244 C1245 1.414 . S
C1244 C1247 1.499 . S
C1245 H1219 0.950 . S
C1245 C1244 1.414 . S
C1245 C1246 1.374 . S
C1246 H1220 0.950 . S
C1246 C1242 1.385 . S
C1246 C1245 1.374 . S
C1247 C1244 1.499 . S
C1247 C1248 1.373 . S
C1247 C1249 1.389 1_565 S
C1248 H1221 0.950 . S
C1248 C1234 1.377 . S
C1248 C1247 1.373 . S
C1249 C1233 1.377 . S
C1249 C1247 1.389 1_545 S
C1249 C1250 1.524 . S
C1250 C1249 1.524 . S
C1250 C1251 1.397 . S
C1250 C1255 1.363 . S
C1251 H1222 0.950 . S
C1251 C1250 1.397 . S
C1251 C1252 1.334 . S
C1252 H1223 0.950 . S
C1252 C1251 1.334 . S
C1252 C1253 1.287 . S
C1253 C1252 1.287 . S
C1253 C1254 1.524 . S
C1253 H1256 0.999 . S
C1254 H1224 0.950 . S
C1254 C1253 1.524 . S
C1254 C1255 1.415 . S
C1255 H1225 0.950 . S
C1255 C1250 1.363 . S
C1255 C1254 1.415 . S
H1256 C1253 0.999 . S
H1257 C1238 0.913 . S
H1258 C1276 0.951 . S
H1259 C1278 0.951 . S
H1260 C1280 0.950 . S
H1261 C1281 0.950 . S
H1262 C1283 0.950 . S
H1263 C1286 0.950 . S
H1264 C1287 0.950 . S
H1265 C1289 0.950 . S
H1266 C1290 0.950 . S
H1267 C1291 0.951 . S
H1268 C1293 0.951 . S
H1269 C1295 0.950 . S
H1270 C1296 0.950 . S
H1271 C1298 0.950 . S
H1272 C1301 0.950 . S
H1273 C1302 0.950 . S
H1274 C1304 0.950 . S
H1275 C1305 0.950 . S
C1276 H1258 0.951 . S
C1276 C1277 1.366 . S
C1276 C1278 1.388 . S
C1277 C1276 1.366 . S
C1277 C1281 1.385 . S
C1278 H1259 0.951 . S
C1278 C1276 1.388 . S
C1278 C1279 1.366 . S
C1279 C1278 1.366 . S
C1279 C1280 1.414 . S
C1279 C1282 1.499 . S
C1280 H1260 0.950 . S
C1280 C1279 1.414 . S
C1280 C1281 1.374 . S
C1281 H1261 0.950 . S
C1281 C1277 1.385 . S
C1281 C1280 1.374 . S
C1282 C1279 1.499 . S
C1282 C1283 1.373 . S
C1282 C1284 1.389 . S
C1283 H1262 0.950 . S
C1283 C1282 1.373 . S
C1283 C1299 1.377 . S
C1284 C1282 1.389 . S
C1284 C1285 1.524 . S
C1284 C1298 1.377 . S
C1285 C1284 1.524 . S
C1285 C1286 1.397 . S
C1285 C1290 1.363 . S
C1286 H1263 0.950 . S
C1286 C1285 1.397 . S
C1286 C1287 1.334 . S
C1287 H1264 0.950 . S
C1287 C1286 1.334 . S
C1287 C1288 1.287 . S
C1288 C1287 1.287 . S
C1288 C1289 1.524 . S
C1288 H1307 0.913 . S
C1289 H1265 0.950 . S
C1289 C1288 1.524 . S
C1289 C1290 1.415 . S
C1290 H1266 0.950 . S
C1290 C1285 1.363 . S
C1290 C1289 1.415 . S
C1291 H1267 0.951 . S
C1291 C1292 1.366 . S
C1291 C1293 1.388 . S
C1292 C1291 1.366 . S
C1292 C1296 1.385 . S
C1293 H1268 0.951 . S
C1293 C1291 1.388 . S
C1293 C1294 1.366 . S
C1294 C1293 1.366 . S
C1294 C1295 1.414 . S
C1294 C1297 1.499 . S
C1295 H1269 0.950 . S
C1295 C1294 1.414 . S
C1295 C1296 1.374 . S
C1296 H1270 0.950 . S
C1296 C1292 1.385 . S
C1296 C1295 1.374 . S
C1297 C1294 1.499 . S
C1297 C1298 1.373 . S
C1297 C1299 1.389 . S
C1298 H1271 0.950 . S
C1298 C1284 1.377 . S
C1298 C1297 1.373 . S
C1299 C1283 1.377 . S
C1299 C1297 1.389 . S
C1299 C1300 1.524 . S
C1300 C1299 1.524 . S
C1300 C1301 1.397 . S
C1300 C1305 1.363 . S
C1301 H1272 0.950 . S
C1301 C1300 1.397 . S
C1301 C1302 1.334 . S
C1302 H1273 0.950 . S
C1302 C1301 1.334 . S
C1302 C1303 1.287 . S
C1303 C1302 1.287 . S
C1303 C1304 1.524 . S
C1303 H1306 0.999 . S
C1304 H1274 0.950 . S
C1304 C1303 1.524 . S
C1304 C1305 1.415 . S
C1305 H1275 0.950 . S
C1305 C1300 1.363 . S
C1305 C1304 1.415 . S
H1306 C1303 0.999 . S
H1307 C1288 0.913 . S
H1308 C1326 0.951 . S
H1309 C1328 0.951 . S
H1310 C1330 0.950 . S
H1311 C1331 0.950 . S
H1312 C1333 0.950 . S
H1313 C1336 0.950 . S
H1314 C1337 0.950 . S
H1315 C1339 0.950 . S
H1316 C1340 0.939 1_554 S
H1317 C1341 0.951 . S
H1318 C1343 0.951 . S
H1319 C1345 0.950 . S
H1320 C1346 0.950 . S
H1321 C1348 0.950 . S
H1322 C1351 0.950 . S
H1323 C1352 0.950 . S
H1324 C1354 0.950 . S
H1325 C1355 0.950 . S
C1326 H1308 0.951 . S
C1326 C1327 1.366 . S
C1326 C1328 1.388 . S
C1327 C1326 1.366 . S
C1327 C1331 1.385 . S
C1328 H1309 0.951 . S
C1328 C1326 1.388 . S
C1328 C1329 1.366 . S
C1329 C1328 1.366 . S
C1329 C1330 1.414 . S
C1329 C1332 1.499 . S
C1330 H1310 0.950 . S
C1330 C1329 1.414 . S
C1330 C1331 1.374 . S
C1331 H1311 0.950 . S
C1331 C1327 1.385 . S
C1331 C1330 1.374 . S
C1332 C1329 1.499 . S
C1332 C1333 1.373 . S
C1332 C1334 1.389 . S
C1333 H1312 0.950 . S
C1333 C1332 1.373 . S
C1333 C1349 1.377 . S
C1334 C1332 1.389 . S
C1334 C1335 1.524 1_554 S
C1334 C1348 1.377 . S
C1335 C1334 1.524 1_556 S
C1335 C1336 1.397 . S
C1335 C1340 1.363 . S
C1336 H1313 0.950 . S
C1336 C1335 1.397 . S
C1336 C1337 1.334 . S
C1337 H1314 0.950 . S
C1337 C1336 1.334 . S
C1337 C1338 1.287 . S
C1338 C1337 1.287 . S
C1338 C1339 1.524 . S
C1338 H1357 0.913 . S
C1339 H1315 0.950 . S
C1339 C1338 1.524 . S
C1339 C1340 1.415 . S
C1340 H1316 0.939 1_556 S
C1340 C1335 1.363 . S
C1340 C1339 1.415 . S
C1341 H1317 0.951 . S
C1341 C1342 1.366 . S
C1341 C1343 1.388 . S
C1342 C1341 1.366 . S
C1342 C1346 1.385 . S
C1343 H1318 0.951 . S
C1343 C1341 1.388 . S
C1343 C1344 1.366 . S
C1344 C1343 1.366 . S
C1344 C1345 1.414 . S
C1344 C1347 1.499 . S
C1345 H1319 0.950 . S
C1345 C1344 1.414 . S
C1345 C1346 1.374 . S
C1346 H1320 0.950 . S
C1346 C1342 1.385 . S
C1346 C1345 1.374 . S
C1347 C1344 1.499 . S
C1347 C1348 1.373 . S
C1347 C1349 1.389 . S
C1348 H1321 0.950 . S
C1348 C1334 1.377 . S
C1348 C1347 1.373 . S
C1349 C1333 1.377 . S
C1349 C1347 1.389 . S
C1349 C1350 1.524 . S
C1350 C1349 1.524 . S
C1350 C1351 1.397 . S
C1350 C1355 1.363 . S
C1351 H1322 0.950 . S
C1351 C1350 1.397 . S
C1351 C1352 1.334 . S
C1352 H1323 0.950 . S
C1352 C1351 1.334 . S
C1352 C1353 1.287 . S
C1353 C1352 1.287 . S
C1353 C1354 1.524 . S
C1353 H1356 0.999 . S
C1354 H1324 0.950 . S
C1354 C1353 1.524 . S
C1354 C1355 1.415 . S
C1355 H1325 0.950 . S
C1355 C1350 1.363 . S
C1355 C1354 1.415 . S
H1356 C1353 0.999 . S
H1357 C1338 0.913 . S
H1358 C1376 0.951 . S
H1359 C1378 0.951 . S
H1360 C1380 0.950 . S
H1361 C1381 0.950 . S
H1362 C1383 0.950 . S
H1363 C1386 0.950 . S
H1364 C1387 0.950 . S
H1365 C1389 0.950 . S
H1366 C1390 0.950 . S
H1367 C1391 0.951 . S
H1368 C1393 0.951 . S
H1369 C1395 0.950 . S
H1370 C1396 0.950 . S
H1371 C1398 0.950 . S
H1372 C1401 0.950 . S
H1373 C1402 0.950 . S
H1374 C1404 0.950 . S
H1375 C1405 0.950 . S
C1376 H1358 0.951 . S
C1376 C1377 1.366 . S
C1376 C1378 1.388 . S
C1377 C1376 1.366 . S
C1377 C1381 1.385 . S
C1378 H1359 0.951 . S
C1378 C1376 1.388 . S
C1378 C1379 1.366 . S
C1379 C1378 1.366 . S
C1379 C1380 1.414 . S
C1379 C1382 1.499 . S
C1380 H1360 0.950 . S
C1380 C1379 1.414 . S
C1380 C1381 1.374 . S
C1381 H1361 0.950 . S
C1381 C1377 1.385 . S
C1381 C1380 1.374 . S
C1382 C1379 1.499 . S
C1382 C1383 1.373 . S
C1382 C1384 1.389 . S
C1383 H1362 0.950 . S
C1383 C1382 1.373 . S
C1383 C1399 1.377 . S
C1384 C1382 1.389 . S
C1384 C1385 1.524 . S
C1384 C1398 1.377 . S
C1385 C1384 1.524 . S
C1385 C1386 1.397 . S
C1385 C1390 1.363 . S
C1386 H1363 0.950 . S
C1386 C1385 1.397 . S
C1386 C1387 1.334 . S
C1387 H1364 0.950 . S
C1387 C1386 1.334 . S
C1387 C1388 1.287 . S
C1388 C1387 1.287 . S
C1388 C1389 1.524 . S
C1388 H1407 0.913 . S
C1389 H1365 0.950 . S
C1389 C1388 1.524 . S
C1389 C1390 1.415 . S
C1390 H1366 0.950 . S
C1390 C1385 1.363 . S
C1390 C1389 1.415 . S
C1391 H1367 0.951 . S
C1391 C1392 1.366 . S
C1391 C1393 1.388 . S
C1392 C1391 1.366 . S
C1392 C1396 1.385 . S
C1393 H1368 0.951 . S
C1393 C1391 1.388 . S
C1393 C1394 1.366 . S
C1394 C1393 1.366 . S
C1394 C1395 1.414 . S
C1394 C1397 1.499 . S
C1395 H1369 0.950 . S
C1395 C1394 1.414 . S
C1395 C1396 1.374 . S
C1396 H1370 0.950 . S
C1396 C1392 1.385 . S
C1396 C1395 1.374 . S
C1397 C1394 1.499 . S
C1397 C1398 1.373 . S
C1397 C1399 1.389 . S
C1398 H1371 0.950 . S
C1398 C1384 1.377 . S
C1398 C1397 1.373 . S
C1399 C1383 1.377 . S
C1399 C1397 1.389 . S
C1399 C1400 1.524 . S
C1400 C1399 1.524 . S
C1400 C1401 1.397 . S
C1400 C1405 1.363 . S
C1401 H1372 0.950 . S
C1401 C1400 1.397 . S
C1401 C1402 1.334 . S
C1402 H1373 0.950 . S
C1402 C1401 1.334 . S
C1402 C1403 1.287 . S
C1403 C1402 1.287 . S
C1403 C1404 1.524 . S
C1403 H1406 0.999 . S
C1404 H1374 0.950 . S
C1404 C1403 1.524 . S
C1404 C1405 1.415 . S
C1405 H1375 0.950 . S
C1405 C1400 1.363 . S
C1405 C1404 1.415 . S
H1406 C1403 0.999 . S
H1407 C1388 0.913 . S
H1408 C1426 0.951 . S
H1409 C1428 0.951 . S
H1410 C1430 0.950 . S
H1411 C1431 0.950 . S
H1412 C1433 0.950 . S
H1413 C1436 0.950 . S
H1414 C1437 0.950 . S
H1415 C1439 0.950 . S
H1416 C1440 0.950 . S
H1417 C1441 0.951 . S
H1418 C1443 0.951 . S
H1419 C1445 0.950 . S
H1420 C1446 0.950 . S
H1421 C1448 0.950 . S
H1422 C1451 0.950 . S
H1423 C1452 0.950 . S
H1424 C1454 0.950 . S
H1425 C1455 0.950 . S
C1426 H1408 0.951 . S
C1426 C1427 1.366 . S
C1426 C1428 1.388 . S
C1427 C1426 1.366 . S
C1427 C1431 1.385 . S
C1428 H1409 0.951 . S
C1428 C1426 1.388 . S
C1428 C1429 1.366 . S
C1429 C1428 1.366 . S
C1429 C1430 1.414 . S
C1429 C1432 1.499 . S
C1430 H1410 0.950 . S
C1430 C1429 1.414 . S
C1430 C1431 1.374 . S
C1431 H1411 0.950 . S
C1431 C1427 1.385 . S
C1431 C1430 1.374 . S
C1432 C1429 1.499 . S
C1432 C1433 1.373 . S
C1432 C1434 1.389 . S
C1433 H1412 0.950 . S
C1433 C1432 1.373 . S
C1433 C1449 1.377 . S
C1434 C1432 1.389 . S
C1434 C1435 1.524 . S
C1434 C1448 1.377 . S
C1435 C1434 1.524 . S
C1435 C1436 1.397 . S
C1435 C1440 1.363 . S
C1436 H1413 0.950 . S
C1436 C1435 1.397 . S
C1436 C1437 1.334 . S
C1437 H1414 0.950 . S
C1437 C1436 1.334 . S
C1437 C1438 1.287 . S
C1438 C1437 1.287 . S
C1438 C1439 1.524 . S
C1438 H1457 0.913 . S
C1439 H1415 0.950 . S
C1439 C1438 1.524 . S
C1439 C1440 1.415 . S
C1440 H1416 0.950 . S
C1440 C1435 1.363 . S
C1440 C1439 1.415 . S
C1441 H1417 0.951 . S
C1441 C1442 1.366 . S
C1441 C1443 1.388 . S
C1442 C1441 1.366 . S
C1442 C1446 1.385 . S
C1443 H1418 0.951 . S
C1443 C1441 1.388 . S
C1443 C1444 1.366 . S
C1444 C1443 1.366 . S
C1444 C1445 1.414 . S
C1444 C1447 1.499 . S
C1445 H1419 0.950 . S
C1445 C1444 1.414 . S
C1445 C1446 1.374 . S
C1446 H1420 0.950 . S
C1446 C1442 1.385 . S
C1446 C1445 1.374 . S
C1447 C1444 1.499 . S
C1447 C1448 1.373 . S
C1447 C1449 1.389 . S
C1448 H1421 0.950 . S
C1448 C1434 1.377 . S
C1448 C1447 1.373 . S
C1449 C1433 1.377 . S
C1449 C1447 1.389 . S
C1449 C1450 1.524 . S
C1450 C1449 1.524 . S
C1450 C1451 1.397 . S
C1450 C1455 1.363 . S
C1451 H1422 0.950 . S
C1451 C1450 1.397 . S
C1451 C1452 1.334 . S
C1452 H1423 0.950 . S
C1452 C1451 1.334 . S
C1452 C1453 1.287 . S
C1453 C1452 1.287 . S
C1453 C1454 1.524 . S
C1453 H1456 0.999 . S
C1454 H1424 0.950 . S
C1454 C1453 1.524 . S
C1454 C1455 1.415 . S
C1455 H1425 0.950 . S
C1455 C1450 1.363 . S
C1455 C1454 1.415 . S
H1456 C1453 0.999 . S
H1457 C1438 0.913 . S
H1458 C1476 0.951 . S
H1459 C1478 0.951 . S
H1460 C1480 0.950 . S
H1461 C1481 0.950 . S
H1462 C1483 0.950 . S
H1463 C1486 0.950 . S
H1464 C1487 0.950 . S
H1465 C1489 0.950 . S
H1466 C1490 0.950 . S
H1467 C1491 0.951 . S
H1468 C1493 0.951 . S
H1469 C1495 0.950 . S
H1470 C1496 0.950 . S
H1471 C1498 0.950 . S
H1472 C1501 0.950 . S
H1473 C1502 0.950 . S
H1474 C1504 0.950 . S
H1475 C1505 0.950 . S
C1476 H1458 0.951 . S
C1476 C1477 1.366 . S
C1476 C1478 1.388 . S
C1477 C1476 1.366 . S
C1477 C1481 1.385 . S
C1478 H1459 0.951 . S
C1478 C1476 1.388 . S
C1478 C1479 1.366 . S
C1479 C1478 1.366 . S
C1479 C1480 1.414 . S
C1479 C1482 1.499 . S
C1480 H1460 0.950 . S
C1480 C1479 1.414 . S
C1480 C1481 1.374 . S
C1481 H1461 0.950 . S
C1481 C1477 1.385 . S
C1481 C1480 1.374 . S
C1482 C1479 1.499 . S
C1482 C1483 1.373 . S
C1482 C1484 1.389 . S
C1483 H1462 0.950 . S
C1483 C1482 1.373 . S
C1483 C1499 1.377 . S
C1484 C1482 1.389 . S
C1484 C1485 1.524 . S
C1484 C1498 1.377 . S
C1485 C1484 1.524 . S
C1485 C1486 1.397 . S
C1485 C1490 1.363 . S
C1486 H1463 0.950 . S
C1486 C1485 1.397 . S
C1486 C1487 1.334 . S
C1487 H1464 0.950 . S
C1487 C1486 1.334 . S
C1487 C1488 1.287 . S
C1488 C1487 1.287 . S
C1488 C1489 1.524 . S
C1488 H1507 0.913 . S
C1489 H1465 0.950 . S
C1489 C1488 1.524 . S
C1489 C1490 1.415 . S
C1490 H1466 0.950 . S
C1490 C1485 1.363 . S
C1490 C1489 1.415 . S
C1491 H1467 0.951 . S
C1491 C1492 1.366 . S
C1491 C1493 1.388 . S
C1492 C1491 1.366 . S
C1492 C1496 1.385 . S
C1493 H1468 0.951 . S
C1493 C1491 1.388 . S
C1493 C1494 1.366 . S
C1494 C1493 1.366 . S
C1494 C1495 1.414 . S
C1494 C1497 1.499 . S
C1495 H1469 0.950 . S
C1495 C1494 1.414 . S
C1495 C1496 1.374 . S
C1496 H1470 0.950 . S
C1496 C1492 1.385 . S
C1496 C1495 1.374 . S
C1497 C1494 1.499 . S
C1497 C1498 1.373 . S
C1497 C1499 1.389 . S
C1498 H1471 0.950 . S
C1498 C1484 1.377 . S
C1498 C1497 1.373 . S
C1499 C1483 1.377 . S
C1499 C1497 1.389 . S
C1499 C1500 1.524 . S
C1500 C1499 1.524 . S
C1500 C1501 1.397 . S
C1500 C1505 1.363 . S
C1501 H1472 0.950 . S
C1501 C1500 1.397 . S
C1501 C1502 1.334 . S
C1502 H1473 0.950 . S
C1502 C1501 1.334 . S
C1502 C1503 1.287 . S
C1503 C1502 1.287 . S
C1503 C1504 1.524 . S
C1503 H1506 0.999 . S
C1504 H1474 0.950 . S
C1504 C1503 1.524 . S
C1504 C1505 1.415 . S
C1505 H1475 0.950 . S
C1505 C1500 1.363 . S
C1505 C1504 1.415 . S
H1506 C1503 0.999 . S
H1507 C1488 0.913 . S
H1508 C1526 0.951 . S
H1509 C1528 0.951 . S
H1510 C1530 0.950 . S
H1511 C1531 0.950 . S
H1512 C1533 0.950 . S
H1513 C1536 0.950 . S
H1514 C1537 0.950 . S
H1515 C1539 0.950 . S
H1516 C1540 0.950 . S
H1517 C1541 0.951 . S
H1518 C1543 0.951 . S
H1519 C1545 0.950 . S
H1520 C1546 0.950 . S
H1521 C1548 0.950 . S
H1522 C1551 0.950 . S
H1523 C1552 0.950 . S
H1524 C1554 0.950 . S
H1525 C1555 0.950 . S
C1526 H1508 0.951 . S
C1526 C1527 1.366 . S
C1526 C1528 1.388 . S
C1527 C1526 1.366 . S
C1527 C1531 1.385 . S
C1528 H1509 0.951 . S
C1528 C1526 1.388 . S
C1528 C1529 1.366 . S
C1529 C1528 1.366 . S
C1529 C1530 1.414 . S
C1529 C1532 1.499 . S
C1530 H1510 0.950 . S
C1530 C1529 1.414 . S
C1530 C1531 1.374 . S
C1531 H1511 0.950 . S
C1531 C1527 1.385 . S
C1531 C1530 1.374 . S
C1532 C1529 1.499 . S
C1532 C1533 1.373 . S
C1532 C1534 1.389 . S
C1533 H1512 0.950 . S
C1533 C1532 1.373 . S
C1533 C1549 1.377 . S
C1534 C1532 1.389 . S
C1534 C1535 1.524 . S
C1534 C1548 1.377 . S
C1535 C1534 1.524 . S
C1535 C1536 1.397 . S
C1535 C1540 1.363 . S
C1536 H1513 0.950 . S
C1536 C1535 1.397 . S
C1536 C1537 1.334 . S
C1537 H1514 0.950 . S
C1537 C1536 1.334 . S
C1537 C1538 1.287 . S
C1538 C1537 1.287 . S
C1538 C1539 1.524 . S
C1538 H1557 0.913 . S
C1539 H1515 0.950 . S
C1539 C1538 1.524 . S
C1539 C1540 1.415 . S
C1540 H1516 0.950 . S
C1540 C1535 1.363 . S
C1540 C1539 1.415 . S
C1541 H1517 0.951 . S
C1541 C1542 1.366 . S
C1541 C1543 1.388 . S
C1542 C1541 1.366 . S
C1542 C1546 1.385 . S
C1543 H1518 0.951 . S
C1543 C1541 1.388 . S
C1543 C1544 1.366 . S
C1544 C1543 1.366 . S
C1544 C1545 1.414 . S
C1544 C1547 1.499 . S
C1545 H1519 0.950 . S
C1545 C1544 1.414 . S
C1545 C1546 1.374 . S
C1546 H1520 0.950 . S
C1546 C1542 1.385 . S
C1546 C1545 1.374 . S
C1547 C1544 1.499 . S
C1547 C1548 1.373 . S
C1547 C1549 1.389 . S
C1548 H1521 0.950 . S
C1548 C1534 1.377 . S
C1548 C1547 1.373 . S
C1549 C1533 1.377 . S
C1549 C1547 1.389 . S
C1549 C1550 1.524 . S
C1550 C1549 1.524 . S
C1550 C1551 1.397 . S
C1550 C1555 1.363 . S
C1551 H1522 0.950 . S
C1551 C1550 1.397 . S
C1551 C1552 1.334 . S
C1552 H1523 0.950 . S
C1552 C1551 1.334 . S
C1552 C1553 1.287 . S
C1553 C1552 1.287 . S
C1553 C1554 1.524 . S
C1553 H1556 0.999 . S
C1554 H1524 0.950 . S
C1554 C1553 1.524 . S
C1554 C1555 1.415 . S
C1555 H1525 0.950 . S
C1555 C1550 1.363 . S
C1555 C1554 1.415 . S
H1556 C1553 0.999 . S
H1557 C1538 0.913 . S
H1558 C1576 0.951 . S
H1559 C1578 0.951 . S
H1560 C1580 0.950 . S
H1561 C1581 0.950 . S
H1562 C1583 0.950 . S
H1563 C1586 0.950 . S
H1564 C1587 0.950 . S
H1565 C1589 0.950 . S
H1566 C1590 0.950 . S
H1567 C1591 0.951 . S
H1568 C1593 0.951 . S
H1569 C1595 0.950 . S
H1570 C1596 0.950 . S
H1571 C1598 0.950 . S
H1572 C1601 0.950 . S
H1573 C1602 0.950 . S
H1574 C1604 0.950 . S
H1575 C1605 0.950 . S
C1576 H1558 0.951 . S
C1576 C1577 1.366 . S
C1576 C1578 1.388 . S
C1577 C1576 1.366 . S
C1577 C1581 1.385 . S
C1578 H1559 0.951 . S
C1578 C1576 1.388 . S
C1578 C1579 1.366 . S
C1579 C1578 1.366 . S
C1579 C1580 1.414 . S
C1579 C1582 1.499 . S
C1580 H1560 0.950 . S
C1580 C1579 1.414 . S
C1580 C1581 1.374 . S
C1581 H1561 0.950 . S
C1581 C1577 1.385 . S
C1581 C1580 1.374 . S
C1582 C1579 1.499 . S
C1582 C1583 1.373 . S
C1582 C1584 1.389 . S
C1583 H1562 0.950 . S
C1583 C1582 1.373 . S
C1583 C1599 1.377 . S
C1584 C1582 1.389 . S
C1584 C1585 1.524 . S
C1584 C1598 1.377 . S
C1585 C1584 1.524 . S
C1585 C1586 1.397 . S
C1585 C1590 1.363 . S
C1586 H1563 0.950 . S
C1586 C1585 1.397 . S
C1586 C1587 1.334 . S
C1587 H1564 0.950 . S
C1587 C1586 1.334 . S
C1587 C1588 1.287 . S
C1588 C1587 1.287 . S
C1588 C1589 1.524 . S
C1588 H1607 0.913 . S
C1589 H1565 0.950 . S
C1589 C1588 1.524 . S
C1589 C1590 1.415 . S
C1590 H1566 0.950 . S
C1590 C1585 1.363 . S
C1590 C1589 1.415 . S
C1591 H1567 0.951 . S
C1591 C1592 1.366 . S
C1591 C1593 1.388 . S
C1592 C1591 1.366 . S
C1592 C1596 1.385 . S
C1593 H1568 0.951 . S
C1593 C1591 1.388 . S
C1593 C1594 1.366 . S
C1594 C1593 1.366 . S
C1594 C1595 1.414 . S
C1594 C1597 1.499 . S
C1595 H1569 0.950 . S
C1595 C1594 1.414 . S
C1595 C1596 1.374 . S
C1596 H1570 0.950 . S
C1596 C1592 1.385 . S
C1596 C1595 1.374 . S
C1597 C1594 1.499 . S
C1597 C1598 1.373 . S
C1597 C1599 1.389 . S
C1598 H1571 0.950 . S
C1598 C1584 1.377 . S
C1598 C1597 1.373 . S
C1599 C1583 1.377 . S
C1599 C1597 1.389 . S
C1599 C1600 1.524 . S
C1600 C1599 1.524 . S
C1600 C1601 1.397 . S
C1600 C1605 1.363 . S
C1601 H1572 0.950 . S
C1601 C1600 1.397 . S
C1601 C1602 1.334 . S
C1602 H1573 0.950 . S
C1602 C1601 1.334 . S
C1602 C1603 1.287 . S
C1603 C1602 1.287 . S
C1603 C1604 1.524 . S
C1603 H1606 0.999 . S
C1604 H1574 0.950 . S
C1604 C1603 1.524 . S
C1604 C1605 1.415 . S
C1605 H1575 0.950 . S
C1605 C1600 1.363 . S
C1605 C1604 1.415 . S
H1606 C1603 0.999 . S
H1607 C1588 0.913 . S
H1608 C1626 0.951 . S
H1609 C1628 0.951 . S
H1610 C1630 0.950 . S
H1611 C1631 0.950 . S
H1612 C1633 0.950 . S
H1613 C1636 0.950 . S
H1614 C1637 0.950 . S
H1615 C1639 0.950 . S
H1616 C1640 0.950 . S
H1617 C1641 0.951 . S
H1618 C1643 0.951 . S
H1619 C1645 0.950 . S
H1620 C1646 0.950 . S
H1621 C1648 0.950 . S
H1622 C1651 0.950 . S
H1623 C1652 0.950 . S
H1624 C1654 0.950 . S
H1625 C1655 0.950 . S
C1626 H1608 0.951 . S
C1626 C1627 1.366 . S
C1626 C1628 1.388 . S
C1627 C1626 1.366 . S
C1627 C1631 1.385 . S
C1628 H1609 0.951 . S
C1628 C1626 1.388 . S
C1628 C1629 1.366 . S
C1629 C1628 1.366 . S
C1629 C1630 1.414 . S
C1629 C1632 1.499 . S
C1630 H1610 0.950 . S
C1630 C1629 1.414 . S
C1630 C1631 1.374 . S
C1631 H1611 0.950 . S
C1631 C1627 1.385 . S
C1631 C1630 1.374 . S
C1632 C1629 1.499 . S
C1632 C1633 1.373 . S
C1632 C1634 1.389 . S
C1633 H1612 0.950 . S
C1633 C1632 1.373 . S
C1633 C1649 1.377 . S
C1634 C1632 1.389 . S
C1634 C1635 1.524 . S
C1634 C1648 1.377 . S
C1635 C1634 1.524 . S
C1635 C1636 1.397 . S
C1635 C1640 1.363 . S
C1636 H1613 0.950 . S
C1636 C1635 1.397 . S
C1636 C1637 1.334 . S
C1637 H1614 0.950 . S
C1637 C1636 1.334 . S
C1637 C1638 1.287 . S
C1638 C1637 1.287 . S
C1638 C1639 1.524 . S
C1638 H1657 0.913 . S
C1639 H1615 0.950 . S
C1639 C1638 1.524 . S
C1639 C1640 1.415 . S
C1640 H1616 0.950 . S
C1640 C1635 1.363 . S
C1640 C1639 1.415 . S
C1641 H1617 0.951 . S
C1641 C1642 1.366 . S
C1641 C1643 1.388 . S
C1642 C1641 1.366 . S
C1642 C1646 1.385 . S
C1643 H1618 0.951 . S
C1643 C1641 1.388 . S
C1643 C1644 1.366 . S
C1644 C1643 1.366 . S
C1644 C1645 1.414 . S
C1644 C1647 1.499 . S
C1645 H1619 0.950 . S
C1645 C1644 1.414 . S
C1645 C1646 1.374 . S
C1646 H1620 0.950 . S
C1646 C1642 1.385 . S
C1646 C1645 1.374 . S
C1647 C1644 1.499 . S
C1647 C1648 1.373 . S
C1647 C1649 1.389 . S
C1648 H1621 0.950 . S
C1648 C1634 1.377 . S
C1648 C1647 1.373 . S
C1649 C1633 1.377 . S
C1649 C1647 1.389 . S
C1649 C1650 1.524 . S
C1650 C1649 1.524 . S
C1650 C1651 1.397 . S
C1650 C1655 1.363 . S
C1651 H1622 0.950 . S
C1651 C1650 1.397 . S
C1651 C1652 1.334 . S
C1652 H1623 0.950 . S
C1652 C1651 1.334 . S
C1652 C1653 1.287 . S
C1653 C1652 1.287 . S
C1653 C1654 1.524 . S
C1653 H1656 0.999 . S
C1654 H1624 0.950 . S
C1654 C1653 1.524 . S
C1654 C1655 1.415 . S
C1655 H1625 0.950 . S
C1655 C1650 1.363 . S
C1655 C1654 1.415 . S
H1656 C1653 0.999 . S
H1657 C1638 0.913 . S
H1658 C1676 0.951 . S
H1659 C1678 0.951 . S
H1660 C1680 0.950 . S
H1661 C1681 0.950 . S
H1662 C1683 0.950 . S
H1663 C1686 0.950 . S
H1664 C1687 0.950 . S
H1665 C1689 0.950 . S
H1666 C1690 0.950 . S
H1667 C1691 0.951 . S
H1668 C1693 0.951 . S
H1669 C1695 0.950 . S
H1670 C1696 0.950 . S
H1671 C1698 0.950 . S
H1672 C1701 0.950 . S
H1673 C1702 0.950 . S
H1674 C1704 0.950 . S
H1675 C1705 0.950 . S
C1676 H1658 0.951 . S
C1676 C1677 1.366 . S
C1676 C1678 1.388 . S
C1677 C1676 1.366 . S
C1677 C1681 1.385 . S
C1678 H1659 0.951 . S
C1678 C1676 1.388 . S
C1678 C1679 1.366 . S
C1679 C1678 1.366 . S
C1679 C1680 1.414 . S
C1679 C1682 1.499 . S
C1680 H1660 0.950 . S
C1680 C1679 1.414 . S
C1680 C1681 1.374 . S
C1681 H1661 0.950 . S
C1681 C1677 1.385 . S
C1681 C1680 1.374 . S
C1682 C1679 1.499 . S
C1682 C1683 1.373 . S
C1682 C1684 1.389 . S
C1683 H1662 0.950 . S
C1683 C1682 1.373 . S
C1683 C1699 1.377 . S
C1684 C1682 1.389 . S
C1684 C1685 1.524 . S
C1684 C1698 1.377 . S
C1685 C1684 1.524 . S
C1685 C1686 1.397 . S
C1685 C1690 1.363 . S
C1686 H1663 0.950 . S
C1686 C1685 1.397 . S
C1686 C1687 1.334 . S
C1687 H1664 0.950 . S
C1687 C1686 1.334 . S
C1687 C1688 1.287 . S
C1688 C1687 1.287 . S
C1688 C1689 1.524 . S
C1688 H1707 0.913 . S
C1689 H1665 0.950 . S
C1689 C1688 1.524 . S
C1689 C1690 1.415 . S
C1690 H1666 0.950 . S
C1690 C1685 1.363 . S
C1690 C1689 1.415 . S
C1691 H1667 0.951 . S
C1691 C1692 1.366 . S
C1691 C1693 1.388 . S
C1692 C1691 1.366 . S
C1692 C1696 1.385 . S
C1693 H1668 0.951 . S
C1693 C1691 1.388 . S
C1693 C1694 1.366 . S
C1694 C1693 1.366 . S
C1694 C1695 1.414 . S
C1694 C1697 1.499 . S
C1695 H1669 0.950 . S
C1695 C1694 1.414 . S
C1695 C1696 1.374 . S
C1696 H1670 0.950 . S
C1696 C1692 1.385 . S
C1696 C1695 1.374 . S
C1697 C1694 1.499 . S
C1697 C1698 1.373 . S
C1697 C1699 1.389 . S
C1698 H1671 0.950 . S
C1698 C1684 1.377 . S
C1698 C1697 1.373 . S
C1699 C1683 1.377 . S
C1699 C1697 1.389 . S
C1699 C1700 1.524 . S
C1700 C1699 1.524 . S
C1700 C1701 1.397 . S
C1700 C1705 1.363 . S
C1701 H1672 0.950 . S
C1701 C1700 1.397 . S
C1701 C1702 1.334 . S
C1702 H1673 0.950 . S
C1702 C1701 1.334 . S
C1702 C1703 1.287 . S
C1703 C1702 1.287 . S
C1703 C1704 1.524 . S
C1703 H1706 0.999 . S
C1704 H1674 0.950 . S
C1704 C1703 1.524 . S
C1704 C1705 1.415 . S
C1705 H1675 0.950 . S
C1705 C1700 1.363 . S
C1705 C1704 1.415 . S
H1706 C1703 0.999 . S
H1707 C1688 0.913 . S
H1708 C1726 0.951 . S
H1709 C1728 0.951 . S
H1710 C1730 0.950 . S
H1711 C1731 0.950 . S
H1712 C1733 0.950 . S
H1713 C1736 0.950 . S
H1714 C1737 0.950 . S
H1715 C1739 0.950 . S
H1716 C1740 0.950 . S
H1717 C1741 0.951 . S
H1718 C1743 0.951 . S
H1719 C1745 0.950 . S
H1720 C1746 0.950 . S
H1721 C1748 0.950 . S
H1722 C1751 0.950 . S
H1723 C1752 0.950 . S
H1724 C1754 0.950 . S
H1725 C1755 0.950 . S
C1726 H1708 0.951 . S
C1726 C1727 1.366 . S
C1726 C1728 1.388 . S
C1727 C1726 1.366 . S
C1727 C1731 1.385 . S
C1728 H1709 0.951 . S
C1728 C1726 1.388 . S
C1728 C1729 1.366 . S
C1729 C1728 1.366 . S
C1729 C1730 1.414 . S
C1729 C1732 1.499 . S
C1730 H1710 0.950 . S
C1730 C1729 1.414 . S
C1730 C1731 1.374 . S
C1731 H1711 0.950 . S
C1731 C1727 1.385 . S
C1731 C1730 1.374 . S
C1732 C1729 1.499 . S
C1732 C1733 1.373 . S
C1732 C1734 1.389 . S
C1733 H1712 0.950 . S
C1733 C1732 1.373 . S
C1733 C1749 1.377 . S
C1734 C1732 1.389 . S
C1734 C1735 1.524 . S
C1734 C1748 1.377 . S
C1735 C1734 1.524 . S
C1735 C1736 1.397 . S
C1735 C1740 1.363 . S
C1736 H1713 0.950 . S
C1736 C1735 1.397 . S
C1736 C1737 1.334 . S
C1737 H1714 0.950 . S
C1737 C1736 1.334 . S
C1737 C1738 1.287 . S
C1738 C1737 1.287 . S
C1738 C1739 1.524 . S
C1738 H1757 0.913 . S
C1739 H1715 0.950 . S
C1739 C1738 1.524 . S
C1739 C1740 1.415 . S
C1740 H1716 0.950 . S
C1740 C1735 1.363 . S
C1740 C1739 1.415 . S
C1741 H1717 0.951 . S
C1741 C1742 1.366 . S
C1741 C1743 1.388 . S
C1742 C1741 1.366 . S
C1742 C1746 1.385 . S
C1743 H1718 0.951 . S
C1743 C1741 1.388 . S
C1743 C1744 1.366 . S
C1744 C1743 1.366 . S
C1744 C1745 1.414 . S
C1744 C1747 1.499 . S
C1745 H1719 0.950 . S
C1745 C1744 1.414 . S
C1745 C1746 1.374 . S
C1746 H1720 0.950 . S
C1746 C1742 1.385 . S
C1746 C1745 1.374 . S
C1747 C1744 1.499 . S
C1747 C1748 1.373 . S
C1747 C1749 1.389 . S
C1748 H1721 0.950 . S
C1748 C1734 1.377 . S
C1748 C1747 1.373 . S
C1749 C1733 1.377 . S
C1749 C1747 1.389 . S
C1749 C1750 1.524 . S
C1750 C1749 1.524 . S
C1750 C1751 1.397 . S
C1750 C1755 1.363 . S
C1751 H1722 0.950 . S
C1751 C1750 1.397 . S
C1751 C1752 1.334 . S
C1752 H1723 0.950 . S
C1752 C1751 1.334 . S
C1752 C1753 1.287 . S
C1753 C1752 1.287 . S
C1753 C1754 1.524 . S
C1753 H1756 0.999 . S
C1754 H1724 0.950 . S
C1754 C1753 1.524 . S
C1754 C1755 1.415 . S
C1755 H1725 0.950 . S
C1755 C1750 1.363 . S
C1755 C1754 1.415 . S
H1756 C1753 0.999 . S
H1757 C1738 0.913 . S
H1758 C1776 0.951 . S
H1759 C1778 0.951 . S
H1760 C1780 0.950 . S
H1761 C1781 0.950 . S
H1762 C1783 0.950 . S
H1763 C1786 0.950 . S
H1764 C1787 0.935 1_565 S
H1765 C1789 0.950 . S
H1766 C1790 0.950 . S
H1767 C1791 0.951 . S
H1768 C1793 0.951 . S
H1769 C1795 0.950 1_545 S
H1770 C1796 0.950 1_545 S
H1771 C1798 0.950 1_545 S
H1772 C1801 0.950 . S
H1773 C1802 0.950 . S
H1774 C1804 0.950 . S
H1775 C1805 0.950 . S
C1776 H1758 0.951 . S
C1776 C1777 1.366 1_545 S
C1776 C1778 1.388 . S
C1777 C1776 1.366 1_565 S
C1777 C1781 1.385 . S
C1778 H1759 0.951 . S
C1778 C1776 1.388 . S
C1778 C1779 1.366 1_545 S
C1779 C1778 1.366 1_565 S
C1779 C1780 1.414 . S
C1779 C1782 1.499 . S
C1780 H1760 0.950 . S
C1780 C1779 1.414 . S
C1780 C1781 1.374 . S
C1781 H1761 0.950 . S
C1781 C1777 1.385 . S
C1781 C1780 1.374 . S
C1782 C1779 1.499 . S
C1782 C1783 1.373 . S
C1782 C1784 1.389 . S
C1783 H1762 0.950 . S
C1783 C1782 1.373 . S
C1783 C1799 1.377 . S
C1784 C1782 1.389 . S
C1784 C1785 1.524 1_565 S
C1784 C1798 1.377 . S
C1785 C1784 1.524 1_545 S
C1785 C1786 1.397 1_545 S
C1785 C1790 1.363 . S
C1786 H1763 0.950 . S
C1786 C1785 1.397 1_565 S
C1786 C1787 1.334 1_565 S
C1787 H1764 0.935 1_545 S
C1787 C1786 1.334 1_545 S
C1787 C1788 1.287 . S
C1788 C1787 1.287 . S
C1788 C1789 1.524 . S
C1788 H1807 0.913 . S
C1789 H1765 0.950 . S
C1789 C1788 1.524 . S
C1789 C1790 1.415 . S
C1790 H1766 0.950 . S
C1790 C1785 1.363 . S
C1790 C1789 1.415 . S
C1791 H1767 0.951 . S
C1791 C1792 1.366 . S
C1791 C1793 1.388 . S
C1792 C1791 1.366 . S
C1792 C1796 1.385 . S
C1793 H1768 0.951 . S
C1793 C1791 1.388 . S
C1793 C1794 1.366 . S
C1794 C1793 1.366 . S
C1794 C1795 1.414 . S
C1794 C1797 1.499 . S
C1795 H1769 0.950 1_565 S
C1795 C1794 1.414 . S
C1795 C1796 1.374 . S
C1796 H1770 0.950 1_565 S
C1796 C1792 1.385 . S
C1796 C1795 1.374 . S
C1797 C1794 1.499 . S
C1797 C1798 1.373 . S
C1797 C1799 1.389 . S
C1798 H1771 0.950 1_565 S
C1798 C1784 1.377 . S
C1798 C1797 1.373 . S
C1799 C1783 1.377 . S
C1799 C1797 1.389 . S
C1799 C1800 1.524 . S
C1800 C1799 1.524 . S
C1800 C1801 1.397 . S
C1800 C1805 1.363 . S
C1801 H1772 0.950 . S
C1801 C1800 1.397 . S
C1801 C1802 1.334 . S
C1802 H1773 0.950 . S
C1802 C1801 1.334 . S
C1802 C1803 1.287 . S
C1803 C1802 1.287 . S
C1803 C1804 1.524 . S
C1803 H1806 0.999 . S
C1804 H1774 0.950 . S
C1804 C1803 1.524 . S
C1804 C1805 1.415 . S
C1805 H1775 0.950 . S
C1805 C1800 1.363 . S
C1805 C1804 1.415 . S
H1806 C1803 0.999 . S
H1807 C1788 0.913 . S
H1808 C1826 0.951 . S
H1809 C1828 0.951 . S
H1810 C1830 0.950 . S
H1811 C1831 0.950 . S
H1812 C1833 0.950 . S
H1813 C1836 0.950 . S
H1814 C1837 0.950 . S
H1815 C1839 0.950 . S
H1816 C1840 0.950 . S
H1817 C1841 0.951 . S
H1818 C1843 0.951 . S
H1819 C1845 0.950 . S
H1820 C1846 0.950 . S
H1821 C1848 0.950 . S
H1822 C1851 0.950 . S
H1823 C1852 0.950 . S
H1824 C1854 0.950 . S
H1825 C1855 0.950 . S
C1826 H1808 0.951 . S
C1826 C1827 1.366 . S
C1826 C1828 1.388 . S
C1827 C1826 1.366 . S
C1827 C1831 1.385 . S
C1828 H1809 0.951 . S
C1828 C1826 1.388 . S
C1828 C1829 1.366 . S
C1829 C1828 1.366 . S
C1829 C1830 1.414 . S
C1829 C1832 1.499 . S
C1830 H1810 0.950 . S
C1830 C1829 1.414 . S
C1830 C1831 1.374 . S
C1831 H1811 0.950 . S
C1831 C1827 1.385 . S
C1831 C1830 1.374 . S
C1832 C1829 1.499 . S
C1832 C1833 1.373 . S
C1832 C1834 1.389 . S
C1833 H1812 0.950 . S
C1833 C1832 1.373 . S
C1833 C1849 1.377 . S
C1834 C1832 1.389 . S
C1834 C1835 1.524 . S
C1834 C1848 1.377 . S
C1835 C1834 1.524 . S
C1835 C1836 1.397 . S
C1835 C1840 1.363 . S
C1836 H1813 0.950 . S
C1836 C1835 1.397 . S
C1836 C1837 1.334 . S
C1837 H1814 0.950 . S
C1837 C1836 1.334 . S
C1837 C1838 1.287 . S
C1838 C1837 1.287 . S
C1838 C1839 1.524 . S
C1838 H1857 0.913 . S
C1839 H1815 0.950 . S
C1839 C1838 1.524 . S
C1839 C1840 1.415 . S
C1840 H1816 0.950 . S
C1840 C1835 1.363 . S
C1840 C1839 1.415 . S
C1841 H1817 0.951 . S
C1841 C1842 1.366 . S
C1841 C1843 1.388 . S
C1842 C1841 1.366 . S
C1842 C1846 1.385 . S
C1843 H1818 0.951 . S
C1843 C1841 1.388 . S
C1843 C1844 1.366 . S
C1844 C1843 1.366 . S
C1844 C1845 1.414 . S
C1844 C1847 1.499 . S
C1845 H1819 0.950 . S
C1845 C1844 1.414 . S
C1845 C1846 1.374 . S
C1846 H1820 0.950 . S
C1846 C1842 1.385 . S
C1846 C1845 1.374 . S
C1847 C1844 1.499 . S
C1847 C1848 1.373 . S
C1847 C1849 1.389 . S
C1848 H1821 0.950 . S
C1848 C1834 1.377 . S
C1848 C1847 1.373 . S
C1849 C1833 1.377 . S
C1849 C1847 1.389 . S
C1849 C1850 1.524 . S
C1850 C1849 1.524 . S
C1850 C1851 1.397 . S
C1850 C1855 1.363 . S
C1851 H1822 0.950 . S
C1851 C1850 1.397 . S
C1851 C1852 1.334 . S
C1852 H1823 0.950 . S
C1852 C1851 1.334 . S
C1852 C1853 1.287 . S
C1853 C1852 1.287 . S
C1853 C1854 1.524 . S
C1853 H1856 0.999 . S
C1854 H1824 0.950 . S
C1854 C1853 1.524 . S
C1854 C1855 1.415 . S
C1855 H1825 0.950 . S
C1855 C1850 1.363 . S
C1855 C1854 1.415 . S
H1856 C1853 0.999 . S
H1857 C1838 0.913 . S
H1858 C1876 0.951 . S
H1859 C1878 0.951 . S
H1860 C1880 0.927 1_565 S
H1861 C1881 0.951 1_565 S
H1862 C1883 0.950 . S
H1863 C1886 0.950 1_565 S
H1864 C1887 0.950 . S
H1865 C1889 0.950 . S
H1866 C1890 0.950 . S
H1867 C1891 0.951 1_565 S
H1868 C1893 0.951 1_565 S
H1869 C1895 0.950 . S
H1870 C1896 0.950 . S
H1871 C1898 0.950 . S
H1872 C1901 0.950 . S
H1873 C1902 0.950 . S
H1874 C1904 0.950 1_565 S
H1875 C1905 0.950 1_565 S
C1876 H1858 0.951 . S
C1876 C1877 1.366 . S
C1876 C1878 1.388 . S
C1877 C1876 1.366 . S
C1877 C1881 1.383 . S
C1878 H1859 0.951 . S
C1878 C1876 1.388 . S
C1878 C1879 1.366 . S
C1879 C1878 1.366 . S
C1879 C1880 1.441 . S
C1879 C1882 1.499 . S
C1880 H1860 0.927 1_545 S
C1880 C1879 1.441 . S
C1880 C1881 1.371 . S
C1881 H1861 0.951 1_545 S
C1881 C1877 1.383 . S
C1881 C1880 1.371 . S
C1882 C1879 1.499 . S
C1882 C1883 1.373 . S
C1882 C1884 1.389 . S
C1883 H1862 0.950 . S
C1883 C1882 1.373 . S
C1883 C1899 1.377 . S
C1884 C1882 1.389 . S
C1884 C1885 1.524 . S
C1884 C1898 1.377 . S
C1885 C1884 1.524 . S
C1885 C1886 1.397 . S
C1885 C1890 1.363 . S
C1886 H1863 0.950 1_545 S
C1886 C1885 1.397 . S
C1886 C1887 1.334 1_545 S
C1887 H1864 0.950 . S
C1887 C1886 1.334 1_565 S
C1887 C1888 1.287 1_565 S
C1888 C1887 1.287 1_545 S
C1888 C1889 1.524 . S
C1888 H1907 0.913 . S
C1889 H1865 0.950 . S
C1889 C1888 1.524 . S
C1889 C1890 1.415 . S
C1890 H1866 0.950 . S
C1890 C1885 1.363 . S
C1890 C1889 1.415 . S
C1891 H1867 0.951 1_545 S
C1891 C1892 1.366 . S
C1891 C1893 1.388 . S
C1892 C1891 1.366 . S
C1892 C1896 1.385 . S
C1893 H1868 0.951 1_545 S
C1893 C1891 1.388 . S
C1893 C1894 1.366 . S
C1894 C1893 1.366 . S
C1894 C1895 1.414 . S
C1894 C1897 1.499 . S
C1895 H1869 0.950 . S
C1895 C1894 1.414 . S
C1895 C1896 1.374 . S
C1896 H1870 0.950 . S
C1896 C1892 1.385 . S
C1896 C1895 1.374 . S
C1897 C1894 1.499 . S
C1897 C1898 1.373 . S
C1897 C1899 1.389 . S
C1898 H1871 0.950 . S
C1898 C1884 1.377 . S
C1898 C1897 1.373 . S
C1899 C1883 1.377 . S
C1899 C1897 1.389 . S
C1899 C1900 1.524 . S
C1900 C1899 1.524 . S
C1900 C1901 1.397 . S
C1900 C1905 1.363 . S
C1901 H1872 0.950 . S
C1901 C1900 1.397 . S
C1901 C1902 1.334 . S
C1902 H1873 0.950 . S
C1902 C1901 1.334 . S
C1902 C1903 1.287 . S
C1903 C1902 1.287 . S
C1903 C1904 1.524 . S
C1903 H1906 0.999 . S
C1904 H1874 0.950 1_545 S
C1904 C1903 1.524 . S
C1904 C1905 1.415 . S
C1905 H1875 0.950 1_545 S
C1905 C1900 1.363 . S
C1905 C1904 1.415 . S
H1906 C1903 0.999 . S
H1907 C1888 0.913 . S
H1908 C1926 0.951 . S
H1909 C1928 0.951 . S
H1910 C1930 0.950 . S
H1911 C1931 0.950 . S
H1912 C1933 0.950 . S
H1913 C1936 0.950 . S
H1914 C1937 0.950 . S
H1915 C1939 0.950 . S
H1916 C1940 0.950 . S
H1917 C1941 0.951 . S
H1918 C1943 0.951 . S
H1919 C1945 0.950 . S
H1920 C1946 0.950 . S
H1921 C1948 0.950 . S
H1922 C1951 0.950 . S
H1923 C1952 0.950 . S
H1924 C1954 0.950 . S
H1925 C1955 0.950 . S
C1926 H1908 0.951 . S
C1926 C1927 1.366 . S
C1926 C1928 1.388 . S
C1927 C1926 1.366 . S
C1927 C1931 1.385 . S
C1928 H1909 0.951 . S
C1928 C1926 1.388 . S
C1928 C1929 1.366 . S
C1929 C1928 1.366 . S
C1929 C1930 1.414 . S
C1929 C1932 1.499 . S
C1930 H1910 0.950 . S
C1930 C1929 1.414 . S
C1930 C1931 1.374 . S
C1931 H1911 0.950 . S
C1931 C1927 1.385 . S
C1931 C1930 1.374 . S
C1932 C1929 1.499 . S
C1932 C1933 1.373 . S
C1932 C1934 1.389 . S
C1933 H1912 0.950 . S
C1933 C1932 1.373 . S
C1933 C1949 1.377 . S
C1934 C1932 1.389 . S
C1934 C1935 1.524 . S
C1934 C1948 1.377 . S
C1935 C1934 1.524 . S
C1935 C1936 1.397 . S
C1935 C1940 1.363 . S
C1936 H1913 0.950 . S
C1936 C1935 1.397 . S
C1936 C1937 1.334 . S
C1937 H1914 0.950 . S
C1937 C1936 1.334 . S
C1937 C1938 1.287 . S
C1938 C1937 1.287 . S
C1938 C1939 1.524 . S
C1938 H1957 0.913 . S
C1939 H1915 0.950 . S
C1939 C1938 1.524 . S
C1939 C1940 1.415 . S
C1940 H1916 0.950 . S
C1940 C1935 1.363 . S
C1940 C1939 1.415 . S
C1941 H1917 0.951 . S
C1941 C1942 1.366 . S
C1941 C1943 1.388 . S
C1942 C1941 1.366 . S
C1942 C1946 1.385 . S
C1943 H1918 0.951 . S
C1943 C1941 1.388 . S
C1943 C1944 1.366 . S
C1944 C1943 1.366 . S
C1944 C1945 1.414 . S
C1944 C1947 1.499 . S
C1945 H1919 0.950 . S
C1945 C1944 1.414 . S
C1945 C1946 1.374 . S
C1946 H1920 0.950 . S
C1946 C1942 1.385 . S
C1946 C1945 1.374 . S
C1947 C1944 1.499 . S
C1947 C1948 1.373 . S
C1947 C1949 1.389 . S
C1948 H1921 0.950 . S
C1948 C1934 1.377 . S
C1948 C1947 1.373 . S
C1949 C1933 1.377 . S
C1949 C1947 1.389 . S
C1949 C1950 1.524 . S
C1950 C1949 1.524 . S
C1950 C1951 1.397 . S
C1950 C1955 1.363 . S
C1951 H1922 0.950 . S
C1951 C1950 1.397 . S
C1951 C1952 1.334 . S
C1952 H1923 0.950 . S
C1952 C1951 1.334 . S
C1952 C1953 1.287 . S
C1953 C1952 1.287 . S
C1953 C1954 1.524 . S
C1953 H1956 0.999 . S
C1954 H1924 0.950 . S
C1954 C1953 1.524 . S
C1954 C1955 1.415 . S
C1955 H1925 0.950 . S
C1955 C1950 1.363 . S
C1955 C1954 1.415 . S
H1956 C1953 0.999 . S
H1957 C1938 0.913 . S
H1958 C1976 0.951 . S
H1959 C1978 0.951 . S
H1960 C1980 0.950 . S
H1961 C1981 0.950 . S
H1962 C1983 0.950 . S
H1963 C1986 0.950 . S
H1964 C1987 0.950 . S
H1965 C1989 0.950 . S
H1966 C1990 0.950 . S
H1967 C1991 0.951 . S
H1968 C1993 0.951 . S
H1969 C1995 0.950 1_554 S
H1970 C1996 0.950 . S
H1971 C1998 0.950 1_554 S
H1972 C2001 0.950 . S
H1973 C2002 0.950 . S
H1974 C2004 0.950 . S
H1975 C2005 0.950 . S
C1976 H1958 0.951 . S
C1976 C1977 1.366 1_554 S
C1976 C1978 1.388 . S
C1977 C1976 1.366 1_556 S
C1977 C1981 1.385 . S
C1978 H1959 0.951 . S
C1978 C1976 1.388 . S
C1978 C1979 1.366 1_554 S
C1979 C1978 1.366 1_556 S
C1979 C1980 1.414 . S
C1979 C1982 1.499 . S
C1980 H1960 0.950 . S
C1980 C1979 1.414 . S
C1980 C1981 1.374 . S
C1981 H1961 0.950 . S
C1981 C1977 1.385 . S
C1981 C1980 1.374 . S
C1982 C1979 1.499 . S
C1982 C1983 1.373 . S
C1982 C1984 1.386 1_556 S
C1983 H1962 0.950 . S
C1983 C1982 1.373 . S
C1983 C1999 1.377 . S
C1984 C1982 1.386 1_554 S
C1984 C1985 1.529 . S
C1984 C1998 1.375 1_554 S
C1985 C1984 1.529 . S
C1985 C1986 1.397 . S
C1985 C1990 1.363 . S
C1986 H1963 0.950 . S
C1986 C1985 1.397 . S
C1986 C1987 1.334 . S
C1987 H1964 0.950 . S
C1987 C1986 1.334 . S
C1987 C1988 1.287 . S
C1988 C1987 1.287 . S
C1988 C1989 1.524 . S
C1988 H2007 0.913 . S
C1989 H1965 0.950 . S
C1989 C1988 1.524 . S
C1989 C1990 1.415 . S
C1990 H1966 0.950 . S
C1990 C1985 1.363 . S
C1990 C1989 1.415 . S
C1991 H1967 0.951 . S
C1991 C1992 1.366 . S
C1991 C1993 1.388 . S
C1992 C1991 1.366 . S
C1992 C1996 1.385 . S
C1993 H1968 0.951 . S
C1993 C1991 1.388 . S
C1993 C1994 1.366 . S
C1994 C1993 1.366 . S
C1994 C1995 1.414 . S
C1994 C1997 1.499 . S
C1995 H1969 0.950 1_556 S
C1995 C1994 1.414 . S
C1995 C1996 1.374 . S
C1996 H1970 0.950 . S
C1996 C1992 1.385 . S
C1996 C1995 1.374 . S
C1997 C1994 1.499 . S
C1997 C1998 1.373 . S
C1997 C1999 1.389 . S
C1998 H1971 0.950 1_556 S
C1998 C1984 1.375 1_556 S
C1998 C1997 1.373 . S
C1999 C1983 1.377 . S
C1999 C1997 1.389 . S
C1999 C2000 1.524 . S
C2000 C1999 1.524 . S
C2000 C2001 1.397 . S
C2000 C2005 1.363 . S
C2001 H1972 0.950 . S
C2001 C2000 1.397 . S
C2001 C2002 1.334 . S
C2002 H1973 0.950 . S
C2002 C2001 1.334 . S
C2002 C2003 1.287 . S
C2003 C2002 1.287 . S
C2003 C2004 1.524 . S
C2003 H2006 0.999 . S
C2004 H1974 0.950 . S
C2004 C2003 1.524 . S
C2004 C2005 1.415 . S
C2005 H1975 0.950 . S
C2005 C2000 1.363 . S
C2005 C2004 1.415 . S
H2006 C2003 0.999 . S
H2007 C1988 0.913 . S
H2008 C2026 0.951 . S
H2009 C2028 0.951 . S
H2010 C2030 0.950 . S
H2011 C2031 0.950 . S
H2012 C2033 0.950 1_554 S
H2013 C2036 0.950 . S
H2014 C2037 0.950 . S
H2015 C2039 0.950 . S
H2016 C2040 0.950 . S
H2017 C2041 0.951 . S
H2018 C2043 0.951 . S
H2019 C2045 0.950 . S
H2020 C2046 0.950 . S
H2021 C2048 0.950 . S
H2022 C2051 0.950 . S
H2023 C2052 0.950 . S
H2024 C2054 0.950 . S
H2025 C2055 0.950 . S
C2026 H2008 0.951 . S
C2026 C2027 1.366 . S
C2026 C2028 1.388 . S
C2027 C2026 1.366 . S
C2027 C2031 1.385 . S
C2028 H2009 0.951 . S
C2028 C2026 1.388 . S
C2028 C2029 1.366 . S
C2029 C2028 1.366 . S
C2029 C2030 1.414 . S
C2029 C2032 1.499 . S
C2030 H2010 0.950 . S
C2030 C2029 1.414 . S
C2030 C2031 1.374 . S
C2031 H2011 0.950 . S
C2031 C2027 1.385 . S
C2031 C2030 1.374 . S
C2032 C2029 1.499 . S
C2032 C2033 1.373 . S
C2032 C2034 1.389 . S
C2033 H2012 0.950 1_556 S
C2033 C2032 1.373 . S
C2033 C2049 1.377 . S
C2034 C2032 1.389 . S
C2034 C2035 1.524 . S
C2034 C2048 1.377 . S
C2035 C2034 1.524 . S
C2035 C2036 1.397 . S
C2035 C2040 1.363 . S
C2036 H2013 0.950 . S
C2036 C2035 1.397 . S
C2036 C2037 1.334 . S
C2037 H2014 0.950 . S
C2037 C2036 1.334 . S
C2037 C2038 1.287 . S
C2038 C2037 1.287 . S
C2038 C2039 1.524 . S
C2038 H2057 0.913 . S
C2039 H2015 0.950 . S
C2039 C2038 1.524 . S
C2039 C2040 1.415 . S
C2040 H2016 0.950 . S
C2040 C2035 1.363 . S
C2040 C2039 1.415 . S
C2041 H2017 0.951 . S
C2041 C2042 1.366 . S
C2041 C2043 1.388 . S
C2042 C2041 1.366 . S
C2042 C2046 1.385 . S
C2043 H2018 0.951 . S
C2043 C2041 1.388 . S
C2043 C2044 1.366 . S
C2044 C2043 1.366 . S
C2044 C2045 1.414 . S
C2044 C2047 1.499 . S
C2045 H2019 0.950 . S
C2045 C2044 1.414 . S
C2045 C2046 1.374 . S
C2046 H2020 0.950 . S
C2046 C2042 1.385 . S
C2046 C2045 1.374 . S
C2047 C2044 1.499 . S
C2047 C2048 1.373 . S
C2047 C2049 1.389 . S
C2048 H2021 0.950 . S
C2048 C2034 1.377 . S
C2048 C2047 1.373 . S
C2049 C2033 1.377 . S
C2049 C2047 1.389 . S
C2049 C2050 1.524 1_556 S
C2050 C2049 1.524 1_554 S
C2050 C2051 1.397 . S
C2050 C2055 1.363 . S
C2051 H2022 0.950 . S
C2051 C2050 1.397 . S
C2051 C2052 1.334 . S
C2052 H2023 0.950 . S
C2052 C2051 1.334 . S
C2052 C2053 1.287 . S
C2053 C2052 1.287 . S
C2053 C2054 1.524 . S
C2053 H2056 0.999 . S
C2054 H2024 0.950 . S
C2054 C2053 1.524 . S
C2054 C2055 1.415 . S
C2055 H2025 0.950 . S
C2055 C2050 1.363 . S
C2055 C2054 1.415 . S
H2056 C2053 0.999 . S
H2057 C2038 0.913 . S
H2058 C2076 0.951 . S
H2059 C2078 0.951 . S
H2060 C2080 0.950 . S
H2061 C2081 0.950 . S
H2062 C2083 0.950 . S
H2063 C2086 0.950 . S
H2064 C2087 0.950 . S
H2065 C2089 0.950 . S
H2066 C2090 0.950 1_554 S
H2067 C2091 0.951 . S
H2068 C2093 0.951 . S
H2069 C2095 0.950 . S
H2070 C2096 0.950 . S
H2071 C2098 0.950 . S
H2072 C2101 0.950 . S
H2073 C2102 0.950 . S
H2074 C2104 0.950 . S
H2075 C2105 0.950 . S
C2076 H2058 0.951 . S
C2076 C2077 1.366 . S
C2076 C2078 1.388 . S
C2077 C2076 1.366 . S
C2077 C2081 1.385 . S
C2078 H2059 0.951 . S
C2078 C2076 1.388 . S
C2078 C2079 1.366 . S
C2079 C2078 1.366 . S
C2079 C2080 1.414 . S
C2079 C2082 1.499 . S
C2080 H2060 0.950 . S
C2080 C2079 1.414 . S
C2080 C2081 1.374 . S
C2081 H2061 0.950 . S
C2081 C2077 1.385 . S
C2081 C2080 1.374 . S
C2082 C2079 1.499 . S
C2082 C2083 1.373 . S
C2082 C2084 1.389 . S
C2083 H2062 0.950 . S
C2083 C2082 1.373 . S
C2083 C2099 1.377 . S
C2084 C2082 1.389 . S
C2084 C2085 1.501 1_554 S
C2084 C2098 1.377 . S
C2085 C2084 1.501 1_556 S
C2085 C2086 1.419 . S
C2085 C2090 1.366 . S
C2086 H2063 0.950 . S
C2086 C2085 1.419 . S
C2086 C2087 1.334 . S
C2087 H2064 0.950 . S
C2087 C2086 1.334 . S
C2087 C2088 1.287 . S
C2088 C2087 1.287 . S
C2088 C2089 1.524 . S
C2088 H2107 0.913 . S
C2089 H2065 0.950 . S
C2089 C2088 1.524 . S
C2089 C2090 1.415 . S
C2090 H2066 0.950 1_556 S
C2090 C2085 1.366 . S
C2090 C2089 1.415 . S
C2091 H2067 0.951 . S
C2091 C2092 1.366 . S
C2091 C2093 1.388 1_455 S
C2092 C2091 1.366 . S
C2092 C2096 1.385 . S
C2093 H2068 0.951 . S
C2093 C2091 1.388 1_655 S
C2093 C2094 1.366 . S
C2094 C2093 1.366 . S
C2094 C2095 1.414 1_655 S
C2094 C2097 1.499 . S
C2095 H2069 0.950 . S
C2095 C2094 1.414 1_455 S
C2095 C2096 1.374 . S
C2096 H2070 0.950 . S
C2096 C2092 1.385 . S
C2096 C2095 1.374 . S
C2097 C2094 1.499 . S
C2097 C2098 1.373 . S
C2097 C2099 1.389 . S
C2098 H2071 0.950 . S
C2098 C2084 1.377 . S
C2098 C2097 1.373 . S
C2099 C2083 1.377 . S
C2099 C2097 1.389 . S
C2099 C2100 1.524 . S
C2100 C2099 1.524 . S
C2100 C2101 1.397 . S
C2100 C2105 1.363 . S
C2101 H2072 0.950 . S
C2101 C2100 1.397 . S
C2101 C2102 1.334 . S
C2102 H2073 0.950 . S
C2102 C2101 1.334 . S
C2102 C2103 1.287 . S
C2103 C2102 1.287 . S
C2103 C2104 1.524 . S
C2103 H2106 0.999 . S
C2104 H2074 0.950 . S
C2104 C2103 1.524 . S
C2104 C2105 1.415 . S
C2105 H2075 0.950 . S
C2105 C2100 1.363 . S
C2105 C2104 1.415 . S
H2106 C2103 0.999 . S
H2107 C2088 0.913 . S
H2108 C2126 0.951 1_655 S
H2109 C2128 0.951 . S
H2110 C2130 0.950 . S
H2111 C2131 0.950 . S
H2112 C2133 0.950 . S
H2113 C2136 0.950 . S
H2114 C2137 0.950 . S
H2115 C2139 0.950 . S
H2116 C2140 0.950 . S
H2117 C2141 0.951 . S
H2118 C2143 0.951 . S
H2119 C2145 0.950 . S
H2120 C2146 0.950 . S
H2121 C2148 0.950 . S
H2122 C2151 0.950 . S
H2123 C2152 0.950 . S
H2124 C2154 0.950 . S
H2125 C2155 0.950 . S
C2126 H2108 0.951 1_455 S
C2126 C2127 1.366 . S
C2126 C2128 1.388 . S
C2127 C2126 1.366 . S
C2127 C2131 1.385 . S
C2128 H2109 0.951 . S
C2128 C2126 1.388 . S
C2128 C2129 1.366 . S
C2129 C2128 1.366 . S
C2129 C2130 1.414 . S
C2129 C2132 1.499 . S
C2130 H2110 0.950 . S
C2130 C2129 1.414 . S
C2130 C2131 1.374 . S
C2131 H2111 0.950 . S
C2131 C2127 1.385 . S
C2131 C2130 1.374 . S
C2132 C2129 1.499 . S
C2132 C2133 1.373 . S
C2132 C2134 1.389 . S
C2133 H2112 0.950 . S
C2133 C2132 1.373 . S
C2133 C2149 1.377 . S
C2134 C2132 1.389 . S
C2134 C2135 1.524 . S
C2134 C2148 1.377 . S
C2135 C2134 1.524 . S
C2135 C2136 1.397 . S
C2135 C2140 1.363 . S
C2136 H2113 0.950 . S
C2136 C2135 1.397 . S
C2136 C2137 1.334 . S
C2137 H2114 0.950 . S
C2137 C2136 1.334 . S
C2137 C2138 1.287 . S
C2138 C2137 1.287 . S
C2138 C2139 1.524 . S
C2138 H2157 0.913 . S
C2139 H2115 0.950 . S
C2139 C2138 1.524 . S
C2139 C2140 1.415 . S
C2140 H2116 0.950 . S
C2140 C2135 1.363 . S
C2140 C2139 1.415 . S
C2141 H2117 0.951 . S
C2141 C2142 1.366 . S
C2141 C2143 1.388 . S
C2142 C2141 1.366 . S
C2142 C2146 1.385 . S
C2143 H2118 0.951 . S
C2143 C2141 1.388 . S
C2143 C2144 1.366 . S
C2144 C2143 1.366 . S
C2144 C2145 1.414 . S
C2144 C2147 1.499 . S
C2145 H2119 0.950 . S
C2145 C2144 1.414 . S
C2145 C2146 1.374 . S
C2146 H2120 0.950 . S
C2146 C2142 1.385 . S
C2146 C2145 1.374 . S
C2147 C2144 1.499 . S
C2147 C2148 1.373 . S
C2147 C2149 1.389 . S
C2148 H2121 0.950 . S
C2148 C2134 1.377 . S
C2148 C2147 1.373 . S
C2149 C2133 1.377 . S
C2149 C2147 1.389 . S
C2149 C2150 1.524 . S
C2150 C2149 1.524 . S
C2150 C2151 1.397 . S
C2150 C2155 1.363 . S
C2151 H2122 0.950 . S
C2151 C2150 1.397 . S
C2151 C2152 1.334 . S
C2152 H2123 0.950 . S
C2152 C2151 1.334 . S
C2152 C2153 1.287 . S
C2153 C2152 1.287 . S
C2153 C2154 1.524 . S
C2153 H2156 0.999 . S
C2154 H2124 0.950 . S
C2154 C2153 1.524 . S
C2154 C2155 1.415 . S
C2155 H2125 0.950 . S
C2155 C2150 1.363 . S
C2155 C2154 1.415 . S
H2156 C2153 0.999 . S
H2157 C2138 0.913 . S
H2158 C2176 0.951 . S
H2159 C2178 0.951 . S
H2160 C2180 0.950 . S
H2161 C2181 0.950 . S
H2162 C2183 0.950 . S
H2163 C2186 0.950 . S
H2164 C2187 0.950 . S
H2165 C2189 0.950 . S
H2166 C2190 0.950 . S
H2167 C2191 0.951 . S
H2168 C2193 0.951 . S
H2169 C2195 0.950 . S
H2170 C2196 0.950 . S
H2171 C2198 0.950 . S
H2172 C2201 0.950 . S
H2173 C2202 0.950 . S
H2174 C2204 0.950 . S
H2175 C2205 0.950 . S
C2176 H2158 0.951 . S
C2176 C2177 1.366 . S
C2176 C2178 1.388 . S
C2177 C2176 1.366 . S
C2177 C2181 1.385 . S
C2178 H2159 0.951 . S
C2178 C2176 1.388 . S
C2178 C2179 1.366 . S
C2179 C2178 1.366 . S
C2179 C2180 1.414 . S
C2179 C2182 1.499 . S
C2180 H2160 0.950 . S
C2180 C2179 1.414 . S
C2180 C2181 1.374 . S
C2181 H2161 0.950 . S
C2181 C2177 1.385 . S
C2181 C2180 1.374 . S
C2182 C2179 1.499 . S
C2182 C2183 1.373 . S
C2182 C2184 1.389 1_655 S
C2183 H2162 0.950 . S
C2183 C2182 1.373 . S
C2183 C2199 1.377 . S
C2184 C2182 1.389 1_455 S
C2184 C2185 1.524 . S
C2184 C2198 1.377 . S
C2185 C2184 1.524 . S
C2185 C2186 1.397 . S
C2185 C2190 1.363 . S
C2186 H2163 0.950 . S
C2186 C2185 1.397 . S
C2186 C2187 1.334 . S
C2187 H2164 0.950 . S
C2187 C2186 1.334 . S
C2187 C2188 1.287 . S
C2188 C2187 1.287 . S
C2188 C2189 1.524 . S
C2188 H2207 0.913 . S
C2189 H2165 0.950 . S
C2189 C2188 1.524 . S
C2189 C2190 1.415 . S
C2190 H2166 0.950 . S
C2190 C2185 1.363 . S
C2190 C2189 1.415 . S
C2191 H2167 0.951 . S
C2191 C2192 1.366 . S
C2191 C2193 1.388 . S
C2192 C2191 1.366 . S
C2192 C2196 1.385 . S
C2193 H2168 0.951 . S
C2193 C2191 1.388 . S
C2193 C2194 1.366 . S
C2194 C2193 1.366 . S
C2194 C2195 1.414 . S
C2194 C2197 1.499 . S
C2195 H2169 0.950 . S
C2195 C2194 1.414 . S
C2195 C2196 1.374 . S
C2196 H2170 0.950 . S
C2196 C2192 1.385 . S
C2196 C2195 1.374 . S
C2197 C2194 1.499 . S
C2197 C2198 1.373 1_655 S
C2197 C2199 1.389 . S
C2198 H2171 0.950 . S
C2198 C2184 1.377 . S
C2198 C2197 1.373 1_455 S
C2199 C2183 1.377 . S
C2199 C2197 1.389 . S
C2199 C2200 1.524 . S
C2200 C2199 1.524 . S
C2200 C2201 1.397 . S
C2200 C2205 1.363 . S
C2201 H2172 0.950 . S
C2201 C2200 1.397 . S
C2201 C2202 1.334 . S
C2202 H2173 0.950 . S
C2202 C2201 1.334 . S
C2202 C2203 1.287 . S
C2203 C2202 1.287 . S
C2203 C2204 1.524 . S
C2203 H2206 0.999 . S
C2204 H2174 0.950 . S
C2204 C2203 1.524 . S
C2204 C2205 1.415 . S
C2205 H2175 0.950 . S
C2205 C2200 1.363 . S
C2205 C2204 1.415 . S
H2206 C2203 0.999 . S
H2207 C2188 0.913 . S
H2208 C2226 0.951 1_655 S
H2209 C2228 0.951 1_655 S
H2210 C2230 0.950 . S
H2211 C2231 0.950 . S
H2212 C2233 0.950 . S
H2213 C2236 0.950 . S
H2214 C2237 0.950 . S
H2215 C2239 0.950 . S
H2216 C2240 0.950 . S
H2217 C2241 0.951 . S
H2218 C2243 0.951 . S
H2219 C2245 0.927 1_655 S
H2220 C2246 0.956 . S
H2221 C2248 0.950 1_655 S
H2222 C2251 0.950 . S
H2223 C2252 0.950 . S
H2224 C2254 0.950 . S
H2225 C2255 0.950 . S
C2226 H2208 0.951 1_455 S
C2226 C2227 1.366 . S
C2226 C2228 1.388 . S
C2227 C2226 1.366 . S
C2227 C2231 1.385 . S
C2228 H2209 0.951 1_455 S
C2228 C2226 1.388 . S
C2228 C2229 1.366 . S
C2229 C2228 1.366 . S
C2229 C2230 1.414 . S
C2229 C2232 1.499 . S
C2230 H2210 0.950 . S
C2230 C2229 1.414 . S
C2230 C2231 1.374 . S
C2231 H2211 0.950 . S
C2231 C2227 1.385 . S
C2231 C2230 1.374 . S
C2232 C2229 1.499 . S
C2232 C2233 1.373 . S
C2232 C2234 1.404 . S
C2233 H2212 0.950 . S
C2233 C2232 1.373 . S
C2233 C2249 1.377 . S
C2234 C2232 1.404 . S
C2234 C2235 1.507 1_455 S
C2234 C2248 1.378 . S
C2235 C2234 1.507 1_655 S
C2235 C2236 1.397 . S
C2235 C2240 1.363 . S
C2236 H2213 0.950 . S
C2236 C2235 1.397 . S
C2236 C2237 1.334 . S
C2237 H2214 0.950 . S
C2237 C2236 1.334 . S
C2237 C2238 1.287 . S
C2238 C2237 1.287 . S
C2238 C2239 1.524 . S
C2238 H2257 0.913 . S
C2239 H2215 0.950 . S
C2239 C2238 1.524 . S
C2239 C2240 1.415 . S
C2240 H2216 0.950 . S
C2240 C2235 1.363 . S
C2240 C2239 1.415 . S
C2241 H2217 0.951 . S
C2241 C2242 1.366 . S
C2241 C2243 1.388 . S
C2242 C2241 1.366 . S
C2242 C2246 1.385 . S
C2243 H2218 0.951 . S
C2243 C2241 1.388 . S
C2243 C2244 1.366 . S
C2244 C2243 1.366 . S
C2244 C2245 1.414 . S
C2244 C2247 1.499 . S
C2245 H2219 0.927 1_455 S
C2245 C2244 1.414 . S
C2245 C2246 1.374 . S
C2246 H2220 0.956 . S
C2246 C2242 1.385 . S
C2246 C2245 1.374 . S
C2247 C2244 1.499 . S
C2247 C2248 1.373 . S
C2247 C2249 1.389 . S
C2248 H2221 0.950 1_455 S
C2248 C2234 1.378 . S
C2248 C2247 1.373 . S
C2249 C2233 1.377 . S
C2249 C2247 1.389 . S
C2249 C2250 1.524 . S
C2250 C2249 1.524 . S
C2250 C2251 1.397 . S
C2250 C2255 1.363 . S
C2251 H2222 0.950 . S
C2251 C2250 1.397 . S
C2251 C2252 1.334 . S
C2252 H2223 0.950 . S
C2252 C2251 1.334 . S
C2252 C2253 1.287 . S
C2253 C2252 1.287 . S
C2253 C2254 1.524 . S
C2253 H2256 0.999 . S
C2254 H2224 0.950 . S
C2254 C2253 1.524 . S
C2254 C2255 1.415 . S
C2255 H2225 0.950 . S
C2255 C2250 1.363 . S
C2255 C2254 1.415 . S
H2256 C2253 0.999 . S
H2257 C2238 0.913 . S
H2258 C2276 0.951 . S
H2259 C2278 0.951 . S
H2260 C2280 0.950 . S
H2261 C2281 0.950 . S
H2262 C2283 0.950 . S
H2263 C2286 0.950 1_455 S
H2264 C2287 0.950 1_455 S
H2265 C2289 0.950 . S
H2266 C2290 0.950 . S
H2267 C2291 0.952 1_455 S
H2268 C2293 0.951 1_455 S
H2269 C2295 0.950 . S
H2270 C2296 0.950 . S
H2271 C2298 0.950 . S
H2272 C2301 0.950 . S
H2273 C2302 0.950 . S
H2274 C2304 0.950 . S
H2275 C2305 0.950 . S
C2276 H2258 0.951 . S
C2276 C2277 1.366 . S
C2276 C2278 1.388 . S
C2277 C2276 1.366 . S
C2277 C2281 1.385 1_655 S
C2278 H2259 0.951 . S
C2278 C2276 1.388 . S
C2278 C2279 1.366 . S
C2279 C2278 1.366 . S
C2279 C2280 1.414 1_655 S
C2279 C2282 1.499 . S
C2280 H2260 0.950 . S
C2280 C2279 1.414 1_455 S
C2280 C2281 1.374 . S
C2281 H2261 0.950 . S
C2281 C2277 1.385 1_455 S
C2281 C2280 1.374 . S
C2282 C2279 1.499 . S
C2282 C2283 1.373 . S
C2282 C2284 1.389 . S
C2283 H2262 0.950 . S
C2283 C2282 1.373 . S
C2283 C2299 1.377 . S
C2284 C2282 1.389 . S
C2284 C2285 1.524 . S
C2284 C2298 1.377 . S
C2285 C2284 1.524 . S
C2285 C2286 1.397 . S
C2285 C2290 1.363 . S
C2286 H2263 0.950 1_655 S
C2286 C2285 1.397 . S
C2286 C2287 1.334 . S
C2287 H2264 0.950 1_655 S
C2287 C2286 1.334 . S
C2287 C2288 1.287 . S
C2288 C2287 1.287 . S
C2288 C2289 1.524 . S
C2288 H2307 0.913 . S
C2289 H2265 0.950 . S
C2289 C2288 1.524 . S
C2289 C2290 1.415 . S
C2290 H2266 0.950 . S
C2290 C2285 1.363 . S
C2290 C2289 1.415 . S
C2291 H2267 0.952 1_655 S
C2291 C2292 1.366 . S
C2291 C2293 1.388 . S
C2292 C2291 1.366 . S
C2292 C2296 1.385 . S
C2293 H2268 0.951 1_655 S
C2293 C2291 1.388 . S
C2293 C2294 1.366 . S
C2294 C2293 1.366 . S
C2294 C2295 1.414 . S
C2294 C2297 1.499 . S
C2295 H2269 0.950 . S
C2295 C2294 1.414 . S
C2295 C2296 1.374 . S
C2296 H2270 0.950 . S
C2296 C2292 1.385 . S
C2296 C2295 1.374 . S
C2297 C2294 1.499 . S
C2297 C2298 1.373 . S
C2297 C2299 1.389 . S
C2298 H2271 0.950 . S
C2298 C2284 1.377 . S
C2298 C2297 1.373 . S
C2299 C2283 1.377 . S
C2299 C2297 1.389 . S
C2299 C2300 1.524 . S
C2300 C2299 1.524 . S
C2300 C2301 1.397 . S
C2300 C2305 1.363 1_655 S
C2301 H2272 0.950 . S
C2301 C2300 1.397 . S
C2301 C2302 1.334 . S
C2302 H2273 0.950 . S
C2302 C2301 1.334 . S
C2302 C2303 1.287 . S
C2303 C2302 1.287 . S
C2303 C2304 1.524 1_655 S
C2303 H2306 0.999 . S
C2304 H2274 0.950 . S
C2304 C2303 1.524 1_455 S
C2304 C2305 1.415 . S
C2305 H2275 0.950 . S
C2305 C2300 1.363 1_455 S
C2305 C2304 1.415 . S
H2306 C2303 0.999 . S
H2307 C2288 0.913 . S
H2308 C2326 0.951 1_565 S
H2309 C2328 0.951 . S
H2310 C2330 0.950 . S
H2311 C2331 0.950 . S
H2312 C2333 0.950 . S
H2313 C2336 0.950 1_545 S
H2314 C2337 0.950 . S
H2315 C2339 0.950 . S
H2316 C2340 0.950 . S
H2317 C2341 0.951 . S
H2318 C2343 0.951 . S
H2319 C2345 0.950 . S
H2320 C2346 0.950 . S
H2321 C2348 0.950 . S
H2322 C2351 0.950 . S
H2323 C2352 0.950 . S
H2324 C2354 0.950 . S
H2325 C2355 0.950 . S
C2326 H2308 0.951 1_545 S
C2326 C2327 1.366 . S
C2326 C2328 1.388 . S
C2327 C2326 1.366 . S
C2327 C2331 1.385 . S
C2328 H2309 0.951 . S
C2328 C2326 1.388 . S
C2328 C2329 1.366 . S
C2329 C2328 1.366 . S
C2329 C2330 1.414 . S
C2329 C2332 1.499 . S
C2330 H2310 0.950 . S
C2330 C2329 1.414 . S
C2330 C2331 1.374 . S
C2331 H2311 0.950 . S
C2331 C2327 1.385 . S
C2331 C2330 1.374 . S
C2332 C2329 1.499 . S
C2332 C2333 1.373 . S
C2332 C2334 1.389 . S
C2333 H2312 0.950 . S
C2333 C2332 1.373 . S
C2333 C2349 1.377 . S
C2334 C2332 1.389 . S
C2334 C2335 1.524 1_545 S
C2334 C2348 1.377 . S
C2335 C2334 1.524 1_565 S
C2335 C2336 1.397 . S
C2335 C2340 1.363 . S
C2336 H2313 0.950 1_565 S
C2336 C2335 1.397 . S
C2336 C2337 1.334 . S
C2337 H2314 0.950 . S
C2337 C2336 1.334 . S
C2337 C2338 1.287 . S
C2338 C2337 1.287 . S
C2338 C2339 1.524 . S
C2338 H2357 0.913 . S
C2339 H2315 0.950 . S
C2339 C2338 1.524 . S
C2339 C2340 1.415 . S
C2340 H2316 0.950 . S
C2340 C2335 1.363 . S
C2340 C2339 1.415 . S
C2341 H2317 0.951 . S
C2341 C2342 1.366 . S
C2341 C2343 1.388 . S
C2342 C2341 1.366 . S
C2342 C2346 1.385 . S
C2343 H2318 0.951 . S
C2343 C2341 1.388 . S
C2343 C2344 1.366 . S
C2344 C2343 1.366 . S
C2344 C2345 1.414 . S
C2344 C2347 1.499 . S
C2345 H2319 0.950 . S
C2345 C2344 1.414 . S
C2345 C2346 1.374 . S
C2346 H2320 0.950 . S
C2346 C2342 1.385 . S
C2346 C2345 1.374 . S
C2347 C2344 1.499 . S
C2347 C2348 1.373 . S
C2347 C2349 1.389 . S
C2348 H2321 0.950 . S
C2348 C2334 1.377 . S
C2348 C2347 1.373 . S
C2349 C2333 1.377 . S
C2349 C2347 1.389 . S
C2349 C2350 1.524 . S
C2350 C2349 1.524 . S
C2350 C2351 1.397 . S
C2350 C2355 1.363 . S
C2351 H2322 0.950 . S
C2351 C2350 1.397 . S
C2351 C2352 1.334 . S
C2352 H2323 0.950 . S
C2352 C2351 1.334 . S
C2352 C2353 1.287 . S
C2353 C2352 1.287 . S
C2353 C2354 1.524 . S
C2353 H2356 0.999 . S
C2354 H2324 0.950 . S
C2354 C2353 1.524 . S
C2354 C2355 1.415 . S
C2355 H2325 0.950 . S
C2355 C2350 1.363 . S
C2355 C2354 1.415 . S
H2356 C2353 0.999 . S
H2357 C2338 0.913 . S
H2358 C2376 0.951 . S
H2359 C2378 0.951 . S
H2360 C2380 0.950 . S
H2361 C2381 0.950 . S
H2362 C2383 0.950 . S
H2363 C2386 0.950 . S
H2364 C2387 0.950 . S
H2365 C2389 0.950 . S
H2366 C2390 0.950 . S
H2367 C2391 0.951 . S
H2368 C2393 0.951 . S
H2369 C2395 0.950 . S
H2370 C2396 0.950 . S
H2371 C2398 0.950 . S
H2372 C2401 0.950 . S
H2373 C2402 0.950 . S
H2374 C2404 0.950 . S
H2375 C2405 0.950 . S
C2376 H2358 0.951 . S
C2376 C2377 1.366 . S
C2376 C2378 1.388 . S
C2377 C2376 1.366 . S
C2377 C2381 1.385 . S
C2378 H2359 0.951 . S
C2378 C2376 1.388 . S
C2378 C2379 1.366 . S
C2379 C2378 1.366 . S
C2379 C2380 1.414 . S
C2379 C2382 1.499 . S
C2380 H2360 0.950 . S
C2380 C2379 1.414 . S
C2380 C2381 1.374 . S
C2381 H2361 0.950 . S
C2381 C2377 1.385 . S
C2381 C2380 1.374 . S
C2382 C2379 1.499 . S
C2382 C2383 1.373 . S
C2382 C2384 1.389 . S
C2383 H2362 0.950 . S
C2383 C2382 1.373 . S
C2383 C2399 1.377 . S
C2384 C2382 1.389 . S
C2384 C2385 1.524 . S
C2384 C2398 1.377 . S
C2385 C2384 1.524 . S
C2385 C2386 1.397 . S
C2385 C2390 1.363 . S
C2386 H2363 0.950 . S
C2386 C2385 1.397 . S
C2386 C2387 1.334 . S
C2387 H2364 0.950 . S
C2387 C2386 1.334 . S
C2387 C2388 1.287 . S
C2388 C2387 1.287 . S
C2388 C2389 1.524 . S
C2388 H2407 0.913 . S
C2389 H2365 0.950 . S
C2389 C2388 1.524 . S
C2389 C2390 1.415 . S
C2390 H2366 0.950 . S
C2390 C2385 1.363 . S
C2390 C2389 1.415 . S
C2391 H2367 0.951 . S
C2391 C2392 1.366 . S
C2391 C2393 1.388 . S
C2392 C2391 1.366 . S
C2392 C2396 1.385 . S
C2393 H2368 0.951 . S
C2393 C2391 1.388 . S
C2393 C2394 1.366 . S
C2394 C2393 1.366 . S
C2394 C2395 1.414 . S
C2394 C2397 1.499 . S
C2395 H2369 0.950 . S
C2395 C2394 1.414 . S
C2395 C2396 1.374 . S
C2396 H2370 0.950 . S
C2396 C2392 1.385 . S
C2396 C2395 1.374 . S
C2397 C2394 1.499 . S
C2397 C2398 1.373 . S
C2397 C2399 1.389 . S
C2398 H2371 0.950 . S
C2398 C2384 1.377 . S
C2398 C2397 1.373 . S
C2399 C2383 1.377 . S
C2399 C2397 1.389 . S
C2399 C2400 1.524 . S
C2400 C2399 1.524 . S
C2400 C2401 1.397 . S
C2400 C2405 1.363 . S
C2401 H2372 0.950 . S
C2401 C2400 1.397 . S
C2401 C2402 1.334 . S
C2402 H2373 0.950 . S
C2402 C2401 1.334 . S
C2402 C2403 1.287 . S
C2403 C2402 1.287 . S
C2403 C2404 1.524 . S
C2403 H2406 0.999 . S
C2404 H2374 0.950 . S
C2404 C2403 1.524 . S
C2404 C2405 1.415 . S
C2405 H2375 0.950 . S
C2405 C2400 1.363 . S
C2405 C2404 1.415 . S
H2406 C2403 0.999 . S
H2407 C2388 0.913 . S
H2408 C2426 0.951 . S
H2409 C2428 0.927 1_545 S
H2410 C2430 0.950 . S
H2411 C2431 0.950 . S
H2412 C2433 0.950 . S
H2413 C2436 0.950 1_565 S
H2414 C2437 0.950 . S
H2415 C2439 0.950 . S
H2416 C2440 0.950 . S
H2417 C2441 0.951 . S
H2418 C2443 0.951 . S
H2419 C2445 0.950 . S
H2420 C2446 0.950 . S
H2421 C2448 0.950 . S
H2422 C2451 0.950 . S
H2423 C2452 0.950 . S
H2424 C2454 0.950 . S
H2425 C2455 0.950 . S
C2426 H2408 0.951 . S
C2426 C2427 1.366 1_545 S
C2426 C2428 1.382 1_545 S
C2427 C2426 1.366 1_565 S
C2427 C2431 1.385 . S
C2428 H2409 0.927 1_565 S
C2428 C2426 1.382 1_565 S
C2428 C2429 1.396 . S
C2429 C2428 1.396 . S
C2429 C2430 1.414 . S
C2429 C2432 1.499 . S
C2430 H2410 0.950 . S
C2430 C2429 1.414 . S
C2430 C2431 1.374 . S
C2431 H2411 0.950 . S
C2431 C2427 1.385 . S
C2431 C2430 1.374 . S
C2432 C2429 1.499 . S
C2432 C2433 1.373 . S
C2432 C2434 1.389 . S
C2433 H2412 0.950 . S
C2433 C2432 1.373 . S
C2433 C2449 1.377 . S
C2434 C2432 1.389 . S
C2434 C2435 1.524 1_565 S
C2434 C2448 1.377 . S
C2435 C2434 1.524 1_545 S
C2435 C2436 1.397 . S
C2435 C2440 1.363 . S
C2436 H2413 0.950 1_545 S
C2436 C2435 1.397 . S
C2436 C2437 1.334 . S
C2437 H2414 0.950 . S
C2437 C2436 1.334 . S
C2437 C2438 1.287 . S
C2438 C2437 1.287 . S
C2438 C2439 1.524 . S
C2438 H2457 0.913 . S
C2439 H2415 0.950 . S
C2439 C2438 1.524 . S
C2439 C2440 1.415 . S
C2440 H2416 0.950 . S
C2440 C2435 1.363 . S
C2440 C2439 1.415 . S
C2441 H2417 0.951 . S
C2441 C2442 1.366 . S
C2441 C2443 1.388 . S
C2442 C2441 1.366 . S
C2442 C2446 1.385 . S
C2443 H2418 0.951 . S
C2443 C2441 1.388 . S
C2443 C2444 1.366 . S
C2444 C2443 1.366 . S
C2444 C2445 1.414 . S
C2444 C2447 1.499 . S
C2445 H2419 0.950 . S
C2445 C2444 1.414 . S
C2445 C2446 1.374 . S
C2446 H2420 0.950 . S
C2446 C2442 1.385 . S
C2446 C2445 1.374 . S
C2447 C2444 1.499 . S
C2447 C2448 1.373 . S
C2447 C2449 1.389 . S
C2448 H2421 0.950 . S
C2448 C2434 1.377 . S
C2448 C2447 1.373 . S
C2449 C2433 1.377 . S
C2449 C2447 1.389 . S
C2449 C2450 1.524 . S
C2450 C2449 1.524 . S
C2450 C2451 1.397 . S
C2450 C2455 1.363 . S
C2451 H2422 0.950 . S
C2451 C2450 1.397 . S
C2451 C2452 1.334 . S
C2452 H2423 0.950 . S
C2452 C2451 1.334 . S
C2452 C2453 1.287 . S
C2453 C2452 1.287 . S
C2453 C2454 1.524 . S
C2453 H2456 0.999 . S
C2454 H2424 0.950 . S
C2454 C2453 1.524 . S
C2454 C2455 1.415 . S
C2455 H2425 0.950 . S
C2455 C2450 1.363 . S
C2455 C2454 1.415 . S
H2456 C2453 0.999 . S
H2457 C2438 0.913 . S
H2458 C2476 0.951 . S
H2459 C2478 0.951 . S
H2460 C2480 0.950 . S
H2461 C2481 0.950 . S
H2462 C2483 0.950 . S
H2463 C2486 0.950 . S
H2464 C2487 0.950 . S
H2465 C2489 0.950 . S
H2466 C2490 0.950 . S
H2467 C2491 0.951 . S
H2468 C2493 0.951 . S
H2469 C2495 0.950 . S
H2470 C2496 0.950 . S
H2471 C2498 0.950 . S
H2472 C2501 0.950 . S
H2473 C2502 0.950 . S
H2474 C2504 0.950 . S
H2475 C2505 0.950 . S
C2476 H2458 0.951 . S
C2476 C2477 1.366 . S
C2476 C2478 1.388 . S
C2477 C2476 1.366 . S
C2477 C2481 1.385 . S
C2478 H2459 0.951 . S
C2478 C2476 1.388 . S
C2478 C2479 1.366 . S
C2479 C2478 1.366 . S
C2479 C2480 1.414 . S
C2479 C2482 1.499 . S
C2480 H2460 0.950 . S
C2480 C2479 1.414 . S
C2480 C2481 1.374 . S
C2481 H2461 0.950 . S
C2481 C2477 1.385 . S
C2481 C2480 1.374 . S
C2482 C2479 1.499 . S
C2482 C2483 1.373 . S
C2482 C2484 1.389 . S
C2483 H2462 0.950 . S
C2483 C2482 1.373 . S
C2483 C2499 1.377 . S
C2484 C2482 1.389 . S
C2484 C2485 1.524 . S
C2484 C2498 1.377 . S
C2485 C2484 1.524 . S
C2485 C2486 1.397 . S
C2485 C2490 1.363 . S
C2486 H2463 0.950 . S
C2486 C2485 1.397 . S
C2486 C2487 1.334 . S
C2487 H2464 0.950 . S
C2487 C2486 1.334 . S
C2487 C2488 1.287 . S
C2488 C2487 1.287 . S
C2488 C2489 1.524 . S
C2488 H2507 0.913 . S
C2489 H2465 0.950 . S
C2489 C2488 1.524 . S
C2489 C2490 1.415 . S
C2490 H2466 0.950 . S
C2490 C2485 1.363 . S
C2490 C2489 1.415 . S
C2491 H2467 0.951 . S
C2491 C2492 1.366 . S
C2491 C2493 1.388 . S
C2492 C2491 1.366 . S
C2492 C2496 1.385 . S
C2493 H2468 0.951 . S
C2493 C2491 1.388 . S
C2493 C2494 1.366 . S
C2494 C2493 1.366 . S
C2494 C2495 1.414 . S
C2494 C2497 1.499 . S
C2495 H2469 0.950 . S
C2495 C2494 1.414 . S
C2495 C2496 1.374 . S
C2496 H2470 0.950 . S
C2496 C2492 1.385 . S
C2496 C2495 1.374 . S
C2497 C2494 1.499 . S
C2497 C2498 1.373 . S
C2497 C2499 1.389 . S
C2498 H2471 0.950 . S
C2498 C2484 1.377 . S
C2498 C2497 1.373 . S
C2499 C2483 1.377 . S
C2499 C2497 1.389 . S
C2499 C2500 1.524 . S
C2500 C2499 1.524 . S
C2500 C2501 1.397 . S
C2500 C2505 1.363 . S
C2501 H2472 0.950 . S
C2501 C2500 1.397 . S
C2501 C2502 1.334 . S
C2502 H2473 0.950 . S
C2502 C2501 1.334 . S
C2502 C2503 1.287 . S
C2503 C2502 1.287 . S
C2503 C2504 1.524 . S
C2503 H2506 0.999 . S
C2504 H2474 0.950 . S
C2504 C2503 1.524 . S
C2504 C2505 1.415 . S
C2505 H2475 0.950 . S
C2505 C2500 1.363 . S
C2505 C2504 1.415 . S
H2506 C2503 0.999 . S
H2507 C2488 0.913 . S
H2508 C2526 0.951 . S
H2509 C2528 0.951 . S
H2510 C2530 0.932 1_556 S
H2511 C2531 0.950 1_556 S
H2512 C2533 0.950 . S
H2513 C2536 0.950 1_556 S
H2514 C2537 0.950 . S
H2515 C2539 0.950 . S
H2516 C2540 0.950 . S
H2517 C2541 0.951 . S
H2518 C2543 0.951 . S
H2519 C2545 0.950 . S
H2520 C2546 0.950 . S
H2521 C2548 0.950 . S
H2522 C2551 0.950 . S
H2523 C2552 0.950 . S
H2524 C2554 0.950 . S
H2525 C2555 0.950 . S
C2526 H2508 0.951 . S
C2526 C2527 1.366 . S
C2526 C2528 1.388 . S
C2527 C2526 1.366 . S
C2527 C2531 1.385 . S
C2528 H2509 0.951 . S
C2528 C2526 1.388 . S
C2528 C2529 1.366 . S
C2529 C2528 1.366 . S
C2529 C2530 1.414 . S
C2529 C2532 1.499 . S
C2530 H2510 0.932 1_554 S
C2530 C2529 1.414 . S
C2530 C2531 1.374 . S
C2531 H2511 0.950 1_554 S
C2531 C2527 1.385 . S
C2531 C2530 1.374 . S
C2532 C2529 1.499 . S
C2532 C2533 1.373 . S
C2532 C2534 1.389 . S
C2533 H2512 0.950 . S
C2533 C2532 1.373 . S
C2533 C2549 1.377 . S
C2534 C2532 1.389 . S
C2534 C2535 1.524 . S
C2534 C2548 1.377 . S
C2535 C2534 1.524 . S
C2535 C2536 1.397 . S
C2535 C2540 1.363 . S
C2536 H2513 0.950 1_554 S
C2536 C2535 1.397 . S
C2536 C2537 1.334 1_554 S
C2537 H2514 0.950 . S
C2537 C2536 1.334 1_556 S
C2537 C2538 1.287 1_556 S
C2538 C2537 1.287 1_554 S
C2538 C2539 1.524 . S
C2538 H2557 0.913 . S
C2539 H2515 0.950 . S
C2539 C2538 1.524 . S
C2539 C2540 1.415 . S
C2540 H2516 0.950 . S
C2540 C2535 1.363 . S
C2540 C2539 1.415 . S
C2541 H2517 0.951 . S
C2541 C2542 1.366 . S
C2541 C2543 1.388 . S
C2542 C2541 1.366 . S
C2542 C2546 1.385 . S
C2543 H2518 0.951 . S
C2543 C2541 1.388 . S
C2543 C2544 1.366 . S
C2544 C2543 1.366 . S
C2544 C2545 1.414 . S
C2544 C2547 1.499 . S
C2545 H2519 0.950 . S
C2545 C2544 1.414 . S
C2545 C2546 1.374 . S
C2546 H2520 0.950 . S
C2546 C2542 1.385 . S
C2546 C2545 1.374 . S
C2547 C2544 1.499 . S
C2547 C2548 1.373 . S
C2547 C2549 1.389 . S
C2548 H2521 0.950 . S
C2548 C2534 1.377 . S
C2548 C2547 1.373 . S
C2549 C2533 1.377 . S
C2549 C2547 1.389 . S
C2549 C2550 1.524 . S
C2550 C2549 1.524 . S
C2550 C2551 1.397 . S
C2550 C2555 1.363 . S
C2551 H2522 0.950 . S
C2551 C2550 1.397 . S
C2551 C2552 1.334 . S
C2552 H2523 0.950 . S
C2552 C2551 1.334 . S
C2552 C2553 1.287 . S
C2553 C2552 1.287 . S
C2553 C2554 1.524 . S
C2553 H2556 0.999 . S
C2554 H2524 0.950 . S
C2554 C2553 1.524 . S
C2554 C2555 1.415 . S
C2555 H2525 0.950 . S
C2555 C2550 1.363 . S
C2555 C2554 1.415 . S
H2556 C2553 0.999 . S
H2557 C2538 0.913 . S
H2558 C2576 0.951 . S
H2559 C2578 0.951 . S
H2560 C2580 0.950 . S
H2561 C2581 0.950 . S
H2562 C2583 0.950 . S
H2563 C2586 0.950 . S
H2564 C2587 0.950 . S
H2565 C2589 0.950 . S
H2566 C2590 0.950 . S
H2567 C2591 0.951 . S
H2568 C2593 0.951 . S
H2569 C2595 0.950 . S
H2570 C2596 0.950 . S
H2571 C2598 0.950 . S
H2572 C2601 0.950 . S
H2573 C2602 0.950 . S
H2574 C2604 0.950 . S
H2575 C2605 0.950 . S
C2576 H2558 0.951 . S
C2576 C2577 1.366 . S
C2576 C2578 1.388 . S
C2577 C2576 1.366 . S
C2577 C2581 1.385 . S
C2578 H2559 0.951 . S
C2578 C2576 1.388 . S
C2578 C2579 1.366 . S
C2579 C2578 1.366 . S
C2579 C2580 1.414 . S
C2579 C2582 1.499 . S
C2580 H2560 0.950 . S
C2580 C2579 1.414 . S
C2580 C2581 1.374 . S
C2581 H2561 0.950 . S
C2581 C2577 1.385 . S
C2581 C2580 1.374 . S
C2582 C2579 1.499 . S
C2582 C2583 1.373 . S
C2582 C2584 1.389 . S
C2583 H2562 0.950 . S
C2583 C2582 1.373 . S
C2583 C2599 1.377 . S
C2584 C2582 1.389 . S
C2584 C2585 1.524 . S
C2584 C2598 1.377 . S
C2585 C2584 1.524 . S
C2585 C2586 1.397 . S
C2585 C2590 1.363 . S
C2586 H2563 0.950 . S
C2586 C2585 1.397 . S
C2586 C2587 1.334 . S
C2587 H2564 0.950 . S
C2587 C2586 1.334 . S
C2587 C2588 1.287 . S
C2588 C2587 1.287 . S
C2588 C2589 1.524 . S
C2588 H2607 0.913 . S
C2589 H2565 0.950 . S
C2589 C2588 1.524 . S
C2589 C2590 1.415 . S
C2590 H2566 0.950 . S
C2590 C2585 1.363 . S
C2590 C2589 1.415 . S
C2591 H2567 0.951 . S
C2591 C2592 1.366 . S
C2591 C2593 1.388 . S
C2592 C2591 1.366 . S
C2592 C2596 1.385 . S
C2593 H2568 0.951 . S
C2593 C2591 1.388 . S
C2593 C2594 1.366 . S
C2594 C2593 1.366 . S
C2594 C2595 1.414 . S
C2594 C2597 1.499 . S
C2595 H2569 0.950 . S
C2595 C2594 1.414 . S
C2595 C2596 1.374 . S
C2596 H2570 0.950 . S
C2596 C2592 1.385 . S
C2596 C2595 1.374 . S
C2597 C2594 1.499 . S
C2597 C2598 1.373 . S
C2597 C2599 1.389 . S
C2598 H2571 0.950 . S
C2598 C2584 1.377 . S
C2598 C2597 1.373 . S
C2599 C2583 1.377 . S
C2599 C2597 1.389 . S
C2599 C2600 1.524 . S
C2600 C2599 1.524 . S
C2600 C2601 1.397 . S
C2600 C2605 1.363 . S
C2601 H2572 0.950 . S
C2601 C2600 1.397 . S
C2601 C2602 1.334 . S
C2602 H2573 0.950 . S
C2602 C2601 1.334 . S
C2602 C2603 1.287 . S
C2603 C2602 1.287 . S
C2603 C2604 1.524 . S
C2603 H2606 0.999 . S
C2604 H2574 0.950 . S
C2604 C2603 1.524 . S
C2604 C2605 1.415 . S
C2605 H2575 0.950 . S
C2605 C2600 1.363 . S
C2605 C2604 1.415 . S
H2606 C2603 0.999 . S
H2607 C2588 0.913 . S
H2608 C2626 0.951 . S
H2609 C2628 0.951 . S
H2610 C2630 0.950 . S
H2611 C2631 0.950 . S
H2612 C2633 0.950 . S
H2613 C2636 0.950 . S
H2614 C2637 0.950 . S
H2615 C2639 0.950 . S
H2616 C2640 0.950 . S
H2617 C2641 0.951 . S
H2618 C2643 0.951 . S
H2619 C2645 0.950 . S
H2620 C2646 0.950 . S
H2621 C2648 0.950 . S
H2622 C2651 0.950 . S
H2623 C2652 0.950 . S
H2624 C2654 0.950 . S
H2625 C2655 0.950 . S
C2626 H2608 0.951 . S
C2626 C2627 1.366 . S
C2626 C2628 1.388 . S
C2627 C2626 1.366 . S
C2627 C2631 1.385 . S
C2628 H2609 0.951 . S
C2628 C2626 1.388 . S
C2628 C2629 1.366 . S
C2629 C2628 1.366 . S
C2629 C2630 1.414 . S
C2629 C2632 1.499 . S
C2630 H2610 0.950 . S
C2630 C2629 1.414 . S
C2630 C2631 1.374 . S
C2631 H2611 0.950 . S
C2631 C2627 1.385 . S
C2631 C2630 1.374 . S
C2632 C2629 1.499 . S
C2632 C2633 1.373 . S
C2632 C2634 1.389 . S
C2633 H2612 0.950 . S
C2633 C2632 1.373 . S
C2633 C2649 1.377 . S
C2634 C2632 1.389 . S
C2634 C2635 1.524 . S
C2634 C2648 1.377 . S
C2635 C2634 1.524 . S
C2635 C2636 1.397 . S
C2635 C2640 1.363 . S
C2636 H2613 0.950 . S
C2636 C2635 1.397 . S
C2636 C2637 1.334 . S
C2637 H2614 0.950 . S
C2637 C2636 1.334 . S
C2637 C2638 1.287 . S
C2638 C2637 1.287 . S
C2638 C2639 1.524 . S
C2638 H2657 0.913 . S
C2639 H2615 0.950 . S
C2639 C2638 1.524 . S
C2639 C2640 1.415 . S
C2640 H2616 0.950 . S
C2640 C2635 1.363 . S
C2640 C2639 1.415 . S
C2641 H2617 0.951 . S
C2641 C2642 1.366 . S
C2641 C2643 1.388 . S
C2642 C2641 1.366 . S
C2642 C2646 1.385 . S
C2643 H2618 0.951 . S
C2643 C2641 1.388 . S
C2643 C2644 1.366 . S
C2644 C2643 1.366 . S
C2644 C2645 1.414 . S
C2644 C2647 1.499 . S
C2645 H2619 0.950 . S
C2645 C2644 1.414 . S
C2645 C2646 1.374 . S
C2646 H2620 0.950 . S
C2646 C2642 1.385 . S
C2646 C2645 1.374 . S
C2647 C2644 1.499 . S
C2647 C2648 1.373 . S
C2647 C2649 1.389 . S
C2648 H2621 0.950 . S
C2648 C2634 1.377 . S
C2648 C2647 1.373 . S
C2649 C2633 1.377 . S
C2649 C2647 1.389 . S
C2649 C2650 1.524 . S
C2650 C2649 1.524 . S
C2650 C2651 1.397 . S
C2650 C2655 1.363 . S
C2651 H2622 0.950 . S
C2651 C2650 1.397 . S
C2651 C2652 1.334 . S
C2652 H2623 0.950 . S
C2652 C2651 1.334 . S
C2652 C2653 1.287 . S
C2653 C2652 1.287 . S
C2653 C2654 1.524 . S
C2653 H2656 0.999 . S
C2654 H2624 0.950 . S
C2654 C2653 1.524 . S
C2654 C2655 1.415 . S
C2655 H2625 0.950 . S
C2655 C2650 1.363 . S
C2655 C2654 1.415 . S
H2656 C2653 0.999 . S
H2657 C2638 0.913 . S
H2658 C2676 0.951 . S
H2659 C2678 0.951 . S
H2660 C2680 0.950 . S
H2661 C2681 0.950 . S
H2662 C2683 0.950 . S
H2663 C2686 0.950 . S
H2664 C2687 0.950 . S
H2665 C2689 0.950 . S
H2666 C2690 0.950 . S
H2667 C2691 0.951 . S
H2668 C2693 0.951 . S
H2669 C2695 0.950 . S
H2670 C2696 0.950 . S
H2671 C2698 0.950 . S
H2672 C2701 0.950 . S
H2673 C2702 0.950 . S
H2674 C2704 0.950 . S
H2675 C2705 0.950 . S
C2676 H2658 0.951 . S
C2676 C2677 1.366 . S
C2676 C2678 1.388 . S
C2677 C2676 1.366 . S
C2677 C2681 1.385 . S
C2678 H2659 0.951 . S
C2678 C2676 1.388 . S
C2678 C2679 1.366 . S
C2679 C2678 1.366 . S
C2679 C2680 1.414 . S
C2679 C2682 1.499 . S
C2680 H2660 0.950 . S
C2680 C2679 1.414 . S
C2680 C2681 1.374 . S
C2681 H2661 0.950 . S
C2681 C2677 1.385 . S
C2681 C2680 1.374 . S
C2682 C2679 1.499 . S
C2682 C2683 1.373 . S
C2682 C2684 1.389 . S
C2683 H2662 0.950 . S
C2683 C2682 1.373 . S
C2683 C2699 1.377 . S
C2684 C2682 1.389 . S
C2684 C2685 1.524 . S
C2684 C2698 1.377 . S
C2685 C2684 1.524 . S
C2685 C2686 1.397 . S
C2685 C2690 1.363 . S
C2686 H2663 0.950 . S
C2686 C2685 1.397 . S
C2686 C2687 1.334 . S
C2687 H2664 0.950 . S
C2687 C2686 1.334 . S
C2687 C2688 1.287 . S
C2688 C2687 1.287 . S
C2688 C2689 1.524 . S
C2688 H2707 0.913 . S
C2689 H2665 0.950 . S
C2689 C2688 1.524 . S
C2689 C2690 1.415 . S
C2690 H2666 0.950 . S
C2690 C2685 1.363 . S
C2690 C2689 1.415 . S
C2691 H2667 0.951 . S
C2691 C2692 1.366 . S
C2691 C2693 1.388 . S
C2692 C2691 1.366 . S
C2692 C2696 1.385 . S
C2693 H2668 0.951 . S
C2693 C2691 1.388 . S
C2693 C2694 1.366 . S
C2694 C2693 1.366 . S
C2694 C2695 1.414 . S
C2694 C2697 1.499 . S
C2695 H2669 0.950 . S
C2695 C2694 1.414 . S
C2695 C2696 1.374 . S
C2696 H2670 0.950 . S
C2696 C2692 1.385 . S
C2696 C2695 1.374 . S
C2697 C2694 1.499 . S
C2697 C2698 1.373 . S
C2697 C2699 1.389 . S
C2698 H2671 0.950 . S
C2698 C2684 1.377 . S
C2698 C2697 1.373 . S
C2699 C2683 1.377 . S
C2699 C2697 1.389 . S
C2699 C2700 1.524 . S
C2700 C2699 1.524 . S
C2700 C2701 1.397 . S
C2700 C2705 1.363 . S
C2701 H2672 0.950 . S
C2701 C2700 1.397 . S
C2701 C2702 1.334 . S
C2702 H2673 0.950 . S
C2702 C2701 1.334 . S
C2702 C2703 1.287 . S
C2703 C2702 1.287 . S
C2703 C2704 1.524 . S
C2703 H2706 0.999 . S
C2704 H2674 0.950 . S
C2704 C2703 1.524 . S
C2704 C2705 1.415 . S
C2705 H2675 0.950 . S
C2705 C2700 1.363 . S
C2705 C2704 1.415 . S
H2706 C2703 0.999 . S
H2707 C2688 0.913 . S
H2708 C2726 0.951 . S
H2709 C2728 0.951 . S
H2710 C2730 0.950 . S
H2711 C2731 0.950 . S
H2712 C2733 0.950 . S
H2713 C2736 0.950 . S
H2714 C2737 0.950 . S
H2715 C2739 0.950 . S
H2716 C2740 0.950 . S
H2717 C2741 0.951 . S
H2718 C2743 0.951 . S
H2719 C2745 0.950 . S
H2720 C2746 0.950 . S
H2721 C2748 0.950 . S
H2722 C2751 0.950 . S
H2723 C2752 0.950 . S
H2724 C2754 0.950 . S
H2725 C2755 0.950 . S
C2726 H2708 0.951 . S
C2726 C2727 1.366 . S
C2726 C2728 1.388 . S
C2727 C2726 1.366 . S
C2727 C2731 1.385 . S
C2728 H2709 0.951 . S
C2728 C2726 1.388 . S
C2728 C2729 1.366 . S
C2729 C2728 1.366 . S
C2729 C2730 1.414 . S
C2729 C2732 1.499 . S
C2730 H2710 0.950 . S
C2730 C2729 1.414 . S
C2730 C2731 1.374 . S
C2731 H2711 0.950 . S
C2731 C2727 1.385 . S
C2731 C2730 1.374 . S
C2732 C2729 1.499 . S
C2732 C2733 1.373 . S
C2732 C2734 1.389 . S
C2733 H2712 0.950 . S
C2733 C2732 1.373 . S
C2733 C2749 1.377 . S
C2734 C2732 1.389 . S
C2734 C2735 1.524 . S
C2734 C2748 1.377 . S
C2735 C2734 1.524 . S
C2735 C2736 1.397 . S
C2735 C2740 1.363 . S
C2736 H2713 0.950 . S
C2736 C2735 1.397 . S
C2736 C2737 1.334 . S
C2737 H2714 0.950 . S
C2737 C2736 1.334 . S
C2737 C2738 1.287 . S
C2738 C2737 1.287 . S
C2738 C2739 1.524 . S
C2738 H2757 0.913 . S
C2739 H2715 0.950 . S
C2739 C2738 1.524 . S
C2739 C2740 1.415 . S
C2740 H2716 0.950 . S
C2740 C2735 1.363 . S
C2740 C2739 1.415 . S
C2741 H2717 0.951 . S
C2741 C2742 1.366 . S
C2741 C2743 1.388 . S
C2742 C2741 1.366 . S
C2742 C2746 1.385 . S
C2743 H2718 0.951 . S
C2743 C2741 1.388 . S
C2743 C2744 1.366 . S
C2744 C2743 1.366 . S
C2744 C2745 1.414 . S
C2744 C2747 1.499 . S
C2745 H2719 0.950 . S
C2745 C2744 1.414 . S
C2745 C2746 1.374 . S
C2746 H2720 0.950 . S
C2746 C2742 1.385 . S
C2746 C2745 1.374 . S
C2747 C2744 1.499 . S
C2747 C2748 1.373 . S
C2747 C2749 1.389 . S
C2748 H2721 0.950 . S
C2748 C2734 1.377 . S
C2748 C2747 1.373 . S
C2749 C2733 1.377 . S
C2749 C2747 1.389 . S
C2749 C2750 1.524 . S
C2750 C2749 1.524 . S
C2750 C2751 1.397 . S
C2750 C2755 1.363 . S
C2751 H2722 0.950 . S
C2751 C2750 1.397 . S
C2751 C2752 1.334 . S
C2752 H2723 0.950 . S
C2752 C2751 1.334 . S
C2752 C2753 1.287 . S
C2753 C2752 1.287 . S
C2753 C2754 1.524 . S
C2753 H2756 0.999 . S
C2754 H2724 0.950 . S
C2754 C2753 1.524 . S
C2754 C2755 1.415 . S
C2755 H2725 0.950 . S
C2755 C2750 1.363 . S
C2755 C2754 1.415 . S
H2756 C2753 0.999 . S
H2757 C2738 0.913 . S
H2758 C2776 0.951 . S
H2759 C2778 0.951 . S
H2760 C2780 0.950 . S
H2761 C2781 0.950 . S
H2762 C2783 0.950 . S
H2763 C2786 0.950 . S
H2764 C2787 0.950 . S
H2765 C2789 0.950 . S
H2766 C2790 0.950 . S
H2767 C2791 0.951 . S
H2768 C2793 0.951 . S
H2769 C2795 0.950 . S
H2770 C2796 0.950 . S
H2771 C2798 0.950 . S
H2772 C2801 0.950 . S
H2773 C2802 0.950 . S
H2774 C2804 0.950 . S
H2775 C2805 0.950 . S
C2776 H2758 0.951 . S
C2776 C2777 1.366 . S
C2776 C2778 1.388 . S
C2777 C2776 1.366 . S
C2777 C2781 1.385 . S
C2778 H2759 0.951 . S
C2778 C2776 1.388 . S
C2778 C2779 1.366 . S
C2779 C2778 1.366 . S
C2779 C2780 1.414 . S
C2779 C2782 1.499 . S
C2780 H2760 0.950 . S
C2780 C2779 1.414 . S
C2780 C2781 1.374 . S
C2781 H2761 0.950 . S
C2781 C2777 1.385 . S
C2781 C2780 1.374 . S
C2782 C2779 1.499 . S
C2782 C2783 1.373 . S
C2782 C2784 1.389 . S
C2783 H2762 0.950 . S
C2783 C2782 1.373 . S
C2783 C2799 1.377 . S
C2784 C2782 1.389 . S
C2784 C2785 1.524 . S
C2784 C2798 1.377 . S
C2785 C2784 1.524 . S
C2785 C2786 1.397 . S
C2785 C2790 1.363 . S
C2786 H2763 0.950 . S
C2786 C2785 1.397 . S
C2786 C2787 1.334 . S
C2787 H2764 0.950 . S
C2787 C2786 1.334 . S
C2787 C2788 1.287 . S
C2788 C2787 1.287 . S
C2788 C2789 1.524 . S
C2788 H2807 0.913 . S
C2789 H2765 0.950 . S
C2789 C2788 1.524 . S
C2789 C2790 1.415 . S
C2790 H2766 0.950 . S
C2790 C2785 1.363 . S
C2790 C2789 1.415 . S
C2791 H2767 0.951 . S
C2791 C2792 1.366 . S
C2791 C2793 1.388 . S
C2792 C2791 1.366 . S
C2792 C2796 1.385 . S
C2793 H2768 0.951 . S
C2793 C2791 1.388 . S
C2793 C2794 1.366 . S
C2794 C2793 1.366 . S
C2794 C2795 1.414 . S
C2794 C2797 1.499 . S
C2795 H2769 0.950 . S
C2795 C2794 1.414 . S
C2795 C2796 1.374 . S
C2796 H2770 0.950 . S
C2796 C2792 1.385 . S
C2796 C2795 1.374 . S
C2797 C2794 1.499 . S
C2797 C2798 1.373 . S
C2797 C2799 1.389 . S
C2798 H2771 0.950 . S
C2798 C2784 1.377 . S
C2798 C2797 1.373 . S
C2799 C2783 1.377 . S
C2799 C2797 1.389 . S
C2799 C2800 1.524 . S
C2800 C2799 1.524 . S
C2800 C2801 1.397 . S
C2800 C2805 1.363 . S
C2801 H2772 0.950 . S
C2801 C2800 1.397 . S
C2801 C2802 1.334 . S
C2802 H2773 0.950 . S
C2802 C2801 1.334 . S
C2802 C2803 1.287 . S
C2803 C2802 1.287 . S
C2803 C2804 1.524 . S
C2803 H2806 0.999 . S
C2804 H2774 0.950 . S
C2804 C2803 1.524 . S
C2804 C2805 1.415 . S
C2805 H2775 0.950 . S
C2805 C2800 1.363 . S
C2805 C2804 1.415 . S
H2806 C2803 0.999 . S
H2807 C2788 0.913 . S
H2808 C2826 0.951 . S
H2809 C2828 0.951 . S
H2810 C2830 0.950 . S
H2811 C2831 0.950 . S
H2812 C2833 0.950 . S
H2813 C2836 0.950 . S
H2814 C2837 0.950 . S
H2815 C2839 0.950 . S
H2816 C2840 0.950 . S
H2817 C2841 0.951 . S
H2818 C2843 0.951 . S
H2819 C2845 0.950 . S
H2820 C2846 0.950 . S
H2821 C2848 0.950 . S
H2822 C2851 0.950 . S
H2823 C2852 0.950 . S
H2824 C2854 0.950 . S
H2825 C2855 0.950 . S
C2826 H2808 0.951 . S
C2826 C2827 1.366 . S
C2826 C2828 1.388 . S
C2827 C2826 1.366 . S
C2827 C2831 1.385 . S
C2828 H2809 0.951 . S
C2828 C2826 1.388 . S
C2828 C2829 1.366 . S
C2829 C2828 1.366 . S
C2829 C2830 1.414 . S
C2829 C2832 1.499 . S
C2830 H2810 0.950 . S
C2830 C2829 1.414 . S
C2830 C2831 1.374 . S
C2831 H2811 0.950 . S
C2831 C2827 1.385 . S
C2831 C2830 1.374 . S
C2832 C2829 1.499 . S
C2832 C2833 1.373 . S
C2832 C2834 1.389 . S
C2833 H2812 0.950 . S
C2833 C2832 1.373 . S
C2833 C2849 1.377 . S
C2834 C2832 1.389 . S
C2834 C2835 1.524 . S
C2834 C2848 1.377 . S
C2835 C2834 1.524 . S
C2835 C2836 1.397 . S
C2835 C2840 1.363 . S
C2836 H2813 0.950 . S
C2836 C2835 1.397 . S
C2836 C2837 1.334 . S
C2837 H2814 0.950 . S
C2837 C2836 1.334 . S
C2837 C2838 1.287 . S
C2838 C2837 1.287 . S
C2838 C2839 1.524 . S
C2838 H2857 0.913 . S
C2839 H2815 0.950 . S
C2839 C2838 1.524 . S
C2839 C2840 1.415 . S
C2840 H2816 0.950 . S
C2840 C2835 1.363 . S
C2840 C2839 1.415 . S
C2841 H2817 0.951 . S
C2841 C2842 1.366 . S
C2841 C2843 1.388 . S
C2842 C2841 1.366 . S
C2842 C2846 1.385 . S
C2843 H2818 0.951 . S
C2843 C2841 1.388 . S
C2843 C2844 1.366 . S
C2844 C2843 1.366 . S
C2844 C2845 1.414 . S
C2844 C2847 1.499 . S
C2845 H2819 0.950 . S
C2845 C2844 1.414 . S
C2845 C2846 1.374 . S
C2846 H2820 0.950 . S
C2846 C2842 1.385 . S
C2846 C2845 1.374 . S
C2847 C2844 1.499 . S
C2847 C2848 1.373 . S
C2847 C2849 1.389 . S
C2848 H2821 0.950 . S
C2848 C2834 1.377 . S
C2848 C2847 1.373 . S
C2849 C2833 1.377 . S
C2849 C2847 1.389 . S
C2849 C2850 1.524 . S
C2850 C2849 1.524 . S
C2850 C2851 1.397 . S
C2850 C2855 1.363 . S
C2851 H2822 0.950 . S
C2851 C2850 1.397 . S
C2851 C2852 1.334 . S
C2852 H2823 0.950 . S
C2852 C2851 1.334 . S
C2852 C2853 1.287 . S
C2853 C2852 1.287 . S
C2853 C2854 1.524 . S
C2853 H2856 0.999 . S
C2854 H2824 0.950 . S
C2854 C2853 1.524 . S
C2854 C2855 1.415 . S
C2855 H2825 0.950 . S
C2855 C2850 1.363 . S
C2855 C2854 1.415 . S
H2856 C2853 0.999 . S
H2857 C2838 0.913 . S
H2858 C2876 0.951 . S
H2859 C2878 0.951 . S
H2860 C2880 0.950 . S
H2861 C2881 0.950 . S
H2862 C2883 0.950 . S
H2863 C2886 0.950 . S
H2864 C2887 0.950 . S
H2865 C2889 0.950 . S
H2866 C2890 0.950 . S
H2867 C2891 0.951 . S
H2868 C2893 0.951 . S
H2869 C2895 0.950 . S
H2870 C2896 0.950 . S
H2871 C2898 0.950 . S
H2872 C2901 0.950 . S
H2873 C2902 0.950 . S
H2874 C2904 0.950 . S
H2875 C2905 0.950 . S
C2876 H2858 0.951 . S
C2876 C2877 1.366 . S
C2876 C2878 1.388 . S
C2877 C2876 1.366 . S
C2877 C2881 1.385 . S
C2878 H2859 0.951 . S
C2878 C2876 1.388 . S
C2878 C2879 1.366 . S
C2879 C2878 1.366 . S
C2879 C2880 1.414 . S
C2879 C2882 1.499 . S
C2880 H2860 0.950 . S
C2880 C2879 1.414 . S
C2880 C2881 1.374 . S
C2881 H2861 0.950 . S
C2881 C2877 1.385 . S
C2881 C2880 1.374 . S
C2882 C2879 1.499 . S
C2882 C2883 1.373 . S
C2882 C2884 1.389 . S
C2883 H2862 0.950 . S
C2883 C2882 1.373 . S
C2883 C2899 1.377 . S
C2884 C2882 1.389 . S
C2884 C2885 1.524 . S
C2884 C2898 1.377 . S
C2885 C2884 1.524 . S
C2885 C2886 1.397 . S
C2885 C2890 1.363 . S
C2886 H2863 0.950 . S
C2886 C2885 1.397 . S
C2886 C2887 1.334 . S
C2887 H2864 0.950 . S
C2887 C2886 1.334 . S
C2887 C2888 1.287 . S
C2888 C2887 1.287 . S
C2888 C2889 1.524 . S
C2888 H2907 0.913 . S
C2889 H2865 0.950 . S
C2889 C2888 1.524 . S
C2889 C2890 1.415 . S
C2890 H2866 0.950 . S
C2890 C2885 1.363 . S
C2890 C2889 1.415 . S
C2891 H2867 0.951 . S
C2891 C2892 1.366 . S
C2891 C2893 1.388 . S
C2892 C2891 1.366 . S
C2892 C2896 1.385 . S
C2893 H2868 0.951 . S
C2893 C2891 1.388 . S
C2893 C2894 1.366 . S
C2894 C2893 1.366 . S
C2894 C2895 1.414 . S
C2894 C2897 1.499 . S
C2895 H2869 0.950 . S
C2895 C2894 1.414 . S
C2895 C2896 1.374 . S
C2896 H2870 0.950 . S
C2896 C2892 1.385 . S
C2896 C2895 1.374 . S
C2897 C2894 1.499 . S
C2897 C2898 1.373 . S
C2897 C2899 1.389 . S
C2898 H2871 0.950 . S
C2898 C2884 1.377 . S
C2898 C2897 1.373 . S
C2899 C2883 1.377 . S
C2899 C2897 1.389 . S
C2899 C2900 1.524 . S
C2900 C2899 1.524 . S
C2900 C2901 1.397 . S
C2900 C2905 1.363 . S
C2901 H2872 0.950 . S
C2901 C2900 1.397 . S
C2901 C2902 1.334 . S
C2902 H2873 0.950 . S
C2902 C2901 1.334 . S
C2902 C2903 1.287 . S
C2903 C2902 1.287 . S
C2903 C2904 1.524 . S
C2903 H2906 0.999 . S
C2904 H2874 0.950 . S
C2904 C2903 1.524 . S
C2904 C2905 1.415 . S
C2905 H2875 0.950 . S
C2905 C2900 1.363 . S
C2905 C2904 1.415 . S
H2906 C2903 0.999 . S
H2907 C2888 0.913 . S
H2908 C2926 0.951 . S
H2909 C2928 0.951 . S
H2910 C2930 0.950 . S
H2911 C2931 0.950 . S
H2912 C2933 0.950 . S
H2913 C2936 0.950 . S
H2914 C2937 0.950 . S
H2915 C2939 0.950 . S
H2916 C2940 0.950 . S
H2917 C2941 0.951 . S
H2918 C2943 0.951 . S
H2919 C2945 0.950 . S
H2920 C2946 0.950 . S
H2921 C2948 0.950 . S
H2922 C2951 0.950 . S
H2923 C2952 0.950 . S
H2924 C2954 0.950 . S
H2925 C2955 0.950 . S
C2926 H2908 0.951 . S
C2926 C2927 1.366 . S
C2926 C2928 1.388 . S
C2927 C2926 1.366 . S
C2927 C2931 1.385 . S
C2928 H2909 0.951 . S
C2928 C2926 1.388 . S
C2928 C2929 1.366 . S
C2929 C2928 1.366 . S
C2929 C2930 1.414 . S
C2929 C2932 1.499 . S
C2930 H2910 0.950 . S
C2930 C2929 1.414 . S
C2930 C2931 1.374 . S
C2931 H2911 0.950 . S
C2931 C2927 1.385 . S
C2931 C2930 1.374 . S
C2932 C2929 1.499 . S
C2932 C2933 1.373 . S
C2932 C2934 1.389 . S
C2933 H2912 0.950 . S
C2933 C2932 1.373 . S
C2933 C2949 1.377 . S
C2934 C2932 1.389 . S
C2934 C2935 1.524 . S
C2934 C2948 1.377 . S
C2935 C2934 1.524 . S
C2935 C2936 1.397 . S
C2935 C2940 1.363 . S
C2936 H2913 0.950 . S
C2936 C2935 1.397 . S
C2936 C2937 1.334 . S
C2937 H2914 0.950 . S
C2937 C2936 1.334 . S
C2937 C2938 1.287 . S
C2938 C2937 1.287 . S
C2938 C2939 1.524 . S
C2938 H2957 0.913 . S
C2939 H2915 0.950 . S
C2939 C2938 1.524 . S
C2939 C2940 1.415 . S
C2940 H2916 0.950 . S
C2940 C2935 1.363 . S
C2940 C2939 1.415 . S
C2941 H2917 0.951 . S
C2941 C2942 1.366 . S
C2941 C2943 1.388 . S
C2942 C2941 1.366 . S
C2942 C2946 1.385 . S
C2943 H2918 0.951 . S
C2943 C2941 1.388 . S
C2943 C2944 1.366 . S
C2944 C2943 1.366 . S
C2944 C2945 1.414 . S
C2944 C2947 1.499 . S
C2945 H2919 0.950 . S
C2945 C2944 1.414 . S
C2945 C2946 1.374 . S
C2946 H2920 0.950 . S
C2946 C2942 1.385 . S
C2946 C2945 1.374 . S
C2947 C2944 1.499 . S
C2947 C2948 1.373 . S
C2947 C2949 1.389 . S
C2948 H2921 0.950 . S
C2948 C2934 1.377 . S
C2948 C2947 1.373 . S
C2949 C2933 1.377 . S
C2949 C2947 1.389 . S
C2949 C2950 1.524 . S
C2950 C2949 1.524 . S
C2950 C2951 1.397 . S
C2950 C2955 1.363 . S
C2951 H2922 0.950 . S
C2951 C2950 1.397 . S
C2951 C2952 1.334 . S
C2952 H2923 0.950 . S
C2952 C2951 1.334 . S
C2952 C2953 1.287 . S
C2953 C2952 1.287 . S
C2953 C2954 1.524 . S
C2953 H2956 0.999 . S
C2954 H2924 0.950 . S
C2954 C2953 1.524 . S
C2954 C2955 1.415 . S
C2955 H2925 0.950 . S
C2955 C2950 1.363 . S
C2955 C2954 1.415 . S
H2956 C2953 0.999 . S
H2957 C2938 0.913 . S
H2958 C2976 0.951 . S
H2959 C2978 0.951 . S
H2960 C2980 0.950 . S
H2961 C2981 0.950 . S
H2962 C2983 0.950 1_545 S
H2963 C2986 0.950 . S
H2964 C2987 0.950 . S
H2965 C2989 0.950 . S
H2966 C2990 0.950 . S
H2967 C2991 0.951 1_545 S
H2968 C2993 0.951 1_545 S
H2969 C2995 0.950 . S
H2970 C2996 0.950 . S
H2971 C2998 0.950 . S
H2972 C3001 0.950 . S
H2973 C3002 0.950 . S
H2974 C3004 0.950 . S
H2975 C3005 0.950 . S
C2976 H2958 0.951 . S
C2976 C2977 1.366 . S
C2976 C2978 1.388 . S
C2977 C2976 1.366 . S
C2977 C2981 1.385 1_565 S
C2978 H2959 0.951 . S
C2978 C2976 1.388 . S
C2978 C2979 1.366 . S
C2979 C2978 1.366 . S
C2979 C2980 1.414 1_565 S
C2979 C2982 1.499 . S
C2980 H2960 0.950 . S
C2980 C2979 1.414 1_545 S
C2980 C2981 1.374 . S
C2981 H2961 0.950 . S
C2981 C2977 1.385 1_545 S
C2981 C2980 1.374 . S
C2982 C2979 1.499 . S
C2982 C2983 1.373 . S
C2982 C2984 1.389 . S
C2983 H2962 0.950 1_565 S
C2983 C2982 1.373 . S
C2983 C2999 1.377 . S
C2984 C2982 1.389 . S
C2984 C2985 1.524 . S
C2984 C2998 1.377 . S
C2985 C2984 1.524 . S
C2985 C2986 1.397 . S
C2985 C2990 1.363 . S
C2986 H2963 0.950 . S
C2986 C2985 1.397 . S
C2986 C2987 1.334 . S
C2987 H2964 0.950 . S
C2987 C2986 1.334 . S
C2987 C2988 1.287 . S
C2988 C2987 1.287 . S
C2988 C2989 1.524 . S
C2988 H3007 0.913 . S
C2989 H2965 0.950 . S
C2989 C2988 1.524 . S
C2989 C2990 1.415 . S
C2990 H2966 0.950 . S
C2990 C2985 1.363 . S
C2990 C2989 1.415 . S
C2991 H2967 0.951 1_565 S
C2991 C2992 1.366 . S
C2991 C2993 1.388 . S
C2992 C2991 1.366 . S
C2992 C2996 1.385 . S
C2993 H2968 0.951 1_565 S
C2993 C2991 1.388 . S
C2993 C2994 1.366 . S
C2994 C2993 1.366 . S
C2994 C2995 1.414 . S
C2994 C2997 1.499 . S
C2995 H2969 0.950 . S
C2995 C2994 1.414 . S
C2995 C2996 1.374 . S
C2996 H2970 0.950 . S
C2996 C2992 1.385 . S
C2996 C2995 1.374 . S
C2997 C2994 1.499 . S
C2997 C2998 1.373 . S
C2997 C2999 1.389 . S
C2998 H2971 0.950 . S
C2998 C2984 1.377 . S
C2998 C2997 1.373 . S
C2999 C2983 1.377 . S
C2999 C2997 1.389 . S
C2999 C3000 1.527 . S
C3000 C2999 1.527 . S
C3000 C3001 1.401 . S
C3000 C3005 1.357 1_565 S
C3001 H2972 0.950 . S
C3001 C3000 1.401 . S
C3001 C3002 1.334 . S
C3002 H2973 0.950 . S
C3002 C3001 1.334 . S
C3002 C3003 1.287 1_565 S
C3003 C3002 1.287 1_545 S
C3003 C3004 1.524 . S
C3003 H3006 0.999 . S
C3004 H2974 0.950 . S
C3004 C3003 1.524 . S
C3004 C3005 1.415 . S
C3005 H2975 0.950 . S
C3005 C3000 1.357 1_545 S
C3005 C3004 1.415 . S
H3006 C3003 0.999 . S
H3007 C2988 0.913 . S
H3008 C3026 0.951 . S
H3009 C3028 0.951 . S
H3010 C3030 0.950 . S
H3011 C3031 0.950 . S
H3012 C3033 0.950 . S
H3013 C3036 0.950 . S
H3014 C3037 0.950 . S
H3015 C3039 0.950 . S
H3016 C3040 0.950 . S
H3017 C3041 0.951 . S
H3018 C3043 0.951 . S
H3019 C3045 0.950 . S
H3020 C3046 0.950 . S
H3021 C3048 0.950 . S
H3022 C3051 0.950 . S
H3023 C3052 0.950 . S
H3024 C3054 0.950 . S
H3025 C3055 0.950 . S
C3026 H3008 0.951 . S
C3026 C3027 1.366 . S
C3026 C3028 1.388 . S
C3027 C3026 1.366 . S
C3027 C3031 1.385 . S
C3028 H3009 0.951 . S
C3028 C3026 1.388 . S
C3028 C3029 1.366 . S
C3029 C3028 1.366 . S
C3029 C3030 1.414 . S
C3029 C3032 1.499 . S
C3030 H3010 0.950 . S
C3030 C3029 1.414 . S
C3030 C3031 1.374 . S
C3031 H3011 0.950 . S
C3031 C3027 1.385 . S
C3031 C3030 1.374 . S
C3032 C3029 1.499 . S
C3032 C3033 1.373 . S
C3032 C3034 1.389 . S
C3033 H3012 0.950 . S
C3033 C3032 1.373 . S
C3033 C3049 1.377 . S
C3034 C3032 1.389 . S
C3034 C3035 1.524 . S
C3034 C3048 1.377 . S
C3035 C3034 1.524 . S
C3035 C3036 1.397 . S
C3035 C3040 1.363 . S
C3036 H3013 0.950 . S
C3036 C3035 1.397 . S
C3036 C3037 1.334 . S
C3037 H3014 0.950 . S
C3037 C3036 1.334 . S
C3037 C3038 1.287 . S
C3038 C3037 1.287 . S
C3038 C3039 1.524 . S
C3038 H3057 0.913 . S
C3039 H3015 0.950 . S
C3039 C3038 1.524 . S
C3039 C3040 1.415 . S
C3040 H3016 0.950 . S
C3040 C3035 1.363 . S
C3040 C3039 1.415 . S
C3041 H3017 0.951 . S
C3041 C3042 1.366 . S
C3041 C3043 1.388 . S
C3042 C3041 1.366 . S
C3042 C3046 1.385 . S
C3043 H3018 0.951 . S
C3043 C3041 1.388 . S
C3043 C3044 1.366 . S
C3044 C3043 1.366 . S
C3044 C3045 1.414 . S
C3044 C3047 1.499 . S
C3045 H3019 0.950 . S
C3045 C3044 1.414 . S
C3045 C3046 1.374 . S
C3046 H3020 0.950 . S
C3046 C3042 1.385 . S
C3046 C3045 1.374 . S
C3047 C3044 1.499 . S
C3047 C3048 1.373 . S
C3047 C3049 1.389 . S
C3048 H3021 0.950 . S
C3048 C3034 1.377 . S
C3048 C3047 1.373 . S
C3049 C3033 1.377 . S
C3049 C3047 1.389 . S
C3049 C3050 1.524 . S
C3050 C3049 1.524 . S
C3050 C3051 1.397 . S
C3050 C3055 1.363 . S
C3051 H3022 0.950 . S
C3051 C3050 1.397 . S
C3051 C3052 1.334 . S
C3052 H3023 0.950 . S
C3052 C3051 1.334 . S
C3052 C3053 1.287 . S
C3053 C3052 1.287 . S
C3053 C3054 1.524 . S
C3053 H3056 0.999 . S
C3054 H3024 0.950 . S
C3054 C3053 1.524 . S
C3054 C3055 1.415 . S
C3055 H3025 0.950 . S
C3055 C3050 1.363 . S
C3055 C3054 1.415 . S
H3056 C3053 0.999 . S
H3057 C3038 0.913 . S
H3058 C3076 0.951 . S
H3059 C3078 0.951 . S
H3060 C3080 0.950 . S
H3061 C3081 0.950 . S
H3062 C3083 0.950 . S
H3063 C3086 0.950 . S
H3064 C3087 0.950 . S
H3065 C3089 0.950 . S
H3066 C3090 0.950 . S
H3067 C3091 0.951 . S
H3068 C3093 0.951 . S
H3069 C3095 0.950 . S
H3070 C3096 0.950 . S
H3071 C3098 0.950 1_565 S
H3072 C3101 0.950 . S
H3073 C3102 0.950 . S
H3074 C3104 0.950 . S
H3075 C3105 0.950 . S
C3076 H3058 0.951 . S
C3076 C3077 1.366 . S
C3076 C3078 1.388 . S
C3077 C3076 1.366 . S
C3077 C3081 1.385 . S
C3078 H3059 0.951 . S
C3078 C3076 1.388 . S
C3078 C3079 1.366 . S
C3079 C3078 1.366 . S
C3079 C3080 1.414 . S
C3079 C3082 1.499 . S
C3080 H3060 0.950 . S
C3080 C3079 1.414 . S
C3080 C3081 1.374 . S
C3081 H3061 0.950 . S
C3081 C3077 1.385 . S
C3081 C3080 1.374 . S
C3082 C3079 1.499 . S
C3082 C3083 1.373 . S
C3082 C3084 1.389 . S
C3083 H3062 0.950 . S
C3083 C3082 1.373 . S
C3083 C3099 1.377 . S
C3084 C3082 1.389 . S
C3084 C3085 1.524 1_545 S
C3084 C3098 1.377 . S
C3085 C3084 1.524 1_565 S
C3085 C3086 1.397 . S
C3085 C3090 1.363 . S
C3086 H3063 0.950 . S
C3086 C3085 1.397 . S
C3086 C3087 1.334 . S
C3087 H3064 0.950 . S
C3087 C3086 1.334 . S
C3087 C3088 1.287 . S
C3088 C3087 1.287 . S
C3088 C3089 1.524 . S
C3088 H3107 0.913 . S
C3089 H3065 0.950 . S
C3089 C3088 1.524 . S
C3089 C3090 1.415 . S
C3090 H3066 0.950 . S
C3090 C3085 1.363 . S
C3090 C3089 1.415 . S
C3091 H3067 0.951 . S
C3091 C3092 1.366 . S
C3091 C3093 1.388 . S
C3092 C3091 1.366 . S
C3092 C3096 1.385 . S
C3093 H3068 0.951 . S
C3093 C3091 1.388 . S
C3093 C3094 1.366 . S
C3094 C3093 1.366 . S
C3094 C3095 1.414 . S
C3094 C3097 1.499 . S
C3095 H3069 0.950 . S
C3095 C3094 1.414 . S
C3095 C3096 1.374 . S
C3096 H3070 0.950 . S
C3096 C3092 1.385 . S
C3096 C3095 1.374 . S
C3097 C3094 1.499 . S
C3097 C3098 1.373 . S
C3097 C3099 1.389 . S
C3098 H3071 0.950 1_545 S
C3098 C3084 1.377 . S
C3098 C3097 1.373 . S
C3099 C3083 1.377 . S
C3099 C3097 1.389 . S
C3099 C3100 1.524 . S
C3100 C3099 1.524 . S
C3100 C3101 1.397 . S
C3100 C3105 1.363 . S
C3101 H3072 0.950 . S
C3101 C3100 1.397 . S
C3101 C3102 1.334 . S
C3102 H3073 0.950 . S
C3102 C3101 1.334 . S
C3102 C3103 1.287 . S
C3103 C3102 1.287 . S
C3103 C3104 1.524 . S
C3103 H3106 0.999 . S
C3104 H3074 0.950 . S
C3104 C3103 1.524 . S
C3104 C3105 1.415 . S
C3105 H3075 0.950 . S
C3105 C3100 1.363 . S
C3105 C3104 1.415 . S
H3106 C3103 0.999 . S
H3107 C3088 0.913 . S
H3108 C3126 0.951 . S
H3109 C3128 0.951 . S
H3110 C3130 0.950 . S
H3111 C3131 0.950 . S
H3112 C3133 0.950 . S
H3113 C3136 0.950 . S
H3114 C3137 0.950 . S
H3115 C3139 0.950 . S
H3116 C3140 0.950 . S
H3117 C3141 0.951 . S
H3118 C3143 0.951 . S
H3119 C3145 0.950 . S
H3120 C3146 0.950 . S
H3121 C3148 0.950 . S
H3122 C3151 0.950 . S
H3123 C3152 0.950 . S
H3124 C3154 0.950 . S
H3125 C3155 0.950 . S
C3126 H3108 0.951 . S
C3126 C3127 1.366 . S
C3126 C3128 1.388 . S
C3127 C3126 1.366 . S
C3127 C3131 1.385 . S
C3128 H3109 0.951 . S
C3128 C3126 1.388 . S
C3128 C3129 1.366 . S
C3129 C3128 1.366 . S
C3129 C3130 1.414 . S
C3129 C3132 1.499 . S
C3130 H3110 0.950 . S
C3130 C3129 1.414 . S
C3130 C3131 1.374 . S
C3131 H3111 0.950 . S
C3131 C3127 1.385 . S
C3131 C3130 1.374 . S
C3132 C3129 1.499 . S
C3132 C3133 1.373 . S
C3132 C3134 1.389 . S
C3133 H3112 0.950 . S
C3133 C3132 1.373 . S
C3133 C3149 1.377 . S
C3134 C3132 1.389 . S
C3134 C3135 1.524 . S
C3134 C3148 1.377 . S
C3135 C3134 1.524 . S
C3135 C3136 1.397 . S
C3135 C3140 1.363 . S
C3136 H3113 0.950 . S
C3136 C3135 1.397 . S
C3136 C3137 1.334 . S
C3137 H3114 0.950 . S
C3137 C3136 1.334 . S
C3137 C3138 1.287 . S
C3138 C3137 1.287 . S
C3138 C3139 1.524 . S
C3138 H3157 0.913 . S
C3139 H3115 0.950 . S
C3139 C3138 1.524 . S
C3139 C3140 1.415 . S
C3140 H3116 0.950 . S
C3140 C3135 1.363 . S
C3140 C3139 1.415 . S
C3141 H3117 0.951 . S
C3141 C3142 1.366 . S
C3141 C3143 1.388 . S
C3142 C3141 1.366 . S
C3142 C3146 1.385 . S
C3143 H3118 0.951 . S
C3143 C3141 1.388 . S
C3143 C3144 1.366 . S
C3144 C3143 1.366 . S
C3144 C3145 1.414 . S
C3144 C3147 1.499 . S
C3145 H3119 0.950 . S
C3145 C3144 1.414 . S
C3145 C3146 1.374 . S
C3146 H3120 0.950 . S
C3146 C3142 1.385 . S
C3146 C3145 1.374 . S
C3147 C3144 1.499 . S
C3147 C3148 1.373 . S
C3147 C3149 1.389 . S
C3148 H3121 0.950 . S
C3148 C3134 1.377 . S
C3148 C3147 1.373 . S
C3149 C3133 1.377 . S
C3149 C3147 1.389 . S
C3149 C3150 1.524 . S
C3150 C3149 1.524 . S
C3150 C3151 1.397 . S
C3150 C3155 1.363 . S
C3151 H3122 0.950 . S
C3151 C3150 1.397 . S
C3151 C3152 1.334 . S
C3152 H3123 0.950 . S
C3152 C3151 1.334 . S
C3152 C3153 1.287 . S
C3153 C3152 1.287 . S
C3153 C3154 1.524 . S
C3153 H3156 0.999 . S
C3154 H3124 0.950 . S
C3154 C3153 1.524 . S
C3154 C3155 1.415 . S
C3155 H3125 0.950 . S
C3155 C3150 1.363 . S
C3155 C3154 1.415 . S
H3156 C3153 0.999 . S
H3157 C3138 0.913 . S
H3158 C3176 0.951 . S
H3159 C3178 0.951 . S
H3160 C3180 0.950 . S
H3161 C3181 0.950 1_554 S
H3162 C3183 0.950 . S
H3163 C3186 0.950 . S
H3164 C3187 0.950 . S
H3165 C3189 0.950 . S
H3166 C3190 0.950 . S
H3167 C3191 0.951 . S
H3168 C3193 0.951 . S
H3169 C3195 0.950 . S
H3170 C3196 0.950 . S
H3171 C3198 0.950 . S
H3172 C3201 0.950 . S
H3173 C3202 0.950 . S
H3174 C3204 0.950 . S
H3175 C3205 0.950 . S
C3176 H3158 0.951 . S
C3176 C3177 1.366 . S
C3176 C3178 1.388 . S
C3177 C3176 1.366 . S
C3177 C3181 1.385 . S
C3178 H3159 0.951 . S
C3178 C3176 1.388 . S
C3178 C3179 1.366 . S
C3179 C3178 1.366 . S
C3179 C3180 1.414 . S
C3179 C3182 1.499 . S
C3180 H3160 0.950 . S
C3180 C3179 1.414 . S
C3180 C3181 1.374 . S
C3181 H3161 0.950 1_556 S
C3181 C3177 1.385 . S
C3181 C3180 1.374 . S
C3182 C3179 1.499 . S
C3182 C3183 1.373 . S
C3182 C3184 1.389 . S
C3183 H3162 0.950 . S
C3183 C3182 1.373 . S
C3183 C3199 1.377 . S
C3184 C3182 1.389 . S
C3184 C3185 1.504 1_556 S
C3184 C3198 1.377 . S
C3185 C3184 1.504 1_554 S
C3185 C3186 1.423 . S
C3185 C3190 1.358 1_554 S
C3186 H3163 0.950 . S
C3186 C3185 1.423 . S
C3186 C3187 1.334 . S
C3187 H3164 0.950 . S
C3187 C3186 1.334 . S
C3187 C3188 1.287 . S
C3188 C3187 1.287 . S
C3188 C3189 1.524 . S
C3188 H3207 0.913 . S
C3189 H3165 0.950 . S
C3189 C3188 1.524 . S
C3189 C3190 1.415 1_554 S
C3190 H3166 0.950 . S
C3190 C3185 1.358 1_556 S
C3190 C3189 1.415 1_556 S
C3191 H3167 0.951 . S
C3191 C3192 1.366 . S
C3191 C3193 1.388 . S
C3192 C3191 1.366 . S
C3192 C3196 1.385 . S
C3193 H3168 0.951 . S
C3193 C3191 1.388 . S
C3193 C3194 1.366 . S
C3194 C3193 1.366 . S
C3194 C3195 1.414 . S
C3194 C3197 1.499 . S
C3195 H3169 0.950 . S
C3195 C3194 1.414 . S
C3195 C3196 1.374 . S
C3196 H3170 0.950 . S
C3196 C3192 1.385 . S
C3196 C3195 1.374 . S
C3197 C3194 1.499 . S
C3197 C3198 1.373 . S
C3197 C3199 1.389 . S
C3198 H3171 0.950 . S
C3198 C3184 1.377 . S
C3198 C3197 1.373 . S
C3199 C3183 1.377 . S
C3199 C3197 1.389 . S
C3199 C3200 1.524 . S
C3200 C3199 1.524 . S
C3200 C3201 1.397 . S
C3200 C3205 1.363 . S
C3201 H3172 0.950 . S
C3201 C3200 1.397 . S
C3201 C3202 1.334 . S
C3202 H3173 0.950 . S
C3202 C3201 1.334 . S
C3202 C3203 1.287 . S
C3203 C3202 1.287 . S
C3203 C3204 1.524 . S
C3203 H3206 0.999 . S
C3204 H3174 0.950 . S
C3204 C3203 1.524 . S
C3204 C3205 1.415 . S
C3205 H3175 0.950 . S
C3205 C3200 1.363 . S
C3205 C3204 1.415 . S
H3206 C3203 0.999 . S
H3207 C3188 0.913 . S
H3208 C3226 0.951 . S
H3209 C3228 0.951 . S
H3210 C3230 0.950 . S
H3211 C3231 0.950 . S
H3212 C3233 0.950 . S
H3213 C3236 0.950 . S
H3214 C3237 0.950 . S
H3215 C3239 0.950 . S
H3216 C3240 0.950 . S
H3217 C3241 0.951 . S
H3218 C3243 0.951 . S
H3219 C3245 0.950 . S
H3220 C3246 0.950 . S
H3221 C3248 0.950 . S
H3222 C3251 0.950 . S
H3223 C3252 0.950 . S
H3224 C3254 0.950 . S
H3225 C3255 0.950 . S
C3226 H3208 0.951 . S
C3226 C3227 1.366 . S
C3226 C3228 1.388 . S
C3227 C3226 1.366 . S
C3227 C3231 1.385 . S
C3228 H3209 0.951 . S
C3228 C3226 1.388 . S
C3228 C3229 1.366 . S
C3229 C3228 1.366 . S
C3229 C3230 1.414 . S
C3229 C3232 1.499 . S
C3230 H3210 0.950 . S
C3230 C3229 1.414 . S
C3230 C3231 1.374 . S
C3231 H3211 0.950 . S
C3231 C3227 1.385 . S
C3231 C3230 1.374 . S
C3232 C3229 1.499 . S
C3232 C3233 1.373 . S
C3232 C3234 1.389 . S
C3233 H3212 0.950 . S
C3233 C3232 1.373 . S
C3233 C3249 1.377 . S
C3234 C3232 1.389 . S
C3234 C3235 1.524 . S
C3234 C3248 1.377 . S
C3235 C3234 1.524 . S
C3235 C3236 1.397 . S
C3235 C3240 1.363 . S
C3236 H3213 0.950 . S
C3236 C3235 1.397 . S
C3236 C3237 1.334 . S
C3237 H3214 0.950 . S
C3237 C3236 1.334 . S
C3237 C3238 1.287 . S
C3238 C3237 1.287 . S
C3238 C3239 1.524 . S
C3238 H3257 0.913 . S
C3239 H3215 0.950 . S
C3239 C3238 1.524 . S
C3239 C3240 1.415 . S
C3240 H3216 0.950 . S
C3240 C3235 1.363 . S
C3240 C3239 1.415 . S
C3241 H3217 0.951 . S
C3241 C3242 1.366 . S
C3241 C3243 1.388 . S
C3242 C3241 1.366 . S
C3242 C3246 1.385 . S
C3243 H3218 0.951 . S
C3243 C3241 1.388 . S
C3243 C3244 1.366 . S
C3244 C3243 1.366 . S
C3244 C3245 1.414 . S
C3244 C3247 1.499 . S
C3245 H3219 0.950 . S
C3245 C3244 1.414 . S
C3245 C3246 1.374 . S
C3246 H3220 0.950 . S
C3246 C3242 1.385 . S
C3246 C3245 1.374 . S
C3247 C3244 1.499 . S
C3247 C3248 1.373 . S
C3247 C3249 1.389 . S
C3248 H3221 0.950 . S
C3248 C3234 1.377 . S
C3248 C3247 1.373 . S
C3249 C3233 1.377 . S
C3249 C3247 1.389 . S
C3249 C3250 1.524 . S
C3250 C3249 1.524 . S
C3250 C3251 1.397 . S
C3250 C3255 1.363 . S
C3251 H3222 0.950 . S
C3251 C3250 1.397 . S
C3251 C3252 1.334 1_556 S
C3252 H3223 0.950 . S
C3252 C3251 1.334 1_554 S
C3252 C3253 1.287 . S
C3253 C3252 1.287 . S
C3253 C3254 1.524 1_554 S
C3253 H3256 0.999 . S
C3254 H3224 0.950 . S
C3254 C3253 1.524 1_556 S
C3254 C3255 1.415 . S
C3255 H3225 0.950 . S
C3255 C3250 1.363 . S
C3255 C3254 1.415 . S
H3256 C3253 0.999 . S
H3257 C3238 0.913 . S
H3258 C3276 0.951 . S
H3259 C3278 0.951 . S
H3260 C3280 0.950 . S
H3261 C3281 0.950 . S
H3262 C3283 0.950 . S
H3263 C3286 0.950 . S
H3264 C3287 0.950 . S
H3265 C3289 0.950 . S
H3266 C3290 0.950 1_554 S
H3267 C3291 0.951 . S
H3268 C3293 0.951 . S
H3269 C3295 0.950 . S
H3270 C3296 0.950 . S
H3271 C3298 0.950 . S
H3272 C3301 0.950 . S
H3273 C3302 0.950 . S
H3274 C3304 0.950 . S
H3275 C3305 0.950 . S
C3276 H3258 0.951 . S
C3276 C3277 1.366 . S
C3276 C3278 1.388 . S
C3277 C3276 1.366 . S
C3277 C3281 1.385 . S
C3278 H3259 0.951 . S
C3278 C3276 1.388 . S
C3278 C3279 1.366 . S
C3279 C3278 1.366 . S
C3279 C3280 1.414 . S
C3279 C3282 1.499 . S
C3280 H3260 0.950 . S
C3280 C3279 1.414 . S
C3280 C3281 1.374 . S
C3281 H3261 0.950 . S
C3281 C3277 1.385 . S
C3281 C3280 1.374 . S
C3282 C3279 1.499 . S
C3282 C3283 1.373 . S
C3282 C3284 1.389 . S
C3283 H3262 0.950 . S
C3283 C3282 1.373 . S
C3283 C3299 1.377 . S
C3284 C3282 1.389 . S
C3284 C3285 1.524 1_554 S
C3284 C3298 1.377 . S
C3285 C3284 1.524 1_556 S
C3285 C3286 1.397 . S
C3285 C3290 1.363 . S
C3286 H3263 0.950 . S
C3286 C3285 1.397 . S
C3286 C3287 1.334 . S
C3287 H3264 0.950 . S
C3287 C3286 1.334 . S
C3287 C3288 1.287 . S
C3288 C3287 1.287 . S
C3288 C3289 1.524 . S
C3288 H3307 0.913 . S
C3289 H3265 0.950 . S
C3289 C3288 1.524 . S
C3289 C3290 1.415 . S
C3290 H3266 0.950 1_556 S
C3290 C3285 1.363 . S
C3290 C3289 1.415 . S
C3291 H3267 0.951 . S
C3291 C3292 1.366 . S
C3291 C3293 1.388 . S
C3292 C3291 1.366 . S
C3292 C3296 1.385 . S
C3293 H3268 0.951 . S
C3293 C3291 1.388 . S
C3293 C3294 1.366 . S
C3294 C3293 1.366 . S
C3294 C3295 1.414 . S
C3294 C3297 1.499 . S
C3295 H3269 0.950 . S
C3295 C3294 1.414 . S
C3295 C3296 1.374 . S
C3296 H3270 0.950 . S
C3296 C3292 1.385 . S
C3296 C3295 1.374 . S
C3297 C3294 1.499 . S
C3297 C3298 1.373 . S
C3297 C3299 1.389 . S
C3298 H3271 0.950 . S
C3298 C3284 1.377 . S
C3298 C3297 1.373 . S
C3299 C3283 1.377 . S
C3299 C3297 1.389 . S
C3299 C3300 1.524 . S
C3300 C3299 1.524 . S
C3300 C3301 1.397 . S
C3300 C3305 1.363 . S
C3301 H3272 0.950 . S
C3301 C3300 1.397 . S
C3301 C3302 1.334 . S
C3302 H3273 0.950 . S
C3302 C3301 1.334 . S
C3302 C3303 1.287 . S
C3303 C3302 1.287 . S
C3303 C3304 1.524 . S
C3303 H3306 0.999 . S
C3304 H3274 0.950 . S
C3304 C3303 1.524 . S
C3304 C3305 1.415 . S
C3305 H3275 0.950 . S
C3305 C3300 1.363 . S
C3305 C3304 1.415 . S
H3306 C3303 0.999 . S
H3307 C3288 0.913 . S
C927 C22 1.674 . S
C942 C704 1.678 . S
C992 C767 2.015 . S
C977 C38 2.020 . S
C1042 C644 1.917 1_565 S
C1027 C75 1.906 . S
C1077 C91 1.803 . S
C1092 C678 1.798 . S
C1127 C128 1.826 . S
C1142 C882 1.831 . S
C1177 C197 1.163 . S
C1192 C853 1.159 . S
C1242 C776 2.001 . S
C1227 C144 2.035 . S
C1277 C181 1.467 . S
C1292 C810 1.453 . S
C1342 C699 2.009 1_455 S
C1327 C234 2.027 . S
C1392 C742 1.469 . S
C1377 C303 1.477 . S
C1427 C356 2.035 . S
C1442 C721 2.020 1_655 S
C1477 C287 1.726 . S
C1492 C835 1.727 . S
C1542 C840 1.609 . S
C1527 C393 1.597 . S
C1592 C903 2.045 1_565 S
C1577 C409 2.060 . S
C1627 C462 2.054 . S
C1642 C814 2.061 . S
C1692 C780 1.670 1_545 S
C1677 C446 1.664 . S
C1727 C499 1.799 . S
C1742 C746 1.795 . S
C1777 C552 1.100 . S
C1792 C717 1.104 . S
C1842 C674 1.953 . S
C1827 C515 1.994 . S
C1877 C568 1.635 . S
C1892 C640 1.623 . S
C1942 C801 2.073 . S
C1927 C340 2.086 . S
C1992 C878 1.448 . S
C1977 C621 1.469 . S
C2027 C250 1.928 . S
C2042 C857 1.898 . S
C2077 C605 1.621 . S
C2092 C665 1.614 . S
C2142 C649 0.955 . S
C2127 C39 0.951 . S
C2177 C29 0.740 . S
C2192 C683 0.739 . S
C2242 C708 0.967 . S
C2227 C92 0.972 . S
C2292 C755 1.637 . S
C2277 C82 1.619 . S
C2327 C145 1.425 . S
C2342 C636 1.424 . S
C2377 C188 1.169 . S
C2392 C670 1.175 . S
C2442 C712 1.255 . S
C2427 C135 1.255 . S
C2477 C198 0.766 . S
C2492 C751 0.766 . S
C2527 C251 1.570 . S
C2542 C653 1.563 . S
C2592 C733 1.367 . S
C2577 C294 1.374 . S
C2627 C347 1.354 . S
C2642 C738 1.369 . S
C2677 C304 1.553 . S
C2692 C789 1.554 . S
C2742 C819 1.017 . S
C2727 C410 1.019 . S
C2777 C400 0.747 . S
C2792 C785 0.746 . S
C2827 C453 0.691 . S
C2842 C844 0.691 . S
C2877 C463 1.921 . S
C2892 C891 1.923 . S
C2927 C516 1.459 . S
C2942 C806 1.464 . S
C2992 C772 1.476 . S
C2977 C569 1.474 . S
C3027 C506 1.166 . S
C3042 C848 1.155 . S
C3092 C887 0.529 . S
C3077 C559 0.511 . S
C3142 C823 1.533 . S
C3127 C357 1.539 . S
C3192 C869 1.313 . S
C3177 C612 1.321 . S
C3242 C874 1.316 . S
C3227 C241 1.300 . S
C3277 C622 1.441 . S
C3292 C687 1.437 . S
