# Generated by pormake.
# Topology ssa, (4,4)-cn, num edge types: 1
# Building blocks:
#     Node 0, Type 0, BuildingBlock: KOZSID_clean_sbu_0, # of connection points: 4
#     Node 1, Type 0, BuildingBlock: KOZSID_clean_sbu_0, # of connection points: 4
#     Node 2, Type 0, BuildingBlock: KOZSID_clean_sbu_0, # of connection points: 4
#     Node 3, Type 0, BuildingBlock: KOZSID_clean_sbu_0, # of connection points: 4
#     Node 4, Type 0, BuildingBlock: KOZSID_clean_sbu_0, # of connection points: 4
#     Node 5, Type 0, BuildingBlock: KOZSID_clean_sbu_0, # of connection points: 4
#     Node 6, Type 1, BuildingBlock: NAWXER_clean_sbu_0, # of connection points: 4
#     Node 7, Type 1, BuildingBlock: NAWXER_clean_sbu_0, # of connection points: 4
#     Node 8, Type 1, BuildingBlock: NAWXER_clean_sbu_0, # of connection points: 4
#     Node 9, Type 1, BuildingBlock: NAWXER_clean_sbu_0, # of connection points: 4
#     Node 10, Type 1, BuildingBlock: NAWXER_clean_sbu_0, # of connection points: 4
#     Node 11, Type 1, BuildingBlock: NAWXER_clean_sbu_0, # of connection points: 4
#     Edge 12, Type (0, 1), BuildingBlock: EZIPEK_clean_linker_0, # of connection points: 2
#     Edge 13, Type (0, 1), BuildingBlock: EZIPEK_clean_linker_0, # of connection points: 2
#     Edge 14, Type (0, 1), BuildingBlock: EZIPEK_clean_linker_0, # of connection points: 2
#     Edge 15, Type (0, 1), BuildingBlock: EZIPEK_clean_linker_0, # of connection points: 2
#     Edge 16, Type (0, 1), BuildingBlock: EZIPEK_clean_linker_0, # of connection points: 2
#     Edge 17, Type (0, 1), BuildingBlock: EZIPEK_clean_linker_0, # of connection points: 2
#     Edge 18, Type (0, 1), BuildingBlock: EZIPEK_clean_linker_0, # of connection points: 2
#     Edge 19, Type (0, 1), BuildingBlock: EZIPEK_clean_linker_0, # of connection points: 2
#     Edge 20, Type (0, 1), BuildingBlock: EZIPEK_clean_linker_0, # of connection points: 2
#     Edge 21, Type (0, 1), BuildingBlock: EZIPEK_clean_linker_0, # of connection points: 2
#     Edge 22, Type (0, 1), BuildingBlock: EZIPEK_clean_linker_0, # of connection points: 2
#     Edge 23, Type (0, 1), BuildingBlock: EZIPEK_clean_linker_0, # of connection points: 2
#     Edge 24, Type (0, 1), BuildingBlock: EZIPEK_clean_linker_0, # of connection points: 2
#     Edge 25, Type (0, 1), BuildingBlock: EZIPEK_clean_linker_0, # of connection points: 2
#     Edge 26, Type (0, 1), BuildingBlock: EZIPEK_clean_linker_0, # of connection points: 2
#     Edge 27, Type (0, 1), BuildingBlock: EZIPEK_clean_linker_0, # of connection points: 2
#     Edge 28, Type (0, 1), BuildingBlock: EZIPEK_clean_linker_0, # of connection points: 2
#     Edge 29, Type (0, 1), BuildingBlock: EZIPEK_clean_linker_0, # of connection points: 2
#     Edge 30, Type (0, 1), BuildingBlock: EZIPEK_clean_linker_0, # of connection points: 2
#     Edge 31, Type (0, 1), BuildingBlock: EZIPEK_clean_linker_0, # of connection points: 2
#     Edge 32, Type (0, 1), BuildingBlock: EZIPEK_clean_linker_0, # of connection points: 2
#     Edge 33, Type (0, 1), BuildingBlock: EZIPEK_clean_linker_0, # of connection points: 2
#     Edge 34, Type (0, 1), BuildingBlock: EZIPEK_clean_linker_0, # of connection points: 2
#     Edge 35, Type (0, 1), BuildingBlock: EZIPEK_clean_linker_0, # of connection points: 2
# Relax obj value: 0.013
# Max RMSD: 0.031
# Mean RMSD: 0.019
data_MOF--net-ssa--node1-KOZSID_clean_sbu_0--node2-NAWXER_clean_sbu_0--edge1-EZIPEK_clean_linker_0
_symmetry_space_group_name_H-M    P1
_symmetry_Int_Tables_number       1
_symmetry_cell_setting            triclinic
loop_
_symmetry_equiv_pos_as_xyz
'x, y, z'
_cell_length_a     37.277942
_cell_length_b     38.592448
_cell_length_c     31.589667
_cell_angle_alpha  85.973486
_cell_angle_beta   90.672674
_cell_angle_gamma 123.71862
loop_
_atom_site_label
_atom_site_type_symbol
_atom_site_fract_x
_atom_site_fract_y
_atom_site_fract_z
_atom_type_partial_charge
C0 C 0.95044 0.5328 0.98769 0.0
C1 C 0.91503 0.52906 0.00693 0.0
C2 C 0.90543 0.50408 0.04346 0.0
C3 C 0.93567 0.49439 0.04469 0.0
N4 N 0.9647 0.51246 0.01175 0.0
Co5 Co 0.01449 0.5071 1.00184 0.0
N6 N 0.99871 0.46803 0.05417 0.0
C7 C 0.96473 0.45407 0.08126 0.0
C8 C 0.96441 0.43132 0.11669 0.0
C9 C 1.00057 0.43104 0.11235 0.0
C10 C 0.02078 0.45325 0.07398 0.0
N11 N 0.0642 0.5017 0.99181 0.0
C12 C 0.07772 0.48043 0.01533 0.0
C13 C 0.11313 0.48419 0.99605 0.0
C14 C 0.12339 0.51006 0.96004 0.0
C15 C 0.09352 0.52022 0.95909 0.0
N16 N 0.03004 0.54617 0.94944 0.0
C17 C 0.06439 0.56075 0.92266 0.0
C18 C 0.06431 0.58316 0.88706 0.0
C19 C 0.02749 0.58247 0.89095 0.0
C20 C 0.00726 0.56001 0.92915 0.0
N21 N 0.05221 0.55533 0.03694 0.0
C22 C 0.1088 0.61641 0.09236 0.0
C23 C 0.12333 0.61481 0.05243 0.0
C24 C 0.09462 0.5847 0.02522 0.0
C25 C 0.06511 0.5881 0.10331 0.0
C26 C 0.0377 0.55811 0.07548 0.0
N27 N 0.97731 0.45871 0.96698 0.0
C28 C 0.96792 0.42329 0.90326 0.0
C29 C 0.9252 0.39236 0.91502 0.0
C30 C 0.90896 0.39466 0.9537 0.0
C31 C 0.93553 0.42773 0.97923 0.0
C32 C 0.99294 0.45593 0.92916 0.0
H33 H 0.92151 0.42798 0.0084 0.0
H34 H 0.02475 0.47883 0.91742 0.0
H35 H 0.10776 0.58526 0.99523 0.0
H36 H 0.00509 0.53694 0.08637 0.0
C37 C 0.9368 0.46724 0.0754 0.0
C38 C 0.96592 0.55173 0.9444 0.0
C39 C 0.06143 0.46047 0.05821 0.0
C40 C 0.09255 0.54772 0.92854 0.0
H41 H 0.89688 0.54165 0.99484 0.0
H42 H 0.87883 0.49327 0.0658 0.0
H43 H 0.94176 0.4183 0.14355 0.0
H44 H 0.01122 0.41696 0.13557 0.0
H45 H 0.13078 0.47095 0.00774 0.0
H46 H 0.15005 0.52092 0.93775 0.0
H47 H 0.08708 0.59644 0.86028 0.0
H48 H 0.01636 0.59603 0.86764 0.0
H49 H 0.15687 0.63648 0.04242 0.0
H50 H 0.05234 0.58854 0.13376 0.0
H51 H 0.98172 0.42281 0.87347 0.0
H52 H 0.87585 0.37134 0.96392 0.0
C53 C 0.57131 0.00531 0.58996 0.0
C54 C 0.56993 0.98742 0.63006 0.0
C55 C 0.52875 0.95326 0.63716 0.0
C56 C 0.50741 0.95228 0.60115 0.0
N57 N 0.53265 0.9831 0.57102 0.0
Co58 Co 0.51328 0.99487 0.5155 0.0
N59 N 0.45258 0.94505 0.52603 0.0
C60 C 0.43734 0.91746 0.56053 0.0
C61 C 0.39552 0.88422 0.55736 0.0
C62 C 0.38379 0.89013 0.51777 0.0
C63 C 0.41932 0.92674 0.49906 0.0
N64 N 0.49323 0.00796 0.46106 0.0
C65 C 0.45612 0.98386 0.44012 0.0
C66 C 0.45715 0.00348 0.40117 0.0
C67 C 0.49627 0.04083 0.39724 0.0
C68 C 0.51718 0.04198 0.43365 0.0
N69 N 0.57469 0.04304 0.50355 0.0
C70 C 0.59016 0.06893 0.46778 0.0
C71 C 0.63321 0.09999 0.4689 0.0
C72 C 0.64585 0.09385 0.50793 0.0
C73 C 0.60967 0.05928 0.52849 0.0
N74 N 0.52552 0.95837 0.48618 0.0
C75 C 0.52815 0.89954 0.44039 0.0
C76 C 0.53298 0.93523 0.41986 0.0
C77 C 0.53363 0.96477 0.4432 0.0
C78 C 0.52504 0.89533 0.48481 0.0
C79 C 0.52244 0.92426 0.50692 0.0
N80 N 0.50082 0.03153 0.54485 0.0
C81 C 0.52123 0.10123 0.55835 0.0
C82 C 0.49297 0.08589 0.59369 0.0
C83 C 0.46629 0.04253 0.60225 0.0
C84 C 0.47126 0.01616 0.57815 0.0
C85 C 0.52377 0.07375 0.53398 0.0
H86 H 0.45139 0.98358 0.58764 0.0
H87 H 0.5457 0.0878 0.50732 0.0
H88 H 0.5397 0.9921 0.4254 0.0
H89 H 0.51732 0.91805 0.54058 0.0
C90 C 0.46396 0.92268 0.59431 0.0
C91 C 0.60914 0.04524 0.57288 0.0
C92 C 0.42122 0.94092 0.45441 0.0
C93 C 0.56191 0.06791 0.4376 0.0
H94 H 0.5958 0.99865 0.65224 0.0
H95 H 0.51573 0.93208 0.66549 0.0
H96 H 0.37645 0.85792 0.58038 0.0
H97 H 0.35324 0.86905 0.50354 0.0
H98 H 0.4334 0.99122 0.37686 0.0
H99 H 0.50944 0.0626 0.36934 0.0
H100 H 0.65244 0.12564 0.44527 0.0
H101 H 0.67761 0.11365 0.52049 0.0
H102 H 0.5368 0.94068 0.38559 0.0
H103 H 0.52315 0.86915 0.50226 0.0
H104 H 0.54168 0.13452 0.54974 0.0
H105 H 0.44291 0.02918 0.62855 0.0
C106 C 0.57114 0.53227 0.93973 0.0
C107 C 0.58315 0.55602 0.90118 0.0
C108 C 0.55157 0.56288 0.8921 0.0
C109 C 0.52232 0.54322 0.92561 0.0
N110 N 0.53384 0.52502 0.956 0.0
Co111 Co 0.50037 0.49234 0.00964 0.0
N112 N 0.45117 0.4974 0.99362 0.0
C113 C 0.44682 0.51423 0.95652 0.0
C114 C 0.40949 0.51325 0.95497 0.0
C115 C 0.38959 0.49611 0.99396 0.0
C116 C 0.4164 0.48817 0.01728 0.0
N117 N 0.46747 0.46131 0.0641 0.0
C118 C 0.4354 0.46191 0.08344 0.0
C119 C 0.42889 0.44597 0.12558 0.0
C120 C 0.45693 0.43428 0.13278 0.0
C121 C 0.47995 0.44469 0.09535 0.0
N122 N 0.54908 0.48611 0.02492 0.0
C123 C 0.55115 0.46533 0.06014 0.0
C124 C 0.58529 0.46116 0.05953 0.0
C125 C 0.60575 0.47939 0.02109 0.0
C126 C 0.58301 0.49406 1.00056 0.0
N127 N 0.52695 0.54457 0.0389 0.0
C128 C 0.5369 0.60427 0.09181 0.0
C129 C 0.54707 0.57578 0.106 0.0
C130 C 0.54259 0.5467 0.0788 0.0
C131 C 0.52772 0.60631 0.04915 0.0
C132 C 0.52325 0.57641 0.02318 0.0
N133 N 0.47361 0.4397 0.98055 0.0
C134 C 0.46528 0.37329 0.97546 0.0
C135 C 0.46214 0.37654 0.93143 0.0
C136 C 0.45798 0.40829 0.91368 0.0
C137 C 0.46328 0.43903 0.93875 0.0
C138 C 0.47084 0.4051 0.99938 0.0
H139 H 0.46179 0.46337 0.92284 0.0
H140 H 0.4748 0.40201 0.0326 0.0
H141 H 0.54948 0.52474 0.09149 0.0
H142 H 0.51405 0.57801 0.99138 0.0
C143 C 0.48128 0.53635 0.92675 0.0
C144 C 0.59327 0.51311 0.95702 0.0
C145 C 0.4115 0.47855 0.06331 0.0
C146 C 0.5185 0.44705 0.09157 0.0
H147 H 0.6107 0.56544 0.88073 0.0
H148 H 0.54901 0.57826 0.86335 0.0
H149 H 0.39946 0.52619 0.92968 0.0
H150 H 0.36043 0.49284 1.00507 0.0
H151 H 0.4078 0.44467 0.14969 0.0
H152 H 0.46249 0.42303 0.16286 0.0
H153 H 0.59314 0.44499 0.08332 0.0
H154 H 0.63335 0.48034 0.00908 0.0
H155 H 0.55644 0.57475 0.13842 0.0
H156 H 0.52151 0.6293 0.03661 0.0
H157 H 0.46593 0.34769 0.9909 0.0
H158 H 0.45359 0.41102 0.87992 0.0
C159 C 0.90797 0.42011 0.50762 0.0
C160 C 0.86877 0.39091 0.49086 0.0
C161 C 0.86773 0.40739 0.45154 0.0
C162 C 0.90604 0.44575 0.44654 0.0
N163 N 0.93196 0.45428 0.47992 0.0
Co164 Co 0.98804 0.50846 0.48827 0.0
N165 N 0.97929 0.53756 0.43811 0.0
C166 C 0.94541 0.52041 0.41219 0.0
C167 C 0.94705 0.54834 0.38168 0.0
C168 C 0.98455 0.58552 0.38818 0.0
C169 C 1.0039 0.57793 0.42213 0.0
N170 N 0.04451 0.56226 0.49638 0.0
C171 C 0.06522 0.5991 0.47204 0.0
C172 C 0.10609 0.62705 0.48666 0.0
C173 C 0.11138 0.60726 0.52131 0.0
C174 C 0.07377 0.56833 0.52578 0.0
N175 N 0.99519 0.47939 0.53986 0.0
C176 C 0.0294 0.49571 0.56539 0.0
C177 C 0.02356 0.46964 0.60029 0.0
C178 C 0.98252 0.43518 0.59773 0.0
C179 C 0.96572 0.44231 0.5613 0.0
N180 N 0.01965 0.49322 0.4511 0.0
C181 C 0.07693 0.49045 0.39596 0.0
C182 C 0.08269 0.49128 0.43952 0.0
C183 C 0.0537 0.4921 0.46627 0.0
C184 C 0.04044 0.48802 0.38046 0.0
C185 C 0.01206 0.48889 0.4085 0.0
N186 N 0.95766 0.52428 0.52488 0.0
C187 C 0.94868 0.54086 0.59427 0.0
C188 C 0.90666 0.52915 0.58544 0.0
C189 C 0.89283 0.52019 0.54395 0.0
C190 C 0.9183 0.51689 0.51454 0.0
C191 C 0.97392 0.53945 0.56326 0.0
H192 H 0.90482 0.50655 0.48435 0.0
H193 H 0.00546 0.54818 0.57193 0.0
H194 H 0.06045 0.49272 0.49895 0.0
H195 H 0.98488 0.48705 0.39472 0.0
C196 C 0.91347 0.47763 0.41657 0.0
C197 C 0.92019 0.41531 0.55086 0.0
C198 C 0.04801 0.60852 0.43422 0.0
C199 C 0.06511 0.53679 0.55703 0.0
H200 H 0.84268 0.36164 0.50611 0.0
H201 H 0.84065 0.39451 0.43073 0.0
H202 H 0.92423 0.54221 0.35706 0.0
H203 H 0.99719 0.61457 0.36897 0.0
H204 H 0.12993 0.65834 0.47338 0.0
H205 H 0.13958 0.61957 0.54056 0.0
H206 H 0.04566 0.47582 0.62566 0.0
H207 H 0.96599 0.40874 0.62107 0.0
H208 H 0.1099 0.49183 0.45288 0.0
H209 H 0.03418 0.48601 0.34685 0.0
H210 H 0.96135 0.54912 0.62565 0.0
H211 H 0.86127 0.51285 0.53521 0.0
C212 C 0.44866 0.00606 0.09563 0.0
C213 C 0.45087 0.0258 0.13162 0.0
C214 C 0.4925 0.05984 0.13308 0.0
C215 C 0.51338 0.05925 0.09793 0.0
N216 N 0.48733 0.02735 0.07401 0.0
Co217 Co 0.50523 0.01515 0.0209 0.0
N218 N 0.55929 0.0716 0.01467 0.0
C219 C 0.57837 0.09772 0.0457 0.0
C220 C 0.61566 0.13477 0.03185 0.0
C221 C 0.62012 0.13173 0.98946 0.0
C222 C 0.58507 0.09294 0.97978 0.0
N223 N 0.52251 0.00385 0.96696 0.0
C224 C 0.54926 0.03133 0.93491 0.0
C225 C 0.54843 0.01037 0.90055 0.0
C226 C 0.52111 0.96848 0.9121 0.0
C227 C 0.50623 0.96606 0.95246 0.0
N228 N 0.45146 0.95813 0.02741 0.0
C229 C 0.44363 0.92511 0.00714 0.0
C230 C 0.40463 0.88904 0.0189 0.0
C231 C 0.38698 0.89981 0.04884 0.0
C232 C 0.4163 0.94205 0.05372 0.0
N233 N 0.47512 0.03585 0.98762 0.0
C234 C 0.44962 0.07571 0.92799 0.0
C235 C 0.4372 0.03413 0.92473 0.0
C236 C 0.45088 0.01522 0.95416 0.0
C237 C 0.46594 0.09172 0.96772 0.0
C238 C 0.48026 0.07254 0.99584 0.0
N239 N 0.53611 0.99423 0.05415 0.0
C240 C 0.58788 0.97483 0.0586 0.0
C241 C 0.57126 0.95441 0.09901 0.0
C242 C 0.53886 0.95664 0.11736 0.0
C243 C 0.52204 0.9766 0.09465 0.0
C244 C 0.57037 0.9952 0.03703 0.0
H245 H 0.49712 0.97699 0.11008 0.0
H246 H 0.58403 0.01079 0.00613 0.0
H247 H 0.4433 0.9846 0.94881 0.0
H248 H 0.4966 0.08816 0.02365 0.0
C249 C 0.55583 0.09008 0.08407 0.0
C250 C 0.41143 0.96429 0.08673 0.0
C251 C 0.57763 0.07698 0.9375 0.0
C252 C 0.47061 0.93042 0.97334 0.0
H253 H 0.42543 0.01584 0.15515 0.0
H254 H 0.50579 0.08249 0.15676 0.0
H255 H 0.63587 0.1617 0.04975 0.0
H256 H 0.64581 0.15554 0.968 0.0
H257 H 0.56542 0.02373 0.87019 0.0
H258 H 0.51123 0.94298 0.89234 0.0
H259 H 0.39028 0.85874 0.00651 0.0
H260 H 0.35637 0.87878 0.06576 0.0
H261 H 0.41786 0.01615 0.89908 0.0
H262 H 0.46844 0.11893 0.97805 0.0
H263 H 0.6133 0.97408 0.04339 0.0
H264 H 0.52531 0.94153 0.14863 0.0
C265 C 0.52724 0.59035 0.47629 0.0
C266 C 0.51397 0.61599 0.48669 0.0
C267 C 0.48724 0.5969 0.52182 0.0
C268 C 0.48538 0.56065 0.53067 0.0
N269 N 0.50984 0.55565 0.50379 0.0
Co270 Co 0.5119 0.5048 0.50263 0.0
N271 N 0.47247 0.47669 0.55422 0.0
C272 C 0.45652 0.49328 0.57796 0.0
C273 C 0.43199 0.46769 0.61263 0.0
C274 C 0.43281 0.43285 0.61132 0.0
C275 C 0.45777 0.43918 0.5757 0.0
N276 N 0.51163 0.45291 0.49945 0.0
C277 C 0.49156 0.41674 0.52478 0.0
C278 C 0.49931 0.3883 0.51021 0.0
C279 C 0.52522 0.40716 0.47452 0.0
C280 C 0.53175 0.44586 0.46929 0.0
N281 N 0.55386 0.53414 0.45299 0.0
C282 C 0.57365 0.51944 0.43225 0.0
C283 C 0.60191 0.54681 0.40037 0.0
C284 C 0.59989 0.58105 0.40058 0.0
C285 C 0.57011 0.57238 0.43246 0.0
N286 N 0.56167 0.52847 0.54149 0.0
C287 C 0.62615 0.55422 0.60285 0.0
C288 C 0.62321 0.53007 0.57034 0.0
C289 C 0.59131 0.51799 0.53998 0.0
C290 C 0.59764 0.56696 0.60291 0.0
C291 C 0.56583 0.55372 0.57236 0.0
N292 N 0.4617 0.48079 0.46422 0.0
C293 C 0.43164 0.46209 0.39437 0.0
C294 C 0.39163 0.45244 0.40915 0.0
C295 C 0.38679 0.4553 0.45226 0.0
C296 C 0.42191 0.46993 0.47877 0.0
C297 C 0.46578 0.47543 0.42238 0.0
H298 H 0.416 0.47303 0.51074 0.0
H299 H 0.49544 0.48209 0.40916 0.0
H300 H 0.59072 0.49946 0.51605 0.0
H301 H 0.54439 0.56364 0.57499 0.0
C302 C 0.46236 0.53142 0.56481 0.0
C303 C 0.55589 0.60006 0.43964 0.0
C304 C 0.46698 0.40881 0.56405 0.0
C305 C 0.56091 0.47803 0.43997 0.0
H306 H 0.52254 0.64538 0.47045 0.0
H307 H 0.47096 0.60806 0.5388 0.0
H308 H 0.41508 0.47346 0.63579 0.0
H309 H 0.41678 0.40575 0.63392 0.0
H310 H 0.48828 0.35751 0.52448 0.0
H311 H 0.53901 0.39475 0.45561 0.0
H312 H 0.62044 0.54181 0.37847 0.0
H313 H 0.6172 0.6087 0.37878 0.0
H314 H 0.64499 0.51989 0.56882 0.0
H315 H 0.59907 0.58604 0.6273 0.0
H316 H 0.43683 0.46032 0.36115 0.0
H317 H 0.35637 0.44819 0.46506 0.0
C318 C 0.26013 0.42986 0.29093 0.0
C319 C 0.16902 0.43544 0.17597 0.0
O320 O 0.22644 0.39756 0.27758 0.0
Zn321 Zn 0.21015 0.42661 0.23375 0.0
O322 O 0.27086 0.46577 0.27512 0.0
Zn323 Zn 0.25206 0.4951 0.23134 0.0
O324 O 0.23603 0.52231 0.27014 0.0
O325 O 0.18787 0.45439 0.27182 0.0
O326 O 0.19978 0.47012 0.18914 0.0
O327 O 0.16369 0.40157 0.19225 0.0
O328 O 0.26288 0.45441 0.19039 0.0
O329 O 0.30361 0.52265 0.19274 0.0
C330 C 0.19996 0.4901 0.28414 0.0
C331 C 0.29662 0.48967 0.17764 0.0
C332 C 0.79291 0.29036 0.67845 0.0
C333 C 0.69212 0.1903 0.79513 0.0
O334 O 0.75878 0.28713 0.6913 0.0
Zn335 Zn 0.74001 0.24133 0.7353 0.0
O336 O 0.80258 0.26546 0.69522 0.0
Zn337 Zn 0.77824 0.21509 0.74357 0.0
O338 O 0.76006 0.1655 0.71104 0.0
O339 O 0.72153 0.19175 0.69721 0.0
O340 O 0.72537 0.18956 0.78792 0.0
O341 O 0.68688 0.21523 0.7715 0.0
O342 O 0.79066 0.27074 0.77972 0.0
O343 O 0.8261 0.23995 0.783 0.0
C344 C 0.72969 0.16445 0.69082 0.0
C345 C 0.82096 0.26784 0.79512 0.0
C346 C 0.52641 0.79291 0.31853 0.0
C347 C 0.53067 0.71244 0.20618 0.0
O348 O 0.56392 0.80314 0.30634 0.0
Zn349 Zn 0.59427 0.78821 0.26181 0.0
O350 O 0.49305 0.76385 0.30113 0.0
Zn351 Zn 0.52381 0.75159 0.26121 0.0
O352 O 0.55017 0.72623 0.30355 0.0
O353 O 0.6214 0.76714 0.30082 0.0
O354 O 0.49655 0.70864 0.22008 0.0
O355 O 0.56719 0.74027 0.22009 0.0
O356 O 0.62355 0.83948 0.22125 0.0
O357 O 0.55304 0.80675 0.22024 0.0
C358 C 0.58659 0.73405 0.31607 0.0
C359 C 0.59034 0.83753 0.2069 0.0
C360 C 0.84457 0.56802 0.83773 0.0
C361 C 0.74559 0.57526 0.73392 0.0
O362 O 0.8135 0.5335 0.82495 0.0
Zn363 Zn 0.75781 0.50874 0.78836 0.0
O364 O 0.84654 0.60122 0.82526 0.0
Zn365 Zn 0.79586 0.57655 0.78737 0.0
O366 O 0.74343 0.54638 0.83143 0.0
O367 O 0.71033 0.47804 0.83054 0.0
O368 O 0.77825 0.60714 0.74917 0.0
O369 O 0.73564 0.5386 0.74651 0.0
O370 O 0.77179 0.48166 0.74834 0.0
O371 O 0.81286 0.55068 0.74069 0.0
C372 C 0.7133 0.50942 0.8452 0.0
C373 C 0.80245 0.51526 0.72882 0.0
C374 C 0.27617 0.85851 0.21402 0.0
C375 C 0.1694 0.75081 0.32032 0.0
O376 O 0.24358 0.85714 0.22844 0.0
Zn377 Zn 0.22154 0.80671 0.2683 0.0
O378 O 0.28331 0.83119 0.22841 0.0
Zn379 Zn 0.25903 0.77985 0.27342 0.0
O380 O 0.24695 0.73589 0.23671 0.0
O381 O 0.20456 0.75871 0.22558 0.0
O382 O 0.2013 0.74807 0.3122 0.0
O383 O 0.16765 0.78034 0.30207 0.0
O384 O 0.26826 0.83087 0.31719 0.0
O385 O 0.30635 0.80381 0.3134 0.0
C386 C 0.21612 0.73423 0.21681 0.0
C387 C 0.2998 0.82895 0.33028 0.0
C388 C 0.47629 0.28374 0.80255 0.0
C389 C 0.49139 0.20519 0.69481 0.0
O390 O 0.51232 0.29227 0.78784 0.0
Zn391 Zn 0.48937 0.24964 0.74609 0.0
O392 O 0.44143 0.25484 0.78698 0.0
Zn393 Zn 0.41929 0.21287 0.73895 0.0
O394 O 0.38358 0.16023 0.77578 0.0
O395 O 0.45369 0.19459 0.78673 0.0
O396 O 0.45297 0.19553 0.70138 0.0
O397 O 0.52283 0.23504 0.71345 0.0
O398 O 0.46984 0.27667 0.6994 0.0
O399 O 0.39904 0.2394 0.69759 0.0
C400 C 0.41521 0.16345 0.79573 0.0
C401 C 0.43544 0.27168 0.68443 0.0
C402 C 0.07387 0.41064 0.10352 0.0
C403 C 0.08874 0.45182 0.08692 0.0
C404 C 0.15899 0.47555 0.11609 0.0
C405 C 0.14138 0.43728 0.14168 0.0
N406 N 0.07638 0.3693 0.163 0.0
N407 N 0.1443 0.52559 0.0867 0.0
C408 C 0.09725 0.40472 0.1362 0.0
C409 C 0.13089 0.48499 0.0962 0.0
N410 N 0.03774 0.37718 0.08808 0.0
N411 N 0.20249 0.5021 0.10866 0.0
H412 H 0.12407 0.53405 0.07386 0.0
H413 H 0.17402 0.55059 0.09594 0.0
H414 H 0.22412 0.49407 0.11781 0.0
H415 H 0.21603 0.52908 0.08813 0.0
H416 H 0.02776 0.34642 0.09663 0.0
H417 H 0.02035 0.38045 0.06382 0.0
H418 H 0.04329 0.34706 0.16189 0.0
H419 H 0.09032 0.36387 0.18904 0.0
C420 C 0.62854 0.09328 0.6314 0.0
C421 C 0.64151 0.07515 0.60312 0.0
C422 C 0.71476 0.11596 0.63143 0.0
C423 C 0.69987 0.13029 0.6629 0.0
N424 N 0.63757 0.11979 0.69993 0.0
N425 N 0.69548 0.06369 0.58104 0.0
C426 C 0.65532 0.11515 0.66494 0.0
C427 C 0.6842 0.08466 0.60474 0.0
N428 N 0.59104 0.091 0.6257 0.0
N429 N 0.75792 0.13362 0.6252 0.0
H430 H 0.67409 0.04127 0.56089 0.0
H431 H 0.7247 0.06621 0.58395 0.0
H432 H 0.78129 0.15731 0.64292 0.0
H433 H 0.77068 0.12737 0.59993 0.0
H434 H 0.58465 0.11024 0.64081 0.0
H435 H 0.56925 0.07389 0.60272 0.0
H436 H 0.60447 0.1061 0.70398 0.0
H437 H 0.6548 0.13272 0.72697 0.0
C438 C 0.50142 0.61399 0.15311 0.0
C439 C 0.53505 0.63147 0.12151 0.0
C440 C 0.56111 0.70169 0.14129 0.0
C441 C 0.52973 0.68428 0.17547 0.0
N442 N 0.4768 0.62276 0.21952 0.0
N443 N 0.60218 0.69075 0.09148 0.0
C444 C 0.50146 0.6401 0.18281 0.0
C445 C 0.56632 0.67498 0.11724 0.0
N446 N 0.46906 0.57248 0.15455 0.0
N447 N 0.58552 0.74379 0.13085 0.0
H448 H 0.60745 0.67213 0.07367 0.0
H449 H 0.62869 0.72159 0.09093 0.0
H450 H 0.58467 0.76526 0.14802 0.0
H451 H 0.60433 0.75731 0.10293 0.0
H452 H 0.44103 0.55912 0.17339 0.0
H453 H 0.46839 0.55192 0.13434 0.0
H454 H 0.45946 0.59089 0.2286 0.0
H455 H 0.47708 0.64023 0.24333 0.0
C456 C 0.8937 0.55712 0.64856 0.0
C457 C 0.87756 0.52506 0.62032 0.0
C458 C 0.80878 0.48651 0.66119 0.0
C459 C 0.82804 0.51532 0.69305 0.0
N460 N 0.89496 0.56997 0.72202 0.0
N461 N 0.82184 0.45315 0.60735 0.0
C462 C 0.87241 0.54822 0.68831 0.0
C463 C 0.83566 0.48786 0.62868 0.0
N464 N 0.92869 0.59637 0.63729 0.0
N465 N 0.76504 0.45923 0.66028 0.0
H466 H 0.84065 0.45139 0.58466 0.0
H467 H 0.79327 0.42446 0.61581 0.0
H468 H 0.74361 0.45867 0.68159 0.0
H469 H 0.74993 0.44043 0.63521 0.0
H470 H 0.93943 0.62122 0.65627 0.0
H471 H 0.94352 0.60499 0.6071 0.0
H472 H 0.92813 0.5924 0.71999 0.0
H473 H 0.88191 0.56171 0.75296 0.0
C474 C 0.38354 0.92443 0.15836 0.0
C475 C 0.37541 0.93945 0.11976 0.0
C476 C 0.29928 0.90364 0.14346 0.0
C477 C 0.30945 0.8928 0.18375 0.0
N478 N 0.36542 0.90705 0.23296 0.0
N479 N 0.32653 0.94862 0.07777 0.0
C480 C 0.35308 0.90839 0.19234 0.0
C481 C 0.33357 0.93098 0.1131 0.0
N482 N 0.41855 0.922 0.16166 0.0
N483 N 0.25725 0.88618 0.13315 0.0
H484 H 0.35071 0.96772 0.05469 0.0
H485 H 0.29783 0.94677 0.07307 0.0
H486 H 0.23148 0.86613 0.15428 0.0
H487 H 0.24793 0.88938 0.10268 0.0
H488 H 0.42431 0.90883 0.18865 0.0
H489 H 0.43707 0.9262 0.13515 0.0
H490 H 0.39764 0.92092 0.24077 0.0
H491 H 0.34404 0.89634 0.259 0.0
C492 C 0.48284 0.38116 0.63119 0.0
C493 C 0.45703 0.37308 0.59531 0.0
C494 C 0.41664 0.29764 0.61645 0.0
C495 C 0.43983 0.30608 0.65465 0.0
N496 N 0.48748 0.3582 0.70267 0.0
N497 N 0.39428 0.32462 0.5574 0.0
C498 C 0.47075 0.34852 0.66324 0.0
C499 C 0.42219 0.33158 0.58918 0.0
N500 N 0.51978 0.41987 0.6343 0.0
N501 N 0.39141 0.25764 0.60469 0.0
H502 H 0.39793 0.34865 0.53653 0.0
H503 H 0.36575 0.29569 0.55401 0.0
H504 H 0.38773 0.2321 0.62263 0.0
H505 H 0.37745 0.25025 0.57514 0.0
H506 H 0.54251 0.42609 0.65727 0.0
H507 H 0.52984 0.44483 0.61167 0.0
H508 H 0.50628 0.38873 0.7117 0.0
H509 H 0.47901 0.33602 0.72793 0.0
C510 C 0.4947 0.82579 0.41593 0.0
C511 C 0.52895 0.86901 0.41421 0.0
C512 C 0.55499 0.86203 0.347 0.0
C513 C 0.52409 0.8182 0.35057 0.0
N514 N 0.47093 0.75713 0.39463 0.0
N515 N 0.60018 0.92264 0.38586 0.0
C516 C 0.49568 0.79956 0.38685 0.0
C517 C 0.56192 0.88519 0.38231 0.0
N518 N 0.4605 0.80981 0.4439 0.0
N519 N 0.57636 0.88216 0.30923 0.0
H520 H 0.60728 0.93954 0.4126 0.0
H521 H 0.62629 0.93411 0.36463 0.0
H522 H 0.56931 0.86704 0.28126 0.0
H523 H 0.59681 0.91462 0.3047 0.0
H524 H 0.43275 0.77981 0.44289 0.0
H525 H 0.45785 0.82737 0.46562 0.0
H526 H 0.45309 0.74226 0.42288 0.0
H527 H 0.4715 0.73694 0.37483 0.0
C528 C 0.66856 0.53376 0.93693 0.0
C529 C 0.62382 0.51025 0.92913 0.0
C530 C 0.63721 0.48471 0.86591 0.0
C531 C 0.68125 0.5049 0.87637 0.0
N532 N 0.73711 0.5418 0.92647 0.0
N533 N 0.5645 0.45875 0.88962 0.0
C534 C 0.69635 0.52734 0.91336 0.0
C535 C 0.60787 0.48422 0.89468 0.0
N536 N 0.68477 0.56334 0.96581 0.0
N537 N 0.62377 0.46817 0.82749 0.0
H538 H 0.54242 0.45761 0.91033 0.0
H539 H 0.55041 0.43633 0.86751 0.0
H540 H 0.64404 0.46813 0.80512 0.0
H541 H 0.59335 0.45777 0.81597 0.0
H542 H 0.71769 0.58449 0.96963 0.0
H543 H 0.6654 0.56921 0.98336 0.0
H544 H 0.74849 0.55478 0.9554 0.0
H545 H 0.7581 0.537 0.91039 0.0
C546 C 0.09254 0.68704 0.41549 0.0
C547 C 0.07717 0.6461 0.40415 0.0
C548 C 0.11168 0.67534 0.33349 0.0
C549 C 0.13302 0.71619 0.34731 0.0
N550 N 0.14638 0.76152 0.4026 0.0
N551 N 0.07686 0.60174 0.35362 0.0
C552 C 0.1239 0.72233 0.38854 0.0
C553 C 0.08795 0.64038 0.36339 0.0
N554 N 0.07666 0.69213 0.45159 0.0
N555 N 0.11337 0.67004 0.29141 0.0
H556 H 0.06091 0.5755 0.37511 0.0
H557 H 0.08704 0.59646 0.32566 0.0
H558 H 0.12966 0.69514 0.26853 0.0
H559 H 0.09483 0.64114 0.27863 0.0
H560 H 0.08347 0.72091 0.45948 0.0
H561 H 0.05378 0.66698 0.47193 0.0
H562 H 0.14477 0.76739 0.43396 0.0
H563 H 0.16883 0.788 0.38339 0.0
C564 C 0.43302 0.08576 0.84988 0.0
C565 C 0.44277 0.09996 0.89168 0.0
C566 C 0.42412 0.15041 0.87098 0.0
C567 C 0.41051 0.1337 0.83113 0.0
N568 N 0.39742 0.08224 0.78376 0.0
N569 N 0.48013 0.16785 0.91962 0.0
C570 C 0.413 0.09991 0.82124 0.0
C571 C 0.44685 0.13824 0.89735 0.0
N572 N 0.45031 0.0656 0.83479 0.0
N573 N 0.4184 0.18057 0.88223 0.0
H574 H 0.50599 0.16563 0.92803 0.0
H575 H 0.48635 0.19752 0.92202 0.0
H576 H 0.40239 0.1906 0.86297 0.0
H577 H 0.42607 0.19229 0.91214 0.0
H578 H 0.44745 0.05732 0.80366 0.0
H579 H 0.47321 0.06312 0.85149 0.0
H580 H 0.39484 0.05512 0.77613 0.0
H581 H 0.38329 0.09267 0.76223 0.0
C582 C 0.33519 0.40805 0.35569 0.0
C583 C 0.35631 0.44396 0.37947 0.0
C584 C 0.3047 0.46053 0.35454 0.0
C585 C 0.2879 0.42888 0.32533 0.0
N586 N 0.29249 0.37575 0.2945 0.0
N587 N 0.36718 0.51007 0.39234 0.0
C588 C 0.3043 0.40318 0.32508 0.0
C589 C 0.3427 0.47176 0.37633 0.0
N590 N 0.34388 0.37816 0.3629 0.0
N591 N 0.28398 0.47969 0.36217 0.0
H592 H 0.39659 0.52074 0.40663 0.0
H593 H 0.36075 0.53305 0.38703 0.0
H594 H 0.25529 0.47173 0.34801 0.0
H595 H 0.29269 0.50003 0.38609 0.0
H596 H 0.32639 0.34941 0.34969 0.0
H597 H 0.36597 0.3806 0.38509 0.0
H598 H 0.30734 0.35999 0.28993 0.0
H599 H 0.2703 0.37108 0.27151 0.0
C600 C 0.88291 0.31695 0.89551 0.0
C601 C 0.89763 0.35942 0.88529 0.0
C602 C 0.86988 0.34211 0.81365 0.0
C603 C 0.8505 0.29894 0.8254 0.0
N604 N 0.83281 0.24459 0.88032 0.0
N605 N 0.89682 0.41051 0.83738 0.0
C606 C 0.85556 0.2861 0.86709 0.0
C607 C 0.88869 0.37142 0.84511 0.0
N608 N 0.89607 0.30619 0.93171 0.0
N609 N 0.87182 0.35542 0.77197 0.0
H610 H 0.90948 0.43259 0.85996 0.0
H611 H 0.88688 0.41949 0.81024 0.0
H612 H 0.86025 0.33515 0.74768 0.0
H613 H 0.88913 0.38686 0.76099 0.0
H614 H 0.89021 0.27664 0.93856 0.0
H615 H 0.91602 0.32777 0.95319 0.0
H616 H 0.8315 0.23361 0.91173 0.0
H617 H 0.81227 0.22112 0.86075 0.0
C618 C 0.94804 0.59782 0.89885 0.0
C619 C 0.93673 0.55762 0.91536 0.0
C620 C 0.86352 0.52888 0.8911 0.0
C621 C 0.87666 0.56704 0.86695 0.0
N622 N 0.93758 0.63609 0.84172 0.0
N623 N 0.88542 0.48301 0.91633 0.0
C624 C 0.92067 0.60126 0.86911 0.0
C625 C 0.89514 0.52255 0.90766 0.0
N626 N 0.98426 0.6328 0.91203 0.0
N627 N 0.82096 0.4995 0.90103 0.0
H628 H 0.90817 0.47707 0.92722 0.0
H629 H 0.85621 0.4566 0.90822 0.0
H630 H 0.79677 0.5048 0.89503 0.0
H631 H 0.81072 0.47264 0.92087 0.0
H632 H 0.99172 0.6628 0.90378 0.0
H633 H 0.00449 0.63147 0.93424 0.0
H634 H 0.97034 0.65988 0.84035 0.0
H635 H 0.9206 0.63923 0.8171 0.0
C636 C 0.38672 0.87509 0.41436 0.0
C637 C 0.38853 0.91138 0.42394 0.0
C638 C 0.33476 0.89618 0.36996 0.0
C639 C 0.32903 0.8569 0.36382 0.0
N640 N 0.34059 0.80446 0.39414 0.0
N641 N 0.35343 0.94827 0.41986 0.0
C642 C 0.35247 0.84501 0.38997 0.0
C643 C 0.35885 0.9191 0.40483 0.0
N644 N 0.41792 0.86922 0.42789 0.0
N645 N 0.32024 0.91368 0.34149 0.0
H646 H 0.3703 0.96536 0.44551 0.0
H647 H 0.32923 0.95231 0.40949 0.0
H648 H 0.30628 0.90146 0.31304 0.0
H649 H 0.3274 0.94374 0.34349 0.0
H650 H 0.42069 0.84606 0.41664 0.0
H651 H 0.44308 0.88976 0.4466 0.0
H652 H 0.35507 0.79418 0.4153 0.0
H653 H 0.31259 0.78015 0.38148 0.0
C654 C 0.50035 0.34524 0.90111 0.0
C655 C 0.46386 0.34803 0.90305 0.0
C656 C 0.43894 0.31334 0.83713 0.0
C657 C 0.47298 0.30661 0.83711 0.0
N658 N 0.52727 0.30497 0.87837 0.0
N659 N 0.39162 0.3215 0.88062 0.0
C660 C 0.5012 0.31926 0.8718 0.0
C661 C 0.4309 0.3276 0.87363 0.0
N662 N 0.53507 0.36846 0.92565 0.0
N663 N 0.41553 0.30859 0.80181 0.0
H664 H 0.38418 0.33038 0.9079 0.0
H665 H 0.36524 0.30346 0.86186 0.0
H666 H 0.42134 0.30112 0.77283 0.0
H667 H 0.39345 0.31713 0.79983 0.0
H668 H 0.56401 0.37067 0.92168 0.0
H669 H 0.5368 0.38876 0.94687 0.0
H670 H 0.54548 0.31055 0.90541 0.0
H671 H 0.5267 0.28338 0.85986 0.0
C672 C 0.13738 0.52709 0.34021 0.0
C673 C 0.10873 0.49101 0.36724 0.0
C674 C 0.14637 0.45906 0.34637 0.0
C675 C 0.17071 0.49233 0.31433 0.0
N676 N 0.18082 0.5536 0.27516 0.0
N677 N 0.0807 0.41922 0.38994 0.0
C678 C 0.16406 0.52532 0.30973 0.0
C679 C 0.11164 0.45595 0.36844 0.0
N680 N 0.14002 0.5634 0.34435 0.0
N681 N 0.15734 0.43128 0.35736 0.0
H682 H 0.05451 0.41555 0.40631 0.0
H683 H 0.07878 0.39139 0.38799 0.0
H684 H 0.18354 0.43286 0.34389 0.0
H685 H 0.14331 0.40939 0.38341 0.0
H686 H 0.16318 0.59171 0.32811 0.0
H687 H 0.12212 0.56607 0.36744 0.0
H688 H 0.174 0.57617 0.26912 0.0
H689 H 0.1973 0.55178 0.24997 0.0
C690 C 0.60213 0.13874 0.88343 0.0
C691 C 0.60578 0.10575 0.9002 0.0
C692 C 0.65789 0.12315 0.84299 0.0
C693 C 0.66017 0.16062 0.83009 0.0
N694 N 0.64008 0.20809 0.8479 0.0
N695 N 0.64862 0.07645 0.90312 0.0
C696 C 0.63365 0.16957 0.85282 0.0
C697 C 0.6374 0.10119 0.88239 0.0
N698 N 0.56869 0.14082 0.89666 0.0
N699 N 0.67274 0.1066 0.81699 0.0
H700 H 0.63547 0.06095 0.93289 0.0
H701 H 0.67417 0.07506 0.89253 0.0
H702 H 0.68318 0.11789 0.78564 0.0
H703 H 0.66868 0.07786 0.82469 0.0
H704 H 0.56206 0.16175 0.88232 0.0
H705 H 0.54543 0.11907 0.91922 0.0
H706 H 0.62373 0.21665 0.86654 0.0
H707 H 0.66524 0.2332 0.82951 0.0
C708 C 0.5974 0.67776 0.41598 0.0
C709 C 0.56707 0.63553 0.40712 0.0
C710 C 0.56144 0.65961 0.33489 0.0
C711 C 0.58611 0.70175 0.34578 0.0
N712 N 0.62436 0.75081 0.39879 0.0
N713 N 0.51506 0.58662 0.35982 0.0
C714 C 0.60367 0.71093 0.3868 0.0
C715 C 0.54773 0.62656 0.36696 0.0
N716 N 0.62052 0.68616 0.45205 0.0
N717 N 0.55215 0.65119 0.2934 0.0
H718 H 0.50357 0.56157 0.38263 0.0
H719 H 0.49668 0.57904 0.33273 0.0
H720 H 0.56338 0.67472 0.26885 0.0
H721 H 0.53773 0.62138 0.28291 0.0
H722 H 0.64611 0.71603 0.4583 0.0
H723 H 0.61638 0.6627 0.47414 0.0
H724 H 0.63345 0.75859 0.42979 0.0
H725 H 0.62973 0.77581 0.37841 0.0
C726 C 0.50223 0.11742 0.66443 0.0
C727 C 0.49156 0.11561 0.62077 0.0
C728 C 0.48928 0.17785 0.62475 0.0
C729 C 0.49696 0.17785 0.66876 0.0
N730 N 0.5032 0.14352 0.73244 0.0
N731 N 0.46472 0.13809 0.56261 0.0
C732 C 0.50152 0.14659 0.68914 0.0
C733 C 0.48237 0.14429 0.60179 0.0
N734 N 0.5141 0.09208 0.6823 0.0
N735 N 0.48903 0.21031 0.60479 0.0
H736 H 0.45712 0.1127 0.54569 0.0
H737 H 0.45336 0.1554 0.54884 0.0
H738 H 0.4939 0.23529 0.6208 0.0
H739 H 0.48801 0.21445 0.57197 0.0
H740 H 0.52756 0.09578 0.71206 0.0
H741 H 0.51366 0.06913 0.66644 0.0
H742 H 0.50075 0.11826 0.74971 0.0
H743 H 0.50394 0.16479 0.75165 0.0
C744 C 0.34664 0.4469 0.11301 0.0
C745 C 0.38 0.48236 0.08887 0.0
C746 C 0.35363 0.52285 0.1165 0.0
C747 C 0.32744 0.48949 0.14763 0.0
N748 N 0.314 0.42501 0.18286 0.0
N749 N 0.41784 0.55685 0.0709 0.0
C750 C 0.32795 0.4528 0.14795 0.0
C751 C 0.3843 0.52127 0.09145 0.0
N752 N 0.33364 0.40765 0.10364 0.0
N753 N 0.34814 0.55487 0.10902 0.0
H754 H 0.44071 0.55704 0.05223 0.0
H755 H 0.42492 0.58648 0.07555 0.0
H756 H 0.32414 0.55592 0.12413 0.0
H757 H 0.36409 0.57782 0.0841 0.0
H758 H 0.30754 0.38091 0.1196 0.0
H759 H 0.34624 0.40227 0.07745 0.0
H760 H 0.31637 0.39925 0.1845 0.0
H761 H 0.3066 0.43108 0.212 0.0
C762 C 0.86823 0.34006 0.58024 0.0
C763 C 0.88681 0.38326 0.58379 0.0
C764 C 0.84285 0.36597 0.64971 0.0
C765 C 0.82261 0.32269 0.64445 0.0
N766 N 0.80947 0.26864 0.60011 0.0
N767 N 0.89641 0.43799 0.62461 0.0
C768 C 0.83362 0.30982 0.60848 0.0
C769 C 0.87505 0.39633 0.6192 0.0
N770 N 0.88518 0.32792 0.55109 0.0
N771 N 0.83114 0.37802 0.68382 0.0
H772 H 0.91843 0.46061 0.60207 0.0
H773 H 0.89385 0.45065 0.65145 0.0
H774 H 0.81055 0.35723 0.7085 0.0
H775 H 0.84054 0.40845 0.68771 0.0
H776 H 0.87651 0.29729 0.55006 0.0
H777 H 0.9109 0.34911 0.5303 0.0
H778 H 0.81276 0.2578 0.5721 0.0
H779 H 0.78299 0.24569 0.61913 0.0
C780 C 0.55773 0.88322 0.11457 0.0
C781 C 0.58319 0.92647 0.12074 0.0
C782 C 0.6178 0.91299 0.18093 0.0
C783 C 0.59266 0.86948 0.17448 0.0
N784 N 0.54528 0.81501 0.12883 0.0
N785 N 0.64344 0.98391 0.15342 0.0
C786 C 0.56477 0.8553 0.13928 0.0
C787 C 0.61534 0.94175 0.15177 0.0
N788 N 0.52521 0.86838 0.08624 0.0
N789 N 0.6416 0.92669 0.21648 0.0
H790 H 0.64182 0.00545 0.133 0.0
H791 H 0.67045 0.99748 0.17219 0.0
H792 H 0.64408 0.90712 0.23894 0.0
H793 H 0.65625 0.95697 0.22566 0.0
H794 H 0.50131 0.8368 0.08466 0.0
H795 H 0.52035 0.88778 0.06585 0.0
H796 H 0.52948 0.8043 0.10056 0.0
H797 H 0.54767 0.7928 0.14666 0.0
C798 C 0.70287 0.59151 0.6285 0.0
C799 C 0.65771 0.56455 0.63762 0.0
C800 C 0.67262 0.55714 0.71262 0.0
C801 C 0.71731 0.5785 0.7022 0.0
N802 N 0.77503 0.61308 0.64908 0.0
N803 N 0.59957 0.51707 0.68788 0.0
C804 C 0.73259 0.59537 0.65989 0.0
C805 C 0.64254 0.54641 0.67968 0.0
N806 N 0.71737 0.61402 0.59007 0.0
N807 N 0.65899 0.54751 0.75431 0.0
H808 H 0.5764 0.50763 0.66474 0.0
H809 H 0.58734 0.49929 0.71675 0.0
H810 H 0.68034 0.5556 0.77914 0.0
H811 H 0.62739 0.53554 0.76432 0.0
H812 H 0.74969 0.63724 0.58296 0.0
H813 H 0.69658 0.61216 0.56658 0.0
H814 H 0.78709 0.62128 0.61784 0.0
H815 H 0.79781 0.61707 0.67115 0.0
C816 C 0.14672 0.63207 0.1623 0.0
C817 C 0.13905 0.64693 0.12305 0.0
C818 C 0.18951 0.71914 0.14234 0.0
C819 C 0.19258 0.70403 0.18366 0.0
N820 N 0.16719 0.64534 0.2353 0.0
N821 N 0.14805 0.7049 0.07863 0.0
C822 C 0.16955 0.66028 0.19423 0.0
C823 C 0.15925 0.69061 0.11374 0.0
N824 N 0.13333 0.59113 0.16875 0.0
N825 N 0.2163 0.76075 0.13 0.0
H826 H 0.12545 0.68514 0.05738 0.0
H827 H 0.15813 0.73598 0.07267 0.0
H828 H 0.23938 0.7824 0.14972 0.0
H829 H 0.21864 0.77311 0.09899 0.0
H830 H 0.14177 0.57958 0.19506 0.0
H831 H 0.1174 0.56964 0.14591 0.0
H832 H 0.14523 0.61413 0.24573 0.0
H833 H 0.1836 0.66454 0.25976 0.0
loop_
_geom_bond_atom_site_label_1
_geom_bond_atom_site_label_2
_geom_bond_distance
_geom_bond_site_symmetry_2
_ccdc_geom_bond_type
C0 C1 1.443 . S
C0 N4 1.376 1_556 S
C0 C38 1.389 . S
C1 C0 1.443 . S
C1 C2 1.340 1_556 S
C1 H41 0.951 . S
C2 C1 1.340 1_554 S
C2 C3 1.439 . S
C2 H42 0.950 . S
C3 C2 1.439 . S
C3 N4 1.374 . S
C3 C37 1.395 . S
N4 C0 1.376 1_554 S
N4 C3 1.374 . S
N4 Co5 1.991 1_655 S
Co5 N4 1.991 1_455 S
Co5 N6 2.009 1_455 S
Co5 N11 2.026 1_554 S
Co5 N16 1.981 1_554 S
Co5 N21 2.293 . S
Co5 N27 2.272 1_454 S
N6 Co5 2.009 1_655 S
N6 C7 1.376 . S
N6 C10 1.383 1_655 S
C7 N6 1.376 . S
C7 C8 1.446 . S
C7 C37 1.391 . S
C8 C7 1.446 . S
C8 C9 1.339 . S
C8 H43 0.949 . S
C9 C8 1.339 . S
C9 C10 1.439 1_655 S
C9 H44 0.950 1_655 S
C10 N6 1.383 1_455 S
C10 C9 1.439 1_455 S
C10 C39 1.392 . S
N11 Co5 2.026 1_556 S
N11 C12 1.376 1_556 S
N11 C15 1.374 . S
C12 N11 1.376 1_554 S
C12 C13 1.443 . S
C12 C39 1.389 . S
C13 C12 1.443 . S
C13 C14 1.340 1_554 S
C13 H45 0.951 . S
C14 C13 1.340 1_556 S
C14 C15 1.439 . S
C14 H46 0.950 . S
C15 N11 1.374 . S
C15 C14 1.439 . S
C15 C40 1.395 . S
N16 Co5 1.981 1_556 S
N16 C17 1.376 . S
N16 C20 1.383 1_455 S
C17 N16 1.376 . S
C17 C18 1.446 . S
C17 C40 1.391 . S
C18 C17 1.446 . S
C18 C19 1.339 . S
C18 H47 0.949 . S
C19 C18 1.339 . S
C19 C20 1.439 1_455 S
C19 H48 0.950 1_455 S
C20 N16 1.383 1_655 S
C20 C19 1.439 1_655 S
C20 C38 1.392 . S
N21 Co5 2.293 . S
N21 C24 1.332 . S
N21 C26 1.332 . S
C22 C23 1.386 . S
C22 C25 1.388 . S
C23 C22 1.386 . S
C23 C24 1.382 . S
C23 H49 0.950 . S
C24 N21 1.332 . S
C24 C23 1.382 . S
C24 H35 0.952 . S
C25 C22 1.388 . S
C25 C26 1.382 . S
C25 H50 0.950 . S
C26 N21 1.332 . S
C26 C25 1.382 . S
C26 H36 0.948 1_455 S
N27 Co5 2.272 1_656 S
N27 C31 1.332 . S
N27 C32 1.332 . S
C28 C29 1.388 . S
C28 C32 1.382 . S
C28 H51 0.950 . S
C29 C28 1.388 . S
C29 C30 1.386 . S
C30 C29 1.386 . S
C30 C31 1.382 . S
C30 H52 0.950 . S
C31 N27 1.332 . S
C31 C30 1.382 . S
C31 H33 0.954 . S
C32 N27 1.332 . S
C32 C28 1.382 . S
C32 H34 0.948 1_655 S
H33 C31 0.954 . S
H34 C32 0.948 1_455 S
H35 C24 0.952 . S
H36 C26 0.948 1_655 S
C37 C3 1.395 . S
C37 C7 1.391 . S
C38 C0 1.389 . S
C38 C20 1.392 . S
C39 C10 1.392 . S
C39 C12 1.389 . S
C40 C15 1.395 . S
C40 C17 1.391 . S
H41 C1 0.951 . S
H42 C2 0.950 . S
H43 C8 0.949 . S
H44 C9 0.950 1_455 S
H45 C13 0.951 . S
H46 C14 0.950 . S
H47 C18 0.949 . S
H48 C19 0.950 1_655 S
H49 C23 0.950 . S
H50 C25 0.950 . S
H51 C28 0.950 . S
H52 C30 0.950 . S
C53 C54 1.440 1_545 S
C53 N57 1.376 1_545 S
C53 C91 1.389 . S
C54 C53 1.440 1_565 S
C54 C55 1.346 . S
C54 H94 0.950 1_565 S
C55 C54 1.346 . S
C55 C56 1.439 . S
C55 H95 0.950 . S
C56 C55 1.439 . S
C56 N57 1.374 . S
C56 C90 1.395 . S
N57 C53 1.376 1_565 S
N57 C56 1.374 . S
N57 Co58 2.008 1_565 S
Co58 N57 2.008 1_545 S
Co58 N59 1.995 1_545 S
Co58 N64 2.008 . S
Co58 N69 1.995 . S
Co58 N74 2.282 1_545 S
Co58 N80 2.282 . S
N59 Co58 1.995 1_565 S
N59 C60 1.376 . S
N59 C63 1.383 . S
C60 N59 1.376 . S
C60 C61 1.446 . S
C60 C90 1.391 . S
C61 C60 1.446 . S
C61 C62 1.339 . S
C61 H96 0.949 . S
C62 C61 1.339 . S
C62 C63 1.439 . S
C62 H97 0.950 . S
C63 N59 1.383 . S
C63 C62 1.439 . S
C63 C92 1.392 . S
N64 Co58 2.008 . S
N64 C65 1.376 1_545 S
N64 C68 1.374 . S
C65 N64 1.376 1_565 S
C65 C66 1.443 1_565 S
C65 C92 1.389 . S
C66 C65 1.443 1_545 S
C66 C67 1.340 . S
C66 H98 0.951 1_545 S
C67 C66 1.340 . S
C67 C68 1.439 . S
C67 H99 0.950 . S
C68 N64 1.374 . S
C68 C67 1.439 . S
C68 C93 1.395 . S
N69 Co58 1.995 . S
N69 C70 1.376 . S
N69 C73 1.383 . S
C70 N69 1.376 . S
C70 C71 1.446 . S
C70 C93 1.391 . S
C71 C70 1.446 . S
C71 C72 1.339 . S
C71 H100 0.949 . S
C72 C71 1.339 . S
C72 C73 1.439 . S
C72 H101 0.950 . S
C73 N69 1.383 . S
C73 C72 1.439 . S
C73 C91 1.392 . S
N74 Co58 2.282 1_565 S
N74 C77 1.332 . S
N74 C79 1.332 . S
C75 C76 1.386 . S
C75 C78 1.388 . S
C76 C75 1.386 . S
C76 C77 1.382 . S
C76 H102 0.950 . S
C77 N74 1.332 . S
C77 C76 1.382 . S
C77 H88 0.952 1_565 S
C78 C75 1.388 . S
C78 C79 1.382 . S
C78 H103 0.950 . S
C79 N74 1.332 . S
C79 C78 1.382 . S
C79 H89 0.948 . S
N80 Co58 2.282 . S
N80 C84 1.332 . S
N80 C85 1.332 . S
C81 C82 1.388 . S
C81 C85 1.382 . S
C81 H104 0.950 . S
C82 C81 1.388 . S
C82 C83 1.386 . S
C83 C82 1.386 . S
C83 C84 1.382 . S
C83 H105 0.950 . S
C84 N80 1.332 . S
C84 C83 1.382 . S
C84 H86 0.952 1_545 S
C85 N80 1.332 . S
C85 C81 1.382 . S
C85 H87 0.948 . S
H86 C84 0.952 1_565 S
H87 C85 0.948 . S
H88 C77 0.952 1_545 S
H89 C79 0.948 . S
C90 C56 1.395 . S
C90 C60 1.391 . S
C91 C53 1.389 . S
C91 C73 1.392 . S
C92 C63 1.392 . S
C92 C65 1.389 . S
C93 C68 1.395 . S
C93 C70 1.391 . S
H94 C54 0.950 1_545 S
H95 C55 0.950 . S
H96 C61 0.949 . S
H97 C62 0.950 . S
H98 C66 0.951 1_565 S
H99 C67 0.950 . S
H100 C71 0.949 . S
H101 C72 0.950 . S
H102 C76 0.950 . S
H103 C78 0.950 . S
H104 C81 0.950 . S
H105 C83 0.950 . S
C106 C107 1.443 . S
C106 N110 1.376 . S
C106 C144 1.389 . S
C107 C106 1.443 . S
C107 C108 1.340 . S
C107 H147 0.951 . S
C108 C107 1.340 . S
C108 C109 1.439 . S
C108 H148 0.950 . S
C109 C108 1.439 . S
C109 N110 1.374 . S
C109 C143 1.395 . S
N110 C106 1.376 . S
N110 C109 1.374 . S
N110 Co111 1.995 1_556 S
Co111 N110 1.995 1_554 S
Co111 N112 1.993 1_554 S
Co111 N117 2.022 . S
Co111 N122 1.997 . S
Co111 N127 2.292 . S
Co111 N133 2.273 1_554 S
N112 Co111 1.993 1_556 S
N112 C113 1.376 . S
N112 C116 1.383 1_556 S
C113 N112 1.376 . S
C113 C114 1.446 . S
C113 C143 1.391 . S
C114 C113 1.446 . S
C114 C115 1.339 1_556 S
C114 H149 0.949 . S
C115 C114 1.339 1_554 S
C115 C116 1.439 . S
C115 H150 0.950 . S
C116 N112 1.383 1_554 S
C116 C115 1.439 . S
C116 C145 1.392 . S
N117 Co111 2.022 . S
N117 C118 1.376 . S
N117 C121 1.374 . S
C118 N117 1.376 . S
C118 C119 1.443 . S
C118 C145 1.389 . S
C119 C118 1.443 . S
C119 C120 1.340 . S
C119 H151 0.951 . S
C120 C119 1.340 . S
C120 C121 1.439 . S
C120 H152 0.950 . S
C121 N117 1.374 . S
C121 C120 1.439 . S
C121 C146 1.395 . S
N122 Co111 1.997 . S
N122 C123 1.376 . S
N122 C126 1.383 1_554 S
C123 N122 1.376 . S
C123 C124 1.446 . S
C123 C146 1.391 . S
C124 C123 1.446 . S
C124 C125 1.339 1_554 S
C124 H153 0.949 . S
C125 C124 1.339 1_556 S
C125 C126 1.439 . S
C125 H154 0.950 . S
C126 N122 1.383 1_556 S
C126 C125 1.439 . S
C126 C144 1.392 . S
N127 Co111 2.292 . S
N127 C130 1.332 . S
N127 C132 1.332 . S
C128 C129 1.386 . S
C128 C131 1.388 . S
C129 C128 1.386 . S
C129 C130 1.382 . S
C129 H155 0.950 . S
C130 N127 1.332 . S
C130 C129 1.382 . S
C130 H141 0.952 . S
C131 C128 1.388 . S
C131 C132 1.382 . S
C131 H156 0.950 . S
C132 N127 1.332 . S
C132 C131 1.382 . S
C132 H142 0.948 . S
N133 Co111 2.273 1_556 S
N133 C137 1.332 . S
N133 C138 1.332 . S
C134 C135 1.388 . S
C134 C138 1.382 . S
C134 H157 0.950 . S
C135 C134 1.388 . S
C135 C136 1.386 . S
C136 C135 1.386 . S
C136 C137 1.382 . S
C136 H158 0.950 . S
C137 N133 1.332 . S
C137 C136 1.382 . S
C137 H139 0.952 . S
C138 N133 1.332 . S
C138 C134 1.382 . S
C138 H140 0.948 . S
H139 C137 0.952 . S
H140 C138 0.948 . S
H141 C130 0.952 . S
H142 C132 0.948 . S
C143 C109 1.395 . S
C143 C113 1.391 . S
C144 C106 1.389 . S
C144 C126 1.392 . S
C145 C116 1.392 . S
C145 C118 1.389 . S
C146 C121 1.395 . S
C146 C123 1.391 . S
H147 C107 0.951 . S
H148 C108 0.950 . S
H149 C114 0.949 . S
H150 C115 0.950 . S
H151 C119 0.951 . S
H152 C120 0.950 . S
H153 C124 0.949 . S
H154 C125 0.950 . S
H155 C129 0.950 . S
H156 C131 0.950 . S
H157 C134 0.950 . S
H158 C136 0.950 . S
C159 C160 1.443 . S
C159 N163 1.376 . S
C159 C197 1.389 . S
C160 C159 1.443 . S
C160 C161 1.340 . S
C160 H200 0.951 . S
C161 C160 1.340 . S
C161 C162 1.439 . S
C161 H201 0.950 . S
C162 C161 1.439 . S
C162 N163 1.374 . S
C162 C196 1.395 . S
N163 C159 1.376 . S
N163 C162 1.374 . S
N163 Co164 1.997 1_655 S
Co164 N163 1.997 1_455 S
Co164 N165 1.986 1_455 S
Co164 N170 2.019 . S
Co164 N175 2.003 . S
Co164 N180 2.295 . S
Co164 N186 2.270 1_455 S
N165 Co164 1.986 1_655 S
N165 C166 1.376 . S
N165 C169 1.383 1_655 S
C166 N165 1.376 . S
C166 C167 1.446 . S
C166 C196 1.391 . S
C167 C166 1.446 . S
C167 C168 1.337 1_655 S
C167 H202 0.949 . S
C168 C167 1.337 1_455 S
C168 C169 1.440 . S
C168 H203 0.950 . S
C169 N165 1.383 1_455 S
C169 C168 1.440 . S
C169 C198 1.392 . S
N170 Co164 2.019 . S
N170 C171 1.376 . S
N170 C174 1.374 . S
C171 N170 1.376 . S
C171 C172 1.443 . S
C171 C198 1.389 . S
C172 C171 1.443 . S
C172 C173 1.340 . S
C172 H204 0.951 . S
C173 C172 1.340 . S
C173 C174 1.439 . S
C173 H205 0.950 . S
C174 N170 1.374 . S
C174 C173 1.439 . S
C174 C199 1.395 . S
N175 Co164 2.003 . S
N175 C176 1.376 . S
N175 C179 1.383 1_455 S
C176 N175 1.376 . S
C176 C177 1.446 . S
C176 C199 1.391 . S
C177 C176 1.446 . S
C177 C178 1.360 . S
C177 H206 0.949 . S
C178 C177 1.360 . S
C178 C179 1.419 1_455 S
C178 H207 0.949 1_455 S
C179 N175 1.383 1_655 S
C179 C178 1.419 1_655 S
C179 C197 1.392 . S
N180 Co164 2.295 . S
N180 C183 1.332 . S
N180 C185 1.332 . S
C181 C182 1.386 . S
C181 C184 1.388 . S
C182 C181 1.386 . S
C182 C183 1.382 . S
C182 H208 0.950 . S
C183 N180 1.332 . S
C183 C182 1.382 . S
C183 H194 0.952 . S
C184 C181 1.388 . S
C184 C185 1.382 . S
C184 H209 0.950 . S
C185 N180 1.332 . S
C185 C184 1.382 . S
C185 H195 0.948 1_455 S
N186 Co164 2.270 1_655 S
N186 C190 1.332 . S
N186 C191 1.332 . S
C187 C188 1.388 . S
C187 C191 1.382 . S
C187 H210 0.950 . S
C188 C187 1.388 . S
C188 C189 1.386 . S
C189 C188 1.386 . S
C189 C190 1.382 . S
C189 H211 0.950 . S
C190 N186 1.332 . S
C190 C189 1.382 . S
C190 H192 0.952 . S
C191 N186 1.332 . S
C191 C187 1.382 . S
C191 H193 0.948 1_655 S
H192 C190 0.952 . S
H193 C191 0.948 1_455 S
H194 C183 0.952 . S
H195 C185 0.948 1_655 S
C196 C162 1.395 . S
C196 C166 1.391 . S
C197 C159 1.389 . S
C197 C179 1.392 . S
C198 C169 1.392 . S
C198 C171 1.389 . S
C199 C174 1.395 . S
C199 C176 1.391 . S
H200 C160 0.951 . S
H201 C161 0.950 . S
H202 C167 0.949 . S
H203 C168 0.950 . S
H204 C172 0.951 . S
H205 C173 0.950 . S
H206 C177 0.949 . S
H207 C178 0.949 1_655 S
H208 C182 0.950 . S
H209 C184 0.950 . S
H210 C187 0.950 . S
H211 C189 0.950 . S
C212 C213 1.429 1_565 S
C212 N216 1.376 1_565 S
C212 C250 1.389 . S
C213 C212 1.429 1_545 S
C213 C214 1.358 . S
C213 H253 0.950 1_545 S
C214 C213 1.358 . S
C214 C215 1.439 . S
C214 H254 0.950 . S
C215 C214 1.439 . S
C215 N216 1.374 . S
C215 C249 1.395 . S
N216 C212 1.376 1_545 S
N216 C215 1.374 . S
N216 Co217 2.022 . S
Co217 N216 2.022 . S
Co217 N218 1.995 1_554 S
Co217 N223 1.994 1_544 S
Co217 N228 1.994 1_545 S
Co217 N233 2.275 1_554 S
Co217 N239 2.290 1_545 S
N218 Co217 1.995 1_556 S
N218 C219 1.376 1_556 S
N218 C222 1.383 . S
C219 N218 1.376 1_554 S
C219 C220 1.446 . S
C219 C249 1.391 . S
C220 C219 1.446 . S
C220 C221 1.339 1_554 S
C220 H255 0.949 . S
C221 C220 1.339 1_556 S
C221 C222 1.439 . S
C221 H256 0.950 . S
C222 N218 1.383 . S
C222 C221 1.439 . S
C222 C251 1.392 . S
N223 Co217 1.994 1_566 S
N223 C224 1.376 1_565 S
N223 C227 1.374 . S
C224 N223 1.376 1_545 S
C224 C225 1.443 . S
C224 C251 1.389 . S
C225 C224 1.443 . S
C225 C226 1.340 1_545 S
C225 H257 0.951 . S
C226 C225 1.340 1_565 S
C226 C227 1.439 . S
C226 H258 0.950 . S
C227 N223 1.374 . S
C227 C226 1.439 . S
C227 C252 1.395 . S
N228 Co217 1.994 1_565 S
N228 C229 1.376 1_554 S
N228 C232 1.383 . S
C229 N228 1.376 1_556 S
C229 C230 1.446 . S
C229 C252 1.391 . S
C230 C229 1.446 . S
C230 C231 1.339 1_556 S
C230 H259 0.949 . S
C231 C230 1.339 1_554 S
C231 C232 1.439 . S
C231 H260 0.950 . S
C232 N228 1.383 . S
C232 C231 1.439 . S
C232 C250 1.392 . S
N233 Co217 2.275 1_556 S
N233 C236 1.332 . S
N233 C238 1.332 . S
C234 C235 1.386 . S
C234 C237 1.388 . S
C235 C234 1.386 . S
C235 C236 1.382 . S
C235 H261 0.950 . S
C236 N233 1.332 . S
C236 C235 1.382 . S
C236 H247 0.952 1_545 S
C237 C234 1.388 . S
C237 C238 1.382 . S
C237 H262 0.950 . S
C238 N233 1.332 . S
C238 C237 1.382 . S
C238 H248 0.948 . S
N239 Co217 2.290 1_565 S
N239 C243 1.332 . S
N239 C244 1.332 . S
C240 C241 1.388 . S
C240 C244 1.382 . S
C240 H263 0.950 . S
C241 C240 1.388 . S
C241 C242 1.386 . S
C242 C241 1.386 . S
C242 C243 1.382 . S
C242 H264 0.950 . S
C243 N239 1.332 . S
C243 C242 1.382 . S
C243 H245 0.952 1_565 S
C244 N239 1.332 . S
C244 C240 1.382 . S
C244 H246 0.948 . S
H245 C243 0.952 1_545 S
H246 C244 0.948 . S
H247 C236 0.952 1_565 S
H248 C238 0.948 . S
C249 C215 1.395 . S
C249 C219 1.391 . S
C250 C212 1.389 . S
C250 C232 1.392 . S
C251 C222 1.392 . S
C251 C224 1.389 . S
C252 C227 1.395 . S
C252 C229 1.391 . S
H253 C213 0.950 1_565 S
H254 C214 0.950 . S
H255 C220 0.949 . S
H256 C221 0.950 . S
H257 C225 0.951 . S
H258 C226 0.950 . S
H259 C230 0.949 . S
H260 C231 0.950 . S
H261 C235 0.950 . S
H262 C237 0.950 . S
H263 C240 0.950 . S
H264 C242 0.950 . S
C265 C266 1.443 . S
C265 N269 1.376 . S
C265 C303 1.389 . S
C266 C265 1.443 . S
C266 C267 1.340 . S
C266 H306 0.951 . S
C267 C266 1.340 . S
C267 C268 1.439 . S
C267 H307 0.950 . S
C268 C267 1.439 . S
C268 N269 1.374 . S
C268 C302 1.395 . S
N269 C265 1.376 . S
N269 C268 1.374 . S
N269 Co270 2.008 . S
Co270 N269 2.008 . S
Co270 N271 1.995 . S
Co270 N276 2.008 . S
Co270 N281 1.995 . S
Co270 N286 2.282 . S
Co270 N292 2.282 . S
N271 Co270 1.995 . S
N271 C272 1.376 . S
N271 C275 1.383 . S
C272 N271 1.376 . S
C272 C273 1.446 . S
C272 C302 1.391 . S
C273 C272 1.446 . S
C273 C274 1.339 . S
C273 H308 0.949 . S
C274 C273 1.339 . S
C274 C275 1.439 . S
C274 H309 0.950 . S
C275 N271 1.383 . S
C275 C274 1.439 . S
C275 C304 1.392 . S
N276 Co270 2.008 . S
N276 C277 1.376 . S
N276 C280 1.374 . S
C277 N276 1.376 . S
C277 C278 1.443 . S
C277 C304 1.389 . S
C278 C277 1.443 . S
C278 C279 1.340 . S
C278 H310 0.951 . S
C279 C278 1.340 . S
C279 C280 1.439 . S
C279 H311 0.950 . S
C280 N276 1.374 . S
C280 C279 1.439 . S
C280 C305 1.395 . S
N281 Co270 1.995 . S
N281 C282 1.376 . S
N281 C285 1.383 . S
C282 N281 1.376 . S
C282 C283 1.446 . S
C282 C305 1.391 . S
C283 C282 1.446 . S
C283 C284 1.339 . S
C283 H312 0.949 . S
C284 C283 1.339 . S
C284 C285 1.439 . S
C284 H313 0.950 . S
C285 N281 1.383 . S
C285 C284 1.439 . S
C285 C303 1.392 . S
N286 Co270 2.282 . S
N286 C289 1.332 . S
N286 C291 1.332 . S
C287 C288 1.386 . S
C287 C290 1.388 . S
C288 C287 1.386 . S
C288 C289 1.382 . S
C288 H314 0.950 . S
C289 N286 1.332 . S
C289 C288 1.382 . S
C289 H300 0.952 . S
C290 C287 1.388 . S
C290 C291 1.382 . S
C290 H315 0.950 . S
C291 N286 1.332 . S
C291 C290 1.382 . S
C291 H301 0.948 . S
N292 Co270 2.282 . S
N292 C296 1.332 . S
N292 C297 1.332 . S
C293 C294 1.388 . S
C293 C297 1.382 . S
C293 H316 0.950 . S
C294 C293 1.388 . S
C294 C295 1.386 . S
C295 C294 1.386 . S
C295 C296 1.382 . S
C295 H317 0.950 . S
C296 N292 1.332 . S
C296 C295 1.382 . S
C296 H298 0.952 . S
C297 N292 1.332 . S
C297 C293 1.382 . S
C297 H299 0.948 . S
H298 C296 0.952 . S
H299 C297 0.948 . S
H300 C289 0.952 . S
H301 C291 0.948 . S
C302 C268 1.395 . S
C302 C272 1.391 . S
C303 C265 1.389 . S
C303 C285 1.392 . S
C304 C275 1.392 . S
C304 C277 1.389 . S
C305 C280 1.395 . S
C305 C282 1.391 . S
H306 C266 0.951 . S
H307 C267 0.950 . S
H308 C273 0.949 . S
H309 C274 0.950 . S
H310 C278 0.951 . S
H311 C279 0.950 . S
H312 C283 0.949 . S
H313 C284 0.950 . S
H314 C288 0.950 . S
H315 C290 0.950 . S
H316 C293 0.950 . S
H317 C295 0.950 . S
C318 O320 1.247 . S
C318 O322 1.258 . S
C319 O326 1.247 . S
C319 O327 1.258 . S
O320 C318 1.247 . S
O320 Zn321 2.028 . S
Zn321 O320 2.028 . S
Zn321 O325 2.035 . S
Zn321 O327 2.035 . S
Zn321 O328 2.028 . S
O322 C318 1.258 . S
O322 Zn323 2.035 . S
Zn323 O322 2.035 . S
Zn323 O324 2.028 . S
Zn323 O326 2.028 . S
Zn323 O329 2.035 . S
O324 Zn323 2.028 . S
O324 C330 1.247 . S
O325 Zn321 2.035 . S
O325 C330 1.258 . S
O326 C319 1.247 . S
O326 Zn323 2.028 . S
O327 C319 1.258 . S
O327 Zn321 2.035 . S
O328 Zn321 2.028 . S
O328 C331 1.247 . S
O329 Zn323 2.035 . S
O329 C331 1.258 . S
C330 O324 1.247 . S
C330 O325 1.258 . S
C331 O328 1.247 . S
C331 O329 1.258 . S
C332 O334 1.247 . S
C332 O336 1.258 . S
C333 O340 1.247 . S
C333 O341 1.258 . S
O334 C332 1.247 . S
O334 Zn335 2.028 . S
Zn335 O334 2.028 . S
Zn335 O339 2.035 . S
Zn335 O341 2.035 . S
Zn335 O342 2.028 . S
O336 C332 1.258 . S
O336 Zn337 2.035 . S
Zn337 O336 2.035 . S
Zn337 O338 2.028 . S
Zn337 O340 2.028 . S
Zn337 O343 2.035 . S
O338 Zn337 2.028 . S
O338 C344 1.247 . S
O339 Zn335 2.035 . S
O339 C344 1.258 . S
O340 C333 1.247 . S
O340 Zn337 2.028 . S
O341 C333 1.258 . S
O341 Zn335 2.035 . S
O342 Zn335 2.028 . S
O342 C345 1.247 . S
O343 Zn337 2.035 . S
O343 C345 1.258 . S
C344 O338 1.247 . S
C344 O339 1.258 . S
C345 O342 1.247 . S
C345 O343 1.258 . S
C346 O348 1.247 . S
C346 O350 1.258 . S
C347 O354 1.247 . S
C347 O355 1.258 . S
O348 C346 1.247 . S
O348 Zn349 2.028 . S
Zn349 O348 2.028 . S
Zn349 O353 2.035 . S
Zn349 O355 2.035 . S
Zn349 O356 2.028 . S
O350 C346 1.258 . S
O350 Zn351 2.035 . S
Zn351 O350 2.035 . S
Zn351 O352 2.028 . S
Zn351 O354 2.028 . S
Zn351 O357 2.035 . S
O352 Zn351 2.028 . S
O352 C358 1.247 . S
O353 Zn349 2.035 . S
O353 C358 1.258 . S
O354 C347 1.247 . S
O354 Zn351 2.028 . S
O355 C347 1.258 . S
O355 Zn349 2.035 . S
O356 Zn349 2.028 . S
O356 C359 1.247 . S
O357 Zn351 2.035 . S
O357 C359 1.258 . S
C358 O352 1.247 . S
C358 O353 1.258 . S
C359 O356 1.247 . S
C359 O357 1.258 . S
C360 O362 1.247 . S
C360 O364 1.258 . S
C361 O368 1.247 . S
C361 O369 1.258 . S
O362 C360 1.247 . S
O362 Zn363 2.028 . S
Zn363 O362 2.028 . S
Zn363 O367 2.035 . S
Zn363 O369 2.035 . S
Zn363 O370 2.028 . S
O364 C360 1.258 . S
O364 Zn365 2.035 . S
Zn365 O364 2.035 . S
Zn365 O366 2.028 . S
Zn365 O368 2.028 . S
Zn365 O371 2.035 . S
O366 Zn365 2.028 . S
O366 C372 1.247 . S
O367 Zn363 2.035 . S
O367 C372 1.258 . S
O368 C361 1.247 . S
O368 Zn365 2.028 . S
O369 C361 1.258 . S
O369 Zn363 2.035 . S
O370 Zn363 2.028 . S
O370 C373 1.247 . S
O371 Zn365 2.035 . S
O371 C373 1.258 . S
C372 O366 1.247 . S
C372 O367 1.258 . S
C373 O370 1.247 . S
C373 O371 1.258 . S
C374 O376 1.247 . S
C374 O378 1.258 . S
C375 O382 1.247 . S
C375 O383 1.258 . S
O376 C374 1.247 . S
O376 Zn377 2.028 . S
Zn377 O376 2.028 . S
Zn377 O381 2.035 . S
Zn377 O383 2.035 . S
Zn377 O384 2.028 . S
O378 C374 1.258 . S
O378 Zn379 2.035 . S
Zn379 O378 2.035 . S
Zn379 O380 2.028 . S
Zn379 O382 2.028 . S
Zn379 O385 2.035 . S
O380 Zn379 2.028 . S
O380 C386 1.247 . S
O381 Zn377 2.035 . S
O381 C386 1.258 . S
O382 C375 1.247 . S
O382 Zn379 2.028 . S
O383 C375 1.258 . S
O383 Zn377 2.035 . S
O384 Zn377 2.028 . S
O384 C387 1.247 . S
O385 Zn379 2.035 . S
O385 C387 1.258 . S
C386 O380 1.247 . S
C386 O381 1.258 . S
C387 O384 1.247 . S
C387 O385 1.258 . S
C388 O390 1.247 . S
C388 O392 1.258 . S
C389 O396 1.247 . S
C389 O397 1.258 . S
O390 C388 1.247 . S
O390 Zn391 2.028 . S
Zn391 O390 2.028 . S
Zn391 O395 2.035 . S
Zn391 O397 2.035 . S
Zn391 O398 2.028 . S
O392 C388 1.258 . S
O392 Zn393 2.035 . S
Zn393 O392 2.035 . S
Zn393 O394 2.028 . S
Zn393 O396 2.028 . S
Zn393 O399 2.035 . S
O394 Zn393 2.028 . S
O394 C400 1.247 . S
O395 Zn391 2.035 . S
O395 C400 1.258 . S
O396 C389 1.247 . S
O396 Zn393 2.028 . S
O397 C389 1.258 . S
O397 Zn391 2.035 . S
O398 Zn391 2.028 . S
O398 C401 1.247 . S
O399 Zn393 2.035 . S
O399 C401 1.258 . S
C400 O394 1.247 . S
C400 O395 1.258 . S
C401 O398 1.247 . S
C401 O399 1.258 . S
C402 C403 1.363 . S
C402 C408 1.379 . S
C402 N410 1.356 . S
C403 C402 1.363 . S
C403 C409 1.363 . S
C404 C405 1.363 . S
C404 C409 1.379 . S
C404 N411 1.356 . S
C405 C404 1.363 . S
C405 C408 1.363 . S
N406 C408 1.356 . S
N406 H418 0.984 . S
N406 H419 0.985 . S
N407 C409 1.356 . S
N407 H412 0.984 . S
N407 H413 0.985 . S
C408 C402 1.379 . S
C408 C405 1.363 . S
C408 N406 1.356 . S
C409 C403 1.363 . S
C409 C404 1.379 . S
C409 N407 1.356 . S
N410 C402 1.356 . S
N410 H416 0.984 . S
N410 H417 0.984 . S
N411 C404 1.356 . S
N411 H414 0.984 . S
N411 H415 0.985 . S
H412 N407 0.984 . S
H413 N407 0.985 . S
H414 N411 0.984 . S
H415 N411 0.985 . S
H416 N410 0.984 . S
H417 N410 0.984 . S
H418 N406 0.984 . S
H419 N406 0.985 . S
C420 C421 1.363 . S
C420 C426 1.379 . S
C420 N428 1.356 . S
C421 C420 1.363 . S
C421 C427 1.363 . S
C422 C423 1.363 . S
C422 C427 1.379 . S
C422 N429 1.356 . S
C423 C422 1.363 . S
C423 C426 1.363 . S
N424 C426 1.356 . S
N424 H436 0.984 . S
N424 H437 0.985 . S
N425 C427 1.356 . S
N425 H430 0.984 . S
N425 H431 0.985 . S
C426 C420 1.379 . S
C426 C423 1.363 . S
C426 N424 1.356 . S
C427 C421 1.363 . S
C427 C422 1.379 . S
C427 N425 1.356 . S
N428 C420 1.356 . S
N428 H434 0.984 . S
N428 H435 0.984 . S
N429 C422 1.356 . S
N429 H432 0.984 . S
N429 H433 0.985 . S
H430 N425 0.984 . S
H431 N425 0.985 . S
H432 N429 0.984 . S
H433 N429 0.985 . S
H434 N428 0.984 . S
H435 N428 0.984 . S
H436 N424 0.984 . S
H437 N424 0.985 . S
C438 C439 1.363 . S
C438 C444 1.379 . S
C438 N446 1.356 . S
C439 C438 1.363 . S
C439 C445 1.363 . S
C440 C441 1.363 . S
C440 C445 1.379 . S
C440 N447 1.356 . S
C441 C440 1.363 . S
C441 C444 1.363 . S
N442 C444 1.356 . S
N442 H454 0.984 . S
N442 H455 0.985 . S
N443 C445 1.356 . S
N443 H448 0.984 . S
N443 H449 0.985 . S
C444 C438 1.379 . S
C444 C441 1.363 . S
C444 N442 1.356 . S
C445 C439 1.363 . S
C445 C440 1.379 . S
C445 N443 1.356 . S
N446 C438 1.356 . S
N446 H452 0.984 . S
N446 H453 0.984 . S
N447 C440 1.356 . S
N447 H450 0.984 . S
N447 H451 0.985 . S
H448 N443 0.984 . S
H449 N443 0.985 . S
H450 N447 0.984 . S
H451 N447 0.985 . S
H452 N446 0.984 . S
H453 N446 0.984 . S
H454 N442 0.984 . S
H455 N442 0.985 . S
C456 C457 1.363 . S
C456 C462 1.379 . S
C456 N464 1.356 . S
C457 C456 1.363 . S
C457 C463 1.363 . S
C458 C459 1.363 . S
C458 C463 1.379 . S
C458 N465 1.356 . S
C459 C458 1.363 . S
C459 C462 1.363 . S
N460 C462 1.356 . S
N460 H472 0.984 . S
N460 H473 0.985 . S
N461 C463 1.356 . S
N461 H466 0.984 . S
N461 H467 0.985 . S
C462 C456 1.379 . S
C462 C459 1.363 . S
C462 N460 1.356 . S
C463 C457 1.363 . S
C463 C458 1.379 . S
C463 N461 1.356 . S
N464 C456 1.356 . S
N464 H470 0.984 . S
N464 H471 0.984 . S
N465 C458 1.356 . S
N465 H468 0.984 . S
N465 H469 0.985 . S
H466 N461 0.984 . S
H467 N461 0.985 . S
H468 N465 0.984 . S
H469 N465 0.985 . S
H470 N464 0.984 . S
H471 N464 0.984 . S
H472 N460 0.984 . S
H473 N460 0.985 . S
C474 C475 1.363 . S
C474 C480 1.379 . S
C474 N482 1.356 . S
C475 C474 1.363 . S
C475 C481 1.363 . S
C476 C477 1.363 . S
C476 C481 1.379 . S
C476 N483 1.356 . S
C477 C476 1.363 . S
C477 C480 1.363 . S
N478 C480 1.356 . S
N478 H490 0.984 . S
N478 H491 0.985 . S
N479 C481 1.356 . S
N479 H484 0.984 . S
N479 H485 0.985 . S
C480 C474 1.379 . S
C480 C477 1.363 . S
C480 N478 1.356 . S
C481 C475 1.363 . S
C481 C476 1.379 . S
C481 N479 1.356 . S
N482 C474 1.356 . S
N482 H488 0.984 . S
N482 H489 0.984 . S
N483 C476 1.356 . S
N483 H486 0.984 . S
N483 H487 0.985 . S
H484 N479 0.984 . S
H485 N479 0.985 . S
H486 N483 0.984 . S
H487 N483 0.985 . S
H488 N482 0.984 . S
H489 N482 0.984 . S
H490 N478 0.984 . S
H491 N478 0.985 . S
C492 C493 1.363 . S
C492 C498 1.379 . S
C492 N500 1.356 . S
C493 C492 1.363 . S
C493 C499 1.363 . S
C494 C495 1.363 . S
C494 C499 1.379 . S
C494 N501 1.356 . S
C495 C494 1.363 . S
C495 C498 1.363 . S
N496 C498 1.356 . S
N496 H508 0.984 . S
N496 H509 0.985 . S
N497 C499 1.356 . S
N497 H502 0.984 . S
N497 H503 0.985 . S
C498 C492 1.379 . S
C498 C495 1.363 . S
C498 N496 1.356 . S
C499 C493 1.363 . S
C499 C494 1.379 . S
C499 N497 1.356 . S
N500 C492 1.356 . S
N500 H506 0.984 . S
N500 H507 0.984 . S
N501 C494 1.356 . S
N501 H504 0.984 . S
N501 H505 0.985 . S
H502 N497 0.984 . S
H503 N497 0.985 . S
H504 N501 0.984 . S
H505 N501 0.985 . S
H506 N500 0.984 . S
H507 N500 0.984 . S
H508 N496 0.984 . S
H509 N496 0.985 . S
C510 C511 1.363 . S
C510 C516 1.379 . S
C510 N518 1.356 . S
C511 C510 1.363 . S
C511 C517 1.363 . S
C512 C513 1.363 . S
C512 C517 1.379 . S
C512 N519 1.356 . S
C513 C512 1.363 . S
C513 C516 1.363 . S
N514 C516 1.356 . S
N514 H526 0.984 . S
N514 H527 0.985 . S
N515 C517 1.356 . S
N515 H520 0.984 . S
N515 H521 0.985 . S
C516 C510 1.379 . S
C516 C513 1.363 . S
C516 N514 1.356 . S
C517 C511 1.363 . S
C517 C512 1.379 . S
C517 N515 1.356 . S
N518 C510 1.356 . S
N518 H524 0.984 . S
N518 H525 0.984 . S
N519 C512 1.356 . S
N519 H522 0.984 . S
N519 H523 0.985 . S
H520 N515 0.984 . S
H521 N515 0.985 . S
H522 N519 0.984 . S
H523 N519 0.985 . S
H524 N518 0.984 . S
H525 N518 0.984 . S
H526 N514 0.984 . S
H527 N514 0.985 . S
C528 C529 1.363 . S
C528 C534 1.379 . S
C528 N536 1.356 . S
C529 C528 1.363 . S
C529 C535 1.363 . S
C530 C531 1.363 . S
C530 C535 1.379 . S
C530 N537 1.356 . S
C531 C530 1.363 . S
C531 C534 1.363 . S
N532 C534 1.356 . S
N532 H544 0.984 . S
N532 H545 0.985 . S
N533 C535 1.356 . S
N533 H538 0.984 . S
N533 H539 0.985 . S
C534 C528 1.379 . S
C534 C531 1.363 . S
C534 N532 1.356 . S
C535 C529 1.363 . S
C535 C530 1.379 . S
C535 N533 1.356 . S
N536 C528 1.356 . S
N536 H542 0.984 . S
N536 H543 0.984 . S
N537 C530 1.356 . S
N537 H540 0.984 . S
N537 H541 0.985 . S
H538 N533 0.984 . S
H539 N533 0.985 . S
H540 N537 0.984 . S
H541 N537 0.985 . S
H542 N536 0.984 . S
H543 N536 0.984 . S
H544 N532 0.984 . S
H545 N532 0.985 . S
C546 C547 1.363 . S
C546 C552 1.379 . S
C546 N554 1.356 . S
C547 C546 1.363 . S
C547 C553 1.363 . S
C548 C549 1.363 . S
C548 C553 1.379 . S
C548 N555 1.356 . S
C549 C548 1.363 . S
C549 C552 1.363 . S
N550 C552 1.356 . S
N550 H562 0.984 . S
N550 H563 0.985 . S
N551 C553 1.356 . S
N551 H556 0.984 . S
N551 H557 0.985 . S
C552 C546 1.379 . S
C552 C549 1.363 . S
C552 N550 1.356 . S
C553 C547 1.363 . S
C553 C548 1.379 . S
C553 N551 1.356 . S
N554 C546 1.356 . S
N554 H560 0.984 . S
N554 H561 0.984 . S
N555 C548 1.356 . S
N555 H558 0.984 . S
N555 H559 0.985 . S
H556 N551 0.984 . S
H557 N551 0.985 . S
H558 N555 0.984 . S
H559 N555 0.985 . S
H560 N554 0.984 . S
H561 N554 0.984 . S
H562 N550 0.984 . S
H563 N550 0.985 . S
C564 C565 1.363 . S
C564 C570 1.379 . S
C564 N572 1.356 . S
C565 C564 1.363 . S
C565 C571 1.363 . S
C566 C567 1.363 . S
C566 C571 1.379 . S
C566 N573 1.356 . S
C567 C566 1.363 . S
C567 C570 1.363 . S
N568 C570 1.356 . S
N568 H580 0.984 . S
N568 H581 0.985 . S
N569 C571 1.356 . S
N569 H574 0.984 . S
N569 H575 0.985 . S
C570 C564 1.379 . S
C570 C567 1.363 . S
C570 N568 1.356 . S
C571 C565 1.363 . S
C571 C566 1.379 . S
C571 N569 1.356 . S
N572 C564 1.356 . S
N572 H578 0.984 . S
N572 H579 0.984 . S
N573 C566 1.356 . S
N573 H576 0.984 . S
N573 H577 0.985 . S
H574 N569 0.984 . S
H575 N569 0.985 . S
H576 N573 0.984 . S
H577 N573 0.985 . S
H578 N572 0.984 . S
H579 N572 0.984 . S
H580 N568 0.984 . S
H581 N568 0.985 . S
C582 C583 1.363 . S
C582 C588 1.379 . S
C582 N590 1.356 . S
C583 C582 1.363 . S
C583 C589 1.363 . S
C584 C585 1.363 . S
C584 C589 1.379 . S
C584 N591 1.356 . S
C585 C584 1.363 . S
C585 C588 1.363 . S
N586 C588 1.356 . S
N586 H598 0.984 . S
N586 H599 0.985 . S
N587 C589 1.356 . S
N587 H592 0.984 . S
N587 H593 0.985 . S
C588 C582 1.379 . S
C588 C585 1.363 . S
C588 N586 1.356 . S
C589 C583 1.363 . S
C589 C584 1.379 . S
C589 N587 1.356 . S
N590 C582 1.356 . S
N590 H596 0.984 . S
N590 H597 0.984 . S
N591 C584 1.356 . S
N591 H594 0.984 . S
N591 H595 0.985 . S
H592 N587 0.984 . S
H593 N587 0.985 . S
H594 N591 0.984 . S
H595 N591 0.985 . S
H596 N590 0.984 . S
H597 N590 0.984 . S
H598 N586 0.984 . S
H599 N586 0.985 . S
C600 C601 1.363 . S
C600 C606 1.379 . S
C600 N608 1.356 . S
C601 C600 1.363 . S
C601 C607 1.363 . S
C602 C603 1.363 . S
C602 C607 1.379 . S
C602 N609 1.356 . S
C603 C602 1.363 . S
C603 C606 1.363 . S
N604 C606 1.356 . S
N604 H616 0.984 . S
N604 H617 0.985 . S
N605 C607 1.356 . S
N605 H610 0.984 . S
N605 H611 0.985 . S
C606 C600 1.379 . S
C606 C603 1.363 . S
C606 N604 1.356 . S
C607 C601 1.363 . S
C607 C602 1.379 . S
C607 N605 1.356 . S
N608 C600 1.356 . S
N608 H614 0.984 . S
N608 H615 0.984 . S
N609 C602 1.356 . S
N609 H612 0.984 . S
N609 H613 0.985 . S
H610 N605 0.984 . S
H611 N605 0.985 . S
H612 N609 0.984 . S
H613 N609 0.985 . S
H614 N608 0.984 . S
H615 N608 0.984 . S
H616 N604 0.984 . S
H617 N604 0.985 . S
C618 C619 1.363 . S
C618 C624 1.379 . S
C618 N626 1.356 . S
C619 C618 1.363 . S
C619 C625 1.363 . S
C620 C621 1.363 . S
C620 C625 1.379 . S
C620 N627 1.356 . S
C621 C620 1.363 . S
C621 C624 1.363 . S
N622 C624 1.356 . S
N622 H634 0.984 . S
N622 H635 0.985 . S
N623 C625 1.356 . S
N623 H628 0.984 . S
N623 H629 0.985 . S
C624 C618 1.379 . S
C624 C621 1.363 . S
C624 N622 1.356 . S
C625 C619 1.363 . S
C625 C620 1.379 . S
C625 N623 1.356 . S
N626 C618 1.356 . S
N626 H632 0.984 1_655 S
N626 H633 0.984 . S
N627 C620 1.356 . S
N627 H630 0.984 . S
N627 H631 0.985 . S
H628 N623 0.984 . S
H629 N623 0.985 . S
H630 N627 0.984 . S
H631 N627 0.985 . S
H632 N626 0.984 1_455 S
H633 N626 0.984 . S
H634 N622 0.984 . S
H635 N622 0.985 . S
C636 C637 1.363 . S
C636 C642 1.379 . S
C636 N644 1.356 . S
C637 C636 1.363 . S
C637 C643 1.363 . S
C638 C639 1.363 . S
C638 C643 1.379 . S
C638 N645 1.356 . S
C639 C638 1.363 . S
C639 C642 1.363 . S
N640 C642 1.356 . S
N640 H652 0.984 . S
N640 H653 0.985 . S
N641 C643 1.356 . S
N641 H646 0.984 . S
N641 H647 0.985 . S
C642 C636 1.379 . S
C642 C639 1.363 . S
C642 N640 1.356 . S
C643 C637 1.363 . S
C643 C638 1.379 . S
C643 N641 1.356 . S
N644 C636 1.356 . S
N644 H650 0.984 . S
N644 H651 0.984 . S
N645 C638 1.356 . S
N645 H648 0.984 . S
N645 H649 0.985 . S
H646 N641 0.984 . S
H647 N641 0.985 . S
H648 N645 0.984 . S
H649 N645 0.985 . S
H650 N644 0.984 . S
H651 N644 0.984 . S
H652 N640 0.984 . S
H653 N640 0.985 . S
C654 C655 1.363 . S
C654 C660 1.379 . S
C654 N662 1.356 . S
C655 C654 1.363 . S
C655 C661 1.363 . S
C656 C657 1.363 . S
C656 C661 1.379 . S
C656 N663 1.356 . S
C657 C656 1.363 . S
C657 C660 1.363 . S
N658 C660 1.356 . S
N658 H670 0.984 . S
N658 H671 0.985 . S
N659 C661 1.356 . S
N659 H664 0.984 . S
N659 H665 0.985 . S
C660 C654 1.379 . S
C660 C657 1.363 . S
C660 N658 1.356 . S
C661 C655 1.363 . S
C661 C656 1.379 . S
C661 N659 1.356 . S
N662 C654 1.356 . S
N662 H668 0.984 . S
N662 H669 0.984 . S
N663 C656 1.356 . S
N663 H666 0.984 . S
N663 H667 0.985 . S
H664 N659 0.984 . S
H665 N659 0.985 . S
H666 N663 0.984 . S
H667 N663 0.985 . S
H668 N662 0.984 . S
H669 N662 0.984 . S
H670 N658 0.984 . S
H671 N658 0.985 . S
C672 C673 1.363 . S
C672 C678 1.379 . S
C672 N680 1.356 . S
C673 C672 1.363 . S
C673 C679 1.363 . S
C674 C675 1.363 . S
C674 C679 1.379 . S
C674 N681 1.356 . S
C675 C674 1.363 . S
C675 C678 1.363 . S
N676 C678 1.356 . S
N676 H688 0.984 . S
N676 H689 0.985 . S
N677 C679 1.356 . S
N677 H682 0.984 . S
N677 H683 0.985 . S
C678 C672 1.379 . S
C678 C675 1.363 . S
C678 N676 1.356 . S
C679 C673 1.363 . S
C679 C674 1.379 . S
C679 N677 1.356 . S
N680 C672 1.356 . S
N680 H686 0.984 . S
N680 H687 0.984 . S
N681 C674 1.356 . S
N681 H684 0.984 . S
N681 H685 0.985 . S
H682 N677 0.984 . S
H683 N677 0.985 . S
H684 N681 0.984 . S
H685 N681 0.985 . S
H686 N680 0.984 . S
H687 N680 0.984 . S
H688 N676 0.984 . S
H689 N676 0.985 . S
C690 C691 1.363 . S
C690 C696 1.379 . S
C690 N698 1.356 . S
C691 C690 1.363 . S
C691 C697 1.363 . S
C692 C693 1.363 . S
C692 C697 1.379 . S
C692 N699 1.356 . S
C693 C692 1.363 . S
C693 C696 1.363 . S
N694 C696 1.356 . S
N694 H706 0.984 . S
N694 H707 0.985 . S
N695 C697 1.356 . S
N695 H700 0.984 . S
N695 H701 0.985 . S
C696 C690 1.379 . S
C696 C693 1.363 . S
C696 N694 1.356 . S
C697 C691 1.363 . S
C697 C692 1.379 . S
C697 N695 1.356 . S
N698 C690 1.356 . S
N698 H704 0.984 . S
N698 H705 0.984 . S
N699 C692 1.356 . S
N699 H702 0.984 . S
N699 H703 0.985 . S
H700 N695 0.984 . S
H701 N695 0.985 . S
H702 N699 0.984 . S
H703 N699 0.985 . S
H704 N698 0.984 . S
H705 N698 0.984 . S
H706 N694 0.984 . S
H707 N694 0.985 . S
C708 C709 1.363 . S
C708 C714 1.379 . S
C708 N716 1.356 . S
C709 C708 1.363 . S
C709 C715 1.363 . S
C710 C711 1.363 . S
C710 C715 1.379 . S
C710 N717 1.356 . S
C711 C710 1.363 . S
C711 C714 1.363 . S
N712 C714 1.356 . S
N712 H724 0.984 . S
N712 H725 0.985 . S
N713 C715 1.356 . S
N713 H718 0.984 . S
N713 H719 0.985 . S
C714 C708 1.379 . S
C714 C711 1.363 . S
C714 N712 1.356 . S
C715 C709 1.363 . S
C715 C710 1.379 . S
C715 N713 1.356 . S
N716 C708 1.356 . S
N716 H722 0.984 . S
N716 H723 0.984 . S
N717 C710 1.356 . S
N717 H720 0.984 . S
N717 H721 0.985 . S
H718 N713 0.984 . S
H719 N713 0.985 . S
H720 N717 0.984 . S
H721 N717 0.985 . S
H722 N716 0.984 . S
H723 N716 0.984 . S
H724 N712 0.984 . S
H725 N712 0.985 . S
C726 C727 1.363 . S
C726 C732 1.379 . S
C726 N734 1.356 . S
C727 C726 1.363 . S
C727 C733 1.363 . S
C728 C729 1.363 . S
C728 C733 1.379 . S
C728 N735 1.356 . S
C729 C728 1.363 . S
C729 C732 1.363 . S
N730 C732 1.356 . S
N730 H742 0.984 . S
N730 H743 0.985 . S
N731 C733 1.356 . S
N731 H736 0.984 . S
N731 H737 0.985 . S
C732 C726 1.379 . S
C732 C729 1.363 . S
C732 N730 1.356 . S
C733 C727 1.363 . S
C733 C728 1.379 . S
C733 N731 1.356 . S
N734 C726 1.356 . S
N734 H740 0.984 . S
N734 H741 0.984 . S
N735 C728 1.356 . S
N735 H738 0.984 . S
N735 H739 0.985 . S
H736 N731 0.984 . S
H737 N731 0.985 . S
H738 N735 0.984 . S
H739 N735 0.985 . S
H740 N734 0.984 . S
H741 N734 0.984 . S
H742 N730 0.984 . S
H743 N730 0.985 . S
C744 C745 1.363 . S
C744 C750 1.379 . S
C744 N752 1.356 . S
C745 C744 1.363 . S
C745 C751 1.363 . S
C746 C747 1.363 . S
C746 C751 1.379 . S
C746 N753 1.356 . S
C747 C746 1.363 . S
C747 C750 1.363 . S
N748 C750 1.356 . S
N748 H760 0.984 . S
N748 H761 0.985 . S
N749 C751 1.356 . S
N749 H754 0.984 . S
N749 H755 0.985 . S
C750 C744 1.379 . S
C750 C747 1.363 . S
C750 N748 1.356 . S
C751 C745 1.363 . S
C751 C746 1.379 . S
C751 N749 1.356 . S
N752 C744 1.356 . S
N752 H758 0.984 . S
N752 H759 0.984 . S
N753 C746 1.356 . S
N753 H756 0.984 . S
N753 H757 0.985 . S
H754 N749 0.984 . S
H755 N749 0.985 . S
H756 N753 0.984 . S
H757 N753 0.985 . S
H758 N752 0.984 . S
H759 N752 0.984 . S
H760 N748 0.984 . S
H761 N748 0.985 . S
C762 C763 1.363 . S
C762 C768 1.379 . S
C762 N770 1.356 . S
C763 C762 1.363 . S
C763 C769 1.363 . S
C764 C765 1.363 . S
C764 C769 1.379 . S
C764 N771 1.356 . S
C765 C764 1.363 . S
C765 C768 1.363 . S
N766 C768 1.356 . S
N766 H778 0.984 . S
N766 H779 0.985 . S
N767 C769 1.356 . S
N767 H772 0.984 . S
N767 H773 0.985 . S
C768 C762 1.379 . S
C768 C765 1.363 . S
C768 N766 1.356 . S
C769 C763 1.363 . S
C769 C764 1.379 . S
C769 N767 1.356 . S
N770 C762 1.356 . S
N770 H776 0.984 . S
N770 H777 0.984 . S
N771 C764 1.356 . S
N771 H774 0.984 . S
N771 H775 0.985 . S
H772 N767 0.984 . S
H773 N767 0.985 . S
H774 N771 0.984 . S
H775 N771 0.985 . S
H776 N770 0.984 . S
H777 N770 0.984 . S
H778 N766 0.984 . S
H779 N766 0.985 . S
C780 C781 1.363 . S
C780 C786 1.379 . S
C780 N788 1.356 . S
C781 C780 1.363 . S
C781 C787 1.363 . S
C782 C783 1.363 . S
C782 C787 1.379 . S
C782 N789 1.356 . S
C783 C782 1.363 . S
C783 C786 1.363 . S
N784 C786 1.356 . S
N784 H796 0.984 . S
N784 H797 0.985 . S
N785 C787 1.356 . S
N785 H790 0.984 . S
N785 H791 0.985 . S
C786 C780 1.379 . S
C786 C783 1.363 . S
C786 N784 1.356 . S
C787 C781 1.363 . S
C787 C782 1.379 . S
C787 N785 1.356 . S
N788 C780 1.356 . S
N788 H794 0.984 . S
N788 H795 0.984 . S
N789 C782 1.356 . S
N789 H792 0.984 . S
N789 H793 0.985 . S
H790 N785 0.984 . S
H791 N785 0.985 . S
H792 N789 0.984 . S
H793 N789 0.985 . S
H794 N788 0.984 . S
H795 N788 0.984 . S
H796 N784 0.984 . S
H797 N784 0.985 . S
C798 C799 1.363 . S
C798 C804 1.379 . S
C798 N806 1.356 . S
C799 C798 1.363 . S
C799 C805 1.363 . S
C800 C801 1.363 . S
C800 C805 1.379 . S
C800 N807 1.356 . S
C801 C800 1.363 . S
C801 C804 1.363 . S
N802 C804 1.356 . S
N802 H814 0.984 . S
N802 H815 0.985 . S
N803 C805 1.356 . S
N803 H808 0.984 . S
N803 H809 0.985 . S
C804 C798 1.379 . S
C804 C801 1.363 . S
C804 N802 1.356 . S
C805 C799 1.363 . S
C805 C800 1.379 . S
C805 N803 1.356 . S
N806 C798 1.356 . S
N806 H812 0.984 . S
N806 H813 0.984 . S
N807 C800 1.356 . S
N807 H810 0.984 . S
N807 H811 0.985 . S
H808 N803 0.984 . S
H809 N803 0.985 . S
H810 N807 0.984 . S
H811 N807 0.985 . S
H812 N806 0.984 . S
H813 N806 0.984 . S
H814 N802 0.984 . S
H815 N802 0.985 . S
C816 C817 1.363 . S
C816 C822 1.379 . S
C816 N824 1.356 . S
C817 C816 1.363 . S
C817 C823 1.363 . S
C818 C819 1.363 . S
C818 C823 1.379 . S
C818 N825 1.356 . S
C819 C818 1.363 . S
C819 C822 1.363 . S
N820 C822 1.356 . S
N820 H832 0.984 . S
N820 H833 0.985 . S
N821 C823 1.356 . S
N821 H826 0.984 . S
N821 H827 0.985 . S
C822 C816 1.379 . S
C822 C819 1.363 . S
C822 N820 1.356 . S
C823 C817 1.363 . S
C823 C818 1.379 . S
C823 N821 1.356 . S
N824 C816 1.356 . S
N824 H830 0.984 . S
N824 H831 0.984 . S
N825 C818 1.356 . S
N825 H828 0.984 . S
N825 H829 0.985 . S
H826 N821 0.984 . S
H827 N821 0.985 . S
H828 N825 0.984 . S
H829 N825 0.985 . S
H830 N824 0.984 . S
H831 N824 0.984 . S
H832 N820 0.984 . S
H833 N820 0.985 . S
C403 C39 1.711 . S
C405 C319 1.683 . S
C421 C91 1.708 . S
C423 C344 1.686 . S
C441 C347 1.525 . S
C439 C128 1.557 . S
C459 C373 1.494 . S
C457 C188 1.521 . S
C477 C374 1.612 . S
C475 C250 1.640 . S
C495 C401 1.641 . S
C493 C304 1.678 . S
C511 C75 1.581 . S
C513 C346 1.555 . S
C529 C144 1.700 . S
C531 C372 1.675 . S
C549 C375 1.634 . S
C547 C198 1.656 . S
C567 C400 1.481 . S
C565 C234 1.508 . S
C583 C294 1.508 . S
C585 C318 1.483 . S
C603 C345 1.518 . S
C601 C29 1.537 . S
C621 C360 1.683 . S
C619 C38 1.711 . S
C637 C92 1.708 . S
C639 C387 1.686 . S
C657 C388 1.525 . S
C655 C135 1.557 . S
C673 C181 1.521 . S
C675 C330 1.494 . S
C691 C251 1.640 . S
C693 C333 1.612 . S
C709 C303 1.678 . S
C711 C358 1.641 . S
C727 C82 1.581 . S
C729 C389 1.555 . S
C747 C331 1.675 . S
C745 C145 1.700 . S
C763 C197 1.656 . S
C765 C332 1.634 . S
C781 C241 1.508 . S
C783 C359 1.481 . S
C799 C287 1.507 . S
C801 C361 1.483 . S
C817 C22 1.537 . S
C819 C386 1.518 . S
