# Generated by pormake.
# Topology ocu, (6,8)-cn, num edge types: 1
# Building blocks:
#     Node 0, Type 0, BuildingBlock: NUHQIS_clean_sbu_0, # of connection points: 6
#     Node 1, Type 0, BuildingBlock: NUHQIS_clean_sbu_0, # of connection points: 6
#     Node 2, Type 0, BuildingBlock: NUHQIS_clean_sbu_0, # of connection points: 6
#     Node 3, Type 0, BuildingBlock: NUHQIS_clean_sbu_0, # of connection points: 6
#     Node 4, Type 0, BuildingBlock: NUHQIS_clean_sbu_0, # of connection points: 6
#     Node 5, Type 0, BuildingBlock: NUHQIS_clean_sbu_0, # of connection points: 6
#     Node 6, Type 0, BuildingBlock: NUHQIS_clean_sbu_0, # of connection points: 6
#     Node 7, Type 0, BuildingBlock: NUHQIS_clean_sbu_0, # of connection points: 6
#     Node 8, Type 1, BuildingBlock: TAGTUT_clean_sbu_1, # of connection points: 8
#     Node 9, Type 1, BuildingBlock: TAGTUT_clean_sbu_1, # of connection points: 8
#     Node 10, Type 1, BuildingBlock: TAGTUT_clean_sbu_1, # of connection points: 8
#     Node 11, Type 1, BuildingBlock: TAGTUT_clean_sbu_1, # of connection points: 8
#     Node 12, Type 1, BuildingBlock: TAGTUT_clean_sbu_1, # of connection points: 8
#     Node 13, Type 1, BuildingBlock: TAGTUT_clean_sbu_1, # of connection points: 8
#     Edge 14, Type (0, 1), BuildingBlock: XUDNAN_clean_linker_2, # of connection points: 2
#     Edge 15, Type (0, 1), BuildingBlock: XUDNAN_clean_linker_2, # of connection points: 2
#     Edge 16, Type (0, 1), BuildingBlock: XUDNAN_clean_linker_2, # of connection points: 2
#     Edge 17, Type (0, 1), BuildingBlock: XUDNAN_clean_linker_2, # of connection points: 2
#     Edge 18, Type (0, 1), BuildingBlock: XUDNAN_clean_linker_2, # of connection points: 2
#     Edge 19, Type (0, 1), BuildingBlock: XUDNAN_clean_linker_2, # of connection points: 2
#     Edge 20, Type (0, 1), BuildingBlock: XUDNAN_clean_linker_2, # of connection points: 2
#     Edge 21, Type (0, 1), BuildingBlock: XUDNAN_clean_linker_2, # of connection points: 2
#     Edge 22, Type (0, 1), BuildingBlock: XUDNAN_clean_linker_2, # of connection points: 2
#     Edge 23, Type (0, 1), BuildingBlock: XUDNAN_clean_linker_2, # of connection points: 2
#     Edge 24, Type (0, 1), BuildingBlock: XUDNAN_clean_linker_2, # of connection points: 2
#     Edge 25, Type (0, 1), BuildingBlock: XUDNAN_clean_linker_2, # of connection points: 2
#     Edge 26, Type (0, 1), BuildingBlock: XUDNAN_clean_linker_2, # of connection points: 2
#     Edge 27, Type (0, 1), BuildingBlock: XUDNAN_clean_linker_2, # of connection points: 2
#     Edge 28, Type (0, 1), BuildingBlock: XUDNAN_clean_linker_2, # of connection points: 2
#     Edge 29, Type (0, 1), BuildingBlock: XUDNAN_clean_linker_2, # of connection points: 2
#     Edge 30, Type (0, 1), BuildingBlock: XUDNAN_clean_linker_2, # of connection points: 2
#     Edge 31, Type (0, 1), BuildingBlock: XUDNAN_clean_linker_2, # of connection points: 2
#     Edge 32, Type (0, 1), BuildingBlock: XUDNAN_clean_linker_2, # of connection points: 2
#     Edge 33, Type (0, 1), BuildingBlock: XUDNAN_clean_linker_2, # of connection points: 2
#     Edge 34, Type (0, 1), BuildingBlock: XUDNAN_clean_linker_2, # of connection points: 2
#     Edge 35, Type (0, 1), BuildingBlock: XUDNAN_clean_linker_2, # of connection points: 2
#     Edge 36, Type (0, 1), BuildingBlock: XUDNAN_clean_linker_2, # of connection points: 2
#     Edge 37, Type (0, 1), BuildingBlock: XUDNAN_clean_linker_2, # of connection points: 2
#     Edge 38, Type (0, 1), BuildingBlock: XUDNAN_clean_linker_2, # of connection points: 2
#     Edge 39, Type (0, 1), BuildingBlock: XUDNAN_clean_linker_2, # of connection points: 2
#     Edge 40, Type (0, 1), BuildingBlock: XUDNAN_clean_linker_2, # of connection points: 2
#     Edge 41, Type (0, 1), BuildingBlock: XUDNAN_clean_linker_2, # of connection points: 2
#     Edge 42, Type (0, 1), BuildingBlock: XUDNAN_clean_linker_2, # of connection points: 2
#     Edge 43, Type (0, 1), BuildingBlock: XUDNAN_clean_linker_2, # of connection points: 2
#     Edge 44, Type (0, 1), BuildingBlock: XUDNAN_clean_linker_2, # of connection points: 2
#     Edge 45, Type (0, 1), BuildingBlock: XUDNAN_clean_linker_2, # of connection points: 2
#     Edge 46, Type (0, 1), BuildingBlock: XUDNAN_clean_linker_2, # of connection points: 2
#     Edge 47, Type (0, 1), BuildingBlock: XUDNAN_clean_linker_2, # of connection points: 2
#     Edge 48, Type (0, 1), BuildingBlock: XUDNAN_clean_linker_2, # of connection points: 2
#     Edge 49, Type (0, 1), BuildingBlock: XUDNAN_clean_linker_2, # of connection points: 2
#     Edge 50, Type (0, 1), BuildingBlock: XUDNAN_clean_linker_2, # of connection points: 2
#     Edge 51, Type (0, 1), BuildingBlock: XUDNAN_clean_linker_2, # of connection points: 2
#     Edge 52, Type (0, 1), BuildingBlock: XUDNAN_clean_linker_2, # of connection points: 2
#     Edge 53, Type (0, 1), BuildingBlock: XUDNAN_clean_linker_2, # of connection points: 2
#     Edge 54, Type (0, 1), BuildingBlock: XUDNAN_clean_linker_2, # of connection points: 2
#     Edge 55, Type (0, 1), BuildingBlock: XUDNAN_clean_linker_2, # of connection points: 2
#     Edge 56, Type (0, 1), BuildingBlock: XUDNAN_clean_linker_2, # of connection points: 2
#     Edge 57, Type (0, 1), BuildingBlock: XUDNAN_clean_linker_2, # of connection points: 2
#     Edge 58, Type (0, 1), BuildingBlock: XUDNAN_clean_linker_2, # of connection points: 2
#     Edge 59, Type (0, 1), BuildingBlock: XUDNAN_clean_linker_2, # of connection points: 2
#     Edge 60, Type (0, 1), BuildingBlock: XUDNAN_clean_linker_2, # of connection points: 2
#     Edge 61, Type (0, 1), BuildingBlock: XUDNAN_clean_linker_2, # of connection points: 2
# Relax obj value: 0.137
# Max RMSD: 0.252
# Mean RMSD: 0.127
data_MOF--net-ocu--node1-NUHQIS_clean_sbu_0--node2-TAGTUT_clean_sbu_1--edge1-XUDNAN_clean_linker_2
_symmetry_space_group_name_H-M    P1
_symmetry_Int_Tables_number       1
_symmetry_cell_setting            triclinic
loop_
_symmetry_equiv_pos_as_xyz
'x, y, z'
_cell_length_a     39.775918
_cell_length_b     40.345345
_cell_length_c     42.030012
_cell_angle_alpha  96.097631
_cell_angle_beta   85.659239
_cell_angle_gamma 111.91707
loop_
_atom_site_label
_atom_site_type_symbol
_atom_site_fract_x
_atom_site_fract_y
_atom_site_fract_z
_atom_type_partial_charge
Tb0 Tb 0.27174 0.25268 0.25764 0.0
Eu1 Eu 0.32877 0.2828 0.31196 0.0
C2 C 0.33747 0.22164 0.25154 0.0
C3 C 0.25627 0.21538 0.32308 0.0
C4 C 0.19291 0.24764 0.21626 0.0
C5 C 0.13149 0.23568 0.20104 0.0
C6 C 0.16026 0.22402 0.20332 0.0
C7 C 0.19564 0.28224 0.22857 0.0
C8 C 0.16731 0.29391 0.22613 0.0
C9 C 0.13518 0.27125 0.21146 0.0
C10 C 0.22476 0.23733 0.21606 0.0
O11 O 0.25318 0.29408 0.2879 0.0
O12 O 0.28698 0.30863 0.33258 0.0
O13 O 0.338 0.32736 0.28089 0.0
O14 O 0.3217 0.28937 0.23673 0.0
C15 C 0.25979 0.31083 0.31751 0.0
O16 O 0.34847 0.29246 0.36038 0.0
O17 O 0.38569 0.31375 0.32072 0.0
O18 O 0.35135 0.24628 0.27582 0.0
O19 O 0.30422 0.21693 0.24282 0.0
O20 O 0.2437 0.22298 0.29802 0.0
O21 O 0.29048 0.23094 0.33008 0.0
C22 C 0.34008 0.32119 0.24993 0.0
O23 O 0.25586 0.26397 0.2151 0.0
O24 O 0.22406 0.2153 0.23688 0.0
C25 C 0.40776 0.29151 0.36054 0.0
C26 C 0.45459 0.25709 0.3732 0.0
C27 C 0.46733 0.28709 0.35525 0.0
C28 C 0.44407 0.30419 0.34899 0.0
C29 C 0.39546 0.26226 0.3794 0.0
C30 C 0.41866 0.24534 0.38572 0.0
C31 C 0.38239 0.307 0.35069 0.0
H32 H 0.10695 0.21728 0.19003 0.0
H33 H 0.15742 0.19705 0.19407 0.0
H34 H 0.22044 0.30111 0.23878 0.0
H35 H 0.17188 0.32165 0.2339 0.0
H36 H 0.49496 0.29685 0.34554 0.0
H37 H 0.4542 0.32679 0.33445 0.0
H38 H 0.36774 0.25193 0.38886 0.0
H39 H 0.40838 0.22298 0.40054 0.0
Tb40 Tb 0.81783 0.26074 0.30695 0.0
Eu41 Eu 0.75229 0.27407 0.27342 0.0
C42 C 0.77903 0.20916 0.24876 0.0
C43 C 0.8337 0.30735 0.25012 0.0
C44 C 0.89141 0.23372 0.33594 0.0
C45 C 0.92481 0.21313 0.3699 0.0
C46 C 0.90369 0.23312 0.3661 0.0
C47 C 0.90027 0.21374 0.30945 0.0
C48 C 0.92161 0.1937 0.31323 0.0
C49 C 0.93438 0.1935 0.34349 0.0
C50 C 0.87163 0.25738 0.33283 0.0
O51 O 0.79786 0.29366 0.34094 0.0
O52 O 0.77725 0.32269 0.30773 0.0
O53 O 0.72961 0.24723 0.31851 0.0
O54 O 0.76823 0.21728 0.32118 0.0
C55 C 0.7886 0.32043 0.33561 0.0
O56 O 0.6944 0.26089 0.26729 0.0
O57 O 0.73464 0.30105 0.23984 0.0
O58 O 0.75162 0.22009 0.25308 0.0
O59 O 0.80945 0.22464 0.26376 0.0
O60 O 0.8402 0.30831 0.28039 0.0
O61 O 0.80127 0.28858 0.23988 0.0
C62 C 0.73711 0.22127 0.32884 0.0
O63 O 0.87313 0.26917 0.30492 0.0
O64 O 0.8394 0.24882 0.34655 0.0
C65 C 0.67933 0.30946 0.25434 0.0
C66 C 0.63792 0.35349 0.25769 0.0
C67 C 0.62082 0.31619 0.25926 0.0
C68 C 0.64135 0.29439 0.25739 0.0
C69 C 0.69654 0.34689 0.25501 0.0
C70 C 0.6761 0.3686 0.25653 0.0
C71 C 0.70034 0.28588 0.24795 0.0
H72 H 0.93326 0.21273 0.39371 0.0
H73 H 0.89714 0.24841 0.38678 0.0
H74 H 0.89109 0.21392 0.28588 0.0
H75 H 0.92843 0.17871 0.2925 0.0
H76 H 0.59153 0.30366 0.26063 0.0
H77 H 0.62747 0.26559 0.25714 0.0
H78 H 0.72581 0.35942 0.25292 0.0
H79 H 0.69042 0.39705 0.25471 0.0
Tb80 Tb 0.76099 0.74783 0.30909 0.0
Eu81 Eu 0.83419 0.78816 0.27266 0.0
C82 C 0.77545 0.72155 0.23848 0.0
C83 C 0.82995 0.72727 0.32488 0.0
C84 C 0.66499 0.71438 0.33655 0.0
C85 C 0.61121 0.7131 0.36788 0.0
C86 C 0.63987 0.70108 0.36159 0.0
C87 C 0.65756 0.7341 0.31439 0.0
C88 C 0.62956 0.74695 0.32114 0.0
C89 C 0.60882 0.73966 0.34996 0.0
C90 C 0.70243 0.71774 0.33968 0.0
O91 O 0.79877 0.78632 0.34227 0.0
O92 O 0.81994 0.82735 0.30701 0.0
O93 O 0.79497 0.80772 0.24661 0.0
O94 O 0.74472 0.78439 0.27968 0.0
C95 C 0.8156 0.81977 0.33665 0.0
O96 O 0.89043 0.82469 0.27814 0.0
O97 O 0.87026 0.80442 0.23077 0.0
O98 O 0.81036 0.73575 0.24271 0.0
O99 O 0.7524 0.72713 0.26006 0.0
O100 O 0.7942 0.71619 0.3214 0.0
O101 O 0.85042 0.75662 0.31044 0.0
C102 C 0.76046 0.8035 0.25439 0.0
O103 O 0.7161 0.70075 0.31745 0.0
O104 O 0.72447 0.75075 0.34647 0.0
C105 C 0.92657 0.80374 0.24072 0.0
C106 C 0.95247 0.75015 0.21564 0.0
C107 C 0.95739 0.77961 0.19804 0.0
C108 C 0.94392 0.80597 0.21034 0.0
C109 C 0.92756 0.77804 0.2603 0.0
C110 C 0.93999 0.75122 0.24779 0.0
C111 C 0.89893 0.81968 0.24788 0.0
H112 H 0.59454 0.7059 0.38954 0.0
H113 H 0.64494 0.68526 0.3786 0.0
H114 H 0.67641 0.74383 0.2945 0.0
H115 H 0.62806 0.76673 0.30636 0.0
H116 H 0.9686 0.78068 0.17372 0.0
H117 H 0.94379 0.82584 0.19497 0.0
H118 H 0.91495 0.77609 0.2841 0.0
H119 H 0.93599 0.72947 0.26245 0.0
Tb120 Tb 0.29173 0.75184 0.29957 0.0
Eu121 Eu 0.25991 0.8009 0.26289 0.0
C122 C 0.30662 0.83202 0.32636 0.0
C123 C 0.21655 0.75381 0.31659 0.0
C124 C 0.31405 0.67554 0.31152 0.0
C125 C 0.3567 0.65038 0.2856 0.0
C126 C 0.34867 0.67371 0.30916 0.0
C127 C 0.2863 0.65013 0.29317 0.0
C128 C 0.29436 0.62696 0.26954 0.0
C129 C 0.33022 0.6288 0.26405 0.0
C130 C 0.30959 0.70845 0.32642 0.0
O131 O 0.25816 0.71541 0.26226 0.0
O132 O 0.25623 0.75434 0.22687 0.0
O133 O 0.32042 0.8217 0.25775 0.0
O134 O 0.32878 0.76891 0.25868 0.0
C135 C 0.25212 0.72194 0.23363 0.0
O136 O 0.22007 0.82537 0.25935 0.0
O137 O 0.26554 0.8361 0.22501 0.0
O138 O 0.27937 0.83208 0.31045 0.0
O139 O 0.31877 0.80558 0.32201 0.0
O140 O 0.2489 0.76308 0.32759 0.0
O141 O 0.21323 0.75909 0.28705 0.0
C142 C 0.34041 0.80218 0.25133 0.0
O143 O 0.33298 0.7381 0.31604 0.0
O144 O 0.27666 0.70837 0.32792 0.0
C145 C 0.25227 0.88506 0.25071 0.0
C146 C 0.2641 0.93864 0.30127 0.0
C147 C 0.29268 0.92821 0.28901 0.0
C148 C 0.28685 0.90156 0.26372 0.0
C149 C 0.22579 0.89982 0.25951 0.0
C150 C 0.23167 0.92651 0.28479 0.0
C151 C 0.24044 0.84704 0.23862 0.0
H152 H 0.38439 0.65153 0.28244 0.0
H153 H 0.37037 0.69273 0.32331 0.0
H154 H 0.25912 0.65044 0.29476 0.0
H155 H 0.27329 0.61043 0.25353 0.0
H156 H 0.3177 0.93695 0.30164 0.0
H157 H 0.30781 0.89064 0.25752 0.0
H158 H 0.19893 0.8874 0.25 0.0
H159 H 0.20922 0.93416 0.29415 0.0
Tb160 Tb 0.31131 0.73632 0.77882 0.0
Eu161 Eu 0.26903 0.79097 0.79948 0.0
C162 C 0.24447 0.72878 0.73636 0.0
C163 C 0.3275 0.80752 0.74242 0.0
C164 C 0.37453 0.68655 0.77778 0.0
C165 C 0.4307 0.67583 0.77734 0.0
C166 C 0.40802 0.68874 0.763 0.0
C167 C 0.36371 0.67095 0.80696 0.0
C168 C 0.38622 0.65772 0.82115 0.0
C169 C 0.42 0.66024 0.80656 0.0
C170 C 0.3519 0.70143 0.76261 0.0
O171 O 0.33702 0.76717 0.82422 0.0
O172 O 0.31644 0.8137 0.83315 0.0
O173 O 0.25322 0.7508 0.83608 0.0
O174 O 0.26966 0.70522 0.81181 0.0
C175 C 0.33805 0.7978 0.84042 0.0
O176 O 0.26243 0.84211 0.81176 0.0
O177 O 0.21588 0.79241 0.81437 0.0
O178 O 0.2435 0.75871 0.75238 0.0
O179 O 0.26674 0.714 0.74468 0.0
O180 O 0.32582 0.77435 0.74213 0.0
O181 O 0.31128 0.82173 0.76485 0.0
C182 C 0.25183 0.71775 0.83429 0.0
O183 O 0.31691 0.68667 0.76763 0.0
O184 O 0.36304 0.73629 0.76462 0.0
C185 C 0.20485 0.84235 0.80084 0.0
C186 C 0.1595 0.86683 0.76976 0.0
C187 C 0.19613 0.87585 0.75971 0.0
C188 C 0.2186 0.86358 0.77502 0.0
C189 C 0.16854 0.83407 0.81143 0.0
C190 C 0.14593 0.84603 0.79588 0.0
C191 C 0.2273 0.82732 0.8162 0.0
H192 H 0.45657 0.67803 0.76564 0.0
H193 H 0.41677 0.70078 0.74048 0.0
H194 H 0.33811 0.66933 0.81894 0.0
H195 H 0.37763 0.64637 0.84398 0.0
H196 H 0.20709 0.89131 0.73924 0.0
H197 H 0.24644 0.87009 0.7662 0.0
H198 H 0.15749 0.8177 0.83134 0.0
H199 H 0.1178 0.83876 0.80403 0.0
Tb200 Tb 0.29514 0.29842 0.7627 0.0
Eu201 Eu 0.30314 0.23837 0.80971 0.0
C202 C 0.35887 0.31843 0.81139 0.0
C203 C 0.34363 0.25224 0.74008 0.0
C204 C 0.25813 0.35004 0.71399 0.0
C205 C 0.24056 0.38014 0.67473 0.0
C206 C 0.2673 0.3728 0.68914 0.0
C207 C 0.22157 0.33439 0.72414 0.0
C208 C 0.19467 0.34179 0.70973 0.0
C209 C 0.20384 0.36495 0.68489 0.0
C210 C 0.28731 0.34332 0.72875 0.0
O211 O 0.25637 0.24704 0.74574 0.0
O212 O 0.24806 0.21237 0.78826 0.0
O213 O 0.28327 0.27745 0.83934 0.0
O214 O 0.25328 0.29018 0.8009 0.0
C215 C 0.23872 0.21805 0.76054 0.0
O216 O 0.30513 0.18633 0.81715 0.0
O217 O 0.30885 0.22513 0.85764 0.0
O218 O 0.35624 0.28489 0.81007 0.0
O219 O 0.3356 0.32801 0.7977 0.0
O220 O 0.33882 0.28282 0.73967 0.0
O221 O 0.32929 0.22996 0.76228 0.0
C222 C 0.26054 0.29126 0.83104 0.0
O223 O 0.28795 0.34711 0.75988 0.0
O224 O 0.29392 0.31508 0.71712 0.0
C225 C 0.339 0.18497 0.86076 0.0
C226 C 0.3926 0.16646 0.88687 0.0
C227 C 0.35643 0.15362 0.89895 0.0
C228 C 0.33 0.16275 0.886 0.0
C229 C 0.37499 0.19816 0.84864 0.0
C230 C 0.40157 0.18898 0.86157 0.0
C231 C 0.31037 0.194 0.84773 0.0
H232 H 0.24871 0.39741 0.65526 0.0
H233 H 0.29532 0.38494 0.68079 0.0
H234 H 0.21387 0.31663 0.74325 0.0
H235 H 0.16679 0.32975 0.71837 0.0
H236 H 0.34856 0.1369 0.91881 0.0
H237 H 0.30242 0.15251 0.89583 0.0
H238 H 0.3825 0.21544 0.82916 0.0
H239 H 0.42902 0.19919 0.8515 0.0
Tb240 Tb 0.82769 0.23728 0.78018 0.0
Eu241 Eu 0.76282 0.26362 0.76966 0.0
C242 C 0.81987 0.30113 0.82397 0.0
C243 C 0.7532 0.20466 0.82256 0.0
C244 C 0.86655 0.1715 0.78508 0.0
C245 C 0.82076 0.11339 0.76995 0.0
C246 C 0.8302 0.14761 0.78575 0.0
C247 C 0.89383 0.15891 0.77338 0.0
C248 C 0.88442 0.12438 0.75814 0.0
C249 C 0.84772 0.10277 0.75401 0.0
C250 C 0.87381 0.20994 0.78658 0.0
O251 O 0.78783 0.1945 0.75153 0.0
O252 O 0.7704 0.23105 0.72533 0.0
O253 O 0.80926 0.30251 0.74118 0.0
O254 O 0.85103 0.27572 0.742 0.0
C255 C 0.77451 0.20061 0.7263 0.0
O256 O 0.70536 0.24906 0.76075 0.0
O257 O 0.74172 0.30481 0.76336 0.0
O258 O 0.78586 0.29126 0.81685 0.0
O259 O 0.84237 0.2889 0.80699 0.0
O260 O 0.7886 0.21247 0.81968 0.0
O261 O 0.73759 0.21788 0.80309 0.0
C262 C 0.84064 0.30026 0.7313 0.0
O263 O 0.86875 0.22025 0.75957 0.0
O264 O 0.8586 0.22284 0.81074 0.0
C265 C 0.68754 0.29218 0.79225 0.0
C266 C 0.68701 0.32813 0.85274 0.0
C267 C 0.68613 0.3446 0.82514 0.0
C268 C 0.6862 0.32659 0.79496 0.0
C269 C 0.68247 0.27382 0.81991 0.0
C270 C 0.68244 0.29179 0.85003 0.0
C271 C 0.70809 0.28256 0.76491 0.0
H272 H 0.79236 0.09732 0.76661 0.0
H273 H 0.80869 0.15688 0.79464 0.0
H274 H 0.92193 0.17702 0.77245 0.0
H275 H 0.90554 0.11668 0.74555 0.0
H276 H 0.6883 0.37231 0.82677 0.0
H277 H 0.69005 0.34119 0.77393 0.0
H278 H 0.68328 0.24718 0.81854 0.0
H279 H 0.68253 0.27827 0.87093 0.0
Tb280 Tb 0.76184 0.7601 0.75908 0.0
Eu281 Eu 0.82703 0.76743 0.80562 0.0
C282 C 0.81355 0.71621 0.7385 0.0
C283 C 0.74848 0.70909 0.81403 0.0
C284 C 0.68407 0.77276 0.72286 0.0
C285 C 0.62904 0.76983 0.69922 0.0
C286 C 0.65387 0.75403 0.70427 0.0
C287 C 0.68805 0.80678 0.73787 0.0
C288 C 0.66341 0.82273 0.73259 0.0
C289 C 0.6342 0.80482 0.71249 0.0
C290 C 0.71327 0.75856 0.72279 0.0
O291 O 0.76382 0.80504 0.79469 0.0
O292 O 0.79132 0.79268 0.83562 0.0
O293 O 0.84461 0.81748 0.77955 0.0
O294 O 0.81348 0.78855 0.73544 0.0
C295 C 0.77114 0.80845 0.82527 0.0
O296 O 0.84593 0.76023 0.85093 0.0
O297 O 0.88485 0.78559 0.81372 0.0
O298 O 0.837 0.73621 0.75986 0.0
O299 O 0.78057 0.71703 0.7385 0.0
O300 O 0.73622 0.72954 0.7998 0.0
O301 O 0.78299 0.71374 0.81199 0.0
C302 C 0.84041 0.81507 0.74868 0.0
O303 O 0.74614 0.78238 0.72296 0.0
O304 O 0.70911 0.7335 0.74162 0.0
C305 C 0.90011 0.7491 0.84572 0.0
C306 C 0.93507 0.70217 0.8562 0.0
C307 C 0.93216 0.72783 0.88061 0.0
C308 C 0.91487 0.75109 0.87537 0.0
C309 C 0.90341 0.72402 0.82106 0.0
C310 C 0.92088 0.70085 0.82622 0.0
C311 C 0.87995 0.77215 0.84132 0.0
H312 H 0.60703 0.75546 0.68338 0.0
H313 H 0.65042 0.72786 0.69236 0.0
H314 H 0.7111 0.82171 0.75245 0.0
H315 H 0.66785 0.84955 0.7434 0.0
H316 H 0.94209 0.72915 0.90419 0.0
H317 H 0.91231 0.77012 0.89472 0.0
H318 H 0.89202 0.72198 0.79799 0.0
H319 H 0.92293 0.68166 0.80684 0.0
C320 C 0.93119 0.03635 0.56087 0.0
C321 C 1.00558 0.06378 0.47652 0.0
C322 C 1.01456 0.94039 0.48066 0.0
Mg323 Mg 1.01542 0.07281 0.54952 0.0
O324 O 1.00955 0.02436 0.54637 0.0
Mg325 Mg 0.97349 0.98904 0.51635 0.0
Mg326 Mg 0.05088 0.00853 0.53402 0.0
O327 O 0.09096 0.99158 0.52111 0.0
Mg328 Mg 0.08084 0.94181 0.51825 0.0
Mg329 Mg 0.12723 0.02497 0.55167 0.0
C330 C 0.08384 0.07604 0.58793 0.0
C331 C 0.11547 0.06943 0.49604 0.0
O332 O 0.93111 0.009 0.54234 0.0
O333 O 0.96022 0.06361 0.56723 0.0
O334 O 0.98695 0.03058 0.47936 0.0
O335 O 1.02135 0.08516 0.50021 0.0
O336 O 0.06153 0.09089 0.58216 0.0
O337 O 0.08278 0.04617 0.57317 0.0
C338 C 0.98779 0.94753 0.57279 0.0
O339 O 1.02183 0.96556 0.56901 0.0
O340 O 0.96454 0.9506 0.55496 0.0
O341 O 0.16768 0.0013 0.52494 0.0
O342 O 0.13472 0.94712 0.50126 0.0
O343 O 0.11082 0.98216 0.58816 0.0
C344 C 0.16517 0.97278 0.5068 0.0
O345 O 0.07342 0.92893 0.56714 0.0
O346 O 0.03457 0.92287 0.48571 0.0
C347 C 0.0902 0.94939 0.59082 0.0
O348 O 1.01887 0.97093 0.49531 0.0
O349 O 0.08108 0.05232 0.4996 0.0
O350 O 0.13811 0.0645 0.51341 0.0
C351 C 0.48255 0.07699 0.12046 0.0
C352 C 0.52159 0.07159 0.01951 0.0
C353 C 0.50823 0.92599 0.02099 0.0
Mg354 Mg 0.55861 0.07783 0.08434 0.0
O355 O 0.54206 0.02734 0.07816 0.0
Mg356 Mg 0.4907 0.00166 0.06547 0.0
Mg357 Mg 0.57062 0.99548 0.05741 0.0
O358 O 0.60059 0.96332 0.04083 0.0
Mg359 Mg 0.58546 0.91297 0.04401 0.0
Mg360 Mg 0.6525 0.99209 0.05429 0.0
C361 C 0.63313 0.06052 0.09557 0.0
C362 C 0.63301 0.04251 1.00206 0.0
O363 O 0.46752 0.04575 0.10408 0.0
O364 O 0.51754 0.09206 0.11831 0.0
O365 O 0.49925 0.04046 0.02613 0.0
O366 O 0.54816 0.08996 0.03742 0.0
O367 O 0.61429 0.08096 0.0968 0.0
O368 O 0.62109 0.02713 0.08541 0.0
C369 C 0.51207 0.95347 0.11257 0.0
O370 O 0.54326 0.96007 0.09829 0.0
O371 O 0.48896 0.96626 0.10484 0.0
O372 O 0.67191 0.95504 0.01525 0.0
O373 O 0.62389 0.90379 1.00603 0.0
O374 O 0.65596 0.95065 0.09601 0.0
C375 C 0.657 0.92402 0.99982 0.0
O376 O 0.60819 0.89994 0.08942 0.0
O377 O 0.52939 0.90891 0.02632 0.0
C378 C 0.63828 0.91795 0.10386 0.0
O379 O 0.51729 0.96049 0.02989 0.0
O380 O 0.60009 0.03305 0.01414 0.0
O381 O 0.65549 0.0308 1.01317 0.0
C382 C 0.96608 0.5554 0.07462 0.0
C383 C 1.01118 0.5569 0.97779 0.0
C384 C 0.99176 0.42323 0.98317 0.0
Mg385 Mg 0.0419 0.56447 0.04367 0.0
O386 O 1.0217 0.51515 0.04771 0.0
Mg387 Mg 0.97484 0.48816 0.02524 0.0
Mg388 Mg 0.05126 0.48721 0.02889 0.0
O389 O 0.08024 0.45955 1.00848 0.0
Mg390 Mg 0.06008 0.40951 1.00372 0.0
Mg391 Mg 0.12547 0.48369 0.03273 0.0
C392 C 0.11076 0.55364 0.06943 0.0
C393 C 0.11772 0.53812 0.9846 0.0
O394 O 0.95142 0.52436 0.05951 0.0
O395 O 0.99987 0.57467 0.07208 0.0
O396 O 0.98748 0.52729 0.98588 0.0
O397 O 0.0371 0.57549 0.9958 0.0
O398 O 0.09418 0.5741 0.06339 0.0
O399 O 0.09739 0.51938 0.06243 0.0
C400 C 0.98622 0.43726 0.07532 0.0
O401 O 1.0199 0.44689 0.06635 0.0
O402 O 0.96479 0.44917 0.06321 0.0
O403 O 0.14974 0.44664 0.99902 0.0
O404 O 0.10366 0.40073 0.97607 0.0
O405 O 0.10543 0.44112 0.07043 0.0
C406 C 0.13759 0.41842 0.97933 0.0
O407 O 0.0591 0.39362 0.05048 0.0
O408 O 1.00867 0.40167 0.98346 0.0
C409 C 0.0804 0.41017 0.07301 0.0
O410 O 1.00491 0.45565 0.99565 0.0
O411 O 0.08391 0.52837 0.9933 0.0
O412 O 0.13892 0.52483 0.99538 0.0
C413 C 0.44938 0.57886 0.06551 0.0
C414 C 0.51194 0.58078 0.97459 0.0
C415 C 0.5008 0.4495 0.99637 0.0
Mg416 Mg 0.53108 0.59841 0.04537 0.0
O417 O 0.51673 0.54903 0.04871 0.0
Mg418 Mg 0.47392 0.5146 0.02463 0.0
Mg419 Mg 0.55034 0.52312 0.03874 0.0
O420 O 0.58301 0.49598 0.02919 0.0
Mg421 Mg 0.56274 0.44786 0.03866 0.0
Mg422 Mg 0.62438 0.52948 0.05496 0.0
C423 C 0.60171 0.59882 0.07679 0.0
C424 C 0.61704 0.56556 0.99086 0.0
O425 O 0.4421 0.54815 0.04965 0.0
O426 O 0.48182 0.60214 0.06755 0.0
O427 O 0.48987 0.54999 0.98201 0.0
O428 O 0.53259 0.60352 0.995 0.0
O429 O 0.58251 0.61655 0.07012 0.0
O430 O 0.5914 0.56473 0.0704 0.0
C431 C 0.484 0.47661 0.08552 0.0
O432 O 0.51839 0.49025 0.08007 0.0
O433 O 0.46171 0.48115 0.06758 0.0
O434 O 0.65406 0.49094 0.0374 0.0
O435 O 0.61061 0.43654 0.02685 0.0
O436 O 0.60342 0.49878 0.10073 0.0
C437 C 0.64401 0.45731 0.02854 0.0
O438 O 0.55603 0.44809 0.08962 0.0
O439 O 0.51688 0.43047 1.00651 0.0
C440 C 0.57761 0.4706 0.10957 0.0
O441 O 0.51009 0.48302 1.00527 0.0
O442 O 0.5829 0.55565 0.99802 0.0
O443 O 0.6388 0.55896 1.00822 0.0
C444 C 0.93293 0.59821 0.56992 0.0
C445 C 0.95191 0.60539 0.46767 0.0
C446 C 0.96133 0.46598 0.47213 0.0
Mg447 Mg 1.00549 0.61168 0.52686 0.0
O448 O 0.99208 0.56121 0.52985 0.0
Mg449 Mg 0.94095 0.53131 0.51571 0.0
Mg450 Mg 1.02307 0.53017 0.5123 0.0
O451 O 0.05226 0.49979 0.49055 0.0
Mg452 Mg 0.03575 0.44918 0.48351 0.0
Mg453 Mg 0.10306 0.52606 0.50444 0.0
C454 C 0.08347 0.59987 0.55012 0.0
C455 C 0.08145 0.57563 0.45911 0.0
O456 O 0.91912 0.56738 0.55385 0.0
O457 O 0.96626 0.61876 0.56506 0.0
O458 O 0.93724 0.57237 0.47541 0.0
O459 O 0.98119 0.62579 0.48221 0.0
O460 O 0.06178 0.61639 0.54474 0.0
O461 O 0.0754 0.5655 0.54101 0.0
C462 C 0.96149 0.47985 0.56584 0.0
O463 O 0.99441 0.49053 0.55386 0.0
O464 O 0.93853 0.49167 0.55578 0.0
O465 O 0.12692 0.48337 0.46486 0.0
O466 O 0.07758 0.43663 0.44948 0.0
O467 O 0.09442 0.48567 0.54236 0.0
C468 C 0.11251 0.45239 0.44789 0.0
O469 O 0.04625 0.43581 0.53008 0.0
O470 O 0.97958 0.44492 0.47054 0.0
C471 C 0.07258 0.4541 0.54829 0.0
O472 O 0.97366 0.49868 0.48395 0.0
O473 O 0.04953 0.56643 0.47228 0.0
O474 O 0.10558 0.56418 0.46696 0.0
C475 C 0.45984 0.11627 0.59674 0.0
C476 C 0.5133 0.11657 0.50386 0.0
C477 C 0.45358 0.97195 0.50089 0.0
Mg478 Mg 0.53178 0.10864 0.57157 0.0
O479 O 0.50238 0.06009 0.56589 0.0
Mg480 Mg 0.45643 0.04598 0.54247 0.0
Mg481 Mg 0.52193 0.02555 0.54188 0.0
O482 O 0.54106 0.99018 0.51977 0.0
Mg483 Mg 0.51048 0.94277 0.52503 0.0
Mg484 Mg 0.58994 0.0061 0.53915 0.0
C485 C 0.59069 0.07679 0.58593 0.0
C486 C 0.58977 0.06666 0.49354 0.0
O487 O 0.443 0.08917 0.57731 0.0
O488 O 0.49414 0.12742 0.60029 0.0
O489 O 0.48367 0.08949 0.50692 0.0
O490 O 0.53681 0.1276 0.5254 0.0
O491 O 0.58022 0.10353 0.58814 0.0
O492 O 0.57138 0.04579 0.5732 0.0
C493 C 0.45166 0.98228 0.58601 0.0
O494 O 0.48421 0.98649 0.57603 0.0
O495 O 0.43504 0.00181 0.57784 0.0
O496 O 0.59909 0.963 0.50122 0.0
O497 O 0.54253 0.92246 0.49223 0.0
O498 O 0.5719 0.96487 0.57722 0.0
C499 C 0.57682 0.93454 0.48645 0.0
O500 O 0.51468 0.92776 0.57179 0.0
O501 O 0.46177 0.94546 0.50726 0.0
C502 C 0.544 0.9392 0.58687 0.0
O503 O 0.47364 0.00466 0.50919 0.0
O504 O 0.55826 0.06384 0.50558 0.0
O505 O 0.60679 0.04797 0.50233 0.0
H506 H 0.26933 0.1936 0.37974 0.0
H507 H 0.18299 0.18261 0.31717 0.0
H508 H 0.1379 0.14673 0.3556 0.0
H509 H 0.22929 0.10351 0.40576 0.0
H510 H 0.24428 0.11731 0.44613 0.0
H511 H 0.27006 0.14214 0.41354 0.0
H512 H 0.26518 0.2003 0.44242 0.0
H513 H 0.23904 0.17555 0.47494 0.0
H514 H 0.22107 0.20162 0.45393 0.0
H515 H 0.1016 0.11266 0.40092 0.0
H516 H 0.07742 0.07872 0.4483 0.0
H517 H 0.18652 0.11164 0.48201 0.0
C518 C 0.24099 0.18339 0.37397 0.0
C519 C 0.22989 0.19106 0.3453 0.0
C520 C 0.19241 0.17718 0.33883 0.0
C521 C 0.16643 0.15682 0.36061 0.0
C522 C 0.1782 0.15027 0.38879 0.0
C523 C 0.21457 0.16277 0.39543 0.0
C524 C 0.21982 0.15137 0.42737 0.0
C525 C 0.24218 0.12714 0.42292 0.0
C526 C 0.23731 0.18417 0.45106 0.0
C527 C 0.18075 0.13057 0.43753 0.0
C528 C 0.15718 0.13048 0.415 0.0
C529 C 0.11981 0.11263 0.41879 0.0
C530 C 0.10623 0.09368 0.44599 0.0
C531 C 0.12982 0.0928 0.46923 0.0
C532 C 0.16759 0.11193 0.46493 0.0
H533 H 0.99276 0.21192 0.38095 0.0
H534 H 0.92302 0.12484 0.31857 0.0
H535 H 0.94888 0.08396 0.33724 0.0
H536 H 0.07106 0.17564 0.38189 0.0
H537 H 0.0769 0.19093 0.4237 0.0
H538 H 0.06393 0.21608 0.39718 0.0
H539 H 1.00794 0.21211 0.43466 0.0
H540 H 1.02046 0.18686 0.46092 0.0
H541 H 0.97612 0.16866 0.44425 0.0
H542 H 0.96785 0.04995 0.37232 0.0
H543 H 0.97771 0.02584 0.4205 0.0
H544 H 0.03385 0.13392 0.46249 0.0
C545 C 0.98398 0.18452 0.37039 0.0
C546 C 0.95586 0.17148 0.34843 0.0
C547 C 0.9449 0.13554 0.33508 0.0
C548 C 0.95952 0.11212 0.34555 0.0
C549 C 0.98537 0.12518 0.36904 0.0
C550 C 0.99801 0.16081 0.38095 0.0
C551 C 1.02023 0.16674 0.41021 0.0
C552 C 0.06042 0.18865 0.40278 0.0
C553 C 1.00525 0.18459 0.43919 0.0
C554 C 1.01472 0.12841 0.41498 0.0
C555 C 0.99597 0.10504 0.39017 0.0
C556 C 0.98344 0.06802 0.39137 0.0
C557 C 0.98895 0.05454 0.41903 0.0
C558 C 1.00635 0.07803 0.44537 0.0
C559 C 1.02075 0.11533 0.44263 0.0
H560 H 0.84166 0.80319 0.38879 0.0
H561 H 0.84753 0.89224 0.3361 0.0
H562 H 0.89843 0.9325 0.36855 0.0
H563 H 0.86768 0.85569 0.46762 0.0
H564 H 0.89377 0.82994 0.47665 0.0
H565 H 0.85463 0.80931 0.4524 0.0
H566 H 0.89453 0.7909 0.40805 0.0
H567 H 0.93406 0.81247 0.43162 0.0
H568 H 0.93404 0.82487 0.39166 0.0
H569 H 0.95155 0.96119 0.40186 0.0
H570 H 1.00201 0.9793 0.43847 0.0
H571 H 0.9636 0.87169 0.4694 0.0
C572 C 0.85282 0.83142 0.38484 0.0
C573 C 0.84048 0.84481 0.36017 0.0
C574 C 0.85646 0.88163 0.35507 0.0
C575 C 0.88541 0.90461 0.37328 0.0
C576 C 0.89796 0.89025 0.39643 0.0
C577 C 0.88197 0.85468 0.40264 0.0
C578 C 0.90231 0.84577 0.42755 0.0
C579 C 0.87816 0.83452 0.45786 0.0
C580 C 0.91709 0.81678 0.41386 0.0
C581 C 0.93273 0.88174 0.43379 0.0
C582 C 0.92937 0.90694 0.41565 0.0
C583 C 0.95422 0.94196 0.41659 0.0
C584 C 0.98275 0.95189 0.43735 0.0
C585 C 0.9864 0.9269 0.45676 0.0
C586 C 0.96146 0.89116 0.45461 0.0
H587 H 0.22564 0.89787 0.34688 0.0
H588 H 0.30023 0.00546 0.33208 0.0
H589 H 0.29358 0.02346 0.39008 0.0
H590 H 0.16514 0.92021 0.39513 0.0
H591 H 0.15388 0.88397 0.42054 0.0
H592 H 0.17073 0.87889 0.38029 0.0
H593 H 0.22324 0.86418 0.40129 0.0
H594 H 0.20515 0.86858 0.44146 0.0
H595 H 0.25174 0.89456 0.43155 0.0
H596 H 0.2692 0.03134 0.44658 0.0
H597 H 0.22798 0.02954 0.49382 0.0
H598 H 0.17253 0.91522 0.47183 0.0
C599 C 0.24112 0.92506 0.35613 0.0
C600 C 0.26309 0.95052 0.33548 0.0
C601 C 0.28313 0.9858 0.34787 0.0
C602 C 0.27977 0.996 0.38069 0.0
C603 C 0.25713 0.97019 0.40051 0.0
C604 C 0.23852 0.93526 0.38858 0.0
C605 C 0.21243 0.91353 0.4133 0.0
C606 C 0.17327 0.89832 0.40162 0.0
C607 C 0.22388 0.88346 0.4224 0.0
C608 C 0.21736 0.94219 0.4406 0.0
C609 C 0.24382 0.97454 0.43321 0.0
C610 C 0.24921 0.00597 0.453 0.0
C611 C 0.22571 0.00466 0.47993 0.0
C612 C 0.19696 0.97218 0.48645 0.0
C613 C 0.19444 0.94035 0.46764 0.0
H614 H 0.17202 0.93226 0.74903 0.0
H615 H 0.09349 0.82341 0.74736 0.0
H616 H 0.05932 0.83687 0.70714 0.0
H617 H 0.10587 0.97639 0.73103 0.0
H618 H 0.14032 0.00688 0.70653 0.0
H619 H 0.15284 0.99164 0.741 0.0
H620 H 0.19723 0.96935 0.70488 0.0
H621 H 0.1846 0.98405 0.67042 0.0
H622 H 0.1803 0.93798 0.67062 0.0
H623 H 0.04268 0.85731 0.65903 0.0
H624 H 0.0428 0.88431 0.60901 0.0
H625 H 0.13128 0.98053 0.64271 0.0
C626 C 0.14689 0.91173 0.74098 0.0
C627 C 0.13523 0.87691 0.75122 0.0
C628 C 0.10251 0.85044 0.74009 0.0
C629 C 0.08296 0.85785 0.71725 0.0
C630 C 0.0962 0.89203 0.70637 0.0
C631 C 0.12705 0.91881 0.71836 0.0
C632 C 0.13838 0.95166 0.69983 0.0
C633 C 0.13408 0.98352 0.72085 0.0
C634 C 0.1774 0.96127 0.68559 0.0
C635 C 0.11078 0.93818 0.67408 0.0
C636 C 0.08618 0.90404 0.6786 0.0
C637 C 0.0611 0.88441 0.65569 0.0
C638 C 0.0616 0.89984 0.62723 0.0
C639 C 0.08701 0.93455 0.62201 0.0
C640 C 0.11113 0.95418 0.64619 0.0
H641 H 0.194 0.22692 0.71935 0.0
H642 H 0.21998 0.14543 0.76008 0.0
H643 H 0.18188 0.09944 0.72045 0.0
H644 H 0.09907 0.16904 0.69943 0.0
H645 H 0.10225 0.19057 0.66327 0.0
H646 H 0.12777 0.21553 0.69734 0.0
H647 H 0.18665 0.23221 0.66159 0.0
H648 H 0.16162 0.20655 0.62759 0.0
H649 H 0.19915 0.19705 0.64026 0.0
H650 H 0.14827 0.06457 0.67163 0.0
H651 H 0.11341 0.04109 0.62277 0.0
H652 H 0.10832 0.14548 0.61495 0.0
C653 C 0.19079 0.1992 0.72052 0.0
C654 C 0.20972 0.18956 0.74276 0.0
C655 C 0.2052 0.15317 0.7435 0.0
C656 C 0.18393 0.127 0.72091 0.0
C657 C 0.16703 0.13776 0.69826 0.0
C658 C 0.16945 0.17284 0.69847 0.0
C659 C 0.14977 0.17783 0.67098 0.0
C660 C 0.11781 0.18888 0.68351 0.0
C661 C 0.17587 0.20501 0.64881 0.0
C662 C 0.13674 0.14025 0.65462 0.0
C663 C 0.14709 0.11757 0.67063 0.0
C664 C 0.13962 0.08198 0.65918 0.0
C665 C 0.1202 0.06901 0.63113 0.0
C666 C 0.10829 0.09149 0.61493 0.0
C667 C 0.11697 0.12764 0.62683 0.0
H668 H 0.84673 0.124 0.69695 0.0
H669 H 0.83233 0.02995 0.74511 0.0
H670 H 0.83255 0.9957 0.6925 0.0
H671 H 0.80388 0.07632 0.61588 0.0
H672 H 0.83926 0.11009 0.59492 0.0
H673 H 0.82183 0.12183 0.63358 0.0
H674 H 0.88712 0.14803 0.65428 0.0
H675 H 0.90454 0.13616 0.61616 0.0
H676 H 0.91353 0.11986 0.65168 0.0
H677 H 0.84898 0.97687 0.63779 0.0
H678 H 0.88928 0.97765 0.59031 0.0
H679 H 0.90227 0.08723 0.57918 0.0
C680 C 0.84169 0.0956 0.69605 0.0
C681 C 0.83872 0.07905 0.72447 0.0
C682 C 0.83378 0.04252 0.72326 0.0
C683 C 0.83368 0.02301 0.6935 0.0
C684 C 0.83896 0.04075 0.66558 0.0
C685 C 0.84301 0.07647 0.66674 0.0
C686 C 0.85792 0.09232 0.63526 0.0
C687 C 0.82899 0.10061 0.61894 0.0
C688 C 0.89284 0.126 0.63965 0.0
C689 C 0.86539 0.0612 0.61724 0.0
C690 C 0.85192 0.03096 0.63422 0.0
C691 C 0.85885 5e-05 0.62399 0.0
C692 C 0.88178 0.00074 0.59694 0.0
C693 C 0.89859 0.03259 0.58128 0.0
C694 C 0.8891 0.06255 0.59064 0.0
H695 H 0.834 0.82359 0.68632 0.0
H696 H 0.91022 0.85987 0.76282 0.0
H697 H 0.95801 0.89494 0.72505 0.0
H698 H 0.89569 0.81345 0.62344 0.0
H699 H 0.8764 0.82943 0.59373 0.0
H700 H 0.84839 0.80755 0.62679 0.0
H701 H 0.8303 0.86281 0.64247 0.0
H702 H 0.85773 0.88456 0.60912 0.0
H703 H 0.86533 0.90656 0.64899 0.0
H704 H 0.9975 0.92575 0.67802 0.0
H705 H 1.02325 0.95395 0.62785 0.0
H706 H 0.92072 0.89597 0.58268 0.0
C707 C 0.86069 0.83901 0.69527 0.0
C708 C 0.86841 0.83897 0.72753 0.0
C709 C 0.90364 0.8597 0.73825 0.0
C710 C 0.93099 0.87946 0.71691 0.0
C711 C 0.92255 0.87827 0.68506 0.0
C712 C 0.88808 0.85888 0.67445 0.0
C713 C 0.88548 0.86255 0.63937 0.0
C714 C 0.87593 0.82607 0.61968 0.0
C715 C 0.8581 0.88018 0.63473 0.0
C716 C 0.9239 0.88713 0.63174 0.0
C717 C 0.94503 0.89574 0.65827 0.0
C718 C 0.98121 0.91896 0.65709 0.0
C719 C 0.99577 0.93449 0.62833 0.0
C720 C 0.97427 0.92663 0.6011 0.0
C721 C 0.93804 0.90219 0.60289 0.0
H722 H 0.32546 0.16498 0.19701 0.0
H723 H 0.40656 0.22785 0.26526 0.0
H724 H 0.44755 0.19846 0.24109 0.0
H725 H 0.34632 0.08164 0.19464 0.0
H726 H 0.34015 0.06983 0.15233 0.0
H727 H 0.31587 0.09533 0.17441 0.0
H728 H 0.34197 0.1446 0.13526 0.0
H729 H 0.36629 0.11923 0.11306 0.0
H730 H 0.3904 0.16483 0.1285 0.0
H731 H 0.48334 0.16241 0.20842 0.0
H732 H 0.50851 0.12465 0.17254 0.0
H733 H 0.40787 0.07992 0.12235 0.0
C734 C 0.35177 0.17269 0.20715 0.0
C735 C 0.36142 0.20001 0.23421 0.0
C736 C 0.39691 0.2079 0.24532 0.0
C737 C 0.42103 0.19095 0.2314 0.0
C738 C 0.41086 0.16478 0.20534 0.0
C739 C 0.37688 0.15546 0.19322 0.0
C740 C 0.37345 0.1261 0.16478 0.0
C741 C 0.34206 0.09114 0.17195 0.0
C742 C 0.36765 0.13947 0.13354 0.0
C743 C 0.41047 0.1205 0.16281 0.0
C744 C 0.4314 0.14352 0.1867 0.0
C745 C 0.46665 0.14442 0.18992 0.0
C746 C 0.48102 0.12226 0.16888 0.0
C747 C 0.46135 0.09767 0.1436 0.0
C748 C 0.42469 0.0972 0.14111 0.0
H749 H 0.8268 0.32162 0.18925 0.0
H750 H 0.90703 0.33639 0.25926 0.0
H751 H 0.95591 0.36664 0.22024 0.0
H752 H 0.87895 0.30556 0.11883 0.0
H753 H 0.86295 0.3301 0.09414 0.0
H754 H 0.83467 0.30785 0.12695 0.0
H755 H 0.8293 0.36777 0.15072 0.0
H756 H 0.85721 0.39004 0.11784 0.0
H757 H 0.86997 0.40653 0.15843 0.0
H758 H 0.99619 0.39666 0.17309 0.0
H759 H 1.0229 0.42876 0.12469 0.0
H760 H 0.91576 0.39453 0.08678 0.0
C761 C 0.85465 0.33104 0.19639 0.0
C762 C 0.86308 0.32657 0.2273 0.0
C763 C 0.89989 0.33964 0.23574 0.0
C764 C 0.92786 0.35662 0.21366 0.0
C765 C 0.91857 0.36045 0.18328 0.0
C766 C 0.88277 0.34828 0.17481 0.0
C767 C 0.87964 0.35738 0.14144 0.0
C768 C 0.86308 0.32318 0.11902 0.0
C769 C 0.85775 0.38189 0.14217 0.0
C770 C 0.91921 0.37706 0.13254 0.0
C771 C 0.94141 0.37812 0.15669 0.0
C772 C 0.979 0.39578 0.15399 0.0
C773 C 0.99403 0.41364 0.12632 0.0
C774 C 0.9715 0.4139 0.10192 0.0
C775 C 0.93373 0.39474 0.10498 0.0
H776 H 0.78134 0.85916 0.20764 0.0
H777 H 0.68542 0.78366 0.25189 0.0
H778 H 0.6471 0.80331 0.22079 0.0
H779 H 0.74369 0.93105 0.20621 0.0
H780 H 0.76491 0.94562 0.1681 0.0
H781 H 0.78558 0.92541 0.19306 0.0
H782 H 0.78552 0.87826 0.14667 0.0
H783 H 0.76483 0.89831 0.12158 0.0
H784 H 0.74358 0.85137 0.12788 0.0
H785 H 0.61597 0.83107 0.18103 0.0
H786 H 0.59829 0.86372 0.14295 0.0
H787 H 0.71162 0.92678 0.12406 0.0
C788 C 0.75224 0.84658 0.2111 0.0
C789 C 0.73765 0.81886 0.23369 0.0
C790 C 0.69885 0.80451 0.236 0.0
C791 C 0.67628 0.81574 0.21784 0.0
C792 C 0.69134 0.84269 0.19636 0.0
C793 C 0.72874 0.85827 0.19315 0.0
C794 C 0.73775 0.88746 0.16875 0.0
C795 C 0.75929 0.9246 0.18498 0.0
C796 C 0.75923 0.87833 0.13948 0.0
C797 C 0.70006 0.88598 0.15868 0.0
C798 C 0.6737 0.85945 0.17486 0.0
C799 C 0.63699 0.85197 0.16888 0.0
C800 C 0.6269 0.87117 0.14667 0.0
C801 C 0.65244 0.8994 0.1295 0.0
C802 C 0.69018 0.90642 0.13637 0.0
H803 H 0.23295 0.72315 0.17234 0.0
H804 H 0.24009 0.65111 0.2389 0.0
H805 H 0.21443 0.59977 0.19909 0.0
H806 H 0.14904 0.6692 0.14489 0.0
H807 H 0.15865 0.68076 0.10403 0.0
H808 H 0.18281 0.7119 0.13583 0.0
H809 H 0.24379 0.71404 0.10761 0.0
H810 H 0.21963 0.68247 0.07581 0.0
H811 H 0.25183 0.67297 0.09766 0.0
H812 H 0.1803 0.55521 0.15441 0.0
H813 H 0.13811 0.52266 0.11124 0.0
H814 H 0.15474 0.62392 0.07377 0.0
C815 C 0.22983 0.6967 0.17837 0.0
C816 C 0.23878 0.69134 0.20881 0.0
C817 C 0.23371 0.65609 0.21574 0.0
C818 C 0.21926 0.62667 0.19317 0.0
C819 C 0.21019 0.63282 0.16354 0.0
C820 C 0.21541 0.66706 0.15612 0.0
C821 C 0.20026 0.66629 0.12399 0.0
C822 C 0.17095 0.683 0.12741 0.0
C823 C 0.2307 0.68506 0.09984 0.0
C824 C 0.18419 0.62625 0.11516 0.0
C825 C 0.19077 0.60727 0.13788 0.0
C826 C 0.17558 0.56981 0.13615 0.0
C827 C 0.15182 0.55146 0.11141 0.0
C828 C 0.14321 0.5707 0.08907 0.0
C829 C 0.16101 0.60839 0.09031 0.0
H830 H 0.37431 0.87006 0.86656 0.0
H831 H 0.35731 0.76017 0.88155 0.0
H832 H 0.39336 0.78141 0.92999 0.0
H833 H 0.46921 0.90667 0.89132 0.0
H834 H 0.46717 0.94818 0.91019 0.0
H835 H 0.43838 0.92484 0.87746 0.0
H836 H 0.38219 0.92403 0.91289 0.0
H837 H 0.41088 0.94711 0.94578 0.0
H838 H 0.37419 0.90491 0.95091 0.0
H839 H 0.42972 0.81377 0.97867 0.0
H840 H 0.47118 0.8541 0.01856 0.0
H841 H 0.47275 0.94609 0.97263 0.0
C842 C 0.37808 0.85041 0.88007 0.0
C843 C 0.36209 0.81285 0.86966 0.0
C844 C 0.36872 0.78872 0.8883 0.0
C845 C 0.38922 0.80068 0.91624 0.0
C846 C 0.40426 0.83741 0.92582 0.0
C847 C 0.3997 0.86214 0.90797 0.0
C848 C 0.42121 0.90031 0.92292 0.0
C849 C 0.45075 0.92125 0.89905 0.0
C850 C 0.39559 0.92028 0.93376 0.0
C851 C 0.43821 0.8931 0.952 0.0
C852 C 0.4273 0.85641 0.95319 0.0
C853 C 0.43855 0.84247 0.97759 0.0
C854 C 0.46228 0.86598 1.00054 0.0
C855 C 0.47595 0.90395 0.99974 0.0
C856 C 0.46286 0.91754 0.97496 0.0
H857 H 0.19615 0.30283 0.83502 0.0
H858 H 0.29711 0.32981 0.88277 0.0
H859 H 0.27829 0.36811 0.92418 0.0
H860 H 0.18668 0.38918 0.85181 0.0
H861 H 0.13829 0.37003 0.85919 0.0
H862 H 0.16049 0.34628 0.83206 0.0
H863 H 0.13326 0.29082 0.865 0.0
H864 H 0.11087 0.31435 0.89213 0.0
H865 H 0.14071 0.29587 0.90732 0.0
H866 H 0.24887 0.40389 0.96039 0.0
H867 H 0.20804 0.42992 0.99168 0.0
H868 H 0.12485 0.37696 0.92243 0.0
C869 C 0.21423 0.31694 0.85416 0.0
C870 C 0.24798 0.31331 0.85578 0.0
C871 C 0.27091 0.33191 0.88129 0.0
C872 C 0.26062 0.35396 0.9048 0.0
C873 C 0.22711 0.35687 0.90271 0.0
C874 C 0.20404 0.33857 0.87829 0.0
C875 C 0.16864 0.34478 0.88278 0.0
C876 C 0.16322 0.3637 0.8548 0.0
C877 C 0.13648 0.30935 0.88707 0.0
C878 C 0.17545 0.36924 0.91352 0.0
C879 C 0.20955 0.37636 0.92436 0.0
C880 C 0.22203 0.39845 0.95221 0.0
C881 C 0.19874 0.41321 0.96977 0.0
C882 C 0.16325 0.40529 0.95963 0.0
C883 C 0.15175 0.38328 0.93096 0.0
H884 H 0.77175 0.16529 0.8665 0.0
H885 H 0.68071 0.18896 0.83904 0.0
H886 H 0.64189 0.15196 0.88052 0.0
H887 H 0.71921 0.07215 0.88293 0.0
H888 H 0.7448 0.07307 0.91684 0.0
H889 H 0.76604 0.10181 0.88523 0.0
H890 H 0.78374 0.15709 0.92653 0.0
H891 H 0.76253 0.12851 0.95825 0.0
H892 H 0.74906 0.16539 0.95255 0.0
H893 H 0.61136 0.11156 0.92682 0.0
H894 H 0.59294 0.07175 0.97094 0.0
H895 H 0.70195 0.0714 0.96974 0.0
C896 C 0.74365 0.16279 0.86913 0.0
C897 C 0.72992 0.18084 0.84871 0.0
C898 C 0.69264 0.17605 0.85366 0.0
C899 C 0.67007 0.15482 0.8775 0.0
C900 C 0.68433 0.13759 0.897 0.0
C901 C 0.72034 0.14121 0.893 0.0
C902 C 0.72858 0.11934 0.91712 0.0
C903 C 0.74037 0.08984 0.89948 0.0
C904 C 0.75772 0.14406 0.93997 0.0
C905 C 0.69182 0.10297 0.93525 0.0
C906 C 0.66671 0.11404 0.92322 0.0
C907 C 0.63103 0.10281 0.93612 0.0
C908 C 0.62067 0.07991 0.9615 0.0
C909 C 0.64545 0.06759 0.97455 0.0
C910 C 0.68179 0.07974 0.9608 0.0
H911 H 0.99384 0.71283 0.89208 0.0
H912 H 0.90994 0.63044 0.83679 0.0
H913 H 0.92967 0.58445 0.85416 0.0
H914 H 0.06254 0.6674 0.88298 0.0
H915 H 0.07608 0.68206 0.92364 0.0
H916 H 0.06132 0.70949 0.90116 0.0
H917 H 1.01263 0.70969 0.94577 0.0
H918 H 0.02728 0.68251 0.96833 0.0
H919 H 0.98045 0.66758 0.958 0.0
H920 H 0.94979 0.54679 0.88519 0.0
H921 H 0.96863 0.52054 0.92771 0.0
H922 H 0.03969 0.62678 0.9633 0.0
C923 C 0.98017 0.6852 0.88302 0.0
C924 C 0.95046 0.67534 0.8629 0.0
C925 C 0.93323 0.63885 0.85166 0.0
C926 C 0.94424 0.61246 0.86145 0.0
C927 C 0.97278 0.62295 0.8822 0.0
C928 C 0.9908 0.65852 0.89262 0.0
C929 C 1.01742 0.66227 0.91797 0.0
C930 C 0.05667 0.68144 0.9057 0.0
C931 C 1.00891 0.68163 0.94936 0.0
C932 C 1.00981 0.62318 0.92167 0.0
C933 C 0.9846 0.60094 0.90027 0.0
C934 C 0.9702 0.56386 0.90152 0.0
C935 C 0.98096 0.5492 0.92585 0.0
C936 C 1.00575 0.57162 0.94871 0.0
C937 C 1.02129 0.60891 0.94578 0.0
H938 H 0.09742 0.25535 0.15655 0.0
H939 H 0.11535 0.32416 0.24522 0.0
H940 H 0.09272 0.3645 0.22127 0.0
H941 H 0.12796 0.31481 0.10661 0.0
H942 H 0.09502 0.29615 0.07602 0.0
H943 H 0.10218 0.26723 0.10207 0.0
H944 H 0.03425 0.24335 0.11997 0.0
H945 H 0.02633 0.27135 0.09299 0.0
H946 H 1.01275 0.27449 0.13476 0.0
H947 H 0.08921 0.40594 0.18261 0.0
H948 H 0.09048 0.43856 0.13548 0.0
H949 H 0.06622 0.33963 0.07452 0.0
C950 C 0.09454 0.27759 0.17175 0.0
C951 C 0.1092 0.28702 0.20246 0.0
C952 C 0.10539 0.3169 0.22121 0.0
C953 C 0.09224 0.33988 0.20792 0.0
C954 C 0.08134 0.33165 0.17641 0.0
C955 C 0.08061 0.30026 0.15907 0.0
C956 C 0.07135 0.2994 0.12467 0.0
C957 C 0.1009 0.29412 0.101 0.0
C958 C 0.03394 0.27043 0.1177 0.0
C959 C 0.07049 0.33652 0.12465 0.0
C960 C 0.07604 0.35474 0.15473 0.0
C961 C 0.08304 0.3915 0.15926 0.0
C962 C 0.08417 0.4099 0.13241 0.0
C963 C 0.07757 0.39128 0.10171 0.0
C964 C 0.06999 0.35412 0.09801 0.0
H965 H 0.24859 0.65072 0.84751 0.0
H966 H 0.2019 0.7317 0.87574 0.0
H967 H 0.16212 0.69371 0.91574 0.0
H968 H 0.16542 0.57351 0.85693 0.0
H969 H 0.18726 0.54735 0.87301 0.0
H970 H 0.21205 0.58044 0.84567 0.0
H971 H 0.2616 0.61115 0.88724 0.0
H972 H 0.237 0.57812 0.91468 0.0
H973 H 0.24883 0.62514 0.92697 0.0
H974 H 0.12839 0.64875 0.95331 0.0
H975 H 0.10309 0.59863 0.98759 0.0
H976 H 0.1696 0.54523 0.93582 0.0
C977 C 0.22995 0.66038 0.86208 0.0
C978 C 0.22851 0.69429 0.85844 0.0
C979 C 0.2038 0.706 0.8781 0.0
C980 C 0.18091 0.68456 0.90089 0.0
C981 C 0.18304 0.65145 0.90393 0.0
C982 C 0.20691 0.63932 0.88526 0.0
C983 C 0.20393 0.6028 0.89416 0.0
C984 C 0.19142 0.57435 0.86574 0.0
C985 C 0.23999 0.60442 0.9065 0.0
C986 C 0.17481 0.59657 0.9208 0.0
C987 C 0.16309 0.62499 0.92579 0.0
C988 C 0.13687 0.62604 0.94932 0.0
C989 C 0.12214 0.59719 0.96831 0.0
C990 C 0.13327 0.56756 0.96351 0.0
C991 C 0.16027 0.56741 0.93965 0.0
H992 H 0.38508 0.10156 0.90791 0.0
H993 H 0.46353 0.20938 0.89893 0.0
H994 H 0.50836 0.19429 0.92596 0.0
H995 H 0.40568 0.09486 0.98572 0.0
H996 H 0.39901 0.04796 0.97971 0.0
H997 H 0.37507 0.06599 0.95611 0.0
H998 H 0.40125 0.04218 0.9042 0.0
H999 H 0.42548 0.02426 0.92776 0.0
H1000 H 0.44966 0.05491 0.89826 0.0
H1001 H 0.54272 0.169 0.95902 0.0
H1002 H 0.56225 0.13668 0.99617 0.0
H1003 H 0.46088 0.04583 0.98366 0.0
C1004 C 0.41175 0.12202 0.91137 0.0
C1005 C 0.42066 0.15671 0.90112 0.0
C1006 C 0.45608 0.18245 0.90602 0.0
C1007 C 0.48176 0.17415 0.92147 0.0
C1008 C 0.47181 0.13987 0.93173 0.0
C1009 C 0.43763 0.11419 0.92675 0.0
C1010 C 0.43268 0.08022 0.94204 0.0
C1011 C 0.40126 0.07179 0.9674 0.0
C1012 C 0.42693 0.04852 0.91654 0.0
C1013 C 0.469 0.09111 0.95725 0.0
C1014 C 0.49144 0.12542 0.95072 0.0
C1015 C 0.52549 0.14196 0.96395 0.0
C1016 C 0.53639 0.12335 0.98505 0.0
C1017 C 0.51324 0.0886 0.99291 0.0
C1018 C 0.47955 0.07211 0.97797 0.0
H1019 H 0.85163 0.28293 0.86915 0.0
H1020 H 0.81842 0.36755 0.84511 0.0
H1021 H 0.8517 0.40685 0.89124 0.0
H1022 H 0.85108 0.30517 0.95928 0.0
H1023 H 0.88999 0.29309 0.96206 0.0
H1024 H 0.8573 0.27015 0.93195 0.0
H1025 H 0.90882 0.2864 0.88799 0.0
H1026 H 0.94148 0.3096 0.91772 0.0
H1027 H 0.93729 0.33279 0.88476 0.0
H1028 H 0.89908 0.43979 0.93256 0.0
H1029 H 0.95273 0.46208 0.96605 0.0
H1030 H 0.95193 0.3541 0.96357 0.0
C1031 C 0.85046 0.30938 0.87434 0.0
C1032 C 0.83286 0.32258 0.85396 0.0
C1033 C 0.83175 0.35718 0.86089 0.0
C1034 C 0.85048 0.3795 0.88697 0.0
C1035 C 0.86909 0.36615 0.906 0.0
C1036 C 0.86842 0.33149 0.9003 0.0
C1037 C 0.89337 0.32436 0.92164 0.0
C1038 C 0.87163 0.29655 0.94513 0.0
C1039 C 0.92191 0.31264 0.90184 0.0
C1040 C 0.91027 0.3611 0.9388 0.0
C1041 C 0.89556 0.38479 0.93007 0.0
C1042 C 0.91001 0.42121 0.94025 0.0
C1043 C 0.94058 0.4337 0.95926 0.0
C1044 C 0.95652 0.40988 0.96754 0.0
C1045 C 0.94031 0.37303 0.9579 0.0
H1046 H 0.72672 0.7894 0.87961 0.0
H1047 H 0.78327 0.87953 0.8235 0.0
H1048 H 0.76194 0.91873 0.86254 0.0
H1049 H 0.64733 0.81368 0.89877 0.0
H1050 H 0.63978 0.79811 0.93829 0.0
H1051 H 0.66099 0.77765 0.90697 0.0
H1052 H 0.71575 0.79131 0.94242 0.0
H1053 H 0.6948 0.81194 0.97382 0.0
H1054 H 0.73978 0.83674 0.95838 0.0
H1055 H 0.73714 0.94912 0.90996 0.0
H1056 H 0.70436 0.96656 0.95706 0.0
H1057 H 0.65729 0.85575 0.97982 0.0
C1058 C 0.73467 0.81745 0.87567 0.0
C1059 C 0.75718 0.83156 0.84862 0.0
C1060 C 0.76631 0.86819 0.84401 0.0
C1061 C 0.75435 0.89067 0.86618 0.0
C1062 C 0.73236 0.87608 0.89266 0.0
C1063 C 0.72194 0.8401 0.89714 0.0
C1064 C 0.69632 0.83079 0.92657 0.0
C1065 C 0.65888 0.80344 0.91708 0.0
C1066 C 0.71265 0.81687 0.95179 0.0
C1067 C 0.69434 0.86719 0.93823 0.0
C1068 C 0.71587 0.89302 0.91856 0.0
C1069 C 0.71989 0.92894 0.9252 0.0
C1070 C 0.70124 0.93867 0.95221 0.0
C1071 C 0.67795 0.91267 0.97225 0.0
C1072 C 0.67452 0.87633 0.96492 0.0
H1073 H 0.93632 0.72387 0.15332 0.0
H1074 H 0.97006 0.69805 0.24055 0.0
H1075 H 0.96088 0.63743 0.21564 0.0
H1076 H 0.87118 0.63641 0.12839 0.0
H1077 H 0.88528 0.63996 0.0867 0.0
H1078 H 0.88927 0.67974 0.11259 0.0
H1079 H 0.95813 0.70803 0.09783 0.0
H1080 H 0.95379 0.66906 0.07098 0.0
H1081 H 0.98654 0.68292 0.10186 0.0
H1082 H 0.9502 0.58072 0.18109 0.0
H1083 H 0.95623 0.5391 0.13556 0.0
H1084 H 0.93578 0.60431 0.0698 0.0
C1085 C 0.94244 0.70596 0.1673 0.0
C1086 C 0.95337 0.71593 0.19928 0.0
C1087 C 0.96062 0.69098 0.21638 0.0
C1088 C 0.95528 0.65634 0.20249 0.0
C1089 C 0.94321 0.64718 0.17136 0.0
C1090 C 0.93809 0.67169 0.15365 0.0
C1091 C 0.93015 0.65702 0.11928 0.0
C1092 C 0.89168 0.65305 0.11129 0.0
C1093 C 0.95887 0.68063 0.09614 0.0
C1094 C 0.93299 0.6208 0.12009 0.0
C1095 C 0.93893 0.61503 0.15071 0.0
C1096 C 0.94509 0.58465 0.15711 0.0
C1097 C 0.94798 0.56092 0.13122 0.0
C1098 C 0.94552 0.56835 0.09957 0.0
C1099 C 0.93626 0.59756 0.09399 0.0
H1100 H 0.37831 0.8731 0.25184 0.0
H1101 H 0.38387 0.77007 0.21725 0.0
H1102 H 0.4402 0.80103 0.18568 0.0
H1103 H 0.39501 0.90738 0.1821 0.0
H1104 H 0.42109 0.95296 0.19628 0.0
H1105 H 0.38864 0.92396 0.22277 0.0
H1106 H 0.43867 0.93551 0.26327 0.0
H1107 H 0.47148 0.96494 0.23682 0.0
H1108 H 0.4795 0.92766 0.25028 0.0
H1109 H 0.48812 0.84251 0.15017 0.0
H1110 H 0.51937 0.8888 0.11242 0.0
H1111 H 0.47893 0.96308 0.169 0.0
C1112 C 0.3919 0.857 0.23833 0.0
C1113 C 0.37681 0.8193 0.2367 0.0
C1114 C 0.39526 0.7991 0.21885 0.0
C1115 C 0.4273 0.81649 0.20102 0.0
C1116 C 0.44053 0.8539 0.20191 0.0
C1117 C 0.4234 0.87384 0.22044 0.0
C1118 C 0.43874 0.91276 0.21361 0.0
C1119 C 0.40912 0.92492 0.20304 0.0
C1120 C 0.45827 0.93662 0.24273 0.0
C1121 C 0.46534 0.9113 0.18652 0.0
C1122 C 0.46722 0.87756 0.18086 0.0
C1123 C 0.48748 0.86917 0.15486 0.0
C1124 C 0.5051 0.89551 0.13358 0.0
C1125 C 0.50128 0.92917 0.13815 0.0
C1126 C 0.48231 0.93749 0.1654 0.0
H1127 H 0.73291 0.14086 0.24924 0.0
H1128 H 0.81575 0.21512 0.19166 0.0
H1129 H 0.7953 0.17355 0.14338 0.0
H1130 H 0.73012 0.05306 0.19503 0.0
H1131 H 0.68184 0.0339 0.20305 0.0
H1132 H 0.71117 0.06238 0.23372 0.0
H1133 H 0.67295 0.10255 0.23939 0.0
H1134 H 0.64414 0.075 0.20856 0.0
H1135 H 0.66715 0.12234 0.20467 0.0
H1136 H 0.75336 0.1374 0.1019 0.0
H1137 H 0.69802 0.10479 0.07121 0.0
H1138 H 0.64454 0.05031 0.15465 0.0
C1139 C 0.74802 0.14696 0.22669 0.0
C1140 C 0.77599 0.18042 0.22376 0.0
C1141 C 0.79474 0.18896 0.1941 0.0
C1142 C 0.78326 0.16551 0.16664 0.0
C1143 C 0.75368 0.13348 0.1697 0.0
C1144 C 0.73713 0.12351 0.19927 0.0
C1145 C 0.70237 0.09106 0.19575 0.0
C1146 C 0.70665 0.05815 0.20758 0.0
C1147 C 0.66979 0.09823 0.21307 0.0
C1148 C 0.69965 0.08711 0.15981 0.0
C1149 C 0.72993 0.11114 0.14502 0.0
C1150 C 0.73033 0.11726 0.11285 0.0
C1151 C 0.69886 0.09897 0.09566 0.0
C1152 C 0.66792 0.07485 0.11078 0.0
C1153 C 0.66869 0.0679 0.14266 0.0
H1154 H 0.7651 0.68138 0.86514 0.0
H1155 H 0.67482 0.67904 0.81183 0.0
H1156 H 0.63194 0.64009 0.85011 0.0
H1157 H 0.72466 0.5891 0.88887 0.0
H1158 H 0.74301 0.60134 0.92819 0.0
H1159 H 0.76684 0.62647 0.89506 0.0
H1160 H 0.76638 0.68499 0.92675 0.0
H1161 H 0.74233 0.66006 0.95987 0.0
H1162 H 0.72381 0.68782 0.94187 0.0
H1163 H 0.59888 0.60353 0.89471 0.0
H1164 H 0.57714 0.57241 0.94375 0.0
H1165 H 0.68841 0.59996 0.97014 0.0
C1166 C 0.73633 0.672 0.86114 0.0
C1167 C 0.72328 0.68291 0.83527 0.0
C1168 C 0.68542 0.67087 0.83136 0.0
C1169 C 0.66085 0.64871 0.85295 0.0
C1170 C 0.67454 0.63896 0.87848 0.0
C1171 C 0.71135 0.65017 0.88275 0.0
C1172 C 0.71869 0.6375 0.91334 0.0
C1173 C 0.73953 0.61209 0.90591 0.0
C1174 C 0.739 0.66951 0.93684 0.0
C1175 C 0.68024 0.61766 0.92566 0.0
C1176 C 0.65529 0.61869 0.90499 0.0
C1177 C 0.61813 0.60265 0.91115 0.0
C1178 C 0.60606 0.58522 0.93926 0.0
C1179 C 0.63097 0.58408 0.96116 0.0
C1180 C 0.66862 0.60038 0.95401 0.0
H1181 H 0.40306 0.59732 0.83385 0.0
H1182 H 0.49189 0.69701 0.81691 0.0
H1183 H 0.53043 0.68122 0.85125 0.0
H1184 H 0.41327 0.59992 0.91262 0.0
H1185 H 0.40231 0.55264 0.91491 0.0
H1186 H 0.38477 0.56761 0.88349 0.0
H1187 H 0.41336 0.53345 0.84099 0.0
H1188 H 0.43101 0.51825 0.87246 0.0
H1189 H 0.46119 0.54201 0.84126 0.0
H1190 H 0.55408 0.6613 0.89576 0.0
H1191 H 0.56165 0.63771 0.94544 0.0
H1192 H 0.45852 0.54953 0.93194 0.0
C1193 C 0.43098 0.61526 0.83669 0.0
C1194 C 0.44464 0.64827 0.82278 0.0
C1195 C 0.48115 0.67134 0.82706 0.0
C1196 C 0.50321 0.66257 0.84648 0.0
C1197 C 0.48851 0.63034 0.86086 0.0
C1198 C 0.45338 0.60673 0.85574 0.0
C1199 C 0.4426 0.57598 0.87683 0.0
C1200 C 0.40877 0.57397 0.89822 0.0
C1201 C 0.43671 0.54031 0.85668 0.0
C1202 C 0.47619 0.58731 0.89618 0.0
C1203 C 0.50266 0.61836 0.88623 0.0
C1204 C 0.53405 0.63644 0.9032 0.0
C1205 C 0.53802 0.62296 0.93148 0.0
C1206 C 0.51081 0.59163 0.94238 0.0
C1207 C 0.48018 0.57306 0.92384 0.0
H1208 H 0.40268 0.30723 0.85344 0.0
H1209 H 0.36961 0.38957 0.82249 0.0
H1210 H 0.40035 0.43081 0.86778 0.0
H1211 H 0.3897 0.32499 0.93585 0.0
H1212 H 0.42891 0.31771 0.94757 0.0
H1213 H 0.40689 0.29494 0.91126 0.0
H1214 H 0.46725 0.32095 0.87833 0.0
H1215 H 0.48973 0.34309 0.91462 0.0
H1216 H 0.49211 0.36871 0.88133 0.0
H1217 H 0.42936 0.46113 0.91867 0.0
H1218 H 0.46362 0.48247 0.96773 0.0
H1219 H 0.47962 0.38148 0.96549 0.0
C1220 C 0.40265 0.33421 0.85566 0.0
C1221 C 0.38363 0.34507 0.83433 0.0
C1222 C 0.38398 0.38054 0.83841 0.0
C1223 C 0.40118 0.40415 0.86421 0.0
C1224 C 0.4182 0.39203 0.88556 0.0
C1225 C 0.41982 0.35824 0.88125 0.0
C1226 C 0.43971 0.35193 0.90798 0.0
C1227 C 0.4148 0.32053 0.92677 0.0
C1228 C 0.47426 0.34583 0.89477 0.0
C1229 C 0.44865 0.38738 0.92811 0.0
C1230 C 0.43567 0.40992 0.91482 0.0
C1231 C 0.44003 0.44389 0.92914 0.0
C1232 C 0.45945 0.45573 0.95718 0.0
C1233 C 0.47466 0.4339 0.9705 0.0
C1234 C 0.46835 0.39889 0.95606 0.0
H1235 H 0.6563 0.31022 0.91166 0.0
H1236 H 0.73977 0.3944 0.86304 0.0
H1237 H 0.75249 0.43254 0.91375 0.0
H1238 H 0.61725 0.35838 0.95241 0.0
H1239 H 0.60727 0.33666 0.98923 0.0
H1240 H 0.61358 0.31246 0.95264 0.0
H1241 H 0.66412 0.29906 0.97795 0.0
H1242 H 0.65817 0.32399 0.01478 0.0
H1243 H 0.70231 0.33548 0.99489 0.0
H1244 H 0.74429 0.46636 0.96295 0.0
H1245 H 0.71161 0.49343 1.00286 0.0
H1246 H 0.63623 0.38764 0.0229 0.0
C1247 C 0.67817 0.33617 0.91211 0.0
C1248 C 0.69666 0.34964 0.88361 0.0
C1249 C 0.72469 0.38394 0.88465 0.0
C1250 C 0.73268 0.40546 0.91348 0.0
C1251 C 0.7129 0.39205 0.94114 0.0
C1252 C 0.68643 0.35792 0.94075 0.0
C1253 C 0.66425 0.3523 0.97186 0.0
C1254 C 0.62323 0.33927 0.96616 0.0
C1255 C 0.67275 0.32617 0.991 0.0
C1256 C 0.67897 0.39001 0.98789 0.0
C1257 C 0.70845 0.41208 0.97068 0.0
C1258 C 0.72208 0.44928 0.97728 0.0
C1259 C 0.70334 0.46452 1.00004 0.0
C1260 C 0.67117 0.44242 0.0154 0.0
C1261 C 0.66085 0.40489 1.0113 0.0
H1262 H 0.57814 0.3344 0.22174 0.0
H1263 H 0.6512 0.42395 0.27967 0.0
H1264 H 0.62947 0.46498 0.25578 0.0
H1265 H 0.59241 0.36718 0.15577 0.0
H1266 H 0.54732 0.35122 0.14075 0.0
H1267 H 0.55749 0.3276 0.16998 0.0
H1268 H 0.50552 0.33438 0.20778 0.0
H1269 H 0.49463 0.35779 0.17825 0.0
H1270 H 0.50379 0.37821 0.21848 0.0
H1271 H 0.61683 0.49659 0.21404 0.0
H1272 H 0.61005 0.51509 0.16162 0.0
H1273 H 0.54118 0.40572 0.13277 0.0
C1274 C 0.58792 0.36227 0.23097 0.0
C1275 C 0.6168 0.37594 0.25221 0.0
C1276 C 0.62958 0.41285 0.26293 0.0
C1277 C 0.61704 0.43638 0.24976 0.0
C1278 C 0.59078 0.42246 0.22672 0.0
C1279 C 0.57527 0.38597 0.21828 0.0
C1280 C 0.55207 0.3783 0.18939 0.0
C1281 C 0.56305 0.35476 0.16242 0.0
C1282 C 0.51161 0.36116 0.19906 0.0
C1283 C 0.56115 0.41605 0.18029 0.0
C1284 C 0.5823 0.44126 0.2028 0.0
C1285 C 0.59914 0.47728 0.19687 0.0
C1286 C 0.59542 0.48753 0.16688 0.0
C1287 C 0.57514 0.46179 0.14314 0.0
C1288 C 0.55638 0.42607 0.15065 0.0
H1289 H 0.71985 0.72955 0.21259 0.0
H1290 H 0.79758 0.67714 0.194 0.0
H1291 H 0.76524 0.64483 0.14481 0.0
H1292 H 0.64452 0.65678 0.19474 0.0
H1293 H 0.62113 0.68034 0.17689 0.0
H1294 H 0.65401 0.70359 0.20653 0.0
H1295 H 0.68986 0.751 0.1672 0.0
H1296 H 0.65681 0.72818 0.13736 0.0
H1297 H 0.70416 0.73675 0.12815 0.0
H1298 H 0.71903 0.61291 0.10226 0.0
H1299 H 0.66481 0.58473 0.07019 0.0
H1300 H 0.61717 0.65763 0.11925 0.0
C1301 C 0.73054 0.71169 0.19793 0.0
C1302 C 0.76087 0.70534 0.20706 0.0
C1303 C 0.77434 0.68223 0.1872 0.0
C1304 C 0.75617 0.66393 0.15933 0.0
C1305 C 0.7253 0.66984 0.15175 0.0
C1306 C 0.71298 0.69359 0.17041 0.0
C1307 C 0.67757 0.69316 0.15932 0.0
C1308 C 0.64756 0.68283 0.18595 0.0
C1309 C 0.68241 0.72942 0.14728 0.0
C1310 C 0.6707 0.66412 0.13219 0.0
C1311 C 0.69873 0.65138 0.12779 0.0
C1312 C 0.69709 0.62283 0.10547 0.0
C1313 C 0.66576 0.60648 0.08774 0.0
C1314 C 0.63627 0.6183 0.0928 0.0
C1315 C 0.63936 0.64814 0.11471 0.0
H1316 H 0.38913 0.66242 0.22627 0.0
H1317 H 0.29503 0.56362 0.23057 0.0
H1318 H 0.31062 0.54384 0.17549 0.0
H1319 H 0.38495 0.67413 0.14302 0.0
H1320 H 0.43354 0.69116 0.13657 0.0
H1321 H 0.41382 0.69823 0.1755 0.0
H1322 H 0.45115 0.66813 0.2014 0.0
H1323 H 0.47164 0.66192 0.16276 0.0
H1324 H 0.44873 0.62395 0.18576 0.0
H1325 H 0.33829 0.5343 0.12094 0.0
H1326 H 0.3794 0.53189 0.07465 0.0
H1327 H 0.45501 0.63749 0.10705 0.0
C1328 C 0.37205 0.63631 0.21596 0.0
C1329 C 0.34109 0.61433 0.23283 0.0
C1330 C 0.31892 0.58083 0.21802 0.0
C1331 C 0.32742 0.56954 0.18674 0.0
C1332 C 0.35791 0.59226 0.17065 0.0
C1333 C 0.38003 0.62476 0.18495 0.0
C1334 C 0.41227 0.64349 0.16344 0.0
C1335 C 0.41105 0.67884 0.15408 0.0
C1336 C 0.44805 0.6497 0.17928 0.0
C1337 C 0.40561 0.61586 0.13508 0.0
C1338 C 0.37375 0.58683 0.13936 0.0
C1339 C 0.36315 0.55698 0.11721 0.0
C1340 C 0.38668 0.55598 0.09087 0.0
C1341 C 0.42062 0.58446 0.08725 0.0
C1342 C 0.42923 0.61539 0.10892 0.0
H1343 H 0.33623 0.32902 0.18673 0.0
H1344 H 0.4035 0.37412 0.26884 0.0
H1345 H 0.44948 0.41705 0.23502 0.0
H1346 H 0.40809 0.33722 0.127 0.0
H1347 H 0.38607 0.34967 0.09691 0.0
H1348 H 0.35928 0.32161 0.12727 0.0
H1349 H 0.32722 0.3666 0.14361 0.0
H1350 H 0.35372 0.39465 0.11317 0.0
H1351 H 0.35416 0.41302 0.15421 0.0
H1352 H 0.48871 0.45423 0.19157 0.0
H1353 H 0.51471 0.48717 0.14358 0.0
H1354 H 0.42011 0.41968 0.09096 0.0
C1355 C 0.36064 0.34798 0.19756 0.0
C1356 C 0.36642 0.3483 0.23032 0.0
C1357 C 0.39848 0.37366 0.2438 0.0
C1358 C 0.42483 0.39794 0.22474 0.0
C1359 C 0.41839 0.39681 0.19243 0.0
C1360 C 0.38682 0.37283 0.17907 0.0
C1361 C 0.3856 0.37824 0.14415 0.0
C1362 C 0.38472 0.34469 0.12257 0.0
C1363 C 0.35326 0.38876 0.13847 0.0
C1364 C 0.42132 0.40913 0.13994 0.0
C1365 C 0.44017 0.41908 0.16789 0.0
C1366 C 0.47409 0.44674 0.16962 0.0
C1367 C 0.48879 0.46509 0.14222 0.0
C1368 C 0.46946 0.45583 0.11364 0.0
C1369 C 0.43538 0.42741 0.11257 0.0
H1370 H 0.88332 0.7222 0.71676 0.0
H1371 H 0.77003 0.65791 0.70131 0.0
H1372 H 0.78819 0.62063 0.65812 0.0
H1373 H 0.91191 0.72235 0.63319 0.0
H1374 H 0.9553 0.72023 0.63979 0.0
H1375 H 0.93364 0.74083 0.67059 0.0
H1376 H 0.93738 0.69808 0.71076 0.0
H1377 H 0.95912 0.67738 0.6801 0.0
H1378 H 0.91834 0.65031 0.70082 0.0
H1379 H 0.81883 0.58954 0.61632 0.0
H1380 H 0.85871 0.56942 0.57785 0.0
H1381 H 0.95278 0.65531 0.61762 0.0
C1382 C 0.86229 0.70005 0.70453 0.0
C1383 C 0.82503 0.69295 0.71293 0.0
C1384 C 0.79862 0.66402 0.69567 0.0
C1385 C 0.80874 0.64259 0.67101 0.0
C1386 C 0.84555 0.6504 0.66326 0.0
C1387 C 0.87195 0.67863 0.67937 0.0
C1388 C 0.90957 0.68212 0.66539 0.0
C1389 C 0.92873 0.71855 0.65141 0.0
C1390 C 0.93246 0.67664 0.69078 0.0
C1391 C 0.90026 0.6514 0.63901 0.0
C1392 C 0.86314 0.6333 0.63844 0.0
C1393 C 0.84791 0.60368 0.61658 0.0
C1394 C 0.87095 0.59234 0.59473 0.0
C1395 C 0.90917 0.61059 0.59428 0.0
C1396 C 0.9238 0.64066 0.61697 0.0
H1397 H 0.33948 0.87809 0.73454 0.0
H1398 H 0.35901 0.7847 0.68893 0.0
H1399 H 0.39035 0.81907 0.64341 0.0
H1400 H 0.32353 0.91026 0.66205 0.0
H1401 H 0.34651 0.95689 0.6751 0.0
H1402 H 0.32468 0.92489 0.70413 0.0
H1403 H 0.38505 0.9443 0.73325 0.0
H1404 H 0.40702 0.97643 0.7044 0.0
H1405 H 0.42522 0.94308 0.71102 0.0
H1406 H 0.41918 0.86252 0.60301 0.0
H1407 H 0.44714 0.91435 0.57082 0.0
H1408 H 0.41096 0.98069 0.64234 0.0
C1409 C 0.35025 0.86481 0.71496 0.0
C1410 C 0.34667 0.82861 0.71535 0.0
C1411 C 0.36134 0.81235 0.68927 0.0
C1412 C 0.37912 0.83161 0.66321 0.0
C1413 C 0.38204 0.8671 0.66354 0.0
C1414 C 0.36821 0.88369 0.68871 0.0
C1415 C 0.37598 0.9225 0.68327 0.0
C1416 C 0.34056 0.929 0.681 0.0
C1417 C 0.39974 0.94808 0.70955 0.0
C1418 C 0.39658 0.92511 0.6512 0.0
C1419 C 0.39948 0.89267 0.64028 0.0
C1420 C 0.41743 0.88814 0.61143 0.0
C1421 C 0.43356 0.91776 0.59353 0.0
C1422 C 0.43197 0.95148 0.60464 0.0
C1423 C 0.41259 0.95511 0.63349 0.0
H1424 H 0.20889 0.4292 0.66391 0.0
H1425 H 0.1347 0.31907 0.66962 0.0
H1426 H 0.0896 0.33178 0.6407 0.0
H1427 H 0.14057 0.47098 0.6712 0.0
H1428 H 0.16469 0.50294 0.6427 0.0
H1429 H 0.18932 0.48621 0.66699 0.0
H1430 H 0.21927 0.46539 0.61584 0.0
H1431 H 0.19493 0.48225 0.59151 0.0
H1432 H 0.19092 0.43606 0.58501 0.0
H1433 H 0.0545 0.35549 0.60654 0.0
H1434 H 0.03414 0.38719 0.56937 0.0
H1435 H 0.13192 0.4813 0.58587 0.0
C1436 C 0.18312 0.40769 0.65928 0.0
C1437 C 0.1755 0.37307 0.66923 0.0
C1438 C 0.14115 0.34596 0.6628 0.0
C1439 C 0.11533 0.3529 0.64624 0.0
C1440 C 0.12403 0.38719 0.63638 0.0
C1441 C 0.15713 0.41414 0.64278 0.0
C1442 C 0.16094 0.44802 0.62785 0.0
C1443 C 0.16405 0.47886 0.65373 0.0
C1444 C 0.19343 0.45852 0.60361 0.0
C1445 C 0.12524 0.4357 0.61132 0.0
C1446 C 0.10405 0.40068 0.61677 0.0
C1447 C 0.07077 0.38304 0.6024 0.0
C1448 C 0.05938 0.4013 0.5813 0.0
C1449 C 0.08128 0.43685 0.57458 0.0
C1450 C 0.11419 0.45433 0.59059 0.0
H1451 H 0.76171 0.21012 0.66654 0.0
H1452 H 0.75215 0.12745 0.72832 0.0
H1453 H 0.71345 0.08154 0.68905 0.0
H1454 H 0.67681 0.18362 0.65127 0.0
H1455 H 0.68148 0.19385 0.61005 0.0
H1456 H 0.71748 0.21761 0.63654 0.0
H1457 H 0.76253 0.19844 0.5984 0.0
H1458 H 0.7265 0.17467 0.57137 0.0
H1459 H 0.75239 0.15163 0.58623 0.0
H1460 H 0.66383 0.04792 0.65065 0.0
H1461 H 0.60932 0.03115 0.61849 0.0
H1462 H 0.6508 0.1365 0.58314 0.0
C1463 C 0.75261 0.18216 0.6712 0.0
C1464 C 0.75951 0.17224 0.70042 0.0
C1465 C 0.74719 0.13553 0.70592 0.0
C1466 C 0.7253 0.1093 0.68366 0.0
C1467 C 0.71677 0.12031 0.65592 0.0
C1468 C 0.73077 0.15597 0.64941 0.0
C1469 C 0.71309 0.16229 0.62127 0.0
C1470 C 0.69621 0.19098 0.63037 0.0
C1471 C 0.74025 0.17234 0.59262 0.0
C1472 C 0.68451 0.12544 0.61485 0.0
C1473 C 0.68783 0.10108 0.63407 0.0
C1474 C 0.66162 0.06649 0.63489 0.0
C1475 C 0.63075 0.05716 0.61659 0.0
C1476 C 0.62614 0.08271 0.59855 0.0
C1477 C 0.654 0.11655 0.59668 0.0
H1478 H 0.79497 0.31504 0.3978 0.0
H1479 H 0.79998 0.39141 0.33084 0.0
H1480 H 0.8326 0.44103 0.37009 0.0
H1481 H 0.8035 0.37697 0.47726 0.0
H1482 H 0.83307 0.35759 0.49154 0.0
H1483 H 0.79595 0.33033 0.46672 0.0
H1484 H 0.84125 0.31274 0.42771 0.0
H1485 H 0.87846 0.34051 0.45152 0.0
H1486 H 0.87882 0.34749 0.40981 0.0
H1487 H 0.8787 0.47969 0.40777 0.0
H1488 H 0.93489 0.50318 0.43778 0.0
H1489 H 0.90784 0.40001 0.47523 0.0
C1490 C 0.80142 0.34232 0.39204 0.0
C1491 C 0.79537 0.34958 0.36134 0.0
C1492 C 0.80415 0.38538 0.3544 0.0
C1493 C 0.8227 0.41369 0.37663 0.0
C1494 C 0.83204 0.40547 0.40543 0.0
C1495 C 0.82126 0.37044 0.41329 0.0
C1496 C 0.84212 0.36738 0.44082 0.0
C1497 C 0.81717 0.3575 0.47087 0.0
C1498 C 0.86129 0.3405 0.43187 0.0
C1499 C 0.86891 0.4054 0.44503 0.0
C1500 C 0.86132 0.42741 0.42581 0.0
C1501 C 0.88435 0.46292 0.42341 0.0
C1502 C 0.91628 0.47592 0.44035 0.0
C1503 C 0.92545 0.45306 0.45843 0.0
C1504 C 0.90114 0.41777 0.46146 0.0
H1505 H 0.61796 0.76711 0.41192 0.0
H1506 H 0.57309 0.77682 0.32383 0.0
H1507 H 0.56651 0.8329 0.34806 0.0
H1508 H 0.56051 0.80056 0.46686 0.0
H1509 H 0.59677 0.82257 0.49402 0.0
H1510 H 0.59537 0.78265 0.46967 0.0
H1511 H 0.6606 0.81734 0.44785 0.0
H1512 H 0.66154 0.85782 0.47108 0.0
H1513 H 0.66971 0.85765 0.4283 0.0
H1514 H 0.56731 0.88882 0.38144 0.0
H1515 H 0.56589 0.93523 0.4244 0.0
H1516 H 0.61111 0.88829 0.48965 0.0
C1517 C 0.6054 0.78004 0.39792 0.0
C1518 C 0.59563 0.76726 0.36599 0.0
C1519 C 0.5806 0.78605 0.34836 0.0
C1520 C 0.57708 0.81802 0.36182 0.0
C1521 C 0.58879 0.83064 0.3928 0.0
C1522 C 0.60189 0.81179 0.41082 0.0
C1523 C 0.6127 0.83086 0.44352 0.0
C1524 C 0.58997 0.8078 0.47008 0.0
C1525 C 0.65356 0.84154 0.44792 0.0
C1526 C 0.60324 0.86341 0.44137 0.0
C1527 C 0.58997 0.86305 0.41174 0.0
C1528 C 0.57793 0.88954 0.40457 0.0
C1529 C 0.57766 0.91597 0.42889 0.0
C1530 C 0.58943 0.91558 0.45973 0.0
C1531 C 0.60336 0.88973 0.46582 0.0
H1532 H 0.21809 0.74298 0.37852 0.0
H1533 H 0.14552 0.71675 0.29979 0.0
H1534 H 0.0982 0.67232 0.3316 0.0
H1535 H 0.2011 0.65788 0.39181 0.0
H1536 H 0.20495 0.66511 0.43467 0.0
H1537 H 0.22887 0.70106 0.41003 0.0
H1538 H 0.19797 0.74145 0.44173 0.0
H1539 H 0.17443 0.70585 0.46712 0.0
H1540 H 0.14922 0.72533 0.44639 0.0
H1541 H 0.06224 0.62513 0.3699 0.0
H1542 H 0.04258 0.57907 0.40932 0.0
H1543 H 0.14315 0.63359 0.45812 0.0
C1544 C 0.19188 0.7288 0.36819 0.0
C1545 C 0.18537 0.73328 0.33674 0.0
C1546 C 0.15087 0.7139 0.32403 0.0
C1547 C 0.12391 0.68864 0.34192 0.0
C1548 C 0.13215 0.68339 0.37227 0.0
C1549 C 0.16538 0.7032 0.38525 0.0
C1550 C 0.17026 0.68929 0.41579 0.0
C1551 C 0.20322 0.67764 0.41286 0.0
C1552 C 0.17312 0.71713 0.44445 0.0
C1553 C 0.13516 0.65758 0.4175 0.0
C1554 C 0.11292 0.65504 0.39285 0.0
C1555 C 0.07937 0.62705 0.38937 0.0
C1556 C 0.06854 0.60102 0.41162 0.0
C1557 C 0.09184 0.60281 0.4361 0.0
C1558 C 0.12524 0.63152 0.43918 0.0
H1559 H 0.43737 0.18518 0.3716 0.0
H1560 H 0.52489 0.28707 0.3919 0.0
H1561 H 0.55856 0.25621 0.41586 0.0
H1562 H 0.43131 0.15758 0.44175 0.0
H1563 H 0.42101 0.11049 0.43079 0.0
H1564 H 0.41046 0.13692 0.40437 0.0
H1565 H 0.44878 0.11838 0.35839 0.0
H1566 H 0.45916 0.0913 0.38474 0.0
H1567 H 0.49533 0.12511 0.36452 0.0
H1568 H 0.57409 0.21876 0.45016 0.0
H1569 H 0.56976 0.17903 0.49202 0.0
H1570 H 0.47051 0.10139 0.45234 0.0
C1571 C 0.46426 0.20073 0.38005 0.0
C1572 C 0.47852 0.2384 0.38011 0.0
C1573 C 0.51368 0.25809 0.3913 0.0
C1574 C 0.53302 0.24072 0.4049 0.0
C1575 C 0.51693 0.20372 0.40674 0.0
C1576 C 0.48346 0.18382 0.39414 0.0
C1577 C 0.46857 0.14618 0.40477 0.0
C1578 C 0.43065 0.13735 0.42143 0.0
C1579 C 0.46794 0.11862 0.37641 0.0
C1580 C 0.49695 0.14919 0.42799 0.0
C1581 C 0.52545 0.18196 0.42769 0.0
C1582 C 0.55244 0.19269 0.45002 0.0
C1583 C 0.54954 0.17003 0.47393 0.0
C1584 C 0.51949 0.13728 0.47563 0.0
C1585 C 0.49382 0.1262 0.45156 0.0
H1586 H 0.65754 0.87248 0.69312 0.0
H1587 H 0.56015 0.77914 0.70753 0.0
H1588 H 0.52414 0.80798 0.68362 0.0
H1589 H 0.61433 0.94142 0.70618 0.0
H1590 H 0.64288 0.96691 0.67504 0.0
H1591 H 0.65961 0.94167 0.69829 0.0
H1592 H 0.67429 0.90845 0.64609 0.0
H1593 H 0.65757 0.93343 0.62278 0.0
H1594 H 0.63885 0.88511 0.61841 0.0
H1595 H 0.50041 0.84362 0.65181 0.0
H1596 H 0.49152 0.88172 0.61353 0.0
H1597 H 0.60467 0.95175 0.62024 0.0
C1598 C 0.62843 0.85867 0.69236 0.0
C1599 C 0.61155 0.82376 0.70254 0.0
C1600 C 0.57358 0.80596 0.69997 0.0
C1601 C 0.55291 0.82222 0.6866 0.0
C1602 C 0.57058 0.85634 0.67604 0.0
C1603 C 0.60751 0.87443 0.67894 0.0
C1604 C 0.62075 0.90895 0.66255 0.0
C1605 C 0.63524 0.94168 0.68698 0.0
C1606 C 0.64954 0.90895 0.63588 0.0
C1607 C 0.5858 0.90685 0.64893 0.0
C1608 C 0.55701 0.87667 0.6574 0.0
C1609 C 0.52264 0.86763 0.64547 0.0
C1610 C 0.51784 0.88947 0.6237 0.0
C1611 C 0.54734 0.91984 0.61386 0.0
C1612 C 0.58141 0.92902 0.62748 0.0
H1613 H 0.74743 0.18166 0.37438 0.0
H1614 H 0.66463 0.20674 0.33173 0.0
H1615 H 0.61836 0.16988 0.36896 0.0
H1616 H 0.69145 0.08961 0.38964 0.0
H1617 H 0.71096 0.09214 0.42759 0.0
H1618 H 0.7376 0.11923 0.39657 0.0
H1619 H 0.74997 0.17631 0.43563 0.0
H1620 H 0.72318 0.14942 0.4667 0.0
H1621 H 0.71228 0.1859 0.45516 0.0
H1622 H 0.58083 0.1304 0.41027 0.0
H1623 H 0.55462 0.09114 0.45407 0.0
H1624 H 0.6615 0.09413 0.47273 0.0
C1625 C 0.71948 0.17893 0.37264 0.0
C1626 C 0.70962 0.19694 0.35005 0.0
C1627 C 0.67285 0.19325 0.34886 0.0
C1628 C 0.64631 0.17232 0.36987 0.0
C1629 C 0.65692 0.15537 0.39216 0.0
C1630 C 0.69256 0.15841 0.3938 0.0
C1631 C 0.69666 0.13828 0.42086 0.0
C1632 C 0.70995 0.10802 0.40788 0.0
C1633 C 0.72203 0.16402 0.44608 0.0
C1634 C 0.65779 0.12344 0.43398 0.0
C1635 C 0.63535 0.13357 0.41695 0.0
C1636 C 0.59822 0.12268 0.42407 0.0
C1637 C 0.58361 0.10084 0.44931 0.0
C1638 C 0.60605 0.09056 0.46753 0.0
C1639 C 0.64365 0.1019 0.45952 0.0
H1640 H 0.90172 0.74325 0.35345 0.0
H1641 H 0.79544 0.65906 0.34507 0.0
H1642 H 0.81474 0.62193 0.37687 0.0
H1643 H 0.95371 0.68192 0.35093 0.0
H1644 H 0.98576 0.70923 0.38016 0.0
H1645 H 0.96484 0.72971 0.35569 0.0
H1646 H 0.94347 0.75801 0.40626 0.0
H1647 H 0.96245 0.73681 0.43169 0.0
H1648 H 0.91498 0.7302 0.43614 0.0
H1649 H 0.84626 0.59035 0.41075 0.0
H1650 H 0.88322 0.57125 0.44369 0.0
H1651 H 0.97118 0.67396 0.43642 0.0
C1652 C 0.8823 0.71691 0.35798 0.0
C1653 C 0.84602 0.70515 0.34521 0.0
C1654 C 0.82289 0.67009 0.3533 0.0
C1655 C 0.8339 0.64823 0.37182 0.0
C1656 C 0.86902 0.66041 0.38378 0.0
C1657 C 0.89302 0.69424 0.37729 0.0
C1658 C 0.92911 0.70058 0.39397 0.0
C1659 C 0.96023 0.7057 0.36869 0.0
C1660 C 0.93802 0.73336 0.41851 0.0
C1661 C 0.92161 0.66567 0.41104 0.0
C1662 C 0.88667 0.64277 0.40416 0.0
C1663 C 0.87345 0.60867 0.41608 0.0
C1664 C 0.89529 0.59773 0.43519 0.0
C1665 C 0.93135 0.61998 0.44404 0.0
C1666 C 0.94421 0.65512 0.43109 0.0
H1667 H 0.3758 0.85376 0.34477 0.0
H1668 H 0.27869 0.87861 0.36082 0.0
H1669 H 0.30883 0.92552 0.40388 0.0
H1670 H 0.39572 0.85774 0.42281 0.0
H1671 H 0.44424 0.87765 0.41653 0.0
H1672 H 0.41669 0.85084 0.38441 0.0
H1673 H 0.44367 0.90374 0.34834 0.0
H1674 H 0.47142 0.93077 0.3805 0.0
H1675 H 0.44146 0.94676 0.36216 0.0
H1676 H 0.3474 0.96234 0.45211 0.0
H1677 H 0.39102 0.98663 0.49623 0.0
H1678 H 0.46165 0.93772 0.44502 0.0
C1679 C 0.3609 0.86929 0.35708 0.0
C1680 C 0.32483 0.86243 0.34979 0.0
C1681 C 0.30643 0.88362 0.36614 0.0
C1682 C 0.32327 0.91013 0.39065 0.0
C1683 C 0.35861 0.91529 0.39809 0.0
C1684 C 0.3773 0.89576 0.38119 0.0
C1685 C 0.41408 0.90442 0.39438 0.0
C1686 C 0.41786 0.87067 0.40518 0.0
C1687 C 0.44445 0.92251 0.36988 0.0
C1688 C 0.41263 0.93046 0.42249 0.0
C1689 C 0.3808 0.93703 0.42435 0.0
C1690 C 0.37272 0.95794 0.45041 0.0
C1691 C 0.39752 0.97168 0.47532 0.0
C1692 C 0.42949 0.96395 0.47382 0.0
C1693 C 0.43736 0.94409 0.44663 0.0
H1694 H 0.26545 0.35842 0.37704 0.0
H1695 H 0.19608 0.31293 0.29643 0.0
H1696 H 0.1554 0.34356 0.31925 0.0
H1697 H 0.19205 0.35398 0.43816 0.0
H1698 H 0.21647 0.39621 0.4599 0.0
H1699 H 0.24091 0.37094 0.43772 0.0
H1700 H 0.27735 0.42568 0.40653 0.0
H1701 H 0.25298 0.4511 0.42858 0.0
H1702 H 0.25359 0.44639 0.38544 0.0
H1703 H 0.11849 0.37896 0.3525 0.0
H1704 H 0.09195 0.41465 0.38983 0.0
H1705 H 0.18302 0.44263 0.45115 0.0
C1706 C 0.24177 0.35479 0.36393 0.0
C1707 C 0.23527 0.33215 0.33381 0.0
C1708 C 0.2032 0.32938 0.31876 0.0
C1709 C 0.17934 0.34702 0.33192 0.0
C1710 C 0.18653 0.36872 0.36105 0.0
C1711 C 0.21723 0.37289 0.37692 0.0
C1712 C 0.21831 0.39828 0.40794 0.0
C1713 C 0.21687 0.37869 0.43771 0.0
C1714 C 0.25262 0.43239 0.40709 0.0
C1715 C 0.18366 0.40761 0.40717 0.0
C1716 C 0.16583 0.38983 0.37972 0.0
C1717 C 0.13288 0.39295 0.37372 0.0
C1718 C 0.11772 0.41385 0.39555 0.0
C1719 C 0.13452 0.43325 0.42425 0.0
C1720 C 0.16877 0.42964 0.42962 0.0
H1721 H 0.39314 0.22119 0.74409 0.0
H1722 H 0.33794 0.2549 0.67633 0.0
H1723 H 0.36215 0.22376 0.63176 0.0
H1724 H 0.4753 0.23103 0.69144 0.0
H1725 H 0.48055 0.1929 0.70608 0.0
H1726 H 0.46074 0.2199 0.73192 0.0
H1727 H 0.4042 0.16303 0.74189 0.0
H1728 H 0.4234 0.13594 0.71559 0.0
H1729 H 0.37931 0.13588 0.70826 0.0
H1730 H 0.38497 0.18147 0.59609 0.0
H1731 H 0.41469 0.14095 0.57005 0.0
H1732 H 0.46017 0.13998 0.66028 0.0
C1733 C 0.38701 0.22277 0.71975 0.0
C1734 C 0.36393 0.2405 0.71343 0.0
C1735 C 0.35608 0.24187 0.68145 0.0
C1736 C 0.36942 0.224 0.65611 0.0
C1737 C 0.39121 0.20572 0.66322 0.0
C1738 C 0.40088 0.20594 0.69417 0.0
C1739 C 0.42472 0.18432 0.69541 0.0
C1740 C 0.46258 0.20848 0.70688 0.0
C1741 C 0.40682 0.15294 0.71654 0.0
C1742 C 0.42617 0.17106 0.66045 0.0
C1743 C 0.40621 0.18327 0.64236 0.0
C1744 C 0.40129 0.17239 0.60988 0.0
C1745 C 0.41793 0.14915 0.59538 0.0
C1746 C 0.43973 0.13766 0.61322 0.0
C1747 C 0.44388 0.14876 0.64613 0.0
H1748 H 0.82547 0.34933 0.69682 0.0
H1749 H 0.91106 0.31026 0.70922 0.0
H1750 H 0.95027 0.35109 0.67005 0.0
H1751 H 0.84222 0.35785 0.611 0.0
H1752 H 0.83223 0.398 0.61184 0.0
H1753 H 0.81105 0.36626 0.64123 0.0
H1754 H 0.83553 0.41646 0.68662 0.0
H1755 H 0.85682 0.44834 0.65736 0.0
H1756 H 0.8835 0.44246 0.68755 0.0
H1757 H 0.98171 0.3982 0.62839 0.0
H1758 H 1.00032 0.4436 0.58892 0.0
H1759 H 0.8946 0.45228 0.6012 0.0
C1760 C 0.8525 0.34929 0.69147 0.0
C1761 C 0.8647 0.32595 0.70689 0.0
C1762 C 0.90046 0.32732 0.69837 0.0
C1763 C 0.92317 0.35071 0.67591 0.0
C1764 C 0.91032 0.37316 0.66131 0.0
C1765 C 0.87562 0.37249 0.66872 0.0
C1766 C 0.86819 0.39896 0.64918 0.0
C1767 C 0.83654 0.37908 0.627 0.0
C1768 C 0.86055 0.42829 0.67151 0.0
C1769 C 0.90398 0.41476 0.62972 0.0
C1770 C 0.92799 0.39954 0.63721 0.0
C1771 C 0.96282 0.41 0.62255 0.0
C1772 C 0.97331 0.43616 0.59991 0.0
C1773 C 0.9494 0.4523 0.59124 0.0
C1774 C 0.91402 0.44099 0.60678 0.0
H1775 H 0.2101 0.65631 0.70947 0.0
H1776 H 0.2272 0.76603 0.69369 0.0
H1777 H 0.19369 0.7447 0.64388 0.0
H1778 H 0.21445 0.62193 0.62522 0.0
H1779 H 0.17777 0.5795 0.62935 0.0
H1780 H 0.20479 0.60262 0.6632 0.0
H1781 H 0.14699 0.60111 0.69642 0.0
H1782 H 0.11986 0.57771 0.66272 0.0
H1783 H 0.11672 0.61898 0.68107 0.0
H1784 H 0.15967 0.71233 0.59407 0.0
H1785 H 0.12008 0.67186 0.55298 0.0
H1786 H 0.11705 0.58003 0.6 0.0
C1787 C 0.2069 0.6759 0.69549 0.0
C1788 C 0.22211 0.71344 0.70614 0.0
C1789 C 0.2163 0.73749 0.68682 0.0
C1790 C 0.19727 0.72549 0.65808 0.0
C1791 C 0.18289 0.68878 0.64831 0.0
C1792 C 0.18673 0.66411 0.66672 0.0
C1793 C 0.16612 0.62594 0.65129 0.0
C1794 C 0.19235 0.60633 0.64171 0.0
C1795 C 0.13561 0.60467 0.67425 0.0
C1796 C 0.15044 0.63308 0.62137 0.0
C1797 C 0.16122 0.66975 0.62018 0.0
C1798 C 0.15096 0.68364 0.59513 0.0
C1799 C 0.12832 0.66007 0.5715 0.0
C1800 C 0.11484 0.6221 0.57222 0.0
C1801 C 0.12693 0.60859 0.5977 0.0
loop_
_geom_bond_atom_site_label_1
_geom_bond_atom_site_label_2
_geom_bond_distance
_geom_bond_site_symmetry_2
_ccdc_geom_bond_type
Tb0 C10 2.825 . S
Tb0 O11 2.347 . S
Tb0 O14 2.366 . S
Tb0 O19 2.418 . S
Tb0 O20 2.384 . S
Tb0 O23 2.479 . S
Tb0 O24 2.471 . S
Eu1 O12 2.418 . S
Eu1 O13 2.384 . S
Eu1 O16 2.479 . S
Eu1 O17 2.471 . S
Eu1 O18 2.347 . S
Eu1 O21 2.366 . S
Eu1 C31 2.825 . S
C2 O18 1.259 . S
C2 O19 1.265 . S
C3 O20 1.255 . S
C3 O21 1.265 . S
C4 C6 1.380 . S
C4 C7 1.374 . S
C4 C10 1.507 . S
C5 C6 1.384 . S
C5 C9 1.387 . S
C5 H32 0.930 . S
C6 C4 1.380 . S
C6 C5 1.384 . S
C6 H33 0.931 . S
C7 C4 1.374 . S
C7 C8 1.390 . S
C7 H34 0.930 . S
C8 C7 1.390 . S
C8 C9 1.391 . S
C8 H35 0.930 . S
C9 C5 1.387 . S
C9 C8 1.391 . S
C10 Tb0 2.825 . S
C10 C4 1.507 . S
C10 O23 1.238 . S
C10 O24 1.247 . S
O11 Tb0 2.347 . S
O11 C15 1.259 . S
O12 Eu1 2.418 . S
O12 C15 1.265 . S
O13 Eu1 2.384 . S
O13 C22 1.255 . S
O14 Tb0 2.366 . S
O14 C22 1.265 . S
C15 O11 1.259 . S
C15 O12 1.265 . S
O16 Eu1 2.479 . S
O16 C31 1.238 . S
O17 Eu1 2.471 . S
O17 C31 1.247 . S
O18 Eu1 2.347 . S
O18 C2 1.259 . S
O19 Tb0 2.418 . S
O19 C2 1.265 . S
O20 Tb0 2.384 . S
O20 C3 1.255 . S
O21 Eu1 2.366 . S
O21 C3 1.265 . S
C22 O13 1.255 . S
C22 O14 1.265 . S
O23 Tb0 2.479 . S
O23 C10 1.238 . S
O24 Tb0 2.471 . S
O24 C10 1.247 . S
C25 C28 1.380 . S
C25 C29 1.374 . S
C25 C31 1.507 . S
C26 C27 1.387 . S
C26 C30 1.391 . S
C27 C26 1.387 . S
C27 C28 1.384 . S
C27 H36 0.930 . S
C28 C25 1.380 . S
C28 C27 1.384 . S
C28 H37 0.931 . S
C29 C25 1.374 . S
C29 C30 1.390 . S
C29 H38 0.930 . S
C30 C26 1.391 . S
C30 C29 1.390 . S
C30 H39 0.930 . S
C31 Eu1 2.825 . S
C31 O16 1.238 . S
C31 O17 1.247 . S
C31 C25 1.507 . S
H32 C5 0.930 . S
H33 C6 0.931 . S
H34 C7 0.930 . S
H35 C8 0.930 . S
H36 C27 0.930 . S
H37 C28 0.931 . S
H38 C29 0.930 . S
H39 C30 0.930 . S
Tb40 C50 2.825 . S
Tb40 O51 2.347 . S
Tb40 O54 2.366 . S
Tb40 O59 2.418 . S
Tb40 O60 2.384 . S
Tb40 O63 2.479 . S
Tb40 O64 2.471 . S
Eu41 O52 2.418 . S
Eu41 O53 2.384 . S
Eu41 O56 2.479 . S
Eu41 O57 2.471 . S
Eu41 O58 2.347 . S
Eu41 O61 2.366 . S
Eu41 C71 2.825 . S
C42 O58 1.259 . S
C42 O59 1.265 . S
C43 O60 1.255 . S
C43 O61 1.265 . S
C44 C46 1.380 . S
C44 C47 1.374 . S
C44 C50 1.507 . S
C45 C46 1.384 . S
C45 C49 1.387 . S
C45 H72 0.930 . S
C46 C44 1.380 . S
C46 C45 1.384 . S
C46 H73 0.931 . S
C47 C44 1.374 . S
C47 C48 1.390 . S
C47 H74 0.930 . S
C48 C47 1.390 . S
C48 C49 1.391 . S
C48 H75 0.930 . S
C49 C45 1.387 . S
C49 C48 1.391 . S
C50 Tb40 2.825 . S
C50 C44 1.507 . S
C50 O63 1.238 . S
C50 O64 1.247 . S
O51 Tb40 2.347 . S
O51 C55 1.259 . S
O52 Eu41 2.418 . S
O52 C55 1.265 . S
O53 Eu41 2.384 . S
O53 C62 1.255 . S
O54 Tb40 2.366 . S
O54 C62 1.265 . S
C55 O51 1.259 . S
C55 O52 1.265 . S
O56 Eu41 2.479 . S
O56 C71 1.238 . S
O57 Eu41 2.471 . S
O57 C71 1.247 . S
O58 Eu41 2.347 . S
O58 C42 1.259 . S
O59 Tb40 2.418 . S
O59 C42 1.265 . S
O60 Tb40 2.384 . S
O60 C43 1.255 . S
O61 Eu41 2.366 . S
O61 C43 1.265 . S
C62 O53 1.255 . S
C62 O54 1.265 . S
O63 Tb40 2.479 . S
O63 C50 1.238 . S
O64 Tb40 2.471 . S
O64 C50 1.247 . S
C65 C68 1.380 . S
C65 C69 1.374 . S
C65 C71 1.507 . S
C66 C67 1.387 . S
C66 C70 1.391 . S
C67 C66 1.387 . S
C67 C68 1.384 . S
C67 H76 0.930 . S
C68 C65 1.380 . S
C68 C67 1.384 . S
C68 H77 0.931 . S
C69 C65 1.374 . S
C69 C70 1.390 . S
C69 H78 0.930 . S
C70 C66 1.391 . S
C70 C69 1.390 . S
C70 H79 0.930 . S
C71 Eu41 2.825 . S
C71 O56 1.238 . S
C71 O57 1.247 . S
C71 C65 1.507 . S
H72 C45 0.930 . S
H73 C46 0.931 . S
H74 C47 0.930 . S
H75 C48 0.930 . S
H76 C67 0.930 . S
H77 C68 0.931 . S
H78 C69 0.930 . S
H79 C70 0.930 . S
Tb80 C90 2.825 . S
Tb80 O91 2.347 . S
Tb80 O94 2.366 . S
Tb80 O99 2.418 . S
Tb80 O100 2.384 . S
Tb80 O103 2.479 . S
Tb80 O104 2.471 . S
Eu81 O92 2.418 . S
Eu81 O93 2.384 . S
Eu81 O96 2.479 . S
Eu81 O97 2.471 . S
Eu81 O98 2.347 . S
Eu81 O101 2.366 . S
Eu81 C111 2.825 . S
C82 O98 1.259 . S
C82 O99 1.265 . S
C83 O100 1.255 . S
C83 O101 1.265 . S
C84 C86 1.380 . S
C84 C87 1.374 . S
C84 C90 1.507 . S
C85 C86 1.384 . S
C85 C89 1.387 . S
C85 H112 0.930 . S
C86 C84 1.380 . S
C86 C85 1.384 . S
C86 H113 0.931 . S
C87 C84 1.374 . S
C87 C88 1.390 . S
C87 H114 0.930 . S
C88 C87 1.390 . S
C88 C89 1.391 . S
C88 H115 0.930 . S
C89 C85 1.387 . S
C89 C88 1.391 . S
C90 Tb80 2.825 . S
C90 C84 1.507 . S
C90 O103 1.238 . S
C90 O104 1.247 . S
O91 Tb80 2.347 . S
O91 C95 1.259 . S
O92 Eu81 2.418 . S
O92 C95 1.265 . S
O93 Eu81 2.384 . S
O93 C102 1.255 . S
O94 Tb80 2.366 . S
O94 C102 1.265 . S
C95 O91 1.259 . S
C95 O92 1.265 . S
O96 Eu81 2.479 . S
O96 C111 1.238 . S
O97 Eu81 2.471 . S
O97 C111 1.247 . S
O98 Eu81 2.347 . S
O98 C82 1.259 . S
O99 Tb80 2.418 . S
O99 C82 1.265 . S
O100 Tb80 2.384 . S
O100 C83 1.255 . S
O101 Eu81 2.366 . S
O101 C83 1.265 . S
C102 O93 1.255 . S
C102 O94 1.265 . S
O103 Tb80 2.479 . S
O103 C90 1.238 . S
O104 Tb80 2.471 . S
O104 C90 1.247 . S
C105 C108 1.380 . S
C105 C109 1.374 . S
C105 C111 1.507 . S
C106 C107 1.387 . S
C106 C110 1.391 . S
C107 C106 1.387 . S
C107 C108 1.384 . S
C107 H116 0.930 . S
C108 C105 1.380 . S
C108 C107 1.384 . S
C108 H117 0.931 . S
C109 C105 1.374 . S
C109 C110 1.390 . S
C109 H118 0.930 . S
C110 C106 1.391 . S
C110 C109 1.390 . S
C110 H119 0.930 . S
C111 Eu81 2.825 . S
C111 O96 1.238 . S
C111 O97 1.247 . S
C111 C105 1.507 . S
H112 C85 0.930 . S
H113 C86 0.931 . S
H114 C87 0.930 . S
H115 C88 0.930 . S
H116 C107 0.930 . S
H117 C108 0.931 . S
H118 C109 0.930 . S
H119 C110 0.930 . S
Tb120 C130 2.825 . S
Tb120 O131 2.347 . S
Tb120 O134 2.366 . S
Tb120 O139 2.418 . S
Tb120 O140 2.384 . S
Tb120 O143 2.479 . S
Tb120 O144 2.471 . S
Eu121 O132 2.418 . S
Eu121 O133 2.384 . S
Eu121 O136 2.479 . S
Eu121 O137 2.471 . S
Eu121 O138 2.347 . S
Eu121 O141 2.366 . S
Eu121 C151 2.825 . S
C122 O138 1.259 . S
C122 O139 1.265 . S
C123 O140 1.255 . S
C123 O141 1.265 . S
C124 C126 1.380 . S
C124 C127 1.374 . S
C124 C130 1.507 . S
C125 C126 1.384 . S
C125 C129 1.387 . S
C125 H152 0.930 . S
C126 C124 1.380 . S
C126 C125 1.384 . S
C126 H153 0.931 . S
C127 C124 1.374 . S
C127 C128 1.390 . S
C127 H154 0.930 . S
C128 C127 1.390 . S
C128 C129 1.391 . S
C128 H155 0.930 . S
C129 C125 1.387 . S
C129 C128 1.391 . S
C130 Tb120 2.825 . S
C130 C124 1.507 . S
C130 O143 1.238 . S
C130 O144 1.247 . S
O131 Tb120 2.347 . S
O131 C135 1.259 . S
O132 Eu121 2.418 . S
O132 C135 1.265 . S
O133 Eu121 2.384 . S
O133 C142 1.255 . S
O134 Tb120 2.366 . S
O134 C142 1.265 . S
C135 O131 1.259 . S
C135 O132 1.265 . S
O136 Eu121 2.479 . S
O136 C151 1.238 . S
O137 Eu121 2.471 . S
O137 C151 1.247 . S
O138 Eu121 2.347 . S
O138 C122 1.259 . S
O139 Tb120 2.418 . S
O139 C122 1.265 . S
O140 Tb120 2.384 . S
O140 C123 1.255 . S
O141 Eu121 2.366 . S
O141 C123 1.265 . S
C142 O133 1.255 . S
C142 O134 1.265 . S
O143 Tb120 2.479 . S
O143 C130 1.238 . S
O144 Tb120 2.471 . S
O144 C130 1.247 . S
C145 C148 1.380 . S
C145 C149 1.374 . S
C145 C151 1.507 . S
C146 C147 1.387 . S
C146 C150 1.391 . S
C147 C146 1.387 . S
C147 C148 1.384 . S
C147 H156 0.930 . S
C148 C145 1.380 . S
C148 C147 1.384 . S
C148 H157 0.931 . S
C149 C145 1.374 . S
C149 C150 1.390 . S
C149 H158 0.930 . S
C150 C146 1.391 . S
C150 C149 1.390 . S
C150 H159 0.930 . S
C151 Eu121 2.825 . S
C151 O136 1.238 . S
C151 O137 1.247 . S
C151 C145 1.507 . S
H152 C125 0.930 . S
H153 C126 0.931 . S
H154 C127 0.930 . S
H155 C128 0.930 . S
H156 C147 0.930 . S
H157 C148 0.931 . S
H158 C149 0.930 . S
H159 C150 0.930 . S
Tb160 C170 2.825 . S
Tb160 O171 2.347 . S
Tb160 O174 2.366 . S
Tb160 O179 2.418 . S
Tb160 O180 2.384 . S
Tb160 O183 2.479 . S
Tb160 O184 2.471 . S
Eu161 O172 2.418 . S
Eu161 O173 2.384 . S
Eu161 O176 2.479 . S
Eu161 O177 2.471 . S
Eu161 O178 2.347 . S
Eu161 O181 2.366 . S
Eu161 C191 2.825 . S
C162 O178 1.259 . S
C162 O179 1.265 . S
C163 O180 1.255 . S
C163 O181 1.265 . S
C164 C166 1.380 . S
C164 C167 1.374 . S
C164 C170 1.507 . S
C165 C166 1.384 . S
C165 C169 1.387 . S
C165 H192 0.930 . S
C166 C164 1.380 . S
C166 C165 1.384 . S
C166 H193 0.931 . S
C167 C164 1.374 . S
C167 C168 1.390 . S
C167 H194 0.930 . S
C168 C167 1.390 . S
C168 C169 1.391 . S
C168 H195 0.930 . S
C169 C165 1.387 . S
C169 C168 1.391 . S
C170 Tb160 2.825 . S
C170 C164 1.507 . S
C170 O183 1.238 . S
C170 O184 1.247 . S
O171 Tb160 2.347 . S
O171 C175 1.259 . S
O172 Eu161 2.418 . S
O172 C175 1.265 . S
O173 Eu161 2.384 . S
O173 C182 1.255 . S
O174 Tb160 2.366 . S
O174 C182 1.265 . S
C175 O171 1.259 . S
C175 O172 1.265 . S
O176 Eu161 2.479 . S
O176 C191 1.238 . S
O177 Eu161 2.471 . S
O177 C191 1.247 . S
O178 Eu161 2.347 . S
O178 C162 1.259 . S
O179 Tb160 2.418 . S
O179 C162 1.265 . S
O180 Tb160 2.384 . S
O180 C163 1.255 . S
O181 Eu161 2.366 . S
O181 C163 1.265 . S
C182 O173 1.255 . S
C182 O174 1.265 . S
O183 Tb160 2.479 . S
O183 C170 1.238 . S
O184 Tb160 2.471 . S
O184 C170 1.247 . S
C185 C188 1.380 . S
C185 C189 1.374 . S
C185 C191 1.507 . S
C186 C187 1.387 . S
C186 C190 1.391 . S
C187 C186 1.387 . S
C187 C188 1.384 . S
C187 H196 0.930 . S
C188 C185 1.380 . S
C188 C187 1.384 . S
C188 H197 0.931 . S
C189 C185 1.374 . S
C189 C190 1.390 . S
C189 H198 0.930 . S
C190 C186 1.391 . S
C190 C189 1.390 . S
C190 H199 0.930 . S
C191 Eu161 2.825 . S
C191 O176 1.238 . S
C191 O177 1.247 . S
C191 C185 1.507 . S
H192 C165 0.930 . S
H193 C166 0.931 . S
H194 C167 0.930 . S
H195 C168 0.930 . S
H196 C187 0.930 . S
H197 C188 0.931 . S
H198 C189 0.930 . S
H199 C190 0.930 . S
Tb200 C210 2.825 . S
Tb200 O211 2.347 . S
Tb200 O214 2.366 . S
Tb200 O219 2.418 . S
Tb200 O220 2.384 . S
Tb200 O223 2.479 . S
Tb200 O224 2.471 . S
Eu201 O212 2.418 . S
Eu201 O213 2.384 . S
Eu201 O216 2.479 . S
Eu201 O217 2.471 . S
Eu201 O218 2.347 . S
Eu201 O221 2.366 . S
Eu201 C231 2.825 . S
C202 O218 1.259 . S
C202 O219 1.265 . S
C203 O220 1.255 . S
C203 O221 1.265 . S
C204 C206 1.380 . S
C204 C207 1.374 . S
C204 C210 1.507 . S
C205 C206 1.384 . S
C205 C209 1.387 . S
C205 H232 0.930 . S
C206 C204 1.380 . S
C206 C205 1.384 . S
C206 H233 0.931 . S
C207 C204 1.374 . S
C207 C208 1.390 . S
C207 H234 0.930 . S
C208 C207 1.390 . S
C208 C209 1.391 . S
C208 H235 0.930 . S
C209 C205 1.387 . S
C209 C208 1.391 . S
C210 Tb200 2.825 . S
C210 C204 1.507 . S
C210 O223 1.238 . S
C210 O224 1.247 . S
O211 Tb200 2.347 . S
O211 C215 1.259 . S
O212 Eu201 2.418 . S
O212 C215 1.265 . S
O213 Eu201 2.384 . S
O213 C222 1.255 . S
O214 Tb200 2.366 . S
O214 C222 1.265 . S
C215 O211 1.259 . S
C215 O212 1.265 . S
O216 Eu201 2.479 . S
O216 C231 1.238 . S
O217 Eu201 2.471 . S
O217 C231 1.247 . S
O218 Eu201 2.347 . S
O218 C202 1.259 . S
O219 Tb200 2.418 . S
O219 C202 1.265 . S
O220 Tb200 2.384 . S
O220 C203 1.255 . S
O221 Eu201 2.366 . S
O221 C203 1.265 . S
C222 O213 1.255 . S
C222 O214 1.265 . S
O223 Tb200 2.479 . S
O223 C210 1.238 . S
O224 Tb200 2.471 . S
O224 C210 1.247 . S
C225 C228 1.380 . S
C225 C229 1.374 . S
C225 C231 1.507 . S
C226 C227 1.387 . S
C226 C230 1.391 . S
C227 C226 1.387 . S
C227 C228 1.384 . S
C227 H236 0.930 . S
C228 C225 1.380 . S
C228 C227 1.384 . S
C228 H237 0.931 . S
C229 C225 1.374 . S
C229 C230 1.390 . S
C229 H238 0.930 . S
C230 C226 1.391 . S
C230 C229 1.390 . S
C230 H239 0.930 . S
C231 Eu201 2.825 . S
C231 O216 1.238 . S
C231 O217 1.247 . S
C231 C225 1.507 . S
H232 C205 0.930 . S
H233 C206 0.931 . S
H234 C207 0.930 . S
H235 C208 0.930 . S
H236 C227 0.930 . S
H237 C228 0.931 . S
H238 C229 0.930 . S
H239 C230 0.930 . S
Tb240 C250 2.825 . S
Tb240 O251 2.347 . S
Tb240 O254 2.366 . S
Tb240 O259 2.418 . S
Tb240 O260 2.384 . S
Tb240 O263 2.479 . S
Tb240 O264 2.471 . S
Eu241 O252 2.418 . S
Eu241 O253 2.384 . S
Eu241 O256 2.479 . S
Eu241 O257 2.471 . S
Eu241 O258 2.347 . S
Eu241 O261 2.366 . S
Eu241 C271 2.825 . S
C242 O258 1.259 . S
C242 O259 1.265 . S
C243 O260 1.255 . S
C243 O261 1.265 . S
C244 C246 1.380 . S
C244 C247 1.374 . S
C244 C250 1.507 . S
C245 C246 1.384 . S
C245 C249 1.387 . S
C245 H272 0.930 . S
C246 C244 1.380 . S
C246 C245 1.384 . S
C246 H273 0.931 . S
C247 C244 1.374 . S
C247 C248 1.390 . S
C247 H274 0.930 . S
C248 C247 1.390 . S
C248 C249 1.391 . S
C248 H275 0.930 . S
C249 C245 1.387 . S
C249 C248 1.391 . S
C250 Tb240 2.825 . S
C250 C244 1.507 . S
C250 O263 1.238 . S
C250 O264 1.247 . S
O251 Tb240 2.347 . S
O251 C255 1.259 . S
O252 Eu241 2.418 . S
O252 C255 1.265 . S
O253 Eu241 2.384 . S
O253 C262 1.255 . S
O254 Tb240 2.366 . S
O254 C262 1.265 . S
C255 O251 1.259 . S
C255 O252 1.265 . S
O256 Eu241 2.479 . S
O256 C271 1.238 . S
O257 Eu241 2.471 . S
O257 C271 1.247 . S
O258 Eu241 2.347 . S
O258 C242 1.259 . S
O259 Tb240 2.418 . S
O259 C242 1.265 . S
O260 Tb240 2.384 . S
O260 C243 1.255 . S
O261 Eu241 2.366 . S
O261 C243 1.265 . S
C262 O253 1.255 . S
C262 O254 1.265 . S
O263 Tb240 2.479 . S
O263 C250 1.238 . S
O264 Tb240 2.471 . S
O264 C250 1.247 . S
C265 C268 1.380 . S
C265 C269 1.374 . S
C265 C271 1.507 . S
C266 C267 1.387 . S
C266 C270 1.391 . S
C267 C266 1.387 . S
C267 C268 1.384 . S
C267 H276 0.930 . S
C268 C265 1.380 . S
C268 C267 1.384 . S
C268 H277 0.931 . S
C269 C265 1.374 . S
C269 C270 1.390 . S
C269 H278 0.930 . S
C270 C266 1.391 . S
C270 C269 1.390 . S
C270 H279 0.930 . S
C271 Eu241 2.825 . S
C271 O256 1.238 . S
C271 O257 1.247 . S
C271 C265 1.507 . S
H272 C245 0.930 . S
H273 C246 0.931 . S
H274 C247 0.930 . S
H275 C248 0.930 . S
H276 C267 0.930 . S
H277 C268 0.931 . S
H278 C269 0.930 . S
H279 C270 0.930 . S
Tb280 C290 2.825 . S
Tb280 O291 2.347 . S
Tb280 O294 2.366 . S
Tb280 O299 2.418 . S
Tb280 O300 2.384 . S
Tb280 O303 2.479 . S
Tb280 O304 2.471 . S
Eu281 O292 2.418 . S
Eu281 O293 2.384 . S
Eu281 O296 2.479 . S
Eu281 O297 2.471 . S
Eu281 O298 2.347 . S
Eu281 O301 2.366 . S
Eu281 C311 2.825 . S
C282 O298 1.259 . S
C282 O299 1.265 . S
C283 O300 1.255 . S
C283 O301 1.265 . S
C284 C286 1.380 . S
C284 C287 1.374 . S
C284 C290 1.507 . S
C285 C286 1.384 . S
C285 C289 1.387 . S
C285 H312 0.930 . S
C286 C284 1.380 . S
C286 C285 1.384 . S
C286 H313 0.931 . S
C287 C284 1.374 . S
C287 C288 1.390 . S
C287 H314 0.930 . S
C288 C287 1.390 . S
C288 C289 1.391 . S
C288 H315 0.930 . S
C289 C285 1.387 . S
C289 C288 1.391 . S
C290 Tb280 2.825 . S
C290 C284 1.507 . S
C290 O303 1.238 . S
C290 O304 1.247 . S
O291 Tb280 2.347 . S
O291 C295 1.259 . S
O292 Eu281 2.418 . S
O292 C295 1.265 . S
O293 Eu281 2.384 . S
O293 C302 1.255 . S
O294 Tb280 2.366 . S
O294 C302 1.265 . S
C295 O291 1.259 . S
C295 O292 1.265 . S
O296 Eu281 2.479 . S
O296 C311 1.238 . S
O297 Eu281 2.471 . S
O297 C311 1.247 . S
O298 Eu281 2.347 . S
O298 C282 1.259 . S
O299 Tb280 2.418 . S
O299 C282 1.265 . S
O300 Tb280 2.384 . S
O300 C283 1.255 . S
O301 Eu281 2.366 . S
O301 C283 1.265 . S
C302 O293 1.255 . S
C302 O294 1.265 . S
O303 Tb280 2.479 . S
O303 C290 1.238 . S
O304 Tb280 2.471 . S
O304 C290 1.247 . S
C305 C308 1.380 . S
C305 C309 1.374 . S
C305 C311 1.507 . S
C306 C307 1.387 . S
C306 C310 1.391 . S
C307 C306 1.387 . S
C307 C308 1.384 . S
C307 H316 0.930 . S
C308 C305 1.380 . S
C308 C307 1.384 . S
C308 H317 0.931 . S
C309 C305 1.374 . S
C309 C310 1.390 . S
C309 H318 0.930 . S
C310 C306 1.391 . S
C310 C309 1.390 . S
C310 H319 0.930 . S
C311 Eu281 2.825 . S
C311 O296 1.238 . S
C311 O297 1.247 . S
C311 C305 1.507 . S
H312 C285 0.930 . S
H313 C286 0.931 . S
H314 C287 0.930 . S
H315 C288 0.930 . S
H316 C307 0.930 . S
H317 C308 0.931 . S
H318 C309 0.930 . S
H319 C310 0.930 . S
C320 O332 1.241 . S
C320 O333 1.280 . S
C321 O334 1.277 . S
C321 O335 1.245 . S
C322 O346 1.247 . S
C322 O348 1.289 . S
Mg323 O324 1.926 1_455 S
Mg323 O333 1.984 1_455 S
Mg323 O335 1.988 1_455 S
Mg323 O336 2.061 . S
O324 Mg323 1.926 1_655 S
O324 Mg325 1.986 . S
O324 Mg326 1.917 1_655 S
Mg325 O324 1.986 . S
Mg325 O332 2.042 . S
Mg325 O334 2.041 . S
Mg325 O340 2.038 1_545 S
Mg325 O348 2.238 1_545 S
Mg326 O324 1.917 1_455 S
Mg326 O327 1.917 1_545 S
Mg326 O337 2.106 . S
Mg326 O339 2.079 1_445 S
Mg326 O348 2.106 1_445 S
Mg326 O349 2.079 . S
O327 Mg326 1.917 1_565 S
O327 Mg328 1.926 . S
O327 Mg329 1.986 1_565 S
Mg328 O327 1.926 . S
Mg328 O342 1.984 . S
Mg328 O345 1.988 . S
Mg328 O346 2.061 1_455 S
Mg329 O327 1.986 1_545 S
Mg329 O337 2.238 . S
Mg329 O341 2.042 1_545 S
Mg329 O343 2.041 1_545 S
Mg329 O350 2.038 . S
C330 O336 1.247 . S
C330 O337 1.289 . S
C331 O349 1.245 . S
C331 O350 1.274 . S
O332 C320 1.241 . S
O332 Mg325 2.042 . S
O333 C320 1.280 . S
O333 Mg323 1.984 1_655 S
O334 C321 1.277 . S
O334 Mg325 2.041 . S
O335 C321 1.245 . S
O335 Mg323 1.988 1_655 S
O336 Mg323 2.061 . S
O336 C330 1.247 . S
O337 Mg326 2.106 . S
O337 Mg329 2.238 . S
O337 C330 1.289 . S
C338 O339 1.245 . S
C338 O340 1.274 . S
O339 Mg326 2.079 1_665 S
O339 C338 1.245 . S
O340 Mg325 2.038 1_565 S
O340 C338 1.274 . S
O341 Mg329 2.042 1_565 S
O341 C344 1.241 . S
O342 Mg328 1.984 . S
O342 C344 1.280 . S
O343 Mg329 2.041 1_565 S
O343 C347 1.277 . S
C344 O341 1.241 . S
C344 O342 1.280 . S
O345 Mg328 1.988 . S
O345 C347 1.245 . S
O346 C322 1.247 . S
O346 Mg328 2.061 1_655 S
C347 O343 1.277 . S
C347 O345 1.245 . S
O348 C322 1.289 . S
O348 Mg325 2.238 1_565 S
O348 Mg326 2.106 1_665 S
O349 Mg326 2.079 . S
O349 C331 1.245 . S
O350 Mg329 2.038 . S
O350 C331 1.274 . S
C351 O363 1.241 . S
C351 O364 1.280 . S
C352 O365 1.278 1_556 S
C352 O366 1.247 1_556 S
C353 O377 1.247 . S
C353 O379 1.289 1_556 S
Mg354 O355 1.926 . S
Mg354 O364 1.984 . S
Mg354 O366 1.988 . S
Mg354 O367 2.061 . S
O355 Mg354 1.926 . S
O355 Mg356 1.983 1_545 S
O355 Mg357 1.917 . S
Mg356 O355 1.983 1_565 S
Mg356 O363 2.029 1_565 S
Mg356 O365 2.026 1_565 S
Mg356 O371 2.054 . S
Mg356 O379 2.252 . S
Mg357 O355 1.917 . S
Mg357 O358 1.917 1_545 S
Mg357 O368 2.106 . S
Mg357 O370 2.079 1_545 S
Mg357 O379 2.106 1_545 S
Mg357 O380 2.079 . S
O358 Mg357 1.917 1_565 S
O358 Mg359 1.926 . S
O358 Mg360 1.986 1_565 S
Mg359 O358 1.926 . S
Mg359 O373 1.984 1_554 S
Mg359 O376 1.988 . S
Mg359 O377 2.061 1_554 S
Mg360 O358 1.986 1_545 S
Mg360 O368 2.238 . S
Mg360 O372 2.042 1_545 S
Mg360 O374 2.041 1_545 S
Mg360 O381 2.038 . S
C361 O367 1.247 . S
C361 O368 1.289 . S
C362 O380 1.245 1_556 S
C362 O381 1.274 1_556 S
O363 C351 1.241 . S
O363 Mg356 2.029 1_545 S
O364 C351 1.280 . S
O364 Mg354 1.984 . S
O365 C352 1.278 1_554 S
O365 Mg356 2.026 1_545 S
O366 C352 1.247 1_554 S
O366 Mg354 1.988 . S
O367 Mg354 2.061 . S
O367 C361 1.247 . S
O368 Mg357 2.106 . S
O368 Mg360 2.238 . S
O368 C361 1.289 . S
C369 O370 1.245 . S
C369 O371 1.274 . S
O370 Mg357 2.079 1_565 S
O370 C369 1.245 . S
O371 Mg356 2.054 . S
O371 C369 1.274 . S
O372 Mg360 2.042 1_565 S
O372 C375 1.241 1_554 S
O373 Mg359 1.984 1_556 S
O373 C375 1.280 . S
O374 Mg360 2.041 1_565 S
O374 C378 1.277 . S
C375 O372 1.241 1_556 S
C375 O373 1.280 . S
O376 Mg359 1.988 . S
O376 C378 1.245 . S
O377 C353 1.247 . S
O377 Mg359 2.061 1_556 S
C378 O374 1.277 . S
C378 O376 1.245 . S
O379 C353 1.289 1_554 S
O379 Mg356 2.252 . S
O379 Mg357 2.106 1_565 S
O380 Mg357 2.079 . S
O380 C362 1.245 1_554 S
O381 Mg360 2.038 . S
O381 C362 1.274 1_554 S
C382 O394 1.241 . S
C382 O395 1.280 . S
C383 O396 1.277 . S
C383 O397 1.245 1_655 S
C384 O408 1.247 . S
C384 O410 1.289 . S
Mg385 O386 1.926 . S
Mg385 O395 1.984 1_455 S
Mg385 O397 1.988 1_554 S
Mg385 O398 2.061 . S
O386 Mg385 1.926 . S
O386 Mg387 1.986 1_455 S
O386 Mg388 1.917 . S
Mg387 O386 1.986 1_655 S
Mg387 O394 2.042 . S
Mg387 O396 2.041 1_554 S
Mg387 O402 2.038 . S
Mg387 O410 2.238 1_554 S
Mg388 O386 1.917 . S
Mg388 O389 1.917 1_554 S
Mg388 O399 2.106 . S
Mg388 O401 2.079 . S
Mg388 O410 2.106 1_454 S
Mg388 O411 2.079 1_554 S
O389 Mg388 1.917 1_556 S
O389 Mg390 1.926 . S
O389 Mg391 1.980 1_556 S
Mg390 O389 1.926 . S
Mg390 O404 1.984 . S
Mg390 O407 1.988 1_556 S
Mg390 O408 2.061 1_455 S
Mg391 O389 1.980 1_554 S
Mg391 O399 2.257 . S
Mg391 O403 2.019 1_554 S
Mg391 O405 2.071 . S
Mg391 O412 2.010 1_554 S
C392 O398 1.247 . S
C392 O399 1.289 . S
C393 O411 1.245 . S
C393 O412 1.274 . S
O394 C382 1.241 . S
O394 Mg387 2.042 . S
O395 C382 1.280 . S
O395 Mg385 1.984 1_655 S
O396 C383 1.277 . S
O396 Mg387 2.041 1_556 S
O397 C383 1.245 1_455 S
O397 Mg385 1.988 1_556 S
O398 Mg385 2.061 . S
O398 C392 1.247 . S
O399 Mg388 2.106 . S
O399 Mg391 2.257 . S
O399 C392 1.289 . S
C400 O401 1.245 1_655 S
C400 O402 1.274 . S
O401 Mg388 2.079 . S
O401 C400 1.245 1_455 S
O402 Mg387 2.038 . S
O402 C400 1.274 . S
O403 Mg391 2.019 1_556 S
O403 C406 1.241 . S
O404 Mg390 1.984 . S
O404 C406 1.280 . S
O405 Mg391 2.071 . S
O405 C409 1.277 . S
C406 O403 1.241 . S
C406 O404 1.280 . S
O407 Mg390 1.988 1_554 S
O407 C409 1.245 . S
O408 C384 1.247 . S
O408 Mg390 2.061 1_655 S
C409 O405 1.277 . S
C409 O407 1.245 . S
O410 C384 1.289 . S
O410 Mg387 2.238 1_556 S
O410 Mg388 2.106 1_656 S
O411 Mg388 2.079 1_556 S
O411 C393 1.245 . S
O412 Mg391 2.010 1_556 S
O412 C393 1.274 . S
C413 O425 1.241 . S
C413 O426 1.280 . S
C414 O427 1.277 . S
C414 O428 1.257 . S
C415 O439 1.247 . S
C415 O441 1.289 . S
Mg416 O417 1.926 . S
Mg416 O426 1.984 . S
Mg416 O428 1.964 1_554 S
Mg416 O429 2.061 . S
O417 Mg416 1.926 . S
O417 Mg418 1.986 . S
O417 Mg419 1.917 . S
Mg418 O417 1.986 . S
Mg418 O425 2.042 . S
Mg418 O427 2.041 1_554 S
Mg418 O433 2.038 . S
Mg418 O441 2.238 1_554 S
Mg419 O417 1.917 . S
Mg419 O420 1.917 . S
Mg419 O430 2.106 . S
Mg419 O432 2.079 . S
Mg419 O441 2.106 1_554 S
Mg419 O442 2.079 1_554 S
O420 Mg419 1.917 . S
O420 Mg421 1.926 . S
O420 Mg422 1.986 . S
Mg421 O420 1.926 . S
Mg421 O435 1.984 1_554 S
Mg421 O438 1.988 . S
Mg421 O439 2.061 1_554 S
Mg422 O420 1.986 . S
Mg422 O430 2.238 . S
Mg422 O434 2.042 1_554 S
Mg422 O436 2.041 . S
Mg422 O443 2.038 1_554 S
C423 O429 1.247 . S
C423 O430 1.289 . S
C424 O442 1.245 . S
C424 O443 1.274 . S
O425 C413 1.241 . S
O425 Mg418 2.042 . S
O426 C413 1.280 . S
O426 Mg416 1.984 . S
O427 C414 1.277 . S
O427 Mg418 2.041 1_556 S
O428 C414 1.257 . S
O428 Mg416 1.964 1_556 S
O429 Mg416 2.061 . S
O429 C423 1.247 . S
O430 Mg419 2.106 . S
O430 Mg422 2.238 . S
O430 C423 1.289 . S
C431 O432 1.245 . S
C431 O433 1.274 . S
O432 Mg419 2.079 . S
O432 C431 1.245 . S
O433 Mg418 2.038 . S
O433 C431 1.274 . S
O434 Mg422 2.042 1_556 S
O434 C437 1.241 . S
O435 Mg421 1.984 1_556 S
O435 C437 1.280 . S
O436 Mg422 2.041 . S
O436 C440 1.277 . S
C437 O434 1.241 . S
C437 O435 1.280 . S
O438 Mg421 1.988 . S
O438 C440 1.245 . S
O439 C415 1.247 . S
O439 Mg421 2.061 1_556 S
C440 O436 1.277 . S
C440 O438 1.245 . S
O441 C415 1.289 . S
O441 Mg418 2.238 1_556 S
O441 Mg419 2.106 1_556 S
O442 Mg419 2.079 1_556 S
O442 C424 1.245 . S
O443 Mg422 2.038 1_556 S
O443 C424 1.274 . S
C444 O456 1.241 . S
C444 O457 1.280 . S
C445 O458 1.277 . S
C445 O459 1.245 . S
C446 O470 1.247 . S
C446 O472 1.289 . S
Mg447 O448 1.927 1_455 S
Mg447 O457 1.972 1_455 S
Mg447 O459 1.981 1_455 S
Mg447 O460 2.076 . S
O448 Mg447 1.927 1_655 S
O448 Mg449 1.986 . S
O448 Mg450 1.917 1_655 S
Mg449 O448 1.986 . S
Mg449 O456 2.042 . S
Mg449 O458 2.041 . S
Mg449 O464 2.038 . S
Mg449 O472 2.238 . S
Mg450 O448 1.917 1_455 S
Mg450 O451 1.917 . S
Mg450 O461 2.106 . S
Mg450 O463 2.079 1_455 S
Mg450 O472 2.106 1_455 S
Mg450 O473 2.079 . S
O451 Mg450 1.917 . S
O451 Mg452 1.926 . S
O451 Mg453 1.986 . S
Mg452 O451 1.926 . S
Mg452 O466 1.984 . S
Mg452 O469 1.988 . S
Mg452 O470 2.061 1_455 S
Mg453 O451 1.986 . S
Mg453 O461 2.238 . S
Mg453 O465 2.042 . S
Mg453 O467 2.041 . S
Mg453 O474 2.038 . S
C454 O460 1.247 . S
C454 O461 1.289 . S
C455 O473 1.245 . S
C455 O474 1.274 . S
O456 C444 1.241 . S
O456 Mg449 2.042 . S
O457 C444 1.280 . S
O457 Mg447 1.972 1_655 S
O458 C445 1.277 . S
O458 Mg449 2.041 . S
O459 C445 1.245 . S
O459 Mg447 1.981 1_655 S
O460 Mg447 2.076 . S
O460 C454 1.247 . S
O461 Mg450 2.106 . S
O461 Mg453 2.238 . S
O461 C454 1.289 . S
C462 O463 1.245 . S
C462 O464 1.274 . S
O463 Mg450 2.079 1_655 S
O463 C462 1.245 . S
O464 Mg449 2.038 . S
O464 C462 1.274 . S
O465 Mg453 2.042 . S
O465 C468 1.241 . S
O466 Mg452 1.984 . S
O466 C468 1.280 . S
O467 Mg453 2.041 . S
O467 C471 1.277 . S
C468 O465 1.241 . S
C468 O466 1.280 . S
O469 Mg452 1.988 . S
O469 C471 1.245 . S
O470 C446 1.247 . S
O470 Mg452 2.061 1_655 S
C471 O467 1.277 . S
C471 O469 1.245 . S
O472 C446 1.289 . S
O472 Mg449 2.238 . S
O472 Mg450 2.106 1_655 S
O473 Mg450 2.079 . S
O473 C455 1.245 . S
O474 Mg453 2.038 . S
O474 C455 1.274 . S
C475 O487 1.241 . S
C475 O488 1.280 . S
C476 O489 1.277 . S
C476 O490 1.245 . S
C477 O501 1.247 . S
C477 O503 1.289 1_565 S
Mg478 O479 1.926 . S
Mg478 O488 1.984 . S
Mg478 O490 1.988 . S
Mg478 O491 2.061 . S
O479 Mg478 1.926 . S
O479 Mg480 1.986 . S
O479 Mg481 1.917 . S
Mg480 O479 1.986 . S
Mg480 O487 2.042 . S
Mg480 O489 2.041 . S
Mg480 O495 2.038 1_545 S
Mg480 O503 2.238 . S
Mg481 O479 1.917 . S
Mg481 O482 1.917 . S
Mg481 O492 2.106 . S
Mg481 O494 2.095 . S
Mg481 O503 2.106 . S
Mg481 O504 2.079 . S
O482 Mg481 1.917 . S
O482 Mg483 1.926 1_545 S
O482 Mg484 1.986 . S
Mg483 O482 1.926 1_565 S
Mg483 O497 1.984 . S
Mg483 O500 1.988 . S
Mg483 O501 2.061 . S
Mg484 O482 1.986 . S
Mg484 O492 2.238 . S
Mg484 O496 2.042 . S
Mg484 O498 2.041 . S
Mg484 O505 2.038 . S
C485 O491 1.247 . S
C485 O492 1.289 . S
C486 O504 1.245 . S
C486 O505 1.274 . S
O487 C475 1.241 . S
O487 Mg480 2.042 . S
O488 C475 1.280 . S
O488 Mg478 1.984 . S
O489 C476 1.277 . S
O489 Mg480 2.041 . S
O490 C476 1.245 . S
O490 Mg478 1.988 . S
O491 Mg478 2.061 . S
O491 C485 1.247 . S
O492 Mg481 2.106 . S
O492 Mg484 2.238 . S
O492 C485 1.289 . S
C493 O494 1.248 1_565 S
C493 O495 1.274 . S
O494 Mg481 2.095 . S
O494 C493 1.248 1_545 S
O495 Mg480 2.038 1_565 S
O495 C493 1.274 . S
O496 Mg484 2.042 . S
O496 C499 1.241 1_545 S
O497 Mg483 1.984 . S
O497 C499 1.280 . S
O498 Mg484 2.041 . S
O498 C502 1.277 1_545 S
C499 O496 1.241 1_565 S
C499 O497 1.280 . S
O500 Mg483 1.988 . S
O500 C502 1.245 . S
O501 C477 1.247 . S
O501 Mg483 2.061 . S
C502 O498 1.277 1_565 S
C502 O500 1.245 . S
O503 C477 1.289 1_545 S
O503 Mg480 2.238 . S
O503 Mg481 2.106 . S
O504 Mg481 2.079 . S
O504 C486 1.245 . S
O505 Mg484 2.038 . S
O505 C486 1.274 . S
H506 C518 0.930 . S
H507 C520 0.930 . S
H508 C521 0.930 . S
H509 C525 0.959 . S
H510 C525 0.959 . S
H511 C525 0.961 . S
H512 C526 0.960 . S
H513 C526 0.961 . S
H514 C526 0.959 . S
H515 C529 0.929 . S
H516 C530 0.931 . S
H517 C532 0.930 . S
C518 H506 0.930 . S
C518 C519 1.399 . S
C518 C523 1.399 . S
C519 C518 1.399 . S
C519 C520 1.376 . S
C520 H507 0.930 . S
C520 C519 1.376 . S
C520 C521 1.388 . S
C521 H508 0.930 . S
C521 C520 1.388 . S
C521 C522 1.390 . S
C522 C521 1.390 . S
C522 C523 1.394 . S
C522 C528 1.465 . S
C523 C518 1.399 . S
C523 C522 1.394 . S
C523 C524 1.516 . S
C524 C523 1.516 . S
C524 C525 1.502 . S
C524 C526 1.561 . S
C524 C527 1.526 . S
C525 H509 0.959 . S
C525 H510 0.959 . S
C525 H511 0.961 . S
C525 C524 1.502 . S
C526 H512 0.960 . S
C526 H513 0.961 . S
C526 H514 0.959 . S
C526 C524 1.561 . S
C527 C524 1.526 . S
C527 C528 1.396 . S
C527 C532 1.390 . S
C528 C522 1.465 . S
C528 C527 1.396 . S
C528 C529 1.399 . S
C529 H515 0.929 . S
C529 C528 1.399 . S
C529 C530 1.385 . S
C530 H516 0.931 . S
C530 C529 1.385 . S
C530 C531 1.389 . S
C531 C530 1.389 . S
C531 C532 1.387 . S
C532 H517 0.930 . S
C532 C527 1.390 . S
C532 C531 1.387 . S
H533 C545 0.930 . S
H534 C547 0.930 . S
H535 C548 0.930 . S
H536 C552 0.959 . S
H537 C552 0.959 . S
H538 C552 0.961 . S
H539 C553 0.960 . S
H540 C553 0.961 . S
H541 C553 0.959 . S
H542 C556 0.929 . S
H543 C557 0.931 . S
H544 C559 0.930 . S
C545 H533 0.930 . S
C545 C546 1.399 . S
C545 C550 1.399 . S
C546 C545 1.399 . S
C546 C547 1.376 . S
C547 H534 0.930 . S
C547 C546 1.376 . S
C547 C548 1.388 . S
C548 H535 0.930 . S
C548 C547 1.388 . S
C548 C549 1.390 . S
C549 C548 1.390 . S
C549 C550 1.394 . S
C549 C555 1.465 . S
C550 C545 1.399 . S
C550 C549 1.394 . S
C550 C551 1.516 . S
C551 C550 1.516 . S
C551 C552 1.502 . S
C551 C553 1.561 . S
C551 C554 1.526 . S
C552 H536 0.959 . S
C552 H537 0.959 . S
C552 H538 0.961 . S
C552 C551 1.502 . S
C553 H539 0.960 . S
C553 H540 0.961 . S
C553 H541 0.959 . S
C553 C551 1.561 . S
C554 C551 1.526 . S
C554 C555 1.396 . S
C554 C559 1.390 . S
C555 C549 1.465 . S
C555 C554 1.396 . S
C555 C556 1.399 . S
C556 H542 0.929 . S
C556 C555 1.399 . S
C556 C557 1.385 . S
C557 H543 0.931 . S
C557 C556 1.385 . S
C557 C558 1.389 . S
C558 C557 1.389 . S
C558 C559 1.387 . S
C559 H544 0.930 . S
C559 C554 1.390 . S
C559 C558 1.387 . S
H560 C572 0.930 . S
H561 C574 0.930 . S
H562 C575 0.930 . S
H563 C579 0.959 . S
H564 C579 0.959 . S
H565 C579 0.961 . S
H566 C580 0.960 . S
H567 C580 0.961 . S
H568 C580 0.959 . S
H569 C583 0.929 . S
H570 C584 0.931 . S
H571 C586 0.930 . S
C572 H560 0.930 . S
C572 C573 1.399 . S
C572 C577 1.399 . S
C573 C572 1.399 . S
C573 C574 1.376 . S
C574 H561 0.930 . S
C574 C573 1.376 . S
C574 C575 1.388 . S
C575 H562 0.930 . S
C575 C574 1.388 . S
C575 C576 1.390 . S
C576 C575 1.390 . S
C576 C577 1.394 . S
C576 C582 1.465 . S
C577 C572 1.399 . S
C577 C576 1.394 . S
C577 C578 1.516 . S
C578 C577 1.516 . S
C578 C579 1.502 . S
C578 C580 1.561 . S
C578 C581 1.526 . S
C579 H563 0.959 . S
C579 H564 0.959 . S
C579 H565 0.961 . S
C579 C578 1.502 . S
C580 H566 0.960 . S
C580 H567 0.961 . S
C580 H568 0.959 . S
C580 C578 1.561 . S
C581 C578 1.526 . S
C581 C582 1.396 . S
C581 C586 1.390 . S
C582 C576 1.465 . S
C582 C581 1.396 . S
C582 C583 1.399 . S
C583 H569 0.929 . S
C583 C582 1.399 . S
C583 C584 1.385 . S
C584 H570 0.931 . S
C584 C583 1.385 . S
C584 C585 1.389 . S
C585 C584 1.389 . S
C585 C586 1.387 . S
C586 H571 0.930 . S
C586 C581 1.390 . S
C586 C585 1.387 . S
H587 C599 0.930 . S
H588 C601 0.930 . S
H589 C602 0.930 . S
H590 C606 0.959 . S
H591 C606 0.959 . S
H592 C606 0.961 . S
H593 C607 0.960 . S
H594 C607 0.961 . S
H595 C607 0.959 . S
H596 C610 0.929 . S
H597 C611 0.931 1_545 S
H598 C613 0.930 . S
C599 H587 0.930 . S
C599 C600 1.399 . S
C599 C604 1.399 . S
C600 C599 1.399 . S
C600 C601 1.376 . S
C601 H588 0.930 . S
C601 C600 1.376 . S
C601 C602 1.388 . S
C602 H589 0.930 . S
C602 C601 1.388 . S
C602 C603 1.390 . S
C603 C602 1.390 . S
C603 C604 1.394 . S
C603 C609 1.465 . S
C604 C599 1.399 . S
C604 C603 1.394 . S
C604 C605 1.516 . S
C605 C604 1.516 . S
C605 C606 1.502 . S
C605 C607 1.561 . S
C605 C608 1.526 . S
C606 H590 0.959 . S
C606 H591 0.959 . S
C606 H592 0.961 . S
C606 C605 1.502 . S
C607 H593 0.960 . S
C607 H594 0.961 . S
C607 H595 0.959 . S
C607 C605 1.561 . S
C608 C605 1.526 . S
C608 C609 1.396 . S
C608 C613 1.390 . S
C609 C603 1.465 . S
C609 C608 1.396 . S
C609 C610 1.399 . S
C610 H596 0.929 . S
C610 C609 1.399 . S
C610 C611 1.385 . S
C611 H597 0.931 1_565 S
C611 C610 1.385 . S
C611 C612 1.389 . S
C612 C611 1.389 . S
C612 C613 1.387 . S
C613 H598 0.930 . S
C613 C608 1.390 . S
C613 C612 1.387 . S
H614 C626 0.930 . S
H615 C628 0.930 . S
H616 C629 0.930 . S
H617 C633 0.959 . S
H618 C633 0.959 . S
H619 C633 0.961 . S
H620 C634 0.960 . S
H621 C634 0.961 . S
H622 C634 0.959 1_545 S
H623 C637 0.929 . S
H624 C638 0.931 . S
H625 C640 0.930 . S
C626 H614 0.930 . S
C626 C627 1.399 . S
C626 C631 1.399 . S
C627 C626 1.399 . S
C627 C628 1.376 . S
C628 H615 0.930 . S
C628 C627 1.376 . S
C628 C629 1.388 . S
C629 H616 0.930 . S
C629 C628 1.388 . S
C629 C630 1.390 . S
C630 C629 1.390 . S
C630 C631 1.394 . S
C630 C636 1.465 . S
C631 C626 1.399 . S
C631 C630 1.394 . S
C631 C632 1.516 . S
C632 C631 1.516 . S
C632 C633 1.502 . S
C632 C634 1.561 . S
C632 C635 1.526 . S
C633 H617 0.959 . S
C633 H618 0.959 . S
C633 H619 0.961 . S
C633 C632 1.502 . S
C634 H620 0.960 . S
C634 H621 0.961 . S
C634 H622 0.959 1_565 S
C634 C632 1.561 . S
C635 C632 1.526 . S
C635 C636 1.396 . S
C635 C640 1.390 . S
C636 C630 1.465 . S
C636 C635 1.396 . S
C636 C637 1.399 . S
C637 H623 0.929 . S
C637 C636 1.399 . S
C637 C638 1.385 . S
C638 H624 0.931 . S
C638 C637 1.385 . S
C638 C639 1.389 . S
C639 C638 1.389 . S
C639 C640 1.387 . S
C640 H625 0.930 . S
C640 C635 1.390 . S
C640 C639 1.387 . S
H641 C653 0.930 . S
H642 C655 0.930 . S
H643 C656 0.930 . S
H644 C660 0.959 . S
H645 C660 0.959 . S
H646 C660 0.961 . S
H647 C661 0.960 . S
H648 C661 0.961 . S
H649 C661 0.959 . S
H650 C664 0.929 . S
H651 C665 0.931 . S
H652 C667 0.930 . S
C653 H641 0.930 . S
C653 C654 1.399 . S
C653 C658 1.399 . S
C654 C653 1.399 . S
C654 C655 1.376 . S
C655 H642 0.930 . S
C655 C654 1.376 . S
C655 C656 1.388 . S
C656 H643 0.930 . S
C656 C655 1.388 . S
C656 C657 1.390 . S
C657 C656 1.390 . S
C657 C658 1.394 . S
C657 C663 1.465 . S
C658 C653 1.399 . S
C658 C657 1.394 . S
C658 C659 1.516 . S
C659 C658 1.516 . S
C659 C660 1.502 . S
C659 C661 1.561 . S
C659 C662 1.526 . S
C660 H644 0.959 . S
C660 H645 0.959 . S
C660 H646 0.961 . S
C660 C659 1.502 . S
C661 H647 0.960 . S
C661 H648 0.961 . S
C661 H649 0.959 . S
C661 C659 1.561 . S
C662 C659 1.526 . S
C662 C663 1.396 . S
C662 C667 1.390 . S
C663 C657 1.465 . S
C663 C662 1.396 . S
C663 C664 1.399 . S
C664 H650 0.929 . S
C664 C663 1.399 . S
C664 C665 1.385 . S
C665 H651 0.931 . S
C665 C664 1.385 . S
C665 C666 1.389 . S
C666 C665 1.389 . S
C666 C667 1.387 . S
C667 H652 0.930 . S
C667 C662 1.390 . S
C667 C666 1.387 . S
H668 C680 0.930 . S
H669 C682 0.930 . S
H670 C683 0.930 . S
H671 C687 0.959 . S
H672 C687 0.959 . S
H673 C687 0.961 . S
H674 C688 0.960 . S
H675 C688 0.961 . S
H676 C688 0.959 . S
H677 C691 0.929 . S
H678 C692 0.931 . S
H679 C694 0.930 . S
C680 H668 0.930 . S
C680 C681 1.399 . S
C680 C685 1.399 . S
C681 C680 1.399 . S
C681 C682 1.376 . S
C682 H669 0.930 . S
C682 C681 1.376 . S
C682 C683 1.388 . S
C683 H670 0.930 . S
C683 C682 1.388 . S
C683 C684 1.390 . S
C684 C683 1.390 . S
C684 C685 1.394 . S
C684 C690 1.465 . S
C685 C680 1.399 . S
C685 C684 1.394 . S
C685 C686 1.516 . S
C686 C685 1.516 . S
C686 C687 1.502 . S
C686 C688 1.561 . S
C686 C689 1.526 . S
C687 H671 0.959 . S
C687 H672 0.959 . S
C687 H673 0.961 . S
C687 C686 1.502 . S
C688 H674 0.960 . S
C688 H675 0.961 . S
C688 H676 0.959 . S
C688 C686 1.561 . S
C689 C686 1.526 . S
C689 C690 1.396 . S
C689 C694 1.390 . S
C690 C684 1.465 . S
C690 C689 1.396 . S
C690 C691 1.399 . S
C691 H677 0.929 . S
C691 C690 1.399 . S
C691 C692 1.385 . S
C692 H678 0.931 . S
C692 C691 1.385 . S
C692 C693 1.389 . S
C693 C692 1.389 . S
C693 C694 1.387 . S
C694 H679 0.930 . S
C694 C689 1.390 . S
C694 C693 1.387 . S
H695 C707 0.930 . S
H696 C709 0.930 . S
H697 C710 0.930 . S
H698 C714 0.959 . S
H699 C714 0.959 . S
H700 C714 0.961 . S
H701 C715 0.960 . S
H702 C715 0.961 . S
H703 C715 0.959 . S
H704 C718 0.929 . S
H705 C719 0.931 . S
H706 C721 0.930 . S
C707 H695 0.930 . S
C707 C708 1.399 . S
C707 C712 1.399 . S
C708 C707 1.399 . S
C708 C709 1.376 . S
C709 H696 0.930 . S
C709 C708 1.376 . S
C709 C710 1.388 . S
C710 H697 0.930 . S
C710 C709 1.388 . S
C710 C711 1.390 . S
C711 C710 1.390 . S
C711 C712 1.394 . S
C711 C717 1.465 . S
C712 C707 1.399 . S
C712 C711 1.394 . S
C712 C713 1.516 . S
C713 C712 1.516 . S
C713 C714 1.502 . S
C713 C715 1.561 . S
C713 C716 1.526 . S
C714 H698 0.959 . S
C714 H699 0.959 . S
C714 H700 0.961 . S
C714 C713 1.502 . S
C715 H701 0.960 . S
C715 H702 0.961 . S
C715 H703 0.959 . S
C715 C713 1.561 . S
C716 C713 1.526 . S
C716 C717 1.396 . S
C716 C721 1.390 . S
C717 C711 1.465 . S
C717 C716 1.396 . S
C717 C718 1.399 . S
C718 H704 0.929 . S
C718 C717 1.399 . S
C718 C719 1.385 . S
C719 H705 0.931 . S
C719 C718 1.385 . S
C719 C720 1.389 . S
C720 C719 1.389 . S
C720 C721 1.387 . S
C721 H706 0.930 . S
C721 C716 1.390 . S
C721 C720 1.387 . S
H722 C734 0.930 . S
H723 C736 0.930 . S
H724 C737 0.930 . S
H725 C741 0.959 . S
H726 C741 0.959 . S
H727 C741 0.961 . S
H728 C742 0.960 . S
H729 C742 0.961 . S
H730 C742 0.959 . S
H731 C745 0.929 . S
H732 C746 0.931 . S
H733 C748 0.930 . S
C734 H722 0.930 . S
C734 C735 1.399 . S
C734 C739 1.399 . S
C735 C734 1.399 . S
C735 C736 1.376 . S
C736 H723 0.930 . S
C736 C735 1.376 . S
C736 C737 1.388 . S
C737 H724 0.930 . S
C737 C736 1.388 . S
C737 C738 1.390 . S
C738 C737 1.390 . S
C738 C739 1.394 . S
C738 C744 1.465 . S
C739 C734 1.399 . S
C739 C738 1.394 . S
C739 C740 1.516 . S
C740 C739 1.516 . S
C740 C741 1.502 . S
C740 C742 1.561 . S
C740 C743 1.526 . S
C741 H725 0.959 . S
C741 H726 0.959 . S
C741 H727 0.961 . S
C741 C740 1.502 . S
C742 H728 0.960 . S
C742 H729 0.961 . S
C742 H730 0.959 . S
C742 C740 1.561 . S
C743 C740 1.526 . S
C743 C744 1.396 . S
C743 C748 1.390 . S
C744 C738 1.465 . S
C744 C743 1.396 . S
C744 C745 1.399 . S
C745 H731 0.929 . S
C745 C744 1.399 . S
C745 C746 1.385 . S
C746 H732 0.931 . S
C746 C745 1.385 . S
C746 C747 1.389 . S
C747 C746 1.389 . S
C747 C748 1.387 . S
C748 H733 0.930 . S
C748 C743 1.390 . S
C748 C747 1.387 . S
H749 C761 0.930 . S
H750 C763 0.930 . S
H751 C764 0.930 . S
H752 C768 0.959 . S
H753 C768 0.959 . S
H754 C768 0.961 . S
H755 C769 0.960 . S
H756 C769 0.961 . S
H757 C769 0.959 . S
H758 C772 0.929 . S
H759 C773 0.931 . S
H760 C775 0.930 . S
C761 H749 0.930 . S
C761 C762 1.399 . S
C761 C766 1.399 . S
C762 C761 1.399 . S
C762 C763 1.376 . S
C763 H750 0.930 . S
C763 C762 1.376 . S
C763 C764 1.388 . S
C764 H751 0.930 . S
C764 C763 1.388 . S
C764 C765 1.390 . S
C765 C764 1.390 . S
C765 C766 1.394 . S
C765 C771 1.465 . S
C766 C761 1.399 . S
C766 C765 1.394 . S
C766 C767 1.516 . S
C767 C766 1.516 . S
C767 C768 1.502 . S
C767 C769 1.561 . S
C767 C770 1.526 . S
C768 H752 0.959 . S
C768 H753 0.959 . S
C768 H754 0.961 . S
C768 C767 1.502 . S
C769 H755 0.960 . S
C769 H756 0.961 . S
C769 H757 0.959 . S
C769 C767 1.561 . S
C770 C767 1.526 . S
C770 C771 1.396 . S
C770 C775 1.390 . S
C771 C765 1.465 . S
C771 C770 1.396 . S
C771 C772 1.399 . S
C772 H758 0.929 . S
C772 C771 1.399 . S
C772 C773 1.385 . S
C773 H759 0.931 . S
C773 C772 1.385 . S
C773 C774 1.389 . S
C774 C773 1.389 . S
C774 C775 1.387 . S
C775 H760 0.930 . S
C775 C770 1.390 . S
C775 C774 1.387 . S
H776 C788 0.930 . S
H777 C790 0.930 . S
H778 C791 0.930 . S
H779 C795 0.959 . S
H780 C795 0.959 . S
H781 C795 0.961 . S
H782 C796 0.960 . S
H783 C796 0.961 . S
H784 C796 0.959 . S
H785 C799 0.929 . S
H786 C800 0.931 . S
H787 C802 0.930 . S
C788 H776 0.930 . S
C788 C789 1.399 . S
C788 C793 1.399 . S
C789 C788 1.399 . S
C789 C790 1.376 . S
C790 H777 0.930 . S
C790 C789 1.376 . S
C790 C791 1.388 . S
C791 H778 0.930 . S
C791 C790 1.388 . S
C791 C792 1.390 . S
C792 C791 1.390 . S
C792 C793 1.394 . S
C792 C798 1.465 . S
C793 C788 1.399 . S
C793 C792 1.394 . S
C793 C794 1.516 . S
C794 C793 1.516 . S
C794 C795 1.502 . S
C794 C796 1.561 . S
C794 C797 1.526 . S
C795 H779 0.959 . S
C795 H780 0.959 . S
C795 H781 0.961 . S
C795 C794 1.502 . S
C796 H782 0.960 . S
C796 H783 0.961 . S
C796 H784 0.959 . S
C796 C794 1.561 . S
C797 C794 1.526 . S
C797 C798 1.396 . S
C797 C802 1.390 . S
C798 C792 1.465 . S
C798 C797 1.396 . S
C798 C799 1.399 . S
C799 H785 0.929 . S
C799 C798 1.399 . S
C799 C800 1.385 . S
C800 H786 0.931 . S
C800 C799 1.385 . S
C800 C801 1.389 . S
C801 C800 1.389 . S
C801 C802 1.387 . S
C802 H787 0.930 . S
C802 C797 1.390 . S
C802 C801 1.387 . S
H803 C815 0.930 . S
H804 C817 0.930 . S
H805 C818 0.930 . S
H806 C822 0.959 . S
H807 C822 0.959 . S
H808 C822 0.961 . S
H809 C823 0.960 . S
H810 C823 0.961 . S
H811 C823 0.959 . S
H812 C826 0.929 . S
H813 C827 0.931 . S
H814 C829 0.930 . S
C815 H803 0.930 . S
C815 C816 1.399 . S
C815 C820 1.399 . S
C816 C815 1.399 . S
C816 C817 1.376 . S
C817 H804 0.930 . S
C817 C816 1.376 . S
C817 C818 1.388 . S
C818 H805 0.930 . S
C818 C817 1.388 . S
C818 C819 1.390 . S
C819 C818 1.390 . S
C819 C820 1.394 . S
C819 C825 1.465 . S
C820 C815 1.399 . S
C820 C819 1.394 . S
C820 C821 1.516 . S
C821 C820 1.516 . S
C821 C822 1.502 . S
C821 C823 1.561 . S
C821 C824 1.526 . S
C822 H806 0.959 . S
C822 H807 0.959 . S
C822 H808 0.961 . S
C822 C821 1.502 . S
C823 H809 0.960 . S
C823 H810 0.961 . S
C823 H811 0.959 . S
C823 C821 1.561 . S
C824 C821 1.526 . S
C824 C825 1.396 . S
C824 C829 1.390 . S
C825 C819 1.465 . S
C825 C824 1.396 . S
C825 C826 1.399 . S
C826 H812 0.929 . S
C826 C825 1.399 . S
C826 C827 1.385 . S
C827 H813 0.931 . S
C827 C826 1.385 . S
C827 C828 1.389 . S
C828 C827 1.389 . S
C828 C829 1.387 . S
C829 H814 0.930 . S
C829 C824 1.390 . S
C829 C828 1.387 . S
H830 C842 0.930 . S
H831 C844 0.930 . S
H832 C845 0.930 . S
H833 C849 0.959 . S
H834 C849 0.959 . S
H835 C849 0.961 . S
H836 C850 0.960 . S
H837 C850 0.961 . S
H838 C850 0.959 . S
H839 C853 0.929 . S
H840 C854 0.931 . S
H841 C856 0.930 . S
C842 H830 0.930 . S
C842 C843 1.399 . S
C842 C847 1.399 . S
C843 C842 1.399 . S
C843 C844 1.376 . S
C844 H831 0.930 . S
C844 C843 1.376 . S
C844 C845 1.388 . S
C845 H832 0.930 . S
C845 C844 1.388 . S
C845 C846 1.390 . S
C846 C845 1.390 . S
C846 C847 1.394 . S
C846 C852 1.465 . S
C847 C842 1.399 . S
C847 C846 1.394 . S
C847 C848 1.516 . S
C848 C847 1.516 . S
C848 C849 1.502 . S
C848 C850 1.561 . S
C848 C851 1.526 . S
C849 H833 0.959 . S
C849 H834 0.959 . S
C849 H835 0.961 . S
C849 C848 1.502 . S
C850 H836 0.960 . S
C850 H837 0.961 . S
C850 H838 0.959 . S
C850 C848 1.561 . S
C851 C848 1.526 . S
C851 C852 1.396 . S
C851 C856 1.390 . S
C852 C846 1.465 . S
C852 C851 1.396 . S
C852 C853 1.399 . S
C853 H839 0.929 . S
C853 C852 1.399 . S
C853 C854 1.385 . S
C854 H840 0.931 . S
C854 C853 1.385 . S
C854 C855 1.389 . S
C855 C854 1.389 . S
C855 C856 1.387 . S
C856 H841 0.930 . S
C856 C851 1.390 . S
C856 C855 1.387 . S
H857 C869 0.930 . S
H858 C871 0.930 . S
H859 C872 0.930 . S
H860 C876 0.959 . S
H861 C876 0.959 . S
H862 C876 0.961 . S
H863 C877 0.960 . S
H864 C877 0.961 . S
H865 C877 0.959 . S
H866 C880 0.929 . S
H867 C881 0.931 . S
H868 C883 0.930 . S
C869 H857 0.930 . S
C869 C870 1.399 . S
C869 C874 1.399 . S
C870 C869 1.399 . S
C870 C871 1.376 . S
C871 H858 0.930 . S
C871 C870 1.376 . S
C871 C872 1.388 . S
C872 H859 0.930 . S
C872 C871 1.388 . S
C872 C873 1.390 . S
C873 C872 1.390 . S
C873 C874 1.394 . S
C873 C879 1.465 . S
C874 C869 1.399 . S
C874 C873 1.394 . S
C874 C875 1.516 . S
C875 C874 1.516 . S
C875 C876 1.502 . S
C875 C877 1.561 . S
C875 C878 1.526 . S
C876 H860 0.959 . S
C876 H861 0.959 . S
C876 H862 0.961 . S
C876 C875 1.502 . S
C877 H863 0.960 . S
C877 H864 0.961 . S
C877 H865 0.959 . S
C877 C875 1.561 . S
C878 C875 1.526 . S
C878 C879 1.396 . S
C878 C883 1.390 . S
C879 C873 1.465 . S
C879 C878 1.396 . S
C879 C880 1.399 . S
C880 H866 0.929 . S
C880 C879 1.399 . S
C880 C881 1.385 . S
C881 H867 0.931 . S
C881 C880 1.385 . S
C881 C882 1.389 . S
C882 C881 1.389 . S
C882 C883 1.387 . S
C883 H868 0.930 . S
C883 C878 1.390 . S
C883 C882 1.387 . S
H884 C896 0.930 . S
H885 C898 0.930 . S
H886 C899 0.930 . S
H887 C903 0.959 . S
H888 C903 0.959 . S
H889 C903 0.961 . S
H890 C904 0.960 . S
H891 C904 0.961 . S
H892 C904 0.959 . S
H893 C907 0.929 . S
H894 C908 0.931 . S
H895 C910 0.930 . S
C896 H884 0.930 . S
C896 C897 1.399 . S
C896 C901 1.399 . S
C897 C896 1.399 . S
C897 C898 1.376 . S
C898 H885 0.930 . S
C898 C897 1.376 . S
C898 C899 1.388 . S
C899 H886 0.930 . S
C899 C898 1.388 . S
C899 C900 1.390 . S
C900 C899 1.390 . S
C900 C901 1.394 . S
C900 C906 1.465 . S
C901 C896 1.399 . S
C901 C900 1.394 . S
C901 C902 1.516 . S
C902 C901 1.516 . S
C902 C903 1.502 . S
C902 C904 1.561 . S
C902 C905 1.526 . S
C903 H887 0.959 . S
C903 H888 0.959 . S
C903 H889 0.961 . S
C903 C902 1.502 . S
C904 H890 0.960 . S
C904 H891 0.961 . S
C904 H892 0.959 . S
C904 C902 1.561 . S
C905 C902 1.526 . S
C905 C906 1.396 . S
C905 C910 1.390 . S
C906 C900 1.465 . S
C906 C905 1.396 . S
C906 C907 1.399 . S
C907 H893 0.929 . S
C907 C906 1.399 . S
C907 C908 1.385 . S
C908 H894 0.931 . S
C908 C907 1.385 . S
C908 C909 1.389 . S
C909 C908 1.389 . S
C909 C910 1.387 . S
C910 H895 0.930 . S
C910 C905 1.390 . S
C910 C909 1.387 . S
H911 C923 0.930 . S
H912 C925 0.930 . S
H913 C926 0.930 . S
H914 C930 0.959 . S
H915 C930 0.959 1_455 S
H916 C930 0.961 . S
H917 C931 0.960 . S
H918 C931 0.940 1_455 S
H919 C931 0.959 . S
H920 C934 0.929 . S
H921 C935 0.931 . S
H922 C937 0.930 1_455 S
C923 H911 0.930 . S
C923 C924 1.399 . S
C923 C928 1.399 . S
C924 C923 1.399 . S
C924 C925 1.376 . S
C925 H912 0.930 . S
C925 C924 1.376 . S
C925 C926 1.388 . S
C926 H913 0.930 . S
C926 C925 1.388 . S
C926 C927 1.390 . S
C927 C926 1.390 . S
C927 C928 1.394 . S
C927 C933 1.465 . S
C928 C923 1.399 . S
C928 C927 1.394 . S
C928 C929 1.516 . S
C929 C928 1.516 . S
C929 C930 1.502 . S
C929 C931 1.561 . S
C929 C932 1.526 . S
C930 H914 0.959 . S
C930 H915 0.959 1_655 S
C930 H916 0.961 . S
C930 C929 1.502 . S
C931 H917 0.960 . S
C931 H918 0.940 1_655 S
C931 H919 0.959 . S
C931 C929 1.561 . S
C932 C929 1.526 . S
C932 C933 1.396 . S
C932 C937 1.390 . S
C933 C927 1.465 . S
C933 C932 1.396 . S
C933 C934 1.399 . S
C934 H920 0.929 . S
C934 C933 1.399 . S
C934 C935 1.385 . S
C935 H921 0.931 . S
C935 C934 1.385 . S
C935 C936 1.389 . S
C936 C935 1.389 . S
C936 C937 1.387 . S
C937 H922 0.930 1_655 S
C937 C932 1.390 . S
C937 C936 1.387 . S
H938 C950 0.930 . S
H939 C952 0.930 . S
H940 C953 0.930 . S
H941 C957 0.959 . S
H942 C957 0.959 . S
H943 C957 0.961 . S
H944 C958 0.960 . S
H945 C958 0.961 . S
H946 C958 0.959 . S
H947 C961 0.929 . S
H948 C962 0.931 . S
H949 C964 0.930 . S
C950 H938 0.930 . S
C950 C951 1.399 . S
C950 C955 1.399 . S
C951 C950 1.399 . S
C951 C952 1.376 . S
C952 H939 0.930 . S
C952 C951 1.376 . S
C952 C953 1.388 . S
C953 H940 0.930 . S
C953 C952 1.388 . S
C953 C954 1.390 . S
C954 C953 1.390 . S
C954 C955 1.394 . S
C954 C960 1.465 . S
C955 C950 1.399 . S
C955 C954 1.394 . S
C955 C956 1.516 . S
C956 C955 1.516 . S
C956 C957 1.502 . S
C956 C958 1.561 . S
C956 C959 1.526 . S
C957 H941 0.959 . S
C957 H942 0.959 . S
C957 H943 0.961 . S
C957 C956 1.502 . S
C958 H944 0.960 . S
C958 H945 0.961 . S
C958 H946 0.959 . S
C958 C956 1.561 . S
C959 C956 1.526 . S
C959 C960 1.396 . S
C959 C964 1.390 . S
C960 C954 1.465 . S
C960 C959 1.396 . S
C960 C961 1.399 . S
C961 H947 0.929 . S
C961 C960 1.399 . S
C961 C962 1.385 . S
C962 H948 0.931 . S
C962 C961 1.385 . S
C962 C963 1.389 . S
C963 C962 1.389 . S
C963 C964 1.387 . S
C964 H949 0.930 . S
C964 C959 1.390 . S
C964 C963 1.387 . S
H965 C977 0.930 . S
H966 C979 0.930 . S
H967 C980 0.930 . S
H968 C984 0.959 . S
H969 C984 0.959 . S
H970 C984 0.961 . S
H971 C985 0.960 . S
H972 C985 0.961 . S
H973 C985 0.959 . S
H974 C988 0.929 . S
H975 C989 0.931 . S
H976 C991 0.930 . S
C977 H965 0.930 . S
C977 C978 1.399 . S
C977 C982 1.399 . S
C978 C977 1.399 . S
C978 C979 1.376 . S
C979 H966 0.930 . S
C979 C978 1.376 . S
C979 C980 1.388 . S
C980 H967 0.930 . S
C980 C979 1.388 . S
C980 C981 1.390 . S
C981 C980 1.390 . S
C981 C982 1.394 . S
C981 C987 1.465 . S
C982 C977 1.399 . S
C982 C981 1.394 . S
C982 C983 1.516 . S
C983 C982 1.516 . S
C983 C984 1.502 . S
C983 C985 1.561 . S
C983 C986 1.526 . S
C984 H968 0.959 . S
C984 H969 0.959 . S
C984 H970 0.961 . S
C984 C983 1.502 . S
C985 H971 0.960 . S
C985 H972 0.961 . S
C985 H973 0.959 . S
C985 C983 1.561 . S
C986 C983 1.526 . S
C986 C987 1.396 . S
C986 C991 1.390 . S
C987 C981 1.465 . S
C987 C986 1.396 . S
C987 C988 1.399 . S
C988 H974 0.929 . S
C988 C987 1.399 . S
C988 C989 1.385 . S
C989 H975 0.931 . S
C989 C988 1.385 . S
C989 C990 1.389 . S
C990 C989 1.389 . S
C990 C991 1.387 . S
C991 H976 0.930 . S
C991 C986 1.390 . S
C991 C990 1.387 . S
H992 C1004 0.930 . S
H993 C1006 0.930 . S
H994 C1007 0.930 . S
H995 C1011 0.959 . S
H996 C1011 0.959 . S
H997 C1011 0.961 . S
H998 C1012 0.960 . S
H999 C1012 0.961 . S
H1000 C1012 0.959 . S
H1001 C1015 0.929 . S
H1002 C1016 0.931 1_554 S
H1003 C1018 0.930 . S
C1004 H992 0.930 . S
C1004 C1005 1.399 . S
C1004 C1009 1.399 . S
C1005 C1004 1.399 . S
C1005 C1006 1.376 . S
C1006 H993 0.930 . S
C1006 C1005 1.376 . S
C1006 C1007 1.388 . S
C1007 H994 0.930 . S
C1007 C1006 1.388 . S
C1007 C1008 1.390 . S
C1008 C1007 1.390 . S
C1008 C1009 1.394 . S
C1008 C1014 1.465 . S
C1009 C1004 1.399 . S
C1009 C1008 1.394 . S
C1009 C1010 1.516 . S
C1010 C1009 1.516 . S
C1010 C1011 1.502 . S
C1010 C1012 1.561 . S
C1010 C1013 1.526 . S
C1011 H995 0.959 . S
C1011 H996 0.959 . S
C1011 H997 0.961 . S
C1011 C1010 1.502 . S
C1012 H998 0.960 . S
C1012 H999 0.961 . S
C1012 H1000 0.959 . S
C1012 C1010 1.561 . S
C1013 C1010 1.526 . S
C1013 C1014 1.396 . S
C1013 C1018 1.390 . S
C1014 C1008 1.465 . S
C1014 C1013 1.396 . S
C1014 C1015 1.399 . S
C1015 H1001 0.929 . S
C1015 C1014 1.399 . S
C1015 C1016 1.385 . S
C1016 H1002 0.931 1_556 S
C1016 C1015 1.385 . S
C1016 C1017 1.389 . S
C1017 C1016 1.389 . S
C1017 C1018 1.387 . S
C1018 H1003 0.930 . S
C1018 C1013 1.390 . S
C1018 C1017 1.387 . S
H1019 C1031 0.930 . S
H1020 C1033 0.930 . S
H1021 C1034 0.930 . S
H1022 C1038 0.959 . S
H1023 C1038 0.959 . S
H1024 C1038 0.961 . S
H1025 C1039 0.960 . S
H1026 C1039 0.961 . S
H1027 C1039 0.959 . S
H1028 C1042 0.929 . S
H1029 C1043 0.931 . S
H1030 C1045 0.930 . S
C1031 H1019 0.930 . S
C1031 C1032 1.399 . S
C1031 C1036 1.399 . S
C1032 C1031 1.399 . S
C1032 C1033 1.376 . S
C1033 H1020 0.930 . S
C1033 C1032 1.376 . S
C1033 C1034 1.388 . S
C1034 H1021 0.930 . S
C1034 C1033 1.388 . S
C1034 C1035 1.390 . S
C1035 C1034 1.390 . S
C1035 C1036 1.394 . S
C1035 C1041 1.465 . S
C1036 C1031 1.399 . S
C1036 C1035 1.394 . S
C1036 C1037 1.516 . S
C1037 C1036 1.516 . S
C1037 C1038 1.502 . S
C1037 C1039 1.561 . S
C1037 C1040 1.526 . S
C1038 H1022 0.959 . S
C1038 H1023 0.959 . S
C1038 H1024 0.961 . S
C1038 C1037 1.502 . S
C1039 H1025 0.960 . S
C1039 H1026 0.961 . S
C1039 H1027 0.959 . S
C1039 C1037 1.561 . S
C1040 C1037 1.526 . S
C1040 C1041 1.396 . S
C1040 C1045 1.390 . S
C1041 C1035 1.465 . S
C1041 C1040 1.396 . S
C1041 C1042 1.399 . S
C1042 H1028 0.929 . S
C1042 C1041 1.399 . S
C1042 C1043 1.385 . S
C1043 H1029 0.931 . S
C1043 C1042 1.385 . S
C1043 C1044 1.389 . S
C1044 C1043 1.389 . S
C1044 C1045 1.387 . S
C1045 H1030 0.930 . S
C1045 C1040 1.390 . S
C1045 C1044 1.387 . S
H1046 C1058 0.930 . S
H1047 C1060 0.930 . S
H1048 C1061 0.930 . S
H1049 C1065 0.959 . S
H1050 C1065 0.959 . S
H1051 C1065 0.961 . S
H1052 C1066 0.960 . S
H1053 C1066 0.961 . S
H1054 C1066 0.959 . S
H1055 C1069 0.929 . S
H1056 C1070 0.931 . S
H1057 C1072 0.930 . S
C1058 H1046 0.930 . S
C1058 C1059 1.399 . S
C1058 C1063 1.399 . S
C1059 C1058 1.399 . S
C1059 C1060 1.376 . S
C1060 H1047 0.930 . S
C1060 C1059 1.376 . S
C1060 C1061 1.388 . S
C1061 H1048 0.930 . S
C1061 C1060 1.388 . S
C1061 C1062 1.390 . S
C1062 C1061 1.390 . S
C1062 C1063 1.394 . S
C1062 C1068 1.465 . S
C1063 C1058 1.399 . S
C1063 C1062 1.394 . S
C1063 C1064 1.516 . S
C1064 C1063 1.516 . S
C1064 C1065 1.502 . S
C1064 C1066 1.561 . S
C1064 C1067 1.526 . S
C1065 H1049 0.959 . S
C1065 H1050 0.959 . S
C1065 H1051 0.961 . S
C1065 C1064 1.502 . S
C1066 H1052 0.960 . S
C1066 H1053 0.961 . S
C1066 H1054 0.959 . S
C1066 C1064 1.561 . S
C1067 C1064 1.526 . S
C1067 C1068 1.396 . S
C1067 C1072 1.390 . S
C1068 C1062 1.465 . S
C1068 C1067 1.396 . S
C1068 C1069 1.399 . S
C1069 H1055 0.929 . S
C1069 C1068 1.399 . S
C1069 C1070 1.385 . S
C1070 H1056 0.931 . S
C1070 C1069 1.385 . S
C1070 C1071 1.389 . S
C1071 C1070 1.389 . S
C1071 C1072 1.387 . S
C1072 H1057 0.930 . S
C1072 C1067 1.390 . S
C1072 C1071 1.387 . S
H1073 C1085 0.930 . S
H1074 C1087 0.930 . S
H1075 C1088 0.930 . S
H1076 C1092 0.959 . S
H1077 C1092 0.959 . S
H1078 C1092 0.961 . S
H1079 C1093 0.969 1_455 S
H1080 C1093 0.946 1_455 S
H1081 C1093 0.944 1_455 S
H1082 C1096 0.929 . S
H1083 C1097 0.931 . S
H1084 C1099 0.930 . S
C1085 H1073 0.930 . S
C1085 C1086 1.399 . S
C1085 C1090 1.399 . S
C1086 C1085 1.399 . S
C1086 C1087 1.376 . S
C1087 H1074 0.930 . S
C1087 C1086 1.376 . S
C1087 C1088 1.388 . S
C1088 H1075 0.930 . S
C1088 C1087 1.388 . S
C1088 C1089 1.390 . S
C1089 C1088 1.390 . S
C1089 C1090 1.394 . S
C1089 C1095 1.465 . S
C1090 C1085 1.399 . S
C1090 C1089 1.394 . S
C1090 C1091 1.516 . S
C1091 C1090 1.516 . S
C1091 C1092 1.502 . S
C1091 C1093 1.583 . S
C1091 C1094 1.526 . S
C1092 H1076 0.959 . S
C1092 H1077 0.959 . S
C1092 H1078 0.961 . S
C1092 C1091 1.502 . S
C1093 H1079 0.969 1_655 S
C1093 H1080 0.946 1_655 S
C1093 H1081 0.944 1_655 S
C1093 C1091 1.583 . S
C1094 C1091 1.526 . S
C1094 C1095 1.396 . S
C1094 C1099 1.390 . S
C1095 C1089 1.465 . S
C1095 C1094 1.396 . S
C1095 C1096 1.399 . S
C1096 H1082 0.929 . S
C1096 C1095 1.399 . S
C1096 C1097 1.385 . S
C1097 H1083 0.931 . S
C1097 C1096 1.385 . S
C1097 C1098 1.389 . S
C1098 C1097 1.389 . S
C1098 C1099 1.387 . S
C1099 H1084 0.930 . S
C1099 C1094 1.390 . S
C1099 C1098 1.387 . S
H1100 C1112 0.930 . S
H1101 C1114 0.930 . S
H1102 C1115 0.930 . S
H1103 C1119 0.959 . S
H1104 C1119 0.959 . S
H1105 C1119 0.961 . S
H1106 C1120 0.960 . S
H1107 C1120 0.961 . S
H1108 C1120 0.959 . S
H1109 C1123 0.929 . S
H1110 C1124 0.931 . S
H1111 C1126 0.930 . S
C1112 H1100 0.930 . S
C1112 C1113 1.399 . S
C1112 C1117 1.399 . S
C1113 C1112 1.399 . S
C1113 C1114 1.376 . S
C1114 H1101 0.930 . S
C1114 C1113 1.376 . S
C1114 C1115 1.388 . S
C1115 H1102 0.930 . S
C1115 C1114 1.388 . S
C1115 C1116 1.390 . S
C1116 C1115 1.390 . S
C1116 C1117 1.394 . S
C1116 C1122 1.465 . S
C1117 C1112 1.399 . S
C1117 C1116 1.394 . S
C1117 C1118 1.516 . S
C1118 C1117 1.516 . S
C1118 C1119 1.502 . S
C1118 C1120 1.561 . S
C1118 C1121 1.526 . S
C1119 H1103 0.959 . S
C1119 H1104 0.959 . S
C1119 H1105 0.961 . S
C1119 C1118 1.502 . S
C1120 H1106 0.960 . S
C1120 H1107 0.961 . S
C1120 H1108 0.959 . S
C1120 C1118 1.561 . S
C1121 C1118 1.526 . S
C1121 C1122 1.396 . S
C1121 C1126 1.390 . S
C1122 C1116 1.465 . S
C1122 C1121 1.396 . S
C1122 C1123 1.399 . S
C1123 H1109 0.929 . S
C1123 C1122 1.399 . S
C1123 C1124 1.385 . S
C1124 H1110 0.931 . S
C1124 C1123 1.385 . S
C1124 C1125 1.389 . S
C1125 C1124 1.389 . S
C1125 C1126 1.387 . S
C1126 H1111 0.930 . S
C1126 C1121 1.390 . S
C1126 C1125 1.387 . S
H1127 C1139 0.930 . S
H1128 C1141 0.930 . S
H1129 C1142 0.930 . S
H1130 C1146 0.959 . S
H1131 C1146 0.959 . S
H1132 C1146 0.961 . S
H1133 C1147 0.960 . S
H1134 C1147 0.961 . S
H1135 C1147 0.959 . S
H1136 C1150 0.929 . S
H1137 C1151 0.931 . S
H1138 C1153 0.930 . S
C1139 H1127 0.930 . S
C1139 C1140 1.399 . S
C1139 C1144 1.399 . S
C1140 C1139 1.399 . S
C1140 C1141 1.376 . S
C1141 H1128 0.930 . S
C1141 C1140 1.376 . S
C1141 C1142 1.388 . S
C1142 H1129 0.930 . S
C1142 C1141 1.388 . S
C1142 C1143 1.390 . S
C1143 C1142 1.390 . S
C1143 C1144 1.394 . S
C1143 C1149 1.465 . S
C1144 C1139 1.399 . S
C1144 C1143 1.394 . S
C1144 C1145 1.516 . S
C1145 C1144 1.516 . S
C1145 C1146 1.502 . S
C1145 C1147 1.561 . S
C1145 C1148 1.526 . S
C1146 H1130 0.959 . S
C1146 H1131 0.959 . S
C1146 H1132 0.961 . S
C1146 C1145 1.502 . S
C1147 H1133 0.960 . S
C1147 H1134 0.961 . S
C1147 H1135 0.959 . S
C1147 C1145 1.561 . S
C1148 C1145 1.526 . S
C1148 C1149 1.396 . S
C1148 C1153 1.390 . S
C1149 C1143 1.465 . S
C1149 C1148 1.396 . S
C1149 C1150 1.399 . S
C1150 H1136 0.929 . S
C1150 C1149 1.399 . S
C1150 C1151 1.385 . S
C1151 H1137 0.931 . S
C1151 C1150 1.385 . S
C1151 C1152 1.389 . S
C1152 C1151 1.389 . S
C1152 C1153 1.387 . S
C1153 H1138 0.930 . S
C1153 C1148 1.390 . S
C1153 C1152 1.387 . S
H1154 C1166 0.930 . S
H1155 C1168 0.930 . S
H1156 C1169 0.930 . S
H1157 C1173 0.959 . S
H1158 C1173 0.959 . S
H1159 C1173 0.961 . S
H1160 C1174 0.960 . S
H1161 C1174 0.961 . S
H1162 C1174 0.959 . S
H1163 C1177 0.929 . S
H1164 C1178 0.931 . S
H1165 C1180 0.930 . S
C1166 H1154 0.930 . S
C1166 C1167 1.399 . S
C1166 C1171 1.399 . S
C1167 C1166 1.399 . S
C1167 C1168 1.376 . S
C1168 H1155 0.930 . S
C1168 C1167 1.376 . S
C1168 C1169 1.388 . S
C1169 H1156 0.930 . S
C1169 C1168 1.388 . S
C1169 C1170 1.390 . S
C1170 C1169 1.390 . S
C1170 C1171 1.394 . S
C1170 C1176 1.465 . S
C1171 C1166 1.399 . S
C1171 C1170 1.394 . S
C1171 C1172 1.516 . S
C1172 C1171 1.516 . S
C1172 C1173 1.502 . S
C1172 C1174 1.561 . S
C1172 C1175 1.526 . S
C1173 H1157 0.959 . S
C1173 H1158 0.959 . S
C1173 H1159 0.961 . S
C1173 C1172 1.502 . S
C1174 H1160 0.960 . S
C1174 H1161 0.961 . S
C1174 H1162 0.959 . S
C1174 C1172 1.561 . S
C1175 C1172 1.526 . S
C1175 C1176 1.396 . S
C1175 C1180 1.390 . S
C1176 C1170 1.465 . S
C1176 C1175 1.396 . S
C1176 C1177 1.399 . S
C1177 H1163 0.929 . S
C1177 C1176 1.399 . S
C1177 C1178 1.385 . S
C1178 H1164 0.931 . S
C1178 C1177 1.385 . S
C1178 C1179 1.389 . S
C1179 C1178 1.389 . S
C1179 C1180 1.387 . S
C1180 H1165 0.930 . S
C1180 C1175 1.390 . S
C1180 C1179 1.387 . S
H1181 C1193 0.930 . S
H1182 C1195 0.930 . S
H1183 C1196 0.930 . S
H1184 C1200 0.959 . S
H1185 C1200 0.959 . S
H1186 C1200 0.961 . S
H1187 C1201 0.960 . S
H1188 C1201 0.961 . S
H1189 C1201 0.959 . S
H1190 C1204 0.929 . S
H1191 C1205 0.931 . S
H1192 C1207 0.930 . S
C1193 H1181 0.930 . S
C1193 C1194 1.399 . S
C1193 C1198 1.399 . S
C1194 C1193 1.399 . S
C1194 C1195 1.376 . S
C1195 H1182 0.930 . S
C1195 C1194 1.376 . S
C1195 C1196 1.388 . S
C1196 H1183 0.930 . S
C1196 C1195 1.388 . S
C1196 C1197 1.390 . S
C1197 C1196 1.390 . S
C1197 C1198 1.394 . S
C1197 C1203 1.465 . S
C1198 C1193 1.399 . S
C1198 C1197 1.394 . S
C1198 C1199 1.516 . S
C1199 C1198 1.516 . S
C1199 C1200 1.502 . S
C1199 C1201 1.561 . S
C1199 C1202 1.526 . S
C1200 H1184 0.959 . S
C1200 H1185 0.959 . S
C1200 H1186 0.961 . S
C1200 C1199 1.502 . S
C1201 H1187 0.960 . S
C1201 H1188 0.961 . S
C1201 H1189 0.959 . S
C1201 C1199 1.561 . S
C1202 C1199 1.526 . S
C1202 C1203 1.396 . S
C1202 C1207 1.390 . S
C1203 C1197 1.465 . S
C1203 C1202 1.396 . S
C1203 C1204 1.399 . S
C1204 H1190 0.929 . S
C1204 C1203 1.399 . S
C1204 C1205 1.385 . S
C1205 H1191 0.931 . S
C1205 C1204 1.385 . S
C1205 C1206 1.389 . S
C1206 C1205 1.389 . S
C1206 C1207 1.387 . S
C1207 H1192 0.930 . S
C1207 C1202 1.390 . S
C1207 C1206 1.387 . S
H1208 C1220 0.930 . S
H1209 C1222 0.930 . S
H1210 C1223 0.930 . S
H1211 C1227 0.959 . S
H1212 C1227 0.959 . S
H1213 C1227 0.961 . S
H1214 C1228 0.960 . S
H1215 C1228 0.961 . S
H1216 C1228 0.959 . S
H1217 C1231 0.929 . S
H1218 C1232 0.931 . S
H1219 C1234 0.930 . S
C1220 H1208 0.930 . S
C1220 C1221 1.399 . S
C1220 C1225 1.399 . S
C1221 C1220 1.399 . S
C1221 C1222 1.376 . S
C1222 H1209 0.930 . S
C1222 C1221 1.376 . S
C1222 C1223 1.388 . S
C1223 H1210 0.930 . S
C1223 C1222 1.388 . S
C1223 C1224 1.390 . S
C1224 C1223 1.390 . S
C1224 C1225 1.394 . S
C1224 C1230 1.465 . S
C1225 C1220 1.399 . S
C1225 C1224 1.394 . S
C1225 C1226 1.516 . S
C1226 C1225 1.516 . S
C1226 C1227 1.502 . S
C1226 C1228 1.561 . S
C1226 C1229 1.526 . S
C1227 H1211 0.959 . S
C1227 H1212 0.959 . S
C1227 H1213 0.961 . S
C1227 C1226 1.502 . S
C1228 H1214 0.960 . S
C1228 H1215 0.961 . S
C1228 H1216 0.959 . S
C1228 C1226 1.561 . S
C1229 C1226 1.526 . S
C1229 C1230 1.396 . S
C1229 C1234 1.390 . S
C1230 C1224 1.465 . S
C1230 C1229 1.396 . S
C1230 C1231 1.399 . S
C1231 H1217 0.929 . S
C1231 C1230 1.399 . S
C1231 C1232 1.385 . S
C1232 H1218 0.931 . S
C1232 C1231 1.385 . S
C1232 C1233 1.389 . S
C1233 C1232 1.389 . S
C1233 C1234 1.387 . S
C1234 H1219 0.930 . S
C1234 C1229 1.390 . S
C1234 C1233 1.387 . S
H1235 C1247 0.930 . S
H1236 C1249 0.930 . S
H1237 C1250 0.930 . S
H1238 C1254 0.959 . S
H1239 C1254 0.959 . S
H1240 C1254 0.961 . S
H1241 C1255 0.960 . S
H1242 C1255 0.961 1_554 S
H1243 C1255 0.959 . S
H1244 C1258 0.929 . S
H1245 C1259 0.931 . S
H1246 C1261 0.930 . S
C1247 H1235 0.930 . S
C1247 C1248 1.399 . S
C1247 C1252 1.399 . S
C1248 C1247 1.399 . S
C1248 C1249 1.376 . S
C1249 H1236 0.930 . S
C1249 C1248 1.376 . S
C1249 C1250 1.388 . S
C1250 H1237 0.930 . S
C1250 C1249 1.388 . S
C1250 C1251 1.390 . S
C1251 C1250 1.390 . S
C1251 C1252 1.394 . S
C1251 C1257 1.465 . S
C1252 C1247 1.399 . S
C1252 C1251 1.394 . S
C1252 C1253 1.516 . S
C1253 C1252 1.516 . S
C1253 C1254 1.502 . S
C1253 C1255 1.561 . S
C1253 C1256 1.526 . S
C1254 H1238 0.959 . S
C1254 H1239 0.959 . S
C1254 H1240 0.961 . S
C1254 C1253 1.502 . S
C1255 H1241 0.960 . S
C1255 H1242 0.961 1_556 S
C1255 H1243 0.959 . S
C1255 C1253 1.561 . S
C1256 C1253 1.526 . S
C1256 C1257 1.396 . S
C1256 C1261 1.390 . S
C1257 C1251 1.465 . S
C1257 C1256 1.396 . S
C1257 C1258 1.399 . S
C1258 H1244 0.929 . S
C1258 C1257 1.399 . S
C1258 C1259 1.385 . S
C1259 H1245 0.931 . S
C1259 C1258 1.385 . S
C1259 C1260 1.389 . S
C1260 C1259 1.389 . S
C1260 C1261 1.387 . S
C1261 H1246 0.930 . S
C1261 C1256 1.390 . S
C1261 C1260 1.387 . S
H1262 C1274 0.930 . S
H1263 C1276 0.930 . S
H1264 C1277 0.930 . S
H1265 C1281 0.959 . S
H1266 C1281 0.959 . S
H1267 C1281 0.961 . S
H1268 C1282 0.960 . S
H1269 C1282 0.961 . S
H1270 C1282 0.959 . S
H1271 C1285 0.929 . S
H1272 C1286 0.931 . S
H1273 C1288 0.930 . S
C1274 H1262 0.930 . S
C1274 C1275 1.399 . S
C1274 C1279 1.399 . S
C1275 C1274 1.399 . S
C1275 C1276 1.376 . S
C1276 H1263 0.930 . S
C1276 C1275 1.376 . S
C1276 C1277 1.388 . S
C1277 H1264 0.930 . S
C1277 C1276 1.388 . S
C1277 C1278 1.390 . S
C1278 C1277 1.390 . S
C1278 C1279 1.394 . S
C1278 C1284 1.465 . S
C1279 C1274 1.399 . S
C1279 C1278 1.394 . S
C1279 C1280 1.516 . S
C1280 C1279 1.516 . S
C1280 C1281 1.502 . S
C1280 C1282 1.561 . S
C1280 C1283 1.526 . S
C1281 H1265 0.959 . S
C1281 H1266 0.959 . S
C1281 H1267 0.961 . S
C1281 C1280 1.502 . S
C1282 H1268 0.960 . S
C1282 H1269 0.961 . S
C1282 H1270 0.959 . S
C1282 C1280 1.561 . S
C1283 C1280 1.526 . S
C1283 C1284 1.396 . S
C1283 C1288 1.390 . S
C1284 C1278 1.465 . S
C1284 C1283 1.396 . S
C1284 C1285 1.399 . S
C1285 H1271 0.929 . S
C1285 C1284 1.399 . S
C1285 C1286 1.385 . S
C1286 H1272 0.931 . S
C1286 C1285 1.385 . S
C1286 C1287 1.389 . S
C1287 C1286 1.389 . S
C1287 C1288 1.387 . S
C1288 H1273 0.930 . S
C1288 C1283 1.390 . S
C1288 C1287 1.387 . S
H1289 C1301 0.930 . S
H1290 C1303 0.930 . S
H1291 C1304 0.930 . S
H1292 C1308 0.959 . S
H1293 C1308 0.959 . S
H1294 C1308 0.961 . S
H1295 C1309 0.960 . S
H1296 C1309 0.961 . S
H1297 C1309 0.959 . S
H1298 C1312 0.929 . S
H1299 C1313 0.931 . S
H1300 C1315 0.930 . S
C1301 H1289 0.930 . S
C1301 C1302 1.399 . S
C1301 C1306 1.399 . S
C1302 C1301 1.399 . S
C1302 C1303 1.376 . S
C1303 H1290 0.930 . S
C1303 C1302 1.376 . S
C1303 C1304 1.388 . S
C1304 H1291 0.930 . S
C1304 C1303 1.388 . S
C1304 C1305 1.390 . S
C1305 C1304 1.390 . S
C1305 C1306 1.394 . S
C1305 C1311 1.465 . S
C1306 C1301 1.399 . S
C1306 C1305 1.394 . S
C1306 C1307 1.516 . S
C1307 C1306 1.516 . S
C1307 C1308 1.502 . S
C1307 C1309 1.561 . S
C1307 C1310 1.526 . S
C1308 H1292 0.959 . S
C1308 H1293 0.959 . S
C1308 H1294 0.961 . S
C1308 C1307 1.502 . S
C1309 H1295 0.960 . S
C1309 H1296 0.961 . S
C1309 H1297 0.959 . S
C1309 C1307 1.561 . S
C1310 C1307 1.526 . S
C1310 C1311 1.396 . S
C1310 C1315 1.390 . S
C1311 C1305 1.465 . S
C1311 C1310 1.396 . S
C1311 C1312 1.399 . S
C1312 H1298 0.929 . S
C1312 C1311 1.399 . S
C1312 C1313 1.385 . S
C1313 H1299 0.931 . S
C1313 C1312 1.385 . S
C1313 C1314 1.389 . S
C1314 C1313 1.389 . S
C1314 C1315 1.387 . S
C1315 H1300 0.930 . S
C1315 C1310 1.390 . S
C1315 C1314 1.387 . S
H1316 C1328 0.930 . S
H1317 C1330 0.930 . S
H1318 C1331 0.930 . S
H1319 C1335 0.959 . S
H1320 C1335 0.959 . S
H1321 C1335 0.961 . S
H1322 C1336 0.960 . S
H1323 C1336 0.961 . S
H1324 C1336 0.959 . S
H1325 C1339 0.929 . S
H1326 C1340 0.931 . S
H1327 C1342 0.930 . S
C1328 H1316 0.930 . S
C1328 C1329 1.399 . S
C1328 C1333 1.399 . S
C1329 C1328 1.399 . S
C1329 C1330 1.376 . S
C1330 H1317 0.930 . S
C1330 C1329 1.376 . S
C1330 C1331 1.388 . S
C1331 H1318 0.930 . S
C1331 C1330 1.388 . S
C1331 C1332 1.390 . S
C1332 C1331 1.390 . S
C1332 C1333 1.394 . S
C1332 C1338 1.465 . S
C1333 C1328 1.399 . S
C1333 C1332 1.394 . S
C1333 C1334 1.516 . S
C1334 C1333 1.516 . S
C1334 C1335 1.502 . S
C1334 C1336 1.561 . S
C1334 C1337 1.526 . S
C1335 H1319 0.959 . S
C1335 H1320 0.959 . S
C1335 H1321 0.961 . S
C1335 C1334 1.502 . S
C1336 H1322 0.960 . S
C1336 H1323 0.961 . S
C1336 H1324 0.959 . S
C1336 C1334 1.561 . S
C1337 C1334 1.526 . S
C1337 C1338 1.396 . S
C1337 C1342 1.390 . S
C1338 C1332 1.465 . S
C1338 C1337 1.396 . S
C1338 C1339 1.399 . S
C1339 H1325 0.929 . S
C1339 C1338 1.399 . S
C1339 C1340 1.385 . S
C1340 H1326 0.931 . S
C1340 C1339 1.385 . S
C1340 C1341 1.389 . S
C1341 C1340 1.389 . S
C1341 C1342 1.387 . S
C1342 H1327 0.930 . S
C1342 C1337 1.390 . S
C1342 C1341 1.387 . S
H1343 C1355 0.930 . S
H1344 C1357 0.930 . S
H1345 C1358 0.930 . S
H1346 C1362 0.959 . S
H1347 C1362 0.959 . S
H1348 C1362 0.961 . S
H1349 C1363 0.960 . S
H1350 C1363 0.961 . S
H1351 C1363 0.959 . S
H1352 C1366 0.929 . S
H1353 C1367 0.931 . S
H1354 C1369 0.930 . S
C1355 H1343 0.930 . S
C1355 C1356 1.399 . S
C1355 C1360 1.399 . S
C1356 C1355 1.399 . S
C1356 C1357 1.376 . S
C1357 H1344 0.930 . S
C1357 C1356 1.376 . S
C1357 C1358 1.388 . S
C1358 H1345 0.930 . S
C1358 C1357 1.388 . S
C1358 C1359 1.390 . S
C1359 C1358 1.390 . S
C1359 C1360 1.394 . S
C1359 C1365 1.465 . S
C1360 C1355 1.399 . S
C1360 C1359 1.394 . S
C1360 C1361 1.516 . S
C1361 C1360 1.516 . S
C1361 C1362 1.502 . S
C1361 C1363 1.561 . S
C1361 C1364 1.526 . S
C1362 H1346 0.959 . S
C1362 H1347 0.959 . S
C1362 H1348 0.961 . S
C1362 C1361 1.502 . S
C1363 H1349 0.960 . S
C1363 H1350 0.961 . S
C1363 H1351 0.959 . S
C1363 C1361 1.561 . S
C1364 C1361 1.526 . S
C1364 C1365 1.396 . S
C1364 C1369 1.390 . S
C1365 C1359 1.465 . S
C1365 C1364 1.396 . S
C1365 C1366 1.399 . S
C1366 H1352 0.929 . S
C1366 C1365 1.399 . S
C1366 C1367 1.385 . S
C1367 H1353 0.931 . S
C1367 C1366 1.385 . S
C1367 C1368 1.389 . S
C1368 C1367 1.389 . S
C1368 C1369 1.387 . S
C1369 H1354 0.930 . S
C1369 C1364 1.390 . S
C1369 C1368 1.387 . S
H1370 C1382 0.930 . S
H1371 C1384 0.930 . S
H1372 C1385 0.930 . S
H1373 C1389 0.959 . S
H1374 C1389 0.959 . S
H1375 C1389 0.961 . S
H1376 C1390 0.960 . S
H1377 C1390 0.961 . S
H1378 C1390 0.959 . S
H1379 C1393 0.929 . S
H1380 C1394 0.931 . S
H1381 C1396 0.930 . S
C1382 H1370 0.930 . S
C1382 C1383 1.399 . S
C1382 C1387 1.399 . S
C1383 C1382 1.399 . S
C1383 C1384 1.376 . S
C1384 H1371 0.930 . S
C1384 C1383 1.376 . S
C1384 C1385 1.388 . S
C1385 H1372 0.930 . S
C1385 C1384 1.388 . S
C1385 C1386 1.390 . S
C1386 C1385 1.390 . S
C1386 C1387 1.394 . S
C1386 C1392 1.465 . S
C1387 C1382 1.399 . S
C1387 C1386 1.394 . S
C1387 C1388 1.516 . S
C1388 C1387 1.516 . S
C1388 C1389 1.502 . S
C1388 C1390 1.561 . S
C1388 C1391 1.526 . S
C1389 H1373 0.959 . S
C1389 H1374 0.959 . S
C1389 H1375 0.961 . S
C1389 C1388 1.502 . S
C1390 H1376 0.960 . S
C1390 H1377 0.961 . S
C1390 H1378 0.959 . S
C1390 C1388 1.561 . S
C1391 C1388 1.526 . S
C1391 C1392 1.396 . S
C1391 C1396 1.390 . S
C1392 C1386 1.465 . S
C1392 C1391 1.396 . S
C1392 C1393 1.399 . S
C1393 H1379 0.929 . S
C1393 C1392 1.399 . S
C1393 C1394 1.385 . S
C1394 H1380 0.931 . S
C1394 C1393 1.385 . S
C1394 C1395 1.389 . S
C1395 C1394 1.389 . S
C1395 C1396 1.387 . S
C1396 H1381 0.930 . S
C1396 C1391 1.390 . S
C1396 C1395 1.387 . S
H1397 C1409 0.930 . S
H1398 C1411 0.930 . S
H1399 C1412 0.930 . S
H1400 C1416 0.959 . S
H1401 C1416 0.959 . S
H1402 C1416 0.961 . S
H1403 C1417 0.960 . S
H1404 C1417 0.961 . S
H1405 C1417 0.959 . S
H1406 C1420 0.929 . S
H1407 C1421 0.931 . S
H1408 C1423 0.930 . S
C1409 H1397 0.930 . S
C1409 C1410 1.399 . S
C1409 C1414 1.399 . S
C1410 C1409 1.399 . S
C1410 C1411 1.376 . S
C1411 H1398 0.930 . S
C1411 C1410 1.376 . S
C1411 C1412 1.388 . S
C1412 H1399 0.930 . S
C1412 C1411 1.388 . S
C1412 C1413 1.390 . S
C1413 C1412 1.390 . S
C1413 C1414 1.394 . S
C1413 C1419 1.465 . S
C1414 C1409 1.399 . S
C1414 C1413 1.394 . S
C1414 C1415 1.516 . S
C1415 C1414 1.516 . S
C1415 C1416 1.502 . S
C1415 C1417 1.561 . S
C1415 C1418 1.526 . S
C1416 H1400 0.959 . S
C1416 H1401 0.959 . S
C1416 H1402 0.961 . S
C1416 C1415 1.502 . S
C1417 H1403 0.960 . S
C1417 H1404 0.961 . S
C1417 H1405 0.959 . S
C1417 C1415 1.561 . S
C1418 C1415 1.526 . S
C1418 C1419 1.396 . S
C1418 C1423 1.390 . S
C1419 C1413 1.465 . S
C1419 C1418 1.396 . S
C1419 C1420 1.399 . S
C1420 H1406 0.929 . S
C1420 C1419 1.399 . S
C1420 C1421 1.385 . S
C1421 H1407 0.931 . S
C1421 C1420 1.385 . S
C1421 C1422 1.389 . S
C1422 C1421 1.389 . S
C1422 C1423 1.387 . S
C1423 H1408 0.930 . S
C1423 C1418 1.390 . S
C1423 C1422 1.387 . S
H1424 C1436 0.930 . S
H1425 C1438 0.930 . S
H1426 C1439 0.930 . S
H1427 C1443 0.959 . S
H1428 C1443 0.959 . S
H1429 C1443 0.961 . S
H1430 C1444 0.960 . S
H1431 C1444 0.961 . S
H1432 C1444 0.959 . S
H1433 C1447 0.929 . S
H1434 C1448 0.931 . S
H1435 C1450 0.930 . S
C1436 H1424 0.930 . S
C1436 C1437 1.399 . S
C1436 C1441 1.399 . S
C1437 C1436 1.399 . S
C1437 C1438 1.376 . S
C1438 H1425 0.930 . S
C1438 C1437 1.376 . S
C1438 C1439 1.388 . S
C1439 H1426 0.930 . S
C1439 C1438 1.388 . S
C1439 C1440 1.390 . S
C1440 C1439 1.390 . S
C1440 C1441 1.394 . S
C1440 C1446 1.465 . S
C1441 C1436 1.399 . S
C1441 C1440 1.394 . S
C1441 C1442 1.516 . S
C1442 C1441 1.516 . S
C1442 C1443 1.502 . S
C1442 C1444 1.561 . S
C1442 C1445 1.526 . S
C1443 H1427 0.959 . S
C1443 H1428 0.959 . S
C1443 H1429 0.961 . S
C1443 C1442 1.502 . S
C1444 H1430 0.960 . S
C1444 H1431 0.961 . S
C1444 H1432 0.959 . S
C1444 C1442 1.561 . S
C1445 C1442 1.526 . S
C1445 C1446 1.396 . S
C1445 C1450 1.390 . S
C1446 C1440 1.465 . S
C1446 C1445 1.396 . S
C1446 C1447 1.399 . S
C1447 H1433 0.929 . S
C1447 C1446 1.399 . S
C1447 C1448 1.385 . S
C1448 H1434 0.931 . S
C1448 C1447 1.385 . S
C1448 C1449 1.389 . S
C1449 C1448 1.389 . S
C1449 C1450 1.387 . S
C1450 H1435 0.930 . S
C1450 C1445 1.390 . S
C1450 C1449 1.387 . S
H1451 C1463 0.930 . S
H1452 C1465 0.930 . S
H1453 C1466 0.930 . S
H1454 C1470 0.959 . S
H1455 C1470 0.959 . S
H1456 C1470 0.961 . S
H1457 C1471 0.960 . S
H1458 C1471 0.961 . S
H1459 C1471 0.959 . S
H1460 C1474 0.929 . S
H1461 C1475 0.931 . S
H1462 C1477 0.930 . S
C1463 H1451 0.930 . S
C1463 C1464 1.399 . S
C1463 C1468 1.399 . S
C1464 C1463 1.399 . S
C1464 C1465 1.376 . S
C1465 H1452 0.930 . S
C1465 C1464 1.376 . S
C1465 C1466 1.388 . S
C1466 H1453 0.930 . S
C1466 C1465 1.388 . S
C1466 C1467 1.390 . S
C1467 C1466 1.390 . S
C1467 C1468 1.394 . S
C1467 C1473 1.465 . S
C1468 C1463 1.399 . S
C1468 C1467 1.394 . S
C1468 C1469 1.516 . S
C1469 C1468 1.516 . S
C1469 C1470 1.502 . S
C1469 C1471 1.561 . S
C1469 C1472 1.526 . S
C1470 H1454 0.959 . S
C1470 H1455 0.959 . S
C1470 H1456 0.961 . S
C1470 C1469 1.502 . S
C1471 H1457 0.960 . S
C1471 H1458 0.961 . S
C1471 H1459 0.959 . S
C1471 C1469 1.561 . S
C1472 C1469 1.526 . S
C1472 C1473 1.396 . S
C1472 C1477 1.390 . S
C1473 C1467 1.465 . S
C1473 C1472 1.396 . S
C1473 C1474 1.399 . S
C1474 H1460 0.929 . S
C1474 C1473 1.399 . S
C1474 C1475 1.385 . S
C1475 H1461 0.931 . S
C1475 C1474 1.385 . S
C1475 C1476 1.389 . S
C1476 C1475 1.389 . S
C1476 C1477 1.387 . S
C1477 H1462 0.930 . S
C1477 C1472 1.390 . S
C1477 C1476 1.387 . S
H1478 C1490 0.930 . S
H1479 C1492 0.930 . S
H1480 C1493 0.930 . S
H1481 C1497 0.959 . S
H1482 C1497 0.959 . S
H1483 C1497 0.961 . S
H1484 C1498 0.960 . S
H1485 C1498 0.961 . S
H1486 C1498 0.959 . S
H1487 C1501 0.929 . S
H1488 C1502 0.931 . S
H1489 C1504 0.930 . S
C1490 H1478 0.930 . S
C1490 C1491 1.399 . S
C1490 C1495 1.399 . S
C1491 C1490 1.399 . S
C1491 C1492 1.376 . S
C1492 H1479 0.930 . S
C1492 C1491 1.376 . S
C1492 C1493 1.388 . S
C1493 H1480 0.930 . S
C1493 C1492 1.388 . S
C1493 C1494 1.390 . S
C1494 C1493 1.390 . S
C1494 C1495 1.394 . S
C1494 C1500 1.465 . S
C1495 C1490 1.399 . S
C1495 C1494 1.394 . S
C1495 C1496 1.516 . S
C1496 C1495 1.516 . S
C1496 C1497 1.502 . S
C1496 C1498 1.561 . S
C1496 C1499 1.526 . S
C1497 H1481 0.959 . S
C1497 H1482 0.959 . S
C1497 H1483 0.961 . S
C1497 C1496 1.502 . S
C1498 H1484 0.960 . S
C1498 H1485 0.961 . S
C1498 H1486 0.959 . S
C1498 C1496 1.561 . S
C1499 C1496 1.526 . S
C1499 C1500 1.396 . S
C1499 C1504 1.390 . S
C1500 C1494 1.465 . S
C1500 C1499 1.396 . S
C1500 C1501 1.399 . S
C1501 H1487 0.929 . S
C1501 C1500 1.399 . S
C1501 C1502 1.385 . S
C1502 H1488 0.931 . S
C1502 C1501 1.385 . S
C1502 C1503 1.389 . S
C1503 C1502 1.389 . S
C1503 C1504 1.387 . S
C1504 H1489 0.930 . S
C1504 C1499 1.390 . S
C1504 C1503 1.387 . S
H1505 C1517 0.930 . S
H1506 C1519 0.930 . S
H1507 C1520 0.930 . S
H1508 C1524 0.959 . S
H1509 C1524 0.959 . S
H1510 C1524 0.961 . S
H1511 C1525 0.960 . S
H1512 C1525 0.961 . S
H1513 C1525 0.959 . S
H1514 C1528 0.929 . S
H1515 C1529 0.931 1_545 S
H1516 C1531 0.930 . S
C1517 H1505 0.930 . S
C1517 C1518 1.399 . S
C1517 C1522 1.399 . S
C1518 C1517 1.399 . S
C1518 C1519 1.376 . S
C1519 H1506 0.930 . S
C1519 C1518 1.376 . S
C1519 C1520 1.388 . S
C1520 H1507 0.930 . S
C1520 C1519 1.388 . S
C1520 C1521 1.390 . S
C1521 C1520 1.390 . S
C1521 C1522 1.394 . S
C1521 C1527 1.465 . S
C1522 C1517 1.399 . S
C1522 C1521 1.394 . S
C1522 C1523 1.516 . S
C1523 C1522 1.516 . S
C1523 C1524 1.502 . S
C1523 C1525 1.561 . S
C1523 C1526 1.526 . S
C1524 H1508 0.959 . S
C1524 H1509 0.959 . S
C1524 H1510 0.961 . S
C1524 C1523 1.502 . S
C1525 H1511 0.960 . S
C1525 H1512 0.961 . S
C1525 H1513 0.959 . S
C1525 C1523 1.561 . S
C1526 C1523 1.526 . S
C1526 C1527 1.396 . S
C1526 C1531 1.390 . S
C1527 C1521 1.465 . S
C1527 C1526 1.396 . S
C1527 C1528 1.399 . S
C1528 H1514 0.929 . S
C1528 C1527 1.399 . S
C1528 C1529 1.385 . S
C1529 H1515 0.931 1_565 S
C1529 C1528 1.385 . S
C1529 C1530 1.389 . S
C1530 C1529 1.389 . S
C1530 C1531 1.387 . S
C1531 H1516 0.930 . S
C1531 C1526 1.390 . S
C1531 C1530 1.387 . S
H1532 C1544 0.930 . S
H1533 C1546 0.930 . S
H1534 C1547 0.930 . S
H1535 C1551 0.959 . S
H1536 C1551 0.959 . S
H1537 C1551 0.961 . S
H1538 C1552 0.960 . S
H1539 C1552 0.961 . S
H1540 C1552 0.959 . S
H1541 C1555 0.929 . S
H1542 C1556 0.931 . S
H1543 C1558 0.930 . S
C1544 H1532 0.930 . S
C1544 C1545 1.399 . S
C1544 C1549 1.399 . S
C1545 C1544 1.399 . S
C1545 C1546 1.376 . S
C1546 H1533 0.930 . S
C1546 C1545 1.376 . S
C1546 C1547 1.388 . S
C1547 H1534 0.930 . S
C1547 C1546 1.388 . S
C1547 C1548 1.390 . S
C1548 C1547 1.390 . S
C1548 C1549 1.394 . S
C1548 C1554 1.465 . S
C1549 C1544 1.399 . S
C1549 C1548 1.394 . S
C1549 C1550 1.516 . S
C1550 C1549 1.516 . S
C1550 C1551 1.502 . S
C1550 C1552 1.561 . S
C1550 C1553 1.526 . S
C1551 H1535 0.959 . S
C1551 H1536 0.959 . S
C1551 H1537 0.961 . S
C1551 C1550 1.502 . S
C1552 H1538 0.960 . S
C1552 H1539 0.961 . S
C1552 H1540 0.959 . S
C1552 C1550 1.561 . S
C1553 C1550 1.526 . S
C1553 C1554 1.396 . S
C1553 C1558 1.390 . S
C1554 C1548 1.465 . S
C1554 C1553 1.396 . S
C1554 C1555 1.399 . S
C1555 H1541 0.929 . S
C1555 C1554 1.399 . S
C1555 C1556 1.385 . S
C1556 H1542 0.931 . S
C1556 C1555 1.385 . S
C1556 C1557 1.389 . S
C1557 C1556 1.389 . S
C1557 C1558 1.387 . S
C1558 H1543 0.930 . S
C1558 C1553 1.390 . S
C1558 C1557 1.387 . S
H1559 C1571 0.930 . S
H1560 C1573 0.930 . S
H1561 C1574 0.930 . S
H1562 C1578 0.959 . S
H1563 C1578 0.959 . S
H1564 C1578 0.961 . S
H1565 C1579 0.960 . S
H1566 C1579 0.961 . S
H1567 C1579 0.959 . S
H1568 C1582 0.929 . S
H1569 C1583 0.931 . S
H1570 C1585 0.930 . S
C1571 H1559 0.930 . S
C1571 C1572 1.399 . S
C1571 C1576 1.399 . S
C1572 C1571 1.399 . S
C1572 C1573 1.376 . S
C1573 H1560 0.930 . S
C1573 C1572 1.376 . S
C1573 C1574 1.388 . S
C1574 H1561 0.930 . S
C1574 C1573 1.388 . S
C1574 C1575 1.390 . S
C1575 C1574 1.390 . S
C1575 C1576 1.394 . S
C1575 C1581 1.465 . S
C1576 C1571 1.399 . S
C1576 C1575 1.394 . S
C1576 C1577 1.516 . S
C1577 C1576 1.516 . S
C1577 C1578 1.502 . S
C1577 C1579 1.561 . S
C1577 C1580 1.526 . S
C1578 H1562 0.959 . S
C1578 H1563 0.959 . S
C1578 H1564 0.961 . S
C1578 C1577 1.502 . S
C1579 H1565 0.960 . S
C1579 H1566 0.961 . S
C1579 H1567 0.959 . S
C1579 C1577 1.561 . S
C1580 C1577 1.526 . S
C1580 C1581 1.396 . S
C1580 C1585 1.390 . S
C1581 C1575 1.465 . S
C1581 C1580 1.396 . S
C1581 C1582 1.399 . S
C1582 H1568 0.929 . S
C1582 C1581 1.399 . S
C1582 C1583 1.385 . S
C1583 H1569 0.931 . S
C1583 C1582 1.385 . S
C1583 C1584 1.389 . S
C1584 C1583 1.389 . S
C1584 C1585 1.387 . S
C1585 H1570 0.930 . S
C1585 C1580 1.390 . S
C1585 C1584 1.387 . S
H1586 C1598 0.930 . S
H1587 C1600 0.930 . S
H1588 C1601 0.930 . S
H1589 C1605 0.959 . S
H1590 C1605 0.959 . S
H1591 C1605 0.961 . S
H1592 C1606 0.960 . S
H1593 C1606 0.961 . S
H1594 C1606 0.959 . S
H1595 C1609 0.929 . S
H1596 C1610 0.931 . S
H1597 C1612 0.930 . S
C1598 H1586 0.930 . S
C1598 C1599 1.399 . S
C1598 C1603 1.399 . S
C1599 C1598 1.399 . S
C1599 C1600 1.376 . S
C1600 H1587 0.930 . S
C1600 C1599 1.376 . S
C1600 C1601 1.388 . S
C1601 H1588 0.930 . S
C1601 C1600 1.388 . S
C1601 C1602 1.390 . S
C1602 C1601 1.390 . S
C1602 C1603 1.394 . S
C1602 C1608 1.465 . S
C1603 C1598 1.399 . S
C1603 C1602 1.394 . S
C1603 C1604 1.516 . S
C1604 C1603 1.516 . S
C1604 C1605 1.502 . S
C1604 C1606 1.561 . S
C1604 C1607 1.526 . S
C1605 H1589 0.959 . S
C1605 H1590 0.959 . S
C1605 H1591 0.961 . S
C1605 C1604 1.502 . S
C1606 H1592 0.960 . S
C1606 H1593 0.961 . S
C1606 H1594 0.959 . S
C1606 C1604 1.561 . S
C1607 C1604 1.526 . S
C1607 C1608 1.396 . S
C1607 C1612 1.390 . S
C1608 C1602 1.465 . S
C1608 C1607 1.396 . S
C1608 C1609 1.399 . S
C1609 H1595 0.929 . S
C1609 C1608 1.399 . S
C1609 C1610 1.385 . S
C1610 H1596 0.931 . S
C1610 C1609 1.385 . S
C1610 C1611 1.389 . S
C1611 C1610 1.389 . S
C1611 C1612 1.387 . S
C1612 H1597 0.930 . S
C1612 C1607 1.390 . S
C1612 C1611 1.387 . S
H1613 C1625 0.930 . S
H1614 C1627 0.930 . S
H1615 C1628 0.930 . S
H1616 C1632 0.959 . S
H1617 C1632 0.959 . S
H1618 C1632 0.961 . S
H1619 C1633 0.960 . S
H1620 C1633 0.961 . S
H1621 C1633 0.959 . S
H1622 C1636 0.929 . S
H1623 C1637 0.931 . S
H1624 C1639 0.930 . S
C1625 H1613 0.930 . S
C1625 C1626 1.399 . S
C1625 C1630 1.399 . S
C1626 C1625 1.399 . S
C1626 C1627 1.376 . S
C1627 H1614 0.930 . S
C1627 C1626 1.376 . S
C1627 C1628 1.388 . S
C1628 H1615 0.930 . S
C1628 C1627 1.388 . S
C1628 C1629 1.390 . S
C1629 C1628 1.390 . S
C1629 C1630 1.394 . S
C1629 C1635 1.465 . S
C1630 C1625 1.399 . S
C1630 C1629 1.394 . S
C1630 C1631 1.516 . S
C1631 C1630 1.516 . S
C1631 C1632 1.502 . S
C1631 C1633 1.561 . S
C1631 C1634 1.526 . S
C1632 H1616 0.959 . S
C1632 H1617 0.959 . S
C1632 H1618 0.961 . S
C1632 C1631 1.502 . S
C1633 H1619 0.960 . S
C1633 H1620 0.961 . S
C1633 H1621 0.959 . S
C1633 C1631 1.561 . S
C1634 C1631 1.526 . S
C1634 C1635 1.396 . S
C1634 C1639 1.390 . S
C1635 C1629 1.465 . S
C1635 C1634 1.396 . S
C1635 C1636 1.399 . S
C1636 H1622 0.929 . S
C1636 C1635 1.399 . S
C1636 C1637 1.385 . S
C1637 H1623 0.931 . S
C1637 C1636 1.385 . S
C1637 C1638 1.389 . S
C1638 C1637 1.389 . S
C1638 C1639 1.387 . S
C1639 H1624 0.930 . S
C1639 C1634 1.390 . S
C1639 C1638 1.387 . S
H1640 C1652 0.930 . S
H1641 C1654 0.930 . S
H1642 C1655 0.930 . S
H1643 C1659 0.959 . S
H1644 C1659 0.959 . S
H1645 C1659 0.961 . S
H1646 C1660 0.960 . S
H1647 C1660 0.961 . S
H1648 C1660 0.959 . S
H1649 C1663 0.929 . S
H1650 C1664 0.931 . S
H1651 C1666 0.930 . S
C1652 H1640 0.930 . S
C1652 C1653 1.399 . S
C1652 C1657 1.399 . S
C1653 C1652 1.399 . S
C1653 C1654 1.376 . S
C1654 H1641 0.930 . S
C1654 C1653 1.376 . S
C1654 C1655 1.388 . S
C1655 H1642 0.930 . S
C1655 C1654 1.388 . S
C1655 C1656 1.390 . S
C1656 C1655 1.390 . S
C1656 C1657 1.394 . S
C1656 C1662 1.465 . S
C1657 C1652 1.399 . S
C1657 C1656 1.394 . S
C1657 C1658 1.516 . S
C1658 C1657 1.516 . S
C1658 C1659 1.502 . S
C1658 C1660 1.561 . S
C1658 C1661 1.526 . S
C1659 H1643 0.959 . S
C1659 H1644 0.959 . S
C1659 H1645 0.961 . S
C1659 C1658 1.502 . S
C1660 H1646 0.960 . S
C1660 H1647 0.961 . S
C1660 H1648 0.959 . S
C1660 C1658 1.561 . S
C1661 C1658 1.526 . S
C1661 C1662 1.396 . S
C1661 C1666 1.390 . S
C1662 C1656 1.465 . S
C1662 C1661 1.396 . S
C1662 C1663 1.399 . S
C1663 H1649 0.929 . S
C1663 C1662 1.399 . S
C1663 C1664 1.385 . S
C1664 H1650 0.931 . S
C1664 C1663 1.385 . S
C1664 C1665 1.389 . S
C1665 C1664 1.389 . S
C1665 C1666 1.387 . S
C1666 H1651 0.930 . S
C1666 C1661 1.390 . S
C1666 C1665 1.387 . S
H1667 C1679 0.930 . S
H1668 C1681 0.930 . S
H1669 C1682 0.930 . S
H1670 C1686 0.959 . S
H1671 C1686 0.959 . S
H1672 C1686 0.961 . S
H1673 C1687 0.960 . S
H1674 C1687 0.961 . S
H1675 C1687 0.959 . S
H1676 C1690 0.929 . S
H1677 C1691 0.931 . S
H1678 C1693 0.930 . S
C1679 H1667 0.930 . S
C1679 C1680 1.399 . S
C1679 C1684 1.399 . S
C1680 C1679 1.399 . S
C1680 C1681 1.376 . S
C1681 H1668 0.930 . S
C1681 C1680 1.376 . S
C1681 C1682 1.388 . S
C1682 H1669 0.930 . S
C1682 C1681 1.388 . S
C1682 C1683 1.390 . S
C1683 C1682 1.390 . S
C1683 C1684 1.394 . S
C1683 C1689 1.465 . S
C1684 C1679 1.399 . S
C1684 C1683 1.394 . S
C1684 C1685 1.516 . S
C1685 C1684 1.516 . S
C1685 C1686 1.502 . S
C1685 C1687 1.561 . S
C1685 C1688 1.526 . S
C1686 H1670 0.959 . S
C1686 H1671 0.959 . S
C1686 H1672 0.961 . S
C1686 C1685 1.502 . S
C1687 H1673 0.960 . S
C1687 H1674 0.961 . S
C1687 H1675 0.959 . S
C1687 C1685 1.561 . S
C1688 C1685 1.526 . S
C1688 C1689 1.396 . S
C1688 C1693 1.390 . S
C1689 C1683 1.465 . S
C1689 C1688 1.396 . S
C1689 C1690 1.399 . S
C1690 H1676 0.929 . S
C1690 C1689 1.399 . S
C1690 C1691 1.385 . S
C1691 H1677 0.931 . S
C1691 C1690 1.385 . S
C1691 C1692 1.389 . S
C1692 C1691 1.389 . S
C1692 C1693 1.387 . S
C1693 H1678 0.930 . S
C1693 C1688 1.390 . S
C1693 C1692 1.387 . S
H1694 C1706 0.930 . S
H1695 C1708 0.930 . S
H1696 C1709 0.930 . S
H1697 C1713 0.959 . S
H1698 C1713 0.959 . S
H1699 C1713 0.961 . S
H1700 C1714 0.960 . S
H1701 C1714 0.961 . S
H1702 C1714 0.959 . S
H1703 C1717 0.929 . S
H1704 C1718 0.931 . S
H1705 C1720 0.930 . S
C1706 H1694 0.930 . S
C1706 C1707 1.399 . S
C1706 C1711 1.399 . S
C1707 C1706 1.399 . S
C1707 C1708 1.376 . S
C1708 H1695 0.930 . S
C1708 C1707 1.376 . S
C1708 C1709 1.388 . S
C1709 H1696 0.930 . S
C1709 C1708 1.388 . S
C1709 C1710 1.390 . S
C1710 C1709 1.390 . S
C1710 C1711 1.394 . S
C1710 C1716 1.465 . S
C1711 C1706 1.399 . S
C1711 C1710 1.394 . S
C1711 C1712 1.516 . S
C1712 C1711 1.516 . S
C1712 C1713 1.502 . S
C1712 C1714 1.561 . S
C1712 C1715 1.526 . S
C1713 H1697 0.959 . S
C1713 H1698 0.959 . S
C1713 H1699 0.961 . S
C1713 C1712 1.502 . S
C1714 H1700 0.960 . S
C1714 H1701 0.961 . S
C1714 H1702 0.959 . S
C1714 C1712 1.561 . S
C1715 C1712 1.526 . S
C1715 C1716 1.396 . S
C1715 C1720 1.390 . S
C1716 C1710 1.465 . S
C1716 C1715 1.396 . S
C1716 C1717 1.399 . S
C1717 H1703 0.929 . S
C1717 C1716 1.399 . S
C1717 C1718 1.385 . S
C1718 H1704 0.931 . S
C1718 C1717 1.385 . S
C1718 C1719 1.389 . S
C1719 C1718 1.389 . S
C1719 C1720 1.387 . S
C1720 H1705 0.930 . S
C1720 C1715 1.390 . S
C1720 C1719 1.387 . S
H1721 C1733 0.930 . S
H1722 C1735 0.930 . S
H1723 C1736 0.930 . S
H1724 C1740 0.959 . S
H1725 C1740 0.959 . S
H1726 C1740 0.961 . S
H1727 C1741 0.960 . S
H1728 C1741 0.961 . S
H1729 C1741 0.959 . S
H1730 C1744 0.929 . S
H1731 C1745 0.931 . S
H1732 C1747 0.930 . S
C1733 H1721 0.930 . S
C1733 C1734 1.399 . S
C1733 C1738 1.399 . S
C1734 C1733 1.399 . S
C1734 C1735 1.376 . S
C1735 H1722 0.930 . S
C1735 C1734 1.376 . S
C1735 C1736 1.388 . S
C1736 H1723 0.930 . S
C1736 C1735 1.388 . S
C1736 C1737 1.390 . S
C1737 C1736 1.390 . S
C1737 C1738 1.394 . S
C1737 C1743 1.465 . S
C1738 C1733 1.399 . S
C1738 C1737 1.394 . S
C1738 C1739 1.516 . S
C1739 C1738 1.516 . S
C1739 C1740 1.502 . S
C1739 C1741 1.561 . S
C1739 C1742 1.526 . S
C1740 H1724 0.959 . S
C1740 H1725 0.959 . S
C1740 H1726 0.961 . S
C1740 C1739 1.502 . S
C1741 H1727 0.960 . S
C1741 H1728 0.961 . S
C1741 H1729 0.959 . S
C1741 C1739 1.561 . S
C1742 C1739 1.526 . S
C1742 C1743 1.396 . S
C1742 C1747 1.390 . S
C1743 C1737 1.465 . S
C1743 C1742 1.396 . S
C1743 C1744 1.399 . S
C1744 H1730 0.929 . S
C1744 C1743 1.399 . S
C1744 C1745 1.385 . S
C1745 H1731 0.931 . S
C1745 C1744 1.385 . S
C1745 C1746 1.389 . S
C1746 C1745 1.389 . S
C1746 C1747 1.387 . S
C1747 H1732 0.930 . S
C1747 C1742 1.390 . S
C1747 C1746 1.387 . S
H1748 C1760 0.930 . S
H1749 C1762 0.930 . S
H1750 C1763 0.930 . S
H1751 C1767 0.959 . S
H1752 C1767 0.959 . S
H1753 C1767 0.961 . S
H1754 C1768 0.960 . S
H1755 C1768 0.961 . S
H1756 C1768 0.959 . S
H1757 C1771 0.929 . S
H1758 C1772 0.931 . S
H1759 C1774 0.930 . S
C1760 H1748 0.930 . S
C1760 C1761 1.399 . S
C1760 C1765 1.399 . S
C1761 C1760 1.399 . S
C1761 C1762 1.376 . S
C1762 H1749 0.930 . S
C1762 C1761 1.376 . S
C1762 C1763 1.388 . S
C1763 H1750 0.930 . S
C1763 C1762 1.388 . S
C1763 C1764 1.390 . S
C1764 C1763 1.390 . S
C1764 C1765 1.394 . S
C1764 C1770 1.465 . S
C1765 C1760 1.399 . S
C1765 C1764 1.394 . S
C1765 C1766 1.516 . S
C1766 C1765 1.516 . S
C1766 C1767 1.502 . S
C1766 C1768 1.561 . S
C1766 C1769 1.526 . S
C1767 H1751 0.959 . S
C1767 H1752 0.959 . S
C1767 H1753 0.961 . S
C1767 C1766 1.502 . S
C1768 H1754 0.960 . S
C1768 H1755 0.961 . S
C1768 H1756 0.959 . S
C1768 C1766 1.561 . S
C1769 C1766 1.526 . S
C1769 C1770 1.396 . S
C1769 C1774 1.390 . S
C1770 C1764 1.465 . S
C1770 C1769 1.396 . S
C1770 C1771 1.399 . S
C1771 H1757 0.929 . S
C1771 C1770 1.399 . S
C1771 C1772 1.385 . S
C1772 H1758 0.931 . S
C1772 C1771 1.385 . S
C1772 C1773 1.389 . S
C1773 C1772 1.389 . S
C1773 C1774 1.387 . S
C1774 H1759 0.930 . S
C1774 C1769 1.390 . S
C1774 C1773 1.387 . S
H1775 C1787 0.930 . S
H1776 C1789 0.930 . S
H1777 C1790 0.930 . S
H1778 C1794 0.959 . S
H1779 C1794 0.959 . S
H1780 C1794 0.961 . S
H1781 C1795 0.960 . S
H1782 C1795 0.961 . S
H1783 C1795 0.959 . S
H1784 C1798 0.929 . S
H1785 C1799 0.931 . S
H1786 C1801 0.930 . S
C1787 H1775 0.930 . S
C1787 C1788 1.399 . S
C1787 C1792 1.399 . S
C1788 C1787 1.399 . S
C1788 C1789 1.376 . S
C1789 H1776 0.930 . S
C1789 C1788 1.376 . S
C1789 C1790 1.388 . S
C1790 H1777 0.930 . S
C1790 C1789 1.388 . S
C1790 C1791 1.390 . S
C1791 C1790 1.390 . S
C1791 C1792 1.394 . S
C1791 C1797 1.465 . S
C1792 C1787 1.399 . S
C1792 C1791 1.394 . S
C1792 C1793 1.516 . S
C1793 C1792 1.516 . S
C1793 C1794 1.502 . S
C1793 C1795 1.561 . S
C1793 C1796 1.526 . S
C1794 H1778 0.959 . S
C1794 H1779 0.959 . S
C1794 H1780 0.961 . S
C1794 C1793 1.502 . S
C1795 H1781 0.960 . S
C1795 H1782 0.961 . S
C1795 H1783 0.959 . S
C1795 C1793 1.561 . S
C1796 C1793 1.526 . S
C1796 C1797 1.396 . S
C1796 C1801 1.390 . S
C1797 C1791 1.465 . S
C1797 C1796 1.396 . S
C1797 C1798 1.399 . S
C1798 H1784 0.929 . S
C1798 C1797 1.399 . S
C1798 C1799 1.385 . S
C1799 H1785 0.931 . S
C1799 C1798 1.385 . S
C1799 C1800 1.389 . S
C1800 C1799 1.389 . S
C1800 C1801 1.387 . S
C1801 H1786 0.930 . S
C1801 C1796 1.390 . S
C1801 C1800 1.387 . S
C531 C331 1.929 . S
C519 C3 1.947 . S
C558 C321 1.017 . S
C546 C49 0.996 . S
C585 C322 1.031 . S
C573 C95 1.015 . S
C600 C146 0.319 . S
C612 C344 0.661 . S
C627 C186 1.139 . S
C639 C347 1.068 . S
C666 C330 1.043 . S
C654 C215 1.014 . S
C681 C249 0.476 . S
C693 C320 0.657 . S
C708 C302 1.950 . S
C720 C338 1.922 . S
C747 C351 3.175 . S
C735 C2 3.302 . S
C762 C43 2.176 . S
C774 C400 2.149 . S
C801 C378 3.258 . S
C789 C102 3.299 . S
C828 C392 1.359 . S
C816 C135 1.381 . S
C843 C175 1.332 . S
C855 C353 1.317 . S
C882 C406 2.224 . S
C870 C222 2.267 . S
C897 C243 2.173 . S
C909 C362 2.148 . S
C924 C306 1.471 . S
C936 C383 1.353 . S
C951 C9 0.897 . S
C963 C409 0.980 . S
C978 C182 1.692 . S
C990 C393 1.636 . S
C1017 C352 1.641 . S
C1005 C226 1.638 . S
C1044 C384 0.673 . S
C1032 C242 0.675 . S
C1059 C295 2.864 . S
C1071 C375 2.818 . S
C1086 C106 0.903 . S
C1098 C382 0.936 . S
C1125 C369 1.649 . S
C1113 C142 1.703 . S
C1140 C42 0.699 . S
C1152 C361 0.774 . S
C1167 C283 1.920 . S
C1179 C424 1.937 . S
C1194 C169 1.084 . S
C1206 C414 1.151 . S
C1233 C415 1.025 . S
C1221 C202 1.011 . S
C1260 C437 0.716 . S
C1248 C266 0.295 . S
C1275 C66 1.031 . S
C1287 C440 0.932 . S
C1314 C423 1.051 . S
C1302 C82 1.069 . S
C1329 C129 0.505 . S
C1341 C413 0.612 . S
C1356 C22 1.953 . S
C1368 C431 1.934 . S
C1383 C282 2.868 . S
C1395 C444 2.818 . S
C1422 C493 1.647 . S
C1410 C163 1.685 . S
C1437 C209 1.652 . S
C1449 C471 1.631 . S
C1464 C255 0.724 . S
C1476 C485 0.758 . S
C1503 C446 0.799 . S
C1491 C55 0.751 . S
C1518 C89 0.872 . S
C1530 C499 0.936 . S
C1557 C455 1.672 . S
C1545 C123 1.692 . S
C1584 C476 0.863 . S
C1572 C26 0.955 . S
C1611 C502 1.403 . S
C1599 C289 1.422 . S
C1626 C62 2.185 . S
C1638 C486 2.138 . S
C1653 C83 3.314 . S
C1665 C445 3.273 . S
C1692 C477 1.356 . S
C1680 C122 1.389 . S
C1707 C15 3.307 . S
C1719 C468 3.204 . S
C1734 C203 2.276 . S
C1746 C475 2.186 . S
C1773 C462 2.165 . S
C1761 C262 2.189 . S
C1800 C454 1.310 . S
C1788 C162 1.358 . S
