# Generated by pormake.
# Topology ctn, (3,4)-cn, num edge types: 1
# Building blocks:
#     Node 0, Type 0, BuildingBlock: OLANEW_clean_sbu_2, # of connection points: 3
#     Node 1, Type 0, BuildingBlock: OLANEW_clean_sbu_2, # of connection points: 3
#     Node 2, Type 0, BuildingBlock: OLANEW_clean_sbu_2, # of connection points: 3
#     Node 3, Type 0, BuildingBlock: OLANEW_clean_sbu_2, # of connection points: 3
#     Node 4, Type 0, BuildingBlock: OLANEW_clean_sbu_2, # of connection points: 3
#     Node 5, Type 0, BuildingBlock: OLANEW_clean_sbu_2, # of connection points: 3
#     Node 6, Type 0, BuildingBlock: OLANEW_clean_sbu_2, # of connection points: 3
#     Node 7, Type 0, BuildingBlock: OLANEW_clean_sbu_2, # of connection points: 3
#     Node 8, Type 0, BuildingBlock: OLANEW_clean_sbu_2, # of connection points: 3
#     Node 9, Type 0, BuildingBlock: OLANEW_clean_sbu_2, # of connection points: 3
#     Node 10, Type 0, BuildingBlock: OLANEW_clean_sbu_2, # of connection points: 3
#     Node 11, Type 0, BuildingBlock: OLANEW_clean_sbu_2, # of connection points: 3
#     Node 12, Type 0, BuildingBlock: OLANEW_clean_sbu_2, # of connection points: 3
#     Node 13, Type 0, BuildingBlock: OLANEW_clean_sbu_2, # of connection points: 3
#     Node 14, Type 0, BuildingBlock: OLANEW_clean_sbu_2, # of connection points: 3
#     Node 15, Type 0, BuildingBlock: OLANEW_clean_sbu_2, # of connection points: 3
#     Node 16, Type 1, BuildingBlock: UXUYUI_clean_sbu_0, # of connection points: 4
#     Node 17, Type 1, BuildingBlock: UXUYUI_clean_sbu_0, # of connection points: 4
#     Node 18, Type 1, BuildingBlock: UXUYUI_clean_sbu_0, # of connection points: 4
#     Node 19, Type 1, BuildingBlock: UXUYUI_clean_sbu_0, # of connection points: 4
#     Node 20, Type 1, BuildingBlock: UXUYUI_clean_sbu_0, # of connection points: 4
#     Node 21, Type 1, BuildingBlock: UXUYUI_clean_sbu_0, # of connection points: 4
#     Node 22, Type 1, BuildingBlock: UXUYUI_clean_sbu_0, # of connection points: 4
#     Node 23, Type 1, BuildingBlock: UXUYUI_clean_sbu_0, # of connection points: 4
#     Node 24, Type 1, BuildingBlock: UXUYUI_clean_sbu_0, # of connection points: 4
#     Node 25, Type 1, BuildingBlock: UXUYUI_clean_sbu_0, # of connection points: 4
#     Node 26, Type 1, BuildingBlock: UXUYUI_clean_sbu_0, # of connection points: 4
#     Node 27, Type 1, BuildingBlock: UXUYUI_clean_sbu_0, # of connection points: 4
#     Edge 28, Type (0, 1), BuildingBlock: KIFKEQ_clean_linker_1, # of connection points: 2
#     Edge 29, Type (0, 1), BuildingBlock: KIFKEQ_clean_linker_1, # of connection points: 2
#     Edge 30, Type (0, 1), BuildingBlock: KIFKEQ_clean_linker_1, # of connection points: 2
#     Edge 31, Type (0, 1), BuildingBlock: KIFKEQ_clean_linker_1, # of connection points: 2
#     Edge 32, Type (0, 1), BuildingBlock: KIFKEQ_clean_linker_1, # of connection points: 2
#     Edge 33, Type (0, 1), BuildingBlock: KIFKEQ_clean_linker_1, # of connection points: 2
#     Edge 34, Type (0, 1), BuildingBlock: KIFKEQ_clean_linker_1, # of connection points: 2
#     Edge 35, Type (0, 1), BuildingBlock: KIFKEQ_clean_linker_1, # of connection points: 2
#     Edge 36, Type (0, 1), BuildingBlock: KIFKEQ_clean_linker_1, # of connection points: 2
#     Edge 37, Type (0, 1), BuildingBlock: KIFKEQ_clean_linker_1, # of connection points: 2
#     Edge 38, Type (0, 1), BuildingBlock: KIFKEQ_clean_linker_1, # of connection points: 2
#     Edge 39, Type (0, 1), BuildingBlock: KIFKEQ_clean_linker_1, # of connection points: 2
#     Edge 40, Type (0, 1), BuildingBlock: KIFKEQ_clean_linker_1, # of connection points: 2
#     Edge 41, Type (0, 1), BuildingBlock: KIFKEQ_clean_linker_1, # of connection points: 2
#     Edge 42, Type (0, 1), BuildingBlock: KIFKEQ_clean_linker_1, # of connection points: 2
#     Edge 43, Type (0, 1), BuildingBlock: KIFKEQ_clean_linker_1, # of connection points: 2
#     Edge 44, Type (0, 1), BuildingBlock: KIFKEQ_clean_linker_1, # of connection points: 2
#     Edge 45, Type (0, 1), BuildingBlock: KIFKEQ_clean_linker_1, # of connection points: 2
#     Edge 46, Type (0, 1), BuildingBlock: KIFKEQ_clean_linker_1, # of connection points: 2
#     Edge 47, Type (0, 1), BuildingBlock: KIFKEQ_clean_linker_1, # of connection points: 2
#     Edge 48, Type (0, 1), BuildingBlock: KIFKEQ_clean_linker_1, # of connection points: 2
#     Edge 49, Type (0, 1), BuildingBlock: KIFKEQ_clean_linker_1, # of connection points: 2
#     Edge 50, Type (0, 1), BuildingBlock: KIFKEQ_clean_linker_1, # of connection points: 2
#     Edge 51, Type (0, 1), BuildingBlock: KIFKEQ_clean_linker_1, # of connection points: 2
#     Edge 52, Type (0, 1), BuildingBlock: KIFKEQ_clean_linker_1, # of connection points: 2
#     Edge 53, Type (0, 1), BuildingBlock: KIFKEQ_clean_linker_1, # of connection points: 2
#     Edge 54, Type (0, 1), BuildingBlock: KIFKEQ_clean_linker_1, # of connection points: 2
#     Edge 55, Type (0, 1), BuildingBlock: KIFKEQ_clean_linker_1, # of connection points: 2
#     Edge 56, Type (0, 1), BuildingBlock: KIFKEQ_clean_linker_1, # of connection points: 2
#     Edge 57, Type (0, 1), BuildingBlock: KIFKEQ_clean_linker_1, # of connection points: 2
#     Edge 58, Type (0, 1), BuildingBlock: KIFKEQ_clean_linker_1, # of connection points: 2
#     Edge 59, Type (0, 1), BuildingBlock: KIFKEQ_clean_linker_1, # of connection points: 2
#     Edge 60, Type (0, 1), BuildingBlock: KIFKEQ_clean_linker_1, # of connection points: 2
#     Edge 61, Type (0, 1), BuildingBlock: KIFKEQ_clean_linker_1, # of connection points: 2
#     Edge 62, Type (0, 1), BuildingBlock: KIFKEQ_clean_linker_1, # of connection points: 2
#     Edge 63, Type (0, 1), BuildingBlock: KIFKEQ_clean_linker_1, # of connection points: 2
#     Edge 64, Type (0, 1), BuildingBlock: KIFKEQ_clean_linker_1, # of connection points: 2
#     Edge 65, Type (0, 1), BuildingBlock: KIFKEQ_clean_linker_1, # of connection points: 2
#     Edge 66, Type (0, 1), BuildingBlock: KIFKEQ_clean_linker_1, # of connection points: 2
#     Edge 67, Type (0, 1), BuildingBlock: KIFKEQ_clean_linker_1, # of connection points: 2
#     Edge 68, Type (0, 1), BuildingBlock: KIFKEQ_clean_linker_1, # of connection points: 2
#     Edge 69, Type (0, 1), BuildingBlock: KIFKEQ_clean_linker_1, # of connection points: 2
#     Edge 70, Type (0, 1), BuildingBlock: KIFKEQ_clean_linker_1, # of connection points: 2
#     Edge 71, Type (0, 1), BuildingBlock: KIFKEQ_clean_linker_1, # of connection points: 2
#     Edge 72, Type (0, 1), BuildingBlock: KIFKEQ_clean_linker_1, # of connection points: 2
#     Edge 73, Type (0, 1), BuildingBlock: KIFKEQ_clean_linker_1, # of connection points: 2
#     Edge 74, Type (0, 1), BuildingBlock: KIFKEQ_clean_linker_1, # of connection points: 2
#     Edge 75, Type (0, 1), BuildingBlock: KIFKEQ_clean_linker_1, # of connection points: 2
# Relax obj value: 0.049
# Max RMSD: 0.161
# Mean RMSD: 0.098
data_MOF--net-ctn--node1-OLANEW_clean_sbu_2--node2-UXUYUI_clean_sbu_0--edge1-KIFKEQ_clean_linker_1
_symmetry_space_group_name_H-M    P1
_symmetry_Int_Tables_number       1
_symmetry_cell_setting            triclinic
loop_
_symmetry_equiv_pos_as_xyz
'x, y, z'
_cell_length_a     72.342332
_cell_length_b     74.174462
_cell_length_c     70.397749
_cell_angle_alpha  91.227629
_cell_angle_beta   94.107288
_cell_angle_gamma 95.233926
loop_
_atom_site_label
_atom_site_type_symbol
_atom_site_fract_x
_atom_site_fract_y
_atom_site_fract_z
_atom_type_partial_charge
O0 O 0.04829 0.0621 0.01501 0.0
Cd1 Cd 0.04882 0.03542 0.035 0.0
O2 O 0.0563 0.08082 0.03949 0.0
Cd3 Cd 0.05417 0.05984 0.06064 0.0
O4 O 0.03976 0.04704 0.08372 0.0
C5 C 0.02256 0.04194 0.08031 0.0
O6 O 0.0149 0.04355 0.063 0.0
C7 C 0.0523 0.07817 0.0217 0.0
C8 C 0.07864 0.0147 0.03027 0.0
O9 O 0.06301 0.01104 0.02058 0.0
O10 O 0.08026 0.02833 0.04197 0.0
O11 O 0.30283 0.7369 0.24787 0.0
Cd12 Cd 0.27135 0.73169 0.23234 0.0
O13 O 0.31355 0.71491 0.23169 0.0
Cd14 Cd 0.28585 0.70404 0.22033 0.0
O15 O 0.26158 0.68437 0.22104 0.0
C16 C 0.25324 0.68361 0.23633 0.0
O17 O 0.25886 0.69534 0.25028 0.0
C18 C 0.31635 0.7281 0.2437 0.0
C19 C 0.26644 0.75396 0.20123 0.0
O20 O 0.26324 0.75921 0.21804 0.0
O21 O 0.27194 0.73814 0.19912 0.0
O22 O 0.9533 0.46732 0.09772 0.0
Cd23 Cd 0.93217 0.45964 0.06946 0.0
O24 O 0.97852 0.46853 0.0819 0.0
Cd25 Cd 0.96467 0.45604 0.05567 0.0
O26 O 0.96316 0.43492 0.03333 0.0
C27 C 0.96029 0.41854 0.03815 0.0
O28 O 0.95717 0.41516 0.05595 0.0
C29 C 0.97082 0.47065 0.09737 0.0
C30 C 0.90819 0.48672 0.06287 0.0
O31 O 0.90418 0.47368 0.07397 0.0
O32 O 0.92351 0.4869 0.05474 0.0
O33 O 0.7305 0.8317 0.21735 0.0
Cd34 Cd 0.70774 0.8051 0.2139 0.0
O35 O 0.74808 0.82032 0.24002 0.0
Cd36 Cd 0.72662 0.79845 0.24427 0.0
O37 O 0.70138 0.78718 0.2566 0.0
C38 C 0.68797 0.79714 0.25647 0.0
O39 O 0.68982 0.81293 0.24836 0.0
C40 C 0.74522 0.83292 0.2285 0.0
C41 C 0.71775 0.77977 0.18748 0.0
O42 O 0.70828 0.79282 0.18221 0.0
O43 O 0.72248 0.77867 0.20528 0.0
O44 O 0.10587 0.95032 0.49135 0.0
Cd45 Cd 0.08342 0.92432 0.48243 0.0
O46 O 0.08718 0.96463 0.47274 0.0
Cd47 Cd 0.07518 0.98494 0.45483 0.0
O48 O 0.05447 0.99378 0.43386 0.0
C49 C 0.04779 0.98184 0.42139 0.0
O50 O 0.05416 0.96581 0.42173 0.0
C51 C 0.10211 0.96496 0.48353 0.0
C52 C 0.07059 0.90441 0.51272 0.0
O53 O 0.08467 0.90004 0.50419 0.0
O54 O 0.06281 0.91842 0.50716 0.0
O55 O 0.28068 0.75583 0.83014 0.0
Cd56 Cd 0.2848 0.74304 0.79854 0.0
O57 O 0.25108 0.7526 0.82105 0.0
Cd58 Cd 0.22094 0.75347 0.82124 0.0
O59 O 0.19181 0.75482 0.81146 0.0
C60 C 0.18767 0.76851 0.80206 0.0
O61 O 0.20086 0.78142 0.79945 0.0
C62 C 0.26404 0.75817 0.83355 0.0
C63 C 0.29864 0.70918 0.79743 0.0
O64 O 0.30961 0.7238 0.79807 0.0
O65 O 0.28113 0.71058 0.79784 0.0
O66 O 0.9934 0.52678 0.47658 0.0
Cd67 Cd 0.97665 0.53313 0.50466 0.0
O68 O 0.01604 0.54784 0.48518 0.0
Cd69 Cd 0.00328 0.55814 0.50991 0.0
O70 O 0.99564 0.57715 0.53151 0.0
C71 C 0.99605 0.59363 0.52686 0.0
O72 O 0.0005 0.59792 0.50965 0.0
C73 C 0.009 0.53522 0.47364 0.0
C74 C 0.94321 0.51138 0.50602 0.0
O75 O 0.94367 0.52685 0.49822 0.0
O76 O 0.95859 0.50613 0.51306 0.0
O77 O 0.78878 0.77906 0.84407 0.0
Cd78 Cd 0.79158 0.80347 0.82134 0.0
O79 O 0.76018 0.76935 0.8335 0.0
Cd80 Cd 0.75665 0.79256 0.81541 0.0
O81 O 0.74415 0.81698 0.80615 0.0
C82 C 0.73145 0.82182 0.81621 0.0
O83 O 0.72707 0.81208 0.83089 0.0
C84 C 0.7746 0.76766 0.84452 0.0
C85 C 0.82017 0.79855 0.79765 0.0
O86 O 0.8234 0.80731 0.81362 0.0
O87 O 0.80336 0.79224 0.7928 0.0
O88 O 0.28862 0.28169 0.339 0.0
Cd89 Cd 0.29067 0.30507 0.31505 0.0
O90 O 0.25851 0.27505 0.33265 0.0
Cd91 Cd 0.25509 0.2979 0.31404 0.0
O92 O 0.24382 0.32291 0.30478 0.0
C93 C 0.23567 0.33119 0.31728 0.0
O94 O 0.235 0.3244 0.33434 0.0
C95 C 0.27368 0.27199 0.34177 0.0
C96 C 0.32019 0.30079 0.29237 0.0
O97 O 0.32241 0.311 0.30744 0.0
O98 O 0.30398 0.29271 0.28796 0.0
O99 O 0.46774 0.97595 0.58772 0.0
Cd100 Cd 0.44727 0.96968 0.55872 0.0
O101 O 0.48751 0.95671 0.57972 0.0
Cd102 Cd 0.47336 0.94631 0.55273 0.0
O103 O 0.47223 0.92571 0.52989 0.0
C104 C 0.48231 0.91287 0.53355 0.0
O105 O 0.49185 0.91308 0.55017 0.0
C106 C 0.48262 0.96838 0.5914 0.0
C107 C 0.42171 0.99557 0.55381 0.0
O108 O 0.41818 0.9815 0.56366 0.0
O109 O 0.43735 0.9974 0.54624 0.0
O110 O 0.24427 0.32429 0.72243 0.0
Cd111 Cd 0.22341 0.29628 0.72019 0.0
O112 O 0.2372 0.33007 0.7517 0.0
Cd113 Cd 0.2155 0.30788 0.75353 0.0
O114 O 0.19062 0.2967 0.76655 0.0
C115 C 0.18483 0.30726 0.77881 0.0
O116 O 0.19398 0.32326 0.78225 0.0
C117 C 0.24652 0.33422 0.73752 0.0
C118 C 0.23037 0.27299 0.69035 0.0
O119 O 0.21819 0.28441 0.68807 0.0
O120 O 0.23936 0.27267 0.70669 0.0
O121 O 0.81343 0.23692 0.74315 0.0
Cd122 Cd 0.78324 0.23091 0.72501 0.0
O123 O 0.81864 0.20816 0.74188 0.0
Cd124 Cd 0.791 0.19799 0.72969 0.0
O125 O 0.76656 0.17863 0.73095 0.0
C126 C 0.76077 0.17612 0.74741 0.0
O127 O 0.76906 0.18587 0.76192 0.0
C128 C 0.82406 0.22449 0.74682 0.0
C129 C 0.77852 0.25461 0.69509 0.0
O130 O 0.77273 0.25797 0.71147 0.0
O131 O 0.78662 0.24012 0.69291 0.0
O132 O 0.5562 0.56616 0.50849 0.0
Cd133 Cd 0.56301 0.54565 0.53442 0.0
O134 O 0.52946 0.57124 0.5197 0.0
Cd135 Cd 0.5308 0.55397 0.54434 0.0
O136 O 0.52069 0.54637 0.57178 0.0
C137 C 0.508 0.53347 0.57279 0.0
O138 O 0.50203 0.52389 0.55728 0.0
C139 C 0.54132 0.57413 0.50738 0.0
C140 C 0.58921 0.52141 0.52706 0.0
O141 O 0.57173 0.51672 0.52407 0.0
O142 O 0.59429 0.53762 0.53321 0.0
O143 O 0.59777 0.45441 0.99234 0.0
Cd144 Cd 0.57434 0.42913 0.98385 0.0
O145 O 0.57784 0.47069 0.97777 0.0
Cd146 Cd 0.56578 0.49326 0.96361 0.0
O147 O 0.54486 0.50394 0.94417 0.0
C148 C 0.54881 0.50892 0.92767 0.0
O149 O 0.56603 0.50873 0.92292 0.0
C150 C 0.59367 0.46977 0.98661 0.0
C151 C 0.56434 0.40771 0.01416 0.0
O152 O 0.57775 0.40408 0.0042 0.0
O153 O 0.55585 0.42171 0.00999 0.0
O154 O 0.79026 0.25759 0.32075 0.0
Cd155 Cd 0.79772 0.24529 0.28999 0.0
O156 O 0.76074 0.25333 0.31117 0.0
Cd157 Cd 0.73088 0.25608 0.31098 0.0
O158 O 0.70159 0.2565 0.30121 0.0
C159 C 0.69805 0.25762 0.28336 0.0
O160 O 0.71196 0.25868 0.27228 0.0
C161 C 0.77339 0.25912 0.32389 0.0
C162 C 0.80786 0.2099 0.29025 0.0
O163 O 0.81993 0.22343 0.29434 0.0
O164 O 0.79089 0.21309 0.28642 0.0
O165 O 0.47957 0.03674 0.96196 0.0
Cd166 Cd 0.45948 0.04938 0.98438 0.0
O167 O 0.50559 0.04653 0.9786 0.0
Cd168 Cd 0.49178 0.05882 0.00154 0.0
O169 O 0.48483 0.07629 0.02485 0.0
C170 C 0.47838 0.09127 0.02099 0.0
O171 O 0.47534 0.0954 0.00305 0.0
C172 C 0.49727 0.0383 0.96394 0.0
C173 C 0.42949 0.02495 0.99207 0.0
O174 O 0.42899 0.03444 0.97708 0.0
O175 O 0.4442 0.02696 0.00347 0.0
Li176 Li 0.26569 0.898 0.01948 0.0
Li177 Li 0.24875 0.87368 0.03653 0.0
Li178 Li 0.24588 0.87421 0.00234 0.0
Li179 Li 0.23189 0.89619 0.02035 0.0
C180 C 0.27996 0.8637 0.00709 0.0
N181 N 0.30125 0.84715 0.98198 0.0
C182 C 0.28289 0.84542 0.00888 0.0
C183 C 0.28789 0.87354 0.99252 0.0
C184 C 0.29368 0.83731 0.99604 0.0
C185 C 0.29862 0.86495 0.97998 0.0
C186 C 0.26284 0.90522 0.05772 0.0
C187 C 0.27138 0.92372 0.08614 0.0
N188 N 0.28694 0.91489 0.08928 0.0
C189 C 0.27893 0.89633 0.06123 0.0
C190 C 0.25903 0.91903 0.07026 0.0
C191 C 0.29093 0.90142 0.07726 0.0
C192 C 0.28553 0.93196 0.0161 0.0
N193 N 0.2876 0.91425 0.01947 0.0
C194 C 0.32071 0.91992 0.02063 0.0
C195 C 0.30473 0.90815 0.02217 0.0
C196 C 0.31899 0.93819 0.01675 0.0
C197 C 0.30116 0.94429 0.01482 0.0
H198 H 0.27171 0.93641 0.0141 0.0
H199 H 0.30598 0.89406 0.02515 0.0
C200 C 0.2524 0.84077 0.0551 0.0
N201 N 0.2495 0.85841 0.05812 0.0
C202 C 0.2536 0.8291 0.07036 0.0
C203 C 0.24801 0.85376 0.09152 0.0
C204 C 0.24695 0.86496 0.07585 0.0
C205 C 0.25158 0.83559 0.08893 0.0
H206 H 0.25376 0.83577 0.0408 0.0
H207 H 0.24404 0.87886 0.07788 0.0
C208 C 0.23557 0.90487 0.98284 0.0
N209 N 0.21244 0.9137 0.95218 0.0
C210 C 0.21943 0.89365 0.97724 0.0
C211 C 0.23995 0.92057 0.97285 0.0
C212 C 0.20791 0.89835 0.96171 0.0
C213 C 0.22808 0.9248 0.95738 0.0
C214 C 0.21102 0.86504 0.03044 0.0
C215 C 0.19804 0.85038 0.02508 0.0
C216 C 0.20907 0.87515 0.04705 0.0
C217 C 0.1833 0.84605 0.03646 0.0
C218 C 0.19415 0.87039 0.05804 0.0
N219 N 0.18168 0.85606 0.05257 0.0
C220 C 0.23734 0.84143 0.98082 0.0
C221 C 0.25137 0.86567 0.96385 0.0
C222 C 0.23795 0.82954 0.96524 0.0
N223 N 0.2442 0.85904 0.9799 0.0
C224 C 0.25247 0.85423 0.94807 0.0
C225 C 0.24594 0.83586 0.94874 0.0
H226 H 0.23191 0.83651 0.99387 0.0
H227 H 0.25687 0.8797 0.96355 0.0
C228 C 0.21526 0.92763 0.02965 0.0
N229 N 0.21165 0.9109 0.02122 0.0
C230 C 0.2011 0.93914 0.03063 0.0
C231 C 0.17979 0.91608 0.01402 0.0
C232 C 0.19434 0.90495 0.0135 0.0
C233 C 0.18308 0.93343 0.02271 0.0
H234 H 0.2292 0.93204 0.03552 0.0
H235 H 0.19181 0.89156 0.00693 0.0
O236 O 0.26898 0.8718 0.01918 0.0
O237 O 0.25086 0.90059 0.04209 0.0
O238 O 0.24704 0.90068 0.99809 0.0
O239 O 0.22552 0.86932 0.01938 0.0
H240 H 0.27691 0.83754 0.02002 0.0
H241 H 0.28543 0.88758 0.9906 0.0
H242 H 0.29602 0.82317 0.99725 0.0
H243 H 0.30471 0.87239 0.96857 0.0
H244 H 0.26858 0.93437 0.09597 0.0
H245 H 0.28212 0.88556 0.05177 0.0
H246 H 0.24663 0.92603 0.06777 0.0
H247 H 0.30341 0.89464 0.08015 0.0
H248 H 0.33427 0.91481 0.02237 0.0
H249 H 0.29933 0.95829 0.01175 0.0
H250 H 0.2564 0.81522 0.06765 0.0
H251 H 0.24588 0.85926 0.10548 0.0
H252 H 0.21578 0.88146 0.98482 0.0
H253 H 0.25239 0.92941 0.97703 0.0
H254 H 0.19537 0.8898 0.95724 0.0
H255 H 0.23129 0.93692 0.94951 0.0
H256 H 0.19936 0.84243 0.01225 0.0
H257 H 0.21891 0.88657 0.05144 0.0
H258 H 0.17316 0.83473 0.03248 0.0
H259 H 0.19248 0.87809 0.07093 0.0
H260 H 0.23289 0.81543 0.96634 0.0
H261 H 0.25857 0.85965 0.93553 0.0
H262 H 0.20428 0.95248 0.03726 0.0
H263 H 0.16607 0.91108 0.00791 0.0
Li264 Li 0.10932 0.50677 0.30088 0.0
Li265 Li 0.129 0.48932 0.28432 0.0
Li266 Li 0.13063 0.52226 0.27998 0.0
Li267 Li 0.10236 0.50083 0.2669 0.0
C268 C 0.14573 0.51565 0.31986 0.0
N269 N 0.164 0.52906 0.35378 0.0
C270 C 0.15172 0.50379 0.33369 0.0
C271 C 0.14936 0.53434 0.32317 0.0
C272 C 0.16083 0.51083 0.35078 0.0
C273 C 0.15852 0.54085 0.34043 0.0
C274 C 0.0995 0.46826 0.29812 0.0
C275 C 0.08504 0.43821 0.3026 0.0
N276 N 0.09456 0.43794 0.31995 0.0
C277 C 0.10911 0.4677 0.31599 0.0
C278 C 0.08734 0.45343 0.29134 0.0
C279 C 0.10644 0.45225 0.32682 0.0
C280 C 0.08011 0.49932 0.3251 0.0
N281 N 0.09666 0.50938 0.32391 0.0
C282 C 0.0941 0.52313 0.35454 0.0
C283 C 0.10358 0.52134 0.33813 0.0
C284 C 0.07718 0.51264 0.35633 0.0
C285 C 0.07013 0.50069 0.34126 0.0
H286 H 0.07453 0.4903 0.3134 0.0
H287 H 0.11623 0.52982 0.33667 0.0
C288 C 0.16191 0.47293 0.29351 0.0
N289 N 0.14414 0.46959 0.28578 0.0
C290 C 0.17337 0.45884 0.29561 0.0
C291 C 0.14817 0.43819 0.28132 0.0
C292 C 0.1372 0.4527 0.27947 0.0
C293 C 0.16647 0.44113 0.28969 0.0
H294 H 0.16713 0.48655 0.29815 0.0
H295 H 0.12309 0.45046 0.27315 0.0
C296 C 0.09207 0.53471 0.29047 0.0
N297 N 0.06916 0.55421 0.31103 0.0
C298 C 0.073 0.52939 0.28994 0.0
C299 C 0.09948 0.55003 0.3013 0.0
C300 C 0.06165 0.53941 0.30048 0.0
C301 C 0.08766 0.55969 0.31163 0.0
C302 C 0.13893 0.49181 0.24965 0.0
C303 C 0.15825 0.49544 0.25019 0.0
C304 C 0.13024 0.47673 0.23925 0.0
C305 C 0.16862 0.4838 0.24037 0.0
C306 C 0.14109 0.46543 0.22961 0.0
N307 N 0.1599 0.46917 0.23038 0.0
C308 C 0.16452 0.54403 0.27757 0.0
C309 C 0.13733 0.55761 0.26695 0.0
C310 C 0.17574 0.55945 0.27305 0.0
N311 N 0.14572 0.54343 0.27444 0.0
C312 C 0.148 0.57331 0.26229 0.0
C313 C 0.16749 0.57434 0.26526 0.0
H314 H 0.17077 0.53254 0.2836 0.0
H315 H 0.12234 0.55664 0.26447 0.0
C316 C 0.06648 0.49015 0.24916 0.0
N317 N 0.08402 0.49727 0.24637 0.0
C318 C 0.05292 0.48815 0.23389 0.0
C319 C 0.0759 0.50058 0.21326 0.0
C320 C 0.08893 0.50247 0.22891 0.0
C321 C 0.05754 0.49345 0.21562 0.0
H322 H 0.063 0.4862 0.26326 0.0
H323 H 0.10302 0.50809 0.22717 0.0
O324 O 0.13716 0.50899 0.30286 0.0
O325 O 0.10208 0.48313 0.28713 0.0
O326 O 0.10349 0.52473 0.28076 0.0
O327 O 0.1286 0.50269 0.25966 0.0
H328 H 0.1495 0.48928 0.33122 0.0
H329 H 0.14489 0.54375 0.31267 0.0
H330 H 0.16547 0.5018 0.36162 0.0
H331 H 0.16126 0.55528 0.34323 0.0
H332 H 0.07571 0.42661 0.29753 0.0
H333 H 0.11846 0.4791 0.32144 0.0
H334 H 0.07983 0.45366 0.2775 0.0
H335 H 0.11379 0.45164 0.34069 0.0
H336 H 0.09981 0.5329 0.36557 0.0
H337 H 0.05712 0.49235 0.342 0.0
H338 H 0.18748 0.4618 0.30182 0.0
H339 H 0.14219 0.42476 0.27671 0.0
H340 H 0.06709 0.51752 0.28169 0.0
H341 H 0.11422 0.55429 0.3019 0.0
H342 H 0.04689 0.53537 0.30034 0.0
H343 H 0.09321 0.57151 0.32018 0.0
H344 H 0.16518 0.507 0.25828 0.0
H345 H 0.1153 0.47365 0.23886 0.0
H346 H 0.18361 0.48638 0.24074 0.0
H347 H 0.13458 0.45365 0.22159 0.0
H348 H 0.19069 0.55977 0.27579 0.0
H349 H 0.14109 0.58438 0.2561 0.0
H350 H 0.03892 0.48277 0.23645 0.0
H351 H 0.08024 0.50452 0.19942 0.0
Li352 Li 0.74059 0.62143 0.02031 0.0
Li353 Li 0.75717 0.6464 0.04019 0.0
Li354 Li 0.76048 0.64546 0.00633 0.0
Li355 Li 0.77387 0.62344 0.02781 0.0
C356 C 0.72082 0.65161 0.02585 0.0
N357 N 0.68755 0.65927 0.03977 0.0
C358 C 0.71565 0.64468 0.04323 0.0
C359 C 0.70904 0.66242 0.01557 0.0
C360 C 0.69878 0.64873 0.05002 0.0
C361 C 0.69228 0.66612 0.02283 0.0
C362 C 0.76093 0.60818 0.05807 0.0
C363 C 0.78415 0.60052 0.08214 0.0
N364 N 0.77596 0.58326 0.08188 0.0
C365 C 0.7526 0.59043 0.05825 0.0
C366 C 0.77668 0.61333 0.07031 0.0
C367 C 0.76046 0.57802 0.07031 0.0
C368 C 0.72398 0.5867 0.01303 0.0
N369 N 0.7195 0.604 0.01503 0.0
C370 C 0.6871 0.59413 0.00939 0.0
C371 C 0.70148 0.60799 0.01286 0.0
C372 C 0.69133 0.57606 0.00802 0.0
C373 C 0.71009 0.57246 0.00964 0.0
H374 H 0.73845 0.58396 0.01422 0.0
H375 H 0.69814 0.62182 0.0138 0.0
C376 C 0.75001 0.67989 0.05581 0.0
N377 N 0.75477 0.66321 0.06069 0.0
C378 C 0.74726 0.69273 0.06985 0.0
C379 C 0.75448 0.67105 0.09378 0.0
C380 C 0.75699 0.65858 0.07924 0.0
C381 C 0.74944 0.6884 0.08918 0.0
H382 H 0.7481 0.68314 0.04094 0.0
H383 H 0.76052 0.64516 0.08276 0.0
C384 C 0.75216 0.61373 0.98473 0.0
N385 N 0.73618 0.60355 0.94883 0.0
C386 C 0.75967 0.60058 0.97391 0.0
C387 C 0.73649 0.62168 0.97732 0.0
C388 C 0.7514 0.59562 0.95578 0.0
C389 C 0.72862 0.61636 0.95914 0.0
C390 C 0.78855 0.66559 0.03584 0.0
C391 C 0.78635 0.6822 0.02734 0.0
C392 C 0.79837 0.66526 0.05365 0.0
C393 C 0.79377 0.69821 0.03693 0.0
C394 C 0.80555 0.68157 0.0628 0.0
N395 N 0.80311 0.69757 0.05433 0.0
C396 C 0.75323 0.67391 0.98216 0.0
C397 C 0.77458 0.6546 0.97071 0.0
C398 C 0.75455 0.68452 0.96611 0.0
N399 N 0.76318 0.65931 0.98415 0.0
C400 C 0.77626 0.6648 0.95434 0.0
C401 C 0.76614 0.68001 0.95187 0.0
H402 H 0.74444 0.67742 0.99319 0.0
H403 H 0.78227 0.64285 0.97266 0.0
C404 C 0.78886 0.59043 0.02553 0.0
N405 N 0.79332 0.60791 0.03153 0.0
C406 C 0.80159 0.57758 0.02862 0.0
C407 C 0.82345 0.601 0.04384 0.0
C408 C 0.81029 0.61346 0.04032 0.0
C409 C 0.8191 0.58271 0.03812 0.0
H410 H 0.77525 0.58643 0.01856 0.0
H411 H 0.81346 0.62745 0.04498 0.0
O412 O 0.7374 0.64812 0.01898 0.0
O413 O 0.75369 0.62045 0.04602 0.0
O414 O 0.76012 0.61864 0.00252 0.0
O415 O 0.78097 0.64979 0.02686 0.0
H416 H 0.72449 0.63627 0.05143 0.0
H417 H 0.71279 0.66785 0.00208 0.0
H418 H 0.69463 0.64348 0.06345 0.0
H419 H 0.68303 0.67446 0.01501 0.0
H420 H 0.79648 0.60429 0.0915 0.0
H421 H 0.74014 0.58628 0.0493 0.0
H422 H 0.78329 0.62698 0.07043 0.0
H423 H 0.7542 0.56421 0.0705 0.0
H424 H 0.67282 0.59751 0.00815 0.0
H425 H 0.71402 0.55878 0.00822 0.0
H426 H 0.74303 0.70576 0.06555 0.0
H427 H 0.75649 0.66714 0.10846 0.0
H428 H 0.77178 0.59427 0.97947 0.0
H429 H 0.73042 0.63184 0.98549 0.0
H430 H 0.75707 0.58546 0.94724 0.0
H431 H 0.71651 0.6224 0.95323 0.0
H432 H 0.77887 0.68276 0.01357 0.0
H433 H 0.80032 0.65259 0.06043 0.0
H434 H 0.79205 0.71115 0.03055 0.0
H435 H 0.81305 0.6815 0.07665 0.0
H436 H 0.74677 0.6963 0.96503 0.0
H437 H 0.7852 0.6607 0.94366 0.0
H438 H 0.79771 0.56376 0.0236 0.0
H439 H 0.83668 0.60557 0.05137 0.0
Li440 Li 0.87993 0.03268 0.25916 0.0
Li441 Li 0.90062 0.01109 0.27243 0.0
Li442 Li 0.89926 0.01698 0.23754 0.0
Li443 Li 0.8741 0.99902 0.25195 0.0
C444 C 0.9167 0.05048 0.25682 0.0
N445 N 0.93552 0.08388 0.25135 0.0
C446 C 0.92907 0.05875 0.27127 0.0
C447 C 0.91415 0.05908 0.23949 0.0
C448 C 0.93838 0.07568 0.26826 0.0
C449 C 0.92373 0.07598 0.23702 0.0
C450 C 0.87424 0.01073 0.29598 0.0
C451 C 0.87633 0.9922 0.32364 0.0
N452 N 0.8762 0.00722 0.33504 0.0
C453 C 0.87398 0.02596 0.30794 0.0
C454 C 0.87529 0.99368 0.30385 0.0
C455 C 0.87502 0.02391 0.32766 0.0
C456 C 0.85129 0.0564 0.2575 0.0
N457 N 0.86904 0.05454 0.26434 0.0
C458 C 0.87162 0.08409 0.27903 0.0
C459 C 0.87914 0.06787 0.27514 0.0
C460 C 0.85339 0.08658 0.27195 0.0
C461 C 0.84316 0.0724 0.26111 0.0
H462 H 0.84345 0.04546 0.2492 0.0
H463 H 0.89303 0.06589 0.28087 0.0
C464 C 0.92563 0.99151 0.29452 0.0
N465 N 0.91719 0.00713 0.2938 0.0
C466 C 0.93862 0.98872 0.30953 0.0
C467 C 0.93401 0.01817 0.32281 0.0
C468 C 0.92103 0.02034 0.30756 0.0
C469 C 0.94309 0.00223 0.32384 0.0
H470 H 0.92258 0.98137 0.28323 0.0
H471 H 0.91417 0.03268 0.30656 0.0
C472 C 0.86514 0.02593 0.2175 0.0
N473 N 0.85085 0.03874 0.18343 0.0
C474 C 0.85576 0.01394 0.20369 0.0
C475 C 0.86691 0.04448 0.2141 0.0
C476 C 0.84874 0.02066 0.18652 0.0
C477 C 0.85969 0.05068 0.19676 0.0
C478 C 0.89965 0.97593 0.24511 0.0
C479 C 0.90381 0.97116 0.22668 0.0
C480 C 0.89444 0.96237 0.25769 0.0
C481 C 0.90244 0.95288 0.22106 0.0
C482 C 0.89319 0.94425 0.25151 0.0
N483 N 0.89717 0.93992 0.23347 0.0
C484 C 0.93286 0.02248 0.22082 0.0
C485 C 0.90712 0.01701 0.19802 0.0
C486 C 0.94516 0.02393 0.20644 0.0
N487 N 0.91424 0.01921 0.21641 0.0
C488 C 0.91893 0.01834 0.18315 0.0
C489 C 0.93824 0.02187 0.18728 0.0
H490 H 0.93815 0.02386 0.2356 0.0
H491 H 0.89235 0.01403 0.19483 0.0
C492 C 0.84369 0.97446 0.26072 0.0
N493 N 0.85571 0.97902 0.24725 0.0
C494 C 0.83107 0.95903 0.25805 0.0
C495 C 0.84332 0.95343 0.22763 0.0
C496 C 0.85549 0.96908 0.23076 0.0
C497 C 0.83103 0.94816 0.24146 0.0
H498 H 0.84409 0.98264 0.27366 0.0
H499 H 0.86507 0.97307 0.22021 0.0
O500 O 0.90749 0.03388 0.25956 0.0
O501 O 0.87358 0.01251 0.27665 0.0
O502 O 0.87196 0.01955 0.23447 0.0
O503 O 0.9007 0.99378 0.25079 0.0
H504 H 0.93141 0.05222 0.28469 0.0
H505 H 0.90511 0.05267 0.22795 0.0
H506 H 0.94789 0.08228 0.27937 0.0
H507 H 0.92186 0.08278 0.22367 0.0
H508 H 0.87727 0.97911 0.32994 0.0
H509 H 0.87312 0.03924 0.30209 0.0
H510 H 0.87542 0.98175 0.29479 0.0
H511 H 0.87494 0.0356 0.33711 0.0
H512 H 0.88014 0.09465 0.2873 0.0
H513 H 0.82896 0.07357 0.25563 0.0
H514 H 0.94552 0.97636 0.30962 0.0
H515 H 0.93694 0.02885 0.33362 0.0
H516 H 0.85399 0.99958 0.20613 0.0
H517 H 0.87359 0.05407 0.22478 0.0
H518 H 0.84158 0.0115 0.17567 0.0
H519 H 0.86102 0.06501 0.19394 0.0
H520 H 0.90793 0.98145 0.21678 0.0
H521 H 0.89118 0.9658 0.27199 0.0
H522 H 0.90552 0.949 0.20681 0.0
H523 H 0.88902 0.93362 0.26104 0.0
H524 H 0.95995 0.02636 0.2103 0.0
H525 H 0.91298 0.01677 0.16858 0.0
H526 H 0.82183 0.95536 0.26907 0.0
H527 H 0.84355 0.94552 0.21455 0.0
Li528 Li 0.25944 0.14501 0.53376 0.0
Li529 Li 0.24471 0.1205 0.51331 0.0
Li530 Li 0.27801 0.12332 0.52043 0.0
Li531 Li 0.26392 0.14469 0.50017 0.0
C532 C 0.26637 0.11542 0.5561 0.0
N533 N 0.28256 0.10865 0.59166 0.0
C534 C 0.25972 0.10035 0.56602 0.0
C535 C 0.28126 0.12705 0.56425 0.0
C536 C 0.26809 0.09716 0.58399 0.0
C537 C 0.28926 0.12339 0.58224 0.0
C538 C 0.22361 0.14957 0.5194 0.0
C539 C 0.19684 0.16666 0.51992 0.0
N540 N 0.19017 0.1559 0.53377 0.0
C541 C 0.21648 0.13867 0.53362 0.0
C542 C 0.21372 0.16366 0.51247 0.0
C543 C 0.19956 0.1421 0.54071 0.0
C544 C 0.26449 0.17794 0.55468 0.0
N545 N 0.25651 0.16065 0.55498 0.0
C546 C 0.24373 0.16672 0.58459 0.0
C547 C 0.2464 0.15482 0.5696 0.0
C548 C 0.25172 0.18471 0.58462 0.0
C549 C 0.26234 0.19024 0.56949 0.0
H550 H 0.27236 0.18221 0.54281 0.0
H551 H 0.24028 0.14096 0.56956 0.0
C552 C 0.2279 0.08566 0.51396 0.0
N553 N 0.22427 0.10256 0.5087 0.0
C554 C 0.21432 0.07112 0.51077 0.0
C555 C 0.19335 0.09167 0.49692 0.0
C556 C 0.20744 0.10583 0.50024 0.0
C557 C 0.19678 0.07402 0.50211 0.0
H558 H 0.24147 0.08348 0.52053 0.0
H559 H 0.20501 0.11936 0.49591 0.0
C560 C 0.30001 0.15502 0.51441 0.0
N561 N 0.33379 0.16507 0.49986 0.0
C562 C 0.30615 0.1448 0.49959 0.0
C563 C 0.31107 0.17033 0.52186 0.0
C564 C 0.32326 0.15011 0.49242 0.0
C565 C 0.32811 0.17519 0.5143 0.0
C566 C 0.25601 0.11339 0.47757 0.0
C567 C 0.26303 0.09997 0.46667 0.0
C568 C 0.24054 0.12174 0.47029 0.0
C569 C 0.25445 0.09511 0.44865 0.0
C570 C 0.23235 0.11649 0.45222 0.0
N571 N 0.23941 0.10339 0.44186 0.0
C572 C 0.29574 0.09191 0.51706 0.0
C573 C 0.31409 0.11486 0.53567 0.0
C574 C 0.3094 0.07996 0.5201 0.0
N575 N 0.29828 0.10893 0.52487 0.0
C576 C 0.3281 0.10329 0.53917 0.0
C577 C 0.3258 0.08551 0.53145 0.0
H578 H 0.28298 0.08758 0.50859 0.0
H579 H 0.31571 0.12846 0.54178 0.0
C580 C 0.26009 0.17643 0.48032 0.0
N581 N 0.26679 0.15997 0.47899 0.0
C582 C 0.26125 0.18833 0.46527 0.0
C583 C 0.27641 0.1662 0.44782 0.0
C584 C 0.27499 0.15473 0.46324 0.0
C585 C 0.26937 0.18323 0.44866 0.0
H586 H 0.25381 0.18028 0.49311 0.0
H587 H 0.28029 0.14158 0.46256 0.0
O588 O 0.25829 0.11861 0.53847 0.0
O589 O 0.24021 0.14661 0.51225 0.0
O590 O 0.28329 0.15021 0.52171 0.0
O591 O 0.26432 0.1182 0.49525 0.0
H592 H 0.2482 0.09123 0.55989 0.0
H593 H 0.28662 0.13877 0.55681 0.0
H594 H 0.26308 0.08555 0.59183 0.0
H595 H 0.30079 0.13227 0.58872 0.0
H596 H 0.18904 0.17753 0.5147 0.0
H597 H 0.22389 0.12767 0.53914 0.0
H598 H 0.21904 0.17221 0.50144 0.0
H599 H 0.1939 0.13378 0.55172 0.0
H600 H 0.2356 0.16187 0.5961 0.0
H601 H 0.26858 0.20404 0.56889 0.0
H602 H 0.21747 0.05776 0.51516 0.0
H603 H 0.18007 0.09441 0.49004 0.0
H604 H 0.29786 0.13289 0.49366 0.0
H605 H 0.30654 0.17836 0.53336 0.0
H606 H 0.32817 0.14233 0.48095 0.0
H607 H 0.33681 0.18701 0.51993 0.0
H608 H 0.27501 0.0934 0.47209 0.0
H609 H 0.23491 0.13218 0.47844 0.0
H610 H 0.25974 0.08474 0.44006 0.0
H611 H 0.22038 0.12284 0.44642 0.0
H612 H 0.30711 0.06652 0.51356 0.0
H613 H 0.3404 0.10811 0.54818 0.0
H614 H 0.25595 0.20144 0.46671 0.0
H615 H 0.28262 0.16162 0.43524 0.0
Li616 Li 0.39978 0.51817 0.77492 0.0
Li617 Li 0.37563 0.53545 0.76039 0.0
Li618 Li 0.3737 0.50251 0.75654 0.0
Li619 Li 0.39651 0.52176 0.74044 0.0
C620 C 0.35896 0.50812 0.78853 0.0
N621 N 0.32898 0.48873 0.80306 0.0
C622 C 0.3413 0.51439 0.78653 0.0
C623 C 0.36139 0.49203 0.79798 0.0
C624 C 0.32632 0.50439 0.79399 0.0
C625 C 0.34605 0.4824 0.80519 0.0
C626 C 0.40514 0.55849 0.76534 0.0
C627 C 0.40361 0.58976 0.75718 0.0
N628 N 0.40725 0.59476 0.77587 0.0
C629 C 0.40891 0.56393 0.78446 0.0
C630 C 0.40253 0.5715 0.75156 0.0
C631 C 0.40993 0.58234 0.7895 0.0
C632 C 0.43578 0.52325 0.79213 0.0
N633 N 0.41796 0.51781 0.79572 0.0
C634 C 0.4273 0.51265 0.82823 0.0
C635 C 0.41343 0.51269 0.81334 0.0
C636 C 0.44591 0.51791 0.82484 0.0
C637 C 0.45006 0.5233 0.80651 0.0
H638 H 0.43888 0.52753 0.77802 0.0
H639 H 0.3991 0.50865 0.81583 0.0
C640 C 0.35521 0.5654 0.74998 0.0
N641 N 0.3625 0.55612 0.76471 0.0
C642 C 0.3473 0.58153 0.75346 0.0
C643 C 0.3539 0.57784 0.78724 0.0
C644 C 0.3618 0.56187 0.78309 0.0
C645 C 0.34675 0.58802 0.7723 0.0
H646 H 0.3559 0.56051 0.73552 0.0
H647 H 0.36783 0.55425 0.79451 0.0
C648 C 0.41537 0.49104 0.7607 0.0
N649 N 0.44673 0.47553 0.77461 0.0
C650 C 0.43224 0.49473 0.75239 0.0
C651 C 0.41443 0.47939 0.77602 0.0
C652 C 0.44793 0.48675 0.75963 0.0
C653 C 0.43045 0.47172 0.78288 0.0
C654 C 0.36616 0.52017 0.71755 0.0
C655 C 0.35954 0.50397 0.70782 0.0
C656 C 0.37067 0.53567 0.70726 0.0
C657 C 0.3576 0.50355 0.68792 0.0
C658 C 0.36858 0.53468 0.68737 0.0
N659 N 0.36213 0.51878 0.6782 0.0
C660 C 0.33867 0.48223 0.75012 0.0
C661 C 0.36423 0.46459 0.75489 0.0
C662 C 0.32632 0.46661 0.74771 0.0
N663 N 0.3572 0.48094 0.75374 0.0
C664 C 0.3524 0.44862 0.75258 0.0
C665 C 0.33315 0.44949 0.74892 0.0
H666 H 0.33351 0.49543 0.74895 0.0
H667 H 0.37903 0.46393 0.75752 0.0
C668 C 0.42261 0.53823 0.71654 0.0
N669 N 0.41024 0.52359 0.71842 0.0
C670 C 0.43357 0.53924 0.70099 0.0
C671 C 0.41883 0.51005 0.68964 0.0
C672 C 0.40828 0.50955 0.70548 0.0
C673 C 0.43179 0.525 0.68727 0.0
H674 H 0.42427 0.54896 0.72732 0.0
H675 H 0.39863 0.49788 0.7076 0.0
O676 O 0.37372 0.5175 0.78096 0.0
O677 O 0.40347 0.5405 0.7602 0.0
O678 O 0.39993 0.49905 0.75411 0.0
O679 O 0.36835 0.52081 0.73703 0.0
H680 H 0.33913 0.52672 0.7791 0.0
H681 H 0.37493 0.4869 0.79949 0.0
H682 H 0.31256 0.50903 0.79247 0.0
H683 H 0.34771 0.46986 0.81242 0.0
H684 H 0.40147 0.59996 0.74669 0.0
H685 H 0.41078 0.55405 0.79535 0.0
H686 H 0.39938 0.56751 0.73673 0.0
H687 H 0.41274 0.58674 0.80426 0.0
H688 H 0.42354 0.50832 0.84215 0.0
H689 H 0.46417 0.52772 0.80337 0.0
H690 H 0.34174 0.58888 0.74156 0.0
H691 H 0.35394 0.58246 0.80194 0.0
H692 H 0.43328 0.50378 0.7406 0.0
H693 H 0.40156 0.47654 0.78277 0.0
H694 H 0.46109 0.48955 0.75339 0.0
H695 H 0.42996 0.46279 0.79482 0.0
H696 H 0.35609 0.49181 0.71551 0.0
H697 H 0.37608 0.54824 0.71453 0.0
H698 H 0.35255 0.49109 0.68021 0.0
H699 H 0.37215 0.54654 0.67923 0.0
H700 H 0.31163 0.46794 0.74463 0.0
H701 H 0.35827 0.43575 0.75384 0.0
H702 H 0.44363 0.55085 0.70001 0.0
H703 H 0.41682 0.49885 0.67936 0.0
Li704 Li 0.76669 0.39395 0.51073 0.0
Li705 Li 0.75055 0.37155 0.52967 0.0
Li706 Li 0.74715 0.3697 0.49431 0.0
Li707 Li 0.73262 0.39287 0.51145 0.0
C708 C 0.7885 0.36826 0.51196 0.0
N709 N 0.82688 0.37102 0.51252 0.0
C710 C 0.79928 0.37135 0.52919 0.0
C711 C 0.79722 0.36644 0.49502 0.0
C712 C 0.81867 0.37275 0.52917 0.0
C713 C 0.81664 0.36791 0.4956 0.0
C714 C 0.74343 0.40282 0.54893 0.0
C715 C 0.71882 0.39729 0.57004 0.0
N716 N 0.72565 0.4123 0.58062 0.0
C717 C 0.75018 0.41821 0.55998 0.0
C718 C 0.7276 0.39227 0.55397 0.0
C719 C 0.741 0.42277 0.57596 0.0
C720 C 0.79732 0.41256 0.49384 0.0
N721 N 0.78914 0.40974 0.51043 0.0
C722 C 0.81336 0.42904 0.52747 0.0
C723 C 0.7968 0.41768 0.52711 0.0
C724 C 0.82212 0.43222 0.5105 0.0
C725 C 0.81388 0.42373 0.49355 0.0
H726 H 0.79117 0.40599 0.48083 0.0
H727 H 0.79008 0.4151 0.54014 0.0
C728 C 0.74404 0.34066 0.55156 0.0
N729 N 0.75264 0.35773 0.55204 0.0
C730 C 0.74597 0.32967 0.56731 0.0
C731 C 0.76561 0.35407 0.58377 0.0
C732 C 0.76317 0.36464 0.56774 0.0
C733 C 0.75706 0.33625 0.58366 0.0
H734 H 0.73589 0.33549 0.53882 0.0
H735 H 0.76997 0.37824 0.56766 0.0
C736 C 0.74633 0.39877 0.47022 0.0
N737 N 0.74296 0.40407 0.43142 0.0
C738 C 0.73157 0.40767 0.46216 0.0
C739 C 0.75939 0.39261 0.45852 0.0
C740 C 0.7301 0.4102 0.44252 0.0
C741 C 0.75744 0.3954 0.43894 0.0
C742 C 0.71075 0.35944 0.50298 0.0
C743 C 0.7039 0.36818 0.48694 0.0
C744 C 0.70076 0.34388 0.5091 0.0
C745 C 0.6872 0.36119 0.47721 0.0
C746 C 0.68409 0.3373 0.499 0.0
N747 N 0.67772 0.34601 0.48339 0.0
C748 C 0.75553 0.3384 0.47554 0.0
C749 C 0.73499 0.35482 0.45649 0.0
C750 C 0.75684 0.32617 0.46048 0.0
N751 N 0.74519 0.3527 0.47316 0.0
C752 C 0.73605 0.343 0.44094 0.0
C753 C 0.74746 0.32866 0.44268 0.0
H754 H 0.76317 0.33675 0.48907 0.0
H755 H 0.72659 0.36609 0.45492 0.0
C756 C 0.7173 0.42592 0.5097 0.0
N757 N 0.71271 0.40802 0.51234 0.0
C758 C 0.70397 0.43829 0.5108 0.0
C759 C 0.68133 0.41358 0.51726 0.0
C760 C 0.69519 0.4017 0.5163 0.0
C761 C 0.68569 0.43215 0.51458 0.0
H762 H 0.73142 0.43057 0.50684 0.0
H763 H 0.69199 0.38751 0.51896 0.0
O764 O 0.76951 0.36745 0.51163 0.0
O765 O 0.75222 0.39833 0.53314 0.0
O766 O 0.74794 0.39624 0.48946 0.0
O767 O 0.72715 0.36598 0.51267 0.0
H768 H 0.79276 0.37291 0.54239 0.0
H769 H 0.78909 0.36408 0.48155 0.0
H770 H 0.8272 0.37527 0.54239 0.0
H771 H 0.82358 0.36662 0.4826 0.0
H772 H 0.70656 0.38925 0.5741 0.0
H773 H 0.76235 0.42657 0.55622 0.0
H774 H 0.7221 0.38035 0.54559 0.0
H775 H 0.74608 0.43464 0.58464 0.0
H776 H 0.8191 0.4354 0.54086 0.0
H777 H 0.82029 0.42546 0.48019 0.0
H778 H 0.73885 0.31616 0.56663 0.0
H779 H 0.77451 0.35967 0.59588 0.0
H780 H 0.72132 0.41254 0.47097 0.0
H781 H 0.77059 0.38526 0.46438 0.0
H782 H 0.71874 0.41704 0.43611 0.0
H783 H 0.76736 0.39055 0.42972 0.0
H784 H 0.71135 0.38029 0.4821 0.0
H785 H 0.70579 0.33697 0.52154 0.0
H786 H 0.68176 0.36784 0.46477 0.0
H787 H 0.67622 0.32527 0.50357 0.0
H788 H 0.76539 0.31505 0.4627 0.0
H789 H 0.72861 0.34555 0.42752 0.0
H790 H 0.70786 0.4525 0.5086 0.0
H791 H 0.66746 0.40838 0.5205 0.0
Li792 Li 0.62899 0.98332 0.78649 0.0
Li793 Li 0.60961 0.0011 0.80304 0.0
Li794 Li 0.60382 0.99677 0.76884 0.0
Li795 Li 0.6324 0.01635 0.78373 0.0
C796 C 0.59853 0.96386 0.79999 0.0
N797 N 0.59224 0.93493 0.82352 0.0
C798 C 0.6089 0.96326 0.81746 0.0
C799 C 0.58496 0.94972 0.79448 0.0
C800 C 0.60551 0.94853 0.82915 0.0
C801 C 0.58199 0.93522 0.80657 0.0
C802 C 0.64599 0.00903 0.82304 0.0
C803 C 0.6576 0.03474 0.84344 0.0
N804 N 0.66416 0.02333 0.85665 0.0
C805 C 0.65298 0.99757 0.83676 0.0
C806 C 0.64842 0.02779 0.82635 0.0
C807 C 0.66206 0.00505 0.85368 0.0
C808 C 0.66025 0.9642 0.79593 0.0
N809 N 0.64274 0.9626 0.78732 0.0
C810 C 0.64448 0.93111 0.78069 0.0
C811 C 0.63481 0.94655 0.77958 0.0
C812 C 0.66248 0.93222 0.78986 0.0
C813 C 0.67043 0.94911 0.79737 0.0
H814 H 0.66624 0.97719 0.80184 0.0
H815 H 0.62093 0.94573 0.77262 0.0
C816 C 0.57776 0.99622 0.82365 0.0
N817 N 0.59586 0.00328 0.82539 0.0
C818 C 0.56637 0.99779 0.83869 0.0
C819 C 0.59247 0.0136 0.85728 0.0
C820 C 0.6033 0.01185 0.84184 0.0
C821 C 0.57371 0.00661 0.85579 0.0
H822 H 0.57207 0.98959 0.8104 0.0
H823 H 0.61749 0.01766 0.84302 0.0
C824 C 0.63999 0.98662 0.75218 0.0
N825 N 0.65965 0.96352 0.73192 0.0
C826 C 0.65943 0.98857 0.75378 0.0
C827 C 0.63052 0.973 0.74022 0.0
C828 C 0.66913 0.97672 0.74344 0.0
C829 C 0.64073 0.96145 0.7301 0.0
C830 C 0.59252 0.02923 0.79203 0.0
C831 C 0.57356 0.02431 0.78766 0.0
C832 C 0.59816 0.0433 0.80529 0.0
C833 C 0.56051 0.03342 0.79685 0.0
C834 C 0.58468 0.05206 0.81419 0.0
N835 N 0.5663 0.04697 0.80984 0.0
C836 C 0.57099 0.983 0.74666 0.0
C837 C 0.59064 0.00538 0.73244 0.0
C838 C 0.55886 0.98132 0.73022 0.0
N839 N 0.58655 0.99479 0.74735 0.0
C840 C 0.57894 0.00415 0.71575 0.0
C841 C 0.56288 0.99187 0.71439 0.0
H842 H 0.56813 0.97477 0.75879 0.0
H843 H 0.60313 0.01466 0.73349 0.0
C844 C 0.66727 0.03692 0.78295 0.0
N845 N 0.64857 0.03717 0.77955 0.0
C846 C 0.67919 0.05222 0.77957 0.0
C847 C 0.65235 0.06767 0.76927 0.0
C848 C 0.64096 0.05209 0.77287 0.0
C849 C 0.67176 0.06786 0.77259 0.0
H850 H 0.67289 0.02482 0.78826 0.0
H851 H 0.62601 0.05185 0.77031 0.0
O852 O 0.6017 0.97804 0.78816 0.0
O853 O 0.63743 0.00189 0.80623 0.0
O854 O 0.63025 0.99769 0.76264 0.0
O855 O 0.60548 0.02008 0.78363 0.0
H856 H 0.61942 0.97405 0.82196 0.0
H857 H 0.57687 0.94993 0.78096 0.0
H858 H 0.61344 0.94792 0.84271 0.0
H859 H 0.57154 0.92418 0.80248 0.0
H860 H 0.65946 0.04922 0.84623 0.0
H861 H 0.65146 0.98303 0.83436 0.0
H862 H 0.64306 0.03689 0.81601 0.0
H863 H 0.66748 0.99633 0.86443 0.0
H864 H 0.63792 0.91844 0.77444 0.0
H865 H 0.68417 0.95057 0.80473 0.0
H866 H 0.55199 0.99213 0.83697 0.0
H867 H 0.59861 0.02077 0.8701 0.0
H868 H 0.66694 0.99898 0.76307 0.0
H869 H 0.61546 0.97126 0.73894 0.0
H870 H 0.68419 0.97799 0.74462 0.0
H871 H 0.6336 0.95078 0.72086 0.0
H872 H 0.56898 0.0134 0.77746 0.0
H873 H 0.61278 0.04731 0.80878 0.0
H874 H 0.54579 0.02966 0.79373 0.0
H875 H 0.58884 0.06289 0.82459 0.0
H876 H 0.54675 0.97155 0.72972 0.0
H877 H 0.58244 0.01271 0.70402 0.0
H878 H 0.69407 0.0517 0.78213 0.0
H879 H 0.64601 0.07949 0.76414 0.0
Li880 Li 0.02147 0.25842 0.88804 0.0
Li881 Li 0.00178 0.26846 0.91101 0.0
Li882 Li 0.00873 0.23687 0.90947 0.0
Li883 Li 0.98867 0.24955 0.88417 0.0
C884 C 0.03912 0.27233 0.92272 0.0
N885 N 0.06502 0.30021 0.93617 0.0
C886 C 0.04107 0.28848 0.91288 0.0
C887 C 0.05037 0.27035 0.93939 0.0
C888 C 0.05424 0.30242 0.91991 0.0
C889 C 0.06338 0.2846 0.94596 0.0
C890 C 0.98816 0.28602 0.87921 0.0
C891 C 0.95822 0.29683 0.88342 0.0
N892 N 0.96161 0.30961 0.87022 0.0
C893 C 0.99134 0.29925 0.86569 0.0
C894 C 0.97146 0.28478 0.88816 0.0
C895 C 0.97775 0.31105 0.86134 0.0
C896 C 0.04006 0.27111 0.85644 0.0
N897 N 0.04268 0.26443 0.87414 0.0
C898 C 0.07546 0.26538 0.87143 0.0
C899 C 0.0599 0.26146 0.88175 0.0
C900 C 0.07325 0.27237 0.8531 0.0
C901 C 0.05525 0.27519 0.84559 0.0
H902 H 0.02616 0.27319 0.85073 0.0
H903 H 0.06153 0.25586 0.89576 0.0
C904 C 0.98958 0.28381 0.94446 0.0
N905 N 0.99715 0.28786 0.92778 0.0
C906 C 0.98518 0.29765 0.95666 0.0
C907 C 0.99664 0.31955 0.93436 0.0
C908 C 0.00086 0.30531 0.92265 0.0
C909 C 0.9886 0.31583 0.95161 0.0
H910 H 0.98687 0.26981 0.94823 0.0
H911 H 0.00685 0.30821 0.90929 0.0
C912 C 0.0223 0.22603 0.87213 0.0
N913 N 0.04981 0.2115 0.85305 0.0
C914 C 0.02058 0.22418 0.85227 0.0
C915 C 0.038 0.22045 0.88229 0.0
C916 C 0.03464 0.21681 0.84288 0.0
C917 C 0.05175 0.21313 0.87238 0.0
C918 C 0.97109 0.23233 0.91455 0.0
C919 C 0.96947 0.21698 0.90246 0.0
C920 C 0.95954 0.23305 0.92958 0.0
C921 C 0.9563 0.20259 0.90562 0.0
C922 C 0.94654 0.21838 0.93227 0.0
N923 N 0.94521 0.20358 0.92034 0.0
C924 C 0.02014 0.21846 0.9422 0.0
C925 C 0.01053 0.19932 0.91524 0.0
C926 C 0.02479 0.20361 0.95282 0.0
N927 N 0.01329 0.21606 0.92376 0.0
C928 C 0.01496 0.18409 0.92532 0.0
C929 C 0.02234 0.18613 0.94435 0.0
H930 H 0.02228 0.23197 0.94856 0.0
H931 H 0.00514 0.19782 0.90051 0.0
C932 C 0.97144 0.24683 0.8472 0.0
N933 N 0.96781 0.24591 0.86584 0.0
C934 C 0.95687 0.24554 0.83296 0.0
C935 C 0.93505 0.24277 0.8574 0.0
C936 C 0.95004 0.24414 0.87115 0.0
C937 C 0.93836 0.24349 0.83799 0.0
H938 H 0.98566 0.24903 0.84342 0.0
H939 H 0.94742 0.24416 0.88606 0.0
O940 O 0.0263 0.25846 0.91622 0.0
O941 O 0.00135 0.27433 0.88344 0.0
O942 O 0.00892 0.23365 0.88157 0.0
O943 O 0.98399 0.24656 0.91192 0.0
H944 H 0.03256 0.29028 0.89992 0.0
H945 H 0.04905 0.25793 0.94717 0.0
H946 H 0.05588 0.31498 0.91243 0.0
H947 H 0.07216 0.28326 0.95885 0.0
H948 H 0.94524 0.29601 0.89023 0.0
H949 H 0.00419 0.30037 0.85862 0.0
H950 H 0.96871 0.27466 0.89866 0.0
H951 H 0.98003 0.32136 0.85091 0.0
H952 H 0.08904 0.26273 0.87765 0.0
H953 H 0.05294 0.28072 0.83159 0.0
H954 H 0.97926 0.29415 0.96994 0.0
H955 H 0.99931 0.33331 0.92973 0.0
H956 H 0.00855 0.2284 0.84416 0.0
H957 H 0.03975 0.22208 0.89763 0.0
H958 H 0.03351 0.21535 0.82751 0.0
H959 H 0.06402 0.20887 0.88006 0.0
H960 H 0.97818 0.21618 0.89068 0.0
H961 H 0.96062 0.24484 0.93907 0.0
H962 H 0.9549 0.19063 0.89637 0.0
H963 H 0.93752 0.21876 0.94385 0.0
H964 H 0.03064 0.20587 0.96736 0.0
H965 H 0.0126 0.17087 0.91829 0.0
H966 H 0.96007 0.24656 0.81821 0.0
H967 H 0.92103 0.24113 0.86195 0.0
Li968 Li 0.52587 0.75533 0.36993 0.0
Li969 Li 0.50658 0.76594 0.39453 0.0
Li970 Li 0.51122 0.73265 0.39028 0.0
Li971 Li 0.49091 0.74809 0.36761 0.0
C972 C 0.54844 0.75637 0.40327 0.0
N973 N 0.58616 0.76225 0.41344 0.0
C974 C 0.55581 0.77261 0.41245 0.0
C975 C 0.56022 0.743 0.39957 0.0
C976 C 0.57492 0.77536 0.4174 0.0
C977 C 0.57925 0.74626 0.40473 0.0
C978 C 0.50361 0.79001 0.36606 0.0
C979 C 0.48438 0.8148 0.36801 0.0
N980 N 0.4992 0.82658 0.36448 0.0
C981 C 0.51859 0.80233 0.36225 0.0
C982 C 0.48631 0.79626 0.36877 0.0
C983 C 0.5161 0.82077 0.36158 0.0
C984 C 0.54756 0.75152 0.33883 0.0
N985 N 0.54692 0.7609 0.35553 0.0
C986 C 0.57604 0.7776 0.35099 0.0
C987 C 0.56066 0.77389 0.36164 0.0
C988 C 0.57721 0.76797 0.33376 0.0
C989 C 0.56266 0.7548 0.3277 0.0
H990 H 0.53626 0.74156 0.33405 0.0
H991 H 0.55964 0.78149 0.37471 0.0
C992 C 0.49082 0.78178 0.42558 0.0
N993 N 0.50362 0.78494 0.41254 0.0
C994 C 0.48762 0.79541 0.43861 0.0
C995 C 0.5111 0.81525 0.42479 0.0
C996 C 0.51386 0.80121 0.41207 0.0
C997 C 0.49777 0.81246 0.43827 0.0
H998 H 0.48302 0.76867 0.42587 0.0
H999 H 0.52424 0.8033 0.40185 0.0
C1000 C 0.51359 0.71534 0.35555 0.0
N1001 N 0.51934 0.68092 0.34288 0.0
C1002 C 0.49881 0.70395 0.34682 0.0
C1003 C 0.53136 0.70933 0.35753 0.0
C1004 C 0.50198 0.68657 0.34059 0.0
C1005 C 0.53397 0.69185 0.35112 0.0
C1006 C 0.46971 0.73979 0.39728 0.0
C1007 C 0.4633 0.72203 0.40132 0.0
C1008 C 0.45711 0.75296 0.39543 0.0
C1009 C 0.44432 0.71768 0.4031 0.0
C1010 C 0.43823 0.74807 0.3973 0.0
N1011 N 0.43228 0.73067 0.40105 0.0
C1012 C 0.52695 0.71134 0.41876 0.0
C1013 C 0.50552 0.69468 0.3965 0.0
C1014 C 0.5304 0.69558 0.42836 0.0
N1015 N 0.51482 0.71061 0.40304 0.0
C1016 C 0.50859 0.67856 0.4056 0.0
C1017 C 0.52121 0.67885 0.42178 0.0
H1018 H 0.53389 0.72422 0.42393 0.0
H1019 H 0.4956 0.69446 0.38427 0.0
C1020 C 0.46681 0.7586 0.33755 0.0
N1021 N 0.46909 0.74552 0.35051 0.0
C1022 C 0.45093 0.7576 0.32493 0.0
C1023 C 0.44016 0.72948 0.339 0.0
C1024 C 0.45628 0.73101 0.35129 0.0
C1025 C 0.43728 0.74293 0.3256 0.0
H1026 H 0.47737 0.76982 0.33695 0.0
H1027 H 0.45856 0.72059 0.36145 0.0
O1028 O 0.52976 0.7535 0.39821 0.0
O1029 O 0.50584 0.77191 0.36693 0.0
O1030 O 0.51069 0.73235 0.36189 0.0
O1031 O 0.48825 0.74427 0.39539 0.0
H1032 H 0.54689 0.78302 0.41566 0.0
H1033 H 0.55471 0.7302 0.39289 0.0
H1034 H 0.58082 0.78792 0.4244 0.0
H1035 H 0.58853 0.73605 0.40186 0.0
H1036 H 0.4711 0.81982 0.3702 0.0
H1037 H 0.53202 0.79773 0.35993 0.0
H1038 H 0.4745 0.7869 0.37141 0.0
H1039 H 0.5276 0.83047 0.35876 0.0
H1040 H 0.58696 0.78781 0.35627 0.0
H1041 H 0.56277 0.74731 0.31434 0.0
H1042 H 0.47714 0.79268 0.44867 0.0
H1043 H 0.51949 0.82806 0.42426 0.0
H1044 H 0.48501 0.70843 0.34497 0.0
H1045 H 0.54303 0.71808 0.36383 0.0
H1046 H 0.49063 0.67757 0.33393 0.0
H1047 H 0.54764 0.687 0.35265 0.0
H1048 H 0.47287 0.71171 0.403 0.0
H1049 H 0.46185 0.7668 0.39262 0.0
H1050 H 0.43916 0.70397 0.40613 0.0
H1051 H 0.42832 0.75811 0.39581 0.0
H1052 H 0.5399 0.69656 0.44102 0.0
H1053 H 0.50123 0.66601 0.39995 0.0
H1054 H 0.44949 0.76809 0.31461 0.0
H1055 H 0.42997 0.718 0.34015 0.0
Li1056 Li 0.9972 0.78155 0.65708 0.0
Li1057 Li 0.97637 0.76936 0.67926 0.0
Li1058 Li 0.01096 0.76582 0.68392 0.0
Li1059 Li 0.98958 0.74917 0.65838 0.0
C1060 C 0.00117 0.80648 0.68615 0.0
N1061 N 0.00833 0.84372 0.68883 0.0
C1062 C 0.98875 0.81756 0.67723 0.0
C1063 C 0.01723 0.81434 0.69646 0.0
C1064 C 0.99263 0.83635 0.67873 0.0
C1065 C 0.0206 0.8332 0.69765 0.0
C1066 C 0.95442 0.77074 0.64857 0.0
C1067 C 0.92201 0.76072 0.651 0.0
N1068 N 0.91727 0.77703 0.64478 0.0
C1069 C 0.94922 0.78739 0.64216 0.0
C1070 C 0.9407 0.75726 0.65296 0.0
C1071 C 0.93037 0.7903 0.64035 0.0
C1072 C 0.99512 0.79961 0.62211 0.0
N1073 N 0.00403 0.80026 0.63982 0.0
C1074 C 0.02526 0.82485 0.63126 0.0
C1075 C 0.01894 0.81247 0.64452 0.0
C1076 C 0.01644 0.82438 0.61282 0.0
C1077 C 0.00112 0.81161 0.60831 0.0
H1078 H 0.98376 0.78932 0.61848 0.0
H1079 H 0.02645 0.81213 0.6583 0.0
C1080 C 0.95018 0.76011 0.70611 0.0
N1081 N 0.95532 0.77293 0.69351 0.0
C1082 C 0.93519 0.76219 0.71716 0.0
C1083 C 0.93096 0.7906 0.70203 0.0
C1084 C 0.94612 0.78804 0.69139 0.0
C1085 C 0.92537 0.77762 0.7152 0.0
H1086 H 0.95781 0.74831 0.70771 0.0
H1087 H 0.9505 0.79814 0.68146 0.0
C1088 C 0.02465 0.76619 0.64172 0.0
N1089 N 0.0444 0.7758 0.61075 0.0
C1090 C 0.01739 0.76097 0.62329 0.0
C1091 C 0.04199 0.77624 0.64442 0.0
C1092 C 0.02759 0.76597 0.60782 0.0
C1093 C 0.05175 0.78098 0.62857 0.0
C1094 C 0.98824 0.72914 0.68822 0.0
C1095 C 0.00438 0.72073 0.69304 0.0
C1096 C 0.97131 0.71861 0.68438 0.0
C1097 C 0.00333 0.70185 0.69376 0.0
C1098 C 0.97084 0.69977 0.68521 0.0
N1099 N 0.98673 0.69186 0.68983 0.0
C1100 C 0.03212 0.77121 0.71935 0.0
C1101 C 0.04753 0.75849 0.69438 0.0
C1102 C 0.04821 0.77157 0.73164 0.0
N1103 N 0.03219 0.76496 0.70107 0.0
C1104 C 0.0639 0.75864 0.70613 0.0
C1105 C 0.06446 0.76546 0.72496 0.0
H1106 H 0.01966 0.77626 0.72424 0.0
H1107 H 0.04706 0.75335 0.67985 0.0
C1108 C 0.97066 0.72185 0.63298 0.0
N1109 N 0.98669 0.72707 0.64373 0.0
C1110 C 0.96928 0.70615 0.62146 0.0
C1111 C 0.0009 0.70149 0.63235 0.0
C1112 C 0.00165 0.71726 0.64366 0.0
C1113 C 0.98461 0.69582 0.62089 0.0
H1114 H 0.95907 0.73004 0.63305 0.0
H1115 H 0.01432 0.72191 0.65214 0.0
O1116 O 0.99771 0.78804 0.68478 0.0
O1117 O 0.97282 0.76766 0.65059 0.0
O1118 O 0.01459 0.76193 0.657 0.0
O1119 O 0.98909 0.74757 0.68693 0.0
H1120 H 0.9765 0.81172 0.66885 0.0
H1121 H 0.02706 0.80599 0.70336 0.0
H1122 H 0.9832 0.84508 0.67177 0.0
H1123 H 0.03299 0.83947 0.70555 0.0
H1124 H 0.91128 0.75046 0.65448 0.0
H1125 H 0.9596 0.79803 0.63881 0.0
H1126 H 0.94446 0.74437 0.65811 0.0
H1127 H 0.92616 0.80315 0.63548 0.0
H1128 H 0.0374 0.8342 0.63515 0.0
H1129 H 0.994 0.81077 0.59421 0.0
H1130 H 0.93126 0.75179 0.72706 0.0
H1131 H 0.92394 0.80281 0.70025 0.0
H1132 H 0.00389 0.75337 0.62094 0.0
H1133 H 0.04769 0.7806 0.65858 0.0
H1134 H 0.02209 0.76212 0.59346 0.0
H1135 H 0.06512 0.78886 0.63043 0.0
H1136 H 0.01761 0.72865 0.69602 0.0
H1137 H 0.95869 0.72489 0.68062 0.0
H1138 H 0.01573 0.69515 0.69736 0.0
H1139 H 0.95785 0.69145 0.68215 0.0
H1140 H 0.04809 0.77705 0.74601 0.0
H1141 H 0.076 0.75348 0.70052 0.0
H1142 H 0.9564 0.70222 0.61299 0.0
H1143 H 0.01317 0.69418 0.63212 0.0
Li1144 Li 0.50136 0.27657 0.15651 0.0
Li1145 Li 0.47923 0.26628 0.17981 0.0
Li1146 Li 0.51274 0.25991 0.18328 0.0
Li1147 Li 0.49116 0.2433 0.15912 0.0
C1148 C 0.50562 0.30206 0.18391 0.0
N1149 N 0.51281 0.33925 0.18291 0.0
C1150 C 0.49162 0.31328 0.18723 0.0
C1151 C 0.52334 0.30976 0.18029 0.0
C1152 C 0.49552 0.33205 0.18663 0.0
C1153 C 0.52668 0.32859 0.17977 0.0
C1154 C 0.45836 0.26382 0.1438 0.0
C1155 C 0.4277 0.24884 0.13569 0.0
N1156 N 0.42238 0.26431 0.12781 0.0
C1157 C 0.45265 0.27948 0.13536 0.0
C1158 C 0.44585 0.2483 0.14375 0.0
C1159 C 0.43438 0.27949 0.12746 0.0
C1160 C 0.52173 0.29108 0.12725 0.0
N1161 N 0.50804 0.29462 0.13864 0.0
C1162 C 0.5051 0.32317 0.12409 0.0
C1163 C 0.49958 0.31023 0.13721 0.0
C1164 C 0.51935 0.31991 0.11224 0.0
C1165 C 0.52768 0.3036 0.11398 0.0
H1166 H 0.52807 0.27849 0.12845 0.0
H1167 H 0.48857 0.31267 0.14626 0.0
C1168 C 0.45722 0.265 0.21111 0.0
N1169 N 0.45848 0.2719 0.19347 0.0
C1170 C 0.44236 0.2684 0.22184 0.0
C1171 C 0.43058 0.28644 0.19631 0.0
C1172 C 0.44565 0.28261 0.18604 0.0
C1173 C 0.42873 0.27923 0.21446 0.0
H1174 H 0.46777 0.25677 0.21685 0.0
H1175 H 0.44725 0.28846 0.17229 0.0
C1176 C 0.53404 0.25041 0.15636 0.0
N1177 N 0.56987 0.24008 0.1583 0.0
C1178 C 0.53706 0.2322 0.15379 0.0
C1179 C 0.54926 0.26339 0.15966 0.0
C1180 C 0.55527 0.22725 0.15487 0.0
C1181 C 0.56726 0.2579 0.16069 0.0
C1182 C 0.48093 0.22793 0.19338 0.0
C1183 C 0.49062 0.21539 0.20364 0.0
C1184 C 0.46168 0.22468 0.18958 0.0
C1185 C 0.48091 0.19961 0.2096 0.0
C1186 C 0.45247 0.20876 0.1958 0.0
N1187 N 0.4622 0.19664 0.20557 0.0
C1188 C 0.5422 0.2728 0.21011 0.0
C1189 C 0.5411 0.24151 0.20208 0.0
C1190 C 0.55899 0.27206 0.22102 0.0
N1191 N 0.53386 0.25774 0.2006 0.0
C1192 C 0.55788 0.24015 0.2128 0.0
C1193 C 0.56724 0.25565 0.22217 0.0
H1194 H 0.5361 0.28551 0.20879 0.0
H1195 H 0.53418 0.22974 0.19437 0.0
C1196 C 0.47905 0.22305 0.126 0.0
N1197 N 0.4854 0.22137 0.14446 0.0
C1198 C 0.47567 0.20782 0.11384 0.0
C1199 C 0.48551 0.18934 0.13987 0.0
C1200 C 0.48864 0.20495 0.15156 0.0
C1201 C 0.47907 0.19069 0.12068 0.0
H1202 H 0.47699 0.23632 0.12062 0.0
H1203 H 0.49418 0.20399 0.16611 0.0
O1204 O 0.50201 0.28364 0.1843 0.0
O1205 O 0.47625 0.26357 0.1515 0.0
O1206 O 0.51628 0.25547 0.15573 0.0
O1207 O 0.49027 0.24341 0.18736 0.0
H1208 H 0.47788 0.30758 0.19021 0.0
H1209 H 0.53435 0.3013 0.17771 0.0
H1210 H 0.48479 0.34089 0.1891 0.0
H1211 H 0.54029 0.33472 0.17683 0.0
H1212 H 0.41788 0.23693 0.13561 0.0
H1213 H 0.46218 0.29155 0.13505 0.0
H1214 H 0.45014 0.23588 0.14963 0.0
H1215 H 0.42975 0.29157 0.12103 0.0
H1216 H 0.49812 0.33546 0.12306 0.0
H1217 H 0.53885 0.30058 0.10532 0.0
H1218 H 0.44145 0.26241 0.23568 0.0
H1219 H 0.42067 0.29519 0.19022 0.0
H1220 H 0.52547 0.22197 0.15114 0.0
H1221 H 0.54719 0.27754 0.16159 0.0
H1222 H 0.5578 0.21319 0.15303 0.0
H1223 H 0.57915 0.26779 0.16341 0.0
H1224 H 0.50548 0.21776 0.20692 0.0
H1225 H 0.45389 0.23445 0.18215 0.0
H1226 H 0.48826 0.18974 0.21745 0.0
H1227 H 0.43757 0.20608 0.19292 0.0
H1228 H 0.56577 0.28437 0.22786 0.0
H1229 H 0.56361 0.22718 0.21351 0.0
H1230 H 0.47106 0.20956 0.09907 0.0
H1231 H 0.48829 0.1764 0.14573 0.0
H1232 H 0.28578 0.76144 0.86688 0.0
H1233 H 0.23447 0.77762 0.84023 0.0
H1234 H 0.28103 0.77909 0.89554 0.0
H1235 H 0.22943 0.79464 0.86903 0.0
H1236 H 0.21989 0.81064 0.93126 0.0
H1237 H 0.22368 0.79037 0.90412 0.0
H1238 H 0.28085 0.81258 0.90282 0.0
H1239 H 0.27708 0.83272 0.92989 0.0
C1240 C 0.27333 0.7685 0.86723 0.0
C1241 C 0.26026 0.76771 0.85138 0.0
C1242 C 0.27065 0.77862 0.88361 0.0
C1243 C 0.2548 0.78815 0.88454 0.0
C1244 C 0.24158 0.78713 0.86886 0.0
C1245 C 0.24437 0.77716 0.85239 0.0
C1246 C 0.23327 0.81107 0.92521 0.0
C1247 C 0.24816 0.8233 0.93258 0.0
C1248 C 0.23541 0.79957 0.90965 0.0
C1249 C 0.25256 0.79989 0.9014 0.0
C1250 C 0.26752 0.81192 0.909 0.0
C1251 C 0.26531 0.82356 0.92436 0.0
H1252 H 0.99772 0.51016 0.44487 0.0
H1253 H 0.04281 0.55016 0.464 0.0
H1254 H 0.0141 0.50342 0.41674 0.0
H1255 H 0.0589 0.54364 0.43588 0.0
H1256 H 0.09153 0.51565 0.39336 0.0
H1257 H 0.07499 0.51988 0.42184 0.0
H1258 H 0.02303 0.51785 0.38721 0.0
H1259 H 0.03961 0.51361 0.35867 0.0
C1260 C 0.01111 0.5175 0.4431 0.0
C1261 C 0.01894 0.5307 0.45671 0.0
C1262 C 0.02043 0.5137 0.42693 0.0
C1263 C 0.03782 0.52297 0.42408 0.0
C1264 C 0.04567 0.53606 0.43777 0.0
C1265 C 0.03636 0.53988 0.45386 0.0
C1266 C 0.07659 0.51618 0.39181 0.0
C1267 C 0.06691 0.51441 0.37373 0.0
C1268 C 0.0671 0.51859 0.40813 0.0
C1269 C 0.0477 0.51931 0.40679 0.0
C1270 C 0.03795 0.51714 0.38876 0.0
C1271 C 0.04745 0.51473 0.3724 0.0
H1272 H 0.80073 0.76295 0.87364 0.0
H1273 H 0.74802 0.73934 0.84729 0.0
H1274 H 0.79901 0.7406 0.89844 0.0
H1275 H 0.74659 0.71665 0.87176 0.0
H1276 H 0.73842 0.6956 0.93153 0.0
H1277 H 0.74122 0.7156 0.9048 0.0
H1278 H 0.80007 0.70925 0.90584 0.0
H1279 H 0.79744 0.68994 0.9333 0.0
C1280 C 0.7889 0.75282 0.87297 0.0
C1281 C 0.77443 0.75304 0.85856 0.0
C1282 C 0.78797 0.73993 0.88715 0.0
C1283 C 0.77259 0.72687 0.8872 0.0
C1284 C 0.75845 0.72671 0.87238 0.0
C1285 C 0.75933 0.73967 0.85827 0.0
C1286 C 0.752 0.69856 0.92617 0.0
C1287 C 0.76773 0.69126 0.9347 0.0
C1288 C 0.75356 0.70984 0.91063 0.0
C1289 C 0.77088 0.71406 0.90312 0.0
C1290 C 0.78656 0.70646 0.91139 0.0
C1291 C 0.785 0.6952 0.927 0.0
H1292 H 0.03185 0.95952 0.39233 0.0
H1293 H 0.02922 0.0124 0.41845 0.0
H1294 H 0.00629 0.96496 0.36947 0.0
H1295 H 0.00325 0.01769 0.39576 0.0
H1296 H 0.97098 0.02722 0.33822 0.0
H1297 H 0.99615 0.02278 0.36214 0.0
H1298 H 0.97321 0.96753 0.36832 0.0
H1299 H 0.94818 0.97195 0.34429 0.0
C1300 C 0.02578 0.9723 0.39324 0.0
C1301 C 0.03256 0.98552 0.40723 0.0
C1302 C 0.01101 0.97537 0.3802 0.0
C1303 C 0.00261 0.9917 0.38087 0.0
C1304 C 0.00952 0.00502 0.39475 0.0
C1305 C 0.02435 0.00196 0.4078 0.0
C1306 C 0.97119 0.01421 0.34489 0.0
C1307 C 0.95765 0.9999 0.33931 0.0
C1308 C 0.98561 0.01166 0.35859 0.0
C1309 C 0.98678 0.99476 0.36704 0.0
C1310 C 0.97294 0.98061 0.3618 0.0
C1311 C 0.95858 0.98314 0.34807 0.0
H1312 H 0.21004 0.26661 0.65623 0.0
H1313 H 0.25842 0.25075 0.68903 0.0
H1314 H 0.21535 0.24535 0.63065 0.0
H1315 H 0.2637 0.22952 0.66341 0.0
H1316 H 0.27759 0.20878 0.60401 0.0
H1317 H 0.27259 0.23042 0.62942 0.0
H1318 H 0.21416 0.21151 0.62585 0.0
H1319 H 0.21913 0.19 0.60033 0.0
C1320 C 0.22183 0.25863 0.65797 0.0
C1321 C 0.2338 0.26036 0.67467 0.0
C1322 C 0.2248 0.24639 0.64336 0.0
C1323 C 0.23992 0.23576 0.64505 0.0
C1324 C 0.25202 0.23764 0.66165 0.0
C1325 C 0.24894 0.24974 0.67635 0.0
C1326 C 0.26368 0.20932 0.60862 0.0
C1327 C 0.24876 0.1977 0.6002 0.0
C1328 C 0.26084 0.22159 0.62324 0.0
C1329 C 0.24298 0.22266 0.6296 0.0
C1330 C 0.22805 0.21109 0.62113 0.0
C1331 C 0.23092 0.19868 0.60666 0.0
H1332 H 0.51308 0.55444 0.60547 0.0
H1333 H 0.48132 0.50654 0.58036 0.0
H1334 H 0.49533 0.55177 0.6336 0.0
H1335 H 0.46354 0.50395 0.60854 0.0
H1336 H 0.44783 0.49703 0.67071 0.0
H1337 H 0.46715 0.49819 0.64366 0.0
H1338 H 0.46219 0.55557 0.63972 0.0
H1339 H 0.44252 0.55442 0.66642 0.0
C1340 C 0.50245 0.54324 0.60601 0.0
C1341 C 0.49854 0.53076 0.59061 0.0
C1342 C 0.4922 0.54179 0.62208 0.0
C1343 C 0.47794 0.52775 0.62318 0.0
C1344 C 0.4745 0.51487 0.60812 0.0
C1345 C 0.48465 0.51639 0.59196 0.0
C1346 C 0.45065 0.50987 0.66395 0.0
C1347 C 0.44358 0.52564 0.67078 0.0
C1348 C 0.46179 0.51052 0.64851 0.0
C1349 C 0.46625 0.52698 0.63966 0.0
C1350 C 0.45924 0.54274 0.64647 0.0
C1351 C 0.44798 0.54207 0.6618 0.0
H1352 H 0.75729 0.2833 0.69341 0.0
H1353 H 0.79345 0.25384 0.66056 0.0
H1354 H 0.75191 0.30297 0.66667 0.0
H1355 H 0.78866 0.27388 0.63409 0.0
H1356 H 0.7611 0.29984 0.58321 0.0
H1357 H 0.76582 0.28045 0.61014 0.0
H1358 H 0.76599 0.32657 0.64874 0.0
H1359 H 0.76004 0.34579 0.6218 0.0
C1360 C 0.76423 0.28113 0.68054 0.0
C1361 C 0.77574 0.26696 0.67909 0.0
C1362 C 0.76124 0.29248 0.66522 0.0
C1363 C 0.7698 0.29003 0.64814 0.0
C1364 C 0.78153 0.27599 0.64685 0.0
C1365 C 0.78439 0.26455 0.66209 0.0
C1366 C 0.76183 0.30584 0.59743 0.0
C1367 C 0.76009 0.32442 0.60026 0.0
C1368 C 0.76485 0.29473 0.61291 0.0
C1369 C 0.7664 0.30191 0.63168 0.0
C1370 C 0.76468 0.3205 0.63453 0.0
C1371 C 0.76151 0.3316 0.61903 0.0
H1372 H 0.51562 0.95541 0.60267 0.0
H1373 H 0.47597 0.9912 0.62091 0.0
H1374 H 0.53456 0.96185 0.63234 0.0
H1375 H 0.49523 0.99787 0.65065 0.0
H1376 H 0.52472 0.98757 0.70985 0.0
H1377 H 0.50516 0.98261 0.68009 0.0
H1378 H 0.55429 0.98669 0.64843 0.0
H1379 H 0.57381 0.99099 0.67808 0.0
C1380 C 0.51097 0.96475 0.61296 0.0
C1381 C 0.49426 0.9728 0.60937 0.0
C1382 C 0.52191 0.96852 0.62995 0.0
C1383 C 0.51645 0.98043 0.64382 0.0
C1384 C 0.49974 0.98851 0.64029 0.0
C1385 C 0.48877 0.98477 0.62322 0.0
C1386 C 0.53133 0.98732 0.69653 0.0
C1387 C 0.55083 0.98963 0.69635 0.0
C1388 C 0.52012 0.98468 0.67948 0.0
C1389 C 0.52818 0.9842 0.66191 0.0
C1390 C 0.54766 0.98678 0.66174 0.0
C1391 C 0.55884 0.98945 0.67874 0.0
H1392 H 0.84992 0.20105 0.75639 0.0
H1393 H 0.83925 0.2572 0.76252 0.0
H1394 H 0.87824 0.20687 0.77711 0.0
H1395 H 0.86796 0.26311 0.78303 0.0
H1396 H 0.9055 0.25907 0.83866 0.0
H1397 H 0.87896 0.25553 0.81512 0.0
H1398 H 0.9093 0.22216 0.77972 0.0
H1399 H 0.93556 0.22506 0.80364 0.0
C1400 C 0.85374 0.21471 0.76194 0.0
C1401 C 0.84222 0.22863 0.75787 0.0
C1402 C 0.87008 0.21808 0.77375 0.0
C1403 C 0.87536 0.23545 0.78179 0.0
C1404 C 0.86415 0.24952 0.77727 0.0
C1405 C 0.84776 0.24616 0.76542 0.0
C1406 C 0.90647 0.25089 0.8259 0.0
C1407 C 0.9226 0.2422 0.82313 0.0
C1408 C 0.89135 0.24907 0.81228 0.0
C1409 C 0.89199 0.23853 0.79554 0.0
C1410 C 0.90828 0.23021 0.79255 0.0
C1411 C 0.9234 0.23201 0.80618 0.0
H1412 H 0.50245 0.88374 0.53779 0.0
H1413 H 0.46551 0.90852 0.4973 0.0
H1414 H 0.50557 0.85966 0.51461 0.0
H1415 H 0.46841 0.88411 0.4741 0.0
H1416 H 0.49607 0.84854 0.4315 0.0
H1417 H 0.49178 0.87275 0.45437 0.0
H1418 H 0.48743 0.83369 0.49885 0.0
H1419 H 0.49238 0.80963 0.47619 0.0
C1420 C 0.49489 0.88401 0.52397 0.0
C1421 C 0.48372 0.89807 0.51941 0.0
C1422 C 0.49661 0.87011 0.5107 0.0
C1423 C 0.4872 0.86992 0.49252 0.0
C1424 C 0.47598 0.88397 0.48793 0.0
C1425 C 0.47424 0.8979 0.50125 0.0
C1426 C 0.49433 0.84515 0.4462 0.0
C1427 C 0.49464 0.82716 0.45203 0.0
C1428 C 0.49165 0.85899 0.45924 0.0
C1429 C 0.48929 0.85516 0.47844 0.0
C1430 C 0.48942 0.83714 0.48422 0.0
C1431 C 0.49205 0.82331 0.47118 0.0
H1432 H 0.1699 0.32679 0.80609 0.0
H1433 H 0.16232 0.27533 0.77524 0.0
H1434 H 0.14293 0.31798 0.82365 0.0
H1435 H 0.13537 0.26638 0.79313 0.0
H1436 H 0.07648 0.26596 0.81505 0.0
H1437 H 0.10332 0.27415 0.79679 0.0
H1438 H 0.13412 0.29665 0.84801 0.0
H1439 H 0.10716 0.28904 0.86609 0.0
C1440 C 0.16251 0.31356 0.80307 0.0
C1441 C 0.16829 0.30175 0.78928 0.0
C1442 C 0.1471 0.30847 0.81324 0.0
C1443 C 0.13707 0.29144 0.80986 0.0
C1444 C 0.14273 0.27966 0.79594 0.0
C1445 C 0.15821 0.28474 0.78577 0.0
C1446 C 0.08895 0.27277 0.82236 0.0
C1447 C 0.08967 0.2769 0.84201 0.0
C1448 C 0.10438 0.27728 0.81195 0.0
C1449 C 0.12083 0.28609 0.82094 0.0
C1450 C 0.12158 0.29006 0.84061 0.0
C1451 C 0.1062 0.28552 0.85102 0.0
H1452 H 0.56409 0.58564 0.47949 0.0
H1453 H 0.51112 0.5933 0.50177 0.0
H1454 H 0.55921 0.60949 0.45671 0.0
H1455 H 0.50653 0.61726 0.47953 0.0
H1456 H 0.49555 0.65069 0.42866 0.0
H1457 H 0.50043 0.62371 0.4467 0.0
H1458 H 0.55875 0.64213 0.45716 0.0
H1459 H 0.55406 0.66868 0.43824 0.0
C1460 C 0.55138 0.59231 0.47947 0.0
C1461 C 0.53803 0.58757 0.49251 0.0
C1462 C 0.54864 0.60606 0.4665 0.0
C1463 C 0.53249 0.61533 0.46629 0.0
C1464 C 0.51899 0.61025 0.47905 0.0
C1465 C 0.5217 0.59655 0.49193 0.0
C1466 C 0.50949 0.64884 0.43447 0.0
C1467 C 0.52439 0.66195 0.43206 0.0
C1468 C 0.51225 0.63345 0.44502 0.0
C1469 C 0.52995 0.6308 0.45353 0.0
C1470 C 0.54496 0.64364 0.45068 0.0
C1471 C 0.54222 0.65901 0.44006 0.0
H1472 H 0.85743 0.80773 0.80545 0.0
H1473 H 0.81747 0.78275 0.76195 0.0
H1474 H 0.88263 0.80258 0.78534 0.0
H1475 H 0.84274 0.77748 0.74192 0.0
H1476 H 0.89173 0.78964 0.70404 0.0
H1477 H 0.86624 0.79491 0.72384 0.0
H1478 H 0.89794 0.77673 0.77295 0.0
H1479 H 0.92356 0.77185 0.75326 0.0
C1480 C 0.85401 0.80114 0.7916 0.0
C1481 C 0.83543 0.79565 0.78531 0.0
C1482 C 0.86847 0.7981 0.78013 0.0
C1483 C 0.86468 0.78958 0.76207 0.0
C1484 C 0.84609 0.78422 0.7557 0.0
C1485 C 0.83163 0.78717 0.76722 0.0
C1486 C 0.89327 0.78686 0.71908 0.0
C1487 C 0.90966 0.78035 0.72709 0.0
C1488 C 0.87862 0.78972 0.73038 0.0
C1489 C 0.88009 0.78626 0.74996 0.0
C1490 C 0.89646 0.77969 0.75795 0.0
C1491 C 0.91105 0.77672 0.74663 0.0
H1492 H 0.04377 0.91216 0.53632 0.0
H1493 H 0.08044 0.87132 0.52378 0.0
H1494 H 0.03049 0.89303 0.56068 0.0
H1495 H 0.06715 0.85226 0.54813 0.0
H1496 H 0.02292 0.81536 0.5763 0.0
H1497 H 0.03616 0.8351 0.55241 0.0
H1498 H 0.04032 0.88044 0.5925 0.0
H1499 H 0.02688 0.86071 0.61636 0.0
C1500 C 0.04905 0.89915 0.53882 0.0
C1501 C 0.06314 0.89324 0.5281 0.0
C1502 C 0.0415 0.88824 0.55281 0.0
C1503 C 0.04773 0.87113 0.55623 0.0
C1504 C 0.06193 0.8653 0.54564 0.0
C1505 C 0.06962 0.87627 0.53179 0.0
C1506 C 0.02648 0.82959 0.57993 0.0
C1507 C 0.02383 0.83653 0.59815 0.0
C1508 C 0.03423 0.84083 0.56633 0.0
C1509 C 0.03933 0.85928 0.57063 0.0
C1510 C 0.03643 0.86629 0.58877 0.0
C1511 C 0.02886 0.85499 0.60244 0.0
H1512 H 0.15754 0.74345 0.80324 0.0
H1513 H 0.17499 0.79506 0.7797 0.0
H1514 H 0.12726 0.74343 0.78555 0.0
H1515 H 0.14467 0.79513 0.76228 0.0
H1516 H 0.09943 0.77648 0.71519 0.0
H1517 H 0.12851 0.77783 0.73505 0.0
H1518 H 0.09844 0.75898 0.78276 0.0
H1519 H 0.06928 0.75712 0.76266 0.0
C1520 C 0.15485 0.75489 0.79448 0.0
C1521 C 0.16874 0.76919 0.79276 0.0
C1522 C 0.13747 0.75491 0.78442 0.0
C1523 C 0.13363 0.76921 0.7724 0.0
C1524 C 0.14732 0.78377 0.77118 0.0
C1525 C 0.16466 0.78377 0.78125 0.0
C1526 C 0.09902 0.77249 0.72988 0.0
C1527 C 0.08206 0.76659 0.73732 0.0
C1528 C 0.11566 0.77348 0.74133 0.0
C1529 C 0.11577 0.76858 0.7605 0.0
C1530 C 0.09881 0.76274 0.76801 0.0
C1531 C 0.08211 0.76182 0.75655 0.0
H1532 H 0.99704 0.62996 0.52131 0.0
H1533 H 0.98703 0.58977 0.56385 0.0
H1534 H 0.99274 0.65379 0.54435 0.0
H1535 H 0.9823 0.61371 0.58689 0.0
H1536 H 0.99915 0.66346 0.62753 0.0
H1537 H 0.00055 0.63833 0.60493 0.0
H1538 H 0.96952 0.6665 0.56206 0.0
H1539 H 0.96887 0.69194 0.58434 0.0
C1540 C 0.99374 0.62618 0.53554 0.0
C1541 C 0.99244 0.60795 0.54075 0.0
C1542 C 0.99114 0.63986 0.54874 0.0
C1543 C 0.98714 0.63568 0.56747 0.0
C1544 C 0.98557 0.61741 0.57263 0.0
C1545 C 0.98819 0.60369 0.5594 0.0
C1546 C 0.99267 0.6643 0.61326 0.0
C1547 C 0.98401 0.67979 0.60773 0.0
C1548 C 0.99327 0.6498 0.60037 0.0
C1549 C 0.98523 0.65043 0.58165 0.0
C1550 C 0.97608 0.66568 0.5763 0.0
C1551 C 0.9755 0.68018 0.58916 0.0
H1552 H 0.73968 0.86537 0.2124 0.0
H1553 H 0.78053 0.83787 0.24564 0.0
H1554 H 0.7606 0.89321 0.21489 0.0
H1555 H 0.80145 0.86574 0.24799 0.0
H1556 H 0.84012 0.91487 0.23037 0.0
H1557 H 0.81964 0.88672 0.22616 0.0
H1558 H 0.77336 0.91505 0.24233 0.0
H1559 H 0.79385 0.94321 0.24651 0.0
C1560 C 0.75318 0.86521 0.22008 0.0
C1561 C 0.75843 0.84941 0.22886 0.0
C1562 C 0.76508 0.88118 0.2216 0.0
C1563 C 0.78259 0.88163 0.23169 0.0
C1564 C 0.78807 0.86574 0.24003 0.0
C1565 C 0.77606 0.84981 0.23874 0.0
C1566 C 0.82554 0.91507 0.2329 0.0
C1567 C 0.81853 0.9312 0.23874 0.0
C1568 C 0.81388 0.89897 0.23062 0.0
C1569 C 0.79493 0.89874 0.23389 0.0
C1570 C 0.78789 0.91489 0.23956 0.0
C1571 C 0.79961 0.93095 0.24209 0.0
H1572 H 0.84175 0.19847 0.30122 0.0
H1573 H 0.78682 0.17916 0.27679 0.0
H1574 H 0.85168 0.16809 0.2977 0.0
H1575 H 0.79679 0.14874 0.27333 0.0
H1576 H 0.83087 0.10489 0.24767 0.0
H1577 H 0.81881 0.13401 0.25335 0.0
H1578 H 0.84578 0.13699 0.3102 0.0
H1579 H 0.85755 0.10769 0.30474 0.0
C1580 C 0.83175 0.18772 0.29523 0.0
C1581 C 0.81351 0.19124 0.28924 0.0
C1582 C 0.83742 0.1703 0.29331 0.0
C1583 C 0.82502 0.15605 0.28519 0.0
C1584 C 0.8067 0.1595 0.27946 0.0
C1585 C 0.80097 0.17689 0.28155 0.0
C1586 C 0.83398 0.11157 0.2615 0.0
C1587 C 0.84528 0.10394 0.2757 0.0
C1588 C 0.82708 0.12829 0.26474 0.0
C1589 C 0.83142 0.13781 0.28219 0.0
C1590 C 0.84244 0.13008 0.29651 0.0
C1591 C 0.84922 0.11331 0.29333 0.0
H1592 H 0.40197 0.00962 0.96673 0.0
H1593 H 0.42094 0.01123 0.0264 0.0
H1594 H 0.37554 0.98823 0.97326 0.0
H1595 H 0.39418 0.99014 0.03293 0.0
H1596 H 0.32944 0.97105 0.03437 0.0
H1597 H 0.35674 0.99197 0.0289 0.0
H1598 H 0.3729 0.95445 0.98682 0.0
H1599 H 0.34588 0.9334 0.99257 0.0
C1600 C 0.40045 0.00546 0.98124 0.0
C1601 C 0.41352 0.01206 0.99606 0.0
C1602 C 0.38539 0.99319 0.98494 0.0
C1603 C 0.3829 0.98761 0.00358 0.0
C1604 C 0.39581 0.99433 0.01845 0.0
C1605 C 0.41112 0.0063 0.01469 0.0
C1606 C 0.33891 0.9673 0.02404 0.0
C1607 C 0.33565 0.95065 0.01391 0.0
C1608 C 0.3545 0.97917 0.02098 0.0
C1609 C 0.36683 0.97476 0.00743 0.0
C1610 C 0.36354 0.95814 0.99729 0.0
C1611 C 0.34819 0.94611 0.00064 0.0
H1612 H 0.21703 0.35131 0.34103 0.0
H1613 H 0.23369 0.34877 0.28336 0.0
H1614 H 0.20127 0.37815 0.33373 0.0
H1615 H 0.21814 0.376 0.27614 0.0
H1616 H 0.16927 0.41187 0.26585 0.0
H1617 H 0.18672 0.38572 0.27216 0.0
H1618 H 0.20777 0.40973 0.32681 0.0
H1619 H 0.18975 0.43543 0.32088 0.0
C1620 C 0.21746 0.35655 0.32681 0.0
C1621 C 0.22662 0.34787 0.31277 0.0
C1622 C 0.2085 0.37204 0.32266 0.0
C1623 C 0.2085 0.37928 0.30437 0.0
C1624 C 0.21774 0.37066 0.29032 0.0
C1625 C 0.22673 0.35512 0.29449 0.0
C1626 C 0.17756 0.41152 0.27924 0.0
C1627 C 0.17802 0.42572 0.29289 0.0
C1628 C 0.18774 0.39663 0.28277 0.0
C1629 C 0.19859 0.39559 0.30003 0.0
C1630 C 0.19936 0.40998 0.31348 0.0
C1631 C 0.1892 0.42484 0.30997 0.0
H1632 H 0.09564 0.00059 0.47783 0.0
H1633 H 0.13857 0.96671 0.49639 0.0
H1634 H 0.11818 0.02712 0.48109 0.0
H1635 H 0.16084 0.9933 0.50072 0.0
H1636 H 0.20106 0.04061 0.48713 0.0
H1637 H 0.17781 0.01475 0.48229 0.0
H1638 H 0.13655 0.0466 0.50431 0.0
H1639 H 0.15985 0.07263 0.50876 0.0
C1640 C 0.10989 0.99873 0.48238 0.0
C1641 C 0.11537 0.98142 0.48632 0.0
C1642 C 0.12278 0.01403 0.4846 0.0
C1643 C 0.14142 0.01236 0.49097 0.0
C1644 C 0.14674 0.99508 0.49535 0.0
C1645 C 0.13389 0.97982 0.49305 0.0
C1646 C 0.18703 0.04206 0.49096 0.0
C1647 C 0.18231 0.0586 0.49845 0.0
C1648 C 0.1737 0.02723 0.48825 0.0
C1649 C 0.15532 0.0285 0.49309 0.0
C1650 C 0.15051 0.04517 0.50024 0.0
C1651 C 0.16385 0.06008 0.50283 0.0
H1652 H 0.74572 0.16744 0.78084 0.0
H1653 H 0.74287 0.1514 0.72124 0.0
H1654 H 0.72343 0.14193 0.78673 0.0
H1655 H 0.7208 0.12564 0.72724 0.0
H1656 H 0.66893 0.09029 0.74231 0.0
H1657 H 0.68919 0.11734 0.73615 0.0
H1658 H 0.72325 0.10918 0.78764 0.0
H1659 H 0.70263 0.08256 0.79417 0.0
C1660 C 0.74029 0.15851 0.76897 0.0
C1661 C 0.74615 0.16141 0.75058 0.0
C1662 C 0.7276 0.14381 0.77238 0.0
C1663 C 0.72047 0.13165 0.7575 0.0
C1664 C 0.72592 0.13483 0.73899 0.0
C1665 C 0.73863 0.14956 0.73557 0.0
C1666 C 0.68063 0.09439 0.75242 0.0
C1667 C 0.68415 0.08427 0.76875 0.0
C1668 C 0.69235 0.10978 0.74878 0.0
C1669 C 0.70782 0.11543 0.76141 0.0
C1670 C 0.71132 0.10533 0.77775 0.0
C1671 C 0.69963 0.08993 0.78137 0.0
H1672 H 0.38931 0.99737 0.57116 0.0
H1673 H 0.42329 0.02466 0.53054 0.0
H1674 H 0.36671 0.01958 0.56665 0.0
H1675 H 0.40038 0.04657 0.52554 0.0
H1676 H 0.36386 0.09263 0.53374 0.0
H1677 H 0.38727 0.07146 0.54016 0.0
H1678 H 0.3437 0.02798 0.5435 0.0
H1679 H 0.32038 0.04926 0.53817 0.0
C1680 C 0.39192 0.00807 0.56119 0.0
C1681 C 0.40808 0.00921 0.55118 0.0
C1682 C 0.3789 0.02076 0.55852 0.0
C1683 C 0.38164 0.03485 0.54565 0.0
C1684 C 0.39791 0.03606 0.53575 0.0
C1685 C 0.411 0.02343 0.53852 0.0
C1686 C 0.35928 0.0786 0.5361 0.0
C1687 C 0.3402 0.07267 0.53538 0.0
C1688 C 0.37272 0.0664 0.53955 0.0
C1689 C 0.36741 0.04797 0.54231 0.0
C1690 C 0.34834 0.04209 0.54167 0.0
C1691 C 0.33493 0.05428 0.53833 0.0
H1692 H 0.58323 0.4846 0.52263 0.0
H1693 H 0.62665 0.52874 0.52483 0.0
H1694 H 0.60635 0.46301 0.51961 0.0
H1695 H 0.64971 0.50729 0.52088 0.0
H1696 H 0.68884 0.46419 0.53474 0.0
H1697 H 0.66543 0.48554 0.53735 0.0
H1698 H 0.62701 0.45099 0.49958 0.0
H1699 H 0.65031 0.42933 0.4977 0.0
C1700 C 0.59771 0.4897 0.5222 0.0
C1701 C 0.60312 0.50837 0.52406 0.0
C1702 C 0.61099 0.47732 0.52036 0.0
C1703 C 0.63 0.48332 0.52006 0.0
C1704 C 0.6353 0.50208 0.52147 0.0
C1705 C 0.62205 0.51442 0.52359 0.0
C1706 C 0.67539 0.46122 0.52697 0.0
C1707 C 0.67139 0.44513 0.51601 0.0
C1708 C 0.66197 0.4735 0.52837 0.0
C1709 C 0.64427 0.47012 0.5186 0.0
C1710 C 0.64033 0.45397 0.50757 0.0
C1711 C 0.65369 0.44157 0.5064 0.0
H1712 H 0.74211 0.25356 0.34378 0.0
H1713 H 0.79499 0.28567 0.34407 0.0
H1714 H 0.73523 0.26957 0.37277 0.0
H1715 H 0.78813 0.30178 0.37279 0.0
H1716 H 0.77984 0.31531 0.43369 0.0
H1717 H 0.78539 0.29738 0.40583 0.0
H1718 H 0.72798 0.29878 0.38473 0.0
H1719 H 0.7221 0.31592 0.41331 0.0
C1720 C 0.7521 0.26425 0.34983 0.0
C1721 C 0.76896 0.26854 0.34149 0.0
C1722 C 0.74821 0.27338 0.36649 0.0
C1723 C 0.76113 0.28697 0.37516 0.0
C1724 C 0.77799 0.29118 0.36675 0.0
C1725 C 0.7819 0.28201 0.35021 0.0
C1726 C 0.76826 0.31151 0.42335 0.0
C1727 C 0.75049 0.31708 0.42584 0.0
C1728 C 0.77153 0.30143 0.40717 0.0
C1729 C 0.7572 0.29678 0.39289 0.0
C1730 C 0.73932 0.30203 0.39549 0.0
C1731 C 0.73601 0.31206 0.41178 0.0
H1732 H 0.53503 0.04213 0.9622 0.0
H1733 H 0.48433 0.01901 0.93127 0.0
H1734 H 0.55291 0.03295 0.93631 0.0
H1735 H 0.50235 0.00934 0.90553 0.0
H1736 H 0.53831 0.01687 0.8541 0.0
H1737 H 0.51956 0.02277 0.88058 0.0
H1738 H 0.56349 0.00751 0.9202 0.0
H1739 H 0.58232 0.00191 0.89369 0.0
C1740 C 0.5277 0.03487 0.94999 0.0
C1741 C 0.50822 0.0314 0.94879 0.0
C1742 C 0.538 0.02949 0.93516 0.0
C1743 C 0.52909 0.02042 0.91878 0.0
C1744 C 0.50963 0.01654 0.9178 0.0
C1745 C 0.49931 0.02199 0.93262 0.0
C1746 C 0.54384 0.01455 0.86845 0.0
C1747 C 0.56183 0.00902 0.87182 0.0
C1748 C 0.53308 0.01789 0.88365 0.0
C1749 C 0.54003 0.01569 0.90256 0.0
C1750 C 0.55784 0.00967 0.90586 0.0
C1751 C 0.56863 0.00643 0.89067 0.0
H1752 H 0.24481 0.2475 0.34947 0.0
H1753 H 0.30248 0.26413 0.36674 0.0
H1754 H 0.24412 0.22522 0.37434 0.0
H1755 H 0.30165 0.24212 0.39197 0.0
H1756 H 0.29798 0.18992 0.42542 0.0
H1757 H 0.29925 0.2101 0.39851 0.0
H1758 H 0.24436 0.22512 0.40849 0.0
H1759 H 0.24275 0.20439 0.43473 0.0
C1760 C 0.25736 0.2464 0.35856 0.0
C1761 C 0.27368 0.25768 0.35616 0.0
C1762 C 0.25693 0.23368 0.37291 0.0
C1763 C 0.27278 0.23198 0.38529 0.0
C1764 C 0.28924 0.24295 0.38259 0.0
C1765 C 0.28969 0.25564 0.36817 0.0
C1766 C 0.2861 0.19736 0.42171 0.0
C1767 C 0.27027 0.19554 0.43227 0.0
C1768 C 0.28691 0.20908 0.40642 0.0
C1769 C 0.27191 0.21924 0.40131 0.0
C1770 C 0.25608 0.21734 0.41184 0.0
C1771 C 0.25526 0.20563 0.42709 0.0
H1772 H 0.51129 0.50582 0.93138 0.0
H1773 H 0.55236 0.52067 0.89145 0.0
H1774 H 0.48653 0.50901 0.90675 0.0
H1775 H 0.52756 0.52439 0.86694 0.0
H1776 H 0.48 0.50538 0.82259 0.0
H1777 H 0.50486 0.50498 0.84773 0.0
H1778 H 0.4709 0.52985 0.88704 0.0
H1779 H 0.44588 0.52998 0.86186 0.0
C1780 C 0.51504 0.51005 0.91743 0.0
C1781 C 0.53382 0.51284 0.91334 0.0
C1782 C 0.50082 0.51197 0.90331 0.0
C1783 C 0.50504 0.51681 0.8848 0.0
C1784 C 0.52382 0.52029 0.88094 0.0
C1785 C 0.53805 0.51828 0.89503 0.0
C1786 C 0.47791 0.51089 0.83656 0.0
C1787 C 0.46099 0.51772 0.84025 0.0
C1788 C 0.49219 0.51073 0.85097 0.0
C1789 C 0.48994 0.51747 0.86941 0.0
C1790 C 0.47301 0.52435 0.87308 0.0
C1791 C 0.45868 0.52443 0.85866 0.0
H1792 H 0.73367 0.74826 0.19442 0.0
H1793 H 0.71378 0.78105 0.14866 0.0
H1794 H 0.74219 0.72617 0.1711 0.0
H1795 H 0.72226 0.75896 0.12542 0.0
H1796 H 0.75828 0.72519 0.09025 0.0
H1797 H 0.75106 0.74722 0.11418 0.0
H1798 H 0.72588 0.70401 0.14657 0.0
H1799 H 0.73267 0.68195 0.12246 0.0
C1800 C 0.73114 0.75076 0.1794 0.0
C1801 C 0.72304 0.7664 0.1734 0.0
C1802 C 0.73593 0.73807 0.16606 0.0
C1803 C 0.73292 0.74085 0.14644 0.0
C1804 C 0.72494 0.75654 0.14044 0.0
C1805 C 0.71998 0.76914 0.15377 0.0
C1806 C 0.75107 0.72036 0.10238 0.0
C1807 C 0.74598 0.70176 0.10433 0.0
C1808 C 0.74698 0.733 0.11611 0.0
C1809 C 0.73785 0.72735 0.13221 0.0
C1810 C 0.73311 0.70875 0.13441 0.0
C1811 C 0.73706 0.69611 0.1206 0.0
H1812 H 0.9853 0.0313 0.0778 0.0
H1813 H 0.03331 0.04 0.11825 0.0
H1814 H 0.96541 0.02518 0.10383 0.0
H1815 H 0.0134 0.03356 0.14429 0.0
H1816 H 0.96866 0.04622 0.1849 0.0
H1817 H 0.98959 0.04907 0.15932 0.0
H1818 H 0.95789 0.00394 0.12883 0.0
H1819 H 0.93694 0.00103 0.15449 0.0
C1820 C 0.99166 0.03166 0.09223 0.0
C1821 C 0.01088 0.03628 0.09595 0.0
C1822 C 0.98025 0.02806 0.10715 0.0
C1823 C 0.9878 0.02902 0.12614 0.0
C1824 C 0.00712 0.03301 0.12982 0.0
C1825 C 0.01854 0.03658 0.11489 0.0
C1826 C 0.96628 0.03675 0.17286 0.0
C1827 C 0.95111 0.02342 0.17174 0.0
C1828 C 0.9783 0.03837 0.15821 0.0
C1829 C 0.97544 0.0267 0.14206 0.0
C1830 C 0.96035 0.01327 0.14098 0.0
C1831 C 0.94832 0.01164 0.15566 0.0
H1832 H 0.25672 0.78872 0.20149 0.0
H1833 H 0.27046 0.74606 0.16369 0.0
H1834 H 0.25268 0.80832 0.17441 0.0
H1835 H 0.26664 0.76576 0.13665 0.0
H1836 H 0.23867 0.79978 0.09099 0.0
H1837 H 0.24207 0.78003 0.11804 0.0
H1838 H 0.27175 0.82443 0.15148 0.0
H1839 H 0.26854 0.84414 0.12442 0.0
C1840 C 0.2589 0.78353 0.18741 0.0
C1841 C 0.26392 0.76583 0.18476 0.0
C1842 C 0.25668 0.7948 0.17191 0.0
C1843 C 0.25936 0.78861 0.15337 0.0
C1844 C 0.26427 0.77087 0.15071 0.0
C1845 C 0.26656 0.75962 0.16623 0.0
C1846 C 0.24606 0.8053 0.10405 0.0
C1847 C 0.25333 0.82357 0.1055 0.0
C1848 C 0.24799 0.79398 0.11956 0.0
C1849 C 0.25717 0.80066 0.13691 0.0
C1850 C 0.26436 0.81893 0.1384 0.0
C1851 C 0.26249 0.83024 0.12288 0.0
H1852 H 0.0074 0.48392 0.10076 0.0
H1853 H 0.96066 0.46937 0.13409 0.0
H1854 H 0.02727 0.49061 0.12996 0.0
H1855 H 0.98064 0.4761 0.16335 0.0
H1856 H 0.03003 0.4658 0.20748 0.0
H1857 H 0.00794 0.46196 0.17953 0.0
H1858 H 0.03128 0.51247 0.15803 0.0
H1859 H 0.05307 0.51662 0.18617 0.0
C1860 C 0.00132 0.48229 0.11431 0.0
C1861 C 0.98246 0.47605 0.1151 0.0
C1862 C 0.01269 0.48622 0.13103 0.0
C1863 C 0.0055 0.48383 0.14891 0.0
C1864 C 0.98658 0.47791 0.14974 0.0
C1865 C 0.97513 0.47417 0.13299 0.0
C1866 C 0.03025 0.47627 0.19699 0.0
C1867 C 0.04345 0.49146 0.19905 0.0
C1868 C 0.01761 0.47404 0.18096 0.0
C1869 C 0.01797 0.48688 0.16657 0.0
C1870 C 0.03087 0.50223 0.16878 0.0
C1871 C 0.0434 0.50455 0.18487 0.0
H1872 H 0.32628 0.75219 0.27348 0.0
H1873 H 0.34857 0.71322 0.23698 0.0
H1874 H 0.35601 0.75647 0.29231 0.0
H1875 H 0.37843 0.71787 0.2555 0.0
H1876 H 0.41942 0.71261 0.30727 0.0
H1877 H 0.39084 0.71027 0.2866 0.0
H1878 H 0.38827 0.76807 0.29257 0.0
H1879 H 0.41641 0.77029 0.31404 0.0
C1880 C 0.33761 0.74475 0.26928 0.0
C1881 C 0.33498 0.73225 0.25381 0.0
C1882 C 0.35469 0.74727 0.28004 0.0
C1883 C 0.36958 0.7374 0.27553 0.0
C1884 C 0.36715 0.72542 0.2596 0.0
C1885 C 0.35006 0.72285 0.2489 0.0
C1886 C 0.41268 0.72481 0.30432 0.0
C1887 C 0.42018 0.74162 0.31241 0.0
C1888 C 0.39642 0.72351 0.29223 0.0
C1889 C 0.38726 0.73899 0.28786 0.0
C1890 C 0.39486 0.75585 0.29578 0.0
C1891 C 0.41112 0.75715 0.30792 0.0
H1892 H 0.97102 0.42076 0.00168 0.0
H1893 H 0.95441 0.3822 0.04384 0.0
H1894 H 0.9769 0.39591 0.98033 0.0
H1895 H 0.9605 0.35742 0.02257 0.0
H1896 H 0.95766 0.317 0.97181 0.0
H1897 H 0.94951 0.34179 0.99201 0.0
H1898 H 1.00007 0.37352 0.97965 0.0
H1899 H 0.00835 0.34873 0.95966 0.0
C1900 C 0.96849 0.40699 0.00635 0.0
C1901 C 0.96232 0.40348 0.02451 0.0
C1902 C 0.97198 0.39276 0.99416 0.0
C1903 C 0.9693 0.3747 0.99982 0.0
C1904 C 0.96258 0.37117 0.01773 0.0
C1905 C 0.95917 0.38539 0.02996 0.0
C1906 C 0.96714 0.32919 0.97355 0.0
C1907 C 0.98367 0.33085 0.96409 0.0
C1908 C 0.96243 0.34341 0.98508 0.0
C1909 C 0.97409 0.35965 0.98735 0.0
C1910 C 0.99061 0.36131 0.97791 0.0
C1911 C 0.99536 0.34708 0.96646 0.0
H1912 H 0.68143 0.76771 0.27875 0.0
H1913 H 0.65638 0.81454 0.25699 0.0
H1914 H 0.65456 0.76035 0.29714 0.0
H1915 H 0.62937 0.80695 0.27497 0.0
H1916 H 0.59526 0.80093 0.32672 0.0
H1917 H 0.62178 0.80724 0.30772 0.0
H1918 H 0.6217 0.75007 0.29448 0.0
H1919 H 0.59567 0.74368 0.31424 0.0
C1920 C 0.6701 0.77631 0.27771 0.0
C1921 C 0.6711 0.79178 0.2665 0.0
C1922 C 0.65466 0.77206 0.2882 0.0
C1923 C 0.63986 0.78314 0.28765 0.0
C1924 C 0.64068 0.79832 0.27602 0.0
C1925 C 0.65612 0.80261 0.2656 0.0
C1926 C 0.60103 0.78968 0.31995 0.0
C1927 C 0.59335 0.7718 0.32205 0.0
C1928 C 0.61609 0.79331 0.30883 0.0
C1929 C 0.62382 0.77917 0.29947 0.0
C1930 C 0.61618 0.76127 0.3016 0.0
C1931 C 0.60112 0.75763 0.31276 0.0
H1932 H 0.04048 0.0781 0.98377 0.0
H1933 H 0.06013 0.114 0.0316 0.0
H1934 H 0.03412 0.10422 0.96466 0.0
H1935 H 0.05404 0.14001 0.01243 0.0
H1936 H 0.01713 0.17892 0.98166 0.0
H1937 H 0.02609 0.15298 0.99959 0.0
H1938 H 0.04846 0.13115 0.94964 0.0
H1939 H 0.03959 0.1572 0.93167 0.0
C1940 C 0.04373 0.09155 0.99012 0.0
C1941 C 0.05068 0.09393 0.00927 0.0
C1942 C 0.04012 0.10652 0.97915 0.0
C1943 C 0.04336 0.12419 0.9871 0.0
C1944 C 0.05103 0.12657 0.006 0.0
C1945 C 0.05465 0.11164 0.01694 0.0
C1946 C 0.02413 0.1687 0.97453 0.0
C1947 C 0.02765 0.17018 0.95522 0.0
C1948 C 0.02929 0.15383 0.98482 0.0
C1949 C 0.03808 0.14004 0.97607 0.0
C1950 C 0.04153 0.14145 0.95674 0.0
C1951 C 0.03641 0.15636 0.94644 0.0
H1952 H 0.35543 0.31785 0.29657 0.0
H1953 H 0.32058 0.27795 0.26142 0.0
H1954 H 0.38145 0.31337 0.27738 0.0
H1955 H 0.34673 0.27309 0.24256 0.0
H1956 H 0.39233 0.28105 0.20142 0.0
H1957 H 0.3662 0.28719 0.21979 0.0
H1958 H 0.40266 0.29122 0.27139 0.0
H1959 H 0.42893 0.28601 0.25291 0.0
C1960 C 0.35334 0.30808 0.28478 0.0
C1961 C 0.33593 0.29825 0.28054 0.0
C1962 C 0.36829 0.30542 0.27384 0.0
C1963 C 0.36623 0.29282 0.25844 0.0
C1964 C 0.34877 0.28309 0.25414 0.0
C1965 C 0.33379 0.28579 0.26504 0.0
C1966 C 0.39483 0.28349 0.21665 0.0
C1967 C 0.41276 0.28302 0.22566 0.0
C1968 C 0.37979 0.28679 0.22723 0.0
C1969 C 0.38229 0.28965 0.2471 0.0
C1970 C 0.40024 0.28928 0.25609 0.0
C1971 C 0.41528 0.28604 0.24551 0.0
H1972 H 0.57834 0.37622 0.02491 0.0
H1973 H 0.53679 0.41196 0.03815 0.0
H1974 H 0.5675 0.35557 0.04906 0.0
H1975 H 0.5258 0.39113 0.06218 0.0
H1976 H 0.52437 0.35694 0.1165 0.0
H1977 H 0.53551 0.37874 0.0934 0.0
H1978 H 0.5395 0.33494 0.05291 0.0
H1979 H 0.52823 0.31322 0.07582 0.0
C1980 C 0.56693 0.37971 0.03301 0.0
C1981 C 0.55838 0.39571 0.02955 0.0
C1982 C 0.56065 0.36781 0.04677 0.0
C1983 C 0.5457 0.37165 0.05742 0.0
C1984 C 0.53743 0.38786 0.05429 0.0
C1985 C 0.54368 0.39974 0.04046 0.0
C1986 C 0.52743 0.35199 0.10259 0.0
C1987 C 0.52552 0.33332 0.09806 0.0
C1988 C 0.53385 0.36448 0.08938 0.0
C1989 C 0.53854 0.35854 0.0714 0.0
C1990 C 0.53637 0.33991 0.06679 0.0
C1991 C 0.52991 0.32746 0.07993 0.0
H1992 H 0.66586 0.25463 0.30187 0.0
H1993 H 0.68634 0.25992 0.24588 0.0
H1994 H 0.63392 0.25343 0.28772 0.0
H1995 H 0.65455 0.25906 0.23185 0.0
H1996 H 0.59601 0.23776 0.21062 0.0
H1997 H 0.62718 0.23765 0.22611 0.0
H1998 H 0.61236 0.27264 0.27135 0.0
H1999 H 0.58088 0.27217 0.25619 0.0
C2000 C 0.66356 0.25562 0.28657 0.0
C2001 C 0.67865 0.25732 0.275 0.0
C2002 C 0.64526 0.25501 0.27848 0.0
C2003 C 0.64169 0.25605 0.25865 0.0
C2004 C 0.6568 0.2579 0.24714 0.0
C2005 C 0.67505 0.25852 0.25521 0.0
C2006 C 0.59928 0.24517 0.22404 0.0
C2007 C 0.58594 0.25495 0.23218 0.0
C2008 C 0.61723 0.24531 0.2328 0.0
C2009 C 0.62231 0.25525 0.24989 0.0
C2010 C 0.60887 0.26475 0.25825 0.0
C2011 C 0.59089 0.26463 0.24947 0.0
H2012 H 0.46667 0.12509 0.01741 0.0
H2013 H 0.48455 0.08753 0.05949 0.0
H2014 H 0.4652 0.14793 0.04246 0.0
H2015 H 0.4827 0.1103 0.08463 0.0
H2016 H 0.50228 0.16374 0.11846 0.0
H2017 H 0.50013 0.13867 0.09527 0.0
H2018 H 0.44885 0.15612 0.06981 0.0
H2019 H 0.45106 0.18128 0.09301 0.0
C2020 C 0.47005 0.12162 0.03203 0.0
C2021 C 0.47586 0.10452 0.03642 0.0
C2022 C 0.4691 0.13469 0.04642 0.0
C2023 C 0.47391 0.13098 0.06556 0.0
C2024 C 0.47917 0.11369 0.07001 0.0
C2025 C 0.48013 0.1006 0.0556 0.0
C2026 C 0.49036 0.16205 0.10814 0.0
C2027 C 0.47688 0.17456 0.10754 0.0
C2028 C 0.48912 0.14766 0.09483 0.0
C2029 C 0.47435 0.14542 0.08062 0.0
C2030 C 0.46057 0.15763 0.08037 0.0
C2031 C 0.46183 0.17204 0.09367 0.0
H2032 H 0.26733 0.34899 0.70958 0.0
H2033 H 0.2554 0.35714 0.76828 0.0
H2034 H 0.28806 0.377 0.71167 0.0
H2035 H 0.2763 0.38476 0.77045 0.0
H2036 H 0.29874 0.44285 0.76247 0.0
H2037 H 0.2778 0.41518 0.75877 0.0
H2038 H 0.31783 0.39003 0.72682 0.0
H2039 H 0.33847 0.41801 0.72981 0.0
C2040 C 0.26921 0.35667 0.72294 0.0
C2041 C 0.25964 0.35084 0.73873 0.0
C2042 C 0.28114 0.37268 0.72417 0.0
C2043 C 0.28375 0.38319 0.7412 0.0
C2044 C 0.27435 0.3772 0.75701 0.0
C2045 C 0.26244 0.36126 0.75579 0.0
C2046 C 0.30298 0.43151 0.75443 0.0
C2047 C 0.3203 0.43265 0.74647 0.0
C2048 C 0.29107 0.41556 0.75251 0.0
C2049 C 0.29619 0.40034 0.7426 0.0
C2050 C 0.3134 0.40154 0.73441 0.0
C2051 C 0.32533 0.41751 0.73634 0.0
H2052 H 0.33436 0.70207 0.79223 0.0
H2053 H 0.27927 0.67574 0.79773 0.0
H2054 H 0.3459 0.67266 0.78675 0.0
H2055 H 0.29084 0.64633 0.7921 0.0
H2056 H 0.32359 0.596 0.79978 0.0
H2057 H 0.31223 0.62525 0.80697 0.0
H2058 H 0.34173 0.64893 0.76101 0.0
H2059 H 0.35337 0.61981 0.75407 0.0
C2060 C 0.32473 0.69001 0.79238 0.0
C2061 C 0.30588 0.69126 0.79536 0.0
C2062 C 0.33133 0.67317 0.78911 0.0
C2063 C 0.31926 0.65719 0.78887 0.0
C2064 C 0.30051 0.65839 0.79233 0.0
C2065 C 0.29387 0.67525 0.79548 0.0
C2066 C 0.32769 0.60748 0.79128 0.0
C2067 C 0.33934 0.60561 0.77634 0.0
C2068 C 0.32108 0.62418 0.7953 0.0
C2069 C 0.32613 0.6394 0.78459 0.0
C2070 C 0.33776 0.6375 0.76965 0.0
C2071 C 0.34425 0.62078 0.76553 0.0
H2072 H 0.90809 0.52013 0.49558 0.0
H2073 H 0.93807 0.47681 0.51871 0.0
H2074 H 0.8788 0.50148 0.49742 0.0
H2075 H 0.90882 0.45794 0.52002 0.0
H2076 H 0.85196 0.43518 0.53711 0.0
H2077 H 0.88088 0.45474 0.5366 0.0
H2078 H 0.86143 0.47537 0.48255 0.0
H2079 H 0.8322 0.45657 0.48355 0.0
C2080 C 0.90844 0.50658 0.50095 0.0
C2081 C 0.92542 0.49995 0.50698 0.0
C2082 C 0.89164 0.49584 0.50192 0.0
C2083 C 0.89142 0.47817 0.50883 0.0
C2084 C 0.90843 0.47157 0.51488 0.0
C2085 C 0.92523 0.48235 0.514 0.0
C2086 C 0.85374 0.44408 0.52525 0.0
C2087 C 0.83973 0.44427 0.51037 0.0
C2088 C 0.87044 0.45513 0.52484 0.0
C2089 C 0.87354 0.46661 0.5095 0.0
C2090 C 0.85946 0.46687 0.49469 0.0
C2091 C 0.84277 0.45588 0.49514 0.0
H2092 H 0.73686 0.84529 0.78703 0.0
H2093 H 0.70367 0.83499 0.83498 0.0
H2094 H 0.72011 0.87174 0.77954 0.0
H2095 H 0.68726 0.86145 0.82771 0.0
H2096 H 0.64831 0.89826 0.79872 0.0
H2097 H 0.66494 0.87149 0.80379 0.0
H2098 H 0.7164 0.9022 0.79231 0.0
H2099 H 0.6996 0.92889 0.78651 0.0
C2100 C 0.72604 0.84868 0.79599 0.0
C2101 C 0.72157 0.838 0.81157 0.0
C2102 C 0.71651 0.86388 0.79175 0.0
C2103 C 0.70228 0.86866 0.80297 0.0
C2104 C 0.69791 0.85799 0.81858 0.0
C2105 C 0.70743 0.84286 0.82282 0.0
C2106 C 0.66311 0.89926 0.79697 0.0
C2107 C 0.67261 0.91575 0.79223 0.0
C2108 C 0.67269 0.88396 0.80011 0.0
C2109 C 0.69202 0.88474 0.7986 0.0
C2110 C 0.70149 0.90111 0.79347 0.0
C2111 C 0.6919 0.91646 0.79035 0.0
H2112 H 0.63122 0.46989 0.99162 0.0
H2113 H 0.58738 0.50575 0.9888 0.0
H2114 H 0.65433 0.49581 0.99663 0.0
H2115 H 0.61054 0.53179 0.99389 0.0
H2116 H 0.65964 0.5743 0.98393 0.0
H2117 H 0.63561 0.54895 0.97872 0.0
H2118 H 0.66514 0.51852 0.02074 0.0
H2119 H 0.68912 0.54371 0.02579 0.0
C2120 C 0.62651 0.48333 0.99208 0.0
C2121 C 0.60747 0.48576 0.98953 0.0
C2122 C 0.63976 0.4982 0.99503 0.0
C2123 C 0.6343 0.5159 0.99568 0.0
C2124 C 0.61523 0.51836 0.99314 0.0
C2125 C 0.60195 0.50343 0.99013 0.0
C2126 C 0.66089 0.56224 0.99214 0.0
C2127 C 0.67636 0.56095 0.00515 0.0
C2128 C 0.64712 0.54772 0.98918 0.0
C2129 C 0.64852 0.53164 0.99921 0.0
C2130 C 0.66383 0.53054 0.01247 0.0
C2131 C 0.67758 0.54499 0.01538 0.0
H2132 H 0.2412 0.65487 0.21213 0.0
H2133 H 0.23273 0.6784 0.26717 0.0
H2134 H 0.2194 0.62891 0.21823 0.0
H2135 H 0.21116 0.65236 0.27333 0.0
H2136 H 0.16131 0.60979 0.27139 0.0
H2137 H 0.18052 0.63683 0.26303 0.0
H2138 H 0.21945 0.60312 0.23964 0.0
H2139 H 0.19997 0.57612 0.24749 0.0
C2140 C 0.23459 0.65458 0.22546 0.0
C2141 C 0.23878 0.66867 0.23921 0.0
C2142 C 0.2222 0.63965 0.229 0.0
C2143 C 0.21366 0.63852 0.24632 0.0
C2144 C 0.21739 0.65289 0.25979 0.0
C2145 C 0.22982 0.66778 0.25628 0.0
C2146 C 0.17386 0.60816 0.26428 0.0
C2147 C 0.17914 0.59081 0.26014 0.0
C2148 C 0.18495 0.62365 0.25964 0.0
C2149 C 0.2015 0.62212 0.25066 0.0
C2150 C 0.20667 0.60476 0.24635 0.0
C2151 C 0.19563 0.58929 0.25107 0.0
H2152 H 0.8775 0.49262 0.08171 0.0
H2153 H 0.91024 0.51344 0.03668 0.0
H2154 H 0.85663 0.51627 0.07646 0.0
H2155 H 0.88897 0.53674 0.03093 0.0
H2156 H 0.85717 0.58656 0.03699 0.0
H2157 H 0.87897 0.56394 0.04378 0.0
H2158 H 0.83308 0.5248 0.05429 0.0
H2159 H 0.8115 0.54765 0.04868 0.0
C2160 C 0.88017 0.50218 0.07059 0.0
C2161 C 0.89551 0.50112 0.05959 0.0
C2162 C 0.86813 0.51571 0.06749 0.0
C2163 C 0.87102 0.52841 0.05319 0.0
C2164 C 0.88644 0.52737 0.04224 0.0
C2165 C 0.89858 0.51392 0.04545 0.0
C2166 C 0.85176 0.57321 0.04101 0.0
C2167 C 0.83253 0.56896 0.04222 0.0
C2168 C 0.86425 0.56014 0.04466 0.0
C2169 C 0.85782 0.54248 0.04954 0.0
C2170 C 0.83861 0.53829 0.05081 0.0
C2171 C 0.82616 0.55136 0.0473 0.0
H2172 H 0.07802 0.98248 0.01049 0.0
H2173 H 0.11444 0.02094 0.04585 0.0
H2174 H 0.10317 0.96296 0.0086 0.0
H2175 H 0.1398 0.00174 0.04344 0.0
H2176 H 0.17469 0.95406 0.05298 0.0
H2177 H 0.14965 0.97379 0.0544 0.0
H2178 H 0.13221 0.96012 0.99543 0.0
H2179 H 0.15705 0.94009 0.99422 0.0
C2180 C 0.09146 0.98687 0.0177 0.0
C2181 C 0.0942 0.00325 0.02837 0.0
C2182 C 0.10594 0.97571 0.01654 0.0
C2183 C 0.12356 0.98071 0.0259 0.0
C2184 C 0.12635 0.99726 0.03632 0.0
C2185 C 0.11183 0.00836 0.0376 0.0
C2186 C 0.16556 0.95536 0.0403 0.0
C2187 C 0.16784 0.94551 0.0235 0.0
C2188 C 0.15122 0.96672 0.04108 0.0
C2189 C 0.13888 0.96863 0.02502 0.0
C2190 C 0.14123 0.95879 0.00818 0.0
C2191 C 0.1555 0.94732 0.00745 0.0
loop_
_geom_bond_atom_site_label_1
_geom_bond_atom_site_label_2
_geom_bond_distance
_geom_bond_site_symmetry_2
_ccdc_geom_bond_type
O0 Cd1 2.300 . S
O0 C7 1.275 . S
Cd1 O0 2.300 . S
Cd1 O9 2.381 . S
Cd1 O10 2.378 . S
O2 Cd3 2.385 . S
O2 C7 1.255 . S
Cd3 O2 2.385 . S
Cd3 O4 2.317 . S
O4 Cd3 2.317 . S
O4 C5 1.232 . S
C5 O4 1.232 . S
C5 O6 1.227 . S
O6 C5 1.227 . S
C7 O0 1.275 . S
C7 O2 1.255 . S
C8 O9 1.258 . S
C8 O10 1.256 . S
O9 Cd1 2.381 . S
O9 C8 1.258 . S
O10 Cd1 2.378 . S
O10 C8 1.256 . S
O11 Cd12 2.300 . S
O11 C18 1.275 . S
Cd12 O11 2.300 . S
Cd12 O20 2.381 . S
Cd12 O21 2.378 . S
O13 Cd14 2.385 . S
O13 C18 1.255 . S
Cd14 O13 2.385 . S
Cd14 O15 2.317 . S
O15 Cd14 2.317 . S
O15 C16 1.232 . S
C16 O15 1.232 . S
C16 O17 1.218 . S
O17 C16 1.218 . S
C18 O11 1.275 . S
C18 O13 1.255 . S
C19 O20 1.258 . S
C19 O21 1.256 . S
O20 Cd12 2.381 . S
O20 C19 1.258 . S
O21 Cd12 2.378 . S
O21 C19 1.256 . S
O22 Cd23 2.300 . S
O22 C29 1.275 . S
Cd23 O22 2.300 . S
Cd23 O31 2.381 . S
Cd23 O32 2.378 . S
O24 Cd25 2.385 1_655 S
O24 C29 1.255 . S
Cd25 O24 2.385 1_455 S
Cd25 O26 2.317 1_455 S
O26 Cd25 2.317 1_655 S
O26 C27 1.232 . S
C27 O26 1.232 . S
C27 O28 1.163 1_655 S
O28 C27 1.163 1_455 S
C29 O22 1.275 . S
C29 O24 1.255 . S
C30 O31 1.258 . S
C30 O32 1.256 . S
O31 Cd23 2.381 . S
O31 C30 1.258 . S
O32 Cd23 2.378 . S
O32 C30 1.256 . S
O33 Cd34 2.300 . S
O33 C40 1.275 . S
Cd34 O33 2.300 . S
Cd34 O42 2.381 . S
Cd34 O43 2.378 . S
O35 Cd36 2.385 . S
O35 C40 1.255 . S
Cd36 O35 2.385 . S
Cd36 O37 2.317 . S
O37 Cd36 2.317 . S
O37 C38 1.232 . S
C38 O37 1.232 . S
C38 O39 1.218 . S
O39 C38 1.218 . S
C40 O33 1.275 . S
C40 O35 1.255 . S
C41 O42 1.258 . S
C41 O43 1.256 . S
O42 Cd34 2.381 . S
O42 C41 1.258 . S
O43 Cd34 2.378 . S
O43 C41 1.256 . S
O44 Cd45 2.300 . S
O44 C51 1.275 . S
Cd45 O44 2.300 . S
Cd45 O53 2.381 . S
Cd45 O54 2.378 . S
O46 Cd47 2.385 . S
O46 C51 1.255 1_545 S
Cd47 O46 2.385 . S
Cd47 O48 2.317 1_545 S
O48 Cd47 2.317 1_565 S
O48 C49 1.232 . S
C49 O48 1.232 . S
C49 O50 1.218 1_565 S
O50 C49 1.218 1_545 S
C51 O44 1.275 . S
C51 O46 1.255 1_565 S
C52 O53 1.258 . S
C52 O54 1.256 . S
O53 Cd45 2.381 . S
O53 C52 1.258 . S
O54 Cd45 2.378 . S
O54 C52 1.256 . S
O55 Cd56 2.300 . S
O55 C62 1.275 . S
Cd56 O55 2.300 . S
Cd56 O64 2.381 . S
Cd56 O65 2.378 . S
O57 Cd58 2.385 . S
O57 C62 1.255 . S
Cd58 O57 2.385 . S
Cd58 O59 2.317 . S
O59 Cd58 2.317 . S
O59 C60 1.232 . S
C60 O59 1.232 . S
C60 O61 1.218 . S
O61 C60 1.218 . S
C62 O55 1.275 . S
C62 O57 1.255 . S
C63 O64 1.258 . S
C63 O65 1.256 . S
O64 Cd56 2.381 . S
O64 C63 1.258 . S
O65 Cd56 2.378 . S
O65 C63 1.256 . S
O66 Cd67 2.300 . S
O66 C73 1.275 . S
Cd67 O66 2.300 . S
Cd67 O75 2.381 . S
Cd67 O76 2.378 . S
O68 Cd69 2.385 . S
O68 C73 1.255 1_455 S
Cd69 O68 2.385 . S
Cd69 O70 2.317 1_455 S
O70 Cd69 2.317 1_655 S
O70 C71 1.232 1_655 S
C71 O70 1.232 1_455 S
C71 O72 1.218 . S
O72 C71 1.218 . S
C73 O66 1.275 . S
C73 O68 1.255 1_655 S
C74 O75 1.258 . S
C74 O76 1.256 . S
O75 Cd67 2.381 . S
O75 C74 1.258 . S
O76 Cd67 2.378 . S
O76 C74 1.256 . S
O77 Cd78 2.300 . S
O77 C84 1.275 . S
Cd78 O77 2.300 . S
Cd78 O86 2.381 . S
Cd78 O87 2.378 . S
O79 Cd80 2.385 . S
O79 C84 1.255 . S
Cd80 O79 2.385 . S
Cd80 O81 2.317 . S
O81 Cd80 2.317 . S
O81 C82 1.232 . S
C82 O81 1.232 . S
C82 O83 1.218 . S
O83 C82 1.218 . S
C84 O77 1.275 . S
C84 O79 1.255 . S
C85 O86 1.258 . S
C85 O87 1.256 . S
O86 Cd78 2.381 . S
O86 C85 1.258 . S
O87 Cd78 2.378 . S
O87 C85 1.256 . S
O88 Cd89 2.300 . S
O88 C95 1.275 . S
Cd89 O88 2.300 . S
Cd89 O97 2.381 . S
Cd89 O98 2.378 . S
O90 Cd91 2.385 . S
O90 C95 1.255 . S
Cd91 O90 2.385 . S
Cd91 O92 2.317 . S
O92 Cd91 2.317 . S
O92 C93 1.232 . S
C93 O92 1.232 . S
C93 O94 1.218 . S
O94 C93 1.218 . S
C95 O88 1.275 . S
C95 O90 1.255 . S
C96 O97 1.258 . S
C96 O98 1.256 . S
O97 Cd89 2.381 . S
O97 C96 1.258 . S
O98 Cd89 2.378 . S
O98 C96 1.256 . S
O99 Cd100 2.300 . S
O99 C106 1.275 . S
Cd100 O99 2.300 . S
Cd100 O108 2.381 1_565 S
Cd100 O109 2.378 1_565 S
O101 Cd102 2.385 . S
O101 C106 1.255 . S
Cd102 O101 2.385 . S
Cd102 O103 2.317 . S
O103 Cd102 2.317 . S
O103 C104 1.232 . S
C104 O103 1.232 . S
C104 O105 1.218 . S
O105 C104 1.218 . S
C106 O99 1.275 . S
C106 O101 1.255 . S
C107 O108 1.258 . S
C107 O109 1.256 . S
O108 Cd100 2.381 1_545 S
O108 C107 1.258 . S
O109 Cd100 2.378 1_545 S
O109 C107 1.256 . S
O110 Cd111 2.300 . S
O110 C117 1.275 . S
Cd111 O110 2.300 . S
Cd111 O119 2.381 . S
Cd111 O120 2.378 . S
O112 Cd113 2.385 . S
O112 C117 1.255 . S
Cd113 O112 2.385 . S
Cd113 O114 2.317 . S
O114 Cd113 2.317 . S
O114 C115 1.232 . S
C115 O114 1.232 . S
C115 O116 1.218 . S
O116 C115 1.218 . S
C117 O110 1.275 . S
C117 O112 1.255 . S
C118 O119 1.258 . S
C118 O120 1.256 . S
O119 Cd111 2.381 . S
O119 C118 1.258 . S
O120 Cd111 2.378 . S
O120 C118 1.256 . S
O121 Cd122 2.300 . S
O121 C128 1.275 . S
Cd122 O121 2.300 . S
Cd122 O130 2.381 . S
Cd122 O131 2.378 . S
O123 Cd124 2.385 . S
O123 C128 1.255 . S
Cd124 O123 2.385 . S
Cd124 O125 2.317 . S
O125 Cd124 2.317 . S
O125 C126 1.232 . S
C126 O125 1.232 . S
C126 O127 1.218 . S
O127 C126 1.218 . S
C128 O121 1.275 . S
C128 O123 1.255 . S
C129 O130 1.258 . S
C129 O131 1.256 . S
O130 Cd122 2.381 . S
O130 C129 1.258 . S
O131 Cd122 2.378 . S
O131 C129 1.256 . S
O132 Cd133 2.300 . S
O132 C139 1.275 . S
Cd133 O132 2.300 . S
Cd133 O141 2.381 . S
Cd133 O142 2.378 . S
O134 Cd135 2.385 . S
O134 C139 1.255 . S
Cd135 O134 2.385 . S
Cd135 O136 2.317 . S
O136 Cd135 2.317 . S
O136 C137 1.232 . S
C137 O136 1.232 . S
C137 O138 1.218 . S
O138 C137 1.218 . S
C139 O132 1.275 . S
C139 O134 1.255 . S
C140 O141 1.258 . S
C140 O142 1.256 . S
O141 Cd133 2.381 . S
O141 C140 1.258 . S
O142 Cd133 2.378 . S
O142 C140 1.256 . S
O143 Cd144 2.300 1_556 S
O143 C150 1.275 . S
Cd144 O143 2.300 1_554 S
Cd144 O152 2.381 . S
Cd144 O153 2.378 . S
O145 Cd146 2.385 . S
O145 C150 1.255 . S
Cd146 O145 2.385 . S
Cd146 O147 2.317 . S
O147 Cd146 2.317 . S
O147 C148 1.232 . S
C148 O147 1.232 . S
C148 O149 1.218 . S
O149 C148 1.218 . S
C150 O143 1.275 . S
C150 O145 1.255 . S
C151 O152 1.258 . S
C151 O153 1.256 . S
O152 Cd144 2.381 . S
O152 C151 1.258 . S
O153 Cd144 2.378 . S
O153 C151 1.256 . S
O154 Cd155 2.300 . S
O154 C161 1.275 . S
Cd155 O154 2.300 . S
Cd155 O163 2.381 . S
Cd155 O164 2.378 . S
O156 Cd157 2.385 . S
O156 C161 1.255 . S
Cd157 O156 2.385 . S
Cd157 O158 2.317 . S
O158 Cd157 2.317 . S
O158 C159 1.232 . S
C159 O158 1.232 . S
C159 O160 1.218 . S
O160 C159 1.218 . S
C161 O154 1.275 . S
C161 O156 1.255 . S
C162 O163 1.258 . S
C162 O164 1.256 . S
O163 Cd155 2.381 . S
O163 C162 1.258 . S
O164 Cd155 2.378 . S
O164 C162 1.256 . S
O165 Cd166 2.300 1_556 S
O165 C172 1.275 . S
Cd166 O165 2.300 1_554 S
Cd166 O174 2.381 1_554 S
Cd166 O175 2.378 1_545 S
O167 Cd168 2.385 1_556 S
O167 C172 1.255 . S
Cd168 O167 2.385 1_554 S
Cd168 O169 2.317 . S
O169 Cd168 2.317 . S
O169 C170 1.232 . S
C170 O169 1.232 . S
C170 O171 1.218 . S
O171 C170 1.218 . S
C172 O165 1.275 . S
C172 O167 1.255 . S
C173 O174 1.258 1_564 S
C173 O175 1.256 . S
O174 Cd166 2.381 1_556 S
O174 C173 1.258 1_546 S
O175 Cd166 2.378 1_565 S
O175 C173 1.256 . S
Li176 N193 1.993 . S
Li176 O236 1.956 . S
Li176 O237 1.970 . S
Li176 O238 1.961 1_554 S
Li177 N201 1.990 . S
Li177 O236 1.970 . S
Li177 O237 1.956 . S
Li177 O239 1.961 . S
Li178 N223 1.990 . S
Li178 O236 1.961 1_556 S
Li178 O238 1.956 . S
Li178 O239 1.970 1_556 S
Li179 N229 1.990 . S
Li179 O237 1.961 . S
Li179 O238 1.970 1_554 S
Li179 O239 1.956 . S
C180 C182 1.389 . S
C180 C183 1.309 1_554 S
C180 O236 1.332 . S
N181 C184 1.314 1_556 S
N181 C185 1.279 . S
C182 C180 1.389 . S
C182 C184 1.353 . S
C182 H240 0.929 . S
C183 C180 1.309 1_556 S
C183 C185 1.358 . S
C183 H241 0.930 . S
C184 N181 1.314 1_554 S
C184 C182 1.353 . S
C184 H242 0.930 . S
C185 N181 1.279 . S
C185 C183 1.358 . S
C185 H243 0.930 . S
C186 C189 1.348 . S
C186 C190 1.356 . S
C186 O237 1.325 . S
C187 N188 1.279 . S
C187 C190 1.358 . S
C187 H244 0.930 . S
N188 C187 1.279 . S
N188 C191 1.314 . S
C189 C186 1.348 . S
C189 C191 1.353 . S
C189 H245 0.929 . S
C190 C186 1.356 . S
C190 C187 1.358 . S
C190 H246 0.930 . S
C191 N188 1.314 . S
C191 C189 1.353 . S
C191 H247 0.930 . S
C192 N193 1.311 1_556 S
C192 C197 1.353 . S
C192 H198 0.930 . S
N193 Li176 1.993 . S
N193 C192 1.311 1_554 S
N193 C195 1.281 . S
C194 C195 1.358 . S
C194 C196 1.363 . S
C194 H248 0.930 . S
C195 N193 1.281 . S
C195 C194 1.358 . S
C195 H199 0.930 . S
C196 C194 1.363 . S
C196 C197 1.342 1_554 S
C197 C192 1.353 . S
C197 C196 1.342 1_556 S
C197 H249 0.929 . S
H198 C192 0.930 . S
H199 C195 0.930 . S
C200 N201 1.314 . S
C200 C202 1.353 . S
C200 H206 0.930 . S
N201 Li177 1.990 . S
N201 C200 1.314 . S
N201 C204 1.279 . S
C202 C200 1.353 . S
C202 C205 1.348 . S
C202 H250 0.929 . S
C203 C204 1.358 . S
C203 C205 1.356 . S
C203 H251 0.930 . S
C204 N201 1.279 . S
C204 C203 1.358 . S
C204 H207 0.930 . S
C205 C202 1.348 . S
C205 C203 1.356 . S
H206 C200 0.930 . S
H207 C204 0.930 . S
C208 C210 1.348 . S
C208 C211 1.356 . S
C208 O238 1.325 . S
N209 C212 1.314 . S
N209 C213 1.279 . S
C210 C208 1.348 . S
C210 C212 1.353 . S
C210 H252 0.929 . S
C211 C208 1.356 . S
C211 C213 1.358 . S
C211 H253 0.930 . S
C212 N209 1.314 . S
C212 C210 1.353 . S
C212 H254 0.930 . S
C213 N209 1.279 . S
C213 C211 1.358 . S
C213 H255 0.930 . S
C214 C215 1.348 1_554 S
C214 C216 1.356 . S
C214 O239 1.325 . S
C215 C214 1.348 1_556 S
C215 C217 1.353 . S
C215 H256 0.929 . S
C216 C214 1.356 . S
C216 C218 1.358 . S
C216 H257 0.930 . S
C217 C215 1.353 . S
C217 N219 1.314 1_556 S
C217 H258 0.930 . S
C218 C216 1.358 . S
C218 N219 1.279 . S
C218 H259 0.930 . S
N219 C217 1.314 1_554 S
N219 C218 1.279 . S
C220 C222 1.353 . S
C220 N223 1.314 . S
C220 H226 0.930 . S
C221 N223 1.279 . S
C221 C224 1.358 . S
C221 H227 0.930 . S
C222 C220 1.353 . S
C222 C225 1.348 . S
C222 H260 0.929 . S
N223 Li178 1.990 . S
N223 C220 1.314 . S
N223 C221 1.279 . S
C224 C221 1.358 . S
C224 C225 1.356 . S
C224 H261 0.930 . S
C225 C222 1.348 . S
C225 C224 1.356 . S
H226 C220 0.930 . S
H227 C221 0.930 . S
C228 N229 1.314 . S
C228 C230 1.353 . S
C228 H234 0.930 . S
N229 Li179 1.990 . S
N229 C228 1.314 . S
N229 C232 1.279 . S
C230 C228 1.353 . S
C230 C233 1.348 . S
C230 H262 0.929 . S
C231 C232 1.358 . S
C231 C233 1.356 . S
C231 H263 0.930 . S
C232 N229 1.279 . S
C232 C231 1.358 . S
C232 H235 0.930 . S
C233 C230 1.348 . S
C233 C231 1.356 . S
H234 C228 0.930 . S
H235 C232 0.930 . S
O236 Li176 1.956 . S
O236 Li177 1.970 . S
O236 Li178 1.961 1_554 S
O236 C180 1.332 . S
O237 Li176 1.970 . S
O237 Li177 1.956 . S
O237 Li179 1.961 . S
O237 C186 1.325 . S
O238 Li176 1.961 1_556 S
O238 Li178 1.956 . S
O238 Li179 1.970 1_556 S
O238 C208 1.325 . S
O239 Li177 1.961 . S
O239 Li178 1.970 1_554 S
O239 Li179 1.956 . S
O239 C214 1.325 . S
H240 C182 0.929 . S
H241 C183 0.930 . S
H242 C184 0.930 . S
H243 C185 0.930 . S
H244 C187 0.930 . S
H245 C189 0.929 . S
H246 C190 0.930 . S
H247 C191 0.930 . S
H248 C194 0.930 . S
H249 C197 0.929 . S
H250 C202 0.929 . S
H251 C203 0.930 . S
H252 C210 0.929 . S
H253 C211 0.930 . S
H254 C212 0.930 . S
H255 C213 0.930 . S
H256 C215 0.929 . S
H257 C216 0.930 . S
H258 C217 0.930 . S
H259 C218 0.930 . S
H260 C222 0.929 . S
H261 C224 0.930 . S
H262 C230 0.929 . S
H263 C231 0.930 . S
Li264 N281 1.990 . S
Li264 O324 1.956 . S
Li264 O325 1.970 . S
Li264 O326 1.961 . S
Li265 N289 1.990 . S
Li265 O324 1.970 . S
Li265 O325 1.956 . S
Li265 O327 1.961 . S
Li266 N311 1.990 . S
Li266 O324 1.961 . S
Li266 O326 1.956 . S
Li266 O327 1.970 . S
Li267 N317 1.990 . S
Li267 O325 1.961 . S
Li267 O326 1.970 . S
Li267 O327 1.956 . S
C268 C270 1.348 . S
C268 C271 1.356 . S
C268 O324 1.325 . S
N269 C272 1.314 . S
N269 C273 1.279 . S
C270 C268 1.348 . S
C270 C272 1.353 . S
C270 H328 0.929 . S
C271 C268 1.356 . S
C271 C273 1.358 . S
C271 H329 0.930 . S
C272 N269 1.314 . S
C272 C270 1.353 . S
C272 H330 0.930 . S
C273 N269 1.279 . S
C273 C271 1.358 . S
C273 H331 0.930 . S
C274 C277 1.348 . S
C274 C278 1.356 . S
C274 O325 1.325 . S
C275 N276 1.279 . S
C275 C278 1.358 . S
C275 H332 0.930 . S
N276 C275 1.279 . S
N276 C279 1.314 . S
C277 C274 1.348 . S
C277 C279 1.353 . S
C277 H333 0.929 . S
C278 C274 1.356 . S
C278 C275 1.358 . S
C278 H334 0.930 . S
C279 N276 1.314 . S
C279 C277 1.353 . S
C279 H335 0.930 . S
C280 N281 1.314 . S
C280 C285 1.353 . S
C280 H286 0.930 . S
N281 Li264 1.990 . S
N281 C280 1.314 . S
N281 C283 1.279 . S
C282 C283 1.358 . S
C282 C284 1.356 . S
C282 H336 0.930 . S
C283 N281 1.279 . S
C283 C282 1.358 . S
C283 H287 0.930 . S
C284 C282 1.356 . S
C284 C285 1.348 . S
C285 C280 1.353 . S
C285 C284 1.348 . S
C285 H337 0.929 . S
H286 C280 0.930 . S
H287 C283 0.930 . S
C288 N289 1.314 . S
C288 C290 1.353 . S
C288 H294 0.930 . S
N289 Li265 1.990 . S
N289 C288 1.314 . S
N289 C292 1.279 . S
C290 C288 1.353 . S
C290 C293 1.348 . S
C290 H338 0.929 . S
C291 C292 1.358 . S
C291 C293 1.356 . S
C291 H339 0.930 . S
C292 N289 1.279 . S
C292 C291 1.358 . S
C292 H295 0.930 . S
C293 C290 1.348 . S
C293 C291 1.356 . S
H294 C288 0.930 . S
H295 C292 0.930 . S
C296 C298 1.348 . S
C296 C299 1.356 . S
C296 O326 1.325 . S
N297 C300 1.314 . S
N297 C301 1.279 . S
C298 C296 1.348 . S
C298 C300 1.353 . S
C298 H340 0.929 . S
C299 C296 1.356 . S
C299 C301 1.358 . S
C299 H341 0.930 . S
C300 N297 1.314 . S
C300 C298 1.353 . S
C300 H342 0.930 . S
C301 N297 1.279 . S
C301 C299 1.358 . S
C301 H343 0.930 . S
C302 C303 1.348 . S
C302 C304 1.356 . S
C302 O327 1.325 . S
C303 C302 1.348 . S
C303 C305 1.353 . S
C303 H344 0.929 . S
C304 C302 1.356 . S
C304 C306 1.358 . S
C304 H345 0.930 . S
C305 C303 1.353 . S
C305 N307 1.314 . S
C305 H346 0.930 . S
C306 C304 1.358 . S
C306 N307 1.279 . S
C306 H347 0.930 . S
N307 C305 1.314 . S
N307 C306 1.279 . S
C308 C310 1.353 . S
C308 N311 1.314 . S
C308 H314 0.930 . S
C309 N311 1.279 . S
C309 C312 1.358 . S
C309 H315 0.930 . S
C310 C308 1.353 . S
C310 C313 1.348 . S
C310 H348 0.929 . S
N311 Li266 1.990 . S
N311 C308 1.314 . S
N311 C309 1.279 . S
C312 C309 1.358 . S
C312 C313 1.356 . S
C312 H349 0.930 . S
C313 C310 1.348 . S
C313 C312 1.356 . S
H314 C308 0.930 . S
H315 C309 0.930 . S
C316 N317 1.314 . S
C316 C318 1.353 . S
C316 H322 0.930 . S
N317 Li267 1.990 . S
N317 C316 1.314 . S
N317 C320 1.279 . S
C318 C316 1.353 . S
C318 C321 1.348 . S
C318 H350 0.929 . S
C319 C320 1.358 . S
C319 C321 1.356 . S
C319 H351 0.930 . S
C320 N317 1.279 . S
C320 C319 1.358 . S
C320 H323 0.930 . S
C321 C318 1.348 . S
C321 C319 1.356 . S
H322 C316 0.930 . S
H323 C320 0.930 . S
O324 Li264 1.956 . S
O324 Li265 1.970 . S
O324 Li266 1.961 . S
O324 C268 1.325 . S
O325 Li264 1.970 . S
O325 Li265 1.956 . S
O325 Li267 1.961 . S
O325 C274 1.325 . S
O326 Li264 1.961 . S
O326 Li266 1.956 . S
O326 Li267 1.970 . S
O326 C296 1.325 . S
O327 Li265 1.961 . S
O327 Li266 1.970 . S
O327 Li267 1.956 . S
O327 C302 1.325 . S
H328 C270 0.929 . S
H329 C271 0.930 . S
H330 C272 0.930 . S
H331 C273 0.930 . S
H332 C275 0.930 . S
H333 C277 0.929 . S
H334 C278 0.930 . S
H335 C279 0.930 . S
H336 C282 0.930 . S
H337 C285 0.929 . S
H338 C290 0.929 . S
H339 C291 0.930 . S
H340 C298 0.929 . S
H341 C299 0.930 . S
H342 C300 0.930 . S
H343 C301 0.930 . S
H344 C303 0.929 . S
H345 C304 0.930 . S
H346 C305 0.930 . S
H347 C306 0.930 . S
H348 C310 0.929 . S
H349 C312 0.930 . S
H350 C318 0.929 . S
H351 C319 0.930 . S
Li352 N369 1.990 . S
Li352 O412 1.956 . S
Li352 O413 1.970 1_556 S
Li352 O414 1.961 . S
Li353 N377 1.990 . S
Li353 O412 1.924 1_554 S
Li353 O413 1.956 . S
Li353 O415 1.961 . S
Li354 N399 1.990 . S
Li354 O412 1.996 . S
Li354 O414 1.956 . S
Li354 O415 1.970 1_556 S
Li355 N405 1.990 . S
Li355 O413 1.961 . S
Li355 O414 1.970 1_554 S
Li355 O415 1.956 . S
C356 C358 1.348 1_556 S
C356 C359 1.356 . S
C356 O412 1.336 . S
N357 C360 1.314 1_556 S
N357 C361 1.279 . S
C358 C356 1.348 1_554 S
C358 C360 1.353 . S
C358 H416 0.929 . S
C359 C356 1.356 . S
C359 C361 1.358 . S
C359 H417 0.930 . S
C360 N357 1.314 1_554 S
C360 C358 1.353 . S
C360 H418 0.930 . S
C361 N357 1.279 . S
C361 C359 1.358 . S
C361 H419 0.930 . S
C362 C365 1.348 . S
C362 C366 1.356 . S
C362 O413 1.325 . S
C363 N364 1.279 . S
C363 C366 1.358 . S
C363 H420 0.930 . S
N364 C363 1.279 . S
N364 C367 1.314 . S
C365 C362 1.348 . S
C365 C367 1.353 . S
C365 H421 0.929 . S
C366 C362 1.356 . S
C366 C363 1.358 . S
C366 H422 0.930 . S
C367 N364 1.314 . S
C367 C365 1.353 . S
C367 H423 0.930 . S
C368 N369 1.314 . S
C368 C373 1.353 . S
C368 H374 0.930 . S
N369 Li352 1.990 . S
N369 C368 1.314 . S
N369 C371 1.279 . S
C370 C371 1.358 . S
C370 C372 1.356 . S
C370 H424 0.930 . S
C371 N369 1.279 . S
C371 C370 1.358 . S
C371 H375 0.930 . S
C372 C370 1.356 . S
C372 C373 1.348 . S
C373 C368 1.353 . S
C373 C372 1.348 . S
C373 H425 0.929 . S
H374 C368 0.930 . S
H375 C371 0.930 . S
C376 N377 1.314 . S
C376 C378 1.353 . S
C376 H382 0.930 . S
N377 Li353 1.990 . S
N377 C376 1.314 . S
N377 C380 1.279 . S
C378 C376 1.353 . S
C378 C381 1.348 . S
C378 H426 0.929 . S
C379 C380 1.358 . S
C379 C381 1.356 . S
C379 H427 0.930 . S
C380 N377 1.279 . S
C380 C379 1.358 . S
C380 H383 0.930 . S
C381 C378 1.348 . S
C381 C379 1.356 . S
H382 C376 0.930 . S
H383 C380 0.930 . S
C384 C386 1.348 . S
C384 C387 1.356 . S
C384 O414 1.325 . S
N385 C388 1.314 . S
N385 C389 1.279 . S
C386 C384 1.348 . S
C386 C388 1.353 . S
C386 H428 0.929 . S
C387 C384 1.356 . S
C387 C389 1.358 . S
C387 H429 0.930 . S
C388 N385 1.314 . S
C388 C386 1.353 . S
C388 H430 0.930 . S
C389 N385 1.279 . S
C389 C387 1.358 . S
C389 H431 0.930 . S
C390 C391 1.348 1_554 S
C390 C392 1.356 . S
C390 O415 1.325 . S
C391 C390 1.348 1_556 S
C391 C393 1.353 1_556 S
C391 H432 0.929 . S
C392 C390 1.356 . S
C392 C394 1.358 . S
C392 H433 0.930 . S
C393 C391 1.353 1_554 S
C393 N395 1.314 . S
C393 H434 0.930 1_554 S
C394 C392 1.358 . S
C394 N395 1.279 . S
C394 H435 0.930 . S
N395 C393 1.314 . S
N395 C394 1.279 . S
C396 C398 1.353 . S
C396 N399 1.314 . S
C396 H402 0.930 . S
C397 N399 1.279 . S
C397 C400 1.358 . S
C397 H403 0.930 . S
C398 C396 1.353 . S
C398 C401 1.348 . S
C398 H436 0.929 . S
N399 Li354 1.990 . S
N399 C396 1.314 . S
N399 C397 1.279 . S
C400 C397 1.358 . S
C400 C401 1.356 . S
C400 H437 0.930 . S
C401 C398 1.348 . S
C401 C400 1.356 . S
H402 C396 0.930 . S
H403 C397 0.930 . S
C404 N405 1.314 . S
C404 C406 1.353 . S
C404 H410 0.930 . S
N405 Li355 1.990 . S
N405 C404 1.314 . S
N405 C408 1.279 . S
C406 C404 1.353 . S
C406 C409 1.348 . S
C406 H438 0.929 . S
C407 C408 1.358 . S
C407 C409 1.356 . S
C407 H439 0.930 . S
C408 N405 1.279 . S
C408 C407 1.358 . S
C408 H411 0.930 . S
C409 C406 1.348 . S
C409 C407 1.356 . S
H410 C404 0.930 . S
H411 C408 0.930 . S
O412 Li352 1.956 . S
O412 Li353 1.924 1_556 S
O412 Li354 1.996 . S
O412 C356 1.336 . S
O413 Li352 1.970 1_554 S
O413 Li353 1.956 . S
O413 Li355 1.961 . S
O413 C362 1.325 . S
O414 Li352 1.961 . S
O414 Li354 1.956 . S
O414 Li355 1.970 1_556 S
O414 C384 1.325 . S
O415 Li353 1.961 . S
O415 Li354 1.970 1_554 S
O415 Li355 1.956 . S
O415 C390 1.325 . S
H416 C358 0.929 . S
H417 C359 0.930 . S
H418 C360 0.930 . S
H419 C361 0.930 . S
H420 C363 0.930 . S
H421 C365 0.929 . S
H422 C366 0.930 . S
H423 C367 0.930 . S
H424 C370 0.930 . S
H425 C373 0.929 . S
H426 C378 0.929 . S
H427 C379 0.930 . S
H428 C386 0.929 . S
H429 C387 0.930 . S
H430 C388 0.930 . S
H431 C389 0.930 . S
H432 C391 0.929 . S
H433 C392 0.930 . S
H434 C393 0.930 1_556 S
H435 C394 0.930 . S
H436 C398 0.929 . S
H437 C400 0.930 . S
H438 C406 0.929 . S
H439 C407 0.930 . S
Li440 N457 1.990 . S
Li440 O500 1.956 . S
Li440 O501 1.970 . S
Li440 O502 1.961 . S
Li441 N465 1.990 . S
Li441 O500 1.970 . S
Li441 O501 1.956 . S
Li441 O503 1.961 1_545 S
Li442 N487 1.990 . S
Li442 O500 1.961 . S
Li442 O502 1.956 . S
Li442 O503 1.970 1_545 S
Li443 N493 1.990 . S
Li443 O501 1.961 1_565 S
Li443 O502 1.970 1_565 S
Li443 O503 1.956 . S
C444 C446 1.348 . S
C444 C447 1.356 . S
C444 O500 1.325 . S
N445 C448 1.314 . S
N445 C449 1.279 . S
C446 C444 1.348 . S
C446 C448 1.353 . S
C446 H504 0.929 . S
C447 C444 1.356 . S
C447 C449 1.358 . S
C447 H505 0.930 . S
C448 N445 1.314 . S
C448 C446 1.353 . S
C448 H506 0.930 . S
C449 N445 1.279 . S
C449 C447 1.358 . S
C449 H507 0.930 . S
C450 C453 1.348 . S
C450 C454 1.356 1_545 S
C450 O501 1.325 . S
C451 N452 1.279 1_565 S
C451 C454 1.358 . S
C451 H508 0.930 . S
N452 C451 1.279 1_545 S
N452 C455 1.314 . S
C453 C450 1.348 . S
C453 C455 1.353 . S
C453 H509 0.929 . S
C454 C450 1.356 1_565 S
C454 C451 1.358 . S
C454 H510 0.930 . S
C455 N452 1.314 . S
C455 C453 1.353 . S
C455 H511 0.930 . S
C456 N457 1.314 . S
C456 C461 1.353 . S
C456 H462 0.930 . S
N457 Li440 1.990 . S
N457 C456 1.314 . S
N457 C459 1.279 . S
C458 C459 1.358 . S
C458 C460 1.356 . S
C458 H512 0.930 . S
C459 N457 1.279 . S
C459 C458 1.358 . S
C459 H463 0.930 . S
C460 C458 1.356 . S
C460 C461 1.348 . S
C461 C456 1.353 . S
C461 C460 1.348 . S
C461 H513 0.929 . S
H462 C456 0.930 . S
H463 C459 0.930 . S
C464 N465 1.314 . S
C464 C466 1.353 . S
C464 H470 0.930 . S
N465 Li441 1.990 . S
N465 C464 1.314 . S
N465 C468 1.279 . S
C466 C464 1.353 . S
C466 C469 1.348 . S
C466 H514 0.929 . S
C467 C468 1.358 . S
C467 C469 1.356 . S
C467 H515 0.930 . S
C468 N465 1.279 . S
C468 C467 1.358 . S
C468 H471 0.930 . S
C469 C466 1.348 . S
C469 C467 1.356 . S
H470 C464 0.930 . S
H471 C468 0.930 . S
C472 C474 1.348 . S
C472 C475 1.356 . S
C472 O502 1.325 . S
N473 C476 1.314 . S
N473 C477 1.279 . S
C474 C472 1.348 . S
C474 C476 1.353 . S
C474 H516 0.929 1_545 S
C475 C472 1.356 . S
C475 C477 1.358 . S
C475 H517 0.930 . S
C476 N473 1.314 . S
C476 C474 1.353 . S
C476 H518 0.917 1_545 S
C477 N473 1.279 . S
C477 C475 1.358 . S
C477 H519 0.930 . S
C478 C479 1.348 . S
C478 C480 1.356 . S
C478 O503 1.325 . S
C479 C478 1.348 . S
C479 C481 1.353 . S
C479 H520 0.929 . S
C480 C478 1.356 . S
C480 C482 1.358 . S
C480 H521 0.930 . S
C481 C479 1.353 . S
C481 N483 1.314 . S
C481 H522 0.930 . S
C482 C480 1.358 . S
C482 N483 1.279 . S
C482 H523 0.930 . S
N483 C481 1.314 . S
N483 C482 1.279 . S
C484 C486 1.353 . S
C484 N487 1.314 . S
C484 H490 0.930 . S
C485 N487 1.279 . S
C485 C488 1.358 . S
C485 H491 0.930 . S
C486 C484 1.353 . S
C486 C489 1.348 . S
C486 H524 0.929 . S
N487 Li442 1.990 . S
N487 C484 1.314 . S
N487 C485 1.279 . S
C488 C485 1.358 . S
C488 C489 1.356 . S
C488 H525 0.930 . S
C489 C486 1.348 . S
C489 C488 1.356 . S
H490 C484 0.930 . S
H491 C485 0.930 . S
C492 N493 1.314 . S
C492 C494 1.353 . S
C492 H498 0.930 . S
N493 Li443 1.990 . S
N493 C492 1.314 . S
N493 C496 1.279 . S
C494 C492 1.353 . S
C494 C497 1.348 . S
C494 H526 0.929 . S
C495 C496 1.358 . S
C495 C497 1.356 . S
C495 H527 0.930 . S
C496 N493 1.279 . S
C496 C495 1.358 . S
C496 H499 0.930 . S
C497 C494 1.348 . S
C497 C495 1.356 . S
H498 C492 0.930 . S
H499 C496 0.930 . S
O500 Li440 1.956 . S
O500 Li441 1.970 . S
O500 Li442 1.961 . S
O500 C444 1.325 . S
O501 Li440 1.970 . S
O501 Li441 1.956 . S
O501 Li443 1.961 1_545 S
O501 C450 1.325 . S
O502 Li440 1.961 . S
O502 Li442 1.956 . S
O502 Li443 1.970 1_545 S
O502 C472 1.325 . S
O503 Li441 1.961 1_565 S
O503 Li442 1.970 1_565 S
O503 Li443 1.956 . S
O503 C478 1.325 . S
H504 C446 0.929 . S
H505 C447 0.930 . S
H506 C448 0.930 . S
H507 C449 0.930 . S
H508 C451 0.930 . S
H509 C453 0.929 . S
H510 C454 0.930 . S
H511 C455 0.930 . S
H512 C458 0.930 . S
H513 C461 0.929 . S
H514 C466 0.929 . S
H515 C467 0.930 . S
H516 C474 0.929 1_565 S
H517 C475 0.930 . S
H518 C476 0.917 1_565 S
H519 C477 0.930 . S
H520 C479 0.929 . S
H521 C480 0.930 . S
H522 C481 0.930 . S
H523 C482 0.930 . S
H524 C486 0.929 . S
H525 C488 0.930 . S
H526 C494 0.929 . S
H527 C495 0.930 . S
Li528 N545 1.990 . S
Li528 O588 1.956 . S
Li528 O589 1.970 . S
Li528 O590 1.961 . S
Li529 N553 1.990 . S
Li529 O588 1.970 . S
Li529 O589 1.956 . S
Li529 O591 1.961 . S
Li530 N575 1.990 . S
Li530 O588 1.961 . S
Li530 O590 1.956 . S
Li530 O591 1.970 . S
Li531 N581 1.990 . S
Li531 O589 1.961 . S
Li531 O590 1.970 . S
Li531 O591 1.956 . S
C532 C534 1.348 . S
C532 C535 1.356 . S
C532 O588 1.325 . S
N533 C536 1.314 . S
N533 C537 1.279 . S
C534 C532 1.348 . S
C534 C536 1.353 . S
C534 H592 0.929 . S
C535 C532 1.356 . S
C535 C537 1.358 . S
C535 H593 0.930 . S
C536 N533 1.314 . S
C536 C534 1.353 . S
C536 H594 0.930 . S
C537 N533 1.279 . S
C537 C535 1.358 . S
C537 H595 0.930 . S
C538 C541 1.348 . S
C538 C542 1.356 . S
C538 O589 1.325 . S
C539 N540 1.279 . S
C539 C542 1.358 . S
C539 H596 0.930 . S
N540 C539 1.279 . S
N540 C543 1.314 . S
C541 C538 1.348 . S
C541 C543 1.353 . S
C541 H597 0.929 . S
C542 C538 1.356 . S
C542 C539 1.358 . S
C542 H598 0.930 . S
C543 N540 1.314 . S
C543 C541 1.353 . S
C543 H599 0.930 . S
C544 N545 1.314 . S
C544 C549 1.353 . S
C544 H550 0.930 . S
N545 Li528 1.990 . S
N545 C544 1.314 . S
N545 C547 1.279 . S
C546 C547 1.358 . S
C546 C548 1.356 . S
C546 H600 0.930 . S
C547 N545 1.279 . S
C547 C546 1.358 . S
C547 H551 0.930 . S
C548 C546 1.356 . S
C548 C549 1.348 . S
C549 C544 1.353 . S
C549 C548 1.348 . S
C549 H601 0.929 . S
H550 C544 0.930 . S
H551 C547 0.930 . S
C552 N553 1.314 . S
C552 C554 1.353 . S
C552 H558 0.930 . S
N553 Li529 1.990 . S
N553 C552 1.314 . S
N553 C556 1.279 . S
C554 C552 1.353 . S
C554 C557 1.348 . S
C554 H602 0.929 . S
C555 C556 1.358 . S
C555 C557 1.356 . S
C555 H603 0.930 . S
C556 N553 1.279 . S
C556 C555 1.358 . S
C556 H559 0.930 . S
C557 C554 1.348 . S
C557 C555 1.356 . S
H558 C552 0.930 . S
H559 C556 0.930 . S
C560 C562 1.348 . S
C560 C563 1.356 . S
C560 O590 1.325 . S
N561 C564 1.314 . S
N561 C565 1.279 . S
C562 C560 1.348 . S
C562 C564 1.353 . S
C562 H604 0.929 . S
C563 C560 1.356 . S
C563 C565 1.358 . S
C563 H605 0.930 . S
C564 N561 1.314 . S
C564 C562 1.353 . S
C564 H606 0.930 . S
C565 N561 1.279 . S
C565 C563 1.358 . S
C565 H607 0.930 . S
C566 C567 1.348 . S
C566 C568 1.356 . S
C566 O591 1.325 . S
C567 C566 1.348 . S
C567 C569 1.353 . S
C567 H608 0.929 . S
C568 C566 1.356 . S
C568 C570 1.358 . S
C568 H609 0.930 . S
C569 C567 1.353 . S
C569 N571 1.314 . S
C569 H610 0.930 . S
C570 C568 1.358 . S
C570 N571 1.279 . S
C570 H611 0.930 . S
N571 C569 1.314 . S
N571 C570 1.279 . S
C572 C574 1.353 . S
C572 N575 1.314 . S
C572 H578 0.930 . S
C573 N575 1.279 . S
C573 C576 1.358 . S
C573 H579 0.930 . S
C574 C572 1.353 . S
C574 C577 1.348 . S
C574 H612 0.929 . S
N575 Li530 1.990 . S
N575 C572 1.314 . S
N575 C573 1.279 . S
C576 C573 1.358 . S
C576 C577 1.356 . S
C576 H613 0.930 . S
C577 C574 1.348 . S
C577 C576 1.356 . S
H578 C572 0.930 . S
H579 C573 0.930 . S
C580 N581 1.314 . S
C580 C582 1.353 . S
C580 H586 0.930 . S
N581 Li531 1.990 . S
N581 C580 1.314 . S
N581 C584 1.279 . S
C582 C580 1.353 . S
C582 C585 1.348 . S
C582 H614 0.929 . S
C583 C584 1.358 . S
C583 C585 1.356 . S
C583 H615 0.930 . S
C584 N581 1.279 . S
C584 C583 1.358 . S
C584 H587 0.930 . S
C585 C582 1.348 . S
C585 C583 1.356 . S
H586 C580 0.930 . S
H587 C584 0.930 . S
O588 Li528 1.956 . S
O588 Li529 1.970 . S
O588 Li530 1.961 . S
O588 C532 1.325 . S
O589 Li528 1.970 . S
O589 Li529 1.956 . S
O589 Li531 1.961 . S
O589 C538 1.325 . S
O590 Li528 1.961 . S
O590 Li530 1.956 . S
O590 Li531 1.970 . S
O590 C560 1.325 . S
O591 Li529 1.961 . S
O591 Li530 1.970 . S
O591 Li531 1.956 . S
O591 C566 1.325 . S
H592 C534 0.929 . S
H593 C535 0.930 . S
H594 C536 0.930 . S
H595 C537 0.930 . S
H596 C539 0.930 . S
H597 C541 0.929 . S
H598 C542 0.930 . S
H599 C543 0.930 . S
H600 C546 0.930 . S
H601 C549 0.929 . S
H602 C554 0.929 . S
H603 C555 0.930 . S
H604 C562 0.929 . S
H605 C563 0.930 . S
H606 C564 0.930 . S
H607 C565 0.930 . S
H608 C567 0.929 . S
H609 C568 0.930 . S
H610 C569 0.930 . S
H611 C570 0.930 . S
H612 C574 0.929 . S
H613 C576 0.930 . S
H614 C582 0.929 . S
H615 C583 0.930 . S
Li616 N633 1.990 . S
Li616 O676 1.956 . S
Li616 O677 1.970 . S
Li616 O678 1.961 . S
Li617 N641 1.990 . S
Li617 O676 1.970 . S
Li617 O677 1.956 . S
Li617 O679 1.961 . S
Li618 N663 1.990 . S
Li618 O676 1.961 . S
Li618 O678 1.956 . S
Li618 O679 1.970 . S
Li619 N669 1.990 . S
Li619 O677 1.961 . S
Li619 O678 1.970 . S
Li619 O679 1.956 . S
C620 C622 1.348 . S
C620 C623 1.356 . S
C620 O676 1.325 . S
N621 C624 1.314 . S
N621 C625 1.279 . S
C622 C620 1.348 . S
C622 C624 1.353 . S
C622 H680 0.929 . S
C623 C620 1.356 . S
C623 C625 1.358 . S
C623 H681 0.930 . S
C624 N621 1.314 . S
C624 C622 1.353 . S
C624 H682 0.930 . S
C625 N621 1.279 . S
C625 C623 1.358 . S
C625 H683 0.930 . S
C626 C629 1.348 . S
C626 C630 1.356 . S
C626 O677 1.325 . S
C627 N628 1.279 . S
C627 C630 1.358 . S
C627 H684 0.930 . S
N628 C627 1.279 . S
N628 C631 1.314 . S
C629 C626 1.348 . S
C629 C631 1.353 . S
C629 H685 0.929 . S
C630 C626 1.356 . S
C630 C627 1.358 . S
C630 H686 0.930 . S
C631 N628 1.314 . S
C631 C629 1.353 . S
C631 H687 0.930 . S
C632 N633 1.314 . S
C632 C637 1.353 . S
C632 H638 0.930 . S
N633 Li616 1.990 . S
N633 C632 1.314 . S
N633 C635 1.279 . S
C634 C635 1.358 . S
C634 C636 1.356 . S
C634 H688 0.930 . S
C635 N633 1.279 . S
C635 C634 1.358 . S
C635 H639 0.930 . S
C636 C634 1.356 . S
C636 C637 1.348 . S
C637 C632 1.353 . S
C637 C636 1.348 . S
C637 H689 0.929 . S
H638 C632 0.930 . S
H639 C635 0.930 . S
C640 N641 1.314 . S
C640 C642 1.353 . S
C640 H646 0.930 . S
N641 Li617 1.990 . S
N641 C640 1.314 . S
N641 C644 1.279 . S
C642 C640 1.353 . S
C642 C645 1.348 . S
C642 H690 0.929 . S
C643 C644 1.358 . S
C643 C645 1.356 . S
C643 H691 0.930 . S
C644 N641 1.279 . S
C644 C643 1.358 . S
C644 H647 0.930 . S
C645 C642 1.348 . S
C645 C643 1.356 . S
H646 C640 0.930 . S
H647 C644 0.930 . S
C648 C650 1.348 . S
C648 C651 1.356 . S
C648 O678 1.325 . S
N649 C652 1.314 . S
N649 C653 1.279 . S
C650 C648 1.348 . S
C650 C652 1.353 . S
C650 H692 0.929 . S
C651 C648 1.356 . S
C651 C653 1.358 . S
C651 H693 0.930 . S
C652 N649 1.314 . S
C652 C650 1.353 . S
C652 H694 0.930 . S
C653 N649 1.279 . S
C653 C651 1.358 . S
C653 H695 0.930 . S
C654 C655 1.348 . S
C654 C656 1.356 . S
C654 O679 1.325 . S
C655 C654 1.348 . S
C655 C657 1.353 . S
C655 H696 0.929 . S
C656 C654 1.356 . S
C656 C658 1.358 . S
C656 H697 0.930 . S
C657 C655 1.353 . S
C657 N659 1.314 . S
C657 H698 0.930 . S
C658 C656 1.358 . S
C658 N659 1.279 . S
C658 H699 0.930 . S
N659 C657 1.314 . S
N659 C658 1.279 . S
C660 C662 1.353 . S
C660 N663 1.314 . S
C660 H666 0.930 . S
C661 N663 1.279 . S
C661 C664 1.358 . S
C661 H667 0.930 . S
C662 C660 1.353 . S
C662 C665 1.348 . S
C662 H700 0.929 . S
N663 Li618 1.990 . S
N663 C660 1.314 . S
N663 C661 1.279 . S
C664 C661 1.358 . S
C664 C665 1.356 . S
C664 H701 0.930 . S
C665 C662 1.348 . S
C665 C664 1.356 . S
H666 C660 0.930 . S
H667 C661 0.930 . S
C668 N669 1.314 . S
C668 C670 1.353 . S
C668 H674 0.930 . S
N669 Li619 1.990 . S
N669 C668 1.314 . S
N669 C672 1.279 . S
C670 C668 1.353 . S
C670 C673 1.348 . S
C670 H702 0.929 . S
C671 C672 1.358 . S
C671 C673 1.356 . S
C671 H703 0.930 . S
C672 N669 1.279 . S
C672 C671 1.358 . S
C672 H675 0.930 . S
C673 C670 1.348 . S
C673 C671 1.356 . S
H674 C668 0.930 . S
H675 C672 0.930 . S
O676 Li616 1.956 . S
O676 Li617 1.970 . S
O676 Li618 1.961 . S
O676 C620 1.325 . S
O677 Li616 1.970 . S
O677 Li617 1.956 . S
O677 Li619 1.961 . S
O677 C626 1.325 . S
O678 Li616 1.961 . S
O678 Li618 1.956 . S
O678 Li619 1.970 . S
O678 C648 1.325 . S
O679 Li617 1.961 . S
O679 Li618 1.970 . S
O679 Li619 1.956 . S
O679 C654 1.325 . S
H680 C622 0.929 . S
H681 C623 0.930 . S
H682 C624 0.930 . S
H683 C625 0.930 . S
H684 C627 0.930 . S
H685 C629 0.929 . S
H686 C630 0.930 . S
H687 C631 0.930 . S
H688 C634 0.930 . S
H689 C637 0.929 . S
H690 C642 0.929 . S
H691 C643 0.930 . S
H692 C650 0.929 . S
H693 C651 0.930 . S
H694 C652 0.930 . S
H695 C653 0.930 . S
H696 C655 0.929 . S
H697 C656 0.930 . S
H698 C657 0.930 . S
H699 C658 0.930 . S
H700 C662 0.929 . S
H701 C664 0.930 . S
H702 C670 0.929 . S
H703 C671 0.930 . S
Li704 N721 1.990 . S
Li704 O764 1.956 . S
Li704 O765 1.970 . S
Li704 O766 1.961 . S
Li705 N729 1.990 . S
Li705 O764 1.970 . S
Li705 O765 1.956 . S
Li705 O767 1.961 . S
Li706 N751 1.990 . S
Li706 O764 1.961 . S
Li706 O766 1.956 . S
Li706 O767 1.970 . S
Li707 N757 1.990 . S
Li707 O765 1.961 . S
Li707 O766 1.970 . S
Li707 O767 1.956 . S
C708 C710 1.348 . S
C708 C711 1.356 . S
C708 O764 1.325 . S
N709 C712 1.314 . S
N709 C713 1.279 . S
C710 C708 1.348 . S
C710 C712 1.353 . S
C710 H768 0.929 . S
C711 C708 1.356 . S
C711 C713 1.358 . S
C711 H769 0.930 . S
C712 N709 1.314 . S
C712 C710 1.353 . S
C712 H770 0.930 . S
C713 N709 1.279 . S
C713 C711 1.358 . S
C713 H771 0.930 . S
C714 C717 1.348 . S
C714 C718 1.356 . S
C714 O765 1.325 . S
C715 N716 1.279 . S
C715 C718 1.358 . S
C715 H772 0.930 . S
N716 C715 1.279 . S
N716 C719 1.314 . S
C717 C714 1.348 . S
C717 C719 1.353 . S
C717 H773 0.929 . S
C718 C714 1.356 . S
C718 C715 1.358 . S
C718 H774 0.930 . S
C719 N716 1.314 . S
C719 C717 1.353 . S
C719 H775 0.930 . S
C720 N721 1.314 . S
C720 C725 1.353 . S
C720 H726 0.930 . S
N721 Li704 1.990 . S
N721 C720 1.314 . S
N721 C723 1.279 . S
C722 C723 1.358 . S
C722 C724 1.356 . S
C722 H776 0.930 . S
C723 N721 1.279 . S
C723 C722 1.358 . S
C723 H727 0.930 . S
C724 C722 1.356 . S
C724 C725 1.348 . S
C725 C720 1.353 . S
C725 C724 1.348 . S
C725 H777 0.929 . S
H726 C720 0.930 . S
H727 C723 0.930 . S
C728 N729 1.314 . S
C728 C730 1.353 . S
C728 H734 0.930 . S
N729 Li705 1.990 . S
N729 C728 1.314 . S
N729 C732 1.279 . S
C730 C728 1.353 . S
C730 C733 1.348 . S
C730 H778 0.929 . S
C731 C732 1.358 . S
C731 C733 1.356 . S
C731 H779 0.930 . S
C732 N729 1.279 . S
C732 C731 1.358 . S
C732 H735 0.930 . S
C733 C730 1.348 . S
C733 C731 1.356 . S
H734 C728 0.930 . S
H735 C732 0.930 . S
C736 C738 1.348 . S
C736 C739 1.356 . S
C736 O766 1.325 . S
N737 C740 1.314 . S
N737 C741 1.279 . S
C738 C736 1.348 . S
C738 C740 1.353 . S
C738 H780 0.929 . S
C739 C736 1.356 . S
C739 C741 1.358 . S
C739 H781 0.930 . S
C740 N737 1.314 . S
C740 C738 1.353 . S
C740 H782 0.930 . S
C741 N737 1.279 . S
C741 C739 1.358 . S
C741 H783 0.930 . S
C742 C743 1.348 . S
C742 C744 1.356 . S
C742 O767 1.325 . S
C743 C742 1.348 . S
C743 C745 1.353 . S
C743 H784 0.929 . S
C744 C742 1.356 . S
C744 C746 1.358 . S
C744 H785 0.930 . S
C745 C743 1.353 . S
C745 N747 1.314 . S
C745 H786 0.930 . S
C746 C744 1.358 . S
C746 N747 1.279 . S
C746 H787 0.930 . S
N747 C745 1.314 . S
N747 C746 1.279 . S
C748 C750 1.353 . S
C748 N751 1.314 . S
C748 H754 0.930 . S
C749 N751 1.279 . S
C749 C752 1.358 . S
C749 H755 0.930 . S
C750 C748 1.353 . S
C750 C753 1.348 . S
C750 H788 0.929 . S
N751 Li706 1.990 . S
N751 C748 1.314 . S
N751 C749 1.279 . S
C752 C749 1.358 . S
C752 C753 1.356 . S
C752 H789 0.930 . S
C753 C750 1.348 . S
C753 C752 1.356 . S
H754 C748 0.930 . S
H755 C749 0.930 . S
C756 N757 1.314 . S
C756 C758 1.353 . S
C756 H762 0.930 . S
N757 Li707 1.990 . S
N757 C756 1.314 . S
N757 C760 1.279 . S
C758 C756 1.353 . S
C758 C761 1.348 . S
C758 H790 0.929 . S
C759 C760 1.358 . S
C759 C761 1.356 . S
C759 H791 0.930 . S
C760 N757 1.279 . S
C760 C759 1.358 . S
C760 H763 0.930 . S
C761 C758 1.348 . S
C761 C759 1.356 . S
H762 C756 0.930 . S
H763 C760 0.930 . S
O764 Li704 1.956 . S
O764 Li705 1.970 . S
O764 Li706 1.961 . S
O764 C708 1.325 . S
O765 Li704 1.970 . S
O765 Li705 1.956 . S
O765 Li707 1.961 . S
O765 C714 1.325 . S
O766 Li704 1.961 . S
O766 Li706 1.956 . S
O766 Li707 1.970 . S
O766 C736 1.325 . S
O767 Li705 1.961 . S
O767 Li706 1.970 . S
O767 Li707 1.956 . S
O767 C742 1.325 . S
H768 C710 0.929 . S
H769 C711 0.930 . S
H770 C712 0.930 . S
H771 C713 0.930 . S
H772 C715 0.930 . S
H773 C717 0.929 . S
H774 C718 0.930 . S
H775 C719 0.930 . S
H776 C722 0.930 . S
H777 C725 0.929 . S
H778 C730 0.929 . S
H779 C731 0.930 . S
H780 C738 0.929 . S
H781 C739 0.930 . S
H782 C740 0.930 . S
H783 C741 0.930 . S
H784 C743 0.929 . S
H785 C744 0.930 . S
H786 C745 0.930 . S
H787 C746 0.930 . S
H788 C750 0.929 . S
H789 C752 0.930 . S
H790 C758 0.929 . S
H791 C759 0.930 . S
Li792 N809 1.990 . S
Li792 O852 1.956 . S
Li792 O853 1.970 1_565 S
Li792 O854 1.961 . S
Li793 N817 1.990 . S
Li793 O852 1.970 1_545 S
Li793 O853 1.956 . S
Li793 O855 1.961 . S
Li794 N839 1.990 . S
Li794 O852 1.961 . S
Li794 O854 1.956 . S
Li794 O855 1.970 1_565 S
Li795 N845 1.990 . S
Li795 O853 1.961 . S
Li795 O854 1.970 1_545 S
Li795 O855 1.956 . S
C796 C798 1.348 . S
C796 C799 1.356 . S
C796 O852 1.325 . S
N797 C800 1.314 . S
N797 C801 1.279 . S
C798 C796 1.348 . S
C798 C800 1.353 . S
C798 H856 0.929 . S
C799 C796 1.356 . S
C799 C801 1.358 . S
C799 H857 0.930 . S
C800 N797 1.314 . S
C800 C798 1.353 . S
C800 H858 0.930 . S
C801 N797 1.279 . S
C801 C799 1.358 . S
C801 H859 0.930 . S
C802 C805 1.348 1_545 S
C802 C806 1.356 . S
C802 O853 1.325 . S
C803 N804 1.279 . S
C803 C806 1.358 . S
C803 H860 0.930 . S
N804 C803 1.279 . S
N804 C807 1.314 1_545 S
C805 C802 1.348 1_565 S
C805 C807 1.353 . S
C805 H861 0.929 . S
C806 C802 1.356 . S
C806 C803 1.358 . S
C806 H862 0.930 . S
C807 N804 1.314 1_565 S
C807 C805 1.353 . S
C807 H863 0.930 . S
C808 N809 1.314 . S
C808 C813 1.353 . S
C808 H814 0.930 . S
N809 Li792 1.990 . S
N809 C808 1.314 . S
N809 C811 1.279 . S
C810 C811 1.358 . S
C810 C812 1.356 . S
C810 H864 0.930 . S
C811 N809 1.279 . S
C811 C810 1.358 . S
C811 H815 0.930 . S
C812 C810 1.356 . S
C812 C813 1.348 . S
C813 C808 1.353 . S
C813 C812 1.348 . S
C813 H865 0.929 . S
H814 C808 0.930 . S
H815 C811 0.930 . S
C816 N817 1.314 . S
C816 C818 1.353 . S
C816 H822 0.930 . S
N817 Li793 1.990 . S
N817 C816 1.314 . S
N817 C820 1.279 . S
C818 C816 1.353 . S
C818 C821 1.348 . S
C818 H866 0.929 . S
C819 C820 1.358 . S
C819 C821 1.356 . S
C819 H867 0.930 . S
C820 N817 1.279 . S
C820 C819 1.358 . S
C820 H823 0.930 . S
C821 C818 1.348 . S
C821 C819 1.356 . S
H822 C816 0.930 . S
H823 C820 0.930 . S
C824 C826 1.348 1_565 S
C824 C827 1.356 . S
C824 O854 1.325 . S
N825 C828 1.314 1_565 S
N825 C829 1.279 . S
C826 C824 1.348 1_545 S
C826 C828 1.353 . S
C826 H868 0.929 . S
C827 C824 1.356 . S
C827 C829 1.358 . S
C827 H869 0.930 . S
C828 N825 1.314 1_545 S
C828 C826 1.353 . S
C828 H870 0.930 . S
C829 N825 1.279 . S
C829 C827 1.358 . S
C829 H871 0.930 . S
C830 C831 1.348 . S
C830 C832 1.356 . S
C830 O855 1.325 . S
C831 C830 1.348 . S
C831 C833 1.353 . S
C831 H872 0.929 . S
C832 C830 1.356 . S
C832 C834 1.358 . S
C832 H873 0.930 . S
C833 C831 1.353 . S
C833 N835 1.314 . S
C833 H874 0.930 . S
C834 C832 1.358 . S
C834 N835 1.279 . S
C834 H875 0.930 . S
N835 C833 1.314 . S
N835 C834 1.279 . S
C836 C838 1.353 . S
C836 N839 1.314 . S
C836 H842 0.930 . S
C837 N839 1.279 . S
C837 C840 1.358 . S
C837 H843 0.930 . S
C838 C836 1.353 . S
C838 C841 1.348 . S
C838 H876 0.929 . S
N839 Li794 1.990 . S
N839 C836 1.314 . S
N839 C837 1.279 . S
C840 C837 1.358 . S
C840 C841 1.356 . S
C840 H877 0.930 . S
C841 C838 1.348 . S
C841 C840 1.356 . S
H842 C836 0.930 . S
H843 C837 0.930 . S
C844 N845 1.314 . S
C844 C846 1.353 . S
C844 H850 0.930 . S
N845 Li795 1.990 . S
N845 C844 1.314 . S
N845 C848 1.279 . S
C846 C844 1.353 . S
C846 C849 1.348 . S
C846 H878 0.929 . S
C847 C848 1.358 . S
C847 C849 1.356 . S
C847 H879 0.930 . S
C848 N845 1.279 . S
C848 C847 1.358 . S
C848 H851 0.930 . S
C849 C846 1.348 . S
C849 C847 1.356 . S
H850 C844 0.930 . S
H851 C848 0.930 . S
O852 Li792 1.956 . S
O852 Li793 1.970 1_565 S
O852 Li794 1.961 . S
O852 C796 1.325 . S
O853 Li792 1.970 1_545 S
O853 Li793 1.956 . S
O853 Li795 1.961 . S
O853 C802 1.325 . S
O854 Li792 1.961 . S
O854 Li794 1.956 . S
O854 Li795 1.970 1_565 S
O854 C824 1.325 . S
O855 Li793 1.961 . S
O855 Li794 1.970 1_545 S
O855 Li795 1.956 . S
O855 C830 1.325 . S
H856 C798 0.929 . S
H857 C799 0.930 . S
H858 C800 0.930 . S
H859 C801 0.930 . S
H860 C803 0.930 . S
H861 C805 0.929 . S
H862 C806 0.930 . S
H863 C807 0.930 . S
H864 C810 0.930 . S
H865 C813 0.929 . S
H866 C818 0.929 . S
H867 C819 0.930 . S
H868 C826 0.929 . S
H869 C827 0.930 . S
H870 C828 0.930 . S
H871 C829 0.930 . S
H872 C831 0.929 . S
H873 C832 0.930 . S
H874 C833 0.930 . S
H875 C834 0.930 . S
H876 C838 0.929 . S
H877 C840 0.930 . S
H878 C846 0.929 . S
H879 C847 0.930 . S
Li880 N897 1.990 . S
Li880 O940 1.956 . S
Li880 O941 1.970 . S
Li880 O942 1.961 . S
Li881 N905 1.990 . S
Li881 O940 1.970 . S
Li881 O941 1.956 . S
Li881 O943 1.961 1_455 S
Li882 N927 1.990 . S
Li882 O940 1.961 . S
Li882 O942 1.956 . S
Li882 O943 1.970 1_455 S
Li883 N933 1.990 . S
Li883 O941 1.961 1_655 S
Li883 O942 1.970 1_655 S
Li883 O943 1.956 . S
C884 C886 1.348 . S
C884 C887 1.356 . S
C884 O940 1.325 . S
N885 C888 1.314 . S
N885 C889 1.279 . S
C886 C884 1.348 . S
C886 C888 1.353 . S
C886 H944 0.929 . S
C887 C884 1.356 . S
C887 C889 1.358 . S
C887 H945 0.930 . S
C888 N885 1.314 . S
C888 C886 1.353 . S
C888 H946 0.930 . S
C889 N885 1.279 . S
C889 C887 1.358 . S
C889 H947 0.930 . S
C890 C893 1.348 . S
C890 C894 1.356 1_455 S
C890 O941 1.325 . S
C891 N892 1.279 . S
C891 C894 1.358 . S
C891 H948 0.930 . S
N892 C891 1.279 . S
N892 C895 1.314 1_655 S
C893 C890 1.348 . S
C893 C895 1.353 . S
C893 H949 0.929 . S
C894 C890 1.356 1_655 S
C894 C891 1.358 . S
C894 H950 0.930 . S
C895 N892 1.314 1_455 S
C895 C893 1.353 . S
C895 H951 0.930 . S
C896 N897 1.314 . S
C896 C901 1.353 . S
C896 H902 0.930 . S
N897 Li880 1.990 . S
N897 C896 1.314 . S
N897 C899 1.279 . S
C898 C899 1.358 . S
C898 C900 1.356 . S
C898 H952 0.930 . S
C899 N897 1.279 . S
C899 C898 1.358 . S
C899 H903 0.930 . S
C900 C898 1.356 . S
C900 C901 1.348 . S
C901 C896 1.353 . S
C901 C900 1.348 . S
C901 H953 0.929 . S
H902 C896 0.930 . S
H903 C899 0.930 . S
C904 N905 1.303 1_655 S
C904 C906 1.364 . S
C904 H910 0.934 . S
N905 Li881 1.990 . S
N905 C904 1.303 1_455 S
N905 C908 1.279 . S
C906 C904 1.364 . S
C906 C909 1.348 1_655 S
C906 H954 0.929 . S
C907 C908 1.358 . S
C907 C909 1.356 . S
C907 H955 0.930 . S
C908 N905 1.279 . S
C908 C907 1.358 . S
C908 H911 0.930 . S
C909 C906 1.348 1_455 S
C909 C907 1.356 . S
H910 C904 0.934 . S
H911 C908 0.930 . S
C912 C914 1.348 1_455 S
C912 C915 1.356 . S
C912 O942 1.325 . S
N913 C916 1.314 1_455 S
N913 C917 1.279 . S
C914 C912 1.348 1_655 S
C914 C916 1.353 . S
C914 H956 0.929 . S
C915 C912 1.356 . S
C915 C917 1.358 . S
C915 H957 0.930 . S
C916 N913 1.314 1_655 S
C916 C914 1.353 . S
C916 H958 0.930 . S
C917 N913 1.279 . S
C917 C915 1.358 . S
C917 H959 0.930 . S
C918 C919 1.348 . S
C918 C920 1.356 . S
C918 O943 1.325 . S
C919 C918 1.348 . S
C919 C921 1.353 . S
C919 H960 0.929 . S
C920 C918 1.356 . S
C920 C922 1.358 . S
C920 H961 0.930 . S
C921 C919 1.353 . S
C921 N923 1.314 . S
C921 H962 0.930 . S
C922 C920 1.358 . S
C922 N923 1.279 . S
C922 H963 0.930 . S
N923 C921 1.314 . S
N923 C922 1.279 . S
C924 C926 1.353 . S
C924 N927 1.314 . S
C924 H930 0.930 . S
C925 N927 1.279 . S
C925 C928 1.358 . S
C925 H931 0.930 . S
C926 C924 1.353 . S
C926 C929 1.348 . S
C926 H964 0.929 . S
N927 Li882 1.990 . S
N927 C924 1.314 . S
N927 C925 1.279 . S
C928 C925 1.358 . S
C928 C929 1.356 . S
C928 H965 0.930 . S
C929 C926 1.348 . S
C929 C928 1.356 . S
H930 C924 0.930 . S
H931 C925 0.930 . S
C932 N933 1.314 . S
C932 C934 1.353 . S
C932 H938 0.930 . S
N933 Li883 1.990 . S
N933 C932 1.314 . S
N933 C936 1.279 . S
C934 C932 1.353 . S
C934 C937 1.348 . S
C934 H966 0.929 . S
C935 C936 1.358 . S
C935 C937 1.356 . S
C935 H967 0.930 . S
C936 N933 1.279 . S
C936 C935 1.358 . S
C936 H939 0.930 . S
C937 C934 1.348 . S
C937 C935 1.356 . S
H938 C932 0.930 . S
H939 C936 0.930 . S
O940 Li880 1.956 . S
O940 Li881 1.970 . S
O940 Li882 1.961 . S
O940 C884 1.325 . S
O941 Li880 1.970 . S
O941 Li881 1.956 . S
O941 Li883 1.961 1_455 S
O941 C890 1.325 . S
O942 Li880 1.961 . S
O942 Li882 1.956 . S
O942 Li883 1.970 1_455 S
O942 C912 1.325 . S
O943 Li881 1.961 1_655 S
O943 Li882 1.970 1_655 S
O943 Li883 1.956 . S
O943 C918 1.325 . S
H944 C886 0.929 . S
H945 C887 0.930 . S
H946 C888 0.930 . S
H947 C889 0.930 . S
H948 C891 0.930 . S
H949 C893 0.929 . S
H950 C894 0.930 . S
H951 C895 0.930 . S
H952 C898 0.930 . S
H953 C901 0.929 . S
H954 C906 0.929 . S
H955 C907 0.930 . S
H956 C914 0.929 . S
H957 C915 0.930 . S
H958 C916 0.930 . S
H959 C917 0.930 . S
H960 C919 0.929 . S
H961 C920 0.930 . S
H962 C921 0.930 . S
H963 C922 0.930 . S
H964 C926 0.929 . S
H965 C928 0.930 . S
H966 C934 0.929 . S
H967 C935 0.930 . S
Li968 N985 1.990 . S
Li968 O1028 1.956 . S
Li968 O1029 1.970 . S
Li968 O1030 1.961 . S
Li969 N993 1.990 . S
Li969 O1028 1.970 . S
Li969 O1029 1.956 . S
Li969 O1031 1.961 . S
Li970 N1015 1.990 . S
Li970 O1028 1.961 . S
Li970 O1030 1.956 . S
Li970 O1031 1.970 . S
Li971 N1021 1.990 . S
Li971 O1029 1.961 . S
Li971 O1030 1.970 . S
Li971 O1031 1.956 . S
C972 C974 1.348 . S
C972 C975 1.356 . S
C972 O1028 1.325 . S
N973 C976 1.314 . S
N973 C977 1.279 . S
C974 C972 1.348 . S
C974 C976 1.353 . S
C974 H1032 0.929 . S
C975 C972 1.356 . S
C975 C977 1.358 . S
C975 H1033 0.930 . S
C976 N973 1.314 . S
C976 C974 1.353 . S
C976 H1034 0.930 . S
C977 N973 1.279 . S
C977 C975 1.358 . S
C977 H1035 0.930 . S
C978 C981 1.348 . S
C978 C982 1.356 . S
C978 O1029 1.325 . S
C979 N980 1.279 . S
C979 C982 1.358 . S
C979 H1036 0.930 . S
N980 C979 1.279 . S
N980 C983 1.314 . S
C981 C978 1.348 . S
C981 C983 1.353 . S
C981 H1037 0.929 . S
C982 C978 1.356 . S
C982 C979 1.358 . S
C982 H1038 0.930 . S
C983 N980 1.314 . S
C983 C981 1.353 . S
C983 H1039 0.930 . S
C984 N985 1.314 . S
C984 C989 1.353 . S
C984 H990 0.930 . S
N985 Li968 1.990 . S
N985 C984 1.314 . S
N985 C987 1.279 . S
C986 C987 1.358 . S
C986 C988 1.356 . S
C986 H1040 0.930 . S
C987 N985 1.279 . S
C987 C986 1.358 . S
C987 H991 0.930 . S
C988 C986 1.356 . S
C988 C989 1.348 . S
C989 C984 1.353 . S
C989 C988 1.348 . S
C989 H1041 0.929 . S
H990 C984 0.930 . S
H991 C987 0.930 . S
C992 N993 1.314 . S
C992 C994 1.353 . S
C992 H998 0.930 . S
N993 Li969 1.990 . S
N993 C992 1.314 . S
N993 C996 1.279 . S
C994 C992 1.353 . S
C994 C997 1.348 . S
C994 H1042 0.929 . S
C995 C996 1.358 . S
C995 C997 1.356 . S
C995 H1043 0.930 . S
C996 N993 1.279 . S
C996 C995 1.358 . S
C996 H999 0.930 . S
C997 C994 1.348 . S
C997 C995 1.356 . S
H998 C992 0.930 . S
H999 C996 0.930 . S
C1000 C1002 1.348 . S
C1000 C1003 1.356 . S
C1000 O1030 1.325 . S
N1001 C1004 1.314 . S
N1001 C1005 1.279 . S
C1002 C1000 1.348 . S
C1002 C1004 1.353 . S
C1002 H1044 0.929 . S
C1003 C1000 1.356 . S
C1003 C1005 1.358 . S
C1003 H1045 0.930 . S
C1004 N1001 1.314 . S
C1004 C1002 1.353 . S
C1004 H1046 0.930 . S
C1005 N1001 1.279 . S
C1005 C1003 1.358 . S
C1005 H1047 0.930 . S
C1006 C1007 1.348 . S
C1006 C1008 1.356 . S
C1006 O1031 1.325 . S
C1007 C1006 1.348 . S
C1007 C1009 1.353 . S
C1007 H1048 0.929 . S
C1008 C1006 1.356 . S
C1008 C1010 1.358 . S
C1008 H1049 0.930 . S
C1009 C1007 1.353 . S
C1009 N1011 1.314 . S
C1009 H1050 0.930 . S
C1010 C1008 1.358 . S
C1010 N1011 1.279 . S
C1010 H1051 0.930 . S
N1011 C1009 1.314 . S
N1011 C1010 1.279 . S
C1012 C1014 1.353 . S
C1012 N1015 1.314 . S
C1012 H1018 0.930 . S
C1013 N1015 1.279 . S
C1013 C1016 1.358 . S
C1013 H1019 0.930 . S
C1014 C1012 1.353 . S
C1014 C1017 1.348 . S
C1014 H1052 0.929 . S
N1015 Li970 1.990 . S
N1015 C1012 1.314 . S
N1015 C1013 1.279 . S
C1016 C1013 1.358 . S
C1016 C1017 1.356 . S
C1016 H1053 0.930 . S
C1017 C1014 1.348 . S
C1017 C1016 1.356 . S
H1018 C1012 0.930 . S
H1019 C1013 0.930 . S
C1020 N1021 1.314 . S
C1020 C1022 1.353 . S
C1020 H1026 0.930 . S
N1021 Li971 1.990 . S
N1021 C1020 1.314 . S
N1021 C1024 1.279 . S
C1022 C1020 1.353 . S
C1022 C1025 1.348 . S
C1022 H1054 0.929 . S
C1023 C1024 1.358 . S
C1023 C1025 1.356 . S
C1023 H1055 0.930 . S
C1024 N1021 1.279 . S
C1024 C1023 1.358 . S
C1024 H1027 0.930 . S
C1025 C1022 1.348 . S
C1025 C1023 1.356 . S
H1026 C1020 0.930 . S
H1027 C1024 0.930 . S
O1028 Li968 1.956 . S
O1028 Li969 1.970 . S
O1028 Li970 1.961 . S
O1028 C972 1.325 . S
O1029 Li968 1.970 . S
O1029 Li969 1.956 . S
O1029 Li971 1.961 . S
O1029 C978 1.325 . S
O1030 Li968 1.961 . S
O1030 Li970 1.956 . S
O1030 Li971 1.970 . S
O1030 C1000 1.325 . S
O1031 Li969 1.961 . S
O1031 Li970 1.970 . S
O1031 Li971 1.956 . S
O1031 C1006 1.325 . S
H1032 C974 0.929 . S
H1033 C975 0.930 . S
H1034 C976 0.930 . S
H1035 C977 0.930 . S
H1036 C979 0.930 . S
H1037 C981 0.929 . S
H1038 C982 0.930 . S
H1039 C983 0.930 . S
H1040 C986 0.930 . S
H1041 C989 0.929 . S
H1042 C994 0.929 . S
H1043 C995 0.930 . S
H1044 C1002 0.929 . S
H1045 C1003 0.930 . S
H1046 C1004 0.930 . S
H1047 C1005 0.930 . S
H1048 C1007 0.929 . S
H1049 C1008 0.930 . S
H1050 C1009 0.930 . S
H1051 C1010 0.930 . S
H1052 C1014 0.929 . S
H1053 C1016 0.930 . S
H1054 C1022 0.929 . S
H1055 C1023 0.930 . S
Li1056 N1073 1.990 . S
Li1056 O1116 1.956 . S
Li1056 O1117 1.970 . S
Li1056 O1118 1.961 . S
Li1057 N1081 1.990 1_455 S
Li1057 O1116 1.970 . S
Li1057 O1117 1.956 . S
Li1057 O1119 1.961 . S
Li1058 N1103 1.990 . S
Li1058 O1116 1.961 . S
Li1058 O1118 1.956 . S
Li1058 O1119 1.970 . S
Li1059 N1109 1.990 . S
Li1059 O1117 1.961 . S
Li1059 O1118 1.970 . S
Li1059 O1119 1.956 . S
C1060 C1062 1.348 . S
C1060 C1063 1.356 . S
C1060 O1116 1.325 . S
N1061 C1064 1.314 . S
N1061 C1065 1.279 . S
C1062 C1060 1.348 . S
C1062 C1064 1.353 . S
C1062 H1120 0.929 . S
C1063 C1060 1.356 . S
C1063 C1065 1.358 . S
C1063 H1121 0.930 . S
C1064 N1061 1.314 . S
C1064 C1062 1.353 . S
C1064 H1122 0.930 . S
C1065 N1061 1.279 . S
C1065 C1063 1.358 . S
C1065 H1123 0.930 . S
C1066 C1069 1.348 . S
C1066 C1070 1.356 . S
C1066 O1117 1.325 1_655 S
C1067 N1068 1.279 . S
C1067 C1070 1.358 . S
C1067 H1124 0.930 . S
N1068 C1067 1.279 . S
N1068 C1071 1.314 . S
C1069 C1066 1.348 . S
C1069 C1071 1.353 . S
C1069 H1125 0.929 . S
C1070 C1066 1.356 . S
C1070 C1067 1.358 . S
C1070 H1126 0.930 . S
C1071 N1068 1.314 . S
C1071 C1069 1.353 . S
C1071 H1127 0.930 . S
C1072 N1073 1.314 . S
C1072 C1077 1.353 . S
C1072 H1078 0.930 . S
N1073 Li1056 1.990 . S
N1073 C1072 1.314 . S
N1073 C1075 1.279 . S
C1074 C1075 1.358 . S
C1074 C1076 1.356 . S
C1074 H1128 0.930 . S
C1075 N1073 1.279 . S
C1075 C1074 1.358 . S
C1075 H1079 0.930 . S
C1076 C1074 1.356 . S
C1076 C1077 1.348 . S
C1077 C1072 1.353 . S
C1077 C1076 1.348 . S
C1077 H1129 0.929 . S
H1078 C1072 0.930 . S
H1079 C1075 0.930 . S
C1080 N1081 1.314 . S
C1080 C1082 1.353 . S
C1080 H1086 0.930 . S
N1081 Li1057 1.990 1_655 S
N1081 C1080 1.314 . S
N1081 C1084 1.279 . S
C1082 C1080 1.353 . S
C1082 C1085 1.348 . S
C1082 H1130 0.929 . S
C1083 C1084 1.358 . S
C1083 C1085 1.356 . S
C1083 H1131 0.930 . S
C1084 N1081 1.279 . S
C1084 C1083 1.358 . S
C1084 H1087 0.930 . S
C1085 C1082 1.348 . S
C1085 C1083 1.356 . S
H1086 C1080 0.930 . S
H1087 C1084 0.930 . S
C1088 C1090 1.348 . S
C1088 C1091 1.356 . S
C1088 O1118 1.325 . S
N1089 C1092 1.314 . S
N1089 C1093 1.279 . S
C1090 C1088 1.348 . S
C1090 C1092 1.353 . S
C1090 H1132 0.929 . S
C1091 C1088 1.356 . S
C1091 C1093 1.358 . S
C1091 H1133 0.930 . S
C1092 N1089 1.314 . S
C1092 C1090 1.353 . S
C1092 H1134 0.930 . S
C1093 N1089 1.279 . S
C1093 C1091 1.358 . S
C1093 H1135 0.930 . S
C1094 C1095 1.348 . S
C1094 C1096 1.357 . S
C1094 O1119 1.325 . S
C1095 C1094 1.348 . S
C1095 C1097 1.353 . S
C1095 H1136 0.929 . S
C1096 C1094 1.357 . S
C1096 C1098 1.358 1_455 S
C1096 H1137 0.928 1_455 S
C1097 C1095 1.353 . S
C1097 N1099 1.314 . S
C1097 H1138 0.930 . S
C1098 C1096 1.358 1_655 S
C1098 N1099 1.279 1_655 S
C1098 H1139 0.930 . S
N1099 C1097 1.314 . S
N1099 C1098 1.279 1_455 S
C1100 C1102 1.353 . S
C1100 N1103 1.314 . S
C1100 H1106 0.930 . S
C1101 N1103 1.279 . S
C1101 C1104 1.358 . S
C1101 H1107 0.930 . S
C1102 C1100 1.353 . S
C1102 C1105 1.348 . S
C1102 H1140 0.929 . S
N1103 Li1058 1.990 . S
N1103 C1100 1.314 . S
N1103 C1101 1.279 . S
C1104 C1101 1.358 . S
C1104 C1105 1.356 . S
C1104 H1141 0.930 . S
C1105 C1102 1.348 . S
C1105 C1104 1.356 . S
H1106 C1100 0.930 . S
H1107 C1101 0.930 . S
C1108 N1109 1.314 . S
C1108 C1110 1.353 . S
C1108 H1114 0.930 . S
N1109 Li1059 1.990 . S
N1109 C1108 1.314 . S
N1109 C1112 1.279 . S
C1110 C1108 1.353 . S
C1110 C1113 1.348 . S
C1110 H1142 0.929 1_455 S
C1111 C1112 1.358 . S
C1111 C1113 1.356 . S
C1111 H1143 0.930 . S
C1112 N1109 1.279 . S
C1112 C1111 1.358 . S
C1112 H1115 0.930 . S
C1113 C1110 1.348 . S
C1113 C1111 1.356 . S
H1114 C1108 0.930 . S
H1115 C1112 0.930 . S
O1116 Li1056 1.956 . S
O1116 Li1057 1.970 . S
O1116 Li1058 1.961 . S
O1116 C1060 1.325 . S
O1117 Li1056 1.970 . S
O1117 Li1057 1.956 . S
O1117 Li1059 1.961 . S
O1117 C1066 1.325 1_455 S
O1118 Li1056 1.961 . S
O1118 Li1058 1.956 . S
O1118 Li1059 1.970 . S
O1118 C1088 1.325 . S
O1119 Li1057 1.961 . S
O1119 Li1058 1.970 . S
O1119 Li1059 1.956 . S
O1119 C1094 1.325 . S
H1120 C1062 0.929 . S
H1121 C1063 0.930 . S
H1122 C1064 0.930 . S
H1123 C1065 0.930 . S
H1124 C1067 0.930 . S
H1125 C1069 0.929 . S
H1126 C1070 0.930 . S
H1127 C1071 0.930 . S
H1128 C1074 0.930 . S
H1129 C1077 0.929 . S
H1130 C1082 0.929 . S
H1131 C1083 0.930 . S
H1132 C1090 0.929 . S
H1133 C1091 0.930 . S
H1134 C1092 0.930 . S
H1135 C1093 0.930 . S
H1136 C1095 0.929 . S
H1137 C1096 0.928 1_655 S
H1138 C1097 0.930 . S
H1139 C1098 0.930 . S
H1140 C1102 0.929 . S
H1141 C1104 0.930 . S
H1142 C1110 0.929 1_655 S
H1143 C1111 0.930 . S
Li1144 N1161 1.990 . S
Li1144 O1204 1.956 . S
Li1144 O1205 1.970 . S
Li1144 O1206 1.961 . S
Li1145 N1169 1.990 . S
Li1145 O1204 1.970 . S
Li1145 O1205 1.956 . S
Li1145 O1207 1.961 . S
Li1146 N1191 1.990 . S
Li1146 O1204 1.961 . S
Li1146 O1206 1.956 . S
Li1146 O1207 1.970 . S
Li1147 N1197 1.990 . S
Li1147 O1205 1.961 . S
Li1147 O1206 1.970 . S
Li1147 O1207 1.956 . S
C1148 C1150 1.348 . S
C1148 C1151 1.356 . S
C1148 O1204 1.325 . S
N1149 C1152 1.314 . S
N1149 C1153 1.279 . S
C1150 C1148 1.348 . S
C1150 C1152 1.353 . S
C1150 H1208 0.929 . S
C1151 C1148 1.356 . S
C1151 C1153 1.358 . S
C1151 H1209 0.930 . S
C1152 N1149 1.314 . S
C1152 C1150 1.353 . S
C1152 H1210 0.930 . S
C1153 N1149 1.279 . S
C1153 C1151 1.358 . S
C1153 H1211 0.930 . S
C1154 C1157 1.348 . S
C1154 C1158 1.356 . S
C1154 O1205 1.325 . S
C1155 N1156 1.279 . S
C1155 C1158 1.358 . S
C1155 H1212 0.930 . S
N1156 C1155 1.279 . S
N1156 C1159 1.314 . S
C1157 C1154 1.348 . S
C1157 C1159 1.353 . S
C1157 H1213 0.929 . S
C1158 C1154 1.356 . S
C1158 C1155 1.358 . S
C1158 H1214 0.930 . S
C1159 N1156 1.314 . S
C1159 C1157 1.353 . S
C1159 H1215 0.930 . S
C1160 N1161 1.314 . S
C1160 C1165 1.353 . S
C1160 H1166 0.930 . S
N1161 Li1144 1.990 . S
N1161 C1160 1.314 . S
N1161 C1163 1.279 . S
C1162 C1163 1.358 . S
C1162 C1164 1.356 . S
C1162 H1216 0.930 . S
C1163 N1161 1.279 . S
C1163 C1162 1.358 . S
C1163 H1167 0.930 . S
C1164 C1162 1.356 . S
C1164 C1165 1.348 . S
C1165 C1160 1.353 . S
C1165 C1164 1.348 . S
C1165 H1217 0.929 . S
H1166 C1160 0.930 . S
H1167 C1163 0.930 . S
C1168 N1169 1.314 . S
C1168 C1170 1.353 . S
C1168 H1174 0.930 . S
N1169 Li1145 1.990 . S
N1169 C1168 1.314 . S
N1169 C1172 1.279 . S
C1170 C1168 1.353 . S
C1170 C1173 1.348 . S
C1170 H1218 0.929 . S
C1171 C1172 1.358 . S
C1171 C1173 1.356 . S
C1171 H1219 0.930 . S
C1172 N1169 1.279 . S
C1172 C1171 1.358 . S
C1172 H1175 0.930 . S
C1173 C1170 1.348 . S
C1173 C1171 1.356 . S
H1174 C1168 0.930 . S
H1175 C1172 0.930 . S
C1176 C1178 1.348 . S
C1176 C1179 1.356 . S
C1176 O1206 1.325 . S
N1177 C1180 1.314 . S
N1177 C1181 1.279 . S
C1178 C1176 1.348 . S
C1178 C1180 1.353 . S
C1178 H1220 0.929 . S
C1179 C1176 1.356 . S
C1179 C1181 1.358 . S
C1179 H1221 0.930 . S
C1180 N1177 1.314 . S
C1180 C1178 1.353 . S
C1180 H1222 0.930 . S
C1181 N1177 1.279 . S
C1181 C1179 1.358 . S
C1181 H1223 0.930 . S
C1182 C1183 1.348 . S
C1182 C1184 1.356 . S
C1182 O1207 1.325 . S
C1183 C1182 1.348 . S
C1183 C1185 1.353 . S
C1183 H1224 0.929 . S
C1184 C1182 1.356 . S
C1184 C1186 1.358 . S
C1184 H1225 0.930 . S
C1185 C1183 1.353 . S
C1185 N1187 1.314 . S
C1185 H1226 0.930 . S
C1186 C1184 1.358 . S
C1186 N1187 1.279 . S
C1186 H1227 0.930 . S
N1187 C1185 1.314 . S
N1187 C1186 1.279 . S
C1188 C1190 1.353 . S
C1188 N1191 1.314 . S
C1188 H1194 0.930 . S
C1189 N1191 1.279 . S
C1189 C1192 1.358 . S
C1189 H1195 0.930 . S
C1190 C1188 1.353 . S
C1190 C1193 1.348 . S
C1190 H1228 0.929 . S
N1191 Li1146 1.990 . S
N1191 C1188 1.314 . S
N1191 C1189 1.279 . S
C1192 C1189 1.358 . S
C1192 C1193 1.356 . S
C1192 H1229 0.930 . S
C1193 C1190 1.348 . S
C1193 C1192 1.356 . S
H1194 C1188 0.930 . S
H1195 C1189 0.930 . S
C1196 N1197 1.314 . S
C1196 C1198 1.353 . S
C1196 H1202 0.930 . S
N1197 Li1147 1.990 . S
N1197 C1196 1.314 . S
N1197 C1200 1.279 . S
C1198 C1196 1.353 . S
C1198 C1201 1.348 . S
C1198 H1230 0.929 . S
C1199 C1200 1.358 . S
C1199 C1201 1.356 . S
C1199 H1231 0.930 . S
C1200 N1197 1.279 . S
C1200 C1199 1.358 . S
C1200 H1203 0.930 . S
C1201 C1198 1.348 . S
C1201 C1199 1.356 . S
H1202 C1196 0.930 . S
H1203 C1200 0.930 . S
O1204 Li1144 1.956 . S
O1204 Li1145 1.970 . S
O1204 Li1146 1.961 . S
O1204 C1148 1.325 . S
O1205 Li1144 1.970 . S
O1205 Li1145 1.956 . S
O1205 Li1147 1.961 . S
O1205 C1154 1.325 . S
O1206 Li1144 1.961 . S
O1206 Li1146 1.956 . S
O1206 Li1147 1.970 . S
O1206 C1176 1.325 . S
O1207 Li1145 1.961 . S
O1207 Li1146 1.970 . S
O1207 Li1147 1.956 . S
O1207 C1182 1.325 . S
H1208 C1150 0.929 . S
H1209 C1151 0.930 . S
H1210 C1152 0.930 . S
H1211 C1153 0.930 . S
H1212 C1155 0.930 . S
H1213 C1157 0.929 . S
H1214 C1158 0.930 . S
H1215 C1159 0.930 . S
H1216 C1162 0.930 . S
H1217 C1165 0.929 . S
H1218 C1170 0.929 . S
H1219 C1171 0.930 . S
H1220 C1178 0.929 . S
H1221 C1179 0.930 . S
H1222 C1180 0.930 . S
H1223 C1181 0.930 . S
H1224 C1183 0.929 . S
H1225 C1184 0.930 . S
H1226 C1185 0.930 . S
H1227 C1186 0.930 . S
H1228 C1190 0.929 . S
H1229 C1192 0.930 . S
H1230 C1198 0.929 . S
H1231 C1199 0.930 . S
H1232 C1240 0.950 . S
H1233 C1245 0.950 . S
H1234 C1242 0.950 . S
H1235 C1244 0.950 . S
H1236 C1246 0.950 . S
H1237 C1248 0.950 . S
H1238 C1250 0.950 . S
H1239 C1251 0.950 . S
C1240 H1232 0.950 . S
C1240 C1241 1.386 . S
C1240 C1242 1.391 . S
C1241 C1240 1.386 . S
C1241 C1245 1.393 . S
C1242 H1234 0.950 . S
C1242 C1240 1.391 . S
C1242 C1243 1.400 . S
C1243 C1242 1.400 . S
C1243 C1244 1.398 . S
C1243 C1249 1.491 . S
C1244 H1235 0.950 . S
C1244 C1243 1.398 . S
C1244 C1245 1.391 . S
C1245 H1233 0.950 . S
C1245 C1241 1.393 . S
C1245 C1244 1.391 . S
C1246 H1236 0.950 . S
C1246 C1247 1.386 . S
C1246 C1248 1.391 . S
C1247 C1246 1.386 . S
C1247 C1251 1.393 . S
C1248 H1237 0.950 . S
C1248 C1246 1.391 . S
C1248 C1249 1.400 . S
C1249 C1243 1.491 . S
C1249 C1248 1.400 . S
C1249 C1250 1.398 . S
C1250 H1238 0.950 . S
C1250 C1249 1.398 . S
C1250 C1251 1.391 . S
C1251 H1239 0.950 . S
C1251 C1247 1.393 . S
C1251 C1250 1.391 . S
H1252 C1260 0.950 1_655 S
H1253 C1265 0.950 . S
H1254 C1262 0.950 . S
H1255 C1264 0.950 . S
H1256 C1266 0.950 . S
H1257 C1268 0.950 . S
H1258 C1270 0.950 . S
H1259 C1271 0.950 . S
C1260 H1252 0.950 1_455 S
C1260 C1261 1.386 . S
C1260 C1262 1.391 . S
C1261 C1260 1.386 . S
C1261 C1265 1.393 . S
C1262 H1254 0.950 . S
C1262 C1260 1.391 . S
C1262 C1263 1.400 . S
C1263 C1262 1.400 . S
C1263 C1264 1.398 . S
C1263 C1269 1.491 . S
C1264 H1255 0.950 . S
C1264 C1263 1.398 . S
C1264 C1265 1.391 . S
C1265 H1253 0.950 . S
C1265 C1261 1.393 . S
C1265 C1264 1.391 . S
C1266 H1256 0.950 . S
C1266 C1267 1.386 . S
C1266 C1268 1.391 . S
C1267 C1266 1.386 . S
C1267 C1271 1.393 . S
C1268 H1257 0.950 . S
C1268 C1266 1.391 . S
C1268 C1269 1.400 . S
C1269 C1263 1.491 . S
C1269 C1268 1.400 . S
C1269 C1270 1.398 . S
C1270 H1258 0.950 . S
C1270 C1269 1.398 . S
C1270 C1271 1.391 . S
C1271 H1259 0.950 . S
C1271 C1267 1.393 . S
C1271 C1270 1.391 . S
H1272 C1280 0.950 . S
H1273 C1285 0.950 . S
H1274 C1282 0.950 . S
H1275 C1284 0.950 . S
H1276 C1286 0.950 . S
H1277 C1288 0.950 . S
H1278 C1290 0.950 . S
H1279 C1291 0.950 . S
C1280 H1272 0.950 . S
C1280 C1281 1.386 . S
C1280 C1282 1.391 . S
C1281 C1280 1.386 . S
C1281 C1285 1.393 . S
C1282 H1274 0.950 . S
C1282 C1280 1.391 . S
C1282 C1283 1.400 . S
C1283 C1282 1.400 . S
C1283 C1284 1.398 . S
C1283 C1289 1.491 . S
C1284 H1275 0.950 . S
C1284 C1283 1.398 . S
C1284 C1285 1.391 . S
C1285 H1273 0.950 . S
C1285 C1281 1.393 . S
C1285 C1284 1.391 . S
C1286 H1276 0.950 . S
C1286 C1287 1.386 . S
C1286 C1288 1.391 . S
C1287 C1286 1.386 . S
C1287 C1291 1.393 . S
C1288 H1277 0.950 . S
C1288 C1286 1.391 . S
C1288 C1289 1.400 . S
C1289 C1283 1.491 . S
C1289 C1288 1.400 . S
C1289 C1290 1.398 . S
C1290 H1278 0.950 . S
C1290 C1289 1.398 . S
C1290 C1291 1.391 . S
C1291 H1279 0.950 . S
C1291 C1287 1.393 . S
C1291 C1290 1.391 . S
H1292 C1300 0.950 . S
H1293 C1305 0.950 . S
H1294 C1302 0.950 . S
H1295 C1304 0.950 . S
H1296 C1306 0.950 . S
H1297 C1308 0.950 . S
H1298 C1310 0.950 . S
H1299 C1311 0.950 . S
C1300 H1292 0.950 . S
C1300 C1301 1.386 . S
C1300 C1302 1.391 1_455 S
C1301 C1300 1.386 . S
C1301 C1305 1.393 1_465 S
C1302 H1294 0.950 . S
C1302 C1300 1.391 1_655 S
C1302 C1303 1.400 . S
C1303 C1302 1.400 . S
C1303 C1304 1.398 1_565 S
C1303 C1309 1.491 1_565 S
C1304 H1295 0.950 . S
C1304 C1303 1.398 1_545 S
C1304 C1305 1.391 . S
C1305 H1293 0.950 . S
C1305 C1301 1.393 1_645 S
C1305 C1304 1.391 . S
C1306 H1296 0.950 . S
C1306 C1307 1.386 . S
C1306 C1308 1.391 . S
C1307 C1306 1.386 . S
C1307 C1311 1.393 1_545 S
C1308 H1297 0.950 . S
C1308 C1306 1.391 . S
C1308 C1309 1.400 . S
C1309 C1303 1.491 1_545 S
C1309 C1308 1.400 . S
C1309 C1310 1.398 1_545 S
C1310 H1298 0.950 . S
C1310 C1309 1.398 1_565 S
C1310 C1311 1.391 . S
C1311 H1299 0.950 . S
C1311 C1307 1.393 1_565 S
C1311 C1310 1.391 . S
H1312 C1320 0.950 . S
H1313 C1325 0.950 . S
H1314 C1322 0.950 . S
H1315 C1324 0.950 . S
H1316 C1326 0.950 . S
H1317 C1328 0.950 . S
H1318 C1330 0.950 . S
H1319 C1331 0.950 . S
C1320 H1312 0.950 . S
C1320 C1321 1.386 . S
C1320 C1322 1.391 . S
C1321 C1320 1.386 . S
C1321 C1325 1.393 . S
C1322 H1314 0.950 . S
C1322 C1320 1.391 . S
C1322 C1323 1.400 . S
C1323 C1322 1.400 . S
C1323 C1324 1.398 . S
C1323 C1329 1.491 . S
C1324 H1315 0.950 . S
C1324 C1323 1.398 . S
C1324 C1325 1.391 . S
C1325 H1313 0.950 . S
C1325 C1321 1.393 . S
C1325 C1324 1.391 . S
C1326 H1316 0.950 . S
C1326 C1327 1.386 . S
C1326 C1328 1.391 . S
C1327 C1326 1.386 . S
C1327 C1331 1.393 . S
C1328 H1317 0.950 . S
C1328 C1326 1.391 . S
C1328 C1329 1.400 . S
C1329 C1323 1.491 . S
C1329 C1328 1.400 . S
C1329 C1330 1.398 . S
C1330 H1318 0.950 . S
C1330 C1329 1.398 . S
C1330 C1331 1.391 . S
C1331 H1319 0.950 . S
C1331 C1327 1.393 . S
C1331 C1330 1.391 . S
H1332 C1340 0.950 . S
H1333 C1345 0.950 . S
H1334 C1342 0.950 . S
H1335 C1344 0.950 . S
H1336 C1346 0.950 . S
H1337 C1348 0.950 . S
H1338 C1350 0.950 . S
H1339 C1351 0.950 . S
C1340 H1332 0.950 . S
C1340 C1341 1.386 . S
C1340 C1342 1.391 . S
C1341 C1340 1.386 . S
C1341 C1345 1.393 . S
C1342 H1334 0.950 . S
C1342 C1340 1.391 . S
C1342 C1343 1.400 . S
C1343 C1342 1.400 . S
C1343 C1344 1.398 . S
C1343 C1349 1.491 . S
C1344 H1335 0.950 . S
C1344 C1343 1.398 . S
C1344 C1345 1.391 . S
C1345 H1333 0.950 . S
C1345 C1341 1.393 . S
C1345 C1344 1.391 . S
C1346 H1336 0.950 . S
C1346 C1347 1.386 . S
C1346 C1348 1.391 . S
C1347 C1346 1.386 . S
C1347 C1351 1.393 . S
C1348 H1337 0.950 . S
C1348 C1346 1.391 . S
C1348 C1349 1.400 . S
C1349 C1343 1.491 . S
C1349 C1348 1.400 . S
C1349 C1350 1.398 . S
C1350 H1338 0.950 . S
C1350 C1349 1.398 . S
C1350 C1351 1.391 . S
C1351 H1339 0.950 . S
C1351 C1347 1.393 . S
C1351 C1350 1.391 . S
H1352 C1360 0.950 . S
H1353 C1365 0.950 . S
H1354 C1362 0.950 . S
H1355 C1364 0.950 . S
H1356 C1366 0.950 . S
H1357 C1368 0.950 . S
H1358 C1370 0.950 . S
H1359 C1371 0.950 . S
C1360 H1352 0.950 . S
C1360 C1361 1.386 . S
C1360 C1362 1.391 . S
C1361 C1360 1.386 . S
C1361 C1365 1.393 . S
C1362 H1354 0.950 . S
C1362 C1360 1.391 . S
C1362 C1363 1.400 . S
C1363 C1362 1.400 . S
C1363 C1364 1.398 . S
C1363 C1369 1.491 . S
C1364 H1355 0.950 . S
C1364 C1363 1.398 . S
C1364 C1365 1.391 . S
C1365 H1353 0.950 . S
C1365 C1361 1.393 . S
C1365 C1364 1.391 . S
C1366 H1356 0.950 . S
C1366 C1367 1.386 . S
C1366 C1368 1.391 . S
C1367 C1366 1.386 . S
C1367 C1371 1.393 . S
C1368 H1357 0.950 . S
C1368 C1366 1.391 . S
C1368 C1369 1.400 . S
C1369 C1363 1.491 . S
C1369 C1368 1.400 . S
C1369 C1370 1.398 . S
C1370 H1358 0.950 . S
C1370 C1369 1.398 . S
C1370 C1371 1.391 . S
C1371 H1359 0.950 . S
C1371 C1367 1.393 . S
C1371 C1370 1.391 . S
H1372 C1380 0.950 . S
H1373 C1385 0.950 . S
H1374 C1382 0.950 . S
H1375 C1384 0.950 . S
H1376 C1386 0.950 . S
H1377 C1388 0.950 . S
H1378 C1390 0.950 . S
H1379 C1391 0.950 . S
C1380 H1372 0.950 . S
C1380 C1381 1.386 . S
C1380 C1382 1.391 . S
C1381 C1380 1.386 . S
C1381 C1385 1.393 . S
C1382 H1374 0.950 . S
C1382 C1380 1.391 . S
C1382 C1383 1.400 . S
C1383 C1382 1.400 . S
C1383 C1384 1.398 . S
C1383 C1389 1.491 . S
C1384 H1375 0.950 . S
C1384 C1383 1.398 . S
C1384 C1385 1.391 . S
C1385 H1373 0.950 . S
C1385 C1381 1.393 . S
C1385 C1384 1.391 . S
C1386 H1376 0.950 . S
C1386 C1387 1.386 . S
C1386 C1388 1.391 . S
C1387 C1386 1.386 . S
C1387 C1391 1.393 . S
C1388 H1377 0.950 . S
C1388 C1386 1.391 . S
C1388 C1389 1.400 . S
C1389 C1383 1.491 . S
C1389 C1388 1.400 . S
C1389 C1390 1.398 . S
C1390 H1378 0.950 . S
C1390 C1389 1.398 . S
C1390 C1391 1.391 . S
C1391 H1379 0.950 . S
C1391 C1387 1.393 . S
C1391 C1390 1.391 . S
H1392 C1400 0.950 . S
H1393 C1405 0.950 . S
H1394 C1402 0.950 . S
H1395 C1404 0.950 . S
H1396 C1406 0.950 . S
H1397 C1408 0.950 . S
H1398 C1410 0.950 . S
H1399 C1411 0.950 . S
C1400 H1392 0.950 . S
C1400 C1401 1.386 . S
C1400 C1402 1.391 . S
C1401 C1400 1.386 . S
C1401 C1405 1.393 . S
C1402 H1394 0.950 . S
C1402 C1400 1.391 . S
C1402 C1403 1.400 . S
C1403 C1402 1.400 . S
C1403 C1404 1.398 . S
C1403 C1409 1.491 . S
C1404 H1395 0.950 . S
C1404 C1403 1.398 . S
C1404 C1405 1.391 . S
C1405 H1393 0.950 . S
C1405 C1401 1.393 . S
C1405 C1404 1.391 . S
C1406 H1396 0.950 . S
C1406 C1407 1.386 . S
C1406 C1408 1.391 . S
C1407 C1406 1.386 . S
C1407 C1411 1.393 . S
C1408 H1397 0.950 . S
C1408 C1406 1.391 . S
C1408 C1409 1.400 . S
C1409 C1403 1.491 . S
C1409 C1408 1.400 . S
C1409 C1410 1.398 . S
C1410 H1398 0.950 . S
C1410 C1409 1.398 . S
C1410 C1411 1.391 . S
C1411 H1399 0.950 . S
C1411 C1407 1.393 . S
C1411 C1410 1.391 . S
H1412 C1420 0.950 . S
H1413 C1425 0.950 . S
H1414 C1422 0.950 . S
H1415 C1424 0.950 . S
H1416 C1426 0.950 . S
H1417 C1428 0.950 . S
H1418 C1430 0.950 . S
H1419 C1431 0.950 . S
C1420 H1412 0.950 . S
C1420 C1421 1.386 . S
C1420 C1422 1.391 . S
C1421 C1420 1.386 . S
C1421 C1425 1.393 . S
C1422 H1414 0.950 . S
C1422 C1420 1.391 . S
C1422 C1423 1.400 . S
C1423 C1422 1.400 . S
C1423 C1424 1.398 . S
C1423 C1429 1.491 . S
C1424 H1415 0.950 . S
C1424 C1423 1.398 . S
C1424 C1425 1.391 . S
C1425 H1413 0.950 . S
C1425 C1421 1.393 . S
C1425 C1424 1.391 . S
C1426 H1416 0.950 . S
C1426 C1427 1.386 . S
C1426 C1428 1.391 . S
C1427 C1426 1.386 . S
C1427 C1431 1.393 . S
C1428 H1417 0.950 . S
C1428 C1426 1.391 . S
C1428 C1429 1.400 . S
C1429 C1423 1.491 . S
C1429 C1428 1.400 . S
C1429 C1430 1.398 . S
C1430 H1418 0.950 . S
C1430 C1429 1.398 . S
C1430 C1431 1.391 . S
C1431 H1419 0.950 . S
C1431 C1427 1.393 . S
C1431 C1430 1.391 . S
H1432 C1440 0.950 . S
H1433 C1445 0.950 . S
H1434 C1442 0.950 . S
H1435 C1444 0.950 . S
H1436 C1446 0.950 . S
H1437 C1448 0.950 . S
H1438 C1450 0.950 . S
H1439 C1451 0.950 . S
C1440 H1432 0.950 . S
C1440 C1441 1.386 . S
C1440 C1442 1.391 . S
C1441 C1440 1.386 . S
C1441 C1445 1.393 . S
C1442 H1434 0.950 . S
C1442 C1440 1.391 . S
C1442 C1443 1.400 . S
C1443 C1442 1.400 . S
C1443 C1444 1.398 . S
C1443 C1449 1.491 . S
C1444 H1435 0.950 . S
C1444 C1443 1.398 . S
C1444 C1445 1.391 . S
C1445 H1433 0.950 . S
C1445 C1441 1.393 . S
C1445 C1444 1.391 . S
C1446 H1436 0.950 . S
C1446 C1447 1.386 . S
C1446 C1448 1.391 . S
C1447 C1446 1.386 . S
C1447 C1451 1.393 . S
C1448 H1437 0.950 . S
C1448 C1446 1.391 . S
C1448 C1449 1.400 . S
C1449 C1443 1.491 . S
C1449 C1448 1.400 . S
C1449 C1450 1.398 . S
C1450 H1438 0.950 . S
C1450 C1449 1.398 . S
C1450 C1451 1.391 . S
C1451 H1439 0.950 . S
C1451 C1447 1.393 . S
C1451 C1450 1.391 . S
H1452 C1460 0.950 . S
H1453 C1465 0.950 . S
H1454 C1462 0.950 . S
H1455 C1464 0.950 . S
H1456 C1466 0.950 . S
H1457 C1468 0.950 . S
H1458 C1470 0.950 . S
H1459 C1471 0.950 . S
C1460 H1452 0.950 . S
C1460 C1461 1.386 . S
C1460 C1462 1.391 . S
C1461 C1460 1.386 . S
C1461 C1465 1.393 . S
C1462 H1454 0.950 . S
C1462 C1460 1.391 . S
C1462 C1463 1.400 . S
C1463 C1462 1.400 . S
C1463 C1464 1.398 . S
C1463 C1469 1.491 . S
C1464 H1455 0.950 . S
C1464 C1463 1.398 . S
C1464 C1465 1.391 . S
C1465 H1453 0.950 . S
C1465 C1461 1.393 . S
C1465 C1464 1.391 . S
C1466 H1456 0.950 . S
C1466 C1467 1.386 . S
C1466 C1468 1.391 . S
C1467 C1466 1.386 . S
C1467 C1471 1.393 . S
C1468 H1457 0.950 . S
C1468 C1466 1.391 . S
C1468 C1469 1.400 . S
C1469 C1463 1.491 . S
C1469 C1468 1.400 . S
C1469 C1470 1.398 . S
C1470 H1458 0.950 . S
C1470 C1469 1.398 . S
C1470 C1471 1.391 . S
C1471 H1459 0.950 . S
C1471 C1467 1.393 . S
C1471 C1470 1.391 . S
H1472 C1480 0.950 . S
H1473 C1485 0.950 . S
H1474 C1482 0.950 . S
H1475 C1484 0.950 . S
H1476 C1486 0.950 . S
H1477 C1488 0.950 . S
H1478 C1490 0.950 . S
H1479 C1491 0.950 . S
C1480 H1472 0.950 . S
C1480 C1481 1.386 . S
C1480 C1482 1.391 . S
C1481 C1480 1.386 . S
C1481 C1485 1.393 . S
C1482 H1474 0.950 . S
C1482 C1480 1.391 . S
C1482 C1483 1.400 . S
C1483 C1482 1.400 . S
C1483 C1484 1.398 . S
C1483 C1489 1.491 . S
C1484 H1475 0.950 . S
C1484 C1483 1.398 . S
C1484 C1485 1.391 . S
C1485 H1473 0.950 . S
C1485 C1481 1.393 . S
C1485 C1484 1.391 . S
C1486 H1476 0.950 . S
C1486 C1487 1.386 . S
C1486 C1488 1.391 . S
C1487 C1486 1.386 . S
C1487 C1491 1.393 . S
C1488 H1477 0.950 . S
C1488 C1486 1.391 . S
C1488 C1489 1.400 . S
C1489 C1483 1.491 . S
C1489 C1488 1.400 . S
C1489 C1490 1.398 . S
C1490 H1478 0.950 . S
C1490 C1489 1.398 . S
C1490 C1491 1.391 . S
C1491 H1479 0.950 . S
C1491 C1487 1.393 . S
C1491 C1490 1.391 . S
H1492 C1500 0.950 . S
H1493 C1505 0.950 . S
H1494 C1502 0.950 . S
H1495 C1504 0.950 . S
H1496 C1506 0.950 . S
H1497 C1508 0.950 . S
H1498 C1510 0.950 . S
H1499 C1511 0.950 . S
C1500 H1492 0.950 . S
C1500 C1501 1.386 . S
C1500 C1502 1.391 . S
C1501 C1500 1.386 . S
C1501 C1505 1.393 . S
C1502 H1494 0.950 . S
C1502 C1500 1.391 . S
C1502 C1503 1.400 . S
C1503 C1502 1.400 . S
C1503 C1504 1.398 . S
C1503 C1509 1.491 . S
C1504 H1495 0.950 . S
C1504 C1503 1.398 . S
C1504 C1505 1.391 . S
C1505 H1493 0.950 . S
C1505 C1501 1.393 . S
C1505 C1504 1.391 . S
C1506 H1496 0.950 . S
C1506 C1507 1.386 . S
C1506 C1508 1.391 . S
C1507 C1506 1.386 . S
C1507 C1511 1.393 . S
C1508 H1497 0.950 . S
C1508 C1506 1.391 . S
C1508 C1509 1.400 . S
C1509 C1503 1.491 . S
C1509 C1508 1.400 . S
C1509 C1510 1.398 . S
C1510 H1498 0.950 . S
C1510 C1509 1.398 . S
C1510 C1511 1.391 . S
C1511 H1499 0.950 . S
C1511 C1507 1.393 . S
C1511 C1510 1.391 . S
H1512 C1520 0.950 . S
H1513 C1525 0.950 . S
H1514 C1522 0.950 . S
H1515 C1524 0.950 . S
H1516 C1526 0.950 . S
H1517 C1528 0.950 . S
H1518 C1530 0.950 . S
H1519 C1531 0.950 . S
C1520 H1512 0.950 . S
C1520 C1521 1.386 . S
C1520 C1522 1.391 . S
C1521 C1520 1.386 . S
C1521 C1525 1.393 . S
C1522 H1514 0.950 . S
C1522 C1520 1.391 . S
C1522 C1523 1.400 . S
C1523 C1522 1.400 . S
C1523 C1524 1.398 . S
C1523 C1529 1.491 . S
C1524 H1515 0.950 . S
C1524 C1523 1.398 . S
C1524 C1525 1.391 . S
C1525 H1513 0.950 . S
C1525 C1521 1.393 . S
C1525 C1524 1.391 . S
C1526 H1516 0.950 . S
C1526 C1527 1.386 . S
C1526 C1528 1.391 . S
C1527 C1526 1.386 . S
C1527 C1531 1.393 . S
C1528 H1517 0.950 . S
C1528 C1526 1.391 . S
C1528 C1529 1.400 . S
C1529 C1523 1.491 . S
C1529 C1528 1.400 . S
C1529 C1530 1.398 . S
C1530 H1518 0.950 . S
C1530 C1529 1.398 . S
C1530 C1531 1.391 . S
C1531 H1519 0.950 . S
C1531 C1527 1.393 . S
C1531 C1530 1.391 . S
H1532 C1540 0.950 . S
H1533 C1545 0.950 . S
H1534 C1542 0.950 . S
H1535 C1544 0.950 . S
H1536 C1546 0.950 . S
H1537 C1548 0.950 . S
H1538 C1550 0.950 . S
H1539 C1551 0.950 . S
C1540 H1532 0.950 . S
C1540 C1541 1.386 1_455 S
C1540 C1542 1.391 . S
C1541 C1540 1.386 1_655 S
C1541 C1545 1.393 . S
C1542 H1534 0.950 . S
C1542 C1540 1.391 . S
C1542 C1543 1.364 1_455 S
C1543 C1542 1.364 1_655 S
C1543 C1544 1.433 . S
C1543 C1549 1.498 1_655 S
C1544 H1535 0.950 . S
C1544 C1543 1.433 . S
C1544 C1545 1.391 . S
C1545 H1533 0.950 . S
C1545 C1541 1.393 . S
C1545 C1544 1.391 . S
C1546 H1536 0.950 . S
C1546 C1547 1.386 1_655 S
C1546 C1548 1.391 . S
C1547 C1546 1.386 1_455 S
C1547 C1551 1.393 . S
C1548 H1537 0.950 . S
C1548 C1546 1.391 . S
C1548 C1549 1.372 1_655 S
C1549 C1543 1.498 1_455 S
C1549 C1548 1.372 1_455 S
C1549 C1550 1.426 . S
C1550 H1538 0.950 . S
C1550 C1549 1.426 . S
C1550 C1551 1.391 . S
C1551 H1539 0.950 . S
C1551 C1547 1.393 . S
C1551 C1550 1.391 . S
H1552 C1560 0.950 . S
H1553 C1565 0.950 . S
H1554 C1562 0.950 . S
H1555 C1564 0.950 . S
H1556 C1566 0.950 . S
H1557 C1568 0.950 . S
H1558 C1570 0.950 . S
H1559 C1571 0.950 . S
C1560 H1552 0.950 . S
C1560 C1561 1.386 . S
C1560 C1562 1.391 . S
C1561 C1560 1.386 . S
C1561 C1565 1.393 . S
C1562 H1554 0.950 . S
C1562 C1560 1.391 . S
C1562 C1563 1.400 . S
C1563 C1562 1.400 . S
C1563 C1564 1.398 . S
C1563 C1569 1.491 . S
C1564 H1555 0.950 . S
C1564 C1563 1.398 . S
C1564 C1565 1.391 . S
C1565 H1553 0.950 . S
C1565 C1561 1.393 . S
C1565 C1564 1.391 . S
C1566 H1556 0.950 . S
C1566 C1567 1.386 . S
C1566 C1568 1.391 . S
C1567 C1566 1.386 . S
C1567 C1571 1.393 . S
C1568 H1557 0.950 . S
C1568 C1566 1.391 . S
C1568 C1569 1.400 . S
C1569 C1563 1.491 . S
C1569 C1568 1.400 . S
C1569 C1570 1.398 . S
C1570 H1558 0.950 . S
C1570 C1569 1.398 . S
C1570 C1571 1.391 . S
C1571 H1559 0.950 . S
C1571 C1567 1.393 . S
C1571 C1570 1.391 . S
H1572 C1580 0.950 . S
H1573 C1585 0.950 . S
H1574 C1582 0.950 . S
H1575 C1584 0.950 . S
H1576 C1586 0.950 . S
H1577 C1588 0.950 . S
H1578 C1590 0.950 . S
H1579 C1591 0.950 . S
C1580 H1572 0.950 . S
C1580 C1581 1.386 . S
C1580 C1582 1.391 . S
C1581 C1580 1.386 . S
C1581 C1585 1.393 . S
C1582 H1574 0.950 . S
C1582 C1580 1.391 . S
C1582 C1583 1.400 . S
C1583 C1582 1.400 . S
C1583 C1584 1.398 . S
C1583 C1589 1.491 . S
C1584 H1575 0.950 . S
C1584 C1583 1.398 . S
C1584 C1585 1.391 . S
C1585 H1573 0.950 . S
C1585 C1581 1.393 . S
C1585 C1584 1.391 . S
C1586 H1576 0.950 . S
C1586 C1587 1.386 . S
C1586 C1588 1.391 . S
C1587 C1586 1.386 . S
C1587 C1591 1.393 . S
C1588 H1577 0.950 . S
C1588 C1586 1.391 . S
C1588 C1589 1.400 . S
C1589 C1583 1.491 . S
C1589 C1588 1.400 . S
C1589 C1590 1.398 . S
C1590 H1578 0.950 . S
C1590 C1589 1.398 . S
C1590 C1591 1.391 . S
C1591 H1579 0.950 . S
C1591 C1587 1.393 . S
C1591 C1590 1.391 . S
H1592 C1600 0.950 . S
H1593 C1605 0.950 1_545 S
H1594 C1602 0.950 . S
H1595 C1604 0.950 . S
H1596 C1606 0.950 . S
H1597 C1608 0.950 . S
H1598 C1610 0.950 . S
H1599 C1611 0.950 . S
C1600 H1592 0.950 . S
C1600 C1601 1.386 1_556 S
C1600 C1602 1.391 . S
C1601 C1600 1.386 1_554 S
C1601 C1605 1.393 . S
C1602 H1594 0.950 . S
C1602 C1600 1.391 . S
C1602 C1603 1.364 1_556 S
C1603 C1602 1.364 1_554 S
C1603 C1604 1.433 . S
C1603 C1609 1.493 . S
C1604 H1595 0.950 . S
C1604 C1603 1.433 . S
C1604 C1605 1.391 . S
C1605 H1593 0.950 1_565 S
C1605 C1601 1.393 . S
C1605 C1604 1.391 . S
C1606 H1596 0.950 . S
C1606 C1607 1.383 . S
C1606 C1608 1.391 . S
C1607 C1606 1.383 . S
C1607 C1611 1.396 1_554 S
C1608 H1597 0.950 . S
C1608 C1606 1.391 . S
C1608 C1609 1.411 . S
C1609 C1603 1.493 . S
C1609 C1608 1.411 . S
C1609 C1610 1.389 1_554 S
C1610 H1598 0.950 . S
C1610 C1609 1.389 1_556 S
C1610 C1611 1.391 . S
C1611 H1599 0.950 . S
C1611 C1607 1.396 1_556 S
C1611 C1610 1.391 . S
H1612 C1620 0.950 . S
H1613 C1625 0.950 . S
H1614 C1622 0.950 . S
H1615 C1624 0.950 . S
H1616 C1626 0.950 . S
H1617 C1628 0.950 . S
H1618 C1630 0.950 . S
H1619 C1631 0.950 . S
C1620 H1612 0.950 . S
C1620 C1621 1.386 . S
C1620 C1622 1.391 . S
C1621 C1620 1.386 . S
C1621 C1625 1.393 . S
C1622 H1614 0.950 . S
C1622 C1620 1.391 . S
C1622 C1623 1.400 . S
C1623 C1622 1.400 . S
C1623 C1624 1.398 . S
C1623 C1629 1.491 . S
C1624 H1615 0.950 . S
C1624 C1623 1.398 . S
C1624 C1625 1.391 . S
C1625 H1613 0.950 . S
C1625 C1621 1.393 . S
C1625 C1624 1.391 . S
C1626 H1616 0.950 . S
C1626 C1627 1.386 . S
C1626 C1628 1.391 . S
C1627 C1626 1.386 . S
C1627 C1631 1.393 . S
C1628 H1617 0.950 . S
C1628 C1626 1.391 . S
C1628 C1629 1.400 . S
C1629 C1623 1.491 . S
C1629 C1628 1.400 . S
C1629 C1630 1.398 . S
C1630 H1618 0.950 . S
C1630 C1629 1.398 . S
C1630 C1631 1.391 . S
C1631 H1619 0.950 . S
C1631 C1627 1.393 . S
C1631 C1630 1.391 . S
H1632 C1640 0.950 . S
H1633 C1645 0.950 1_565 S
H1634 C1642 0.950 . S
H1635 C1644 0.950 . S
H1636 C1646 0.950 . S
H1637 C1648 0.950 . S
H1638 C1650 0.950 . S
H1639 C1651 0.950 . S
C1640 H1632 0.950 . S
C1640 C1641 1.386 . S
C1640 C1642 1.391 . S
C1641 C1640 1.386 . S
C1641 C1645 1.393 . S
C1642 H1634 0.950 . S
C1642 C1640 1.391 . S
C1642 C1643 1.400 . S
C1643 C1642 1.400 . S
C1643 C1644 1.398 . S
C1643 C1649 1.491 . S
C1644 H1635 0.950 . S
C1644 C1643 1.398 . S
C1644 C1645 1.391 . S
C1645 H1633 0.950 1_545 S
C1645 C1641 1.393 . S
C1645 C1644 1.391 . S
C1646 H1636 0.950 . S
C1646 C1647 1.386 . S
C1646 C1648 1.391 . S
C1647 C1646 1.386 . S
C1647 C1651 1.393 . S
C1648 H1637 0.950 . S
C1648 C1646 1.391 . S
C1648 C1649 1.400 . S
C1649 C1643 1.491 . S
C1649 C1648 1.400 . S
C1649 C1650 1.398 . S
C1650 H1638 0.950 . S
C1650 C1649 1.398 . S
C1650 C1651 1.391 . S
C1651 H1639 0.950 . S
C1651 C1647 1.393 . S
C1651 C1650 1.391 . S
H1652 C1660 0.950 . S
H1653 C1665 0.950 . S
H1654 C1662 0.950 . S
H1655 C1664 0.950 . S
H1656 C1666 0.950 . S
H1657 C1668 0.950 . S
H1658 C1670 0.950 . S
H1659 C1671 0.950 . S
C1660 H1652 0.950 . S
C1660 C1661 1.386 . S
C1660 C1662 1.391 . S
C1661 C1660 1.386 . S
C1661 C1665 1.393 . S
C1662 H1654 0.950 . S
C1662 C1660 1.391 . S
C1662 C1663 1.400 . S
C1663 C1662 1.400 . S
C1663 C1664 1.398 . S
C1663 C1669 1.491 . S
C1664 H1655 0.950 . S
C1664 C1663 1.398 . S
C1664 C1665 1.391 . S
C1665 H1653 0.950 . S
C1665 C1661 1.393 . S
C1665 C1664 1.391 . S
C1666 H1656 0.950 . S
C1666 C1667 1.386 . S
C1666 C1668 1.391 . S
C1667 C1666 1.386 . S
C1667 C1671 1.393 . S
C1668 H1657 0.950 . S
C1668 C1666 1.391 . S
C1668 C1669 1.400 . S
C1669 C1663 1.491 . S
C1669 C1668 1.400 . S
C1669 C1670 1.398 . S
C1670 H1658 0.950 . S
C1670 C1669 1.398 . S
C1670 C1671 1.391 . S
C1671 H1659 0.950 . S
C1671 C1667 1.393 . S
C1671 C1670 1.391 . S
H1672 C1680 0.950 . S
H1673 C1685 0.950 . S
H1674 C1682 0.950 . S
H1675 C1684 0.950 . S
H1676 C1686 0.950 . S
H1677 C1688 0.950 . S
H1678 C1690 0.950 . S
H1679 C1691 0.950 . S
C1680 H1672 0.950 . S
C1680 C1681 1.386 . S
C1680 C1682 1.391 . S
C1681 C1680 1.386 . S
C1681 C1685 1.393 . S
C1682 H1674 0.950 . S
C1682 C1680 1.391 . S
C1682 C1683 1.400 . S
C1683 C1682 1.400 . S
C1683 C1684 1.398 . S
C1683 C1689 1.491 . S
C1684 H1675 0.950 . S
C1684 C1683 1.398 . S
C1684 C1685 1.391 . S
C1685 H1673 0.950 . S
C1685 C1681 1.393 . S
C1685 C1684 1.391 . S
C1686 H1676 0.950 . S
C1686 C1687 1.386 . S
C1686 C1688 1.391 . S
C1687 C1686 1.386 . S
C1687 C1691 1.393 . S
C1688 H1677 0.950 . S
C1688 C1686 1.391 . S
C1688 C1689 1.400 . S
C1689 C1683 1.491 . S
C1689 C1688 1.400 . S
C1689 C1690 1.398 . S
C1690 H1678 0.950 . S
C1690 C1689 1.398 . S
C1690 C1691 1.391 . S
C1691 H1679 0.950 . S
C1691 C1687 1.393 . S
C1691 C1690 1.391 . S
H1692 C1700 0.950 . S
H1693 C1705 0.950 . S
H1694 C1702 0.950 . S
H1695 C1704 0.950 . S
H1696 C1706 0.950 . S
H1697 C1708 0.950 . S
H1698 C1710 0.950 . S
H1699 C1711 0.950 . S
C1700 H1692 0.950 . S
C1700 C1701 1.386 . S
C1700 C1702 1.391 . S
C1701 C1700 1.386 . S
C1701 C1705 1.393 . S
C1702 H1694 0.950 . S
C1702 C1700 1.391 . S
C1702 C1703 1.400 . S
C1703 C1702 1.400 . S
C1703 C1704 1.398 . S
C1703 C1709 1.491 . S
C1704 H1695 0.950 . S
C1704 C1703 1.398 . S
C1704 C1705 1.391 . S
C1705 H1693 0.950 . S
C1705 C1701 1.393 . S
C1705 C1704 1.391 . S
C1706 H1696 0.950 . S
C1706 C1707 1.386 . S
C1706 C1708 1.391 . S
C1707 C1706 1.386 . S
C1707 C1711 1.393 . S
C1708 H1697 0.950 . S
C1708 C1706 1.391 . S
C1708 C1709 1.400 . S
C1709 C1703 1.491 . S
C1709 C1708 1.400 . S
C1709 C1710 1.398 . S
C1710 H1698 0.950 . S
C1710 C1709 1.398 . S
C1710 C1711 1.391 . S
C1711 H1699 0.950 . S
C1711 C1707 1.393 . S
C1711 C1710 1.391 . S
H1712 C1720 0.950 . S
H1713 C1725 0.950 . S
H1714 C1722 0.950 . S
H1715 C1724 0.950 . S
H1716 C1726 0.950 . S
H1717 C1728 0.950 . S
H1718 C1730 0.950 . S
H1719 C1731 0.950 . S
C1720 H1712 0.950 . S
C1720 C1721 1.386 . S
C1720 C1722 1.391 . S
C1721 C1720 1.386 . S
C1721 C1725 1.393 . S
C1722 H1714 0.950 . S
C1722 C1720 1.391 . S
C1722 C1723 1.400 . S
C1723 C1722 1.400 . S
C1723 C1724 1.398 . S
C1723 C1729 1.491 . S
C1724 H1715 0.950 . S
C1724 C1723 1.398 . S
C1724 C1725 1.391 . S
C1725 H1713 0.950 . S
C1725 C1721 1.393 . S
C1725 C1724 1.391 . S
C1726 H1716 0.950 . S
C1726 C1727 1.386 . S
C1726 C1728 1.391 . S
C1727 C1726 1.386 . S
C1727 C1731 1.393 . S
C1728 H1717 0.950 . S
C1728 C1726 1.391 . S
C1728 C1729 1.400 . S
C1729 C1723 1.491 . S
C1729 C1728 1.400 . S
C1729 C1730 1.398 . S
C1730 H1718 0.950 . S
C1730 C1729 1.398 . S
C1730 C1731 1.391 . S
C1731 H1719 0.950 . S
C1731 C1727 1.393 . S
C1731 C1730 1.391 . S
H1732 C1740 0.950 . S
H1733 C1745 0.950 . S
H1734 C1742 0.950 . S
H1735 C1744 0.950 . S
H1736 C1746 0.950 . S
H1737 C1748 0.950 . S
H1738 C1750 0.950 . S
H1739 C1751 0.950 1_565 S
C1740 H1732 0.950 . S
C1740 C1741 1.386 . S
C1740 C1742 1.391 . S
C1741 C1740 1.386 . S
C1741 C1745 1.393 . S
C1742 H1734 0.950 . S
C1742 C1740 1.391 . S
C1742 C1743 1.400 . S
C1743 C1742 1.400 . S
C1743 C1744 1.398 . S
C1743 C1749 1.491 . S
C1744 H1735 0.950 . S
C1744 C1743 1.398 . S
C1744 C1745 1.391 . S
C1745 H1733 0.950 . S
C1745 C1741 1.393 . S
C1745 C1744 1.391 . S
C1746 H1736 0.950 . S
C1746 C1747 1.386 . S
C1746 C1748 1.391 . S
C1747 C1746 1.386 . S
C1747 C1751 1.393 . S
C1748 H1737 0.950 . S
C1748 C1746 1.391 . S
C1748 C1749 1.400 . S
C1749 C1743 1.491 . S
C1749 C1748 1.400 . S
C1749 C1750 1.398 . S
C1750 H1738 0.950 . S
C1750 C1749 1.398 . S
C1750 C1751 1.391 . S
C1751 H1739 0.950 1_545 S
C1751 C1747 1.393 . S
C1751 C1750 1.391 . S
H1752 C1760 0.950 . S
H1753 C1765 0.950 . S
H1754 C1762 0.950 . S
H1755 C1764 0.950 . S
H1756 C1766 0.950 . S
H1757 C1768 0.950 . S
H1758 C1770 0.950 . S
H1759 C1771 0.950 . S
C1760 H1752 0.950 . S
C1760 C1761 1.386 . S
C1760 C1762 1.391 . S
C1761 C1760 1.386 . S
C1761 C1765 1.393 . S
C1762 H1754 0.950 . S
C1762 C1760 1.391 . S
C1762 C1763 1.400 . S
C1763 C1762 1.400 . S
C1763 C1764 1.398 . S
C1763 C1769 1.491 . S
C1764 H1755 0.950 . S
C1764 C1763 1.398 . S
C1764 C1765 1.391 . S
C1765 H1753 0.950 . S
C1765 C1761 1.393 . S
C1765 C1764 1.391 . S
C1766 H1756 0.950 . S
C1766 C1767 1.386 . S
C1766 C1768 1.391 . S
C1767 C1766 1.386 . S
C1767 C1771 1.393 . S
C1768 H1757 0.950 . S
C1768 C1766 1.391 . S
C1768 C1769 1.400 . S
C1769 C1763 1.491 . S
C1769 C1768 1.400 . S
C1769 C1770 1.398 . S
C1770 H1758 0.950 . S
C1770 C1769 1.398 . S
C1770 C1771 1.391 . S
C1771 H1759 0.950 . S
C1771 C1767 1.393 . S
C1771 C1770 1.391 . S
H1772 C1780 0.950 . S
H1773 C1785 0.950 . S
H1774 C1782 0.950 . S
H1775 C1784 0.950 . S
H1776 C1786 0.950 . S
H1777 C1788 0.950 . S
H1778 C1790 0.950 . S
H1779 C1791 0.950 . S
C1780 H1772 0.950 . S
C1780 C1781 1.386 . S
C1780 C1782 1.391 . S
C1781 C1780 1.386 . S
C1781 C1785 1.393 . S
C1782 H1774 0.950 . S
C1782 C1780 1.391 . S
C1782 C1783 1.400 . S
C1783 C1782 1.400 . S
C1783 C1784 1.398 . S
C1783 C1789 1.491 . S
C1784 H1775 0.950 . S
C1784 C1783 1.398 . S
C1784 C1785 1.391 . S
C1785 H1773 0.950 . S
C1785 C1781 1.393 . S
C1785 C1784 1.391 . S
C1786 H1776 0.950 . S
C1786 C1787 1.386 . S
C1786 C1788 1.391 . S
C1787 C1786 1.386 . S
C1787 C1791 1.393 . S
C1788 H1777 0.950 . S
C1788 C1786 1.391 . S
C1788 C1789 1.400 . S
C1789 C1783 1.491 . S
C1789 C1788 1.400 . S
C1789 C1790 1.398 . S
C1790 H1778 0.950 . S
C1790 C1789 1.398 . S
C1790 C1791 1.391 . S
C1791 H1779 0.950 . S
C1791 C1787 1.393 . S
C1791 C1790 1.391 . S
H1792 C1800 0.950 . S
H1793 C1805 0.950 . S
H1794 C1802 0.950 . S
H1795 C1804 0.950 . S
H1796 C1806 0.950 . S
H1797 C1808 0.950 . S
H1798 C1810 0.950 . S
H1799 C1811 0.950 . S
C1800 H1792 0.950 . S
C1800 C1801 1.386 . S
C1800 C1802 1.391 . S
C1801 C1800 1.386 . S
C1801 C1805 1.393 . S
C1802 H1794 0.950 . S
C1802 C1800 1.391 . S
C1802 C1803 1.400 . S
C1803 C1802 1.400 . S
C1803 C1804 1.398 . S
C1803 C1809 1.491 . S
C1804 H1795 0.950 . S
C1804 C1803 1.398 . S
C1804 C1805 1.391 . S
C1805 H1793 0.950 . S
C1805 C1801 1.393 . S
C1805 C1804 1.391 . S
C1806 H1796 0.950 . S
C1806 C1807 1.386 . S
C1806 C1808 1.391 . S
C1807 C1806 1.386 . S
C1807 C1811 1.393 . S
C1808 H1797 0.950 . S
C1808 C1806 1.391 . S
C1808 C1809 1.400 . S
C1809 C1803 1.491 . S
C1809 C1808 1.400 . S
C1809 C1810 1.398 . S
C1810 H1798 0.950 . S
C1810 C1809 1.398 . S
C1810 C1811 1.391 . S
C1811 H1799 0.950 . S
C1811 C1807 1.393 . S
C1811 C1810 1.391 . S
H1812 C1820 0.950 . S
H1813 C1825 0.950 1_455 S
H1814 C1822 0.950 . S
H1815 C1824 0.950 . S
H1816 C1826 0.950 . S
H1817 C1828 0.950 . S
H1818 C1830 0.950 . S
H1819 C1831 0.950 . S
C1820 H1812 0.950 . S
C1820 C1821 1.386 . S
C1820 C1822 1.391 . S
C1821 C1820 1.386 . S
C1821 C1825 1.393 . S
C1822 H1814 0.950 . S
C1822 C1820 1.391 . S
C1822 C1823 1.400 . S
C1823 C1822 1.400 . S
C1823 C1824 1.398 . S
C1823 C1829 1.491 . S
C1824 H1815 0.950 . S
C1824 C1823 1.398 . S
C1824 C1825 1.391 . S
C1825 H1813 0.950 1_655 S
C1825 C1821 1.393 . S
C1825 C1824 1.391 . S
C1826 H1816 0.950 . S
C1826 C1827 1.386 . S
C1826 C1828 1.391 . S
C1827 C1826 1.386 . S
C1827 C1831 1.393 . S
C1828 H1817 0.950 . S
C1828 C1826 1.391 . S
C1828 C1829 1.400 . S
C1829 C1823 1.491 . S
C1829 C1828 1.400 . S
C1829 C1830 1.398 . S
C1830 H1818 0.950 . S
C1830 C1829 1.398 . S
C1830 C1831 1.391 . S
C1831 H1819 0.950 . S
C1831 C1827 1.393 . S
C1831 C1830 1.391 . S
H1832 C1840 0.950 . S
H1833 C1845 0.950 . S
H1834 C1842 0.950 . S
H1835 C1844 0.950 . S
H1836 C1846 0.950 . S
H1837 C1848 0.950 . S
H1838 C1850 0.950 . S
H1839 C1851 0.950 . S
C1840 H1832 0.950 . S
C1840 C1841 1.386 . S
C1840 C1842 1.391 . S
C1841 C1840 1.386 . S
C1841 C1845 1.393 . S
C1842 H1834 0.950 . S
C1842 C1840 1.391 . S
C1842 C1843 1.400 . S
C1843 C1842 1.400 . S
C1843 C1844 1.398 . S
C1843 C1849 1.491 . S
C1844 H1835 0.950 . S
C1844 C1843 1.398 . S
C1844 C1845 1.391 . S
C1845 H1833 0.950 . S
C1845 C1841 1.393 . S
C1845 C1844 1.391 . S
C1846 H1836 0.950 . S
C1846 C1847 1.386 . S
C1846 C1848 1.391 . S
C1847 C1846 1.386 . S
C1847 C1851 1.393 . S
C1848 H1837 0.950 . S
C1848 C1846 1.391 . S
C1848 C1849 1.400 . S
C1849 C1843 1.491 . S
C1849 C1848 1.400 . S
C1849 C1850 1.398 . S
C1850 H1838 0.950 . S
C1850 C1849 1.398 . S
C1850 C1851 1.391 . S
C1851 H1839 0.950 . S
C1851 C1847 1.393 . S
C1851 C1850 1.391 . S
H1852 C1860 0.950 . S
H1853 C1865 0.950 . S
H1854 C1862 0.950 . S
H1855 C1864 0.938 1_655 S
H1856 C1866 0.950 . S
H1857 C1868 0.950 . S
H1858 C1870 0.950 . S
H1859 C1871 0.950 . S
C1860 H1852 0.950 . S
C1860 C1861 1.386 1_455 S
C1860 C1862 1.391 . S
C1861 C1860 1.386 1_655 S
C1861 C1865 1.393 . S
C1862 H1854 0.950 . S
C1862 C1860 1.391 . S
C1862 C1863 1.400 . S
C1863 C1862 1.400 . S
C1863 C1864 1.398 . S
C1863 C1869 1.491 . S
C1864 H1855 0.938 1_455 S
C1864 C1863 1.398 . S
C1864 C1865 1.391 1_455 S
C1865 H1853 0.950 . S
C1865 C1861 1.393 . S
C1865 C1864 1.391 1_655 S
C1866 H1856 0.950 . S
C1866 C1867 1.386 . S
C1866 C1868 1.391 . S
C1867 C1866 1.386 . S
C1867 C1871 1.393 . S
C1868 H1857 0.950 . S
C1868 C1866 1.391 . S
C1868 C1869 1.400 . S
C1869 C1863 1.491 . S
C1869 C1868 1.400 . S
C1869 C1870 1.398 . S
C1870 H1858 0.950 . S
C1870 C1869 1.398 . S
C1870 C1871 1.391 . S
C1871 H1859 0.950 . S
C1871 C1867 1.393 . S
C1871 C1870 1.391 . S
H1872 C1880 0.950 . S
H1873 C1885 0.950 . S
H1874 C1882 0.950 . S
H1875 C1884 0.950 . S
H1876 C1886 0.950 . S
H1877 C1888 0.950 . S
H1878 C1890 0.950 . S
H1879 C1891 0.950 . S
C1880 H1872 0.950 . S
C1880 C1881 1.386 . S
C1880 C1882 1.391 . S
C1881 C1880 1.386 . S
C1881 C1885 1.393 . S
C1882 H1874 0.950 . S
C1882 C1880 1.391 . S
C1882 C1883 1.400 . S
C1883 C1882 1.400 . S
C1883 C1884 1.398 . S
C1883 C1889 1.491 . S
C1884 H1875 0.950 . S
C1884 C1883 1.398 . S
C1884 C1885 1.391 . S
C1885 H1873 0.950 . S
C1885 C1881 1.393 . S
C1885 C1884 1.391 . S
C1886 H1876 0.950 . S
C1886 C1887 1.386 . S
C1886 C1888 1.391 . S
C1887 C1886 1.386 . S
C1887 C1891 1.393 . S
C1888 H1877 0.950 . S
C1888 C1886 1.391 . S
C1888 C1889 1.400 . S
C1889 C1883 1.491 . S
C1889 C1888 1.400 . S
C1889 C1890 1.398 . S
C1890 H1878 0.950 . S
C1890 C1889 1.398 . S
C1890 C1891 1.391 . S
C1891 H1879 0.950 . S
C1891 C1887 1.393 . S
C1891 C1890 1.391 . S
H1892 C1900 0.950 . S
H1893 C1905 0.950 . S
H1894 C1902 0.950 1_556 S
H1895 C1904 0.950 . S
H1896 C1906 0.950 . S
H1897 C1908 0.950 . S
H1898 C1910 0.951 . S
H1899 C1911 0.950 . S
C1900 H1892 0.950 . S
C1900 C1901 1.386 . S
C1900 C1902 1.391 . S
C1901 C1900 1.386 . S
C1901 C1905 1.393 . S
C1902 H1894 0.950 1_554 S
C1902 C1900 1.391 . S
C1902 C1903 1.400 . S
C1903 C1902 1.400 . S
C1903 C1904 1.398 . S
C1903 C1909 1.491 . S
C1904 H1895 0.950 . S
C1904 C1903 1.398 . S
C1904 C1905 1.391 . S
C1905 H1893 0.950 . S
C1905 C1901 1.393 . S
C1905 C1904 1.391 . S
C1906 H1896 0.950 . S
C1906 C1907 1.386 1_554 S
C1906 C1908 1.391 . S
C1907 C1906 1.386 1_556 S
C1907 C1911 1.393 1_655 S
C1908 H1897 0.950 . S
C1908 C1906 1.391 . S
C1908 C1909 1.400 . S
C1909 C1903 1.491 . S
C1909 C1908 1.400 . S
C1909 C1910 1.398 1_554 S
C1910 H1898 0.951 . S
C1910 C1909 1.398 1_556 S
C1910 C1911 1.391 1_655 S
C1911 H1899 0.950 . S
C1911 C1907 1.393 1_455 S
C1911 C1910 1.391 1_455 S
H1912 C1920 0.950 . S
H1913 C1925 0.950 . S
H1914 C1922 0.950 . S
H1915 C1924 0.950 . S
H1916 C1926 0.950 . S
H1917 C1928 0.950 . S
H1918 C1930 0.950 . S
H1919 C1931 0.950 . S
C1920 H1912 0.950 . S
C1920 C1921 1.386 . S
C1920 C1922 1.391 . S
C1921 C1920 1.386 . S
C1921 C1925 1.393 . S
C1922 H1914 0.950 . S
C1922 C1920 1.391 . S
C1922 C1923 1.400 . S
C1923 C1922 1.400 . S
C1923 C1924 1.398 . S
C1923 C1929 1.491 . S
C1924 H1915 0.950 . S
C1924 C1923 1.398 . S
C1924 C1925 1.391 . S
C1925 H1913 0.950 . S
C1925 C1921 1.393 . S
C1925 C1924 1.391 . S
C1926 H1916 0.950 . S
C1926 C1927 1.386 . S
C1926 C1928 1.391 . S
C1927 C1926 1.386 . S
C1927 C1931 1.393 . S
C1928 H1917 0.950 . S
C1928 C1926 1.391 . S
C1928 C1929 1.400 . S
C1929 C1923 1.491 . S
C1929 C1928 1.400 . S
C1929 C1930 1.398 . S
C1930 H1918 0.950 . S
C1930 C1929 1.398 . S
C1930 C1931 1.391 . S
C1931 H1919 0.950 . S
C1931 C1927 1.393 . S
C1931 C1930 1.391 . S
H1932 C1940 0.950 . S
H1933 C1945 0.950 . S
H1934 C1942 0.950 . S
H1935 C1944 0.950 . S
H1936 C1946 0.950 1_554 S
H1937 C1948 0.950 . S
H1938 C1950 0.950 . S
H1939 C1951 0.950 . S
C1940 H1932 0.950 . S
C1940 C1941 1.386 1_556 S
C1940 C1942 1.391 . S
C1941 C1940 1.386 1_554 S
C1941 C1945 1.393 . S
C1942 H1934 0.950 . S
C1942 C1940 1.391 . S
C1942 C1943 1.399 1_556 S
C1943 C1942 1.399 1_554 S
C1943 C1944 1.400 . S
C1943 C1949 1.490 1_554 S
C1944 H1935 0.950 . S
C1944 C1943 1.400 . S
C1944 C1945 1.391 . S
C1945 H1933 0.950 . S
C1945 C1941 1.393 . S
C1945 C1944 1.391 . S
C1946 H1936 0.950 1_556 S
C1946 C1947 1.386 . S
C1946 C1948 1.391 1_556 S
C1947 C1946 1.386 . S
C1947 C1951 1.393 . S
C1948 H1937 0.950 . S
C1948 C1946 1.391 1_554 S
C1948 C1949 1.400 1_554 S
C1949 C1943 1.490 1_556 S
C1949 C1948 1.400 1_556 S
C1949 C1950 1.398 . S
C1950 H1938 0.950 . S
C1950 C1949 1.398 . S
C1950 C1951 1.391 . S
C1951 H1939 0.950 . S
C1951 C1947 1.393 . S
C1951 C1950 1.391 . S
H1952 C1960 0.950 . S
H1953 C1965 0.950 . S
H1954 C1962 0.950 . S
H1955 C1964 0.950 . S
H1956 C1966 0.950 . S
H1957 C1968 0.950 . S
H1958 C1970 0.950 . S
H1959 C1971 0.950 . S
C1960 H1952 0.950 . S
C1960 C1961 1.386 . S
C1960 C1962 1.391 . S
C1961 C1960 1.386 . S
C1961 C1965 1.393 . S
C1962 H1954 0.950 . S
C1962 C1960 1.391 . S
C1962 C1963 1.400 . S
C1963 C1962 1.400 . S
C1963 C1964 1.398 . S
C1963 C1969 1.491 . S
C1964 H1955 0.950 . S
C1964 C1963 1.398 . S
C1964 C1965 1.391 . S
C1965 H1953 0.950 . S
C1965 C1961 1.393 . S
C1965 C1964 1.391 . S
C1966 H1956 0.950 . S
C1966 C1967 1.386 . S
C1966 C1968 1.391 . S
C1967 C1966 1.386 . S
C1967 C1971 1.393 . S
C1968 H1957 0.950 . S
C1968 C1966 1.391 . S
C1968 C1969 1.400 . S
C1969 C1963 1.491 . S
C1969 C1968 1.400 . S
C1969 C1970 1.398 . S
C1970 H1958 0.950 . S
C1970 C1969 1.398 . S
C1970 C1971 1.391 . S
C1971 H1959 0.950 . S
C1971 C1967 1.393 . S
C1971 C1970 1.391 . S
H1972 C1980 0.950 . S
H1973 C1985 0.950 . S
H1974 C1982 0.950 . S
H1975 C1984 0.950 . S
H1976 C1986 0.950 . S
H1977 C1988 0.950 . S
H1978 C1990 0.950 . S
H1979 C1991 0.950 . S
C1980 H1972 0.950 . S
C1980 C1981 1.386 . S
C1980 C1982 1.391 . S
C1981 C1980 1.386 . S
C1981 C1985 1.393 . S
C1982 H1974 0.950 . S
C1982 C1980 1.391 . S
C1982 C1983 1.400 . S
C1983 C1982 1.400 . S
C1983 C1984 1.398 . S
C1983 C1989 1.491 . S
C1984 H1975 0.950 . S
C1984 C1983 1.398 . S
C1984 C1985 1.391 . S
C1985 H1973 0.950 . S
C1985 C1981 1.393 . S
C1985 C1984 1.391 . S
C1986 H1976 0.950 . S
C1986 C1987 1.386 . S
C1986 C1988 1.391 . S
C1987 C1986 1.386 . S
C1987 C1991 1.393 . S
C1988 H1977 0.950 . S
C1988 C1986 1.391 . S
C1988 C1989 1.400 . S
C1989 C1983 1.491 . S
C1989 C1988 1.400 . S
C1989 C1990 1.398 . S
C1990 H1978 0.950 . S
C1990 C1989 1.398 . S
C1990 C1991 1.391 . S
C1991 H1979 0.950 . S
C1991 C1987 1.393 . S
C1991 C1990 1.391 . S
H1992 C2000 0.950 . S
H1993 C2005 0.950 . S
H1994 C2002 0.950 . S
H1995 C2004 0.950 . S
H1996 C2006 0.950 . S
H1997 C2008 0.950 . S
H1998 C2010 0.950 . S
H1999 C2011 0.950 . S
C2000 H1992 0.950 . S
C2000 C2001 1.386 . S
C2000 C2002 1.391 . S
C2001 C2000 1.386 . S
C2001 C2005 1.393 . S
C2002 H1994 0.950 . S
C2002 C2000 1.391 . S
C2002 C2003 1.400 . S
C2003 C2002 1.400 . S
C2003 C2004 1.398 . S
C2003 C2009 1.491 . S
C2004 H1995 0.950 . S
C2004 C2003 1.398 . S
C2004 C2005 1.391 . S
C2005 H1993 0.950 . S
C2005 C2001 1.393 . S
C2005 C2004 1.391 . S
C2006 H1996 0.950 . S
C2006 C2007 1.386 . S
C2006 C2008 1.391 . S
C2007 C2006 1.386 . S
C2007 C2011 1.393 . S
C2008 H1997 0.950 . S
C2008 C2006 1.391 . S
C2008 C2009 1.400 . S
C2009 C2003 1.491 . S
C2009 C2008 1.400 . S
C2009 C2010 1.398 . S
C2010 H1998 0.950 . S
C2010 C2009 1.398 . S
C2010 C2011 1.391 . S
C2011 H1999 0.950 . S
C2011 C2007 1.393 . S
C2011 C2010 1.391 . S
H2012 C2020 0.950 . S
H2013 C2025 0.950 . S
H2014 C2022 0.950 . S
H2015 C2024 0.950 . S
H2016 C2026 0.950 . S
H2017 C2028 0.950 . S
H2018 C2030 0.950 . S
H2019 C2031 0.950 . S
C2020 H2012 0.950 . S
C2020 C2021 1.386 . S
C2020 C2022 1.391 . S
C2021 C2020 1.386 . S
C2021 C2025 1.393 . S
C2022 H2014 0.950 . S
C2022 C2020 1.391 . S
C2022 C2023 1.400 . S
C2023 C2022 1.400 . S
C2023 C2024 1.398 . S
C2023 C2029 1.491 . S
C2024 H2015 0.950 . S
C2024 C2023 1.398 . S
C2024 C2025 1.391 . S
C2025 H2013 0.950 . S
C2025 C2021 1.393 . S
C2025 C2024 1.391 . S
C2026 H2016 0.950 . S
C2026 C2027 1.386 . S
C2026 C2028 1.391 . S
C2027 C2026 1.386 . S
C2027 C2031 1.393 . S
C2028 H2017 0.950 . S
C2028 C2026 1.391 . S
C2028 C2029 1.400 . S
C2029 C2023 1.491 . S
C2029 C2028 1.400 . S
C2029 C2030 1.398 . S
C2030 H2018 0.950 . S
C2030 C2029 1.398 . S
C2030 C2031 1.391 . S
C2031 H2019 0.950 . S
C2031 C2027 1.393 . S
C2031 C2030 1.391 . S
H2032 C2040 0.950 . S
H2033 C2045 0.950 . S
H2034 C2042 0.950 . S
H2035 C2044 0.950 . S
H2036 C2046 0.950 . S
H2037 C2048 0.950 . S
H2038 C2050 0.950 . S
H2039 C2051 0.950 . S
C2040 H2032 0.950 . S
C2040 C2041 1.386 . S
C2040 C2042 1.391 . S
C2041 C2040 1.386 . S
C2041 C2045 1.393 . S
C2042 H2034 0.950 . S
C2042 C2040 1.391 . S
C2042 C2043 1.400 . S
C2043 C2042 1.400 . S
C2043 C2044 1.398 . S
C2043 C2049 1.491 . S
C2044 H2035 0.950 . S
C2044 C2043 1.398 . S
C2044 C2045 1.391 . S
C2045 H2033 0.950 . S
C2045 C2041 1.393 . S
C2045 C2044 1.391 . S
C2046 H2036 0.950 . S
C2046 C2047 1.386 . S
C2046 C2048 1.391 . S
C2047 C2046 1.386 . S
C2047 C2051 1.393 . S
C2048 H2037 0.950 . S
C2048 C2046 1.391 . S
C2048 C2049 1.400 . S
C2049 C2043 1.491 . S
C2049 C2048 1.400 . S
C2049 C2050 1.398 . S
C2050 H2038 0.950 . S
C2050 C2049 1.398 . S
C2050 C2051 1.391 . S
C2051 H2039 0.950 . S
C2051 C2047 1.393 . S
C2051 C2050 1.391 . S
H2052 C2060 0.950 . S
H2053 C2065 0.950 . S
H2054 C2062 0.950 . S
H2055 C2064 0.950 . S
H2056 C2066 0.950 . S
H2057 C2068 0.950 . S
H2058 C2070 0.950 . S
H2059 C2071 0.950 . S
C2060 H2052 0.950 . S
C2060 C2061 1.386 . S
C2060 C2062 1.391 . S
C2061 C2060 1.386 . S
C2061 C2065 1.393 . S
C2062 H2054 0.950 . S
C2062 C2060 1.391 . S
C2062 C2063 1.400 . S
C2063 C2062 1.400 . S
C2063 C2064 1.398 . S
C2063 C2069 1.491 . S
C2064 H2055 0.950 . S
C2064 C2063 1.398 . S
C2064 C2065 1.391 . S
C2065 H2053 0.950 . S
C2065 C2061 1.393 . S
C2065 C2064 1.391 . S
C2066 H2056 0.950 . S
C2066 C2067 1.386 . S
C2066 C2068 1.391 . S
C2067 C2066 1.386 . S
C2067 C2071 1.393 . S
C2068 H2057 0.950 . S
C2068 C2066 1.391 . S
C2068 C2069 1.400 . S
C2069 C2063 1.491 . S
C2069 C2068 1.400 . S
C2069 C2070 1.398 . S
C2070 H2058 0.950 . S
C2070 C2069 1.398 . S
C2070 C2071 1.391 . S
C2071 H2059 0.950 . S
C2071 C2067 1.393 . S
C2071 C2070 1.391 . S
H2072 C2080 0.950 . S
H2073 C2085 0.950 . S
H2074 C2082 0.950 . S
H2075 C2084 0.950 . S
H2076 C2086 0.950 . S
H2077 C2088 0.950 . S
H2078 C2090 0.950 . S
H2079 C2091 0.950 . S
C2080 H2072 0.950 . S
C2080 C2081 1.386 . S
C2080 C2082 1.391 . S
C2081 C2080 1.386 . S
C2081 C2085 1.393 . S
C2082 H2074 0.950 . S
C2082 C2080 1.391 . S
C2082 C2083 1.400 . S
C2083 C2082 1.400 . S
C2083 C2084 1.398 . S
C2083 C2089 1.491 . S
C2084 H2075 0.950 . S
C2084 C2083 1.398 . S
C2084 C2085 1.391 . S
C2085 H2073 0.950 . S
C2085 C2081 1.393 . S
C2085 C2084 1.391 . S
C2086 H2076 0.950 . S
C2086 C2087 1.386 . S
C2086 C2088 1.391 . S
C2087 C2086 1.386 . S
C2087 C2091 1.393 . S
C2088 H2077 0.950 . S
C2088 C2086 1.391 . S
C2088 C2089 1.400 . S
C2089 C2083 1.491 . S
C2089 C2088 1.400 . S
C2089 C2090 1.398 . S
C2090 H2078 0.950 . S
C2090 C2089 1.398 . S
C2090 C2091 1.391 . S
C2091 H2079 0.950 . S
C2091 C2087 1.393 . S
C2091 C2090 1.391 . S
H2092 C2100 0.950 . S
H2093 C2105 0.950 . S
H2094 C2102 0.950 . S
H2095 C2104 0.950 . S
H2096 C2106 0.950 . S
H2097 C2108 0.950 . S
H2098 C2110 0.950 . S
H2099 C2111 0.950 . S
C2100 H2092 0.950 . S
C2100 C2101 1.386 . S
C2100 C2102 1.391 . S
C2101 C2100 1.386 . S
C2101 C2105 1.393 . S
C2102 H2094 0.950 . S
C2102 C2100 1.391 . S
C2102 C2103 1.400 . S
C2103 C2102 1.400 . S
C2103 C2104 1.398 . S
C2103 C2109 1.491 . S
C2104 H2095 0.950 . S
C2104 C2103 1.398 . S
C2104 C2105 1.391 . S
C2105 H2093 0.950 . S
C2105 C2101 1.393 . S
C2105 C2104 1.391 . S
C2106 H2096 0.950 . S
C2106 C2107 1.386 . S
C2106 C2108 1.391 . S
C2107 C2106 1.386 . S
C2107 C2111 1.393 . S
C2108 H2097 0.950 . S
C2108 C2106 1.391 . S
C2108 C2109 1.400 . S
C2109 C2103 1.491 . S
C2109 C2108 1.400 . S
C2109 C2110 1.398 . S
C2110 H2098 0.950 . S
C2110 C2109 1.398 . S
C2110 C2111 1.391 . S
C2111 H2099 0.950 . S
C2111 C2107 1.393 . S
C2111 C2110 1.391 . S
H2112 C2120 0.950 . S
H2113 C2125 0.950 . S
H2114 C2122 0.950 . S
H2115 C2124 0.950 . S
H2116 C2126 0.950 . S
H2117 C2128 0.950 . S
H2118 C2130 0.950 . S
H2119 C2131 0.950 . S
C2120 H2112 0.950 . S
C2120 C2121 1.386 . S
C2120 C2122 1.391 . S
C2121 C2120 1.386 . S
C2121 C2125 1.393 . S
C2122 H2114 0.950 . S
C2122 C2120 1.391 . S
C2122 C2123 1.400 . S
C2123 C2122 1.400 . S
C2123 C2124 1.398 . S
C2123 C2129 1.491 . S
C2124 H2115 0.950 . S
C2124 C2123 1.398 . S
C2124 C2125 1.391 . S
C2125 H2113 0.950 . S
C2125 C2121 1.393 . S
C2125 C2124 1.391 . S
C2126 H2116 0.950 . S
C2126 C2127 1.386 . S
C2126 C2128 1.391 . S
C2127 C2126 1.386 . S
C2127 C2131 1.393 . S
C2128 H2117 0.950 . S
C2128 C2126 1.391 . S
C2128 C2129 1.400 . S
C2129 C2123 1.491 . S
C2129 C2128 1.400 . S
C2129 C2130 1.398 . S
C2130 H2118 0.950 . S
C2130 C2129 1.398 . S
C2130 C2131 1.391 . S
C2131 H2119 0.950 . S
C2131 C2127 1.393 . S
C2131 C2130 1.391 . S
H2132 C2140 0.950 . S
H2133 C2145 0.950 . S
H2134 C2142 0.950 . S
H2135 C2144 0.950 . S
H2136 C2146 0.950 . S
H2137 C2148 0.950 . S
H2138 C2150 0.950 . S
H2139 C2151 0.950 . S
C2140 H2132 0.950 . S
C2140 C2141 1.386 . S
C2140 C2142 1.391 . S
C2141 C2140 1.386 . S
C2141 C2145 1.393 . S
C2142 H2134 0.950 . S
C2142 C2140 1.391 . S
C2142 C2143 1.400 . S
C2143 C2142 1.400 . S
C2143 C2144 1.398 . S
C2143 C2149 1.491 . S
C2144 H2135 0.950 . S
C2144 C2143 1.398 . S
C2144 C2145 1.391 . S
C2145 H2133 0.950 . S
C2145 C2141 1.393 . S
C2145 C2144 1.391 . S
C2146 H2136 0.950 . S
C2146 C2147 1.386 . S
C2146 C2148 1.391 . S
C2147 C2146 1.386 . S
C2147 C2151 1.393 . S
C2148 H2137 0.950 . S
C2148 C2146 1.391 . S
C2148 C2149 1.400 . S
C2149 C2143 1.491 . S
C2149 C2148 1.400 . S
C2149 C2150 1.398 . S
C2150 H2138 0.950 . S
C2150 C2149 1.398 . S
C2150 C2151 1.391 . S
C2151 H2139 0.950 . S
C2151 C2147 1.393 . S
C2151 C2150 1.391 . S
H2152 C2160 0.950 . S
H2153 C2165 0.950 . S
H2154 C2162 0.950 . S
H2155 C2164 0.950 . S
H2156 C2166 0.950 . S
H2157 C2168 0.950 . S
H2158 C2170 0.950 . S
H2159 C2171 0.950 . S
C2160 H2152 0.950 . S
C2160 C2161 1.386 . S
C2160 C2162 1.391 . S
C2161 C2160 1.386 . S
C2161 C2165 1.393 . S
C2162 H2154 0.950 . S
C2162 C2160 1.391 . S
C2162 C2163 1.400 . S
C2163 C2162 1.400 . S
C2163 C2164 1.398 . S
C2163 C2169 1.491 . S
C2164 H2155 0.950 . S
C2164 C2163 1.398 . S
C2164 C2165 1.391 . S
C2165 H2153 0.950 . S
C2165 C2161 1.393 . S
C2165 C2164 1.391 . S
C2166 H2156 0.950 . S
C2166 C2167 1.386 . S
C2166 C2168 1.391 . S
C2167 C2166 1.386 . S
C2167 C2171 1.393 . S
C2168 H2157 0.950 . S
C2168 C2166 1.391 . S
C2168 C2169 1.400 . S
C2169 C2163 1.491 . S
C2169 C2168 1.400 . S
C2169 C2170 1.398 . S
C2170 H2158 0.950 . S
C2170 C2169 1.398 . S
C2170 C2171 1.391 . S
C2171 H2159 0.950 . S
C2171 C2167 1.393 . S
C2171 C2170 1.391 . S
H2172 C2180 0.979 . S
H2173 C2185 0.950 1_545 S
H2174 C2182 0.950 1_556 S
H2175 C2184 0.950 . S
H2176 C2186 0.950 . S
H2177 C2188 0.950 . S
H2178 C2190 0.950 1_556 S
H2179 C2191 0.928 1_556 S
C2180 H2172 0.979 . S
C2180 C2181 1.386 . S
C2180 C2182 1.391 . S
C2181 C2180 1.386 . S
C2181 C2185 1.393 . S
C2182 H2174 0.950 1_554 S
C2182 C2180 1.391 . S
C2182 C2183 1.400 . S
C2183 C2182 1.400 . S
C2183 C2184 1.398 . S
C2183 C2189 1.491 . S
C2184 H2175 0.950 . S
C2184 C2183 1.398 . S
C2184 C2185 1.391 . S
C2185 H2173 0.950 1_565 S
C2185 C2181 1.393 . S
C2185 C2184 1.391 . S
C2186 H2176 0.950 . S
C2186 C2187 1.386 . S
C2186 C2188 1.391 . S
C2187 C2186 1.386 . S
C2187 C2191 1.410 . S
C2188 H2177 0.950 . S
C2188 C2186 1.391 . S
C2188 C2189 1.400 . S
C2189 C2183 1.491 . S
C2189 C2188 1.400 . S
C2189 C2190 1.398 . S
C2190 H2178 0.950 1_554 S
C2190 C2189 1.398 . S
C2190 C2191 1.397 . S
C2191 H2179 0.928 1_554 S
C2191 C2187 1.410 . S
C2191 C2190 1.397 . S
C1247 C225 1.224 . S
C1241 C62 1.194 . S
C1267 C284 1.601 . S
C1261 C73 1.549 1_455 S
C1281 C84 1.498 . S
C1287 C401 1.541 . S
C1307 C469 1.212 . S
C1301 C49 1.071 . S
C1327 C548 1.347 . S
C1321 C118 1.347 . S
C1347 C673 1.659 . S
C1341 C137 1.406 . S
C1361 C129 1.574 . S
C1367 C733 1.590 . S
C1387 C841 1.948 . S
C1381 C106 1.899 . S
C1401 C128 1.861 . S
C1407 C937 1.939 . S
C1427 C997 1.683 . S
C1421 C104 1.524 . S
C1441 C115 1.667 . S
C1447 C900 1.869 . S
C1467 C1017 1.838 . S
C1461 C139 1.763 . S
C1481 C85 1.573 . S
C1487 C1085 1.569 . S
C1501 C52 1.165 . S
C1507 C1076 1.161 . S
C1521 C60 0.860 . S
C1527 C1105 0.959 . S
C1541 C71 1.464 1_655 S
C1547 C1113 1.562 . S
C1561 C40 1.726 . S
C1567 C497 1.788 . S
C1581 C162 1.058 . S
C1587 C460 1.082 . S
C1607 C196 1.082 . S
C1601 C173 1.083 . S
C1627 C293 1.792 . S
C1621 C93 1.611 . S
C1641 C51 1.442 1_545 S
C1647 C557 1.485 . S
C1667 C849 1.517 . S
C1661 C126 1.336 . S
C1687 C577 1.811 . S
C1681 C107 1.801 . S
C1707 C761 1.603 . S
C1701 C140 1.580 . S
C1727 C753 1.221 . S
C1721 C161 1.161 . S
C1741 C172 1.527 . S
C1747 C821 1.592 . S
C1761 C95 1.476 . S
C1767 C585 1.539 . S
C1787 C636 1.212 . S
C1781 C148 1.079 . S
C1801 C41 1.349 . S
C1807 C381 1.348 . S
C1827 C489 1.658 . S
C1821 C5 1.406 1_655 S
C1847 C205 1.584 . S
C1841 C19 1.562 . S
C1867 C321 1.946 . S
C1861 C29 1.901 . S
C1881 C18 1.874 . S
C1887 C1025 1.938 . S
C1901 C27 1.494 . S
C1907 C909 1.677 1_655 S
C1921 C38 1.631 . S
C1927 C988 1.867 . S
C1941 C7 1.766 . S
C1947 C929 1.837 . S
C1967 C1173 1.571 . S
C1961 C96 1.571 . S
C1987 C1164 1.163 . S
C1981 C151 1.164 . S
C2007 C1193 0.960 . S
C2001 C159 0.865 . S
C2021 C170 1.442 . S
C2027 C1201 1.570 . S
C2041 C117 1.719 . S
C2047 C665 1.784 . S
C2067 C645 1.087 . S
C2061 C63 1.078 . S
C2087 C724 1.080 . S
C2081 C74 1.086 . S
C2107 C812 1.792 . S
C2101 C82 1.600 . S
C2121 C150 1.460 . S
C2127 C372 1.479 . S
C2147 C313 1.515 . S
C2141 C16 1.305 . S
C2161 C30 1.801 . S
C2167 C409 1.811 . S
C2187 C233 1.602 . S
C2181 C8 1.586 1_565 S
