# Generated by pormake.
# Topology cor, (4,6)-cn, num edge types: 1
# Building blocks:
#     Node 0, Type 0, BuildingBlock: TATPOV_clean_sbu_0, # of connection points: 4
#     Node 1, Type 0, BuildingBlock: TATPOV_clean_sbu_0, # of connection points: 4
#     Node 2, Type 0, BuildingBlock: TATPOV_clean_sbu_0, # of connection points: 4
#     Node 3, Type 0, BuildingBlock: TATPOV_clean_sbu_0, # of connection points: 4
#     Node 4, Type 0, BuildingBlock: TATPOV_clean_sbu_0, # of connection points: 4
#     Node 5, Type 0, BuildingBlock: TATPOV_clean_sbu_0, # of connection points: 4
#     Node 6, Type 0, BuildingBlock: TATPOV_clean_sbu_0, # of connection points: 4
#     Node 7, Type 0, BuildingBlock: TATPOV_clean_sbu_0, # of connection points: 4
#     Node 8, Type 0, BuildingBlock: TATPOV_clean_sbu_0, # of connection points: 4
#     Node 9, Type 0, BuildingBlock: TATPOV_clean_sbu_0, # of connection points: 4
#     Node 10, Type 0, BuildingBlock: TATPOV_clean_sbu_0, # of connection points: 4
#     Node 11, Type 0, BuildingBlock: TATPOV_clean_sbu_0, # of connection points: 4
#     Node 12, Type 0, BuildingBlock: TATPOV_clean_sbu_0, # of connection points: 4
#     Node 13, Type 0, BuildingBlock: TATPOV_clean_sbu_0, # of connection points: 4
#     Node 14, Type 0, BuildingBlock: TATPOV_clean_sbu_0, # of connection points: 4
#     Node 15, Type 0, BuildingBlock: TATPOV_clean_sbu_0, # of connection points: 4
#     Node 16, Type 0, BuildingBlock: TATPOV_clean_sbu_0, # of connection points: 4
#     Node 17, Type 0, BuildingBlock: TATPOV_clean_sbu_0, # of connection points: 4
#     Node 18, Type 1, BuildingBlock: MIDCAF_clean_sbu_0, # of connection points: 6
#     Node 19, Type 1, BuildingBlock: MIDCAF_clean_sbu_0, # of connection points: 6
#     Node 20, Type 1, BuildingBlock: MIDCAF_clean_sbu_0, # of connection points: 6
#     Node 21, Type 1, BuildingBlock: MIDCAF_clean_sbu_0, # of connection points: 6
#     Node 22, Type 1, BuildingBlock: MIDCAF_clean_sbu_0, # of connection points: 6
#     Node 23, Type 1, BuildingBlock: MIDCAF_clean_sbu_0, # of connection points: 6
#     Node 24, Type 1, BuildingBlock: MIDCAF_clean_sbu_0, # of connection points: 6
#     Node 25, Type 1, BuildingBlock: MIDCAF_clean_sbu_0, # of connection points: 6
#     Node 26, Type 1, BuildingBlock: MIDCAF_clean_sbu_0, # of connection points: 6
#     Node 27, Type 1, BuildingBlock: MIDCAF_clean_sbu_0, # of connection points: 6
#     Node 28, Type 1, BuildingBlock: MIDCAF_clean_sbu_0, # of connection points: 6
#     Node 29, Type 1, BuildingBlock: MIDCAF_clean_sbu_0, # of connection points: 6
#     Edge 30, Type (0, 1), BuildingBlock: XIVTED_clean_linker_0, # of connection points: 2
#     Edge 31, Type (0, 1), BuildingBlock: XIVTED_clean_linker_0, # of connection points: 2
#     Edge 32, Type (0, 1), BuildingBlock: XIVTED_clean_linker_0, # of connection points: 2
#     Edge 33, Type (0, 1), BuildingBlock: XIVTED_clean_linker_0, # of connection points: 2
#     Edge 34, Type (0, 1), BuildingBlock: XIVTED_clean_linker_0, # of connection points: 2
#     Edge 35, Type (0, 1), BuildingBlock: XIVTED_clean_linker_0, # of connection points: 2
#     Edge 36, Type (0, 1), BuildingBlock: XIVTED_clean_linker_0, # of connection points: 2
#     Edge 37, Type (0, 1), BuildingBlock: XIVTED_clean_linker_0, # of connection points: 2
#     Edge 38, Type (0, 1), BuildingBlock: XIVTED_clean_linker_0, # of connection points: 2
#     Edge 39, Type (0, 1), BuildingBlock: XIVTED_clean_linker_0, # of connection points: 2
#     Edge 40, Type (0, 1), BuildingBlock: XIVTED_clean_linker_0, # of connection points: 2
#     Edge 41, Type (0, 1), BuildingBlock: XIVTED_clean_linker_0, # of connection points: 2
#     Edge 42, Type (0, 1), BuildingBlock: XIVTED_clean_linker_0, # of connection points: 2
#     Edge 43, Type (0, 1), BuildingBlock: XIVTED_clean_linker_0, # of connection points: 2
#     Edge 44, Type (0, 1), BuildingBlock: XIVTED_clean_linker_0, # of connection points: 2
#     Edge 45, Type (0, 1), BuildingBlock: XIVTED_clean_linker_0, # of connection points: 2
#     Edge 46, Type (0, 1), BuildingBlock: XIVTED_clean_linker_0, # of connection points: 2
#     Edge 47, Type (0, 1), BuildingBlock: XIVTED_clean_linker_0, # of connection points: 2
#     Edge 48, Type (0, 1), BuildingBlock: XIVTED_clean_linker_0, # of connection points: 2
#     Edge 49, Type (0, 1), BuildingBlock: XIVTED_clean_linker_0, # of connection points: 2
#     Edge 50, Type (0, 1), BuildingBlock: XIVTED_clean_linker_0, # of connection points: 2
#     Edge 51, Type (0, 1), BuildingBlock: XIVTED_clean_linker_0, # of connection points: 2
#     Edge 52, Type (0, 1), BuildingBlock: XIVTED_clean_linker_0, # of connection points: 2
#     Edge 53, Type (0, 1), BuildingBlock: XIVTED_clean_linker_0, # of connection points: 2
#     Edge 54, Type (0, 1), BuildingBlock: XIVTED_clean_linker_0, # of connection points: 2
#     Edge 55, Type (0, 1), BuildingBlock: XIVTED_clean_linker_0, # of connection points: 2
#     Edge 56, Type (0, 1), BuildingBlock: XIVTED_clean_linker_0, # of connection points: 2
#     Edge 57, Type (0, 1), BuildingBlock: XIVTED_clean_linker_0, # of connection points: 2
#     Edge 58, Type (0, 1), BuildingBlock: XIVTED_clean_linker_0, # of connection points: 2
#     Edge 59, Type (0, 1), BuildingBlock: XIVTED_clean_linker_0, # of connection points: 2
#     Edge 60, Type (0, 1), BuildingBlock: XIVTED_clean_linker_0, # of connection points: 2
#     Edge 61, Type (0, 1), BuildingBlock: XIVTED_clean_linker_0, # of connection points: 2
#     Edge 62, Type (0, 1), BuildingBlock: XIVTED_clean_linker_0, # of connection points: 2
#     Edge 63, Type (0, 1), BuildingBlock: XIVTED_clean_linker_0, # of connection points: 2
#     Edge 64, Type (0, 1), BuildingBlock: XIVTED_clean_linker_0, # of connection points: 2
#     Edge 65, Type (0, 1), BuildingBlock: XIVTED_clean_linker_0, # of connection points: 2
#     Edge 66, Type (0, 1), BuildingBlock: XIVTED_clean_linker_0, # of connection points: 2
#     Edge 67, Type (0, 1), BuildingBlock: XIVTED_clean_linker_0, # of connection points: 2
#     Edge 68, Type (0, 1), BuildingBlock: XIVTED_clean_linker_0, # of connection points: 2
#     Edge 69, Type (0, 1), BuildingBlock: XIVTED_clean_linker_0, # of connection points: 2
#     Edge 70, Type (0, 1), BuildingBlock: XIVTED_clean_linker_0, # of connection points: 2
#     Edge 71, Type (0, 1), BuildingBlock: XIVTED_clean_linker_0, # of connection points: 2
#     Edge 72, Type (0, 1), BuildingBlock: XIVTED_clean_linker_0, # of connection points: 2
#     Edge 73, Type (0, 1), BuildingBlock: XIVTED_clean_linker_0, # of connection points: 2
#     Edge 74, Type (0, 1), BuildingBlock: XIVTED_clean_linker_0, # of connection points: 2
#     Edge 75, Type (0, 1), BuildingBlock: XIVTED_clean_linker_0, # of connection points: 2
#     Edge 76, Type (0, 1), BuildingBlock: XIVTED_clean_linker_0, # of connection points: 2
#     Edge 77, Type (0, 1), BuildingBlock: XIVTED_clean_linker_0, # of connection points: 2
#     Edge 78, Type (0, 1), BuildingBlock: XIVTED_clean_linker_0, # of connection points: 2
#     Edge 79, Type (0, 1), BuildingBlock: XIVTED_clean_linker_0, # of connection points: 2
#     Edge 80, Type (0, 1), BuildingBlock: XIVTED_clean_linker_0, # of connection points: 2
#     Edge 81, Type (0, 1), BuildingBlock: XIVTED_clean_linker_0, # of connection points: 2
#     Edge 82, Type (0, 1), BuildingBlock: XIVTED_clean_linker_0, # of connection points: 2
#     Edge 83, Type (0, 1), BuildingBlock: XIVTED_clean_linker_0, # of connection points: 2
#     Edge 84, Type (0, 1), BuildingBlock: XIVTED_clean_linker_0, # of connection points: 2
#     Edge 85, Type (0, 1), BuildingBlock: XIVTED_clean_linker_0, # of connection points: 2
#     Edge 86, Type (0, 1), BuildingBlock: XIVTED_clean_linker_0, # of connection points: 2
#     Edge 87, Type (0, 1), BuildingBlock: XIVTED_clean_linker_0, # of connection points: 2
#     Edge 88, Type (0, 1), BuildingBlock: XIVTED_clean_linker_0, # of connection points: 2
#     Edge 89, Type (0, 1), BuildingBlock: XIVTED_clean_linker_0, # of connection points: 2
#     Edge 90, Type (0, 1), BuildingBlock: XIVTED_clean_linker_0, # of connection points: 2
#     Edge 91, Type (0, 1), BuildingBlock: XIVTED_clean_linker_0, # of connection points: 2
#     Edge 92, Type (0, 1), BuildingBlock: XIVTED_clean_linker_0, # of connection points: 2
#     Edge 93, Type (0, 1), BuildingBlock: XIVTED_clean_linker_0, # of connection points: 2
#     Edge 94, Type (0, 1), BuildingBlock: XIVTED_clean_linker_0, # of connection points: 2
#     Edge 95, Type (0, 1), BuildingBlock: XIVTED_clean_linker_0, # of connection points: 2
#     Edge 96, Type (0, 1), BuildingBlock: XIVTED_clean_linker_0, # of connection points: 2
#     Edge 97, Type (0, 1), BuildingBlock: XIVTED_clean_linker_0, # of connection points: 2
#     Edge 98, Type (0, 1), BuildingBlock: XIVTED_clean_linker_0, # of connection points: 2
#     Edge 99, Type (0, 1), BuildingBlock: XIVTED_clean_linker_0, # of connection points: 2
#     Edge 100, Type (0, 1), BuildingBlock: XIVTED_clean_linker_0, # of connection points: 2
#     Edge 101, Type (0, 1), BuildingBlock: XIVTED_clean_linker_0, # of connection points: 2
# Relax obj value: 0.150
# Max RMSD: 0.190
# Mean RMSD: 0.171
data_MOF--net-cor--node1-TATPOV_clean_sbu_0--node2-MIDCAF_clean_sbu_0--edge1-XIVTED_clean_linker_0
_symmetry_space_group_name_H-M    P1
_symmetry_Int_Tables_number       1
_symmetry_cell_setting            triclinic
loop_
_symmetry_equiv_pos_as_xyz
'x, y, z'
_cell_length_a     38.677325
_cell_length_b     38.661493
_cell_length_c     97.406329
_cell_angle_alpha  89.947472
_cell_angle_beta   91.0764
_cell_angle_gamma 120.20443
loop_
_atom_site_label
_atom_site_type_symbol
_atom_site_fract_x
_atom_site_fract_y
_atom_site_fract_z
_atom_type_partial_charge
Zn0 Zn 0.72186 0.90646 0.26579 0.0
Zn1 Zn 0.73397 0.98166 0.26924 0.0
O2 O 0.67552 0.9492 0.2748 0.0
O3 O 0.66606 0.88811 0.27277 0.0
O4 O 0.74646 0.03875 0.26724 0.0
O5 O 0.73471 0.9132 0.24529 0.0
O6 O 0.74575 0.97353 0.24956 0.0
C7 C 0.65343 0.9115 0.27607 0.0
C8 C 0.77901 0.95322 0.28777 0.0
O9 O 0.77048 0.98013 0.28456 0.0
O10 O 0.76439 0.92101 0.28079 0.0
C11 C 0.72863 0.04296 0.2568 0.0
O12 O 0.70116 0.01076 0.25028 0.0
C13 C 0.74493 0.94803 0.24116 0.0
Zn14 Zn 0.91611 0.73917 0.27864 0.0
Zn15 Zn 0.98056 0.73696 0.27052 0.0
O16 O 0.93205 0.68358 0.26437 0.0
O17 O 0.87819 0.68362 0.27115 0.0
O18 O 0.02583 0.72558 0.26828 0.0
O19 O 0.93434 0.74968 0.29859 0.0
O20 O 0.99011 0.75611 0.29077 0.0
C21 C 0.89411 0.6666 0.26492 0.0
C22 C 0.96489 0.7972 0.25712 0.0
O23 O 0.98645 0.7808 0.2573 0.0
O24 O 0.93607 0.7859 0.26532 0.0
C25 C 0.0239 0.69983 0.27687 0.0
O26 O -0.00608 0.68408 0.28538 0.0
C27 C 0.97034 0.7587 0.30064 0.0
Zn28 Zn 0.28995 0.18474 0.27266 0.0
Zn29 Zn 0.3116 0.26135 0.26953 0.0
O30 O 0.36323 0.26015 0.26523 0.0
O31 O 0.34587 0.19738 0.26929 0.0
O32 O 0.32824 0.32003 0.27093 0.0
O33 O 0.27216 0.18217 0.29205 0.0
O34 O 0.28818 0.24477 0.289 0.0
C35 C 0.37175 0.23225 0.26565 0.0
C36 C 0.2522 0.20014 0.24899 0.0
O37 O 0.27197 0.23656 0.25306 0.0
O38 O 0.25373 0.17307 0.25588 0.0
C39 C 0.32706 0.34329 0.26194 0.0
O40 O 0.31537 0.33006 0.24931 0.0
C41 C 0.27484 0.21404 0.29661 0.0
Zn42 Zn 0.28281 0.12465 0.76467 0.0
Zn43 Zn 0.2924 0.0611 0.76028 0.0
O44 O 0.34927 0.1076 0.75734 0.0
O45 O 0.34117 0.15965 0.76033 0.0
O46 O 0.29598 0.01086 0.76085 0.0
O47 O 0.26543 0.10924 0.78435 0.0
O48 O 0.27139 0.05702 0.77967 0.0
C49 C 0.36328 0.14534 0.7574 0.0
C50 C 0.23921 0.07637 0.74064 0.0
O51 O 0.25562 0.05584 0.74382 0.0
O52 O 0.24417 0.10501 0.74835 0.0
C53 C 0.26338 0.9779 0.76218 0.0
O54 O 0.22932 0.97756 0.76096 0.0
C55 C 0.26291 0.07668 0.78805 0.0
Zn56 Zn 0.11102 0.2767 0.75439 0.0
Zn57 Zn 0.04059 0.27426 0.75909 0.0
O58 O 0.08404 0.33053 0.76521 0.0
O59 O 0.14167 0.33494 0.76066 0.0
O60 O 0.99006 0.27732 0.75857 0.0
O61 O 0.09544 0.25951 0.7342 0.0
O62 O 0.03849 0.25491 0.7395 0.0
C63 C 0.12216 0.35031 0.76547 0.0
C64 C 0.06028 0.2223 0.77644 0.0
O65 O 0.03522 0.23348 0.7734 0.0
O66 O 0.09252 0.23556 0.76986 0.0
C67 C 0.98785 0.29659 0.7483 0.0
O68 O 0.01851 0.31415 0.74012 0.0
C69 C 0.06016 0.25076 0.73079 0.0
Zn70 Zn 0.74488 0.85128 0.76197 0.0
Zn71 Zn 0.73299 0.77633 0.7645 0.0
O72 O 0.67542 0.76558 0.76644 0.0
O73 O 0.685 0.82629 0.76308 0.0
O74 O 0.73057 0.72277 0.76368 0.0
O75 O 0.76952 0.85921 0.74323 0.0
O76 O 0.75938 0.79843 0.74589 0.0
C77 C 0.6618 0.7895 0.76547 0.0
C78 C 0.78018 0.83932 0.78687 0.0
O79 O 0.76567 0.80394 0.78203 0.0
O80 O 0.77683 0.86551 0.78005 0.0
C81 C 0.71973 0.7039 0.75226 0.0
O82 O 0.70567 0.7171 0.74246 0.0
C83 C 0.77153 0.82967 0.73864 0.0
Zn84 Zn 0.42486 0.24618 0.60404 0.0
Zn85 Zn 0.4167 0.31047 0.60081 0.0
O86 O 0.35881 0.26249 0.60249 0.0
O87 O 0.36603 0.20942 0.60256 0.0
O88 O 0.40923 0.35703 0.59515 0.0
O89 O 0.45799 0.25735 0.58733 0.0
O90 O 0.45083 0.30998 0.58477 0.0
C91 C 0.34372 0.22456 0.60279 0.0
C92 C 0.455 0.30294 0.62715 0.0
O93 O 0.44578 0.32442 0.6197 0.0
O94 O 0.449 0.2695 0.6227 0.0
C95 C 0.43923 0.3919 0.59351 0.0
O96 O 0.47522 0.39839 0.59664 0.0
C97 C 0.46464 0.28809 0.58067 0.0
Zn98 Zn 0.58202 0.09102 0.60284 0.0
Zn99 Zn 0.64801 0.08564 0.60058 0.0
O100 O 0.60136 0.02769 0.59741 0.0
O101 O 0.54696 0.03094 0.60089 0.0
O102 O 0.69641 0.07894 0.60219 0.0
O103 O 0.5993 0.11748 0.62162 0.0
O104 O 0.65378 0.11397 0.61921 0.0
C105 C 0.56333 0.01068 0.59793 0.0
C106 C 0.63123 0.13178 0.5789 0.0
O107 O 0.6545 0.11988 0.58357 0.0
O108 O 0.59983 0.12386 0.5853 0.0
C109 C 0.73211 0.10805 0.60156 0.0
O110 O 0.73842 0.14374 0.59833 0.0
C111 C 0.63302 0.12438 0.62624 0.0
Zn112 Zn 0.91687 0.53271 0.58963 0.0
Zn113 Zn 0.94786 0.61171 0.5905 0.0
O114 O -0.00059 0.611 0.5854 0.0
O115 O 0.97218 0.54531 0.58395 0.0
O116 O 0.95944 0.66832 0.59385 0.0
O117 O 0.9045 0.52543 0.60975 0.0
O118 O 0.92716 0.59016 0.60991 0.0
C119 C 0.00246 0.58013 0.58299 0.0
C120 C 0.88081 0.55905 0.56953 0.0
O121 O 0.9083 0.59307 0.57392 0.0
O122 O 0.87565 0.52738 0.57523 0.0
C123 C 0.92718 0.66912 0.59538 0.0
O124 O 0.89277 0.63584 0.59358 0.0
C125 C 0.9121 0.55696 0.61618 0.0
Zn126 Zn 0.93231 0.41982 0.08084 0.0
Zn127 Zn 0.95171 0.36208 0.08229 0.0
O128 O 0.0063 0.41221 0.07824 0.0
O129 O 0.99077 0.45987 0.07873 0.0
O130 O 0.96293 0.3177 0.08645 0.0
O131 O 0.90982 0.40811 0.10005 0.0
O132 O 0.92759 0.36241 0.10083 0.0
C133 C 0.01654 0.44911 0.07744 0.0
C134 C 0.89596 0.35883 0.05918 0.0
O135 O 0.91323 0.34261 0.06549 0.0
O136 O 0.89947 0.3913 0.06363 0.0
C137 C 0.93246 0.283 0.08766 0.0
O138 O 0.89688 0.2775 0.08445 0.0
C139 C 0.91264 0.38126 0.10657 0.0
Zn140 Zn 0.78283 0.62158 0.09352 0.0
Zn141 Zn 0.711 0.61472 0.0943 0.0
O142 O 0.75091 0.67143 0.10182 0.0
O143 O 0.81086 0.67911 0.09947 0.0
O144 O 0.6587 0.61511 0.09154 0.0
O145 O 0.77802 0.60371 0.07381 0.0
O146 O 0.71766 0.59525 0.07517 0.0
C147 C 0.78882 0.69244 0.1035 0.0
C148 C 0.72927 0.56716 0.11454 0.0
O149 O 0.70329 0.57539 0.10978 0.0
O150 O 0.76328 0.58186 0.10908 0.0
C151 C 0.65388 0.62948 0.08035 0.0
O152 O 0.68276 0.64372 0.07141 0.0
C153 C 0.74404 0.59252 0.06835 0.0
Zn154 Zn 0.39502 0.1688 0.09551 0.0
Zn155 Zn 0.38202 0.09589 0.09175 0.0
O156 O 0.32629 0.08244 0.09878 0.0
O157 O 0.33947 0.14426 0.10241 0.0
O158 O 0.38015 0.04326 0.08699 0.0
O159 O 0.40579 0.18489 0.07592 0.0
O160 O 0.396 0.12431 0.07273 0.0
C161 C 0.31563 0.10691 0.10303 0.0
C162 C 0.4421 0.15386 0.11406 0.0
O163 O 0.42284 0.11958 0.10818 0.0
O164 O 0.43814 0.1825 0.10966 0.0
C165 C 0.41267 0.04237 0.08752 0.0
O166 O 0.44569 0.07455 0.09167 0.0
C167 C 0.40375 0.15817 0.06793 0.0
Zn168 Zn 0.05016 0.57372 0.929 0.0
Zn169 Zn 0.05601 0.64597 0.93285 0.0
O170 O -0.0031 0.60873 0.93626 0.0
O171 O 0.99146 0.54941 0.93402 0.0
O172 O 0.06176 0.70017 0.93255 0.0
O173 O 0.06921 0.58761 0.90908 0.0
O174 O 0.07508 0.64593 0.91355 0.0
C175 C 0.97606 0.57078 0.93676 0.0
C176 C 0.10086 0.62009 0.95242 0.0
O177 O 0.09071 0.64553 0.94886 0.0
O178 O 0.08934 0.58853 0.9453 0.0
C179 C 0.09594 0.73163 0.93206 0.0
O180 O 0.12831 0.72904 0.93387 0.0
C181 C 0.07859 0.62256 0.90527 0.0
Zn182 Zn 0.25221 0.42372 0.93609 0.0
Zn183 Zn 0.32064 0.42209 0.93154 0.0
O184 O 0.27193 0.36992 0.92477 0.0
O185 O 0.21524 0.36572 0.93039 0.0
O186 O 0.36519 0.40863 0.93217 0.0
O187 O 0.2696 0.44226 0.956 0.0
O188 O 0.32557 0.44392 0.95109 0.0
C189 C 0.23387 0.3507 0.92467 0.0
C190 C 0.30612 0.47543 0.91358 0.0
O191 O 0.33089 0.46413 0.91703 0.0
O192 O 0.27379 0.46303 0.92006 0.0
C193 C 0.35574 0.37293 0.93528 0.0
O194 O 0.31799 0.34608 0.93702 0.0
C195 C 0.30453 0.45012 0.95954 0.0
Zn196 Zn 0.61431 0.85805 0.93114 0.0
Zn197 Zn 0.63723 0.93632 0.92835 0.0
O198 O 0.69019 0.93644 0.92747 0.0
O199 O 0.67163 0.87249 0.92889 0.0
O200 O 0.65324 0.99469 0.92821 0.0
O201 O 0.59377 0.85776 0.95022 0.0
O202 O 0.60865 0.91992 0.94682 0.0
C203 C 0.69878 0.90863 0.92747 0.0
C204 C 0.58297 0.87559 0.90637 0.0
O205 O 0.60298 0.91163 0.91077 0.0
O206 O 0.58124 0.84736 0.91353 0.0
C207 C 0.6708 0.01499 0.939 0.0
O208 O 0.67999 -0.00211 0.94895 0.0
C209 C 0.59454 0.88916 0.95439 0.0
Zn210 Zn 0.5915 0.75289 0.41838 0.0
Zn211 Zn 0.60884 0.69369 0.42136 0.0
O212 O 0.66329 0.74423 0.41778 0.0
O213 O 0.64998 0.79301 0.4153 0.0
O214 O 0.6229 0.65169 0.42619 0.0
O215 O 0.56888 0.74236 0.43783 0.0
O216 O 0.58117 0.69283 0.43919 0.0
C217 C 0.67492 0.7809 0.41539 0.0
C218 C 0.55587 0.68924 0.39722 0.0
O219 O 0.57265 0.67324 0.40399 0.0
O220 O 0.55883 0.72174 0.40139 0.0
C221 C 0.65361 0.65067 0.42241 0.0
O222 O 0.67805 0.67726 0.41367 0.0
C223 C 0.56775 0.71364 0.44451 0.0
Zn224 Zn 0.45331 0.94309 0.43313 0.0
Zn225 Zn 0.38065 0.93635 0.432 0.0
O226 O 0.41831 -0.00404 0.4364 0.0
O227 O 0.47815 0.00226 0.43671 0.0
O228 O 0.3272 0.93279 0.42845 0.0
O229 O 0.4475 0.91929 0.41411 0.0
O230 O 0.38737 0.91191 0.4141 0.0
C231 C 0.45602 0.01734 0.43831 0.0
C232 C 0.40041 0.89693 0.45537 0.0
O233 O 0.37511 0.90422 0.44943 0.0
O234 O 0.43426 0.90863 0.45012 0.0
C235 C 0.32181 0.94456 0.41681 0.0
O236 O 0.35094 0.9586 0.40796 0.0
C237 C 0.41388 0.90721 0.4082 0.0
Zn238 Zn 0.05229 0.47254 0.42569 0.0
Zn239 Zn 0.07185 0.41548 0.42161 0.0
O240 O 0.01242 0.38115 0.4256 0.0
O241 O -0.00464 0.42762 0.42701 0.0
O242 O 0.08732 0.37414 0.41688 0.0
O243 O 0.07222 0.49721 0.40726 0.0
O244 O 0.08317 0.4474 0.40357 0.0
C245 C 0.9861 0.39122 0.42709 0.0
C246 C 0.10593 0.47274 0.44661 0.0
O247 O 0.10419 0.44463 0.43923 0.0
O248 O 0.08697 0.49012 0.44291 0.0
C249 C 0.09926 0.3578 0.42563 0.0
O250 O 0.10319 0.36875 0.43859 0.0
C251 C 0.0824 0.47822 0.39929 0.0
Zn252 Zn 0.97071 0.00729 0.13706 0.0
Zn253 Zn -0.00446 0.07267 0.17927 0.0
Zn254 Zn 0.98566 0.03224 0.15968 0.0
C255 C 0.9812 0.99443 0.18706 0.0
C256 C 0.06759 0.10915 0.1705 0.0
O257 O 0.95704 0.06109 0.14792 0.0
O258 O 0.96503 0.04772 0.1266 0.0
C259 C 0.92414 0.94369 0.15287 0.0
O260 O 0.96859 0.98559 0.17458 0.0
O261 O -0.00241 0.0305 0.19115 0.0
O262 O 0.04592 0.12211 0.17507 0.0
O263 O 0.0506 0.07407 0.16484 0.0
O264 O 0.92088 0.95791 0.1416 0.0
O265 O 0.95247 0.96612 0.16141 0.0
O266 O 0.04442 0.05272 0.1512 0.0
O267 O 0.02118 0.00576 0.13521 0.0
C268 C 0.05058 0.03295 0.14192 0.0
O269 O 0.93828 0.04947 0.16087 0.0
O270 O 0.9473 0.07584 0.18159 0.0
C271 C 0.95589 0.06668 0.1349 0.0
C272 C 0.92555 0.06136 0.17098 0.0
Zn273 Zn 0.05129 0.02715 0.35556 0.0
Zn274 Zn 0.04509 0.01748 0.40839 0.0
Zn275 Zn 0.0447 0.02098 0.38159 0.0
C276 C 0.07772 0.09803 0.40184 0.0
C277 C 0.96509 0.9723 0.39873 0.0
O278 O 0.06557 0.98015 0.37423 0.0
O279 O 0.07006 0.98937 0.35179 0.0
C280 C 0.09982 0.10321 0.36455 0.0
O281 O 0.07508 0.08324 0.38974 0.0
O282 O 0.06512 0.07515 0.41207 0.0
O283 O 0.98708 0.9783 0.40924 0.0
O284 O 0.98077 0.98905 0.38727 0.0
O285 O 0.08858 0.08383 0.35341 0.0
O286 O 0.08643 0.08524 0.37606 0.0
O287 O 0.98283 -0.00243 0.37317 0.0
O288 O -0.00473 0.00911 0.35103 0.0
C289 C 0.97084 -0.00297 0.36069 0.0
O290 O 0.07628 0.98866 0.38824 0.0
O291 O 0.08201 -0.00342 0.4108 0.0
C292 C 0.07246 0.97125 0.36221 0.0
C293 C 0.08981 0.98432 0.39994 0.0
Zn294 Zn 0.05857 0.01879 0.90117 0.0
Zn295 Zn 0.01555 0.95402 0.85643 0.0
Zn296 Zn 0.03507 0.99386 0.87682 0.0
C297 C 0.02807 0.03243 0.85099 0.0
C298 C 0.94944 0.91729 0.86794 0.0
O299 O 0.07022 0.96777 0.8855 0.0
O300 O 0.08036 0.98484 0.90747 0.0
C301 C 0.08949 0.08543 0.88429 0.0
O302 O 0.0478 0.0406 0.86241 0.0
O303 O 0.00693 -0.00369 0.84703 0.0
O304 O 0.96919 0.90331 0.86253 0.0
O305 O 0.96868 0.9524 0.87359 0.0
O306 O 0.09581 0.07442 0.8958 0.0
O307 O 0.06439 0.05963 0.87559 0.0
O308 O 0.97969 0.97025 0.88789 0.0
O309 O 0.00412 0.00517 0.90709 0.0
C310 C 0.97436 0.98152 0.89965 0.0
O311 O 0.07921 0.97498 0.87139 0.0
O312 O 0.06166 0.95123 0.85029 0.0
C313 C 0.0828 0.96514 0.89761 0.0
C314 C 0.08679 0.96294 0.86009 0.0
Zn315 Zn 0.98034 0.00182 0.66971 0.0
Zn316 Zn 0.97863 -0.00069 0.61747 0.0
Zn317 Zn 0.98278 0.00099 0.64481 0.0
C318 C 0.94074 0.91999 0.62625 0.0
C319 C 0.05984 0.03667 0.62598 0.0
O320 O 0.96328 0.04315 0.6519 0.0
O321 O 0.94746 0.02648 0.67345 0.0
C322 C 0.93867 0.92332 0.66446 0.0
O323 O 0.94995 0.9376 0.63809 0.0
O324 O 0.94854 0.94025 0.6154 0.0
O325 O 0.03748 0.02722 0.61538 0.0
O326 O 0.04474 0.02836 0.63802 0.0
O327 O 0.958 0.94558 0.67451 0.0
O328 O 0.94261 0.93866 0.65242 0.0
O329 O 0.04565 0.02577 0.65256 0.0
O330 O 0.03736 0.03587 0.67424 0.0
C331 C 0.06019 0.03887 0.6647 0.0
O332 O 0.95342 0.03465 0.63749 0.0
O333 O 0.95076 0.03003 0.61482 0.0
C334 C 0.9507 0.0485 0.66343 0.0
C335 C 0.94294 0.04213 0.62572 0.0
Zn336 Zn 0.73045 0.37725 0.49372 0.0
Zn337 Zn 0.66375 0.34518 0.45308 0.0
Zn338 Zn 0.68768 0.36163 0.47603 0.0
C339 C 0.73056 0.33494 0.45625 0.0
C340 C 0.60235 0.29087 0.47085 0.0
O341 O 0.64667 0.33544 0.4931 0.0
O342 O 0.69114 0.38356 0.50645 0.0
C343 C 0.75328 0.44566 0.48507 0.0
O344 O 0.7313 0.35033 0.46787 0.0
O345 O 0.70296 0.32808 0.44761 0.0
O346 O 0.60875 0.30313 0.45861 0.0
O347 O 0.62993 0.30873 0.48016 0.0
O348 O 0.77337 0.42795 0.48507 0.0
O349 O 0.71543 0.42461 0.48252 0.0
O350 O 0.66432 0.30834 0.48965 0.0
O351 O 0.72598 0.32259 0.49442 0.0
C352 C 0.6887 0.29784 0.49482 0.0
O353 O 0.68483 0.41462 0.47006 0.0
O354 O 0.67388 0.39943 0.44801 0.0
C355 C 0.65485 0.35759 0.50395 0.0
C356 C 0.68071 0.42386 0.45772 0.0
Zn357 Zn 0.72656 0.38958 0.74134 0.0
Zn358 Zn 0.71605 0.39378 0.69321 0.0
Zn359 Zn 0.72021 0.39056 0.71587 0.0
C360 C 0.65075 0.39157 0.69983 0.0
C361 C 0.78469 0.45787 0.69829 0.0
O362 O 0.75175 0.357 0.72046 0.0
O363 O 0.76687 0.37283 0.74241 0.0
C364 C 0.64569 0.34132 0.73418 0.0
O365 O 0.65785 0.37196 0.70909 0.0
O366 O 0.67908 0.41559 0.6924 0.0
O367 O 0.77305 0.42977 0.68966 0.0
O368 O 0.76387 0.45264 0.70907 0.0
O369 O 0.6702 0.34668 0.74383 0.0
O370 O 0.65828 0.35966 0.72275 0.0
O371 O 0.75161 0.45417 0.72227 0.0
O372 O 0.74183 0.44636 0.74459 0.0
C373 C 0.75282 0.46892 0.73426 0.0
O374 O 0.73461 0.34615 0.7072 0.0
O375 O 0.69406 0.33596 0.68958 0.0
C376 C 0.76978 0.35638 0.73165 0.0
C377 C 0.71369 0.32452 0.69685 0.0
Zn378 Zn 0.7067 0.32426 0.23195 0.0
Zn379 Zn 0.68886 0.30844 0.1837 0.0
Zn380 Zn 0.69758 0.31854 0.20612 0.0
C381 C 0.68465 0.3737 0.18676 0.0
C382 C 0.62836 0.24396 0.19085 0.0
O383 O 0.73743 0.29464 0.21206 0.0
O384 O 0.74214 0.30192 0.23464 0.0
C385 C 0.73172 0.40118 0.22238 0.0
O386 O 0.70788 0.37475 0.19663 0.0
O387 O 0.66233 0.34081 0.18065 0.0
O388 O 0.65673 0.24893 0.18339 0.0
O389 O 0.63525 0.27095 0.19998 0.0
O390 O 0.72881 0.38254 0.23333 0.0
O391 O 0.72126 0.38259 0.21076 0.0
O392 O 0.63708 0.28231 0.21416 0.0
O393 O 0.64969 0.28998 0.23652 0.0
C394 C 0.62486 0.2759 0.22659 0.0
O395 O 0.74445 0.30648 0.19825 0.0
O396 O 0.74478 0.33327 0.1783 0.0
C397 C 0.7501 0.28958 0.22383 0.0
C398 C 0.76149 0.3215 0.18679 0.0
Zn399 Zn 0.63174 0.30246 1.00026 0.0
Zn400 Zn 0.64237 0.32372 0.95055 0.0
Zn401 Zn 0.64063 0.31733 0.97732 0.0
C402 C 0.66165 0.26451 0.9572 0.0
C403 C 0.70046 0.39809 0.96292 0.0
O404 O 0.67158 0.37582 0.98795 0.0
O405 O 0.63051 0.35216 1.00526 0.0
C406 C 0.55967 0.25552 0.99092 0.0
O407 O 0.66124 0.27702 0.96945 0.0
O408 O 0.65293 0.27914 0.947 0.0
O409 O 0.68815 0.38003 0.95149 0.0
O410 O 0.68442 0.3801 0.97414 0.0
O411 O 0.5821 0.25007 0.99905 0.0
O412 O 0.5756 0.2852 0.98258 0.0
O413 O 0.67344 0.28554 0.98315 0.0
O414 O 0.67954 0.30018 1.00525 0.0
C415 C 0.68943 0.28731 0.99506 0.0
O416 O 0.58046 0.30339 0.96967 0.0
O417 O 0.58775 0.31467 0.94733 0.0
C418 C 0.65675 0.38188 0.99878 0.0
C419 C 0.56645 0.30603 0.95784 0.0
Zn420 Zn 0.34093 0.73971 0.83764 0.0
Zn421 Zn 0.30751 0.6938 0.79089 0.0
Zn422 Zn 0.32483 0.70883 0.81626 0.0
C423 C 0.39098 0.72971 0.79407 0.0
C424 C 0.27201 0.62081 0.80521 0.0
O425 O 0.27892 0.7248 0.8224 0.0
O426 O 0.29154 0.73381 0.84466 0.0
C427 C 0.4065 0.78527 0.82692 0.0
O428 O 0.38269 0.73418 0.80642 0.0
O429 O 0.36325 0.71164 0.7852 0.0
O430 O 0.26999 0.63615 0.79399 0.0
O431 O 0.2944 0.64303 0.81518 0.0
O432 O 0.38366 0.79454 0.83291 0.0
O433 O 0.39066 0.75143 0.82042 0.0
O434 O 0.31109 0.65762 0.82892 0.0
O435 O 0.35493 0.69854 0.84437 0.0
C436 C 0.33297 0.66331 0.83972 0.0
O437 O 0.29166 0.73924 0.80894 0.0
O438 O 0.28582 0.72902 0.78648 0.0
C439 C 0.26851 0.72849 0.83458 0.0
C440 C 0.28172 0.74584 0.7969 0.0
Zn441 Zn 0.37907 0.71005 0.07084 0.0
Zn442 Zn 0.3796 0.71428 0.01741 0.0
Zn443 Zn 0.37738 0.70941 0.04337 0.0
C444 C 0.29999 0.67953 0.02332 0.0
C445 C 0.42735 0.791 0.0254 0.0
O446 O 0.41215 0.68051 0.05021 0.0
O447 O 0.41609 0.68848 0.07278 0.0
C448 C 0.29879 0.66289 0.06147 0.0
O449 O 0.31423 0.6811 0.03552 0.0
O450 O 0.32296 0.69362 0.01329 0.0
O451 O 0.41468 0.77085 0.01444 0.0
O452 O 0.41625 0.7736 0.03712 0.0
O453 O 0.32022 0.67298 0.07232 0.0
O454 O 0.31484 0.67526 0.04969 0.0
O455 O 0.40374 0.77257 0.05074 0.0
O456 O 0.3997 0.76839 0.07337 0.0
C457 C 0.40792 0.78916 0.06263 0.0
O458 O 0.40036 0.67042 0.03618 0.0
O459 O 0.39985 0.67765 0.01369 0.0
C460 C 0.42544 0.6769 0.06206 0.0
C461 C 0.40523 0.66094 0.02397 0.0
Zn462 Zn 0.34639 0.64325 0.57166 0.0
Zn463 Zn 0.34955 0.6584 0.52364 0.0
Zn464 Zn 0.35083 0.65203 0.54565 0.0
C465 C 0.34659 0.71984 0.53142 0.0
C466 C 0.28786 0.58963 0.52551 0.0
O467 O 0.38419 0.62041 0.54987 0.0
O468 O 0.37291 0.61035 0.57212 0.0
C469 C 0.38916 0.72607 0.5668 0.0
O470 O 0.36884 0.71456 0.5402 0.0
O471 O 0.32199 0.6904 0.52413 0.0
O472 O 0.31885 0.6006 0.5186 0.0
O473 O 0.29036 0.61036 0.53624 0.0
O474 O 0.3786 0.70134 0.57652 0.0
O475 O 0.38014 0.71346 0.5543 0.0
O476 O 0.28608 0.6188 0.54989 0.0
O477 O 0.28686 0.61745 0.57259 0.0
C478 C 0.26754 0.61057 0.56136 0.0
O479 O 0.39553 0.63873 0.53635 0.0
O480 O 0.40837 0.68708 0.52189 0.0
C481 C 0.38745 0.60538 0.56129 0.0
C482 C 0.4187 0.66409 0.52741 0.0
Zn483 Zn 0.3279 0.6645 0.28456 0.0
Zn484 Zn 0.3017 0.62283 0.33192 0.0
Zn485 Zn 0.3179 0.64829 0.31026 0.0
C486 C 0.36171 0.61099 0.3275 0.0
C487 C 0.23266 0.58412 0.3207 0.0
O488 O 0.25977 0.63776 0.30126 0.0
O489 O 0.27569 0.65989 0.28011 0.0
C490 C 0.38232 0.73369 0.2999 0.0
O491 O 0.35016 0.61498 0.31537 0.0
O492 O 0.34681 0.61747 0.33787 0.0
O493 O 0.25221 0.5719 0.32755 0.0
O494 O 0.25198 0.61735 0.31417 0.0
O495 O 0.37394 0.71946 0.28782 0.0
O496 O 0.36298 0.71197 0.31013 0.0
O497 O 0.33822 0.60851 0.30153 0.0
O498 O 0.33682 0.61969 0.27933 0.0
C499 C 0.34117 0.60008 0.28893 0.0
O500 O 0.34667 0.70161 0.32353 0.0
O501 O 0.30042 0.67115 0.33903 0.0
C502 C 0.25036 0.64665 0.28953 0.0
C503 C 0.32896 0.70318 0.33436 0.0
H504 H 0.21669 0.12743 0.23598 0.0
H505 H 0.11744 0.18843 0.17613 0.0
H506 H 0.23905 0.24795 0.23106 0.0
H507 H 0.11076 0.07385 0.17822 0.0
H508 H 0.17034 0.21429 0.19381 0.0
H509 H 0.18347 0.10974 0.21354 0.0
C510 C 0.21447 0.15024 0.23022 0.0
C511 C 0.23032 0.1892 0.23556 0.0
C512 C 0.15813 0.18381 0.19016 0.0
C513 C 0.19237 0.16899 0.20959 0.0
C514 C 0.12828 0.16916 0.17992 0.0
C515 C 0.10922 0.12873 0.17587 0.0
C516 C 0.16865 0.15766 0.19649 0.0
C517 C 0.12443 0.10513 0.1811 0.0
C518 C 0.19578 0.14014 0.21729 0.0
C519 C 0.22692 0.21745 0.22745 0.0
N520 N 0.15252 0.11963 0.19141 0.0
N521 N 0.208 0.20669 0.21493 0.0
H522 H 0.75578 0.90599 0.22042 0.0
H523 H 0.89096 0.10221 0.181 0.0
H524 H 0.76182 0.01842 0.2291 0.0
H525 H 0.86398 0.9864 0.16593 0.0
H526 H 0.83141 0.07012 0.19498 0.0
H527 H 0.78454 0.93162 0.19791 0.0
C528 C 0.76261 0.9358 0.21754 0.0
C529 C 0.7573 0.9604 0.22682 0.0
C530 C 0.83755 0.05161 0.18828 0.0
C531 C 0.7901 0.98992 0.20108 0.0
C532 C 0.87125 0.07011 0.18009 0.0
C533 C 0.88266 0.04687 0.17249 0.0
C534 C 0.81593 0.00961 0.18912 0.0
C535 C 0.85628 0.00538 0.17174 0.0
C536 C 0.77883 0.95037 0.20464 0.0
C537 C 0.76621 -0.00138 0.22244 0.0
N538 N 0.82493 0.98785 0.1804 0.0
N539 N 0.78272 0.01237 0.21001 0.0
H540 H 0.94898 0.85749 0.26014 0.0
H541 H 0.9729 0.92052 0.18165 0.0
H542 H -0.00593 0.80666 0.23099 0.0
H543 H 0.98221 -0.00121 0.21487 0.0
H544 H 0.97163 0.87272 0.19868 0.0
H545 H 0.95275 0.90466 0.24277 0.0
C546 C 0.96 0.8565 0.25009 0.0
C547 C 0.97141 0.82829 0.247 0.0
C548 C 0.97398 0.90044 0.20216 0.0
C549 C 0.975 0.8817 0.22696 0.0
C550 C 0.97435 0.92748 0.19249 0.0
C551 C 0.97769 0.96365 0.19686 0.0
C552 C 0.97617 0.90946 0.21624 0.0
C553 C 0.97978 0.97136 0.21102 0.0
C554 C 0.96212 0.88341 0.24018 0.0
C555 C 0.98539 0.82827 0.2338 0.0
N556 N 0.97878 0.94446 0.22017 0.0
N557 N 0.9864 0.85436 0.22417 0.0
H558 H 0.27959 0.17406 0.31885 0.0
H559 H 0.1013 0.16662 0.35204 0.0
H560 H 0.24029 0.25594 0.30632 0.0
H561 H 0.17567 0.13043 0.3737 0.0
H562 H 0.15851 0.21266 0.33848 0.0
H563 H 0.24927 0.16768 0.34112 0.0
C564 C 0.26494 0.1911 0.32088 0.0
C565 C 0.26167 0.21489 0.31067 0.0
C566 C 0.16299 0.19608 0.34661 0.0
C567 C 0.2263 0.20735 0.3361 0.0
C568 C 0.13038 0.17023 0.35452 0.0
C569 C 0.13374 0.1442 0.36376 0.0
C570 C 0.19861 0.19487 0.34781 0.0
C571 C 0.17187 0.14977 0.36654 0.0
C572 C 0.24795 0.18778 0.33366 0.0
C573 C 0.24302 0.2369 0.3139 0.0
N574 N 0.20256 0.17328 0.35817 0.0
N575 N 0.22504 0.23177 0.32622 0.0
H576 H 0.79682 0.89866 0.29861 0.0
H577 H 0.93526 0.04178 0.35919 0.0
H578 H 0.81416 0.01648 0.30612 0.0
H579 H 0.915 0.92323 0.35178 0.0
H580 H 0.88108 0.02847 0.34279 0.0
H581 H 0.83261 0.90382 0.32001 0.0
C582 C 0.80834 0.92578 0.30471 0.0
C583 C 0.80283 0.95741 0.30042 0.0
C584 C 0.88751 0.00483 0.34506 0.0
C585 C 0.84368 0.9633 0.32518 0.0
C586 C 0.91789 0.01218 0.35463 0.0
C587 C 0.9291 0.98334 0.3569 0.0
C588 C 0.86883 0.9686 0.33761 0.0
C589 C 0.90673 0.94596 0.35042 0.0
C590 C 0.82851 0.92854 0.31704 0.0
C591 C 0.81805 0.99153 0.30892 0.0
N592 N 0.87813 0.93989 0.34086 0.0
N593 N 0.838 0.99367 0.32085 0.0
H594 H 0.93681 0.76035 0.32503 0.0
H595 H 0.12104 0.96083 0.34495 0.0
H596 H 0.05096 0.80079 0.30628 0.0
H597 H 0.02427 0.89769 0.37287 0.0
H598 H 0.10227 0.89767 0.33336 0.0
H599 H 0.97133 0.80387 0.34478 0.0
C600 C 0.9692 0.77775 0.32519 0.0
C601 C 0.99094 0.7776 0.31383 0.0
C602 C 0.0859 0.89721 0.34233 0.0
C603 C 0.03068 0.82798 0.33635 0.0
C604 C 0.09692 0.9333 0.34902 0.0
C605 C 0.07382 0.9344 0.35974 0.0
C606 C 0.05075 0.86235 0.34611 0.0
C607 C 0.04272 0.89803 0.36459 0.0
C608 C 0.98896 0.80251 0.33651 0.0
C609 C 0.03291 0.80038 0.31471 0.0
N610 N 0.03113 0.86356 0.35743 0.0
N611 N 0.05134 0.8254 0.3256 0.0
H612 H 0.80995 0.91026 0.80106 0.0
H613 H 0.89416 0.83899 0.86304 0.0
H614 H 0.79046 0.79051 0.80497 0.0
H615 H 0.91214 0.9581 0.85988 0.0
H616 H 0.84333 0.81674 0.84473 0.0
H617 H 0.83797 0.92537 0.82441 0.0
C618 C 0.81162 0.88712 0.8068 0.0
C619 C 0.79831 0.84918 0.80092 0.0
C620 C 0.85752 0.84752 0.84827 0.0
C621 C 0.82995 0.86622 0.82783 0.0
C622 C 0.88607 0.86006 0.85891 0.0
C623 C 0.90789 0.90059 0.86281 0.0
C624 C 0.85111 0.87585 0.84142 0.0
C625 C 0.89623 0.92663 0.85713 0.0
C626 C 0.82732 0.89569 0.8202 0.0
C627 C 0.80077 0.82031 0.80898 0.0
N628 N 0.86947 0.9141 0.84641 0.0
N629 N 0.81654 0.82953 0.82196 0.0
H630 H 0.25421 0.1151 0.81024 0.0
H631 H 0.10946 0.91757 0.84573 0.0
H632 H 0.24154 0.00217 0.79765 0.0
H633 H 0.15576 0.03191 0.86595 0.0
H634 H 0.16699 0.94662 0.83074 0.0
H635 H 0.22619 0.08601 0.83244 0.0
C636 C 0.24584 0.08429 0.81219 0.0
C637 C 0.24941 0.0608 0.80197 0.0
C638 C 0.16549 0.96515 0.83877 0.0
C639 C 0.21736 0.02728 0.82736 0.0
C640 C 0.13287 0.94834 0.84746 0.0
C641 C 0.12762 0.97262 0.85688 0.0
C642 C 0.19221 0.00664 0.83932 0.0
C643 C 0.15863 0.0123 0.85871 0.0
C644 C 0.23022 0.06779 0.82492 0.0
C645 C 0.23876 0.02125 0.80515 0.0
N646 N 0.18894 0.02858 0.84963 0.0
N647 N 0.22251 0.00552 0.81746 0.0
H648 H 0.98891 0.16885 0.78806 0.0
H649 H 0.08974 0.10987 0.84915 0.0
H650 H 0.11632 0.21614 0.79189 0.0
H651 H 0.97256 0.02717 0.83224 0.0
H652 H 0.09646 0.15901 0.83182 0.0
H653 H 0.9793 0.12544 0.8078 0.0
C654 C 0.0148 0.17016 0.79307 0.0
C655 C 0.0534 0.19573 0.78825 0.0
C656 C 0.06916 0.1302 0.83204 0.0
C657 C 0.04274 0.14719 0.81091 0.0
C658 C 0.06523 0.10235 0.84195 0.0
C659 C 0.03076 0.06435 0.84199 0.0
C660 C 0.03808 0.12014 0.82234 0.0
C661 C -0.00015 0.05601 0.83242 0.0
C662 C 0.00931 0.14549 0.8043 0.0
C663 C 0.08598 0.19644 0.79515 0.0
N664 N 0.00424 0.08367 0.82296 0.0
N665 N 0.07993 0.17264 0.80617 0.0
H666 H 0.77435 0.87617 0.71712 0.0
H667 H 0.86104 0.89325 0.65659 0.0
H668 H 0.80331 0.78568 0.72851 0.0
H669 H 0.93823 0.86683 0.68129 0.0
H670 H 0.80706 0.85594 0.67269 0.0
H671 H 0.80283 0.88046 0.69463 0.0
C672 C 0.7864 0.85693 0.71483 0.0
C673 C 0.78694 0.83093 0.72475 0.0
C674 C 0.83546 0.85725 0.67435 0.0
C675 C 0.81903 0.83508 0.69888 0.0
C676 C 0.86598 0.87766 0.66496 0.0
C677 C 0.90441 0.88409 0.66789 0.0
C678 C 0.84374 0.84314 0.68657 0.0
C679 C 0.90912 0.86316 0.67887 0.0
C680 C 0.80201 0.85883 0.70188 0.0
C681 C 0.80256 0.80635 0.72117 0.0
N682 N 0.87949 0.8446 0.6881 0.0
N683 N 0.81889 0.80973 0.70863 0.0
H684 H 0.22672 0.0224 0.71986 0.0
H685 H 0.09663 0.99453 0.66443 0.0
H686 H 0.20404 0.11738 0.73065 0.0
H687 H 0.11485 0.11017 0.67575 0.0
H688 H 0.14766 0.00301 0.68137 0.0
H689 H 0.19513 0.01692 0.69734 0.0
C690 C 0.21468 0.04176 0.71756 0.0
C691 C 0.2176 0.07001 0.72728 0.0
C692 C 0.14201 0.02743 0.67983 0.0
C693 C 0.18146 0.06412 0.70145 0.0
C694 C 0.11318 0.02277 0.66994 0.0
C695 C 0.1017 0.05175 0.66873 0.0
C696 C 0.15923 0.06141 0.68851 0.0
C697 C 0.12308 0.08724 0.67637 0.0
C698 C 0.19667 0.0387 0.70464 0.0
C699 C 0.20218 0.09482 0.72362 0.0
N700 N 0.15015 0.0907 0.68613 0.0
N701 N 0.18488 0.09124 0.71107 0.0
H702 H 0.09709 0.24096 0.70842 0.0
H703 H 0.90331 0.06222 0.68034 0.0
H704 H 0.9822 0.21845 0.72224 0.0
H705 H 0.00708 0.12215 0.65502 0.0
H706 H 0.92809 0.12344 0.69399 0.0
H707 H 0.06427 0.20184 0.68756 0.0
C708 C 0.06512 0.22834 0.70699 0.0
C709 C 0.04233 0.23239 0.71723 0.0
C710 C 0.94481 0.12376 0.68515 0.0
C711 C 0.00456 0.18741 0.69346 0.0
C712 C 0.93035 0.08891 0.67725 0.0
C713 C 0.95346 0.08702 0.66668 0.0
C714 C 0.98313 0.15634 0.68267 0.0
C715 C 0.98845 0.12233 0.66315 0.0
C716 C 0.04641 0.20623 0.69504 0.0
C717 C 0.00098 0.21567 0.71473 0.0
N718 N 0.00308 0.15517 0.67147 0.0
N719 N 0.98334 0.19323 0.70326 0.0
H720 H 0.80275 0.50443 0.56358 0.0
H721 H 0.83088 0.50661 0.48734 0.0
H722 H 0.90661 0.60577 0.54671 0.0
H723 H 0.71297 0.46684 0.50269 0.0
H724 H 0.85988 0.54848 0.5079 0.0
H725 H 0.76846 0.49245 0.54121 0.0
C726 C 0.818 0.52459 0.55521 0.0
C727 C 0.85757 0.55593 0.55693 0.0
C728 C 0.82764 0.53174 0.50653 0.0
C729 C 0.81901 0.54191 0.53128 0.0
C730 C 0.81108 0.50805 0.49474 0.0
C731 C 0.76951 0.48267 0.49342 0.0
C732 C 0.80242 0.52896 0.51718 0.0
C733 C 0.74522 0.48562 0.50335 0.0
C734 C 0.79839 0.51794 0.54249 0.0
C735 C 0.87604 0.58128 0.54578 0.0
N736 N 0.76204 0.50709 0.51508 0.0
N737 N 0.85701 0.57306 0.53329 0.0
H738 H 0.47344 0.23763 0.5635 0.0
H739 H 0.6601 0.40481 0.52562 0.0
H740 H 0.51125 0.36233 0.56968 0.0
H741 H 0.57947 0.29221 0.5055 0.0
H742 H 0.61045 0.38903 0.54338 0.0
H743 H 0.51686 0.25571 0.54363 0.0
C744 C 0.49081 0.2688 0.56063 0.0
C745 C 0.48894 0.2986 0.56824 0.0
C746 C 0.60365 0.36796 0.53502 0.0
C747 C 0.53887 0.31938 0.54572 0.0
C748 C 0.63196 0.37678 0.52493 0.0
C749 C 0.62413 0.34943 0.51421 0.0
C750 C 0.56768 0.33121 0.5345 0.0
C751 C 0.58699 0.31383 0.51371 0.0
C752 C 0.51533 0.27902 0.54928 0.0
C753 C 0.51183 0.3385 0.56405 0.0
N754 N 0.56032 0.30542 0.52386 0.0
N755 N 0.53639 0.34786 0.55316 0.0
H756 H 0.69508 0.15483 0.56179 0.0
H757 H 0.61666 0.25746 0.50766 0.0
H758 H 0.5851 0.15696 0.56556 0.0
H759 H 0.73018 0.26252 0.50453 0.0
H760 H 0.60088 0.21306 0.52726 0.0
H761 H 0.7059 0.18869 0.53967 0.0
C762 C 0.67325 0.16244 0.558 0.0
C763 C 0.63926 0.15322 0.56563 0.0
C764 C 0.62903 0.22337 0.52218 0.0
C765 C 0.65123 0.19157 0.54024 0.0
C766 C 0.63784 0.24842 0.51085 0.0
C767 C 0.6748 0.26382 0.50442 0.0
C768 C 0.65749 0.21378 0.52719 0.0
C769 C 0.70135 0.25145 0.5092 0.0
C770 C 0.67936 0.18162 0.54534 0.0
C771 C 0.61188 0.16362 0.56013 0.0
N772 N 0.69237 0.22752 0.52037 0.0
N773 N 0.6185 0.18223 0.54783 0.0
H774 H 0.91838 0.50818 0.63482 0.0
H775 H 0.78311 0.52222 0.68796 0.0
H776 H 0.88933 0.60192 0.6313 0.0
H777 H 0.86206 0.47738 0.69803 0.0
H778 H 0.82712 0.56084 0.66926 0.0
H779 H 0.90193 0.50175 0.65906 0.0
C780 C 0.90867 0.52755 0.63921 0.0
C781 C 0.90463 0.55519 0.63104 0.0
C782 C 0.83588 0.54407 0.67595 0.0
C783 C 0.88537 0.54786 0.65882 0.0
C784 C 0.81111 0.52258 0.6868 0.0
C785 C 0.81891 0.49637 0.69441 0.0
C786 C 0.86806 0.53855 0.67272 0.0
C787 C 0.85504 0.49721 0.69232 0.0
C788 C 0.8997 0.52423 0.65309 0.0
C789 C 0.89253 0.58003 0.63728 0.0
N790 N 0.87762 0.51678 0.68137 0.0
N791 N 0.88239 0.57515 0.65076 0.0
H792 H 0.4559 0.2564 0.64793 0.0
H793 H 0.62613 0.44063 0.68909 0.0
H794 H 0.49429 0.37926 0.63815 0.0
H795 H 0.58366 0.31752 0.69954 0.0
H796 H 0.56722 0.41924 0.67421 0.0
H797 H 0.49181 0.27823 0.66986 0.0
C798 C 0.47173 0.28806 0.65045 0.0
C799 C 0.4729 0.31619 0.64105 0.0
C800 C 0.57009 0.39692 0.68004 0.0
C801 C 0.51438 0.34147 0.66623 0.0
C802 C 0.60356 0.40916 0.68863 0.0
C803 C 0.60988 0.3807 0.69541 0.0
C804 C 0.54318 0.35588 0.67805 0.0
C805 C 0.57987 0.34039 0.69449 0.0
C806 C 0.49206 0.30048 0.66303 0.0
C807 C 0.49307 0.35665 0.64502 0.0
N808 N 0.54822 0.32906 0.68568 0.0
N809 N 0.51368 0.36818 0.65722 0.0
H810 H 0.70969 0.1585 0.63704 0.0
H811 H 0.77076 0.31467 0.68443 0.0
H812 H 0.59257 0.13993 0.64573 0.0
H813 H 0.64963 0.25057 0.69846 0.0
H814 H 0.75575 0.25872 0.66899 0.0
H815 H 0.73608 0.19984 0.65787 0.0
C816 C 0.68947 0.16293 0.64337 0.0
C817 C 0.64895 0.14628 0.63948 0.0
C818 C 0.73284 0.25583 0.67587 0.0
C819 C 0.67905 0.19403 0.66327 0.0
C820 C 0.74165 0.28777 0.68481 0.0
C821 C 0.71147 0.28687 0.6928 0.0
C822 C 0.6934 0.22317 0.67489 0.0
C823 C 0.67379 0.25206 0.69256 0.0
C824 C 0.70466 0.18683 0.65523 0.0
C825 C 0.62411 0.15266 0.64816 0.0
N826 N 0.66558 0.22201 0.68354 0.0
N827 N 0.63959 0.17611 0.65956 0.0
H828 H 0.45778 0.10002 0.12737 0.0
H829 H 0.60227 0.16988 0.18011 0.0
H830 H 0.47712 0.2199 0.13071 0.0
H831 H 0.56403 0.2546 0.18879 0.0
H832 H 0.54932 0.1384 0.16268 0.0
H833 H 0.49167 0.1094 0.14973 0.0
C834 C 0.46955 0.12844 0.13271 0.0
C835 C 0.46518 0.15945 0.12701 0.0
C836 C 0.55112 0.16267 0.16876 0.0
C837 C 0.50372 0.17034 0.15263 0.0
C838 C 0.5813 0.18053 0.17882 0.0
C839 C 0.58768 0.21507 0.18581 0.0
C840 C 0.52748 0.17986 0.16561 0.0
C841 C 0.56007 0.22798 0.18366 0.0
C842 C 0.48885 0.13376 0.1455 0.0
C843 C 0.48028 0.19532 0.13454 0.0
N844 N 0.53192 0.21113 0.17343 0.0
N845 N 0.49876 0.1997 0.14691 0.0
H846 H 0.90552 0.4303 0.12499 0.0
H847 H 0.77238 0.26365 0.17551 0.0
H848 H 0.89071 0.31243 0.12096 0.0
H849 H 0.83374 0.38842 0.18682 0.0
H850 H 0.82059 0.27873 0.15726 0.0
H851 H 0.88223 0.4149 0.14852 0.0
C852 C 0.89739 0.40116 0.12908 0.0
C853 C 0.89954 0.37243 0.12096 0.0
C854 C 0.8246 0.3026 0.1641 0.0
C855 C 0.87278 0.35448 0.14794 0.0
C856 C 0.79751 0.29383 0.17469 0.0
C857 C 0.79924 0.32489 0.18263 0.0
C858 C 0.85282 0.34275 0.16139 0.0
C859 C 0.83163 0.36366 0.18092 0.0
C860 C 0.88453 0.39251 0.14258 0.0
C861 C 0.8892 0.33534 0.12686 0.0
N862 N 0.85644 0.37176 0.1702 0.0
N863 N 0.87555 0.32713 0.13992 0.0
H864 H 0.78434 0.56036 0.13028 0.0
H865 H 0.74759 0.45086 0.18885 0.0
H866 H 0.65811 0.52036 0.12781 0.0
H867 H 0.62943 0.37954 0.17077 0.0
H868 H 0.75885 0.50584 0.1736 0.0
H869 H 0.77353 0.52184 0.151 0.0
C870 C 0.75424 0.54359 0.13414 0.0
C871 C 0.72197 0.54333 0.12718 0.0
C872 C 0.7304 0.47819 0.17301 0.0
C873 C 0.70954 0.49981 0.15137 0.0
C874 C 0.72374 0.44709 0.18189 0.0
C875 C 0.68797 0.41031 0.18079 0.0
C876 C 0.70112 0.47212 0.16297 0.0
C877 C 0.65786 0.40716 0.17169 0.0
C878 C 0.74823 0.52212 0.14619 0.0
C879 C 0.68379 0.52124 0.1328 0.0
N880 N 0.66533 0.43742 0.16298 0.0
N881 N 0.67852 0.49983 0.14447 0.0
H882 H 0.41354 0.22418 0.05427 0.0
H883 H 0.50919 0.28498 0.99401 0.0
H884 H 0.41032 0.11222 0.04773 0.0
H885 H 0.51382 0.17608 0.99539 0.0
H886 H 0.45344 0.25585 1.00972 0.0
H887 H 0.43335 0.24237 0.03078 0.0
C888 C 0.41657 0.20312 0.0478 0.0
C889 C 0.41124 0.16702 0.05312 0.0
C890 C 0.46604 0.23784 1.00653 0.0
C891 C 0.4337 0.18749 0.02578 0.0
C892 C 0.49726 0.25423 0.99718 0.0
C893 C 0.51669 0.23323 0.99376 0.0
C894 C 0.45504 0.20058 1.01256 0.0
C895 C 0.50003 0.1935 0.99807 0.0
C896 C 0.42761 0.21341 0.0342 0.0
C897 C 0.41482 0.14069 0.04416 0.0
N898 N 0.47097 0.17888 1.00757 0.0
N899 N 0.42648 0.15177 0.03102 0.0
H900 H 0.84914 0.27909 0.05242 0.0
H901 H 0.76409 0.33194 0.98532 0.0
H902 H 0.88956 0.39764 0.03692 0.0
H903 H 0.69197 0.23096 1.01092 0.0
H904 H 0.8238 0.34347 0.99838 0.0
H905 H 0.80436 0.25094 0.0321 0.0
C906 C 0.84911 0.29908 0.04462 0.0
C907 C 0.87236 0.34071 0.04643 0.0
C908 C 0.79511 0.31774 1.00076 0.0
C909 C 0.82253 0.30891 0.02316 0.0
C910 C 0.76116 0.31073 0.99315 0.0
C911 C 0.72325 0.28061 0.99714 0.0
C912 C 0.7908 0.29424 1.01233 0.0
C913 C 0.72086 0.25452 1.00758 0.0
C914 C 0.82374 0.28305 0.03306 0.0
C915 C 0.87146 0.36537 0.03603 0.0
N916 N 0.75411 0.26243 0.01505 0.0
N917 N 0.84681 0.34913 0.02488 0.0
H918 H 0.67207 0.5594 0.0544 0.0
H919 H 0.73327 0.4465 0.99962 0.0
H920 H 0.79181 0.57896 0.05124 0.0
H921 H 0.61248 0.4082 1.01141 0.0
H922 H 0.75696 0.50729 0.01378 0.0
H923 H 0.6522 0.51656 0.03398 0.0
C924 C 0.69438 0.55522 0.04931 0.0
C925 C 0.7335 0.57224 0.05473 0.0
C926 C 0.7252 0.48592 0.01302 0.0
C927 C 0.71082 0.52298 0.03133 0.0
C928 C 0.7117 0.45148 1.00486 0.0
C929 C 0.67098 0.42228 1.00449 0.0
C930 C 0.69761 0.49112 0.02067 0.0
C931 C 0.64421 0.42986 1.01157 0.0
C932 C 0.68297 0.53066 0.03765 0.0
C933 C 0.76117 0.56601 0.04756 0.0
N934 N 0.65801 0.46333 0.01945 0.0
N935 N 0.74917 0.54146 0.03633 0.0
H936 H 0.57429 0.92613 0.88851 0.0
H937 H 0.45187 0.75165 0.8334 0.0
H938 H 0.55019 0.80471 0.89218 0.0
H939 H 0.45449 0.86443 0.83311 0.0
H940 H 0.50476 0.77824 0.85108 0.0
H941 H 0.54406 0.90996 0.86535 0.0
C942 C 0.56268 0.89612 0.88447 0.0
C943 C 0.56421 0.86658 0.89242 0.0
C944 C 0.49464 0.79763 0.84686 0.0
C945 C 0.53041 0.84815 0.86583 0.0
C946 C 0.465 0.78271 0.83652 0.0
C947 C 0.44848 0.80575 0.83189 0.0
C948 C 0.50771 0.83578 0.85255 0.0
C949 C 0.46621 0.84559 0.83653 0.0
C950 C 0.54569 0.88699 0.87122 0.0
C951 C 0.54913 0.82832 0.88655 0.0
N952 N 0.49422 0.85907 0.84684 0.0
N953 N 0.53277 0.82021 0.87367 0.0
H954 H 0.10478 0.69722 0.8949 0.0
H955 H 0.20073 0.65818 0.82922 0.0
H956 H 0.09064 0.58237 0.88417 0.0
H957 H 0.24473 0.77324 0.84862 0.0
H958 H 0.14254 0.63014 0.84415 0.0
H959 H 0.13901 0.72418 0.87338 0.0
C960 C 0.10844 0.67745 0.88796 0.0
C961 C 0.09542 0.63755 0.89151 0.0
C962 C 0.16415 0.66186 0.84477 0.0
C963 C 0.13447 0.66846 0.86672 0.0
C964 C 0.19693 0.67805 0.83606 0.0
C965 C 0.22742 0.71806 0.83772 0.0
C966 C 0.16191 0.68612 0.85503 0.0
C967 C 0.22169 0.74229 0.84701 0.0
C968 C 0.12793 0.69294 0.87565 0.0
C969 C 0.10066 0.61342 0.88197 0.0
N970 N 0.18995 0.7258 0.85549 0.0
N971 N 0.12019 0.62937 0.87008 0.0
H972 H 0.377 0.52636 0.90091 0.0
H973 H 0.27033 0.58625 0.84171 0.0
H974 H 0.24966 0.48041 0.89808 0.0
H975 H 0.39197 0.66482 0.85573 0.0
H976 H 0.26524 0.53611 0.85836 0.0
H977 H 0.38545 0.56758 0.88058 0.0
C978 C 0.3509 0.52484 0.896 0.0
C979 C 0.31268 0.50045 0.90132 0.0
C980 C 0.2932 0.56415 0.85761 0.0
C981 C 0.32196 0.54642 0.87799 0.0
C982 C 0.29618 0.59255 0.84807 0.0
C983 C 0.3314 0.62983 0.84753 0.0
C984 C 0.32588 0.57302 0.86645 0.0
C985 C 0.36406 0.63659 0.85599 0.0
C986 C 0.3557 0.54823 0.88442 0.0
C987 C 0.27978 0.49933 0.89449 0.0
N988 N 0.36046 0.60857 0.86517 0.0
N989 N 0.28517 0.52192 0.88319 0.0
H990 H 0.56281 0.93449 0.96324 0.0
H991 H 0.50349 0.81834 0.03399 0.0
H992 H 0.59359 0.84707 0.97697 0.0
H993 H 0.42858 0.85357 1.01215 0.0
H994 H 0.55818 0.85955 0.01863 0.0
H995 H 0.53327 0.93103 0.98571 0.0
C996 C 0.56389 0.91507 0.97104 0.0
C997 C 0.57975 0.89028 0.96817 0.0
C998 C 0.53035 0.85978 0.0176 0.0
C999 C 0.54756 0.8874 0.9939 0.0
C1000 C 0.49937 0.83694 0.02657 0.0
C1001 C 0.46127 0.83176 0.02403 0.0
C1002 C 0.52299 0.87791 1.00629 0.0
C1003 C 0.45748 0.85635 0.01423 0.0
C1004 C 0.5473 0.91334 0.98385 0.0
C1005 C 0.5808 0.86597 0.97866 0.0
N1006 N 0.48756 0.87739 1.00536 0.0
N1007 N 0.56471 0.86497 0.99103 0.0
H1008 H 0.12971 0.68314 0.97067 0.0
H1009 H 0.24729 0.60289 0.01609 0.0
H1010 H 0.12375 0.56985 0.96397 0.0
H1011 H 0.25851 0.71847 0.02185 0.0
H1012 H 0.18961 0.58368 1.0007 0.0
H1013 H 0.16701 0.69149 0.99213 0.0
C1014 C 0.13624 0.66002 0.97369 0.0
C1015 C 0.12405 0.62601 0.96537 0.0
C1016 C 0.20378 0.61281 1.00566 0.0
C1017 C 0.16633 0.63516 0.99006 0.0
C1018 C 0.23619 0.62342 0.01466 0.0
C1019 C 0.25719 0.66209 0.02031 0.0
C1020 C 0.19301 0.64146 1.00213 0.0
C1021 C 0.24259 0.68816 0.01781 0.0
C1022 C 0.15729 0.66468 0.98601 0.0
C1023 C 0.13296 0.59682 0.96993 0.0
N1024 N 0.21188 0.67771 1.00866 0.0
N1025 N 0.15375 0.60221 0.9819 0.0
H1026 H 0.26713 0.45833 0.98201 0.0
H1027 H 0.45433 0.65047 1.00697 0.0
H1028 H 0.38373 0.48936 0.96729 0.0
H1029 H 0.35373 0.58694 0.03337 0.0
H1030 H 0.43323 0.58852 0.9941 0.0
H1031 H 0.29928 0.50143 1.00213 0.0
C1032 C 0.29943 0.47367 0.98311 0.0
C1033 C 0.32274 0.47065 0.97282 0.0
C1034 C 0.41652 0.58764 1.00302 0.0
C1035 C 0.35977 0.52042 0.99576 0.0
C1036 C 0.42894 0.62295 1.01048 0.0
C1037 C 0.40567 0.62375 0.0212 0.0
C1038 C 0.37989 0.55339 1.00604 0.0
C1039 C 0.37258 0.58746 0.02519 0.0
C1040 C 0.31778 0.4981 0.99465 0.0
C1041 C 0.36451 0.49101 0.97488 0.0
N1042 N 0.35978 0.55399 0.0173 0.0
N1043 N 0.38171 0.5157 0.98594 0.0
H1044 H 0.15123 0.44336 0.45824 0.0
H1045 H 0.21814 0.59127 0.52318 0.0
H1046 H 0.10955 0.52623 0.46579 0.0
H1047 H 0.27234 0.52138 0.5125 0.0
H1048 H 0.16637 0.55545 0.50537 0.0
H1049 H 0.18612 0.46163 0.48058 0.0
C1050 C 0.14942 0.4654 0.46456 0.0
C1051 C 0.12789 0.48369 0.46001 0.0
C1052 C 0.189 0.54721 0.50717 0.0
C1053 C 0.16727 0.50432 0.4857 0.0
C1054 C 0.21811 0.56719 0.51749 0.0
C1055 C 0.24956 0.55936 0.51919 0.0
C1056 C 0.1916 0.51935 0.49858 0.0
C1057 C 0.24861 0.52838 0.5114 0.0
C1058 C 0.16914 0.47564 0.47736 0.0
C1059 C 0.12621 0.5117 0.46876 0.0
N1060 N 0.22055 0.50996 0.50128 0.0
N1061 N 0.14578 0.52128 0.48113 0.0
H1062 H 0.56221 0.76435 0.46269 0.0
H1063 H 0.41954 0.60253 0.51398 0.0
H1064 H 0.53751 0.64287 0.45852 0.0
H1065 H 0.49352 0.72666 0.52541 0.0
H1066 H 0.46345 0.6134 0.49455 0.0
H1067 H 0.5359 0.74939 0.48589 0.0
C1068 C 0.55119 0.7345 0.46665 0.0
C1069 C 0.55182 0.70478 0.45861 0.0
C1070 C 0.47094 0.63788 0.50162 0.0
C1071 C 0.5215 0.6873 0.48522 0.0
C1072 C 0.44632 0.63147 0.51287 0.0
C1073 C 0.45304 0.66377 0.5213 0.0
C1074 C 0.50184 0.67693 0.49878 0.0
C1075 C 0.48746 0.70097 0.51915 0.0
C1076 C 0.53655 0.72605 0.47996 0.0
C1077 C 0.5375 0.66666 0.46437 0.0
N1078 N 0.50991 0.70683 0.50791 0.0
N1079 N 0.52235 0.6588 0.47725 0.0
H1080 H 0.32996 0.86226 0.46952 0.0
H1081 H 0.41977 0.78694 0.52905 0.0
H1082 H 0.45251 0.88887 0.47251 0.0
H1083 H 0.29368 0.74174 0.52239 0.0
H1084 H 0.43428 0.84016 0.5126 0.0
H1085 H 0.31808 0.83101 0.49216 0.0
C1086 C 0.35434 0.86158 0.47492 0.0
C1087 C 0.39206 0.87753 0.46897 0.0
C1088 C 0.40343 0.81931 0.51504 0.0
C1089 C 0.37893 0.84264 0.49497 0.0
C1090 C 0.3952 0.78938 0.52464 0.0
C1091 C 0.35551 0.75974 0.52691 0.0
C1092 C 0.37167 0.81926 0.50773 0.0
C1093 C 0.32472 0.76391 0.52075 0.0
C1094 C 0.34764 0.84402 0.48788 0.0
C1095 C 0.42272 0.87633 0.47655 0.0
N1096 N 0.3334 0.79255 0.51119 0.0
N1097 N 0.41542 0.859 0.48908 0.0
H1098 H 0.09205 0.54691 0.38752 0.0
H1099 H 0.17443 0.50614 0.31919 0.0
H1100 H 0.09432 0.43895 0.37814 0.0
H1101 H 0.19819 0.62258 0.33228 0.0
H1102 H 0.12271 0.47559 0.33645 0.0
H1103 H 0.11153 0.56934 0.36399 0.0
C1104 C 0.09638 0.52778 0.3805 0.0
C1105 C 0.09241 0.49136 0.38491 0.0
C1106 C 0.1381 0.50775 0.33519 0.0
C1107 C 0.11403 0.51662 0.3579 0.0
C1108 C 0.16706 0.52512 0.32516 0.0
C1109 C 0.19059 0.56688 0.32436 0.0
C1110 C 0.13315 0.53249 0.34454 0.0
C1111 C 0.18039 0.59023 0.33247 0.0
C1112 C 0.10724 0.54052 0.36704 0.0
C1113 C 0.09783 0.4676 0.37529 0.0
N1114 N 0.15317 0.57278 0.34252 0.0
N1115 N 0.10872 0.48082 0.36228 0.0
H1116 H 0.51412 0.60982 0.38927 0.0
H1117 H 0.43753 0.66284 0.32005 0.0
H1118 H 0.5496 0.72859 0.37507 0.0
H1119 H 0.3666 0.55412 0.34237 0.0
H1120 H 0.49499 0.67805 0.33509 0.0
H1121 H 0.47464 0.58212 0.36783 0.0
C1122 C 0.51404 0.63002 0.38157 0.0
C1123 C 0.53443 0.67148 0.38405 0.0
C1124 C 0.46729 0.65001 0.33634 0.0
C1125 C 0.49069 0.64025 0.35946 0.0
C1126 C 0.43474 0.6409 0.32755 0.0
C1127 C 0.39729 0.60735 0.33007 0.0
C1128 C 0.4622 0.62513 0.34757 0.0
C1129 C 0.39507 0.58035 0.34014 0.0
C1130 C 0.4917 0.61425 0.36936 0.0
C1131 C 0.53362 0.69639 0.37371 0.0
N1132 N 0.4268 0.59028 0.34879 0.0
N1133 N 0.51202 0.68041 0.36192 0.0
H1134 H 0.46323 0.8929 0.39214 0.0
H1135 H 0.28252 0.7241 0.3485 0.0
H1136 H 0.34234 0.87086 0.394 0.0
H1137 H 0.40525 0.76702 0.33803 0.0
H1138 H 0.30466 0.78041 0.36436 0.0
H1139 H 0.44407 0.84991 0.37167 0.0
C1140 C 0.43279 0.8794 0.38818 0.0
C1141 C 0.40423 0.88512 0.39493 0.0
C1142 C 0.32684 0.77803 0.35846 0.0
C1143 C 0.38211 0.83572 0.37156 0.0
C1144 C 0.31419 0.74585 0.3494 0.0
C1145 C 0.34215 0.74089 0.342 0.0
C1146 C 0.36792 0.80507 0.36041 0.0
C1147 C 0.38277 0.76995 0.34351 0.0
C1148 C 0.42192 0.85495 0.37646 0.0
C1149 C 0.36532 0.86706 0.38925 0.0
N1150 N 0.39457 0.8005 0.35275 0.0
N1151 N 0.35533 0.84283 0.37802 0.0
H1152 H 0.25033 0.03028 0.10416 0.0
H1153 H 0.12261 0.10042 0.14818 0.0
H1154 H 0.29255 0.15215 0.11717 0.0
H1155 H 0.07091 0.98559 0.12765 0.0
H1156 H 0.18845 0.11628 0.14001 0.0
H1157 H 0.18669 0.00996 0.11548 0.0
C1158 C 0.24626 0.05268 0.10937 0.0
C1159 C 0.27664 0.09299 0.10957 0.0
C1160 C 0.16267 0.0875 0.13738 0.0
C1161 C 0.20457 0.07005 0.12265 0.0
C1162 C 0.12517 0.0784 0.14212 0.0
C1163 C 0.09124 0.04189 0.13847 0.0
C1164 C 0.16614 0.05979 0.129 0.0
C1165 C 0.09626 0.01439 0.13055 0.0
C1166 C 0.21006 0.04112 0.11584 0.0
C1167 C 0.26988 0.12078 0.11657 0.0
N1168 N 0.13294 0.02398 0.12602 0.0
N1169 N 0.23467 0.1088 0.12281 0.0
H1170 H 0.99125 0.29029 0.10553 0.0
H1171 H 0.91354 0.05956 0.11153 0.0
H1172 H 0.88066 0.20255 0.08573 0.0
H1173 H 0.97611 0.14026 0.14539 0.0
H1174 H 0.90593 0.11208 0.10031 0.0
H1175 H 0.99277 0.23643 0.11837 0.0
C1176 C 0.96758 0.25966 0.10376 0.0
C1177 C 0.93589 0.25075 0.0945 0.0
C1178 C 0.92085 0.11812 0.11028 0.0
C1179 C 0.93744 0.18938 0.10914 0.0
C1180 C 0.92514 0.08824 0.11668 0.0
C1181 C 0.9454 0.09574 0.12939 0.0
C1182 C 0.93798 0.15612 0.11644 0.0
C1183 C 0.96003 0.13334 0.13564 0.0
C1184 C 0.96823 0.2291 0.11121 0.0
C1185 C 0.90567 0.21065 0.09275 0.0
N1186 N 0.95667 0.16252 0.12897 0.0
N1187 N 0.90735 0.18136 0.09993 0.0
H1188 H 0.75131 0.72895 0.11537 0.0
H1189 H 0.95023 0.89065 0.15522 0.0
H1190 H 0.86655 0.73724 0.11254 0.0
H1191 H 0.84351 0.89892 0.1516 0.0
H1192 H 0.9137 0.82351 0.14493 0.0
H1193 H 0.78002 0.7833 0.13242 0.0
C1194 C 0.7827 0.74244 0.1182 0.0
C1195 C 0.80661 0.72873 0.11237 0.0
C1196 C 0.89787 0.83948 0.14679 0.0
C1197 C 0.8393 0.79006 0.13219 0.0
C1198 C 0.91849 0.87739 0.15297 0.0
C1199 C 0.89976 0.90017 0.15417 0.0
C1200 C 0.85843 0.82463 0.14184 0.0
C1201 C 0.85886 0.88208 0.15081 0.0
C1202 C 0.79894 0.77313 0.12806 0.0
C1203 C 0.847 0.74702 0.11661 0.0
N1204 N 0.83972 0.84567 0.1445 0.0
N1205 N 0.86201 0.77665 0.12626 0.0
H1206 H 0.12345 0.31528 0.44166 0.0
H1207 H 0.07967 0.15238 0.38315 0.0
H1208 H 0.08879 0.32403 0.39999 0.0
H1209 H 0.10712 0.1415 0.42551 0.0
H1210 H 0.09328 0.22023 0.38811 0.0
H1211 H 0.12728 0.25649 0.435 0.0
C1212 C 0.11694 0.30506 0.43108 0.0
C1213 C 0.10531 0.32441 0.42142 0.0
C1214 C 0.0969 0.20319 0.39627 0.0
C1215 C 0.10951 0.25682 0.4137 0.0
C1216 C 0.08954 0.16457 0.3934 0.0
C1217 C 0.09219 0.14116 0.40393 0.0
C1218 C 0.10688 0.21841 0.40977 0.0
C1219 C 0.10434 0.15833 0.4171 0.0
C1220 C 0.11914 0.27143 0.42727 0.0
C1221 C 0.09755 0.30989 0.40782 0.0
N1222 N 0.11088 0.19569 0.41966 0.0
N1223 N 0.09944 0.27678 0.40439 0.0
H1224 H 0.70702 0.85549 0.40401 0.0
H1225 H 0.93168 0.90685 0.41468 0.0
H1226 H 0.73936 0.77042 0.41922 0.0
H1227 H 0.90052 0.97109 0.38542 0.0
H1228 H 0.86102 0.85961 0.41786 0.0
H1229 H 0.77726 0.90125 0.39853 0.0
C1230 C 0.72887 0.84646 0.40624 0.0
C1231 C 0.71731 0.80912 0.41218 0.0
C1232 C 0.86947 0.88381 0.41066 0.0
C1233 C 0.79754 0.86136 0.40594 0.0
C1234 C 0.90983 0.91096 0.40888 0.0
C1235 C 0.92195 0.94302 0.3998 0.0
C1236 C 0.84065 0.88894 0.4035 0.0
C1237 C 0.89237 0.94662 0.39246 0.0
C1238 C 0.76885 0.87249 0.40301 0.0
C1239 C 0.74685 0.79889 0.4147 0.0
N1240 N 0.85289 0.92008 0.39459 0.0
N1241 N 0.7856 0.82498 0.41167 0.0
H1242 H 0.30039 0.96461 0.39244 0.0
H1243 H 0.10157 0.94781 0.42192 0.0
H1244 H 0.25676 0.9223 0.43306 0.0
H1245 H 0.14098 0.98477 0.38058 0.0
H1246 H 0.15436 0.93153 0.42523 0.0
H1247 H 0.23934 0.96636 0.38712 0.0
C1248 C 0.2779 0.9555 0.40024 0.0
C1249 C 0.28393 0.94365 0.41328 0.0
C1250 C 0.15123 0.94267 0.41536 0.0
C1251 C 0.21381 0.94557 0.40721 0.0
C1252 C 0.121 0.95191 0.41344 0.0
C1253 C 0.11697 0.96784 0.40096 0.0
C1254 C 0.1781 0.94986 0.40478 0.0
C1255 C 0.14281 0.97229 0.39033 0.0
C1256 C 0.24296 0.95641 0.39716 0.0
C1257 C 0.25355 0.93189 0.42291 0.0
N1258 N 0.17267 0.96387 0.39254 0.0
N1259 N 0.21998 0.93344 0.41971 0.0
H1260 H 0.72304 0.85696 0.91913 0.0
H1261 H 0.95414 0.02095 0.91792 0.0
H1262 H 0.76788 0.98141 0.92911 0.0
H1263 H 0.90273 0.91488 0.89228 0.0
H1264 H 0.88735 0.00241 0.92553 0.0
H1265 H 0.79044 0.87355 0.91272 0.0
C1266 C 0.74713 0.88772 0.92012 0.0
C1267 C 0.73989 0.91793 0.92465 0.0
C1268 C 0.8907 0.98323 0.91823 0.0
C1269 C 0.8168 0.93688 0.91734 0.0
C1270 C 0.92877 0.99362 0.91392 0.0
C1271 C 0.93391 0.96947 0.90438 0.0
C1272 C 0.85753 0.94811 0.91313 0.0
C1273 C 0.9 0.93454 0.89951 0.0
C1274 C 0.78545 0.89712 0.91636 0.0
C1275 C 0.77215 0.95726 0.92562 0.0
N1276 N 0.86311 0.92475 0.90399 0.0
N1277 N 0.80931 0.96561 0.92203 0.0
H1278 H 0.15674 0.80899 0.93632 0.0
H1279 H 0.06446 0.89806 0.88274 0.0
H1280 H 0.04271 0.73831 0.91537 0.0
H1281 H 0.12928 0.96484 0.91906 0.0
H1282 H 0.07332 0.8426 0.89031 0.0
H1283 H 0.16154 0.86976 0.92625 0.0
C1284 C 0.13279 0.80633 0.92964 0.0
C1285 C 0.09902 0.76879 0.92682 0.0
C1286 C 0.08617 0.86974 0.89647 0.0
C1287 C 0.10507 0.83727 0.91497 0.0
C1288 C 0.08147 0.9015 0.89211 0.0
C1289 C 0.09571 0.93582 0.90039 0.0
C1290 C 0.10575 0.87267 0.90906 0.0
C1291 C 0.1174 0.9386 0.91248 0.0
C1292 C 0.13563 0.84081 0.92389 0.0
C1293 C 0.06894 0.76675 0.918 0.0
N1294 N 0.12154 0.90722 0.91653 0.0
N1295 N 0.07279 0.8005 0.91232 0.0
H1296 H 0.26583 0.31217 0.91101 0.0
H1297 H 0.05537 0.13171 0.88508 0.0
H1298 H 0.15286 0.30458 0.91921 0.0
H1299 H 0.16804 0.13625 0.88049 0.0
H1300 H 0.09137 0.20183 0.89278 0.0
H1301 H 0.23114 0.25339 0.89622 0.0
C1302 C 0.23362 0.29801 0.90978 0.0
C1303 C 0.21219 0.31315 0.91653 0.0
C1304 C 0.1083 0.18793 0.88966 0.0
C1305 C 0.17217 0.24572 0.89936 0.0
C1306 C 0.08779 0.14821 0.885 0.0
C1307 C 0.10897 0.12857 0.8821 0.0
C1308 C 0.15012 0.20766 0.89145 0.0
C1309 C 0.15081 0.15066 0.88253 0.0
C1310 C 0.21385 0.26455 0.90121 0.0
C1311 C 0.17054 0.29367 0.91436 0.0
N1312 N 0.17004 0.18886 0.88738 0.0
N1313 N 0.15184 0.26081 0.90601 0.0
H1314 H 0.86914 0.68811 0.5911 0.0
H1315 H 0.96532 0.87721 0.64177 0.0
H1316 H 0.98425 0.73146 0.61113 0.0
H1317 H 0.89032 0.86698 0.60689 0.0
H1318 H 0.96024 0.81358 0.63496 0.0
H1319 H 0.86621 0.7451 0.60062 0.0
C1320 C 0.8939 0.70976 0.59746 0.0
C1321 C 0.9272 0.70534 0.60023 0.0
C1322 C 0.94432 0.82499 0.62898 0.0
C1323 C 0.92341 0.76986 0.61145 0.0
C1324 C 0.94664 0.86087 0.63297 0.0
C1325 C 0.92819 0.87726 0.62485 0.0
C1326 C 0.92277 0.80519 0.61697 0.0
C1327 C 0.90498 0.85529 0.61341 0.0
C1328 C 0.8921 0.74212 0.60292 0.0
C1329 C 0.95832 0.73412 0.6086 0.0
N1330 N 0.90305 0.82045 0.60977 0.0
N1331 N 0.95557 0.76512 0.61401 0.0
H1332 H 0.29805 0.14768 0.59392 0.0
H1333 H 0.11516 0.09888 0.64195 0.0
H1334 H 0.2925 0.23968 0.61714 0.0
H1335 H 0.10248 0.03015 0.60542 0.0
H1336 H 0.18498 0.14586 0.63603 0.0
H1337 H 0.2296 0.09986 0.60049 0.0
C1338 C 0.28215 0.15788 0.60026 0.0
C1339 C 0.30069 0.19766 0.60493 0.0
C1340 C 0.1669 0.12023 0.62942 0.0
C1341 C 0.22307 0.14294 0.61281 0.0
C1342 C 0.1274 0.09317 0.63289 0.0
C1343 C 0.1033 0.06065 0.62417 0.0
C1344 C 0.18225 0.11414 0.61728 0.0
C1345 C 0.1202 0.05495 0.61239 0.0
C1346 C 0.24325 0.13059 0.60405 0.0
C1347 C 0.27897 0.20935 0.6132 0.0
N1348 N 0.15868 0.08145 0.60929 0.0
N1349 N 0.24131 0.18192 0.61703 0.0
H1350 H 0.81118 0.15419 0.59507 0.0
H1351 H 0.88434 0.03429 0.64295 0.0
H1352 H 0.73009 0.04992 0.61805 0.0
H1353 H 0.94404 0.09161 0.60564 0.0
H1354 H 0.83459 0.05468 0.63811 0.0
H1355 H 0.86673 0.14466 0.6027 0.0
C1356 C 0.80509 0.12937 0.60173 0.0
C1357 C 0.76594 0.10252 0.6058 0.0
C1358 C 0.85903 0.06331 0.63113 0.0
C1359 C 0.82925 0.09221 0.61483 0.0
C1360 C 0.88762 0.05213 0.63396 0.0
C1361 C 0.91819 0.06122 0.62464 0.0
C1362 C 0.86156 0.08428 0.61904 0.0
C1363 C 0.92073 0.08385 0.61303 0.0
C1364 C 0.83674 0.12403 0.60608 0.0
C1365 C 0.75974 0.07099 0.6145 0.0
N1366 N 0.8927 0.09453 0.61052 0.0
N1367 N 0.79108 0.0668 0.61877 0.0
H1368 H 0.92162 0.36402 0.41003 0.0
H1369 H 0.79119 0.33999 0.47271 0.0
H1370 H 0.95781 0.35443 0.45127 0.0
H1371 H 0.74259 0.311 0.43131 0.0
H1372 H 0.84873 0.33526 0.46539 0.0
H1373 H 0.85229 0.33305 0.41734 0.0
C1374 C 0.91451 0.35387 0.42052 0.0
C1375 C 0.94489 0.36145 0.4301 0.0
C1376 C 0.82509 0.32917 0.45796 0.0
C1377 C 0.86657 0.32813 0.43872 0.0
C1378 C 0.7924 0.33217 0.46212 0.0
C1379 C 0.76264 0.32694 0.45252 0.0
C1380 C 0.82826 0.32155 0.44408 0.0
C1381 C 0.76528 0.31608 0.439 0.0
C1382 C 0.87507 0.33645 0.42473 0.0
C1383 C 0.93478 0.34866 0.44362 0.0
N1384 N 0.79794 0.31451 0.43512 0.0
N1385 N 0.89643 0.33343 0.44765 0.0
H1386 H 0.70693 0.62894 0.41359 0.0
H1387 H 0.66242 0.47102 0.47366 0.0
H1388 H 0.6211 0.60511 0.44518 0.0
H1389 H 0.70696 0.46466 0.43402 0.0
H1390 H 0.66044 0.53082 0.46604 0.0
H1391 H 0.72 0.57845 0.42366 0.0
C1392 C 0.69096 0.61322 0.42266 0.0
C1393 C 0.66253 0.62085 0.42845 0.0
C1394 C 0.67101 0.51642 0.45911 0.0
C1395 C 0.67775 0.56363 0.44011 0.0
C1396 C 0.67235 0.48258 0.46347 0.0
C1397 C 0.68431 0.46271 0.45437 0.0
C1398 C 0.68247 0.53063 0.4457 0.0
C1399 C 0.69694 0.4788 0.44127 0.0
C1400 C 0.69844 0.58447 0.4284 0.0
C1401 C 0.64288 0.59976 0.44027 0.0
N1402 N 0.69559 0.51172 0.43732 0.0
N1403 N 0.65083 0.57207 0.44572 0.0
H1404 H 0.52896 0.06058 0.45092 0.0
H1405 H 0.52644 0.25912 0.46043 0.0
H1406 H 0.42221 0.06508 0.44061 0.0
H1407 H 0.60304 0.22991 0.48425 0.0
H1408 H 0.48361 0.18815 0.45453 0.0
H1409 H 0.5553 0.12354 0.46335 0.0
C1410 C 0.51117 0.07503 0.45114 0.0
C1411 C 0.47346 0.05768 0.44456 0.0
C1412 C 0.50889 0.19708 0.4615 0.0
C1413 C 0.50342 0.1299 0.45904 0.0
C1414 C 0.53305 0.23749 0.46501 0.0
C1415 C 0.56831 0.25034 0.47287 0.0
C1416 C 0.52077 0.1698 0.46567 0.0
C1417 C 0.57587 0.2213 0.4784 0.0
C1418 C 0.526 0.11074 0.45845 0.0
C1419 C 0.45158 0.07761 0.44543 0.0
N1420 N 0.55296 0.18249 0.47437 0.0
N1421 N 0.46709 0.11299 0.45243 0.0
H1422 H 0.7083 0.66399 0.72792 0.0
H1423 H 0.77521 0.51397 0.75773 0.0
H1424 H 0.74999 0.66916 0.76971 0.0
H1425 H 0.7462 0.51715 0.71493 0.0
H1426 H 0.77141 0.57415 0.76187 0.0
H1427 H 0.72463 0.61217 0.72276 0.0
C1428 C 0.7207 0.6541 0.73606 0.0
C1429 C 0.72749 0.67082 0.74932 0.0
C1430 C 0.76646 0.56212 0.75153 0.0
C1431 C 0.7467 0.61159 0.74339 0.0
C1432 C 0.76887 0.52786 0.74913 0.0
C1433 C 0.76068 0.5103 0.73598 0.0
C1434 C 0.75526 0.57878 0.74074 0.0
C1435 C 0.75276 0.52967 0.72523 0.0
C1436 C 0.73031 0.62467 0.73305 0.0
C1437 C 0.74399 0.65699 0.75937 0.0
N1438 N 0.7496 0.56253 0.72789 0.0
N1439 N 0.75288 0.62809 0.75621 0.0
H1440 H 0.42535 0.1304 0.75606 0.0
H1441 H 0.57943 0.34357 0.72481 0.0
H1442 H 0.39534 0.22262 0.74905 0.0
H1443 H 0.61614 0.27183 0.74791 0.0
H1444 H 0.50916 0.29383 0.72935 0.0
H1445 H 0.4938 0.17702 0.74893 0.0
C1446 C 0.43315 0.16039 0.75302 0.0
C1447 C 0.40481 0.17282 0.75329 0.0
C1448 C 0.53272 0.28903 0.73333 0.0
C1449 C 0.4825 0.22583 0.74494 0.0
C1450 C 0.57259 0.31713 0.73066 0.0
C1451 C 0.6033 0.31163 0.73603 0.0
C1452 C 0.5239 0.25517 0.74122 0.0
C1453 C 0.59318 0.27725 0.74372 0.0
C1454 C 0.47211 0.18692 0.74896 0.0
C1455 C 0.41643 0.21197 0.74917 0.0
N1456 N 0.55432 0.25025 0.74606 0.0
N1457 N 0.4544 0.23709 0.74512 0.0
H1458 H 0.92167 0.2718 0.76418 0.0
H1459 H 0.81272 0.34707 0.71117 0.0
H1460 H 0.97051 0.32501 0.72509 0.0
H1461 H 0.78343 0.32282 0.75394 0.0
H1462 H 0.86227 0.3254 0.71429 0.0
H1463 H 0.8627 0.27759 0.75882 0.0
C1464 C 0.91994 0.28455 0.75446 0.0
C1465 C 0.95129 0.29847 0.74517 0.0
C1466 C 0.84456 0.32441 0.72292 0.0
C1467 C 0.88388 0.30486 0.73891 0.0
C1468 C 0.81619 0.33649 0.72112 0.0
C1469 C 0.79454 0.33731 0.73236 0.0
C1470 C 0.85071 0.31269 0.73601 0.0
C1471 C 0.80007 0.3233 0.74505 0.0
C1472 C 0.88628 0.2878 0.75139 0.0
C1473 C 0.94729 0.31441 0.73266 0.0
N1474 N 0.82775 0.31185 0.74655 0.0
N1475 N 0.91429 0.31734 0.72992 0.0
H1476 H 0.40884 0.19022 0.27206 0.0
H1477 H 0.56895 0.28624 0.2127 0.0
H1478 H 0.41996 0.28663 0.24663 0.0
H1479 H 0.58542 0.22853 0.24808 0.0
H1480 H 0.50506 0.27381 0.22192 0.0
H1481 H 0.4666 0.19397 0.26086 0.0
C1482 C 0.42375 0.21249 0.26421 0.0
C1483 C 0.40987 0.23841 0.26034 0.0
C1484 C 0.52239 0.26325 0.22751 0.0
C1485 C 0.47514 0.24201 0.24723 0.0
C1486 C 0.55838 0.26967 0.22215 0.0
C1487 C 0.58226 0.25831 0.22967 0.0
C1488 C 0.51024 0.24493 0.24036 0.0
C1489 C 0.56776 0.23774 0.242 0.0
C1490 C 0.45651 0.21442 0.25778 0.0
C1491 C 0.4301 0.26649 0.25005 0.0
N1492 N 0.53276 0.23191 0.24702 0.0
N1493 N 0.46163 0.26737 0.24375 0.0
H1494 H 0.77955 0.11725 0.26817 0.0
H1495 H 0.74087 0.23008 0.20627 0.0
H1496 H 0.70766 0.0594 0.23185 0.0
H1497 H 0.79439 0.28589 0.2453 0.0
H1498 H 0.74564 0.17169 0.21306 0.0
H1499 H 0.79917 0.18246 0.25794 0.0
C1500 C 0.76796 0.11825 0.25806 0.0
C1501 C 0.74131 0.08284 0.25098 0.0
C1502 C 0.75718 0.19711 0.22002 0.0
C1503 C 0.76417 0.1571 0.23912 0.0
C1504 C 0.75496 0.2307 0.21606 0.0
C1505 C 0.76636 0.26243 0.22538 0.0
C1506 C 0.77093 0.19546 0.23334 0.0
C1507 C 0.78447 0.26162 0.23792 0.0
C1508 C 0.77934 0.15542 0.25219 0.0
C1509 C 0.72765 0.08588 0.23782 0.0
N1510 N 0.78543 0.22828 0.24167 0.0
N1511 N 0.73905 0.12229 0.23236 0.0
H1512 H 0.91813 0.62836 0.24714 0.0
H1513 H 0.70163 0.43976 0.23639 0.0
H1514 H 0.81231 0.61987 0.26456 0.0
H1515 H 0.80195 0.45976 0.21217 0.0
H1516 H 0.73997 0.50848 0.24506 0.0
H1517 H 0.87569 0.56839 0.23338 0.0
C1518 C 0.88597 0.61379 0.24814 0.0
C1519 C 0.86878 0.62898 0.25715 0.0
C1520 C 0.75339 0.49835 0.23758 0.0
C1521 C 0.81999 0.56052 0.24126 0.0
C1522 C 0.73133 0.45931 0.23252 0.0
C1523 C 0.74874 0.44453 0.22352 0.0
C1524 C 0.79353 0.52231 0.23388 0.0
C1525 C 0.78749 0.47047 0.21899 0.0
C1526 C 0.86175 0.57977 0.24015 0.0
C1527 C 0.82691 0.60908 0.25785 0.0
N1528 N 0.809 0.50801 0.22445 0.0
N1529 N 0.80398 0.57575 0.25008 0.0
H1530 H 0.6603 0.06199 0.92021 0.0
H1531 H 0.67443 0.21887 0.97625 0.0
H1532 H 0.69368 0.05997 0.96262 0.0
H1533 H 0.66793 0.23473 0.93257 0.0
H1534 H 0.68278 0.16142 0.97161 0.0
H1535 H 0.66389 0.12598 0.92456 0.0
C1536 C 0.66871 0.07516 0.9304 0.0
C1537 C 0.67649 0.05547 0.94107 0.0
C1538 C 0.67994 0.17778 0.96305 0.0
C1539 C 0.68026 0.12854 0.94618 0.0
C1540 C 0.6753 0.21075 0.9657 0.0
C1541 C 0.67037 0.23179 0.95481 0.0
C1542 C 0.6792 0.1655 0.94941 0.0
C1543 C 0.67136 0.21938 0.94133 0.0
C1544 C 0.67079 0.11172 0.93289 0.0
C1545 C 0.68736 0.07403 0.95408 0.0
N1546 N 0.6753 0.18692 0.93903 0.0
N1547 N 0.68853 0.10931 0.9563 0.0
H1548 H 0.92122 0.59558 0.93374 0.0
H1549 H 0.76252 0.42195 0.98109 0.0
H1550 H 0.93848 0.50354 0.95204 0.0
H1551 H 0.72541 0.45914 0.94466 0.0
H1552 H 0.83211 0.47242 0.9766 0.0
H1553 H 0.85329 0.56302 0.9431 0.0
C1554 C 0.91073 0.56866 0.93975 0.0
C1555 C 0.93502 0.5517 0.94194 0.0
C1556 C 0.80851 0.47031 0.96986 0.0
C1557 C 0.85887 0.51583 0.95307 0.0
C1558 C 0.76883 0.44199 0.97251 0.0
C1559 C 0.73841 0.43639 0.96317 0.0
C1560 C 0.81747 0.49335 0.95791 0.0
C1561 C 0.74824 0.46255 0.95204 0.0
C1562 C 0.87228 0.55037 0.94512 0.0
C1563 C 0.92035 0.51708 0.9499 0.0
N1564 N 0.78713 0.4897 0.94959 0.0
N1565 N 0.88326 0.50036 0.95523 0.0
H1566 H 0.43021 0.41968 0.9469 0.0
H1567 H 0.50914 0.27071 0.93774 0.0
H1568 H 0.35018 0.30076 0.9311 0.0
H1569 H 0.53934 0.34337 0.97441 0.0
H1570 H 0.45505 0.28484 0.93264 0.0
H1571 H 0.47754 0.39792 0.95412 0.0
C1572 C 0.42293 0.38922 0.94478 0.0
C1573 C 0.38646 0.36197 0.93835 0.0
C1574 C 0.47306 0.29701 0.94193 0.0
C1575 C 0.44005 0.3371 0.94653 0.0
C1576 C 0.50361 0.28876 0.94489 0.0
C1577 C 0.52827 0.30559 0.95658 0.0
C1578 C 0.46827 0.32344 0.95046 0.0
C1579 C 0.5205 0.32938 0.96541 0.0
C1580 C 0.44959 0.37673 0.94905 0.0
C1581 C 0.37808 0.32264 0.93603 0.0
N1582 N 0.49166 0.33838 0.96202 0.0
N1583 N 0.40488 0.31143 0.93998 0.0
H1584 H 0.61307 0.73219 0.7836 0.0
H1585 H 0.42507 0.75905 0.76949 0.0
H1586 H 0.61582 0.81793 0.75462 0.0
H1587 H 0.44959 0.72738 0.80948 0.0
H1588 H 0.4904 0.77166 0.76195 0.0
H1589 H 0.54709 0.71894 0.79104 0.0
C1590 C 0.5994 0.74755 0.77862 0.0
C1591 C 0.61972 0.77611 0.76847 0.0
C1592 C 0.48163 0.76231 0.77241 0.0
C1593 C 0.54498 0.76139 0.77694 0.0
C1594 C 0.44452 0.75527 0.77673 0.0
C1595 C 0.43229 0.74263 0.79016 0.0
C1596 C 0.50621 0.75564 0.78149 0.0
C1597 C 0.45835 0.73781 0.79912 0.0
C1598 C 0.56215 0.74041 0.78299 0.0
C1599 C 0.60108 0.79571 0.76249 0.0
N1600 N 0.49402 0.74386 0.79457 0.0
N1601 N 0.56469 0.78791 0.76678 0.0
H1602 H 0.20399 0.8997 0.75967 0.0
H1603 H 0.30934 0.81688 0.81059 0.0
H1604 H 0.32249 0.97476 0.77701 0.0
H1605 H 0.22937 0.7449 0.77764 0.0
H1606 H 0.3026 0.87373 0.80273 0.0
H1607 H 0.20282 0.84118 0.77 0.0
C1608 C 0.22982 0.90381 0.76558 0.0
C1609 C 0.26359 0.94203 0.76734 0.0
C1610 C 0.28602 0.84522 0.7974 0.0
C1611 C 0.26183 0.87563 0.77953 0.0
C1612 C 0.2894 0.81271 0.80198 0.0
C1613 C 0.26994 0.7763 0.79471 0.0
C1614 C 0.26242 0.84086 0.78566 0.0
C1615 C 0.24495 0.77259 0.78348 0.0
C1616 C 0.22904 0.87051 0.77151 0.0
C1617 C 0.29611 0.94575 0.77522 0.0
N1618 N 0.24199 0.80452 0.77927 0.0
N1619 N 0.29433 0.91299 0.78111 0.0
H1620 H 0.0903 0.39293 0.77658 0.0
H1621 H 0.30052 0.56926 0.80581 0.0
H1622 H 0.20247 0.39587 0.77167 0.0
H1623 H 0.19179 0.57423 0.80459 0.0
H1624 H 0.26257 0.49938 0.79776 0.0
H1625 H 0.1251 0.4544 0.79025 0.0
C1626 C 0.1223 0.40661 0.77829 0.0
C1627 C 0.14351 0.38934 0.77282 0.0
C1628 C 0.24681 0.51541 0.79961 0.0
C1629 C 0.18352 0.45954 0.78872 0.0
C1630 C 0.26834 0.55496 0.80444 0.0
C1631 C 0.249 0.57707 0.80596 0.0
C1632 C 0.20584 0.49827 0.79627 0.0
C1633 C 0.20754 0.55782 0.80366 0.0
C1634 C 0.14212 0.4416 0.7862 0.0
C1635 C 0.18493 0.40831 0.77554 0.0
N1636 N 0.18739 0.51966 0.79877 0.0
N1637 N 0.20358 0.44239 0.78328 0.0
H1638 H 0.4686 0.02225 0.09487 0.0
H1639 H 0.38611 0.83116 0.04526 0.0
H1640 H 0.36106 0.98095 0.07012 0.0
H1641 H 0.44866 0.84174 0.08354 0.0
H1642 H 0.38882 0.89478 0.05052 0.0
H1643 H 0.47252 0.96397 0.08735 0.0
C1644 C 0.44581 0.00094 0.08783 0.0
C1645 C 0.41426 0.00635 0.08321 0.0
C1646 C 0.40242 0.88335 0.05764 0.0
C1647 C 0.41916 0.93995 0.07432 0.0
C1648 C 0.40137 0.84739 0.05457 0.0
C1649 C 0.41721 0.83119 0.06399 0.0
C1650 C 0.42018 0.90355 0.07006 0.0
C1651 C 0.43606 0.85316 0.07601 0.0
C1652 C 0.44811 0.96771 0.08355 0.0
C1653 C 0.38564 0.97772 0.07406 0.0
N1654 N 0.43701 0.88814 0.0787 0.0
N1655 N 0.38887 0.94584 0.06985 0.0
H1656 H 0.07413 0.44125 0.06397 0.0
H1657 H 0.24974 0.66018 0.08151 0.0
H1658 H 0.05364 0.52767 0.08476 0.0
H1659 H 0.25054 0.60036 0.04427 0.0
H1660 H 0.1802 0.60801 0.08494 0.0
H1661 H 0.14232 0.49515 0.05883 0.0
C1662 C 0.08408 0.47143 0.06753 0.0
C1663 C 0.05833 0.48008 0.07481 0.0
C1664 C 0.19545 0.60655 0.07593 0.0
C1665 C 0.1357 0.5413 0.06906 0.0
C1666 C 0.235 0.63626 0.07397 0.0
C1667 C 0.25559 0.6346 0.06254 0.0
C1668 C 0.17674 0.57437 0.06661 0.0
C1669 C 0.23536 0.6029 0.05311 0.0
C1670 C 0.1227 0.50211 0.06449 0.0
C1671 C 0.0725 0.51973 0.07908 0.0
N1672 N 0.19707 0.57357 0.05544 0.0
N1673 N 0.11032 0.54879 0.07624 0.0
H1674 H 0.59046 0.61012 0.09723 0.0
H1675 H 0.47396 0.67258 0.04251 0.0
H1676 H 0.63257 0.6518 0.05644 0.0
H1677 H 0.44232 0.64753 0.08508 0.0
H1678 H 0.52671 0.6559 0.0464 0.0
H1679 H 0.53106 0.61538 0.09203 0.0
C1680 C 0.58717 0.6202 0.08717 0.0
C1681 C 0.61678 0.63083 0.07731 0.0
C1682 C 0.50793 0.65368 0.05484 0.0
C1683 C 0.54871 0.63681 0.07125 0.0
C1684 C 0.47755 0.66287 0.05259 0.0
C1685 C 0.45373 0.66165 0.06349 0.0
C1686 C 0.51441 0.64304 0.06807 0.0
C1687 C 0.46017 0.64928 0.07639 0.0
C1688 C 0.55324 0.62322 0.0842 0.0
C1689 C 0.61074 0.64358 0.06442 0.0
N1690 N 0.48993 0.6407 0.07833 0.0
N1691 N 0.57754 0.64631 0.06178 0.0
H1692 H 0.02581 0.52546 0.58729 0.0
H1693 H 0.22703 0.63644 0.54501 0.0
H1694 H 0.06638 0.64187 0.56975 0.0
H1695 H 0.21211 0.56023 0.57941 0.0
H1696 H 0.16099 0.62855 0.54949 0.0
H1697 H 0.08767 0.52882 0.58031 0.0
C1698 C 0.04777 0.55179 0.58195 0.0
C1699 C 0.041 0.58358 0.57917 0.0
C1700 C 0.17204 0.61313 0.5559 0.0
C1701 C 0.11168 0.58713 0.57091 0.0
C1702 C 0.20933 0.61708 0.55323 0.0
C1703 C 0.22482 0.59871 0.56181 0.0
C1704 C 0.14996 0.59002 0.56704 0.0
C1705 C 0.20115 0.57475 0.57253 0.0
C1706 C 0.08305 0.55362 0.57798 0.0
C1707 C 0.07059 0.61691 0.57222 0.0
N1708 N 0.16491 0.57106 0.57483 0.0
N1709 N 0.10465 0.61775 0.56823 0.0
H1710 H 0.37477 0.3849 0.57876 0.0
H1711 H 0.44912 0.61576 0.5778 0.0
H1712 H 0.4924 0.47256 0.59396 0.0
H1713 H 0.36302 0.53458 0.54793 0.0
H1714 H 0.46539 0.56423 0.58422 0.0
H1715 H 0.36792 0.43887 0.56825 0.0
C1716 C 0.3991 0.41549 0.57994 0.0
C1717 C 0.43412 0.42424 0.58735 0.0
C1718 C 0.44362 0.55792 0.57603 0.0
C1719 C 0.42644 0.48608 0.57532 0.0
C1720 C 0.43462 0.58743 0.57229 0.0
C1721 C 0.40521 0.5795 0.56218 0.0
C1722 C 0.42204 0.51972 0.56995 0.0
C1723 C 0.38644 0.542 0.55559 0.0
C1724 C 0.39531 0.44621 0.57381 0.0
C1725 C 0.46483 0.46442 0.58838 0.0
N1726 N 0.3946 0.51315 0.55977 0.0
N1727 N 0.46011 0.49385 0.58258 0.0
H1728 H 0.48628 0.95919 0.60522 0.0
H1729 H 0.44931 0.78642 0.55217 0.0
H1730 H 0.58177 0.96574 0.58107 0.0
H1731 H 0.38285 0.76335 0.58941 0.0
H1732 H 0.49242 0.85649 0.55971 0.0
H1733 H 0.44249 0.89059 0.59689 0.0
C1734 C 0.49809 0.9461 0.59823 0.0
C1735 C 0.53781 0.96808 0.59391 0.0
C1736 C 0.46819 0.83603 0.56615 0.0
C1737 C 0.48756 0.89004 0.58409 0.0
C1738 C 0.44338 0.79631 0.56179 0.0
C1739 C 0.41252 0.76923 0.57018 0.0
C1740 C 0.46143 0.84869 0.57883 0.0
C1741 C 0.40645 0.78329 0.58266 0.0
C1742 C 0.47309 0.90702 0.59347 0.0
C1743 C 0.55148 0.94967 0.58478 0.0
N1744 N 0.43056 0.82204 0.58659 0.0
N1745 N 0.52628 0.91179 0.58006 0.0
H1746 H 0.34202 0.37583 0.28789 0.0
H1747 H 0.35316 0.57883 0.26351 0.0
H1748 H 0.33106 0.40312 0.2456 0.0
H1749 H 0.34205 0.54321 0.30597 0.0
H1750 H 0.35485 0.51894 0.25705 0.0
H1751 H 0.35119 0.44076 0.29479 0.0
C1752 C 0.34185 0.39557 0.28002 0.0
C1753 C 0.33552 0.3838 0.26611 0.0
C1754 C 0.3523 0.52429 0.26779 0.0
C1755 C 0.34607 0.45835 0.27401 0.0
C1756 C 0.35145 0.55864 0.27153 0.0
C1757 C 0.34713 0.56611 0.28534 0.0
C1758 C 0.34886 0.49691 0.27789 0.0
C1759 C 0.34535 0.53878 0.29522 0.0
C1760 C 0.347 0.43263 0.284 0.0
C1761 C 0.33563 0.41074 0.25643 0.0
N1762 N 0.34595 0.50526 0.29129 0.0
N1763 N 0.3407 0.44665 0.26056 0.0
H1764 H 0.59889 0.93722 0.27424 0.0
H1765 H 0.44171 0.75387 0.31899 0.0
H1766 H 0.61966 0.84806 0.29306 0.0
H1767 H 0.40653 0.80068 0.2847 0.0
H1768 H 0.5109 0.80837 0.31656 0.0
H1769 H 0.53193 0.90471 0.2844 0.0
C1770 C 0.5895 0.91115 0.28062 0.0
C1771 C 0.61421 0.89461 0.28258 0.0
C1772 C 0.48773 0.80745 0.30989 0.0
C1773 C 0.53912 0.85863 0.29454 0.0
C1774 C 0.44824 0.77673 0.31139 0.0
C1775 C 0.41871 0.7728 0.30194 0.0
C1776 C 0.49735 0.83427 0.29894 0.0
C1777 C 0.42876 0.80269 0.29209 0.0
C1778 C 0.55158 0.89284 0.28644 0.0
C1779 C 0.60104 0.86112 0.29104 0.0
N1780 N 0.46748 0.83192 0.29067 0.0
N1781 N 0.56436 0.84417 0.29668 0.0
H1782 H 0.08504 0.71738 0.25912 0.0
H1783 H 0.1924 0.63337 0.30818 0.0
H1784 H 0.03403 0.65643 0.297 0.0
H1785 H 0.22167 0.6606 0.26557 0.0
H1786 H 0.13471 0.64235 0.30459 0.0
H1787 H 0.13698 0.69902 0.26161 0.0
C1788 C 0.08471 0.7001 0.26793 0.0
C1789 C 0.05519 0.68851 0.27787 0.0
C1790 C 0.15349 0.64583 0.29598 0.0
C1791 C 0.11453 0.66758 0.28083 0.0
C1792 C 0.18629 0.64035 0.29803 0.0
C1793 C 0.21199 0.64604 0.28721 0.0
C1794 C 0.14668 0.65773 0.28305 0.0
C1795 C 0.20287 0.656 0.27427 0.0
C1796 C 0.11423 0.68948 0.26932 0.0
C1797 C 0.05616 0.66602 0.28907 0.0
N1798 N 0.1713 0.66195 0.27259 0.0
N1799 N 0.08547 0.65656 0.29029 0.0
loop_
_geom_bond_atom_site_label_1
_geom_bond_atom_site_label_2
_geom_bond_distance
_geom_bond_site_symmetry_2
_ccdc_geom_bond_type
Zn0 O3 2.031 . S
Zn0 O5 2.049 . S
Zn0 O10 2.067 . S
Zn1 O2 1.962 1_545 S
Zn1 O4 1.986 . S
Zn1 O6 1.996 1_545 S
Zn1 O9 1.943 . S
O2 Zn1 1.962 1_565 S
O2 C7 1.254 . S
O3 Zn0 2.031 . S
O3 C7 1.269 . S
O4 Zn1 1.986 . S
O4 C11 1.262 . S
O5 Zn0 2.049 . S
O5 C13 1.260 . S
O6 Zn1 1.996 1_565 S
O6 C13 1.257 . S
C7 O2 1.254 . S
C7 O3 1.269 . S
C8 O9 1.249 . S
C8 O10 1.270 1_545 S
O9 Zn1 1.943 . S
O9 C8 1.249 . S
O10 Zn0 2.067 . S
O10 C8 1.270 1_565 S
C11 O4 1.262 . S
C11 O12 1.232 . S
O12 C11 1.232 . S
C13 O5 1.260 . S
C13 O6 1.257 . S
Zn14 O17 2.031 . S
Zn14 O19 2.049 . S
Zn14 O24 2.067 . S
Zn15 O16 1.962 1_455 S
Zn15 O18 1.986 . S
Zn15 O20 1.996 1_455 S
Zn15 O23 1.943 . S
O16 Zn15 1.962 1_655 S
O16 C21 1.254 . S
O17 Zn14 2.031 . S
O17 C21 1.269 . S
O18 Zn15 1.986 . S
O18 C25 1.262 . S
O19 Zn14 2.049 . S
O19 C27 1.260 . S
O20 Zn15 1.996 1_655 S
O20 C27 1.257 . S
C21 O16 1.254 . S
C21 O17 1.269 . S
C22 O23 1.249 . S
C22 O24 1.270 1_455 S
O23 Zn15 1.943 . S
O23 C22 1.249 . S
O24 Zn14 2.067 . S
O24 C22 1.270 1_655 S
C25 O18 1.262 . S
C25 O26 1.232 . S
O26 C25 1.232 . S
C27 O19 1.260 . S
C27 O20 1.257 . S
Zn28 O31 2.031 . S
Zn28 O33 2.049 . S
Zn28 O38 2.067 . S
Zn29 O30 1.962 . S
Zn29 O32 1.986 . S
Zn29 O34 1.996 . S
Zn29 O37 1.943 . S
O30 Zn29 1.962 . S
O30 C35 1.254 . S
O31 Zn28 2.031 . S
O31 C35 1.269 . S
O32 Zn29 1.986 . S
O32 C39 1.262 . S
O33 Zn28 2.049 . S
O33 C41 1.260 . S
O34 Zn29 1.996 . S
O34 C41 1.257 . S
C35 O30 1.254 . S
C35 O31 1.269 . S
C36 O37 1.249 . S
C36 O38 1.270 . S
O37 Zn29 1.943 . S
O37 C36 1.249 . S
O38 Zn28 2.067 . S
O38 C36 1.270 . S
C39 O32 1.262 . S
C39 O40 1.232 . S
O40 C39 1.232 . S
C41 O33 1.260 . S
C41 O34 1.257 . S
Zn42 O45 2.031 . S
Zn42 O47 2.049 . S
Zn42 O52 2.067 . S
Zn43 O44 1.962 . S
Zn43 O46 1.986 1_545 S
Zn43 O48 1.996 . S
Zn43 O51 1.943 1_545 S
O44 Zn43 1.962 . S
O44 C49 1.254 . S
O45 Zn42 2.031 . S
O45 C49 1.269 . S
O46 Zn43 1.986 1_565 S
O46 C53 1.262 . S
O47 Zn42 2.049 . S
O47 C55 1.260 . S
O48 Zn43 1.996 . S
O48 C55 1.257 . S
C49 O44 1.254 . S
C49 O45 1.269 . S
C50 O51 1.249 1_545 S
C50 O52 1.270 . S
O51 Zn43 1.943 1_565 S
O51 C50 1.249 1_565 S
O52 Zn42 2.067 . S
O52 C50 1.270 . S
C53 O46 1.262 . S
C53 O54 1.232 . S
O54 C53 1.232 . S
C55 O47 1.260 . S
C55 O48 1.257 . S
Zn56 O59 2.031 . S
Zn56 O61 2.049 . S
Zn56 O66 2.067 . S
Zn57 O58 1.962 . S
Zn57 O60 1.986 1_455 S
Zn57 O62 1.996 . S
Zn57 O65 1.943 1_455 S
O58 Zn57 1.962 . S
O58 C63 1.254 . S
O59 Zn56 2.031 . S
O59 C63 1.269 . S
O60 Zn57 1.986 1_655 S
O60 C67 1.262 . S
O61 Zn56 2.049 . S
O61 C69 1.260 . S
O62 Zn57 1.996 . S
O62 C69 1.257 . S
C63 O58 1.254 . S
C63 O59 1.269 . S
C64 O65 1.249 1_455 S
C64 O66 1.270 . S
O65 Zn57 1.943 1_655 S
O65 C64 1.249 1_655 S
O66 Zn56 2.067 . S
O66 C64 1.270 . S
C67 O60 1.262 . S
C67 O68 1.232 . S
O68 C67 1.232 . S
C69 O61 1.260 . S
C69 O62 1.257 . S
Zn70 O73 2.031 . S
Zn70 O75 2.049 . S
Zn70 O80 2.067 . S
Zn71 O72 1.962 . S
Zn71 O74 1.986 . S
Zn71 O76 1.996 . S
Zn71 O79 1.943 . S
O72 Zn71 1.962 . S
O72 C77 1.254 . S
O73 Zn70 2.031 . S
O73 C77 1.269 . S
O74 Zn71 1.986 . S
O74 C81 1.262 . S
O75 Zn70 2.049 . S
O75 C83 1.260 . S
O76 Zn71 1.996 . S
O76 C83 1.257 . S
C77 O72 1.254 . S
C77 O73 1.269 . S
C78 O79 1.249 . S
C78 O80 1.270 . S
O79 Zn71 1.943 . S
O79 C78 1.249 . S
O80 Zn70 2.067 . S
O80 C78 1.270 . S
C81 O74 1.262 . S
C81 O82 1.232 . S
O82 C81 1.232 . S
C83 O75 1.260 . S
C83 O76 1.257 . S
Zn84 O87 2.031 . S
Zn84 O89 2.049 . S
Zn84 O94 2.067 . S
Zn85 O86 1.962 . S
Zn85 O88 1.986 . S
Zn85 O90 1.996 . S
Zn85 O93 1.943 . S
O86 Zn85 1.962 . S
O86 C91 1.254 . S
O87 Zn84 2.031 . S
O87 C91 1.269 . S
O88 Zn85 1.986 . S
O88 C95 1.262 . S
O89 Zn84 2.049 . S
O89 C97 1.260 . S
O90 Zn85 1.996 . S
O90 C97 1.257 . S
C91 O86 1.254 . S
C91 O87 1.269 . S
C92 O93 1.249 . S
C92 O94 1.270 . S
O93 Zn85 1.943 . S
O93 C92 1.249 . S
O94 Zn84 2.067 . S
O94 C92 1.270 . S
C95 O88 1.262 . S
C95 O96 1.232 . S
O96 C95 1.232 . S
C97 O89 1.260 . S
C97 O90 1.257 . S
Zn98 O101 2.031 . S
Zn98 O103 2.049 . S
Zn98 O108 2.067 . S
Zn99 O100 1.962 . S
Zn99 O102 1.986 . S
Zn99 O104 1.996 . S
Zn99 O107 1.943 . S
O100 Zn99 1.962 . S
O100 C105 1.254 . S
O101 Zn98 2.031 . S
O101 C105 1.269 . S
O102 Zn99 1.986 . S
O102 C109 1.262 . S
O103 Zn98 2.049 . S
O103 C111 1.260 . S
O104 Zn99 1.996 . S
O104 C111 1.257 . S
C105 O100 1.254 . S
C105 O101 1.269 . S
C106 O107 1.249 . S
C106 O108 1.270 . S
O107 Zn99 1.943 . S
O107 C106 1.249 . S
O108 Zn98 2.067 . S
O108 C106 1.270 . S
C109 O102 1.262 . S
C109 O110 1.232 . S
O110 C109 1.232 . S
C111 O103 1.260 . S
C111 O104 1.257 . S
Zn112 O115 2.031 1_655 S
Zn112 O117 2.049 . S
Zn112 O122 2.067 . S
Zn113 O114 1.962 1_655 S
Zn113 O116 1.986 . S
Zn113 O118 1.996 . S
Zn113 O121 1.943 . S
O114 Zn113 1.962 1_455 S
O114 C119 1.254 . S
O115 Zn112 2.031 1_455 S
O115 C119 1.269 . S
O116 Zn113 1.986 . S
O116 C123 1.262 . S
O117 Zn112 2.049 . S
O117 C125 1.260 . S
O118 Zn113 1.996 . S
O118 C125 1.257 . S
C119 O114 1.254 . S
C119 O115 1.269 . S
C120 O121 1.249 . S
C120 O122 1.270 . S
O121 Zn113 1.943 . S
O121 C120 1.249 . S
O122 Zn112 2.067 . S
O122 C120 1.270 . S
C123 O116 1.262 . S
C123 O124 1.232 . S
O124 C123 1.232 . S
C125 O117 1.260 . S
C125 O118 1.257 . S
Zn126 O129 2.031 1_655 S
Zn126 O131 2.049 . S
Zn126 O136 2.067 . S
Zn127 O128 1.962 1_655 S
Zn127 O130 1.986 . S
Zn127 O132 1.996 . S
Zn127 O135 1.943 . S
O128 Zn127 1.962 1_455 S
O128 C133 1.254 . S
O129 Zn126 2.031 1_455 S
O129 C133 1.269 . S
O130 Zn127 1.986 . S
O130 C137 1.262 . S
O131 Zn126 2.049 . S
O131 C139 1.260 . S
O132 Zn127 1.996 . S
O132 C139 1.257 . S
C133 O128 1.254 . S
C133 O129 1.269 . S
C134 O135 1.249 . S
C134 O136 1.270 . S
O135 Zn127 1.943 . S
O135 C134 1.249 . S
O136 Zn126 2.067 . S
O136 C134 1.270 . S
C137 O130 1.262 . S
C137 O138 1.232 . S
O138 C137 1.232 . S
C139 O131 1.260 . S
C139 O132 1.257 . S
Zn140 O143 2.031 . S
Zn140 O145 2.049 . S
Zn140 O150 2.067 . S
Zn141 O142 1.962 . S
Zn141 O144 1.986 . S
Zn141 O146 1.996 . S
Zn141 O149 1.943 . S
O142 Zn141 1.962 . S
O142 C147 1.254 . S
O143 Zn140 2.031 . S
O143 C147 1.269 . S
O144 Zn141 1.986 . S
O144 C151 1.262 . S
O145 Zn140 2.049 . S
O145 C153 1.260 . S
O146 Zn141 1.996 . S
O146 C153 1.257 . S
C147 O142 1.254 . S
C147 O143 1.269 . S
C148 O149 1.249 . S
C148 O150 1.270 . S
O149 Zn141 1.943 . S
O149 C148 1.249 . S
O150 Zn140 2.067 . S
O150 C148 1.270 . S
C151 O144 1.262 . S
C151 O152 1.232 . S
O152 C151 1.232 . S
C153 O145 1.260 . S
C153 O146 1.257 . S
Zn154 O157 2.031 . S
Zn154 O159 2.049 . S
Zn154 O164 2.067 . S
Zn155 O156 1.962 . S
Zn155 O158 1.986 . S
Zn155 O160 1.996 . S
Zn155 O163 1.943 . S
O156 Zn155 1.962 . S
O156 C161 1.254 . S
O157 Zn154 2.031 . S
O157 C161 1.269 . S
O158 Zn155 1.986 . S
O158 C165 1.262 1_545 S
O159 Zn154 2.049 . S
O159 C167 1.260 . S
O160 Zn155 1.996 . S
O160 C167 1.257 . S
C161 O156 1.254 . S
C161 O157 1.269 . S
C162 O163 1.249 . S
C162 O164 1.270 . S
O163 Zn155 1.943 . S
O163 C162 1.249 . S
O164 Zn154 2.067 . S
O164 C162 1.270 . S
C165 O158 1.262 1_565 S
C165 O166 1.232 . S
O166 C165 1.232 . S
C167 O159 1.260 . S
C167 O160 1.257 . S
Zn168 O171 2.031 . S
Zn168 O173 2.049 . S
Zn168 O178 2.067 . S
Zn169 O170 1.962 . S
Zn169 O172 1.986 . S
Zn169 O174 1.996 . S
Zn169 O177 1.943 . S
O170 Zn169 1.962 . S
O170 C175 1.254 . S
O171 Zn168 2.031 . S
O171 C175 1.269 . S
O172 Zn169 1.986 . S
O172 C179 1.262 . S
O173 Zn168 2.049 . S
O173 C181 1.260 . S
O174 Zn169 1.996 . S
O174 C181 1.257 . S
C175 O170 1.254 . S
C175 O171 1.269 . S
C176 O177 1.249 . S
C176 O178 1.270 . S
O177 Zn169 1.943 . S
O177 C176 1.249 . S
O178 Zn168 2.067 . S
O178 C176 1.270 . S
C179 O172 1.262 . S
C179 O180 1.232 . S
O180 C179 1.232 . S
C181 O173 1.260 . S
C181 O174 1.257 . S
Zn182 O185 2.031 . S
Zn182 O187 2.049 . S
Zn182 O192 2.067 . S
Zn183 O184 1.962 . S
Zn183 O186 1.986 . S
Zn183 O188 1.996 . S
Zn183 O191 1.943 . S
O184 Zn183 1.962 . S
O184 C189 1.254 . S
O185 Zn182 2.031 . S
O185 C189 1.269 . S
O186 Zn183 1.986 . S
O186 C193 1.262 . S
O187 Zn182 2.049 . S
O187 C195 1.260 . S
O188 Zn183 1.996 . S
O188 C195 1.257 . S
C189 O184 1.254 . S
C189 O185 1.269 . S
C190 O191 1.249 . S
C190 O192 1.270 . S
O191 Zn183 1.943 . S
O191 C190 1.249 . S
O192 Zn182 2.067 . S
O192 C190 1.270 . S
C193 O186 1.262 . S
C193 O194 1.232 . S
O194 C193 1.232 . S
C195 O187 1.260 . S
C195 O188 1.257 . S
Zn196 O199 2.031 . S
Zn196 O201 2.049 . S
Zn196 O206 2.067 . S
Zn197 O198 1.962 . S
Zn197 O200 1.986 1_565 S
Zn197 O202 1.996 . S
Zn197 O205 1.943 . S
O198 Zn197 1.962 . S
O198 C203 1.254 . S
O199 Zn196 2.031 . S
O199 C203 1.269 . S
O200 Zn197 1.986 1_545 S
O200 C207 1.262 . S
O201 Zn196 2.049 . S
O201 C209 1.260 . S
O202 Zn197 1.996 . S
O202 C209 1.257 . S
C203 O198 1.254 . S
C203 O199 1.269 . S
C204 O205 1.249 . S
C204 O206 1.270 . S
O205 Zn197 1.943 . S
O205 C204 1.249 . S
O206 Zn196 2.067 . S
O206 C204 1.270 . S
C207 O200 1.262 . S
C207 O208 1.232 . S
O208 C207 1.232 . S
C209 O201 1.260 . S
C209 O202 1.257 . S
Zn210 O213 2.031 . S
Zn210 O215 2.049 . S
Zn210 O220 2.067 . S
Zn211 O212 1.962 . S
Zn211 O214 1.986 . S
Zn211 O216 1.996 . S
Zn211 O219 1.943 . S
O212 Zn211 1.962 . S
O212 C217 1.254 . S
O213 Zn210 2.031 . S
O213 C217 1.269 . S
O214 Zn211 1.986 . S
O214 C221 1.262 . S
O215 Zn210 2.049 . S
O215 C223 1.260 . S
O216 Zn211 1.996 . S
O216 C223 1.257 . S
C217 O212 1.254 . S
C217 O213 1.269 . S
C218 O219 1.249 . S
C218 O220 1.270 . S
O219 Zn211 1.943 . S
O219 C218 1.249 . S
O220 Zn210 2.067 . S
O220 C218 1.270 . S
C221 O214 1.262 . S
C221 O222 1.232 . S
O222 C221 1.232 . S
C223 O215 1.260 . S
C223 O216 1.257 . S
Zn224 O227 2.031 1_565 S
Zn224 O229 2.049 . S
Zn224 O234 2.067 . S
Zn225 O226 1.962 1_565 S
Zn225 O228 1.986 . S
Zn225 O230 1.996 . S
Zn225 O233 1.943 . S
O226 Zn225 1.962 1_545 S
O226 C231 1.254 . S
O227 Zn224 2.031 1_545 S
O227 C231 1.269 . S
O228 Zn225 1.986 . S
O228 C235 1.262 . S
O229 Zn224 2.049 . S
O229 C237 1.260 . S
O230 Zn225 1.996 . S
O230 C237 1.257 . S
C231 O226 1.254 . S
C231 O227 1.269 . S
C232 O233 1.249 . S
C232 O234 1.270 . S
O233 Zn225 1.943 . S
O233 C232 1.249 . S
O234 Zn224 2.067 . S
O234 C232 1.270 . S
C235 O228 1.262 . S
C235 O236 1.232 . S
O236 C235 1.232 . S
C237 O229 1.260 . S
C237 O230 1.257 . S
Zn238 O241 2.031 . S
Zn238 O243 2.049 . S
Zn238 O248 2.067 . S
Zn239 O240 1.962 . S
Zn239 O242 1.986 . S
Zn239 O244 1.996 . S
Zn239 O247 1.943 . S
O240 Zn239 1.962 . S
O240 C245 1.254 . S
O241 Zn238 2.031 . S
O241 C245 1.269 . S
O242 Zn239 1.986 . S
O242 C249 1.262 . S
O243 Zn238 2.049 . S
O243 C251 1.260 . S
O244 Zn239 1.996 . S
O244 C251 1.257 . S
C245 O240 1.254 . S
C245 O241 1.269 . S
C246 O247 1.249 . S
C246 O248 1.270 . S
O247 Zn239 1.943 . S
O247 C246 1.249 . S
O248 Zn238 2.067 . S
O248 C246 1.270 . S
C249 O242 1.262 . S
C249 O250 1.232 . S
O250 C249 1.232 . S
C251 O243 1.260 . S
C251 O244 1.257 . S
Zn252 O258 1.920 . S
Zn252 O264 1.898 1_445 S
Zn252 O267 1.905 . S
Zn253 O261 1.905 1_545 S
Zn253 O262 1.898 . S
Zn253 O270 1.920 1_455 S
Zn254 O257 2.080 . S
Zn254 O260 2.114 1_545 S
Zn254 O263 2.120 . S
Zn254 O265 2.120 1_445 S
Zn254 O266 2.114 . S
Zn254 O269 2.080 1_455 S
C255 O260 1.166 . S
C255 O261 1.182 . S
C256 O262 1.167 . S
C256 O263 1.299 . S
O257 Zn254 2.080 . S
O257 C271 1.305 . S
O258 Zn252 1.920 . S
O258 C271 1.234 . S
C259 O264 1.167 . S
C259 O265 1.299 . S
O260 Zn254 2.114 1_565 S
O260 C255 1.166 . S
O261 Zn253 1.905 1_565 S
O261 C255 1.182 . S
O262 Zn253 1.898 . S
O262 C256 1.167 . S
O263 Zn254 2.120 . S
O263 C256 1.299 . S
O264 Zn252 1.898 1_665 S
O264 C259 1.167 . S
O265 Zn254 2.120 1_665 S
O265 C259 1.299 . S
O266 Zn254 2.114 . S
O266 C268 1.166 . S
O267 Zn252 1.905 . S
O267 C268 1.182 . S
C268 O266 1.166 . S
C268 O267 1.182 . S
O269 Zn254 2.080 1_655 S
O269 C272 1.305 . S
O270 Zn253 1.920 1_655 S
O270 C272 1.234 . S
C271 O257 1.305 . S
C271 O258 1.234 . S
C272 O269 1.305 . S
C272 O270 1.234 . S
Zn273 O279 1.920 1_545 S
Zn273 O285 1.898 . S
Zn273 O288 1.905 1_445 S
Zn274 O282 1.905 . S
Zn274 O283 1.898 1_445 S
Zn274 O291 1.920 1_545 S
Zn275 O278 2.080 1_545 S
Zn275 O281 2.114 . S
Zn275 O284 2.120 1_445 S
Zn275 O286 2.120 . S
Zn275 O287 2.114 1_455 S
Zn275 O290 2.080 . S
C276 O281 1.166 . S
C276 O282 1.182 . S
C277 O283 1.167 . S
C277 O284 1.299 . S
O278 Zn275 2.080 1_565 S
O278 C292 1.305 . S
O279 Zn273 1.920 1_565 S
O279 C292 1.234 . S
C280 O285 1.167 . S
C280 O286 1.299 . S
O281 Zn275 2.114 . S
O281 C276 1.166 . S
O282 Zn274 1.905 . S
O282 C276 1.182 . S
O283 Zn274 1.898 1_665 S
O283 C277 1.167 . S
O284 Zn275 2.120 1_665 S
O284 C277 1.299 . S
O285 Zn273 1.898 . S
O285 C280 1.167 . S
O286 Zn275 2.120 . S
O286 C280 1.299 . S
O287 Zn275 2.114 1_655 S
O287 C289 1.166 . S
O288 Zn273 1.905 1_665 S
O288 C289 1.182 1_565 S
C289 O287 1.166 . S
C289 O288 1.182 1_545 S
O290 Zn275 2.080 . S
O290 C293 1.305 1_545 S
O291 Zn274 1.920 1_565 S
O291 C293 1.234 . S
C292 O278 1.305 . S
C292 O279 1.234 . S
C293 O290 1.305 1_565 S
C293 O291 1.234 . S
Zn294 O300 1.920 1_545 S
Zn294 O306 1.898 . S
Zn294 O309 1.905 1_445 S
Zn295 O303 1.905 . S
Zn295 O304 1.898 1_445 S
Zn295 O312 1.920 . S
Zn296 O299 2.080 1_545 S
Zn296 O302 2.114 . S
Zn296 O305 2.120 1_445 S
Zn296 O307 2.120 . S
Zn296 O308 2.114 1_455 S
Zn296 O311 2.080 . S
C297 O302 1.166 . S
C297 O303 1.182 . S
C298 O304 1.167 . S
C298 O305 1.299 . S
O299 Zn296 2.080 1_565 S
O299 C313 1.305 . S
O300 Zn294 1.920 1_565 S
O300 C313 1.234 . S
C301 O306 1.167 . S
C301 O307 1.299 . S
O302 Zn296 2.114 . S
O302 C297 1.166 . S
O303 Zn295 1.905 . S
O303 C297 1.182 . S
O304 Zn295 1.898 1_665 S
O304 C298 1.167 . S
O305 Zn296 2.120 1_665 S
O305 C298 1.299 . S
O306 Zn294 1.898 . S
O306 C301 1.167 . S
O307 Zn296 2.120 . S
O307 C301 1.299 . S
O308 Zn296 2.114 1_655 S
O308 C310 1.166 . S
O309 Zn294 1.905 1_665 S
O309 C310 1.182 1_565 S
C310 O308 1.166 . S
C310 O309 1.182 1_545 S
O311 Zn296 2.080 . S
O311 C314 1.305 . S
O312 Zn295 1.920 . S
O312 C314 1.234 . S
C313 O299 1.305 . S
C313 O300 1.234 . S
C314 O311 1.305 . S
C314 O312 1.234 . S
Zn315 O321 1.920 . S
Zn315 O327 1.898 1_445 S
Zn315 O330 1.905 . S
Zn316 O324 1.905 1_545 S
Zn316 O325 1.898 . S
Zn316 O333 1.920 1_455 S
Zn317 O320 2.080 . S
Zn317 O323 2.114 1_545 S
Zn317 O326 2.120 . S
Zn317 O328 2.120 1_445 S
Zn317 O329 2.114 . S
Zn317 O332 2.080 1_455 S
C318 O323 1.166 . S
C318 O324 1.182 . S
C319 O325 1.167 . S
C319 O326 1.299 . S
O320 Zn317 2.080 . S
O320 C334 1.305 . S
O321 Zn315 1.920 . S
O321 C334 1.234 . S
C322 O327 1.167 . S
C322 O328 1.299 . S
O323 Zn317 2.114 1_565 S
O323 C318 1.166 . S
O324 Zn316 1.905 1_565 S
O324 C318 1.182 . S
O325 Zn316 1.898 . S
O325 C319 1.167 . S
O326 Zn317 2.120 . S
O326 C319 1.299 . S
O327 Zn315 1.898 1_665 S
O327 C322 1.167 . S
O328 Zn317 2.120 1_665 S
O328 C322 1.299 . S
O329 Zn317 2.114 . S
O329 C331 1.166 . S
O330 Zn315 1.905 . S
O330 C331 1.182 . S
C331 O329 1.166 . S
C331 O330 1.182 . S
O332 Zn317 2.080 1_655 S
O332 C335 1.305 . S
O333 Zn316 1.920 1_655 S
O333 C335 1.234 . S
C334 O320 1.305 . S
C334 O321 1.234 . S
C335 O332 1.305 . S
C335 O333 1.234 . S
Zn336 O342 1.920 . S
Zn336 O348 1.898 . S
Zn336 O351 1.905 . S
Zn337 O345 1.905 . S
Zn337 O346 1.898 . S
Zn337 O354 1.920 . S
Zn338 O341 2.080 . S
Zn338 O344 2.114 . S
Zn338 O347 2.120 . S
Zn338 O349 2.120 . S
Zn338 O350 2.114 . S
Zn338 O353 2.080 . S
C339 O344 1.166 . S
C339 O345 1.182 . S
C340 O346 1.167 . S
C340 O347 1.299 . S
O341 Zn338 2.080 . S
O341 C355 1.305 . S
O342 Zn336 1.920 . S
O342 C355 1.234 . S
C343 O348 1.167 . S
C343 O349 1.299 . S
O344 Zn338 2.114 . S
O344 C339 1.166 . S
O345 Zn337 1.905 . S
O345 C339 1.182 . S
O346 Zn337 1.898 . S
O346 C340 1.167 . S
O347 Zn338 2.120 . S
O347 C340 1.299 . S
O348 Zn336 1.898 . S
O348 C343 1.167 . S
O349 Zn338 2.120 . S
O349 C343 1.299 . S
O350 Zn338 2.114 . S
O350 C352 1.166 . S
O351 Zn336 1.905 . S
O351 C352 1.182 . S
C352 O350 1.166 . S
C352 O351 1.182 . S
O353 Zn338 2.080 . S
O353 C356 1.305 . S
O354 Zn337 1.920 . S
O354 C356 1.234 . S
C355 O341 1.305 . S
C355 O342 1.234 . S
C356 O353 1.305 . S
C356 O354 1.234 . S
Zn357 O363 1.920 . S
Zn357 O369 1.898 . S
Zn357 O372 1.905 . S
Zn358 O366 1.905 . S
Zn358 O367 1.898 . S
Zn358 O375 1.920 . S
Zn359 O362 2.080 . S
Zn359 O365 2.114 . S
Zn359 O368 2.120 . S
Zn359 O370 2.120 . S
Zn359 O371 2.114 . S
Zn359 O374 2.080 . S
C360 O365 1.166 . S
C360 O366 1.182 . S
C361 O367 1.167 . S
C361 O368 1.299 . S
O362 Zn359 2.080 . S
O362 C376 1.305 . S
O363 Zn357 1.920 . S
O363 C376 1.234 . S
C364 O369 1.167 . S
C364 O370 1.299 . S
O365 Zn359 2.114 . S
O365 C360 1.166 . S
O366 Zn358 1.905 . S
O366 C360 1.182 . S
O367 Zn358 1.898 . S
O367 C361 1.167 . S
O368 Zn359 2.120 . S
O368 C361 1.299 . S
O369 Zn357 1.898 . S
O369 C364 1.167 . S
O370 Zn359 2.120 . S
O370 C364 1.299 . S
O371 Zn359 2.114 . S
O371 C373 1.166 . S
O372 Zn357 1.905 . S
O372 C373 1.182 . S
C373 O371 1.166 . S
C373 O372 1.182 . S
O374 Zn359 2.080 . S
O374 C377 1.305 . S
O375 Zn358 1.920 . S
O375 C377 1.234 . S
C376 O362 1.305 . S
C376 O363 1.234 . S
C377 O374 1.305 . S
C377 O375 1.234 . S
Zn378 O384 1.920 . S
Zn378 O390 1.898 . S
Zn378 O393 1.905 . S
Zn379 O387 1.905 . S
Zn379 O388 1.898 . S
Zn379 O396 1.920 . S
Zn380 O383 2.080 . S
Zn380 O386 2.114 . S
Zn380 O389 2.120 . S
Zn380 O391 2.120 . S
Zn380 O392 2.114 . S
Zn380 O395 2.080 . S
C381 O386 1.166 . S
C381 O387 1.182 . S
C382 O388 1.167 . S
C382 O389 1.299 . S
O383 Zn380 2.080 . S
O383 C397 1.305 . S
O384 Zn378 1.920 . S
O384 C397 1.234 . S
C385 O390 1.167 . S
C385 O391 1.299 . S
O386 Zn380 2.114 . S
O386 C381 1.166 . S
O387 Zn379 1.905 . S
O387 C381 1.182 . S
O388 Zn379 1.898 . S
O388 C382 1.167 . S
O389 Zn380 2.120 . S
O389 C382 1.299 . S
O390 Zn378 1.898 . S
O390 C385 1.167 . S
O391 Zn380 2.120 . S
O391 C385 1.299 . S
O392 Zn380 2.114 . S
O392 C394 1.166 . S
O393 Zn378 1.905 . S
O393 C394 1.182 . S
C394 O392 1.166 . S
C394 O393 1.182 . S
O395 Zn380 2.080 . S
O395 C398 1.305 . S
O396 Zn379 1.920 . S
O396 C398 1.234 . S
C397 O383 1.305 . S
C397 O384 1.234 . S
C398 O395 1.305 . S
C398 O396 1.234 . S
Zn399 O405 1.920 . S
Zn399 O411 1.898 . S
Zn399 O414 1.905 . S
Zn400 O408 1.905 . S
Zn400 O409 1.898 . S
Zn400 O417 1.920 . S
Zn401 O404 2.080 . S
Zn401 O407 2.114 . S
Zn401 O410 2.120 . S
Zn401 O412 2.120 . S
Zn401 O413 2.114 . S
Zn401 O416 2.080 . S
C402 O407 1.166 . S
C402 O408 1.182 . S
C403 O409 1.167 . S
C403 O410 1.299 . S
O404 Zn401 2.080 . S
O404 C418 1.305 1_556 S
O405 Zn399 1.920 . S
O405 C418 1.234 . S
C406 O411 1.167 . S
C406 O412 1.299 1_554 S
O407 Zn401 2.114 . S
O407 C402 1.166 . S
O408 Zn400 1.905 . S
O408 C402 1.182 . S
O409 Zn400 1.898 . S
O409 C403 1.167 . S
O410 Zn401 2.120 . S
O410 C403 1.299 . S
O411 Zn399 1.898 . S
O411 C406 1.167 . S
O412 Zn401 2.120 . S
O412 C406 1.299 1_556 S
O413 Zn401 2.114 . S
O413 C415 1.166 1_556 S
O414 Zn399 1.905 . S
O414 C415 1.182 . S
C415 O413 1.166 1_554 S
C415 O414 1.182 . S
O416 Zn401 2.080 . S
O416 C419 1.305 . S
O417 Zn400 1.920 . S
O417 C419 1.234 . S
C418 O404 1.305 1_554 S
C418 O405 1.234 . S
C419 O416 1.305 . S
C419 O417 1.234 . S
Zn420 O426 1.920 . S
Zn420 O432 1.898 . S
Zn420 O435 1.905 . S
Zn421 O429 1.905 . S
Zn421 O430 1.898 . S
Zn421 O438 1.920 . S
Zn422 O425 2.080 . S
Zn422 O428 2.114 . S
Zn422 O431 2.120 . S
Zn422 O433 2.120 . S
Zn422 O434 2.114 . S
Zn422 O437 2.080 . S
C423 O428 1.166 . S
C423 O429 1.182 . S
C424 O430 1.167 . S
C424 O431 1.299 . S
O425 Zn422 2.080 . S
O425 C439 1.305 . S
O426 Zn420 1.920 . S
O426 C439 1.234 . S
C427 O432 1.167 . S
C427 O433 1.299 . S
O428 Zn422 2.114 . S
O428 C423 1.166 . S
O429 Zn421 1.905 . S
O429 C423 1.182 . S
O430 Zn421 1.898 . S
O430 C424 1.167 . S
O431 Zn422 2.120 . S
O431 C424 1.299 . S
O432 Zn420 1.898 . S
O432 C427 1.167 . S
O433 Zn422 2.120 . S
O433 C427 1.299 . S
O434 Zn422 2.114 . S
O434 C436 1.166 . S
O435 Zn420 1.905 . S
O435 C436 1.182 . S
C436 O434 1.166 . S
C436 O435 1.182 . S
O437 Zn422 2.080 . S
O437 C440 1.305 . S
O438 Zn421 1.920 . S
O438 C440 1.234 . S
C439 O425 1.305 . S
C439 O426 1.234 . S
C440 O437 1.305 . S
C440 O438 1.234 . S
Zn441 O447 1.920 . S
Zn441 O453 1.898 . S
Zn441 O456 1.905 . S
Zn442 O450 1.905 . S
Zn442 O451 1.898 . S
Zn442 O459 1.920 . S
Zn443 O446 2.080 . S
Zn443 O449 2.114 . S
Zn443 O452 2.120 . S
Zn443 O454 2.120 . S
Zn443 O455 2.114 . S
Zn443 O458 2.080 . S
C444 O449 1.166 1_556 S
C444 O450 1.182 . S
C445 O451 1.167 . S
C445 O452 1.299 1_556 S
O446 Zn443 2.080 . S
O446 C460 1.305 . S
O447 Zn441 1.920 . S
O447 C460 1.234 . S
C448 O453 1.167 . S
C448 O454 1.299 . S
O449 Zn443 2.114 . S
O449 C444 1.166 1_554 S
O450 Zn442 1.905 . S
O450 C444 1.182 . S
O451 Zn442 1.898 . S
O451 C445 1.167 . S
O452 Zn443 2.120 . S
O452 C445 1.299 1_554 S
O453 Zn441 1.898 . S
O453 C448 1.167 . S
O454 Zn443 2.120 . S
O454 C448 1.299 . S
O455 Zn443 2.114 . S
O455 C457 1.166 . S
O456 Zn441 1.905 . S
O456 C457 1.182 . S
C457 O455 1.166 . S
C457 O456 1.182 . S
O458 Zn443 2.080 . S
O458 C461 1.305 1_554 S
O459 Zn442 1.920 . S
O459 C461 1.234 . S
C460 O446 1.305 . S
C460 O447 1.234 . S
C461 O458 1.305 1_556 S
C461 O459 1.234 . S
Zn462 O468 1.920 . S
Zn462 O474 1.898 . S
Zn462 O477 1.905 . S
Zn463 O471 1.905 . S
Zn463 O472 1.898 . S
Zn463 O480 1.920 . S
Zn464 O467 2.080 . S
Zn464 O470 2.114 . S
Zn464 O473 2.120 . S
Zn464 O475 2.120 . S
Zn464 O476 2.114 . S
Zn464 O479 2.080 . S
C465 O470 1.166 . S
C465 O471 1.182 . S
C466 O472 1.167 . S
C466 O473 1.299 . S
O467 Zn464 2.080 . S
O467 C481 1.305 . S
O468 Zn462 1.920 . S
O468 C481 1.234 . S
C469 O474 1.167 . S
C469 O475 1.299 . S
O470 Zn464 2.114 . S
O470 C465 1.166 . S
O471 Zn463 1.905 . S
O471 C465 1.182 . S
O472 Zn463 1.898 . S
O472 C466 1.167 . S
O473 Zn464 2.120 . S
O473 C466 1.299 . S
O474 Zn462 1.898 . S
O474 C469 1.167 . S
O475 Zn464 2.120 . S
O475 C469 1.299 . S
O476 Zn464 2.114 . S
O476 C478 1.166 . S
O477 Zn462 1.905 . S
O477 C478 1.182 . S
C478 O476 1.166 . S
C478 O477 1.182 . S
O479 Zn464 2.080 . S
O479 C482 1.305 . S
O480 Zn463 1.920 . S
O480 C482 1.234 . S
C481 O467 1.305 . S
C481 O468 1.234 . S
C482 O479 1.305 . S
C482 O480 1.234 . S
Zn483 O489 1.920 . S
Zn483 O495 1.898 . S
Zn483 O498 1.905 . S
Zn484 O492 1.905 . S
Zn484 O493 1.898 . S
Zn484 O501 1.920 . S
Zn485 O488 2.080 . S
Zn485 O491 2.114 . S
Zn485 O494 2.120 . S
Zn485 O496 2.120 . S
Zn485 O497 2.114 . S
Zn485 O500 2.080 . S
C486 O491 1.166 . S
C486 O492 1.182 . S
C487 O493 1.167 . S
C487 O494 1.299 . S
O488 Zn485 2.080 . S
O488 C502 1.305 . S
O489 Zn483 1.920 . S
O489 C502 1.234 . S
C490 O495 1.167 . S
C490 O496 1.299 . S
O491 Zn485 2.114 . S
O491 C486 1.166 . S
O492 Zn484 1.905 . S
O492 C486 1.182 . S
O493 Zn484 1.898 . S
O493 C487 1.167 . S
O494 Zn485 2.120 . S
O494 C487 1.299 . S
O495 Zn483 1.898 . S
O495 C490 1.167 . S
O496 Zn485 2.120 . S
O496 C490 1.299 . S
O497 Zn485 2.114 . S
O497 C499 1.166 . S
O498 Zn483 1.905 . S
O498 C499 1.182 . S
C499 O497 1.166 . S
C499 O498 1.182 . S
O500 Zn485 2.080 . S
O500 C503 1.305 . S
O501 Zn484 1.920 . S
O501 C503 1.234 . S
C502 O488 1.305 . S
C502 O489 1.234 . S
C503 O500 1.305 . S
C503 O501 1.234 . S
H504 C510 0.930 . S
H505 C514 0.930 . S
H506 C519 0.929 . S
H507 C517 0.929 . S
H508 C512 0.929 . S
H509 C518 0.929 . S
C510 H504 0.930 . S
C510 C511 1.367 . S
C510 C518 1.378 . S
C511 C510 1.367 . S
C511 C519 1.433 . S
C512 H508 0.929 . S
C512 C514 1.378 . S
C512 C516 1.350 . S
C513 C516 1.463 . S
C513 C518 1.350 . S
C513 N521 1.427 . S
C514 H505 0.930 . S
C514 C512 1.378 . S
C514 C515 1.367 . S
C515 C514 1.367 . S
C515 C517 1.433 . S
C516 C512 1.350 . S
C516 C513 1.463 . S
C516 N520 1.427 . S
C517 H507 0.929 . S
C517 C515 1.433 . S
C517 N520 1.384 . S
C518 H509 0.929 . S
C518 C510 1.378 . S
C518 C513 1.350 . S
C519 H506 0.929 . S
C519 C511 1.433 . S
C519 N521 1.384 . S
N520 C516 1.427 . S
N520 C517 1.384 . S
N521 C513 1.427 . S
N521 C519 1.384 . S
H522 C528 0.930 . S
H523 C532 0.930 . S
H524 C537 0.929 . S
H525 C535 0.929 . S
H526 C530 0.929 . S
H527 C536 0.929 . S
C528 H522 0.930 . S
C528 C529 1.347 1_565 S
C528 C536 1.378 . S
C529 C528 1.347 1_545 S
C529 C537 1.447 . S
C530 H526 0.929 . S
C530 C532 1.378 . S
C530 C534 1.350 . S
C531 C534 1.463 . S
C531 C536 1.350 1_545 S
C531 N539 1.427 . S
C532 H523 0.930 . S
C532 C530 1.378 . S
C532 C533 1.367 . S
C533 C532 1.367 . S
C533 C535 1.433 1_545 S
C534 C530 1.350 . S
C534 C531 1.463 . S
C534 N538 1.427 1_545 S
C535 H525 0.929 . S
C535 C533 1.433 1_565 S
C535 N538 1.384 . S
C536 H527 0.929 . S
C536 C528 1.378 . S
C536 C531 1.350 1_565 S
C537 H524 0.929 . S
C537 C529 1.447 . S
C537 N539 1.384 . S
N538 C534 1.427 1_565 S
N538 C535 1.384 . S
N539 C531 1.427 . S
N539 C537 1.384 . S
H540 C546 0.930 . S
H541 C550 0.930 . S
H542 C555 0.929 . S
H543 C553 0.929 1_655 S
H544 C548 0.929 . S
H545 C554 0.929 . S
C546 H540 0.930 . S
C546 C547 1.367 . S
C546 C554 1.378 . S
C547 C546 1.367 . S
C547 C555 1.433 . S
C548 H544 0.929 . S
C548 C550 1.378 . S
C548 C552 1.350 . S
C549 C552 1.463 . S
C549 C554 1.350 . S
C549 N557 1.427 . S
C550 H541 0.930 . S
C550 C548 1.378 . S
C550 C551 1.367 . S
C551 C550 1.367 . S
C551 C553 1.433 . S
C552 C548 1.350 . S
C552 C549 1.463 . S
C552 N556 1.427 . S
C553 H543 0.929 1_455 S
C553 C551 1.433 . S
C553 N556 1.384 . S
C554 H545 0.929 . S
C554 C546 1.378 . S
C554 C549 1.350 . S
C555 H542 0.929 . S
C555 C547 1.433 . S
C555 N557 1.384 . S
N556 C552 1.427 . S
N556 C553 1.384 . S
N557 C549 1.427 . S
N557 C555 1.384 . S
H558 C564 0.930 . S
H559 C568 0.930 . S
H560 C573 0.929 . S
H561 C571 0.929 . S
H562 C566 0.929 . S
H563 C572 0.929 . S
C564 H558 0.930 . S
C564 C565 1.367 . S
C564 C572 1.378 . S
C565 C564 1.367 . S
C565 C573 1.433 . S
C566 H562 0.929 . S
C566 C568 1.378 . S
C566 C570 1.350 . S
C567 C570 1.463 . S
C567 C572 1.350 . S
C567 N575 1.427 . S
C568 H559 0.930 . S
C568 C566 1.378 . S
C568 C569 1.367 . S
C569 C568 1.367 . S
C569 C571 1.433 . S
C570 C566 1.350 . S
C570 C567 1.463 . S
C570 N574 1.427 . S
C571 H561 0.929 . S
C571 C569 1.433 . S
C571 N574 1.384 . S
C572 H563 0.929 . S
C572 C564 1.378 . S
C572 C567 1.350 . S
C573 H560 0.929 . S
C573 C565 1.433 . S
C573 N575 1.384 . S
N574 C570 1.427 . S
N574 C571 1.384 . S
N575 C567 1.427 . S
N575 C573 1.384 . S
H576 C582 0.930 . S
H577 C586 0.930 . S
H578 C591 0.929 . S
H579 C589 0.929 . S
H580 C584 0.929 . S
H581 C590 0.929 . S
C582 H576 0.930 . S
C582 C583 1.367 1_565 S
C582 C590 1.378 . S
C583 C582 1.367 1_545 S
C583 C591 1.433 . S
C584 H580 0.929 . S
C584 C586 1.378 . S
C584 C588 1.350 . S
C585 C588 1.463 . S
C585 C590 1.350 1_545 S
C585 N593 1.427 . S
C586 H577 0.930 . S
C586 C584 1.378 . S
C586 C587 1.383 . S
C587 C586 1.383 . S
C587 C589 1.426 1_545 S
C588 C584 1.350 . S
C588 C585 1.463 . S
C588 N592 1.427 1_545 S
C589 H579 0.929 . S
C589 C587 1.426 1_565 S
C589 N592 1.384 . S
C590 H581 0.929 . S
C590 C582 1.378 . S
C590 C585 1.350 1_565 S
C591 H578 0.929 . S
C591 C583 1.433 . S
C591 N593 1.384 . S
N592 C588 1.427 1_565 S
N592 C589 1.384 . S
N593 C585 1.427 . S
N593 C591 1.384 . S
H594 C600 0.930 . S
H595 C604 0.930 . S
H596 C609 0.929 . S
H597 C607 0.929 1_655 S
H598 C602 0.929 . S
H599 C608 0.929 . S
C600 H594 0.930 . S
C600 C601 1.367 1_655 S
C600 C608 1.378 . S
C601 C600 1.367 1_455 S
C601 C609 1.433 . S
C602 H598 0.929 . S
C602 C604 1.378 . S
C602 C606 1.350 . S
C603 C606 1.463 . S
C603 C608 1.350 1_455 S
C603 N611 1.427 . S
C604 H595 0.930 . S
C604 C602 1.378 . S
C604 C605 1.367 . S
C605 C604 1.367 . S
C605 C607 1.433 . S
C606 C602 1.350 . S
C606 C603 1.463 . S
C606 N610 1.428 . S
C607 H597 0.929 1_455 S
C607 C605 1.433 . S
C607 N610 1.383 . S
C608 H599 0.929 . S
C608 C600 1.378 . S
C608 C603 1.350 1_655 S
C609 H596 0.929 . S
C609 C601 1.433 . S
C609 N611 1.384 . S
N610 C606 1.428 . S
N610 C607 1.383 . S
N611 C603 1.427 . S
N611 C609 1.384 . S
H612 C618 0.930 . S
H613 C622 0.930 . S
H614 C627 0.929 . S
H615 C625 0.929 . S
H616 C620 0.929 . S
H617 C626 0.929 . S
C618 H612 0.930 . S
C618 C619 1.367 . S
C618 C626 1.378 . S
C619 C618 1.367 . S
C619 C627 1.433 . S
C620 H616 0.929 . S
C620 C622 1.378 . S
C620 C624 1.350 . S
C621 C624 1.463 . S
C621 C626 1.350 . S
C621 N629 1.427 . S
C622 H613 0.930 . S
C622 C620 1.378 . S
C622 C623 1.367 . S
C623 C622 1.367 . S
C623 C625 1.433 . S
C624 C620 1.350 . S
C624 C621 1.463 . S
C624 N628 1.427 . S
C625 H615 0.929 . S
C625 C623 1.433 . S
C625 N628 1.384 . S
C626 H617 0.929 . S
C626 C618 1.378 . S
C626 C621 1.350 . S
C627 H614 0.929 . S
C627 C619 1.433 . S
C627 N629 1.384 . S
N628 C624 1.427 . S
N628 C625 1.384 . S
N629 C621 1.427 . S
N629 C627 1.384 . S
H630 C636 0.930 . S
H631 C640 0.930 . S
H632 C645 0.929 . S
H633 C643 0.929 . S
H634 C638 0.929 . S
H635 C644 0.929 . S
C636 H630 0.930 . S
C636 C637 1.367 . S
C636 C644 1.378 . S
C637 C636 1.367 . S
C637 C645 1.433 1_545 S
C638 H634 0.929 . S
C638 C640 1.378 . S
C638 C642 1.350 1_565 S
C639 C642 1.463 . S
C639 C644 1.350 . S
C639 N647 1.427 1_545 S
C640 H631 0.930 . S
C640 C638 1.378 . S
C640 C641 1.367 1_565 S
C641 C640 1.367 1_545 S
C641 C643 1.433 . S
C642 C638 1.350 1_545 S
C642 C639 1.463 . S
C642 N646 1.427 . S
C643 H633 0.929 . S
C643 C641 1.433 . S
C643 N646 1.384 . S
C644 H635 0.929 . S
C644 C636 1.378 . S
C644 C639 1.350 . S
C645 H632 0.929 . S
C645 C637 1.433 1_565 S
C645 N647 1.384 . S
N646 C642 1.427 . S
N646 C643 1.384 . S
N647 C639 1.427 1_565 S
N647 C645 1.384 . S
H648 C654 0.930 . S
H649 C658 0.930 . S
H650 C663 0.929 . S
H651 C661 0.929 1_655 S
H652 C656 0.929 . S
H653 C662 0.929 . S
C654 H648 0.930 . S
C654 C655 1.367 1_655 S
C654 C662 1.378 . S
C655 C654 1.367 1_455 S
C655 C663 1.433 . S
C656 H652 0.929 . S
C656 C658 1.378 . S
C656 C660 1.350 . S
C657 C660 1.463 . S
C657 C662 1.350 1_455 S
C657 N665 1.427 . S
C658 H649 0.930 . S
C658 C656 1.378 . S
C658 C659 1.367 . S
C659 C658 1.367 . S
C659 C661 1.433 . S
C660 C656 1.350 . S
C660 C657 1.463 . S
C660 N664 1.426 . S
C661 H651 0.929 1_455 S
C661 C659 1.433 . S
C661 N664 1.396 . S
C662 H653 0.929 . S
C662 C654 1.378 . S
C662 C657 1.350 1_655 S
C663 H650 0.929 . S
C663 C655 1.433 . S
C663 N665 1.384 . S
N664 C660 1.426 . S
N664 C661 1.396 . S
N665 C657 1.427 . S
N665 C663 1.384 . S
H666 C672 0.930 . S
H667 C676 0.930 . S
H668 C681 0.929 . S
H669 C679 0.929 . S
H670 C674 0.929 . S
H671 C680 0.929 . S
C672 H666 0.930 . S
C672 C673 1.367 . S
C672 C680 1.378 . S
C673 C672 1.367 . S
C673 C681 1.433 . S
C674 H670 0.929 . S
C674 C676 1.378 . S
C674 C678 1.350 . S
C675 C678 1.463 . S
C675 C680 1.350 . S
C675 N683 1.427 . S
C676 H667 0.930 . S
C676 C674 1.378 . S
C676 C677 1.367 . S
C677 C676 1.367 . S
C677 C679 1.433 . S
C678 C674 1.350 . S
C678 C675 1.463 . S
C678 N682 1.427 . S
C679 H669 0.929 . S
C679 C677 1.433 . S
C679 N682 1.384 . S
C680 H671 0.929 . S
C680 C672 1.378 . S
C680 C675 1.350 . S
C681 H668 0.929 . S
C681 C673 1.433 . S
C681 N683 1.384 . S
N682 C678 1.427 . S
N682 C679 1.384 . S
N683 C675 1.427 . S
N683 C681 1.384 . S
H684 C690 0.930 . S
H685 C694 0.930 1_565 S
H686 C699 0.929 . S
H687 C697 0.929 . S
H688 C692 0.929 . S
H689 C698 0.929 . S
C690 H684 0.930 . S
C690 C691 1.367 . S
C690 C698 1.378 . S
C691 C690 1.367 . S
C691 C699 1.433 1_545 S
C692 H688 0.929 . S
C692 C694 1.378 1_565 S
C692 C696 1.350 1_565 S
C693 C696 1.463 . S
C693 C698 1.350 . S
C693 N701 1.427 1_545 S
C694 H685 0.930 1_545 S
C694 C692 1.378 1_545 S
C694 C695 1.367 . S
C695 C694 1.367 . S
C695 C697 1.433 . S
C696 C692 1.350 1_545 S
C696 C693 1.463 . S
C696 N700 1.427 . S
C697 H687 0.929 . S
C697 C695 1.433 . S
C697 N700 1.384 . S
C698 H689 0.929 . S
C698 C690 1.378 . S
C698 C693 1.350 . S
C699 H686 0.929 . S
C699 C691 1.433 1_565 S
C699 N701 1.384 . S
N700 C696 1.427 . S
N700 C697 1.384 . S
N701 C693 1.427 1_565 S
N701 C699 1.384 . S
H702 C708 0.930 . S
H703 C712 0.930 . S
H704 C717 0.929 . S
H705 C715 0.929 . S
H706 C710 0.929 . S
H707 C716 0.929 . S
C708 H702 0.930 . S
C708 C709 1.367 . S
C708 C716 1.378 . S
C709 C708 1.367 . S
C709 C717 1.433 1_455 S
C710 H706 0.929 . S
C710 C712 1.378 . S
C710 C714 1.350 1_655 S
C711 C714 1.463 . S
C711 C716 1.350 . S
C711 N719 1.427 1_455 S
C712 H703 0.930 . S
C712 C710 1.378 . S
C712 C713 1.367 1_655 S
C713 C712 1.367 1_455 S
C713 C715 1.433 . S
C714 C710 1.350 1_455 S
C714 C711 1.463 . S
C714 N718 1.427 . S
C715 H705 0.929 . S
C715 C713 1.433 . S
C715 N718 1.384 . S
C716 H707 0.929 . S
C716 C708 1.378 . S
C716 C711 1.350 . S
C717 H704 0.929 . S
C717 C709 1.433 1_655 S
C717 N719 1.384 . S
N718 C714 1.427 . S
N718 C715 1.384 . S
N719 C711 1.427 1_655 S
N719 C717 1.384 . S
H720 C726 0.930 . S
H721 C730 0.930 . S
H722 C735 0.929 . S
H723 C733 0.929 . S
H724 C728 0.929 . S
H725 C734 0.929 . S
C726 H720 0.930 . S
C726 C727 1.367 . S
C726 C734 1.378 . S
C727 C726 1.367 . S
C727 C735 1.433 . S
C728 H724 0.929 . S
C728 C730 1.378 . S
C728 C732 1.350 . S
C729 C732 1.463 . S
C729 C734 1.350 . S
C729 N737 1.427 . S
C730 H721 0.930 . S
C730 C728 1.378 . S
C730 C731 1.367 . S
C731 C730 1.367 . S
C731 C733 1.433 . S
C732 C728 1.350 . S
C732 C729 1.463 . S
C732 N736 1.427 . S
C733 H723 0.929 . S
C733 C731 1.433 . S
C733 N736 1.384 . S
C734 H725 0.929 . S
C734 C726 1.378 . S
C734 C729 1.350 . S
C735 H722 0.929 . S
C735 C727 1.433 . S
C735 N737 1.384 . S
N736 C732 1.427 . S
N736 C733 1.384 . S
N737 C729 1.427 . S
N737 C735 1.384 . S
H738 C744 0.930 . S
H739 C748 0.930 . S
H740 C753 0.929 . S
H741 C751 0.929 . S
H742 C746 0.929 . S
H743 C752 0.929 . S
C744 H738 0.930 . S
C744 C745 1.367 . S
C744 C752 1.378 . S
C745 C744 1.367 . S
C745 C753 1.433 . S
C746 H742 0.929 . S
C746 C748 1.378 . S
C746 C750 1.350 . S
C747 C750 1.463 . S
C747 C752 1.350 . S
C747 N755 1.427 . S
C748 H739 0.930 . S
C748 C746 1.378 . S
C748 C749 1.367 . S
C749 C748 1.367 . S
C749 C751 1.433 . S
C750 C746 1.350 . S
C750 C747 1.463 . S
C750 N754 1.427 . S
C751 H741 0.929 . S
C751 C749 1.433 . S
C751 N754 1.384 . S
C752 H743 0.929 . S
C752 C744 1.378 . S
C752 C747 1.350 . S
C753 H740 0.929 . S
C753 C745 1.433 . S
C753 N755 1.384 . S
N754 C750 1.427 . S
N754 C751 1.384 . S
N755 C747 1.427 . S
N755 C753 1.384 . S
H756 C762 0.930 . S
H757 C766 0.930 . S
H758 C771 0.929 . S
H759 C769 0.929 . S
H760 C764 0.929 . S
H761 C770 0.929 . S
C762 H756 0.930 . S
C762 C763 1.367 . S
C762 C770 1.378 . S
C763 C762 1.367 . S
C763 C771 1.433 . S
C764 H760 0.929 . S
C764 C766 1.378 . S
C764 C768 1.350 . S
C765 C768 1.463 . S
C765 C770 1.350 . S
C765 N773 1.427 . S
C766 H757 0.930 . S
C766 C764 1.378 . S
C766 C767 1.367 . S
C767 C766 1.367 . S
C767 C769 1.433 . S
C768 C764 1.350 . S
C768 C765 1.463 . S
C768 N772 1.427 . S
C769 H759 0.929 . S
C769 C767 1.433 . S
C769 N772 1.384 . S
C770 H761 0.929 . S
C770 C762 1.378 . S
C770 C765 1.350 . S
C771 H758 0.929 . S
C771 C763 1.433 . S
C771 N773 1.384 . S
N772 C768 1.427 . S
N772 C769 1.384 . S
N773 C765 1.427 . S
N773 C771 1.384 . S
H774 C780 0.930 . S
H775 C784 0.930 . S
H776 C789 0.929 . S
H777 C787 0.929 . S
H778 C782 0.929 . S
H779 C788 0.929 . S
C780 H774 0.930 . S
C780 C781 1.367 . S
C780 C788 1.378 . S
C781 C780 1.367 . S
C781 C789 1.433 . S
C782 H778 0.929 . S
C782 C784 1.378 . S
C782 C786 1.350 . S
C783 C786 1.463 . S
C783 C788 1.350 . S
C783 N791 1.427 . S
C784 H775 0.930 . S
C784 C782 1.378 . S
C784 C785 1.367 . S
C785 C784 1.367 . S
C785 C787 1.433 . S
C786 C782 1.350 . S
C786 C783 1.463 . S
C786 N790 1.427 . S
C787 H777 0.929 . S
C787 C785 1.433 . S
C787 N790 1.384 . S
C788 H779 0.929 . S
C788 C780 1.378 . S
C788 C783 1.350 . S
C789 H776 0.929 . S
C789 C781 1.433 . S
C789 N791 1.384 . S
N790 C786 1.427 . S
N790 C787 1.384 . S
N791 C783 1.427 . S
N791 C789 1.384 . S
H792 C798 0.930 . S
H793 C802 0.930 . S
H794 C807 0.929 . S
H795 C805 0.929 . S
H796 C800 0.929 . S
H797 C806 0.929 . S
C798 H792 0.930 . S
C798 C799 1.367 . S
C798 C806 1.378 . S
C799 C798 1.367 . S
C799 C807 1.433 . S
C800 H796 0.929 . S
C800 C802 1.378 . S
C800 C804 1.350 . S
C801 C804 1.463 . S
C801 C806 1.350 . S
C801 N809 1.427 . S
C802 H793 0.930 . S
C802 C800 1.378 . S
C802 C803 1.367 . S
C803 C802 1.367 . S
C803 C805 1.433 . S
C804 C800 1.350 . S
C804 C801 1.463 . S
C804 N808 1.427 . S
C805 H795 0.929 . S
C805 C803 1.433 . S
C805 N808 1.384 . S
C806 H797 0.929 . S
C806 C798 1.378 . S
C806 C801 1.350 . S
C807 H794 0.929 . S
C807 C799 1.433 . S
C807 N809 1.384 . S
N808 C804 1.427 . S
N808 C805 1.384 . S
N809 C801 1.427 . S
N809 C807 1.384 . S
H810 C816 0.930 . S
H811 C820 0.930 . S
H812 C825 0.929 . S
H813 C823 0.929 . S
H814 C818 0.929 . S
H815 C824 0.929 . S
C816 H810 0.930 . S
C816 C817 1.367 . S
C816 C824 1.378 . S
C817 C816 1.367 . S
C817 C825 1.433 . S
C818 H814 0.929 . S
C818 C820 1.378 . S
C818 C822 1.350 . S
C819 C822 1.463 . S
C819 C824 1.350 . S
C819 N827 1.427 . S
C820 H811 0.930 . S
C820 C818 1.378 . S
C820 C821 1.367 . S
C821 C820 1.367 . S
C821 C823 1.433 . S
C822 C818 1.350 . S
C822 C819 1.463 . S
C822 N826 1.427 . S
C823 H813 0.929 . S
C823 C821 1.433 . S
C823 N826 1.384 . S
C824 H815 0.929 . S
C824 C816 1.378 . S
C824 C819 1.350 . S
C825 H812 0.929 . S
C825 C817 1.433 . S
C825 N827 1.384 . S
N826 C822 1.427 . S
N826 C823 1.384 . S
N827 C819 1.427 . S
N827 C825 1.384 . S
H828 C834 0.930 . S
H829 C838 0.930 . S
H830 C843 0.929 . S
H831 C841 0.929 . S
H832 C836 0.929 . S
H833 C842 0.929 . S
C834 H828 0.930 . S
C834 C835 1.367 . S
C834 C842 1.378 . S
C835 C834 1.367 . S
C835 C843 1.433 . S
C836 H832 0.929 . S
C836 C838 1.378 . S
C836 C840 1.350 . S
C837 C840 1.463 . S
C837 C842 1.350 . S
C837 N845 1.427 . S
C838 H829 0.930 . S
C838 C836 1.378 . S
C838 C839 1.367 . S
C839 C838 1.367 . S
C839 C841 1.433 . S
C840 C836 1.350 . S
C840 C837 1.463 . S
C840 N844 1.427 . S
C841 H831 0.929 . S
C841 C839 1.433 . S
C841 N844 1.384 . S
C842 H833 0.929 . S
C842 C834 1.378 . S
C842 C837 1.350 . S
C843 H830 0.929 . S
C843 C835 1.433 . S
C843 N845 1.384 . S
N844 C840 1.427 . S
N844 C841 1.384 . S
N845 C837 1.427 . S
N845 C843 1.384 . S
H846 C852 0.930 . S
H847 C856 0.930 . S
H848 C861 0.929 . S
H849 C859 0.929 . S
H850 C854 0.929 . S
H851 C860 0.929 . S
C852 H846 0.930 . S
C852 C853 1.367 . S
C852 C860 1.378 . S
C853 C852 1.367 . S
C853 C861 1.433 . S
C854 H850 0.929 . S
C854 C856 1.378 . S
C854 C858 1.350 . S
C855 C858 1.463 . S
C855 C860 1.350 . S
C855 N863 1.427 . S
C856 H847 0.930 . S
C856 C854 1.378 . S
C856 C857 1.367 . S
C857 C856 1.367 . S
C857 C859 1.433 . S
C858 C854 1.350 . S
C858 C855 1.463 . S
C858 N862 1.427 . S
C859 H849 0.929 . S
C859 C857 1.433 . S
C859 N862 1.384 . S
C860 H851 0.929 . S
C860 C852 1.378 . S
C860 C855 1.350 . S
C861 H848 0.929 . S
C861 C853 1.433 . S
C861 N863 1.384 . S
N862 C858 1.427 . S
N862 C859 1.384 . S
N863 C855 1.427 . S
N863 C861 1.384 . S
H864 C870 0.930 . S
H865 C874 0.930 . S
H866 C879 0.929 . S
H867 C877 0.929 . S
H868 C872 0.929 . S
H869 C878 0.929 . S
C870 H864 0.930 . S
C870 C871 1.367 . S
C870 C878 1.378 . S
C871 C870 1.367 . S
C871 C879 1.433 . S
C872 H868 0.929 . S
C872 C874 1.378 . S
C872 C876 1.350 . S
C873 C876 1.463 . S
C873 C878 1.350 . S
C873 N881 1.427 . S
C874 H865 0.930 . S
C874 C872 1.378 . S
C874 C875 1.367 . S
C875 C874 1.367 . S
C875 C877 1.433 . S
C876 C872 1.350 . S
C876 C873 1.463 . S
C876 N880 1.427 . S
C877 H867 0.929 . S
C877 C875 1.433 . S
C877 N880 1.384 . S
C878 H869 0.929 . S
C878 C870 1.378 . S
C878 C873 1.350 . S
C879 H866 0.929 . S
C879 C871 1.433 . S
C879 N881 1.384 . S
N880 C876 1.427 . S
N880 C877 1.384 . S
N881 C873 1.427 . S
N881 C879 1.384 . S
H882 C888 0.930 . S
H883 C892 0.930 1_556 S
H884 C897 0.929 . S
H885 C895 0.929 . S
H886 C890 0.929 . S
H887 C896 0.929 . S
C888 H882 0.930 . S
C888 C889 1.367 . S
C888 C896 1.378 . S
C889 C888 1.367 . S
C889 C897 1.433 . S
C890 H886 0.929 . S
C890 C892 1.378 . S
C890 C894 1.350 . S
C891 C894 1.463 . S
C891 C896 1.350 . S
C891 N899 1.427 . S
C892 H883 0.930 1_554 S
C892 C890 1.378 . S
C892 C893 1.367 . S
C893 C892 1.367 . S
C893 C895 1.433 . S
C894 C890 1.350 . S
C894 C891 1.463 . S
C894 N898 1.427 . S
C895 H885 0.929 . S
C895 C893 1.433 . S
C895 N898 1.384 . S
C896 H887 0.929 . S
C896 C888 1.378 . S
C896 C891 1.350 . S
C897 H884 0.929 . S
C897 C889 1.433 . S
C897 N899 1.384 . S
N898 C894 1.427 . S
N898 C895 1.384 . S
N899 C891 1.427 . S
N899 C897 1.384 . S
H900 C906 0.930 . S
H901 C910 0.930 1_556 S
H902 C915 0.929 . S
H903 C913 0.929 . S
H904 C908 0.929 . S
H905 C914 0.929 . S
C906 H900 0.930 . S
C906 C907 1.367 . S
C906 C914 1.378 . S
C907 C906 1.367 . S
C907 C915 1.433 . S
C908 H904 0.929 . S
C908 C910 1.378 . S
C908 C912 1.350 . S
C909 C912 1.463 . S
C909 C914 1.350 . S
C909 N917 1.427 . S
C910 H901 0.930 1_554 S
C910 C908 1.378 . S
C910 C911 1.367 . S
C911 C910 1.367 . S
C911 C913 1.433 . S
C912 C908 1.350 . S
C912 C909 1.463 . S
C912 N916 1.427 . S
C913 H903 0.929 . S
C913 C911 1.433 . S
C913 N916 1.384 . S
C914 H905 0.929 . S
C914 C906 1.378 . S
C914 C909 1.350 . S
C915 H902 0.929 . S
C915 C907 1.433 . S
C915 N917 1.384 . S
N916 C912 1.427 . S
N916 C913 1.384 . S
N917 C909 1.427 . S
N917 C915 1.384 . S
H918 C924 0.930 . S
H919 C928 0.930 . S
H920 C933 0.929 . S
H921 C931 0.929 . S
H922 C926 0.929 . S
H923 C932 0.929 . S
C924 H918 0.930 . S
C924 C925 1.367 . S
C924 C932 1.378 . S
C925 C924 1.367 . S
C925 C933 1.433 . S
C926 H922 0.929 . S
C926 C928 1.378 . S
C926 C930 1.350 . S
C927 C930 1.463 . S
C927 C932 1.350 . S
C927 N935 1.427 . S
C928 H919 0.930 . S
C928 C926 1.378 . S
C928 C929 1.367 . S
C929 C928 1.367 . S
C929 C931 1.433 . S
C930 C926 1.350 . S
C930 C927 1.463 . S
C930 N934 1.427 . S
C931 H921 0.929 . S
C931 C929 1.433 . S
C931 N934 1.384 . S
C932 H923 0.929 . S
C932 C924 1.378 . S
C932 C927 1.350 . S
C933 H920 0.929 . S
C933 C925 1.433 . S
C933 N935 1.384 . S
N934 C930 1.427 . S
N934 C931 1.384 . S
N935 C927 1.427 . S
N935 C933 1.384 . S
H936 C942 0.930 . S
H937 C946 0.930 . S
H938 C951 0.929 . S
H939 C949 0.929 . S
H940 C944 0.929 . S
H941 C950 0.929 . S
C942 H936 0.930 . S
C942 C943 1.367 . S
C942 C950 1.378 . S
C943 C942 1.367 . S
C943 C951 1.433 . S
C944 H940 0.929 . S
C944 C946 1.378 . S
C944 C948 1.350 . S
C945 C948 1.463 . S
C945 C950 1.350 . S
C945 N953 1.427 . S
C946 H937 0.930 . S
C946 C944 1.378 . S
C946 C947 1.367 . S
C947 C946 1.367 . S
C947 C949 1.433 . S
C948 C944 1.350 . S
C948 C945 1.463 . S
C948 N952 1.427 . S
C949 H939 0.929 . S
C949 C947 1.433 . S
C949 N952 1.384 . S
C950 H941 0.929 . S
C950 C942 1.378 . S
C950 C945 1.350 . S
C951 H938 0.929 . S
C951 C943 1.433 . S
C951 N953 1.384 . S
N952 C948 1.427 . S
N952 C949 1.384 . S
N953 C945 1.427 . S
N953 C951 1.384 . S
H954 C960 0.930 . S
H955 C964 0.930 . S
H956 C969 0.929 . S
H957 C967 0.929 . S
H958 C962 0.929 . S
H959 C968 0.929 . S
C960 H954 0.930 . S
C960 C961 1.367 . S
C960 C968 1.378 . S
C961 C960 1.367 . S
C961 C969 1.433 . S
C962 H958 0.929 . S
C962 C964 1.378 . S
C962 C966 1.350 . S
C963 C966 1.463 . S
C963 C968 1.350 . S
C963 N971 1.427 . S
C964 H955 0.930 . S
C964 C962 1.378 . S
C964 C965 1.367 . S
C965 C964 1.367 . S
C965 C967 1.433 . S
C966 C962 1.350 . S
C966 C963 1.463 . S
C966 N970 1.427 . S
C967 H957 0.929 . S
C967 C965 1.433 . S
C967 N970 1.384 . S
C968 H959 0.929 . S
C968 C960 1.378 . S
C968 C963 1.350 . S
C969 H956 0.929 . S
C969 C961 1.433 . S
C969 N971 1.384 . S
N970 C966 1.427 . S
N970 C967 1.384 . S
N971 C963 1.427 . S
N971 C969 1.384 . S
H972 C978 0.930 . S
H973 C982 0.930 . S
H974 C987 0.929 . S
H975 C985 0.929 . S
H976 C980 0.929 . S
H977 C986 0.929 . S
C978 H972 0.930 . S
C978 C979 1.367 . S
C978 C986 1.378 . S
C979 C978 1.367 . S
C979 C987 1.433 . S
C980 H976 0.929 . S
C980 C982 1.378 . S
C980 C984 1.350 . S
C981 C984 1.463 . S
C981 C986 1.350 . S
C981 N989 1.427 . S
C982 H973 0.930 . S
C982 C980 1.378 . S
C982 C983 1.367 . S
C983 C982 1.367 . S
C983 C985 1.433 . S
C984 C980 1.350 . S
C984 C981 1.463 . S
C984 N988 1.427 . S
C985 H975 0.929 . S
C985 C983 1.433 . S
C985 N988 1.384 . S
C986 H977 0.929 . S
C986 C978 1.378 . S
C986 C981 1.350 . S
C987 H974 0.929 . S
C987 C979 1.433 . S
C987 N989 1.384 . S
N988 C984 1.427 . S
N988 C985 1.384 . S
N989 C981 1.427 . S
N989 C987 1.384 . S
H990 C996 0.930 . S
H991 C1000 0.930 . S
H992 C1005 0.929 . S
H993 C1003 0.929 1_554 S
H994 C998 0.929 . S
H995 C1004 0.929 . S
C996 H990 0.930 . S
C996 C997 1.367 . S
C996 C1004 1.378 . S
C997 C996 1.367 . S
C997 C1005 1.433 . S
C998 H994 0.929 . S
C998 C1000 1.378 . S
C998 C1002 1.350 . S
C999 C1002 1.463 . S
C999 C1004 1.350 . S
C999 N1007 1.427 . S
C1000 H991 0.930 . S
C1000 C998 1.378 . S
C1000 C1001 1.367 . S
C1001 C1000 1.367 . S
C1001 C1003 1.433 . S
C1002 C998 1.350 . S
C1002 C999 1.463 . S
C1002 N1006 1.427 . S
C1003 H993 0.929 1_556 S
C1003 C1001 1.433 . S
C1003 N1006 1.384 . S
C1004 H995 0.929 . S
C1004 C996 1.378 . S
C1004 C999 1.350 . S
C1005 H992 0.929 . S
C1005 C997 1.433 . S
C1005 N1007 1.384 . S
N1006 C1002 1.427 . S
N1006 C1003 1.384 . S
N1007 C999 1.427 . S
N1007 C1005 1.384 . S
H1008 C1014 0.930 . S
H1009 C1018 0.930 . S
H1010 C1023 0.929 . S
H1011 C1021 0.929 1_554 S
H1012 C1016 0.929 . S
H1013 C1022 0.929 . S
C1014 H1008 0.930 . S
C1014 C1015 1.367 . S
C1014 C1022 1.378 . S
C1015 C1014 1.367 . S
C1015 C1023 1.433 . S
C1016 H1012 0.929 . S
C1016 C1018 1.378 . S
C1016 C1020 1.350 . S
C1017 C1020 1.463 . S
C1017 C1022 1.350 . S
C1017 N1025 1.427 . S
C1018 H1009 0.930 . S
C1018 C1016 1.378 . S
C1018 C1019 1.367 . S
C1019 C1018 1.367 . S
C1019 C1021 1.433 . S
C1020 C1016 1.350 . S
C1020 C1017 1.463 . S
C1020 N1024 1.427 . S
C1021 H1011 0.929 1_556 S
C1021 C1019 1.433 . S
C1021 N1024 1.384 . S
C1022 H1013 0.929 . S
C1022 C1014 1.378 . S
C1022 C1017 1.350 . S
C1023 H1010 0.929 . S
C1023 C1015 1.433 . S
C1023 N1025 1.384 . S
N1024 C1020 1.427 . S
N1024 C1021 1.384 . S
N1025 C1017 1.427 . S
N1025 C1023 1.384 . S
H1026 C1032 0.930 . S
H1027 C1036 0.930 . S
H1028 C1041 0.929 . S
H1029 C1039 0.929 . S
H1030 C1034 0.929 . S
H1031 C1040 0.929 . S
C1032 H1026 0.930 . S
C1032 C1033 1.367 . S
C1032 C1040 1.378 . S
C1033 C1032 1.367 . S
C1033 C1041 1.433 . S
C1034 H1030 0.929 . S
C1034 C1036 1.378 . S
C1034 C1038 1.350 . S
C1035 C1038 1.463 . S
C1035 C1040 1.350 . S
C1035 N1043 1.427 . S
C1036 H1027 0.930 . S
C1036 C1034 1.378 . S
C1036 C1037 1.367 . S
C1037 C1036 1.367 . S
C1037 C1039 1.433 . S
C1038 C1034 1.350 . S
C1038 C1035 1.463 . S
C1038 N1042 1.427 . S
C1039 H1029 0.929 . S
C1039 C1037 1.433 . S
C1039 N1042 1.384 . S
C1040 H1031 0.929 . S
C1040 C1032 1.378 . S
C1040 C1035 1.350 . S
C1041 H1028 0.929 . S
C1041 C1033 1.433 . S
C1041 N1043 1.384 . S
N1042 C1038 1.427 . S
N1042 C1039 1.384 . S
N1043 C1035 1.427 . S
N1043 C1041 1.384 . S
H1044 C1050 0.930 . S
H1045 C1054 0.930 . S
H1046 C1059 0.929 . S
H1047 C1057 0.929 . S
H1048 C1052 0.929 . S
H1049 C1058 0.929 . S
C1050 H1044 0.930 . S
C1050 C1051 1.367 . S
C1050 C1058 1.378 . S
C1051 C1050 1.367 . S
C1051 C1059 1.433 . S
C1052 H1048 0.929 . S
C1052 C1054 1.378 . S
C1052 C1056 1.350 . S
C1053 C1056 1.463 . S
C1053 C1058 1.350 . S
C1053 N1061 1.427 . S
C1054 H1045 0.930 . S
C1054 C1052 1.378 . S
C1054 C1055 1.367 . S
C1055 C1054 1.367 . S
C1055 C1057 1.433 . S
C1056 C1052 1.350 . S
C1056 C1053 1.463 . S
C1056 N1060 1.427 . S
C1057 H1047 0.929 . S
C1057 C1055 1.433 . S
C1057 N1060 1.384 . S
C1058 H1049 0.929 . S
C1058 C1050 1.378 . S
C1058 C1053 1.350 . S
C1059 H1046 0.929 . S
C1059 C1051 1.433 . S
C1059 N1061 1.384 . S
N1060 C1056 1.427 . S
N1060 C1057 1.384 . S
N1061 C1053 1.427 . S
N1061 C1059 1.384 . S
H1062 C1068 0.930 . S
H1063 C1072 0.930 . S
H1064 C1077 0.929 . S
H1065 C1075 0.929 . S
H1066 C1070 0.929 . S
H1067 C1076 0.929 . S
C1068 H1062 0.930 . S
C1068 C1069 1.367 . S
C1068 C1076 1.378 . S
C1069 C1068 1.367 . S
C1069 C1077 1.433 . S
C1070 H1066 0.929 . S
C1070 C1072 1.378 . S
C1070 C1074 1.350 . S
C1071 C1074 1.463 . S
C1071 C1076 1.350 . S
C1071 N1079 1.427 . S
C1072 H1063 0.930 . S
C1072 C1070 1.378 . S
C1072 C1073 1.367 . S
C1073 C1072 1.367 . S
C1073 C1075 1.433 . S
C1074 C1070 1.350 . S
C1074 C1071 1.463 . S
C1074 N1078 1.427 . S
C1075 H1065 0.929 . S
C1075 C1073 1.433 . S
C1075 N1078 1.384 . S
C1076 H1067 0.929 . S
C1076 C1068 1.378 . S
C1076 C1071 1.350 . S
C1077 H1064 0.929 . S
C1077 C1069 1.433 . S
C1077 N1079 1.384 . S
N1078 C1074 1.427 . S
N1078 C1075 1.384 . S
N1079 C1071 1.427 . S
N1079 C1077 1.384 . S
H1080 C1086 0.930 . S
H1081 C1090 0.930 . S
H1082 C1095 0.929 . S
H1083 C1093 0.929 . S
H1084 C1088 0.929 . S
H1085 C1094 0.929 . S
C1086 H1080 0.930 . S
C1086 C1087 1.367 . S
C1086 C1094 1.378 . S
C1087 C1086 1.367 . S
C1087 C1095 1.433 . S
C1088 H1084 0.929 . S
C1088 C1090 1.378 . S
C1088 C1092 1.350 . S
C1089 C1092 1.463 . S
C1089 C1094 1.350 . S
C1089 N1097 1.427 . S
C1090 H1081 0.930 . S
C1090 C1088 1.378 . S
C1090 C1091 1.367 . S
C1091 C1090 1.367 . S
C1091 C1093 1.433 . S
C1092 C1088 1.350 . S
C1092 C1089 1.463 . S
C1092 N1096 1.427 . S
C1093 H1083 0.929 . S
C1093 C1091 1.433 . S
C1093 N1096 1.384 . S
C1094 H1085 0.929 . S
C1094 C1086 1.378 . S
C1094 C1089 1.350 . S
C1095 H1082 0.929 . S
C1095 C1087 1.433 . S
C1095 N1097 1.384 . S
N1096 C1092 1.427 . S
N1096 C1093 1.384 . S
N1097 C1089 1.427 . S
N1097 C1095 1.384 . S
H1098 C1104 0.930 . S
H1099 C1108 0.930 . S
H1100 C1113 0.929 . S
H1101 C1111 0.929 . S
H1102 C1106 0.929 . S
H1103 C1112 0.929 . S
C1104 H1098 0.930 . S
C1104 C1105 1.367 . S
C1104 C1112 1.378 . S
C1105 C1104 1.367 . S
C1105 C1113 1.433 . S
C1106 H1102 0.929 . S
C1106 C1108 1.378 . S
C1106 C1110 1.350 . S
C1107 C1110 1.463 . S
C1107 C1112 1.350 . S
C1107 N1115 1.427 . S
C1108 H1099 0.930 . S
C1108 C1106 1.378 . S
C1108 C1109 1.367 . S
C1109 C1108 1.367 . S
C1109 C1111 1.433 . S
C1110 C1106 1.350 . S
C1110 C1107 1.463 . S
C1110 N1114 1.427 . S
C1111 H1101 0.929 . S
C1111 C1109 1.433 . S
C1111 N1114 1.384 . S
C1112 H1103 0.929 . S
C1112 C1104 1.378 . S
C1112 C1107 1.350 . S
C1113 H1100 0.929 . S
C1113 C1105 1.433 . S
C1113 N1115 1.384 . S
N1114 C1110 1.427 . S
N1114 C1111 1.384 . S
N1115 C1107 1.427 . S
N1115 C1113 1.384 . S
H1116 C1122 0.930 . S
H1117 C1126 0.930 . S
H1118 C1131 0.929 . S
H1119 C1129 0.929 . S
H1120 C1124 0.929 . S
H1121 C1130 0.929 . S
C1122 H1116 0.930 . S
C1122 C1123 1.367 . S
C1122 C1130 1.378 . S
C1123 C1122 1.367 . S
C1123 C1131 1.433 . S
C1124 H1120 0.929 . S
C1124 C1126 1.378 . S
C1124 C1128 1.350 . S
C1125 C1128 1.463 . S
C1125 C1130 1.350 . S
C1125 N1133 1.427 . S
C1126 H1117 0.930 . S
C1126 C1124 1.378 . S
C1126 C1127 1.367 . S
C1127 C1126 1.367 . S
C1127 C1129 1.433 . S
C1128 C1124 1.350 . S
C1128 C1125 1.463 . S
C1128 N1132 1.427 . S
C1129 H1119 0.929 . S
C1129 C1127 1.433 . S
C1129 N1132 1.384 . S
C1130 H1121 0.929 . S
C1130 C1122 1.378 . S
C1130 C1125 1.350 . S
C1131 H1118 0.929 . S
C1131 C1123 1.433 . S
C1131 N1133 1.384 . S
N1132 C1128 1.427 . S
N1132 C1129 1.384 . S
N1133 C1125 1.427 . S
N1133 C1131 1.384 . S
H1134 C1140 0.930 . S
H1135 C1144 0.930 . S
H1136 C1149 0.929 . S
H1137 C1147 0.929 . S
H1138 C1142 0.929 . S
H1139 C1148 0.929 . S
C1140 H1134 0.930 . S
C1140 C1141 1.367 . S
C1140 C1148 1.378 . S
C1141 C1140 1.367 . S
C1141 C1149 1.433 . S
C1142 H1138 0.929 . S
C1142 C1144 1.378 . S
C1142 C1146 1.350 . S
C1143 C1146 1.463 . S
C1143 C1148 1.350 . S
C1143 N1151 1.427 . S
C1144 H1135 0.930 . S
C1144 C1142 1.378 . S
C1144 C1145 1.367 . S
C1145 C1144 1.367 . S
C1145 C1147 1.433 . S
C1146 C1142 1.350 . S
C1146 C1143 1.463 . S
C1146 N1150 1.427 . S
C1147 H1137 0.929 . S
C1147 C1145 1.433 . S
C1147 N1150 1.384 . S
C1148 H1139 0.929 . S
C1148 C1140 1.378 . S
C1148 C1143 1.350 . S
C1149 H1136 0.929 . S
C1149 C1141 1.433 . S
C1149 N1151 1.384 . S
N1150 C1146 1.427 . S
N1150 C1147 1.384 . S
N1151 C1143 1.427 . S
N1151 C1149 1.384 . S
H1152 C1158 0.930 . S
H1153 C1162 0.930 . S
H1154 C1167 0.929 . S
H1155 C1165 0.929 1_565 S
H1156 C1160 0.929 . S
H1157 C1166 0.929 . S
C1158 H1152 0.930 . S
C1158 C1159 1.367 . S
C1158 C1166 1.378 . S
C1159 C1158 1.367 . S
C1159 C1167 1.433 . S
C1160 H1156 0.929 . S
C1160 C1162 1.378 . S
C1160 C1164 1.350 . S
C1161 C1164 1.463 . S
C1161 C1166 1.350 . S
C1161 N1169 1.427 . S
C1162 H1153 0.930 . S
C1162 C1160 1.378 . S
C1162 C1163 1.367 . S
C1163 C1162 1.367 . S
C1163 C1165 1.433 . S
C1164 C1160 1.350 . S
C1164 C1161 1.463 . S
C1164 N1168 1.427 . S
C1165 H1155 0.929 1_545 S
C1165 C1163 1.433 . S
C1165 N1168 1.384 . S
C1166 H1157 0.929 . S
C1166 C1158 1.378 . S
C1166 C1161 1.350 . S
C1167 H1154 0.929 . S
C1167 C1159 1.433 . S
C1167 N1169 1.384 . S
N1168 C1164 1.427 . S
N1168 C1165 1.384 . S
N1169 C1161 1.427 . S
N1169 C1167 1.384 . S
H1170 C1176 0.930 . S
H1171 C1180 0.930 . S
H1172 C1185 0.932 . S
H1173 C1183 0.929 . S
H1174 C1178 0.929 . S
H1175 C1184 0.929 . S
C1176 H1170 0.930 . S
C1176 C1177 1.367 . S
C1176 C1184 1.378 . S
C1177 C1176 1.367 . S
C1177 C1185 1.433 . S
C1178 H1174 0.929 . S
C1178 C1180 1.378 . S
C1178 C1182 1.350 1_455 S
C1179 C1182 1.463 . S
C1179 C1184 1.350 . S
C1179 N1187 1.427 . S
C1180 H1171 0.930 . S
C1180 C1178 1.378 . S
C1180 C1181 1.367 1_455 S
C1181 C1180 1.367 1_655 S
C1181 C1183 1.433 . S
C1182 C1178 1.350 1_655 S
C1182 C1179 1.463 . S
C1182 N1186 1.427 . S
C1183 H1173 0.929 . S
C1183 C1181 1.433 . S
C1183 N1186 1.384 . S
C1184 H1175 0.929 . S
C1184 C1176 1.378 . S
C1184 C1179 1.350 . S
C1185 H1172 0.932 . S
C1185 C1177 1.433 . S
C1185 N1187 1.384 . S
N1186 C1182 1.427 . S
N1186 C1183 1.384 . S
N1187 C1179 1.427 . S
N1187 C1185 1.384 . S
H1188 C1194 0.930 . S
H1189 C1198 0.930 . S
H1190 C1203 0.929 . S
H1191 C1201 0.929 . S
H1192 C1196 0.929 . S
H1193 C1202 0.929 . S
C1194 H1188 0.930 . S
C1194 C1195 1.367 . S
C1194 C1202 1.378 . S
C1195 C1194 1.367 . S
C1195 C1203 1.433 . S
C1196 H1192 0.929 . S
C1196 C1198 1.378 . S
C1196 C1200 1.350 . S
C1197 C1200 1.463 . S
C1197 C1202 1.350 . S
C1197 N1205 1.427 . S
C1198 H1189 0.930 . S
C1198 C1196 1.378 . S
C1198 C1199 1.367 . S
C1199 C1198 1.367 . S
C1199 C1201 1.433 . S
C1200 C1196 1.350 . S
C1200 C1197 1.463 . S
C1200 N1204 1.427 . S
C1201 H1191 0.929 . S
C1201 C1199 1.433 . S
C1201 N1204 1.384 . S
C1202 H1193 0.929 . S
C1202 C1194 1.378 . S
C1202 C1197 1.350 . S
C1203 H1190 0.929 . S
C1203 C1195 1.433 . S
C1203 N1205 1.384 . S
N1204 C1200 1.427 . S
N1204 C1201 1.384 . S
N1205 C1197 1.427 . S
N1205 C1203 1.384 . S
H1206 C1212 0.930 . S
H1207 C1216 0.930 . S
H1208 C1221 0.929 . S
H1209 C1219 0.929 1_655 S
H1210 C1214 0.929 . S
H1211 C1220 0.924 1_655 S
C1212 H1206 0.930 . S
C1212 C1213 1.367 . S
C1212 C1220 1.378 . S
C1213 C1212 1.367 . S
C1213 C1221 1.433 . S
C1214 H1210 0.929 . S
C1214 C1216 1.378 . S
C1214 C1218 1.350 . S
C1215 C1218 1.463 . S
C1215 C1220 1.350 . S
C1215 N1223 1.427 . S
C1216 H1207 0.930 . S
C1216 C1214 1.378 . S
C1216 C1217 1.367 . S
C1217 C1216 1.367 . S
C1217 C1219 1.433 . S
C1218 C1214 1.350 . S
C1218 C1215 1.463 . S
C1218 N1222 1.427 . S
C1219 H1209 0.929 1_455 S
C1219 C1217 1.433 . S
C1219 N1222 1.384 . S
C1220 H1211 0.924 1_455 S
C1220 C1212 1.378 . S
C1220 C1215 1.350 . S
C1221 H1208 0.929 . S
C1221 C1213 1.433 . S
C1221 N1223 1.384 . S
N1222 C1218 1.427 . S
N1222 C1219 1.384 . S
N1223 C1215 1.427 . S
N1223 C1221 1.384 . S
H1224 C1230 0.930 . S
H1225 C1234 0.930 . S
H1226 C1239 0.929 . S
H1227 C1237 0.929 . S
H1228 C1232 0.929 . S
H1229 C1238 0.929 . S
C1230 H1224 0.930 . S
C1230 C1231 1.367 . S
C1230 C1238 1.378 . S
C1231 C1230 1.367 . S
C1231 C1239 1.433 . S
C1232 H1228 0.929 . S
C1232 C1234 1.378 . S
C1232 C1236 1.350 . S
C1233 C1236 1.463 . S
C1233 C1238 1.350 . S
C1233 N1241 1.427 . S
C1234 H1225 0.930 . S
C1234 C1232 1.378 . S
C1234 C1235 1.367 . S
C1235 C1234 1.367 . S
C1235 C1237 1.433 . S
C1236 C1232 1.350 . S
C1236 C1233 1.463 . S
C1236 N1240 1.427 . S
C1237 H1227 0.929 . S
C1237 C1235 1.433 . S
C1237 N1240 1.384 . S
C1238 H1229 0.929 . S
C1238 C1230 1.378 . S
C1238 C1233 1.350 . S
C1239 H1226 0.929 . S
C1239 C1231 1.433 . S
C1239 N1241 1.384 . S
N1240 C1236 1.427 . S
N1240 C1237 1.384 . S
N1241 C1233 1.427 . S
N1241 C1239 1.384 . S
H1242 C1248 0.930 . S
H1243 C1252 0.930 . S
H1244 C1257 0.929 . S
H1245 C1255 0.929 . S
H1246 C1250 0.929 . S
H1247 C1256 0.929 . S
C1248 H1242 0.930 . S
C1248 C1249 1.367 1_545 S
C1248 C1256 1.378 . S
C1249 C1248 1.367 1_565 S
C1249 C1257 1.433 . S
C1250 H1246 0.929 . S
C1250 C1252 1.378 . S
C1250 C1254 1.350 . S
C1251 C1254 1.463 . S
C1251 C1256 1.350 1_565 S
C1251 N1259 1.427 . S
C1252 H1243 0.930 . S
C1252 C1250 1.378 . S
C1252 C1253 1.367 . S
C1253 C1252 1.367 . S
C1253 C1255 1.433 1_565 S
C1254 C1250 1.350 . S
C1254 C1251 1.463 . S
C1254 N1258 1.427 1_565 S
C1255 H1245 0.929 . S
C1255 C1253 1.433 1_545 S
C1255 N1258 1.384 . S
C1256 H1247 0.929 . S
C1256 C1248 1.378 . S
C1256 C1251 1.350 1_545 S
C1257 H1244 0.929 . S
C1257 C1249 1.433 . S
C1257 N1259 1.384 . S
N1258 C1254 1.427 1_545 S
N1258 C1255 1.384 . S
N1259 C1251 1.427 . S
N1259 C1257 1.384 . S
H1260 C1266 0.930 . S
H1261 C1270 0.930 . S
H1262 C1275 0.920 1_545 S
H1263 C1273 0.929 . S
H1264 C1268 0.929 . S
H1265 C1274 0.929 . S
C1266 H1260 0.930 . S
C1266 C1267 1.367 . S
C1266 C1274 1.378 . S
C1267 C1266 1.367 . S
C1267 C1275 1.436 . S
C1268 H1264 0.929 . S
C1268 C1270 1.378 . S
C1268 C1272 1.350 1_545 S
C1269 C1272 1.463 . S
C1269 C1274 1.350 . S
C1269 N1277 1.427 1_565 S
C1270 H1261 0.930 . S
C1270 C1268 1.378 . S
C1270 C1271 1.367 1_545 S
C1271 C1270 1.367 1_565 S
C1271 C1273 1.433 . S
C1272 C1268 1.350 1_565 S
C1272 C1269 1.463 . S
C1272 N1276 1.427 . S
C1273 H1263 0.929 . S
C1273 C1271 1.433 . S
C1273 N1276 1.384 . S
C1274 H1265 0.929 . S
C1274 C1266 1.378 . S
C1274 C1269 1.350 . S
C1275 H1262 0.920 1_565 S
C1275 C1267 1.436 . S
C1275 N1277 1.391 1_565 S
N1276 C1272 1.427 . S
N1276 C1273 1.384 . S
N1277 C1269 1.427 1_545 S
N1277 C1275 1.391 1_545 S
H1278 C1284 0.930 . S
H1279 C1288 0.930 1_655 S
H1280 C1293 0.929 . S
H1281 C1291 0.929 . S
H1282 C1286 0.929 1_655 S
H1283 C1292 0.929 . S
C1284 H1278 0.930 . S
C1284 C1285 1.367 . S
C1284 C1292 1.378 . S
C1285 C1284 1.367 . S
C1285 C1293 1.433 . S
C1286 H1282 0.929 1_455 S
C1286 C1288 1.378 . S
C1286 C1290 1.350 . S
C1287 C1290 1.463 . S
C1287 C1292 1.350 . S
C1287 N1295 1.427 . S
C1288 H1279 0.930 1_455 S
C1288 C1286 1.378 . S
C1288 C1289 1.367 . S
C1289 C1288 1.367 . S
C1289 C1291 1.433 . S
C1290 C1286 1.350 . S
C1290 C1287 1.463 . S
C1290 N1294 1.427 . S
C1291 H1281 0.929 . S
C1291 C1289 1.433 . S
C1291 N1294 1.384 . S
C1292 H1283 0.929 . S
C1292 C1284 1.378 . S
C1292 C1287 1.350 . S
C1293 H1280 0.929 . S
C1293 C1285 1.433 . S
C1293 N1295 1.384 . S
N1294 C1290 1.427 . S
N1294 C1291 1.384 . S
N1295 C1287 1.427 . S
N1295 C1293 1.384 . S
H1296 C1302 0.930 . S
H1297 C1306 0.930 . S
H1298 C1311 0.929 . S
H1299 C1309 0.929 . S
H1300 C1304 0.929 . S
H1301 C1310 0.929 . S
C1302 H1296 0.930 . S
C1302 C1303 1.367 . S
C1302 C1310 1.378 . S
C1303 C1302 1.367 . S
C1303 C1311 1.433 . S
C1304 H1300 0.929 . S
C1304 C1306 1.378 . S
C1304 C1308 1.350 . S
C1305 C1308 1.463 . S
C1305 C1310 1.350 . S
C1305 N1313 1.427 . S
C1306 H1297 0.930 . S
C1306 C1304 1.378 . S
C1306 C1307 1.367 . S
C1307 C1306 1.367 . S
C1307 C1309 1.433 . S
C1308 C1304 1.350 . S
C1308 C1305 1.463 . S
C1308 N1312 1.427 . S
C1309 H1299 0.929 . S
C1309 C1307 1.433 . S
C1309 N1312 1.384 . S
C1310 H1301 0.929 . S
C1310 C1302 1.378 . S
C1310 C1305 1.350 . S
C1311 H1298 0.929 . S
C1311 C1303 1.433 . S
C1311 N1313 1.384 . S
N1312 C1308 1.427 . S
N1312 C1309 1.384 . S
N1313 C1305 1.427 . S
N1313 C1311 1.384 . S
H1314 C1320 0.930 . S
H1315 C1324 0.930 . S
H1316 C1329 0.929 . S
H1317 C1327 0.929 . S
H1318 C1322 0.929 . S
H1319 C1328 0.923 . S
C1320 H1314 0.930 . S
C1320 C1321 1.367 . S
C1320 C1328 1.378 . S
C1321 C1320 1.367 . S
C1321 C1329 1.433 . S
C1322 H1318 0.929 . S
C1322 C1324 1.378 . S
C1322 C1326 1.350 . S
C1323 C1326 1.463 . S
C1323 C1328 1.350 . S
C1323 N1331 1.427 . S
C1324 H1315 0.930 . S
C1324 C1322 1.378 . S
C1324 C1325 1.369 1_655 S
C1325 C1324 1.369 1_455 S
C1325 C1327 1.434 . S
C1326 C1322 1.350 . S
C1326 C1323 1.463 . S
C1326 N1330 1.427 1_655 S
C1327 H1317 0.929 . S
C1327 C1325 1.434 . S
C1327 N1330 1.384 . S
C1328 H1319 0.923 . S
C1328 C1320 1.378 . S
C1328 C1323 1.350 . S
C1329 H1316 0.929 . S
C1329 C1321 1.433 . S
C1329 N1331 1.384 . S
N1330 C1326 1.427 1_455 S
N1330 C1327 1.384 . S
N1331 C1323 1.427 . S
N1331 C1329 1.384 . S
H1332 C1338 0.930 . S
H1333 C1342 0.930 . S
H1334 C1347 0.929 . S
H1335 C1345 0.929 . S
H1336 C1340 0.929 . S
H1337 C1346 0.929 . S
C1338 H1332 0.930 . S
C1338 C1339 1.367 . S
C1338 C1346 1.378 . S
C1339 C1338 1.367 . S
C1339 C1347 1.433 . S
C1340 H1336 0.929 . S
C1340 C1342 1.378 . S
C1340 C1344 1.350 . S
C1341 C1344 1.463 . S
C1341 C1346 1.350 . S
C1341 N1349 1.427 . S
C1342 H1333 0.930 . S
C1342 C1340 1.378 . S
C1342 C1343 1.367 . S
C1343 C1342 1.367 . S
C1343 C1345 1.433 . S
C1344 C1340 1.350 . S
C1344 C1341 1.463 . S
C1344 N1348 1.427 . S
C1345 H1335 0.929 . S
C1345 C1343 1.433 . S
C1345 N1348 1.384 . S
C1346 H1337 0.929 . S
C1346 C1338 1.378 . S
C1346 C1341 1.350 . S
C1347 H1334 0.929 . S
C1347 C1339 1.433 . S
C1347 N1349 1.384 . S
N1348 C1344 1.427 . S
N1348 C1345 1.384 . S
N1349 C1341 1.427 . S
N1349 C1347 1.384 . S
H1350 C1356 0.930 . S
H1351 C1360 0.930 . S
H1352 C1365 0.929 . S
H1353 C1363 0.929 . S
H1354 C1358 0.929 . S
H1355 C1364 0.929 . S
C1356 H1350 0.930 . S
C1356 C1357 1.367 . S
C1356 C1364 1.378 . S
C1357 C1356 1.367 . S
C1357 C1365 1.433 . S
C1358 H1354 0.929 . S
C1358 C1360 1.378 . S
C1358 C1362 1.350 . S
C1359 C1362 1.463 . S
C1359 C1364 1.350 . S
C1359 N1367 1.427 . S
C1360 H1351 0.930 . S
C1360 C1358 1.378 . S
C1360 C1361 1.367 . S
C1361 C1360 1.367 . S
C1361 C1363 1.433 . S
C1362 C1358 1.350 . S
C1362 C1359 1.463 . S
C1362 N1366 1.427 . S
C1363 H1353 0.929 . S
C1363 C1361 1.433 . S
C1363 N1366 1.384 . S
C1364 H1355 0.929 . S
C1364 C1356 1.378 . S
C1364 C1359 1.350 . S
C1365 H1352 0.929 . S
C1365 C1357 1.433 . S
C1365 N1367 1.384 . S
N1366 C1362 1.427 . S
N1366 C1363 1.384 . S
N1367 C1359 1.427 . S
N1367 C1365 1.384 . S
H1368 C1374 0.930 . S
H1369 C1378 0.930 . S
H1370 C1383 0.929 . S
H1371 C1381 0.929 . S
H1372 C1376 0.929 . S
H1373 C1382 0.929 . S
C1374 H1368 0.930 . S
C1374 C1375 1.367 . S
C1374 C1382 1.378 . S
C1375 C1374 1.367 . S
C1375 C1383 1.433 . S
C1376 H1372 0.929 . S
C1376 C1378 1.378 . S
C1376 C1380 1.350 . S
C1377 C1380 1.463 . S
C1377 C1382 1.350 . S
C1377 N1385 1.427 . S
C1378 H1369 0.930 . S
C1378 C1376 1.378 . S
C1378 C1379 1.367 . S
C1379 C1378 1.367 . S
C1379 C1381 1.433 . S
C1380 C1376 1.350 . S
C1380 C1377 1.463 . S
C1380 N1384 1.427 . S
C1381 H1371 0.929 . S
C1381 C1379 1.433 . S
C1381 N1384 1.384 . S
C1382 H1373 0.929 . S
C1382 C1374 1.378 . S
C1382 C1377 1.350 . S
C1383 H1370 0.929 . S
C1383 C1375 1.433 . S
C1383 N1385 1.384 . S
N1384 C1380 1.427 . S
N1384 C1381 1.384 . S
N1385 C1377 1.427 . S
N1385 C1383 1.384 . S
H1386 C1392 0.930 . S
H1387 C1396 0.930 . S
H1388 C1401 0.929 . S
H1389 C1399 0.929 . S
H1390 C1394 0.929 . S
H1391 C1400 0.929 . S
C1392 H1386 0.930 . S
C1392 C1393 1.367 . S
C1392 C1400 1.378 . S
C1393 C1392 1.367 . S
C1393 C1401 1.433 . S
C1394 H1390 0.929 . S
C1394 C1396 1.378 . S
C1394 C1398 1.350 . S
C1395 C1398 1.463 . S
C1395 C1400 1.350 . S
C1395 N1403 1.427 . S
C1396 H1387 0.930 . S
C1396 C1394 1.378 . S
C1396 C1397 1.367 . S
C1397 C1396 1.367 . S
C1397 C1399 1.433 . S
C1398 C1394 1.350 . S
C1398 C1395 1.463 . S
C1398 N1402 1.427 . S
C1399 H1389 0.929 . S
C1399 C1397 1.433 . S
C1399 N1402 1.384 . S
C1400 H1391 0.929 . S
C1400 C1392 1.378 . S
C1400 C1395 1.350 . S
C1401 H1388 0.929 . S
C1401 C1393 1.433 . S
C1401 N1403 1.384 . S
N1402 C1398 1.427 . S
N1402 C1399 1.384 . S
N1403 C1395 1.427 . S
N1403 C1401 1.384 . S
H1404 C1410 0.930 . S
H1405 C1414 0.930 . S
H1406 C1419 0.929 . S
H1407 C1417 0.929 . S
H1408 C1412 0.929 . S
H1409 C1418 0.929 . S
C1410 H1404 0.930 . S
C1410 C1411 1.367 . S
C1410 C1418 1.378 . S
C1411 C1410 1.367 . S
C1411 C1419 1.433 . S
C1412 H1408 0.929 . S
C1412 C1414 1.378 . S
C1412 C1416 1.350 . S
C1413 C1416 1.463 . S
C1413 C1418 1.350 . S
C1413 N1421 1.427 . S
C1414 H1405 0.930 . S
C1414 C1412 1.378 . S
C1414 C1415 1.367 . S
C1415 C1414 1.367 . S
C1415 C1417 1.433 . S
C1416 C1412 1.350 . S
C1416 C1413 1.463 . S
C1416 N1420 1.427 . S
C1417 H1407 0.929 . S
C1417 C1415 1.433 . S
C1417 N1420 1.384 . S
C1418 H1409 0.929 . S
C1418 C1410 1.378 . S
C1418 C1413 1.350 . S
C1419 H1406 0.929 . S
C1419 C1411 1.433 . S
C1419 N1421 1.384 . S
N1420 C1416 1.427 . S
N1420 C1417 1.384 . S
N1421 C1413 1.427 . S
N1421 C1419 1.384 . S
H1422 C1428 0.930 . S
H1423 C1432 0.930 . S
H1424 C1437 0.929 . S
H1425 C1435 0.929 . S
H1426 C1430 0.929 . S
H1427 C1436 0.929 . S
C1428 H1422 0.930 . S
C1428 C1429 1.367 . S
C1428 C1436 1.378 . S
C1429 C1428 1.367 . S
C1429 C1437 1.433 . S
C1430 H1426 0.929 . S
C1430 C1432 1.378 . S
C1430 C1434 1.350 . S
C1431 C1434 1.463 . S
C1431 C1436 1.350 . S
C1431 N1439 1.427 . S
C1432 H1423 0.930 . S
C1432 C1430 1.378 . S
C1432 C1433 1.367 . S
C1433 C1432 1.367 . S
C1433 C1435 1.433 . S
C1434 C1430 1.350 . S
C1434 C1431 1.463 . S
C1434 N1438 1.427 . S
C1435 H1425 0.929 . S
C1435 C1433 1.433 . S
C1435 N1438 1.384 . S
C1436 H1427 0.929 . S
C1436 C1428 1.378 . S
C1436 C1431 1.350 . S
C1437 H1424 0.929 . S
C1437 C1429 1.433 . S
C1437 N1439 1.384 . S
N1438 C1434 1.427 . S
N1438 C1435 1.384 . S
N1439 C1431 1.427 . S
N1439 C1437 1.384 . S
H1440 C1446 0.930 . S
H1441 C1450 0.930 . S
H1442 C1455 0.929 . S
H1443 C1453 0.929 . S
H1444 C1448 0.929 . S
H1445 C1454 0.929 . S
C1446 H1440 0.930 . S
C1446 C1447 1.367 . S
C1446 C1454 1.378 . S
C1447 C1446 1.367 . S
C1447 C1455 1.433 . S
C1448 H1444 0.929 . S
C1448 C1450 1.378 . S
C1448 C1452 1.350 . S
C1449 C1452 1.463 . S
C1449 C1454 1.350 . S
C1449 N1457 1.427 . S
C1450 H1441 0.930 . S
C1450 C1448 1.378 . S
C1450 C1451 1.367 . S
C1451 C1450 1.367 . S
C1451 C1453 1.433 . S
C1452 C1448 1.350 . S
C1452 C1449 1.463 . S
C1452 N1456 1.427 . S
C1453 H1443 0.929 . S
C1453 C1451 1.433 . S
C1453 N1456 1.384 . S
C1454 H1445 0.929 . S
C1454 C1446 1.378 . S
C1454 C1449 1.350 . S
C1455 H1442 0.929 . S
C1455 C1447 1.433 . S
C1455 N1457 1.384 . S
N1456 C1452 1.427 . S
N1456 C1453 1.384 . S
N1457 C1449 1.427 . S
N1457 C1455 1.384 . S
H1458 C1464 0.930 . S
H1459 C1468 0.930 . S
H1460 C1473 0.929 . S
H1461 C1471 0.929 . S
H1462 C1466 0.929 . S
H1463 C1472 0.929 . S
C1464 H1458 0.930 . S
C1464 C1465 1.367 . S
C1464 C1472 1.378 . S
C1465 C1464 1.367 . S
C1465 C1473 1.433 . S
C1466 H1462 0.929 . S
C1466 C1468 1.378 . S
C1466 C1470 1.350 . S
C1467 C1470 1.463 . S
C1467 C1472 1.350 . S
C1467 N1475 1.427 . S
C1468 H1459 0.930 . S
C1468 C1466 1.378 . S
C1468 C1469 1.367 . S
C1469 C1468 1.367 . S
C1469 C1471 1.433 . S
C1470 C1466 1.350 . S
C1470 C1467 1.463 . S
C1470 N1474 1.427 . S
C1471 H1461 0.929 . S
C1471 C1469 1.433 . S
C1471 N1474 1.384 . S
C1472 H1463 0.929 . S
C1472 C1464 1.378 . S
C1472 C1467 1.350 . S
C1473 H1460 0.929 . S
C1473 C1465 1.433 . S
C1473 N1475 1.384 . S
N1474 C1470 1.427 . S
N1474 C1471 1.384 . S
N1475 C1467 1.427 . S
N1475 C1473 1.384 . S
H1476 C1482 0.930 . S
H1477 C1486 0.930 . S
H1478 C1491 0.929 . S
H1479 C1489 0.929 . S
H1480 C1484 0.929 . S
H1481 C1490 0.929 . S
C1482 H1476 0.930 . S
C1482 C1483 1.367 . S
C1482 C1490 1.378 . S
C1483 C1482 1.367 . S
C1483 C1491 1.433 . S
C1484 H1480 0.929 . S
C1484 C1486 1.378 . S
C1484 C1488 1.350 . S
C1485 C1488 1.463 . S
C1485 C1490 1.350 . S
C1485 N1493 1.427 . S
C1486 H1477 0.930 . S
C1486 C1484 1.378 . S
C1486 C1487 1.367 . S
C1487 C1486 1.367 . S
C1487 C1489 1.433 . S
C1488 C1484 1.350 . S
C1488 C1485 1.463 . S
C1488 N1492 1.427 . S
C1489 H1479 0.929 . S
C1489 C1487 1.433 . S
C1489 N1492 1.384 . S
C1490 H1481 0.929 . S
C1490 C1482 1.378 . S
C1490 C1485 1.350 . S
C1491 H1478 0.929 . S
C1491 C1483 1.433 . S
C1491 N1493 1.384 . S
N1492 C1488 1.427 . S
N1492 C1489 1.384 . S
N1493 C1485 1.427 . S
N1493 C1491 1.384 . S
H1494 C1500 0.930 . S
H1495 C1504 0.930 . S
H1496 C1509 0.929 . S
H1497 C1507 0.929 . S
H1498 C1502 0.929 . S
H1499 C1508 0.929 . S
C1500 H1494 0.930 . S
C1500 C1501 1.367 . S
C1500 C1508 1.378 . S
C1501 C1500 1.367 . S
C1501 C1509 1.433 . S
C1502 H1498 0.929 . S
C1502 C1504 1.378 . S
C1502 C1506 1.350 . S
C1503 C1506 1.463 . S
C1503 C1508 1.350 . S
C1503 N1511 1.427 . S
C1504 H1495 0.930 . S
C1504 C1502 1.378 . S
C1504 C1505 1.367 . S
C1505 C1504 1.367 . S
C1505 C1507 1.433 . S
C1506 C1502 1.350 . S
C1506 C1503 1.463 . S
C1506 N1510 1.427 . S
C1507 H1497 0.929 . S
C1507 C1505 1.433 . S
C1507 N1510 1.384 . S
C1508 H1499 0.929 . S
C1508 C1500 1.378 . S
C1508 C1503 1.350 . S
C1509 H1496 0.929 . S
C1509 C1501 1.433 . S
C1509 N1511 1.384 . S
N1510 C1506 1.427 . S
N1510 C1507 1.384 . S
N1511 C1503 1.427 . S
N1511 C1509 1.384 . S
H1512 C1518 0.930 . S
H1513 C1522 0.930 . S
H1514 C1527 0.929 . S
H1515 C1525 0.929 . S
H1516 C1520 0.929 . S
H1517 C1526 0.929 . S
C1518 H1512 0.930 . S
C1518 C1519 1.367 . S
C1518 C1526 1.378 . S
C1519 C1518 1.367 . S
C1519 C1527 1.433 . S
C1520 H1516 0.929 . S
C1520 C1522 1.378 . S
C1520 C1524 1.350 . S
C1521 C1524 1.463 . S
C1521 C1526 1.350 . S
C1521 N1529 1.427 . S
C1522 H1513 0.930 . S
C1522 C1520 1.378 . S
C1522 C1523 1.367 . S
C1523 C1522 1.367 . S
C1523 C1525 1.433 . S
C1524 C1520 1.350 . S
C1524 C1521 1.463 . S
C1524 N1528 1.427 . S
C1525 H1515 0.929 . S
C1525 C1523 1.433 . S
C1525 N1528 1.384 . S
C1526 H1517 0.929 . S
C1526 C1518 1.378 . S
C1526 C1521 1.350 . S
C1527 H1514 0.929 . S
C1527 C1519 1.433 . S
C1527 N1529 1.384 . S
N1528 C1524 1.427 . S
N1528 C1525 1.384 . S
N1529 C1521 1.427 . S
N1529 C1527 1.384 . S
H1530 C1536 0.930 . S
H1531 C1540 0.930 . S
H1532 C1545 0.929 . S
H1533 C1543 0.929 . S
H1534 C1538 0.929 . S
H1535 C1544 0.929 . S
C1536 H1530 0.930 . S
C1536 C1537 1.367 . S
C1536 C1544 1.378 . S
C1537 C1536 1.367 . S
C1537 C1545 1.433 . S
C1538 H1534 0.929 . S
C1538 C1540 1.378 . S
C1538 C1542 1.350 . S
C1539 C1542 1.463 . S
C1539 C1544 1.350 . S
C1539 N1547 1.427 . S
C1540 H1531 0.930 . S
C1540 C1538 1.378 . S
C1540 C1541 1.367 . S
C1541 C1540 1.367 . S
C1541 C1543 1.433 . S
C1542 C1538 1.350 . S
C1542 C1539 1.463 . S
C1542 N1546 1.427 . S
C1543 H1533 0.929 . S
C1543 C1541 1.433 . S
C1543 N1546 1.384 . S
C1544 H1535 0.929 . S
C1544 C1536 1.378 . S
C1544 C1539 1.350 . S
C1545 H1532 0.929 . S
C1545 C1537 1.433 . S
C1545 N1547 1.384 . S
N1546 C1542 1.427 . S
N1546 C1543 1.384 . S
N1547 C1539 1.427 . S
N1547 C1545 1.384 . S
H1548 C1554 0.930 . S
H1549 C1558 0.930 . S
H1550 C1563 0.929 . S
H1551 C1561 0.929 . S
H1552 C1556 0.929 . S
H1553 C1562 0.929 . S
C1554 H1548 0.930 . S
C1554 C1555 1.367 . S
C1554 C1562 1.378 . S
C1555 C1554 1.367 . S
C1555 C1563 1.433 . S
C1556 H1552 0.929 . S
C1556 C1558 1.378 . S
C1556 C1560 1.350 . S
C1557 C1560 1.463 . S
C1557 C1562 1.350 . S
C1557 N1565 1.427 . S
C1558 H1549 0.930 . S
C1558 C1556 1.378 . S
C1558 C1559 1.367 . S
C1559 C1558 1.367 . S
C1559 C1561 1.433 . S
C1560 C1556 1.350 . S
C1560 C1557 1.463 . S
C1560 N1564 1.427 . S
C1561 H1551 0.929 . S
C1561 C1559 1.433 . S
C1561 N1564 1.384 . S
C1562 H1553 0.929 . S
C1562 C1554 1.378 . S
C1562 C1557 1.350 . S
C1563 H1550 0.929 . S
C1563 C1555 1.433 . S
C1563 N1565 1.384 . S
N1564 C1560 1.427 . S
N1564 C1561 1.384 . S
N1565 C1557 1.427 . S
N1565 C1563 1.384 . S
H1566 C1572 0.930 . S
H1567 C1576 0.930 . S
H1568 C1581 0.929 . S
H1569 C1579 0.929 . S
H1570 C1574 0.929 . S
H1571 C1580 0.929 . S
C1572 H1566 0.930 . S
C1572 C1573 1.367 . S
C1572 C1580 1.378 . S
C1573 C1572 1.367 . S
C1573 C1581 1.433 . S
C1574 H1570 0.929 . S
C1574 C1576 1.378 . S
C1574 C1578 1.350 . S
C1575 C1578 1.463 . S
C1575 C1580 1.350 . S
C1575 N1583 1.427 . S
C1576 H1567 0.930 . S
C1576 C1574 1.378 . S
C1576 C1577 1.367 . S
C1577 C1576 1.367 . S
C1577 C1579 1.433 . S
C1578 C1574 1.350 . S
C1578 C1575 1.463 . S
C1578 N1582 1.427 . S
C1579 H1569 0.929 . S
C1579 C1577 1.433 . S
C1579 N1582 1.384 . S
C1580 H1571 0.929 . S
C1580 C1572 1.378 . S
C1580 C1575 1.350 . S
C1581 H1568 0.929 . S
C1581 C1573 1.433 . S
C1581 N1583 1.384 . S
N1582 C1578 1.427 . S
N1582 C1579 1.384 . S
N1583 C1575 1.427 . S
N1583 C1581 1.384 . S
H1584 C1590 0.930 . S
H1585 C1594 0.930 . S
H1586 C1599 0.929 . S
H1587 C1597 0.929 . S
H1588 C1592 0.929 . S
H1589 C1598 0.929 . S
C1590 H1584 0.930 . S
C1590 C1591 1.367 . S
C1590 C1598 1.378 . S
C1591 C1590 1.367 . S
C1591 C1599 1.433 . S
C1592 H1588 0.929 . S
C1592 C1594 1.378 . S
C1592 C1596 1.350 . S
C1593 C1596 1.463 . S
C1593 C1598 1.350 . S
C1593 N1601 1.427 . S
C1594 H1585 0.930 . S
C1594 C1592 1.378 . S
C1594 C1595 1.367 . S
C1595 C1594 1.367 . S
C1595 C1597 1.433 . S
C1596 C1592 1.350 . S
C1596 C1593 1.463 . S
C1596 N1600 1.427 . S
C1597 H1587 0.929 . S
C1597 C1595 1.433 . S
C1597 N1600 1.384 . S
C1598 H1589 0.929 . S
C1598 C1590 1.378 . S
C1598 C1593 1.350 . S
C1599 H1586 0.929 . S
C1599 C1591 1.433 . S
C1599 N1601 1.384 . S
N1600 C1596 1.427 . S
N1600 C1597 1.384 . S
N1601 C1593 1.427 . S
N1601 C1599 1.384 . S
H1602 C1608 0.930 . S
H1603 C1612 0.930 . S
H1604 C1617 0.929 . S
H1605 C1615 0.929 . S
H1606 C1610 0.929 . S
H1607 C1616 0.929 . S
C1608 H1602 0.930 . S
C1608 C1609 1.367 . S
C1608 C1616 1.378 . S
C1609 C1608 1.367 . S
C1609 C1617 1.433 . S
C1610 H1606 0.929 . S
C1610 C1612 1.378 . S
C1610 C1614 1.350 . S
C1611 C1614 1.463 . S
C1611 C1616 1.350 . S
C1611 N1619 1.427 . S
C1612 H1603 0.930 . S
C1612 C1610 1.378 . S
C1612 C1613 1.367 . S
C1613 C1612 1.367 . S
C1613 C1615 1.433 . S
C1614 C1610 1.350 . S
C1614 C1611 1.463 . S
C1614 N1618 1.427 . S
C1615 H1605 0.929 . S
C1615 C1613 1.433 . S
C1615 N1618 1.384 . S
C1616 H1607 0.929 . S
C1616 C1608 1.378 . S
C1616 C1611 1.350 . S
C1617 H1604 0.929 . S
C1617 C1609 1.433 . S
C1617 N1619 1.384 . S
N1618 C1614 1.427 . S
N1618 C1615 1.384 . S
N1619 C1611 1.427 . S
N1619 C1617 1.384 . S
H1620 C1626 0.930 . S
H1621 C1630 0.930 . S
H1622 C1635 0.929 . S
H1623 C1633 0.929 . S
H1624 C1628 0.929 . S
H1625 C1634 0.929 . S
C1626 H1620 0.930 . S
C1626 C1627 1.367 . S
C1626 C1634 1.378 . S
C1627 C1626 1.367 . S
C1627 C1635 1.433 . S
C1628 H1624 0.929 . S
C1628 C1630 1.378 . S
C1628 C1632 1.350 . S
C1629 C1632 1.463 . S
C1629 C1634 1.350 . S
C1629 N1637 1.427 . S
C1630 H1621 0.930 . S
C1630 C1628 1.378 . S
C1630 C1631 1.367 . S
C1631 C1630 1.367 . S
C1631 C1633 1.433 . S
C1632 C1628 1.350 . S
C1632 C1629 1.463 . S
C1632 N1636 1.427 . S
C1633 H1623 0.929 . S
C1633 C1631 1.433 . S
C1633 N1636 1.384 . S
C1634 H1625 0.929 . S
C1634 C1626 1.378 . S
C1634 C1629 1.350 . S
C1635 H1622 0.929 . S
C1635 C1627 1.433 . S
C1635 N1637 1.384 . S
N1636 C1632 1.427 . S
N1636 C1633 1.384 . S
N1637 C1629 1.427 . S
N1637 C1635 1.384 . S
H1638 C1644 0.930 . S
H1639 C1648 0.930 . S
H1640 C1653 0.929 . S
H1641 C1651 0.929 . S
H1642 C1646 0.929 . S
H1643 C1652 0.929 . S
C1644 H1638 0.930 . S
C1644 C1645 1.367 . S
C1644 C1652 1.378 . S
C1645 C1644 1.367 . S
C1645 C1653 1.433 . S
C1646 H1642 0.929 . S
C1646 C1648 1.378 . S
C1646 C1650 1.350 . S
C1647 C1650 1.463 . S
C1647 C1652 1.350 . S
C1647 N1655 1.427 . S
C1648 H1639 0.930 . S
C1648 C1646 1.378 . S
C1648 C1649 1.367 . S
C1649 C1648 1.367 . S
C1649 C1651 1.433 . S
C1650 C1646 1.350 . S
C1650 C1647 1.463 . S
C1650 N1654 1.427 . S
C1651 H1641 0.929 . S
C1651 C1649 1.433 . S
C1651 N1654 1.384 . S
C1652 H1643 0.929 . S
C1652 C1644 1.378 . S
C1652 C1647 1.350 . S
C1653 H1640 0.929 . S
C1653 C1645 1.433 . S
C1653 N1655 1.384 . S
N1654 C1650 1.427 . S
N1654 C1651 1.384 . S
N1655 C1647 1.427 . S
N1655 C1653 1.384 . S
H1656 C1662 0.930 . S
H1657 C1666 0.930 . S
H1658 C1671 0.929 . S
H1659 C1669 0.929 . S
H1660 C1664 0.929 . S
H1661 C1670 0.929 . S
C1662 H1656 0.930 . S
C1662 C1663 1.367 . S
C1662 C1670 1.378 . S
C1663 C1662 1.367 . S
C1663 C1671 1.433 . S
C1664 H1660 0.929 . S
C1664 C1666 1.378 . S
C1664 C1668 1.350 . S
C1665 C1668 1.463 . S
C1665 C1670 1.350 . S
C1665 N1673 1.427 . S
C1666 H1657 0.930 . S
C1666 C1664 1.378 . S
C1666 C1667 1.367 . S
C1667 C1666 1.367 . S
C1667 C1669 1.433 . S
C1668 C1664 1.350 . S
C1668 C1665 1.463 . S
C1668 N1672 1.427 . S
C1669 H1659 0.929 . S
C1669 C1667 1.433 . S
C1669 N1672 1.384 . S
C1670 H1661 0.929 . S
C1670 C1662 1.378 . S
C1670 C1665 1.350 . S
C1671 H1658 0.929 . S
C1671 C1663 1.433 . S
C1671 N1673 1.384 . S
N1672 C1668 1.427 . S
N1672 C1669 1.384 . S
N1673 C1665 1.427 . S
N1673 C1671 1.384 . S
H1674 C1680 0.930 . S
H1675 C1684 0.930 . S
H1676 C1689 0.929 . S
H1677 C1687 0.929 . S
H1678 C1682 0.929 . S
H1679 C1688 0.929 . S
C1680 H1674 0.930 . S
C1680 C1681 1.367 . S
C1680 C1688 1.378 . S
C1681 C1680 1.367 . S
C1681 C1689 1.433 . S
C1682 H1678 0.929 . S
C1682 C1684 1.378 . S
C1682 C1686 1.350 . S
C1683 C1686 1.463 . S
C1683 C1688 1.350 . S
C1683 N1691 1.427 . S
C1684 H1675 0.930 . S
C1684 C1682 1.378 . S
C1684 C1685 1.367 . S
C1685 C1684 1.367 . S
C1685 C1687 1.433 . S
C1686 C1682 1.350 . S
C1686 C1683 1.463 . S
C1686 N1690 1.427 . S
C1687 H1677 0.929 . S
C1687 C1685 1.433 . S
C1687 N1690 1.384 . S
C1688 H1679 0.929 . S
C1688 C1680 1.378 . S
C1688 C1683 1.350 . S
C1689 H1676 0.929 . S
C1689 C1681 1.433 . S
C1689 N1691 1.384 . S
N1690 C1686 1.427 . S
N1690 C1687 1.384 . S
N1691 C1683 1.427 . S
N1691 C1689 1.384 . S
H1692 C1698 0.930 . S
H1693 C1702 0.930 . S
H1694 C1707 0.929 . S
H1695 C1705 0.929 . S
H1696 C1700 0.929 . S
H1697 C1706 0.929 . S
C1698 H1692 0.930 . S
C1698 C1699 1.367 . S
C1698 C1706 1.378 . S
C1699 C1698 1.367 . S
C1699 C1707 1.433 . S
C1700 H1696 0.929 . S
C1700 C1702 1.378 . S
C1700 C1704 1.350 . S
C1701 C1704 1.463 . S
C1701 C1706 1.350 . S
C1701 N1709 1.427 . S
C1702 H1693 0.930 . S
C1702 C1700 1.378 . S
C1702 C1703 1.367 . S
C1703 C1702 1.367 . S
C1703 C1705 1.433 . S
C1704 C1700 1.350 . S
C1704 C1701 1.463 . S
C1704 N1708 1.427 . S
C1705 H1695 0.929 . S
C1705 C1703 1.433 . S
C1705 N1708 1.384 . S
C1706 H1697 0.929 . S
C1706 C1698 1.378 . S
C1706 C1701 1.350 . S
C1707 H1694 0.929 . S
C1707 C1699 1.433 . S
C1707 N1709 1.384 . S
N1708 C1704 1.427 . S
N1708 C1705 1.384 . S
N1709 C1701 1.427 . S
N1709 C1707 1.384 . S
H1710 C1716 0.930 . S
H1711 C1720 0.930 . S
H1712 C1725 0.929 . S
H1713 C1723 0.929 . S
H1714 C1718 0.929 . S
H1715 C1724 0.929 . S
C1716 H1710 0.930 . S
C1716 C1717 1.367 . S
C1716 C1724 1.378 . S
C1717 C1716 1.367 . S
C1717 C1725 1.433 . S
C1718 H1714 0.929 . S
C1718 C1720 1.378 . S
C1718 C1722 1.350 . S
C1719 C1722 1.463 . S
C1719 C1724 1.350 . S
C1719 N1727 1.427 . S
C1720 H1711 0.930 . S
C1720 C1718 1.378 . S
C1720 C1721 1.367 . S
C1721 C1720 1.367 . S
C1721 C1723 1.433 . S
C1722 C1718 1.350 . S
C1722 C1719 1.463 . S
C1722 N1726 1.427 . S
C1723 H1713 0.929 . S
C1723 C1721 1.433 . S
C1723 N1726 1.384 . S
C1724 H1715 0.929 . S
C1724 C1716 1.378 . S
C1724 C1719 1.350 . S
C1725 H1712 0.929 . S
C1725 C1717 1.433 . S
C1725 N1727 1.384 . S
N1726 C1722 1.427 . S
N1726 C1723 1.384 . S
N1727 C1719 1.427 . S
N1727 C1725 1.384 . S
H1728 C1734 0.930 . S
H1729 C1738 0.930 . S
H1730 C1743 0.929 . S
H1731 C1741 0.929 . S
H1732 C1736 0.929 . S
H1733 C1742 0.929 . S
C1734 H1728 0.930 . S
C1734 C1735 1.367 . S
C1734 C1742 1.378 . S
C1735 C1734 1.367 . S
C1735 C1743 1.433 . S
C1736 H1732 0.929 . S
C1736 C1738 1.378 . S
C1736 C1740 1.350 . S
C1737 C1740 1.463 . S
C1737 C1742 1.350 . S
C1737 N1745 1.427 . S
C1738 H1729 0.930 . S
C1738 C1736 1.378 . S
C1738 C1739 1.367 . S
C1739 C1738 1.367 . S
C1739 C1741 1.433 . S
C1740 C1736 1.350 . S
C1740 C1737 1.463 . S
C1740 N1744 1.427 . S
C1741 H1731 0.929 . S
C1741 C1739 1.433 . S
C1741 N1744 1.384 . S
C1742 H1733 0.929 . S
C1742 C1734 1.378 . S
C1742 C1737 1.350 . S
C1743 H1730 0.929 . S
C1743 C1735 1.433 . S
C1743 N1745 1.384 . S
N1744 C1740 1.427 . S
N1744 C1741 1.384 . S
N1745 C1737 1.427 . S
N1745 C1743 1.384 . S
H1746 C1752 0.930 . S
H1747 C1756 0.930 . S
H1748 C1761 0.929 . S
H1749 C1759 0.929 . S
H1750 C1754 0.929 . S
H1751 C1760 0.929 . S
C1752 H1746 0.930 . S
C1752 C1753 1.367 . S
C1752 C1760 1.378 . S
C1753 C1752 1.367 . S
C1753 C1761 1.433 . S
C1754 H1750 0.929 . S
C1754 C1756 1.378 . S
C1754 C1758 1.350 . S
C1755 C1758 1.463 . S
C1755 C1760 1.350 . S
C1755 N1763 1.427 . S
C1756 H1747 0.930 . S
C1756 C1754 1.378 . S
C1756 C1757 1.367 . S
C1757 C1756 1.367 . S
C1757 C1759 1.433 . S
C1758 C1754 1.350 . S
C1758 C1755 1.463 . S
C1758 N1762 1.427 . S
C1759 H1749 0.929 . S
C1759 C1757 1.433 . S
C1759 N1762 1.384 . S
C1760 H1751 0.929 . S
C1760 C1752 1.378 . S
C1760 C1755 1.350 . S
C1761 H1748 0.929 . S
C1761 C1753 1.433 . S
C1761 N1763 1.384 . S
N1762 C1758 1.427 . S
N1762 C1759 1.384 . S
N1763 C1755 1.427 . S
N1763 C1761 1.384 . S
H1764 C1770 0.930 . S
H1765 C1774 0.930 . S
H1766 C1779 0.929 . S
H1767 C1777 0.929 . S
H1768 C1772 0.929 . S
H1769 C1778 0.929 . S
C1770 H1764 0.930 . S
C1770 C1771 1.367 . S
C1770 C1778 1.378 . S
C1771 C1770 1.367 . S
C1771 C1779 1.433 . S
C1772 H1768 0.929 . S
C1772 C1774 1.378 . S
C1772 C1776 1.350 . S
C1773 C1776 1.463 . S
C1773 C1778 1.350 . S
C1773 N1781 1.427 . S
C1774 H1765 0.930 . S
C1774 C1772 1.378 . S
C1774 C1775 1.367 . S
C1775 C1774 1.367 . S
C1775 C1777 1.433 . S
C1776 C1772 1.350 . S
C1776 C1773 1.463 . S
C1776 N1780 1.427 . S
C1777 H1767 0.929 . S
C1777 C1775 1.433 . S
C1777 N1780 1.384 . S
C1778 H1769 0.929 . S
C1778 C1770 1.378 . S
C1778 C1773 1.350 . S
C1779 H1766 0.929 . S
C1779 C1771 1.433 . S
C1779 N1781 1.384 . S
N1780 C1776 1.427 . S
N1780 C1777 1.384 . S
N1781 C1773 1.427 . S
N1781 C1779 1.384 . S
H1782 C1788 0.930 . S
H1783 C1792 0.930 . S
H1784 C1797 0.929 . S
H1785 C1795 0.929 . S
H1786 C1790 0.929 . S
H1787 C1796 0.929 . S
C1788 H1782 0.930 . S
C1788 C1789 1.367 . S
C1788 C1796 1.378 . S
C1789 C1788 1.367 . S
C1789 C1797 1.433 . S
C1790 H1786 0.929 . S
C1790 C1792 1.378 . S
C1790 C1794 1.350 . S
C1791 C1794 1.463 . S
C1791 C1796 1.350 . S
C1791 N1799 1.427 . S
C1792 H1783 0.930 . S
C1792 C1790 1.378 . S
C1792 C1793 1.367 . S
C1793 C1792 1.367 . S
C1793 C1795 1.433 . S
C1794 C1790 1.350 . S
C1794 C1791 1.463 . S
C1794 N1798 1.427 . S
C1795 H1785 0.929 . S
C1795 C1793 1.433 . S
C1795 N1798 1.384 . S
C1796 H1787 0.929 . S
C1796 C1788 1.378 . S
C1796 C1791 1.350 . S
C1797 H1784 0.929 . S
C1797 C1789 1.433 . S
C1797 N1799 1.384 . S
N1798 C1794 1.427 . S
N1798 C1795 1.384 . S
N1799 C1791 1.427 . S
N1799 C1797 1.384 . S
C511 C36 1.272 . S
C515 C256 1.193 . S
C529 C13 1.229 1_545 S
C533 C272 1.117 . S
C551 C255 1.216 . S
C547 C22 1.283 . S
C569 C280 1.128 . S
C565 C41 1.244 . S
C583 C8 1.269 . S
C587 C289 1.160 . S
C605 C292 1.088 . S
C601 C27 1.219 1_455 S
C619 C78 1.270 . S
C623 C298 1.187 . S
C641 C314 1.124 . S
C637 C55 1.225 . S
C659 C297 1.218 . S
C655 C64 1.290 . S
C673 C83 1.244 . S
C677 C322 1.129 . S
C695 C331 1.164 . S
C691 C50 1.272 . S
C713 C334 1.103 . S
C709 C69 1.209 . S
C731 C343 1.193 . S
C727 C120 1.273 . S
C749 C355 1.118 . S
C745 C97 1.229 . S
C767 C352 1.201 . S
C763 C106 1.304 . S
C781 C125 1.244 . S
C785 C361 1.127 . S
C803 C360 1.168 . S
C799 C92 1.269 . S
C817 C111 1.222 . S
C821 C377 1.084 . S
C839 C382 1.194 . S
C835 C162 1.275 . S
C857 C398 1.121 . S
C853 C139 1.227 . S
C871 C148 1.299 . S
C875 C381 1.188 . S
C893 C406 1.127 . S
C889 C167 1.246 . S
C911 C415 1.192 . S
C907 C134 1.270 . S
C925 C153 1.218 . S
C929 C418 1.100 . S
C943 C204 1.279 . S
C947 C427 1.194 . S
C965 C439 1.125 . S
C961 C181 1.230 . S
C983 C436 1.192 . S
C979 C190 1.304 . S
C997 C209 1.261 . S
C1001 C445 1.097 . S
C1019 C444 1.164 . S
C1015 C176 1.285 . S
C1033 C195 1.210 . S
C1037 C461 1.102 . S
C1055 C466 1.169 . S
C1051 C246 1.293 . S
C1073 C482 1.128 . S
C1069 C223 1.223 . S
C1087 C232 1.304 . S
C1091 C465 1.201 . S
C1109 C487 1.126 . S
C1105 C251 1.244 . S
C1127 C486 1.176 . S
C1123 C218 1.284 . S
C1145 C503 1.097 . S
C1141 C237 1.213 . S
C1163 C268 1.389 . S
C1159 C161 1.486 . S
C1177 C137 1.512 . S
C1181 C271 1.411 1_655 S
C1199 C259 1.386 . S
C1195 C147 1.489 . S
C1213 C249 1.458 . S
C1217 C276 1.374 . S
C1231 C217 1.398 . S
C1235 C277 1.296 . S
C1253 C293 1.378 . S
C1249 C235 1.466 . S
C1271 C310 1.381 1_565 S
C1267 C203 1.481 . S
C1289 C313 1.422 . S
C1285 C179 1.515 . S
C1303 C189 1.489 . S
C1307 C301 1.387 . S
C1325 C318 1.373 . S
C1321 C123 1.460 . S
C1339 C91 1.398 . S
C1343 C319 1.303 . S
C1357 C109 1.469 . S
C1361 C335 1.385 . S
C1375 C245 1.487 1_655 S
C1379 C339 1.395 . S
C1393 C221 1.513 . S
C1397 C356 1.431 . S
C1415 C340 1.383 . S
C1411 C231 1.483 . S
C1433 C373 1.373 . S
C1429 C81 1.457 . S
C1451 C364 1.314 . S
C1447 C49 1.402 . S
C1465 C67 1.469 . S
C1469 C376 1.369 . S
C1487 C394 1.385 . S
C1483 C35 1.481 . S
C1505 C397 1.421 . S
C1501 C11 1.515 . S
C1519 C21 1.488 . S
C1523 C385 1.385 . S
C1541 C402 1.358 . S
C1537 C207 1.459 . S
C1559 C403 1.301 . S
C1555 C175 1.403 1_655 S
C1577 C419 1.365 . S
C1573 C193 1.468 . S
C1595 C423 1.386 . S
C1591 C77 1.485 . S
C1613 C440 1.431 . S
C1609 C53 1.513 . S
C1627 C63 1.486 . S
C1631 C424 1.381 . S
C1645 C165 1.460 . S
C1649 C457 1.376 . S
C1663 C133 1.402 . S
C1667 C448 1.296 . S
C1685 C460 1.369 . S
C1681 C151 1.469 . S
C1699 C119 1.481 . S
C1703 C478 1.384 . S
C1717 C95 1.510 . S
C1721 C481 1.418 . S
C1739 C469 1.400 . S
C1735 C105 1.487 1_565 S
C1757 C499 1.356 . S
C1753 C39 1.456 . S
C1775 C490 1.299 . S
C1771 C7 1.403 . S
C1789 C25 1.468 . S
C1793 C502 1.366 . S
