# Generated by pormake.
# Topology anh, (6,3)-cn, num edge types: 1
# Building blocks:
#     Node 0, Type 0, BuildingBlock: HISSIN_clean_sbu_0, # of connection points: 6
#     Node 1, Type 0, BuildingBlock: HISSIN_clean_sbu_0, # of connection points: 6
#     Node 2, Type 0, BuildingBlock: HISSIN_clean_sbu_0, # of connection points: 6
#     Node 3, Type 1, BuildingBlock: OLANEW_clean_sbu_2, # of connection points: 3
#     Node 4, Type 1, BuildingBlock: OLANEW_clean_sbu_2, # of connection points: 3
#     Node 5, Type 1, BuildingBlock: OLANEW_clean_sbu_2, # of connection points: 3
#     Node 6, Type 1, BuildingBlock: OLANEW_clean_sbu_2, # of connection points: 3
#     Node 7, Type 1, BuildingBlock: OLANEW_clean_sbu_2, # of connection points: 3
#     Node 8, Type 1, BuildingBlock: OLANEW_clean_sbu_2, # of connection points: 3
#     Edge 9, Type (0, 1), BuildingBlock: KIFKEQ_clean_linker_1, # of connection points: 2
#     Edge 10, Type (0, 1), BuildingBlock: KIFKEQ_clean_linker_1, # of connection points: 2
#     Edge 11, Type (0, 1), BuildingBlock: KIFKEQ_clean_linker_1, # of connection points: 2
#     Edge 12, Type (0, 1), BuildingBlock: KIFKEQ_clean_linker_1, # of connection points: 2
#     Edge 13, Type (0, 1), BuildingBlock: KIFKEQ_clean_linker_1, # of connection points: 2
#     Edge 14, Type (0, 1), BuildingBlock: KIFKEQ_clean_linker_1, # of connection points: 2
#     Edge 15, Type (0, 1), BuildingBlock: KIFKEQ_clean_linker_1, # of connection points: 2
#     Edge 16, Type (0, 1), BuildingBlock: KIFKEQ_clean_linker_1, # of connection points: 2
#     Edge 17, Type (0, 1), BuildingBlock: KIFKEQ_clean_linker_1, # of connection points: 2
#     Edge 18, Type (0, 1), BuildingBlock: KIFKEQ_clean_linker_1, # of connection points: 2
#     Edge 19, Type (0, 1), BuildingBlock: KIFKEQ_clean_linker_1, # of connection points: 2
#     Edge 20, Type (0, 1), BuildingBlock: KIFKEQ_clean_linker_1, # of connection points: 2
#     Edge 21, Type (0, 1), BuildingBlock: KIFKEQ_clean_linker_1, # of connection points: 2
#     Edge 22, Type (0, 1), BuildingBlock: KIFKEQ_clean_linker_1, # of connection points: 2
#     Edge 23, Type (0, 1), BuildingBlock: KIFKEQ_clean_linker_1, # of connection points: 2
#     Edge 24, Type (0, 1), BuildingBlock: KIFKEQ_clean_linker_1, # of connection points: 2
#     Edge 25, Type (0, 1), BuildingBlock: KIFKEQ_clean_linker_1, # of connection points: 2
#     Edge 26, Type (0, 1), BuildingBlock: KIFKEQ_clean_linker_1, # of connection points: 2
# Relax obj value: 0.216
# Max RMSD: 0.131
# Mean RMSD: 0.112
data_MOF--net-anh--node1-HISSIN_clean_sbu_0--node2-OLANEW_clean_sbu_2--edge1-KIFKEQ_clean_linker_1
_symmetry_space_group_name_H-M    P1
_symmetry_Int_Tables_number       1
_symmetry_cell_setting            triclinic
loop_
_symmetry_equiv_pos_as_xyz
'x, y, z'
_cell_length_a     37.290981
_cell_length_b     37.253157
_cell_length_c     51.821184
_cell_angle_alpha  92.643739
_cell_angle_beta   90.207062
_cell_angle_gamma 119.82822
loop_
_atom_site_label
_atom_site_type_symbol
_atom_site_fract_x
_atom_site_fract_y
_atom_site_fract_z
_atom_type_partial_charge
Eu0 Eu 1.00255 0.4629 0.18376 0.0
Eu1 Eu 0.05055 0.56314 0.18531 0.0
C2 C 0.02975 0.51548 0.23692 0.0
C3 C 0.91667 0.35264 0.17611 0.0
C4 C 0.89291 0.3202 0.19202 0.0
C5 C 0.85534 0.33378 0.14955 0.0
C6 C 0.85048 0.29535 0.18716 0.0
C7 C 0.89777 0.35903 0.15462 0.0
C8 C 0.83128 0.30246 0.16618 0.0
C9 C 0.95961 0.38249 0.18398 0.0
O10 O 0.10355 0.54888 0.18405 0.0
O11 O 0.06769 0.47862 0.17389 0.0
C12 C 0.10278 0.51399 0.17683 0.0
O13 O 0.99658 0.47929 0.14323 0.0
O14 O 0.09408 0.62274 0.20433 0.0
O15 O 0.05908 0.62032 0.17004 0.0
O16 O 0.05507 0.54298 0.14469 0.0
C17 C 0.02548 0.51091 0.13157 0.0
O18 O 0.95075 0.47854 0.18718 0.0
O19 O 0.98483 0.54495 0.17395 0.0
O20 O 0.02532 0.54328 0.22496 0.0
O21 O 0.98466 0.40211 0.16562 0.0
O22 O 0.9638 0.40701 0.20398 0.0
O23 O 0.0332 0.48688 0.22335 0.0
C24 C 0.12705 0.67563 0.17499 0.0
C25 C 0.12743 0.71005 0.16489 0.0
C26 C 0.199 0.70365 0.16434 0.0
C27 C 0.1637 0.74163 0.15507 0.0
C28 C 0.16266 0.67195 0.17387 0.0
C29 C 0.20027 0.7394 0.15544 0.0
C30 C 0.08932 0.64373 0.1864 0.0
C31 C 0.95028 0.51126 0.17893 0.0
H32 H 0.90692 0.31509 0.20879 0.0
H33 H 0.84105 0.33985 0.13335 0.0
H34 H 0.83247 0.27104 0.20008 0.0
H35 H 0.91547 0.38439 0.1423 0.0
H36 H 0.0999 0.71292 0.16513 0.0
H37 H 0.22659 0.701 0.16531 0.0
H38 H 0.16345 0.76841 0.14798 0.0
H39 H 0.1628 0.64519 0.18109 0.0
Eu40 Eu 0.59177 0.03374 0.51631 0.0
Eu41 Eu 0.54299 0.0857 0.5175 0.0
C42 C 0.56939 0.06166 0.5695 0.0
C43 C 0.61376 0.94649 0.50433 0.0
C44 C 0.58325 0.92856 0.48449 0.0
C45 C 0.61294 0.8814 0.50713 0.0
C46 C 0.5674 0.88711 0.47615 0.0
C47 C 0.62895 0.92292 0.51532 0.0
C48 C 0.58148 0.86279 0.48774 0.0
C49 C 0.62709 0.98842 0.51515 0.0
O50 O 0.61081 0.13638 0.51838 0.0
O51 O 0.64211 0.09825 0.5074 0.0
C52 C 0.64354 0.13415 0.51106 0.0
O53 O 0.56592 0.02742 0.47599 0.0
O54 O 0.52986 0.12934 0.53888 0.0
O55 O 0.49948 0.10241 0.50149 0.0
O56 O 0.56536 0.08846 0.47707 0.0
C57 C 0.56554 0.05754 0.46407 0.0
O58 O 0.52403 0.98418 0.5187 0.0
O59 O 0.49219 0.02011 0.50625 0.0
O60 O 0.53811 0.06001 0.55682 0.0
O61 O 0.63404 0.01618 0.49847 0.0
O62 O 0.60588 0.99045 0.53457 0.0
O63 O 0.60012 0.06269 0.55673 0.0
C64 C 0.51944 0.17238 0.5121 0.0
C65 C 0.54206 0.18788 0.48969 0.0
C66 C 0.52661 0.2396 0.5229 0.0
C67 C 0.55682 0.22912 0.48392 0.0
C68 C 0.51144 0.19834 0.52847 0.0
C69 C 0.54982 0.25545 0.50077 0.0
C70 C 0.5074 0.13064 0.51997 0.0
C71 C 0.49077 0.98493 0.51077 0.0
H72 H 0.57089 0.9463 0.47591 0.0
H73 H 0.62395 0.86346 0.51686 0.0
H74 H 0.54352 0.87389 0.46102 0.0
H75 H 0.65216 0.93622 0.53086 0.0
H76 H 0.54912 0.16846 0.47697 0.0
H77 H 0.52042 0.25926 0.536 0.0
H78 H 0.57475 0.24078 0.4668 0.0
H79 H 0.49432 0.18697 0.54591 0.0
Eu80 Eu 0.48501 0.49682 0.84357 0.0
Eu81 Eu 0.58455 0.55349 0.84775 0.0
C82 C 0.53156 0.52947 0.89952 0.0
C83 C 0.37371 0.46849 0.84032 0.0
C84 C 0.3865 0.51024 0.84653 0.0
C85 C 0.3037 0.45455 0.83282 0.0
C86 C 0.35811 0.52416 0.84576 0.0
C87 C 0.33225 0.44066 0.83353 0.0
C88 C 0.31643 0.4965 0.83883 0.0
C89 C 0.40445 0.45512 0.83897 0.0
O90 O 0.572 0.48879 0.83448 0.0
O91 O 0.50704 0.45107 0.85018 0.0
C92 C 0.5407 0.45301 0.84078 0.0
O93 O 0.50758 0.48913 0.80457 0.0
O94 O 0.64554 0.56513 0.86002 0.0
O95 O 0.63987 0.61065 0.83856 0.0
O96 O 0.56644 0.55198 0.80614 0.0
C97 C 0.53769 0.51953 0.79289 0.0
O98 O 0.49977 0.56169 0.83383 0.0
O99 O 0.56078 0.59796 0.8568 0.0
O100 O 0.566 0.53622 0.88867 0.0
O101 O 0.42875 0.46863 0.8195 0.0
O102 O 0.42475 0.45919 0.86046 0.0
O103 O 0.49875 0.52143 0.88542 0.0
C104 C 0.69568 0.60055 0.82956 0.0
C105 C 0.68394 0.57067 0.80898 0.0
C106 C 0.76715 0.63033 0.81766 0.0
C107 C 0.71392 0.56978 0.79333 0.0
C108 C 0.73717 0.63106 0.83336 0.0
C109 C 0.75598 0.5989 0.798 0.0
C110 C 0.66488 0.59899 0.84755 0.0
C111 C 0.52955 0.59698 0.84427 0.0
H112 H 0.41863 0.53221 0.8515 0.0
H113 H 0.27168 0.43246 0.82772 0.0
H114 H 0.36897 0.55674 0.85014 0.0
H115 H 0.32211 0.40839 0.82848 0.0
H116 H 0.65178 0.54715 0.80566 0.0
H117 H 0.79933 0.65277 0.82205 0.0
H118 H 0.70445 0.54531 0.77831 0.0
H119 H 0.74657 0.65446 0.84907 0.0
O120 O 0.51831 0.03613 0.25859 0.0
Cd121 Cd 0.49117 0.02576 0.2139 0.0
O122 O 0.57567 0.03238 0.25617 0.0
Cd123 Cd 0.56571 1.01232 0.21546 0.0
O124 O 0.5163 0.9687 0.18908 0.0
C125 C 0.48516 0.94561 0.20209 0.0
O126 O 0.48895 0.94937 0.22745 0.0
C127 C 0.55014 0.03826 0.2694 0.0
C128 C 0.54654 0.08912 0.1842 0.0
O129 O 0.52065 0.09388 0.19805 0.0
O130 O 0.54514 0.05408 0.18384 0.0
O131 O 0.55889 0.56162 0.58932 0.0
Cd132 Cd 0.56682 0.58269 0.5445 0.0
O133 O 0.49648 0.50649 0.58617 0.0
Cd134 Cd 0.48754 0.51776 0.54657 0.0
O135 O 0.48891 0.55604 0.51583 0.0
C136 C 0.46372 0.56958 0.51695 0.0
O137 O 0.43586 0.55652 0.53489 0.0
C138 C 0.52911 0.53077 0.59951 0.0
C139 C 0.58287 0.52907 0.51404 0.0
O140 O 0.5464 0.52405 0.51528 0.0
O141 O 0.61234 0.56057 0.52648 0.0
O142 O 0.04024 0.56837 0.93099 0.0
Cd143 Cd 0.04259 0.58903 0.88693 0.0
O144 O 0.99156 0.5032 0.9236 0.0
Cd145 Cd 0.98423 0.51196 0.88299 0.0
O146 O 0.96722 0.52686 0.84632 0.0
C147 C 0.9667 0.5607 0.8466 0.0
O148 O 0.97634 0.5836 0.8683 0.0
C149 C 1.01716 0.5324 0.93905 0.0
C150 C 0.10122 0.57774 0.86114 0.0
O151 O 0.11091 0.61255 0.8729 0.0
O152 O 0.06334 0.54877 0.86087 0.0
O153 O 0.10326 0.59102 0.43682 0.0
Cd154 Cd 0.14203 0.6332 0.47755 0.0
O155 O 0.04347 0.5388 0.44895 0.0
Cd156 Cd 0.98105 0.47952 0.44926 0.0
O157 O 0.92079 0.42465 0.46164 0.0
C158 C 0.9069 0.38725 0.45288 0.0
O159 O 0.92821 0.37994 0.43537 0.0
C160 C 0.06841 0.55826 0.43105 0.0
C161 C 0.21862 0.7108 0.47839 0.0
O162 O 0.21794 0.676 0.47656 0.0
O163 O 0.18351 0.70933 0.47848 0.0
O164 O 0.54906 0.98726 0.76832 0.0
Cd165 Cd 0.54134 0.94907 0.80906 0.0
O166 O 0.54801 0.04487 0.78017 0.0
Cd167 Cd 0.55154 0.1077 0.78079 0.0
O168 O 0.55775 0.17082 0.79041 0.0
C169 C 0.52671 0.17663 0.79138 0.0
O170 O 0.48972 0.14473 0.78612 0.0
C171 C 0.5508 0.02124 0.76241 0.0
C172 C 0.53829 0.87042 0.81074 0.0
O173 O 0.50534 0.87276 0.80789 0.0
O174 O 0.57278 0.90466 0.81145 0.0
O175 O 0.56683 0.51343 0.10264 0.0
Cd176 Cd 0.60118 0.51062 0.14418 0.0
O177 O 0.51107 0.51847 0.11132 0.0
Cd178 Cd 0.45194 0.52237 0.11109 0.0
O179 O 0.39657 0.5285 0.12388 0.0
C180 C 0.35933 0.50406 0.11573 0.0
O181 O 0.3525 0.47403 0.09862 0.0
C182 C 0.53545 0.51599 0.09477 0.0
C183 C 0.67825 0.51037 0.14635 0.0
O184 O 0.64363 0.47671 0.14235 0.0
O185 O 0.677 0.5442 0.14806 0.0
H186 H 0.11347 0.44745 0.16492 0.0
H187 H 0.18219 0.58101 0.17365 0.0
H188 H 0.17554 0.44682 0.15168 0.0
H189 H 0.24471 0.58045 0.15976 0.0
H190 H 0.35858 0.55993 0.153 0.0
H191 H 0.29859 0.5637 0.16908 0.0
H192 H 0.21867 0.46151 0.11597 0.0
H193 H 0.27784 0.4573 0.1005 0.0
C194 C 0.14184 0.47685 0.16406 0.0
C195 C 0.14231 0.51429 0.17037 0.0
C196 C 0.17768 0.47651 0.1562 0.0
C197 C 0.21557 0.5136 0.15417 0.0
C198 C 0.21643 0.55113 0.16114 0.0
C199 C 0.18038 0.55148 0.16908 0.0
C200 C 0.32818 0.53829 0.14477 0.0
C201 C 0.3234 0.50813 0.12547 0.0
C202 C 0.29364 0.54055 0.15393 0.0
C203 C 0.25321 0.51263 0.14415 0.0
C204 C 0.24882 0.48303 0.12458 0.0
C205 C 0.28312 0.4808 0.11548 0.0
H206 H 0.65777 0.21444 0.50929 0.0
H207 H 0.71881 0.14238 0.49897 0.0
H208 H 0.72032 0.27599 0.49615 0.0
H209 H 0.78119 0.20364 0.48647 0.0
H210 H 0.8701 0.3054 0.43658 0.0
H211 H 0.80772 0.24687 0.4515 0.0
H212 H 0.79156 0.32849 0.50604 0.0
H213 H 0.85419 0.38778 0.49053 0.0
C214 C 0.68461 0.2117 0.50457 0.0
C215 C 0.6828 0.17301 0.50519 0.0
C216 C 0.72071 0.24721 0.49705 0.0
C217 C 0.75617 0.24519 0.48986 0.0
C218 C 0.75453 0.20666 0.49121 0.0
C219 C 0.71858 0.17131 0.49865 0.0
C220 C 0.85342 0.31116 0.45176 0.0
C221 C 0.8677 0.3517 0.46232 0.0
C222 C 0.8175 0.27724 0.46054 0.0
C223 C 0.7943 0.28233 0.48031 0.0
C224 C 0.80818 0.32302 0.4907 0.0
C225 C 0.84435 0.35716 0.48187 0.0
H226 H 0.58583 0.67623 0.86274 0.0
H227 H 0.47299 0.60817 0.81654 0.0
H228 H 0.5873 0.74088 0.85461 0.0
H229 H 0.47506 0.67287 0.8077 0.0
H230 H 0.46962 0.79342 0.8149 0.0
H231 H 0.46671 0.72828 0.82371 0.0
H232 H 0.60009 0.78958 0.82353 0.0
H233 H 0.60285 0.85491 0.81552 0.0
C234 C 0.56125 0.67494 0.85083 0.0
C235 C 0.52927 0.6366 0.84037 0.0
C236 C 0.56229 0.7123 0.84591 0.0
C237 C 0.53148 0.71276 0.83025 0.0
C238 C 0.49919 0.67425 0.82008 0.0
C239 C 0.49808 0.63688 0.82509 0.0
C240 C 0.49837 0.79302 0.81661 0.0
C241 C 0.53648 0.82975 0.81445 0.0
C242 C 0.49672 0.75539 0.82159 0.0
C243 C 0.53315 0.75306 0.82451 0.0
C244 C 0.57126 0.7898 0.82196 0.0
C245 C 0.57288 0.82745 0.81708 0.0
H246 H 0.87066 0.44928 0.1884 0.0
H247 H 0.93794 0.57112 0.1586 0.0
H248 H 0.80566 0.44873 0.18054 0.0
H249 H 0.87342 0.57008 0.14996 0.0
H250 H 0.75522 0.57599 0.15985 0.0
H251 H 0.81922 0.57548 0.16827 0.0
H252 H 0.75643 0.44361 0.14951 0.0
H253 H 0.69196 0.44409 0.14194 0.0
C254 C 0.87171 0.47595 0.18013 0.0
C255 C 0.90995 0.51036 0.17437 0.0
C256 C 0.83421 0.47553 0.17538 0.0
C257 C 0.83368 0.50944 0.16461 0.0
C258 C 0.87205 0.54363 0.15874 0.0
C259 C 0.90938 0.54412 0.16359 0.0
C260 C 0.755 0.54685 0.15739 0.0
C261 C 0.71813 0.51013 0.15009 0.0
C262 C 0.79201 0.54654 0.16212 0.0
C263 C 0.79367 0.50949 0.15959 0.0
C264 C 0.75672 0.47275 0.15211 0.0
C265 C 0.71961 0.47306 0.1475 0.0
H266 H 0.47288 0.90581 0.52118 0.0
H267 H 0.41748 0.97252 0.4894 0.0
H268 H 0.40817 0.84084 0.51317 0.0
H269 H 0.3533 0.90758 0.48047 0.0
H270 H 0.22987 0.78875 0.48932 0.0
H271 H 0.29441 0.85376 0.49745 0.0
H272 H 0.36312 0.79012 0.48255 0.0
H273 H 0.29832 0.72486 0.47541 0.0
C274 C 0.44697 0.90672 0.5124 0.0
C275 C 0.45073 0.94484 0.50613 0.0
C276 C 0.40968 0.86916 0.50754 0.0
C277 C 0.37482 0.86826 0.49605 0.0
C278 C 0.37877 0.9065 0.48974 0.0
C279 C 0.41595 0.94405 0.49476 0.0
C280 C 0.25874 0.7886 0.48764 0.0
C281 C 0.25857 0.75125 0.48165 0.0
C282 C 0.29606 0.82617 0.49221 0.0
C283 C 0.33469 0.82788 0.49078 0.0
C284 C 0.33439 0.79047 0.48439 0.0
C285 C 0.29702 0.75283 0.48001 0.0
H286 H 0.48282 0.37402 0.85254 0.0
H287 H 0.60053 0.44175 0.81636 0.0
H288 H 0.48168 0.30928 0.84156 0.0
H289 H 0.59898 0.37653 0.80478 0.0
H290 H 0.59756 0.25087 0.806 0.0
H291 H 0.60294 0.31762 0.81894 0.0
H292 H 0.47128 0.26351 0.8057 0.0
H293 H 0.4659 0.19731 0.79345 0.0
C294 C 0.5086 0.37524 0.84225 0.0
C295 C 0.5417 0.41351 0.83534 0.0
C296 C 0.5078 0.33781 0.83571 0.0
C297 C 0.53999 0.33708 0.82191 0.0
C298 C 0.57368 0.37548 0.81554 0.0
C299 C 0.5745 0.41307 0.82213 0.0
C300 C 0.56978 0.25326 0.80587 0.0
C301 C 0.53126 0.21829 0.79873 0.0
C302 C 0.57286 0.29172 0.8132 0.0
C303 C 0.53751 0.29638 0.81369 0.0
C304 C 0.4992 0.2614 0.80623 0.0
C305 C 0.49614 0.22318 0.79894 0.0
H306 H 0.61763 0.81441 0.48339 0.0
H307 H 0.49903 0.80836 0.47814 0.0
H308 H 0.58313 0.73934 0.48218 0.0
H309 H 0.46456 0.73311 0.47514 0.0
H310 H 0.42766 0.61744 0.52305 0.0
H311 H 0.45248 0.68584 0.50735 0.0
H312 H 0.54238 0.67251 0.46164 0.0
H313 H 0.51845 0.60434 0.4783 0.0
C314 C 0.58422 0.79703 0.48141 0.0
C315 C 0.56112 0.81746 0.48147 0.0
C316 C 0.56436 0.75384 0.48027 0.0
C317 C 0.52092 0.73005 0.4789 0.0
C318 C 0.49801 0.75048 0.47671 0.0
C319 C 0.51787 0.79372 0.47812 0.0
C320 C 0.45207 0.62862 0.50919 0.0
C321 C 0.47175 0.60591 0.50241 0.0
C322 C 0.46619 0.66789 0.49998 0.0
C323 C 0.50002 0.68511 0.48356 0.0
C324 C 0.51697 0.6606 0.47478 0.0
C325 C 0.50309 0.62143 0.48421 0.0
H326 H 0.75637 0.5264 0.79157 0.0
H327 H 0.82954 0.65679 0.77842 0.0
H328 H 0.81709 0.51943 0.78831 0.0
H329 H 0.89097 0.6497 0.77438 0.0
H330 H 0.92401 0.51124 0.80372 0.0
H331 H 0.87903 0.52232 0.77475 0.0
H332 H 0.92356 0.64409 0.8119 0.0
H333 H 0.96888 0.63348 0.83987 0.0
C334 C 0.78512 0.55322 0.78661 0.0
C335 C 0.78853 0.59245 0.78613 0.0
C336 C 0.82023 0.54921 0.78461 0.0
C337 C 0.85937 0.58439 0.78205 0.0
C338 C 0.86148 0.62227 0.77725 0.0
C339 C 0.82635 0.62637 0.77954 0.0
C340 C 0.92515 0.54089 0.80499 0.0
C341 C 0.94872 0.57092 0.82467 0.0
C342 C 0.89935 0.54723 0.78842 0.0
C343 C 0.89665 0.58356 0.79145 0.0
C344 C 0.92451 0.61563 0.80887 0.0
C345 C 0.95025 0.60933 0.82529 0.0
H346 H 0.26743 0.74218 0.13164 0.0
H347 H 0.22528 0.82031 0.16883 0.0
H348 H 0.33879 0.79885 0.13692 0.0
H349 H 0.29602 0.87695 0.17287 0.0
H350 H 0.41145 0.91279 0.22514 0.0
H351 H 0.34318 0.87014 0.20545 0.0
H352 H 0.39671 0.87574 0.13093 0.0
H353 H 0.46618 0.91945 0.15084 0.0
C354 C 0.2732 0.77176 0.14013 0.0
C355 C 0.24076 0.77626 0.15057 0.0
C356 C 0.314 0.80431 0.14284 0.0
C357 C 0.32273 0.84176 0.15586 0.0
C358 C 0.28996 0.84801 0.16314 0.0
C359 C 0.24933 0.81553 0.16061 0.0
C360 C 0.4089 0.90513 0.20455 0.0
C361 C 0.44415 0.91922 0.18955 0.0
C362 C 0.36971 0.88114 0.1932 0.0
C363 C 0.36474 0.8703 0.1666 0.0
C364 C 0.39988 0.88408 0.15145 0.0
C365 C 0.43942 0.90885 0.16283 0.0
H366 H 0.59546 0.32136 0.53403 0.0
H367 H 0.54267 0.28874 0.45646 0.0
H368 H 0.61454 0.39321 0.52888 0.0
H369 H 0.56213 0.36123 0.45107 0.0
H370 H 0.52832 0.46295 0.48302 0.0
H371 H 0.53138 0.40033 0.4725 0.0
H372 H 0.65491 0.45817 0.50635 0.0
H373 H 0.65171 0.52097 0.5172 0.0
C374 C 0.58872 0.32989 0.51568 0.0
C375 C 0.56703 0.29963 0.4958 0.0
C376 C 0.6001 0.37111 0.51257 0.0
C377 C 0.58973 0.38284 0.48957 0.0
C378 C 0.57033 0.35297 0.46903 0.0
C379 C 0.55929 0.31163 0.47208 0.0
C380 C 0.55662 0.4628 0.48755 0.0
C381 C 0.58936 0.49645 0.50152 0.0
C382 C 0.55851 0.42697 0.48131 0.0
C383 C 0.59312 0.42413 0.48903 0.0
C384 C 0.62761 0.45937 0.50054 0.0
C385 C 0.62579 0.49534 0.50668 0.0
H386 H 0.31015 0.55006 0.87358 0.0
H387 H 0.25492 0.47674 0.80254 0.0
H388 H 0.26 0.57362 0.87331 0.0
H389 H 0.20431 0.50028 0.80235 0.0
H390 H 0.18411 0.63207 0.85985 0.0
H391 H 0.23825 0.6156 0.84971 0.0
H392 H 0.14535 0.48885 0.82915 0.0
H393 H 0.0912 0.50541 0.8388 0.0
C394 C 0.28766 0.53948 0.85769 0.0
C395 C 0.2864 0.51148 0.83812 0.0
C396 C 0.25902 0.5531 0.85747 0.0
C397 C 0.22841 0.53899 0.8377 0.0
C398 C 0.22742 0.51142 0.81791 0.0
C399 C 0.25621 0.49782 0.81809 0.0
C400 C 0.17523 0.60091 0.85265 0.0
C401 C 0.13344 0.56986 0.85052 0.0
C402 C 0.20622 0.59146 0.84697 0.0
C403 C 0.19598 0.5508 0.83907 0.0
C404 C 0.15418 0.5205 0.83511 0.0
C405 C 0.12316 0.52996 0.84077 0.0
H406 H 0.77481 0.29203 0.20193 0.0
H407 H 0.78603 0.25911 0.12263 0.0
H408 H 0.70035 0.24595 0.19851 0.0
H409 H 0.71084 0.21264 0.11903 0.0
H410 H 0.6026 0.08709 0.15149 0.0
H411 H 0.66827 0.14578 0.14041 0.0
H412 H 0.63337 0.22961 0.17754 0.0
H413 H 0.56759 0.17071 0.18896 0.0
C414 C 0.76107 0.27527 0.18364 0.0
C415 C 0.78593 0.2784 0.16268 0.0
C416 C 0.71841 0.24935 0.18154 0.0
C417 C 0.69979 0.22574 0.15847 0.0
C418 C 0.72448 0.23047 0.13703 0.0
C419 C 0.76731 0.25693 0.13907 0.0
C420 C 0.60838 0.11807 0.15665 0.0
C421 C 0.58045 0.1243 0.17167 0.0
C422 C 0.64591 0.15174 0.1501 0.0
C423 C 0.65616 0.19218 0.15852 0.0
C424 C 0.6264 0.19864 0.17116 0.0
C425 C 0.58874 0.16493 0.17764 0.0
H426 H 0.06244 0.57835 0.10281 0.0
H427 H 0.98596 0.44504 0.09625 0.0
H428 H 0.06049 0.58074 0.05625 0.0
H429 H 0.98566 0.44707 0.04917 0.0
H430 H 0.95716 0.47322 0.96756 0.0
H431 H 0.95933 0.46593 0.014 0.0
H432 H 0.08594 0.56671 0.01856 0.0
H433 H 0.08274 0.5753 0.97258 0.0
C434 C 0.04566 0.54942 0.09134 0.0
C435 C 0.02445 0.51149 0.10315 0.0
C436 C 0.04479 0.55073 0.06454 0.0
C437 C 1.02332 0.51405 0.04879 0.0
C438 C 1.00214 0.47598 0.06066 0.0
C439 C 1.00244 0.47475 0.08762 0.0
C440 C 0.98546 0.49359 0.97855 0.0
C441 C 1.01959 0.52518 0.96658 0.0
C442 C 0.98684 0.4893 0.00515 0.0
C443 C 1.02264 0.51609 0.0202 0.0
C444 C 0.05741 0.54632 0.00781 0.0
C445 C 0.05572 0.55111 0.98139 0.0
H446 H 0.57127 1.00168 0.43068 0.0
H447 H 0.55967 0.11164 0.43281 0.0
H448 H 0.57032 1.00005 0.38358 0.0
H449 H 0.55918 0.11013 0.38573 0.0
H450 H 0.60705 0.03324 0.30035 0.0
H451 H 0.61302 0.04013 0.34748 0.0
H452 H 0.51193 0.0655 0.34984 0.0
H453 H 0.50614 0.05908 0.30285 0.0
C454 C 0.56865 0.02557 0.42113 0.0
C455 C 0.56538 0.0567 0.43551 0.0
C456 C 0.56843 0.0248 0.39415 0.0
C457 C 0.56474 0.055 0.38098 0.0
C458 C 0.56168 0.08623 0.39535 0.0
C459 C 0.5621 0.08714 0.42233 0.0
C460 C 0.58636 0.04069 0.3109 0.0
C461 C 0.55603 0.04547 0.29782 0.0
C462 C 0.58961 0.04434 0.33789 0.0
C463 C 0.56282 0.05316 0.35233 0.0
C464 C 0.53326 0.05904 0.33923 0.0
C465 C 0.52983 0.05515 0.31229 0.0
H466 H 0.49151 0.45334 0.75889 0.0
H467 H 0.5861 0.58257 0.76237 0.0
H468 H 0.49164 0.45222 0.71179 0.0
H469 H 0.5851 0.58198 0.71555 0.0
H470 H 0.59835 0.56492 0.63098 0.0
H471 H 0.60242 0.55833 0.67726 0.0
H472 H 0.46991 0.47709 0.67721 0.0
H473 H 0.4662 0.48232 0.63075 0.0
C474 C 0.51226 0.48151 0.7496 0.0
C475 C 0.53868 0.51806 0.76436 0.0
C476 C 0.51221 0.48094 0.7226 0.0
C477 C 0.53829 0.51704 0.70978 0.0
C478 C 0.56511 0.55338 0.72465 0.0
C479 C 0.56547 0.55381 0.75159 0.0
C480 C 0.57015 0.54535 0.64083 0.0
C481 C 0.53191 0.52439 0.62724 0.0
C482 C 0.57243 0.54175 0.66741 0.0
C483 C 0.53644 0.51755 0.68111 0.0
C484 C 0.49835 0.4956 0.66732 0.0
C485 C 0.49616 0.49879 0.64066 0.0
H486 H 0.51071 0.05941 0.60234 0.0
H487 H 0.62743 0.06126 0.60198 0.0
H488 H 0.50848 0.05364 0.64913 0.0
H489 H 0.62552 0.0562 0.64873 0.0
H490 H 0.58075 0.99122 0.72461 0.0
H491 H 0.58672 1.00421 0.67894 0.0
H492 H 0.5399 0.0887 0.69118 0.0
H493 H 0.53289 0.07476 0.73717 0.0
C494 C 0.5361 0.05894 0.61223 0.0
C495 C 0.56912 0.0605 0.59825 0.0
C496 C 0.53494 0.05592 0.63915 0.0
C497 C 0.56669 0.05422 0.65282 0.0
C498 C 0.60017 0.05677 0.63887 0.0
C499 C 0.60137 0.05988 0.612 0.0
C500 C 0.57186 1.01279 0.71771 0.0
C501 C 0.55657 0.03214 0.73479 0.0
C502 C 0.57563 0.0205 0.69142 0.0
C503 C 0.56404 0.04771 0.68123 0.0
C504 C 0.54897 0.0674 0.69829 0.0
C505 C 0.54541 0.05981 0.72477 0.0
H506 H 0.46433 0.50937 0.93023 0.0
H507 H 0.59507 0.55105 0.93439 0.0
H508 H 0.46177 0.50595 0.97741 0.0
H509 H 0.59261 0.54835 0.98107 0.0
H510 H 0.56858 0.48977 0.05707 0.0
H511 H 0.56506 0.49387 0.01082 0.0
H512 H 0.48507 0.54615 0.02036 0.0
H513 H 0.48823 0.54154 0.06748 0.0
C514 C 0.49258 0.51817 0.94115 0.0
C515 C 0.52982 0.53002 0.92834 0.0
C516 C 0.49112 0.51637 0.96824 0.0
C517 C 0.52683 0.52626 0.98313 0.0
C518 C 0.56423 0.53953 0.97029 0.0
C519 C 0.56569 0.54127 0.94339 0.0
C520 C 0.55005 0.50213 0.04952 0.0
C521 C 0.52902 0.51572 0.06625 0.0
C522 C 0.54824 0.50469 0.02282 0.0
C523 C 0.52551 0.52117 0.01172 0.0
C524 C 0.50296 0.53333 0.02823 0.0
C525 C 0.50472 0.53067 0.05525 0.0
H526 H 0.06081 0.47928 0.26805 0.0
H527 H 1.00241 0.55448 0.271 0.0
H528 H 0.06633 0.48392 0.31532 0.0
H529 H 1.00719 0.55828 0.31833 0.0
H530 H 0.99294 0.52279 0.40492 0.0
H531 H 0.98003 0.50845 0.35791 0.0
H532 H 0.10892 0.54762 0.3479 0.0
H533 H 0.12195 0.56287 0.39439 0.0
C534 C 0.04876 0.49644 0.27876 0.0
C535 C 0.03142 0.51674 0.26569 0.0
C536 C 0.05196 0.4991 0.30584 0.0
C537 C 0.03706 0.52134 0.32055 0.0
C538 C 1.01858 0.5406 0.30754 0.0
C539 C 1.01617 0.53868 0.28043 0.0
C540 C 1.01828 0.52767 0.39267 0.0
C541 C 0.05845 0.54394 0.40335 0.0
C542 C 1.01099 0.51979 0.36579 0.0
C543 C 0.04351 0.52696 0.34921 0.0
C544 C 0.0832 0.54153 0.36012 0.0
C545 C 0.09065 0.55035 0.38676 0.0
loop_
_geom_bond_atom_site_label_1
_geom_bond_atom_site_label_2
_geom_bond_distance
_geom_bond_site_symmetry_2
_ccdc_geom_bond_type
Eu0 C9 2.828 . S
Eu0 O11 2.392 1_655 S
Eu0 O13 2.418 . S
Eu0 O18 2.373 . S
Eu0 O21 2.488 . S
Eu0 O22 2.471 . S
Eu0 O23 2.349 . S
Eu1 O10 2.373 . S
Eu1 O14 2.488 . S
Eu1 O15 2.471 . S
Eu1 O16 2.349 . S
Eu1 O19 2.392 1_455 S
Eu1 O20 2.418 . S
Eu1 C30 2.828 . S
C2 O20 1.244 . S
C2 O23 1.265 1_455 S
C3 C4 1.379 . S
C3 C7 1.373 . S
C3 C9 1.505 . S
C4 C3 1.379 . S
C4 C6 1.369 . S
C4 H32 0.930 . S
C5 C7 1.383 . S
C5 C8 1.382 . S
C5 H33 0.930 . S
C6 C4 1.369 . S
C6 C8 1.392 . S
C6 H34 0.930 . S
C7 C3 1.373 . S
C7 C5 1.383 . S
C7 H35 0.931 . S
C8 C5 1.382 . S
C8 C6 1.392 . S
C9 Eu0 2.828 . S
C9 C3 1.505 . S
C9 O21 1.249 . S
C9 O22 1.244 . S
O10 Eu1 2.373 . S
O10 C12 1.258 . S
O11 Eu0 2.392 1_455 S
O11 C12 1.242 . S
C12 O10 1.258 . S
C12 O11 1.242 . S
O13 Eu0 2.418 . S
O13 C17 1.244 . S
O14 Eu1 2.488 . S
O14 C30 1.249 . S
O15 Eu1 2.471 . S
O15 C30 1.244 . S
O16 Eu1 2.349 . S
O16 C17 1.265 1_455 S
C17 O13 1.244 . S
C17 O16 1.265 1_655 S
O18 Eu0 2.373 . S
O18 C31 1.258 . S
O19 Eu1 2.392 1_655 S
O19 C31 1.242 . S
O20 Eu1 2.418 . S
O20 C2 1.244 . S
O21 Eu0 2.488 . S
O21 C9 1.249 . S
O22 Eu0 2.471 . S
O22 C9 1.244 . S
O23 Eu0 2.349 . S
O23 C2 1.265 1_655 S
C24 C25 1.379 . S
C24 C28 1.373 . S
C24 C30 1.505 . S
C25 C24 1.379 . S
C25 C27 1.369 . S
C25 H36 0.930 . S
C26 C28 1.383 . S
C26 C29 1.382 . S
C26 H37 0.930 . S
C27 C25 1.369 . S
C27 C29 1.392 . S
C27 H38 0.930 . S
C28 C24 1.373 . S
C28 C26 1.383 . S
C28 H39 0.931 . S
C29 C26 1.382 . S
C29 C27 1.392 . S
C30 Eu1 2.828 . S
C30 O14 1.249 . S
C30 O15 1.244 . S
C30 C24 1.505 . S
C31 O18 1.258 . S
C31 O19 1.242 . S
H32 C4 0.930 . S
H33 C5 0.930 . S
H34 C6 0.930 . S
H35 C7 0.931 . S
H36 C25 0.930 . S
H37 C26 0.930 . S
H38 C27 0.930 . S
H39 C28 0.931 . S
Eu40 C49 2.828 . S
Eu40 O51 2.392 1_565 S
Eu40 O53 2.418 . S
Eu40 O58 2.373 . S
Eu40 O61 2.488 . S
Eu40 O62 2.471 . S
Eu40 O63 2.349 . S
Eu41 O50 2.373 . S
Eu41 O54 2.488 . S
Eu41 O55 2.471 . S
Eu41 O56 2.349 . S
Eu41 O59 2.392 1_545 S
Eu41 O60 2.418 . S
Eu41 C70 2.828 . S
C42 O60 1.244 . S
C42 O63 1.265 1_545 S
C43 C44 1.379 . S
C43 C47 1.373 . S
C43 C49 1.505 . S
C44 C43 1.379 . S
C44 C46 1.369 . S
C44 H72 0.930 . S
C45 C47 1.383 . S
C45 C48 1.382 . S
C45 H73 0.930 . S
C46 C44 1.369 . S
C46 C48 1.392 . S
C46 H74 0.930 . S
C47 C43 1.373 . S
C47 C45 1.383 . S
C47 H75 0.931 . S
C48 C45 1.382 . S
C48 C46 1.392 . S
C49 Eu40 2.828 . S
C49 C43 1.505 . S
C49 O61 1.249 . S
C49 O62 1.244 . S
O50 Eu41 2.373 . S
O50 C52 1.258 . S
O51 Eu40 2.392 1_545 S
O51 C52 1.242 . S
C52 O50 1.258 . S
C52 O51 1.242 . S
O53 Eu40 2.418 . S
O53 C57 1.244 1_565 S
O54 Eu41 2.488 . S
O54 C70 1.249 . S
O55 Eu41 2.471 . S
O55 C70 1.244 . S
O56 Eu41 2.349 . S
O56 C57 1.265 . S
C57 O53 1.244 1_545 S
C57 O56 1.265 . S
O58 Eu40 2.373 . S
O58 C71 1.258 . S
O59 Eu41 2.392 1_565 S
O59 C71 1.242 . S
O60 Eu41 2.418 . S
O60 C42 1.244 . S
O61 Eu40 2.488 . S
O61 C49 1.249 . S
O62 Eu40 2.471 . S
O62 C49 1.244 . S
O63 Eu40 2.349 . S
O63 C42 1.265 1_565 S
C64 C65 1.379 . S
C64 C68 1.373 . S
C64 C70 1.505 . S
C65 C64 1.379 . S
C65 C67 1.369 . S
C65 H76 0.930 . S
C66 C68 1.383 . S
C66 C69 1.382 . S
C66 H77 0.930 . S
C67 C65 1.369 . S
C67 C69 1.392 . S
C67 H78 0.930 . S
C68 C64 1.373 . S
C68 C66 1.383 . S
C68 H79 0.931 . S
C69 C66 1.382 . S
C69 C67 1.392 . S
C70 Eu41 2.828 . S
C70 O54 1.249 . S
C70 O55 1.244 . S
C70 C64 1.505 . S
C71 O58 1.258 . S
C71 O59 1.242 . S
H72 C44 0.930 . S
H73 C45 0.930 . S
H74 C46 0.930 . S
H75 C47 0.931 . S
H76 C65 0.930 . S
H77 C66 0.930 . S
H78 C67 0.930 . S
H79 C68 0.931 . S
Eu80 C89 2.828 . S
Eu80 O91 2.392 . S
Eu80 O93 2.418 . S
Eu80 O98 2.373 . S
Eu80 O101 2.488 . S
Eu80 O102 2.471 . S
Eu80 O103 2.349 . S
Eu81 O90 2.373 . S
Eu81 O94 2.488 . S
Eu81 O95 2.471 . S
Eu81 O96 2.349 . S
Eu81 O99 2.392 . S
Eu81 O100 2.418 . S
Eu81 C110 2.828 . S
C82 O100 1.244 . S
C82 O103 1.265 . S
C83 C84 1.379 . S
C83 C87 1.373 . S
C83 C89 1.505 . S
C84 C83 1.379 . S
C84 C86 1.369 . S
C84 H112 0.930 . S
C85 C87 1.383 . S
C85 C88 1.382 . S
C85 H113 0.930 . S
C86 C84 1.369 . S
C86 C88 1.392 . S
C86 H114 0.930 . S
C87 C83 1.373 . S
C87 C85 1.383 . S
C87 H115 0.931 . S
C88 C85 1.382 . S
C88 C86 1.392 . S
C89 Eu80 2.828 . S
C89 C83 1.505 . S
C89 O101 1.249 . S
C89 O102 1.244 . S
O90 Eu81 2.373 . S
O90 C92 1.258 . S
O91 Eu80 2.392 . S
O91 C92 1.242 . S
C92 O90 1.258 . S
C92 O91 1.242 . S
O93 Eu80 2.418 . S
O93 C97 1.244 . S
O94 Eu81 2.488 . S
O94 C110 1.249 . S
O95 Eu81 2.471 . S
O95 C110 1.244 . S
O96 Eu81 2.349 . S
O96 C97 1.265 . S
C97 O93 1.244 . S
C97 O96 1.265 . S
O98 Eu80 2.373 . S
O98 C111 1.258 . S
O99 Eu81 2.392 . S
O99 C111 1.242 . S
O100 Eu81 2.418 . S
O100 C82 1.244 . S
O101 Eu80 2.488 . S
O101 C89 1.249 . S
O102 Eu80 2.471 . S
O102 C89 1.244 . S
O103 Eu80 2.349 . S
O103 C82 1.265 . S
C104 C105 1.379 . S
C104 C108 1.373 . S
C104 C110 1.505 . S
C105 C104 1.379 . S
C105 C107 1.369 . S
C105 H116 0.930 . S
C106 C108 1.383 . S
C106 C109 1.382 . S
C106 H117 0.930 . S
C107 C105 1.369 . S
C107 C109 1.392 . S
C107 H118 0.930 . S
C108 C104 1.373 . S
C108 C106 1.383 . S
C108 H119 0.931 . S
C109 C106 1.382 . S
C109 C107 1.392 . S
C110 Eu81 2.828 . S
C110 O94 1.249 . S
C110 O95 1.244 . S
C110 C104 1.505 . S
C111 O98 1.258 . S
C111 O99 1.242 . S
H112 C84 0.930 . S
H113 C85 0.930 . S
H114 C86 0.930 . S
H115 C87 0.931 . S
H116 C105 0.930 . S
H117 C106 0.930 . S
H118 C107 0.930 . S
H119 C108 0.931 . S
O120 Cd121 2.300 . S
O120 C127 1.275 . S
Cd121 O120 2.300 . S
Cd121 O129 2.381 . S
Cd121 O130 2.378 . S
O122 Cd123 2.385 . S
O122 C127 1.255 1_565 S
Cd123 O122 2.385 . S
Cd123 O124 2.317 . S
O124 Cd123 2.317 . S
O124 C125 1.232 . S
C125 O124 1.232 . S
C125 O126 1.218 . S
O126 C125 1.218 . S
C127 O120 1.275 . S
C127 O122 1.255 1_545 S
C128 O129 1.258 . S
C128 O130 1.256 . S
O129 Cd121 2.381 . S
O129 C128 1.258 . S
O130 Cd121 2.378 . S
O130 C128 1.256 . S
O131 Cd132 2.300 . S
O131 C138 1.275 . S
Cd132 O131 2.300 . S
Cd132 O140 2.381 . S
Cd132 O141 2.378 . S
O133 Cd134 2.385 . S
O133 C138 1.255 . S
Cd134 O133 2.385 . S
Cd134 O135 2.317 . S
O135 Cd134 2.317 . S
O135 C136 1.232 . S
C136 O135 1.232 . S
C136 O137 1.218 . S
O137 C136 1.218 . S
C138 O131 1.275 . S
C138 O133 1.255 . S
C139 O140 1.258 . S
C139 O141 1.256 . S
O140 Cd132 2.381 . S
O140 C139 1.258 . S
O141 Cd132 2.378 . S
O141 C139 1.256 . S
O142 Cd143 2.300 . S
O142 C149 1.275 . S
Cd143 O142 2.300 . S
Cd143 O151 2.381 . S
Cd143 O152 2.378 . S
O144 Cd145 2.385 . S
O144 C149 1.255 1_655 S
Cd145 O144 2.385 . S
Cd145 O146 2.317 . S
O146 Cd145 2.317 . S
O146 C147 1.232 . S
C147 O146 1.232 . S
C147 O148 1.218 . S
O148 C147 1.218 . S
C149 O142 1.275 . S
C149 O144 1.255 1_455 S
C150 O151 1.258 . S
C150 O152 1.256 . S
O151 Cd143 2.381 . S
O151 C150 1.258 . S
O152 Cd143 2.378 . S
O152 C150 1.256 . S
O153 Cd154 2.300 . S
O153 C160 1.275 . S
Cd154 O153 2.300 . S
Cd154 O162 2.381 . S
Cd154 O163 2.378 . S
O155 Cd156 2.385 . S
O155 C160 1.255 1_655 S
Cd156 O155 2.385 . S
Cd156 O157 2.317 . S
O157 Cd156 2.317 . S
O157 C158 1.232 . S
C158 O157 1.232 . S
C158 O159 1.218 . S
O159 C158 1.218 . S
C160 O153 1.275 . S
C160 O155 1.255 1_455 S
C161 O162 1.258 . S
C161 O163 1.256 . S
O162 Cd154 2.381 . S
O162 C161 1.258 . S
O163 Cd154 2.378 . S
O163 C161 1.256 . S
O164 Cd165 2.300 . S
O164 C171 1.275 1_565 S
Cd165 O164 2.300 . S
Cd165 O173 2.381 . S
Cd165 O174 2.378 . S
O166 Cd167 2.385 . S
O166 C171 1.255 . S
Cd167 O166 2.385 . S
Cd167 O168 2.317 . S
O168 Cd167 2.317 . S
O168 C169 1.232 . S
C169 O168 1.232 . S
C169 O170 1.218 . S
O170 C169 1.218 . S
C171 O164 1.275 1_545 S
C171 O166 1.255 . S
C172 O173 1.258 . S
C172 O174 1.256 . S
O173 Cd165 2.381 . S
O173 C172 1.258 . S
O174 Cd165 2.378 . S
O174 C172 1.256 . S
O175 Cd176 2.300 . S
O175 C182 1.275 . S
Cd176 O175 2.300 . S
Cd176 O184 2.381 . S
Cd176 O185 2.378 . S
O177 Cd178 2.385 . S
O177 C182 1.255 . S
Cd178 O177 2.385 . S
Cd178 O179 2.317 . S
O179 Cd178 2.317 . S
O179 C180 1.232 . S
C180 O179 1.232 . S
C180 O181 1.218 . S
O181 C180 1.218 . S
C182 O175 1.275 . S
C182 O177 1.255 . S
C183 O184 1.258 . S
C183 O185 1.256 . S
O184 Cd176 2.381 . S
O184 C183 1.258 . S
O185 Cd176 2.378 . S
O185 C183 1.256 . S
H186 C194 0.950 . S
H187 C199 0.950 . S
H188 C196 0.950 . S
H189 C198 0.950 . S
H190 C200 0.950 . S
H191 C202 0.950 . S
H192 C204 0.950 . S
H193 C205 0.950 . S
C194 H186 0.950 . S
C194 C195 1.386 . S
C194 C196 1.391 . S
C195 C194 1.386 . S
C195 C199 1.393 . S
C196 H188 0.950 . S
C196 C194 1.391 . S
C196 C197 1.400 . S
C197 C196 1.400 . S
C197 C198 1.398 . S
C197 C203 1.491 . S
C198 H189 0.950 . S
C198 C197 1.398 . S
C198 C199 1.391 . S
C199 H187 0.950 . S
C199 C195 1.393 . S
C199 C198 1.391 . S
C200 H190 0.950 . S
C200 C201 1.386 . S
C200 C202 1.391 . S
C201 C200 1.386 . S
C201 C205 1.393 . S
C202 H191 0.950 . S
C202 C200 1.391 . S
C202 C203 1.400 . S
C203 C197 1.491 . S
C203 C202 1.400 . S
C203 C204 1.398 . S
C204 H192 0.950 . S
C204 C203 1.398 . S
C204 C205 1.391 . S
C205 H193 0.950 . S
C205 C201 1.393 . S
C205 C204 1.391 . S
H206 C214 0.950 . S
H207 C219 0.950 . S
H208 C216 0.950 . S
H209 C218 0.950 . S
H210 C220 0.950 . S
H211 C222 0.950 . S
H212 C224 0.950 . S
H213 C225 0.950 . S
C214 H206 0.950 . S
C214 C215 1.386 . S
C214 C216 1.391 . S
C215 C214 1.386 . S
C215 C219 1.393 . S
C216 H208 0.950 . S
C216 C214 1.391 . S
C216 C217 1.400 . S
C217 C216 1.400 . S
C217 C218 1.398 . S
C217 C223 1.491 . S
C218 H209 0.950 . S
C218 C217 1.398 . S
C218 C219 1.391 . S
C219 H207 0.950 . S
C219 C215 1.393 . S
C219 C218 1.391 . S
C220 H210 0.950 . S
C220 C221 1.386 . S
C220 C222 1.391 . S
C221 C220 1.386 . S
C221 C225 1.393 . S
C222 H211 0.950 . S
C222 C220 1.391 . S
C222 C223 1.400 . S
C223 C217 1.491 . S
C223 C222 1.400 . S
C223 C224 1.398 . S
C224 H212 0.950 . S
C224 C223 1.398 . S
C224 C225 1.391 . S
C225 H213 0.950 . S
C225 C221 1.393 . S
C225 C224 1.391 . S
H226 C234 0.950 . S
H227 C239 0.950 . S
H228 C236 0.950 . S
H229 C238 0.950 . S
H230 C240 0.950 . S
H231 C242 0.950 . S
H232 C244 0.950 . S
H233 C245 0.950 . S
C234 H226 0.950 . S
C234 C235 1.386 . S
C234 C236 1.391 . S
C235 C234 1.386 . S
C235 C239 1.393 . S
C236 H228 0.950 . S
C236 C234 1.391 . S
C236 C237 1.400 . S
C237 C236 1.400 . S
C237 C238 1.398 . S
C237 C243 1.491 . S
C238 H229 0.950 . S
C238 C237 1.398 . S
C238 C239 1.391 . S
C239 H227 0.950 . S
C239 C235 1.393 . S
C239 C238 1.391 . S
C240 H230 0.950 . S
C240 C241 1.386 . S
C240 C242 1.391 . S
C241 C240 1.386 . S
C241 C245 1.393 . S
C242 H231 0.950 . S
C242 C240 1.391 . S
C242 C243 1.400 . S
C243 C237 1.491 . S
C243 C242 1.400 . S
C243 C244 1.398 . S
C244 H232 0.950 . S
C244 C243 1.398 . S
C244 C245 1.391 . S
C245 H233 0.950 . S
C245 C241 1.393 . S
C245 C244 1.391 . S
H246 C254 0.950 . S
H247 C259 0.950 . S
H248 C256 0.950 . S
H249 C258 0.950 . S
H250 C260 0.950 . S
H251 C262 0.950 . S
H252 C264 0.950 . S
H253 C265 0.950 . S
C254 H246 0.950 . S
C254 C255 1.386 . S
C254 C256 1.391 . S
C255 C254 1.386 . S
C255 C259 1.393 . S
C256 H248 0.950 . S
C256 C254 1.391 . S
C256 C257 1.400 . S
C257 C256 1.400 . S
C257 C258 1.398 . S
C257 C263 1.491 . S
C258 H249 0.950 . S
C258 C257 1.398 . S
C258 C259 1.391 . S
C259 H247 0.950 . S
C259 C255 1.393 . S
C259 C258 1.391 . S
C260 H250 0.950 . S
C260 C261 1.386 . S
C260 C262 1.391 . S
C261 C260 1.386 . S
C261 C265 1.393 . S
C262 H251 0.950 . S
C262 C260 1.391 . S
C262 C263 1.400 . S
C263 C257 1.491 . S
C263 C262 1.400 . S
C263 C264 1.398 . S
C264 H252 0.950 . S
C264 C263 1.398 . S
C264 C265 1.391 . S
C265 H253 0.950 . S
C265 C261 1.393 . S
C265 C264 1.391 . S
H266 C274 0.950 . S
H267 C279 0.950 . S
H268 C276 0.950 . S
H269 C278 0.950 . S
H270 C280 0.950 . S
H271 C282 0.950 . S
H272 C284 0.950 . S
H273 C285 0.950 . S
C274 H266 0.950 . S
C274 C275 1.386 . S
C274 C276 1.391 . S
C275 C274 1.386 . S
C275 C279 1.393 . S
C276 H268 0.950 . S
C276 C274 1.391 . S
C276 C277 1.400 . S
C277 C276 1.400 . S
C277 C278 1.398 . S
C277 C283 1.491 . S
C278 H269 0.950 . S
C278 C277 1.398 . S
C278 C279 1.391 . S
C279 H267 0.950 . S
C279 C275 1.393 . S
C279 C278 1.391 . S
C280 H270 0.950 . S
C280 C281 1.386 . S
C280 C282 1.391 . S
C281 C280 1.386 . S
C281 C285 1.393 . S
C282 H271 0.950 . S
C282 C280 1.391 . S
C282 C283 1.400 . S
C283 C277 1.491 . S
C283 C282 1.400 . S
C283 C284 1.398 . S
C284 H272 0.950 . S
C284 C283 1.398 . S
C284 C285 1.391 . S
C285 H273 0.950 . S
C285 C281 1.393 . S
C285 C284 1.391 . S
H286 C294 0.950 . S
H287 C299 0.950 . S
H288 C296 0.950 . S
H289 C298 0.950 . S
H290 C300 0.950 . S
H291 C302 0.950 . S
H292 C304 0.950 . S
H293 C305 0.950 . S
C294 H286 0.950 . S
C294 C295 1.386 . S
C294 C296 1.391 . S
C295 C294 1.386 . S
C295 C299 1.393 . S
C296 H288 0.950 . S
C296 C294 1.391 . S
C296 C297 1.400 . S
C297 C296 1.400 . S
C297 C298 1.398 . S
C297 C303 1.491 . S
C298 H289 0.950 . S
C298 C297 1.398 . S
C298 C299 1.391 . S
C299 H287 0.950 . S
C299 C295 1.393 . S
C299 C298 1.391 . S
C300 H290 0.950 . S
C300 C301 1.386 . S
C300 C302 1.391 . S
C301 C300 1.386 . S
C301 C305 1.393 . S
C302 H291 0.950 . S
C302 C300 1.391 . S
C302 C303 1.400 . S
C303 C297 1.491 . S
C303 C302 1.400 . S
C303 C304 1.398 . S
C304 H292 0.950 . S
C304 C303 1.398 . S
C304 C305 1.391 . S
C305 H293 0.950 . S
C305 C301 1.393 . S
C305 C304 1.391 . S
H306 C314 0.950 . S
H307 C319 0.950 . S
H308 C316 0.950 . S
H309 C318 0.950 . S
H310 C320 0.950 . S
H311 C322 0.950 . S
H312 C324 0.950 . S
H313 C325 0.950 . S
C314 H306 0.950 . S
C314 C315 1.386 . S
C314 C316 1.391 . S
C315 C314 1.386 . S
C315 C319 1.393 . S
C316 H308 0.950 . S
C316 C314 1.391 . S
C316 C317 1.400 . S
C317 C316 1.400 . S
C317 C318 1.398 . S
C317 C323 1.491 . S
C318 H309 0.950 . S
C318 C317 1.398 . S
C318 C319 1.391 . S
C319 H307 0.950 . S
C319 C315 1.393 . S
C319 C318 1.391 . S
C320 H310 0.950 . S
C320 C321 1.386 . S
C320 C322 1.391 . S
C321 C320 1.386 . S
C321 C325 1.393 . S
C322 H311 0.950 . S
C322 C320 1.391 . S
C322 C323 1.400 . S
C323 C317 1.491 . S
C323 C322 1.400 . S
C323 C324 1.398 . S
C324 H312 0.950 . S
C324 C323 1.398 . S
C324 C325 1.391 . S
C325 H313 0.950 . S
C325 C321 1.393 . S
C325 C324 1.391 . S
H326 C334 0.950 . S
H327 C339 0.950 . S
H328 C336 0.950 . S
H329 C338 0.950 . S
H330 C340 0.950 . S
H331 C342 0.950 . S
H332 C344 0.950 . S
H333 C345 0.950 . S
C334 H326 0.950 . S
C334 C335 1.386 . S
C334 C336 1.391 . S
C335 C334 1.386 . S
C335 C339 1.393 . S
C336 H328 0.950 . S
C336 C334 1.391 . S
C336 C337 1.400 . S
C337 C336 1.400 . S
C337 C338 1.398 . S
C337 C343 1.491 . S
C338 H329 0.950 . S
C338 C337 1.398 . S
C338 C339 1.391 . S
C339 H327 0.950 . S
C339 C335 1.393 . S
C339 C338 1.391 . S
C340 H330 0.950 . S
C340 C341 1.386 . S
C340 C342 1.391 . S
C341 C340 1.386 . S
C341 C345 1.393 . S
C342 H331 0.950 . S
C342 C340 1.391 . S
C342 C343 1.400 . S
C343 C337 1.491 . S
C343 C342 1.400 . S
C343 C344 1.398 . S
C344 H332 0.950 . S
C344 C343 1.398 . S
C344 C345 1.391 . S
C345 H333 0.950 . S
C345 C341 1.393 . S
C345 C344 1.391 . S
H346 C354 0.950 . S
H347 C359 0.950 . S
H348 C356 0.950 . S
H349 C358 0.950 . S
H350 C360 0.950 . S
H351 C362 0.950 . S
H352 C364 0.950 . S
H353 C365 0.950 . S
C354 H346 0.950 . S
C354 C355 1.386 . S
C354 C356 1.391 . S
C355 C354 1.386 . S
C355 C359 1.393 . S
C356 H348 0.950 . S
C356 C354 1.391 . S
C356 C357 1.400 . S
C357 C356 1.400 . S
C357 C358 1.398 . S
C357 C363 1.491 . S
C358 H349 0.950 . S
C358 C357 1.398 . S
C358 C359 1.391 . S
C359 H347 0.950 . S
C359 C355 1.393 . S
C359 C358 1.391 . S
C360 H350 0.950 . S
C360 C361 1.386 . S
C360 C362 1.391 . S
C361 C360 1.386 . S
C361 C365 1.393 . S
C362 H351 0.950 . S
C362 C360 1.391 . S
C362 C363 1.400 . S
C363 C357 1.491 . S
C363 C362 1.400 . S
C363 C364 1.398 . S
C364 H352 0.950 . S
C364 C363 1.398 . S
C364 C365 1.391 . S
C365 H353 0.950 . S
C365 C361 1.393 . S
C365 C364 1.391 . S
H366 C374 0.950 . S
H367 C379 0.950 . S
H368 C376 0.950 . S
H369 C378 0.950 . S
H370 C380 0.950 . S
H371 C382 0.950 . S
H372 C384 0.950 . S
H373 C385 0.950 . S
C374 H366 0.950 . S
C374 C375 1.386 . S
C374 C376 1.391 . S
C375 C374 1.386 . S
C375 C379 1.393 . S
C376 H368 0.950 . S
C376 C374 1.391 . S
C376 C377 1.400 . S
C377 C376 1.400 . S
C377 C378 1.398 . S
C377 C383 1.491 . S
C378 H369 0.950 . S
C378 C377 1.398 . S
C378 C379 1.391 . S
C379 H367 0.950 . S
C379 C375 1.393 . S
C379 C378 1.391 . S
C380 H370 0.950 . S
C380 C381 1.386 . S
C380 C382 1.391 . S
C381 C380 1.386 . S
C381 C385 1.393 . S
C382 H371 0.950 . S
C382 C380 1.391 . S
C382 C383 1.400 . S
C383 C377 1.491 . S
C383 C382 1.400 . S
C383 C384 1.398 . S
C384 H372 0.950 . S
C384 C383 1.398 . S
C384 C385 1.391 . S
C385 H373 0.950 . S
C385 C381 1.393 . S
C385 C384 1.391 . S
H386 C394 0.950 . S
H387 C399 0.950 . S
H388 C396 0.950 . S
H389 C398 0.950 . S
H390 C400 0.950 . S
H391 C402 0.950 . S
H392 C404 0.950 . S
H393 C405 0.950 . S
C394 H386 0.950 . S
C394 C395 1.386 . S
C394 C396 1.391 . S
C395 C394 1.386 . S
C395 C399 1.393 . S
C396 H388 0.950 . S
C396 C394 1.391 . S
C396 C397 1.400 . S
C397 C396 1.400 . S
C397 C398 1.398 . S
C397 C403 1.491 . S
C398 H389 0.950 . S
C398 C397 1.398 . S
C398 C399 1.391 . S
C399 H387 0.950 . S
C399 C395 1.393 . S
C399 C398 1.391 . S
C400 H390 0.950 . S
C400 C401 1.386 . S
C400 C402 1.391 . S
C401 C400 1.386 . S
C401 C405 1.393 . S
C402 H391 0.950 . S
C402 C400 1.391 . S
C402 C403 1.400 . S
C403 C397 1.491 . S
C403 C402 1.400 . S
C403 C404 1.398 . S
C404 H392 0.950 . S
C404 C403 1.398 . S
C404 C405 1.391 . S
C405 H393 0.950 . S
C405 C401 1.393 . S
C405 C404 1.391 . S
H406 C414 0.950 . S
H407 C419 0.950 . S
H408 C416 0.950 . S
H409 C418 0.950 . S
H410 C420 0.950 . S
H411 C422 0.950 . S
H412 C424 0.950 . S
H413 C425 0.950 . S
C414 H406 0.950 . S
C414 C415 1.386 . S
C414 C416 1.391 . S
C415 C414 1.386 . S
C415 C419 1.393 . S
C416 H408 0.950 . S
C416 C414 1.391 . S
C416 C417 1.400 . S
C417 C416 1.400 . S
C417 C418 1.398 . S
C417 C423 1.491 . S
C418 H409 0.950 . S
C418 C417 1.398 . S
C418 C419 1.391 . S
C419 H407 0.950 . S
C419 C415 1.393 . S
C419 C418 1.391 . S
C420 H410 0.950 . S
C420 C421 1.386 . S
C420 C422 1.391 . S
C421 C420 1.386 . S
C421 C425 1.393 . S
C422 H411 0.950 . S
C422 C420 1.391 . S
C422 C423 1.400 . S
C423 C417 1.491 . S
C423 C422 1.400 . S
C423 C424 1.398 . S
C424 H412 0.950 . S
C424 C423 1.398 . S
C424 C425 1.391 . S
C425 H413 0.950 . S
C425 C421 1.393 . S
C425 C424 1.391 . S
H426 C434 0.950 . S
H427 C439 0.950 . S
H428 C436 0.950 . S
H429 C438 0.950 . S
H430 C440 0.950 . S
H431 C442 0.950 . S
H432 C444 0.930 1_554 S
H433 C445 0.950 . S
C434 H426 0.950 . S
C434 C435 1.386 . S
C434 C436 1.391 . S
C435 C434 1.386 . S
C435 C439 1.393 1_455 S
C436 H428 0.950 . S
C436 C434 1.391 . S
C436 C437 1.400 . S
C437 C436 1.400 . S
C437 C438 1.398 1_455 S
C437 C443 1.491 . S
C438 H429 0.950 . S
C438 C437 1.398 1_655 S
C438 C439 1.391 . S
C439 H427 0.950 . S
C439 C435 1.393 1_655 S
C439 C438 1.391 . S
C440 H430 0.950 . S
C440 C441 1.386 1_655 S
C440 C442 1.391 . S
C441 C440 1.386 1_455 S
C441 C445 1.393 . S
C442 H431 0.950 . S
C442 C440 1.391 . S
C442 C443 1.400 1_656 S
C443 C437 1.491 . S
C443 C442 1.400 1_454 S
C443 C444 1.383 1_554 S
C444 H432 0.930 1_556 S
C444 C443 1.383 1_556 S
C444 C445 1.427 . S
C445 H433 0.950 . S
C445 C441 1.393 . S
C445 C444 1.427 . S
H446 C454 0.950 . S
H447 C459 0.950 . S
H448 C456 0.950 . S
H449 C458 0.950 . S
H450 C460 0.950 . S
H451 C462 0.950 . S
H452 C464 0.950 . S
H453 C465 0.950 . S
C454 H446 0.950 . S
C454 C455 1.386 1_565 S
C454 C456 1.391 . S
C455 C454 1.386 1_545 S
C455 C459 1.393 . S
C456 H448 0.950 . S
C456 C454 1.391 . S
C456 C457 1.400 1_565 S
C457 C456 1.400 1_545 S
C457 C458 1.398 . S
C457 C463 1.491 . S
C458 H449 0.950 . S
C458 C457 1.398 . S
C458 C459 1.391 . S
C459 H447 0.950 . S
C459 C455 1.393 . S
C459 C458 1.391 . S
C460 H450 0.950 . S
C460 C461 1.386 . S
C460 C462 1.391 . S
C461 C460 1.386 . S
C461 C465 1.393 1_545 S
C462 H451 0.950 . S
C462 C460 1.391 . S
C462 C463 1.400 . S
C463 C457 1.491 . S
C463 C462 1.400 . S
C463 C464 1.398 1_545 S
C464 H452 0.950 . S
C464 C463 1.398 1_565 S
C464 C465 1.391 . S
C465 H453 0.950 . S
C465 C461 1.393 1_565 S
C465 C464 1.391 . S
H466 C474 0.950 . S
H467 C479 0.950 . S
H468 C476 0.950 . S
H469 C478 0.950 . S
H470 C480 0.950 . S
H471 C482 0.950 . S
H472 C484 0.950 . S
H473 C485 0.950 . S
C474 H466 0.950 . S
C474 C475 1.386 . S
C474 C476 1.391 . S
C475 C474 1.386 . S
C475 C479 1.393 . S
C476 H468 0.950 . S
C476 C474 1.391 . S
C476 C477 1.400 . S
C477 C476 1.400 . S
C477 C478 1.398 . S
C477 C483 1.491 . S
C478 H469 0.950 . S
C478 C477 1.398 . S
C478 C479 1.391 . S
C479 H467 0.950 . S
C479 C475 1.393 . S
C479 C478 1.391 . S
C480 H470 0.950 . S
C480 C481 1.386 . S
C480 C482 1.391 . S
C481 C480 1.386 . S
C481 C485 1.393 . S
C482 H471 0.950 . S
C482 C480 1.391 . S
C482 C483 1.400 . S
C483 C477 1.491 . S
C483 C482 1.400 . S
C483 C484 1.398 . S
C484 H472 0.950 . S
C484 C483 1.398 . S
C484 C485 1.391 . S
C485 H473 0.950 . S
C485 C481 1.393 . S
C485 C484 1.391 . S
H486 C494 0.950 . S
H487 C499 0.950 . S
H488 C496 0.950 . S
H489 C498 0.950 . S
H490 C500 0.950 . S
H491 C502 0.950 . S
H492 C504 0.950 . S
H493 C505 0.950 . S
C494 H486 0.950 . S
C494 C495 1.386 . S
C494 C496 1.391 . S
C495 C494 1.386 . S
C495 C499 1.393 1_545 S
C496 H488 0.950 . S
C496 C494 1.391 . S
C496 C497 1.400 . S
C497 C496 1.400 . S
C497 C498 1.398 1_545 S
C497 C503 1.491 . S
C498 H489 0.950 . S
C498 C497 1.398 1_565 S
C498 C499 1.391 . S
C499 H487 0.950 . S
C499 C495 1.393 1_565 S
C499 C498 1.391 . S
C500 H490 0.950 . S
C500 C501 1.386 1_565 S
C500 C502 1.391 . S
C501 C500 1.386 1_545 S
C501 C505 1.393 . S
C502 H491 0.950 . S
C502 C500 1.391 . S
C502 C503 1.400 1_565 S
C503 C497 1.491 . S
C503 C502 1.400 1_545 S
C503 C504 1.398 . S
C504 H492 0.950 . S
C504 C503 1.398 . S
C504 C505 1.391 . S
C505 H493 0.950 . S
C505 C501 1.393 . S
C505 C504 1.391 . S
H506 C514 0.950 . S
H507 C519 0.950 . S
H508 C516 0.950 . S
H509 C518 0.950 . S
H510 C520 0.950 . S
H511 C522 0.950 . S
H512 C524 0.950 1_556 S
H513 C525 0.950 . S
C514 H506 0.950 . S
C514 C515 1.386 . S
C514 C516 1.391 . S
C515 C514 1.386 . S
C515 C519 1.393 . S
C516 H508 0.950 . S
C516 C514 1.391 . S
C516 C517 1.400 . S
C517 C516 1.400 . S
C517 C518 1.398 . S
C517 C523 1.491 . S
C518 H509 0.950 . S
C518 C517 1.398 . S
C518 C519 1.391 . S
C519 H507 0.950 . S
C519 C515 1.393 . S
C519 C518 1.391 . S
C520 H510 0.950 . S
C520 C521 1.386 . S
C520 C522 1.391 . S
C521 C520 1.386 . S
C521 C525 1.393 . S
C522 H511 0.950 . S
C522 C520 1.391 . S
C522 C523 1.400 1_554 S
C523 C517 1.491 . S
C523 C522 1.400 1_556 S
C523 C524 1.398 1_556 S
C524 H512 0.950 1_554 S
C524 C523 1.398 1_554 S
C524 C525 1.391 . S
C525 H513 0.950 . S
C525 C521 1.393 . S
C525 C524 1.391 . S
H526 C534 0.950 . S
H527 C539 0.950 . S
H528 C536 0.950 . S
H529 C538 0.950 . S
H530 C540 0.950 . S
H531 C542 0.950 . S
H532 C544 0.950 . S
H533 C545 0.950 . S
C534 H526 0.950 . S
C534 C535 1.384 1_455 S
C534 C536 1.391 . S
C535 C534 1.384 1_655 S
C535 C539 1.394 . S
C536 H528 0.950 . S
C536 C534 1.391 . S
C536 C537 1.381 1_455 S
C537 C536 1.381 1_655 S
C537 C538 1.417 . S
C537 C543 1.491 . S
C538 H529 0.950 . S
C538 C537 1.417 . S
C538 C539 1.391 . S
C539 H527 0.950 . S
C539 C535 1.394 . S
C539 C538 1.391 . S
C540 H530 0.950 . S
C540 C541 1.386 . S
C540 C542 1.391 . S
C541 C540 1.386 . S
C541 C545 1.393 1_655 S
C542 H531 0.950 . S
C542 C540 1.391 . S
C542 C543 1.400 . S
C543 C537 1.491 . S
C543 C542 1.400 . S
C543 C544 1.398 1_655 S
C544 H532 0.950 . S
C544 C543 1.398 1_455 S
C544 C545 1.391 . S
C545 H533 0.950 . S
C545 C541 1.393 1_455 S
C545 C544 1.391 . S
C195 C12 3.134 . S
C201 C180 2.801 . S
C215 C52 3.140 . S
C221 C158 2.795 . S
C235 C111 2.872 . S
C241 C172 2.801 . S
C255 C31 2.985 . S
C261 C183 2.902 . S
C281 C161 2.900 . S
C275 C71 2.984 . S
C301 C169 2.890 . S
C295 C92 3.231 . S
C315 C48 0.529 . S
C321 C136 0.685 . S
C335 C109 0.584 . S
C341 C147 0.741 . S
C355 C29 0.552 . S
C361 C125 0.681 . S
C381 C139 0.287 . S
C375 C69 0.338 . S
C401 C150 0.309 . S
C395 C88 0.167 . S
C415 C8 0.173 . S
C421 C128 0.287 . S
C441 C149 1.188 . S
C435 C17 1.191 1_455 S
C455 C57 1.217 . S
C461 C127 1.158 . S
C475 C97 1.231 . S
C481 C138 1.161 . S
C501 C171 1.655 . S
C495 C42 1.665 . S
C521 C182 1.670 . S
C515 C82 1.710 . S
C535 C2 1.710 1_655 S
C541 C160 1.681 1_655 S
