# Generated by pormake.
# Topology pyr, (3,6)-cn, num edge types: 1
# Building blocks:
#     Node 0, Type 0, BuildingBlock: OLANEW_clean_sbu_2, # of connection points: 3
#     Node 1, Type 0, BuildingBlock: OLANEW_clean_sbu_2, # of connection points: 3
#     Node 2, Type 0, BuildingBlock: OLANEW_clean_sbu_2, # of connection points: 3
#     Node 3, Type 0, BuildingBlock: OLANEW_clean_sbu_2, # of connection points: 3
#     Node 4, Type 0, BuildingBlock: OLANEW_clean_sbu_2, # of connection points: 3
#     Node 5, Type 0, BuildingBlock: OLANEW_clean_sbu_2, # of connection points: 3
#     Node 6, Type 0, BuildingBlock: OLANEW_clean_sbu_2, # of connection points: 3
#     Node 7, Type 0, BuildingBlock: OLANEW_clean_sbu_2, # of connection points: 3
#     Node 8, Type 1, BuildingBlock: JUFBIX_clean_sbu_0, # of connection points: 6
#     Node 9, Type 1, BuildingBlock: JUFBIX_clean_sbu_0, # of connection points: 6
#     Node 10, Type 1, BuildingBlock: JUFBIX_clean_sbu_0, # of connection points: 6
#     Node 11, Type 1, BuildingBlock: JUFBIX_clean_sbu_0, # of connection points: 6
#     Edge 12, Type (0, 1), BuildingBlock: XUDNAN_clean_linker_2, # of connection points: 2
#     Edge 13, Type (0, 1), BuildingBlock: XUDNAN_clean_linker_2, # of connection points: 2
#     Edge 14, Type (0, 1), BuildingBlock: XUDNAN_clean_linker_2, # of connection points: 2
#     Edge 15, Type (0, 1), BuildingBlock: XUDNAN_clean_linker_2, # of connection points: 2
#     Edge 16, Type (0, 1), BuildingBlock: XUDNAN_clean_linker_2, # of connection points: 2
#     Edge 17, Type (0, 1), BuildingBlock: XUDNAN_clean_linker_2, # of connection points: 2
#     Edge 18, Type (0, 1), BuildingBlock: XUDNAN_clean_linker_2, # of connection points: 2
#     Edge 19, Type (0, 1), BuildingBlock: XUDNAN_clean_linker_2, # of connection points: 2
#     Edge 20, Type (0, 1), BuildingBlock: XUDNAN_clean_linker_2, # of connection points: 2
#     Edge 21, Type (0, 1), BuildingBlock: XUDNAN_clean_linker_2, # of connection points: 2
#     Edge 22, Type (0, 1), BuildingBlock: XUDNAN_clean_linker_2, # of connection points: 2
#     Edge 23, Type (0, 1), BuildingBlock: XUDNAN_clean_linker_2, # of connection points: 2
#     Edge 24, Type (0, 1), BuildingBlock: XUDNAN_clean_linker_2, # of connection points: 2
#     Edge 25, Type (0, 1), BuildingBlock: XUDNAN_clean_linker_2, # of connection points: 2
#     Edge 26, Type (0, 1), BuildingBlock: XUDNAN_clean_linker_2, # of connection points: 2
#     Edge 27, Type (0, 1), BuildingBlock: XUDNAN_clean_linker_2, # of connection points: 2
#     Edge 28, Type (0, 1), BuildingBlock: XUDNAN_clean_linker_2, # of connection points: 2
#     Edge 29, Type (0, 1), BuildingBlock: XUDNAN_clean_linker_2, # of connection points: 2
#     Edge 30, Type (0, 1), BuildingBlock: XUDNAN_clean_linker_2, # of connection points: 2
#     Edge 31, Type (0, 1), BuildingBlock: XUDNAN_clean_linker_2, # of connection points: 2
#     Edge 32, Type (0, 1), BuildingBlock: XUDNAN_clean_linker_2, # of connection points: 2
#     Edge 33, Type (0, 1), BuildingBlock: XUDNAN_clean_linker_2, # of connection points: 2
#     Edge 34, Type (0, 1), BuildingBlock: XUDNAN_clean_linker_2, # of connection points: 2
#     Edge 35, Type (0, 1), BuildingBlock: XUDNAN_clean_linker_2, # of connection points: 2
# Relax obj value: 0.121
# Max RMSD: 0.172
# Mean RMSD: 0.119
data_MOF--net-pyr--node1-OLANEW_clean_sbu_2--node2-JUFBIX_clean_sbu_0--edge1-XUDNAN_clean_linker_2
_symmetry_space_group_name_H-M    P1
_symmetry_Int_Tables_number       1
_symmetry_cell_setting            triclinic
loop_
_symmetry_equiv_pos_as_xyz
'x, y, z'
_cell_length_a     40.412741
_cell_length_b     37.987064
_cell_length_c     39.398041
_cell_angle_alpha  90.245264
_cell_angle_beta   89.783319
_cell_angle_gamma 96.703632
loop_
_atom_site_label
_atom_site_type_symbol
_atom_site_fract_x
_atom_site_fract_y
_atom_site_fract_z
_atom_type_partial_charge
O0 O 0.22037 0.17278 0.15504 0.0
Cd1 Cd 0.16285 0.19174 0.15937 0.0
O2 O 0.22416 0.14587 0.20496 0.0
Cd3 Cd 0.17998 0.14474 0.23925 0.0
O4 O 0.15969 0.13074 0.29111 0.0
C5 C 0.13047 0.11656 0.299 0.0
O6 O 0.10821 0.10977 0.27492 0.0
C7 C 0.23656 0.15578 0.17612 0.0
C8 C 0.14579 0.25904 0.13782 0.0
O9 O 0.15762 0.25418 0.16739 0.0
O10 O 0.14349 0.23264 0.11722 0.0
O11 O 0.48898 0.92418 0.70238 0.0
Cd12 Cd 0.48753 0.90416 0.64325 0.0
O13 O 0.43686 0.90193 0.70791 0.0
Cd14 Cd 0.38633 0.89498 0.72897 0.0
O15 O 0.33263 0.89698 0.72622 0.0
C16 C 0.32444 0.91744 0.70308 0.0
O17 O 0.34815 0.93477 0.68469 0.0
C18 C 0.4627 0.91953 0.72042 0.0
C19 C 0.4924 0.83236 0.63306 0.0
O20 O 0.51843 0.85515 0.63233 0.0
O21 O 0.46426 0.8435 0.63937 0.0
O22 O 0.72458 0.47031 0.9161 0.0
Cd23 Cd 0.67094 0.48348 0.89293 0.0
O24 O 0.69791 0.42288 0.93898 0.0
Cd25 Cd 0.68954 0.3725 0.96609 0.0
O26 O 0.66981 0.31783 0.97813 0.0
C27 C 0.63871 0.3078 0.976 0.0
O28 O 0.61851 0.33095 0.96745 0.0
C29 C 0.72489 0.44334 0.93506 0.0
C30 C 0.66755 0.49692 0.82337 0.0
O31 O 0.6807 0.52061 0.84407 0.0
O32 O 0.65679 0.46635 0.83529 0.0
O33 O 0.09582 0.71941 0.46004 0.0
Cd34 Cd 0.11723 0.66454 0.44227 0.0
O35 O 0.04919 0.6856 0.4696 0.0
Cd36 Cd 0.99812 0.67396 0.48802 0.0
O37 O 0.94665 0.65931 0.50363 0.0
C38 C 0.92319 0.66895 0.48583 0.0
O39 O 0.9306 0.68806 0.45853 0.0
C40 C 0.0656 0.71627 0.46964 0.0
C41 C 0.09877 0.64406 0.37615 0.0
O42 O 0.07976 0.63443 0.40137 0.0
O43 O 0.12623 0.66349 0.38223 0.0
O44 O 0.86323 0.86301 0.84495 0.0
Cd45 Cd 0.84105 0.82314 0.89177 0.0
O46 O 0.82518 0.90094 0.84685 0.0
Cd47 Cd 0.7889 0.89029 0.8896 0.0
O48 O 0.74074 0.89595 0.91658 0.0
C49 C 0.7369 0.91815 0.94034 0.0
O50 O 0.76306 0.93869 0.95142 0.0
C51 C 0.85096 0.88999 0.83321 0.0
C52 C 0.88087 0.77498 0.92181 0.0
O53 O 0.86441 0.76656 0.89464 0.0
O54 O 0.87971 0.80631 0.9337 0.0
O55 O 0.56956 0.07103 0.45102 0.0
Cd56 Cd 0.58908 0.07482 0.5096 0.0
O57 O 0.59612 0.12301 0.43888 0.0
Cd58 Cd 0.61066 0.1723 0.41111 0.0
O59 O 0.6205 0.23027 0.41231 0.0
C60 C 0.60282 0.24469 0.43387 0.0
O61 O 0.58066 0.22426 0.45155 0.0
C62 C 0.57729 0.09552 0.42955 0.0
C63 C 0.65769 0.07368 0.51389 0.0
O64 O 0.63784 0.04487 0.5119 0.0
O65 O 0.64509 0.10313 0.51379 0.0
O66 O 0.40348 0.71659 0.20909 0.0
Cd67 Cd 0.38947 0.65325 0.22156 0.0
O68 O 0.36976 0.71009 0.16572 0.0
Cd69 Cd 0.3369 0.72295 0.12472 0.0
O70 O 0.28753 0.71252 0.10166 0.0
C71 C 0.27957 0.6848 0.08388 0.0
O72 O 0.30232 0.66369 0.07715 0.0
C73 C 0.38987 0.73019 0.18402 0.0
C74 C 0.42841 0.62727 0.27222 0.0
O75 O 0.43777 0.62859 0.24108 0.0
O76 O 0.40064 0.63866 0.27969 0.0
O77 O 0.14163 0.48843 0.67655 0.0
Cd78 Cd 0.1519 0.49366 0.61552 0.0
O79 O 0.12682 0.43148 0.67055 0.0
Cd80 Cd 0.10437 0.37795 0.68367 0.0
O81 O 0.07992 0.3239 0.67652 0.0
C82 C 0.05136 0.31961 0.66265 0.0
O83 O 0.03703 0.34773 0.65458 0.0
C84 C 0.13127 0.45865 0.6897 0.0
C85 C 0.21607 0.48 0.59841 0.0
O86 O 0.20988 0.51156 0.6054 0.0
O87 O 0.19187 0.455 0.59946 0.0
Co88 Co 0.97955 0.00906 0.55856 0.0
C89 C 1.00654 0.94463 0.55389 0.0
Co90 Co 0.0257 0.007 0.58777 0.0
C91 C 0.91348 0.02576 0.54427 0.0
C92 C 0.93027 0.99097 0.50671 0.0
N93 N 0.93964 0.00853 0.53559 0.0
N94 N 0.88817 0.01964 0.52202 0.0
C95 C 0.89851 0.99761 0.49841 0.0
H96 H 0.91282 0.04218 0.56673 0.0
H97 H 0.94559 0.97455 0.49251 0.0
C98 C 0.99886 0.07159 0.59221 0.0
N99 N 0.06619 0.0089 0.61028 0.0
C100 C 0.08241 0.98301 0.62364 0.0
C101 C 0.08793 0.03859 0.6128 0.0
N102 N 0.11345 0.99558 0.63394 0.0
C103 C 0.11679 0.03055 0.62735 0.0
C104 C 0.035 0.03119 0.51993 0.0
O105 O 0.97744 0.05709 0.5715 0.0
O106 O 0.02138 0.05388 0.60295 0.0
O107 O 0.0493 0.02567 0.54785 0.0
O108 O 1.00345 0.02482 0.51833 0.0
O109 O 0.02958 0.96018 0.57232 0.0
H110 H 0.08373 0.06434 0.60325 0.0
H111 H 0.07243 0.9553 0.6241 0.0
O112 O 0.98208 0.96105 0.54578 0.0
O113 O 0.95589 0.99353 0.59892 0.0
O114 O 1.00158 0.98832 0.62753 0.0
C115 C 0.96984 0.98548 0.62632 0.0
H116 H 0.88438 0.9876 0.47641 0.0
H117 H 0.13893 0.04887 0.63187 0.0
Co118 Co 0.47189 0.0202 0.04906 0.0
C119 C 0.46117 0.97026 0.10064 0.0
Co120 Co 0.50358 0.03273 0.09401 0.0
C121 C 0.4596 0.01048 0.97824 0.0
C122 C 0.4154 0.99445 0.00692 0.0
N123 N 0.44739 0.00874 0.01016 0.0
N124 N 0.43675 0.99764 0.95512 0.0
C125 C 0.40881 0.98743 0.97304 0.0
H126 H 0.48533 0.01964 0.97227 0.0
H127 H 0.39828 0.98869 0.02788 0.0
C128 C 0.51583 0.08217 0.04339 0.0
N129 N 0.52877 0.04428 0.1325 0.0
C130 C 0.5179 0.04613 0.16481 0.0
C131 C 0.56189 0.054 0.13411 0.0
N132 N 0.54287 0.05673 0.18662 0.0
C133 C 0.57063 0.06163 0.16729 0.0
C134 C 0.53388 0.99265 0.04667 0.0
O135 O 0.49281 0.06299 0.0277 0.0
O136 O 0.5237 0.07376 0.07307 0.0
O137 O 0.53835 0.00725 0.07569 0.0
O138 O 0.50651 0.99475 0.03143 0.0
O139 O 0.48361 0.99122 0.11511 0.0
H140 H 0.57857 0.05568 0.11249 0.0
H141 H 0.49196 0.04042 0.17198 0.0
O142 O 0.45183 0.97744 0.07086 0.0
O143 O 0.43715 0.04572 0.06692 0.0
O144 O 0.46856 0.05825 0.11158 0.0
C145 C 0.44132 0.06049 0.0959 0.0
H146 H 0.38545 0.97549 0.96249 0.0
H147 H 0.59558 0.0698 0.17641 0.0
Co148 Co 0.59057 0.55992 0.52412 0.0
C149 C 0.54058 0.55269 0.47581 0.0
Co150 Co 0.54464 0.52815 0.54178 0.0
C151 C 0.66011 0.58439 0.51628 0.0
C152 C 0.62932 0.61915 0.49243 0.0
N153 N 0.62806 0.58857 0.50987 0.0
N154 N 0.68141 0.61124 0.50374 0.0
C155 C 0.66209 0.63313 0.48855 0.0
H156 H 0.66757 0.56206 0.53008 0.0
H157 H 0.60775 0.6309 0.48374 0.0
C158 C 0.59565 0.5361 0.58984 0.0
N159 N 0.50751 0.49898 0.55628 0.0
C160 C 0.47488 0.50287 0.55309 0.0
C161 C 0.50805 0.46734 0.57155 0.0
N162 N 0.45512 0.47467 0.56549 0.0
C163 C 0.47594 0.45232 0.57715 0.0
C164 C 0.59032 0.48916 0.50942 0.0
O165 O 0.61077 0.55433 0.56642 0.0
O166 O 0.56615 0.5215 0.58453 0.0
O167 O 0.56207 0.48829 0.52368 0.0
O168 O 0.60849 0.51872 0.50675 0.0
O169 O 0.52358 0.53537 0.49884 0.0
H170 H 0.53044 0.45574 0.57787 0.0
H171 H 0.46583 0.52552 0.54119 0.0
O172 O 0.5704 0.5654 0.4819 0.0
O173 O 0.57212 0.60079 0.54158 0.0
O174 O 0.52727 0.56803 0.5597 0.0
C175 C 0.54394 0.59829 0.55653 0.0
H176 H 0.67089 0.65799 0.47642 0.0
H177 H 0.4685 0.42701 0.5891 0.0
Co178 Co 0.01247 0.50978 0.01096 0.0
C179 C 0.9483 0.47877 0.03108 0.0
Co180 Co 0.99734 0.52124 0.0634 0.0
C181 C 0.04607 0.48996 0.94846 0.0
C182 C 0.99732 0.50554 0.94109 0.0
N183 N 0.01974 0.50053 0.96542 0.0
N184 N 0.0408 0.48886 0.91459 0.0
C185 C 0.01025 0.49863 0.90995 0.0
H186 H 0.06888 0.48427 0.96049 0.0
H187 H 0.97316 0.51427 0.94565 0.0
C188 C 0.06022 0.55454 0.04204 0.0
N189 N 0.98962 0.53156 0.10866 0.0
C190 C 0.01352 0.53831 0.13239 0.0
C191 C 0.96134 0.53879 0.1241 0.0
N192 N 1.00168 0.55042 0.16171 0.0
C193 C 0.96868 0.55035 0.15681 0.0
C194 C 0.03306 0.46176 0.05696 0.0
O195 O 0.05493 0.53741 0.01444 0.0
O196 O 0.03853 0.55081 0.06551 0.0
O197 O 0.0188 0.4817 0.07696 0.0
O198 O 0.03249 0.46775 0.02508 0.0
O199 O 0.95549 0.49214 0.06018 0.0
H200 H 0.93733 0.53761 0.11182 0.0
H201 H 0.03953 0.53567 0.12776 0.0
O202 O 0.96989 0.48286 0.00749 0.0
O203 O 0.99274 0.55229 0.99792 0.0
O204 O 0.97663 0.56105 0.05006 0.0
C205 C 0.97826 0.57068 0.01923 0.0
H206 H 0.99824 0.50076 0.88563 0.0
H207 H 0.95148 0.56005 0.17474 0.0
H208 H 0.06941 0.08922 0.32562 0.0
H209 H 0.17236 0.12068 0.35395 0.0
H210 H 0.15913 0.10235 0.41298 0.0
H211 H 0.03259 0.11863 0.4033 0.0
H212 H 0.99986 0.0821 0.40436 0.0
H213 H 0.01732 0.0978 0.3643 0.0
H214 H 0.03113 0.03456 0.34977 0.0
H215 H 0.01379 0.01871 0.38982 0.0
H216 H 0.05597 0.01219 0.37877 0.0
H217 H 0.13504 0.07916 0.46895 0.0
H218 H 0.10161 0.05502 0.5179 0.0
H219 H 0.0138 0.03954 0.45398 0.0
C220 C 0.0892 0.09237 0.34421 0.0
C221 C 0.12203 0.10645 0.33491 0.0
C222 C 0.14705 0.11008 0.36024 0.0
C223 C 0.13977 0.09966 0.39392 0.0
C224 C 0.10727 0.08575 0.40214 0.0
C225 C 0.08232 0.08226 0.37807 0.0
C226 C 0.0494 0.06664 0.39367 0.0
C227 C 0.02325 0.09286 0.39126 0.0
C228 C 0.03684 0.0309 0.37701 0.0
C229 C 0.05975 0.06176 0.43023 0.0
C230 C 0.09328 0.07285 0.43451 0.0
C231 C 0.10874 0.07053 0.46587 0.0
C232 C 0.0895 0.05668 0.49357 0.0
C233 C 0.05497 0.04537 0.48999 0.0
C234 C 0.04005 0.04804 0.45773 0.0
H235 H 0.42376 0.89881 0.7763 0.0
H236 H 0.50098 0.97937 0.74079 0.0
H237 H 0.5006 0.00959 0.79627 0.0
H238 H 0.37762 0.95803 0.82639 0.0
H239 H 0.36783 0.92613 0.85974 0.0
H240 H 0.37335 0.91128 0.81679 0.0
H241 H 0.41865 0.87326 0.83712 0.0
H242 H 0.41327 0.88799 0.88007 0.0
H243 H 0.45394 0.89407 0.86055 0.0
H244 H 0.49284 0.03053 0.85542 0.0
H245 H 0.47956 0.03975 0.91571 0.0
H246 H 0.4071 0.94602 0.91329 0.0
C247 C 0.44001 0.92323 0.7799 0.0
C248 C 0.46197 0.93708 0.75397 0.0
C249 C 0.48389 0.96831 0.76026 0.0
C250 C 0.48375 0.98578 0.79162 0.0
C251 C 0.4616 0.97166 0.81652 0.0
C252 C 0.4402 0.94104 0.81115 0.0
C253 C 0.41979 0.93083 0.84272 0.0
C254 C 0.38243 0.93163 0.836 0.0
C255 C 0.42685 0.89438 0.85589 0.0
C256 C 0.43328 0.96036 0.8667 0.0
C257 C 0.45727 0.98367 0.85095 0.0
C258 C 0.47406 0.0125 0.86804 0.0
C259 C 0.46647 0.01742 0.90232 0.0
C260 C 0.44235 0.9936 0.91924 0.0
C261 C 0.42528 0.96496 0.90095 0.0
H262 H 0.62096 0.46588 0.77856 0.0
H263 H 0.70508 0.54759 0.78662 0.0
H264 H 0.69717 0.56425 0.72691 0.0
H265 H 0.63387 0.44078 0.69004 0.0
H266 H 0.58998 0.43509 0.68048 0.0
H267 H 0.60392 0.42742 0.72292 0.0
H268 H 0.56627 0.47271 0.74634 0.0
H269 H 0.55233 0.48061 0.70399 0.0
H270 H 0.57066 0.51714 0.72965 0.0
H271 H 0.67971 0.57294 0.66724 0.0
H272 H 0.65213 0.57553 0.61189 0.0
H273 H 0.57692 0.49049 0.64284 0.0
C274 C 0.63804 0.48686 0.76752 0.0
C275 C 0.66389 0.50523 0.78704 0.0
C276 C 0.68523 0.53311 0.77204 0.0
C277 C 0.68097 0.5427 0.73816 0.0
C278 C 0.65502 0.5244 0.71973 0.0
C279 C 0.63375 0.49721 0.73385 0.0
C280 C 0.60655 0.48346 0.70906 0.0
C281 C 0.60872 0.44437 0.7001 0.0
C282 C 0.57191 0.48881 0.72311 0.0
C283 C 0.61575 0.50733 0.6789 0.0
C284 C 0.64405 0.53041 0.68554 0.0
C285 C 0.65754 0.55501 0.66173 0.0
C286 C 0.64165 0.55623 0.63032 0.0
C287 C 0.61227 0.53328 0.62301 0.0
C288 C 0.59924 0.50846 0.64771 0.0
H289 H 0.03982 0.60769 0.35389 0.0
H290 H 0.13705 0.65476 0.319 0.0
H291 H 0.12261 0.63528 0.2606 0.0
H292 H 0.03355 0.53111 0.29912 0.0
H293 H 0.9896 0.53103 0.29145 0.0
H294 H 0.00743 0.54853 0.33074 0.0
H295 H 0.98399 0.60808 0.31973 0.0
H296 H 0.96605 0.59074 0.28043 0.0
H297 H 0.99404 0.63133 0.28055 0.0
H298 H 0.09827 0.61049 0.20637 0.0
H299 H 0.06478 0.58355 0.15895 0.0
H300 H 0.98281 0.55259 0.22816 0.0
C301 C 0.05807 0.6139 0.33396 0.0
C302 C 0.08962 0.63273 0.34106 0.0
C303 C 0.11274 0.64043 0.31423 0.0
C304 C 0.10479 0.62943 0.28096 0.0
C305 C 0.07358 0.61087 0.27486 0.0
C306 C 0.05049 0.60327 0.30051 0.0
C307 C 0.01857 0.58324 0.28688 0.0
C308 C 0.01191 0.54629 0.30301 0.0
C309 C 0.98891 0.60464 0.29221 0.0
C310 C 0.02741 0.58075 0.24958 0.0
C311 C 0.05933 0.59675 0.24332 0.0
C312 C 0.07328 0.59777 0.21095 0.0
C313 C 0.05411 0.5821 0.1842 0.0
C314 C 0.02123 0.5656 0.18984 0.0
C315 C 0.00777 0.56509 0.22305 0.0
H316 H 0.26206 0.13407 0.11462 0.0
H317 H 0.28828 0.15643 0.21981 0.0
H318 H 0.34387 0.1377 0.20961 0.0
H319 H 0.30157 0.05494 0.10916 0.0
H320 H 0.3159 0.06163 0.06603 0.0
H321 H 0.27913 0.08005 0.08023 0.0
H322 H 0.30515 0.14253 0.06166 0.0
H323 H 0.34198 0.12425 0.04729 0.0
H324 H 0.34549 0.16009 0.07768 0.0
H325 H 0.3959 0.11479 0.1892 0.0
H326 H 0.4404 0.08682 0.1605 0.0
H327 H 0.38104 0.07559 0.06859 0.0
C328 C 0.27981 0.13569 0.13525 0.0
C329 C 0.27087 0.14722 0.168 0.0
C330 C 0.29452 0.14793 0.19454 0.0
C331 C 0.32624 0.13737 0.18897 0.0
C332 C 0.33413 0.12561 0.15671 0.0
C333 C 0.31164 0.1245 0.13025 0.0
C334 C 0.32598 0.10843 0.0987 0.0
C335 C 0.30435 0.07423 0.0879 0.0
C336 C 0.32988 0.13544 0.06961 0.0
C337 C 0.35981 0.10055 0.11169 0.0
C338 C 0.36401 0.1111 0.14515 0.0
C339 C 0.39292 0.1065 0.16297 0.0
C340 C 0.41816 0.09054 0.14635 0.0
C341 C 0.41449 0.07889 0.11217 0.0
C342 C 0.38479 0.08418 0.09467 0.0
H343 H 0.30102 0.96386 0.65934 0.0
H344 H 0.26811 0.88138 0.7319 0.0
H345 H 0.20935 0.88979 0.71996 0.0
H346 H 0.24117 0.02109 0.68063 0.0
H347 H 0.23632 0.03556 0.6376 0.0
H348 H 0.2752 0.02141 0.65086 0.0
H349 H 0.27152 0.97511 0.60202 0.0
H350 H 0.23254 0.98908 0.58866 0.0
H351 H 0.23502 0.94316 0.59846 0.0
H352 H 0.15353 0.90869 0.69983 0.0
H353 H 0.10722 0.93872 0.67622 0.0
H354 H 0.17863 0.00833 0.61824 0.0
C355 C 0.28154 0.94733 0.67265 0.0
C356 C 0.28915 0.92189 0.69647 0.0
C357 C 0.26283 0.90106 0.7135 0.0
C358 C 0.22941 0.90557 0.7068 0.0
C359 C 0.22284 0.93099 0.68307 0.0
C360 C 0.24831 0.95157 0.66641 0.0
C361 C 0.23513 0.97802 0.64304 0.0
C362 C 0.2477 0.01627 0.65369 0.0
C363 C 0.24408 0.97089 0.60584 0.0
C364 C 0.19822 0.96954 0.64936 0.0
C365 C 0.19136 0.94212 0.67219 0.0
C366 C 0.1587 0.93017 0.68192 0.0
C367 C 0.13259 0.94718 0.66835 0.0
C368 C 0.13949 0.976 0.64577 0.0
C369 C 0.17269 0.98674 0.63589 0.0
H370 H 0.78893 0.46004 0.91324 0.0
H371 H 0.73061 0.41563 0.99862 0.0
H372 H 0.78225 0.41478 0.03208 0.0
H373 H 0.86154 0.4102 0.92716 0.0
H374 H 0.89067 0.44721 0.91395 0.0
H375 H 0.8494 0.44092 0.8961 0.0
H376 H 0.84014 0.50458 0.91478 0.0
H377 H 0.88121 0.51095 0.93284 0.0
H378 H 0.84551 0.51718 0.95877 0.0
H379 H 0.84015 0.42781 0.0588 0.0
H380 H 0.89913 0.44737 0.0738 0.0
H381 H 0.91906 0.47844 0.96928 0.0
C382 C 0.78712 0.44933 0.9387 0.0
C383 C 0.75582 0.43752 0.95322 0.0
C384 C 0.75439 0.42407 0.98674 0.0
C385 C 0.7836 0.42376 1.00602 0.0
C386 C 0.81408 0.43636 0.99117 0.0
C387 C 0.81602 0.4482 0.95798 0.0
C388 C 0.8515 0.46148 0.94816 0.0
C389 C 0.86401 0.43857 0.91966 0.0
C390 C 0.85476 0.50087 0.93806 0.0
C391 C 0.86915 0.45629 0.98125 0.0
C392 C 0.84728 0.44196 1.00593 0.0
C393 C 0.85763 0.43815 0.03941 0.0
C394 C 0.8911 0.44936 0.04776 0.0
C395 C 0.91385 0.46363 0.02259 0.0
C396 C 0.90259 0.4666 0.98891 0.0
H397 H 0.86714 0.68282 0.4517 0.0
H398 H 0.89974 0.62965 0.54084 0.0
H399 H 0.84113 0.60964 0.55546 0.0
H400 H 0.79364 0.71253 0.48977 0.0
H401 H 0.76908 0.70526 0.45175 0.0
H402 H 0.81359 0.71607 0.44872 0.0
H403 H 0.81755 0.65924 0.41299 0.0
H404 H 0.77308 0.64824 0.41595 0.0
H405 H 0.80038 0.61685 0.42967 0.0
H406 H 0.77912 0.59449 0.55978 0.0
H407 H 0.71799 0.58592 0.55394 0.0
H408 H 0.72604 0.64824 0.46154 0.0
C409 C 0.862 0.66712 0.4744 0.0
C410 C 0.88805 0.65782 0.49513 0.0
C411 C 0.88021 0.63713 0.52456 0.0
C412 C 0.847 0.62563 0.53309 0.0
C413 C 0.82196 0.63508 0.51196 0.0
C414 C 0.82903 0.65541 0.48328 0.0
C415 C 0.79752 0.66152 0.46463 0.0
C416 C 0.79321 0.7012 0.46368 0.0
C417 C 0.79712 0.6455 0.42869 0.0
C418 C 0.77163 0.64129 0.48724 0.0
C419 C 0.78623 0.62626 0.51441 0.0
C420 C 0.7674 0.60608 0.53858 0.0
C421 C 0.73268 0.60114 0.53488 0.0
C422 C 0.71714 0.61628 0.50719 0.0
C423 C 0.73706 0.63664 0.48317 0.0
H424 H 0.11633 0.27869 0.07773 0.0
H425 H 0.14633 0.31756 0.17814 0.0
H426 H 0.12234 0.37289 0.1669 0.0
H427 H 0.13257 0.36541 0.03481 0.0
H428 H 0.09704 0.35723 0.00716 0.0
H429 H 0.11775 0.32072 0.02206 0.0
H430 H 0.06185 0.29066 0.0461 0.0
H431 H 0.04101 0.32713 0.03143 0.0
H432 H 0.03851 0.31468 0.07555 0.0
H433 H 0.09221 0.42196 0.14747 0.0
H434 H 0.06035 0.46459 0.11947 0.0
H435 H 0.05036 0.39774 0.02951 0.0
C436 C 0.11822 0.29905 0.09717 0.0
C437 C 0.13341 0.29351 0.12894 0.0
C438 C 0.13504 0.32088 0.15365 0.0
C439 C 0.12139 0.35254 0.14752 0.0
C440 C 0.10625 0.35693 0.11635 0.0
C441 C 0.10481 0.33124 0.09134 0.0
C442 C 0.08657 0.34307 0.06024 0.0
C443 C 0.10988 0.34683 0.02923 0.0
C444 C 0.05512 0.31735 0.05291 0.0
C445 C 0.07763 0.3791 0.07201 0.0
C446 C 0.08927 0.38623 0.10457 0.0
C447 C 0.08323 0.41682 0.12188 0.0
C448 C 0.06487 0.44087 0.10568 0.0
C449 C 0.0527 0.43476 0.07217 0.0
C450 C 0.0595 0.40342 0.05498 0.0
H451 H 0.5731 0.27892 0.98056 0.0
H452 H 0.67449 0.25206 0.98655 0.0
H453 H 0.65292 0.18992 0.9983 0.0
H454 H 0.54108 0.22492 0.04853 0.0
H455 H 0.50105 0.21191 0.0294 0.0
H456 H 0.52423 0.25371 0.0185 0.0
H457 H 0.52127 0.23604 0.95489 0.0
H458 H 0.49821 0.19404 0.96565 0.0
H459 H 0.53624 0.19532 0.9414 0.0
H460 H 0.62138 0.13241 0.01342 0.0
H461 H 0.58134 0.08274 0.03335 0.0
H462 H 0.49974 0.1453 0.01726 0.0
C463 C 0.59077 0.25988 0.98396 0.0
C464 C 0.62554 0.27038 0.98252 0.0
C465 C 0.64779 0.24472 0.98752 0.0
C466 C 0.63578 0.20929 0.99403 0.0
C467 C 0.60144 0.19987 0.99538 0.0
C468 C 0.57918 0.22434 0.99059 0.0
C469 C 0.54351 0.20751 0.9955 0.0
C470 C 0.52648 0.22558 0.02472 0.0
C471 C 0.52364 0.20828 0.96238 0.0
C472 C 0.54929 0.16996 1.00461 0.0
C473 C 0.58295 0.16619 1.00398 0.0
C474 C 0.59496 0.13484 0.01351 0.0
C475 C 0.57209 0.10683 0.02474 0.0
C476 C 0.53764 0.11023 0.02619 0.0
C477 C 0.52593 0.1419 0.01543 0.0
H478 H 0.09517 0.774 0.50433 0.0
H479 H 1.00159 0.73012 0.45912 0.0
H480 H 0.97565 0.78262 0.47795 0.0
H481 H 0.05955 0.81366 0.57793 0.0
H482 H 0.08999 0.85233 0.57787 0.0
H483 H 0.10094 0.81076 0.56174 0.0
H484 H 0.11889 0.84074 0.50455 0.0
H485 H 0.10804 0.88238 0.52054 0.0
H486 H 0.08976 0.86419 0.48167 0.0
H487 H 0.96063 0.84092 0.49951 0.0
H488 H 0.95714 0.90066 0.52309 0.0
H489 H 0.06035 0.90657 0.55511 0.0
C490 C 0.06918 0.77545 0.49855 0.0
C491 C 0.05012 0.74768 0.48095 0.0
C492 C 0.01629 0.75053 0.47359 0.0
C493 C 1.00145 0.78042 0.48389 0.0
C494 C 0.02082 0.8072 0.50151 0.0
C495 C 0.05393 0.805 0.50887 0.0
C496 C 0.06928 0.83768 0.52781 0.0
C497 C 0.0806 0.82802 0.56346 0.0
C498 C 0.0982 0.85741 0.50741 0.0
C499 C 0.03973 0.85876 0.5296 0.0
C500 C 0.01205 0.8407 0.51425 0.0
C501 C 0.98206 0.85522 0.5118 0.0
C502 C 0.98035 0.8892 0.52524 0.0
C503 C 0.00841 0.90823 0.5411 0.0
C504 C 0.03838 0.89257 0.54346 0.0
H505 H 0.54589 0.80241 0.60745 0.0
H506 H 0.44354 0.77685 0.64122 0.0
H507 H 0.44609 0.71405 0.62626 0.0
H508 H 0.54005 0.7447 0.53569 0.0
H509 H 0.58152 0.73225 0.54002 0.0
H510 H 0.57236 0.77492 0.55498 0.0
H511 H 0.59386 0.76119 0.61482 0.0
H512 H 0.60323 0.71853 0.59999 0.0
H513 H 0.57644 0.72146 0.63632 0.0
H514 H 0.45925 0.6545 0.60662 0.0
H515 H 0.48197 0.60197 0.5833 0.0
H516 H 0.57547 0.66638 0.56101 0.0
C517 C 0.52412 0.78355 0.61204 0.0
C518 C 0.49454 0.79449 0.62566 0.0
C519 C 0.46647 0.76906 0.63087 0.0
C520 C 0.46768 0.73334 0.62247 0.0
C521 C 0.49709 0.72351 0.60877 0.0
C522 C 0.52482 0.74783 0.60357 0.0
C523 C 0.55299 0.73049 0.58749 0.0
C524 C 0.56226 0.74655 0.55247 0.0
C525 C 0.58342 0.73307 0.61107 0.0
C526 C 0.53671 0.69265 0.58436 0.0
C527 C 0.50453 0.6892 0.59693 0.0
C528 C 0.48444 0.65684 0.59675 0.0
C529 C 0.4976 0.62716 0.58344 0.0
C530 C 0.53052 0.63004 0.57031 0.0
C531 C 0.55022 0.66332 0.57078 0.0
H532 H 0.9127 0.88596 0.80191 0.0
H533 H 0.82153 0.93558 0.79318 0.0
H534 H 0.8426 0.96489 0.74069 0.0
H535 H 0.96793 0.96246 0.77098 0.0
H536 H 0.99502 0.93614 0.74814 0.0
H537 H 0.97314 0.91848 0.78541 0.0
H538 H 0.94748 0.86412 0.75067 0.0
H539 H 0.96924 0.88165 0.7133 0.0
H540 H 0.92461 0.8709 0.7125 0.0
H541 H 0.87128 0.98666 0.68789 0.0
H542 H 0.90804 1.00329 0.63925 0.0
H543 H 0.98328 0.94359 0.6816 0.0
C544 C 0.89724 0.90307 0.78899 0.0
C545 C 0.86528 0.90829 0.80196 0.0
C546 C 0.84604 0.93109 0.78416 0.0
C547 C 0.85777 0.94788 0.75412 0.0
C548 C 0.8891 0.94214 0.74203 0.0
C549 C 0.90884 0.92065 0.75894 0.0
C550 C 0.94186 0.91972 0.74025 0.0
C551 C 0.97123 0.93512 0.76253 0.0
C552 C 0.94603 0.88184 0.72848 0.0
C553 C 0.93729 0.94373 0.71013 0.0
C554 C 0.90646 0.95604 0.71174 0.0
C555 C 0.8956 0.97746 0.68649 0.0
C556 C 0.91669 0.98667 0.65884 0.0
C557 C 0.94867 0.97496 0.65654 0.0
C558 C 0.95916 0.95331 0.68278 0.0
H559 H 0.60616 0.12176 0.36996 0.0
H560 H 0.51901 0.05799 0.41052 0.0
H561 H 0.49884 0.04453 0.3524 0.0
H562 H 0.56419 0.15681 0.29545 0.0
H563 H 0.59987 0.15429 0.26835 0.0
H564 H 0.60553 0.16232 0.31319 0.0
H565 H 0.63874 0.10812 0.31713 0.0
H566 H 0.63284 0.09966 0.27246 0.0
H567 H 0.61978 0.06536 0.30276 0.0
H568 H 0.49049 0.0336 0.29053 0.0
H569 H 0.49412 0.02641 0.22858 0.0
H570 H 0.58629 0.0978 0.22749 0.0
C571 C 0.58232 0.10597 0.3666 0.0
C572 C 0.56388 0.09136 0.39474 0.0
C573 C 0.53343 0.0696 0.38928 0.0
C574 C 0.52172 0.06187 0.35638 0.0
C575 C 0.54076 0.07604 0.32914 0.0
C576 C 0.57032 0.09778 0.33381 0.0
C577 C 0.58707 0.10747 0.30007 0.0
C578 C 0.58928 0.14761 0.29391 0.0
C579 C 0.62165 0.09436 0.29801 0.0
C580 C 0.56269 0.08709 0.2759 0.0
C581 C 0.53603 0.06945 0.29321 0.0
C582 C 0.51099 0.04772 0.27659 0.0
C583 C 0.51323 0.0439 0.24129 0.0
C584 C 0.5404 0.06163 0.22288 0.0
C585 C 0.56529 0.08366 0.24064 0.0
H586 H 0.4126 0.61325 0.33943 0.0
H587 H 0.49129 0.60889 0.26466 0.0
H588 H 0.52662 0.58574 0.30811 0.0
H589 H 0.46512 0.64141 0.4092 0.0
H590 H 0.44084 0.61491 0.44031 0.0
H591 H 0.42098 0.62993 0.4031 0.0
H592 H 0.39828 0.56508 0.38839 0.0
H593 H 0.41821 0.54985 0.42552 0.0
H594 H 0.42688 0.53224 0.38429 0.0
H595 H 0.55479 0.56709 0.35957 0.0
H596 H 0.57418 0.55269 0.41653 0.0
H597 H 0.47702 0.56592 0.45856 0.0
C598 C 0.43721 0.60727 0.33218 0.0
C599 C 0.44919 0.61295 0.29858 0.0
C600 C 0.48152 0.60475 0.29015 0.0
C601 C 0.50179 0.59152 0.31465 0.0
C602 C 0.48929 0.58628 0.34746 0.0
C603 C 0.45774 0.5937 0.35633 0.0
C604 C 0.4508 0.58622 0.39371 0.0
C605 C 0.44404 0.62014 0.41269 0.0
C606 C 0.42182 0.55658 0.39823 0.0
C607 C 0.48362 0.57405 0.4045 0.0
C608 C 0.50538 0.57433 0.37729 0.0
C609 C 0.53788 0.56629 0.38098 0.0
C610 C 0.54866 0.55821 0.41342 0.0
C611 C 0.52696 0.55783 0.44174 0.0
C612 C 0.49383 0.56529 0.43715 0.0
H613 H 0.10845 0.51025 0.7279 0.0
H614 H 0.13524 0.40325 0.73389 0.0
H615 H 0.12048 0.40143 0.79506 0.0
H616 H 0.13734 0.54013 0.81189 0.0
H617 H 0.10291 0.56561 0.8185 0.0
H618 H 0.11823 0.55921 0.77617 0.0
H619 H 0.05905 0.53292 0.75711 0.0
H620 H 0.04355 0.53959 0.7992 0.0
H621 H 0.0376 0.4961 0.78013 0.0
H622 H 0.10064 0.41142 0.8559 0.0
H623 H 0.07199 0.42984 0.90797 0.0
H624 H 0.05736 0.52906 0.86016 0.0
C625 C 0.11157 0.48655 0.74215 0.0
C626 C 0.1228 0.45682 0.72621 0.0
C627 C 0.12612 0.4261 0.74555 0.0
C628 C 0.11821 0.42503 0.78037 0.0
C629 C 0.10702 0.45488 0.79531 0.0
C630 C 0.10348 0.48494 0.77661 0.0
C631 C 0.08861 0.51254 0.79762 0.0
C632 C 0.11325 0.54637 0.80125 0.0
C633 C 0.05523 0.52074 0.78263 0.0
C634 C 0.08369 0.49318 0.83097 0.0
C635 C 0.09502 0.46023 0.82955 0.0
C636 C 0.09193 0.43727 0.8573 0.0
C637 C 0.07591 0.44792 0.88678 0.0
C638 C 0.06284 0.48083 0.8878 0.0
C639 C 0.06748 0.50389 0.85986 0.0
H640 H 0.72032 0.96062 0.99352 0.0
H641 H 0.67646 0.88558 0.91826 0.0
H642 H 0.62032 0.89468 0.93896 0.0
H643 H 0.65995 0.93521 0.06098 0.0
H644 H 0.6597 0.97996 0.07629 0.0
H645 H 0.69657 0.96681 0.05635 0.0
H646 H 0.69635 0.01798 0.01315 0.0
H647 H 0.65949 0.03125 0.03292 0.0
H648 H 0.65957 0.02131 0.98815 0.0
H649 H 0.56868 0.91472 0.96537 0.0
H650 H 0.52549 0.94235 0.9969 0.0
H651 H 0.60215 1.00288 0.05692 0.0
C652 C 0.69895 0.94585 0.98152 0.0
C653 C 0.70302 0.9223 0.95413 0.0
C654 C 0.67421 0.90365 0.93925 0.0
C655 C 0.64213 0.90868 0.95085 0.0
C656 C 0.63904 0.93226 0.97763 0.0
C657 C 0.66667 0.95037 0.99297 0.0
C658 C 0.65636 0.97457 0.02102 0.0
C659 C 0.66889 0.96346 0.05572 0.0
C660 C 0.66867 0.01358 0.01334 0.0
C661 C 0.61862 0.96754 0.01881 0.0
C662 C 0.60921 0.9431 0.99351 0.0
C663 C 0.5758 0.93354 0.98548 0.0
C664 C 0.5514 0.94945 1.00355 0.0
C665 C 0.56029 0.97449 0.02971 0.0
C666 C 0.59446 0.98333 0.03756 0.0
H667 H 0.69289 0.01801 0.49982 0.0
H668 H 0.70456 0.12754 0.53396 0.0
H669 H 0.7652 0.12559 0.53989 0.0
H670 H 0.75364 0.98689 0.55433 0.0
H671 H 0.76854 0.95793 0.52285 0.0
H672 H 0.7261 0.96795 0.52145 0.0
H673 H 0.73499 0.99019 0.4596 0.0
H674 H 0.77744 0.98018 0.46079 0.0
H675 H 0.76864 0.02425 0.4502 0.0
H676 H 0.82422 0.11078 0.54429 0.0
H677 H 0.87792 0.08543 0.54295 0.0
H678 H 0.82785 0.98667 0.50351 0.0
C679 C 0.7082 0.04159 0.50856 0.0
C680 C 0.69404 0.07288 0.51661 0.0
C681 C 0.71492 0.10329 0.52763 0.0
C682 C 0.74935 0.10241 0.53116 0.0
C683 C 0.76248 0.07106 0.52317 0.0
C684 C 0.7426 0.04132 0.51177 0.0
C685 C 0.76297 0.01117 0.50426 0.0
C686 C 0.75217 0.9791 0.52709 0.0
C687 C 0.76088 1.00086 0.46647 0.0
C688 C 0.7974 0.0285 0.51346 0.0
C689 C 0.79657 0.06295 0.52457 0.0
C690 C 0.8252 0.08391 0.53544 0.0
C691 C 0.8555 0.06928 0.53477 0.0
C692 C 0.85693 0.03422 0.52299 0.0
C693 C 0.82747 0.0137 0.51217 0.0
H694 H 0.25363 0.62749 0.04539 0.0
H695 H 0.22543 0.71715 0.103 0.0
H696 H 0.16622 0.69539 0.09448 0.0
H697 H 0.1835 0.62323 0.98378 0.0
H698 H 0.17903 0.57548 0.98228 0.0
H699 H 0.21934 0.59985 0.98993 0.0
H700 H 0.22454 0.56441 0.0453 0.0
H701 H 0.18421 0.54017 0.038 0.0
H702 H 0.19247 0.56402 0.07729 0.0
H703 H 0.11111 0.66042 0.0868 0.0
H704 H 0.06228 0.61677 0.07568 0.0
H705 H 0.12466 0.55092 0.01994 0.0
C706 C 0.235 0.64294 0.05561 0.0
C707 C 0.24424 0.67405 0.07491 0.0
C708 C 0.21906 0.69334 0.08805 0.0
C709 C 0.18532 0.68118 0.08337 0.0
C710 C 0.17709 0.64998 0.06504 0.0
C711 C 0.20111 0.63137 0.05086 0.0
C712 C 0.18536 0.59778 0.03349 0.0
C713 C 0.19222 0.59918 0.99509 0.0
C714 C 0.19736 0.56465 0.04949 0.0
C715 C 0.14884 0.5999 0.04112 0.0
C716 C 0.14476 0.63029 0.05938 0.0
C717 C 0.11385 0.63693 0.0719 0.0
C718 C 0.08633 0.6119 0.06562 0.0
C719 C 0.08976 0.58077 0.04667 0.0
C720 C 0.12135 0.57489 0.03388 0.0
H721 H 0.27252 0.52753 0.59318 0.0
H722 H 0.23691 0.41548 0.58457 0.0
H723 H 0.29415 0.40254 0.57222 0.0
H724 H 0.33512 0.52942 0.52583 0.0
H725 H 0.36456 0.56045 0.54814 0.0
H726 H 0.32049 0.56125 0.55465 0.0
H727 H 0.3283 0.55401 0.61941 0.0
H728 H 0.37234 0.55321 0.61309 0.0
H729 H 0.34824 0.51718 0.63485 0.0
H730 H 0.35527 0.40125 0.56395 0.0
H731 H 0.41656 0.41182 0.55964 0.0
H732 H 0.41266 0.52463 0.57306 0.0
C733 C 0.2767 0.5003 0.58842 0.0
C734 C 0.25022 0.4725 0.58983 0.0
C735 C 0.25677 0.43721 0.58359 0.0
C736 C 0.28919 0.42959 0.5765 0.0
C737 C 0.31473 0.45756 0.57555 0.0
C738 C 0.30889 0.49222 0.5812 0.0
C739 C 0.34096 0.51722 0.57969 0.0
C740 C 0.34023 0.54364 0.55032 0.0
C741 C 0.34786 0.53653 0.61379 0.0
C742 C 0.3658 0.49109 0.57288 0.0
C743 C 0.35009 0.45685 0.57047 0.0
C744 C 0.36784 0.42796 0.56558 0.0
C745 C 0.40262 0.43419 0.56338 0.0
C746 C 0.4193 0.46902 0.56603 0.0
C747 C 0.40052 0.49782 0.57044 0.0
H748 H 0.8955 0.70871 0.9003 0.0
H749 H 0.90662 0.78175 0.98568 0.0
H750 H 0.93278 0.73773 0.01883 0.0
H751 H 0.87649 0.62907 0.94827 0.0
H752 H 0.90017 0.60228 0.92181 0.0
H753 H 0.88273 0.63959 0.90395 0.0
H754 H 0.94121 0.6658 0.88294 0.0
H755 H 0.9588 0.62844 0.90056 0.0
H756 H 0.97506 0.67288 0.9128 0.0
H757 H 0.95395 0.68489 0.04445 0.0
H758 H 0.97406 0.62817 0.05934 0.0
H759 H 0.95345 0.58929 0.95695 0.0
C760 C 0.90371 0.71553 0.92587 0.0
C761 C 0.89889 0.74886 0.94033 0.0
C762 C 0.91005 0.75662 0.97389 0.0
C763 C 0.92488 0.73168 0.99304 0.0
C764 C 0.92888 0.69906 0.97826 0.0
C765 C 0.9191 0.69099 0.9453 0.0
C766 C 0.92674 0.6539 0.93565 0.0
C767 C 0.89462 0.62979 0.92691 0.0
C768 C 0.95196 0.65535 0.90624 0.0
C769 C 0.94196 0.64237 0.96846 0.0
C770 C 0.94258 0.66882 0.99273 0.0
C771 C 0.95394 0.66414 0.02554 0.0
C772 C 0.96518 0.63171 0.03381 0.0
C773 C 0.96553 0.60433 0.00931 0.0
C774 C 0.95386 0.60988 0.9761 0.0
H775 H 0.38817 0.76621 0.12317 0.0
H776 H 0.40867 0.78129 0.23064 0.0
H777 H 0.42448 0.84505 0.22105 0.0
H778 H 0.45616 0.82464 0.09426 0.0
H779 H 0.43481 0.84196 0.05908 0.0
H780 H 0.42168 0.79796 0.07443 0.0
H781 H 0.3618 0.8143 0.0834 0.0
H782 H 0.37474 0.85837 0.0679 0.0
H783 H 0.35533 0.85232 0.10906 0.0
H784 H 0.44211 0.90542 0.20009 0.0
H785 H 0.46128 0.95982 0.16866 0.0
H786 H 0.42943 0.90758 0.07407 0.0
C787 C 0.39507 0.78312 0.14477 0.0
C788 C 0.39673 0.76881 0.17778 0.0
C789 C 0.4071 0.79164 0.20519 0.0
C790 C 0.416 0.82794 0.20003 0.0
C791 C 0.41449 0.84116 0.16725 0.0
C792 C 0.40427 0.81961 0.14001 0.0
C793 C 0.40713 0.84048 0.10708 0.0
C794 C 0.43139 0.82536 0.08226 0.0
C795 C 0.3727 0.84142 0.09091 0.0
C796 C 0.42119 0.87688 0.12008 0.0
C797 C 0.42493 0.87654 0.15493 0.0
C798 C 0.43899 0.90617 0.17285 0.0
C799 C 0.44991 0.93693 0.1547 0.0
C800 C 0.44675 0.93803 0.11892 0.0
C801 C 0.43171 0.90769 0.10145 0.0
H802 H 0.07647 0.25607 0.67126 0.0
H803 H 0.99087 0.30197 0.63215 0.0
H804 H 0.96639 0.24282 0.61264 0.0
H805 H 0.08332 0.19621 0.60398 0.0
H806 H 0.09519 0.16102 0.6302 0.0
H807 H 0.10476 0.20644 0.64348 0.0
H808 H 0.07355 0.19227 0.70029 0.0
H809 H 0.06399 0.14672 0.6872 0.0
H810 H 0.0309 0.17209 0.69963 0.0
H811 H 0.95309 0.1792 0.59375 0.0
H812 H 0.95172 0.11593 0.57805 0.0
H813 H 0.04575 0.11194 0.63005 0.0
C814 C 0.05235 0.25366 0.65903 0.0
C815 C 0.03558 0.28371 0.6533 0.0
C816 C 1.0042 0.27937 0.63691 0.0
C817 C 0.99005 0.24585 0.62574 0.0
C818 C 0.0075 0.21688 0.6313 0.0
C819 C 0.03787 0.22042 0.64775 0.0
C820 C 0.05218 0.18537 0.64935 0.0
C821 C 0.08585 0.1874 0.63063 0.0
C822 C 0.05533 0.17341 0.68632 0.0
C823 C 0.02542 0.16172 0.6307 0.0
C824 C 0.99975 0.1803 0.62062 0.0
C825 C 0.97289 0.16429 0.60181 0.0
C826 C 0.97236 0.12838 0.59295 0.0
C827 C 0.99855 0.10894 0.6029 0.0
C828 C 0.02519 0.12593 0.62228 0.0
H829 H 0.56571 0.28209 0.47548 0.0
H830 H 0.65047 0.29494 0.40687 0.0
H831 H 0.65837 0.35936 0.41966 0.0
H832 H 0.53336 0.36274 0.45425 0.0
H833 H 0.52014 0.37066 0.49707 0.0
H834 H 0.52192 0.32599 0.48239 0.0
H835 H 0.56077 0.31508 0.5326 0.0
H836 H 0.55926 0.35982 0.54727 0.0
H837 H 0.59887 0.34418 0.53854 0.0
H838 H 0.65648 0.42343 0.4411 0.0
H839 H 0.64328 0.48003 0.46677 0.0
H840 H 0.55989 0.42265 0.52036 0.0
C841 C 0.58599 0.29832 0.46306 0.0
C842 C 0.60751 0.28344 0.44021 0.0
C843 C 0.63363 0.30578 0.42446 0.0
C844 C 0.63836 0.34237 0.43164 0.0
C845 C 0.61672 0.3561 0.45457 0.0
C846 C 0.59097 0.33462 0.46984 0.0
C847 C 0.57071 0.35548 0.49313 0.0
C848 C 0.53439 0.35361 0.48097 0.0
C849 C 0.57254 0.34289 0.53007 0.0
C850 C 0.58896 0.39215 0.48863 0.0
C851 C 0.61554 0.39224 0.46647 0.0
C852 C 0.63571 0.42356 0.45849 0.0
C853 C 0.62813 0.45555 0.47324 0.0
C854 C 0.60054 0.4558 0.4955 0.0
C855 C 0.58112 0.42351 0.50338 0.0
loop_
_geom_bond_atom_site_label_1
_geom_bond_atom_site_label_2
_geom_bond_distance
_geom_bond_site_symmetry_2
_ccdc_geom_bond_type
O0 Cd1 2.300 . S
O0 C7 1.275 . S
Cd1 O0 2.300 . S
Cd1 O9 2.381 . S
Cd1 O10 2.378 . S
O2 Cd3 2.385 . S
O2 C7 1.255 . S
Cd3 O2 2.385 . S
Cd3 O4 2.317 . S
O4 Cd3 2.317 . S
O4 C5 1.232 . S
C5 O4 1.232 . S
C5 O6 1.218 . S
O6 C5 1.218 . S
C7 O0 1.275 . S
C7 O2 1.255 . S
C8 O9 1.258 . S
C8 O10 1.256 . S
O9 Cd1 2.381 . S
O9 C8 1.258 . S
O10 Cd1 2.378 . S
O10 C8 1.256 . S
O11 Cd12 2.300 . S
O11 C18 1.275 . S
Cd12 O11 2.300 . S
Cd12 O20 2.381 . S
Cd12 O21 2.378 . S
O13 Cd14 2.385 . S
O13 C18 1.255 . S
Cd14 O13 2.385 . S
Cd14 O15 2.317 . S
O15 Cd14 2.317 . S
O15 C16 1.232 . S
C16 O15 1.232 . S
C16 O17 1.218 . S
O17 C16 1.218 . S
C18 O11 1.275 . S
C18 O13 1.255 . S
C19 O20 1.258 . S
C19 O21 1.256 . S
O20 Cd12 2.381 . S
O20 C19 1.258 . S
O21 Cd12 2.378 . S
O21 C19 1.256 . S
O22 Cd23 2.300 . S
O22 C29 1.275 . S
Cd23 O22 2.300 . S
Cd23 O31 2.381 . S
Cd23 O32 2.378 . S
O24 Cd25 2.385 . S
O24 C29 1.255 . S
Cd25 O24 2.385 . S
Cd25 O26 2.317 . S
O26 Cd25 2.317 . S
O26 C27 1.232 . S
C27 O26 1.232 . S
C27 O28 1.218 . S
O28 C27 1.218 . S
C29 O22 1.275 . S
C29 O24 1.255 . S
C30 O31 1.258 . S
C30 O32 1.256 . S
O31 Cd23 2.381 . S
O31 C30 1.258 . S
O32 Cd23 2.378 . S
O32 C30 1.256 . S
O33 Cd34 2.300 . S
O33 C40 1.275 . S
Cd34 O33 2.300 . S
Cd34 O42 2.381 . S
Cd34 O43 2.378 . S
O35 Cd36 2.385 . S
O35 C40 1.255 . S
Cd36 O35 2.385 . S
Cd36 O37 2.317 . S
O37 Cd36 2.317 . S
O37 C38 1.232 . S
C38 O37 1.232 . S
C38 O39 1.218 . S
O39 C38 1.218 . S
C40 O33 1.275 . S
C40 O35 1.255 . S
C41 O42 1.258 . S
C41 O43 1.256 . S
O42 Cd34 2.381 . S
O42 C41 1.258 . S
O43 Cd34 2.378 . S
O43 C41 1.256 . S
O44 Cd45 2.300 . S
O44 C51 1.275 . S
Cd45 O44 2.300 . S
Cd45 O53 2.381 . S
Cd45 O54 2.378 . S
O46 Cd47 2.385 . S
O46 C51 1.255 . S
Cd47 O46 2.385 . S
Cd47 O48 2.317 . S
O48 Cd47 2.317 . S
O48 C49 1.232 . S
C49 O48 1.232 . S
C49 O50 1.218 . S
O50 C49 1.218 . S
C51 O44 1.275 . S
C51 O46 1.255 . S
C52 O53 1.258 . S
C52 O54 1.256 . S
O53 Cd45 2.381 . S
O53 C52 1.258 . S
O54 Cd45 2.378 . S
O54 C52 1.256 . S
O55 Cd56 2.300 . S
O55 C62 1.275 . S
Cd56 O55 2.300 . S
Cd56 O64 2.381 . S
Cd56 O65 2.378 . S
O57 Cd58 2.385 . S
O57 C62 1.255 . S
Cd58 O57 2.385 . S
Cd58 O59 2.317 . S
O59 Cd58 2.317 . S
O59 C60 1.232 . S
C60 O59 1.232 . S
C60 O61 1.218 . S
O61 C60 1.218 . S
C62 O55 1.275 . S
C62 O57 1.255 . S
C63 O64 1.258 . S
C63 O65 1.256 . S
O64 Cd56 2.381 . S
O64 C63 1.258 . S
O65 Cd56 2.378 . S
O65 C63 1.256 . S
O66 Cd67 2.300 . S
O66 C73 1.275 . S
Cd67 O66 2.300 . S
Cd67 O75 2.381 . S
Cd67 O76 2.378 . S
O68 Cd69 2.385 . S
O68 C73 1.255 . S
Cd69 O68 2.385 . S
Cd69 O70 2.317 . S
O70 Cd69 2.317 . S
O70 C71 1.232 . S
C71 O70 1.232 . S
C71 O72 1.218 . S
O72 C71 1.218 . S
C73 O66 1.275 . S
C73 O68 1.255 . S
C74 O75 1.258 . S
C74 O76 1.256 . S
O75 Cd67 2.381 . S
O75 C74 1.258 . S
O76 Cd67 2.378 . S
O76 C74 1.256 . S
O77 Cd78 2.300 . S
O77 C84 1.275 . S
Cd78 O77 2.300 . S
Cd78 O86 2.381 . S
Cd78 O87 2.378 . S
O79 Cd80 2.385 . S
O79 C84 1.255 . S
Cd80 O79 2.385 . S
Cd80 O81 2.317 . S
O81 Cd80 2.317 . S
O81 C82 1.232 . S
C82 O81 1.232 . S
C82 O83 1.218 . S
O83 C82 1.218 . S
C84 O77 1.275 . S
C84 O79 1.255 . S
C85 O86 1.258 . S
C85 O87 1.256 . S
O86 Cd78 2.381 . S
O86 C85 1.258 . S
O87 Cd78 2.378 . S
O87 C85 1.256 . S
Co88 N93 2.057 . S
Co88 O105 2.021 . S
Co88 O108 2.062 . S
Co88 O112 2.117 1_545 S
Co88 O113 2.014 1_545 S
C89 O109 1.259 1_655 S
C89 O112 1.258 . S
Co90 N99 2.057 . S
Co90 O106 2.117 1_565 S
Co90 O107 2.020 1_565 S
Co90 O109 2.021 . S
Co90 O114 2.062 . S
C91 N93 1.316 . S
C91 N94 1.347 . S
C91 H96 0.931 . S
C92 N93 1.375 1_565 S
C92 C95 1.350 1_565 S
C92 H97 0.930 . S
N93 Co88 2.057 . S
N93 C91 1.316 . S
N93 C92 1.375 1_545 S
N94 C91 1.347 . S
N94 C95 1.373 . S
C95 C92 1.350 1_545 S
C95 N94 1.373 . S
C95 H116 0.931 1_545 S
H96 C91 0.931 . S
H97 C92 0.930 . S
C98 O105 1.259 1_455 S
C98 O106 1.258 . S
N99 Co90 2.057 . S
N99 C100 1.316 . S
N99 C101 1.375 1_565 S
C100 N99 1.316 . S
C100 N102 1.347 . S
C100 H111 0.931 . S
C101 N99 1.375 1_545 S
C101 C103 1.350 . S
C101 H110 0.930 . S
N102 C100 1.347 . S
N102 C103 1.373 1_565 S
C103 C101 1.350 . S
C103 N102 1.373 1_545 S
C103 H117 0.931 . S
C104 O107 1.256 . S
C104 O108 1.255 1_455 S
O105 Co88 2.021 . S
O105 C98 1.259 1_655 S
O106 Co90 2.117 1_545 S
O106 C98 1.258 . S
O107 Co90 2.020 1_545 S
O107 C104 1.256 . S
O108 Co88 2.062 . S
O108 C104 1.255 1_655 S
O109 C89 1.259 1_455 S
O109 Co90 2.021 . S
H110 C101 0.930 . S
H111 C100 0.931 . S
O112 Co88 2.117 1_565 S
O112 C89 1.258 . S
O113 Co88 2.014 1_565 S
O113 C115 1.264 . S
O114 Co90 2.062 . S
O114 C115 1.255 1_455 S
C115 O113 1.264 . S
C115 O114 1.255 1_655 S
H116 C95 0.931 1_565 S
H117 C103 0.931 . S
Co118 N123 2.057 1_544 S
Co118 O135 2.021 . S
Co118 O138 2.062 . S
Co118 O142 2.117 1_545 S
Co118 O143 2.020 . S
C119 O139 1.259 . S
C119 O142 1.258 . S
Co120 N129 2.057 . S
Co120 O136 2.117 . S
Co120 O137 2.020 . S
Co120 O139 2.021 1_545 S
Co120 O144 2.062 . S
C121 N123 1.316 1_545 S
C121 N124 1.347 1_545 S
C121 H126 0.931 . S
C122 N123 1.375 . S
C122 C125 1.350 . S
C122 H127 0.930 . S
N123 Co118 2.057 1_566 S
N123 C121 1.316 1_565 S
N123 C122 1.375 . S
N124 C121 1.347 1_565 S
N124 C125 1.373 . S
C125 C122 1.350 . S
C125 N124 1.373 . S
C125 H146 0.931 . S
H126 C121 0.931 . S
H127 C122 0.930 . S
C128 O135 1.259 . S
C128 O136 1.258 . S
N129 Co120 2.057 . S
N129 C130 1.316 . S
N129 C131 1.375 . S
C130 N129 1.316 . S
C130 N132 1.347 . S
C130 H141 0.931 . S
C131 N129 1.375 . S
C131 C133 1.350 . S
C131 H140 0.930 . S
N132 C130 1.347 . S
N132 C133 1.373 . S
C133 C131 1.350 . S
C133 N132 1.373 . S
C133 H147 0.931 . S
C134 O137 1.256 . S
C134 O138 1.255 . S
O135 Co118 2.021 . S
O135 C128 1.259 . S
O136 Co120 2.117 . S
O136 C128 1.258 . S
O137 Co120 2.020 . S
O137 C134 1.256 . S
O138 Co118 2.062 . S
O138 C134 1.255 . S
O139 C119 1.259 . S
O139 Co120 2.021 1_565 S
H140 C131 0.930 . S
H141 C130 0.931 . S
O142 Co118 2.117 1_565 S
O142 C119 1.258 . S
O143 Co118 2.020 . S
O143 C145 1.256 . S
O144 Co120 2.062 . S
O144 C145 1.255 . S
C145 O143 1.256 . S
C145 O144 1.255 . S
H146 C125 0.931 . S
H147 C133 0.931 . S
Co148 N153 2.057 . S
Co148 O165 2.021 . S
Co148 O168 2.062 . S
Co148 O172 2.117 . S
Co148 O173 2.020 . S
C149 O169 1.259 . S
C149 O172 1.258 . S
Co150 N159 2.057 . S
Co150 O166 2.117 . S
Co150 O167 2.020 . S
Co150 O169 2.021 . S
Co150 O174 2.062 . S
C151 N153 1.316 . S
C151 N154 1.347 . S
C151 H156 0.931 . S
C152 N153 1.375 . S
C152 C155 1.350 . S
C152 H157 0.930 . S
N153 Co148 2.057 . S
N153 C151 1.316 . S
N153 C152 1.375 . S
N154 C151 1.347 . S
N154 C155 1.373 . S
C155 C152 1.350 . S
C155 N154 1.373 . S
C155 H176 0.931 . S
H156 C151 0.931 . S
H157 C152 0.930 . S
C158 O165 1.259 . S
C158 O166 1.258 . S
N159 Co150 2.057 . S
N159 C160 1.316 . S
N159 C161 1.375 . S
C160 N159 1.316 . S
C160 N162 1.347 . S
C160 H171 0.931 . S
C161 N159 1.375 . S
C161 C163 1.350 . S
C161 H170 0.930 . S
N162 C160 1.347 . S
N162 C163 1.373 . S
C163 C161 1.350 . S
C163 N162 1.373 . S
C163 H177 0.931 . S
C164 O167 1.256 . S
C164 O168 1.255 . S
O165 Co148 2.021 . S
O165 C158 1.259 . S
O166 Co150 2.117 . S
O166 C158 1.258 . S
O167 Co150 2.020 . S
O167 C164 1.256 . S
O168 Co148 2.062 . S
O168 C164 1.255 . S
O169 C149 1.259 . S
O169 Co150 2.021 . S
H170 C161 0.930 . S
H171 C160 0.931 . S
O172 Co148 2.117 . S
O172 C149 1.258 . S
O173 Co148 2.020 . S
O173 C175 1.256 . S
O174 Co150 2.062 . S
O174 C175 1.255 . S
C175 O173 1.256 . S
C175 O174 1.255 . S
H176 C155 0.931 . S
H177 C163 0.931 . S
Co178 N183 2.057 . S
Co178 O195 2.021 1_556 S
Co178 O198 2.062 1_556 S
Co178 O202 2.117 1_455 S
Co178 O203 2.020 . S
C179 O199 1.259 . S
C179 O202 1.258 1_554 S
Co180 N189 2.057 . S
Co180 O196 2.117 . S
Co180 O197 2.020 . S
Co180 O199 2.021 1_455 S
Co180 O204 2.062 . S
C181 N183 1.316 . S
C181 N184 1.347 . S
C181 H186 0.931 . S
C182 N183 1.375 . S
C182 C185 1.350 . S
C182 H187 0.930 1_455 S
N183 Co178 2.057 . S
N183 C181 1.316 . S
N183 C182 1.375 . S
N184 C181 1.347 . S
N184 C185 1.373 . S
C185 C182 1.350 . S
C185 N184 1.373 . S
C185 H206 0.931 . S
H186 C181 0.931 . S
H187 C182 0.930 1_655 S
C188 O195 1.259 . S
C188 O196 1.258 . S
N189 Co180 2.057 . S
N189 C190 1.316 1_455 S
N189 C191 1.375 . S
C190 N189 1.316 1_655 S
C190 N192 1.347 . S
C190 H201 0.931 . S
C191 N189 1.375 . S
C191 C193 1.350 . S
C191 H200 0.930 . S
N192 C190 1.347 . S
N192 C193 1.373 1_655 S
C193 C191 1.350 . S
C193 N192 1.373 1_455 S
C193 H207 0.931 . S
C194 O197 1.256 . S
C194 O198 1.255 . S
O195 Co178 2.021 1_554 S
O195 C188 1.259 . S
O196 Co180 2.117 . S
O196 C188 1.258 . S
O197 Co180 2.020 . S
O197 C194 1.256 . S
O198 Co178 2.062 1_554 S
O198 C194 1.255 . S
O199 C179 1.259 . S
O199 Co180 2.021 1_655 S
H200 C191 0.930 . S
H201 C190 0.931 . S
O202 Co178 2.117 1_655 S
O202 C179 1.258 1_556 S
O203 Co178 2.020 . S
O203 C205 1.256 1_556 S
O204 Co180 2.062 . S
O204 C205 1.255 . S
C205 O203 1.256 1_554 S
C205 O204 1.255 . S
H206 C185 0.931 . S
H207 C193 0.931 . S
H208 C220 0.930 . S
H209 C222 0.930 . S
H210 C223 0.930 . S
H211 C227 0.959 1_545 S
H212 C227 0.959 . S
H213 C227 0.961 . S
H214 C228 0.960 . S
H215 C228 0.961 . S
H216 C228 0.959 . S
H217 C231 0.929 . S
H218 C232 0.931 . S
H219 C234 0.930 1_565 S
C220 H208 0.930 . S
C220 C221 1.399 . S
C220 C225 1.399 . S
C221 C220 1.399 . S
C221 C222 1.376 . S
C222 H209 0.930 . S
C222 C221 1.376 . S
C222 C223 1.388 . S
C223 H210 0.930 . S
C223 C222 1.388 . S
C223 C224 1.390 . S
C224 C223 1.390 . S
C224 C225 1.394 . S
C224 C230 1.465 . S
C225 C220 1.399 . S
C225 C224 1.394 . S
C225 C226 1.516 . S
C226 C225 1.516 . S
C226 C227 1.502 1_545 S
C226 C228 1.561 1_545 S
C226 C229 1.526 . S
C227 H211 0.959 1_565 S
C227 H212 0.959 . S
C227 H213 0.961 . S
C227 C226 1.502 1_565 S
C228 H214 0.960 . S
C228 H215 0.961 . S
C228 H216 0.959 . S
C228 C226 1.561 1_565 S
C229 C226 1.526 . S
C229 C230 1.396 . S
C229 C234 1.390 . S
C230 C224 1.465 . S
C230 C229 1.396 . S
C230 C231 1.399 . S
C231 H217 0.929 . S
C231 C230 1.399 . S
C231 C232 1.385 . S
C232 H218 0.931 . S
C232 C231 1.385 . S
C232 C233 1.389 . S
C233 C232 1.389 . S
C233 C234 1.387 . S
C234 H219 0.930 1_545 S
C234 C229 1.390 . S
C234 C233 1.387 . S
H235 C247 0.930 . S
H236 C249 0.930 . S
H237 C250 0.930 . S
H238 C254 0.959 . S
H239 C254 0.959 . S
H240 C254 0.961 . S
H241 C255 0.960 . S
H242 C255 0.961 . S
H243 C255 0.959 . S
H244 C258 0.929 1_545 S
H245 C259 0.931 . S
H246 C261 0.930 . S
C247 H235 0.930 . S
C247 C248 1.399 . S
C247 C252 1.399 . S
C248 C247 1.399 . S
C248 C249 1.376 . S
C249 H236 0.930 . S
C249 C248 1.376 . S
C249 C250 1.388 . S
C250 H237 0.930 . S
C250 C249 1.388 . S
C250 C251 1.390 . S
C251 C250 1.390 . S
C251 C252 1.394 . S
C251 C257 1.465 . S
C252 C247 1.399 . S
C252 C251 1.394 . S
C252 C253 1.516 . S
C253 C252 1.516 . S
C253 C254 1.502 . S
C253 C255 1.561 . S
C253 C256 1.526 . S
C254 H238 0.959 . S
C254 H239 0.959 . S
C254 H240 0.961 . S
C254 C253 1.502 . S
C255 H241 0.960 . S
C255 H242 0.961 . S
C255 H243 0.959 . S
C255 C253 1.561 . S
C256 C253 1.526 . S
C256 C257 1.396 . S
C256 C261 1.390 . S
C257 C251 1.465 . S
C257 C256 1.396 . S
C257 C258 1.399 . S
C258 H244 0.929 1_565 S
C258 C257 1.399 . S
C258 C259 1.385 1_565 S
C259 H245 0.931 . S
C259 C258 1.385 1_545 S
C259 C260 1.389 1_545 S
C260 C259 1.389 1_565 S
C260 C261 1.387 . S
C261 H246 0.930 . S
C261 C256 1.390 . S
C261 C260 1.387 . S
H262 C274 0.930 . S
H263 C276 0.930 . S
H264 C277 0.930 . S
H265 C281 0.959 . S
H266 C281 0.959 . S
H267 C281 0.961 . S
H268 C282 0.960 . S
H269 C282 0.961 . S
H270 C282 0.959 . S
H271 C285 0.929 . S
H272 C286 0.931 . S
H273 C288 0.930 . S
C274 H262 0.930 . S
C274 C275 1.399 . S
C274 C279 1.399 . S
C275 C274 1.399 . S
C275 C276 1.376 . S
C276 H263 0.930 . S
C276 C275 1.376 . S
C276 C277 1.388 . S
C277 H264 0.930 . S
C277 C276 1.388 . S
C277 C278 1.390 . S
C278 C277 1.390 . S
C278 C279 1.394 . S
C278 C284 1.465 . S
C279 C274 1.399 . S
C279 C278 1.394 . S
C279 C280 1.516 . S
C280 C279 1.516 . S
C280 C281 1.502 . S
C280 C282 1.561 . S
C280 C283 1.526 . S
C281 H265 0.959 . S
C281 H266 0.959 . S
C281 H267 0.961 . S
C281 C280 1.502 . S
C282 H268 0.960 . S
C282 H269 0.961 . S
C282 H270 0.959 . S
C282 C280 1.561 . S
C283 C280 1.526 . S
C283 C284 1.396 . S
C283 C288 1.390 . S
C284 C278 1.465 . S
C284 C283 1.396 . S
C284 C285 1.399 . S
C285 H271 0.929 . S
C285 C284 1.399 . S
C285 C286 1.385 . S
C286 H272 0.931 . S
C286 C285 1.385 . S
C286 C287 1.389 . S
C287 C286 1.389 . S
C287 C288 1.387 . S
C288 H273 0.930 . S
C288 C283 1.390 . S
C288 C287 1.387 . S
H289 C301 0.930 . S
H290 C303 0.930 . S
H291 C304 0.930 . S
H292 C308 0.959 . S
H293 C308 0.959 . S
H294 C308 0.961 . S
H295 C309 0.960 . S
H296 C309 0.961 1_655 S
H297 C309 0.959 . S
H298 C312 0.929 . S
H299 C313 0.931 . S
H300 C315 0.930 . S
C301 H289 0.930 . S
C301 C302 1.399 . S
C301 C306 1.399 . S
C302 C301 1.399 . S
C302 C303 1.376 . S
C303 H290 0.930 . S
C303 C302 1.376 . S
C303 C304 1.388 . S
C304 H291 0.930 . S
C304 C303 1.388 . S
C304 C305 1.390 . S
C305 C304 1.390 . S
C305 C306 1.394 . S
C305 C311 1.465 . S
C306 C301 1.399 . S
C306 C305 1.394 . S
C306 C307 1.516 . S
C307 C306 1.516 . S
C307 C308 1.502 . S
C307 C309 1.561 1_655 S
C307 C310 1.526 . S
C308 H292 0.959 . S
C308 H293 0.959 . S
C308 H294 0.961 . S
C308 C307 1.502 . S
C309 H295 0.960 . S
C309 H296 0.961 1_455 S
C309 H297 0.959 . S
C309 C307 1.561 1_455 S
C310 C307 1.526 . S
C310 C311 1.396 . S
C310 C315 1.390 . S
C311 C305 1.465 . S
C311 C310 1.396 . S
C311 C312 1.399 . S
C312 H298 0.929 . S
C312 C311 1.399 . S
C312 C313 1.385 . S
C313 H299 0.931 . S
C313 C312 1.385 . S
C313 C314 1.389 . S
C314 C313 1.389 . S
C314 C315 1.387 . S
C315 H300 0.930 . S
C315 C310 1.390 . S
C315 C314 1.387 . S
H316 C328 0.930 . S
H317 C330 0.930 . S
H318 C331 0.930 . S
H319 C335 0.959 . S
H320 C335 0.959 . S
H321 C335 0.961 . S
H322 C336 0.960 . S
H323 C336 0.961 . S
H324 C336 0.959 . S
H325 C339 0.929 . S
H326 C340 0.931 . S
H327 C342 0.930 . S
C328 H316 0.930 . S
C328 C329 1.399 . S
C328 C333 1.399 . S
C329 C328 1.399 . S
C329 C330 1.376 . S
C330 H317 0.930 . S
C330 C329 1.376 . S
C330 C331 1.388 . S
C331 H318 0.930 . S
C331 C330 1.388 . S
C331 C332 1.390 . S
C332 C331 1.390 . S
C332 C333 1.394 . S
C332 C338 1.465 . S
C333 C328 1.399 . S
C333 C332 1.394 . S
C333 C334 1.516 . S
C334 C333 1.516 . S
C334 C335 1.502 . S
C334 C336 1.561 . S
C334 C337 1.526 . S
C335 H319 0.959 . S
C335 H320 0.959 . S
C335 H321 0.961 . S
C335 C334 1.502 . S
C336 H322 0.960 . S
C336 H323 0.961 . S
C336 H324 0.959 . S
C336 C334 1.561 . S
C337 C334 1.526 . S
C337 C338 1.396 . S
C337 C342 1.390 . S
C338 C332 1.465 . S
C338 C337 1.396 . S
C338 C339 1.399 . S
C339 H325 0.929 . S
C339 C338 1.399 . S
C339 C340 1.385 . S
C340 H326 0.931 . S
C340 C339 1.385 . S
C340 C341 1.389 . S
C341 C340 1.389 . S
C341 C342 1.387 . S
C342 H327 0.930 . S
C342 C337 1.390 . S
C342 C341 1.387 . S
H343 C355 0.930 . S
H344 C357 0.930 . S
H345 C358 0.930 . S
H346 C362 0.959 . S
H347 C362 0.959 . S
H348 C362 0.961 . S
H349 C363 0.960 . S
H350 C363 0.961 . S
H351 C363 0.959 . S
H352 C366 0.929 . S
H353 C367 0.931 . S
H354 C369 0.930 . S
C355 H343 0.930 . S
C355 C356 1.399 . S
C355 C360 1.399 . S
C356 C355 1.399 . S
C356 C357 1.376 . S
C357 H344 0.930 . S
C357 C356 1.376 . S
C357 C358 1.388 . S
C358 H345 0.930 . S
C358 C357 1.388 . S
C358 C359 1.390 . S
C359 C358 1.390 . S
C359 C360 1.394 . S
C359 C365 1.465 . S
C360 C355 1.399 . S
C360 C359 1.394 . S
C360 C361 1.516 . S
C361 C360 1.516 . S
C361 C362 1.502 . S
C361 C363 1.561 . S
C361 C364 1.526 . S
C362 H346 0.959 . S
C362 H347 0.959 . S
C362 H348 0.961 . S
C362 C361 1.502 . S
C363 H349 0.960 . S
C363 H350 0.961 . S
C363 H351 0.959 . S
C363 C361 1.561 . S
C364 C361 1.526 . S
C364 C365 1.396 . S
C364 C369 1.390 . S
C365 C359 1.465 . S
C365 C364 1.396 . S
C365 C366 1.399 . S
C366 H352 0.929 . S
C366 C365 1.399 . S
C366 C367 1.385 . S
C367 H353 0.931 . S
C367 C366 1.385 . S
C367 C368 1.389 . S
C368 C367 1.389 . S
C368 C369 1.387 . S
C369 H354 0.930 . S
C369 C364 1.390 . S
C369 C368 1.387 . S
H370 C382 0.930 . S
H371 C384 0.930 . S
H372 C385 0.928 1_554 S
H373 C389 0.959 . S
H374 C389 0.959 . S
H375 C389 0.961 . S
H376 C390 0.960 . S
H377 C390 0.961 . S
H378 C390 0.959 1_554 S
H379 C393 0.929 . S
H380 C394 0.931 . S
H381 C396 0.930 . S
C382 H370 0.930 . S
C382 C383 1.399 . S
C382 C387 1.399 . S
C383 C382 1.399 . S
C383 C384 1.376 . S
C384 H371 0.930 . S
C384 C383 1.376 . S
C384 C385 1.388 . S
C385 H372 0.928 1_556 S
C385 C384 1.388 . S
C385 C386 1.390 . S
C386 C385 1.390 . S
C386 C387 1.394 . S
C386 C392 1.465 . S
C387 C382 1.399 . S
C387 C386 1.394 . S
C387 C388 1.516 . S
C388 C387 1.516 . S
C388 C389 1.502 . S
C388 C390 1.561 . S
C388 C391 1.526 . S
C389 H373 0.959 . S
C389 H374 0.959 . S
C389 H375 0.961 . S
C389 C388 1.502 . S
C390 H376 0.960 . S
C390 H377 0.961 . S
C390 H378 0.959 1_556 S
C390 C388 1.561 . S
C391 C388 1.526 . S
C391 C392 1.396 . S
C391 C396 1.390 . S
C392 C386 1.465 . S
C392 C391 1.396 . S
C392 C393 1.399 1_556 S
C393 H379 0.929 . S
C393 C392 1.399 1_554 S
C393 C394 1.385 . S
C394 H380 0.931 . S
C394 C393 1.385 . S
C394 C395 1.389 1_554 S
C395 C394 1.389 1_556 S
C395 C396 1.387 . S
C396 H381 0.930 . S
C396 C391 1.390 . S
C396 C395 1.387 . S
H397 C409 0.930 . S
H398 C411 0.930 . S
H399 C412 0.930 . S
H400 C416 0.959 . S
H401 C416 0.959 . S
H402 C416 0.961 . S
H403 C417 0.960 . S
H404 C417 0.961 . S
H405 C417 0.959 . S
H406 C420 0.929 . S
H407 C421 0.931 . S
H408 C423 0.930 . S
C409 H397 0.930 . S
C409 C410 1.399 . S
C409 C414 1.399 . S
C410 C409 1.399 . S
C410 C411 1.376 . S
C411 H398 0.930 . S
C411 C410 1.376 . S
C411 C412 1.388 . S
C412 H399 0.930 . S
C412 C411 1.388 . S
C412 C413 1.390 . S
C413 C412 1.390 . S
C413 C414 1.394 . S
C413 C419 1.465 . S
C414 C409 1.399 . S
C414 C413 1.394 . S
C414 C415 1.516 . S
C415 C414 1.516 . S
C415 C416 1.502 . S
C415 C417 1.561 . S
C415 C418 1.526 . S
C416 H400 0.959 . S
C416 H401 0.959 . S
C416 H402 0.961 . S
C416 C415 1.502 . S
C417 H403 0.960 . S
C417 H404 0.961 . S
C417 H405 0.959 . S
C417 C415 1.561 . S
C418 C415 1.526 . S
C418 C419 1.396 . S
C418 C423 1.390 . S
C419 C413 1.465 . S
C419 C418 1.396 . S
C419 C420 1.399 . S
C420 H406 0.929 . S
C420 C419 1.399 . S
C420 C421 1.385 . S
C421 H407 0.931 . S
C421 C420 1.385 . S
C421 C422 1.389 . S
C422 C421 1.389 . S
C422 C423 1.387 . S
C423 H408 0.930 . S
C423 C418 1.390 . S
C423 C422 1.387 . S
H424 C436 0.930 . S
H425 C438 0.930 . S
H426 C439 0.930 . S
H427 C443 0.959 . S
H428 C443 0.959 . S
H429 C443 0.961 . S
H430 C444 0.960 1_655 S
H431 C444 0.961 1_655 S
H432 C444 0.959 . S
H433 C447 0.929 . S
H434 C448 0.931 . S
H435 C450 0.930 . S
C436 H424 0.930 . S
C436 C437 1.399 . S
C436 C441 1.399 . S
C437 C436 1.399 . S
C437 C438 1.376 . S
C438 H425 0.930 . S
C438 C437 1.376 . S
C438 C439 1.388 . S
C439 H426 0.930 . S
C439 C438 1.388 . S
C439 C440 1.390 . S
C440 C439 1.390 . S
C440 C441 1.394 . S
C440 C446 1.465 . S
C441 C436 1.399 . S
C441 C440 1.394 . S
C441 C442 1.516 . S
C442 C441 1.516 . S
C442 C443 1.502 . S
C442 C444 1.561 . S
C442 C445 1.526 . S
C443 H427 0.959 . S
C443 H428 0.959 . S
C443 H429 0.961 . S
C443 C442 1.502 . S
C444 H430 0.960 1_455 S
C444 H431 0.961 1_455 S
C444 H432 0.959 . S
C444 C442 1.561 . S
C445 C442 1.526 . S
C445 C446 1.396 . S
C445 C450 1.390 . S
C446 C440 1.465 . S
C446 C445 1.396 . S
C446 C447 1.399 . S
C447 H433 0.929 . S
C447 C446 1.399 . S
C447 C448 1.385 . S
C448 H434 0.931 . S
C448 C447 1.385 . S
C448 C449 1.389 . S
C449 C448 1.389 . S
C449 C450 1.387 . S
C450 H435 0.930 . S
C450 C445 1.390 . S
C450 C449 1.387 . S
H451 C463 0.930 . S
H452 C465 0.930 . S
H453 C466 0.930 . S
H454 C470 0.959 . S
H455 C470 0.959 . S
H456 C470 0.961 . S
H457 C471 0.960 . S
H458 C471 0.961 . S
H459 C471 0.959 . S
H460 C474 0.929 . S
H461 C475 0.931 . S
H462 C477 0.930 . S
C463 H451 0.930 . S
C463 C464 1.399 . S
C463 C468 1.399 . S
C464 C463 1.399 . S
C464 C465 1.376 1_556 S
C465 H452 0.930 . S
C465 C464 1.376 1_554 S
C465 C466 1.388 . S
C466 H453 0.930 . S
C466 C465 1.388 . S
C466 C467 1.390 . S
C467 C466 1.390 . S
C467 C468 1.394 1_554 S
C467 C473 1.465 . S
C468 C463 1.399 . S
C468 C467 1.394 1_556 S
C468 C469 1.516 . S
C469 C468 1.516 . S
C469 C470 1.502 . S
C469 C471 1.561 . S
C469 C472 1.526 . S
C470 H454 0.959 . S
C470 H455 0.959 . S
C470 H456 0.961 . S
C470 C469 1.502 . S
C471 H457 0.960 . S
C471 H458 0.961 . S
C471 H459 0.959 . S
C471 C469 1.561 . S
C472 C469 1.526 . S
C472 C473 1.396 1_556 S
C472 C477 1.390 . S
C473 C467 1.465 . S
C473 C472 1.396 1_554 S
C473 C474 1.399 . S
C474 H460 0.929 . S
C474 C473 1.399 . S
C474 C475 1.385 . S
C475 H461 0.931 . S
C475 C474 1.385 . S
C475 C476 1.389 . S
C476 C475 1.389 . S
C476 C477 1.387 1_554 S
C477 H462 0.930 . S
C477 C472 1.390 . S
C477 C476 1.387 1_556 S
H478 C490 0.930 . S
H479 C492 0.930 . S
H480 C493 0.930 . S
H481 C497 0.959 . S
H482 C497 0.959 . S
H483 C497 0.961 . S
H484 C498 0.960 . S
H485 C498 0.966 . S
H486 C498 0.959 . S
H487 C501 0.929 . S
H488 C502 0.931 . S
H489 C504 0.930 1_455 S
C490 H478 0.930 . S
C490 C491 1.399 . S
C490 C495 1.399 . S
C491 C490 1.399 . S
C491 C492 1.376 . S
C492 H479 0.930 . S
C492 C491 1.376 . S
C492 C493 1.388 . S
C493 H480 0.930 . S
C493 C492 1.388 . S
C493 C494 1.390 . S
C494 C493 1.390 . S
C494 C495 1.394 . S
C494 C500 1.465 . S
C495 C490 1.399 . S
C495 C494 1.394 . S
C495 C496 1.516 . S
C496 C495 1.516 . S
C496 C497 1.502 1_655 S
C496 C498 1.561 . S
C496 C499 1.526 . S
C497 H481 0.959 . S
C497 H482 0.959 . S
C497 H483 0.961 . S
C497 C496 1.502 1_455 S
C498 H484 0.960 . S
C498 H485 0.966 . S
C498 H486 0.959 . S
C498 C496 1.561 . S
C499 C496 1.526 . S
C499 C500 1.396 . S
C499 C504 1.390 . S
C500 C494 1.465 . S
C500 C499 1.396 . S
C500 C501 1.399 . S
C501 H487 0.929 . S
C501 C500 1.399 . S
C501 C502 1.385 . S
C502 H488 0.931 . S
C502 C501 1.385 . S
C502 C503 1.389 . S
C503 C502 1.389 . S
C503 C504 1.387 . S
C504 H489 0.930 1_655 S
C504 C499 1.390 . S
C504 C503 1.387 . S
H505 C517 0.930 . S
H506 C519 0.930 . S
H507 C520 0.930 . S
H508 C524 0.959 . S
H509 C524 0.959 . S
H510 C524 0.961 . S
H511 C525 0.960 . S
H512 C525 0.961 . S
H513 C525 0.959 . S
H514 C528 0.929 . S
H515 C529 0.931 . S
H516 C531 0.930 . S
C517 H505 0.930 . S
C517 C518 1.399 . S
C517 C522 1.399 . S
C518 C517 1.399 . S
C518 C519 1.376 . S
C519 H506 0.930 . S
C519 C518 1.376 . S
C519 C520 1.388 . S
C520 H507 0.930 . S
C520 C519 1.388 . S
C520 C521 1.390 . S
C521 C520 1.390 . S
C521 C522 1.394 . S
C521 C527 1.465 . S
C522 C517 1.399 . S
C522 C521 1.394 . S
C522 C523 1.516 . S
C523 C522 1.516 . S
C523 C524 1.502 . S
C523 C525 1.561 . S
C523 C526 1.526 . S
C524 H508 0.959 . S
C524 H509 0.959 . S
C524 H510 0.961 . S
C524 C523 1.502 . S
C525 H511 0.960 . S
C525 H512 0.961 . S
C525 H513 0.959 . S
C525 C523 1.561 . S
C526 C523 1.526 . S
C526 C527 1.396 . S
C526 C531 1.390 . S
C527 C521 1.465 . S
C527 C526 1.396 . S
C527 C528 1.399 . S
C528 H514 0.929 . S
C528 C527 1.399 . S
C528 C529 1.385 . S
C529 H515 0.931 . S
C529 C528 1.385 . S
C529 C530 1.389 . S
C530 C529 1.389 . S
C530 C531 1.387 . S
C531 H516 0.930 . S
C531 C526 1.390 . S
C531 C530 1.387 . S
H532 C544 0.930 . S
H533 C546 0.930 . S
H534 C547 0.930 1_545 S
H535 C551 0.960 . S
H536 C551 0.959 . S
H537 C551 0.961 . S
H538 C552 0.960 . S
H539 C552 0.961 . S
H540 C552 0.959 . S
H541 C555 0.929 . S
H542 C556 0.931 . S
H543 C558 0.930 . S
C544 H532 0.930 . S
C544 C545 1.399 . S
C544 C549 1.399 . S
C545 C544 1.399 . S
C545 C546 1.376 . S
C546 H533 0.930 . S
C546 C545 1.376 . S
C546 C547 1.388 . S
C547 H534 0.930 1_565 S
C547 C546 1.388 . S
C547 C548 1.390 . S
C548 C547 1.390 . S
C548 C549 1.394 . S
C548 C554 1.465 . S
C549 C544 1.399 . S
C549 C548 1.394 . S
C549 C550 1.516 . S
C550 C549 1.516 . S
C550 C551 1.502 . S
C550 C552 1.561 . S
C550 C553 1.526 . S
C551 H535 0.960 . S
C551 H536 0.959 . S
C551 H537 0.961 . S
C551 C550 1.502 . S
C552 H538 0.960 . S
C552 H539 0.961 . S
C552 H540 0.959 . S
C552 C550 1.561 . S
C553 C550 1.526 . S
C553 C554 1.396 . S
C553 C558 1.390 . S
C554 C548 1.465 . S
C554 C553 1.396 . S
C554 C555 1.399 1_565 S
C555 H541 0.929 . S
C555 C554 1.399 1_545 S
C555 C556 1.385 . S
C556 H542 0.931 . S
C556 C555 1.385 . S
C556 C557 1.389 1_545 S
C557 C556 1.389 1_565 S
C557 C558 1.387 . S
C558 H543 0.930 . S
C558 C553 1.390 . S
C558 C557 1.387 . S
H559 C571 0.930 . S
H560 C573 0.930 . S
H561 C574 0.930 . S
H562 C578 0.959 . S
H563 C578 0.959 . S
H564 C578 0.961 . S
H565 C579 0.960 . S
H566 C579 0.961 . S
H567 C579 0.959 . S
H568 C582 0.929 . S
H569 C583 0.931 . S
H570 C585 0.930 . S
C571 H559 0.930 . S
C571 C572 1.399 . S
C571 C576 1.399 . S
C572 C571 1.399 . S
C572 C573 1.376 . S
C573 H560 0.930 . S
C573 C572 1.376 . S
C573 C574 1.388 . S
C574 H561 0.930 . S
C574 C573 1.388 . S
C574 C575 1.390 . S
C575 C574 1.390 . S
C575 C576 1.394 . S
C575 C581 1.465 . S
C576 C571 1.399 . S
C576 C575 1.394 . S
C576 C577 1.516 . S
C577 C576 1.516 . S
C577 C578 1.502 . S
C577 C579 1.561 . S
C577 C580 1.526 . S
C578 H562 0.959 . S
C578 H563 0.959 . S
C578 H564 0.961 . S
C578 C577 1.502 . S
C579 H565 0.960 . S
C579 H566 0.961 . S
C579 H567 0.959 . S
C579 C577 1.561 . S
C580 C577 1.526 . S
C580 C581 1.396 . S
C580 C585 1.390 . S
C581 C575 1.465 . S
C581 C580 1.396 . S
C581 C582 1.399 . S
C582 H568 0.929 . S
C582 C581 1.399 . S
C582 C583 1.385 . S
C583 H569 0.931 . S
C583 C582 1.385 . S
C583 C584 1.389 . S
C584 C583 1.389 . S
C584 C585 1.387 . S
C585 H570 0.930 . S
C585 C580 1.390 . S
C585 C584 1.387 . S
H586 C598 0.930 . S
H587 C600 0.930 . S
H588 C601 0.930 . S
H589 C605 0.959 . S
H590 C605 0.959 . S
H591 C605 0.961 . S
H592 C606 0.960 . S
H593 C606 0.961 . S
H594 C606 0.959 . S
H595 C609 0.929 . S
H596 C610 0.931 . S
H597 C612 0.930 . S
C598 H586 0.930 . S
C598 C599 1.399 . S
C598 C603 1.399 . S
C599 C598 1.399 . S
C599 C600 1.376 . S
C600 H587 0.930 . S
C600 C599 1.376 . S
C600 C601 1.388 . S
C601 H588 0.930 . S
C601 C600 1.388 . S
C601 C602 1.390 . S
C602 C601 1.390 . S
C602 C603 1.394 . S
C602 C608 1.465 . S
C603 C598 1.399 . S
C603 C602 1.394 . S
C603 C604 1.516 . S
C604 C603 1.516 . S
C604 C605 1.502 . S
C604 C606 1.561 . S
C604 C607 1.526 . S
C605 H589 0.959 . S
C605 H590 0.959 . S
C605 H591 0.961 . S
C605 C604 1.502 . S
C606 H592 0.960 . S
C606 H593 0.961 . S
C606 H594 0.959 . S
C606 C604 1.561 . S
C607 C604 1.526 . S
C607 C608 1.396 . S
C607 C612 1.390 . S
C608 C602 1.465 . S
C608 C607 1.396 . S
C608 C609 1.399 . S
C609 H595 0.929 . S
C609 C608 1.399 . S
C609 C610 1.385 . S
C610 H596 0.931 . S
C610 C609 1.385 . S
C610 C611 1.389 . S
C611 C610 1.389 . S
C611 C612 1.387 . S
C612 H597 0.930 . S
C612 C607 1.390 . S
C612 C611 1.387 . S
H613 C625 0.930 . S
H614 C627 0.930 . S
H615 C628 0.930 . S
H616 C632 0.959 . S
H617 C632 0.959 . S
H618 C632 0.961 . S
H619 C633 0.960 . S
H620 C633 0.961 . S
H621 C633 0.959 . S
H622 C636 0.929 . S
H623 C637 0.931 . S
H624 C639 0.930 . S
C625 H613 0.930 . S
C625 C626 1.399 . S
C625 C630 1.399 . S
C626 C625 1.399 . S
C626 C627 1.376 . S
C627 H614 0.930 . S
C627 C626 1.376 . S
C627 C628 1.388 . S
C628 H615 0.930 . S
C628 C627 1.388 . S
C628 C629 1.390 . S
C629 C628 1.390 . S
C629 C630 1.394 . S
C629 C635 1.465 . S
C630 C625 1.399 . S
C630 C629 1.394 . S
C630 C631 1.516 . S
C631 C630 1.516 . S
C631 C632 1.502 . S
C631 C633 1.561 . S
C631 C634 1.526 . S
C632 H616 0.959 . S
C632 H617 0.959 . S
C632 H618 0.961 . S
C632 C631 1.502 . S
C633 H619 0.960 . S
C633 H620 0.961 . S
C633 H621 0.959 . S
C633 C631 1.561 . S
C634 C631 1.526 . S
C634 C635 1.396 . S
C634 C639 1.390 . S
C635 C629 1.465 . S
C635 C634 1.396 . S
C635 C636 1.399 . S
C636 H622 0.929 . S
C636 C635 1.399 . S
C636 C637 1.385 . S
C637 H623 0.931 . S
C637 C636 1.385 . S
C637 C638 1.389 . S
C638 C637 1.389 . S
C638 C639 1.387 . S
C639 H624 0.930 . S
C639 C634 1.390 . S
C639 C638 1.387 . S
H640 C652 0.930 1_554 S
H641 C654 0.930 . S
H642 C655 0.930 . S
H643 C659 0.959 . S
H644 C659 0.959 . S
H645 C659 0.961 . S
H646 C660 0.963 . S
H647 C660 0.958 1_545 S
H648 C660 0.953 1_545 S
H649 C663 0.931 . S
H650 C664 0.931 . S
H651 C666 0.930 . S
C652 H640 0.930 1_556 S
C652 C653 1.399 . S
C652 C657 1.399 1_556 S
C653 C652 1.399 . S
C653 C654 1.376 . S
C654 H641 0.930 . S
C654 C653 1.376 . S
C654 C655 1.388 . S
C655 H642 0.930 . S
C655 C654 1.388 . S
C655 C656 1.390 . S
C656 C655 1.390 . S
C656 C657 1.394 1_556 S
C656 C662 1.465 . S
C657 C652 1.399 1_554 S
C657 C656 1.394 1_554 S
C657 C658 1.516 . S
C658 C657 1.516 . S
C658 C659 1.502 . S
C658 C660 1.566 . S
C658 C661 1.526 . S
C659 H643 0.959 . S
C659 H644 0.959 . S
C659 H645 0.961 . S
C659 C658 1.502 . S
C660 H646 0.963 . S
C660 H647 0.958 1_565 S
C660 H648 0.953 1_565 S
C660 C658 1.566 . S
C661 C658 1.526 . S
C661 C662 1.396 1_554 S
C661 C666 1.390 . S
C662 C656 1.465 . S
C662 C661 1.396 1_556 S
C662 C663 1.396 1_565 S
C663 H649 0.931 . S
C663 C662 1.396 1_545 S
C663 C664 1.386 . S
C664 H650 0.931 . S
C664 C663 1.386 . S
C664 C665 1.389 1_546 S
C665 C664 1.389 1_564 S
C665 C666 1.387 . S
C666 H651 0.930 . S
C666 C661 1.390 . S
C666 C665 1.387 . S
H667 C679 0.930 . S
H668 C681 0.930 . S
H669 C682 0.930 . S
H670 C686 0.959 . S
H671 C686 0.959 . S
H672 C686 0.961 . S
H673 C687 0.960 . S
H674 C687 0.961 . S
H675 C687 0.959 . S
H676 C690 0.929 . S
H677 C691 0.931 . S
H678 C693 0.930 . S
C679 H667 0.930 . S
C679 C680 1.399 . S
C679 C684 1.399 . S
C680 C679 1.399 . S
C680 C681 1.376 . S
C681 H668 0.930 . S
C681 C680 1.376 . S
C681 C682 1.388 . S
C682 H669 0.930 . S
C682 C681 1.388 . S
C682 C683 1.390 . S
C683 C682 1.390 . S
C683 C684 1.394 . S
C683 C689 1.465 . S
C684 C679 1.399 . S
C684 C683 1.394 . S
C684 C685 1.516 . S
C685 C684 1.516 . S
C685 C686 1.502 . S
C685 C687 1.561 . S
C685 C688 1.526 . S
C686 H670 0.959 . S
C686 H671 0.959 . S
C686 H672 0.961 . S
C686 C685 1.502 . S
C687 H673 0.960 . S
C687 H674 0.961 . S
C687 H675 0.959 . S
C687 C685 1.561 . S
C688 C685 1.526 . S
C688 C689 1.396 . S
C688 C693 1.390 . S
C689 C683 1.465 . S
C689 C688 1.396 . S
C689 C690 1.399 . S
C690 H676 0.929 . S
C690 C689 1.399 . S
C690 C691 1.385 . S
C691 H677 0.931 . S
C691 C690 1.385 . S
C691 C692 1.389 . S
C692 C691 1.389 . S
C692 C693 1.387 . S
C693 H678 0.930 . S
C693 C688 1.390 . S
C693 C692 1.387 . S
H694 C706 0.930 . S
H695 C708 0.930 . S
H696 C709 0.930 . S
H697 C713 0.959 . S
H698 C713 0.959 . S
H699 C713 0.961 . S
H700 C714 0.960 . S
H701 C714 0.961 1_556 S
H702 C714 0.959 . S
H703 C717 0.929 . S
H704 C718 0.931 . S
H705 C720 0.930 . S
C706 H694 0.930 . S
C706 C707 1.399 . S
C706 C711 1.399 . S
C707 C706 1.399 . S
C707 C708 1.376 . S
C708 H695 0.930 . S
C708 C707 1.376 . S
C708 C709 1.388 . S
C709 H696 0.930 . S
C709 C708 1.388 . S
C709 C710 1.390 . S
C710 C709 1.390 . S
C710 C711 1.394 . S
C710 C716 1.465 . S
C711 C706 1.399 . S
C711 C710 1.394 . S
C711 C712 1.516 . S
C712 C711 1.516 . S
C712 C713 1.502 . S
C712 C714 1.561 . S
C712 C715 1.526 . S
C713 H697 0.959 . S
C713 H698 0.959 . S
C713 H699 0.961 . S
C713 C712 1.502 . S
C714 H700 0.960 . S
C714 H701 0.961 1_554 S
C714 H702 0.959 . S
C714 C712 1.561 . S
C715 C712 1.526 . S
C715 C716 1.396 . S
C715 C720 1.390 . S
C716 C710 1.465 . S
C716 C715 1.396 . S
C716 C717 1.399 . S
C717 H703 0.929 . S
C717 C716 1.399 . S
C717 C718 1.385 . S
C718 H704 0.931 . S
C718 C717 1.385 . S
C718 C719 1.389 . S
C719 C718 1.389 . S
C719 C720 1.387 . S
C720 H705 0.930 . S
C720 C715 1.390 . S
C720 C719 1.387 . S
H721 C733 0.930 . S
H722 C735 0.930 . S
H723 C736 0.930 . S
H724 C740 0.959 . S
H725 C740 0.959 . S
H726 C740 0.961 . S
H727 C741 0.960 . S
H728 C741 0.961 . S
H729 C741 0.959 . S
H730 C744 0.929 . S
H731 C745 0.931 . S
H732 C747 0.930 . S
C733 H721 0.930 . S
C733 C734 1.399 . S
C733 C738 1.399 . S
C734 C733 1.399 . S
C734 C735 1.376 . S
C735 H722 0.930 . S
C735 C734 1.376 . S
C735 C736 1.388 . S
C736 H723 0.930 . S
C736 C735 1.388 . S
C736 C737 1.390 . S
C737 C736 1.390 . S
C737 C738 1.394 . S
C737 C743 1.465 . S
C738 C733 1.399 . S
C738 C737 1.394 . S
C738 C739 1.516 . S
C739 C738 1.516 . S
C739 C740 1.502 . S
C739 C741 1.561 . S
C739 C742 1.526 . S
C740 H724 0.959 . S
C740 H725 0.959 . S
C740 H726 0.961 . S
C740 C739 1.502 . S
C741 H727 0.960 . S
C741 H728 0.961 . S
C741 H729 0.959 . S
C741 C739 1.561 . S
C742 C739 1.526 . S
C742 C743 1.396 . S
C742 C747 1.390 . S
C743 C737 1.465 . S
C743 C742 1.396 . S
C743 C744 1.399 . S
C744 H730 0.929 . S
C744 C743 1.399 . S
C744 C745 1.385 . S
C745 H731 0.931 . S
C745 C744 1.385 . S
C745 C746 1.389 . S
C746 C745 1.389 . S
C746 C747 1.387 . S
C747 H732 0.930 . S
C747 C742 1.390 . S
C747 C746 1.387 . S
H748 C760 0.930 . S
H749 C762 0.930 . S
H750 C763 0.930 . S
H751 C767 0.959 . S
H752 C767 0.959 . S
H753 C767 0.961 . S
H754 C768 0.960 . S
H755 C768 0.961 . S
H756 C768 0.959 1_455 S
H757 C771 0.929 1_455 S
H758 C772 0.931 . S
H759 C774 0.930 . S
C760 H748 0.930 . S
C760 C761 1.399 . S
C760 C765 1.399 . S
C761 C760 1.399 . S
C761 C762 1.376 1_556 S
C762 H749 0.930 . S
C762 C761 1.376 1_554 S
C762 C763 1.388 . S
C763 H750 0.930 . S
C763 C762 1.388 . S
C763 C764 1.390 1_554 S
C764 C763 1.390 1_556 S
C764 C765 1.394 . S
C764 C770 1.465 1_556 S
C765 C760 1.399 . S
C765 C764 1.394 . S
C765 C766 1.516 . S
C766 C765 1.516 . S
C766 C767 1.502 . S
C766 C768 1.561 . S
C766 C769 1.526 . S
C767 H751 0.959 . S
C767 H752 0.959 . S
C767 H753 0.961 . S
C767 C766 1.502 . S
C768 H754 0.960 . S
C768 H755 0.961 . S
C768 H756 0.959 1_655 S
C768 C766 1.561 . S
C769 C766 1.526 . S
C769 C770 1.396 1_556 S
C769 C774 1.390 . S
C770 C764 1.465 1_554 S
C770 C769 1.396 1_554 S
C770 C771 1.399 . S
C771 H757 0.929 1_655 S
C771 C770 1.399 . S
C771 C772 1.385 1_655 S
C772 H758 0.931 . S
C772 C771 1.385 1_455 S
C772 C773 1.389 1_454 S
C773 C772 1.389 1_656 S
C773 C774 1.387 . S
C774 H759 0.930 . S
C774 C769 1.390 . S
C774 C773 1.387 . S
H775 C787 0.930 . S
H776 C789 0.930 . S
H777 C790 0.930 . S
H778 C794 0.959 . S
H779 C794 0.959 . S
H780 C794 0.961 . S
H781 C795 0.960 . S
H782 C795 0.961 . S
H783 C795 0.959 . S
H784 C798 0.929 . S
H785 C799 0.931 . S
H786 C801 0.930 . S
C787 H775 0.930 . S
C787 C788 1.399 . S
C787 C792 1.399 . S
C788 C787 1.399 . S
C788 C789 1.376 . S
C789 H776 0.930 . S
C789 C788 1.376 . S
C789 C790 1.388 . S
C790 H777 0.930 . S
C790 C789 1.388 . S
C790 C791 1.390 . S
C791 C790 1.390 . S
C791 C792 1.394 . S
C791 C797 1.465 . S
C792 C787 1.399 . S
C792 C791 1.394 . S
C792 C793 1.516 . S
C793 C792 1.516 . S
C793 C794 1.502 . S
C793 C795 1.561 . S
C793 C796 1.526 . S
C794 H778 0.959 . S
C794 H779 0.959 . S
C794 H780 0.961 . S
C794 C793 1.502 . S
C795 H781 0.960 . S
C795 H782 0.961 . S
C795 H783 0.959 . S
C795 C793 1.561 . S
C796 C793 1.526 . S
C796 C797 1.396 . S
C796 C801 1.390 . S
C797 C791 1.465 . S
C797 C796 1.396 . S
C797 C798 1.399 . S
C798 H784 0.929 . S
C798 C797 1.399 . S
C798 C799 1.385 . S
C799 H785 0.931 . S
C799 C798 1.385 . S
C799 C800 1.389 . S
C800 C799 1.389 . S
C800 C801 1.387 . S
C801 H786 0.930 . S
C801 C796 1.390 . S
C801 C800 1.387 . S
H802 C814 0.930 . S
H803 C816 0.930 . S
H804 C817 0.930 . S
H805 C821 0.959 . S
H806 C821 0.959 . S
H807 C821 0.961 . S
H808 C822 0.960 . S
H809 C822 0.961 . S
H810 C822 0.959 . S
H811 C825 0.929 . S
H812 C826 0.931 . S
H813 C828 0.930 . S
C814 H802 0.930 . S
C814 C815 1.399 . S
C814 C819 1.399 . S
C815 C814 1.399 . S
C815 C816 1.376 . S
C816 H803 0.930 . S
C816 C815 1.376 . S
C816 C817 1.388 . S
C817 H804 0.930 . S
C817 C816 1.388 . S
C817 C818 1.390 . S
C818 C817 1.390 . S
C818 C819 1.394 . S
C818 C824 1.465 . S
C819 C814 1.399 . S
C819 C818 1.394 . S
C819 C820 1.516 . S
C820 C819 1.516 . S
C820 C821 1.502 . S
C820 C822 1.561 . S
C820 C823 1.526 . S
C821 H805 0.959 . S
C821 H806 0.959 . S
C821 H807 0.961 . S
C821 C820 1.502 . S
C822 H808 0.960 . S
C822 H809 0.961 . S
C822 H810 0.959 . S
C822 C820 1.561 . S
C823 C820 1.526 . S
C823 C824 1.396 . S
C823 C828 1.390 . S
C824 C818 1.465 . S
C824 C823 1.396 . S
C824 C825 1.399 . S
C825 H811 0.929 . S
C825 C824 1.399 . S
C825 C826 1.385 . S
C826 H812 0.931 . S
C826 C825 1.385 . S
C826 C827 1.389 . S
C827 C826 1.389 . S
C827 C828 1.387 . S
C828 H813 0.930 . S
C828 C823 1.390 . S
C828 C827 1.387 . S
H829 C841 0.930 . S
H830 C843 0.930 . S
H831 C844 0.930 . S
H832 C848 0.959 . S
H833 C848 0.959 . S
H834 C848 0.961 . S
H835 C849 0.960 . S
H836 C849 0.961 . S
H837 C849 0.959 . S
H838 C852 0.929 . S
H839 C853 0.931 . S
H840 C855 0.930 . S
C841 H829 0.930 . S
C841 C842 1.399 . S
C841 C846 1.399 . S
C842 C841 1.399 . S
C842 C843 1.376 . S
C843 H830 0.930 . S
C843 C842 1.376 . S
C843 C844 1.388 . S
C844 H831 0.930 . S
C844 C843 1.388 . S
C844 C845 1.390 . S
C845 C844 1.390 . S
C845 C846 1.394 . S
C845 C851 1.465 . S
C846 C841 1.399 . S
C846 C845 1.394 . S
C846 C847 1.516 . S
C847 C846 1.516 . S
C847 C848 1.502 . S
C847 C849 1.561 . S
C847 C850 1.526 . S
C848 H832 0.959 . S
C848 H833 0.959 . S
C848 H834 0.961 . S
C848 C847 1.502 . S
C849 H835 0.960 . S
C849 H836 0.961 . S
C849 H837 0.959 . S
C849 C847 1.561 . S
C850 C847 1.526 . S
C850 C851 1.396 . S
C850 C855 1.390 . S
C851 C845 1.465 . S
C851 C850 1.396 . S
C851 C852 1.399 . S
C852 H838 0.929 . S
C852 C851 1.399 . S
C852 C853 1.385 . S
C853 H839 0.931 . S
C853 C852 1.385 . S
C853 C854 1.389 . S
C854 C853 1.389 . S
C854 C855 1.387 . S
C855 H840 0.930 . S
C855 C850 1.390 . S
C855 C854 1.387 . S
C221 C5 2.384 . S
C233 C104 2.488 . S
C248 C18 1.150 . S
C260 N124 1.187 . S
C287 C158 1.754 . S
C275 C30 1.742 . S
C302 C41 1.135 . S
C314 N192 1.012 . S
C341 C145 2.613 . S
C329 C7 2.567 . S
C368 N102 1.354 . S
C356 C16 1.018 . S
C395 C179 2.053 1_556 S
C383 C29 1.961 . S
C422 N154 0.775 . S
C410 C38 0.683 . S
C437 C8 1.918 . S
C449 C194 1.915 . S
C476 C128 1.837 . S
C464 C27 1.505 . S
C491 C40 1.407 . S
C503 C89 1.405 . S
C518 C19 1.024 . S
C530 C175 1.061 . S
C557 C115 2.218 . S
C545 C51 2.171 . S
C572 C62 1.183 . S
C584 N132 1.274 . S
C599 C74 1.837 . S
C611 C149 1.855 . S
C626 C84 1.132 . S
C638 N184 1.128 . S
C653 C49 2.486 . S
C665 C134 2.640 1_565 S
C692 N94 1.095 . S
C680 C63 1.071 . S
C719 C188 1.880 . S
C707 C71 1.613 . S
C746 N162 0.784 . S
C734 C85 0.766 . S
C761 C52 1.857 . S
C773 C205 1.851 1_656 S
C800 C119 1.939 . S
C788 C73 1.773 . S
C827 C98 1.208 . S
C815 C82 1.075 . S
C842 C60 1.197 . S
C854 C164 1.611 . S
