# Generated by pormake.
# Topology gar, (4,6)-cn, num edge types: 1
# Building blocks:
#     Node 0, Type 0, BuildingBlock: NAHDIM_clean_sbu_0, # of connection points: 4
#     Node 1, Type 0, BuildingBlock: NAHDIM_clean_sbu_0, # of connection points: 4
#     Node 2, Type 0, BuildingBlock: NAHDIM_clean_sbu_0, # of connection points: 4
#     Node 3, Type 0, BuildingBlock: NAHDIM_clean_sbu_0, # of connection points: 4
#     Node 4, Type 0, BuildingBlock: NAHDIM_clean_sbu_0, # of connection points: 4
#     Node 5, Type 0, BuildingBlock: NAHDIM_clean_sbu_0, # of connection points: 4
#     Node 6, Type 0, BuildingBlock: NAHDIM_clean_sbu_0, # of connection points: 4
#     Node 7, Type 0, BuildingBlock: NAHDIM_clean_sbu_0, # of connection points: 4
#     Node 8, Type 0, BuildingBlock: NAHDIM_clean_sbu_0, # of connection points: 4
#     Node 9, Type 0, BuildingBlock: NAHDIM_clean_sbu_0, # of connection points: 4
#     Node 10, Type 0, BuildingBlock: NAHDIM_clean_sbu_0, # of connection points: 4
#     Node 11, Type 0, BuildingBlock: NAHDIM_clean_sbu_0, # of connection points: 4
#     Node 12, Type 0, BuildingBlock: NAHDIM_clean_sbu_0, # of connection points: 4
#     Node 13, Type 0, BuildingBlock: NAHDIM_clean_sbu_0, # of connection points: 4
#     Node 14, Type 0, BuildingBlock: NAHDIM_clean_sbu_0, # of connection points: 4
#     Node 15, Type 0, BuildingBlock: NAHDIM_clean_sbu_0, # of connection points: 4
#     Node 16, Type 0, BuildingBlock: NAHDIM_clean_sbu_0, # of connection points: 4
#     Node 17, Type 0, BuildingBlock: NAHDIM_clean_sbu_0, # of connection points: 4
#     Node 18, Type 0, BuildingBlock: NAHDIM_clean_sbu_0, # of connection points: 4
#     Node 19, Type 0, BuildingBlock: NAHDIM_clean_sbu_0, # of connection points: 4
#     Node 20, Type 0, BuildingBlock: NAHDIM_clean_sbu_0, # of connection points: 4
#     Node 21, Type 0, BuildingBlock: NAHDIM_clean_sbu_0, # of connection points: 4
#     Node 22, Type 0, BuildingBlock: NAHDIM_clean_sbu_0, # of connection points: 4
#     Node 23, Type 0, BuildingBlock: NAHDIM_clean_sbu_0, # of connection points: 4
#     Node 24, Type 1, BuildingBlock: NUHQIS_clean_sbu_0, # of connection points: 6
#     Node 25, Type 1, BuildingBlock: NUHQIS_clean_sbu_0, # of connection points: 6
#     Node 26, Type 1, BuildingBlock: NUHQIS_clean_sbu_0, # of connection points: 6
#     Node 27, Type 1, BuildingBlock: NUHQIS_clean_sbu_0, # of connection points: 6
#     Node 28, Type 1, BuildingBlock: NUHQIS_clean_sbu_0, # of connection points: 6
#     Node 29, Type 1, BuildingBlock: NUHQIS_clean_sbu_0, # of connection points: 6
#     Node 30, Type 1, BuildingBlock: NUHQIS_clean_sbu_0, # of connection points: 6
#     Node 31, Type 1, BuildingBlock: NUHQIS_clean_sbu_0, # of connection points: 6
#     Node 32, Type 1, BuildingBlock: NUHQIS_clean_sbu_0, # of connection points: 6
#     Node 33, Type 1, BuildingBlock: NUHQIS_clean_sbu_0, # of connection points: 6
#     Node 34, Type 1, BuildingBlock: NUHQIS_clean_sbu_0, # of connection points: 6
#     Node 35, Type 1, BuildingBlock: NUHQIS_clean_sbu_0, # of connection points: 6
#     Node 36, Type 1, BuildingBlock: NUHQIS_clean_sbu_0, # of connection points: 6
#     Node 37, Type 1, BuildingBlock: NUHQIS_clean_sbu_0, # of connection points: 6
#     Node 38, Type 1, BuildingBlock: NUHQIS_clean_sbu_0, # of connection points: 6
#     Node 39, Type 1, BuildingBlock: NUHQIS_clean_sbu_0, # of connection points: 6
#     Edge 40, Type (0, 1), BuildingBlock: OJICUG_clean_linker_0, # of connection points: 2
#     Edge 41, Type (0, 1), BuildingBlock: OJICUG_clean_linker_0, # of connection points: 2
#     Edge 42, Type (0, 1), BuildingBlock: OJICUG_clean_linker_0, # of connection points: 2
#     Edge 43, Type (0, 1), BuildingBlock: OJICUG_clean_linker_0, # of connection points: 2
#     Edge 44, Type (0, 1), BuildingBlock: OJICUG_clean_linker_0, # of connection points: 2
#     Edge 45, Type (0, 1), BuildingBlock: OJICUG_clean_linker_0, # of connection points: 2
#     Edge 46, Type (0, 1), BuildingBlock: OJICUG_clean_linker_0, # of connection points: 2
#     Edge 47, Type (0, 1), BuildingBlock: OJICUG_clean_linker_0, # of connection points: 2
#     Edge 48, Type (0, 1), BuildingBlock: OJICUG_clean_linker_0, # of connection points: 2
#     Edge 49, Type (0, 1), BuildingBlock: OJICUG_clean_linker_0, # of connection points: 2
#     Edge 50, Type (0, 1), BuildingBlock: OJICUG_clean_linker_0, # of connection points: 2
#     Edge 51, Type (0, 1), BuildingBlock: OJICUG_clean_linker_0, # of connection points: 2
#     Edge 52, Type (0, 1), BuildingBlock: OJICUG_clean_linker_0, # of connection points: 2
#     Edge 53, Type (0, 1), BuildingBlock: OJICUG_clean_linker_0, # of connection points: 2
#     Edge 54, Type (0, 1), BuildingBlock: OJICUG_clean_linker_0, # of connection points: 2
#     Edge 55, Type (0, 1), BuildingBlock: OJICUG_clean_linker_0, # of connection points: 2
#     Edge 56, Type (0, 1), BuildingBlock: OJICUG_clean_linker_0, # of connection points: 2
#     Edge 57, Type (0, 1), BuildingBlock: OJICUG_clean_linker_0, # of connection points: 2
#     Edge 58, Type (0, 1), BuildingBlock: OJICUG_clean_linker_0, # of connection points: 2
#     Edge 59, Type (0, 1), BuildingBlock: OJICUG_clean_linker_0, # of connection points: 2
#     Edge 60, Type (0, 1), BuildingBlock: OJICUG_clean_linker_0, # of connection points: 2
#     Edge 61, Type (0, 1), BuildingBlock: OJICUG_clean_linker_0, # of connection points: 2
#     Edge 62, Type (0, 1), BuildingBlock: OJICUG_clean_linker_0, # of connection points: 2
#     Edge 63, Type (0, 1), BuildingBlock: OJICUG_clean_linker_0, # of connection points: 2
#     Edge 64, Type (0, 1), BuildingBlock: OJICUG_clean_linker_0, # of connection points: 2
#     Edge 65, Type (0, 1), BuildingBlock: OJICUG_clean_linker_0, # of connection points: 2
#     Edge 66, Type (0, 1), BuildingBlock: OJICUG_clean_linker_0, # of connection points: 2
#     Edge 67, Type (0, 1), BuildingBlock: OJICUG_clean_linker_0, # of connection points: 2
#     Edge 68, Type (0, 1), BuildingBlock: OJICUG_clean_linker_0, # of connection points: 2
#     Edge 69, Type (0, 1), BuildingBlock: OJICUG_clean_linker_0, # of connection points: 2
#     Edge 70, Type (0, 1), BuildingBlock: OJICUG_clean_linker_0, # of connection points: 2
#     Edge 71, Type (0, 1), BuildingBlock: OJICUG_clean_linker_0, # of connection points: 2
#     Edge 72, Type (0, 1), BuildingBlock: OJICUG_clean_linker_0, # of connection points: 2
#     Edge 73, Type (0, 1), BuildingBlock: OJICUG_clean_linker_0, # of connection points: 2
#     Edge 74, Type (0, 1), BuildingBlock: OJICUG_clean_linker_0, # of connection points: 2
#     Edge 75, Type (0, 1), BuildingBlock: OJICUG_clean_linker_0, # of connection points: 2
#     Edge 76, Type (0, 1), BuildingBlock: OJICUG_clean_linker_0, # of connection points: 2
#     Edge 77, Type (0, 1), BuildingBlock: OJICUG_clean_linker_0, # of connection points: 2
#     Edge 78, Type (0, 1), BuildingBlock: OJICUG_clean_linker_0, # of connection points: 2
#     Edge 79, Type (0, 1), BuildingBlock: OJICUG_clean_linker_0, # of connection points: 2
#     Edge 80, Type (0, 1), BuildingBlock: OJICUG_clean_linker_0, # of connection points: 2
#     Edge 81, Type (0, 1), BuildingBlock: OJICUG_clean_linker_0, # of connection points: 2
#     Edge 82, Type (0, 1), BuildingBlock: OJICUG_clean_linker_0, # of connection points: 2
#     Edge 83, Type (0, 1), BuildingBlock: OJICUG_clean_linker_0, # of connection points: 2
#     Edge 84, Type (0, 1), BuildingBlock: OJICUG_clean_linker_0, # of connection points: 2
#     Edge 85, Type (0, 1), BuildingBlock: OJICUG_clean_linker_0, # of connection points: 2
#     Edge 86, Type (0, 1), BuildingBlock: OJICUG_clean_linker_0, # of connection points: 2
#     Edge 87, Type (0, 1), BuildingBlock: OJICUG_clean_linker_0, # of connection points: 2
#     Edge 88, Type (0, 1), BuildingBlock: OJICUG_clean_linker_0, # of connection points: 2
#     Edge 89, Type (0, 1), BuildingBlock: OJICUG_clean_linker_0, # of connection points: 2
#     Edge 90, Type (0, 1), BuildingBlock: OJICUG_clean_linker_0, # of connection points: 2
#     Edge 91, Type (0, 1), BuildingBlock: OJICUG_clean_linker_0, # of connection points: 2
#     Edge 92, Type (0, 1), BuildingBlock: OJICUG_clean_linker_0, # of connection points: 2
#     Edge 93, Type (0, 1), BuildingBlock: OJICUG_clean_linker_0, # of connection points: 2
#     Edge 94, Type (0, 1), BuildingBlock: OJICUG_clean_linker_0, # of connection points: 2
#     Edge 95, Type (0, 1), BuildingBlock: OJICUG_clean_linker_0, # of connection points: 2
#     Edge 96, Type (0, 1), BuildingBlock: OJICUG_clean_linker_0, # of connection points: 2
#     Edge 97, Type (0, 1), BuildingBlock: OJICUG_clean_linker_0, # of connection points: 2
#     Edge 98, Type (0, 1), BuildingBlock: OJICUG_clean_linker_0, # of connection points: 2
#     Edge 99, Type (0, 1), BuildingBlock: OJICUG_clean_linker_0, # of connection points: 2
#     Edge 100, Type (0, 1), BuildingBlock: OJICUG_clean_linker_0, # of connection points: 2
#     Edge 101, Type (0, 1), BuildingBlock: OJICUG_clean_linker_0, # of connection points: 2
#     Edge 102, Type (0, 1), BuildingBlock: OJICUG_clean_linker_0, # of connection points: 2
#     Edge 103, Type (0, 1), BuildingBlock: OJICUG_clean_linker_0, # of connection points: 2
#     Edge 104, Type (0, 1), BuildingBlock: OJICUG_clean_linker_0, # of connection points: 2
#     Edge 105, Type (0, 1), BuildingBlock: OJICUG_clean_linker_0, # of connection points: 2
#     Edge 106, Type (0, 1), BuildingBlock: OJICUG_clean_linker_0, # of connection points: 2
#     Edge 107, Type (0, 1), BuildingBlock: OJICUG_clean_linker_0, # of connection points: 2
#     Edge 108, Type (0, 1), BuildingBlock: OJICUG_clean_linker_0, # of connection points: 2
#     Edge 109, Type (0, 1), BuildingBlock: OJICUG_clean_linker_0, # of connection points: 2
#     Edge 110, Type (0, 1), BuildingBlock: OJICUG_clean_linker_0, # of connection points: 2
#     Edge 111, Type (0, 1), BuildingBlock: OJICUG_clean_linker_0, # of connection points: 2
#     Edge 112, Type (0, 1), BuildingBlock: OJICUG_clean_linker_0, # of connection points: 2
#     Edge 113, Type (0, 1), BuildingBlock: OJICUG_clean_linker_0, # of connection points: 2
#     Edge 114, Type (0, 1), BuildingBlock: OJICUG_clean_linker_0, # of connection points: 2
#     Edge 115, Type (0, 1), BuildingBlock: OJICUG_clean_linker_0, # of connection points: 2
#     Edge 116, Type (0, 1), BuildingBlock: OJICUG_clean_linker_0, # of connection points: 2
#     Edge 117, Type (0, 1), BuildingBlock: OJICUG_clean_linker_0, # of connection points: 2
#     Edge 118, Type (0, 1), BuildingBlock: OJICUG_clean_linker_0, # of connection points: 2
#     Edge 119, Type (0, 1), BuildingBlock: OJICUG_clean_linker_0, # of connection points: 2
#     Edge 120, Type (0, 1), BuildingBlock: OJICUG_clean_linker_0, # of connection points: 2
#     Edge 121, Type (0, 1), BuildingBlock: OJICUG_clean_linker_0, # of connection points: 2
#     Edge 122, Type (0, 1), BuildingBlock: OJICUG_clean_linker_0, # of connection points: 2
#     Edge 123, Type (0, 1), BuildingBlock: OJICUG_clean_linker_0, # of connection points: 2
#     Edge 124, Type (0, 1), BuildingBlock: OJICUG_clean_linker_0, # of connection points: 2
#     Edge 125, Type (0, 1), BuildingBlock: OJICUG_clean_linker_0, # of connection points: 2
#     Edge 126, Type (0, 1), BuildingBlock: OJICUG_clean_linker_0, # of connection points: 2
#     Edge 127, Type (0, 1), BuildingBlock: OJICUG_clean_linker_0, # of connection points: 2
#     Edge 128, Type (0, 1), BuildingBlock: OJICUG_clean_linker_0, # of connection points: 2
#     Edge 129, Type (0, 1), BuildingBlock: OJICUG_clean_linker_0, # of connection points: 2
#     Edge 130, Type (0, 1), BuildingBlock: OJICUG_clean_linker_0, # of connection points: 2
#     Edge 131, Type (0, 1), BuildingBlock: OJICUG_clean_linker_0, # of connection points: 2
#     Edge 132, Type (0, 1), BuildingBlock: OJICUG_clean_linker_0, # of connection points: 2
#     Edge 133, Type (0, 1), BuildingBlock: OJICUG_clean_linker_0, # of connection points: 2
#     Edge 134, Type (0, 1), BuildingBlock: OJICUG_clean_linker_0, # of connection points: 2
#     Edge 135, Type (0, 1), BuildingBlock: OJICUG_clean_linker_0, # of connection points: 2
# Relax obj value: 0.318
# Max RMSD: 0.375
# Mean RMSD: 0.175
data_MOF--net-gar--node1-NAHDIM_clean_sbu_0--node2-NUHQIS_clean_sbu_0--edge1-OJICUG_clean_linker_0
_symmetry_space_group_name_H-M    P1
_symmetry_Int_Tables_number       1
_symmetry_cell_setting            triclinic
loop_
_symmetry_equiv_pos_as_xyz
'x, y, z'
_cell_length_a     43.566338
_cell_length_b     45.17383
_cell_length_c     41.562779
_cell_angle_alpha  93.273458
_cell_angle_beta   97.804454
_cell_angle_gamma 101.37313
loop_
_atom_site_label
_atom_site_type_symbol
_atom_site_fract_x
_atom_site_fract_y
_atom_site_fract_z
_atom_type_partial_charge
C0 C 0.16005 0.30682 0.37972 0.0
O1 O 0.14328 0.27897 0.37479 0.0
O2 O 0.10062 0.27182 0.4488 0.0
Zn3 Zn 0.10463 0.31988 0.42574 0.0
O4 O 0.10798 0.36579 0.45768 0.0
C5 C 1.0302 0.30318 0.39453 0.0
O6 O 1.02817 0.28169 0.41461 0.0
O7 O 0.14908 0.32592 0.39783 0.0
C8 C 0.10017 0.39037 0.44642 0.0
O9 O 0.09019 0.38849 0.41494 0.0
C10 C 0.0968 0.2608 0.477 0.0
O11 O 0.09434 0.28037 0.50065 0.0
O12 O 0.05817 0.31955 0.39374 0.0
C13 C 1.01491 0.81049 0.69667 0.0
O14 O 1.00594 0.79001 0.67166 0.0
O15 O 0.079 0.7798 0.63554 0.0
Zn16 Zn 0.08437 0.82694 0.66659 0.0
O17 O 0.08549 0.87303 0.64088 0.0
C18 C 0.14514 0.81982 0.71917 0.0
O19 O 0.12474 0.8012 0.73297 0.0
O20 O 0.04408 0.82621 0.69964 0.0
C21 C 0.09903 0.88687 0.61783 0.0
O22 O 0.11627 0.87194 0.60215 0.0
C23 C 0.09235 0.75706 0.64389 0.0
O24 O 0.11023 0.76113 0.67251 0.0
O25 O 0.13386 0.83271 0.69438 0.0
C26 C 0.66085 0.80918 0.87649 0.0
O27 O 0.64059 0.78395 0.86528 0.0
O28 O 0.60229 0.77191 0.94814 0.0
Zn29 Zn 0.6069 0.82015 0.92546 0.0
O30 O 0.60946 0.86579 0.95758 0.0
C31 C 0.53314 0.80385 0.8932 0.0
O32 O 0.53069 0.78261 0.91357 0.0
O33 O 0.6522 0.82621 0.89885 0.0
C34 C 0.6014 0.8903 0.94637 0.0
O35 O 0.59165 0.88851 0.91486 0.0
C36 C 0.59603 0.7603 0.97548 0.0
O37 O 0.5906 0.77919 0.99822 0.0
O38 O 0.56122 0.82 0.89257 0.0
C39 C 0.52616 0.33928 0.21149 0.0
O40 O 0.54144 0.36767 0.21443 0.0
O41 O 0.57858 0.27965 0.13386 0.0
Zn42 Zn 0.58187 0.32597 0.16575 0.0
O43 O 0.58289 0.37257 0.1408 0.0
C44 C 0.64173 0.31856 0.22003 0.0
O45 O 0.62127 0.29892 0.23267 0.0
O46 O 0.53817 0.31996 0.19479 0.0
C47 C 0.59601 0.38623 0.11738 0.0
O48 O 0.61252 0.37093 0.10113 0.0
C49 C 0.5913 0.25661 0.14254 0.0
O50 O 0.60771 0.25997 0.1719 0.0
O51 O 0.63067 0.33195 0.19553 0.0
C52 C 0.12855 0.87417 0.21066 0.0
O53 O 0.14887 0.8571 0.20553 0.0
O54 O 0.17606 0.8798 0.15007 0.0
Zn55 Zn 0.1658 0.9154 0.17357 0.0
O56 O 0.14937 0.94185 0.14169 0.0
C57 C 0.23112 0.93643 0.20155 0.0
O58 O 0.23635 0.93191 0.17144 0.0
O59 O 0.13105 0.89981 0.19903 0.0
C60 C 0.15441 0.94251 0.11231 0.0
O61 O 0.17494 0.92788 0.10202 0.0
C62 C 0.15408 0.86273 0.13031 0.0
O63 O 0.12641 0.87041 0.12447 0.0
O64 O 0.20285 0.9349 0.20677 0.0
C65 C 0.54994 0.77211 0.31571 0.0
O66 O 0.53035 0.78984 0.32132 0.0
O67 O 0.529 0.70948 0.39006 0.0
Zn68 Zn 0.51844 0.74054 0.36119 0.0
O69 O 0.52386 0.77968 0.38873 0.0
C70 C 0.45036 0.7175 0.34672 0.0
O71 O 0.45319 0.70635 0.37523 0.0
O72 O 0.54883 0.74787 0.3299 0.0
C73 C 0.50486 0.78562 0.40758 0.0
O74 O 0.47946 0.76519 0.41 0.0
C75 C 0.55415 0.71701 0.4107 0.0
O76 O 0.57182 0.74429 0.41155 0.0
O77 O 0.47502 0.73041 0.33598 0.0
C78 C 0.6126 0.4182 0.71683 0.0
O79 O 0.60709 0.42732 0.68758 0.0
O80 O 0.68089 0.38595 0.68141 0.0
Zn81 Zn 0.67713 0.42537 0.70476 0.0
O82 O 0.67055 0.45697 0.67476 0.0
C83 C 0.74226 0.44141 0.73315 0.0
O84 O 0.74731 0.44324 0.70279 0.0
O85 O 0.64047 0.41654 0.72884 0.0
C86 C 0.65606 0.45011 0.64584 0.0
O87 O 0.64858 0.42163 0.634 0.0
C88 C 0.65603 0.36601 0.67088 0.0
O89 O 0.62825 0.37221 0.67341 0.0
O90 O 0.71416 0.43813 0.73922 0.0
C91 C 0.07328 0.22135 0.84867 0.0
O92 O 0.07825 0.20198 0.87021 0.0
O93 O 1.03357 0.20227 0.91463 0.0
Zn94 Zn 1.01761 0.2254 0.87846 0.0
O95 O 1.01449 0.26629 0.89762 0.0
C96 C 0.95027 0.20556 0.86165 0.0
O97 O 0.95072 0.20933 0.89332 0.0
O98 O 0.04913 0.23317 0.848 0.0
C99 C 1.04015 0.28486 0.9088 0.0
O100 O 0.06719 0.27636 0.90783 0.0
C101 C 1.02892 0.20792 0.94367 0.0
O102 O 1.01007 0.22633 0.9495 0.0
O103 O 0.97631 0.20665 0.85093 0.0
C104 C 0.5213 0.19219 0.31244 0.0
O105 O 0.52996 0.19772 0.34408 0.0
O106 O 0.61301 0.17204 0.29947 0.0
Zn107 Zn 0.57213 0.15928 0.31655 0.0
O108 O 0.57946 0.16501 0.36521 0.0
C109 C 0.56657 0.09379 0.31912 0.0
O110 O 0.59292 0.10174 0.3399 0.0
O111 O 0.53772 0.17878 0.29587 0.0
C112 C 0.55839 0.14892 0.37869 0.0
O113 O 0.53193 0.13464 0.36057 0.0
C114 C 0.63939 0.16948 0.31523 0.0
O115 O 0.64028 0.16016 0.34464 0.0
O116 O 0.55498 0.11423 0.30499 0.0
C117 C 0.4355 0.16874 0.55697 0.0
O118 O 0.44359 0.19411 0.57602 0.0
O119 O 0.37072 0.21913 0.58699 0.0
Zn120 Zn 0.36561 0.18979 0.53985 0.0
O121 O 0.36386 0.21445 0.49257 0.0
C122 C 0.30004 0.15492 0.5606 0.0
O123 O 0.31376 0.1664 0.58998 0.0
O124 O 0.40649 0.16251 0.54117 0.0
C125 C 0.36914 0.24277 0.48603 0.0
O126 O 0.37773 0.26327 0.51103 0.0
C127 C 0.3503 0.23395 0.59632 0.0
O128 O 0.3249 0.23382 0.57523 0.0
O129 O 0.31667 0.16006 0.53701 0.0
C130 C 0.32257 0.06518 0.91564 0.0
O131 O 0.29874 0.05387 0.93058 0.0
O132 O 0.25539 0.08052 0.8474 0.0
Zn133 Zn 0.28079 0.10306 0.88859 0.0
O134 O 0.25373 0.09891 0.92401 0.0
C135 C 0.2763 0.1565 0.85563 0.0
O136 O 0.2524 0.13791 0.83757 0.0
O137 O 0.32034 0.08709 0.89827 0.0
C138 C 0.22838 0.10892 0.91862 0.0
O139 O 0.22266 0.12221 0.89182 0.0
C140 C 0.22869 0.06247 0.84512 0.0
O141 O 0.21772 0.05367 0.87169 0.0
O142 O 0.29203 0.14678 0.87936 0.0
C143 C 0.32355 0.96722 0.09182 0.0
O144 O 0.33498 0.95396 0.11672 0.0
O145 O 0.35288 0.90053 0.0933 0.0
Zn146 Zn 0.35775 0.92961 0.05697 0.0
O147 O 0.34559 0.90892 1.0099 0.0
C148 C 0.41917 0.97277 0.08182 0.0
O149 O 0.40661 0.97946 0.1076 0.0
O150 O 0.32998 0.96048 0.06363 0.0
C151 C 0.3491 0.88255 1.00054 0.0
O152 O 0.35932 0.86551 0.02246 0.0
C153 C 0.37559 0.89758 0.11492 0.0
O154 O 0.40459 0.91112 0.11223 0.0
O155 O 0.40313 0.95288 0.05971 0.0
C156 C 0.26617 0.48598 0.06202 0.0
O157 O 0.281 0.48928 0.09213 0.0
O158 O 0.32686 0.42657 0.09371 0.0
Zn159 Zn 0.32302 0.45007 0.04595 0.0
O160 O 0.32084 0.41923 1.00035 0.0
C161 C 0.39487 0.47665 0.03872 0.0
O162 O 0.39346 0.44824 0.02871 0.0
O163 O 0.27861 0.47185 0.04045 0.0
C164 C 0.33251 0.42728 0.97419 0.0
O165 O 0.34618 0.45588 0.97387 0.0
C166 C 0.31021 0.40237 0.10343 0.0
O167 O 0.28614 0.38713 0.08257 0.0
O168 O 0.36938 0.4834 0.04755 0.0
C169 C 0.8748 0.21124 0.01834 0.0
O170 O 0.88021 0.23758 1.00601 0.0
O171 O 0.82799 0.25096 0.0882 0.0
Zn172 Zn 0.82131 0.23236 0.04096 0.0
O173 O 0.82359 0.26161 1.00502 0.0
C174 C 0.77359 0.17779 0.03999 0.0
O175 O 0.79824 0.16739 0.05271 0.0
O176 O 0.85231 0.20512 0.03504 0.0
C177 C 0.81274 0.24801 0.97683 0.0
O178 O 0.80104 0.21872 0.97473 0.0
C179 C 0.84891 0.27307 0.1029 0.0
O180 O 0.8699 0.28807 0.08667 0.0
O181 O 0.7775 0.20526 0.0332 0.0
C182 C 0.17764 0.46722 0.30875 0.0
O183 O 0.15163 0.44619 0.30583 0.0
O184 O 0.13676 0.45668 0.22195 0.0
Zn185 Zn 0.14245 0.49211 0.25636 0.0
O186 O 0.1039 0.48705 0.27806 0.0
C187 C 0.15706 0.5551 0.2684 0.0
O188 O 0.15321 0.54559 0.29717 0.0
O189 O 0.17891 0.48869 0.29022 0.0
C190 C 0.07789 0.49327 0.26561 0.0
O191 O 0.07519 0.50244 0.23611 0.0
C192 C 0.12396 0.45044 0.19229 0.0
O193 O 0.12205 0.42305 0.17863 0.0
O194 O 0.15267 0.53549 0.24409 0.0
C195 C 0.77448 0.99749 0.55402 0.0
O196 O 0.79953 1.01763 0.56781 0.0
O197 O 0.82566 0.92095 0.59198 0.0
Zn198 Zn 0.82473 0.9499 0.54795 0.0
O199 O 0.82267 0.92032 0.5011 0.0
C200 C 0.89736 0.97663 0.54298 0.0
O201 O 0.89618 0.94819 0.53326 0.0
O202 O 0.7794 0.97087 0.5447 0.0
C203 C 0.83651 0.92753 0.47592 0.0
O204 O 0.85274 0.95539 0.4766 0.0
C205 C 0.82948 0.92922 0.62312 0.0
O206 O 0.83371 0.95842 0.63137 0.0
O207 O 0.87159 0.98329 0.55127 0.0
C208 C 0.85224 0.0739 0.17631 0.0
O209 O 0.86256 0.07694 0.14817 0.0
O210 O 0.92946 0.05302 0.16187 0.0
Zn211 Zn 0.90211 0.03931 0.19523 0.0
O212 O 0.92947 0.04802 0.23869 0.0
C213 C 0.90845 0.97866 0.19588 0.0
O214 O 0.9385 0.99201 0.19909 0.0
O215 O 0.86547 0.05932 0.19736 0.0
C216 C 0.92183 0.03343 0.2626 0.0
O217 O 0.89465 1.01394 0.25919 0.0
C218 C 0.95411 0.07384 0.16994 0.0
O219 O 0.95899 0.0887 0.19888 0.0
O220 O 0.88755 0.9945 0.19015 0.0
C221 C 0.35498 0.6907 0.50829 0.0
O222 O 0.33463 0.69256 0.48246 0.0
O223 O 0.3262 0.7547 0.58132 0.0
Zn224 Zn 0.32192 0.73277 0.53556 0.0
O225 O 0.32093 0.75802 0.49589 0.0
C226 C 0.27588 0.67764 0.5396 0.0
O227 O 0.30037 0.66943 0.55595 0.0
O228 O 0.35509 0.70697 0.53436 0.0
C229 C 0.33643 0.78394 0.49091 0.0
O230 O 0.35712 0.79985 0.51467 0.0
C231 C 0.35125 0.76982 0.59894 0.0
O232 O 0.3779 0.77487 0.58675 0.0
O233 O 0.2795 0.70368 0.52878 0.0
C234 C 0.38051 0.58808 0.67424 0.0
O235 O 0.40474 0.60099 0.66071 0.0
O236 O 0.44779 0.55755 0.65617 0.0
Zn237 Zn 0.41683 0.54155 0.68649 0.0
O238 O 0.4399 0.55066 0.73192 0.0
C239 C 0.41917 0.47997 0.69388 0.0
O240 O 0.44953 0.4919 0.70158 0.0
O241 O 0.38022 0.56223 0.68477 0.0
C242 C 0.42908 0.53834 0.75586 0.0
O243 O 0.40046 0.52123 0.75138 0.0
C244 C 0.4773 0.56321 0.66717 0.0
O245 O 0.4867 0.55626 0.69662 0.0
O246 O 0.40066 0.4965 0.6822 0.0
C247 C 0.67875 0.95964 0.79835 0.0
O248 O 0.65401 0.93708 0.7943 0.0
O249 O 0.63721 0.94853 0.71325 0.0
Zn250 Zn 0.6437 0.98552 0.74556 0.0
O251 O 0.60128 0.9839 0.76596 0.0
C252 C 0.64487 0.04713 0.71962 0.0
O253 O 0.61397 0.04002 0.71142 0.0
O254 O 0.67855 0.9818 0.78093 0.0
C255 C 0.5874 1.00608 0.76186 0.0
O256 O 0.60008 0.98259 0.76717 0.0
C257 C 0.62469 0.94444 0.68348 0.0
O258 O 0.6195 0.91727 0.6682 0.0
O259 O 0.65963 0.0275 0.73124 0.0
C260 C 0.9338 0.6672 0.05035 0.0
O261 O 0.94419 0.69601 0.06033 0.0
O262 O 0.87015 0.71568 0.08816 0.0
Zn263 Zn 0.86373 0.68682 0.04041 0.0
O264 O 0.86122 0.71192 0.99349 0.0
C265 C 0.79809 0.65245 0.06126 0.0
O266 O 0.81192 0.66338 0.09078 0.0
O267 O 0.90319 0.65847 0.04146 0.0
C268 C 0.87811 0.73596 0.9837 0.0
O269 O 0.90254 0.75084 1.00436 0.0
C270 C 0.85019 0.73044 0.09862 0.0
O271 O 0.82427 0.73058 0.07843 0.0
O272 O 0.81468 0.65776 0.0377 0.0
C273 C 1.00646 0.6738 0.81034 0.0
O274 O 1.03341 0.69147 0.80688 0.0
O275 O 0.07303 0.63718 0.83798 0.0
Zn276 Zn 0.04317 0.65126 0.86433 0.0
O277 O 0.06436 0.69216 0.88907 0.0
C278 C 1.04151 0.59383 0.89208 0.0
O279 O 0.07149 0.59896 0.88826 0.0
O280 O 1.00566 0.65619 0.83308 0.0
C281 C 0.08278 0.69783 0.91615 0.0
O282 O 0.09714 0.72592 0.92582 0.0
C283 C 0.1003 0.65037 0.83311 0.0
O284 O 0.11215 0.67841 0.84529 0.0
O285 O 1.02609 0.61482 0.88763 0.0
C286 C 0.82651 0.4725 0.59101 0.0
O287 O 0.83626 0.46186 0.61848 0.0
O288 O 0.85682 0.40301 0.59992 0.0
Zn289 Zn 0.8603 0.42985 0.56124 0.0
O290 O 0.84721 0.4073 0.51518 0.0
C291 C 0.92016 0.4744 0.58284 0.0
O292 O 0.90685 0.48226 0.60763 0.0
O293 O 0.83336 0.46184 0.56448 0.0
C294 C 0.84973 0.38065 0.50569 0.0
O295 O 0.86007 0.3634 0.52732 0.0
C296 C 0.8801 0.40127 0.62157 0.0
O297 O 0.90867 0.41563 0.61838 0.0
O298 O 0.90521 0.45283 0.56208 0.0
C299 C 0.81461 0.567 0.42164 0.0
O300 O 0.7902 0.55604 0.43594 0.0
O301 O 0.75781 0.59657 0.3495 0.0
Zn302 Zn 0.77585 0.6083 0.39619 0.0
O303 O 0.74198 0.5933 0.42354 0.0
C304 C 0.77083 0.66754 0.38175 0.0
O305 O 0.74235 0.65263 0.36901 0.0
O306 O 0.81382 0.58984 0.40536 0.0
C307 C 0.71269 0.58973 0.41222 0.0
O308 O 0.70431 0.59792 0.38307 0.0
C309 C 0.74047 0.5715 0.3371 0.0
O310 O 0.73472 0.54891 0.35545 0.0
O311 O 0.78931 0.65363 0.39836 0.0
Tb312 Tb 0.06392 0.0747 0.01741 0.0
Eu313 Eu 0.12444 0.09991 0.07545 0.0
C314 C 0.13355 0.08689 1.00317 0.0
C315 C 0.09928 0.02924 0.05029 0.0
C316 C 0.98753 0.0807 0.97859 0.0
C317 C 0.95584 0.11623 0.95807 0.0
C318 C 0.97631 0.09664 0.95305 0.0
C319 C 0.97691 0.08375 1.00883 0.0
C320 C 0.95645 0.10317 1.01382 0.0
C321 C 0.94625 0.12021 0.98876 0.0
C322 C 1.01492 0.06648 0.97599 0.0
O323 O 0.04788 0.06495 0.06371 0.0
O324 O 0.0812 0.10251 0.09896 0.0
O325 O 0.11353 0.13925 0.04762 0.0
O326 O 0.06152 0.11817 0.04013 0.0
C327 C 0.05427 0.08258 0.09115 0.0
O328 O 0.14988 0.09923 0.1244 0.0
O329 O 0.17288 0.12586 0.08947 0.0
O330 O 0.14221 0.08051 0.03282 0.0
O331 O 0.10504 0.09172 0.99417 0.0
O332 O 0.08562 0.03543 0.022 0.0
O333 O 0.10894 0.04959 0.0753 0.0
C334 C 0.08405 0.14167 0.03954 0.0
O335 O 1.04083 0.08575 0.97344 0.0
O336 O 1.02013 0.04687 0.99696 0.0
C337 C 0.20231 0.09426 0.11848 0.0
C338 C 0.24466 0.05453 0.1125 0.0
C339 C 0.21933 0.04715 0.13028 0.0
C340 C 0.19846 0.06673 0.13325 0.0
C341 C 0.22851 0.10228 0.10201 0.0
C342 C 0.24935 0.08263 0.09896 0.0
C343 C 0.17691 0.11218 0.11612 0.0
H344 H 0.94816 0.12881 0.93817 0.0
H345 H 0.98466 0.09514 0.92974 0.0
H346 H 0.98579 0.07244 0.02928 0.0
H347 H 0.94998 0.10601 0.0379 0.0
H348 H 0.21482 0.02562 0.14082 0.0
H349 H 0.17854 0.05962 0.14602 0.0
H350 H 0.23225 0.12328 0.09036 0.0
H351 H 0.26892 0.08929 0.08559 0.0
Tb352 Tb 0.37113 0.85982 0.31422 0.0
Eu353 Eu 0.30297 0.81359 0.2826 0.0
C354 C 0.31112 0.8851 0.29013 0.0
C355 C 0.32722 0.82361 0.35962 0.0
C356 C 0.44455 0.92221 0.33331 0.0
C357 C 0.48832 0.96395 0.3542 0.0
C358 C 0.46736 0.93748 0.35899 0.0
C359 C 0.44302 0.93357 0.30254 0.0
C360 C 0.4641 0.96011 0.29767 0.0
C361 C 0.48697 0.9757 0.32351 0.0
C362 C 0.42252 0.89479 0.33961 0.0
O363 O 0.37648 0.81421 0.32356 0.0
O364 O 0.34059 0.78608 0.28188 0.0
O365 O 0.32063 0.83918 0.24148 0.0
O366 O 0.3737 0.85244 0.26207 0.0
C367 C 0.36505 0.78903 0.30478 0.0
O368 O 0.27425 0.78231 0.24289 0.0
O369 O 0.25338 0.79413 0.28498 0.0
O370 O 0.29379 0.85961 0.29682 0.0
O371 O 0.34172 0.88821 0.29051 0.0
O372 O 0.34385 0.85014 0.3544 0.0
O373 O 0.31287 0.80372 0.33521 0.0
C374 C 0.35025 0.84902 0.23753 0.0
O375 O 0.39464 0.8983 0.34518 0.0
O376 O 0.42084 0.87029 0.32068 0.0
C377 C 0.23534 0.7446 0.25902 0.0
C378 C 0.20838 0.68256 0.26016 0.0
C379 C 0.19603 0.69967 0.23628 0.0
C380 C 0.20938 0.73047 0.23579 0.0
C381 C 0.248 0.72758 0.28263 0.0
C382 C 0.23459 0.69687 0.28327 0.0
C383 C 0.24957 0.77681 0.25788 0.0
H384 H 0.50511 0.97558 0.37484 0.0
H385 H 0.46877 0.92908 0.38294 0.0
H386 H 0.42551 0.92201 0.28242 0.0
H387 H 0.46255 0.96836 0.27367 0.0
H388 H 0.17572 0.68938 0.21836 0.0
H389 H 0.19938 0.74329 0.21734 0.0
H390 H 0.2683 0.73803 0.30053 0.0
H391 H 0.24494 0.68423 0.30168 0.0
Tb392 Tb 0.57668 0.04534 0.52994 0.0
Eu393 Eu 0.62119 0.10278 0.57468 0.0
C394 C 0.59891 0.0384 0.60337 0.0
C395 C 0.54418 0.10091 0.5552 0.0
C396 C 0.53535 0.97 0.48543 0.0
C397 C 0.50131 0.92368 0.45879 0.0
C398 C 0.5064 0.95469 0.46765 0.0
C399 C 0.55898 0.95391 0.49511 0.0
C400 C 0.55398 0.92286 0.48607 0.0
C401 C 0.52523 0.90754 0.46744 0.0
C402 C 0.54076 1.00292 0.49214 0.0
O403 O 0.60059 0.07587 0.49885 0.0
O404 O 0.60474 0.1208 0.52772 0.0
O405 O 0.65587 0.07532 0.55557 0.0
O406 O 0.62282 0.02907 0.53993 0.0
C407 C 0.6004 0.10472 0.49985 0.0
O408 O 0.66238 0.13982 0.58089 0.0
O409 O 0.63531 0.13069 0.62084 0.0
O410 O 0.62011 0.06359 0.60535 0.0
O411 O 0.57611 0.03059 0.5786 0.0
O412 O 0.54374 0.07811 0.5332 0.0
O413 O 0.57029 0.11081 0.57673 0.0
C414 C 0.65218 0.04579 0.54732 0.0
O415 O 0.53407 1.01282 0.51983 0.0
O416 O 0.56729 1.01848 0.48553 0.0
C417 C 0.65972 0.18115 0.61646 0.0
C418 C 0.66134 0.24314 0.62995 0.0
C419 C 0.64024 0.22635 0.60354 0.0
C420 C 0.63936 0.19556 0.59693 0.0
C421 C 0.68122 0.19779 0.64239 0.0
C422 C 0.68205 0.2286 0.64912 0.0
C423 C 0.65839 0.14874 0.61023 0.0
H424 H 0.4791 0.91257 0.4441 0.0
H425 H 0.48798 0.96688 0.45994 0.0
H426 H 0.58145 0.96546 0.50901 0.0
H427 H 0.5727 0.91089 0.49326 0.0
H428 H 0.62429 0.23699 0.58806 0.0
H429 H 0.62267 0.18292 0.57673 0.0
H430 H 0.69709 0.18686 0.65762 0.0
H431 H 0.69831 0.24081 0.66983 0.0
Tb432 Tb 0.31083 0.33004 0.77486 0.0
Eu433 Eu 0.38001 0.32234 0.80428 0.0
C434 C 0.36975 0.37572 0.75938 0.0
C435 C 0.3501 0.29635 0.72856 0.0
C436 C 0.22473 0.31337 0.75914 0.0
C437 C 0.1735 0.30938 0.77689 0.0
C438 C 0.20005 0.32687 0.76679 0.0
C439 C 0.222 0.28194 0.76043 0.0
C440 C 0.19546 0.26446 0.77037 0.0
C441 C 0.17129 0.27811 0.77944 0.0
C442 C 0.25451 0.3324 0.75324 0.0
O443 O 0.30499 0.28386 0.78881 0.0
O444 O 0.34687 0.29105 0.82956 0.0
O445 O 0.3677 0.35629 0.84125 0.0
O446 O 0.314 0.34293 0.82847 0.0
C447 C 0.31968 0.27521 0.8151 0.0
O448 O 0.41468 0.29382 0.81395 0.0
O449 O 0.42639 0.34127 0.83206 0.0
O450 O 0.38759 0.35636 0.76742 0.0
O451 O 0.34102 0.37251 0.76681 0.0
O452 O 0.32921 0.31381 0.73099 0.0
O453 O 0.36932 0.29295 0.755 0.0
C454 C 0.33942 0.35673 0.84915 0.0
O455 O 0.27108 0.3494 0.77845 0.0
O456 O 0.27217 0.31881 0.73727 0.0
C457 C 0.46412 0.32251 0.80823 0.0
C458 C 0.5146 0.34793 0.7766 0.0
C459 C 0.52035 0.33948 0.80866 0.0
C460 C 0.49512 0.32718 0.82456 0.0
C461 C 0.45851 0.32858 0.77553 0.0
C462 C 0.48342 0.34148 0.75996 0.0
C463 C 0.43721 0.31695 0.82589 0.0
H464 H 0.15543 0.32062 0.78414 0.0
H465 H 0.2019 0.3511 0.76621 0.0
H466 H 0.2408 0.27095 0.75474 0.0
H467 H 0.19423 0.24039 0.7717 0.0
H468 H 0.54416 0.34342 0.82191 0.0
H469 H 0.49968 0.3227 0.84992 0.0
H470 H 0.43457 0.32531 0.76269 0.0
H471 H 0.47781 0.34804 0.73556 0.0
Tb472 Tb 0.09457 0.05893 0.51264 0.0
Eu473 Eu 0.09565 0.08758 0.58362 0.0
C474 C 0.16291 0.0924 0.552 0.0
C475 C 0.1002 1.01461 0.57248 0.0
C476 C 0.066 0.03691 0.42563 0.0
C477 C 1.02925 1.01027 0.37916 0.0
C478 C 0.05312 1.01034 0.40525 0.0
C479 C 0.05499 0.06355 0.41945 0.0
C480 C 1.03137 0.06356 0.39321 0.0
C481 C 1.0181 0.03685 0.37304 0.0
C482 C 0.08891 0.03595 0.45467 0.0
O483 O 0.04374 0.0457 0.51956 0.0
O484 O 0.04205 0.0713 0.56805 0.0
O485 O 0.09101 0.12892 0.55358 0.0
O486 O 0.08891 0.10675 0.50224 0.0
C487 C 1.02756 0.05225 0.54288 0.0
O488 O 0.07609 0.08892 0.62927 0.0
O489 O 0.1195 0.11967 0.62493 0.0
O490 O 0.14861 0.09623 0.57761 0.0
O491 O 0.14635 0.07735 0.525 0.0
O492 O 0.10508 1.02046 0.54225 0.0
O493 O 0.09552 0.03696 0.59203 0.0
C494 C 0.09 0.13161 0.52178 0.0
O495 O 0.10798 0.06136 0.46602 0.0
O496 O 0.07722 1.02162 0.47787 0.0
C497 C 0.11672 0.09647 0.67357 0.0
C498 C 0.14849 0.07521 0.72812 0.0
C499 C 0.12854 0.09574 0.73215 0.0
C500 C 0.11276 0.10634 0.70498 0.0
C501 C 0.13588 0.07536 0.66946 0.0
C502 C 0.15168 0.06486 0.6965 0.0
C503 C 0.10089 0.10765 0.64477 0.0
H504 H 1.01957 0.98947 0.36372 0.0
H505 H 0.06115 0.98953 0.40986 0.0
H506 H 0.06421 0.08424 0.43518 0.0
H507 H 1.02296 0.08426 0.38915 0.0
H508 H 0.12597 0.10437 0.75628 0.0
H509 H 0.09788 0.12249 0.70848 0.0
H510 H 0.13896 0.0673 0.64529 0.0
H511 H 0.16669 0.04889 0.69269 0.0
Tb512 Tb 0.33187 0.79034 0.8055 0.0
Eu513 Eu 0.35761 0.85913 0.79205 0.0
C514 C 0.33932 0.84203 0.86283 0.0
C515 C 0.28237 0.82797 0.77397 0.0
C516 C 0.30693 0.70872 0.78608 0.0
C517 C 0.31771 0.65913 0.77335 0.0
C518 C 0.31423 0.6816 0.79626 0.0
C519 C 0.30098 0.71228 0.75258 0.0
C520 C 0.30459 0.6899 0.72966 0.0
C521 C 0.31413 0.66359 0.7399 0.0
C522 C 0.31058 0.73475 0.81014 0.0
O523 O 0.33294 0.78854 0.75282 0.0
O524 O 0.36737 0.83287 0.74832 0.0
O525 O 0.40032 0.84641 0.82308 0.0
O526 O 0.38443 0.79496 0.81455 0.0
C527 C 0.35106 0.80622 0.73581 0.0
O528 O 0.34835 0.90372 0.78273 0.0
O529 O 0.39617 0.89634 0.78575 0.0
O530 O 0.34169 0.8624 0.84147 0.0
O531 O 0.33831 0.8133 0.85439 0.0
O532 O 0.2888 0.80992 0.79681 0.0
O533 O 0.30635 0.84607 0.76403 0.0
C534 C 0.40688 0.81922 0.82532 0.0
O535 O 0.33971 0.7484 0.8204 0.0
O536 O 0.29278 0.75411 0.80312 0.0
C537 C 0.38851 0.94203 0.81018 0.0
C538 C 0.39079 0.98843 0.85893 0.0
C539 C 0.38797 0.99428 0.82582 0.0
C540 C 0.38672 0.97118 0.80162 0.0
C541 C 0.39444 0.93679 0.84321 0.0
C542 C 0.39571 0.95988 0.86745 0.0
C543 C 0.37829 0.91632 0.78541 0.0
H544 H 0.32544 0.63926 0.78204 0.0
H545 H 0.31914 0.67857 0.82199 0.0
H546 H 0.29518 0.73302 0.74414 0.0
H547 H 0.30139 0.69382 0.70406 0.0
H548 H 0.38373 1.01587 0.81829 0.0
H549 H 0.38191 0.97549 0.77624 0.0
H550 H 0.39576 0.91429 0.85023 0.0
H551 H 0.39826 0.95477 0.8927 0.0
Tb552 Tb 0.61292 0.0665 0.07439 0.0
Eu553 Eu 0.57547 0.0817 1.00839 0.0
C554 C 0.59867 1.01458 1.01362 0.0
C555 C 0.64828 0.1019 0.02589 0.0
C556 C 0.65884 0.08155 0.15594 0.0
C557 C 0.69725 0.1021 0.20391 0.0
C558 C 0.68715 0.08122 0.17643 0.0
C559 C 0.64121 0.10329 0.16257 0.0
C560 C 0.65136 0.12422 0.18953 0.0
C561 C 0.67936 0.12381 0.21067 0.0
C562 C 0.64904 0.06149 0.12587 0.0
O563 O 0.60854 0.11528 0.08561 0.0
O564 O 0.57052 0.12146 0.04426 0.0
O565 O 0.54194 0.04576 0.02808 0.0
O566 O 0.56336 0.05415 0.08182 0.0
C567 C 0.58895 0.13215 0.0723 0.0
O568 O 0.57637 0.09494 0.95914 0.0
O569 O 0.5318 0.08665 0.97833 0.0
O570 O 0.59134 0.03614 0.99495 0.0
O571 O 0.60458 1.02096 0.04584 0.0
O572 O 0.64442 0.07581 0.0383 0.0
O573 O 0.62329 0.11285 0.01702 0.0
C574 C 0.53981 0.04207 0.05869 0.0
O575 O 0.61921 0.04811 0.11967 0.0
O576 O 0.65876 0.07358 0.10051 0.0
C577 C 0.5314 0.07207 0.92287 0.0
C578 C 0.52206 0.04051 0.86099 0.0
C579 C 0.51255 0.06841 0.86495 0.0
C580 C 0.5177 0.08433 0.89571 0.0
C581 C 0.53652 0.04248 0.9198 0.0
C582 C 0.53207 0.02686 0.88912 0.0
C583 C 0.54563 0.09157 0.9526 0.0
H584 H 0.71869 0.10108 0.22001 0.0
H585 H 0.70132 0.06485 0.17121 0.0
H586 H 0.61939 0.104 0.14697 0.0
H587 H 0.63642 0.13996 0.19452 0.0
H588 H 0.50363 0.07914 0.84404 0.0
H589 H 0.51319 0.10706 0.89785 0.0
H590 H 0.54678 0.03257 0.94071 0.0
H591 H 0.53972 1.00551 0.88752 0.0
Tb592 Tb 0.35587 0.35379 0.31193 0.0
Eu593 Eu 0.32798 0.28983 0.27478 0.0
C594 C 0.35599 0.29449 0.35393 0.0
C595 C 0.40401 0.32336 0.27283 0.0
C596 C 0.35252 0.42504 0.35627 0.0
C597 C 0.30465 0.42317 0.38068 0.0
C598 C 0.33093 0.41095 0.37572 0.0
C599 C 0.34968 0.45334 0.34553 0.0
C600 C 0.32301 0.46507 0.34963 0.0
C601 C 0.29894 0.44892 0.36519 0.0
C602 C 0.37105 0.40728 0.33888 0.0
O603 O 0.34955 0.36337 0.25918 0.0
O604 O 0.31235 0.32207 0.23764 0.0
O605 O 0.28423 0.29792 0.29733 0.0
O606 O 0.30537 0.34503 0.32316 0.0
C607 C 0.32869 0.34932 0.23416 0.0
O608 O 0.31793 0.26083 0.22903 0.0
O609 O 0.30754 0.24145 0.27332 0.0
O610 O 0.34552 0.27713 0.32636 0.0
O611 O 0.36191 0.32441 0.3531 0.0
O612 O 0.40034 0.34489 0.29446 0.0
O613 O 0.37971 0.3005 0.26285 0.0
C614 C 0.28125 0.32118 0.31677 0.0
O615 O 0.37967 0.38423 0.3523 0.0
O616 O 0.3589 0.40014 0.30849 0.0
C617 C 0.33649 0.21635 0.24105 0.0
C618 C 0.39444 0.198 0.25558 0.0
C619 C 0.38933 0.21507 0.22895 0.0
C620 C 0.36052 0.22414 0.22166 0.0
C621 C 0.34 0.19537 0.26429 0.0
C622 C 0.36887 0.18648 0.27169 0.0
C623 C 0.31341 0.23607 0.24389 0.0
H624 H 0.2874 0.4109 0.39417 0.0
H625 H 0.33262 0.3891 0.38445 0.0
H626 H 0.36604 0.46456 0.33041 0.0
H627 H 0.3199 0.48501 0.33739 0.0
H628 H 0.40851 0.22391 0.21581 0.0
H629 H 0.35846 0.23984 0.20313 0.0
H630 H 0.32173 0.18849 0.27922 0.0
H631 H 0.37198 0.1725 0.29173 0.0
Tb632 Tb 0.59274 0.55799 1.01109 0.0
Eu633 Eu 0.59287 0.58697 0.08168 0.0
C634 C 0.66068 0.59109 0.05126 0.0
C635 C 0.59766 0.51401 0.07153 0.0
C636 C 0.56322 0.5325 0.92502 0.0
C637 C 0.54812 0.52974 0.86653 0.0
C638 C 0.57078 0.52917 0.89355 0.0
C639 C 0.53263 0.53585 0.92929 0.0
C640 C 0.50993 0.53625 0.90232 0.0
C641 C 0.51761 0.53364 0.87071 0.0
C642 C 0.58782 0.53469 0.95328 0.0
O643 O 0.54179 0.5449 0.0173 0.0
O644 O 0.53943 0.57084 0.06535 0.0
O645 O 0.58848 0.62808 0.05136 0.0
O646 O 0.58822 0.60609 1.00043 0.0
C647 C 0.52526 0.55171 0.04017 0.0
O648 O 0.57334 0.58826 0.12728 0.0
O649 O 0.6153 0.62081 0.12196 0.0
O650 O 0.64603 0.59506 0.07658 0.0
O651 O 0.64443 0.57614 0.02408 0.0
O652 O 0.60268 0.51964 0.04126 0.0
O653 O 0.59293 0.53651 0.09085 0.0
C654 C 0.58859 0.63089 0.01975 0.0
O655 O 0.6031 0.56198 0.96338 0.0
O656 O 0.5796 0.51952 0.97742 0.0
C657 C 0.6141 0.60034 0.17214 0.0
C658 C 0.65465 0.58634 0.22496 0.0
C659 C 0.6376 0.56332 0.2015 0.0
C660 C 0.6176 0.57029 0.17516 0.0
C661 C 0.63002 0.62312 0.19625 0.0
C662 C 0.65015 0.61618 0.22251 0.0
C663 C 0.59722 0.60859 0.14212 0.0
H664 H 0.55451 0.52732 0.84236 0.0
H665 H 0.59434 0.52672 0.8899 0.0
H666 H 0.52646 0.5388 0.95345 0.0
H667 H 0.48671 0.53957 0.90623 0.0
H668 H 0.64075 0.54019 0.20278 0.0
H669 H 0.60578 0.55237 0.1566 0.0
H670 H 0.62775 0.64642 0.19418 0.0
H671 H 0.66267 0.63427 0.24062 0.0
Tb672 Tb 0.82763 0.29029 0.30903 0.0
Eu673 Eu 0.8535 0.35941 0.29688 0.0
C674 C 0.83546 0.34084 0.36738 0.0
C675 C 0.77861 0.32822 0.27771 0.0
C676 C 0.80273 0.20954 0.28682 0.0
C677 C 0.82222 0.18957 0.24002 0.0
C678 C 0.82345 0.21299 0.26365 0.0
C679 C 0.77982 0.18272 0.28528 0.0
C680 C 0.77868 0.15902 0.26161 0.0
C681 C 0.80025 0.16208 0.23904 0.0
C682 C 0.80438 0.23473 0.31128 0.0
O683 O 0.83115 0.28903 0.2569 0.0
O684 O 0.86374 0.33457 0.25262 0.0
O685 O 0.89669 0.34581 0.32616 0.0
O686 O 0.88016 0.29426 0.31848 0.0
C687 C 0.84883 0.30745 0.24017 0.0
O688 O 0.8435 0.40376 0.28766 0.0
O689 O 0.89185 0.39763 0.29281 0.0
O690 O 0.83756 0.36153 0.34637 0.0
O691 O 0.8342 0.31219 0.35838 0.0
O692 O 0.78503 0.31071 0.3011 0.0
O693 O 0.80271 0.34609 0.26777 0.0
C694 C 0.90296 0.31849 0.32856 0.0
O695 O 0.8327 0.24802 0.32527 0.0
O696 O 0.7878 0.25442 0.30185 0.0
C697 C 0.88196 0.44256 0.3168 0.0
C698 C 0.88183 0.48853 0.36518 0.0
C699 C 0.8804 0.49461 0.33218 0.0
C700 C 0.88035 0.47171 0.30816 0.0
C701 C 0.88633 0.43706 0.34986 0.0
C702 C 0.88636 0.45993 0.37392 0.0
C703 C 0.87332 0.41705 0.29172 0.0
H704 H 0.83962 0.19256 0.22354 0.0
H705 H 0.84112 0.23364 0.26423 0.0
H706 H 0.76319 0.17996 0.30259 0.0
H707 H 0.76146 0.13812 0.26139 0.0
H708 H 0.87648 0.51624 0.3245 0.0
H709 H 0.87672 0.47621 0.28274 0.0
H710 H 0.88751 0.41454 0.35693 0.0
H711 H 0.88782 0.45465 0.39911 0.0
Tb712 Tb 0.11205 0.56615 0.57587 0.0
Eu713 Eu 0.07748 0.58273 0.50886 0.0
C714 C 0.09919 0.51522 0.51343 0.0
C715 C 0.151 0.60163 0.52938 0.0
C716 C 0.14091 0.56599 0.66358 0.0
C717 C 0.16722 0.59411 0.71476 0.0
C718 C 0.16852 0.58227 0.68328 0.0
C719 C 0.11219 0.56079 0.67615 0.0
C720 C 0.11098 0.57229 0.7076 0.0
C721 C 0.13834 0.58941 0.72701 0.0
C722 C 0.14187 0.55672 0.62934 0.0
O723 O 0.10724 0.61456 0.58825 0.0
O724 O 0.07299 0.62293 0.54442 0.0
O725 O 0.04306 0.5468 0.52766 0.0
O726 O 0.06213 0.55798 0.58156 0.0
C727 C 0.0895 0.63247 0.57371 0.0
O728 O 0.07939 0.59471 0.45919 0.0
O729 O 1.03522 0.59093 0.479 0.0
O730 O 0.09186 0.53675 0.49482 0.0
O731 O 0.10515 0.52155 0.54564 0.0
O732 O 0.14717 0.57639 0.54355 0.0
O733 O 0.12618 0.61228 0.51863 0.0
C734 C 1.03941 0.54483 0.55818 0.0
O735 O 0.11701 0.53788 0.61369 0.0
O736 O 0.15203 0.57865 0.61193 0.0
C737 C 1.03289 0.57568 0.42322 0.0
C738 C 1.01952 0.53793 0.36485 0.0
C739 C 1.01477 0.52565 0.3946 0.0
C740 C 1.02179 0.54439 0.42368 0.0
C741 C 1.03387 0.58838 0.39339 0.0
C742 C 1.0272 0.56968 0.36437 0.0
C743 C 0.04906 0.59416 0.45304 0.0
H744 H 0.18859 0.60726 0.72932 0.0
H745 H 0.19088 0.58658 0.67394 0.0
H746 H 0.09043 0.54865 0.66142 0.0
H747 H 0.08826 0.56884 0.71622 0.0
H748 H 1.00828 0.50137 0.39575 0.0
H749 H 1.02089 0.5342 0.44661 0.0
H750 H 0.04246 0.6125 0.39268 0.0
H751 H 1.03134 0.58006 0.34209 0.0
Tb752 Tb 0.81514 0.8277 0.27836 0.0
Eu753 Eu 0.88551 0.82031 0.30667 0.0
C754 C 0.87353 0.872 0.26203 0.0
C755 C 0.85429 0.79241 0.23222 0.0
C756 C 0.72861 0.82867 0.25659 0.0
C757 C 0.67487 0.80068 0.23881 0.0
C758 C 0.70638 0.80828 0.23401 0.0
C759 C 0.71862 0.84245 0.28334 0.0
C760 C 0.687 0.83508 0.28794 0.0
C761 C 0.66507 0.81374 0.26602 0.0
C762 C 0.76188 0.835 0.25158 0.0
O763 O 0.80581 0.78512 0.30054 0.0
O764 O 0.85394 0.78712 0.33207 0.0
O765 O 0.87114 0.85302 0.3443 0.0
O766 O 0.81711 0.84149 0.33123 0.0
C767 C 0.82375 0.77513 0.3237 0.0
O768 O 0.9218 0.79413 0.31951 0.0
O769 O 0.93238 0.84291 0.33097 0.0
O770 O 0.89121 0.85209 0.2673 0.0
O771 O 0.84725 0.86984 0.27432 0.0
O772 O 0.83316 0.80952 0.23512 0.0
O773 O 0.87468 0.7899 0.25809 0.0
C774 C 0.84282 0.85435 0.35202 0.0
O775 O 0.7818 0.85543 0.27162 0.0
O776 O 0.77367 0.81135 0.24529 0.0
C777 C 0.97338 0.82146 0.31533 0.0
C778 C 1.02756 0.83482 0.28469 0.0
C779 C 1.02671 0.8499 0.31494 0.0
C780 C 0.99988 0.84313 0.33022 0.0
C781 C 0.97464 0.80551 0.28565 0.0
C782 C 1.00168 0.812 0.27057 0.0
C783 C 0.94379 0.81833 0.32933 0.0
H784 H 0.65826 0.78426 0.22157 0.0
H785 H 0.71355 0.79774 0.21296 0.0
H786 H 0.73524 0.8584 0.30102 0.0
H787 H 0.67996 0.84514 0.30933 0.0
H788 H 0.04651 0.86746 0.32635 0.0
H789 H 0.99933 0.85572 0.35305 0.0
H790 H 0.95438 0.78888 0.27347 0.0
H791 H 1.00175 0.80027 0.24711 0.0
Tb792 Tb 0.87707 0.34286 0.81774 0.0
Eu793 Eu 0.80932 0.29984 0.77818 0.0
C794 C 0.81793 0.37058 0.79954 0.0
C795 C 0.82833 0.30112 0.85468 0.0
C796 C 0.94187 0.40828 0.85799 0.0
C797 C 0.94444 0.45884 0.88342 0.0
C798 C 0.92819 0.42896 0.87492 0.0
C799 C 0.97222 0.41822 0.84985 0.0
C800 C 0.98845 0.44824 0.85819 0.0
C801 C 0.97478 0.46894 0.87515 0.0
C802 C 0.92594 0.37592 0.85143 0.0
O803 O 0.88378 0.29674 0.81851 0.0
O804 O 0.84541 0.27041 0.77726 0.0
O805 O 0.82874 0.33148 0.74289 0.0
O806 O 0.8813 0.345 0.76553 0.0
C807 C 0.87087 0.2724 0.79883 0.0
O808 O 0.78177 0.27556 0.73354 0.0
O809 O 0.75921 0.27897 0.77666 0.0
O810 O 0.79975 0.34362 0.79965 0.0
O811 O 0.84863 0.37443 0.80089 0.0
O812 O 0.84569 0.32835 0.85363 0.0
O813 O 0.81618 0.28362 0.82794 0.0
C814 C 0.85828 0.34348 0.74079 0.0
O815 O 0.89862 0.36824 0.8613 0.0
O816 O 0.9261 0.36216 0.82299 0.0
C817 C 0.74075 0.23453 0.74043 0.0
C818 C 0.70993 0.17289 0.72776 0.0
C819 C 0.74279 0.18177 0.72783 0.0
C820 C 0.75806 0.21223 0.73426 0.0
C821 C 0.70796 0.22589 0.73995 0.0
C822 C 0.69268 0.1954 0.73374 0.0
C823 C 0.75637 0.26682 0.74684 0.0
H824 H 0.93338 0.47389 0.897 0.0
H825 H 0.90504 0.42203 0.88213 0.0
H826 H 0.98354 0.40268 0.83727 0.0
H827 H 1.01161 0.45527 0.85107 0.0
H828 H 0.7568 0.1652 0.72285 0.0
H829 H 0.78341 0.2183 0.7344 0.0
H830 H 0.69416 0.24277 0.74452 0.0
H831 H 0.66745 0.18944 0.73431 0.0
Tb832 Tb 0.86053 0.84999 0.81559 0.0
Eu833 Eu 0.82842 0.78855 0.77518 0.0
C834 C 0.85875 0.78968 0.8533 0.0
C835 C 0.90505 0.81777 0.77293 0.0
C836 C 0.85626 0.92042 0.85732 0.0
C837 C 0.80756 0.92369 0.87863 0.0
C838 C 0.83479 0.91166 0.87919 0.0
C839 C 0.85206 0.94432 0.83812 0.0
C840 C 0.82473 0.95619 0.8374 0.0
C841 C 0.80125 0.94464 0.85619 0.0
C842 C 0.87774 0.90048 0.84885 0.0
O843 O 0.84296 0.86622 0.76788 0.0
O844 O 0.82515 0.8221 0.73531 0.0
O845 O 0.78435 0.80211 0.79226 0.0
O846 O 0.81093 0.84091 0.82946 0.0
C847 C 0.83265 0.85205 0.73839 0.0
O848 O 0.81441 0.75949 0.72934 0.0
O849 O 0.80746 0.74044 0.77457 0.0
O850 O 0.83779 0.7756 0.82845 0.0
O851 O 0.87504 0.81706 0.84977 0.0
O852 O 0.90198 0.84207 0.79101 0.0
O853 O 0.88114 0.79393 0.76803 0.0
C854 C 0.78396 0.82171 0.81713 0.0
O855 O 0.87457 0.87464 0.86159 0.0
O856 O 0.87962 0.8968 0.81799 0.0
C857 C 0.83105 0.71333 0.73857 0.0
C858 C 0.88534 0.68771 0.74596 0.0
C859 C 0.88059 0.70689 0.72108 0.0
C860 C 0.85377 0.71972 0.71751 0.0
C861 C 0.83354 0.69073 0.76005 0.0
C862 C 0.86055 0.67828 0.76398 0.0
C863 C 0.81018 0.73472 0.74419 0.0
H864 H 0.79037 0.91499 0.89411 0.0
H865 H 0.83751 0.89366 0.89479 0.0
H866 H 0.86832 0.95177 0.82126 0.0
H867 H 0.82079 0.97237 0.81984 0.0
H868 H 0.89866 0.71377 0.70594 0.0
H869 H 0.85234 0.73662 0.7002 0.0
H870 H 0.81622 0.68502 0.77631 0.0
H871 H 0.8631 0.66349 0.78332 0.0
Tb872 Tb 0.56066 0.56705 0.52542 0.0
Eu873 Eu 0.63182 0.60897 0.55918 0.0
C874 C 0.62144 0.56084 0.49774 0.0
C875 C 0.60584 0.54213 0.57932 0.0
C876 C 0.47631 0.56104 0.50622 0.0
C877 C 0.43431 0.58009 0.52854 0.0
C878 C 0.45519 0.56013 0.52905 0.0
C879 C 0.4749 0.58127 0.48178 0.0
C880 C 0.45383 0.601 0.4811 0.0
C881 C 0.43383 0.60117 0.50494 0.0
C882 C 0.50263 0.54453 0.51122 0.0
O883 O 0.56014 0.60747 0.55585 0.0
O884 O 0.60042 0.61383 0.59688 0.0
O885 O 0.60928 0.63891 0.52518 0.0
O886 O 0.56645 0.60461 0.49592 0.0
C887 C 0.57011 0.6108 0.58709 0.0
O888 O 0.67077 0.63087 0.5973 0.0
O889 O 0.67896 0.62614 0.5472 0.0
O890 O 0.63507 0.56788 0.52792 0.0
O891 O 0.59103 0.5598 0.48963 0.0
O892 O 0.58407 0.53591 0.55321 0.0
O893 O 0.6227 0.56939 0.5883 0.0
C894 C 0.58554 0.63137 0.50084 0.0
O895 O 0.52207 0.54677 0.4897 0.0
O896 O 0.51783 0.54781 0.54097 0.0
C897 C 0.71612 0.61207 0.58638 0.0
C898 C 0.75561 0.56906 0.59129 0.0
C899 C 0.72944 0.56642 0.60817 0.0
C900 C 0.70987 0.58757 0.60564 0.0
C901 C 0.74297 0.61547 0.5706 0.0
C902 C 0.7625 0.59421 0.57301 0.0
C903 C 0.69185 0.63029 0.57777 0.0
H904 H 0.41891 0.57937 0.547 0.0
H905 H 0.45587 0.54494 0.54827 0.0
H906 H 0.49096 0.58281 0.46394 0.0
H907 H 0.45422 0.61708 0.46271 0.0
H908 H 0.72312 0.54718 0.62211 0.0
H909 H 0.68899 0.58386 0.61755 0.0
H910 H 0.74803 0.63382 0.55518 0.0
H911 H 0.78266 0.59714 0.55999 0.0
Tb912 Tb 0.07273 0.54168 0.0269 0.0
Eu913 Eu 0.1169 0.59688 0.07495 0.0
C914 C 0.08956 0.53377 0.10232 0.0
C915 C 1.04022 0.59668 0.0525 0.0
C916 C 1.03919 0.46776 0.97761 0.0
C917 C 0.06256 0.42343 0.9817 0.0
C918 C 0.06283 0.45353 0.9918 0.0
C919 C 1.01512 0.45166 0.95361 0.0
C920 C 1.01494 0.42168 0.94326 0.0
C921 C 1.03874 0.40722 0.95709 0.0
C922 C 1.03956 0.49953 0.98707 0.0
O923 O 0.07457 0.5818 1.00062 0.0
O924 O 0.12267 0.60887 0.02423 0.0
O925 O 0.14864 0.56209 0.0726 0.0
O926 O 0.12254 0.533 0.02641 0.0
C927 C 0.09867 0.60418 1.00081 0.0
O928 O 0.16228 0.62832 0.08804 0.0
O929 O 0.12487 0.62987 0.11714 0.0
O930 O 0.09929 0.56306 0.10887 0.0
O931 O 0.08064 0.5211 0.07244 0.0
O932 O 1.03653 0.56758 0.04169 0.0
O933 O 0.06924 0.61247 0.06341 0.0
C934 C 0.14817 0.54079 0.04928 0.0
O935 O 1.03351 0.50547 0.01638 0.0
O936 O 0.06344 0.51919 0.98002 0.0
C937 C 0.15734 0.6758 0.1094 0.0
C938 C 0.16236 0.73853 0.10754 0.0
C939 C 0.146 0.71856 0.08078 0.0
C940 C 0.14344 0.68739 0.08174 0.0
C941 C 0.17451 0.69554 0.1357 0.0
C942 C 0.17703 0.72674 0.1348 0.0
C943 C 0.15274 0.64311 0.11129 0.0
H944 H 0.08092 0.41284 0.99325 0.0
H945 H 0.0815 0.46572 1.01055 0.0
H946 H 0.99661 0.4624 0.94269 0.0
H947 H 0.99648 0.41007 0.92401 0.0
H948 H 0.13474 0.727 0.05935 0.0
H949 H 0.1301 0.67227 0.0612 0.0
H950 H 0.1853 0.6868 0.15719 0.0
H951 H 0.18941 0.74151 0.15596 0.0
C952 C 1.03263 0.19011 0.99949 0.0
C953 C 0.04571 0.19491 0.97073 0.0
H954 H 1.0353 0.16949 0.04464 0.0
C955 C 0.07481 0.18676 0.96781 0.0
H956 H 1.01033 0.19632 1.00241 0.0
C957 C 0.08972 0.17249 0.99255 0.0
C958 C 0.07536 0.16566 0.02017 0.0
H959 H 0.0856 0.19063 0.94601 0.0
H960 H 0.11099 0.16458 0.9888 0.0
C961 C 0.04713 0.1752 0.02383 0.0
C962 C 0.24518 0.92274 0.25821 0.0
C963 C 0.25502 0.93241 0.22892 0.0
H964 H 0.2555 0.89977 0.30079 0.0
C965 C 0.28624 0.93229 0.22395 0.0
H966 H 0.22135 0.92271 0.26299 0.0
C967 C 0.30605 0.91973 0.24615 0.0
C968 C 0.29467 0.90664 0.27327 0.0
H969 H 0.29456 0.93976 0.20176 0.0
H970 H 0.3291 0.9177 0.24035 0.0
C971 C 0.26469 0.90954 0.27994 0.0
C972 C 0.48712 0.82542 0.44067 0.0
C973 C 0.51076 0.81594 0.42529 0.0
H974 H 0.47328 0.86193 0.46639 0.0
C975 C 0.53984 0.83618 0.42581 0.0
H976 H 0.46449 0.81031 0.44072 0.0
C977 C 0.54489 0.86558 0.44058 0.0
C978 C 0.52089 0.87542 0.45496 0.0
H979 H 0.55859 0.82952 0.41429 0.0
H980 H 0.56717 0.88095 0.43967 0.0
C981 C 0.4921 0.85496 0.45524 0.0
C982 C 0.58787 0.40506 0.76576 0.0
C983 C 0.58652 0.4022 0.73186 0.0
H984 H 0.56564 0.39085 0.8065 0.0
C985 C 0.56213 0.38107 0.71269 0.0
H986 H 0.60685 0.4211 0.78088 0.0
C987 C 0.53951 0.3626 0.72733 0.0
C988 C 0.54028 0.36567 0.76134 0.0
H989 H 0.56131 0.37795 0.68652 0.0
H990 H 0.52161 0.34575 0.71193 0.0
C991 C 0.56464 0.38729 0.78038 0.0
C992 C 0.08854 0.94324 0.62586 0.0
C993 C 0.09715 0.91964 0.60708 0.0
H994 H 0.08306 0.99012 0.63093 0.0
C995 C 0.10674 0.92852 0.5769 0.0
H996 H 0.08127 0.93867 0.64927 0.0
C997 C 0.10765 0.95829 0.56612 0.0
C998 C 0.09952 0.98203 0.58485 0.0
H999 H 0.1138 0.9121 0.56098 0.0
H1000 H 0.11508 0.9627 0.54273 0.0
C1001 C 0.08985 0.9734 0.61516 0.0
C1002 C 0.47566 0.78393 0.86605 0.0
C1003 C 0.5023 0.80834 0.8727 0.0
H1004 H 0.42639 0.76771 0.84627 0.0
C1005 C 0.49722 0.83659 0.86243 0.0
H1006 H 0.47786 0.76174 0.87342 0.0
C1007 C 0.46681 0.84019 0.84713 0.0
C1008 C 0.44015 0.81564 0.8408 0.0
H1009 H 0.51648 0.85624 0.8672 0.0
H1010 H 0.46418 0.86247 0.84043 0.0
C1011 C 0.44566 0.78738 0.8503 0.0
C1012 C 0.57043 0.21437 0.09166 0.0
C1013 C 0.58953 0.22539 0.12221 0.0
H1014 H 0.55478 0.17798 0.05254 0.0
C1015 C 0.60797 0.20472 0.13519 0.0
H1016 H 0.55555 0.22844 0.08001 0.0
C1017 C 0.60757 0.17561 0.11938 0.0
C1018 C 0.58854 0.16433 0.08913 0.0
H1019 H 0.62331 0.211 0.15832 0.0
H1020 H 0.62256 0.16176 0.1313 0.0
C1021 C 0.56994 0.18479 0.07571 0.0
C1022 C 0.21646 0.33922 0.37059 0.0
C1023 C 0.19107 0.31345 0.36328 0.0
H1024 H 0.26367 0.3619 0.36298 0.0
C1025 C 0.19627 0.2914 0.33979 0.0
H1026 H 0.21469 0.35701 0.38839 0.0
C1027 C 0.22437 0.29438 0.32495 0.0
C1028 C 0.24996 0.31969 0.33234 0.0
H1029 H 0.17829 0.271 0.33266 0.0
H1030 H 0.22607 0.27619 0.3076 0.0
C1031 C 0.24503 0.3421 0.3557 0.0
C1032 C 1.00804 0.09865 0.15889 0.0
C1033 C 0.97922 0.07778 0.14909 0.0
H1034 H 0.05468 0.1165 0.14839 0.0
C1035 C 0.97547 0.05882 0.12031 0.0
H1036 H 1.01167 0.1135 0.18108 0.0
C1037 C 1.0001 0.06022 0.10202 0.0
C1038 C 1.02906 0.08084 0.11182 0.0
H1039 H 0.95368 0.04239 0.11212 0.0
H1040 H 0.99627 0.04496 0.08014 0.0
C1041 C 1.03276 0.10022 0.14035 0.0
C1042 C 0.31246 0.77683 0.43153 0.0
C1043 C 0.33234 0.79516 0.45778 0.0
H1044 H 0.29505 0.77137 0.38034 0.0
C1045 C 0.34904 0.82378 0.4517 0.0
H1046 H 0.29919 0.75466 0.43518 0.0
C1047 C 0.34651 0.83349 0.42012 0.0
C1048 C 0.32729 0.81479 0.39372 0.0
H1049 H 0.36454 0.83856 0.47125 0.0
H1050 H 0.3603 0.85537 0.41632 0.0
C1051 C 0.31003 0.78647 0.39997 0.0
C1052 C 0.58647 0.96762 0.64847 0.0
C1053 C 0.61689 0.96966 0.66573 0.0
H1054 H 0.5565 0.9884 0.61562 0.0
C1055 C 0.64079 0.99478 0.66348 0.0
H1056 H 0.56789 0.94799 0.6495 0.0
C1057 C 0.63439 1.01788 0.64442 0.0
C1058 C 0.60399 1.01599 0.62691 0.0
H1059 H 0.66468 0.99615 0.67576 0.0
H1060 H 0.65362 0.03667 0.64257 0.0
C1061 C 0.58 0.9907 0.62924 0.0
C1062 C 0.36141 0.41033 0.92926 0.0
C1063 C 0.33378 0.40583 0.94434 0.0
H1064 H 0.38504 0.399 0.88942 0.0
C1065 C 0.30758 0.38413 0.92766 0.0
H1066 H 0.38215 0.42686 0.94057 0.0
C1067 C 0.30899 0.36837 0.89707 0.0
C1068 C 0.33684 0.37315 0.88208 0.0
H1069 H 0.28554 0.38012 0.93757 0.0
H1070 H 0.28811 0.35242 0.88511 0.0
C1071 C 0.36305 0.39424 0.89939 0.0
C1072 C 0.94165 1.01311 0.31427 0.0
C1073 C 0.94513 0.03559 0.29227 0.0
H1074 H 0.96228 0.99585 0.35712 0.0
C1075 C 0.97223 0.05904 0.29766 0.0
H1076 H 0.92109 0.99468 0.31062 0.0
C1077 C 0.9957 0.0597 0.32423 0.0
C1078 C 0.99264 0.03676 0.34568 0.0
H1079 H 0.97554 0.07666 0.28108 0.0
H1080 H 1.01663 0.07772 0.32753 0.0
C1081 C 0.96531 1.0136 0.34066 0.0
C1082 C 0.32652 0.76578 0.65039 0.0
C1083 C 0.35091 0.7796 0.63379 0.0
H1084 H 0.30771 0.76287 0.69544 0.0
C1085 C 0.37558 0.80202 0.65121 0.0
H1086 H 0.30728 0.74825 0.63787 0.0
C1087 C 0.37567 0.81065 0.68423 0.0
C1088 C 0.35143 0.79664 0.70091 0.0
H1089 H 0.39479 0.81309 0.63926 0.0
H1090 H 0.39491 0.82817 0.69677 0.0
C1091 C 0.32692 0.774 0.68355 0.0
C1092 C 0.54687 0.98991 0.79863 0.0
C1093 C 0.56255 1.01183 0.78048 0.0
H1094 H 0.51913 0.98145 0.83703 0.0
C1095 C 0.55771 0.04146 0.78351 0.0
H1096 H 0.5495 0.96659 0.79601 0.0
C1097 C 0.54123 0.05025 0.80766 0.0
C1098 C 0.52874 0.02926 0.82879 0.0
H1099 H 0.56928 0.05857 0.76937 0.0
H1100 H 0.54124 0.07413 0.81161 0.0
C1101 C 0.52958 0.99851 0.82221 0.0
C1102 C 0.33945 0.40466 0.16403 0.0
C1103 C 0.31636 0.39 0.13754 0.0
H1104 H 0.36142 0.40428 0.21415 0.0
C1105 C 0.29763 0.36204 0.14404 0.0
H1106 H 0.35459 0.42607 0.16098 0.0
C1107 C 0.30156 0.34943 0.17462 0.0
C1108 C 0.32442 0.36391 0.20116 0.0
H1109 H 0.27947 0.3494 0.12512 0.0
H1110 H 0.28636 0.32796 0.17738 0.0
C1111 C 0.34332 0.39198 0.19497 0.0
C1112 C 0.29363 1.00655 0.0715 0.0
C1113 C 0.30351 0.9897 0.0969 0.0
H1114 H 0.26732 0.04007 0.05642 0.0
C1115 C 0.29413 0.99458 0.12754 0.0
H1116 H 0.30036 1.00336 0.0476 0.0
C1117 C 0.27528 1.01566 0.13262 0.0
C1118 C 0.26541 0.03258 0.10727 0.0
H1119 H 0.30126 0.98202 0.1477 0.0
H1120 H 0.26867 1.0189 0.15657 0.0
C1121 C 0.27488 0.02778 0.07665 0.0
C1122 C 0.74691 0.63356 0.08475 0.0
C1123 C 0.7631 0.63541 0.05723 0.0
H1124 H 0.70388 0.61898 0.1048 0.0
C1125 C 0.74496 0.62134 0.02745 0.0
H1126 H 0.7592 0.64384 0.10836 0.0
C1127 C 0.71241 0.60645 0.02551 0.0
C1128 C 0.69633 0.60507 0.05318 0.0
H1129 H 0.75582 0.62193 1.0055 0.0
H1130 H 0.69964 0.5964 1.00201 0.0
C1131 C 0.71462 0.61902 0.08278 0.0
C1132 C 0.83278 0.51797 0.42229 0.0
C1133 C 0.83852 0.54879 0.41674 0.0
H1134 H 0.84222 0.47446 0.41014 0.0
C1135 C 0.86418 0.56057 0.40082 0.0
H1136 H 0.8134 0.50826 0.43479 0.0
C1137 C 0.88103 0.54121 0.38694 0.0
C1138 C 0.87238 0.50977 0.38865 0.0
H1139 H 0.86964 0.5844 0.3968 0.0
H1140 H 0.8991 0.55056 0.37269 0.0
C1141 C 0.8495 0.49857 0.40826 0.0
C1142 C 0.97097 0.51235 0.60224 0.0
C1143 C 0.95143 0.49171 0.57763 0.0
H1144 H 1.0145 0.54524 0.61563 0.0
C1145 C 0.96152 0.48834 0.5472 0.0
H1146 H 0.96384 0.51538 0.62598 0.0
C1147 C 0.99006 0.50562 0.54121 0.0
C1148 C 1.00954 0.52646 0.5656 0.0
H1149 H 0.94708 0.47272 0.52767 0.0
H1150 H 0.99686 0.50254 0.51731 0.0
C1151 C 0.99995 0.52941 0.59636 0.0
C1152 C 0.47993 0.18941 0.26348 0.0
C1153 C 0.48978 0.19596 0.29726 0.0
H1154 H 0.4418 0.1845 0.22373 0.0
C1155 C 0.46814 0.20338 0.3169 0.0
H1156 H 0.49606 0.18355 0.24769 0.0
C1157 C 0.43712 0.20347 0.30325 0.0
C1158 C 0.42707 0.19633 0.26963 0.0
H1159 H 0.4749 0.2085 0.34299 0.0
H1160 H 0.42105 0.20948 0.31904 0.0
C1161 C 0.44888 0.18977 0.24976 0.0
C1162 C 0.46002 0.12351 0.5335 0.0
C1163 C 0.46168 0.14926 0.55557 0.0
H1164 H 0.48317 0.08861 0.51558 0.0
C1165 C 0.49084 0.15785 0.57731 0.0
H1166 H 0.43877 0.11553 0.51602 0.0
C1167 C 0.51641 0.14232 0.57716 0.0
C1168 C 0.51515 0.11685 0.55515 0.0
H1169 H 0.49428 0.1772 0.59499 0.0
H1170 H 0.53766 0.15072 0.59457 0.0
C1171 C 0.486 0.10787 0.53326 0.0
C1172 C 0.81543 0.71146 0.37948 0.0
C1173 C 0.78334 0.69747 0.37068 0.0
H1174 H 0.8534 0.74682 0.37148 0.0
C1175 C 0.76415 0.71055 0.34805 0.0
H1176 H 0.83085 0.70198 0.39686 0.0
C1177 C 0.77712 0.73614 0.33328 0.0
C1178 C 0.80954 0.74925 0.34088 0.0
H1179 H 0.7393 0.70039 0.34077 0.0
H1180 H 0.76181 0.74515 0.31534 0.0
C1181 C 0.82839 0.73708 0.36475 0.0
C1182 C 0.99109 0.55496 0.88662 0.0
C1183 C 1.0243 0.56234 0.89371 0.0
H1184 H 0.9496 0.51996 0.87426 0.0
C1185 C 1.04093 0.53878 0.89776 0.0
H1186 H 0.97751 0.57251 0.88322 0.0
C1187 C 1.02482 0.50848 0.89288 0.0
C1188 C 0.99175 0.50105 0.88365 0.0
H1189 H 0.06652 0.54371 0.90354 0.0
H1190 H 1.03839 0.49088 0.89573 0.0
C1191 C 0.97503 0.52471 0.88147 0.0
C1192 C 0.10686 0.96397 0.09693 0.0
C1193 C 0.13625 0.95914 0.09004 0.0
H1194 H 0.07076 0.98959 0.08763 0.0
C1195 C 0.14874 0.97214 0.06348 0.0
H1196 H 0.0964 0.9537 0.11689 0.0
C1197 C 0.13369 0.99245 0.04642 0.0
C1198 C 0.10592 0.99942 0.05559 0.0
H1199 H 0.17131 0.96859 0.05764 0.0
H1200 H 0.14541 1.00496 0.02846 0.0
C1201 C 0.0918 0.98394 0.07977 0.0
C1202 C 0.89566 0.21568 0.85168 0.0
C1203 C 0.92322 0.21185 0.83939 0.0
H1204 H 0.85637 0.23785 0.84709 0.0
C1205 C 0.92763 0.22101 0.80815 0.0
H1206 H 0.89137 0.20862 0.87543 0.0
C1207 C 0.90763 0.23795 0.79206 0.0
C1208 C 0.88259 0.24509 0.8066 0.0
H1209 H 0.94845 0.21814 0.79775 0.0
H1210 H 0.91365 0.24799 0.77009 0.0
C1211 C 0.8755 0.23227 0.83537 0.0
C1212 C 0.63005 0.31388 0.64685 0.0
C1213 C 0.658 0.33539 0.65815 0.0
H1214 H 0.60922 0.26795 0.62965 0.0
C1215 C 0.68733 0.32675 0.65877 0.0
H1216 H 0.60705 0.31976 0.64612 0.0
C1217 C 0.68857 0.29691 0.64905 0.0
C1218 C 0.66051 0.27525 0.63847 0.0
H1219 H 0.70928 0.34285 0.66734 0.0
H1220 H 0.71147 0.29078 0.64997 0.0
C1221 C 0.63129 0.28417 0.63719 0.0
C1222 C 0.58656 0.81343 0.29454 0.0
C1223 C 0.57622 0.7824 0.29767 0.0
H1224 H 0.62335 0.84783 0.28198 0.0
C1225 C 0.59334 0.76162 0.28662 0.0
H1226 H 0.57376 0.82992 0.3029 0.0
C1227 C 0.6214 0.77184 0.27441 0.0
C1228 C 0.6329 0.803 0.27345 0.0
H1229 H 0.58573 0.73755 0.2886 0.0
H1230 H 0.63501 0.75549 0.26751 0.0
C1231 C 0.61492 0.8237 0.28277 0.0
C1232 C 0.09272 0.21965 0.51871 0.0
C1233 C 0.095 0.22675 0.48594 0.0
H1234 H 0.08943 0.18709 0.5549 0.0
C1235 C 0.09504 0.20094 0.46444 0.0
H1236 H 0.09251 0.23763 0.53698 0.0
C1237 C 0.09299 0.17061 0.47527 0.0
C1238 C 0.09082 0.16394 0.50831 0.0
H1239 H 0.09664 0.20402 0.43904 0.0
H1240 H 0.09335 0.15226 0.45749 0.0
C1241 C 0.09082 0.18978 0.52939 0.0
C1242 C 0.68644 0.30633 0.26078 0.0
C1243 C 0.67726 0.32291 0.2344 0.0
H1244 H 0.72355 0.29481 0.29438 0.0
C1245 C 0.70245 0.34204 0.2226 0.0
H1246 H 0.66856 0.29117 0.27106 0.0
C1247 C 0.73493 0.3442 0.23649 0.0
C1248 C 0.74383 0.32731 0.2628 0.0
H1249 H 0.69716 0.35525 0.20242 0.0
H1250 H 0.75317 0.35902 0.22631 0.0
C1251 C 0.71856 0.30842 0.27446 0.0
C1252 C 0.60936 0.92877 1.00023 0.0
C1253 C 0.60195 0.9216 0.96588 0.0
H1254 H 0.61427 0.96191 0.04188 0.0
C1255 C 0.5938 0.946 0.94842 0.0
H1256 H 0.61573 0.91163 0.01547 0.0
C1257 C 0.59297 0.97503 0.96359 0.0
C1258 C 0.60018 0.98238 0.99771 0.0
H1259 H 0.58776 0.9428 0.92214 0.0
H1260 H 0.5864 0.99194 0.94809 0.0
C1261 C 0.60845 0.95819 0.01561 0.0
C1262 C 0.98889 0.83907 0.74104 0.0
C1263 C 0.98936 0.81342 0.71959 0.0
H1264 H 0.96357 0.86116 0.77395 0.0
C1265 C 0.96217 0.7896 0.71774 0.0
H1266 H 1.00847 0.85838 0.74365 0.0
C1267 C 0.93638 0.79112 0.73525 0.0
C1268 C 0.93527 0.8167 0.75615 0.0
H1269 H 0.96039 0.76917 0.70205 0.0
H1270 H 0.91664 0.77192 0.73174 0.0
C1271 C 0.96259 0.84069 0.75864 0.0
C1272 C 0.21027 0.08987 0.96956 0.0
C1273 C 0.20418 0.10316 0.9403 0.0
H1274 H 0.19257 0.07406 1.01231 0.0
C1275 C 0.17432 0.11018 0.93135 0.0
H1276 H 0.23301 0.08409 0.97701 0.0
C1277 C 0.15103 0.1042 0.95139 0.0
C1278 C 0.15725 0.09125 0.98084 0.0
H1279 H 0.16884 0.12027 0.90881 0.0
H1280 H 0.12837 0.11019 0.94403 0.0
C1281 C 0.18705 0.08404 0.9897 0.0
C1282 C 0.90036 0.38548 0.67654 0.0
C1283 C 0.87499 0.38506 0.65135 0.0
H1284 H 0.91526 0.37286 0.72439 0.0
C1285 C 0.84458 0.37002 0.65557 0.0
H1286 H 0.92417 0.39691 0.67423 0.0
C1287 C 0.83954 0.35621 0.68427 0.0
C1288 C 0.86474 0.35703 0.70977 0.0
H1289 H 0.82447 0.3692 0.63685 0.0
H1290 H 0.81558 0.34519 0.68652 0.0
C1291 C 0.8953 0.37169 0.70539 0.0
C1292 C 0.59018 0.15838 0.43454 0.0
C1293 C 0.56719 0.13945 0.41124 0.0
H1294 H 0.61861 0.16226 0.48174 0.0
C1295 C 0.55501 0.10965 0.41773 0.0
H1296 H 0.60001 0.18141 0.42985 0.0
C1297 C 0.56638 0.09855 0.44645 0.0
C1298 C 0.58958 0.11723 0.46962 0.0
H1299 H 0.53762 0.09442 0.40001 0.0
H1300 H 0.55681 0.07529 0.45059 0.0
C1301 C 0.60092 0.14746 0.46394 0.0
C1302 C 0.83167 0.76462 0.14006 0.0
C1303 C 0.85377 0.74678 0.13318 0.0
H1304 H 0.81441 0.79211 0.17456 0.0
C1305 C 0.87692 0.7444 0.15991 0.0
H1306 H 0.81328 0.76752 0.12092 0.0
C1307 C 0.87746 0.75891 0.19174 0.0
C1308 C 0.85495 0.77654 0.19834 0.0
H1309 H 0.89441 0.73098 0.15643 0.0
H1310 H 0.89554 0.75615 0.21127 0.0
C1311 C 0.83227 0.77901 0.17144 0.0
C1312 C 0.17442 0.055 0.81332 0.0
C1313 C 0.2073 0.05888 0.81384 0.0
H1314 H 0.12983 0.05731 0.78556 0.0
C1315 C 0.21997 0.06454 0.78495 0.0
H1316 H 0.16401 0.05081 0.83529 0.0
C1317 C 0.20047 0.06827 0.75664 0.0
C1318 C 0.16795 0.06663 0.75672 0.0
H1319 H 0.24524 0.06767 0.78467 0.0
H1320 H 0.21121 0.07421 0.73523 0.0
C1321 C 0.15492 0.05907 0.78502 0.0
C1322 C 0.8431 0.33967 0.45988 0.0
C1323 C 0.84354 0.37 0.47021 0.0
H1324 H 0.83982 0.30662 0.41976 0.0
C1325 C 0.83956 0.39029 0.44622 0.0
H1326 H 0.84602 0.32335 0.47756 0.0
C1327 C 0.83621 0.38072 0.41293 0.0
C1328 C 0.8364 0.35049 0.40262 0.0
H1329 H 0.83988 0.41384 0.45315 0.0
H1330 H 0.834 0.39722 0.3953 0.0
C1331 C 0.83944 0.33002 0.42661 0.0
C1332 C 0.67815 0.14075 0.2984 0.0
C1333 C 0.66485 0.1666 0.29622 0.0
H1334 H 0.69404 0.1064 0.2716 0.0
C1335 C 0.66842 0.18378 0.26942 0.0
H1336 H 0.67603 0.12732 0.31907 0.0
C1337 C 0.67951 0.17215 0.24249 0.0
C1338 C 0.686 0.14287 0.24194 0.0
H1339 H 0.65889 0.20415 0.26757 0.0
H1340 H 0.67838 0.18392 0.2205 0.0
C1341 C 0.68858 0.12876 0.27115 0.0
C1342 C 0.89068 0.77641 0.94311 0.0
C1343 C 0.87186 0.74851 0.94966 0.0
H1344 H 0.90183 0.8106 0.9098 0.0
C1345 C 0.84859 0.73401 0.92324 0.0
H1346 H 0.90899 0.78894 0.96196 0.0
C1347 C 0.8446 0.74679 0.89236 0.0
C1348 C 0.86355 0.77482 0.88611 0.0
H1349 H 0.83338 0.71265 0.92631 0.0
H1350 H 0.8263 0.73461 0.87329 0.0
C1351 C 0.88662 0.78914 0.91257 0.0
C1352 C 0.88639 0.15928 0.02266 0.0
C1353 C 0.89323 0.18807 1.01094 0.0
H1354 H 0.89718 0.11513 0.02427 0.0
C1355 C 0.91715 0.19413 0.99121 0.0
H1356 H 0.86795 0.15374 0.03769 0.0
C1357 C 0.93393 0.17195 0.98352 0.0
C1358 C 0.92722 0.14321 0.99541 0.0
H1359 H 0.92298 0.21604 0.98169 0.0
H1360 H 0.95261 0.17756 0.96879 0.0
C1361 C 0.90317 0.13713 0.01499 0.0
C1362 C 0.43905 0.52465 0.06063 0.0
C1363 C 0.42631 0.49922 0.03783 0.0
H1364 H 0.47936 0.56067 0.07976 0.0
C1365 C 0.44605 0.49303 0.01493 0.0
H1366 H 0.42532 0.53035 0.07904 0.0
C1367 C 0.47689 0.51063 0.015 0.0
C1368 C 0.4903 0.53533 0.03838 0.0
H1369 H 0.43777 0.47388 0.99682 0.0
H1370 H 0.49069 0.50408 0.99705 0.0
C1371 C 0.47043 0.54212 0.06107 0.0
C1372 C 0.36186 0.63683 0.67924 0.0
C1373 C 0.35782 0.6059 0.6842 0.0
H1374 H 0.35102 0.67943 0.6931 0.0
C1375 C 0.3348 0.59322 0.70299 0.0
H1376 H 0.37919 0.64724 0.6647 0.0
C1377 C 0.31858 0.61167 0.71922 0.0
C1378 C 0.32491 0.64308 0.71679 0.0
H1379 H 0.33075 0.56935 0.70692 0.0
H1380 H 0.30236 0.60161 0.73508 0.0
C1381 C 0.34555 0.65527 0.69542 0.0
C1382 C 0.21764 0.66644 0.51863 0.0
C1383 C 0.24422 0.65723 0.53482 0.0
H1384 H 0.16742 0.65601 0.50391 0.0
C1385 C 0.2401 0.6286 0.54714 0.0
H1386 H 0.21999 0.68828 0.50868 0.0
C1387 C 0.20995 0.61002 0.54428 0.0
C1388 C 0.18324 0.61967 0.52905 0.0
H1389 H 0.26008 0.62072 0.55959 0.0
H1390 H 0.20753 0.58844 0.55479 0.0
C1391 C 0.18749 0.64788 0.51579 0.0
C1392 C 0.71246 0.92987 0.83115 0.0
C1393 C 0.70848 0.95749 0.81913 0.0
H1394 H 0.74496 0.90414 0.85219 0.0
C1395 C 0.73433 0.98229 0.82428 0.0
H1396 H 0.693 0.91036 0.82772 0.0
C1397 C 0.76415 0.97886 0.83877 0.0
C1398 C 0.76878 0.95052 0.84827 0.0
H1399 H 0.73191 1.00406 0.81578 0.0
H1400 H 0.78387 0.99805 0.84114 0.0
C1401 C 0.74232 0.92639 0.84546 0.0
C1402 C 0.74143 0.03884 0.55836 0.0
C1403 C 0.74184 1.00787 0.55039 0.0
H1404 H 0.71536 0.07425 0.56362 0.0
C1405 C 0.71126 0.98902 0.54059 0.0
H1406 H 0.76356 0.05488 0.56606 0.0
C1407 C 0.68245 1.00065 0.53928 0.0
C1408 C 0.68251 0.03182 0.54749 0.0
H1409 H 0.70943 0.9651 0.53425 0.0
H1410 H 0.66 0.98501 0.53191 0.0
C1411 C 0.71307 0.05031 0.55692 0.0
C1412 C 0.37348 0.44342 0.70922 0.0
C1413 C 0.40592 0.45108 0.70675 0.0
H1414 H 0.33673 0.41398 0.72819 0.0
C1415 C 0.4261 0.4329 0.72048 0.0
H1416 H 0.35729 0.45703 0.6991 0.0
C1417 C 0.41429 0.40819 0.73721 0.0
C1418 C 0.38209 0.40133 0.74086 0.0
H1419 H 0.45121 0.43824 0.71908 0.0
H1420 H 0.43057 0.39491 0.74792 0.0
C1421 C 0.36174 0.41892 0.72624 0.0
C1422 C 0.17648 0.6082 0.29358 0.0
C1423 C 0.1685 0.58786 0.2654 0.0
H1424 H 0.19501 0.6538 0.31393 0.0
C1425 C 0.17265 0.59909 0.23507 0.0
H1426 H 0.17349 0.60043 0.31736 0.0
C1427 C 0.18506 0.62995 0.23314 0.0
C1428 C 0.19381 0.65006 0.26155 0.0
H1429 H 0.16668 0.58403 0.2129 0.0
H1430 H 0.18854 0.63793 0.20955 0.0
C1431 C 0.18904 0.63884 0.29169 0.0
C1432 C 0.58966 0.70377 0.45808 0.0
C1433 C 0.56297 0.69545 0.43374 0.0
H1434 H 0.61792 0.69002 0.49869 0.0
C1435 C 0.54428 0.66619 0.43166 0.0
H1436 H 0.60451 0.72625 0.46024 0.0
C1437 C 0.55191 0.64566 0.45342 0.0
C1438 C 0.57844 0.65381 0.47798 0.0
H1439 H 0.52359 0.65904 0.41321 0.0
H1440 H 0.53673 0.62333 0.45086 0.0
C1441 C 0.59733 0.68308 0.4801 0.0
C1442 C 0.79647 0.43233 0.75051 0.0
C1443 C 0.76564 0.43172 0.75713 0.0
H1444 H 0.83779 0.41348 0.75972 0.0
C1445 C 0.75523 0.4159 0.78322 0.0
H1446 H 0.8052 0.44451 0.73078 0.0
C1447 C 0.77348 0.39752 0.79914 0.0
C1448 C 0.80281 0.39563 0.79003 0.0
H1449 H 0.73171 0.41524 0.78928 0.0
H1450 H 0.76379 0.38331 0.817 0.0
C1451 C 0.8151 0.41458 0.76712 0.0
C1452 C 0.06813 0.3374 0.93043 0.0
C1453 C 1.03971 0.31585 0.9219 0.0
H1454 H 0.09007 0.38318 0.94755 0.0
C1455 C 1.01095 0.32434 0.9255 0.0
H1456 H 0.09068 0.33162 0.92778 0.0
C1457 C 1.01062 0.35387 0.93724 0.0
C1458 C 1.03904 0.37557 0.94547 0.0
H1459 H 0.98865 0.3082 0.91927 0.0
H1460 H 0.98809 0.3596 0.94007 0.0
C1461 C 0.06779 0.36695 0.94198 0.0
C1462 C 0.08762 0.88497 0.24354 0.0
C1463 C 0.10317 0.86392 0.23009 0.0
H1464 H 0.0517 0.89211 0.2717 0.0
C1465 C 0.09417 0.83314 0.23529 0.0
H1466 H 0.09413 0.90884 0.24003 0.0
C1467 C 0.06962 0.82355 0.25318 0.0
C1468 C 0.0542 0.84467 0.26666 0.0
H1469 H 0.10573 0.81643 0.22512 0.0
H1470 H 0.06277 0.79968 0.25662 0.0
C1471 C 0.06353 0.87546 0.26185 0.0
C1472 C 0.58606 0.44289 0.12545 0.0
C1473 C 0.59436 0.4191 0.10667 0.0
H1474 H 0.58086 0.48989 0.13038 0.0
C1475 C 0.60374 0.42781 0.07634 0.0
H1476 H 0.57893 0.43849 0.14896 0.0
C1477 C 0.60475 0.45755 0.06544 0.0
C1478 C 0.59691 0.48147 0.08414 0.0
H1479 H 0.61055 0.41126 0.06037 0.0
H1480 H 0.61202 0.46178 0.04194 0.0
C1481 C 0.58744 0.47303 0.11461 0.0
C1482 C 0.99377 0.33579 0.36416 0.0
C1483 C 0.99902 0.30764 0.37455 0.0
H1484 H 0.96047 0.36158 0.34249 0.0
C1485 C 0.97228 0.28326 0.36846 0.0
H1486 H 1.01306 0.35543 0.36849 0.0
C1487 C 0.94207 0.28666 0.35315 0.0
C1488 C 0.93642 0.31485 0.34353 0.0
H1489 H 0.97457 0.26112 0.37592 0.0
H1490 H 0.92277 0.26703 0.34955 0.0
C1491 C 0.96317 0.33935 0.34929 0.0
C1492 C 0.07228 0.71531 0.59245 0.0
C1493 C 0.08981 0.72549 0.62395 0.0
H1494 H 0.05807 0.67972 0.5524 0.0
C1495 C 0.10655 0.70394 0.63787 0.0
H1496 H 0.05884 0.73013 0.57998 0.0
C1497 C 0.10614 0.67485 0.62202 0.0
C1498 C 0.08887 0.66451 0.59071 0.0
H1499 H 0.12059 0.70952 0.66179 0.0
H1500 H 0.11977 0.66028 0.6347 0.0
C1501 C 0.07185 0.68579 0.5764 0.0
C1502 C 0.72082 0.83738 0.87424 0.0
C1503 C 0.69283 0.81547 0.86168 0.0
H1504 H 0.77029 0.85669 0.87132 0.0
C1505 C 0.69591 0.79695 0.83382 0.0
H1506 H 0.72069 0.85233 0.89549 0.0
C1507 C 0.72441 0.79958 0.81972 0.0
C1508 C 0.75255 0.82093 0.83229 0.0
H1509 H 0.67587 0.77964 0.82253 0.0
H1510 H 0.72435 0.78419 0.79876 0.0
C1511 C 0.74978 0.8399 0.86007 0.0
C1512 C 0.53354 0.58276 0.6598 0.0
C1513 C 0.50102 0.57794 0.64765 0.0
H1514 H 0.58104 0.5975 0.65041 0.0
C1515 C 0.49159 0.58733 0.6169 0.0
H1516 H 0.54161 0.57607 0.68358 0.0
C1517 C 0.51426 0.60001 0.59811 0.0
C1518 C 0.54678 0.60338 0.60959 0.0
H1519 H 0.46675 0.58436 0.60706 0.0
H1520 H 0.50626 0.60613 0.57404 0.0
C1521 C 0.5562 0.59536 0.64096 0.0
C1522 C 0.79959 0.24787 0.9165 0.0
C1523 C 0.815 0.26351 0.94636 0.0
H1524 H 0.79146 0.24738 0.8647 0.0
C1525 C 0.83359 0.29272 0.9461 0.0
H1526 H 0.78492 0.22541 0.91567 0.0
C1527 C 0.83742 0.3055 0.91644 0.0
C1528 C 0.82266 0.28931 0.88654 0.0
H1529 H 0.84584 0.30534 0.96867 0.0
H1530 H 0.85251 0.3277 0.91692 0.0
C1531 C 0.80334 0.26055 0.8871 0.0
C1532 C 0.0853 0.46397 0.1486 0.0
C1533 C 0.11197 0.47302 0.17276 0.0
H1534 H 0.05688 0.47642 0.1073 0.0
C1535 C 0.12932 0.50282 0.17515 0.0
H1536 H 0.07183 0.44086 0.14594 0.0
C1537 C 0.12026 0.52339 0.15385 0.0
C1538 C 0.09437 0.51406 0.1288 0.0
H1539 H 0.15132 0.50945 0.19169 0.0
H1540 H 0.13505 0.54587 0.15542 0.0
C1541 C 0.07667 0.48428 0.12663 0.0
C1542 C 0.81083 0.88443 0.42934 0.0
C1543 C 0.83734 0.90568 0.44614 0.0
H1544 H 0.7911 0.85244 0.38707 0.0
C1545 C 0.86529 0.90892 0.43157 0.0
H1546 H 0.78859 0.88126 0.43886 0.0
C1547 C 0.86691 0.89212 0.40211 0.0
C1548 C 0.8404 0.87149 0.38467 0.0
H1549 H 0.88636 0.92496 0.44301 0.0
H1550 H 0.88914 0.89596 0.39254 0.0
C1551 C 0.81225 0.86797 0.39914 0.0
C1552 C 0.48193 0.5558 0.79004 0.0
C1553 C 0.45058 0.5393 0.7867 0.0
H1554 H 0.52759 0.56694 0.81929 0.0
C1555 C 0.44099 0.52187 0.81188 0.0
H1556 H 0.49006 0.56956 0.77114 0.0
C1557 C 0.46265 0.52029 0.83946 0.0
C1558 C 0.49424 0.536 0.8422 0.0
H1559 H 0.41703 0.5088 0.80993 0.0
H1560 H 0.45491 0.50611 0.85821 0.0
C1561 C 0.50354 0.55411 0.81747 0.0
C1562 C 0.86952 0.30831 0.15389 0.0
C1563 C 0.84962 0.28154 0.13826 0.0
H1564 H 0.88495 0.3375 0.19805 0.0
C1565 C 0.83031 0.26288 0.1568 0.0
H1566 H 0.88476 0.32321 0.14045 0.0
C1567 C 0.83063 0.27093 0.18994 0.0
C1568 C 0.85006 0.29801 0.20545 0.0
H1569 H 0.81484 0.24198 0.1457 0.0
H1570 H 0.81521 0.25607 0.20324 0.0
C1571 C 0.86964 0.3165 0.187 0.0
C1572 C 1.03296 0.51584 0.28 0.0
C1573 C 0.0544 0.49679 0.28721 0.0
H1574 H 1.00363 0.54324 0.29916 0.0
C1575 C 0.05711 0.48535 0.31793 0.0
H1576 H 1.02996 0.52461 0.25632 0.0
C1577 C 0.04228 0.49613 0.34244 0.0
C1578 C 1.02438 0.51854 0.33666 0.0
H1579 H 0.07295 0.47011 0.32398 0.0
H1580 H 0.04781 0.48921 0.36671 0.0
C1581 C 1.01798 0.52661 0.30459 0.0
C1582 C 0.83622 0.92059 0.68433 0.0
C1583 C 0.8296 0.90782 0.6514 0.0
H1584 H 0.84228 0.91449 0.73574 0.0
C1585 C 0.82319 0.87564 0.64757 0.0
H1586 H 0.84137 0.94497 0.68946 0.0
C1587 C 0.82353 0.85762 0.67511 0.0
C1588 C 0.83038 0.87075 0.70801 0.0
H1589 H 0.81788 0.86422 0.62324 0.0
H1590 H 0.81869 0.8332 0.6705 0.0
C1591 C 0.8367 0.90279 0.71154 0.0
C1592 C 0.80072 0.51095 0.56236 0.0
C1593 C 0.80848 0.49727 0.59109 0.0
H1594 H 0.77802 0.54412 0.53986 0.0
C1595 C 0.79916 0.50776 0.62003 0.0
H1596 H 0.80751 0.50349 0.53962 0.0
C1597 C 0.78233 0.53118 0.62019 0.0
C1598 C 0.77454 0.54486 0.59146 0.0
H1599 H 0.80478 0.49784 0.64264 0.0
H1600 H 0.77561 0.53874 0.64293 0.0
C1601 C 0.78403 0.53447 0.56256 0.0
C1602 C 0.24922 0.13546 0.58455 0.0
C1603 C 0.26514 0.13748 0.55684 0.0
H1604 H 0.20655 0.12053 0.6051 0.0
C1605 C 0.24679 0.12327 0.52719 0.0
H1606 H 0.26164 0.14579 0.60809 0.0
C1607 C 0.21431 0.10814 0.52559 0.0
C1608 C 0.19851 0.10661 0.55347 0.0
H1609 H 0.2574 0.12397 0.50509 0.0
H1610 H 0.20138 0.09803 0.50218 0.0
C1611 C 0.21704 0.12067 0.58292 0.0
C1612 C 0.3724 0.06004 0.89458 0.0
C1613 C 0.34734 0.04788 0.91113 0.0
H1614 H 0.40706 0.05059 0.86578 0.0
C1615 C 0.3428 1.01726 0.91745 0.0
H1616 H 0.37697 0.08376 0.89001 0.0
C1617 C 0.35985 0.99823 0.90332 0.0
C1618 C 0.38185 1.00962 0.88288 0.0
H1619 H 0.32395 1.00729 0.93049 0.0
H1620 H 0.35328 0.97414 0.9057 0.0
C1621 C 0.38961 0.04105 0.88064 0.0
C1622 C 0.46142 0.98616 0.04697 0.0
C1623 C 0.45105 0.98939 0.07727 0.0
H1624 H 0.49727 1.0001 0.01759 0.0
C1625 C 0.47096 1.00926 0.10237 0.0
H1626 H 0.44684 0.97107 0.02709 0.0
C1627 C 0.50038 0.02591 0.09696 0.0
C1628 C 0.5101 0.02329 0.06622 0.0
H1629 H 0.46371 1.01217 0.12606 0.0
H1630 H 0.51505 0.04138 0.11648 0.0
C1631 C 0.4904 1.00297 0.04149 0.0
C1632 C 0.95002 0.65175 0.78738 0.0
C1633 C 0.97669 0.67546 0.78949 0.0
H1634 H 0.90055 0.63623 0.77046 0.0
C1635 C 0.97397 0.70138 0.77322 0.0
H1636 H 0.95157 0.63121 0.79918 0.0
C1637 C 0.94458 0.70452 0.75725 0.0
C1638 C 0.91735 0.68158 0.75679 0.0
H1639 H 0.99414 0.71998 0.77435 0.0
H1640 H 0.94299 0.72577 0.74706 0.0
C1641 C 0.92075 0.65466 0.77095 0.0
C1642 C 0.9539 0.61574 0.03926 0.0
C1643 C 0.95936 0.647 0.0504 0.0
H1644 H 0.9735 0.5756 0.03089 0.0
C1645 C 0.99166 0.66034 0.06221 0.0
H1646 H 0.92998 0.60389 0.02981 0.0
C1647 C 1.01664 0.64412 0.0629 0.0
C1648 C 1.01158 0.61307 0.05183 0.0
H1649 H 0.99809 0.68404 0.07118 0.0
H1650 H 1.04045 0.65639 0.07222 0.0
C1651 C 0.97929 0.59928 0.03992 0.0
C1652 C 0.31285 0.20726 0.8645 0.0
C1653 C 0.28581 0.18785 0.84708 0.0
H1654 H 0.34465 0.2502 0.86817 0.0
C1655 C 0.26867 0.19822 0.82044 0.0
H1656 H 0.32643 0.19999 0.88527 0.0
C1657 C 0.27909 0.22703 0.8106 0.0
C1658 C 0.30686 0.24597 0.82723 0.0
H1659 H 0.24757 0.18385 0.80666 0.0
H1660 H 0.26581 0.23408 0.78949 0.0
C1661 C 0.32327 0.23605 0.85467 0.0
C1662 C 0.51673 0.05503 0.29936 0.0
C1663 C 0.54772 0.06235 0.31661 0.0
H1664 H 0.4732 1.02223 0.28829 0.0
C1665 C 0.5594 0.04005 0.33387 0.0
H1666 H 0.50692 0.07168 0.28585 0.0
C1667 C 0.54011 1.01157 0.33505 0.0
C1668 C 0.50859 1.00471 0.31913 0.0
H1669 H 0.5832 0.04484 0.34728 0.0
H1670 H 0.54976 0.99508 0.34897 0.0
C1671 C 0.49739 0.02657 0.30065 0.0
C1672 C 0.64893 0.50309 0.64274 0.0
C1673 C 0.64298 0.4733 0.6283 0.0
H1674 H 0.6408 0.54775 0.63918 0.0
C1675 C 0.62278 0.46566 0.59833 0.0
H1676 H 0.66407 0.50966 0.66598 0.0
C1677 C 0.60922 0.48768 0.58283 0.0
C1678 C 0.61576 0.51758 0.59712 0.0
H1679 H 0.61749 0.44274 0.58682 0.0
H1680 H 0.59446 0.48151 0.55932 0.0
C1681 C 0.63537 0.5249 0.62743 0.0
C1682 C 0.41567 0.73167 0.30015 0.0
C1683 C 0.4205 0.72558 0.33307 0.0
H1684 H 0.39322 0.75669 0.26496 0.0
C1685 C 0.4014 0.73516 0.35445 0.0
H1686 H 0.43023 0.72452 0.28327 0.0
C1687 C 0.38101 0.7541 0.34418 0.0
C1688 C 0.37883 0.76282 0.31224 0.0
H1689 H 0.40478 0.73098 0.37997 0.0
H1690 H 0.36872 0.76374 0.36181 0.0
C1691 C 0.39467 0.75008 0.28969 0.0
C1692 C 0.13156 0.81088 0.10312 0.0
C1693 C 0.1578 0.83226 0.1192 0.0
H1694 H 0.11236 0.76434 0.08716 0.0
C1695 C 0.18671 0.82326 0.12779 0.0
H1696 H 0.10899 0.81715 0.09613 0.0
C1697 C 0.18871 0.79299 0.12242 0.0
C1698 C 0.16186 0.77121 0.10839 0.0
H1699 H 0.20746 0.83931 0.13993 0.0
H1700 H 0.211 0.78646 0.13024 0.0
C1701 C 0.13355 0.78061 0.09783 0.0
C1702 C 0.12763 0.22606 0.83395 0.0
C1703 C 0.09722 0.2324 0.82794 0.0
H1704 H 0.17511 0.23596 0.82357 0.0
C1705 C 0.09054 0.25153 0.80357 0.0
H1706 H 0.13346 0.21142 0.85258 0.0
C1707 C 0.11428 0.26536 0.78674 0.0
C1708 C 0.14516 0.2604 0.79402 0.0
H1709 H 0.06717 0.25656 0.79811 0.0
H1710 H 0.10863 0.28051 0.76858 0.0
C1711 C 0.15144 0.24003 0.8172 0.0
C1712 C 0.59029 0.71874 0.01662 0.0
C1713 C 0.59449 0.72627 0.98436 0.0
H1714 H 0.58525 0.68577 0.05227 0.0
C1715 C 0.59625 0.70082 0.96319 0.0
H1716 H 0.58867 0.73643 0.03461 0.0
C1717 C 0.59394 0.6704 0.97382 0.0
C1718 C 0.58981 0.6633 1.00636 0.0
H1719 H 0.59934 0.70424 0.93817 0.0
H1720 H 0.59566 0.65234 0.95632 0.0
C1721 C 0.58818 0.6888 0.02714 0.0
C1722 C 0.19021 0.80727 0.75905 0.0
C1723 C 0.18079 0.82368 0.73264 0.0
H1724 H 0.2276 0.79557 0.79207 0.0
C1725 C 0.20582 0.8423 0.72008 0.0
H1726 H 0.17245 0.79251 0.76991 0.0
C1727 C 0.23841 0.84415 0.73333 0.0
C1728 C 0.24754 0.8274 0.75967 0.0
H1729 H 0.20032 0.85538 0.69985 0.0
H1730 H 0.25652 0.8586 0.72263 0.0
C1731 C 0.22242 0.80901 0.77206 0.0
C1732 C 0.09322 0.44628 0.44832 0.0
C1733 C 0.10122 0.42184 0.46582 0.0
H1734 H 0.0863 0.49238 0.44793 0.0
C1735 C 0.10894 0.42913 0.50014 0.0
H1736 H 0.08696 0.44299 0.42207 0.0
C1737 C 0.10847 0.45868 0.51546 0.0
C1738 C 0.10035 0.48292 0.49753 0.0
H1739 H 0.11522 0.41196 0.5154 0.0
H1740 H 0.11449 0.46248 0.5417 0.0
C1741 C 0.09282 0.47546 0.46344 0.0
C1742 C 0.48926 0.35464 0.25085 0.0
C1743 C 0.49529 0.33233 0.22814 0.0
H1744 H 0.45843 0.36973 0.28206 0.0
C1745 C 0.47059 0.30601 0.22133 0.0
H1746 H 0.50672 0.37547 0.2575 0.0
C1747 C 0.4418 0.30281 0.23581 0.0
C1748 C 0.43592 0.32551 0.25828 0.0
H1749 H 0.47303 0.28801 0.20414 0.0
H1750 H 0.4238 0.2824 0.22892 0.0
C1751 C 0.46091 0.35134 0.26539 0.0
C1752 C 0.65599 0.57632 0.42091 0.0
C1753 C 0.68821 0.57725 0.43192 0.0
H1754 H 0.60901 0.56956 0.43308 0.0
C1755 C 0.69691 0.56719 0.46249 0.0
H1756 H 0.64849 0.58352 0.39722 0.0
C1757 C 0.67425 0.55873 0.48271 0.0
C1758 C 0.64246 0.56032 0.47287 0.0
H1759 H 0.72143 0.56706 0.47142 0.0
H1760 H 0.68206 0.55279 0.50693 0.0
C1761 C 0.63326 0.56792 0.44125 0.0
C1762 C 0.33806 0.87045 0.15002 0.0
C1763 C 0.36921 0.88239 0.14497 0.0
H1764 H 0.30766 0.85053 0.18283 0.0
C1765 C 0.39421 0.88162 0.17005 0.0
H1766 H 0.31819 0.87073 0.13137 0.0
C1767 C 0.38819 0.8701 0.19971 0.0
C1768 C 0.35699 0.85892 0.2051 0.0
H1769 H 0.41852 0.89063 0.16713 0.0
H1770 H 0.40802 0.87056 0.21866 0.0
C1771 C 0.33204 0.85885 0.17965 0.0
C1772 C 0.11804 0.67085 0.95054 0.0
C1773 C 0.08752 0.67356 0.93695 0.0
H1774 H 0.14571 0.64614 0.98138 0.0
C1775 C 0.06112 0.65393 0.94483 0.0
H1776 H 0.13871 0.68636 0.94522 0.0
C1777 C 0.06499 0.63088 0.96485 0.0
C1778 C 0.09546 0.62753 0.97801 0.0
H1779 H 1.03741 0.65667 0.93578 0.0
H1780 H 0.04401 0.61613 0.9706 0.0
C1781 C 0.12201 0.64792 0.97104 0.0
C1782 C 0.33052 0.26867 0.63621 0.0
C1783 C 0.35275 0.25057 0.63052 0.0
H1784 H 0.31222 0.2965 0.66954 0.0
C1785 C 0.37492 0.24811 0.65806 0.0
H1786 H 0.31283 0.27161 0.61637 0.0
C1787 C 0.3744 0.26273 0.68953 0.0
C1788 C 0.35179 0.2806 0.69496 0.0
H1789 H 0.39244 0.23449 0.6555 0.0
H1790 H 0.39175 0.25986 0.70973 0.0
C1791 C 0.33009 0.28322 0.66728 0.0
C1792 C 0.72924 0.59492 0.28536 0.0
C1793 C 0.72105 0.57127 0.30514 0.0
H1794 H 0.71462 0.61803 0.24443 0.0
C1795 C 0.69203 0.55058 0.29639 0.0
H1796 H 0.75158 0.61106 0.2913 0.0
C1797 C 0.67068 0.55478 0.26956 0.0
C1798 C 0.67811 0.57972 0.25124 0.0
H1799 H 0.68504 0.53223 0.31129 0.0
H1800 H 0.64782 0.53941 0.26413 0.0
C1801 C 0.70798 0.59911 0.25873 0.0
C1802 C 0.34404 0.84153 0.9552 0.0
C1803 C 0.34416 0.8719 0.96509 0.0
H1804 H 0.34206 0.80828 0.91566 0.0
C1805 C 0.34116 0.89209 0.94081 0.0
H1806 H 0.34626 0.82528 0.97311 0.0
C1807 C 0.339 0.88235 0.90767 0.0
C1808 C 0.33943 0.85205 0.89784 0.0
H1809 H 0.34131 0.91566 0.94742 0.0
H1810 H 0.33748 0.89875 0.88981 0.0
C1811 C 0.34157 0.83173 0.92211 0.0
C1812 C 0.10763 0.60283 0.80537 0.0
C1813 C 0.11645 0.63453 0.81088 0.0
H1814 H 0.10854 0.5635 0.77474 0.0
C1815 C 0.13748 0.65063 0.79216 0.0
H1816 H 0.09193 0.58978 0.81992 0.0
C1817 C 0.14692 0.63548 0.76612 0.0
C1818 C 0.1355 0.60413 0.75876 0.0
H1819 H 0.14473 0.67507 0.79607 0.0
H1820 H 0.16111 0.64859 0.75033 0.0
C1821 C 0.11713 0.58776 0.77959 0.0
C1822 C 0.37328 0.28606 0.44772 0.0
C1823 C 0.36602 0.25438 0.45122 0.0
H1824 H 0.37626 0.32288 0.41661 0.0
C1825 C 0.35595 0.2358 0.42144 0.0
H1826 H 0.38115 0.30185 0.46921 0.0
C1827 C 0.35314 0.24834 0.39032 0.0
C1828 C 0.3603 0.28016 0.38715 0.0
H1829 H 0.34996 0.21144 0.42208 0.0
H1830 H 0.34501 0.2329 0.36858 0.0
C1831 C 0.37052 0.29847 0.41692 0.0
C1832 C 0.37785 0.65282 0.47781 0.0
C1833 C 0.37582 0.66841 0.50747 0.0
H1834 H 0.39747 0.61929 0.45377 0.0
C1835 C 0.39297 0.66166 0.53632 0.0
H1836 H 0.36491 0.65741 0.45513 0.0
C1837 C 0.41149 0.63963 0.53553 0.0
C1838 C 0.4135 0.62404 0.50585 0.0
H1839 H 0.39186 0.67316 0.55959 0.0
H1840 H 0.42459 0.6351 0.55814 0.0
C1841 C 0.39657 0.63101 0.47699 0.0
C1842 C 0.94836 0.9931 0.51878 0.0
C1843 C 0.92874 0.99933 0.54182 0.0
H1844 H 0.99276 1.00418 0.50042 0.0
C1845 C 0.9416 0.02491 0.56441 0.0
H1846 H 0.94003 0.97384 0.50082 0.0
C1847 C 0.97292 0.04248 0.56448 0.0
C1848 C 0.99263 0.03569 0.5416 0.0
H1849 H 0.92803 0.03069 0.58293 0.0
H1850 H 0.98192 0.06116 0.58301 0.0
C1851 C 0.9791 1.0108 0.51847 0.0
C1852 C 0.8176 0.0864 0.21579 0.0
C1853 C 0.83013 0.0921 0.18677 0.0
H1854 H 0.79787 0.10417 0.25505 0.0
C1855 C 0.82551 0.11799 0.17125 0.0
H1856 H 0.82023 0.06628 0.22799 0.0
C1857 C 0.81231 0.13969 0.18669 0.0
C1858 C 0.80363 0.13575 0.21784 0.0
H1859 H 0.83448 0.12277 0.14862 0.0
H1860 H 0.8112 0.16059 0.17546 0.0
C1861 C 0.80445 0.10802 0.23119 0.0
C1862 C 0.71499 0.16871 0.02102 0.0
C1863 C 0.74165 0.15783 0.0343 0.0
H1864 H 0.66458 0.15946 1.00758 0.0
C1865 C 0.73747 0.12774 0.04268 0.0
H1866 H 0.7174 0.19173 1.01413 0.0
C1867 C 0.70724 0.10922 0.0388 0.0
C1868 C 0.68048 0.12036 0.02643 0.0
H1869 H 0.7575 0.11856 0.05281 0.0
H1870 H 0.70482 0.08639 0.04625 0.0
C1871 C 0.68472 0.15016 0.01712 0.0
C1872 C 0.21033 0.4352 0.33896 0.0
C1873 C 0.20665 0.46386 0.32989 0.0
H1874 H 0.24223 0.40791 0.35695 0.0
C1875 C 0.23215 0.48869 0.33841 0.0
H1876 H 0.19104 0.41565 0.33292 0.0
C1877 C 0.26157 0.48445 0.35325 0.0
C1878 C 0.26632 0.45517 0.35909 0.0
H1879 H 0.22975 0.51122 0.33236 0.0
H1880 H 0.28099 0.50393 0.35841 0.0
C1881 C 0.23985 0.43085 0.35315 0.0
C1882 C 0.22975 0.5202 0.08014 0.0
C1883 C 0.23575 0.49975 0.05564 0.0
H1884 H 0.19986 0.54817 0.09756 0.0
C1885 C 0.21171 0.49278 0.02782 0.0
H1886 H 0.24674 0.52676 0.10216 0.0
C1887 C 0.18347 0.50541 0.02524 0.0
C1888 C 0.17787 0.52592 0.05016 0.0
H1889 H 0.21438 0.47717 1.00816 0.0
H1890 H 0.166 0.49903 1.00357 0.0
C1891 C 0.20215 0.53282 0.07747 0.0
C1892 C 0.92241 0.9326 0.2201 0.0
C1893 C 0.89927 0.94847 0.20771 0.0
H1894 H 0.93242 0.8957 0.24722 0.0
C1895 C 0.8675 0.93729 0.21093 0.0
H1896 H 0.9471 0.94066 0.21796 0.0
C1897 C 0.85931 0.91209 0.22809 0.0
C1898 C 0.88261 0.89722 0.24204 0.0
H1899 H 0.84904 0.94882 0.20154 0.0
H1900 H 0.8347 0.9046 0.23094 0.0
C1901 C 0.91409 0.90701 0.237 0.0
C1902 C 0.64734 0.10036 0.70373 0.0
C1903 C 0.66233 0.07866 0.71848 0.0
H1904 H 0.65077 0.14697 0.69434 0.0
C1905 C 0.6937 0.08786 0.73435 0.0
H1906 H 0.62328 0.09396 0.69103 0.0
C1907 C 0.70925 0.11822 0.73669 0.0
C1908 C 0.69398 0.14021 0.72294 0.0
H1909 H 0.70598 0.07179 0.74609 0.0
H1910 H 0.73288 0.12456 0.75039 0.0
C1911 C 0.66303 0.13079 0.70584 0.0
loop_
_geom_bond_atom_site_label_1
_geom_bond_atom_site_label_2
_geom_bond_distance
_geom_bond_site_symmetry_2
_ccdc_geom_bond_type
C0 O1 1.160 . S
C0 O7 1.185 . S
O1 C0 1.160 . S
O2 Zn3 1.899 . S
O2 C10 1.284 . S
Zn3 O2 1.899 . S
Zn3 O4 2.032 . S
Zn3 O7 2.086 . S
Zn3 O12 1.977 . S
O4 Zn3 2.032 . S
O4 C8 1.278 . S
C5 O6 1.203 . S
C5 O12 1.267 1_655 S
O6 C5 1.203 . S
O7 C0 1.185 . S
O7 Zn3 2.086 . S
C8 O4 1.278 . S
C8 O9 1.211 . S
O9 C8 1.211 . S
C10 O2 1.284 . S
C10 O11 1.273 . S
O11 C10 1.273 . S
O12 Zn3 1.977 . S
O12 C5 1.267 1_455 S
C13 O14 1.160 . S
C13 O20 1.185 1_655 S
O14 C13 1.160 . S
O15 Zn16 1.899 . S
O15 C23 1.284 . S
Zn16 O15 1.899 . S
Zn16 O17 2.032 . S
Zn16 O20 2.086 . S
Zn16 O25 1.977 . S
O17 Zn16 2.032 . S
O17 C21 1.278 . S
C18 O19 1.203 . S
C18 O25 1.267 . S
O19 C18 1.203 . S
O20 C13 1.185 1_455 S
O20 Zn16 2.086 . S
C21 O17 1.278 . S
C21 O22 1.211 . S
O22 C21 1.211 . S
C23 O15 1.284 . S
C23 O24 1.273 . S
O24 C23 1.273 . S
O25 Zn16 1.977 . S
O25 C18 1.267 . S
C26 O27 1.160 . S
C26 O33 1.185 . S
O27 C26 1.160 . S
O28 Zn29 1.899 . S
O28 C36 1.284 . S
Zn29 O28 1.899 . S
Zn29 O30 2.032 . S
Zn29 O33 2.086 . S
Zn29 O38 1.977 . S
O30 Zn29 2.032 . S
O30 C34 1.278 . S
C31 O32 1.203 . S
C31 O38 1.267 . S
O32 C31 1.203 . S
O33 C26 1.185 . S
O33 Zn29 2.086 . S
C34 O30 1.278 . S
C34 O35 1.211 . S
O35 C34 1.211 . S
C36 O28 1.284 . S
C36 O37 1.273 . S
O37 C36 1.273 . S
O38 Zn29 1.977 . S
O38 C31 1.267 . S
C39 O40 1.160 . S
C39 O46 1.185 . S
O40 C39 1.160 . S
O41 Zn42 1.899 . S
O41 C49 1.284 . S
Zn42 O41 1.899 . S
Zn42 O43 2.032 . S
Zn42 O46 2.086 . S
Zn42 O51 1.977 . S
O43 Zn42 2.032 . S
O43 C47 1.278 . S
C44 O45 1.203 . S
C44 O51 1.267 . S
O45 C44 1.203 . S
O46 C39 1.185 . S
O46 Zn42 2.086 . S
C47 O43 1.278 . S
C47 O48 1.211 . S
O48 C47 1.211 . S
C49 O41 1.284 . S
C49 O50 1.273 . S
O50 C49 1.273 . S
O51 Zn42 1.977 . S
O51 C44 1.267 . S
C52 O53 1.160 . S
C52 O59 1.185 . S
O53 C52 1.160 . S
O54 Zn55 1.899 . S
O54 C62 1.284 . S
Zn55 O54 1.899 . S
Zn55 O56 2.032 . S
Zn55 O59 2.086 . S
Zn55 O64 1.977 . S
O56 Zn55 2.032 . S
O56 C60 1.278 . S
C57 O58 1.203 . S
C57 O64 1.267 . S
O58 C57 1.203 . S
O59 C52 1.185 . S
O59 Zn55 2.086 . S
C60 O56 1.278 . S
C60 O61 1.211 . S
O61 C60 1.211 . S
C62 O54 1.284 . S
C62 O63 1.273 . S
O63 C62 1.273 . S
O64 Zn55 1.977 . S
O64 C57 1.267 . S
C65 O66 1.160 . S
C65 O72 1.185 . S
O66 C65 1.160 . S
O67 Zn68 1.899 . S
O67 C75 1.284 . S
Zn68 O67 1.899 . S
Zn68 O69 2.032 . S
Zn68 O72 2.086 . S
Zn68 O77 1.977 . S
O69 Zn68 2.032 . S
O69 C73 1.278 . S
C70 O71 1.203 . S
C70 O77 1.267 . S
O71 C70 1.203 . S
O72 C65 1.185 . S
O72 Zn68 2.086 . S
C73 O69 1.278 . S
C73 O74 1.211 . S
O74 C73 1.211 . S
C75 O67 1.284 . S
C75 O76 1.273 . S
O76 C75 1.273 . S
O77 Zn68 1.977 . S
O77 C70 1.267 . S
C78 O79 1.160 . S
C78 O85 1.185 . S
O79 C78 1.160 . S
O80 Zn81 1.899 . S
O80 C88 1.284 . S
Zn81 O80 1.899 . S
Zn81 O82 2.032 . S
Zn81 O85 2.086 . S
Zn81 O90 1.977 . S
O82 Zn81 2.032 . S
O82 C86 1.278 . S
C83 O84 1.203 . S
C83 O90 1.267 . S
O84 C83 1.203 . S
O85 C78 1.185 . S
O85 Zn81 2.086 . S
C86 O82 1.278 . S
C86 O87 1.211 . S
O87 C86 1.211 . S
C88 O80 1.284 . S
C88 O89 1.273 . S
O89 C88 1.273 . S
O90 Zn81 1.977 . S
O90 C83 1.267 . S
C91 O92 1.160 . S
C91 O98 1.185 . S
O92 C91 1.160 . S
O93 Zn94 1.900 1_655 S
O93 C101 1.286 . S
Zn94 O93 1.900 1_455 S
Zn94 O95 2.032 . S
Zn94 O98 2.086 . S
Zn94 O103 1.977 1_455 S
O95 Zn94 2.032 . S
O95 C99 1.278 . S
C96 O97 1.203 . S
C96 O103 1.267 . S
O97 C96 1.203 . S
O98 C91 1.185 . S
O98 Zn94 2.086 . S
C99 O95 1.278 . S
C99 O100 1.211 1_455 S
O100 C99 1.211 1_655 S
C101 O93 1.286 . S
C101 O102 1.273 . S
O102 C101 1.273 . S
O103 Zn94 1.977 1_655 S
O103 C96 1.267 . S
C104 O105 1.160 . S
C104 O111 1.185 . S
O105 C104 1.160 . S
O106 Zn107 1.899 . S
O106 C114 1.284 . S
Zn107 O106 1.899 . S
Zn107 O108 2.032 . S
Zn107 O111 2.086 . S
Zn107 O116 1.977 . S
O108 Zn107 2.032 . S
O108 C112 1.278 . S
C109 O110 1.203 . S
C109 O116 1.267 . S
O110 C109 1.203 . S
O111 C104 1.185 . S
O111 Zn107 2.086 . S
C112 O108 1.278 . S
C112 O113 1.211 . S
O113 C112 1.211 . S
C114 O106 1.284 . S
C114 O115 1.273 . S
O115 C114 1.273 . S
O116 Zn107 1.977 . S
O116 C109 1.267 . S
C117 O118 1.160 . S
C117 O124 1.185 . S
O118 C117 1.160 . S
O119 Zn120 1.899 . S
O119 C127 1.284 . S
Zn120 O119 1.899 . S
Zn120 O121 2.032 . S
Zn120 O124 2.086 . S
Zn120 O129 1.977 . S
O121 Zn120 2.032 . S
O121 C125 1.278 . S
C122 O123 1.203 . S
C122 O129 1.267 . S
O123 C122 1.203 . S
O124 C117 1.185 . S
O124 Zn120 2.086 . S
C125 O121 1.278 . S
C125 O126 1.211 . S
O126 C125 1.211 . S
C127 O119 1.284 . S
C127 O128 1.273 . S
O128 C127 1.273 . S
O129 Zn120 1.977 . S
O129 C122 1.267 . S
C130 O131 1.160 . S
C130 O137 1.185 . S
O131 C130 1.160 . S
O132 Zn133 1.899 . S
O132 C140 1.284 . S
Zn133 O132 1.899 . S
Zn133 O134 2.032 . S
Zn133 O137 2.086 . S
Zn133 O142 1.977 . S
O134 Zn133 2.032 . S
O134 C138 1.278 . S
C135 O136 1.203 . S
C135 O142 1.267 . S
O136 C135 1.203 . S
O137 C130 1.185 . S
O137 Zn133 2.086 . S
C138 O134 1.278 . S
C138 O139 1.211 . S
O139 C138 1.211 . S
C140 O132 1.284 . S
C140 O141 1.273 . S
O141 C140 1.273 . S
O142 Zn133 1.977 . S
O142 C135 1.267 . S
C143 O144 1.160 . S
C143 O150 1.185 . S
O144 C143 1.160 . S
O145 Zn146 1.899 . S
O145 C153 1.284 . S
Zn146 O145 1.899 . S
Zn146 O147 2.032 . S
Zn146 O150 2.086 . S
Zn146 O155 1.977 . S
O147 Zn146 2.032 . S
O147 C151 1.278 . S
C148 O149 1.203 . S
C148 O155 1.267 . S
O149 C148 1.203 . S
O150 C143 1.185 . S
O150 Zn146 2.086 . S
C151 O147 1.278 . S
C151 O152 1.211 . S
O152 C151 1.211 . S
C153 O145 1.284 . S
C153 O154 1.273 . S
O154 C153 1.273 . S
O155 Zn146 1.977 . S
O155 C148 1.267 . S
C156 O157 1.160 . S
C156 O163 1.185 . S
O157 C156 1.160 . S
O158 Zn159 1.899 . S
O158 C166 1.284 . S
Zn159 O158 1.899 . S
Zn159 O160 2.032 . S
Zn159 O163 2.086 . S
Zn159 O168 1.977 . S
O160 Zn159 2.032 . S
O160 C164 1.278 1_554 S
C161 O162 1.203 . S
C161 O168 1.267 . S
O162 C161 1.203 . S
O163 C156 1.185 . S
O163 Zn159 2.086 . S
C164 O160 1.278 1_556 S
C164 O165 1.211 . S
O165 C164 1.211 . S
C166 O158 1.284 . S
C166 O167 1.273 . S
O167 C166 1.273 . S
O168 Zn159 1.977 . S
O168 C161 1.267 . S
C169 O170 1.160 . S
C169 O176 1.185 1_554 S
O170 C169 1.160 . S
O171 Zn172 1.899 . S
O171 C179 1.284 . S
Zn172 O171 1.899 . S
Zn172 O173 2.032 1_554 S
Zn172 O176 2.086 1_554 S
Zn172 O181 1.977 1_554 S
O173 Zn172 2.032 1_556 S
O173 C177 1.278 . S
C174 O175 1.203 1_556 S
C174 O181 1.267 . S
O175 C174 1.203 1_554 S
O176 C169 1.185 1_556 S
O176 Zn172 2.086 1_556 S
C177 O173 1.278 . S
C177 O178 1.211 . S
O178 C177 1.211 . S
C179 O171 1.284 . S
C179 O180 1.273 . S
O180 C179 1.273 . S
O181 Zn172 1.977 1_556 S
O181 C174 1.267 . S
C182 O183 1.160 . S
C182 O189 1.185 . S
O183 C182 1.160 . S
O184 Zn185 1.899 . S
O184 C192 1.284 . S
Zn185 O184 1.899 . S
Zn185 O186 2.032 . S
Zn185 O189 2.086 . S
Zn185 O194 1.977 . S
O186 Zn185 2.032 . S
O186 C190 1.278 . S
C187 O188 1.203 . S
C187 O194 1.267 . S
O188 C187 1.203 . S
O189 C182 1.185 . S
O189 Zn185 2.086 . S
C190 O186 1.278 . S
C190 O191 1.211 . S
O191 C190 1.211 . S
C192 O184 1.284 . S
C192 O193 1.273 . S
O193 C192 1.273 . S
O194 Zn185 1.977 . S
O194 C187 1.267 . S
C195 O196 1.160 . S
C195 O202 1.185 . S
O196 C195 1.160 . S
O197 Zn198 1.899 . S
O197 C205 1.284 . S
Zn198 O197 1.899 . S
Zn198 O199 2.032 . S
Zn198 O202 2.086 . S
Zn198 O207 1.977 . S
O199 Zn198 2.032 . S
O199 C203 1.278 . S
C200 O201 1.203 . S
C200 O207 1.267 . S
O201 C200 1.203 . S
O202 C195 1.185 . S
O202 Zn198 2.086 . S
C203 O199 1.278 . S
C203 O204 1.211 . S
O204 C203 1.211 . S
C205 O197 1.284 . S
C205 O206 1.273 . S
O206 C205 1.273 . S
O207 Zn198 1.977 . S
O207 C200 1.267 . S
C208 O209 1.160 . S
C208 O215 1.185 . S
O209 C208 1.160 . S
O210 Zn211 1.899 . S
O210 C218 1.293 . S
Zn211 O210 1.899 . S
Zn211 O212 2.032 . S
Zn211 O215 2.086 . S
Zn211 O220 1.977 1_545 S
O212 Zn211 2.032 . S
O212 C216 1.278 . S
C213 O214 1.203 . S
C213 O220 1.267 . S
O214 C213 1.203 . S
O215 C208 1.185 . S
O215 Zn211 2.086 . S
C216 O212 1.278 . S
C216 O217 1.211 1_545 S
O217 C216 1.211 1_565 S
C218 O210 1.293 . S
C218 O219 1.262 1_545 S
O219 C218 1.262 1_565 S
O220 Zn211 1.977 1_565 S
O220 C213 1.267 . S
C221 O222 1.160 . S
C221 O228 1.185 . S
O222 C221 1.160 . S
O223 Zn224 1.899 . S
O223 C231 1.284 . S
Zn224 O223 1.899 . S
Zn224 O225 2.032 . S
Zn224 O228 2.086 . S
Zn224 O233 1.977 . S
O225 Zn224 2.032 . S
O225 C229 1.278 . S
C226 O227 1.203 . S
C226 O233 1.267 . S
O227 C226 1.203 . S
O228 C221 1.185 . S
O228 Zn224 2.086 . S
C229 O225 1.278 . S
C229 O230 1.211 . S
O230 C229 1.211 . S
C231 O223 1.284 . S
C231 O232 1.273 . S
O232 C231 1.273 . S
O233 Zn224 1.977 . S
O233 C226 1.267 . S
C234 O235 1.160 . S
C234 O241 1.185 . S
O235 C234 1.160 . S
O236 Zn237 1.899 . S
O236 C244 1.284 . S
Zn237 O236 1.899 . S
Zn237 O238 2.032 . S
Zn237 O241 2.086 . S
Zn237 O246 1.977 . S
O238 Zn237 2.032 . S
O238 C242 1.278 . S
C239 O240 1.203 . S
C239 O246 1.267 . S
O240 C239 1.203 . S
O241 C234 1.185 . S
O241 Zn237 2.086 . S
C242 O238 1.278 . S
C242 O243 1.211 . S
O243 C242 1.211 . S
C244 O236 1.284 . S
C244 O245 1.273 . S
O245 C244 1.273 . S
O246 Zn237 1.977 . S
O246 C239 1.267 . S
C247 O248 1.160 . S
C247 O254 1.185 . S
O248 C247 1.160 . S
O249 Zn250 1.899 . S
O249 C257 1.284 . S
Zn250 O249 1.899 . S
Zn250 O251 2.032 1_545 S
Zn250 O254 2.086 1_545 S
Zn250 O259 1.977 . S
O251 Zn250 2.032 1_565 S
O251 C255 1.278 1_565 S
C252 O253 1.203 . S
C252 O259 1.267 . S
O253 C252 1.203 . S
O254 C247 1.185 . S
O254 Zn250 2.086 1_565 S
C255 O251 1.278 1_545 S
C255 O256 1.211 . S
O256 C255 1.211 . S
C257 O249 1.284 . S
C257 O258 1.273 . S
O258 C257 1.273 . S
O259 Zn250 1.977 . S
O259 C252 1.267 . S
C260 O261 1.160 . S
C260 O267 1.185 . S
O261 C260 1.160 . S
O262 Zn263 1.899 . S
O262 C270 1.284 . S
Zn263 O262 1.899 . S
Zn263 O264 2.032 1_554 S
Zn263 O267 2.086 . S
Zn263 O272 1.977 . S
O264 Zn263 2.032 1_556 S
O264 C268 1.278 . S
C265 O266 1.203 . S
C265 O272 1.267 . S
O266 C265 1.203 . S
O267 C260 1.185 . S
O267 Zn263 2.086 . S
C268 O264 1.278 . S
C268 O269 1.211 . S
O269 C268 1.211 . S
C270 O262 1.284 . S
C270 O271 1.273 . S
O271 C270 1.273 . S
O272 Zn263 1.977 . S
O272 C265 1.267 . S
C273 O274 1.160 . S
C273 O280 1.185 . S
O274 C273 1.160 . S
O275 Zn276 1.899 1_455 S
O275 C283 1.284 . S
Zn276 O275 1.899 1_655 S
Zn276 O277 2.032 1_655 S
Zn276 O280 2.086 . S
Zn276 O285 1.977 . S
O277 Zn276 2.032 1_455 S
O277 C281 1.278 . S
C278 O279 1.203 . S
C278 O285 1.267 . S
O279 C278 1.203 . S
O280 C273 1.185 . S
O280 Zn276 2.086 . S
C281 O277 1.278 . S
C281 O282 1.211 . S
O282 C281 1.211 . S
C283 O275 1.284 . S
C283 O284 1.273 . S
O284 C283 1.273 . S
O285 Zn276 1.977 . S
O285 C278 1.267 . S
C286 O287 1.160 . S
C286 O293 1.185 . S
O287 C286 1.160 . S
O288 Zn289 1.899 . S
O288 C296 1.284 . S
Zn289 O288 1.899 . S
Zn289 O290 2.032 . S
Zn289 O293 2.086 . S
Zn289 O298 1.977 . S
O290 Zn289 2.032 . S
O290 C294 1.278 . S
C291 O292 1.203 . S
C291 O298 1.267 . S
O292 C291 1.203 . S
O293 C286 1.185 . S
O293 Zn289 2.086 . S
C294 O290 1.278 . S
C294 O295 1.211 . S
O295 C294 1.211 . S
C296 O288 1.284 . S
C296 O297 1.273 . S
O297 C296 1.273 . S
O298 Zn289 1.977 . S
O298 C291 1.267 . S
C299 O300 1.160 . S
C299 O306 1.185 . S
O300 C299 1.160 . S
O301 Zn302 1.899 . S
O301 C309 1.284 . S
Zn302 O301 1.899 . S
Zn302 O303 2.032 . S
Zn302 O306 2.086 . S
Zn302 O311 1.977 . S
O303 Zn302 2.032 . S
O303 C307 1.278 . S
C304 O305 1.203 . S
C304 O311 1.267 . S
O305 C304 1.203 . S
O306 C299 1.185 . S
O306 Zn302 2.086 . S
C307 O303 1.278 . S
C307 O308 1.211 . S
O308 C307 1.211 . S
C309 O301 1.284 . S
C309 O310 1.273 . S
O310 C309 1.273 . S
O311 Zn302 1.977 . S
O311 C304 1.267 . S
Tb312 C322 2.825 1_455 S
Tb312 O323 2.347 1_556 S
Tb312 O326 2.366 . S
Tb312 O331 2.418 . S
Tb312 O332 2.384 1_546 S
Tb312 O335 2.479 1_455 S
Tb312 O336 2.471 1_456 S
Eu313 O324 2.418 . S
Eu313 O325 2.384 . S
Eu313 O328 2.479 . S
Eu313 O329 2.471 . S
Eu313 O330 2.347 . S
Eu313 O333 2.366 . S
Eu313 C343 2.825 . S
C314 O330 1.259 1_556 S
C314 O331 1.265 . S
C315 O332 1.255 . S
C315 O333 1.265 1_565 S
C316 C318 1.380 . S
C316 C319 1.374 . S
C316 C322 1.507 . S
C317 C318 1.384 . S
C317 C321 1.387 . S
C317 H344 0.930 . S
C318 C316 1.380 . S
C318 C317 1.384 . S
C318 H345 0.931 . S
C319 C316 1.374 . S
C319 C320 1.390 . S
C319 H346 0.930 1_556 S
C320 C319 1.390 . S
C320 C321 1.391 . S
C320 H347 0.930 . S
C321 C317 1.387 . S
C321 C320 1.391 . S
C322 Tb312 2.825 1_655 S
C322 C316 1.507 . S
C322 O335 1.238 . S
C322 O336 1.247 1_556 S
O323 Tb312 2.347 1_554 S
O323 C327 1.259 . S
O324 Eu313 2.418 . S
O324 C327 1.265 . S
O325 Eu313 2.384 . S
O325 C334 1.255 . S
O326 Tb312 2.366 . S
O326 C334 1.265 1_556 S
C327 O323 1.259 . S
C327 O324 1.265 . S
O328 Eu313 2.479 . S
O328 C343 1.238 . S
O329 Eu313 2.471 . S
O329 C343 1.247 . S
O330 Eu313 2.347 . S
O330 C314 1.259 1_554 S
O331 Tb312 2.418 . S
O331 C314 1.265 . S
O332 Tb312 2.384 1_564 S
O332 C315 1.255 . S
O333 Eu313 2.366 . S
O333 C315 1.265 1_545 S
C334 O325 1.255 . S
C334 O326 1.265 1_554 S
O335 Tb312 2.479 1_655 S
O335 C322 1.238 . S
O336 Tb312 2.471 1_654 S
O336 C322 1.247 1_554 S
C337 C340 1.380 . S
C337 C341 1.374 . S
C337 C343 1.507 . S
C338 C339 1.387 . S
C338 C342 1.391 . S
C339 C338 1.387 . S
C339 C340 1.384 . S
C339 H348 0.930 . S
C340 C337 1.380 . S
C340 C339 1.384 . S
C340 H349 0.931 . S
C341 C337 1.374 . S
C341 C342 1.390 . S
C341 H350 0.930 . S
C342 C338 1.391 . S
C342 C341 1.390 . S
C342 H351 0.952 . S
C343 Eu313 2.825 . S
C343 O328 1.238 . S
C343 O329 1.247 . S
C343 C337 1.507 . S
H344 C317 0.930 . S
H345 C318 0.931 . S
H346 C319 0.930 1_554 S
H347 C320 0.930 . S
H348 C339 0.930 . S
H349 C340 0.931 . S
H350 C341 0.930 . S
H351 C342 0.952 . S
Tb352 C362 2.825 . S
Tb352 O363 2.347 . S
Tb352 O366 2.366 . S
Tb352 O371 2.418 . S
Tb352 O372 2.384 . S
Tb352 O375 2.479 . S
Tb352 O376 2.471 . S
Eu353 O364 2.418 . S
Eu353 O365 2.384 . S
Eu353 O368 2.479 . S
Eu353 O369 2.471 . S
Eu353 O370 2.347 . S
Eu353 O373 2.366 . S
Eu353 C383 2.825 . S
C354 O370 1.259 . S
C354 O371 1.265 . S
C355 O372 1.255 . S
C355 O373 1.265 . S
C356 C358 1.380 . S
C356 C359 1.374 . S
C356 C362 1.507 . S
C357 C358 1.384 . S
C357 C361 1.387 . S
C357 H384 0.930 . S
C358 C356 1.380 . S
C358 C357 1.384 . S
C358 H385 0.931 . S
C359 C356 1.374 . S
C359 C360 1.390 . S
C359 H386 0.930 . S
C360 C359 1.390 . S
C360 C361 1.391 . S
C360 H387 0.930 . S
C361 C357 1.387 . S
C361 C360 1.391 . S
C362 Tb352 2.825 . S
C362 C356 1.507 . S
C362 O375 1.238 . S
C362 O376 1.247 . S
O363 Tb352 2.347 . S
O363 C367 1.259 . S
O364 Eu353 2.418 . S
O364 C367 1.265 . S
O365 Eu353 2.384 . S
O365 C374 1.255 . S
O366 Tb352 2.366 . S
O366 C374 1.265 . S
C367 O363 1.259 . S
C367 O364 1.265 . S
O368 Eu353 2.479 . S
O368 C383 1.238 . S
O369 Eu353 2.471 . S
O369 C383 1.247 . S
O370 Eu353 2.347 . S
O370 C354 1.259 . S
O371 Tb352 2.418 . S
O371 C354 1.265 . S
O372 Tb352 2.384 . S
O372 C355 1.255 . S
O373 Eu353 2.366 . S
O373 C355 1.265 . S
C374 O365 1.255 . S
C374 O366 1.265 . S
O375 Tb352 2.479 . S
O375 C362 1.238 . S
O376 Tb352 2.471 . S
O376 C362 1.247 . S
C377 C380 1.380 . S
C377 C381 1.374 . S
C377 C383 1.507 . S
C378 C379 1.387 . S
C378 C382 1.391 . S
C379 C378 1.387 . S
C379 C380 1.384 . S
C379 H388 0.930 . S
C380 C377 1.380 . S
C380 C379 1.384 . S
C380 H389 0.931 . S
C381 C377 1.374 . S
C381 C382 1.390 . S
C381 H390 0.930 . S
C382 C378 1.391 . S
C382 C381 1.390 . S
C382 H391 0.930 . S
C383 Eu353 2.825 . S
C383 O368 1.238 . S
C383 O369 1.247 . S
C383 C377 1.507 . S
H384 C357 0.930 . S
H385 C358 0.931 . S
H386 C359 0.930 . S
H387 C360 0.930 . S
H388 C379 0.930 . S
H389 C380 0.931 . S
H390 C381 0.930 . S
H391 C382 0.930 . S
Tb392 C402 2.825 1_545 S
Tb392 O403 2.347 . S
Tb392 O406 2.366 . S
Tb392 O411 2.418 . S
Tb392 O412 2.384 . S
Tb392 O415 2.479 1_545 S
Tb392 O416 2.471 1_545 S
Eu393 O404 2.418 . S
Eu393 O405 2.384 . S
Eu393 O408 2.479 . S
Eu393 O409 2.471 . S
Eu393 O410 2.347 . S
Eu393 O413 2.366 . S
Eu393 C423 2.825 . S
C394 O410 1.259 . S
C394 O411 1.265 . S
C395 O412 1.255 . S
C395 O413 1.265 . S
C396 C398 1.380 . S
C396 C399 1.374 . S
C396 C402 1.507 . S
C397 C398 1.384 . S
C397 C401 1.387 . S
C397 H424 0.930 . S
C398 C396 1.380 . S
C398 C397 1.384 . S
C398 H425 0.931 . S
C399 C396 1.374 . S
C399 C400 1.390 . S
C399 H426 0.930 . S
C400 C399 1.390 . S
C400 C401 1.391 . S
C400 H427 0.930 . S
C401 C397 1.387 . S
C401 C400 1.391 . S
C402 Tb392 2.825 1_565 S
C402 C396 1.507 . S
C402 O415 1.238 . S
C402 O416 1.247 . S
O403 Tb392 2.347 . S
O403 C407 1.259 . S
O404 Eu393 2.418 . S
O404 C407 1.265 . S
O405 Eu393 2.384 . S
O405 C414 1.255 . S
O406 Tb392 2.366 . S
O406 C414 1.265 . S
C407 O403 1.259 . S
C407 O404 1.265 . S
O408 Eu393 2.479 . S
O408 C423 1.238 . S
O409 Eu393 2.471 . S
O409 C423 1.247 . S
O410 Eu393 2.347 . S
O410 C394 1.259 . S
O411 Tb392 2.418 . S
O411 C394 1.265 . S
O412 Tb392 2.384 . S
O412 C395 1.255 . S
O413 Eu393 2.366 . S
O413 C395 1.265 . S
C414 O405 1.255 . S
C414 O406 1.265 . S
O415 Tb392 2.479 1_565 S
O415 C402 1.238 . S
O416 Tb392 2.471 1_565 S
O416 C402 1.247 . S
C417 C420 1.380 . S
C417 C421 1.374 . S
C417 C423 1.507 . S
C418 C419 1.387 . S
C418 C422 1.391 . S
C419 C418 1.387 . S
C419 C420 1.384 . S
C419 H428 0.930 . S
C420 C417 1.380 . S
C420 C419 1.384 . S
C420 H429 0.931 . S
C421 C417 1.374 . S
C421 C422 1.390 . S
C421 H430 0.930 . S
C422 C418 1.391 . S
C422 C421 1.390 . S
C422 H431 0.930 . S
C423 Eu393 2.825 . S
C423 O408 1.238 . S
C423 O409 1.247 . S
C423 C417 1.507 . S
H424 C397 0.930 . S
H425 C398 0.931 . S
H426 C399 0.930 . S
H427 C400 0.930 . S
H428 C419 0.930 . S
H429 C420 0.931 . S
H430 C421 0.930 . S
H431 C422 0.930 . S
Tb432 C442 2.825 . S
Tb432 O443 2.347 . S
Tb432 O446 2.366 . S
Tb432 O451 2.418 . S
Tb432 O452 2.384 . S
Tb432 O455 2.479 . S
Tb432 O456 2.471 . S
Eu433 O444 2.418 . S
Eu433 O445 2.384 . S
Eu433 O448 2.479 . S
Eu433 O449 2.471 . S
Eu433 O450 2.347 . S
Eu433 O453 2.366 . S
Eu433 C463 2.825 . S
C434 O450 1.259 . S
C434 O451 1.265 . S
C435 O452 1.255 . S
C435 O453 1.265 . S
C436 C438 1.380 . S
C436 C439 1.374 . S
C436 C442 1.507 . S
C437 C438 1.384 . S
C437 C441 1.387 . S
C437 H464 0.930 . S
C438 C436 1.380 . S
C438 C437 1.384 . S
C438 H465 0.931 . S
C439 C436 1.374 . S
C439 C440 1.390 . S
C439 H466 0.930 . S
C440 C439 1.390 . S
C440 C441 1.391 . S
C440 H467 0.930 . S
C441 C437 1.387 . S
C441 C440 1.391 . S
C442 Tb432 2.825 . S
C442 C436 1.507 . S
C442 O455 1.238 . S
C442 O456 1.247 . S
O443 Tb432 2.347 . S
O443 C447 1.259 . S
O444 Eu433 2.418 . S
O444 C447 1.265 . S
O445 Eu433 2.384 . S
O445 C454 1.255 . S
O446 Tb432 2.366 . S
O446 C454 1.265 . S
C447 O443 1.259 . S
C447 O444 1.265 . S
O448 Eu433 2.479 . S
O448 C463 1.238 . S
O449 Eu433 2.471 . S
O449 C463 1.247 . S
O450 Eu433 2.347 . S
O450 C434 1.259 . S
O451 Tb432 2.418 . S
O451 C434 1.265 . S
O452 Tb432 2.384 . S
O452 C435 1.255 . S
O453 Eu433 2.366 . S
O453 C435 1.265 . S
C454 O445 1.255 . S
C454 O446 1.265 . S
O455 Tb432 2.479 . S
O455 C442 1.238 . S
O456 Tb432 2.471 . S
O456 C442 1.247 . S
C457 C460 1.380 . S
C457 C461 1.374 . S
C457 C463 1.507 . S
C458 C459 1.387 . S
C458 C462 1.391 . S
C459 C458 1.387 . S
C459 C460 1.384 . S
C459 H468 0.930 . S
C460 C457 1.380 . S
C460 C459 1.384 . S
C460 H469 0.931 . S
C461 C457 1.374 . S
C461 C462 1.390 . S
C461 H470 0.930 . S
C462 C458 1.391 . S
C462 C461 1.390 . S
C462 H471 0.930 . S
C463 Eu433 2.825 . S
C463 O448 1.238 . S
C463 O449 1.247 . S
C463 C457 1.507 . S
H464 C437 0.930 . S
H465 C438 0.931 . S
H466 C439 0.930 . S
H467 C440 0.930 . S
H468 C459 0.930 . S
H469 C460 0.931 . S
H470 C461 0.930 . S
H471 C462 0.930 . S
Tb472 C482 2.825 . S
Tb472 O483 2.347 . S
Tb472 O486 2.366 . S
Tb472 O491 2.418 . S
Tb472 O492 2.384 . S
Tb472 O495 2.479 . S
Tb472 O496 2.471 . S
Eu473 O484 2.418 . S
Eu473 O485 2.384 . S
Eu473 O488 2.479 . S
Eu473 O489 2.471 . S
Eu473 O490 2.347 . S
Eu473 O493 2.366 . S
Eu473 C503 2.825 . S
C474 O490 1.259 . S
C474 O491 1.265 . S
C475 O492 1.255 . S
C475 O493 1.265 . S
C476 C478 1.380 . S
C476 C479 1.374 1_455 S
C476 C482 1.507 . S
C477 C478 1.384 . S
C477 C481 1.387 1_455 S
C477 H504 0.930 . S
C478 C476 1.380 . S
C478 C477 1.384 . S
C478 H505 0.931 . S
C479 C476 1.374 1_655 S
C479 C480 1.390 . S
C479 H506 0.930 . S
C480 C479 1.390 . S
C480 C481 1.391 . S
C480 H507 0.930 . S
C481 C477 1.387 1_655 S
C481 C480 1.391 . S
C482 Tb472 2.825 . S
C482 C476 1.507 . S
C482 O495 1.238 . S
C482 O496 1.247 . S
O483 Tb472 2.347 . S
O483 C487 1.259 1_455 S
O484 Eu473 2.418 . S
O484 C487 1.265 1_455 S
O485 Eu473 2.384 . S
O485 C494 1.255 . S
O486 Tb472 2.366 . S
O486 C494 1.265 . S
C487 O483 1.259 1_655 S
C487 O484 1.265 1_655 S
O488 Eu473 2.479 . S
O488 C503 1.238 . S
O489 Eu473 2.471 . S
O489 C503 1.247 . S
O490 Eu473 2.347 . S
O490 C474 1.259 . S
O491 Tb472 2.418 . S
O491 C474 1.265 . S
O492 Tb472 2.384 . S
O492 C475 1.255 . S
O493 Eu473 2.366 . S
O493 C475 1.265 . S
C494 O485 1.255 . S
C494 O486 1.265 . S
O495 Tb472 2.479 . S
O495 C482 1.238 . S
O496 Tb472 2.471 . S
O496 C482 1.247 . S
C497 C500 1.380 . S
C497 C501 1.374 . S
C497 C503 1.507 . S
C498 C499 1.387 . S
C498 C502 1.391 . S
C499 C498 1.387 . S
C499 C500 1.384 . S
C499 H508 0.930 . S
C500 C497 1.380 . S
C500 C499 1.384 . S
C500 H509 0.931 . S
C501 C497 1.374 . S
C501 C502 1.390 . S
C501 H510 0.930 . S
C502 C498 1.391 . S
C502 C501 1.390 . S
C502 H511 0.930 . S
C503 Eu473 2.825 . S
C503 O488 1.238 . S
C503 O489 1.247 . S
C503 C497 1.507 . S
H504 C477 0.930 . S
H505 C478 0.931 . S
H506 C479 0.930 . S
H507 C480 0.930 . S
H508 C499 0.930 . S
H509 C500 0.931 . S
H510 C501 0.930 . S
H511 C502 0.930 . S
Tb512 C522 2.825 . S
Tb512 O523 2.347 . S
Tb512 O526 2.366 . S
Tb512 O531 2.418 . S
Tb512 O532 2.384 . S
Tb512 O535 2.479 . S
Tb512 O536 2.471 . S
Eu513 O524 2.418 . S
Eu513 O525 2.384 . S
Eu513 O528 2.479 . S
Eu513 O529 2.471 . S
Eu513 O530 2.347 . S
Eu513 O533 2.366 . S
Eu513 C543 2.825 . S
C514 O530 1.259 . S
C514 O531 1.265 . S
C515 O532 1.255 . S
C515 O533 1.265 . S
C516 C518 1.380 . S
C516 C519 1.374 . S
C516 C522 1.507 . S
C517 C518 1.384 . S
C517 C521 1.387 . S
C517 H544 0.930 . S
C518 C516 1.380 . S
C518 C517 1.384 . S
C518 H545 0.931 . S
C519 C516 1.374 . S
C519 C520 1.390 . S
C519 H546 0.930 . S
C520 C519 1.390 . S
C520 C521 1.391 . S
C520 H547 0.930 . S
C521 C517 1.387 . S
C521 C520 1.391 . S
C522 Tb512 2.825 . S
C522 C516 1.507 . S
C522 O535 1.238 . S
C522 O536 1.247 . S
O523 Tb512 2.347 . S
O523 C527 1.259 . S
O524 Eu513 2.418 . S
O524 C527 1.265 . S
O525 Eu513 2.384 . S
O525 C534 1.255 . S
O526 Tb512 2.366 . S
O526 C534 1.265 . S
C527 O523 1.259 . S
C527 O524 1.265 . S
O528 Eu513 2.479 . S
O528 C543 1.238 . S
O529 Eu513 2.471 . S
O529 C543 1.247 . S
O530 Eu513 2.347 . S
O530 C514 1.259 . S
O531 Tb512 2.418 . S
O531 C514 1.265 . S
O532 Tb512 2.384 . S
O532 C515 1.255 . S
O533 Eu513 2.366 . S
O533 C515 1.265 . S
C534 O525 1.255 . S
C534 O526 1.265 . S
O535 Tb512 2.479 . S
O535 C522 1.238 . S
O536 Tb512 2.471 . S
O536 C522 1.247 . S
C537 C540 1.380 . S
C537 C541 1.374 . S
C537 C543 1.507 . S
C538 C539 1.387 . S
C538 C542 1.391 . S
C539 C538 1.387 . S
C539 C540 1.384 . S
C539 H548 0.930 . S
C540 C537 1.380 . S
C540 C539 1.384 . S
C540 H549 0.931 . S
C541 C537 1.374 . S
C541 C542 1.390 . S
C541 H550 0.930 . S
C542 C538 1.391 . S
C542 C541 1.390 . S
C542 H551 0.930 . S
C543 Eu513 2.825 . S
C543 O528 1.238 . S
C543 O529 1.247 . S
C543 C537 1.507 . S
H544 C517 0.930 . S
H545 C518 0.931 . S
H546 C519 0.930 . S
H547 C520 0.930 . S
H548 C539 0.930 . S
H549 C540 0.931 . S
H550 C541 0.930 . S
H551 C542 0.930 . S
Tb552 C562 2.825 . S
Tb552 O563 2.347 . S
Tb552 O566 2.366 . S
Tb552 O571 2.418 1_545 S
Tb552 O572 2.384 . S
Tb552 O575 2.479 . S
Tb552 O576 2.471 . S
Eu553 O564 2.418 1_556 S
Eu553 O565 2.384 1_556 S
Eu553 O568 2.479 . S
Eu553 O569 2.471 . S
Eu553 O570 2.347 1_556 S
Eu553 O573 2.366 . S
Eu553 C583 2.825 . S
C554 O570 1.259 1_565 S
C554 O571 1.265 . S
C555 O572 1.255 . S
C555 O573 1.265 1_554 S
C556 C558 1.380 . S
C556 C559 1.374 . S
C556 C562 1.507 . S
C557 C558 1.384 . S
C557 C561 1.387 . S
C557 H584 0.930 1_545 S
C558 C556 1.380 . S
C558 C557 1.384 . S
C558 H585 0.958 . S
C559 C556 1.374 . S
C559 C560 1.390 . S
C559 H586 0.930 . S
C560 C559 1.390 . S
C560 C561 1.391 . S
C560 H587 0.930 . S
C561 C557 1.387 . S
C561 C560 1.391 . S
C562 Tb552 2.825 . S
C562 C556 1.507 . S
C562 O575 1.238 . S
C562 O576 1.247 . S
O563 Tb552 2.347 . S
O563 C567 1.259 . S
O564 Eu553 2.418 1_554 S
O564 C567 1.265 . S
O565 Eu553 2.384 1_554 S
O565 C574 1.255 . S
O566 Tb552 2.366 . S
O566 C574 1.265 . S
C567 O563 1.259 . S
C567 O564 1.265 . S
O568 Eu553 2.479 . S
O568 C583 1.238 . S
O569 Eu553 2.471 . S
O569 C583 1.247 . S
O570 Eu553 2.347 1_554 S
O570 C554 1.259 1_545 S
O571 Tb552 2.418 1_565 S
O571 C554 1.265 . S
O572 Tb552 2.384 . S
O572 C555 1.255 . S
O573 Eu553 2.366 . S
O573 C555 1.265 1_556 S
C574 O565 1.255 . S
C574 O566 1.265 . S
O575 Tb552 2.479 . S
O575 C562 1.238 . S
O576 Tb552 2.471 . S
O576 C562 1.247 . S
C577 C580 1.380 . S
C577 C581 1.374 . S
C577 C583 1.507 . S
C578 C579 1.387 . S
C578 C582 1.391 . S
C579 C578 1.387 . S
C579 C580 1.384 . S
C579 H588 0.930 . S
C580 C577 1.380 . S
C580 C579 1.384 . S
C580 H589 0.931 . S
C581 C577 1.374 . S
C581 C582 1.390 . S
C581 H590 0.930 . S
C582 C578 1.391 . S
C582 C581 1.390 . S
C582 H591 0.930 . S
C583 Eu553 2.825 . S
C583 O568 1.238 . S
C583 O569 1.247 . S
C583 C577 1.507 . S
H584 C557 0.930 1_565 S
H585 C558 0.958 . S
H586 C559 0.930 . S
H587 C560 0.930 . S
H588 C579 0.930 . S
H589 C580 0.931 . S
H590 C581 0.930 . S
H591 C582 0.930 . S
Tb592 C602 2.825 . S
Tb592 O603 2.347 . S
Tb592 O606 2.366 . S
Tb592 O611 2.418 . S
Tb592 O612 2.384 . S
Tb592 O615 2.479 . S
Tb592 O616 2.471 . S
Eu593 O604 2.418 . S
Eu593 O605 2.384 . S
Eu593 O608 2.479 . S
Eu593 O609 2.471 . S
Eu593 O610 2.347 . S
Eu593 O613 2.366 . S
Eu593 C623 2.825 . S
C594 O610 1.259 . S
C594 O611 1.265 . S
C595 O612 1.255 . S
C595 O613 1.265 . S
C596 C598 1.380 . S
C596 C599 1.374 . S
C596 C602 1.507 . S
C597 C598 1.384 . S
C597 C601 1.387 . S
C597 H624 0.930 . S
C598 C596 1.380 . S
C598 C597 1.384 . S
C598 H625 0.931 . S
C599 C596 1.374 . S
C599 C600 1.390 . S
C599 H626 0.930 . S
C600 C599 1.390 . S
C600 C601 1.391 . S
C600 H627 0.930 . S
C601 C597 1.387 . S
C601 C600 1.391 . S
C602 Tb592 2.825 . S
C602 C596 1.507 . S
C602 O615 1.238 . S
C602 O616 1.247 . S
O603 Tb592 2.347 . S
O603 C607 1.259 . S
O604 Eu593 2.418 . S
O604 C607 1.265 . S
O605 Eu593 2.384 . S
O605 C614 1.255 . S
O606 Tb592 2.366 . S
O606 C614 1.265 . S
C607 O603 1.259 . S
C607 O604 1.265 . S
O608 Eu593 2.479 . S
O608 C623 1.238 . S
O609 Eu593 2.471 . S
O609 C623 1.247 . S
O610 Eu593 2.347 . S
O610 C594 1.259 . S
O611 Tb592 2.418 . S
O611 C594 1.265 . S
O612 Tb592 2.384 . S
O612 C595 1.255 . S
O613 Eu593 2.366 . S
O613 C595 1.265 . S
C614 O605 1.255 . S
C614 O606 1.265 . S
O615 Tb592 2.479 . S
O615 C602 1.238 . S
O616 Tb592 2.471 . S
O616 C602 1.247 . S
C617 C620 1.380 . S
C617 C621 1.374 . S
C617 C623 1.507 . S
C618 C619 1.387 . S
C618 C622 1.391 . S
C619 C618 1.387 . S
C619 C620 1.384 . S
C619 H628 0.930 . S
C620 C617 1.380 . S
C620 C619 1.384 . S
C620 H629 0.931 . S
C621 C617 1.374 . S
C621 C622 1.390 . S
C621 H630 0.930 . S
C622 C618 1.391 . S
C622 C621 1.390 . S
C622 H631 0.930 . S
C623 Eu593 2.825 . S
C623 O608 1.238 . S
C623 O609 1.247 . S
C623 C617 1.507 . S
H624 C597 0.930 . S
H625 C598 0.931 . S
H626 C599 0.930 . S
H627 C600 0.930 . S
H628 C619 0.930 . S
H629 C620 0.931 . S
H630 C621 0.930 . S
H631 C622 0.930 . S
Tb632 C642 2.825 . S
Tb632 O643 2.347 1_556 S
Tb632 O646 2.366 . S
Tb632 O651 2.418 . S
Tb632 O652 2.384 1_556 S
Tb632 O655 2.479 . S
Tb632 O656 2.471 . S
Eu633 O644 2.418 . S
Eu633 O645 2.384 . S
Eu633 O648 2.479 . S
Eu633 O649 2.471 . S
Eu633 O650 2.347 . S
Eu633 O653 2.366 . S
Eu633 C663 2.825 . S
C634 O650 1.259 . S
C634 O651 1.265 1_554 S
C635 O652 1.255 . S
C635 O653 1.265 . S
C636 C638 1.380 . S
C636 C639 1.374 . S
C636 C642 1.507 . S
C637 C638 1.384 . S
C637 C641 1.387 . S
C637 H664 0.930 . S
C638 C636 1.380 . S
C638 C637 1.384 . S
C638 H665 0.931 . S
C639 C636 1.374 . S
C639 C640 1.390 . S
C639 H666 0.930 . S
C640 C639 1.390 . S
C640 C641 1.391 . S
C640 H667 0.930 . S
C641 C637 1.387 . S
C641 C640 1.391 . S
C642 Tb632 2.825 . S
C642 C636 1.507 . S
C642 O655 1.238 . S
C642 O656 1.247 . S
O643 Tb632 2.347 1_554 S
O643 C647 1.259 . S
O644 Eu633 2.418 . S
O644 C647 1.265 . S
O645 Eu633 2.384 . S
O645 C654 1.255 . S
O646 Tb632 2.366 . S
O646 C654 1.265 1_556 S
C647 O643 1.259 . S
C647 O644 1.265 . S
O648 Eu633 2.479 . S
O648 C663 1.238 . S
O649 Eu633 2.471 . S
O649 C663 1.247 . S
O650 Eu633 2.347 . S
O650 C634 1.259 . S
O651 Tb632 2.418 . S
O651 C634 1.265 1_556 S
O652 Tb632 2.384 1_554 S
O652 C635 1.255 . S
O653 Eu633 2.366 . S
O653 C635 1.265 . S
C654 O645 1.255 . S
C654 O646 1.265 1_554 S
O655 Tb632 2.479 . S
O655 C642 1.238 . S
O656 Tb632 2.471 . S
O656 C642 1.247 . S
C657 C660 1.380 . S
C657 C661 1.374 . S
C657 C663 1.507 . S
C658 C659 1.387 . S
C658 C662 1.391 . S
C659 C658 1.387 . S
C659 C660 1.384 . S
C659 H668 0.930 . S
C660 C657 1.380 . S
C660 C659 1.384 . S
C660 H669 0.931 . S
C661 C657 1.374 . S
C661 C662 1.390 . S
C661 H670 0.930 . S
C662 C658 1.391 . S
C662 C661 1.390 . S
C662 H671 0.930 . S
C663 Eu633 2.825 . S
C663 O648 1.238 . S
C663 O649 1.247 . S
C663 C657 1.507 . S
H664 C637 0.930 . S
H665 C638 0.931 . S
H666 C639 0.930 . S
H667 C640 0.930 . S
H668 C659 0.930 . S
H669 C660 0.931 . S
H670 C661 0.930 . S
H671 C662 0.930 . S
Tb672 C682 2.825 . S
Tb672 O683 2.347 . S
Tb672 O686 2.366 . S
Tb672 O691 2.418 . S
Tb672 O692 2.384 . S
Tb672 O695 2.479 . S
Tb672 O696 2.471 . S
Eu673 O684 2.418 . S
Eu673 O685 2.384 . S
Eu673 O688 2.479 . S
Eu673 O689 2.471 . S
Eu673 O690 2.347 . S
Eu673 O693 2.366 . S
Eu673 C703 2.825 . S
C674 O690 1.259 . S
C674 O691 1.265 . S
C675 O692 1.255 . S
C675 O693 1.265 . S
C676 C678 1.380 . S
C676 C679 1.374 . S
C676 C682 1.507 . S
C677 C678 1.384 . S
C677 C681 1.387 . S
C677 H704 0.930 . S
C678 C676 1.380 . S
C678 C677 1.384 . S
C678 H705 0.931 . S
C679 C676 1.374 . S
C679 C680 1.390 . S
C679 H706 0.930 . S
C680 C679 1.390 . S
C680 C681 1.391 . S
C680 H707 0.930 . S
C681 C677 1.387 . S
C681 C680 1.391 . S
C682 Tb672 2.825 . S
C682 C676 1.507 . S
C682 O695 1.238 . S
C682 O696 1.247 . S
O683 Tb672 2.347 . S
O683 C687 1.259 . S
O684 Eu673 2.418 . S
O684 C687 1.265 . S
O685 Eu673 2.384 . S
O685 C694 1.255 . S
O686 Tb672 2.366 . S
O686 C694 1.265 . S
C687 O683 1.259 . S
C687 O684 1.265 . S
O688 Eu673 2.479 . S
O688 C703 1.238 . S
O689 Eu673 2.471 . S
O689 C703 1.247 . S
O690 Eu673 2.347 . S
O690 C674 1.259 . S
O691 Tb672 2.418 . S
O691 C674 1.265 . S
O692 Tb672 2.384 . S
O692 C675 1.255 . S
O693 Eu673 2.366 . S
O693 C675 1.265 . S
C694 O685 1.255 . S
C694 O686 1.265 . S
O695 Tb672 2.479 . S
O695 C682 1.238 . S
O696 Tb672 2.471 . S
O696 C682 1.247 . S
C697 C700 1.380 . S
C697 C701 1.374 . S
C697 C703 1.507 . S
C698 C699 1.387 . S
C698 C702 1.391 . S
C699 C698 1.387 . S
C699 C700 1.384 . S
C699 H708 0.930 . S
C700 C697 1.380 . S
C700 C699 1.384 . S
C700 H709 0.931 . S
C701 C697 1.374 . S
C701 C702 1.390 . S
C701 H710 0.930 . S
C702 C698 1.391 . S
C702 C701 1.390 . S
C702 H711 0.930 . S
C703 Eu673 2.825 . S
C703 O688 1.238 . S
C703 O689 1.247 . S
C703 C697 1.507 . S
H704 C677 0.930 . S
H705 C678 0.931 . S
H706 C679 0.930 . S
H707 C680 0.930 . S
H708 C699 0.930 . S
H709 C700 0.931 . S
H710 C701 0.930 . S
H711 C702 0.930 . S
Tb712 C722 2.825 . S
Tb712 O723 2.347 . S
Tb712 O726 2.366 . S
Tb712 O731 2.418 . S
Tb712 O732 2.384 . S
Tb712 O735 2.479 . S
Tb712 O736 2.471 . S
Eu713 O724 2.418 . S
Eu713 O725 2.384 1_455 S
Eu713 O728 2.479 . S
Eu713 O729 2.471 . S
Eu713 O730 2.347 . S
Eu713 O733 2.366 . S
Eu713 C743 2.825 . S
C714 O730 1.259 . S
C714 O731 1.265 . S
C715 O732 1.255 . S
C715 O733 1.265 . S
C716 C718 1.380 . S
C716 C719 1.374 . S
C716 C722 1.507 . S
C717 C718 1.384 . S
C717 C721 1.387 . S
C717 H744 0.930 . S
C718 C716 1.380 . S
C718 C717 1.384 . S
C718 H745 0.931 . S
C719 C716 1.374 . S
C719 C720 1.390 . S
C719 H746 0.930 . S
C720 C719 1.390 . S
C720 C721 1.391 . S
C720 H747 0.930 . S
C721 C717 1.387 . S
C721 C720 1.391 . S
C722 Tb712 2.825 . S
C722 C716 1.507 . S
C722 O735 1.238 . S
C722 O736 1.247 . S
O723 Tb712 2.347 . S
O723 C727 1.259 . S
O724 Eu713 2.418 . S
O724 C727 1.265 . S
O725 Eu713 2.384 1_655 S
O725 C734 1.256 . S
O726 Tb712 2.366 . S
O726 C734 1.250 1_455 S
C727 O723 1.259 . S
C727 O724 1.265 . S
O728 Eu713 2.479 . S
O728 C743 1.238 . S
O729 Eu713 2.471 . S
O729 C743 1.247 . S
O730 Eu713 2.347 . S
O730 C714 1.259 . S
O731 Tb712 2.418 . S
O731 C714 1.265 . S
O732 Tb712 2.384 . S
O732 C715 1.255 . S
O733 Eu713 2.366 . S
O733 C715 1.265 . S
C734 O725 1.256 . S
C734 O726 1.250 1_655 S
O735 Tb712 2.479 . S
O735 C722 1.238 . S
O736 Tb712 2.471 . S
O736 C722 1.247 . S
C737 C740 1.380 . S
C737 C741 1.374 . S
C737 C743 1.507 . S
C738 C739 1.387 . S
C738 C742 1.391 . S
C739 C738 1.387 . S
C739 C740 1.384 . S
C739 H748 0.930 . S
C740 C737 1.380 . S
C740 C739 1.384 . S
C740 H749 0.931 . S
C741 C737 1.374 . S
C741 C742 1.390 . S
C741 H750 0.930 . S
C742 C738 1.391 . S
C742 C741 1.390 . S
C742 H751 0.930 . S
C743 Eu713 2.825 . S
C743 O728 1.238 . S
C743 O729 1.247 . S
C743 C737 1.507 . S
H744 C717 0.930 . S
H745 C718 0.931 . S
H746 C719 0.930 . S
H747 C720 0.930 . S
H748 C739 0.930 . S
H749 C740 0.931 . S
H750 C741 0.930 . S
H751 C742 0.930 . S
Tb752 C762 2.825 . S
Tb752 O763 2.347 . S
Tb752 O766 2.366 . S
Tb752 O771 2.418 . S
Tb752 O772 2.384 . S
Tb752 O775 2.479 . S
Tb752 O776 2.471 . S
Eu753 O764 2.418 . S
Eu753 O765 2.384 . S
Eu753 O768 2.479 . S
Eu753 O769 2.471 . S
Eu753 O770 2.347 . S
Eu753 O773 2.366 . S
Eu753 C783 2.825 . S
C754 O770 1.259 . S
C754 O771 1.265 . S
C755 O772 1.255 . S
C755 O773 1.265 . S
C756 C758 1.380 . S
C756 C759 1.374 . S
C756 C762 1.507 . S
C757 C758 1.384 . S
C757 C761 1.387 . S
C757 H784 0.930 . S
C758 C756 1.380 . S
C758 C757 1.384 . S
C758 H785 0.931 . S
C759 C756 1.374 . S
C759 C760 1.390 . S
C759 H786 0.930 . S
C760 C759 1.390 . S
C760 C761 1.391 . S
C760 H787 0.930 . S
C761 C757 1.387 . S
C761 C760 1.391 . S
C762 Tb752 2.825 . S
C762 C756 1.507 . S
C762 O775 1.238 . S
C762 O776 1.247 . S
O763 Tb752 2.347 . S
O763 C767 1.259 . S
O764 Eu753 2.418 . S
O764 C767 1.265 . S
O765 Eu753 2.384 . S
O765 C774 1.255 . S
O766 Tb752 2.366 . S
O766 C774 1.265 . S
C767 O763 1.259 . S
C767 O764 1.265 . S
O768 Eu753 2.479 . S
O768 C783 1.238 . S
O769 Eu753 2.471 . S
O769 C783 1.247 . S
O770 Eu753 2.347 . S
O770 C754 1.259 . S
O771 Tb752 2.418 . S
O771 C754 1.265 . S
O772 Tb752 2.384 . S
O772 C755 1.255 . S
O773 Eu753 2.366 . S
O773 C755 1.265 . S
C774 O765 1.255 . S
C774 O766 1.265 . S
O775 Tb752 2.479 . S
O775 C762 1.238 . S
O776 Tb752 2.471 . S
O776 C762 1.247 . S
C777 C780 1.380 . S
C777 C781 1.374 . S
C777 C783 1.507 . S
C778 C779 1.387 . S
C778 C782 1.391 . S
C779 C778 1.387 . S
C779 C780 1.384 . S
C779 H788 0.930 . S
C780 C777 1.380 . S
C780 C779 1.384 . S
C780 H789 0.931 . S
C781 C777 1.374 . S
C781 C782 1.390 . S
C781 H790 0.930 . S
C782 C778 1.391 . S
C782 C781 1.390 . S
C782 H791 0.930 . S
C783 Eu753 2.825 . S
C783 O768 1.238 . S
C783 O769 1.247 . S
C783 C777 1.507 . S
H784 C757 0.930 . S
H785 C758 0.931 . S
H786 C759 0.930 . S
H787 C760 0.930 . S
H788 C779 0.930 . S
H789 C780 0.931 . S
H790 C781 0.930 . S
H791 C782 0.930 . S
Tb792 C802 2.825 . S
Tb792 O803 2.347 . S
Tb792 O806 2.366 . S
Tb792 O811 2.418 . S
Tb792 O812 2.384 . S
Tb792 O815 2.479 . S
Tb792 O816 2.471 . S
Eu793 O804 2.418 . S
Eu793 O805 2.384 . S
Eu793 O808 2.479 . S
Eu793 O809 2.471 . S
Eu793 O810 2.347 . S
Eu793 O813 2.366 . S
Eu793 C823 2.825 . S
C794 O810 1.259 . S
C794 O811 1.265 . S
C795 O812 1.255 . S
C795 O813 1.265 . S
C796 C798 1.380 . S
C796 C799 1.374 . S
C796 C802 1.507 . S
C797 C798 1.384 . S
C797 C801 1.387 . S
C797 H824 0.930 . S
C798 C796 1.380 . S
C798 C797 1.384 . S
C798 H825 0.931 . S
C799 C796 1.374 . S
C799 C800 1.390 . S
C799 H826 0.930 . S
C800 C799 1.390 . S
C800 C801 1.391 . S
C800 H827 0.930 . S
C801 C797 1.387 . S
C801 C800 1.391 . S
C802 Tb792 2.825 . S
C802 C796 1.507 . S
C802 O815 1.238 . S
C802 O816 1.247 . S
O803 Tb792 2.347 . S
O803 C807 1.259 . S
O804 Eu793 2.418 . S
O804 C807 1.265 . S
O805 Eu793 2.384 . S
O805 C814 1.255 . S
O806 Tb792 2.366 . S
O806 C814 1.265 . S
C807 O803 1.259 . S
C807 O804 1.265 . S
O808 Eu793 2.479 . S
O808 C823 1.238 . S
O809 Eu793 2.471 . S
O809 C823 1.247 . S
O810 Eu793 2.347 . S
O810 C794 1.259 . S
O811 Tb792 2.418 . S
O811 C794 1.265 . S
O812 Tb792 2.384 . S
O812 C795 1.255 . S
O813 Eu793 2.366 . S
O813 C795 1.265 . S
C814 O805 1.255 . S
C814 O806 1.265 . S
O815 Tb792 2.479 . S
O815 C802 1.238 . S
O816 Tb792 2.471 . S
O816 C802 1.247 . S
C817 C820 1.380 . S
C817 C821 1.374 . S
C817 C823 1.507 . S
C818 C819 1.387 . S
C818 C822 1.391 . S
C819 C818 1.387 . S
C819 C820 1.384 . S
C819 H828 0.930 . S
C820 C817 1.380 . S
C820 C819 1.384 . S
C820 H829 0.931 . S
C821 C817 1.374 . S
C821 C822 1.390 . S
C821 H830 0.930 . S
C822 C818 1.391 . S
C822 C821 1.390 . S
C822 H831 0.930 . S
C823 Eu793 2.825 . S
C823 O808 1.238 . S
C823 O809 1.247 . S
C823 C817 1.507 . S
H824 C797 0.930 . S
H825 C798 0.931 . S
H826 C799 0.930 . S
H827 C800 0.930 . S
H828 C819 0.930 . S
H829 C820 0.931 . S
H830 C821 0.930 . S
H831 C822 0.930 . S
Tb832 C842 2.825 . S
Tb832 O843 2.347 . S
Tb832 O846 2.366 . S
Tb832 O851 2.418 . S
Tb832 O852 2.384 . S
Tb832 O855 2.479 . S
Tb832 O856 2.471 . S
Eu833 O844 2.418 . S
Eu833 O845 2.384 . S
Eu833 O848 2.479 . S
Eu833 O849 2.471 . S
Eu833 O850 2.347 . S
Eu833 O853 2.366 . S
Eu833 C863 2.825 . S
C834 O850 1.259 . S
C834 O851 1.265 . S
C835 O852 1.255 . S
C835 O853 1.265 . S
C836 C838 1.380 . S
C836 C839 1.374 . S
C836 C842 1.507 . S
C837 C838 1.384 . S
C837 C841 1.387 . S
C837 H864 0.930 . S
C838 C836 1.380 . S
C838 C837 1.384 . S
C838 H865 0.931 . S
C839 C836 1.374 . S
C839 C840 1.390 . S
C839 H866 0.930 . S
C840 C839 1.390 . S
C840 C841 1.391 . S
C840 H867 0.930 . S
C841 C837 1.387 . S
C841 C840 1.391 . S
C842 Tb832 2.825 . S
C842 C836 1.507 . S
C842 O855 1.238 . S
C842 O856 1.247 . S
O843 Tb832 2.347 . S
O843 C847 1.259 . S
O844 Eu833 2.418 . S
O844 C847 1.265 . S
O845 Eu833 2.384 . S
O845 C854 1.255 . S
O846 Tb832 2.366 . S
O846 C854 1.265 . S
C847 O843 1.259 . S
C847 O844 1.265 . S
O848 Eu833 2.479 . S
O848 C863 1.238 . S
O849 Eu833 2.471 . S
O849 C863 1.247 . S
O850 Eu833 2.347 . S
O850 C834 1.259 . S
O851 Tb832 2.418 . S
O851 C834 1.265 . S
O852 Tb832 2.384 . S
O852 C835 1.255 . S
O853 Eu833 2.366 . S
O853 C835 1.265 . S
C854 O845 1.255 . S
C854 O846 1.265 . S
O855 Tb832 2.479 . S
O855 C842 1.238 . S
O856 Tb832 2.471 . S
O856 C842 1.247 . S
C857 C860 1.380 . S
C857 C861 1.374 . S
C857 C863 1.507 . S
C858 C859 1.387 . S
C858 C862 1.391 . S
C859 C858 1.387 . S
C859 C860 1.384 . S
C859 H868 0.930 . S
C860 C857 1.380 . S
C860 C859 1.384 . S
C860 H869 0.931 . S
C861 C857 1.374 . S
C861 C862 1.390 . S
C861 H870 0.930 . S
C862 C858 1.391 . S
C862 C861 1.390 . S
C862 H871 0.930 . S
C863 Eu833 2.825 . S
C863 O848 1.238 . S
C863 O849 1.247 . S
C863 C857 1.507 . S
H864 C837 0.930 . S
H865 C838 0.931 . S
H866 C839 0.930 . S
H867 C840 0.930 . S
H868 C859 0.930 . S
H869 C860 0.931 . S
H870 C861 0.930 . S
H871 C862 0.930 . S
Tb872 C882 2.825 . S
Tb872 O883 2.347 . S
Tb872 O886 2.366 . S
Tb872 O891 2.418 . S
Tb872 O892 2.384 . S
Tb872 O895 2.479 . S
Tb872 O896 2.471 . S
Eu873 O884 2.418 . S
Eu873 O885 2.384 . S
Eu873 O888 2.479 . S
Eu873 O889 2.471 . S
Eu873 O890 2.347 . S
Eu873 O893 2.366 . S
Eu873 C903 2.825 . S
C874 O890 1.259 . S
C874 O891 1.265 . S
C875 O892 1.255 . S
C875 O893 1.265 . S
C876 C878 1.380 . S
C876 C879 1.374 . S
C876 C882 1.507 . S
C877 C878 1.384 . S
C877 C881 1.387 . S
C877 H904 0.930 . S
C878 C876 1.380 . S
C878 C877 1.384 . S
C878 H905 0.931 . S
C879 C876 1.374 . S
C879 C880 1.390 . S
C879 H906 0.930 . S
C880 C879 1.390 . S
C880 C881 1.391 . S
C880 H907 0.930 . S
C881 C877 1.387 . S
C881 C880 1.391 . S
C882 Tb872 2.825 . S
C882 C876 1.507 . S
C882 O895 1.238 . S
C882 O896 1.247 . S
O883 Tb872 2.347 . S
O883 C887 1.259 . S
O884 Eu873 2.418 . S
O884 C887 1.265 . S
O885 Eu873 2.384 . S
O885 C894 1.255 . S
O886 Tb872 2.366 . S
O886 C894 1.265 . S
C887 O883 1.259 . S
C887 O884 1.265 . S
O888 Eu873 2.479 . S
O888 C903 1.238 . S
O889 Eu873 2.471 . S
O889 C903 1.247 . S
O890 Eu873 2.347 . S
O890 C874 1.259 . S
O891 Tb872 2.418 . S
O891 C874 1.265 . S
O892 Tb872 2.384 . S
O892 C875 1.255 . S
O893 Eu873 2.366 . S
O893 C875 1.265 . S
C894 O885 1.255 . S
C894 O886 1.265 . S
O895 Tb872 2.479 . S
O895 C882 1.238 . S
O896 Tb872 2.471 . S
O896 C882 1.247 . S
C897 C900 1.380 . S
C897 C901 1.374 . S
C897 C903 1.507 . S
C898 C899 1.387 . S
C898 C902 1.391 . S
C899 C898 1.387 . S
C899 C900 1.384 . S
C899 H908 0.930 . S
C900 C897 1.380 . S
C900 C899 1.384 . S
C900 H909 0.931 . S
C901 C897 1.374 . S
C901 C902 1.390 . S
C901 H910 0.930 . S
C902 C898 1.391 . S
C902 C901 1.390 . S
C902 H911 0.930 . S
C903 Eu873 2.825 . S
C903 O888 1.238 . S
C903 O889 1.247 . S
C903 C897 1.507 . S
H904 C877 0.930 . S
H905 C878 0.931 . S
H906 C879 0.930 . S
H907 C880 0.930 . S
H908 C899 0.930 . S
H909 C900 0.931 . S
H910 C901 0.930 . S
H911 C902 0.930 . S
Tb912 C922 2.825 1_554 S
Tb912 O923 2.347 1_554 S
Tb912 O926 2.366 . S
Tb912 O931 2.418 . S
Tb912 O932 2.384 . S
Tb912 O935 2.479 . S
Tb912 O936 2.471 1_554 S
Eu913 O924 2.418 1_554 S
Eu913 O925 2.384 . S
Eu913 O928 2.479 . S
Eu913 O929 2.471 . S
Eu913 O930 2.347 . S
Eu913 O933 2.366 . S
Eu913 C943 2.825 . S
C914 O930 1.259 . S
C914 O931 1.265 . S
C915 O932 1.255 . S
C915 O933 1.265 . S
C916 C918 1.380 . S
C916 C919 1.374 . S
C916 C922 1.507 . S
C917 C918 1.384 . S
C917 C921 1.387 . S
C917 H944 0.930 . S
C918 C916 1.380 . S
C918 C917 1.384 . S
C918 H945 0.931 1_556 S
C919 C916 1.374 . S
C919 C920 1.390 . S
C919 H946 0.930 . S
C920 C919 1.390 . S
C920 C921 1.391 . S
C920 H947 0.930 . S
C921 C917 1.387 . S
C921 C920 1.391 . S
C922 Tb912 2.825 1_556 S
C922 C916 1.507 . S
C922 O935 1.238 1_556 S
C922 O936 1.247 . S
O923 Tb912 2.347 1_556 S
O923 C927 1.259 . S
O924 Eu913 2.418 1_556 S
O924 C927 1.265 . S
O925 Eu913 2.384 . S
O925 C934 1.255 . S
O926 Tb912 2.366 . S
O926 C934 1.265 . S
C927 O923 1.259 . S
C927 O924 1.265 . S
O928 Eu913 2.479 . S
O928 C943 1.238 . S
O929 Eu913 2.471 . S
O929 C943 1.247 . S
O930 Eu913 2.347 . S
O930 C914 1.259 . S
O931 Tb912 2.418 . S
O931 C914 1.265 . S
O932 Tb912 2.384 . S
O932 C915 1.255 . S
O933 Eu913 2.366 . S
O933 C915 1.265 . S
C934 O925 1.255 . S
C934 O926 1.265 . S
O935 Tb912 2.479 . S
O935 C922 1.238 1_554 S
O936 Tb912 2.471 1_556 S
O936 C922 1.247 . S
C937 C940 1.380 . S
C937 C941 1.374 . S
C937 C943 1.507 . S
C938 C939 1.387 . S
C938 C942 1.391 . S
C939 C938 1.387 . S
C939 C940 1.384 . S
C939 H948 0.930 . S
C940 C937 1.380 . S
C940 C939 1.384 . S
C940 H949 0.931 . S
C941 C937 1.374 . S
C941 C942 1.390 . S
C941 H950 0.930 . S
C942 C938 1.391 . S
C942 C941 1.390 . S
C942 H951 0.930 . S
C943 Eu913 2.825 . S
C943 O928 1.238 . S
C943 O929 1.247 . S
C943 C937 1.507 . S
H944 C917 0.930 . S
H945 C918 0.931 1_554 S
H946 C919 0.930 . S
H947 C920 0.930 . S
H948 C939 0.930 . S
H949 C940 0.931 . S
H950 C941 0.930 . S
H951 C942 0.930 . S
C952 C953 1.387 1_655 S
C952 H956 0.950 . S
C952 C961 1.390 1_656 S
C953 C952 1.387 1_455 S
C953 C955 1.387 . S
H954 C961 0.950 . S
C955 C953 1.387 . S
C955 C957 1.390 . S
C955 H959 0.950 . S
H956 C952 0.950 . S
C957 C955 1.390 . S
C957 C958 1.387 . S
C957 H960 0.950 . S
C958 C957 1.387 . S
C958 C961 1.387 1_556 S
H959 C955 0.950 . S
H960 C957 0.950 . S
C961 C952 1.390 1_454 S
C961 H954 0.950 . S
C961 C958 1.387 1_554 S
C962 C963 1.387 . S
C962 H966 0.950 . S
C962 C971 1.390 . S
C963 C962 1.387 . S
C963 C965 1.387 . S
H964 C971 0.950 . S
C965 C963 1.387 . S
C965 C967 1.390 . S
C965 H969 0.950 . S
H966 C962 0.950 . S
C967 C965 1.390 . S
C967 C968 1.387 . S
C967 H970 0.950 . S
C968 C967 1.387 . S
C968 C971 1.387 . S
H969 C965 0.950 . S
H970 C967 0.950 . S
C971 C962 1.390 . S
C971 H964 0.950 . S
C971 C968 1.387 . S
C972 C973 1.387 . S
C972 H976 0.950 . S
C972 C981 1.390 . S
C973 C972 1.387 . S
C973 C975 1.387 . S
H974 C981 0.950 . S
C975 C973 1.387 . S
C975 C977 1.390 . S
C975 H979 0.950 . S
H976 C972 0.950 . S
C977 C975 1.390 . S
C977 C978 1.387 . S
C977 H980 0.950 . S
C978 C977 1.387 . S
C978 C981 1.387 . S
H979 C975 0.950 . S
H980 C977 0.950 . S
C981 C972 1.390 . S
C981 H974 0.950 . S
C981 C978 1.387 . S
C982 C983 1.387 . S
C982 H986 0.950 . S
C982 C991 1.390 . S
C983 C982 1.387 . S
C983 C985 1.387 . S
H984 C991 0.950 . S
C985 C983 1.387 . S
C985 C987 1.390 . S
C985 H989 0.950 . S
H986 C982 0.950 . S
C987 C985 1.390 . S
C987 C988 1.387 . S
C987 H990 0.950 . S
C988 C987 1.387 . S
C988 C991 1.387 . S
H989 C985 0.950 . S
H990 C987 0.950 . S
C991 C982 1.390 . S
C991 H984 0.950 . S
C991 C988 1.387 . S
C992 C993 1.387 . S
C992 H996 0.950 . S
C992 C1001 1.390 . S
C993 C992 1.387 . S
C993 C995 1.387 . S
H994 C1001 0.950 . S
C995 C993 1.387 . S
C995 C997 1.390 . S
C995 H999 0.950 . S
H996 C992 0.950 . S
C997 C995 1.390 . S
C997 C998 1.387 . S
C997 H1000 0.950 . S
C998 C997 1.387 . S
C998 C1001 1.387 . S
H999 C995 0.950 . S
H1000 C997 0.950 . S
C1001 C992 1.390 . S
C1001 H994 0.950 . S
C1001 C998 1.387 . S
C1002 C1003 1.387 . S
C1002 H1006 0.950 . S
C1002 C1011 1.390 . S
C1003 C1002 1.387 . S
C1003 C1005 1.387 . S
H1004 C1011 0.950 . S
C1005 C1003 1.387 . S
C1005 C1007 1.390 . S
C1005 H1009 0.950 . S
H1006 C1002 0.950 . S
C1007 C1005 1.390 . S
C1007 C1008 1.387 . S
C1007 H1010 0.950 . S
C1008 C1007 1.387 . S
C1008 C1011 1.387 . S
H1009 C1005 0.950 . S
H1010 C1007 0.950 . S
C1011 C1002 1.390 . S
C1011 H1004 0.950 . S
C1011 C1008 1.387 . S
C1012 C1013 1.387 . S
C1012 H1016 0.950 . S
C1012 C1021 1.390 . S
C1013 C1012 1.387 . S
C1013 C1015 1.387 . S
H1014 C1021 0.950 . S
C1015 C1013 1.387 . S
C1015 C1017 1.390 . S
C1015 H1019 0.950 . S
H1016 C1012 0.950 . S
C1017 C1015 1.390 . S
C1017 C1018 1.387 . S
C1017 H1020 0.950 . S
C1018 C1017 1.387 . S
C1018 C1021 1.387 . S
H1019 C1015 0.950 . S
H1020 C1017 0.950 . S
C1021 C1012 1.390 . S
C1021 H1014 0.950 . S
C1021 C1018 1.387 . S
C1022 C1023 1.387 . S
C1022 H1026 0.950 . S
C1022 C1031 1.390 . S
C1023 C1022 1.387 . S
C1023 C1025 1.387 . S
H1024 C1031 0.950 . S
C1025 C1023 1.387 . S
C1025 C1027 1.390 . S
C1025 H1029 0.950 . S
H1026 C1022 0.950 . S
C1027 C1025 1.390 . S
C1027 C1028 1.387 . S
C1027 H1030 0.950 . S
C1028 C1027 1.387 . S
C1028 C1031 1.387 . S
H1029 C1025 0.950 . S
H1030 C1027 0.950 . S
C1031 C1022 1.390 . S
C1031 H1024 0.950 . S
C1031 C1028 1.387 . S
C1032 C1033 1.387 1_565 S
C1032 H1036 0.950 . S
C1032 C1041 1.390 1_565 S
C1033 C1032 1.387 1_545 S
C1033 C1035 1.387 . S
H1034 C1041 0.960 1_565 S
C1035 C1033 1.387 . S
C1035 C1037 1.390 . S
C1035 H1039 0.950 . S
H1036 C1032 0.950 . S
C1037 C1035 1.390 . S
C1037 C1038 1.387 1_655 S
C1037 H1040 0.950 . S
C1038 C1037 1.387 1_455 S
C1038 C1041 1.387 1_455 S
H1039 C1035 0.950 . S
H1040 C1037 0.950 . S
C1041 C1032 1.390 1_545 S
C1041 H1034 0.960 1_545 S
C1041 C1038 1.387 1_655 S
C1042 C1043 1.387 . S
C1042 H1046 0.950 . S
C1042 C1051 1.390 . S
C1043 C1042 1.387 . S
C1043 C1045 1.387 . S
H1044 C1051 0.950 . S
C1045 C1043 1.387 . S
C1045 C1047 1.390 . S
C1045 H1049 0.950 . S
H1046 C1042 0.950 . S
C1047 C1045 1.390 . S
C1047 C1048 1.387 . S
C1047 H1050 0.950 . S
C1048 C1047 1.387 . S
C1048 C1051 1.387 . S
H1049 C1045 0.950 . S
H1050 C1047 0.950 . S
C1051 C1042 1.390 . S
C1051 H1044 0.950 . S
C1051 C1048 1.387 . S
C1052 C1053 1.387 . S
C1052 H1056 0.950 . S
C1052 C1061 1.390 . S
C1053 C1052 1.387 . S
C1053 C1055 1.387 1_545 S
H1054 C1061 0.950 . S
C1055 C1053 1.387 1_565 S
C1055 C1057 1.390 1_565 S
C1055 H1059 0.950 . S
H1056 C1052 0.950 . S
C1057 C1055 1.390 1_545 S
C1057 C1058 1.387 . S
C1057 H1060 0.950 . S
C1058 C1057 1.387 . S
C1058 C1061 1.387 . S
H1059 C1055 0.950 . S
H1060 C1057 0.950 . S
C1061 C1052 1.390 . S
C1061 H1054 0.950 . S
C1061 C1058 1.387 . S
C1062 C1063 1.387 . S
C1062 H1066 0.950 . S
C1062 C1071 1.390 . S
C1063 C1062 1.387 . S
C1063 C1065 1.387 . S
H1064 C1071 0.950 . S
C1065 C1063 1.387 . S
C1065 C1067 1.390 . S
C1065 H1069 0.950 . S
H1066 C1062 0.950 . S
C1067 C1065 1.390 . S
C1067 C1068 1.387 . S
C1067 H1070 0.950 . S
C1068 C1067 1.387 . S
C1068 C1071 1.387 . S
H1069 C1065 0.950 . S
H1070 C1067 0.950 . S
C1071 C1062 1.390 . S
C1071 H1064 0.950 . S
C1071 C1068 1.387 . S
C1072 C1073 1.387 1_565 S
C1072 H1076 0.950 . S
C1072 C1081 1.390 1_565 S
C1073 C1072 1.387 1_545 S
C1073 C1075 1.387 . S
H1074 C1081 0.950 . S
C1075 C1073 1.387 . S
C1075 C1077 1.390 . S
C1075 H1079 0.950 . S
H1076 C1072 0.950 . S
C1077 C1075 1.390 . S
C1077 C1078 1.387 . S
C1077 H1080 0.950 . S
C1078 C1077 1.387 . S
C1078 C1081 1.387 . S
H1079 C1075 0.950 . S
H1080 C1077 0.950 . S
C1081 C1072 1.390 1_545 S
C1081 H1074 0.950 . S
C1081 C1078 1.387 . S
C1082 C1083 1.387 . S
C1082 H1086 0.950 . S
C1082 C1091 1.390 . S
C1083 C1082 1.387 . S
C1083 C1085 1.387 . S
H1084 C1091 0.950 . S
C1085 C1083 1.387 . S
C1085 C1087 1.390 . S
C1085 H1089 0.950 . S
H1086 C1082 0.950 . S
C1087 C1085 1.390 . S
C1087 C1088 1.387 . S
C1087 H1090 0.950 . S
C1088 C1087 1.387 . S
C1088 C1091 1.387 . S
H1089 C1085 0.950 . S
H1090 C1087 0.950 . S
C1091 C1082 1.390 . S
C1091 H1084 0.950 . S
C1091 C1088 1.387 . S
C1092 C1093 1.387 . S
C1092 H1096 0.950 1_545 S
C1092 C1101 1.390 . S
C1093 C1092 1.387 . S
C1093 C1095 1.387 . S
H1094 C1101 0.950 . S
C1095 C1093 1.387 . S
C1095 C1097 1.390 . S
C1095 H1099 0.950 . S
H1096 C1092 0.950 1_565 S
C1097 C1095 1.390 . S
C1097 C1098 1.387 . S
C1097 H1100 0.950 . S
C1098 C1097 1.387 . S
C1098 C1101 1.387 . S
H1099 C1095 0.950 . S
H1100 C1097 0.950 . S
C1101 C1092 1.390 . S
C1101 H1094 0.950 . S
C1101 C1098 1.387 . S
C1102 C1103 1.387 . S
C1102 H1106 0.950 . S
C1102 C1111 1.390 . S
C1103 C1102 1.387 . S
C1103 C1105 1.387 . S
H1104 C1111 0.950 . S
C1105 C1103 1.387 . S
C1105 C1107 1.390 . S
C1105 H1109 0.950 . S
H1106 C1102 0.950 . S
C1107 C1105 1.390 . S
C1107 C1108 1.387 . S
C1107 H1110 0.950 . S
C1108 C1107 1.387 . S
C1108 C1111 1.387 . S
H1109 C1105 0.950 . S
H1110 C1107 0.950 . S
C1111 C1102 1.390 . S
C1111 H1104 0.950 . S
C1111 C1108 1.387 . S
C1112 C1113 1.387 . S
C1112 H1116 0.950 . S
C1112 C1121 1.390 . S
C1113 C1112 1.387 . S
C1113 C1115 1.387 . S
H1114 C1121 0.950 . S
C1115 C1113 1.387 . S
C1115 C1117 1.390 . S
C1115 H1119 0.950 . S
H1116 C1112 0.950 . S
C1117 C1115 1.390 . S
C1117 C1118 1.387 . S
C1117 H1120 0.950 . S
C1118 C1117 1.387 . S
C1118 C1121 1.387 . S
H1119 C1115 0.950 . S
H1120 C1117 0.950 . S
C1121 C1112 1.390 . S
C1121 H1114 0.950 . S
C1121 C1118 1.387 . S
C1122 C1123 1.387 . S
C1122 H1126 0.950 . S
C1122 C1131 1.390 . S
C1123 C1122 1.387 . S
C1123 C1125 1.387 1_554 S
H1124 C1131 0.950 . S
C1125 C1123 1.387 1_556 S
C1125 C1127 1.390 . S
C1125 H1129 0.950 . S
H1126 C1122 0.950 . S
C1127 C1125 1.390 . S
C1127 C1128 1.387 1_556 S
C1127 H1130 0.950 . S
C1128 C1127 1.387 1_554 S
C1128 C1131 1.387 . S
H1129 C1125 0.950 . S
H1130 C1127 0.950 . S
C1131 C1122 1.390 . S
C1131 H1124 0.950 . S
C1131 C1128 1.387 . S
C1132 C1133 1.387 . S
C1132 H1136 0.950 . S
C1132 C1141 1.390 . S
C1133 C1132 1.387 . S
C1133 C1135 1.387 . S
H1134 C1141 0.950 . S
C1135 C1133 1.387 . S
C1135 C1137 1.390 . S
C1135 H1139 0.950 . S
H1136 C1132 0.950 . S
C1137 C1135 1.390 . S
C1137 C1138 1.387 . S
C1137 H1140 0.950 . S
C1138 C1137 1.387 . S
C1138 C1141 1.387 . S
H1139 C1135 0.950 . S
H1140 C1137 0.950 . S
C1141 C1132 1.390 . S
C1141 H1134 0.950 . S
C1141 C1138 1.387 . S
C1142 C1143 1.387 . S
C1142 H1146 0.950 . S
C1142 C1151 1.390 . S
C1143 C1142 1.387 . S
C1143 C1145 1.387 . S
H1144 C1151 0.950 . S
C1145 C1143 1.387 . S
C1145 C1147 1.390 . S
C1145 H1149 0.950 . S
H1146 C1142 0.950 . S
C1147 C1145 1.390 . S
C1147 C1148 1.387 . S
C1147 H1150 0.950 . S
C1148 C1147 1.387 . S
C1148 C1151 1.387 . S
H1149 C1145 0.950 . S
H1150 C1147 0.950 . S
C1151 C1142 1.390 . S
C1151 H1144 0.950 . S
C1151 C1148 1.387 . S
C1152 C1153 1.387 . S
C1152 H1156 0.950 . S
C1152 C1161 1.390 . S
C1153 C1152 1.387 . S
C1153 C1155 1.387 . S
H1154 C1161 0.950 . S
C1155 C1153 1.387 . S
C1155 C1157 1.390 . S
C1155 H1159 0.950 . S
H1156 C1152 0.950 . S
C1157 C1155 1.390 . S
C1157 C1158 1.387 . S
C1157 H1160 0.950 . S
C1158 C1157 1.387 . S
C1158 C1161 1.387 . S
H1159 C1155 0.950 . S
H1160 C1157 0.950 . S
C1161 C1152 1.390 . S
C1161 H1154 0.950 . S
C1161 C1158 1.387 . S
C1162 C1163 1.387 . S
C1162 H1166 0.950 . S
C1162 C1171 1.390 . S
C1163 C1162 1.387 . S
C1163 C1165 1.387 . S
H1164 C1171 0.950 . S
C1165 C1163 1.387 . S
C1165 C1167 1.390 . S
C1165 H1169 0.950 . S
H1166 C1162 0.950 . S
C1167 C1165 1.390 . S
C1167 C1168 1.387 . S
C1167 H1170 0.950 . S
C1168 C1167 1.387 . S
C1168 C1171 1.387 . S
H1169 C1165 0.950 . S
H1170 C1167 0.950 . S
C1171 C1162 1.390 . S
C1171 H1164 0.950 . S
C1171 C1168 1.387 . S
C1172 C1173 1.387 . S
C1172 H1176 0.950 . S
C1172 C1181 1.390 . S
C1173 C1172 1.387 . S
C1173 C1175 1.387 . S
H1174 C1181 0.950 . S
C1175 C1173 1.387 . S
C1175 C1177 1.390 . S
C1175 H1179 0.950 . S
H1176 C1172 0.950 . S
C1177 C1175 1.390 . S
C1177 C1178 1.387 . S
C1177 H1180 0.950 . S
C1178 C1177 1.387 . S
C1178 C1181 1.387 . S
H1179 C1175 0.950 . S
H1180 C1177 0.950 . S
C1181 C1172 1.390 . S
C1181 H1174 0.950 . S
C1181 C1178 1.387 . S
C1182 C1183 1.387 . S
C1182 H1186 0.950 . S
C1182 C1191 1.390 . S
C1183 C1182 1.387 . S
C1183 C1185 1.387 . S
H1184 C1191 0.950 . S
C1185 C1183 1.387 . S
C1185 C1187 1.390 . S
C1185 H1189 0.950 . S
H1186 C1182 0.950 . S
C1187 C1185 1.390 . S
C1187 C1188 1.387 . S
C1187 H1190 0.950 . S
C1188 C1187 1.387 . S
C1188 C1191 1.387 . S
H1189 C1185 0.950 . S
H1190 C1187 0.950 . S
C1191 C1182 1.390 . S
C1191 H1184 0.950 . S
C1191 C1188 1.387 . S
C1192 C1193 1.387 . S
C1192 H1196 0.950 . S
C1192 C1201 1.390 . S
C1193 C1192 1.387 . S
C1193 C1195 1.387 . S
H1194 C1201 0.950 1_545 S
C1195 C1193 1.387 . S
C1195 C1197 1.390 . S
C1195 H1199 0.950 . S
H1196 C1192 0.950 . S
C1197 C1195 1.390 . S
C1197 C1198 1.387 . S
C1197 H1200 0.950 . S
C1198 C1197 1.387 . S
C1198 C1201 1.387 . S
H1199 C1195 0.950 . S
H1200 C1197 0.950 . S
C1201 C1192 1.390 . S
C1201 H1194 0.950 1_565 S
C1201 C1198 1.387 . S
C1202 C1203 1.387 . S
C1202 H1206 0.950 . S
C1202 C1211 1.390 . S
C1203 C1202 1.387 . S
C1203 C1205 1.387 . S
H1204 C1211 0.950 . S
C1205 C1203 1.387 . S
C1205 C1207 1.390 . S
C1205 H1209 0.950 . S
H1206 C1202 0.950 . S
C1207 C1205 1.390 . S
C1207 C1208 1.387 . S
C1207 H1210 0.950 . S
C1208 C1207 1.387 . S
C1208 C1211 1.387 . S
H1209 C1205 0.950 . S
H1210 C1207 0.950 . S
C1211 C1202 1.390 . S
C1211 H1204 0.950 . S
C1211 C1208 1.387 . S
C1212 C1213 1.387 . S
C1212 H1216 0.950 . S
C1212 C1221 1.390 . S
C1213 C1212 1.387 . S
C1213 C1215 1.387 . S
H1214 C1221 0.950 . S
C1215 C1213 1.387 . S
C1215 C1217 1.390 . S
C1215 H1219 0.950 . S
H1216 C1212 0.950 . S
C1217 C1215 1.390 . S
C1217 C1218 1.387 . S
C1217 H1220 0.950 . S
C1218 C1217 1.387 . S
C1218 C1221 1.387 . S
H1219 C1215 0.950 . S
H1220 C1217 0.950 . S
C1221 C1212 1.390 . S
C1221 H1214 0.950 . S
C1221 C1218 1.387 . S
C1222 C1223 1.387 . S
C1222 H1226 0.950 . S
C1222 C1231 1.390 . S
C1223 C1222 1.387 . S
C1223 C1225 1.387 . S
H1224 C1231 0.950 . S
C1225 C1223 1.387 . S
C1225 C1227 1.390 . S
C1225 H1229 0.950 . S
H1226 C1222 0.950 . S
C1227 C1225 1.390 . S
C1227 C1228 1.387 . S
C1227 H1230 0.950 . S
C1228 C1227 1.387 . S
C1228 C1231 1.387 . S
H1229 C1225 0.950 . S
H1230 C1227 0.950 . S
C1231 C1222 1.390 . S
C1231 H1224 0.950 . S
C1231 C1228 1.387 . S
C1232 C1233 1.387 . S
C1232 H1236 0.951 1_455 S
C1232 C1241 1.390 . S
C1233 C1232 1.387 . S
C1233 C1235 1.387 . S
H1234 C1241 0.950 1_655 S
C1235 C1233 1.387 . S
C1235 C1237 1.390 . S
C1235 H1239 0.950 . S
H1236 C1232 0.951 1_655 S
C1237 C1235 1.390 . S
C1237 C1238 1.387 . S
C1237 H1240 0.950 . S
C1238 C1237 1.387 . S
C1238 C1241 1.387 . S
H1239 C1235 0.950 . S
H1240 C1237 0.950 . S
C1241 C1232 1.390 . S
C1241 H1234 0.950 1_455 S
C1241 C1238 1.387 . S
C1242 C1243 1.387 . S
C1242 H1246 0.950 . S
C1242 C1251 1.390 . S
C1243 C1242 1.387 . S
C1243 C1245 1.387 . S
H1244 C1251 0.950 . S
C1245 C1243 1.387 . S
C1245 C1247 1.390 . S
C1245 H1249 0.950 . S
H1246 C1242 0.950 . S
C1247 C1245 1.390 . S
C1247 C1248 1.387 . S
C1247 H1250 0.950 . S
C1248 C1247 1.387 . S
C1248 C1251 1.387 . S
H1249 C1245 0.950 . S
H1250 C1247 0.950 . S
C1251 C1242 1.390 . S
C1251 H1244 0.950 . S
C1251 C1248 1.387 . S
C1252 C1253 1.387 . S
C1252 H1256 0.950 . S
C1252 C1261 1.390 . S
C1253 C1252 1.387 . S
C1253 C1255 1.387 . S
H1254 C1261 0.950 1_554 S
C1255 C1253 1.387 . S
C1255 C1257 1.390 . S
C1255 H1259 0.950 . S
H1256 C1252 0.950 . S
C1257 C1255 1.390 . S
C1257 C1258 1.387 . S
C1257 H1260 0.950 . S
C1258 C1257 1.387 . S
C1258 C1261 1.387 . S
H1259 C1255 0.950 . S
H1260 C1257 0.950 . S
C1261 C1252 1.390 . S
C1261 H1254 0.950 1_556 S
C1261 C1258 1.387 . S
C1262 C1263 1.387 . S
C1262 H1266 0.950 . S
C1262 C1271 1.390 . S
C1263 C1262 1.387 . S
C1263 C1265 1.387 . S
H1264 C1271 0.950 . S
C1265 C1263 1.387 . S
C1265 C1267 1.390 . S
C1265 H1269 0.950 . S
H1266 C1262 0.950 . S
C1267 C1265 1.390 . S
C1267 C1268 1.387 . S
C1267 H1270 0.950 . S
C1268 C1267 1.387 . S
C1268 C1271 1.387 . S
H1269 C1265 0.950 . S
H1270 C1267 0.950 . S
C1271 C1262 1.390 . S
C1271 H1264 0.950 . S
C1271 C1268 1.387 . S
C1272 C1273 1.387 . S
C1272 H1276 0.950 . S
C1272 C1281 1.390 . S
C1273 C1272 1.387 . S
C1273 C1275 1.387 . S
H1274 C1281 0.950 . S
C1275 C1273 1.387 . S
C1275 C1277 1.390 . S
C1275 H1279 0.950 . S
H1276 C1272 0.950 . S
C1277 C1275 1.390 . S
C1277 C1278 1.387 . S
C1277 H1280 0.950 . S
C1278 C1277 1.387 . S
C1278 C1281 1.387 . S
H1279 C1275 0.950 . S
H1280 C1277 0.950 . S
C1281 C1272 1.390 . S
C1281 H1274 0.950 . S
C1281 C1278 1.387 . S
C1282 C1283 1.387 . S
C1282 H1286 0.950 . S
C1282 C1291 1.390 . S
C1283 C1282 1.387 . S
C1283 C1285 1.387 . S
H1284 C1291 0.950 . S
C1285 C1283 1.387 . S
C1285 C1287 1.390 . S
C1285 H1289 0.950 . S
H1286 C1282 0.950 . S
C1287 C1285 1.390 . S
C1287 C1288 1.387 . S
C1287 H1290 0.950 . S
C1288 C1287 1.387 . S
C1288 C1291 1.387 . S
H1289 C1285 0.950 . S
H1290 C1287 0.950 . S
C1291 C1282 1.390 . S
C1291 H1284 0.950 . S
C1291 C1288 1.387 . S
C1292 C1293 1.387 . S
C1292 H1296 0.950 . S
C1292 C1301 1.390 . S
C1293 C1292 1.387 . S
C1293 C1295 1.387 . S
H1294 C1301 0.950 . S
C1295 C1293 1.387 . S
C1295 C1297 1.390 . S
C1295 H1299 0.950 . S
H1296 C1292 0.950 . S
C1297 C1295 1.390 . S
C1297 C1298 1.387 . S
C1297 H1300 0.950 . S
C1298 C1297 1.387 . S
C1298 C1301 1.387 . S
H1299 C1295 0.950 . S
H1300 C1297 0.950 . S
C1301 C1292 1.390 . S
C1301 H1294 0.950 . S
C1301 C1298 1.387 . S
C1302 C1303 1.387 . S
C1302 H1306 0.950 . S
C1302 C1311 1.390 . S
C1303 C1302 1.387 . S
C1303 C1305 1.387 . S
H1304 C1311 0.950 . S
C1305 C1303 1.387 . S
C1305 C1307 1.390 . S
C1305 H1309 0.950 . S
H1306 C1302 0.950 . S
C1307 C1305 1.390 . S
C1307 C1308 1.387 . S
C1307 H1310 0.950 . S
C1308 C1307 1.387 . S
C1308 C1311 1.387 . S
H1309 C1305 0.950 . S
H1310 C1307 0.950 . S
C1311 C1302 1.390 . S
C1311 H1304 0.950 . S
C1311 C1308 1.387 . S
C1312 C1313 1.387 . S
C1312 H1316 0.950 . S
C1312 C1321 1.390 . S
C1313 C1312 1.387 . S
C1313 C1315 1.387 . S
H1314 C1321 0.950 . S
C1315 C1313 1.387 . S
C1315 C1317 1.390 . S
C1315 H1319 0.950 . S
H1316 C1312 0.950 . S
C1317 C1315 1.390 . S
C1317 C1318 1.387 . S
C1317 H1320 0.950 . S
C1318 C1317 1.387 . S
C1318 C1321 1.387 . S
H1319 C1315 0.950 . S
H1320 C1317 0.950 . S
C1321 C1312 1.390 . S
C1321 H1314 0.950 . S
C1321 C1318 1.387 . S
C1322 C1323 1.387 . S
C1322 H1326 0.950 . S
C1322 C1331 1.390 . S
C1323 C1322 1.387 . S
C1323 C1325 1.387 . S
H1324 C1331 0.950 . S
C1325 C1323 1.387 . S
C1325 C1327 1.390 . S
C1325 H1329 0.950 . S
H1326 C1322 0.950 . S
C1327 C1325 1.390 . S
C1327 C1328 1.387 . S
C1327 H1330 0.950 . S
C1328 C1327 1.387 . S
C1328 C1331 1.387 . S
H1329 C1325 0.950 . S
H1330 C1327 0.950 . S
C1331 C1322 1.390 . S
C1331 H1324 0.950 . S
C1331 C1328 1.387 . S
C1332 C1333 1.387 . S
C1332 H1336 0.950 . S
C1332 C1341 1.390 . S
C1333 C1332 1.387 . S
C1333 C1335 1.387 . S
H1334 C1341 0.950 . S
C1335 C1333 1.387 . S
C1335 C1337 1.390 . S
C1335 H1339 0.950 . S
H1336 C1332 0.950 . S
C1337 C1335 1.390 . S
C1337 C1338 1.387 . S
C1337 H1340 0.950 . S
C1338 C1337 1.387 . S
C1338 C1341 1.387 . S
H1339 C1335 0.950 . S
H1340 C1337 0.950 . S
C1341 C1332 1.390 . S
C1341 H1334 0.950 . S
C1341 C1338 1.387 . S
C1342 C1343 1.387 . S
C1342 H1346 0.950 . S
C1342 C1351 1.390 . S
C1343 C1342 1.387 . S
C1343 C1345 1.387 . S
H1344 C1351 0.950 . S
C1345 C1343 1.387 . S
C1345 C1347 1.390 . S
C1345 H1349 0.950 . S
H1346 C1342 0.950 . S
C1347 C1345 1.390 . S
C1347 C1348 1.387 . S
C1347 H1350 0.950 . S
C1348 C1347 1.387 . S
C1348 C1351 1.387 . S
H1349 C1345 0.950 . S
H1350 C1347 0.950 . S
C1351 C1342 1.390 . S
C1351 H1344 0.950 . S
C1351 C1348 1.387 . S
C1352 C1353 1.387 . S
C1352 H1356 0.950 . S
C1352 C1361 1.390 . S
C1353 C1352 1.387 . S
C1353 C1355 1.387 . S
H1354 C1361 0.950 . S
C1355 C1353 1.387 . S
C1355 C1357 1.390 . S
C1355 H1359 0.950 . S
H1356 C1352 0.950 . S
C1357 C1355 1.390 . S
C1357 C1358 1.387 . S
C1357 H1360 0.950 . S
C1358 C1357 1.387 . S
C1358 C1361 1.387 . S
H1359 C1355 0.950 . S
H1360 C1357 0.950 . S
C1361 C1352 1.390 . S
C1361 H1354 0.950 . S
C1361 C1358 1.387 . S
C1362 C1363 1.387 . S
C1362 H1366 0.950 . S
C1362 C1371 1.390 . S
C1363 C1362 1.387 . S
C1363 C1365 1.387 . S
H1364 C1371 0.950 . S
C1365 C1363 1.387 . S
C1365 C1367 1.390 . S
C1365 H1369 0.950 . S
H1366 C1362 0.950 . S
C1367 C1365 1.390 . S
C1367 C1368 1.387 . S
C1367 H1370 0.971 . S
C1368 C1367 1.387 . S
C1368 C1371 1.387 . S
H1369 C1365 0.950 . S
H1370 C1367 0.971 . S
C1371 C1362 1.390 . S
C1371 H1364 0.950 . S
C1371 C1368 1.387 . S
C1372 C1373 1.387 . S
C1372 H1376 0.950 . S
C1372 C1381 1.390 . S
C1373 C1372 1.387 . S
C1373 C1375 1.387 . S
H1374 C1381 0.950 . S
C1375 C1373 1.387 . S
C1375 C1377 1.390 . S
C1375 H1379 0.950 . S
H1376 C1372 0.950 . S
C1377 C1375 1.390 . S
C1377 C1378 1.387 . S
C1377 H1380 0.950 . S
C1378 C1377 1.387 . S
C1378 C1381 1.387 . S
H1379 C1375 0.950 . S
H1380 C1377 0.950 . S
C1381 C1372 1.390 . S
C1381 H1374 0.950 . S
C1381 C1378 1.387 . S
C1382 C1383 1.387 . S
C1382 H1386 0.950 . S
C1382 C1391 1.390 . S
C1383 C1382 1.387 . S
C1383 C1385 1.387 . S
H1384 C1391 0.950 . S
C1385 C1383 1.387 . S
C1385 C1387 1.390 . S
C1385 H1389 0.950 . S
H1386 C1382 0.950 . S
C1387 C1385 1.390 . S
C1387 C1388 1.387 . S
C1387 H1390 0.950 . S
C1388 C1387 1.387 . S
C1388 C1391 1.387 . S
H1389 C1385 0.950 . S
H1390 C1387 0.950 . S
C1391 C1382 1.390 . S
C1391 H1384 0.950 . S
C1391 C1388 1.387 . S
C1392 C1393 1.387 . S
C1392 H1396 0.950 . S
C1392 C1401 1.390 . S
C1393 C1392 1.387 . S
C1393 C1395 1.387 . S
H1394 C1401 0.950 . S
C1395 C1393 1.387 . S
C1395 C1397 1.390 . S
C1395 H1399 0.950 . S
H1396 C1392 0.950 . S
C1397 C1395 1.390 . S
C1397 C1398 1.387 . S
C1397 H1400 0.950 . S
C1398 C1397 1.387 . S
C1398 C1401 1.387 . S
H1399 C1395 0.950 . S
H1400 C1397 0.950 . S
C1401 C1392 1.390 . S
C1401 H1394 0.950 . S
C1401 C1398 1.387 . S
C1402 C1403 1.387 . S
C1402 H1406 0.950 . S
C1402 C1411 1.390 . S
C1403 C1402 1.387 . S
C1403 C1405 1.387 . S
H1404 C1411 0.950 . S
C1405 C1403 1.387 . S
C1405 C1407 1.390 1_565 S
C1405 H1409 0.950 . S
H1406 C1402 0.950 . S
C1407 C1405 1.390 1_545 S
C1407 C1408 1.387 . S
C1407 H1410 0.950 . S
C1408 C1407 1.387 . S
C1408 C1411 1.387 1_545 S
H1409 C1405 0.950 . S
H1410 C1407 0.950 . S
C1411 C1402 1.390 . S
C1411 H1404 0.950 . S
C1411 C1408 1.387 1_565 S
C1412 C1413 1.387 . S
C1412 H1416 0.950 . S
C1412 C1421 1.390 . S
C1413 C1412 1.387 . S
C1413 C1415 1.387 . S
H1414 C1421 0.950 . S
C1415 C1413 1.387 . S
C1415 C1417 1.390 . S
C1415 H1419 0.950 . S
H1416 C1412 0.950 . S
C1417 C1415 1.390 . S
C1417 C1418 1.387 . S
C1417 H1420 0.950 . S
C1418 C1417 1.387 . S
C1418 C1421 1.387 . S
H1419 C1415 0.950 . S
H1420 C1417 0.950 . S
C1421 C1412 1.390 . S
C1421 H1414 0.950 . S
C1421 C1418 1.387 . S
C1422 C1423 1.387 . S
C1422 H1426 0.950 . S
C1422 C1431 1.390 . S
C1423 C1422 1.387 . S
C1423 C1425 1.387 . S
H1424 C1431 0.950 . S
C1425 C1423 1.387 . S
C1425 C1427 1.390 . S
C1425 H1429 0.950 . S
H1426 C1422 0.950 . S
C1427 C1425 1.390 . S
C1427 C1428 1.387 . S
C1427 H1430 0.950 . S
C1428 C1427 1.387 . S
C1428 C1431 1.387 . S
H1429 C1425 0.950 . S
H1430 C1427 0.950 . S
C1431 C1422 1.390 . S
C1431 H1424 0.950 . S
C1431 C1428 1.387 . S
C1432 C1433 1.387 . S
C1432 H1436 0.950 . S
C1432 C1441 1.390 . S
C1433 C1432 1.387 . S
C1433 C1435 1.387 . S
H1434 C1441 0.950 . S
C1435 C1433 1.387 . S
C1435 C1437 1.390 . S
C1435 H1439 0.950 . S
H1436 C1432 0.950 . S
C1437 C1435 1.390 . S
C1437 C1438 1.387 . S
C1437 H1440 0.950 . S
C1438 C1437 1.387 . S
C1438 C1441 1.387 . S
H1439 C1435 0.950 . S
H1440 C1437 0.950 . S
C1441 C1432 1.390 . S
C1441 H1434 0.950 . S
C1441 C1438 1.387 . S
C1442 C1443 1.387 . S
C1442 H1446 0.950 . S
C1442 C1451 1.390 . S
C1443 C1442 1.387 . S
C1443 C1445 1.387 . S
H1444 C1451 0.950 . S
C1445 C1443 1.387 . S
C1445 C1447 1.390 . S
C1445 H1449 0.950 . S
H1446 C1442 0.950 . S
C1447 C1445 1.390 . S
C1447 C1448 1.387 . S
C1447 H1450 0.950 . S
C1448 C1447 1.387 . S
C1448 C1451 1.387 . S
H1449 C1445 0.950 . S
H1450 C1447 0.950 . S
C1451 C1442 1.390 . S
C1451 H1444 0.950 . S
C1451 C1448 1.387 . S
C1452 C1453 1.387 . S
C1452 H1456 0.950 . S
C1452 C1461 1.390 . S
C1453 C1452 1.387 . S
C1453 C1455 1.387 . S
H1454 C1461 0.950 . S
C1455 C1453 1.387 . S
C1455 C1457 1.390 . S
C1455 H1459 0.950 . S
H1456 C1452 0.950 . S
C1457 C1455 1.390 . S
C1457 C1458 1.387 . S
C1457 H1460 0.950 . S
C1458 C1457 1.387 . S
C1458 C1461 1.387 . S
H1459 C1455 0.950 . S
H1460 C1457 0.950 . S
C1461 C1452 1.390 . S
C1461 H1454 0.950 . S
C1461 C1458 1.387 . S
C1462 C1463 1.387 . S
C1462 H1466 0.950 . S
C1462 C1471 1.390 . S
C1463 C1462 1.387 . S
C1463 C1465 1.387 . S
H1464 C1471 0.970 . S
C1465 C1463 1.387 . S
C1465 C1467 1.390 . S
C1465 H1469 0.950 . S
H1466 C1462 0.950 . S
C1467 C1465 1.390 . S
C1467 C1468 1.387 1_455 S
C1467 H1470 0.949 1_455 S
C1468 C1467 1.387 1_655 S
C1468 C1471 1.387 1_655 S
H1469 C1465 0.950 . S
H1470 C1467 0.949 1_655 S
C1471 C1462 1.390 . S
C1471 H1464 0.970 . S
C1471 C1468 1.387 1_455 S
C1472 C1473 1.387 . S
C1472 H1476 0.950 . S
C1472 C1481 1.390 . S
C1473 C1472 1.387 . S
C1473 C1475 1.387 . S
H1474 C1481 0.950 . S
C1475 C1473 1.387 . S
C1475 C1477 1.390 . S
C1475 H1479 0.950 . S
H1476 C1472 0.950 . S
C1477 C1475 1.390 . S
C1477 C1478 1.387 . S
C1477 H1480 0.950 . S
C1478 C1477 1.387 . S
C1478 C1481 1.387 . S
H1479 C1475 0.950 . S
H1480 C1477 0.950 . S
C1481 C1472 1.390 . S
C1481 H1474 0.950 . S
C1481 C1478 1.387 . S
C1482 C1483 1.387 . S
C1482 H1486 0.950 . S
C1482 C1491 1.390 . S
C1483 C1482 1.387 . S
C1483 C1485 1.387 . S
H1484 C1491 0.950 . S
C1485 C1483 1.387 . S
C1485 C1487 1.390 . S
C1485 H1489 0.950 . S
H1486 C1482 0.950 . S
C1487 C1485 1.390 . S
C1487 C1488 1.387 . S
C1487 H1490 0.950 . S
C1488 C1487 1.387 . S
C1488 C1491 1.387 . S
H1489 C1485 0.950 . S
H1490 C1487 0.950 . S
C1491 C1482 1.390 . S
C1491 H1484 0.950 . S
C1491 C1488 1.387 . S
C1492 C1493 1.387 . S
C1492 H1496 0.950 . S
C1492 C1501 1.390 . S
C1493 C1492 1.387 . S
C1493 C1495 1.387 . S
H1494 C1501 0.950 . S
C1495 C1493 1.387 . S
C1495 C1497 1.390 . S
C1495 H1499 0.950 . S
H1496 C1492 0.950 . S
C1497 C1495 1.390 . S
C1497 C1498 1.387 . S
C1497 H1500 0.950 . S
C1498 C1497 1.387 . S
C1498 C1501 1.387 . S
H1499 C1495 0.950 . S
H1500 C1497 0.950 . S
C1501 C1492 1.390 . S
C1501 H1494 0.950 . S
C1501 C1498 1.387 . S
C1502 C1503 1.387 . S
C1502 H1506 0.950 . S
C1502 C1511 1.390 . S
C1503 C1502 1.387 . S
C1503 C1505 1.387 . S
H1504 C1511 0.950 . S
C1505 C1503 1.387 . S
C1505 C1507 1.390 . S
C1505 H1509 0.950 . S
H1506 C1502 0.950 . S
C1507 C1505 1.390 . S
C1507 C1508 1.387 . S
C1507 H1510 0.950 . S
C1508 C1507 1.387 . S
C1508 C1511 1.387 . S
H1509 C1505 0.950 . S
H1510 C1507 0.950 . S
C1511 C1502 1.390 . S
C1511 H1504 0.950 . S
C1511 C1508 1.387 . S
C1512 C1513 1.387 . S
C1512 H1516 0.950 . S
C1512 C1521 1.390 . S
C1513 C1512 1.387 . S
C1513 C1515 1.387 . S
H1514 C1521 0.950 . S
C1515 C1513 1.387 . S
C1515 C1517 1.390 . S
C1515 H1519 0.950 . S
H1516 C1512 0.950 . S
C1517 C1515 1.390 . S
C1517 C1518 1.387 . S
C1517 H1520 0.950 . S
C1518 C1517 1.387 . S
C1518 C1521 1.387 . S
H1519 C1515 0.950 . S
H1520 C1517 0.950 . S
C1521 C1512 1.390 . S
C1521 H1514 0.950 . S
C1521 C1518 1.387 . S
C1522 C1523 1.387 . S
C1522 H1526 0.950 . S
C1522 C1531 1.390 . S
C1523 C1522 1.387 . S
C1523 C1525 1.387 . S
H1524 C1531 0.950 . S
C1525 C1523 1.387 . S
C1525 C1527 1.390 . S
C1525 H1529 0.950 . S
H1526 C1522 0.950 . S
C1527 C1525 1.390 . S
C1527 C1528 1.387 . S
C1527 H1530 0.950 . S
C1528 C1527 1.387 . S
C1528 C1531 1.387 . S
H1529 C1525 0.950 . S
H1530 C1527 0.950 . S
C1531 C1522 1.390 . S
C1531 H1524 0.950 . S
C1531 C1528 1.387 . S
C1532 C1533 1.387 . S
C1532 H1536 0.950 . S
C1532 C1541 1.390 . S
C1533 C1532 1.387 . S
C1533 C1535 1.387 . S
H1534 C1541 0.950 . S
C1535 C1533 1.387 . S
C1535 C1537 1.390 . S
C1535 H1539 0.950 . S
H1536 C1532 0.950 . S
C1537 C1535 1.390 . S
C1537 C1538 1.387 . S
C1537 H1540 0.950 . S
C1538 C1537 1.387 . S
C1538 C1541 1.387 . S
H1539 C1535 0.950 . S
H1540 C1537 0.950 . S
C1541 C1532 1.390 . S
C1541 H1534 0.950 . S
C1541 C1538 1.387 . S
C1542 C1543 1.387 . S
C1542 H1546 0.950 . S
C1542 C1551 1.390 . S
C1543 C1542 1.387 . S
C1543 C1545 1.387 . S
H1544 C1551 0.950 . S
C1545 C1543 1.387 . S
C1545 C1547 1.390 . S
C1545 H1549 0.950 . S
H1546 C1542 0.950 . S
C1547 C1545 1.390 . S
C1547 C1548 1.387 . S
C1547 H1550 0.950 . S
C1548 C1547 1.387 . S
C1548 C1551 1.387 . S
H1549 C1545 0.950 . S
H1550 C1547 0.950 . S
C1551 C1542 1.390 . S
C1551 H1544 0.950 . S
C1551 C1548 1.387 . S
C1552 C1553 1.387 . S
C1552 H1556 0.950 . S
C1552 C1561 1.390 . S
C1553 C1552 1.387 . S
C1553 C1555 1.387 . S
H1554 C1561 0.950 . S
C1555 C1553 1.387 . S
C1555 C1557 1.390 . S
C1555 H1559 0.950 . S
H1556 C1552 0.950 . S
C1557 C1555 1.390 . S
C1557 C1558 1.387 . S
C1557 H1560 0.950 . S
C1558 C1557 1.387 . S
C1558 C1561 1.387 . S
H1559 C1555 0.950 . S
H1560 C1557 0.950 . S
C1561 C1552 1.390 . S
C1561 H1554 0.950 . S
C1561 C1558 1.387 . S
C1562 C1563 1.387 . S
C1562 H1566 0.950 . S
C1562 C1571 1.390 . S
C1563 C1562 1.387 . S
C1563 C1565 1.387 . S
H1564 C1571 0.950 . S
C1565 C1563 1.387 . S
C1565 C1567 1.390 . S
C1565 H1569 0.950 . S
H1566 C1562 0.950 . S
C1567 C1565 1.390 . S
C1567 C1568 1.387 . S
C1567 H1570 0.950 . S
C1568 C1567 1.387 . S
C1568 C1571 1.387 . S
H1569 C1565 0.950 . S
H1570 C1567 0.950 . S
C1571 C1562 1.390 . S
C1571 H1564 0.950 . S
C1571 C1568 1.387 . S
C1572 C1573 1.387 . S
C1572 H1576 0.950 . S
C1572 C1581 1.390 . S
C1573 C1572 1.387 . S
C1573 C1575 1.387 . S
H1574 C1581 0.950 . S
C1575 C1573 1.387 . S
C1575 C1577 1.390 . S
C1575 H1579 0.950 . S
H1576 C1572 0.950 . S
C1577 C1575 1.390 . S
C1577 C1578 1.387 . S
C1577 H1580 0.950 . S
C1578 C1577 1.387 . S
C1578 C1581 1.387 . S
H1579 C1575 0.950 . S
H1580 C1577 0.950 . S
C1581 C1572 1.390 . S
C1581 H1574 0.950 . S
C1581 C1578 1.387 . S
C1582 C1583 1.387 . S
C1582 H1586 0.950 . S
C1582 C1591 1.390 . S
C1583 C1582 1.387 . S
C1583 C1585 1.387 . S
H1584 C1591 0.950 . S
C1585 C1583 1.387 . S
C1585 C1587 1.390 . S
C1585 H1589 0.950 . S
H1586 C1582 0.950 . S
C1587 C1585 1.390 . S
C1587 C1588 1.387 . S
C1587 H1590 0.950 . S
C1588 C1587 1.387 . S
C1588 C1591 1.387 . S
H1589 C1585 0.950 . S
H1590 C1587 0.950 . S
C1591 C1582 1.390 . S
C1591 H1584 0.950 . S
C1591 C1588 1.387 . S
C1592 C1593 1.387 . S
C1592 H1596 0.950 . S
C1592 C1601 1.390 . S
C1593 C1592 1.387 . S
C1593 C1595 1.387 . S
H1594 C1601 0.950 . S
C1595 C1593 1.387 . S
C1595 C1597 1.390 . S
C1595 H1599 0.950 . S
H1596 C1592 0.950 . S
C1597 C1595 1.390 . S
C1597 C1598 1.387 . S
C1597 H1600 0.950 . S
C1598 C1597 1.387 . S
C1598 C1601 1.387 . S
H1599 C1595 0.950 . S
H1600 C1597 0.950 . S
C1601 C1592 1.390 . S
C1601 H1594 0.950 . S
C1601 C1598 1.387 . S
C1602 C1603 1.387 . S
C1602 H1606 0.950 . S
C1602 C1611 1.390 . S
C1603 C1602 1.387 . S
C1603 C1605 1.387 . S
H1604 C1611 0.950 . S
C1605 C1603 1.387 . S
C1605 C1607 1.390 . S
C1605 H1609 0.950 . S
H1606 C1602 0.950 . S
C1607 C1605 1.390 . S
C1607 C1608 1.387 . S
C1607 H1610 0.950 . S
C1608 C1607 1.387 . S
C1608 C1611 1.387 . S
H1609 C1605 0.950 . S
H1610 C1607 0.950 . S
C1611 C1602 1.390 . S
C1611 H1604 0.950 . S
C1611 C1608 1.387 . S
C1612 C1613 1.387 . S
C1612 H1616 0.950 . S
C1612 C1621 1.390 1_545 S
C1613 C1612 1.387 . S
C1613 C1615 1.387 . S
H1614 C1621 0.950 . S
C1615 C1613 1.387 . S
C1615 C1617 1.390 1_545 S
C1615 H1619 0.950 . S
H1616 C1612 0.950 . S
C1617 C1615 1.390 1_565 S
C1617 C1618 1.387 . S
C1617 H1620 0.950 . S
C1618 C1617 1.387 . S
C1618 C1621 1.387 . S
H1619 C1615 0.950 . S
H1620 C1617 0.950 . S
C1621 C1612 1.390 1_565 S
C1621 H1614 0.950 . S
C1621 C1618 1.387 . S
C1622 C1623 1.387 . S
C1622 H1626 0.950 . S
C1622 C1631 1.390 . S
C1623 C1622 1.387 . S
C1623 C1625 1.387 . S
H1624 C1631 0.950 . S
C1625 C1623 1.387 . S
C1625 C1627 1.390 . S
C1625 H1629 0.950 . S
H1626 C1622 0.950 . S
C1627 C1625 1.390 . S
C1627 C1628 1.388 1_565 S
C1627 H1630 0.950 1_565 S
C1628 C1627 1.388 1_545 S
C1628 C1631 1.389 1_545 S
H1629 C1625 0.950 . S
H1630 C1627 0.950 1_545 S
C1631 C1622 1.390 . S
C1631 H1624 0.950 . S
C1631 C1628 1.389 1_565 S
C1632 C1633 1.387 . S
C1632 H1636 0.950 . S
C1632 C1641 1.390 . S
C1633 C1632 1.387 . S
C1633 C1635 1.387 . S
H1634 C1641 0.950 . S
C1635 C1633 1.387 . S
C1635 C1637 1.390 . S
C1635 H1639 0.950 . S
H1636 C1632 0.950 . S
C1637 C1635 1.390 . S
C1637 C1638 1.387 . S
C1637 H1640 0.950 . S
C1638 C1637 1.387 . S
C1638 C1641 1.387 . S
H1639 C1635 0.950 . S
H1640 C1637 0.950 . S
C1641 C1632 1.390 . S
C1641 H1634 0.950 . S
C1641 C1638 1.387 . S
C1642 C1643 1.402 . S
C1642 H1646 0.936 1_554 S
C1642 C1651 1.390 . S
C1643 C1642 1.402 . S
C1643 C1645 1.387 . S
H1644 C1651 0.950 1_556 S
C1645 C1643 1.387 . S
C1645 C1647 1.390 . S
C1645 H1649 0.950 . S
H1646 C1642 0.936 1_556 S
C1647 C1645 1.390 . S
C1647 C1648 1.387 . S
C1647 H1650 0.950 . S
C1648 C1647 1.387 . S
C1648 C1651 1.387 . S
H1649 C1645 0.950 . S
H1650 C1647 0.950 . S
C1651 C1642 1.390 . S
C1651 H1644 0.950 1_554 S
C1651 C1648 1.387 . S
C1652 C1653 1.387 . S
C1652 H1656 0.950 . S
C1652 C1661 1.390 . S
C1653 C1652 1.387 . S
C1653 C1655 1.387 . S
H1654 C1661 0.950 . S
C1655 C1653 1.387 . S
C1655 C1657 1.390 . S
C1655 H1659 0.950 . S
H1656 C1652 0.950 . S
C1657 C1655 1.390 . S
C1657 C1658 1.387 . S
C1657 H1660 0.950 . S
C1658 C1657 1.387 . S
C1658 C1661 1.387 . S
H1659 C1655 0.950 . S
H1660 C1657 0.950 . S
C1661 C1652 1.390 . S
C1661 H1654 0.950 . S
C1661 C1658 1.387 . S
C1662 C1663 1.387 . S
C1662 H1666 0.950 . S
C1662 C1671 1.390 . S
C1663 C1662 1.387 . S
C1663 C1665 1.387 . S
H1664 C1671 0.950 . S
C1665 C1663 1.387 . S
C1665 C1667 1.390 1_545 S
C1665 H1669 0.952 . S
H1666 C1662 0.950 . S
C1667 C1665 1.390 1_565 S
C1667 C1668 1.387 . S
C1667 H1670 0.950 . S
C1668 C1667 1.387 . S
C1668 C1671 1.387 1_565 S
H1669 C1665 0.952 . S
H1670 C1667 0.950 . S
C1671 C1662 1.390 . S
C1671 H1664 0.950 . S
C1671 C1668 1.387 1_545 S
C1672 C1673 1.387 . S
C1672 H1676 0.950 . S
C1672 C1681 1.390 . S
C1673 C1672 1.387 . S
C1673 C1675 1.387 . S
H1674 C1681 0.950 . S
C1675 C1673 1.387 . S
C1675 C1677 1.390 . S
C1675 H1679 0.950 . S
H1676 C1672 0.950 . S
C1677 C1675 1.390 . S
C1677 C1678 1.387 . S
C1677 H1680 0.950 . S
C1678 C1677 1.387 . S
C1678 C1681 1.387 . S
H1679 C1675 0.950 . S
H1680 C1677 0.950 . S
C1681 C1672 1.390 . S
C1681 H1674 0.950 . S
C1681 C1678 1.387 . S
C1682 C1683 1.387 . S
C1682 H1686 0.950 . S
C1682 C1691 1.390 . S
C1683 C1682 1.387 . S
C1683 C1685 1.387 . S
H1684 C1691 0.950 . S
C1685 C1683 1.387 . S
C1685 C1687 1.390 . S
C1685 H1689 0.950 . S
H1686 C1682 0.950 . S
C1687 C1685 1.390 . S
C1687 C1688 1.387 . S
C1687 H1690 0.950 . S
C1688 C1687 1.387 . S
C1688 C1691 1.387 . S
H1689 C1685 0.950 . S
H1690 C1687 0.950 . S
C1691 C1682 1.390 . S
C1691 H1684 0.950 . S
C1691 C1688 1.387 . S
C1692 C1693 1.387 . S
C1692 H1696 0.950 . S
C1692 C1701 1.390 . S
C1693 C1692 1.387 . S
C1693 C1695 1.387 . S
H1694 C1701 0.950 . S
C1695 C1693 1.387 . S
C1695 C1697 1.390 . S
C1695 H1699 0.950 . S
H1696 C1692 0.950 . S
C1697 C1695 1.390 . S
C1697 C1698 1.387 . S
C1697 H1700 0.950 . S
C1698 C1697 1.387 . S
C1698 C1701 1.387 . S
H1699 C1695 0.950 . S
H1700 C1697 0.950 . S
C1701 C1692 1.390 . S
C1701 H1694 0.950 . S
C1701 C1698 1.387 . S
C1702 C1703 1.387 . S
C1702 H1706 0.950 . S
C1702 C1711 1.390 . S
C1703 C1702 1.387 . S
C1703 C1705 1.387 . S
H1704 C1711 0.950 . S
C1705 C1703 1.387 . S
C1705 C1707 1.390 . S
C1705 H1709 0.950 . S
H1706 C1702 0.950 . S
C1707 C1705 1.390 . S
C1707 C1708 1.387 . S
C1707 H1710 0.950 . S
C1708 C1707 1.387 . S
C1708 C1711 1.387 . S
H1709 C1705 0.950 . S
H1710 C1707 0.950 . S
C1711 C1702 1.390 . S
C1711 H1704 0.950 . S
C1711 C1708 1.387 . S
C1712 C1713 1.387 . S
C1712 H1716 0.950 . S
C1712 C1721 1.390 . S
C1713 C1712 1.387 . S
C1713 C1715 1.387 . S
H1714 C1721 0.950 . S
C1715 C1713 1.387 . S
C1715 C1717 1.390 . S
C1715 H1719 0.950 . S
H1716 C1712 0.950 . S
C1717 C1715 1.390 . S
C1717 C1718 1.387 . S
C1717 H1720 0.950 . S
C1718 C1717 1.387 . S
C1718 C1721 1.387 . S
H1719 C1715 0.950 . S
H1720 C1717 0.950 . S
C1721 C1712 1.390 . S
C1721 H1714 0.950 . S
C1721 C1718 1.387 . S
C1722 C1723 1.387 . S
C1722 H1726 0.950 . S
C1722 C1731 1.390 . S
C1723 C1722 1.387 . S
C1723 C1725 1.387 . S
H1724 C1731 0.950 . S
C1725 C1723 1.387 . S
C1725 C1727 1.390 . S
C1725 H1729 0.950 . S
H1726 C1722 0.950 . S
C1727 C1725 1.390 . S
C1727 C1728 1.387 . S
C1727 H1730 0.950 . S
C1728 C1727 1.387 . S
C1728 C1731 1.387 . S
H1729 C1725 0.950 . S
H1730 C1727 0.950 . S
C1731 C1722 1.390 . S
C1731 H1724 0.950 . S
C1731 C1728 1.387 . S
C1732 C1733 1.387 . S
C1732 H1736 0.950 . S
C1732 C1741 1.390 . S
C1733 C1732 1.387 . S
C1733 C1735 1.387 . S
H1734 C1741 0.950 . S
C1735 C1733 1.387 . S
C1735 C1737 1.390 . S
C1735 H1739 0.950 . S
H1736 C1732 0.950 . S
C1737 C1735 1.390 . S
C1737 C1738 1.387 . S
C1737 H1740 0.950 . S
C1738 C1737 1.387 . S
C1738 C1741 1.387 . S
H1739 C1735 0.950 . S
H1740 C1737 0.950 . S
C1741 C1732 1.390 . S
C1741 H1734 0.950 . S
C1741 C1738 1.387 . S
C1742 C1743 1.387 . S
C1742 H1746 0.950 . S
C1742 C1751 1.390 . S
C1743 C1742 1.387 . S
C1743 C1745 1.387 . S
H1744 C1751 0.950 . S
C1745 C1743 1.387 . S
C1745 C1747 1.390 . S
C1745 H1749 0.950 . S
H1746 C1742 0.950 . S
C1747 C1745 1.390 . S
C1747 C1748 1.387 . S
C1747 H1750 0.950 . S
C1748 C1747 1.387 . S
C1748 C1751 1.387 . S
H1749 C1745 0.950 . S
H1750 C1747 0.950 . S
C1751 C1742 1.390 . S
C1751 H1744 0.950 . S
C1751 C1748 1.387 . S
C1752 C1753 1.387 . S
C1752 H1756 0.950 . S
C1752 C1761 1.390 . S
C1753 C1752 1.387 . S
C1753 C1755 1.387 . S
H1754 C1761 0.950 . S
C1755 C1753 1.387 . S
C1755 C1757 1.390 . S
C1755 H1759 0.950 . S
H1756 C1752 0.950 . S
C1757 C1755 1.390 . S
C1757 C1758 1.387 . S
C1757 H1760 0.950 . S
C1758 C1757 1.387 . S
C1758 C1761 1.387 . S
H1759 C1755 0.950 . S
H1760 C1757 0.950 . S
C1761 C1752 1.390 . S
C1761 H1754 0.950 . S
C1761 C1758 1.387 . S
C1762 C1763 1.387 . S
C1762 H1766 0.950 . S
C1762 C1771 1.390 . S
C1763 C1762 1.387 . S
C1763 C1765 1.387 . S
H1764 C1771 0.950 . S
C1765 C1763 1.387 . S
C1765 C1767 1.390 . S
C1765 H1769 0.950 . S
H1766 C1762 0.950 . S
C1767 C1765 1.390 . S
C1767 C1768 1.387 . S
C1767 H1770 0.950 . S
C1768 C1767 1.387 . S
C1768 C1771 1.387 . S
H1769 C1765 0.950 . S
H1770 C1767 0.950 . S
C1771 C1762 1.390 . S
C1771 H1764 0.950 . S
C1771 C1768 1.387 . S
C1772 C1773 1.387 . S
C1772 H1776 0.950 . S
C1772 C1781 1.390 . S
C1773 C1772 1.387 . S
C1773 C1775 1.387 . S
H1774 C1781 0.950 . S
C1775 C1773 1.387 . S
C1775 C1777 1.390 . S
C1775 H1779 0.950 . S
H1776 C1772 0.950 . S
C1777 C1775 1.390 . S
C1777 C1778 1.387 . S
C1777 H1780 0.950 . S
C1778 C1777 1.387 . S
C1778 C1781 1.387 . S
H1779 C1775 0.950 . S
H1780 C1777 0.950 . S
C1781 C1772 1.390 . S
C1781 H1774 0.950 . S
C1781 C1778 1.387 . S
C1782 C1783 1.387 . S
C1782 H1786 0.950 . S
C1782 C1791 1.390 . S
C1783 C1782 1.387 . S
C1783 C1785 1.387 . S
H1784 C1791 0.950 . S
C1785 C1783 1.387 . S
C1785 C1787 1.390 . S
C1785 H1789 0.950 . S
H1786 C1782 0.950 . S
C1787 C1785 1.390 . S
C1787 C1788 1.387 . S
C1787 H1790 0.950 . S
C1788 C1787 1.387 . S
C1788 C1791 1.387 . S
H1789 C1785 0.950 . S
H1790 C1787 0.950 . S
C1791 C1782 1.390 . S
C1791 H1784 0.950 . S
C1791 C1788 1.387 . S
C1792 C1793 1.387 . S
C1792 H1796 0.950 . S
C1792 C1801 1.390 . S
C1793 C1792 1.387 . S
C1793 C1795 1.387 . S
H1794 C1801 0.950 . S
C1795 C1793 1.387 . S
C1795 C1797 1.390 . S
C1795 H1799 0.950 . S
H1796 C1792 0.950 . S
C1797 C1795 1.390 . S
C1797 C1798 1.387 . S
C1797 H1800 0.950 . S
C1798 C1797 1.387 . S
C1798 C1801 1.387 . S
H1799 C1795 0.950 . S
H1800 C1797 0.950 . S
C1801 C1792 1.390 . S
C1801 H1794 0.950 . S
C1801 C1798 1.387 . S
C1802 C1803 1.387 . S
C1802 H1806 0.950 . S
C1802 C1811 1.390 . S
C1803 C1802 1.387 . S
C1803 C1805 1.387 . S
H1804 C1811 0.950 . S
C1805 C1803 1.387 . S
C1805 C1807 1.390 . S
C1805 H1809 0.950 . S
H1806 C1802 0.950 . S
C1807 C1805 1.390 . S
C1807 C1808 1.387 . S
C1807 H1810 0.950 . S
C1808 C1807 1.387 . S
C1808 C1811 1.387 . S
H1809 C1805 0.950 . S
H1810 C1807 0.950 . S
C1811 C1802 1.390 . S
C1811 H1804 0.950 . S
C1811 C1808 1.387 . S
C1812 C1813 1.387 . S
C1812 H1816 0.950 . S
C1812 C1821 1.390 . S
C1813 C1812 1.387 . S
C1813 C1815 1.387 . S
H1814 C1821 0.950 . S
C1815 C1813 1.387 . S
C1815 C1817 1.390 . S
C1815 H1819 0.950 . S
H1816 C1812 0.950 . S
C1817 C1815 1.390 . S
C1817 C1818 1.387 . S
C1817 H1820 0.950 . S
C1818 C1817 1.387 . S
C1818 C1821 1.387 . S
H1819 C1815 0.950 . S
H1820 C1817 0.950 . S
C1821 C1812 1.390 . S
C1821 H1814 0.950 . S
C1821 C1818 1.387 . S
C1822 C1823 1.387 . S
C1822 H1826 0.950 . S
C1822 C1831 1.390 . S
C1823 C1822 1.387 . S
C1823 C1825 1.387 . S
H1824 C1831 0.950 . S
C1825 C1823 1.387 . S
C1825 C1827 1.390 . S
C1825 H1829 0.950 . S
H1826 C1822 0.950 . S
C1827 C1825 1.390 . S
C1827 C1828 1.387 . S
C1827 H1830 0.950 . S
C1828 C1827 1.387 . S
C1828 C1831 1.387 . S
H1829 C1825 0.950 . S
H1830 C1827 0.950 . S
C1831 C1822 1.390 . S
C1831 H1824 0.950 . S
C1831 C1828 1.387 . S
C1832 C1833 1.387 . S
C1832 H1836 0.950 . S
C1832 C1841 1.390 . S
C1833 C1832 1.387 . S
C1833 C1835 1.387 . S
H1834 C1841 0.950 . S
C1835 C1833 1.387 . S
C1835 C1837 1.390 . S
C1835 H1839 0.950 . S
H1836 C1832 0.950 . S
C1837 C1835 1.390 . S
C1837 C1838 1.387 . S
C1837 H1840 0.950 . S
C1838 C1837 1.387 . S
C1838 C1841 1.387 . S
H1839 C1835 0.950 . S
H1840 C1837 0.950 . S
C1841 C1832 1.390 . S
C1841 H1834 0.950 . S
C1841 C1838 1.387 . S
C1842 C1843 1.387 . S
C1842 H1846 0.950 . S
C1842 C1851 1.390 . S
C1843 C1842 1.387 . S
C1843 C1845 1.387 1_565 S
H1844 C1851 0.950 . S
C1845 C1843 1.387 1_545 S
C1845 C1847 1.390 . S
C1845 H1849 0.950 . S
H1846 C1842 0.950 . S
C1847 C1845 1.390 . S
C1847 C1848 1.387 . S
C1847 H1850 0.950 . S
C1848 C1847 1.387 . S
C1848 C1851 1.387 1_545 S
H1849 C1845 0.950 . S
H1850 C1847 0.950 . S
C1851 C1842 1.390 . S
C1851 H1844 0.950 . S
C1851 C1848 1.387 1_565 S
C1852 C1853 1.387 . S
C1852 H1856 0.950 . S
C1852 C1861 1.390 . S
C1853 C1852 1.387 . S
C1853 C1855 1.387 . S
H1854 C1861 0.950 . S
C1855 C1853 1.387 . S
C1855 C1857 1.390 . S
C1855 H1859 0.950 . S
H1856 C1852 0.950 . S
C1857 C1855 1.390 . S
C1857 C1858 1.387 . S
C1857 H1860 0.950 . S
C1858 C1857 1.387 . S
C1858 C1861 1.387 . S
H1859 C1855 0.950 . S
H1860 C1857 0.950 . S
C1861 C1852 1.390 . S
C1861 H1854 0.950 . S
C1861 C1858 1.387 . S
C1862 C1863 1.387 . S
C1862 H1866 0.950 . S
C1862 C1871 1.390 . S
C1863 C1862 1.387 . S
C1863 C1865 1.387 1_556 S
H1864 C1871 0.950 . S
C1865 C1863 1.387 1_554 S
C1865 C1867 1.390 . S
C1865 H1869 0.950 . S
H1866 C1862 0.950 . S
C1867 C1865 1.390 . S
C1867 C1868 1.387 . S
C1867 H1870 0.950 . S
C1868 C1867 1.387 . S
C1868 C1871 1.387 1_554 S
H1869 C1865 0.950 . S
H1870 C1867 0.950 . S
C1871 C1862 1.390 . S
C1871 H1864 0.950 . S
C1871 C1868 1.387 1_556 S
C1872 C1873 1.387 . S
C1872 H1876 0.950 . S
C1872 C1881 1.390 . S
C1873 C1872 1.387 . S
C1873 C1875 1.387 . S
H1874 C1881 0.950 . S
C1875 C1873 1.387 . S
C1875 C1877 1.390 . S
C1875 H1879 0.950 . S
H1876 C1872 0.950 . S
C1877 C1875 1.390 . S
C1877 C1878 1.387 . S
C1877 H1880 0.950 . S
C1878 C1877 1.387 . S
C1878 C1881 1.387 . S
H1879 C1875 0.950 . S
H1880 C1877 0.950 . S
C1881 C1872 1.390 . S
C1881 H1874 0.950 . S
C1881 C1878 1.387 . S
C1882 C1883 1.387 . S
C1882 H1886 0.950 . S
C1882 C1891 1.390 . S
C1883 C1882 1.387 . S
C1883 C1885 1.387 1_554 S
H1884 C1891 0.950 . S
C1885 C1883 1.387 1_556 S
C1885 C1887 1.390 . S
C1885 H1889 0.950 . S
H1886 C1882 0.950 . S
C1887 C1885 1.390 . S
C1887 C1888 1.387 1_556 S
C1887 H1890 0.950 . S
C1888 C1887 1.387 1_554 S
C1888 C1891 1.387 . S
H1889 C1885 0.950 . S
H1890 C1887 0.950 . S
C1891 C1882 1.390 . S
C1891 H1884 0.950 . S
C1891 C1888 1.387 . S
C1892 C1893 1.387 . S
C1892 H1896 0.950 . S
C1892 C1901 1.390 . S
C1893 C1892 1.387 . S
C1893 C1895 1.387 . S
H1894 C1901 0.950 . S
C1895 C1893 1.387 . S
C1895 C1897 1.390 . S
C1895 H1899 0.950 . S
H1896 C1892 0.950 . S
C1897 C1895 1.390 . S
C1897 C1898 1.387 . S
C1897 H1900 0.950 . S
C1898 C1897 1.387 . S
C1898 C1901 1.387 . S
H1899 C1895 0.950 . S
H1900 C1897 0.950 . S
C1901 C1892 1.390 . S
C1901 H1894 0.950 . S
C1901 C1898 1.387 . S
C1902 C1903 1.387 . S
C1902 H1906 0.950 . S
C1902 C1911 1.390 . S
C1903 C1902 1.387 . S
C1903 C1905 1.387 . S
H1904 C1911 0.950 . S
C1905 C1903 1.387 . S
C1905 C1907 1.390 . S
C1905 H1909 0.950 . S
H1906 C1902 0.950 . S
C1907 C1905 1.390 . S
C1907 C1908 1.387 . S
C1907 H1910 0.950 . S
C1908 C1907 1.387 . S
C1908 C1911 1.387 . S
H1909 C1905 0.950 . S
H1910 C1907 0.950 . S
C1911 C1902 1.390 . S
C1911 H1904 0.950 . S
C1911 C1908 1.387 . S
C953 C101 1.812 1_455 S
C958 C334 1.827 1_556 S
C963 C57 1.365 . S
C968 C354 1.453 . S
C973 C73 0.990 . S
C978 C401 1.001 . S
C988 C458 1.240 . S
C983 C78 1.121 . S
C993 C21 2.662 . S
C998 C475 2.701 1_565 S
C1008 C534 1.957 . S
C1003 C31 1.918 . S
C1018 C567 2.759 . S
C1013 C49 2.766 . S
C1023 C0 2.435 . S
C1028 C614 2.471 . S
C1038 C327 1.772 . S
C1033 C218 1.682 . S
C1043 C229 1.653 . S
C1048 C355 1.676 . S
C1058 C394 0.789 . S
C1053 C257 0.790 . S
C1068 C454 2.286 . S
C1063 C164 2.153 . S
C1073 C216 0.674 . S
C1078 C481 0.693 . S
C1088 C527 2.291 . S
C1083 C231 2.313 . S
C1098 C578 1.039 . S
C1093 C255 0.873 . S
C1108 C607 2.341 . S
C1103 C166 2.332 . S
C1118 C338 2.000 1_565 S
C1113 C143 2.005 . S
C1123 C265 2.144 . S
C1128 C634 2.184 . S
C1138 C698 1.610 . S
C1133 C299 1.399 . S
C1148 C734 1.563 . S
C1143 C291 1.581 . S
C1153 C104 1.678 . S
C1158 C618 1.796 . S
C1163 C117 2.557 . S
C1168 C395 2.603 . S
C1173 C304 1.445 . S
C1178 C767 1.599 . S
C1188 C801 0.656 . S
C1183 C278 0.657 . S
C1198 C315 1.952 . S
C1193 C60 2.059 . S
C1208 C807 1.571 . S
C1203 C96 1.597 . S
C1213 C88 0.902 . S
C1218 C418 0.889 . S
C1223 C65 1.363 . S
C1228 C761 1.257 . S
C1238 C494 2.572 . S
C1233 C10 2.600 . S
C1243 C44 1.894 . S
C1248 C675 1.956 . S
C1258 C554 2.658 1_556 S
C1253 C34 2.571 . S
C1268 C835 2.504 . S
C1263 C13 2.526 . S
C1278 C314 1.772 . S
C1273 C138 1.784 . S
C1288 C814 1.512 . S
C1283 C296 1.525 . S
C1293 C112 0.755 . S
C1298 C407 0.697 . S
C1303 C270 2.194 . S
C1308 C755 2.212 . S
C1313 C140 0.659 . S
C1318 C498 0.668 . S
C1328 C674 2.212 . S
C1323 C294 2.171 . S
C1333 C114 1.030 . S
C1338 C561 0.977 . S
C1343 C268 2.249 . S
C1348 C834 2.290 . S
C1353 C169 2.259 1_556 S
C1358 C321 2.056 . S
C1363 C161 2.119 . S
C1368 C647 2.119 . S
C1373 C234 1.659 . S
C1378 C521 1.575 . S
C1383 C226 1.561 . S
C1388 C715 1.553 . S
C1398 C841 1.841 . S
C1393 C247 1.999 . S
C1403 C195 2.491 . S
C1408 C414 2.524 . S
C1418 C434 1.498 . S
C1413 C239 1.454 . S
C1428 C378 0.646 . S
C1423 C187 0.596 . S
C1433 C75 1.942 . S
C1438 C894 1.973 . S
C1448 C794 1.456 . S
C1443 C83 1.374 . S
C1453 C99 0.909 . S
C1458 C921 0.930 . S
C1463 C52 1.167 . S
C1468 C778 1.289 . S
C1473 C47 2.648 . S
C1478 C635 2.689 . S
C1488 C694 1.996 . S
C1483 C5 1.954 . S
C1498 C727 2.767 . S
C1493 C23 2.776 . S
C1508 C854 2.404 . S
C1503 C26 2.370 . S
C1518 C887 1.718 . S
C1513 C244 1.633 . S
C1523 C177 1.637 . S
C1528 C795 1.664 . S
C1538 C914 0.798 . S
C1533 C192 0.805 . S
C1548 C774 2.278 . S
C1543 C203 2.150 . S
C1558 C641 0.688 . S
C1553 C242 0.666 . S
C1563 C179 2.354 . S
C1568 C687 2.330 . S
C1578 C738 1.019 . S
C1573 C190 0.859 . S
C1583 C205 2.309 . S
C1588 C847 2.318 . S
C1598 C898 2.019 . S
C1593 C286 2.029 . S
C1603 C122 2.178 . S
C1608 C474 2.214 . S
C1618 C538 1.557 . S
C1613 C130 1.352 . S
C1628 C574 1.548 . S
C1623 C148 1.578 . S
C1638 C858 1.553 . S
C1633 C273 1.438 . S
C1643 C260 2.582 . S
C1648 C915 2.626 1_655 S
C1658 C447 1.620 . S
C1653 C135 1.475 . S
C1668 C361 0.667 . S
C1663 C109 0.665 . S
C1673 C86 2.094 . S
C1678 C875 1.993 . S
C1688 C367 1.364 . S
C1683 C70 1.390 . S
C1693 C62 0.882 . S
C1698 C938 0.872 . S
C1703 C91 1.240 . S
C1708 C441 1.128 . S
C1713 C36 2.592 . S
C1718 C654 2.565 1_556 S
C1728 C515 1.984 . S
C1723 C18 1.921 . S
C1733 C8 2.605 . S
C1738 C714 2.692 . S
C1743 C39 2.495 . S
C1748 C595 2.455 . S
C1758 C874 1.819 . S
C1753 C307 1.830 . S
C1763 C153 1.517 . S
C1768 C374 1.504 . S
C1778 C927 0.583 . S
C1773 C281 0.691 . S
C1783 C127 2.216 . S
C1788 C435 2.231 . S
C1793 C309 0.639 . S
C1798 C658 0.652 . S
C1808 C514 2.250 . S
C1803 C151 2.210 1_556 S
C1813 C283 0.952 . S
C1818 C721 0.909 . S
C1828 C594 2.286 . S
C1823 C125 2.259 . S
C1838 C881 2.132 . S
C1833 C221 2.358 . S
C1848 C487 2.172 . S
C1843 C200 2.171 . S
C1853 C208 1.610 . S
C1858 C681 1.535 . S
C1868 C555 1.508 . S
C1863 C174 1.514 . S
C1873 C182 1.993 . S
C1878 C601 1.833 . S
C1883 C156 2.529 . S
C1888 C934 2.557 . S
C1898 C754 1.517 . S
C1893 C213 1.476 . S
C1908 C818 0.673 . S
C1903 C252 0.637 . S
