# Generated by pormake.
# Topology iac, (4,6)-cn, num edge types: 1
# Building blocks:
#     Node 0, Type 0, BuildingBlock: QUQFOY_clean_sbu_1, # of connection points: 4
#     Node 1, Type 0, BuildingBlock: QUQFOY_clean_sbu_1, # of connection points: 4
#     Node 2, Type 0, BuildingBlock: QUQFOY_clean_sbu_1, # of connection points: 4
#     Node 3, Type 0, BuildingBlock: QUQFOY_clean_sbu_1, # of connection points: 4
#     Node 4, Type 0, BuildingBlock: QUQFOY_clean_sbu_1, # of connection points: 4
#     Node 5, Type 0, BuildingBlock: QUQFOY_clean_sbu_1, # of connection points: 4
#     Node 6, Type 0, BuildingBlock: QUQFOY_clean_sbu_1, # of connection points: 4
#     Node 7, Type 0, BuildingBlock: QUQFOY_clean_sbu_1, # of connection points: 4
#     Node 8, Type 0, BuildingBlock: QUQFOY_clean_sbu_1, # of connection points: 4
#     Node 9, Type 0, BuildingBlock: QUQFOY_clean_sbu_1, # of connection points: 4
#     Node 10, Type 0, BuildingBlock: QUQFOY_clean_sbu_1, # of connection points: 4
#     Node 11, Type 0, BuildingBlock: QUQFOY_clean_sbu_1, # of connection points: 4
#     Node 12, Type 0, BuildingBlock: QUQFOY_clean_sbu_1, # of connection points: 4
#     Node 13, Type 0, BuildingBlock: QUQFOY_clean_sbu_1, # of connection points: 4
#     Node 14, Type 0, BuildingBlock: QUQFOY_clean_sbu_1, # of connection points: 4
#     Node 15, Type 0, BuildingBlock: QUQFOY_clean_sbu_1, # of connection points: 4
#     Node 16, Type 0, BuildingBlock: QUQFOY_clean_sbu_1, # of connection points: 4
#     Node 17, Type 0, BuildingBlock: QUQFOY_clean_sbu_1, # of connection points: 4
#     Node 18, Type 0, BuildingBlock: QUQFOY_clean_sbu_1, # of connection points: 4
#     Node 19, Type 0, BuildingBlock: QUQFOY_clean_sbu_1, # of connection points: 4
#     Node 20, Type 0, BuildingBlock: QUQFOY_clean_sbu_1, # of connection points: 4
#     Node 21, Type 0, BuildingBlock: QUQFOY_clean_sbu_1, # of connection points: 4
#     Node 22, Type 0, BuildingBlock: QUQFOY_clean_sbu_1, # of connection points: 4
#     Node 23, Type 0, BuildingBlock: QUQFOY_clean_sbu_1, # of connection points: 4
#     Node 24, Type 1, BuildingBlock: VOLQOD_clean_sbu_1, # of connection points: 6
#     Node 25, Type 1, BuildingBlock: VOLQOD_clean_sbu_1, # of connection points: 6
#     Node 26, Type 1, BuildingBlock: VOLQOD_clean_sbu_1, # of connection points: 6
#     Node 27, Type 1, BuildingBlock: VOLQOD_clean_sbu_1, # of connection points: 6
#     Node 28, Type 1, BuildingBlock: VOLQOD_clean_sbu_1, # of connection points: 6
#     Node 29, Type 1, BuildingBlock: VOLQOD_clean_sbu_1, # of connection points: 6
#     Node 30, Type 1, BuildingBlock: VOLQOD_clean_sbu_1, # of connection points: 6
#     Node 31, Type 1, BuildingBlock: VOLQOD_clean_sbu_1, # of connection points: 6
#     Node 32, Type 1, BuildingBlock: VOLQOD_clean_sbu_1, # of connection points: 6
#     Node 33, Type 1, BuildingBlock: VOLQOD_clean_sbu_1, # of connection points: 6
#     Node 34, Type 1, BuildingBlock: VOLQOD_clean_sbu_1, # of connection points: 6
#     Node 35, Type 1, BuildingBlock: VOLQOD_clean_sbu_1, # of connection points: 6
#     Node 36, Type 1, BuildingBlock: VOLQOD_clean_sbu_1, # of connection points: 6
#     Node 37, Type 1, BuildingBlock: VOLQOD_clean_sbu_1, # of connection points: 6
#     Node 38, Type 1, BuildingBlock: VOLQOD_clean_sbu_1, # of connection points: 6
#     Node 39, Type 1, BuildingBlock: VOLQOD_clean_sbu_1, # of connection points: 6
#     Edge 40, Type (0, 1), BuildingBlock: OJICUG_clean_linker_0, # of connection points: 2
#     Edge 41, Type (0, 1), BuildingBlock: OJICUG_clean_linker_0, # of connection points: 2
#     Edge 42, Type (0, 1), BuildingBlock: OJICUG_clean_linker_0, # of connection points: 2
#     Edge 43, Type (0, 1), BuildingBlock: OJICUG_clean_linker_0, # of connection points: 2
#     Edge 44, Type (0, 1), BuildingBlock: OJICUG_clean_linker_0, # of connection points: 2
#     Edge 45, Type (0, 1), BuildingBlock: OJICUG_clean_linker_0, # of connection points: 2
#     Edge 46, Type (0, 1), BuildingBlock: OJICUG_clean_linker_0, # of connection points: 2
#     Edge 47, Type (0, 1), BuildingBlock: OJICUG_clean_linker_0, # of connection points: 2
#     Edge 48, Type (0, 1), BuildingBlock: OJICUG_clean_linker_0, # of connection points: 2
#     Edge 49, Type (0, 1), BuildingBlock: OJICUG_clean_linker_0, # of connection points: 2
#     Edge 50, Type (0, 1), BuildingBlock: OJICUG_clean_linker_0, # of connection points: 2
#     Edge 51, Type (0, 1), BuildingBlock: OJICUG_clean_linker_0, # of connection points: 2
#     Edge 52, Type (0, 1), BuildingBlock: OJICUG_clean_linker_0, # of connection points: 2
#     Edge 53, Type (0, 1), BuildingBlock: OJICUG_clean_linker_0, # of connection points: 2
#     Edge 54, Type (0, 1), BuildingBlock: OJICUG_clean_linker_0, # of connection points: 2
#     Edge 55, Type (0, 1), BuildingBlock: OJICUG_clean_linker_0, # of connection points: 2
#     Edge 56, Type (0, 1), BuildingBlock: OJICUG_clean_linker_0, # of connection points: 2
#     Edge 57, Type (0, 1), BuildingBlock: OJICUG_clean_linker_0, # of connection points: 2
#     Edge 58, Type (0, 1), BuildingBlock: OJICUG_clean_linker_0, # of connection points: 2
#     Edge 59, Type (0, 1), BuildingBlock: OJICUG_clean_linker_0, # of connection points: 2
#     Edge 60, Type (0, 1), BuildingBlock: OJICUG_clean_linker_0, # of connection points: 2
#     Edge 61, Type (0, 1), BuildingBlock: OJICUG_clean_linker_0, # of connection points: 2
#     Edge 62, Type (0, 1), BuildingBlock: OJICUG_clean_linker_0, # of connection points: 2
#     Edge 63, Type (0, 1), BuildingBlock: OJICUG_clean_linker_0, # of connection points: 2
#     Edge 64, Type (0, 1), BuildingBlock: OJICUG_clean_linker_0, # of connection points: 2
#     Edge 65, Type (0, 1), BuildingBlock: OJICUG_clean_linker_0, # of connection points: 2
#     Edge 66, Type (0, 1), BuildingBlock: OJICUG_clean_linker_0, # of connection points: 2
#     Edge 67, Type (0, 1), BuildingBlock: OJICUG_clean_linker_0, # of connection points: 2
#     Edge 68, Type (0, 1), BuildingBlock: OJICUG_clean_linker_0, # of connection points: 2
#     Edge 69, Type (0, 1), BuildingBlock: OJICUG_clean_linker_0, # of connection points: 2
#     Edge 70, Type (0, 1), BuildingBlock: OJICUG_clean_linker_0, # of connection points: 2
#     Edge 71, Type (0, 1), BuildingBlock: OJICUG_clean_linker_0, # of connection points: 2
#     Edge 72, Type (0, 1), BuildingBlock: OJICUG_clean_linker_0, # of connection points: 2
#     Edge 73, Type (0, 1), BuildingBlock: OJICUG_clean_linker_0, # of connection points: 2
#     Edge 74, Type (0, 1), BuildingBlock: OJICUG_clean_linker_0, # of connection points: 2
#     Edge 75, Type (0, 1), BuildingBlock: OJICUG_clean_linker_0, # of connection points: 2
#     Edge 76, Type (0, 1), BuildingBlock: OJICUG_clean_linker_0, # of connection points: 2
#     Edge 77, Type (0, 1), BuildingBlock: OJICUG_clean_linker_0, # of connection points: 2
#     Edge 78, Type (0, 1), BuildingBlock: OJICUG_clean_linker_0, # of connection points: 2
#     Edge 79, Type (0, 1), BuildingBlock: OJICUG_clean_linker_0, # of connection points: 2
#     Edge 80, Type (0, 1), BuildingBlock: OJICUG_clean_linker_0, # of connection points: 2
#     Edge 81, Type (0, 1), BuildingBlock: OJICUG_clean_linker_0, # of connection points: 2
#     Edge 82, Type (0, 1), BuildingBlock: OJICUG_clean_linker_0, # of connection points: 2
#     Edge 83, Type (0, 1), BuildingBlock: OJICUG_clean_linker_0, # of connection points: 2
#     Edge 84, Type (0, 1), BuildingBlock: OJICUG_clean_linker_0, # of connection points: 2
#     Edge 85, Type (0, 1), BuildingBlock: OJICUG_clean_linker_0, # of connection points: 2
#     Edge 86, Type (0, 1), BuildingBlock: OJICUG_clean_linker_0, # of connection points: 2
#     Edge 87, Type (0, 1), BuildingBlock: OJICUG_clean_linker_0, # of connection points: 2
#     Edge 88, Type (0, 1), BuildingBlock: OJICUG_clean_linker_0, # of connection points: 2
#     Edge 89, Type (0, 1), BuildingBlock: OJICUG_clean_linker_0, # of connection points: 2
#     Edge 90, Type (0, 1), BuildingBlock: OJICUG_clean_linker_0, # of connection points: 2
#     Edge 91, Type (0, 1), BuildingBlock: OJICUG_clean_linker_0, # of connection points: 2
#     Edge 92, Type (0, 1), BuildingBlock: OJICUG_clean_linker_0, # of connection points: 2
#     Edge 93, Type (0, 1), BuildingBlock: OJICUG_clean_linker_0, # of connection points: 2
#     Edge 94, Type (0, 1), BuildingBlock: OJICUG_clean_linker_0, # of connection points: 2
#     Edge 95, Type (0, 1), BuildingBlock: OJICUG_clean_linker_0, # of connection points: 2
#     Edge 96, Type (0, 1), BuildingBlock: OJICUG_clean_linker_0, # of connection points: 2
#     Edge 97, Type (0, 1), BuildingBlock: OJICUG_clean_linker_0, # of connection points: 2
#     Edge 98, Type (0, 1), BuildingBlock: OJICUG_clean_linker_0, # of connection points: 2
#     Edge 99, Type (0, 1), BuildingBlock: OJICUG_clean_linker_0, # of connection points: 2
#     Edge 100, Type (0, 1), BuildingBlock: OJICUG_clean_linker_0, # of connection points: 2
#     Edge 101, Type (0, 1), BuildingBlock: OJICUG_clean_linker_0, # of connection points: 2
#     Edge 102, Type (0, 1), BuildingBlock: OJICUG_clean_linker_0, # of connection points: 2
#     Edge 103, Type (0, 1), BuildingBlock: OJICUG_clean_linker_0, # of connection points: 2
#     Edge 104, Type (0, 1), BuildingBlock: OJICUG_clean_linker_0, # of connection points: 2
#     Edge 105, Type (0, 1), BuildingBlock: OJICUG_clean_linker_0, # of connection points: 2
#     Edge 106, Type (0, 1), BuildingBlock: OJICUG_clean_linker_0, # of connection points: 2
#     Edge 107, Type (0, 1), BuildingBlock: OJICUG_clean_linker_0, # of connection points: 2
#     Edge 108, Type (0, 1), BuildingBlock: OJICUG_clean_linker_0, # of connection points: 2
#     Edge 109, Type (0, 1), BuildingBlock: OJICUG_clean_linker_0, # of connection points: 2
#     Edge 110, Type (0, 1), BuildingBlock: OJICUG_clean_linker_0, # of connection points: 2
#     Edge 111, Type (0, 1), BuildingBlock: OJICUG_clean_linker_0, # of connection points: 2
#     Edge 112, Type (0, 1), BuildingBlock: OJICUG_clean_linker_0, # of connection points: 2
#     Edge 113, Type (0, 1), BuildingBlock: OJICUG_clean_linker_0, # of connection points: 2
#     Edge 114, Type (0, 1), BuildingBlock: OJICUG_clean_linker_0, # of connection points: 2
#     Edge 115, Type (0, 1), BuildingBlock: OJICUG_clean_linker_0, # of connection points: 2
#     Edge 116, Type (0, 1), BuildingBlock: OJICUG_clean_linker_0, # of connection points: 2
#     Edge 117, Type (0, 1), BuildingBlock: OJICUG_clean_linker_0, # of connection points: 2
#     Edge 118, Type (0, 1), BuildingBlock: OJICUG_clean_linker_0, # of connection points: 2
#     Edge 119, Type (0, 1), BuildingBlock: OJICUG_clean_linker_0, # of connection points: 2
#     Edge 120, Type (0, 1), BuildingBlock: OJICUG_clean_linker_0, # of connection points: 2
#     Edge 121, Type (0, 1), BuildingBlock: OJICUG_clean_linker_0, # of connection points: 2
#     Edge 122, Type (0, 1), BuildingBlock: OJICUG_clean_linker_0, # of connection points: 2
#     Edge 123, Type (0, 1), BuildingBlock: OJICUG_clean_linker_0, # of connection points: 2
#     Edge 124, Type (0, 1), BuildingBlock: OJICUG_clean_linker_0, # of connection points: 2
#     Edge 125, Type (0, 1), BuildingBlock: OJICUG_clean_linker_0, # of connection points: 2
#     Edge 126, Type (0, 1), BuildingBlock: OJICUG_clean_linker_0, # of connection points: 2
#     Edge 127, Type (0, 1), BuildingBlock: OJICUG_clean_linker_0, # of connection points: 2
#     Edge 128, Type (0, 1), BuildingBlock: OJICUG_clean_linker_0, # of connection points: 2
#     Edge 129, Type (0, 1), BuildingBlock: OJICUG_clean_linker_0, # of connection points: 2
#     Edge 130, Type (0, 1), BuildingBlock: OJICUG_clean_linker_0, # of connection points: 2
#     Edge 131, Type (0, 1), BuildingBlock: OJICUG_clean_linker_0, # of connection points: 2
#     Edge 132, Type (0, 1), BuildingBlock: OJICUG_clean_linker_0, # of connection points: 2
#     Edge 133, Type (0, 1), BuildingBlock: OJICUG_clean_linker_0, # of connection points: 2
#     Edge 134, Type (0, 1), BuildingBlock: OJICUG_clean_linker_0, # of connection points: 2
#     Edge 135, Type (0, 1), BuildingBlock: OJICUG_clean_linker_0, # of connection points: 2
# Relax obj value: 0.339
# Max RMSD: 0.300
# Mean RMSD: 0.199
data_MOF--net-iac--node1-QUQFOY_clean_sbu_1--node2-VOLQOD_clean_sbu_1--edge1-OJICUG_clean_linker_0
_symmetry_space_group_name_H-M    P1
_symmetry_Int_Tables_number       1
_symmetry_cell_setting            triclinic
loop_
_symmetry_equiv_pos_as_xyz
'x, y, z'
_cell_length_a     42.070211
_cell_length_b     42.217806
_cell_length_c     42.431364
_cell_angle_alpha  91.438933
_cell_angle_beta   90.452917
_cell_angle_gamma 93.874838
loop_
_atom_site_label
_atom_site_type_symbol
_atom_site_fract_x
_atom_site_fract_y
_atom_site_fract_z
_atom_type_partial_charge
O0 O 0.94917 0.22021 0.11573 0.0
Cd1 Cd 0.95138 0.25284 0.15257 0.0
Cd2 Cd 0.98774 0.28896 0.10601 0.0
O3 O 0.97591 0.24808 0.08013 0.0
O4 O 0.92054 0.23341 0.18291 0.0
O5 O 0.91548 0.28041 0.16201 0.0
C6 C 0.90481 0.25837 0.18051 0.0
C7 C 0.98926 0.336 0.0786 0.0
C8 C 0.96046 0.22275 0.08818 0.0
C9 C 0.01833 0.27671 0.16944 0.0
O10 O 0.02036 0.28877 0.14233 0.0
O11 O -0.00693 0.26113 0.17783 0.0
O12 O 0.01019 0.3156 0.07387 0.0
O13 O 0.96701 0.32958 0.09872 0.0
O14 O 0.02632 0.72212 0.32754 0.0
Cd15 Cd -0.00303 0.71634 0.36735 0.0
Cd16 Cd 0.00738 0.78415 0.35554 0.0
O17 O 0.04401 0.77275 0.32914 0.0
O18 O 0.02028 0.69229 0.39918 0.0
O19 O 0.98045 0.67134 0.36921 0.0
C20 C 0.00179 0.66786 0.39069 0.0
C21 C 0.96246 0.79922 0.32997 0.0
C22 C 0.04468 0.74488 0.31749 0.0
C23 C 0.97951 0.76685 0.40968 0.0
O24 O 0.00729 0.77765 0.40301 0.0
O25 O 0.96617 0.74587 0.39112 0.0
O26 O 0.98297 0.82055 0.34179 0.0
O27 O 0.96763 0.76963 0.33282 0.0
O28 O 0.52811 0.69739 0.61595 0.0
Cd29 Cd 0.53287 0.73224 0.6503 0.0
Cd30 Cd 0.56614 0.76294 0.60385 0.0
O31 O 0.55167 0.72311 0.57715 0.0
O32 O 0.50528 0.71407 0.68378 0.0
O33 O 0.49401 0.75628 0.65676 0.0
C34 C 0.48593 0.73545 0.67754 0.0
C35 C 0.54962 0.81042 0.58639 0.0
C36 C 0.53587 0.69883 0.5872 0.0
C37 C 0.60151 0.75492 0.66372 0.0
O38 O 0.60398 0.76331 0.63522 0.0
O39 O 0.57513 0.74315 0.67395 0.0
O40 O 0.57334 0.79744 0.57345 0.0
O41 O 0.53558 0.79665 0.60987 0.0
O42 O 0.55186 0.21045 0.85979 0.0
Cd43 Cd 0.51607 0.21376 0.89227 0.0
Cd44 Cd 0.48741 0.24165 0.8381 0.0
O45 O 0.52915 0.22967 0.81791 0.0
O46 O 0.52813 0.1857 0.92628 0.0
O47 O 0.48562 0.17575 0.89542 0.0
C48 C 0.50361 0.16727 0.91813 0.0
C49 C 0.44267 0.24031 0.80646 0.0
C50 C 0.55223 0.21683 0.8307 0.0
C51 C 0.49072 0.27721 0.90215 0.0
O52 O 0.48386 0.27561 0.87299 0.0
O53 O 0.50486 0.2552 0.91494 0.0
O54 O 0.46495 0.26254 0.80416 0.0
O55 O 0.44677 0.21743 0.82542 0.0
O56 O 0.11621 0.99038 0.16829 0.0
Cd57 Cd 0.15058 -0.00376 0.20322 0.0
Cd58 Cd 0.09558 0.00498 0.2407 0.0
O59 O 0.07412 -0.00119 0.19738 0.0
O60 O 0.18746 0.97098 0.19227 0.0
O61 O 0.15538 0.96135 0.23282 0.0
C62 C 0.17984 0.95418 0.21645 0.0
C63 C 0.06209 -0.00705 0.28271 0.0
C64 C 0.08635 -0.00734 0.17091 0.0
C65 C 0.15126 0.05616 0.2402 0.0
O66 O 0.12487 0.04476 0.25069 0.0
O67 O 0.16606 0.04107 0.21932 0.0
O68 O 0.05899 0.01754 0.26605 0.0
O69 O 0.08392 0.97421 0.27509 0.0
O70 O 0.21473 0.86567 0.59545 0.0
Cd71 Cd 0.21512 0.89811 0.5598 0.0
Cd72 Cd 0.23533 0.84831 0.52469 0.0
O73 O 0.22607 0.82486 0.56521 0.0
O74 O 0.1806 0.92697 0.56758 0.0
O75 O 0.18156 0.89362 0.5262 0.0
C76 C 0.16738 0.91509 0.54195 0.0
C77 C 0.2313 0.81814 0.47837 0.0
C78 C 0.2191 0.8363 0.59196 0.0
C79 C 0.2783 0.9094 0.53236 0.0
O80 O 0.2733 0.88092 0.52247 0.0
O81 O 0.25742 0.92261 0.54859 0.0
O82 O 0.25321 0.81424 0.49888 0.0
O83 O 0.21035 0.83824 0.48495 0.0
O84 O 0.38735 0.02777 0.70284 0.0
Cd85 Cd 0.35069 0.0144 0.73339 0.0
Cd86 Cd 0.40547 0.9811 0.75043 0.0
O87 O 0.43105 0.01556 0.72752 0.0
O88 O 0.31292 0.03262 0.71428 0.0
O89 O 0.33352 0.04828 0.76083 0.0
C90 C 0.31237 0.05099 0.73896 0.0
C91 C 0.41624 0.9638 0.79991 0.0
C92 C 0.41763 0.02924 0.70529 0.0
C93 C 0.35046 0.94428 0.73479 0.0
O94 O 0.37854 0.9483 0.72452 0.0
O95 O 0.33609 0.96822 0.74396 0.0
O96 O 0.43377 0.95627 0.7764 0.0
O97 O 0.39419 0.98322 0.79548 0.0
O98 O 0.27505 0.1615 0.09492 0.0
Cd99 Cd 0.2671 0.12499 0.0618 0.0
Cd100 Cd 0.2526 0.18047 0.02594 0.0
O101 O 0.26971 0.20375 0.06597 0.0
O102 O 0.2846 0.08619 0.07979 0.0
O103 O 0.30182 0.10852 0.03578 0.0
C104 C 0.30295 0.08584 0.05561 0.0
C105 C 0.25874 0.20158 0.9763 0.0
C106 C 0.27568 0.1915 0.09221 0.0
C107 C 0.20136 0.12846 0.03402 0.0
O108 O 0.20878 0.15706 0.02734 0.0
O109 O 0.22149 0.1115 0.04668 0.0
O110 O 0.24316 0.21568 -0.00217 0.0
O111 O 0.27356 0.17699 0.98384 0.0
O112 O 0.72864 0.38611 0.06786 0.0
Cd113 Cd 0.72905 0.40746 0.02489 0.0
Cd114 Cd 0.76655 0.35447 0.0113 0.0
O115 O 0.75134 0.3419 0.05542 0.0
O116 O 0.69969 0.44168 0.03116 0.0
O117 O 0.68921 0.39972 -0.00068 0.0
C118 C 0.68039 0.42582 0.01201 0.0
C119 C 0.76174 0.31804 0.97007 0.0
C120 C 0.73655 0.35867 0.07495 0.0
C121 C 0.79454 0.42039 -0.00099 0.0
O122 O 0.79926 0.39131 0.00247 0.0
O123 O 0.76805 0.43114 0.00603 0.0
O124 O 0.78474 0.31733 -0.00973 0.0
O125 O 0.74056 0.33851 0.97446 0.0
O126 O 0.87111 0.5403 0.19886 0.0
Cd127 Cd 0.84065 0.54284 0.23633 0.0
Cd128 Cd 0.8943 0.49249 0.25598 0.0
O129 O 0.9073 0.50684 0.21158 0.0
O130 O 0.81063 0.5737 0.22109 0.0
O131 O 0.84164 0.58278 0.26323 0.0
C132 C 0.82038 0.59232 0.24418 0.0
C133 C 0.93383 0.47011 0.28508 0.0
C134 C 0.89594 0.52594 0.19249 0.0
C135 C 0.82025 0.48078 0.26562 0.0
O136 O 0.84938 0.47523 0.26893 0.0
O137 O 0.81194 0.50485 0.2511 0.0
O138 O 0.91841 0.45394 0.26311 0.0
O139 O 0.92746 0.49932 0.28999 0.0
O140 O 0.80141 0.63888 0.56949 0.0
Cd141 Cd 0.7918 0.60704 0.53294 0.0
Cd142 Cd 0.76475 0.66955 0.509 0.0
O143 O 0.77973 0.68239 0.55416 0.0
O144 O 0.8103 0.56782 0.54769 0.0
O145 O 0.82605 0.59314 0.50477 0.0
C146 C 0.82806 0.56937 0.52314 0.0
C147 C 0.76272 0.71006 0.47332 0.0
C148 C 0.79479 0.66746 0.57449 0.0
C149 C 0.72622 0.60481 0.5042 0.0
O150 O 0.73027 0.63404 0.49813 0.0
O151 O 0.74679 0.591 0.51978 0.0
O152 O 0.74171 0.70634 0.49501 0.0
O153 O 0.78602 0.69164 0.47275 0.0
O154 O 0.61601 0.48535 0.69617 0.0
Cd155 Cd 0.64864 0.4822 0.73172 0.0
Cd156 Cd 0.59835 0.51849 0.76117 0.0
O157 O 0.57971 0.51528 0.71632 0.0
O158 O 0.68007 0.45393 0.71337 0.0
O159 O 0.65032 0.44196 0.75483 0.0
C160 C 0.67207 0.43438 0.7352 0.0
C161 C 0.56312 0.51284 0.8023 0.0
C162 C 0.59036 0.49932 0.69348 0.0
C163 C 0.66788 0.54363 0.76535 0.0
O164 O 0.63887 0.54607 0.77231 0.0
O165 O 0.67636 0.52072 0.74825 0.0
O166 O 0.56626 0.53897 0.78727 0.0
O167 O 0.57954 0.48947 0.7934 0.0
O168 O 0.09744 0.74842 0.9153 0.0
Cd169 Cd 0.0599 0.76625 0.93954 0.0
Cd170 Cd 0.0303 0.76581 0.87842 0.0
O171 O 0.07512 0.75327 0.86841 0.0
O172 O 0.04568 0.74439 0.97942 0.0
O173 O 0.01851 0.74303 0.9346 0.0
C174 C 0.02053 0.73449 0.96333 0.0
C175 C 0.98791 0.7369 0.8524 0.0
C176 C 0.09871 0.74669 0.88536 0.0
C177 C 0.03908 0.8276 0.91708 0.0
O178 O 0.02545 0.81226 0.89388 0.0
O179 O 0.05544 0.8138 0.93729 0.0
O180 O 0.00473 0.75874 0.83815 0.0
O181 O -0.00476 0.73151 0.8811 0.0
O182 O 0.97051 0.16705 0.5981 0.0
Cd183 Cd 0.97921 0.19361 0.63891 0.0
Cd184 Cd 0.0189 0.22544 0.60419 0.0
O185 O 0.01696 0.18316 0.57859 0.0
O186 O 0.94406 0.18722 0.66931 0.0
O187 O 0.95805 0.23391 0.64878 0.0
C188 C 0.94081 0.21737 0.6683 0.0
C189 C 0.00927 0.26971 0.57489 0.0
C190 C 0.99217 0.16428 0.57767 0.0
C191 C 0.04092 0.2071 0.66721 0.0
O192 O 0.04296 0.22898 0.64709 0.0
O193 O 0.01885 0.18529 0.66493 0.0
O194 O 0.03685 0.25804 0.57497 0.0
O195 O 0.98736 0.25693 0.59262 0.0
O196 O 0.4735 0.21802 0.41233 0.0
Cd197 Cd 0.46865 0.25985 0.38847 0.0
Cd198 Cd 0.4422 0.27398 0.44875 0.0
O199 O 0.44543 0.22719 0.45534 0.0
O200 O 0.49214 0.25668 0.34709 0.0
O201 O 0.5035 0.29431 0.38302 0.0
C202 C 0.50934 0.28183 0.35596 0.0
C203 C 0.48352 0.30898 0.46531 0.0
C204 C 0.46036 0.20858 0.43778 0.0
C205 C 0.39981 0.27836 0.39378 0.0
O206 O 0.40307 0.28513 0.42306 0.0
O207 O 0.42271 0.26842 0.37774 0.0
O208 O 0.45936 0.30364 0.48361 0.0
O209 O 0.48325 0.29456 0.43829 0.0
O210 O 0.47946 0.66035 0.14879 0.0
Cd211 Cd 0.4879 0.69755 0.1811 0.0
Cd212 Cd 0.50787 0.73123 0.13092 0.0
O213 O 0.50256 0.68652 0.10985 0.0
O214 O 0.45762 0.69722 0.21705 0.0
O215 O 0.46105 0.73456 0.18116 0.0
C216 C 0.44852 0.72376 0.20676 0.0
C217 C 0.48842 0.77251 0.10168 0.0
C218 C 0.48951 0.66103 0.12058 0.0
C219 C 0.55274 0.72743 0.18712 0.0
O220 O 0.54606 0.74125 0.16176 0.0
O221 O 0.53324 0.7065 0.19832 0.0
O222 O 0.5146 0.76003 0.09442 0.0
O223 O 0.47333 0.76198 0.126 0.0
O224 O 0.89009 -0.00281 0.69941 0.0
Cd225 Cd 0.87505 0.00181 0.74533 0.0
Cd226 Cd 0.93242 0.98015 0.75705 0.0
O227 O 0.93462 0.97426 0.70958 0.0
O228 O 0.83405 0.02287 0.74302 0.0
O229 O 0.8758 0.04275 0.77052 0.0
C230 C 0.84663 0.04468 0.76187 0.0
C231 C 0.96151 0.02061 0.78373 0.0
C232 C 0.91436 0.98331 0.69002 0.0
C233 C 0.87778 0.93982 0.77865 0.0
O234 O 0.90798 0.94379 0.77988 0.0
O235 O 0.86139 0.96019 0.76586 0.0
O236 O 0.97419 -0.00579 0.77696 0.0
O237 O 0.93265 0.02378 0.77453 0.0
O238 O 0.78124 0.12008 0.55587 0.0
Cd239 Cd 0.7649 0.0921 0.51799 0.0
Cd240 Cd 0.74292 0.1433 0.49353 0.0
O241 O 0.75444 0.15921 0.53836 0.0
O242 O 0.78624 0.05202 0.51389 0.0
O243 O 0.78628 0.08752 0.4761 0.0
C244 C 0.79324 0.05985 0.48542 0.0
C245 C 0.748 0.18421 0.45752 0.0
C246 C 0.77061 0.14737 0.55988 0.0
C247 C 0.69678 0.08811 0.50449 0.0
O248 O 0.70282 0.11261 0.48822 0.0
O249 O 0.71834 0.07722 0.52115 0.0
O250 O 0.72595 0.18274 0.47828 0.0
O251 O 0.76734 0.16176 0.45654 0.0
O252 O 0.60048 -0.00463 0.20404 0.0
Cd253 Cd 0.62778 0.0108 0.24262 0.0
Cd254 Cd 0.57284 0.02495 0.26819 0.0
O255 O 0.55641 0.0129 0.22388 0.0
O256 O 0.66912 0.99048 0.24405 0.0
O257 O 0.63194 0.9845 0.28056 0.0
C258 C 0.65985 0.97862 0.27048 0.0
C259 C 0.54485 -0.00113 0.30799 0.0
C260 C 0.57112 0.00035 0.20133 0.0
C261 C 0.62239 0.07831 0.26187 0.0
O262 O 0.59622 0.06955 0.27494 0.0
O263 O 0.638 0.05842 0.24666 0.0
O264 O 0.5336 0.02263 0.29416 0.0
O265 O 0.57271 0.99071 0.3 0.0
O266 O 0.73605 0.90232 0.06888 0.0
Cd267 Cd 0.7334 0.92143 0.02506 0.0
Cd268 Cd 0.76261 0.87248 0.00476 0.0
O269 O 0.76292 0.86249 0.05171 0.0
O270 O 0.69785 0.94958 0.02399 0.0
O271 O 0.69876 0.90514 -0.00503 0.0
C272 C 0.68427 0.92997 0.0034 0.0
C273 C 0.75117 0.82925 0.97067 0.0
C274 C 0.7506 0.87759 0.0742 0.0
C275 C 0.79589 0.93632 -0.00424 0.0
O276 O 0.7957 0.90672 -0.01038 0.0
O277 O 0.77307 0.94768 0.01063 0.0
O278 O 0.77757 0.83285 0.98627 0.0
O279 O 0.73075 0.85047 0.97442 0.0
O280 O 0.27748 0.63267 0.06568 0.0
Cd281 Cd 0.26209 0.60322 0.02832 0.0
Cd282 Cd 0.25007 0.6566 0.00085 0.0
O283 O 0.25865 0.67509 0.04485 0.0
O284 O 0.28 0.56073 0.02962 0.0
O285 O 0.28761 0.59383 -0.0097 0.0
C286 C 0.29162 0.56657 0.00211 0.0
C287 C 0.28146 0.6784 0.96151 0.0
C288 C 0.27105 0.66168 0.06785 0.0
C289 C 0.19562 0.60898 0.00773 0.0
O290 O 0.20578 0.63337 -0.00717 0.0
O291 O 0.21428 0.59456 0.02503 0.0
O292 O 0.25723 0.69264 0.9718 0.0
O293 O 0.28716 0.65145 0.97313 0.0
O294 O 0.1168 0.47984 0.6837 0.0
Cd295 Cd 0.14508 0.48502 0.72383 0.0
Cd296 Cd 0.10075 0.5236 0.74251 0.0
O297 O 0.07899 0.5097 0.70072 0.0
O298 O 0.17623 0.45194 0.72258 0.0
O299 O 0.14107 0.45631 0.76083 0.0
C300 C 0.16513 0.44266 0.74928 0.0
C301 C 0.07004 0.51975 0.78783 0.0
C302 C 0.09044 0.49229 0.67945 0.0
C303 C 0.16675 0.55274 0.73353 0.0
O304 O 0.13813 0.55791 0.7402 0.0
O305 O 0.17462 0.52493 0.72726 0.0
O306 O 0.06738 0.54244 0.76839 0.0
O307 O 0.09064 0.49914 0.78167 0.0
O308 O 0.24745 0.3618 0.56098 0.0
Cd309 Cd 0.25551 0.39248 0.52403 0.0
Cd310 Cd 0.28317 0.33789 0.50136 0.0
O311 O 0.27869 0.32388 0.54676 0.0
O312 O 0.22618 0.42807 0.5287 0.0
O313 O 0.22471 0.3941 0.48824 0.0
C314 C 0.21332 0.4181 0.50224 0.0
C315 C 0.24711 0.31359 0.46523 0.0
C316 C 0.26052 0.33617 0.56675 0.0
C317 C 0.3228 0.3999 0.50132 0.0
O318 O 0.31959 0.37137 0.4906 0.0
O319 O 0.30073 0.41179 0.51703 0.0
O320 O 0.27431 0.30175 0.46969 0.0
O321 O 0.24145 0.3391 0.48073 0.0
O322 O 0.38196 0.51713 0.19208 0.0
Cd323 Cd 0.35027 0.51865 0.22829 0.0
Cd324 Cd 0.3886 0.48777 0.25868 0.0
O325 O 0.4047 0.47789 0.2143 0.0
O326 O 0.32058 0.55202 0.2219 0.0
O327 O 0.3524 0.55079 0.26387 0.0
C328 C 0.32957 0.56347 0.24928 0.0
C329 C 0.42838 0.50458 0.29434 0.0
C330 C 0.4007 0.49477 0.19051 0.0
C331 C 0.32275 0.46059 0.25552 0.0
O332 O 0.34762 0.46263 0.27284 0.0
O333 O 0.32048 0.47901 0.23268 0.0
O334 O 0.42371 0.47518 0.28554 0.0
O335 O 0.40938 0.52469 0.28372 0.0
O336 O 0.98947 0.11121 0.98828 0.0
Zn337 Zn 0.01419 0.07869 0.96558 0.0
O338 O 0.00019 0.03596 0.97857 0.0
Zn339 Zn 0.03731 0.01336 0.98761 0.0
Zn340 Zn 0.97322 0.03795 0.01553 0.0
Zn341 Zn 0.97758 0.01279 0.94485 0.0
O342 O 0.04151 0.97488 0.96074 0.0
O343 O -0.00459 0.97067 0.93503 0.0
O344 O 0.05976 0.08877 0.97885 0.0
O345 O 0.07699 0.0413 0.98773 0.0
O346 O 0.03568 -0.00138 0.03111 0.0
O347 O -0.00628 0.01859 0.05342 0.0
O348 O 0.93 0.01608 0.00631 0.0
O349 O 0.01046 0.08296 0.91827 0.0
O350 O 0.93195 0.00316 0.95526 0.0
O351 O 0.98174 0.03785 0.90629 0.0
C352 C 0.9728 0.10964 0.01322 0.0
C353 C 0.0218 0.95961 0.94225 0.0
C354 C 0.01855 0.00296 0.05508 0.0
C355 C 0.08193 0.07122 0.9863 0.0
C356 C 0.91681 0.00456 0.98102 0.0
C357 C -0.00438 0.06413 0.89846 0.0
O358 O 0.9662 0.08333 0.02651 0.0
O359 O 0.23923 0.71045 0.20637 0.0
Zn360 Zn 0.22811 0.71698 0.25108 0.0
O361 O 0.25142 0.75582 0.2663 0.0
Zn362 Zn 0.28247 0.74517 0.29814 0.0
Zn363 Zn 0.2716 0.77991 0.23213 0.0
Zn364 Zn 0.22106 0.78153 0.28483 0.0
O365 O 0.27026 0.76059 0.34187 0.0
O366 O 0.22526 0.78282 0.33092 0.0
O367 O 0.24392 0.67883 0.27065 0.0
O368 O 0.286 0.69789 0.29845 0.0
O369 O 0.32661 0.76062 0.28529 0.0
O370 O 0.31898 0.78177 0.23861 0.0
O371 O 0.25558 0.8245 0.22812 0.0
O372 O 0.18021 0.71639 0.25535 0.0
O373 O 0.22472 0.8253 0.27013 0.0
O374 O 0.17713 0.76534 0.27453 0.0
C375 C 0.2541 0.72661 0.18561 0.0
C376 C 0.24562 0.77437 0.35068 0.0
C377 C 0.3375 0.77272 0.26001 0.0
C378 C 0.26874 0.67453 0.2868 0.0
C379 C 0.23753 0.83908 0.24677 0.0
C380 C 0.16391 0.7393 0.26395 0.0
O381 O 0.26584 0.75479 0.19132 0.0
O382 O 0.49125 0.92587 0.51248 0.0
Zn383 Zn 0.46992 0.95966 0.48902 0.0
O384 O 0.48473 0.00172 0.50601 0.0
Zn385 Zn 0.44917 0.0264 0.51861 0.0
Zn386 Zn 0.51397 -0.00162 0.54174 0.0
Zn387 Zn 0.50672 0.02401 0.47321 0.0
O388 O 0.44703 0.06692 0.49491 0.0
O389 O 0.48917 0.06469 0.46427 0.0
O390 O 0.4228 0.95328 0.49627 0.0
O391 O 0.40801 -0.00018 0.51465 0.0
O392 O 0.45322 0.03909 0.56399 0.0
O393 O 0.49765 0.01941 0.58086 0.0
O394 O 0.55794 0.01827 0.53264 0.0
O395 O 0.4787 0.95348 0.44203 0.0
O396 O 0.5515 0.03441 0.48386 0.0
O397 O 0.50533 -0.00036 0.43362 0.0
C398 C 0.50862 0.9266 0.53726 0.0
C399 C 0.46554 0.07895 0.47418 0.0
C400 C 0.47315 0.03485 0.5859 0.0
C401 C 0.4014 0.97096 0.50625 0.0
C402 C 0.56886 0.03154 0.50798 0.0
C403 C 0.49377 0.97269 0.42392 0.0
O404 O 0.51807 0.95255 0.55134 0.0
O405 O 0.24713 0.25692 0.83689 0.0
Zn406 Zn 0.25316 0.27335 0.79317 0.0
O407 O 0.22874 0.2444 0.76445 0.0
Zn408 Zn 0.25524 0.22747 0.73213 0.0
Zn409 Zn 0.20578 0.20904 0.7845 0.0
Zn410 Zn 0.19977 0.27008 0.74501 0.0
O411 O 0.25188 0.25036 0.69154 0.0
O412 O 0.21516 0.28409 0.70285 0.0
O413 O 0.29994 0.27147 0.78423 0.0
O414 O 0.30025 0.23371 0.74664 0.0
O415 O 0.24795 0.18031 0.72595 0.0
O416 O 0.2255 0.16864 0.77176 0.0
O417 O 0.15854 0.20477 0.77029 0.0
O418 O 0.23959 0.319 0.79179 0.0
O419 O 0.1589 0.24682 0.73972 0.0
O420 O 0.1918 0.30824 0.77045 0.0
C421 C 0.23151 0.23308 0.84846 0.0
C422 C 0.23555 0.2734 0.68409 0.0
C423 C 0.23963 0.16031 0.74678 0.0
C424 C 0.31472 0.25277 0.76641 0.0
C425 C 0.14464 0.22245 0.75123 0.0
C426 C 0.21182 0.32722 0.78487 0.0
O427 O 0.21381 0.21354 0.83148 0.0
O428 O 0.97006 0.9574 0.40157 0.0
Zn429 Zn 0.94161 0.94759 0.43866 0.0
O430 O 0.96288 0.9662 0.47701 0.0
Zn431 Zn 0.97312 0.93357 0.50623 0.0
Zn432 Zn 0.00142 -0.00707 0.46757 0.0
Zn433 Zn 0.93378 -0.00779 0.49772 0.0
O434 O 0.95391 0.93996 0.54888 0.0
O435 O 0.9217 0.97814 0.54004 0.0
O436 O 0.93659 0.89973 0.44188 0.0
O437 O 0.9588 0.89066 0.48825 0.0
O438 O 0.02024 0.93402 0.51332 0.0
O439 O 0.0406 0.97341 0.48424 0.0
O440 O 0.001 0.03807 0.48648 0.0
O441 O 0.898 0.96548 0.42995 0.0
O442 O 0.95188 0.03562 0.50479 0.0
O443 O 0.8954 -0.00424 0.47325 0.0
C444 C -0.00636 0.97753 0.39796 0.0
C445 C 0.93302 0.95835 0.55828 0.0
C446 C 0.04398 0.95052 0.50268 0.0
C447 C 0.9449 0.88061 0.46278 0.0
C448 C 0.9782 0.05106 0.50023 0.0
C449 C 0.88373 0.98501 0.44729 0.0
O450 O 0.0062 -0.00577 0.42081 0.0
O451 O 0.36125 0.73785 0.7623 0.0
Zn452 Zn 0.32551 0.75419 0.78707 0.0
O453 O 0.28584 0.73699 0.76977 0.0
Zn454 Zn 0.25604 0.76947 0.77002 0.0
Zn455 Zn 0.29045 0.72062 0.72754 0.0
Zn456 Zn 0.27341 0.70372 0.79779 0.0
O457 O 0.22244 0.76003 0.80143 0.0
O458 O 0.23537 0.71525 0.82348 0.0
O459 O 0.32849 0.80067 0.78133 0.0
O460 O 0.27817 0.8126 0.7766 0.0
O461 O 0.23562 0.77306 0.72786 0.0
O462 O 0.26807 0.74712 0.69706 0.0
O463 O 0.26853 0.67672 0.72334 0.0
O464 O 0.32887 0.7442 0.83307 0.0
O465 O 0.25963 0.66471 0.77344 0.0
O466 O 0.30871 0.69474 0.82706 0.0
C467 C 0.36232 0.72798 0.73374 0.0
C468 C 0.21725 0.73807 0.82111 0.0
C469 C 0.24525 0.76518 0.70064 0.0
C470 C 0.30778 0.8209 0.77791 0.0
C471 C 0.25815 0.6576 0.74421 0.0
C472 C 0.32375 0.71639 0.84361 0.0
O473 O 0.3372 0.72176 0.71703 0.0
O474 O 0.51703 -0.00318 0.05896 0.0
Zn475 Zn 0.50704 -0.00642 0.01322 0.0
O476 O 0.47069 0.96378 0.00533 0.0
Zn477 Zn 0.48429 0.92634 0.98239 0.0
Zn478 Zn 0.44867 0.9535 0.04492 0.0
Zn479 Zn 0.44213 0.98447 0.97905 0.0
O480 O 0.46426 0.92195 0.93822 0.0
O481 O 0.42937 0.959 0.94155 0.0
O482 O 0.54601 0.97741 -0.00521 0.0
O483 O 0.53246 0.92825 0.97784 0.0
O484 O 0.47268 0.88838 0.00868 0.0
O485 O 0.44463 0.9054 0.04939 0.0
O486 O 0.40665 0.97611 0.04962 0.0
O487 O 0.50225 0.03663 -0.00439 0.0
O488 O 0.40408 -0.00478 0.00165 0.0
O489 O 0.46048 0.02605 0.96417 0.0
C490 C 0.50369 0.98506 0.08317 0.0
C491 C 0.44126 0.9363 0.92669 0.0
C492 C 0.45738 0.8831 0.0341 0.0
C493 C 0.55346 0.951 0.98304 0.0
C494 C 0.39267 -0.00804 0.02898 0.0
C495 C 0.48321 0.04492 0.9744 0.0
O496 O 0.47726 0.96851 0.08132 0.0
O497 O 0.13254 0.26517 0.27143 0.0
Zn498 Zn 0.16953 0.24835 0.29511 0.0
O499 O 0.20842 0.27004 0.28097 0.0
Zn500 Zn 0.24018 0.24001 0.27626 0.0
Zn501 Zn 0.2039 0.29304 0.24298 0.0
Zn502 Zn 0.21841 0.29997 0.31498 0.0
O503 O 0.27344 0.24884 0.30924 0.0
O504 O 0.25598 0.28726 0.34008 0.0
O505 O 0.16996 0.20214 0.2846 0.0
O506 O 0.22118 0.19501 0.27704 0.0
O507 O 0.26002 0.24282 0.2339 0.0
O508 O 0.22747 0.27222 0.20763 0.0
O509 O 0.22342 0.3381 0.24785 0.0
O510 O 0.16891 0.25284 0.34295 0.0
O511 O 0.23235 0.34188 0.29935 0.0
O512 O 0.18031 0.30402 0.34178 0.0
C513 C 0.13184 0.28114 0.24624 0.0
C514 C 0.27667 0.26759 0.33321 0.0
C515 C 0.25073 0.25435 0.20828 0.0
C516 C 0.19234 0.18406 0.27892 0.0
C517 C 0.23382 0.35381 0.27226 0.0
C518 C 0.17266 0.27958 0.35741 0.0
O519 O 0.15727 0.29226 0.23309 0.0
O520 O 0.47221 0.47656 0.91966 0.0
Zn521 Zn 0.44694 0.45882 0.95526 0.0
O522 O 0.46885 0.47359 -0.00673 0.0
Zn523 Zn 0.4838 0.43918 0.01766 0.0
Zn524 Zn 0.50207 0.50659 0.98687 0.0
Zn525 Zn 0.43809 0.4896 0.01976 0.0
O526 O 0.46974 0.44419 0.06341 0.0
O527 O 0.42246 0.45525 0.04705 0.0
O528 O 0.44838 0.41153 0.95191 0.0
O529 O 0.47059 0.39698 -0.00335 0.0
O530 O 0.53086 0.44166 0.0157 0.0
O531 O 0.54459 0.48902 -0.00389 0.0
O532 O 0.49662 0.54495 0.01628 0.0
O533 O 0.40159 0.47337 0.95163 0.0
O534 O 0.45557 0.52732 0.04514 0.0
O535 O 0.40137 0.50188 -0.00367 0.0
C536 C 0.49261 0.49996 0.9167 0.0
C537 C 0.4411 0.44995 0.06949 0.0
C538 C 0.55186 0.46239 0.00657 0.0
C539 C 0.45839 0.39017 0.9695 0.0
C540 C 0.47794 0.54819 0.0396 0.0
C541 C 0.38847 0.49242 0.97044 0.0
O542 O 0.50371 0.51653 0.94042 0.0
O543 O 0.78632 0.29235 0.26947 0.0
Zn544 Zn 0.75036 0.3031 0.29766 0.0
O545 O 0.70978 0.28998 0.27791 0.0
Zn546 Zn 0.68792 0.32641 0.26345 0.0
Zn547 Zn 0.71788 0.26069 0.24321 0.0
Zn548 Zn 0.68335 0.26858 0.30832 0.0
O549 O 0.64144 0.32502 0.27778 0.0
O550 O 0.64324 0.28922 0.31523 0.0
O551 O 0.75441 0.35027 0.30293 0.0
O552 O 0.7122 0.36717 0.27818 0.0
O553 O 0.69056 0.32748 0.2163 0.0
O554 O 0.7092 0.28121 0.20236 0.0
O555 O 0.69236 0.21894 0.24673 0.0
O556 O 0.75616 0.28159 0.33927 0.0
O557 O 0.66976 0.22458 0.29342 0.0
O558 O 0.70611 0.26455 0.34884 0.0
C559 C 0.78859 0.27014 0.24899 0.0
C560 C 0.62859 0.30954 0.30033 0.0
C561 C 0.69985 0.30821 0.19527 0.0
C562 C 0.73845 0.37274 0.2932 0.0
C563 C 0.6746 0.20808 0.26869 0.0
C564 C 0.73518 0.26867 0.3572 0.0
O565 O 0.76434 0.25266 0.2397 0.0
O566 O 0.043 0.50253 0.535 0.0
Zn567 Zn 0.03853 0.49772 0.488 0.0
O568 O 0.00568 0.46397 0.47723 0.0
Zn569 Zn 0.02409 0.42803 0.45621 0.0
Zn570 Zn 0.98185 0.45142 0.51468 0.0
Zn571 Zn 0.97598 0.47986 0.4486 0.0
O572 O 0.01201 0.4242 0.40926 0.0
O573 O 0.97138 0.45511 0.40905 0.0
O574 O 0.08154 0.48398 0.47643 0.0
O575 O 0.07172 0.43401 0.45948 0.0
O576 O 0.01133 0.38817 0.47999 0.0
O577 O 0.97904 0.4038 0.51789 0.0
O578 O 0.93863 0.47023 0.51652 0.0
O579 O 0.03108 0.53969 0.46719 0.0
O580 O 0.93399 0.48468 0.46704 0.0
O581 O 0.99003 0.5234 0.43654 0.0
C582 C 0.02973 0.48764 0.55764 0.0
C583 C 0.98868 0.43575 0.39525 0.0
C584 C -0.00648 0.38211 0.50365 0.0
C585 C 0.09117 0.45741 0.46717 0.0
C586 C 0.9228 0.48217 0.49457 0.0
C587 C 0.01074 0.54492 0.44581 0.0
O588 O 0.00637 0.46727 0.55314 0.0
O589 O 0.76322 0.80169 0.35246 0.0
Zn590 Zn 0.77049 0.82391 0.31157 0.0
O591 O 0.75066 0.79653 0.27838 0.0
Zn592 Zn 0.78121 0.78499 0.24702 0.0
Zn593 Zn 0.72765 0.75874 0.29397 0.0
Zn594 Zn 0.7204 0.82076 0.25883 0.0
O595 O 0.77409 0.80639 0.20574 0.0
O596 O 0.73699 0.83897 0.2193 0.0
O597 O 0.81812 0.82823 0.30621 0.0
O598 O 0.82502 0.79871 0.26302 0.0
O599 O 0.78116 0.7374 0.24138 0.0
O600 O 0.75208 0.72087 0.28218 0.0
O601 O 0.68298 0.75082 0.27387 0.0
O602 O 0.75207 0.86763 0.31374 0.0
O603 O 0.68214 0.79453 0.24627 0.0
O604 O 0.7076 0.85572 0.28624 0.0
C605 C 0.74508 0.77811 0.361 0.0
C606 C 0.75678 0.82912 0.1995 0.0
C607 C 0.77083 0.71549 0.25954 0.0
C608 C 0.83629 0.81572 0.28623 0.0
C609 C 0.66952 0.76775 0.25386 0.0
C610 C 0.72442 0.87429 0.30457 0.0
O611 O 0.72767 0.76111 0.34143 0.0
O612 O 0.74254 0.18843 0.70305 0.0
Zn613 Zn 0.73497 0.19444 0.749 0.0
O614 O 0.75605 0.23505 0.76282 0.0
Zn615 Zn 0.79231 0.22862 0.79057 0.0
Zn616 Zn 0.7688 0.2611 0.72668 0.0
Zn617 Zn 0.726 0.25693 0.78633 0.0
O618 O 0.78764 0.24801 0.83486 0.0
O619 O 0.73783 0.26156 0.83091 0.0
O620 O 0.75618 0.15874 0.7679 0.0
O621 O 0.79731 0.18189 0.79461 0.0
O622 O 0.83265 0.24386 0.76887 0.0
O623 O 0.8165 0.26759 0.72598 0.0
O624 O 0.74809 0.30375 0.7263 0.0
O625 O 0.6876 0.18968 0.75871 0.0
O626 O 0.72141 0.29946 0.77091 0.0
O627 O 0.6833 0.23575 0.78405 0.0
C628 C 0.7524 0.20642 0.68106 0.0
C629 C 0.76274 0.25854 0.84723 0.0
C630 C 0.83868 0.25794 0.74313 0.0
C631 C 0.78134 0.15701 0.78437 0.0
C632 C 0.73001 0.31522 0.74709 0.0
C633 C 0.67103 0.20966 0.77286 0.0
O634 O 0.76033 0.23579 0.68614 0.0
O635 O 0.71064 0.7384 0.76856 0.0
Zn636 Zn 0.74369 0.7238 0.79831 0.0
O637 O 0.78629 0.73284 0.78238 0.0
Zn638 Zn 0.80581 0.69494 0.76748 0.0
Zn639 Zn 0.78421 0.76247 0.74829 0.0
Zn640 Zn 0.8118 0.75042 0.81704 0.0
O641 O 0.85058 0.69205 0.78424 0.0
O642 O 0.85106 0.72815 0.8232 0.0
O643 O 0.73595 0.67699 0.80032 0.0
O644 O 0.778 0.6564 0.77823 0.0
O645 O 0.80926 0.69542 0.72087 0.0
O646 O 0.80311 0.74542 0.70837 0.0
O647 O 0.80526 0.80454 0.76181 0.0
O648 O 0.73734 0.7433 0.84158 0.0
O649 O 0.82587 0.79548 0.80901 0.0
O650 O 0.78785 0.75067 0.85704 0.0
C651 C 0.71238 0.75605 0.74467 0.0
C652 C 0.86417 0.70652 0.80782 0.0
C653 C 0.8093 0.71716 0.70066 0.0
C654 C 0.75082 0.65316 0.79124 0.0
C655 C 0.82105 0.81387 0.78646 0.0
C656 C 0.75826 0.75017 0.86292 0.0
O657 O 0.73905 0.76802 0.73521 0.0
O658 O 0.5243 0.5843 0.48561 0.0
Zn659 Zn 0.5373 0.54628 0.46134 0.0
O660 O 0.52456 0.50838 0.48443 0.0
Zn661 Zn 0.56097 0.49048 0.50286 0.0
Zn662 Zn 0.49419 0.51771 0.51749 0.0
Zn663 Zn 0.50678 0.47699 0.45501 0.0
O664 O 0.56067 0.44356 0.49639 0.0
O665 O 0.529 0.43701 0.45456 0.0
O666 O 0.58514 0.55211 0.46029 0.0
O667 O 0.60122 0.51268 0.4889 0.0
O668 O 0.55991 0.49536 0.54872 0.0
O669 O 0.51046 0.50629 0.56057 0.0
O670 O 0.45153 0.49375 0.50922 0.0
O671 O 0.51841 0.54521 0.41703 0.0
O672 O 0.46207 0.46419 0.46699 0.0
O673 O 0.50539 0.49341 0.41209 0.0
C674 C 0.50597 0.58825 0.50889 0.0
C675 C 0.54763 0.42607 0.4746 0.0
C676 C 0.53833 0.49955 0.56878 0.0
C677 C 0.60728 0.53734 0.4728 0.0
C678 C 0.44308 0.47245 0.48838 0.0
C679 C 0.50862 0.52085 0.40046 0.0
O680 O 0.49102 0.56479 0.52178 0.0
O681 O 0.98824 0.45738 -0.01082 0.0
Zn682 Zn 0.97462 0.4949 0.96495 0.0
O683 O 0.98133 0.53404 -0.01009 0.0
Zn684 Zn 0.94209 0.55211 0.00273 0.0
Zn685 Zn 0.00639 0.5272 0.0275 0.0
Zn686 Zn 0.00306 0.56376 0.96327 0.0
O687 O 0.94287 0.59966 -0.00306 0.0
O688 O 0.986 0.60586 0.96735 0.0
O689 O 0.92757 0.48653 0.95965 0.0
O690 O 0.90492 0.5274 0.98231 0.0
O691 O 0.93616 0.54688 0.04878 0.0
O692 O 0.98471 0.54068 0.06744 0.0
O693 O 0.05092 0.54774 0.02377 0.0
O694 O -0.00395 0.49717 0.92197 0.0
O695 O 0.04775 0.57064 0.97735 0.0
O696 O 0.0042 0.54942 0.91837 0.0
C697 C -0.00012 0.45585 0.01686 0.0
C698 C 0.96287 0.61715 0.98178 0.0
C699 C 0.95526 0.54444 0.07181 0.0
C700 C 0.90288 0.50065 0.96754 0.0
C701 C 0.06356 0.56396 0.00161 0.0
C702 C 0.00414 0.52164 0.90611 0.0
O703 O 0.0079 0.48067 0.03337 0.0
C704 C 0.94439 0.16563 0.07601 0.0
C705 C 0.95842 0.19489 0.06632 0.0
H706 H 0.93755 0.11571 0.06658 0.0
C707 C 0.97319 0.19647 0.03674 0.0
H708 H 0.9325 0.16365 0.09849 0.0
C709 C 0.97607 0.16895 0.01838 0.0
C710 C 0.96426 0.1393 0.02927 0.0
H711 H 0.98392 0.21872 0.0284 0.0
H712 H 0.98902 0.17075 -0.00354 0.0
C713 C 0.94729 0.13812 0.05767 0.0
C714 C 0.08209 0.7638 0.27633 0.0
C715 C 0.06957 0.7387 0.29448 0.0
H716 H 0.12228 0.78298 0.25106 0.0
C717 C 0.08486 0.71011 0.29465 0.0
H718 H 0.07036 0.78584 0.2753 0.0
C719 C 0.11471 0.70844 0.28059 0.0
C720 C 0.12915 0.73534 0.26635 0.0
H721 H 0.07548 0.69035 0.30837 0.0
H722 H 0.12787 0.68759 0.28401 0.0
C723 C 0.11167 0.7621 0.2623 0.0
C724 C 0.52781 0.86345 0.59448 0.0
C725 C 0.53852 0.83993 0.57401 0.0
H726 H 0.51063 0.91006 0.59868 0.0
C727 C 0.53884 0.84482 0.54141 0.0
H728 H 0.52745 0.86012 0.61971 0.0
C729 C 0.52831 0.87277 0.52937 0.0
C730 C 0.51838 0.89665 0.54987 0.0
H731 H 0.54688 0.82685 0.52522 0.0
H732 H 0.52862 0.87604 0.50413 0.0
C733 C 0.51833 0.89191 0.58251 0.0
C734 C 0.40036 0.27379 0.78839 0.0
C735 C 0.41175 0.24345 0.79119 0.0
H736 H 0.35999 0.30054 0.77881 0.0
C737 C 0.39201 0.2165 0.78271 0.0
H738 H 0.41516 0.29492 0.79511 0.0
C739 C 0.36084 0.21983 0.77251 0.0
C740 C 0.34883 0.25007 0.77176 0.0
H741 H 0.40037 0.19292 0.78479 0.0
H742 H 0.34559 0.19866 0.76704 0.0
C743 C 0.36889 0.27706 0.77925 0.0
C744 C 0.93729 0.80468 0.41412 0.0
C745 C 0.96066 0.78783 0.42885 0.0
H746 H 0.91373 0.84806 0.41347 0.0
C747 C 0.97247 0.79813 0.45856 0.0
H748 H 0.92798 0.79714 0.39107 0.0
C749 C 0.96395 0.8269 0.47171 0.0
C750 C 0.94427 0.84625 0.45476 0.0
H751 H 0.99065 0.7855 0.47018 0.0
H752 H 0.97557 0.83541 0.49347 0.0
C753 C 0.92933 0.83394 0.42686 0.0
C754 C 0.42787 0.74276 0.67508 0.0
C755 C 0.4545 0.73436 0.69226 0.0
H756 H 0.37729 0.74602 0.67455 0.0
C757 C 0.4505 0.72254 0.72269 0.0
H758 H 0.43041 0.7515 0.65138 0.0
C759 C 0.4203 0.71984 0.73608 0.0
C760 C 0.3936 0.7279 0.71878 0.0
H761 H 0.47076 0.71573 0.73624 0.0
H762 H 0.41778 0.71142 0.7599 0.0
C763 C 0.39753 0.73913 0.6881 0.0
C764 C 0.47156 0.1158 0.92385 0.0
C765 C 0.49723 0.13674 0.93368 0.0
H766 H 0.44698 0.07033 0.92902 0.0
C767 C 0.51768 0.12773 0.95773 0.0
H768 H 0.45541 0.12211 0.90538 0.0
C769 C 0.51293 0.09805 0.97126 0.0
C770 C 0.48764 0.0768 0.961 0.0
H771 H 0.53768 0.1434 0.96584 0.0
H772 H 0.52933 0.09166 -0.01053 0.0
C773 C 0.4668 0.08611 0.93738 0.0
C774 C 0.0731 0.29967 0.18287 0.0
C775 C 0.04605 0.28045 0.19111 0.0
H776 H 0.12111 0.31556 0.19419 0.0
C777 C 0.04623 0.26423 0.21964 0.0
H778 H 0.07361 0.31288 0.1613 0.0
C779 C 0.07359 0.26583 0.23866 0.0
C780 C 0.10123 0.28369 0.22948 0.0
H781 H 0.02562 0.24946 0.22679 0.0
H782 H 0.07347 0.25199 0.25982 0.0
C783 C 0.10034 0.30132 0.20186 0.0
C784 C 0.0767 0.97613 0.11476 0.0
C785 C 0.06584 0.99017 0.14255 0.0
H786 H 0.06942 0.96795 0.06546 0.0
C787 C 0.03622 0.0038 0.14236 0.0
H788 H 0.0991 0.96488 0.11436 0.0
C789 C 0.01917 0.00588 0.11416 0.0
C790 C 0.03141 -0.00593 0.08586 0.0
H791 H 0.02712 0.01456 0.1636 0.0
H792 H -0.00245 0.01842 0.11427 0.0
C793 C 0.05953 0.9778 0.08677 0.0
C794 C 0.25895 0.78567 0.43853 0.0
C795 C 0.23253 0.80266 0.44702 0.0
H796 H 0.28403 0.76344 0.40123 0.0
C797 C 0.2092 0.8076 0.42431 0.0
H798 H 0.27732 0.78143 0.45565 0.0
C799 C 0.21305 0.79731 0.39326 0.0
C800 C 0.24042 0.78199 0.38426 0.0
H801 H 0.18853 0.82045 0.43021 0.0
H802 H 0.19496 0.80233 0.37613 0.0
C803 C 0.26291 0.77547 0.40736 0.0
C804 C 0.42212 0.05639 0.65402 0.0
C805 C 0.43676 0.0407 0.67842 0.0
H806 H 0.42275 0.06759 0.60531 0.0
C807 C 0.46755 0.03046 0.67391 0.0
H808 H 0.3987 0.06519 0.65706 0.0
C809 C 0.4813 0.03161 0.6441 0.0
C810 C 0.46449 0.04317 0.61856 0.0
H811 H 0.47968 0.0187 0.69244 0.0
H812 H 0.50368 0.02081 0.64056 0.0
C813 C 0.43592 0.05771 0.62432 0.0
C814 C 0.25051 0.24198 0.93558 0.0
C815 C 0.25511 0.21042 0.94325 0.0
H816 H 0.23966 0.27404 0.89913 0.0
C817 C 0.25153 0.18651 0.91968 0.0
H818 H 0.25278 0.26073 0.95352 0.0
C819 C 0.24261 0.19388 0.88912 0.0
C820 C 0.23802 0.22541 0.8814 0.0
H821 H 0.25435 0.16192 0.92515 0.0
H822 H 0.23985 0.17497 0.87136 0.0
C823 C 0.24265 0.24951 0.9047 0.0
C824 C 0.0345 0.95768 0.32202 0.0
C825 C 0.04257 0.98818 0.31092 0.0
H826 H 0.01126 0.93036 0.35828 0.0
C827 C 0.03258 0.01485 0.32757 0.0
H828 H 0.0419 0.93682 0.30944 0.0
C829 C 0.01594 0.01123 0.3556 0.0
C830 C 0.00811 0.98085 0.36687 0.0
H831 H 0.03865 0.03865 0.31954 0.0
H832 H 0.00948 0.03218 0.36869 0.0
C833 C 0.01686 0.95401 0.34966 0.0
C834 C 0.23098 0.78521 0.61616 0.0
C835 C 0.21982 0.81578 0.61952 0.0
H836 H 0.2477 0.7451 0.63937 0.0
C837 C 0.21269 0.82745 0.64973 0.0
H838 H 0.23641 0.77534 0.59317 0.0
C839 C 0.21882 0.80982 0.67624 0.0
C840 C 0.23255 0.78047 0.6729 0.0
H841 H 0.20379 0.85077 0.65303 0.0
H842 H 0.21469 0.82012 0.69936 0.0
C843 C 0.2375 0.76783 0.64261 0.0
C844 C 0.44976 0.9374 0.83922 0.0
C845 C 0.42091 0.95024 0.83107 0.0
H846 H 0.47883 0.92175 0.87678 0.0
C847 C 0.39652 0.9508 0.85334 0.0
H848 H 0.46874 0.93614 0.82222 0.0
C849 C 0.40194 0.94171 0.88408 0.0
C850 C 0.43203 0.93243 0.89327 0.0
H851 H 0.37368 0.9596 0.84741 0.0
H852 H 0.38346 0.94462 0.90137 0.0
C853 C 0.45536 0.92861 0.87026 0.0
C854 C 0.2633 0.24122 0.1212 0.0
C855 C 0.27734 0.2119 0.12098 0.0
H856 H 0.24365 0.2778 0.14927 0.0
C857 C 0.28771 0.19994 0.14956 0.0
H858 H 0.25515 0.25115 0.09951 0.0
C859 C 0.28142 0.21541 0.17802 0.0
C860 C 0.26419 0.24285 0.17842 0.0
H861 H 0.29888 0.17757 0.15007 0.0
H862 H 0.288 0.20447 0.19973 0.0
C863 C 0.25653 0.25644 0.14971 0.0
C864 C 0.14756 0.13287 0.00991 0.0
C865 C 0.17015 0.11401 0.02336 0.0
H866 H 0.10218 0.13413 0.98714 0.0
C867 C 0.16379 0.08097 0.02379 0.0
H868 H 0.15186 0.15842 0.00904 0.0
C869 C 0.13554 0.06704 0.01082 0.0
C870 C 0.11295 0.08588 -0.00266 0.0
H871 H 0.18084 0.06576 0.03367 0.0
H872 H 0.13131 0.04149 0.01172 0.0
C873 C 0.11922 0.11895 -0.00292 0.0
C874 C 0.62302 0.41338 0.00012 0.0
C875 C 0.64811 0.43603 0.00716 0.0
H876 H 0.57268 0.40411 -0.00489 0.0
C877 C 0.6416 0.46794 0.01251 0.0
H878 H 0.62743 0.38862 -0.0039 0.0
C879 C 0.61027 0.47693 0.01149 0.0
C880 C 0.58511 0.45393 0.00599 0.0
H881 H 0.66067 0.48582 0.01797 0.0
H882 H 0.60566 0.50156 0.01604 0.0
C883 C 0.59174 0.42219 -9e-05 0.0
C884 C 0.76514 0.4539 0.26464 0.0
C885 C 0.79594 0.45749 0.27784 0.0
H886 H 0.72205 0.42413 0.25967 0.0
C887 C 0.80449 0.43658 0.30121 0.0
H888 H 0.75779 0.46993 0.24685 0.0
C889 C 0.78395 0.41074 0.30892 0.0
C890 C 0.75457 0.40499 0.29312 0.0
H891 H 0.82778 0.43923 0.31242 0.0
H892 H 0.79221 0.39397 0.32555 0.0
C893 C 0.7446 0.42777 0.27218 0.0
C894 C 0.85844 0.53865 0.48463 0.0
C895 C 0.84957 0.54425 0.51586 0.0
H896 H 0.88722 0.51332 0.4532 0.0
C897 C 0.86147 0.52579 0.53983 0.0
H898 H 0.849 0.55204 0.46564 0.0
C899 C 0.88386 0.50365 0.53285 0.0
C900 C 0.89416 0.49935 0.5017 0.0
H901 H 0.85458 0.52948 0.56413 0.0
H902 H 0.89417 0.49111 0.55196 0.0
C903 C 0.88015 0.51617 0.47755 0.0
C904 C 0.14455 0.1056 0.27194 0.0
C905 C 0.16361 0.08786 0.25203 0.0
H906 H 0.13885 0.14971 0.2962 0.0
C907 C 0.19363 0.10115 0.24315 0.0
H908 H 0.12136 0.09608 0.27947 0.0
C909 C 0.20384 0.13203 0.25317 0.0
C910 C 0.18401 0.15015 0.2719 0.0
H911 H 0.20893 0.08798 0.22801 0.0
H912 H 0.22665 0.14215 0.24522 0.0
C913 C 0.15455 0.1364 0.28161 0.0
C914 C 0.31664 0.95779 0.53523 0.0
C915 C 0.30887 0.9265 0.52444 0.0
H916 H 0.35206 -0.00331 0.53765 0.0
C917 C 0.33093 0.91097 0.50586 0.0
H918 H 0.30007 0.97043 0.5494 0.0
C919 C 0.36047 0.92589 0.49909 0.0
C920 C 0.36874 0.95678 0.51064 0.0
H921 H 0.32566 0.88694 0.49684 0.0
H922 H 0.37705 0.9129 0.48527 0.0
C923 C 0.34634 0.97284 0.52834 0.0
C924 C 0.80322 0.63682 0.27848 0.0
C925 C 0.80761 0.62373 0.24825 0.0
H926 H 0.78704 0.67598 0.30567 0.0
C927 C 0.79931 0.64073 0.2217 0.0
H928 H 0.80932 0.62404 0.29926 0.0
C929 C 0.78741 0.6707 0.22531 0.0
C930 C 0.78257 0.68359 0.25554 0.0
H931 H 0.80259 0.6311 0.19813 0.0
H932 H 0.78169 0.68364 0.20452 0.0
C933 C 0.79029 0.66632 0.2821 0.0
C934 C 0.68212 0.38585 0.76446 0.0
C935 C 0.68771 0.40437 0.73794 0.0
H936 H 0.6914 0.34384 0.78829 0.0
C937 C 0.70841 0.39404 0.71446 0.0
H938 H 0.66655 0.39326 0.78307 0.0
C939 C 0.72282 0.36526 0.71731 0.0
C940 C 0.71683 0.34657 0.74379 0.0
H941 H 0.7132 0.40798 0.69373 0.0
H942 H 0.73825 0.35753 0.69874 0.0
C943 C 0.69657 0.35745 0.76742 0.0
C944 C 0.05774 0.88033 0.94019 0.0
C945 C 0.03602 0.86202 0.92083 0.0
H946 H 0.07074 0.92561 0.96147 0.0
C947 C 0.01117 0.87675 0.90599 0.0
H948 H 0.07744 0.86973 0.95155 0.0
C949 C 0.00717 0.90896 0.91182 0.0
C950 C 0.0282 0.92695 0.93227 0.0
H951 H -0.00581 0.86318 0.89078 0.0
H952 H 0.98711 0.91949 0.90105 0.0
C953 C 0.05401 0.91247 0.94569 0.0
C954 C 0.91265 0.21923 0.71942 0.0
C955 C 0.91853 0.23228 0.68979 0.0
H956 H 0.88393 0.2185 0.76057 0.0
C957 C 0.90209 0.25848 0.68076 0.0
H958 H 0.92559 0.19947 0.72725 0.0
C959 C 0.87779 0.26932 0.69978 0.0
C960 C 0.87012 0.25451 0.7284 0.0
H961 H 0.90657 0.2692 0.65815 0.0
H962 H 0.86369 0.28786 0.69113 0.0
C963 C 0.88905 0.23052 0.73874 0.0
C964 C 0.47912 0.15428 0.4291 0.0
C965 C 0.46099 0.17512 0.44646 0.0
H966 H 0.49431 0.10727 0.424 0.0
C967 C 0.44258 0.16351 0.47176 0.0
H968 H 0.49328 0.16244 0.40931 0.0
C969 C 0.44288 0.13181 0.48 0.0
C970 C 0.46178 0.11124 0.46324 0.0
H971 H 0.42802 0.17893 0.48537 0.0
H972 H 0.42908 0.12371 0.50005 0.0
C973 C 0.47956 0.12265 0.43746 0.0
C974 C 0.59259 0.71996 0.23055 0.0
C975 C 0.58288 0.73668 0.20418 0.0
H976 H 0.62782 0.71644 0.26709 0.0
C977 C 0.60194 0.76309 0.1945 0.0
H978 H 0.57838 0.69942 0.23857 0.0
C979 C 0.62978 0.77287 0.21087 0.0
C980 C 0.6396 0.75641 0.23733 0.0
H981 H 0.59524 0.77656 0.17438 0.0
H982 H 0.6437 0.79345 0.20252 0.0
C983 C 0.62085 0.72965 0.2469 0.0
C984 C 0.0159 0.12591 0.53988 0.0
C985 C 0.98894 0.13828 0.55381 0.0
H986 H 0.03381 0.08821 0.51164 0.0
C987 C 0.95864 0.12434 0.54617 0.0
H988 H 0.03958 0.13642 0.54528 0.0
C989 C 0.95534 0.09739 0.52663 0.0
C990 C 0.98231 0.08332 0.51467 0.0
H991 H 0.93743 0.13375 0.55604 0.0
H992 H 0.93154 0.0867 0.52217 0.0
C993 C 0.01262 0.09845 0.52053 0.0
C994 C 0.54387 0.28045 0.3081 0.0
C995 C 0.53655 0.29466 0.33719 0.0
H996 H 0.57929 0.27541 0.27259 0.0
C997 C 0.55738 0.31934 0.34985 0.0
H998 H 0.52823 0.26155 0.29764 0.0
C999 C 0.58646 0.3273 0.33541 0.0
C1000 C 0.59484 0.31121 0.30777 0.0
H1001 H 0.55232 0.33101 0.37208 0.0
H1002 H 0.60346 0.34413 0.3472 0.0
C1003 C 0.57284 0.28869 0.2935 0.0
C1004 C 0.45472 0.81899 0.0954 0.0
C1005 C 0.47664 0.79845 0.08288 0.0
H1006 H 0.43105 0.86194 0.08969 0.0
C1007 C 0.48848 0.80369 0.0525 0.0
H1008 H 0.44501 0.81537 0.1187 0.0
C1009 C 0.48002 0.82987 0.03564 0.0
C1010 C 0.45992 0.85184 0.04896 0.0
H1011 H 0.50501 0.788 0.04199 0.0
H1012 H 0.49072 0.83371 0.0128 0.0
C1013 C 0.44659 0.84558 0.07869 0.0
C1014 C 0.95127 0.72567 0.80614 0.0
C1015 C 0.95906 0.72086 0.83783 0.0
H1016 H 0.91418 0.7231 0.77107 0.0
C1017 C 0.93703 0.70378 0.8568 0.0
H1018 H 0.96794 0.73845 0.79092 0.0
C1019 C 0.90637 0.69533 0.84553 0.0
C1020 C 0.89769 0.70295 0.81489 0.0
H1021 H 0.94245 0.69933 0.88121 0.0
H1022 H 0.88871 0.68528 0.86157 0.0
C1023 C 0.92073 0.71652 0.79466 0.0
C1024 C 0.00786 0.03943 0.81767 0.0
C1025 C 0.97724 0.04404 0.80605 0.0
H1026 H 0.03915 0.04499 0.85763 0.0
C1027 C 0.95904 0.0666 0.82115 0.0
H1028 H 0.02269 0.02272 0.80613 0.0
C1029 C 0.96856 0.07933 0.85065 0.0
C1030 C -0.00353 0.06995 0.86479 0.0
H1031 H 0.93557 0.07118 0.81238 0.0
H1032 H 0.95192 0.09256 0.86418 0.0
C1033 C 0.01753 0.05259 0.84695 0.0
C1034 C 0.76742 0.19607 0.59376 0.0
C1035 C 0.77144 0.1633 0.59115 0.0
H1036 H 0.75806 0.2355 0.62429 0.0
C1037 C 0.77035 0.14517 0.61839 0.0
H1038 H 0.76797 0.21054 0.57301 0.0
C1039 C 0.76369 0.15924 0.64748 0.0
C1040 C 0.75859 0.19182 0.64996 0.0
H1041 H 0.77292 0.11981 0.617 0.0
H1042 H 0.76245 0.14452 0.66804 0.0
C1043 C 0.76138 0.21028 0.62298 0.0
C1044 C 0.54235 0.96265 0.35377 0.0
C1045 C 0.52714 0.98297 0.33367 0.0
H1046 H 0.54207 0.94167 0.39924 0.0
C1047 C 0.49592 0.9907 0.34037 0.0
H1048 H 0.56626 0.95592 0.34896 0.0
C1049 C 0.48184 0.98179 0.36873 0.0
C1050 C 0.49885 0.96518 0.39071 0.0
H1051 H 0.48335 0.0058 0.32498 0.0
H1052 H 0.45938 -0.00875 0.37511 0.0
C1053 C 0.52827 0.9539 0.38226 0.0
C1054 C 0.73829 0.88113 0.13159 0.0
C1055 C 0.75354 0.86622 0.10657 0.0
H1056 H 0.72767 0.88131 0.18066 0.0
C1057 C 0.77161 0.84017 0.1127 0.0
H1058 H 0.72439 0.90138 0.12766 0.0
C1059 C 0.77367 0.82872 0.14314 0.0
C1060 C 0.75757 0.84302 0.16798 0.0
H1061 H 0.7839 0.82832 0.09393 0.0
H1062 H 0.78718 0.80819 0.14701 0.0
C1063 C 0.74024 0.86962 0.16197 0.0
C1064 C 0.89717 0.98687 0.63389 0.0
C1065 C 0.91805 0.97563 0.65631 0.0
H1066 H 0.88504 0.98947 0.58514 0.0
C1067 C 0.94182 0.95585 0.64638 0.0
H1068 H 0.87832 0.00177 0.64087 0.0
C1069 C 0.9454 0.9484 0.6145 0.0
C1070 C 0.92543 0.96083 0.59197 0.0
H1071 H 0.95796 0.94635 0.66318 0.0
H1072 H 0.96466 0.93405 0.60748 0.0
C1073 C 0.90086 0.97958 0.602 0.0
C1074 C 0.77184 0.21142 0.41039 0.0
C1075 C 0.74942 0.2101 0.43478 0.0
H1076 H 0.78543 0.23236 0.36648 0.0
C1077 C 0.72634 0.23265 0.43613 0.0
H1078 H 0.79009 0.19454 0.40897 0.0
C1079 C 0.72372 0.25404 0.41202 0.0
C1080 C 0.74441 0.25366 0.38635 0.0
H1081 H 0.70901 0.23264 0.45488 0.0
H1082 H 0.70423 0.26957 0.41245 0.0
C1083 C 0.76944 0.23327 0.38633 0.0
C1084 C 0.57078 -0.0046 0.14276 0.0
C1085 C 0.55415 -0.00603 0.17123 0.0
H1086 H 0.56761 -0.00555 0.09246 0.0
C1087 C 0.52075 0.98912 0.17065 0.0
H1088 H 0.59649 -0.00062 0.1426 0.0
C1089 C 0.50421 0.98603 0.14201 0.0
C1090 C 0.52077 0.98847 0.11354 0.0
H1091 H 0.5074 0.98794 0.19237 0.0
H1092 H 0.47848 0.98231 0.14214 0.0
C1093 C 0.5542 -0.00701 0.11414 0.0
C1094 C 0.72362 0.80422 0.92282 0.0
C1095 C 0.74644 0.80317 0.94707 0.0
H1096 H 0.7091 0.78715 0.87652 0.0
C1097 C 0.76804 0.77924 0.94618 0.0
H1098 H 0.7065 0.82227 0.92311 0.0
C1099 C 0.76947 0.75929 0.91974 0.0
C1100 C 0.7492 0.76281 0.89386 0.0
H1101 H 0.78545 0.7774 0.96487 0.0
H1102 H 0.78811 0.74281 0.91852 0.0
C1103 C 0.72496 0.78401 0.89627 0.0
C1104 C 0.83322 0.98325 0.00851 0.0
C1105 C 0.82448 0.95681 -0.0112 0.0
H1106 H 0.86978 0.01899 0.02175 0.0
C1107 C 0.84502 0.94817 0.96465 0.0
H1108 H 0.81783 0.9903 0.02742 0.0
C1109 C 0.87443 0.96491 0.96108 0.0
C1110 C 0.88406 0.99005 0.98209 0.0
H1111 H 0.83874 0.92791 0.94912 0.0
H1112 H 0.89026 0.9571 0.94288 0.0
C1113 C 0.86297 -0.00047 0.00542 0.0
C1114 C 0.33196 0.55336 0.96183 0.0
C1115 C 0.31054 0.54342 0.98545 0.0
H1116 H 0.37415 0.54303 0.93669 0.0
C1117 C 0.30971 0.51188 -0.0048 0.0
H1118 H 0.33277 0.57746 0.95354 0.0
C1119 C 0.33264 0.49189 0.98458 0.0
C1120 C 0.35694 0.50343 0.96461 0.0
H1121 H 0.29296 0.50339 0.01285 0.0
H1122 H 0.3339 0.46897 -0.00469 0.0
C1123 C 0.35522 0.53345 0.95159 0.0
C1124 C 0.18435 0.60855 0.72162 0.0
C1125 C 0.19135 0.57894 0.73308 0.0
H1126 H 0.20151 0.65677 0.71464 0.0
C1127 C 0.22223 0.57436 0.74413 0.0
H1128 H 0.16077 0.61238 0.71265 0.0
C1129 C 0.24523 0.59972 0.74569 0.0
C1130 C 0.23793 0.6295 0.73501 0.0
H1131 H 0.22808 0.5516 0.753 0.0
H1132 H 0.26822 0.59646 0.75637 0.0
C1133 C 0.2077 0.63362 0.72219 0.0
C1134 C 0.16739 0.41587 0.46465 0.0
C1135 C 0.18484 0.43185 0.48934 0.0
H1136 H 0.12388 0.41167 0.43798 0.0
C1137 C 0.17333 0.45934 0.50309 0.0
H1138 H 0.17581 0.39477 0.45334 0.0
C1139 C 0.14381 0.46938 0.49379 0.0
C1140 C 0.12514 0.45176 0.47097 0.0
H1141 H 0.18645 0.47229 0.52194 0.0
H1142 H 0.1347 0.48962 0.50607 0.0
C1143 C 0.13768 0.42558 0.45573 0.0
C1144 C 0.87818 0.88545 0.80096 0.0
C1145 C 0.8616 0.90909 0.78657 0.0
H1146 H 0.87785 0.83626 0.81254 0.0
C1147 C 0.83034 0.90169 0.77538 0.0
H1148 H 0.90224 0.89052 0.80983 0.0
C1149 C 0.81693 0.87075 0.7761 0.0
C1150 C 0.83414 0.84683 0.78882 0.0
H1151 H 0.81678 0.91934 0.76426 0.0
H1152 H 0.79337 0.86538 0.76602 0.0
C1153 C 0.86432 0.8545 0.8024 0.0
C1154 C 0.65556 0.05111 0.52849 0.0
C1155 C 0.66441 0.0728 0.50495 0.0
H1156 H 0.61809 0.02111 0.54816 0.0
C1157 C 0.64186 0.08036 0.48239 0.0
H1158 H 0.67252 0.04497 0.54629 0.0
C1159 C 0.61096 0.06657 0.48335 0.0
C1160 C 0.60189 0.04521 0.50711 0.0
H1161 H 0.64804 0.09694 0.46398 0.0
H1162 H 0.59405 0.07307 0.46565 0.0
C1163 C 0.62444 0.03756 0.52968 0.0
C1164 C 0.16087 0.39594 0.78426 0.0
C1165 C 0.17948 0.41664 0.76547 0.0
H1166 H 0.15725 0.35057 0.80595 0.0
C1167 C 0.21148 0.41073 0.75997 0.0
H1168 H 0.13622 0.40014 0.78902 0.0
C1169 C 0.22385 0.38302 0.77064 0.0
C1170 C 0.20409 0.36056 0.78626 0.0
H1171 H 0.22647 0.4267 0.74596 0.0
H1172 H 0.24769 0.37768 0.76376 0.0
C1173 C 0.17299 0.36783 0.79424 0.0
C1174 C 0.32833 0.61172 0.28479 0.0
C1175 C 0.31283 0.58949 0.26376 0.0
H1176 H 0.32617 0.65649 0.3093 0.0
C1177 C 0.28083 0.59255 0.25569 0.0
H1178 H 0.3529 0.60947 0.29173 0.0
C1179 C 0.26525 0.6187 0.26641 0.0
C1180 C 0.28162 0.64283 0.28478 0.0
H1181 H 0.26806 0.57518 0.24022 0.0
H1182 H 0.24105 0.62103 0.2583 0.0
C1183 C 0.3129 0.63841 0.29507 0.0
C1184 C 0.53695 0.6708 0.53449 0.0
C1185 C 0.52531 0.67239 0.56536 0.0
H1186 H 0.5392 0.64312 0.49179 0.0
C1187 C 0.50317 0.64839 0.57538 0.0
H1188 H 0.5536 0.68923 0.5259 0.0
C1189 C 0.49448 0.62227 0.55573 0.0
C1190 C 0.508 0.6194 0.52571 0.0
H1191 H 0.49313 0.6493 0.5988 0.0
H1192 H 0.47861 0.60348 0.56487 0.0
C1193 C 0.5284 0.64451 0.51484 0.0
C1194 C 0.60157 0.18803 0.82236 0.0
C1195 C 0.58008 0.20957 0.81164 0.0
H1196 H 0.64756 0.16979 0.81672 0.0
C1197 C 0.58631 0.22527 0.78332 0.0
H1198 H 0.59709 0.17519 0.84384 0.0
C1199 C 0.61507 0.22199 0.76784 0.0
C1200 C 0.63755 0.20241 0.78002 0.0
H1201 H 0.57006 0.24182 0.77436 0.0
H1202 H 0.62087 0.23675 0.74786 0.0
C1203 C 0.63009 0.18435 0.80652 0.0
C1204 C 0.98406 0.39422 0.07835 0.0
C1205 C 0.99171 0.36638 0.06235 0.0
H1206 H 0.98184 0.44457 0.07656 0.0
C1207 C 0.00296 0.36803 0.03128 0.0
H1208 H 0.97561 0.39352 0.10239 0.0
C1209 C 0.00584 0.39716 0.01616 0.0
C1210 C -0.00129 0.42508 0.03244 0.0
H1211 H 0.00904 0.34673 0.01855 0.0
H1212 H 0.01384 0.39793 -0.00803 0.0
C1213 C 0.988 0.42338 0.06369 0.0
C1214 C 0.91609 0.83296 0.32705 0.0
C1215 C 0.93287 0.80785 0.31487 0.0
H1216 H 0.87177 0.85523 0.32751 0.0
C1217 C 0.91946 0.78856 0.2902 0.0
H1218 H 0.92604 0.84805 0.34619 0.0
C1219 C 0.88892 0.79304 0.27905 0.0
C1220 C 0.87084 0.81637 0.29298 0.0
H1221 H 0.93216 0.7692 0.28031 0.0
H1222 H 0.87876 0.77674 0.26096 0.0
C1223 C 0.88508 0.83699 0.3164 0.0
C1224 C 0.49093 0.31026 0.95235 0.0
C1225 C 0.48024 0.30434 0.92118 0.0
H1226 H 0.49185 0.34195 -0.0074 0.0
C1227 C 0.45872 0.32451 0.90802 0.0
H1228 H 0.50714 0.29486 0.96329 0.0
C1229 C 0.44953 0.35102 0.92489 0.0
C1230 C 0.46181 0.35824 0.95528 0.0
H1231 H 0.44936 0.32024 0.88432 0.0
H1232 H 0.43392 0.36667 0.91343 0.0
C1233 C 0.48185 0.33704 0.96925 0.0
C1234 C 0.85603 0.23415 0.20572 0.0
C1235 C 0.87543 0.26137 0.19858 0.0
H1236 H 0.81283 0.21565 0.22703 0.0
C1237 C 0.86674 0.29128 0.20916 0.0
H1238 H 0.86228 0.21081 0.19774 0.0
C1239 C 0.83908 0.29391 0.22676 0.0
C1240 C 0.81923 0.26676 0.2332 0.0
H1241 H 0.88147 0.31256 0.2041 0.0
H1242 H 0.83271 0.31728 0.23448 0.0
C1243 C 0.82785 0.23687 0.22245 0.0
C1244 C 0.02748 0.63249 0.42886 0.0
C1245 C 0.00493 0.63661 0.40487 0.0
H1246 H 0.04722 0.60015 0.46076 0.0
C1247 C 0.98516 0.61041 0.39423 0.0
H1248 H 0.04312 0.65229 0.43749 0.0
C1249 C 0.98757 0.58081 0.40736 0.0
C1250 C 0.00979 0.57653 0.4316 0.0
H1251 H 0.96764 0.61269 0.37571 0.0
H1252 H 0.9717 0.56127 0.39848 0.0
C1253 C 0.02989 0.60265 0.44214 0.0
C1254 C 0.62689 0.74677 0.71612 0.0
C1255 C 0.62947 0.758 0.68524 0.0
H1256 H 0.65088 0.73771 0.7592 0.0
C1257 C 0.65904 0.77129 0.67513 0.0
H1258 H 0.60441 0.73662 0.72481 0.0
C1259 C 0.68574 0.77215 0.69505 0.0
C1260 C 0.68341 0.75957 0.72542 0.0
H1261 H 0.66177 0.78038 0.65159 0.0
H1262 H 0.70842 0.78159 0.68617 0.0
C1263 C 0.65355 0.74748 0.73594 0.0
C1264 C 0.5485 0.51651 0.65612 0.0
C1265 C 0.57341 0.49703 0.66293 0.0
H1266 H 0.51723 0.53242 0.62035 0.0
C1267 C 0.5833 0.4758 0.63961 0.0
H1268 H 0.54021 0.53289 0.6738 0.0
C1269 C 0.57023 0.47553 0.60952 0.0
C1270 C 0.54689 0.49637 0.60203 0.0
H1271 H 0.60193 0.45997 0.64422 0.0
H1272 H 0.57926 0.45969 0.59172 0.0
C1273 C 0.53521 0.51613 0.62572 0.0
C1274 C 0.73332 0.29436 0.92286 0.0
C1275 C 0.76122 0.29814 0.9411 0.0
H1276 H 0.71185 0.27833 0.87935 0.0
C1277 C 0.78926 0.28568 0.92973 0.0
H1278 H 0.71132 0.30344 0.93116 0.0
C1279 C 0.78982 0.27151 0.89956 0.0
C1280 C 0.76224 0.26943 0.88058 0.0
H1281 H 0.81116 0.28834 0.94343 0.0
H1282 H 0.81202 0.26338 0.89072 0.0
C1283 C 0.73376 0.28 0.89305 0.0
C1284 C 0.94276 0.52185 0.15668 0.0
C1285 C 0.91213 0.53211 0.16225 0.0
H1286 H 0.98083 0.51833 0.1238 0.0
C1287 C 0.89705 0.54859 0.13865 0.0
H1288 H 0.95515 0.50937 0.17452 0.0
C1289 C 0.91172 0.55369 0.10972 0.0
C1290 C 0.94196 0.54273 0.10383 0.0
H1291 H 0.87355 0.55699 0.14222 0.0
H1292 H 0.89907 0.56571 0.09172 0.0
C1293 C 0.95762 0.52728 0.12778 0.0
C1294 C 0.72712 0.73618 0.43659 0.0
C1295 C 0.75808 0.73222 0.44784 0.0
H1296 H 0.69865 0.75372 0.39954 0.0
C1297 C 0.78427 0.74697 0.43253 0.0
H1298 H 0.70656 0.7248 0.44796 0.0
C1299 C 0.77962 0.76444 0.40557 0.0
C1300 C 0.74881 0.76639 0.393 0.0
H1301 H 0.80831 0.7442 0.44084 0.0
H1302 H 0.80028 0.77451 0.39333 0.0
C1303 C 0.72255 0.75266 0.409 0.0
C1304 C 0.52787 0.48088 0.8379 0.0
C1305 C 0.54242 0.51034 0.82989 0.0
H1306 H 0.49975 0.45484 0.87135 0.0
C1307 C 0.53835 0.53719 0.84933 0.0
H1308 H 0.5306 0.45992 0.82315 0.0
C1309 C 0.52128 0.53423 0.87733 0.0
C1310 C 0.50727 0.50457 0.88567 0.0
H1311 H 0.54951 0.56018 0.84358 0.0
H1312 H 0.51951 0.55492 0.89267 0.0
C1313 C 0.51005 0.4781 0.86533 0.0
C1314 C 0.70928 0.36346 0.12686 0.0
C1315 C 0.72623 0.34532 0.10535 0.0
H1316 H 0.68687 0.36572 0.1718 0.0
C1317 C 0.73175 0.31384 0.1125 0.0
H1318 H 0.70422 0.38766 0.1219 0.0
C1319 C 0.72141 0.3011 0.14097 0.0
C1320 C 0.70543 0.3196 0.16299 0.0
H1321 H 0.74431 0.29906 0.09624 0.0
H1322 H 0.72693 0.27706 0.14612 0.0
C1323 C 0.69899 0.35074 0.15536 0.0
C1324 C 0.98282 0.4714 0.31831 0.0
C1325 C 0.95512 0.45473 0.30667 0.0
H1326 H 0.01754 0.47593 0.35546 0.0
C1327 C 0.94495 0.42563 0.3199 0.0
H1328 H 0.9911 0.49382 0.30834 0.0
C1329 C 0.95967 0.41573 0.34731 0.0
C1330 C 0.9853 0.4343 0.36093 0.0
H1331 H 0.92349 0.41247 0.31128 0.0
H1332 H 0.94881 0.39571 0.35971 0.0
C1333 C -0.00178 0.46084 0.34493 0.0
C1334 C 0.81907 0.66598 0.62821 0.0
C1335 C 0.80333 0.68282 0.60533 0.0
H1336 H 0.83393 0.66406 0.67629 0.0
C1337 C 0.79416 0.71347 0.613 0.0
H1338 H 0.82696 0.64254 0.62297 0.0
C1339 C 0.79846 0.72596 0.64366 0.0
C1340 C 0.81182 0.7079 0.66711 0.0
H1341 H 0.78235 0.72722 0.59577 0.0
H1342 H 0.78945 0.74882 0.6494 0.0
C1343 C 0.8232 0.67837 0.65879 0.0
C1344 C 0.67399 0.60129 0.47534 0.0
C1345 C 0.69726 0.58646 0.49251 0.0
H1346 H 0.62738 0.59702 0.4547 0.0
C1347 C 0.69254 0.55394 0.49854 0.0
H1348 H 0.67719 0.62619 0.46979 0.0
C1349 C 0.66415 0.53712 0.48957 0.0
C1350 C 0.63988 0.55252 0.47447 0.0
H1351 H 0.71029 0.54164 0.51114 0.0
H1352 H 0.66062 0.51247 0.49598 0.0
C1353 C 0.64557 0.58445 0.46634 0.0
C1354 C 0.12926 0.92805 0.49944 0.0
C1355 C 0.13627 0.92513 0.53161 0.0
H1356 H 0.09439 0.93962 0.46504 0.0
C1357 C 0.1131 0.93149 0.55409 0.0
H1358 H 0.14687 0.92333 0.48175 0.0
C1359 C 0.08302 0.93975 0.54454 0.0
C1360 C 0.07607 0.94293 0.51245 0.0
H1361 H 0.11798 0.92923 0.57902 0.0
H1362 H 0.0652 0.94383 0.56222 0.0
C1363 C 0.09947 0.93748 0.48994 0.0
C1364 C 0.36059 0.88921 0.74897 0.0
C1365 C 0.33881 0.91251 0.74468 0.0
H1366 H 0.36814 0.8426 0.76404 0.0
C1367 C 0.30689 0.90624 0.75329 0.0
H1368 H 0.38553 0.89357 0.74322 0.0
C1369 C 0.29682 0.87681 0.76539 0.0
C1370 C 0.31866 0.85345 0.7695 0.0
H1371 H 0.28973 0.92402 0.75062 0.0
H1372 H 0.27191 0.87223 0.77111 0.0
C1373 C 0.3507 0.86013 0.76148 0.0
C1374 C 0.33058 0.05099 0.01859 0.0
C1375 C 0.32352 0.0594 0.04971 0.0
H1376 H 0.35625 0.02191 0.98775 0.0
C1377 C 0.33608 0.04232 0.07448 0.0
H1378 H 0.32062 0.06317 -0.00098 0.0
C1379 C 0.35727 0.01864 0.06809 0.0
C1380 C 0.36555 0.01138 0.03682 0.0
H1381 H 0.33061 0.04819 0.09874 0.0
H1382 H 0.36818 0.00715 0.08756 0.0
C1383 C 0.3509 0.02705 0.01221 0.0
C1384 C 0.72252 0.57071 0.76389 0.0
C1385 C 0.69169 0.56859 0.77646 0.0
H1386 H 0.76606 0.59927 0.75927 0.0
C1387 C 0.68305 0.59173 0.79853 0.0
H1388 H 0.73 0.55292 0.7472 0.0
C1389 C 0.70375 0.61803 0.80568 0.0
C1390 C 0.73338 0.62176 0.79075 0.0
H1391 H 0.65973 0.59031 0.80925 0.0
H1392 H 0.69567 0.63637 0.82142 0.0
C1393 C 0.74326 0.59715 0.771 0.0
C1394 C 0.81917 0.47486 -0.01023 0.0
C1395 C 0.81997 0.44177 0.98609 0.0
H1396 H 0.84479 0.52001 0.98576 0.0
C1397 C 0.84554 0.42915 0.97018 0.0
H1398 H 0.79937 0.48526 0.00137 0.0
C1399 C 0.87117 0.44904 0.96055 0.0
C1400 C 0.872 0.48189 0.96724 0.0
H1401 H 0.84631 0.40377 0.96613 0.0
H1402 H 0.89137 0.43828 0.95009 0.0
C1403 C 0.84503 0.49478 0.9805 0.0
C1404 C 0.28114 0.08842 0.77057 0.0
C1405 C 0.28945 0.07576 0.74114 0.0
H1406 H 0.25756 0.12464 0.79538 0.0
C1407 C 0.27744 0.08851 0.71355 0.0
H1408 H 0.28991 0.07881 0.79217 0.0
C1409 C 0.2594 0.11506 0.71532 0.0
C1410 C 0.25237 0.12869 0.74474 0.0
H1411 H 0.28349 0.07912 0.69054 0.0
H1412 H 0.25203 0.12568 0.6937 0.0
C1413 C 0.26237 0.11442 0.77237 0.0
C1414 C 0.21818 0.91282 0.20313 0.0
C1415 C 0.19816 0.92702 0.22499 0.0
H1416 H 0.2467 0.87358 0.19281 0.0
C1417 C 0.19461 0.91423 0.25498 0.0
H1418 H 0.22148 0.92238 0.17984 0.0
C1419 C 0.20934 0.88686 0.26251 0.0
C1420 C 0.22766 0.87125 0.24008 0.0
H1421 H 0.17981 0.92495 0.27251 0.0
H1422 H 0.20522 0.87723 0.28567 0.0
C1423 C 0.23275 0.88501 0.21057 0.0
C1424 C 0.53086 0.34289 0.44921 0.0
C1425 C 0.50906 0.33363 0.4728 0.0
H1426 H 0.56138 0.38081 0.43143 0.0
C1427 C 0.50904 0.35132 0.5012 0.0
H1428 H 0.53218 0.32925 0.42743 0.0
C1429 C 0.5272 0.38018 0.50404 0.0
C1430 C 0.54468 0.39178 0.47819 0.0
H1431 H 0.49295 0.34441 0.52 0.0
H1432 H 0.52404 0.39525 0.52468 0.0
C1433 C 0.54814 0.37214 0.45164 0.0
C1434 C 0.40937 0.76585 0.20884 0.0
C1435 C 0.42385 0.74089 0.22336 0.0
H1436 H 0.37091 0.79651 0.20968 0.0
C1437 C 0.41353 0.73152 0.25331 0.0
H1438 H 0.41718 0.77399 0.18598 0.0
C1439 C 0.38745 0.74491 0.26725 0.0
C1440 C 0.3708 0.76755 0.25123 0.0
H1441 H 0.42469 0.71283 0.26541 0.0
H1442 H 0.37881 0.7355 0.28934 0.0
C1443 C 0.38303 0.779 0.2226 0.0
C1444 C 0.97113 0.69925 0.95544 0.0
C1445 C -0.00327 0.71052 0.97519 0.0
H1446 H 0.939 0.65943 0.94252 0.0
C1447 C 0.00249 0.69452 0.00301 0.0
H1448 H 0.96548 0.71159 0.9343 0.0
C1449 C 0.98623 0.66522 0.00831 0.0
C1450 C 0.96448 0.65163 0.98571 0.0
H1451 H 0.02173 0.70284 0.01888 0.0
H1452 H -0.00619 0.65135 0.02782 0.0
C1453 C 0.95542 0.66967 0.96039 0.0
C1454 C 0.07838 0.18159 0.70341 0.0
C1455 C 0.06288 0.20843 0.69427 0.0
H1456 H 0.11734 0.16481 0.73003 0.0
C1457 C 0.06973 0.23753 0.71014 0.0
H1458 H 0.073 0.1588 0.69158 0.0
C1459 C 0.09378 0.24058 0.73282 0.0
C1460 C 0.11212 0.21485 0.73928 0.0
H1461 H 0.05745 0.2583 0.70396 0.0
H1462 H 0.10012 0.26395 0.7431 0.0
C1463 C 0.10326 0.18485 0.72573 0.0
C1464 C 0.46804 0.60496 0.10905 0.0
C1465 C 0.48672 0.63201 0.10006 0.0
H1466 H 0.4506 0.5574 0.09705 0.0
C1467 C 0.50301 0.63106 0.07122 0.0
H1468 H 0.45523 0.60486 0.13109 0.0
C1469 C 0.50063 0.60374 0.05179 0.0
C1470 C 0.48161 0.57685 0.06057 0.0
H1471 H 0.51777 0.65143 0.06364 0.0
H1472 H 0.51336 0.60386 0.0297 0.0
C1473 C 0.46538 0.57776 0.08946 0.0
C1474 C 0.15599 0.73237 0.88592 0.0
C1475 C 0.12873 0.74051 0.8693 0.0
H1476 H 0.20603 0.72469 0.88336 0.0
C1477 C 0.13082 0.74548 0.83674 0.0
H1478 H 0.15503 0.7283 0.91101 0.0
C1479 C 0.15969 0.74419 0.82145 0.0
C1480 C 0.18708 0.73722 0.8381 0.0
H1481 H 0.11038 0.7516 0.82304 0.0
H1482 H 0.16064 0.74897 0.79648 0.0
C1483 C 0.18504 0.73035 0.87024 0.0
C1484 C 0.97703 0.31517 0.56038 0.0
C1485 C 0.00308 0.29674 0.55474 0.0
H1486 H 0.9533 0.35663 0.54838 0.0
C1487 C 0.02364 0.3046 0.52978 0.0
H1488 H 0.96064 0.30952 0.5793 0.0
C1489 C 0.01907 0.3311 0.51165 0.0
C1490 C -0.00586 0.35069 0.5184 0.0
H1491 H 0.04366 0.29057 0.52455 0.0
H1492 H 0.03612 0.33708 0.49337 0.0
C1493 C 0.97275 0.34204 0.54255 0.0
C1494 C 0.36354 0.2607 0.34971 0.0
C1495 C 0.36813 0.27735 0.37862 0.0
H1496 H 0.33122 0.2438 0.31349 0.0
C1497 C 0.3419 0.29011 0.39343 0.0
H1498 H 0.38306 0.25017 0.33775 0.0
C1499 C 0.31167 0.28652 0.37918 0.0
C1500 C 0.30732 0.26958 0.35031 0.0
H1501 H 0.34472 0.3028 0.4159 0.0
H1502 H 0.29184 0.29697 0.39064 0.0
C1503 C 0.33356 0.25662 0.33593 0.0
C1504 C 0.47871 0.49375 0.32133 0.0
C1505 C 0.45417 0.51413 0.31691 0.0
H1506 H 0.51651 0.48095 0.35125 0.0
C1507 C 0.45305 0.54152 0.3363 0.0
H1508 H 0.48063 0.47289 0.30623 0.0
C1509 C 0.47397 0.54629 0.36209 0.0
C1510 C 0.49605 0.52373 0.36844 0.0
H1511 H 0.4345 0.55777 0.33309 0.0
H1512 H 0.47074 0.56574 0.37865 0.0
C1513 C 0.49951 0.49854 0.34685 0.0
C1514 C 0.27259 0.712 0.09983 0.0
C1515 C 0.27256 0.67867 0.09847 0.0
H1516 H 0.26669 0.75354 0.12874 0.0
C1517 C 0.26843 0.66159 0.12618 0.0
H1518 H 0.27572 0.72568 0.07868 0.0
C1519 C 0.26238 0.6774 0.15444 0.0
C1520 C 0.26095 0.71059 0.15557 0.0
H1521 H 0.26805 0.6359 0.12575 0.0
H1522 H 0.2585 0.66353 0.17538 0.0
C1523 C 0.26715 0.72791 0.1283 0.0
C1524 C 0.03248 0.54384 0.82513 0.0
C1525 C 0.05054 0.51823 0.81667 0.0
H1526 H 0.00335 0.56473 0.85988 0.0
C1527 C 0.05041 0.49197 0.83645 0.0
H1528 H 0.03185 0.56434 0.81034 0.0
C1529 C 0.03352 0.49199 0.8648 0.0
C1530 C 0.01693 0.51846 0.87395 0.0
H1531 H 0.06391 0.47176 0.8304 0.0
H1532 H 0.0348 0.47205 0.88023 0.0
C1533 C 0.01604 0.54404 0.85351 0.0
C1534 C 0.26927 0.29251 0.60393 0.0
C1535 C 0.25401 0.32008 0.59672 0.0
H1536 H 0.27533 0.25606 0.63705 0.0
C1537 C 0.23217 0.33181 0.61821 0.0
H1538 H 0.28618 0.2828 0.58784 0.0
C1539 C 0.22582 0.31637 0.64638 0.0
C1540 C 0.24127 0.28893 0.65369 0.0
H1541 H 0.21992 0.35293 0.61331 0.0
H1542 H 0.20901 0.32616 0.66253 0.0
C1543 C 0.263 0.27713 0.63213 0.0
C1544 C 0.43634 0.46193 0.15799 0.0
C1545 C 0.41425 0.48555 0.16004 0.0
H1546 H 0.46246 0.43192 0.12736 0.0
C1547 C 0.40253 0.498 0.13234 0.0
H1548 H 0.44584 0.45198 0.17909 0.0
C1549 C 0.41134 0.48604 0.1032 0.0
C1550 C 0.43254 0.4617 0.10098 0.0
H1551 H 0.38558 0.51621 0.13306 0.0
H1552 H 0.40142 0.49602 0.0823 0.0
C1553 C 0.44571 0.45029 0.12855 0.0
C1554 C 0.31864 0.67106 0.91711 0.0
C1555 C 0.3006 0.69128 0.93542 0.0
H1556 H 0.34121 0.66387 0.87274 0.0
C1557 C 0.2983 0.72283 0.92647 0.0
H1558 H 0.32116 0.64673 0.92373 0.0
C1559 C 0.31076 0.73291 0.89777 0.0
C1560 C 0.32491 0.71127 0.87753 0.0
H1561 H 0.28501 0.73903 0.94055 0.0
H1562 H 0.30595 0.75636 0.88992 0.0
C1563 C 0.33046 0.68092 0.88814 0.0
C1564 C 0.04123 0.48877 0.64599 0.0
C1565 C 0.07459 0.48964 0.64845 0.0
H1566 H 0.00062 0.48707 0.61487 0.0
C1567 C 0.09294 0.49084 0.62101 0.0
H1568 H 0.02666 0.48808 0.66693 0.0
C1569 C 0.07819 0.49163 0.59153 0.0
C1570 C 0.04483 0.4903 0.58899 0.0
H1571 H 0.11873 0.492 0.62238 0.0
H1572 H 0.09287 0.49243 0.57065 0.0
C1573 C 0.0264 0.48848 0.61638 0.0
C1574 C 0.19628 0.31623 0.4352 0.0
C1575 C 0.22348 0.29986 0.44191 0.0
H1576 H 0.15788 0.32187 0.40288 0.0
C1577 C 0.22875 0.27199 0.42454 0.0
H1578 H 0.19123 0.33752 0.44847 0.0
C1579 C 0.20881 0.26242 0.39903 0.0
C1580 C 0.18373 0.28092 0.39031 0.0
H1581 H 0.2493 0.25871 0.4294 0.0
H1582 H 0.21506 0.24254 0.38423 0.0
C1583 C 0.17678 0.30703 0.40942 0.0
C1584 C 0.37597 0.40897 0.47576 0.0
C1585 C 0.35283 0.41935 0.49654 0.0
H1586 H 0.42241 0.4178 0.4566 0.0
C1587 C 0.35898 0.44822 0.51351 0.0
H1588 H 0.37191 0.38693 0.46225 0.0
C1589 C 0.38803 0.46587 0.51046 0.0
C1590 C 0.4114 0.4552 0.49011 0.0
H1591 H 0.34163 0.45692 0.52974 0.0
H1592 H 0.39229 0.48766 0.52432 0.0
C1593 C 0.40487 0.42678 0.47245 0.0
C1594 C 0.80592 0.00489 0.47019 0.0
C1595 C 0.80955 0.03761 0.46477 0.0
H1596 H 0.82646 0.96016 0.46498 0.0
C1597 C 0.83157 0.04874 0.44227 0.0
H1598 H 0.78844 -0.00445 0.48678 0.0
C1599 C 0.85317 0.02821 0.42948 0.0
C1600 C 0.85285 -0.00342 0.43918 0.0
H1601 H 0.83444 0.0738 0.43725 0.0
H1602 H 0.87302 0.03827 0.41603 0.0
C1603 C 0.82711 0.98438 0.45698 0.0
C1604 C 0.62303 0.13347 0.28522 0.0
C1605 C 0.63481 0.11181 0.26336 0.0
H1606 H 0.6265 0.18105 0.30412 0.0
C1607 C 0.65895 0.12235 0.24258 0.0
H1608 H 0.6044 0.12603 0.30145 0.0
C1609 C 0.67134 0.15379 0.24384 0.0
C1610 C 0.66013 0.17531 0.26614 0.0
H1611 H 0.66835 0.10628 0.22524 0.0
H1612 H 0.69014 0.16103 0.22771 0.0
C1613 C 0.63573 0.16492 0.28674 0.0
C1614 C 0.63062 0.90992 0.98237 0.0
C1615 C 0.65225 0.93542 -0.00863 0.0
H1616 H 0.58178 0.89478 0.97244 0.0
C1617 C 0.64206 0.96634 -0.00801 0.0
H1618 H 0.63804 0.88583 0.98157 0.0
C1619 C 0.61026 0.97153 0.98629 0.0
C1620 C 0.58778 0.94582 0.9804 0.0
H1621 H 0.65843 0.98647 -0.00172 0.0
H1622 H 0.603 -0.00439 -0.0115 0.0
C1623 C 0.59848 0.91506 0.97707 0.0
C1624 C 0.2942 0.42179 0.29022 0.0
C1625 C 0.29719 0.43591 0.26081 0.0
H1626 H 0.27099 0.38539 0.31717 0.0
C1627 C 0.27647 0.42527 0.236 0.0
H1628 H 0.3096 0.42985 0.30981 0.0
C1629 C 0.25448 0.39946 0.24 0.0
C1630 C 0.25254 0.38431 0.26904 0.0
H1631 H 0.27823 0.43594 0.21307 0.0
H1632 H 0.23986 0.3907 0.2201 0.0
C1633 C 0.27187 0.39645 0.2944 0.0
C1634 C 0.14126 0.60975 0.98397 0.0
C1635 C 0.16185 0.59753 0.00601 0.0
H1636 H 0.09397 0.60864 0.96533 0.0
C1637 C 0.14983 0.5744 0.02694 0.0
H1638 H 0.14983 0.62761 0.96762 0.0
C1639 C 0.11779 0.56367 0.02585 0.0
C1640 C 0.09727 0.57566 0.0036 0.0
H1641 H 0.16513 0.56465 0.04436 0.0
H1642 H 0.10921 0.54579 0.04218 0.0
C1643 C 0.10928 0.59881 0.98269 0.0
C1644 C 0.6655 0.93506 0.30831 0.0
C1645 C 0.67966 0.95697 0.28741 0.0
H1646 H 0.66973 0.89095 0.33131 0.0
C1647 C 0.71208 0.95555 0.28019 0.0
H1648 H 0.64063 0.93578 0.31453 0.0
C1649 C 0.72905 0.9305 0.29084 0.0
C1650 C 0.71355 0.90633 0.30823 0.0
H1651 H 0.72371 0.97248 0.26453 0.0
H1652 H 0.75297 0.92804 0.28225 0.0
C1653 C 0.68226 0.90967 0.31836 0.0
C1654 C 0.8435 0.09727 0.78957 0.0
C1655 C 0.82843 0.07147 0.77251 0.0
H1656 H 0.84005 0.14466 0.80753 0.0
C1657 C 0.79607 0.0721 0.76446 0.0
H1658 H 0.86832 0.09721 0.79654 0.0
C1659 C 0.77975 0.09908 0.7711 0.0
C1660 C 0.79557 0.12605 0.78568 0.0
H1661 H 0.78365 0.05227 0.75186 0.0
H1662 H 0.75529 0.09943 0.76301 0.0
C1663 C 0.8272 0.12436 0.79612 0.0
loop_
_geom_bond_atom_site_label_1
_geom_bond_atom_site_label_2
_geom_bond_distance
_geom_bond_site_symmetry_2
_ccdc_geom_bond_type
O0 Cd1 2.223 . S
O0 C8 1.315 . S
Cd1 O0 2.223 . S
Cd1 O4 2.297 1_455 S
Cd1 O5 2.439 1_455 S
Cd1 O11 2.240 . S
Cd2 O3 2.240 . S
Cd2 O10 2.223 . S
Cd2 O12 2.297 . S
Cd2 O13 2.439 . S
O3 Cd2 2.240 . S
O3 C8 1.279 . S
O4 Cd1 2.297 1_655 S
O4 C6 1.247 . S
O5 Cd1 2.439 1_655 S
O5 C6 1.208 . S
C6 O4 1.247 . S
C6 O5 1.208 . S
C7 O12 1.247 . S
C7 O13 1.208 . S
C8 O0 1.315 . S
C8 O3 1.279 . S
C9 O10 1.315 . S
C9 O11 1.279 . S
O10 Cd2 2.223 . S
O10 C9 1.315 . S
O11 Cd1 2.240 . S
O11 C9 1.279 . S
O12 Cd2 2.297 . S
O12 C7 1.247 . S
O13 Cd2 2.439 . S
O13 C7 1.208 . S
O14 Cd15 2.223 . S
O14 C22 1.315 . S
Cd15 O14 2.223 . S
Cd15 O18 2.297 . S
Cd15 O19 2.439 1_455 S
Cd15 O25 2.240 1_455 S
Cd16 O17 2.240 1_655 S
Cd16 O24 2.223 1_655 S
Cd16 O26 2.297 . S
Cd16 O27 2.439 . S
O17 Cd16 2.240 1_455 S
O17 C22 1.279 . S
O18 Cd15 2.297 . S
O18 C20 1.247 . S
O19 Cd15 2.439 1_655 S
O19 C20 1.208 1_655 S
C20 O18 1.247 . S
C20 O19 1.208 1_455 S
C21 O26 1.247 . S
C21 O27 1.208 . S
C22 O14 1.315 . S
C22 O17 1.279 . S
C23 O24 1.315 . S
C23 O25 1.279 1_455 S
O24 Cd16 2.223 1_455 S
O24 C23 1.315 . S
O25 Cd15 2.240 1_655 S
O25 C23 1.279 1_655 S
O26 Cd16 2.297 . S
O26 C21 1.247 . S
O27 Cd16 2.439 . S
O27 C21 1.208 . S
O28 Cd29 2.223 . S
O28 C36 1.315 . S
Cd29 O28 2.223 . S
Cd29 O32 2.297 . S
Cd29 O33 2.439 . S
Cd29 O39 2.240 . S
Cd30 O31 2.240 . S
Cd30 O38 2.223 . S
Cd30 O40 2.297 . S
Cd30 O41 2.439 . S
O31 Cd30 2.240 . S
O31 C36 1.279 . S
O32 Cd29 2.297 . S
O32 C34 1.247 . S
O33 Cd29 2.439 . S
O33 C34 1.208 . S
C34 O32 1.247 . S
C34 O33 1.208 . S
C35 O40 1.247 . S
C35 O41 1.208 . S
C36 O28 1.315 . S
C36 O31 1.279 . S
C37 O38 1.315 . S
C37 O39 1.279 . S
O38 Cd30 2.223 . S
O38 C37 1.315 . S
O39 Cd29 2.240 . S
O39 C37 1.279 . S
O40 Cd30 2.297 . S
O40 C35 1.247 . S
O41 Cd30 2.439 . S
O41 C35 1.208 . S
O42 Cd43 2.223 . S
O42 C50 1.315 . S
Cd43 O42 2.223 . S
Cd43 O46 2.297 . S
Cd43 O47 2.439 . S
Cd43 O53 2.240 . S
Cd44 O45 2.240 . S
Cd44 O52 2.223 . S
Cd44 O54 2.297 . S
Cd44 O55 2.439 . S
O45 Cd44 2.240 . S
O45 C50 1.279 . S
O46 Cd43 2.297 . S
O46 C48 1.247 . S
O47 Cd43 2.439 . S
O47 C48 1.208 . S
C48 O46 1.247 . S
C48 O47 1.208 . S
C49 O54 1.247 . S
C49 O55 1.208 . S
C50 O42 1.315 . S
C50 O45 1.279 . S
C51 O52 1.315 . S
C51 O53 1.279 . S
O52 Cd44 2.223 . S
O52 C51 1.315 . S
O53 Cd43 2.240 . S
O53 C51 1.279 . S
O54 Cd44 2.297 . S
O54 C49 1.247 . S
O55 Cd44 2.439 . S
O55 C49 1.208 . S
O56 Cd57 2.223 . S
O56 C64 1.315 . S
Cd57 O56 2.223 . S
Cd57 O60 2.297 1_545 S
Cd57 O61 2.439 1_545 S
Cd57 O67 2.240 . S
Cd58 O59 2.240 . S
Cd58 O66 2.223 . S
Cd58 O68 2.297 . S
Cd58 O69 2.439 . S
O59 Cd58 2.240 . S
O59 C64 1.279 . S
O60 Cd57 2.297 1_565 S
O60 C62 1.247 . S
O61 Cd57 2.439 1_565 S
O61 C62 1.208 . S
C62 O60 1.247 . S
C62 O61 1.208 . S
C63 O68 1.247 . S
C63 O69 1.208 . S
C64 O56 1.315 . S
C64 O59 1.279 . S
C65 O66 1.315 . S
C65 O67 1.279 . S
O66 Cd58 2.223 . S
O66 C65 1.315 . S
O67 Cd57 2.240 . S
O67 C65 1.279 . S
O68 Cd58 2.297 . S
O68 C63 1.247 . S
O69 Cd58 2.439 . S
O69 C63 1.208 . S
O70 Cd71 2.223 . S
O70 C78 1.315 . S
Cd71 O70 2.223 . S
Cd71 O74 2.297 . S
Cd71 O75 2.439 . S
Cd71 O81 2.240 . S
Cd72 O73 2.240 . S
Cd72 O80 2.223 . S
Cd72 O82 2.297 . S
Cd72 O83 2.439 . S
O73 Cd72 2.240 . S
O73 C78 1.279 . S
O74 Cd71 2.297 . S
O74 C76 1.247 . S
O75 Cd71 2.439 . S
O75 C76 1.208 . S
C76 O74 1.247 . S
C76 O75 1.208 . S
C77 O82 1.247 . S
C77 O83 1.208 . S
C78 O70 1.315 . S
C78 O73 1.279 . S
C79 O80 1.315 . S
C79 O81 1.279 . S
O80 Cd72 2.223 . S
O80 C79 1.315 . S
O81 Cd71 2.240 . S
O81 C79 1.279 . S
O82 Cd72 2.297 . S
O82 C77 1.247 . S
O83 Cd72 2.439 . S
O83 C77 1.208 . S
O84 Cd85 2.215 1_565 S
O84 C92 1.313 1_565 S
Cd85 O84 2.215 1_545 S
Cd85 O88 2.297 . S
Cd85 O89 2.439 . S
Cd85 O95 2.240 1_545 S
Cd86 O87 2.240 1_565 S
Cd86 O94 2.223 . S
Cd86 O96 2.297 . S
Cd86 O97 2.439 1_565 S
O87 Cd86 2.240 1_545 S
O87 C92 1.279 . S
O88 Cd85 2.297 . S
O88 C90 1.247 . S
O89 Cd85 2.439 . S
O89 C90 1.208 . S
C90 O88 1.247 . S
C90 O89 1.208 . S
C91 O96 1.247 . S
C91 O97 1.208 1_565 S
C92 O84 1.313 1_545 S
C92 O87 1.279 . S
C93 O94 1.315 . S
C93 O95 1.279 . S
O94 Cd86 2.223 . S
O94 C93 1.315 . S
O95 Cd85 2.240 1_565 S
O95 C93 1.279 . S
O96 Cd86 2.297 . S
O96 C91 1.247 . S
O97 Cd86 2.439 1_545 S
O97 C91 1.208 1_545 S
O98 Cd99 2.223 . S
O98 C106 1.315 . S
Cd99 O98 2.223 . S
Cd99 O102 2.297 . S
Cd99 O103 2.439 . S
Cd99 O109 2.244 . S
Cd100 O101 2.240 1_556 S
Cd100 O108 2.223 1_556 S
Cd100 O110 2.297 . S
Cd100 O111 2.439 . S
O101 Cd100 2.240 1_554 S
O101 C106 1.279 . S
O102 Cd99 2.297 . S
O102 C104 1.247 . S
O103 Cd99 2.439 . S
O103 C104 1.208 . S
C104 O102 1.247 . S
C104 O103 1.208 . S
C105 O110 1.247 . S
C105 O111 1.208 . S
C106 O98 1.315 . S
C106 O101 1.279 . S
C107 O108 1.315 . S
C107 O109 1.282 . S
O108 Cd100 2.223 1_554 S
O108 C107 1.315 . S
O109 Cd99 2.244 . S
O109 C107 1.282 . S
O110 Cd100 2.297 . S
O110 C105 1.247 . S
O111 Cd100 2.439 . S
O111 C105 1.208 . S
O112 Cd113 2.223 . S
O112 C120 1.315 . S
Cd113 O112 2.223 . S
Cd113 O116 2.297 . S
Cd113 O117 2.439 . S
Cd113 O123 2.240 . S
Cd114 O115 2.240 . S
Cd114 O122 2.223 . S
Cd114 O124 2.297 1_554 S
Cd114 O125 2.439 1_554 S
O115 Cd114 2.240 . S
O115 C120 1.279 . S
O116 Cd113 2.297 . S
O116 C118 1.247 . S
O117 Cd113 2.439 . S
O117 C118 1.208 . S
C118 O116 1.247 . S
C118 O117 1.208 . S
C119 O124 1.247 . S
C119 O125 1.208 . S
C120 O112 1.315 . S
C120 O115 1.279 . S
C121 O122 1.315 . S
C121 O123 1.279 . S
O122 Cd114 2.223 . S
O122 C121 1.315 . S
O123 Cd113 2.240 . S
O123 C121 1.279 . S
O124 Cd114 2.297 1_556 S
O124 C119 1.247 . S
O125 Cd114 2.439 1_556 S
O125 C119 1.208 . S
O126 Cd127 2.223 . S
O126 C134 1.315 . S
Cd127 O126 2.223 . S
Cd127 O130 2.297 . S
Cd127 O131 2.439 . S
Cd127 O137 2.240 . S
Cd128 O129 2.240 . S
Cd128 O136 2.223 . S
Cd128 O138 2.297 . S
Cd128 O139 2.439 . S
O129 Cd128 2.240 . S
O129 C134 1.279 . S
O130 Cd127 2.297 . S
O130 C132 1.247 . S
O131 Cd127 2.439 . S
O131 C132 1.208 . S
C132 O130 1.247 . S
C132 O131 1.208 . S
C133 O138 1.247 . S
C133 O139 1.208 . S
C134 O126 1.315 . S
C134 O129 1.279 . S
C135 O136 1.315 . S
C135 O137 1.279 . S
O136 Cd128 2.223 . S
O136 C135 1.315 . S
O137 Cd127 2.240 . S
O137 C135 1.279 . S
O138 Cd128 2.297 . S
O138 C133 1.247 . S
O139 Cd128 2.439 . S
O139 C133 1.208 . S
O140 Cd141 2.223 . S
O140 C148 1.315 . S
Cd141 O140 2.223 . S
Cd141 O144 2.297 . S
Cd141 O145 2.439 . S
Cd141 O151 2.240 . S
Cd142 O143 2.240 . S
Cd142 O150 2.223 . S
Cd142 O152 2.297 . S
Cd142 O153 2.439 . S
O143 Cd142 2.240 . S
O143 C148 1.279 . S
O144 Cd141 2.297 . S
O144 C146 1.247 . S
O145 Cd141 2.439 . S
O145 C146 1.208 . S
C146 O144 1.247 . S
C146 O145 1.208 . S
C147 O152 1.247 . S
C147 O153 1.208 . S
C148 O140 1.315 . S
C148 O143 1.279 . S
C149 O150 1.315 . S
C149 O151 1.279 . S
O150 Cd142 2.223 . S
O150 C149 1.315 . S
O151 Cd141 2.240 . S
O151 C149 1.279 . S
O152 Cd142 2.297 . S
O152 C147 1.247 . S
O153 Cd142 2.439 . S
O153 C147 1.208 . S
O154 Cd155 2.223 . S
O154 C162 1.315 . S
Cd155 O154 2.223 . S
Cd155 O158 2.297 . S
Cd155 O159 2.439 . S
Cd155 O165 2.240 . S
Cd156 O157 2.240 . S
Cd156 O164 2.223 . S
Cd156 O166 2.297 . S
Cd156 O167 2.439 . S
O157 Cd156 2.240 . S
O157 C162 1.279 . S
O158 Cd155 2.297 . S
O158 C160 1.247 . S
O159 Cd155 2.439 . S
O159 C160 1.208 . S
C160 O158 1.247 . S
C160 O159 1.208 . S
C161 O166 1.247 . S
C161 O167 1.208 . S
C162 O154 1.315 . S
C162 O157 1.279 . S
C163 O164 1.315 . S
C163 O165 1.279 . S
O164 Cd156 2.223 . S
O164 C163 1.315 . S
O165 Cd155 2.240 . S
O165 C163 1.279 . S
O166 Cd156 2.297 . S
O166 C161 1.247 . S
O167 Cd156 2.439 . S
O167 C161 1.208 . S
O168 Cd169 2.223 . S
O168 C176 1.315 . S
Cd169 O168 2.223 . S
Cd169 O172 2.297 . S
Cd169 O173 2.439 1_455 S
Cd169 O179 2.240 1_455 S
Cd170 O171 2.240 1_655 S
Cd170 O178 2.223 1_655 S
Cd170 O180 2.297 . S
Cd170 O181 2.439 . S
O171 Cd170 2.240 1_455 S
O171 C176 1.279 . S
O172 Cd169 2.297 . S
O172 C174 1.247 . S
O173 Cd169 2.439 1_655 S
O173 C174 1.208 1_655 S
C174 O172 1.247 . S
C174 O173 1.208 1_455 S
C175 O180 1.247 . S
C175 O181 1.208 . S
C176 O168 1.315 . S
C176 O171 1.279 . S
C177 O178 1.315 . S
C177 O179 1.279 1_455 S
O178 Cd170 2.223 1_455 S
O178 C177 1.315 . S
O179 Cd169 2.240 1_655 S
O179 C177 1.279 1_655 S
O180 Cd170 2.297 . S
O180 C175 1.247 . S
O181 Cd170 2.439 . S
O181 C175 1.208 . S
O182 Cd183 2.223 1_455 S
O182 C190 1.315 . S
Cd183 O182 2.223 1_655 S
Cd183 O186 2.297 . S
Cd183 O187 2.439 . S
Cd183 O193 2.240 1_655 S
Cd184 O185 2.240 1_455 S
Cd184 O192 2.223 . S
Cd184 O194 2.297 . S
Cd184 O195 2.439 1_455 S
O185 Cd184 2.240 1_655 S
O185 C190 1.279 1_655 S
O186 Cd183 2.297 . S
O186 C188 1.247 . S
O187 Cd183 2.439 . S
O187 C188 1.208 . S
C188 O186 1.247 . S
C188 O187 1.208 . S
C189 O194 1.247 . S
C189 O195 1.208 1_455 S
C190 O182 1.315 . S
C190 O185 1.279 1_455 S
C191 O192 1.315 . S
C191 O193 1.279 . S
O192 Cd184 2.223 . S
O192 C191 1.315 . S
O193 Cd183 2.240 1_455 S
O193 C191 1.279 . S
O194 Cd184 2.297 . S
O194 C189 1.247 . S
O195 Cd184 2.439 1_655 S
O195 C189 1.208 1_655 S
O196 Cd197 2.223 . S
O196 C204 1.315 . S
Cd197 O196 2.223 . S
Cd197 O200 2.297 . S
Cd197 O201 2.439 . S
Cd197 O207 2.240 . S
Cd198 O199 2.240 . S
Cd198 O206 2.223 . S
Cd198 O208 2.297 . S
Cd198 O209 2.439 . S
O199 Cd198 2.240 . S
O199 C204 1.279 . S
O200 Cd197 2.297 . S
O200 C202 1.247 . S
O201 Cd197 2.439 . S
O201 C202 1.208 . S
C202 O200 1.247 . S
C202 O201 1.208 . S
C203 O208 1.247 . S
C203 O209 1.208 . S
C204 O196 1.315 . S
C204 O199 1.279 . S
C205 O206 1.315 . S
C205 O207 1.279 . S
O206 Cd198 2.223 . S
O206 C205 1.315 . S
O207 Cd197 2.240 . S
O207 C205 1.279 . S
O208 Cd198 2.297 . S
O208 C203 1.247 . S
O209 Cd198 2.439 . S
O209 C203 1.208 . S
O210 Cd211 2.223 . S
O210 C218 1.315 . S
Cd211 O210 2.223 . S
Cd211 O214 2.297 . S
Cd211 O215 2.439 . S
Cd211 O221 2.240 . S
Cd212 O213 2.240 . S
Cd212 O220 2.223 . S
Cd212 O222 2.297 . S
Cd212 O223 2.439 . S
O213 Cd212 2.240 . S
O213 C218 1.279 . S
O214 Cd211 2.297 . S
O214 C216 1.247 . S
O215 Cd211 2.439 . S
O215 C216 1.208 . S
C216 O214 1.247 . S
C216 O215 1.208 . S
C217 O222 1.247 . S
C217 O223 1.208 . S
C218 O210 1.315 . S
C218 O213 1.279 . S
C219 O220 1.315 . S
C219 O221 1.279 . S
O220 Cd212 2.223 . S
O220 C219 1.315 . S
O221 Cd211 2.240 . S
O221 C219 1.279 . S
O222 Cd212 2.297 . S
O222 C217 1.247 . S
O223 Cd212 2.439 . S
O223 C217 1.208 . S
O224 Cd225 2.223 . S
O224 C232 1.315 . S
Cd225 O224 2.223 . S
Cd225 O228 2.297 . S
Cd225 O229 2.439 . S
Cd225 O235 2.240 1_545 S
Cd226 O227 2.259 . S
Cd226 O234 2.196 1_545 S
Cd226 O236 2.285 1_545 S
Cd226 O237 2.452 . S
O227 Cd226 2.259 . S
O227 C232 1.279 . S
O228 Cd225 2.297 . S
O228 C230 1.247 . S
O229 Cd225 2.439 . S
O229 C230 1.208 . S
C230 O228 1.247 . S
C230 O229 1.208 . S
C231 O236 1.247 1_545 S
C231 O237 1.208 . S
C232 O224 1.315 . S
C232 O227 1.279 . S
C233 O234 1.315 . S
C233 O235 1.279 . S
O234 Cd226 2.196 1_565 S
O234 C233 1.315 . S
O235 Cd225 2.240 1_565 S
O235 C233 1.279 . S
O236 Cd226 2.285 1_565 S
O236 C231 1.247 1_565 S
O237 Cd226 2.452 . S
O237 C231 1.208 . S
O238 Cd239 2.223 . S
O238 C246 1.315 . S
Cd239 O238 2.223 . S
Cd239 O242 2.297 . S
Cd239 O243 2.439 . S
Cd239 O249 2.240 . S
Cd240 O241 2.240 . S
Cd240 O248 2.223 . S
Cd240 O250 2.297 . S
Cd240 O251 2.439 . S
O241 Cd240 2.240 . S
O241 C246 1.279 . S
O242 Cd239 2.297 . S
O242 C244 1.247 . S
O243 Cd239 2.439 . S
O243 C244 1.208 . S
C244 O242 1.247 . S
C244 O243 1.208 . S
C245 O250 1.247 . S
C245 O251 1.208 . S
C246 O238 1.315 . S
C246 O241 1.279 . S
C247 O248 1.315 . S
C247 O249 1.279 . S
O248 Cd240 2.223 . S
O248 C247 1.315 . S
O249 Cd239 2.240 . S
O249 C247 1.279 . S
O250 Cd240 2.297 . S
O250 C245 1.247 . S
O251 Cd240 2.439 . S
O251 C245 1.208 . S
O252 Cd253 2.223 1_545 S
O252 C260 1.315 . S
Cd253 O252 2.223 1_565 S
Cd253 O256 2.297 . S
Cd253 O257 2.439 . S
Cd253 O263 2.240 1_565 S
Cd254 O255 2.240 1_545 S
Cd254 O262 2.223 . S
Cd254 O264 2.297 . S
Cd254 O265 2.439 1_545 S
O255 Cd254 2.240 1_565 S
O255 C260 1.279 1_565 S
O256 Cd253 2.297 . S
O256 C258 1.247 . S
O257 Cd253 2.439 . S
O257 C258 1.208 . S
C258 O256 1.247 . S
C258 O257 1.208 . S
C259 O264 1.247 . S
C259 O265 1.208 1_545 S
C260 O252 1.315 . S
C260 O255 1.279 1_545 S
C261 O262 1.315 . S
C261 O263 1.279 . S
O262 Cd254 2.223 . S
O262 C261 1.315 . S
O263 Cd253 2.240 1_545 S
O263 C261 1.279 . S
O264 Cd254 2.297 . S
O264 C259 1.247 . S
O265 Cd254 2.439 1_565 S
O265 C259 1.208 1_565 S
O266 Cd267 2.223 . S
O266 C274 1.315 . S
Cd267 O266 2.223 . S
Cd267 O270 2.297 . S
Cd267 O271 2.439 1_554 S
Cd267 O277 2.240 1_554 S
Cd268 O269 2.240 1_556 S
Cd268 O276 2.223 1_556 S
Cd268 O278 2.297 . S
Cd268 O279 2.439 . S
O269 Cd268 2.240 1_554 S
O269 C274 1.279 . S
O270 Cd267 2.297 . S
O270 C272 1.247 . S
O271 Cd267 2.439 1_556 S
O271 C272 1.208 1_556 S
C272 O270 1.247 . S
C272 O271 1.208 1_554 S
C273 O278 1.247 . S
C273 O279 1.208 . S
C274 O266 1.315 . S
C274 O269 1.279 . S
C275 O276 1.315 . S
C275 O277 1.279 1_554 S
O276 Cd268 2.223 1_554 S
O276 C275 1.315 . S
O277 Cd267 2.240 1_556 S
O277 C275 1.279 1_556 S
O278 Cd268 2.297 . S
O278 C273 1.247 . S
O279 Cd268 2.439 . S
O279 C273 1.208 . S
O280 Cd281 2.223 . S
O280 C288 1.315 . S
Cd281 O280 2.223 . S
Cd281 O284 2.297 . S
Cd281 O285 2.439 . S
Cd281 O291 2.257 . S
Cd282 O283 2.225 1_556 S
Cd282 O290 2.217 1_556 S
Cd282 O292 2.315 . S
Cd282 O293 2.454 . S
O283 Cd282 2.225 1_554 S
O283 C288 1.279 . S
O284 Cd281 2.297 . S
O284 C286 1.247 . S
O285 Cd281 2.439 . S
O285 C286 1.208 . S
C286 O284 1.247 . S
C286 O285 1.208 . S
C287 O292 1.247 . S
C287 O293 1.208 . S
C288 O280 1.315 . S
C288 O283 1.279 . S
C289 O290 1.315 . S
C289 O291 1.291 . S
O290 Cd282 2.217 1_554 S
O290 C289 1.315 . S
O291 Cd281 2.257 . S
O291 C289 1.291 . S
O292 Cd282 2.315 . S
O292 C287 1.247 . S
O293 Cd282 2.454 . S
O293 C287 1.208 . S
O294 Cd295 2.223 . S
O294 C302 1.315 . S
Cd295 O294 2.223 . S
Cd295 O298 2.297 . S
Cd295 O299 2.439 . S
Cd295 O305 2.240 . S
Cd296 O297 2.240 . S
Cd296 O304 2.223 . S
Cd296 O306 2.297 . S
Cd296 O307 2.439 . S
O297 Cd296 2.240 . S
O297 C302 1.279 . S
O298 Cd295 2.297 . S
O298 C300 1.247 . S
O299 Cd295 2.439 . S
O299 C300 1.208 . S
C300 O298 1.247 . S
C300 O299 1.208 . S
C301 O306 1.247 . S
C301 O307 1.208 . S
C302 O294 1.315 . S
C302 O297 1.279 . S
C303 O304 1.315 . S
C303 O305 1.279 . S
O304 Cd296 2.223 . S
O304 C303 1.315 . S
O305 Cd295 2.240 . S
O305 C303 1.279 . S
O306 Cd296 2.297 . S
O306 C301 1.247 . S
O307 Cd296 2.439 . S
O307 C301 1.208 . S
O308 Cd309 2.223 . S
O308 C316 1.315 . S
Cd309 O308 2.223 . S
Cd309 O312 2.297 . S
Cd309 O313 2.439 . S
Cd309 O319 2.240 . S
Cd310 O311 2.240 . S
Cd310 O318 2.223 . S
Cd310 O320 2.297 . S
Cd310 O321 2.439 . S
O311 Cd310 2.240 . S
O311 C316 1.279 . S
O312 Cd309 2.297 . S
O312 C314 1.247 . S
O313 Cd309 2.439 . S
O313 C314 1.208 . S
C314 O312 1.247 . S
C314 O313 1.208 . S
C315 O320 1.247 . S
C315 O321 1.208 . S
C316 O308 1.315 . S
C316 O311 1.279 . S
C317 O318 1.315 . S
C317 O319 1.279 . S
O318 Cd310 2.223 . S
O318 C317 1.315 . S
O319 Cd309 2.240 . S
O319 C317 1.279 . S
O320 Cd310 2.297 . S
O320 C315 1.247 . S
O321 Cd310 2.439 . S
O321 C315 1.208 . S
O322 Cd323 2.223 . S
O322 C330 1.315 . S
Cd323 O322 2.223 . S
Cd323 O326 2.297 . S
Cd323 O327 2.439 . S
Cd323 O333 2.240 . S
Cd324 O325 2.240 . S
Cd324 O332 2.223 . S
Cd324 O334 2.297 . S
Cd324 O335 2.439 . S
O325 Cd324 2.240 . S
O325 C330 1.279 . S
O326 Cd323 2.297 . S
O326 C328 1.247 . S
O327 Cd323 2.439 . S
O327 C328 1.208 . S
C328 O326 1.247 . S
C328 O327 1.208 . S
C329 O334 1.247 . S
C329 O335 1.208 . S
C330 O322 1.315 . S
C330 O325 1.279 . S
C331 O332 1.315 . S
C331 O333 1.279 . S
O332 Cd324 2.223 . S
O332 C331 1.315 . S
O333 Cd323 2.240 . S
O333 C331 1.279 . S
O334 Cd324 2.297 . S
O334 C329 1.247 . S
O335 Cd324 2.439 . S
O335 C329 1.208 . S
O336 Zn337 1.953 . S
O336 C352 1.225 1_455 S
Zn337 O336 1.953 . S
Zn337 O338 1.940 1_545 S
Zn337 O344 1.919 . S
Zn337 O349 1.924 1_554 S
O338 Zn337 1.940 1_565 S
O338 Zn339 1.929 . S
O338 Zn340 1.948 1_465 S
O338 Zn341 1.949 1_454 S
Zn339 O338 1.929 . S
Zn339 O342 1.933 . S
Zn339 O345 1.941 . S
Zn339 O346 1.965 . S
Zn340 O338 1.948 1_645 S
Zn340 O347 1.946 1_655 S
Zn340 O348 1.906 1_545 S
Zn340 O358 1.953 . S
Zn341 O338 1.949 1_656 S
Zn341 O343 1.932 1_655 S
Zn341 O350 1.977 1_556 S
Zn341 O351 1.910 1_565 S
O342 Zn339 1.933 . S
O342 C353 1.226 1_554 S
O343 Zn341 1.932 1_455 S
O343 C353 1.307 . S
O344 Zn337 1.919 . S
O344 C355 1.253 . S
O345 Zn339 1.941 . S
O345 C355 1.283 1_565 S
O346 Zn339 1.965 . S
O346 C354 1.303 . S
O347 Zn340 1.946 1_455 S
O347 C354 1.232 1_545 S
O348 Zn340 1.906 1_565 S
O348 C356 1.304 . S
O349 Zn337 1.924 1_556 S
O349 C357 1.311 1_455 S
O350 Zn341 1.977 1_554 S
O350 C356 1.272 . S
O351 Zn341 1.910 1_545 S
O351 C357 1.231 . S
C352 O336 1.225 1_655 S
C352 O358 1.298 . S
C353 O342 1.226 1_556 S
C353 O343 1.307 . S
C354 O346 1.303 . S
C354 O347 1.232 1_565 S
C355 O344 1.253 . S
C355 O345 1.283 1_545 S
C356 O348 1.304 . S
C356 O350 1.272 . S
C357 O349 1.311 1_655 S
C357 O351 1.231 . S
O358 Zn340 1.953 . S
O358 C352 1.298 . S
O359 Zn360 1.953 . S
O359 C375 1.225 . S
Zn360 O359 1.953 . S
Zn360 O361 1.949 . S
Zn360 O367 1.919 . S
Zn360 O372 1.924 . S
O361 Zn360 1.949 . S
O361 Zn362 1.923 . S
O361 Zn363 1.950 . S
O361 Zn364 1.945 . S
Zn362 O361 1.923 . S
Zn362 O365 1.933 . S
Zn362 O368 1.941 . S
Zn362 O369 1.965 . S
Zn363 O361 1.950 . S
Zn363 O370 1.938 . S
Zn363 O371 1.906 . S
Zn363 O381 1.953 . S
Zn364 O361 1.945 . S
Zn364 O366 1.932 . S
Zn364 O373 1.977 . S
Zn364 O374 1.910 . S
O365 Zn362 1.933 . S
O365 C376 1.226 . S
O366 Zn364 1.932 . S
O366 C376 1.307 . S
O367 Zn360 1.919 . S
O367 C378 1.253 . S
O368 Zn362 1.941 . S
O368 C378 1.283 . S
O369 Zn362 1.965 . S
O369 C377 1.303 . S
O370 Zn363 1.938 . S
O370 C377 1.247 . S
O371 Zn363 1.906 . S
O371 C379 1.304 . S
O372 Zn360 1.924 . S
O372 C380 1.311 . S
O373 Zn364 1.977 . S
O373 C379 1.272 . S
O374 Zn364 1.910 . S
O374 C380 1.231 . S
C375 O359 1.225 . S
C375 O381 1.298 . S
C376 O365 1.226 . S
C376 O366 1.307 . S
C377 O369 1.303 . S
C377 O370 1.247 . S
C378 O367 1.253 . S
C378 O368 1.283 . S
C379 O371 1.304 . S
C379 O373 1.272 . S
C380 O372 1.311 . S
C380 O374 1.231 . S
O381 Zn363 1.953 . S
O381 C375 1.298 . S
O382 Zn383 1.953 . S
O382 C398 1.225 . S
Zn383 O382 1.953 . S
Zn383 O384 1.949 1_565 S
Zn383 O390 1.919 . S
Zn383 O395 1.924 . S
O384 Zn383 1.949 1_545 S
O384 Zn385 1.923 . S
O384 Zn386 1.950 . S
O384 Zn387 1.945 . S
Zn385 O384 1.923 . S
Zn385 O388 1.933 . S
Zn385 O391 1.941 . S
Zn385 O392 1.965 . S
Zn386 O384 1.950 . S
Zn386 O393 1.938 . S
Zn386 O394 1.906 . S
Zn386 O404 1.953 1_545 S
Zn387 O384 1.945 . S
Zn387 O389 1.932 . S
Zn387 O396 1.977 . S
Zn387 O397 1.910 . S
O388 Zn385 1.933 . S
O388 C399 1.226 . S
O389 Zn387 1.932 . S
O389 C399 1.307 . S
O390 Zn383 1.919 . S
O390 C401 1.253 1_565 S
O391 Zn385 1.941 . S
O391 C401 1.283 . S
O392 Zn385 1.965 . S
O392 C400 1.303 . S
O393 Zn386 1.938 . S
O393 C400 1.247 . S
O394 Zn386 1.906 . S
O394 C402 1.304 . S
O395 Zn383 1.924 . S
O395 C403 1.311 . S
O396 Zn387 1.977 . S
O396 C402 1.272 . S
O397 Zn387 1.910 . S
O397 C403 1.231 1_545 S
C398 O382 1.225 . S
C398 O404 1.298 . S
C399 O388 1.226 . S
C399 O389 1.307 . S
C400 O392 1.303 . S
C400 O393 1.247 . S
C401 O390 1.253 1_545 S
C401 O391 1.283 . S
C402 O394 1.304 . S
C402 O396 1.272 . S
C403 O395 1.311 . S
C403 O397 1.231 1_565 S
O404 Zn386 1.953 1_565 S
O404 C398 1.298 . S
O405 Zn406 1.953 . S
O405 C421 1.225 . S
Zn406 O405 1.953 . S
Zn406 O407 1.949 . S
Zn406 O413 1.919 . S
Zn406 O418 1.924 . S
O407 Zn406 1.949 . S
O407 Zn408 1.923 . S
O407 Zn409 1.950 . S
O407 Zn410 1.945 . S
Zn408 O407 1.923 . S
Zn408 O411 1.933 . S
Zn408 O414 1.941 . S
Zn408 O415 1.965 . S
Zn409 O407 1.950 . S
Zn409 O416 1.938 . S
Zn409 O417 1.906 . S
Zn409 O427 1.953 . S
Zn410 O407 1.945 . S
Zn410 O412 1.932 . S
Zn410 O419 1.977 . S
Zn410 O420 1.910 . S
O411 Zn408 1.933 . S
O411 C422 1.226 . S
O412 Zn410 1.932 . S
O412 C422 1.307 . S
O413 Zn406 1.919 . S
O413 C424 1.253 . S
O414 Zn408 1.941 . S
O414 C424 1.283 . S
O415 Zn408 1.965 . S
O415 C423 1.303 . S
O416 Zn409 1.938 . S
O416 C423 1.247 . S
O417 Zn409 1.906 . S
O417 C425 1.304 . S
O418 Zn406 1.924 . S
O418 C426 1.311 . S
O419 Zn410 1.977 . S
O419 C425 1.272 . S
O420 Zn410 1.910 . S
O420 C426 1.231 . S
C421 O405 1.225 . S
C421 O427 1.298 . S
C422 O411 1.226 . S
C422 O412 1.307 . S
C423 O415 1.303 . S
C423 O416 1.247 . S
C424 O413 1.253 . S
C424 O414 1.283 . S
C425 O417 1.304 . S
C425 O419 1.272 . S
C426 O418 1.311 . S
C426 O420 1.231 . S
O427 Zn409 1.953 . S
O427 C421 1.298 . S
O428 Zn429 1.953 1_445 S
O428 C444 1.225 . S
Zn429 O428 1.953 1_665 S
Zn429 O430 1.949 1_665 S
Zn429 O436 1.919 . S
Zn429 O441 1.924 1_565 S
O430 Zn429 1.949 1_445 S
O430 Zn431 1.923 1_545 S
O430 Zn432 1.950 . S
O430 Zn433 1.945 1_455 S
Zn431 O430 1.923 1_565 S
Zn431 O434 1.933 1_455 S
Zn431 O437 1.941 . S
Zn431 O438 1.965 . S
Zn432 O430 1.950 . S
Zn432 O439 1.938 . S
Zn432 O440 1.906 . S
Zn432 O450 1.953 . S
Zn433 O430 1.945 1_655 S
Zn433 O435 1.932 . S
Zn433 O442 1.977 . S
Zn433 O443 1.910 . S
O434 Zn431 1.933 1_655 S
O434 C445 1.226 . S
O435 Zn433 1.932 . S
O435 C445 1.307 1_545 S
O436 Zn429 1.919 . S
O436 C447 1.253 . S
O437 Zn431 1.941 . S
O437 C447 1.283 1_455 S
O438 Zn431 1.965 . S
O438 C446 1.303 . S
O439 Zn432 1.938 . S
O439 C446 1.247 1_545 S
O440 Zn432 1.906 . S
O440 C448 1.304 . S
O441 Zn429 1.924 1_545 S
O441 C449 1.311 . S
O442 Zn433 1.977 . S
O442 C448 1.272 1_655 S
O443 Zn433 1.910 . S
O443 C449 1.231 . S
C444 O428 1.225 . S
C444 O450 1.298 . S
C445 O434 1.226 . S
C445 O435 1.307 1_565 S
C446 O438 1.303 . S
C446 O439 1.247 1_565 S
C447 O436 1.253 . S
C447 O437 1.283 1_655 S
C448 O440 1.304 . S
C448 O442 1.272 1_455 S
C449 O441 1.311 . S
C449 O443 1.231 . S
O450 Zn432 1.953 . S
O450 C444 1.298 . S
O451 Zn452 1.953 . S
O451 C467 1.225 . S
Zn452 O451 1.953 . S
Zn452 O453 1.949 . S
Zn452 O459 1.919 . S
Zn452 O464 1.924 . S
O453 Zn452 1.949 . S
O453 Zn454 1.923 . S
O453 Zn455 1.950 . S
O453 Zn456 1.945 . S
Zn454 O453 1.923 . S
Zn454 O457 1.933 . S
Zn454 O460 1.941 . S
Zn454 O461 1.965 . S
Zn455 O453 1.950 . S
Zn455 O462 1.938 . S
Zn455 O463 1.906 . S
Zn455 O473 1.953 . S
Zn456 O453 1.945 . S
Zn456 O458 1.932 . S
Zn456 O465 1.977 . S
Zn456 O466 1.910 . S
O457 Zn454 1.933 . S
O457 C468 1.226 . S
O458 Zn456 1.932 . S
O458 C468 1.307 . S
O459 Zn452 1.919 . S
O459 C470 1.253 . S
O460 Zn454 1.941 . S
O460 C470 1.283 . S
O461 Zn454 1.965 . S
O461 C469 1.303 . S
O462 Zn455 1.938 . S
O462 C469 1.247 . S
O463 Zn455 1.906 . S
O463 C471 1.304 . S
O464 Zn452 1.924 . S
O464 C472 1.311 . S
O465 Zn456 1.977 . S
O465 C471 1.272 . S
O466 Zn456 1.910 . S
O466 C472 1.231 . S
C467 O451 1.225 . S
C467 O473 1.298 . S
C468 O457 1.226 . S
C468 O458 1.307 . S
C469 O461 1.303 . S
C469 O462 1.247 . S
C470 O459 1.253 . S
C470 O460 1.283 . S
C471 O463 1.304 . S
C471 O465 1.272 . S
C472 O464 1.311 . S
C472 O466 1.231 . S
O473 Zn455 1.953 . S
O473 C467 1.298 . S
O474 Zn475 1.953 . S
O474 C490 1.225 . S
Zn475 O474 1.953 . S
Zn475 O476 1.949 . S
Zn475 O482 1.919 . S
Zn475 O487 1.924 . S
O476 Zn475 1.949 . S
O476 Zn477 1.923 1_545 S
O476 Zn478 1.950 . S
O476 Zn479 1.945 1_554 S
Zn477 O476 1.923 1_565 S
Zn477 O480 1.933 1_554 S
Zn477 O483 1.943 . S
Zn477 O484 1.965 . S
Zn478 O476 1.950 . S
Zn478 O485 1.938 1_545 S
Zn478 O486 1.906 . S
Zn478 O496 1.953 . S
Zn479 O476 1.945 1_556 S
Zn479 O481 1.932 . S
Zn479 O488 1.977 1_556 S
Zn479 O489 1.910 . S
O480 Zn477 1.933 1_556 S
O480 C491 1.226 . S
O481 Zn479 1.932 . S
O481 C491 1.307 1_545 S
O482 Zn475 1.919 . S
O482 C493 1.240 1_544 S
O483 Zn477 1.943 . S
O483 C493 1.282 1_554 S
O484 Zn477 1.965 . S
O484 C492 1.303 . S
O485 Zn478 1.938 1_565 S
O485 C492 1.247 . S
O486 Zn478 1.906 . S
O486 C494 1.304 . S
O487 Zn475 1.924 . S
O487 C495 1.311 . S
O488 Zn479 1.977 1_554 S
O488 C494 1.272 . S
O489 Zn479 1.910 . S
O489 C495 1.231 1_556 S
C490 O474 1.225 . S
C490 O496 1.298 . S
C491 O480 1.226 . S
C491 O481 1.307 1_565 S
C492 O484 1.303 . S
C492 O485 1.247 . S
C493 O482 1.240 1_566 S
C493 O483 1.282 1_556 S
C494 O486 1.304 . S
C494 O488 1.272 . S
C495 O487 1.311 . S
C495 O489 1.231 1_554 S
O496 Zn478 1.953 . S
O496 C490 1.298 . S
O497 Zn498 1.953 . S
O497 C513 1.225 . S
Zn498 O497 1.953 . S
Zn498 O499 1.949 . S
Zn498 O505 1.919 . S
Zn498 O510 1.924 . S
O499 Zn498 1.949 . S
O499 Zn500 1.923 . S
O499 Zn501 1.950 . S
O499 Zn502 1.945 . S
Zn500 O499 1.923 . S
Zn500 O503 1.933 . S
Zn500 O506 1.941 . S
Zn500 O507 1.965 . S
Zn501 O499 1.950 . S
Zn501 O508 1.938 . S
Zn501 O509 1.906 . S
Zn501 O519 1.953 . S
Zn502 O499 1.945 . S
Zn502 O504 1.932 . S
Zn502 O511 1.977 . S
Zn502 O512 1.910 . S
O503 Zn500 1.933 . S
O503 C514 1.226 . S
O504 Zn502 1.932 . S
O504 C514 1.307 . S
O505 Zn498 1.919 . S
O505 C516 1.253 . S
O506 Zn500 1.941 . S
O506 C516 1.283 . S
O507 Zn500 1.965 . S
O507 C515 1.303 . S
O508 Zn501 1.938 . S
O508 C515 1.247 . S
O509 Zn501 1.906 . S
O509 C517 1.304 . S
O510 Zn498 1.924 . S
O510 C518 1.311 . S
O511 Zn502 1.977 . S
O511 C517 1.272 . S
O512 Zn502 1.910 . S
O512 C518 1.231 . S
C513 O497 1.225 . S
C513 O519 1.298 . S
C514 O503 1.226 . S
C514 O504 1.307 . S
C515 O507 1.303 . S
C515 O508 1.247 . S
C516 O505 1.253 . S
C516 O506 1.283 . S
C517 O509 1.304 . S
C517 O511 1.272 . S
C518 O510 1.311 . S
C518 O512 1.231 . S
O519 Zn501 1.953 . S
O519 C513 1.298 . S
O520 Zn521 1.953 . S
O520 C536 1.225 . S
Zn521 O520 1.953 . S
Zn521 O522 1.949 1_556 S
Zn521 O528 1.919 . S
Zn521 O533 1.924 . S
O522 Zn521 1.949 1_554 S
O522 Zn523 1.923 . S
O522 Zn524 1.950 . S
O522 Zn525 1.945 . S
Zn523 O522 1.923 . S
Zn523 O526 1.933 . S
Zn523 O529 1.941 . S
Zn523 O530 1.965 . S
Zn524 O522 1.950 . S
Zn524 O531 1.938 . S
Zn524 O532 1.906 . S
Zn524 O542 1.953 1_554 S
Zn525 O522 1.945 . S
Zn525 O527 1.932 . S
Zn525 O534 1.977 . S
Zn525 O535 1.910 . S
O526 Zn523 1.933 . S
O526 C537 1.226 . S
O527 Zn525 1.932 . S
O527 C537 1.307 . S
O528 Zn521 1.919 . S
O528 C539 1.253 1_556 S
O529 Zn523 1.941 . S
O529 C539 1.283 . S
O530 Zn523 1.965 . S
O530 C538 1.303 . S
O531 Zn524 1.938 . S
O531 C538 1.247 . S
O532 Zn524 1.906 . S
O532 C540 1.304 . S
O533 Zn521 1.924 . S
O533 C541 1.311 1_556 S
O534 Zn525 1.977 . S
O534 C540 1.272 . S
O535 Zn525 1.910 . S
O535 C541 1.231 . S
C536 O520 1.225 . S
C536 O542 1.298 . S
C537 O526 1.226 . S
C537 O527 1.307 . S
C538 O530 1.303 . S
C538 O531 1.247 . S
C539 O528 1.253 1_554 S
C539 O529 1.283 . S
C540 O532 1.304 . S
C540 O534 1.272 . S
C541 O533 1.311 1_554 S
C541 O535 1.231 . S
O542 Zn524 1.953 1_556 S
O542 C536 1.298 . S
O543 Zn544 1.953 . S
O543 C559 1.225 . S
Zn544 O543 1.953 . S
Zn544 O545 1.949 . S
Zn544 O551 1.919 . S
Zn544 O556 1.924 . S
O545 Zn544 1.949 . S
O545 Zn546 1.923 . S
O545 Zn547 1.950 . S
O545 Zn548 1.945 . S
Zn546 O545 1.923 . S
Zn546 O549 1.933 . S
Zn546 O552 1.941 . S
Zn546 O553 1.965 . S
Zn547 O545 1.950 . S
Zn547 O554 1.938 . S
Zn547 O555 1.906 . S
Zn547 O565 1.953 . S
Zn548 O545 1.945 . S
Zn548 O550 1.932 . S
Zn548 O557 1.977 . S
Zn548 O558 1.910 . S
O549 Zn546 1.933 . S
O549 C560 1.226 . S
O550 Zn548 1.932 . S
O550 C560 1.307 . S
O551 Zn544 1.919 . S
O551 C562 1.253 . S
O552 Zn546 1.941 . S
O552 C562 1.283 . S
O553 Zn546 1.965 . S
O553 C561 1.303 . S
O554 Zn547 1.938 . S
O554 C561 1.247 . S
O555 Zn547 1.906 . S
O555 C563 1.304 . S
O556 Zn544 1.924 . S
O556 C564 1.311 . S
O557 Zn548 1.977 . S
O557 C563 1.272 . S
O558 Zn548 1.910 . S
O558 C564 1.231 . S
C559 O543 1.225 . S
C559 O565 1.298 . S
C560 O549 1.226 . S
C560 O550 1.307 . S
C561 O553 1.303 . S
C561 O554 1.247 . S
C562 O551 1.253 . S
C562 O552 1.283 . S
C563 O555 1.304 . S
C563 O557 1.272 . S
C564 O556 1.311 . S
C564 O558 1.231 . S
O565 Zn547 1.953 . S
O565 C559 1.298 . S
O566 Zn567 1.953 . S
O566 C582 1.225 . S
Zn567 O566 1.953 . S
Zn567 O568 1.949 . S
Zn567 O574 1.919 . S
Zn567 O579 1.924 . S
O568 Zn567 1.949 . S
O568 Zn569 1.923 . S
O568 Zn570 1.950 1_455 S
O568 Zn571 1.945 1_455 S
Zn569 O568 1.923 . S
Zn569 O572 1.933 1_455 S
Zn569 O575 1.941 . S
Zn569 O576 1.965 1_455 S
Zn570 O568 1.950 1_655 S
Zn570 O577 1.938 . S
Zn570 O578 1.906 . S
Zn570 O588 1.953 1_655 S
Zn571 O568 1.945 1_655 S
Zn571 O573 1.932 . S
Zn571 O580 1.977 . S
Zn571 O581 1.910 1_655 S
O572 Zn569 1.933 1_655 S
O572 C583 1.226 . S
O573 Zn571 1.932 . S
O573 C583 1.307 . S
O574 Zn567 1.919 . S
O574 C585 1.253 . S
O575 Zn569 1.941 . S
O575 C585 1.283 . S
O576 Zn569 1.965 1_655 S
O576 C584 1.303 . S
O577 Zn570 1.938 . S
O577 C584 1.247 . S
O578 Zn570 1.906 . S
O578 C586 1.304 . S
O579 Zn567 1.924 . S
O579 C587 1.311 . S
O580 Zn571 1.977 . S
O580 C586 1.272 . S
O581 Zn571 1.910 1_455 S
O581 C587 1.231 . S
C582 O566 1.225 . S
C582 O588 1.298 . S
C583 O572 1.226 . S
C583 O573 1.307 . S
C584 O576 1.303 . S
C584 O577 1.247 . S
C585 O574 1.253 . S
C585 O575 1.283 . S
C586 O578 1.304 . S
C586 O580 1.272 . S
C587 O579 1.311 . S
C587 O581 1.231 . S
O588 Zn570 1.953 1_455 S
O588 C582 1.298 . S
O589 Zn590 1.953 . S
O589 C605 1.225 . S
Zn590 O589 1.953 . S
Zn590 O591 1.949 . S
Zn590 O597 1.919 . S
Zn590 O602 1.924 . S
O591 Zn590 1.949 . S
O591 Zn592 1.923 . S
O591 Zn593 1.950 . S
O591 Zn594 1.945 . S
Zn592 O591 1.923 . S
Zn592 O595 1.933 . S
Zn592 O598 1.941 . S
Zn592 O599 1.965 . S
Zn593 O591 1.950 . S
Zn593 O600 1.938 . S
Zn593 O601 1.906 . S
Zn593 O611 1.953 . S
Zn594 O591 1.945 . S
Zn594 O596 1.932 . S
Zn594 O603 1.977 . S
Zn594 O604 1.910 . S
O595 Zn592 1.933 . S
O595 C606 1.226 . S
O596 Zn594 1.932 . S
O596 C606 1.307 . S
O597 Zn590 1.919 . S
O597 C608 1.253 . S
O598 Zn592 1.941 . S
O598 C608 1.283 . S
O599 Zn592 1.965 . S
O599 C607 1.303 . S
O600 Zn593 1.938 . S
O600 C607 1.247 . S
O601 Zn593 1.906 . S
O601 C609 1.304 . S
O602 Zn590 1.924 . S
O602 C610 1.311 . S
O603 Zn594 1.977 . S
O603 C609 1.272 . S
O604 Zn594 1.910 . S
O604 C610 1.231 . S
C605 O589 1.225 . S
C605 O611 1.298 . S
C606 O595 1.226 . S
C606 O596 1.307 . S
C607 O599 1.303 . S
C607 O600 1.247 . S
C608 O597 1.253 . S
C608 O598 1.283 . S
C609 O601 1.304 . S
C609 O603 1.272 . S
C610 O602 1.311 . S
C610 O604 1.231 . S
O611 Zn593 1.953 . S
O611 C605 1.298 . S
O612 Zn613 1.953 . S
O612 C628 1.225 . S
Zn613 O612 1.953 . S
Zn613 O614 1.949 . S
Zn613 O620 1.919 . S
Zn613 O625 1.924 . S
O614 Zn613 1.949 . S
O614 Zn615 1.923 . S
O614 Zn616 1.950 . S
O614 Zn617 1.945 . S
Zn615 O614 1.923 . S
Zn615 O618 1.933 . S
Zn615 O621 1.941 . S
Zn615 O622 1.965 . S
Zn616 O614 1.950 . S
Zn616 O623 1.938 . S
Zn616 O624 1.906 . S
Zn616 O634 1.953 . S
Zn617 O614 1.945 . S
Zn617 O619 1.932 . S
Zn617 O626 1.977 . S
Zn617 O627 1.910 . S
O618 Zn615 1.933 . S
O618 C629 1.226 . S
O619 Zn617 1.932 . S
O619 C629 1.307 . S
O620 Zn613 1.919 . S
O620 C631 1.253 . S
O621 Zn615 1.941 . S
O621 C631 1.283 . S
O622 Zn615 1.965 . S
O622 C630 1.303 . S
O623 Zn616 1.938 . S
O623 C630 1.247 . S
O624 Zn616 1.906 . S
O624 C632 1.304 . S
O625 Zn613 1.924 . S
O625 C633 1.311 . S
O626 Zn617 1.977 . S
O626 C632 1.272 . S
O627 Zn617 1.910 . S
O627 C633 1.231 . S
C628 O612 1.225 . S
C628 O634 1.298 . S
C629 O618 1.226 . S
C629 O619 1.307 . S
C630 O622 1.303 . S
C630 O623 1.247 . S
C631 O620 1.253 . S
C631 O621 1.283 . S
C632 O624 1.304 . S
C632 O626 1.272 . S
C633 O625 1.311 . S
C633 O627 1.231 . S
O634 Zn616 1.953 . S
O634 C628 1.298 . S
O635 Zn636 1.953 . S
O635 C651 1.225 . S
Zn636 O635 1.953 . S
Zn636 O637 1.949 . S
Zn636 O643 1.919 . S
Zn636 O648 1.924 . S
O637 Zn636 1.949 . S
O637 Zn638 1.923 . S
O637 Zn639 1.950 . S
O637 Zn640 1.945 . S
Zn638 O637 1.923 . S
Zn638 O641 1.933 . S
Zn638 O644 1.941 . S
Zn638 O645 1.965 . S
Zn639 O637 1.950 . S
Zn639 O646 1.938 . S
Zn639 O647 1.906 . S
Zn639 O657 1.953 . S
Zn640 O637 1.945 . S
Zn640 O642 1.932 . S
Zn640 O649 1.977 . S
Zn640 O650 1.910 . S
O641 Zn638 1.933 . S
O641 C652 1.226 . S
O642 Zn640 1.932 . S
O642 C652 1.307 . S
O643 Zn636 1.919 . S
O643 C654 1.253 . S
O644 Zn638 1.941 . S
O644 C654 1.283 . S
O645 Zn638 1.965 . S
O645 C653 1.303 . S
O646 Zn639 1.938 . S
O646 C653 1.247 . S
O647 Zn639 1.906 . S
O647 C655 1.304 . S
O648 Zn636 1.924 . S
O648 C656 1.311 . S
O649 Zn640 1.977 . S
O649 C655 1.272 . S
O650 Zn640 1.910 . S
O650 C656 1.231 . S
C651 O635 1.225 . S
C651 O657 1.298 . S
C652 O641 1.226 . S
C652 O642 1.307 . S
C653 O645 1.303 . S
C653 O646 1.247 . S
C654 O643 1.253 . S
C654 O644 1.283 . S
C655 O647 1.304 . S
C655 O649 1.272 . S
C656 O648 1.311 . S
C656 O650 1.231 . S
O657 Zn639 1.953 . S
O657 C651 1.298 . S
O658 Zn659 1.953 . S
O658 C674 1.225 . S
Zn659 O658 1.953 . S
Zn659 O660 1.949 . S
Zn659 O666 1.919 . S
Zn659 O671 1.924 . S
O660 Zn659 1.949 . S
O660 Zn661 1.923 . S
O660 Zn662 1.950 . S
O660 Zn663 1.945 . S
Zn661 O660 1.923 . S
Zn661 O664 1.933 . S
Zn661 O667 1.941 . S
Zn661 O668 1.965 . S
Zn662 O660 1.950 . S
Zn662 O669 1.938 . S
Zn662 O670 1.906 . S
Zn662 O680 1.953 . S
Zn663 O660 1.945 . S
Zn663 O665 1.932 . S
Zn663 O672 1.977 . S
Zn663 O673 1.910 . S
O664 Zn661 1.933 . S
O664 C675 1.226 . S
O665 Zn663 1.932 . S
O665 C675 1.307 . S
O666 Zn659 1.919 . S
O666 C677 1.253 . S
O667 Zn661 1.941 . S
O667 C677 1.283 . S
O668 Zn661 1.965 . S
O668 C676 1.303 . S
O669 Zn662 1.938 . S
O669 C676 1.247 . S
O670 Zn662 1.906 . S
O670 C678 1.304 . S
O671 Zn659 1.924 . S
O671 C679 1.311 . S
O672 Zn663 1.977 . S
O672 C678 1.272 . S
O673 Zn663 1.910 . S
O673 C679 1.231 . S
C674 O658 1.225 . S
C674 O680 1.298 . S
C675 O664 1.226 . S
C675 O665 1.307 . S
C676 O668 1.303 . S
C676 O669 1.247 . S
C677 O666 1.253 . S
C677 O667 1.283 . S
C678 O670 1.304 . S
C678 O672 1.272 . S
C679 O671 1.311 . S
C679 O673 1.231 . S
O680 Zn662 1.953 . S
O680 C674 1.298 . S
O681 Zn682 1.953 1_455 S
O681 C697 1.225 . S
Zn682 O681 1.953 1_655 S
Zn682 O683 1.949 1_655 S
Zn682 O689 1.919 . S
Zn682 O694 1.924 1_654 S
O683 Zn682 1.949 1_455 S
O683 Zn684 1.923 1_455 S
O683 Zn685 1.950 . S
O683 Zn686 1.963 . S
Zn684 O683 1.923 1_655 S
Zn684 O687 1.933 . S
Zn684 O690 1.941 . S
Zn684 O691 1.965 . S
Zn685 O683 1.950 . S
Zn685 O692 1.938 . S
Zn685 O693 1.906 . S
Zn685 O703 1.953 . S
Zn686 O683 1.963 . S
Zn686 O688 1.927 1_554 S
Zn686 O695 1.987 . S
Zn686 O696 1.891 1_554 S
O687 Zn684 1.933 . S
O687 C698 1.226 . S
O688 Zn686 1.927 1_556 S
O688 C698 1.307 1_456 S
O689 Zn682 1.919 . S
O689 C700 1.253 . S
O690 Zn684 1.941 . S
O690 C700 1.283 . S
O691 Zn684 1.965 . S
O691 C699 1.303 . S
O692 Zn685 1.938 . S
O692 C699 1.247 1_455 S
O693 Zn685 1.906 . S
O693 C701 1.304 . S
O694 Zn682 1.924 1_456 S
O694 C702 1.311 . S
O695 Zn686 1.987 . S
O695 C701 1.272 . S
O696 Zn686 1.891 1_556 S
O696 C702 1.231 . S
C697 O681 1.225 . S
C697 O703 1.298 . S
C698 O687 1.226 . S
C698 O688 1.307 1_654 S
C699 O691 1.303 . S
C699 O692 1.247 1_655 S
C700 O689 1.253 . S
C700 O690 1.283 . S
C701 O693 1.304 . S
C701 O695 1.272 . S
C702 O694 1.311 . S
C702 O696 1.231 . S
O703 Zn685 1.953 . S
O703 C697 1.298 . S
C704 C705 1.387 . S
C704 H708 0.950 . S
C704 C713 1.390 1_455 S
C705 C704 1.387 . S
C705 C707 1.387 . S
H706 C713 0.950 . S
C707 C705 1.387 . S
C707 C709 1.390 . S
C707 H711 0.950 . S
H708 C704 0.950 . S
C709 C707 1.390 . S
C709 C710 1.387 1_455 S
C709 H712 0.950 . S
C710 C709 1.387 1_655 S
C710 C713 1.387 . S
H711 C707 0.950 . S
H712 C709 0.950 . S
C713 C704 1.390 1_655 S
C713 H706 0.950 . S
C713 C710 1.387 . S
C714 C715 1.387 . S
C714 H718 0.950 . S
C714 C723 1.390 . S
C715 C714 1.387 . S
C715 C717 1.387 . S
H716 C723 0.950 . S
C717 C715 1.387 . S
C717 C719 1.390 . S
C717 H721 0.950 . S
H718 C714 0.950 . S
C719 C717 1.390 . S
C719 C720 1.387 . S
C719 H722 0.950 . S
C720 C719 1.387 . S
C720 C723 1.387 . S
H721 C717 0.950 . S
H722 C719 0.950 . S
C723 C714 1.390 . S
C723 H716 0.950 . S
C723 C720 1.387 . S
C724 C725 1.387 . S
C724 H728 0.950 . S
C724 C733 1.390 . S
C725 C724 1.387 . S
C725 C727 1.387 . S
H726 C733 0.950 . S
C727 C725 1.387 . S
C727 C729 1.390 . S
C727 H731 0.950 . S
H728 C724 0.950 . S
C729 C727 1.390 . S
C729 C730 1.387 . S
C729 H732 0.950 . S
C730 C729 1.387 . S
C730 C733 1.387 . S
H731 C727 0.950 . S
H732 C729 0.950 . S
C733 C724 1.390 . S
C733 H726 0.950 . S
C733 C730 1.387 . S
C734 C735 1.387 . S
C734 H738 0.950 . S
C734 C743 1.390 . S
C735 C734 1.387 . S
C735 C737 1.387 . S
H736 C743 0.950 . S
C737 C735 1.387 . S
C737 C739 1.390 . S
C737 H741 0.950 . S
H738 C734 0.950 . S
C739 C737 1.390 . S
C739 C740 1.387 . S
C739 H742 0.950 . S
C740 C739 1.387 . S
C740 C743 1.387 . S
H741 C737 0.950 . S
H742 C739 0.950 . S
C743 C734 1.390 . S
C743 H736 0.950 . S
C743 C740 1.387 . S
C744 C745 1.387 1_655 S
C744 H748 0.950 . S
C744 C753 1.390 . S
C745 C744 1.387 1_455 S
C745 C747 1.387 . S
H746 C753 0.950 . S
C747 C745 1.387 . S
C747 C749 1.390 1_455 S
C747 H751 0.950 . S
H748 C744 0.950 . S
C749 C747 1.390 1_655 S
C749 C750 1.387 . S
C749 H752 0.950 . S
C750 C749 1.387 . S
C750 C753 1.387 . S
H751 C747 0.950 . S
H752 C749 0.950 . S
C753 C744 1.390 . S
C753 H746 0.950 . S
C753 C750 1.387 . S
C754 C755 1.387 . S
C754 H758 0.950 . S
C754 C763 1.390 . S
C755 C754 1.387 . S
C755 C757 1.387 . S
H756 C763 0.950 . S
C757 C755 1.387 . S
C757 C759 1.390 . S
C757 H761 0.950 . S
H758 C754 0.950 . S
C759 C757 1.390 . S
C759 C760 1.387 . S
C759 H762 0.950 . S
C760 C759 1.387 . S
C760 C763 1.387 . S
H761 C757 0.950 . S
H762 C759 0.950 . S
C763 C754 1.390 . S
C763 H756 0.950 . S
C763 C760 1.387 . S
C764 C765 1.387 . S
C764 H768 0.950 . S
C764 C773 1.390 . S
C765 C764 1.387 . S
C765 C767 1.387 . S
H766 C773 0.950 . S
C767 C765 1.387 . S
C767 C769 1.406 . S
C767 H771 0.950 . S
H768 C764 0.950 . S
C769 C767 1.406 . S
C769 C770 1.389 . S
C769 H772 0.933 1_556 S
C770 C769 1.389 . S
C770 C773 1.387 . S
H771 C767 0.950 . S
H772 C769 0.933 1_554 S
C773 C764 1.390 . S
C773 H766 0.950 . S
C773 C770 1.387 . S
C774 C775 1.387 . S
C774 H778 0.950 . S
C774 C783 1.390 . S
C775 C774 1.387 . S
C775 C777 1.387 . S
H776 C783 0.950 . S
C777 C775 1.387 . S
C777 C779 1.390 . S
C777 H781 0.950 . S
H778 C774 0.950 . S
C779 C777 1.390 . S
C779 C780 1.387 . S
C779 H782 0.950 . S
C780 C779 1.387 . S
C780 C783 1.387 . S
H781 C777 0.950 . S
H782 C779 0.950 . S
C783 C774 1.390 . S
C783 H776 0.950 . S
C783 C780 1.387 . S
C784 C785 1.387 1_565 S
C784 H788 0.950 . S
C784 C793 1.390 . S
C785 C784 1.387 1_545 S
C785 C787 1.387 . S
H786 C793 0.950 . S
C787 C785 1.387 . S
C787 C789 1.390 . S
C787 H791 0.950 . S
H788 C784 0.950 . S
C789 C787 1.390 . S
C789 C790 1.387 1_545 S
C789 H792 0.950 . S
C790 C789 1.387 1_565 S
C790 C793 1.387 . S
H791 C787 0.950 . S
H792 C789 0.950 . S
C793 C784 1.390 . S
C793 H786 0.950 . S
C793 C790 1.387 . S
C794 C795 1.387 . S
C794 H798 0.950 . S
C794 C803 1.390 . S
C795 C794 1.387 . S
C795 C797 1.387 . S
H796 C803 0.950 . S
C797 C795 1.387 . S
C797 C799 1.390 . S
C797 H801 0.950 . S
H798 C794 0.950 . S
C799 C797 1.390 . S
C799 C800 1.387 . S
C799 H802 0.950 . S
C800 C799 1.387 . S
C800 C803 1.387 . S
H801 C797 0.950 . S
H802 C799 0.950 . S
C803 C794 1.390 . S
C803 H796 0.950 . S
C803 C800 1.387 . S
C804 C805 1.387 . S
C804 H808 0.950 1_545 S
C804 C813 1.390 . S
C805 C804 1.387 . S
C805 C807 1.387 . S
H806 C813 0.950 . S
C807 C805 1.387 . S
C807 C809 1.390 . S
C807 H811 0.950 . S
H808 C804 0.950 1_565 S
C809 C807 1.390 . S
C809 C810 1.387 . S
C809 H812 0.950 . S
C810 C809 1.387 . S
C810 C813 1.387 . S
H811 C807 0.950 . S
H812 C809 0.950 . S
C813 C804 1.390 . S
C813 H806 0.950 . S
C813 C810 1.387 . S
C814 C815 1.387 . S
C814 H818 0.950 . S
C814 C823 1.390 . S
C815 C814 1.387 . S
C815 C817 1.387 . S
H816 C823 0.950 . S
C817 C815 1.387 . S
C817 C819 1.390 . S
C817 H821 0.950 . S
H818 C814 0.950 . S
C819 C817 1.390 . S
C819 C820 1.387 . S
C819 H822 0.950 . S
C820 C819 1.387 . S
C820 C823 1.387 . S
H821 C817 0.950 . S
H822 C819 0.950 . S
C823 C814 1.390 . S
C823 H816 0.950 . S
C823 C820 1.387 . S
C824 C825 1.387 . S
C824 H828 0.950 1_545 S
C824 C833 1.390 . S
C825 C824 1.387 . S
C825 C827 1.387 . S
H826 C833 0.950 1_565 S
C827 C825 1.387 . S
C827 C829 1.390 . S
C827 H831 0.950 . S
H828 C824 0.950 1_565 S
C829 C827 1.390 . S
C829 C830 1.387 . S
C829 H832 0.950 . S
C830 C829 1.387 . S
C830 C833 1.387 . S
H831 C827 0.950 . S
H832 C829 0.950 . S
C833 C824 1.390 . S
C833 H826 0.950 1_545 S
C833 C830 1.387 . S
C834 C835 1.387 . S
C834 H838 0.950 . S
C834 C843 1.390 . S
C835 C834 1.387 . S
C835 C837 1.387 . S
H836 C843 0.950 . S
C837 C835 1.387 . S
C837 C839 1.390 . S
C837 H841 0.950 . S
H838 C834 0.950 . S
C839 C837 1.390 . S
C839 C840 1.387 . S
C839 H842 0.950 . S
C840 C839 1.387 . S
C840 C843 1.387 . S
H841 C837 0.950 . S
H842 C839 0.950 . S
C843 C834 1.390 . S
C843 H836 0.950 . S
C843 C840 1.387 . S
C844 C845 1.387 . S
C844 H848 0.950 . S
C844 C853 1.390 . S
C845 C844 1.387 . S
C845 C847 1.387 1_565 S
H846 C853 0.950 . S
C847 C845 1.387 1_545 S
C847 C849 1.390 . S
C847 H851 0.950 . S
H848 C844 0.950 . S
C849 C847 1.390 . S
C849 C850 1.387 1_545 S
C849 H852 0.950 . S
C850 C849 1.387 1_565 S
C850 C853 1.387 . S
H851 C847 0.950 . S
H852 C849 0.950 . S
C853 C844 1.390 . S
C853 H846 0.950 . S
C853 C850 1.387 . S
C854 C855 1.387 . S
C854 H858 0.950 . S
C854 C863 1.390 . S
C855 C854 1.387 . S
C855 C857 1.387 . S
H856 C863 0.950 . S
C857 C855 1.387 . S
C857 C859 1.390 . S
C857 H861 0.950 . S
H858 C854 0.950 . S
C859 C857 1.390 . S
C859 C860 1.387 . S
C859 H862 0.950 . S
C860 C859 1.387 . S
C860 C863 1.387 . S
H861 C857 0.950 . S
H862 C859 0.950 . S
C863 C854 1.390 . S
C863 H856 0.950 . S
C863 C860 1.387 . S
C864 C865 1.387 . S
C864 H868 0.950 . S
C864 C873 1.390 . S
C865 C864 1.387 . S
C865 C867 1.387 1_554 S
H866 C873 0.950 . S
C867 C865 1.387 1_556 S
C867 C869 1.390 . S
C867 H871 0.950 . S
H868 C864 0.950 . S
C869 C867 1.390 . S
C869 C870 1.387 1_556 S
C869 H872 0.950 . S
C870 C869 1.387 1_554 S
C870 C873 1.387 . S
H871 C867 0.950 . S
H872 C869 0.950 . S
C873 C864 1.390 . S
C873 H866 0.950 . S
C873 C870 1.387 . S
C874 C875 1.387 . S
C874 H878 0.950 1_554 S
C874 C883 1.390 . S
C875 C874 1.387 . S
C875 C877 1.387 . S
H876 C883 0.950 1_556 S
C877 C875 1.387 . S
C877 C879 1.390 . S
C877 H881 0.950 . S
H878 C874 0.950 1_556 S
C879 C877 1.390 . S
C879 C880 1.387 . S
C879 H882 0.950 . S
C880 C879 1.387 . S
C880 C883 1.387 . S
H881 C877 0.950 . S
H882 C879 0.950 . S
C883 C874 1.390 . S
C883 H876 0.950 1_554 S
C883 C880 1.387 . S
C884 C885 1.387 . S
C884 H888 0.950 . S
C884 C893 1.390 . S
C885 C884 1.387 . S
C885 C887 1.387 . S
H886 C893 0.950 . S
C887 C885 1.387 . S
C887 C889 1.390 . S
C887 H891 0.950 . S
H888 C884 0.950 . S
C889 C887 1.390 . S
C889 C890 1.387 . S
C889 H892 0.950 . S
C890 C889 1.387 . S
C890 C893 1.387 . S
H891 C887 0.950 . S
H892 C889 0.950 . S
C893 C884 1.390 . S
C893 H886 0.950 . S
C893 C890 1.387 . S
C894 C895 1.387 . S
C894 H898 0.950 . S
C894 C903 1.390 . S
C895 C894 1.387 . S
C895 C897 1.387 . S
H896 C903 0.950 . S
C897 C895 1.387 . S
C897 C899 1.390 . S
C897 H901 0.950 . S
H898 C894 0.950 . S
C899 C897 1.390 . S
C899 C900 1.387 . S
C899 H902 0.950 . S
C900 C899 1.387 . S
C900 C903 1.387 . S
H901 C897 0.950 . S
H902 C899 0.950 . S
C903 C894 1.390 . S
C903 H896 0.950 . S
C903 C900 1.387 . S
C904 C905 1.387 . S
C904 H908 0.950 . S
C904 C913 1.390 . S
C905 C904 1.387 . S
C905 C907 1.387 . S
H906 C913 0.950 . S
C907 C905 1.387 . S
C907 C909 1.390 . S
C907 H911 0.950 . S
H908 C904 0.950 . S
C909 C907 1.390 . S
C909 C910 1.387 . S
C909 H912 0.950 . S
C910 C909 1.387 . S
C910 C913 1.387 . S
H911 C907 0.950 . S
H912 C909 0.950 . S
C913 C904 1.390 . S
C913 H906 0.950 . S
C913 C910 1.387 . S
C914 C915 1.387 . S
C914 H918 0.950 . S
C914 C923 1.390 . S
C915 C914 1.387 . S
C915 C917 1.387 . S
H916 C923 0.950 1_545 S
C917 C915 1.387 . S
C917 C919 1.390 . S
C917 H921 0.950 . S
H918 C914 0.950 . S
C919 C917 1.390 . S
C919 C920 1.387 . S
C919 H922 0.950 . S
C920 C919 1.387 . S
C920 C923 1.387 . S
H921 C917 0.950 . S
H922 C919 0.950 . S
C923 C914 1.390 . S
C923 H916 0.950 1_565 S
C923 C920 1.387 . S
C924 C925 1.387 . S
C924 H928 0.950 . S
C924 C933 1.390 . S
C925 C924 1.387 . S
C925 C927 1.387 . S
H926 C933 0.950 . S
C927 C925 1.387 . S
C927 C929 1.390 . S
C927 H931 0.950 . S
H928 C924 0.950 . S
C929 C927 1.390 . S
C929 C930 1.387 . S
C929 H932 0.950 . S
C930 C929 1.387 . S
C930 C933 1.387 . S
H931 C927 0.950 . S
H932 C929 0.950 . S
C933 C924 1.390 . S
C933 H926 0.950 . S
C933 C930 1.387 . S
C934 C935 1.387 . S
C934 H938 0.950 . S
C934 C943 1.390 . S
C935 C934 1.387 . S
C935 C937 1.387 . S
H936 C943 0.950 . S
C937 C935 1.387 . S
C937 C939 1.390 . S
C937 H941 0.950 . S
H938 C934 0.950 . S
C939 C937 1.390 . S
C939 C940 1.387 . S
C939 H942 0.950 . S
C940 C939 1.387 . S
C940 C943 1.387 . S
H941 C937 0.950 . S
H942 C939 0.950 . S
C943 C934 1.390 . S
C943 H936 0.950 . S
C943 C940 1.387 . S
C944 C945 1.387 1_655 S
C944 H948 0.950 . S
C944 C953 1.390 . S
C945 C944 1.387 1_455 S
C945 C947 1.387 . S
H946 C953 0.950 . S
C947 C945 1.387 . S
C947 C949 1.390 . S
C947 H951 0.950 . S
H948 C944 0.950 . S
C949 C947 1.390 . S
C949 C950 1.387 . S
C949 H952 0.950 . S
C950 C949 1.387 . S
C950 C953 1.387 1_455 S
H951 C947 0.950 . S
H952 C949 0.950 . S
C953 C944 1.390 . S
C953 H946 0.950 . S
C953 C950 1.387 1_655 S
C954 C955 1.387 . S
C954 H958 0.950 . S
C954 C963 1.390 . S
C955 C954 1.387 . S
C955 C957 1.387 . S
H956 C963 0.950 . S
C957 C955 1.387 . S
C957 C959 1.390 . S
C957 H961 0.950 . S
H958 C954 0.950 . S
C959 C957 1.390 . S
C959 C960 1.387 . S
C959 H962 0.950 . S
C960 C959 1.387 . S
C960 C963 1.387 . S
H961 C957 0.950 . S
H962 C959 0.950 . S
C963 C954 1.390 . S
C963 H956 0.950 . S
C963 C960 1.387 . S
C964 C965 1.387 . S
C964 H968 0.950 . S
C964 C973 1.390 . S
C965 C964 1.387 . S
C965 C967 1.387 . S
H966 C973 0.950 . S
C967 C965 1.387 . S
C967 C969 1.390 . S
C967 H971 0.950 . S
H968 C964 0.950 . S
C969 C967 1.390 . S
C969 C970 1.387 . S
C969 H972 0.950 . S
C970 C969 1.387 . S
C970 C973 1.387 . S
H971 C967 0.950 . S
H972 C969 0.950 . S
C973 C964 1.390 . S
C973 H966 0.950 . S
C973 C970 1.387 . S
C974 C975 1.387 . S
C974 H978 0.950 . S
C974 C983 1.390 . S
C975 C974 1.387 . S
C975 C977 1.387 . S
H976 C983 0.950 . S
C977 C975 1.387 . S
C977 C979 1.390 . S
C977 H981 0.950 . S
H978 C974 0.950 . S
C979 C977 1.390 . S
C979 C980 1.387 . S
C979 H982 0.950 . S
C980 C979 1.387 . S
C980 C983 1.387 . S
H981 C977 0.950 . S
H982 C979 0.950 . S
C983 C974 1.390 . S
C983 H976 0.950 . S
C983 C980 1.387 . S
C984 C985 1.387 1_655 S
C984 H988 0.950 . S
C984 C993 1.390 . S
C985 C984 1.387 1_455 S
C985 C987 1.387 . S
H986 C993 0.950 . S
C987 C985 1.387 . S
C987 C989 1.390 . S
C987 H991 0.950 . S
H988 C984 0.950 . S
C989 C987 1.390 . S
C989 C990 1.387 . S
C989 H992 0.950 . S
C990 C989 1.387 . S
C990 C993 1.387 1_455 S
H991 C987 0.950 . S
H992 C989 0.950 . S
C993 C984 1.390 . S
C993 H986 0.950 . S
C993 C990 1.387 1_655 S
C994 C995 1.387 . S
C994 H998 0.950 . S
C994 C1003 1.390 . S
C995 C994 1.387 . S
C995 C997 1.387 . S
H996 C1003 0.950 . S
C997 C995 1.387 . S
C997 C999 1.390 . S
C997 H1001 0.950 . S
H998 C994 0.950 . S
C999 C997 1.390 . S
C999 C1000 1.387 . S
C999 H1002 0.950 . S
C1000 C999 1.387 . S
C1000 C1003 1.387 . S
H1001 C997 0.950 . S
H1002 C999 0.950 . S
C1003 C994 1.390 . S
C1003 H996 0.950 . S
C1003 C1000 1.387 . S
C1004 C1005 1.387 . S
C1004 H1008 0.950 . S
C1004 C1013 1.390 . S
C1005 C1004 1.387 . S
C1005 C1007 1.387 . S
H1006 C1013 0.950 . S
C1007 C1005 1.387 . S
C1007 C1009 1.390 . S
C1007 H1011 0.950 . S
H1008 C1004 0.950 . S
C1009 C1007 1.390 . S
C1009 C1010 1.387 . S
C1009 H1012 0.950 . S
C1010 C1009 1.387 . S
C1010 C1013 1.387 . S
H1011 C1007 0.950 . S
H1012 C1009 0.950 . S
C1013 C1004 1.390 . S
C1013 H1006 0.950 . S
C1013 C1010 1.387 . S
C1014 C1015 1.387 . S
C1014 H1018 0.950 . S
C1014 C1023 1.390 . S
C1015 C1014 1.387 . S
C1015 C1017 1.387 . S
H1016 C1023 0.950 . S
C1017 C1015 1.387 . S
C1017 C1019 1.390 . S
C1017 H1021 0.950 . S
H1018 C1014 0.950 . S
C1019 C1017 1.390 . S
C1019 C1020 1.387 . S
C1019 H1022 0.950 . S
C1020 C1019 1.387 . S
C1020 C1023 1.387 . S
H1021 C1017 0.950 . S
H1022 C1019 0.950 . S
C1023 C1014 1.390 . S
C1023 H1016 0.950 . S
C1023 C1020 1.387 . S
C1024 C1025 1.387 . S
C1024 H1028 0.950 . S
C1024 C1033 1.390 . S
C1025 C1024 1.387 . S
C1025 C1027 1.387 1_545 S
H1026 C1033 0.950 . S
C1027 C1025 1.387 1_565 S
C1027 C1029 1.390 1_565 S
C1027 H1031 0.950 . S
H1028 C1024 0.950 . S
C1029 C1027 1.390 1_545 S
C1029 C1030 1.387 . S
C1029 H1032 0.950 1_545 S
C1030 C1029 1.387 . S
C1030 C1033 1.387 . S
H1031 C1027 0.950 . S
H1032 C1029 0.950 1_565 S
C1033 C1024 1.390 . S
C1033 H1026 0.950 . S
C1033 C1030 1.387 . S
C1034 C1035 1.387 . S
C1034 H1038 0.950 . S
C1034 C1043 1.390 . S
C1035 C1034 1.387 . S
C1035 C1037 1.387 . S
H1036 C1043 0.950 . S
C1037 C1035 1.387 . S
C1037 C1039 1.390 . S
C1037 H1041 0.950 . S
H1038 C1034 0.950 . S
C1039 C1037 1.390 . S
C1039 C1040 1.387 . S
C1039 H1042 0.950 . S
C1040 C1039 1.387 . S
C1040 C1043 1.387 . S
H1041 C1037 0.950 . S
H1042 C1039 0.950 . S
C1043 C1034 1.390 . S
C1043 H1036 0.950 . S
C1043 C1040 1.387 . S
C1044 C1045 1.387 . S
C1044 H1048 0.950 . S
C1044 C1053 1.390 . S
C1045 C1044 1.387 . S
C1045 C1047 1.387 1_545 S
H1046 C1053 0.950 . S
C1047 C1045 1.387 1_565 S
C1047 C1049 1.390 . S
C1047 H1051 0.950 . S
H1048 C1044 0.950 . S
C1049 C1047 1.390 . S
C1049 C1050 1.387 . S
C1049 H1052 0.950 . S
C1050 C1049 1.387 . S
C1050 C1053 1.387 1_565 S
H1051 C1047 0.950 . S
H1052 C1049 0.950 . S
C1053 C1044 1.390 . S
C1053 H1046 0.950 . S
C1053 C1050 1.387 1_545 S
C1054 C1055 1.387 . S
C1054 H1058 0.950 . S
C1054 C1063 1.390 . S
C1055 C1054 1.387 . S
C1055 C1057 1.387 . S
H1056 C1063 0.950 . S
C1057 C1055 1.387 . S
C1057 C1059 1.390 . S
C1057 H1061 0.950 . S
H1058 C1054 0.950 . S
C1059 C1057 1.390 . S
C1059 C1060 1.387 . S
C1059 H1062 0.950 . S
C1060 C1059 1.387 . S
C1060 C1063 1.387 . S
H1061 C1057 0.950 . S
H1062 C1059 0.950 . S
C1063 C1054 1.390 . S
C1063 H1056 0.950 . S
C1063 C1060 1.387 . S
C1064 C1065 1.387 1_565 S
C1064 H1068 0.950 . S
C1064 C1073 1.390 . S
C1065 C1064 1.387 1_545 S
C1065 C1067 1.387 . S
H1066 C1073 0.950 . S
C1067 C1065 1.387 . S
C1067 C1069 1.390 . S
C1067 H1071 0.950 . S
H1068 C1064 0.950 . S
C1069 C1067 1.390 . S
C1069 C1070 1.387 1_545 S
C1069 H1072 0.950 . S
C1070 C1069 1.387 1_565 S
C1070 C1073 1.387 . S
H1071 C1067 0.950 . S
H1072 C1069 0.950 . S
C1073 C1064 1.390 . S
C1073 H1066 0.950 . S
C1073 C1070 1.387 . S
C1074 C1075 1.387 . S
C1074 H1078 0.950 . S
C1074 C1083 1.390 . S
C1075 C1074 1.387 . S
C1075 C1077 1.387 . S
H1076 C1083 0.950 . S
C1077 C1075 1.387 . S
C1077 C1079 1.390 . S
C1077 H1081 0.950 . S
H1078 C1074 0.950 . S
C1079 C1077 1.390 . S
C1079 C1080 1.387 . S
C1079 H1082 0.950 . S
C1080 C1079 1.387 . S
C1080 C1083 1.387 . S
H1081 C1077 0.950 . S
H1082 C1079 0.950 . S
C1083 C1074 1.390 . S
C1083 H1076 0.950 . S
C1083 C1080 1.387 . S
C1084 C1085 1.389 1_565 S
C1084 H1088 0.947 . S
C1084 C1093 1.391 1_565 S
C1085 C1084 1.389 1_545 S
C1085 C1087 1.387 . S
H1086 C1093 0.950 . S
C1087 C1085 1.387 . S
C1087 C1089 1.390 . S
C1087 H1091 0.950 . S
H1088 C1084 0.947 . S
C1089 C1087 1.390 . S
C1089 C1090 1.387 . S
C1089 H1092 0.950 . S
C1090 C1089 1.387 . S
C1090 C1093 1.387 . S
H1091 C1087 0.950 . S
H1092 C1089 0.950 . S
C1093 C1084 1.391 1_545 S
C1093 H1086 0.950 . S
C1093 C1090 1.387 . S
C1094 C1095 1.387 . S
C1094 H1098 0.950 . S
C1094 C1103 1.390 . S
C1095 C1094 1.387 . S
C1095 C1097 1.387 . S
H1096 C1103 0.950 . S
C1097 C1095 1.387 . S
C1097 C1099 1.390 . S
C1097 H1101 0.950 . S
H1098 C1094 0.950 . S
C1099 C1097 1.390 . S
C1099 C1100 1.387 . S
C1099 H1102 0.950 . S
C1100 C1099 1.387 . S
C1100 C1103 1.387 . S
H1101 C1097 0.950 . S
H1102 C1099 0.950 . S
C1103 C1094 1.390 . S
C1103 H1096 0.950 . S
C1103 C1100 1.387 . S
C1104 C1105 1.387 . S
C1104 H1108 0.950 1_554 S
C1104 C1113 1.390 . S
C1105 C1104 1.387 . S
C1105 C1107 1.387 . S
H1106 C1113 0.950 . S
C1107 C1105 1.387 . S
C1107 C1109 1.390 . S
C1107 H1111 0.950 . S
H1108 C1104 0.950 1_556 S
C1109 C1107 1.390 . S
C1109 C1110 1.387 . S
C1109 H1112 0.950 . S
C1110 C1109 1.387 . S
C1110 C1113 1.387 . S
H1111 C1107 0.950 . S
H1112 C1109 0.950 . S
C1113 C1104 1.390 . S
C1113 H1106 0.950 . S
C1113 C1110 1.387 . S
C1114 C1115 1.387 1_556 S
C1114 H1118 0.950 . S
C1114 C1123 1.390 . S
C1115 C1114 1.387 1_554 S
C1115 C1117 1.387 . S
H1116 C1123 0.950 . S
C1117 C1115 1.387 . S
C1117 C1119 1.390 . S
C1117 H1121 0.950 . S
H1118 C1114 0.950 . S
C1119 C1117 1.390 . S
C1119 C1120 1.371 1_554 S
C1119 H1122 0.950 . S
C1120 C1119 1.371 1_556 S
C1120 C1123 1.399 . S
H1121 C1117 0.950 . S
H1122 C1119 0.950 . S
C1123 C1114 1.390 . S
C1123 H1116 0.950 . S
C1123 C1120 1.399 . S
C1124 C1125 1.387 . S
C1124 H1128 0.950 . S
C1124 C1133 1.390 . S
C1125 C1124 1.387 . S
C1125 C1127 1.387 . S
H1126 C1133 0.950 . S
C1127 C1125 1.387 . S
C1127 C1129 1.390 . S
C1127 H1131 0.950 . S
H1128 C1124 0.950 . S
C1129 C1127 1.390 . S
C1129 C1130 1.387 . S
C1129 H1132 0.950 . S
C1130 C1129 1.387 . S
C1130 C1133 1.387 . S
H1131 C1127 0.950 . S
H1132 C1129 0.950 . S
C1133 C1124 1.390 . S
C1133 H1126 0.950 . S
C1133 C1130 1.387 . S
C1134 C1135 1.387 . S
C1134 H1138 0.950 . S
C1134 C1143 1.390 . S
C1135 C1134 1.387 . S
C1135 C1137 1.387 . S
H1136 C1143 0.950 . S
C1137 C1135 1.387 . S
C1137 C1139 1.390 . S
C1137 H1141 0.950 . S
H1138 C1134 0.950 . S
C1139 C1137 1.390 . S
C1139 C1140 1.387 . S
C1139 H1142 0.950 . S
C1140 C1139 1.387 . S
C1140 C1143 1.387 . S
H1141 C1137 0.950 . S
H1142 C1139 0.950 . S
C1143 C1134 1.390 . S
C1143 H1136 0.950 . S
C1143 C1140 1.387 . S
C1144 C1145 1.387 . S
C1144 H1148 0.950 . S
C1144 C1153 1.390 . S
C1145 C1144 1.387 . S
C1145 C1147 1.387 . S
H1146 C1153 0.950 . S
C1147 C1145 1.387 . S
C1147 C1149 1.390 . S
C1147 H1151 0.950 . S
H1148 C1144 0.950 . S
C1149 C1147 1.390 . S
C1149 C1150 1.387 . S
C1149 H1152 0.950 . S
C1150 C1149 1.387 . S
C1150 C1153 1.387 . S
H1151 C1147 0.950 . S
H1152 C1149 0.950 . S
C1153 C1144 1.390 . S
C1153 H1146 0.950 . S
C1153 C1150 1.387 . S
C1154 C1155 1.387 . S
C1154 H1158 0.950 . S
C1154 C1163 1.390 . S
C1155 C1154 1.387 . S
C1155 C1157 1.387 . S
H1156 C1163 0.950 . S
C1157 C1155 1.387 . S
C1157 C1159 1.390 . S
C1157 H1161 0.950 . S
H1158 C1154 0.950 . S
C1159 C1157 1.390 . S
C1159 C1160 1.387 . S
C1159 H1162 0.950 . S
C1160 C1159 1.387 . S
C1160 C1163 1.387 . S
H1161 C1157 0.950 . S
H1162 C1159 0.950 . S
C1163 C1154 1.390 . S
C1163 H1156 0.950 . S
C1163 C1160 1.387 . S
C1164 C1165 1.387 . S
C1164 H1168 0.950 . S
C1164 C1173 1.390 . S
C1165 C1164 1.387 . S
C1165 C1167 1.387 . S
H1166 C1173 0.950 . S
C1167 C1165 1.387 . S
C1167 C1169 1.390 . S
C1167 H1171 0.950 . S
H1168 C1164 0.950 . S
C1169 C1167 1.390 . S
C1169 C1170 1.387 . S
C1169 H1172 0.950 . S
C1170 C1169 1.387 . S
C1170 C1173 1.387 . S
H1171 C1167 0.950 . S
H1172 C1169 0.950 . S
C1173 C1164 1.390 . S
C1173 H1166 0.950 . S
C1173 C1170 1.387 . S
C1174 C1175 1.387 . S
C1174 H1178 0.950 . S
C1174 C1183 1.390 . S
C1175 C1174 1.387 . S
C1175 C1177 1.387 . S
H1176 C1183 0.950 . S
C1177 C1175 1.387 . S
C1177 C1179 1.390 . S
C1177 H1181 0.950 . S
H1178 C1174 0.950 . S
C1179 C1177 1.390 . S
C1179 C1180 1.387 . S
C1179 H1182 0.950 . S
C1180 C1179 1.387 . S
C1180 C1183 1.387 . S
H1181 C1177 0.950 . S
H1182 C1179 0.950 . S
C1183 C1174 1.390 . S
C1183 H1176 0.950 . S
C1183 C1180 1.387 . S
C1184 C1185 1.387 . S
C1184 H1188 0.950 . S
C1184 C1193 1.390 . S
C1185 C1184 1.387 . S
C1185 C1187 1.387 . S
H1186 C1193 0.950 . S
C1187 C1185 1.387 . S
C1187 C1189 1.390 . S
C1187 H1191 0.950 . S
H1188 C1184 0.950 . S
C1189 C1187 1.390 . S
C1189 C1190 1.387 . S
C1189 H1192 0.950 . S
C1190 C1189 1.387 . S
C1190 C1193 1.387 . S
H1191 C1187 0.950 . S
H1192 C1189 0.950 . S
C1193 C1184 1.390 . S
C1193 H1186 0.950 . S
C1193 C1190 1.387 . S
C1194 C1195 1.387 . S
C1194 H1198 0.950 . S
C1194 C1203 1.390 . S
C1195 C1194 1.387 . S
C1195 C1197 1.387 . S
H1196 C1203 0.950 . S
C1197 C1195 1.387 . S
C1197 C1199 1.390 . S
C1197 H1201 0.950 . S
H1198 C1194 0.950 . S
C1199 C1197 1.390 . S
C1199 C1200 1.387 . S
C1199 H1202 0.950 . S
C1200 C1199 1.387 . S
C1200 C1203 1.387 . S
H1201 C1197 0.950 . S
H1202 C1199 0.950 . S
C1203 C1194 1.390 . S
C1203 H1196 0.950 . S
C1203 C1200 1.387 . S
C1204 C1205 1.387 . S
C1204 H1208 0.950 1_455 S
C1204 C1213 1.390 . S
C1205 C1204 1.387 . S
C1205 C1207 1.387 . S
H1206 C1213 0.950 1_655 S
C1207 C1205 1.387 . S
C1207 C1209 1.390 . S
C1207 H1211 0.950 . S
H1208 C1204 0.950 1_655 S
C1209 C1207 1.390 . S
C1209 C1210 1.387 . S
C1209 H1212 0.950 . S
C1210 C1209 1.387 . S
C1210 C1213 1.387 . S
H1211 C1207 0.950 . S
H1212 C1209 0.950 . S
C1213 C1204 1.390 . S
C1213 H1206 0.950 1_455 S
C1213 C1210 1.387 . S
C1214 C1215 1.387 . S
C1214 H1218 0.950 . S
C1214 C1223 1.390 . S
C1215 C1214 1.387 . S
C1215 C1217 1.387 . S
H1216 C1223 0.950 . S
C1217 C1215 1.387 . S
C1217 C1219 1.390 . S
C1217 H1221 0.950 . S
H1218 C1214 0.950 . S
C1219 C1217 1.390 . S
C1219 C1220 1.387 . S
C1219 H1222 0.950 . S
C1220 C1219 1.387 . S
C1220 C1223 1.387 . S
H1221 C1217 0.950 . S
H1222 C1219 0.950 . S
C1223 C1214 1.390 . S
C1223 H1216 0.950 . S
C1223 C1220 1.387 . S
C1224 C1225 1.387 . S
C1224 H1228 0.950 . S
C1224 C1233 1.417 . S
C1225 C1224 1.387 . S
C1225 C1227 1.387 . S
H1226 C1233 0.917 1_554 S
C1227 C1225 1.387 . S
C1227 C1229 1.390 . S
C1227 H1231 0.950 . S
H1228 C1224 0.950 . S
C1229 C1227 1.390 . S
C1229 C1230 1.387 . S
C1229 H1232 0.950 . S
C1230 C1229 1.387 . S
C1230 C1233 1.394 . S
H1231 C1227 0.950 . S
H1232 C1229 0.950 . S
C1233 C1224 1.417 . S
C1233 H1226 0.917 1_556 S
C1233 C1230 1.394 . S
C1234 C1235 1.387 . S
C1234 H1238 0.950 . S
C1234 C1243 1.390 . S
C1235 C1234 1.387 . S
C1235 C1237 1.387 . S
H1236 C1243 0.950 . S
C1237 C1235 1.387 . S
C1237 C1239 1.390 . S
C1237 H1241 0.950 . S
H1238 C1234 0.950 . S
C1239 C1237 1.390 . S
C1239 C1240 1.387 . S
C1239 H1242 0.950 . S
C1240 C1239 1.387 . S
C1240 C1243 1.387 . S
H1241 C1237 0.950 . S
H1242 C1239 0.950 . S
C1243 C1234 1.390 . S
C1243 H1236 0.950 . S
C1243 C1240 1.387 . S
C1244 C1245 1.387 . S
C1244 H1248 0.950 . S
C1244 C1253 1.390 . S
C1245 C1244 1.387 . S
C1245 C1247 1.387 . S
H1246 C1253 0.950 . S
C1247 C1245 1.387 . S
C1247 C1249 1.390 . S
C1247 H1251 0.950 1_455 S
H1248 C1244 0.950 . S
C1249 C1247 1.390 . S
C1249 C1250 1.387 . S
C1249 H1252 0.950 . S
C1250 C1249 1.387 . S
C1250 C1253 1.387 . S
H1251 C1247 0.950 1_655 S
H1252 C1249 0.950 . S
C1253 C1244 1.390 . S
C1253 H1246 0.950 . S
C1253 C1250 1.387 . S
C1254 C1255 1.387 . S
C1254 H1258 0.950 . S
C1254 C1263 1.390 . S
C1255 C1254 1.387 . S
C1255 C1257 1.387 . S
H1256 C1263 0.950 . S
C1257 C1255 1.387 . S
C1257 C1259 1.390 . S
C1257 H1261 0.950 . S
H1258 C1254 0.950 . S
C1259 C1257 1.390 . S
C1259 C1260 1.387 . S
C1259 H1262 0.950 . S
C1260 C1259 1.387 . S
C1260 C1263 1.387 . S
H1261 C1257 0.950 . S
H1262 C1259 0.950 . S
C1263 C1254 1.390 . S
C1263 H1256 0.950 . S
C1263 C1260 1.387 . S
C1264 C1265 1.387 . S
C1264 H1268 0.950 . S
C1264 C1273 1.390 . S
C1265 C1264 1.387 . S
C1265 C1267 1.387 . S
H1266 C1273 0.950 . S
C1267 C1265 1.387 . S
C1267 C1269 1.390 . S
C1267 H1271 0.950 . S
H1268 C1264 0.950 . S
C1269 C1267 1.390 . S
C1269 C1270 1.387 . S
C1269 H1272 0.950 . S
C1270 C1269 1.387 . S
C1270 C1273 1.387 . S
H1271 C1267 0.950 . S
H1272 C1269 0.950 . S
C1273 C1264 1.390 . S
C1273 H1266 0.950 . S
C1273 C1270 1.387 . S
C1274 C1275 1.387 . S
C1274 H1278 0.950 . S
C1274 C1283 1.390 . S
C1275 C1274 1.387 . S
C1275 C1277 1.387 . S
H1276 C1283 0.950 . S
C1277 C1275 1.387 . S
C1277 C1279 1.390 . S
C1277 H1281 0.950 . S
H1278 C1274 0.950 . S
C1279 C1277 1.390 . S
C1279 C1280 1.387 . S
C1279 H1282 0.950 . S
C1280 C1279 1.387 . S
C1280 C1283 1.387 . S
H1281 C1277 0.950 . S
H1282 C1279 0.950 . S
C1283 C1274 1.390 . S
C1283 H1276 0.950 . S
C1283 C1280 1.387 . S
C1284 C1285 1.387 . S
C1284 H1288 0.950 . S
C1284 C1293 1.390 . S
C1285 C1284 1.387 . S
C1285 C1287 1.387 . S
H1286 C1293 0.950 . S
C1287 C1285 1.387 . S
C1287 C1289 1.390 . S
C1287 H1291 0.950 . S
H1288 C1284 0.950 . S
C1289 C1287 1.390 . S
C1289 C1290 1.387 . S
C1289 H1292 0.950 . S
C1290 C1289 1.387 . S
C1290 C1293 1.387 . S
H1291 C1287 0.950 . S
H1292 C1289 0.950 . S
C1293 C1284 1.390 . S
C1293 H1286 0.950 . S
C1293 C1290 1.387 . S
C1294 C1295 1.387 . S
C1294 H1298 0.950 . S
C1294 C1303 1.390 . S
C1295 C1294 1.387 . S
C1295 C1297 1.387 . S
H1296 C1303 0.950 . S
C1297 C1295 1.387 . S
C1297 C1299 1.390 . S
C1297 H1301 0.950 . S
H1298 C1294 0.950 . S
C1299 C1297 1.390 . S
C1299 C1300 1.387 . S
C1299 H1302 0.950 . S
C1300 C1299 1.387 . S
C1300 C1303 1.387 . S
H1301 C1297 0.950 . S
H1302 C1299 0.950 . S
C1303 C1294 1.390 . S
C1303 H1296 0.950 . S
C1303 C1300 1.387 . S
C1304 C1305 1.387 . S
C1304 H1308 0.950 . S
C1304 C1313 1.390 . S
C1305 C1304 1.387 . S
C1305 C1307 1.387 . S
H1306 C1313 0.950 . S
C1307 C1305 1.387 . S
C1307 C1309 1.390 . S
C1307 H1311 0.950 . S
H1308 C1304 0.950 . S
C1309 C1307 1.390 . S
C1309 C1310 1.387 . S
C1309 H1312 0.950 . S
C1310 C1309 1.387 . S
C1310 C1313 1.387 . S
H1311 C1307 0.950 . S
H1312 C1309 0.950 . S
C1313 C1304 1.390 . S
C1313 H1306 0.950 . S
C1313 C1310 1.387 . S
C1314 C1315 1.387 . S
C1314 H1318 0.950 . S
C1314 C1323 1.390 . S
C1315 C1314 1.387 . S
C1315 C1317 1.387 . S
H1316 C1323 0.950 . S
C1317 C1315 1.387 . S
C1317 C1319 1.390 . S
C1317 H1321 0.950 . S
H1318 C1314 0.950 . S
C1319 C1317 1.390 . S
C1319 C1320 1.387 . S
C1319 H1322 0.950 . S
C1320 C1319 1.387 . S
C1320 C1323 1.387 . S
H1321 C1317 0.950 . S
H1322 C1319 0.950 . S
C1323 C1314 1.390 . S
C1323 H1316 0.950 . S
C1323 C1320 1.387 . S
C1324 C1325 1.387 . S
C1324 H1328 0.950 . S
C1324 C1333 1.390 . S
C1325 C1324 1.387 . S
C1325 C1327 1.387 . S
H1326 C1333 0.950 . S
C1327 C1325 1.387 . S
C1327 C1329 1.390 . S
C1327 H1331 0.950 . S
H1328 C1324 0.950 . S
C1329 C1327 1.390 . S
C1329 C1330 1.387 . S
C1329 H1332 0.950 . S
C1330 C1329 1.387 . S
C1330 C1333 1.387 . S
H1331 C1327 0.950 . S
H1332 C1329 0.950 . S
C1333 C1324 1.390 . S
C1333 H1326 0.950 . S
C1333 C1330 1.387 . S
C1334 C1335 1.387 . S
C1334 H1338 0.950 . S
C1334 C1343 1.390 . S
C1335 C1334 1.387 . S
C1335 C1337 1.387 . S
H1336 C1343 0.950 . S
C1337 C1335 1.387 . S
C1337 C1339 1.390 . S
C1337 H1341 0.950 . S
H1338 C1334 0.950 . S
C1339 C1337 1.390 . S
C1339 C1340 1.387 . S
C1339 H1342 0.950 . S
C1340 C1339 1.387 . S
C1340 C1343 1.387 . S
H1341 C1337 0.950 . S
H1342 C1339 0.950 . S
C1343 C1334 1.390 . S
C1343 H1336 0.950 . S
C1343 C1340 1.387 . S
C1344 C1345 1.387 . S
C1344 H1348 0.950 . S
C1344 C1353 1.390 . S
C1345 C1344 1.387 . S
C1345 C1347 1.387 . S
H1346 C1353 0.950 . S
C1347 C1345 1.387 . S
C1347 C1349 1.390 . S
C1347 H1351 0.950 . S
H1348 C1344 0.950 . S
C1349 C1347 1.390 . S
C1349 C1350 1.387 . S
C1349 H1352 0.950 . S
C1350 C1349 1.387 . S
C1350 C1353 1.387 . S
H1351 C1347 0.950 . S
H1352 C1349 0.950 . S
C1353 C1344 1.390 . S
C1353 H1346 0.950 . S
C1353 C1350 1.387 . S
C1354 C1355 1.387 . S
C1354 H1358 0.950 . S
C1354 C1363 1.390 . S
C1355 C1354 1.387 . S
C1355 C1357 1.387 . S
H1356 C1363 0.950 . S
C1357 C1355 1.387 . S
C1357 C1359 1.390 . S
C1357 H1361 0.950 . S
H1358 C1354 0.950 . S
C1359 C1357 1.390 . S
C1359 C1360 1.387 . S
C1359 H1362 0.950 . S
C1360 C1359 1.387 . S
C1360 C1363 1.387 . S
H1361 C1357 0.950 . S
H1362 C1359 0.950 . S
C1363 C1354 1.390 . S
C1363 H1356 0.950 . S
C1363 C1360 1.387 . S
C1364 C1365 1.387 . S
C1364 H1368 0.950 . S
C1364 C1373 1.390 . S
C1365 C1364 1.387 . S
C1365 C1367 1.387 . S
H1366 C1373 0.950 . S
C1367 C1365 1.387 . S
C1367 C1369 1.390 . S
C1367 H1371 0.950 . S
H1368 C1364 0.950 . S
C1369 C1367 1.390 . S
C1369 C1370 1.387 . S
C1369 H1372 0.950 . S
C1370 C1369 1.387 . S
C1370 C1373 1.387 . S
H1371 C1367 0.950 . S
H1372 C1369 0.950 . S
C1373 C1364 1.390 . S
C1373 H1366 0.950 . S
C1373 C1370 1.387 . S
C1374 C1375 1.387 . S
C1374 H1378 0.950 1_554 S
C1374 C1383 1.390 . S
C1375 C1374 1.387 . S
C1375 C1377 1.387 . S
H1376 C1383 0.950 1_556 S
C1377 C1375 1.387 . S
C1377 C1379 1.390 . S
C1377 H1381 0.950 . S
H1378 C1374 0.950 1_556 S
C1379 C1377 1.390 . S
C1379 C1380 1.387 . S
C1379 H1382 0.950 . S
C1380 C1379 1.387 . S
C1380 C1383 1.387 . S
H1381 C1377 0.950 . S
H1382 C1379 0.950 . S
C1383 C1374 1.390 . S
C1383 H1376 0.950 1_554 S
C1383 C1380 1.387 . S
C1384 C1385 1.387 . S
C1384 H1388 0.950 . S
C1384 C1393 1.390 . S
C1385 C1384 1.387 . S
C1385 C1387 1.387 . S
H1386 C1393 0.950 . S
C1387 C1385 1.387 . S
C1387 C1389 1.390 . S
C1387 H1391 0.950 . S
H1388 C1384 0.950 . S
C1389 C1387 1.390 . S
C1389 C1390 1.387 . S
C1389 H1392 0.950 . S
C1390 C1389 1.387 . S
C1390 C1393 1.387 . S
H1391 C1387 0.950 . S
H1392 C1389 0.950 . S
C1393 C1384 1.390 . S
C1393 H1386 0.950 . S
C1393 C1390 1.387 . S
C1394 C1395 1.387 . S
C1394 H1398 0.950 . S
C1394 C1403 1.390 . S
C1395 C1394 1.387 . S
C1395 C1397 1.387 . S
H1396 C1403 0.950 . S
C1397 C1395 1.387 . S
C1397 C1399 1.390 . S
C1397 H1401 0.950 . S
H1398 C1394 0.950 . S
C1399 C1397 1.390 . S
C1399 C1400 1.387 . S
C1399 H1402 0.950 . S
C1400 C1399 1.387 . S
C1400 C1403 1.387 . S
H1401 C1397 0.950 . S
H1402 C1399 0.950 . S
C1403 C1394 1.390 . S
C1403 H1396 0.950 . S
C1403 C1400 1.387 . S
C1404 C1405 1.387 . S
C1404 H1408 0.950 . S
C1404 C1413 1.390 . S
C1405 C1404 1.387 . S
C1405 C1407 1.387 . S
H1406 C1413 0.950 . S
C1407 C1405 1.387 . S
C1407 C1409 1.390 . S
C1407 H1411 0.950 . S
H1408 C1404 0.950 . S
C1409 C1407 1.390 . S
C1409 C1410 1.387 . S
C1409 H1412 0.950 . S
C1410 C1409 1.387 . S
C1410 C1413 1.387 . S
H1411 C1407 0.950 . S
H1412 C1409 0.950 . S
C1413 C1404 1.390 . S
C1413 H1406 0.950 . S
C1413 C1410 1.387 . S
C1414 C1415 1.387 . S
C1414 H1418 0.950 . S
C1414 C1423 1.390 . S
C1415 C1414 1.387 . S
C1415 C1417 1.387 . S
H1416 C1423 0.950 . S
C1417 C1415 1.387 . S
C1417 C1419 1.390 . S
C1417 H1421 0.950 . S
H1418 C1414 0.950 . S
C1419 C1417 1.390 . S
C1419 C1420 1.387 . S
C1419 H1422 0.950 . S
C1420 C1419 1.387 . S
C1420 C1423 1.387 . S
H1421 C1417 0.950 . S
H1422 C1419 0.950 . S
C1423 C1414 1.390 . S
C1423 H1416 0.950 . S
C1423 C1420 1.387 . S
C1424 C1425 1.387 . S
C1424 H1428 0.950 . S
C1424 C1433 1.390 . S
C1425 C1424 1.387 . S
C1425 C1427 1.387 . S
H1426 C1433 0.950 . S
C1427 C1425 1.387 . S
C1427 C1429 1.390 . S
C1427 H1431 0.950 . S
H1428 C1424 0.950 . S
C1429 C1427 1.390 . S
C1429 C1430 1.387 . S
C1429 H1432 0.950 . S
C1430 C1429 1.387 . S
C1430 C1433 1.387 . S
H1431 C1427 0.950 . S
H1432 C1429 0.950 . S
C1433 C1424 1.390 . S
C1433 H1426 0.950 . S
C1433 C1430 1.387 . S
C1434 C1435 1.387 . S
C1434 H1438 0.950 . S
C1434 C1443 1.390 . S
C1435 C1434 1.387 . S
C1435 C1437 1.387 . S
H1436 C1443 0.950 . S
C1437 C1435 1.387 . S
C1437 C1439 1.390 . S
C1437 H1441 0.950 . S
H1438 C1434 0.950 . S
C1439 C1437 1.390 . S
C1439 C1440 1.387 . S
C1439 H1442 0.950 . S
C1440 C1439 1.387 . S
C1440 C1443 1.387 . S
H1441 C1437 0.950 . S
H1442 C1439 0.950 . S
C1443 C1434 1.390 . S
C1443 H1436 0.950 . S
C1443 C1440 1.387 . S
C1444 C1445 1.387 1_655 S
C1444 H1448 0.950 . S
C1444 C1453 1.390 . S
C1445 C1444 1.387 1_455 S
C1445 C1447 1.387 . S
H1446 C1453 0.950 . S
C1447 C1445 1.387 . S
C1447 C1449 1.390 . S
C1447 H1451 0.950 . S
H1448 C1444 0.950 . S
C1449 C1447 1.390 . S
C1449 C1450 1.387 1_455 S
C1449 H1452 0.950 1_556 S
C1450 C1449 1.387 1_655 S
C1450 C1453 1.387 . S
H1451 C1447 0.950 . S
H1452 C1449 0.950 1_554 S
C1453 C1444 1.390 . S
C1453 H1446 0.950 . S
C1453 C1450 1.387 . S
C1454 C1455 1.387 . S
C1454 H1458 0.950 . S
C1454 C1463 1.390 . S
C1455 C1454 1.387 . S
C1455 C1457 1.387 . S
H1456 C1463 0.950 . S
C1457 C1455 1.387 . S
C1457 C1459 1.390 . S
C1457 H1461 0.950 . S
H1458 C1454 0.950 . S
C1459 C1457 1.390 . S
C1459 C1460 1.387 . S
C1459 H1462 0.950 . S
C1460 C1459 1.387 . S
C1460 C1463 1.387 . S
H1461 C1457 0.950 . S
H1462 C1459 0.950 . S
C1463 C1454 1.390 . S
C1463 H1456 0.950 . S
C1463 C1460 1.387 . S
C1464 C1465 1.387 . S
C1464 H1468 0.950 . S
C1464 C1473 1.390 . S
C1465 C1464 1.387 . S
C1465 C1467 1.387 . S
H1466 C1473 0.950 . S
C1467 C1465 1.387 . S
C1467 C1469 1.390 . S
C1467 H1471 0.950 . S
H1468 C1464 0.950 . S
C1469 C1467 1.390 . S
C1469 C1470 1.387 . S
C1469 H1472 0.950 . S
C1470 C1469 1.387 . S
C1470 C1473 1.387 . S
H1471 C1467 0.950 . S
H1472 C1469 0.950 . S
C1473 C1464 1.390 . S
C1473 H1466 0.950 . S
C1473 C1470 1.387 . S
C1474 C1475 1.387 . S
C1474 H1478 0.950 . S
C1474 C1483 1.390 . S
C1475 C1474 1.387 . S
C1475 C1477 1.387 . S
H1476 C1483 0.950 . S
C1477 C1475 1.387 . S
C1477 C1479 1.390 . S
C1477 H1481 0.950 . S
H1478 C1474 0.950 . S
C1479 C1477 1.390 . S
C1479 C1480 1.387 . S
C1479 H1482 0.950 . S
C1480 C1479 1.387 . S
C1480 C1483 1.387 . S
H1481 C1477 0.950 . S
H1482 C1479 0.950 . S
C1483 C1474 1.390 . S
C1483 H1476 0.950 . S
C1483 C1480 1.387 . S
C1484 C1485 1.387 . S
C1484 H1488 0.950 . S
C1484 C1493 1.390 . S
C1485 C1484 1.387 . S
C1485 C1487 1.387 1_455 S
H1486 C1493 0.950 . S
C1487 C1485 1.387 1_655 S
C1487 C1489 1.390 . S
C1487 H1491 0.950 . S
H1488 C1484 0.950 . S
C1489 C1487 1.390 . S
C1489 C1490 1.387 . S
C1489 H1492 0.950 . S
C1490 C1489 1.387 . S
C1490 C1493 1.387 1_655 S
H1491 C1487 0.950 . S
H1492 C1489 0.950 . S
C1493 C1484 1.390 . S
C1493 H1486 0.950 . S
C1493 C1490 1.387 1_455 S
C1494 C1495 1.387 . S
C1494 H1498 0.950 . S
C1494 C1503 1.390 . S
C1495 C1494 1.387 . S
C1495 C1497 1.387 . S
H1496 C1503 0.950 . S
C1497 C1495 1.387 . S
C1497 C1499 1.390 . S
C1497 H1501 0.950 . S
H1498 C1494 0.950 . S
C1499 C1497 1.390 . S
C1499 C1500 1.387 . S
C1499 H1502 0.950 . S
C1500 C1499 1.387 . S
C1500 C1503 1.387 . S
H1501 C1497 0.950 . S
H1502 C1499 0.950 . S
C1503 C1494 1.390 . S
C1503 H1496 0.950 . S
C1503 C1500 1.387 . S
C1504 C1505 1.387 . S
C1504 H1508 0.950 . S
C1504 C1513 1.390 . S
C1505 C1504 1.387 . S
C1505 C1507 1.387 . S
H1506 C1513 0.950 . S
C1507 C1505 1.387 . S
C1507 C1509 1.390 . S
C1507 H1511 0.950 . S
H1508 C1504 0.950 . S
C1509 C1507 1.390 . S
C1509 C1510 1.387 . S
C1509 H1512 0.950 . S
C1510 C1509 1.387 . S
C1510 C1513 1.387 . S
H1511 C1507 0.950 . S
H1512 C1509 0.950 . S
C1513 C1504 1.390 . S
C1513 H1506 0.950 . S
C1513 C1510 1.387 . S
C1514 C1515 1.387 . S
C1514 H1518 0.950 . S
C1514 C1523 1.390 . S
C1515 C1514 1.387 . S
C1515 C1517 1.387 . S
H1516 C1523 0.950 . S
C1517 C1515 1.387 . S
C1517 C1519 1.390 . S
C1517 H1521 0.950 . S
H1518 C1514 0.950 . S
C1519 C1517 1.390 . S
C1519 C1520 1.387 . S
C1519 H1522 0.950 . S
C1520 C1519 1.387 . S
C1520 C1523 1.387 . S
H1521 C1517 0.950 . S
H1522 C1519 0.950 . S
C1523 C1514 1.390 . S
C1523 H1516 0.950 . S
C1523 C1520 1.387 . S
C1524 C1525 1.387 . S
C1524 H1528 0.950 . S
C1524 C1533 1.390 . S
C1525 C1524 1.387 . S
C1525 C1527 1.387 . S
H1526 C1533 0.950 . S
C1527 C1525 1.387 . S
C1527 C1529 1.390 . S
C1527 H1531 0.950 . S
H1528 C1524 0.950 . S
C1529 C1527 1.390 . S
C1529 C1530 1.387 . S
C1529 H1532 0.950 . S
C1530 C1529 1.387 . S
C1530 C1533 1.387 . S
H1531 C1527 0.950 . S
H1532 C1529 0.950 . S
C1533 C1524 1.390 . S
C1533 H1526 0.950 . S
C1533 C1530 1.387 . S
C1534 C1535 1.387 . S
C1534 H1538 0.950 . S
C1534 C1543 1.390 . S
C1535 C1534 1.387 . S
C1535 C1537 1.387 . S
H1536 C1543 0.950 . S
C1537 C1535 1.387 . S
C1537 C1539 1.390 . S
C1537 H1541 0.950 . S
H1538 C1534 0.950 . S
C1539 C1537 1.390 . S
C1539 C1540 1.387 . S
C1539 H1542 0.950 . S
C1540 C1539 1.387 . S
C1540 C1543 1.387 . S
H1541 C1537 0.950 . S
H1542 C1539 0.950 . S
C1543 C1534 1.390 . S
C1543 H1536 0.950 . S
C1543 C1540 1.387 . S
C1544 C1545 1.387 . S
C1544 H1548 0.950 . S
C1544 C1553 1.390 . S
C1545 C1544 1.387 . S
C1545 C1547 1.387 . S
H1546 C1553 0.950 . S
C1547 C1545 1.387 . S
C1547 C1549 1.390 . S
C1547 H1551 0.950 . S
H1548 C1544 0.950 . S
C1549 C1547 1.390 . S
C1549 C1550 1.387 . S
C1549 H1552 0.950 . S
C1550 C1549 1.387 . S
C1550 C1553 1.387 . S
H1551 C1547 0.950 . S
H1552 C1549 0.950 . S
C1553 C1544 1.390 . S
C1553 H1546 0.950 . S
C1553 C1550 1.387 . S
C1554 C1555 1.387 . S
C1554 H1558 0.950 . S
C1554 C1563 1.390 . S
C1555 C1554 1.387 . S
C1555 C1557 1.387 . S
H1556 C1563 0.950 . S
C1557 C1555 1.387 . S
C1557 C1559 1.390 . S
C1557 H1561 0.950 . S
H1558 C1554 0.950 . S
C1559 C1557 1.390 . S
C1559 C1560 1.387 . S
C1559 H1562 0.950 . S
C1560 C1559 1.387 . S
C1560 C1563 1.387 . S
H1561 C1557 0.950 . S
H1562 C1559 0.950 . S
C1563 C1554 1.390 . S
C1563 H1556 0.950 . S
C1563 C1560 1.387 . S
C1564 C1565 1.387 . S
C1564 H1568 0.950 . S
C1564 C1573 1.390 . S
C1565 C1564 1.387 . S
C1565 C1567 1.387 . S
H1566 C1573 0.950 . S
C1567 C1565 1.387 . S
C1567 C1569 1.390 . S
C1567 H1571 0.950 . S
H1568 C1564 0.950 . S
C1569 C1567 1.390 . S
C1569 C1570 1.387 . S
C1569 H1572 0.950 . S
C1570 C1569 1.387 . S
C1570 C1573 1.387 . S
H1571 C1567 0.950 . S
H1572 C1569 0.950 . S
C1573 C1564 1.390 . S
C1573 H1566 0.950 . S
C1573 C1570 1.387 . S
C1574 C1575 1.387 . S
C1574 H1578 0.950 . S
C1574 C1583 1.390 . S
C1575 C1574 1.387 . S
C1575 C1577 1.387 . S
H1576 C1583 0.950 . S
C1577 C1575 1.387 . S
C1577 C1579 1.390 . S
C1577 H1581 0.950 . S
H1578 C1574 0.950 . S
C1579 C1577 1.390 . S
C1579 C1580 1.387 . S
C1579 H1582 0.950 . S
C1580 C1579 1.387 . S
C1580 C1583 1.387 . S
H1581 C1577 0.950 . S
H1582 C1579 0.950 . S
C1583 C1574 1.390 . S
C1583 H1576 0.950 . S
C1583 C1580 1.387 . S
C1584 C1585 1.387 . S
C1584 H1588 0.950 . S
C1584 C1593 1.390 . S
C1585 C1584 1.387 . S
C1585 C1587 1.387 . S
H1586 C1593 0.950 . S
C1587 C1585 1.387 . S
C1587 C1589 1.390 . S
C1587 H1591 0.950 . S
H1588 C1584 0.950 . S
C1589 C1587 1.390 . S
C1589 C1590 1.387 . S
C1589 H1592 0.950 . S
C1590 C1589 1.387 . S
C1590 C1593 1.387 . S
H1591 C1587 0.950 . S
H1592 C1589 0.950 . S
C1593 C1584 1.390 . S
C1593 H1586 0.950 . S
C1593 C1590 1.387 . S
C1594 C1595 1.387 . S
C1594 H1598 0.950 . S
C1594 C1603 1.390 . S
C1595 C1594 1.387 . S
C1595 C1597 1.387 . S
H1596 C1603 0.950 . S
C1597 C1595 1.387 . S
C1597 C1599 1.390 . S
C1597 H1601 0.950 . S
H1598 C1594 0.950 . S
C1599 C1597 1.390 . S
C1599 C1600 1.387 . S
C1599 H1602 0.950 . S
C1600 C1599 1.387 . S
C1600 C1603 1.387 . S
H1601 C1597 0.950 . S
H1602 C1599 0.950 . S
C1603 C1594 1.390 . S
C1603 H1596 0.950 . S
C1603 C1600 1.387 . S
C1604 C1605 1.387 . S
C1604 H1608 0.950 . S
C1604 C1613 1.390 . S
C1605 C1604 1.387 . S
C1605 C1607 1.387 . S
H1606 C1613 0.950 . S
C1607 C1605 1.387 . S
C1607 C1609 1.390 . S
C1607 H1611 0.950 . S
H1608 C1604 0.950 . S
C1609 C1607 1.390 . S
C1609 C1610 1.387 . S
C1609 H1612 0.950 . S
C1610 C1609 1.387 . S
C1610 C1613 1.387 . S
H1611 C1607 0.950 . S
H1612 C1609 0.950 . S
C1613 C1604 1.390 . S
C1613 H1606 0.950 . S
C1613 C1610 1.387 . S
C1614 C1615 1.387 1_556 S
C1614 H1618 0.950 . S
C1614 C1623 1.390 . S
C1615 C1614 1.387 1_554 S
C1615 C1617 1.387 . S
H1616 C1623 0.950 . S
C1617 C1615 1.387 . S
C1617 C1619 1.390 . S
C1617 H1621 0.950 . S
H1618 C1614 0.950 . S
C1619 C1617 1.390 . S
C1619 C1620 1.387 1_554 S
C1619 H1622 0.950 . S
C1620 C1619 1.387 1_556 S
C1620 C1623 1.387 . S
H1621 C1617 0.950 . S
H1622 C1619 0.950 . S
C1623 C1614 1.390 . S
C1623 H1616 0.950 . S
C1623 C1620 1.387 . S
C1624 C1625 1.387 . S
C1624 H1628 0.950 . S
C1624 C1633 1.390 . S
C1625 C1624 1.387 . S
C1625 C1627 1.387 . S
H1626 C1633 0.950 . S
C1627 C1625 1.387 . S
C1627 C1629 1.390 . S
C1627 H1631 0.950 . S
H1628 C1624 0.950 . S
C1629 C1627 1.390 . S
C1629 C1630 1.387 . S
C1629 H1632 0.950 . S
C1630 C1629 1.387 . S
C1630 C1633 1.387 . S
H1631 C1627 0.950 . S
H1632 C1629 0.950 . S
C1633 C1624 1.390 . S
C1633 H1626 0.950 . S
C1633 C1630 1.387 . S
C1634 C1635 1.387 . S
C1634 H1638 0.950 . S
C1634 C1643 1.390 . S
C1635 C1634 1.387 . S
C1635 C1637 1.387 . S
H1636 C1643 0.950 . S
C1637 C1635 1.387 . S
C1637 C1639 1.390 . S
C1637 H1641 0.950 1_554 S
H1638 C1634 0.950 . S
C1639 C1637 1.390 . S
C1639 C1640 1.387 . S
C1639 H1642 0.950 . S
C1640 C1639 1.387 . S
C1640 C1643 1.387 . S
H1641 C1637 0.950 1_556 S
H1642 C1639 0.950 . S
C1643 C1634 1.390 . S
C1643 H1636 0.950 . S
C1643 C1640 1.387 . S
C1644 C1645 1.387 . S
C1644 H1648 0.950 . S
C1644 C1653 1.390 . S
C1645 C1644 1.387 . S
C1645 C1647 1.387 . S
H1646 C1653 0.950 . S
C1647 C1645 1.387 . S
C1647 C1649 1.390 . S
C1647 H1651 0.950 . S
H1648 C1644 0.950 . S
C1649 C1647 1.390 . S
C1649 C1650 1.387 . S
C1649 H1652 0.950 . S
C1650 C1649 1.387 . S
C1650 C1653 1.387 . S
H1651 C1647 0.950 . S
H1652 C1649 0.950 . S
C1653 C1644 1.390 . S
C1653 H1646 0.950 . S
C1653 C1650 1.387 . S
C1654 C1655 1.387 . S
C1654 H1658 0.950 . S
C1654 C1663 1.390 . S
C1655 C1654 1.387 . S
C1655 C1657 1.387 . S
H1656 C1663 0.950 . S
C1657 C1655 1.387 . S
C1657 C1659 1.390 . S
C1657 H1661 0.950 . S
H1658 C1654 0.950 . S
C1659 C1657 1.390 . S
C1659 C1660 1.387 . S
C1659 H1662 0.950 . S
C1660 C1659 1.387 . S
C1660 C1663 1.387 . S
H1661 C1657 0.950 . S
H1662 C1659 0.950 . S
C1663 C1654 1.390 . S
C1663 H1656 0.950 . S
C1663 C1660 1.387 . S
C710 C352 1.372 . S
C705 C8 1.382 . S
C715 C22 1.934 . S
C720 C380 1.714 . S
C725 C35 1.115 . S
C730 C398 1.125 . S
C740 C424 1.418 . S
C735 C49 1.542 . S
C745 C23 2.002 . S
C750 C447 1.725 . S
C760 C467 1.111 . S
C755 C34 1.101 . S
C770 C495 1.372 1_556 S
C765 C48 1.471 . S
C775 C9 1.390 . S
C780 C513 1.378 . S
C785 C64 1.549 . S
C790 C354 1.571 . S
C795 C77 1.163 . S
C800 C376 1.193 . S
C810 C400 1.707 . S
C805 C92 1.678 . S
C820 C421 1.347 . S
C815 C105 1.313 . S
C825 C63 1.219 . S
C830 C444 1.252 . S
C840 C469 1.712 . S
C835 C78 1.685 . S
C850 C491 1.289 . S
C845 C91 1.256 . S
C860 C515 1.565 . S
C855 C106 1.541 . S
C870 C355 1.225 . S
C865 C107 1.408 . S
C880 C538 1.256 . S
C875 C118 1.206 . S
C885 C135 1.493 . S
C890 C562 1.323 . S
C900 C586 1.280 . S
C895 C146 1.279 . S
C905 C65 1.413 . S
C910 C516 1.233 . S
C920 C401 1.322 1_565 S
C915 C79 1.540 . S
C925 C132 1.285 . S
C930 C607 1.348 . S
C940 C632 1.197 . S
C935 C160 1.200 . S
C945 C177 1.451 . S
C950 C353 1.399 . S
C960 C630 1.161 . S
C955 C188 1.150 . S
C965 C204 1.491 . S
C970 C399 1.442 . S
C975 C219 1.232 . S
C980 C609 1.173 . S
C990 C448 1.208 . S
C985 C190 1.263 . S
C1000 C560 1.251 . S
C995 C202 1.233 . S
C1010 C492 1.160 . S
C1005 C217 1.148 . S
C1020 C652 1.253 . S
C1015 C175 1.233 . S
C1030 C357 1.116 . S
C1025 C231 1.183 . S
C1035 C246 1.576 . S
C1040 C628 1.511 . S
C1050 C403 1.079 . S
C1045 C259 1.165 . S
C1055 C274 1.539 . S
C1060 C606 1.487 . S
C1065 C232 1.540 . S
C1070 C445 1.483 . S
C1075 C245 1.198 . S
C1080 C564 1.077 . S
C1090 C490 1.409 . S
C1085 C260 1.471 . S
C1095 C273 1.202 . S
C1100 C656 1.087 . S
C1105 C275 1.589 . S
C1110 C356 1.502 . S
C1115 C286 1.367 . S
C1120 C541 1.308 1_556 S
C1125 C303 1.551 . S
C1130 C471 1.472 . S
C1135 C314 1.291 . S
C1140 C585 1.179 . S
C1150 C655 1.463 . S
C1145 C233 1.557 . S
C1160 C402 1.488 . S
C1155 C247 1.566 . S
C1170 C426 1.242 . S
C1165 C300 1.316 . S
C1180 C378 1.220 . S
C1175 C328 1.355 . S
C1185 C36 1.368 . S
C1190 C674 1.358 . S
C1200 C633 1.718 . S
C1195 C50 1.933 . S
C1210 C697 1.120 . S
C1205 C7 1.112 . S
C1215 C21 1.548 . S
C1220 C608 1.429 . S
C1225 C51 2.002 . S
C1230 C539 1.728 1_556 S
C1240 C559 1.108 . S
C1235 C6 1.103 . S
C1250 C587 1.377 . S
C1245 C20 1.474 . S
C1260 C651 1.367 . S
C1255 C37 1.378 . S
C1270 C676 1.562 . S
C1265 C162 1.562 . S
C1275 C119 1.148 . S
C1280 C629 1.187 . S
C1285 C134 1.695 . S
C1290 C699 1.702 . S
C1300 C605 1.349 . S
C1295 C147 1.309 . S
C1310 C536 1.254 . S
C1305 C161 1.215 . S
C1315 C120 1.707 . S
C1320 C561 1.711 . S
C1330 C583 1.280 . S
C1325 C133 1.237 . S
C1335 C148 1.553 . S
C1340 C653 1.557 . S
C1350 C677 1.238 . S
C1345 C149 1.371 . S
C1360 C446 1.206 . S
C1355 C76 1.155 . S
C1370 C470 1.321 . S
C1365 C93 1.538 . S
C1375 C104 1.231 . S
C1380 C494 1.237 . S
C1390 C654 1.237 . S
C1385 C163 1.374 . S
C1395 C121 1.495 . S
C1400 C700 1.327 . S
C1410 C423 1.299 . S
C1405 C90 1.235 . S
C1420 C379 1.158 . S
C1415 C62 1.157 . S
C1425 C203 1.214 . S
C1430 C675 1.232 . S
C1440 C377 1.176 . S
C1435 C216 1.159 . S
C1450 C698 1.264 1_556 S
C1445 C174 1.242 . S
C1455 C191 1.255 . S
C1460 C425 1.206 . S
C1465 C218 1.242 . S
C1470 C540 1.175 . S
C1475 C176 1.466 . S
C1480 C468 1.416 . S
C1485 C189 1.137 . S
C1490 C584 1.143 . S
C1495 C205 1.476 . S
C1500 C514 1.425 . S
C1510 C679 1.097 . S
C1505 C329 1.210 . S
C1515 C288 1.534 . S
C1520 C375 1.467 . S
C1530 C702 1.068 . S
C1525 C301 1.196 . S
C1535 C316 1.486 . S
C1540 C422 1.437 . S
C1545 C330 1.592 . S
C1550 C537 1.538 . S
C1560 C472 1.091 . S
C1555 C287 1.170 . S
C1565 C302 1.515 . S
C1570 C582 1.455 . S
C1580 C518 1.096 . S
C1575 C315 1.175 . S
C1590 C678 1.451 . S
C1585 C317 1.545 . S
C1600 C449 1.299 . S
C1595 C244 1.373 . S
C1605 C261 1.501 . S
C1610 C563 1.417 . S
C1620 C493 1.173 . S
C1615 C272 1.294 . S
C1630 C517 1.514 . S
C1625 C331 1.604 . S
C1635 C289 1.512 . S
C1640 C701 1.428 . S
C1650 C610 1.254 . S
C1645 C258 1.311 . S
C1660 C631 1.233 . S
C1655 C230 1.352 . S
