# Generated by pormake.
# Topology ocu, (6,8)-cn, num edge types: 1
# Building blocks:
#     Node 0, Type 0, BuildingBlock: KUMBUR_clean_sbu_0, # of connection points: 6
#     Node 1, Type 0, BuildingBlock: KUMBUR_clean_sbu_0, # of connection points: 6
#     Node 2, Type 0, BuildingBlock: KUMBUR_clean_sbu_0, # of connection points: 6
#     Node 3, Type 0, BuildingBlock: KUMBUR_clean_sbu_0, # of connection points: 6
#     Node 4, Type 0, BuildingBlock: KUMBUR_clean_sbu_0, # of connection points: 6
#     Node 5, Type 0, BuildingBlock: KUMBUR_clean_sbu_0, # of connection points: 6
#     Node 6, Type 0, BuildingBlock: KUMBUR_clean_sbu_0, # of connection points: 6
#     Node 7, Type 0, BuildingBlock: KUMBUR_clean_sbu_0, # of connection points: 6
#     Node 8, Type 1, BuildingBlock: TAGTUT_clean_sbu_1, # of connection points: 8
#     Node 9, Type 1, BuildingBlock: TAGTUT_clean_sbu_1, # of connection points: 8
#     Node 10, Type 1, BuildingBlock: TAGTUT_clean_sbu_1, # of connection points: 8
#     Node 11, Type 1, BuildingBlock: TAGTUT_clean_sbu_1, # of connection points: 8
#     Node 12, Type 1, BuildingBlock: TAGTUT_clean_sbu_1, # of connection points: 8
#     Node 13, Type 1, BuildingBlock: TAGTUT_clean_sbu_1, # of connection points: 8
#     Edge 14, Type (0, 1), BuildingBlock: XIVTED_clean_linker_0, # of connection points: 2
#     Edge 15, Type (0, 1), BuildingBlock: XIVTED_clean_linker_0, # of connection points: 2
#     Edge 16, Type (0, 1), BuildingBlock: XIVTED_clean_linker_0, # of connection points: 2
#     Edge 17, Type (0, 1), BuildingBlock: XIVTED_clean_linker_0, # of connection points: 2
#     Edge 18, Type (0, 1), BuildingBlock: XIVTED_clean_linker_0, # of connection points: 2
#     Edge 19, Type (0, 1), BuildingBlock: XIVTED_clean_linker_0, # of connection points: 2
#     Edge 20, Type (0, 1), BuildingBlock: XIVTED_clean_linker_0, # of connection points: 2
#     Edge 21, Type (0, 1), BuildingBlock: XIVTED_clean_linker_0, # of connection points: 2
#     Edge 22, Type (0, 1), BuildingBlock: XIVTED_clean_linker_0, # of connection points: 2
#     Edge 23, Type (0, 1), BuildingBlock: XIVTED_clean_linker_0, # of connection points: 2
#     Edge 24, Type (0, 1), BuildingBlock: XIVTED_clean_linker_0, # of connection points: 2
#     Edge 25, Type (0, 1), BuildingBlock: XIVTED_clean_linker_0, # of connection points: 2
#     Edge 26, Type (0, 1), BuildingBlock: XIVTED_clean_linker_0, # of connection points: 2
#     Edge 27, Type (0, 1), BuildingBlock: XIVTED_clean_linker_0, # of connection points: 2
#     Edge 28, Type (0, 1), BuildingBlock: XIVTED_clean_linker_0, # of connection points: 2
#     Edge 29, Type (0, 1), BuildingBlock: XIVTED_clean_linker_0, # of connection points: 2
#     Edge 30, Type (0, 1), BuildingBlock: XIVTED_clean_linker_0, # of connection points: 2
#     Edge 31, Type (0, 1), BuildingBlock: XIVTED_clean_linker_0, # of connection points: 2
#     Edge 32, Type (0, 1), BuildingBlock: XIVTED_clean_linker_0, # of connection points: 2
#     Edge 33, Type (0, 1), BuildingBlock: XIVTED_clean_linker_0, # of connection points: 2
#     Edge 34, Type (0, 1), BuildingBlock: XIVTED_clean_linker_0, # of connection points: 2
#     Edge 35, Type (0, 1), BuildingBlock: XIVTED_clean_linker_0, # of connection points: 2
#     Edge 36, Type (0, 1), BuildingBlock: XIVTED_clean_linker_0, # of connection points: 2
#     Edge 37, Type (0, 1), BuildingBlock: XIVTED_clean_linker_0, # of connection points: 2
#     Edge 38, Type (0, 1), BuildingBlock: XIVTED_clean_linker_0, # of connection points: 2
#     Edge 39, Type (0, 1), BuildingBlock: XIVTED_clean_linker_0, # of connection points: 2
#     Edge 40, Type (0, 1), BuildingBlock: XIVTED_clean_linker_0, # of connection points: 2
#     Edge 41, Type (0, 1), BuildingBlock: XIVTED_clean_linker_0, # of connection points: 2
#     Edge 42, Type (0, 1), BuildingBlock: XIVTED_clean_linker_0, # of connection points: 2
#     Edge 43, Type (0, 1), BuildingBlock: XIVTED_clean_linker_0, # of connection points: 2
#     Edge 44, Type (0, 1), BuildingBlock: XIVTED_clean_linker_0, # of connection points: 2
#     Edge 45, Type (0, 1), BuildingBlock: XIVTED_clean_linker_0, # of connection points: 2
#     Edge 46, Type (0, 1), BuildingBlock: XIVTED_clean_linker_0, # of connection points: 2
#     Edge 47, Type (0, 1), BuildingBlock: XIVTED_clean_linker_0, # of connection points: 2
#     Edge 48, Type (0, 1), BuildingBlock: XIVTED_clean_linker_0, # of connection points: 2
#     Edge 49, Type (0, 1), BuildingBlock: XIVTED_clean_linker_0, # of connection points: 2
#     Edge 50, Type (0, 1), BuildingBlock: XIVTED_clean_linker_0, # of connection points: 2
#     Edge 51, Type (0, 1), BuildingBlock: XIVTED_clean_linker_0, # of connection points: 2
#     Edge 52, Type (0, 1), BuildingBlock: XIVTED_clean_linker_0, # of connection points: 2
#     Edge 53, Type (0, 1), BuildingBlock: XIVTED_clean_linker_0, # of connection points: 2
#     Edge 54, Type (0, 1), BuildingBlock: XIVTED_clean_linker_0, # of connection points: 2
#     Edge 55, Type (0, 1), BuildingBlock: XIVTED_clean_linker_0, # of connection points: 2
#     Edge 56, Type (0, 1), BuildingBlock: XIVTED_clean_linker_0, # of connection points: 2
#     Edge 57, Type (0, 1), BuildingBlock: XIVTED_clean_linker_0, # of connection points: 2
#     Edge 58, Type (0, 1), BuildingBlock: XIVTED_clean_linker_0, # of connection points: 2
#     Edge 59, Type (0, 1), BuildingBlock: XIVTED_clean_linker_0, # of connection points: 2
#     Edge 60, Type (0, 1), BuildingBlock: XIVTED_clean_linker_0, # of connection points: 2
#     Edge 61, Type (0, 1), BuildingBlock: XIVTED_clean_linker_0, # of connection points: 2
# Relax obj value: 0.099
# Max RMSD: 0.265
# Mean RMSD: 0.150
data_MOF--net-ocu--node1-KUMBUR_clean_sbu_0--node2-TAGTUT_clean_sbu_1--edge1-XIVTED_clean_linker_0
_symmetry_space_group_name_H-M    P1
_symmetry_Int_Tables_number       1
_symmetry_cell_setting            triclinic
loop_
_symmetry_equiv_pos_as_xyz
'x, y, z'
_cell_length_a     39.963749
_cell_length_b     37.754021
_cell_length_c     43.464566
_cell_angle_alpha  78.718639
_cell_angle_beta   102.21723
_cell_angle_gamma 114.82404
loop_
_atom_site_label
_atom_site_type_symbol
_atom_site_fract_x
_atom_site_fract_y
_atom_site_fract_z
_atom_type_partial_charge
Tb0 Tb 0.24787 0.21432 0.2259 0.0
C1 C 0.38015 0.33822 0.30018 0.0
C2 C 0.39423 0.30345 0.35079 0.0
C3 C 0.44213 0.36386 0.33052 0.0
C4 C 0.36914 0.30676 0.32328 0.0
C5 C 0.41653 0.3677 0.3038 0.0
C6 C 0.43102 0.33173 0.35396 0.0
C7 C 0.39831 0.40459 0.25629 0.0
N8 N 0.35424 0.34146 0.27531 0.0
C9 C 0.36254 0.37473 0.25387 0.0
C10 C 0.42556 0.40091 0.28119 0.0
Tb11 Tb 0.29549 0.29269 0.27475 0.0
N12 N 0.33307 0.2809 0.31979 0.0
C13 C 0.31973 0.25235 0.34411 0.0
C14 C 0.38119 0.27278 0.37484 0.0
C15 C 0.34365 0.24738 0.37162 0.0
H16 H 0.3419 0.37828 0.23452 0.0
H17 H 0.33302 0.22411 0.39039 0.0
H18 H 0.45073 0.32965 0.37488 0.0
H19 H 0.40477 0.43051 0.23899 0.0
H20 H 0.2907 0.23271 0.34228 0.0
H21 H 0.20304 0.28036 0.11171 0.0
H22 H 0.39956 0.26918 0.39633 0.0
H23 H 0.20608 0.12577 0.26586 0.0
H24 H 0.24776 0.27383 0.15848 0.0
H25 H 0.14543 0.07082 0.26183 0.0
H26 H 0.47024 0.38612 0.33369 0.0
H27 H 0.13766 0.23204 0.10708 0.0
H28 H 0.08959 0.16909 0.12905 0.0
H29 H 0.45314 0.42429 0.28319 0.0
H30 H 0.07402 0.11168 0.16981 0.0
N31 N 0.20786 0.22367 0.18178 0.0
C32 C 0.21924 0.25282 0.15734 0.0
C33 C 0.15709 0.22936 0.12805 0.0
C34 C 0.14615 0.19806 0.15207 0.0
C35 C 0.19396 0.25659 0.13053 0.0
C36 C 0.17254 0.19601 0.17891 0.0
H37 H 0.09488 0.07447 0.21902 0.0
N38 N 0.19086 0.16226 0.22605 0.0
C39 C 0.15007 0.09701 0.24491 0.0
C40 C 0.16373 0.16403 0.20181 0.0
C41 C 0.18472 0.12869 0.24707 0.0
C42 C 0.12159 0.09921 0.22079 0.0
C43 C 0.12834 0.13277 0.19859 0.0
O44 O 0.26436 0.16835 0.22516 0.0
O45 O 0.29294 0.23776 0.26438 0.0
O46 O 0.33535 0.29629 0.24522 0.0
O47 O 0.29114 0.26532 0.20441 0.0
O48 O 0.26273 0.17902 0.26847 0.0
O49 O 0.26577 0.21149 0.18464 0.0
O50 O 0.28567 0.34282 0.27643 0.0
O51 O 0.25067 0.26969 0.2363 0.0
O52 O 0.20691 0.21025 0.25381 0.0
O53 O 0.24906 0.24324 0.2951 0.0
O54 O 0.28016 0.32882 0.23309 0.0
O55 O 0.27519 0.29558 0.31467 0.0
C56 C 0.2904 0.20606 0.28229 0.0
C57 C 0.25653 0.1486 0.17499 0.0
C58 C 0.26831 0.11498 0.13841 0.0
C59 C 0.28096 0.14509 0.15798 0.0
C60 C 0.23061 0.0887 0.13603 0.0
C61 C 0.21909 0.12229 0.17205 0.0
C62 C 0.20623 0.09256 0.1526 0.0
C63 C 0.32576 0.28686 0.21587 0.0
C64 C 0.27098 0.17946 0.19603 0.0
C65 C 0.1014 0.13531 0.17263 0.0
C66 C 0.11027 0.16798 0.14943 0.0
C67 C 0.2526 0.30179 0.21907 0.0
C68 C 0.29172 0.35906 0.3277 0.0
C69 C 0.26805 0.36338 0.34506 0.0
C70 C 0.28228 0.39143 0.36669 0.0
C71 C 0.32083 0.41459 0.37096 0.0
C72 C 0.32998 0.38243 0.33238 0.0
C73 C 0.34443 0.40988 0.35404 0.0
C74 C 0.21506 0.22047 0.28278 0.0
C75 C 0.27568 0.33051 0.30451 0.0
H76 H 0.30975 0.16597 0.15997 0.0
H77 H 0.21997 0.06464 0.12181 0.0
H78 H 0.19986 0.12435 0.18495 0.0
H79 H 0.17733 0.07214 0.15063 0.0
H80 H 0.23857 0.34478 0.34164 0.0
H81 H 0.33278 0.437 0.38688 0.0
H82 H 0.34864 0.37991 0.31912 0.0
H83 H 0.37398 0.42799 0.35741 0.0
Tb84 Tb 0.79744 0.24245 0.25052 0.0
C85 C 0.68917 0.28395 0.29527 0.0
C86 C 0.63046 0.23005 0.28188 0.0
C87 C 0.63929 0.26342 0.32711 0.0
C88 C 0.66685 0.25551 0.27551 0.0
C89 C 0.67501 0.28915 0.32049 0.0
C90 C 0.61715 0.23381 0.30795 0.0
C91 C 0.73079 0.34747 0.32892 0.0
N92 N 0.72413 0.30763 0.28909 0.0
C93 C 0.74394 0.34073 0.30421 0.0
C94 C 0.69661 0.32094 0.33769 0.0
Tb95 Tb 0.74199 0.29671 0.2461 0.0
N96 N 0.6808 0.2523 0.25056 0.0
C97 C 0.65901 0.22286 0.23183 0.0
C98 C 0.60842 0.20117 0.26213 0.0
C99 C 0.62279 0.19762 0.23704 0.0
H100 H 0.7709 0.36128 0.2983 0.0
H101 H 0.60626 0.17464 0.22203 0.0
H102 H 0.58952 0.21422 0.31326 0.0
H103 H 0.74732 0.37285 0.34144 0.0
H104 H 0.66866 0.21653 0.21329 0.0
H105 H 0.92393 0.36572 0.29152 0.0
H106 H 0.58052 0.18108 0.26634 0.0
H107 H 0.77684 0.19799 0.18445 0.0
H108 H 0.8589 0.32318 0.28868 0.0
H109 H 0.80748 0.20138 0.14067 0.0
H110 H 0.62827 0.26661 0.34667 0.0
H111 H 0.96145 0.36405 0.25399 0.0
H112 H 0.96362 0.33892 0.20597 0.0
H113 H 0.6866 0.32598 0.35706 0.0
H114 H 0.93125 0.29675 0.16355 0.0
N115 N 0.85798 0.29065 0.2529 0.0
C116 C 0.87422 0.31855 0.27361 0.0
C117 C 0.93267 0.34339 0.25349 0.0
C118 C 0.91566 0.31756 0.23056 0.0
C119 C 0.91163 0.34432 0.27474 0.0
C120 C 0.8779 0.29129 0.2308 0.0
H121 H 0.87307 0.2468 0.13849 0.0
N122 N 0.82269 0.24521 0.20629 0.0
C123 C 0.82237 0.22087 0.15872 0.0
C124 C 0.85953 0.26819 0.20654 0.0
C125 C 0.80476 0.21993 0.18356 0.0
C126 C 0.85941 0.2462 0.15774 0.0
C127 C 0.87867 0.26979 0.18202 0.0
O128 O 0.77334 0.18325 0.24253 0.0
O129 O 0.74389 0.23953 0.25664 0.0
O130 O 0.77585 0.2962 0.29333 0.0
O131 O 0.81291 0.26018 0.29803 0.0
O132 O 0.76765 0.20693 0.29024 0.0
O133 O 0.82987 0.20953 0.26696 0.0
O134 O 0.77178 0.35826 0.24318 0.0
O135 O 0.79562 0.29934 0.23905 0.0
O136 O 0.75693 0.23525 0.20758 0.0
O137 O 0.7195 0.27079 0.20156 0.0
O138 O 0.76668 0.32345 0.20241 0.0
O139 O 0.71159 0.33188 0.23065 0.0
C140 C 0.73834 0.21466 0.2814 0.0
C141 C 0.79635 0.14254 0.28135 0.0
C142 C 0.8267 0.10625 0.32006 0.0
C143 C 0.82696 0.13307 0.29308 0.0
C144 C 0.79415 0.08615 0.33415 0.0
C145 C 0.76315 0.12173 0.29455 0.0
C146 C 0.76203 0.09314 0.32074 0.0
C147 C 0.8 0.28125 0.30968 0.0
C148 C 0.80257 0.17728 0.25795 0.0
C149 C 0.91631 0.29503 0.18226 0.0
C150 C 0.93478 0.31885 0.2065 0.0
C151 C 0.79726 0.31853 0.21153 0.0
C152 C 0.74474 0.38847 0.19846 0.0
C153 C 0.72336 0.37076 0.17162 0.0
C154 C 0.71954 0.39315 0.14263 0.0
C155 C 0.74269 0.43345 0.13923 0.0
C156 C 0.76773 0.42859 0.19523 0.0
C157 C 0.76742 0.45079 0.16536 0.0
C158 C 0.73037 0.24659 0.19186 0.0
C159 C 0.74193 0.36419 0.22937 0.0
H160 H 0.85267 0.14991 0.28306 0.0
H161 H 0.79393 0.0661 0.35573 0.0
H162 H 0.73875 0.12836 0.28547 0.0
H163 H 0.73684 0.07772 0.33148 0.0
H164 H 0.70748 0.33925 0.17375 0.0
H165 H 0.74058 0.45183 0.11704 0.0
H166 H 0.78548 0.44264 0.21564 0.0
H167 H 0.78506 0.48183 0.16278 0.0
Tb168 Tb 0.7429 0.73258 0.27756 0.0
C169 C 0.85023 0.86919 0.19652 0.0
C170 C 0.81185 0.87925 0.14742 0.0
C171 C 0.86961 0.93284 0.16432 0.0
C172 C 0.81837 0.85508 0.17515 0.0
C173 C 0.87675 0.90795 0.19104 0.0
C174 C 0.83716 0.9185 0.14253 0.0
C175 C 0.91733 0.89305 0.23644 0.0
N176 N 0.85668 0.84372 0.22129 0.0
C177 C 0.89033 0.8548 0.24066 0.0
C178 C 0.91036 0.91993 0.21174 0.0
Tb179 Tb 0.81146 0.78103 0.22563 0.0
N180 N 0.79545 0.81665 0.1802 0.0
C181 C 0.76695 0.79981 0.15704 0.0
C182 C 0.78109 0.86272 0.12475 0.0
C183 C 0.75885 0.82266 0.1294 0.0
H184 H 0.89658 0.83462 0.25981 0.0
H185 H 0.73559 0.80928 0.11162 0.0
H186 H 0.83255 0.93758 0.12145 0.0
H187 H 0.94358 0.9017 0.25219 0.0
H188 H 0.74969 0.7688 0.15997 0.0
H189 H 0.81835 0.70519 0.392 0.0
H190 H 0.77508 0.88026 0.10314 0.0
H191 H 0.65887 0.67795 0.24194 0.0
H192 H 0.80467 0.74527 0.3432 0.0
H193 H 0.61188 0.61094 0.24982 0.0
H194 H 0.88955 0.96276 0.15976 0.0
H195 H 0.77857 0.63434 0.40091 0.0
H196 H 0.72113 0.57693 0.38273 0.0
H197 H 0.9315 0.94941 0.20831 0.0
H198 H 0.66455 0.55133 0.34409 0.0
N199 N 0.75878 0.69732 0.32323 0.0
C200 C 0.78727 0.71432 0.34634 0.0
C201 C 0.77272 0.65171 0.37911 0.0
C202 C 0.74208 0.63501 0.3564 0.0
C203 C 0.79514 0.69169 0.37422 0.0
C204 C 0.73578 0.65894 0.32842 0.0
H205 H 0.62326 0.564 0.29477 0.0
N206 N 0.69797 0.66973 0.28164 0.0
C207 C 0.63781 0.61993 0.26597 0.0
C208 C 0.70414 0.64458 0.30683 0.0
C209 C 0.6648 0.65816 0.26162 0.0
C210 C 0.64439 0.59349 0.29128 0.0
C211 C 0.67764 0.60582 0.31238 0.0
O212 O 0.69473 0.74062 0.28084 0.0
O213 O 0.75982 0.77702 0.23719 0.0
O214 O 0.81621 0.82668 0.25283 0.0
O215 O 0.78878 0.78512 0.29587 0.0
O216 O 0.70489 0.7419 0.23563 0.0
O217 O 0.7438 0.75932 0.31576 0.0
O218 O 0.85899 0.77151 0.2227 0.0
O219 O 0.79445 0.73681 0.26599 0.0
O220 O 0.73956 0.68703 0.25104 0.0
O221 O 0.7649 0.72874 0.2074 0.0
O222 O 0.84938 0.7715 0.26766 0.0
O223 O 0.81066 0.75501 0.18702 0.0
C224 C 0.72828 0.77091 0.22029 0.0
C225 C 0.68681 0.74242 0.33275 0.0
C226 C 0.65884 0.75801 0.36997 0.0
C227 C 0.68006 0.76998 0.34511 0.0
C228 C 0.645 0.71819 0.38271 0.0
C229 C 0.6728 0.70282 0.34559 0.0
C230 C 0.65207 0.69082 0.37058 0.0
C231 C 0.80812 0.82051 0.28198 0.0
C232 C 0.70959 0.75617 0.30724 0.0
C233 C 0.6845 0.58124 0.33946 0.0
C234 C 0.71671 0.59581 0.36144 0.0
C235 C 0.82585 0.74263 0.283 0.0
C236 C 0.86793 0.77108 0.17082 0.0
C237 C 0.874 0.74365 0.15763 0.0
C238 C 0.89624 0.75617 0.13345 0.0
C239 C 0.91177 0.7964 0.12218 0.0
C240 C 0.88356 0.81108 0.15939 0.0
C241 C 0.90529 0.82364 0.13505 0.0
C242 C 0.7464 0.69312 0.22148 0.0
C243 C 0.84444 0.75697 0.19588 0.0
H244 H 0.69078 0.80059 0.335 0.0
H245 H 0.62882 0.70829 0.40212 0.0
H246 H 0.67783 0.68127 0.33643 0.0
H247 H 0.64139 0.66023 0.38052 0.0
H248 H 0.86203 0.71271 0.16661 0.0
H249 H 0.92883 0.80673 0.10337 0.0
H250 H 0.87906 0.83255 0.16917 0.0
H251 H 0.91726 0.85455 0.12624 0.0
Tb252 Tb 0.30185 0.72419 0.26766 0.0
C253 C 0.23641 0.82716 0.16809 0.0
C254 C 0.28859 0.88928 0.16068 0.0
C255 C 0.23802 0.86795 0.11725 0.0
C256 C 0.27033 0.85423 0.17976 0.0
C257 C 0.21944 0.83381 0.13686 0.0
C258 C 0.27258 0.89567 0.12915 0.0
C259 C 0.16635 0.77361 0.14746 0.0
N260 N 0.21956 0.79466 0.18779 0.0
C261 C 0.18435 0.76845 0.17827 0.0
C262 C 0.18413 0.80624 0.12653 0.0
Tb263 Tb 0.25209 0.78721 0.23711 0.0
N264 N 0.28473 0.84679 0.21026 0.0
C265 C 0.31628 0.87489 0.22391 0.0
C266 C 0.32196 0.91711 0.17406 0.0
C267 C 0.33557 0.91009 0.20595 0.0
H268 H 0.17043 0.74288 0.19406 0.0
H269 H 0.36102 0.93171 0.21674 0.0
H270 H 0.28634 0.92225 0.114 0.0
H271 H 0.13885 0.75234 0.13984 0.0
H272 H 0.32756 0.87017 0.24842 0.0
H273 H 0.19287 0.57974 0.2877 0.0
H274 H 0.33695 0.94438 0.1602 0.0
H275 H 0.38338 0.76851 0.31086 0.0
H276 H 0.22634 0.64149 0.25618 0.0
H277 H 0.41491 0.75888 0.36508 0.0
H278 H 0.22563 0.87349 0.09308 0.0
H279 H 0.2169 0.56683 0.34421 0.0
H280 H 0.26744 0.58881 0.39049 0.0
H281 H 0.17014 0.81019 0.10267 0.0
H282 H 0.32809 0.63753 0.41156 0.0
N283 N 0.26907 0.66467 0.29443 0.0
C284 C 0.23755 0.63663 0.2807 0.0
C285 C 0.23188 0.59418 0.33043 0.0
C286 C 0.2652 0.62198 0.3439 0.0
C287 C 0.21828 0.60134 0.29855 0.0
C288 C 0.28346 0.65712 0.32492 0.0
H289 H 0.38357 0.7009 0.40213 0.0
N290 N 0.33424 0.71672 0.31703 0.0
C291 C 0.3874 0.73764 0.35742 0.0
C292 C 0.31735 0.68417 0.33667 0.0
C293 C 0.36944 0.74291 0.32661 0.0
C294 C 0.36961 0.70493 0.37828 0.0
C295 C 0.3343 0.67741 0.36788 0.0
O296 O 0.35132 0.72376 0.25822 0.0
O297 O 0.29963 0.77488 0.23596 0.0
O298 O 0.24968 0.75751 0.1978 0.0
O299 O 0.25847 0.70264 0.22696 0.0
O300 O 0.35068 0.77851 0.25778 0.0
O301 O 0.29726 0.6829 0.23952 0.0
O302 O 0.20245 0.78619 0.24749 0.0
O303 O 0.25443 0.73659 0.26888 0.0
O304 O 0.30447 0.75434 0.30688 0.0
O305 O 0.29569 0.80903 0.27743 0.0
O306 O 0.20341 0.73262 0.24685 0.0
O307 O 0.25619 0.82903 0.26452 0.0
C308 C 0.33373 0.79715 0.23734 0.0
C309 C 0.34685 0.66341 0.24589 0.0
C310 C 0.37009 0.62632 0.22236 0.0
C311 C 0.36 0.65815 0.22043 0.0
C312 C 0.36713 0.59986 0.25034 0.0
C313 C 0.34425 0.63711 0.27378 0.0
C314 C 0.35452 0.60547 0.27597 0.0
C315 C 0.24858 0.72159 0.19991 0.0
C316 C 0.33312 0.69461 0.24134 0.0
C317 C 0.31572 0.64317 0.3874 0.0
C318 C 0.28119 0.61546 0.37541 0.0
C319 C 0.22038 0.71417 0.26751 0.0
C320 C 0.205 0.84587 0.25938 0.0
C321 C 0.18996 0.84904 0.28455 0.0
C322 C 0.17816 0.8796 0.28283 0.0
C323 C 0.18121 0.90681 0.2553 0.0
C324 C 0.20764 0.8729 0.23193 0.0
C325 C 0.1956 0.9032 0.22991 0.0
C326 C 0.30544 0.79026 0.30459 0.0
C327 C 0.22033 0.81597 0.26373 0.0
H328 H 0.36127 0.67821 0.19869 0.0
H329 H 0.37489 0.57514 0.25247 0.0
H330 H 0.33382 0.64068 0.29351 0.0
H331 H 0.35238 0.58505 0.29746 0.0
H332 H 0.18862 0.82843 0.30597 0.0
H333 H 0.17226 0.93065 0.25338 0.0
H334 H 0.21947 0.8709 0.21242 0.0
H335 H 0.1978 0.92421 0.20878 0.0
Tb336 Tb 0.31508 0.72185 0.75615 0.0
C337 C 0.21518 0.79177 0.7834 0.0
C338 C 0.15907 0.73419 0.79216 0.0
C339 C 0.17596 0.79086 0.81962 0.0
C340 C 0.19176 0.75385 0.77789 0.0
C341 C 0.20693 0.81126 0.80348 0.0
C342 C 0.15201 0.75234 0.81393 0.0
C343 C 0.25735 0.87085 0.78676 0.0
N344 N 0.24473 0.81047 0.76731 0.0
C345 C 0.26428 0.85021 0.76708 0.0
C346 C 0.22915 0.85107 0.80567 0.0
Tb347 Tb 0.25603 0.77277 0.73856 0.0
N348 N 0.19981 0.73722 0.75695 0.0
C349 C 0.17418 0.70232 0.74694 0.0
C350 C 0.13392 0.69747 0.78337 0.0
C351 C 0.1411 0.68194 0.7601 0.0
H352 H 0.28596 0.86611 0.75247 0.0
H353 H 0.12143 0.65392 0.75262 0.0
H354 H 0.12747 0.73736 0.82565 0.0
H355 H 0.27379 0.90201 0.78732 0.0
H356 H 0.17898 0.68914 0.72939 0.0
H357 H 0.40296 0.72059 0.86991 0.0
H358 H 0.10851 0.68138 0.79378 0.0
H359 H 0.34349 0.72979 0.68595 0.0
H360 H 0.34541 0.69514 0.8321 0.0
H361 H 0.39975 0.76986 0.6613 0.0
H362 H 0.16952 0.80507 0.8356 0.0
H363 H 0.45977 0.77338 0.85134 0.0
H364 H 0.49243 0.81569 0.80517 0.0
H365 H 0.22379 0.86714 0.82084 0.0
H366 H 0.49135 0.82998 0.74723 0.0
N367 N 0.3685 0.73519 0.79268 0.0
C368 C 0.36987 0.71826 0.82359 0.0
C369 C 0.43447 0.7626 0.83464 0.0
C370 C 0.43398 0.77656 0.80235 0.0
C371 C 0.40251 0.73258 0.84516 0.0
C372 C 0.40025 0.76165 0.78176 0.0
H373 H 0.45703 0.81174 0.69305 0.0
N374 N 0.36723 0.7511 0.73107 0.0
C375 C 0.39994 0.77079 0.68607 0.0
C376 C 0.39955 0.77001 0.7495 0.0
C377 C 0.36776 0.7485 0.70019 0.0
C378 C 0.43219 0.79446 0.70403 0.0
C379 C 0.43272 0.79301 0.73652 0.0
O380 O 0.27519 0.66552 0.74661 0.0
O381 O 0.26077 0.71849 0.76029 0.0
O382 O 0.285 0.78657 0.78556 0.0
O383 O 0.3313 0.76105 0.79365 0.0
O384 O 0.28868 0.69559 0.79904 0.0
O385 O 0.33305 0.67874 0.75117 0.0
O386 O 0.21251 0.78361 0.70787 0.0
O387 O 0.30717 0.77225 0.73011 0.0
O388 O 0.29437 0.73116 0.70587 0.0
O389 O 0.23647 0.72253 0.71208 0.0
O390 O 0.30991 0.82401 0.73906 0.0
O391 O 0.26622 0.80498 0.69359 0.0
C392 C 0.25894 0.70237 0.78891 0.0
C393 C 0.2949 0.61615 0.77334 0.0
C394 C 0.32532 0.58841 0.81957 0.0
C395 C 0.32668 0.61142 0.7903 0.0
C396 C 0.29105 0.56597 0.8305 0.0
C397 C 0.26013 0.59231 0.78334 0.0
C398 C 0.25826 0.56682 0.81167 0.0
C399 C 0.3149 0.78145 0.80187 0.0
C400 C 0.29983 0.65094 0.7497 0.0
C401 C 0.46575 0.81133 0.75675 0.0
C402 C 0.46637 0.80312 0.78973 0.0
C403 C 0.32947 0.80759 0.73221 0.0
C404 C 0.23409 0.84656 0.68048 0.0
C405 C 0.19954 0.84854 0.67395 0.0
C406 C 0.19607 0.8843 0.67043 0.0
C407 C 0.22804 0.91915 0.67355 0.0
C408 C 0.26647 0.88134 0.6831 0.0
C409 C 0.26331 0.91757 0.67961 0.0
C410 C 0.25856 0.71898 0.69559 0.0
C411 C 0.23422 0.80722 0.68769 0.0
H412 H 0.35364 0.62966 0.78279 0.0
H413 H 0.28984 0.54879 0.85363 0.0
H414 H 0.23483 0.59487 0.77025 0.0
H415 H 0.23165 0.54951 0.81989 0.0
H416 H 0.17474 0.82141 0.6726 0.0
H417 H 0.22574 0.9472 0.6709 0.0
H418 H 0.29388 0.88049 0.68856 0.0
H419 H 0.28816 0.94433 0.68192 0.0
Tb420 Tb 0.24096 0.23214 0.77631 0.0
C421 C 0.35469 0.37252 0.70293 0.0
C422 C 0.32072 0.38508 0.65189 0.0
C423 C 0.37678 0.43758 0.67305 0.0
C424 C 0.32488 0.35953 0.67943 0.0
C425 C 0.38137 0.41156 0.69988 0.0
C426 C 0.34647 0.42436 0.64908 0.0
C427 C 0.4165 0.39546 0.74886 0.0
N428 N 0.35845 0.34626 0.72813 0.0
C429 C 0.38945 0.35703 0.75071 0.0
C430 C 0.41234 0.42295 0.72345 0.0
Tb431 Tb 0.3133 0.28342 0.72826 0.0
N432 N 0.30116 0.32122 0.68275 0.0
C433 C 0.27413 0.3059 0.65817 0.0
C434 C 0.2916 0.37004 0.62756 0.0
C435 C 0.26846 0.33014 0.63058 0.0
H436 H 0.39347 0.33651 0.77063 0.0
H437 H 0.24638 0.31795 0.61159 0.0
H438 H 0.34369 0.44448 0.62816 0.0
H439 H 0.4406 0.4038 0.76704 0.0
H440 H 0.25626 0.27503 0.65986 0.0
H441 H 0.30924 0.19872 0.8927 0.0
H442 H 0.2874 0.38869 0.60604 0.0
H443 H 0.15961 0.17898 0.73553 0.0
H444 H 0.29867 0.24117 0.84442 0.0
H445 H 0.11231 0.11184 0.73995 0.0
H446 H 0.3969 0.4677 0.67031 0.0
H447 H 0.2685 0.12791 0.89877 0.0
H448 H 0.21196 0.07185 0.87732 0.0
H449 H 0.43349 0.45264 0.72196 0.0
H450 H 0.15797 0.04832 0.83587 0.0
N451 N 0.25357 0.19471 0.82195 0.0
C452 C 0.28084 0.2103 0.8463 0.0
C453 C 0.26397 0.14637 0.87723 0.0
C454 C 0.23455 0.13106 0.85318 0.0
C455 C 0.28694 0.1863 0.87392 0.0
C456 C 0.22999 0.15638 0.82559 0.0
H457 H 0.1203 0.06317 0.78482 0.0
N458 N 0.19561 0.16934 0.77735 0.0
C459 C 0.13688 0.12019 0.75767 0.0
C460 C 0.19982 0.14321 0.80248 0.0
C461 C 0.16405 0.15854 0.75534 0.0
C462 C 0.14153 0.09279 0.78296 0.0
C463 C 0.17307 0.10424 0.80598 0.0
O464 O 0.19252 0.24109 0.77654 0.0
O465 O 0.26035 0.27814 0.73752 0.0
O466 O 0.31391 0.32694 0.75558 0.0
O467 O 0.28655 0.28304 0.7975 0.0
O468 O 0.20527 0.24295 0.73326 0.0
O469 O 0.23857 0.25696 0.81456 0.0
O470 O 0.36156 0.27388 0.72861 0.0
O471 O 0.29359 0.23711 0.7667 0.0
O472 O 0.23966 0.18863 0.74859 0.0
O473 O 0.268 0.23253 0.70698 0.0
O474 O 0.34868 0.27204 0.77139 0.0
O475 O 0.31695 0.26061 0.68929 0.0
C476 C 0.22969 0.27244 0.7193 0.0
C477 C 0.17915 0.2399 0.82715 0.0
C478 C 0.15319 0.25405 0.86689 0.0
C479 C 0.17791 0.26671 0.8446 0.0
C480 C 0.12991 0.21383 0.87161 0.0
C481 C 0.15604 0.19994 0.83228 0.0
C482 C 0.13155 0.18702 0.85451 0.0
C483 C 0.30605 0.31922 0.78494 0.0
C484 C 0.20491 0.25472 0.80384 0.0
C485 C 0.17811 0.0784 0.83279 0.0
C486 C 0.20885 0.09179 0.85637 0.0
C487 C 0.32408 0.24233 0.78502 0.0
C488 C 0.37722 0.27735 0.67842 0.0
C489 C 0.37897 0.25146 0.66027 0.0
C490 C 0.40539 0.26482 0.63935 0.0
C491 C 0.42985 0.30478 0.63679 0.0
C492 C 0.40152 0.31707 0.67533 0.0
C493 C 0.4277 0.33067 0.65452 0.0
C494 C 0.24806 0.19643 0.71938 0.0
C495 C 0.35015 0.26179 0.70071 0.0
H496 H 0.19648 0.29742 0.84087 0.0
H497 H 0.10998 0.20306 0.88814 0.0
H498 H 0.15669 0.17887 0.81904 0.0
H499 H 0.11353 0.1562 0.85831 0.0
H500 H 0.35955 0.22096 0.66243 0.0
H501 H 0.45111 0.31605 0.62145 0.0
H502 H 0.40058 0.33743 0.68916 0.0
H503 H 0.44665 0.36129 0.65237 0.0
Tb504 Tb 0.79878 0.21987 0.76565 0.0
C505 C 0.73563 0.32456 0.66597 0.0
C506 C 0.78838 0.38625 0.65876 0.0
C507 C 0.73762 0.36577 0.61532 0.0
C508 C 0.76976 0.35125 0.67773 0.0
C509 C 0.71877 0.33162 0.63479 0.0
C510 C 0.77242 0.39306 0.62729 0.0
C511 C 0.66531 0.27168 0.64508 0.0
N512 N 0.71854 0.29197 0.68551 0.0
C513 C 0.68324 0.26605 0.67584 0.0
C514 C 0.68329 0.30443 0.62434 0.0
Tb515 Tb 0.75074 0.28418 0.7349 0.0
N516 N 0.78413 0.34342 0.70817 0.0
C517 C 0.81602 0.37105 0.72187 0.0
C518 C 0.82207 0.41359 0.67218 0.0
C519 C 0.83568 0.40616 0.70402 0.0
H520 H 0.66913 0.24042 0.69148 0.0
H521 H 0.8614 0.4274 0.71483 0.0
H522 H 0.78643 0.41961 0.61223 0.0
H523 H 0.6377 0.25069 0.63737 0.0
H524 H 0.82722 0.36592 0.74636 0.0
H525 H 0.68756 0.07745 0.78683 0.0
H526 H 0.83735 0.44079 0.6584 0.0
H527 H 0.88114 0.26328 0.80849 0.0
H528 H 0.72205 0.13843 0.75477 0.0
H529 H 0.91246 0.2536 0.86274 0.0
H530 H 0.72531 0.37163 0.59118 0.0
H531 H 0.7116 0.06479 0.8434 0.0
H532 H 0.7626 0.08642 0.88944 0.0
H533 H 0.66937 0.30872 0.60052 0.0
H534 H 0.82399 0.13432 0.91009 0.0
N535 N 0.76521 0.16115 0.79283 0.0
C536 C 0.73316 0.1335 0.77934 0.0
C537 C 0.72698 0.09172 0.82939 0.0
C538 C 0.7608 0.1191 0.84261 0.0
C539 C 0.71337 0.09873 0.79748 0.0
C540 C 0.77958 0.15373 0.82334 0.0
H541 H 0.88032 0.19661 0.90019 0.0
N542 N 0.83119 0.21259 0.81505 0.0
C543 C 0.88465 0.23283 0.85524 0.0
C544 C 0.81388 0.18039 0.83488 0.0
C545 C 0.86677 0.23814 0.82441 0.0
C546 C 0.86641 0.20066 0.87633 0.0
C547 C 0.83074 0.17364 0.86613 0.0
O548 O 0.84724 0.2228 0.7521 0.0
O549 O 0.79753 0.27082 0.73377 0.0
O550 O 0.74882 0.25509 0.6956 0.0
O551 O 0.75606 0.19927 0.7243 0.0
O552 O 0.84819 0.27389 0.75628 0.0
O553 O 0.79481 0.17338 0.74326 0.0
O554 O 0.70172 0.28479 0.74467 0.0
O555 O 0.75172 0.23304 0.76643 0.0
O556 O 0.80168 0.24958 0.80498 0.0
O557 O 0.79386 0.305 0.77592 0.0
O558 O 0.70118 0.23039 0.74447 0.0
O559 O 0.75613 0.32678 0.76208 0.0
C560 C 0.83174 0.2928 0.73546 0.0
C561 C 0.85005 0.16335 0.74744 0.0
C562 C 0.88178 0.13271 0.72629 0.0
C563 C 0.8582 0.1529 0.7217 0.0
C564 C 0.89557 0.12149 0.75763 0.0
C565 C 0.86364 0.15181 0.77843 0.0
C566 C 0.8861 0.13058 0.78344 0.0
C567 C 0.74739 0.21912 0.69729 0.0
C568 C 0.83011 0.18928 0.74066 0.0
C569 C 0.81169 0.13992 0.8859 0.0
C570 C 0.77674 0.11267 0.87415 0.0
C571 C 0.71751 0.21124 0.76506 0.0
C572 C 0.70624 0.34585 0.75501 0.0
C573 C 0.70416 0.35992 0.78163 0.0
C574 C 0.69045 0.38923 0.77837 0.0
C575 C 0.67954 0.40499 0.74768 0.0
C576 C 0.69551 0.36169 0.72454 0.0
C577 C 0.68224 0.39133 0.72096 0.0
C578 C 0.80313 0.28561 0.80296 0.0
C579 C 0.72026 0.31494 0.76046 0.0
H580 H 0.84653 0.16136 0.69798 0.0
H581 H 0.9144 0.10658 0.76236 0.0
H582 H 0.85753 0.15981 0.79855 0.0
H583 H 0.89699 0.122 0.80737 0.0
H584 H 0.71355 0.348 0.80501 0.0
H585 H 0.66837 0.42733 0.74429 0.0
H586 H 0.69733 0.3512 0.70374 0.0
H587 H 0.67375 0.40353 0.69746 0.0
Tb588 Tb 0.7566 0.71998 0.71672 0.0
C589 C 0.86616 0.81527 0.81486 0.0
C590 C 0.86671 0.76495 0.8588 0.0
C591 C 0.92162 0.8258 0.85416 0.0
C592 C 0.84852 0.77839 0.83046 0.0
C593 C 0.90239 0.84005 0.8272 0.0
C594 C 0.90378 0.78829 0.86996 0.0
C595 C 0.89486 0.89339 0.78958 0.0
N596 N 0.84575 0.82877 0.79021 0.0
C597 C 0.85869 0.86796 0.77881 0.0
C598 C 0.91709 0.87921 0.81351 0.0
Tb599 Tb 0.78639 0.78529 0.77476 0.0
N600 N 0.81227 0.75742 0.81958 0.0
C601 C 0.79196 0.72367 0.83696 0.0
C602 C 0.84649 0.72942 0.87587 0.0
C603 C 0.80878 0.70904 0.86517 0.0
H604 H 0.84145 0.87927 0.76061 0.0
H605 H 0.79263 0.68204 0.87861 0.0
H606 H 0.91834 0.77832 0.89152 0.0
H607 H 0.90537 0.92401 0.77969 0.0
H608 H 0.76281 0.70789 0.82909 0.0
H609 H 0.79087 0.81914 0.60728 0.0
H610 H 0.85938 0.71815 0.89782 0.0
H611 H 0.67199 0.65177 0.73272 0.0
H612 H 0.80411 0.78102 0.65588 0.0
H613 H 0.60693 0.63826 0.71287 0.0
H614 H 0.9496 0.84425 0.86386 0.0
H615 H 0.72648 0.81272 0.58659 0.0
H616 H 0.65902 0.77917 0.59134 0.0
H617 H 0.9448 0.89919 0.82231 0.0
H618 H 0.60903 0.73012 0.62 0.0
N619 N 0.74838 0.75622 0.66787 0.0
C620 C 0.77603 0.77926 0.64966 0.0
C621 C 0.73222 0.79656 0.60915 0.0
C622 C 0.70351 0.77049 0.62595 0.0
C623 C 0.76856 0.80046 0.62085 0.0
C624 C 0.71243 0.75024 0.65545 0.0
H625 H 0.58937 0.67783 0.66513 0.0
N626 N 0.69354 0.70347 0.69976 0.0
C627 C 0.62832 0.6629 0.7015 0.0
C628 C 0.68426 0.72316 0.6719 0.0
C629 C 0.66588 0.67177 0.71332 0.0
C630 C 0.61854 0.68509 0.67448 0.0
C631 C 0.64653 0.71496 0.65885 0.0
O632 O 0.73245 0.65875 0.71454 0.0
O633 O 0.78456 0.72971 0.7653 0.0
O634 O 0.83399 0.80463 0.74945 0.0
O635 O 0.81076 0.76502 0.70837 0.0
O636 O 0.80632 0.70818 0.73838 0.0
O637 O 0.7697 0.6989 0.6812 0.0
O638 O 0.77633 0.83386 0.78109 0.0
O639 O 0.74944 0.76883 0.73026 0.0
O640 O 0.72901 0.68979 0.75864 0.0
O641 O 0.72875 0.74341 0.77586 0.0
O642 O 0.78222 0.82737 0.73346 0.0
O643 O 0.7611 0.78128 0.8138 0.0
C644 C 0.81105 0.71893 0.76584 0.0
C645 C 0.74307 0.62937 0.67425 0.0
C646 C 0.76256 0.60107 0.63869 0.0
C647 C 0.76925 0.6322 0.65566 0.0
C648 C 0.7294 0.56721 0.64067 0.0
C649 C 0.71035 0.59519 0.67591 0.0
C650 C 0.70359 0.56437 0.65913 0.0
C651 C 0.83683 0.79409 0.72324 0.0
C652 C 0.74811 0.66289 0.68994 0.0
C653 C 0.63777 0.73586 0.63012 0.0
C654 C 0.66621 0.76368 0.61377 0.0
C655 C 0.75655 0.80324 0.71534 0.0
C656 C 0.77762 0.84048 0.83433 0.0
C657 C 0.75485 0.85501 0.84379 0.0
C658 C 0.76753 0.87596 0.8703 0.0
C659 C 0.80352 0.88271 0.88686 0.0
C660 C 0.81312 0.847 0.85156 0.0
C661 C 0.82614 0.86831 0.87743 0.0
C662 C 0.71528 0.70528 0.77502 0.0
C663 C 0.76316 0.8171 0.80749 0.0
H664 H 0.79438 0.65873 0.65396 0.0
H665 H 0.72358 0.54255 0.62825 0.0
H666 H 0.68958 0.59262 0.68963 0.0
H667 H 0.67815 0.5382 0.66036 0.0
H668 H 0.72722 0.84969 0.83071 0.0
H669 H 0.81381 0.89808 0.90768 0.0
H670 H 0.83059 0.83514 0.84557 0.0
H671 H 0.85358 0.87302 0.89059 0.0
C672 C 0.9783 0.0934 0.5473 0.0
C673 C 1.02212 0.11376 0.45631 0.0
C674 C 0.95004 0.95988 0.45224 0.0
Mg675 Mg 0.0458 0.092 0.52495 0.0
O676 O 1.01191 0.03996 0.5206 0.0
Mg677 Mg 0.96247 0.03119 0.49415 0.0
Mg678 Mg 1.02507 1.00438 0.50226 0.0
O679 O 0.03835 0.9687 0.48364 0.0
Mg680 Mg 1.00486 0.91619 0.48 0.0
Mg681 Mg 0.08798 0.97853 0.5102 0.0
C682 C 0.10127 0.04998 0.55133 0.0
C683 C 0.09054 0.05435 0.45981 0.0
O684 O 0.95641 0.07 0.52696 0.0
O685 O 1.01378 0.10529 0.55079 0.0
O686 O 0.99095 0.08457 0.45929 0.0
O687 O 0.04903 0.12302 0.47883 0.0
O688 O 0.0935 0.0802 0.5486 0.0
O689 O 0.07861 0.01868 0.53866 0.0
C690 C 0.95842 0.95461 0.54421 0.0
O691 O 0.98887 0.95726 0.5368 0.0
O692 O 0.94262 0.97823 0.53095 0.0
O693 O 0.09406 0.939 0.47843 0.0
O694 O 0.03753 0.89984 0.45628 0.0
O695 O 0.05993 0.92741 0.54666 0.0
C696 C 0.07316 0.91332 0.45954 0.0
O697 O 1.00134 0.88963 0.52764 0.0
O698 O 0.95785 0.92961 0.45492 0.0
C699 C 0.02805 0.89982 0.5503 0.0
O700 O 0.97214 0.99078 0.46567 0.0
O701 O 0.06051 0.05156 0.468 0.0
O702 O 0.10668 0.0308 0.47234 0.0
C703 C 0.43304 0.06537 0.02193 0.0
C704 C 0.45659 0.0824 0.92993 0.0
C705 C 0.46321 0.92795 0.9748 0.0
Mg706 Mg 0.50628 0.08863 0.99666 0.0
O707 O 0.49294 0.03504 0.0027 0.0
Mg708 Mg 0.44217 1.0005 0.98386 0.0
Mg709 Mg 0.52541 0.00699 0.00211 0.0
O710 O 0.55748 0.97857 0.0017 0.0
Mg711 Mg 0.54287 0.92465 0.00969 0.0
Mg712 Mg 0.60842 0.01306 0.02027 0.0
C713 C 0.58718 0.08622 0.02854 0.0
C714 C 0.58689 0.06114 0.95338 0.0
O715 O 0.41888 0.03553 0.00618 0.0
O716 O 0.46762 0.08834 0.02408 0.0
O717 O 0.44117 0.04488 0.93705 0.0
O718 O 0.4841 0.10386 0.94837 0.0
O719 O 0.56513 0.10385 0.01599 0.0
O720 O 0.57614 0.04841 0.03248 0.0
C721 C 0.46389 0.9524 0.05049 0.0
O722 O 0.49864 0.96631 0.04735 0.0
O723 O 0.4403 0.96113 0.02931 0.0
O724 O 0.63027 0.97729 0.99754 0.0
O725 O 0.58075 0.92324 0.98266 0.0
O726 O 0.61009 0.96878 0.06736 0.0
C727 C 0.61512 0.94642 0.98297 0.0
O728 O 0.56586 0.90971 0.05803 0.0
O729 O 0.48428 0.9095 0.98851 0.0
C730 C 0.5945 0.93144 0.07542 0.0
O731 O 0.4749 0.96577 0.97167 0.0
O732 O 0.55218 0.04757 0.95663 0.0
O733 O 0.61036 0.05231 0.97462 0.0
C734 C 0.95986 0.5909 0.02196 0.0
C735 C 0.96218 0.58804 0.92683 0.0
C736 C 0.95309 0.4314 0.97658 0.0
Mg737 Mg 1.02218 0.59578 0.987 0.0
O738 O 1.0019 0.54259 0.00206 0.0
Mg739 Mg 0.94746 0.51239 0.98834 0.0
Mg740 Mg 0.02607 0.50732 0.9982 0.0
O741 O 0.04992 0.47161 0.99431 0.0
Mg742 Mg 0.02925 0.41867 0.01065 0.0
Mg743 Mg 0.10402 0.50165 0.00882 0.0
C744 C 0.09865 0.58347 0.02046 0.0
C745 C 0.08207 0.55176 0.94322 0.0
O746 O 0.93776 0.55747 0.01229 0.0
O747 O 0.99329 0.60916 0.01571 0.0
O748 O 0.94411 0.55345 0.94013 0.0
O749 O 0.99528 0.60885 0.93911 0.0
O750 O 0.08075 0.60512 0.00607 0.0
O751 O 0.0829 0.54551 0.02419 0.0
C752 C 0.9701 0.46157 0.05302 0.0
O753 O 1.00243 0.46991 0.0457 0.0
O754 O 0.94695 0.47429 0.035 0.0
O755 O 0.11415 0.45529 0.98716 0.0
O756 O 0.05925 0.4025 0.98486 0.0
O757 O 0.10614 0.46111 0.05754 0.0
C758 C 0.09306 0.42058 0.97949 0.0
O759 O 0.05465 0.40615 0.05928 0.0
O760 O 0.97087 0.4097 0.99115 0.0
C761 C 0.08782 0.4269 0.07136 0.0
O762 O 0.96899 0.46931 0.97224 0.0
O763 O 0.05018 0.54471 0.95086 0.0
O764 O 0.10487 0.53846 0.96119 0.0
C765 C 0.474 0.58535 0.0486 0.0
C766 C 0.52334 0.61581 0.96088 0.0
C767 C 0.46962 0.48689 0.93263 0.0
Mg768 Mg 0.54518 0.58784 0.02847 0.0
O769 O 0.5123 0.5368 0.02048 0.0
Mg770 Mg 0.46349 0.52846 0.99287 0.0
Mg771 Mg 0.52842 0.50325 0.00249 0.0
O772 O 0.54409 0.46693 0.98714 0.0
Mg773 Mg 0.52578 0.44663 0.94579 0.0
Mg774 Mg 0.59542 0.47529 0.01509 0.0
C775 C 0.59932 0.54251 0.0569 0.0
C776 C 0.59568 0.55309 0.96368 0.0
O777 O 0.45373 0.56134 0.02822 0.0
O778 O 0.50969 0.59915 0.05265 0.0
O779 O 0.49226 0.58615 0.96252 0.0
O780 O 0.55054 0.62252 0.98336 0.0
O781 O 0.59101 0.57251 0.05394 0.0
O782 O 0.57847 0.51185 0.04267 0.0
C783 C 0.45813 0.44803 0.03857 0.0
O784 O 0.49059 0.45417 0.03363 0.0
O785 O 0.4413 0.47058 0.02496 0.0
O786 O 0.61258 0.4488 0.97899 0.0
O787 O 0.57746 0.45728 0.93207 0.0
O788 O 0.53234 0.43168 0.99863 0.0
C789 C 0.60592 0.45179 0.9484 0.0
O790 O 0.50129 0.38654 0.96682 0.0
O791 O 0.48715 0.47159 0.92184 0.0
C792 C 0.51767 0.39463 0.99458 0.0
O793 O 0.47851 0.49577 0.96129 0.0
O794 O 0.56631 0.5533 0.97068 0.0
O795 O 0.60821 0.52715 0.97722 0.0
C796 C 0.93347 0.56371 0.52137 0.0
C797 C 0.95795 0.58186 0.43006 0.0
C798 C 0.96289 0.42508 0.47378 0.0
Mg799 Mg 1.00752 0.58606 0.49734 0.0
O800 O 0.99284 0.53199 0.50214 0.0
Mg801 Mg 0.94195 0.49846 0.48275 0.0
Mg802 Mg 1.02447 0.50331 0.50046 0.0
O803 O 0.05685 0.47515 0.49902 0.0
Mg804 Mg 0.04374 0.42163 0.50509 0.0
Mg805 Mg 0.10769 0.50919 0.51818 0.0
C806 C 0.0871 0.58052 0.53 0.0
C807 C 0.08608 0.55847 0.45219 0.0
O808 O 0.91937 0.53397 0.50548 0.0
O809 O 0.96825 0.58614 0.52419 0.0
O810 O 0.94212 0.54425 0.43657 0.0
O811 O 0.98558 0.60267 0.44888 0.0
O812 O 0.06657 0.60016 0.5182 0.0
O813 O 0.07473 0.54291 0.53128 0.0
C814 C 0.96263 0.44833 0.54862 0.0
O815 O 0.99731 0.46166 0.54531 0.0
O816 O 0.93932 0.45804 0.5278 0.0
O817 O 0.1311 0.47454 0.49537 0.0
O818 O 0.08204 0.42211 0.47728 0.0
O819 O 0.10882 0.46475 0.56471 0.0
C820 C 0.11666 0.44488 0.4794 0.0
O821 O 0.06612 0.40579 0.55333 0.0
O822 O 0.98511 0.40757 0.48603 0.0
C823 C 0.09361 0.42725 0.57179 0.0
O824 O 0.97378 0.4629 0.46984 0.0
O825 O 0.05141 0.54485 0.45557 0.0
O826 O 0.10961 0.5492 0.47303 0.0
C827 C 0.46135 0.09675 0.52393 0.0
C828 C 0.45994 0.08686 0.43055 0.0
C829 C 0.45122 0.93209 0.48208 0.0
Mg830 Mg 0.52214 0.09798 0.48898 0.0
O831 O 0.50267 0.04528 0.50626 0.0
Mg832 Mg 0.44808 0.01457 0.4949 0.0
Mg833 Mg 0.52528 0.00924 0.50054 0.0
O834 O 0.5481 0.97351 0.49488 0.0
Mg835 Mg 0.52871 0.9207 0.51171 0.0
Mg836 Mg 0.60281 1.004 0.50651 0.0
C837 C 0.59931 0.08553 0.5193 0.0
C838 C 0.57613 0.05374 0.44272 0.0
O839 O 0.43997 0.06167 0.51727 0.0
O840 O 0.49434 0.11493 0.51659 0.0
O841 O 0.44246 0.05327 0.4457 0.0
O842 O 0.49363 0.10818 0.44106 0.0
O843 O 0.58126 0.10735 0.50582 0.0
O844 O 0.58337 0.04768 0.52379 0.0
C845 C 0.47619 0.96756 0.55957 0.0
O846 O 0.50626 0.97381 0.54915 0.0
O847 O 0.45187 0.97998 0.54333 0.0
O848 O 0.61063 0.95807 0.48249 0.0
O849 O 0.55559 0.90566 0.48212 0.0
O850 O 0.60849 0.96376 0.55496 0.0
C851 C 0.58835 0.92392 0.47433 0.0
O852 O 0.55725 0.90892 0.55908 0.0
O853 O 0.46964 0.9107 0.4956 0.0
C854 C 0.59101 0.92985 0.56967 0.0
O855 O 0.46692 0.97005 0.47773 0.0
O856 O 0.54486 0.04547 0.45199 0.0
O857 O 0.60034 0.0414 0.45933 0.0
H858 H 0.21665 0.24314 0.33908 0.0
H859 H 0.10171 0.03528 0.40753 0.0
H860 H 0.14802 0.15687 0.2753 0.0
H861 H 0.10602 0.13295 0.44793 0.0
H862 H 0.12088 0.07911 0.3592 0.0
H863 H 0.1772 0.20503 0.37939 0.0
C864 C 0.19316 0.21631 0.33337 0.0
C865 C 0.18677 0.20206 0.30426 0.0
C866 C 0.11715 0.09081 0.37849 0.0
C867 C 0.14195 0.15834 0.35045 0.0
C868 C 0.10695 0.06611 0.40614 0.0
C869 C 0.1032 0.08107 0.43165 0.0
C870 C 0.12455 0.13079 0.37688 0.0
C871 C 0.1092 0.12076 0.42871 0.0
C872 C 0.17051 0.19476 0.35638 0.0
C873 C 0.15512 0.16783 0.29794 0.0
N874 N 0.12037 0.14465 0.40189 0.0
N875 N 0.13444 0.14631 0.32129 0.0
H876 H 0.87696 0.09203 0.29647 0.0
H877 H 0.02754 0.09216 0.40277 0.0
H878 H 0.86013 0.12979 0.37727 0.0
H879 H 1.02071 0.18598 0.44003 0.0
H880 H 0.98676 0.102 0.35534 0.0
H881 H 0.94401 0.1163 0.31567 0.0
C882 C 0.88739 0.10401 0.31894 0.0
C883 C 0.86316 0.10765 0.33609 0.0
C884 C 0.99579 0.1223 0.37278 0.0
C885 C 0.9392 0.13665 0.35732 0.0
C886 C 1.01962 0.11693 0.39983 0.0
C887 C 1.02556 0.13709 0.42556 0.0
C888 C 0.9779 0.1474 0.37251 0.0
C889 C 1.01522 0.16894 0.42082 0.0
C890 C 0.92554 0.11862 0.32942 0.0
C891 C 0.87782 0.12506 0.36414 0.0
N892 N 0.99002 0.17196 0.3953 0.0
N893 N 0.915 0.13899 0.37388 0.0
H894 H 0.77038 0.83356 0.32085 0.0
H895 H 0.87708 0.91378 0.45397 0.0
H896 H 0.87634 0.88351 0.28678 0.0
H897 H 0.95298 1.00128 0.39385 0.0
H898 H 0.83404 0.88827 0.40722 0.0
H899 H 0.79549 0.88047 0.35959 0.0
C900 C 0.79903 0.85438 0.32152 0.0
C901 C 0.82169 0.85363 0.30118 0.0
C902 C 0.85912 0.91431 0.4039 0.0
C903 C 0.851 0.90725 0.34605 0.0
C904 C 0.88357 0.92921 0.4308 0.0
C905 C 0.91841 0.95991 0.42776 0.0
C906 C 0.87002 0.92975 0.3737 0.0
C907 C 0.9261 0.97788 0.39714 0.0
C908 C 0.81338 0.88121 0.34372 0.0
C909 C 0.85806 0.88257 0.3022 0.0
N910 N 0.90272 0.96167 0.37127 0.0
N911 N 0.87183 0.90777 0.32469 0.0
H912 H 0.19932 0.94515 0.31197 0.0
H913 H 0.04232 0.85164 0.42378 0.0
H914 H 0.12476 0.8228 0.31603 0.0
H915 H 0.14343 0.95346 0.44388 0.0
H916 H 0.06908 0.84176 0.38198 0.0
H917 H 0.17573 0.95085 0.35765 0.0
C918 C 0.17781 0.91958 0.3224 0.0
C919 C 0.16375 0.88354 0.31016 0.0
C920 C 0.08553 0.86593 0.39587 0.0
C921 C 0.13669 0.88975 0.3623 0.0
C922 C 0.07032 0.87156 0.41975 0.0
C923 C 0.09069 0.90333 0.4375 0.0
C924 C 0.12103 0.89271 0.38926 0.0
C925 C 0.12678 0.92836 0.43105 0.0
C926 C 0.16461 0.92273 0.34859 0.0
C927 C 0.13631 0.8511 0.32483 0.0
N928 N 0.14059 0.9228 0.40721 0.0
N929 N 0.1234 0.85504 0.34998 0.0
H930 H 0.16265 0.91474 0.70143 0.0
H931 H 1.00247 0.82252 0.57607 0.0
H932 H 0.14302 0.84767 0.62487 0.0
H933 H 0.03578 0.93999 0.59822 0.0
H934 H 1.02049 0.8026 0.6319 0.0
H935 H 0.09513 0.90029 0.69332 0.0
C936 C 0.14416 0.89716 0.68301 0.0
C937 C 0.15808 0.88278 0.66344 0.0
C938 C 1.02187 0.8323 0.62494 0.0
C939 C 0.08188 0.86325 0.65638 0.0
C940 C 1.01224 0.84367 0.59293 0.0
C941 C 1.0214 0.88358 0.58269 0.0
C942 C 0.04437 0.86207 0.64443 0.0
C943 C 0.03197 0.90955 0.60533 0.0
C944 C 0.10584 0.8878 0.67924 0.0
C945 C 0.1333 0.85942 0.64037 0.0
N946 N 0.0437 0.89836 0.63572 0.0
N947 N 0.09656 0.85025 0.63768 0.0
H948 H 0.19821 0.11913 0.73043 0.0
H949 H 0.10209 1.00491 0.60835 0.0
H950 H 0.26451 0.20043 0.66049 0.0
H951 H 0.17291 0.10089 0.54953 0.0
H952 H 0.14419 0.0317 0.65536 0.0
H953 H 0.16959 0.0707 0.69286 0.0
C954 C 0.20691 0.1268 0.70725 0.0
C955 C 0.23303 0.16457 0.69846 0.0
C956 C 0.1513 0.04668 0.63233 0.0
C957 C 0.20119 0.10845 0.65512 0.0
C958 C 0.12765 0.03056 0.60532 0.0
C959 C 0.13387 0.05094 0.57502 0.0
C960 C 0.18121 0.08357 0.62878 0.0
C961 C 0.16708 0.0843 0.57248 0.0
C962 C 0.19076 0.09879 0.68569 0.0
C963 C 0.24395 0.17219 0.66834 0.0
N964 N 0.18891 0.10009 0.59894 0.0
N965 N 0.22781 0.14467 0.64786 0.0
H966 H 0.89873 0.07073 0.72071 0.0
H967 H 0.91384 0.10594 0.54042 0.0
H968 H 0.89097 0.17746 0.66781 0.0
H969 H 1.00588 0.09677 0.6094 0.0
H970 H 0.88711 0.11467 0.58337 0.0
H971 H 0.92062 0.06138 0.67566 0.0
C972 C 0.90146 0.09217 0.69984 0.0
C973 C 0.89304 0.12509 0.69845 0.0
C974 C 0.9132 0.11085 0.58876 0.0
C975 C 0.91625 0.1132 0.64648 0.0
C976 C 0.9284 0.10599 0.56446 0.0
C977 C 0.96232 0.10132 0.57142 0.0
C978 C 0.93145 0.10934 0.62004 0.0
C979 C 0.98001 0.10105 0.60297 0.0
C980 C 0.91356 0.08648 0.67409 0.0
C981 C 0.89622 0.15115 0.67007 0.0
N982 N 0.96413 0.10452 0.62622 0.0
N983 N 0.90744 0.14454 0.64513 0.0
H984 H 0.87721 0.87309 0.72096 0.0
H985 H 0.94643 0.87681 0.5615 0.0
H986 H 0.86922 0.76902 0.68778 0.0
H987 H 0.94254 0.9764 0.59268 0.0
H988 H 0.93039 0.83849 0.61281 0.0
H989 H 0.91676 0.91341 0.68126 0.0
C990 C 0.88496 0.85872 0.70618 0.0
C991 C 0.86951 0.81778 0.70727 0.0
C992 C 0.93324 0.86879 0.60843 0.0
C993 C 0.91319 0.86351 0.66077 0.0
C994 C 0.94228 0.89048 0.57924 0.0
C995 C 0.94558 0.92948 0.5731 0.0
C996 C 0.92736 0.88647 0.63129 0.0
C997 C 0.9396 0.94606 0.59647 0.0
C998 C 0.90708 0.88174 0.68307 0.0
C999 C 0.88009 0.80066 0.68715 0.0
N1000 N 0.93069 0.92443 0.62453 0.0
N1001 N 0.90065 0.82364 0.66414 0.0
H1002 H 0.34229 0.12721 0.15767 0.0
H1003 H 0.35686 0.03685 0.01266 0.0
H1004 H 0.25368 0.09227 0.07906 0.0
H1005 H 0.45411 0.11122 0.06989 0.0
H1006 H 0.31747 0.05033 0.04085 0.0
H1007 H 0.38314 0.1165 0.12912 0.0
C1008 C 0.33142 0.11764 0.13435 0.0
C1009 C 0.29423 0.11038 0.12092 0.0
C1010 C 0.34745 0.06381 0.04712 0.0
C1011 C 0.34069 0.09715 0.08856 0.0
C1012 C 0.36993 0.056 0.03114 0.0
C1013 C 0.40882 0.07314 0.03877 0.0
C1014 C 0.36393 0.08849 0.0712 0.0
C1015 C 0.42424 0.09769 0.063 0.0
C1016 C 0.35475 0.11131 0.11817 0.0
C1017 C 0.28176 0.09738 0.09078 0.0
N1018 N 0.40173 0.10451 0.07848 0.0
N1019 N 0.30483 0.09093 0.07576 0.0
H1020 H 0.79411 0.29908 0.15376 0.0
H1021 H 0.98727 0.47461 0.11573 0.0
H1022 H 0.86653 0.37768 0.22167 0.0
H1023 H 0.9168 0.38829 0.05295 0.0
H1024 H 0.94776 0.43667 0.15717 0.0
H1025 H 0.84117 0.32951 0.11805 0.0
C1026 C 0.82038 0.32223 0.16142 0.0
C1027 C 0.82742 0.33419 0.19153 0.0
C1028 C 0.94148 0.4255 0.1346 0.0
C1029 C 0.88115 0.37078 0.15009 0.0
C1030 C 0.96444 0.44683 0.11115 0.0
C1031 C 0.9559 0.434 0.08115 0.0
C1032 C 0.90937 0.39151 0.12774 0.0
C1033 C 0.92493 0.3987 0.07601 0.0
C1034 C 0.84727 0.33979 0.14098 0.0
C1035 C 0.86102 0.36597 0.19947 0.0
N1036 N 0.90272 0.37901 0.09882 0.0
N1037 N 0.8867 0.38305 0.17899 0.0
H1038 H 0.6678 0.74978 0.17629 0.0
H1039 H 0.66435 0.96328 0.11192 0.0
H1040 H 0.75553 0.85384 0.21119 0.0
H1041 H 0.57228 0.85253 0.09648 0.0
H1042 H 0.70047 0.92715 0.14594 0.0
H1043 H 0.63656 0.78993 0.14307 0.0
C1044 C 0.68085 0.78136 0.17661 0.0
C1045 C 0.71455 0.79826 0.19652 0.0
C1046 C 0.67221 0.91088 0.13535 0.0
C1047 C 0.67793 0.84524 0.1585 0.0
C1048 C 0.65129 0.93153 0.11611 0.0
C1049 C 0.61468 0.91124 0.10124 0.0
C1050 C 0.65673 0.86948 0.13963 0.0
C1051 C 0.60002 0.8699 0.10734 0.0
C1052 C 0.66274 0.80439 0.15771 0.0
C1053 C 0.72983 0.83948 0.19598 0.0
N1054 N 0.62099 0.85074 0.12564 0.0
N1055 N 0.71137 0.86156 0.17736 0.0
H1056 H 0.23602 0.64554 0.1956 0.0
H1057 H 0.14198 0.55098 0.06427 0.0
H1058 H 0.23262 0.75146 0.13823 0.0
H1059 H 0.13921 0.6627 0.01998 0.0
H1060 H 0.18957 0.58415 0.10591 0.0
H1061 H 0.21271 0.61172 0.14898 0.0
C1062 C 0.23054 0.66183 0.17306 0.0
C1063 C 0.2356 0.70128 0.17108 0.0
C1064 C 0.17875 0.6017 0.08727 0.0
C1065 C 0.2088 0.66242 0.11662 0.0
C1066 C 0.15182 0.58261 0.06301 0.0
C1067 C 0.13533 0.60373 0.03927 0.0
C1068 C 0.1887 0.6421 0.088 0.0
C1069 C 0.15009 0.64486 0.03842 0.0
C1070 C 0.21729 0.64238 0.14607 0.0
C1071 C 0.22836 0.7208 0.1411 0.0
N1072 N 0.17514 0.66248 0.06285 0.0
N1073 N 0.21498 0.70105 0.11518 0.0
H1074 H 0.33687 0.74953 0.86062 0.0
H1075 H 0.41636 0.9534 0.92922 0.0
H1076 H 0.32644 0.8551 0.80935 0.0
H1077 H 0.42613 0.84819 0.98278 0.0
H1078 H 0.36895 0.91325 0.89053 0.0
H1079 H 0.3594 0.78135 0.9094 0.0
C1080 C 0.33958 0.77947 0.85969 0.0
C1081 C 0.33027 0.80004 0.8311 0.0
C1082 C 0.38101 0.89885 0.91106 0.0
C1083 C 0.35482 0.83616 0.88639 0.0
C1084 C 0.40786 0.92179 0.93331 0.0
C1085 C 0.42644 0.9043 0.95837 0.0
C1086 C 0.3733 0.85848 0.91389 0.0
C1087 C 0.41359 0.86308 0.96298 0.0
C1088 C 0.35174 0.79739 0.88751 0.0
C1089 C 0.33301 0.83824 0.83108 0.0
N1090 N 0.38856 0.84162 0.9404 0.0
N1091 N 0.34533 0.85522 0.85823 0.0
H1092 H 0.15949 0.33024 0.84609 0.0
H1093 H 0.07351 0.34223 0.98743 0.0
H1094 H 0.14281 0.24349 0.92882 0.0
H1095 H 0.14536 0.4496 0.93852 0.0
H1096 H 0.09367 0.30478 0.96142 0.0
H1097 H 0.1514 0.3746 0.87548 0.0
C1098 C 0.15464 0.32063 0.8705 0.0
C1099 C 0.15122 0.28267 0.88483 0.0
C1100 C 0.10542 0.33655 0.9566 0.0
C1101 C 0.14132 0.33301 0.91807 0.0
C1102 C 0.09378 0.35796 0.97128 0.0
C1103 C 0.10785 0.39904 0.96508 0.0
C1104 C 0.13089 0.35617 0.93507 0.0
C1105 C 0.13412 0.41792 0.94402 0.0
C1106 C 0.15 0.346 0.88716 0.0
C1107 C 0.14456 0.27188 0.91642 0.0
N1108 N 0.14453 0.3962 0.92931 0.0
N1109 N 0.13935 0.29669 0.9318 0.0
H1110 H 0.64612 0.15657 0.76271 0.0
H1111 H 0.65626 0.11718 0.95183 0.0
H1112 H 0.74421 0.20897 0.82914 0.0
H1113 H 0.55438 0.06238 0.88974 0.0
H1114 H 0.68774 0.15063 0.90615 0.0
H1115 H 0.6117 0.12042 0.80748 0.0
C1116 C 0.6606 0.16001 0.78671 0.0
C1117 C 0.6984 0.18541 0.79207 0.0
C1118 C 0.65842 0.13173 0.90222 0.0
C1119 C 0.65894 0.1449 0.84342 0.0
C1120 C 0.6402 0.11266 0.92843 0.0
C1121 C 0.6024 0.0869 0.92478 0.0
C1122 C 0.63899 0.12542 0.87158 0.0
C1123 C 0.58335 0.08232 0.89374 0.0
C1124 C 0.64086 0.13954 0.81221 0.0
C1125 C 0.71555 0.18924 0.82361 0.0
N1126 N 0.60192 0.10124 0.86828 0.0
N1127 N 0.69575 0.16933 0.84793 0.0
H1128 H 0.78448 0.64975 0.80487 0.0
H1129 H 0.98751 0.66369 0.89519 0.0
H1130 H 0.88599 0.74896 0.78735 0.0
H1131 H 0.88797 0.55735 0.90004 0.0
H1132 H 0.95068 0.69688 0.85884 0.0
H1133 H 0.82108 0.61785 0.8436 0.0
C1134 C 0.81445 0.66523 0.80976 0.0
C1135 C 0.83205 0.70274 0.79359 0.0
C1136 C 0.93692 0.66616 0.86759 0.0
C1137 C 0.87462 0.66561 0.8372 0.0
C1138 C 0.9581 0.64696 0.88825 0.0
C1139 C 0.94131 0.60716 0.90065 0.0
C1140 C 0.89829 0.64582 0.85911 0.0
C1141 C 0.90263 0.58775 0.891 0.0
C1142 C 0.83544 0.64682 0.83165 0.0
C1143 C 0.87115 0.72058 0.7999 0.0
N1144 N 0.88264 0.60716 0.87109 0.0
N1145 N 0.89099 0.70208 0.8212 0.0
H1146 H 0.1738 0.26601 0.20973 0.0
H1147 H 0.16153 0.45863 0.09777 0.0
H1148 H 0.26701 0.36486 0.17524 0.0
H1149 H 0.06366 0.35062 0.10325 0.0
H1150 H 0.19863 0.42497 0.13193 0.0
H1151 H 0.13131 0.29486 0.17501 0.0
C1152 C 0.18531 0.29326 0.19452 0.0
C1153 C 0.2242 0.31273 0.1952 0.0
C1154 C 0.16897 0.40851 0.12599 0.0
C1155 C 0.17588 0.34687 0.15658 0.0
C1156 C 0.14748 0.42799 0.10659 0.0
C1157 C 0.10895 0.40788 0.09741 0.0
C1158 C 0.15229 0.36824 0.13698 0.0
C1159 C 0.09306 0.36775 0.10972 0.0
C1160 C 0.16107 0.30996 0.17491 0.0
C1161 C 0.23735 0.34854 0.17546 0.0
N1162 N 0.11466 0.34934 0.12873 0.0
N1163 N 0.21356 0.36437 0.15742 0.0
H1164 H 0.20132 0.63149 0.78218 0.0
H1165 H 0.11181 0.63192 0.93157 0.0
H1166 H 0.24481 0.72847 0.83735 0.0
H1167 H 0.08733 0.52754 0.89021 0.0
H1168 H 0.15187 0.67121 0.8909 0.0
H1169 H 0.15224 0.59605 0.81594 0.0
C1170 C 0.19999 0.64561 0.80103 0.0
C1171 C 0.22619 0.68358 0.80617 0.0
C1172 C 0.13701 0.63984 0.89022 0.0
C1173 C 0.17053 0.64291 0.84553 0.0
C1174 C 0.11357 0.61752 0.91308 0.0
C1175 C 0.0952 0.57654 0.91366 0.0
C1176 C 0.14239 0.62103 0.86784 0.0
C1177 C 0.10004 0.55917 0.89005 0.0
C1178 C 0.1721 0.62533 0.82043 0.0
C1179 C 0.22427 0.69984 0.83184 0.0
N1180 N 0.12316 0.58136 0.86827 0.0
N1181 N 0.19679 0.67963 0.85037 0.0
H1182 H 0.29515 0.15956 0.79169 0.0
H1183 H 0.48062 0.16116 0.90918 0.0
H1184 H 0.38261 0.26089 0.83088 0.0
H1185 H 0.38719 0.05164 0.89259 0.0
H1186 H 0.44493 0.19655 0.87591 0.0
H1187 H 0.32621 0.11778 0.82564 0.0
C1188 C 0.32036 0.17289 0.8078 0.0
C1189 C 0.33623 0.21386 0.80855 0.0
C1190 C 0.43211 0.16474 0.87916 0.0
C1191 C 0.37256 0.16666 0.84639 0.0
C1192 C 0.45281 0.14429 0.89805 0.0
C1193 C 0.43732 0.10302 0.90387 0.0
C1194 C 0.39523 0.14424 0.8654 0.0
C1195 C 0.40069 0.08337 0.88868 0.0
C1196 C 0.33829 0.14912 0.82695 0.0
C1197 C 0.36931 0.22954 0.82949 0.0
N1198 N 0.3809 0.10408 0.87028 0.0
N1199 N 0.3863 0.20619 0.84717 0.0
H1200 H 0.81598 0.25388 0.86445 0.0
H1201 H 0.91374 0.46215 0.92716 0.0
H1202 H 0.81785 0.36216 0.80781 0.0
H1203 H 0.90783 0.35338 0.98502 0.0
H1204 H 0.86576 0.42438 0.88739 0.0
H1205 H 0.83914 0.28799 0.91165 0.0
C1206 C 0.82123 0.28481 0.8619 0.0
C1207 C 0.81576 0.30538 0.83197 0.0
C1208 C 0.87443 0.40877 0.90908 0.0
C1209 C 0.84186 0.34456 0.88604 0.0
C1210 C 0.90161 0.43039 0.93198 0.0
C1211 C 0.91587 0.41088 0.95887 0.0
C1212 C 0.86182 0.36755 0.91315 0.0
C1213 C 0.89856 0.36966 0.96408 0.0
C1214 C 0.83412 0.30421 0.88894 0.0
C1215 C 0.82216 0.34519 0.83029 0.0
N1216 N 0.87317 0.34933 0.94103 0.0
N1217 N 0.8353 0.36357 0.85687 0.0
H1218 H 0.69341 0.83541 0.8752 0.0
H1219 H 0.68791 0.9898 0.97394 0.0
H1220 H 0.78552 0.94579 0.89231 0.0
H1221 H 0.59293 0.88414 0.94953 0.0
H1222 H 0.72357 0.97532 0.94258 0.0
H1223 H 0.65498 0.85456 0.89978 0.0
C1224 C 0.70539 0.86394 0.88369 0.0
C1225 C 0.74281 0.88893 0.88196 0.0
C1226 C 0.69489 0.95538 0.94406 0.0
C1227 C 0.69928 0.91066 0.91069 0.0
C1228 C 0.67457 0.96352 0.9621 0.0
C1229 C 0.63749 0.93797 0.96465 0.0
C1230 C 0.67803 0.92139 0.92858 0.0
C1231 C 0.62155 0.90455 0.94848 0.0
C1232 C 0.68352 0.87473 0.89794 0.0
C1233 C 0.757 0.92533 0.89371 0.0
N1234 N 0.64196 0.89718 0.93124 0.0
N1235 N 0.73529 0.93498 0.90781 0.0
H1236 H 0.96409 0.76212 0.12622 0.0
H1237 H 0.88848 0.57499 0.03231 0.0
H1238 H 0.84754 0.68555 0.11248 0.0
H1239 H 1.00437 0.64893 0.05806 0.0
H1240 H 0.87141 0.61123 0.06351 0.0
H1241 H 0.9783 0.71744 0.10304 0.0
C1242 C 0.94148 0.73581 0.11818 0.0
C1243 C 0.90462 0.72774 0.12076 0.0
C1244 C 0.90053 0.61917 0.06235 0.0
C1245 C 0.92049 0.67614 0.09407 0.0
C1246 C 0.91024 0.59856 0.04458 0.0
C1247 C 0.94782 0.60948 0.04199 0.0
C1248 C 0.9287 0.6506 0.07752 0.0
C1249 C 0.97496 0.63994 0.05866 0.0
C1250 C 0.94954 0.7101 0.10509 0.0
C1251 C 0.87636 0.69278 0.11068 0.0
N1252 N 0.96483 0.65944 0.07544 0.0
N1253 N 0.88482 0.66834 0.09738 0.0
H1254 H 0.40449 0.85303 0.24033 0.0
H1255 H 0.39482 0.89579 0.05146 0.0
H1256 H 0.30691 0.8006 0.17342 0.0
H1257 H 0.49629 0.95047 0.11406 0.0
H1258 H 0.36327 0.86128 0.0969 0.0
H1259 H 0.43883 0.89065 0.19583 0.0
C1260 C 0.3901 0.84994 0.21628 0.0
C1261 C 0.35251 0.82407 0.21066 0.0
C1262 C 0.39252 0.8804 0.10099 0.0
C1263 C 0.39185 0.86619 0.15967 0.0
C1264 C 0.41076 0.90007 0.07493 0.0
C1265 C 0.44844 0.92613 0.07883 0.0
C1266 C 0.41182 0.88637 0.1317 0.0
C1267 C 0.4674 0.93035 0.10991 0.0
C1268 C 0.40979 0.87122 0.19094 0.0
C1269 C 0.33543 0.82067 0.17909 0.0
N1270 N 0.4488 0.91082 0.13523 0.0
N1271 N 0.35519 0.84136 0.15493 0.0
H1272 H 0.72011 0.27907 0.12989 0.0
H1273 H 0.63508 0.06483 0.0758 0.0
H1274 H 0.70002 0.16936 0.19054 0.0
H1275 H 0.62459 0.16514 0.01387 0.0
H1276 H 0.68087 0.10927 0.11259 0.0
H1277 H 0.69995 0.24265 0.08324 0.0
C1278 C 0.71059 0.24733 0.13323 0.0
C1279 C 0.71074 0.22681 0.16374 0.0
C1280 C 0.66903 0.12161 0.09061 0.0
C1281 C 0.69022 0.18582 0.11151 0.0
C1282 C 0.64326 0.09624 0.06944 0.0
C1283 C 0.62459 0.11127 0.04277 0.0
C1284 C 0.67541 0.1618 0.085 0.0
C1285 C 0.63713 0.15232 0.03514 0.0
C1286 C 0.70003 0.22676 0.10685 0.0
C1287 C 0.69958 0.18598 0.16722 0.0
N1288 N 0.66087 0.17626 0.05677 0.0
N1289 N 0.68992 0.16687 0.14147 0.0
H1290 H 0.69451 0.62635 0.79345 0.0
H1291 H 0.59297 0.62399 0.93464 0.0
H1292 H 0.67657 0.72692 0.80729 0.0
H1293 H 0.63748 0.53959 0.92976 0.0
H1294 H 0.61388 0.65851 0.88348 0.0
H1295 H 0.66093 0.58854 0.83774 0.0
C1296 C 0.68293 0.64026 0.80542 0.0
C1297 C 0.68889 0.67997 0.79709 0.0
C1298 C 0.61869 0.63218 0.8936 0.0
C1299 C 0.65119 0.63729 0.84809 0.0
C1300 C 0.60659 0.6125 0.92256 0.0
C1301 C 0.61219 0.57814 0.93573 0.0
C1302 C 0.63666 0.61725 0.8781 0.0
C1303 C 0.63175 0.56544 0.92012 0.0
C1304 C 0.66405 0.61881 0.83087 0.0
C1305 C 0.67313 0.6965 0.81334 0.0
N1306 N 0.64298 0.58475 0.89209 0.0
N1307 N 0.65535 0.6752 0.83838 0.0
H1308 H 0.34932 0.62681 0.87114 0.0
H1309 H 0.53318 0.60408 0.905 0.0
H1310 H 0.38286 0.57365 0.81061 0.0
H1311 H 0.51389 0.68425 0.95002 0.0
H1312 H 0.49063 0.61281 0.85909 0.0
H1313 H 0.41443 0.6587 0.89432 0.0
C1314 C 0.37044 0.62082 0.86364 0.0
C1315 C 0.36097 0.59635 0.84009 0.0
C1316 C 0.49675 0.63013 0.87825 0.0
C1317 C 0.43535 0.63474 0.86453 0.0
C1318 C 0.52238 0.62619 0.90425 0.0
C1319 C 0.52595 0.64247 0.93167 0.0
C1320 C 0.47394 0.64894 0.88086 0.0
C1321 C 0.51049 0.67003 0.92954 0.0
C1322 C 0.40763 0.64014 0.87592 0.0
C1323 C 0.38924 0.59115 0.82969 0.0
N1324 N 0.48318 0.67076 0.9052 0.0
N1325 N 0.42523 0.61012 0.84208 0.0
H1326 H 0.29598 0.31393 0.84634 0.0
H1327 H 0.39902 0.44999 0.94756 0.0
H1328 H 0.35037 0.39817 0.77129 0.0
H1329 H 0.46032 0.51579 0.87049 0.0
H1330 H 0.34756 0.41307 0.90976 0.0
H1331 H 0.32401 0.36402 0.8816 0.0
C1332 C 0.31361 0.34319 0.83706 0.0
C1333 C 0.32124 0.35133 0.80572 0.0
C1334 C 0.37198 0.43571 0.90075 0.0
C1335 C 0.35377 0.41037 0.84663 0.0
C1336 C 0.40095 0.45797 0.92246 0.0
C1337 C 0.43446 0.48525 0.91229 0.0
C1338 C 0.37697 0.44057 0.86875 0.0
C1339 C 0.43517 0.49439 0.8794 0.0
C1340 C 0.32956 0.37232 0.8574 0.0
C1341 C 0.34418 0.39011 0.79536 0.0
N1342 N 0.4076 0.47116 0.85895 0.0
N1343 N 0.36001 0.41791 0.81585 0.0
H1344 H 0.70376 0.46392 0.78811 0.0
H1345 H 0.64002 0.39963 0.96009 0.0
H1346 H 0.66958 0.34453 0.8344 0.0
H1347 H 0.62729 0.49598 0.89387 0.0
H1348 H 0.67046 0.38749 0.92174 0.0
H1349 H 0.69445 0.48401 0.8347 0.0
C1350 C 0.69438 0.44195 0.80802 0.0
C1351 C 0.68696 0.40241 0.80709 0.0
C1352 C 0.66181 0.41192 0.91618 0.0
C1353 C 0.67722 0.42538 0.86069 0.0
C1354 C 0.64482 0.41898 0.93805 0.0
C1355 C 0.63135 0.44887 0.93006 0.0
C1356 C 0.66573 0.43547 0.88669 0.0
C1357 C 0.63755 0.47283 0.90105 0.0
C1358 C 0.68948 0.4535 0.8347 0.0
C1359 C 0.67588 0.37541 0.83406 0.0
N1360 N 0.65412 0.46549 0.88037 0.0
N1361 N 0.67107 0.38734 0.8597 0.0
H1362 H 0.651 0.33775 0.154 0.0
H1363 H 0.51538 0.37209 0.05655 0.0
H1364 H 0.71265 0.40718 0.07707 0.0
H1365 H 0.56025 0.36368 0.9777 0.0
H1366 H 0.56109 0.3519 0.09284 0.0
H1367 H 0.59551 0.31387 0.11644 0.0
C1368 C 0.65344 0.34735 0.12913 0.0
C1369 C 0.68701 0.37503 0.1188 0.0
C1370 C 0.55993 0.35239 0.06765 0.0
C1371 C 0.62195 0.34956 0.07595 0.0
C1372 C 0.53382 0.36396 0.04705 0.0
C1373 C 0.5344 0.3692 0.01453 0.0
C1374 C 0.58731 0.34737 0.05536 0.0
C1375 C 0.55916 0.35946 0.0029 0.0
C1376 C 0.62129 0.33386 0.10774 0.0
C1377 C 0.68732 0.38679 0.08619 0.0
N1378 N 0.58579 0.35029 0.02347 0.0
N1379 N 0.6549 0.37459 0.06584 0.0
H1380 H 0.69279 0.61799 0.23316 0.0
H1381 H 0.59864 0.49881 0.11458 0.0
H1382 H 0.76679 0.69119 0.16579 0.0
H1383 H 0.67135 0.59228 0.05545 0.0
H1384 H 0.64095 0.52572 0.16155 0.0
H1385 H 0.66355 0.56794 0.19698 0.0
C1386 C 0.70312 0.6235 0.21091 0.0
C1387 C 0.73139 0.65973 0.20216 0.0
C1388 C 0.64832 0.54009 0.13844 0.0
C1389 C 0.69914 0.60153 0.16072 0.0
C1390 C 0.62459 0.52389 0.11151 0.0
C1391 C 0.63145 0.54351 0.08113 0.0
C1392 C 0.67888 0.57634 0.13469 0.0
C1393 C 0.66508 0.57624 0.07848 0.0
C1394 C 0.68667 0.59449 0.19023 0.0
C1395 C 0.74439 0.66445 0.1734 0.0
N1396 N 0.68704 0.59213 0.10485 0.0
N1397 N 0.72798 0.63604 0.15375 0.0
H1398 H 0.34729 0.55902 0.1949 0.0
H1399 H 0.50304 0.64848 0.08204 0.0
H1400 H 0.42248 0.68121 0.18742 0.0
H1401 H 0.40423 0.54331 0.06532 0.0
H1402 H 0.47574 0.65972 0.12255 0.0
H1403 H 0.36982 0.55077 0.14955 0.0
C1404 C 0.36865 0.58402 0.18376 0.0
C1405 C 0.38329 0.62076 0.19499 0.0
C1406 C 0.45985 0.63444 0.10976 0.0
C1407 C 0.40905 0.61162 0.14329 0.0
C1408 C 0.47541 0.62798 0.08665 0.0
C1409 C 0.45586 0.59492 0.07026 0.0
C1410 C 0.42476 0.60726 0.11699 0.0
C1411 C 0.42016 0.56932 0.07723 0.0
C1412 C 0.38123 0.57941 0.15777 0.0
C1413 C 0.41046 0.65241 0.17944 0.0
N1414 N 0.40592 0.57576 0.10038 0.0
N1415 N 0.42272 0.64703 0.15455 0.0
H1416 H 0.39782 0.34443 0.22236 0.0
H1417 H 0.38552 0.39894 0.03915 0.0
H1418 H 0.31478 0.26837 0.15635 0.0
H1419 H 0.49421 0.4296 0.09565 0.0
H1420 H 0.35811 0.35428 0.08438 0.0
H1421 H 0.43463 0.37984 0.17879 0.0
C1422 C 0.38742 0.335 0.19901 0.0
C1423 C 0.35236 0.30447 0.19279 0.0
C1424 C 0.38805 0.37039 0.08675 0.0
C1425 C 0.39415 0.34386 0.14362 0.0
C1426 C 0.40354 0.39576 0.06102 0.0
C1427 C 0.44194 0.41749 0.06385 0.0
C1428 C 0.41107 0.36776 0.11568 0.0
C1429 C 0.46437 0.41276 0.09267 0.0
C1430 C 0.40853 0.3549 0.17432 0.0
C1431 C 0.34094 0.29243 0.16232 0.0
N1432 N 0.44849 0.38879 0.11786 0.0
N1433 N 0.36143 0.31254 0.13884 0.0
H1434 H 0.83899 0.62793 0.6533 0.0
H1435 H 0.85728 0.53458 0.5115 0.0
H1436 H 0.74833 0.57849 0.5796 0.0
H1437 H 0.95338 0.61206 0.5676 0.0
H1438 H 0.81702 0.54855 0.53813 0.0
H1439 H 0.88193 0.62245 0.62339 0.0
C1440 C 0.82819 0.61646 0.63065 0.0
C1441 C 0.78987 0.60299 0.61921 0.0
C1442 C 0.84693 0.5627 0.54451 0.0
C1443 C 0.83865 0.5961 0.5852 0.0
C1444 C 0.86995 0.55456 0.52941 0.0
C1445 C 0.90878 0.57219 0.53726 0.0
C1446 C 0.86274 0.58832 0.56797 0.0
C1447 C 0.92357 0.59794 0.56066 0.0
C1448 C 0.85268 0.61314 0.61369 0.0
C1449 C 0.77746 0.58827 0.58975 0.0
N1450 N 0.90052 0.60505 0.57535 0.0
N1451 N 0.80166 0.58486 0.57398 0.0
H1452 H 0.39478 0.87193 0.74245 0.0
H1453 H 0.45589 0.88862 0.57508 0.0
H1454 H 0.32491 0.79749 0.67078 0.0
H1455 H 0.4719 0.99316 0.61229 0.0
H1456 H 0.42369 0.84854 0.62025 0.0
H1457 H 0.43773 0.91181 0.70363 0.0
C1458 C 0.38895 0.8635 0.71883 0.0
C1459 C 0.3572 0.83026 0.71027 0.0
C1460 C 0.43518 0.8803 0.61889 0.0
C1461 C 0.40579 0.87536 0.66611 0.0
C1462 C 0.45395 0.90309 0.59345 0.0
C1463 C 0.46719 0.94416 0.59042 0.0
C1464 C 0.43005 0.89877 0.64159 0.0
C1465 C 0.46273 0.96154 0.61423 0.0
C1466 C 0.41329 0.88624 0.69677 0.0
C1467 C 0.34995 0.82165 0.67893 0.0
N1468 N 0.44451 0.93879 0.63885 0.0
N1469 N 0.37425 0.84365 0.65816 0.0
H1470 H 0.25703 0.35513 0.71166 0.0
H1471 H 0.0713 0.34831 0.59179 0.0
H1472 H 0.17173 0.25214 0.67307 0.0
H1473 H 0.16208 0.45909 0.61 0.0
H1474 H 0.10783 0.31408 0.62559 0.0
H1475 H 0.22489 0.39542 0.67693 0.0
C1476 C 0.2321 0.34114 0.69549 0.0
C1477 C 0.21717 0.30014 0.69513 0.0
C1478 C 0.11987 0.34591 0.62256 0.0
C1479 C 0.17954 0.34563 0.65641 0.0
C1480 C 0.09867 0.36566 0.60336 0.0
C1481 C 0.11319 0.40696 0.59787 0.0
C1482 C 0.15626 0.36715 0.63693 0.0
C1483 C 0.14933 0.4273 0.61362 0.0
C1484 C 0.21353 0.36405 0.67591 0.0
C1485 C 0.18436 0.28357 0.67413 0.0
N1486 N 0.1696 0.40728 0.63229 0.0
N1487 N 0.16673 0.3061 0.65601 0.0
H1488 H 0.73717 0.1444 0.69049 0.0
H1489 H 0.64504 0.16355 0.51132 0.0
H1490 H 0.73337 0.252 0.63653 0.0
H1491 H 0.63938 0.05354 0.5668 0.0
H1492 H 0.6935 0.19868 0.55186 0.0
H1493 H 0.71573 0.11357 0.64165 0.0
C1494 C 0.73193 0.16162 0.6684 0.0
C1495 C 0.73606 0.20054 0.66779 0.0
C1496 C 0.68229 0.16685 0.55487 0.0
C1497 C 0.7118 0.16543 0.61175 0.0
C1498 C 0.65473 0.14671 0.5316 0.0
C1499 C 0.63704 0.10553 0.53632 0.0
C1500 C 0.69202 0.1456 0.58304 0.0
C1501 C 0.6515 0.08532 0.56259 0.0
C1502 C 0.71991 0.14403 0.64048 0.0
C1503 C 0.72959 0.22159 0.63834 0.0
N1504 N 0.67748 0.1056 0.58545 0.0
N1505 N 0.71733 0.20361 0.61158 0.0
H1506 H 0.76518 0.29665 0.35018 0.0
H1507 H 0.92774 0.34665 0.49068 0.0
H1508 H 0.86655 0.28479 0.34547 0.0
H1509 H 0.91151 0.44443 0.42878 0.0
H1510 H 0.87772 0.30145 0.45686 0.0
H1511 H 0.79456 0.32827 0.39826 0.0
C1512 C 0.79367 0.30099 0.359 0.0
C1513 C 0.81427 0.29063 0.34253 0.0
C1514 C 0.88433 0.33272 0.45152 0.0
C1515 C 0.8466 0.32324 0.39887 0.0
C1516 C 0.9128 0.35863 0.4706 0.0
C1517 C 0.92478 0.39944 0.46158 0.0
C1518 C 0.86716 0.34785 0.42404 0.0
C1519 C 0.90368 0.41323 0.43606 0.0
C1520 C 0.80996 0.31814 0.38681 0.0
C1521 C 0.84996 0.29336 0.35688 0.0
N1522 N 0.87618 0.3873 0.41753 0.0
N1523 N 0.86534 0.31004 0.38421 0.0
H1524 H 0.70603 0.83172 0.38582 0.0
H1525 H 0.54317 0.8632 0.44094 0.0
H1526 H 0.59122 0.74947 0.3805 0.0
H1527 H 0.65896 0.94019 0.46234 0.0
H1528 H 0.56086 0.8272 0.41167 0.0
H1529 H 0.68981 0.87713 0.40735 0.0
C1530 C 0.67743 0.82337 0.38904 0.0
C1531 C 0.64994 0.78661 0.38188 0.0
C1532 C 0.58255 0.85195 0.42267 0.0
C1533 C 0.63135 0.83809 0.40612 0.0
C1534 C 0.57247 0.87259 0.43953 0.0
C1535 C 0.59973 0.90434 0.45469 0.0
C1536 C 0.62028 0.86276 0.42099 0.0
C1537 C 0.63712 0.91559 0.45128 0.0
C1538 C 0.66826 0.84918 0.40135 0.0
C1539 C 0.61337 0.77715 0.38635 0.0
N1540 N 0.64642 0.89448 0.43498 0.0
N1541 N 0.6052 0.80266 0.39824 0.0
H1542 H 0.24805 0.71024 0.33128 0.0
H1543 H 0.0529 0.56073 0.38895 0.0
H1544 H 0.14889 0.65986 0.26521 0.0
H1545 H 0.15547 0.61447 0.45067 0.0
H1546 H 0.0856 0.59656 0.34284 0.0
H1547 H 0.21382 0.67278 0.37494 0.0
C1548 C 0.21927 0.69071 0.32585 0.0
C1549 C 0.20162 0.68771 0.29441 0.0
C1550 C 0.10072 0.60063 0.36656 0.0
C1551 C 0.16119 0.64564 0.34476 0.0
C1552 C 0.08192 0.58062 0.39283 0.0
C1553 C 0.10137 0.58466 0.42375 0.0
C1554 C 0.13911 0.62472 0.37142 0.0
C1555 C 0.13924 0.61028 0.42733 0.0
C1556 C 0.1994 0.66954 0.35093 0.0
C1557 C 0.16367 0.66269 0.28914 0.0
N1558 N 0.15673 0.62897 0.40168 0.0
N1559 N 0.14465 0.64271 0.314 0.0
H1560 H 0.36911 0.24246 0.29083 0.0
H1561 H 0.38561 0.05346 0.40624 0.0
H1562 H 0.27704 0.14265 0.32594 0.0
H1563 H 0.48232 0.16189 0.3965 0.0
H1564 H 0.34717 0.08533 0.37166 0.0
H1565 H 0.41247 0.21493 0.32569 0.0
C1566 C 0.35802 0.21523 0.30617 0.0
C1567 C 0.3192 0.19517 0.30567 0.0
C1568 C 0.37685 0.10226 0.37677 0.0
C1569 C 0.36856 0.16251 0.34451 0.0
C1570 C 0.39909 0.08381 0.39643 0.0
C1571 C 0.43772 0.10459 0.40451 0.0
C1572 C 0.39285 0.14215 0.36447 0.0
C1573 C 0.45288 0.14427 0.39093 0.0
C1574 C 0.38276 0.19928 0.32586 0.0
C1575 C 0.30661 0.1594 0.32556 0.0
N1576 N 0.43054 0.16168 0.37173 0.0
N1577 N 0.33091 0.14432 0.34374 0.0
H1578 H 0.77418 0.86592 0.67008 0.0
H1579 H 0.56669 0.85629 0.6055 0.0
H1580 H 0.67914 0.77639 0.70966 0.0
H1581 H 0.66663 0.95962 0.59079 0.0
H1582 H 0.60521 0.82337 0.64005 0.0
H1583 H 0.7335 0.89635 0.63647 0.0
C1584 C 0.74455 0.85224 0.6713 0.0
C1585 C 0.73008 0.81784 0.69216 0.0
C1586 C 0.61862 0.85341 0.62954 0.0
C1587 C 0.68283 0.85335 0.65391 0.0
C1588 C 0.59657 0.87246 0.60989 0.0
C1589 C 0.61304 0.91131 0.59517 0.0
C1590 C 0.65772 0.87291 0.63435 0.0
C1591 C 0.65221 0.93002 0.60162 0.0
C1592 C 0.72128 0.86982 0.65222 0.0
C1593 C 0.69145 0.80214 0.69325 0.0
N1594 N 0.67294 0.91069 0.62031 0.0
N1595 N 0.66922 0.8198 0.67432 0.0
H1596 H 0.7362 0.23496 0.33714 0.0
H1597 H 0.55696 0.04275 0.37943 0.0
H1598 H 0.67214 0.15162 0.27099 0.0
H1599 H 0.62647 0.12825 0.44316 0.0
H1600 H 0.59169 0.08587 0.3363 0.0
H1601 H 0.69025 0.20066 0.37297 0.0
C1602 C 0.71168 0.21031 0.32964 0.0
C1603 C 0.70695 0.19793 0.30016 0.0
C1604 C 0.59875 0.09559 0.35954 0.0
C1605 C 0.65475 0.15568 0.34233 0.0
C1606 C 0.5786 0.07122 0.384 0.0
C1607 C 0.58833 0.08247 0.41466 0.0
C1608 C 0.62908 0.13113 0.36602 0.0
C1609 C 0.61754 0.11893 0.41968 0.0
C1610 C 0.68549 0.19011 0.35035 0.0
C1611 C 0.67585 0.16345 0.29282 0.0
N1612 N 0.63693 0.14169 0.3958 0.0
N1613 N 0.65093 0.14347 0.31373 0.0
H1614 H 0.79624 0.65973 0.29261 0.0
H1615 H 0.9824 0.66107 0.41016 0.0
H1616 H 0.88759 0.76251 0.32595 0.0
H1617 H 0.88891 0.55219 0.39195 0.0
H1618 H 0.9475 0.69709 0.37627 0.0
H1619 H 0.82735 0.61835 0.32709 0.0
C1620 C 0.82241 0.67354 0.30751 0.0
C1621 C 0.83915 0.71479 0.30654 0.0
C1622 C 0.93451 0.66529 0.3793 0.0
C1623 C 0.87558 0.66781 0.34512 0.0
C1624 C 0.95476 0.64448 0.39858 0.0
C1625 C 0.93907 0.60316 0.40406 0.0
C1626 C 0.89783 0.64513 0.36486 0.0
C1627 C 0.90262 0.58391 0.38833 0.0
C1628 C 0.84037 0.64996 0.32698 0.0
C1629 C 0.87349 0.73095 0.32593 0.0
N1630 N 0.88328 0.60495 0.36961 0.0
N1631 N 0.89041 0.7077 0.34405 0.0
H1632 H 0.31578 0.86573 0.30811 0.0
H1633 H 0.40758 0.96351 0.4376 0.0
H1634 H 0.32215 0.76162 0.36665 0.0
H1635 H 0.41006 0.85276 0.48498 0.0
H1636 H 0.36061 0.92906 0.39629 0.0
H1637 H 0.33698 0.89997 0.35425 0.0
C1638 C 0.32154 0.84991 0.3308 0.0
C1639 C 0.3178 0.81083 0.33324 0.0
C1640 C 0.37114 0.91193 0.41555 0.0
C1641 C 0.34246 0.85039 0.38726 0.0
C1642 C 0.39771 0.9318 0.43964 0.0
C1643 C 0.41412 0.91134 0.46408 0.0
C1644 C 0.36151 0.8714 0.41571 0.0
C1645 C 0.3993 0.87009 0.46593 0.0
C1646 C 0.33364 0.86966 0.35755 0.0
C1647 C 0.32537 0.79199 0.36345 0.0
N1648 N 0.3747 0.85168 0.44161 0.0
N1649 N 0.33771 0.81209 0.38916 0.0
H1650 H 0.29618 0.40935 0.42771 0.0
H1651 H 0.09492 0.40242 0.42929 0.0
H1652 H 0.21069 0.38703 0.34576 0.0
H1653 H 0.19261 0.46897 0.49064 0.0
H1654 H 0.13461 0.38836 0.40184 0.0
H1655 H 0.25599 0.42289 0.45476 0.0
C1656 C 0.26909 0.40744 0.41528 0.0
C1657 C 0.2571 0.39736 0.38418 0.0
C1658 C 0.14731 0.40606 0.42128 0.0
C1659 C 0.21062 0.41203 0.41547 0.0
C1660 C 0.12472 0.41398 0.43706 0.0
C1661 C 0.14052 0.43679 0.4624 0.0
C1662 C 0.1859 0.4205 0.43124 0.0
C1663 C 0.1793 0.45132 0.47122 0.0
C1664 C 0.24612 0.41505 0.43084 0.0
C1665 C 0.22112 0.39425 0.36979 0.0
N1666 N 0.20066 0.44268 0.4558 0.0
N1667 N 0.19915 0.40152 0.38557 0.0
H1668 H 0.42062 0.27948 0.57851 0.0
H1669 H 0.40833 0.06709 0.56428 0.0
H1670 H 0.3952 0.18693 0.6569 0.0
H1671 H 0.48408 0.17558 0.51981 0.0
H1672 H 0.38978 0.10579 0.59191 0.0
H1673 H 0.42982 0.23609 0.54947 0.0
C1674 C 0.41704 0.25011 0.58971 0.0
C1675 C 0.40786 0.23726 0.62052 0.0
C1676 C 0.41033 0.12082 0.57596 0.0
C1677 C 0.41742 0.18703 0.58689 0.0
C1678 C 0.42074 0.09889 0.56014 0.0
C1679 C 0.44783 0.11823 0.53984 0.0
C1680 C 0.42655 0.16208 0.57066 0.0
C1681 C 0.46328 0.15945 0.53539 0.0
C1682 C 0.42204 0.22527 0.57299 0.0
C1683 C 0.40222 0.19819 0.63321 0.0
N1684 N 0.45232 0.17992 0.55056 0.0
N1685 N 0.40728 0.17443 0.61637 0.0
H1686 H 0.90328 0.34726 0.73842 0.0
H1687 H 0.89292 0.39291 0.54945 0.0
H1688 H 0.80529 0.29661 0.67135 0.0
H1689 H 0.99533 0.44437 0.61204 0.0
H1690 H 0.86148 0.35794 0.59489 0.0
H1691 H 0.93783 0.38457 0.69394 0.0
C1692 C 0.88886 0.34443 0.71437 0.0
C1693 C 0.85103 0.31919 0.70873 0.0
C1694 C 0.8909 0.37644 0.59897 0.0
C1695 C 0.8906 0.36104 0.65773 0.0
C1696 C 0.90907 0.39638 0.57289 0.0
C1697 C 0.947 0.42169 0.5768 0.0
C1698 C 0.91051 0.38139 0.6297 0.0
C1699 C 0.96623 0.42486 0.60787 0.0
C1700 C 0.90866 0.36555 0.68903 0.0
C1701 C 0.83395 0.31616 0.67712 0.0
N1702 N 0.9477 0.40511 0.6332 0.0
N1703 N 0.85379 0.33672 0.65298 0.0
H1704 H 0.26026 0.75451 0.63517 0.0
H1705 H 0.13453 0.55 0.56884 0.0
H1706 H 0.22438 0.64128 0.69144 0.0
H1707 H 0.12724 0.66007 0.52497 0.0
H1708 H 0.18962 0.58605 0.60434 0.0
H1709 H 0.23127 0.72179 0.58679 0.0
C1710 C 0.24659 0.72273 0.6371 0.0
C1711 C 0.24369 0.70021 0.6668 0.0
C1712 C 0.17638 0.60226 0.58639 0.0
C1713 C 0.21201 0.66308 0.61253 0.0
C1714 C 0.14501 0.58178 0.56606 0.0
C1715 C 0.12543 0.602 0.54485 0.0
C1716 C 0.188 0.64301 0.58533 0.0
C1717 C 0.14078 0.64325 0.54183 0.0
C1718 C 0.23044 0.70419 0.60974 0.0
C1719 C 0.22642 0.65933 0.66869 0.0
N1720 N 0.17081 0.66246 0.56244 0.0
N1721 N 0.21092 0.64194 0.6418 0.0
loop_
_geom_bond_atom_site_label_1
_geom_bond_atom_site_label_2
_geom_bond_distance
_geom_bond_site_symmetry_2
_ccdc_geom_bond_type
Tb0 N31 2.660 . S
Tb0 N38 2.600 . S
Tb0 O44 2.546 . S
Tb0 O45 2.610 . S
Tb0 O47 2.320 . S
Tb0 O48 2.552 . S
Tb0 O49 2.413 . S
Tb0 O51 2.362 . S
Tb0 O52 2.421 . S
Tb0 C64 2.833 . S
C1 C4 1.432 . S
C1 C5 1.414 . S
C1 N8 1.359 . S
C2 C4 1.417 . S
C2 C6 1.432 . S
C2 C14 1.410 . S
C3 C5 1.444 . S
C3 C6 1.317 . S
C3 H26 0.929 . S
C4 C1 1.432 . S
C4 C2 1.417 . S
C4 N12 1.360 . S
C5 C1 1.414 . S
C5 C3 1.444 . S
C5 C10 1.385 . S
C6 C2 1.432 . S
C6 C3 1.317 . S
C6 H18 0.930 . S
C7 C9 1.392 . S
C7 C10 1.370 . S
C7 H19 0.931 . S
N8 C1 1.359 . S
N8 C9 1.327 . S
N8 Tb11 2.600 . S
C9 C7 1.392 . S
C9 N8 1.327 . S
C9 H16 0.930 . S
C10 C5 1.385 . S
C10 C7 1.370 . S
C10 H29 0.930 . S
Tb11 N8 2.600 . S
Tb11 N12 2.660 . S
Tb11 O45 2.362 . S
Tb11 O46 2.421 . S
Tb11 O50 2.546 . S
Tb11 O51 2.610 . S
Tb11 O53 2.320 . S
Tb11 O54 2.552 . S
Tb11 O55 2.413 . S
Tb11 C75 2.833 . S
N12 C4 1.360 . S
N12 Tb11 2.660 . S
N12 C13 1.305 . S
C13 N12 1.305 . S
C13 C15 1.407 . S
C13 H20 0.930 . S
C14 C2 1.410 . S
C14 C15 1.345 . S
C14 H22 0.930 . S
C15 C13 1.407 . S
C15 C14 1.345 . S
C15 H17 0.930 . S
H16 C9 0.930 . S
H17 C15 0.930 . S
H18 C6 0.930 . S
H19 C7 0.931 . S
H20 C13 0.930 . S
H21 C35 0.930 . S
H22 C14 0.930 . S
H23 C41 0.930 . S
H24 C32 0.930 . S
H25 C39 0.931 . S
H26 C3 0.929 . S
H27 C33 0.930 . S
H28 C66 0.930 . S
H29 C10 0.930 . S
H30 C65 0.929 . S
N31 Tb0 2.660 . S
N31 C32 1.305 . S
N31 C36 1.360 . S
C32 H24 0.930 . S
C32 N31 1.305 . S
C32 C35 1.407 . S
C33 H27 0.930 . S
C33 C34 1.410 . S
C33 C35 1.345 . S
C34 C33 1.410 . S
C34 C36 1.417 . S
C34 C66 1.432 . S
C35 H21 0.930 . S
C35 C32 1.407 . S
C35 C33 1.345 . S
C36 N31 1.360 . S
C36 C34 1.417 . S
C36 C40 1.432 . S
H37 C42 0.930 . S
N38 Tb0 2.600 . S
N38 C40 1.359 . S
N38 C41 1.327 . S
C39 H25 0.931 . S
C39 C41 1.392 . S
C39 C42 1.370 . S
C40 C36 1.432 . S
C40 N38 1.359 . S
C40 C43 1.414 . S
C41 H23 0.930 . S
C41 N38 1.327 . S
C41 C39 1.392 . S
C42 H37 0.930 . S
C42 C39 1.370 . S
C42 C43 1.385 . S
C43 C40 1.414 . S
C43 C42 1.385 . S
C43 C65 1.444 . S
O44 Tb0 2.546 . S
O44 C64 1.251 . S
O45 Tb0 2.610 . S
O45 Tb11 2.362 . S
O45 C56 1.283 . S
O46 Tb11 2.421 . S
O46 C63 1.262 . S
O47 Tb0 2.320 . S
O47 C63 1.260 . S
O48 Tb0 2.552 . S
O48 C56 1.243 . S
O49 Tb0 2.413 . S
O49 C64 1.256 . S
O50 Tb11 2.546 . S
O50 C75 1.251 . S
O51 Tb0 2.362 . S
O51 Tb11 2.610 . S
O51 C67 1.283 . S
O52 Tb0 2.421 . S
O52 C74 1.262 . S
O53 Tb11 2.320 . S
O53 C74 1.260 . S
O54 Tb11 2.552 . S
O54 C67 1.243 . S
O55 Tb11 2.413 . S
O55 C75 1.256 . S
C56 O45 1.283 . S
C56 O48 1.243 . S
C57 C59 1.382 . S
C57 C61 1.393 . S
C57 C64 1.500 . S
C58 C59 1.400 . S
C58 C60 1.384 . S
C59 C57 1.382 . S
C59 C58 1.400 . S
C59 H76 0.930 . S
C60 C58 1.384 . S
C60 C62 1.392 . S
C60 H77 0.931 . S
C61 C57 1.393 . S
C61 C62 1.401 . S
C61 H78 0.930 . S
C62 C60 1.392 . S
C62 C61 1.401 . S
C62 H79 0.930 . S
C63 O46 1.262 . S
C63 O47 1.260 . S
C64 Tb0 2.833 . S
C64 O44 1.251 . S
C64 O49 1.256 . S
C64 C57 1.500 . S
C65 H30 0.929 . S
C65 C43 1.444 . S
C65 C66 1.317 . S
C66 H28 0.930 . S
C66 C34 1.432 . S
C66 C65 1.317 . S
C67 O51 1.283 . S
C67 O54 1.243 . S
C68 C69 1.382 . S
C68 C72 1.393 . S
C68 C75 1.500 . S
C69 C68 1.382 . S
C69 C70 1.400 . S
C69 H80 0.930 . S
C70 C69 1.400 . S
C70 C71 1.384 . S
C71 C70 1.384 . S
C71 C73 1.392 . S
C71 H81 0.931 . S
C72 C68 1.393 . S
C72 C73 1.401 . S
C72 H82 0.930 . S
C73 C71 1.392 . S
C73 C72 1.401 . S
C73 H83 0.930 . S
C74 O52 1.262 . S
C74 O53 1.260 . S
C75 Tb11 2.833 . S
C75 O50 1.251 . S
C75 O55 1.256 . S
C75 C68 1.500 . S
H76 C59 0.930 . S
H77 C60 0.931 . S
H78 C61 0.930 . S
H79 C62 0.930 . S
H80 C69 0.930 . S
H81 C71 0.931 . S
H82 C72 0.930 . S
H83 C73 0.930 . S
Tb84 N115 2.660 . S
Tb84 N122 2.600 . S
Tb84 O128 2.546 . S
Tb84 O129 2.610 . S
Tb84 O131 2.320 . S
Tb84 O132 2.552 . S
Tb84 O133 2.413 . S
Tb84 O135 2.362 . S
Tb84 O136 2.421 . S
Tb84 C148 2.833 . S
C85 C88 1.432 . S
C85 C89 1.414 . S
C85 N92 1.359 . S
C86 C88 1.417 . S
C86 C90 1.432 . S
C86 C98 1.410 . S
C87 C89 1.444 . S
C87 C90 1.317 . S
C87 H110 0.929 . S
C88 C85 1.432 . S
C88 C86 1.417 . S
C88 N96 1.360 . S
C89 C85 1.414 . S
C89 C87 1.444 . S
C89 C94 1.385 . S
C90 C86 1.432 . S
C90 C87 1.317 . S
C90 H102 0.930 . S
C91 C93 1.392 . S
C91 C94 1.370 . S
C91 H103 0.931 . S
N92 C85 1.359 . S
N92 C93 1.327 . S
N92 Tb95 2.600 . S
C93 C91 1.392 . S
C93 N92 1.327 . S
C93 H100 0.930 . S
C94 C89 1.385 . S
C94 C91 1.370 . S
C94 H113 0.930 . S
Tb95 N92 2.600 . S
Tb95 N96 2.660 . S
Tb95 O129 2.362 . S
Tb95 O130 2.421 . S
Tb95 O134 2.546 . S
Tb95 O135 2.610 . S
Tb95 O137 2.320 . S
Tb95 O138 2.552 . S
Tb95 O139 2.413 . S
Tb95 C159 2.833 . S
N96 C88 1.360 . S
N96 Tb95 2.660 . S
N96 C97 1.305 . S
C97 N96 1.305 . S
C97 C99 1.407 . S
C97 H104 0.930 . S
C98 C86 1.410 . S
C98 C99 1.345 . S
C98 H106 0.930 . S
C99 C97 1.407 . S
C99 C98 1.345 . S
C99 H101 0.930 . S
H100 C93 0.930 . S
H101 C99 0.930 . S
H102 C90 0.930 . S
H103 C91 0.931 . S
H104 C97 0.930 . S
H105 C119 0.930 . S
H106 C98 0.930 . S
H107 C125 0.930 . S
H108 C116 0.930 . S
H109 C123 0.931 . S
H110 C87 0.929 . S
H111 C117 0.930 . S
H112 C150 0.930 . S
H113 C94 0.930 . S
H114 C149 0.929 . S
N115 Tb84 2.660 . S
N115 C116 1.305 . S
N115 C120 1.360 . S
C116 H108 0.930 . S
C116 N115 1.305 . S
C116 C119 1.407 . S
C117 H111 0.930 . S
C117 C118 1.410 . S
C117 C119 1.345 . S
C118 C117 1.410 . S
C118 C120 1.417 . S
C118 C150 1.432 . S
C119 H105 0.930 . S
C119 C116 1.407 . S
C119 C117 1.345 . S
C120 N115 1.360 . S
C120 C118 1.417 . S
C120 C124 1.432 . S
H121 C126 0.930 . S
N122 Tb84 2.600 . S
N122 C124 1.359 . S
N122 C125 1.327 . S
C123 H109 0.931 . S
C123 C125 1.392 . S
C123 C126 1.370 . S
C124 C120 1.432 . S
C124 N122 1.359 . S
C124 C127 1.414 . S
C125 H107 0.930 . S
C125 N122 1.327 . S
C125 C123 1.392 . S
C126 H121 0.930 . S
C126 C123 1.370 . S
C126 C127 1.385 . S
C127 C124 1.414 . S
C127 C126 1.385 . S
C127 C149 1.444 . S
O128 Tb84 2.546 . S
O128 C148 1.251 . S
O129 Tb84 2.610 . S
O129 Tb95 2.362 . S
O129 C140 1.283 . S
O130 Tb95 2.421 . S
O130 C147 1.262 . S
O131 Tb84 2.320 . S
O131 C147 1.260 . S
O132 Tb84 2.552 . S
O132 C140 1.243 . S
O133 Tb84 2.413 . S
O133 C148 1.256 . S
O134 Tb95 2.546 . S
O134 C159 1.251 . S
O135 Tb84 2.362 . S
O135 Tb95 2.610 . S
O135 C151 1.283 . S
O136 Tb84 2.421 . S
O136 C158 1.262 . S
O137 Tb95 2.320 . S
O137 C158 1.260 . S
O138 Tb95 2.552 . S
O138 C151 1.243 . S
O139 Tb95 2.413 . S
O139 C159 1.256 . S
C140 O129 1.283 . S
C140 O132 1.243 . S
C141 C143 1.382 . S
C141 C145 1.393 . S
C141 C148 1.500 . S
C142 C143 1.400 . S
C142 C144 1.384 . S
C143 C141 1.382 . S
C143 C142 1.400 . S
C143 H160 0.930 . S
C144 C142 1.384 . S
C144 C146 1.392 . S
C144 H161 0.931 . S
C145 C141 1.393 . S
C145 C146 1.401 . S
C145 H162 0.930 . S
C146 C144 1.392 . S
C146 C145 1.401 . S
C146 H163 0.930 . S
C147 O130 1.262 . S
C147 O131 1.260 . S
C148 Tb84 2.833 . S
C148 O128 1.251 . S
C148 O133 1.256 . S
C148 C141 1.500 . S
C149 H114 0.929 . S
C149 C127 1.444 . S
C149 C150 1.317 . S
C150 H112 0.930 . S
C150 C118 1.432 . S
C150 C149 1.317 . S
C151 O135 1.283 . S
C151 O138 1.243 . S
C152 C153 1.382 . S
C152 C156 1.393 . S
C152 C159 1.500 . S
C153 C152 1.382 . S
C153 C154 1.400 . S
C153 H164 0.930 . S
C154 C153 1.400 . S
C154 C155 1.384 . S
C155 C154 1.384 . S
C155 C157 1.392 . S
C155 H165 0.931 . S
C156 C152 1.393 . S
C156 C157 1.401 . S
C156 H166 0.930 . S
C157 C155 1.392 . S
C157 C156 1.401 . S
C157 H167 0.930 . S
C158 O136 1.262 . S
C158 O137 1.260 . S
C159 Tb95 2.833 . S
C159 O134 1.251 . S
C159 O139 1.256 . S
C159 C152 1.500 . S
H160 C143 0.930 . S
H161 C144 0.931 . S
H162 C145 0.930 . S
H163 C146 0.930 . S
H164 C153 0.930 . S
H165 C155 0.931 . S
H166 C156 0.930 . S
H167 C157 0.930 . S
Tb168 N199 2.660 . S
Tb168 N206 2.600 . S
Tb168 O212 2.546 . S
Tb168 O213 2.610 . S
Tb168 O215 2.320 . S
Tb168 O216 2.552 . S
Tb168 O217 2.413 . S
Tb168 O219 2.362 . S
Tb168 O220 2.421 . S
Tb168 C232 2.833 . S
C169 C172 1.432 . S
C169 C173 1.414 . S
C169 N176 1.359 . S
C170 C172 1.417 . S
C170 C174 1.432 . S
C170 C182 1.410 . S
C171 C173 1.444 . S
C171 C174 1.317 . S
C171 H194 0.929 . S
C172 C169 1.432 . S
C172 C170 1.417 . S
C172 N180 1.360 . S
C173 C169 1.414 . S
C173 C171 1.444 . S
C173 C178 1.385 . S
C174 C170 1.432 . S
C174 C171 1.317 . S
C174 H186 0.930 . S
C175 C177 1.392 . S
C175 C178 1.370 . S
C175 H187 0.931 . S
N176 C169 1.359 . S
N176 C177 1.327 . S
N176 Tb179 2.600 . S
C177 C175 1.392 . S
C177 N176 1.327 . S
C177 H184 0.930 . S
C178 C173 1.385 . S
C178 C175 1.370 . S
C178 H197 0.930 . S
Tb179 N176 2.600 . S
Tb179 N180 2.660 . S
Tb179 O213 2.362 . S
Tb179 O214 2.421 . S
Tb179 O218 2.546 . S
Tb179 O219 2.610 . S
Tb179 O221 2.320 . S
Tb179 O222 2.552 . S
Tb179 O223 2.413 . S
Tb179 C243 2.833 . S
N180 C172 1.360 . S
N180 Tb179 2.660 . S
N180 C181 1.305 . S
C181 N180 1.305 . S
C181 C183 1.407 . S
C181 H188 0.930 . S
C182 C170 1.410 . S
C182 C183 1.345 . S
C182 H190 0.930 . S
C183 C181 1.407 . S
C183 C182 1.345 . S
C183 H185 0.930 . S
H184 C177 0.930 . S
H185 C183 0.930 . S
H186 C174 0.930 . S
H187 C175 0.931 . S
H188 C181 0.930 . S
H189 C203 0.930 . S
H190 C182 0.930 . S
H191 C209 0.930 . S
H192 C200 0.930 . S
H193 C207 0.931 . S
H194 C171 0.929 . S
H195 C201 0.930 . S
H196 C234 0.930 . S
H197 C178 0.930 . S
H198 C233 0.929 . S
N199 Tb168 2.660 . S
N199 C200 1.305 . S
N199 C204 1.360 . S
C200 H192 0.930 . S
C200 N199 1.305 . S
C200 C203 1.407 . S
C201 H195 0.930 . S
C201 C202 1.410 . S
C201 C203 1.345 . S
C202 C201 1.410 . S
C202 C204 1.417 . S
C202 C234 1.432 . S
C203 H189 0.930 . S
C203 C200 1.407 . S
C203 C201 1.345 . S
C204 N199 1.360 . S
C204 C202 1.417 . S
C204 C208 1.432 . S
H205 C210 0.930 . S
N206 Tb168 2.600 . S
N206 C208 1.359 . S
N206 C209 1.327 . S
C207 H193 0.931 . S
C207 C209 1.392 . S
C207 C210 1.370 . S
C208 C204 1.432 . S
C208 N206 1.359 . S
C208 C211 1.414 . S
C209 H191 0.930 . S
C209 N206 1.327 . S
C209 C207 1.392 . S
C210 H205 0.930 . S
C210 C207 1.370 . S
C210 C211 1.385 . S
C211 C208 1.414 . S
C211 C210 1.385 . S
C211 C233 1.444 . S
O212 Tb168 2.546 . S
O212 C232 1.251 . S
O213 Tb168 2.610 . S
O213 Tb179 2.362 . S
O213 C224 1.283 . S
O214 Tb179 2.421 . S
O214 C231 1.262 . S
O215 Tb168 2.320 . S
O215 C231 1.260 . S
O216 Tb168 2.552 . S
O216 C224 1.243 . S
O217 Tb168 2.413 . S
O217 C232 1.256 . S
O218 Tb179 2.546 . S
O218 C243 1.251 . S
O219 Tb168 2.362 . S
O219 Tb179 2.610 . S
O219 C235 1.283 . S
O220 Tb168 2.421 . S
O220 C242 1.262 . S
O221 Tb179 2.320 . S
O221 C242 1.260 . S
O222 Tb179 2.552 . S
O222 C235 1.243 . S
O223 Tb179 2.413 . S
O223 C243 1.256 . S
C224 O213 1.283 . S
C224 O216 1.243 . S
C225 C227 1.382 . S
C225 C229 1.393 . S
C225 C232 1.500 . S
C226 C227 1.400 . S
C226 C228 1.384 . S
C227 C225 1.382 . S
C227 C226 1.400 . S
C227 H244 0.930 . S
C228 C226 1.384 . S
C228 C230 1.392 . S
C228 H245 0.931 . S
C229 C225 1.393 . S
C229 C230 1.401 . S
C229 H246 0.930 . S
C230 C228 1.392 . S
C230 C229 1.401 . S
C230 H247 0.930 . S
C231 O214 1.262 . S
C231 O215 1.260 . S
C232 Tb168 2.833 . S
C232 O212 1.251 . S
C232 O217 1.256 . S
C232 C225 1.500 . S
C233 H198 0.929 . S
C233 C211 1.444 . S
C233 C234 1.317 . S
C234 H196 0.930 . S
C234 C202 1.432 . S
C234 C233 1.317 . S
C235 O219 1.283 . S
C235 O222 1.243 . S
C236 C237 1.382 . S
C236 C240 1.393 . S
C236 C243 1.500 . S
C237 C236 1.382 . S
C237 C238 1.400 . S
C237 H248 0.930 . S
C238 C237 1.400 . S
C238 C239 1.384 . S
C239 C238 1.384 . S
C239 C241 1.392 . S
C239 H249 0.931 . S
C240 C236 1.393 . S
C240 C241 1.401 . S
C240 H250 0.930 . S
C241 C239 1.392 . S
C241 C240 1.401 . S
C241 H251 0.930 . S
C242 O220 1.262 . S
C242 O221 1.260 . S
C243 Tb179 2.833 . S
C243 O218 1.251 . S
C243 O223 1.256 . S
C243 C236 1.500 . S
H244 C227 0.930 . S
H245 C228 0.931 . S
H246 C229 0.930 . S
H247 C230 0.930 . S
H248 C237 0.930 . S
H249 C239 0.931 . S
H250 C240 0.930 . S
H251 C241 0.930 . S
Tb252 N283 2.660 . S
Tb252 N290 2.600 . S
Tb252 O296 2.546 . S
Tb252 O297 2.610 . S
Tb252 O299 2.320 . S
Tb252 O300 2.552 . S
Tb252 O301 2.413 . S
Tb252 O303 2.362 . S
Tb252 O304 2.421 . S
Tb252 C316 2.833 . S
C253 C256 1.432 . S
C253 C257 1.414 . S
C253 N260 1.359 . S
C254 C256 1.417 . S
C254 C258 1.432 . S
C254 C266 1.410 . S
C255 C257 1.444 . S
C255 C258 1.317 . S
C255 H278 0.929 . S
C256 C253 1.432 . S
C256 C254 1.417 . S
C256 N264 1.360 . S
C257 C253 1.414 . S
C257 C255 1.444 . S
C257 C262 1.385 . S
C258 C254 1.432 . S
C258 C255 1.317 . S
C258 H270 0.930 . S
C259 C261 1.392 . S
C259 C262 1.370 . S
C259 H271 0.931 . S
N260 C253 1.359 . S
N260 C261 1.327 . S
N260 Tb263 2.600 . S
C261 C259 1.392 . S
C261 N260 1.327 . S
C261 H268 0.930 . S
C262 C257 1.385 . S
C262 C259 1.370 . S
C262 H281 0.930 . S
Tb263 N260 2.600 . S
Tb263 N264 2.660 . S
Tb263 O297 2.362 . S
Tb263 O298 2.421 . S
Tb263 O302 2.546 . S
Tb263 O303 2.610 . S
Tb263 O305 2.320 . S
Tb263 O306 2.552 . S
Tb263 O307 2.413 . S
Tb263 C327 2.833 . S
N264 C256 1.360 . S
N264 Tb263 2.660 . S
N264 C265 1.305 . S
C265 N264 1.305 . S
C265 C267 1.407 . S
C265 H272 0.930 . S
C266 C254 1.410 . S
C266 C267 1.345 . S
C266 H274 0.930 . S
C267 C265 1.407 . S
C267 C266 1.345 . S
C267 H269 0.930 . S
H268 C261 0.930 . S
H269 C267 0.930 . S
H270 C258 0.930 . S
H271 C259 0.931 . S
H272 C265 0.930 . S
H273 C287 0.930 . S
H274 C266 0.930 . S
H275 C293 0.930 . S
H276 C284 0.930 . S
H277 C291 0.931 . S
H278 C255 0.929 . S
H279 C285 0.930 . S
H280 C318 0.930 . S
H281 C262 0.930 . S
H282 C317 0.929 . S
N283 Tb252 2.660 . S
N283 C284 1.305 . S
N283 C288 1.360 . S
C284 H276 0.930 . S
C284 N283 1.305 . S
C284 C287 1.407 . S
C285 H279 0.930 . S
C285 C286 1.410 . S
C285 C287 1.345 . S
C286 C285 1.410 . S
C286 C288 1.417 . S
C286 C318 1.432 . S
C287 H273 0.930 . S
C287 C284 1.407 . S
C287 C285 1.345 . S
C288 N283 1.360 . S
C288 C286 1.417 . S
C288 C292 1.432 . S
H289 C294 0.930 . S
N290 Tb252 2.600 . S
N290 C292 1.359 . S
N290 C293 1.327 . S
C291 H277 0.931 . S
C291 C293 1.392 . S
C291 C294 1.370 . S
C292 C288 1.432 . S
C292 N290 1.359 . S
C292 C295 1.414 . S
C293 H275 0.930 . S
C293 N290 1.327 . S
C293 C291 1.392 . S
C294 H289 0.930 . S
C294 C291 1.370 . S
C294 C295 1.385 . S
C295 C292 1.414 . S
C295 C294 1.385 . S
C295 C317 1.444 . S
O296 Tb252 2.546 . S
O296 C316 1.251 . S
O297 Tb252 2.610 . S
O297 Tb263 2.362 . S
O297 C308 1.283 . S
O298 Tb263 2.421 . S
O298 C315 1.262 . S
O299 Tb252 2.320 . S
O299 C315 1.260 . S
O300 Tb252 2.552 . S
O300 C308 1.243 . S
O301 Tb252 2.413 . S
O301 C316 1.256 . S
O302 Tb263 2.546 . S
O302 C327 1.251 . S
O303 Tb252 2.362 . S
O303 Tb263 2.610 . S
O303 C319 1.283 . S
O304 Tb252 2.421 . S
O304 C326 1.262 . S
O305 Tb263 2.320 . S
O305 C326 1.260 . S
O306 Tb263 2.552 . S
O306 C319 1.243 . S
O307 Tb263 2.413 . S
O307 C327 1.256 . S
C308 O297 1.283 . S
C308 O300 1.243 . S
C309 C311 1.382 . S
C309 C313 1.393 . S
C309 C316 1.500 . S
C310 C311 1.400 . S
C310 C312 1.384 . S
C311 C309 1.382 . S
C311 C310 1.400 . S
C311 H328 0.930 . S
C312 C310 1.384 . S
C312 C314 1.392 . S
C312 H329 0.931 . S
C313 C309 1.393 . S
C313 C314 1.401 . S
C313 H330 0.930 . S
C314 C312 1.392 . S
C314 C313 1.401 . S
C314 H331 0.930 . S
C315 O298 1.262 . S
C315 O299 1.260 . S
C316 Tb252 2.833 . S
C316 O296 1.251 . S
C316 O301 1.256 . S
C316 C309 1.500 . S
C317 H282 0.929 . S
C317 C295 1.444 . S
C317 C318 1.317 . S
C318 H280 0.930 . S
C318 C286 1.432 . S
C318 C317 1.317 . S
C319 O303 1.283 . S
C319 O306 1.243 . S
C320 C321 1.382 . S
C320 C324 1.393 . S
C320 C327 1.500 . S
C321 C320 1.382 . S
C321 C322 1.400 . S
C321 H332 0.930 . S
C322 C321 1.400 . S
C322 C323 1.384 . S
C323 C322 1.384 . S
C323 C325 1.392 . S
C323 H333 0.931 . S
C324 C320 1.393 . S
C324 C325 1.401 . S
C324 H334 0.930 . S
C325 C323 1.392 . S
C325 C324 1.401 . S
C325 H335 0.930 . S
C326 O304 1.262 . S
C326 O305 1.260 . S
C327 Tb263 2.833 . S
C327 O302 1.251 . S
C327 O307 1.256 . S
C327 C320 1.500 . S
H328 C311 0.930 . S
H329 C312 0.931 . S
H330 C313 0.930 . S
H331 C314 0.930 . S
H332 C321 0.930 . S
H333 C323 0.931 . S
H334 C324 0.930 . S
H335 C325 0.930 . S
Tb336 N367 2.660 . S
Tb336 N374 2.600 . S
Tb336 O380 2.546 . S
Tb336 O381 2.610 . S
Tb336 O383 2.320 . S
Tb336 O384 2.552 . S
Tb336 O385 2.413 . S
Tb336 O387 2.362 . S
Tb336 O388 2.421 . S
Tb336 C400 2.833 . S
C337 C340 1.432 . S
C337 C341 1.414 . S
C337 N344 1.359 . S
C338 C340 1.417 . S
C338 C342 1.432 . S
C338 C350 1.410 . S
C339 C341 1.444 . S
C339 C342 1.317 . S
C339 H362 0.929 . S
C340 C337 1.432 . S
C340 C338 1.417 . S
C340 N348 1.360 . S
C341 C337 1.414 . S
C341 C339 1.444 . S
C341 C346 1.385 . S
C342 C338 1.432 . S
C342 C339 1.317 . S
C342 H354 0.930 . S
C343 C345 1.392 . S
C343 C346 1.370 . S
C343 H355 0.931 . S
N344 C337 1.359 . S
N344 C345 1.327 . S
N344 Tb347 2.600 . S
C345 C343 1.392 . S
C345 N344 1.327 . S
C345 H352 0.930 . S
C346 C341 1.385 . S
C346 C343 1.370 . S
C346 H365 0.930 . S
Tb347 N344 2.600 . S
Tb347 N348 2.660 . S
Tb347 O381 2.362 . S
Tb347 O382 2.421 . S
Tb347 O386 2.546 . S
Tb347 O387 2.610 . S
Tb347 O389 2.320 . S
Tb347 O390 2.552 . S
Tb347 O391 2.413 . S
Tb347 C411 2.833 . S
N348 C340 1.360 . S
N348 Tb347 2.660 . S
N348 C349 1.305 . S
C349 N348 1.305 . S
C349 C351 1.407 . S
C349 H356 0.930 . S
C350 C338 1.410 . S
C350 C351 1.345 . S
C350 H358 0.930 . S
C351 C349 1.407 . S
C351 C350 1.345 . S
C351 H353 0.930 . S
H352 C345 0.930 . S
H353 C351 0.930 . S
H354 C342 0.930 . S
H355 C343 0.931 . S
H356 C349 0.930 . S
H357 C371 0.930 . S
H358 C350 0.930 . S
H359 C377 0.930 . S
H360 C368 0.930 . S
H361 C375 0.931 . S
H362 C339 0.929 . S
H363 C369 0.930 . S
H364 C402 0.930 . S
H365 C346 0.930 . S
H366 C401 0.929 . S
N367 Tb336 2.660 . S
N367 C368 1.305 . S
N367 C372 1.360 . S
C368 H360 0.930 . S
C368 N367 1.305 . S
C368 C371 1.407 . S
C369 H363 0.930 . S
C369 C370 1.410 . S
C369 C371 1.345 . S
C370 C369 1.410 . S
C370 C372 1.417 . S
C370 C402 1.432 . S
C371 H357 0.930 . S
C371 C368 1.407 . S
C371 C369 1.345 . S
C372 N367 1.360 . S
C372 C370 1.417 . S
C372 C376 1.432 . S
H373 C378 0.930 . S
N374 Tb336 2.600 . S
N374 C376 1.359 . S
N374 C377 1.327 . S
C375 H361 0.931 . S
C375 C377 1.392 . S
C375 C378 1.370 . S
C376 C372 1.432 . S
C376 N374 1.359 . S
C376 C379 1.414 . S
C377 H359 0.930 . S
C377 N374 1.327 . S
C377 C375 1.392 . S
C378 H373 0.930 . S
C378 C375 1.370 . S
C378 C379 1.385 . S
C379 C376 1.414 . S
C379 C378 1.385 . S
C379 C401 1.444 . S
O380 Tb336 2.546 . S
O380 C400 1.251 . S
O381 Tb336 2.610 . S
O381 Tb347 2.362 . S
O381 C392 1.283 . S
O382 Tb347 2.421 . S
O382 C399 1.262 . S
O383 Tb336 2.320 . S
O383 C399 1.260 . S
O384 Tb336 2.552 . S
O384 C392 1.243 . S
O385 Tb336 2.413 . S
O385 C400 1.256 . S
O386 Tb347 2.546 . S
O386 C411 1.251 . S
O387 Tb336 2.362 . S
O387 Tb347 2.610 . S
O387 C403 1.283 . S
O388 Tb336 2.421 . S
O388 C410 1.262 . S
O389 Tb347 2.320 . S
O389 C410 1.260 . S
O390 Tb347 2.552 . S
O390 C403 1.243 . S
O391 Tb347 2.413 . S
O391 C411 1.256 . S
C392 O381 1.283 . S
C392 O384 1.243 . S
C393 C395 1.382 . S
C393 C397 1.393 . S
C393 C400 1.500 . S
C394 C395 1.400 . S
C394 C396 1.384 . S
C395 C393 1.382 . S
C395 C394 1.400 . S
C395 H412 0.930 . S
C396 C394 1.384 . S
C396 C398 1.392 . S
C396 H413 0.931 . S
C397 C393 1.393 . S
C397 C398 1.401 . S
C397 H414 0.930 . S
C398 C396 1.392 . S
C398 C397 1.401 . S
C398 H415 0.930 . S
C399 O382 1.262 . S
C399 O383 1.260 . S
C400 Tb336 2.833 . S
C400 O380 1.251 . S
C400 O385 1.256 . S
C400 C393 1.500 . S
C401 H366 0.929 . S
C401 C379 1.444 . S
C401 C402 1.317 . S
C402 H364 0.930 . S
C402 C370 1.432 . S
C402 C401 1.317 . S
C403 O387 1.283 . S
C403 O390 1.243 . S
C404 C405 1.382 . S
C404 C408 1.393 . S
C404 C411 1.500 . S
C405 C404 1.382 . S
C405 C406 1.400 . S
C405 H416 0.930 . S
C406 C405 1.400 . S
C406 C407 1.384 . S
C407 C406 1.384 . S
C407 C409 1.392 . S
C407 H417 0.931 . S
C408 C404 1.393 . S
C408 C409 1.401 . S
C408 H418 0.930 . S
C409 C407 1.392 . S
C409 C408 1.401 . S
C409 H419 0.930 . S
C410 O388 1.262 . S
C410 O389 1.260 . S
C411 Tb347 2.833 . S
C411 O386 1.251 . S
C411 O391 1.256 . S
C411 C404 1.500 . S
H412 C395 0.930 . S
H413 C396 0.931 . S
H414 C397 0.930 . S
H415 C398 0.930 . S
H416 C405 0.930 . S
H417 C407 0.931 . S
H418 C408 0.930 . S
H419 C409 0.930 . S
Tb420 N451 2.660 . S
Tb420 N458 2.600 . S
Tb420 O464 2.546 . S
Tb420 O465 2.610 . S
Tb420 O467 2.320 . S
Tb420 O468 2.552 . S
Tb420 O469 2.413 . S
Tb420 O471 2.362 . S
Tb420 O472 2.421 . S
Tb420 C484 2.833 . S
C421 C424 1.432 . S
C421 C425 1.414 . S
C421 N428 1.359 . S
C422 C424 1.417 . S
C422 C426 1.432 . S
C422 C434 1.410 . S
C423 C425 1.444 . S
C423 C426 1.317 . S
C423 H446 0.929 . S
C424 C421 1.432 . S
C424 C422 1.417 . S
C424 N432 1.360 . S
C425 C421 1.414 . S
C425 C423 1.444 . S
C425 C430 1.385 . S
C426 C422 1.432 . S
C426 C423 1.317 . S
C426 H438 0.930 . S
C427 C429 1.392 . S
C427 C430 1.370 . S
C427 H439 0.931 . S
N428 C421 1.359 . S
N428 C429 1.327 . S
N428 Tb431 2.600 . S
C429 C427 1.392 . S
C429 N428 1.327 . S
C429 H436 0.930 . S
C430 C425 1.385 . S
C430 C427 1.370 . S
C430 H449 0.930 . S
Tb431 N428 2.600 . S
Tb431 N432 2.660 . S
Tb431 O465 2.362 . S
Tb431 O466 2.421 . S
Tb431 O470 2.546 . S
Tb431 O471 2.610 . S
Tb431 O473 2.320 . S
Tb431 O474 2.552 . S
Tb431 O475 2.413 . S
Tb431 C495 2.833 . S
N432 C424 1.360 . S
N432 Tb431 2.660 . S
N432 C433 1.305 . S
C433 N432 1.305 . S
C433 C435 1.407 . S
C433 H440 0.930 . S
C434 C422 1.410 . S
C434 C435 1.345 . S
C434 H442 0.930 . S
C435 C433 1.407 . S
C435 C434 1.345 . S
C435 H437 0.930 . S
H436 C429 0.930 . S
H437 C435 0.930 . S
H438 C426 0.930 . S
H439 C427 0.931 . S
H440 C433 0.930 . S
H441 C455 0.930 . S
H442 C434 0.930 . S
H443 C461 0.930 . S
H444 C452 0.930 . S
H445 C459 0.931 . S
H446 C423 0.929 . S
H447 C453 0.930 . S
H448 C486 0.930 . S
H449 C430 0.930 . S
H450 C485 0.929 . S
N451 Tb420 2.660 . S
N451 C452 1.305 . S
N451 C456 1.360 . S
C452 H444 0.930 . S
C452 N451 1.305 . S
C452 C455 1.407 . S
C453 H447 0.930 . S
C453 C454 1.410 . S
C453 C455 1.345 . S
C454 C453 1.410 . S
C454 C456 1.417 . S
C454 C486 1.432 . S
C455 H441 0.930 . S
C455 C452 1.407 . S
C455 C453 1.345 . S
C456 N451 1.360 . S
C456 C454 1.417 . S
C456 C460 1.432 . S
H457 C462 0.930 . S
N458 Tb420 2.600 . S
N458 C460 1.359 . S
N458 C461 1.327 . S
C459 H445 0.931 . S
C459 C461 1.392 . S
C459 C462 1.370 . S
C460 C456 1.432 . S
C460 N458 1.359 . S
C460 C463 1.414 . S
C461 H443 0.930 . S
C461 N458 1.327 . S
C461 C459 1.392 . S
C462 H457 0.930 . S
C462 C459 1.370 . S
C462 C463 1.385 . S
C463 C460 1.414 . S
C463 C462 1.385 . S
C463 C485 1.444 . S
O464 Tb420 2.546 . S
O464 C484 1.251 . S
O465 Tb420 2.610 . S
O465 Tb431 2.362 . S
O465 C476 1.283 . S
O466 Tb431 2.421 . S
O466 C483 1.262 . S
O467 Tb420 2.320 . S
O467 C483 1.260 . S
O468 Tb420 2.552 . S
O468 C476 1.243 . S
O469 Tb420 2.413 . S
O469 C484 1.256 . S
O470 Tb431 2.546 . S
O470 C495 1.251 . S
O471 Tb420 2.362 . S
O471 Tb431 2.610 . S
O471 C487 1.283 . S
O472 Tb420 2.421 . S
O472 C494 1.262 . S
O473 Tb431 2.320 . S
O473 C494 1.260 . S
O474 Tb431 2.552 . S
O474 C487 1.243 . S
O475 Tb431 2.413 . S
O475 C495 1.256 . S
C476 O465 1.283 . S
C476 O468 1.243 . S
C477 C479 1.382 . S
C477 C481 1.393 . S
C477 C484 1.500 . S
C478 C479 1.400 . S
C478 C480 1.384 . S
C479 C477 1.382 . S
C479 C478 1.400 . S
C479 H496 0.930 . S
C480 C478 1.384 . S
C480 C482 1.392 . S
C480 H497 0.931 . S
C481 C477 1.393 . S
C481 C482 1.401 . S
C481 H498 0.930 . S
C482 C480 1.392 . S
C482 C481 1.401 . S
C482 H499 0.930 . S
C483 O466 1.262 . S
C483 O467 1.260 . S
C484 Tb420 2.833 . S
C484 O464 1.251 . S
C484 O469 1.256 . S
C484 C477 1.500 . S
C485 H450 0.929 . S
C485 C463 1.444 . S
C485 C486 1.317 . S
C486 H448 0.930 . S
C486 C454 1.432 . S
C486 C485 1.317 . S
C487 O471 1.283 . S
C487 O474 1.243 . S
C488 C489 1.382 . S
C488 C492 1.393 . S
C488 C495 1.500 . S
C489 C488 1.382 . S
C489 C490 1.400 . S
C489 H500 0.930 . S
C490 C489 1.400 . S
C490 C491 1.384 . S
C491 C490 1.384 . S
C491 C493 1.392 . S
C491 H501 0.931 . S
C492 C488 1.393 . S
C492 C493 1.401 . S
C492 H502 0.930 . S
C493 C491 1.392 . S
C493 C492 1.401 . S
C493 H503 0.930 . S
C494 O472 1.262 . S
C494 O473 1.260 . S
C495 Tb431 2.833 . S
C495 O470 1.251 . S
C495 O475 1.256 . S
C495 C488 1.500 . S
H496 C479 0.930 . S
H497 C480 0.931 . S
H498 C481 0.930 . S
H499 C482 0.930 . S
H500 C489 0.930 . S
H501 C491 0.931 . S
H502 C492 0.930 . S
H503 C493 0.930 . S
Tb504 N535 2.660 . S
Tb504 N542 2.600 . S
Tb504 O548 2.546 . S
Tb504 O549 2.610 . S
Tb504 O551 2.320 . S
Tb504 O552 2.552 . S
Tb504 O553 2.413 . S
Tb504 O555 2.362 . S
Tb504 O556 2.421 . S
Tb504 C568 2.833 . S
C505 C508 1.432 . S
C505 C509 1.414 . S
C505 N512 1.359 . S
C506 C508 1.417 . S
C506 C510 1.432 . S
C506 C518 1.410 . S
C507 C509 1.444 . S
C507 C510 1.317 . S
C507 H530 0.929 . S
C508 C505 1.432 . S
C508 C506 1.417 . S
C508 N516 1.360 . S
C509 C505 1.414 . S
C509 C507 1.444 . S
C509 C514 1.385 . S
C510 C506 1.432 . S
C510 C507 1.317 . S
C510 H522 0.930 . S
C511 C513 1.392 . S
C511 C514 1.370 . S
C511 H523 0.931 . S
N512 C505 1.359 . S
N512 C513 1.327 . S
N512 Tb515 2.600 . S
C513 C511 1.392 . S
C513 N512 1.327 . S
C513 H520 0.930 . S
C514 C509 1.385 . S
C514 C511 1.370 . S
C514 H533 0.930 . S
Tb515 N512 2.600 . S
Tb515 N516 2.660 . S
Tb515 O549 2.362 . S
Tb515 O550 2.421 . S
Tb515 O554 2.546 . S
Tb515 O555 2.610 . S
Tb515 O557 2.320 . S
Tb515 O558 2.552 . S
Tb515 O559 2.413 . S
Tb515 C579 2.833 . S
N516 C508 1.360 . S
N516 Tb515 2.660 . S
N516 C517 1.305 . S
C517 N516 1.305 . S
C517 C519 1.407 . S
C517 H524 0.930 . S
C518 C506 1.410 . S
C518 C519 1.345 . S
C518 H526 0.930 . S
C519 C517 1.407 . S
C519 C518 1.345 . S
C519 H521 0.930 . S
H520 C513 0.930 . S
H521 C519 0.930 . S
H522 C510 0.930 . S
H523 C511 0.931 . S
H524 C517 0.930 . S
H525 C539 0.930 . S
H526 C518 0.930 . S
H527 C545 0.930 . S
H528 C536 0.930 . S
H529 C543 0.931 . S
H530 C507 0.929 . S
H531 C537 0.930 . S
H532 C570 0.930 . S
H533 C514 0.930 . S
H534 C569 0.929 . S
N535 Tb504 2.660 . S
N535 C536 1.305 . S
N535 C540 1.360 . S
C536 H528 0.930 . S
C536 N535 1.305 . S
C536 C539 1.407 . S
C537 H531 0.930 . S
C537 C538 1.410 . S
C537 C539 1.345 . S
C538 C537 1.410 . S
C538 C540 1.417 . S
C538 C570 1.432 . S
C539 H525 0.930 . S
C539 C536 1.407 . S
C539 C537 1.345 . S
C540 N535 1.360 . S
C540 C538 1.417 . S
C540 C544 1.432 . S
H541 C546 0.930 . S
N542 Tb504 2.600 . S
N542 C544 1.359 . S
N542 C545 1.327 . S
C543 H529 0.931 . S
C543 C545 1.392 . S
C543 C546 1.370 . S
C544 C540 1.432 . S
C544 N542 1.359 . S
C544 C547 1.414 . S
C545 H527 0.930 . S
C545 N542 1.327 . S
C545 C543 1.392 . S
C546 H541 0.930 . S
C546 C543 1.370 . S
C546 C547 1.385 . S
C547 C544 1.414 . S
C547 C546 1.385 . S
C547 C569 1.444 . S
O548 Tb504 2.546 . S
O548 C568 1.251 . S
O549 Tb504 2.610 . S
O549 Tb515 2.362 . S
O549 C560 1.283 . S
O550 Tb515 2.421 . S
O550 C567 1.262 . S
O551 Tb504 2.320 . S
O551 C567 1.260 . S
O552 Tb504 2.552 . S
O552 C560 1.243 . S
O553 Tb504 2.413 . S
O553 C568 1.256 . S
O554 Tb515 2.546 . S
O554 C579 1.251 . S
O555 Tb504 2.362 . S
O555 Tb515 2.610 . S
O555 C571 1.283 . S
O556 Tb504 2.421 . S
O556 C578 1.262 . S
O557 Tb515 2.320 . S
O557 C578 1.260 . S
O558 Tb515 2.552 . S
O558 C571 1.243 . S
O559 Tb515 2.413 . S
O559 C579 1.256 . S
C560 O549 1.283 . S
C560 O552 1.243 . S
C561 C563 1.382 . S
C561 C565 1.393 . S
C561 C568 1.500 . S
C562 C563 1.400 . S
C562 C564 1.384 . S
C563 C561 1.382 . S
C563 C562 1.400 . S
C563 H580 0.930 . S
C564 C562 1.384 . S
C564 C566 1.392 . S
C564 H581 0.931 . S
C565 C561 1.393 . S
C565 C566 1.401 . S
C565 H582 0.930 . S
C566 C564 1.392 . S
C566 C565 1.401 . S
C566 H583 0.930 . S
C567 O550 1.262 . S
C567 O551 1.260 . S
C568 Tb504 2.833 . S
C568 O548 1.251 . S
C568 O553 1.256 . S
C568 C561 1.500 . S
C569 H534 0.929 . S
C569 C547 1.444 . S
C569 C570 1.317 . S
C570 H532 0.930 . S
C570 C538 1.432 . S
C570 C569 1.317 . S
C571 O555 1.283 . S
C571 O558 1.243 . S
C572 C573 1.382 . S
C572 C576 1.393 . S
C572 C579 1.500 . S
C573 C572 1.382 . S
C573 C574 1.400 . S
C573 H584 0.930 . S
C574 C573 1.400 . S
C574 C575 1.384 . S
C575 C574 1.384 . S
C575 C577 1.392 . S
C575 H585 0.931 . S
C576 C572 1.393 . S
C576 C577 1.401 . S
C576 H586 0.930 . S
C577 C575 1.392 . S
C577 C576 1.401 . S
C577 H587 0.930 . S
C578 O556 1.262 . S
C578 O557 1.260 . S
C579 Tb515 2.833 . S
C579 O554 1.251 . S
C579 O559 1.256 . S
C579 C572 1.500 . S
H580 C563 0.930 . S
H581 C564 0.931 . S
H582 C565 0.930 . S
H583 C566 0.930 . S
H584 C573 0.930 . S
H585 C575 0.931 . S
H586 C576 0.930 . S
H587 C577 0.930 . S
Tb588 N619 2.660 . S
Tb588 N626 2.600 . S
Tb588 O632 2.546 . S
Tb588 O633 2.610 . S
Tb588 O635 2.320 . S
Tb588 O636 2.552 . S
Tb588 O637 2.413 . S
Tb588 O639 2.362 . S
Tb588 O640 2.421 . S
Tb588 C652 2.833 . S
C589 C592 1.432 . S
C589 C593 1.414 . S
C589 N596 1.359 . S
C590 C592 1.417 . S
C590 C594 1.432 . S
C590 C602 1.410 . S
C591 C593 1.444 . S
C591 C594 1.317 . S
C591 H614 0.929 . S
C592 C589 1.432 . S
C592 C590 1.417 . S
C592 N600 1.360 . S
C593 C589 1.414 . S
C593 C591 1.444 . S
C593 C598 1.385 . S
C594 C590 1.432 . S
C594 C591 1.317 . S
C594 H606 0.930 . S
C595 C597 1.392 . S
C595 C598 1.370 . S
C595 H607 0.931 . S
N596 C589 1.359 . S
N596 C597 1.327 . S
N596 Tb599 2.600 . S
C597 C595 1.392 . S
C597 N596 1.327 . S
C597 H604 0.930 . S
C598 C593 1.385 . S
C598 C595 1.370 . S
C598 H617 0.930 . S
Tb599 N596 2.600 . S
Tb599 N600 2.660 . S
Tb599 O633 2.362 . S
Tb599 O634 2.421 . S
Tb599 O638 2.546 . S
Tb599 O639 2.610 . S
Tb599 O641 2.320 . S
Tb599 O642 2.552 . S
Tb599 O643 2.413 . S
Tb599 C663 2.833 . S
N600 C592 1.360 . S
N600 Tb599 2.660 . S
N600 C601 1.305 . S
C601 N600 1.305 . S
C601 C603 1.407 . S
C601 H608 0.930 . S
C602 C590 1.410 . S
C602 C603 1.345 . S
C602 H610 0.930 . S
C603 C601 1.407 . S
C603 C602 1.345 . S
C603 H605 0.930 . S
H604 C597 0.930 . S
H605 C603 0.930 . S
H606 C594 0.930 . S
H607 C595 0.931 . S
H608 C601 0.930 . S
H609 C623 0.930 . S
H610 C602 0.930 . S
H611 C629 0.930 . S
H612 C620 0.930 . S
H613 C627 0.931 . S
H614 C591 0.929 . S
H615 C621 0.930 . S
H616 C654 0.930 . S
H617 C598 0.930 . S
H618 C653 0.929 . S
N619 Tb588 2.660 . S
N619 C620 1.305 . S
N619 C624 1.360 . S
C620 H612 0.930 . S
C620 N619 1.305 . S
C620 C623 1.407 . S
C621 H615 0.930 . S
C621 C622 1.410 . S
C621 C623 1.345 . S
C622 C621 1.410 . S
C622 C624 1.417 . S
C622 C654 1.432 . S
C623 H609 0.930 . S
C623 C620 1.407 . S
C623 C621 1.345 . S
C624 N619 1.360 . S
C624 C622 1.417 . S
C624 C628 1.432 . S
H625 C630 0.930 . S
N626 Tb588 2.600 . S
N626 C628 1.359 . S
N626 C629 1.327 . S
C627 H613 0.931 . S
C627 C629 1.392 . S
C627 C630 1.370 . S
C628 C624 1.432 . S
C628 N626 1.359 . S
C628 C631 1.414 . S
C629 H611 0.930 . S
C629 N626 1.327 . S
C629 C627 1.392 . S
C630 H625 0.930 . S
C630 C627 1.370 . S
C630 C631 1.385 . S
C631 C628 1.414 . S
C631 C630 1.385 . S
C631 C653 1.444 . S
O632 Tb588 2.546 . S
O632 C652 1.251 . S
O633 Tb588 2.610 . S
O633 Tb599 2.362 . S
O633 C644 1.283 . S
O634 Tb599 2.421 . S
O634 C651 1.262 . S
O635 Tb588 2.320 . S
O635 C651 1.260 . S
O636 Tb588 2.552 . S
O636 C644 1.243 . S
O637 Tb588 2.413 . S
O637 C652 1.256 . S
O638 Tb599 2.546 . S
O638 C663 1.251 . S
O639 Tb588 2.362 . S
O639 Tb599 2.610 . S
O639 C655 1.283 . S
O640 Tb588 2.421 . S
O640 C662 1.262 . S
O641 Tb599 2.320 . S
O641 C662 1.260 . S
O642 Tb599 2.552 . S
O642 C655 1.243 . S
O643 Tb599 2.413 . S
O643 C663 1.256 . S
C644 O633 1.283 . S
C644 O636 1.243 . S
C645 C647 1.382 . S
C645 C649 1.393 . S
C645 C652 1.500 . S
C646 C647 1.400 . S
C646 C648 1.384 . S
C647 C645 1.382 . S
C647 C646 1.400 . S
C647 H664 0.930 . S
C648 C646 1.384 . S
C648 C650 1.392 . S
C648 H665 0.931 . S
C649 C645 1.393 . S
C649 C650 1.401 . S
C649 H666 0.930 . S
C650 C648 1.392 . S
C650 C649 1.401 . S
C650 H667 0.930 . S
C651 O634 1.262 . S
C651 O635 1.260 . S
C652 Tb588 2.833 . S
C652 O632 1.251 . S
C652 O637 1.256 . S
C652 C645 1.500 . S
C653 H618 0.929 . S
C653 C631 1.444 . S
C653 C654 1.317 . S
C654 H616 0.930 . S
C654 C622 1.432 . S
C654 C653 1.317 . S
C655 O639 1.283 . S
C655 O642 1.243 . S
C656 C657 1.382 . S
C656 C660 1.393 . S
C656 C663 1.500 . S
C657 C656 1.382 . S
C657 C658 1.400 . S
C657 H668 0.930 . S
C658 C657 1.400 . S
C658 C659 1.384 . S
C659 C658 1.384 . S
C659 C661 1.392 . S
C659 H669 0.931 . S
C660 C656 1.393 . S
C660 C661 1.401 . S
C660 H670 0.930 . S
C661 C659 1.392 . S
C661 C660 1.401 . S
C661 H671 0.930 . S
C662 O640 1.262 . S
C662 O641 1.260 . S
C663 Tb599 2.833 . S
C663 O638 1.251 . S
C663 O643 1.256 . S
C663 C656 1.500 . S
H664 C647 0.930 . S
H665 C648 0.931 . S
H666 C649 0.930 . S
H667 C650 0.930 . S
H668 C657 0.930 . S
H669 C659 0.931 . S
H670 C660 0.930 . S
H671 C661 0.930 . S
C672 O684 1.241 . S
C672 O685 1.280 . S
C673 O686 1.277 . S
C673 O687 1.245 . S
C674 O698 1.247 . S
C674 O700 1.289 . S
Mg675 O676 1.926 . S
Mg675 O685 1.984 . S
Mg675 O687 1.988 . S
Mg675 O688 2.061 1_655 S
O676 Mg675 1.926 . S
O676 Mg677 1.986 1_545 S
O676 Mg678 1.920 1_655 S
Mg677 O676 1.986 1_565 S
Mg677 O684 2.042 1_565 S
Mg677 O686 2.041 1_565 S
Mg677 O692 2.038 . S
Mg677 O700 2.238 . S
Mg678 O676 1.920 1_455 S
Mg678 O679 1.914 1_545 S
Mg678 O689 2.109 . S
Mg678 O691 2.075 1_445 S
Mg678 O700 2.103 1_445 S
Mg678 O701 2.082 . S
O679 Mg678 1.914 1_565 S
O679 Mg680 1.926 . S
O679 Mg681 1.986 1_565 S
Mg680 O679 1.926 . S
Mg680 O694 1.984 . S
Mg680 O697 1.988 . S
Mg680 O698 2.061 1_455 S
Mg681 O679 1.986 1_545 S
Mg681 O689 2.238 . S
Mg681 O693 2.042 1_545 S
Mg681 O695 2.041 1_545 S
Mg681 O702 2.038 . S
C682 O688 1.247 . S
C682 O689 1.289 . S
C683 O701 1.245 . S
C683 O702 1.274 . S
O684 C672 1.241 . S
O684 Mg677 2.042 1_545 S
O685 C672 1.280 . S
O685 Mg675 1.984 . S
O686 C673 1.277 . S
O686 Mg677 2.041 1_545 S
O687 C673 1.245 . S
O687 Mg675 1.988 . S
O688 Mg675 2.061 1_455 S
O688 C682 1.247 . S
O689 Mg678 2.109 . S
O689 Mg681 2.238 . S
O689 C682 1.289 . S
C690 O691 1.245 . S
C690 O692 1.274 . S
O691 Mg678 2.075 1_665 S
O691 C690 1.245 . S
O692 Mg677 2.038 . S
O692 C690 1.274 . S
O693 Mg681 2.042 1_565 S
O693 C696 1.241 . S
O694 Mg680 1.984 . S
O694 C696 1.280 . S
O695 Mg681 2.041 1_565 S
O695 C699 1.277 . S
C696 O693 1.241 . S
C696 O694 1.280 . S
O697 Mg680 1.988 . S
O697 C699 1.245 . S
O698 C674 1.247 . S
O698 Mg680 2.061 1_655 S
C699 O695 1.277 . S
C699 O697 1.245 . S
O700 C674 1.289 . S
O700 Mg677 2.238 . S
O700 Mg678 2.103 1_665 S
O701 Mg678 2.082 . S
O701 C683 1.245 . S
O702 Mg681 2.038 . S
O702 C683 1.274 . S
C703 O715 1.241 . S
C703 O716 1.280 . S
C704 O717 1.277 . S
C704 O718 1.245 . S
C705 O729 1.247 . S
C705 O731 1.289 . S
Mg706 O707 1.926 . S
Mg706 O716 1.984 . S
Mg706 O718 1.988 1_554 S
Mg706 O719 2.061 . S
O707 Mg706 1.926 . S
O707 Mg708 1.986 1_544 S
O707 Mg709 1.924 . S
Mg708 O707 1.986 1_566 S
Mg708 O715 2.042 1_566 S
Mg708 O717 2.041 1_565 S
Mg708 O723 2.038 1_556 S
Mg708 O731 2.238 . S
Mg709 O707 1.924 . S
Mg709 O710 1.909 1_544 S
Mg709 O720 2.111 . S
Mg709 O722 2.082 1_545 S
Mg709 O731 2.102 1_544 S
Mg709 O732 2.075 1_554 S
O710 Mg709 1.909 1_566 S
O710 Mg711 1.926 . S
O710 Mg712 1.986 1_566 S
Mg711 O710 1.926 . S
Mg711 O725 1.984 . S
Mg711 O728 1.988 1_556 S
Mg711 O729 2.061 . S
Mg712 O710 1.986 1_544 S
Mg712 O720 2.238 . S
Mg712 O724 2.042 1_544 S
Mg712 O726 2.041 1_545 S
Mg712 O733 2.038 1_554 S
C713 O719 1.247 . S
C713 O720 1.289 . S
C714 O732 1.245 . S
C714 O733 1.274 . S
O715 C703 1.241 . S
O715 Mg708 2.042 1_544 S
O716 C703 1.280 . S
O716 Mg706 1.984 . S
O717 C704 1.277 . S
O717 Mg708 2.041 1_545 S
O718 C704 1.245 . S
O718 Mg706 1.988 1_556 S
O719 Mg706 2.061 . S
O719 C713 1.247 . S
O720 Mg709 2.111 . S
O720 Mg712 2.238 . S
O720 C713 1.289 . S
C721 O722 1.245 . S
C721 O723 1.274 . S
O722 Mg709 2.082 1_565 S
O722 C721 1.245 . S
O723 Mg708 2.038 1_554 S
O723 C721 1.274 . S
O724 Mg712 2.042 1_566 S
O724 C727 1.241 . S
O725 Mg711 1.984 . S
O725 C727 1.280 . S
O726 Mg712 2.041 1_565 S
O726 C730 1.277 . S
C727 O724 1.241 . S
C727 O725 1.280 . S
O728 Mg711 1.988 1_554 S
O728 C730 1.245 . S
O729 C705 1.247 . S
O729 Mg711 2.061 . S
C730 O726 1.277 . S
C730 O728 1.245 . S
O731 C705 1.289 . S
O731 Mg708 2.238 . S
O731 Mg709 2.102 1_566 S
O732 Mg709 2.075 1_556 S
O732 C714 1.245 . S
O733 Mg712 2.038 1_556 S
O733 C714 1.274 . S
C734 O746 1.241 . S
C734 O747 1.280 . S
C735 O748 1.277 . S
C735 O749 1.245 . S
C736 O760 1.247 . S
C736 O762 1.289 . S
Mg737 O738 1.926 . S
Mg737 O747 1.984 . S
Mg737 O749 1.988 1_554 S
Mg737 O750 2.061 1_655 S
O738 Mg737 1.926 . S
O738 Mg739 1.986 1_554 S
O738 Mg740 1.916 1_655 S
Mg739 O738 1.986 1_556 S
Mg739 O746 2.042 1_556 S
Mg739 O748 2.041 . S
Mg739 O754 2.038 1_556 S
Mg739 O762 2.238 . S
Mg740 O738 1.916 1_455 S
Mg740 O741 1.918 1_554 S
Mg740 O751 2.113 . S
Mg740 O753 2.083 1_455 S
Mg740 O762 2.100 1_454 S
Mg740 O763 2.074 1_554 S
O741 Mg740 1.918 1_556 S
O741 Mg742 1.926 . S
O741 Mg743 1.986 1_556 S
Mg742 O741 1.926 . S
Mg742 O756 1.984 . S
Mg742 O759 1.988 1_556 S
Mg742 O760 2.061 1_455 S
Mg743 O741 1.986 1_554 S
Mg743 O751 2.238 . S
Mg743 O755 2.042 1_554 S
Mg743 O757 2.041 . S
Mg743 O764 2.038 1_554 S
C744 O750 1.247 . S
C744 O751 1.289 . S
C745 O763 1.245 . S
C745 O764 1.274 . S
O746 C734 1.241 . S
O746 Mg739 2.042 1_554 S
O747 C734 1.280 . S
O747 Mg737 1.984 . S
O748 C735 1.277 . S
O748 Mg739 2.041 . S
O749 C735 1.245 . S
O749 Mg737 1.988 1_556 S
O750 Mg737 2.061 1_455 S
O750 C744 1.247 . S
O751 Mg740 2.113 . S
O751 Mg743 2.238 . S
O751 C744 1.289 . S
C752 O753 1.245 . S
C752 O754 1.274 . S
O753 Mg740 2.083 1_655 S
O753 C752 1.245 . S
O754 Mg739 2.038 1_554 S
O754 C752 1.274 . S
O755 Mg743 2.042 1_556 S
O755 C758 1.241 . S
O756 Mg742 1.984 . S
O756 C758 1.280 . S
O757 Mg743 2.041 . S
O757 C761 1.277 . S
C758 O755 1.241 . S
C758 O756 1.280 . S
O759 Mg742 1.988 1_554 S
O759 C761 1.245 . S
O760 C736 1.247 . S
O760 Mg742 2.061 1_655 S
C761 O757 1.277 . S
C761 O759 1.245 . S
O762 C736 1.289 . S
O762 Mg739 2.238 . S
O762 Mg740 2.100 1_656 S
O763 Mg740 2.074 1_556 S
O763 C745 1.245 . S
O764 Mg743 2.038 1_556 S
O764 C745 1.274 . S
C765 O777 1.241 . S
C765 O778 1.280 . S
C766 O779 1.277 . S
C766 O780 1.245 . S
C767 O791 1.247 . S
C767 O793 1.289 . S
Mg768 O769 1.926 . S
Mg768 O778 1.984 . S
Mg768 O780 1.988 1_554 S
Mg768 O781 2.061 . S
O769 Mg768 1.926 . S
O769 Mg770 1.986 1_554 S
O769 Mg771 1.919 . S
Mg770 O769 1.986 1_556 S
Mg770 O777 2.042 1_556 S
Mg770 O779 2.041 . S
Mg770 O785 2.038 1_556 S
Mg770 O793 2.238 . S
Mg771 O769 1.919 . S
Mg771 O772 1.914 1_554 S
Mg771 O782 2.110 . S
Mg771 O784 2.084 . S
Mg771 O793 2.103 1_554 S
Mg771 O794 2.073 1_554 S
O772 Mg771 1.914 1_556 S
O772 Mg773 1.926 . S
O772 Mg774 1.986 1_556 S
Mg773 O772 1.926 . S
Mg773 O787 1.984 . S
Mg773 O790 1.988 1_556 S
Mg773 O791 2.061 . S
Mg774 O772 1.986 1_554 S
Mg774 O782 2.238 . S
Mg774 O786 2.042 1_554 S
Mg774 O788 2.041 . S
Mg774 O795 2.038 1_554 S
C775 O781 1.247 . S
C775 O782 1.289 . S
C776 O794 1.245 . S
C776 O795 1.274 . S
O777 C765 1.241 . S
O777 Mg770 2.042 1_554 S
O778 C765 1.280 . S
O778 Mg768 1.984 . S
O779 C766 1.277 . S
O779 Mg770 2.041 . S
O780 C766 1.245 . S
O780 Mg768 1.988 1_556 S
O781 Mg768 2.061 . S
O781 C775 1.247 . S
O782 Mg771 2.110 . S
O782 Mg774 2.238 . S
O782 C775 1.289 . S
C783 O784 1.245 . S
C783 O785 1.274 . S
O784 Mg771 2.084 . S
O784 C783 1.245 . S
O785 Mg770 2.038 1_554 S
O785 C783 1.274 . S
O786 Mg774 2.042 1_556 S
O786 C789 1.241 . S
O787 Mg773 1.984 . S
O787 C789 1.280 . S
O788 Mg774 2.041 . S
O788 C792 1.277 . S
C789 O786 1.241 . S
C789 O787 1.280 . S
O790 Mg773 1.988 1_554 S
O790 C792 1.245 . S
O791 C767 1.247 . S
O791 Mg773 2.061 . S
C792 O788 1.277 . S
C792 O790 1.245 . S
O793 C767 1.289 . S
O793 Mg770 2.238 . S
O793 Mg771 2.103 1_556 S
O794 Mg771 2.073 1_556 S
O794 C776 1.245 . S
O795 Mg774 2.038 1_556 S
O795 C776 1.274 . S
C796 O808 1.241 . S
C796 O809 1.280 . S
C797 O810 1.277 . S
C797 O811 1.245 . S
C798 O822 1.247 . S
C798 O824 1.289 . S
Mg799 O800 1.926 . S
Mg799 O809 1.984 . S
Mg799 O811 1.988 . S
Mg799 O812 2.061 1_655 S
O800 Mg799 1.926 . S
O800 Mg801 1.986 . S
O800 Mg802 1.914 1_655 S
Mg801 O800 1.986 . S
Mg801 O808 2.042 . S
Mg801 O810 2.041 . S
Mg801 O816 2.038 . S
Mg801 O824 2.238 . S
Mg802 O800 1.914 1_455 S
Mg802 O803 1.920 . S
Mg802 O813 2.109 . S
Mg802 O815 2.078 1_455 S
Mg802 O824 2.104 1_455 S
Mg802 O825 2.079 . S
O803 Mg802 1.920 . S
O803 Mg804 1.926 . S
O803 Mg805 1.986 . S
Mg804 O803 1.926 . S
Mg804 O818 1.984 . S
Mg804 O821 1.988 . S
Mg804 O822 2.061 1_455 S
Mg805 O803 1.986 . S
Mg805 O813 2.238 . S
Mg805 O817 2.042 . S
Mg805 O819 2.041 . S
Mg805 O826 2.038 . S
C806 O812 1.247 . S
C806 O813 1.289 . S
C807 O825 1.245 . S
C807 O826 1.274 . S
O808 C796 1.241 . S
O808 Mg801 2.042 . S
O809 C796 1.280 . S
O809 Mg799 1.984 . S
O810 C797 1.277 . S
O810 Mg801 2.041 . S
O811 C797 1.245 . S
O811 Mg799 1.988 . S
O812 Mg799 2.061 1_455 S
O812 C806 1.247 . S
O813 Mg802 2.109 . S
O813 Mg805 2.238 . S
O813 C806 1.289 . S
C814 O815 1.245 . S
C814 O816 1.274 . S
O815 Mg802 2.078 1_655 S
O815 C814 1.245 . S
O816 Mg801 2.038 . S
O816 C814 1.274 . S
O817 Mg805 2.042 . S
O817 C820 1.241 . S
O818 Mg804 1.984 . S
O818 C820 1.280 . S
O819 Mg805 2.041 . S
O819 C823 1.277 . S
C820 O817 1.241 . S
C820 O818 1.280 . S
O821 Mg804 1.988 . S
O821 C823 1.245 . S
O822 C798 1.247 . S
O822 Mg804 2.061 1_655 S
C823 O819 1.277 . S
C823 O821 1.245 . S
O824 C798 1.289 . S
O824 Mg801 2.238 . S
O824 Mg802 2.104 1_655 S
O825 Mg802 2.079 . S
O825 C807 1.245 . S
O826 Mg805 2.038 . S
O826 C807 1.274 . S
C827 O839 1.241 . S
C827 O840 1.280 . S
C828 O841 1.277 . S
C828 O842 1.245 . S
C829 O853 1.247 . S
C829 O855 1.289 . S
Mg830 O831 1.926 . S
Mg830 O840 1.984 . S
Mg830 O842 1.988 . S
Mg830 O843 2.061 . S
O831 Mg830 1.926 . S
O831 Mg832 1.986 1_545 S
O831 Mg833 1.922 . S
Mg832 O831 1.986 1_565 S
Mg832 O839 2.042 1_565 S
Mg832 O841 2.041 1_565 S
Mg832 O847 2.038 . S
Mg832 O855 2.238 . S
Mg833 O831 1.922 . S
Mg833 O834 1.911 1_545 S
Mg833 O844 2.107 . S
Mg833 O846 2.076 1_545 S
Mg833 O855 2.105 1_545 S
Mg833 O856 2.081 . S
O834 Mg833 1.911 1_565 S
O834 Mg835 1.926 . S
O834 Mg836 1.986 1_565 S
Mg835 O834 1.926 . S
Mg835 O849 1.984 . S
Mg835 O852 1.988 . S
Mg835 O853 2.061 . S
Mg836 O834 1.986 1_545 S
Mg836 O844 2.238 . S
Mg836 O848 2.042 1_545 S
Mg836 O850 2.041 1_545 S
Mg836 O857 2.038 . S
C837 O843 1.247 . S
C837 O844 1.289 . S
C838 O856 1.245 . S
C838 O857 1.274 . S
O839 C827 1.241 . S
O839 Mg832 2.042 1_545 S
O840 C827 1.280 . S
O840 Mg830 1.984 . S
O841 C828 1.277 . S
O841 Mg832 2.041 1_545 S
O842 C828 1.245 . S
O842 Mg830 1.988 . S
O843 Mg830 2.061 . S
O843 C837 1.247 . S
O844 Mg833 2.107 . S
O844 Mg836 2.238 . S
O844 C837 1.289 . S
C845 O846 1.245 . S
C845 O847 1.274 . S
O846 Mg833 2.076 1_565 S
O846 C845 1.245 . S
O847 Mg832 2.038 . S
O847 C845 1.274 . S
O848 Mg836 2.042 1_565 S
O848 C851 1.241 . S
O849 Mg835 1.984 . S
O849 C851 1.280 . S
O850 Mg836 2.041 1_565 S
O850 C854 1.277 . S
C851 O848 1.241 . S
C851 O849 1.280 . S
O852 Mg835 1.988 . S
O852 C854 1.245 . S
O853 C829 1.247 . S
O853 Mg835 2.061 . S
C854 O850 1.277 . S
C854 O852 1.245 . S
O855 C829 1.289 . S
O855 Mg832 2.238 . S
O855 Mg833 2.105 1_565 S
O856 Mg833 2.081 . S
O856 C838 1.245 . S
O857 Mg836 2.038 . S
O857 C838 1.274 . S
H858 C864 0.930 . S
H859 C868 0.930 . S
H860 C873 0.929 . S
H861 C871 0.929 . S
H862 C866 0.929 . S
H863 C872 0.929 . S
C864 H858 0.930 . S
C864 C865 1.367 . S
C864 C872 1.378 . S
C865 C864 1.367 . S
C865 C873 1.433 . S
C866 H862 0.929 . S
C866 C868 1.378 . S
C866 C870 1.350 . S
C867 C870 1.463 . S
C867 C872 1.350 . S
C867 N875 1.427 . S
C868 H859 0.930 . S
C868 C866 1.378 . S
C868 C869 1.367 . S
C869 C868 1.367 . S
C869 C871 1.433 . S
C870 C866 1.350 . S
C870 C867 1.463 . S
C870 N874 1.427 . S
C871 H861 0.929 . S
C871 C869 1.433 . S
C871 N874 1.384 . S
C872 H863 0.929 . S
C872 C864 1.378 . S
C872 C867 1.350 . S
C873 H860 0.929 . S
C873 C865 1.433 . S
C873 N875 1.384 . S
N874 C870 1.427 . S
N874 C871 1.384 . S
N875 C867 1.427 . S
N875 C873 1.384 . S
H876 C882 0.930 . S
H877 C886 0.930 . S
H878 C891 0.929 . S
H879 C889 0.929 . S
H880 C884 0.929 . S
H881 C890 0.929 . S
C882 H876 0.930 . S
C882 C883 1.367 . S
C882 C890 1.378 . S
C883 C882 1.367 . S
C883 C891 1.433 . S
C884 H880 0.929 . S
C884 C886 1.378 . S
C884 C888 1.350 . S
C885 C888 1.463 . S
C885 C890 1.350 . S
C885 N893 1.427 . S
C886 H877 0.930 . S
C886 C884 1.378 . S
C886 C887 1.367 . S
C887 C886 1.367 . S
C887 C889 1.433 . S
C888 C884 1.350 . S
C888 C885 1.463 . S
C888 N892 1.427 . S
C889 H879 0.929 . S
C889 C887 1.433 . S
C889 N892 1.384 . S
C890 H881 0.929 . S
C890 C882 1.378 . S
C890 C885 1.350 . S
C891 H878 0.929 . S
C891 C883 1.433 . S
C891 N893 1.384 . S
N892 C888 1.427 . S
N892 C889 1.384 . S
N893 C885 1.427 . S
N893 C891 1.384 . S
H894 C900 0.930 . S
H895 C904 0.930 . S
H896 C909 0.929 . S
H897 C907 0.929 . S
H898 C902 0.929 . S
H899 C908 0.929 . S
C900 H894 0.930 . S
C900 C901 1.367 . S
C900 C908 1.378 . S
C901 C900 1.367 . S
C901 C909 1.433 . S
C902 H898 0.929 . S
C902 C904 1.378 . S
C902 C906 1.350 . S
C903 C906 1.463 . S
C903 C908 1.350 . S
C903 N911 1.427 . S
C904 H895 0.930 . S
C904 C902 1.378 . S
C904 C905 1.367 . S
C905 C904 1.367 . S
C905 C907 1.433 . S
C906 C902 1.350 . S
C906 C903 1.463 . S
C906 N910 1.427 . S
C907 H897 0.929 . S
C907 C905 1.433 . S
C907 N910 1.384 . S
C908 H899 0.929 . S
C908 C900 1.378 . S
C908 C903 1.350 . S
C909 H896 0.929 . S
C909 C901 1.433 . S
C909 N911 1.384 . S
N910 C906 1.427 . S
N910 C907 1.384 . S
N911 C903 1.427 . S
N911 C909 1.384 . S
H912 C918 0.930 . S
H913 C922 0.930 . S
H914 C927 0.929 . S
H915 C925 0.929 . S
H916 C920 0.929 . S
H917 C926 0.929 . S
C918 H912 0.930 . S
C918 C919 1.367 . S
C918 C926 1.378 . S
C919 C918 1.367 . S
C919 C927 1.433 . S
C920 H916 0.929 . S
C920 C922 1.378 . S
C920 C924 1.350 . S
C921 C924 1.463 . S
C921 C926 1.350 . S
C921 N929 1.427 . S
C922 H913 0.930 . S
C922 C920 1.378 . S
C922 C923 1.367 . S
C923 C922 1.367 . S
C923 C925 1.433 . S
C924 C920 1.350 . S
C924 C921 1.463 . S
C924 N928 1.427 . S
C925 H915 0.929 . S
C925 C923 1.433 . S
C925 N928 1.384 . S
C926 H917 0.929 . S
C926 C918 1.378 . S
C926 C921 1.350 . S
C927 H914 0.929 . S
C927 C919 1.433 . S
C927 N929 1.384 . S
N928 C924 1.427 . S
N928 C925 1.384 . S
N929 C921 1.427 . S
N929 C927 1.384 . S
H930 C936 0.930 . S
H931 C940 0.930 . S
H932 C945 0.929 . S
H933 C943 0.929 . S
H934 C938 0.929 . S
H935 C944 0.929 . S
C936 H930 0.930 . S
C936 C937 1.367 . S
C936 C944 1.378 . S
C937 C936 1.367 . S
C937 C945 1.433 . S
C938 H934 0.929 . S
C938 C940 1.378 . S
C938 C942 1.350 . S
C939 C942 1.463 . S
C939 C944 1.350 . S
C939 N947 1.427 . S
C940 H931 0.930 . S
C940 C938 1.378 . S
C940 C941 1.367 . S
C941 C940 1.367 . S
C941 C943 1.433 . S
C942 C938 1.350 . S
C942 C939 1.463 . S
C942 N946 1.427 . S
C943 H933 0.929 . S
C943 C941 1.433 . S
C943 N946 1.384 . S
C944 H935 0.929 . S
C944 C936 1.378 . S
C944 C939 1.350 . S
C945 H932 0.929 . S
C945 C937 1.433 . S
C945 N947 1.384 . S
N946 C942 1.427 . S
N946 C943 1.384 . S
N947 C939 1.427 . S
N947 C945 1.384 . S
H948 C954 0.930 . S
H949 C958 0.930 . S
H950 C963 0.929 . S
H951 C961 0.929 . S
H952 C956 0.929 . S
H953 C962 0.929 . S
C954 H948 0.930 . S
C954 C955 1.367 . S
C954 C962 1.378 . S
C955 C954 1.367 . S
C955 C963 1.433 . S
C956 H952 0.929 . S
C956 C958 1.378 . S
C956 C960 1.350 . S
C957 C960 1.463 . S
C957 C962 1.350 . S
C957 N965 1.427 . S
C958 H949 0.930 . S
C958 C956 1.378 . S
C958 C959 1.367 . S
C959 C958 1.367 . S
C959 C961 1.433 . S
C960 C956 1.350 . S
C960 C957 1.463 . S
C960 N964 1.427 . S
C961 H951 0.929 . S
C961 C959 1.433 . S
C961 N964 1.384 . S
C962 H953 0.929 . S
C962 C954 1.378 . S
C962 C957 1.350 . S
C963 H950 0.929 . S
C963 C955 1.433 . S
C963 N965 1.384 . S
N964 C960 1.427 . S
N964 C961 1.384 . S
N965 C957 1.427 . S
N965 C963 1.384 . S
H966 C972 0.930 . S
H967 C976 0.930 . S
H968 C981 0.929 . S
H969 C979 0.929 . S
H970 C974 0.929 . S
H971 C980 0.929 . S
C972 H966 0.930 . S
C972 C973 1.367 . S
C972 C980 1.378 . S
C973 C972 1.367 . S
C973 C981 1.433 . S
C974 H970 0.929 . S
C974 C976 1.378 . S
C974 C978 1.350 . S
C975 C978 1.463 . S
C975 C980 1.350 . S
C975 N983 1.427 . S
C976 H967 0.930 . S
C976 C974 1.378 . S
C976 C977 1.367 . S
C977 C976 1.367 . S
C977 C979 1.433 . S
C978 C974 1.350 . S
C978 C975 1.463 . S
C978 N982 1.427 . S
C979 H969 0.929 . S
C979 C977 1.433 . S
C979 N982 1.384 . S
C980 H971 0.929 . S
C980 C972 1.378 . S
C980 C975 1.350 . S
C981 H968 0.929 . S
C981 C973 1.433 . S
C981 N983 1.384 . S
N982 C978 1.427 . S
N982 C979 1.384 . S
N983 C975 1.427 . S
N983 C981 1.384 . S
H984 C990 0.930 . S
H985 C994 0.930 . S
H986 C999 0.929 . S
H987 C997 0.929 . S
H988 C992 0.929 . S
H989 C998 0.929 . S
C990 H984 0.930 . S
C990 C991 1.367 . S
C990 C998 1.378 . S
C991 C990 1.367 . S
C991 C999 1.433 . S
C992 H988 0.929 . S
C992 C994 1.378 . S
C992 C996 1.350 . S
C993 C996 1.463 . S
C993 C998 1.350 . S
C993 N1001 1.427 . S
C994 H985 0.930 . S
C994 C992 1.378 . S
C994 C995 1.367 . S
C995 C994 1.367 . S
C995 C997 1.433 . S
C996 C992 1.350 . S
C996 C993 1.463 . S
C996 N1000 1.427 . S
C997 H987 0.929 . S
C997 C995 1.433 . S
C997 N1000 1.384 . S
C998 H989 0.929 . S
C998 C990 1.378 . S
C998 C993 1.350 . S
C999 H986 0.929 . S
C999 C991 1.433 . S
C999 N1001 1.384 . S
N1000 C996 1.427 . S
N1000 C997 1.384 . S
N1001 C993 1.427 . S
N1001 C999 1.384 . S
H1002 C1008 0.930 . S
H1003 C1012 0.930 . S
H1004 C1017 0.929 . S
H1005 C1015 0.929 . S
H1006 C1010 0.929 . S
H1007 C1016 0.929 . S
C1008 H1002 0.930 . S
C1008 C1009 1.367 . S
C1008 C1016 1.378 . S
C1009 C1008 1.367 . S
C1009 C1017 1.433 . S
C1010 H1006 0.929 . S
C1010 C1012 1.378 . S
C1010 C1014 1.350 . S
C1011 C1014 1.463 . S
C1011 C1016 1.350 . S
C1011 N1019 1.427 . S
C1012 H1003 0.930 . S
C1012 C1010 1.378 . S
C1012 C1013 1.367 . S
C1013 C1012 1.367 . S
C1013 C1015 1.433 . S
C1014 C1010 1.350 . S
C1014 C1011 1.463 . S
C1014 N1018 1.427 . S
C1015 H1005 0.929 . S
C1015 C1013 1.433 . S
C1015 N1018 1.384 . S
C1016 H1007 0.929 . S
C1016 C1008 1.378 . S
C1016 C1011 1.350 . S
C1017 H1004 0.929 . S
C1017 C1009 1.433 . S
C1017 N1019 1.384 . S
N1018 C1014 1.427 . S
N1018 C1015 1.384 . S
N1019 C1011 1.427 . S
N1019 C1017 1.384 . S
H1020 C1026 0.930 . S
H1021 C1030 0.930 . S
H1022 C1035 0.929 . S
H1023 C1033 0.929 . S
H1024 C1028 0.929 . S
H1025 C1034 0.929 . S
C1026 H1020 0.930 . S
C1026 C1027 1.367 . S
C1026 C1034 1.378 . S
C1027 C1026 1.367 . S
C1027 C1035 1.433 . S
C1028 H1024 0.929 . S
C1028 C1030 1.378 . S
C1028 C1032 1.350 . S
C1029 C1032 1.463 . S
C1029 C1034 1.350 . S
C1029 N1037 1.427 . S
C1030 H1021 0.930 . S
C1030 C1028 1.378 . S
C1030 C1031 1.367 . S
C1031 C1030 1.367 . S
C1031 C1033 1.433 . S
C1032 C1028 1.350 . S
C1032 C1029 1.463 . S
C1032 N1036 1.427 . S
C1033 H1023 0.929 . S
C1033 C1031 1.433 . S
C1033 N1036 1.384 . S
C1034 H1025 0.929 . S
C1034 C1026 1.378 . S
C1034 C1029 1.350 . S
C1035 H1022 0.929 . S
C1035 C1027 1.433 . S
C1035 N1037 1.384 . S
N1036 C1032 1.427 . S
N1036 C1033 1.384 . S
N1037 C1029 1.427 . S
N1037 C1035 1.384 . S
H1038 C1044 0.930 . S
H1039 C1048 0.930 . S
H1040 C1053 0.929 . S
H1041 C1051 0.929 . S
H1042 C1046 0.929 . S
H1043 C1052 0.929 . S
C1044 H1038 0.930 . S
C1044 C1045 1.367 . S
C1044 C1052 1.378 . S
C1045 C1044 1.367 . S
C1045 C1053 1.433 . S
C1046 H1042 0.929 . S
C1046 C1048 1.378 . S
C1046 C1050 1.350 . S
C1047 C1050 1.463 . S
C1047 C1052 1.350 . S
C1047 N1055 1.427 . S
C1048 H1039 0.930 . S
C1048 C1046 1.378 . S
C1048 C1049 1.367 . S
C1049 C1048 1.367 . S
C1049 C1051 1.433 . S
C1050 C1046 1.350 . S
C1050 C1047 1.463 . S
C1050 N1054 1.427 . S
C1051 H1041 0.929 . S
C1051 C1049 1.433 . S
C1051 N1054 1.384 . S
C1052 H1043 0.929 . S
C1052 C1044 1.378 . S
C1052 C1047 1.350 . S
C1053 H1040 0.929 . S
C1053 C1045 1.433 . S
C1053 N1055 1.384 . S
N1054 C1050 1.427 . S
N1054 C1051 1.384 . S
N1055 C1047 1.427 . S
N1055 C1053 1.384 . S
H1056 C1062 0.930 . S
H1057 C1066 0.930 . S
H1058 C1071 0.929 . S
H1059 C1069 0.929 . S
H1060 C1064 0.929 . S
H1061 C1070 0.929 . S
C1062 H1056 0.930 . S
C1062 C1063 1.367 . S
C1062 C1070 1.378 . S
C1063 C1062 1.367 . S
C1063 C1071 1.433 . S
C1064 H1060 0.929 . S
C1064 C1066 1.378 . S
C1064 C1068 1.350 . S
C1065 C1068 1.463 . S
C1065 C1070 1.350 . S
C1065 N1073 1.427 . S
C1066 H1057 0.930 . S
C1066 C1064 1.378 . S
C1066 C1067 1.367 . S
C1067 C1066 1.367 . S
C1067 C1069 1.433 . S
C1068 C1064 1.350 . S
C1068 C1065 1.463 . S
C1068 N1072 1.427 . S
C1069 H1059 0.929 . S
C1069 C1067 1.433 . S
C1069 N1072 1.384 . S
C1070 H1061 0.929 . S
C1070 C1062 1.378 . S
C1070 C1065 1.350 . S
C1071 H1058 0.929 . S
C1071 C1063 1.433 . S
C1071 N1073 1.384 . S
N1072 C1068 1.427 . S
N1072 C1069 1.384 . S
N1073 C1065 1.427 . S
N1073 C1071 1.384 . S
H1074 C1080 0.930 . S
H1075 C1084 0.930 . S
H1076 C1089 0.929 . S
H1077 C1087 0.929 . S
H1078 C1082 0.929 . S
H1079 C1088 0.929 . S
C1080 H1074 0.930 . S
C1080 C1081 1.367 . S
C1080 C1088 1.378 . S
C1081 C1080 1.367 . S
C1081 C1089 1.433 . S
C1082 H1078 0.929 . S
C1082 C1084 1.378 . S
C1082 C1086 1.350 . S
C1083 C1086 1.463 . S
C1083 C1088 1.350 . S
C1083 N1091 1.427 . S
C1084 H1075 0.930 . S
C1084 C1082 1.378 . S
C1084 C1085 1.367 . S
C1085 C1084 1.367 . S
C1085 C1087 1.433 . S
C1086 C1082 1.350 . S
C1086 C1083 1.463 . S
C1086 N1090 1.427 . S
C1087 H1077 0.929 . S
C1087 C1085 1.433 . S
C1087 N1090 1.384 . S
C1088 H1079 0.929 . S
C1088 C1080 1.378 . S
C1088 C1083 1.350 . S
C1089 H1076 0.929 . S
C1089 C1081 1.433 . S
C1089 N1091 1.384 . S
N1090 C1086 1.427 . S
N1090 C1087 1.384 . S
N1091 C1083 1.427 . S
N1091 C1089 1.384 . S
H1092 C1098 0.930 . S
H1093 C1102 0.930 . S
H1094 C1107 0.929 . S
H1095 C1105 0.929 . S
H1096 C1100 0.929 . S
H1097 C1106 0.929 . S
C1098 H1092 0.930 . S
C1098 C1099 1.367 . S
C1098 C1106 1.378 . S
C1099 C1098 1.367 . S
C1099 C1107 1.433 . S
C1100 H1096 0.929 . S
C1100 C1102 1.378 . S
C1100 C1104 1.350 . S
C1101 C1104 1.463 . S
C1101 C1106 1.350 . S
C1101 N1109 1.427 . S
C1102 H1093 0.930 . S
C1102 C1100 1.378 . S
C1102 C1103 1.367 . S
C1103 C1102 1.367 . S
C1103 C1105 1.433 . S
C1104 C1100 1.350 . S
C1104 C1101 1.463 . S
C1104 N1108 1.427 . S
C1105 H1095 0.929 . S
C1105 C1103 1.433 . S
C1105 N1108 1.384 . S
C1106 H1097 0.929 . S
C1106 C1098 1.378 . S
C1106 C1101 1.350 . S
C1107 H1094 0.929 . S
C1107 C1099 1.433 . S
C1107 N1109 1.384 . S
N1108 C1104 1.427 . S
N1108 C1105 1.384 . S
N1109 C1101 1.427 . S
N1109 C1107 1.384 . S
H1110 C1116 0.930 . S
H1111 C1120 0.930 . S
H1112 C1125 0.929 . S
H1113 C1123 0.929 . S
H1114 C1118 0.929 . S
H1115 C1124 0.929 . S
C1116 H1110 0.930 . S
C1116 C1117 1.367 . S
C1116 C1124 1.378 . S
C1117 C1116 1.367 . S
C1117 C1125 1.433 . S
C1118 H1114 0.929 . S
C1118 C1120 1.378 . S
C1118 C1122 1.350 . S
C1119 C1122 1.463 . S
C1119 C1124 1.350 . S
C1119 N1127 1.427 . S
C1120 H1111 0.930 . S
C1120 C1118 1.378 . S
C1120 C1121 1.367 . S
C1121 C1120 1.367 . S
C1121 C1123 1.433 . S
C1122 C1118 1.350 . S
C1122 C1119 1.463 . S
C1122 N1126 1.427 . S
C1123 H1113 0.929 . S
C1123 C1121 1.433 . S
C1123 N1126 1.384 . S
C1124 H1115 0.929 . S
C1124 C1116 1.378 . S
C1124 C1119 1.350 . S
C1125 H1112 0.929 . S
C1125 C1117 1.433 . S
C1125 N1127 1.384 . S
N1126 C1122 1.427 . S
N1126 C1123 1.384 . S
N1127 C1119 1.427 . S
N1127 C1125 1.384 . S
H1128 C1134 0.930 . S
H1129 C1138 0.930 . S
H1130 C1143 0.929 . S
H1131 C1141 0.929 . S
H1132 C1136 0.929 . S
H1133 C1142 0.929 . S
C1134 H1128 0.930 . S
C1134 C1135 1.367 . S
C1134 C1142 1.378 . S
C1135 C1134 1.367 . S
C1135 C1143 1.433 . S
C1136 H1132 0.929 . S
C1136 C1138 1.378 . S
C1136 C1140 1.350 . S
C1137 C1140 1.463 . S
C1137 C1142 1.350 . S
C1137 N1145 1.427 . S
C1138 H1129 0.930 . S
C1138 C1136 1.378 . S
C1138 C1139 1.367 . S
C1139 C1138 1.367 . S
C1139 C1141 1.433 . S
C1140 C1136 1.350 . S
C1140 C1137 1.463 . S
C1140 N1144 1.427 . S
C1141 H1131 0.929 . S
C1141 C1139 1.433 . S
C1141 N1144 1.384 . S
C1142 H1133 0.929 . S
C1142 C1134 1.378 . S
C1142 C1137 1.350 . S
C1143 H1130 0.929 . S
C1143 C1135 1.433 . S
C1143 N1145 1.384 . S
N1144 C1140 1.427 . S
N1144 C1141 1.384 . S
N1145 C1137 1.427 . S
N1145 C1143 1.384 . S
H1146 C1152 0.930 . S
H1147 C1156 0.930 . S
H1148 C1161 0.929 . S
H1149 C1159 0.929 . S
H1150 C1154 0.929 . S
H1151 C1160 0.929 . S
C1152 H1146 0.930 . S
C1152 C1153 1.367 . S
C1152 C1160 1.378 . S
C1153 C1152 1.367 . S
C1153 C1161 1.433 . S
C1154 H1150 0.929 . S
C1154 C1156 1.378 . S
C1154 C1158 1.350 . S
C1155 C1158 1.463 . S
C1155 C1160 1.350 . S
C1155 N1163 1.427 . S
C1156 H1147 0.930 . S
C1156 C1154 1.378 . S
C1156 C1157 1.367 . S
C1157 C1156 1.367 . S
C1157 C1159 1.433 . S
C1158 C1154 1.350 . S
C1158 C1155 1.463 . S
C1158 N1162 1.427 . S
C1159 H1149 0.929 . S
C1159 C1157 1.433 . S
C1159 N1162 1.384 . S
C1160 H1151 0.929 . S
C1160 C1152 1.378 . S
C1160 C1155 1.350 . S
C1161 H1148 0.929 . S
C1161 C1153 1.433 . S
C1161 N1163 1.384 . S
N1162 C1158 1.427 . S
N1162 C1159 1.384 . S
N1163 C1155 1.427 . S
N1163 C1161 1.384 . S
H1164 C1170 0.930 . S
H1165 C1174 0.930 . S
H1166 C1179 0.929 . S
H1167 C1177 0.929 . S
H1168 C1172 0.929 . S
H1169 C1178 0.929 . S
C1170 H1164 0.930 . S
C1170 C1171 1.367 . S
C1170 C1178 1.378 . S
C1171 C1170 1.367 . S
C1171 C1179 1.433 . S
C1172 H1168 0.929 . S
C1172 C1174 1.378 . S
C1172 C1176 1.350 . S
C1173 C1176 1.463 . S
C1173 C1178 1.350 . S
C1173 N1181 1.427 . S
C1174 H1165 0.930 . S
C1174 C1172 1.378 . S
C1174 C1175 1.367 . S
C1175 C1174 1.367 . S
C1175 C1177 1.433 . S
C1176 C1172 1.350 . S
C1176 C1173 1.463 . S
C1176 N1180 1.427 . S
C1177 H1167 0.929 . S
C1177 C1175 1.433 . S
C1177 N1180 1.384 . S
C1178 H1169 0.929 . S
C1178 C1170 1.378 . S
C1178 C1173 1.350 . S
C1179 H1166 0.929 . S
C1179 C1171 1.433 . S
C1179 N1181 1.384 . S
N1180 C1176 1.427 . S
N1180 C1177 1.384 . S
N1181 C1173 1.427 . S
N1181 C1179 1.384 . S
H1182 C1188 0.930 . S
H1183 C1192 0.930 . S
H1184 C1197 0.929 . S
H1185 C1195 0.929 . S
H1186 C1190 0.929 . S
H1187 C1196 0.929 . S
C1188 H1182 0.930 . S
C1188 C1189 1.367 . S
C1188 C1196 1.378 . S
C1189 C1188 1.367 . S
C1189 C1197 1.433 . S
C1190 H1186 0.929 . S
C1190 C1192 1.378 . S
C1190 C1194 1.350 . S
C1191 C1194 1.463 . S
C1191 C1196 1.350 . S
C1191 N1199 1.427 . S
C1192 H1183 0.930 . S
C1192 C1190 1.378 . S
C1192 C1193 1.367 . S
C1193 C1192 1.367 . S
C1193 C1195 1.433 . S
C1194 C1190 1.350 . S
C1194 C1191 1.463 . S
C1194 N1198 1.427 . S
C1195 H1185 0.929 . S
C1195 C1193 1.433 . S
C1195 N1198 1.384 . S
C1196 H1187 0.929 . S
C1196 C1188 1.378 . S
C1196 C1191 1.350 . S
C1197 H1184 0.929 . S
C1197 C1189 1.433 . S
C1197 N1199 1.384 . S
N1198 C1194 1.427 . S
N1198 C1195 1.384 . S
N1199 C1191 1.427 . S
N1199 C1197 1.384 . S
H1200 C1206 0.930 . S
H1201 C1210 0.930 . S
H1202 C1215 0.929 . S
H1203 C1213 0.929 . S
H1204 C1208 0.929 . S
H1205 C1214 0.929 . S
C1206 H1200 0.930 . S
C1206 C1207 1.367 . S
C1206 C1214 1.378 . S
C1207 C1206 1.367 . S
C1207 C1215 1.433 . S
C1208 H1204 0.929 . S
C1208 C1210 1.378 . S
C1208 C1212 1.350 . S
C1209 C1212 1.463 . S
C1209 C1214 1.350 . S
C1209 N1217 1.427 . S
C1210 H1201 0.930 . S
C1210 C1208 1.378 . S
C1210 C1211 1.367 . S
C1211 C1210 1.367 . S
C1211 C1213 1.433 . S
C1212 C1208 1.350 . S
C1212 C1209 1.463 . S
C1212 N1216 1.427 . S
C1213 H1203 0.929 . S
C1213 C1211 1.433 . S
C1213 N1216 1.384 . S
C1214 H1205 0.929 . S
C1214 C1206 1.378 . S
C1214 C1209 1.350 . S
C1215 H1202 0.929 . S
C1215 C1207 1.433 . S
C1215 N1217 1.384 . S
N1216 C1212 1.427 . S
N1216 C1213 1.384 . S
N1217 C1209 1.427 . S
N1217 C1215 1.384 . S
H1218 C1224 0.930 . S
H1219 C1228 0.930 . S
H1220 C1233 0.929 . S
H1221 C1231 0.929 . S
H1222 C1226 0.929 . S
H1223 C1232 0.929 . S
C1224 H1218 0.930 . S
C1224 C1225 1.367 . S
C1224 C1232 1.378 . S
C1225 C1224 1.367 . S
C1225 C1233 1.433 . S
C1226 H1222 0.929 . S
C1226 C1228 1.378 . S
C1226 C1230 1.350 . S
C1227 C1230 1.463 . S
C1227 C1232 1.350 . S
C1227 N1235 1.427 . S
C1228 H1219 0.930 . S
C1228 C1226 1.378 . S
C1228 C1229 1.367 . S
C1229 C1228 1.367 . S
C1229 C1231 1.433 . S
C1230 C1226 1.350 . S
C1230 C1227 1.463 . S
C1230 N1234 1.427 . S
C1231 H1221 0.929 . S
C1231 C1229 1.433 . S
C1231 N1234 1.384 . S
C1232 H1223 0.929 . S
C1232 C1224 1.378 . S
C1232 C1227 1.350 . S
C1233 H1220 0.929 . S
C1233 C1225 1.433 . S
C1233 N1235 1.384 . S
N1234 C1230 1.427 . S
N1234 C1231 1.384 . S
N1235 C1227 1.427 . S
N1235 C1233 1.384 . S
H1236 C1242 0.930 . S
H1237 C1246 0.930 . S
H1238 C1251 0.929 . S
H1239 C1249 0.929 . S
H1240 C1244 0.929 . S
H1241 C1250 0.929 . S
C1242 H1236 0.930 . S
C1242 C1243 1.367 . S
C1242 C1250 1.378 . S
C1243 C1242 1.367 . S
C1243 C1251 1.433 . S
C1244 H1240 0.929 . S
C1244 C1246 1.378 . S
C1244 C1248 1.350 . S
C1245 C1248 1.463 . S
C1245 C1250 1.350 . S
C1245 N1253 1.427 . S
C1246 H1237 0.930 . S
C1246 C1244 1.378 . S
C1246 C1247 1.367 . S
C1247 C1246 1.367 . S
C1247 C1249 1.433 . S
C1248 C1244 1.350 . S
C1248 C1245 1.463 . S
C1248 N1252 1.427 . S
C1249 H1239 0.929 . S
C1249 C1247 1.433 . S
C1249 N1252 1.384 . S
C1250 H1241 0.929 . S
C1250 C1242 1.378 . S
C1250 C1245 1.350 . S
C1251 H1238 0.929 . S
C1251 C1243 1.433 . S
C1251 N1253 1.384 . S
N1252 C1248 1.427 . S
N1252 C1249 1.384 . S
N1253 C1245 1.427 . S
N1253 C1251 1.384 . S
H1254 C1260 0.930 . S
H1255 C1264 0.930 . S
H1256 C1269 0.929 . S
H1257 C1267 0.929 . S
H1258 C1262 0.929 . S
H1259 C1268 0.929 . S
C1260 H1254 0.930 . S
C1260 C1261 1.367 . S
C1260 C1268 1.378 . S
C1261 C1260 1.367 . S
C1261 C1269 1.433 . S
C1262 H1258 0.929 . S
C1262 C1264 1.378 . S
C1262 C1266 1.350 . S
C1263 C1266 1.463 . S
C1263 C1268 1.350 . S
C1263 N1271 1.427 . S
C1264 H1255 0.930 . S
C1264 C1262 1.378 . S
C1264 C1265 1.367 . S
C1265 C1264 1.367 . S
C1265 C1267 1.433 . S
C1266 C1262 1.350 . S
C1266 C1263 1.463 . S
C1266 N1270 1.427 . S
C1267 H1257 0.929 . S
C1267 C1265 1.433 . S
C1267 N1270 1.384 . S
C1268 H1259 0.929 . S
C1268 C1260 1.378 . S
C1268 C1263 1.350 . S
C1269 H1256 0.929 . S
C1269 C1261 1.433 . S
C1269 N1271 1.384 . S
N1270 C1266 1.427 . S
N1270 C1267 1.384 . S
N1271 C1263 1.427 . S
N1271 C1269 1.384 . S
H1272 C1278 0.930 . S
H1273 C1282 0.930 . S
H1274 C1287 0.929 . S
H1275 C1285 0.929 . S
H1276 C1280 0.929 . S
H1277 C1286 0.929 . S
C1278 H1272 0.930 . S
C1278 C1279 1.367 . S
C1278 C1286 1.378 . S
C1279 C1278 1.367 . S
C1279 C1287 1.433 . S
C1280 H1276 0.929 . S
C1280 C1282 1.378 . S
C1280 C1284 1.350 . S
C1281 C1284 1.463 . S
C1281 C1286 1.350 . S
C1281 N1289 1.427 . S
C1282 H1273 0.930 . S
C1282 C1280 1.378 . S
C1282 C1283 1.367 . S
C1283 C1282 1.367 . S
C1283 C1285 1.433 . S
C1284 C1280 1.350 . S
C1284 C1281 1.463 . S
C1284 N1288 1.427 . S
C1285 H1275 0.929 . S
C1285 C1283 1.433 . S
C1285 N1288 1.384 . S
C1286 H1277 0.929 . S
C1286 C1278 1.378 . S
C1286 C1281 1.350 . S
C1287 H1274 0.929 . S
C1287 C1279 1.433 . S
C1287 N1289 1.384 . S
N1288 C1284 1.427 . S
N1288 C1285 1.384 . S
N1289 C1281 1.427 . S
N1289 C1287 1.384 . S
H1290 C1296 0.930 . S
H1291 C1300 0.930 . S
H1292 C1305 0.929 . S
H1293 C1303 0.929 . S
H1294 C1298 0.929 . S
H1295 C1304 0.929 . S
C1296 H1290 0.930 . S
C1296 C1297 1.367 . S
C1296 C1304 1.378 . S
C1297 C1296 1.367 . S
C1297 C1305 1.433 . S
C1298 H1294 0.929 . S
C1298 C1300 1.378 . S
C1298 C1302 1.350 . S
C1299 C1302 1.463 . S
C1299 C1304 1.350 . S
C1299 N1307 1.427 . S
C1300 H1291 0.930 . S
C1300 C1298 1.378 . S
C1300 C1301 1.367 . S
C1301 C1300 1.367 . S
C1301 C1303 1.433 . S
C1302 C1298 1.350 . S
C1302 C1299 1.463 . S
C1302 N1306 1.427 . S
C1303 H1293 0.929 . S
C1303 C1301 1.433 . S
C1303 N1306 1.384 . S
C1304 H1295 0.929 . S
C1304 C1296 1.378 . S
C1304 C1299 1.350 . S
C1305 H1292 0.929 . S
C1305 C1297 1.433 . S
C1305 N1307 1.384 . S
N1306 C1302 1.427 . S
N1306 C1303 1.384 . S
N1307 C1299 1.427 . S
N1307 C1305 1.384 . S
H1308 C1314 0.930 . S
H1309 C1318 0.930 . S
H1310 C1323 0.929 . S
H1311 C1321 0.929 . S
H1312 C1316 0.929 . S
H1313 C1322 0.929 . S
C1314 H1308 0.930 . S
C1314 C1315 1.367 . S
C1314 C1322 1.378 . S
C1315 C1314 1.367 . S
C1315 C1323 1.433 . S
C1316 H1312 0.929 . S
C1316 C1318 1.378 . S
C1316 C1320 1.350 . S
C1317 C1320 1.463 . S
C1317 C1322 1.350 . S
C1317 N1325 1.427 . S
C1318 H1309 0.930 . S
C1318 C1316 1.378 . S
C1318 C1319 1.367 . S
C1319 C1318 1.367 . S
C1319 C1321 1.433 . S
C1320 C1316 1.350 . S
C1320 C1317 1.463 . S
C1320 N1324 1.427 . S
C1321 H1311 0.929 . S
C1321 C1319 1.433 . S
C1321 N1324 1.384 . S
C1322 H1313 0.929 . S
C1322 C1314 1.378 . S
C1322 C1317 1.350 . S
C1323 H1310 0.929 . S
C1323 C1315 1.433 . S
C1323 N1325 1.384 . S
N1324 C1320 1.427 . S
N1324 C1321 1.384 . S
N1325 C1317 1.427 . S
N1325 C1323 1.384 . S
H1326 C1332 0.930 . S
H1327 C1336 0.930 . S
H1328 C1341 0.929 . S
H1329 C1339 0.929 . S
H1330 C1334 0.929 . S
H1331 C1340 0.929 . S
C1332 H1326 0.930 . S
C1332 C1333 1.367 . S
C1332 C1340 1.378 . S
C1333 C1332 1.367 . S
C1333 C1341 1.433 . S
C1334 H1330 0.929 . S
C1334 C1336 1.378 . S
C1334 C1338 1.350 . S
C1335 C1338 1.463 . S
C1335 C1340 1.350 . S
C1335 N1343 1.427 . S
C1336 H1327 0.930 . S
C1336 C1334 1.378 . S
C1336 C1337 1.367 . S
C1337 C1336 1.367 . S
C1337 C1339 1.433 . S
C1338 C1334 1.350 . S
C1338 C1335 1.463 . S
C1338 N1342 1.427 . S
C1339 H1329 0.929 . S
C1339 C1337 1.433 . S
C1339 N1342 1.384 . S
C1340 H1331 0.929 . S
C1340 C1332 1.378 . S
C1340 C1335 1.350 . S
C1341 H1328 0.929 . S
C1341 C1333 1.433 . S
C1341 N1343 1.384 . S
N1342 C1338 1.427 . S
N1342 C1339 1.384 . S
N1343 C1335 1.427 . S
N1343 C1341 1.384 . S
H1344 C1350 0.930 . S
H1345 C1354 0.930 . S
H1346 C1359 0.929 . S
H1347 C1357 0.929 . S
H1348 C1352 0.929 . S
H1349 C1358 0.929 . S
C1350 H1344 0.930 . S
C1350 C1351 1.367 . S
C1350 C1358 1.378 . S
C1351 C1350 1.367 . S
C1351 C1359 1.433 . S
C1352 H1348 0.929 . S
C1352 C1354 1.378 . S
C1352 C1356 1.350 . S
C1353 C1356 1.463 . S
C1353 C1358 1.350 . S
C1353 N1361 1.427 . S
C1354 H1345 0.930 . S
C1354 C1352 1.378 . S
C1354 C1355 1.367 . S
C1355 C1354 1.367 . S
C1355 C1357 1.433 . S
C1356 C1352 1.350 . S
C1356 C1353 1.463 . S
C1356 N1360 1.427 . S
C1357 H1347 0.929 . S
C1357 C1355 1.433 . S
C1357 N1360 1.384 . S
C1358 H1349 0.929 . S
C1358 C1350 1.378 . S
C1358 C1353 1.350 . S
C1359 H1346 0.929 . S
C1359 C1351 1.433 . S
C1359 N1361 1.384 . S
N1360 C1356 1.427 . S
N1360 C1357 1.384 . S
N1361 C1353 1.427 . S
N1361 C1359 1.384 . S
H1362 C1368 0.930 . S
H1363 C1372 0.930 . S
H1364 C1377 0.929 . S
H1365 C1375 0.929 . S
H1366 C1370 0.929 . S
H1367 C1376 0.929 . S
C1368 H1362 0.930 . S
C1368 C1369 1.367 . S
C1368 C1376 1.378 . S
C1369 C1368 1.367 . S
C1369 C1377 1.433 . S
C1370 H1366 0.929 . S
C1370 C1372 1.378 . S
C1370 C1374 1.350 . S
C1371 C1374 1.463 . S
C1371 C1376 1.350 . S
C1371 N1379 1.427 . S
C1372 H1363 0.930 . S
C1372 C1370 1.378 . S
C1372 C1373 1.367 . S
C1373 C1372 1.367 . S
C1373 C1375 1.433 . S
C1374 C1370 1.350 . S
C1374 C1371 1.463 . S
C1374 N1378 1.427 . S
C1375 H1365 0.929 . S
C1375 C1373 1.433 . S
C1375 N1378 1.384 . S
C1376 H1367 0.929 . S
C1376 C1368 1.378 . S
C1376 C1371 1.350 . S
C1377 H1364 0.929 . S
C1377 C1369 1.433 . S
C1377 N1379 1.384 . S
N1378 C1374 1.427 . S
N1378 C1375 1.384 . S
N1379 C1371 1.427 . S
N1379 C1377 1.384 . S
H1380 C1386 0.930 . S
H1381 C1390 0.930 . S
H1382 C1395 0.929 . S
H1383 C1393 0.929 . S
H1384 C1388 0.929 . S
H1385 C1394 0.929 . S
C1386 H1380 0.930 . S
C1386 C1387 1.367 . S
C1386 C1394 1.378 . S
C1387 C1386 1.367 . S
C1387 C1395 1.433 . S
C1388 H1384 0.929 . S
C1388 C1390 1.378 . S
C1388 C1392 1.350 . S
C1389 C1392 1.463 . S
C1389 C1394 1.350 . S
C1389 N1397 1.427 . S
C1390 H1381 0.930 . S
C1390 C1388 1.378 . S
C1390 C1391 1.367 . S
C1391 C1390 1.367 . S
C1391 C1393 1.433 . S
C1392 C1388 1.350 . S
C1392 C1389 1.463 . S
C1392 N1396 1.427 . S
C1393 H1383 0.929 . S
C1393 C1391 1.433 . S
C1393 N1396 1.384 . S
C1394 H1385 0.929 . S
C1394 C1386 1.378 . S
C1394 C1389 1.350 . S
C1395 H1382 0.929 . S
C1395 C1387 1.433 . S
C1395 N1397 1.384 . S
N1396 C1392 1.427 . S
N1396 C1393 1.384 . S
N1397 C1389 1.427 . S
N1397 C1395 1.384 . S
H1398 C1404 0.930 . S
H1399 C1408 0.930 . S
H1400 C1413 0.929 . S
H1401 C1411 0.929 . S
H1402 C1406 0.929 . S
H1403 C1412 0.929 . S
C1404 H1398 0.930 . S
C1404 C1405 1.367 . S
C1404 C1412 1.378 . S
C1405 C1404 1.367 . S
C1405 C1413 1.433 . S
C1406 H1402 0.929 . S
C1406 C1408 1.378 . S
C1406 C1410 1.350 . S
C1407 C1410 1.463 . S
C1407 C1412 1.350 . S
C1407 N1415 1.427 . S
C1408 H1399 0.930 . S
C1408 C1406 1.378 . S
C1408 C1409 1.367 . S
C1409 C1408 1.367 . S
C1409 C1411 1.433 . S
C1410 C1406 1.350 . S
C1410 C1407 1.463 . S
C1410 N1414 1.427 . S
C1411 H1401 0.929 . S
C1411 C1409 1.433 . S
C1411 N1414 1.384 . S
C1412 H1403 0.929 . S
C1412 C1404 1.378 . S
C1412 C1407 1.350 . S
C1413 H1400 0.929 . S
C1413 C1405 1.433 . S
C1413 N1415 1.384 . S
N1414 C1410 1.427 . S
N1414 C1411 1.384 . S
N1415 C1407 1.427 . S
N1415 C1413 1.384 . S
H1416 C1422 0.930 . S
H1417 C1426 0.930 . S
H1418 C1431 0.929 . S
H1419 C1429 0.929 . S
H1420 C1424 0.929 . S
H1421 C1430 0.929 . S
C1422 H1416 0.930 . S
C1422 C1423 1.367 . S
C1422 C1430 1.378 . S
C1423 C1422 1.367 . S
C1423 C1431 1.433 . S
C1424 H1420 0.929 . S
C1424 C1426 1.378 . S
C1424 C1428 1.350 . S
C1425 C1428 1.463 . S
C1425 C1430 1.350 . S
C1425 N1433 1.427 . S
C1426 H1417 0.930 . S
C1426 C1424 1.378 . S
C1426 C1427 1.367 . S
C1427 C1426 1.367 . S
C1427 C1429 1.433 . S
C1428 C1424 1.350 . S
C1428 C1425 1.463 . S
C1428 N1432 1.427 . S
C1429 H1419 0.929 . S
C1429 C1427 1.433 . S
C1429 N1432 1.384 . S
C1430 H1421 0.929 . S
C1430 C1422 1.378 . S
C1430 C1425 1.350 . S
C1431 H1418 0.929 . S
C1431 C1423 1.433 . S
C1431 N1433 1.384 . S
N1432 C1428 1.427 . S
N1432 C1429 1.384 . S
N1433 C1425 1.427 . S
N1433 C1431 1.384 . S
H1434 C1440 0.930 . S
H1435 C1444 0.930 . S
H1436 C1449 0.929 . S
H1437 C1447 0.929 . S
H1438 C1442 0.929 . S
H1439 C1448 0.929 . S
C1440 H1434 0.930 . S
C1440 C1441 1.367 . S
C1440 C1448 1.378 . S
C1441 C1440 1.367 . S
C1441 C1449 1.433 . S
C1442 H1438 0.929 . S
C1442 C1444 1.378 . S
C1442 C1446 1.350 . S
C1443 C1446 1.463 . S
C1443 C1448 1.350 . S
C1443 N1451 1.427 . S
C1444 H1435 0.930 . S
C1444 C1442 1.378 . S
C1444 C1445 1.367 . S
C1445 C1444 1.367 . S
C1445 C1447 1.433 . S
C1446 C1442 1.350 . S
C1446 C1443 1.463 . S
C1446 N1450 1.427 . S
C1447 H1437 0.929 . S
C1447 C1445 1.433 . S
C1447 N1450 1.384 . S
C1448 H1439 0.929 . S
C1448 C1440 1.378 . S
C1448 C1443 1.350 . S
C1449 H1436 0.929 . S
C1449 C1441 1.433 . S
C1449 N1451 1.384 . S
N1450 C1446 1.427 . S
N1450 C1447 1.384 . S
N1451 C1443 1.427 . S
N1451 C1449 1.384 . S
H1452 C1458 0.930 . S
H1453 C1462 0.930 . S
H1454 C1467 0.929 . S
H1455 C1465 0.929 . S
H1456 C1460 0.929 . S
H1457 C1466 0.929 . S
C1458 H1452 0.930 . S
C1458 C1459 1.367 . S
C1458 C1466 1.378 . S
C1459 C1458 1.367 . S
C1459 C1467 1.433 . S
C1460 H1456 0.929 . S
C1460 C1462 1.378 . S
C1460 C1464 1.350 . S
C1461 C1464 1.463 . S
C1461 C1466 1.350 . S
C1461 N1469 1.427 . S
C1462 H1453 0.930 . S
C1462 C1460 1.378 . S
C1462 C1463 1.367 . S
C1463 C1462 1.367 . S
C1463 C1465 1.433 . S
C1464 C1460 1.350 . S
C1464 C1461 1.463 . S
C1464 N1468 1.427 . S
C1465 H1455 0.929 . S
C1465 C1463 1.433 . S
C1465 N1468 1.384 . S
C1466 H1457 0.929 . S
C1466 C1458 1.378 . S
C1466 C1461 1.350 . S
C1467 H1454 0.929 . S
C1467 C1459 1.433 . S
C1467 N1469 1.384 . S
N1468 C1464 1.427 . S
N1468 C1465 1.384 . S
N1469 C1461 1.427 . S
N1469 C1467 1.384 . S
H1470 C1476 0.930 . S
H1471 C1480 0.930 . S
H1472 C1485 0.929 . S
H1473 C1483 0.929 . S
H1474 C1478 0.929 . S
H1475 C1484 0.929 . S
C1476 H1470 0.930 . S
C1476 C1477 1.367 . S
C1476 C1484 1.378 . S
C1477 C1476 1.367 . S
C1477 C1485 1.433 . S
C1478 H1474 0.929 . S
C1478 C1480 1.378 . S
C1478 C1482 1.350 . S
C1479 C1482 1.463 . S
C1479 C1484 1.350 . S
C1479 N1487 1.427 . S
C1480 H1471 0.930 . S
C1480 C1478 1.378 . S
C1480 C1481 1.367 . S
C1481 C1480 1.367 . S
C1481 C1483 1.433 . S
C1482 C1478 1.350 . S
C1482 C1479 1.463 . S
C1482 N1486 1.427 . S
C1483 H1473 0.929 . S
C1483 C1481 1.433 . S
C1483 N1486 1.384 . S
C1484 H1475 0.929 . S
C1484 C1476 1.378 . S
C1484 C1479 1.350 . S
C1485 H1472 0.929 . S
C1485 C1477 1.433 . S
C1485 N1487 1.384 . S
N1486 C1482 1.427 . S
N1486 C1483 1.384 . S
N1487 C1479 1.427 . S
N1487 C1485 1.384 . S
H1488 C1494 0.930 . S
H1489 C1498 0.930 . S
H1490 C1503 0.929 . S
H1491 C1501 0.929 . S
H1492 C1496 0.929 . S
H1493 C1502 0.929 . S
C1494 H1488 0.930 . S
C1494 C1495 1.367 . S
C1494 C1502 1.378 . S
C1495 C1494 1.367 . S
C1495 C1503 1.433 . S
C1496 H1492 0.929 . S
C1496 C1498 1.378 . S
C1496 C1500 1.350 . S
C1497 C1500 1.463 . S
C1497 C1502 1.350 . S
C1497 N1505 1.427 . S
C1498 H1489 0.930 . S
C1498 C1496 1.378 . S
C1498 C1499 1.367 . S
C1499 C1498 1.367 . S
C1499 C1501 1.433 . S
C1500 C1496 1.350 . S
C1500 C1497 1.463 . S
C1500 N1504 1.427 . S
C1501 H1491 0.929 . S
C1501 C1499 1.433 . S
C1501 N1504 1.384 . S
C1502 H1493 0.929 . S
C1502 C1494 1.378 . S
C1502 C1497 1.350 . S
C1503 H1490 0.929 . S
C1503 C1495 1.433 . S
C1503 N1505 1.384 . S
N1504 C1500 1.427 . S
N1504 C1501 1.384 . S
N1505 C1497 1.427 . S
N1505 C1503 1.384 . S
H1506 C1512 0.930 . S
H1507 C1516 0.930 . S
H1508 C1521 0.929 . S
H1509 C1519 0.929 . S
H1510 C1514 0.929 . S
H1511 C1520 0.929 . S
C1512 H1506 0.930 . S
C1512 C1513 1.367 . S
C1512 C1520 1.378 . S
C1513 C1512 1.367 . S
C1513 C1521 1.433 . S
C1514 H1510 0.929 . S
C1514 C1516 1.378 . S
C1514 C1518 1.350 . S
C1515 C1518 1.463 . S
C1515 C1520 1.350 . S
C1515 N1523 1.427 . S
C1516 H1507 0.930 . S
C1516 C1514 1.378 . S
C1516 C1517 1.367 . S
C1517 C1516 1.367 . S
C1517 C1519 1.433 . S
C1518 C1514 1.350 . S
C1518 C1515 1.463 . S
C1518 N1522 1.427 . S
C1519 H1509 0.929 . S
C1519 C1517 1.433 . S
C1519 N1522 1.384 . S
C1520 H1511 0.929 . S
C1520 C1512 1.378 . S
C1520 C1515 1.350 . S
C1521 H1508 0.929 . S
C1521 C1513 1.433 . S
C1521 N1523 1.384 . S
N1522 C1518 1.427 . S
N1522 C1519 1.384 . S
N1523 C1515 1.427 . S
N1523 C1521 1.384 . S
H1524 C1530 0.930 . S
H1525 C1534 0.930 . S
H1526 C1539 0.929 . S
H1527 C1537 0.929 . S
H1528 C1532 0.929 . S
H1529 C1538 0.929 . S
C1530 H1524 0.930 . S
C1530 C1531 1.367 . S
C1530 C1538 1.378 . S
C1531 C1530 1.367 . S
C1531 C1539 1.433 . S
C1532 H1528 0.929 . S
C1532 C1534 1.378 . S
C1532 C1536 1.350 . S
C1533 C1536 1.463 . S
C1533 C1538 1.350 . S
C1533 N1541 1.427 . S
C1534 H1525 0.930 . S
C1534 C1532 1.378 . S
C1534 C1535 1.367 . S
C1535 C1534 1.367 . S
C1535 C1537 1.433 . S
C1536 C1532 1.350 . S
C1536 C1533 1.463 . S
C1536 N1540 1.427 . S
C1537 H1527 0.929 . S
C1537 C1535 1.433 . S
C1537 N1540 1.384 . S
C1538 H1529 0.929 . S
C1538 C1530 1.378 . S
C1538 C1533 1.350 . S
C1539 H1526 0.929 . S
C1539 C1531 1.433 . S
C1539 N1541 1.384 . S
N1540 C1536 1.427 . S
N1540 C1537 1.384 . S
N1541 C1533 1.427 . S
N1541 C1539 1.384 . S
H1542 C1548 0.930 . S
H1543 C1552 0.930 . S
H1544 C1557 0.929 . S
H1545 C1555 0.929 . S
H1546 C1550 0.929 . S
H1547 C1556 0.929 . S
C1548 H1542 0.930 . S
C1548 C1549 1.367 . S
C1548 C1556 1.378 . S
C1549 C1548 1.367 . S
C1549 C1557 1.433 . S
C1550 H1546 0.929 . S
C1550 C1552 1.378 . S
C1550 C1554 1.350 . S
C1551 C1554 1.463 . S
C1551 C1556 1.350 . S
C1551 N1559 1.427 . S
C1552 H1543 0.930 . S
C1552 C1550 1.378 . S
C1552 C1553 1.367 . S
C1553 C1552 1.367 . S
C1553 C1555 1.433 . S
C1554 C1550 1.350 . S
C1554 C1551 1.463 . S
C1554 N1558 1.427 . S
C1555 H1545 0.929 . S
C1555 C1553 1.433 . S
C1555 N1558 1.384 . S
C1556 H1547 0.929 . S
C1556 C1548 1.378 . S
C1556 C1551 1.350 . S
C1557 H1544 0.929 . S
C1557 C1549 1.433 . S
C1557 N1559 1.384 . S
N1558 C1554 1.427 . S
N1558 C1555 1.384 . S
N1559 C1551 1.427 . S
N1559 C1557 1.384 . S
H1560 C1566 0.930 . S
H1561 C1570 0.930 . S
H1562 C1575 0.929 . S
H1563 C1573 0.929 . S
H1564 C1568 0.929 . S
H1565 C1574 0.929 . S
C1566 H1560 0.930 . S
C1566 C1567 1.367 . S
C1566 C1574 1.378 . S
C1567 C1566 1.367 . S
C1567 C1575 1.433 . S
C1568 H1564 0.929 . S
C1568 C1570 1.378 . S
C1568 C1572 1.350 . S
C1569 C1572 1.463 . S
C1569 C1574 1.350 . S
C1569 N1577 1.427 . S
C1570 H1561 0.930 . S
C1570 C1568 1.378 . S
C1570 C1571 1.367 . S
C1571 C1570 1.367 . S
C1571 C1573 1.433 . S
C1572 C1568 1.350 . S
C1572 C1569 1.463 . S
C1572 N1576 1.427 . S
C1573 H1563 0.929 . S
C1573 C1571 1.433 . S
C1573 N1576 1.384 . S
C1574 H1565 0.929 . S
C1574 C1566 1.378 . S
C1574 C1569 1.350 . S
C1575 H1562 0.929 . S
C1575 C1567 1.433 . S
C1575 N1577 1.384 . S
N1576 C1572 1.427 . S
N1576 C1573 1.384 . S
N1577 C1569 1.427 . S
N1577 C1575 1.384 . S
H1578 C1584 0.930 . S
H1579 C1588 0.930 . S
H1580 C1593 0.929 . S
H1581 C1591 0.929 . S
H1582 C1586 0.929 . S
H1583 C1592 0.929 . S
C1584 H1578 0.930 . S
C1584 C1585 1.367 . S
C1584 C1592 1.378 . S
C1585 C1584 1.367 . S
C1585 C1593 1.433 . S
C1586 H1582 0.929 . S
C1586 C1588 1.378 . S
C1586 C1590 1.350 . S
C1587 C1590 1.463 . S
C1587 C1592 1.350 . S
C1587 N1595 1.427 . S
C1588 H1579 0.930 . S
C1588 C1586 1.378 . S
C1588 C1589 1.367 . S
C1589 C1588 1.367 . S
C1589 C1591 1.433 . S
C1590 C1586 1.350 . S
C1590 C1587 1.463 . S
C1590 N1594 1.427 . S
C1591 H1581 0.929 . S
C1591 C1589 1.433 . S
C1591 N1594 1.384 . S
C1592 H1583 0.929 . S
C1592 C1584 1.378 . S
C1592 C1587 1.350 . S
C1593 H1580 0.929 . S
C1593 C1585 1.433 . S
C1593 N1595 1.384 . S
N1594 C1590 1.427 . S
N1594 C1591 1.384 . S
N1595 C1587 1.427 . S
N1595 C1593 1.384 . S
H1596 C1602 0.930 . S
H1597 C1606 0.930 . S
H1598 C1611 0.929 . S
H1599 C1609 0.929 . S
H1600 C1604 0.929 . S
H1601 C1610 0.929 . S
C1602 H1596 0.930 . S
C1602 C1603 1.367 . S
C1602 C1610 1.378 . S
C1603 C1602 1.367 . S
C1603 C1611 1.433 . S
C1604 H1600 0.929 . S
C1604 C1606 1.378 . S
C1604 C1608 1.350 . S
C1605 C1608 1.463 . S
C1605 C1610 1.350 . S
C1605 N1613 1.427 . S
C1606 H1597 0.930 . S
C1606 C1604 1.378 . S
C1606 C1607 1.367 . S
C1607 C1606 1.367 . S
C1607 C1609 1.433 . S
C1608 C1604 1.350 . S
C1608 C1605 1.463 . S
C1608 N1612 1.427 . S
C1609 H1599 0.929 . S
C1609 C1607 1.433 . S
C1609 N1612 1.384 . S
C1610 H1601 0.929 . S
C1610 C1602 1.378 . S
C1610 C1605 1.350 . S
C1611 H1598 0.929 . S
C1611 C1603 1.433 . S
C1611 N1613 1.384 . S
N1612 C1608 1.427 . S
N1612 C1609 1.384 . S
N1613 C1605 1.427 . S
N1613 C1611 1.384 . S
H1614 C1620 0.930 . S
H1615 C1624 0.930 . S
H1616 C1629 0.929 . S
H1617 C1627 0.929 . S
H1618 C1622 0.929 . S
H1619 C1628 0.929 . S
C1620 H1614 0.930 . S
C1620 C1621 1.367 . S
C1620 C1628 1.378 . S
C1621 C1620 1.367 . S
C1621 C1629 1.433 . S
C1622 H1618 0.929 . S
C1622 C1624 1.378 . S
C1622 C1626 1.350 . S
C1623 C1626 1.463 . S
C1623 C1628 1.350 . S
C1623 N1631 1.427 . S
C1624 H1615 0.930 . S
C1624 C1622 1.378 . S
C1624 C1625 1.367 . S
C1625 C1624 1.367 . S
C1625 C1627 1.433 . S
C1626 C1622 1.350 . S
C1626 C1623 1.463 . S
C1626 N1630 1.427 . S
C1627 H1617 0.929 . S
C1627 C1625 1.433 . S
C1627 N1630 1.384 . S
C1628 H1619 0.929 . S
C1628 C1620 1.378 . S
C1628 C1623 1.350 . S
C1629 H1616 0.929 . S
C1629 C1621 1.433 . S
C1629 N1631 1.384 . S
N1630 C1626 1.427 . S
N1630 C1627 1.384 . S
N1631 C1623 1.427 . S
N1631 C1629 1.384 . S
H1632 C1638 0.930 . S
H1633 C1642 0.930 . S
H1634 C1647 0.929 . S
H1635 C1645 0.929 . S
H1636 C1640 0.929 . S
H1637 C1646 0.929 . S
C1638 H1632 0.930 . S
C1638 C1639 1.367 . S
C1638 C1646 1.378 . S
C1639 C1638 1.367 . S
C1639 C1647 1.433 . S
C1640 H1636 0.929 . S
C1640 C1642 1.378 . S
C1640 C1644 1.350 . S
C1641 C1644 1.463 . S
C1641 C1646 1.350 . S
C1641 N1649 1.427 . S
C1642 H1633 0.930 . S
C1642 C1640 1.378 . S
C1642 C1643 1.367 . S
C1643 C1642 1.367 . S
C1643 C1645 1.433 . S
C1644 C1640 1.350 . S
C1644 C1641 1.463 . S
C1644 N1648 1.427 . S
C1645 H1635 0.929 . S
C1645 C1643 1.433 . S
C1645 N1648 1.384 . S
C1646 H1637 0.929 . S
C1646 C1638 1.378 . S
C1646 C1641 1.350 . S
C1647 H1634 0.929 . S
C1647 C1639 1.433 . S
C1647 N1649 1.384 . S
N1648 C1644 1.427 . S
N1648 C1645 1.384 . S
N1649 C1641 1.427 . S
N1649 C1647 1.384 . S
H1650 C1656 0.930 . S
H1651 C1660 0.930 . S
H1652 C1665 0.929 . S
H1653 C1663 0.929 . S
H1654 C1658 0.929 . S
H1655 C1664 0.929 . S
C1656 H1650 0.930 . S
C1656 C1657 1.367 . S
C1656 C1664 1.378 . S
C1657 C1656 1.367 . S
C1657 C1665 1.433 . S
C1658 H1654 0.929 . S
C1658 C1660 1.378 . S
C1658 C1662 1.350 . S
C1659 C1662 1.463 . S
C1659 C1664 1.350 . S
C1659 N1667 1.427 . S
C1660 H1651 0.930 . S
C1660 C1658 1.378 . S
C1660 C1661 1.367 . S
C1661 C1660 1.367 . S
C1661 C1663 1.433 . S
C1662 C1658 1.350 . S
C1662 C1659 1.463 . S
C1662 N1666 1.427 . S
C1663 H1653 0.929 . S
C1663 C1661 1.433 . S
C1663 N1666 1.384 . S
C1664 H1655 0.929 . S
C1664 C1656 1.378 . S
C1664 C1659 1.350 . S
C1665 H1652 0.929 . S
C1665 C1657 1.433 . S
C1665 N1667 1.384 . S
N1666 C1662 1.427 . S
N1666 C1663 1.384 . S
N1667 C1659 1.427 . S
N1667 C1665 1.384 . S
H1668 C1674 0.930 . S
H1669 C1678 0.930 . S
H1670 C1683 0.929 . S
H1671 C1681 0.929 . S
H1672 C1676 0.929 . S
H1673 C1682 0.929 . S
C1674 H1668 0.930 . S
C1674 C1675 1.367 . S
C1674 C1682 1.378 . S
C1675 C1674 1.367 . S
C1675 C1683 1.433 . S
C1676 H1672 0.929 . S
C1676 C1678 1.378 . S
C1676 C1680 1.350 . S
C1677 C1680 1.463 . S
C1677 C1682 1.350 . S
C1677 N1685 1.427 . S
C1678 H1669 0.930 . S
C1678 C1676 1.378 . S
C1678 C1679 1.367 . S
C1679 C1678 1.367 . S
C1679 C1681 1.433 . S
C1680 C1676 1.350 . S
C1680 C1677 1.463 . S
C1680 N1684 1.427 . S
C1681 H1671 0.929 . S
C1681 C1679 1.433 . S
C1681 N1684 1.384 . S
C1682 H1673 0.929 . S
C1682 C1674 1.378 . S
C1682 C1677 1.350 . S
C1683 H1670 0.929 . S
C1683 C1675 1.433 . S
C1683 N1685 1.384 . S
N1684 C1680 1.427 . S
N1684 C1681 1.384 . S
N1685 C1677 1.427 . S
N1685 C1683 1.384 . S
H1686 C1692 0.930 . S
H1687 C1696 0.930 . S
H1688 C1701 0.929 . S
H1689 C1699 0.929 . S
H1690 C1694 0.929 . S
H1691 C1700 0.929 . S
C1692 H1686 0.930 . S
C1692 C1693 1.367 . S
C1692 C1700 1.378 . S
C1693 C1692 1.367 . S
C1693 C1701 1.433 . S
C1694 H1690 0.929 . S
C1694 C1696 1.378 . S
C1694 C1698 1.350 . S
C1695 C1698 1.463 . S
C1695 C1700 1.350 . S
C1695 N1703 1.427 . S
C1696 H1687 0.930 . S
C1696 C1694 1.378 . S
C1696 C1697 1.367 . S
C1697 C1696 1.367 . S
C1697 C1699 1.433 . S
C1698 C1694 1.350 . S
C1698 C1695 1.463 . S
C1698 N1702 1.427 . S
C1699 H1689 0.929 . S
C1699 C1697 1.433 . S
C1699 N1702 1.384 . S
C1700 H1691 0.929 . S
C1700 C1692 1.378 . S
C1700 C1695 1.350 . S
C1701 H1688 0.929 . S
C1701 C1693 1.433 . S
C1701 N1703 1.384 . S
N1702 C1698 1.427 . S
N1702 C1699 1.384 . S
N1703 C1695 1.427 . S
N1703 C1701 1.384 . S
H1704 C1710 0.930 . S
H1705 C1714 0.930 . S
H1706 C1719 0.929 . S
H1707 C1717 0.929 . S
H1708 C1712 0.929 . S
H1709 C1718 0.929 . S
C1710 H1704 0.930 . S
C1710 C1711 1.367 . S
C1710 C1718 1.378 . S
C1711 C1710 1.367 . S
C1711 C1719 1.433 . S
C1712 H1708 0.929 . S
C1712 C1714 1.378 . S
C1712 C1716 1.350 . S
C1713 C1716 1.463 . S
C1713 C1718 1.350 . S
C1713 N1721 1.427 . S
C1714 H1705 0.930 . S
C1714 C1712 1.378 . S
C1714 C1715 1.367 . S
C1715 C1714 1.367 . S
C1715 C1717 1.433 . S
C1716 C1712 1.350 . S
C1716 C1713 1.463 . S
C1716 N1720 1.427 . S
C1717 H1707 0.929 . S
C1717 C1715 1.433 . S
C1717 N1720 1.384 . S
C1718 H1709 0.929 . S
C1718 C1710 1.378 . S
C1718 C1713 1.350 . S
C1719 H1706 0.929 . S
C1719 C1711 1.433 . S
C1719 N1721 1.384 . S
N1720 C1716 1.427 . S
N1720 C1717 1.384 . S
N1721 C1713 1.427 . S
N1721 C1719 1.384 . S
C869 C683 1.512 . S
C865 C74 1.461 . S
C887 C673 0.569 . S
C883 C142 0.861 . S
C905 C674 1.154 . S
C901 C231 1.110 . S
C919 C322 1.322 . S
C923 C696 1.414 . S
C937 C406 0.832 . S
C941 C699 0.558 . S
C959 C682 1.168 . S
C955 C494 1.084 . S
C973 C562 1.319 . S
C977 C672 1.417 . S
C991 C651 1.453 . S
C995 C690 1.516 . S
C1013 C703 1.449 . S
C1009 C58 1.393 . S
C1027 C151 1.563 . S
C1031 C752 1.530 . S
C1049 C730 2.631 . S
C1045 C224 2.518 . S
C1067 C744 1.044 . S
C1063 C315 1.057 . S
C1081 C399 1.064 . S
C1085 C705 1.062 . S
C1103 C758 1.449 . S
C1099 C478 1.436 . S
C1117 C571 1.496 . S
C1121 C714 1.523 . S
C1135 C644 2.514 . S
C1139 C735 2.598 . S
C1153 C67 2.522 . S
C1157 C761 2.604 . S
C1171 C392 1.550 . S
C1175 C745 1.539 . S
C1193 C704 2.631 . S
C1189 C487 2.525 . S
C1211 C736 1.061 . S
C1207 C578 1.055 . S
C1225 C658 1.389 . S
C1229 C727 1.462 . S
C1243 C238 1.429 . S
C1247 C734 1.452 . S
C1265 C721 1.525 . S
C1261 C308 1.499 . S
C1279 C158 1.064 . S
C1283 C713 1.057 . S
C1297 C662 1.445 . S
C1301 C776 1.521 . S
C1315 C394 0.871 . S
C1319 C766 0.591 . S
C1337 C767 1.154 . S
C1333 C483 1.110 . S
C1355 C789 1.415 . S
C1351 C574 1.320 . S
C1369 C154 0.838 . S
C1373 C792 0.544 . S
C1391 C775 1.167 . S
C1387 C242 1.084 . S
C1405 C310 1.339 . S
C1409 C765 1.419 . S
C1423 C63 1.458 . S
C1427 C783 1.513 . S
C1441 C646 1.399 . S
C1445 C796 1.454 . S
C1463 C845 1.541 . S
C1459 C403 1.551 . S
C1477 C476 2.530 . S
C1481 C823 2.637 . S
C1495 C567 1.045 . S
C1499 C837 1.044 . S
C1517 C798 1.043 . S
C1513 C147 1.051 . S
C1531 C226 1.432 . S
C1535 C851 1.461 . S
C1553 C807 1.531 . S
C1549 C319 1.501 . S
C1571 C828 2.604 . S
C1567 C56 2.522 . S
C1589 C854 2.606 . S
C1585 C655 2.517 . S
C1603 C140 1.562 . S
C1607 C838 1.538 . S
C1621 C235 2.526 . S
C1625 C797 2.638 . S
C1643 C829 1.048 . S
C1639 C326 1.061 . S
C1657 C70 1.387 . S
C1661 C820 1.461 . S
C1675 C490 1.420 . S
C1679 C827 1.464 . S
C1697 C814 1.519 . S
C1693 C560 1.491 . S
C1715 C806 1.055 . S
C1711 C410 1.063 . S
