# Generated by pormake.
# Topology gar, (4,6)-cn, num edge types: 1
# Building blocks:
#     Node 0, Type 0, BuildingBlock: AZAVOO_clean_sbu_0, # of connection points: 4
#     Node 1, Type 0, BuildingBlock: AZAVOO_clean_sbu_0, # of connection points: 4
#     Node 2, Type 0, BuildingBlock: AZAVOO_clean_sbu_0, # of connection points: 4
#     Node 3, Type 0, BuildingBlock: AZAVOO_clean_sbu_0, # of connection points: 4
#     Node 4, Type 0, BuildingBlock: AZAVOO_clean_sbu_0, # of connection points: 4
#     Node 5, Type 0, BuildingBlock: AZAVOO_clean_sbu_0, # of connection points: 4
#     Node 6, Type 0, BuildingBlock: AZAVOO_clean_sbu_0, # of connection points: 4
#     Node 7, Type 0, BuildingBlock: AZAVOO_clean_sbu_0, # of connection points: 4
#     Node 8, Type 0, BuildingBlock: AZAVOO_clean_sbu_0, # of connection points: 4
#     Node 9, Type 0, BuildingBlock: AZAVOO_clean_sbu_0, # of connection points: 4
#     Node 10, Type 0, BuildingBlock: AZAVOO_clean_sbu_0, # of connection points: 4
#     Node 11, Type 0, BuildingBlock: AZAVOO_clean_sbu_0, # of connection points: 4
#     Node 12, Type 0, BuildingBlock: AZAVOO_clean_sbu_0, # of connection points: 4
#     Node 13, Type 0, BuildingBlock: AZAVOO_clean_sbu_0, # of connection points: 4
#     Node 14, Type 0, BuildingBlock: AZAVOO_clean_sbu_0, # of connection points: 4
#     Node 15, Type 0, BuildingBlock: AZAVOO_clean_sbu_0, # of connection points: 4
#     Node 16, Type 0, BuildingBlock: AZAVOO_clean_sbu_0, # of connection points: 4
#     Node 17, Type 0, BuildingBlock: AZAVOO_clean_sbu_0, # of connection points: 4
#     Node 18, Type 0, BuildingBlock: AZAVOO_clean_sbu_0, # of connection points: 4
#     Node 19, Type 0, BuildingBlock: AZAVOO_clean_sbu_0, # of connection points: 4
#     Node 20, Type 0, BuildingBlock: AZAVOO_clean_sbu_0, # of connection points: 4
#     Node 21, Type 0, BuildingBlock: AZAVOO_clean_sbu_0, # of connection points: 4
#     Node 22, Type 0, BuildingBlock: AZAVOO_clean_sbu_0, # of connection points: 4
#     Node 23, Type 0, BuildingBlock: AZAVOO_clean_sbu_0, # of connection points: 4
#     Node 24, Type 1, BuildingBlock: KUMBOL_clean_sbu_1, # of connection points: 6
#     Node 25, Type 1, BuildingBlock: KUMBOL_clean_sbu_1, # of connection points: 6
#     Node 26, Type 1, BuildingBlock: KUMBOL_clean_sbu_1, # of connection points: 6
#     Node 27, Type 1, BuildingBlock: KUMBOL_clean_sbu_1, # of connection points: 6
#     Node 28, Type 1, BuildingBlock: KUMBOL_clean_sbu_1, # of connection points: 6
#     Node 29, Type 1, BuildingBlock: KUMBOL_clean_sbu_1, # of connection points: 6
#     Node 30, Type 1, BuildingBlock: KUMBOL_clean_sbu_1, # of connection points: 6
#     Node 31, Type 1, BuildingBlock: KUMBOL_clean_sbu_1, # of connection points: 6
#     Node 32, Type 1, BuildingBlock: KUMBOL_clean_sbu_1, # of connection points: 6
#     Node 33, Type 1, BuildingBlock: KUMBOL_clean_sbu_1, # of connection points: 6
#     Node 34, Type 1, BuildingBlock: KUMBOL_clean_sbu_1, # of connection points: 6
#     Node 35, Type 1, BuildingBlock: KUMBOL_clean_sbu_1, # of connection points: 6
#     Node 36, Type 1, BuildingBlock: KUMBOL_clean_sbu_1, # of connection points: 6
#     Node 37, Type 1, BuildingBlock: KUMBOL_clean_sbu_1, # of connection points: 6
#     Node 38, Type 1, BuildingBlock: KUMBOL_clean_sbu_1, # of connection points: 6
#     Node 39, Type 1, BuildingBlock: KUMBOL_clean_sbu_1, # of connection points: 6
#     Edge 40, Type (0, 1), BuildingBlock: XIVTED_clean_linker_0, # of connection points: 2
#     Edge 41, Type (0, 1), BuildingBlock: XIVTED_clean_linker_0, # of connection points: 2
#     Edge 42, Type (0, 1), BuildingBlock: XIVTED_clean_linker_0, # of connection points: 2
#     Edge 43, Type (0, 1), BuildingBlock: XIVTED_clean_linker_0, # of connection points: 2
#     Edge 44, Type (0, 1), BuildingBlock: XIVTED_clean_linker_0, # of connection points: 2
#     Edge 45, Type (0, 1), BuildingBlock: XIVTED_clean_linker_0, # of connection points: 2
#     Edge 46, Type (0, 1), BuildingBlock: XIVTED_clean_linker_0, # of connection points: 2
#     Edge 47, Type (0, 1), BuildingBlock: XIVTED_clean_linker_0, # of connection points: 2
#     Edge 48, Type (0, 1), BuildingBlock: XIVTED_clean_linker_0, # of connection points: 2
#     Edge 49, Type (0, 1), BuildingBlock: XIVTED_clean_linker_0, # of connection points: 2
#     Edge 50, Type (0, 1), BuildingBlock: XIVTED_clean_linker_0, # of connection points: 2
#     Edge 51, Type (0, 1), BuildingBlock: XIVTED_clean_linker_0, # of connection points: 2
#     Edge 52, Type (0, 1), BuildingBlock: XIVTED_clean_linker_0, # of connection points: 2
#     Edge 53, Type (0, 1), BuildingBlock: XIVTED_clean_linker_0, # of connection points: 2
#     Edge 54, Type (0, 1), BuildingBlock: XIVTED_clean_linker_0, # of connection points: 2
#     Edge 55, Type (0, 1), BuildingBlock: XIVTED_clean_linker_0, # of connection points: 2
#     Edge 56, Type (0, 1), BuildingBlock: XIVTED_clean_linker_0, # of connection points: 2
#     Edge 57, Type (0, 1), BuildingBlock: XIVTED_clean_linker_0, # of connection points: 2
#     Edge 58, Type (0, 1), BuildingBlock: XIVTED_clean_linker_0, # of connection points: 2
#     Edge 59, Type (0, 1), BuildingBlock: XIVTED_clean_linker_0, # of connection points: 2
#     Edge 60, Type (0, 1), BuildingBlock: XIVTED_clean_linker_0, # of connection points: 2
#     Edge 61, Type (0, 1), BuildingBlock: XIVTED_clean_linker_0, # of connection points: 2
#     Edge 62, Type (0, 1), BuildingBlock: XIVTED_clean_linker_0, # of connection points: 2
#     Edge 63, Type (0, 1), BuildingBlock: XIVTED_clean_linker_0, # of connection points: 2
#     Edge 64, Type (0, 1), BuildingBlock: XIVTED_clean_linker_0, # of connection points: 2
#     Edge 65, Type (0, 1), BuildingBlock: XIVTED_clean_linker_0, # of connection points: 2
#     Edge 66, Type (0, 1), BuildingBlock: XIVTED_clean_linker_0, # of connection points: 2
#     Edge 67, Type (0, 1), BuildingBlock: XIVTED_clean_linker_0, # of connection points: 2
#     Edge 68, Type (0, 1), BuildingBlock: XIVTED_clean_linker_0, # of connection points: 2
#     Edge 69, Type (0, 1), BuildingBlock: XIVTED_clean_linker_0, # of connection points: 2
#     Edge 70, Type (0, 1), BuildingBlock: XIVTED_clean_linker_0, # of connection points: 2
#     Edge 71, Type (0, 1), BuildingBlock: XIVTED_clean_linker_0, # of connection points: 2
#     Edge 72, Type (0, 1), BuildingBlock: XIVTED_clean_linker_0, # of connection points: 2
#     Edge 73, Type (0, 1), BuildingBlock: XIVTED_clean_linker_0, # of connection points: 2
#     Edge 74, Type (0, 1), BuildingBlock: XIVTED_clean_linker_0, # of connection points: 2
#     Edge 75, Type (0, 1), BuildingBlock: XIVTED_clean_linker_0, # of connection points: 2
#     Edge 76, Type (0, 1), BuildingBlock: XIVTED_clean_linker_0, # of connection points: 2
#     Edge 77, Type (0, 1), BuildingBlock: XIVTED_clean_linker_0, # of connection points: 2
#     Edge 78, Type (0, 1), BuildingBlock: XIVTED_clean_linker_0, # of connection points: 2
#     Edge 79, Type (0, 1), BuildingBlock: XIVTED_clean_linker_0, # of connection points: 2
#     Edge 80, Type (0, 1), BuildingBlock: XIVTED_clean_linker_0, # of connection points: 2
#     Edge 81, Type (0, 1), BuildingBlock: XIVTED_clean_linker_0, # of connection points: 2
#     Edge 82, Type (0, 1), BuildingBlock: XIVTED_clean_linker_0, # of connection points: 2
#     Edge 83, Type (0, 1), BuildingBlock: XIVTED_clean_linker_0, # of connection points: 2
#     Edge 84, Type (0, 1), BuildingBlock: XIVTED_clean_linker_0, # of connection points: 2
#     Edge 85, Type (0, 1), BuildingBlock: XIVTED_clean_linker_0, # of connection points: 2
#     Edge 86, Type (0, 1), BuildingBlock: XIVTED_clean_linker_0, # of connection points: 2
#     Edge 87, Type (0, 1), BuildingBlock: XIVTED_clean_linker_0, # of connection points: 2
#     Edge 88, Type (0, 1), BuildingBlock: XIVTED_clean_linker_0, # of connection points: 2
#     Edge 89, Type (0, 1), BuildingBlock: XIVTED_clean_linker_0, # of connection points: 2
#     Edge 90, Type (0, 1), BuildingBlock: XIVTED_clean_linker_0, # of connection points: 2
#     Edge 91, Type (0, 1), BuildingBlock: XIVTED_clean_linker_0, # of connection points: 2
#     Edge 92, Type (0, 1), BuildingBlock: XIVTED_clean_linker_0, # of connection points: 2
#     Edge 93, Type (0, 1), BuildingBlock: XIVTED_clean_linker_0, # of connection points: 2
#     Edge 94, Type (0, 1), BuildingBlock: XIVTED_clean_linker_0, # of connection points: 2
#     Edge 95, Type (0, 1), BuildingBlock: XIVTED_clean_linker_0, # of connection points: 2
#     Edge 96, Type (0, 1), BuildingBlock: XIVTED_clean_linker_0, # of connection points: 2
#     Edge 97, Type (0, 1), BuildingBlock: XIVTED_clean_linker_0, # of connection points: 2
#     Edge 98, Type (0, 1), BuildingBlock: XIVTED_clean_linker_0, # of connection points: 2
#     Edge 99, Type (0, 1), BuildingBlock: XIVTED_clean_linker_0, # of connection points: 2
#     Edge 100, Type (0, 1), BuildingBlock: XIVTED_clean_linker_0, # of connection points: 2
#     Edge 101, Type (0, 1), BuildingBlock: XIVTED_clean_linker_0, # of connection points: 2
#     Edge 102, Type (0, 1), BuildingBlock: XIVTED_clean_linker_0, # of connection points: 2
#     Edge 103, Type (0, 1), BuildingBlock: XIVTED_clean_linker_0, # of connection points: 2
#     Edge 104, Type (0, 1), BuildingBlock: XIVTED_clean_linker_0, # of connection points: 2
#     Edge 105, Type (0, 1), BuildingBlock: XIVTED_clean_linker_0, # of connection points: 2
#     Edge 106, Type (0, 1), BuildingBlock: XIVTED_clean_linker_0, # of connection points: 2
#     Edge 107, Type (0, 1), BuildingBlock: XIVTED_clean_linker_0, # of connection points: 2
#     Edge 108, Type (0, 1), BuildingBlock: XIVTED_clean_linker_0, # of connection points: 2
#     Edge 109, Type (0, 1), BuildingBlock: XIVTED_clean_linker_0, # of connection points: 2
#     Edge 110, Type (0, 1), BuildingBlock: XIVTED_clean_linker_0, # of connection points: 2
#     Edge 111, Type (0, 1), BuildingBlock: XIVTED_clean_linker_0, # of connection points: 2
#     Edge 112, Type (0, 1), BuildingBlock: XIVTED_clean_linker_0, # of connection points: 2
#     Edge 113, Type (0, 1), BuildingBlock: XIVTED_clean_linker_0, # of connection points: 2
#     Edge 114, Type (0, 1), BuildingBlock: XIVTED_clean_linker_0, # of connection points: 2
#     Edge 115, Type (0, 1), BuildingBlock: XIVTED_clean_linker_0, # of connection points: 2
#     Edge 116, Type (0, 1), BuildingBlock: XIVTED_clean_linker_0, # of connection points: 2
#     Edge 117, Type (0, 1), BuildingBlock: XIVTED_clean_linker_0, # of connection points: 2
#     Edge 118, Type (0, 1), BuildingBlock: XIVTED_clean_linker_0, # of connection points: 2
#     Edge 119, Type (0, 1), BuildingBlock: XIVTED_clean_linker_0, # of connection points: 2
#     Edge 120, Type (0, 1), BuildingBlock: XIVTED_clean_linker_0, # of connection points: 2
#     Edge 121, Type (0, 1), BuildingBlock: XIVTED_clean_linker_0, # of connection points: 2
#     Edge 122, Type (0, 1), BuildingBlock: XIVTED_clean_linker_0, # of connection points: 2
#     Edge 123, Type (0, 1), BuildingBlock: XIVTED_clean_linker_0, # of connection points: 2
#     Edge 124, Type (0, 1), BuildingBlock: XIVTED_clean_linker_0, # of connection points: 2
#     Edge 125, Type (0, 1), BuildingBlock: XIVTED_clean_linker_0, # of connection points: 2
#     Edge 126, Type (0, 1), BuildingBlock: XIVTED_clean_linker_0, # of connection points: 2
#     Edge 127, Type (0, 1), BuildingBlock: XIVTED_clean_linker_0, # of connection points: 2
#     Edge 128, Type (0, 1), BuildingBlock: XIVTED_clean_linker_0, # of connection points: 2
#     Edge 129, Type (0, 1), BuildingBlock: XIVTED_clean_linker_0, # of connection points: 2
#     Edge 130, Type (0, 1), BuildingBlock: XIVTED_clean_linker_0, # of connection points: 2
#     Edge 131, Type (0, 1), BuildingBlock: XIVTED_clean_linker_0, # of connection points: 2
#     Edge 132, Type (0, 1), BuildingBlock: XIVTED_clean_linker_0, # of connection points: 2
#     Edge 133, Type (0, 1), BuildingBlock: XIVTED_clean_linker_0, # of connection points: 2
#     Edge 134, Type (0, 1), BuildingBlock: XIVTED_clean_linker_0, # of connection points: 2
#     Edge 135, Type (0, 1), BuildingBlock: XIVTED_clean_linker_0, # of connection points: 2
# Relax obj value: 0.101
# Max RMSD: 0.212
# Mean RMSD: 0.153
data_MOF--net-gar--node1-AZAVOO_clean_sbu_0--node2-KUMBOL_clean_sbu_1--edge1-XIVTED_clean_linker_0
_symmetry_space_group_name_H-M    P1
_symmetry_Int_Tables_number       1
_symmetry_cell_setting            triclinic
loop_
_symmetry_equiv_pos_as_xyz
'x, y, z'
_cell_length_a     61.413766
_cell_length_b     59.250439
_cell_length_c     56.462783
_cell_angle_alpha  98.74987
_cell_angle_beta   96.006387
_cell_angle_gamma 102.63305
loop_
_atom_site_label
_atom_site_type_symbol
_atom_site_fract_x
_atom_site_fract_y
_atom_site_fract_z
_atom_type_partial_charge
Mg0 Mg 0.03984 0.30214 0.33812 0.0
O1 O 0.04382 0.33622 0.368 0.0
O2 O 0.01475 0.32683 0.38844 0.0
Mg3 Mg 0.99155 0.29091 0.37387 0.0
C4 C 0.03242 0.34124 0.3851 0.0
C5 C 0.08629 0.29619 0.31821 0.0
O6 O 0.07218 0.27559 0.31054 0.0
O7 O 0.05014 0.2804 0.36688 0.0
O8 O 0.01961 0.27398 0.38576 0.0
O9 O 0.01348 0.31403 0.31193 0.0
O10 O 1.00377 0.29335 0.33917 0.0
C11 C 0.03921 0.27133 0.38265 0.0
C12 C 0.99739 0.30359 0.32233 0.0
O13 O 0.07871 0.31235 0.3302 0.0
Mg14 Mg 0.01779 0.75356 0.70846 0.0
O15 O 0.0208 0.72449 0.67683 0.0
O16 O 0.9874 0.71611 0.65347 0.0
Mg17 Mg 0.96404 0.73998 0.66585 0.0
C18 C 0.00693 0.71233 0.65843 0.0
C19 C 0.07272 0.77653 0.73514 0.0
O20 O 0.06527 0.79275 0.74821 0.0
O21 O 0.02054 0.78201 0.68331 0.0
O22 O 0.98825 0.77234 0.65763 0.0
O23 O 0.99846 0.77385 0.73534 0.0
O24 O 0.98104 0.74867 0.70365 0.0
C25 C 0.00781 0.78574 0.66548 0.0
C26 C 0.97939 0.76317 0.72228 0.0
O27 O 0.05848 0.76088 0.71935 0.0
Mg28 Mg 0.54023 0.80355 0.83998 0.0
O29 O 0.54722 0.83945 0.86806 0.0
O30 O 0.51946 0.83479 0.8911 0.0
Mg31 Mg 0.49314 0.80038 0.8788 0.0
C32 C 0.53751 0.84694 0.88575 0.0
C33 C 0.59012 0.81641 0.81575 0.0
O34 O 0.57933 0.82587 0.80009 0.0
O35 O 0.54781 0.78204 0.87004 0.0
O36 O 0.51855 0.78048 0.89087 0.0
O37 O 0.51298 0.81423 0.81279 0.0
O38 O 0.5043 0.79814 0.84311 0.0
C39 C 0.53702 0.77516 0.88693 0.0
C40 C 0.49733 0.80613 0.8249 0.0
O41 O 0.57949 0.8081 0.83223 0.0
Mg42 Mg 0.51748 0.25594 0.20826 0.0
O43 O 0.52123 0.22674 0.17763 0.0
O44 O 0.48858 0.21915 0.1528 0.0
Mg45 Mg 0.46425 0.24202 0.16517 0.0
C46 C 0.50794 0.21522 0.15857 0.0
C47 C 0.56853 0.25468 0.23178 0.0
O48 O 0.55668 0.23637 0.23903 0.0
O49 O 0.5201 0.2834 0.1823 0.0
O50 O 0.48761 0.27505 0.15716 0.0
O51 O 0.49829 0.27652 0.23426 0.0
O52 O 0.48084 0.25009 0.20323 0.0
C53 C 0.50744 0.28779 0.16489 0.0
C54 C 0.47926 0.26515 0.22148 0.0
O55 O 0.55785 0.26667 0.2198 0.0
Mg56 Mg 0.06533 0.80603 0.11877 0.0
O57 O 0.06282 0.76912 0.09401 0.0
O58 O 0.03079 0.76054 0.06843 0.0
Mg59 Mg 0.01145 0.78974 0.07817 0.0
C60 C 0.0487 0.75506 0.07684 0.0
C61 C 0.10645 0.79484 0.1474 0.0
O62 O 0.08845 0.77988 0.151 0.0
O63 O 0.06995 0.83274 0.09069 0.0
O64 O 0.03535 0.82272 0.06946 0.0
O65 O 0.04672 0.78676 0.14508 0.0
O66 O 0.02946 0.79941 0.11572 0.0
C67 C 0.05497 0.83666 0.07501 0.0
C68 C 0.02805 0.78882 0.13392 0.0
O69 O 0.10371 0.80909 0.13307 0.0
Mg70 Mg 0.4995 0.76157 0.42506 0.0
O71 O 0.50678 0.79888 0.44998 0.0
O72 O 0.48004 0.79767 0.47371 0.0
Mg73 Mg 0.45513 0.76035 0.46121 0.0
C74 C 0.49748 0.80906 0.46638 0.0
C75 C 0.5403 0.76004 0.39685 0.0
O76 O 0.5239 0.74446 0.38239 0.0
O77 O 0.50766 0.73761 0.45312 0.0
O78 O 0.47678 0.73358 0.47094 0.0
O79 O 0.48134 0.77734 0.39826 0.0
O80 O 0.46352 0.75722 0.42318 0.0
C81 C 0.49493 0.72727 0.46684 0.0
C82 C 0.46263 0.76959 0.40621 0.0
O83 O 0.53608 0.77009 0.41686 0.0
Mg84 Mg 0.5667 0.30608 0.62122 0.0
O85 O 0.56173 0.26906 0.59531 0.0
O86 O 0.52708 0.26143 0.57513 0.0
Mg87 Mg 0.5102 0.2923 0.58605 0.0
C88 C 0.54534 0.25511 0.58045 0.0
C89 C 0.60935 0.30651 0.65568 0.0
O90 O 0.59335 0.30857 0.66898 0.0
O91 O 0.56974 0.33325 0.59324 0.0
O92 O 0.53394 0.3243 0.57518 0.0
O93 O 0.54995 0.28672 0.6485 0.0
O94 O 0.53117 0.30126 0.62191 0.0
C95 C 0.55388 0.33763 0.57896 0.0
C96 C 0.53095 0.29018 0.63975 0.0
O97 O 0.60506 0.30669 0.63301 0.0
Mg98 Mg 1.00085 0.26387 0.92668 0.0
O99 O 0.00832 0.30116 0.95199 0.0
O100 O 0.98238 0.29917 0.97668 0.0
Mg101 Mg 0.9583 0.26148 0.96464 0.0
C102 C 0.99929 0.31097 0.96889 0.0
C103 C 0.0409 0.26113 0.89827 0.0
O104 O 0.0244 0.24484 0.88478 0.0
O105 O 0.01005 0.23947 0.95334 0.0
O106 O 0.98115 0.23549 0.97422 0.0
O107 O 0.98225 0.27988 0.90102 0.0
O108 O 0.96492 0.2588 0.92568 0.0
C109 C 0.99893 0.22938 0.96838 0.0
C110 C 0.96372 0.27157 0.90905 0.0
O111 O 0.03695 0.27244 0.91775 0.0
Mg112 Mg 0.39438 0.03698 0.31534 0.0
O113 O 0.36386 0.00606 0.30747 0.0
O114 O 0.34707 1.00408 0.3406 0.0
Mg115 Mg 0.36668 0.03484 0.36964 0.0
C116 C 0.34848 0.99623 0.31861 0.0
C117 C 0.39633 0.01377 0.26452 0.0
O118 O 0.39317 0.99624 0.27645 0.0
O119 O 0.3718 0.061 0.31376 0.0
O120 O 0.35526 0.06062 0.34737 0.0
O121 O 0.41493 0.01394 0.3269 0.0
O122 O 0.39654 0.03398 0.35103 0.0
C123 C 0.35853 0.06776 0.32755 0.0
C124 C 0.40826 0.01841 0.34776 0.0
O125 O 0.39716 0.03431 0.27557 0.0
Mg126 Mg 0.27107 0.1721 0.50296 0.0
O127 O 0.27318 0.19673 0.53955 0.0
O128 O 0.30757 0.2207 0.54743 0.0
Mg129 Mg 0.32806 0.2098 0.51747 0.0
C130 C 0.28797 0.21356 0.55313 0.0
C131 C 0.22674 0.13747 0.49775 0.0
O132 O 0.24197 0.12531 0.49414 0.0
O133 O 0.26982 0.20066 0.47927 0.0
O134 O 0.30628 0.21936 0.48669 0.0
O135 O 0.28374 0.14664 0.52299 0.0
O136 O 0.3057 0.17432 0.50843 0.0
C137 C 0.28661 0.21567 0.4747 0.0
C138 C 0.30378 0.15699 0.51987 0.0
O139 O 0.23289 0.1598 0.50112 0.0
Mg140 Mg 0.1337 0.04296 0.79054 0.0
O141 O 0.15951 0.0784 0.79572 0.0
O142 O 0.18287 0.08232 0.82997 0.0
Mg143 Mg 0.17181 0.04957 0.84694 0.0
C144 C 0.17646 0.08998 0.81113 0.0
C145 C 0.10223 0.04435 0.74404 0.0
O146 O 0.08757 0.04126 0.75932 0.0
O147 O 0.1602 0.02372 0.77974 0.0
O148 O 0.18137 0.02603 0.81519 0.0
O149 O 0.11052 0.0583 0.81276 0.0
O150 O 0.13736 0.04288 0.82759 0.0
C151 C 0.17627 0.01851 0.79237 0.0
C152 C 0.12104 0.05272 0.83129 0.0
O153 O 0.1229 0.04595 0.75139 0.0
Mg154 Mg 0.29631 0.94886 0.02139 0.0
O155 O 0.30181 0.92656 0.98687 0.0
O156 O 0.33345 0.91452 0.99436 0.0
Mg157 Mg 0.34694 0.9273 0.03423 0.0
C158 C 0.31631 0.91545 0.98002 0.0
C159 C 0.25664 0.95944 0.98835 0.0
O160 O 0.27291 0.97333 0.98037 0.0
O161 O 0.283 0.91568 0.0358 0.0
O162 O 0.31495 0.90369 0.04201 0.0
O163 O 0.31905 0.98054 0.01256 0.0
O164 O 0.32985 0.95606 0.03465 0.0
C165 C 0.29374 0.90087 0.04193 0.0
C166 C 0.33512 0.97393 0.02432 0.0
O167 O 0.26147 0.94756 0.00416 0.0
Mg168 Mg 0.29772 0.39913 0.0426 0.0
O169 O 0.29447 0.37173 0.00713 0.0
O170 O 0.32393 0.35558 0.01147 0.0
Mg171 Mg 0.34598 0.37266 0.048 0.0
C172 C 0.30611 0.35756 -0.00107 0.0
C173 C 0.26028 0.42432 0.03625 0.0
O174 O 0.27868 0.44101 0.04421 0.0
O175 O 0.28769 0.37188 0.06734 0.0
O176 O 0.31923 0.35903 0.07157 0.0
O177 O 0.3183 0.42648 0.02541 0.0
O178 O 0.33267 0.40419 0.04754 0.0
C179 C 0.29971 0.35971 0.07716 0.0
C180 C 0.33588 0.42039 0.03459 0.0
O181 O 0.26176 0.403 0.03337 0.0
Mg182 Mg 0.77983 0.11675 0.03888 0.0
O183 O 0.78211 0.14454 0.07199 0.0
O184 O 0.81458 0.17163 0.0751 0.0
Mg185 Mg 0.83372 0.15937 0.0451 0.0
C186 C 0.79591 0.16369 0.08241 0.0
C187 C 0.73116 0.0892 0.02192 0.0
O188 O 0.74124 0.0788 0.0056 0.0
O189 O 0.77384 0.14205 0.01457 0.0
O190 O 0.80734 0.16731 0.01776 0.0
O191 O 0.7953 0.09569 0.06169 0.0
O192 O 0.81394 0.12313 0.04354 0.0
C193 C 0.78655 0.15982 0.00885 0.0
C194 C 0.81431 0.10832 0.05802 0.0
O195 O 0.74283 0.10511 0.03886 0.0
Mg196 Mg 0.17597 0.52992 0.24653 0.0
O197 O 0.20112 0.5653 0.25862 0.0
O198 O 0.21473 0.57045 0.29788 0.0
Mg199 Mg 0.20123 0.53567 0.30926 0.0
C200 C 0.21347 0.57762 0.27774 0.0
C201 C 0.16991 0.55487 0.20466 0.0
O202 O 0.16988 0.57107 0.22333 0.0
O203 O 0.20503 0.5141 0.24242 0.0
O204 O 0.22044 0.51915 0.28108 0.0
O205 O 0.14866 0.5445 0.25915 0.0
O206 O 0.17098 0.52917 0.28217 0.0
C207 C 0.22051 0.51265 0.25843 0.0
C208 C 0.15519 0.54031 0.28023 0.0
O209 O 0.17398 0.53552 0.20832 0.0
Mg210 Mg 0.79908 0.89635 0.54438 0.0
O211 O 0.79661 0.86985 0.50842 0.0
O212 O 0.82763 0.85616 0.51243 0.0
Mg213 Mg 0.84834 0.87151 0.54997 0.0
C214 C 0.80952 0.85735 0.49984 0.0
C215 C 0.76059 0.91993 0.54197 0.0
O216 O 0.77807 0.93606 0.55396 0.0
O217 O 0.78909 0.86827 0.5678 0.0
O218 O 0.82108 0.85627 0.57237 0.0
O219 O 0.81939 0.92459 0.5282 0.0
O220 O 0.83409 0.90237 0.55018 0.0
C221 C 0.80127 0.85622 0.5775 0.0
C222 C 0.83709 0.91877 0.5375 0.0
O223 O 0.76308 0.89934 0.53486 0.0
Mg224 Mg 0.94402 0.02597 0.26713 0.0
O225 O 0.91575 0.99214 0.26601 0.0
O226 O 0.90073 0.99932 0.30013 0.0
Mg227 Mg 0.9181 0.03493 0.32271 0.0
C228 C 0.90146 0.98608 0.28029 0.0
C229 C 0.9515 0.03402 0.21557 0.0
O230 O 0.95063 0.05489 0.22669 0.0
O231 O 0.91726 0.04601 0.25768 0.0
O232 O 0.90342 0.05115 0.29272 0.0
O233 O 0.9694 0.01115 0.28777 0.0
O234 O 0.94736 0.03163 0.30475 0.0
C235 C 0.90392 0.05387 0.27081 0.0
C236 C 0.96215 0.01946 0.30718 0.0
O237 O 0.94839 0.01691 0.22704 0.0
Mg238 Mg 0.27966 0.61818 0.53786 0.0
O239 O 0.28401 0.64557 0.57192 0.0
O240 O 0.31913 0.66825 0.57691 0.0
Mg241 Mg 0.33615 0.65627 0.54486 0.0
C242 C 0.29978 0.66252 0.58366 0.0
C243 C 0.23032 0.59367 0.52146 0.0
O244 O 0.23961 0.58303 0.50453 0.0
O245 O 0.27577 0.64578 0.51584 0.0
O246 O 0.31077 0.66812 0.51957 0.0
O247 O 0.29331 0.59418 0.55869 0.0
O248 O 0.31349 0.62145 0.5416 0.0
C249 C 0.28984 0.66309 0.51103 0.0
C250 C 0.31281 0.60568 0.55504 0.0
O251 O 0.24271 0.60897 0.53846 0.0
Mg252 Mg 0.44657 0.52793 0.76968 0.0
O253 O 0.41976 0.49287 0.76827 0.0
O254 O 0.40423 0.49922 0.80206 0.0
Mg255 Mg 0.41933 0.53545 0.82437 0.0
C256 C 0.40571 0.48604 0.78249 0.0
C257 C 0.46269 0.53718 0.72322 0.0
O258 O 0.46907 0.55689 0.73908 0.0
O259 O 0.41899 0.54669 0.7593 0.0
O260 O 0.4042 0.55096 0.79387 0.0
O261 O 0.47271 0.51514 0.79197 0.0
O262 O 0.44949 0.535 0.80719 0.0
C263 C 0.40499 0.55386 0.77202 0.0
C264 C 0.46519 0.52423 0.81085 0.0
O265 O 0.45157 0.51904 0.72991 0.0
Mg266 Mg 0.67338 0.02957 0.74387 0.0
O267 O 0.6927 0.06719 0.75873 0.0
O268 O 0.7079 0.07204 0.79735 0.0
Mg269 Mg 0.699 0.03551 0.80669 0.0
C270 C 0.70397 0.08015 0.77812 0.0
C271 C 0.66257 0.05629 0.70502 0.0
O272 O 0.65893 0.06882 0.72482 0.0
O273 O 0.70582 0.01953 0.73967 0.0
O274 O 0.72012 0.02275 0.77842 0.0
O275 O 0.64309 0.03741 0.75635 0.0
O276 O 0.6686 0.0255 0.77902 0.0
C277 C 0.72128 0.01809 0.75578 0.0
C278 C 0.65077 0.03371 0.77726 0.0
O279 O 0.67028 0.03828 0.70661 0.0
Mg280 Mg 0.77118 0.67146 0.00545 0.0
O281 O 0.77656 0.6975 0.04196 0.0
O282 O 0.8128 0.71664 0.04816 0.0
Mg283 Mg 0.82993 0.70509 0.01558 0.0
C284 C 0.79342 0.71226 0.05511 0.0
C285 C 0.72235 0.6425 0.99314 0.0
O286 O 0.73267 0.63217 0.977 0.0
O287 O 0.77009 0.6999 0.9814 0.0
O288 O 0.80702 0.71652 0.98712 0.0
O289 O 0.7834 0.64567 0.0253 0.0
O290 O 0.80553 0.67102 0.00817 0.0
C291 C 0.7871 0.71423 0.97626 0.0
C292 C 0.80336 0.65451 0.02069 0.0
O293 O 0.73329 0.66139 0.00714 0.0
Mg294 Mg 0.88428 0.53335 0.80584 0.0
O295 O 0.86203 0.49677 0.80065 0.0
O296 O 0.84302 0.49324 0.83208 0.0
Mg297 Mg 0.85501 0.52785 0.85884 0.0
C298 C 0.84771 0.48497 0.81153 0.0
C299 C 0.89753 0.50886 0.76234 0.0
O300 O 0.89772 0.49533 0.77868 0.0
O301 O 0.85318 0.54504 0.79759 0.0
O302 O 0.83699 0.54516 0.83143 0.0
O303 O 0.9122 0.52216 0.82317 0.0
O304 O 0.8864 0.53507 0.84268 0.0
C305 C 0.83762 0.54878 0.80974 0.0
C306 C 0.90331 0.52539 0.8428 0.0
O307 O 0.8902 0.52727 0.76686 0.0
Mg308 Mg 0.79739 0.45975 0.51289 0.0
O309 O 0.80276 0.43474 0.48029 0.0
O310 O 0.83573 0.42537 0.48824 0.0
Mg311 Mg 0.8508 0.4435 0.52675 0.0
C312 C 0.81763 0.42386 0.47413 0.0
C313 C 0.75595 0.46626 0.48049 0.0
O314 O 0.77146 0.4818 0.47337 0.0
O315 O 0.78741 0.429 0.5321 0.0
O316 O 0.82093 0.42023 0.539 0.0
O317 O 0.81696 0.49022 0.49921 0.0
O318 O 0.83135 0.47008 0.52434 0.0
C319 C 0.79979 0.41633 0.54002 0.0
C320 C 0.83432 0.48615 0.51133 0.0
O321 O 0.76167 0.45453 0.49605 0.0
Mg322 Mg 0.63498 0.54392 0.29306 0.0
O323 O 0.66096 0.57918 0.29865 0.0
O324 O 0.68393 0.58248 0.33305 0.0
Mg325 Mg 0.67167 0.55053 0.35075 0.0
C326 C 0.67806 0.59029 0.31411 0.0
C327 C 0.60876 0.53058 0.24121 0.0
O328 O 0.59987 0.51278 0.25125 0.0
O329 O 0.66216 0.52494 0.28317 0.0
O330 O 0.6812 0.52659 0.31979 0.0
O331 O 0.61103 0.55884 0.31502 0.0
O332 O 0.63803 0.54388 0.33008 0.0
C333 C 0.67726 0.51932 0.2969 0.0
C334 C 0.62146 0.55329 0.33362 0.0
O335 O 0.62448 0.54701 0.25374 0.0
C336 C 0.99725 0.96285 0.97407 0.0
C337 C 0.98231 0.93782 0.00183 0.0
C338 C 0.99063 0.96039 0.9966 0.0
C339 C 0.9808 0.91784 0.98426 0.0
C340 C 0.99575 0.94278 0.95642 0.0
C341 C 0.9875 0.92031 0.96164 0.0
N342 N 0.00545 0.9848 0.96956 0.0
C343 C 0.01172 0.98796 0.94758 0.0
C344 C 1.00263 0.94588 0.93402 0.0
C345 C 0.01057 0.96857 0.92957 0.0
Gd346 Gd 0.06082 0.05259 0.04053 0.0
Gd347 Gd 1.00493 0.01577 0.00044 0.0
N348 N 0.99278 0.98002 0.01354 0.0
C349 C 0.97575 0.93598 0.0246 0.0
C350 C 0.98525 0.97833 0.03523 0.0
C351 C 0.97704 0.95635 0.04128 0.0
H352 H 0.98469 0.99374 0.0476 0.0
H353 H 0.97131 0.95514 0.05864 0.0
H354 H 0.08365 0.07457 0.99472 0.0
H355 H 0.01699 0.00537 0.94358 0.0
H356 H 0.09445 0.11283 0.98197 0.0
H357 H 0.96928 0.91896 0.02931 0.0
H358 H 0.97447 0.90037 0.98799 0.0
H359 H 0.04869 0.06351 0.09719 0.0
H360 H 1.0017 0.93089 0.91999 0.0
H361 H 0.01557 0.97114 0.91216 0.0
H362 H 0.083 0.16776 0.04848 0.0
H363 H 0.98622 0.9047 0.94828 0.0
H364 H 0.0573 0.13782 0.11748 0.0
H365 H 0.04694 0.09781 0.12707 0.0
N366 N 0.05891 0.08377 0.07051 0.0
C367 C 0.06544 0.10567 0.06516 0.0
C368 C 0.05267 0.0808 0.09254 0.0
C369 C 0.05792 0.1228 0.10419 0.0
C370 C 0.05196 0.10024 0.10964 0.0
C371 C 0.06485 0.12576 0.08178 0.0
H372 H 0.07065 0.16374 0.088 0.0
N373 N 0.07234 0.08818 0.02686 0.0
C374 C 0.07235 0.10794 0.04273 0.0
C375 C 0.08642 0.13202 0.01416 0.0
C376 C 0.07897 0.13037 0.03657 0.0
C377 C 0.08106 0.08984 0.0058 0.0
C378 C 0.08782 0.11168 -0.00111 0.0
O379 O 0.03116 0.99462 0.00948 0.0
O380 O 0.05173 0.01439 0.046 0.0
O381 O 0.09553 0.05406 0.036 0.0
O382 O 0.08624 0.05867 0.07203 0.0
O383 O 1.00317 0.03409 0.03847 0.0
O384 O 0.03606 0.03226 0.06046 0.0
O385 O 0.03337 0.07243 0.03217 0.0
O386 O 0.0148 0.05396 0.99464 0.0
O387 O 0.97044 0.01412 0.00557 0.0
O388 O 0.97929 0.01089 0.96932 0.0
O389 O 0.06273 0.03448 0.00246 0.0
O390 O 0.02971 0.03567 0.98036 0.0
C391 C 0.04382 0.9948 0.02998 0.0
C392 C 0.01486 0.03307 0.05901 0.0
C393 C 0.11321 0.03647 0.06473 0.0
C394 C 0.13408 0.00742 0.05162 0.0
C395 C 0.12255 0.01059 0.09162 0.0
C396 C 0.11265 0.02888 0.08711 0.0
C397 C 0.13319 0.99984 0.07399 0.0
C398 C 0.12403 0.02569 0.04717 0.0
C399 C 0.1017 0.05473 0.05896 0.0
C400 C 0.07813 0.15039 0.05298 0.0
C401 C 0.07111 0.1481 0.07551 0.0
H402 H 0.09169 0.14894 0.00876 0.0
C403 C 0.02234 0.07325 0.01111 0.0
C404 C 0.05109 0.03566 0.98196 0.0
C405 C 0.95236 0.0327 0.97847 0.0
C406 C 0.93086 0.06 0.99421 0.0
C407 C 0.94524 0.06286 0.95606 0.0
C408 C 0.95474 0.04375 0.95822 0.0
C409 C 0.93348 0.07113 0.97408 0.0
C410 C 0.94007 0.0407 0.99606 0.0
C411 C 0.96398 0.01421 0.98284 0.0
H412 H 0.12203 0.00478 0.10887 0.0
H413 H 0.10441 0.03688 0.10102 0.0
H414 H 0.14113 0.98601 0.07808 0.0
H415 H 0.12438 0.03129 0.02978 0.0
H416 H 0.94718 0.07141 0.94052 0.0
H417 H 0.96422 0.03796 0.94434 0.0
H418 H 0.92625 0.08599 0.97216 0.0
H419 H 0.93835 0.0324 0.01184 0.0
C420 C 0.31986 0.74308 0.21954 0.0
C421 C 0.29103 0.72571 0.1849 0.0
C422 C 0.29947 0.74284 0.20603 0.0
C423 C 0.30289 0.70858 0.17806 0.0
C424 C 0.3318 0.72591 0.2127 0.0
C425 C 0.32318 0.70865 0.19194 0.0
N426 N 0.32775 0.75979 0.23974 0.0
C427 C 0.34755 0.76064 0.25366 0.0
C428 C 0.35205 0.72653 0.22702 0.0
C429 C 0.35997 0.74401 0.24756 0.0
Gd430 Gd 0.26661 0.7805 0.30246 0.0
Gd431 Gd 0.30613 0.7871 0.24841 0.0
N432 N 0.28817 0.75955 0.21323 0.0
C433 C 0.27115 0.72656 0.17092 0.0
C434 C 0.26966 0.76134 0.19858 0.0
C435 C 0.26063 0.74466 0.17761 0.0
H436 H 0.2621 0.77595 0.20213 0.0
H437 H 0.24579 0.74608 0.16633 0.0
H438 H 0.30965 0.78826 0.34874 0.0
H439 H 0.35395 0.7744 0.26924 0.0
H440 H 0.32877 0.81815 0.38377 0.0
H441 H 0.26419 0.71379 0.15454 0.0
H442 H 0.29659 0.69529 0.16193 0.0
H443 H 0.21949 0.79547 0.28399 0.0
H444 H 0.36172 0.71366 0.22234 0.0
H445 H 0.37568 0.74474 0.25864 0.0
H446 H 0.28277 0.87386 0.38902 0.0
H447 H 0.33213 0.69533 0.1864 0.0
H448 H 0.21588 0.85788 0.33124 0.0
H449 H 0.19961 0.8266 0.29556 0.0
N450 N 0.24677 0.80927 0.3125 0.0
C451 C 0.25583 0.82601 0.3324 0.0
C452 C 0.22678 0.80918 0.29942 0.0
C453 C 0.22467 0.84428 0.3262 0.0
C454 C 0.21545 0.8267 0.30602 0.0
C455 C 0.24509 0.8441 0.33969 0.0
H456 H 0.24711 0.87553 0.36588 0.0
N457 N 0.28598 0.80737 0.33762 0.0
C458 C 0.27619 0.82524 0.3451 0.0
C459 C 0.30559 0.84018 0.37941 0.0
C460 C 0.28594 0.84232 0.36595 0.0
C461 C 0.30386 0.80408 0.35211 0.0
C462 C 0.31432 0.82071 0.37271 0.0
O463 O 0.297 0.75079 0.25758 0.0
O464 O 0.26414 0.756 0.26777 0.0
O465 O 0.26273 0.75571 0.32726 0.0
O466 O 0.23333 0.76339 0.30883 0.0
O467 O 0.27172 0.79648 0.24184 0.0
O468 O 0.24788 0.7751 0.26427 0.0
O469 O 0.27505 0.81591 0.292 0.0
O470 O 0.30925 0.81383 0.28193 0.0
O471 O 0.30881 0.8138 0.22609 0.0
O472 O 0.33847 0.8023 0.23793 0.0
O473 O 0.30065 0.77026 0.30764 0.0
O474 O 0.32433 0.79378 0.28691 0.0
C475 C 0.27777 0.74237 0.26437 0.0
C476 C 0.2513 0.78798 0.24711 0.0
C477 C 0.23234 0.7576 0.34922 0.0
C478 C 0.23201 0.7504 0.39048 0.0
C479 C 0.20886 0.77483 0.37521 0.0
C480 C 0.21684 0.77165 0.35297 0.0
C481 C 0.21632 0.7642 0.39391 0.0
C482 C 0.2398 0.74704 0.36805 0.0
C483 C 0.24109 0.7538 0.32603 0.0
C484 C 0.27544 0.86055 0.37314 0.0
C485 C 0.25507 0.86144 0.36004 0.0
H486 H 0.31356 0.85289 0.39555 0.0
C487 C 0.29403 0.82576 0.28545 0.0
C488 C 0.32109 0.78031 0.30354 0.0
C489 C 0.33397 0.80963 0.19786 0.0
C490 C 0.32303 0.81088 0.15535 0.0
C491 C 0.35629 0.79716 0.1676 0.0
C492 C 0.35257 0.80098 0.1917 0.0
C493 C 0.34171 0.80217 0.1495 0.0
C494 C 0.31921 0.81426 0.17954 0.0
C495 C 0.32952 0.81363 0.22313 0.0
H496 H 0.1969 0.78562 0.37799 0.0
H497 H 0.21085 0.78017 0.3388 0.0
H498 H 0.21011 0.76702 0.41111 0.0
H499 H 0.25159 0.73601 0.36516 0.0
H500 H 0.3707 0.79058 0.16296 0.0
H501 H 0.3642 0.79715 0.20545 0.0
H502 H 0.34542 0.79979 0.13108 0.0
H503 H 0.30462 0.82054 0.18412 0.0
C504 C 0.5877 0.08753 0.49981 0.0
C505 C 0.61833 0.10411 0.53307 0.0
C506 C 0.60002 0.0856 0.52136 0.0
C507 C 0.62412 0.12446 0.52294 0.0
C508 C 0.59353 0.10796 0.48966 0.0
C509 C 0.6118 0.12636 0.5013 0.0
N510 N 0.5695 0.0698 0.48935 0.0
C511 C 0.55744 0.07079 0.46796 0.0
C512 C 0.58075 0.10937 0.46814 0.0
C513 C 0.56275 0.09065 0.45718 0.0
Gd514 Gd 0.50195 0.02755 0.53398 0.0
Gd515 Gd 0.56371 0.03695 0.50847 0.0
N516 N 0.5938 0.06593 0.53112 0.0
C517 C 0.63017 0.10169 0.55476 0.0
C518 C 0.60591 0.06301 0.55157 0.0
C519 C 0.62403 0.08097 0.56395 0.0
H520 H 0.6021 0.04647 0.55774 0.0
H521 H 0.63345 0.07867 0.58035 0.0
H522 H 0.46268 0.99749 0.48787 0.0
H523 H 0.54396 0.05626 0.45878 0.0
H524 H 0.44073 0.95649 0.47335 0.0
H525 H 0.64427 0.11556 0.56435 0.0
H526 H 0.6381 0.13887 0.53172 0.0
H527 H 0.51699 0.03197 0.5953 0.0
H528 H 0.58476 0.12475 0.45973 0.0
H529 H 0.55304 0.09142 0.4403 0.0
H530 H 0.45975 0.916 0.53707 0.0
H531 H 0.61648 0.1422 0.49376 0.0
H532 H 0.50348 0.96224 0.61035 0.0
H533 H 0.51901 0.00497 0.62386 0.0
N534 N 0.50324 0.00463 0.56461 0.0
C535 C 0.49261 0.98145 0.55738 0.0
C536 C 0.51128 0.01329 0.58857 0.0
C537 C 0.50314 0.97396 0.5974 0.0
C538 C 0.51199 0.99806 0.60509 0.0
C539 C 0.49265 0.96546 0.57352 0.0
H540 H 0.48149 0.92918 0.57781 0.0
N541 N 0.4793 0.98978 0.51942 0.0
C542 C 0.48002 0.97392 0.53438 0.0
C543 C 0.45386 0.944 0.50449 0.0
C544 C 0.46764 0.9504 0.52701 0.0
C545 C 0.46444 0.9842 0.49847 0.0
C546 C 0.45191 0.96109 0.49038 0.0
O547 O 0.55342 0.0713 0.52353 0.0
O548 O 0.5214 0.06599 0.5434 0.0
O549 O 0.47407 0.04158 0.52027 0.0
O550 O 0.47549 0.03157 0.55545 0.0
O551 O 0.55601 0.02395 0.54258 0.0
O552 O 0.53263 0.04319 0.56163 0.0
O553 O 0.50989 0.99691 0.50861 0.0
O554 O 0.54806 1.0013 0.51856 0.0
O555 O 0.59573 0.02691 0.50971 0.0
O556 O 0.57455 0.0227 0.47538 0.0
O557 O 0.51321 0.0428 0.5021 0.0
O558 O 0.53381 0.02351 0.47974 0.0
C559 C 0.53884 0.07954 0.53627 0.0
C560 C 0.55195 0.03736 0.56135 0.0
C561 C 0.46193 0.06488 0.55161 0.0
C562 C 0.43764 0.0921 0.55616 0.0
C563 C 0.47362 0.1006 0.58198 0.0
C564 C 0.47781 0.07977 0.57043 0.0
C565 C 0.45352 0.10667 0.57505 0.0
C566 C 0.44196 0.07129 0.54425 0.0
C567 C 0.46575 0.04225 0.54056 0.0
C568 C 0.4689 0.93422 0.54254 0.0
C569 C 0.48135 0.94173 0.56573 0.0
H570 H 0.44412 0.92608 0.49819 0.0
C571 C 0.52762 0.98777 0.51064 0.0
C572 C 0.51507 0.03002 0.48189 0.0
C573 C 0.59653 0.99475 0.47949 0.0
C574 C 0.62005 0.96678 0.484 0.0
C575 C 0.58729 0.95678 0.45274 0.0
C576 C 0.58257 0.9785 0.46018 0.0
C577 C 0.60594 0.95099 0.46438 0.0
C578 C 0.61514 0.98871 0.49144 0.0
C579 C 0.59243 0.01835 0.48663 0.0
H580 H 0.48588 0.11194 0.59648 0.0
H581 H 0.49337 0.07519 0.57636 0.0
H582 H 0.45038 0.12279 0.58433 0.0
H583 H 0.42959 0.05989 0.52981 0.0
H584 H 0.57662 0.94449 0.43766 0.0
H585 H 0.56813 0.9826 0.45059 0.0
H586 H 0.60949 0.93427 0.45761 0.0
H587 H 0.62574 1.00113 0.50651 0.0
C588 C 0.23734 0.30225 0.71999 0.0
C589 C 0.21245 0.26504 0.69988 0.0
C590 C 0.22761 0.27871 0.72006 0.0
C591 C 0.2076 0.27515 0.67959 0.0
C592 C 0.23254 0.31244 0.69967 0.0
C593 C 0.21762 0.29876 0.67948 0.0
N594 N 0.25216 0.31494 0.73951 0.0
C595 C 0.26236 0.33796 0.74021 0.0
C596 C 0.24305 0.33604 0.70016 0.0
C597 C 0.25798 0.34886 0.72056 0.0
Gd598 Gd 0.31445 0.27016 0.77542 0.0
Gd599 Gd 0.25856 0.29525 0.77144 0.0
N600 N 0.23296 0.26925 0.73982 0.0
C601 C 0.20238 0.24166 0.70077 0.0
C602 C 0.22198 0.24698 0.74136 0.0
C603 C 0.20694 0.23271 0.72174 0.0
H604 H 0.22403 0.24028 0.75785 0.0
H605 H 0.19855 0.21494 0.72297 0.0
H606 H 0.35019 0.32413 0.79213 0.0
H607 H 0.27366 0.34797 0.75608 0.0
H608 H 0.37716 0.34662 0.82731 0.0
H609 H 0.19063 0.23059 0.68565 0.0
H610 H 0.19604 0.26486 0.66391 0.0
H611 H 0.29811 0.21569 0.78688 0.0
H612 H 0.23976 0.34452 0.68491 0.0
H613 H 0.2661 0.36713 0.72116 0.0
H614 H 0.37934 0.29165 0.88115 0.0
H615 H 0.21373 0.30628 0.66369 0.0
H616 H 0.33262 0.21363 0.8561 0.0
H617 H 0.30522 0.19385 0.81964 0.0
N618 N 0.3205 0.24769 0.80507 0.0
C619 C 0.33602 0.25877 0.82467 0.0
C620 C 0.30967 0.22462 0.80297 0.0
C621 C 0.32944 0.22334 0.84185 0.0
C622 C 0.31389 0.21214 0.82135 0.0
C623 C 0.34077 0.24691 0.8437 0.0
H624 H 0.36026 0.25015 0.87885 0.0
N625 N 0.34123 0.29349 0.80765 0.0
C626 C 0.34664 0.28233 0.82603 0.0
C627 C 0.37319 0.31793 0.847 0.0
C628 C 0.36249 0.29439 0.84638 0.0
C629 C 0.35261 0.31599 0.80758 0.0
C630 C 0.36842 0.32867 0.82737 0.0
O631 O 0.2748 0.28901 0.73724 0.0
O632 O 0.28759 0.25663 0.74272 0.0
O633 O 0.34299 0.27649 0.75421 0.0
O634 O 0.33007 0.24221 0.76389 0.0
O635 O 0.25729 0.26215 0.78729 0.0
O636 O 0.28074 0.24404 0.76623 0.0
O637 O 0.30102 0.27913 0.8113 0.0
O638 O 0.28424 0.30907 0.80498 0.0
O639 O 0.22882 0.28937 0.79042 0.0
O640 O 0.24326 0.32395 0.78212 0.0
O641 O 0.31702 0.30502 0.76222 0.0
O642 O 0.29168 0.32189 0.78172 0.0
C643 C 0.28094 0.26997 0.72837 0.0
C644 C 0.26457 0.2434 0.7798 0.0
C645 C 0.3604 0.24375 0.73995 0.0
C646 C 0.39402 0.24547 0.71985 0.0
C647 C 0.37142 0.20782 0.72476 0.0
C648 C 0.3568 0.2191 0.73633 0.0
C649 C 0.38995 0.22087 0.71669 0.0
C650 C 0.37902 0.25701 0.73131 0.0
C651 C 0.34444 0.2547 0.75287 0.0
C652 C 0.36726 0.28262 0.86536 0.0
C653 C 0.35643 0.25896 0.86403 0.0
H654 H 0.38548 0.3278 0.86228 0.0
C655 C 0.29231 0.29671 0.8196 0.0
C656 C 0.30943 0.32349 0.77034 0.0
C657 C 0.21094 0.32163 0.80351 0.0
C658 C 0.17975 0.31937 0.82738 0.0
C659 C 0.19699 0.35633 0.81583 0.0
C660 C 0.21184 0.34561 0.80397 0.0
C661 C 0.18113 0.34339 0.82752 0.0
C662 C 0.19462 0.30841 0.81508 0.0
C663 C 0.22793 0.31132 0.79201 0.0
H664 H 0.36844 0.18886 0.72215 0.0
H665 H 0.34259 0.20838 0.74247 0.0
H666 H 0.40117 0.21168 0.70785 0.0
H667 H 0.38211 0.276 0.73393 0.0
H668 H 0.19786 0.37481 0.81606 0.0
H669 H 0.22419 0.35624 0.79531 0.0
H670 H 0.1697 0.35215 0.83651 0.0
H671 H 0.19382 0.28995 0.81505 0.0
C672 C 0.01035 0.08463 0.57756 0.0
C673 C 0.04519 0.10889 0.60118 0.0
C674 C 0.03356 0.09352 0.57989 0.0
C675 C 0.03323 0.11514 0.62004 0.0
C676 C 0.99832 0.09082 0.59649 0.0
C677 C 0.00987 0.10613 0.6177 0.0
N678 N 0.99965 0.06947 0.55704 0.0
C679 C 0.97693 0.06031 0.55397 0.0
C680 C 0.97502 0.08128 0.59359 0.0
C681 C 0.96429 0.06602 0.57221 0.0
Gd682 Gd 0.04257 0.9998 0.52152 0.0
Gd683 Gd 0.02232 0.06098 0.52769 0.0
N684 N 0.04481 0.08659 0.5616 0.0
C685 C 0.06852 0.11748 0.60291 0.0
C686 C 0.06737 0.09566 0.56281 0.0
C687 C 0.07961 0.11099 0.58356 0.0
H688 H 0.076 0.09151 0.54778 0.0
H689 H 0.09757 0.11793 0.58452 0.0
H690 H 0.99 0.96421 0.51214 0.0
H691 H 0.96846 0.04898 0.53726 0.0
H692 H 0.96367 0.93786 0.47834 0.0
H693 H 0.07806 0.12933 0.61897 0.0
H694 H 0.0419 0.1269 0.63655 0.0
H695 H 0.09306 0.01014 0.50306 0.0
H696 H 0.96518 0.08563 0.60771 0.0
H697 H 0.94626 0.05872 0.56971 0.0
H698 H 0.00844 0.93171 0.414 0.0
H699 H 1.00091 0.11107 0.63245 0.0
H700 H 0.08635 0.97297 0.43049 0.0
H701 H 0.10996 0.9999 0.46628 0.0
N702 N 0.06031 0.98971 0.48806 0.0
C703 C 0.04716 0.9744 0.46886 0.0
C704 C 0.08263 0.99864 0.48745 0.0
C705 C 0.07888 0.97744 0.44658 0.0
C706 C 0.09225 0.9927 0.46672 0.0
C707 C 0.05604 0.96804 0.44748 0.0
H708 H 0.04835 0.94775 0.41105 0.0
N709 N 0.0165 0.9724 0.49131 0.0
C710 C 0.02456 0.96566 0.47046 0.0
C711 C 0.98802 0.94044 0.45346 0.0
C712 C 0.01041 0.94987 0.4508 0.0
C713 C 0.99535 0.9616 0.49466 0.0
C714 C 0.98061 0.94598 0.47567 0.0
O715 O 0.02959 0.04654 0.56202 0.0
O716 O 0.05785 0.02837 0.55358 0.0
O717 O 0.0354 0.97138 0.54308 0.0
O718 O 0.06788 0.98122 0.53026 0.0
O719 O 0.05456 0.06007 0.51192 0.0
O720 O 0.07046 0.03307 0.52888 0.0
O721 O 0.03654 0.01516 0.48748 0.0
O722 O 0.00772 0.03293 0.4949 0.0
O723 O 0.03299 0.09057 0.50863 0.0
O724 O 0.99855 0.08067 0.51696 0.0
O725 O 0.01057 1.00191 0.53792 0.0
O726 O 0.99529 0.02748 0.51823 0.0
C727 C 0.04667 0.03799 0.56911 0.0
C728 C 0.072 0.0516 0.51819 0.0
C729 C 0.06444 0.94985 0.55363 0.0
C730 C 0.06195 0.91908 0.57869 0.0
C731 C 0.0964 0.93282 0.56207 0.0
C732 C 0.08669 0.94846 0.5512 0.0
C733 C 0.08423 0.91832 0.57571 0.0
C734 C 0.05187 0.93481 0.56731 0.0
C735 C 0.0555 0.96771 0.54229 0.0
C736 C 0.01911 0.94369 0.42934 0.0
C737 C 0.04187 0.95275 0.42769 0.0
H738 H 0.97661 0.92824 0.4388 0.0
C739 C 0.01889 0.02256 0.47983 0.0
C740 C 0.9932 0.00985 0.53009 0.0
C741 C 0.00624 0.11368 0.49605 0.0
C742 C 0.0139 0.14674 0.47444 0.0
C743 C 0.97714 0.13434 0.48683 0.0
C744 C 0.98422 0.1167 0.49694 0.0
C745 C 0.99185 0.1493 0.47572 0.0
C746 C 0.02116 0.12879 0.48456 0.0
C747 C 0.01294 0.09473 0.50732 0.0
H748 H 0.11354 0.93198 0.55998 0.0
H749 H 0.09681 0.95962 0.54092 0.0
H750 H 0.09227 0.90624 0.58385 0.0
H751 H 0.03474 0.93567 0.5695 0.0
H752 H 0.96016 0.13647 0.4877 0.0
H753 H 0.97236 0.10543 0.50556 0.0
H754 H 0.98602 0.16299 0.46806 0.0
H755 H 0.03819 0.12679 0.48368 0.0
C756 C 0.23618 0.74303 0.8156 0.0
C757 C 0.20976 0.7122 0.78639 0.0
C758 C 0.2308 0.72851 0.79297 0.0
C759 C 0.19388 0.71116 0.8026 0.0
C760 C 0.22055 0.74135 0.83225 0.0
C761 C 0.19925 0.72571 0.82545 0.0
N762 N 0.25708 0.75773 0.82183 0.0
C763 C 0.26406 0.76942 0.84511 0.0
C764 C 0.22707 0.75484 0.85554 0.0
C765 C 0.24905 0.76863 0.8621 0.0
Gd766 Gd 0.28732 0.81451 0.76131 0.0
Gd767 Gd 0.28063 0.75732 0.79156 0.0
N768 N 0.24634 0.7301 0.77748 0.0
C769 C 0.20549 0.69716 0.76387 0.0
C770 C 0.2428 0.71475 0.75604 0.0
C771 C 0.22218 0.69827 0.74874 0.0
H772 H 0.25585 0.71549 0.74456 0.0
H773 H 0.2192 0.6864 0.73153 0.0
H774 H 0.30004 0.8578 0.81078 0.0
H775 H 0.28136 0.77884 0.85099 0.0
H776 H 0.33281 0.88892 0.83137 0.0
H777 H 0.18953 0.68437 0.75817 0.0
H778 H 0.17754 0.69887 0.79782 0.0
H779 H 0.30039 0.79417 0.70761 0.0
H780 H 0.21557 0.75402 0.86886 0.0
H781 H 0.25458 0.77827 0.8804 0.0
H782 H 0.3872 0.8885 0.77634 0.0
H783 H 0.187 0.72432 0.83797 0.0
H784 H 0.36617 0.83353 0.70143 0.0
H785 H 0.33208 0.80205 0.68416 0.0
N786 N 0.31685 0.82003 0.73824 0.0
C787 C 0.33495 0.8381 0.74767 0.0
C788 C 0.31539 0.80752 0.71553 0.0
C789 C 0.35236 0.83004 0.71186 0.0
C790 C 0.3332 0.81216 0.70209 0.0
C791 C 0.35338 0.84334 0.73486 0.0
H792 H 0.38665 0.86566 0.73599 0.0
N793 N 0.31684 0.84585 0.78207 0.0
C794 C 0.33518 0.85098 0.77047 0.0
C795 C 0.35333 0.88271 0.80351 0.0
C796 C 0.35398 0.86946 0.78098 0.0
C797 C 0.31549 0.85991 0.8031 0.0
C798 C 0.33386 0.87812 0.81445 0.0
O799 O 0.24937 0.76289 0.76879 0.0
O800 O 0.25492 0.80271 0.77685 0.0
O801 O 0.2806 0.84853 0.7578 0.0
O802 O 0.26809 0.81823 0.72813 0.0
O803 O 0.29251 0.75682 0.75563 0.0
O804 O 0.27363 0.77955 0.7361 0.0
O805 O 0.31871 0.79933 0.76685 0.0
O806 O 0.31512 0.78308 0.80111 0.0
O807 O 0.29648 0.72825 0.78091 0.0
O808 O 0.28831 0.73612 0.81767 0.0
O809 O 0.27765 0.81759 0.79905 0.0
O810 O 0.29506 0.7921 0.81614 0.0
C811 C 0.24115 0.78177 0.77054 0.0
C812 C 0.28165 0.76072 0.73609 0.0
C813 C 0.25957 0.85516 0.7217 0.0
C814 C 0.24205 0.88811 0.71927 0.0
C815 C 0.24878 0.86473 0.68262 0.0
C816 C 0.25794 0.85055 0.69641 0.0
C817 C 0.24095 0.88341 0.69391 0.0
C818 C 0.25166 0.87395 0.7331 0.0
C819 C 0.26963 0.84043 0.7361 0.0
C820 C 0.37258 0.87443 0.76849 0.0
C821 C 0.37225 0.86148 0.74547 0.0
H822 H 0.36744 0.89701 0.81221 0.0
C823 C 0.32784 0.7927 0.7861 0.0
C824 C 0.28736 0.81114 0.81789 0.0
C825 C 0.30583 0.70353 0.80967 0.0
C826 C 0.32273 0.67032 0.80043 0.0
C827 C 0.31373 0.6811 0.84079 0.0
C828 C 0.30552 0.69947 0.83355 0.0
C829 C 0.32221 0.66652 0.82432 0.0
C830 C 0.31468 0.68896 0.7931 0.0
C831 C 0.2968 0.72292 0.80247 0.0
H832 H 0.2478 0.86127 0.66311 0.0
H833 H 0.26402 0.83618 0.68734 0.0
H834 H 0.23418 0.89428 0.68273 0.0
H835 H 0.25248 0.87712 0.75263 0.0
H836 H 0.31343 0.6781 0.8592 0.0
H837 H 0.2989 0.71047 0.84669 0.0
H838 H 0.32844 0.65223 0.83022 0.0
H839 H 0.31505 0.69183 0.77461 0.0
C840 C 0.56551 0.99108 0.08151 0.0
C841 C 0.58544 0.02002 0.11653 0.0
C842 C 0.56966 0.01352 0.09519 0.0
C843 C 0.59683 1.00361 0.12398 0.0
C844 C 0.57673 0.97447 0.08911 0.0
C845 C 0.59247 0.98089 0.11032 0.0
N846 N 0.5502 0.98531 0.06105 0.0
C847 C 0.54448 0.96295 0.0481 0.0
C848 C 0.57157 0.95176 0.07533 0.0
C849 C 0.55523 0.94594 0.05485 0.0
Gd850 Gd 0.53933 0.05526 0.99409 0.0
Gd851 Gd 0.53235 0.01465 0.05167 0.0
N852 N 0.55862 0.02917 0.08729 0.0
C853 C 0.58937 0.04284 0.12975 0.0
C854 C 0.56222 0.05137 0.10036 0.0
C855 C 0.57767 0.05855 0.12164 0.0
H856 H 0.55344 0.06377 0.09451 0.0
H857 H 0.58053 0.07623 0.13179 0.0
H858 H 0.51056 1.00059 0.96316 0.0
H859 H 0.53122 0.95804 0.03279 0.0
H860 H 0.48151 0.9837 0.92837 0.0
H861 H 0.60136 0.04849 0.14623 0.0
H862 H 0.60901 0.00829 0.14031 0.0
H863 H 0.5382 0.11113 0.00751 0.0
H864 H 0.57979 0.9385 0.0806 0.0
H865 H 0.55073 0.92828 0.04439 0.0
H866 H 0.45615 0.04973 0.9069 0.0
H867 H 0.60127 0.96837 0.11639 0.0
H868 H 0.48809 0.12511 0.95699 0.0
H869 H 0.51776 0.13894 0.99267 0.0
N870 N 0.52006 0.08203 0.98106 0.0
C871 C 0.50399 0.07408 0.96141 0.0
C872 C 0.52501 0.10492 0.99231 0.0
C873 C 0.49698 0.11288 0.96355 0.0
C874 C 0.51362 0.12072 0.98375 0.0
C875 C 0.49189 0.08928 0.95216 0.0
H876 H 0.46545 0.0918 0.9248 0.0
N877 N 0.51029 0.03624 0.9615 0.0
C878 C 0.49899 0.05047 0.95123 0.0
C879 C 0.47554 0.01711 0.92294 0.0
C880 C 0.48138 0.04132 0.93166 0.0
C881 C 0.50357 0.01242 0.95392 0.0
C882 C 0.4865 1.00257 0.93435 0.0
O883 O 0.56935 0.02993 0.05244 0.0
O884 O 0.55065 0.0416 0.02491 0.0
O885 O 0.56345 0.05641 0.96879 0.0
O886 O 0.56691 0.08608 0.99785 0.0
O887 O 0.52633 0.05213 0.05856 0.0
O888 O 0.54147 0.07673 0.03182 0.0
O889 O 0.50491 0.04812 0.004 0.0
O890 O 0.51148 0.01557 0.01637 0.0
O891 O 0.50815 0.01764 0.07677 0.0
O892 O 0.50776 0.98375 0.0558 0.0
O893 O 0.54677 0.01894 0.98548 0.0
O894 O 0.53713 0.99476 0.01471 0.0
C895 C 0.5704 0.0421 0.03555 0.0
C896 C 0.53285 0.07307 0.05203 0.0
C897 C 0.57764 0.09403 0.96025 0.0
C898 C 0.58972 0.10033 0.92167 0.0
C899 C 0.57562 0.13012 0.94561 0.0
C900 C 0.57263 0.11625 0.96348 0.0
C901 C 0.58402 0.12217 0.92466 0.0
C902 C 0.58635 0.08636 0.93945 0.0
C903 C 0.57376 0.0782 0.97784 0.0
C904 C 0.46965 0.05646 0.92197 0.0
C905 C 0.4749 0.08039 0.9322 0.0
H906 H 0.46211 0.00939 0.90798 0.0
C907 C 0.49808 0.02987 0.01404 0.0
C908 C 0.5442 0.99868 0.99369 0.0
C909 C 0.49921 0.98461 0.09561 0.0
C910 C 0.48254 0.98039 0.13227 0.0
C911 C 0.511 0.9594 0.12202 0.0
C912 C 0.51246 0.96897 0.10101 0.0
C913 C 0.49604 0.96498 0.1376 0.0
C914 C 0.48438 0.99036 0.11139 0.0
C915 C 0.50031 0.99495 0.07361 0.0
H916 H 0.57153 0.14711 0.94805 0.0
H917 H 0.56645 0.12296 0.97969 0.0
H918 H 0.58647 0.13323 0.91108 0.0
H919 H 0.59021 0.06921 0.93693 0.0
H920 H 0.52132 0.94744 0.12611 0.0
H921 H 0.52374 0.96385 0.08902 0.0
H922 H 0.495 0.95729 0.15379 0.0
H923 H 0.47387 1.00213 0.10709 0.0
C924 C 0.35315 0.3276 0.30965 0.0
C925 C 0.37145 0.348 0.2802 0.0
C926 C 0.35163 0.3367 0.28828 0.0
C927 C 0.39258 0.34976 0.29352 0.0
C928 C 0.37433 0.32989 0.32335 0.0
C929 C 0.39401 0.34087 0.31508 0.0
N930 N 0.33392 0.31616 0.31685 0.0
C931 C 0.33446 0.30827 0.33831 0.0
C932 C 0.3751 0.32092 0.34492 0.0
C933 C 0.35506 0.31024 0.35252 0.0
Gd934 Gd 0.27083 0.25416 0.25643 0.0
Gd935 Gd 0.30042 0.3165 0.29356 0.0
N936 N 0.33089 0.33515 0.27588 0.0
C937 C 0.36947 0.35773 0.25923 0.0
C938 C 0.32894 0.3462 0.25648 0.0
C939 C 0.34813 0.35707 0.24751 0.0
H940 H 0.3128 0.34757 0.24827 0.0
H941 H 0.34644 0.36544 0.23189 0.0
H942 H 0.25197 0.22755 0.30083 0.0
H943 H 0.31901 0.30088 0.34473 0.0
H944 H 0.21571 0.20735 0.31135 0.0
H945 H 0.3843 0.36648 0.25241 0.0
H946 H 0.40794 0.35834 0.28749 0.0
H947 H 0.25958 0.26471 0.19947 0.0
H948 H 0.39105 0.3224 0.35597 0.0
H949 H 0.35546 0.30376 0.36943 0.0
H950 H 0.16161 0.20757 0.24362 0.0
H951 H 0.41043 0.34263 0.32528 0.0
H952 H 0.18847 0.24243 0.1778 0.0
H953 H 0.22644 0.26081 0.16953 0.0
N954 N 0.24066 0.25152 0.22604 0.0
C955 C 0.22009 0.24011 0.23035 0.0
C956 C 0.24314 0.25812 0.20413 0.0
C957 C 0.20298 0.24476 0.1914 0.0
C958 C 0.22435 0.25529 0.18673 0.0
C959 C 0.20067 0.23665 0.21323 0.0
H960 H 0.16453 0.22232 0.20537 0.0
N961 N 0.23726 0.23544 0.26827 0.0
C962 C 0.21838 0.23161 0.25193 0.0
C963 C 0.19636 0.21129 0.27876 0.0
C964 C 0.19732 0.21971 0.25693 0.0
C965 C 0.23666 0.22618 0.28895 0.0
C966 C 0.21617 0.21434 0.29473 0.0
O967 O 0.3213 0.28878 0.28634 0.0
O968 O 0.30597 0.26974 0.24838 0.0
O969 O 0.28142 0.22271 0.26208 0.0
O970 O 0.26484 0.22475 0.2268 0.0
O971 O 0.28364 0.31725 0.25568 0.0
O972 O 0.28607 0.28142 0.23527 0.0
O973 O 0.24755 0.27326 0.27643 0.0
O974 O 0.26294 0.31319 0.28108 0.0
O975 O 0.31109 0.35403 0.30514 0.0
O976 O 0.29335 0.33278 0.32818 0.0
O977 O 0.28753 0.25619 0.29486 0.0
O978 O 0.28183 0.29079 0.31422 0.0
C979 C 0.32387 0.27847 0.26476 0.0
C980 C 0.28397 0.30302 0.23541 0.0
C981 C 0.29334 0.20415 0.2281 0.0
C982 C 0.31751 0.17706 0.22837 0.0
C983 C 0.32443 0.20803 0.20461 0.0
C984 C 0.30601 0.21587 0.21235 0.0
C985 C 0.33044 0.18883 0.21289 0.0
C986 C 0.29888 0.18465 0.23558 0.0
C987 C 0.27584 0.21305 0.23927 0.0
C988 C 0.17796 0.21659 0.24006 0.0
C989 C 0.17962 0.22503 0.21828 0.0
H990 H 0.1805 0.20207 0.28327 0.0
C991 C 0.24561 0.29524 0.2805 0.0
C992 C 0.28368 0.26925 0.31425 0.0
C993 C 0.28465 0.36913 0.32565 0.0
C994 C 0.26678 0.39648 0.308 0.0
C995 C 0.25244 0.38001 0.34165 0.0
C996 C 0.26924 0.36745 0.3424 0.0
C997 C 0.251 0.3943 0.32428 0.0
C998 C 0.28357 0.38415 0.30893 0.0
C999 C 0.30055 0.35393 0.32396 0.0
H1000 H 0.33442 0.21722 0.19277 0.0
H1001 H 0.30203 0.23129 0.20655 0.0
H1002 H 0.34521 0.18339 0.20757 0.0
H1003 H 0.28945 0.17625 0.24843 0.0
H1004 H 0.24038 0.37843 0.35433 0.0
H1005 H 0.26979 0.35597 0.35555 0.0
H1006 H 0.23788 0.40389 0.32379 0.0
H1007 H 0.29537 0.3858 0.29592 0.0
C1008 C 0.5126 0.58378 0.08338 0.0
C1009 C 0.54618 0.6099 0.10775 0.0
C1010 C 0.53534 0.59478 0.08602 0.0
C1011 C 0.53405 0.613 0.12725 0.0
C1012 C 0.50013 0.58769 0.10258 0.0
C1013 C 0.51109 0.60187 0.12469 0.0
N1014 N 0.5024 0.57056 0.06158 0.0
C1015 C 0.47946 0.56275 0.05716 0.0
C1016 C 0.47687 0.57795 0.0987 0.0
C1017 C 0.46644 0.56578 0.07576 0.0
Gd1018 Gd 0.54133 0.50089 0.02627 0.0
Gd1019 Gd 0.5264 0.56549 0.03226 0.0
N1020 N 0.54675 0.59114 0.06701 0.0
C1021 C 0.56876 0.62187 0.10898 0.0
C1022 C 0.56831 0.60377 0.06751 0.0
C1023 C 0.57976 0.61906 0.08864 0.0
H1024 H 0.5767 0.60153 0.05172 0.0
H1025 H 0.59703 0.62862 0.08925 0.0
H1026 H 0.48924 0.46453 0.01731 0.0
H1027 H 0.47093 0.55456 0.03923 0.0
H1028 H 0.46364 0.4367 0.98386 0.0
H1029 H 0.57767 0.6337 0.12534 0.0
H1030 H 0.54213 0.62437 0.14419 0.0
H1031 H 0.59223 0.51158 0.00839 0.0
H1032 H 0.4667 0.58053 0.11298 0.0
H1033 H 0.44832 0.5591 0.07226 0.0
H1034 H 0.50895 0.43049 0.91999 0.0
H1035 H 0.50181 0.6049 0.13969 0.0
H1036 H 0.58624 0.4738 0.93622 0.0
H1037 H 0.60942 0.50123 0.97194 0.0
N1038 N 0.55944 0.49114 0.99305 0.0
C1039 C 0.54665 0.47516 0.97413 0.0
C1040 C 0.58184 0.49999 0.99277 0.0
C1041 C 0.57857 0.47838 0.95214 0.0
C1042 C 0.5917 0.49395 0.97223 0.0
C1043 C 0.5558 0.46863 0.95298 0.0
H1044 H 0.54864 0.44753 0.91694 0.0
N1045 N 0.51612 0.47202 0.99677 0.0
C1046 C 0.52426 0.46559 0.97591 0.0
C1047 C 0.48823 0.43916 0.95923 0.0
C1048 C 0.51046 0.44916 0.95648 0.0
C1049 C 0.49495 0.46119 6e-05 0.0
C1050 C 0.48055 0.44496 0.98125 0.0
O1051 O 0.54888 0.55723 0.06276 0.0
O1052 O 0.53089 0.51925 0.05929 0.0
O1053 O 0.53846 0.46619 0.03694 0.0
O1054 O 0.5692 0.4943 0.04861 0.0
O1055 O 0.55671 0.55981 0.01515 0.0
O1056 O 0.57084 0.53308 0.03437 0.0
O1057 O 0.53713 0.51702 0.9923 0.0
O1058 O 0.51014 0.53766 -0.00026 0.0
O1059 O 0.54016 0.59128 0.01079 0.0
O1060 O 0.50901 0.59244 0.02473 0.0
O1061 O 0.50821 0.50374 0.03951 0.0
O1062 O 0.49632 0.53355 0.02317 0.0
C1063 C 0.54424 0.53823 0.07223 0.0
C1064 C 0.57355 0.55185 0.02403 0.0
C1065 C 0.56947 0.4576 0.06275 0.0
C1066 C 0.56829 0.42391 0.08375 0.0
C1067 C 0.60403 0.45128 0.08272 0.0
C1068 C 0.59298 0.46421 0.06917 0.0
C1069 C 0.59188 0.4315 0.09009 0.0
C1070 C 0.55705 0.4373 0.07006 0.0
C1071 C 0.55855 0.47289 0.04945 0.0
C1072 C 0.51935 0.44298 0.93515 0.0
C1073 C 0.54197 0.45265 0.93342 0.0
H1074 H 0.47708 0.42648 0.94473 0.0
C1075 C 0.52018 0.52562 0.98469 0.0
C1076 C 0.49219 0.5136 0.03163 0.0
C1077 C 0.51402 0.60601 0.98789 0.0
C1078 C 0.51522 0.63142 0.95747 0.0
C1079 C 0.48749 0.59393 0.95077 0.0
C1080 C 0.49591 0.58959 0.97312 0.0
C1081 C 0.49705 0.61465 0.94295 0.0
C1082 C 0.52358 0.62697 0.98008 0.0
C1083 C 0.52336 0.60132 0.01124 0.0
H1084 H 0.62214 0.45675 0.08775 0.0
H1085 H 0.60295 0.47961 0.06386 0.0
H1086 H 0.60111 0.42233 0.10118 0.0
H1087 H 0.53889 0.43205 0.06521 0.0
H1088 H 0.47346 0.58121 0.93947 0.0
H1089 H 0.48828 0.57347 0.97892 0.0
H1090 H 0.48999 0.61771 0.92566 0.0
H1091 H 0.53768 0.63961 0.99144 0.0
C1092 C 0.74181 0.23966 0.32152 0.0
C1093 C 0.71392 0.20956 0.29306 0.0
C1094 C 0.73461 0.22655 0.29828 0.0
C1095 C 0.7006 0.20584 0.31151 0.0
C1096 C 0.72851 0.23586 0.34008 0.0
C1097 C 0.70787 0.21894 0.33493 0.0
N1098 N 0.76182 0.256 0.32598 0.0
C1099 C 0.76997 0.26834 0.34879 0.0
C1100 C 0.73642 0.24905 0.36334 0.0
C1101 C 0.75731 0.26525 0.36773 0.0
Gd1102 Gd 0.78896 0.31445 0.25998 0.0
Gd1103 Gd 0.782 0.25857 0.2931 0.0
N1104 N 0.74749 0.23106 0.28056 0.0
C1105 C 0.70715 0.19696 0.26939 0.0
C1106 C 0.7414 0.21825 0.25771 0.0
C1107 C 0.72102 0.20124 0.25168 0.0
H1108 H 0.75227 0.22097 0.24417 0.0
H1109 H 0.71611 0.19131 0.23344 0.0
H1110 H 0.80406 0.35626 0.31073 0.0
H1111 H 0.78655 0.27999 0.35263 0.0
H1112 H 0.83798 0.3857 0.3314 0.0
H1113 H 0.69134 0.18378 0.26465 0.0
H1114 H 0.68463 0.19289 0.30783 0.0
H1115 H 0.80108 0.29287 0.20611 0.0
H1116 H 0.72671 0.24661 0.3781 0.0
H1117 H 0.76381 0.27512 0.38578 0.0
H1118 H 0.8908 0.38407 0.27481 0.0
H1119 H 0.69742 0.21581 0.34898 0.0
H1120 H 0.86725 0.3306 0.19918 0.0
H1121 H 0.83249 0.29996 0.18212 0.0
N1122 N 0.81819 0.31847 0.23653 0.0
C1123 C 0.83688 0.33581 0.2461 0.0
C1124 C 0.81634 0.30584 0.21382 0.0
C1125 C 0.85355 0.32744 0.2098 0.0
C1126 C 0.83401 0.31004 0.20014 0.0
C1127 C 0.85519 0.34058 0.23302 0.0
H1128 H 0.88889 0.36181 0.23388 0.0
N1129 N 0.81987 0.34357 0.28153 0.0
C1130 C 0.83794 0.3483 0.26939 0.0
C1131 C 0.85761 0.37895 0.30283 0.0
C1132 C 0.85738 0.36599 0.27988 0.0
C1133 C 0.81936 0.35756 0.30289 0.0
C1134 C 0.83838 0.37495 0.31421 0.0
O1135 O 0.74826 0.26734 0.28152 0.0
O1136 O 0.75219 0.29596 0.25725 0.0
O1137 O 0.77973 0.34822 0.26159 0.0
O1138 O 0.77822 0.32535 0.22673 0.0
O1139 O 0.78994 0.25497 0.25498 0.0
O1140 O 0.77304 0.27973 0.23601 0.0
O1141 O 0.81907 0.29721 0.26505 0.0
O1142 O 0.81573 0.28524 0.30134 0.0
O1143 O 0.79681 0.22881 0.28174 0.0
O1144 O 0.79367 0.24007 0.31986 0.0
O1145 O 0.77724 0.3177 0.29689 0.0
O1146 O 0.79615 0.29433 0.31524 0.0
C1147 C 0.73975 0.28022 0.26753 0.0
C1148 C 0.77945 0.26002 0.23576 0.0
C1149 C 0.7673 0.36195 0.22493 0.0
C1150 C 0.75065 0.39575 0.22437 0.0
C1151 C 0.75688 0.37356 0.18676 0.0
C1152 C 0.76587 0.35864 0.19962 0.0
C1153 C 0.74912 0.39183 0.19895 0.0
C1154 C 0.75995 0.38071 0.23728 0.0
C1155 C 0.77512 0.34493 0.23807 0.0
C1156 C 0.87573 0.37059 0.26697 0.0
C1157 C 0.87461 0.35798 0.24361 0.0
H1158 H 0.87223 0.39267 0.3115 0.0
C1159 C 0.82836 0.29206 0.28509 0.0
C1160 C 0.78599 0.31159 0.31647 0.0
C1161 C 0.81017 0.2069 0.31156 0.0
C1162 C 0.82599 0.17297 0.30225 0.0
C1163 C 0.82127 0.18684 0.34363 0.0
C1164 C 0.81237 0.20469 0.33611 0.0
C1165 C 0.82795 0.17096 0.32679 0.0
C1166 C 0.81724 0.19106 0.29461 0.0
C1167 C 0.80003 0.22544 0.30404 0.0
H1168 H 0.75558 0.37072 0.16722 0.0
H1169 H 0.77141 0.3443 0.18968 0.0
H1170 H 0.74151 0.40257 0.18832 0.0
H1171 H 0.76128 0.38339 0.25684 0.0
H1172 H 0.82287 0.18523 0.36254 0.0
H1173 H 0.80708 0.21666 0.34955 0.0
H1174 H 0.83475 0.1571 0.33291 0.0
H1175 H 0.81561 0.19248 0.27562 0.0
C1176 C 0.06867 0.49567 0.58458 0.0
C1177 C 0.07601 0.52078 0.62419 0.0
C1178 C 0.06447 0.51422 0.60031 0.0
C1179 C 0.09201 0.50876 0.63188 0.0
C1180 C 0.08462 0.48347 0.59236 0.0
C1181 C 0.09629 0.49017 0.61602 0.0
N1182 N 0.05744 0.48984 0.56157 0.0
C1183 C 0.06071 0.47139 0.54585 0.0
C1184 C 0.08837 0.46487 0.5761 0.0
C1185 C 0.07627 0.45874 0.5528 0.0
Gd1186 Gd 0.04049 0.55255 0.49411 0.0
Gd1187 Gd 0.0312 0.51182 0.55224 0.0
N1188 N 0.04906 0.52575 0.5923 0.0
C1189 C 0.07097 0.5391 0.63973 0.0
C1190 C 0.04328 0.54279 0.60778 0.0
C1191 C 0.05437 0.54998 0.63156 0.0
H1192 H 0.02981 0.55067 0.60214 0.0
H1193 H 0.04992 0.56372 0.64365 0.0
H1194 H 0.03022 0.506 0.44668 0.0
H1195 H 0.05122 0.46603 0.52803 0.0
H1196 H 1.00154 0.48818 0.41166 0.0
H1197 H 0.07948 0.54465 0.65819 0.0
H1198 H 0.10108 0.51363 0.65013 0.0
H1199 H 0.03357 0.6061 0.51142 0.0
H1200 H 0.10044 0.45504 0.5814 0.0
H1201 H 0.07883 0.44418 0.5402 0.0
H1202 H 0.95504 0.54321 0.40829 0.0
H1203 H 0.10863 0.48102 0.62227 0.0
H1204 H 0.97651 0.61497 0.4665 0.0
H1205 H 0.0073 0.63043 0.50096 0.0
N1206 N 0.01759 0.57721 0.48343 0.0
C1207 C 1.0013 0.56867 0.46406 0.0
C1208 C 0.02015 0.59922 0.49639 0.0
C1209 C 0.98801 0.60426 0.47101 0.0
C1210 C 0.00536 0.61305 0.49047 0.0
C1211 C 0.98589 0.58187 0.45742 0.0
H1212 H 0.95691 0.58216 0.43212 0.0
N1213 N 0.01578 0.53487 0.45764 0.0
C1214 C 1.00022 0.54671 0.45086 0.0
C1215 C 0.98387 0.51577 0.4165 0.0
C1216 C 0.98372 0.5374 0.43031 0.0
C1217 C 0.01683 0.51452 0.44318 0.0
C1218 C 1.00074 0.50449 0.42275 0.0
O1219 O 0.0683 0.52773 0.55412 0.0
O1220 O 0.05088 0.53666 0.52368 0.0
O1221 O 0.06572 0.55587 0.47009 0.0
O1222 O 0.06726 0.58438 0.49962 0.0
O1223 O 0.02751 0.55 0.55955 0.0
O1224 O 0.04301 0.57381 0.53212 0.0
O1225 O 0.00626 0.54778 0.50521 0.0
O1226 O 0.01068 0.5148 0.51776 0.0
O1227 O 1.00274 0.50834 0.57226 0.0
O1228 O 0.01189 0.47732 0.55451 0.0
O1229 O 0.04631 0.51512 0.48696 0.0
O1230 O 0.02978 0.49168 0.51385 0.0
C1231 C 0.07017 0.53835 0.53607 0.0
C1232 C 0.03467 0.57055 0.55257 0.0
C1233 C 0.0783 0.59403 0.46271 0.0
C1234 C 0.09151 0.60229 0.4251 0.0
C1235 C 0.0722 0.62851 0.44716 0.0
C1236 C 0.06988 0.61437 0.46487 0.0
C1237 C 0.08287 0.62248 0.42727 0.0
C1238 C 0.08918 0.58826 0.44294 0.0
C1239 C 0.07499 0.57769 0.47982 0.0
C1240 C 0.96793 0.55017 0.4239 0.0
C1241 C 0.96902 0.57237 0.43743 0.0
H1242 H 0.9715 0.50802 0.40058 0.0
C1243 C 0.99878 0.53042 0.51618 0.0
C1244 C 0.0389 0.4945 0.49375 0.0
C1245 C 1.00073 0.47642 0.59301 0.0
C1246 C 0.98994 0.47736 0.6333 0.0
C1247 C 0.01246 0.45059 0.61866 0.0
C1248 C 0.0122 0.45887 0.59684 0.0
C1249 C 1.00128 0.45961 0.63676 0.0
C1250 C 0.98992 0.48573 0.61139 0.0
C1251 C 1.00036 0.48566 0.5703 0.0
H1252 H 0.06561 0.6441 0.4488 0.0
H1253 H 0.06139 0.61926 0.48 0.0
H1254 H 0.0845 0.63364 0.41373 0.0
H1255 H 0.09522 0.57227 0.44109 0.0
H1256 H 0.02117 0.43698 0.62146 0.0
H1257 H 0.02099 0.45152 0.58307 0.0
H1258 H 1.00119 0.45235 0.65323 0.0
H1259 H 0.98162 0.49968 0.60862 0.0
C1260 C 0.73268 0.79459 0.22194 0.0
C1261 C 0.70789 0.75641 0.20495 0.0
C1262 C 0.72385 0.77131 0.22379 0.0
C1263 C 0.70124 0.76511 0.18424 0.0
C1264 C 0.7258 0.80348 0.20135 0.0
C1265 C 0.71012 0.78858 0.18247 0.0
N1266 N 0.74842 0.80842 0.24007 0.0
C1267 C 0.75698 0.83156 0.23952 0.0
C1268 C 0.73506 0.82704 0.20026 0.0
C1269 C 0.75061 0.84117 0.21952 0.0
Gd1270 Gd 0.81797 0.77407 0.27773 0.0
Gd1271 Gd 0.75746 0.7911 0.27303 0.0
N1272 N 0.73065 0.76334 0.24405 0.0
C1273 C 0.69883 0.73328 0.20761 0.0
C1274 C 0.72088 0.74123 0.24729 0.0
C1275 C 0.70517 0.72576 0.22899 0.0
H1276 H 0.72455 0.73555 0.26415 0.0
H1277 H 0.6977 0.70814 0.23155 0.0
H1278 H 0.85364 0.82636 0.2947 0.0
H1279 H 0.76852 0.84273 0.25459 0.0
H1280 H 0.88046 0.84886 0.33078 0.0
H1281 H 0.68654 0.72129 0.19354 0.0
H1282 H 0.68906 0.75387 0.16956 0.0
H1283 H 0.80553 0.71737 0.28671 0.0
H1284 H 0.73021 0.83452 0.18475 0.0
H1285 H 0.75758 0.8595 0.21904 0.0
H1286 H 0.87487 0.79601 0.38777 0.0
H1287 H 0.70473 0.79504 0.16643 0.0
H1288 H 0.83001 0.7175 0.36037 0.0
H1289 H 0.80893 0.69626 0.32063 0.0
N1290 N 0.82181 0.75105 0.30775 0.0
C1291 C 0.83488 0.7627 0.32891 0.0
C1292 C 0.81362 0.72723 0.30426 0.0
C1293 C 0.82795 0.72707 0.34572 0.0
C1294 C 0.81599 0.71503 0.32334 0.0
C1295 C 0.83815 0.75105 0.34853 0.0
H1296 H 0.85465 0.75481 0.38527 0.0
N1297 N 0.84296 0.79674 0.31123 0.0
C1298 C 0.84624 0.78601 0.33048 0.0
C1299 C 0.87341 0.82112 0.35159 0.0
C1300 C 0.8612 0.79814 0.35144 0.0
C1301 C 0.85558 0.81865 0.31071 0.0
C1302 C 0.87079 0.8313 0.331 0.0
O1303 O 0.77337 0.78489 0.23838 0.0
O1304 O 0.79153 0.75621 0.24563 0.0
O1305 O 0.84176 0.78341 0.25254 0.0
O1306 O 0.84474 0.75605 0.27293 0.0
O1307 O 0.75972 0.75854 0.28845 0.0
O1308 O 0.78678 0.74359 0.26982 0.0
O1309 O 0.81004 0.79919 0.30888 0.0
O1310 O 0.77265 0.78372 0.30834 0.0
O1311 O 0.72374 0.7887 0.28335 0.0
O1312 O 0.74976 0.82183 0.29324 0.0
O1313 O 0.81506 0.80604 0.2617 0.0
O1314 O 0.78853 0.82124 0.2809 0.0
C1315 C 0.78226 0.76733 0.23044 0.0
C1316 C 0.76889 0.74108 0.28113 0.0
C1317 C 0.85871 0.75348 0.23546 0.0
C1318 C 0.88572 0.74804 0.20749 0.0
C1319 C 0.85257 0.71679 0.20705 0.0
C1320 C 0.84587 0.73062 0.22589 0.0
C1321 C 0.87247 0.72534 0.19802 0.0
C1322 C 0.87861 0.76226 0.22603 0.0
C1323 C 0.85261 0.76749 0.25656 0.0
C1324 C 0.8637 0.78688 0.37136 0.0
C1325 C 0.85214 0.76343 0.36994 0.0
H1326 H 0.8851 0.83101 0.36734 0.0
C1327 C 0.79228 0.79552 0.32021 0.0
C1328 C 0.80686 0.82382 0.27033 0.0
C1329 C 0.71338 0.82226 0.30636 0.0
C1330 C 0.68151 0.82143 0.32923 0.0
C1331 C 0.70279 0.85846 0.32092 0.0
C1332 C 0.71683 0.84674 0.30876 0.0
C1333 C 0.68532 0.84598 0.33112 0.0
C1334 C 0.69548 0.80953 0.31641 0.0
C1335 C 0.72921 0.81057 0.2943 0.0
H1336 H 0.84255 0.69919 0.19974 0.0
H1337 H 0.83083 0.72331 0.23326 0.0
H1338 H 0.87767 0.71414 0.18377 0.0
H1339 H 0.88895 0.77968 0.2337 0.0
H1340 H 0.70552 0.87734 0.32254 0.0
H1341 H 0.73043 0.85687 0.30118 0.0
H1342 H 0.67463 0.85559 0.34036 0.0
H1343 H 0.69292 0.79065 0.31495 0.0
C1344 C 0.82541 0.23675 0.71702 0.0
C1345 C 0.79881 0.21684 0.68109 0.0
C1346 C 0.80528 0.23444 0.70203 0.0
C1347 C 0.81286 0.20164 0.67537 0.0
C1348 C 0.83962 0.22159 0.7112 0.0
C1349 C 0.8332 0.204 0.69038 0.0
N1350 N 0.83116 0.25386 0.73717 0.0
C1351 C 0.8514 0.25748 0.75147 0.0
C1352 C 0.85998 0.22467 0.72636 0.0
C1353 C 0.86595 0.24281 0.74647 0.0
Gd1354 Gd 0.76758 0.27766 0.8046 0.0
Gd1355 Gd 0.80571 0.27781 0.74326 0.0
N1356 N 0.79172 0.24904 0.70835 0.0
C1357 C 0.77838 0.21504 0.66653 0.0
C1358 C 0.77209 0.24778 0.69386 0.0
C1359 C 0.76504 0.23066 0.67288 0.0
H1360 H 0.76183 0.25998 0.69824 0.0
H1361 H 0.74936 0.22959 0.66156 0.0
H1362 H 0.80835 0.28118 0.85164 0.0
H1363 H 0.85678 0.27205 0.76637 0.0
H1364 H 0.82912 0.31007 0.88697 0.0
H1365 H 0.77284 0.20176 0.65028 0.0
H1366 H 0.80817 0.188 0.65937 0.0
H1367 H 0.72207 0.29577 0.7875 0.0
H1368 H 0.87136 0.2134 0.72248 0.0
H1369 H 0.88192 0.2457 0.75796 0.0
H1370 H 0.79043 0.37236 0.8907 0.0
H1371 H 0.8439 0.19219 0.68566 0.0
H1372 H 0.72428 0.36137 0.83278 0.0
H1373 H 0.70535 0.32965 0.7983 0.0
N1374 N 0.75013 0.30843 0.81523 0.0
C1375 C 0.76039 0.32522 0.83462 0.0
C1376 C 0.73037 0.30955 0.8025 0.0
C1377 C 0.73163 0.34654 0.82809 0.0
C1378 C 0.72089 0.32868 0.80862 0.0
C1379 C 0.75156 0.34488 0.84149 0.0
H1380 H 0.75632 0.37738 0.86707 0.0
N1381 N 0.78717 0.30288 0.84067 0.0
C1382 C 0.77969 0.32249 0.8476 0.0
C1383 C 0.80901 0.33502 0.88213 0.0
C1384 C 0.79054 0.33923 0.86832 0.0
C1385 C 0.80401 0.29786 0.85524 0.0
C1386 C 0.8155 0.31402 0.8758 0.0
O1387 O 0.787 0.24065 0.74331 0.0
O1388 O 0.78163 0.26212 0.7748 0.0
O1389 O 0.7624 0.25225 0.82837 0.0
O1390 O 0.73392 0.25641 0.80502 0.0
O1391 O 0.76993 0.28424 0.738 0.0
O1392 O 0.74692 0.271 0.76684 0.0
O1393 O 0.77515 0.31158 0.79129 0.0
O1394 O 0.80572 0.30304 0.77722 0.0
O1395 O 0.80323 0.30251 0.71906 0.0
O1396 O 0.83622 0.29651 0.73176 0.0
O1397 O 0.80195 0.26797 0.80943 0.0
O1398 O 0.82528 0.2832 0.78192 0.0
C1399 C 0.77772 0.24113 0.76254 0.0
C1400 C 0.75012 0.27874 0.74612 0.0
C1401 C 0.72908 0.25038 0.84491 0.0
C1402 C 0.72627 0.24278 0.88572 0.0
C1403 C 0.70901 0.27218 0.8713 0.0
C1404 C 0.71665 0.26755 0.84901 0.0
C1405 C 0.71404 0.26008 0.88975 0.0
C1406 C 0.7334 0.23776 0.86317 0.0
C1407 C 0.74057 0.24765 0.82349 0.0
C1408 C 0.78221 0.35923 0.87496 0.0
C1409 C 0.76275 0.36205 0.86156 0.0
H1410 H 0.81781 0.34742 0.89818 0.0
C1411 C 0.79177 0.31677 0.77894 0.0
C1412 C 0.82203 0.27464 0.80225 0.0
C1413 C 0.83566 0.32409 0.70423 0.0
C1414 C 0.83297 0.34354 0.6697 0.0
C1415 C 0.86943 0.34733 0.69304 0.0
C1416 C 0.85913 0.33309 0.70825 0.0
C1417 C 0.85644 0.35235 0.67362 0.0
C1418 C 0.8226 0.32973 0.68518 0.0
C1419 C 0.82489 0.30731 0.71845 0.0
H1420 H 0.69964 0.28558 0.87447 0.0
H1421 H 0.71335 0.27781 0.83533 0.0
H1422 H 0.70849 0.26423 0.90713 0.0
H1423 H 0.74354 0.22497 0.86029 0.0
H1424 H 0.88754 0.35412 0.69606 0.0
H1425 H 0.86951 0.32887 0.72288 0.0
H1426 H 0.86464 0.36299 0.66161 0.0
H1427 H 0.8045 0.32253 0.68165 0.0
C1428 C 0.85395 0.83391 0.80932 0.0
C1429 C 0.86999 0.85396 0.77849 0.0
C1430 C 0.85104 0.84224 0.78771 0.0
C1431 C 0.89172 0.85666 0.79089 0.0
C1432 C 0.8757 0.83727 0.82219 0.0
C1433 C 0.89456 0.84846 0.81272 0.0
N1434 N 0.83549 0.8223 0.81767 0.0
C1435 C 0.83735 0.81523 0.83953 0.0
C1436 C 0.87784 0.82915 0.84416 0.0
C1437 C 0.85855 0.81827 0.85296 0.0
Gd1438 Gd 0.77162 0.75658 0.76071 0.0
Gd1439 Gd 0.80074 0.81967 0.79495 0.0
N1440 N 0.82974 0.83976 0.77627 0.0
C1441 C 0.86654 0.86321 0.75742 0.0
C1442 C 0.82634 0.8505 0.75689 0.0
C1443 C 0.84461 0.86177 0.7468 0.0
H1444 H 0.80966 0.85117 0.7495 0.0
H1445 H 0.84177 0.86981 0.73114 0.0
H1446 H 0.75221 0.72956 0.80422 0.0
H1447 H 0.8225 0.80746 0.84678 0.0
H1448 H 0.71541 0.7123 0.81617 0.0
H1449 H 0.88067 0.87226 0.74974 0.0
H1450 H 0.90645 0.86551 0.78397 0.0
H1451 H 0.75984 0.76565 0.70322 0.0
H1452 H 0.89426 0.83143 0.85459 0.0
H1453 H 0.86 0.81238 0.87016 0.0
H1454 H 0.66106 0.72285 0.75371 0.0
H1455 H 0.91142 0.85099 0.82223 0.0
H1456 H 0.68858 0.75486 0.68661 0.0
H1457 H 0.72675 0.76657 0.67537 0.0
N1458 N 0.74126 0.75729 0.73183 0.0
C1459 C 0.72034 0.749 0.73756 0.0
C1460 C 0.74359 0.76235 0.70928 0.0
C1461 C 0.7032 0.75537 0.69939 0.0
C1462 C 0.72471 0.76212 0.69303 0.0
C1463 C 0.70076 0.74807 0.7216 0.0
H1464 H 0.66422 0.73836 0.71587 0.0
N1465 N 0.7376 0.74055 0.77351 0.0
C1466 C 0.71846 0.73997 0.75877 0.0
C1467 C 0.69609 0.72045 0.78583 0.0
C1468 C 0.69713 0.73019 0.76474 0.0
C1469 C 0.7368 0.7301 0.79344 0.0
C1470 C 0.71603 0.72019 0.8001 0.0
O1471 O 0.82307 0.79307 0.78893 0.0
O1472 O 0.80718 0.77047 0.75233 0.0
O1473 O 0.78038 0.72427 0.76635 0.0
O1474 O 0.76326 0.72661 0.73146 0.0
O1475 O 0.78359 0.81796 0.75667 0.0
O1476 O 0.78756 0.78216 0.73821 0.0
O1477 O 0.75154 0.7762 0.78492 0.0
O1478 O 0.7634 0.81398 0.77978 0.0
O1479 O 0.80944 0.85735 0.8063 0.0
O1480 O 0.79082 0.83536 0.82819 0.0
O1481 O 0.78999 0.75897 0.79843 0.0
O1482 O 0.78574 0.79426 0.81827 0.0
C1483 C 0.82528 0.78085 0.76809 0.0
C1484 C 0.7854 0.80354 0.73721 0.0
C1485 C 0.79059 0.70449 0.73202 0.0
C1486 C 0.813 0.67581 0.73157 0.0
C1487 C 0.81933 0.70476 0.70554 0.0
C1488 C 0.80245 0.71456 0.71471 0.0
C1489 C 0.82463 0.68527 0.71392 0.0
C1490 C 0.79584 0.68518 0.74014 0.0
C1491 C 0.77396 0.71451 0.74368 0.0
C1492 C 0.67762 0.73014 0.74936 0.0
C1493 C 0.67943 0.73906 0.72785 0.0
H1494 H 0.68002 0.71276 0.79103 0.0
C1495 C 0.74741 0.79694 0.78419 0.0
C1496 C 0.78752 0.77258 0.81818 0.0
C1497 C 0.77992 0.87018 0.82318 0.0
C1498 C 0.76138 0.89593 0.8033 0.0
C1499 C 0.74534 0.87835 0.83561 0.0
C1500 C 0.76305 0.8672 0.83821 0.0
C1501 C 0.74436 0.89254 0.81809 0.0
C1502 C 0.77907 0.88485 0.80601 0.0
C1503 C 0.79725 0.85657 0.8238 0.0
H1504 H 0.82849 0.71244 0.6922 0.0
H1505 H 0.79887 0.72999 0.70854 0.0
H1506 H 0.8379 0.67792 0.70707 0.0
H1507 H 0.78679 0.67764 0.75373 0.0
H1508 H 0.73229 0.87589 0.84711 0.0
H1509 H 0.76333 0.85592 0.85159 0.0
H1510 H 0.73062 0.90121 0.81642 0.0
H1511 H 0.7919 0.88731 0.79419 0.0
C1512 C 0.49579 0.4613 0.47393 0.0
C1513 C 0.47458 0.43621 0.49806 0.0
C1514 C 0.48475 0.45884 0.49407 0.0
C1515 C 0.47614 0.41624 0.48204 0.0
C1516 C 0.49673 0.44122 0.45741 0.0
C1517 C 0.48712 0.41873 0.46175 0.0
N1518 N 0.5055 0.48326 0.4704 0.0
C1519 C 0.51452 0.48635 0.44969 0.0
C1520 C 0.50715 0.44431 0.43687 0.0
C1521 C 0.5158 0.46698 0.43283 0.0
Gd1522 Gd 0.55975 0.55089 0.53991 0.0
Gd1523 Gd 0.5022 0.51442 0.49981 0.0
N1524 N 0.4834 0.47847 0.50932 0.0
C1525 C 0.46269 0.43427 0.51776 0.0
C1526 C 0.47038 0.47657 0.52752 0.0
C1527 C 0.4603 0.45454 0.53232 0.0
H1528 H 0.46716 0.49195 0.53811 0.0
H1529 H 0.45037 0.45322 0.54702 0.0
H1530 H 0.58947 0.56935 0.49711 0.0
H1531 H 0.52022 0.50364 0.44561 0.0
H1532 H 0.60718 0.60686 0.48549 0.0
H1533 H 0.45469 0.4172 0.52142 0.0
H1534 H 0.46855 0.39876 0.48495 0.0
H1535 H 0.55315 0.56397 0.59874 0.0
H1536 H 0.50814 0.42933 0.42374 0.0
H1537 H 0.5232 0.46957 0.41658 0.0
H1538 H 0.59953 0.66545 0.55077 0.0
H1539 H 0.48786 0.40314 0.44936 0.0
H1540 H 0.56979 0.63892 0.61946 0.0
H1541 H 0.55641 0.59944 0.62943 0.0
N1542 N 0.5632 0.58321 0.57118 0.0
C1543 C 0.57206 0.60466 0.5659 0.0
C1544 C 0.55868 0.58115 0.59408 0.0
C1545 C 0.56817 0.62343 0.60584 0.0
C1546 C 0.56063 0.60118 0.61155 0.0
C1547 C 0.57447 0.62539 0.58298 0.0
H1548 H 0.5856 0.66341 0.58986 0.0
N1549 N 0.57882 0.5855 0.52852 0.0
C1550 C 0.58018 0.60585 0.54398 0.0
C1551 C 0.59986 0.62805 0.51683 0.0
C1552 C 0.59055 0.62773 0.53842 0.0
C1553 C 0.58909 0.58563 0.50822 0.0
C1554 C 0.59943 0.60686 0.50184 0.0
O1555 O 0.52879 0.49374 0.50774 0.0
O1556 O 0.54533 0.51322 0.54562 0.0
O1557 O 0.59496 0.55131 0.53966 0.0
O1558 O 0.57965 0.54538 0.57165 0.0
O1559 O 0.50173 0.51926 0.54017 0.0
O1560 O 0.52876 0.55293 0.55749 0.0
O1561 O 0.54329 0.57158 0.51561 0.0
O1562 O 0.50542 0.55437 0.51299 0.0
O1563 O 0.466 0.5089 0.49502 0.0
O1564 O 0.48435 0.51853 0.46603 0.0
O1565 O 0.5605 0.53062 0.50258 0.0
O1566 O 0.52828 0.53457 0.48124 0.0
C1567 C 0.53934 0.49366 0.52932 0.0
C1568 C 0.51115 0.53622 0.5585 0.0
C1569 C 0.60659 0.52408 0.56154 0.0
C1570 C 0.62674 0.49647 0.54308 0.0
C1571 C 0.614 0.49276 0.58196 0.0
C1572 C 0.60516 0.5125 0.58145 0.0
C1573 C 0.62486 0.48481 0.56296 0.0
C1574 C 0.61714 0.51575 0.54235 0.0
C1575 C 0.5971 0.54473 0.5606 0.0
C1576 C 0.59183 0.64846 0.55482 0.0
C1577 C 0.58386 0.6473 0.57707 0.0
H1578 H 0.60796 0.6445 0.51191 0.0
C1579 C 0.52203 0.57267 0.51175 0.0
C1580 C 0.54947 0.53377 0.48258 0.0
C1581 C 0.4536 0.53525 0.4726 0.0
C1582 C 0.43204 0.56149 0.49065 0.0
C1583 C 0.44501 0.5661 0.45211 0.0
C1584 C 0.45488 0.54705 0.45283 0.0
C1585 C 0.43369 0.57341 0.47098 0.0
C1586 C 0.44202 0.54253 0.49133 0.0
C1587 C 0.46519 0.5162 0.47442 0.0
H1588 H 0.61275 0.48383 0.59729 0.0
H1589 H 0.59709 0.51858 0.59653 0.0
H1590 H 0.63236 0.47004 0.56426 0.0
H1591 H 0.61805 0.52441 0.52678 0.0
H1592 H 0.44611 0.57521 0.43689 0.0
H1593 H 0.46372 0.54173 0.43812 0.0
H1594 H 0.42588 0.58801 0.46998 0.0
H1595 H 0.44101 0.53372 0.5068 0.0
C1596 C 0.08396 0.58769 0.99492 0.0
C1597 C 0.11323 0.60695 0.02867 0.0
C1598 C 0.09604 0.58728 0.01708 0.0
C1599 C 0.11774 0.62709 0.01799 0.0
C1600 C 0.08861 0.60773 0.98399 0.0
C1601 C 0.10551 0.62746 0.99569 0.0
N1602 N 0.06692 0.56877 0.98458 0.0
C1603 C 0.05494 0.56801 0.96262 0.0
C1604 C 0.07598 0.60737 0.96173 0.0
C1605 C 0.05919 0.58736 0.95092 0.0
Gd1606 Gd 0.00656 0.53332 0.03922 0.0
Gd1607 Gd 0.06161 0.53708 0.00517 0.0
N1608 N 0.09115 0.56758 0.02711 0.0
C1609 C 0.1256 0.60564 0.05049 0.0
C1610 C 0.10438 0.56557 0.04724 0.0
C1611 C 0.12138 0.58472 0.05961 0.0
H1612 H 0.10245 0.549 0.05327 0.0
H1613 H 0.13151 0.58316 0.07589 0.0
H1614 H 0.9638 0.50959 0.99511 0.0
H1615 H 0.04214 0.55247 0.9541 0.0
H1616 H 0.9356 0.47175 0.98103 0.0
H1617 H 0.1389 0.6204 0.06001 0.0
H1618 H 0.13081 0.64242 0.02671 0.0
H1619 H 0.02664 0.53371 0.09761 0.0
H1620 H 0.0791 0.62241 0.9527 0.0
H1621 H 0.04954 0.58683 0.93359 0.0
H1622 H 0.94774 0.42668 0.04305 0.0
H1623 H 0.10927 0.64309 0.98765 0.0
H1624 H 1.00146 0.46518 0.11317 0.0
H1625 H 0.02552 0.50554 0.12556 0.0
N1626 N 0.00516 0.50896 0.06863 0.0
C1627 C 0.99067 0.4874 0.06214 0.0
C1628 C 0.0168 0.5159 0.09151 0.0
C1629 C 1.00224 0.47734 0.10059 0.0
C1630 C 0.01589 0.50009 0.10762 0.0
C1631 C 0.98901 0.4709 0.07781 0.0
H1632 H 0.97246 0.43582 0.08222 0.0
N1633 N 0.97824 0.49877 0.02589 0.0
C1634 C 0.97656 0.48226 0.04024 0.0
C1635 C 0.94612 0.45654 0.01135 0.0
C1636 C 0.96069 0.46049 0.03317 0.0
C1637 C 0.9632 0.49568 0.00543 0.0
C1638 C 0.94716 0.47438 0.9976 0.0
O1639 O 0.04748 0.57013 0.0136 0.0
O1640 O 0.03422 0.5671 0.04961 0.0
O1641 O 0.98049 0.55164 0.03008 0.0
O1642 O 0.98915 0.5474 0.06703 0.0
O1643 O 0.06277 0.5248 0.04098 0.0
O1644 O 0.04062 0.54503 0.06183 0.0
O1645 O 0.00961 0.49957 0.01462 0.0
O1646 O 0.04776 0.50237 0.01761 0.0
O1647 O 0.09428 0.52987 0.00058 0.0
O1648 O 0.06704 0.51917 0.97069 0.0
O1649 O 0.0082 0.54456 0.00328 0.0
O1650 O 0.02834 0.52306 0.98126 0.0
C1651 C 0.04271 0.58012 0.03433 0.0
C1652 C 0.05722 0.53445 0.06123 0.0
C1653 C 0.95213 0.55052 0.05565 0.0
C1654 C 0.91803 0.56502 0.0575 0.0
C1655 C 0.92033 0.52851 0.07121 0.0
C1656 C 0.9421 0.53093 0.06529 0.0
C1657 C 0.90839 0.54547 0.0675 0.0
C1658 C 0.93993 0.56733 0.05143 0.0
C1659 C 0.97593 0.55491 0.05217 0.0
C1660 C 0.95967 0.44361 0.04824 0.0
C1661 C 0.97379 0.44881 0.07052 0.0
H1662 H 0.9337 0.44003 0.00526 0.0
C1663 C 0.0268 0.48958 0.01368 0.0
C1664 C 0.01025 0.53111 0.98345 0.0
C1665 C 0.092 0.49394 0.97424 0.0
C1666 C 0.1165 0.46727 0.98117 0.0
C1667 C 0.08156 0.45342 0.953 0.0
C1668 C 0.07696 0.47553 0.95779 0.0
C1669 C 0.10116 0.4493 0.96446 0.0
C1670 C 0.11179 0.48967 0.98589 0.0
C1671 C 0.08717 0.51753 0.97896 0.0
H1672 H 0.91275 0.51354 0.07891 0.0
H1673 H 0.95126 0.5178 0.06873 0.0
H1674 H 0.8915 0.54318 0.07222 0.0
H1675 H 0.94777 0.5826 0.04424 0.0
H1676 H 0.06994 0.43943 0.94017 0.0
H1677 H 0.06165 0.47818 0.94846 0.0
H1678 H 0.10445 0.43207 0.95982 0.0
H1679 H 0.12339 0.50371 -0.00127 0.0
H1680 H 0.02155 0.19875 0.94554 0.0
H1681 H 0.01998 0.11292 0.04285 0.0
H1682 H 0.98869 0.2093 0.00871 0.0
H1683 H 0.01736 0.0875 0.96673 0.0
H1684 H 0.01523 0.151 0.0335 0.0
H1685 H 0.02704 0.1613 0.95578 0.0
C1686 C 0.01582 0.19352 0.96184 0.0
C1687 C 1.00475 0.2077 0.97632 0.0
C1688 C 0.01564 0.13709 0.01882 0.0
C1689 C 0.01121 0.16422 0.98831 0.0
C1690 C 0.01842 0.11526 0.02415 0.0
C1691 C 0.01898 0.09664 0.0056 0.0
C1692 C 0.01391 0.14086 0.99472 0.0
C1693 C 0.01686 0.10107 0.98171 0.0
C1694 C 0.0188 0.17189 0.96754 0.0
C1695 C 0.99741 0.19931 0.99697 0.0
N1696 N 0.01466 0.1226 0.97703 0.0
N1697 N 1.00092 0.17842 0.00239 0.0
H1698 H 0.11415 0.76779 0.18056 0.0
H1699 H 0.24838 0.81683 0.21292 0.0
H1700 H 0.14986 0.82182 0.14587 0.0
H1701 H 0.20758 0.76382 0.24485 0.0
H1702 H 0.21402 0.8195 0.18768 0.0
H1703 H 0.14925 0.76691 0.20355 0.0
C1704 C 0.12942 0.77952 0.17762 0.0
C1705 C 0.1288 0.79486 0.16099 0.0
C1706 C 0.21268 0.80735 0.20026 0.0
C1707 C 0.16993 0.7939 0.18789 0.0
C1708 C 0.23228 0.80578 0.21468 0.0
C1709 C 0.231 0.79016 0.23126 0.0
C1710 C 0.19162 0.79319 0.20243 0.0
C1711 C 0.20962 0.77629 0.23262 0.0
C1712 C 0.14966 0.779 0.19093 0.0
C1713 C 0.14943 0.80964 0.15839 0.0
N1714 N 0.19099 0.77817 0.21853 0.0
N1715 N 0.16918 0.80879 0.17168 0.0
H1716 H 0.50615 0.84189 0.43712 0.0
H1717 H 0.54761 0.95883 0.53501 0.0
H1718 H 0.50341 0.837 0.51212 0.0
H1719 H 0.49944 0.9564 0.47296 0.0
H1720 H 0.54087 0.91554 0.52538 0.0
H1721 H 0.51315 0.88497 0.44797 0.0
C1722 C 0.50748 0.84985 0.45596 0.0
C1723 C 0.50439 0.83555 0.47372 0.0
C1724 C 0.53184 0.92452 0.51385 0.0
C1725 C 0.51279 0.88534 0.48634 0.0
C1726 C 0.53578 0.94926 0.51924 0.0
C1727 C 0.52417 0.96144 0.50474 0.0
C1728 C 0.51676 0.91174 0.49328 0.0
C1729 C 0.50883 0.94788 0.48466 0.0
C1730 C 0.51127 0.87449 0.46208 0.0
C1731 C 0.50582 0.84714 0.49779 0.0
N1732 N 0.50584 0.92396 0.47935 0.0
N1733 N 0.5102 0.87123 0.50341 0.0
H1734 H 0.5266 0.26927 0.67945 0.0
H1735 H 0.39683 0.27148 0.68342 0.0
H1736 H 0.48867 0.29713 0.62708 0.0
H1737 H 0.43738 0.24661 0.73591 0.0
H1738 H 0.43038 0.28362 0.66372 0.0
H1739 H 0.49395 0.26205 0.70074 0.0
C1740 C 0.51131 0.27366 0.67226 0.0
C1741 C 0.51039 0.28368 0.65132 0.0
C1742 C 0.432 0.27586 0.67979 0.0
C1743 C 0.47277 0.27571 0.67592 0.0
C1744 C 0.41294 0.26923 0.69117 0.0
C1745 C 0.41447 0.25818 0.71135 0.0
C1746 C 0.45259 0.27128 0.68868 0.0
C1747 C 0.43558 0.25518 0.72043 0.0
C1748 C 0.49266 0.26968 0.68455 0.0
C1749 C 0.49011 0.28921 0.64305 0.0
N1750 N 0.45371 0.26149 0.70895 0.0
N1751 N 0.4721 0.28514 0.65536 0.0
H1752 H 0.0457 0.82251 0.67916 0.0
H1753 H 0.02104 0.88648 0.56677 0.0
H1754 H 0.98692 0.79671 0.62478 0.0
H1755 H 0.07669 0.91424 0.62442 0.0
H1756 H 0.00681 0.85467 0.5887 0.0
H1757 H 0.05667 0.85677 0.65978 0.0
C1758 C 0.03511 0.82396 0.66314 0.0
C1759 C 0.01534 0.80654 0.65368 0.0
C1760 C 0.02198 0.86791 0.5967 0.0
C1761 C 0.02779 0.84598 0.63132 0.0
C1762 C 0.02994 0.88622 0.5843 0.0
C1763 C 0.05012 0.90299 0.59373 0.0
C1764 C 0.03432 0.86638 0.61867 0.0
C1765 C 0.06114 0.90158 0.6164 0.0
C1766 C 0.04133 0.84363 0.65211 0.0
C1767 C 1.0023 0.8096 0.63285 0.0
N1768 N 0.05326 0.88355 0.62792 0.0
N1769 N 0.00876 0.82881 0.6224 0.0
H1770 H 0.46222 0.7867 0.84743 0.0
H1771 H 0.36072 0.80625 0.75725 0.0
H1772 H 0.47492 0.82299 0.78783 0.0
H1773 H 0.35316 0.78515 0.82622 0.0
H1774 H 0.40171 0.81138 0.7664 0.0
H1775 H 0.4223 0.78474 0.83833 0.0
C1776 C 0.45682 0.79472 0.83263 0.0
C1777 C 0.47255 0.80563 0.81888 0.0
C1778 C 0.39111 0.80577 0.7796 0.0
C1779 C 0.42556 0.80253 0.80756 0.0
C1780 C 0.36758 0.80305 0.77447 0.0
C1781 C 0.35312 0.79573 0.79111 0.0
C1782 C 0.40051 0.80069 0.80142 0.0
C1783 C 0.36332 0.79095 0.81274 0.0
C1784 C 0.4337 0.79335 0.82727 0.0
C1785 C 0.46373 0.81467 0.79924 0.0
N1786 N 0.38613 0.79341 0.81714 0.0
N1787 N 0.44094 0.81287 0.79415 0.0
H1788 H 0.50244 0.20464 0.10921 0.0
H1789 H 0.51645 0.07526 0.09601 0.0
H1790 H 0.52668 0.18063 0.173 0.0
H1791 H 0.54465 0.11975 0.04753 0.0
H1792 H 0.51252 0.1104 0.1229 0.0
H1793 H 0.5099 0.17027 0.08398 0.0
C1794 C 0.50948 0.19221 0.11788 0.0
C1795 C 0.51422 0.19563 0.14321 0.0
C1796 C 0.51948 0.11229 0.10626 0.0
C1797 C 0.52192 0.15589 0.11452 0.0
C1798 C 0.52172 0.09226 0.09082 0.0
C1799 C 0.53056 0.09425 0.06897 0.0
C1800 C 0.52545 0.13443 0.09954 0.0
C1801 C 0.5371 0.11697 0.06355 0.0
C1802 C 0.5137 0.17265 0.1035 0.0
C1803 C 0.52312 0.17882 0.15352 0.0
N1804 N 0.5341 0.13604 0.07846 0.0
N1805 N 0.52637 0.15946 0.13916 0.0
H1806 H 0.10191 0.26744 0.28523 0.0
H1807 H 0.23495 0.32951 0.31427 0.0
H1808 H 0.12608 0.33147 0.33775 0.0
H1809 H 0.20363 0.27068 0.25788 0.0
H1810 H 0.19701 0.33228 0.32392 0.0
H1811 H 0.13994 0.26944 0.27631 0.0
C1812 C 0.11519 0.2821 0.29497 0.0
C1813 C 0.1103 0.29929 0.31239 0.0
C1814 C 0.19849 0.31869 0.30945 0.0
C1815 C 0.1552 0.30166 0.30204 0.0
C1816 C 0.22021 0.3172 0.30381 0.0
C1817 C 0.22283 0.29935 0.28546 0.0
C1818 C 0.17907 0.3022 0.2966 0.0
C1819 C 0.2029 0.28397 0.27273 0.0
C1820 C 0.13718 0.28323 0.28977 0.0
C1821 C 0.12874 0.3178 0.32411 0.0
N1822 N 0.18224 0.28566 0.27853 0.0
N1823 N 0.15029 0.31843 0.31885 0.0
H1824 H 0.96908 0.99921 0.19252 0.0
H1825 H 0.97971 0.05201 0.07098 0.0
H1826 H 0.94948 0.06322 0.18281 0.0
H1827 H 0.02503 0.01207 0.09708 0.0
H1828 H 0.96241 0.05081 0.10824 0.0
H1829 H 0.98342 0.99789 0.15344 0.0
C1830 C 0.96751 0.01279 0.18205 0.0
C1831 C 0.95813 0.03139 0.19098 0.0
C1832 C 0.97611 0.04227 0.10573 0.0
C1833 C 0.97437 0.02991 0.14634 0.0
C1834 C 0.98591 0.0429 0.08449 0.0
C1835 C 1.00389 0.03227 0.08108 0.0
C1836 C 0.984 0.03044 0.12335 0.0
C1837 C 0.01134 0.0207 0.09916 0.0
C1838 C 0.97583 0.01212 0.15986 0.0
C1839 C 0.95667 0.04861 0.17669 0.0
N1840 N 1.00129 0.01998 0.11946 0.0
N1841 N 0.96466 0.04744 0.15508 0.0
H1842 H 0.31484 0.69768 0.49124 0.0
H1843 H 0.20733 0.72524 0.41936 0.0
H1844 H 0.24615 0.66144 0.49374 0.0
H1845 H 0.27553 0.75024 0.40582 0.0
H1846 H 0.22145 0.70518 0.45034 0.0
H1847 H 0.3008 0.72052 0.46324 0.0
C1848 C 0.29681 0.69459 0.48599 0.0
C1849 C 0.28165 0.67756 0.49475 0.0
C1850 C 0.23332 0.71513 0.44064 0.0
C1851 C 0.26552 0.70362 0.46281 0.0
C1852 C 0.22529 0.72667 0.42313 0.0
C1853 C 0.24032 0.7393 0.41009 0.0
C1854 C 0.25652 0.71642 0.44517 0.0
C1855 C 0.2634 0.74045 0.41537 0.0
C1856 C 0.28882 0.70759 0.46997 0.0
C1857 C 0.25846 0.6743 0.48733 0.0
N1858 N 0.27082 0.72911 0.43253 0.0
N1859 N 0.2511 0.68721 0.47175 0.0
H1860 H 0.66235 0.03032 0.66069 0.0
H1861 H 0.56419 0.0773 0.59541 0.0
H1862 H 0.63875 0.08864 0.6958 0.0
H1863 H 0.57501 0.00756 0.57731 0.0
H1864 H 0.59555 0.08636 0.62897 0.0
H1865 H 0.6363 0.02819 0.62438 0.0
C1866 C 0.65202 0.04298 0.6606 0.0
C1867 C 0.65213 0.05918 0.68147 0.0
C1868 C 0.59091 0.06909 0.61764 0.0
C1869 C 0.62214 0.05652 0.64036 0.0
C1870 C 0.57295 0.06385 0.59887 0.0
C1871 C 0.5674 0.0418 0.58377 0.0
C1872 C 0.60313 0.05207 0.62094 0.0
C1873 C 0.57909 0.02486 0.58857 0.0
C1874 C 0.63704 0.04163 0.63998 0.0
C1875 C 0.63875 0.0755 0.68022 0.0
N1876 N 0.5966 0.03044 0.60666 0.0
N1877 N 0.62388 0.07348 0.66007 0.0
H1878 H 0.32241 0.32121 0.97706 0.0
H1879 H 0.27532 0.33181 0.84256 0.0
H1880 H 0.2782 0.36615 0.96144 0.0
H1881 H 0.31 0.27854 0.85776 0.0
H1882 H 0.27636 0.34444 0.88591 0.0
H1883 H 0.31782 0.30501 0.93383 0.0
C1884 C 0.3115 0.32751 0.96461 0.0
C1885 C 0.30071 0.34518 0.9731 0.0
C1886 C 0.28376 0.32998 0.87982 0.0
C1887 C 0.29568 0.32682 0.92318 0.0
C1888 C 0.28327 0.32275 0.85496 0.0
C1889 C 0.29289 0.30419 0.84625 0.0
C1890 C 0.29406 0.31875 0.89642 0.0
C1891 C 0.30269 0.29312 0.86344 0.0
C1892 C 0.30894 0.31824 0.93985 0.0
C1893 C 0.2868 0.35253 0.95591 0.0
N1894 N 0.30315 0.30064 0.88763 0.0
N1895 N 0.28488 0.34351 0.93185 0.0
H1896 H 1.0033 0.01223 0.32352 0.0
H1897 H 0.97625 0.02035 0.45958 0.0
H1898 H 0.93887 0.01575 0.3456 0.0
H1899 H 0.04116 0.01368 0.44074 0.0
H1900 H 0.96195 0.01545 0.41694 0.0
H1901 H 0.01715 0.0092 0.36515 0.0
C1902 C 0.99202 0.01218 0.33704 0.0
C1903 C 0.97006 0.0149 0.33123 0.0
C1904 C 0.97931 0.0149 0.42198 0.0
C1905 C 0.98568 0.01145 0.37864 0.0
C1906 C 0.98753 0.0178 0.44641 0.0
C1907 C 0.01002 0.01772 0.45375 0.0
C1908 C 0.99369 0.01213 0.40455 0.0
C1909 C 0.0237 0.01391 0.43582 0.0
C1910 C 0.99994 0.01053 0.36077 0.0
C1911 C 0.95612 0.01462 0.34935 0.0
N1912 N 0.01539 0.01151 0.41198 0.0
N1913 N 0.96419 0.0131 0.37218 0.0
H1914 H 0.32761 0.67582 0.62624 0.0
H1915 H 0.2598 0.76013 0.69064 0.0
H1916 H 0.26263 0.67909 0.59167 0.0
H1917 H 0.30285 0.7251 0.72954 0.0
H1918 H 0.26225 0.73454 0.65283 0.0
H1919 H 0.32098 0.6985 0.66356 0.0
C1920 C 0.31199 0.68145 0.62659 0.0
C1921 C 0.29565 0.67578 0.60608 0.0
C1922 C 0.27093 0.73247 0.66979 0.0
C1923 C 0.28807 0.70184 0.64829 0.0
C1924 C 0.26963 0.74706 0.69126 0.0
C1925 C 0.28138 0.74496 0.71319 0.0
C1926 C 0.28428 0.71607 0.67046 0.0
C1927 C 0.2937 0.7276 0.71307 0.0
C1928 C 0.30814 0.69422 0.64782 0.0
C1929 C 0.27554 0.68318 0.60732 0.0
N1930 N 0.295 0.71402 0.69202 0.0
N1931 N 0.27236 0.69616 0.62811 0.0
H1932 H 0.66338 0.03068 0.82449 0.0
H1933 H 0.57484 0.10018 0.87432 0.0
H1934 H 0.61598 0.05516 0.77872 0.0
H1935 H 0.62557 0.08038 0.92021 0.0
H1936 H 0.58914 0.08292 0.83878 0.0
H1937 H 0.64864 0.0473 0.85986 0.0
C1938 C 0.64989 0.03953 0.82187 0.0
C1939 C 0.64108 0.04181 0.7987 0.0
C1940 C 0.59718 0.08242 0.85664 0.0
C1941 C 0.62408 0.0607 0.83891 0.0
C1942 C 0.58914 0.09243 0.87685 0.0
C1943 C 0.59907 0.09165 0.90009 0.0
C1944 C 0.61525 0.07164 0.85983 0.0
C1945 C 0.61733 0.0811 0.90252 0.0
C1946 C 0.64147 0.049 0.84205 0.0
C1947 C 0.62336 0.05311 0.7963 0.0
N1948 N 0.62482 0.07145 0.8826 0.0
N1949 N 0.61548 0.06222 0.8162 0.0
H1950 H 0.27079 0.37138 0.10885 0.0
H1951 H 0.30362 0.28656 0.19764 0.0
H1952 H 0.31411 0.3241 0.09444 0.0
H1953 H 0.2678 0.33942 0.21973 0.0
H1954 H 0.30468 0.29863 0.15854 0.0
H1955 H 0.2659 0.35791 0.14756 0.0
C1956 C 0.27886 0.35781 0.11351 0.0
C1957 C 0.29287 0.34883 0.09823 0.0
C1958 C 0.29656 0.30771 0.17182 0.0
C1959 C 0.28763 0.33366 0.14271 0.0
C1960 C 0.29593 0.30079 0.19429 0.0
C1961 C 0.28546 0.31188 0.21211 0.0
C1962 C 0.28669 0.326 0.16674 0.0
C1963 C 0.27605 0.33039 0.20658 0.0
C1964 C 0.27627 0.35034 0.13577 0.0
C1965 C 0.30318 0.33158 0.10553 0.0
N1966 N 0.27681 0.33683 0.18435 0.0
N1967 N 0.30042 0.32468 0.12713 0.0
H1968 H 0.24119 0.99539 0.97259 0.0
H1969 H 0.1342 0.96106 0.03793 0.0
H1970 H 0.21895 0.92867 0.99507 0.0
H1971 H 0.16155 0.03031 0.02326 0.0
H1972 H 0.15828 0.94531 0.01126 0.0
H1973 H 0.20477 1.00398 0.97846 0.0
C1974 C 0.2284 0.98224 0.97803 0.0
C1975 C 0.23325 0.96163 0.98411 0.0
C1976 C 0.15869 0.96389 0.01354 0.0
C1977 C 0.192 0.97151 0.99137 0.0
C1978 C 0.14514 0.9729 0.02895 0.0
C1979 C 0.14629 0.99708 0.03326 0.0
C1980 C 0.17358 0.97923 0.00255 0.0
C1981 C 0.16019 0.01155 0.02057 0.0
C1982 C 0.20768 0.98721 0.98156 0.0
C1983 C 0.21604 0.94509 0.99084 0.0
N1984 N 0.17357 1.00245 0.00608 0.0
N1985 N 0.19633 0.95063 0.99487 0.0
H1986 H 0.69119 0.60854 0.96128 0.0
H1987 H 0.61033 0.57279 0.05786 0.0
H1988 H 0.70196 0.64819 0.03398 0.0
H1989 H 0.58738 0.5581 0.98113 0.0
H1990 H 0.64663 0.59617 0.05047 0.0
H1991 H 0.65516 0.58581 0.96904 0.0
C1992 C 0.68588 0.61261 0.97881 0.0
C1993 C 0.69954 0.63039 0.99696 0.0
C1994 C 0.63368 0.58767 0.03527 0.0
C1995 C 0.65857 0.60405 0.00612 0.0
C1996 C 0.61319 0.57417 0.03947 0.0
C1997 C 0.59617 0.56347 0.02001 0.0
C1998 C 0.63716 0.58993 0.01143 0.0
C1999 C 0.60026 0.5661 0.99653 0.0
C2000 C 0.66534 0.59961 0.98323 0.0
C2001 C 0.69185 0.6348 0.0194 0.0
N2002 N 0.62041 0.57894 0.99285 0.0
N2003 N 0.67195 0.62155 0.02344 0.0
H2004 H 0.68622 0.51039 0.25029 0.0
H2005 H 0.72915 0.39632 0.26494 0.0
H2006 H 0.69583 0.48944 0.31987 0.0
H2007 H 0.75201 0.43934 0.21285 0.0
H2008 H 0.71273 0.42747 0.28353 0.0
H2009 H 0.70567 0.48089 0.23357 0.0
C2010 C 0.69248 0.49966 0.26202 0.0
C2011 C 0.6896 0.50243 0.28649 0.0
C2012 C 0.72145 0.43001 0.26807 0.0
C2013 C 0.71137 0.46864 0.26752 0.0
C2014 C 0.73098 0.41233 0.25752 0.0
C2015 C 0.74186 0.41502 0.23706 0.0
C2016 C 0.72245 0.45028 0.25784 0.0
C2017 C 0.74328 0.43611 0.22812 0.0
C2018 C 0.70361 0.48295 0.25253 0.0
C2019 C 0.69796 0.48804 0.30095 0.0
N2020 N 0.73345 0.4528 0.23839 0.0
N2021 N 0.7083 0.47158 0.29119 0.0
H2022 H 0.85846 0.46775 0.47981 0.0
H2023 H 0.97375 0.56092 0.53031 0.0
H2024 H 0.86198 0.52631 0.53676 0.0
H2025 H 0.96981 0.48734 0.50583 0.0
H2026 H 0.93254 0.55201 0.52762 0.0
H2027 H 0.89956 0.47905 0.48204 0.0
C2028 C 0.86794 0.48341 0.49224 0.0
C2029 C 0.85716 0.49649 0.50782 0.0
C2030 C 0.94078 0.53785 0.52307 0.0
C2031 C 0.90364 0.50901 0.51097 0.0
C2032 C 0.96414 0.54287 0.52471 0.0
C2033 C 0.9749 0.52477 0.51839 0.0
C2034 C 0.92832 0.51472 0.5144 0.0
C2035 C 0.96198 0.50168 0.51108 0.0
C2036 C 0.89127 0.48963 0.49376 0.0
C2037 C 0.86992 0.51627 0.5241 0.0
N2038 N 0.9392 0.49732 0.50894 0.0
N2039 N 0.89268 0.522 0.52533 0.0
H2040 H 0.31733 0.06057 0.30184 0.0
H2041 H 0.35792 0.1805 0.25466 0.0
H2042 H 0.37705 0.11386 0.33431 0.0
H2043 H 0.29216 0.13396 0.23055 0.0
H2044 H 0.36571 0.15508 0.28309 0.0
H2045 H 0.30645 0.08759 0.27665 0.0
C2046 C 0.32754 0.0784 0.30436 0.0
C2047 C 0.34779 0.08544 0.32022 0.0
C2048 C 0.34964 0.1503 0.27142 0.0
C2049 C 0.33642 0.11564 0.29092 0.0
C2050 C 0.34545 0.16449 0.25488 0.0
C2051 C 0.32455 0.159 0.2402 0.0
C2052 C 0.33277 0.13058 0.27315 0.0
C2053 C 0.30858 0.13851 0.24153 0.0
C2054 C 0.32162 0.09363 0.28976 0.0
C2055 C 0.36107 0.10821 0.32245 0.0
N2056 N 0.31297 0.12504 0.2579 0.0
N2057 N 0.35531 0.1225 0.30762 0.0
H2058 H 0.30749 0.12645 0.55109 0.0
H2059 H 0.42418 0.10563 0.5142 0.0
H2060 H 0.3446 0.16621 0.504 0.0
H2061 H 0.40381 0.09421 0.58302 0.0
H2062 H 0.39093 0.1214 0.50543 0.0
H2063 H 0.33943 0.10871 0.55919 0.0
C2064 C 0.32241 0.13158 0.54265 0.0
C2065 C 0.32351 0.14792 0.527 0.0
C2066 C 0.3937 0.11528 0.52237 0.0
C2067 C 0.35959 0.12731 0.53561 0.0
C2068 C 0.41246 0.10617 0.52724 0.0
C2069 C 0.41652 0.0988 0.54933 0.0
C2070 C 0.37888 0.1166 0.5396 0.0
C2071 C 0.4011 0.09986 0.56582 0.0
C2072 C 0.34054 0.12143 0.54721 0.0
C2073 C 0.34315 0.15385 0.51637 0.0
N2074 N 0.38286 0.10861 0.56062 0.0
N2075 N 0.36037 0.14339 0.5207 0.0
H2076 H 0.70727 0.62542 0.34692 0.0
H2077 H 0.75761 0.69893 0.24988 0.0
H2078 H 0.681 0.60553 0.27079 0.0
H2079 H 0.75515 0.73106 0.32305 0.0
H2080 H 0.73557 0.66137 0.25764 0.0
H2081 H 0.73096 0.66156 0.33881 0.0
C2082 C 0.70648 0.62864 0.32851 0.0
C2083 C 0.69204 0.61249 0.30953 0.0
C2084 C 0.74006 0.67664 0.272 0.0
C2085 C 0.71938 0.65356 0.30013 0.0
C2086 C 0.75276 0.69788 0.26766 0.0
C2087 C 0.75813 0.71786 0.28592 0.0
C2088 C 0.7333 0.67545 0.2949 0.0
C2089 C 0.75122 0.71592 0.30855 0.0
C2090 C 0.71998 0.64926 0.32392 0.0
C2091 C 0.69175 0.61759 0.286 0.0
N2092 N 0.73925 0.69503 0.31247 0.0
N2093 N 0.70534 0.63764 0.28192 0.0
H2094 H 0.80722 0.459 0.81835 0.0
H2095 H 0.83142 0.33984 0.7664 0.0
H2096 H 0.86305 0.45608 0.77833 0.0
H2097 H 0.76461 0.34699 0.77778 0.0
H2098 H 0.84265 0.38207 0.76655 0.0
H2099 H 0.79049 0.41776 0.8012 0.0
C2100 C 0.81586 0.44968 0.80584 0.0
C2101 C 0.83665 0.46073 0.80002 0.0
C2102 C 0.82538 0.37425 0.76838 0.0
C2103 C 0.81774 0.41377 0.78037 0.0
C2104 C 0.81898 0.35019 0.76826 0.0
C2105 C 0.7973 0.34022 0.7728 0.0
C2106 C 0.81001 0.38813 0.77344 0.0
C2107 C 0.78171 0.35423 0.77492 0.0
C2108 C 0.80622 0.42625 0.79584 0.0
C2109 C 0.84703 0.44806 0.7834 0.0
N2110 N 0.78853 0.37766 0.77578 0.0
N2111 N 0.83765 0.42502 0.77445 0.0
H2112 H 0.03425 0.84564 0.03305 0.0
H2113 H 0.06553 0.98654 0.0724 0.0
H2114 H 0.08107 0.88122 0.09683 0.0
H2115 H 0.03313 0.95028 0.00122 0.0
H2116 H 0.07098 0.94895 0.08231 0.0
H2117 H 0.03318 0.88373 0.02183 0.0
C2118 C 0.04474 0.86142 0.04452 0.0
C2119 C 0.05809 0.8598 0.06582 0.0
C2120 C 0.06258 0.94918 0.06454 0.0
C2121 C 0.05631 0.90433 0.05324 0.0
C2122 C 0.05942 0.97076 0.0588 0.0
C2123 C 0.04828 0.9719 0.03598 0.0
C2124 C 0.0544 0.92818 0.04751 0.0
C2125 C 0.0411 0.95055 0.01926 0.0
C2126 C 0.04398 0.88333 0.03812 0.0
C2127 C 0.07088 0.88126 0.08 0.0
N2128 N 0.04404 0.9298 0.0254 0.0
N2129 N 0.06949 0.90246 0.07364 0.0
H2130 H 0.95791 0.30146 0.87808 0.0
H2131 H 0.82514 0.24726 0.83726 0.0
H2132 H 0.91991 0.24698 0.91047 0.0
H2133 H 0.86546 0.30084 0.80567 0.0
H2134 H 0.85866 0.24757 0.86524 0.0
H2135 H 0.92348 0.30241 0.85309 0.0
C2136 C 0.94225 0.28982 0.88017 0.0
C2137 C 0.94195 0.27409 0.89651 0.0
C2138 C 0.86017 0.25923 0.85217 0.0
C2139 C 0.90202 0.27493 0.86738 0.0
C2140 C 0.84102 0.2591 0.83617 0.0
C2141 C 0.84238 0.27404 0.81895 0.0
C2142 C 0.88098 0.27436 0.85098 0.0
C2143 C 0.86351 0.28883 0.81837 0.0
C2144 C 0.92251 0.29033 0.86574 0.0
C2145 C 0.92099 0.25949 0.89826 0.0
N2146 N 0.88186 0.2886 0.83407 0.0
N2147 N 0.90192 0.26015 0.88378 0.0
H2148 H 0.51029 0.21854 0.55706 0.0
H2149 H 0.57778 0.11599 0.54632 0.0
H2150 H 0.5811 0.23279 0.58439 0.0
H2151 H 0.50553 0.10351 0.53998 0.0
H2152 H 0.58056 0.15862 0.55586 0.0
H2153 H 0.50955 0.1769 0.54637 0.0
C2154 C 0.52587 0.2131 0.56057 0.0
C2155 C 0.54585 0.22971 0.57164 0.0
C2156 C 0.5641 0.14655 0.55244 0.0
C2157 C 0.545 0.18103 0.5592 0.0
C2158 C 0.56249 0.12211 0.54676 0.0
C2159 C 0.54138 0.10582 0.54234 0.0
C2160 C 0.54441 0.15502 0.55342 0.0
C2161 C 0.52221 0.11512 0.54364 0.0
C2162 C 0.52535 0.18907 0.55454 0.0
C2163 C 0.56528 0.22094 0.57582 0.0
N2164 N 0.52418 0.13884 0.54889 0.0
N2165 N 0.56438 0.19737 0.56957 0.0
H2166 H 0.57741 0.79425 0.42014 0.0
H2167 H 0.64974 0.7801 0.31062 0.0
H2168 H 0.55453 0.74147 0.35543 0.0
H2169 H 0.67088 0.83421 0.37435 0.0
H2170 H 0.61661 0.76293 0.32848 0.0
H2171 H 0.61334 0.80672 0.40525 0.0
C2172 C 0.57998 0.78515 0.40289 0.0
C2173 C 0.56282 0.76685 0.38899 0.0
C2174 C 0.6286 0.77847 0.33862 0.0
C2175 C 0.604 0.7811 0.37173 0.0
C2176 C 0.64759 0.78817 0.32849 0.0
C2177 C 0.66293 0.80883 0.34084 0.0
C2178 C 0.62499 0.78945 0.36131 0.0
C2179 C 0.65924 0.81856 0.36394 0.0
C2180 C 0.60052 0.7923 0.39436 0.0
C2181 C 0.56719 0.75573 0.36675 0.0
N2182 N 0.64062 0.80892 0.37331 0.0
N2183 N 0.58726 0.7631 0.35878 0.0
H2184 H 0.04922 0.27776 0.43136 0.0
H2185 H 0.02379 0.14032 0.42818 0.0
H2186 H 0.04595 0.228 0.36629 0.0
H2187 H 0.03533 0.1919 0.49351 0.0
H2188 H 0.03828 0.17172 0.40597 0.0
H2189 H 0.05103 0.24693 0.45521 0.0
C2190 C 0.04979 0.26048 0.42221 0.0
C2191 C 0.04788 0.25548 0.39692 0.0
C2192 C 0.03828 0.17613 0.4253 0.0
C2193 C 0.04871 0.21962 0.42392 0.0
C2194 C 0.03023 0.15816 0.43799 0.0
C2195 C 0.02868 0.16359 0.46271 0.0
C2196 C 0.04451 0.19967 0.43744 0.0
C2197 C 0.03656 0.18703 0.4745 0.0
C2198 C 0.05055 0.24277 0.43578 0.0
C2199 C 0.04793 0.23264 0.38583 0.0
N2200 N 0.04384 0.20421 0.46173 0.0
N2201 N 0.04788 0.21542 0.39935 0.0
H2202 H 0.60111 0.28542 0.21329 0.0
H2203 H 0.70659 0.25588 0.29026 0.0
H2204 H 0.59453 0.23632 0.26267 0.0
H2205 H 0.71457 0.29714 0.23375 0.0
H2206 H 0.66572 0.25009 0.28145 0.0
H2207 H 0.64247 0.2919 0.22176 0.0
C2208 C 0.60824 0.27611 0.22601 0.0
C2209 C 0.59399 0.26026 0.23722 0.0
C2210 C 0.67636 0.26036 0.27087 0.0
C2211 C 0.64169 0.26763 0.24707 0.0
C2212 C 0.69987 0.26349 0.27578 0.0
C2213 C 0.71443 0.27668 0.26255 0.0
C2214 C 0.66693 0.2707 0.25268 0.0
C2215 C 0.70428 0.28675 0.24451 0.0
C2216 C 0.63194 0.27975 0.23078 0.0
C2217 C 0.60455 0.24867 0.25344 0.0
N2218 N 0.68135 0.28359 0.24016 0.0
N2219 N 0.62749 0.25259 0.25784 0.0
H2220 H 0.54798 0.85723 0.93446 0.0
H2221 H 0.54196 0.99146 0.94377 0.0
H2222 H 0.54502 0.89023 0.87171 0.0
H2223 H 0.55718 0.95969 0.0052 0.0
H2224 H 0.54485 0.95593 0.91691 0.0
H2225 H 0.55344 0.89549 0.96046 0.0
C2226 C 0.54913 0.87273 0.92619 0.0
C2227 C 0.54644 0.87061 0.90092 0.0
C2228 C 0.54747 0.95672 0.93632 0.0
C2229 C 0.55175 0.91463 0.93063 0.0
C2230 C 0.54573 0.977 0.95175 0.0
C2231 C 0.54807 0.97819 0.97703 0.0
C2232 C 0.55187 0.9375 0.94619 0.0
C2233 C 0.55372 0.95911 0.98604 0.0
C2234 C 0.55206 0.89459 0.94104 0.0
C2235 C 0.54751 0.89119 0.89113 0.0
N2236 N 0.55519 0.93959 0.97074 0.0
N2237 N 0.54977 0.91231 0.90599 0.0
H2238 H 0.93696 0.74632 0.69509 0.0
H2239 H 0.86653 0.79107 0.79811 0.0
H2240 H 0.96937 0.78809 0.76408 0.0
H2241 H 0.8371 0.76433 0.7238 0.0
H2242 H 0.90372 0.78865 0.78702 0.0
H2243 H 0.90037 0.75089 0.70601 0.0
C2244 C 0.93655 0.75662 0.7125 0.0
C2245 C 0.95674 0.76696 0.72848 0.0
C2246 C 0.88918 0.78339 0.77307 0.0
C2247 C 0.91401 0.77196 0.74152 0.0
C2248 C 0.86782 0.78507 0.77938 0.0
C2249 C 0.84836 0.77857 0.7619 0.0
C2250 C 0.89138 0.77453 0.74903 0.0
C2251 C 0.85137 0.76973 0.73808 0.0
C2252 C 0.91544 0.75919 0.71878 0.0
C2253 C 0.95454 0.77988 0.75094 0.0
N2254 N 0.8722 0.76794 0.73245 0.0
N2255 N 0.93377 0.78187 0.75677 0.0
H2256 H 0.08392 0.06766 0.84365 0.0
H2257 H 0.09269 0.02873 0.97366 0.0
H2258 H 0.13921 0.04131 0.87296 0.0
H2259 H 0.03546 0.05017 0.94122 0.0
H2260 H 0.11133 0.03561 0.93819 0.0
H2261 H 0.06758 0.06463 0.88102 0.0
C2262 C 0.09284 0.06162 0.8581 0.0
C2263 C 0.11295 0.0547 0.85512 0.0
C2264 C 0.09467 0.03877 0.93885 0.0
C2265 C 0.09417 0.05084 0.89786 0.0
C2266 C 0.08402 0.03478 0.95906 0.0
C2267 C 0.06243 0.03871 0.96035 0.0
C2268 C 0.08368 0.04683 0.91987 0.0
C2269 C 0.05201 0.04666 0.94094 0.0
C2270 C 0.08341 0.05973 0.87938 0.0
C2271 C 0.12368 0.04687 0.87443 0.0
N2272 N 0.06272 0.05045 0.92155 0.0
N2273 N 0.11409 0.045 0.8949 0.0
H2274 H 0.77583 0.41984 0.57773 0.0
H2275 H 0.83198 0.32449 0.62293 0.0
H2276 H 0.80417 0.37162 0.53266 0.0
H2277 H 0.80291 0.3711 0.66909 0.0
H2278 H 0.81197 0.33396 0.58746 0.0
H2279 H 0.77449 0.39454 0.60831 0.0
C2280 C 0.78078 0.40335 0.57386 0.0
C2281 C 0.79053 0.39784 0.55307 0.0
C2282 C 0.80966 0.34195 0.6053 0.0
C2283 C 0.78968 0.36939 0.58784 0.0
C2284 C 0.8212 0.33665 0.62543 0.0
C2285 C 0.81939 0.34759 0.64861 0.0
C2286 C 0.79673 0.35877 0.60849 0.0
C2287 C 0.80492 0.36276 0.65128 0.0
C2288 C 0.78025 0.38903 0.59137 0.0
C2289 C 0.79689 0.3765 0.54877 0.0
N2290 N 0.79445 0.36834 0.63136 0.0
N2291 N 0.7968 0.36324 0.56628 0.0
H2292 H 0.39563 0.02211 0.39288 0.0
H2293 H 0.50734 0.99129 0.44613 0.0
H2294 H 0.43751 0.98982 0.34829 0.0
H2295 H 0.47844 0.04773 0.4758 0.0
H2296 H 0.47392 0.9768 0.41507 0.0
H2297 H 0.41647 0.0144 0.42851 0.0
C2298 C 0.40878 0.01283 0.39047 0.0
C2299 C 0.41558 0.00755 0.36779 0.0
C2300 C 0.47481 0.99199 0.42882 0.0
C2301 C 0.43961 0.99918 0.40834 0.0
C2302 C 0.49387 1.00043 0.44622 0.0
C2303 C 0.49545 0.02068 0.4634 0.0
C2304 C 0.45745 1.00391 0.42894 0.0
C2305 C 0.47768 0.0319 0.46301 0.0
C2306 C 0.42065 0.00841 0.41082 0.0
C2307 C 0.43232 0.99493 0.36566 0.0
N2308 N 0.4594 0.02337 0.44598 0.0
N2309 N 0.44435 0.99179 0.38589 0.0
H2310 H 0.8264 0.72564 0.09416 0.0
H2311 H 0.76111 0.78158 0.19131 0.0
H2312 H 0.75575 0.72159 0.0739 0.0
H2313 H 0.80419 0.73632 0.20877 0.0
H2314 H 0.76229 0.76857 0.14808 0.0
H2315 H 0.82275 0.73937 0.13632 0.0
C2316 C 0.81017 0.72798 0.09848 0.0
C2317 C 0.79136 0.7225 0.08035 0.0
C2318 C 0.77144 0.76154 0.1615 0.0
C2319 C 0.78721 0.73853 0.12875 0.0
C2320 C 0.77072 0.76888 0.18621 0.0
C2321 C 0.7825 0.75999 0.20395 0.0
C2322 C 0.78474 0.74587 0.15453 0.0
C2323 C 0.79503 0.74385 0.19597 0.0
C2324 C 0.8081 0.73566 0.1226 0.0
C2325 C 0.77068 0.72561 0.08726 0.0
N2326 N 0.79608 0.73758 0.172 0.0
N2327 N 0.76918 0.73361 0.11091 0.0
H2328 H 0.12745 0.04751 0.70683 0.0
H2329 H 0.02479 0.04927 0.6077 0.0
H2330 H 0.05966 0.0434 0.723 0.0
H2331 H 0.08734 0.03381 0.59009 0.0
H2332 H 0.03859 0.05262 0.65076 0.0
H2333 H 0.11423 0.04789 0.66457 0.0
C2334 C 0.1098 0.04675 0.70154 0.0
C2335 C 0.09463 0.04532 0.7185 0.0
C2336 C 0.04927 0.04854 0.63743 0.0
C2337 C 0.0794 0.04581 0.67011 0.0
C2338 C 0.04145 0.04671 0.61287 0.0
C2339 C 0.05487 0.04109 0.59526 0.0
C2340 C 0.07074 0.04495 0.64437 0.0
C2341 C 0.07631 0.03795 0.603 0.0
C2342 C 0.10226 0.04693 0.67739 0.0
C2343 C 0.07195 0.04445 0.71055 0.0
N2344 N 0.08356 0.03993 0.62695 0.0
N2345 N 0.06502 0.04469 0.68693 0.0
H2346 H 0.84407 0.39604 0.45538 0.0
H2347 H 0.76087 0.34269 0.33122 0.0
H2348 H 0.78116 0.41557 0.4387 0.0
H2349 H 0.81865 0.31708 0.35472 0.0
H2350 H 0.76842 0.3708 0.36954 0.0
H2351 H 0.83574 0.36858 0.41712 0.0
C2352 C 0.82853 0.39465 0.44365 0.0
C2353 C 0.81327 0.40811 0.45034 0.0
C2354 C 0.77931 0.35889 0.36631 0.0
C2355 C 0.80356 0.37653 0.40644 0.0
C2356 C 0.77499 0.34288 0.34452 0.0
C2357 C 0.78906 0.32751 0.33991 0.0
C2358 C 0.79791 0.35952 0.38339 0.0
C2359 C 0.8072 0.32844 0.35763 0.0
C2360 C 0.82374 0.37887 0.4218 0.0
C2361 C 0.79341 0.40552 0.43431 0.0
N2362 N 0.81113 0.34423 0.37853 0.0
N2363 N 0.7891 0.38998 0.41308 0.0
H2364 H 0.41725 0.04689 0.24005 0.0
H2365 H 0.45194 0.94899 0.14953 0.0
H2366 H 0.3904 0.97221 0.23392 0.0
H2367 H 0.47561 0.02329 0.15048 0.0
H2368 H 0.42577 0.95754 0.17726 0.0
H2369 H 0.4346 0.03919 0.20354 0.0
C2370 C 0.4146 0.02892 0.23071 0.0
C2371 C 0.4028 0.01009 0.2402 0.0
C2372 C 0.43652 0.97202 0.1713 0.0
C2373 C 0.42264 1.00119 0.19879 0.0
C2374 C 0.45156 0.96713 0.15565 0.0
C2375 C 0.46607 0.9855 0.14812 0.0
C2376 C 0.4362 0.99549 0.17968 0.0
C2377 C 0.46467 0.00868 0.15604 0.0
C2378 C 0.42457 0.02453 0.20996 0.0
C2379 C 0.39977 0.98719 0.22743 0.0
N2380 N 0.45014 0.01307 0.1717 0.0
N2381 N 0.4099 0.98336 0.20754 0.0
H2382 H 0.74855 0.71509 0.94589 0.0
H2383 H 0.8154 0.74889 0.83925 0.0
H2384 H 0.82116 0.73886 0.95624 0.0
H2385 H 0.75653 0.77568 0.84913 0.0
H2386 H 0.81406 0.73604 0.87863 0.0
H2387 H 0.74736 0.72959 0.9071 0.0
C2388 C 0.76416 0.72358 0.94029 0.0
C2389 C 0.78498 0.72569 0.95455 0.0
C2390 C 0.80135 0.74459 0.87206 0.0
C2391 C 0.78369 0.74142 0.90993 0.0
C2392 C 0.80204 0.75176 0.8496 0.0
C2393 C 0.7861 0.76335 0.84106 0.0
C2394 C 0.78419 0.74839 0.88573 0.0
C2395 C 0.76922 0.76689 0.85526 0.0
C2396 C 0.76345 0.73174 0.91814 0.0
C2397 C 0.80466 0.73672 0.94609 0.0
N2398 N 0.76854 0.75925 0.87684 0.0
N2399 N 0.80354 0.74376 0.92429 0.0
H2400 H 0.82172 0.06665 0.06701 0.0
H2401 H 0.93466 0.10515 0.0167 0.0
H2402 H 0.85579 0.13865 0.06799 0.0
H2403 H 0.89997 0.03334 0.01622 0.0
H2404 H 0.91245 0.11833 0.04713 0.0
H2405 H 0.85709 0.05517 0.063 0.0
C2406 C 0.83686 0.08019 0.06736 0.0
C2407 C 0.83578 0.10341 0.06655 0.0
C2408 C 0.90998 0.09965 0.0407 0.0
C2409 C 0.87584 0.09046 0.06123 0.0
C2410 C 0.92239 0.09221 0.02309 0.0
C2411 C 0.91863 0.06824 0.01354 0.0
C2412 C 0.89349 0.083 0.04843 0.0
C2413 C 0.90317 0.05204 0.02295 0.0
C2414 C 0.85704 0.07362 0.06484 0.0
C2415 C 0.85583 0.12035 0.0674 0.0
N2416 N 0.89087 0.05975 0.03959 0.0
N2417 N 0.87501 0.11344 0.06391 0.0
H2418 H 0.37571 0.41329 0.05448 0.0
H2419 H 0.4537 0.51719 0.00446 0.0
H2420 H 0.3485 0.45563 0.0088 0.0
H2421 H 0.47719 0.4817 0.05976 0.0
H2422 H 0.41525 0.49378 0.00363 0.0
H2423 H 0.41351 0.43624 0.05336 0.0
C2424 C 0.37768 0.42725 0.04396 0.0
C2425 C 0.35889 0.43255 0.03173 0.0
C2426 C 0.42885 0.49122 0.01598 0.0
C2427 C 0.40224 0.45922 0.03066 0.0
C2428 C 0.45073 0.50466 0.01657 0.0
C2429 C 0.46863 0.5013 0.03213 0.0
C2430 C 0.42498 0.47429 0.03097 0.0
C2431 C 0.46391 0.48474 0.04733 0.0
C2432 C 0.3993 0.44049 0.04348 0.0
C2433 C 0.36253 0.45096 0.01851 0.0
N2434 N 0.4426 0.47177 0.04626 0.0
N2435 N 0.38381 0.46371 0.01839 0.0
H2436 H 0.35963 0.5446 0.76844 0.0
H2437 H 0.36301 0.67893 0.78309 0.0
H2438 H 0.41729 0.59545 0.75638 0.0
H2439 H 0.30284 0.62497 0.78123 0.0
H2440 H 0.38139 0.64881 0.76535 0.0
H2441 H 0.33659 0.57292 0.7648 0.0
C2442 C 0.3672 0.56155 0.76419 0.0
C2443 C 0.39023 0.56778 0.76256 0.0
C2444 C 0.36393 0.64362 0.7681 0.0
C2445 C 0.36437 0.60075 0.75954 0.0
C2446 C 0.35347 0.66081 0.77808 0.0
C2447 C 0.33153 0.6542 0.78363 0.0
C2448 C 0.35233 0.61979 0.76398 0.0
C2449 C 0.31984 0.6306 0.77722 0.0
C2450 C 0.35412 0.57781 0.76226 0.0
C2451 C 0.39946 0.59002 0.75746 0.0
N2452 N 0.3305 0.61418 0.76808 0.0
N2453 N 0.3866 0.60599 0.7567 0.0
H2454 H 0.20635 0.61672 0.55032 0.0
H2455 H 0.08879 0.52721 0.49584 0.0
H2456 H 0.19855 0.55841 0.49141 0.0
H2457 H 0.10048 0.57506 0.56398 0.0
H2458 H 0.12716 0.54377 0.48904 0.0
H2459 H 0.16585 0.60659 0.55075 0.0
C2460 C 0.19609 0.60178 0.53743 0.0
C2461 C 0.20579 0.58818 0.52097 0.0
C2462 C 0.12123 0.55093 0.50528 0.0
C2463 C 0.15951 0.57658 0.5214 0.0
C2464 C 0.09929 0.54169 0.50901 0.0
C2465 C 0.09165 0.55022 0.53027 0.0
C2466 C 0.13545 0.56859 0.52311 0.0
C2467 C 0.10599 0.5683 0.5473 0.0
C2468 C 0.17298 0.59607 0.53766 0.0
C2469 C 0.19171 0.56925 0.50448 0.0
N2470 N 0.12736 0.57691 0.54339 0.0
N2471 N 0.16919 0.56387 0.50522 0.0
H2472 H 0.76404 0.02309 0.77808 0.0
H2473 H 0.72678 0.89632 0.76905 0.0
H2474 H 0.71554 0.98252 0.71746 0.0
H2475 H 0.79616 0.9307 0.79693 0.0
H2476 H 0.72571 0.9261 0.74369 0.0
H2477 H 0.78205 0.99037 0.77789 0.0
C2478 C 0.75785 0.00766 0.76402 0.0
C2479 C 0.73783 0.005 0.74844 0.0
C2480 C 0.74141 0.92675 0.75478 0.0
C2481 C 0.75752 0.96733 0.74877 0.0
C2482 C 0.74184 0.91 0.76951 0.0
C2483 C 0.76132 0.91164 0.78552 0.0
C2484 C 0.76039 0.94553 0.75671 0.0
C2485 C 0.78067 0.92919 0.78507 0.0
C2486 C 0.76807 0.98891 0.76391 0.0
C2487 C 0.73064 0.98493 0.73026 0.0
N2488 N 0.77956 0.94589 0.77135 0.0
N2489 N 0.73989 0.96631 0.73158 0.0
H2490 H 0.72016 0.89087 0.51955 0.0
H2491 H 0.66175 0.99586 0.50313 0.0
H2492 H 0.75177 0.96342 0.55039 0.0
H2493 H 0.62443 0.92337 0.49243 0.0
H2494 H 0.6951 0.98447 0.51994 0.0
H2495 H 0.68517 0.9024 0.50807 0.0
C2496 C 0.71972 0.90918 0.52402 0.0
C2497 C 0.73894 0.92621 0.53587 0.0
C2498 C 0.67955 0.9711 0.514 0.0
C2499 C 0.69906 0.93953 0.52269 0.0
C2500 C 0.6604 0.9776 0.50452 0.0
C2501 C 0.64016 0.96053 0.49599 0.0
C2502 C 0.67861 0.94732 0.51468 0.0
C2503 C 0.63973 0.93709 0.49808 0.0
C2504 C 0.69973 0.91575 0.51752 0.0
C2505 C 0.73739 0.9497 0.54123 0.0
N2506 N 0.65871 0.93115 0.50695 0.0
N2507 N 0.71785 0.95568 0.53444 0.0
H2508 H 0.40719 0.44751 0.74831 0.0
H2509 H 0.30467 0.36507 0.79449 0.0
H2510 H 0.3699 0.46964 0.80468 0.0
H2511 H 0.34458 0.33646 0.74451 0.0
H2512 H 0.32695 0.40414 0.79467 0.0
H2513 H 0.38306 0.40739 0.74298 0.0
C2514 C 0.39391 0.44404 0.7594 0.0
C2515 C 0.39073 0.46201 0.77709 0.0
C2516 C 0.33092 0.38942 0.78355 0.0
C2517 C 0.36327 0.41642 0.77113 0.0
C2518 C 0.31807 0.36698 0.78337 0.0
C2519 C 0.32272 0.34736 0.76945 0.0
C2520 C 0.34875 0.39254 0.76979 0.0
C2521 C 0.34046 0.35112 0.75555 0.0
C2522 C 0.38024 0.42116 0.75642 0.0
C2523 C 0.37325 0.45647 0.79095 0.0
N2524 N 0.35294 0.37333 0.75613 0.0
N2525 N 0.36034 0.43429 0.7877 0.0
H2526 H 0.23153 0.59249 0.23909 0.0
H2527 H 0.24216 0.72309 0.28493 0.0
H2528 H 0.22459 0.61605 0.31353 0.0
H2529 H 0.2967 0.70569 0.24923 0.0
H2530 H 0.23011 0.68255 0.29014 0.0
H2531 H 0.25102 0.63288 0.23687 0.0
C2532 C 0.23427 0.60614 0.25496 0.0
C2533 C 0.22642 0.60117 0.27651 0.0
C2534 C 0.24487 0.68771 0.28143 0.0
C2535 C 0.24818 0.64672 0.27392 0.0
C2536 C 0.25182 0.71082 0.27852 0.0
C2537 C 0.27078 0.71782 0.26722 0.0
C2538 C 0.25646 0.67132 0.27215 0.0
C2539 C 0.28217 0.70094 0.25837 0.0
C2540 C 0.2455 0.62895 0.25372 0.0
C2541 C 0.23045 0.61926 0.29664 0.0
N2542 N 0.27461 0.67817 0.26073 0.0
N2543 N 0.24072 0.64145 0.29473 0.0
H2544 H 0.46783 0.69592 0.48965 0.0
H2545 H 0.551 0.60818 0.49664 0.0
H2546 H 0.53206 0.70743 0.4634 0.0
H2547 H 0.48247 0.58941 0.51103 0.0
H2548 H 0.54499 0.64535 0.48717 0.0
H2549 H 0.47356 0.65872 0.5002 0.0
C2550 C 0.48332 0.69092 0.48634 0.0
C2551 C 0.49953 0.70542 0.47568 0.0
C2552 C 0.53118 0.63322 0.4924 0.0
C2553 C 0.50616 0.66195 0.4878 0.0
C2554 C 0.53465 0.61183 0.49805 0.0
C2555 C 0.51739 0.59531 0.50511 0.0
C2556 C 0.51016 0.63876 0.49371 0.0
C2557 C 0.49642 0.60134 0.50583 0.0
C2558 C 0.48649 0.66941 0.49227 0.0
C2559 C 0.51905 0.6973 0.47169 0.0
N2560 N 0.49348 0.62246 0.50037 0.0
N2561 N 0.52178 0.67639 0.47775 0.0
H2562 H 0.61707 0.29573 0.70039 0.0
H2563 H 0.74803 0.29848 0.70464 0.0
H2564 H 0.65072 0.30729 0.63839 0.0
H2565 H 0.70538 0.26562 0.75204 0.0
H2566 H 0.7145 0.30465 0.68114 0.0
H2567 H 0.65092 0.28834 0.72064 0.0
C2568 C 0.63162 0.29682 0.69092 0.0
C2569 C 0.63081 0.30225 0.66747 0.0
C2570 C 0.71253 0.29602 0.69664 0.0
C2571 C 0.67031 0.29365 0.69109 0.0
C2572 C 0.73169 0.29243 0.71014 0.0
C2573 C 0.72978 0.28162 0.73069 0.0
C2574 C 0.69122 0.28906 0.70383 0.0
C2575 C 0.708 0.27432 0.73671 0.0
C2576 C 0.65103 0.29244 0.70259 0.0
C2577 C 0.65043 0.30317 0.65639 0.0
N2578 N 0.68978 0.27834 0.72355 0.0
N2579 N 0.66942 0.29906 0.66834 0.0
H2580 H 0.01137 0.33825 0.01504 0.0
H2581 H 0.99179 0.45791 0.98274 0.0
H2582 H 1.00035 0.34427 0.93994 0.0
H2583 H 0.05219 0.46061 0.03041 0.0
H2584 H 0.98617 0.41485 0.97185 0.0
H2585 H 0.01856 0.38156 0.02623 0.0
C2586 C 0.01063 0.34863 0.00089 0.0
C2587 C 0.00567 0.33744 0.97644 0.0
C2588 C 1.0006 0.42489 0.98476 0.0
C2589 C 0.01276 0.38711 0.98927 0.0
C2590 C 1.00378 0.44949 0.9911 0.0
C2591 C 0.02258 0.46312 0.00751 0.0
C2592 C 0.01584 0.41347 0.9955 0.0
C2593 C 0.03754 0.45098 0.0176 0.0
C2594 C 0.01469 0.37336 0.00731 0.0
C2595 C 1.00455 0.35201 0.95898 0.0
N2596 N 0.03372 0.42699 0.01171 0.0
N2597 N 0.0077 0.37586 0.96569 0.0
H2598 H 0.98746 0.79873 0.12016 0.0
H2599 H 0.92319 0.73147 0.21486 0.0
H2600 H 0.01944 0.76296 0.16961 0.0
H2601 H 0.89728 0.78162 0.17956 0.0
H2602 H 0.95783 0.74105 0.1967 0.0
H2603 H 0.95312 0.79012 0.13907 0.0
C2604 C 0.98718 0.78881 0.13478 0.0
C2605 C 0.00636 0.78148 0.14325 0.0
C2606 C 0.94468 0.75013 0.19302 0.0
C2607 C 0.96717 0.77178 0.16511 0.0
C2608 C 0.92499 0.7447 0.20344 0.0
C2609 C 0.90753 0.75588 0.19874 0.0
C2610 C 0.9468 0.76657 0.17739 0.0
C2611 C 0.9105 0.77279 0.18372 0.0
C2612 C 0.96764 0.7841 0.14571 0.0
C2613 C 1.00507 0.76891 0.16243 0.0
N2614 N 0.92971 0.77749 0.17338 0.0
N2615 N 0.98585 0.76444 0.17267 0.0
H2616 H 0.55123 0.3083 0.16068 0.0
H2617 H 0.5269 0.41503 0.10079 0.0
H2618 H 0.48286 0.31349 0.14158 0.0
H2619 H 0.58216 0.38329 0.08621 0.0
H2620 H 0.51105 0.38163 0.12003 0.0
H2621 H 0.56437 0.34054 0.1391 0.0
C2622 C 0.539 0.31632 0.15213 0.0
C2623 C 0.5159 0.30809 0.1529 0.0
C2624 C 0.5266 0.38206 0.11248 0.0
C2625 C 0.53085 0.34519 0.12835 0.0
C2626 C 0.53559 0.40102 0.10133 0.0
C2627 C 0.55623 0.40238 0.09225 0.0
C2628 C 0.53851 0.36457 0.11488 0.0
C2629 C 0.56665 0.38357 0.09362 0.0
C2630 C 0.54648 0.33461 0.13968 0.0
C2631 C 0.50081 0.31915 0.14132 0.0
N2632 N 0.55792 0.36577 0.10502 0.0
N2633 N 0.50854 0.33723 0.12969 0.0
H2634 H 0.97648 0.3236 0.28719 0.0
H2635 H 0.85292 0.28503 0.32577 0.0
H2636 H 0.96123 0.28201 0.34232 0.0
H2637 H 0.86165 0.30357 0.2559 0.0
H2638 H 0.89348 0.28864 0.33423 0.0
H2639 H 0.93576 0.32135 0.27744 0.0
C2640 C 0.96477 0.31424 0.29746 0.0
C2641 C 0.97275 0.3034 0.31604 0.0
C2642 C 0.88662 0.29216 0.31709 0.0
C2643 C 0.92586 0.30085 0.30498 0.0
C2644 C 0.8633 0.2901 0.31219 0.0
C2645 C 0.85351 0.29443 0.29015 0.0
C2646 C 0.90077 0.29889 0.30003 0.0
C2647 C 0.86824 0.30076 0.27339 0.0
C2648 C 0.94145 0.3129 0.29181 0.0
C2649 C 0.95641 0.29127 0.32837 0.0
N2650 N 0.891 0.30294 0.2787 0.0
N2651 N 0.93407 0.29049 0.32278 0.0
H2652 H 0.04259 0.69136 0.66653 0.0
H2653 H 0.0056 0.59735 0.54215 0.0
H2654 H 0.98457 0.68737 0.61446 0.0
H2655 H 0.05601 0.59171 0.59847 0.0
H2656 H 0.99986 0.63231 0.5675 0.0
H2657 H 0.05002 0.65703 0.64114 0.0
C2658 C 0.03151 0.68346 0.64973 0.0
C2659 C 0.01289 0.69243 0.64274 0.0
C2660 C 0.01224 0.62354 0.57441 0.0
C2661 C 0.02132 0.653 0.61355 0.0
C2662 C 0.01562 0.60366 0.55982 0.0
C2663 C 0.03142 0.59178 0.56813 0.0
C2664 C 0.02484 0.63181 0.5976 0.0
C2665 C 0.0436 0.60037 0.59143 0.0
C2666 C 0.0357 0.66375 0.63529 0.0
C2667 C 0.99909 0.68121 0.62076 0.0
N2668 N 0.04013 0.61991 0.60534 0.0
N2669 N 1.0036 0.66224 0.60707 0.0
H2670 H 0.61923 0.83992 0.78872 0.0
H2671 H 0.71743 0.77128 0.80879 0.0
H2672 H 0.61653 0.789 0.83596 0.0
H2673 H 0.72576 0.83217 0.77454 0.0
H2674 H 0.68025 0.77613 0.8172 0.0
H2675 H 0.65717 0.8362 0.78214 0.0
C2676 C 0.62655 0.82796 0.79786 0.0
C2677 C 0.61423 0.81483 0.81306 0.0
C2678 C 0.69012 0.7885 0.80787 0.0
C2679 C 0.65845 0.81023 0.80514 0.0
C2680 C 0.71145 0.78563 0.80282 0.0
C2681 C 0.72495 0.80104 0.79044 0.0
C2682 C 0.68173 0.80702 0.80059 0.0
C2683 C 0.71616 0.81968 0.78395 0.0
C2684 C 0.64841 0.82588 0.79404 0.0
C2685 C 0.6251 0.79967 0.82422 0.0
N2686 N 0.69522 0.822 0.78891 0.0
N2687 N 0.64631 0.79769 0.81992 0.0
H2688 H 0.48475 0.57396 0.70447 0.0
H2689 H 0.49151 0.4979 0.57698 0.0
H2690 H 0.45468 0.49944 0.68538 0.0
H2691 H 0.51066 0.57366 0.59326 0.0
H2692 H 0.47845 0.49755 0.61645 0.0
H2693 H 0.4954 0.57357 0.66417 0.0
C2694 C 0.48031 0.55746 0.69178 0.0
C2695 C 0.46876 0.53668 0.6984 0.0
C2696 C 0.48537 0.51426 0.61134 0.0
C2697 C 0.48103 0.53616 0.65188 0.0
C2698 C 0.49263 0.51448 0.58869 0.0
C2699 C 0.50207 0.53587 0.58175 0.0
C2700 C 0.48772 0.53558 0.62725 0.0
C2701 C 0.50374 0.55678 0.59798 0.0
C2702 C 0.4864 0.55729 0.66868 0.0
C2703 C 0.46355 0.51588 0.68107 0.0
N2704 N 0.49673 0.55611 0.61998 0.0
N2705 N 0.46978 0.51613 0.65861 0.0
H2706 H 0.74968 0.14192 0.97452 0.0
H2707 H 0.74867 0.26306 0.93075 0.0
H2708 H 0.80132 0.20535 0.00307 0.0
H2709 H 0.72014 0.19574 0.88458 0.0
H2710 H 0.76311 0.24296 0.96168 0.0
H2711 H 0.73374 0.16238 0.94514 0.0
C2712 C 0.75759 0.16018 0.97465 0.0
C2713 C 0.77684 0.17201 0.99116 0.0
C2714 C 0.75356 0.23264 0.94482 0.0
C2715 C 0.75861 0.19542 0.95791 0.0
C2716 C 0.74516 0.24404 0.92736 0.0
C2717 C 0.73311 0.23092 0.90532 0.0
C2718 C 0.74953 0.20803 0.9402 0.0
C2719 C 0.72933 0.20637 0.90145 0.0
C2720 C 0.74855 0.17177 0.95786 0.0
C2721 C 0.78653 0.1956 0.99051 0.0
N2722 N 0.73747 0.19566 0.9188 0.0
N2723 N 0.77721 0.20663 0.97418 0.0
H2724 H 0.16664 0.52446 0.16234 0.0
H2725 H 0.06645 0.57038 0.09976 0.0
H2726 H 0.14726 0.58732 0.19287 0.0
H2727 H 0.08405 0.5057 0.07207 0.0
H2728 H 0.09742 0.57836 0.13301 0.0
H2729 H 0.13954 0.52026 0.12635 0.0
C2730 C 0.15701 0.53766 0.16124 0.0
C2731 C 0.15878 0.55596 0.18077 0.0
C2732 C 0.09445 0.56239 0.11971 0.0
C2733 C 0.1275 0.55098 0.14006 0.0
C2734 C 0.07662 0.55767 0.10099 0.0
C2735 C 0.07292 0.53741 0.08329 0.0
C2736 C 0.10847 0.54665 0.12061 0.0
C2737 C 0.08658 0.52158 0.08542 0.0
C2738 C 0.14141 0.53514 0.1408 0.0
C2739 C 0.14618 0.57275 0.17832 0.0
N2740 N 0.10391 0.52662 0.10373 0.0
N2741 N 0.13071 0.56962 0.15844 0.0
H2742 H 0.76929 0.84362 0.46821 0.0
H2743 H 0.82812 0.82632 0.35007 0.0
H2744 H 0.84042 0.84685 0.47132 0.0
H2745 H 0.76038 0.78699 0.35075 0.0
H2746 H 0.83181 0.83966 0.39376 0.0
H2747 H 0.76427 0.82807 0.42436 0.0
C2748 C 0.78379 0.84095 0.45978 0.0
C2749 C 0.80528 0.84638 0.47363 0.0
C2750 C 0.81617 0.82799 0.38437 0.0
C2751 C 0.79974 0.82932 0.42345 0.0
C2752 C 0.81416 0.82013 0.35941 0.0
C2753 C 0.79426 0.80478 0.34669 0.0
C2754 C 0.79785 0.82116 0.39679 0.0
C2755 C 0.7762 0.79854 0.35976 0.0
C2756 C 0.78091 0.83208 0.43478 0.0
C2757 C 0.82349 0.84268 0.46158 0.0
N2758 N 0.77838 0.80681 0.38404 0.0
N2759 N 0.82035 0.83468 0.43728 0.0
H2760 H 0.49704 0.50093 0.82597 0.0
H2761 H 0.48011 0.53123 0.96453 0.0
H2762 H 0.45327 0.54373 0.8529 0.0
H2763 H 0.5406 0.51193 0.94515 0.0
H2764 H 0.46711 0.52948 0.92215 0.0
H2765 H 0.51078 0.49908 0.86811 0.0
C2766 C 0.49019 0.50974 0.84063 0.0
C2767 C 0.47367 0.52217 0.8358 0.0
C2768 C 0.48322 0.52553 0.92705 0.0
C2769 C 0.48915 0.52001 0.88371 0.0
C2770 C 0.49074 0.52662 0.95134 0.0
C2771 C 0.51171 0.52214 0.95853 0.0
C2772 C 0.49654 0.51959 0.90948 0.0
C2773 C 0.52433 0.51553 0.94041 0.0
C2774 C 0.49807 0.50872 0.86461 0.0
C2775 C 0.46556 0.53345 0.85551 0.0
N2776 N 0.51658 0.51452 0.91662 0.0
N2777 N 0.47329 0.53201 0.87845 0.0
H2778 H 0.77707 0.14596 0.11913 0.0
H2779 H 0.76421 0.26665 0.1904 0.0
H2780 H 0.80195 0.21103 0.09455 0.0
H2781 H 0.79034 0.2175 0.22773 0.0
H2782 H 0.76563 0.24223 0.15172 0.0
H2783 H 0.76954 0.16852 0.15637 0.0
C2784 C 0.78066 0.16497 0.12151 0.0
C2785 C 0.79026 0.17682 0.10406 0.0
C2786 C 0.77084 0.23687 0.1685 0.0
C2787 C 0.78121 0.20229 0.14577 0.0
C2788 C 0.77009 0.25071 0.19052 0.0
C2789 C 0.77774 0.24443 0.21234 0.0
C2790 C 0.77846 0.21626 0.16844 0.0
C2791 C 0.78466 0.22327 0.21138 0.0
C2792 C 0.77642 0.17772 0.14263 0.0
C2793 C 0.79474 0.20141 0.10784 0.0
N2794 N 0.78484 0.20988 0.18973 0.0
N2795 N 0.79005 0.21343 0.12834 0.0
H2796 H 0.12236 0.56455 0.28105 0.0
H2797 H 0.12949 0.58548 0.4248 0.0
H2798 H 0.16652 0.53713 0.32768 0.0
H2799 H 0.07776 0.60221 0.3774 0.0
H2800 H 0.14508 0.57016 0.38951 0.0
H2801 H 0.10731 0.58062 0.31633 0.0
C2802 C 0.12894 0.56195 0.29873 0.0
C2803 C 0.14586 0.54965 0.30148 0.0
C2804 C 0.13037 0.57726 0.38683 0.0
C2805 C 0.12878 0.5681 0.34189 0.0
C2806 C 0.12146 0.58599 0.40693 0.0
C2807 C 0.10228 0.59507 0.40397 0.0
C2808 C 0.1201 0.57773 0.3636 0.0
C2809 C 0.09273 0.59563 0.38048 0.0
C2810 C 0.12032 0.57113 0.31885 0.0
C2811 C 0.15367 0.5467 0.32476 0.0
N2812 N 0.10172 0.58699 0.36114 0.0
N2813 N 0.14509 0.55595 0.34414 0.0
H2814 H 0.77058 0.86622 0.60747 0.0
H2815 H 0.80596 0.78646 0.70054 0.0
H2816 H 0.81714 0.82198 0.59612 0.0
H2817 H 0.76795 0.83811 0.71944 0.0
H2818 H 0.80693 0.79706 0.6607 0.0
H2819 H 0.76548 0.8533 0.6463 0.0
C2820 C 0.77933 0.85339 0.61282 0.0
C2821 C 0.79432 0.84517 0.59839 0.0
C2822 C 0.79838 0.80618 0.67346 0.0
C2823 C 0.78883 0.83065 0.64305 0.0
C2824 C 0.79781 0.80013 0.69633 0.0
C2825 C 0.78684 0.81141 0.71346 0.0
C2826 C 0.78787 0.82371 0.66735 0.0
C2827 C 0.7767 0.82906 0.70686 0.0
C2828 C 0.7766 0.84625 0.63515 0.0
C2829 C 0.80545 0.82885 0.60655 0.0
N2830 N 0.77741 0.83465 0.68428 0.0
N2831 N 0.80255 0.82225 0.62826 0.0
H2832 H 0.71986 0.43106 0.48241 0.0
H2833 H 0.65456 0.52583 0.51999 0.0
H2834 H 0.73788 0.5019 0.46848 0.0
H2835 H 0.62975 0.45227 0.52265 0.0
H2836 H 0.67995 0.51544 0.49252 0.0
H2837 H 0.68218 0.43583 0.48758 0.0
C2838 C 0.71562 0.4474 0.47973 0.0
C2839 C 0.73206 0.46635 0.47567 0.0
C2840 C 0.66868 0.50147 0.4987 0.0
C2841 C 0.6893 0.47215 0.48213 0.0
C2842 C 0.65403 0.50738 0.5144 0.0
C2843 C 0.64018 0.48989 0.52402 0.0
C2844 C 0.66995 0.47797 0.493 0.0
C2845 C 0.6406 0.46638 0.51627 0.0
C2846 C 0.69412 0.45014 0.48272 0.0
C2847 C 0.72572 0.48698 0.47196 0.0
N2848 N 0.65559 0.46114 0.50156 0.0
N2849 N 0.70494 0.48959 0.47595 0.0
H2850 H 0.21217 0.09178 0.50217 0.0
H2851 H 0.08232 0.09038 0.49664 0.0
H2852 H 0.18855 0.15481 0.49831 0.0
H2853 H 0.11323 0.04342 0.53254 0.0
H2854 H 0.11978 0.11209 0.49157 0.0
H2855 H 0.17443 0.07133 0.50704 0.0
C2856 C 0.19901 0.10133 0.50221 0.0
C2857 C 0.20354 0.12508 0.49984 0.0
C2858 C 0.11826 0.09698 0.50047 0.0
C2859 C 0.1602 0.10162 0.50538 0.0
C2860 C 0.09691 0.08448 0.50331 0.0
C2861 C 0.09454 0.06473 0.5147 0.0
C2862 C 0.13732 0.08944 0.50871 0.0
C2863 C 0.11412 0.05816 0.52318 0.0
C2864 C 0.17749 0.08964 0.50514 0.0
C2865 C 0.18578 0.13651 0.50014 0.0
N2866 N 0.13465 0.07037 0.51983 0.0
N2867 N 0.16478 0.12461 0.50275 0.0
H2868 H 0.16637 0.99363 0.74602 0.0
H2869 H 0.25893 0.91891 0.76236 0.0
H2870 H 0.21208 1.00352 0.81237 0.0
H2871 H 0.20405 0.90148 0.70318 0.0
H2872 H 0.24386 0.9515 0.78025 0.0
H2873 H 0.18272 0.96212 0.72864 0.0
C2874 C 0.18002 0.98938 0.75687 0.0
C2875 C 0.18781 1.00126 0.78074 0.0
C2876 C 0.23519 0.94053 0.76332 0.0
C2877 C 0.20649 0.96493 0.76095 0.0
C2878 C 0.24369 0.92182 0.75316 0.0
C2879 C 0.23291 0.90754 0.73102 0.0
C2880 C 0.21587 0.94505 0.75119 0.0
C2881 C 0.2133 0.91233 0.7199 0.0
C2882 C 0.18925 0.97124 0.74697 0.0
C2883 C 0.2055 0.99484 0.79391 0.0
N2884 N 0.2055 0.9307 0.73004 0.0
N2885 N 0.21421 0.97705 0.78386 0.0
H2886 H 0.37076 0.96707 0.05237 0.0
H2887 H 0.46578 0.05355 0.00454 0.0
H2888 H 0.35397 0.00484 0.99606 0.0
H2889 H 0.47545 0.98949 0.02692 0.0
H2890 H 0.42556 0.04095 0.00683 0.0
H2891 H 0.41044 0.98092 0.0496 0.0
C2892 C 0.3754 0.97823 0.03932 0.0
C2893 C 0.35903 0.98444 0.02403 0.0
C2894 C 0.43661 0.02983 0.01143 0.0
C2895 C 0.40448 1.00074 0.02126 0.0
C2896 C 0.45954 0.03698 0.01028 0.0
C2897 C 0.47408 0.02276 0.01625 0.0
C2898 C 0.42838 0.00858 0.01902 0.0
C2899 C 0.46503 1.00135 0.02309 0.0
C2900 C 0.39806 0.98613 0.03782 0.0
C2901 C 0.3661 0.99958 0.00806 0.0
N2902 N 0.44271 0.99497 0.02453 0.0
N2903 N 0.38846 0.00728 0.00705 0.0
H2904 H 0.81741 0.54093 0.76341 0.0
H2905 H 0.82963 0.67729 0.77784 0.0
H2906 H 0.82569 0.58683 0.83241 0.0
H2907 H 0.80523 0.63034 0.70951 0.0
H2908 H 0.8274 0.64353 0.79812 0.0
H2909 H 0.80821 0.57187 0.74322 0.0
C2910 C 0.81627 0.55724 0.77431 0.0
C2911 C 0.82263 0.56172 0.79944 0.0
C2912 C 0.82268 0.64053 0.77867 0.0
C2913 C 0.81324 0.59722 0.77667 0.0
C2914 C 0.82449 0.65972 0.7671 0.0
C2915 C 0.81811 0.65628 0.74204 0.0
C2916 C 0.81451 0.61782 0.76498 0.0
C2917 C 0.81085 0.63344 0.7288 0.0
C2918 C 0.81133 0.57497 0.76281 0.0
C2919 C 0.82096 0.58291 0.81294 0.0
N2920 N 0.80922 0.61491 0.74049 0.0
N2921 N 0.81704 0.60028 0.80128 0.0
H2922 H 0.80909 0.63261 0.05923 0.0
H2923 H 0.91243 0.58524 0.01731 0.0
H2924 H 0.84169 0.65553 6e-05 0.0
H2925 H 0.89426 0.58539 0.08909 0.0
H2926 H 0.88692 0.61087 0.00993 0.0
H2927 H 0.84012 0.61461 0.06998 0.0
C2928 C 0.82289 0.63397 0.04863 0.0
C2929 C 0.82287 0.64549 0.02875 0.0
C2930 C 0.88879 0.60553 0.0274 0.0
C2931 C 0.85818 0.62465 0.04061 0.0
C2932 C 0.90335 0.59098 0.03163 0.0
C2933 C 0.90509 0.58286 0.05369 0.0
C2934 C 0.8759 0.61186 0.04535 0.0
C2935 C 0.89294 0.59076 0.07161 0.0
C2936 C 0.84062 0.62378 0.05478 0.0
C2937 C 0.84118 0.64687 0.01562 0.0
N2938 N 0.87868 0.60459 0.06696 0.0
N2939 N 0.85798 0.63625 0.02156 0.0
H2940 H 0.20147 0.12733 0.84475 0.0
H2941 H 0.25614 0.20047 0.75032 0.0
H2942 H 0.18088 0.10463 0.76777 0.0
H2943 H 0.24473 0.23459 0.81944 0.0
H2944 H 0.23426 0.16291 0.7578 0.0
H2945 H 0.2231 0.16489 0.83719 0.0
C2946 C 0.20154 0.13023 0.82627 0.0
C2947 C 0.18932 0.11286 0.80686 0.0
C2948 C 0.2366 0.17864 0.7713 0.0
C2949 C 0.21429 0.15552 0.79814 0.0
C2950 C 0.24917 0.19997 0.76714 0.0
C2951 C 0.25219 0.22054 0.78433 0.0
C2952 C 0.22749 0.17786 0.79304 0.0
C2953 C 0.24266 0.21907 0.80572 0.0
C2954 C 0.21379 0.15166 0.822 0.0
C2955 C 0.18994 0.1176 0.78327 0.0
N2956 N 0.23087 0.19803 0.80959 0.0
N2957 N 0.2024 0.13841 0.77954 0.0
H2958 H 0.311 0.97112 0.33337 0.0
H2959 H 0.33072 0.85227 0.27083 0.0
H2960 H 0.35428 0.96793 0.27795 0.0
H2961 H 0.26832 0.85645 0.29815 0.0
H2962 H 0.33964 0.89485 0.27283 0.0
H2963 H 0.29406 0.92923 0.31994 0.0
C2964 C 0.31662 0.96175 0.31807 0.0
C2965 C 0.33442 0.97292 0.30712 0.0
C2966 C 0.32387 0.88633 0.2781 0.0
C2967 C 0.31547 0.92513 0.29204 0.0
C2968 C 0.31888 0.86212 0.27715 0.0
C2969 C 0.29902 0.85097 0.28488 0.0
C2970 C 0.30903 0.89934 0.28718 0.0
C2971 C 0.28406 0.86443 0.29255 0.0
C2972 C 0.30695 0.93787 0.31042 0.0
C2973 C 0.34087 0.95998 0.2872 0.0
N2974 N 0.28955 0.88803 0.29389 0.0
N2975 N 0.33175 0.93659 0.28064 0.0
H2976 H 0.58059 0.38221 0.59972 0.0
H2977 H 0.53025 0.44938 0.5005 0.0
H2978 H 0.53167 0.34652 0.53765 0.0
H2979 H 0.55841 0.48497 0.57309 0.0
H2980 H 0.53531 0.41233 0.51158 0.0
H2981 H 0.57823 0.42019 0.58788 0.0
C2982 C 0.56984 0.38219 0.58324 0.0
C2983 C 0.5566 0.36072 0.56955 0.0
C2984 C 0.54047 0.42821 0.52515 0.0
C2985 C 0.55352 0.40468 0.55597 0.0
C2986 C 0.53736 0.44955 0.51884 0.0
C2987 C 0.54344 0.47073 0.53584 0.0
C2988 C 0.5504 0.42765 0.54864 0.0
C2989 C 0.55336 0.46936 0.55919 0.0
C2990 C 0.56825 0.40402 0.57667 0.0
C2991 C 0.54246 0.36232 0.54875 0.0
N2992 N 0.55658 0.44843 0.56481 0.0
N2993 N 0.54137 0.38362 0.54267 0.0
H2994 H 0.45755 0.79984 0.37537 0.0
H2995 H 0.32401 0.7498 0.33573 0.0
H2996 H 0.41848 0.74651 0.40826 0.0
H2997 H 0.36457 0.80683 0.3088 0.0
H2998 H 0.35758 0.74797 0.36253 0.0
H2999 H 0.42314 0.80253 0.35149 0.0
C3000 C 0.44167 0.7888 0.37778 0.0
C3001 C 0.44105 0.77293 0.39398 0.0
C3002 C 0.3591 0.76087 0.35075 0.0
C3003 C 0.40112 0.77574 0.36611 0.0
C3004 C 0.33992 0.76193 0.33539 0.0
C3005 C 0.34132 0.77848 0.31982 0.0
C3006 C 0.37997 0.77639 0.35052 0.0
C3007 C 0.36251 0.79367 0.32027 0.0
C3008 C 0.42193 0.79031 0.36401 0.0
C3009 C 0.41982 0.7591 0.39616 0.0
N3010 N 0.38085 0.79221 0.33523 0.0
N3011 N 0.40075 0.7607 0.38228 0.0
H3012 H 0.03211 0.72504 0.03302 0.0
H3013 H 0.04883 0.60834 0.07913 0.0
H3014 H 0.0697 0.72769 0.10265 0.0
H3015 H 0.04323 0.61217 0.00322 0.0
H3016 H 0.05245 0.65099 0.0887 0.0
H3017 H 0.03226 0.68324 0.02218 0.0
C3018 C 0.04067 0.71699 0.04596 0.0
C3019 C 0.05118 0.7303 0.06875 0.0
C3020 C 0.05055 0.64256 0.06994 0.0
C3021 C 0.05068 0.68176 0.05661 0.0
C3022 C 0.04839 0.61811 0.06442 0.0
C3023 C 0.04575 0.60642 0.04027 0.0
C3024 C 0.04955 0.65567 0.05123 0.0
C3025 C 0.04538 0.62028 0.02209 0.0
C3026 C 0.04069 0.69302 0.03974 0.0
C3027 C 0.06169 0.71849 0.08475 0.0
N3028 N 0.04696 0.64397 0.0279 0.0
N3029 N 0.0609 0.695 0.07854 0.0
H3030 H 0.07878 0.29436 0.92104 0.0
H3031 H 0.14864 0.27753 0.81006 0.0
H3032 H 0.05408 0.24144 0.85668 0.0
H3033 H 0.17127 0.33198 0.8733 0.0
H3034 H 0.11614 0.26056 0.82901 0.0
H3035 H 0.1147 0.30534 0.90579 0.0
C3036 C 0.08094 0.28494 0.90377 0.0
C3037 C 0.06329 0.26705 0.89007 0.0
C3038 C 0.12837 0.27606 0.83886 0.0
C3039 C 0.10445 0.27958 0.87242 0.0
C3040 C 0.147 0.2856 0.82812 0.0
C3041 C 0.16246 0.30633 0.84004 0.0
C3042 C 0.12532 0.28731 0.86167 0.0
C3043 C 0.15951 0.31618 0.86336 0.0
C3044 C 0.10148 0.29121 0.89506 0.0
C3045 C 0.06715 0.25542 0.86784 0.0
N3046 N 0.14121 0.30673 0.8733 0.0
N3047 N 0.08723 0.26198 0.85964 0.0
H3048 H 0.53535 0.77347 0.93453 0.0
H3049 H 0.52596 0.6365 0.91242 0.0
H3050 H 0.5518 0.73626 0.86971 0.0
H3051 H 0.52653 0.67676 0.98296 0.0
H3052 H 0.53792 0.67311 0.89728 0.0
H3053 H 0.53546 0.73925 0.95381 0.0
C3054 C 0.53968 0.75829 0.92462 0.0
C3055 C 0.54368 0.75771 0.90053 0.0
C3056 C 0.53575 0.67398 0.91615 0.0
C3057 C 0.543 0.71809 0.92217 0.0
C3058 C 0.52877 0.65307 0.92477 0.0
C3059 C 0.52498 0.65355 0.94893 0.0
C3060 C 0.53873 0.69565 0.93168 0.0
C3061 C 0.52925 0.67554 0.96421 0.0
C3062 C 0.53959 0.73869 0.93558 0.0
C3063 C 0.54891 0.73753 0.88841 0.0
N3064 N 0.53558 0.6957 0.95526 0.0
N3065 N 0.54798 0.71834 0.89919 0.0
H3066 H 0.10728 0.81077 0.76307 0.0
H3067 H 0.207 0.74318 0.74725 0.0
H3068 H 0.09557 0.74269 0.71755 0.0
H3069 H 0.2176 0.81585 0.78055 0.0
H3070 H 0.16637 0.74097 0.73823 0.0
H3071 H 0.14721 0.81129 0.77128 0.0
C3072 C 0.113 0.79584 0.7547 0.0
C3073 C 0.0976 0.77667 0.73946 0.0
C3074 C 0.17757 0.7574 0.74753 0.0
C3075 C 0.14425 0.77713 0.74917 0.0
C3076 C 0.20087 0.75863 0.75289 0.0
C3077 C 0.21606 0.77969 0.76495 0.0
C3078 C 0.16911 0.77736 0.75431 0.0
C3079 C 0.20682 0.79918 0.77128 0.0
C3080 C 0.13602 0.79619 0.75944 0.0
C3081 C 0.10655 0.75795 0.72932 0.0
N3082 N 0.18421 0.7975 0.766 0.0
N3083 N 0.12911 0.75862 0.7344 0.0
H3084 H 0.05543 0.38506 0.37732 0.0
H3085 H 0.01646 0.44962 0.49481 0.0
H3086 H 0.02291 0.3506 0.43076 0.0
H3087 H 0.06329 0.48881 0.45527 0.0
H3088 H 0.01811 0.41352 0.46934 0.0
H3089 H 0.05895 0.42342 0.40376 0.0
C3090 C 0.04941 0.38549 0.3947 0.0
C3091 C 0.03862 0.36452 0.40166 0.0
C3092 C 0.02813 0.42994 0.46613 0.0
C3093 C 0.04226 0.40813 0.43167 0.0
C3094 C 0.02719 0.45073 0.48078 0.0
C3095 C 0.03982 0.4725 0.47739 0.0
C3096 C 0.0416 0.43055 0.44749 0.0
C3097 C 0.05316 0.47248 0.45853 0.0
C3098 C 0.05129 0.40737 0.4097 0.0
C3099 C 0.03104 0.3662 0.42435 0.0
N3100 N 0.05364 0.45184 0.4442 0.0
N3101 N 0.03284 0.38745 0.43829 0.0
H3102 H 0.4695 0.2894 0.26353 0.0
H3103 H 0.33608 0.26667 0.21968 0.0
H3104 H 0.43683 0.24833 0.19429 0.0
H3105 H 0.36457 0.28513 0.29499 0.0
H3106 H 0.37323 0.26374 0.20919 0.0
H3107 H 0.43232 0.29266 0.2743 0.0
C3108 C 0.45461 0.28124 0.25044 0.0
C3109 C 0.45665 0.26865 0.22781 0.0
C3110 C 0.37147 0.26867 0.22803 0.0
C3111 C 0.41354 0.27241 0.24017 0.0
C3112 C 0.35011 0.27028 0.23412 0.0
C3113 C 0.34691 0.27664 0.25838 0.0
C3114 C 0.39028 0.27379 0.24621 0.0
C3115 C 0.3661 0.28106 0.27604 0.0
C3116 C 0.43328 0.283 0.25671 0.0
C3117 C 0.43643 0.25833 0.21186 0.0
N3118 N 0.38681 0.27977 0.26965 0.0
N3119 N 0.41596 0.26052 0.21825 0.0
H3120 H 0.64018 0.5422 0.37512 0.0
H3121 H 0.53553 0.55367 0.44511 0.0
H3122 H 0.58384 0.56728 0.34634 0.0
H3123 H 0.58975 0.52445 0.47188 0.0
H3124 H 0.5543 0.56133 0.41026 0.0
H3125 H 0.62378 0.53914 0.41224 0.0
C3126 C 0.62454 0.54748 0.37671 0.0
C3127 C 0.61339 0.55505 0.35749 0.0
C3128 C 0.56215 0.55329 0.42373 0.0
C3129 C 0.59424 0.55109 0.40001 0.0
C3130 C 0.5514 0.54879 0.44364 0.0
C3131 C 0.56106 0.53829 0.46144 0.0
C3132 C 0.58278 0.54728 0.42148 0.0
C3133 C 0.58172 0.53256 0.45859 0.0
C3134 C 0.61509 0.54554 0.39793 0.0
C3135 C 0.59306 0.56143 0.36067 0.0
N3136 N 0.59189 0.53711 0.43896 0.0
N3137 N 0.58405 0.55913 0.38145 0.0
H3138 H 0.26916 0.90189 0.07912 0.0
H3139 H 0.3087 0.78942 0.1078 0.0
H3140 H 0.29431 0.85534 0.02847 0.0
H3141 H 0.30371 0.84856 0.16039 0.0
H3142 H 0.28873 0.80476 0.07644 0.0
H3143 H 0.26526 0.87268 0.10575 0.0
C3144 C 0.27276 0.885 0.0731 0.0
C3145 C 0.28243 0.88095 0.05198 0.0
C3146 C 0.29155 0.81397 0.09501 0.0
C3147 C 0.27864 0.84805 0.08225 0.0
C3148 C 0.30319 0.80542 0.11284 0.0
C3149 C 0.30831 0.81792 0.1367 0.0
C3150 C 0.28501 0.83514 0.10113 0.0
C3151 C 0.30015 0.8382 0.14231 0.0
C3152 C 0.27078 0.86846 0.08836 0.0
C3153 C 0.28709 0.85903 0.04492 0.0
N3154 N 0.28919 0.84633 0.12459 0.0
N3155 N 0.28564 0.84352 0.06032 0.0
H3156 H 0.89551 0.53758 0.88917 0.0
H3157 H 1.00264 0.49689 0.9431 0.0
H3158 H 0.93268 0.49744 0.84571 0.0
H3159 H 0.97639 0.55327 0.97813 0.0
H3160 H 0.97103 0.48822 0.91015 0.0
H3161 H 0.91804 0.53291 0.92557 0.0
C3162 C 0.90808 0.52739 0.88734 0.0
C3163 C 0.91285 0.51853 0.86457 0.0
C3164 C 0.97219 0.50231 0.92524 0.0
C3165 C 0.93861 0.51339 0.90569 0.0
C3166 C 0.99027 0.50742 0.9438 0.0
C3167 C 0.99213 0.52592 0.96312 0.0
C3168 C 0.95603 0.51581 0.92626 0.0
C3169 C 0.9756 0.53889 0.96348 0.0
C3170 C 0.92096 0.5248 0.90804 0.0
C3171 C 0.92902 0.50514 0.86305 0.0
N3172 N 0.95823 0.53359 0.94526 0.0
N3173 N 0.94169 0.50332 0.88342 0.0
H3174 H 0.25864 0.19208 0.5809 0.0
H3175 H 0.28431 0.29784 0.6936 0.0
H3176 H 0.30721 0.25694 0.58136 0.0
H3177 H 0.27344 0.22539 0.70249 0.0
H3178 H 0.28385 0.28519 0.64987 0.0
H3179 H 0.25477 0.20639 0.62303 0.0
C3180 C 0.26817 0.2095 0.58967 0.0
C3181 C 0.28331 0.22331 0.57751 0.0
C3182 C 0.28145 0.27212 0.66145 0.0
C3183 C 0.27877 0.23981 0.6257 0.0
C3184 C 0.28164 0.27928 0.68633 0.0
C3185 C 0.2792 0.26266 0.70174 0.0
C3186 C 0.27812 0.24811 0.65182 0.0
C3187 C 0.2757 0.23882 0.69133 0.0
C3188 C 0.26607 0.21756 0.61376 0.0
C3189 C 0.2954 0.24567 0.59 0.0
N3190 N 0.27515 0.23226 0.66704 0.0
N3191 N 0.29283 0.25326 0.61336 0.0
H3192 H 0.57677 0.49726 0.20949 0.0
H3193 H 0.57618 0.57289 0.10335 0.0
H3194 H 0.62064 0.56619 0.21538 0.0
H3195 H 0.53639 0.50203 0.0973 0.0
H3196 H 0.59241 0.57142 0.14443 0.0
H3197 H 0.56168 0.49923 0.16842 0.0
C3198 C 0.58329 0.51283 0.20214 0.0
C3199 C 0.60001 0.53159 0.21598 0.0
C3200 C 0.58013 0.5562 0.13409 0.0
C3201 C 0.58267 0.53401 0.16872 0.0
C3202 C 0.57076 0.55709 0.11067 0.0
C3203 C 0.55469 0.53768 0.09693 0.0
C3204 C 0.57342 0.53571 0.14381 0.0
C3205 C 0.54862 0.51749 0.10723 0.0
C3206 C 0.57464 0.51394 0.17862 0.0
C3207 C 0.60777 0.55129 0.20539 0.0
N3208 N 0.55795 0.51706 0.13 0.0
N3209 N 0.59899 0.55202 0.18241 0.0
H3210 H 0.2811 0.91124 0.94409 0.0
H3211 H 0.3205 0.81466 0.85499 0.0
H3212 H 0.34241 0.88832 0.95937 0.0
H3213 H 0.26337 0.84256 0.83468 0.0
H3214 H 0.32779 0.84086 0.89403 0.0
H3215 H 0.27372 0.88605 0.9042 0.0
C3216 C 0.2931 0.90108 0.93902 0.0
C3217 C 0.31239 0.90186 0.95516 0.0
C3218 C 0.31366 0.84133 0.88107 0.0
C3219 C 0.30392 0.87293 0.9097 0.0
C3220 C 0.30941 0.82627 0.85884 0.0
C3221 C 0.29132 0.82653 0.84167 0.0
C3222 C 0.29967 0.85673 0.88622 0.0
C3223 C 0.27757 0.84198 0.84748 0.0
C3224 C 0.28883 0.88667 0.91627 0.0
C3225 C 0.3273 0.88828 0.94761 0.0
N3226 N 0.28203 0.85653 0.86935 0.0
N3227 N 0.32269 0.87431 0.92548 0.0
H3228 H 0.92424 0.47841 0.75574 0.0
H3229 H 0.94987 0.49077 0.62694 0.0
H3230 H 0.89962 0.53107 0.72288 0.0
H3231 H 1.00144 0.48501 0.68254 0.0
H3232 H 0.92791 0.50217 0.65836 0.0
H3233 H 0.9483 0.47491 0.72465 0.0
C3234 C 0.92371 0.4891 0.74184 0.0
C3235 C 0.90995 0.50511 0.74188 0.0
C3236 C 0.94419 0.4987 0.66352 0.0
C3237 C 0.93753 0.50111 0.70638 0.0
C3238 C 0.95682 0.49226 0.6457 0.0
C3239 C 0.97744 0.48649 0.65208 0.0
C3240 C 0.95201 0.49874 0.68767 0.0
C3241 C 0.98533 0.48849 0.6767 0.0
C3242 C 0.93765 0.48725 0.7243 0.0
C3243 C 0.91003 0.51853 0.72341 0.0
N3244 N 0.97238 0.49403 0.69361 0.0
N3245 N 0.92361 0.51611 0.70613 0.0
H3246 H 0.32095 0.23882 0.45396 0.0
H3247 H 0.25304 0.27356 0.3452 0.0
H3248 H 0.24828 0.21589 0.44375 0.0
H3249 H 0.31099 0.24504 0.33569 0.0
H3250 H 0.25205 0.26087 0.38476 0.0
H3251 H 0.31894 0.25081 0.41461 0.0
C3252 C 0.30447 0.23661 0.44371 0.0
C3253 C 0.28471 0.2262 0.45239 0.0
C3254 C 0.26483 0.25726 0.37388 0.0
C3255 C 0.2825 0.24015 0.407 0.0
C3256 C 0.26547 0.26451 0.35143 0.0
C3257 C 0.28205 0.26015 0.33718 0.0
C3258 C 0.2814 0.24639 0.38247 0.0
C3259 C 0.29779 0.24845 0.34602 0.0
C3260 C 0.30344 0.2433 0.42108 0.0
C3261 C 0.26395 0.22382 0.4379 0.0
N3262 N 0.29732 0.24232 0.36829 0.0
N3263 N 0.26336 0.23084 0.41592 0.0
H3264 H 0.31829 0.56177 0.55711 0.0
H3265 H 0.43399 0.60551 0.51508 0.0
H3266 H 0.35462 0.63446 0.5699 0.0
H3267 H 0.40165 0.53235 0.51097 0.0
H3268 H 0.41001 0.61615 0.5447 0.0
H3269 H 0.35349 0.55009 0.55222 0.0
C3270 C 0.33386 0.57525 0.55987 0.0
C3271 C 0.33361 0.59905 0.56277 0.0
C3272 C 0.40844 0.59772 0.5377 0.0
C3273 C 0.37353 0.58604 0.55645 0.0
C3274 C 0.42192 0.59173 0.52059 0.0
C3275 C 0.41933 0.56813 0.51022 0.0
C3276 C 0.39201 0.57998 0.54406 0.0
C3277 C 0.40398 0.55081 0.5184 0.0
C3278 C 0.35395 0.56863 0.55683 0.0
C3279 C 0.35411 0.61589 0.56646 0.0
N3280 N 0.39058 0.55711 0.53453 0.0
N3281 N 0.37325 0.60908 0.56247 0.0
H3282 H 0.84916 0.95246 0.50992 0.0
H3283 H 0.98073 0.97811 0.55964 0.0
H3284 H 0.87718 0.91337 0.55882 0.0
H3285 H 0.9535 0.01153 0.5045 0.0
H3286 H 0.94271 0.95495 0.56051 0.0
H3287 H 0.88727 0.97477 0.50812 0.0
C3288 C 0.86333 0.94843 0.52011 0.0
C3289 C 0.86 0.93101 0.53451 0.0
C3290 C 0.94506 0.96742 0.54828 0.0
C3291 C 0.90358 0.95661 0.53277 0.0
C3292 C 0.96673 0.98069 0.54786 0.0
C3293 C 0.97026 0.99682 0.53206 0.0
C3294 C 0.9268 0.97042 0.53289 0.0
C3295 C 0.95154 0.99945 0.51714 0.0
C3296 C 0.88508 0.9612 0.51913 0.0
C3297 C 0.87897 0.92656 0.54739 0.0
N3298 N 0.93062 0.98638 0.51792 0.0
N3299 N 0.89994 0.93937 0.54631 0.0
H3300 H 0.85871 0.0448 0.26812 0.0
H3301 H 0.86295 0.17967 0.27894 0.0
H3302 H 0.91599 0.09515 0.25448 0.0
H3303 H 0.80542 0.12696 0.28805 0.0
H3304 H 0.87947 0.14844 0.26004 0.0
H3305 H 0.83574 0.07322 0.26494 0.0
C3306 C 0.86619 0.06167 0.26363 0.0
C3307 C 0.88912 0.06777 0.26149 0.0
C3308 C 0.86293 0.14372 0.26551 0.0
C3309 C 0.86338 0.10084 0.25899 0.0
C3310 C 0.85351 0.16152 0.27614 0.0
C3311 C 0.83299 0.15564 0.28509 0.0
C3312 C 0.85169 0.12006 0.26409 0.0
C3313 C 0.82137 0.13202 0.2814 0.0
C3314 C 0.85316 0.07799 0.26198 0.0
C3315 C 0.89824 0.08986 0.25602 0.0
N3316 N 0.83104 0.11505 0.2715 0.0
N3317 N 0.88545 0.1059 0.25552 0.0
H3318 H 0.70077 0.05186 0.9931 0.0
H3319 H 0.59613 0.08619 0.04992 0.0
H3320 H 0.70554 0.11386 0.04656 0.0
H3321 H 0.5924 0.01978 0.00438 0.0
H3322 H 0.63504 0.10003 0.04257 0.0
H3323 H 0.65975 0.04266 0.99143 0.0
C3324 C 0.69317 0.06357 0.00436 0.0
C3325 C 0.7065 0.08348 0.02016 0.0
C3326 C 0.62559 0.08258 0.03379 0.0
C3327 C 0.65986 0.07328 0.01819 0.0
C3328 C 0.60346 0.07485 0.03787 0.0
C3329 C 0.59142 0.05207 0.02751 0.0
C3330 C 0.63554 0.06717 0.01954 0.0
C3331 C 0.60135 0.03762 0.01238 0.0
C3332 C 0.66981 0.05836 0.00337 0.0
C3333 C 0.69588 0.09814 0.03434 0.0
N3334 N 0.62303 0.04535 0.00897 0.0
N3335 N 0.67316 0.09269 0.03308 0.0
H3336 H 0.21382 0.47611 0.22096 0.0
H3337 H 0.30109 0.43109 0.30082 0.0
H3338 H 0.26385 0.51859 0.27934 0.0
H3339 H 0.23182 0.39565 0.27379 0.0
H3340 H 0.29894 0.45929 0.27363 0.0
H3341 H 0.23395 0.44484 0.22025 0.0
C3342 C 0.22966 0.4793 0.23282 0.0
C3343 C 0.23676 0.49929 0.25108 0.0
C3344 C 0.2845 0.44485 0.27312 0.0
C3345 C 0.25957 0.46402 0.25018 0.0
C3346 C 0.28558 0.42906 0.28878 0.0
C3347 C 0.26627 0.4118 0.29002 0.0
C3348 C 0.26401 0.4432 0.25874 0.0
C3349 C 0.24672 0.40939 0.27388 0.0
C3350 C 0.24111 0.46148 0.23234 0.0
C3351 C 0.25746 0.50288 0.26569 0.0
N3352 N 0.24595 0.42525 0.25908 0.0
N3353 N 0.26796 0.48502 0.26538 0.0
H3354 H 0.21794 0.39496 0.02334 0.0
H3355 H 0.1592 0.4966 0.9923 0.0
H3356 H 0.2532 0.46813 0.03539 0.0
H3357 H 0.1219 0.42699 0.99703 0.0
H3358 H 0.19387 0.48671 0.00801 0.0
H3359 H 0.1826 0.40618 0.01263 0.0
C3360 C 0.21825 0.41337 0.02378 0.0
C3361 C 0.23857 0.43061 0.03022 0.0
C3362 C 0.17805 0.47365 0.0057 0.0
C3363 C 0.19825 0.44358 0.01792 0.0
C3364 C 0.15819 0.47934 0.99687 0.0
C3365 C 0.13752 0.4625 0.99293 0.0
C3366 C 0.17732 0.4509 0.01045 0.0
C3367 C 0.13745 0.44035 -0.00093 0.0
C3368 C 0.19807 0.41978 0.01775 0.0
C3369 C 0.23795 0.45422 0.03054 0.0
N3370 N 0.15703 0.43514 0.00727 0.0
N3371 N 0.21816 0.45999 0.02434 0.0
H3372 H 0.86212 0.97312 0.29813 0.0
H3373 H 0.84249 0.83628 0.24566 0.0
H3374 H 0.90429 0.94574 0.25017 0.0
H3375 H 0.79996 0.86595 0.29152 0.0
H3376 H 0.86412 0.87595 0.24495 0.0
H3377 H 0.83787 0.93398 0.29332 0.0
C3378 C 0.86622 0.95885 0.28641 0.0
C3379 C 0.88544 0.96271 0.27472 0.0
C3380 C 0.84996 0.87377 0.25501 0.0
C3381 C 0.85761 0.91752 0.26924 0.0
C3382 C 0.83759 0.85112 0.25548 0.0
C3383 C 0.81937 0.84775 0.26874 0.0
C3384 C 0.8441 0.8932 0.26793 0.0
C3385 C 0.81382 0.86765 0.28103 0.0
C3386 C 0.8523 0.93644 0.28367 0.0
C3387 C 0.88967 0.94355 0.25953 0.0
N3388 N 0.8262 0.88948 0.2804 0.0
N3389 N 0.87597 0.92167 0.25742 0.0
H3390 H 0.69209 0.10482 0.744 0.0
H3391 H 0.78276 0.22293 0.80336 0.0
H3392 H 0.73471 0.113 0.81217 0.0
H3393 H 0.74143 0.21216 0.7342 0.0
H3394 H 0.76166 0.18496 0.81021 0.0
H3395 H 0.70655 0.14602 0.74316 0.0
C3396 C 0.70447 0.11528 0.75886 0.0
C3397 C 0.71231 0.10537 0.77811 0.0
C3398 C 0.7569 0.19109 0.79375 0.0
C3399 C 0.72913 0.15274 0.77715 0.0
C3400 C 0.76872 0.21282 0.79002 0.0
C3401 C 0.76331 0.22054 0.76847 0.0
C3402 C 0.7399 0.1771 0.77555 0.0
C3403 C 0.74579 0.20661 0.75113 0.0
C3404 C 0.7127 0.1389 0.75839 0.0
C3405 C 0.72826 0.11993 0.79695 0.0
N3406 N 0.73471 0.18541 0.755 0.0
N3407 N 0.73634 0.14293 0.79589 0.0
loop_
_geom_bond_atom_site_label_1
_geom_bond_atom_site_label_2
_geom_bond_distance
_geom_bond_site_symmetry_2
_ccdc_geom_bond_type
Mg0 O1 2.028 . S
Mg0 O7 1.986 . S
Mg0 O9 2.114 . S
Mg0 O10 2.307 . S
Mg0 O13 2.010 . S
O1 Mg0 2.028 . S
O1 C4 1.250 . S
O2 Mg3 2.028 1_455 S
O2 C4 1.248 . S
Mg3 O2 2.028 1_655 S
Mg3 O8 2.032 1_655 S
Mg3 O10 2.065 1_655 S
C4 O1 1.250 . S
C4 O2 1.248 . S
C5 O6 1.264 . S
C5 O13 1.249 . S
O6 C5 1.264 . S
O7 Mg0 1.986 . S
O7 C11 1.246 . S
O8 Mg3 2.032 1_455 S
O8 C11 1.259 . S
O9 Mg0 2.114 . S
O9 C12 1.255 . S
O10 Mg0 2.307 . S
O10 Mg3 2.065 1_455 S
O10 C12 1.274 . S
C11 O7 1.246 . S
C11 O8 1.259 . S
C12 O9 1.255 . S
C12 O10 1.274 . S
O13 Mg0 2.010 . S
O13 C5 1.249 . S
Mg14 O15 2.028 . S
Mg14 O21 1.986 . S
Mg14 O23 2.114 . S
Mg14 O24 2.251 1_455 S
Mg14 O27 2.010 . S
O15 Mg14 2.028 . S
O15 C18 1.250 . S
O16 Mg17 2.028 . S
O16 C18 1.248 1_655 S
Mg17 O16 2.028 . S
Mg17 O22 2.032 . S
Mg17 O24 2.079 . S
C18 O15 1.250 . S
C18 O16 1.248 1_455 S
C19 O20 1.264 . S
C19 O27 1.249 . S
O20 C19 1.264 . S
O21 Mg14 1.986 . S
O21 C25 1.246 . S
O22 Mg17 2.032 . S
O22 C25 1.259 1_655 S
O23 Mg14 2.114 . S
O23 C26 1.252 1_455 S
O24 Mg14 2.251 1_655 S
O24 Mg17 2.079 . S
O24 C26 1.273 . S
C25 O21 1.246 . S
C25 O22 1.259 1_455 S
C26 O23 1.252 1_655 S
C26 O24 1.273 . S
O27 Mg14 2.010 . S
O27 C19 1.249 . S
Mg28 O29 2.028 . S
Mg28 O35 1.986 . S
Mg28 O37 2.114 . S
Mg28 O38 2.251 . S
Mg28 O41 2.010 . S
O29 Mg28 2.028 . S
O29 C32 1.250 . S
O30 Mg31 2.028 . S
O30 C32 1.248 . S
Mg31 O30 2.028 . S
Mg31 O36 2.032 . S
Mg31 O38 2.079 . S
C32 O29 1.250 . S
C32 O30 1.248 . S
C33 O34 1.264 . S
C33 O41 1.249 . S
O34 C33 1.264 . S
O35 Mg28 1.986 . S
O35 C39 1.246 . S
O36 Mg31 2.032 . S
O36 C39 1.259 . S
O37 Mg28 2.114 . S
O37 C40 1.252 . S
O38 Mg28 2.251 . S
O38 Mg31 2.079 . S
O38 C40 1.273 . S
C39 O35 1.246 . S
C39 O36 1.259 . S
C40 O37 1.252 . S
C40 O38 1.273 . S
O41 Mg28 2.010 . S
O41 C33 1.249 . S
Mg42 O43 2.028 . S
Mg42 O49 1.986 . S
Mg42 O51 2.114 . S
Mg42 O52 2.251 . S
Mg42 O55 2.010 . S
O43 Mg42 2.028 . S
O43 C46 1.250 . S
O44 Mg45 2.028 . S
O44 C46 1.248 . S
Mg45 O44 2.028 . S
Mg45 O50 2.032 . S
Mg45 O52 2.079 . S
C46 O43 1.250 . S
C46 O44 1.248 . S
C47 O48 1.264 . S
C47 O55 1.249 . S
O48 C47 1.264 . S
O49 Mg42 1.986 . S
O49 C53 1.246 . S
O50 Mg45 2.032 . S
O50 C53 1.259 . S
O51 Mg42 2.114 . S
O51 C54 1.252 . S
O52 Mg42 2.251 . S
O52 Mg45 2.079 . S
O52 C54 1.273 . S
C53 O49 1.246 . S
C53 O50 1.259 . S
C54 O51 1.252 . S
C54 O52 1.273 . S
O55 Mg42 2.010 . S
O55 C47 1.249 . S
Mg56 O57 2.028 . S
Mg56 O63 1.986 . S
Mg56 O65 2.114 . S
Mg56 O66 2.251 . S
Mg56 O69 2.010 . S
O57 Mg56 2.028 . S
O57 C60 1.250 . S
O58 Mg59 2.028 . S
O58 C60 1.248 . S
Mg59 O58 2.028 . S
Mg59 O64 2.032 . S
Mg59 O66 2.079 . S
C60 O57 1.250 . S
C60 O58 1.248 . S
C61 O62 1.264 . S
C61 O69 1.249 . S
O62 C61 1.264 . S
O63 Mg56 1.986 . S
O63 C67 1.246 . S
O64 Mg59 2.032 . S
O64 C67 1.259 . S
O65 Mg56 2.114 . S
O65 C68 1.252 . S
O66 Mg56 2.251 . S
O66 Mg59 2.079 . S
O66 C68 1.273 . S
C67 O63 1.246 . S
C67 O64 1.259 . S
C68 O65 1.252 . S
C68 O66 1.273 . S
O69 Mg56 2.010 . S
O69 C61 1.249 . S
Mg70 O71 2.028 . S
Mg70 O77 1.986 . S
Mg70 O79 2.114 . S
Mg70 O80 2.251 . S
Mg70 O83 2.010 . S
O71 Mg70 2.028 . S
O71 C74 1.250 . S
O72 Mg73 2.028 . S
O72 C74 1.248 . S
Mg73 O72 2.028 . S
Mg73 O78 2.032 . S
Mg73 O80 2.079 . S
C74 O71 1.250 . S
C74 O72 1.248 . S
C75 O76 1.264 . S
C75 O83 1.249 . S
O76 C75 1.264 . S
O77 Mg70 1.986 . S
O77 C81 1.246 . S
O78 Mg73 2.032 . S
O78 C81 1.259 . S
O79 Mg70 2.114 . S
O79 C82 1.252 . S
O80 Mg70 2.251 . S
O80 Mg73 2.079 . S
O80 C82 1.273 . S
C81 O77 1.246 . S
C81 O78 1.259 . S
C82 O79 1.252 . S
C82 O80 1.273 . S
O83 Mg70 2.010 . S
O83 C75 1.249 . S
Mg84 O85 2.028 . S
Mg84 O91 1.986 . S
Mg84 O93 2.114 . S
Mg84 O94 2.251 . S
Mg84 O97 2.010 . S
O85 Mg84 2.028 . S
O85 C88 1.250 . S
O86 Mg87 2.028 . S
O86 C88 1.248 . S
Mg87 O86 2.028 . S
Mg87 O92 2.032 . S
Mg87 O94 2.079 . S
C88 O85 1.250 . S
C88 O86 1.248 . S
C89 O90 1.264 . S
C89 O97 1.249 . S
O90 C89 1.264 . S
O91 Mg84 1.986 . S
O91 C95 1.246 . S
O92 Mg87 2.032 . S
O92 C95 1.259 . S
O93 Mg84 2.114 . S
O93 C96 1.252 . S
O94 Mg84 2.251 . S
O94 Mg87 2.079 . S
O94 C96 1.273 . S
C95 O91 1.246 . S
C95 O92 1.259 . S
C96 O93 1.252 . S
C96 O94 1.273 . S
O97 Mg84 2.010 . S
O97 C89 1.249 . S
Mg98 O99 2.028 1_655 S
Mg98 O105 1.986 1_655 S
Mg98 O107 2.114 . S
Mg98 O108 2.251 . S
Mg98 O111 2.010 1_655 S
O99 Mg98 2.028 1_455 S
O99 C102 1.256 . S
O100 Mg101 2.028 . S
O100 C102 1.239 1_655 S
Mg101 O100 2.028 . S
Mg101 O106 2.032 . S
Mg101 O108 2.079 . S
C102 O99 1.256 . S
C102 O100 1.239 1_455 S
C103 O104 1.264 . S
C103 O111 1.249 . S
O104 C103 1.264 . S
O105 Mg98 1.986 1_455 S
O105 C109 1.246 1_455 S
O106 Mg101 2.032 . S
O106 C109 1.259 . S
O107 Mg98 2.114 . S
O107 C110 1.252 . S
O108 Mg98 2.251 . S
O108 Mg101 2.079 . S
O108 C110 1.273 . S
C109 O105 1.246 1_655 S
C109 O106 1.259 . S
C110 O107 1.252 . S
C110 O108 1.273 . S
O111 Mg98 2.010 1_455 S
O111 C103 1.249 . S
Mg112 O113 2.028 1_545 S
Mg112 O119 1.986 . S
Mg112 O121 2.114 . S
Mg112 O122 2.251 . S
Mg112 O125 2.010 . S
O113 Mg112 2.028 1_565 S
O113 C116 1.250 . S
O114 Mg115 2.028 1_565 S
O114 C116 1.248 . S
Mg115 O114 2.028 1_545 S
Mg115 O120 2.032 . S
Mg115 O122 2.079 . S
C116 O113 1.250 . S
C116 O114 1.248 . S
C117 O118 1.264 . S
C117 O125 1.249 . S
O118 C117 1.264 . S
O119 Mg112 1.986 . S
O119 C123 1.246 . S
O120 Mg115 2.032 . S
O120 C123 1.259 . S
O121 Mg112 2.114 . S
O121 C124 1.252 . S
O122 Mg112 2.251 . S
O122 Mg115 2.079 . S
O122 C124 1.273 . S
C123 O119 1.246 . S
C123 O120 1.259 . S
C124 O121 1.252 . S
C124 O122 1.273 . S
O125 Mg112 2.010 . S
O125 C117 1.249 . S
Mg126 O127 2.028 . S
Mg126 O133 1.986 . S
Mg126 O135 2.114 . S
Mg126 O136 2.251 . S
Mg126 O139 2.010 . S
O127 Mg126 2.028 . S
O127 C130 1.250 . S
O128 Mg129 2.028 . S
O128 C130 1.248 . S
Mg129 O128 2.028 . S
Mg129 O134 2.032 . S
Mg129 O136 2.079 . S
C130 O127 1.250 . S
C130 O128 1.248 . S
C131 O132 1.264 . S
C131 O139 1.249 . S
O132 C131 1.264 . S
O133 Mg126 1.986 . S
O133 C137 1.246 . S
O134 Mg129 2.032 . S
O134 C137 1.259 . S
O135 Mg126 2.114 . S
O135 C138 1.252 . S
O136 Mg126 2.251 . S
O136 Mg129 2.079 . S
O136 C138 1.273 . S
C137 O133 1.246 . S
C137 O134 1.259 . S
C138 O135 1.252 . S
C138 O136 1.273 . S
O139 Mg126 2.010 . S
O139 C131 1.249 . S
Mg140 O141 2.028 . S
Mg140 O147 1.986 . S
Mg140 O149 2.114 . S
Mg140 O150 2.251 . S
Mg140 O153 2.010 . S
O141 Mg140 2.028 . S
O141 C144 1.250 . S
O142 Mg143 2.028 . S
O142 C144 1.248 . S
Mg143 O142 2.028 . S
Mg143 O148 2.032 . S
Mg143 O150 2.079 . S
C144 O141 1.250 . S
C144 O142 1.248 . S
C145 O146 1.264 . S
C145 O153 1.249 . S
O146 C145 1.264 . S
O147 Mg140 1.986 . S
O147 C151 1.246 . S
O148 Mg143 2.032 . S
O148 C151 1.259 . S
O149 Mg140 2.114 . S
O149 C152 1.252 . S
O150 Mg140 2.251 . S
O150 Mg143 2.079 . S
O150 C152 1.273 . S
C151 O147 1.246 . S
C151 O148 1.259 . S
C152 O149 1.252 . S
C152 O150 1.273 . S
O153 Mg140 2.010 . S
O153 C145 1.249 . S
Mg154 O155 2.028 1_554 S
Mg154 O161 1.986 . S
Mg154 O163 2.114 1_554 S
Mg154 O164 2.251 . S
Mg154 O167 2.010 . S
O155 Mg154 2.028 1_556 S
O155 C158 1.250 . S
O156 Mg157 2.028 1_556 S
O156 C158 1.248 . S
Mg157 O156 2.028 1_554 S
Mg157 O162 2.032 . S
Mg157 O164 2.079 . S
C158 O155 1.250 . S
C158 O156 1.248 . S
C159 O160 1.264 . S
C159 O167 1.249 . S
O160 C159 1.264 . S
O161 Mg154 1.986 . S
O161 C165 1.246 . S
O162 Mg157 2.032 . S
O162 C165 1.259 . S
O163 Mg154 2.114 1_556 S
O163 C166 1.252 1_556 S
O164 Mg154 2.251 . S
O164 Mg157 2.079 . S
O164 C166 1.273 . S
C165 O161 1.246 . S
C165 O162 1.259 . S
C166 O163 1.252 1_554 S
C166 O164 1.273 . S
O167 Mg154 2.010 . S
O167 C159 1.249 . S
Mg168 O169 2.028 . S
Mg168 O175 1.986 . S
Mg168 O177 2.114 . S
Mg168 O178 2.251 . S
Mg168 O181 2.010 . S
O169 Mg168 2.028 . S
O169 C172 1.250 . S
O170 Mg171 2.028 . S
O170 C172 1.248 . S
Mg171 O170 2.028 . S
Mg171 O176 2.032 . S
Mg171 O178 2.079 . S
C172 O169 1.250 . S
C172 O170 1.248 . S
C173 O174 1.264 . S
C173 O181 1.249 . S
O174 C173 1.264 . S
O175 Mg168 1.986 . S
O175 C179 1.246 . S
O176 Mg171 2.032 . S
O176 C179 1.259 . S
O177 Mg168 2.114 . S
O177 C180 1.252 . S
O178 Mg168 2.251 . S
O178 Mg171 2.079 . S
O178 C180 1.273 . S
C179 O175 1.246 . S
C179 O176 1.259 . S
C180 O177 1.252 . S
C180 O178 1.273 . S
O181 Mg168 2.010 . S
O181 C173 1.249 . S
Mg182 O183 2.028 . S
Mg182 O189 1.986 . S
Mg182 O191 2.114 . S
Mg182 O192 2.251 . S
Mg182 O195 2.010 . S
O183 Mg182 2.028 . S
O183 C186 1.250 . S
O184 Mg185 2.028 . S
O184 C186 1.248 . S
Mg185 O184 2.028 . S
Mg185 O190 2.032 . S
Mg185 O192 2.079 . S
C186 O183 1.250 . S
C186 O184 1.248 . S
C187 O188 1.264 . S
C187 O195 1.249 . S
O188 C187 1.264 . S
O189 Mg182 1.986 . S
O189 C193 1.246 . S
O190 Mg185 2.032 . S
O190 C193 1.259 . S
O191 Mg182 2.114 . S
O191 C194 1.252 . S
O192 Mg182 2.251 . S
O192 Mg185 2.079 . S
O192 C194 1.273 . S
C193 O189 1.246 . S
C193 O190 1.259 . S
C194 O191 1.252 . S
C194 O192 1.273 . S
O195 Mg182 2.010 . S
O195 C187 1.249 . S
Mg196 O197 2.028 . S
Mg196 O203 1.986 . S
Mg196 O205 2.114 . S
Mg196 O206 2.251 . S
Mg196 O209 2.010 . S
O197 Mg196 2.028 . S
O197 C200 1.250 . S
O198 Mg199 2.028 . S
O198 C200 1.248 . S
Mg199 O198 2.028 . S
Mg199 O204 2.032 . S
Mg199 O206 2.079 . S
C200 O197 1.250 . S
C200 O198 1.248 . S
C201 O202 1.264 . S
C201 O209 1.249 . S
O202 C201 1.264 . S
O203 Mg196 1.986 . S
O203 C207 1.246 . S
O204 Mg199 2.032 . S
O204 C207 1.259 . S
O205 Mg196 2.114 . S
O205 C208 1.252 . S
O206 Mg196 2.251 . S
O206 Mg199 2.079 . S
O206 C208 1.273 . S
C207 O203 1.246 . S
C207 O204 1.259 . S
C208 O205 1.252 . S
C208 O206 1.273 . S
O209 Mg196 2.010 . S
O209 C201 1.249 . S
Mg210 O211 2.028 . S
Mg210 O217 1.986 . S
Mg210 O219 2.114 . S
Mg210 O220 2.251 . S
Mg210 O223 2.010 . S
O211 Mg210 2.028 . S
O211 C214 1.250 . S
O212 Mg213 2.028 . S
O212 C214 1.248 . S
Mg213 O212 2.028 . S
Mg213 O218 2.032 . S
Mg213 O220 2.079 . S
C214 O211 1.250 . S
C214 O212 1.248 . S
C215 O216 1.264 . S
C215 O223 1.249 . S
O216 C215 1.264 . S
O217 Mg210 1.986 . S
O217 C221 1.246 . S
O218 Mg213 2.032 . S
O218 C221 1.259 . S
O219 Mg210 2.114 . S
O219 C222 1.252 . S
O220 Mg210 2.251 . S
O220 Mg213 2.079 . S
O220 C222 1.273 . S
C221 O217 1.246 . S
C221 O218 1.259 . S
C222 O219 1.252 . S
C222 O220 1.273 . S
O223 Mg210 2.010 . S
O223 C215 1.249 . S
Mg224 O225 2.028 1_545 S
Mg224 O231 1.986 . S
Mg224 O233 2.114 . S
Mg224 O234 2.251 . S
Mg224 O237 2.010 . S
O225 Mg224 2.028 1_565 S
O225 C228 1.250 . S
O226 Mg227 2.028 1_565 S
O226 C228 1.248 . S
Mg227 O226 2.028 1_545 S
Mg227 O232 2.032 . S
Mg227 O234 2.079 . S
C228 O225 1.250 . S
C228 O226 1.248 . S
C229 O230 1.264 . S
C229 O237 1.249 . S
O230 C229 1.264 . S
O231 Mg224 1.986 . S
O231 C235 1.246 . S
O232 Mg227 2.032 . S
O232 C235 1.259 . S
O233 Mg224 2.114 . S
O233 C236 1.252 . S
O234 Mg224 2.251 . S
O234 Mg227 2.079 . S
O234 C236 1.273 . S
C235 O231 1.246 . S
C235 O232 1.259 . S
C236 O233 1.252 . S
C236 O234 1.273 . S
O237 Mg224 2.010 . S
O237 C229 1.249 . S
Mg238 O239 2.028 . S
Mg238 O245 1.986 . S
Mg238 O247 2.114 . S
Mg238 O248 2.251 . S
Mg238 O251 2.010 . S
O239 Mg238 2.028 . S
O239 C242 1.250 . S
O240 Mg241 2.028 . S
O240 C242 1.248 . S
Mg241 O240 2.028 . S
Mg241 O246 2.032 . S
Mg241 O248 2.079 . S
C242 O239 1.250 . S
C242 O240 1.248 . S
C243 O244 1.264 . S
C243 O251 1.249 . S
O244 C243 1.264 . S
O245 Mg238 1.986 . S
O245 C249 1.246 . S
O246 Mg241 2.032 . S
O246 C249 1.259 . S
O247 Mg238 2.114 . S
O247 C250 1.252 . S
O248 Mg238 2.251 . S
O248 Mg241 2.079 . S
O248 C250 1.273 . S
C249 O245 1.246 . S
C249 O246 1.259 . S
C250 O247 1.252 . S
C250 O248 1.273 . S
O251 Mg238 2.010 . S
O251 C243 1.249 . S
Mg252 O253 2.028 . S
Mg252 O259 1.986 . S
Mg252 O261 2.114 . S
Mg252 O262 2.251 . S
Mg252 O265 2.010 . S
O253 Mg252 2.028 . S
O253 C256 1.250 . S
O254 Mg255 2.028 . S
O254 C256 1.248 . S
Mg255 O254 2.028 . S
Mg255 O260 2.032 . S
Mg255 O262 2.079 . S
C256 O253 1.250 . S
C256 O254 1.248 . S
C257 O258 1.264 . S
C257 O265 1.249 . S
O258 C257 1.264 . S
O259 Mg252 1.986 . S
O259 C263 1.246 . S
O260 Mg255 2.032 . S
O260 C263 1.259 . S
O261 Mg252 2.114 . S
O261 C264 1.252 . S
O262 Mg252 2.251 . S
O262 Mg255 2.079 . S
O262 C264 1.273 . S
C263 O259 1.246 . S
C263 O260 1.259 . S
C264 O261 1.252 . S
C264 O262 1.273 . S
O265 Mg252 2.010 . S
O265 C257 1.249 . S
Mg266 O267 2.028 . S
Mg266 O273 1.986 . S
Mg266 O275 2.114 . S
Mg266 O276 2.251 . S
Mg266 O279 2.010 . S
O267 Mg266 2.028 . S
O267 C270 1.250 . S
O268 Mg269 2.028 . S
O268 C270 1.248 . S
Mg269 O268 2.028 . S
Mg269 O274 2.032 . S
Mg269 O276 2.079 . S
C270 O267 1.250 . S
C270 O268 1.248 . S
C271 O272 1.264 . S
C271 O279 1.249 . S
O272 C271 1.264 . S
O273 Mg266 1.986 . S
O273 C277 1.246 . S
O274 Mg269 2.032 . S
O274 C277 1.259 . S
O275 Mg266 2.114 . S
O275 C278 1.252 . S
O276 Mg266 2.251 . S
O276 Mg269 2.079 . S
O276 C278 1.273 . S
C277 O273 1.246 . S
C277 O274 1.259 . S
C278 O275 1.252 . S
C278 O276 1.273 . S
O279 Mg266 2.010 . S
O279 C271 1.249 . S
Mg280 O281 2.045 . S
Mg280 O287 1.972 1_554 S
Mg280 O289 2.123 . S
Mg280 O290 2.252 . S
Mg280 O293 2.011 1_554 S
O281 Mg280 2.045 . S
O281 C284 1.250 . S
O282 Mg283 2.028 . S
O282 C284 1.248 . S
Mg283 O282 2.028 . S
Mg283 O288 2.032 1_554 S
Mg283 O290 2.079 . S
C284 O281 1.250 . S
C284 O282 1.248 . S
C285 O286 1.264 . S
C285 O293 1.249 . S
O286 C285 1.264 . S
O287 Mg280 1.972 1_556 S
O287 C291 1.246 . S
O288 Mg283 2.032 1_556 S
O288 C291 1.259 . S
O289 Mg280 2.123 . S
O289 C292 1.252 . S
O290 Mg280 2.252 . S
O290 Mg283 2.079 . S
O290 C292 1.273 . S
C291 O287 1.246 . S
C291 O288 1.259 . S
C292 O289 1.252 . S
C292 O290 1.273 . S
O293 Mg280 2.011 1_556 S
O293 C285 1.249 . S
Mg294 O295 2.028 . S
Mg294 O301 1.986 . S
Mg294 O303 2.114 . S
Mg294 O304 2.251 . S
Mg294 O307 2.010 . S
O295 Mg294 2.028 . S
O295 C298 1.250 . S
O296 Mg297 2.028 . S
O296 C298 1.248 . S
Mg297 O296 2.028 . S
Mg297 O302 2.032 . S
Mg297 O304 2.079 . S
C298 O295 1.250 . S
C298 O296 1.248 . S
C299 O300 1.264 . S
C299 O307 1.249 . S
O300 C299 1.264 . S
O301 Mg294 1.986 . S
O301 C305 1.246 . S
O302 Mg297 2.032 . S
O302 C305 1.259 . S
O303 Mg294 2.114 . S
O303 C306 1.252 . S
O304 Mg294 2.251 . S
O304 Mg297 2.079 . S
O304 C306 1.273 . S
C305 O301 1.246 . S
C305 O302 1.259 . S
C306 O303 1.252 . S
C306 O304 1.273 . S
O307 Mg294 2.010 . S
O307 C299 1.249 . S
Mg308 O309 2.028 . S
Mg308 O315 1.986 . S
Mg308 O317 2.114 . S
Mg308 O318 2.251 . S
Mg308 O321 2.010 . S
O309 Mg308 2.028 . S
O309 C312 1.250 . S
O310 Mg311 2.028 . S
O310 C312 1.248 . S
Mg311 O310 2.028 . S
Mg311 O316 2.032 . S
Mg311 O318 2.079 . S
C312 O309 1.250 . S
C312 O310 1.248 . S
C313 O314 1.264 . S
C313 O321 1.249 . S
O314 C313 1.264 . S
O315 Mg308 1.986 . S
O315 C319 1.246 . S
O316 Mg311 2.032 . S
O316 C319 1.259 . S
O317 Mg308 2.114 . S
O317 C320 1.252 . S
O318 Mg308 2.251 . S
O318 Mg311 2.079 . S
O318 C320 1.273 . S
C319 O315 1.246 . S
C319 O316 1.259 . S
C320 O317 1.252 . S
C320 O318 1.273 . S
O321 Mg308 2.010 . S
O321 C313 1.249 . S
Mg322 O323 2.028 . S
Mg322 O329 1.986 . S
Mg322 O331 2.114 . S
Mg322 O332 2.251 . S
Mg322 O335 2.010 . S
O323 Mg322 2.028 . S
O323 C326 1.250 . S
O324 Mg325 2.028 . S
O324 C326 1.248 . S
Mg325 O324 2.028 . S
Mg325 O330 2.032 . S
Mg325 O332 2.079 . S
C326 O323 1.250 . S
C326 O324 1.248 . S
C327 O328 1.264 . S
C327 O335 1.249 . S
O328 C327 1.264 . S
O329 Mg322 1.986 . S
O329 C333 1.246 . S
O330 Mg325 2.032 . S
O330 C333 1.259 . S
O331 Mg322 2.114 . S
O331 C334 1.252 . S
O332 Mg322 2.251 . S
O332 Mg325 2.079 . S
O332 C334 1.273 . S
C333 O329 1.246 . S
C333 O330 1.259 . S
C334 O331 1.252 . S
C334 O332 1.273 . S
O335 Mg322 2.010 . S
O335 C327 1.249 . S
C336 C338 1.422 . S
C336 C340 1.415 . S
C336 N342 1.369 . S
C337 C338 1.421 1_554 S
C337 C339 1.417 1_554 S
C337 C349 1.422 . S
C338 C336 1.422 . S
C338 C337 1.421 1_556 S
C338 N348 1.359 1_556 S
C339 C337 1.417 1_556 S
C339 C341 1.329 . S
C339 H358 0.930 . S
C340 C336 1.415 . S
C340 C341 1.437 . S
C340 C344 1.413 . S
C341 C339 1.329 . S
C341 C340 1.437 . S
C341 H363 0.929 . S
N342 C336 1.369 . S
N342 C343 1.338 . S
N342 Gd347 2.622 1_566 S
C343 N342 1.338 . S
C343 C345 1.378 . S
C343 H355 0.929 . S
C344 C340 1.413 . S
C344 C345 1.348 . S
C344 H360 0.931 . S
C345 C343 1.378 . S
C345 C344 1.348 . S
C345 H361 0.930 . S
Gd346 N366 2.622 . S
Gd346 N373 2.570 . S
Gd346 O380 2.353 . S
Gd346 O381 2.468 . S
Gd346 O382 2.427 . S
Gd346 O384 2.388 . S
Gd346 O385 2.386 . S
Gd346 O389 2.307 1_554 S
Gd346 C399 2.805 . S
Gd347 N342 2.622 1_544 S
Gd347 N348 2.570 1_545 S
Gd347 O379 2.386 1_645 S
Gd347 O383 2.307 1_655 S
Gd347 O386 2.353 1_655 S
Gd347 O387 2.468 . S
Gd347 O388 2.427 1_554 S
Gd347 O390 2.388 1_654 S
Gd347 C411 2.805 1_554 S
N348 C338 1.359 1_554 S
N348 Gd347 2.570 1_565 S
N348 C350 1.343 . S
C349 C337 1.422 . S
C349 C351 1.321 . S
C349 H357 0.931 . S
C350 N348 1.343 . S
C350 C351 1.390 . S
C350 H352 0.931 . S
C351 C349 1.321 . S
C351 C350 1.390 . S
C351 H353 0.930 . S
H352 C350 0.931 . S
H353 C351 0.930 . S
H354 C377 0.931 1_556 S
H355 C343 0.929 . S
H356 C378 0.939 . S
H357 C349 0.931 . S
H358 C339 0.930 . S
H359 C368 0.929 . S
H360 C344 0.931 . S
H361 C345 0.930 . S
H362 C400 0.930 . S
H363 C341 0.929 . S
H364 C369 0.931 . S
H365 C370 0.930 . S
N366 Gd346 2.622 . S
N366 C367 1.369 . S
N366 C368 1.338 . S
C367 N366 1.369 . S
C367 C371 1.415 . S
C367 C374 1.422 . S
C368 H359 0.929 . S
C368 N366 1.338 . S
C368 C370 1.378 . S
C369 H364 0.931 . S
C369 C370 1.348 . S
C369 C371 1.413 . S
C370 H365 0.930 . S
C370 C368 1.378 . S
C370 C369 1.348 . S
C371 C367 1.415 . S
C371 C369 1.413 . S
C371 C401 1.437 . S
H372 C401 0.929 . S
N373 Gd346 2.570 . S
N373 C374 1.359 . S
N373 C377 1.343 . S
C374 C367 1.422 . S
C374 N373 1.359 . S
C374 C376 1.421 . S
C375 C376 1.422 . S
C375 C378 1.316 1_554 S
C375 H402 0.931 . S
C376 C374 1.421 . S
C376 C375 1.422 . S
C376 C400 1.417 . S
C377 H354 0.931 1_554 S
C377 N373 1.343 . S
C377 C378 1.386 1_554 S
C378 H356 0.939 . S
C378 C375 1.316 1_556 S
C378 C377 1.386 1_556 S
O379 Gd347 2.386 1_465 S
O379 C391 1.265 . S
O380 Gd346 2.353 . S
O380 C391 1.242 1_545 S
O381 Gd346 2.468 . S
O381 C399 1.263 . S
O382 Gd346 2.427 . S
O382 C399 1.252 . S
O383 Gd347 2.307 1_455 S
O383 C392 1.261 . S
O384 Gd346 2.388 . S
O384 C392 1.252 . S
O385 Gd346 2.386 . S
O385 C403 1.265 . S
O386 Gd347 2.353 1_455 S
O386 C403 1.242 . S
O387 Gd347 2.468 . S
O387 C411 1.263 1_554 S
O388 Gd347 2.427 1_556 S
O388 C411 1.252 . S
O389 Gd346 2.307 1_556 S
O389 C404 1.261 . S
O390 Gd347 2.388 1_456 S
O390 C404 1.252 . S
C391 O379 1.265 . S
C391 O380 1.242 1_565 S
C392 O383 1.261 . S
C392 O384 1.252 . S
C393 C396 1.394 . S
C393 C398 1.370 . S
C393 C399 1.500 . S
C394 C397 1.383 . S
C394 C398 1.395 . S
C395 C396 1.396 . S
C395 C397 1.365 . S
C395 H412 0.929 . S
C396 C393 1.394 . S
C396 C395 1.396 . S
C396 H413 0.930 . S
C397 C394 1.383 . S
C397 C395 1.365 . S
C397 H414 0.931 . S
C398 C393 1.370 . S
C398 C394 1.395 . S
C398 H415 0.930 . S
C399 Gd346 2.805 . S
C399 O381 1.263 . S
C399 O382 1.252 . S
C399 C393 1.500 . S
C400 H362 0.930 . S
C400 C376 1.417 . S
C400 C401 1.329 . S
C401 C371 1.437 . S
C401 H372 0.929 . S
C401 C400 1.329 . S
H402 C375 0.931 . S
C403 O385 1.265 . S
C403 O386 1.242 . S
C404 O389 1.261 . S
C404 O390 1.252 . S
C405 C408 1.394 . S
C405 C410 1.370 1_556 S
C405 C411 1.500 . S
C406 C409 1.383 1_554 S
C406 C410 1.395 . S
C407 C408 1.396 . S
C407 C409 1.365 . S
C407 H416 0.929 . S
C408 C405 1.394 . S
C408 C407 1.396 . S
C408 H417 0.930 . S
C409 C406 1.383 1_556 S
C409 C407 1.365 . S
C409 H418 0.931 . S
C410 C405 1.370 1_554 S
C410 C406 1.395 . S
C410 H419 0.930 . S
C411 Gd347 2.805 1_556 S
C411 O387 1.263 1_556 S
C411 O388 1.252 . S
C411 C405 1.500 . S
H412 C395 0.929 . S
H413 C396 0.930 . S
H414 C397 0.931 . S
H415 C398 0.930 . S
H416 C407 0.929 . S
H417 C408 0.930 . S
H418 C409 0.931 . S
H419 C410 0.930 . S
C420 C422 1.422 . S
C420 C424 1.415 . S
C420 N426 1.369 . S
C421 C422 1.421 . S
C421 C423 1.417 . S
C421 C433 1.422 . S
C422 C420 1.422 . S
C422 C421 1.421 . S
C422 N432 1.359 . S
C423 C421 1.417 . S
C423 C425 1.329 . S
C423 H442 0.930 . S
C424 C420 1.415 . S
C424 C425 1.437 . S
C424 C428 1.413 . S
C425 C423 1.329 . S
C425 C424 1.437 . S
C425 H447 0.929 . S
N426 C420 1.369 . S
N426 C427 1.338 . S
N426 Gd431 2.622 . S
C427 N426 1.338 . S
C427 C429 1.378 . S
C427 H439 0.929 . S
C428 C424 1.413 . S
C428 C429 1.348 . S
C428 H444 0.931 . S
C429 C427 1.378 . S
C429 C428 1.348 . S
C429 H445 0.930 . S
Gd430 N450 2.622 . S
Gd430 N457 2.570 . S
Gd430 O464 2.353 . S
Gd430 O465 2.468 . S
Gd430 O466 2.427 . S
Gd430 O468 2.388 . S
Gd430 O469 2.386 . S
Gd430 O473 2.307 . S
Gd430 C483 2.805 . S
Gd431 N426 2.622 . S
Gd431 N432 2.570 . S
Gd431 O463 2.386 . S
Gd431 O467 2.307 . S
Gd431 O470 2.353 . S
Gd431 O471 2.468 . S
Gd431 O472 2.427 . S
Gd431 O474 2.388 . S
Gd431 C495 2.805 . S
N432 C422 1.359 . S
N432 Gd431 2.570 . S
N432 C434 1.343 . S
C433 C421 1.422 . S
C433 C435 1.321 . S
C433 H441 0.931 . S
C434 N432 1.343 . S
C434 C435 1.390 . S
C434 H436 0.931 . S
C435 C433 1.321 . S
C435 C434 1.390 . S
C435 H437 0.930 . S
H436 C434 0.931 . S
H437 C435 0.930 . S
H438 C461 0.931 . S
H439 C427 0.929 . S
H440 C462 0.930 . S
H441 C433 0.931 . S
H442 C423 0.930 . S
H443 C452 0.929 . S
H444 C428 0.931 . S
H445 C429 0.930 . S
H446 C484 0.930 . S
H447 C425 0.929 . S
H448 C453 0.931 . S
H449 C454 0.930 . S
N450 Gd430 2.622 . S
N450 C451 1.369 . S
N450 C452 1.338 . S
C451 N450 1.369 . S
C451 C455 1.415 . S
C451 C458 1.422 . S
C452 H443 0.929 . S
C452 N450 1.338 . S
C452 C454 1.378 . S
C453 H448 0.931 . S
C453 C454 1.348 . S
C453 C455 1.413 . S
C454 H449 0.930 . S
C454 C452 1.378 . S
C454 C453 1.348 . S
C455 C451 1.415 . S
C455 C453 1.413 . S
C455 C485 1.437 . S
H456 C485 0.929 . S
N457 Gd430 2.570 . S
N457 C458 1.359 . S
N457 C461 1.343 . S
C458 C451 1.422 . S
C458 N457 1.359 . S
C458 C460 1.421 . S
C459 C460 1.422 . S
C459 C462 1.321 . S
C459 H486 0.931 . S
C460 C458 1.421 . S
C460 C459 1.422 . S
C460 C484 1.417 . S
C461 H438 0.931 . S
C461 N457 1.343 . S
C461 C462 1.390 . S
C462 H440 0.930 . S
C462 C459 1.321 . S
C462 C461 1.390 . S
O463 Gd431 2.386 . S
O463 C475 1.265 . S
O464 Gd430 2.353 . S
O464 C475 1.242 . S
O465 Gd430 2.468 . S
O465 C483 1.263 . S
O466 Gd430 2.427 . S
O466 C483 1.252 . S
O467 Gd431 2.307 . S
O467 C476 1.261 . S
O468 Gd430 2.388 . S
O468 C476 1.252 . S
O469 Gd430 2.386 . S
O469 C487 1.265 . S
O470 Gd431 2.353 . S
O470 C487 1.242 . S
O471 Gd431 2.468 . S
O471 C495 1.263 . S
O472 Gd431 2.427 . S
O472 C495 1.252 . S
O473 Gd430 2.307 . S
O473 C488 1.261 . S
O474 Gd431 2.388 . S
O474 C488 1.252 . S
C475 O463 1.265 . S
C475 O464 1.242 . S
C476 O467 1.261 . S
C476 O468 1.252 . S
C477 C480 1.394 . S
C477 C482 1.370 . S
C477 C483 1.500 . S
C478 C481 1.383 . S
C478 C482 1.395 . S
C479 C480 1.396 . S
C479 C481 1.365 . S
C479 H496 0.929 . S
C480 C477 1.394 . S
C480 C479 1.396 . S
C480 H497 0.930 . S
C481 C478 1.383 . S
C481 C479 1.365 . S
C481 H498 0.931 . S
C482 C477 1.370 . S
C482 C478 1.395 . S
C482 H499 0.930 . S
C483 Gd430 2.805 . S
C483 O465 1.263 . S
C483 O466 1.252 . S
C483 C477 1.500 . S
C484 H446 0.930 . S
C484 C460 1.417 . S
C484 C485 1.329 . S
C485 C455 1.437 . S
C485 H456 0.929 . S
C485 C484 1.329 . S
H486 C459 0.931 . S
C487 O469 1.265 . S
C487 O470 1.242 . S
C488 O473 1.261 . S
C488 O474 1.252 . S
C489 C492 1.394 . S
C489 C494 1.370 . S
C489 C495 1.500 . S
C490 C493 1.383 . S
C490 C494 1.395 . S
C491 C492 1.396 . S
C491 C493 1.365 . S
C491 H500 0.929 . S
C492 C489 1.394 . S
C492 C491 1.396 . S
C492 H501 0.930 . S
C493 C490 1.383 . S
C493 C491 1.365 . S
C493 H502 0.931 . S
C494 C489 1.370 . S
C494 C490 1.395 . S
C494 H503 0.930 . S
C495 Gd431 2.805 . S
C495 O471 1.263 . S
C495 O472 1.252 . S
C495 C489 1.500 . S
H496 C479 0.929 . S
H497 C480 0.930 . S
H498 C481 0.931 . S
H499 C482 0.930 . S
H500 C491 0.929 . S
H501 C492 0.930 . S
H502 C493 0.931 . S
H503 C494 0.930 . S
C504 C506 1.422 . S
C504 C508 1.415 . S
C504 N510 1.369 . S
C505 C506 1.421 . S
C505 C507 1.417 . S
C505 C517 1.422 . S
C506 C504 1.422 . S
C506 C505 1.421 . S
C506 N516 1.359 . S
C507 C505 1.417 . S
C507 C509 1.329 . S
C507 H526 0.930 . S
C508 C504 1.415 . S
C508 C509 1.437 . S
C508 C512 1.413 . S
C509 C507 1.329 . S
C509 C508 1.437 . S
C509 H531 0.929 . S
N510 C504 1.369 . S
N510 C511 1.338 . S
N510 Gd515 2.622 . S
C511 N510 1.338 . S
C511 C513 1.378 . S
C511 H523 0.929 . S
C512 C508 1.413 . S
C512 C513 1.348 . S
C512 H528 0.931 . S
C513 C511 1.378 . S
C513 C512 1.348 . S
C513 H529 0.930 . S
Gd514 N534 2.622 . S
Gd514 N541 2.570 1_545 S
Gd514 O548 2.353 . S
Gd514 O549 2.468 . S
Gd514 O550 2.427 . S
Gd514 O552 2.388 . S
Gd514 O553 2.386 1_545 S
Gd514 O557 2.307 . S
Gd514 C567 2.805 . S
Gd515 N510 2.622 . S
Gd515 N516 2.570 . S
Gd515 O547 2.386 . S
Gd515 O551 2.307 . S
Gd515 O554 2.353 1_545 S
Gd515 O555 2.468 . S
Gd515 O556 2.427 . S
Gd515 O558 2.388 . S
Gd515 C579 2.805 . S
N516 C506 1.359 . S
N516 Gd515 2.570 . S
N516 C518 1.343 . S
C517 C505 1.422 . S
C517 C519 1.321 . S
C517 H525 0.931 . S
C518 N516 1.343 . S
C518 C519 1.390 . S
C518 H520 0.931 . S
C519 C517 1.321 . S
C519 C518 1.390 . S
C519 H521 0.930 . S
H520 C518 0.931 . S
H521 C519 0.930 . S
H522 C545 0.931 . S
H523 C511 0.929 . S
H524 C546 0.930 . S
H525 C517 0.931 . S
H526 C507 0.930 . S
H527 C536 0.929 . S
H528 C512 0.931 . S
H529 C513 0.930 . S
H530 C568 0.930 . S
H531 C509 0.929 . S
H532 C537 0.931 . S
H533 C538 0.930 . S
N534 Gd514 2.622 . S
N534 C535 1.369 1_545 S
N534 C536 1.338 . S
C535 N534 1.369 1_565 S
C535 C539 1.415 . S
C535 C542 1.422 . S
C536 H527 0.929 . S
C536 N534 1.338 . S
C536 C538 1.378 1_545 S
C537 H532 0.931 . S
C537 C538 1.348 . S
C537 C539 1.413 . S
C538 H533 0.930 . S
C538 C536 1.378 1_565 S
C538 C537 1.348 . S
C539 C535 1.415 . S
C539 C537 1.413 . S
C539 C569 1.437 . S
H540 C569 0.929 . S
N541 Gd514 2.570 1_565 S
N541 C542 1.359 . S
N541 C545 1.343 . S
C542 C535 1.422 . S
C542 N541 1.359 . S
C542 C544 1.421 . S
C543 C544 1.422 . S
C543 C546 1.321 . S
C543 H570 0.931 . S
C544 C542 1.421 . S
C544 C543 1.422 . S
C544 C568 1.417 . S
C545 H522 0.931 . S
C545 N541 1.343 . S
C545 C546 1.390 . S
C546 H524 0.930 . S
C546 C543 1.321 . S
C546 C545 1.390 . S
O547 Gd515 2.386 . S
O547 C559 1.265 . S
O548 Gd514 2.353 . S
O548 C559 1.242 . S
O549 Gd514 2.468 . S
O549 C567 1.263 . S
O550 Gd514 2.427 . S
O550 C567 1.252 . S
O551 Gd515 2.307 . S
O551 C560 1.261 . S
O552 Gd514 2.388 . S
O552 C560 1.252 . S
O553 Gd514 2.386 1_565 S
O553 C571 1.265 . S
O554 Gd515 2.353 1_565 S
O554 C571 1.242 . S
O555 Gd515 2.468 . S
O555 C579 1.263 . S
O556 Gd515 2.427 . S
O556 C579 1.252 . S
O557 Gd514 2.307 . S
O557 C572 1.261 . S
O558 Gd515 2.388 . S
O558 C572 1.252 . S
C559 O547 1.265 . S
C559 O548 1.242 . S
C560 O551 1.261 . S
C560 O552 1.252 . S
C561 C564 1.394 . S
C561 C566 1.370 . S
C561 C567 1.500 . S
C562 C565 1.383 . S
C562 C566 1.395 . S
C563 C564 1.396 . S
C563 C565 1.365 . S
C563 H580 0.929 . S
C564 C561 1.394 . S
C564 C563 1.396 . S
C564 H581 0.930 . S
C565 C562 1.383 . S
C565 C563 1.365 . S
C565 H582 0.931 . S
C566 C561 1.370 . S
C566 C562 1.395 . S
C566 H583 0.930 . S
C567 Gd514 2.805 . S
C567 O549 1.263 . S
C567 O550 1.252 . S
C567 C561 1.500 . S
C568 H530 0.930 . S
C568 C544 1.417 . S
C568 C569 1.329 . S
C569 C539 1.437 . S
C569 H540 0.929 . S
C569 C568 1.329 . S
H570 C543 0.931 . S
C571 O553 1.265 . S
C571 O554 1.242 . S
C572 O557 1.261 . S
C572 O558 1.252 . S
C573 C576 1.394 . S
C573 C578 1.370 . S
C573 C579 1.500 1_565 S
C574 C577 1.383 . S
C574 C578 1.395 . S
C575 C576 1.396 . S
C575 C577 1.365 . S
C575 H584 0.929 . S
C576 C573 1.394 . S
C576 C575 1.396 . S
C576 H585 0.930 . S
C577 C574 1.383 . S
C577 C575 1.365 . S
C577 H586 0.931 . S
C578 C573 1.370 . S
C578 C574 1.395 . S
C578 H587 0.930 . S
C579 Gd515 2.805 . S
C579 O555 1.263 . S
C579 O556 1.252 . S
C579 C573 1.500 1_545 S
H580 C563 0.929 . S
H581 C564 0.930 . S
H582 C565 0.931 . S
H583 C566 0.930 . S
H584 C575 0.929 . S
H585 C576 0.930 . S
H586 C577 0.931 . S
H587 C578 0.930 . S
C588 C590 1.422 . S
C588 C592 1.415 . S
C588 N594 1.369 . S
C589 C590 1.421 . S
C589 C591 1.417 . S
C589 C601 1.422 . S
C590 C588 1.422 . S
C590 C589 1.421 . S
C590 N600 1.359 . S
C591 C589 1.417 . S
C591 C593 1.329 . S
C591 H610 0.930 . S
C592 C588 1.415 . S
C592 C593 1.437 . S
C592 C596 1.413 . S
C593 C591 1.329 . S
C593 C592 1.437 . S
C593 H615 0.929 . S
N594 C588 1.369 . S
N594 C595 1.338 . S
N594 Gd599 2.622 . S
C595 N594 1.338 . S
C595 C597 1.378 . S
C595 H607 0.929 . S
C596 C592 1.413 . S
C596 C597 1.348 . S
C596 H612 0.931 . S
C597 C595 1.378 . S
C597 C596 1.348 . S
C597 H613 0.930 . S
Gd598 N618 2.622 . S
Gd598 N625 2.570 . S
Gd598 O632 2.353 . S
Gd598 O633 2.468 . S
Gd598 O634 2.427 . S
Gd598 O636 2.388 . S
Gd598 O637 2.386 . S
Gd598 O641 2.307 . S
Gd598 C651 2.805 . S
Gd599 N594 2.622 . S
Gd599 N600 2.570 . S
Gd599 O631 2.386 . S
Gd599 O635 2.307 . S
Gd599 O638 2.353 . S
Gd599 O639 2.468 . S
Gd599 O640 2.427 . S
Gd599 O642 2.388 . S
Gd599 C663 2.805 . S
N600 C590 1.359 . S
N600 Gd599 2.570 . S
N600 C602 1.343 . S
C601 C589 1.422 . S
C601 C603 1.321 . S
C601 H609 0.931 . S
C602 N600 1.343 . S
C602 C603 1.390 . S
C602 H604 0.931 . S
C603 C601 1.321 . S
C603 C602 1.390 . S
C603 H605 0.930 . S
H604 C602 0.931 . S
H605 C603 0.930 . S
H606 C629 0.931 . S
H607 C595 0.929 . S
H608 C630 0.930 . S
H609 C601 0.931 . S
H610 C591 0.930 . S
H611 C620 0.929 . S
H612 C596 0.931 . S
H613 C597 0.930 . S
H614 C652 0.930 . S
H615 C593 0.929 . S
H616 C621 0.931 . S
H617 C622 0.930 . S
N618 Gd598 2.622 . S
N618 C619 1.369 . S
N618 C620 1.338 . S
C619 N618 1.369 . S
C619 C623 1.415 . S
C619 C626 1.422 . S
C620 H611 0.929 . S
C620 N618 1.338 . S
C620 C622 1.378 . S
C621 H616 0.931 . S
C621 C622 1.348 . S
C621 C623 1.413 . S
C622 H617 0.930 . S
C622 C620 1.378 . S
C622 C621 1.348 . S
C623 C619 1.415 . S
C623 C621 1.413 . S
C623 C653 1.437 . S
H624 C653 0.929 . S
N625 Gd598 2.570 . S
N625 C626 1.359 . S
N625 C629 1.343 . S
C626 C619 1.422 . S
C626 N625 1.359 . S
C626 C628 1.421 . S
C627 C628 1.422 . S
C627 C630 1.321 . S
C627 H654 0.931 . S
C628 C626 1.421 . S
C628 C627 1.422 . S
C628 C652 1.417 . S
C629 H606 0.931 . S
C629 N625 1.343 . S
C629 C630 1.390 . S
C630 H608 0.930 . S
C630 C627 1.321 . S
C630 C629 1.390 . S
O631 Gd599 2.386 . S
O631 C643 1.265 . S
O632 Gd598 2.353 . S
O632 C643 1.242 . S
O633 Gd598 2.468 . S
O633 C651 1.263 . S
O634 Gd598 2.427 . S
O634 C651 1.252 . S
O635 Gd599 2.307 . S
O635 C644 1.261 . S
O636 Gd598 2.388 . S
O636 C644 1.252 . S
O637 Gd598 2.386 . S
O637 C655 1.265 . S
O638 Gd599 2.353 . S
O638 C655 1.242 . S
O639 Gd599 2.468 . S
O639 C663 1.263 . S
O640 Gd599 2.427 . S
O640 C663 1.252 . S
O641 Gd598 2.307 . S
O641 C656 1.261 . S
O642 Gd599 2.388 . S
O642 C656 1.252 . S
C643 O631 1.265 . S
C643 O632 1.242 . S
C644 O635 1.261 . S
C644 O636 1.252 . S
C645 C648 1.394 . S
C645 C650 1.370 . S
C645 C651 1.500 . S
C646 C649 1.383 . S
C646 C650 1.395 . S
C647 C648 1.396 . S
C647 C649 1.365 . S
C647 H664 0.929 . S
C648 C645 1.394 . S
C648 C647 1.396 . S
C648 H665 0.930 . S
C649 C646 1.383 . S
C649 C647 1.365 . S
C649 H666 0.931 . S
C650 C645 1.370 . S
C650 C646 1.395 . S
C650 H667 0.930 . S
C651 Gd598 2.805 . S
C651 O633 1.263 . S
C651 O634 1.252 . S
C651 C645 1.500 . S
C652 H614 0.930 . S
C652 C628 1.417 . S
C652 C653 1.329 . S
C653 C623 1.437 . S
C653 H624 0.929 . S
C653 C652 1.329 . S
H654 C627 0.931 . S
C655 O637 1.265 . S
C655 O638 1.242 . S
C656 O641 1.261 . S
C656 O642 1.252 . S
C657 C660 1.394 . S
C657 C662 1.370 . S
C657 C663 1.500 . S
C658 C661 1.383 . S
C658 C662 1.395 . S
C659 C660 1.396 . S
C659 C661 1.365 . S
C659 H668 0.929 . S
C660 C657 1.394 . S
C660 C659 1.396 . S
C660 H669 0.930 . S
C661 C658 1.383 . S
C661 C659 1.365 . S
C661 H670 0.931 . S
C662 C657 1.370 . S
C662 C658 1.395 . S
C662 H671 0.930 . S
C663 Gd599 2.805 . S
C663 O639 1.263 . S
C663 O640 1.252 . S
C663 C657 1.500 . S
H664 C647 0.929 . S
H665 C648 0.930 . S
H666 C649 0.931 . S
H667 C650 0.930 . S
H668 C659 0.929 . S
H669 C660 0.930 . S
H670 C661 0.931 . S
H671 C662 0.930 . S
C672 C674 1.440 . S
C672 C676 1.403 1_455 S
C672 N678 1.364 1_455 S
C673 C674 1.421 . S
C673 C675 1.417 . S
C673 C685 1.422 . S
C674 C672 1.440 . S
C674 C673 1.421 . S
C674 N684 1.359 . S
C675 C673 1.417 . S
C675 C677 1.329 . S
C675 H694 0.930 . S
C676 C672 1.403 1_655 S
C676 C677 1.437 1_655 S
C676 C680 1.413 . S
C677 C675 1.329 . S
C677 C676 1.437 1_455 S
C677 H699 0.929 1_455 S
N678 C672 1.364 1_655 S
N678 C679 1.338 . S
N678 Gd683 2.622 1_655 S
C679 N678 1.338 . S
C679 C681 1.378 . S
C679 H691 0.929 . S
C680 C676 1.413 . S
C680 C681 1.348 . S
C680 H696 0.931 . S
C681 C679 1.378 . S
C681 C680 1.348 . S
C681 H697 0.930 . S
Gd682 N702 2.622 . S
Gd682 N709 2.570 . S
Gd682 O716 2.353 1_565 S
Gd682 O717 2.468 . S
Gd682 O718 2.427 . S
Gd682 O720 2.388 1_565 S
Gd682 O721 2.386 1_565 S
Gd682 O725 2.270 1_465 S
Gd682 C735 2.805 . S
Gd683 N678 2.622 1_455 S
Gd683 N684 2.570 . S
Gd683 O715 2.386 . S
Gd683 O719 2.307 . S
Gd683 O722 2.353 . S
Gd683 O723 2.468 . S
Gd683 O724 2.427 1_455 S
Gd683 O726 2.388 1_455 S
Gd683 C747 2.805 . S
N684 C674 1.359 . S
N684 Gd683 2.570 . S
N684 C686 1.343 . S
C685 C673 1.422 . S
C685 C687 1.321 . S
C685 H693 0.931 . S
C686 N684 1.343 . S
C686 C687 1.390 . S
C686 H688 0.931 . S
C687 C685 1.321 . S
C687 C686 1.390 . S
C687 H689 0.930 . S
H688 C686 0.931 . S
H689 C687 0.930 . S
H690 C713 0.931 . S
H691 C679 0.929 . S
H692 C714 0.930 . S
H693 C685 0.931 . S
H694 C675 0.930 . S
H695 C704 0.929 1_545 S
H696 C680 0.931 . S
H697 C681 0.930 . S
H698 C736 0.930 . S
H699 C677 0.929 1_655 S
H700 C705 0.931 . S
H701 C706 0.930 . S
N702 Gd682 2.622 . S
N702 C703 1.369 . S
N702 C704 1.338 . S
C703 N702 1.369 . S
C703 C707 1.415 . S
C703 C710 1.422 . S
C704 H695 0.929 1_565 S
C704 N702 1.338 . S
C704 C706 1.378 . S
C705 H700 0.931 . S
C705 C706 1.348 . S
C705 C707 1.413 . S
C706 H701 0.930 . S
C706 C704 1.378 . S
C706 C705 1.348 . S
C707 C703 1.415 . S
C707 C705 1.413 . S
C707 C737 1.437 . S
H708 C737 0.929 . S
N709 Gd682 2.570 . S
N709 C710 1.359 . S
N709 C713 1.343 1_455 S
C710 C703 1.422 . S
C710 N709 1.359 . S
C710 C712 1.421 . S
C711 C712 1.422 1_655 S
C711 C714 1.321 . S
C711 H738 0.931 . S
C712 C710 1.421 . S
C712 C711 1.422 1_455 S
C712 C736 1.417 . S
C713 H690 0.931 . S
C713 N709 1.343 1_655 S
C713 C714 1.390 . S
C714 H692 0.930 . S
C714 C711 1.321 . S
C714 C713 1.390 . S
O715 Gd683 2.386 . S
O715 C727 1.265 . S
O716 Gd682 2.353 1_545 S
O716 C727 1.242 . S
O717 Gd682 2.468 . S
O717 C735 1.263 . S
O718 Gd682 2.427 . S
O718 C735 1.252 . S
O719 Gd683 2.307 . S
O719 C728 1.261 . S
O720 Gd682 2.388 1_545 S
O720 C728 1.252 . S
O721 Gd682 2.386 1_545 S
O721 C739 1.265 . S
O722 Gd683 2.353 . S
O722 C739 1.242 . S
O723 Gd683 2.468 . S
O723 C747 1.263 . S
O724 Gd683 2.427 1_655 S
O724 C747 1.252 1_655 S
O725 Gd682 2.270 1_645 S
O725 C740 1.295 . S
O726 Gd683 2.388 1_655 S
O726 C740 1.252 . S
C727 O715 1.265 . S
C727 O716 1.242 . S
C728 O719 1.261 . S
C728 O720 1.252 . S
C729 C732 1.394 . S
C729 C734 1.370 . S
C729 C735 1.500 . S
C730 C733 1.383 . S
C730 C734 1.395 . S
C731 C732 1.396 . S
C731 C733 1.365 . S
C731 H748 0.929 . S
C732 C729 1.394 . S
C732 C731 1.396 . S
C732 H749 0.930 . S
C733 C730 1.383 . S
C733 C731 1.365 . S
C733 H750 0.931 . S
C734 C729 1.370 . S
C734 C730 1.395 . S
C734 H751 0.930 . S
C735 Gd682 2.805 . S
C735 O717 1.263 . S
C735 O718 1.252 . S
C735 C729 1.500 . S
C736 H698 0.930 . S
C736 C712 1.417 . S
C736 C737 1.329 . S
C737 C707 1.437 . S
C737 H708 0.929 . S
C737 C736 1.329 . S
H738 C711 0.931 . S
C739 O721 1.265 . S
C739 O722 1.242 . S
C740 O725 1.295 . S
C740 O726 1.252 . S
C741 C744 1.394 1_455 S
C741 C746 1.370 . S
C741 C747 1.500 . S
C742 C745 1.383 1_455 S
C742 C746 1.395 . S
C743 C744 1.396 . S
C743 C745 1.365 . S
C743 H752 0.929 . S
C744 C741 1.394 1_655 S
C744 C743 1.396 . S
C744 H753 0.930 . S
C745 C742 1.383 1_655 S
C745 C743 1.365 . S
C745 H754 0.931 . S
C746 C741 1.370 . S
C746 C742 1.395 . S
C746 H755 0.930 . S
C747 Gd683 2.805 . S
C747 O723 1.263 . S
C747 O724 1.252 1_455 S
C747 C741 1.500 . S
H748 C731 0.929 . S
H749 C732 0.930 . S
H750 C733 0.931 . S
H751 C734 0.930 . S
H752 C743 0.929 . S
H753 C744 0.930 . S
H754 C745 0.931 . S
H755 C746 0.930 . S
C756 C758 1.422 . S
C756 C760 1.415 . S
C756 N762 1.369 . S
C757 C758 1.421 . S
C757 C759 1.417 . S
C757 C769 1.422 . S
C758 C756 1.422 . S
C758 C757 1.421 . S
C758 N768 1.359 . S
C759 C757 1.417 . S
C759 C761 1.329 . S
C759 H778 0.930 . S
C760 C756 1.415 . S
C760 C761 1.437 . S
C760 C764 1.413 . S
C761 C759 1.329 . S
C761 C760 1.437 . S
C761 H783 0.929 . S
N762 C756 1.369 . S
N762 C763 1.338 . S
N762 Gd767 2.622 . S
C763 N762 1.338 . S
C763 C765 1.378 . S
C763 H775 0.929 . S
C764 C760 1.413 . S
C764 C765 1.348 . S
C764 H780 0.931 . S
C765 C763 1.378 . S
C765 C764 1.348 . S
C765 H781 0.930 . S
Gd766 N786 2.622 . S
Gd766 N793 2.570 . S
Gd766 O800 2.353 . S
Gd766 O801 2.468 . S
Gd766 O802 2.427 . S
Gd766 O804 2.388 . S
Gd766 O805 2.386 . S
Gd766 O809 2.307 . S
Gd766 C819 2.805 . S
Gd767 N762 2.622 . S
Gd767 N768 2.570 . S
Gd767 O799 2.386 . S
Gd767 O803 2.307 . S
Gd767 O806 2.353 . S
Gd767 O807 2.468 . S
Gd767 O808 2.427 . S
Gd767 O810 2.388 . S
Gd767 C831 2.805 . S
N768 C758 1.359 . S
N768 Gd767 2.570 . S
N768 C770 1.343 . S
C769 C757 1.422 . S
C769 C771 1.321 . S
C769 H777 0.931 . S
C770 N768 1.343 . S
C770 C771 1.390 . S
C770 H772 0.931 . S
C771 C769 1.321 . S
C771 C770 1.390 . S
C771 H773 0.930 . S
H772 C770 0.931 . S
H773 C771 0.930 . S
H774 C797 0.931 . S
H775 C763 0.929 . S
H776 C798 0.930 . S
H777 C769 0.931 . S
H778 C759 0.930 . S
H779 C788 0.929 . S
H780 C764 0.931 . S
H781 C765 0.930 . S
H782 C820 0.930 . S
H783 C761 0.929 . S
H784 C789 0.931 . S
H785 C790 0.930 . S
N786 Gd766 2.622 . S
N786 C787 1.369 . S
N786 C788 1.338 . S
C787 N786 1.369 . S
C787 C791 1.415 . S
C787 C794 1.422 . S
C788 H779 0.929 . S
C788 N786 1.338 . S
C788 C790 1.378 . S
C789 H784 0.931 . S
C789 C790 1.348 . S
C789 C791 1.413 . S
C790 H785 0.930 . S
C790 C788 1.378 . S
C790 C789 1.348 . S
C791 C787 1.415 . S
C791 C789 1.413 . S
C791 C821 1.437 . S
H792 C821 0.929 . S
N793 Gd766 2.570 . S
N793 C794 1.359 . S
N793 C797 1.343 . S
C794 C787 1.422 . S
C794 N793 1.359 . S
C794 C796 1.421 . S
C795 C796 1.422 . S
C795 C798 1.321 . S
C795 H822 0.931 . S
C796 C794 1.421 . S
C796 C795 1.422 . S
C796 C820 1.417 . S
C797 H774 0.931 . S
C797 N793 1.343 . S
C797 C798 1.390 . S
C798 H776 0.930 . S
C798 C795 1.321 . S
C798 C797 1.390 . S
O799 Gd767 2.386 . S
O799 C811 1.265 . S
O800 Gd766 2.353 . S
O800 C811 1.242 . S
O801 Gd766 2.468 . S
O801 C819 1.263 . S
O802 Gd766 2.427 . S
O802 C819 1.252 . S
O803 Gd767 2.307 . S
O803 C812 1.261 . S
O804 Gd766 2.388 . S
O804 C812 1.252 . S
O805 Gd766 2.386 . S
O805 C823 1.265 . S
O806 Gd767 2.353 . S
O806 C823 1.242 . S
O807 Gd767 2.468 . S
O807 C831 1.263 . S
O808 Gd767 2.427 . S
O808 C831 1.252 . S
O809 Gd766 2.307 . S
O809 C824 1.261 . S
O810 Gd767 2.388 . S
O810 C824 1.252 . S
C811 O799 1.265 . S
C811 O800 1.242 . S
C812 O803 1.261 . S
C812 O804 1.252 . S
C813 C816 1.394 . S
C813 C818 1.370 . S
C813 C819 1.500 . S
C814 C817 1.383 . S
C814 C818 1.395 . S
C815 C816 1.396 . S
C815 C817 1.365 . S
C815 H832 0.929 . S
C816 C813 1.394 . S
C816 C815 1.396 . S
C816 H833 0.930 . S
C817 C814 1.383 . S
C817 C815 1.365 . S
C817 H834 0.931 . S
C818 C813 1.370 . S
C818 C814 1.395 . S
C818 H835 0.930 . S
C819 Gd766 2.805 . S
C819 O801 1.263 . S
C819 O802 1.252 . S
C819 C813 1.500 . S
C820 H782 0.930 . S
C820 C796 1.417 . S
C820 C821 1.329 . S
C821 C791 1.437 . S
C821 H792 0.929 . S
C821 C820 1.329 . S
H822 C795 0.931 . S
C823 O805 1.265 . S
C823 O806 1.242 . S
C824 O809 1.261 . S
C824 O810 1.252 . S
C825 C828 1.394 . S
C825 C830 1.370 . S
C825 C831 1.500 . S
C826 C829 1.383 . S
C826 C830 1.395 . S
C827 C828 1.396 . S
C827 C829 1.365 . S
C827 H836 0.929 . S
C828 C825 1.394 . S
C828 C827 1.396 . S
C828 H837 0.930 . S
C829 C826 1.383 . S
C829 C827 1.365 . S
C829 H838 0.931 . S
C830 C825 1.370 . S
C830 C826 1.395 . S
C830 H839 0.930 . S
C831 Gd767 2.805 . S
C831 O807 1.263 . S
C831 O808 1.252 . S
C831 C825 1.500 . S
H832 C815 0.929 . S
H833 C816 0.930 . S
H834 C817 0.931 . S
H835 C818 0.930 . S
H836 C827 0.929 . S
H837 C828 0.930 . S
H838 C829 0.931 . S
H839 C830 0.930 . S
C840 C842 1.422 1_565 S
C840 C844 1.415 . S
C840 N846 1.369 . S
C841 C842 1.421 . S
C841 C843 1.417 . S
C841 C853 1.422 . S
C842 C840 1.422 1_545 S
C842 C841 1.421 . S
C842 N852 1.359 . S
C843 C841 1.417 . S
C843 C845 1.329 1_545 S
C843 H862 0.930 . S
C844 C840 1.415 . S
C844 C845 1.437 . S
C844 C848 1.413 . S
C845 C843 1.329 1_565 S
C845 C844 1.437 . S
C845 H867 0.929 . S
N846 C840 1.369 . S
N846 C847 1.338 . S
N846 Gd851 2.622 1_565 S
C847 N846 1.338 . S
C847 C849 1.378 . S
C847 H859 0.929 . S
C848 C844 1.413 . S
C848 C849 1.348 . S
C848 H864 0.931 . S
C849 C847 1.378 . S
C849 C848 1.348 . S
C849 H865 0.930 . S
Gd850 N870 2.622 . S
Gd850 N877 2.570 . S
Gd850 O884 2.353 1_556 S
Gd850 O885 2.468 . S
Gd850 O886 2.427 . S
Gd850 O888 2.388 1_556 S
Gd850 O889 2.386 1_556 S
Gd850 O893 2.307 . S
Gd850 C903 2.805 . S
Gd851 N846 2.622 1_545 S
Gd851 N852 2.570 . S
Gd851 O883 2.386 . S
Gd851 O887 2.307 . S
Gd851 O890 2.353 . S
Gd851 O891 2.468 . S
Gd851 O892 2.427 1_545 S
Gd851 O894 2.388 1_545 S
Gd851 C915 2.805 1_545 S
N852 C842 1.359 . S
N852 Gd851 2.570 . S
N852 C854 1.343 . S
C853 C841 1.422 . S
C853 C855 1.321 . S
C853 H861 0.931 . S
C854 N852 1.343 . S
C854 C855 1.390 . S
C854 H856 0.931 . S
C855 C853 1.321 . S
C855 C854 1.390 . S
C855 H857 0.930 . S
H856 C854 0.931 . S
H857 C855 0.930 . S
H858 C881 0.931 1_565 S
H859 C847 0.929 . S
H860 C882 0.930 . S
H861 C853 0.931 . S
H862 C843 0.930 . S
H863 C872 0.929 1_554 S
H864 C848 0.931 . S
H865 C849 0.930 . S
H866 C904 0.930 . S
H867 C845 0.929 . S
H868 C873 0.931 . S
H869 C874 0.930 . S
N870 Gd850 2.622 . S
N870 C871 1.369 . S
N870 C872 1.338 . S
C871 N870 1.369 . S
C871 C875 1.415 . S
C871 C878 1.422 . S
C872 H863 0.929 1_556 S
C872 N870 1.338 . S
C872 C874 1.378 . S
C873 H868 0.931 . S
C873 C874 1.348 . S
C873 C875 1.413 . S
C874 H869 0.930 . S
C874 C872 1.378 . S
C874 C873 1.348 . S
C875 C871 1.415 . S
C875 C873 1.413 . S
C875 C905 1.437 . S
H876 C905 0.929 . S
N877 Gd850 2.570 . S
N877 C878 1.359 . S
N877 C881 1.343 . S
C878 C871 1.422 . S
C878 N877 1.359 . S
C878 C880 1.421 . S
C879 C880 1.422 . S
C879 C882 1.321 1_545 S
C879 H906 0.931 1_545 S
C880 C878 1.421 . S
C880 C879 1.422 . S
C880 C904 1.417 . S
C881 H858 0.931 1_545 S
C881 N877 1.343 . S
C881 C882 1.390 1_545 S
C882 H860 0.930 . S
C882 C879 1.321 1_565 S
C882 C881 1.390 1_565 S
O883 Gd851 2.386 . S
O883 C895 1.265 . S
O884 Gd850 2.353 1_554 S
O884 C895 1.242 . S
O885 Gd850 2.468 . S
O885 C903 1.263 . S
O886 Gd850 2.427 . S
O886 C903 1.252 . S
O887 Gd851 2.307 . S
O887 C896 1.261 . S
O888 Gd850 2.388 1_554 S
O888 C896 1.252 . S
O889 Gd850 2.386 1_554 S
O889 C907 1.265 . S
O890 Gd851 2.353 . S
O890 C907 1.242 . S
O891 Gd851 2.468 . S
O891 C915 1.263 1_545 S
O892 Gd851 2.427 1_565 S
O892 C915 1.252 . S
O893 Gd850 2.307 . S
O893 C908 1.251 1_546 S
O894 Gd851 2.388 1_565 S
O894 C908 1.281 . S
C895 O883 1.265 . S
C895 O884 1.242 . S
C896 O887 1.261 . S
C896 O888 1.252 . S
C897 C900 1.394 . S
C897 C902 1.370 . S
C897 C903 1.500 . S
C898 C901 1.383 . S
C898 C902 1.395 . S
C899 C900 1.396 . S
C899 C901 1.365 . S
C899 H916 0.929 . S
C900 C897 1.394 . S
C900 C899 1.396 . S
C900 H917 0.930 . S
C901 C898 1.383 . S
C901 C899 1.365 . S
C901 H918 0.931 . S
C902 C897 1.370 . S
C902 C898 1.395 . S
C902 H919 0.930 . S
C903 Gd850 2.805 . S
C903 O885 1.263 . S
C903 O886 1.252 . S
C903 C897 1.500 . S
C904 H866 0.930 . S
C904 C880 1.417 . S
C904 C905 1.329 . S
C905 C875 1.437 . S
C905 H876 0.929 . S
C905 C904 1.329 . S
H906 C879 0.931 1_565 S
C907 O889 1.265 . S
C907 O890 1.242 . S
C908 O893 1.251 1_564 S
C908 O894 1.281 . S
C909 C912 1.394 . S
C909 C914 1.370 1_565 S
C909 C915 1.500 . S
C910 C913 1.383 . S
C910 C914 1.395 1_565 S
C911 C912 1.396 . S
C911 C913 1.365 . S
C911 H920 0.929 . S
C912 C909 1.394 . S
C912 C911 1.396 . S
C912 H921 0.930 . S
C913 C910 1.383 . S
C913 C911 1.365 . S
C913 H922 0.931 . S
C914 C909 1.370 1_545 S
C914 C910 1.395 1_545 S
C914 H923 0.930 . S
C915 Gd851 2.805 1_565 S
C915 O891 1.263 1_565 S
C915 O892 1.252 . S
C915 C909 1.500 . S
H916 C899 0.929 . S
H917 C900 0.930 . S
H918 C901 0.931 . S
H919 C902 0.930 . S
H920 C911 0.929 . S
H921 C912 0.930 . S
H922 C913 0.931 . S
H923 C914 0.930 . S
C924 C926 1.422 . S
C924 C928 1.415 . S
C924 N930 1.369 . S
C925 C926 1.421 . S
C925 C927 1.417 . S
C925 C937 1.422 . S
C926 C924 1.422 . S
C926 C925 1.421 . S
C926 N936 1.359 . S
C927 C925 1.417 . S
C927 C929 1.329 . S
C927 H946 0.930 . S
C928 C924 1.415 . S
C928 C929 1.437 . S
C928 C932 1.413 . S
C929 C927 1.329 . S
C929 C928 1.437 . S
C929 H951 0.929 . S
N930 C924 1.369 . S
N930 C931 1.338 . S
N930 Gd935 2.622 . S
C931 N930 1.338 . S
C931 C933 1.378 . S
C931 H943 0.929 . S
C932 C928 1.413 . S
C932 C933 1.348 . S
C932 H948 0.931 . S
C933 C931 1.378 . S
C933 C932 1.348 . S
C933 H949 0.930 . S
Gd934 N954 2.622 . S
Gd934 N961 2.570 . S
Gd934 O968 2.353 . S
Gd934 O969 2.468 . S
Gd934 O970 2.427 . S
Gd934 O972 2.388 . S
Gd934 O973 2.386 . S
Gd934 O977 2.307 . S
Gd934 C987 2.805 . S
Gd935 N930 2.622 . S
Gd935 N936 2.570 . S
Gd935 O967 2.386 . S
Gd935 O971 2.307 . S
Gd935 O974 2.353 . S
Gd935 O975 2.468 . S
Gd935 O976 2.427 . S
Gd935 O978 2.388 . S
Gd935 C999 2.805 . S
N936 C926 1.359 . S
N936 Gd935 2.570 . S
N936 C938 1.343 . S
C937 C925 1.422 . S
C937 C939 1.321 . S
C937 H945 0.931 . S
C938 N936 1.343 . S
C938 C939 1.390 . S
C938 H940 0.931 . S
C939 C937 1.321 . S
C939 C938 1.390 . S
C939 H941 0.930 . S
H940 C938 0.931 . S
H941 C939 0.930 . S
H942 C965 0.931 . S
H943 C931 0.929 . S
H944 C966 0.930 . S
H945 C937 0.931 . S
H946 C927 0.930 . S
H947 C956 0.929 . S
H948 C932 0.931 . S
H949 C933 0.930 . S
H950 C988 0.930 . S
H951 C929 0.929 . S
H952 C957 0.931 . S
H953 C958 0.930 . S
N954 Gd934 2.622 . S
N954 C955 1.369 . S
N954 C956 1.338 . S
C955 N954 1.369 . S
C955 C959 1.415 . S
C955 C962 1.422 . S
C956 H947 0.929 . S
C956 N954 1.338 . S
C956 C958 1.378 . S
C957 H952 0.931 . S
C957 C958 1.348 . S
C957 C959 1.413 . S
C958 H953 0.930 . S
C958 C956 1.378 . S
C958 C957 1.348 . S
C959 C955 1.415 . S
C959 C957 1.413 . S
C959 C989 1.437 . S
H960 C989 0.929 . S
N961 Gd934 2.570 . S
N961 C962 1.359 . S
N961 C965 1.343 . S
C962 C955 1.422 . S
C962 N961 1.359 . S
C962 C964 1.421 . S
C963 C964 1.422 . S
C963 C966 1.321 . S
C963 H990 0.931 . S
C964 C962 1.421 . S
C964 C963 1.422 . S
C964 C988 1.417 . S
C965 H942 0.931 . S
C965 N961 1.343 . S
C965 C966 1.390 . S
C966 H944 0.930 . S
C966 C963 1.321 . S
C966 C965 1.390 . S
O967 Gd935 2.386 . S
O967 C979 1.265 . S
O968 Gd934 2.353 . S
O968 C979 1.242 . S
O969 Gd934 2.468 . S
O969 C987 1.263 . S
O970 Gd934 2.427 . S
O970 C987 1.252 . S
O971 Gd935 2.307 . S
O971 C980 1.261 . S
O972 Gd934 2.388 . S
O972 C980 1.252 . S
O973 Gd934 2.386 . S
O973 C991 1.265 . S
O974 Gd935 2.353 . S
O974 C991 1.242 . S
O975 Gd935 2.468 . S
O975 C999 1.263 . S
O976 Gd935 2.427 . S
O976 C999 1.252 . S
O977 Gd934 2.307 . S
O977 C992 1.261 . S
O978 Gd935 2.388 . S
O978 C992 1.252 . S
C979 O967 1.265 . S
C979 O968 1.242 . S
C980 O971 1.261 . S
C980 O972 1.252 . S
C981 C984 1.394 . S
C981 C986 1.370 . S
C981 C987 1.500 . S
C982 C985 1.383 . S
C982 C986 1.395 . S
C983 C984 1.396 . S
C983 C985 1.365 . S
C983 H1000 0.929 . S
C984 C981 1.394 . S
C984 C983 1.396 . S
C984 H1001 0.930 . S
C985 C982 1.383 . S
C985 C983 1.365 . S
C985 H1002 0.931 . S
C986 C981 1.370 . S
C986 C982 1.395 . S
C986 H1003 0.930 . S
C987 Gd934 2.805 . S
C987 O969 1.263 . S
C987 O970 1.252 . S
C987 C981 1.500 . S
C988 H950 0.930 . S
C988 C964 1.417 . S
C988 C989 1.329 . S
C989 C959 1.437 . S
C989 H960 0.929 . S
C989 C988 1.329 . S
H990 C963 0.931 . S
C991 O973 1.265 . S
C991 O974 1.242 . S
C992 O977 1.261 . S
C992 O978 1.252 . S
C993 C996 1.394 . S
C993 C998 1.370 . S
C993 C999 1.500 . S
C994 C997 1.383 . S
C994 C998 1.395 . S
C995 C996 1.396 . S
C995 C997 1.365 . S
C995 H1004 0.929 . S
C996 C993 1.394 . S
C996 C995 1.396 . S
C996 H1005 0.930 . S
C997 C994 1.383 . S
C997 C995 1.365 . S
C997 H1006 0.931 . S
C998 C993 1.370 . S
C998 C994 1.395 . S
C998 H1007 0.930 . S
C999 Gd935 2.805 . S
C999 O975 1.263 . S
C999 O976 1.252 . S
C999 C993 1.500 . S
H1000 C983 0.929 . S
H1001 C984 0.930 . S
H1002 C985 0.931 . S
H1003 C986 0.930 . S
H1004 C995 0.929 . S
H1005 C996 0.930 . S
H1006 C997 0.931 . S
H1007 C998 0.930 . S
C1008 C1010 1.422 . S
C1008 C1012 1.415 . S
C1008 N1014 1.369 . S
C1009 C1010 1.421 . S
C1009 C1011 1.417 . S
C1009 C1021 1.422 . S
C1010 C1008 1.422 . S
C1010 C1009 1.421 . S
C1010 N1020 1.359 . S
C1011 C1009 1.417 . S
C1011 C1013 1.329 . S
C1011 H1030 0.930 . S
C1012 C1008 1.415 . S
C1012 C1013 1.437 . S
C1012 C1016 1.413 . S
C1013 C1011 1.329 . S
C1013 C1012 1.437 . S
C1013 H1035 0.929 . S
N1014 C1008 1.369 . S
N1014 C1015 1.338 . S
N1014 Gd1019 2.622 . S
C1015 N1014 1.338 . S
C1015 C1017 1.378 . S
C1015 H1027 0.929 . S
C1016 C1012 1.413 . S
C1016 C1017 1.348 . S
C1016 H1032 0.931 . S
C1017 C1015 1.378 . S
C1017 C1016 1.348 . S
C1017 H1033 0.930 . S
Gd1018 N1038 2.622 1_554 S
Gd1018 N1045 2.570 1_554 S
Gd1018 O1052 2.353 . S
Gd1018 O1053 2.468 . S
Gd1018 O1054 2.427 . S
Gd1018 O1056 2.388 . S
Gd1018 O1057 2.386 1_554 S
Gd1018 O1061 2.307 . S
Gd1018 C1071 2.805 . S
Gd1019 N1014 2.622 . S
Gd1019 N1020 2.570 . S
Gd1019 O1051 2.386 . S
Gd1019 O1055 2.307 . S
Gd1019 O1058 2.353 1_554 S
Gd1019 O1059 2.468 . S
Gd1019 O1060 2.427 . S
Gd1019 O1062 2.388 . S
Gd1019 C1083 2.805 . S
N1020 C1010 1.359 . S
N1020 Gd1019 2.570 . S
N1020 C1022 1.343 . S
C1021 C1009 1.422 . S
C1021 C1023 1.321 . S
C1021 H1029 0.931 . S
C1022 N1020 1.343 . S
C1022 C1023 1.390 . S
C1022 H1024 0.931 . S
C1023 C1021 1.321 . S
C1023 C1022 1.390 . S
C1023 H1025 0.930 . S
H1024 C1022 0.931 . S
H1025 C1023 0.930 . S
H1026 C1049 0.931 . S
H1027 C1015 0.929 . S
H1028 C1050 0.930 . S
H1029 C1021 0.931 . S
H1030 C1011 0.930 . S
H1031 C1040 0.954 . S
H1032 C1016 0.931 . S
H1033 C1017 0.930 . S
H1034 C1072 0.930 . S
H1035 C1013 0.929 . S
H1036 C1041 0.931 . S
H1037 C1042 0.930 . S
N1038 Gd1018 2.622 1_556 S
N1038 C1039 1.369 . S
N1038 C1040 1.338 . S
C1039 N1038 1.369 . S
C1039 C1043 1.415 . S
C1039 C1046 1.422 . S
C1040 H1031 0.954 . S
C1040 N1038 1.338 . S
C1040 C1042 1.378 . S
C1041 H1036 0.931 . S
C1041 C1042 1.348 . S
C1041 C1043 1.413 . S
C1042 H1037 0.930 . S
C1042 C1040 1.378 . S
C1042 C1041 1.348 . S
C1043 C1039 1.415 . S
C1043 C1041 1.413 . S
C1043 C1073 1.437 . S
H1044 C1073 0.929 . S
N1045 Gd1018 2.570 1_556 S
N1045 C1046 1.359 . S
N1045 C1049 1.343 . S
C1046 C1039 1.422 . S
C1046 N1045 1.359 . S
C1046 C1048 1.421 . S
C1047 C1048 1.422 . S
C1047 C1050 1.321 . S
C1047 H1074 0.931 . S
C1048 C1046 1.421 . S
C1048 C1047 1.422 . S
C1048 C1072 1.417 . S
C1049 H1026 0.931 . S
C1049 N1045 1.343 . S
C1049 C1050 1.390 . S
C1050 H1028 0.930 . S
C1050 C1047 1.321 . S
C1050 C1049 1.390 . S
O1051 Gd1019 2.386 . S
O1051 C1063 1.265 . S
O1052 Gd1018 2.353 . S
O1052 C1063 1.242 . S
O1053 Gd1018 2.468 . S
O1053 C1071 1.263 . S
O1054 Gd1018 2.427 . S
O1054 C1071 1.252 . S
O1055 Gd1019 2.307 . S
O1055 C1064 1.261 . S
O1056 Gd1018 2.388 . S
O1056 C1064 1.252 . S
O1057 Gd1018 2.386 1_556 S
O1057 C1075 1.265 . S
O1058 Gd1019 2.353 1_556 S
O1058 C1075 1.242 . S
O1059 Gd1019 2.468 . S
O1059 C1083 1.263 . S
O1060 Gd1019 2.427 . S
O1060 C1083 1.252 . S
O1061 Gd1018 2.307 . S
O1061 C1076 1.261 . S
O1062 Gd1019 2.388 . S
O1062 C1076 1.252 . S
C1063 O1051 1.265 . S
C1063 O1052 1.242 . S
C1064 O1055 1.261 . S
C1064 O1056 1.252 . S
C1065 C1068 1.394 . S
C1065 C1070 1.370 . S
C1065 C1071 1.500 . S
C1066 C1069 1.383 . S
C1066 C1070 1.395 . S
C1067 C1068 1.396 . S
C1067 C1069 1.365 . S
C1067 H1084 0.929 . S
C1068 C1065 1.394 . S
C1068 C1067 1.396 . S
C1068 H1085 0.930 . S
C1069 C1066 1.383 . S
C1069 C1067 1.365 . S
C1069 H1086 0.931 . S
C1070 C1065 1.370 . S
C1070 C1066 1.395 . S
C1070 H1087 0.930 . S
C1071 Gd1018 2.805 . S
C1071 O1053 1.263 . S
C1071 O1054 1.252 . S
C1071 C1065 1.500 . S
C1072 H1034 0.930 . S
C1072 C1048 1.417 . S
C1072 C1073 1.329 . S
C1073 C1043 1.437 . S
C1073 H1044 0.929 . S
C1073 C1072 1.329 . S
H1074 C1047 0.931 . S
C1075 O1057 1.265 . S
C1075 O1058 1.242 . S
C1076 O1061 1.261 . S
C1076 O1062 1.252 . S
C1077 C1080 1.394 . S
C1077 C1082 1.370 . S
C1077 C1083 1.500 1_556 S
C1078 C1081 1.383 . S
C1078 C1082 1.395 . S
C1079 C1080 1.396 . S
C1079 C1081 1.365 . S
C1079 H1088 0.929 . S
C1080 C1077 1.394 . S
C1080 C1079 1.396 . S
C1080 H1089 0.930 . S
C1081 C1078 1.383 . S
C1081 C1079 1.365 . S
C1081 H1090 0.931 . S
C1082 C1077 1.370 . S
C1082 C1078 1.395 . S
C1082 H1091 0.930 . S
C1083 Gd1019 2.805 . S
C1083 O1059 1.263 . S
C1083 O1060 1.252 . S
C1083 C1077 1.500 1_554 S
H1084 C1067 0.929 . S
H1085 C1068 0.930 . S
H1086 C1069 0.931 . S
H1087 C1070 0.930 . S
H1088 C1079 0.929 . S
H1089 C1080 0.930 . S
H1090 C1081 0.931 . S
H1091 C1082 0.930 . S
C1092 C1094 1.422 . S
C1092 C1096 1.415 . S
C1092 N1098 1.369 . S
C1093 C1094 1.421 . S
C1093 C1095 1.417 . S
C1093 C1105 1.422 . S
C1094 C1092 1.422 . S
C1094 C1093 1.421 . S
C1094 N1104 1.359 . S
C1095 C1093 1.417 . S
C1095 C1097 1.329 . S
C1095 H1114 0.930 . S
C1096 C1092 1.415 . S
C1096 C1097 1.437 . S
C1096 C1100 1.413 . S
C1097 C1095 1.329 . S
C1097 C1096 1.437 . S
C1097 H1119 0.929 . S
N1098 C1092 1.369 . S
N1098 C1099 1.338 . S
N1098 Gd1103 2.622 . S
C1099 N1098 1.338 . S
C1099 C1101 1.378 . S
C1099 H1111 0.929 . S
C1100 C1096 1.413 . S
C1100 C1101 1.348 . S
C1100 H1116 0.931 . S
C1101 C1099 1.378 . S
C1101 C1100 1.348 . S
C1101 H1117 0.930 . S
Gd1102 N1122 2.622 . S
Gd1102 N1129 2.570 . S
Gd1102 O1136 2.353 . S
Gd1102 O1137 2.468 . S
Gd1102 O1138 2.427 . S
Gd1102 O1140 2.388 . S
Gd1102 O1141 2.386 . S
Gd1102 O1145 2.307 . S
Gd1102 C1155 2.805 . S
Gd1103 N1098 2.622 . S
Gd1103 N1104 2.570 . S
Gd1103 O1135 2.386 . S
Gd1103 O1139 2.307 . S
Gd1103 O1142 2.353 . S
Gd1103 O1143 2.468 . S
Gd1103 O1144 2.427 . S
Gd1103 O1146 2.388 . S
Gd1103 C1167 2.805 . S
N1104 C1094 1.359 . S
N1104 Gd1103 2.570 . S
N1104 C1106 1.343 . S
C1105 C1093 1.422 . S
C1105 C1107 1.321 . S
C1105 H1113 0.931 . S
C1106 N1104 1.343 . S
C1106 C1107 1.390 . S
C1106 H1108 0.931 . S
C1107 C1105 1.321 . S
C1107 C1106 1.390 . S
C1107 H1109 0.930 . S
H1108 C1106 0.931 . S
H1109 C1107 0.930 . S
H1110 C1133 0.931 . S
H1111 C1099 0.929 . S
H1112 C1134 0.930 . S
H1113 C1105 0.931 . S
H1114 C1095 0.930 . S
H1115 C1124 0.929 . S
H1116 C1100 0.931 . S
H1117 C1101 0.930 . S
H1118 C1156 0.930 . S
H1119 C1097 0.929 . S
H1120 C1125 0.931 . S
H1121 C1126 0.930 . S
N1122 Gd1102 2.622 . S
N1122 C1123 1.369 . S
N1122 C1124 1.338 . S
C1123 N1122 1.369 . S
C1123 C1127 1.415 . S
C1123 C1130 1.422 . S
C1124 H1115 0.929 . S
C1124 N1122 1.338 . S
C1124 C1126 1.378 . S
C1125 H1120 0.931 . S
C1125 C1126 1.348 . S
C1125 C1127 1.413 . S
C1126 H1121 0.930 . S
C1126 C1124 1.378 . S
C1126 C1125 1.348 . S
C1127 C1123 1.415 . S
C1127 C1125 1.413 . S
C1127 C1157 1.437 . S
H1128 C1157 0.929 . S
N1129 Gd1102 2.570 . S
N1129 C1130 1.359 . S
N1129 C1133 1.343 . S
C1130 C1123 1.422 . S
C1130 N1129 1.359 . S
C1130 C1132 1.421 . S
C1131 C1132 1.422 . S
C1131 C1134 1.321 . S
C1131 H1158 0.931 . S
C1132 C1130 1.421 . S
C1132 C1131 1.422 . S
C1132 C1156 1.417 . S
C1133 H1110 0.931 . S
C1133 N1129 1.343 . S
C1133 C1134 1.390 . S
C1134 H1112 0.930 . S
C1134 C1131 1.321 . S
C1134 C1133 1.390 . S
O1135 Gd1103 2.386 . S
O1135 C1147 1.265 . S
O1136 Gd1102 2.353 . S
O1136 C1147 1.242 . S
O1137 Gd1102 2.468 . S
O1137 C1155 1.263 . S
O1138 Gd1102 2.427 . S
O1138 C1155 1.252 . S
O1139 Gd1103 2.307 . S
O1139 C1148 1.261 . S
O1140 Gd1102 2.388 . S
O1140 C1148 1.252 . S
O1141 Gd1102 2.386 . S
O1141 C1159 1.265 . S
O1142 Gd1103 2.353 . S
O1142 C1159 1.242 . S
O1143 Gd1103 2.468 . S
O1143 C1167 1.263 . S
O1144 Gd1103 2.427 . S
O1144 C1167 1.252 . S
O1145 Gd1102 2.307 . S
O1145 C1160 1.261 . S
O1146 Gd1103 2.388 . S
O1146 C1160 1.252 . S
C1147 O1135 1.265 . S
C1147 O1136 1.242 . S
C1148 O1139 1.261 . S
C1148 O1140 1.252 . S
C1149 C1152 1.394 . S
C1149 C1154 1.370 . S
C1149 C1155 1.500 . S
C1150 C1153 1.383 . S
C1150 C1154 1.395 . S
C1151 C1152 1.396 . S
C1151 C1153 1.365 . S
C1151 H1168 0.929 . S
C1152 C1149 1.394 . S
C1152 C1151 1.396 . S
C1152 H1169 0.930 . S
C1153 C1150 1.383 . S
C1153 C1151 1.365 . S
C1153 H1170 0.931 . S
C1154 C1149 1.370 . S
C1154 C1150 1.395 . S
C1154 H1171 0.930 . S
C1155 Gd1102 2.805 . S
C1155 O1137 1.263 . S
C1155 O1138 1.252 . S
C1155 C1149 1.500 . S
C1156 H1118 0.930 . S
C1156 C1132 1.417 . S
C1156 C1157 1.329 . S
C1157 C1127 1.437 . S
C1157 H1128 0.929 . S
C1157 C1156 1.329 . S
H1158 C1131 0.931 . S
C1159 O1141 1.265 . S
C1159 O1142 1.242 . S
C1160 O1145 1.261 . S
C1160 O1146 1.252 . S
C1161 C1164 1.394 . S
C1161 C1166 1.370 . S
C1161 C1167 1.500 . S
C1162 C1165 1.383 . S
C1162 C1166 1.395 . S
C1163 C1164 1.396 . S
C1163 C1165 1.365 . S
C1163 H1172 0.929 . S
C1164 C1161 1.394 . S
C1164 C1163 1.396 . S
C1164 H1173 0.930 . S
C1165 C1162 1.383 . S
C1165 C1163 1.365 . S
C1165 H1174 0.931 . S
C1166 C1161 1.370 . S
C1166 C1162 1.395 . S
C1166 H1175 0.930 . S
C1167 Gd1103 2.805 . S
C1167 O1143 1.263 . S
C1167 O1144 1.252 . S
C1167 C1161 1.500 . S
H1168 C1151 0.929 . S
H1169 C1152 0.930 . S
H1170 C1153 0.931 . S
H1171 C1154 0.930 . S
H1172 C1163 0.929 . S
H1173 C1164 0.930 . S
H1174 C1165 0.931 . S
H1175 C1166 0.930 . S
C1176 C1178 1.422 . S
C1176 C1180 1.415 . S
C1176 N1182 1.369 . S
C1177 C1178 1.421 . S
C1177 C1179 1.417 . S
C1177 C1189 1.422 . S
C1178 C1176 1.422 . S
C1178 C1177 1.421 . S
C1178 N1188 1.359 . S
C1179 C1177 1.417 . S
C1179 C1181 1.329 . S
C1179 H1198 0.930 . S
C1180 C1176 1.415 . S
C1180 C1181 1.437 . S
C1180 C1184 1.413 . S
C1181 C1179 1.329 . S
C1181 C1180 1.437 . S
C1181 H1203 0.929 . S
N1182 C1176 1.369 . S
N1182 C1183 1.338 . S
N1182 Gd1187 2.622 . S
C1183 N1182 1.338 . S
C1183 C1185 1.378 . S
C1183 H1195 0.929 . S
C1184 C1180 1.413 . S
C1184 C1185 1.348 . S
C1184 H1200 0.931 . S
C1185 C1183 1.378 . S
C1185 C1184 1.348 . S
C1185 H1201 0.930 . S
Gd1186 N1206 2.622 1_455 S
Gd1186 N1213 2.570 1_455 S
Gd1186 O1220 2.353 . S
Gd1186 O1221 2.468 . S
Gd1186 O1222 2.427 . S
Gd1186 O1224 2.388 . S
Gd1186 O1225 2.386 1_455 S
Gd1186 O1229 2.307 . S
Gd1186 C1239 2.805 . S
Gd1187 N1182 2.622 . S
Gd1187 N1188 2.570 . S
Gd1187 O1219 2.386 . S
Gd1187 O1223 2.307 . S
Gd1187 O1226 2.353 1_455 S
Gd1187 O1227 2.468 . S
Gd1187 O1228 2.427 . S
Gd1187 O1230 2.388 . S
Gd1187 C1251 2.805 . S
N1188 C1178 1.359 . S
N1188 Gd1187 2.570 . S
N1188 C1190 1.343 . S
C1189 C1177 1.422 . S
C1189 C1191 1.321 . S
C1189 H1197 0.931 . S
C1190 N1188 1.343 . S
C1190 C1191 1.390 . S
C1190 H1192 0.931 . S
C1191 C1189 1.321 . S
C1191 C1190 1.390 . S
C1191 H1193 0.930 . S
H1192 C1190 0.931 . S
H1193 C1191 0.930 . S
H1194 C1217 0.931 1_455 S
H1195 C1183 0.929 . S
H1196 C1218 0.930 . S
H1197 C1189 0.931 . S
H1198 C1179 0.930 . S
H1199 C1208 0.954 . S
H1200 C1184 0.931 . S
H1201 C1185 0.930 . S
H1202 C1240 0.930 . S
H1203 C1181 0.929 . S
H1204 C1209 0.931 . S
H1205 C1210 0.930 . S
N1206 Gd1186 2.622 1_655 S
N1206 C1207 1.369 . S
N1206 C1208 1.345 1_655 S
C1207 N1206 1.369 . S
C1207 C1211 1.415 . S
C1207 C1214 1.422 . S
C1208 H1199 0.954 . S
C1208 N1206 1.345 1_455 S
C1208 C1210 1.347 1_455 S
C1209 H1204 0.931 . S
C1209 C1210 1.348 . S
C1209 C1211 1.413 . S
C1210 H1205 0.930 . S
C1210 C1208 1.347 1_655 S
C1210 C1209 1.348 . S
C1211 C1207 1.415 . S
C1211 C1209 1.413 . S
C1211 C1241 1.437 . S
H1212 C1241 0.929 . S
N1213 Gd1186 2.570 1_655 S
N1213 C1214 1.359 . S
N1213 C1217 1.343 . S
C1214 C1207 1.422 . S
C1214 N1213 1.359 . S
C1214 C1216 1.421 . S
C1215 C1216 1.422 . S
C1215 C1218 1.321 . S
C1215 H1242 0.931 . S
C1216 C1214 1.421 . S
C1216 C1215 1.422 . S
C1216 C1240 1.417 . S
C1217 H1194 0.931 1_655 S
C1217 N1213 1.343 . S
C1217 C1218 1.390 . S
C1218 H1196 0.930 . S
C1218 C1215 1.321 . S
C1218 C1217 1.390 . S
O1219 Gd1187 2.386 . S
O1219 C1231 1.265 . S
O1220 Gd1186 2.353 . S
O1220 C1231 1.242 . S
O1221 Gd1186 2.468 . S
O1221 C1239 1.263 . S
O1222 Gd1186 2.427 . S
O1222 C1239 1.252 . S
O1223 Gd1187 2.307 . S
O1223 C1232 1.261 . S
O1224 Gd1186 2.388 . S
O1224 C1232 1.252 . S
O1225 Gd1186 2.386 1_655 S
O1225 C1243 1.265 . S
O1226 Gd1187 2.353 1_655 S
O1226 C1243 1.242 . S
O1227 Gd1187 2.468 . S
O1227 C1251 1.263 . S
O1228 Gd1187 2.427 . S
O1228 C1251 1.252 . S
O1229 Gd1186 2.307 . S
O1229 C1244 1.261 . S
O1230 Gd1187 2.388 . S
O1230 C1244 1.252 . S
C1231 O1219 1.265 . S
C1231 O1220 1.242 . S
C1232 O1223 1.261 . S
C1232 O1224 1.252 . S
C1233 C1236 1.394 . S
C1233 C1238 1.370 . S
C1233 C1239 1.500 . S
C1234 C1237 1.383 . S
C1234 C1238 1.395 . S
C1235 C1236 1.396 . S
C1235 C1237 1.365 . S
C1235 H1252 0.929 . S
C1236 C1233 1.394 . S
C1236 C1235 1.396 . S
C1236 H1253 0.930 . S
C1237 C1234 1.383 . S
C1237 C1235 1.365 . S
C1237 H1254 0.931 . S
C1238 C1233 1.370 . S
C1238 C1234 1.395 . S
C1238 H1255 0.930 . S
C1239 Gd1186 2.805 . S
C1239 O1221 1.263 . S
C1239 O1222 1.252 . S
C1239 C1233 1.500 . S
C1240 H1202 0.930 . S
C1240 C1216 1.417 . S
C1240 C1241 1.329 . S
C1241 C1211 1.437 . S
C1241 H1212 0.929 . S
C1241 C1240 1.329 . S
H1242 C1215 0.931 . S
C1243 O1225 1.265 . S
C1243 O1226 1.242 . S
C1244 O1229 1.261 . S
C1244 O1230 1.252 . S
C1245 C1248 1.394 . S
C1245 C1250 1.370 . S
C1245 C1251 1.500 1_655 S
C1246 C1249 1.383 . S
C1246 C1250 1.395 . S
C1247 C1248 1.396 . S
C1247 C1249 1.365 . S
C1247 H1256 0.929 . S
C1248 C1245 1.394 . S
C1248 C1247 1.396 . S
C1248 H1257 0.930 . S
C1249 C1246 1.383 . S
C1249 C1247 1.365 . S
C1249 H1258 0.931 . S
C1250 C1245 1.370 . S
C1250 C1246 1.395 . S
C1250 H1259 0.930 . S
C1251 Gd1187 2.805 . S
C1251 O1227 1.263 . S
C1251 O1228 1.252 . S
C1251 C1245 1.500 1_455 S
H1252 C1235 0.929 . S
H1253 C1236 0.930 . S
H1254 C1237 0.931 . S
H1255 C1238 0.930 . S
H1256 C1247 0.929 . S
H1257 C1248 0.930 . S
H1258 C1249 0.931 . S
H1259 C1250 0.930 . S
C1260 C1262 1.422 . S
C1260 C1264 1.415 . S
C1260 N1266 1.369 . S
C1261 C1262 1.421 . S
C1261 C1263 1.417 . S
C1261 C1273 1.422 . S
C1262 C1260 1.422 . S
C1262 C1261 1.421 . S
C1262 N1272 1.359 . S
C1263 C1261 1.417 . S
C1263 C1265 1.329 . S
C1263 H1282 0.930 . S
C1264 C1260 1.415 . S
C1264 C1265 1.437 . S
C1264 C1268 1.413 . S
C1265 C1263 1.329 . S
C1265 C1264 1.437 . S
C1265 H1287 0.929 . S
N1266 C1260 1.369 . S
N1266 C1267 1.338 . S
N1266 Gd1271 2.622 . S
C1267 N1266 1.338 . S
C1267 C1269 1.378 . S
C1267 H1279 0.929 . S
C1268 C1264 1.413 . S
C1268 C1269 1.348 . S
C1268 H1284 0.931 . S
C1269 C1267 1.378 . S
C1269 C1268 1.348 . S
C1269 H1285 0.930 . S
Gd1270 N1290 2.622 . S
Gd1270 N1297 2.570 . S
Gd1270 O1304 2.353 . S
Gd1270 O1305 2.468 . S
Gd1270 O1306 2.427 . S
Gd1270 O1308 2.388 . S
Gd1270 O1309 2.386 . S
Gd1270 O1313 2.307 . S
Gd1270 C1323 2.805 . S
Gd1271 N1266 2.622 . S
Gd1271 N1272 2.570 . S
Gd1271 O1303 2.386 . S
Gd1271 O1307 2.307 . S
Gd1271 O1310 2.353 . S
Gd1271 O1311 2.468 . S
Gd1271 O1312 2.427 . S
Gd1271 O1314 2.388 . S
Gd1271 C1335 2.805 . S
N1272 C1262 1.359 . S
N1272 Gd1271 2.570 . S
N1272 C1274 1.343 . S
C1273 C1261 1.422 . S
C1273 C1275 1.321 . S
C1273 H1281 0.931 . S
C1274 N1272 1.343 . S
C1274 C1275 1.390 . S
C1274 H1276 0.931 . S
C1275 C1273 1.321 . S
C1275 C1274 1.390 . S
C1275 H1277 0.930 . S
H1276 C1274 0.931 . S
H1277 C1275 0.930 . S
H1278 C1301 0.931 . S
H1279 C1267 0.929 . S
H1280 C1302 0.930 . S
H1281 C1273 0.931 . S
H1282 C1263 0.930 . S
H1283 C1292 0.929 . S
H1284 C1268 0.931 . S
H1285 C1269 0.930 . S
H1286 C1324 0.930 . S
H1287 C1265 0.929 . S
H1288 C1293 0.931 . S
H1289 C1294 0.930 . S
N1290 Gd1270 2.622 . S
N1290 C1291 1.369 . S
N1290 C1292 1.338 . S
C1291 N1290 1.369 . S
C1291 C1295 1.415 . S
C1291 C1298 1.422 . S
C1292 H1283 0.929 . S
C1292 N1290 1.338 . S
C1292 C1294 1.378 . S
C1293 H1288 0.931 . S
C1293 C1294 1.348 . S
C1293 C1295 1.413 . S
C1294 H1289 0.930 . S
C1294 C1292 1.378 . S
C1294 C1293 1.348 . S
C1295 C1291 1.415 . S
C1295 C1293 1.413 . S
C1295 C1325 1.437 . S
H1296 C1325 0.929 . S
N1297 Gd1270 2.570 . S
N1297 C1298 1.359 . S
N1297 C1301 1.343 . S
C1298 C1291 1.422 . S
C1298 N1297 1.359 . S
C1298 C1300 1.421 . S
C1299 C1300 1.422 . S
C1299 C1302 1.321 . S
C1299 H1326 0.931 . S
C1300 C1298 1.421 . S
C1300 C1299 1.422 . S
C1300 C1324 1.417 . S
C1301 H1278 0.931 . S
C1301 N1297 1.343 . S
C1301 C1302 1.390 . S
C1302 H1280 0.930 . S
C1302 C1299 1.321 . S
C1302 C1301 1.390 . S
O1303 Gd1271 2.386 . S
O1303 C1315 1.265 . S
O1304 Gd1270 2.353 . S
O1304 C1315 1.242 . S
O1305 Gd1270 2.468 . S
O1305 C1323 1.263 . S
O1306 Gd1270 2.427 . S
O1306 C1323 1.252 . S
O1307 Gd1271 2.307 . S
O1307 C1316 1.261 . S
O1308 Gd1270 2.388 . S
O1308 C1316 1.252 . S
O1309 Gd1270 2.386 . S
O1309 C1327 1.265 . S
O1310 Gd1271 2.353 . S
O1310 C1327 1.242 . S
O1311 Gd1271 2.468 . S
O1311 C1335 1.263 . S
O1312 Gd1271 2.427 . S
O1312 C1335 1.252 . S
O1313 Gd1270 2.307 . S
O1313 C1328 1.261 . S
O1314 Gd1271 2.388 . S
O1314 C1328 1.252 . S
C1315 O1303 1.265 . S
C1315 O1304 1.242 . S
C1316 O1307 1.261 . S
C1316 O1308 1.252 . S
C1317 C1320 1.394 . S
C1317 C1322 1.370 . S
C1317 C1323 1.500 . S
C1318 C1321 1.383 . S
C1318 C1322 1.395 . S
C1319 C1320 1.396 . S
C1319 C1321 1.365 . S
C1319 H1336 0.929 . S
C1320 C1317 1.394 . S
C1320 C1319 1.396 . S
C1320 H1337 0.930 . S
C1321 C1318 1.383 . S
C1321 C1319 1.365 . S
C1321 H1338 0.931 . S
C1322 C1317 1.370 . S
C1322 C1318 1.395 . S
C1322 H1339 0.930 . S
C1323 Gd1270 2.805 . S
C1323 O1305 1.263 . S
C1323 O1306 1.252 . S
C1323 C1317 1.500 . S
C1324 H1286 0.930 . S
C1324 C1300 1.417 . S
C1324 C1325 1.329 . S
C1325 C1295 1.437 . S
C1325 H1296 0.929 . S
C1325 C1324 1.329 . S
H1326 C1299 0.931 . S
C1327 O1309 1.265 . S
C1327 O1310 1.242 . S
C1328 O1313 1.261 . S
C1328 O1314 1.252 . S
C1329 C1332 1.394 . S
C1329 C1334 1.370 . S
C1329 C1335 1.500 . S
C1330 C1333 1.383 . S
C1330 C1334 1.395 . S
C1331 C1332 1.396 . S
C1331 C1333 1.365 . S
C1331 H1340 0.929 . S
C1332 C1329 1.394 . S
C1332 C1331 1.396 . S
C1332 H1341 0.930 . S
C1333 C1330 1.383 . S
C1333 C1331 1.365 . S
C1333 H1342 0.931 . S
C1334 C1329 1.370 . S
C1334 C1330 1.395 . S
C1334 H1343 0.930 . S
C1335 Gd1271 2.805 . S
C1335 O1311 1.263 . S
C1335 O1312 1.252 . S
C1335 C1329 1.500 . S
H1336 C1319 0.929 . S
H1337 C1320 0.930 . S
H1338 C1321 0.931 . S
H1339 C1322 0.930 . S
H1340 C1331 0.929 . S
H1341 C1332 0.930 . S
H1342 C1333 0.931 . S
H1343 C1334 0.930 . S
C1344 C1346 1.422 . S
C1344 C1348 1.415 . S
C1344 N1350 1.369 . S
C1345 C1346 1.421 . S
C1345 C1347 1.417 . S
C1345 C1357 1.422 . S
C1346 C1344 1.422 . S
C1346 C1345 1.421 . S
C1346 N1356 1.359 . S
C1347 C1345 1.417 . S
C1347 C1349 1.329 . S
C1347 H1366 0.930 . S
C1348 C1344 1.415 . S
C1348 C1349 1.437 . S
C1348 C1352 1.413 . S
C1349 C1347 1.329 . S
C1349 C1348 1.437 . S
C1349 H1371 0.929 . S
N1350 C1344 1.369 . S
N1350 C1351 1.338 . S
N1350 Gd1355 2.622 . S
C1351 N1350 1.338 . S
C1351 C1353 1.378 . S
C1351 H1363 0.929 . S
C1352 C1348 1.413 . S
C1352 C1353 1.348 . S
C1352 H1368 0.931 . S
C1353 C1351 1.378 . S
C1353 C1352 1.348 . S
C1353 H1369 0.930 . S
Gd1354 N1374 2.622 . S
Gd1354 N1381 2.570 . S
Gd1354 O1388 2.353 . S
Gd1354 O1389 2.468 . S
Gd1354 O1390 2.427 . S
Gd1354 O1392 2.388 . S
Gd1354 O1393 2.386 . S
Gd1354 O1397 2.307 . S
Gd1354 C1407 2.805 . S
Gd1355 N1350 2.622 . S
Gd1355 N1356 2.570 . S
Gd1355 O1387 2.386 . S
Gd1355 O1391 2.307 . S
Gd1355 O1394 2.353 . S
Gd1355 O1395 2.468 . S
Gd1355 O1396 2.427 . S
Gd1355 O1398 2.388 . S
Gd1355 C1419 2.805 . S
N1356 C1346 1.359 . S
N1356 Gd1355 2.570 . S
N1356 C1358 1.343 . S
C1357 C1345 1.422 . S
C1357 C1359 1.321 . S
C1357 H1365 0.931 . S
C1358 N1356 1.343 . S
C1358 C1359 1.390 . S
C1358 H1360 0.931 . S
C1359 C1357 1.321 . S
C1359 C1358 1.390 . S
C1359 H1361 0.930 . S
H1360 C1358 0.931 . S
H1361 C1359 0.930 . S
H1362 C1385 0.931 . S
H1363 C1351 0.929 . S
H1364 C1386 0.930 . S
H1365 C1357 0.931 . S
H1366 C1347 0.930 . S
H1367 C1376 0.929 . S
H1368 C1352 0.931 . S
H1369 C1353 0.930 . S
H1370 C1408 0.930 . S
H1371 C1349 0.929 . S
H1372 C1377 0.931 . S
H1373 C1378 0.930 . S
N1374 Gd1354 2.622 . S
N1374 C1375 1.369 . S
N1374 C1376 1.338 . S
C1375 N1374 1.369 . S
C1375 C1379 1.415 . S
C1375 C1382 1.422 . S
C1376 H1367 0.929 . S
C1376 N1374 1.338 . S
C1376 C1378 1.378 . S
C1377 H1372 0.931 . S
C1377 C1378 1.348 . S
C1377 C1379 1.413 . S
C1378 H1373 0.930 . S
C1378 C1376 1.378 . S
C1378 C1377 1.348 . S
C1379 C1375 1.415 . S
C1379 C1377 1.413 . S
C1379 C1409 1.437 . S
H1380 C1409 0.929 . S
N1381 Gd1354 2.570 . S
N1381 C1382 1.359 . S
N1381 C1385 1.343 . S
C1382 C1375 1.422 . S
C1382 N1381 1.359 . S
C1382 C1384 1.421 . S
C1383 C1384 1.422 . S
C1383 C1386 1.321 . S
C1383 H1410 0.931 . S
C1384 C1382 1.421 . S
C1384 C1383 1.422 . S
C1384 C1408 1.417 . S
C1385 H1362 0.931 . S
C1385 N1381 1.343 . S
C1385 C1386 1.390 . S
C1386 H1364 0.930 . S
C1386 C1383 1.321 . S
C1386 C1385 1.390 . S
O1387 Gd1355 2.386 . S
O1387 C1399 1.265 . S
O1388 Gd1354 2.353 . S
O1388 C1399 1.242 . S
O1389 Gd1354 2.468 . S
O1389 C1407 1.263 . S
O1390 Gd1354 2.427 . S
O1390 C1407 1.252 . S
O1391 Gd1355 2.307 . S
O1391 C1400 1.261 . S
O1392 Gd1354 2.388 . S
O1392 C1400 1.252 . S
O1393 Gd1354 2.386 . S
O1393 C1411 1.265 . S
O1394 Gd1355 2.353 . S
O1394 C1411 1.242 . S
O1395 Gd1355 2.468 . S
O1395 C1419 1.263 . S
O1396 Gd1355 2.427 . S
O1396 C1419 1.252 . S
O1397 Gd1354 2.307 . S
O1397 C1412 1.261 . S
O1398 Gd1355 2.388 . S
O1398 C1412 1.252 . S
C1399 O1387 1.265 . S
C1399 O1388 1.242 . S
C1400 O1391 1.261 . S
C1400 O1392 1.252 . S
C1401 C1404 1.394 . S
C1401 C1406 1.370 . S
C1401 C1407 1.500 . S
C1402 C1405 1.383 . S
C1402 C1406 1.395 . S
C1403 C1404 1.396 . S
C1403 C1405 1.365 . S
C1403 H1420 0.929 . S
C1404 C1401 1.394 . S
C1404 C1403 1.396 . S
C1404 H1421 0.930 . S
C1405 C1402 1.383 . S
C1405 C1403 1.365 . S
C1405 H1422 0.931 . S
C1406 C1401 1.370 . S
C1406 C1402 1.395 . S
C1406 H1423 0.930 . S
C1407 Gd1354 2.805 . S
C1407 O1389 1.263 . S
C1407 O1390 1.252 . S
C1407 C1401 1.500 . S
C1408 H1370 0.930 . S
C1408 C1384 1.417 . S
C1408 C1409 1.329 . S
C1409 C1379 1.437 . S
C1409 H1380 0.929 . S
C1409 C1408 1.329 . S
H1410 C1383 0.931 . S
C1411 O1393 1.265 . S
C1411 O1394 1.242 . S
C1412 O1397 1.261 . S
C1412 O1398 1.252 . S
C1413 C1416 1.394 . S
C1413 C1418 1.370 . S
C1413 C1419 1.500 . S
C1414 C1417 1.383 . S
C1414 C1418 1.395 . S
C1415 C1416 1.396 . S
C1415 C1417 1.365 . S
C1415 H1424 0.929 . S
C1416 C1413 1.394 . S
C1416 C1415 1.396 . S
C1416 H1425 0.930 . S
C1417 C1414 1.383 . S
C1417 C1415 1.365 . S
C1417 H1426 0.931 . S
C1418 C1413 1.370 . S
C1418 C1414 1.395 . S
C1418 H1427 0.930 . S
C1419 Gd1355 2.805 . S
C1419 O1395 1.263 . S
C1419 O1396 1.252 . S
C1419 C1413 1.500 . S
H1420 C1403 0.929 . S
H1421 C1404 0.930 . S
H1422 C1405 0.931 . S
H1423 C1406 0.930 . S
H1424 C1415 0.929 . S
H1425 C1416 0.930 . S
H1426 C1417 0.931 . S
H1427 C1418 0.930 . S
C1428 C1430 1.422 . S
C1428 C1432 1.415 . S
C1428 N1434 1.369 . S
C1429 C1430 1.421 . S
C1429 C1431 1.417 . S
C1429 C1441 1.422 . S
C1430 C1428 1.422 . S
C1430 C1429 1.421 . S
C1430 N1440 1.359 . S
C1431 C1429 1.417 . S
C1431 C1433 1.329 . S
C1431 H1450 0.930 . S
C1432 C1428 1.415 . S
C1432 C1433 1.437 . S
C1432 C1436 1.413 . S
C1433 C1431 1.329 . S
C1433 C1432 1.437 . S
C1433 H1455 0.929 . S
N1434 C1428 1.369 . S
N1434 C1435 1.338 . S
N1434 Gd1439 2.622 . S
C1435 N1434 1.338 . S
C1435 C1437 1.378 . S
C1435 H1447 0.929 . S
C1436 C1432 1.413 . S
C1436 C1437 1.348 . S
C1436 H1452 0.931 . S
C1437 C1435 1.378 . S
C1437 C1436 1.348 . S
C1437 H1453 0.930 . S
Gd1438 N1458 2.622 . S
Gd1438 N1465 2.570 . S
Gd1438 O1472 2.353 . S
Gd1438 O1473 2.468 . S
Gd1438 O1474 2.427 . S
Gd1438 O1476 2.388 . S
Gd1438 O1477 2.386 . S
Gd1438 O1481 2.307 . S
Gd1438 C1491 2.805 . S
Gd1439 N1434 2.622 . S
Gd1439 N1440 2.570 . S
Gd1439 O1471 2.386 . S
Gd1439 O1475 2.307 . S
Gd1439 O1478 2.353 . S
Gd1439 O1479 2.468 . S
Gd1439 O1480 2.427 . S
Gd1439 O1482 2.388 . S
Gd1439 C1503 2.805 . S
N1440 C1430 1.359 . S
N1440 Gd1439 2.570 . S
N1440 C1442 1.343 . S
C1441 C1429 1.422 . S
C1441 C1443 1.321 . S
C1441 H1449 0.931 . S
C1442 N1440 1.343 . S
C1442 C1443 1.390 . S
C1442 H1444 0.931 . S
C1443 C1441 1.321 . S
C1443 C1442 1.390 . S
C1443 H1445 0.930 . S
H1444 C1442 0.931 . S
H1445 C1443 0.930 . S
H1446 C1469 0.931 . S
H1447 C1435 0.929 . S
H1448 C1470 0.930 . S
H1449 C1441 0.931 . S
H1450 C1431 0.930 . S
H1451 C1460 0.929 . S
H1452 C1436 0.931 . S
H1453 C1437 0.930 . S
H1454 C1492 0.930 . S
H1455 C1433 0.929 . S
H1456 C1461 0.931 . S
H1457 C1462 0.930 . S
N1458 Gd1438 2.622 . S
N1458 C1459 1.369 . S
N1458 C1460 1.338 . S
C1459 N1458 1.369 . S
C1459 C1463 1.415 . S
C1459 C1466 1.422 . S
C1460 H1451 0.929 . S
C1460 N1458 1.338 . S
C1460 C1462 1.378 . S
C1461 H1456 0.931 . S
C1461 C1462 1.348 . S
C1461 C1463 1.413 . S
C1462 H1457 0.930 . S
C1462 C1460 1.378 . S
C1462 C1461 1.348 . S
C1463 C1459 1.415 . S
C1463 C1461 1.413 . S
C1463 C1493 1.437 . S
H1464 C1493 0.929 . S
N1465 Gd1438 2.570 . S
N1465 C1466 1.359 . S
N1465 C1469 1.343 . S
C1466 C1459 1.422 . S
C1466 N1465 1.359 . S
C1466 C1468 1.421 . S
C1467 C1468 1.422 . S
C1467 C1470 1.321 . S
C1467 H1494 0.931 . S
C1468 C1466 1.421 . S
C1468 C1467 1.422 . S
C1468 C1492 1.417 . S
C1469 H1446 0.931 . S
C1469 N1465 1.343 . S
C1469 C1470 1.390 . S
C1470 H1448 0.930 . S
C1470 C1467 1.321 . S
C1470 C1469 1.390 . S
O1471 Gd1439 2.386 . S
O1471 C1483 1.265 . S
O1472 Gd1438 2.353 . S
O1472 C1483 1.242 . S
O1473 Gd1438 2.468 . S
O1473 C1491 1.263 . S
O1474 Gd1438 2.427 . S
O1474 C1491 1.252 . S
O1475 Gd1439 2.307 . S
O1475 C1484 1.261 . S
O1476 Gd1438 2.388 . S
O1476 C1484 1.252 . S
O1477 Gd1438 2.386 . S
O1477 C1495 1.265 . S
O1478 Gd1439 2.353 . S
O1478 C1495 1.242 . S
O1479 Gd1439 2.468 . S
O1479 C1503 1.263 . S
O1480 Gd1439 2.427 . S
O1480 C1503 1.252 . S
O1481 Gd1438 2.307 . S
O1481 C1496 1.261 . S
O1482 Gd1439 2.388 . S
O1482 C1496 1.252 . S
C1483 O1471 1.265 . S
C1483 O1472 1.242 . S
C1484 O1475 1.261 . S
C1484 O1476 1.252 . S
C1485 C1488 1.394 . S
C1485 C1490 1.370 . S
C1485 C1491 1.500 . S
C1486 C1489 1.383 . S
C1486 C1490 1.395 . S
C1487 C1488 1.396 . S
C1487 C1489 1.365 . S
C1487 H1504 0.929 . S
C1488 C1485 1.394 . S
C1488 C1487 1.396 . S
C1488 H1505 0.930 . S
C1489 C1486 1.383 . S
C1489 C1487 1.365 . S
C1489 H1506 0.931 . S
C1490 C1485 1.370 . S
C1490 C1486 1.395 . S
C1490 H1507 0.930 . S
C1491 Gd1438 2.805 . S
C1491 O1473 1.263 . S
C1491 O1474 1.252 . S
C1491 C1485 1.500 . S
C1492 H1454 0.930 . S
C1492 C1468 1.417 . S
C1492 C1493 1.329 . S
C1493 C1463 1.437 . S
C1493 H1464 0.929 . S
C1493 C1492 1.329 . S
H1494 C1467 0.931 . S
C1495 O1477 1.265 . S
C1495 O1478 1.242 . S
C1496 O1481 1.261 . S
C1496 O1482 1.252 . S
C1497 C1500 1.394 . S
C1497 C1502 1.370 . S
C1497 C1503 1.500 . S
C1498 C1501 1.383 . S
C1498 C1502 1.395 . S
C1499 C1500 1.396 . S
C1499 C1501 1.365 . S
C1499 H1508 0.929 . S
C1500 C1497 1.394 . S
C1500 C1499 1.396 . S
C1500 H1509 0.930 . S
C1501 C1498 1.383 . S
C1501 C1499 1.365 . S
C1501 H1510 0.931 . S
C1502 C1497 1.370 . S
C1502 C1498 1.395 . S
C1502 H1511 0.930 . S
C1503 Gd1439 2.805 . S
C1503 O1479 1.263 . S
C1503 O1480 1.252 . S
C1503 C1497 1.500 . S
H1504 C1487 0.929 . S
H1505 C1488 0.930 . S
H1506 C1489 0.931 . S
H1507 C1490 0.930 . S
H1508 C1499 0.929 . S
H1509 C1500 0.930 . S
H1510 C1501 0.931 . S
H1511 C1502 0.930 . S
C1512 C1514 1.422 . S
C1512 C1516 1.415 . S
C1512 N1518 1.369 . S
C1513 C1514 1.421 . S
C1513 C1515 1.417 . S
C1513 C1525 1.422 . S
C1514 C1512 1.422 . S
C1514 C1513 1.421 . S
C1514 N1524 1.359 . S
C1515 C1513 1.417 . S
C1515 C1517 1.329 . S
C1515 H1534 0.930 . S
C1516 C1512 1.415 . S
C1516 C1517 1.437 . S
C1516 C1520 1.413 . S
C1517 C1515 1.329 . S
C1517 C1516 1.437 . S
C1517 H1539 0.929 . S
N1518 C1512 1.369 . S
N1518 C1519 1.338 . S
N1518 Gd1523 2.622 . S
C1519 N1518 1.338 . S
C1519 C1521 1.378 . S
C1519 H1531 0.929 . S
C1520 C1516 1.413 . S
C1520 C1521 1.348 . S
C1520 H1536 0.931 . S
C1521 C1519 1.378 . S
C1521 C1520 1.348 . S
C1521 H1537 0.930 . S
Gd1522 N1542 2.622 . S
Gd1522 N1549 2.570 . S
Gd1522 O1556 2.353 . S
Gd1522 O1557 2.468 . S
Gd1522 O1558 2.427 . S
Gd1522 O1560 2.388 . S
Gd1522 O1561 2.386 . S
Gd1522 O1565 2.307 . S
Gd1522 C1575 2.805 . S
Gd1523 N1518 2.622 . S
Gd1523 N1524 2.570 . S
Gd1523 O1555 2.386 . S
Gd1523 O1559 2.307 . S
Gd1523 O1562 2.353 . S
Gd1523 O1563 2.468 . S
Gd1523 O1564 2.427 . S
Gd1523 O1566 2.388 . S
Gd1523 C1587 2.805 . S
N1524 C1514 1.359 . S
N1524 Gd1523 2.570 . S
N1524 C1526 1.343 . S
C1525 C1513 1.422 . S
C1525 C1527 1.321 . S
C1525 H1533 0.931 . S
C1526 N1524 1.343 . S
C1526 C1527 1.390 . S
C1526 H1528 0.931 . S
C1527 C1525 1.321 . S
C1527 C1526 1.390 . S
C1527 H1529 0.930 . S
H1528 C1526 0.931 . S
H1529 C1527 0.930 . S
H1530 C1553 0.931 . S
H1531 C1519 0.929 . S
H1532 C1554 0.930 . S
H1533 C1525 0.931 . S
H1534 C1515 0.930 . S
H1535 C1544 0.929 . S
H1536 C1520 0.931 . S
H1537 C1521 0.930 . S
H1538 C1576 0.930 . S
H1539 C1517 0.929 . S
H1540 C1545 0.931 . S
H1541 C1546 0.930 . S
N1542 Gd1522 2.622 . S
N1542 C1543 1.369 . S
N1542 C1544 1.338 . S
C1543 N1542 1.369 . S
C1543 C1547 1.415 . S
C1543 C1550 1.422 . S
C1544 H1535 0.929 . S
C1544 N1542 1.338 . S
C1544 C1546 1.378 . S
C1545 H1540 0.931 . S
C1545 C1546 1.348 . S
C1545 C1547 1.413 . S
C1546 H1541 0.930 . S
C1546 C1544 1.378 . S
C1546 C1545 1.348 . S
C1547 C1543 1.415 . S
C1547 C1545 1.413 . S
C1547 C1577 1.437 . S
H1548 C1577 0.929 . S
N1549 Gd1522 2.570 . S
N1549 C1550 1.359 . S
N1549 C1553 1.343 . S
C1550 C1543 1.422 . S
C1550 N1549 1.359 . S
C1550 C1552 1.421 . S
C1551 C1552 1.422 . S
C1551 C1554 1.321 . S
C1551 H1578 0.931 . S
C1552 C1550 1.421 . S
C1552 C1551 1.422 . S
C1552 C1576 1.417 . S
C1553 H1530 0.931 . S
C1553 N1549 1.343 . S
C1553 C1554 1.390 . S
C1554 H1532 0.930 . S
C1554 C1551 1.321 . S
C1554 C1553 1.390 . S
O1555 Gd1523 2.386 . S
O1555 C1567 1.265 . S
O1556 Gd1522 2.353 . S
O1556 C1567 1.242 . S
O1557 Gd1522 2.468 . S
O1557 C1575 1.263 . S
O1558 Gd1522 2.427 . S
O1558 C1575 1.252 . S
O1559 Gd1523 2.307 . S
O1559 C1568 1.261 . S
O1560 Gd1522 2.388 . S
O1560 C1568 1.252 . S
O1561 Gd1522 2.386 . S
O1561 C1579 1.265 . S
O1562 Gd1523 2.353 . S
O1562 C1579 1.242 . S
O1563 Gd1523 2.468 . S
O1563 C1587 1.263 . S
O1564 Gd1523 2.427 . S
O1564 C1587 1.252 . S
O1565 Gd1522 2.307 . S
O1565 C1580 1.261 . S
O1566 Gd1523 2.388 . S
O1566 C1580 1.252 . S
C1567 O1555 1.265 . S
C1567 O1556 1.242 . S
C1568 O1559 1.261 . S
C1568 O1560 1.252 . S
C1569 C1572 1.394 . S
C1569 C1574 1.370 . S
C1569 C1575 1.500 . S
C1570 C1573 1.383 . S
C1570 C1574 1.395 . S
C1571 C1572 1.396 . S
C1571 C1573 1.365 . S
C1571 H1588 0.929 . S
C1572 C1569 1.394 . S
C1572 C1571 1.396 . S
C1572 H1589 0.930 . S
C1573 C1570 1.383 . S
C1573 C1571 1.365 . S
C1573 H1590 0.931 . S
C1574 C1569 1.370 . S
C1574 C1570 1.395 . S
C1574 H1591 0.930 . S
C1575 Gd1522 2.805 . S
C1575 O1557 1.263 . S
C1575 O1558 1.252 . S
C1575 C1569 1.500 . S
C1576 H1538 0.930 . S
C1576 C1552 1.417 . S
C1576 C1577 1.329 . S
C1577 C1547 1.437 . S
C1577 H1548 0.929 . S
C1577 C1576 1.329 . S
H1578 C1551 0.931 . S
C1579 O1561 1.265 . S
C1579 O1562 1.242 . S
C1580 O1565 1.261 . S
C1580 O1566 1.252 . S
C1581 C1584 1.394 . S
C1581 C1586 1.370 . S
C1581 C1587 1.500 . S
C1582 C1585 1.383 . S
C1582 C1586 1.395 . S
C1583 C1584 1.396 . S
C1583 C1585 1.365 . S
C1583 H1592 0.929 . S
C1584 C1581 1.394 . S
C1584 C1583 1.396 . S
C1584 H1593 0.930 . S
C1585 C1582 1.383 . S
C1585 C1583 1.365 . S
C1585 H1594 0.931 . S
C1586 C1581 1.370 . S
C1586 C1582 1.395 . S
C1586 H1595 0.930 . S
C1587 Gd1523 2.805 . S
C1587 O1563 1.263 . S
C1587 O1564 1.252 . S
C1587 C1581 1.500 . S
H1588 C1571 0.929 . S
H1589 C1572 0.930 . S
H1590 C1573 0.931 . S
H1591 C1574 0.930 . S
H1592 C1583 0.929 . S
H1593 C1584 0.930 . S
H1594 C1585 0.931 . S
H1595 C1586 0.930 . S
C1596 C1598 1.422 1_556 S
C1596 C1600 1.415 . S
C1596 N1602 1.369 . S
C1597 C1598 1.421 . S
C1597 C1599 1.417 1_554 S
C1597 C1609 1.422 . S
C1598 C1596 1.422 1_554 S
C1598 C1597 1.421 . S
C1598 N1608 1.359 . S
C1599 C1597 1.417 1_556 S
C1599 C1601 1.329 . S
C1599 H1618 0.930 1_556 S
C1600 C1596 1.415 . S
C1600 C1601 1.437 . S
C1600 C1604 1.413 . S
C1601 C1599 1.329 . S
C1601 C1600 1.437 . S
C1601 H1623 0.929 . S
N1602 C1596 1.369 . S
N1602 C1603 1.338 . S
N1602 Gd1607 2.622 1_556 S
C1603 N1602 1.338 . S
C1603 C1605 1.378 . S
C1603 H1615 0.929 . S
C1604 C1600 1.413 . S
C1604 C1605 1.348 . S
C1604 H1620 0.931 . S
C1605 C1603 1.378 . S
C1605 C1604 1.348 . S
C1605 H1621 0.930 . S
Gd1606 N1626 2.622 . S
Gd1606 N1633 2.570 . S
Gd1606 O1640 2.353 1_655 S
Gd1606 O1641 2.468 . S
Gd1606 O1642 2.427 . S
Gd1606 O1644 2.388 1_655 S
Gd1606 O1645 2.386 1_655 S
Gd1606 O1649 2.270 1_554 S
Gd1606 C1659 2.805 . S
Gd1607 N1602 2.622 1_554 S
Gd1607 N1608 2.570 . S
Gd1607 O1639 2.386 . S
Gd1607 O1643 2.307 . S
Gd1607 O1646 2.353 . S
Gd1607 O1647 2.468 . S
Gd1607 O1648 2.427 1_554 S
Gd1607 O1650 2.388 1_554 S
Gd1607 C1671 2.805 1_554 S
N1608 C1598 1.359 . S
N1608 Gd1607 2.570 . S
N1608 C1610 1.343 . S
C1609 C1597 1.422 . S
C1609 C1611 1.321 . S
C1609 H1617 0.931 . S
C1610 N1608 1.343 . S
C1610 C1611 1.390 . S
C1610 H1612 0.931 . S
C1611 C1609 1.321 . S
C1611 C1610 1.390 . S
C1611 H1613 0.930 . S
H1612 C1610 0.931 . S
H1613 C1611 0.930 . S
H1614 C1637 0.931 1_556 S
H1615 C1603 0.929 . S
H1616 C1638 0.930 . S
H1617 C1609 0.931 . S
H1618 C1599 0.930 1_554 S
H1619 C1628 0.929 1_455 S
H1620 C1604 0.931 . S
H1621 C1605 0.930 . S
H1622 C1660 0.930 . S
H1623 C1601 0.929 . S
H1624 C1629 0.931 . S
H1625 C1630 0.930 . S
N1626 Gd1606 2.622 . S
N1626 C1627 1.369 . S
N1626 C1628 1.338 . S
C1627 N1626 1.369 . S
C1627 C1631 1.415 . S
C1627 C1634 1.422 . S
C1628 H1619 0.929 1_655 S
C1628 N1626 1.338 . S
C1628 C1630 1.378 . S
C1629 H1624 0.931 . S
C1629 C1630 1.348 . S
C1629 C1631 1.413 . S
C1630 H1625 0.930 . S
C1630 C1628 1.378 . S
C1630 C1629 1.348 . S
C1631 C1627 1.415 . S
C1631 C1629 1.413 . S
C1631 C1661 1.437 . S
H1632 C1661 0.929 . S
N1633 Gd1606 2.570 . S
N1633 C1634 1.359 . S
N1633 C1637 1.343 . S
C1634 C1627 1.422 . S
C1634 N1633 1.359 . S
C1634 C1636 1.421 . S
C1635 C1636 1.422 . S
C1635 C1638 1.321 1_554 S
C1635 H1662 0.936 . S
C1636 C1634 1.421 . S
C1636 C1635 1.422 . S
C1636 C1660 1.417 . S
C1637 H1614 0.931 1_554 S
C1637 N1633 1.343 . S
C1637 C1638 1.390 1_554 S
C1638 H1616 0.930 . S
C1638 C1635 1.321 1_556 S
C1638 C1637 1.390 1_556 S
O1639 Gd1607 2.386 . S
O1639 C1651 1.265 . S
O1640 Gd1606 2.353 1_455 S
O1640 C1651 1.242 . S
O1641 Gd1606 2.468 . S
O1641 C1659 1.263 . S
O1642 Gd1606 2.427 . S
O1642 C1659 1.252 . S
O1643 Gd1607 2.307 . S
O1643 C1652 1.261 . S
O1644 Gd1606 2.388 1_455 S
O1644 C1652 1.252 . S
O1645 Gd1606 2.386 1_455 S
O1645 C1663 1.265 . S
O1646 Gd1607 2.353 . S
O1646 C1663 1.242 . S
O1647 Gd1607 2.468 . S
O1647 C1671 1.263 1_554 S
O1648 Gd1607 2.427 1_556 S
O1648 C1671 1.252 . S
O1649 Gd1606 2.270 1_556 S
O1649 C1664 1.293 1_655 S
O1650 Gd1607 2.388 1_556 S
O1650 C1664 1.252 . S
C1651 O1639 1.265 . S
C1651 O1640 1.242 . S
C1652 O1643 1.261 . S
C1652 O1644 1.252 . S
C1653 C1656 1.394 . S
C1653 C1658 1.370 . S
C1653 C1659 1.500 . S
C1654 C1657 1.383 . S
C1654 C1658 1.395 . S
C1655 C1656 1.396 . S
C1655 C1657 1.365 . S
C1655 H1672 0.929 . S
C1656 C1653 1.394 . S
C1656 C1655 1.396 . S
C1656 H1673 0.930 . S
C1657 C1654 1.383 . S
C1657 C1655 1.365 . S
C1657 H1674 0.931 . S
C1658 C1653 1.370 . S
C1658 C1654 1.395 . S
C1658 H1675 0.930 . S
C1659 Gd1606 2.805 . S
C1659 O1641 1.263 . S
C1659 O1642 1.252 . S
C1659 C1653 1.500 . S
C1660 H1622 0.930 . S
C1660 C1636 1.417 . S
C1660 C1661 1.329 . S
C1661 C1631 1.437 . S
C1661 H1632 0.929 . S
C1661 C1660 1.329 . S
H1662 C1635 0.936 . S
C1663 O1645 1.265 . S
C1663 O1646 1.242 . S
C1664 O1649 1.293 1_455 S
C1664 O1650 1.252 . S
C1665 C1668 1.394 . S
C1665 C1670 1.370 1_556 S
C1665 C1671 1.500 . S
C1666 C1669 1.383 1_554 S
C1666 C1670 1.395 . S
C1667 C1668 1.396 . S
C1667 C1669 1.365 . S
C1667 H1676 0.929 . S
C1668 C1665 1.394 . S
C1668 C1667 1.396 . S
C1668 H1677 0.930 . S
C1669 C1666 1.383 1_556 S
C1669 C1667 1.365 . S
C1669 H1678 0.931 . S
C1670 C1665 1.370 1_554 S
C1670 C1666 1.395 . S
C1670 H1679 0.930 . S
C1671 Gd1607 2.805 1_556 S
C1671 O1647 1.263 1_556 S
C1671 O1648 1.252 . S
C1671 C1665 1.500 . S
H1672 C1655 0.929 . S
H1673 C1656 0.930 . S
H1674 C1657 0.931 . S
H1675 C1658 0.930 . S
H1676 C1667 0.929 . S
H1677 C1668 0.930 . S
H1678 C1669 0.931 . S
H1679 C1670 0.930 . S
H1680 C1686 0.930 . S
H1681 C1690 0.930 . S
H1682 C1695 0.929 . S
H1683 C1693 0.929 . S
H1684 C1688 0.929 . S
H1685 C1694 0.929 . S
C1686 H1680 0.930 . S
C1686 C1687 1.367 1_455 S
C1686 C1694 1.378 . S
C1687 C1686 1.367 1_655 S
C1687 C1695 1.433 1_556 S
C1688 H1684 0.929 . S
C1688 C1690 1.378 . S
C1688 C1692 1.334 1_554 S
C1689 C1692 1.469 . S
C1689 C1694 1.350 . S
C1689 N1697 1.430 1_456 S
C1690 H1681 0.930 . S
C1690 C1688 1.378 . S
C1690 C1691 1.367 . S
C1691 C1690 1.367 . S
C1691 C1693 1.433 1_554 S
C1692 C1688 1.334 1_556 S
C1692 C1689 1.469 . S
C1692 N1696 1.438 . S
C1693 H1683 0.929 . S
C1693 C1691 1.433 1_556 S
C1693 N1696 1.384 . S
C1694 H1685 0.929 . S
C1694 C1686 1.378 . S
C1694 C1689 1.350 . S
C1695 H1682 0.929 . S
C1695 C1687 1.433 1_554 S
C1695 N1697 1.382 . S
N1696 C1692 1.438 . S
N1696 C1693 1.384 . S
N1697 C1689 1.430 1_654 S
N1697 C1695 1.382 . S
H1698 C1704 0.930 . S
H1699 C1708 0.930 . S
H1700 C1713 0.929 . S
H1701 C1711 0.929 . S
H1702 C1706 0.929 . S
H1703 C1712 0.929 . S
C1704 H1698 0.930 . S
C1704 C1705 1.367 . S
C1704 C1712 1.378 . S
C1705 C1704 1.367 . S
C1705 C1713 1.433 . S
C1706 H1702 0.929 . S
C1706 C1708 1.378 . S
C1706 C1710 1.350 . S
C1707 C1710 1.463 . S
C1707 C1712 1.350 . S
C1707 N1715 1.427 . S
C1708 H1699 0.930 . S
C1708 C1706 1.378 . S
C1708 C1709 1.367 . S
C1709 C1708 1.367 . S
C1709 C1711 1.433 . S
C1710 C1706 1.350 . S
C1710 C1707 1.463 . S
C1710 N1714 1.427 . S
C1711 H1701 0.929 . S
C1711 C1709 1.433 . S
C1711 N1714 1.384 . S
C1712 H1703 0.929 . S
C1712 C1704 1.378 . S
C1712 C1707 1.350 . S
C1713 H1700 0.929 . S
C1713 C1705 1.433 . S
C1713 N1715 1.384 . S
N1714 C1710 1.427 . S
N1714 C1711 1.384 . S
N1715 C1707 1.427 . S
N1715 C1713 1.384 . S
H1716 C1722 0.930 . S
H1717 C1726 0.930 . S
H1718 C1731 0.929 . S
H1719 C1729 0.929 . S
H1720 C1724 0.929 . S
H1721 C1730 0.929 . S
C1722 H1716 0.930 . S
C1722 C1723 1.367 . S
C1722 C1730 1.378 . S
C1723 C1722 1.367 . S
C1723 C1731 1.433 . S
C1724 H1720 0.929 . S
C1724 C1726 1.378 . S
C1724 C1728 1.350 . S
C1725 C1728 1.463 . S
C1725 C1730 1.350 . S
C1725 N1733 1.427 . S
C1726 H1717 0.930 . S
C1726 C1724 1.378 . S
C1726 C1727 1.367 . S
C1727 C1726 1.367 . S
C1727 C1729 1.433 . S
C1728 C1724 1.350 . S
C1728 C1725 1.463 . S
C1728 N1732 1.427 . S
C1729 H1719 0.929 . S
C1729 C1727 1.433 . S
C1729 N1732 1.384 . S
C1730 H1721 0.929 . S
C1730 C1722 1.378 . S
C1730 C1725 1.350 . S
C1731 H1718 0.929 . S
C1731 C1723 1.433 . S
C1731 N1733 1.384 . S
N1732 C1728 1.427 . S
N1732 C1729 1.384 . S
N1733 C1725 1.427 . S
N1733 C1731 1.384 . S
H1734 C1740 0.930 . S
H1735 C1744 0.930 . S
H1736 C1749 0.929 . S
H1737 C1747 0.929 . S
H1738 C1742 0.929 . S
H1739 C1748 0.929 . S
C1740 H1734 0.930 . S
C1740 C1741 1.367 . S
C1740 C1748 1.378 . S
C1741 C1740 1.367 . S
C1741 C1749 1.433 . S
C1742 H1738 0.929 . S
C1742 C1744 1.378 . S
C1742 C1746 1.350 . S
C1743 C1746 1.463 . S
C1743 C1748 1.350 . S
C1743 N1751 1.427 . S
C1744 H1735 0.930 . S
C1744 C1742 1.378 . S
C1744 C1745 1.367 . S
C1745 C1744 1.367 . S
C1745 C1747 1.433 . S
C1746 C1742 1.350 . S
C1746 C1743 1.463 . S
C1746 N1750 1.427 . S
C1747 H1737 0.929 . S
C1747 C1745 1.433 . S
C1747 N1750 1.384 . S
C1748 H1739 0.929 . S
C1748 C1740 1.378 . S
C1748 C1743 1.350 . S
C1749 H1736 0.929 . S
C1749 C1741 1.433 . S
C1749 N1751 1.384 . S
N1750 C1746 1.427 . S
N1750 C1747 1.384 . S
N1751 C1743 1.427 . S
N1751 C1749 1.384 . S
H1752 C1758 0.930 . S
H1753 C1762 0.930 . S
H1754 C1767 0.929 . S
H1755 C1765 0.929 . S
H1756 C1760 0.929 . S
H1757 C1766 0.929 . S
C1758 H1752 0.930 . S
C1758 C1759 1.367 . S
C1758 C1766 1.378 . S
C1759 C1758 1.367 . S
C1759 C1767 1.433 . S
C1760 H1756 0.929 . S
C1760 C1762 1.378 . S
C1760 C1764 1.350 . S
C1761 C1764 1.463 . S
C1761 C1766 1.350 . S
C1761 N1769 1.427 . S
C1762 H1753 0.930 . S
C1762 C1760 1.378 . S
C1762 C1763 1.367 . S
C1763 C1762 1.367 . S
C1763 C1765 1.433 . S
C1764 C1760 1.350 . S
C1764 C1761 1.463 . S
C1764 N1768 1.427 . S
C1765 H1755 0.929 . S
C1765 C1763 1.433 . S
C1765 N1768 1.384 . S
C1766 H1757 0.929 . S
C1766 C1758 1.378 . S
C1766 C1761 1.350 . S
C1767 H1754 0.929 . S
C1767 C1759 1.433 . S
C1767 N1769 1.384 . S
N1768 C1764 1.427 . S
N1768 C1765 1.384 . S
N1769 C1761 1.427 . S
N1769 C1767 1.384 . S
H1770 C1776 0.930 . S
H1771 C1780 0.930 . S
H1772 C1785 0.929 . S
H1773 C1783 0.929 . S
H1774 C1778 0.929 . S
H1775 C1784 0.929 . S
C1776 H1770 0.930 . S
C1776 C1777 1.367 . S
C1776 C1784 1.378 . S
C1777 C1776 1.367 . S
C1777 C1785 1.433 . S
C1778 H1774 0.929 . S
C1778 C1780 1.378 . S
C1778 C1782 1.350 . S
C1779 C1782 1.463 . S
C1779 C1784 1.350 . S
C1779 N1787 1.427 . S
C1780 H1771 0.930 . S
C1780 C1778 1.378 . S
C1780 C1781 1.367 . S
C1781 C1780 1.367 . S
C1781 C1783 1.433 . S
C1782 C1778 1.350 . S
C1782 C1779 1.463 . S
C1782 N1786 1.427 . S
C1783 H1773 0.929 . S
C1783 C1781 1.433 . S
C1783 N1786 1.384 . S
C1784 H1775 0.929 . S
C1784 C1776 1.378 . S
C1784 C1779 1.350 . S
C1785 H1772 0.929 . S
C1785 C1777 1.433 . S
C1785 N1787 1.384 . S
N1786 C1782 1.427 . S
N1786 C1783 1.384 . S
N1787 C1779 1.427 . S
N1787 C1785 1.384 . S
H1788 C1794 0.930 . S
H1789 C1798 0.930 . S
H1790 C1803 0.929 . S
H1791 C1801 0.929 . S
H1792 C1796 0.929 . S
H1793 C1802 0.929 . S
C1794 H1788 0.930 . S
C1794 C1795 1.367 . S
C1794 C1802 1.378 . S
C1795 C1794 1.367 . S
C1795 C1803 1.433 . S
C1796 H1792 0.929 . S
C1796 C1798 1.378 . S
C1796 C1800 1.350 . S
C1797 C1800 1.463 . S
C1797 C1802 1.350 . S
C1797 N1805 1.427 . S
C1798 H1789 0.930 . S
C1798 C1796 1.378 . S
C1798 C1799 1.367 . S
C1799 C1798 1.367 . S
C1799 C1801 1.433 . S
C1800 C1796 1.350 . S
C1800 C1797 1.463 . S
C1800 N1804 1.427 . S
C1801 H1791 0.929 . S
C1801 C1799 1.433 . S
C1801 N1804 1.384 . S
C1802 H1793 0.929 . S
C1802 C1794 1.378 . S
C1802 C1797 1.350 . S
C1803 H1790 0.929 . S
C1803 C1795 1.433 . S
C1803 N1805 1.384 . S
N1804 C1800 1.427 . S
N1804 C1801 1.384 . S
N1805 C1797 1.427 . S
N1805 C1803 1.384 . S
H1806 C1812 0.930 . S
H1807 C1816 0.930 . S
H1808 C1821 0.929 . S
H1809 C1819 0.929 . S
H1810 C1814 0.929 . S
H1811 C1820 0.929 . S
C1812 H1806 0.930 . S
C1812 C1813 1.367 . S
C1812 C1820 1.378 . S
C1813 C1812 1.367 . S
C1813 C1821 1.433 . S
C1814 H1810 0.929 . S
C1814 C1816 1.378 . S
C1814 C1818 1.350 . S
C1815 C1818 1.463 . S
C1815 C1820 1.350 . S
C1815 N1823 1.427 . S
C1816 H1807 0.930 . S
C1816 C1814 1.378 . S
C1816 C1817 1.367 . S
C1817 C1816 1.367 . S
C1817 C1819 1.433 . S
C1818 C1814 1.350 . S
C1818 C1815 1.463 . S
C1818 N1822 1.427 . S
C1819 H1809 0.929 . S
C1819 C1817 1.433 . S
C1819 N1822 1.384 . S
C1820 H1811 0.929 . S
C1820 C1812 1.378 . S
C1820 C1815 1.350 . S
C1821 H1808 0.929 . S
C1821 C1813 1.433 . S
C1821 N1823 1.384 . S
N1822 C1818 1.427 . S
N1822 C1819 1.384 . S
N1823 C1815 1.427 . S
N1823 C1821 1.384 . S
H1824 C1830 0.930 . S
H1825 C1834 0.930 . S
H1826 C1839 0.929 . S
H1827 C1837 0.929 1_565 S
H1828 C1832 0.929 . S
H1829 C1838 0.929 . S
C1830 H1824 0.930 . S
C1830 C1831 1.367 1_565 S
C1830 C1838 1.378 . S
C1831 C1830 1.367 1_545 S
C1831 C1839 1.433 . S
C1832 H1828 0.929 . S
C1832 C1834 1.378 1_655 S
C1832 C1836 1.350 . S
C1833 C1836 1.463 . S
C1833 C1838 1.350 1_545 S
C1833 N1841 1.427 . S
C1834 H1825 0.930 . S
C1834 C1832 1.378 1_455 S
C1834 C1835 1.367 . S
C1835 C1834 1.367 . S
C1835 C1837 1.433 1_455 S
C1836 C1832 1.350 . S
C1836 C1833 1.463 . S
C1836 N1840 1.427 . S
C1837 H1827 0.929 1_545 S
C1837 C1835 1.433 1_655 S
C1837 N1840 1.384 . S
C1838 H1829 0.929 . S
C1838 C1830 1.378 . S
C1838 C1833 1.350 1_565 S
C1839 H1826 0.929 . S
C1839 C1831 1.433 . S
C1839 N1841 1.384 . S
N1840 C1836 1.427 . S
N1840 C1837 1.384 . S
N1841 C1833 1.427 . S
N1841 C1839 1.384 . S
H1842 C1848 0.930 . S
H1843 C1852 0.930 . S
H1844 C1857 0.929 . S
H1845 C1855 0.929 . S
H1846 C1850 0.929 . S
H1847 C1856 0.929 . S
C1848 H1842 0.930 . S
C1848 C1849 1.367 . S
C1848 C1856 1.378 . S
C1849 C1848 1.367 . S
C1849 C1857 1.433 . S
C1850 H1846 0.929 . S
C1850 C1852 1.378 . S
C1850 C1854 1.350 . S
C1851 C1854 1.463 . S
C1851 C1856 1.350 . S
C1851 N1859 1.427 . S
C1852 H1843 0.930 . S
C1852 C1850 1.378 . S
C1852 C1853 1.367 . S
C1853 C1852 1.367 . S
C1853 C1855 1.433 . S
C1854 C1850 1.350 . S
C1854 C1851 1.463 . S
C1854 N1858 1.427 . S
C1855 H1845 0.929 . S
C1855 C1853 1.433 . S
C1855 N1858 1.384 . S
C1856 H1847 0.929 . S
C1856 C1848 1.378 . S
C1856 C1851 1.350 . S
C1857 H1844 0.929 . S
C1857 C1849 1.433 . S
C1857 N1859 1.384 . S
N1858 C1854 1.427 . S
N1858 C1855 1.384 . S
N1859 C1851 1.427 . S
N1859 C1857 1.384 . S
H1860 C1866 0.930 . S
H1861 C1870 0.930 . S
H1862 C1875 0.929 . S
H1863 C1873 0.929 1_565 S
H1864 C1868 0.929 . S
H1865 C1874 0.929 . S
C1866 H1860 0.930 . S
C1866 C1867 1.367 . S
C1866 C1874 1.378 . S
C1867 C1866 1.367 . S
C1867 C1875 1.433 . S
C1868 H1864 0.929 . S
C1868 C1870 1.378 . S
C1868 C1872 1.350 . S
C1869 C1872 1.463 . S
C1869 C1874 1.350 . S
C1869 N1877 1.427 . S
C1870 H1861 0.930 . S
C1870 C1868 1.378 . S
C1870 C1871 1.367 . S
C1871 C1870 1.367 . S
C1871 C1873 1.433 . S
C1872 C1868 1.350 . S
C1872 C1869 1.463 . S
C1872 N1876 1.427 . S
C1873 H1863 0.929 1_545 S
C1873 C1871 1.433 . S
C1873 N1876 1.384 . S
C1874 H1865 0.929 . S
C1874 C1866 1.378 . S
C1874 C1869 1.350 . S
C1875 H1862 0.929 . S
C1875 C1867 1.433 . S
C1875 N1877 1.384 . S
N1876 C1872 1.427 . S
N1876 C1873 1.384 . S
N1877 C1869 1.427 . S
N1877 C1875 1.384 . S
H1878 C1884 0.930 . S
H1879 C1888 0.930 . S
H1880 C1893 0.929 . S
H1881 C1891 0.929 . S
H1882 C1886 0.929 . S
H1883 C1892 0.929 . S
C1884 H1878 0.930 . S
C1884 C1885 1.367 . S
C1884 C1892 1.378 . S
C1885 C1884 1.367 . S
C1885 C1893 1.433 . S
C1886 H1882 0.929 . S
C1886 C1888 1.378 . S
C1886 C1890 1.350 . S
C1887 C1890 1.463 . S
C1887 C1892 1.350 . S
C1887 N1895 1.427 . S
C1888 H1879 0.930 . S
C1888 C1886 1.378 . S
C1888 C1889 1.367 . S
C1889 C1888 1.367 . S
C1889 C1891 1.433 . S
C1890 C1886 1.350 . S
C1890 C1887 1.463 . S
C1890 N1894 1.427 . S
C1891 H1881 0.929 . S
C1891 C1889 1.433 . S
C1891 N1894 1.384 . S
C1892 H1883 0.929 . S
C1892 C1884 1.378 . S
C1892 C1887 1.350 . S
C1893 H1880 0.929 . S
C1893 C1885 1.433 . S
C1893 N1895 1.384 . S
N1894 C1890 1.427 . S
N1894 C1891 1.384 . S
N1895 C1887 1.427 . S
N1895 C1893 1.384 . S
H1896 C1902 0.930 . S
H1897 C1906 0.930 . S
H1898 C1911 0.929 . S
H1899 C1909 0.929 . S
H1900 C1904 0.929 . S
H1901 C1910 0.929 1_455 S
C1902 H1896 0.930 . S
C1902 C1903 1.367 . S
C1902 C1910 1.378 . S
C1903 C1902 1.367 . S
C1903 C1911 1.433 . S
C1904 H1900 0.929 . S
C1904 C1906 1.378 . S
C1904 C1908 1.350 . S
C1905 C1908 1.463 . S
C1905 C1910 1.350 . S
C1905 N1913 1.427 . S
C1906 H1897 0.930 . S
C1906 C1904 1.378 . S
C1906 C1907 1.346 1_655 S
C1907 C1906 1.346 1_455 S
C1907 C1909 1.449 . S
C1908 C1904 1.350 . S
C1908 C1905 1.463 . S
C1908 N1912 1.427 1_655 S
C1909 H1899 0.929 . S
C1909 C1907 1.449 . S
C1909 N1912 1.384 . S
C1910 H1901 0.929 1_655 S
C1910 C1902 1.378 . S
C1910 C1905 1.350 . S
C1911 H1898 0.929 . S
C1911 C1903 1.433 . S
C1911 N1913 1.384 . S
N1912 C1908 1.427 1_455 S
N1912 C1909 1.384 . S
N1913 C1905 1.427 . S
N1913 C1911 1.384 . S
H1914 C1920 0.930 . S
H1915 C1924 0.930 . S
H1916 C1929 0.929 . S
H1917 C1927 0.929 . S
H1918 C1922 0.929 . S
H1919 C1928 0.929 . S
C1920 H1914 0.930 . S
C1920 C1921 1.367 . S
C1920 C1928 1.378 . S
C1921 C1920 1.367 . S
C1921 C1929 1.433 . S
C1922 H1918 0.929 . S
C1922 C1924 1.378 . S
C1922 C1926 1.350 . S
C1923 C1926 1.463 . S
C1923 C1928 1.350 . S
C1923 N1931 1.427 . S
C1924 H1915 0.930 . S
C1924 C1922 1.378 . S
C1924 C1925 1.367 . S
C1925 C1924 1.367 . S
C1925 C1927 1.433 . S
C1926 C1922 1.350 . S
C1926 C1923 1.463 . S
C1926 N1930 1.427 . S
C1927 H1917 0.929 . S
C1927 C1925 1.433 . S
C1927 N1930 1.384 . S
C1928 H1919 0.929 . S
C1928 C1920 1.378 . S
C1928 C1923 1.350 . S
C1929 H1916 0.929 . S
C1929 C1921 1.433 . S
C1929 N1931 1.384 . S
N1930 C1926 1.427 . S
N1930 C1927 1.384 . S
N1931 C1923 1.427 . S
N1931 C1929 1.384 . S
H1932 C1938 0.930 . S
H1933 C1942 0.930 . S
H1934 C1947 0.929 . S
H1935 C1945 0.929 . S
H1936 C1940 0.929 . S
H1937 C1946 0.929 . S
C1938 H1932 0.930 . S
C1938 C1939 1.367 . S
C1938 C1946 1.378 . S
C1939 C1938 1.367 . S
C1939 C1947 1.433 . S
C1940 H1936 0.929 . S
C1940 C1942 1.378 . S
C1940 C1944 1.350 . S
C1941 C1944 1.463 . S
C1941 C1946 1.350 . S
C1941 N1949 1.427 . S
C1942 H1933 0.930 . S
C1942 C1940 1.378 . S
C1942 C1943 1.367 . S
C1943 C1942 1.367 . S
C1943 C1945 1.433 . S
C1944 C1940 1.350 . S
C1944 C1941 1.463 . S
C1944 N1948 1.427 . S
C1945 H1935 0.929 . S
C1945 C1943 1.433 . S
C1945 N1948 1.384 . S
C1946 H1937 0.929 . S
C1946 C1938 1.378 . S
C1946 C1941 1.350 . S
C1947 H1934 0.929 . S
C1947 C1939 1.433 . S
C1947 N1949 1.384 . S
N1948 C1944 1.427 . S
N1948 C1945 1.384 . S
N1949 C1941 1.427 . S
N1949 C1947 1.384 . S
H1950 C1956 0.930 . S
H1951 C1960 0.930 . S
H1952 C1965 0.929 . S
H1953 C1963 0.929 . S
H1954 C1958 0.929 . S
H1955 C1964 0.929 . S
C1956 H1950 0.930 . S
C1956 C1957 1.367 . S
C1956 C1964 1.378 . S
C1957 C1956 1.367 . S
C1957 C1965 1.433 . S
C1958 H1954 0.929 . S
C1958 C1960 1.378 . S
C1958 C1962 1.350 . S
C1959 C1962 1.463 . S
C1959 C1964 1.350 . S
C1959 N1967 1.427 . S
C1960 H1951 0.930 . S
C1960 C1958 1.378 . S
C1960 C1961 1.367 . S
C1961 C1960 1.367 . S
C1961 C1963 1.433 . S
C1962 C1958 1.350 . S
C1962 C1959 1.463 . S
C1962 N1966 1.427 . S
C1963 H1953 0.929 . S
C1963 C1961 1.433 . S
C1963 N1966 1.384 . S
C1964 H1955 0.929 . S
C1964 C1956 1.378 . S
C1964 C1959 1.350 . S
C1965 H1952 0.929 . S
C1965 C1957 1.433 . S
C1965 N1967 1.384 . S
N1966 C1962 1.427 . S
N1966 C1963 1.384 . S
N1967 C1959 1.427 . S
N1967 C1965 1.384 . S
H1968 C1974 0.930 . S
H1969 C1978 0.930 . S
H1970 C1983 0.929 . S
H1971 C1981 0.929 1_546 S
H1972 C1976 0.929 . S
H1973 C1982 0.929 . S
C1974 H1968 0.930 . S
C1974 C1975 1.367 . S
C1974 C1982 1.378 . S
C1975 C1974 1.367 . S
C1975 C1983 1.433 1_556 S
C1976 H1972 0.929 . S
C1976 C1978 1.378 . S
C1976 C1980 1.350 . S
C1977 C1980 1.463 . S
C1977 C1982 1.350 1_554 S
C1977 N1985 1.427 . S
C1978 H1969 0.930 . S
C1978 C1976 1.378 . S
C1978 C1979 1.368 1_565 S
C1979 C1978 1.368 1_545 S
C1979 C1981 1.433 1_545 S
C1980 C1976 1.350 . S
C1980 C1977 1.463 . S
C1980 N1984 1.427 1_554 S
C1981 H1971 0.929 1_564 S
C1981 C1979 1.433 1_565 S
C1981 N1984 1.384 1_554 S
C1982 H1973 0.929 . S
C1982 C1974 1.378 . S
C1982 C1977 1.350 1_556 S
C1983 H1970 0.929 . S
C1983 C1975 1.433 1_554 S
C1983 N1985 1.384 . S
N1984 C1980 1.427 1_556 S
N1984 C1981 1.384 1_556 S
N1985 C1977 1.427 . S
N1985 C1983 1.384 . S
H1986 C1992 0.930 . S
H1987 C1996 0.930 . S
H1988 C2001 0.929 . S
H1989 C1999 0.929 1_556 S
H1990 C1994 0.929 . S
H1991 C2000 0.929 . S
C1992 H1986 0.930 . S
C1992 C1993 1.367 1_556 S
C1992 C2000 1.378 . S
C1993 C1992 1.367 1_554 S
C1993 C2001 1.433 . S
C1994 H1990 0.929 . S
C1994 C1996 1.378 . S
C1994 C1998 1.350 . S
C1995 C1998 1.463 . S
C1995 C2000 1.350 1_554 S
C1995 N2003 1.427 . S
C1996 H1987 0.930 . S
C1996 C1994 1.378 . S
C1996 C1997 1.367 . S
C1997 C1996 1.367 . S
C1997 C1999 1.433 . S
C1998 C1994 1.350 . S
C1998 C1995 1.463 . S
C1998 N2002 1.435 . S
C1999 H1989 0.929 1_554 S
C1999 C1997 1.433 . S
C1999 N2002 1.390 . S
C2000 H1991 0.929 . S
C2000 C1992 1.378 . S
C2000 C1995 1.350 1_556 S
C2001 H1988 0.929 . S
C2001 C1993 1.433 . S
C2001 N2003 1.384 . S
N2002 C1998 1.435 . S
N2002 C1999 1.390 . S
N2003 C1995 1.427 . S
N2003 C2001 1.384 . S
H2004 C2010 0.930 . S
H2005 C2014 0.930 . S
H2006 C2019 0.929 . S
H2007 C2017 0.929 . S
H2008 C2012 0.929 . S
H2009 C2018 0.929 . S
C2010 H2004 0.930 . S
C2010 C2011 1.367 . S
C2010 C2018 1.378 . S
C2011 C2010 1.367 . S
C2011 C2019 1.433 . S
C2012 H2008 0.929 . S
C2012 C2014 1.378 . S
C2012 C2016 1.350 . S
C2013 C2016 1.463 . S
C2013 C2018 1.350 . S
C2013 N2021 1.427 . S
C2014 H2005 0.930 . S
C2014 C2012 1.378 . S
C2014 C2015 1.367 . S
C2015 C2014 1.367 . S
C2015 C2017 1.433 . S
C2016 C2012 1.350 . S
C2016 C2013 1.463 . S
C2016 N2020 1.427 . S
C2017 H2007 0.929 . S
C2017 C2015 1.433 . S
C2017 N2020 1.384 . S
C2018 H2009 0.929 . S
C2018 C2010 1.378 . S
C2018 C2013 1.350 . S
C2019 H2006 0.929 . S
C2019 C2011 1.433 . S
C2019 N2021 1.384 . S
N2020 C2016 1.427 . S
N2020 C2017 1.384 . S
N2021 C2013 1.427 . S
N2021 C2019 1.384 . S
H2022 C2028 0.930 . S
H2023 C2032 0.930 . S
H2024 C2037 0.929 . S
H2025 C2035 0.929 . S
H2026 C2030 0.929 . S
H2027 C2036 0.929 . S
C2028 H2022 0.930 . S
C2028 C2029 1.367 . S
C2028 C2036 1.378 . S
C2029 C2028 1.367 . S
C2029 C2037 1.433 . S
C2030 H2026 0.929 . S
C2030 C2032 1.378 . S
C2030 C2034 1.350 . S
C2031 C2034 1.463 . S
C2031 C2036 1.350 . S
C2031 N2039 1.427 . S
C2032 H2023 0.930 . S
C2032 C2030 1.378 . S
C2032 C2033 1.367 . S
C2033 C2032 1.367 . S
C2033 C2035 1.433 . S
C2034 C2030 1.350 . S
C2034 C2031 1.463 . S
C2034 N2038 1.427 . S
C2035 H2025 0.929 . S
C2035 C2033 1.433 . S
C2035 N2038 1.384 . S
C2036 H2027 0.929 . S
C2036 C2028 1.378 . S
C2036 C2031 1.350 . S
C2037 H2024 0.929 . S
C2037 C2029 1.433 . S
C2037 N2039 1.384 . S
N2038 C2034 1.427 . S
N2038 C2035 1.384 . S
N2039 C2031 1.427 . S
N2039 C2037 1.384 . S
H2040 C2046 0.930 . S
H2041 C2050 0.930 . S
H2042 C2055 0.929 . S
H2043 C2053 0.929 . S
H2044 C2048 0.929 . S
H2045 C2054 0.929 . S
C2046 H2040 0.930 . S
C2046 C2047 1.367 . S
C2046 C2054 1.378 . S
C2047 C2046 1.367 . S
C2047 C2055 1.433 . S
C2048 H2044 0.929 . S
C2048 C2050 1.378 . S
C2048 C2052 1.350 . S
C2049 C2052 1.463 . S
C2049 C2054 1.350 . S
C2049 N2057 1.427 . S
C2050 H2041 0.930 . S
C2050 C2048 1.378 . S
C2050 C2051 1.367 . S
C2051 C2050 1.367 . S
C2051 C2053 1.433 . S
C2052 C2048 1.350 . S
C2052 C2049 1.463 . S
C2052 N2056 1.427 . S
C2053 H2043 0.929 . S
C2053 C2051 1.433 . S
C2053 N2056 1.384 . S
C2054 H2045 0.929 . S
C2054 C2046 1.378 . S
C2054 C2049 1.350 . S
C2055 H2042 0.929 . S
C2055 C2047 1.433 . S
C2055 N2057 1.384 . S
N2056 C2052 1.427 . S
N2056 C2053 1.384 . S
N2057 C2049 1.427 . S
N2057 C2055 1.384 . S
H2058 C2064 0.930 . S
H2059 C2068 0.930 . S
H2060 C2073 0.929 . S
H2061 C2071 0.929 . S
H2062 C2066 0.929 . S
H2063 C2072 0.929 . S
C2064 H2058 0.930 . S
C2064 C2065 1.367 . S
C2064 C2072 1.378 . S
C2065 C2064 1.367 . S
C2065 C2073 1.433 . S
C2066 H2062 0.929 . S
C2066 C2068 1.378 . S
C2066 C2070 1.350 . S
C2067 C2070 1.463 . S
C2067 C2072 1.350 . S
C2067 N2075 1.427 . S
C2068 H2059 0.930 . S
C2068 C2066 1.378 . S
C2068 C2069 1.367 . S
C2069 C2068 1.367 . S
C2069 C2071 1.433 . S
C2070 C2066 1.350 . S
C2070 C2067 1.463 . S
C2070 N2074 1.427 . S
C2071 H2061 0.929 . S
C2071 C2069 1.433 . S
C2071 N2074 1.384 . S
C2072 H2063 0.929 . S
C2072 C2064 1.378 . S
C2072 C2067 1.350 . S
C2073 H2060 0.929 . S
C2073 C2065 1.433 . S
C2073 N2075 1.384 . S
N2074 C2070 1.427 . S
N2074 C2071 1.384 . S
N2075 C2067 1.427 . S
N2075 C2073 1.384 . S
H2076 C2082 0.930 . S
H2077 C2086 0.930 . S
H2078 C2091 0.929 . S
H2079 C2089 0.929 . S
H2080 C2084 0.929 . S
H2081 C2090 0.929 . S
C2082 H2076 0.930 . S
C2082 C2083 1.367 . S
C2082 C2090 1.378 . S
C2083 C2082 1.367 . S
C2083 C2091 1.433 . S
C2084 H2080 0.929 . S
C2084 C2086 1.378 . S
C2084 C2088 1.350 . S
C2085 C2088 1.463 . S
C2085 C2090 1.350 . S
C2085 N2093 1.427 . S
C2086 H2077 0.930 . S
C2086 C2084 1.378 . S
C2086 C2087 1.367 . S
C2087 C2086 1.367 . S
C2087 C2089 1.433 . S
C2088 C2084 1.350 . S
C2088 C2085 1.463 . S
C2088 N2092 1.427 . S
C2089 H2079 0.929 . S
C2089 C2087 1.433 . S
C2089 N2092 1.384 . S
C2090 H2081 0.929 . S
C2090 C2082 1.378 . S
C2090 C2085 1.350 . S
C2091 H2078 0.929 . S
C2091 C2083 1.433 . S
C2091 N2093 1.384 . S
N2092 C2088 1.427 . S
N2092 C2089 1.384 . S
N2093 C2085 1.427 . S
N2093 C2091 1.384 . S
H2094 C2100 0.930 . S
H2095 C2104 0.930 . S
H2096 C2109 0.929 . S
H2097 C2107 0.929 . S
H2098 C2102 0.929 . S
H2099 C2108 0.929 . S
C2100 H2094 0.930 . S
C2100 C2101 1.367 . S
C2100 C2108 1.378 . S
C2101 C2100 1.367 . S
C2101 C2109 1.433 . S
C2102 H2098 0.929 . S
C2102 C2104 1.378 . S
C2102 C2106 1.350 . S
C2103 C2106 1.463 . S
C2103 C2108 1.350 . S
C2103 N2111 1.427 . S
C2104 H2095 0.930 . S
C2104 C2102 1.378 . S
C2104 C2105 1.367 . S
C2105 C2104 1.367 . S
C2105 C2107 1.433 . S
C2106 C2102 1.350 . S
C2106 C2103 1.463 . S
C2106 N2110 1.427 . S
C2107 H2097 0.929 . S
C2107 C2105 1.433 . S
C2107 N2110 1.384 . S
C2108 H2099 0.929 . S
C2108 C2100 1.378 . S
C2108 C2103 1.350 . S
C2109 H2096 0.929 . S
C2109 C2101 1.433 . S
C2109 N2111 1.384 . S
N2110 C2106 1.427 . S
N2110 C2107 1.384 . S
N2111 C2103 1.427 . S
N2111 C2109 1.384 . S
H2112 C2118 0.930 . S
H2113 C2122 0.930 . S
H2114 C2127 0.929 . S
H2115 C2125 0.929 . S
H2116 C2120 0.929 . S
H2117 C2126 0.929 . S
C2118 H2112 0.930 . S
C2118 C2119 1.367 . S
C2118 C2126 1.378 . S
C2119 C2118 1.367 . S
C2119 C2127 1.433 . S
C2120 H2116 0.929 . S
C2120 C2122 1.378 . S
C2120 C2124 1.350 . S
C2121 C2124 1.463 . S
C2121 C2126 1.350 . S
C2121 N2129 1.427 . S
C2122 H2113 0.930 . S
C2122 C2120 1.378 . S
C2122 C2123 1.367 . S
C2123 C2122 1.367 . S
C2123 C2125 1.433 . S
C2124 C2120 1.350 . S
C2124 C2121 1.463 . S
C2124 N2128 1.427 . S
C2125 H2115 0.929 . S
C2125 C2123 1.433 . S
C2125 N2128 1.384 . S
C2126 H2117 0.929 . S
C2126 C2118 1.378 . S
C2126 C2121 1.350 . S
C2127 H2114 0.929 . S
C2127 C2119 1.433 . S
C2127 N2129 1.384 . S
N2128 C2124 1.427 . S
N2128 C2125 1.384 . S
N2129 C2121 1.427 . S
N2129 C2127 1.384 . S
H2130 C2136 0.930 . S
H2131 C2140 0.930 . S
H2132 C2145 0.929 . S
H2133 C2143 0.929 . S
H2134 C2138 0.929 . S
H2135 C2144 0.929 . S
C2136 H2130 0.930 . S
C2136 C2137 1.367 . S
C2136 C2144 1.378 . S
C2137 C2136 1.367 . S
C2137 C2145 1.433 . S
C2138 H2134 0.929 . S
C2138 C2140 1.378 . S
C2138 C2142 1.350 . S
C2139 C2142 1.463 . S
C2139 C2144 1.350 . S
C2139 N2147 1.427 . S
C2140 H2131 0.930 . S
C2140 C2138 1.378 . S
C2140 C2141 1.367 . S
C2141 C2140 1.367 . S
C2141 C2143 1.433 . S
C2142 C2138 1.350 . S
C2142 C2139 1.463 . S
C2142 N2146 1.427 . S
C2143 H2133 0.929 . S
C2143 C2141 1.433 . S
C2143 N2146 1.384 . S
C2144 H2135 0.929 . S
C2144 C2136 1.378 . S
C2144 C2139 1.350 . S
C2145 H2132 0.929 . S
C2145 C2137 1.433 . S
C2145 N2147 1.384 . S
N2146 C2142 1.427 . S
N2146 C2143 1.384 . S
N2147 C2139 1.427 . S
N2147 C2145 1.384 . S
H2148 C2154 0.930 . S
H2149 C2158 0.930 . S
H2150 C2163 0.929 . S
H2151 C2161 0.929 . S
H2152 C2156 0.929 . S
H2153 C2162 0.929 . S
C2154 H2148 0.930 . S
C2154 C2155 1.367 . S
C2154 C2162 1.378 . S
C2155 C2154 1.367 . S
C2155 C2163 1.433 . S
C2156 H2152 0.929 . S
C2156 C2158 1.378 . S
C2156 C2160 1.350 . S
C2157 C2160 1.463 . S
C2157 C2162 1.350 . S
C2157 N2165 1.427 . S
C2158 H2149 0.930 . S
C2158 C2156 1.378 . S
C2158 C2159 1.367 . S
C2159 C2158 1.367 . S
C2159 C2161 1.433 . S
C2160 C2156 1.350 . S
C2160 C2157 1.463 . S
C2160 N2164 1.427 . S
C2161 H2151 0.929 . S
C2161 C2159 1.433 . S
C2161 N2164 1.384 . S
C2162 H2153 0.929 . S
C2162 C2154 1.378 . S
C2162 C2157 1.350 . S
C2163 H2150 0.929 . S
C2163 C2155 1.433 . S
C2163 N2165 1.384 . S
N2164 C2160 1.427 . S
N2164 C2161 1.384 . S
N2165 C2157 1.427 . S
N2165 C2163 1.384 . S
H2166 C2172 0.930 . S
H2167 C2176 0.930 . S
H2168 C2181 0.929 . S
H2169 C2179 0.929 . S
H2170 C2174 0.929 . S
H2171 C2180 0.929 . S
C2172 H2166 0.930 . S
C2172 C2173 1.367 . S
C2172 C2180 1.378 . S
C2173 C2172 1.367 . S
C2173 C2181 1.433 . S
C2174 H2170 0.929 . S
C2174 C2176 1.378 . S
C2174 C2178 1.350 . S
C2175 C2178 1.463 . S
C2175 C2180 1.350 . S
C2175 N2183 1.427 . S
C2176 H2167 0.930 . S
C2176 C2174 1.378 . S
C2176 C2177 1.367 . S
C2177 C2176 1.367 . S
C2177 C2179 1.433 . S
C2178 C2174 1.350 . S
C2178 C2175 1.463 . S
C2178 N2182 1.427 . S
C2179 H2169 0.929 . S
C2179 C2177 1.433 . S
C2179 N2182 1.384 . S
C2180 H2171 0.929 . S
C2180 C2172 1.378 . S
C2180 C2175 1.350 . S
C2181 H2168 0.929 . S
C2181 C2173 1.433 . S
C2181 N2183 1.384 . S
N2182 C2178 1.427 . S
N2182 C2179 1.384 . S
N2183 C2175 1.427 . S
N2183 C2181 1.384 . S
H2184 C2190 0.930 . S
H2185 C2194 0.930 . S
H2186 C2199 0.929 . S
H2187 C2197 0.929 . S
H2188 C2192 0.929 . S
H2189 C2198 0.929 . S
C2190 H2184 0.930 . S
C2190 C2191 1.367 . S
C2190 C2198 1.378 . S
C2191 C2190 1.367 . S
C2191 C2199 1.433 . S
C2192 H2188 0.929 . S
C2192 C2194 1.378 . S
C2192 C2196 1.350 . S
C2193 C2196 1.463 . S
C2193 C2198 1.350 . S
C2193 N2201 1.427 . S
C2194 H2185 0.930 . S
C2194 C2192 1.378 . S
C2194 C2195 1.367 . S
C2195 C2194 1.367 . S
C2195 C2197 1.433 . S
C2196 C2192 1.350 . S
C2196 C2193 1.463 . S
C2196 N2200 1.427 . S
C2197 H2187 0.929 . S
C2197 C2195 1.433 . S
C2197 N2200 1.384 . S
C2198 H2189 0.929 . S
C2198 C2190 1.378 . S
C2198 C2193 1.350 . S
C2199 H2186 0.929 . S
C2199 C2191 1.433 . S
C2199 N2201 1.384 . S
N2200 C2196 1.427 . S
N2200 C2197 1.384 . S
N2201 C2193 1.427 . S
N2201 C2199 1.384 . S
H2202 C2208 0.930 . S
H2203 C2212 0.930 . S
H2204 C2217 0.929 . S
H2205 C2215 0.929 . S
H2206 C2210 0.929 . S
H2207 C2216 0.929 . S
C2208 H2202 0.930 . S
C2208 C2209 1.367 . S
C2208 C2216 1.378 . S
C2209 C2208 1.367 . S
C2209 C2217 1.433 . S
C2210 H2206 0.929 . S
C2210 C2212 1.378 . S
C2210 C2214 1.350 . S
C2211 C2214 1.463 . S
C2211 C2216 1.350 . S
C2211 N2219 1.427 . S
C2212 H2203 0.930 . S
C2212 C2210 1.378 . S
C2212 C2213 1.367 . S
C2213 C2212 1.367 . S
C2213 C2215 1.433 . S
C2214 C2210 1.350 . S
C2214 C2211 1.463 . S
C2214 N2218 1.427 . S
C2215 H2205 0.929 . S
C2215 C2213 1.433 . S
C2215 N2218 1.384 . S
C2216 H2207 0.929 . S
C2216 C2208 1.378 . S
C2216 C2211 1.350 . S
C2217 H2204 0.929 . S
C2217 C2209 1.433 . S
C2217 N2219 1.384 . S
N2218 C2214 1.427 . S
N2218 C2215 1.384 . S
N2219 C2211 1.427 . S
N2219 C2217 1.384 . S
H2220 C2226 0.930 . S
H2221 C2230 0.930 . S
H2222 C2235 0.929 . S
H2223 C2233 0.929 1_554 S
H2224 C2228 0.929 . S
H2225 C2234 0.929 . S
C2226 H2220 0.930 . S
C2226 C2227 1.367 . S
C2226 C2234 1.378 . S
C2227 C2226 1.367 . S
C2227 C2235 1.433 . S
C2228 H2224 0.929 . S
C2228 C2230 1.378 . S
C2228 C2232 1.350 . S
C2229 C2232 1.463 . S
C2229 C2234 1.350 . S
C2229 N2237 1.427 . S
C2230 H2221 0.930 . S
C2230 C2228 1.378 . S
C2230 C2231 1.367 . S
C2231 C2230 1.367 . S
C2231 C2233 1.433 . S
C2232 C2228 1.350 . S
C2232 C2229 1.463 . S
C2232 N2236 1.427 . S
C2233 H2223 0.929 1_556 S
C2233 C2231 1.433 . S
C2233 N2236 1.384 . S
C2234 H2225 0.929 . S
C2234 C2226 1.378 . S
C2234 C2229 1.350 . S
C2235 H2222 0.929 . S
C2235 C2227 1.433 . S
C2235 N2237 1.384 . S
N2236 C2232 1.427 . S
N2236 C2233 1.384 . S
N2237 C2229 1.427 . S
N2237 C2235 1.384 . S
H2238 C2244 0.930 . S
H2239 C2248 0.930 . S
H2240 C2253 0.929 . S
H2241 C2251 0.929 . S
H2242 C2246 0.929 . S
H2243 C2252 0.929 . S
C2244 H2238 0.930 . S
C2244 C2245 1.367 . S
C2244 C2252 1.378 . S
C2245 C2244 1.367 . S
C2245 C2253 1.433 . S
C2246 H2242 0.929 . S
C2246 C2248 1.378 . S
C2246 C2250 1.350 . S
C2247 C2250 1.463 . S
C2247 C2252 1.350 . S
C2247 N2255 1.427 . S
C2248 H2239 0.930 . S
C2248 C2246 1.378 . S
C2248 C2249 1.367 . S
C2249 C2248 1.367 . S
C2249 C2251 1.433 . S
C2250 C2246 1.350 . S
C2250 C2247 1.463 . S
C2250 N2254 1.427 . S
C2251 H2241 0.929 . S
C2251 C2249 1.433 . S
C2251 N2254 1.384 . S
C2252 H2243 0.929 . S
C2252 C2244 1.378 . S
C2252 C2247 1.350 . S
C2253 H2240 0.929 . S
C2253 C2245 1.433 . S
C2253 N2255 1.384 . S
N2254 C2250 1.427 . S
N2254 C2251 1.384 . S
N2255 C2247 1.427 . S
N2255 C2253 1.384 . S
H2256 C2262 0.930 . S
H2257 C2266 0.930 1_565 S
H2258 C2271 0.929 . S
H2259 C2269 0.929 . S
H2260 C2264 0.929 . S
H2261 C2270 0.929 . S
C2262 H2256 0.930 . S
C2262 C2263 1.367 . S
C2262 C2270 1.378 . S
C2263 C2262 1.367 . S
C2263 C2271 1.433 . S
C2264 H2260 0.929 . S
C2264 C2266 1.378 . S
C2264 C2268 1.350 . S
C2265 C2268 1.463 . S
C2265 C2270 1.350 . S
C2265 N2273 1.427 . S
C2266 H2257 0.930 1_545 S
C2266 C2264 1.378 . S
C2266 C2267 1.367 . S
C2267 C2266 1.367 . S
C2267 C2269 1.433 . S
C2268 C2264 1.350 . S
C2268 C2265 1.463 . S
C2268 N2272 1.427 . S
C2269 H2259 0.929 . S
C2269 C2267 1.433 . S
C2269 N2272 1.384 . S
C2270 H2261 0.929 . S
C2270 C2262 1.378 . S
C2270 C2265 1.350 . S
C2271 H2258 0.929 . S
C2271 C2263 1.433 . S
C2271 N2273 1.384 . S
N2272 C2268 1.427 . S
N2272 C2269 1.384 . S
N2273 C2265 1.427 . S
N2273 C2271 1.384 . S
H2274 C2280 0.930 . S
H2275 C2284 0.930 . S
H2276 C2289 0.929 . S
H2277 C2287 0.929 . S
H2278 C2282 0.929 . S
H2279 C2288 0.929 . S
C2280 H2274 0.930 . S
C2280 C2281 1.367 . S
C2280 C2288 1.378 . S
C2281 C2280 1.367 . S
C2281 C2289 1.433 . S
C2282 H2278 0.929 . S
C2282 C2284 1.378 . S
C2282 C2286 1.350 . S
C2283 C2286 1.463 . S
C2283 C2288 1.350 . S
C2283 N2291 1.427 . S
C2284 H2275 0.930 . S
C2284 C2282 1.378 . S
C2284 C2285 1.367 . S
C2285 C2284 1.367 . S
C2285 C2287 1.433 . S
C2286 C2282 1.350 . S
C2286 C2283 1.463 . S
C2286 N2290 1.427 . S
C2287 H2277 0.929 . S
C2287 C2285 1.433 . S
C2287 N2290 1.384 . S
C2288 H2279 0.929 . S
C2288 C2280 1.378 . S
C2288 C2283 1.350 . S
C2289 H2276 0.929 . S
C2289 C2281 1.433 . S
C2289 N2291 1.384 . S
N2290 C2286 1.427 . S
N2290 C2287 1.384 . S
N2291 C2283 1.427 . S
N2291 C2289 1.384 . S
H2292 C2298 0.930 . S
H2293 C2302 0.930 1_565 S
H2294 C2307 0.929 . S
H2295 C2305 0.929 . S
H2296 C2300 0.929 1_565 S
H2297 C2306 0.929 . S
C2298 H2292 0.930 . S
C2298 C2299 1.367 . S
C2298 C2306 1.378 . S
C2299 C2298 1.367 . S
C2299 C2307 1.433 1_545 S
C2300 H2296 0.929 1_545 S
C2300 C2302 1.378 . S
C2300 C2304 1.350 . S
C2301 C2304 1.463 . S
C2301 C2306 1.350 . S
C2301 N2309 1.408 1_545 S
C2302 H2293 0.930 1_545 S
C2302 C2300 1.378 . S
C2302 C2303 1.367 . S
C2303 C2302 1.367 . S
C2303 C2305 1.433 . S
C2304 C2300 1.350 . S
C2304 C2301 1.463 . S
C2304 N2308 1.427 . S
C2305 H2295 0.929 . S
C2305 C2303 1.433 . S
C2305 N2308 1.384 . S
C2306 H2297 0.929 . S
C2306 C2298 1.378 . S
C2306 C2301 1.350 . S
C2307 H2294 0.929 . S
C2307 C2299 1.433 1_565 S
C2307 N2309 1.380 . S
N2308 C2304 1.427 . S
N2308 C2305 1.384 . S
N2309 C2301 1.408 1_565 S
N2309 C2307 1.380 . S
H2310 C2316 0.930 . S
H2311 C2320 0.930 . S
H2312 C2325 0.929 . S
H2313 C2323 0.929 . S
H2314 C2318 0.929 . S
H2315 C2324 0.929 . S
C2316 H2310 0.930 . S
C2316 C2317 1.367 . S
C2316 C2324 1.378 . S
C2317 C2316 1.367 . S
C2317 C2325 1.433 . S
C2318 H2314 0.929 . S
C2318 C2320 1.378 . S
C2318 C2322 1.350 . S
C2319 C2322 1.463 . S
C2319 C2324 1.350 . S
C2319 N2327 1.427 . S
C2320 H2311 0.930 . S
C2320 C2318 1.378 . S
C2320 C2321 1.367 . S
C2321 C2320 1.367 . S
C2321 C2323 1.433 . S
C2322 C2318 1.350 . S
C2322 C2319 1.463 . S
C2322 N2326 1.427 . S
C2323 H2313 0.929 . S
C2323 C2321 1.433 . S
C2323 N2326 1.384 . S
C2324 H2315 0.929 . S
C2324 C2316 1.378 . S
C2324 C2319 1.350 . S
C2325 H2312 0.929 . S
C2325 C2317 1.433 . S
C2325 N2327 1.384 . S
N2326 C2322 1.427 . S
N2326 C2323 1.384 . S
N2327 C2319 1.427 . S
N2327 C2325 1.384 . S
H2328 C2334 0.930 . S
H2329 C2338 0.930 . S
H2330 C2343 0.929 . S
H2331 C2341 0.929 . S
H2332 C2336 0.929 . S
H2333 C2342 0.929 . S
C2334 H2328 0.930 . S
C2334 C2335 1.367 . S
C2334 C2342 1.378 . S
C2335 C2334 1.367 . S
C2335 C2343 1.433 . S
C2336 H2332 0.929 . S
C2336 C2338 1.378 . S
C2336 C2340 1.350 . S
C2337 C2340 1.463 . S
C2337 C2342 1.350 . S
C2337 N2345 1.427 . S
C2338 H2329 0.930 . S
C2338 C2336 1.378 . S
C2338 C2339 1.367 . S
C2339 C2338 1.367 . S
C2339 C2341 1.433 . S
C2340 C2336 1.350 . S
C2340 C2337 1.463 . S
C2340 N2344 1.427 . S
C2341 H2331 0.929 . S
C2341 C2339 1.433 . S
C2341 N2344 1.384 . S
C2342 H2333 0.929 . S
C2342 C2334 1.378 . S
C2342 C2337 1.350 . S
C2343 H2330 0.929 . S
C2343 C2335 1.433 . S
C2343 N2345 1.384 . S
N2344 C2340 1.427 . S
N2344 C2341 1.384 . S
N2345 C2337 1.427 . S
N2345 C2343 1.384 . S
H2346 C2352 0.930 . S
H2347 C2356 0.930 . S
H2348 C2361 0.929 . S
H2349 C2359 0.929 . S
H2350 C2354 0.929 . S
H2351 C2360 0.929 . S
C2352 H2346 0.930 . S
C2352 C2353 1.367 . S
C2352 C2360 1.378 . S
C2353 C2352 1.367 . S
C2353 C2361 1.433 . S
C2354 H2350 0.929 . S
C2354 C2356 1.378 . S
C2354 C2358 1.350 . S
C2355 C2358 1.463 . S
C2355 C2360 1.350 . S
C2355 N2363 1.427 . S
C2356 H2347 0.930 . S
C2356 C2354 1.378 . S
C2356 C2357 1.367 . S
C2357 C2356 1.367 . S
C2357 C2359 1.433 . S
C2358 C2354 1.350 . S
C2358 C2355 1.463 . S
C2358 N2362 1.427 . S
C2359 H2349 0.929 . S
C2359 C2357 1.433 . S
C2359 N2362 1.384 . S
C2360 H2351 0.929 . S
C2360 C2352 1.378 . S
C2360 C2355 1.350 . S
C2361 H2348 0.929 . S
C2361 C2353 1.433 . S
C2361 N2363 1.384 . S
N2362 C2358 1.427 . S
N2362 C2359 1.384 . S
N2363 C2355 1.427 . S
N2363 C2361 1.384 . S
H2364 C2370 0.930 . S
H2365 C2374 0.930 . S
H2366 C2379 0.929 . S
H2367 C2377 0.929 . S
H2368 C2372 0.929 . S
H2369 C2378 0.929 . S
C2370 H2364 0.930 . S
C2370 C2371 1.367 . S
C2370 C2378 1.378 . S
C2371 C2370 1.367 . S
C2371 C2379 1.433 1_545 S
C2372 H2368 0.929 . S
C2372 C2374 1.378 . S
C2372 C2376 1.350 1_565 S
C2373 C2376 1.463 . S
C2373 C2378 1.350 . S
C2373 N2381 1.427 1_545 S
C2374 H2365 0.930 . S
C2374 C2372 1.378 . S
C2374 C2375 1.367 1_565 S
C2375 C2374 1.367 1_545 S
C2375 C2377 1.433 . S
C2376 C2372 1.350 1_545 S
C2376 C2373 1.463 . S
C2376 N2380 1.427 . S
C2377 H2367 0.929 . S
C2377 C2375 1.433 . S
C2377 N2380 1.384 . S
C2378 H2369 0.929 . S
C2378 C2370 1.378 . S
C2378 C2373 1.350 . S
C2379 H2366 0.929 . S
C2379 C2371 1.433 1_565 S
C2379 N2381 1.384 . S
N2380 C2376 1.427 . S
N2380 C2377 1.384 . S
N2381 C2373 1.427 1_565 S
N2381 C2379 1.384 . S
H2382 C2388 0.930 . S
H2383 C2392 0.930 . S
H2384 C2397 0.929 . S
H2385 C2395 0.929 . S
H2386 C2390 0.929 . S
H2387 C2396 0.929 . S
C2388 H2382 0.930 . S
C2388 C2389 1.367 . S
C2388 C2396 1.378 . S
C2389 C2388 1.367 . S
C2389 C2397 1.433 . S
C2390 H2386 0.929 . S
C2390 C2392 1.378 . S
C2390 C2394 1.350 . S
C2391 C2394 1.463 . S
C2391 C2396 1.350 . S
C2391 N2399 1.427 . S
C2392 H2383 0.930 . S
C2392 C2390 1.378 . S
C2392 C2393 1.367 . S
C2393 C2392 1.367 . S
C2393 C2395 1.433 . S
C2394 C2390 1.350 . S
C2394 C2391 1.463 . S
C2394 N2398 1.427 . S
C2395 H2385 0.929 . S
C2395 C2393 1.433 . S
C2395 N2398 1.384 . S
C2396 H2387 0.929 . S
C2396 C2388 1.378 . S
C2396 C2391 1.350 . S
C2397 H2384 0.929 . S
C2397 C2389 1.433 . S
C2397 N2399 1.384 . S
N2398 C2394 1.427 . S
N2398 C2395 1.384 . S
N2399 C2391 1.427 . S
N2399 C2397 1.384 . S
H2400 C2406 0.930 . S
H2401 C2410 0.930 . S
H2402 C2415 0.929 . S
H2403 C2413 0.929 . S
H2404 C2408 0.929 . S
H2405 C2414 0.929 . S
C2406 H2400 0.930 . S
C2406 C2407 1.367 . S
C2406 C2414 1.378 . S
C2407 C2406 1.367 . S
C2407 C2415 1.433 . S
C2408 H2404 0.929 . S
C2408 C2410 1.378 . S
C2408 C2412 1.350 . S
C2409 C2412 1.463 . S
C2409 C2414 1.350 . S
C2409 N2417 1.427 . S
C2410 H2401 0.930 . S
C2410 C2408 1.378 . S
C2410 C2411 1.367 . S
C2411 C2410 1.367 . S
C2411 C2413 1.433 . S
C2412 C2408 1.350 . S
C2412 C2409 1.463 . S
C2412 N2416 1.427 . S
C2413 H2403 0.929 . S
C2413 C2411 1.433 . S
C2413 N2416 1.384 . S
C2414 H2405 0.929 . S
C2414 C2406 1.378 . S
C2414 C2409 1.350 . S
C2415 H2402 0.929 . S
C2415 C2407 1.433 . S
C2415 N2417 1.384 . S
N2416 C2412 1.427 . S
N2416 C2413 1.384 . S
N2417 C2409 1.427 . S
N2417 C2415 1.384 . S
H2418 C2424 0.930 . S
H2419 C2428 0.930 . S
H2420 C2433 0.929 . S
H2421 C2431 0.929 . S
H2422 C2426 0.929 . S
H2423 C2432 0.929 . S
C2424 H2418 0.930 . S
C2424 C2425 1.367 . S
C2424 C2432 1.378 . S
C2425 C2424 1.367 . S
C2425 C2433 1.433 . S
C2426 H2422 0.929 . S
C2426 C2428 1.378 . S
C2426 C2430 1.350 . S
C2427 C2430 1.463 . S
C2427 C2432 1.350 . S
C2427 N2435 1.427 . S
C2428 H2419 0.930 . S
C2428 C2426 1.378 . S
C2428 C2429 1.367 . S
C2429 C2428 1.367 . S
C2429 C2431 1.433 . S
C2430 C2426 1.350 . S
C2430 C2427 1.463 . S
C2430 N2434 1.427 . S
C2431 H2421 0.929 . S
C2431 C2429 1.433 . S
C2431 N2434 1.384 . S
C2432 H2423 0.929 . S
C2432 C2424 1.378 . S
C2432 C2427 1.350 . S
C2433 H2420 0.929 . S
C2433 C2425 1.433 . S
C2433 N2435 1.384 . S
N2434 C2430 1.427 . S
N2434 C2431 1.384 . S
N2435 C2427 1.427 . S
N2435 C2433 1.384 . S
H2436 C2442 0.930 . S
H2437 C2446 0.930 . S
H2438 C2451 0.929 . S
H2439 C2449 0.929 . S
H2440 C2444 0.929 . S
H2441 C2450 0.929 . S
C2442 H2436 0.930 . S
C2442 C2443 1.367 . S
C2442 C2450 1.378 . S
C2443 C2442 1.367 . S
C2443 C2451 1.433 . S
C2444 H2440 0.929 . S
C2444 C2446 1.378 . S
C2444 C2448 1.350 . S
C2445 C2448 1.463 . S
C2445 C2450 1.350 . S
C2445 N2453 1.427 . S
C2446 H2437 0.930 . S
C2446 C2444 1.378 . S
C2446 C2447 1.367 . S
C2447 C2446 1.367 . S
C2447 C2449 1.433 . S
C2448 C2444 1.350 . S
C2448 C2445 1.463 . S
C2448 N2452 1.427 . S
C2449 H2439 0.929 . S
C2449 C2447 1.433 . S
C2449 N2452 1.384 . S
C2450 H2441 0.929 . S
C2450 C2442 1.378 . S
C2450 C2445 1.350 . S
C2451 H2438 0.929 . S
C2451 C2443 1.433 . S
C2451 N2453 1.384 . S
N2452 C2448 1.427 . S
N2452 C2449 1.384 . S
N2453 C2445 1.427 . S
N2453 C2451 1.384 . S
H2454 C2460 0.930 . S
H2455 C2464 0.930 . S
H2456 C2469 0.929 . S
H2457 C2467 0.929 . S
H2458 C2462 0.929 . S
H2459 C2468 0.929 . S
C2460 H2454 0.930 . S
C2460 C2461 1.367 . S
C2460 C2468 1.378 . S
C2461 C2460 1.367 . S
C2461 C2469 1.433 . S
C2462 H2458 0.929 . S
C2462 C2464 1.378 . S
C2462 C2466 1.350 . S
C2463 C2466 1.463 . S
C2463 C2468 1.350 . S
C2463 N2471 1.427 . S
C2464 H2455 0.930 . S
C2464 C2462 1.378 . S
C2464 C2465 1.367 . S
C2465 C2464 1.367 . S
C2465 C2467 1.433 . S
C2466 C2462 1.350 . S
C2466 C2463 1.463 . S
C2466 N2470 1.427 . S
C2467 H2457 0.929 . S
C2467 C2465 1.433 . S
C2467 N2470 1.384 . S
C2468 H2459 0.929 . S
C2468 C2460 1.378 . S
C2468 C2463 1.350 . S
C2469 H2456 0.929 . S
C2469 C2461 1.433 . S
C2469 N2471 1.384 . S
N2470 C2466 1.427 . S
N2470 C2467 1.384 . S
N2471 C2463 1.427 . S
N2471 C2469 1.384 . S
H2472 C2478 0.930 . S
H2473 C2482 0.930 . S
H2474 C2487 0.929 . S
H2475 C2485 0.929 . S
H2476 C2480 0.929 . S
H2477 C2486 0.929 . S
C2478 H2472 0.930 . S
C2478 C2479 1.367 . S
C2478 C2486 1.378 1_545 S
C2479 C2478 1.367 . S
C2479 C2487 1.433 1_545 S
C2480 H2476 0.929 . S
C2480 C2482 1.378 . S
C2480 C2484 1.350 . S
C2481 C2484 1.463 . S
C2481 C2486 1.350 . S
C2481 N2489 1.427 . S
C2482 H2473 0.930 . S
C2482 C2480 1.378 . S
C2482 C2483 1.367 . S
C2483 C2482 1.367 . S
C2483 C2485 1.433 . S
C2484 C2480 1.350 . S
C2484 C2481 1.463 . S
C2484 N2488 1.427 . S
C2485 H2475 0.929 . S
C2485 C2483 1.433 . S
C2485 N2488 1.384 . S
C2486 H2477 0.929 . S
C2486 C2478 1.378 1_565 S
C2486 C2481 1.350 . S
C2487 H2474 0.929 . S
C2487 C2479 1.433 1_565 S
C2487 N2489 1.384 . S
N2488 C2484 1.427 . S
N2488 C2485 1.384 . S
N2489 C2481 1.427 . S
N2489 C2487 1.384 . S
H2490 C2496 0.930 . S
H2491 C2500 0.926 1_545 S
H2492 C2505 0.929 . S
H2493 C2503 0.929 . S
H2494 C2498 0.929 . S
H2495 C2504 0.929 . S
C2496 H2490 0.930 . S
C2496 C2497 1.367 . S
C2496 C2504 1.378 . S
C2497 C2496 1.367 . S
C2497 C2505 1.433 . S
C2498 H2494 0.929 . S
C2498 C2500 1.378 . S
C2498 C2502 1.350 . S
C2499 C2502 1.463 . S
C2499 C2504 1.350 . S
C2499 N2507 1.427 . S
C2500 H2491 0.926 1_565 S
C2500 C2498 1.378 . S
C2500 C2501 1.367 . S
C2501 C2500 1.367 . S
C2501 C2503 1.433 . S
C2502 C2498 1.350 . S
C2502 C2499 1.463 . S
C2502 N2506 1.427 . S
C2503 H2493 0.929 . S
C2503 C2501 1.433 . S
C2503 N2506 1.384 . S
C2504 H2495 0.929 . S
C2504 C2496 1.378 . S
C2504 C2499 1.350 . S
C2505 H2492 0.929 . S
C2505 C2497 1.433 . S
C2505 N2507 1.384 . S
N2506 C2502 1.427 . S
N2506 C2503 1.384 . S
N2507 C2499 1.427 . S
N2507 C2505 1.384 . S
H2508 C2514 0.930 . S
H2509 C2518 0.930 . S
H2510 C2523 0.929 . S
H2511 C2521 0.929 . S
H2512 C2516 0.929 . S
H2513 C2522 0.929 . S
C2514 H2508 0.930 . S
C2514 C2515 1.367 . S
C2514 C2522 1.378 . S
C2515 C2514 1.367 . S
C2515 C2523 1.433 . S
C2516 H2512 0.929 . S
C2516 C2518 1.378 . S
C2516 C2520 1.350 . S
C2517 C2520 1.463 . S
C2517 C2522 1.350 . S
C2517 N2525 1.427 . S
C2518 H2509 0.930 . S
C2518 C2516 1.378 . S
C2518 C2519 1.367 . S
C2519 C2518 1.367 . S
C2519 C2521 1.433 . S
C2520 C2516 1.350 . S
C2520 C2517 1.463 . S
C2520 N2524 1.427 . S
C2521 H2511 0.929 . S
C2521 C2519 1.433 . S
C2521 N2524 1.384 . S
C2522 H2513 0.929 . S
C2522 C2514 1.378 . S
C2522 C2517 1.350 . S
C2523 H2510 0.929 . S
C2523 C2515 1.433 . S
C2523 N2525 1.384 . S
N2524 C2520 1.427 . S
N2524 C2521 1.384 . S
N2525 C2517 1.427 . S
N2525 C2523 1.384 . S
H2526 C2532 0.930 . S
H2527 C2536 0.930 . S
H2528 C2541 0.929 . S
H2529 C2539 0.929 . S
H2530 C2534 0.929 . S
H2531 C2540 0.929 . S
C2532 H2526 0.930 . S
C2532 C2533 1.367 . S
C2532 C2540 1.378 . S
C2533 C2532 1.367 . S
C2533 C2541 1.433 . S
C2534 H2530 0.929 . S
C2534 C2536 1.378 . S
C2534 C2538 1.350 . S
C2535 C2538 1.463 . S
C2535 C2540 1.350 . S
C2535 N2543 1.427 . S
C2536 H2527 0.930 . S
C2536 C2534 1.378 . S
C2536 C2537 1.367 . S
C2537 C2536 1.367 . S
C2537 C2539 1.433 . S
C2538 C2534 1.350 . S
C2538 C2535 1.463 . S
C2538 N2542 1.427 . S
C2539 H2529 0.929 . S
C2539 C2537 1.433 . S
C2539 N2542 1.384 . S
C2540 H2531 0.929 . S
C2540 C2532 1.378 . S
C2540 C2535 1.350 . S
C2541 H2528 0.929 . S
C2541 C2533 1.433 . S
C2541 N2543 1.384 . S
N2542 C2538 1.427 . S
N2542 C2539 1.384 . S
N2543 C2535 1.427 . S
N2543 C2541 1.384 . S
H2544 C2550 0.930 . S
H2545 C2554 0.930 . S
H2546 C2559 0.929 . S
H2547 C2557 0.929 . S
H2548 C2552 0.929 . S
H2549 C2558 0.929 . S
C2550 H2544 0.930 . S
C2550 C2551 1.367 . S
C2550 C2558 1.378 . S
C2551 C2550 1.367 . S
C2551 C2559 1.433 . S
C2552 H2548 0.929 . S
C2552 C2554 1.378 . S
C2552 C2556 1.350 . S
C2553 C2556 1.463 . S
C2553 C2558 1.350 . S
C2553 N2561 1.427 . S
C2554 H2545 0.930 . S
C2554 C2552 1.378 . S
C2554 C2555 1.367 . S
C2555 C2554 1.367 . S
C2555 C2557 1.433 . S
C2556 C2552 1.350 . S
C2556 C2553 1.463 . S
C2556 N2560 1.427 . S
C2557 H2547 0.929 . S
C2557 C2555 1.433 . S
C2557 N2560 1.384 . S
C2558 H2549 0.929 . S
C2558 C2550 1.378 . S
C2558 C2553 1.350 . S
C2559 H2546 0.929 . S
C2559 C2551 1.433 . S
C2559 N2561 1.384 . S
N2560 C2556 1.427 . S
N2560 C2557 1.384 . S
N2561 C2553 1.427 . S
N2561 C2559 1.384 . S
H2562 C2568 0.930 . S
H2563 C2572 0.930 . S
H2564 C2577 0.929 . S
H2565 C2575 0.929 . S
H2566 C2570 0.929 . S
H2567 C2576 0.929 . S
C2568 H2562 0.930 . S
C2568 C2569 1.367 . S
C2568 C2576 1.378 . S
C2569 C2568 1.367 . S
C2569 C2577 1.433 . S
C2570 H2566 0.929 . S
C2570 C2572 1.378 . S
C2570 C2574 1.350 . S
C2571 C2574 1.463 . S
C2571 C2576 1.350 . S
C2571 N2579 1.427 . S
C2572 H2563 0.930 . S
C2572 C2570 1.378 . S
C2572 C2573 1.367 . S
C2573 C2572 1.367 . S
C2573 C2575 1.433 . S
C2574 C2570 1.350 . S
C2574 C2571 1.463 . S
C2574 N2578 1.427 . S
C2575 H2565 0.929 . S
C2575 C2573 1.433 . S
C2575 N2578 1.384 . S
C2576 H2567 0.929 . S
C2576 C2568 1.378 . S
C2576 C2571 1.350 . S
C2577 H2564 0.929 . S
C2577 C2569 1.433 . S
C2577 N2579 1.384 . S
N2578 C2574 1.427 . S
N2578 C2575 1.384 . S
N2579 C2571 1.427 . S
N2579 C2577 1.384 . S
H2580 C2586 0.946 . S
H2581 C2590 0.930 1_655 S
H2582 C2595 0.929 . S
H2583 C2593 0.929 . S
H2584 C2588 0.929 1_655 S
H2585 C2594 0.929 . S
C2586 H2580 0.946 . S
C2586 C2587 1.349 1_554 S
C2586 C2594 1.379 . S
C2587 C2586 1.349 1_556 S
C2587 C2595 1.433 1_455 S
C2588 H2584 0.929 1_455 S
C2588 C2590 1.378 . S
C2588 C2592 1.350 . S
C2589 C2592 1.463 . S
C2589 C2594 1.350 1_556 S
C2589 N2597 1.422 1_455 S
C2590 H2581 0.930 1_455 S
C2590 C2588 1.378 . S
C2590 C2591 1.367 1_556 S
C2591 C2590 1.367 1_554 S
C2591 C2593 1.433 . S
C2592 C2588 1.350 . S
C2592 C2589 1.463 . S
C2592 N2596 1.427 1_556 S
C2593 H2583 0.929 . S
C2593 C2591 1.433 . S
C2593 N2596 1.384 . S
C2594 H2585 0.929 . S
C2594 C2586 1.379 . S
C2594 C2589 1.350 1_554 S
C2595 H2582 0.929 . S
C2595 C2587 1.433 1_655 S
C2595 N2597 1.381 . S
N2596 C2592 1.427 1_554 S
N2596 C2593 1.384 . S
N2597 C2589 1.422 1_655 S
N2597 C2595 1.381 . S
H2598 C2604 0.942 . S
H2599 C2608 0.930 . S
H2600 C2613 0.929 1_455 S
H2601 C2611 0.929 . S
H2602 C2606 0.929 . S
H2603 C2612 0.929 . S
C2604 H2598 0.942 . S
C2604 C2605 1.367 1_655 S
C2604 C2612 1.378 . S
C2605 C2604 1.367 1_455 S
C2605 C2613 1.433 1_455 S
C2606 H2602 0.929 . S
C2606 C2608 1.378 . S
C2606 C2610 1.350 . S
C2607 C2610 1.463 . S
C2607 C2612 1.350 . S
C2607 N2615 1.427 . S
C2608 H2599 0.930 . S
C2608 C2606 1.378 . S
C2608 C2609 1.367 . S
C2609 C2608 1.367 . S
C2609 C2611 1.433 . S
C2610 C2606 1.350 . S
C2610 C2607 1.463 . S
C2610 N2614 1.427 . S
C2611 H2601 0.929 . S
C2611 C2609 1.433 . S
C2611 N2614 1.384 . S
C2612 H2603 0.929 . S
C2612 C2604 1.378 . S
C2612 C2607 1.350 . S
C2613 H2600 0.929 1_655 S
C2613 C2605 1.433 1_655 S
C2613 N2615 1.384 . S
N2614 C2610 1.427 . S
N2614 C2611 1.384 . S
N2615 C2607 1.427 . S
N2615 C2613 1.384 . S
H2616 C2622 0.930 . S
H2617 C2626 0.930 . S
H2618 C2631 0.929 . S
H2619 C2629 0.929 . S
H2620 C2624 0.929 . S
H2621 C2630 0.929 . S
C2622 H2616 0.930 . S
C2622 C2623 1.367 . S
C2622 C2630 1.378 . S
C2623 C2622 1.367 . S
C2623 C2631 1.433 . S
C2624 H2620 0.929 . S
C2624 C2626 1.378 . S
C2624 C2628 1.350 . S
C2625 C2628 1.463 . S
C2625 C2630 1.350 . S
C2625 N2633 1.427 . S
C2626 H2617 0.930 . S
C2626 C2624 1.378 . S
C2626 C2627 1.367 . S
C2627 C2626 1.367 . S
C2627 C2629 1.433 . S
C2628 C2624 1.350 . S
C2628 C2625 1.463 . S
C2628 N2632 1.427 . S
C2629 H2619 0.929 . S
C2629 C2627 1.433 . S
C2629 N2632 1.384 . S
C2630 H2621 0.929 . S
C2630 C2622 1.378 . S
C2630 C2625 1.350 . S
C2631 H2618 0.929 . S
C2631 C2623 1.433 . S
C2631 N2633 1.384 . S
N2632 C2628 1.427 . S
N2632 C2629 1.384 . S
N2633 C2625 1.427 . S
N2633 C2631 1.384 . S
H2634 C2640 0.930 . S
H2635 C2644 0.930 . S
H2636 C2649 0.929 . S
H2637 C2647 0.929 . S
H2638 C2642 0.929 . S
H2639 C2648 0.929 . S
C2640 H2634 0.930 . S
C2640 C2641 1.367 . S
C2640 C2648 1.378 . S
C2641 C2640 1.367 . S
C2641 C2649 1.433 . S
C2642 H2638 0.929 . S
C2642 C2644 1.378 . S
C2642 C2646 1.350 . S
C2643 C2646 1.463 . S
C2643 C2648 1.350 . S
C2643 N2651 1.427 . S
C2644 H2635 0.930 . S
C2644 C2642 1.378 . S
C2644 C2645 1.367 . S
C2645 C2644 1.367 . S
C2645 C2647 1.433 . S
C2646 C2642 1.350 . S
C2646 C2643 1.463 . S
C2646 N2650 1.427 . S
C2647 H2637 0.929 . S
C2647 C2645 1.433 . S
C2647 N2650 1.384 . S
C2648 H2639 0.929 . S
C2648 C2640 1.378 . S
C2648 C2643 1.350 . S
C2649 H2636 0.929 . S
C2649 C2641 1.433 . S
C2649 N2651 1.384 . S
N2650 C2646 1.427 . S
N2650 C2647 1.384 . S
N2651 C2643 1.427 . S
N2651 C2649 1.384 . S
H2652 C2658 0.930 . S
H2653 C2662 0.930 . S
H2654 C2667 0.929 1_655 S
H2655 C2665 0.929 . S
H2656 C2660 0.929 1_655 S
H2657 C2666 0.929 . S
C2658 H2652 0.930 . S
C2658 C2659 1.367 . S
C2658 C2666 1.378 . S
C2659 C2658 1.367 . S
C2659 C2667 1.433 . S
C2660 H2656 0.929 1_455 S
C2660 C2662 1.378 . S
C2660 C2664 1.350 . S
C2661 C2664 1.463 . S
C2661 C2666 1.350 . S
C2661 N2669 1.427 . S
C2662 H2653 0.930 . S
C2662 C2660 1.378 . S
C2662 C2663 1.367 . S
C2663 C2662 1.367 . S
C2663 C2665 1.433 . S
C2664 C2660 1.350 . S
C2664 C2661 1.463 . S
C2664 N2668 1.427 . S
C2665 H2655 0.929 . S
C2665 C2663 1.433 . S
C2665 N2668 1.384 . S
C2666 H2657 0.929 . S
C2666 C2658 1.378 . S
C2666 C2661 1.350 . S
C2667 H2654 0.929 1_455 S
C2667 C2659 1.433 . S
C2667 N2669 1.384 . S
N2668 C2664 1.427 . S
N2668 C2665 1.384 . S
N2669 C2661 1.427 . S
N2669 C2667 1.384 . S
H2670 C2676 0.930 . S
H2671 C2680 0.930 . S
H2672 C2685 0.929 . S
H2673 C2683 0.929 . S
H2674 C2678 0.929 . S
H2675 C2684 0.929 . S
C2676 H2670 0.930 . S
C2676 C2677 1.367 . S
C2676 C2684 1.378 . S
C2677 C2676 1.367 . S
C2677 C2685 1.433 . S
C2678 H2674 0.929 . S
C2678 C2680 1.378 . S
C2678 C2682 1.350 . S
C2679 C2682 1.463 . S
C2679 C2684 1.350 . S
C2679 N2687 1.427 . S
C2680 H2671 0.930 . S
C2680 C2678 1.378 . S
C2680 C2681 1.367 . S
C2681 C2680 1.367 . S
C2681 C2683 1.433 . S
C2682 C2678 1.350 . S
C2682 C2679 1.463 . S
C2682 N2686 1.427 . S
C2683 H2673 0.929 . S
C2683 C2681 1.433 . S
C2683 N2686 1.384 . S
C2684 H2675 0.929 . S
C2684 C2676 1.378 . S
C2684 C2679 1.350 . S
C2685 H2672 0.929 . S
C2685 C2677 1.433 . S
C2685 N2687 1.384 . S
N2686 C2682 1.427 . S
N2686 C2683 1.384 . S
N2687 C2679 1.427 . S
N2687 C2685 1.384 . S
H2688 C2694 0.930 . S
H2689 C2698 0.930 . S
H2690 C2703 0.929 . S
H2691 C2701 0.929 . S
H2692 C2696 0.929 . S
H2693 C2702 0.929 . S
C2694 H2688 0.930 . S
C2694 C2695 1.367 . S
C2694 C2702 1.378 . S
C2695 C2694 1.367 . S
C2695 C2703 1.433 . S
C2696 H2692 0.929 . S
C2696 C2698 1.378 . S
C2696 C2700 1.350 . S
C2697 C2700 1.463 . S
C2697 C2702 1.350 . S
C2697 N2705 1.427 . S
C2698 H2689 0.930 . S
C2698 C2696 1.378 . S
C2698 C2699 1.367 . S
C2699 C2698 1.367 . S
C2699 C2701 1.433 . S
C2700 C2696 1.350 . S
C2700 C2697 1.463 . S
C2700 N2704 1.427 . S
C2701 H2691 0.929 . S
C2701 C2699 1.433 . S
C2701 N2704 1.384 . S
C2702 H2693 0.929 . S
C2702 C2694 1.378 . S
C2702 C2697 1.350 . S
C2703 H2690 0.929 . S
C2703 C2695 1.433 . S
C2703 N2705 1.384 . S
N2704 C2700 1.427 . S
N2704 C2701 1.384 . S
N2705 C2697 1.427 . S
N2705 C2703 1.384 . S
H2706 C2712 0.930 . S
H2707 C2716 0.930 . S
H2708 C2721 0.929 . S
H2709 C2719 0.929 . S
H2710 C2714 0.929 . S
H2711 C2720 0.929 . S
C2712 H2706 0.930 . S
C2712 C2713 1.367 1_556 S
C2712 C2720 1.378 . S
C2713 C2712 1.367 1_554 S
C2713 C2721 1.433 . S
C2714 H2710 0.929 . S
C2714 C2716 1.378 . S
C2714 C2718 1.350 . S
C2715 C2718 1.463 . S
C2715 C2720 1.350 . S
C2715 N2723 1.427 . S
C2716 H2707 0.930 . S
C2716 C2714 1.378 . S
C2716 C2717 1.367 . S
C2717 C2716 1.367 . S
C2717 C2719 1.433 . S
C2718 C2714 1.350 . S
C2718 C2715 1.463 . S
C2718 N2722 1.427 . S
C2719 H2709 0.929 . S
C2719 C2717 1.433 . S
C2719 N2722 1.384 . S
C2720 H2711 0.929 . S
C2720 C2712 1.378 . S
C2720 C2715 1.350 . S
C2721 H2708 0.929 . S
C2721 C2713 1.433 . S
C2721 N2723 1.384 1_554 S
N2722 C2718 1.427 . S
N2722 C2719 1.384 . S
N2723 C2715 1.427 . S
N2723 C2721 1.384 1_556 S
H2724 C2730 0.930 . S
H2725 C2734 0.930 . S
H2726 C2739 0.929 . S
H2727 C2737 0.929 . S
H2728 C2732 0.929 . S
H2729 C2738 0.929 . S
C2730 H2724 0.930 . S
C2730 C2731 1.367 . S
C2730 C2738 1.378 . S
C2731 C2730 1.367 . S
C2731 C2739 1.433 . S
C2732 H2728 0.929 . S
C2732 C2734 1.378 . S
C2732 C2736 1.350 . S
C2733 C2736 1.463 . S
C2733 C2738 1.350 . S
C2733 N2741 1.427 . S
C2734 H2725 0.930 . S
C2734 C2732 1.378 . S
C2734 C2735 1.367 . S
C2735 C2734 1.367 . S
C2735 C2737 1.433 . S
C2736 C2732 1.350 . S
C2736 C2733 1.463 . S
C2736 N2740 1.427 . S
C2737 H2727 0.929 . S
C2737 C2735 1.433 . S
C2737 N2740 1.384 . S
C2738 H2729 0.929 . S
C2738 C2730 1.378 . S
C2738 C2733 1.350 . S
C2739 H2726 0.929 . S
C2739 C2731 1.433 . S
C2739 N2741 1.384 . S
N2740 C2736 1.427 . S
N2740 C2737 1.384 . S
N2741 C2733 1.427 . S
N2741 C2739 1.384 . S
H2742 C2748 0.930 . S
H2743 C2752 0.930 . S
H2744 C2757 0.929 . S
H2745 C2755 0.929 . S
H2746 C2750 0.929 . S
H2747 C2756 0.929 . S
C2748 H2742 0.930 . S
C2748 C2749 1.367 . S
C2748 C2756 1.378 . S
C2749 C2748 1.367 . S
C2749 C2757 1.433 . S
C2750 H2746 0.929 . S
C2750 C2752 1.378 . S
C2750 C2754 1.350 . S
C2751 C2754 1.463 . S
C2751 C2756 1.350 . S
C2751 N2759 1.427 . S
C2752 H2743 0.930 . S
C2752 C2750 1.378 . S
C2752 C2753 1.367 . S
C2753 C2752 1.367 . S
C2753 C2755 1.433 . S
C2754 C2750 1.350 . S
C2754 C2751 1.463 . S
C2754 N2758 1.427 . S
C2755 H2745 0.929 . S
C2755 C2753 1.433 . S
C2755 N2758 1.384 . S
C2756 H2747 0.929 . S
C2756 C2748 1.378 . S
C2756 C2751 1.350 . S
C2757 H2744 0.929 . S
C2757 C2749 1.433 . S
C2757 N2759 1.384 . S
N2758 C2754 1.427 . S
N2758 C2755 1.384 . S
N2759 C2751 1.427 . S
N2759 C2757 1.384 . S
H2760 C2766 0.930 . S
H2761 C2770 0.930 . S
H2762 C2775 0.929 . S
H2763 C2773 0.929 . S
H2764 C2768 0.929 . S
H2765 C2774 0.929 . S
C2766 H2760 0.930 . S
C2766 C2767 1.367 . S
C2766 C2774 1.378 . S
C2767 C2766 1.367 . S
C2767 C2775 1.433 . S
C2768 H2764 0.929 . S
C2768 C2770 1.378 . S
C2768 C2772 1.350 . S
C2769 C2772 1.463 . S
C2769 C2774 1.350 . S
C2769 N2777 1.427 . S
C2770 H2761 0.930 . S
C2770 C2768 1.378 . S
C2770 C2771 1.367 . S
C2771 C2770 1.367 . S
C2771 C2773 1.433 . S
C2772 C2768 1.350 . S
C2772 C2769 1.463 . S
C2772 N2776 1.427 . S
C2773 H2763 0.929 . S
C2773 C2771 1.433 . S
C2773 N2776 1.384 . S
C2774 H2765 0.929 . S
C2774 C2766 1.378 . S
C2774 C2769 1.350 . S
C2775 H2762 0.929 . S
C2775 C2767 1.433 . S
C2775 N2777 1.384 . S
N2776 C2772 1.427 . S
N2776 C2773 1.384 . S
N2777 C2769 1.427 . S
N2777 C2775 1.384 . S
H2778 C2784 0.930 . S
H2779 C2788 0.930 . S
H2780 C2793 0.929 . S
H2781 C2791 0.929 . S
H2782 C2786 0.929 . S
H2783 C2792 0.929 . S
C2784 H2778 0.930 . S
C2784 C2785 1.367 . S
C2784 C2792 1.378 . S
C2785 C2784 1.367 . S
C2785 C2793 1.433 . S
C2786 H2782 0.929 . S
C2786 C2788 1.378 . S
C2786 C2790 1.350 . S
C2787 C2790 1.463 . S
C2787 C2792 1.350 . S
C2787 N2795 1.427 . S
C2788 H2779 0.930 . S
C2788 C2786 1.378 . S
C2788 C2789 1.367 . S
C2789 C2788 1.367 . S
C2789 C2791 1.433 . S
C2790 C2786 1.350 . S
C2790 C2787 1.463 . S
C2790 N2794 1.427 . S
C2791 H2781 0.929 . S
C2791 C2789 1.433 . S
C2791 N2794 1.384 . S
C2792 H2783 0.929 . S
C2792 C2784 1.378 . S
C2792 C2787 1.350 . S
C2793 H2780 0.929 . S
C2793 C2785 1.433 . S
C2793 N2795 1.384 . S
N2794 C2790 1.427 . S
N2794 C2791 1.384 . S
N2795 C2787 1.427 . S
N2795 C2793 1.384 . S
H2796 C2802 0.930 . S
H2797 C2806 0.930 . S
H2798 C2811 0.929 . S
H2799 C2809 0.929 . S
H2800 C2804 0.929 . S
H2801 C2810 0.929 . S
C2802 H2796 0.930 . S
C2802 C2803 1.367 . S
C2802 C2810 1.378 . S
C2803 C2802 1.367 . S
C2803 C2811 1.433 . S
C2804 H2800 0.929 . S
C2804 C2806 1.378 . S
C2804 C2808 1.350 . S
C2805 C2808 1.463 . S
C2805 C2810 1.350 . S
C2805 N2813 1.427 . S
C2806 H2797 0.930 . S
C2806 C2804 1.378 . S
C2806 C2807 1.367 . S
C2807 C2806 1.367 . S
C2807 C2809 1.433 . S
C2808 C2804 1.350 . S
C2808 C2805 1.463 . S
C2808 N2812 1.427 . S
C2809 H2799 0.929 . S
C2809 C2807 1.433 . S
C2809 N2812 1.384 . S
C2810 H2801 0.929 . S
C2810 C2802 1.378 . S
C2810 C2805 1.350 . S
C2811 H2798 0.929 . S
C2811 C2803 1.433 . S
C2811 N2813 1.384 . S
N2812 C2808 1.427 . S
N2812 C2809 1.384 . S
N2813 C2805 1.427 . S
N2813 C2811 1.384 . S
H2814 C2820 0.930 . S
H2815 C2824 0.930 . S
H2816 C2829 0.929 . S
H2817 C2827 0.929 . S
H2818 C2822 0.929 . S
H2819 C2828 0.929 . S
C2820 H2814 0.930 . S
C2820 C2821 1.367 . S
C2820 C2828 1.378 . S
C2821 C2820 1.367 . S
C2821 C2829 1.433 . S
C2822 H2818 0.929 . S
C2822 C2824 1.378 . S
C2822 C2826 1.350 . S
C2823 C2826 1.463 . S
C2823 C2828 1.350 . S
C2823 N2831 1.427 . S
C2824 H2815 0.930 . S
C2824 C2822 1.378 . S
C2824 C2825 1.367 . S
C2825 C2824 1.367 . S
C2825 C2827 1.433 . S
C2826 C2822 1.350 . S
C2826 C2823 1.463 . S
C2826 N2830 1.427 . S
C2827 H2817 0.929 . S
C2827 C2825 1.433 . S
C2827 N2830 1.384 . S
C2828 H2819 0.929 . S
C2828 C2820 1.378 . S
C2828 C2823 1.350 . S
C2829 H2816 0.929 . S
C2829 C2821 1.433 . S
C2829 N2831 1.384 . S
N2830 C2826 1.427 . S
N2830 C2827 1.384 . S
N2831 C2823 1.427 . S
N2831 C2829 1.384 . S
H2832 C2838 0.930 . S
H2833 C2842 0.930 . S
H2834 C2847 0.929 . S
H2835 C2845 0.929 . S
H2836 C2840 0.929 . S
H2837 C2846 0.929 . S
C2838 H2832 0.930 . S
C2838 C2839 1.367 . S
C2838 C2846 1.378 . S
C2839 C2838 1.367 . S
C2839 C2847 1.433 . S
C2840 H2836 0.929 . S
C2840 C2842 1.378 . S
C2840 C2844 1.350 . S
C2841 C2844 1.463 . S
C2841 C2846 1.350 . S
C2841 N2849 1.427 . S
C2842 H2833 0.930 . S
C2842 C2840 1.378 . S
C2842 C2843 1.367 . S
C2843 C2842 1.367 . S
C2843 C2845 1.433 . S
C2844 C2840 1.350 . S
C2844 C2841 1.463 . S
C2844 N2848 1.427 . S
C2845 H2835 0.929 . S
C2845 C2843 1.433 . S
C2845 N2848 1.384 . S
C2846 H2837 0.929 . S
C2846 C2838 1.378 . S
C2846 C2841 1.350 . S
C2847 H2834 0.929 . S
C2847 C2839 1.433 . S
C2847 N2849 1.384 . S
N2848 C2844 1.427 . S
N2848 C2845 1.384 . S
N2849 C2841 1.427 . S
N2849 C2847 1.384 . S
H2850 C2856 0.930 . S
H2851 C2860 0.930 . S
H2852 C2865 0.929 . S
H2853 C2863 0.929 . S
H2854 C2858 0.929 . S
H2855 C2864 0.929 . S
C2856 H2850 0.930 . S
C2856 C2857 1.367 . S
C2856 C2864 1.378 . S
C2857 C2856 1.367 . S
C2857 C2865 1.433 . S
C2858 H2854 0.929 . S
C2858 C2860 1.378 . S
C2858 C2862 1.350 . S
C2859 C2862 1.463 . S
C2859 C2864 1.350 . S
C2859 N2867 1.427 . S
C2860 H2851 0.930 . S
C2860 C2858 1.378 . S
C2860 C2861 1.367 . S
C2861 C2860 1.367 . S
C2861 C2863 1.433 . S
C2862 C2858 1.350 . S
C2862 C2859 1.463 . S
C2862 N2866 1.427 . S
C2863 H2853 0.929 . S
C2863 C2861 1.433 . S
C2863 N2866 1.384 . S
C2864 H2855 0.929 . S
C2864 C2856 1.378 . S
C2864 C2859 1.350 . S
C2865 H2852 0.929 . S
C2865 C2857 1.433 . S
C2865 N2867 1.384 . S
N2866 C2862 1.427 . S
N2866 C2863 1.384 . S
N2867 C2859 1.427 . S
N2867 C2865 1.384 . S
H2868 C2874 0.930 . S
H2869 C2878 0.930 . S
H2870 C2883 0.929 . S
H2871 C2881 0.929 . S
H2872 C2876 0.929 . S
H2873 C2882 0.929 . S
C2874 H2868 0.930 . S
C2874 C2875 1.367 . S
C2874 C2882 1.378 . S
C2875 C2874 1.367 . S
C2875 C2883 1.433 . S
C2876 H2872 0.929 . S
C2876 C2878 1.378 . S
C2876 C2880 1.350 . S
C2877 C2880 1.463 . S
C2877 C2882 1.350 . S
C2877 N2885 1.427 . S
C2878 H2869 0.930 . S
C2878 C2876 1.378 . S
C2878 C2879 1.367 . S
C2879 C2878 1.367 . S
C2879 C2881 1.433 . S
C2880 C2876 1.350 . S
C2880 C2877 1.463 . S
C2880 N2884 1.427 . S
C2881 H2871 0.929 . S
C2881 C2879 1.433 . S
C2881 N2884 1.384 . S
C2882 H2873 0.929 . S
C2882 C2874 1.378 . S
C2882 C2877 1.350 . S
C2883 H2870 0.929 . S
C2883 C2875 1.433 . S
C2883 N2885 1.384 . S
N2884 C2880 1.427 . S
N2884 C2881 1.384 . S
N2885 C2877 1.427 . S
N2885 C2883 1.384 . S
H2886 C2892 0.930 . S
H2887 C2896 0.928 1_556 S
H2888 C2901 0.929 . S
H2889 C2899 0.929 . S
H2890 C2894 0.929 1_556 S
H2891 C2900 0.929 . S
C2892 H2886 0.930 . S
C2892 C2893 1.367 . S
C2892 C2900 1.378 . S
C2893 C2892 1.367 . S
C2893 C2901 1.433 1_554 S
C2894 H2890 0.929 1_554 S
C2894 C2896 1.378 . S
C2894 C2898 1.350 1_545 S
C2895 C2898 1.463 . S
C2895 C2900 1.350 . S
C2895 N2903 1.427 1_554 S
C2896 H2887 0.928 1_554 S
C2896 C2894 1.378 . S
C2896 C2897 1.367 . S
C2897 C2896 1.367 . S
C2897 C2899 1.433 1_545 S
C2898 C2894 1.350 1_565 S
C2898 C2895 1.463 . S
C2898 N2902 1.427 . S
C2899 H2889 0.929 . S
C2899 C2897 1.433 1_565 S
C2899 N2902 1.384 . S
C2900 H2891 0.929 . S
C2900 C2892 1.378 . S
C2900 C2895 1.350 . S
C2901 H2888 0.929 . S
C2901 C2893 1.433 1_556 S
C2901 N2903 1.384 . S
N2902 C2898 1.427 . S
N2902 C2899 1.384 . S
N2903 C2895 1.427 1_556 S
N2903 C2901 1.384 . S
H2904 C2910 0.930 . S
H2905 C2914 0.930 . S
H2906 C2919 0.929 . S
H2907 C2917 0.929 . S
H2908 C2912 0.929 . S
H2909 C2918 0.929 . S
C2910 H2904 0.930 . S
C2910 C2911 1.367 . S
C2910 C2918 1.378 . S
C2911 C2910 1.367 . S
C2911 C2919 1.433 . S
C2912 H2908 0.929 . S
C2912 C2914 1.378 . S
C2912 C2916 1.350 . S
C2913 C2916 1.463 . S
C2913 C2918 1.350 . S
C2913 N2921 1.427 . S
C2914 H2905 0.930 . S
C2914 C2912 1.378 . S
C2914 C2915 1.367 . S
C2915 C2914 1.367 . S
C2915 C2917 1.433 . S
C2916 C2912 1.350 . S
C2916 C2913 1.463 . S
C2916 N2920 1.427 . S
C2917 H2907 0.929 . S
C2917 C2915 1.433 . S
C2917 N2920 1.384 . S
C2918 H2909 0.929 . S
C2918 C2910 1.378 . S
C2918 C2913 1.350 . S
C2919 H2906 0.929 . S
C2919 C2911 1.433 . S
C2919 N2921 1.384 . S
N2920 C2916 1.427 . S
N2920 C2917 1.384 . S
N2921 C2913 1.427 . S
N2921 C2919 1.384 . S
H2922 C2928 0.930 . S
H2923 C2932 0.930 1_556 S
H2924 C2937 0.929 . S
H2925 C2935 0.929 . S
H2926 C2930 0.929 1_556 S
H2927 C2936 0.929 . S
C2928 H2922 0.930 . S
C2928 C2929 1.367 . S
C2928 C2936 1.378 . S
C2929 C2928 1.367 . S
C2929 C2937 1.433 1_554 S
C2930 H2926 0.929 1_554 S
C2930 C2932 1.378 . S
C2930 C2934 1.350 . S
C2931 C2934 1.463 . S
C2931 C2936 1.350 . S
C2931 N2939 1.427 1_554 S
C2932 H2923 0.930 1_554 S
C2932 C2930 1.378 . S
C2932 C2933 1.367 . S
C2933 C2932 1.367 . S
C2933 C2935 1.433 . S
C2934 C2930 1.350 . S
C2934 C2931 1.463 . S
C2934 N2938 1.427 . S
C2935 H2925 0.929 . S
C2935 C2933 1.433 . S
C2935 N2938 1.384 . S
C2936 H2927 0.929 . S
C2936 C2928 1.378 . S
C2936 C2931 1.350 . S
C2937 H2924 0.929 . S
C2937 C2929 1.433 1_556 S
C2937 N2939 1.384 . S
N2938 C2934 1.427 . S
N2938 C2935 1.384 . S
N2939 C2931 1.427 1_556 S
N2939 C2937 1.384 . S
H2940 C2946 0.930 . S
H2941 C2950 0.930 . S
H2942 C2955 0.929 . S
H2943 C2953 0.929 . S
H2944 C2948 0.929 . S
H2945 C2954 0.929 . S
C2946 H2940 0.930 . S
C2946 C2947 1.367 . S
C2946 C2954 1.378 . S
C2947 C2946 1.367 . S
C2947 C2955 1.433 . S
C2948 H2944 0.929 . S
C2948 C2950 1.378 . S
C2948 C2952 1.350 . S
C2949 C2952 1.463 . S
C2949 C2954 1.350 . S
C2949 N2957 1.427 . S
C2950 H2941 0.930 . S
C2950 C2948 1.378 . S
C2950 C2951 1.367 . S
C2951 C2950 1.367 . S
C2951 C2953 1.433 . S
C2952 C2948 1.350 . S
C2952 C2949 1.463 . S
C2952 N2956 1.427 . S
C2953 H2943 0.929 . S
C2953 C2951 1.433 . S
C2953 N2956 1.384 . S
C2954 H2945 0.929 . S
C2954 C2946 1.378 . S
C2954 C2949 1.350 . S
C2955 H2942 0.929 . S
C2955 C2947 1.433 . S
C2955 N2957 1.384 . S
N2956 C2952 1.427 . S
N2956 C2953 1.384 . S
N2957 C2949 1.427 . S
N2957 C2955 1.384 . S
H2958 C2964 0.930 . S
H2959 C2968 0.930 . S
H2960 C2973 0.929 . S
H2961 C2971 0.929 . S
H2962 C2966 0.929 . S
H2963 C2972 0.929 . S
C2964 H2958 0.930 . S
C2964 C2965 1.367 . S
C2964 C2972 1.378 . S
C2965 C2964 1.367 . S
C2965 C2973 1.433 . S
C2966 H2962 0.929 . S
C2966 C2968 1.378 . S
C2966 C2970 1.350 . S
C2967 C2970 1.463 . S
C2967 C2972 1.350 . S
C2967 N2975 1.427 . S
C2968 H2959 0.930 . S
C2968 C2966 1.378 . S
C2968 C2969 1.367 . S
C2969 C2968 1.367 . S
C2969 C2971 1.433 . S
C2970 C2966 1.350 . S
C2970 C2967 1.463 . S
C2970 N2974 1.427 . S
C2971 H2961 0.929 . S
C2971 C2969 1.433 . S
C2971 N2974 1.384 . S
C2972 H2963 0.929 . S
C2972 C2964 1.378 . S
C2972 C2967 1.350 . S
C2973 H2960 0.929 . S
C2973 C2965 1.433 . S
C2973 N2975 1.384 . S
N2974 C2970 1.427 . S
N2974 C2971 1.384 . S
N2975 C2967 1.427 . S
N2975 C2973 1.384 . S
H2976 C2982 0.930 . S
H2977 C2986 0.930 . S
H2978 C2991 0.929 . S
H2979 C2989 0.929 . S
H2980 C2984 0.929 . S
H2981 C2990 0.929 . S
C2982 H2976 0.930 . S
C2982 C2983 1.367 . S
C2982 C2990 1.378 . S
C2983 C2982 1.367 . S
C2983 C2991 1.433 . S
C2984 H2980 0.929 . S
C2984 C2986 1.378 . S
C2984 C2988 1.350 . S
C2985 C2988 1.463 . S
C2985 C2990 1.350 . S
C2985 N2993 1.427 . S
C2986 H2977 0.930 . S
C2986 C2984 1.378 . S
C2986 C2987 1.367 . S
C2987 C2986 1.367 . S
C2987 C2989 1.433 . S
C2988 C2984 1.350 . S
C2988 C2985 1.463 . S
C2988 N2992 1.427 . S
C2989 H2979 0.929 . S
C2989 C2987 1.433 . S
C2989 N2992 1.384 . S
C2990 H2981 0.929 . S
C2990 C2982 1.378 . S
C2990 C2985 1.350 . S
C2991 H2978 0.929 . S
C2991 C2983 1.433 . S
C2991 N2993 1.384 . S
N2992 C2988 1.427 . S
N2992 C2989 1.384 . S
N2993 C2985 1.427 . S
N2993 C2991 1.384 . S
H2994 C3000 0.930 . S
H2995 C3004 0.930 . S
H2996 C3009 0.929 . S
H2997 C3007 0.929 . S
H2998 C3002 0.929 . S
H2999 C3008 0.929 . S
C3000 H2994 0.930 . S
C3000 C3001 1.367 . S
C3000 C3008 1.378 . S
C3001 C3000 1.367 . S
C3001 C3009 1.433 . S
C3002 H2998 0.929 . S
C3002 C3004 1.378 . S
C3002 C3006 1.350 . S
C3003 C3006 1.463 . S
C3003 C3008 1.350 . S
C3003 N3011 1.427 . S
C3004 H2995 0.930 . S
C3004 C3002 1.378 . S
C3004 C3005 1.367 . S
C3005 C3004 1.367 . S
C3005 C3007 1.433 . S
C3006 C3002 1.350 . S
C3006 C3003 1.463 . S
C3006 N3010 1.427 . S
C3007 H2997 0.929 . S
C3007 C3005 1.433 . S
C3007 N3010 1.384 . S
C3008 H2999 0.929 . S
C3008 C3000 1.378 . S
C3008 C3003 1.350 . S
C3009 H2996 0.929 . S
C3009 C3001 1.433 . S
C3009 N3011 1.384 . S
N3010 C3006 1.427 . S
N3010 C3007 1.384 . S
N3011 C3003 1.427 . S
N3011 C3009 1.384 . S
H3012 C3018 0.930 . S
H3013 C3022 0.930 . S
H3014 C3027 0.929 . S
H3015 C3025 0.929 . S
H3016 C3020 0.929 . S
H3017 C3026 0.929 . S
C3018 H3012 0.930 . S
C3018 C3019 1.367 . S
C3018 C3026 1.378 . S
C3019 C3018 1.367 . S
C3019 C3027 1.433 . S
C3020 H3016 0.929 . S
C3020 C3022 1.378 . S
C3020 C3024 1.350 . S
C3021 C3024 1.463 . S
C3021 C3026 1.350 . S
C3021 N3029 1.427 . S
C3022 H3013 0.930 . S
C3022 C3020 1.378 . S
C3022 C3023 1.367 . S
C3023 C3022 1.367 . S
C3023 C3025 1.433 . S
C3024 C3020 1.350 . S
C3024 C3021 1.463 . S
C3024 N3028 1.427 . S
C3025 H3015 0.929 . S
C3025 C3023 1.433 . S
C3025 N3028 1.384 . S
C3026 H3017 0.929 . S
C3026 C3018 1.378 . S
C3026 C3021 1.350 . S
C3027 H3014 0.929 . S
C3027 C3019 1.433 . S
C3027 N3029 1.384 . S
N3028 C3024 1.427 . S
N3028 C3025 1.384 . S
N3029 C3021 1.427 . S
N3029 C3027 1.384 . S
H3030 C3036 0.930 . S
H3031 C3040 0.930 . S
H3032 C3045 0.929 . S
H3033 C3043 0.929 . S
H3034 C3038 0.929 . S
H3035 C3044 0.929 . S
C3036 H3030 0.930 . S
C3036 C3037 1.367 . S
C3036 C3044 1.378 . S
C3037 C3036 1.367 . S
C3037 C3045 1.433 . S
C3038 H3034 0.929 . S
C3038 C3040 1.378 . S
C3038 C3042 1.350 . S
C3039 C3042 1.463 . S
C3039 C3044 1.350 . S
C3039 N3047 1.427 . S
C3040 H3031 0.930 . S
C3040 C3038 1.378 . S
C3040 C3041 1.367 . S
C3041 C3040 1.367 . S
C3041 C3043 1.433 . S
C3042 C3038 1.350 . S
C3042 C3039 1.463 . S
C3042 N3046 1.427 . S
C3043 H3033 0.929 . S
C3043 C3041 1.433 . S
C3043 N3046 1.384 . S
C3044 H3035 0.929 . S
C3044 C3036 1.378 . S
C3044 C3039 1.350 . S
C3045 H3032 0.929 . S
C3045 C3037 1.433 . S
C3045 N3047 1.384 . S
N3046 C3042 1.427 . S
N3046 C3043 1.384 . S
N3047 C3039 1.427 . S
N3047 C3045 1.384 . S
H3048 C3054 0.930 . S
H3049 C3058 0.930 . S
H3050 C3063 0.929 . S
H3051 C3061 0.929 . S
H3052 C3056 0.929 . S
H3053 C3062 0.929 . S
C3054 H3048 0.930 . S
C3054 C3055 1.367 . S
C3054 C3062 1.378 . S
C3055 C3054 1.367 . S
C3055 C3063 1.433 . S
C3056 H3052 0.929 . S
C3056 C3058 1.378 . S
C3056 C3060 1.350 . S
C3057 C3060 1.463 . S
C3057 C3062 1.350 . S
C3057 N3065 1.427 . S
C3058 H3049 0.930 . S
C3058 C3056 1.378 . S
C3058 C3059 1.367 . S
C3059 C3058 1.367 . S
C3059 C3061 1.433 . S
C3060 C3056 1.350 . S
C3060 C3057 1.463 . S
C3060 N3064 1.427 . S
C3061 H3051 0.929 . S
C3061 C3059 1.433 . S
C3061 N3064 1.384 . S
C3062 H3053 0.929 . S
C3062 C3054 1.378 . S
C3062 C3057 1.350 . S
C3063 H3050 0.929 . S
C3063 C3055 1.433 . S
C3063 N3065 1.384 . S
N3064 C3060 1.427 . S
N3064 C3061 1.384 . S
N3065 C3057 1.427 . S
N3065 C3063 1.384 . S
H3066 C3072 0.930 . S
H3067 C3076 0.930 . S
H3068 C3081 0.929 . S
H3069 C3079 0.929 . S
H3070 C3074 0.929 . S
H3071 C3080 0.929 . S
C3072 H3066 0.930 . S
C3072 C3073 1.367 . S
C3072 C3080 1.378 . S
C3073 C3072 1.367 . S
C3073 C3081 1.433 . S
C3074 H3070 0.929 . S
C3074 C3076 1.378 . S
C3074 C3078 1.350 . S
C3075 C3078 1.463 . S
C3075 C3080 1.350 . S
C3075 N3083 1.427 . S
C3076 H3067 0.930 . S
C3076 C3074 1.378 . S
C3076 C3077 1.367 . S
C3077 C3076 1.367 . S
C3077 C3079 1.433 . S
C3078 C3074 1.350 . S
C3078 C3075 1.463 . S
C3078 N3082 1.427 . S
C3079 H3069 0.929 . S
C3079 C3077 1.433 . S
C3079 N3082 1.384 . S
C3080 H3071 0.929 . S
C3080 C3072 1.378 . S
C3080 C3075 1.350 . S
C3081 H3068 0.929 . S
C3081 C3073 1.433 . S
C3081 N3083 1.384 . S
N3082 C3078 1.427 . S
N3082 C3079 1.384 . S
N3083 C3075 1.427 . S
N3083 C3081 1.384 . S
H3084 C3090 0.930 . S
H3085 C3094 0.930 . S
H3086 C3099 0.929 . S
H3087 C3097 0.929 . S
H3088 C3092 0.929 . S
H3089 C3098 0.929 . S
C3090 H3084 0.930 . S
C3090 C3091 1.367 . S
C3090 C3098 1.378 . S
C3091 C3090 1.367 . S
C3091 C3099 1.433 . S
C3092 H3088 0.929 . S
C3092 C3094 1.378 . S
C3092 C3096 1.350 . S
C3093 C3096 1.463 . S
C3093 C3098 1.350 . S
C3093 N3101 1.427 . S
C3094 H3085 0.930 . S
C3094 C3092 1.378 . S
C3094 C3095 1.367 . S
C3095 C3094 1.367 . S
C3095 C3097 1.433 . S
C3096 C3092 1.350 . S
C3096 C3093 1.463 . S
C3096 N3100 1.427 . S
C3097 H3087 0.929 . S
C3097 C3095 1.433 . S
C3097 N3100 1.384 . S
C3098 H3089 0.929 . S
C3098 C3090 1.378 . S
C3098 C3093 1.350 . S
C3099 H3086 0.929 . S
C3099 C3091 1.433 . S
C3099 N3101 1.384 . S
N3100 C3096 1.427 . S
N3100 C3097 1.384 . S
N3101 C3093 1.427 . S
N3101 C3099 1.384 . S
H3102 C3108 0.930 . S
H3103 C3112 0.930 . S
H3104 C3117 0.929 . S
H3105 C3115 0.929 . S
H3106 C3110 0.929 . S
H3107 C3116 0.929 . S
C3108 H3102 0.930 . S
C3108 C3109 1.367 . S
C3108 C3116 1.378 . S
C3109 C3108 1.367 . S
C3109 C3117 1.433 . S
C3110 H3106 0.929 . S
C3110 C3112 1.378 . S
C3110 C3114 1.350 . S
C3111 C3114 1.463 . S
C3111 C3116 1.350 . S
C3111 N3119 1.427 . S
C3112 H3103 0.930 . S
C3112 C3110 1.378 . S
C3112 C3113 1.367 . S
C3113 C3112 1.367 . S
C3113 C3115 1.433 . S
C3114 C3110 1.350 . S
C3114 C3111 1.463 . S
C3114 N3118 1.427 . S
C3115 H3105 0.929 . S
C3115 C3113 1.433 . S
C3115 N3118 1.384 . S
C3116 H3107 0.929 . S
C3116 C3108 1.378 . S
C3116 C3111 1.350 . S
C3117 H3104 0.929 . S
C3117 C3109 1.433 . S
C3117 N3119 1.384 . S
N3118 C3114 1.427 . S
N3118 C3115 1.384 . S
N3119 C3111 1.427 . S
N3119 C3117 1.384 . S
H3120 C3126 0.930 . S
H3121 C3130 0.930 . S
H3122 C3135 0.929 . S
H3123 C3133 0.929 . S
H3124 C3128 0.929 . S
H3125 C3134 0.929 . S
C3126 H3120 0.930 . S
C3126 C3127 1.367 . S
C3126 C3134 1.378 . S
C3127 C3126 1.367 . S
C3127 C3135 1.433 . S
C3128 H3124 0.929 . S
C3128 C3130 1.378 . S
C3128 C3132 1.350 . S
C3129 C3132 1.463 . S
C3129 C3134 1.350 . S
C3129 N3137 1.427 . S
C3130 H3121 0.930 . S
C3130 C3128 1.378 . S
C3130 C3131 1.367 . S
C3131 C3130 1.367 . S
C3131 C3133 1.433 . S
C3132 C3128 1.350 . S
C3132 C3129 1.463 . S
C3132 N3136 1.427 . S
C3133 H3123 0.929 . S
C3133 C3131 1.433 . S
C3133 N3136 1.384 . S
C3134 H3125 0.929 . S
C3134 C3126 1.378 . S
C3134 C3129 1.350 . S
C3135 H3122 0.929 . S
C3135 C3127 1.433 . S
C3135 N3137 1.384 . S
N3136 C3132 1.427 . S
N3136 C3133 1.384 . S
N3137 C3129 1.427 . S
N3137 C3135 1.384 . S
H3138 C3144 0.930 . S
H3139 C3148 0.930 . S
H3140 C3153 0.929 . S
H3141 C3151 0.929 . S
H3142 C3146 0.929 . S
H3143 C3152 0.929 . S
C3144 H3138 0.930 . S
C3144 C3145 1.367 . S
C3144 C3152 1.378 . S
C3145 C3144 1.367 . S
C3145 C3153 1.433 . S
C3146 H3142 0.929 . S
C3146 C3148 1.378 . S
C3146 C3150 1.350 . S
C3147 C3150 1.463 . S
C3147 C3152 1.350 . S
C3147 N3155 1.427 . S
C3148 H3139 0.930 . S
C3148 C3146 1.378 . S
C3148 C3149 1.367 . S
C3149 C3148 1.367 . S
C3149 C3151 1.433 . S
C3150 C3146 1.350 . S
C3150 C3147 1.463 . S
C3150 N3154 1.427 . S
C3151 H3141 0.929 . S
C3151 C3149 1.433 . S
C3151 N3154 1.384 . S
C3152 H3143 0.929 . S
C3152 C3144 1.378 . S
C3152 C3147 1.350 . S
C3153 H3140 0.929 . S
C3153 C3145 1.433 . S
C3153 N3155 1.384 . S
N3154 C3150 1.427 . S
N3154 C3151 1.384 . S
N3155 C3147 1.427 . S
N3155 C3153 1.384 . S
H3156 C3162 0.930 . S
H3157 C3166 0.930 . S
H3158 C3171 0.929 . S
H3159 C3169 0.929 . S
H3160 C3164 0.929 . S
H3161 C3170 0.929 . S
C3162 H3156 0.930 . S
C3162 C3163 1.367 . S
C3162 C3170 1.378 . S
C3163 C3162 1.367 . S
C3163 C3171 1.433 . S
C3164 H3160 0.929 . S
C3164 C3166 1.378 . S
C3164 C3168 1.350 . S
C3165 C3168 1.463 . S
C3165 C3170 1.350 . S
C3165 N3173 1.427 . S
C3166 H3157 0.930 . S
C3166 C3164 1.378 . S
C3166 C3167 1.367 . S
C3167 C3166 1.367 . S
C3167 C3169 1.433 . S
C3168 C3164 1.350 . S
C3168 C3165 1.463 . S
C3168 N3172 1.427 . S
C3169 H3159 0.929 . S
C3169 C3167 1.433 . S
C3169 N3172 1.384 . S
C3170 H3161 0.929 . S
C3170 C3162 1.378 . S
C3170 C3165 1.350 . S
C3171 H3158 0.929 . S
C3171 C3163 1.433 . S
C3171 N3173 1.384 . S
N3172 C3168 1.427 . S
N3172 C3169 1.384 . S
N3173 C3165 1.427 . S
N3173 C3171 1.384 . S
H3174 C3180 0.930 . S
H3175 C3184 0.930 . S
H3176 C3189 0.929 . S
H3177 C3187 0.929 . S
H3178 C3182 0.929 . S
H3179 C3188 0.929 . S
C3180 H3174 0.930 . S
C3180 C3181 1.367 . S
C3180 C3188 1.378 . S
C3181 C3180 1.367 . S
C3181 C3189 1.433 . S
C3182 H3178 0.929 . S
C3182 C3184 1.378 . S
C3182 C3186 1.350 . S
C3183 C3186 1.463 . S
C3183 C3188 1.350 . S
C3183 N3191 1.427 . S
C3184 H3175 0.930 . S
C3184 C3182 1.378 . S
C3184 C3185 1.367 . S
C3185 C3184 1.367 . S
C3185 C3187 1.433 . S
C3186 C3182 1.350 . S
C3186 C3183 1.463 . S
C3186 N3190 1.427 . S
C3187 H3177 0.929 . S
C3187 C3185 1.433 . S
C3187 N3190 1.384 . S
C3188 H3179 0.929 . S
C3188 C3180 1.378 . S
C3188 C3183 1.350 . S
C3189 H3176 0.929 . S
C3189 C3181 1.433 . S
C3189 N3191 1.384 . S
N3190 C3186 1.427 . S
N3190 C3187 1.384 . S
N3191 C3183 1.427 . S
N3191 C3189 1.384 . S
H3192 C3198 0.930 . S
H3193 C3202 0.930 . S
H3194 C3207 0.929 . S
H3195 C3205 0.929 . S
H3196 C3200 0.929 . S
H3197 C3206 0.929 . S
C3198 H3192 0.930 . S
C3198 C3199 1.367 . S
C3198 C3206 1.378 . S
C3199 C3198 1.367 . S
C3199 C3207 1.433 . S
C3200 H3196 0.929 . S
C3200 C3202 1.378 . S
C3200 C3204 1.350 . S
C3201 C3204 1.463 . S
C3201 C3206 1.350 . S
C3201 N3209 1.427 . S
C3202 H3193 0.930 . S
C3202 C3200 1.378 . S
C3202 C3203 1.367 . S
C3203 C3202 1.367 . S
C3203 C3205 1.433 . S
C3204 C3200 1.350 . S
C3204 C3201 1.463 . S
C3204 N3208 1.427 . S
C3205 H3195 0.929 . S
C3205 C3203 1.433 . S
C3205 N3208 1.384 . S
C3206 H3197 0.929 . S
C3206 C3198 1.378 . S
C3206 C3201 1.350 . S
C3207 H3194 0.929 . S
C3207 C3199 1.433 . S
C3207 N3209 1.384 . S
N3208 C3204 1.427 . S
N3208 C3205 1.384 . S
N3209 C3201 1.427 . S
N3209 C3207 1.384 . S
H3210 C3216 0.930 . S
H3211 C3220 0.930 . S
H3212 C3225 0.929 . S
H3213 C3223 0.929 . S
H3214 C3218 0.929 . S
H3215 C3224 0.929 . S
C3216 H3210 0.930 . S
C3216 C3217 1.367 . S
C3216 C3224 1.378 . S
C3217 C3216 1.367 . S
C3217 C3225 1.433 . S
C3218 H3214 0.929 . S
C3218 C3220 1.378 . S
C3218 C3222 1.350 . S
C3219 C3222 1.463 . S
C3219 C3224 1.350 . S
C3219 N3227 1.427 . S
C3220 H3211 0.930 . S
C3220 C3218 1.378 . S
C3220 C3221 1.367 . S
C3221 C3220 1.367 . S
C3221 C3223 1.433 . S
C3222 C3218 1.350 . S
C3222 C3219 1.463 . S
C3222 N3226 1.427 . S
C3223 H3213 0.929 . S
C3223 C3221 1.433 . S
C3223 N3226 1.384 . S
C3224 H3215 0.929 . S
C3224 C3216 1.378 . S
C3224 C3219 1.350 . S
C3225 H3212 0.929 . S
C3225 C3217 1.433 . S
C3225 N3227 1.384 . S
N3226 C3222 1.427 . S
N3226 C3223 1.384 . S
N3227 C3219 1.427 . S
N3227 C3225 1.384 . S
H3228 C3234 0.930 . S
H3229 C3238 0.930 . S
H3230 C3243 0.929 . S
H3231 C3241 0.929 . S
H3232 C3236 0.929 . S
H3233 C3242 0.929 . S
C3234 H3228 0.930 . S
C3234 C3235 1.367 . S
C3234 C3242 1.378 . S
C3235 C3234 1.367 . S
C3235 C3243 1.433 . S
C3236 H3232 0.929 . S
C3236 C3238 1.378 . S
C3236 C3240 1.350 . S
C3237 C3240 1.463 . S
C3237 C3242 1.350 . S
C3237 N3245 1.427 . S
C3238 H3229 0.930 . S
C3238 C3236 1.378 . S
C3238 C3239 1.367 . S
C3239 C3238 1.367 . S
C3239 C3241 1.433 . S
C3240 C3236 1.350 . S
C3240 C3237 1.463 . S
C3240 N3244 1.427 . S
C3241 H3231 0.929 . S
C3241 C3239 1.433 . S
C3241 N3244 1.384 . S
C3242 H3233 0.929 . S
C3242 C3234 1.378 . S
C3242 C3237 1.350 . S
C3243 H3230 0.929 . S
C3243 C3235 1.433 . S
C3243 N3245 1.384 . S
N3244 C3240 1.427 . S
N3244 C3241 1.384 . S
N3245 C3237 1.427 . S
N3245 C3243 1.384 . S
H3246 C3252 0.930 . S
H3247 C3256 0.930 . S
H3248 C3261 0.929 . S
H3249 C3259 0.929 . S
H3250 C3254 0.929 . S
H3251 C3260 0.929 . S
C3252 H3246 0.930 . S
C3252 C3253 1.367 . S
C3252 C3260 1.378 . S
C3253 C3252 1.367 . S
C3253 C3261 1.433 . S
C3254 H3250 0.929 . S
C3254 C3256 1.378 . S
C3254 C3258 1.350 . S
C3255 C3258 1.463 . S
C3255 C3260 1.350 . S
C3255 N3263 1.427 . S
C3256 H3247 0.930 . S
C3256 C3254 1.378 . S
C3256 C3257 1.367 . S
C3257 C3256 1.367 . S
C3257 C3259 1.433 . S
C3258 C3254 1.350 . S
C3258 C3255 1.463 . S
C3258 N3262 1.427 . S
C3259 H3249 0.929 . S
C3259 C3257 1.433 . S
C3259 N3262 1.384 . S
C3260 H3251 0.929 . S
C3260 C3252 1.378 . S
C3260 C3255 1.350 . S
C3261 H3248 0.929 . S
C3261 C3253 1.433 . S
C3261 N3263 1.384 . S
N3262 C3258 1.427 . S
N3262 C3259 1.384 . S
N3263 C3255 1.427 . S
N3263 C3261 1.384 . S
H3264 C3270 0.930 . S
H3265 C3274 0.930 . S
H3266 C3279 0.929 . S
H3267 C3277 0.929 . S
H3268 C3272 0.929 . S
H3269 C3278 0.929 . S
C3270 H3264 0.930 . S
C3270 C3271 1.367 . S
C3270 C3278 1.378 . S
C3271 C3270 1.367 . S
C3271 C3279 1.433 . S
C3272 H3268 0.929 . S
C3272 C3274 1.378 . S
C3272 C3276 1.350 . S
C3273 C3276 1.463 . S
C3273 C3278 1.350 . S
C3273 N3281 1.427 . S
C3274 H3265 0.930 . S
C3274 C3272 1.378 . S
C3274 C3275 1.367 . S
C3275 C3274 1.367 . S
C3275 C3277 1.433 . S
C3276 C3272 1.350 . S
C3276 C3273 1.463 . S
C3276 N3280 1.427 . S
C3277 H3267 0.929 . S
C3277 C3275 1.433 . S
C3277 N3280 1.384 . S
C3278 H3269 0.929 . S
C3278 C3270 1.378 . S
C3278 C3273 1.350 . S
C3279 H3266 0.929 . S
C3279 C3271 1.433 . S
C3279 N3281 1.384 . S
N3280 C3276 1.427 . S
N3280 C3277 1.384 . S
N3281 C3273 1.427 . S
N3281 C3279 1.384 . S
H3282 C3288 0.930 . S
H3283 C3292 0.930 . S
H3284 C3297 0.929 . S
H3285 C3295 0.929 . S
H3286 C3290 0.929 . S
H3287 C3296 0.929 . S
C3288 H3282 0.930 . S
C3288 C3289 1.367 . S
C3288 C3296 1.378 . S
C3289 C3288 1.367 . S
C3289 C3297 1.433 . S
C3290 H3286 0.929 . S
C3290 C3292 1.378 . S
C3290 C3294 1.350 . S
C3291 C3294 1.463 . S
C3291 C3296 1.350 . S
C3291 N3299 1.427 . S
C3292 H3283 0.930 . S
C3292 C3290 1.378 . S
C3292 C3293 1.367 . S
C3293 C3292 1.367 . S
C3293 C3295 1.433 . S
C3294 C3290 1.350 . S
C3294 C3291 1.463 . S
C3294 N3298 1.427 . S
C3295 H3285 0.929 . S
C3295 C3293 1.433 . S
C3295 N3298 1.384 . S
C3296 H3287 0.929 . S
C3296 C3288 1.378 . S
C3296 C3291 1.350 . S
C3297 H3284 0.929 . S
C3297 C3289 1.433 . S
C3297 N3299 1.384 . S
N3298 C3294 1.427 . S
N3298 C3295 1.384 . S
N3299 C3291 1.427 . S
N3299 C3297 1.384 . S
H3300 C3306 0.930 . S
H3301 C3310 0.930 . S
H3302 C3315 0.929 . S
H3303 C3313 0.929 . S
H3304 C3308 0.929 . S
H3305 C3314 0.929 . S
C3306 H3300 0.930 . S
C3306 C3307 1.367 . S
C3306 C3314 1.378 . S
C3307 C3306 1.367 . S
C3307 C3315 1.433 . S
C3308 H3304 0.929 . S
C3308 C3310 1.378 . S
C3308 C3312 1.350 . S
C3309 C3312 1.463 . S
C3309 C3314 1.350 . S
C3309 N3317 1.427 . S
C3310 H3301 0.930 . S
C3310 C3308 1.378 . S
C3310 C3311 1.367 . S
C3311 C3310 1.367 . S
C3311 C3313 1.433 . S
C3312 C3308 1.350 . S
C3312 C3309 1.463 . S
C3312 N3316 1.427 . S
C3313 H3303 0.929 . S
C3313 C3311 1.433 . S
C3313 N3316 1.384 . S
C3314 H3305 0.929 . S
C3314 C3306 1.378 . S
C3314 C3309 1.350 . S
C3315 H3302 0.929 . S
C3315 C3307 1.433 . S
C3315 N3317 1.384 . S
N3316 C3312 1.427 . S
N3316 C3313 1.384 . S
N3317 C3309 1.427 . S
N3317 C3315 1.384 . S
H3318 C3324 0.930 . S
H3319 C3328 0.930 . S
H3320 C3333 0.929 . S
H3321 C3331 0.929 . S
H3322 C3326 0.929 . S
H3323 C3332 0.929 . S
C3324 H3318 0.930 . S
C3324 C3325 1.367 . S
C3324 C3332 1.378 . S
C3325 C3324 1.367 . S
C3325 C3333 1.433 . S
C3326 H3322 0.929 . S
C3326 C3328 1.378 . S
C3326 C3330 1.350 . S
C3327 C3330 1.463 . S
C3327 C3332 1.350 . S
C3327 N3335 1.427 . S
C3328 H3319 0.930 . S
C3328 C3326 1.378 . S
C3328 C3329 1.367 . S
C3329 C3328 1.367 . S
C3329 C3331 1.433 . S
C3330 C3326 1.350 . S
C3330 C3327 1.463 . S
C3330 N3334 1.427 . S
C3331 H3321 0.929 . S
C3331 C3329 1.433 . S
C3331 N3334 1.384 . S
C3332 H3323 0.929 . S
C3332 C3324 1.378 . S
C3332 C3327 1.350 . S
C3333 H3320 0.929 . S
C3333 C3325 1.433 . S
C3333 N3335 1.384 . S
N3334 C3330 1.427 . S
N3334 C3331 1.384 . S
N3335 C3327 1.427 . S
N3335 C3333 1.384 . S
H3336 C3342 0.930 . S
H3337 C3346 0.930 . S
H3338 C3351 0.929 . S
H3339 C3349 0.929 . S
H3340 C3344 0.929 . S
H3341 C3350 0.929 . S
C3342 H3336 0.930 . S
C3342 C3343 1.367 . S
C3342 C3350 1.378 . S
C3343 C3342 1.367 . S
C3343 C3351 1.433 . S
C3344 H3340 0.929 . S
C3344 C3346 1.378 . S
C3344 C3348 1.350 . S
C3345 C3348 1.463 . S
C3345 C3350 1.350 . S
C3345 N3353 1.427 . S
C3346 H3337 0.930 . S
C3346 C3344 1.378 . S
C3346 C3347 1.367 . S
C3347 C3346 1.367 . S
C3347 C3349 1.433 . S
C3348 C3344 1.350 . S
C3348 C3345 1.463 . S
C3348 N3352 1.427 . S
C3349 H3339 0.929 . S
C3349 C3347 1.433 . S
C3349 N3352 1.384 . S
C3350 H3341 0.929 . S
C3350 C3342 1.378 . S
C3350 C3345 1.350 . S
C3351 H3338 0.929 . S
C3351 C3343 1.433 . S
C3351 N3353 1.384 . S
N3352 C3348 1.427 . S
N3352 C3349 1.384 . S
N3353 C3345 1.427 . S
N3353 C3351 1.384 . S
H3354 C3360 0.930 . S
H3355 C3364 0.930 1_556 S
H3356 C3369 0.929 . S
H3357 C3367 0.929 . S
H3358 C3362 0.929 1_556 S
H3359 C3368 0.929 . S
C3360 H3354 0.930 . S
C3360 C3361 1.367 . S
C3360 C3368 1.378 . S
C3361 C3360 1.367 . S
C3361 C3369 1.433 . S
C3362 H3358 0.929 1_554 S
C3362 C3364 1.378 . S
C3362 C3366 1.350 . S
C3363 C3366 1.463 . S
C3363 C3368 1.350 . S
C3363 N3371 1.427 . S
C3364 H3355 0.930 1_554 S
C3364 C3362 1.378 . S
C3364 C3365 1.367 . S
C3365 C3364 1.367 . S
C3365 C3367 1.433 . S
C3366 C3362 1.350 . S
C3366 C3363 1.463 . S
C3366 N3370 1.427 . S
C3367 H3357 0.929 . S
C3367 C3365 1.433 . S
C3367 N3370 1.384 . S
C3368 H3359 0.929 . S
C3368 C3360 1.378 . S
C3368 C3363 1.350 . S
C3369 H3356 0.929 . S
C3369 C3361 1.433 . S
C3369 N3371 1.384 . S
N3370 C3366 1.427 . S
N3370 C3367 1.384 . S
N3371 C3363 1.427 . S
N3371 C3369 1.384 . S
H3372 C3378 0.930 . S
H3373 C3382 0.930 . S
H3374 C3387 0.929 . S
H3375 C3385 0.929 . S
H3376 C3380 0.929 . S
H3377 C3386 0.929 . S
C3378 H3372 0.930 . S
C3378 C3379 1.367 . S
C3378 C3386 1.378 . S
C3379 C3378 1.367 . S
C3379 C3387 1.433 . S
C3380 H3376 0.929 . S
C3380 C3382 1.378 . S
C3380 C3384 1.350 . S
C3381 C3384 1.463 . S
C3381 C3386 1.350 . S
C3381 N3389 1.427 . S
C3382 H3373 0.930 . S
C3382 C3380 1.378 . S
C3382 C3383 1.367 . S
C3383 C3382 1.367 . S
C3383 C3385 1.433 . S
C3384 C3380 1.350 . S
C3384 C3381 1.463 . S
C3384 N3388 1.427 . S
C3385 H3375 0.929 . S
C3385 C3383 1.433 . S
C3385 N3388 1.384 . S
C3386 H3377 0.929 . S
C3386 C3378 1.378 . S
C3386 C3381 1.350 . S
C3387 H3374 0.929 . S
C3387 C3379 1.433 . S
C3387 N3389 1.384 . S
N3388 C3384 1.427 . S
N3388 C3385 1.384 . S
N3389 C3381 1.427 . S
N3389 C3387 1.384 . S
H3390 C3396 0.930 . S
H3391 C3400 0.930 . S
H3392 C3405 0.929 . S
H3393 C3403 0.929 . S
H3394 C3398 0.929 . S
H3395 C3404 0.929 . S
C3396 H3390 0.930 . S
C3396 C3397 1.367 . S
C3396 C3404 1.378 . S
C3397 C3396 1.367 . S
C3397 C3405 1.433 . S
C3398 H3394 0.929 . S
C3398 C3400 1.378 . S
C3398 C3402 1.350 . S
C3399 C3402 1.463 . S
C3399 C3404 1.350 . S
C3399 N3407 1.427 . S
C3400 H3391 0.930 . S
C3400 C3398 1.378 . S
C3400 C3401 1.367 . S
C3401 C3400 1.367 . S
C3401 C3403 1.433 . S
C3402 C3398 1.350 . S
C3402 C3399 1.463 . S
C3402 N3406 1.427 . S
C3403 H3393 0.929 . S
C3403 C3401 1.433 . S
C3403 N3406 1.384 . S
C3404 H3395 0.929 . S
C3404 C3396 1.378 . S
C3404 C3399 1.350 . S
C3405 H3392 0.929 . S
C3405 C3397 1.433 . S
C3405 N3407 1.384 . S
N3406 C3402 1.427 . S
N3406 C3403 1.384 . S
N3407 C3399 1.427 . S
N3407 C3405 1.384 . S
C1687 C109 2.048 . S
C1691 C403 2.051 . S
C1705 C61 1.620 . S
C1709 C476 1.826 . S
C1723 C74 1.835 . S
C1727 C571 1.885 . S
C1745 C646 1.405 . S
C1741 C96 1.507 . S
C1759 C25 1.434 . S
C1763 C730 1.330 . S
C1781 C823 1.888 . S
C1777 C40 1.853 . S
C1799 C896 1.923 . S
C1795 C46 1.918 . S
C1813 C5 1.738 . S
C1817 C991 2.119 . S
C1835 C392 1.594 . S
C1831 C229 1.336 . S
C1849 C249 0.849 . S
C1853 C478 0.816 . S
C1871 C560 0.973 . S
C1867 C271 0.843 . S
C1889 C655 1.729 . S
C1885 C172 1.685 1_556 S
C1903 C236 1.556 . S
C1907 C739 1.566 . S
C1925 C812 1.264 . S
C1921 C242 1.261 . S
C1943 C898 0.826 . S
C1939 C278 0.869 . S
C1961 C980 1.672 . S
C1957 C179 1.718 . S
C1979 C394 0.938 . S
C1975 C159 0.860 1_556 S
C1993 C285 1.399 1_554 S
C1997 C1064 1.582 . S
C2015 C1150 1.207 . S
C2011 C333 1.278 . S
C2033 C1243 0.785 . S
C2029 C320 0.788 . S
C2047 C123 0.960 . S
C2051 C982 0.932 . S
C2065 C138 1.401 . S
C2069 C562 1.332 . S
C2083 C326 1.725 . S
C2087 C1316 1.721 . S
C2105 C1411 0.835 . S
C2101 C298 0.829 . S
C2123 C391 2.023 . S
C2119 C67 1.954 . S
C2141 C1412 1.751 . S
C2137 C110 1.756 . S
C2155 C88 1.822 . S
C2159 C559 1.859 . S
C2173 C75 1.193 . S
C2177 C1330 1.316 . S
C2195 C742 1.291 . S
C2191 C11 1.384 . S
C2209 C47 1.632 . S
C2213 C1147 1.838 . S
C2231 C908 1.776 1_556 S
C2227 C32 1.713 . S
C2249 C1483 2.123 . S
C2245 C26 2.094 . S
C2267 C404 1.666 . S
C2263 C152 1.707 . S
C2285 C1414 0.831 . S
C2281 C319 0.852 . S
C2299 C124 0.961 . S
C2303 C572 0.944 . S
C2317 C284 1.716 . S
C2321 C1315 1.737 . S
C2335 C145 1.330 . S
C2339 C727 1.496 . S
C2357 C1160 1.137 . S
C2353 C312 1.122 . S
C2371 C117 0.712 . S
C2375 C910 0.707 1_545 S
C2389 C291 1.586 . S
C2393 C1496 1.571 . S
C2407 C194 1.028 . S
C2411 C406 1.001 . S
C2425 C180 1.564 . S
C2429 C1076 1.537 . S
C2443 C263 1.179 . S
C2447 C826 1.123 . S
C2461 C243 0.761 . S
C2465 C1231 0.724 . S
C2483 C1498 0.950 . S
C2479 C277 0.954 . S
C2497 C215 1.194 . S
C2501 C574 1.305 . S
C2519 C656 1.618 . S
C2515 C256 1.571 . S
C2537 C475 0.887 . S
C2533 C200 0.885 . S
C2551 C81 2.051 . S
C2555 C1579 2.052 . S
C2573 C1400 1.825 . S
C2569 C89 1.608 . S
C2587 C102 1.844 . S
C2591 C1663 1.888 . S
C2605 C68 1.507 . S
C2609 C1318 1.385 . S
C2623 C53 1.435 . S
C2627 C1066 1.340 . S
C2645 C1159 1.887 . S
C2641 C12 1.856 1_655 S
C2663 C1232 1.922 . S
C2659 C18 1.924 . S
C2681 C1495 2.122 . S
C2677 C33 1.758 . S
C2699 C1568 1.585 . S
C2695 C257 1.306 . S
C2713 C193 0.859 . S
C2717 C1402 0.836 . S
C2735 C1652 0.974 . S
C2731 C201 0.839 . S
C2753 C1327 1.729 . S
C2749 C214 1.685 . S
C2771 C1075 1.557 . S
C2767 C264 1.556 . S
C2785 C186 1.263 . S
C2789 C1148 1.266 . S
C2807 C1234 0.854 . S
C2803 C208 0.872 . S
C2821 C221 1.718 . S
C2825 C1484 1.672 . S
C2843 C1570 0.949 . S
C2839 C313 0.850 . S
C2857 C131 1.401 . S
C2861 C728 1.583 . S
C2879 C814 1.213 . S
C2875 C151 1.281 1_565 S
C2897 C907 0.786 . S
C2893 C166 0.779 . S
C2915 C1486 0.941 . S
C2911 C305 0.959 . S
C2929 C292 1.401 . S
C2933 C1654 1.332 . S
C2951 C644 1.720 . S
C2947 C144 1.725 . S
C2969 C487 0.831 . S
C2965 C116 0.820 . S
C2983 C95 1.957 . S
C2987 C1567 2.026 . S
C3005 C488 1.751 . S
C3001 C82 1.756 . S
C3019 C60 1.828 . S
C3023 C1651 1.860 . S
C3037 C103 1.191 . S
C3041 C658 1.313 . S
C3055 C39 1.379 . S
C3059 C1078 1.304 . S
C3077 C811 1.839 . S
C3073 C19 1.627 . S
C3091 C4 1.714 . S
C3095 C1244 1.792 . S
C3109 C54 2.096 . S
C3113 C979 2.121 . S
C3131 C1580 1.654 . S
C3127 C334 1.701 . S
C3145 C165 0.855 . S
C3149 C490 0.820 . S
C3167 C1664 0.944 1_655 S
C3163 C306 0.960 . S
C3181 C130 1.721 . S
C3185 C643 1.734 . S
C3199 C327 1.304 . S
C3203 C1063 1.500 . S
C3221 C824 1.132 . S
C3217 C158 1.130 . S
C3235 C299 0.757 . S
C3239 C1246 0.744 . S
C3257 C992 1.567 . S
C3253 C137 1.579 . S
C3275 C1582 0.999 . S
C3271 C250 1.030 . S
C3293 C740 1.545 1_565 S
C3289 C222 1.562 . S
C3307 C235 1.171 . S
C3311 C1162 1.135 . S
C3329 C895 0.731 . S
C3325 C187 0.718 . S
C3343 C207 0.942 . S
C3347 C994 0.962 . S
C3361 C173 1.175 . S
C3365 C1666 1.292 . S
C3383 C1328 1.623 . S
C3379 C228 1.558 . S
C3401 C1399 0.886 . S
C3397 C270 0.881 . S
