# Generated by pormake.
# Topology bcu-b, (8,8)-cn, num edge types: 1
# Building blocks:
#     Node 0, Type 0, BuildingBlock: VETTIZ_charged_sbu_0, # of connection points: 8
#     Node 1, Type 1, BuildingBlock: TAGTUT_clean_sbu_3, # of connection points: 8
#     Edge 2, Type (0, 1), BuildingBlock: UVAHIK_clean_linker_0, # of connection points: 2
#     Edge 3, Type (0, 1), BuildingBlock: UVAHIK_clean_linker_0, # of connection points: 2
#     Edge 4, Type (0, 1), BuildingBlock: UVAHIK_clean_linker_0, # of connection points: 2
#     Edge 5, Type (0, 1), BuildingBlock: UVAHIK_clean_linker_0, # of connection points: 2
#     Edge 6, Type (0, 1), BuildingBlock: UVAHIK_clean_linker_0, # of connection points: 2
#     Edge 7, Type (0, 1), BuildingBlock: UVAHIK_clean_linker_0, # of connection points: 2
#     Edge 8, Type (0, 1), BuildingBlock: UVAHIK_clean_linker_0, # of connection points: 2
#     Edge 9, Type (0, 1), BuildingBlock: UVAHIK_clean_linker_0, # of connection points: 2
# Relax obj value: 0.021
# Max RMSD: 0.104
# Mean RMSD: 0.073
data_MOF--net-bcu-b--node1-VETTIZ_charged_sbu_0--node2-TAGTUT_clean_sbu_3--edge1-UVAHIK_clean_linker_0
_symmetry_space_group_name_H-M    P1
_symmetry_Int_Tables_number       1
_symmetry_cell_setting            triclinic
loop_
_symmetry_equiv_pos_as_xyz
'x, y, z'
_cell_length_a     24.448118
_cell_length_b     24.40822
_cell_length_c     26.201742
_cell_angle_alpha  90.382294
_cell_angle_beta   89.909167
_cell_angle_gamma 98.184995
loop_
_atom_site_label
_atom_site_type_symbol
_atom_site_fract_x
_atom_site_fract_y
_atom_site_fract_z
_atom_type_partial_charge
Fe0 Fe 0.04202 0.89363 -0.00938 0.0
O1 O 0.04215 0.97365 -0.00616 0.0
Fe2 Fe 0.01333 0.01342 0.93111 0.0
Fe3 Fe 0.00516 0.01161 0.04893 0.0
O4 O 0.0431 0.97407 -0.01096 0.0
O5 O 0.97556 0.05113 0.98604 0.0
O6 O 0.9739 0.05023 -0.00892 0.0
Fe7 Fe 0.9766 0.13139 -0.01058 0.0
C8 C 0.93767 0.89949 0.05438 0.0
O9 O 0.09338 0.91096 0.05286 0.0
O10 O 0.04587 0.96722 0.10238 0.0
O11 O 0.04046 0.14843 0.93815 0.0
O12 O 0.08193 0.07296 0.93294 0.0
O13 O 0.05723 0.96775 0.88073 0.0
O14 O 0.09991 0.91184 0.93406 0.0
O15 O 0.0731 0.07074 0.05202 0.0
O16 O 0.03344 0.14703 0.04835 0.0
C17 C 0.09393 0.93538 0.8906 0.0
O18 O 0.92667 0.1155 0.92574 0.0
O19 O 0.9765 0.06008 0.87751 0.0
O20 O 0.97939 0.87618 0.04283 0.0
O21 O 0.9372 0.95118 0.04868 0.0
C22 C 0.08452 0.93598 0.09548 0.0
C23 C 0.07351 0.12184 0.06111 0.0
C24 C 0.92362 0.08947 0.08896 0.0
O25 O 0.96066 0.05741 0.09917 0.0
O26 O 0.91809 0.11356 0.04563 0.0
C27 C 0.08172 0.12454 0.92625 0.0
O28 O 0.94489 0.95445 0.92596 0.0
O29 O 0.98387 0.8776 0.93265 0.0
C30 C 0.9395 0.09322 0.88289 0.0
C31 C 0.94403 0.90277 0.91882 0.0
C32 C 0.59994 0.58301 0.56219 0.0
C33 C 0.65541 0.38509 0.52998 0.0
C34 C 0.58789 0.39764 0.38197 0.0
Mg35 Mg 0.49556 0.6367 0.51383 0.0
Mg36 Mg 0.38237 0.55418 0.48196 0.0
O37 O 0.45854 0.57269 0.47211 0.0
Mg38 Mg 0.50675 0.51588 0.48843 0.0
O39 O 0.55903 0.46314 0.50447 0.0
Mg40 Mg 0.6277 0.49946 0.46972 0.0
Mg41 Mg 0.5371 0.38886 0.4873 0.0
C42 C 0.4072 0.44919 0.41837 0.0
O43 O 0.44486 0.46622 0.54466 0.0
O44 O 0.43621 0.6897 0.47139 0.0
O45 O 0.45799 0.37864 0.5258 0.0
O46 O 0.4317 0.62411 0.57882 0.0
O47 O 0.36121 0.629 0.45008 0.0
O48 O 0.3621 0.55746 0.56141 0.0
O49 O 0.57191 0.55902 0.43295 0.0
O50 O 0.55882 0.64619 0.44957 0.0
C51 C 0.58394 0.61129 0.42541 0.0
C52 C 0.38797 0.67818 0.4508 0.0
O53 O 0.45951 0.45991 0.42673 0.0
O54 O 0.67266 0.43369 0.51225 0.0
O55 O 0.37189 0.47672 0.4392 0.0
O56 O 0.61848 0.44019 0.40004 0.0
O57 O 0.60549 0.36145 0.52459 0.0
O58 O 0.54686 0.37351 0.40722 0.0
O59 O 0.54858 0.57494 0.55 0.0
O60 O 0.63509 0.5575 0.53895 0.0
C61 C 0.38668 0.5941 0.5916 0.0
C62 C 0.43172 0.41339 0.54909 0.0
C63 C 0.12703 0.20918 0.09655 0.0
C64 C 0.12003 0.15129 0.09111 0.0
C65 C 0.16893 0.23621 0.12774 0.0
C66 C 0.27783 0.28373 0.17969 0.0
H67 H 0.27955 0.22525 0.31693 0.0
C68 C 0.41763 0.39135 0.34039 0.0
C69 C 0.38602 0.40443 0.38243 0.0
C70 C 0.39417 0.35374 0.30317 0.0
C71 C 0.28002 0.24161 0.27856 0.0
H72 H 0.15263 0.07653 0.11312 0.0
H73 H 0.22509 0.1238 0.16785 0.0
H74 H 0.22144 0.17407 0.25179 0.0
H75 H 0.30673 0.38598 0.42042 0.0
H76 H 0.26642 0.31971 0.35628 0.0
H77 H 0.33514 0.35224 0.20717 0.0
C78 C 0.19819 0.14817 0.14796 0.0
C79 C 0.24699 0.21229 0.24126 0.0
C80 C 0.15676 0.12121 0.11643 0.0
C81 C 0.33186 0.37703 0.38815 0.0
C82 C 0.30891 0.33883 0.35165 0.0
C83 C 0.31146 0.31274 0.21689 0.0
C84 C 0.20425 0.20583 0.15445 0.0
C85 C 0.24447 0.23377 0.19183 0.0
C86 C 0.33932 0.32778 0.30824 0.0
C87 C 0.31165 0.29262 0.26699 0.0
H88 H 0.0996 0.23354 0.0774 0.0
H89 H 0.17236 0.28069 0.13245 0.0
H90 H 0.27695 0.30094 0.14174 0.0
H91 H 0.4595 0.41194 0.3351 0.0
H92 H 0.41844 0.34566 0.27005 0.0
C93 C 0.90734 0.15392 0.15836 0.0
C94 C 0.88854 0.10599 0.13011 0.0
C95 C 0.86992 0.18147 0.18524 0.0
C96 C 0.73227 0.17414 0.24059 0.0
H97 H 0.74131 0.3265 0.19627 0.0
C98 C 0.58348 0.3156 0.32275 0.0
C99 C 0.60849 0.36895 0.3372 0.0
C100 C 0.61137 0.28241 0.29088 0.0
C101 C 0.7384 0.28431 0.20961 0.0
H102 H 0.81692 0.04763 0.10917 0.0
H103 H 0.75133 0.09473 0.15819 0.0
H104 H 0.80535 0.26802 0.16167 0.0
H105 H 0.68015 0.43103 0.32519 0.0
H106 H 0.72877 0.37347 0.27125 0.0
H107 H 0.66707 0.19081 0.29032 0.0
C108 C 0.79492 0.11094 0.15946 0.0
C109 C 0.77513 0.2508 0.18966 0.0
C110 C 0.83235 0.08382 0.13184 0.0
C111 C 0.65962 0.39006 0.31524 0.0
C112 C 0.68762 0.35682 0.28392 0.0
C113 C 0.69606 0.20801 0.26138 0.0
C114 C 0.81314 0.16129 0.18456 0.0
C115 C 0.77292 0.19568 0.20543 0.0
C116 C 0.66493 0.30174 0.27291 0.0
C117 C 0.69912 0.26387 0.24668 0.0
H118 H 0.95032 0.17236 0.15645 0.0
H119 H 0.88497 0.22003 0.20459 0.0
H120 H 0.72966 0.13167 0.25319 0.0
H121 H 0.5439 0.2981 0.33852 0.0
H122 H 0.5918 0.24082 0.28203 0.0
C123 C 0.88514 0.80747 0.07647 0.0
C124 C 0.89106 0.86552 0.08031 0.0
C125 C 0.84668 0.77443 0.10654 0.0
C126 C 0.72595 0.77754 0.19228 0.0
H127 H 0.78218 0.65541 0.25902 0.0
C128 C 0.6379 0.69076 0.38054 0.0
C129 C 0.62331 0.63312 0.38497 0.0
C130 C 0.66849 0.71334 0.33909 0.0
C131 C 0.76563 0.68878 0.24006 0.0
H132 H 0.85925 0.9345 0.11672 0.0
H133 H 0.79264 0.87686 0.16999 0.0
H134 H 0.83667 0.70677 0.19212 0.0
H135 H 0.6323 0.55382 0.35052 0.0
H136 H 0.68734 0.5939 0.27772 0.0
H137 H 0.65599 0.76085 0.2418 0.0
C138 C 0.81729 0.85677 0.14325 0.0
C139 C 0.79668 0.7182 0.20167 0.0
C140 C 0.85556 0.8899 0.11281 0.0
C141 C 0.64277 0.59836 0.34814 0.0
C142 C 0.67404 0.62123 0.3065 0.0
C143 C 0.69519 0.7484 0.23082 0.0
C144 C 0.81343 0.79864 0.1414 0.0
C145 C 0.77772 0.76371 0.1781 0.0
C146 C 0.68577 0.67902 0.30104 0.0
C147 C 0.71533 0.70462 0.25589 0.0
H148 H 0.91136 0.78743 0.05116 0.0
H149 H 0.84388 0.72986 0.10328 0.0
H150 H 0.70959 0.81153 0.1742 0.0
H151 H 0.62441 0.7189 0.40848 0.0
H152 H 0.67819 0.75796 0.33652 0.0
C153 C 0.11283 0.94815 0.18814 0.0
C154 C 0.12127 0.92727 0.13898 0.0
C155 C 0.1469 0.93747 0.22888 0.0
C156 C 0.19796 0.8712 0.31055 0.0
H157 H 0.35174 0.85546 0.28737 0.0
C158 C 0.30442 0.71224 0.41544 0.0
C159 C 0.36126 0.72229 0.42646 0.0
C160 C 0.27882 0.75091 0.38904 0.0
C161 C 0.30924 0.86065 0.29508 0.0
H162 H 0.17374 0.88032 0.09421 0.0
H163 H 0.23166 0.8613 0.16458 0.0
H164 H 0.30169 0.90099 0.22369 0.0
H165 H 0.43536 0.78224 0.42001 0.0
H166 H 0.39032 0.85032 0.3733 0.0
H167 H 0.20524 0.82999 0.38153 0.0
C168 C 0.19939 0.8865 0.17185 0.0
C169 C 0.2803 0.88616 0.25824 0.0
C170 C 0.16549 0.89694 0.13141 0.0
C171 C 0.39155 0.77316 0.41199 0.0
C172 C 0.36581 0.81201 0.38509 0.0
C173 C 0.22695 0.84588 0.34747 0.0
C174 C 0.19033 0.90608 0.22122 0.0
C175 C 0.22369 0.88964 0.26456 0.0
C176 C 0.30921 0.80091 0.37275 0.0
C177 C 0.28228 0.8382 0.3392 0.0
H178 H 0.07949 0.97201 0.19537 0.0
H179 H 0.13902 0.95346 0.26643 0.0
H180 H 0.15447 0.87314 0.31675 0.0
H181 H 0.27955 0.67376 0.42632 0.0
H182 H 0.23548 0.74039 0.37956 0.0
C183 C 0.10096 0.88888 0.80684 0.0
C184 C 0.12724 0.91714 0.84887 0.0
C185 C 0.12965 0.85535 0.77621 0.0
C186 C 0.26725 0.82025 0.74348 0.0
H187 H 0.19298 0.66886 0.73791 0.0
C188 C 0.38431 0.64903 0.67193 0.0
C189 C 0.35625 0.61271 0.63573 0.0
C190 C 0.35536 0.68208 0.70259 0.0
C191 C 0.21415 0.71095 0.73864 0.0
H192 H 0.20446 0.93655 0.88978 0.0
H193 H 0.25521 0.87985 0.8352 0.0
H194 H 0.14478 0.74163 0.77287 0.0
H195 H 0.27526 0.57805 0.60739 0.0
H196 H 0.225 0.63615 0.65999 0.0
H197 H 0.33624 0.7903 0.70857 0.0
C198 C 0.21256 0.88294 0.82604 0.0
C199 C 0.1864 0.75266 0.75843 0.0
C200 C 0.18368 0.91555 0.85712 0.0
C201 C 0.29818 0.6056 0.6349 0.0
C202 C 0.26927 0.63923 0.66508 0.0
C203 C 0.29478 0.77873 0.72318 0.0
C204 C 0.18514 0.85053 0.78682 0.0
C205 C 0.21282 0.80763 0.7613 0.0
C206 C 0.29784 0.67994 0.69727 0.0
C207 C 0.26879 0.72341 0.72087 0.0
H208 H 0.05718 0.8888 0.80042 0.0
H209 H 0.10779 0.83109 0.74586 0.0
H210 H 0.28846 0.86233 0.74513 0.0
H211 H 0.42904 0.65492 0.67389 0.0
H212 H 0.37849 0.71153 0.7284 0.0
C213 C 0.13464 0.21515 0.90032 0.0
C214 C 0.12712 0.15703 0.89745 0.0
C215 C 0.17098 0.24675 0.8672 0.0
C216 C 0.28321 0.23826 0.77241 0.0
H217 H 0.22925 0.36597 0.7136 0.0
C218 C 0.37038 0.33304 0.58595 0.0
C219 C 0.38867 0.39037 0.58604 0.0
C220 C 0.33792 0.30858 0.62563 0.0
C221 C 0.24505 0.33079 0.73011 0.0
H222 H 0.15365 0.08638 0.85911 0.0
H223 H 0.21628 0.14136 0.80056 0.0
H224 H 0.1773 0.31491 0.78216 0.0
H225 H 0.3838 0.46745 0.62637 0.0
H226 H 0.32562 0.42434 0.69569 0.0
H227 H 0.34987 0.25314 0.71898 0.0
C228 C 0.19482 0.16273 0.82894 0.0
C229 C 0.21552 0.30159 0.76955 0.0
C230 C 0.15884 0.13108 0.86251 0.0
C231 C 0.37038 0.42323 0.6251 0.0
C232 C 0.33731 0.39858 0.66486 0.0
C233 C 0.31231 0.26706 0.7327 0.0
C234 C 0.2003 0.22099 0.83004 0.0
C235 C 0.23389 0.2545 0.79078 0.0
C236 C 0.32245 0.34078 0.66625 0.0
C237 C 0.2931 0.31309 0.71066 0.0
H238 H 0.11118 0.23634 0.92729 0.0
H239 H 0.17518 0.29143 0.87005 0.0
H240 H 0.29926 0.20302 0.78848 0.0
H241 H 0.38288 0.30647 0.55613 0.0
H242 H 0.3259 0.2641 0.62513 0.0
C243 C 0.85921 0.12246 0.83737 0.0
C244 C 0.91404 0.11168 0.83639 0.0
C245 C 0.83698 0.14605 0.79523 0.0
C246 C 0.87109 0.24418 0.69733 0.0
H247 H 0.73317 0.17946 0.63473 0.0
C248 C 0.75022 0.36293 0.55258 0.0
C249 C 0.69265 0.35474 0.55963 0.0
C250 C 0.78344 0.33034 0.57923 0.0
C251 C 0.77159 0.1983 0.65196 0.0
H252 H 0.98871 0.11663 0.79085 0.0
H253 H 0.94998 0.15984 0.71738 0.0
H254 H 0.77903 0.12534 0.69489 0.0
H255 H 0.62518 0.30839 0.60206 0.0
H256 H 0.68244 0.25372 0.64902 0.0
H257 H 0.86181 0.31855 0.65723 0.0
C258 C 0.9242 0.14892 0.75047 0.0
C259 C 0.79791 0.16708 0.68601 0.0
C260 C 0.94605 0.12394 0.7922 0.0
C261 C 0.66929 0.315 0.59487 0.0
C262 C 0.70218 0.28318 0.6216 0.0
C263 C 0.84419 0.27592 0.66382 0.0
C264 C 0.86966 0.16049 0.75194 0.0
C265 C 0.84704 0.19025 0.70992 0.0
C266 C 0.7595 0.2895 0.6135 0.0
C267 C 0.79313 0.25387 0.64213 0.0
H268 H 0.83384 0.11348 0.87107 0.0
H269 H 0.79486 0.15498 0.79716 0.0
H270 H 0.90896 0.26282 0.71568 0.0
H271 H 0.76927 0.39332 0.52565 0.0
H272 H 0.82756 0.33634 0.57228 0.0
C273 C 0.89469 0.81481 0.88059 0.0
C274 C 0.89656 0.87163 0.89081 0.0
C275 C 0.85144 0.78607 0.85206 0.0
C276 C 0.74658 0.80759 0.75591 0.0
H277 H 0.69423 0.65325 0.78394 0.0
C278 C 0.59626 0.66448 0.62165 0.0
C279 C 0.61981 0.61752 0.60687 0.0
C280 C 0.61931 0.69809 0.66222 0.0
C281 C 0.70806 0.6965 0.77589 0.0
H282 H 0.85328 0.94247 0.87982 0.0
H283 H 0.77764 0.89208 0.83043 0.0
H284 H 0.75542 0.70763 0.84467 0.0
H285 H 0.68392 0.56749 0.62433 0.0
H286 H 0.72281 0.62486 0.69483 0.0
H287 H 0.70006 0.79559 0.68629 0.0
C288 C 0.81007 0.86993 0.84401 0.0
C289 C 0.74345 0.72755 0.81046 0.0
C290 C 0.85338 0.89874 0.87259 0.0
C291 C 0.6651 0.60368 0.63444 0.0
C292 C 0.68717 0.63629 0.67521 0.0
C293 C 0.7108 0.77648 0.72139 0.0
C294 C 0.80877 0.8133 0.83305 0.0
C295 C 0.76474 0.78294 0.80007 0.0
C296 C 0.66509 0.68416 0.68927 0.0
C297 C 0.69278 0.72012 0.73025 0.0
H298 H 0.92716 0.79254 0.89388 0.0
H299 H 0.85237 0.74271 0.84368 0.0
H300 H 0.76235 0.85005 0.74652 0.0
H301 H 0.56135 0.67604 0.60101 0.0
H302 H 0.60159 0.73491 0.67236 0.0
loop_
_geom_bond_atom_site_label_1
_geom_bond_atom_site_label_2
_geom_bond_distance
_geom_bond_site_symmetry_2
_ccdc_geom_bond_type
Fe0 O1 1.896 . S
Fe0 O4 1.703 1_554 S
Fe0 O9 2.088 1_655 S
Fe0 O14 1.926 1_654 S
Fe0 O20 2.088 . S
Fe0 O29 1.926 1_554 S
O1 Fe0 1.896 . S
O1 Fe3 1.716 1_665 S
Fe2 O4 1.886 1_445 S
Fe2 O5 1.715 . S
Fe2 O12 1.935 . S
Fe2 O13 2.077 1_545 S
Fe2 O19 1.935 1_455 S
Fe2 O28 2.077 1_445 S
Fe3 O1 1.716 1_445 S
Fe3 O6 1.886 . S
Fe3 O10 1.935 1_545 S
Fe3 O15 2.077 . S
Fe3 O21 1.935 1_445 S
Fe3 O25 2.077 1_455 S
O4 Fe0 1.703 1_556 S
O4 Fe2 1.886 1_665 S
O5 Fe2 1.715 . S
O5 Fe7 1.892 . S
O6 Fe3 1.886 . S
O6 Fe7 1.708 1_554 S
Fe7 O5 1.892 . S
Fe7 O6 1.708 1_556 S
Fe7 O11 2.083 . S
Fe7 O16 1.930 1_556 S
Fe7 O18 2.083 1_455 S
Fe7 O26 1.930 1_456 S
C8 O20 1.381 . S
C8 O21 1.421 . S
O9 Fe0 2.088 1_455 S
O9 C22 1.381 . S
O10 Fe3 1.935 1_565 S
O10 C22 1.421 . S
O11 Fe7 2.083 . S
O11 C27 1.381 . S
O12 Fe2 1.935 . S
O12 C27 1.421 . S
O13 Fe2 2.077 1_565 S
O13 C17 1.381 . S
O14 Fe0 1.926 1_456 S
O14 C17 1.421 . S
O15 Fe3 2.077 . S
O15 C23 1.381 . S
O16 Fe7 1.930 1_554 S
O16 C23 1.421 . S
C17 O13 1.381 . S
C17 O14 1.421 . S
O18 Fe7 2.083 1_655 S
O18 C30 1.381 . S
O19 Fe2 1.935 1_655 S
O19 C30 1.421 . S
O20 Fe0 2.088 . S
O20 C8 1.381 . S
O21 Fe3 1.935 1_665 S
O21 C8 1.421 . S
C22 O9 1.381 . S
C22 O10 1.421 . S
C23 O15 1.381 . S
C23 O16 1.421 . S
C24 O25 1.381 . S
C24 O26 1.421 . S
O25 Fe3 2.077 1_655 S
O25 C24 1.381 . S
O26 Fe7 1.930 1_654 S
O26 C24 1.421 . S
C27 O11 1.381 . S
C27 O12 1.421 . S
O28 Fe2 2.077 1_665 S
O28 C31 1.381 . S
O29 Fe0 1.926 1_556 S
O29 C31 1.421 . S
C30 O18 1.381 . S
C30 O19 1.421 . S
C31 O28 1.381 . S
C31 O29 1.421 . S
C32 O59 1.312 . S
C32 O60 1.208 . S
C33 O54 1.331 . S
C33 O57 1.244 . S
C34 O56 1.264 . S
C34 O58 1.273 . S
Mg35 O37 1.936 . S
Mg35 O44 2.081 . S
Mg35 O46 2.023 . S
Mg35 O50 2.031 . S
Mg35 O59 2.291 . S
Mg36 O37 1.963 . S
Mg36 O47 1.942 . S
Mg36 O48 1.955 . S
Mg36 O55 1.986 . S
O37 Mg35 1.936 . S
O37 Mg36 1.963 . S
O37 Mg38 1.915 . S
Mg38 O37 1.915 . S
Mg38 O39 1.915 . S
Mg38 O43 2.013 . S
Mg38 O49 2.114 . S
Mg38 O53 2.013 . S
Mg38 O59 2.114 . S
O39 Mg38 1.915 . S
O39 Mg40 1.936 . S
O39 Mg41 1.963 . S
Mg40 O39 1.936 . S
Mg40 O49 2.291 . S
Mg40 O54 2.081 . S
Mg40 O56 2.023 . S
Mg40 O60 2.031 . S
Mg41 O39 1.963 . S
Mg41 O45 1.986 . S
Mg41 O57 1.942 . S
Mg41 O58 1.955 . S
C42 O53 1.191 . S
C42 O55 1.307 . S
O43 Mg38 2.013 . S
O43 C62 1.191 . S
O44 Mg35 2.081 . S
O44 C52 1.331 . S
O45 Mg41 1.986 . S
O45 C62 1.307 . S
O46 Mg35 2.023 . S
O46 C61 1.264 . S
O47 Mg36 1.942 . S
O47 C52 1.244 . S
O48 Mg36 1.955 . S
O48 C61 1.273 . S
O49 Mg38 2.114 . S
O49 Mg40 2.291 . S
O49 C51 1.312 . S
O50 Mg35 2.031 . S
O50 C51 1.208 . S
C51 O49 1.312 . S
C51 O50 1.208 . S
C52 O44 1.331 . S
C52 O47 1.244 . S
O53 Mg38 2.013 . S
O53 C42 1.191 . S
O54 C33 1.331 . S
O54 Mg40 2.081 . S
O55 Mg36 1.986 . S
O55 C42 1.307 . S
O56 C34 1.264 . S
O56 Mg40 2.023 . S
O57 C33 1.244 . S
O57 Mg41 1.942 . S
O58 C34 1.273 . S
O58 Mg41 1.955 . S
O59 C32 1.312 . S
O59 Mg35 2.291 . S
O59 Mg38 2.114 . S
O60 C32 1.208 . S
O60 Mg40 2.031 . S
C61 O46 1.264 . S
C61 O48 1.273 . S
C62 O43 1.191 . S
C62 O45 1.307 . S
C63 C64 1.349 . S
C63 C65 1.327 . S
C63 H88 0.950 . S
C64 C63 1.349 . S
C64 C80 1.349 . S
C65 C63 1.327 . S
C65 C84 1.429 . S
C65 H89 0.950 . S
C66 C83 1.574 . S
C66 C85 1.368 . S
C66 H90 0.949 . S
H67 C71 0.949 . S
C68 C69 1.349 . S
C68 C70 1.327 . S
C68 H91 0.950 . S
C69 C68 1.349 . S
C69 C81 1.349 . S
C70 C68 1.327 . S
C70 C86 1.429 . S
C70 H92 0.950 . S
C71 H67 0.949 . S
C71 C79 1.574 . S
C71 C87 1.368 . S
H72 C80 0.950 . S
H73 C78 0.950 . S
H74 C79 0.949 . S
H75 C81 0.950 . S
H76 C82 0.950 . S
H77 C83 0.949 . S
C78 H73 0.950 . S
C78 C80 1.327 . S
C78 C84 1.429 . S
C79 C71 1.574 . S
C79 H74 0.949 . S
C79 C85 1.368 . S
C80 C64 1.349 . S
C80 H72 0.950 . S
C80 C78 1.327 . S
C81 C69 1.349 . S
C81 H75 0.950 . S
C81 C82 1.327 . S
C82 H76 0.950 . S
C82 C81 1.327 . S
C82 C86 1.429 . S
C83 C66 1.574 . S
C83 H77 0.949 . S
C83 C87 1.368 . S
C84 C65 1.429 . S
C84 C78 1.429 . S
C84 C85 1.523 . S
C85 C66 1.368 . S
C85 C79 1.368 . S
C85 C84 1.523 . S
C86 C70 1.429 . S
C86 C82 1.429 . S
C86 C87 1.523 . S
C87 C71 1.368 . S
C87 C83 1.368 . S
C87 C86 1.523 . S
H88 C63 0.950 . S
H89 C65 0.950 . S
H90 C66 0.949 . S
H91 C68 0.950 . S
H92 C70 0.950 . S
C93 C94 1.349 . S
C93 C95 1.327 . S
C93 H118 0.950 . S
C94 C93 1.349 . S
C94 C110 1.349 . S
C95 C93 1.327 . S
C95 C114 1.429 . S
C95 H119 0.950 . S
C96 C113 1.574 . S
C96 C115 1.368 . S
C96 H120 0.949 . S
H97 C101 0.949 . S
C98 C99 1.349 . S
C98 C100 1.327 . S
C98 H121 0.950 . S
C99 C98 1.349 . S
C99 C111 1.349 . S
C100 C98 1.327 . S
C100 C116 1.429 . S
C100 H122 0.950 . S
C101 H97 0.949 . S
C101 C109 1.574 . S
C101 C117 1.368 . S
H102 C110 0.950 . S
H103 C108 0.950 . S
H104 C109 0.949 . S
H105 C111 0.950 . S
H106 C112 0.950 . S
H107 C113 0.949 . S
C108 H103 0.950 . S
C108 C110 1.327 . S
C108 C114 1.429 . S
C109 C101 1.574 . S
C109 H104 0.949 . S
C109 C115 1.368 . S
C110 C94 1.349 . S
C110 H102 0.950 . S
C110 C108 1.327 . S
C111 C99 1.349 . S
C111 H105 0.950 . S
C111 C112 1.327 . S
C112 H106 0.950 . S
C112 C111 1.327 . S
C112 C116 1.429 . S
C113 C96 1.574 . S
C113 H107 0.949 . S
C113 C117 1.368 . S
C114 C95 1.429 . S
C114 C108 1.429 . S
C114 C115 1.523 . S
C115 C96 1.368 . S
C115 C109 1.368 . S
C115 C114 1.523 . S
C116 C100 1.429 . S
C116 C112 1.429 . S
C116 C117 1.523 . S
C117 C101 1.368 . S
C117 C113 1.368 . S
C117 C116 1.523 . S
H118 C93 0.950 . S
H119 C95 0.950 . S
H120 C96 0.949 . S
H121 C98 0.950 . S
H122 C100 0.950 . S
C123 C124 1.349 . S
C123 C125 1.327 . S
C123 H148 0.950 . S
C124 C123 1.349 . S
C124 C140 1.349 . S
C125 C123 1.327 . S
C125 C144 1.429 . S
C125 H149 0.950 . S
C126 C143 1.574 . S
C126 C145 1.368 . S
C126 H150 0.949 . S
H127 C131 0.949 . S
C128 C129 1.349 . S
C128 C130 1.327 . S
C128 H151 0.950 . S
C129 C128 1.349 . S
C129 C141 1.349 . S
C130 C128 1.327 . S
C130 C146 1.429 . S
C130 H152 0.950 . S
C131 H127 0.949 . S
C131 C139 1.574 . S
C131 C147 1.368 . S
H132 C140 0.950 . S
H133 C138 0.950 . S
H134 C139 0.949 . S
H135 C141 0.950 . S
H136 C142 0.950 . S
H137 C143 0.949 . S
C138 H133 0.950 . S
C138 C140 1.327 . S
C138 C144 1.429 . S
C139 C131 1.574 . S
C139 H134 0.949 . S
C139 C145 1.368 . S
C140 C124 1.349 . S
C140 H132 0.950 . S
C140 C138 1.327 . S
C141 C129 1.349 . S
C141 H135 0.950 . S
C141 C142 1.327 . S
C142 H136 0.950 . S
C142 C141 1.327 . S
C142 C146 1.429 . S
C143 C126 1.574 . S
C143 H137 0.949 . S
C143 C147 1.368 . S
C144 C125 1.429 . S
C144 C138 1.429 . S
C144 C145 1.523 . S
C145 C126 1.368 . S
C145 C139 1.368 . S
C145 C144 1.523 . S
C146 C130 1.429 . S
C146 C142 1.429 . S
C146 C147 1.523 . S
C147 C131 1.368 . S
C147 C143 1.368 . S
C147 C146 1.523 . S
H148 C123 0.950 . S
H149 C125 0.950 . S
H150 C126 0.949 . S
H151 C128 0.950 . S
H152 C130 0.950 . S
C153 C154 1.349 . S
C153 C155 1.327 . S
C153 H178 0.950 . S
C154 C153 1.349 . S
C154 C170 1.349 . S
C155 C153 1.327 . S
C155 C174 1.429 . S
C155 H179 0.950 . S
C156 C173 1.574 . S
C156 C175 1.368 . S
C156 H180 0.949 . S
H157 C161 0.949 . S
C158 C159 1.349 . S
C158 C160 1.327 . S
C158 H181 0.950 . S
C159 C158 1.349 . S
C159 C171 1.349 . S
C160 C158 1.327 . S
C160 C176 1.429 . S
C160 H182 0.950 . S
C161 H157 0.949 . S
C161 C169 1.574 . S
C161 C177 1.368 . S
H162 C170 0.950 . S
H163 C168 0.950 . S
H164 C169 0.949 . S
H165 C171 0.950 . S
H166 C172 0.950 . S
H167 C173 0.949 . S
C168 H163 0.950 . S
C168 C170 1.327 . S
C168 C174 1.429 . S
C169 C161 1.574 . S
C169 H164 0.949 . S
C169 C175 1.368 . S
C170 C154 1.349 . S
C170 H162 0.950 . S
C170 C168 1.327 . S
C171 C159 1.349 . S
C171 H165 0.950 . S
C171 C172 1.327 . S
C172 H166 0.950 . S
C172 C171 1.327 . S
C172 C176 1.429 . S
C173 C156 1.574 . S
C173 H167 0.949 . S
C173 C177 1.368 . S
C174 C155 1.429 . S
C174 C168 1.429 . S
C174 C175 1.523 . S
C175 C156 1.368 . S
C175 C169 1.368 . S
C175 C174 1.523 . S
C176 C160 1.429 . S
C176 C172 1.429 . S
C176 C177 1.523 . S
C177 C161 1.368 . S
C177 C173 1.368 . S
C177 C176 1.523 . S
H178 C153 0.950 . S
H179 C155 0.950 . S
H180 C156 0.949 . S
H181 C158 0.950 . S
H182 C160 0.950 . S
C183 C184 1.349 . S
C183 C185 1.327 . S
C183 H208 0.950 . S
C184 C183 1.349 . S
C184 C200 1.349 . S
C185 C183 1.327 . S
C185 C204 1.429 . S
C185 H209 0.950 . S
C186 C203 1.574 . S
C186 C205 1.368 . S
C186 H210 0.949 . S
H187 C191 0.949 . S
C188 C189 1.349 . S
C188 C190 1.327 . S
C188 H211 0.950 . S
C189 C188 1.349 . S
C189 C201 1.349 . S
C190 C188 1.327 . S
C190 C206 1.429 . S
C190 H212 0.950 . S
C191 H187 0.949 . S
C191 C199 1.574 . S
C191 C207 1.368 . S
H192 C200 0.950 . S
H193 C198 0.950 . S
H194 C199 0.949 . S
H195 C201 0.950 . S
H196 C202 0.950 . S
H197 C203 0.949 . S
C198 H193 0.950 . S
C198 C200 1.327 . S
C198 C204 1.429 . S
C199 C191 1.574 . S
C199 H194 0.949 . S
C199 C205 1.368 . S
C200 C184 1.349 . S
C200 H192 0.950 . S
C200 C198 1.327 . S
C201 C189 1.349 . S
C201 H195 0.950 . S
C201 C202 1.327 . S
C202 H196 0.950 . S
C202 C201 1.327 . S
C202 C206 1.429 . S
C203 C186 1.574 . S
C203 H197 0.949 . S
C203 C207 1.368 . S
C204 C185 1.429 . S
C204 C198 1.429 . S
C204 C205 1.523 . S
C205 C186 1.368 . S
C205 C199 1.368 . S
C205 C204 1.523 . S
C206 C190 1.429 . S
C206 C202 1.429 . S
C206 C207 1.523 . S
C207 C191 1.368 . S
C207 C203 1.368 . S
C207 C206 1.523 . S
H208 C183 0.950 . S
H209 C185 0.950 . S
H210 C186 0.949 . S
H211 C188 0.950 . S
H212 C190 0.950 . S
C213 C214 1.349 . S
C213 C215 1.327 . S
C213 H238 0.950 . S
C214 C213 1.349 . S
C214 C230 1.349 . S
C215 C213 1.327 . S
C215 C234 1.429 . S
C215 H239 0.950 . S
C216 C233 1.574 . S
C216 C235 1.368 . S
C216 H240 0.949 . S
H217 C221 0.949 . S
C218 C219 1.349 . S
C218 C220 1.327 . S
C218 H241 0.950 . S
C219 C218 1.349 . S
C219 C231 1.349 . S
C220 C218 1.327 . S
C220 C236 1.429 . S
C220 H242 0.950 . S
C221 H217 0.949 . S
C221 C229 1.574 . S
C221 C237 1.368 . S
H222 C230 0.950 . S
H223 C228 0.950 . S
H224 C229 0.949 . S
H225 C231 0.950 . S
H226 C232 0.950 . S
H227 C233 0.949 . S
C228 H223 0.950 . S
C228 C230 1.327 . S
C228 C234 1.429 . S
C229 C221 1.574 . S
C229 H224 0.949 . S
C229 C235 1.368 . S
C230 C214 1.349 . S
C230 H222 0.950 . S
C230 C228 1.327 . S
C231 C219 1.349 . S
C231 H225 0.950 . S
C231 C232 1.327 . S
C232 H226 0.950 . S
C232 C231 1.327 . S
C232 C236 1.429 . S
C233 C216 1.574 . S
C233 H227 0.949 . S
C233 C237 1.368 . S
C234 C215 1.429 . S
C234 C228 1.429 . S
C234 C235 1.523 . S
C235 C216 1.368 . S
C235 C229 1.368 . S
C235 C234 1.523 . S
C236 C220 1.429 . S
C236 C232 1.429 . S
C236 C237 1.523 . S
C237 C221 1.368 . S
C237 C233 1.368 . S
C237 C236 1.523 . S
H238 C213 0.950 . S
H239 C215 0.950 . S
H240 C216 0.949 . S
H241 C218 0.950 . S
H242 C220 0.950 . S
C243 C244 1.349 . S
C243 C245 1.327 . S
C243 H268 0.950 . S
C244 C243 1.349 . S
C244 C260 1.349 . S
C245 C243 1.327 . S
C245 C264 1.429 . S
C245 H269 0.950 . S
C246 C263 1.574 . S
C246 C265 1.368 . S
C246 H270 0.949 . S
H247 C251 0.949 . S
C248 C249 1.349 . S
C248 C250 1.327 . S
C248 H271 0.950 . S
C249 C248 1.349 . S
C249 C261 1.349 . S
C250 C248 1.327 . S
C250 C266 1.429 . S
C250 H272 0.950 . S
C251 H247 0.949 . S
C251 C259 1.574 . S
C251 C267 1.368 . S
H252 C260 0.950 . S
H253 C258 0.950 . S
H254 C259 0.949 . S
H255 C261 0.950 . S
H256 C262 0.950 . S
H257 C263 0.949 . S
C258 H253 0.950 . S
C258 C260 1.327 . S
C258 C264 1.429 . S
C259 C251 1.574 . S
C259 H254 0.949 . S
C259 C265 1.368 . S
C260 C244 1.349 . S
C260 H252 0.950 . S
C260 C258 1.327 . S
C261 C249 1.349 . S
C261 H255 0.950 . S
C261 C262 1.327 . S
C262 H256 0.950 . S
C262 C261 1.327 . S
C262 C266 1.429 . S
C263 C246 1.574 . S
C263 H257 0.949 . S
C263 C267 1.368 . S
C264 C245 1.429 . S
C264 C258 1.429 . S
C264 C265 1.523 . S
C265 C246 1.368 . S
C265 C259 1.368 . S
C265 C264 1.523 . S
C266 C250 1.429 . S
C266 C262 1.429 . S
C266 C267 1.523 . S
C267 C251 1.368 . S
C267 C263 1.368 . S
C267 C266 1.523 . S
H268 C243 0.950 . S
H269 C245 0.950 . S
H270 C246 0.949 . S
H271 C248 0.950 . S
H272 C250 0.950 . S
C273 C274 1.349 . S
C273 C275 1.327 . S
C273 H298 0.950 . S
C274 C273 1.349 . S
C274 C290 1.349 . S
C275 C273 1.327 . S
C275 C294 1.429 . S
C275 H299 0.950 . S
C276 C293 1.574 . S
C276 C295 1.368 . S
C276 H300 0.949 . S
H277 C281 0.949 . S
C278 C279 1.349 . S
C278 C280 1.327 . S
C278 H301 0.950 . S
C279 C278 1.349 . S
C279 C291 1.349 . S
C280 C278 1.327 . S
C280 C296 1.429 . S
C280 H302 0.950 . S
C281 H277 0.949 . S
C281 C289 1.574 . S
C281 C297 1.368 . S
H282 C290 0.950 . S
H283 C288 0.950 . S
H284 C289 0.949 . S
H285 C291 0.950 . S
H286 C292 0.950 . S
H287 C293 0.949 . S
C288 H283 0.950 . S
C288 C290 1.327 . S
C288 C294 1.429 . S
C289 C281 1.574 . S
C289 H284 0.949 . S
C289 C295 1.368 . S
C290 C274 1.349 . S
C290 H282 0.950 . S
C290 C288 1.327 . S
C291 C279 1.349 . S
C291 H285 0.950 . S
C291 C292 1.327 . S
C292 H286 0.950 . S
C292 C291 1.327 . S
C292 C296 1.429 . S
C293 C276 1.574 . S
C293 H287 0.949 . S
C293 C297 1.368 . S
C294 C275 1.429 . S
C294 C288 1.429 . S
C294 C295 1.523 . S
C295 C276 1.368 . S
C295 C289 1.368 . S
C295 C294 1.523 . S
C296 C280 1.429 . S
C296 C292 1.429 . S
C296 C297 1.523 . S
C297 C281 1.368 . S
C297 C293 1.368 . S
C297 C296 1.523 . S
H298 C273 0.950 . S
H299 C275 0.950 . S
H300 C276 0.949 . S
H301 C278 0.950 . S
H302 C280 0.950 . S
C64 C23 1.267 . S
C69 C42 1.274 . S
C94 C24 1.629 . S
C99 C34 1.641 . S
C124 C8 1.314 . S
C129 C51 1.303 . S
C154 C22 1.559 . S
C159 C52 1.572 . S
C184 C17 1.623 . S
C189 C61 1.642 . S
C219 C62 1.274 . S
C214 C27 1.264 . S
C244 C30 1.551 . S
C249 C33 1.574 . S
C279 C32 1.303 . S
C274 C31 1.320 . S
