# Generated by pormake.
# Topology nia, (6,6)-cn, num edge types: 1
# Building blocks:
#     Node 0, Type 0, BuildingBlock: KUMBOL_clean_sbu_1, # of connection points: 6
#     Node 1, Type 0, BuildingBlock: KUMBOL_clean_sbu_1, # of connection points: 6
#     Node 2, Type 1, BuildingBlock: MIDCAF_clean_sbu_0, # of connection points: 6
#     Node 3, Type 1, BuildingBlock: MIDCAF_clean_sbu_0, # of connection points: 6
#     Edge 4, Type (0, 1), BuildingBlock: FUNLAD_clean_linker_1, # of connection points: 2
#     Edge 5, Type (0, 1), BuildingBlock: FUNLAD_clean_linker_1, # of connection points: 2
#     Edge 6, Type (0, 1), BuildingBlock: FUNLAD_clean_linker_1, # of connection points: 2
#     Edge 7, Type (0, 1), BuildingBlock: FUNLAD_clean_linker_1, # of connection points: 2
#     Edge 8, Type (0, 1), BuildingBlock: FUNLAD_clean_linker_1, # of connection points: 2
#     Edge 9, Type (0, 1), BuildingBlock: FUNLAD_clean_linker_1, # of connection points: 2
#     Edge 10, Type (0, 1), BuildingBlock: FUNLAD_clean_linker_1, # of connection points: 2
#     Edge 11, Type (0, 1), BuildingBlock: FUNLAD_clean_linker_1, # of connection points: 2
#     Edge 12, Type (0, 1), BuildingBlock: FUNLAD_clean_linker_1, # of connection points: 2
#     Edge 13, Type (0, 1), BuildingBlock: FUNLAD_clean_linker_1, # of connection points: 2
#     Edge 14, Type (0, 1), BuildingBlock: FUNLAD_clean_linker_1, # of connection points: 2
#     Edge 15, Type (0, 1), BuildingBlock: FUNLAD_clean_linker_1, # of connection points: 2
# Relax obj value: 0.170
# Max RMSD: 0.278
# Mean RMSD: 0.201
data_MOF--net-nia--node1-KUMBOL_clean_sbu_1--node2-MIDCAF_clean_sbu_0--edge1-FUNLAD_clean_linker_1
_symmetry_space_group_name_H-M    P1
_symmetry_Int_Tables_number       1
_symmetry_cell_setting            triclinic
loop_
_symmetry_equiv_pos_as_xyz
'x, y, z'
_cell_length_a     29.372773
_cell_length_b     29.339512
_cell_length_c     32.946279
_cell_angle_alpha  89.438498
_cell_angle_beta   90.740398
_cell_angle_gamma 135.53218
loop_
_atom_site_label
_atom_site_type_symbol
_atom_site_fract_x
_atom_site_fract_y
_atom_site_fract_z
_atom_type_partial_charge
C0 C 0.02026 0.06161 0.87146 0.0
C1 C 0.92516 0.96885 0.83381 0.0
C2 C 0.95637 0.00142 0.87089 0.0
C3 C 0.96077 0.99584 0.79763 0.0
C4 C 0.05507 0.09089 0.83495 0.0
C5 C 0.02561 0.05684 0.79818 0.0
N6 N 0.04604 0.09424 0.9072 0.0
C7 C 0.10447 0.15798 0.9082 0.0
C8 C 0.11716 0.15473 0.83625 0.0
C9 C 0.14161 0.1887 0.87297 0.0
Gd10 Gd 0.03549 0.98335 0.05394 0.0
Gd11 Gd 0.98104 0.03865 0.96499 0.0
N12 N 0.92296 0.97778 0.90616 0.0
C13 C 0.85828 0.91213 0.83398 0.0
C14 C 0.85701 0.92536 0.90616 0.0
C15 C 0.82381 0.89109 0.8702 0.0
H16 H 0.83046 0.90937 0.93421 0.0
H17 H 0.77177 0.84854 0.87044 0.0
H18 H 0.18964 0.0783 0.01944 0.0
H19 H 0.1228 0.18488 0.93638 0.0
H20 H 0.30008 0.18173 0.03666 0.0
H21 H 0.83245 0.88573 0.80614 0.0
H22 H 0.93788 0.97128 0.76886 0.0
H23 H 0.94478 0.94579 0.13282 0.0
H24 H 0.14556 0.17897 0.8089 0.0
H25 H 0.1887 0.23873 0.87408 0.0
H26 H 0.27627 0.24402 0.16209 0.0
H27 H 0.05165 0.07837 0.76982 0.0
H28 H 0.06399 0.09927 0.22032 0.0
H29 H 0.95641 0.99318 0.19871 0.0
N30 N 0.0436 0.02544 0.11681 0.0
C31 C 0.10342 0.08239 0.12865 0.0
C32 C 0.99153 0.99237 0.14191 0.0
C33 C 0.0589 0.07883 0.19132 0.0
C34 C -0.0019 0.01897 0.17924 0.0
C35 C 0.11267 0.11096 0.16619 0.0
H36 H 0.1832 0.19296 0.2062 0.0
N37 N 0.14473 0.08203 0.06762 0.0
C38 C 0.15543 0.11187 0.10317 0.0
C39 C 0.27088 0.19644 0.09033 0.0
C40 C 0.21867 0.17008 0.11531 0.0
C41 C 0.19632 0.10516 0.04492 0.0
C42 C 0.25971 0.1633 0.05528 0.0
O43 O 0.93828 0.93718 0.95866 0.0
O44 O 0.00317 0.93043 0.99403 0.0
O45 O 0.08417 0.96025 0.08268 0.0
O46 O 0.97964 0.89003 0.08326 0.0
O47 O 0.90063 0.95868 1.00723 0.0
O48 O 0.9287 0.92171 0.05504 0.0
O49 O 0.00821 0.03772 0.06233 0.0
O50 O 0.05679 0.11167 0.01149 0.0
O51 O 0.93471 0.06088 0.99726 0.0
O52 O 0.95677 0.08441 0.93352 0.0
O53 O 0.0842 0.01281 0.9928 0.0
O54 O 0.08367 0.08794 0.9765 0.0
C55 C 0.95978 0.91078 0.96594 0.0
C56 C 0.8875 0.92092 0.03751 0.0
C57 C 0.02574 0.84961 0.0825 0.0
C58 C 0.04386 0.78334 0.10257 0.0
C59 C -0.00236 0.76881 0.03615 0.0
C60 C 0.00154 0.818 0.04479 0.0
C61 C 0.01853 0.75137 0.06479 0.0
C62 C 0.04634 0.83182 0.11135 0.0
C63 C 0.03022 0.90142 0.09221 0.0
C64 C 0.22808 0.19922 0.15241 0.0
C65 C 0.17514 0.17004 0.17762 0.0
H66 H 0.32014 0.24105 0.09855 0.0
C67 C 0.04557 0.09779 0.05026 0.0
C68 C 0.10176 0.05912 0.96875 0.0
C69 C 0.95498 0.14985 0.97209 0.0
C70 C 0.93699 0.21816 0.95969 0.0
C71 C 0.02939 0.25845 1.00045 0.0
C72 C 0.0111 0.20012 0.99453 0.0
C73 C 0.99243 0.26738 0.98332 0.0
C74 C 0.91812 0.15894 0.95464 0.0
C75 C 0.93437 0.08786 0.96576 0.0
H76 H 0.97836 0.74411 1.00716 0.0
H77 H 0.98542 0.83109 0.02219 0.0
H78 H 0.01409 0.71246 0.05742 0.0
H79 H 0.06544 0.85661 0.1404 0.0
H80 H 0.0724 0.29688 0.01825 0.0
H81 H 0.04047 0.19407 0.00738 0.0
H82 H 0.00755 0.3131 0.98819 0.0
H83 H 0.8744 0.11935 0.93776 0.0
C84 C 0.09313 0.1424 0.60128 0.0
C85 C 0.16227 0.24903 0.57037 0.0
C86 C 0.10711 0.18108 0.56882 0.0
C87 C 0.20411 0.27686 0.60428 0.0
C88 C 0.13351 0.17035 0.63609 0.0
C89 C 0.18966 0.23764 0.63711 0.0
N90 N 0.03921 0.07733 0.59908 0.0
C91 C 0.0205 0.0378 0.63146 0.0
C92 C 0.1157 0.12989 0.66903 0.0
C93 C 0.05852 0.06342 0.66686 0.0
Gd94 Gd 0.00673 0.95284 0.46407 0.0
Gd95 Gd 0.97649 0.03851 0.53948 0.0
N96 N 0.06485 0.15282 0.53686 0.0
C97 C 0.17254 0.28725 0.53844 0.0
C98 C 0.07158 0.19067 0.5077 0.0
C99 C 0.1263 0.25803 0.50737 0.0
H100 H 0.03421 0.1695 0.48506 0.0
H101 H 0.13217 0.28751 0.48353 0.0
H102 H 0.89676 0.80128 0.50014 0.0
H103 H 0.97656 0.98635 0.6297 0.0
H104 H 0.79112 0.69287 0.47892 0.0
H105 H 0.2145 0.33954 0.53836 0.0
H106 H 0.24702 0.32887 0.60579 0.0
H107 H 0.07294 0.0439 0.37835 0.0
H108 H 0.14531 0.14953 0.69637 0.0
H109 H 0.04395 0.03188 0.69232 0.0
H110 H 0.75462 0.72928 0.34527 0.0
H111 H 0.22175 0.25994 0.66335 0.0
H112 H 0.92783 0.93797 0.28477 0.0
H113 H 0.03865 0.03678 0.30801 0.0
N114 N 0.98066 0.95203 0.39594 0.0
C115 C 0.92162 0.895 0.38266 0.0
C116 C 0.02349 0.00162 0.36921 0.0
C117 C 0.94214 0.94121 0.31594 0.0
C118 C 0.00462 0.99731 0.32906 0.0
C119 C 0.90021 0.88855 0.34254 0.0
H120 H 0.82128 0.82365 0.29928 0.0
N121 N 0.90732 0.84829 0.44624 0.0
C122 C 0.88432 0.84138 0.40833 0.0
C123 C 0.78999 0.72704 0.42103 0.0
C124 C 0.82432 0.78067 0.39494 0.0
C125 C 0.87616 0.79555 0.4709 0.0
C126 C 0.81653 0.73433 0.45894 0.0
O127 O 0.05478 0.04176 0.55242 0.0
O128 O 0.09341 0.05198 0.48956 0.0
O129 O 0.05578 0.92635 0.48553 0.0
O130 O 0.04428 0.93084 0.42131 0.0
O131 O 0.99063 0.06378 0.47232 0.0
O132 O 0.05901 0.05625 0.44831 0.0
O133 O 0.90716 0.90745 0.48077 0.0
O134 O 0.91422 0.98978 0.48281 0.0
O135 O 0.94645 0.08482 0.5579 0.0
O136 O 0.888 0.9846 0.57394 0.0
O137 O 0.98751 0.92102 0.53003 0.0
O138 O 0.92611 0.93655 0.55695 0.0
C139 C 0.10237 0.0632 0.5287 0.0
C140 C 0.03518 0.081 0.44702 0.0
C141 C 0.13474 0.95247 0.44142 0.0
C142 C 0.20458 0.94304 0.41424 0.0
C143 C 0.25104 0.04766 0.43792 0.0
C144 C 0.18912 0.01918 0.44783 0.0
C145 C 0.25896 0.01003 0.42118 0.0
C146 C 0.14274 0.91471 0.42496 0.0
C147 C 0.06874 0.92169 0.4491 0.0
C148 C 0.80108 0.77526 0.35589 0.0
C149 C 0.83897 0.82906 0.32974 0.0
H150 H 0.74372 0.67957 0.41186 0.0
C151 C 0.8853 0.932 0.47008 0.0
C152 C 0.94683 0.90874 0.55696 0.0
C153 C 0.88947 0.04798 0.61964 0.0
C154 C 0.86758 0.09804 0.66251 0.0
C155 C 0.89035 0.04017 0.69308 0.0
C156 C 0.89652 0.0256 0.65459 0.0
C157 C 0.87598 0.07616 0.69717 0.0
C158 C 0.87443 0.08361 0.62388 0.0
C159 C 0.89708 0.03468 0.5785 0.0
H160 H 0.29304 0.09911 0.44314 0.0
H161 H 0.1836 0.04909 0.46016 0.0
H162 H 0.30763 0.03335 0.41447 0.0
H163 H 0.1004 0.86317 0.4198 0.0
H164 H 0.89581 0.02267 0.71985 0.0
H165 H 0.90598 0.99629 0.65229 0.0
H166 H 0.8695 0.08483 0.72738 0.0
H167 H 0.86789 0.10008 0.59695 0.0
Zn168 Zn 0.37505 0.67358 0.17339 0.0
Zn169 Zn 0.33512 0.62991 0.32717 0.0
Zn170 Zn 0.35661 0.64475 0.24887 0.0
C171 C 0.47116 0.71965 0.31465 0.0
C172 C 0.27432 0.50845 0.29618 0.0
O173 O 0.3158 0.68355 0.2278 0.0
O174 O 0.34504 0.71445 0.16388 0.0
C175 C 0.49431 0.73326 0.20185 0.0
O176 O 0.45387 0.70466 0.27709 0.0
O177 O 0.42927 0.69573 0.34184 0.0
O178 O 0.28445 0.53656 0.32899 0.0
O179 O 0.29591 0.54028 0.26243 0.0
O180 O 0.46791 0.72826 0.16935 0.0
O181 O 0.46088 0.70658 0.23471 0.0
O182 O 0.29828 0.54918 0.21937 0.0
O183 O 0.31734 0.58235 0.15552 0.0
C184 C 0.29002 0.537 0.18101 0.0
O185 O 0.31886 0.68444 0.27116 0.0
O186 O 0.29187 0.65788 0.3358 0.0
C187 C 0.31613 0.70801 0.19477 0.0
C188 C 0.29681 0.68586 0.30429 0.0
Zn189 Zn 0.64374 0.36255 0.84025 0.0
Zn190 Zn 0.64802 0.34701 0.67632 0.0
Zn191 Zn 0.64244 0.35489 0.75901 0.0
C192 C 0.72502 0.47855 0.69922 0.0
C193 C 0.51805 0.27307 0.69735 0.0
O194 O 0.67719 0.31512 0.78714 0.0
O195 O 0.67868 0.326 0.85368 0.0
C196 C 0.7205 0.488 0.81117 0.0
O197 O 0.70683 0.45419 0.73519 0.0
O198 O 0.70592 0.44263 0.66868 0.0
O199 O 0.5533 0.28821 0.66749 0.0
O200 O 0.54286 0.29291 0.73336 0.0
O201 O 0.70228 0.45731 0.84426 0.0
O202 O 0.70258 0.45766 0.77714 0.0
O203 O 0.54005 0.29125 0.77622 0.0
O204 O 0.54844 0.30545 0.84282 0.0
C205 C 0.51384 0.27957 0.81094 0.0
O206 O 0.68613 0.3196 0.7447 0.0
O207 O 0.68639 0.31166 0.67788 0.0
C208 C 0.68834 0.30788 0.82336 0.0
C209 C 0.6997 0.30589 0.71298 0.0
H210 H 0.06699 0.77579 0.16514 0.0
C211 C 0.06831 0.76747 0.13327 0.0
H212 H 0.10002 0.74121 0.09117 0.0
H213 H 0.29537 0.81646 0.23766 0.0
H214 H 0.34045 0.92505 0.23592 0.0
H215 H 0.28821 0.9484 0.19479 0.0
H216 H 0.19027 0.86329 0.156 0.0
C217 C 0.09674 0.74844 0.12283 0.0
C218 C 0.12325 0.73436 0.15325 0.0
C219 C 0.1816 0.78552 0.17483 0.0
C220 C 0.21311 0.7727 0.19736 0.0
C221 C 0.27054 0.82405 0.21932 0.0
C222 C 0.29674 0.8865 0.21867 0.0
C223 C 0.2672 0.89957 0.19562 0.0
C224 C 0.21065 0.85003 0.17361 0.0
H225 H 0.29721 0.76092 0.16633 0.0
C226 C 0.28207 0.72764 0.19097 0.0
H227 H 0.20868 0.66147 0.23356 0.0
H228 H 0.00616 0.62409 0.12182 0.0
H229 H 0.95776 0.51421 0.12732 0.0
H230 H 0.01366 0.49238 0.16507 0.0
H231 H 0.11792 0.57993 0.19763 0.0
C232 C 0.22775 0.69893 0.21124 0.0
C233 C 0.18721 0.70937 0.19737 0.0
C234 C 0.12562 0.65721 0.17927 0.0
C235 C 0.09371 0.66983 0.15711 0.0
C236 C 0.03282 0.61718 0.13857 0.0
C237 C 0.00441 0.55391 0.14161 0.0
C238 C 0.03586 0.54162 0.16289 0.0
C239 C 0.09583 0.59245 0.18145 0.0
H240 H 0.20584 0.11666 0.52676 0.0
C241 C 0.1655 0.09481 0.54685 0.0
H242 H 0.13275 0.07194 0.60713 0.0
H243 H 0.34924 0.10502 0.68758 0.0
H244 H 0.2514 0.99172 0.70103 0.0
H245 H 0.14605 0.93995 0.6713 0.0
H246 H 0.13788 0.00095 0.62792 0.0
C247 C 0.1739 0.09717 0.58732 0.0
C248 C 0.23719 0.12969 0.60666 0.0
C249 C 0.24091 0.09327 0.63238 0.0
C250 C 0.3017 0.12309 0.6496 0.0
C251 C 0.30434 0.0851 0.67411 0.0
C252 C 0.24852 0.0199 0.682 0.0
C253 C 0.1892 0.99077 0.66529 0.0
C254 C 0.1852 0.02657 0.64053 0.0
H255 H 0.41935 0.22555 0.71516 0.0
C256 C 0.44896 0.23568 0.68992 0.0
H257 H 0.45446 0.23025 0.62656 0.0
H258 H 0.24466 0.2176 0.56689 0.0
H259 H 0.34135 0.33198 0.5565 0.0
H260 H 0.44731 0.38262 0.58436 0.0
H261 H 0.45661 0.31894 0.62335 0.0
C262 C 0.42402 0.2179 0.65194 0.0
C263 C 0.35851 0.18924 0.64116 0.0
C264 C 0.35394 0.22668 0.61772 0.0
C265 C 0.29315 0.19718 0.60088 0.0
C266 C 0.28981 0.23665 0.57912 0.0
C267 C 0.34498 0.3027 0.57321 0.0
C268 C 0.40457 0.3312 0.58894 0.0
C269 C 0.40928 0.29397 0.61105 0.0
H270 H 0.0475 0.13037 0.11071 0.0
C271 C 0.06732 0.14702 0.0803 0.0
H272 H 0.13387 0.22844 0.04239 0.0
H273 H 0.09292 0.34358 0.19628 0.0
H274 H 0.97853 0.26403 0.17742 0.0
H275 H 0.93527 0.18283 0.12402 0.0
H276 H 0.00561 0.18042 0.08935 0.0
C277 C 0.11126 0.2108 0.07206 0.0
C278 C 0.1359 0.25931 0.10433 0.0
C279 C 0.09371 0.26025 0.12397 0.0
C280 C 0.11887 0.30819 0.154 0.0
C281 C 0.07624 0.30864 0.17295 0.0
C282 C 0.01055 0.26323 0.16247 0.0
C283 C 0.98616 0.21738 0.1325 0.0
C284 C 0.02708 0.21605 0.11313 0.0
H285 H 0.26078 0.47096 0.13207 0.0
C286 C 0.25414 0.47235 0.16432 0.0
H287 H 0.20377 0.41441 0.21659 0.0
H288 H 0.23007 0.27075 0.07349 0.0
H289 H 0.34322 0.34857 0.0942 0.0
H290 H 0.38492 0.42792 0.1486 0.0
H291 H 0.31361 0.43085 0.18181 0.0
C292 C 0.21569 0.41645 0.18524 0.0
C293 C 0.18609 0.35602 0.16341 0.0
C294 C 0.22715 0.35227 0.14585 0.0
C295 C 0.20254 0.30512 0.11551 0.0
C296 C 0.24583 0.30517 0.09693 0.0
C297 C 0.31099 0.34951 0.10861 0.0
C298 C 0.33447 0.3942 0.1392 0.0
C299 C 0.29323 0.39569 0.15778 0.0
H300 H 0.82198 0.12875 0.63928 0.0
C301 C 0.84764 0.13231 0.66526 0.0
H302 H 0.88638 0.17351 0.72373 0.0
H303 H 0.8156 0.32388 0.63353 0.0
H304 H 0.90352 0.36913 0.58775 0.0
H305 H 0.96191 0.33757 0.59307 0.0
H306 H 0.93243 0.26029 0.64417 0.0
C307 C 0.85994 0.16774 0.69749 0.0
C308 C 0.83375 0.19638 0.69891 0.0
C309 C 0.85225 0.24248 0.66937 0.0
C310 C 0.81921 0.26137 0.66674 0.0
C311 C 0.83863 0.30733 0.63678 0.0
C312 C 0.88927 0.33397 0.61038 0.0
C313 C 0.92209 0.31615 0.61334 0.0
C314 C 0.90423 0.27123 0.64254 0.0
H315 H 0.75912 0.29765 0.7461 0.0
C316 C 0.73304 0.28554 0.71798 0.0
H317 H 0.70709 0.24147 0.66053 0.0
H318 H 0.79599 0.1178 0.76429 0.0
H319 H 0.71315 0.07791 0.81308 0.0
H320 H 0.6511 0.10522 0.80632 0.0
H321 H 0.67205 0.17299 0.75112 0.0
C322 C 0.73185 0.25256 0.68927 0.0
C323 C 0.76839 0.235 0.6941 0.0
C324 C 0.75259 0.19185 0.7253 0.0
C325 C 0.78658 0.17395 0.72827 0.0
C326 C 0.7712 0.13233 0.76029 0.0
C327 C 0.72365 0.10896 0.78849 0.0
C328 C 0.68889 0.12451 0.78477 0.0
C329 C 0.70219 0.16446 0.75322 0.0
H330 H 0.79219 0.88548 0.04484 0.0
C331 C 0.82436 0.88235 0.05732 0.0
H332 H 0.84208 0.85047 0.10738 0.0
H333 H 0.68427 0.91277 0.18397 0.0
H334 H 0.78972 0.02533 0.17954 0.0
H335 H 0.88315 0.05268 0.14904 0.0
H336 H 0.87141 0.96799 0.12209 0.0
C337 C 0.81133 0.85475 0.09396 0.0
C338 C 0.75945 0.83736 0.11934 0.0
C339 C 0.76799 0.88737 0.13624 0.0
C340 C 0.71469 0.87159 0.15452 0.0
C341 C 0.72342 0.92244 0.16964 0.0
C342 C 0.78368 0.98707 0.1675 0.0
C343 C 0.83628 0.00247 0.15034 0.0
C344 C 0.82882 0.95342 0.13482 0.0
H345 H 0.57874 0.75388 0.22473 0.0
C346 C 0.56101 0.76274 0.20012 0.0
H347 H 0.57769 0.80061 0.14105 0.0
H348 H 0.73177 0.73047 0.09658 0.0
H349 H 0.62827 0.61751 0.10431 0.0
H350 H 0.53525 0.58955 0.13604 0.0
H351 H 0.54504 0.6739 0.16039 0.0
C352 C 0.5951 0.79118 0.16565 0.0
C353 C 0.65382 0.8059 0.15695 0.0
C354 C 0.64716 0.75548 0.1436 0.0
C355 C 0.70041 0.77142 0.12491 0.0
C356 C 0.69253 0.72068 0.11087 0.0
C357 C 0.6335 0.65578 0.11513 0.0
C358 C 0.58114 0.64005 0.13302 0.0
C359 C 0.58749 0.68907 0.14696 0.0
H360 H 0.86883 0.82918 0.59733 0.0
C361 C 0.91672 0.85515 0.58581 0.0
H362 H 0.99258 0.86124 0.5842 0.0
H363 H 0.76632 0.63067 0.71947 0.0
H364 H 0.79859 0.71885 0.75951 0.0
H365 H 0.88193 0.83208 0.73462 0.0
H366 H 0.93277 0.85739 0.6691 0.0
C367 C 0.94452 0.83491 0.59557 0.0
C368 C 0.90628 0.77054 0.61524 0.0
C369 C 0.87926 0.75695 0.65434 0.0
C370 C 0.83378 0.69211 0.66964 0.0
C371 C 0.80373 0.67928 0.70731 0.0
C372 C 0.82132 0.72948 0.73045 0.0
C373 C 0.86807 0.79319 0.71638 0.0
C374 C 0.89658 0.80701 0.67867 0.0
H375 H 0.80799 0.58219 0.71575 0.0
C376 C 0.77021 0.54921 0.6932 0.0
H377 H 0.72823 0.53817 0.63725 0.0
H378 H 0.95442 0.7812 0.54072 0.0
H379 H 0.93143 0.69569 0.50403 0.0
H380 H 0.85886 0.58509 0.53264 0.0
H381 H 0.80805 0.55933 0.59785 0.0
C382 C 0.7666 0.57235 0.6593 0.0
C383 C 0.8185 0.64183 0.64664 0.0
C384 C 0.85007 0.65686 0.60914 0.0
C385 C 0.89337 0.72102 0.5932 0.0
C386 C 0.92181 0.7337 0.55476 0.0
C387 C 0.90908 0.68495 0.53324 0.0
C388 C 0.86814 0.6227 0.5493 0.0
C389 C 0.83896 0.60854 0.58674 0.0
H390 H 0.17131 0.84864 0.40411 0.0
C391 C 0.21019 0.90042 0.39743 0.0
H392 H 0.299 0.97273 0.36613 0.0
H393 H 0.36299 0.80706 0.38465 0.0
H394 H 0.44413 0.89822 0.42926 0.0
H395 H 0.44367 0.98028 0.44353 0.0
H396 H 0.36231 0.9719 0.41308 0.0
C397 C 0.25949 0.9217 0.37406 0.0
C398 C 0.26391 0.87636 0.36149 0.0
C399 C 0.31202 0.88225 0.37938 0.0
C400 C 0.31185 0.83458 0.37149 0.0
C401 C 0.36041 0.84153 0.38987 0.0
C402 C 0.40738 0.89369 0.4155 0.0
C403 C 0.40715 0.93991 0.42351 0.0
C404 C 0.36012 0.93448 0.40582 0.0
H405 H 0.30056 0.75935 0.28173 0.0
C406 C 0.28444 0.72643 0.30662 0.0
H407 H 0.24836 0.69922 0.36642 0.0
H408 H 0.17298 0.8578 0.31636 0.0
H409 H 0.09219 0.76704 0.2711 0.0
H410 H 0.08711 0.68028 0.26106 0.0
H411 H 0.1644 0.68499 0.29485 0.0
C412 C 0.26138 0.72939 0.3403 0.0
C413 C 0.26352 0.78111 0.34577 0.0
C414 C 0.21696 0.77658 0.32657 0.0
C415 C 0.21801 0.82506 0.3338 0.0
C416 C 0.17276 0.821 0.31298 0.0
C417 C 0.12637 0.76935 0.28686 0.0
C418 C 0.1236 0.72056 0.28113 0.0
C419 C 0.16833 0.72392 0.30062 0.0
H420 H 0.18137 0.13734 0.92826 0.0
C421 C 0.15339 0.08821 0.93874 0.0
H422 H 0.14256 0.00891 0.93663 0.0
H423 H 0.3432 0.21076 0.78496 0.0
H424 H 0.2443 0.16116 0.74872 0.0
H425 H 0.13774 0.07938 0.78195 0.0
H426 H 0.12937 0.04844 0.85249 0.0
C427 C 0.16913 0.05759 0.92585 0.0
C428 C 0.22947 0.09356 0.9021 0.0
C429 C 0.2335 0.11113 0.86107 0.0
C430 C 0.29486 0.15639 0.84136 0.0
C431 C 0.29778 0.17512 0.80097 0.0
C432 C 0.2414 0.14728 0.77989 0.0
C433 C 0.18132 0.10141 0.79871 0.0
C434 C 0.17718 0.08409 0.83906 0.0
H435 H 0.41141 0.19 0.7954 0.0
C436 C 0.44264 0.23239 0.81506 0.0
H437 H 0.45053 0.28101 0.86543 0.0
H438 H 0.23541 0.05726 0.97718 0.0
H439 H 0.33206 0.09798 0.01156 0.0
H440 H 0.43859 0.17641 0.97779 0.0
H441 H 0.44893 0.2146 0.90968 0.0
C442 C 0.41781 0.23798 0.84628 0.0
C443 C 0.35159 0.18261 0.86267 0.0
C444 C 0.34619 0.15976 0.90231 0.0
C445 C 0.28497 0.11474 0.92186 0.0
C446 C 0.28102 0.09278 0.96139 0.0
C447 C 0.33606 0.11526 0.98132 0.0
C448 C 0.39598 0.15938 0.96231 0.0
C449 C 0.40125 0.18125 0.92324 0.0
H450 H 0.03426 0.14607 0.4143 0.0
C451 C 0.06012 0.13235 0.41727 0.0
H452 H 0.14501 0.15703 0.40172 0.0
H453 H 0.12732 0.32316 0.2727 0.0
H454 H 0.04024 0.21888 0.23972 0.0
H455 H 0.00063 0.11802 0.26874 0.0
H456 H 0.04783 0.12087 0.33106 0.0
C457 C 0.11617 0.16712 0.39732 0.0
C458 C 0.14592 0.22811 0.37595 0.0
C459 C 0.11837 0.226 0.33937 0.0
C460 C 0.14163 0.28437 0.32247 0.0
C461 C 0.11209 0.28052 0.28653 0.0
C462 C 0.06202 0.22099 0.26734 0.0
C463 C 0.03966 0.16414 0.2837 0.0
C464 C 0.06712 0.16635 0.3194 0.0
H465 H 0.25451 0.42364 0.27559 0.0
C466 C 0.24314 0.44073 0.29836 0.0
H467 H 0.19836 0.42225 0.35418 0.0
H468 H 0.21315 0.24994 0.44452 0.0
H469 H 0.30295 0.35427 0.47592 0.0
H470 H 0.34449 0.45558 0.44608 0.0
H471 H 0.29602 0.45296 0.38478 0.0
C472 C 0.20793 0.40377 0.33109 0.0
C473 C 0.19223 0.34457 0.34237 0.0
C474 C 0.22258 0.34704 0.37741 0.0
C475 C 0.19943 0.28882 0.39422 0.0
C476 C 0.22925 0.29269 0.43008 0.0
C477 C 0.28089 0.35232 0.4485 0.0
C478 C 0.30413 0.4093 0.43177 0.0
C479 C 0.27561 0.40703 0.39667 0.0
H480 H 0.90494 0.26708 0.95593 0.0
C481 C 0.89887 0.22945 0.94212 0.0
H482 H 0.85485 0.16283 0.89301 0.0
H483 H 0.67443 0.22007 0.92281 0.0
H484 H 0.63637 0.15257 0.98266 0.0
H485 H 0.68246 0.11075 1.00224 0.0
H486 H 0.76692 0.13621 0.96198 0.0
C487 C 0.85909 0.19747 0.90962 0.0
C488 C 0.82328 0.21261 0.89404 0.0
C489 C 0.77355 0.19677 0.9176 0.0
C490 C 0.74688 0.22067 0.90619 0.0
C491 C 0.69708 0.20394 0.9303 0.0
C492 C 0.67452 0.16494 0.96465 0.0
C493 C 0.70049 0.14143 0.97569 0.0
C494 C 0.74928 0.15682 0.95249 0.0
H495 H 0.70308 0.24637 0.80654 0.0
C496 C 0.71279 0.27854 0.82961 0.0
H497 H 0.7561 0.32301 0.88637 0.0
H498 H 0.90784 0.23981 0.83802 0.0
H499 H 0.94352 0.30392 0.77658 0.0
H500 H 0.90384 0.35276 0.75929 0.0
H501 H 0.82792 0.33716 0.80294 0.0
C502 C 0.74731 0.2916 0.86292 0.0
C503 C 0.77002 0.26042 0.87122 0.0
C504 C 0.8172 0.27308 0.84631 0.0
C505 C 0.84235 0.24738 0.8572 0.0
C506 C 0.88808 0.25916 0.83144 0.0
C507 C 0.90906 0.29595 0.79617 0.0
C508 C 0.88653 0.32324 0.78636 0.0
C509 C 0.84195 0.31292 0.81134 0.0
H510 H 0.79617 0.84055 0.44257 0.0
C511 C 0.82567 0.89217 0.44523 0.0
H512 H 0.83859 0.96932 0.42537 0.0
H513 H 0.67136 0.83189 0.26531 0.0
H514 H 0.78036 0.91828 0.23824 0.0
H515 H 0.87598 0.98678 0.28366 0.0
H516 H 0.86388 0.96858 0.3564 0.0
C517 C 0.80789 0.91726 0.42478 0.0
C518 C 0.74976 0.87556 0.39747 0.0
C519 C 0.75766 0.88715 0.355 0.0
C520 C 0.70236 0.84767 0.32867 0.0
C521 C 0.71169 0.86042 0.2865 0.0
C522 C 0.77386 0.90988 0.2706 0.0
C523 C 0.82782 0.94838 0.29621 0.0
C524 C 0.82013 0.93748 0.33794 0.0
H525 H 0.55317 0.79987 0.35209 0.0
C526 C 0.53964 0.76715 0.32776 0.0
H527 H 0.56693 0.72709 0.2965 0.0
H528 H 0.71586 0.84229 0.47769 0.0
H529 H 0.60896 0.74804 0.50353 0.0
H530 H 0.5154 0.67235 0.45694 0.0
H531 H 0.52811 0.69185 0.38434 0.0
C532 C 0.58019 0.76182 0.31896 0.0
C533 C 0.63935 0.7967 0.34488 0.0
C534 C 0.63211 0.782 0.38697 0.0
C535 C 0.68684 0.823 0.4135 0.0
C536 C 0.67684 0.81069 0.45581 0.0
C537 C 0.61551 0.757 0.47115 0.0
C538 C 0.5628 0.71461 0.44496 0.0
C539 C 0.57068 0.72674 0.40338 0.0
H540 H 0.93698 0.82239 0.95389 0.0
C541 C 0.93342 0.85425 0.94151 0.0
H542 H 0.90332 0.87292 0.89138 0.0
H543 H 0.89732 0.65839 0.81863 0.0
H544 H 0.01448 0.75166 0.81354 0.0
H545 H 0.0681 0.85921 0.83955 0.0
H546 H 0.00505 0.87413 0.8711 0.0
C547 C 0.90601 0.84124 0.90483 0.0
C548 C 0.87381 0.78022 0.88318 0.0
C549 C 0.91119 0.77292 0.86402 0.0
C550 C 0.88021 0.71115 0.84861 0.0
C551 C 0.91864 0.7044 0.83074 0.0
C552 C 0.98577 0.75751 0.82755 0.0
C553 C 0.01599 0.81809 0.84222 0.0
C554 C 0.97937 0.82599 0.86035 0.0
H555 H 0.76941 0.58353 0.7841 0.0
C556 C 0.76023 0.55838 0.81213 0.0
H557 H 0.77153 0.56479 0.8759 0.0
H558 H 0.78748 0.78053 0.91306 0.0
H559 H 0.66995 0.68951 0.91351 0.0
H560 H 0.61613 0.58295 0.88544 0.0
H561 H 0.67971 0.56694 0.85672 0.0
C562 C 0.78165 0.59017 0.84775 0.0
C563 C 0.81209 0.6574 0.85218 0.0
C564 C 0.77425 0.66647 0.86765 0.0
C565 C 0.80517 0.72798 0.88332 0.0
C566 C 0.76636 0.73505 0.90014 0.0
C567 C 0.69888 0.68314 0.90071 0.0
C568 C 0.66859 0.62313 0.88497 0.0
C569 C 0.7056 0.61452 0.86873 0.0
loop_
_geom_bond_atom_site_label_1
_geom_bond_atom_site_label_2
_geom_bond_distance
_geom_bond_site_symmetry_2
_ccdc_geom_bond_type
C0 C2 1.422 . S
C0 C4 1.415 . S
C0 N6 1.361 1_665 S
C1 C2 1.421 . S
C1 C3 1.417 . S
C1 C13 1.422 . S
C2 C0 1.422 . S
C2 C1 1.421 . S
C2 N12 1.359 . S
C3 C1 1.417 . S
C3 C5 1.329 . S
C3 H22 0.930 . S
C4 C0 1.415 . S
C4 C5 1.437 . S
C4 C8 1.413 1_665 S
C5 C3 1.329 . S
C5 C4 1.437 . S
C5 H27 0.929 . S
N6 C0 1.361 1_445 S
N6 C7 1.353 . S
N6 Gd11 2.616 1_455 S
C7 N6 1.353 . S
C7 C9 1.378 . S
C7 H19 0.929 . S
C8 C4 1.413 1_445 S
C8 C9 1.348 . S
C8 H24 0.931 1_545 S
C9 C7 1.378 . S
C9 C8 1.348 . S
C9 H25 0.930 . S
Gd10 N30 2.622 . S
Gd10 N37 2.570 1_565 S
Gd10 O44 2.353 1_454 S
Gd10 O45 2.468 . S
Gd10 O46 2.427 . S
Gd10 O48 2.388 1_455 S
Gd10 O49 2.386 1_565 S
Gd10 O53 2.307 1_564 S
Gd10 C63 2.805 . S
Gd11 N6 2.616 1_655 S
Gd11 N12 2.570 1_545 S
Gd11 O43 2.386 1_545 S
Gd11 O47 2.307 1_546 S
Gd11 O50 2.353 1_656 S
Gd11 O51 2.468 . S
Gd11 O52 2.427 1_655 S
Gd11 O54 2.388 1_655 S
Gd11 C75 2.805 . S
N12 C2 1.359 . S
N12 Gd11 2.570 1_565 S
N12 C14 1.343 . S
C13 C1 1.422 . S
C13 C15 1.321 . S
C13 H21 0.931 . S
C14 N12 1.343 . S
C14 C15 1.390 . S
C14 H16 0.931 . S
C15 C13 1.321 . S
C15 C14 1.390 . S
C15 H17 0.930 . S
H16 C14 0.931 . S
H17 C15 0.930 . S
H18 C41 0.931 . S
H19 C7 0.929 . S
H20 C42 0.930 . S
H21 C13 0.931 . S
H22 C3 0.930 . S
H23 C32 0.929 . S
H24 C8 0.931 1_565 S
H25 C9 0.930 . S
H26 C64 0.930 . S
H27 C5 0.929 . S
H28 C33 0.931 . S
H29 C34 0.930 . S
N30 Gd10 2.622 . S
N30 C31 1.369 1_565 S
N30 C32 1.338 1_455 S
C31 N30 1.369 1_545 S
C31 C35 1.415 . S
C31 C38 1.422 . S
C32 H23 0.929 . S
C32 N30 1.338 1_655 S
C32 C34 1.378 . S
C33 H28 0.931 . S
C33 C34 1.348 1_545 S
C33 C35 1.413 1_655 S
C34 H29 0.930 . S
C34 C32 1.378 . S
C34 C33 1.348 1_565 S
C35 C31 1.415 . S
C35 C33 1.413 1_455 S
C35 C65 1.437 . S
H36 C65 0.929 . S
N37 Gd10 2.570 1_545 S
N37 C38 1.359 . S
N37 C41 1.343 . S
C38 C31 1.422 . S
C38 N37 1.359 . S
C38 C40 1.421 . S
C39 C40 1.422 . S
C39 C42 1.321 . S
C39 H66 0.931 . S
C40 C38 1.421 . S
C40 C39 1.422 . S
C40 C64 1.417 . S
C41 H18 0.931 . S
C41 N37 1.343 . S
C41 C42 1.390 . S
C42 H20 0.930 . S
C42 C39 1.321 . S
C42 C41 1.390 . S
O43 Gd11 2.386 1_565 S
O43 C55 1.265 . S
O44 Gd10 2.353 1_656 S
O44 C55 1.242 . S
O45 Gd10 2.468 . S
O45 C63 1.263 . S
O46 Gd10 2.427 . S
O46 C63 1.252 . S
O47 Gd11 2.307 1_564 S
O47 C56 1.261 . S
O48 Gd10 2.388 1_655 S
O48 C56 1.252 . S
O49 Gd10 2.386 1_545 S
O49 C67 1.265 . S
O50 Gd11 2.353 1_454 S
O50 C67 1.242 . S
O51 Gd11 2.468 . S
O51 C75 1.263 . S
O52 Gd11 2.427 1_455 S
O52 C75 1.252 1_455 S
O53 Gd10 2.307 1_546 S
O53 C68 1.261 . S
O54 Gd11 2.388 1_455 S
O54 C68 1.252 . S
C55 O43 1.265 . S
C55 O44 1.242 . S
C56 O47 1.261 . S
C56 O48 1.252 . S
C57 C60 1.394 . S
C57 C62 1.370 . S
C57 C63 1.500 . S
C58 C61 1.383 . S
C58 C62 1.395 . S
C59 C60 1.396 . S
C59 C61 1.365 . S
C59 H76 0.929 . S
C60 C57 1.394 . S
C60 C59 1.396 . S
C60 H77 0.930 1_455 S
C61 C58 1.383 . S
C61 C59 1.365 . S
C61 H78 0.931 . S
C62 C57 1.370 . S
C62 C58 1.395 . S
C62 H79 0.930 . S
C63 Gd10 2.805 . S
C63 O45 1.263 . S
C63 O46 1.252 . S
C63 C57 1.500 . S
C64 H26 0.930 . S
C64 C40 1.417 . S
C64 C65 1.329 . S
C65 C35 1.437 . S
C65 H36 0.929 . S
C65 C64 1.329 . S
H66 C39 0.931 . S
C67 O49 1.265 . S
C67 O50 1.242 . S
C68 O53 1.261 . S
C68 O54 1.252 . S
C69 C72 1.394 . S
C69 C74 1.370 . S
C69 C75 1.500 . S
C70 C73 1.383 . S
C70 C74 1.395 . S
C71 C72 1.396 . S
C71 C73 1.365 . S
C71 H80 0.929 1_655 S
C72 C69 1.394 . S
C72 C71 1.396 . S
C72 H81 0.930 1_655 S
C73 C70 1.383 . S
C73 C71 1.365 . S
C73 H82 0.931 . S
C74 C69 1.370 . S
C74 C70 1.395 . S
C74 H83 0.930 . S
C75 Gd11 2.805 . S
C75 O51 1.263 . S
C75 O52 1.252 1_655 S
C75 C69 1.500 . S
H76 C59 0.929 . S
H77 C60 0.930 1_655 S
H78 C61 0.931 . S
H79 C62 0.930 . S
H80 C71 0.929 1_455 S
H81 C72 0.930 1_455 S
H82 C73 0.931 . S
H83 C74 0.930 . S
C84 C86 1.422 . S
C84 C88 1.415 . S
C84 N90 1.373 . S
C85 C86 1.421 . S
C85 C87 1.417 . S
C85 C97 1.422 . S
C86 C84 1.422 . S
C86 C85 1.421 . S
C86 N96 1.359 . S
C87 C85 1.417 . S
C87 C89 1.329 . S
C87 H106 0.930 . S
C88 C84 1.415 . S
C88 C89 1.437 . S
C88 C92 1.413 . S
C89 C87 1.329 . S
C89 C88 1.437 . S
C89 H111 0.929 . S
N90 C84 1.373 . S
N90 C91 1.338 1_445 S
N90 Gd95 2.619 1_455 S
C91 N90 1.338 1_665 S
C91 C93 1.378 . S
C91 H103 0.929 . S
C92 C88 1.413 . S
C92 C93 1.348 1_445 S
C92 H108 0.931 1_545 S
C93 C91 1.378 . S
C93 C92 1.348 1_665 S
C93 H109 0.930 . S
Gd94 N114 2.622 1_565 S
Gd94 N121 2.570 1_455 S
Gd94 O128 2.353 1_565 S
Gd94 O129 2.468 . S
Gd94 O130 2.427 1_565 S
Gd94 O132 2.388 1_565 S
Gd94 O133 2.386 1_455 S
Gd94 O137 2.307 1_455 S
Gd94 C147 2.805 . S
Gd95 N90 2.619 1_655 S
Gd95 N96 2.570 1_655 S
Gd95 O127 2.386 1_655 S
Gd95 O131 2.307 1_655 S
Gd95 O134 2.353 1_545 S
Gd95 O135 2.468 . S
Gd95 O136 2.427 . S
Gd95 O138 2.388 1_545 S
Gd95 C159 2.805 . S
N96 C86 1.359 . S
N96 Gd95 2.570 1_455 S
N96 C98 1.343 . S
C97 C85 1.422 . S
C97 C99 1.321 . S
C97 H105 0.931 . S
C98 N96 1.343 . S
C98 C99 1.390 . S
C98 H100 0.931 . S
C99 C97 1.321 . S
C99 C98 1.390 . S
C99 H101 0.930 . S
H100 C98 0.931 . S
H101 C99 0.930 . S
H102 C125 0.931 . S
H103 C91 0.929 . S
H104 C126 0.930 . S
H105 C97 0.931 . S
H106 C87 0.930 . S
H107 C116 0.929 . S
H108 C92 0.931 1_565 S
H109 C93 0.930 . S
H110 C148 0.930 . S
H111 C89 0.929 . S
H112 C117 0.931 . S
H113 C118 0.930 . S
N114 Gd94 2.622 1_545 S
N114 C115 1.369 1_445 S
N114 C116 1.338 . S
C115 N114 1.369 1_665 S
C115 C119 1.415 . S
C115 C122 1.422 . S
C116 H107 0.929 . S
C116 N114 1.338 . S
C116 C118 1.378 . S
C117 H112 0.931 . S
C117 C118 1.348 . S
C117 C119 1.413 1_445 S
C118 H113 0.930 . S
C118 C116 1.378 . S
C118 C117 1.348 . S
C119 C115 1.415 . S
C119 C117 1.413 1_665 S
C119 C149 1.437 . S
H120 C149 0.929 . S
N121 Gd94 2.570 1_655 S
N121 C122 1.359 . S
N121 C125 1.343 . S
C122 C115 1.422 . S
C122 N121 1.359 . S
C122 C124 1.421 . S
C123 C124 1.422 . S
C123 C126 1.321 . S
C123 H150 0.931 . S
C124 C122 1.421 . S
C124 C123 1.422 . S
C124 C148 1.417 . S
C125 H102 0.931 . S
C125 N121 1.343 . S
C125 C126 1.390 . S
C126 H104 0.930 . S
C126 C123 1.321 . S
C126 C125 1.390 . S
O127 Gd95 2.386 1_455 S
O127 C139 1.265 . S
O128 Gd94 2.353 1_545 S
O128 C139 1.242 . S
O129 Gd94 2.468 . S
O129 C147 1.263 . S
O130 Gd94 2.427 1_545 S
O130 C147 1.252 1_545 S
O131 Gd95 2.307 1_455 S
O131 C140 1.261 . S
O132 Gd94 2.388 1_545 S
O132 C140 1.252 . S
O133 Gd94 2.386 1_655 S
O133 C151 1.265 . S
O134 Gd95 2.353 1_565 S
O134 C151 1.242 . S
O135 Gd95 2.468 . S
O135 C159 1.263 . S
O136 Gd95 2.427 . S
O136 C159 1.252 . S
O137 Gd94 2.307 1_655 S
O137 C152 1.261 . S
O138 Gd95 2.388 1_565 S
O138 C152 1.252 . S
C139 O127 1.265 . S
C139 O128 1.242 . S
C140 O131 1.261 . S
C140 O132 1.252 . S
C141 C144 1.394 . S
C141 C146 1.370 . S
C141 C147 1.500 . S
C142 C145 1.383 . S
C142 C146 1.395 . S
C143 C144 1.396 . S
C143 C145 1.365 . S
C143 H160 0.929 1_565 S
C144 C141 1.394 . S
C144 C143 1.396 . S
C144 H161 0.930 1_565 S
C145 C142 1.383 . S
C145 C143 1.365 . S
C145 H162 0.931 . S
C146 C141 1.370 . S
C146 C142 1.395 . S
C146 H163 0.930 . S
C147 Gd94 2.805 . S
C147 O129 1.263 . S
C147 O130 1.252 1_565 S
C147 C141 1.500 . S
C148 H110 0.930 . S
C148 C124 1.417 . S
C148 C149 1.329 . S
C149 C119 1.437 . S
C149 H120 0.929 . S
C149 C148 1.329 . S
H150 C123 0.931 . S
C151 O133 1.265 . S
C151 O134 1.242 . S
C152 O137 1.261 . S
C152 O138 1.252 . S
C153 C156 1.394 . S
C153 C158 1.370 . S
C153 C159 1.500 . S
C154 C157 1.383 . S
C154 C158 1.395 . S
C155 C156 1.396 . S
C155 C157 1.365 . S
C155 H164 0.929 . S
C156 C153 1.394 . S
C156 C155 1.396 . S
C156 H165 0.943 . S
C157 C154 1.383 . S
C157 C155 1.365 . S
C157 H166 0.931 . S
C158 C153 1.370 . S
C158 C154 1.395 . S
C158 H167 0.930 . S
C159 Gd95 2.805 . S
C159 O135 1.263 . S
C159 O136 1.252 . S
C159 C153 1.500 . S
H160 C143 0.929 1_545 S
H161 C144 0.930 1_545 S
H162 C145 0.931 . S
H163 C146 0.930 . S
H164 C155 0.929 . S
H165 C156 0.943 . S
H166 C157 0.931 . S
H167 C158 0.930 . S
Zn168 O174 1.920 . S
Zn168 O180 1.898 . S
Zn168 O183 1.905 . S
Zn169 O177 1.905 . S
Zn169 O178 1.898 . S
Zn169 O186 1.920 . S
Zn170 O173 2.080 . S
Zn170 O176 2.114 . S
Zn170 O179 2.120 . S
Zn170 O181 2.120 . S
Zn170 O182 2.114 . S
Zn170 O185 2.080 . S
C171 O176 1.166 . S
C171 O177 1.182 . S
C172 O178 1.167 . S
C172 O179 1.299 . S
O173 Zn170 2.080 . S
O173 C187 1.305 . S
O174 Zn168 1.920 . S
O174 C187 1.234 . S
C175 O180 1.167 . S
C175 O181 1.299 . S
O176 Zn170 2.114 . S
O176 C171 1.166 . S
O177 Zn169 1.905 . S
O177 C171 1.182 . S
O178 Zn169 1.898 . S
O178 C172 1.167 . S
O179 Zn170 2.120 . S
O179 C172 1.299 . S
O180 Zn168 1.898 . S
O180 C175 1.167 . S
O181 Zn170 2.120 . S
O181 C175 1.299 . S
O182 Zn170 2.114 . S
O182 C184 1.166 . S
O183 Zn168 1.905 . S
O183 C184 1.182 . S
C184 O182 1.166 . S
C184 O183 1.182 . S
O185 Zn170 2.080 . S
O185 C188 1.305 . S
O186 Zn169 1.920 . S
O186 C188 1.234 . S
C187 O173 1.305 . S
C187 O174 1.234 . S
C188 O185 1.305 . S
C188 O186 1.234 . S
Zn189 O195 1.920 . S
Zn189 O201 1.898 . S
Zn189 O204 1.905 . S
Zn190 O198 1.905 . S
Zn190 O199 1.898 . S
Zn190 O207 1.920 . S
Zn191 O194 2.080 . S
Zn191 O197 2.114 . S
Zn191 O200 2.120 . S
Zn191 O202 2.120 . S
Zn191 O203 2.114 . S
Zn191 O206 2.080 . S
C192 O197 1.166 . S
C192 O198 1.182 . S
C193 O199 1.167 . S
C193 O200 1.299 . S
O194 Zn191 2.080 . S
O194 C208 1.305 . S
O195 Zn189 1.920 . S
O195 C208 1.234 . S
C196 O201 1.167 . S
C196 O202 1.299 . S
O197 Zn191 2.114 . S
O197 C192 1.166 . S
O198 Zn190 1.905 . S
O198 C192 1.182 . S
O199 Zn190 1.898 . S
O199 C193 1.167 . S
O200 Zn191 2.120 . S
O200 C193 1.299 . S
O201 Zn189 1.898 . S
O201 C196 1.167 . S
O202 Zn191 2.120 . S
O202 C196 1.299 . S
O203 Zn191 2.114 . S
O203 C205 1.166 . S
O204 Zn189 1.905 . S
O204 C205 1.182 . S
C205 O203 1.166 . S
C205 O204 1.182 . S
O206 Zn191 2.080 . S
O206 C209 1.305 . S
O207 Zn190 1.920 . S
O207 C209 1.234 . S
C208 O194 1.305 . S
C208 O195 1.234 . S
C209 O206 1.305 . S
C209 O207 1.234 . S
H210 C211 0.951 . S
C211 H210 0.951 . S
C211 C217 1.265 . S
H212 C217 0.950 . S
H213 C221 0.949 . S
H214 C222 0.950 . S
H215 C223 0.951 . S
H216 C224 0.951 . S
C217 C211 1.265 . S
C217 H212 0.950 . S
C217 C218 1.478 . S
C218 C217 1.478 . S
C218 C219 1.397 . S
C218 C235 1.394 . S
C219 C218 1.397 . S
C219 C220 1.438 . S
C219 C224 1.429 . S
C220 C219 1.438 . S
C220 C221 1.428 . S
C220 C233 1.394 . S
C221 H213 0.949 . S
C221 C220 1.428 . S
C221 C222 1.345 . S
C222 H214 0.950 . S
C222 C221 1.345 . S
C222 C223 1.424 . S
C223 H215 0.951 . S
C223 C222 1.424 . S
C223 C224 1.347 . S
C224 H216 0.951 . S
C224 C219 1.429 . S
C224 C223 1.347 . S
H225 C226 0.951 . S
C226 H225 0.951 . S
C226 C232 1.265 . S
H227 C232 0.950 . S
H228 C236 0.949 . S
H229 C237 0.950 1_655 S
H230 C238 0.951 . S
H231 C239 0.951 . S
C232 C226 1.265 . S
C232 H227 0.950 . S
C232 C233 1.478 . S
C233 C220 1.394 . S
C233 C232 1.478 . S
C233 C234 1.397 . S
C234 C233 1.397 . S
C234 C235 1.438 . S
C234 C239 1.429 . S
C235 C218 1.394 . S
C235 C234 1.438 . S
C235 C236 1.428 . S
C236 H228 0.949 . S
C236 C235 1.428 . S
C236 C237 1.345 . S
C237 H229 0.950 1_455 S
C237 C236 1.345 . S
C237 C238 1.424 . S
C238 H230 0.951 . S
C238 C237 1.424 . S
C238 C239 1.347 . S
C239 H231 0.951 . S
C239 C234 1.429 . S
C239 C238 1.347 . S
H240 C241 0.951 . S
C241 H240 0.951 . S
C241 C247 1.265 . S
H242 C247 0.950 . S
H243 C251 0.949 . S
H244 C252 0.950 . S
H245 C253 0.951 1_565 S
H246 C254 0.951 . S
C247 C241 1.265 . S
C247 H242 0.950 . S
C247 C248 1.478 . S
C248 C247 1.478 . S
C248 C249 1.397 . S
C248 C265 1.394 . S
C249 C248 1.397 . S
C249 C250 1.438 . S
C249 C254 1.429 . S
C250 C249 1.438 . S
C250 C251 1.428 . S
C250 C263 1.394 . S
C251 H243 0.949 . S
C251 C250 1.428 . S
C251 C252 1.345 . S
C252 H244 0.950 . S
C252 C251 1.345 . S
C252 C253 1.424 . S
C253 H245 0.951 1_545 S
C253 C252 1.424 . S
C253 C254 1.347 . S
C254 H246 0.951 . S
C254 C249 1.429 . S
C254 C253 1.347 . S
H255 C256 0.951 . S
C256 H255 0.951 . S
C256 C262 1.265 . S
H257 C262 0.950 . S
H258 C266 0.949 . S
H259 C267 0.950 . S
H260 C268 0.951 . S
H261 C269 0.951 . S
C262 C256 1.265 . S
C262 H257 0.950 . S
C262 C263 1.478 . S
C263 C250 1.394 . S
C263 C262 1.478 . S
C263 C264 1.397 . S
C264 C263 1.397 . S
C264 C265 1.438 . S
C264 C269 1.429 . S
C265 C248 1.394 . S
C265 C264 1.438 . S
C265 C266 1.428 . S
C266 H258 0.949 . S
C266 C265 1.428 . S
C266 C267 1.345 . S
C267 H259 0.950 . S
C267 C266 1.345 . S
C267 C268 1.424 . S
C268 H260 0.951 . S
C268 C267 1.424 . S
C268 C269 1.347 . S
C269 H261 0.951 . S
C269 C264 1.429 . S
C269 C268 1.347 . S
H270 C271 0.951 . S
C271 H270 0.951 . S
C271 C277 1.265 . S
H272 C277 0.950 . S
H273 C281 0.949 . S
H274 C282 0.950 . S
H275 C283 0.951 . S
H276 C284 0.951 . S
C277 C271 1.265 . S
C277 H272 0.950 . S
C277 C278 1.478 . S
C278 C277 1.478 . S
C278 C279 1.397 . S
C278 C295 1.394 . S
C279 C278 1.397 . S
C279 C280 1.438 . S
C279 C284 1.429 . S
C280 C279 1.438 . S
C280 C281 1.428 . S
C280 C293 1.394 . S
C281 H273 0.949 . S
C281 C280 1.428 . S
C281 C282 1.345 . S
C282 H274 0.950 . S
C282 C281 1.345 . S
C282 C283 1.424 . S
C283 H275 0.951 . S
C283 C282 1.424 . S
C283 C284 1.347 . S
C284 H276 0.951 . S
C284 C279 1.429 . S
C284 C283 1.347 . S
H285 C286 0.951 . S
C286 H285 0.951 . S
C286 C292 1.265 . S
H287 C292 0.950 . S
H288 C296 0.949 . S
H289 C297 0.950 . S
H290 C298 0.951 . S
H291 C299 0.951 . S
C292 C286 1.265 . S
C292 H287 0.950 . S
C292 C293 1.478 . S
C293 C280 1.394 . S
C293 C292 1.478 . S
C293 C294 1.397 . S
C294 C293 1.397 . S
C294 C295 1.438 . S
C294 C299 1.429 . S
C295 C278 1.394 . S
C295 C294 1.438 . S
C295 C296 1.428 . S
C296 H288 0.949 . S
C296 C295 1.428 . S
C296 C297 1.345 . S
C297 H289 0.950 . S
C297 C296 1.345 . S
C297 C298 1.424 . S
C298 H290 0.951 . S
C298 C297 1.424 . S
C298 C299 1.347 . S
C299 H291 0.951 . S
C299 C294 1.429 . S
C299 C298 1.347 . S
H300 C301 0.951 . S
C301 H300 0.951 . S
C301 C307 1.265 . S
H302 C307 0.950 . S
H303 C311 0.949 . S
H304 C312 0.950 . S
H305 C313 0.951 1_455 S
H306 C314 0.951 . S
C307 C301 1.265 . S
C307 H302 0.950 . S
C307 C308 1.478 . S
C308 C307 1.478 . S
C308 C309 1.397 . S
C308 C325 1.394 . S
C309 C308 1.397 . S
C309 C310 1.438 . S
C309 C314 1.429 . S
C310 C309 1.438 . S
C310 C311 1.428 . S
C310 C323 1.394 . S
C311 H303 0.949 . S
C311 C310 1.428 . S
C311 C312 1.345 . S
C312 H304 0.950 . S
C312 C311 1.345 . S
C312 C313 1.424 . S
C313 H305 0.951 1_655 S
C313 C312 1.424 . S
C313 C314 1.347 . S
C314 H306 0.951 . S
C314 C309 1.429 . S
C314 C313 1.347 . S
H315 C316 0.951 . S
C316 H315 0.951 . S
C316 C322 1.265 . S
H317 C322 0.950 . S
H318 C326 0.949 . S
H319 C327 0.950 . S
H320 C328 0.951 . S
H321 C329 0.951 . S
C322 C316 1.265 . S
C322 H317 0.950 . S
C322 C323 1.478 . S
C323 C310 1.394 . S
C323 C322 1.478 . S
C323 C324 1.397 . S
C324 C323 1.397 . S
C324 C325 1.438 . S
C324 C329 1.429 . S
C325 C308 1.394 . S
C325 C324 1.438 . S
C325 C326 1.428 . S
C326 H318 0.949 . S
C326 C325 1.428 . S
C326 C327 1.345 . S
C327 H319 0.950 . S
C327 C326 1.345 . S
C327 C328 1.424 . S
C328 H320 0.951 . S
C328 C327 1.424 . S
C328 C329 1.347 . S
C329 H321 0.951 . S
C329 C324 1.429 . S
C329 C328 1.347 . S
H330 C331 0.951 . S
C331 H330 0.951 . S
C331 C337 1.265 . S
H332 C337 0.950 . S
H333 C341 0.949 . S
H334 C342 0.950 1_545 S
H335 C343 0.951 . S
H336 C344 0.951 . S
C337 C331 1.265 . S
C337 H332 0.950 . S
C337 C338 1.478 . S
C338 C337 1.478 . S
C338 C339 1.397 . S
C338 C355 1.394 . S
C339 C338 1.397 . S
C339 C340 1.438 . S
C339 C344 1.429 . S
C340 C339 1.438 . S
C340 C341 1.428 . S
C340 C353 1.394 . S
C341 H333 0.949 . S
C341 C340 1.428 . S
C341 C342 1.345 . S
C342 H334 0.950 1_565 S
C342 C341 1.345 . S
C342 C343 1.424 1_565 S
C343 H335 0.951 . S
C343 C342 1.424 1_545 S
C343 C344 1.347 1_545 S
C344 H336 0.951 . S
C344 C339 1.429 . S
C344 C343 1.347 1_565 S
H345 C346 0.951 . S
C346 H345 0.951 . S
C346 C352 1.265 . S
H347 C352 0.950 . S
H348 C356 0.949 . S
H349 C357 0.950 . S
H350 C358 0.951 . S
H351 C359 0.951 . S
C352 C346 1.265 . S
C352 H347 0.950 . S
C352 C353 1.478 . S
C353 C340 1.394 . S
C353 C352 1.478 . S
C353 C354 1.397 . S
C354 C353 1.397 . S
C354 C355 1.438 . S
C354 C359 1.429 . S
C355 C338 1.394 . S
C355 C354 1.438 . S
C355 C356 1.428 . S
C356 H348 0.949 . S
C356 C355 1.428 . S
C356 C357 1.345 . S
C357 H349 0.950 . S
C357 C356 1.345 . S
C357 C358 1.424 . S
C358 H350 0.951 . S
C358 C357 1.424 . S
C358 C359 1.347 . S
C359 H351 0.951 . S
C359 C354 1.429 . S
C359 C358 1.347 . S
H360 C361 0.951 . S
C361 H360 0.951 . S
C361 C367 1.265 . S
H362 C367 0.950 . S
H363 C371 0.949 . S
H364 C372 0.950 . S
H365 C373 0.951 . S
H366 C374 0.951 . S
C367 C361 1.265 . S
C367 H362 0.950 . S
C367 C368 1.478 . S
C368 C367 1.478 . S
C368 C369 1.397 . S
C368 C385 1.394 . S
C369 C368 1.397 . S
C369 C370 1.438 . S
C369 C374 1.429 . S
C370 C369 1.438 . S
C370 C371 1.428 . S
C370 C383 1.394 . S
C371 H363 0.949 . S
C371 C370 1.428 . S
C371 C372 1.345 . S
C372 H364 0.950 . S
C372 C371 1.345 . S
C372 C373 1.424 . S
C373 H365 0.951 . S
C373 C372 1.424 . S
C373 C374 1.347 . S
C374 H366 0.951 . S
C374 C369 1.429 . S
C374 C373 1.347 . S
H375 C376 0.951 . S
C376 H375 0.951 . S
C376 C382 1.265 . S
H377 C382 0.950 . S
H378 C386 0.949 . S
H379 C387 0.950 . S
H380 C388 0.951 . S
H381 C389 0.951 . S
C382 C376 1.265 . S
C382 H377 0.950 . S
C382 C383 1.478 . S
C383 C370 1.394 . S
C383 C382 1.478 . S
C383 C384 1.397 . S
C384 C383 1.397 . S
C384 C385 1.438 . S
C384 C389 1.429 . S
C385 C368 1.394 . S
C385 C384 1.438 . S
C385 C386 1.428 . S
C386 H378 0.949 . S
C386 C385 1.428 . S
C386 C387 1.345 . S
C387 H379 0.950 . S
C387 C386 1.345 . S
C387 C388 1.424 . S
C388 H380 0.951 . S
C388 C387 1.424 . S
C388 C389 1.347 . S
C389 H381 0.951 . S
C389 C384 1.429 . S
C389 C388 1.347 . S
H390 C391 0.951 . S
C391 H390 0.951 . S
C391 C397 1.265 . S
H392 C397 0.950 . S
H393 C401 0.949 . S
H394 C402 0.950 . S
H395 C403 0.951 . S
H396 C404 0.951 . S
C397 C391 1.265 . S
C397 H392 0.950 . S
C397 C398 1.478 . S
C398 C397 1.478 . S
C398 C399 1.397 . S
C398 C415 1.394 . S
C399 C398 1.397 . S
C399 C400 1.438 . S
C399 C404 1.429 . S
C400 C399 1.438 . S
C400 C401 1.428 . S
C400 C413 1.394 . S
C401 H393 0.949 . S
C401 C400 1.428 . S
C401 C402 1.345 . S
C402 H394 0.950 . S
C402 C401 1.345 . S
C402 C403 1.424 . S
C403 H395 0.951 . S
C403 C402 1.424 . S
C403 C404 1.347 . S
C404 H396 0.951 . S
C404 C399 1.429 . S
C404 C403 1.347 . S
H405 C406 0.951 . S
C406 H405 0.951 . S
C406 C412 1.265 . S
H407 C412 0.950 . S
H408 C416 0.949 . S
H409 C417 0.950 . S
H410 C418 0.951 . S
H411 C419 0.951 . S
C412 C406 1.265 . S
C412 H407 0.950 . S
C412 C413 1.478 . S
C413 C400 1.394 . S
C413 C412 1.478 . S
C413 C414 1.397 . S
C414 C413 1.397 . S
C414 C415 1.438 . S
C414 C419 1.429 . S
C415 C398 1.394 . S
C415 C414 1.438 . S
C415 C416 1.428 . S
C416 H408 0.949 . S
C416 C415 1.428 . S
C416 C417 1.345 . S
C417 H409 0.950 . S
C417 C416 1.345 . S
C417 C418 1.424 . S
C418 H410 0.951 . S
C418 C417 1.424 . S
C418 C419 1.347 . S
C419 H411 0.951 . S
C419 C414 1.429 . S
C419 C418 1.347 . S
H420 C421 0.951 . S
C421 H420 0.951 . S
C421 C427 1.265 . S
H422 C427 0.950 . S
H423 C431 0.949 . S
H424 C432 0.950 . S
H425 C433 0.951 1_565 S
H426 C434 0.951 . S
C427 C421 1.265 . S
C427 H422 0.950 . S
C427 C428 1.478 . S
C428 C427 1.478 . S
C428 C429 1.397 . S
C428 C445 1.394 . S
C429 C428 1.397 . S
C429 C430 1.438 . S
C429 C434 1.429 . S
C430 C429 1.438 . S
C430 C431 1.428 . S
C430 C443 1.394 . S
C431 H423 0.949 . S
C431 C430 1.428 . S
C431 C432 1.345 . S
C432 H424 0.950 . S
C432 C431 1.345 . S
C432 C433 1.424 . S
C433 H425 0.951 1_545 S
C433 C432 1.424 . S
C433 C434 1.347 . S
C434 H426 0.951 . S
C434 C429 1.429 . S
C434 C433 1.347 . S
H435 C436 0.951 . S
C436 H435 0.951 . S
C436 C442 1.265 . S
H437 C442 0.950 . S
H438 C446 0.949 . S
H439 C447 0.950 . S
H440 C448 0.951 . S
H441 C449 0.951 . S
C442 C436 1.265 . S
C442 H437 0.950 . S
C442 C443 1.478 . S
C443 C430 1.394 . S
C443 C442 1.478 . S
C443 C444 1.397 . S
C444 C443 1.397 . S
C444 C445 1.438 . S
C444 C449 1.429 . S
C445 C428 1.394 . S
C445 C444 1.438 . S
C445 C446 1.428 . S
C446 H438 0.949 . S
C446 C445 1.428 . S
C446 C447 1.345 . S
C447 H439 0.950 . S
C447 C446 1.345 . S
C447 C448 1.424 . S
C448 H440 0.951 . S
C448 C447 1.424 . S
C448 C449 1.347 . S
C449 H441 0.951 . S
C449 C444 1.429 . S
C449 C448 1.347 . S
H450 C451 0.951 . S
C451 H450 0.951 . S
C451 C457 1.265 . S
H452 C457 0.950 . S
H453 C461 0.949 . S
H454 C462 0.950 . S
H455 C463 0.951 . S
H456 C464 0.951 . S
C457 C451 1.265 . S
C457 H452 0.950 . S
C457 C458 1.478 . S
C458 C457 1.478 . S
C458 C459 1.397 . S
C458 C475 1.394 . S
C459 C458 1.397 . S
C459 C460 1.438 . S
C459 C464 1.429 . S
C460 C459 1.438 . S
C460 C461 1.428 . S
C460 C473 1.394 . S
C461 H453 0.949 . S
C461 C460 1.428 . S
C461 C462 1.345 . S
C462 H454 0.950 . S
C462 C461 1.345 . S
C462 C463 1.424 . S
C463 H455 0.951 . S
C463 C462 1.424 . S
C463 C464 1.347 . S
C464 H456 0.951 . S
C464 C459 1.429 . S
C464 C463 1.347 . S
H465 C466 0.951 . S
C466 H465 0.951 . S
C466 C472 1.265 . S
H467 C472 0.950 . S
H468 C476 0.949 . S
H469 C477 0.950 . S
H470 C478 0.951 . S
H471 C479 0.951 . S
C472 C466 1.265 . S
C472 H467 0.950 . S
C472 C473 1.478 . S
C473 C460 1.394 . S
C473 C472 1.478 . S
C473 C474 1.397 . S
C474 C473 1.397 . S
C474 C475 1.438 . S
C474 C479 1.429 . S
C475 C458 1.394 . S
C475 C474 1.438 . S
C475 C476 1.428 . S
C476 H468 0.949 . S
C476 C475 1.428 . S
C476 C477 1.345 . S
C477 H469 0.950 . S
C477 C476 1.345 . S
C477 C478 1.424 . S
C478 H470 0.951 . S
C478 C477 1.424 . S
C478 C479 1.347 . S
C479 H471 0.951 . S
C479 C474 1.429 . S
C479 C478 1.347 . S
H480 C481 0.951 . S
C481 H480 0.951 . S
C481 C487 1.265 . S
H482 C487 0.950 . S
H483 C491 0.949 . S
H484 C492 0.950 . S
H485 C493 0.951 1_554 S
H486 C494 0.951 . S
C487 C481 1.265 . S
C487 H482 0.950 . S
C487 C488 1.478 . S
C488 C487 1.478 . S
C488 C489 1.397 . S
C488 C505 1.394 . S
C489 C488 1.397 . S
C489 C490 1.438 . S
C489 C494 1.429 . S
C490 C489 1.438 . S
C490 C491 1.428 . S
C490 C503 1.394 . S
C491 H483 0.949 . S
C491 C490 1.428 . S
C491 C492 1.345 . S
C492 H484 0.950 . S
C492 C491 1.345 . S
C492 C493 1.424 . S
C493 H485 0.951 1_556 S
C493 C492 1.424 . S
C493 C494 1.347 . S
C494 H486 0.951 . S
C494 C489 1.429 . S
C494 C493 1.347 . S
H495 C496 0.951 . S
C496 H495 0.951 . S
C496 C502 1.265 . S
H497 C502 0.950 . S
H498 C506 0.949 . S
H499 C507 0.950 . S
H500 C508 0.951 . S
H501 C509 0.951 . S
C502 C496 1.265 . S
C502 H497 0.950 . S
C502 C503 1.478 . S
C503 C490 1.394 . S
C503 C502 1.478 . S
C503 C504 1.397 . S
C504 C503 1.397 . S
C504 C505 1.438 . S
C504 C509 1.429 . S
C505 C488 1.394 . S
C505 C504 1.438 . S
C505 C506 1.428 . S
C506 H498 0.949 . S
C506 C505 1.428 . S
C506 C507 1.345 . S
C507 H499 0.950 . S
C507 C506 1.345 . S
C507 C508 1.424 . S
C508 H500 0.951 . S
C508 C507 1.424 . S
C508 C509 1.347 . S
C509 H501 0.951 . S
C509 C504 1.429 . S
C509 C508 1.347 . S
H510 C511 0.951 . S
C511 H510 0.951 . S
C511 C517 1.265 . S
H512 C517 0.950 . S
H513 C521 0.949 . S
H514 C522 0.950 . S
H515 C523 0.951 . S
H516 C524 0.951 . S
C517 C511 1.265 . S
C517 H512 0.950 . S
C517 C518 1.478 . S
C518 C517 1.478 . S
C518 C519 1.397 . S
C518 C535 1.394 . S
C519 C518 1.397 . S
C519 C520 1.438 . S
C519 C524 1.429 . S
C520 C519 1.438 . S
C520 C521 1.428 . S
C520 C533 1.394 . S
C521 H513 0.949 . S
C521 C520 1.428 . S
C521 C522 1.345 . S
C522 H514 0.950 . S
C522 C521 1.345 . S
C522 C523 1.424 . S
C523 H515 0.951 . S
C523 C522 1.424 . S
C523 C524 1.347 . S
C524 H516 0.951 . S
C524 C519 1.429 . S
C524 C523 1.347 . S
H525 C526 0.951 . S
C526 H525 0.951 . S
C526 C532 1.265 . S
H527 C532 0.950 . S
H528 C536 0.949 . S
H529 C537 0.950 . S
H530 C538 0.951 . S
H531 C539 0.951 . S
C532 C526 1.265 . S
C532 H527 0.950 . S
C532 C533 1.478 . S
C533 C520 1.394 . S
C533 C532 1.478 . S
C533 C534 1.397 . S
C534 C533 1.397 . S
C534 C535 1.438 . S
C534 C539 1.429 . S
C535 C518 1.394 . S
C535 C534 1.438 . S
C535 C536 1.428 . S
C536 H528 0.949 . S
C536 C535 1.428 . S
C536 C537 1.345 . S
C537 H529 0.950 . S
C537 C536 1.345 . S
C537 C538 1.424 . S
C538 H530 0.951 . S
C538 C537 1.424 . S
C538 C539 1.347 . S
C539 H531 0.951 . S
C539 C534 1.429 . S
C539 C538 1.347 . S
H540 C541 0.951 . S
C541 H540 0.951 . S
C541 C547 1.265 . S
H542 C547 0.950 . S
H543 C551 0.949 . S
H544 C552 0.950 . S
H545 C553 0.951 . S
H546 C554 0.951 . S
C547 C541 1.265 . S
C547 H542 0.950 . S
C547 C548 1.478 . S
C548 C547 1.478 . S
C548 C549 1.397 . S
C548 C565 1.394 . S
C549 C548 1.397 . S
C549 C550 1.438 . S
C549 C554 1.429 . S
C550 C549 1.438 . S
C550 C551 1.428 . S
C550 C563 1.394 . S
C551 H543 0.949 . S
C551 C550 1.428 . S
C551 C552 1.345 . S
C552 H544 0.950 . S
C552 C551 1.345 . S
C552 C553 1.424 . S
C553 H545 0.951 . S
C553 C552 1.424 . S
C553 C554 1.347 . S
C554 H546 0.951 . S
C554 C549 1.429 . S
C554 C553 1.347 . S
H555 C556 0.951 . S
C556 H555 0.951 . S
C556 C562 1.265 . S
H557 C562 0.950 . S
H558 C566 0.949 . S
H559 C567 0.950 . S
H560 C568 0.951 . S
H561 C569 0.951 . S
C562 C556 1.265 . S
C562 H557 0.950 . S
C562 C563 1.478 . S
C563 C550 1.394 . S
C563 C562 1.478 . S
C563 C564 1.397 . S
C564 C563 1.397 . S
C564 C565 1.438 . S
C564 C569 1.429 . S
C565 C548 1.394 . S
C565 C564 1.438 . S
C565 C566 1.428 . S
C566 H558 0.949 . S
C566 C565 1.428 . S
C566 C567 1.345 . S
C567 H559 0.950 . S
C567 C566 1.345 . S
C567 C568 1.424 . S
C568 H560 0.951 . S
C568 C567 1.424 . S
C568 C569 1.347 . S
C569 H561 0.951 . S
C569 C564 1.429 . S
C569 C568 1.347 . S
C211 C58 1.067 . S
C226 C187 1.181 . S
C241 C139 1.543 . S
C256 C193 1.442 . S
C271 C67 1.588 . S
C286 C184 1.416 . S
C301 C154 1.253 . S
C316 C209 1.340 . S
C331 C56 1.605 . S
C346 C175 1.490 . S
C376 C192 1.506 . S
C361 C152 1.580 . S
C391 C142 1.151 . S
C406 C188 1.226 . S
C436 C205 1.464 . S
C421 C68 1.578 . S
C466 C172 1.427 . S
C451 C140 1.608 . S
C496 C208 1.268 . S
C481 C70 1.134 . S
C526 C171 1.410 . S
C511 C151 1.587 . S
C556 C196 1.448 . S
C541 C55 1.554 . S
