# Generated by pormake.
# Topology soc, (4,6)-cn, num edge types: 1
# Building blocks:
#     Node 0, Type 0, BuildingBlock: ESEHIV_clean_sbu_0, # of connection points: 4
#     Node 1, Type 0, BuildingBlock: ESEHIV_clean_sbu_0, # of connection points: 4
#     Node 2, Type 0, BuildingBlock: ESEHIV_clean_sbu_0, # of connection points: 4
#     Node 3, Type 0, BuildingBlock: ESEHIV_clean_sbu_0, # of connection points: 4
#     Node 4, Type 0, BuildingBlock: ESEHIV_clean_sbu_0, # of connection points: 4
#     Node 5, Type 0, BuildingBlock: ESEHIV_clean_sbu_0, # of connection points: 4
#     Node 6, Type 0, BuildingBlock: ESEHIV_clean_sbu_0, # of connection points: 4
#     Node 7, Type 0, BuildingBlock: ESEHIV_clean_sbu_0, # of connection points: 4
#     Node 8, Type 0, BuildingBlock: ESEHIV_clean_sbu_0, # of connection points: 4
#     Node 9, Type 0, BuildingBlock: ESEHIV_clean_sbu_0, # of connection points: 4
#     Node 10, Type 0, BuildingBlock: ESEHIV_clean_sbu_0, # of connection points: 4
#     Node 11, Type 0, BuildingBlock: ESEHIV_clean_sbu_0, # of connection points: 4
#     Node 12, Type 1, BuildingBlock: BETDAH_clean_sbu_0, # of connection points: 6
#     Node 13, Type 1, BuildingBlock: BETDAH_clean_sbu_0, # of connection points: 6
#     Node 14, Type 1, BuildingBlock: BETDAH_clean_sbu_0, # of connection points: 6
#     Node 15, Type 1, BuildingBlock: BETDAH_clean_sbu_0, # of connection points: 6
#     Node 16, Type 1, BuildingBlock: BETDAH_clean_sbu_0, # of connection points: 6
#     Node 17, Type 1, BuildingBlock: BETDAH_clean_sbu_0, # of connection points: 6
#     Node 18, Type 1, BuildingBlock: BETDAH_clean_sbu_0, # of connection points: 6
#     Node 19, Type 1, BuildingBlock: BETDAH_clean_sbu_0, # of connection points: 6
#     Edge 20, Type (0, 1), BuildingBlock: UVAHIK_clean_linker_0, # of connection points: 2
#     Edge 21, Type (0, 1), BuildingBlock: UVAHIK_clean_linker_0, # of connection points: 2
#     Edge 22, Type (0, 1), BuildingBlock: UVAHIK_clean_linker_0, # of connection points: 2
#     Edge 23, Type (0, 1), BuildingBlock: UVAHIK_clean_linker_0, # of connection points: 2
#     Edge 24, Type (0, 1), BuildingBlock: UVAHIK_clean_linker_0, # of connection points: 2
#     Edge 25, Type (0, 1), BuildingBlock: UVAHIK_clean_linker_0, # of connection points: 2
#     Edge 26, Type (0, 1), BuildingBlock: UVAHIK_clean_linker_0, # of connection points: 2
#     Edge 27, Type (0, 1), BuildingBlock: UVAHIK_clean_linker_0, # of connection points: 2
#     Edge 28, Type (0, 1), BuildingBlock: UVAHIK_clean_linker_0, # of connection points: 2
#     Edge 29, Type (0, 1), BuildingBlock: UVAHIK_clean_linker_0, # of connection points: 2
#     Edge 30, Type (0, 1), BuildingBlock: UVAHIK_clean_linker_0, # of connection points: 2
#     Edge 31, Type (0, 1), BuildingBlock: UVAHIK_clean_linker_0, # of connection points: 2
#     Edge 32, Type (0, 1), BuildingBlock: UVAHIK_clean_linker_0, # of connection points: 2
#     Edge 33, Type (0, 1), BuildingBlock: UVAHIK_clean_linker_0, # of connection points: 2
#     Edge 34, Type (0, 1), BuildingBlock: UVAHIK_clean_linker_0, # of connection points: 2
#     Edge 35, Type (0, 1), BuildingBlock: UVAHIK_clean_linker_0, # of connection points: 2
#     Edge 36, Type (0, 1), BuildingBlock: UVAHIK_clean_linker_0, # of connection points: 2
#     Edge 37, Type (0, 1), BuildingBlock: UVAHIK_clean_linker_0, # of connection points: 2
#     Edge 38, Type (0, 1), BuildingBlock: UVAHIK_clean_linker_0, # of connection points: 2
#     Edge 39, Type (0, 1), BuildingBlock: UVAHIK_clean_linker_0, # of connection points: 2
#     Edge 40, Type (0, 1), BuildingBlock: UVAHIK_clean_linker_0, # of connection points: 2
#     Edge 41, Type (0, 1), BuildingBlock: UVAHIK_clean_linker_0, # of connection points: 2
#     Edge 42, Type (0, 1), BuildingBlock: UVAHIK_clean_linker_0, # of connection points: 2
#     Edge 43, Type (0, 1), BuildingBlock: UVAHIK_clean_linker_0, # of connection points: 2
#     Edge 44, Type (0, 1), BuildingBlock: UVAHIK_clean_linker_0, # of connection points: 2
#     Edge 45, Type (0, 1), BuildingBlock: UVAHIK_clean_linker_0, # of connection points: 2
#     Edge 46, Type (0, 1), BuildingBlock: UVAHIK_clean_linker_0, # of connection points: 2
#     Edge 47, Type (0, 1), BuildingBlock: UVAHIK_clean_linker_0, # of connection points: 2
#     Edge 48, Type (0, 1), BuildingBlock: UVAHIK_clean_linker_0, # of connection points: 2
#     Edge 49, Type (0, 1), BuildingBlock: UVAHIK_clean_linker_0, # of connection points: 2
#     Edge 50, Type (0, 1), BuildingBlock: UVAHIK_clean_linker_0, # of connection points: 2
#     Edge 51, Type (0, 1), BuildingBlock: UVAHIK_clean_linker_0, # of connection points: 2
#     Edge 52, Type (0, 1), BuildingBlock: UVAHIK_clean_linker_0, # of connection points: 2
#     Edge 53, Type (0, 1), BuildingBlock: UVAHIK_clean_linker_0, # of connection points: 2
#     Edge 54, Type (0, 1), BuildingBlock: UVAHIK_clean_linker_0, # of connection points: 2
#     Edge 55, Type (0, 1), BuildingBlock: UVAHIK_clean_linker_0, # of connection points: 2
#     Edge 56, Type (0, 1), BuildingBlock: UVAHIK_clean_linker_0, # of connection points: 2
#     Edge 57, Type (0, 1), BuildingBlock: UVAHIK_clean_linker_0, # of connection points: 2
#     Edge 58, Type (0, 1), BuildingBlock: UVAHIK_clean_linker_0, # of connection points: 2
#     Edge 59, Type (0, 1), BuildingBlock: UVAHIK_clean_linker_0, # of connection points: 2
#     Edge 60, Type (0, 1), BuildingBlock: UVAHIK_clean_linker_0, # of connection points: 2
#     Edge 61, Type (0, 1), BuildingBlock: UVAHIK_clean_linker_0, # of connection points: 2
#     Edge 62, Type (0, 1), BuildingBlock: UVAHIK_clean_linker_0, # of connection points: 2
#     Edge 63, Type (0, 1), BuildingBlock: UVAHIK_clean_linker_0, # of connection points: 2
#     Edge 64, Type (0, 1), BuildingBlock: UVAHIK_clean_linker_0, # of connection points: 2
#     Edge 65, Type (0, 1), BuildingBlock: UVAHIK_clean_linker_0, # of connection points: 2
#     Edge 66, Type (0, 1), BuildingBlock: UVAHIK_clean_linker_0, # of connection points: 2
#     Edge 67, Type (0, 1), BuildingBlock: UVAHIK_clean_linker_0, # of connection points: 2
# Relax obj value: 0.158
# Max RMSD: 0.249
# Mean RMSD: 0.166
data_MOF--net-soc--node1-ESEHIV_clean_sbu_0--node2-BETDAH_clean_sbu_0--edge1-UVAHIK_clean_linker_0
_symmetry_space_group_name_H-M    P1
_symmetry_Int_Tables_number       1
_symmetry_cell_setting            triclinic
loop_
_symmetry_equiv_pos_as_xyz
'x, y, z'
_cell_length_a     64.459479
_cell_length_b     61.889646
_cell_length_c     55.537484
_cell_angle_alpha  84.144047
_cell_angle_beta   84.511324
_cell_angle_gamma 73.883081
loop_
_atom_site_label
_atom_site_type_symbol
_atom_site_fract_x
_atom_site_fract_y
_atom_site_fract_z
_atom_type_partial_charge
Cu0 Cu 0.0375 0.02448 0.34223 0.0
N1 N 0.05209 0.03826 0.36067 0.0
N2 N 0.07246 0.06029 0.36869 0.0
C3 C 0.06619 0.04994 0.35149 0.0
C4 C 0.06186 0.05469 0.38957 0.0
C5 C 0.04925 0.04119 0.38454 0.0
O6 O 0.05954 1.0056 0.321 0.0
C7 C 1.00337 0.04904 0.31064 0.0
O8 O 1.00543 0.03044 0.30006 0.0
H9 H 0.07132 0.05113 0.3324 0.0
H10 H 0.03819 0.0347 0.3972 0.0
N11 N 0.02295 0.00643 0.36223 0.0
N12 N 0.99932 0.9862 0.37363 0.0
C13 C 1.00418 1.00249 0.3579 0.0
C14 C 0.03016 0.99232 0.38156 0.0
C15 C 1.01561 0.97981 0.38865 0.0
C16 C 0.059 0.98607 0.31621 0.0
O17 O 0.04128 0.97967 0.32223 0.0
H18 H 0.99506 0.01033 0.34248 0.0
H19 H 0.04541 0.99055 0.38923 0.0
O20 O 1.01608 0.04921 0.32675 0.0
H21 H 0.06238 0.06067 0.40708 0.0
H22 H 1.01728 0.96658 0.40324 0.0
Cu23 Cu 0.03675 0.03688 0.74849 0.0
N24 N 0.02427 0.02139 0.7295 0.0
N25 N 1.00477 0.99893 0.72066 0.0
C26 C 1.01065 0.00905 0.73826 0.0
C27 C 1.01517 1.00515 0.69997 0.0
C28 C 0.0272 0.01905 0.70549 0.0
O29 O 1.01327 0.05667 0.76794 0.0
C30 C 0.07448 1.00309 0.75032 0.0
O31 O 0.07288 0.00895 0.72702 0.0
H32 H 1.00568 0.00708 0.75735 0.0
H33 H 0.03759 0.02659 0.69297 0.0
N34 N 0.05054 0.05603 0.72945 0.0
N35 N 0.07364 0.07711 0.72039 0.0
C36 C 0.06767 0.06159 0.73627 0.0
C37 C 0.04529 0.06851 0.7085 0.0
C38 C 0.05956 0.08161 0.70285 0.0
C39 C 0.99724 0.06792 0.75591 0.0
O40 O 0.99762 0.06474 0.73284 0.0
H41 H 0.07501 0.05501 0.75318 0.0
H42 H 0.03173 0.06855 0.69842 0.0
O43 O 0.05954 0.01366 0.76511 0.0
H44 H 1.0142 1.00004 0.68215 0.0
H45 H 0.05941 0.09366 0.68727 0.0
Cu46 Cu 0.28179 0.0458 0.07554 0.0
N47 N 0.25633 0.04517 0.06272 0.0
N48 N 0.2351 0.03501 0.03911 0.0
C49 C 0.25557 0.03257 0.0447 0.0
C50 C 0.22242 0.04975 0.05428 0.0
C51 C 0.23562 0.05612 0.06877 0.0
O52 O 0.29682 0.01423 0.08364 0.0
C53 C 0.28642 0.08291 0.04608 0.0
O54 O 0.26846 0.09143 0.0592 0.0
H55 H 0.26982 0.02146 0.03619 0.0
H56 H 0.23047 0.06789 0.08268 0.0
N57 N 0.27511 0.06051 0.10419 0.0
N58 N 0.27633 0.08111 0.13461 0.0
C59 C 0.28481 0.07477 0.11234 0.0
C60 C 0.26012 0.05762 0.12185 0.0
C61 C 0.26074 0.07034 0.14054 0.0
C62 C 0.30817 0.00754 0.10191 0.0
O63 O 0.31322 0.02252 0.11369 0.0
H64 H 0.29815 0.07988 0.10237 0.0
H65 H 0.24964 0.04676 0.12126 0.0
O66 O 0.29644 0.06222 0.05068 0.0
H67 H 0.20494 0.05563 0.05471 0.0
H68 H 0.25039 0.07159 0.15714 0.0
Cu69 Cu 0.07015 0.27947 0.09465 0.0
N70 N 0.09362 0.26228 0.07634 0.0
N71 N 0.11828 0.25351 0.04523 0.0
C72 C 0.1004 0.26867 0.05377 0.0
C73 C 0.12308 0.23701 0.06334 0.0
C74 C 0.10787 0.24251 0.08254 0.0
O75 O 0.08249 0.29448 0.11706 0.0
C76 C 0.04483 0.28699 0.05621 0.0
O77 O 0.05383 0.26515 0.05664 0.0
H78 H 0.09259 0.28447 0.04406 0.0
H79 H 0.10749 0.23295 0.09991 0.0
N80 N 0.05393 0.26178 0.1124 0.0
N81 N 0.02464 0.25407 0.13213 0.0
C82 C 0.0338 0.27035 0.12227 0.0
C83 C 0.05772 0.23922 0.11603 0.0
C84 C 0.03971 0.23441 0.1284 0.0
C85 C 0.09129 0.2818 0.13502 0.0
O86 O 0.09004 0.26086 0.13778 0.0
H87 H 0.02593 0.28826 0.1218 0.0
H88 H 0.0722 0.22711 0.10951 0.0
O89 O 0.0499 0.29827 0.07169 0.0
H90 H 0.1366 0.22204 0.06279 0.0
H91 H 0.03756 0.21776 0.13339 0.0
Cu92 Cu 0.79359 0.9955 1.00545 0.0
N93 N 0.8113 0.012 0.98842 0.0
N94 N 0.81926 0.04157 0.96699 0.0
C95 C 0.80347 0.03193 0.97592 0.0
C96 C 0.83785 0.02706 0.97426 0.0
C97 C 0.83287 0.00877 0.98751 0.0
O98 O 0.77696 0.01554 0.02938 0.0
C99 C 0.78734 0.98028 0.96246 0.0
O100 O 0.80739 0.98154 0.95835 0.0
H101 H 0.78634 0.03958 0.97432 0.0
H102 H 0.84407 0.99449 0.99637 0.0
N103 N 0.80917 0.96915 0.02207 0.0
N104 N 0.81576 0.94038 0.05053 0.0
C105 C 0.80291 0.96097 0.0441 0.0
C106 C 0.8266 0.95317 0.01416 0.0
C107 C 0.8307 0.93532 0.03172 0.0
C108 C 0.78907 0.01963 0.0442 0.0
O109 O 0.80984 0.00918 0.04241 0.0
H110 H 0.7885 0.9695 0.05467 0.0
H111 H 0.83518 0.95408 0.99654 0.0
O112 O 0.77708 0.98635 0.98252 0.0
H113 H 0.85384 0.02954 0.97049 0.0
H114 H 0.84335 0.91967 0.03052 0.0
Cu115 Cu 0.02312 0.74189 1.00497 0.0
N116 N 1.00964 0.72736 0.98564 0.0
N117 N 0.98592 0.72153 0.96179 0.0
C118 C 0.99273 0.73704 0.972 0.0
C119 C 0.99918 0.70139 0.96911 0.0
C120 C 1.01383 0.70504 0.9837 0.0
O121 O 1.00086 0.75989 0.02753 0.0
C122 C 0.05284 0.76943 0.98698 0.0
O123 O 0.0503 0.77722 1.00851 0.0
H124 H 0.98507 0.75501 0.9704 0.0
H125 H 0.0264 0.69227 0.99265 0.0
N126 N 0.04184 0.72067 0.02498 0.0
N127 N 0.06875 0.70728 0.04968 0.0
C128 C 0.06097 0.72237 0.0312 0.0
C129 C 0.03742 0.70373 0.03991 0.0
C130 C 0.054 0.69543 0.0552 0.0
C131 C 0.9855 0.75133 0.03623 0.0
O132 O 0.9846 0.73228 0.02852 0.0
H133 H 0.06826 0.73554 0.02366 0.0
H134 H 0.02258 0.69869 0.04065 0.0
O135 O 0.04147 0.75664 0.98237 0.0
H136 H 0.99831 0.68515 0.96433 0.0
H137 H 0.05464 0.68242 0.06991 0.0
Cu138 Cu 0.53092 0.52329 0.85018 0.0
N139 N 0.54352 0.53837 0.86963 0.0
N140 N 0.56466 0.55824 0.88078 0.0
C141 C 0.56044 0.54695 0.8631 0.0
C142 C 0.54973 0.55673 0.89918 0.0
C143 C 0.5367 0.5445 0.89223 0.0
O144 O 0.55349 0.50219 0.8316 0.0
C145 C 0.49096 0.55419 0.84442 0.0
O146 O 0.48893 0.54742 0.8675 0.0
H147 H 0.56893 0.54578 0.84537 0.0
H148 H 0.52289 0.5408 0.9027 0.0
N149 N 0.51716 0.50424 0.86942 0.0
N150 N 0.49729 0.47974 0.87787 0.0
C151 C 0.50291 0.49497 0.86128 0.0
C152 C 0.5209 0.49448 0.89194 0.0
C153 C 0.50858 0.47935 0.89726 0.0
C154 C 0.5685 0.5053 0.81615 0.0
O155 O 0.5689 0.52592 0.80821 0.0
H156 H 0.49765 0.49858 0.84301 0.0
H157 H 0.53237 0.49749 0.90331 0.0
O158 O 0.50873 0.54582 0.8322 0.0
H159 H 0.54815 0.56412 0.91633 0.0
H160 H 0.50831 0.46861 0.91387 0.0
Cu161 Cu 0.54562 0.53943 0.24635 0.0
N162 N 0.53208 0.52476 0.22747 0.0
N163 N 0.51116 0.50334 0.21934 0.0
C164 C 0.5165 0.51482 0.23615 0.0
C165 C 0.52389 0.50638 0.19921 0.0
C166 C 0.53681 0.51952 0.2043 0.0
O167 O 0.52271 0.56077 0.26452 0.0
C168 C 0.58166 0.50451 0.25057 0.0
O169 O 0.58102 0.50997 0.22711 0.0
H170 H 0.5096 0.51569 0.25468 0.0
H171 H 0.54939 0.52405 0.19226 0.0
N172 N 0.56199 0.55658 0.22762 0.0
N173 N 0.58667 0.57606 0.2196 0.0
C174 C 0.57759 0.56347 0.23642 0.0
C175 C 0.56111 0.56502 0.20431 0.0
C176 C 0.57634 0.57703 0.1993 0.0
C177 C 0.51132 0.57636 0.2506 0.0
O178 O 0.51554 0.57567 0.22705 0.0
H179 H 0.58222 0.55907 0.25487 0.0
H180 H 0.54994 0.56299 0.19195 0.0
O181 O 0.56648 0.5157 0.26461 0.0
H182 H 0.5246 0.49886 0.1823 0.0
H183 H 0.57921 0.58614 0.18218 0.0
Cu184 Cu 0.79976 0.55891 0.56019 0.0
N185 N 0.78543 0.58051 0.53728 0.0
N186 N 0.78157 0.60606 0.5055 0.0
C187 C 0.7937 0.59605 0.52411 0.0
C188 C 0.76499 0.59653 0.50706 0.0
C189 C 0.7674 0.58077 0.52676 0.0
O190 O 0.81499 0.57319 0.57949 0.0
C191 C 0.82892 0.51552 0.54977 0.0
O192 O 0.8311 0.51119 0.57318 0.0
H193 H 0.80916 0.59871 0.527 0.0
H194 H 0.75749 0.56933 0.53215 0.0
N195 N 0.77987 0.54789 0.58099 0.0
N196 N 0.76815 0.52294 0.60669 0.0
C197 C 0.78012 0.52608 0.58603 0.0
C198 C 0.76674 0.55904 0.59865 0.0
C199 C 0.75958 0.54366 0.61464 0.0
C200 C 0.8201 0.5652 0.60082 0.0
O201 O 0.81773 0.54522 0.60871 0.0
H202 H 0.79055 0.51246 0.57623 0.0
H203 H 0.76427 0.57674 0.601 0.0
O204 O 0.81797 0.53488 0.54169 0.0
H205 H 0.75253 0.60009 0.49433 0.0
H206 H 0.7502 0.54718 0.63172 0.0
Cu207 Cu 0.56111 0.78818 0.57256 0.0
N208 N 0.57913 0.77275 0.54724 0.0
N209 N 0.60407 0.76547 0.51573 0.0
C210 C 0.59582 0.77873 0.53423 0.0
C211 C 0.59219 0.75041 0.51744 0.0
C212 C 0.57686 0.75498 0.53672 0.0
O213 O 0.57916 0.79759 0.59343 0.0
C214 C 0.53982 0.82046 0.53608 0.0
O215 O 0.55889 0.81766 0.52426 0.0
H216 H 0.60139 0.79293 0.53795 0.0
H217 H 0.56444 0.74642 0.54217 0.0
N218 N 0.54524 0.77053 0.59181 0.0
N219 N 0.51754 0.76218 0.61517 0.0
C220 C 0.52542 0.77868 0.60305 0.0
C221 C 0.55018 0.74807 0.59705 0.0
C222 C 0.53317 0.74288 0.61136 0.0
C223 C 0.59587 0.78238 0.60008 0.0
O224 O 0.59945 0.76206 0.59274 0.0
H225 H 0.51679 0.79641 0.60193 0.0
H226 H 0.56505 0.73629 0.59084 0.0
O227 O 0.53862 0.81239 0.55801 0.0
H228 H 0.59381 0.73757 0.50501 0.0
H229 H 0.53252 0.72615 0.6186 0.0
Cu230 Cu 0.27925 0.50867 0.54141 0.0
N231 N 0.26183 0.53546 0.52716 0.0
N232 N 0.25349 0.56876 0.50513 0.0
C233 C 0.26947 0.55174 0.51448 0.0
C234 C 0.23504 0.56285 0.51227 0.0
C235 C 0.24024 0.54232 0.52583 0.0
O236 O 0.3044 0.51681 0.54991 0.0
C237 C 0.26956 0.4788 0.5139 0.0
O238 O 0.25089 0.48634 0.52618 0.0
H239 H 0.28654 0.55072 0.51164 0.0
H240 H 0.22909 0.53294 0.53385 0.0
N241 N 0.26569 0.49785 0.56972 0.0
N242 N 0.25891 0.47425 0.60092 0.0
C243 C 0.27195 0.47694 0.58095 0.0
C244 C 0.24804 0.50877 0.58302 0.0
C245 C 0.24376 0.49423 0.60221 0.0
C246 C 0.3175 0.50633 0.56562 0.0
O247 O 0.31663 0.48619 0.57491 0.0
H248 H 0.2857 0.46385 0.57444 0.0
H249 H 0.23899 0.52612 0.57913 0.0
O250 O 0.28539 0.48621 0.51783 0.0
H251 H 0.2189 0.57261 0.50807 0.0
H252 H 0.23078 0.49819 0.6163 0.0
Cu253 Cu 0.51562 0.25633 0.5189 0.0
N254 N 0.53778 0.23985 0.49855 0.0
N255 N 0.56975 0.23085 0.47717 0.0
C256 C 0.55618 0.24566 0.49162 0.0
C257 C 0.55925 0.21517 0.4747 0.0
C258 C 0.5395 0.22081 0.48789 0.0
O259 O 0.5296 0.27315 0.53755 0.0
C260 C 0.48048 0.26112 0.492 0.0
O261 O 0.48532 0.23952 0.49911 0.0
H262 H 0.55933 0.26072 0.49693 0.0
H263 H 0.52731 0.21166 0.48957 0.0
N264 N 0.50477 0.23752 0.5423 0.0
N265 N 0.4881 0.22776 0.57719 0.0
C266 C 0.49163 0.24491 0.56177 0.0
C267 C 0.50975 0.21485 0.54534 0.0
C268 C 0.4994 0.20878 0.56681 0.0
C269 C 0.5436 0.25978 0.55091 0.0
O270 O 0.5468 0.23796 0.54995 0.0
H271 H 0.48518 0.26262 0.56468 0.0
H272 H 0.52077 0.20352 0.53336 0.0
O273 O 0.49187 0.27308 0.49869 0.0
H274 H 0.56543 0.20055 0.46435 0.0
H275 H 0.50084 0.19172 0.5746 0.0
Ho276 Ho 0.2699 0.27807 0.32542 0.0
Ho277 Ho 0.30009 0.29909 0.28648 0.0
C278 C 0.29723 0.24737 0.28315 0.0
C279 C 0.23647 0.26744 0.34714 0.0
C280 C 0.22167 0.25387 0.34386 0.0
C281 C 0.22618 0.23852 0.32587 0.0
C282 C 0.21352 0.22347 0.32539 0.0
C283 C 0.19629 0.22348 0.34303 0.0
C284 C 0.19134 0.2396 0.36031 0.0
C285 C 0.20393 0.25463 0.36071 0.0
C286 C 0.30858 0.27531 0.34361 0.0
C287 C 0.27651 0.32732 0.33106 0.0
C288 C 0.33146 0.30927 0.25935 0.0
C289 C 0.34476 0.32545 0.25804 0.0
C290 C 0.36073 0.32328 0.27439 0.0
C291 C 0.37378 0.33819 0.27193 0.0
C292 C 0.37117 0.35555 0.25308 0.0
C293 C 0.35498 0.35782 0.237 0.0
C294 C 0.34204 0.34289 0.23938 0.0
C295 C 0.25792 0.3069 0.2769 0.0
O296 O 0.28247 0.24932 0.30173 0.0
O297 O 0.30641 0.2637 0.27491 0.0
O298 O 0.25648 0.25592 0.35058 0.0
O299 O 0.23506 0.28596 0.3328 0.0
O300 O 0.29336 0.26763 0.35527 0.0
O301 O 0.30218 0.28305 0.32298 0.0
O302 O 0.29365 0.32315 0.31533 0.0
O303 O 0.26293 0.31438 0.33439 0.0
O304 O 0.31103 0.31783 0.25523 0.0
O305 O 0.33444 0.29309 0.27688 0.0
O306 O 0.26931 0.32124 0.27102 0.0
O307 O 0.26989 0.28904 0.2865 0.0
H308 H 0.23993 0.23761 0.31279 0.0
H309 H 0.2178 0.2112 0.31192 0.0
H310 H 0.17797 0.24031 0.37386 0.0
H311 H 0.20024 0.26635 0.37474 0.0
H312 H 0.36338 0.30992 0.28888 0.0
H313 H 0.38625 0.33576 0.28447 0.0
H314 H 0.35224 0.3712 0.22253 0.0
H315 H 0.32994 0.3449 0.22645 0.0
Ho316 Ho 0.79593 0.28258 0.31594 0.0
Ho317 Ho 0.77678 0.26232 0.28142 0.0
C318 C 0.75786 0.26301 0.33782 0.0
C319 C 0.81213 0.30844 0.338 0.0
C320 C 0.8092 0.32272 0.35852 0.0
C321 C 0.79481 0.34446 0.35801 0.0
C322 C 0.79506 0.35912 0.37551 0.0
C323 C 0.80975 0.35238 0.3938 0.0
C324 C 0.82343 0.33028 0.3949 0.0
C325 C 0.8232 0.31567 0.37741 0.0
C326 C 0.81394 0.23746 0.31444 0.0
C327 C 0.81689 0.27879 0.26011 0.0
C328 C 0.75959 0.23768 0.2588 0.0
C329 C 0.76305 0.22271 0.2388 0.0
C330 C 0.77171 0.19929 0.24314 0.0
C331 C 0.77183 0.18478 0.2254 0.0
C332 C 0.7632 0.19335 0.20297 0.0
C333 C 0.75521 0.21681 0.19831 0.0
C334 C 0.75503 0.23132 0.21608 0.0
C335 C 0.75911 0.30749 0.28333 0.0
O336 O 0.7674 0.2788 0.34056 0.0
O337 O 0.76147 0.25258 0.31763 0.0
O338 O 0.81621 0.28666 0.34307 0.0
O339 O 0.79975 0.31567 0.31988 0.0
O340 O 0.80989 0.24806 0.33402 0.0
O341 O 0.80863 0.25145 0.29648 0.0
O342 O 0.80648 0.26361 0.25792 0.0
O343 O 0.81306 0.2903 0.27964 0.0
O344 O 0.75727 0.25917 0.25306 0.0
O345 O 0.77053 0.23024 0.27799 0.0
O346 O 0.76397 0.29717 0.2636 0.0
O347 O 0.76382 0.29328 0.30125 0.0
H348 H 0.78389 0.35047 0.34362 0.0
H349 H 0.7841 0.37593 0.37436 0.0
H350 H 0.83511 0.32462 0.40854 0.0
H351 H 0.8347 0.29914 0.37806 0.0
H352 H 0.77779 0.19206 0.26053 0.0
H353 H 0.7784 0.1668 0.22939 0.0
H354 H 0.74828 0.22391 0.18129 0.0
H355 H 0.74788 0.24924 0.21231 0.0
Ho356 Ho 0.80079 0.75225 0.27874 0.0
Ho357 Ho 0.80159 0.80048 0.28855 0.0
C358 C 0.76621 0.77987 0.31901 0.0
C359 C 0.80006 0.71048 0.28067 0.0
C360 C 0.78461 0.69886 0.27411 0.0
C361 C 0.78343 0.67847 0.28688 0.0
C362 C 0.76821 0.6677 0.28149 0.0
C363 C 0.75396 0.67716 0.26317 0.0
C364 C 0.75532 0.69756 0.25031 0.0
C365 C 0.77044 0.70838 0.25581 0.0
C366 C 0.77831 0.78567 0.24804 0.0
C367 C 0.8348 0.77326 0.24733 0.0
C368 C 0.80292 0.8421 0.28673 0.0
C369 C 0.8163 0.85424 0.2969 0.0
C370 C 0.82134 0.87267 0.28325 0.0
C371 C 0.83484 0.88381 0.29205 0.0
C372 C 0.84354 0.87675 0.31476 0.0
C373 C 0.83824 0.85836 0.3285 0.0
C374 C 0.82483 0.84716 0.31961 0.0
C375 C 0.82446 0.76669 0.31876 0.0
O376 O 0.77811 0.76004 0.31222 0.0
O377 O 0.76982 0.79895 0.30878 0.0
O378 O 0.80962 0.72026 0.26272 0.0
O379 O 0.79354 0.72304 0.2989 0.0
O380 O 0.7859 0.76483 0.24316 0.0
O381 O 0.78011 0.78672 0.27021 0.0
O382 O 0.82205 0.79299 0.25338 0.0
O383 O 0.83257 0.75419 0.25909 0.0
O384 O 0.79004 0.83361 0.30208 0.0
O385 O 0.81288 0.82825 0.27049 0.0
O386 O 0.81638 0.7873 0.32428 0.0
O387 O 0.82245 0.76614 0.29659 0.0
H388 H 0.79417 0.67096 0.30115 0.0
H389 H 0.76766 0.65192 0.29158 0.0
H390 H 0.74437 0.70541 0.23634 0.0
H391 H 0.77091 0.72428 0.24594 0.0
H392 H 0.81508 0.87824 0.26558 0.0
H393 H 0.83884 0.89764 0.28079 0.0
H394 H 0.84441 0.85264 0.34617 0.0
H395 H 0.82125 0.83287 0.33041 0.0
Ho396 Ho 0.27091 0.77736 0.28373 0.0
Ho397 Ho 0.30475 0.7918 0.31328 0.0
C398 C 0.29912 0.81083 0.25774 0.0
C399 C 0.23543 0.77694 0.26598 0.0
C400 C 0.22701 0.77154 0.24434 0.0
C401 C 0.20524 0.7815 0.24009 0.0
C402 C 0.19612 0.77545 0.22087 0.0
C403 C 0.20864 0.7593 0.20544 0.0
C404 C 0.23067 0.74968 0.20945 0.0
C405 C 0.2398 0.75578 0.22875 0.0
C406 C 0.31164 0.74923 0.27742 0.0
C407 C 0.28043 0.75487 0.33787 0.0
C408 C 0.33403 0.79844 0.33798 0.0
C409 C 0.34969 0.79165 0.357 0.0
C410 C 0.37182 0.78248 0.35069 0.0
C411 C 0.3873 0.78159 0.36707 0.0
C412 C 0.381 0.79006 0.39001 0.0
C413 C 0.35877 0.79778 0.39685 0.0
C414 C 0.34332 0.79857 0.38054 0.0
C415 C 0.2649 0.82093 0.30934 0.0
O416 O 0.28128 0.80396 0.2582 0.0
O417 O 0.31253 0.80508 0.27544 0.0
O418 O 0.24712 0.7599 0.27909 0.0
O419 O 0.24294 0.79473 0.2638 0.0
O420 O 0.29512 0.74738 0.26688 0.0
O421 O 0.30515 0.76623 0.28937 0.0
O422 O 0.29793 0.76233 0.33701 0.0
O423 O 0.26594 0.76166 0.32135 0.0
O424 O 0.3133 0.80406 0.34477 0.0
O425 O 0.33856 0.78899 0.31728 0.0
O426 O 0.28248 0.82707 0.30971 0.0
O427 O 0.2692 0.79977 0.31243 0.0
H428 H 0.1951 0.7936 0.25203 0.0
H429 H 0.17905 0.78295 0.2186 0.0
H430 H 0.24082 0.73738 0.19775 0.0
H431 H 0.25669 0.74793 0.23174 0.0
H432 H 0.37729 0.77719 0.33263 0.0
H433 H 0.40427 0.77513 0.36137 0.0
H434 H 0.35326 0.80465 0.41423 0.0
H435 H 0.32644 0.80604 0.38591 0.0
Ho436 Ho 0.28634 0.79317 0.80878 0.0
Ho437 Ho 0.27548 0.75772 0.78211 0.0
C438 C 0.2475 0.7708 0.83137 0.0
C439 C 0.28739 0.82677 0.83219 0.0
C440 C 0.27342 0.84254 0.84889 0.0
C441 C 0.25145 0.85281 0.84533 0.0
C442 C 0.23901 0.86847 0.86117 0.0
C443 C 0.24831 0.87382 0.8809 0.0
C444 C 0.27018 0.86311 0.88455 0.0
C445 C 0.28258 0.84767 0.86869 0.0
C446 C 0.31517 0.75202 0.8124 0.0
C447 C 0.31421 0.78009 0.75953 0.0
C448 C 0.27547 0.7228 0.76026 0.0
C449 C 0.29033 0.7042 0.74725 0.0
C450 C 0.29458 0.68211 0.75826 0.0
C451 C 0.30605 0.66381 0.74529 0.0
C452 C 0.31341 0.66716 0.72091 0.0
C453 C 0.31014 0.68934 0.71023 0.0
C454 C 0.29864 0.70771 0.72326 0.0
C455 C 0.24688 0.79917 0.77783 0.0
O456 O 0.25597 0.78814 0.83026 0.0
O457 O 0.25468 0.75467 0.81634 0.0
O458 O 0.29387 0.80572 0.84085 0.0
O459 O 0.28221 0.82893 0.80967 0.0
O460 O 0.32018 0.77094 0.81153 0.0
O461 O 0.29482 0.75572 0.81306 0.0
O462 O 0.30612 0.76246 0.76125 0.0
O463 O 0.30661 0.79664 0.77405 0.0
O464 O 0.27152 0.74326 0.74957 0.0
O465 O 0.27735 0.72225 0.7836 0.0
O466 O 0.24178 0.78035 0.77789 0.0
O467 O 0.26721 0.79513 0.7777 0.0
H468 H 0.24398 0.84893 0.83025 0.0
H469 H 0.22217 0.8764 0.85799 0.0
H470 H 0.27794 0.86715 0.8993 0.0
H471 H 0.2995 0.83994 0.8717 0.0
H472 H 0.28835 0.67887 0.7767 0.0
H473 H 0.3086 0.64695 0.75414 0.0
H474 H 0.31547 0.69247 0.69143 0.0
H475 H 0.29561 0.72452 0.71422 0.0
Ho476 Ho 0.2961 0.23802 0.79958 0.0
Ho477 Ho 0.29959 0.28182 0.8169 0.0
C478 C 0.25604 0.26839 0.83205 0.0
C479 C 0.29036 0.19902 0.7947 0.0
C480 C 0.27192 0.19087 0.7903 0.0
C481 C 0.2754 0.16843 0.78515 0.0
C482 C 0.25811 0.16065 0.77992 0.0
C483 C 0.23702 0.17523 0.77978 0.0
C484 C 0.23362 0.19774 0.78514 0.0
C485 C 0.25096 0.20551 0.79033 0.0
C486 C 0.28449 0.27487 0.76774 0.0
C487 C 0.3402 0.25009 0.78618 0.0
C488 C 0.30456 0.32142 0.82048 0.0
C489 C 0.32257 0.33127 0.8217 0.0
C490 C 0.31823 0.35458 0.82287 0.0
C491 C 0.33501 0.36424 0.82519 0.0
C492 C 0.35644 0.35068 0.8264 0.0
C493 C 0.36076 0.32727 0.82489 0.0
C494 C 0.34392 0.31763 0.82251 0.0
C495 C 0.30957 0.24579 0.84973 0.0
O496 O 0.26614 0.24825 0.82468 0.0
O497 O 0.26435 0.28576 0.82718 0.0
O498 O 0.29672 0.21158 0.77677 0.0
O499 O 0.28958 0.20707 0.81573 0.0
O500 O 0.29388 0.25472 0.76145 0.0
O501 O 0.28027 0.27419 0.79034 0.0
O502 O 0.33001 0.27071 0.79222 0.0
O503 O 0.33159 0.23308 0.79191 0.0
O504 O 0.30125 0.30784 0.83913 0.0
O505 O 0.30321 0.31371 0.79981 0.0
O506 O 0.30088 0.26635 0.85518 0.0
O507 O 0.3146 0.2456 0.82718 0.0
H508 H 0.29155 0.157 0.78488 0.0
H509 H 0.26132 0.14332 0.77553 0.0
H510 H 0.21755 0.20931 0.78543 0.0
H511 H 0.24806 0.22295 0.79422 0.0
H512 H 0.30179 0.36529 0.82235 0.0
H513 H 0.33112 0.38226 0.82666 0.0
H514 H 0.37713 0.31645 0.82554 0.0
H515 H 0.34749 0.29955 0.82157 0.0
Ho516 Ho 0.77164 0.28529 0.78651 0.0
Ho517 Ho 0.80731 0.29984 0.81374 0.0
C518 C 0.79928 0.31868 0.75864 0.0
C519 C 0.73469 0.28738 0.77024 0.0
C520 C 0.72308 0.28795 0.74822 0.0
C521 C 0.70587 0.30688 0.74245 0.0
C522 C 0.69277 0.30695 0.7237 0.0
C523 C 0.69647 0.288 0.71024 0.0
C524 C 0.71415 0.26929 0.71556 0.0
C525 C 0.72727 0.26923 0.73434 0.0
C526 C 0.81231 0.25757 0.7779 0.0
C527 C 0.78603 0.26006 0.83795 0.0
C528 C 0.83652 0.30689 0.83852 0.0
C529 C 0.85156 0.30087 0.85835 0.0
C530 C 0.87236 0.28594 0.85554 0.0
C531 C 0.88754 0.2838 0.87282 0.0
C532 C 0.88237 0.29675 0.89316 0.0
C533 C 0.8613 0.31113 0.89617 0.0
C534 C 0.84617 0.31312 0.87908 0.0
C535 C 0.76698 0.32839 0.81227 0.0
O536 O 0.78193 0.31091 0.75982 0.0
O537 O 0.81324 0.31399 0.77579 0.0
O538 O 0.74839 0.26842 0.77765 0.0
O539 O 0.74112 0.3052 0.77316 0.0
O540 O 0.79514 0.25549 0.76877 0.0
O541 O 0.80641 0.27496 0.78943 0.0
O542 O 0.80263 0.26902 0.83629 0.0
O543 O 0.77004 0.26675 0.8232 0.0
O544 O 0.81571 0.31305 0.8447 0.0
O545 O 0.84129 0.29654 0.81836 0.0
O546 O 0.78457 0.33476 0.81094 0.0
O547 O 0.77156 0.30715 0.81535 0.0
H548 H 0.70206 0.32143 0.75304 0.0
H549 H 0.67921 0.32155 0.72042 0.0
H550 H 0.71773 0.25452 0.70537 0.0
H551 H 0.74036 0.25433 0.73832 0.0
H552 H 0.87715 0.27644 0.83964 0.0
H553 H 0.90346 0.27229 0.86997 0.0
H554 H 0.85667 0.32175 0.91118 0.0
H555 H 0.83048 0.32516 0.88157 0.0
Ho556 Ho 0.76316 0.77078 0.79842 0.0
Ho557 Ho 0.80323 0.78417 0.76701 0.0
C558 C 0.79697 0.73499 0.7642 0.0
C559 C 0.7254 0.76471 0.81051 0.0
C560 C 0.71611 0.74613 0.81983 0.0
C561 C 0.69387 0.75082 0.8262 0.0
C562 C 0.68448 0.73335 0.83427 0.0
C563 C 0.69721 0.71081 0.83613 0.0
C564 C 0.71962 0.70622 0.82994 0.0
C565 C 0.72901 0.72376 0.82186 0.0
C566 C 0.80072 0.75673 0.82158 0.0
C567 C 0.77313 0.81777 0.80586 0.0
C568 C 0.83727 0.79608 0.74965 0.0
C569 C 0.85072 0.81072 0.75422 0.0
C570 C 0.87322 0.80287 0.75008 0.0
C571 C 0.8863 0.81731 0.75099 0.0
C572 C 0.87707 0.83995 0.75596 0.0
C573 C 0.85457 0.84746 0.76136 0.0
C574 C 0.84149 0.83296 0.76051 0.0
C575 C 0.76701 0.78832 0.74422 0.0
O576 O 0.7772 0.74164 0.77504 0.0
O577 O 0.81106 0.74725 0.76236 0.0
O578 O 0.73664 0.77118 0.82546 0.0
O579 O 0.73446 0.76352 0.78835 0.0
O580 O 0.78281 0.75225 0.83045 0.0
O581 O 0.79694 0.76719 0.80134 0.0
O582 O 0.79186 0.8114 0.79289 0.0
O583 O 0.75836 0.8063 0.80806 0.0
O584 O 0.81775 0.80617 0.74288 0.0
O585 O 0.83808 0.77817 0.76475 0.0
O586 O 0.78645 0.78261 0.73389 0.0
O587 O 0.76765 0.79286 0.76574 0.0
H588 H 0.68368 0.76801 0.82461 0.0
H589 H 0.66714 0.73746 0.8385 0.0
H590 H 0.72991 0.68908 0.83138 0.0
H591 H 0.74626 0.71989 0.817 0.0
H592 H 0.88064 0.78574 0.74531 0.0
H593 H 0.90361 0.81087 0.74725 0.0
H594 H 0.84694 0.86482 0.76513 0.0
H595 H 0.82413 0.83937 0.76386 0.0
C596 C 0.09591 0.08037 0.38484 0.0
C597 C 0.08618 0.07548 0.36518 0.0
C598 C 0.10863 0.09559 0.38156 0.0
C599 C 0.119 0.14256 0.33935 0.0
H600 H 0.17007 0.1322 0.37518 0.0
C601 C 0.17761 0.19973 0.3234 0.0
C602 C 0.18428 0.206 0.34441 0.0
C603 C 0.16628 0.18325 0.32503 0.0
C604 C 0.15577 0.13541 0.36516 0.0
H605 H 0.08246 0.08302 0.3265 0.0
H606 H 0.10506 0.10886 0.32073 0.0
H607 H 0.14933 0.10437 0.37973 0.0
H608 H 0.18475 0.19944 0.3835 0.0
H609 H 0.16491 0.17095 0.38634 0.0
H610 H 0.12554 0.1736 0.32475 0.0
C611 C 0.10257 0.1012 0.3388 0.0
C612 C 0.14383 0.11947 0.36781 0.0
C613 C 0.08978 0.08606 0.34209 0.0
C614 C 0.17959 0.19524 0.367 0.0
C615 C 0.16843 0.1787 0.36861 0.0
C616 C 0.13101 0.15844 0.3366 0.0
C617 C 0.11205 0.10629 0.35851 0.0
C618 C 0.12518 0.12292 0.3551 0.0
C619 C 0.1616 0.17253 0.34767 0.0
C620 C 0.14942 0.15515 0.34964 0.0
H621 H 0.09375 0.07243 0.40283 0.0
H622 H 0.11546 0.09926 0.39723 0.0
H623 H 0.10456 0.14598 0.32954 0.0
H624 H 0.18093 0.20776 0.30575 0.0
H625 H 0.16137 0.17874 0.30855 0.0
C626 C 0.9702 0.07021 0.28871 0.0
C627 C 0.9846 0.06904 0.30661 0.0
C628 C 0.95165 0.0885 0.28654 0.0
C629 C 0.9267 0.14657 0.30724 0.0
H630 H 0.87285 0.13595 0.2927 0.0
C631 C 0.84366 0.20649 0.33211 0.0
C632 C 0.83099 0.21592 0.31246 0.0
C633 C 0.8618 0.18806 0.32934 0.0
C634 C 0.88784 0.13912 0.29661 0.0
H635 H 0.99071 0.08635 0.33617 0.0
H636 H 0.95846 0.11738 0.333 0.0
H637 H 0.90633 0.10523 0.29104 0.0
H638 H 0.82667 0.21268 0.27489 0.0
H639 H 0.85818 0.17977 0.27033 0.0
H640 H 0.90792 0.18011 0.31397 0.0
C641 C 0.9616 0.10472 0.32004 0.0
C642 C 0.90708 0.1216 0.29552 0.0
C643 C 0.98016 0.0867 0.322 0.0
C644 C 0.83617 0.20575 0.29033 0.0
C645 C 0.85414 0.18697 0.28771 0.0
C646 C 0.90746 0.16385 0.30878 0.0
C647 C 0.94698 0.10592 0.30236 0.0
C648 C 0.92675 0.12498 0.30123 0.0
C649 C 0.86742 0.17837 0.30704 0.0
C650 C 0.88782 0.16022 0.30381 0.0
H651 H 0.97314 0.05691 0.27655 0.0
H652 H 0.94099 0.08892 0.27248 0.0
H653 H 0.94151 0.15016 0.31104 0.0
H654 H 0.8401 0.21392 0.34938 0.0
H655 H 0.8717 0.1816 0.34456 0.0
C656 C 0.96295 0.98791 0.3614 0.0
C657 C 0.98209 0.97576 0.37215 0.0
C658 C 0.94707 0.97729 0.35788 0.0
C659 C 0.94091 0.92113 0.35032 0.0
H660 H 0.87949 0.95054 0.35895 0.0
C661 C 0.87669 0.87561 0.33594 0.0
C662 C 0.85848 0.88819 0.32377 0.0
C663 C 0.8911 0.88622 0.34372 0.0
C664 C 0.89658 0.94217 0.35623 0.0
H665 H 0.99921 0.94298 0.38821 0.0
H666 H 0.97139 0.92456 0.38239 0.0
H667 H 0.90565 0.96927 0.36965 0.0
H668 H 0.84093 0.92199 0.31081 0.0
H669 H 0.86638 0.9404 0.32373 0.0
H670 H 0.93197 0.89424 0.33648 0.0
C671 C 0.96879 0.94227 0.37643 0.0
C672 C 0.91157 0.9529 0.36241 0.0
C673 C 0.98464 0.95291 0.38003 0.0
C674 C 0.85492 0.91172 0.31984 0.0
C675 C 0.86938 0.92232 0.32755 0.0
C676 C 0.92595 0.91045 0.34407 0.0
C677 C 0.94998 0.95425 0.36497 0.0
C678 C 0.93392 0.94254 0.35943 0.0
C679 C 0.88774 0.90969 0.33946 0.0
C680 C 0.90359 0.92086 0.34683 0.0
H681 H 0.96035 1.00559 0.3554 0.0
H682 H 0.93284 0.98699 0.34888 0.0
H683 H 0.95801 0.91285 0.34739 0.0
H684 H 0.8801 0.85744 0.33906 0.0
H685 H 0.90491 0.87599 0.35309 0.0
C686 C 0.09907 0.97493 0.30483 0.0
C687 C 0.07928 0.96922 0.30842 0.0
C688 C 0.11859 0.95826 0.30114 0.0
C689 C 0.14243 0.89741 0.31503 0.0
H690 H 0.19049 0.90702 0.27182 0.0
C691 C 0.22463 0.82899 0.30731 0.0
C692 C 0.24326 0.83671 0.30607 0.0
C693 C 0.20419 0.84433 0.30491 0.0
C694 C 0.1773 0.90411 0.28413 0.0
H695 H 0.06451 0.94155 0.30967 0.0
H696 H 0.09848 0.91261 0.30309 0.0
H697 H 0.15568 0.93555 0.27189 0.0
H698 H 0.2552 0.86643 0.30113 0.0
H699 H 0.21975 0.89312 0.29745 0.0
H700 H 0.16412 0.86628 0.32775 0.0
C701 C 0.09893 0.92993 0.30349 0.0
C702 C 0.15731 0.92048 0.28413 0.0
C703 C 0.07942 0.94659 0.30707 0.0
C704 C 0.24112 0.85997 0.30213 0.0
C705 C 0.22077 0.87528 0.2998 0.0
C706 C 0.16244 0.88109 0.31511 0.0
C707 C 0.1188 0.93547 0.30102 0.0
C708 C 0.13969 0.91745 0.29976 0.0
C709 C 0.20198 0.86772 0.30128 0.0
C710 C 0.18023 0.88433 0.29989 0.0
H711 H 0.09959 0.99216 0.3058 0.0
H712 H 0.13359 0.96312 0.29945 0.0
H713 H 0.12931 0.89465 0.32757 0.0
H714 H 0.22581 0.81113 0.31035 0.0
H715 H 0.19013 0.83786 0.30587 0.0
C716 C 0.10992 0.97545 0.74037 0.0
C717 C 0.0934 0.98433 0.75802 0.0
C718 C 0.12744 0.95719 0.74625 0.0
C719 C 0.14471 0.90832 0.79096 0.0
H720 H 0.20035 0.90397 0.75546 0.0
C721 C 0.20852 0.82271 0.78104 0.0
C722 C 0.2307 0.82154 0.77888 0.0
C723 C 0.19282 0.84346 0.78193 0.0
C724 C 0.1851 0.90489 0.76589 0.0
H725 H 0.08275 0.98093 0.79606 0.0
H726 H 0.11374 0.94882 0.80653 0.0
H727 H 0.17167 0.93891 0.75181 0.0
H728 H 0.25378 0.84139 0.77612 0.0
H729 H 0.22642 0.87774 0.77836 0.0
H730 H 0.15828 0.87436 0.80532 0.0
C731 C 0.11287 0.95606 0.78795 0.0
C732 C 0.16845 0.92495 0.76352 0.0
C733 C 0.09516 0.97455 0.78201 0.0
C734 C 0.23684 0.8417 0.7779 0.0
C735 C 0.22108 0.86257 0.77897 0.0
C736 C 0.16144 0.88827 0.79347 0.0
C737 C 0.12925 0.94709 0.77006 0.0
C738 C 0.14779 0.92678 0.77545 0.0
C739 C 0.19878 0.86379 0.78085 0.0
C740 C 0.18174 0.88602 0.78045 0.0
H741 H 0.10926 0.98241 0.72167 0.0
H742 H 0.13932 0.95062 0.73179 0.0
H743 H 0.12909 0.90898 0.80044 0.0
H744 H 0.2032 0.80749 0.78185 0.0
H745 H 0.17595 0.84353 0.78286 0.0
C746 C 0.10813 0.07612 0.73668 0.0
C747 C 0.09044 0.08769 0.7232 0.0
C748 C 0.12328 0.08695 0.74181 0.0
C749 C 0.14595 0.13472 0.72351 0.0
H750 H 0.16148 0.12613 0.7903 0.0
C751 C 0.20308 0.18028 0.75857 0.0
C752 C 0.21877 0.16696 0.7738 0.0
C753 C 0.18634 0.17209 0.75232 0.0
C754 C 0.15747 0.12855 0.77154 0.0
H755 H 0.07531 0.11947 0.70364 0.0
H756 H 0.10209 0.13841 0.71242 0.0
H757 H 0.13481 0.10877 0.77848 0.0
H758 H 0.22889 0.13482 0.79488 0.0
H759 H 0.20006 0.12034 0.7836 0.0
H760 H 0.16895 0.15419 0.7165 0.0
C761 C 0.10409 0.12093 0.71903 0.0
C762 C 0.14219 0.11862 0.76478 0.0
C763 C 0.08881 0.11007 0.71396 0.0
C764 C 0.21721 0.1454 0.78289 0.0
C765 C 0.20051 0.13721 0.77665 0.0
C766 C 0.16136 0.14459 0.73026 0.0
C767 C 0.12118 0.10959 0.73348 0.0
C768 C 0.13651 0.12131 0.74064 0.0
C769 C 0.18492 0.15042 0.76124 0.0
C770 C 0.16751 0.14133 0.75429 0.0
H771 H 0.11015 0.05871 0.74353 0.0
H772 H 0.13659 0.07762 0.75249 0.0
H773 H 0.14192 0.13698 0.70476 0.0
H774 H 0.20396 0.19689 0.75109 0.0
H775 H 0.17446 0.18274 0.74059 0.0
C776 C 0.98067 0.09948 0.78343 0.0
C777 C 0.97847 0.08508 0.76639 0.0
C778 C 0.96325 0.11805 0.7896 0.0
C779 C 0.90347 0.14102 0.78636 0.0
H780 H 0.91387 0.20009 0.78257 0.0
C781 C 0.83599 0.22092 0.76505 0.0
C782 C 0.83316 0.2397 0.77847 0.0
C783 C 0.85432 0.20259 0.76698 0.0
C784 C 0.91071 0.18369 0.78404 0.0
H785 H 0.9561 0.07826 0.74336 0.0
H786 H 0.92603 0.10994 0.75427 0.0
H787 H 0.9446 0.16619 0.78142 0.0
H788 H 0.84769 0.25416 0.8041 0.0
H789 H 0.8802 0.22199 0.80726 0.0
H790 H 0.86972 0.15834 0.78822 0.0
C791 C 0.941 0.10717 0.76296 0.0
C792 C 0.92833 0.16424 0.78346 0.0
C793 C 0.95832 0.08898 0.7566 0.0
C794 C 0.84951 0.24001 0.79339 0.0
C795 C 0.86808 0.22157 0.79523 0.0
C796 C 0.88597 0.16034 0.78687 0.0
C797 C 0.94325 0.12225 0.77918 0.0
C798 C 0.9249 0.14268 0.78387 0.0
C799 C 0.87047 0.20242 0.78237 0.0
C800 C 0.88931 0.18199 0.78497 0.0
H801 H 0.99608 0.09705 0.79106 0.0
H802 H 0.96552 0.12928 0.80225 0.0
H803 H 0.90017 0.12471 0.78727 0.0
H804 H 0.82376 0.22016 0.75332 0.0
H805 H 0.85579 0.18839 0.75641 0.0
C806 C 0.97526 0.98541 0.74328 0.0
C807 C 0.99109 0.98383 0.72378 0.0
C808 C 0.96268 0.97012 0.74706 0.0
C809 C 0.96279 0.91313 0.73334 0.0
H810 H 0.90141 0.9329 0.75234 0.0
C811 C 0.90669 0.85511 0.73457 0.0
C812 C 0.89069 0.85597 0.75379 0.0
C813 C 0.91902 0.87061 0.73172 0.0
C814 C 0.91859 0.92708 0.74736 0.0
H815 H 1.00587 0.96506 0.69278 0.0
H816 H 0.98366 0.93859 0.69913 0.0
H817 H 0.9224 0.96053 0.74509 0.0
H818 H 0.8753 0.87366 0.78531 0.0
H819 H 0.89693 0.90082 0.78033 0.0
H820 H 0.95899 0.87972 0.73554 0.0
C821 C 0.98119 0.95152 0.71168 0.0
C822 C 0.93061 0.94291 0.74315 0.0
C823 C 0.99375 0.96685 0.70787 0.0
C824 C 0.88737 0.87268 0.77019 0.0
C825 C 0.89972 0.88824 0.76732 0.0
C826 C 0.95079 0.89733 0.73754 0.0
C827 C 0.96564 0.95287 0.73144 0.0
C828 C 0.95282 0.93611 0.73598 0.0
C829 C 0.91565 0.8874 0.748 0.0
C830 C 0.92853 0.90413 0.74447 0.0
H831 H 0.97259 0.99847 0.75567 0.0
H832 H 0.95094 0.97154 0.76254 0.0
H833 H 0.97996 0.90729 0.72829 0.0
H834 H 0.90934 0.84279 0.72129 0.0
H835 H 0.93087 0.86975 0.7164 0.0
C836 C 0.27789 0.09494 0.17452 0.0
C837 C 0.28265 0.09593 0.14924 0.0
C838 C 0.28322 0.10976 0.18866 0.0
C839 C 0.29513 0.16516 0.18426 0.0
H840 H 0.31194 0.14621 0.24998 0.0
C841 C 0.31247 0.22684 0.24593 0.0
C842 C 0.30147 0.22727 0.26909 0.0
C843 C 0.31374 0.20936 0.23125 0.0
C844 C 0.30724 0.15175 0.23167 0.0
H845 H 0.29716 0.11326 0.11917 0.0
H846 H 0.30696 0.13875 0.14392 0.0
H847 H 0.30766 0.11843 0.22402 0.0
H848 H 0.28417 0.20897 0.29541 0.0
H849 H 0.28655 0.17852 0.26989 0.0
H850 H 0.29454 0.19851 0.19204 0.0
C851 C 0.29875 0.12668 0.15275 0.0
C852 C 0.3047 0.13586 0.2168 0.0
C853 C 0.29333 0.11188 0.13856 0.0
C854 C 0.29274 0.20923 0.27767 0.0
C855 C 0.29418 0.19169 0.26307 0.0
C856 C 0.29781 0.18101 0.19908 0.0
C857 C 0.2936 0.12593 0.17797 0.0
C858 C 0.29822 0.14243 0.19305 0.0
C859 C 0.30425 0.19183 0.23949 0.0
C860 C 0.30353 0.17455 0.22309 0.0
H861 H 0.27 0.08271 0.18351 0.0
H862 H 0.27873 0.10884 0.20795 0.0
H863 H 0.28984 0.17092 0.16622 0.0
H864 H 0.31939 0.24042 0.2387 0.0
H865 H 0.32183 0.20979 0.21326 0.0
C866 C 0.99796 0.24128 0.16097 0.0
C867 C 1.00292 0.25718 0.14306 0.0
C868 C 0.97694 0.24455 0.17182 0.0
C869 C 0.92592 0.28911 0.18266 0.0
H870 H 0.90174 0.23822 0.19851 0.0
C871 C 0.84075 0.26695 0.22278 0.0
C872 C 0.83548 0.28019 0.24275 0.0
C873 C 0.86002 0.26567 0.20842 0.0
C874 C 0.90811 0.25268 0.19393 0.0
H875 H 0.98946 0.28861 0.12192 0.0
H876 H 0.95286 0.29425 0.1407 0.0
H877 H 0.93762 0.23245 0.17773 0.0
H878 H 0.8459 0.30332 0.26258 0.0
H879 H 0.87955 0.30089 0.23776 0.0
H880 H 0.89627 0.3094 0.1986 0.0
C881 C 0.9653 0.2795 0.14679 0.0
C882 C 0.92884 0.24931 0.18232 0.0
C883 C 0.98631 0.27627 0.13602 0.0
C884 C 0.84941 0.29297 0.24732 0.0
C885 C 0.86872 0.29163 0.23301 0.0
C886 C 0.90516 0.2925 0.19424 0.0
C887 C 0.96036 0.26375 0.16491 0.0
C888 C 0.93807 0.26745 0.1767 0.0
C889 C 0.8745 0.27755 0.21374 0.0
C890 C 0.89606 0.2743 0.20017 0.0
H891 H 1.01043 0.22654 0.16695 0.0
H892 H 0.97378 0.23224 0.18596 0.0
H893 H 0.9326 0.30344 0.17881 0.0
H894 H 0.83032 0.25698 0.21864 0.0
H895 H 0.86376 0.25502 0.19341 0.0
C896 C 0.80369 0.93541 0.09382 0.0
C897 C 0.81242 0.92604 0.07182 0.0
C898 C 0.79891 0.92173 0.11404 0.0
C899 C 0.78387 0.86923 0.12963 0.0
H900 H 0.80249 0.87081 0.19365 0.0
C901 C 0.7812 0.79931 0.20462 0.0
C902 C 0.77726 0.80434 0.22898 0.0
C903 C 0.78336 0.81587 0.18635 0.0
C904 C 0.79678 0.87047 0.17601 0.0
H905 H 0.82322 0.89499 0.05383 0.0
H906 H 0.81466 0.87109 0.08908 0.0
H907 H 0.81143 0.89625 0.16007 0.0
H908 H 0.77149 0.8309 0.25332 0.0
H909 H 0.77482 0.86028 0.22114 0.0
H910 H 0.76896 0.84381 0.14533 0.0
C911 C 0.81158 0.88903 0.09067 0.0
C912 C 0.80204 0.88494 0.15677 0.0
C913 C 0.81667 0.90265 0.07058 0.0
C914 C 0.7746 0.82659 0.23466 0.0
C915 C 0.77669 0.84331 0.21625 0.0
C916 C 0.77837 0.85503 0.14886 0.0
C917 C 0.80244 0.89847 0.11251 0.0
C918 C 0.796 0.88411 0.1333 0.0
C919 C 0.78139 0.83804 0.19188 0.0
C920 C 0.78515 0.85507 0.1722 0.0
H921 H 0.80043 0.95337 0.0953 0.0
H922 H 0.79185 0.92944 0.13064 0.0
H923 H 0.77861 0.86859 0.11183 0.0
H924 H 0.78344 0.78229 0.19966 0.0
H925 H 0.78737 0.811 0.16794 0.0
C926 C 0.10455 0.71398 0.05173 0.0
C927 C 0.08675 0.70721 0.06328 0.0
C928 C 0.12077 0.71665 0.06524 0.0
C929 C 0.14242 0.70462 0.1266 0.0
H930 H 0.16188 0.75827 0.10795 0.0
C931 C 0.20317 0.72908 0.18157 0.0
C932 C 0.19835 0.752 0.18595 0.0
C933 C 0.1921 0.72205 0.1647 0.0
C934 C 0.15657 0.74326 0.11348 0.0
H935 H 0.07237 0.69729 0.09804 0.0
H936 H 0.10043 0.7022 0.12167 0.0
H937 H 0.13774 0.74816 0.08275 0.0
H938 H 0.17878 0.78558 0.17519 0.0
H939 H 0.15915 0.77333 0.14635 0.0
H940 H 0.16044 0.70038 0.15797 0.0
C941 C 0.10213 0.70508 0.10211 0.0
C942 C 0.14294 0.73726 0.09882 0.0
C943 C 0.08599 0.70226 0.08856 0.0
C944 C 0.1827 0.76777 0.17251 0.0
C945 C 0.17161 0.76075 0.15572 0.0
C946 C 0.156 0.71069 0.14133 0.0
C947 C 0.11951 0.71276 0.09067 0.0
C948 C 0.13544 0.71802 0.10534 0.0
C949 C 0.17595 0.73777 0.15181 0.0
C950 C 0.16299 0.73028 0.13513 0.0
H951 H 0.10573 0.7176 0.03224 0.0
H952 H 0.13414 0.7221 0.05575 0.0
H953 H 0.13721 0.68954 0.13204 0.0
H954 H 0.21501 0.71645 0.19172 0.0
H955 H 0.19606 0.70426 0.16192 0.0
C956 C 0.209 0.01737 0.0246 0.0
C957 C 0.22853 0.02357 0.02111 0.0
C958 C 0.20375 1.0044 1.00807 0.0
C959 C 0.21883 0.98443 0.9462 0.0
H960 H 0.20349 0.93054 0.97444 0.0
C961 C 0.22365 0.91238 0.88718 0.0
C962 C 0.23594 0.89142 0.897 0.0
C963 C 0.21531 0.9303 0.9019 0.0
C964 C 0.20762 0.94559 0.96624 0.0
H965 H 0.25722 0.0222 0.99692 0.0
H966 H 0.24832 0.99946 0.96837 0.0
H967 H 0.20351 0.96007 1.00035 0.0
H968 H 0.24742 0.87219 0.93024 0.0
H969 H 0.23337 0.90341 0.95575 0.0
H970 H 0.22442 0.96938 0.91243 0.0
C971 C 0.23695 1.00462 0.98374 0.0
C972 C 0.20741 0.96262 0.98105 0.0
C973 C 0.24222 0.0174 1.00027 0.0
C974 C 0.2383 0.88826 0.9221 0.0
C975 C 0.23 0.90613 0.93678 0.0
C976 C 0.21908 0.96741 0.93142 0.0
C977 C 0.21785 0.99762 0.98763 0.0
C978 C 0.21384 0.98183 0.97134 0.0
C979 C 0.21907 0.92759 0.92671 0.0
C980 C 0.21428 0.9474 0.94142 0.0
H981 H 0.19819 0.02183 0.04055 0.0
H982 H 0.18887 0.99936 0.01149 0.0
H983 H 0.2235 0.99922 0.93811 0.0
H984 H 0.22156 0.91533 0.86789 0.0
H985 H 0.20668 0.94654 0.89365 0.0
C986 C 0.11944 0.26806 1.00208 0.0
C987 C 0.12999 0.25516 0.02196 0.0
C988 C 0.13087 0.27022 0.97969 0.0
C989 C 0.1809 0.24327 0.94381 0.0
H990 H 0.17144 0.30189 0.90783 0.0
C991 C 0.22908 0.28834 0.86358 0.0
C992 C 0.23619 0.27051 0.84839 0.0
C993 C 0.21322 0.28775 0.8825 0.0
C994 C 0.17425 0.28543 0.91767 0.0
H995 H 0.16089 0.23448 0.03378 0.0
H996 H 0.18081 0.23817 0.99474 0.0
H997 H 0.15029 0.29776 0.94612 0.0
H998 H 0.23092 0.2391 0.83977 0.0
H999 H 0.20305 0.23833 0.87239 0.0
H1000 H 0.2053 0.23103 0.91591 0.0
C1001 C 0.16362 0.2464 0.99641 0.0
C1002 C 0.16202 0.28301 0.93949 0.0
C1003 C 0.15219 0.24427 0.01881 0.0
C1004 C 0.22599 0.25298 0.85134 0.0
C1005 C 0.21011 0.25244 0.87015 0.0
C1006 C 0.19307 0.24567 0.92203 0.0
C1007 C 0.15311 0.25946 0.97661 0.0
C1008 C 0.16538 0.26193 0.95292 0.0
C1009 C 0.20413 0.26937 0.8865 0.0
C1010 C 0.19002 0.2668 0.90878 0.0
H1011 H 0.10228 0.27635 1.00372 0.0
H1012 H 0.12223 0.28011 0.9647 0.0
H1013 H 0.18371 0.22676 0.95356 0.0
H1014 H 0.23667 0.30204 0.86184 0.0
H1015 H 0.20903 0.30102 0.89483 0.0
C1016 C 0.83095 0.07635 0.9552 0.0
C1017 C 0.81632 0.06344 0.95385 0.0
C1018 C 0.82727 0.09809 0.94352 0.0
C1019 C 0.79675 0.13541 0.89487 0.0
H1020 H 0.80641 0.18347 0.92821 0.0
C1021 C 0.7713 0.2278 0.85541 0.0
C1022 C 0.78674 0.24002 0.85531 0.0
C1023 C 0.77386 0.20705 0.86904 0.0
C1024 C 0.80377 0.1702 0.9186 0.0
H1025 H 0.78677 0.06302 0.93846 0.0
H1026 H 0.7802 0.10089 0.91852 0.0
H1027 H 0.81389 0.14525 0.94789 0.0
H1028 H 0.81644 0.24041 0.87052 0.0
H1029 H 0.82087 0.20431 0.89412 0.0
H1030 H 0.78673 0.16026 0.86555 0.0
C1031 C 0.79456 0.09425 0.92848 0.0
C1032 C 0.80813 0.14828 0.92984 0.0
C1033 C 0.79821 0.0726 0.94016 0.0
C1034 C 0.8042 0.23151 0.87012 0.0
C1035 C 0.80674 0.21079 0.88375 0.0
C1036 C 0.79239 0.15729 0.88365 0.0
C1037 C 0.80895 0.10735 0.93014 0.0
C1038 C 0.80467 0.13062 0.9181 0.0
C1039 C 0.79188 0.19805 0.88291 0.0
C1040 C 0.79584 0.17497 0.89537 0.0
H1041 H 0.84497 0.06989 0.96572 0.0
H1042 H 0.83882 0.10763 0.94492 0.0
H1043 H 0.79423 0.12214 0.88514 0.0
H1044 H 0.75761 0.23383 0.8443 0.0
H1045 H 0.76191 0.19785 0.86835 0.0
C1046 C 0.95531 0.70975 0.94884 0.0
C1047 C 0.96762 0.72544 0.94724 0.0
C1048 C 0.93749 0.71348 0.93491 0.0
C1049 C 0.91432 0.74278 0.87892 0.0
H1050 H 0.86017 0.73501 0.91011 0.0
C1051 C 0.83571 0.76496 0.82766 0.0
C1052 C 0.82087 0.75215 0.83417 0.0
C1053 C 0.8539 0.76179 0.84093 0.0
C1054 C 0.87522 0.73688 0.90091 0.0
H1055 H 0.97102 0.75721 0.92952 0.0
H1056 H 0.93998 0.7636 0.90478 0.0
H1057 H 0.89119 0.72934 0.9341 0.0
H1058 H 0.81354 0.72572 0.85924 0.0
H1059 H 0.84564 0.71939 0.88175 0.0
H1060 H 0.89867 0.7497 0.8456 0.0
C1061 C 0.94412 0.74847 0.91697 0.0
C1062 C 0.893 0.73375 0.91478 0.0
C1063 C 0.96176 0.74491 0.93124 0.0
C1064 C 0.82474 0.73583 0.85386 0.0
C1065 C 0.84307 0.73241 0.86692 0.0
C1066 C 0.89662 0.7456 0.86494 0.0
C1067 C 0.93172 0.73284 0.91875 0.0
C1068 C 0.91275 0.73663 0.90396 0.0
C1069 C 0.85779 0.74556 0.86091 0.0
C1070 C 0.87678 0.74264 0.87572 0.0
H1071 H 0.95927 0.69471 0.96116 0.0
H1072 H 0.92834 0.70107 0.93659 0.0
H1073 H 0.92941 0.74491 0.87003 0.0
H1074 H 0.83284 0.77801 0.81287 0.0
H1075 H 0.86454 0.77256 0.8359 0.0
C1076 C 0.11097 0.27518 0.17282 0.0
C1077 C 0.10458 0.28897 0.15159 0.0
C1078 C 0.12575 0.27948 0.18722 0.0
C1079 C 0.15253 0.32175 0.20186 0.0
H1080 H 0.19723 0.26844 0.22211 0.0
C1081 C 0.22889 0.3255 0.2484 0.0
C1082 C 0.23772 0.30776 0.26552 0.0
C1083 C 0.21143 0.32485 0.23545 0.0
C1084 C 0.18473 0.28352 0.21704 0.0
H1085 H 0.1081 0.31888 0.12957 0.0
H1086 H 0.13413 0.32651 0.15498 0.0
H1087 H 0.16921 0.2649 0.19776 0.0
H1088 H 0.2345 0.27593 0.28328 0.0
H1089 H 0.20374 0.27506 0.26142 0.0
H1090 H 0.16812 0.34035 0.22135 0.0
C1091 C 0.12755 0.3123 0.16036 0.0
C1092 C 0.16863 0.28148 0.20292 0.0
C1093 C 0.11263 0.30795 0.1458 0.0
C1094 C 0.22812 0.28983 0.27015 0.0
C1095 C 0.21059 0.28924 0.25737 0.0
C1096 C 0.16865 0.3238 0.21618 0.0
C1097 C 0.13473 0.29771 0.18091 0.0
C1098 C 0.15219 0.3005 0.19528 0.0
C1099 C 0.20229 0.30647 0.23938 0.0
C1100 C 0.18492 0.30465 0.22414 0.0
H1101 H 0.10493 0.26058 0.17811 0.0
H1102 H 0.13044 0.26821 0.20321 0.0
H1103 H 0.14007 0.33674 0.1964 0.0
H1104 H 0.23596 0.33954 0.24436 0.0
H1105 H 0.20567 0.33836 0.2217 0.0
C1106 C 0.08408 0.78633 0.97413 0.0
C1107 C 0.07125 0.77234 0.96954 0.0
C1108 C 0.10263 0.78731 0.95899 0.0
C1109 C 0.13112 0.77131 0.89829 0.0
H1110 H 0.18109 0.77789 0.92748 0.0
C1111 C 0.21608 0.75503 0.84669 0.0
C1112 C 0.22816 0.77052 0.84849 0.0
C1113 C 0.19701 0.75577 0.86148 0.0
C1114 C 0.16724 0.77623 0.91897 0.0
H1115 H 0.06801 0.74855 0.94501 0.0
H1116 H 0.10032 0.74983 0.91912 0.0
H1117 H 0.14774 0.77863 0.95257 0.0
H1118 H 0.22953 0.79879 0.86779 0.0
H1119 H 0.19649 0.79983 0.8938 0.0
H1120 H 0.15088 0.76839 0.86479 0.0
C1121 C 0.09592 0.76051 0.93408 0.0
C1122 C 0.14797 0.77675 0.93337 0.0
C1123 C 0.0773 0.7597 0.94908 0.0
C1124 C 0.22078 0.78651 0.86589 0.0
C1125 C 0.20181 0.78708 0.88089 0.0
C1126 C 0.15044 0.77056 0.88396 0.0
C1127 C 0.10907 0.77416 0.93887 0.0
C1128 C 0.12956 0.77424 0.92331 0.0
C1129 C 0.18951 0.77188 0.87872 0.0
C1130 C 0.16882 0.77294 0.89408 0.0
H1131 H 0.07998 0.79635 0.98966 0.0
H1132 H 0.11194 0.79839 0.96315 0.0
H1133 H 0.11733 0.7698 0.88958 0.0
H1134 H 0.22112 0.74251 0.8335 0.0
H1135 H 0.18816 0.74361 0.85946 0.0
C1136 C 0.28351 0.12043 0.02349 0.0
C1137 C 0.29315 0.09704 0.02514 0.0
C1138 C 0.28729 0.13394 1.00277 0.0
C1139 C 0.32297 0.13793 0.94729 0.0
H1140 H 0.27176 0.18357 0.92688 0.0
C1141 C 0.32032 0.20375 0.8618 0.0
C1142 C 0.30992 0.22603 0.86734 0.0
C1143 C 0.31969 0.18555 0.87904 0.0
C1144 C 0.28623 0.17091 0.9323 0.0
H1145 H 0.31519 0.06964 1.00657 0.0
H1146 H 0.32182 0.09345 0.96999 0.0
H1147 H 0.26855 0.1564 0.9609 0.0
H1148 H 0.29088 0.24666 0.89523 0.0
H1149 H 0.28962 0.21531 0.92478 0.0
H1150 H 0.3406 0.15295 0.91855 0.0
C1151 C 0.31131 0.10124 0.98493 0.0
C1152 C 0.28442 0.15537 0.95189 0.0
C1153 C 0.30753 0.08762 1.00587 0.0
C1154 C 0.29906 0.22973 0.89033 0.0
C1155 C 0.29822 0.21172 0.90728 0.0
C1156 C 0.32478 0.15355 0.92747 0.0
C1157 C 0.30074 0.1245 0.98292 0.0
C1158 C 0.30283 0.13911 0.96018 0.0
C1159 C 0.30835 0.18941 0.90187 0.0
C1160 C 0.30647 0.17063 0.92027 0.0
H1161 H 0.27259 0.12837 0.03808 0.0
H1162 H 0.27937 0.15186 1.00219 0.0
H1163 H 0.33746 0.12559 0.95315 0.0
H1164 H 0.32883 0.20043 0.84421 0.0
H1165 H 0.32763 0.16851 0.87438 0.0
C1166 C 1.00662 0.30663 0.04684 0.0
C1167 C 0.02821 0.29696 0.03874 0.0
C1168 C 0.98997 0.31009 0.03109 0.0
C1169 C 0.97817 0.31308 0.96647 0.0
H1170 H 0.93245 0.28557 0.99136 0.0
C1171 C 0.92075 0.29439 0.90218 0.0
C1172 C 0.899 0.29644 0.91046 0.0
C1173 C 0.93593 0.29579 0.91803 0.0
C1174 C 0.94481 0.29372 0.98411 0.0
H1175 H 0.0495 0.28423 1.00781 0.0
H1176 H 0.02071 0.2911 0.98013 0.0
H1177 H 0.95906 0.28847 0.01831 0.0
H1178 H 0.8766 0.3008 0.9425 0.0
H1179 H 0.90264 0.30421 0.96968 0.0
H1180 H 0.96394 0.31858 0.93235 0.0
C1181 C 1.01649 0.29597 0.99853 0.0
C1182 C 0.96011 0.29537 0.99965 0.0
C1183 C 0.033 0.29211 0.01435 0.0
C1184 C 0.89305 0.2995 0.93522 0.0
C1185 C 0.90816 0.30116 0.95099 0.0
C1186 C 0.96271 0.31171 0.95098 0.0
C1187 C 0.9947 0.30426 1.0069 0.0
C1188 C 0.97715 0.3048 0.99096 0.0
C1189 C 0.92984 0.2995 0.94264 0.0
C1190 C 0.94593 0.30171 0.95945 0.0
H1191 H 1.00247 0.30999 0.06572 0.0
H1192 H 0.97334 0.3166 0.03805 0.0
H1193 H 0.991 0.32059 0.95925 0.0
H1194 H 0.92603 0.29227 0.88326 0.0
H1195 H 0.9525 0.29394 0.91088 0.0
C1196 C 0.76349 0.95692 0.95214 0.0
C1197 C 0.77848 0.96945 0.94484 0.0
C1198 C 0.75894 0.94295 0.9361 0.0
C1199 C 0.7869 0.91101 0.88515 0.0
H1200 H 0.73167 0.90127 0.87478 0.0
C1201 C 0.78185 0.8533 0.81343 0.0
C1202 C 0.76924 0.83806 0.81951 0.0
C1203 C 0.78013 0.87102 0.8278 0.0
C1204 C 0.74723 0.90367 0.87767 0.0
H1205 H 0.79883 0.97889 0.91451 0.0
H1206 H 0.79067 0.95503 0.88667 0.0
H1207 H 0.7331 0.92964 0.90198 0.0
H1208 H 0.74424 0.83007 0.84498 0.0
H1209 H 0.74158 0.86082 0.87046 0.0
H1210 H 0.80125 0.88496 0.86156 0.0
C1211 C 0.78286 0.95541 0.90485 0.0
C1212 C 0.74802 0.91993 0.8932 0.0
C1213 C 0.78746 0.96916 0.92078 0.0
C1214 C 0.75417 0.84155 0.83976 0.0
C1215 C 0.7526 0.85923 0.85434 0.0
C1216 C 0.78615 0.89479 0.86986 0.0
C1217 C 0.76929 0.94143 0.91259 0.0
C1218 C 0.76788 0.92395 0.89681 0.0
C1219 C 0.76597 0.87384 0.84885 0.0
C1220 C 0.76631 0.89107 0.86561 0.0
H1221 H 0.75639 0.95679 0.97061 0.0
H1222 H 0.74837 0.93238 0.94254 0.0
H1223 H 0.80253 0.91325 0.88806 0.0
H1224 H 0.7934 0.85132 0.79777 0.0
H1225 H 0.79026 0.88231 0.82261 0.0
C1226 C 0.94838 0.75865 0.05669 0.0
C1227 C 0.96958 0.76078 0.05625 0.0
C1228 C 0.93408 0.76308 0.07731 0.0
C1229 C 0.93349 0.76156 0.14357 0.0
H1230 H 0.87239 0.79146 0.1393 0.0
C1231 C 0.86769 0.75326 0.22137 0.0
C1232 C 0.85117 0.77291 0.22631 0.0
C1233 C 0.88272 0.75323 0.20125 0.0
C1234 C 0.88942 0.78318 0.14092 0.0
H1235 H 0.99227 0.76962 0.07712 0.0
H1236 H 0.96722 0.77723 0.11354 0.0
H1237 H 0.8972 0.79061 0.10312 0.0
H1238 H 0.83755 0.80792 0.21359 0.0
H1239 H 0.8635 0.80777 0.1787 0.0
H1240 H 0.92559 0.75381 0.18135 0.0
C1241 C 0.96167 0.77226 0.0977 0.0
C1242 C 0.90365 0.78259 0.12009 0.0
C1243 C 0.97593 0.76821 0.07676 0.0
C1244 C 0.85009 0.79247 0.21054 0.0
C1245 C 0.86492 0.79236 0.19035 0.0
C1246 C 0.91919 0.76191 0.16439 0.0
C1247 C 0.94065 0.76938 0.09835 0.0
C1248 C 0.92587 0.77165 0.12105 0.0
C1249 C 0.88145 0.77276 0.18535 0.0
C1250 C 0.89691 0.77264 0.16334 0.0
H1251 H 0.94307 0.75273 0.04127 0.0
H1252 H 0.91815 0.76049 0.07714 0.0
H1253 H 0.95044 0.75278 0.14496 0.0
H1254 H 0.86902 0.73789 0.23305 0.0
H1255 H 0.89509 0.73775 0.19786 0.0
C1256 C 0.30109 0.96936 0.10461 0.0
C1257 C 0.31201 0.98382 0.11255 0.0
C1258 C 0.30194 0.94833 0.11714 0.0
C1259 C 0.33169 0.90515 0.16212 0.0
H1260 H 0.27597 0.89307 0.17877 0.0
C1261 C 0.31918 0.83866 0.23915 0.0
C1262 C 0.30337 0.82719 0.23758 0.0
C1263 C 0.32175 0.85575 0.22152 0.0
C1264 C 0.29176 0.89583 0.17396 0.0
H1265 H 0.33336 0.98687 0.13915 0.0
H1266 H 0.33506 0.95012 0.16076 0.0
H1267 H 0.27828 0.92601 0.15184 0.0
H1268 H 0.27847 0.82422 0.21548 0.0
H1269 H 0.28336 0.85351 0.18439 0.0
H1270 H 0.34523 0.87499 0.18421 0.0
C1271 C 0.32577 0.95507 0.1449 0.0
C1272 C 0.29306 0.91483 0.15851 0.0
C1273 C 0.32474 0.9762 0.13253 0.0
C1274 C 0.29073 0.83275 0.2174 0.0
C1275 C 0.29343 0.84973 0.19963 0.0
C1276 C 0.33044 0.88601 0.1774 0.0
C1277 C 0.31393 0.94113 0.13774 0.0
C1278 C 0.31298 0.9199 0.15264 0.0
C1279 C 0.30871 0.86178 0.20165 0.0
C1280 C 0.3104 0.88122 0.18385 0.0
H1281 H 0.29111 0.97464 0.08932 0.0
H1282 H 0.29287 0.93787 0.11096 0.0
H1283 H 0.34733 0.90843 0.15774 0.0
H1284 H 0.32915 0.835 0.25447 0.0
H1285 H 0.33347 0.86477 0.22402 0.0
C1286 C 0.79547 0.03982 0.07795 0.0
C1287 C 0.78124 0.03741 0.06137 0.0
C1288 C 0.79005 0.0582 0.09199 0.0
C1289 C 0.74724 0.10165 0.11905 0.0
H1290 H 0.79211 0.13289 0.1159 0.0
C1291 C 0.75519 0.1582 0.19231 0.0
C1292 C 0.76184 0.17779 0.18486 0.0
C1293 C 0.75425 0.1433 0.17543 0.0
C1294 C 0.77926 0.12461 0.11676 0.0
H1295 H 0.74954 0.05177 0.04761 0.0
H1296 H 0.73983 0.08411 0.07284 0.0
H1297 H 0.79617 0.10228 0.09004 0.0
H1298 H 0.77229 0.19734 0.15378 0.0
H1299 H 0.77064 0.17128 0.12426 0.0
H1300 H 0.73063 0.12366 0.14638 0.0
C1301 C 0.75531 0.07167 0.07455 0.0
C1302 C 0.78167 0.10698 0.10208 0.0
C1303 C 0.76084 0.0532 0.0602 0.0
C1304 C 0.76707 0.18241 0.16008 0.0
C1305 C 0.76623 0.16744 0.1432 0.0
C1306 C 0.74491 0.11923 0.13398 0.0
C1307 C 0.77021 0.07461 0.09 0.0
C1308 C 0.76594 0.09502 0.10345 0.0
C1309 C 0.76001 0.1476 0.15073 0.0
C1310 C 0.7611 0.13062 0.13327 0.0
H1311 H 0.81121 0.02784 0.0796 0.0
H1312 H 0.80164 0.05983 0.10414 0.0
H1313 H 0.73492 0.09263 0.12043 0.0
H1314 H 0.75072 0.15436 0.21123 0.0
H1315 H 0.74962 0.12805 0.18184 0.0
C1316 C 0.59942 0.56477 0.86348 0.0
C1317 C 0.58071 0.57068 0.8793 0.0
C1318 C 0.61425 0.57772 0.86071 0.0
C1319 C 0.63159 0.62112 0.88874 0.0
H1320 H 0.65165 0.63606 0.82271 0.0
C1321 C 0.67015 0.6948 0.8623 0.0
C1322 C 0.68689 0.69225 0.84374 0.0
C1323 C 0.65929 0.67812 0.86818 0.0
C1324 C 0.64653 0.63177 0.8413 0.0
H1325 H 0.56324 0.59464 0.90501 0.0
H1326 H 0.5891 0.61722 0.90019 0.0
H1327 H 0.62892 0.61026 0.8303 0.0
H1328 H 0.70569 0.66981 0.81723 0.0
H1329 H 0.68704 0.64048 0.82785 0.0
H1330 H 0.649 0.64292 0.89968 0.0
C1331 C 0.59241 0.60241 0.8901 0.0
C1332 C 0.63346 0.61697 0.84566 0.0
C1333 C 0.57756 0.58945 0.89286 0.0
C1334 C 0.69297 0.67226 0.83173 0.0
C1335 C 0.68211 0.65556 0.83762 0.0
C1336 C 0.64471 0.63591 0.88439 0.0
C1337 C 0.61076 0.59688 0.87372 0.0
C1338 C 0.62566 0.61163 0.86939 0.0
C1339 C 0.66491 0.65844 0.85566 0.0
C1340 C 0.65216 0.64159 0.86058 0.0
H1341 H 0.6026 0.55016 0.85314 0.0
H1342 H 0.62844 0.57276 0.84828 0.0
H1343 H 0.6261 0.61709 0.90727 0.0
H1344 H 0.66526 0.70985 0.87214 0.0
H1345 H 0.64602 0.68099 0.88203 0.0
C1346 C 0.476 0.58812 0.81561 0.0
C1347 C 0.47266 0.57171 0.83385 0.0
C1348 C 0.45863 0.60648 0.8087 0.0
C1349 C 0.39853 0.62745 0.81126 0.0
H1350 H 0.40818 0.68611 0.81428 0.0
C1351 C 0.32764 0.70952 0.81895 0.0
C1352 C 0.33159 0.7301 0.80979 0.0
C1353 C 0.34445 0.68937 0.81848 0.0
C1354 C 0.40513 0.66998 0.81278 0.0
H1355 H 0.44835 0.56093 0.85805 0.0
H1356 H 0.41821 0.59245 0.84568 0.0
H1357 H 0.4383 0.65245 0.81787 0.0
H1358 H 0.35561 0.74557 0.79122 0.0
H1359 H 0.38433 0.71074 0.78926 0.0
H1360 H 0.36536 0.64493 0.80609 0.0
C1361 C 0.43415 0.59137 0.83682 0.0
C1362 C 0.42253 0.6506 0.81491 0.0
C1363 C 0.45148 0.57336 0.844 0.0
C1364 C 0.35219 0.73 0.79891 0.0
C1365 C 0.36877 0.70996 0.79798 0.0
C1366 C 0.38113 0.64689 0.80877 0.0
C1367 C 0.43755 0.60849 0.81954 0.0
C1368 C 0.41943 0.62907 0.81451 0.0
C1369 C 0.36545 0.68939 0.80843 0.0
C1370 C 0.38409 0.66849 0.80979 0.0
H1371 H 0.49214 0.58736 0.80755 0.0
H1372 H 0.46174 0.61935 0.79523 0.0
H1373 H 0.39562 0.61109 0.81074 0.0
H1374 H 0.31187 0.70913 0.82737 0.0
H1375 H 0.34114 0.67399 0.82683 0.0
C1376 C 0.48677 0.44399 0.88649 0.0
C1377 C 0.48365 0.46559 0.8743 0.0
C1378 C 0.47456 0.42971 0.88146 0.0
C1379 C 0.44325 0.4201 0.83349 0.0
H1380 H 0.41692 0.38681 0.88468 0.0
C1381 C 0.37467 0.38176 0.81755 0.0
C1382 C 0.37399 0.36102 0.83001 0.0
C1383 C 0.39009 0.39244 0.82232 0.0
C1384 C 0.42448 0.39568 0.87015 0.0
H1385 H 0.46449 0.48952 0.84823 0.0
H1386 H 0.44334 0.46466 0.83941 0.0
H1387 H 0.43964 0.40971 0.89503 0.0
H1388 H 0.38928 0.33493 0.85683 0.0
H1389 H 0.41653 0.35344 0.86486 0.0
H1390 H 0.428 0.4063 0.80861 0.0
C1391 C 0.45553 0.45856 0.85245 0.0
C1392 C 0.43743 0.40883 0.8761 0.0
C1393 C 0.46764 0.47282 0.85753 0.0
C1394 C 0.38949 0.35084 0.84682 0.0
C1395 C 0.40493 0.36155 0.85162 0.0
C1396 C 0.43038 0.40692 0.82754 0.0
C1397 C 0.45906 0.43675 0.86409 0.0
C1398 C 0.44661 0.4215 0.85785 0.0
C1399 C 0.40521 0.38261 0.83964 0.0
C1400 C 0.42053 0.39488 0.84582 0.0
H1401 H 0.4991 0.43784 0.89934 0.0
H1402 H 0.47767 0.41294 0.89064 0.0
H1403 H 0.4505 0.42931 0.819 0.0
H1404 H 0.3631 0.38989 0.80429 0.0
H1405 H 0.38971 0.40876 0.81294 0.0
C1406 C 0.58587 0.46352 0.81755 0.0
C1407 C 0.587 0.48562 0.8101 0.0
C1408 C 0.60405 0.44507 0.81471 0.0
C1409 C 0.65959 0.42732 0.7839 0.0
H1410 H 0.66967 0.38193 0.83822 0.0
C1411 C 0.74371 0.36658 0.79994 0.0
C1412 C 0.74529 0.34416 0.80893 0.0
C1413 C 0.72353 0.38222 0.79767 0.0
C1414 C 0.66697 0.39423 0.8227 0.0
H1415 H 0.6081 0.50545 0.79301 0.0
H1416 H 0.63987 0.47337 0.78834 0.0
H1417 H 0.63624 0.41233 0.8384 0.0
H1418 H 0.72693 0.32043 0.82232 0.0
H1419 H 0.69139 0.34791 0.81844 0.0
H1420 H 0.69065 0.40947 0.76856 0.0
C1421 C 0.62483 0.47021 0.79612 0.0
C1422 C 0.64774 0.41172 0.82278 0.0
C1423 C 0.60658 0.48868 0.79886 0.0
C1424 C 0.72618 0.3376 0.81531 0.0
C1425 C 0.70587 0.35337 0.8132 0.0
C1426 C 0.67885 0.40987 0.78388 0.0
C1427 C 0.62394 0.44817 0.80445 0.0
C1428 C 0.64387 0.4287 0.80352 0.0
C1429 C 0.70432 0.37594 0.80449 0.0
C1430 C 0.68294 0.39326 0.80344 0.0
H1431 H 0.57103 0.46046 0.82613 0.0
H1432 H 0.60255 0.42836 0.82086 0.0
H1433 H 0.65706 0.43978 0.76853 0.0
H1434 H 0.75815 0.37215 0.79484 0.0
H1435 H 0.72303 0.39946 0.79121 0.0
C1436 C 0.61689 0.47629 0.24235 0.0
C1437 C 0.59983 0.48553 0.25925 0.0
C1438 C 0.63352 0.45746 0.2489 0.0
C1439 C 0.66373 0.42314 0.29788 0.0
H1440 H 0.67676 0.37753 0.25153 0.0
C1441 C 0.731 0.33651 0.30633 0.0
C1442 C 0.74269 0.32959 0.28444 0.0
C1443 C 0.71339 0.35594 0.30634 0.0
C1444 C 0.67349 0.39014 0.26458 0.0
H1445 H 0.58754 0.48262 0.29681 0.0
H1446 H 0.61713 0.44921 0.30843 0.0
H1447 H 0.64583 0.41028 0.24677 0.0
H1448 H 0.7461 0.33833 0.24578 0.0
H1449 H 0.71584 0.37215 0.24581 0.0
H1450 H 0.69189 0.40293 0.31539 0.0
C1451 C 0.61729 0.4568 0.28999 0.0
C1452 C 0.65567 0.40886 0.26192 0.0
C1453 C 0.60038 0.47585 0.28334 0.0
C1454 C 0.73724 0.34308 0.26288 0.0
C1455 C 0.71978 0.36239 0.2629 0.0
C1456 C 0.68174 0.40424 0.30056 0.0
C1457 C 0.63375 0.44714 0.27258 0.0
C1458 C 0.65089 0.42591 0.27809 0.0
C1459 C 0.7072 0.36872 0.28447 0.0
C1460 C 0.68715 0.38786 0.28349 0.0
H1461 H 0.61733 0.4834 0.22372 0.0
H1462 H 0.64618 0.45077 0.23521 0.0
H1463 H 0.66044 0.43603 0.3106 0.0
H1464 H 0.73488 0.32644 0.32325 0.0
H1465 H 0.70408 0.36038 0.32327 0.0
C1466 C 0.6076 0.59039 0.24634 0.0
C1467 C 0.60362 0.58638 0.22294 0.0
C1468 C 0.62431 0.59982 0.24976 0.0
C1469 C 0.65861 0.63417 0.21905 0.0
H1470 H 0.6957 0.60817 0.27154 0.0
C1471 C 0.73346 0.66432 0.23374 0.0
C1472 C 0.73744 0.66604 0.25782 0.0
C1473 C 0.71768 0.65411 0.22876 0.0
C1474 C 0.68535 0.61581 0.25698 0.0
H1475 H 0.61421 0.58943 0.18476 0.0
H1476 H 0.64323 0.60621 0.19078 0.0
H1477 H 0.66701 0.59157 0.2641 0.0
H1478 H 0.72775 0.65875 0.29555 0.0
H1479 H 0.70008 0.64121 0.28693 0.0
H1480 H 0.67669 0.65867 0.21217 0.0
C1481 C 0.63329 0.60204 0.20644 0.0
C1482 C 0.66894 0.60626 0.25269 0.0
C1483 C 0.61662 0.59245 0.203 0.0
C1484 C 0.7253 0.65735 0.27681 0.0
C1485 C 0.70946 0.64726 0.27184 0.0
C1486 C 0.67497 0.64383 0.22344 0.0
C1487 C 0.6374 0.60565 0.22989 0.0
C1488 C 0.6553 0.61541 0.23379 0.0
C1489 C 0.70544 0.6455 0.24776 0.0
C1490 C 0.68845 0.63486 0.24256 0.0
H1491 H 0.59769 0.58648 0.2621 0.0
H1492 H 0.62681 0.6028 0.26802 0.0
H1493 H 0.64821 0.64173 0.20451 0.0
H1494 H 0.74273 0.67063 0.21872 0.0
H1495 H 0.71526 0.65274 0.21001 0.0
C1496 C 0.47944 0.59303 0.27959 0.0
C1497 C 0.49389 0.59555 0.25957 0.0
C1498 C 0.46075 0.61066 0.28454 0.0
C1499 C 0.42488 0.65904 0.25097 0.0
H1500 H 0.39803 0.67673 0.314 0.0
C1501 C 0.33781 0.71527 0.26134 0.0
C1502 C 0.33325 0.73274 0.2769 0.0
C1503 C 0.35774 0.69894 0.26103 0.0
C1504 C 0.40544 0.67208 0.29627 0.0
H1505 H 0.50119 0.61897 0.23043 0.0
H1506 H 0.46934 0.64956 0.23938 0.0
H1507 H 0.43282 0.64767 0.31124 0.0
H1508 H 0.34582 0.74659 0.30478 0.0
H1509 H 0.38103 0.71807 0.30407 0.0
H1510 H 0.39789 0.68332 0.23586 0.0
C1511 C 0.47181 0.63392 0.25081 0.0
C1512 C 0.42525 0.65528 0.29471 0.0
C1513 C 0.49017 0.6164 0.24576 0.0
C1514 C 0.34903 0.73347 0.29237 0.0
C1515 C 0.36907 0.717 0.29214 0.0
C1516 C 0.4052 0.67564 0.25252 0.0
C1517 C 0.45638 0.63104 0.26961 0.0
C1518 C 0.43525 0.64865 0.27198 0.0
C1519 C 0.37369 0.6996 0.27633 0.0
C1520 C 0.39512 0.68236 0.27515 0.0
H1521 H 0.4819 0.57709 0.29047 0.0
H1522 H 0.4492 0.6079 0.2992 0.0
H1523 H 0.43187 0.65416 0.23316 0.0
H1524 H 0.32589 0.71413 0.24938 0.0
H1525 H 0.36055 0.68561 0.24892 0.0
C1526 C 0.49014 0.48119 0.24616 0.0
C1527 C 0.4963 0.48936 0.22274 0.0
C1528 C 0.47622 0.46723 0.24942 0.0
C1529 C 0.4571 0.42771 0.21797 0.0
H1530 H 0.41053 0.4369 0.26872 0.0
C1531 C 0.39285 0.37793 0.22643 0.0
C1532 C 0.3855 0.37099 0.24983 0.0
C1533 C 0.40617 0.39252 0.22323 0.0
C1534 C 0.42363 0.4339 0.25467 0.0
H1535 H 0.49206 0.48943 0.18442 0.0
H1536 H 0.46802 0.46483 0.19015 0.0
H1537 H 0.43391 0.46225 0.26286 0.0
H1538 H 0.38645 0.3741 0.28823 0.0
H1539 H 0.41022 0.39901 0.28268 0.0
H1540 H 0.44709 0.39921 0.20995 0.0
C1541 C 0.47418 0.46914 0.20596 0.0
C1542 C 0.43698 0.44848 0.25128 0.0
C1543 C 0.48801 0.48324 0.20269 0.0
C1544 C 0.39195 0.37892 0.26996 0.0
C1545 C 0.40537 0.39345 0.26676 0.0
C1546 C 0.44384 0.41305 0.22145 0.0
C1547 C 0.46818 0.46092 0.22936 0.0
C1548 C 0.45385 0.44557 0.23286 0.0
C1549 C 0.41264 0.40046 0.24333 0.0
C1550 C 0.42689 0.41597 0.23982 0.0
H1551 H 0.49639 0.48513 0.26206 0.0
H1552 H 0.47213 0.46093 0.26766 0.0
H1553 H 0.47016 0.42481 0.20387 0.0
H1554 H 0.38849 0.37193 0.2105 0.0
H1555 H 0.41121 0.39775 0.20491 0.0
C1556 C 0.82815 0.57183 0.64231 0.0
C1557 C 0.82454 0.5799 0.61804 0.0
C1558 C 0.82896 0.58652 0.65951 0.0
C1559 C 0.8334 0.6442 0.66675 0.0
H1560 H 0.80032 0.63762 0.72785 0.0
C1561 C 0.82402 0.70582 0.74071 0.0
C1562 C 0.80304 0.71381 0.7517 0.0
C1563 C 0.82908 0.68744 0.72647 0.0
C1564 C 0.80958 0.63973 0.71088 0.0
H1565 H 0.82008 0.60959 0.59262 0.0
H1566 H 0.82129 0.63519 0.62259 0.0
H1567 H 0.8054 0.60979 0.69828 0.0
H1568 H 0.77113 0.70808 0.757 0.0
H1569 H 0.77987 0.67625 0.73197 0.0
H1570 H 0.83676 0.67467 0.67889 0.0
C1571 C 0.82368 0.61747 0.62835 0.0
C1572 C 0.81274 0.6236 0.69402 0.0
C1573 C 0.82291 0.60278 0.61113 0.0
C1574 C 0.78747 0.70238 0.74889 0.0
C1575 C 0.79252 0.68403 0.73457 0.0
C1576 C 0.83021 0.66035 0.68359 0.0
C1577 C 0.82617 0.60964 0.65288 0.0
C1578 C 0.82445 0.62579 0.6716 0.0
C1579 C 0.81327 0.67661 0.7228 0.0
C1580 C 0.81801 0.65848 0.70574 0.0
H1581 H 0.8296 0.55428 0.64824 0.0
H1582 H 0.83133 0.57984 0.67814 0.0
H1583 H 0.84269 0.64629 0.64979 0.0
H1584 H 0.83649 0.71407 0.74262 0.0
H1585 H 0.84533 0.68191 0.71806 0.0
C1586 C 0.48714 0.74663 0.63267 0.0
C1587 C 0.49682 0.76461 0.62904 0.0
C1588 C 0.4672 0.74889 0.64616 0.0
C1589 C 0.41859 0.79193 0.67086 0.0
H1590 H 0.40874 0.74027 0.71112 0.0
C1591 C 0.34349 0.79782 0.74038 0.0
C1592 C 0.33387 0.7798 0.74273 0.0
C1593 C 0.36292 0.79658 0.726 0.0
C1594 C 0.41107 0.75484 0.69978 0.0
H1595 H 0.49284 0.79909 0.63723 0.0
H1596 H 0.45833 0.80294 0.66091 0.0
H1597 H 0.44318 0.73693 0.6876 0.0
H1598 H 0.3373 0.7464 0.7313 0.0
H1599 H 0.37084 0.74434 0.70632 0.0
H1600 H 0.38646 0.80987 0.68338 0.0
C1601 C 0.46594 0.78717 0.65291 0.0
C1602 C 0.43091 0.75292 0.68618 0.0
C1603 C 0.48585 0.78495 0.6393 0.0
C1604 C 0.34409 0.76068 0.72998 0.0
C1605 C 0.36353 0.75939 0.71576 0.0
C1606 C 0.39875 0.79389 0.68459 0.0
C1607 C 0.45626 0.76916 0.65662 0.0
C1608 C 0.43502 0.77139 0.67138 0.0
C1609 C 0.37338 0.77721 0.7137 0.0
C1610 C 0.39463 0.77533 0.69918 0.0
H1611 H 0.49482 0.73084 0.62477 0.0
H1612 H 0.46021 0.73473 0.64807 0.0
H1613 H 0.42086 0.80649 0.65949 0.0
H1614 H 0.33622 0.81277 0.74998 0.0
H1615 H 0.37004 0.81058 0.72505 0.0
C1616 C 0.24268 0.44897 0.62945 0.0
C1617 C 0.26106 0.45443 0.61768 0.0
C1618 C 0.24478 0.42972 0.64567 0.0
C1619 C 0.28482 0.37543 0.66477 0.0
H1620 H 0.24286 0.37544 0.7196 0.0
C1621 C 0.28617 0.29389 0.72594 0.0
C1622 C 0.28035 0.29551 0.75084 0.0
C1623 C 0.28316 0.31328 0.70988 0.0
C1624 C 0.25492 0.37514 0.70459 0.0
H1625 H 0.29608 0.44428 0.61421 0.0
H1626 H 0.2999 0.41123 0.64301 0.0
H1627 H 0.23955 0.4092 0.69215 0.0
H1628 H 0.26626 0.31872 0.77837 0.0
H1629 H 0.26193 0.35268 0.75066 0.0
H1630 H 0.30083 0.34182 0.67783 0.0
C1631 C 0.28375 0.42127 0.63919 0.0
C1632 C 0.25281 0.3945 0.6885 0.0
C1633 C 0.28161 0.44032 0.62269 0.0
C1634 C 0.27112 0.31695 0.7593 0.0
C1635 C 0.26842 0.33643 0.74329 0.0
C1636 C 0.28711 0.35621 0.68102 0.0
C1637 C 0.26537 0.41556 0.65088 0.0
C1638 C 0.26768 0.39494 0.66826 0.0
C1639 C 0.27452 0.33491 0.71831 0.0
C1640 C 0.27213 0.35567 0.70113 0.0
H1641 H 0.22663 0.45939 0.62576 0.0
H1642 H 0.23019 0.42579 0.65382 0.0
H1643 H 0.29647 0.37481 0.64929 0.0
H1644 H 0.29314 0.27757 0.71882 0.0
H1645 H 0.28756 0.3112 0.69078 0.0
C1646 C 0.56682 0.25183 0.5857 0.0
C1647 C 0.55679 0.26736 0.56719 0.0
C1648 C 0.58153 0.25676 0.5996 0.0
C1649 C 0.60137 0.30109 0.62076 0.0
H1650 H 0.65313 0.25172 0.62961 0.0
C1651 C 0.6721 0.30661 0.67647 0.0
C1652 C 0.68129 0.28732 0.69169 0.0
C1653 C 0.6573 0.306 0.65973 0.0
C1654 C 0.63873 0.26564 0.62756 0.0
H1655 H 0.55366 0.30089 0.54965 0.0
H1656 H 0.57968 0.30971 0.57439 0.0
H1657 H 0.62619 0.24824 0.60357 0.0
H1658 H 0.68153 0.25242 0.7014 0.0
H1659 H 0.65599 0.25133 0.67238 0.0
H1660 H 0.61386 0.31829 0.64527 0.0
C1661 C 0.57601 0.29358 0.57788 0.0
C1662 C 0.62328 0.26367 0.61251 0.0
C1663 C 0.56111 0.28858 0.56376 0.0
C1664 C 0.67525 0.26746 0.68966 0.0
C1665 C 0.66051 0.26685 0.67297 0.0
C1666 C 0.61689 0.30305 0.63596 0.0
C1667 C 0.58683 0.2774 0.59552 0.0
C1668 C 0.60415 0.28111 0.60935 0.0
C1669 C 0.65132 0.28608 0.65772 0.0
C1670 C 0.63556 0.28511 0.63999 0.0
H1671 H 0.56364 0.23546 0.58922 0.0
H1672 H 0.58906 0.24415 0.61345 0.0
H1673 H 0.5868 0.3148 0.61874 0.0
H1674 H 0.6765 0.32216 0.67732 0.0
H1675 H 0.65076 0.32106 0.64814 0.0
C1676 C 0.83646 0.47451 0.54297 0.0
C1677 C 0.83412 0.49694 0.53349 0.0
C1678 C 0.83645 0.45783 0.5277 0.0
C1679 C 0.81479 0.45367 0.47004 0.0
H1680 H 0.84844 0.3911 0.47624 0.0
C1681 C 0.81186 0.39089 0.40162 0.0
C1682 C 0.81202 0.36877 0.41054 0.0
C1683 C 0.81535 0.40599 0.41683 0.0
C1684 C 0.83874 0.40847 0.47448 0.0
H1685 H 0.8319 0.51905 0.50037 0.0
H1686 H 0.83236 0.48996 0.4738 0.0
H1687 H 0.85497 0.41803 0.50195 0.0
H1688 H 0.81558 0.3453 0.44263 0.0
H1689 H 0.82151 0.37177 0.46929 0.0
H1690 H 0.79838 0.44423 0.44286 0.0
C1691 C 0.83356 0.48534 0.49306 0.0
C1692 C 0.84255 0.4239 0.48915 0.0
C1693 C 0.83348 0.50198 0.50827 0.0
C1694 C 0.81555 0.36217 0.43514 0.0
C1695 C 0.81903 0.3773 0.45039 0.0
C1696 C 0.81097 0.43829 0.45546 0.0
C1697 C 0.83418 0.46329 0.5027 0.0
C1698 C 0.83068 0.44671 0.48699 0.0
C1699 C 0.81906 0.39937 0.44138 0.0
C1700 C 0.82295 0.41553 0.45739 0.0
H1701 H 0.83688 0.4701 0.56233 0.0
H1702 H 0.83693 0.44101 0.53571 0.0
H1703 H 0.80496 0.47099 0.46831 0.0
H1704 H 0.80965 0.3964 0.38267 0.0
H1705 H 0.81562 0.42272 0.40917 0.0
C1706 C 0.62502 0.78879 0.49011 0.0
C1707 C 0.62076 0.76779 0.49687 0.0
C1708 C 0.64039 0.79114 0.47097 0.0
C1709 C 0.67031 0.76246 0.41671 0.0
H1710 H 0.70677 0.80254 0.41862 0.0
C1711 C 0.74417 0.75973 0.34818 0.0
C1712 C 0.74866 0.7801 0.33878 0.0
C1713 C 0.7282 0.75934 0.36705 0.0
C1714 C 0.69655 0.79147 0.41763 0.0
H1715 H 0.63017 0.73263 0.48914 0.0
H1716 H 0.65696 0.73658 0.45626 0.0
H1717 H 0.68026 0.79952 0.45244 0.0
H1718 H 0.73965 0.81613 0.34229 0.0
H1719 H 0.71163 0.81547 0.37533 0.0
H1720 H 0.6867 0.75422 0.38209 0.0
C1721 C 0.64805 0.75147 0.46524 0.0
C1722 C 0.68128 0.78972 0.43709 0.0
C1723 C 0.63266 0.74915 0.48425 0.0
C1724 C 0.73664 0.80014 0.34895 0.0
C1725 C 0.72065 0.79973 0.36803 0.0
C1726 C 0.68559 0.76414 0.39737 0.0
C1727 C 0.65204 0.77254 0.45806 0.0
C1728 C 0.66803 0.77501 0.43706 0.0
C1729 C 0.71615 0.7793 0.37731 0.0
C1730 C 0.6991 0.7785 0.39758 0.0
H1731 H 0.61605 0.80361 0.49913 0.0
H1732 H 0.64273 0.80771 0.46593 0.0
H1733 H 0.66013 0.75138 0.41556 0.0
H1734 H 0.75309 0.74387 0.34105 0.0
H1735 H 0.72554 0.74323 0.37388 0.0
C1736 C 0.24001 0.60012 0.47402 0.0
C1737 C 0.25585 0.58856 0.49 0.0
C1738 C 0.24257 0.61894 0.45898 0.0
C1739 C 0.28439 0.64672 0.43166 0.0
H1740 H 0.23489 0.69786 0.41944 0.0
C1741 C 0.29291 0.72801 0.37422 0.0
C1742 C 0.27713 0.73763 0.35753 0.0
C1743 C 0.29028 0.71073 0.39166 0.0
C1744 C 0.24887 0.68364 0.42247 0.0
H1745 H 0.28662 0.58834 0.50297 0.0
H1746 H 0.29106 0.62104 0.47681 0.0
H1747 H 0.23038 0.66605 0.44715 0.0
H1748 H 0.24598 0.7367 0.3465 0.0
H1749 H 0.24152 0.70668 0.37662 0.0
H1750 H 0.30284 0.66423 0.40682 0.0
C1751 C 0.2768 0.61531 0.4756 0.0
C1752 C 0.24627 0.66536 0.43838 0.0
C1753 C 0.27424 0.5965 0.49065 0.0
C1754 C 0.25849 0.7298 0.35905 0.0
C1755 C 0.25585 0.7126 0.37647 0.0
C1756 C 0.28699 0.66501 0.41574 0.0
C1757 C 0.26104 0.62675 0.45949 0.0
C1758 C 0.26396 0.64656 0.44308 0.0
C1759 C 0.27177 0.70268 0.39291 0.0
C1760 C 0.26923 0.68366 0.41078 0.0
H1761 H 0.22579 0.59438 0.47271 0.0
H1762 H 0.23025 0.62707 0.44656 0.0
H1763 H 0.29833 0.63243 0.43455 0.0
H1764 H 0.30748 0.73357 0.37363 0.0
H1765 H 0.30276 0.70369 0.4042 0.0
C1766 C 0.46227 0.28609 0.45668 0.0
C1767 C 0.46179 0.27042 0.4768 0.0
C1768 C 0.44567 0.29161 0.44048 0.0
C1769 C 0.38905 0.28991 0.436 0.0
H1770 H 0.4043 0.28179 0.36761 0.0
C1771 C 0.33206 0.26604 0.37811 0.0
C1772 C 0.32797 0.27699 0.35494 0.0
C1773 C 0.34858 0.26892 0.39087 0.0
C1774 C 0.39974 0.28452 0.38656 0.0
H1775 H 0.44326 0.24897 0.49618 0.0
H1776 H 0.41436 0.25896 0.46871 0.0
H1777 H 0.43248 0.28156 0.39461 0.0
H1778 H 0.33851 0.29918 0.32666 0.0
H1779 H 0.36797 0.30406 0.34909 0.0
H1780 H 0.35659 0.29216 0.42838 0.0
C1781 C 0.42743 0.26696 0.46516 0.0
C1782 C 0.41587 0.28442 0.40203 0.0
C1783 C 0.44406 0.26117 0.48092 0.0
C1784 C 0.34138 0.29041 0.34442 0.0
C1785 C 0.35817 0.29324 0.35729 0.0
C1786 C 0.37305 0.29003 0.42066 0.0
C1787 C 0.42811 0.28194 0.44449 0.0
C1788 C 0.4108 0.28633 0.42711 0.0
C1789 C 0.36161 0.28288 0.38095 0.0
C1790 C 0.37827 0.28651 0.39592 0.0
H1791 H 0.47589 0.29325 0.45288 0.0
H1792 H 0.44664 0.30325 0.42474 0.0
H1793 H 0.38449 0.29186 0.45511 0.0
H1794 H 0.32215 0.25547 0.38671 0.0
H1795 H 0.35105 0.26024 0.40875 0.0
C1796 C 0.6056 0.80428 0.63125 0.0
C1797 C 0.61162 0.78701 0.61525 0.0
C1798 C 0.6207 0.80736 0.64633 0.0
C1799 C 0.67873 0.7982 0.65011 0.0
H1800 H 0.66886 0.7934 0.7202 0.0
C1801 C 0.74978 0.77903 0.71 0.0
C1802 C 0.74741 0.7893 0.73184 0.0
C1803 C 0.73187 0.78081 0.69693 0.0
C1804 C 0.67176 0.79519 0.70067 0.0
H1805 H 0.63821 0.75984 0.60215 0.0
H1806 H 0.66447 0.76569 0.62774 0.0
H1807 H 0.63957 0.79414 0.69471 0.0
H1808 H 0.72435 0.80905 0.75756 0.0
H1809 H 0.6928 0.81266 0.73435 0.0
H1810 H 0.71068 0.7994 0.65566 0.0
C1811 C 0.64812 0.77664 0.62889 0.0
C1812 C 0.65498 0.79559 0.68611 0.0
C1813 C 0.63303 0.77326 0.6143 0.0
C1814 C 0.7266 0.80098 0.74073 0.0
C1815 C 0.70856 0.80298 0.72745 0.0
C1816 C 0.69532 0.7981 0.66456 0.0
C1817 C 0.64213 0.7936 0.64516 0.0
C1818 C 0.65854 0.79649 0.6607 0.0
C1819 C 0.71105 0.79321 0.70513 0.0
C1820 C 0.69235 0.79587 0.69006 0.0
H1821 H 0.58918 0.81504 0.63246 0.0
H1822 H 0.61572 0.82059 0.65872 0.0
H1823 H 0.6818 0.79921 0.63056 0.0
H1824 H 0.76558 0.76964 0.70286 0.0
H1825 H 0.73443 0.7724 0.6803 0.0
C1826 C 0.60224 0.24494 0.47644 0.0
C1827 C 0.5908 0.23199 0.46652 0.0
C1828 C 0.62208 0.24703 0.4655 0.0
C1829 C 0.66787 0.22058 0.42397 0.0
H1830 H 0.67517 0.28093 0.41108 0.0
C1831 C 0.73164 0.24085 0.3529 0.0
C1832 C 0.74165 0.25765 0.35649 0.0
C1833 C 0.71516 0.23665 0.36923 0.0
C1834 C 0.67363 0.26391 0.41495 0.0
H1835 H 0.59172 0.21074 0.43746 0.0
H1836 H 0.62653 0.21414 0.41864 0.0
H1837 H 0.64262 0.27539 0.43408 0.0
H1838 H 0.74263 0.28274 0.38059 0.0
H1839 H 0.71389 0.27512 0.40951 0.0
H1840 H 0.69879 0.20903 0.40483 0.0
C1841 C 0.62004 0.22262 0.43495 0.0
C1842 C 0.65493 0.26076 0.42805 0.0
C1843 C 0.60008 0.22067 0.44576 0.0
C1844 C 0.7352 0.26973 0.37727 0.0
C1845 C 0.71865 0.26546 0.39374 0.0
C1846 C 0.68665 0.22369 0.41107 0.0
C1847 C 0.63112 0.23604 0.44455 0.0
C1848 C 0.65168 0.23912 0.43228 0.0
C1849 C 0.70827 0.24902 0.38973 0.0
C1850 C 0.68956 0.24545 0.40594 0.0
H1851 H 0.59595 0.25347 0.49272 0.0
H1852 H 0.63042 0.25721 0.4735 0.0
H1853 H 0.66596 0.20366 0.42733 0.0
H1854 H 0.73616 0.23118 0.33711 0.0
H1855 H 0.70733 0.22416 0.36527 0.0
C1856 C 0.78429 0.61862 0.46197 0.0
C1857 C 0.78712 0.62121 0.48615 0.0
C1858 C 0.79086 0.63251 0.44305 0.0
C1859 C 0.82474 0.67326 0.42967 0.0
H1860 H 0.79225 0.69036 0.37223 0.0
C1861 C 0.82403 0.75091 0.36181 0.0
C1862 C 0.82681 0.74726 0.33702 0.0
C1863 C 0.82259 0.73338 0.37925 0.0
C1864 C 0.80163 0.68545 0.38805 0.0
H1865 H 0.79846 0.6406 0.50966 0.0
H1866 H 0.80891 0.66571 0.47692 0.0
H1867 H 0.78157 0.66496 0.40445 0.0
H1868 H 0.8322 0.72207 0.3111 0.0
H1869 H 0.8285 0.69149 0.34168 0.0
H1870 H 0.8439 0.69505 0.41359 0.0
C1871 C 0.80244 0.65242 0.47227 0.0
C1872 C 0.79558 0.67083 0.40655 0.0
C1873 C 0.79628 0.6382 0.49112 0.0
C1874 C 0.82949 0.72542 0.33006 0.0
C1875 C 0.82746 0.70797 0.34749 0.0
C1876 C 0.83047 0.68826 0.41138 0.0
C1877 C 0.80004 0.64965 0.4479 0.0
C1878 C 0.80695 0.66464 0.42774 0.0
C1879 C 0.82358 0.71197 0.37219 0.0
C1880 C 0.8189 0.69454 0.3905 0.0
H1881 H 0.77758 0.60537 0.45766 0.0
H1882 H 0.78909 0.62946 0.42461 0.0
H1883 H 0.83428 0.66853 0.44533 0.0
H1884 H 0.82209 0.76755 0.36771 0.0
H1885 H 0.81957 0.73685 0.39819 0.0
C1886 C 0.50041 0.82375 0.53386 0.0
C1887 C 0.52015 0.8261 0.52229 0.0
C1888 C 0.48344 0.82325 0.52023 0.0
C1889 C 0.46306 0.83385 0.45872 0.0
H1890 H 0.44131 0.78178 0.47849 0.0
C1891 C 0.41511 0.8006 0.39542 0.0
C1892 C 0.39732 0.79306 0.40574 0.0
C1893 C 0.4293 0.80564 0.41012 0.0
C1894 C 0.44692 0.79659 0.47287 0.0
H1895 H 0.53669 0.83198 0.48735 0.0
H1896 H 0.50702 0.83126 0.46363 0.0
H1897 H 0.46596 0.79135 0.50351 0.0
H1898 H 0.38099 0.78421 0.43976 0.0
H1899 H 0.40542 0.7935 0.46539 0.0
H1900 H 0.44406 0.83906 0.42802 0.0
C1901 C 0.50473 0.82963 0.48324 0.0
C1902 C 0.46104 0.80211 0.48726 0.0
C1903 C 0.52177 0.83003 0.49687 0.0
C1904 C 0.39439 0.79018 0.43117 0.0
C1905 C 0.40854 0.79532 0.44589 0.0
C1906 C 0.44881 0.82842 0.44438 0.0
C1907 C 0.48575 0.82528 0.49475 0.0
C1908 C 0.46942 0.82069 0.48027 0.0
C1909 C 0.42603 0.80338 0.43554 0.0
C1910 C 0.44072 0.80957 0.45115 0.0
H1911 H 0.4985 0.82086 0.55342 0.0
H1912 H 0.46882 0.82036 0.52963 0.0
H1913 H 0.4691 0.84837 0.45296 0.0
H1914 H 0.41774 0.80335 0.37593 0.0
H1915 H 0.44281 0.8114 0.4015 0.0
C1916 C 0.25446 0.45276 0.49386 0.0
C1917 C 0.27142 0.46266 0.49535 0.0
C1918 C 0.25537 0.43831 0.47586 0.0
C1919 C 0.28005 0.42437 0.41513 0.0
H1920 H 0.26147 0.36983 0.43092 0.0
C1921 C 0.29007 0.35703 0.34677 0.0
C1922 C 0.27399 0.34552 0.34741 0.0
C1923 C 0.28934 0.37216 0.36406 0.0
C1924 C 0.26639 0.38516 0.4261 0.0
H1925 H 0.30279 0.46493 0.47919 0.0
H1926 H 0.30437 0.43956 0.44752 0.0
H1927 H 0.26208 0.39365 0.46299 0.0
H1928 H 0.24399 0.34172 0.36624 0.0
H1929 H 0.24244 0.36852 0.3961 0.0
H1930 H 0.28418 0.416 0.37819 0.0
C1931 C 0.29032 0.44316 0.46032 0.0
C1932 C 0.26685 0.39876 0.44452 0.0
C1933 C 0.28948 0.45755 0.47853 0.0
C1934 C 0.25669 0.3502 0.36523 0.0
C1935 C 0.25591 0.36543 0.3825 0.0
C1936 C 0.2795 0.41081 0.39665 0.0
C1937 C 0.27321 0.43344 0.45877 0.0
C1938 C 0.27362 0.41856 0.43925 0.0
C1939 C 0.27245 0.37627 0.38241 0.0
C1940 C 0.27261 0.39105 0.4019 0.0
H1941 H 0.2403 0.4563 0.50653 0.0
H1942 H 0.24182 0.43132 0.47501 0.0
H1943 H 0.28506 0.43968 0.41044 0.0
H1944 H 0.30373 0.3538 0.33341 0.0
H1945 H 0.30247 0.37998 0.36354 0.0
C1946 C 0.47225 0.2489 0.61309 0.0
C1947 C 0.47591 0.22945 0.60045 0.0
C1948 C 0.46015 0.25076 0.63539 0.0
C1949 C 0.44026 0.21762 0.68695 0.0
H1950 H 0.39579 0.27354 0.69622 0.0
C1951 C 0.36952 0.22562 0.76034 0.0
C1952 C 0.36054 0.24642 0.77041 0.0
C1953 C 0.38636 0.22322 0.74217 0.0
C1954 C 0.40841 0.25796 0.69421 0.0
H1955 H 0.46974 0.19663 0.60163 0.0
H1956 H 0.44871 0.19985 0.64066 0.0
H1957 H 0.41951 0.26996 0.65922 0.0
H1958 H 0.36333 0.28056 0.77054 0.0
H1959 H 0.39307 0.2762 0.73921 0.0
H1960 H 0.42902 0.20554 0.72189 0.0
C1961 C 0.4554 0.21357 0.63332 0.0
C1962 C 0.42196 0.25589 0.67291 0.0
C1963 C 0.46744 0.21174 0.61093 0.0
C1964 C 0.36974 0.26435 0.76302 0.0
C1965 C 0.38668 0.2619 0.74491 0.0
C1966 C 0.42677 0.21973 0.70835 0.0
C1967 C 0.45149 0.23318 0.6457 0.0
C1968 C 0.43786 0.23562 0.66891 0.0
C1969 C 0.39474 0.24152 0.73373 0.0
C1970 C 0.41049 0.23984 0.71212 0.0
H1971 H 0.47889 0.26268 0.60594 0.0
H1972 H 0.45769 0.26594 0.64466 0.0
H1973 H 0.45258 0.2019 0.68452 0.0
H1974 H 0.36285 0.21144 0.76557 0.0
H1975 H 0.39201 0.20734 0.73388 0.0
C1976 C 0.77334 0.49927 0.64524 0.0
C1977 C 0.76977 0.50163 0.62043 0.0
C1978 C 0.77778 0.47803 0.65796 0.0
C1979 C 0.76969 0.42267 0.66156 0.0
H1980 H 0.82369 0.40242 0.69308 0.0
C1981 C 0.79167 0.33666 0.71685 0.0
C1982 C 0.80136 0.33579 0.73865 0.0
C1983 C 0.79023 0.35509 0.69968 0.0
C1984 C 0.80841 0.40785 0.68468 0.0
H1985 H 0.76741 0.4839 0.58963 0.0
H1986 H 0.77436 0.4466 0.61226 0.0
H1987 H 0.81481 0.43884 0.6695 0.0
H1988 H 0.81772 0.35317 0.75928 0.0
H1989 H 0.81451 0.38561 0.73001 0.0
H1990 H 0.76251 0.39254 0.6777 0.0
C1991 C 0.77398 0.46123 0.62165 0.0
C1992 C 0.80343 0.42866 0.67106 0.0
C1993 C 0.77 0.48245 0.60877 0.0
C1994 C 0.81042 0.35321 0.74249 0.0
C1995 C 0.80858 0.37186 0.72558 0.0
C1996 C 0.77443 0.40206 0.67561 0.0
C1997 C 0.77833 0.45882 0.64622 0.0
C1998 C 0.78396 0.43631 0.65958 0.0
C1999 C 0.79799 0.37334 0.70417 0.0
C2000 C 0.79378 0.39443 0.68759 0.0
H2001 H 0.77362 0.51372 0.65454 0.0
H2002 H 0.78099 0.47654 0.67694 0.0
H2003 H 0.75452 0.42833 0.65293 0.0
H2004 H 0.78465 0.32339 0.71334 0.0
H2005 H 0.78252 0.35525 0.68316 0.0
C2006 C 0.32642 0.54229 0.5709 0.0
C2007 C 0.32962 0.51908 0.5773 0.0
C2008 C 0.33343 0.55566 0.58536 0.0
C2009 C 0.34345 0.55559 0.64952 0.0
H2010 H 0.35015 0.61487 0.62732 0.0
C2011 C 0.31248 0.6299 0.70811 0.0
C2012 C 0.3225 0.64753 0.70612 0.0
C2013 C 0.31969 0.61213 0.69317 0.0
C2014 C 0.34874 0.59824 0.63395 0.0
H2015 H 0.34492 0.4913 0.60237 0.0
H2016 H 0.3579 0.51452 0.62715 0.0
H2017 H 0.35407 0.587 0.59814 0.0
H2018 H 0.34841 0.65998 0.68727 0.0
H2019 H 0.36131 0.62862 0.66122 0.0
H2020 H 0.33831 0.56672 0.68531 0.0
C2021 C 0.34918 0.52256 0.61147 0.0
C2022 C 0.35069 0.5823 0.61713 0.0
C2023 C 0.34191 0.50918 0.59713 0.0
C2024 C 0.34027 0.64671 0.68911 0.0
C2025 C 0.34762 0.62876 0.67418 0.0
C2026 C 0.34181 0.57138 0.66634 0.0
C2027 C 0.34411 0.54615 0.60645 0.0
C2028 C 0.34708 0.56112 0.62455 0.0
C2029 C 0.33725 0.61136 0.67586 0.0
C2030 C 0.34341 0.59326 0.65866 0.0
H2031 H 0.31716 0.5505 0.55564 0.0
H2032 H 0.32902 0.57371 0.58085 0.0
H2033 H 0.34047 0.53957 0.65609 0.0
H2034 H 0.29845 0.63025 0.72063 0.0
H2035 H 0.31087 0.59944 0.69462 0.0
loop_
_geom_bond_atom_site_label_1
_geom_bond_atom_site_label_2
_geom_bond_distance
_geom_bond_site_symmetry_2
_ccdc_geom_bond_type
Cu0 N1 2.042 . S
Cu0 O6 1.949 1_545 S
Cu0 N11 1.943 1_545 S
Cu0 O20 1.986 . S
N1 Cu0 2.042 . S
N1 C3 1.263 . S
N1 C5 1.389 . S
N2 C3 1.358 . S
N2 C4 1.400 . S
C3 N1 1.263 . S
C3 N2 1.358 . S
C3 H9 0.930 . S
C4 N2 1.400 . S
C4 C5 1.351 . S
C4 H21 0.930 . S
C5 N1 1.389 . S
C5 C4 1.351 . S
C5 H10 0.930 . S
O6 Cu0 1.949 1_565 S
O6 C16 1.282 . S
C7 O8 1.261 1_655 S
C7 O20 1.251 1_655 S
O8 C7 1.261 1_455 S
H9 C3 0.930 . S
H10 C5 0.930 . S
N11 Cu0 1.943 1_565 S
N11 C13 1.335 1_455 S
N11 C14 1.390 . S
N12 C13 1.345 . S
N12 C15 1.336 1_655 S
C13 N11 1.335 1_655 S
C13 N12 1.345 . S
C13 H18 0.930 . S
C14 N11 1.390 . S
C14 C15 1.346 . S
C14 H19 0.930 . S
C15 N12 1.336 1_455 S
C15 C14 1.346 . S
C15 H22 0.929 . S
C16 O6 1.282 . S
C16 O17 1.216 . S
O17 C16 1.216 . S
H18 C13 0.930 . S
H19 C14 0.930 . S
O20 Cu0 1.986 . S
O20 C7 1.251 1_455 S
H21 C4 0.930 . S
H22 C15 0.929 . S
Cu23 N24 1.999 1_455 S
Cu23 O29 1.974 1_455 S
Cu23 N34 1.985 . S
Cu23 O43 1.959 . S
N24 Cu23 1.999 1_655 S
N24 C26 1.263 . S
N24 C28 1.389 1_645 S
N25 C26 1.358 1_565 S
N25 C27 1.400 . S
C26 N24 1.263 . S
C26 N25 1.358 1_545 S
C26 H32 0.930 . S
C27 N25 1.400 . S
C27 C28 1.351 1_655 S
C27 H44 0.930 . S
C28 N24 1.389 1_465 S
C28 C27 1.351 1_455 S
C28 H33 0.930 . S
O29 Cu23 1.974 1_655 S
O29 C39 1.282 . S
C30 O31 1.261 . S
C30 O43 1.251 . S
O31 C30 1.261 . S
H32 C26 0.930 . S
H33 C28 0.930 . S
N34 Cu23 1.985 . S
N34 C36 1.335 . S
N34 C37 1.390 . S
N35 C36 1.345 . S
N35 C38 1.336 . S
C36 N34 1.335 . S
C36 N35 1.345 . S
C36 H41 0.930 . S
C37 N34 1.390 . S
C37 C38 1.346 . S
C37 H42 0.930 . S
C38 N35 1.336 . S
C38 C37 1.346 . S
C38 H45 0.929 . S
C39 O29 1.282 . S
C39 O40 1.216 . S
O40 C39 1.216 . S
H41 C36 0.930 . S
H42 C37 0.930 . S
O43 Cu23 1.959 . S
O43 C30 1.251 . S
H44 C27 0.930 . S
H45 C38 0.929 . S
Cu46 N47 1.999 . S
Cu46 O52 1.974 . S
Cu46 N57 1.985 . S
Cu46 O66 1.959 . S
N47 Cu46 1.999 . S
N47 C49 1.263 1_545 S
N47 C51 1.389 . S
N48 C49 1.358 . S
N48 C50 1.431 . S
C49 N47 1.263 1_565 S
C49 N48 1.358 . S
C49 H55 0.930 . S
C50 N48 1.431 . S
C50 C51 1.310 1_565 S
C50 H67 0.898 1_554 S
C51 N47 1.389 . S
C51 C50 1.310 1_545 S
C51 H56 0.930 . S
O52 Cu46 1.974 . S
O52 C62 1.282 . S
C53 O54 1.261 . S
C53 O66 1.251 . S
O54 C53 1.261 . S
H55 C49 0.930 . S
H56 C51 0.930 . S
N57 Cu46 1.985 . S
N57 C59 1.335 . S
N57 C60 1.390 . S
N58 C59 1.345 . S
N58 C61 1.336 . S
C59 N57 1.335 . S
C59 N58 1.345 . S
C59 H64 0.930 . S
C60 N57 1.390 . S
C60 C61 1.346 . S
C60 H65 0.930 . S
C61 N58 1.336 . S
C61 C60 1.346 . S
C61 H68 0.929 . S
C62 O52 1.282 . S
C62 O63 1.216 . S
O63 C62 1.216 . S
H64 C59 0.930 . S
H65 C60 0.930 . S
O66 Cu46 1.959 . S
O66 C53 1.251 . S
H67 C50 0.898 1_556 S
H68 C61 0.929 . S
Cu69 N70 1.999 . S
Cu69 O75 1.974 . S
Cu69 N80 1.985 . S
Cu69 O89 1.959 . S
N70 Cu69 1.999 . S
N70 C72 1.263 . S
N70 C74 1.389 . S
N71 C72 1.358 . S
N71 C73 1.400 1_554 S
C72 N70 1.263 . S
C72 N71 1.358 . S
C72 H78 0.930 . S
C73 N71 1.400 1_556 S
C73 C74 1.351 1_556 S
C73 H90 0.930 . S
C74 N70 1.389 . S
C74 C73 1.351 1_554 S
C74 H79 0.930 . S
O75 Cu69 1.974 . S
O75 C85 1.282 . S
C76 O77 1.261 . S
C76 O89 1.251 . S
O77 C76 1.261 . S
H78 C72 0.930 . S
H79 C74 0.930 . S
N80 Cu69 1.985 . S
N80 C82 1.335 1_455 S
N80 C83 1.390 . S
N81 C82 1.345 . S
N81 C84 1.336 . S
C82 N80 1.335 1_655 S
C82 N81 1.345 . S
C82 H87 0.930 . S
C83 N80 1.390 . S
C83 C84 1.346 1_455 S
C83 H88 0.930 . S
C84 N81 1.336 . S
C84 C83 1.346 1_655 S
C84 H91 0.929 . S
C85 O75 1.282 . S
C85 O86 1.216 . S
O86 C85 1.216 . S
H87 C82 0.930 . S
H88 C83 0.930 . S
O89 Cu69 1.959 . S
O89 C76 1.251 . S
H90 C73 0.930 . S
H91 C84 0.929 . S
Cu92 N93 1.999 1_554 S
Cu92 O98 1.974 . S
Cu92 N103 1.985 1_545 S
Cu92 O112 1.959 1_544 S
N93 Cu92 1.999 1_556 S
N93 C95 1.263 . S
N93 C97 1.389 . S
N94 C95 1.358 . S
N94 C96 1.400 . S
C95 N93 1.263 . S
C95 N94 1.358 . S
C95 H101 0.930 . S
C96 N94 1.400 . S
C96 C97 1.351 . S
C96 H113 0.930 . S
C97 N93 1.389 . S
C97 C96 1.351 . S
C97 H102 0.930 . S
O98 Cu92 1.974 . S
O98 C108 1.282 . S
C99 O100 1.261 . S
C99 O112 1.251 . S
O100 C99 1.261 . S
H101 C95 0.930 . S
H102 C97 0.930 . S
N103 Cu92 1.985 1_565 S
N103 C105 1.335 . S
N103 C106 1.390 . S
N104 C105 1.345 . S
N104 C107 1.336 . S
C105 N103 1.335 . S
C105 N104 1.345 . S
C105 H110 0.930 . S
C106 N103 1.390 . S
C106 C107 1.346 . S
C106 H111 0.930 . S
C107 N104 1.336 . S
C107 C106 1.346 . S
C107 H114 0.929 . S
C108 O98 1.282 . S
C108 O109 1.216 . S
O109 C108 1.216 . S
H110 C105 0.930 . S
H111 C106 0.930 . S
O112 Cu92 1.959 1_566 S
O112 C99 1.251 . S
H113 C96 0.930 . S
H114 C107 0.929 . S
Cu115 N116 1.999 1_454 S
Cu115 O121 1.974 1_455 S
Cu115 N126 1.985 . S
Cu115 O135 1.959 1_554 S
N116 Cu115 1.999 1_656 S
N116 C118 1.263 . S
N116 C120 1.384 1_655 S
N117 C118 1.358 . S
N117 C119 1.400 . S
C118 N116 1.263 . S
C118 N117 1.358 . S
C118 H124 0.921 1_556 S
C119 N117 1.400 . S
C119 C120 1.306 1_655 S
C119 H136 0.930 . S
C120 N116 1.384 1_455 S
C120 C119 1.306 1_455 S
C120 H125 0.974 . S
O121 Cu115 1.974 1_655 S
O121 C131 1.282 . S
C122 O123 1.261 . S
C122 O135 1.251 . S
O123 C122 1.261 . S
H124 C118 0.921 1_554 S
H125 C120 0.974 . S
N126 Cu115 1.985 . S
N126 C128 1.335 . S
N126 C129 1.390 . S
N127 C128 1.345 . S
N127 C130 1.336 . S
C128 N126 1.335 . S
C128 N127 1.345 . S
C128 H133 0.930 . S
C129 N126 1.390 . S
C129 C130 1.346 . S
C129 H134 0.930 . S
C130 N127 1.336 . S
C130 C129 1.346 . S
C130 H137 0.929 . S
C131 O121 1.282 . S
C131 O132 1.216 . S
O132 C131 1.216 . S
H133 C128 0.930 . S
H134 C129 0.930 . S
O135 Cu115 1.959 1_556 S
O135 C122 1.251 . S
H136 C119 0.930 . S
H137 C130 0.929 . S
Cu138 N139 1.999 . S
Cu138 O144 1.974 . S
Cu138 N149 1.985 . S
Cu138 O158 1.959 . S
N139 Cu138 1.999 . S
N139 C141 1.263 . S
N139 C143 1.389 . S
N140 C141 1.358 . S
N140 C142 1.400 . S
C141 N139 1.263 . S
C141 N140 1.358 . S
C141 H147 0.930 . S
C142 N140 1.400 . S
C142 C143 1.351 . S
C142 H159 0.930 . S
C143 N139 1.389 . S
C143 C142 1.351 . S
C143 H148 0.930 . S
O144 Cu138 1.974 . S
O144 C154 1.282 . S
C145 O146 1.261 . S
C145 O158 1.251 . S
O146 C145 1.261 . S
H147 C141 0.930 . S
H148 C143 0.930 . S
N149 Cu138 1.985 . S
N149 C151 1.335 . S
N149 C152 1.390 . S
N150 C151 1.345 . S
N150 C153 1.336 . S
C151 N149 1.335 . S
C151 N150 1.345 . S
C151 H156 0.930 . S
C152 N149 1.390 . S
C152 C153 1.346 . S
C152 H157 0.930 . S
C153 N150 1.336 . S
C153 C152 1.346 . S
C153 H160 0.929 . S
C154 O144 1.282 . S
C154 O155 1.216 . S
O155 C154 1.216 . S
H156 C151 0.930 . S
H157 C152 0.930 . S
O158 Cu138 1.959 . S
O158 C145 1.251 . S
H159 C142 0.930 . S
H160 C153 0.929 . S
Cu161 N162 1.999 . S
Cu161 O167 1.974 . S
Cu161 N172 1.985 . S
Cu161 O181 1.959 . S
N162 Cu161 1.999 . S
N162 C164 1.263 . S
N162 C166 1.389 . S
N163 C164 1.358 . S
N163 C165 1.400 . S
C164 N162 1.263 . S
C164 N163 1.358 . S
C164 H170 0.930 . S
C165 N163 1.400 . S
C165 C166 1.351 . S
C165 H182 0.930 . S
C166 N162 1.389 . S
C166 C165 1.351 . S
C166 H171 0.930 . S
O167 Cu161 1.974 . S
O167 C177 1.282 . S
C168 O169 1.261 . S
C168 O181 1.251 . S
O169 C168 1.261 . S
H170 C164 0.930 . S
H171 C166 0.930 . S
N172 Cu161 1.985 . S
N172 C174 1.335 . S
N172 C175 1.390 . S
N173 C174 1.345 . S
N173 C176 1.336 . S
C174 N172 1.335 . S
C174 N173 1.345 . S
C174 H179 0.930 . S
C175 N172 1.390 . S
C175 C176 1.346 . S
C175 H180 0.930 . S
C176 N173 1.336 . S
C176 C175 1.346 . S
C176 H183 0.929 . S
C177 O167 1.282 . S
C177 O178 1.216 . S
O178 C177 1.216 . S
H179 C174 0.930 . S
H180 C175 0.930 . S
O181 Cu161 1.959 . S
O181 C168 1.251 . S
H182 C165 0.930 . S
H183 C176 0.929 . S
Cu184 N185 1.999 . S
Cu184 O190 1.974 . S
Cu184 N195 1.985 . S
Cu184 O204 1.959 . S
N185 Cu184 1.999 . S
N185 C187 1.263 . S
N185 C189 1.389 . S
N186 C187 1.358 . S
N186 C188 1.400 . S
C187 N185 1.263 . S
C187 N186 1.358 . S
C187 H193 0.930 . S
C188 N186 1.400 . S
C188 C189 1.351 . S
C188 H205 0.930 . S
C189 N185 1.389 . S
C189 C188 1.351 . S
C189 H194 0.930 . S
O190 Cu184 1.974 . S
O190 C200 1.282 . S
C191 O192 1.261 . S
C191 O204 1.251 . S
O192 C191 1.261 . S
H193 C187 0.930 . S
H194 C189 0.930 . S
N195 Cu184 1.985 . S
N195 C197 1.335 . S
N195 C198 1.390 . S
N196 C197 1.345 . S
N196 C199 1.336 . S
C197 N195 1.335 . S
C197 N196 1.345 . S
C197 H202 0.930 . S
C198 N195 1.390 . S
C198 C199 1.346 . S
C198 H203 0.930 . S
C199 N196 1.336 . S
C199 C198 1.346 . S
C199 H206 0.929 . S
C200 O190 1.282 . S
C200 O201 1.216 . S
O201 C200 1.216 . S
H202 C197 0.930 . S
H203 C198 0.930 . S
O204 Cu184 1.959 . S
O204 C191 1.251 . S
H205 C188 0.930 . S
H206 C199 0.929 . S
Cu207 N208 1.999 . S
Cu207 O213 1.974 . S
Cu207 N218 1.985 . S
Cu207 O227 1.959 . S
N208 Cu207 1.999 . S
N208 C210 1.263 . S
N208 C212 1.389 . S
N209 C210 1.358 . S
N209 C211 1.400 . S
C210 N208 1.263 . S
C210 N209 1.358 . S
C210 H216 0.930 . S
C211 N209 1.400 . S
C211 C212 1.351 . S
C211 H228 0.930 . S
C212 N208 1.389 . S
C212 C211 1.351 . S
C212 H217 0.930 . S
O213 Cu207 1.974 . S
O213 C223 1.282 . S
C214 O215 1.261 . S
C214 O227 1.251 . S
O215 C214 1.261 . S
H216 C210 0.930 . S
H217 C212 0.930 . S
N218 Cu207 1.985 . S
N218 C220 1.335 . S
N218 C221 1.390 . S
N219 C220 1.345 . S
N219 C222 1.336 . S
C220 N218 1.335 . S
C220 N219 1.345 . S
C220 H225 0.930 . S
C221 N218 1.390 . S
C221 C222 1.346 . S
C221 H226 0.930 . S
C222 N219 1.336 . S
C222 C221 1.346 . S
C222 H229 0.929 . S
C223 O213 1.282 . S
C223 O224 1.216 . S
O224 C223 1.216 . S
H225 C220 0.930 . S
H226 C221 0.930 . S
O227 Cu207 1.959 . S
O227 C214 1.251 . S
H228 C211 0.930 . S
H229 C222 0.929 . S
Cu230 N231 1.999 . S
Cu230 O236 1.974 . S
Cu230 N241 1.985 . S
Cu230 O250 1.959 . S
N231 Cu230 1.999 . S
N231 C233 1.263 . S
N231 C235 1.389 . S
N232 C233 1.358 . S
N232 C234 1.400 . S
C233 N231 1.263 . S
C233 N232 1.358 . S
C233 H239 0.930 . S
C234 N232 1.400 . S
C234 C235 1.351 . S
C234 H251 0.930 . S
C235 N231 1.389 . S
C235 C234 1.351 . S
C235 H240 0.930 . S
O236 Cu230 1.974 . S
O236 C246 1.282 . S
C237 O238 1.261 . S
C237 O250 1.251 . S
O238 C237 1.261 . S
H239 C233 0.930 . S
H240 C235 0.930 . S
N241 Cu230 1.985 . S
N241 C243 1.335 . S
N241 C244 1.390 . S
N242 C243 1.345 . S
N242 C245 1.336 . S
C243 N241 1.335 . S
C243 N242 1.345 . S
C243 H248 0.930 . S
C244 N241 1.390 . S
C244 C245 1.346 . S
C244 H249 0.930 . S
C245 N242 1.336 . S
C245 C244 1.346 . S
C245 H252 0.929 . S
C246 O236 1.282 . S
C246 O247 1.216 . S
O247 C246 1.216 . S
H248 C243 0.930 . S
H249 C244 0.930 . S
O250 Cu230 1.959 . S
O250 C237 1.251 . S
H251 C234 0.930 . S
H252 C245 0.929 . S
Cu253 N254 1.999 . S
Cu253 O259 1.974 . S
Cu253 N264 1.985 . S
Cu253 O273 1.959 . S
N254 Cu253 1.999 . S
N254 C256 1.263 . S
N254 C258 1.389 . S
N255 C256 1.358 . S
N255 C257 1.400 . S
C256 N254 1.263 . S
C256 N255 1.358 . S
C256 H262 0.930 . S
C257 N255 1.400 . S
C257 C258 1.351 . S
C257 H274 0.930 . S
C258 N254 1.389 . S
C258 C257 1.351 . S
C258 H263 0.930 . S
O259 Cu253 1.974 . S
O259 C269 1.282 . S
C260 O261 1.261 . S
C260 O273 1.251 . S
O261 C260 1.261 . S
H262 C256 0.930 . S
H263 C258 0.930 . S
N264 Cu253 1.985 . S
N264 C266 1.335 . S
N264 C267 1.390 . S
N265 C266 1.345 . S
N265 C268 1.336 . S
C266 N264 1.335 . S
C266 N265 1.345 . S
C266 H271 0.930 . S
C267 N264 1.390 . S
C267 C268 1.346 . S
C267 H272 0.930 . S
C268 N265 1.336 . S
C268 C267 1.346 . S
C268 H275 0.929 . S
C269 O259 1.282 . S
C269 O270 1.216 . S
O270 C269 1.216 . S
H271 C266 0.930 . S
H272 C267 0.930 . S
O273 Cu253 1.959 . S
O273 C260 1.251 . S
H274 C257 0.930 . S
H275 C268 0.929 . S
Ho276 C279 2.811 . S
Ho276 O296 2.322 . S
Ho276 O298 2.378 . S
Ho276 O299 2.524 . S
Ho276 O300 2.381 . S
Ho276 O301 2.669 . S
Ho276 O303 2.346 . S
Ho276 O307 2.305 . S
Ho277 C288 2.811 . S
Ho277 O297 2.346 . S
Ho277 O301 2.305 . S
Ho277 O302 2.322 . S
Ho277 O304 2.378 . S
Ho277 O305 2.524 . S
Ho277 O306 2.381 . S
Ho277 O307 2.669 . S
C278 O296 1.259 . S
C278 O297 1.268 . S
C279 Ho276 2.811 . S
C279 C280 1.488 . S
C279 O298 1.215 . S
C279 O299 1.289 . S
C280 C279 1.488 . S
C280 C281 1.348 . S
C280 C285 1.413 . S
C281 C280 1.348 . S
C281 C282 1.442 . S
C281 H308 0.930 . S
C282 C281 1.442 . S
C282 C283 1.381 . S
C282 H309 0.931 . S
C283 C282 1.381 . S
C283 C284 1.321 . S
C284 C283 1.321 . S
C284 C285 1.403 . S
C284 H310 0.934 . S
C285 C280 1.413 . S
C285 C284 1.403 . S
C285 H311 0.930 . S
C286 O300 1.275 . S
C286 O301 1.256 . S
C287 O302 1.259 . S
C287 O303 1.268 . S
C288 Ho277 2.811 . S
C288 C289 1.488 . S
C288 O304 1.215 . S
C288 O305 1.289 . S
C289 C288 1.488 . S
C289 C290 1.348 . S
C289 C294 1.413 . S
C290 C289 1.348 . S
C290 C291 1.442 . S
C290 H312 0.930 . S
C291 C290 1.442 . S
C291 C292 1.381 . S
C291 H313 0.931 . S
C292 C291 1.381 . S
C292 C293 1.321 . S
C293 C292 1.321 . S
C293 C294 1.403 . S
C293 H314 0.934 . S
C294 C289 1.413 . S
C294 C293 1.403 . S
C294 H315 0.930 . S
C295 O306 1.275 . S
C295 O307 1.256 . S
O296 Ho276 2.322 . S
O296 C278 1.259 . S
O297 Ho277 2.346 . S
O297 C278 1.268 . S
O298 Ho276 2.378 . S
O298 C279 1.215 . S
O299 Ho276 2.524 . S
O299 C279 1.289 . S
O300 Ho276 2.381 . S
O300 C286 1.275 . S
O301 Ho276 2.669 . S
O301 Ho277 2.305 . S
O301 C286 1.256 . S
O302 Ho277 2.322 . S
O302 C287 1.259 . S
O303 Ho276 2.346 . S
O303 C287 1.268 . S
O304 Ho277 2.378 . S
O304 C288 1.215 . S
O305 Ho277 2.524 . S
O305 C288 1.289 . S
O306 Ho277 2.381 . S
O306 C295 1.275 . S
O307 Ho276 2.305 . S
O307 Ho277 2.669 . S
O307 C295 1.256 . S
H308 C281 0.930 . S
H309 C282 0.931 . S
H310 C284 0.934 . S
H311 C285 0.930 . S
H312 C290 0.930 . S
H313 C291 0.931 . S
H314 C293 0.934 . S
H315 C294 0.930 . S
Ho316 C319 2.811 . S
Ho316 O336 2.322 . S
Ho316 O338 2.378 . S
Ho316 O339 2.524 . S
Ho316 O340 2.381 . S
Ho316 O341 2.669 . S
Ho316 O343 2.346 . S
Ho316 O347 2.305 . S
Ho317 C328 2.811 . S
Ho317 O337 2.346 . S
Ho317 O341 2.305 . S
Ho317 O342 2.322 . S
Ho317 O344 2.378 . S
Ho317 O345 2.524 . S
Ho317 O346 2.381 . S
Ho317 O347 2.669 . S
C318 O336 1.259 . S
C318 O337 1.268 . S
C319 Ho316 2.811 . S
C319 C320 1.488 . S
C319 O338 1.215 . S
C319 O339 1.289 . S
C320 C319 1.488 . S
C320 C321 1.348 . S
C320 C325 1.413 . S
C321 C320 1.348 . S
C321 C322 1.442 . S
C321 H348 0.930 . S
C322 C321 1.442 . S
C322 C323 1.381 . S
C322 H349 0.931 . S
C323 C322 1.381 . S
C323 C324 1.321 . S
C324 C323 1.321 . S
C324 C325 1.403 . S
C324 H350 0.934 . S
C325 C320 1.413 . S
C325 C324 1.403 . S
C325 H351 0.930 . S
C326 O340 1.275 . S
C326 O341 1.256 . S
C327 O342 1.259 . S
C327 O343 1.268 . S
C328 Ho317 2.811 . S
C328 C329 1.488 . S
C328 O344 1.215 . S
C328 O345 1.289 . S
C329 C328 1.488 . S
C329 C330 1.348 . S
C329 C334 1.413 . S
C330 C329 1.348 . S
C330 C331 1.442 . S
C330 H352 0.930 . S
C331 C330 1.442 . S
C331 C332 1.381 . S
C331 H353 0.931 . S
C332 C331 1.381 . S
C332 C333 1.321 . S
C333 C332 1.321 . S
C333 C334 1.403 . S
C333 H354 0.934 . S
C334 C329 1.413 . S
C334 C333 1.403 . S
C334 H355 0.930 . S
C335 O346 1.275 . S
C335 O347 1.256 . S
O336 Ho316 2.322 . S
O336 C318 1.259 . S
O337 Ho317 2.346 . S
O337 C318 1.268 . S
O338 Ho316 2.378 . S
O338 C319 1.215 . S
O339 Ho316 2.524 . S
O339 C319 1.289 . S
O340 Ho316 2.381 . S
O340 C326 1.275 . S
O341 Ho316 2.669 . S
O341 Ho317 2.305 . S
O341 C326 1.256 . S
O342 Ho317 2.322 . S
O342 C327 1.259 . S
O343 Ho316 2.346 . S
O343 C327 1.268 . S
O344 Ho317 2.378 . S
O344 C328 1.215 . S
O345 Ho317 2.524 . S
O345 C328 1.289 . S
O346 Ho317 2.381 . S
O346 C335 1.275 . S
O347 Ho316 2.305 . S
O347 Ho317 2.669 . S
O347 C335 1.256 . S
H348 C321 0.930 . S
H349 C322 0.931 . S
H350 C324 0.934 . S
H351 C325 0.930 . S
H352 C330 0.930 . S
H353 C331 0.931 . S
H354 C333 0.934 . S
H355 C334 0.930 . S
Ho356 C359 2.811 . S
Ho356 O376 2.322 . S
Ho356 O378 2.378 . S
Ho356 O379 2.524 . S
Ho356 O380 2.381 . S
Ho356 O381 2.669 . S
Ho356 O383 2.346 . S
Ho356 O387 2.305 . S
Ho357 C368 2.811 . S
Ho357 O377 2.346 . S
Ho357 O381 2.305 . S
Ho357 O382 2.322 . S
Ho357 O384 2.378 . S
Ho357 O385 2.524 . S
Ho357 O386 2.381 . S
Ho357 O387 2.669 . S
C358 O376 1.259 . S
C358 O377 1.268 . S
C359 Ho356 2.811 . S
C359 C360 1.488 . S
C359 O378 1.215 . S
C359 O379 1.289 . S
C360 C359 1.488 . S
C360 C361 1.348 . S
C360 C365 1.413 . S
C361 C360 1.348 . S
C361 C362 1.442 . S
C361 H388 0.930 . S
C362 C361 1.442 . S
C362 C363 1.381 . S
C362 H389 0.931 . S
C363 C362 1.381 . S
C363 C364 1.321 . S
C364 C363 1.321 . S
C364 C365 1.403 . S
C364 H390 0.934 . S
C365 C360 1.413 . S
C365 C364 1.403 . S
C365 H391 0.930 . S
C366 O380 1.275 . S
C366 O381 1.256 . S
C367 O382 1.259 . S
C367 O383 1.268 . S
C368 Ho357 2.811 . S
C368 C369 1.488 . S
C368 O384 1.215 . S
C368 O385 1.289 . S
C369 C368 1.488 . S
C369 C370 1.348 . S
C369 C374 1.413 . S
C370 C369 1.348 . S
C370 C371 1.442 . S
C370 H392 0.930 . S
C371 C370 1.442 . S
C371 C372 1.381 . S
C371 H393 0.931 . S
C372 C371 1.381 . S
C372 C373 1.321 . S
C373 C372 1.321 . S
C373 C374 1.403 . S
C373 H394 0.934 . S
C374 C369 1.413 . S
C374 C373 1.403 . S
C374 H395 0.930 . S
C375 O386 1.275 . S
C375 O387 1.256 . S
O376 Ho356 2.322 . S
O376 C358 1.259 . S
O377 Ho357 2.346 . S
O377 C358 1.268 . S
O378 Ho356 2.378 . S
O378 C359 1.215 . S
O379 Ho356 2.524 . S
O379 C359 1.289 . S
O380 Ho356 2.381 . S
O380 C366 1.275 . S
O381 Ho356 2.669 . S
O381 Ho357 2.305 . S
O381 C366 1.256 . S
O382 Ho357 2.322 . S
O382 C367 1.259 . S
O383 Ho356 2.346 . S
O383 C367 1.268 . S
O384 Ho357 2.378 . S
O384 C368 1.215 . S
O385 Ho357 2.524 . S
O385 C368 1.289 . S
O386 Ho357 2.381 . S
O386 C375 1.275 . S
O387 Ho356 2.305 . S
O387 Ho357 2.669 . S
O387 C375 1.256 . S
H388 C361 0.930 . S
H389 C362 0.931 . S
H390 C364 0.934 . S
H391 C365 0.930 . S
H392 C370 0.930 . S
H393 C371 0.931 . S
H394 C373 0.934 . S
H395 C374 0.930 . S
Ho396 C399 2.811 . S
Ho396 O416 2.322 . S
Ho396 O418 2.378 . S
Ho396 O419 2.524 . S
Ho396 O420 2.381 . S
Ho396 O421 2.669 . S
Ho396 O423 2.346 . S
Ho396 O427 2.305 . S
Ho397 C408 2.811 . S
Ho397 O417 2.346 . S
Ho397 O421 2.305 . S
Ho397 O422 2.322 . S
Ho397 O424 2.378 . S
Ho397 O425 2.524 . S
Ho397 O426 2.381 . S
Ho397 O427 2.669 . S
C398 O416 1.259 . S
C398 O417 1.268 . S
C399 Ho396 2.811 . S
C399 C400 1.488 . S
C399 O418 1.215 . S
C399 O419 1.289 . S
C400 C399 1.488 . S
C400 C401 1.348 . S
C400 C405 1.413 . S
C401 C400 1.348 . S
C401 C402 1.442 . S
C401 H428 0.930 . S
C402 C401 1.442 . S
C402 C403 1.381 . S
C402 H429 0.931 . S
C403 C402 1.381 . S
C403 C404 1.321 . S
C404 C403 1.321 . S
C404 C405 1.403 . S
C404 H430 0.934 . S
C405 C400 1.413 . S
C405 C404 1.403 . S
C405 H431 0.930 . S
C406 O420 1.275 . S
C406 O421 1.256 . S
C407 O422 1.259 . S
C407 O423 1.268 . S
C408 Ho397 2.811 . S
C408 C409 1.488 . S
C408 O424 1.215 . S
C408 O425 1.289 . S
C409 C408 1.488 . S
C409 C410 1.348 . S
C409 C414 1.413 . S
C410 C409 1.348 . S
C410 C411 1.442 . S
C410 H432 0.930 . S
C411 C410 1.442 . S
C411 C412 1.381 . S
C411 H433 0.931 . S
C412 C411 1.381 . S
C412 C413 1.321 . S
C413 C412 1.321 . S
C413 C414 1.403 . S
C413 H434 0.934 . S
C414 C409 1.413 . S
C414 C413 1.403 . S
C414 H435 0.930 . S
C415 O426 1.275 . S
C415 O427 1.256 . S
O416 Ho396 2.322 . S
O416 C398 1.259 . S
O417 Ho397 2.346 . S
O417 C398 1.268 . S
O418 Ho396 2.378 . S
O418 C399 1.215 . S
O419 Ho396 2.524 . S
O419 C399 1.289 . S
O420 Ho396 2.381 . S
O420 C406 1.275 . S
O421 Ho396 2.669 . S
O421 Ho397 2.305 . S
O421 C406 1.256 . S
O422 Ho397 2.322 . S
O422 C407 1.259 . S
O423 Ho396 2.346 . S
O423 C407 1.268 . S
O424 Ho397 2.378 . S
O424 C408 1.215 . S
O425 Ho397 2.524 . S
O425 C408 1.289 . S
O426 Ho397 2.381 . S
O426 C415 1.275 . S
O427 Ho396 2.305 . S
O427 Ho397 2.669 . S
O427 C415 1.256 . S
H428 C401 0.930 . S
H429 C402 0.931 . S
H430 C404 0.934 . S
H431 C405 0.930 . S
H432 C410 0.930 . S
H433 C411 0.931 . S
H434 C413 0.934 . S
H435 C414 0.930 . S
Ho436 C439 2.811 . S
Ho436 O456 2.322 . S
Ho436 O458 2.378 . S
Ho436 O459 2.524 . S
Ho436 O460 2.381 . S
Ho436 O461 2.669 . S
Ho436 O463 2.346 . S
Ho436 O467 2.305 . S
Ho437 C448 2.811 . S
Ho437 O457 2.346 . S
Ho437 O461 2.305 . S
Ho437 O462 2.322 . S
Ho437 O464 2.378 . S
Ho437 O465 2.524 . S
Ho437 O466 2.381 . S
Ho437 O467 2.669 . S
C438 O456 1.259 . S
C438 O457 1.268 . S
C439 Ho436 2.811 . S
C439 C440 1.488 . S
C439 O458 1.215 . S
C439 O459 1.289 . S
C440 C439 1.488 . S
C440 C441 1.348 . S
C440 C445 1.413 . S
C441 C440 1.348 . S
C441 C442 1.442 . S
C441 H468 0.930 . S
C442 C441 1.442 . S
C442 C443 1.381 . S
C442 H469 0.931 . S
C443 C442 1.381 . S
C443 C444 1.321 . S
C444 C443 1.321 . S
C444 C445 1.403 . S
C444 H470 0.934 . S
C445 C440 1.413 . S
C445 C444 1.403 . S
C445 H471 0.930 . S
C446 O460 1.275 . S
C446 O461 1.256 . S
C447 O462 1.259 . S
C447 O463 1.268 . S
C448 Ho437 2.811 . S
C448 C449 1.488 . S
C448 O464 1.215 . S
C448 O465 1.289 . S
C449 C448 1.488 . S
C449 C450 1.348 . S
C449 C454 1.413 . S
C450 C449 1.348 . S
C450 C451 1.442 . S
C450 H472 0.930 . S
C451 C450 1.442 . S
C451 C452 1.381 . S
C451 H473 0.931 . S
C452 C451 1.381 . S
C452 C453 1.321 . S
C453 C452 1.321 . S
C453 C454 1.403 . S
C453 H474 0.934 . S
C454 C449 1.413 . S
C454 C453 1.403 . S
C454 H475 0.930 . S
C455 O466 1.275 . S
C455 O467 1.256 . S
O456 Ho436 2.322 . S
O456 C438 1.259 . S
O457 Ho437 2.346 . S
O457 C438 1.268 . S
O458 Ho436 2.378 . S
O458 C439 1.215 . S
O459 Ho436 2.524 . S
O459 C439 1.289 . S
O460 Ho436 2.381 . S
O460 C446 1.275 . S
O461 Ho436 2.669 . S
O461 Ho437 2.305 . S
O461 C446 1.256 . S
O462 Ho437 2.322 . S
O462 C447 1.259 . S
O463 Ho436 2.346 . S
O463 C447 1.268 . S
O464 Ho437 2.378 . S
O464 C448 1.215 . S
O465 Ho437 2.524 . S
O465 C448 1.289 . S
O466 Ho437 2.381 . S
O466 C455 1.275 . S
O467 Ho436 2.305 . S
O467 Ho437 2.669 . S
O467 C455 1.256 . S
H468 C441 0.930 . S
H469 C442 0.931 . S
H470 C444 0.934 . S
H471 C445 0.930 . S
H472 C450 0.930 . S
H473 C451 0.931 . S
H474 C453 0.934 . S
H475 C454 0.930 . S
Ho476 C479 2.811 . S
Ho476 O496 2.322 . S
Ho476 O498 2.378 . S
Ho476 O499 2.524 . S
Ho476 O500 2.381 . S
Ho476 O501 2.669 . S
Ho476 O503 2.346 . S
Ho476 O507 2.305 . S
Ho477 C488 2.811 . S
Ho477 O497 2.346 . S
Ho477 O501 2.305 . S
Ho477 O502 2.322 . S
Ho477 O504 2.378 . S
Ho477 O505 2.524 . S
Ho477 O506 2.381 . S
Ho477 O507 2.669 . S
C478 O496 1.259 . S
C478 O497 1.268 . S
C479 Ho476 2.811 . S
C479 C480 1.488 . S
C479 O498 1.215 . S
C479 O499 1.289 . S
C480 C479 1.488 . S
C480 C481 1.348 . S
C480 C485 1.413 . S
C481 C480 1.348 . S
C481 C482 1.442 . S
C481 H508 0.930 . S
C482 C481 1.442 . S
C482 C483 1.381 . S
C482 H509 0.931 . S
C483 C482 1.381 . S
C483 C484 1.321 . S
C484 C483 1.321 . S
C484 C485 1.403 . S
C484 H510 0.934 . S
C485 C480 1.413 . S
C485 C484 1.403 . S
C485 H511 0.930 . S
C486 O500 1.275 . S
C486 O501 1.256 . S
C487 O502 1.259 . S
C487 O503 1.268 . S
C488 Ho477 2.811 . S
C488 C489 1.488 . S
C488 O504 1.215 . S
C488 O505 1.289 . S
C489 C488 1.488 . S
C489 C490 1.348 . S
C489 C494 1.413 . S
C490 C489 1.348 . S
C490 C491 1.442 . S
C490 H512 0.930 . S
C491 C490 1.442 . S
C491 C492 1.381 . S
C491 H513 0.931 . S
C492 C491 1.381 . S
C492 C493 1.321 . S
C493 C492 1.321 . S
C493 C494 1.403 . S
C493 H514 0.934 . S
C494 C489 1.413 . S
C494 C493 1.403 . S
C494 H515 0.930 . S
C495 O506 1.275 . S
C495 O507 1.256 . S
O496 Ho476 2.322 . S
O496 C478 1.259 . S
O497 Ho477 2.346 . S
O497 C478 1.268 . S
O498 Ho476 2.378 . S
O498 C479 1.215 . S
O499 Ho476 2.524 . S
O499 C479 1.289 . S
O500 Ho476 2.381 . S
O500 C486 1.275 . S
O501 Ho476 2.669 . S
O501 Ho477 2.305 . S
O501 C486 1.256 . S
O502 Ho477 2.322 . S
O502 C487 1.259 . S
O503 Ho476 2.346 . S
O503 C487 1.268 . S
O504 Ho477 2.378 . S
O504 C488 1.215 . S
O505 Ho477 2.524 . S
O505 C488 1.289 . S
O506 Ho477 2.381 . S
O506 C495 1.275 . S
O507 Ho476 2.305 . S
O507 Ho477 2.669 . S
O507 C495 1.256 . S
H508 C481 0.930 . S
H509 C482 0.931 . S
H510 C484 0.934 . S
H511 C485 0.930 . S
H512 C490 0.930 . S
H513 C491 0.931 . S
H514 C493 0.934 . S
H515 C494 0.930 . S
Ho516 C519 2.811 . S
Ho516 O536 2.322 . S
Ho516 O538 2.378 . S
Ho516 O539 2.524 . S
Ho516 O540 2.381 . S
Ho516 O541 2.669 . S
Ho516 O543 2.346 . S
Ho516 O547 2.305 . S
Ho517 C528 2.811 . S
Ho517 O537 2.346 . S
Ho517 O541 2.305 . S
Ho517 O542 2.322 . S
Ho517 O544 2.378 . S
Ho517 O545 2.524 . S
Ho517 O546 2.381 . S
Ho517 O547 2.669 . S
C518 O536 1.259 . S
C518 O537 1.268 . S
C519 Ho516 2.811 . S
C519 C520 1.488 . S
C519 O538 1.215 . S
C519 O539 1.289 . S
C520 C519 1.488 . S
C520 C521 1.348 . S
C520 C525 1.413 . S
C521 C520 1.348 . S
C521 C522 1.442 . S
C521 H548 0.930 . S
C522 C521 1.442 . S
C522 C523 1.381 . S
C522 H549 0.931 . S
C523 C522 1.381 . S
C523 C524 1.321 . S
C524 C523 1.321 . S
C524 C525 1.403 . S
C524 H550 0.934 . S
C525 C520 1.413 . S
C525 C524 1.403 . S
C525 H551 0.930 . S
C526 O540 1.275 . S
C526 O541 1.256 . S
C527 O542 1.259 . S
C527 O543 1.268 . S
C528 Ho517 2.811 . S
C528 C529 1.488 . S
C528 O544 1.215 . S
C528 O545 1.289 . S
C529 C528 1.488 . S
C529 C530 1.348 . S
C529 C534 1.413 . S
C530 C529 1.348 . S
C530 C531 1.442 . S
C530 H552 0.930 . S
C531 C530 1.442 . S
C531 C532 1.381 . S
C531 H553 0.931 . S
C532 C531 1.381 . S
C532 C533 1.321 . S
C533 C532 1.321 . S
C533 C534 1.403 . S
C533 H554 0.934 . S
C534 C529 1.413 . S
C534 C533 1.403 . S
C534 H555 0.930 . S
C535 O546 1.275 . S
C535 O547 1.256 . S
O536 Ho516 2.322 . S
O536 C518 1.259 . S
O537 Ho517 2.346 . S
O537 C518 1.268 . S
O538 Ho516 2.378 . S
O538 C519 1.215 . S
O539 Ho516 2.524 . S
O539 C519 1.289 . S
O540 Ho516 2.381 . S
O540 C526 1.275 . S
O541 Ho516 2.669 . S
O541 Ho517 2.305 . S
O541 C526 1.256 . S
O542 Ho517 2.322 . S
O542 C527 1.259 . S
O543 Ho516 2.346 . S
O543 C527 1.268 . S
O544 Ho517 2.378 . S
O544 C528 1.215 . S
O545 Ho517 2.524 . S
O545 C528 1.289 . S
O546 Ho517 2.381 . S
O546 C535 1.275 . S
O547 Ho516 2.305 . S
O547 Ho517 2.669 . S
O547 C535 1.256 . S
H548 C521 0.930 . S
H549 C522 0.931 . S
H550 C524 0.934 . S
H551 C525 0.930 . S
H552 C530 0.930 . S
H553 C531 0.931 . S
H554 C533 0.934 . S
H555 C534 0.930 . S
Ho556 C559 2.811 . S
Ho556 O576 2.322 . S
Ho556 O578 2.378 . S
Ho556 O579 2.524 . S
Ho556 O580 2.381 . S
Ho556 O581 2.669 . S
Ho556 O583 2.346 . S
Ho556 O587 2.305 . S
Ho557 C568 2.811 . S
Ho557 O577 2.346 . S
Ho557 O581 2.305 . S
Ho557 O582 2.322 . S
Ho557 O584 2.378 . S
Ho557 O585 2.524 . S
Ho557 O586 2.381 . S
Ho557 O587 2.669 . S
C558 O576 1.259 . S
C558 O577 1.268 . S
C559 Ho556 2.811 . S
C559 C560 1.488 . S
C559 O578 1.215 . S
C559 O579 1.289 . S
C560 C559 1.488 . S
C560 C561 1.348 . S
C560 C565 1.413 . S
C561 C560 1.348 . S
C561 C562 1.442 . S
C561 H588 0.930 . S
C562 C561 1.442 . S
C562 C563 1.381 . S
C562 H589 0.931 . S
C563 C562 1.381 . S
C563 C564 1.321 . S
C564 C563 1.321 . S
C564 C565 1.403 . S
C564 H590 0.934 . S
C565 C560 1.413 . S
C565 C564 1.403 . S
C565 H591 0.930 . S
C566 O580 1.275 . S
C566 O581 1.256 . S
C567 O582 1.259 . S
C567 O583 1.268 . S
C568 Ho557 2.811 . S
C568 C569 1.488 . S
C568 O584 1.215 . S
C568 O585 1.289 . S
C569 C568 1.488 . S
C569 C570 1.348 . S
C569 C574 1.413 . S
C570 C569 1.348 . S
C570 C571 1.442 . S
C570 H592 0.930 . S
C571 C570 1.442 . S
C571 C572 1.381 . S
C571 H593 0.931 . S
C572 C571 1.381 . S
C572 C573 1.321 . S
C573 C572 1.321 . S
C573 C574 1.403 . S
C573 H594 0.934 . S
C574 C569 1.413 . S
C574 C573 1.403 . S
C574 H595 0.930 . S
C575 O586 1.275 . S
C575 O587 1.256 . S
O576 Ho556 2.322 . S
O576 C558 1.259 . S
O577 Ho557 2.346 . S
O577 C558 1.268 . S
O578 Ho556 2.378 . S
O578 C559 1.215 . S
O579 Ho556 2.524 . S
O579 C559 1.289 . S
O580 Ho556 2.381 . S
O580 C566 1.275 . S
O581 Ho556 2.669 . S
O581 Ho557 2.305 . S
O581 C566 1.256 . S
O582 Ho557 2.322 . S
O582 C567 1.259 . S
O583 Ho556 2.346 . S
O583 C567 1.268 . S
O584 Ho557 2.378 . S
O584 C568 1.215 . S
O585 Ho557 2.524 . S
O585 C568 1.289 . S
O586 Ho557 2.381 . S
O586 C575 1.275 . S
O587 Ho556 2.305 . S
O587 Ho557 2.669 . S
O587 C575 1.256 . S
H588 C561 0.930 . S
H589 C562 0.931 . S
H590 C564 0.934 . S
H591 C565 0.930 . S
H592 C570 0.930 . S
H593 C571 0.931 . S
H594 C573 0.934 . S
H595 C574 0.930 . S
C596 C597 1.349 . S
C596 C598 1.327 . S
C596 H621 0.950 . S
C597 C596 1.349 . S
C597 C613 1.349 . S
C598 C596 1.327 . S
C598 C617 1.429 . S
C598 H622 0.950 . S
C599 C616 1.574 . S
C599 C618 1.368 . S
C599 H623 0.949 . S
H600 C604 0.949 . S
C601 C602 1.349 . S
C601 C603 1.327 . S
C601 H624 0.950 . S
C602 C601 1.349 . S
C602 C614 1.349 . S
C603 C601 1.327 . S
C603 C619 1.429 . S
C603 H625 0.950 . S
C604 H600 0.949 . S
C604 C612 1.574 . S
C604 C620 1.368 . S
H605 C613 0.950 . S
H606 C611 0.950 . S
H607 C612 0.949 . S
H608 C614 0.950 . S
H609 C615 0.950 . S
H610 C616 0.949 . S
C611 H606 0.950 . S
C611 C613 1.327 . S
C611 C617 1.429 . S
C612 C604 1.574 . S
C612 H607 0.949 . S
C612 C618 1.368 . S
C613 C597 1.349 . S
C613 H605 0.950 . S
C613 C611 1.327 . S
C614 C602 1.349 . S
C614 H608 0.950 . S
C614 C615 1.327 . S
C615 H609 0.950 . S
C615 C614 1.327 . S
C615 C619 1.429 . S
C616 C599 1.574 . S
C616 H610 0.949 . S
C616 C620 1.368 . S
C617 C598 1.429 . S
C617 C611 1.429 . S
C617 C618 1.523 . S
C618 C599 1.368 . S
C618 C612 1.368 . S
C618 C617 1.523 . S
C619 C603 1.429 . S
C619 C615 1.429 . S
C619 C620 1.523 . S
C620 C604 1.368 . S
C620 C616 1.368 . S
C620 C619 1.523 . S
H621 C596 0.950 . S
H622 C598 0.950 . S
H623 C599 0.949 . S
H624 C601 0.950 . S
H625 C603 0.950 . S
C626 C627 1.349 . S
C626 C628 1.327 . S
C626 H651 0.950 . S
C627 C626 1.349 . S
C627 C643 1.349 . S
C628 C626 1.327 . S
C628 C647 1.429 . S
C628 H652 0.950 . S
C629 C646 1.574 . S
C629 C648 1.368 . S
C629 H653 0.949 . S
H630 C634 0.949 . S
C631 C632 1.349 . S
C631 C633 1.327 . S
C631 H654 0.950 . S
C632 C631 1.349 . S
C632 C644 1.349 . S
C633 C631 1.327 . S
C633 C649 1.429 . S
C633 H655 0.950 . S
C634 H630 0.949 . S
C634 C642 1.574 . S
C634 C650 1.368 . S
H635 C643 0.950 . S
H636 C641 0.950 . S
H637 C642 0.949 . S
H638 C644 0.950 . S
H639 C645 0.950 . S
H640 C646 0.949 . S
C641 H636 0.950 . S
C641 C643 1.327 . S
C641 C647 1.429 . S
C642 C634 1.574 . S
C642 H637 0.949 . S
C642 C648 1.368 . S
C643 C627 1.349 . S
C643 H635 0.950 . S
C643 C641 1.327 . S
C644 C632 1.349 . S
C644 H638 0.950 . S
C644 C645 1.327 . S
C645 H639 0.950 . S
C645 C644 1.327 . S
C645 C649 1.429 . S
C646 C629 1.574 . S
C646 H640 0.949 . S
C646 C650 1.368 . S
C647 C628 1.429 . S
C647 C641 1.429 . S
C647 C648 1.523 . S
C648 C629 1.368 . S
C648 C642 1.368 . S
C648 C647 1.523 . S
C649 C633 1.429 . S
C649 C645 1.429 . S
C649 C650 1.523 . S
C650 C634 1.368 . S
C650 C646 1.368 . S
C650 C649 1.523 . S
H651 C626 0.950 . S
H652 C628 0.950 . S
H653 C629 0.949 . S
H654 C631 0.950 . S
H655 C633 0.950 . S
C656 C657 1.349 . S
C656 C658 1.327 . S
C656 H681 0.950 . S
C657 C656 1.349 . S
C657 C673 1.349 . S
C658 C656 1.327 . S
C658 C677 1.429 . S
C658 H682 0.950 . S
C659 C676 1.574 . S
C659 C678 1.368 . S
C659 H683 0.949 . S
H660 C664 0.949 . S
C661 C662 1.349 . S
C661 C663 1.327 . S
C661 H684 0.950 . S
C662 C661 1.349 . S
C662 C674 1.349 . S
C663 C661 1.327 . S
C663 C679 1.429 . S
C663 H685 0.950 . S
C664 H660 0.949 . S
C664 C672 1.574 . S
C664 C680 1.368 . S
H665 C673 0.950 . S
H666 C671 0.950 . S
H667 C672 0.949 . S
H668 C674 0.950 . S
H669 C675 0.950 . S
H670 C676 0.949 . S
C671 H666 0.950 . S
C671 C673 1.327 . S
C671 C677 1.429 . S
C672 C664 1.574 . S
C672 H667 0.949 . S
C672 C678 1.368 . S
C673 C657 1.349 . S
C673 H665 0.950 . S
C673 C671 1.327 . S
C674 C662 1.349 . S
C674 H668 0.950 . S
C674 C675 1.327 . S
C675 H669 0.950 . S
C675 C674 1.327 . S
C675 C679 1.429 . S
C676 C659 1.574 . S
C676 H670 0.949 . S
C676 C680 1.368 . S
C677 C658 1.429 . S
C677 C671 1.429 . S
C677 C678 1.523 . S
C678 C659 1.368 . S
C678 C672 1.368 . S
C678 C677 1.523 . S
C679 C663 1.429 . S
C679 C675 1.429 . S
C679 C680 1.523 . S
C680 C664 1.368 . S
C680 C676 1.368 . S
C680 C679 1.523 . S
H681 C656 0.950 . S
H682 C658 0.950 . S
H683 C659 0.949 . S
H684 C661 0.950 . S
H685 C663 0.950 . S
C686 C687 1.349 . S
C686 C688 1.327 . S
C686 H711 0.950 . S
C687 C686 1.349 . S
C687 C703 1.349 . S
C688 C686 1.327 . S
C688 C707 1.429 . S
C688 H712 0.950 . S
C689 C706 1.574 . S
C689 C708 1.368 . S
C689 H713 0.949 . S
H690 C694 0.949 . S
C691 C692 1.349 . S
C691 C693 1.327 . S
C691 H714 0.950 . S
C692 C691 1.349 . S
C692 C704 1.349 . S
C693 C691 1.327 . S
C693 C709 1.429 . S
C693 H715 0.950 . S
C694 H690 0.949 . S
C694 C702 1.574 . S
C694 C710 1.368 . S
H695 C703 0.950 . S
H696 C701 0.950 . S
H697 C702 0.949 . S
H698 C704 0.950 . S
H699 C705 0.950 . S
H700 C706 0.949 . S
C701 H696 0.950 . S
C701 C703 1.327 . S
C701 C707 1.429 . S
C702 C694 1.574 . S
C702 H697 0.949 . S
C702 C708 1.368 . S
C703 C687 1.349 . S
C703 H695 0.950 . S
C703 C701 1.327 . S
C704 C692 1.349 . S
C704 H698 0.950 . S
C704 C705 1.327 . S
C705 H699 0.950 . S
C705 C704 1.327 . S
C705 C709 1.429 . S
C706 C689 1.574 . S
C706 H700 0.949 . S
C706 C710 1.368 . S
C707 C688 1.429 . S
C707 C701 1.429 . S
C707 C708 1.523 . S
C708 C689 1.368 . S
C708 C702 1.368 . S
C708 C707 1.523 . S
C709 C693 1.429 . S
C709 C705 1.429 . S
C709 C710 1.523 . S
C710 C694 1.368 . S
C710 C706 1.368 . S
C710 C709 1.523 . S
H711 C686 0.950 . S
H712 C688 0.950 . S
H713 C689 0.949 . S
H714 C691 0.950 . S
H715 C693 0.950 . S
C716 C717 1.349 . S
C716 C718 1.327 . S
C716 H741 0.950 . S
C717 C716 1.349 . S
C717 C733 1.349 . S
C718 C716 1.327 . S
C718 C737 1.429 . S
C718 H742 0.950 . S
C719 C736 1.574 . S
C719 C738 1.368 . S
C719 H743 0.949 . S
H720 C724 0.949 . S
C721 C722 1.349 . S
C721 C723 1.327 . S
C721 H744 0.950 . S
C722 C721 1.349 . S
C722 C734 1.349 . S
C723 C721 1.327 . S
C723 C739 1.429 . S
C723 H745 0.950 . S
C724 H720 0.949 . S
C724 C732 1.574 . S
C724 C740 1.368 . S
H725 C733 0.950 . S
H726 C731 0.950 . S
H727 C732 0.949 . S
H728 C734 0.950 . S
H729 C735 0.950 . S
H730 C736 0.949 . S
C731 H726 0.950 . S
C731 C733 1.327 . S
C731 C737 1.429 . S
C732 C724 1.574 . S
C732 H727 0.949 . S
C732 C738 1.368 . S
C733 C717 1.349 . S
C733 H725 0.950 . S
C733 C731 1.327 . S
C734 C722 1.349 . S
C734 H728 0.950 . S
C734 C735 1.327 . S
C735 H729 0.950 . S
C735 C734 1.327 . S
C735 C739 1.429 . S
C736 C719 1.574 . S
C736 H730 0.949 . S
C736 C740 1.368 . S
C737 C718 1.429 . S
C737 C731 1.429 . S
C737 C738 1.523 . S
C738 C719 1.368 . S
C738 C732 1.368 . S
C738 C737 1.523 . S
C739 C723 1.429 . S
C739 C735 1.429 . S
C739 C740 1.523 . S
C740 C724 1.368 . S
C740 C736 1.368 . S
C740 C739 1.523 . S
H741 C716 0.950 . S
H742 C718 0.950 . S
H743 C719 0.949 . S
H744 C721 0.950 . S
H745 C723 0.950 . S
C746 C747 1.349 . S
C746 C748 1.327 . S
C746 H771 0.950 . S
C747 C746 1.349 . S
C747 C763 1.349 . S
C748 C746 1.327 . S
C748 C767 1.429 . S
C748 H772 0.950 . S
C749 C766 1.574 . S
C749 C768 1.368 . S
C749 H773 0.949 . S
H750 C754 0.949 . S
C751 C752 1.349 . S
C751 C753 1.327 . S
C751 H774 0.950 . S
C752 C751 1.349 . S
C752 C764 1.349 . S
C753 C751 1.327 . S
C753 C769 1.429 . S
C753 H775 0.950 . S
C754 H750 0.949 . S
C754 C762 1.574 . S
C754 C770 1.368 . S
H755 C763 0.950 . S
H756 C761 0.950 . S
H757 C762 0.949 . S
H758 C764 0.950 . S
H759 C765 0.950 . S
H760 C766 0.949 . S
C761 H756 0.950 . S
C761 C763 1.327 . S
C761 C767 1.429 . S
C762 C754 1.574 . S
C762 H757 0.949 . S
C762 C768 1.368 . S
C763 C747 1.349 . S
C763 H755 0.950 . S
C763 C761 1.327 . S
C764 C752 1.349 . S
C764 H758 0.950 . S
C764 C765 1.327 . S
C765 H759 0.950 . S
C765 C764 1.327 . S
C765 C769 1.429 . S
C766 C749 1.574 . S
C766 H760 0.949 . S
C766 C770 1.368 . S
C767 C748 1.429 . S
C767 C761 1.429 . S
C767 C768 1.523 . S
C768 C749 1.368 . S
C768 C762 1.368 . S
C768 C767 1.523 . S
C769 C753 1.429 . S
C769 C765 1.429 . S
C769 C770 1.523 . S
C770 C754 1.368 . S
C770 C766 1.368 . S
C770 C769 1.523 . S
H771 C746 0.950 . S
H772 C748 0.950 . S
H773 C749 0.949 . S
H774 C751 0.950 . S
H775 C753 0.950 . S
C776 C777 1.349 . S
C776 C778 1.327 . S
C776 H801 0.950 . S
C777 C776 1.349 . S
C777 C793 1.349 . S
C778 C776 1.327 . S
C778 C797 1.429 . S
C778 H802 0.950 . S
C779 C796 1.574 . S
C779 C798 1.368 . S
C779 H803 0.949 . S
H780 C784 0.949 . S
C781 C782 1.349 . S
C781 C783 1.327 . S
C781 H804 0.950 . S
C782 C781 1.349 . S
C782 C794 1.349 . S
C783 C781 1.327 . S
C783 C799 1.429 . S
C783 H805 0.950 . S
C784 H780 0.949 . S
C784 C792 1.574 . S
C784 C800 1.368 . S
H785 C793 0.950 . S
H786 C791 0.950 . S
H787 C792 0.949 . S
H788 C794 0.950 . S
H789 C795 0.950 . S
H790 C796 0.949 . S
C791 H786 0.950 . S
C791 C793 1.327 . S
C791 C797 1.429 . S
C792 C784 1.574 . S
C792 H787 0.949 . S
C792 C798 1.368 . S
C793 C777 1.349 . S
C793 H785 0.950 . S
C793 C791 1.327 . S
C794 C782 1.349 . S
C794 H788 0.950 . S
C794 C795 1.327 . S
C795 H789 0.950 . S
C795 C794 1.327 . S
C795 C799 1.429 . S
C796 C779 1.574 . S
C796 H790 0.949 . S
C796 C800 1.368 . S
C797 C778 1.429 . S
C797 C791 1.429 . S
C797 C798 1.523 . S
C798 C779 1.368 . S
C798 C792 1.368 . S
C798 C797 1.523 . S
C799 C783 1.429 . S
C799 C795 1.429 . S
C799 C800 1.523 . S
C800 C784 1.368 . S
C800 C796 1.368 . S
C800 C799 1.523 . S
H801 C776 0.950 . S
H802 C778 0.950 . S
H803 C779 0.949 . S
H804 C781 0.950 . S
H805 C783 0.950 . S
C806 C807 1.339 1_545 S
C806 C808 1.303 1_545 S
C806 H831 0.985 . S
C807 C806 1.339 1_565 S
C807 C823 1.349 . S
C808 C806 1.303 1_565 S
C808 C827 1.429 . S
C808 H832 0.950 . S
C809 C826 1.574 . S
C809 C828 1.368 . S
C809 H833 0.949 . S
H810 C814 0.949 . S
C811 C812 1.349 . S
C811 C813 1.327 . S
C811 H834 0.950 . S
C812 C811 1.349 . S
C812 C824 1.349 . S
C813 C811 1.327 . S
C813 C829 1.429 . S
C813 H835 0.950 . S
C814 H810 0.949 . S
C814 C822 1.574 . S
C814 C830 1.368 . S
H815 C823 0.950 . S
H816 C821 0.950 . S
H817 C822 0.949 . S
H818 C824 0.950 . S
H819 C825 0.950 . S
H820 C826 0.949 . S
C821 H816 0.950 . S
C821 C823 1.327 . S
C821 C827 1.429 . S
C822 C814 1.574 . S
C822 H817 0.949 . S
C822 C828 1.368 . S
C823 C807 1.349 . S
C823 H815 0.950 . S
C823 C821 1.327 . S
C824 C812 1.349 . S
C824 H818 0.950 . S
C824 C825 1.327 . S
C825 H819 0.950 . S
C825 C824 1.327 . S
C825 C829 1.429 . S
C826 C809 1.574 . S
C826 H820 0.949 . S
C826 C830 1.368 . S
C827 C808 1.429 . S
C827 C821 1.429 . S
C827 C828 1.523 . S
C828 C809 1.368 . S
C828 C822 1.368 . S
C828 C827 1.523 . S
C829 C813 1.429 . S
C829 C825 1.429 . S
C829 C830 1.523 . S
C830 C814 1.368 . S
C830 C826 1.368 . S
C830 C829 1.523 . S
H831 C806 0.985 . S
H832 C808 0.950 . S
H833 C809 0.949 . S
H834 C811 0.950 . S
H835 C813 0.950 . S
C836 C837 1.349 . S
C836 C838 1.327 . S
C836 H861 0.950 . S
C837 C836 1.349 . S
C837 C853 1.349 . S
C838 C836 1.327 . S
C838 C857 1.429 . S
C838 H862 0.950 . S
C839 C856 1.574 . S
C839 C858 1.368 . S
C839 H863 0.949 . S
H840 C844 0.949 . S
C841 C842 1.349 . S
C841 C843 1.327 . S
C841 H864 0.950 . S
C842 C841 1.349 . S
C842 C854 1.349 . S
C843 C841 1.327 . S
C843 C859 1.429 . S
C843 H865 0.950 . S
C844 H840 0.949 . S
C844 C852 1.574 . S
C844 C860 1.368 . S
H845 C853 0.950 . S
H846 C851 0.950 . S
H847 C852 0.949 . S
H848 C854 0.950 . S
H849 C855 0.950 . S
H850 C856 0.949 . S
C851 H846 0.950 . S
C851 C853 1.327 . S
C851 C857 1.429 . S
C852 C844 1.574 . S
C852 H847 0.949 . S
C852 C858 1.368 . S
C853 C837 1.349 . S
C853 H845 0.950 . S
C853 C851 1.327 . S
C854 C842 1.349 . S
C854 H848 0.950 . S
C854 C855 1.327 . S
C855 H849 0.950 . S
C855 C854 1.327 . S
C855 C859 1.429 . S
C856 C839 1.574 . S
C856 H850 0.949 . S
C856 C860 1.368 . S
C857 C838 1.429 . S
C857 C851 1.429 . S
C857 C858 1.523 . S
C858 C839 1.368 . S
C858 C852 1.368 . S
C858 C857 1.523 . S
C859 C843 1.429 . S
C859 C855 1.429 . S
C859 C860 1.523 . S
C860 C844 1.368 . S
C860 C856 1.368 . S
C860 C859 1.523 . S
H861 C836 0.950 . S
H862 C838 0.950 . S
H863 C839 0.949 . S
H864 C841 0.950 . S
H865 C843 0.950 . S
C866 C867 1.349 . S
C866 C868 1.327 . S
C866 H891 0.950 . S
C867 C866 1.349 . S
C867 C883 1.349 . S
C868 C866 1.327 . S
C868 C887 1.429 . S
C868 H892 0.950 . S
C869 C886 1.574 . S
C869 C888 1.368 . S
C869 H893 0.949 . S
H870 C874 0.949 . S
C871 C872 1.349 . S
C871 C873 1.327 . S
C871 H894 0.950 . S
C872 C871 1.349 . S
C872 C884 1.349 . S
C873 C871 1.327 . S
C873 C889 1.429 . S
C873 H895 0.950 . S
C874 H870 0.949 . S
C874 C882 1.574 . S
C874 C890 1.368 . S
H875 C883 0.950 . S
H876 C881 0.950 . S
H877 C882 0.949 . S
H878 C884 0.950 . S
H879 C885 0.950 . S
H880 C886 0.949 . S
C881 H876 0.950 . S
C881 C883 1.327 . S
C881 C887 1.429 . S
C882 C874 1.574 . S
C882 H877 0.949 . S
C882 C888 1.368 . S
C883 C867 1.349 . S
C883 H875 0.950 . S
C883 C881 1.327 . S
C884 C872 1.349 . S
C884 H878 0.950 . S
C884 C885 1.327 . S
C885 H879 0.950 . S
C885 C884 1.327 . S
C885 C889 1.429 . S
C886 C869 1.574 . S
C886 H880 0.949 . S
C886 C890 1.368 . S
C887 C868 1.429 . S
C887 C881 1.429 . S
C887 C888 1.523 . S
C888 C869 1.368 . S
C888 C882 1.368 . S
C888 C887 1.523 . S
C889 C873 1.429 . S
C889 C885 1.429 . S
C889 C890 1.523 . S
C890 C874 1.368 . S
C890 C886 1.368 . S
C890 C889 1.523 . S
H891 C866 0.950 . S
H892 C868 0.950 . S
H893 C869 0.949 . S
H894 C871 0.950 . S
H895 C873 0.950 . S
C896 C897 1.349 . S
C896 C898 1.327 . S
C896 H921 0.950 . S
C897 C896 1.349 . S
C897 C913 1.349 . S
C898 C896 1.327 . S
C898 C917 1.429 . S
C898 H922 0.950 . S
C899 C916 1.574 . S
C899 C918 1.368 . S
C899 H923 0.949 . S
H900 C904 0.949 . S
C901 C902 1.349 . S
C901 C903 1.327 . S
C901 H924 0.950 . S
C902 C901 1.349 . S
C902 C914 1.349 . S
C903 C901 1.327 . S
C903 C919 1.429 . S
C903 H925 0.950 . S
C904 H900 0.949 . S
C904 C912 1.574 . S
C904 C920 1.368 . S
H905 C913 0.950 . S
H906 C911 0.950 . S
H907 C912 0.949 . S
H908 C914 0.950 . S
H909 C915 0.950 . S
H910 C916 0.949 . S
C911 H906 0.950 . S
C911 C913 1.327 . S
C911 C917 1.429 . S
C912 C904 1.574 . S
C912 H907 0.949 . S
C912 C918 1.368 . S
C913 C897 1.349 . S
C913 H905 0.950 . S
C913 C911 1.327 . S
C914 C902 1.349 . S
C914 H908 0.950 . S
C914 C915 1.327 . S
C915 H909 0.950 . S
C915 C914 1.327 . S
C915 C919 1.429 . S
C916 C899 1.574 . S
C916 H910 0.949 . S
C916 C920 1.368 . S
C917 C898 1.429 . S
C917 C911 1.429 . S
C917 C918 1.523 . S
C918 C899 1.368 . S
C918 C912 1.368 . S
C918 C917 1.523 . S
C919 C903 1.429 . S
C919 C915 1.429 . S
C919 C920 1.523 . S
C920 C904 1.368 . S
C920 C916 1.368 . S
C920 C919 1.523 . S
H921 C896 0.950 . S
H922 C898 0.950 . S
H923 C899 0.949 . S
H924 C901 0.950 . S
H925 C903 0.950 . S
C926 C927 1.349 . S
C926 C928 1.327 . S
C926 H951 0.950 . S
C927 C926 1.349 . S
C927 C943 1.349 . S
C928 C926 1.327 . S
C928 C947 1.429 . S
C928 H952 0.950 . S
C929 C946 1.574 . S
C929 C948 1.368 . S
C929 H953 0.949 . S
H930 C934 0.949 . S
C931 C932 1.349 . S
C931 C933 1.327 . S
C931 H954 0.950 . S
C932 C931 1.349 . S
C932 C944 1.349 . S
C933 C931 1.327 . S
C933 C949 1.429 . S
C933 H955 0.950 . S
C934 H930 0.949 . S
C934 C942 1.574 . S
C934 C950 1.368 . S
H935 C943 0.950 . S
H936 C941 0.950 . S
H937 C942 0.949 . S
H938 C944 0.950 . S
H939 C945 0.950 . S
H940 C946 0.949 . S
C941 H936 0.950 . S
C941 C943 1.327 . S
C941 C947 1.429 . S
C942 C934 1.574 . S
C942 H937 0.949 . S
C942 C948 1.368 . S
C943 C927 1.349 . S
C943 H935 0.950 . S
C943 C941 1.327 . S
C944 C932 1.349 . S
C944 H938 0.950 . S
C944 C945 1.327 . S
C945 H939 0.950 . S
C945 C944 1.327 . S
C945 C949 1.429 . S
C946 C929 1.574 . S
C946 H940 0.949 . S
C946 C950 1.368 . S
C947 C928 1.429 . S
C947 C941 1.429 . S
C947 C948 1.523 . S
C948 C929 1.368 . S
C948 C942 1.368 . S
C948 C947 1.523 . S
C949 C933 1.429 . S
C949 C945 1.429 . S
C949 C950 1.523 . S
C950 C934 1.368 . S
C950 C946 1.368 . S
C950 C949 1.523 . S
H951 C926 0.950 . S
H952 C928 0.950 . S
H953 C929 0.949 . S
H954 C931 0.950 . S
H955 C933 0.950 . S
C956 C957 1.349 . S
C956 C958 1.327 . S
C956 H981 0.950 . S
C957 C956 1.349 . S
C957 C973 1.349 . S
C958 C956 1.327 . S
C958 C977 1.429 1_554 S
C958 H982 0.950 . S
C959 C976 1.574 . S
C959 C978 1.368 . S
C959 H983 0.949 . S
H960 C964 0.949 . S
C961 C962 1.349 . S
C961 C963 1.327 . S
C961 H984 0.950 . S
C962 C961 1.349 . S
C962 C974 1.349 . S
C963 C961 1.327 . S
C963 C979 1.429 . S
C963 H985 0.950 . S
C964 H960 0.949 . S
C964 C972 1.574 . S
C964 C980 1.368 . S
H965 C973 0.950 . S
H966 C971 0.950 . S
H967 C972 0.949 1_554 S
H968 C974 0.950 . S
H969 C975 0.950 . S
H970 C976 0.949 . S
C971 H966 0.950 . S
C971 C973 1.327 1_556 S
C971 C977 1.429 . S
C972 C964 1.574 . S
C972 H967 0.949 1_556 S
C972 C978 1.368 . S
C973 C957 1.349 . S
C973 H965 0.950 . S
C973 C971 1.327 1_554 S
C974 C962 1.349 . S
C974 H968 0.950 . S
C974 C975 1.327 . S
C975 H969 0.950 . S
C975 C974 1.327 . S
C975 C979 1.429 . S
C976 C959 1.574 . S
C976 H970 0.949 . S
C976 C980 1.368 . S
C977 C958 1.429 1_556 S
C977 C971 1.429 . S
C977 C978 1.523 . S
C978 C959 1.368 . S
C978 C972 1.368 . S
C978 C977 1.523 . S
C979 C963 1.429 . S
C979 C975 1.429 . S
C979 C980 1.523 . S
C980 C964 1.368 . S
C980 C976 1.368 . S
C980 C979 1.523 . S
H981 C956 0.950 . S
H982 C958 0.950 . S
H983 C959 0.949 . S
H984 C961 0.950 . S
H985 C963 0.950 . S
C986 C987 1.349 . S
C986 C988 1.327 . S
C986 H1011 0.950 . S
C987 C986 1.349 . S
C987 C1003 1.349 . S
C988 C986 1.327 . S
C988 C1007 1.429 . S
C988 H1012 0.950 . S
C989 C1006 1.574 . S
C989 C1008 1.368 . S
C989 H1013 0.949 . S
H990 C994 0.949 . S
C991 C992 1.349 . S
C991 C993 1.327 . S
C991 H1014 0.950 . S
C992 C991 1.349 . S
C992 C1004 1.349 . S
C993 C991 1.327 . S
C993 C1009 1.429 . S
C993 H1015 0.950 . S
C994 H990 0.949 . S
C994 C1002 1.574 . S
C994 C1010 1.368 . S
H995 C1003 0.950 . S
H996 C1001 0.950 . S
H997 C1002 0.949 . S
H998 C1004 0.950 . S
H999 C1005 0.950 . S
H1000 C1006 0.949 . S
C1001 H996 0.950 . S
C1001 C1003 1.327 . S
C1001 C1007 1.429 . S
C1002 C994 1.574 . S
C1002 H997 0.949 . S
C1002 C1008 1.368 . S
C1003 C987 1.349 . S
C1003 H995 0.950 . S
C1003 C1001 1.327 . S
C1004 C992 1.349 . S
C1004 H998 0.950 . S
C1004 C1005 1.327 . S
C1005 H999 0.950 . S
C1005 C1004 1.327 . S
C1005 C1009 1.429 . S
C1006 C989 1.574 . S
C1006 H1000 0.949 . S
C1006 C1010 1.368 . S
C1007 C988 1.429 . S
C1007 C1001 1.429 . S
C1007 C1008 1.523 . S
C1008 C989 1.368 . S
C1008 C1002 1.368 . S
C1008 C1007 1.523 . S
C1009 C993 1.429 . S
C1009 C1005 1.429 . S
C1009 C1010 1.523 . S
C1010 C994 1.368 . S
C1010 C1006 1.368 . S
C1010 C1009 1.523 . S
H1011 C986 0.950 . S
H1012 C988 0.950 . S
H1013 C989 0.949 . S
H1014 C991 0.950 . S
H1015 C993 0.950 . S
C1016 C1017 1.349 . S
C1016 C1018 1.327 . S
C1016 H1041 0.950 . S
C1017 C1016 1.349 . S
C1017 C1033 1.349 . S
C1018 C1016 1.327 . S
C1018 C1037 1.429 . S
C1018 H1042 0.950 . S
C1019 C1036 1.574 . S
C1019 C1038 1.368 . S
C1019 H1043 0.949 . S
H1020 C1024 0.949 . S
C1021 C1022 1.349 . S
C1021 C1023 1.327 . S
C1021 H1044 0.950 . S
C1022 C1021 1.349 . S
C1022 C1034 1.349 . S
C1023 C1021 1.327 . S
C1023 C1039 1.429 . S
C1023 H1045 0.950 . S
C1024 H1020 0.949 . S
C1024 C1032 1.574 . S
C1024 C1040 1.368 . S
H1025 C1033 0.950 . S
H1026 C1031 0.950 . S
H1027 C1032 0.949 . S
H1028 C1034 0.950 . S
H1029 C1035 0.950 . S
H1030 C1036 0.949 . S
C1031 H1026 0.950 . S
C1031 C1033 1.327 . S
C1031 C1037 1.429 . S
C1032 C1024 1.574 . S
C1032 H1027 0.949 . S
C1032 C1038 1.368 . S
C1033 C1017 1.349 . S
C1033 H1025 0.950 . S
C1033 C1031 1.327 . S
C1034 C1022 1.349 . S
C1034 H1028 0.950 . S
C1034 C1035 1.327 . S
C1035 H1029 0.950 . S
C1035 C1034 1.327 . S
C1035 C1039 1.429 . S
C1036 C1019 1.574 . S
C1036 H1030 0.949 . S
C1036 C1040 1.368 . S
C1037 C1018 1.429 . S
C1037 C1031 1.429 . S
C1037 C1038 1.523 . S
C1038 C1019 1.368 . S
C1038 C1032 1.368 . S
C1038 C1037 1.523 . S
C1039 C1023 1.429 . S
C1039 C1035 1.429 . S
C1039 C1040 1.523 . S
C1040 C1024 1.368 . S
C1040 C1036 1.368 . S
C1040 C1039 1.523 . S
H1041 C1016 0.950 . S
H1042 C1018 0.950 . S
H1043 C1019 0.949 . S
H1044 C1021 0.950 . S
H1045 C1023 0.950 . S
C1046 C1047 1.349 . S
C1046 C1048 1.327 . S
C1046 H1071 0.950 . S
C1047 C1046 1.349 . S
C1047 C1063 1.349 . S
C1048 C1046 1.327 . S
C1048 C1067 1.429 . S
C1048 H1072 0.950 . S
C1049 C1066 1.574 . S
C1049 C1068 1.368 . S
C1049 H1073 0.949 . S
H1050 C1054 0.949 . S
C1051 C1052 1.349 . S
C1051 C1053 1.327 . S
C1051 H1074 0.950 . S
C1052 C1051 1.349 . S
C1052 C1064 1.349 . S
C1053 C1051 1.327 . S
C1053 C1069 1.429 . S
C1053 H1075 0.950 . S
C1054 H1050 0.949 . S
C1054 C1062 1.574 . S
C1054 C1070 1.368 . S
H1055 C1063 0.950 . S
H1056 C1061 0.950 . S
H1057 C1062 0.949 . S
H1058 C1064 0.950 . S
H1059 C1065 0.950 . S
H1060 C1066 0.949 . S
C1061 H1056 0.950 . S
C1061 C1063 1.327 . S
C1061 C1067 1.429 . S
C1062 C1054 1.574 . S
C1062 H1057 0.949 . S
C1062 C1068 1.368 . S
C1063 C1047 1.349 . S
C1063 H1055 0.950 . S
C1063 C1061 1.327 . S
C1064 C1052 1.349 . S
C1064 H1058 0.950 . S
C1064 C1065 1.327 . S
C1065 H1059 0.950 . S
C1065 C1064 1.327 . S
C1065 C1069 1.429 . S
C1066 C1049 1.574 . S
C1066 H1060 0.949 . S
C1066 C1070 1.368 . S
C1067 C1048 1.429 . S
C1067 C1061 1.429 . S
C1067 C1068 1.523 . S
C1068 C1049 1.368 . S
C1068 C1062 1.368 . S
C1068 C1067 1.523 . S
C1069 C1053 1.429 . S
C1069 C1065 1.429 . S
C1069 C1070 1.523 . S
C1070 C1054 1.368 . S
C1070 C1066 1.368 . S
C1070 C1069 1.523 . S
H1071 C1046 0.950 . S
H1072 C1048 0.950 . S
H1073 C1049 0.949 . S
H1074 C1051 0.950 . S
H1075 C1053 0.950 . S
C1076 C1077 1.349 . S
C1076 C1078 1.327 . S
C1076 H1101 0.950 . S
C1077 C1076 1.349 . S
C1077 C1093 1.349 . S
C1078 C1076 1.327 . S
C1078 C1097 1.429 . S
C1078 H1102 0.950 . S
C1079 C1096 1.574 . S
C1079 C1098 1.368 . S
C1079 H1103 0.949 . S
H1080 C1084 0.949 . S
C1081 C1082 1.349 . S
C1081 C1083 1.327 . S
C1081 H1104 0.950 . S
C1082 C1081 1.349 . S
C1082 C1094 1.349 . S
C1083 C1081 1.327 . S
C1083 C1099 1.429 . S
C1083 H1105 0.950 . S
C1084 H1080 0.949 . S
C1084 C1092 1.574 . S
C1084 C1100 1.368 . S
H1085 C1093 0.950 . S
H1086 C1091 0.950 . S
H1087 C1092 0.949 . S
H1088 C1094 0.950 . S
H1089 C1095 0.950 . S
H1090 C1096 0.949 . S
C1091 H1086 0.950 . S
C1091 C1093 1.327 . S
C1091 C1097 1.429 . S
C1092 C1084 1.574 . S
C1092 H1087 0.949 . S
C1092 C1098 1.368 . S
C1093 C1077 1.349 . S
C1093 H1085 0.950 . S
C1093 C1091 1.327 . S
C1094 C1082 1.349 . S
C1094 H1088 0.950 . S
C1094 C1095 1.327 . S
C1095 H1089 0.950 . S
C1095 C1094 1.327 . S
C1095 C1099 1.429 . S
C1096 C1079 1.574 . S
C1096 H1090 0.949 . S
C1096 C1100 1.368 . S
C1097 C1078 1.429 . S
C1097 C1091 1.429 . S
C1097 C1098 1.523 . S
C1098 C1079 1.368 . S
C1098 C1092 1.368 . S
C1098 C1097 1.523 . S
C1099 C1083 1.429 . S
C1099 C1095 1.429 . S
C1099 C1100 1.523 . S
C1100 C1084 1.368 . S
C1100 C1096 1.368 . S
C1100 C1099 1.523 . S
H1101 C1076 0.950 . S
H1102 C1078 0.950 . S
H1103 C1079 0.949 . S
H1104 C1081 0.950 . S
H1105 C1083 0.950 . S
C1106 C1107 1.349 . S
C1106 C1108 1.327 . S
C1106 H1131 0.950 . S
C1107 C1106 1.349 . S
C1107 C1123 1.349 . S
C1108 C1106 1.327 . S
C1108 C1127 1.429 . S
C1108 H1132 0.950 . S
C1109 C1126 1.574 . S
C1109 C1128 1.368 . S
C1109 H1133 0.949 . S
H1110 C1114 0.949 . S
C1111 C1112 1.349 . S
C1111 C1113 1.327 . S
C1111 H1134 0.950 . S
C1112 C1111 1.349 . S
C1112 C1124 1.349 . S
C1113 C1111 1.327 . S
C1113 C1129 1.429 . S
C1113 H1135 0.950 . S
C1114 H1110 0.949 . S
C1114 C1122 1.574 . S
C1114 C1130 1.368 . S
H1115 C1123 0.950 . S
H1116 C1121 0.950 . S
H1117 C1122 0.949 . S
H1118 C1124 0.950 . S
H1119 C1125 0.950 . S
H1120 C1126 0.949 . S
C1121 H1116 0.950 . S
C1121 C1123 1.327 . S
C1121 C1127 1.429 . S
C1122 C1114 1.574 . S
C1122 H1117 0.949 . S
C1122 C1128 1.368 . S
C1123 C1107 1.349 . S
C1123 H1115 0.950 . S
C1123 C1121 1.327 . S
C1124 C1112 1.349 . S
C1124 H1118 0.950 . S
C1124 C1125 1.327 . S
C1125 H1119 0.950 . S
C1125 C1124 1.327 . S
C1125 C1129 1.429 . S
C1126 C1109 1.574 . S
C1126 H1120 0.949 . S
C1126 C1130 1.368 . S
C1127 C1108 1.429 . S
C1127 C1121 1.429 . S
C1127 C1128 1.523 . S
C1128 C1109 1.368 . S
C1128 C1122 1.368 . S
C1128 C1127 1.523 . S
C1129 C1113 1.429 . S
C1129 C1125 1.429 . S
C1129 C1130 1.523 . S
C1130 C1114 1.368 . S
C1130 C1126 1.368 . S
C1130 C1129 1.523 . S
H1131 C1106 0.950 . S
H1132 C1108 0.950 . S
H1133 C1109 0.949 . S
H1134 C1111 0.950 . S
H1135 C1113 0.950 . S
C1136 C1137 1.349 1_556 S
C1136 C1138 1.327 . S
C1136 H1161 0.949 . S
C1137 C1136 1.349 1_554 S
C1137 C1153 1.349 . S
C1138 C1136 1.327 . S
C1138 C1157 1.429 . S
C1138 H1162 0.950 . S
C1139 C1156 1.574 . S
C1139 C1158 1.368 . S
C1139 H1163 0.949 . S
H1140 C1144 0.949 . S
C1141 C1142 1.349 . S
C1141 C1143 1.327 . S
C1141 H1164 0.950 . S
C1142 C1141 1.349 . S
C1142 C1154 1.349 . S
C1143 C1141 1.327 . S
C1143 C1159 1.429 . S
C1143 H1165 0.950 . S
C1144 H1140 0.949 . S
C1144 C1152 1.574 . S
C1144 C1160 1.368 . S
H1145 C1153 0.950 . S
H1146 C1151 0.950 . S
H1147 C1152 0.949 . S
H1148 C1154 0.950 . S
H1149 C1155 0.950 . S
H1150 C1156 0.949 . S
C1151 H1146 0.950 . S
C1151 C1153 1.327 1_556 S
C1151 C1157 1.429 . S
C1152 C1144 1.574 . S
C1152 H1147 0.949 . S
C1152 C1158 1.368 . S
C1153 C1137 1.349 . S
C1153 H1145 0.950 . S
C1153 C1151 1.327 1_554 S
C1154 C1142 1.349 . S
C1154 H1148 0.950 . S
C1154 C1155 1.327 . S
C1155 H1149 0.950 . S
C1155 C1154 1.327 . S
C1155 C1159 1.429 . S
C1156 C1139 1.574 . S
C1156 H1150 0.949 . S
C1156 C1160 1.368 . S
C1157 C1138 1.429 . S
C1157 C1151 1.429 . S
C1157 C1158 1.523 . S
C1158 C1139 1.368 . S
C1158 C1152 1.368 . S
C1158 C1157 1.523 . S
C1159 C1143 1.429 . S
C1159 C1155 1.429 . S
C1159 C1160 1.523 . S
C1160 C1144 1.368 . S
C1160 C1156 1.368 . S
C1160 C1159 1.523 . S
H1161 C1136 0.949 . S
H1162 C1138 0.950 . S
H1163 C1139 0.949 . S
H1164 C1141 0.950 . S
H1165 C1143 0.950 . S
C1166 C1167 1.349 . S
C1166 C1168 1.327 . S
C1166 H1191 0.950 . S
C1167 C1166 1.349 . S
C1167 C1183 1.349 1_554 S
C1168 C1166 1.327 . S
C1168 C1187 1.429 1_554 S
C1168 H1192 0.950 . S
C1169 C1186 1.574 . S
C1169 C1188 1.368 . S
C1169 H1193 0.949 . S
H1170 C1174 0.949 . S
C1171 C1172 1.349 . S
C1171 C1173 1.327 . S
C1171 H1194 0.950 . S
C1172 C1171 1.349 . S
C1172 C1184 1.349 . S
C1173 C1171 1.327 . S
C1173 C1189 1.429 . S
C1173 H1195 0.950 . S
C1174 H1170 0.949 . S
C1174 C1182 1.574 . S
C1174 C1190 1.368 . S
H1175 C1183 0.950 1_455 S
H1176 C1181 0.950 . S
H1177 C1182 0.949 1_554 S
H1178 C1184 0.950 . S
H1179 C1185 0.950 . S
H1180 C1186 0.949 . S
C1181 H1176 0.950 . S
C1181 C1183 1.327 . S
C1181 C1187 1.429 . S
C1182 C1174 1.574 . S
C1182 H1177 0.949 1_556 S
C1182 C1188 1.368 . S
C1183 C1167 1.349 1_556 S
C1183 H1175 0.950 1_655 S
C1183 C1181 1.327 . S
C1184 C1172 1.349 . S
C1184 H1178 0.950 . S
C1184 C1185 1.327 . S
C1185 H1179 0.950 . S
C1185 C1184 1.327 . S
C1185 C1189 1.429 . S
C1186 C1169 1.574 . S
C1186 H1180 0.949 . S
C1186 C1190 1.368 . S
C1187 C1168 1.429 1_556 S
C1187 C1181 1.429 . S
C1187 C1188 1.523 . S
C1188 C1169 1.368 . S
C1188 C1182 1.368 . S
C1188 C1187 1.523 . S
C1189 C1173 1.429 . S
C1189 C1185 1.429 . S
C1189 C1190 1.523 . S
C1190 C1174 1.368 . S
C1190 C1186 1.368 . S
C1190 C1189 1.523 . S
H1191 C1166 0.950 . S
H1192 C1168 0.950 . S
H1193 C1169 0.949 . S
H1194 C1171 0.950 . S
H1195 C1173 0.950 . S
C1196 C1197 1.349 . S
C1196 C1198 1.327 . S
C1196 H1221 0.950 . S
C1197 C1196 1.349 . S
C1197 C1213 1.349 . S
C1198 C1196 1.327 . S
C1198 C1217 1.429 . S
C1198 H1222 0.950 . S
C1199 C1216 1.574 . S
C1199 C1218 1.368 . S
C1199 H1223 0.949 . S
H1200 C1204 0.949 . S
C1201 C1202 1.349 . S
C1201 C1203 1.327 . S
C1201 H1224 0.950 . S
C1202 C1201 1.349 . S
C1202 C1214 1.349 . S
C1203 C1201 1.327 . S
C1203 C1219 1.429 . S
C1203 H1225 0.950 . S
C1204 H1200 0.949 . S
C1204 C1212 1.574 . S
C1204 C1220 1.368 . S
H1205 C1213 0.950 . S
H1206 C1211 0.950 . S
H1207 C1212 0.949 . S
H1208 C1214 0.950 . S
H1209 C1215 0.950 . S
H1210 C1216 0.949 . S
C1211 H1206 0.950 . S
C1211 C1213 1.327 . S
C1211 C1217 1.429 . S
C1212 C1204 1.574 . S
C1212 H1207 0.949 . S
C1212 C1218 1.368 . S
C1213 C1197 1.349 . S
C1213 H1205 0.950 . S
C1213 C1211 1.327 . S
C1214 C1202 1.349 . S
C1214 H1208 0.950 . S
C1214 C1215 1.327 . S
C1215 H1209 0.950 . S
C1215 C1214 1.327 . S
C1215 C1219 1.429 . S
C1216 C1199 1.574 . S
C1216 H1210 0.949 . S
C1216 C1220 1.368 . S
C1217 C1198 1.429 . S
C1217 C1211 1.429 . S
C1217 C1218 1.523 . S
C1218 C1199 1.368 . S
C1218 C1212 1.368 . S
C1218 C1217 1.523 . S
C1219 C1203 1.429 . S
C1219 C1215 1.429 . S
C1219 C1220 1.523 . S
C1220 C1204 1.368 . S
C1220 C1216 1.368 . S
C1220 C1219 1.523 . S
H1221 C1196 0.950 . S
H1222 C1198 0.950 . S
H1223 C1199 0.949 . S
H1224 C1201 0.950 . S
H1225 C1203 0.950 . S
C1226 C1227 1.349 . S
C1226 C1228 1.327 . S
C1226 H1251 0.950 . S
C1227 C1226 1.349 . S
C1227 C1243 1.349 . S
C1228 C1226 1.327 . S
C1228 C1247 1.429 . S
C1228 H1252 0.950 . S
C1229 C1246 1.574 . S
C1229 C1248 1.368 . S
C1229 H1253 0.949 . S
H1230 C1234 0.949 . S
C1231 C1232 1.349 . S
C1231 C1233 1.327 . S
C1231 H1254 0.950 . S
C1232 C1231 1.349 . S
C1232 C1244 1.349 . S
C1233 C1231 1.327 . S
C1233 C1249 1.429 . S
C1233 H1255 0.950 . S
C1234 H1230 0.949 . S
C1234 C1242 1.574 . S
C1234 C1250 1.368 . S
H1235 C1243 0.950 . S
H1236 C1241 0.950 . S
H1237 C1242 0.949 . S
H1238 C1244 0.950 . S
H1239 C1245 0.950 . S
H1240 C1246 0.949 . S
C1241 H1236 0.950 . S
C1241 C1243 1.327 . S
C1241 C1247 1.429 . S
C1242 C1234 1.574 . S
C1242 H1237 0.949 . S
C1242 C1248 1.368 . S
C1243 C1227 1.349 . S
C1243 H1235 0.950 . S
C1243 C1241 1.327 . S
C1244 C1232 1.349 . S
C1244 H1238 0.950 . S
C1244 C1245 1.327 . S
C1245 H1239 0.950 . S
C1245 C1244 1.327 . S
C1245 C1249 1.429 . S
C1246 C1229 1.574 . S
C1246 H1240 0.949 . S
C1246 C1250 1.368 . S
C1247 C1228 1.429 . S
C1247 C1241 1.429 . S
C1247 C1248 1.523 . S
C1248 C1229 1.368 . S
C1248 C1242 1.368 . S
C1248 C1247 1.523 . S
C1249 C1233 1.429 . S
C1249 C1245 1.429 . S
C1249 C1250 1.523 . S
C1250 C1234 1.368 . S
C1250 C1246 1.368 . S
C1250 C1249 1.523 . S
H1251 C1226 0.950 . S
H1252 C1228 0.950 . S
H1253 C1229 0.949 . S
H1254 C1231 0.950 . S
H1255 C1233 0.950 . S
C1256 C1257 1.349 . S
C1256 C1258 1.327 . S
C1256 H1281 0.950 . S
C1257 C1256 1.349 . S
C1257 C1273 1.349 . S
C1258 C1256 1.327 . S
C1258 C1277 1.429 . S
C1258 H1282 0.950 . S
C1259 C1276 1.574 . S
C1259 C1278 1.368 . S
C1259 H1283 0.949 . S
H1260 C1264 0.949 . S
C1261 C1262 1.349 . S
C1261 C1263 1.327 . S
C1261 H1284 0.950 . S
C1262 C1261 1.349 . S
C1262 C1274 1.349 . S
C1263 C1261 1.327 . S
C1263 C1279 1.429 . S
C1263 H1285 0.950 . S
C1264 H1260 0.949 . S
C1264 C1272 1.574 . S
C1264 C1280 1.368 . S
H1265 C1273 0.950 . S
H1266 C1271 0.950 . S
H1267 C1272 0.949 . S
H1268 C1274 0.950 . S
H1269 C1275 0.950 . S
H1270 C1276 0.949 . S
C1271 H1266 0.950 . S
C1271 C1273 1.327 . S
C1271 C1277 1.429 . S
C1272 C1264 1.574 . S
C1272 H1267 0.949 . S
C1272 C1278 1.368 . S
C1273 C1257 1.349 . S
C1273 H1265 0.950 . S
C1273 C1271 1.327 . S
C1274 C1262 1.349 . S
C1274 H1268 0.950 . S
C1274 C1275 1.327 . S
C1275 H1269 0.950 . S
C1275 C1274 1.327 . S
C1275 C1279 1.429 . S
C1276 C1259 1.574 . S
C1276 H1270 0.949 . S
C1276 C1280 1.368 . S
C1277 C1258 1.429 . S
C1277 C1271 1.429 . S
C1277 C1278 1.523 . S
C1278 C1259 1.368 . S
C1278 C1272 1.368 . S
C1278 C1277 1.523 . S
C1279 C1263 1.429 . S
C1279 C1275 1.429 . S
C1279 C1280 1.523 . S
C1280 C1264 1.368 . S
C1280 C1276 1.368 . S
C1280 C1279 1.523 . S
H1281 C1256 0.950 . S
H1282 C1258 0.950 . S
H1283 C1259 0.949 . S
H1284 C1261 0.950 . S
H1285 C1263 0.950 . S
C1286 C1287 1.349 . S
C1286 C1288 1.327 . S
C1286 H1311 0.950 . S
C1287 C1286 1.349 . S
C1287 C1303 1.349 . S
C1288 C1286 1.327 . S
C1288 C1307 1.429 . S
C1288 H1312 0.950 . S
C1289 C1306 1.574 . S
C1289 C1308 1.368 . S
C1289 H1313 0.949 . S
H1290 C1294 0.949 . S
C1291 C1292 1.349 . S
C1291 C1293 1.327 . S
C1291 H1314 0.950 . S
C1292 C1291 1.349 . S
C1292 C1304 1.349 . S
C1293 C1291 1.327 . S
C1293 C1309 1.429 . S
C1293 H1315 0.950 . S
C1294 H1290 0.949 . S
C1294 C1302 1.574 . S
C1294 C1310 1.368 . S
H1295 C1303 0.950 . S
H1296 C1301 0.950 . S
H1297 C1302 0.949 . S
H1298 C1304 0.950 . S
H1299 C1305 0.950 . S
H1300 C1306 0.949 . S
C1301 H1296 0.950 . S
C1301 C1303 1.327 . S
C1301 C1307 1.429 . S
C1302 C1294 1.574 . S
C1302 H1297 0.949 . S
C1302 C1308 1.368 . S
C1303 C1287 1.349 . S
C1303 H1295 0.950 . S
C1303 C1301 1.327 . S
C1304 C1292 1.349 . S
C1304 H1298 0.950 . S
C1304 C1305 1.327 . S
C1305 H1299 0.950 . S
C1305 C1304 1.327 . S
C1305 C1309 1.429 . S
C1306 C1289 1.574 . S
C1306 H1300 0.949 . S
C1306 C1310 1.368 . S
C1307 C1288 1.429 . S
C1307 C1301 1.429 . S
C1307 C1308 1.523 . S
C1308 C1289 1.368 . S
C1308 C1302 1.368 . S
C1308 C1307 1.523 . S
C1309 C1293 1.429 . S
C1309 C1305 1.429 . S
C1309 C1310 1.523 . S
C1310 C1294 1.368 . S
C1310 C1306 1.368 . S
C1310 C1309 1.523 . S
H1311 C1286 0.950 . S
H1312 C1288 0.950 . S
H1313 C1289 0.949 . S
H1314 C1291 0.950 . S
H1315 C1293 0.950 . S
C1316 C1317 1.349 . S
C1316 C1318 1.327 . S
C1316 H1341 0.950 . S
C1317 C1316 1.349 . S
C1317 C1333 1.349 . S
C1318 C1316 1.327 . S
C1318 C1337 1.429 . S
C1318 H1342 0.950 . S
C1319 C1336 1.574 . S
C1319 C1338 1.368 . S
C1319 H1343 0.949 . S
H1320 C1324 0.949 . S
C1321 C1322 1.349 . S
C1321 C1323 1.327 . S
C1321 H1344 0.950 . S
C1322 C1321 1.349 . S
C1322 C1334 1.349 . S
C1323 C1321 1.327 . S
C1323 C1339 1.429 . S
C1323 H1345 0.950 . S
C1324 H1320 0.949 . S
C1324 C1332 1.574 . S
C1324 C1340 1.368 . S
H1325 C1333 0.950 . S
H1326 C1331 0.950 . S
H1327 C1332 0.949 . S
H1328 C1334 0.950 . S
H1329 C1335 0.950 . S
H1330 C1336 0.949 . S
C1331 H1326 0.950 . S
C1331 C1333 1.327 . S
C1331 C1337 1.429 . S
C1332 C1324 1.574 . S
C1332 H1327 0.949 . S
C1332 C1338 1.368 . S
C1333 C1317 1.349 . S
C1333 H1325 0.950 . S
C1333 C1331 1.327 . S
C1334 C1322 1.349 . S
C1334 H1328 0.950 . S
C1334 C1335 1.327 . S
C1335 H1329 0.950 . S
C1335 C1334 1.327 . S
C1335 C1339 1.429 . S
C1336 C1319 1.574 . S
C1336 H1330 0.949 . S
C1336 C1340 1.368 . S
C1337 C1318 1.429 . S
C1337 C1331 1.429 . S
C1337 C1338 1.523 . S
C1338 C1319 1.368 . S
C1338 C1332 1.368 . S
C1338 C1337 1.523 . S
C1339 C1323 1.429 . S
C1339 C1335 1.429 . S
C1339 C1340 1.523 . S
C1340 C1324 1.368 . S
C1340 C1336 1.368 . S
C1340 C1339 1.523 . S
H1341 C1316 0.950 . S
H1342 C1318 0.950 . S
H1343 C1319 0.949 . S
H1344 C1321 0.950 . S
H1345 C1323 0.950 . S
C1346 C1347 1.349 . S
C1346 C1348 1.327 . S
C1346 H1371 0.950 . S
C1347 C1346 1.349 . S
C1347 C1363 1.349 . S
C1348 C1346 1.327 . S
C1348 C1367 1.429 . S
C1348 H1372 0.950 . S
C1349 C1366 1.574 . S
C1349 C1368 1.368 . S
C1349 H1373 0.949 . S
H1350 C1354 0.949 . S
C1351 C1352 1.349 . S
C1351 C1353 1.327 . S
C1351 H1374 0.950 . S
C1352 C1351 1.349 . S
C1352 C1364 1.349 . S
C1353 C1351 1.327 . S
C1353 C1369 1.429 . S
C1353 H1375 0.950 . S
C1354 H1350 0.949 . S
C1354 C1362 1.574 . S
C1354 C1370 1.368 . S
H1355 C1363 0.950 . S
H1356 C1361 0.950 . S
H1357 C1362 0.949 . S
H1358 C1364 0.950 . S
H1359 C1365 0.950 . S
H1360 C1366 0.949 . S
C1361 H1356 0.950 . S
C1361 C1363 1.327 . S
C1361 C1367 1.429 . S
C1362 C1354 1.574 . S
C1362 H1357 0.949 . S
C1362 C1368 1.368 . S
C1363 C1347 1.349 . S
C1363 H1355 0.950 . S
C1363 C1361 1.327 . S
C1364 C1352 1.349 . S
C1364 H1358 0.950 . S
C1364 C1365 1.327 . S
C1365 H1359 0.950 . S
C1365 C1364 1.327 . S
C1365 C1369 1.429 . S
C1366 C1349 1.574 . S
C1366 H1360 0.949 . S
C1366 C1370 1.368 . S
C1367 C1348 1.429 . S
C1367 C1361 1.429 . S
C1367 C1368 1.523 . S
C1368 C1349 1.368 . S
C1368 C1362 1.368 . S
C1368 C1367 1.523 . S
C1369 C1353 1.429 . S
C1369 C1365 1.429 . S
C1369 C1370 1.523 . S
C1370 C1354 1.368 . S
C1370 C1366 1.368 . S
C1370 C1369 1.523 . S
H1371 C1346 0.950 . S
H1372 C1348 0.950 . S
H1373 C1349 0.949 . S
H1374 C1351 0.950 . S
H1375 C1353 0.950 . S
C1376 C1377 1.349 . S
C1376 C1378 1.327 . S
C1376 H1401 0.950 . S
C1377 C1376 1.349 . S
C1377 C1393 1.349 . S
C1378 C1376 1.327 . S
C1378 C1397 1.429 . S
C1378 H1402 0.950 . S
C1379 C1396 1.574 . S
C1379 C1398 1.368 . S
C1379 H1403 0.949 . S
H1380 C1384 0.949 . S
C1381 C1382 1.349 . S
C1381 C1383 1.327 . S
C1381 H1404 0.950 . S
C1382 C1381 1.349 . S
C1382 C1394 1.349 . S
C1383 C1381 1.327 . S
C1383 C1399 1.429 . S
C1383 H1405 0.950 . S
C1384 H1380 0.949 . S
C1384 C1392 1.574 . S
C1384 C1400 1.368 . S
H1385 C1393 0.950 . S
H1386 C1391 0.950 . S
H1387 C1392 0.949 . S
H1388 C1394 0.950 . S
H1389 C1395 0.950 . S
H1390 C1396 0.949 . S
C1391 H1386 0.950 . S
C1391 C1393 1.327 . S
C1391 C1397 1.429 . S
C1392 C1384 1.574 . S
C1392 H1387 0.949 . S
C1392 C1398 1.368 . S
C1393 C1377 1.349 . S
C1393 H1385 0.950 . S
C1393 C1391 1.327 . S
C1394 C1382 1.349 . S
C1394 H1388 0.950 . S
C1394 C1395 1.327 . S
C1395 H1389 0.950 . S
C1395 C1394 1.327 . S
C1395 C1399 1.429 . S
C1396 C1379 1.574 . S
C1396 H1390 0.949 . S
C1396 C1400 1.368 . S
C1397 C1378 1.429 . S
C1397 C1391 1.429 . S
C1397 C1398 1.523 . S
C1398 C1379 1.368 . S
C1398 C1392 1.368 . S
C1398 C1397 1.523 . S
C1399 C1383 1.429 . S
C1399 C1395 1.429 . S
C1399 C1400 1.523 . S
C1400 C1384 1.368 . S
C1400 C1396 1.368 . S
C1400 C1399 1.523 . S
H1401 C1376 0.950 . S
H1402 C1378 0.950 . S
H1403 C1379 0.949 . S
H1404 C1381 0.950 . S
H1405 C1383 0.950 . S
C1406 C1407 1.349 . S
C1406 C1408 1.327 . S
C1406 H1431 0.950 . S
C1407 C1406 1.349 . S
C1407 C1423 1.349 . S
C1408 C1406 1.327 . S
C1408 C1427 1.429 . S
C1408 H1432 0.950 . S
C1409 C1426 1.574 . S
C1409 C1428 1.368 . S
C1409 H1433 0.949 . S
H1410 C1414 0.949 . S
C1411 C1412 1.349 . S
C1411 C1413 1.327 . S
C1411 H1434 0.950 . S
C1412 C1411 1.349 . S
C1412 C1424 1.349 . S
C1413 C1411 1.327 . S
C1413 C1429 1.429 . S
C1413 H1435 0.950 . S
C1414 H1410 0.949 . S
C1414 C1422 1.574 . S
C1414 C1430 1.368 . S
H1415 C1423 0.950 . S
H1416 C1421 0.950 . S
H1417 C1422 0.949 . S
H1418 C1424 0.950 . S
H1419 C1425 0.950 . S
H1420 C1426 0.949 . S
C1421 H1416 0.950 . S
C1421 C1423 1.327 . S
C1421 C1427 1.429 . S
C1422 C1414 1.574 . S
C1422 H1417 0.949 . S
C1422 C1428 1.368 . S
C1423 C1407 1.349 . S
C1423 H1415 0.950 . S
C1423 C1421 1.327 . S
C1424 C1412 1.349 . S
C1424 H1418 0.950 . S
C1424 C1425 1.327 . S
C1425 H1419 0.950 . S
C1425 C1424 1.327 . S
C1425 C1429 1.429 . S
C1426 C1409 1.574 . S
C1426 H1420 0.949 . S
C1426 C1430 1.368 . S
C1427 C1408 1.429 . S
C1427 C1421 1.429 . S
C1427 C1428 1.523 . S
C1428 C1409 1.368 . S
C1428 C1422 1.368 . S
C1428 C1427 1.523 . S
C1429 C1413 1.429 . S
C1429 C1425 1.429 . S
C1429 C1430 1.523 . S
C1430 C1414 1.368 . S
C1430 C1426 1.368 . S
C1430 C1429 1.523 . S
H1431 C1406 0.950 . S
H1432 C1408 0.950 . S
H1433 C1409 0.949 . S
H1434 C1411 0.950 . S
H1435 C1413 0.950 . S
C1436 C1437 1.349 . S
C1436 C1438 1.327 . S
C1436 H1461 0.950 . S
C1437 C1436 1.349 . S
C1437 C1453 1.349 . S
C1438 C1436 1.327 . S
C1438 C1457 1.429 . S
C1438 H1462 0.950 . S
C1439 C1456 1.574 . S
C1439 C1458 1.368 . S
C1439 H1463 0.949 . S
H1440 C1444 0.949 . S
C1441 C1442 1.349 . S
C1441 C1443 1.327 . S
C1441 H1464 0.950 . S
C1442 C1441 1.349 . S
C1442 C1454 1.349 . S
C1443 C1441 1.327 . S
C1443 C1459 1.429 . S
C1443 H1465 0.950 . S
C1444 H1440 0.949 . S
C1444 C1452 1.574 . S
C1444 C1460 1.368 . S
H1445 C1453 0.950 . S
H1446 C1451 0.950 . S
H1447 C1452 0.949 . S
H1448 C1454 0.950 . S
H1449 C1455 0.950 . S
H1450 C1456 0.949 . S
C1451 H1446 0.950 . S
C1451 C1453 1.327 . S
C1451 C1457 1.429 . S
C1452 C1444 1.574 . S
C1452 H1447 0.949 . S
C1452 C1458 1.368 . S
C1453 C1437 1.349 . S
C1453 H1445 0.950 . S
C1453 C1451 1.327 . S
C1454 C1442 1.349 . S
C1454 H1448 0.950 . S
C1454 C1455 1.327 . S
C1455 H1449 0.950 . S
C1455 C1454 1.327 . S
C1455 C1459 1.429 . S
C1456 C1439 1.574 . S
C1456 H1450 0.949 . S
C1456 C1460 1.368 . S
C1457 C1438 1.429 . S
C1457 C1451 1.429 . S
C1457 C1458 1.523 . S
C1458 C1439 1.368 . S
C1458 C1452 1.368 . S
C1458 C1457 1.523 . S
C1459 C1443 1.429 . S
C1459 C1455 1.429 . S
C1459 C1460 1.523 . S
C1460 C1444 1.368 . S
C1460 C1456 1.368 . S
C1460 C1459 1.523 . S
H1461 C1436 0.950 . S
H1462 C1438 0.950 . S
H1463 C1439 0.949 . S
H1464 C1441 0.950 . S
H1465 C1443 0.950 . S
C1466 C1467 1.349 . S
C1466 C1468 1.327 . S
C1466 H1491 0.950 . S
C1467 C1466 1.349 . S
C1467 C1483 1.349 . S
C1468 C1466 1.327 . S
C1468 C1487 1.429 . S
C1468 H1492 0.950 . S
C1469 C1486 1.574 . S
C1469 C1488 1.368 . S
C1469 H1493 0.949 . S
H1470 C1474 0.949 . S
C1471 C1472 1.349 . S
C1471 C1473 1.327 . S
C1471 H1494 0.950 . S
C1472 C1471 1.349 . S
C1472 C1484 1.349 . S
C1473 C1471 1.327 . S
C1473 C1489 1.429 . S
C1473 H1495 0.950 . S
C1474 H1470 0.949 . S
C1474 C1482 1.574 . S
C1474 C1490 1.368 . S
H1475 C1483 0.950 . S
H1476 C1481 0.950 . S
H1477 C1482 0.949 . S
H1478 C1484 0.950 . S
H1479 C1485 0.950 . S
H1480 C1486 0.949 . S
C1481 H1476 0.950 . S
C1481 C1483 1.327 . S
C1481 C1487 1.429 . S
C1482 C1474 1.574 . S
C1482 H1477 0.949 . S
C1482 C1488 1.368 . S
C1483 C1467 1.349 . S
C1483 H1475 0.950 . S
C1483 C1481 1.327 . S
C1484 C1472 1.349 . S
C1484 H1478 0.950 . S
C1484 C1485 1.327 . S
C1485 H1479 0.950 . S
C1485 C1484 1.327 . S
C1485 C1489 1.429 . S
C1486 C1469 1.574 . S
C1486 H1480 0.949 . S
C1486 C1490 1.368 . S
C1487 C1468 1.429 . S
C1487 C1481 1.429 . S
C1487 C1488 1.523 . S
C1488 C1469 1.368 . S
C1488 C1482 1.368 . S
C1488 C1487 1.523 . S
C1489 C1473 1.429 . S
C1489 C1485 1.429 . S
C1489 C1490 1.523 . S
C1490 C1474 1.368 . S
C1490 C1486 1.368 . S
C1490 C1489 1.523 . S
H1491 C1466 0.950 . S
H1492 C1468 0.950 . S
H1493 C1469 0.949 . S
H1494 C1471 0.950 . S
H1495 C1473 0.950 . S
C1496 C1497 1.349 . S
C1496 C1498 1.327 . S
C1496 H1521 0.950 . S
C1497 C1496 1.349 . S
C1497 C1513 1.349 . S
C1498 C1496 1.327 . S
C1498 C1517 1.429 . S
C1498 H1522 0.950 . S
C1499 C1516 1.574 . S
C1499 C1518 1.368 . S
C1499 H1523 0.949 . S
H1500 C1504 0.949 . S
C1501 C1502 1.349 . S
C1501 C1503 1.327 . S
C1501 H1524 0.950 . S
C1502 C1501 1.349 . S
C1502 C1514 1.349 . S
C1503 C1501 1.327 . S
C1503 C1519 1.429 . S
C1503 H1525 0.950 . S
C1504 H1500 0.949 . S
C1504 C1512 1.574 . S
C1504 C1520 1.368 . S
H1505 C1513 0.950 . S
H1506 C1511 0.950 . S
H1507 C1512 0.949 . S
H1508 C1514 0.950 . S
H1509 C1515 0.950 . S
H1510 C1516 0.949 . S
C1511 H1506 0.950 . S
C1511 C1513 1.327 . S
C1511 C1517 1.429 . S
C1512 C1504 1.574 . S
C1512 H1507 0.949 . S
C1512 C1518 1.368 . S
C1513 C1497 1.349 . S
C1513 H1505 0.950 . S
C1513 C1511 1.327 . S
C1514 C1502 1.349 . S
C1514 H1508 0.950 . S
C1514 C1515 1.327 . S
C1515 H1509 0.950 . S
C1515 C1514 1.327 . S
C1515 C1519 1.429 . S
C1516 C1499 1.574 . S
C1516 H1510 0.949 . S
C1516 C1520 1.368 . S
C1517 C1498 1.429 . S
C1517 C1511 1.429 . S
C1517 C1518 1.523 . S
C1518 C1499 1.368 . S
C1518 C1512 1.368 . S
C1518 C1517 1.523 . S
C1519 C1503 1.429 . S
C1519 C1515 1.429 . S
C1519 C1520 1.523 . S
C1520 C1504 1.368 . S
C1520 C1516 1.368 . S
C1520 C1519 1.523 . S
H1521 C1496 0.950 . S
H1522 C1498 0.950 . S
H1523 C1499 0.949 . S
H1524 C1501 0.950 . S
H1525 C1503 0.950 . S
C1526 C1527 1.349 . S
C1526 C1528 1.327 . S
C1526 H1551 0.950 . S
C1527 C1526 1.349 . S
C1527 C1543 1.349 . S
C1528 C1526 1.327 . S
C1528 C1547 1.429 . S
C1528 H1552 0.950 . S
C1529 C1546 1.574 . S
C1529 C1548 1.368 . S
C1529 H1553 0.949 . S
H1530 C1534 0.949 . S
C1531 C1532 1.349 . S
C1531 C1533 1.327 . S
C1531 H1554 0.950 . S
C1532 C1531 1.349 . S
C1532 C1544 1.349 . S
C1533 C1531 1.327 . S
C1533 C1549 1.429 . S
C1533 H1555 0.950 . S
C1534 H1530 0.949 . S
C1534 C1542 1.574 . S
C1534 C1550 1.368 . S
H1535 C1543 0.950 . S
H1536 C1541 0.950 . S
H1537 C1542 0.949 . S
H1538 C1544 0.950 . S
H1539 C1545 0.950 . S
H1540 C1546 0.949 . S
C1541 H1536 0.950 . S
C1541 C1543 1.327 . S
C1541 C1547 1.429 . S
C1542 C1534 1.574 . S
C1542 H1537 0.949 . S
C1542 C1548 1.368 . S
C1543 C1527 1.349 . S
C1543 H1535 0.950 . S
C1543 C1541 1.327 . S
C1544 C1532 1.349 . S
C1544 H1538 0.950 . S
C1544 C1545 1.327 . S
C1545 H1539 0.950 . S
C1545 C1544 1.327 . S
C1545 C1549 1.429 . S
C1546 C1529 1.574 . S
C1546 H1540 0.949 . S
C1546 C1550 1.368 . S
C1547 C1528 1.429 . S
C1547 C1541 1.429 . S
C1547 C1548 1.523 . S
C1548 C1529 1.368 . S
C1548 C1542 1.368 . S
C1548 C1547 1.523 . S
C1549 C1533 1.429 . S
C1549 C1545 1.429 . S
C1549 C1550 1.523 . S
C1550 C1534 1.368 . S
C1550 C1546 1.368 . S
C1550 C1549 1.523 . S
H1551 C1526 0.950 . S
H1552 C1528 0.950 . S
H1553 C1529 0.949 . S
H1554 C1531 0.950 . S
H1555 C1533 0.950 . S
C1556 C1557 1.349 . S
C1556 C1558 1.327 . S
C1556 H1581 0.950 . S
C1557 C1556 1.349 . S
C1557 C1573 1.349 . S
C1558 C1556 1.327 . S
C1558 C1577 1.429 . S
C1558 H1582 0.950 . S
C1559 C1576 1.574 . S
C1559 C1578 1.368 . S
C1559 H1583 0.949 . S
H1560 C1564 0.949 . S
C1561 C1562 1.349 . S
C1561 C1563 1.327 . S
C1561 H1584 0.950 . S
C1562 C1561 1.349 . S
C1562 C1574 1.349 . S
C1563 C1561 1.327 . S
C1563 C1579 1.429 . S
C1563 H1585 0.950 . S
C1564 H1560 0.949 . S
C1564 C1572 1.574 . S
C1564 C1580 1.368 . S
H1565 C1573 0.950 . S
H1566 C1571 0.950 . S
H1567 C1572 0.949 . S
H1568 C1574 0.950 . S
H1569 C1575 0.950 . S
H1570 C1576 0.949 . S
C1571 H1566 0.950 . S
C1571 C1573 1.327 . S
C1571 C1577 1.429 . S
C1572 C1564 1.574 . S
C1572 H1567 0.949 . S
C1572 C1578 1.368 . S
C1573 C1557 1.349 . S
C1573 H1565 0.950 . S
C1573 C1571 1.327 . S
C1574 C1562 1.349 . S
C1574 H1568 0.950 . S
C1574 C1575 1.327 . S
C1575 H1569 0.950 . S
C1575 C1574 1.327 . S
C1575 C1579 1.429 . S
C1576 C1559 1.574 . S
C1576 H1570 0.949 . S
C1576 C1580 1.368 . S
C1577 C1558 1.429 . S
C1577 C1571 1.429 . S
C1577 C1578 1.523 . S
C1578 C1559 1.368 . S
C1578 C1572 1.368 . S
C1578 C1577 1.523 . S
C1579 C1563 1.429 . S
C1579 C1575 1.429 . S
C1579 C1580 1.523 . S
C1580 C1564 1.368 . S
C1580 C1576 1.368 . S
C1580 C1579 1.523 . S
H1581 C1556 0.950 . S
H1582 C1558 0.950 . S
H1583 C1559 0.949 . S
H1584 C1561 0.950 . S
H1585 C1563 0.950 . S
C1586 C1587 1.349 . S
C1586 C1588 1.327 . S
C1586 H1611 0.950 . S
C1587 C1586 1.349 . S
C1587 C1603 1.349 . S
C1588 C1586 1.327 . S
C1588 C1607 1.429 . S
C1588 H1612 0.950 . S
C1589 C1606 1.574 . S
C1589 C1608 1.368 . S
C1589 H1613 0.949 . S
H1590 C1594 0.949 . S
C1591 C1592 1.349 . S
C1591 C1593 1.327 . S
C1591 H1614 0.950 . S
C1592 C1591 1.349 . S
C1592 C1604 1.349 . S
C1593 C1591 1.327 . S
C1593 C1609 1.429 . S
C1593 H1615 0.950 . S
C1594 H1590 0.949 . S
C1594 C1602 1.574 . S
C1594 C1610 1.368 . S
H1595 C1603 0.950 . S
H1596 C1601 0.950 . S
H1597 C1602 0.949 . S
H1598 C1604 0.950 . S
H1599 C1605 0.950 . S
H1600 C1606 0.949 . S
C1601 H1596 0.950 . S
C1601 C1603 1.327 . S
C1601 C1607 1.429 . S
C1602 C1594 1.574 . S
C1602 H1597 0.949 . S
C1602 C1608 1.368 . S
C1603 C1587 1.349 . S
C1603 H1595 0.950 . S
C1603 C1601 1.327 . S
C1604 C1592 1.349 . S
C1604 H1598 0.950 . S
C1604 C1605 1.327 . S
C1605 H1599 0.950 . S
C1605 C1604 1.327 . S
C1605 C1609 1.429 . S
C1606 C1589 1.574 . S
C1606 H1600 0.949 . S
C1606 C1610 1.368 . S
C1607 C1588 1.429 . S
C1607 C1601 1.429 . S
C1607 C1608 1.523 . S
C1608 C1589 1.368 . S
C1608 C1602 1.368 . S
C1608 C1607 1.523 . S
C1609 C1593 1.429 . S
C1609 C1605 1.429 . S
C1609 C1610 1.523 . S
C1610 C1594 1.368 . S
C1610 C1606 1.368 . S
C1610 C1609 1.523 . S
H1611 C1586 0.950 . S
H1612 C1588 0.950 . S
H1613 C1589 0.949 . S
H1614 C1591 0.950 . S
H1615 C1593 0.950 . S
C1616 C1617 1.349 . S
C1616 C1618 1.327 . S
C1616 H1641 0.950 . S
C1617 C1616 1.349 . S
C1617 C1633 1.349 . S
C1618 C1616 1.327 . S
C1618 C1637 1.429 . S
C1618 H1642 0.950 . S
C1619 C1636 1.574 . S
C1619 C1638 1.368 . S
C1619 H1643 0.949 . S
H1620 C1624 0.949 . S
C1621 C1622 1.349 . S
C1621 C1623 1.327 . S
C1621 H1644 0.950 . S
C1622 C1621 1.349 . S
C1622 C1634 1.349 . S
C1623 C1621 1.327 . S
C1623 C1639 1.429 . S
C1623 H1645 0.950 . S
C1624 H1620 0.949 . S
C1624 C1632 1.574 . S
C1624 C1640 1.368 . S
H1625 C1633 0.950 . S
H1626 C1631 0.950 . S
H1627 C1632 0.949 . S
H1628 C1634 0.950 . S
H1629 C1635 0.950 . S
H1630 C1636 0.949 . S
C1631 H1626 0.950 . S
C1631 C1633 1.327 . S
C1631 C1637 1.429 . S
C1632 C1624 1.574 . S
C1632 H1627 0.949 . S
C1632 C1638 1.368 . S
C1633 C1617 1.349 . S
C1633 H1625 0.950 . S
C1633 C1631 1.327 . S
C1634 C1622 1.349 . S
C1634 H1628 0.950 . S
C1634 C1635 1.327 . S
C1635 H1629 0.950 . S
C1635 C1634 1.327 . S
C1635 C1639 1.429 . S
C1636 C1619 1.574 . S
C1636 H1630 0.949 . S
C1636 C1640 1.368 . S
C1637 C1618 1.429 . S
C1637 C1631 1.429 . S
C1637 C1638 1.523 . S
C1638 C1619 1.368 . S
C1638 C1632 1.368 . S
C1638 C1637 1.523 . S
C1639 C1623 1.429 . S
C1639 C1635 1.429 . S
C1639 C1640 1.523 . S
C1640 C1624 1.368 . S
C1640 C1636 1.368 . S
C1640 C1639 1.523 . S
H1641 C1616 0.950 . S
H1642 C1618 0.950 . S
H1643 C1619 0.949 . S
H1644 C1621 0.950 . S
H1645 C1623 0.950 . S
C1646 C1647 1.349 . S
C1646 C1648 1.327 . S
C1646 H1671 0.950 . S
C1647 C1646 1.349 . S
C1647 C1663 1.349 . S
C1648 C1646 1.327 . S
C1648 C1667 1.429 . S
C1648 H1672 0.950 . S
C1649 C1666 1.574 . S
C1649 C1668 1.368 . S
C1649 H1673 0.949 . S
H1650 C1654 0.949 . S
C1651 C1652 1.349 . S
C1651 C1653 1.327 . S
C1651 H1674 0.950 . S
C1652 C1651 1.349 . S
C1652 C1664 1.349 . S
C1653 C1651 1.327 . S
C1653 C1669 1.429 . S
C1653 H1675 0.950 . S
C1654 H1650 0.949 . S
C1654 C1662 1.574 . S
C1654 C1670 1.368 . S
H1655 C1663 0.950 . S
H1656 C1661 0.950 . S
H1657 C1662 0.949 . S
H1658 C1664 0.950 . S
H1659 C1665 0.950 . S
H1660 C1666 0.949 . S
C1661 H1656 0.950 . S
C1661 C1663 1.327 . S
C1661 C1667 1.429 . S
C1662 C1654 1.574 . S
C1662 H1657 0.949 . S
C1662 C1668 1.368 . S
C1663 C1647 1.349 . S
C1663 H1655 0.950 . S
C1663 C1661 1.327 . S
C1664 C1652 1.349 . S
C1664 H1658 0.950 . S
C1664 C1665 1.327 . S
C1665 H1659 0.950 . S
C1665 C1664 1.327 . S
C1665 C1669 1.429 . S
C1666 C1649 1.574 . S
C1666 H1660 0.949 . S
C1666 C1670 1.368 . S
C1667 C1648 1.429 . S
C1667 C1661 1.429 . S
C1667 C1668 1.523 . S
C1668 C1649 1.368 . S
C1668 C1662 1.368 . S
C1668 C1667 1.523 . S
C1669 C1653 1.429 . S
C1669 C1665 1.429 . S
C1669 C1670 1.523 . S
C1670 C1654 1.368 . S
C1670 C1666 1.368 . S
C1670 C1669 1.523 . S
H1671 C1646 0.950 . S
H1672 C1648 0.950 . S
H1673 C1649 0.949 . S
H1674 C1651 0.950 . S
H1675 C1653 0.950 . S
C1676 C1677 1.349 . S
C1676 C1678 1.327 . S
C1676 H1701 0.950 . S
C1677 C1676 1.349 . S
C1677 C1693 1.349 . S
C1678 C1676 1.327 . S
C1678 C1697 1.429 . S
C1678 H1702 0.950 . S
C1679 C1696 1.574 . S
C1679 C1698 1.368 . S
C1679 H1703 0.949 . S
H1680 C1684 0.949 . S
C1681 C1682 1.349 . S
C1681 C1683 1.327 . S
C1681 H1704 0.950 . S
C1682 C1681 1.349 . S
C1682 C1694 1.349 . S
C1683 C1681 1.327 . S
C1683 C1699 1.429 . S
C1683 H1705 0.950 . S
C1684 H1680 0.949 . S
C1684 C1692 1.574 . S
C1684 C1700 1.368 . S
H1685 C1693 0.950 . S
H1686 C1691 0.950 . S
H1687 C1692 0.949 . S
H1688 C1694 0.950 . S
H1689 C1695 0.950 . S
H1690 C1696 0.949 . S
C1691 H1686 0.950 . S
C1691 C1693 1.327 . S
C1691 C1697 1.429 . S
C1692 C1684 1.574 . S
C1692 H1687 0.949 . S
C1692 C1698 1.368 . S
C1693 C1677 1.349 . S
C1693 H1685 0.950 . S
C1693 C1691 1.327 . S
C1694 C1682 1.349 . S
C1694 H1688 0.950 . S
C1694 C1695 1.327 . S
C1695 H1689 0.950 . S
C1695 C1694 1.327 . S
C1695 C1699 1.429 . S
C1696 C1679 1.574 . S
C1696 H1690 0.949 . S
C1696 C1700 1.368 . S
C1697 C1678 1.429 . S
C1697 C1691 1.429 . S
C1697 C1698 1.523 . S
C1698 C1679 1.368 . S
C1698 C1692 1.368 . S
C1698 C1697 1.523 . S
C1699 C1683 1.429 . S
C1699 C1695 1.429 . S
C1699 C1700 1.523 . S
C1700 C1684 1.368 . S
C1700 C1696 1.368 . S
C1700 C1699 1.523 . S
H1701 C1676 0.950 . S
H1702 C1678 0.950 . S
H1703 C1679 0.949 . S
H1704 C1681 0.950 . S
H1705 C1683 0.950 . S
C1706 C1707 1.349 . S
C1706 C1708 1.327 . S
C1706 H1731 0.950 . S
C1707 C1706 1.349 . S
C1707 C1723 1.349 . S
C1708 C1706 1.327 . S
C1708 C1727 1.429 . S
C1708 H1732 0.950 . S
C1709 C1726 1.574 . S
C1709 C1728 1.368 . S
C1709 H1733 0.949 . S
H1710 C1714 0.949 . S
C1711 C1712 1.349 . S
C1711 C1713 1.327 . S
C1711 H1734 0.950 . S
C1712 C1711 1.349 . S
C1712 C1724 1.349 . S
C1713 C1711 1.327 . S
C1713 C1729 1.429 . S
C1713 H1735 0.950 . S
C1714 H1710 0.949 . S
C1714 C1722 1.574 . S
C1714 C1730 1.368 . S
H1715 C1723 0.950 . S
H1716 C1721 0.950 . S
H1717 C1722 0.949 . S
H1718 C1724 0.950 . S
H1719 C1725 0.950 . S
H1720 C1726 0.949 . S
C1721 H1716 0.950 . S
C1721 C1723 1.327 . S
C1721 C1727 1.429 . S
C1722 C1714 1.574 . S
C1722 H1717 0.949 . S
C1722 C1728 1.368 . S
C1723 C1707 1.349 . S
C1723 H1715 0.950 . S
C1723 C1721 1.327 . S
C1724 C1712 1.349 . S
C1724 H1718 0.950 . S
C1724 C1725 1.327 . S
C1725 H1719 0.950 . S
C1725 C1724 1.327 . S
C1725 C1729 1.429 . S
C1726 C1709 1.574 . S
C1726 H1720 0.949 . S
C1726 C1730 1.368 . S
C1727 C1708 1.429 . S
C1727 C1721 1.429 . S
C1727 C1728 1.523 . S
C1728 C1709 1.368 . S
C1728 C1722 1.368 . S
C1728 C1727 1.523 . S
C1729 C1713 1.429 . S
C1729 C1725 1.429 . S
C1729 C1730 1.523 . S
C1730 C1714 1.368 . S
C1730 C1726 1.368 . S
C1730 C1729 1.523 . S
H1731 C1706 0.950 . S
H1732 C1708 0.950 . S
H1733 C1709 0.949 . S
H1734 C1711 0.950 . S
H1735 C1713 0.950 . S
C1736 C1737 1.349 . S
C1736 C1738 1.327 . S
C1736 H1761 0.950 . S
C1737 C1736 1.349 . S
C1737 C1753 1.349 . S
C1738 C1736 1.327 . S
C1738 C1757 1.429 . S
C1738 H1762 0.950 . S
C1739 C1756 1.574 . S
C1739 C1758 1.368 . S
C1739 H1763 0.949 . S
H1740 C1744 0.949 . S
C1741 C1742 1.349 . S
C1741 C1743 1.327 . S
C1741 H1764 0.950 . S
C1742 C1741 1.349 . S
C1742 C1754 1.349 . S
C1743 C1741 1.327 . S
C1743 C1759 1.429 . S
C1743 H1765 0.950 . S
C1744 H1740 0.949 . S
C1744 C1752 1.574 . S
C1744 C1760 1.368 . S
H1745 C1753 0.950 . S
H1746 C1751 0.950 . S
H1747 C1752 0.949 . S
H1748 C1754 0.950 . S
H1749 C1755 0.950 . S
H1750 C1756 0.949 . S
C1751 H1746 0.950 . S
C1751 C1753 1.327 . S
C1751 C1757 1.429 . S
C1752 C1744 1.574 . S
C1752 H1747 0.949 . S
C1752 C1758 1.368 . S
C1753 C1737 1.349 . S
C1753 H1745 0.950 . S
C1753 C1751 1.327 . S
C1754 C1742 1.349 . S
C1754 H1748 0.950 . S
C1754 C1755 1.327 . S
C1755 H1749 0.950 . S
C1755 C1754 1.327 . S
C1755 C1759 1.429 . S
C1756 C1739 1.574 . S
C1756 H1750 0.949 . S
C1756 C1760 1.368 . S
C1757 C1738 1.429 . S
C1757 C1751 1.429 . S
C1757 C1758 1.523 . S
C1758 C1739 1.368 . S
C1758 C1752 1.368 . S
C1758 C1757 1.523 . S
C1759 C1743 1.429 . S
C1759 C1755 1.429 . S
C1759 C1760 1.523 . S
C1760 C1744 1.368 . S
C1760 C1756 1.368 . S
C1760 C1759 1.523 . S
H1761 C1736 0.950 . S
H1762 C1738 0.950 . S
H1763 C1739 0.949 . S
H1764 C1741 0.950 . S
H1765 C1743 0.950 . S
C1766 C1767 1.349 . S
C1766 C1768 1.327 . S
C1766 H1791 0.950 . S
C1767 C1766 1.349 . S
C1767 C1783 1.349 . S
C1768 C1766 1.327 . S
C1768 C1787 1.429 . S
C1768 H1792 0.950 . S
C1769 C1786 1.574 . S
C1769 C1788 1.368 . S
C1769 H1793 0.949 . S
H1770 C1774 0.949 . S
C1771 C1772 1.349 . S
C1771 C1773 1.327 . S
C1771 H1794 0.950 . S
C1772 C1771 1.349 . S
C1772 C1784 1.349 . S
C1773 C1771 1.327 . S
C1773 C1789 1.429 . S
C1773 H1795 0.950 . S
C1774 H1770 0.949 . S
C1774 C1782 1.574 . S
C1774 C1790 1.368 . S
H1775 C1783 0.950 . S
H1776 C1781 0.950 . S
H1777 C1782 0.949 . S
H1778 C1784 0.950 . S
H1779 C1785 0.950 . S
H1780 C1786 0.949 . S
C1781 H1776 0.950 . S
C1781 C1783 1.327 . S
C1781 C1787 1.429 . S
C1782 C1774 1.574 . S
C1782 H1777 0.949 . S
C1782 C1788 1.368 . S
C1783 C1767 1.349 . S
C1783 H1775 0.950 . S
C1783 C1781 1.327 . S
C1784 C1772 1.349 . S
C1784 H1778 0.950 . S
C1784 C1785 1.327 . S
C1785 H1779 0.950 . S
C1785 C1784 1.327 . S
C1785 C1789 1.429 . S
C1786 C1769 1.574 . S
C1786 H1780 0.949 . S
C1786 C1790 1.368 . S
C1787 C1768 1.429 . S
C1787 C1781 1.429 . S
C1787 C1788 1.523 . S
C1788 C1769 1.368 . S
C1788 C1782 1.368 . S
C1788 C1787 1.523 . S
C1789 C1773 1.429 . S
C1789 C1785 1.429 . S
C1789 C1790 1.523 . S
C1790 C1774 1.368 . S
C1790 C1786 1.368 . S
C1790 C1789 1.523 . S
H1791 C1766 0.950 . S
H1792 C1768 0.950 . S
H1793 C1769 0.949 . S
H1794 C1771 0.950 . S
H1795 C1773 0.950 . S
C1796 C1797 1.349 . S
C1796 C1798 1.327 . S
C1796 H1821 0.950 . S
C1797 C1796 1.349 . S
C1797 C1813 1.349 . S
C1798 C1796 1.327 . S
C1798 C1817 1.429 . S
C1798 H1822 0.950 . S
C1799 C1816 1.574 . S
C1799 C1818 1.368 . S
C1799 H1823 0.949 . S
H1800 C1804 0.949 . S
C1801 C1802 1.349 . S
C1801 C1803 1.327 . S
C1801 H1824 0.950 . S
C1802 C1801 1.349 . S
C1802 C1814 1.349 . S
C1803 C1801 1.327 . S
C1803 C1819 1.429 . S
C1803 H1825 0.950 . S
C1804 H1800 0.949 . S
C1804 C1812 1.574 . S
C1804 C1820 1.368 . S
H1805 C1813 0.950 . S
H1806 C1811 0.950 . S
H1807 C1812 0.949 . S
H1808 C1814 0.950 . S
H1809 C1815 0.950 . S
H1810 C1816 0.949 . S
C1811 H1806 0.950 . S
C1811 C1813 1.327 . S
C1811 C1817 1.429 . S
C1812 C1804 1.574 . S
C1812 H1807 0.949 . S
C1812 C1818 1.368 . S
C1813 C1797 1.349 . S
C1813 H1805 0.950 . S
C1813 C1811 1.327 . S
C1814 C1802 1.349 . S
C1814 H1808 0.950 . S
C1814 C1815 1.327 . S
C1815 H1809 0.950 . S
C1815 C1814 1.327 . S
C1815 C1819 1.429 . S
C1816 C1799 1.574 . S
C1816 H1810 0.949 . S
C1816 C1820 1.368 . S
C1817 C1798 1.429 . S
C1817 C1811 1.429 . S
C1817 C1818 1.523 . S
C1818 C1799 1.368 . S
C1818 C1812 1.368 . S
C1818 C1817 1.523 . S
C1819 C1803 1.429 . S
C1819 C1815 1.429 . S
C1819 C1820 1.523 . S
C1820 C1804 1.368 . S
C1820 C1816 1.368 . S
C1820 C1819 1.523 . S
H1821 C1796 0.950 . S
H1822 C1798 0.950 . S
H1823 C1799 0.949 . S
H1824 C1801 0.950 . S
H1825 C1803 0.950 . S
C1826 C1827 1.349 . S
C1826 C1828 1.327 . S
C1826 H1851 0.950 . S
C1827 C1826 1.349 . S
C1827 C1843 1.349 . S
C1828 C1826 1.327 . S
C1828 C1847 1.429 . S
C1828 H1852 0.950 . S
C1829 C1846 1.574 . S
C1829 C1848 1.368 . S
C1829 H1853 0.949 . S
H1830 C1834 0.949 . S
C1831 C1832 1.349 . S
C1831 C1833 1.327 . S
C1831 H1854 0.950 . S
C1832 C1831 1.349 . S
C1832 C1844 1.349 . S
C1833 C1831 1.327 . S
C1833 C1849 1.429 . S
C1833 H1855 0.950 . S
C1834 H1830 0.949 . S
C1834 C1842 1.574 . S
C1834 C1850 1.368 . S
H1835 C1843 0.950 . S
H1836 C1841 0.950 . S
H1837 C1842 0.949 . S
H1838 C1844 0.950 . S
H1839 C1845 0.950 . S
H1840 C1846 0.949 . S
C1841 H1836 0.950 . S
C1841 C1843 1.327 . S
C1841 C1847 1.429 . S
C1842 C1834 1.574 . S
C1842 H1837 0.949 . S
C1842 C1848 1.368 . S
C1843 C1827 1.349 . S
C1843 H1835 0.950 . S
C1843 C1841 1.327 . S
C1844 C1832 1.349 . S
C1844 H1838 0.950 . S
C1844 C1845 1.327 . S
C1845 H1839 0.950 . S
C1845 C1844 1.327 . S
C1845 C1849 1.429 . S
C1846 C1829 1.574 . S
C1846 H1840 0.949 . S
C1846 C1850 1.368 . S
C1847 C1828 1.429 . S
C1847 C1841 1.429 . S
C1847 C1848 1.523 . S
C1848 C1829 1.368 . S
C1848 C1842 1.368 . S
C1848 C1847 1.523 . S
C1849 C1833 1.429 . S
C1849 C1845 1.429 . S
C1849 C1850 1.523 . S
C1850 C1834 1.368 . S
C1850 C1846 1.368 . S
C1850 C1849 1.523 . S
H1851 C1826 0.950 . S
H1852 C1828 0.950 . S
H1853 C1829 0.949 . S
H1854 C1831 0.950 . S
H1855 C1833 0.950 . S
C1856 C1857 1.349 . S
C1856 C1858 1.327 . S
C1856 H1881 0.950 . S
C1857 C1856 1.349 . S
C1857 C1873 1.349 . S
C1858 C1856 1.327 . S
C1858 C1877 1.429 . S
C1858 H1882 0.950 . S
C1859 C1876 1.574 . S
C1859 C1878 1.368 . S
C1859 H1883 0.949 . S
H1860 C1864 0.949 . S
C1861 C1862 1.349 . S
C1861 C1863 1.327 . S
C1861 H1884 0.950 . S
C1862 C1861 1.349 . S
C1862 C1874 1.349 . S
C1863 C1861 1.327 . S
C1863 C1879 1.429 . S
C1863 H1885 0.950 . S
C1864 H1860 0.949 . S
C1864 C1872 1.574 . S
C1864 C1880 1.368 . S
H1865 C1873 0.950 . S
H1866 C1871 0.950 . S
H1867 C1872 0.949 . S
H1868 C1874 0.950 . S
H1869 C1875 0.950 . S
H1870 C1876 0.949 . S
C1871 H1866 0.950 . S
C1871 C1873 1.327 . S
C1871 C1877 1.429 . S
C1872 C1864 1.574 . S
C1872 H1867 0.949 . S
C1872 C1878 1.368 . S
C1873 C1857 1.349 . S
C1873 H1865 0.950 . S
C1873 C1871 1.327 . S
C1874 C1862 1.349 . S
C1874 H1868 0.950 . S
C1874 C1875 1.327 . S
C1875 H1869 0.950 . S
C1875 C1874 1.327 . S
C1875 C1879 1.429 . S
C1876 C1859 1.574 . S
C1876 H1870 0.949 . S
C1876 C1880 1.368 . S
C1877 C1858 1.429 . S
C1877 C1871 1.429 . S
C1877 C1878 1.523 . S
C1878 C1859 1.368 . S
C1878 C1872 1.368 . S
C1878 C1877 1.523 . S
C1879 C1863 1.429 . S
C1879 C1875 1.429 . S
C1879 C1880 1.523 . S
C1880 C1864 1.368 . S
C1880 C1876 1.368 . S
C1880 C1879 1.523 . S
H1881 C1856 0.950 . S
H1882 C1858 0.950 . S
H1883 C1859 0.949 . S
H1884 C1861 0.950 . S
H1885 C1863 0.950 . S
C1886 C1887 1.349 . S
C1886 C1888 1.327 . S
C1886 H1911 0.950 . S
C1887 C1886 1.349 . S
C1887 C1903 1.349 . S
C1888 C1886 1.327 . S
C1888 C1907 1.429 . S
C1888 H1912 0.950 . S
C1889 C1906 1.574 . S
C1889 C1908 1.368 . S
C1889 H1913 0.949 . S
H1890 C1894 0.949 . S
C1891 C1892 1.349 . S
C1891 C1893 1.327 . S
C1891 H1914 0.950 . S
C1892 C1891 1.349 . S
C1892 C1904 1.349 . S
C1893 C1891 1.327 . S
C1893 C1909 1.429 . S
C1893 H1915 0.950 . S
C1894 H1890 0.949 . S
C1894 C1902 1.574 . S
C1894 C1910 1.368 . S
H1895 C1903 0.950 . S
H1896 C1901 0.950 . S
H1897 C1902 0.949 . S
H1898 C1904 0.950 . S
H1899 C1905 0.950 . S
H1900 C1906 0.949 . S
C1901 H1896 0.950 . S
C1901 C1903 1.327 . S
C1901 C1907 1.429 . S
C1902 C1894 1.574 . S
C1902 H1897 0.949 . S
C1902 C1908 1.368 . S
C1903 C1887 1.349 . S
C1903 H1895 0.950 . S
C1903 C1901 1.327 . S
C1904 C1892 1.349 . S
C1904 H1898 0.950 . S
C1904 C1905 1.327 . S
C1905 H1899 0.950 . S
C1905 C1904 1.327 . S
C1905 C1909 1.429 . S
C1906 C1889 1.574 . S
C1906 H1900 0.949 . S
C1906 C1910 1.368 . S
C1907 C1888 1.429 . S
C1907 C1901 1.429 . S
C1907 C1908 1.523 . S
C1908 C1889 1.368 . S
C1908 C1902 1.368 . S
C1908 C1907 1.523 . S
C1909 C1893 1.429 . S
C1909 C1905 1.429 . S
C1909 C1910 1.523 . S
C1910 C1894 1.368 . S
C1910 C1906 1.368 . S
C1910 C1909 1.523 . S
H1911 C1886 0.950 . S
H1912 C1888 0.950 . S
H1913 C1889 0.949 . S
H1914 C1891 0.950 . S
H1915 C1893 0.950 . S
C1916 C1917 1.349 . S
C1916 C1918 1.327 . S
C1916 H1941 0.950 . S
C1917 C1916 1.349 . S
C1917 C1933 1.349 . S
C1918 C1916 1.327 . S
C1918 C1937 1.429 . S
C1918 H1942 0.950 . S
C1919 C1936 1.574 . S
C1919 C1938 1.368 . S
C1919 H1943 0.949 . S
H1920 C1924 0.949 . S
C1921 C1922 1.349 . S
C1921 C1923 1.327 . S
C1921 H1944 0.950 . S
C1922 C1921 1.349 . S
C1922 C1934 1.349 . S
C1923 C1921 1.327 . S
C1923 C1939 1.429 . S
C1923 H1945 0.950 . S
C1924 H1920 0.949 . S
C1924 C1932 1.574 . S
C1924 C1940 1.368 . S
H1925 C1933 0.950 . S
H1926 C1931 0.950 . S
H1927 C1932 0.949 . S
H1928 C1934 0.950 . S
H1929 C1935 0.950 . S
H1930 C1936 0.949 . S
C1931 H1926 0.950 . S
C1931 C1933 1.327 . S
C1931 C1937 1.429 . S
C1932 C1924 1.574 . S
C1932 H1927 0.949 . S
C1932 C1938 1.368 . S
C1933 C1917 1.349 . S
C1933 H1925 0.950 . S
C1933 C1931 1.327 . S
C1934 C1922 1.349 . S
C1934 H1928 0.950 . S
C1934 C1935 1.327 . S
C1935 H1929 0.950 . S
C1935 C1934 1.327 . S
C1935 C1939 1.429 . S
C1936 C1919 1.574 . S
C1936 H1930 0.949 . S
C1936 C1940 1.368 . S
C1937 C1918 1.429 . S
C1937 C1931 1.429 . S
C1937 C1938 1.523 . S
C1938 C1919 1.368 . S
C1938 C1932 1.368 . S
C1938 C1937 1.523 . S
C1939 C1923 1.429 . S
C1939 C1935 1.429 . S
C1939 C1940 1.523 . S
C1940 C1924 1.368 . S
C1940 C1936 1.368 . S
C1940 C1939 1.523 . S
H1941 C1916 0.950 . S
H1942 C1918 0.950 . S
H1943 C1919 0.949 . S
H1944 C1921 0.950 . S
H1945 C1923 0.950 . S
C1946 C1947 1.349 . S
C1946 C1948 1.327 . S
C1946 H1971 0.950 . S
C1947 C1946 1.349 . S
C1947 C1963 1.349 . S
C1948 C1946 1.327 . S
C1948 C1967 1.429 . S
C1948 H1972 0.950 . S
C1949 C1966 1.574 . S
C1949 C1968 1.368 . S
C1949 H1973 0.949 . S
H1950 C1954 0.949 . S
C1951 C1952 1.349 . S
C1951 C1953 1.327 . S
C1951 H1974 0.950 . S
C1952 C1951 1.349 . S
C1952 C1964 1.349 . S
C1953 C1951 1.327 . S
C1953 C1969 1.429 . S
C1953 H1975 0.950 . S
C1954 H1950 0.949 . S
C1954 C1962 1.574 . S
C1954 C1970 1.368 . S
H1955 C1963 0.950 . S
H1956 C1961 0.950 . S
H1957 C1962 0.949 . S
H1958 C1964 0.950 . S
H1959 C1965 0.950 . S
H1960 C1966 0.949 . S
C1961 H1956 0.950 . S
C1961 C1963 1.327 . S
C1961 C1967 1.429 . S
C1962 C1954 1.574 . S
C1962 H1957 0.949 . S
C1962 C1968 1.368 . S
C1963 C1947 1.349 . S
C1963 H1955 0.950 . S
C1963 C1961 1.327 . S
C1964 C1952 1.349 . S
C1964 H1958 0.950 . S
C1964 C1965 1.327 . S
C1965 H1959 0.950 . S
C1965 C1964 1.327 . S
C1965 C1969 1.429 . S
C1966 C1949 1.574 . S
C1966 H1960 0.949 . S
C1966 C1970 1.368 . S
C1967 C1948 1.429 . S
C1967 C1961 1.429 . S
C1967 C1968 1.523 . S
C1968 C1949 1.368 . S
C1968 C1962 1.368 . S
C1968 C1967 1.523 . S
C1969 C1953 1.429 . S
C1969 C1965 1.429 . S
C1969 C1970 1.523 . S
C1970 C1954 1.368 . S
C1970 C1966 1.368 . S
C1970 C1969 1.523 . S
H1971 C1946 0.950 . S
H1972 C1948 0.950 . S
H1973 C1949 0.949 . S
H1974 C1951 0.950 . S
H1975 C1953 0.950 . S
C1976 C1977 1.349 . S
C1976 C1978 1.327 . S
C1976 H2001 0.950 . S
C1977 C1976 1.349 . S
C1977 C1993 1.349 . S
C1978 C1976 1.327 . S
C1978 C1997 1.429 . S
C1978 H2002 0.950 . S
C1979 C1996 1.574 . S
C1979 C1998 1.368 . S
C1979 H2003 0.949 . S
H1980 C1984 0.949 . S
C1981 C1982 1.349 . S
C1981 C1983 1.327 . S
C1981 H2004 0.950 . S
C1982 C1981 1.349 . S
C1982 C1994 1.349 . S
C1983 C1981 1.327 . S
C1983 C1999 1.429 . S
C1983 H2005 0.950 . S
C1984 H1980 0.949 . S
C1984 C1992 1.574 . S
C1984 C2000 1.368 . S
H1985 C1993 0.950 . S
H1986 C1991 0.950 . S
H1987 C1992 0.949 . S
H1988 C1994 0.950 . S
H1989 C1995 0.950 . S
H1990 C1996 0.949 . S
C1991 H1986 0.950 . S
C1991 C1993 1.327 . S
C1991 C1997 1.429 . S
C1992 C1984 1.574 . S
C1992 H1987 0.949 . S
C1992 C1998 1.368 . S
C1993 C1977 1.349 . S
C1993 H1985 0.950 . S
C1993 C1991 1.327 . S
C1994 C1982 1.349 . S
C1994 H1988 0.950 . S
C1994 C1995 1.327 . S
C1995 H1989 0.950 . S
C1995 C1994 1.327 . S
C1995 C1999 1.429 . S
C1996 C1979 1.574 . S
C1996 H1990 0.949 . S
C1996 C2000 1.368 . S
C1997 C1978 1.429 . S
C1997 C1991 1.429 . S
C1997 C1998 1.523 . S
C1998 C1979 1.368 . S
C1998 C1992 1.368 . S
C1998 C1997 1.523 . S
C1999 C1983 1.429 . S
C1999 C1995 1.429 . S
C1999 C2000 1.523 . S
C2000 C1984 1.368 . S
C2000 C1996 1.368 . S
C2000 C1999 1.523 . S
H2001 C1976 0.950 . S
H2002 C1978 0.950 . S
H2003 C1979 0.949 . S
H2004 C1981 0.950 . S
H2005 C1983 0.950 . S
C2006 C2007 1.349 . S
C2006 C2008 1.327 . S
C2006 H2031 0.950 . S
C2007 C2006 1.349 . S
C2007 C2023 1.349 . S
C2008 C2006 1.327 . S
C2008 C2027 1.429 . S
C2008 H2032 0.950 . S
C2009 C2026 1.574 . S
C2009 C2028 1.368 . S
C2009 H2033 0.949 . S
H2010 C2014 0.949 . S
C2011 C2012 1.349 . S
C2011 C2013 1.327 . S
C2011 H2034 0.950 . S
C2012 C2011 1.349 . S
C2012 C2024 1.349 . S
C2013 C2011 1.327 . S
C2013 C2029 1.429 . S
C2013 H2035 0.950 . S
C2014 H2010 0.949 . S
C2014 C2022 1.574 . S
C2014 C2030 1.368 . S
H2015 C2023 0.950 . S
H2016 C2021 0.950 . S
H2017 C2022 0.949 . S
H2018 C2024 0.950 . S
H2019 C2025 0.950 . S
H2020 C2026 0.949 . S
C2021 H2016 0.950 . S
C2021 C2023 1.327 . S
C2021 C2027 1.429 . S
C2022 C2014 1.574 . S
C2022 H2017 0.949 . S
C2022 C2028 1.368 . S
C2023 C2007 1.349 . S
C2023 H2015 0.950 . S
C2023 C2021 1.327 . S
C2024 C2012 1.349 . S
C2024 H2018 0.950 . S
C2024 C2025 1.327 . S
C2025 H2019 0.950 . S
C2025 C2024 1.327 . S
C2025 C2029 1.429 . S
C2026 C2009 1.574 . S
C2026 H2020 0.949 . S
C2026 C2030 1.368 . S
C2027 C2008 1.429 . S
C2027 C2021 1.429 . S
C2027 C2028 1.523 . S
C2028 C2009 1.368 . S
C2028 C2022 1.368 . S
C2028 C2027 1.523 . S
C2029 C2013 1.429 . S
C2029 C2025 1.429 . S
C2029 C2030 1.523 . S
C2030 C2014 1.368 . S
C2030 C2026 1.368 . S
C2030 C2029 1.523 . S
H2031 C2006 0.950 . S
H2032 C2008 0.950 . S
H2033 C2009 0.949 . S
H2034 C2011 0.950 . S
H2035 C2013 0.950 . S
C602 C283 1.403 . S
C597 N2 1.385 . S
C632 C326 2.805 . S
C627 C7 2.827 . S
C662 C372 1.699 . S
C657 N12 1.604 . S
C687 C16 1.857 . S
C692 C415 1.887 . S
C722 C455 2.890 . S
C717 C30 2.897 1_565 S
C752 C483 1.498 . S
C747 N35 1.459 . S
C777 C39 2.025 . S
C782 C526 1.989 . S
C812 C572 1.261 . S
C807 N25 1.191 . S
C842 C278 1.166 . S
C837 N58 1.132 . S
C867 N81 1.864 . S
C872 C327 1.864 . S
C902 C366 1.409 . S
C897 N104 1.381 . S
C927 N127 1.063 . S
C932 C403 1.064 . S
C962 C443 0.691 . S
C957 N48 0.686 . S
C992 C478 1.599 . S
C987 N71 1.567 1_556 S
C1017 N94 1.082 . S
C1022 C527 1.069 . S
C1052 C566 2.001 . S
C1047 N117 2.008 . S
C1077 C85 2.542 . S
C1082 C295 2.493 . S
C1107 C122 2.353 . S
C1112 C438 2.321 . S
C1137 C53 2.028 . S
C1142 C495 1.975 . S
C1172 C532 1.308 . S
C1167 C76 1.336 1_655 S
C1202 C567 1.751 . S
C1197 C99 1.750 . S
C1232 C367 2.006 . S
C1227 C131 1.994 . S
C1262 C398 1.444 . S
C1257 C62 1.464 1_565 S
C1287 C108 0.964 . S
C1292 C332 0.957 . S
C1322 C563 1.464 . S
C1317 N140 1.450 . S
C1347 C145 2.823 . S
C1352 C446 2.799 . S
C1382 C492 1.596 . S
C1377 N150 1.502 . S
C1407 C154 1.864 . S
C1412 C535 1.894 . S
C1442 C335 2.894 . S
C1437 C168 2.902 . S
C1467 N173 1.349 . S
C1472 C363 1.389 . S
C1502 C406 1.992 . S
C1497 C177 2.030 . S
C1532 C292 1.330 . S
C1527 N163 1.252 . S
C1562 C558 1.627 . S
C1557 C200 1.623 . S
C1592 C447 2.160 . S
C1587 N219 2.159 . S
C1617 N242 1.627 . S
C1622 C486 1.659 . S
C1652 C523 1.310 . S
C1647 C269 1.355 . S
C1682 C323 0.974 . S
C1677 C191 0.993 . S
C1707 N209 1.814 . S
C1712 C358 1.852 . S
C1737 N232 1.392 . S
C1742 C407 1.374 . S
C1767 C260 2.549 . S
C1772 C286 2.507 . S
C1797 C223 2.253 . S
C1802 C575 2.209 . S
C1827 N255 1.888 . S
C1832 C318 1.907 . S
C1857 N186 1.505 . S
C1862 C375 1.504 . S
C1892 C412 1.010 . S
C1887 C214 1.028 . S
C1922 C287 1.439 . S
C1917 C237 1.439 . S
C1952 C487 1.575 . S
C1947 N265 1.516 . S
C1982 C518 1.088 . S
C1977 N196 1.089 . S
C2012 C452 0.666 . S
C2007 C246 0.660 . S
