# Generated by pormake.
# Topology ibd, (4,6)-cn, num edge types: 1
# Building blocks:
#     Node 0, Type 0, BuildingBlock: NAHDIM_clean_sbu_0, # of connection points: 4
#     Node 1, Type 0, BuildingBlock: NAHDIM_clean_sbu_0, # of connection points: 4
#     Node 2, Type 0, BuildingBlock: NAHDIM_clean_sbu_0, # of connection points: 4
#     Node 3, Type 0, BuildingBlock: NAHDIM_clean_sbu_0, # of connection points: 4
#     Node 4, Type 0, BuildingBlock: NAHDIM_clean_sbu_0, # of connection points: 4
#     Node 5, Type 0, BuildingBlock: NAHDIM_clean_sbu_0, # of connection points: 4
#     Node 6, Type 0, BuildingBlock: NAHDIM_clean_sbu_0, # of connection points: 4
#     Node 7, Type 0, BuildingBlock: NAHDIM_clean_sbu_0, # of connection points: 4
#     Node 8, Type 0, BuildingBlock: NAHDIM_clean_sbu_0, # of connection points: 4
#     Node 9, Type 0, BuildingBlock: NAHDIM_clean_sbu_0, # of connection points: 4
#     Node 10, Type 0, BuildingBlock: NAHDIM_clean_sbu_0, # of connection points: 4
#     Node 11, Type 0, BuildingBlock: NAHDIM_clean_sbu_0, # of connection points: 4
#     Node 12, Type 0, BuildingBlock: NAHDIM_clean_sbu_0, # of connection points: 4
#     Node 13, Type 0, BuildingBlock: NAHDIM_clean_sbu_0, # of connection points: 4
#     Node 14, Type 0, BuildingBlock: NAHDIM_clean_sbu_0, # of connection points: 4
#     Node 15, Type 0, BuildingBlock: NAHDIM_clean_sbu_0, # of connection points: 4
#     Node 16, Type 0, BuildingBlock: NAHDIM_clean_sbu_0, # of connection points: 4
#     Node 17, Type 0, BuildingBlock: NAHDIM_clean_sbu_0, # of connection points: 4
#     Node 18, Type 0, BuildingBlock: NAHDIM_clean_sbu_0, # of connection points: 4
#     Node 19, Type 0, BuildingBlock: NAHDIM_clean_sbu_0, # of connection points: 4
#     Node 20, Type 0, BuildingBlock: NAHDIM_clean_sbu_0, # of connection points: 4
#     Node 21, Type 0, BuildingBlock: NAHDIM_clean_sbu_0, # of connection points: 4
#     Node 22, Type 0, BuildingBlock: NAHDIM_clean_sbu_0, # of connection points: 4
#     Node 23, Type 0, BuildingBlock: NAHDIM_clean_sbu_0, # of connection points: 4
#     Node 24, Type 1, BuildingBlock: IZENUY_clean_sbu_0, # of connection points: 6
#     Node 25, Type 1, BuildingBlock: IZENUY_clean_sbu_0, # of connection points: 6
#     Node 26, Type 1, BuildingBlock: IZENUY_clean_sbu_0, # of connection points: 6
#     Node 27, Type 1, BuildingBlock: IZENUY_clean_sbu_0, # of connection points: 6
#     Node 28, Type 1, BuildingBlock: IZENUY_clean_sbu_0, # of connection points: 6
#     Node 29, Type 1, BuildingBlock: IZENUY_clean_sbu_0, # of connection points: 6
#     Node 30, Type 1, BuildingBlock: IZENUY_clean_sbu_0, # of connection points: 6
#     Node 31, Type 1, BuildingBlock: IZENUY_clean_sbu_0, # of connection points: 6
#     Node 32, Type 1, BuildingBlock: IZENUY_clean_sbu_0, # of connection points: 6
#     Node 33, Type 1, BuildingBlock: IZENUY_clean_sbu_0, # of connection points: 6
#     Node 34, Type 1, BuildingBlock: IZENUY_clean_sbu_0, # of connection points: 6
#     Node 35, Type 1, BuildingBlock: IZENUY_clean_sbu_0, # of connection points: 6
#     Node 36, Type 1, BuildingBlock: IZENUY_clean_sbu_0, # of connection points: 6
#     Node 37, Type 1, BuildingBlock: IZENUY_clean_sbu_0, # of connection points: 6
#     Node 38, Type 1, BuildingBlock: IZENUY_clean_sbu_0, # of connection points: 6
#     Node 39, Type 1, BuildingBlock: IZENUY_clean_sbu_0, # of connection points: 6
#     Edge 40, Type (0, 1), None
#     Edge 41, Type (0, 1), None
#     Edge 42, Type (0, 1), None
#     Edge 43, Type (0, 1), None
#     Edge 44, Type (0, 1), None
#     Edge 45, Type (0, 1), None
#     Edge 46, Type (0, 1), None
#     Edge 47, Type (0, 1), None
#     Edge 48, Type (0, 1), None
#     Edge 49, Type (0, 1), None
#     Edge 50, Type (0, 1), None
#     Edge 51, Type (0, 1), None
#     Edge 52, Type (0, 1), None
#     Edge 53, Type (0, 1), None
#     Edge 54, Type (0, 1), None
#     Edge 55, Type (0, 1), None
#     Edge 56, Type (0, 1), None
#     Edge 57, Type (0, 1), None
#     Edge 58, Type (0, 1), None
#     Edge 59, Type (0, 1), None
#     Edge 60, Type (0, 1), None
#     Edge 61, Type (0, 1), None
#     Edge 62, Type (0, 1), None
#     Edge 63, Type (0, 1), None
#     Edge 64, Type (0, 1), None
#     Edge 65, Type (0, 1), None
#     Edge 66, Type (0, 1), None
#     Edge 67, Type (0, 1), None
#     Edge 68, Type (0, 1), None
#     Edge 69, Type (0, 1), None
#     Edge 70, Type (0, 1), None
#     Edge 71, Type (0, 1), None
#     Edge 72, Type (0, 1), None
#     Edge 73, Type (0, 1), None
#     Edge 74, Type (0, 1), None
#     Edge 75, Type (0, 1), None
#     Edge 76, Type (0, 1), None
#     Edge 77, Type (0, 1), None
#     Edge 78, Type (0, 1), None
#     Edge 79, Type (0, 1), None
#     Edge 80, Type (0, 1), None
#     Edge 81, Type (0, 1), None
#     Edge 82, Type (0, 1), None
#     Edge 83, Type (0, 1), None
#     Edge 84, Type (0, 1), None
#     Edge 85, Type (0, 1), None
#     Edge 86, Type (0, 1), None
#     Edge 87, Type (0, 1), None
#     Edge 88, Type (0, 1), None
#     Edge 89, Type (0, 1), None
#     Edge 90, Type (0, 1), None
#     Edge 91, Type (0, 1), None
#     Edge 92, Type (0, 1), None
#     Edge 93, Type (0, 1), None
#     Edge 94, Type (0, 1), None
#     Edge 95, Type (0, 1), None
#     Edge 96, Type (0, 1), None
#     Edge 97, Type (0, 1), None
#     Edge 98, Type (0, 1), None
#     Edge 99, Type (0, 1), None
#     Edge 100, Type (0, 1), None
#     Edge 101, Type (0, 1), None
#     Edge 102, Type (0, 1), None
#     Edge 103, Type (0, 1), None
#     Edge 104, Type (0, 1), None
#     Edge 105, Type (0, 1), None
#     Edge 106, Type (0, 1), None
#     Edge 107, Type (0, 1), None
#     Edge 108, Type (0, 1), None
#     Edge 109, Type (0, 1), None
#     Edge 110, Type (0, 1), None
#     Edge 111, Type (0, 1), None
#     Edge 112, Type (0, 1), None
#     Edge 113, Type (0, 1), None
#     Edge 114, Type (0, 1), None
#     Edge 115, Type (0, 1), None
#     Edge 116, Type (0, 1), None
#     Edge 117, Type (0, 1), None
#     Edge 118, Type (0, 1), None
#     Edge 119, Type (0, 1), None
#     Edge 120, Type (0, 1), None
#     Edge 121, Type (0, 1), None
#     Edge 122, Type (0, 1), None
#     Edge 123, Type (0, 1), None
#     Edge 124, Type (0, 1), None
#     Edge 125, Type (0, 1), None
#     Edge 126, Type (0, 1), None
#     Edge 127, Type (0, 1), None
#     Edge 128, Type (0, 1), None
#     Edge 129, Type (0, 1), None
#     Edge 130, Type (0, 1), None
#     Edge 131, Type (0, 1), None
#     Edge 132, Type (0, 1), None
#     Edge 133, Type (0, 1), None
#     Edge 134, Type (0, 1), None
#     Edge 135, Type (0, 1), None
# Relax obj value: 0.318
# Max RMSD: 0.301
# Mean RMSD: 0.268
data_MOF--net-ibd--node1-NAHDIM_clean_sbu_0--node2-IZENUY_clean_sbu_0--edge1-none
_symmetry_space_group_name_H-M    P1
_symmetry_Int_Tables_number       1
_symmetry_cell_setting            triclinic
loop_
_symmetry_equiv_pos_as_xyz
'x, y, z'
_cell_length_a     22.694932
_cell_length_b     22.775288
_cell_length_c     23.05665
_cell_angle_alpha  91.453768
_cell_angle_beta   91.697706
_cell_angle_gamma 93.557977
loop_
_atom_site_label
_atom_site_type_symbol
_atom_site_fract_x
_atom_site_fract_y
_atom_site_fract_z
_atom_type_partial_charge
C0 C 0.08575 0.20966 0.29378 0.0
O1 O 0.08669 0.26739 0.29673 0.0
O2 O 0.04682 0.29061 0.42016 0.0
Zn3 Zn -0.00093 0.2316 0.36915 0.0
O4 O 0.95814 0.27148 0.30444 0.0
C5 C 0.97064 0.15543 0.45856 0.0
O6 O 0.02851 0.15475 0.45934 0.0
O7 O 0.05328 0.18031 0.32793 0.0
C8 C 0.92084 0.31039 0.29892 0.0
O9 O 0.89698 0.33348 0.34468 0.0
C10 C 0.0208 0.31669 0.4604 0.0
O11 O 0.96341 0.3076 0.46424 0.0
O12 O 0.94499 0.18364 0.41931 0.0
C13 C 0.0656 0.69282 0.70915 0.0
O14 O 0.00854 0.68413 0.6984 0.0
O15 O -0.00076 0.70193 0.56825 0.0
Zn16 Zn 0.03819 0.76344 0.62426 0.0
O17 O 0.98342 0.79817 0.68475 0.0
C18 C 0.05308 0.82917 0.52438 0.0
O19 O 0.99637 0.81352 0.5207 0.0
O20 O 0.09612 0.72517 0.67593 0.0
C21 C 0.93225 0.81637 0.6931 0.0
O22 O 0.89483 0.82126 0.64921 0.0
C23 C 0.94624 0.68062 0.56635 0.0
O24 O 0.91086 0.6939 0.60811 0.0
O25 O 0.08182 0.8198 0.57111 0.0
C26 C 0.58521 0.70882 0.79621 0.0
O27 O 0.58583 0.76654 0.79869 0.0
O28 O 0.54856 0.79133 0.92349 0.0
Zn29 Zn 0.50102 0.73117 0.87333 0.0
O30 O 0.45872 0.76936 0.80775 0.0
C31 C 0.47579 0.65495 0.96407 0.0
O32 O 0.53378 0.65637 0.96525 0.0
O33 O 0.55484 0.67971 0.83216 0.0
C34 C 0.42292 0.80971 0.80247 0.0
O35 O 0.40214 0.83525 0.84859 0.0
C36 C 0.52275 0.81707 0.96412 0.0
O37 O 0.4655 0.80718 0.96877 0.0
O38 O 0.44918 0.68222 0.92468 0.0
C39 C 0.56446 0.19131 0.20819 0.0
O40 O 0.50711 0.18298 0.19925 0.0
O41 O 0.49897 0.19949 0.06513 0.0
Zn42 Zn 0.536 0.26108 0.12234 0.0
O43 O 0.48012 0.2953 0.18231 0.0
C44 C 0.55057 0.32865 0.02413 0.0
O45 O 0.49394 0.31264 0.02041 0.0
O46 O 0.59415 0.22309 0.17384 0.0
C47 C 0.42982 0.31544 0.19102 0.0
O48 O 0.3933 0.32352 0.14715 0.0
C49 C 0.44636 0.17715 0.06272 0.0
O50 O 0.41042 0.18963 0.10428 0.0
O51 O 0.57951 0.31864 0.07053 0.0
C52 C 0.07223 0.65284 0.0625 0.0
O53 O 0.11287 0.67164 0.10143 0.0
O54 O 0.0598 0.75661 0.18006 0.0
Zn55 Zn 0.99325 0.72443 0.12494 0.0
O56 O 0.96424 0.78273 0.06533 0.0
C57 C 0.9289 0.71222 0.22612 0.0
O58 O 0.94913 0.76748 0.23111 0.0
O59 O 0.01898 0.66355 0.0701 0.0
C60 C 0.94473 0.83305 0.05612 0.0
O61 O 0.93376 0.86831 0.09989 0.0
C62 C 0.08111 0.80947 0.18264 0.0
O63 O 0.06662 0.84538 0.14164 0.0
O64 O 0.93451 0.68452 0.17826 0.0
C65 C 0.55069 0.67274 0.45765 0.0
O66 O 0.49278 0.67224 0.45427 0.0
O67 O 0.46933 0.70959 0.32863 0.0
Zn68 Zn 0.52965 0.7568 0.37918 0.0
O69 O 0.49061 0.79873 0.44369 0.0
C70 C 0.60637 0.78414 0.28891 0.0
O71 O 0.60616 0.72642 0.28775 0.0
O72 O 0.58046 0.70295 0.42197 0.0
C73 C 0.44993 0.83423 0.44783 0.0
O74 O 0.42487 0.85463 0.40107 0.0
C75 C 0.44293 0.73581 0.28848 0.0
O76 O 0.4529 0.79286 0.28422 0.0
O77 O 0.57854 0.80974 0.32832 0.0
C78 C 0.58605 0.15432 0.56107 0.0
O79 O 0.62556 0.17774 0.59895 0.0
O80 O 0.56387 0.25599 0.6786 0.0
Zn81 Zn 0.50045 0.22093 0.62192 0.0
O82 O 0.46913 0.27807 0.56164 0.0
C83 C 0.4335 0.20763 0.72171 0.0
O84 O 0.45172 0.26348 0.72637 0.0
O85 O 0.53179 0.16077 0.56891 0.0
C86 C 0.44798 0.32801 0.55386 0.0
O87 O 0.43689 0.36198 0.59858 0.0
C88 C 0.58186 0.30981 0.68219 0.0
O89 O 0.56621 0.34526 0.64122 0.0
O90 O 0.44168 0.17949 0.67458 0.0
C91 C 0.05656 0.17025 0.95558 0.0
O92 O -0.00144 0.16701 0.95215 0.0
O93 O 0.97134 0.20398 0.82538 0.0
Zn94 Zn 0.03074 0.25257 0.87655 0.0
O95 O 0.99053 0.29416 0.94076 0.0
C96 C 0.10464 0.28178 0.78545 0.0
O97 O 0.10526 0.22411 0.78402 0.0
O98 O 0.08475 0.20136 0.91949 0.0
C99 C 0.95356 0.3335 0.94522 0.0
O100 O 0.93304 0.35867 0.89884 0.0
C101 C 0.94369 0.23062 0.78629 0.0
O102 O 0.95184 0.28804 0.78382 0.0
O103 O 0.07732 0.30683 0.82553 0.0
C104 C 0.46165 0.92282 0.19346 0.0
O105 O 0.44494 0.90906 0.24564 0.0
O106 O 0.3169 0.95605 0.24703 0.0
Zn107 Zn 0.38535 0.00626 0.21821 0.0
O108 O 0.44427 0.03815 0.27942 0.0
C109 C 0.30818 0.09164 0.20498 0.0
O110 O 0.30974 0.0846 0.26137 0.0
O111 O 0.43638 0.96268 0.16679 0.0
C112 C 0.45263 0.05738 0.33133 0.0
O113 O 0.40792 0.06499 0.36497 0.0
C114 C 0.31188 0.94112 0.29925 0.0
O115 O 0.3567 0.95105 0.33618 0.0
O116 O 0.34669 0.06837 0.17468 0.0
C117 C 0.35504 0.04558 0.55389 0.0
O118 O 0.35631 0.04491 0.49697 0.0
O119 O 0.31604 0.18291 0.4728 0.0
Zn120 Zn 0.27154 0.12559 0.52426 0.0
O121 O 0.22121 0.06017 0.48295 0.0
C122 C 0.19953 0.21803 0.53901 0.0
O123 O 0.20732 0.21829 0.4829 0.0
O124 O 0.32521 0.08372 0.57871 0.0
C125 C 0.18772 0.06021 0.43788 0.0
O126 O 0.18269 0.10897 0.40948 0.0
C127 C 0.32672 0.1906 0.41957 0.0
O128 O 0.31128 0.14961 0.38007 0.0
O129 O 0.22055 0.17802 0.56934 0.0
C130 C 0.21087 0.902 0.69175 0.0
O131 O 0.20976 0.89812 0.74843 0.0
O132 O 0.07827 0.93975 0.77323 0.0
Zn133 Zn 0.13301 0.987 0.72149 0.0
O134 O 0.19816 0.03805 0.76245 0.0
C135 C 0.03675 0.05409 0.70482 0.0
O136 O 0.03475 0.04464 0.76058 0.0
O137 O 0.17493 0.93458 0.6671 0.0
C138 C 0.19734 0.07682 0.80292 0.0
O139 O 0.14735 0.08771 0.82705 0.0
C140 C 0.06983 0.93729 0.82748 0.0
O141 O 0.1067 0.96553 0.86493 0.0
O142 O 0.0792 0.03636 0.67585 0.0
C143 C 0.33643 0.79581 0.05344 0.0
O144 O 0.33795 0.80368 -0.0027 0.0
O145 O 0.30532 0.94463 -0.00105 0.0
Zn146 Zn 0.25798 0.87907 0.03654 0.0
O147 O 0.21577 0.81938 0.98273 0.0
C148 C 0.17595 0.95721 0.05451 0.0
O149 O 0.17801 0.95298 -0.00229 0.0
O150 O 0.30707 0.82917 0.08475 0.0
C151 C 0.18192 0.8128 0.93806 0.0
O152 O 0.16233 0.85843 0.91166 0.0
C153 C 0.31003 0.95073 0.94477 0.0
O154 O 0.28975 0.90827 0.9086 0.0
O155 O 0.20234 0.92073 0.08489 0.0
C156 C 0.16481 0.45089 0.92487 0.0
O157 O 0.12748 0.40624 0.91031 0.0
O158 O 0.2721 0.31346 0.94432 0.0
Zn159 Zn 0.24757 0.37995 -0.00364 0.0
O160 O 0.31633 0.42794 0.03469 0.0
C161 C 0.21889 0.3015 0.07877 0.0
O162 O 0.27674 0.30267 0.07648 0.0
O163 O 0.21048 0.44374 0.95582 0.0
C164 C 0.31062 0.44941 0.08532 0.0
O165 O 0.26713 0.42863 0.11672 0.0
C166 C 0.32609 0.30402 0.93832 0.0
O167 O 0.36685 0.34318 0.9588 0.0
O168 O 0.19192 0.33977 0.05131 0.0
C169 C 0.71938 0.21857 0.90583 0.0
O170 O 0.77638 0.22549 0.91785 0.0
O171 O 0.79164 0.06269 0.94466 0.0
Zn172 Zn 0.73632 0.12134 0.97687 0.0
O173 O 0.78017 0.18223 0.03141 0.0
C174 C 0.66682 0.05982 0.06556 0.0
O175 O 0.6906 0.09955 0.10296 0.0
O176 O 0.69176 0.17103 0.91991 0.0
C177 C 0.81937 0.18807 0.0722 0.0
O178 O 0.84303 0.14173 0.0935 0.0
C179 C 0.84282 0.05692 0.92499 0.0
O180 O 0.87836 0.10328 0.91603 0.0
O181 O 0.67651 0.06513 0.01213 0.0
C182 C 0.03856 0.54132 0.34392 0.0
O183 O 0.03092 0.4847 0.33139 0.0
O184 O 0.19694 0.46818 0.30397 0.0
Zn185 Zn 0.13651 0.52376 0.27311 0.0
O186 O 0.07503 0.48123 0.21737 0.0
C187 C 0.19871 0.59043 0.18428 0.0
O188 O 0.16168 0.56151 0.14736 0.0
O189 O 0.08676 0.56826 0.33041 0.0
C190 C 0.07043 0.44292 0.17593 0.0
O191 O 0.11769 0.42002 0.15583 0.0
C192 C 0.20362 0.417 0.32329 0.0
O193 O 0.1575 0.38141 0.33318 0.0
O194 O 0.19175 0.5847 0.23813 0.0
C195 C 0.70244 0.9603 0.41298 0.0
O196 O 0.75945 0.95531 0.40826 0.0
O197 O 0.76284 0.81152 0.44422 0.0
Zn198 Zn 0.72876 0.8779 0.49025 0.0
O199 O 0.79139 0.93944 0.5222 0.0
C200 C 0.71116 0.80027 0.57792 0.0
O201 O 0.76861 0.8015 0.57182 0.0
O202 O 0.67344 0.92379 0.44323 0.0
C203 C 0.80244 0.95205 0.57549 0.0
O204 O 0.77662 0.92001 0.61511 0.0
C205 C 0.81783 0.80458 0.44143 0.0
O206 O 0.85593 0.84576 0.46297 0.0
O207 O 0.68191 0.83736 0.55129 0.0
C208 C 0.81382 0.11824 0.31046 0.0
O209 O 0.85363 0.16224 0.30699 0.0
O210 O 0.94951 0.99193 0.30407 0.0
Zn211 Zn 0.88279 0.02082 0.25359 0.0
O212 O 0.82803 0.95396 0.22031 0.0
C213 C 0.96339 0.04466 0.17051 0.0
O214 O 0.96296 0.98722 0.17492 0.0
O215 O 0.82428 0.06656 0.29385 0.0
C216 C 0.81075 0.95058 0.16749 0.0
O217 O 0.83714 0.98501 0.13007 0.0
C218 C 0.95778 0.93739 0.3072 0.0
O219 O 0.91736 0.89868 0.28526 0.0
O220 O 0.92385 0.07182 0.1956 0.0
C221 C 0.22121 0.7174 0.40573 0.0
O222 O 0.27809 0.72419 0.41845 0.0
O223 O 0.29421 0.56182 0.44568 0.0
Zn224 Zn 0.23736 0.62004 0.47676 0.0
O225 O 0.279 0.68133 0.53263 0.0
C226 C 0.16454 0.55838 0.56331 0.0
O227 O 0.18608 0.59865 0.60131 0.0
O228 O 0.19341 0.66974 0.4192 0.0
C229 C 0.31748 0.68705 0.57408 0.0
O230 O 0.34156 0.6407 0.59486 0.0
C231 C 0.34505 0.55582 0.4252 0.0
O232 O 0.37965 0.60214 0.41375 0.0
O233 O 0.17697 0.56326 0.51044 0.0
C234 C 0.30528 0.60788 0.81783 0.0
O235 O 0.34776 0.64952 0.82465 0.0
O236 O 0.44366 0.48939 0.80574 0.0
Zn237 Zn 0.37667 0.51684 0.75464 0.0
O238 O 0.32525 0.4491 0.71867 0.0
C239 C 0.45767 0.54345 0.67288 0.0
O240 O 0.45723 0.48589 0.67616 0.0
O241 O 0.31472 0.55856 0.79455 0.0
C242 C 0.30705 0.44908 0.66619 0.0
O243 O 0.33153 0.48721 0.63098 0.0
C244 C 0.45348 0.43515 0.80778 0.0
O245 O 0.41422 0.39588 0.78479 0.0
O246 O 0.418 0.57009 0.6984 0.0
C247 C 0.53876 0.03593 0.84152 0.0
O248 O 0.53108 0.97963 0.82758 0.0
O249 O 0.69708 0.96617 0.80142 0.0
Zn250 Zn 0.63711 0.02146 0.77125 0.0
O251 O 0.57589 0.97975 0.71548 0.0
C252 C 0.69743 0.09085 0.68366 0.0
O253 O 0.65942 0.06314 0.64683 0.0
O254 O 0.5872 0.0633 0.82942 0.0
C255 C 0.57067 0.94008 0.67541 0.0
O256 O 0.61736 0.91485 0.65695 0.0
C257 C 0.70373 0.91522 0.82105 0.0
O258 O 0.65768 0.87983 0.83166 0.0
O259 O 0.69182 0.08341 0.73744 0.0
C260 C 0.85542 0.54659 0.05088 0.0
O261 O 0.85646 0.54705 -0.00602 0.0
O262 O 0.81735 0.68339 0.97276 0.0
Zn263 Zn 0.77139 0.62603 0.02305 0.0
O264 O 0.72052 0.56095 0.98137 0.0
C265 C 0.70163 0.71973 0.04004 0.0
O266 O 0.71 0.72144 0.98406 0.0
O267 O 0.82513 0.58371 0.0766 0.0
C268 C 0.68483 0.56107 0.93792 0.0
O269 O 0.67748 0.61015 0.91068 0.0
C270 C 0.82605 0.69227 0.91935 0.0
O271 O 0.80581 0.6537 0.87926 0.0
O272 O 0.72117 0.6782 0.06926 0.0
C273 C 0.95784 0.4209 0.69053 0.0
O274 O 0.93977 0.40474 0.74159 0.0
O275 O 0.81241 0.45376 0.74492 0.0
Zn276 Zn 0.87993 0.50432 0.71531 0.0
O277 O 0.9361 0.53888 0.77676 0.0
C278 C 0.80299 0.58948 0.70309 0.0
O279 O 0.80575 0.58277 0.7595 0.0
O280 O 0.93314 0.46182 0.66495 0.0
C281 C 0.94269 0.561 0.82773 0.0
O282 O 0.89702 0.56971 0.85975 0.0
C283 C 0.80782 0.44089 0.79777 0.0
O284 O 0.85295 0.45198 0.83412 0.0
O285 O 0.84036 0.56553 0.67191 0.0
C286 C 0.83572 0.30041 0.5566 0.0
O287 O 0.84454 0.31411 0.50247 0.0
O288 O 0.80453 0.4474 0.50359 0.0
Zn289 Zn 0.75476 0.38156 0.53745 0.0
O290 O 0.71508 0.32579 0.47893 0.0
C291 C 0.67068 0.45754 0.55377 0.0
O292 O 0.67478 0.45446 0.4971 0.0
O293 O 0.80021 0.32887 0.58598 0.0
C294 C 0.68182 0.31856 0.43387 0.0
O295 O 0.65892 0.36333 0.40885 0.0
C296 C 0.81174 0.45287 0.44963 0.0
O297 O 0.79286 0.41006 0.41324 0.0
O298 O 0.69693 0.4212 0.58436 0.0
C299 C 0.70998 0.4012 0.18464 0.0
O300 O 0.70513 0.38609 0.23893 0.0
O301 O 0.58003 0.43602 0.272 0.0
Zn302 Zn 0.63468 0.48792 0.22396 0.0
O303 O 0.69831 0.53713 0.26844 0.0
C304 C 0.53916 0.55694 0.21217 0.0
O305 O 0.53694 0.54388 0.26711 0.0
O306 O 0.67841 0.44114 0.1659 0.0
C307 C 0.69671 0.57649 0.30825 0.0
O308 O 0.64622 0.58893 0.33043 0.0
C309 C 0.57 0.4355 0.32605 0.0
O310 O 0.60399 0.46786 0.36296 0.0
O311 O 0.5811 0.54017 0.18194 0.0
Fe312 Fe 0.13555 0.07776 0.18147 0.0
Fe313 Fe 0.0817 0.18243 0.12522 0.0
O314 O 0.13543 0.13016 0.12676 0.0
Fe315 Fe 0.18918 0.12985 0.07348 0.0
O316 O 0.16277 0.05691 0.04877 0.0
O317 O 0.16607 0.02023 0.13577 0.0
O318 O 0.06381 0.04744 0.15715 0.0
C319 C 0.01854 0.07649 0.15545 0.0
C320 C 0.2526 0.10599 0.17679 0.0
O321 O 0.02309 0.13248 0.15541 0.0
C322 C 0.18746 0.24674 0.09532 0.0
O323 O 0.10421 0.12551 0.23693 0.0
O324 O 0.10614 0.21145 0.19601 0.0
O325 O 0.24677 0.10192 0.12187 0.0
O326 O 0.20783 0.10594 0.20778 0.0
C327 C 0.08566 0.15597 0.01036 0.0
O328 O 0.13128 0.24115 0.09455 0.0
O329 O 0.21758 0.20232 0.09628 0.0
C330 C 0.10479 0.18113 0.24082 0.0
O331 O 0.05453 0.15586 0.05452 0.0
O332 O 0.14154 0.15836 0.01551 0.0
C333 C 0.16235 0.01318 0.08105 0.0
Fe334 Fe 0.0835 0.82085 0.35335 0.0
Fe335 Fe 0.13471 0.93793 0.30731 0.0
O336 O 0.13563 0.88217 0.35968 0.0
Fe337 Fe 0.18872 0.8879 0.4179 0.0
O338 O 0.21802 0.8188 0.39729 0.0
O339 O 0.13356 0.76719 0.38382 0.0
O340 O 0.10799 0.80045 0.28154 0.0
C341 C 0.1049 0.83397 0.23889 0.0
C342 C 0.08386 0.84398 0.47084 0.0
O343 O 0.10597 0.88913 0.247 0.0
C344 C 0.16609 0.00332 0.4115 0.0
O345 O 0.02401 0.86325 0.32262 0.0
O346 O 0.0603 0.95538 0.32621 0.0
O347 O 0.13955 0.85326 0.47149 0.0
O348 O 0.05452 0.83733 0.4237 0.0
C349 C 0.2532 0.9246 0.32056 0.0
O350 O 0.16333 -0.00186 0.35681 0.0
O351 O 0.16457 0.95846 0.4425 0.0
C352 C 0.01657 0.91804 0.32349 0.0
O353 O 0.2089 0.92326 0.2858 0.0
O354 O 0.24708 0.92285 0.37489 0.0
C355 C 0.18932 0.76996 0.39132 0.0
Fe356 Fe 0.38867 0.92808 0.67905 0.0
Fe357 Fe 0.3297 0.8684 0.56884 0.0
O358 O 0.38635 0.87115 0.62432 0.0
Fe359 Fe 0.44004 0.81744 0.62501 0.0
O360 O 0.44517 0.81432 0.70416 0.0
O361 O 0.38135 0.87549 0.73694 0.0
O362 O 0.30886 0.93255 0.67992 0.0
C363 C 0.26732 0.89554 0.66453 0.0
C364 C 0.51042 0.91575 0.65952 0.0
O365 O 0.27179 0.86064 0.62174 0.0
C366 C 0.42566 0.8434 0.50538 0.0
O367 O 0.3963 0.98552 0.6255 0.0
O368 O 0.32457 0.94788 0.56712 0.0
O369 O 0.50183 0.87287 0.62389 0.0
O370 O 0.46883 0.93377 0.68895 0.0
C371 C 0.34173 0.74723 0.58972 0.0
O372 O 0.38308 0.87582 0.51178 0.0
O373 O 0.44369 0.81191 0.54596 0.0
C374 C 0.36119 0.9897 0.58255 0.0
O375 O 0.32437 0.78847 0.55932 0.0
O376 O 0.3841 0.75609 0.62622 0.0
C377 C 0.41377 0.83307 0.74432 0.0
Fe378 Fe 0.43815 0.17516 0.89246 0.0
Fe379 Fe 0.36888 0.07256 0.82638 0.0
O380 O 0.37516 0.12515 0.88472 0.0
Fe381 Fe 0.31842 0.12763 0.93588 0.0
O382 O 0.30393 0.20274 0.91703 0.0
O383 O 0.39743 0.23555 0.92262 0.0
O384 O 0.42376 0.20519 0.82207 0.0
C385 C 0.41692 0.17656 0.7747 0.0
C386 C 0.42212 0.15367 0.00639 0.0
O387 O 0.40602 0.12118 0.77362 0.0
C388 C 0.32803 0.00882 0.92288 0.0
O389 O 0.4907 0.12396 0.86284 0.0
O390 O 0.43694 0.04116 0.84835 0.0
O391 O 0.36701 0.15427 -0.00278 0.0
O392 O 0.45636 0.14946 0.96447 0.0
C393 C 0.25392 0.09852 0.8303 0.0
O394 O 0.33108 0.01492 0.86857 0.0
O395 O 0.3304 0.05299 0.95748 0.0
C396 C 0.48655 0.06851 0.85531 0.0
O397 O 0.29947 0.09882 0.80033 0.0
O398 O 0.25811 0.10128 0.88506 0.0
C399 C 0.34298 0.24499 0.92099 0.0
Fe400 Fe 0.58117 0.32089 0.85331 0.0
Fe401 Fe 0.63057 0.43865 0.80764 0.0
O402 O 0.63251 0.38281 0.85983 0.0
Fe403 Fe 0.68587 0.38884 0.9178 0.0
O404 O 0.71558 0.31992 0.89714 0.0
O405 O 0.63153 0.26775 0.88394 0.0
O406 O 0.60638 0.30107 0.78161 0.0
C407 C 0.60317 0.3347 0.73904 0.0
C408 C 0.5812 0.34401 0.97071 0.0
O409 O 0.60227 0.38969 0.74734 0.0
C410 C 0.66269 0.50419 0.91171 0.0
O411 O 0.52123 0.36246 0.82243 0.0
O412 O 0.55591 0.45506 0.827 0.0
O413 O 0.63686 0.35397 0.97144 0.0
O414 O 0.55189 0.33698 0.92356 0.0
C415 C 0.74932 0.42553 0.81997 0.0
O416 O 0.65896 0.49909 0.85704 0.0
O417 O 0.66163 0.4593 0.94262 0.0
C418 C 0.51275 0.417 0.824 0.0
O419 O 0.70472 0.42472 0.78565 0.0
O420 O 0.74381 0.42397 0.8744 0.0
C421 C 0.68723 0.2709 0.89135 0.0
Fe422 Fe 0.83209 0.36889 0.06431 0.0
Fe423 Fe 0.88805 0.42911 0.17561 0.0
O424 O 0.88755 0.37234 0.12082 0.0
Fe425 Fe 0.94187 0.31935 0.12268 0.0
O426 O 0.94683 0.31304 0.04378 0.0
O427 O 0.88657 0.37645 0.00821 0.0
O428 O 0.82664 0.44828 0.06217 0.0
C429 C 0.86251 0.49043 0.07851 0.0
C430 C 0.84437 0.24821 0.08666 0.0
O431 O 0.89654 0.48664 0.12237 0.0
C432 C 0.9127 0.33439 0.24104 0.0
O433 O 0.7731 0.36073 0.11609 0.0
O434 O 0.80804 0.43327 0.17452 0.0
O435 O 0.88645 0.25746 0.12346 0.0
O436 O 0.82748 0.28897 0.05537 0.0
C437 C 0.01055 0.41819 0.15868 0.0
O438 O 0.87958 0.37615 0.23308 0.0
O439 O 0.94573 0.31681 0.20175 0.0
C440 C 0.76712 0.39592 0.15831 0.0
O441 O 0.96811 0.43534 0.18751 0.0
O442 O 0.00298 0.37573 0.12233 0.0
C443 C 0.9291 0.34382 0.00255 0.0
Fe444 Fe 0.81747 0.62878 0.44087 0.0
Fe445 Fe 0.93559 0.67942 0.39648 0.0
O446 O 0.8738 0.62797 0.38922 0.0
Fe447 Fe 0.86816 0.57562 0.33087 0.0
O448 O 0.7981 0.60069 0.30559 0.0
O449 O 0.75731 0.60071 0.39059 0.0
O450 O 0.80049 0.70288 0.42171 0.0
C451 C 0.83802 0.74634 0.42546 0.0
C452 C 0.8298 0.51085 0.42776 0.0
O453 O 0.89304 0.7388 0.42721 0.0
C454 C 0.98621 0.57379 0.35832 0.0
O455 O 0.86606 0.65697 0.50176 0.0
O456 O 0.95511 0.6537 0.46803 0.0
O457 O 0.83196 0.51717 0.37338 0.0
O458 O 0.83195 0.55487 0.46246 0.0
C459 C 0.9132 0.68076 0.27907 0.0
O460 O 0.9894 0.62935 0.36609 0.0
O461 O 0.93697 0.54564 0.35221 0.0
C462 C 0.92132 0.65716 0.51033 0.0
O463 O 0.91981 0.70937 0.32642 0.0
O464 O 0.90377 0.62519 0.27796 0.0
C465 C 0.75277 0.59894 0.33583 0.0
Fe466 Fe 0.94247 0.8214 0.87458 0.0
Fe467 Fe 0.83433 0.87413 0.92834 0.0
O468 O 0.88799 0.87433 0.87385 0.0
Fe469 Fe 0.88732 0.92727 0.81867 0.0
O470 O 0.96778 0.93232 0.81185 0.0
O471 O 0.00257 0.87843 0.88155 0.0
O472 O 0.94577 0.81542 0.95451 0.0
C473 C 0.92895 0.84787 -0.00434 0.0
C474 C 0.91691 0.8334 0.75296 0.0
O475 O 0.89064 0.88467 0.98633 0.0
C476 C 0.76435 0.89962 0.83571 0.0
O477 O 0.88645 0.76035 0.86751 0.0
O478 O 0.83105 0.794 0.93626 0.0
O479 O 0.87877 0.87058 0.76117 0.0
O480 O 0.94932 0.81759 0.79485 0.0
C481 C 0.8593 0.9969 0.91017 0.0
O482 O 0.77329 0.86357 0.87521 0.0
O483 O 0.80662 0.93158 0.81625 0.0
C484 C 0.84671 0.7521 0.90416 0.0
O485 O 0.82797 0.95425 0.92964 0.0
O486 O 0.89596 0.98866 0.87115 0.0
C487 C 0.01016 0.9177 0.84432 0.0
Fe488 Fe 0.86858 0.08772 0.68736 0.0
Fe489 Fe 0.82894 0.12532 0.5664 0.0
O490 O 0.88073 0.13063 0.62555 0.0
Fe491 Fe 0.94417 0.17961 0.62256 0.0
O492 O 0.9241 0.22 0.68681 0.0
O493 O 0.90404 0.14272 0.73961 0.0
O494 O 0.79816 0.11945 0.69963 0.0
C495 C 0.75528 0.11269 0.66332 0.0
C496 C 0.98719 0.08012 0.67665 0.0
O497 O 0.76452 0.10624 0.60987 0.0
C498 C 0.93887 0.14052 0.51103 0.0
O499 O 0.83228 0.02469 0.64598 0.0
O500 O 0.84082 0.04767 0.55404 0.0
O501 O 0.99236 0.13396 0.6648 0.0
O502 O 0.9373 0.05298 0.67911 0.0
C503 C 0.85307 0.24392 0.57649 0.0
O504 O 0.88337 0.14361 0.51084 0.0
O505 O 0.96831 0.1422 0.55818 0.0
C506 C 0.83131 0.00975 0.59254 0.0
O507 O 0.81393 0.20207 0.57692 0.0
O508 O 0.90732 0.23456 0.58005 0.0
C509 C 0.918 0.19716 0.73557 0.0
Fe510 Fe 0.63389 0.08318 0.31808 0.0
Fe511 Fe 0.6944 0.13989 0.42812 0.0
O512 O 0.63384 0.13394 0.37742 0.0
Fe513 Fe 0.57366 0.17901 0.38562 0.0
O514 O 0.55843 0.18451 0.30774 0.0
O515 O 0.6308 0.14138 0.26588 0.0
O516 O 0.71424 0.08825 0.31198 0.0
C517 C 0.7541 0.12648 0.32956 0.0
C518 C 0.51292 0.07853 0.34884 0.0
O519 O 0.7462 0.16016 0.37232 0.0
C520 C 0.60274 0.14775 0.50083 0.0
O521 O 0.63722 0.02136 0.36602 0.0
O522 O 0.71026 0.06221 0.42117 0.0
O523 O 0.52119 0.11595 0.38983 0.0
O524 O 0.55339 0.06928 0.31368 0.0
C525 C 0.66492 0.25787 0.41586 0.0
O526 O 0.64764 0.12069 0.48821 0.0
O527 O 0.57844 0.18039 0.46479 0.0
C528 C 0.67939 0.01725 0.4022 0.0
O529 O 0.68891 0.21808 0.44358 0.0
O530 O 0.62112 0.24601 0.38185 0.0
C531 C 0.58922 0.17547 0.26398 0.0
Fe532 Fe 0.57945 0.8131 0.12609 0.0
Fe533 Fe 0.67014 0.88831 0.05917 0.0
O534 O 0.62931 0.87569 0.12222 0.0
Fe535 Fe 0.63761 0.92632 0.1818 0.0
O536 O 0.56071 0.94288 0.17357 0.0
O537 O 0.52644 0.85032 0.17045 0.0
O538 O 0.53702 0.8345 0.0634 0.0
C539 C 0.55813 0.84155 0.01407 0.0
C540 C 0.62173 0.8162 0.23662 0.0
O541 O 0.61268 0.85469 0.00842 0.0
C542 C 0.75233 0.92214 0.15175 0.0
O543 O 0.62307 0.76485 0.08202 0.0
O544 O 0.70421 0.81906 0.06525 0.0
O545 O 0.61995 0.87165 0.23736 0.0
O546 O 0.61866 0.78758 0.18916 0.0
C547 C 0.64716 0.00131 0.08572 0.0
O548 O 0.73524 0.92298 0.09892 0.0
O549 O 0.71559 0.91253 0.19139 0.0
C550 C 0.67658 0.76957 0.06835 0.0
O551 O 0.63895 0.95925 0.04893 0.0
O552 O 0.65626 0.99102 0.13868 0.0
C553 C 0.51805 0.90458 0.17406 0.0
Fe554 Fe 0.44627 0.68024 0.1267 0.0
Fe555 Fe 0.33348 0.62135 0.06972 0.0
O556 O 0.38346 0.63051 0.13009 0.0
Fe557 Fe 0.36997 0.59004 0.19332 0.0
O558 O 0.43929 0.55598 0.18862 0.0
O559 O 0.49441 0.63633 0.17099 0.0
O560 O 0.47248 0.64169 0.0638 0.0
C561 C 0.44402 0.63846 0.0161 0.0
C562 C 0.41749 0.70121 0.23854 0.0
O563 O 0.3884 0.63922 0.01483 0.0
C564 C 0.25702 0.61193 0.16473 0.0
O565 O 0.40888 0.73311 0.0821 0.0
O566 O 0.31613 0.69782 0.07619 0.0
O567 O 0.40345 0.64707 0.24421 0.0
O568 O 0.42459 0.72232 0.18919 0.0
C569 C 0.33875 0.50749 0.1013 0.0
O570 O 0.26819 0.60239 0.11211 0.0
O571 O 0.29874 0.62137 0.20201 0.0
C572 C 0.35435 0.74061 0.07594 0.0
O573 O 0.3487 0.54389 0.06148 0.0
O574 O 0.33561 0.52508 0.15365 0.0
C575 C 0.48906 0.58314 0.1853 0.0
Fe576 Fe 0.12372 0.58121 0.8197 0.0
Fe577 Fe 0.18219 0.63185 0.93313 0.0
O578 O 0.12413 0.63085 0.88003 0.0
Fe579 Fe 0.06668 0.67937 0.8866 0.0
O580 O 0.05569 0.68677 0.80824 0.0
O581 O 0.12804 0.64108 0.76916 0.0
O582 O 0.20438 0.57978 0.81763 0.0
C583 C 0.24546 0.61566 0.83722 0.0
C584 C 0.00247 0.58244 0.84599 0.0
O585 O 0.23768 0.64902 0.88009 0.0
C586 C 0.08912 0.64541 0.00251 0.0
O587 O 0.11856 0.51847 0.86615 0.0
O588 O 0.19094 0.55222 0.92617 0.0
O589 O 0.01066 0.61895 0.88777 0.0
O590 O 0.04325 0.57327 0.81125 0.0
C591 C 0.16124 0.75263 0.92095 0.0
O592 O 0.13215 0.61546 -0.00906 0.0
O593 O 0.06799 0.67964 0.96595 0.0
C594 C 0.15578 0.51047 0.90618 0.0
O595 O 0.18212 0.71104 0.94888 0.0
O596 O 0.11802 0.74361 0.88568 0.0
C597 C 0.08836 0.6773 0.76586 0.0
Fe598 Fe 0.16758 0.38692 0.55668 0.0
Fe599 Fe 0.07612 0.31173 0.62257 0.0
O600 O 0.12609 0.37428 0.6193 0.0
Fe601 Fe 0.13397 0.42463 0.67906 0.0
O602 O 0.21189 0.41077 0.68904 0.0
O603 O 0.23231 0.42164 0.59686 0.0
O604 O 0.20158 0.31761 0.56324 0.0
C605 C 0.17383 0.26816 0.56616 0.0
C606 C 0.14438 0.49986 0.58312 0.0
O607 O 0.11995 0.26366 0.57853 0.0
C608 C 0.01441 0.40286 0.67108 0.0
O609 O 0.11052 0.35337 0.50552 0.0
O610 O 0.03418 0.33371 0.5598 0.0
O611 O 0.15278 0.48948 0.63617 0.0
O612 O 0.13658 0.45789 0.54616 0.0
C613 C 0.11849 0.31423 0.73312 0.0
O614 O 0.02286 0.34863 0.66697 0.0
O615 O 0.05704 0.4412 0.67061 0.0
C616 C 0.05581 0.34077 0.51068 0.0
O617 O 0.11497 0.28577 0.68559 0.0
O618 O 0.11623 0.36963 0.73422 0.0
C619 C 0.24897 0.42046 0.64976 0.0
Fe620 Fe 0.68274 0.62938 0.57409 0.0
Fe621 Fe 0.63019 0.57655 0.68221 0.0
O622 O 0.62941 0.62919 0.6278 0.0
Fe623 Fe 0.5756 0.68137 0.62697 0.0
O624 O 0.54796 0.65508 0.55617 0.0
O625 O 0.6349 0.65858 0.517 0.0
O626 O 0.65597 0.55682 0.54884 0.0
C627 C 0.65585 0.51281 0.58073 0.0
C628 C 0.68102 0.74589 0.59673 0.0
O629 O 0.65976 0.5193 0.63552 0.0
C630 C 0.60114 0.67991 0.74232 0.0
O631 O 0.74061 0.60075 0.62129 0.0
O632 O 0.70291 0.60435 0.70768 0.0
O633 O 0.62487 0.73999 0.59622 0.0
O634 O 0.71139 0.70164 0.59752 0.0
C635 C 0.51276 0.5755 0.65782 0.0
O636 O 0.60006 0.62427 0.7384 0.0
O637 O 0.60073 0.71023 0.69753 0.0
C638 C 0.7472 0.60446 0.67607 0.0
O639 O 0.55805 0.54647 0.65889 0.0
O640 O 0.51725 0.63146 0.65765 0.0
C641 C 0.57907 0.65618 0.51192 0.0
Fe642 Fe 0.44214 0.31899 0.37235 0.0
Fe643 Fe 0.38742 0.4261 0.31811 0.0
O644 O 0.38827 0.37267 0.37296 0.0
Fe645 Fe 0.33559 0.37274 0.42844 0.0
O646 O 0.33122 0.29248 0.43539 0.0
O647 O 0.38551 0.2585 0.36583 0.0
O648 O 0.44775 0.31567 0.29255 0.0
C649 C 0.41512 0.33219 0.25119 0.0
C650 C 0.43089 0.34396 0.49395 0.0
O651 O 0.37758 0.36984 0.26019 0.0
C652 C 0.36145 0.49562 0.41061 0.0
O653 O 0.50282 0.37536 0.37889 0.0
O654 O 0.46781 0.43041 0.31022 0.0
O655 O 0.39294 0.38147 0.48581 0.0
O656 O 0.44682 0.31211 0.45202 0.0
C657 C 0.26432 0.40057 0.33723 0.0
O658 O 0.39732 0.48718 0.37089 0.0
O659 O 0.33053 0.45307 0.43083 0.0
C660 C 0.51032 0.41504 0.34209 0.0
O661 O 0.30677 0.43153 0.3168 0.0
O662 O 0.2734 0.36399 0.37627 0.0
C663 C 0.34656 0.25039 0.40332 0.0
loop_
_geom_bond_atom_site_label_1
_geom_bond_atom_site_label_2
_geom_bond_distance
_geom_bond_site_symmetry_2
_ccdc_geom_bond_type
C0 O1 1.160 . S
C0 O7 1.185 . S
O1 C0 1.160 . S
O2 Zn3 1.899 . S
O2 C10 1.284 . S
Zn3 O2 1.899 . S
Zn3 O4 2.032 1_455 S
Zn3 O7 2.086 . S
Zn3 O12 1.977 1_455 S
O4 Zn3 2.032 1_655 S
O4 C8 1.278 . S
C5 O6 1.203 . S
C5 O12 1.267 . S
O6 C5 1.203 . S
O7 C0 1.185 . S
O7 Zn3 2.086 . S
C8 O4 1.278 . S
C8 O9 1.211 . S
O9 C8 1.211 . S
C10 O2 1.284 . S
C10 O11 1.273 . S
O11 C10 1.273 . S
O12 Zn3 1.977 1_655 S
O12 C5 1.267 . S
C13 O14 1.160 . S
C13 O20 1.185 . S
O14 C13 1.160 . S
O15 Zn16 1.899 1_655 S
O15 C23 1.284 . S
Zn16 O15 1.899 1_455 S
Zn16 O17 2.032 1_455 S
Zn16 O20 2.086 . S
Zn16 O25 1.977 . S
O17 Zn16 2.032 1_655 S
O17 C21 1.278 . S
C18 O19 1.203 . S
C18 O25 1.267 . S
O19 C18 1.203 . S
O20 C13 1.185 . S
O20 Zn16 2.086 . S
C21 O17 1.278 . S
C21 O22 1.211 . S
O22 C21 1.211 . S
C23 O15 1.284 . S
C23 O24 1.273 . S
O24 C23 1.273 . S
O25 Zn16 1.977 . S
O25 C18 1.267 . S
C26 O27 1.160 . S
C26 O33 1.185 . S
O27 C26 1.160 . S
O28 Zn29 1.899 . S
O28 C36 1.284 . S
Zn29 O28 1.899 . S
Zn29 O30 2.032 . S
Zn29 O33 2.086 . S
Zn29 O38 1.977 . S
O30 Zn29 2.032 . S
O30 C34 1.278 . S
C31 O32 1.203 . S
C31 O38 1.267 . S
O32 C31 1.203 . S
O33 C26 1.185 . S
O33 Zn29 2.086 . S
C34 O30 1.278 . S
C34 O35 1.211 . S
O35 C34 1.211 . S
C36 O28 1.284 . S
C36 O37 1.273 . S
O37 C36 1.273 . S
O38 Zn29 1.977 . S
O38 C31 1.267 . S
C39 O40 1.160 . S
C39 O46 1.185 . S
O40 C39 1.160 . S
O41 Zn42 1.899 . S
O41 C49 1.284 . S
Zn42 O41 1.899 . S
Zn42 O43 2.032 . S
Zn42 O46 2.086 . S
Zn42 O51 1.977 . S
O43 Zn42 2.032 . S
O43 C47 1.278 . S
C44 O45 1.203 . S
C44 O51 1.267 . S
O45 C44 1.203 . S
O46 C39 1.185 . S
O46 Zn42 2.086 . S
C47 O43 1.278 . S
C47 O48 1.211 . S
O48 C47 1.211 . S
C49 O41 1.284 . S
C49 O50 1.273 . S
O50 C49 1.273 . S
O51 Zn42 1.977 . S
O51 C44 1.267 . S
C52 O53 1.160 . S
C52 O59 1.185 . S
O53 C52 1.160 . S
O54 Zn55 1.899 . S
O54 C62 1.284 . S
Zn55 O54 1.899 . S
Zn55 O56 2.032 1_455 S
Zn55 O59 2.086 . S
Zn55 O64 1.977 1_455 S
O56 Zn55 2.032 1_655 S
O56 C60 1.278 . S
C57 O58 1.203 . S
C57 O64 1.267 . S
O58 C57 1.203 . S
O59 C52 1.185 . S
O59 Zn55 2.086 . S
C60 O56 1.278 . S
C60 O61 1.211 . S
O61 C60 1.211 . S
C62 O54 1.284 . S
C62 O63 1.273 . S
O63 C62 1.273 . S
O64 Zn55 1.977 1_655 S
O64 C57 1.267 . S
C65 O66 1.160 . S
C65 O72 1.185 . S
O66 C65 1.160 . S
O67 Zn68 1.899 . S
O67 C75 1.284 . S
Zn68 O67 1.899 . S
Zn68 O69 2.032 . S
Zn68 O72 2.086 . S
Zn68 O77 1.977 . S
O69 Zn68 2.032 . S
O69 C73 1.278 . S
C70 O71 1.203 . S
C70 O77 1.267 . S
O71 C70 1.203 . S
O72 C65 1.185 . S
O72 Zn68 2.086 . S
C73 O69 1.278 . S
C73 O74 1.211 . S
O74 C73 1.211 . S
C75 O67 1.284 . S
C75 O76 1.273 . S
O76 C75 1.273 . S
O77 Zn68 1.977 . S
O77 C70 1.267 . S
C78 O79 1.160 . S
C78 O85 1.185 . S
O79 C78 1.160 . S
O80 Zn81 1.899 . S
O80 C88 1.284 . S
Zn81 O80 1.899 . S
Zn81 O82 2.032 . S
Zn81 O85 2.086 . S
Zn81 O90 1.977 . S
O82 Zn81 2.032 . S
O82 C86 1.278 . S
C83 O84 1.203 . S
C83 O90 1.267 . S
O84 C83 1.203 . S
O85 C78 1.185 . S
O85 Zn81 2.086 . S
C86 O82 1.278 . S
C86 O87 1.211 . S
O87 C86 1.211 . S
C88 O80 1.284 . S
C88 O89 1.273 . S
O89 C88 1.273 . S
O90 Zn81 1.977 . S
O90 C83 1.267 . S
C91 O92 1.160 . S
C91 O98 1.185 . S
O92 C91 1.160 . S
O93 Zn94 1.899 1_655 S
O93 C101 1.284 . S
Zn94 O93 1.899 1_455 S
Zn94 O95 2.032 1_455 S
Zn94 O98 2.086 . S
Zn94 O103 1.977 . S
O95 Zn94 2.032 1_655 S
O95 C99 1.278 . S
C96 O97 1.203 . S
C96 O103 1.267 . S
O97 C96 1.203 . S
O98 C91 1.185 . S
O98 Zn94 2.086 . S
C99 O95 1.278 . S
C99 O100 1.211 . S
O100 C99 1.211 . S
C101 O93 1.284 . S
C101 O102 1.273 . S
O102 C101 1.273 . S
O103 Zn94 1.977 . S
O103 C96 1.267 . S
C104 O105 1.160 . S
C104 O111 1.185 . S
O105 C104 1.160 . S
O106 Zn107 1.899 . S
O106 C114 1.284 . S
Zn107 O106 1.899 . S
Zn107 O108 2.032 1_565 S
Zn107 O111 2.086 . S
Zn107 O116 1.977 1_565 S
O108 Zn107 2.032 1_545 S
O108 C112 1.278 . S
C109 O110 1.203 . S
C109 O116 1.267 . S
O110 C109 1.203 . S
O111 C104 1.185 . S
O111 Zn107 2.086 . S
C112 O108 1.278 . S
C112 O113 1.211 . S
O113 C112 1.211 . S
C114 O106 1.284 . S
C114 O115 1.273 . S
O115 C114 1.273 . S
O116 Zn107 1.977 1_545 S
O116 C109 1.267 . S
C117 O118 1.160 . S
C117 O124 1.185 . S
O118 C117 1.160 . S
O119 Zn120 1.899 . S
O119 C127 1.284 . S
Zn120 O119 1.899 . S
Zn120 O121 2.032 . S
Zn120 O124 2.086 . S
Zn120 O129 1.977 . S
O121 Zn120 2.032 . S
O121 C125 1.278 . S
C122 O123 1.203 . S
C122 O129 1.267 . S
O123 C122 1.203 . S
O124 C117 1.185 . S
O124 Zn120 2.086 . S
C125 O121 1.278 . S
C125 O126 1.211 . S
O126 C125 1.211 . S
C127 O119 1.284 . S
C127 O128 1.273 . S
O128 C127 1.273 . S
O129 Zn120 1.977 . S
O129 C122 1.267 . S
C130 O131 1.160 . S
C130 O137 1.185 . S
O131 C130 1.160 . S
O132 Zn133 1.899 . S
O132 C140 1.284 . S
Zn133 O132 1.899 . S
Zn133 O134 2.032 1_565 S
Zn133 O137 2.086 . S
Zn133 O142 1.977 1_565 S
O134 Zn133 2.032 1_545 S
O134 C138 1.278 . S
C135 O136 1.203 . S
C135 O142 1.267 . S
O136 C135 1.203 . S
O137 C130 1.185 . S
O137 Zn133 2.086 . S
C138 O134 1.278 . S
C138 O139 1.211 . S
O139 C138 1.211 . S
C140 O132 1.284 . S
C140 O141 1.273 . S
O141 C140 1.273 . S
O142 Zn133 1.977 1_545 S
O142 C135 1.267 . S
C143 O144 1.160 . S
C143 O150 1.185 . S
O144 C143 1.160 . S
O145 Zn146 1.899 1_556 S
O145 C153 1.284 . S
Zn146 O145 1.899 1_554 S
Zn146 O147 2.032 1_554 S
Zn146 O150 2.086 . S
Zn146 O155 1.977 . S
O147 Zn146 2.032 1_556 S
O147 C151 1.278 . S
C148 O149 1.203 . S
C148 O155 1.267 . S
O149 C148 1.203 . S
O150 C143 1.185 . S
O150 Zn146 2.086 . S
C151 O147 1.278 . S
C151 O152 1.211 . S
O152 C151 1.211 . S
C153 O145 1.284 . S
C153 O154 1.273 . S
O154 C153 1.273 . S
O155 Zn146 1.977 . S
O155 C148 1.267 . S
C156 O157 1.160 . S
C156 O163 1.185 . S
O157 C156 1.160 . S
O158 Zn159 1.899 1_556 S
O158 C166 1.284 . S
Zn159 O158 1.899 1_554 S
Zn159 O160 2.032 . S
Zn159 O163 2.086 1_554 S
Zn159 O168 1.977 . S
O160 Zn159 2.032 . S
O160 C164 1.278 . S
C161 O162 1.203 . S
C161 O168 1.267 . S
O162 C161 1.203 . S
O163 C156 1.185 . S
O163 Zn159 2.086 1_556 S
C164 O160 1.278 . S
C164 O165 1.211 . S
O165 C164 1.211 . S
C166 O158 1.284 . S
C166 O167 1.273 . S
O167 C166 1.273 . S
O168 Zn159 1.977 . S
O168 C161 1.267 . S
C169 O170 1.160 . S
C169 O176 1.185 . S
O170 C169 1.160 . S
O171 Zn172 1.899 . S
O171 C179 1.284 . S
Zn172 O171 1.899 . S
Zn172 O173 2.032 1_556 S
Zn172 O176 2.086 . S
Zn172 O181 1.977 1_556 S
O173 Zn172 2.032 1_554 S
O173 C177 1.278 . S
C174 O175 1.203 . S
C174 O181 1.267 . S
O175 C174 1.203 . S
O176 C169 1.185 . S
O176 Zn172 2.086 . S
C177 O173 1.278 . S
C177 O178 1.211 . S
O178 C177 1.211 . S
C179 O171 1.284 . S
C179 O180 1.273 . S
O180 C179 1.273 . S
O181 Zn172 1.977 1_554 S
O181 C174 1.267 . S
C182 O183 1.160 . S
C182 O189 1.185 . S
O183 C182 1.160 . S
O184 Zn185 1.899 . S
O184 C192 1.284 . S
Zn185 O184 1.899 . S
Zn185 O186 2.032 . S
Zn185 O189 2.086 . S
Zn185 O194 1.977 . S
O186 Zn185 2.032 . S
O186 C190 1.278 . S
C187 O188 1.203 . S
C187 O194 1.267 . S
O188 C187 1.203 . S
O189 C182 1.185 . S
O189 Zn185 2.086 . S
C190 O186 1.278 . S
C190 O191 1.211 . S
O191 C190 1.211 . S
C192 O184 1.284 . S
C192 O193 1.273 . S
O193 C192 1.273 . S
O194 Zn185 1.977 . S
O194 C187 1.267 . S
C195 O196 1.160 . S
C195 O202 1.185 . S
O196 C195 1.160 . S
O197 Zn198 1.899 . S
O197 C205 1.284 . S
Zn198 O197 1.899 . S
Zn198 O199 2.032 . S
Zn198 O202 2.086 . S
Zn198 O207 1.977 . S
O199 Zn198 2.032 . S
O199 C203 1.278 . S
C200 O201 1.203 . S
C200 O207 1.267 . S
O201 C200 1.203 . S
O202 C195 1.185 . S
O202 Zn198 2.086 . S
C203 O199 1.278 . S
C203 O204 1.211 . S
O204 C203 1.211 . S
C205 O197 1.284 . S
C205 O206 1.273 . S
O206 C205 1.273 . S
O207 Zn198 1.977 . S
O207 C200 1.267 . S
C208 O209 1.160 . S
C208 O215 1.185 . S
O209 C208 1.160 . S
O210 Zn211 1.899 . S
O210 C218 1.284 1_545 S
Zn211 O210 1.899 . S
Zn211 O212 2.032 1_545 S
Zn211 O215 2.086 . S
Zn211 O220 1.977 . S
O212 Zn211 2.032 1_565 S
O212 C216 1.278 . S
C213 O214 1.203 . S
C213 O220 1.267 . S
O214 C213 1.203 . S
O215 C208 1.185 . S
O215 Zn211 2.086 . S
C216 O212 1.278 . S
C216 O217 1.211 . S
O217 C216 1.211 . S
C218 O210 1.284 1_565 S
C218 O219 1.273 . S
O219 C218 1.273 . S
O220 Zn211 1.977 . S
O220 C213 1.267 . S
C221 O222 1.160 . S
C221 O228 1.185 . S
O222 C221 1.160 . S
O223 Zn224 1.899 . S
O223 C231 1.284 . S
Zn224 O223 1.899 . S
Zn224 O225 2.032 . S
Zn224 O228 2.086 . S
Zn224 O233 1.977 . S
O225 Zn224 2.032 . S
O225 C229 1.278 . S
C226 O227 1.203 . S
C226 O233 1.267 . S
O227 C226 1.203 . S
O228 C221 1.185 . S
O228 Zn224 2.086 . S
C229 O225 1.278 . S
C229 O230 1.211 . S
O230 C229 1.211 . S
C231 O223 1.284 . S
C231 O232 1.273 . S
O232 C231 1.273 . S
O233 Zn224 1.977 . S
O233 C226 1.267 . S
C234 O235 1.160 . S
C234 O241 1.185 . S
O235 C234 1.160 . S
O236 Zn237 1.899 . S
O236 C244 1.284 . S
Zn237 O236 1.899 . S
Zn237 O238 2.032 . S
Zn237 O241 2.086 . S
Zn237 O246 1.977 . S
O238 Zn237 2.032 . S
O238 C242 1.278 . S
C239 O240 1.203 . S
C239 O246 1.267 . S
O240 C239 1.203 . S
O241 C234 1.185 . S
O241 Zn237 2.086 . S
C242 O238 1.278 . S
C242 O243 1.211 . S
O243 C242 1.211 . S
C244 O236 1.284 . S
C244 O245 1.273 . S
O245 C244 1.273 . S
O246 Zn237 1.977 . S
O246 C239 1.267 . S
C247 O248 1.160 . S
C247 O254 1.185 . S
O248 C247 1.160 . S
O249 Zn250 1.899 1_565 S
O249 C257 1.284 . S
Zn250 O249 1.899 1_545 S
Zn250 O251 2.032 1_545 S
Zn250 O254 2.086 . S
Zn250 O259 1.977 . S
O251 Zn250 2.032 1_565 S
O251 C255 1.278 . S
C252 O253 1.203 . S
C252 O259 1.267 . S
O253 C252 1.203 . S
O254 C247 1.185 . S
O254 Zn250 2.086 . S
C255 O251 1.278 . S
C255 O256 1.211 . S
O256 C255 1.211 . S
C257 O249 1.284 . S
C257 O258 1.273 . S
O258 C257 1.273 . S
O259 Zn250 1.977 . S
O259 C252 1.267 . S
C260 O261 1.160 . S
C260 O267 1.185 . S
O261 C260 1.160 . S
O262 Zn263 1.899 1_556 S
O262 C270 1.284 . S
Zn263 O262 1.899 1_554 S
Zn263 O264 2.032 1_554 S
Zn263 O267 2.086 . S
Zn263 O272 1.977 . S
O264 Zn263 2.032 1_556 S
O264 C268 1.278 . S
C265 O266 1.203 . S
C265 O272 1.267 . S
O266 C265 1.203 . S
O267 C260 1.185 . S
O267 Zn263 2.086 . S
C268 O264 1.278 . S
C268 O269 1.211 . S
O269 C268 1.211 . S
C270 O262 1.284 . S
C270 O271 1.273 . S
O271 C270 1.273 . S
O272 Zn263 1.977 . S
O272 C265 1.267 . S
C273 O274 1.160 . S
C273 O280 1.185 . S
O274 C273 1.160 . S
O275 Zn276 1.899 . S
O275 C283 1.284 . S
Zn276 O275 1.899 . S
Zn276 O277 2.032 . S
Zn276 O280 2.086 . S
Zn276 O285 1.977 . S
O277 Zn276 2.032 . S
O277 C281 1.278 . S
C278 O279 1.203 . S
C278 O285 1.267 . S
O279 C278 1.203 . S
O280 C273 1.185 . S
O280 Zn276 2.086 . S
C281 O277 1.278 . S
C281 O282 1.211 . S
O282 C281 1.211 . S
C283 O275 1.284 . S
C283 O284 1.273 . S
O284 C283 1.273 . S
O285 Zn276 1.977 . S
O285 C278 1.267 . S
C286 O287 1.160 . S
C286 O293 1.185 . S
O287 C286 1.160 . S
O288 Zn289 1.899 . S
O288 C296 1.284 . S
Zn289 O288 1.899 . S
Zn289 O290 2.032 . S
Zn289 O293 2.086 . S
Zn289 O298 1.977 . S
O290 Zn289 2.032 . S
O290 C294 1.278 . S
C291 O292 1.203 . S
C291 O298 1.267 . S
O292 C291 1.203 . S
O293 C286 1.185 . S
O293 Zn289 2.086 . S
C294 O290 1.278 . S
C294 O295 1.211 . S
O295 C294 1.211 . S
C296 O288 1.284 . S
C296 O297 1.273 . S
O297 C296 1.273 . S
O298 Zn289 1.977 . S
O298 C291 1.267 . S
C299 O300 1.160 . S
C299 O306 1.185 . S
O300 C299 1.160 . S
O301 Zn302 1.899 . S
O301 C309 1.284 . S
Zn302 O301 1.899 . S
Zn302 O303 2.032 . S
Zn302 O306 2.086 . S
Zn302 O311 1.977 . S
O303 Zn302 2.032 . S
O303 C307 1.278 . S
C304 O305 1.203 . S
C304 O311 1.267 . S
O305 C304 1.203 . S
O306 C299 1.185 . S
O306 Zn302 2.086 . S
C307 O303 1.278 . S
C307 O308 1.211 . S
O308 C307 1.211 . S
C309 O301 1.284 . S
C309 O310 1.273 . S
O310 C309 1.273 . S
O311 Zn302 1.977 . S
O311 C304 1.267 . S
Fe312 O314 1.918 . S
Fe312 O317 1.997 . S
Fe312 O318 2.002 . S
Fe312 O323 1.976 . S
Fe312 O326 1.996 . S
Fe313 O314 1.918 . S
Fe313 O321 1.997 . S
Fe313 O324 1.996 . S
Fe313 O328 1.976 . S
Fe313 O331 2.002 . S
O314 Fe312 1.918 . S
O314 Fe313 1.918 . S
O314 Fe315 1.918 . S
Fe315 O314 1.918 . S
Fe315 O316 2.002 . S
Fe315 O325 1.976 . S
Fe315 O329 1.996 . S
Fe315 O332 1.997 . S
O316 Fe315 2.002 . S
O316 C333 1.295 1_545 S
O317 Fe312 1.997 . S
O317 C333 1.235 1_545 S
O318 Fe312 2.002 . S
O318 C319 1.295 . S
C319 O318 1.295 . S
C319 O321 1.235 . S
C320 O325 1.287 . S
C320 O326 1.255 . S
O321 Fe313 1.997 . S
O321 C319 1.235 . S
C322 O328 1.287 . S
C322 O329 1.255 . S
O323 Fe312 1.976 . S
O323 C330 1.287 . S
O324 Fe313 1.996 . S
O324 C330 1.255 . S
O325 Fe315 1.976 . S
O325 C320 1.287 . S
O326 Fe312 1.996 . S
O326 C320 1.255 . S
C327 O331 1.295 . S
C327 O332 1.235 . S
O328 Fe313 1.976 . S
O328 C322 1.287 . S
O329 Fe315 1.996 . S
O329 C322 1.255 . S
C330 O323 1.287 . S
C330 O324 1.255 . S
O331 Fe313 2.002 . S
O331 C327 1.295 . S
O332 Fe315 1.997 . S
O332 C327 1.235 . S
C333 O316 1.295 1_565 S
C333 O317 1.235 1_565 S
Fe334 O336 1.918 . S
Fe334 O339 1.997 . S
Fe334 O340 2.002 . S
Fe334 O345 1.976 . S
Fe334 O348 1.996 . S
Fe335 O336 1.918 . S
Fe335 O343 1.997 . S
Fe335 O346 1.996 . S
Fe335 O350 1.976 1_565 S
Fe335 O353 2.002 . S
O336 Fe334 1.918 . S
O336 Fe335 1.918 . S
O336 Fe337 1.918 . S
Fe337 O336 1.918 . S
Fe337 O338 2.002 . S
Fe337 O347 1.976 . S
Fe337 O351 1.996 . S
Fe337 O354 1.997 . S
O338 Fe337 2.002 . S
O338 C355 1.295 . S
O339 Fe334 1.997 . S
O339 C355 1.235 . S
O340 Fe334 2.002 . S
O340 C341 1.295 . S
C341 O340 1.295 . S
C341 O343 1.235 . S
C342 O347 1.287 . S
C342 O348 1.255 . S
O343 Fe335 1.997 . S
O343 C341 1.235 . S
C344 O350 1.287 . S
C344 O351 1.255 1_545 S
O345 Fe334 1.976 . S
O345 C352 1.287 . S
O346 Fe335 1.996 . S
O346 C352 1.255 . S
O347 Fe337 1.976 . S
O347 C342 1.287 . S
O348 Fe334 1.996 . S
O348 C342 1.255 . S
C349 O353 1.295 . S
C349 O354 1.235 . S
O350 Fe335 1.976 1_545 S
O350 C344 1.287 . S
O351 Fe337 1.996 . S
O351 C344 1.255 1_565 S
C352 O345 1.287 . S
C352 O346 1.255 . S
O353 Fe335 2.002 . S
O353 C349 1.295 . S
O354 Fe337 1.997 . S
O354 C349 1.235 . S
C355 O338 1.295 . S
C355 O339 1.235 . S
Fe356 O358 1.918 . S
Fe356 O361 1.997 . S
Fe356 O362 2.002 . S
Fe356 O367 1.976 . S
Fe356 O370 1.996 . S
Fe357 O358 1.918 . S
Fe357 O365 1.997 . S
Fe357 O368 1.996 . S
Fe357 O372 1.976 . S
Fe357 O375 2.002 . S
O358 Fe356 1.918 . S
O358 Fe357 1.918 . S
O358 Fe359 1.918 . S
Fe359 O358 1.918 . S
Fe359 O360 2.002 . S
Fe359 O369 1.976 . S
Fe359 O373 1.996 . S
Fe359 O376 1.997 . S
O360 Fe359 2.002 . S
O360 C377 1.295 . S
O361 Fe356 1.997 . S
O361 C377 1.235 . S
O362 Fe356 2.002 . S
O362 C363 1.295 . S
C363 O362 1.295 . S
C363 O365 1.235 . S
C364 O369 1.287 . S
C364 O370 1.255 . S
O365 Fe357 1.997 . S
O365 C363 1.235 . S
C366 O372 1.287 . S
C366 O373 1.255 . S
O367 Fe356 1.976 . S
O367 C374 1.287 1_565 S
O368 Fe357 1.996 . S
O368 C374 1.255 1_565 S
O369 Fe359 1.976 . S
O369 C364 1.287 . S
O370 Fe356 1.996 . S
O370 C364 1.255 . S
C371 O375 1.295 . S
C371 O376 1.235 . S
O372 Fe357 1.976 . S
O372 C366 1.287 . S
O373 Fe359 1.996 . S
O373 C366 1.255 . S
C374 O367 1.287 1_545 S
C374 O368 1.255 1_545 S
O375 Fe357 2.002 . S
O375 C371 1.295 . S
O376 Fe359 1.997 . S
O376 C371 1.235 . S
C377 O360 1.295 . S
C377 O361 1.235 . S
Fe378 O380 1.918 . S
Fe378 O383 1.997 . S
Fe378 O384 2.002 . S
Fe378 O389 1.976 . S
Fe378 O392 1.996 . S
Fe379 O380 1.918 . S
Fe379 O387 1.997 . S
Fe379 O390 1.996 . S
Fe379 O394 1.976 . S
Fe379 O397 2.002 . S
O380 Fe378 1.918 . S
O380 Fe379 1.918 . S
O380 Fe381 1.918 . S
Fe381 O380 1.918 . S
Fe381 O382 2.002 . S
Fe381 O391 1.976 1_556 S
Fe381 O395 1.996 . S
Fe381 O398 1.997 . S
O382 Fe381 2.002 . S
O382 C399 1.295 . S
O383 Fe378 1.997 . S
O383 C399 1.235 . S
O384 Fe378 2.002 . S
O384 C385 1.295 . S
C385 O384 1.295 . S
C385 O387 1.235 . S
C386 O391 1.287 . S
C386 O392 1.255 1_554 S
O387 Fe379 1.997 . S
O387 C385 1.235 . S
C388 O394 1.287 . S
C388 O395 1.255 . S
O389 Fe378 1.976 . S
O389 C396 1.287 . S
O390 Fe379 1.996 . S
O390 C396 1.255 . S
O391 Fe381 1.976 1_554 S
O391 C386 1.287 . S
O392 Fe378 1.996 . S
O392 C386 1.255 1_556 S
C393 O397 1.295 . S
C393 O398 1.235 . S
O394 Fe379 1.976 . S
O394 C388 1.287 . S
O395 Fe381 1.996 . S
O395 C388 1.255 . S
C396 O389 1.287 . S
C396 O390 1.255 . S
O397 Fe379 2.002 . S
O397 C393 1.295 . S
O398 Fe381 1.997 . S
O398 C393 1.235 . S
C399 O382 1.295 . S
C399 O383 1.235 . S
Fe400 O402 1.918 . S
Fe400 O405 1.997 . S
Fe400 O406 2.002 . S
Fe400 O411 1.976 . S
Fe400 O414 1.996 . S
Fe401 O402 1.918 . S
Fe401 O409 1.997 . S
Fe401 O412 1.996 . S
Fe401 O416 1.976 . S
Fe401 O419 2.002 . S
O402 Fe400 1.918 . S
O402 Fe401 1.918 . S
O402 Fe403 1.918 . S
Fe403 O402 1.918 . S
Fe403 O404 2.002 . S
Fe403 O413 1.976 1_556 S
Fe403 O417 1.996 . S
Fe403 O420 1.997 . S
O404 Fe403 2.002 . S
O404 C421 1.295 . S
O405 Fe400 1.997 . S
O405 C421 1.235 . S
O406 Fe400 2.002 . S
O406 C407 1.295 . S
C407 O406 1.295 . S
C407 O409 1.235 . S
C408 O413 1.287 . S
C408 O414 1.255 1_554 S
O409 Fe401 1.997 . S
O409 C407 1.235 . S
C410 O416 1.287 . S
C410 O417 1.255 . S
O411 Fe400 1.976 . S
O411 C418 1.287 . S
O412 Fe401 1.996 . S
O412 C418 1.255 . S
O413 Fe403 1.976 1_554 S
O413 C408 1.287 . S
O414 Fe400 1.996 . S
O414 C408 1.255 1_556 S
C415 O419 1.295 . S
C415 O420 1.235 . S
O416 Fe401 1.976 . S
O416 C410 1.287 . S
O417 Fe403 1.996 . S
O417 C410 1.255 . S
C418 O411 1.287 . S
C418 O412 1.255 . S
O419 Fe401 2.002 . S
O419 C415 1.295 . S
O420 Fe403 1.997 . S
O420 C415 1.235 . S
C421 O404 1.295 . S
C421 O405 1.235 . S
Fe422 O424 1.918 . S
Fe422 O427 1.997 . S
Fe422 O428 2.002 . S
Fe422 O433 1.976 . S
Fe422 O436 1.996 . S
Fe423 O424 1.918 . S
Fe423 O431 1.997 . S
Fe423 O434 1.996 . S
Fe423 O438 1.976 . S
Fe423 O441 2.002 . S
O424 Fe422 1.918 . S
O424 Fe423 1.918 . S
O424 Fe425 1.918 . S
Fe425 O424 1.918 . S
Fe425 O426 2.002 . S
Fe425 O435 1.976 . S
Fe425 O439 1.996 . S
Fe425 O442 1.997 1_655 S
O426 Fe425 2.002 . S
O426 C443 1.295 . S
O427 Fe422 1.997 . S
O427 C443 1.235 . S
O428 Fe422 2.002 . S
O428 C429 1.295 . S
C429 O428 1.295 . S
C429 O431 1.235 . S
C430 O435 1.287 . S
C430 O436 1.255 . S
O431 Fe423 1.997 . S
O431 C429 1.235 . S
C432 O438 1.287 . S
C432 O439 1.255 . S
O433 Fe422 1.976 . S
O433 C440 1.287 . S
O434 Fe423 1.996 . S
O434 C440 1.255 . S
O435 Fe425 1.976 . S
O435 C430 1.287 . S
O436 Fe422 1.996 . S
O436 C430 1.255 . S
C437 O441 1.295 1_455 S
C437 O442 1.235 . S
O438 Fe423 1.976 . S
O438 C432 1.287 . S
O439 Fe425 1.996 . S
O439 C432 1.255 . S
C440 O433 1.287 . S
C440 O434 1.255 . S
O441 Fe423 2.002 . S
O441 C437 1.295 1_655 S
O442 Fe425 1.997 1_455 S
O442 C437 1.235 . S
C443 O426 1.295 . S
C443 O427 1.235 . S
Fe444 O446 1.918 . S
Fe444 O449 1.997 . S
Fe444 O450 2.002 . S
Fe444 O455 1.976 . S
Fe444 O458 1.996 . S
Fe445 O446 1.918 . S
Fe445 O453 1.997 . S
Fe445 O456 1.996 . S
Fe445 O460 1.976 . S
Fe445 O463 2.002 . S
O446 Fe444 1.918 . S
O446 Fe445 1.918 . S
O446 Fe447 1.918 . S
Fe447 O446 1.918 . S
Fe447 O448 2.002 . S
Fe447 O457 1.976 . S
Fe447 O461 1.996 . S
Fe447 O464 1.997 . S
O448 Fe447 2.002 . S
O448 C465 1.295 . S
O449 Fe444 1.997 . S
O449 C465 1.235 . S
O450 Fe444 2.002 . S
O450 C451 1.295 . S
C451 O450 1.295 . S
C451 O453 1.235 . S
C452 O457 1.287 . S
C452 O458 1.255 . S
O453 Fe445 1.997 . S
O453 C451 1.235 . S
C454 O460 1.287 1_455 S
C454 O461 1.255 1_455 S
O455 Fe444 1.976 . S
O455 C462 1.287 . S
O456 Fe445 1.996 . S
O456 C462 1.255 . S
O457 Fe447 1.976 . S
O457 C452 1.287 . S
O458 Fe444 1.996 . S
O458 C452 1.255 . S
C459 O463 1.295 . S
C459 O464 1.235 . S
O460 Fe445 1.976 . S
O460 C454 1.287 1_655 S
O461 Fe447 1.996 . S
O461 C454 1.255 1_655 S
C462 O455 1.287 . S
C462 O456 1.255 . S
O463 Fe445 2.002 . S
O463 C459 1.295 . S
O464 Fe447 1.997 . S
O464 C459 1.235 . S
C465 O448 1.295 . S
C465 O449 1.235 . S
Fe466 O468 1.918 . S
Fe466 O471 1.997 1_655 S
Fe466 O472 2.002 . S
Fe466 O477 1.976 . S
Fe466 O480 1.996 . S
Fe467 O468 1.918 . S
Fe467 O475 1.997 1_556 S
Fe467 O478 1.996 . S
Fe467 O482 1.976 . S
Fe467 O485 2.002 . S
O468 Fe466 1.918 . S
O468 Fe467 1.918 . S
O468 Fe469 1.918 . S
Fe469 O468 1.918 . S
Fe469 O470 2.002 . S
Fe469 O479 1.976 . S
Fe469 O483 1.996 . S
Fe469 O486 1.997 1_565 S
O470 Fe469 2.002 . S
O470 C487 1.295 1_655 S
O471 Fe466 1.997 1_455 S
O471 C487 1.235 . S
O472 Fe466 2.002 . S
O472 C473 1.295 1_556 S
C473 O472 1.295 1_554 S
C473 O475 1.235 . S
C474 O479 1.287 . S
C474 O480 1.255 . S
O475 Fe467 1.997 1_554 S
O475 C473 1.235 . S
C476 O482 1.287 . S
C476 O483 1.255 . S
O477 Fe466 1.976 . S
O477 C484 1.287 . S
O478 Fe467 1.996 . S
O478 C484 1.255 . S
O479 Fe469 1.976 . S
O479 C474 1.287 . S
O480 Fe466 1.996 . S
O480 C474 1.255 . S
C481 O485 1.295 1_545 S
C481 O486 1.235 . S
O482 Fe467 1.976 . S
O482 C476 1.287 . S
O483 Fe469 1.996 . S
O483 C476 1.255 . S
C484 O477 1.287 . S
C484 O478 1.255 . S
O485 Fe467 2.002 . S
O485 C481 1.295 1_565 S
O486 Fe469 1.997 1_545 S
O486 C481 1.235 . S
C487 O470 1.295 1_455 S
C487 O471 1.235 . S
Fe488 O490 1.918 . S
Fe488 O493 1.997 . S
Fe488 O494 2.002 . S
Fe488 O499 1.976 1_545 S
Fe488 O502 1.996 . S
Fe489 O490 1.918 . S
Fe489 O497 1.997 . S
Fe489 O500 1.996 . S
Fe489 O504 1.976 . S
Fe489 O507 2.002 . S
O490 Fe488 1.918 . S
O490 Fe489 1.918 . S
O490 Fe491 1.918 . S
Fe491 O490 1.918 . S
Fe491 O492 2.002 . S
Fe491 O501 1.976 1_655 S
Fe491 O505 1.996 . S
Fe491 O508 1.997 . S
O492 Fe491 2.002 . S
O492 C509 1.295 . S
O493 Fe488 1.997 . S
O493 C509 1.235 . S
O494 Fe488 2.002 . S
O494 C495 1.295 . S
C495 O494 1.295 . S
C495 O497 1.235 . S
C496 O501 1.287 . S
C496 O502 1.255 1_455 S
O497 Fe489 1.997 . S
O497 C495 1.235 . S
C498 O504 1.287 . S
C498 O505 1.255 . S
O499 Fe488 1.976 1_565 S
O499 C506 1.287 . S
O500 Fe489 1.996 . S
O500 C506 1.255 1_545 S
O501 Fe491 1.976 1_455 S
O501 C496 1.287 . S
O502 Fe488 1.996 . S
O502 C496 1.255 1_655 S
C503 O507 1.295 . S
C503 O508 1.235 . S
O504 Fe489 1.976 . S
O504 C498 1.287 . S
O505 Fe491 1.996 . S
O505 C498 1.255 . S
C506 O499 1.287 . S
C506 O500 1.255 1_565 S
O507 Fe489 2.002 . S
O507 C503 1.295 . S
O508 Fe491 1.997 . S
O508 C503 1.235 . S
C509 O492 1.295 . S
C509 O493 1.235 . S
Fe510 O512 1.918 . S
Fe510 O515 1.997 . S
Fe510 O516 2.002 . S
Fe510 O521 1.976 . S
Fe510 O524 1.996 . S
Fe511 O512 1.918 . S
Fe511 O519 1.997 . S
Fe511 O522 1.996 . S
Fe511 O526 1.976 . S
Fe511 O529 2.002 . S
O512 Fe510 1.918 . S
O512 Fe511 1.918 . S
O512 Fe513 1.918 . S
Fe513 O512 1.918 . S
Fe513 O514 2.002 . S
Fe513 O523 1.976 . S
Fe513 O527 1.996 . S
Fe513 O530 1.997 . S
O514 Fe513 2.002 . S
O514 C531 1.295 . S
O515 Fe510 1.997 . S
O515 C531 1.235 . S
O516 Fe510 2.002 . S
O516 C517 1.295 . S
C517 O516 1.295 . S
C517 O519 1.235 . S
C518 O523 1.287 . S
C518 O524 1.255 . S
O519 Fe511 1.997 . S
O519 C517 1.235 . S
C520 O526 1.287 . S
C520 O527 1.255 . S
O521 Fe510 1.976 . S
O521 C528 1.287 . S
O522 Fe511 1.996 . S
O522 C528 1.255 . S
O523 Fe513 1.976 . S
O523 C518 1.287 . S
O524 Fe510 1.996 . S
O524 C518 1.255 . S
C525 O529 1.295 . S
C525 O530 1.235 . S
O526 Fe511 1.976 . S
O526 C520 1.287 . S
O527 Fe513 1.996 . S
O527 C520 1.255 . S
C528 O521 1.287 . S
C528 O522 1.255 . S
O529 Fe511 2.002 . S
O529 C525 1.295 . S
O530 Fe513 1.997 . S
O530 C525 1.235 . S
C531 O514 1.295 . S
C531 O515 1.235 . S
Fe532 O534 1.918 . S
Fe532 O537 1.997 . S
Fe532 O538 2.002 . S
Fe532 O543 1.976 . S
Fe532 O546 1.996 . S
Fe533 O534 1.918 . S
Fe533 O541 1.997 . S
Fe533 O544 1.996 . S
Fe533 O548 1.976 . S
Fe533 O551 2.002 . S
O534 Fe532 1.918 . S
O534 Fe533 1.918 . S
O534 Fe535 1.918 . S
Fe535 O534 1.918 . S
Fe535 O536 2.002 . S
Fe535 O545 1.976 . S
Fe535 O549 1.996 . S
Fe535 O552 1.997 1_565 S
O536 Fe535 2.002 . S
O536 C553 1.295 . S
O537 Fe532 1.997 . S
O537 C553 1.235 . S
O538 Fe532 2.002 . S
O538 C539 1.295 . S
C539 O538 1.295 . S
C539 O541 1.235 . S
C540 O545 1.287 . S
C540 O546 1.255 . S
O541 Fe533 1.997 . S
O541 C539 1.235 . S
C542 O548 1.287 . S
C542 O549 1.255 . S
O543 Fe532 1.976 . S
O543 C550 1.287 . S
O544 Fe533 1.996 . S
O544 C550 1.255 . S
O545 Fe535 1.976 . S
O545 C540 1.287 . S
O546 Fe532 1.996 . S
O546 C540 1.255 . S
C547 O551 1.295 1_545 S
C547 O552 1.235 . S
O548 Fe533 1.976 . S
O548 C542 1.287 . S
O549 Fe535 1.996 . S
O549 C542 1.255 . S
C550 O543 1.287 . S
C550 O544 1.255 . S
O551 Fe533 2.002 . S
O551 C547 1.295 1_565 S
O552 Fe535 1.997 1_545 S
O552 C547 1.235 . S
C553 O536 1.295 . S
C553 O537 1.235 . S
Fe554 O556 1.918 . S
Fe554 O559 1.997 . S
Fe554 O560 2.002 . S
Fe554 O565 1.976 . S
Fe554 O568 1.996 . S
Fe555 O556 1.918 . S
Fe555 O563 1.997 . S
Fe555 O566 1.996 . S
Fe555 O570 1.976 . S
Fe555 O573 2.002 . S
O556 Fe554 1.918 . S
O556 Fe555 1.918 . S
O556 Fe557 1.918 . S
Fe557 O556 1.918 . S
Fe557 O558 2.002 . S
Fe557 O567 1.976 . S
Fe557 O571 1.996 . S
Fe557 O574 1.997 . S
O558 Fe557 2.002 . S
O558 C575 1.295 . S
O559 Fe554 1.997 . S
O559 C575 1.235 . S
O560 Fe554 2.002 . S
O560 C561 1.295 . S
C561 O560 1.295 . S
C561 O563 1.235 . S
C562 O567 1.287 . S
C562 O568 1.255 . S
O563 Fe555 1.997 . S
O563 C561 1.235 . S
C564 O570 1.287 . S
C564 O571 1.255 . S
O565 Fe554 1.976 . S
O565 C572 1.287 . S
O566 Fe555 1.996 . S
O566 C572 1.255 . S
O567 Fe557 1.976 . S
O567 C562 1.287 . S
O568 Fe554 1.996 . S
O568 C562 1.255 . S
C569 O573 1.295 . S
C569 O574 1.235 . S
O570 Fe555 1.976 . S
O570 C564 1.287 . S
O571 Fe557 1.996 . S
O571 C564 1.255 . S
C572 O565 1.287 . S
C572 O566 1.255 . S
O573 Fe555 2.002 . S
O573 C569 1.295 . S
O574 Fe557 1.997 . S
O574 C569 1.235 . S
C575 O558 1.295 . S
C575 O559 1.235 . S
Fe576 O578 1.918 . S
Fe576 O581 1.997 . S
Fe576 O582 2.002 . S
Fe576 O587 1.976 . S
Fe576 O590 1.996 . S
Fe577 O578 1.918 . S
Fe577 O585 1.997 . S
Fe577 O588 1.996 . S
Fe577 O592 1.976 1_556 S
Fe577 O595 2.002 . S
O578 Fe576 1.918 . S
O578 Fe577 1.918 . S
O578 Fe579 1.918 . S
Fe579 O578 1.918 . S
Fe579 O580 2.002 . S
Fe579 O589 1.977 . S
Fe579 O593 1.996 . S
Fe579 O596 1.997 . S
O580 Fe579 2.002 . S
O580 C597 1.295 . S
O581 Fe576 1.997 . S
O581 C597 1.235 . S
O582 Fe576 2.002 . S
O582 C583 1.295 . S
C583 O582 1.295 . S
C583 O585 1.235 . S
C584 O589 1.286 1_655 S
C584 O590 1.255 1_655 S
O585 Fe577 1.997 . S
O585 C583 1.235 . S
C586 O592 1.287 . S
C586 O593 1.255 1_554 S
O587 Fe576 1.976 . S
O587 C594 1.287 . S
O588 Fe577 1.996 . S
O588 C594 1.255 . S
O589 Fe579 1.977 . S
O589 C584 1.286 1_455 S
O590 Fe576 1.996 . S
O590 C584 1.255 1_455 S
C591 O595 1.295 . S
C591 O596 1.235 . S
O592 Fe577 1.976 1_554 S
O592 C586 1.287 . S
O593 Fe579 1.996 . S
O593 C586 1.255 1_556 S
C594 O587 1.287 . S
C594 O588 1.255 . S
O595 Fe577 2.002 . S
O595 C591 1.295 . S
O596 Fe579 1.997 . S
O596 C591 1.235 . S
C597 O580 1.295 . S
C597 O581 1.235 . S
Fe598 O600 1.918 . S
Fe598 O603 1.997 . S
Fe598 O604 2.002 . S
Fe598 O609 1.976 . S
Fe598 O612 1.996 . S
Fe599 O600 1.918 . S
Fe599 O607 1.997 . S
Fe599 O610 1.996 . S
Fe599 O614 1.976 . S
Fe599 O617 2.002 . S
O600 Fe598 1.918 . S
O600 Fe599 1.918 . S
O600 Fe601 1.918 . S
Fe601 O600 1.918 . S
Fe601 O602 2.002 . S
Fe601 O611 1.976 . S
Fe601 O615 1.996 . S
Fe601 O618 1.997 . S
O602 Fe601 2.002 . S
O602 C619 1.295 . S
O603 Fe598 1.997 . S
O603 C619 1.235 . S
O604 Fe598 2.002 . S
O604 C605 1.295 . S
C605 O604 1.295 . S
C605 O607 1.235 . S
C606 O611 1.287 . S
C606 O612 1.255 . S
O607 Fe599 1.997 . S
O607 C605 1.235 . S
C608 O614 1.287 . S
C608 O615 1.255 . S
O609 Fe598 1.976 . S
O609 C616 1.287 . S
O610 Fe599 1.996 . S
O610 C616 1.255 . S
O611 Fe601 1.976 . S
O611 C606 1.287 . S
O612 Fe598 1.996 . S
O612 C606 1.255 . S
C613 O617 1.295 . S
C613 O618 1.235 . S
O614 Fe599 1.976 . S
O614 C608 1.287 . S
O615 Fe601 1.996 . S
O615 C608 1.255 . S
C616 O609 1.287 . S
C616 O610 1.255 . S
O617 Fe599 2.002 . S
O617 C613 1.295 . S
O618 Fe601 1.997 . S
O618 C613 1.235 . S
C619 O602 1.295 . S
C619 O603 1.235 . S
Fe620 O622 1.918 . S
Fe620 O625 1.997 . S
Fe620 O626 2.002 . S
Fe620 O631 1.976 . S
Fe620 O634 1.996 . S
Fe621 O622 1.918 . S
Fe621 O629 1.997 . S
Fe621 O632 1.996 . S
Fe621 O636 1.976 . S
Fe621 O639 2.002 . S
O622 Fe620 1.918 . S
O622 Fe621 1.918 . S
O622 Fe623 1.918 . S
Fe623 O622 1.918 . S
Fe623 O624 2.002 . S
Fe623 O633 1.976 . S
Fe623 O637 1.996 . S
Fe623 O640 1.997 . S
O624 Fe623 2.002 . S
O624 C641 1.295 . S
O625 Fe620 1.997 . S
O625 C641 1.235 . S
O626 Fe620 2.002 . S
O626 C627 1.295 . S
C627 O626 1.295 . S
C627 O629 1.235 . S
C628 O633 1.287 . S
C628 O634 1.255 . S
O629 Fe621 1.997 . S
O629 C627 1.235 . S
C630 O636 1.287 . S
C630 O637 1.255 . S
O631 Fe620 1.976 . S
O631 C638 1.287 . S
O632 Fe621 1.996 . S
O632 C638 1.255 . S
O633 Fe623 1.976 . S
O633 C628 1.287 . S
O634 Fe620 1.996 . S
O634 C628 1.255 . S
C635 O639 1.295 . S
C635 O640 1.235 . S
O636 Fe621 1.976 . S
O636 C630 1.287 . S
O637 Fe623 1.996 . S
O637 C630 1.255 . S
C638 O631 1.287 . S
C638 O632 1.255 . S
O639 Fe621 2.002 . S
O639 C635 1.295 . S
O640 Fe623 1.997 . S
O640 C635 1.235 . S
C641 O624 1.295 . S
C641 O625 1.235 . S
Fe642 O644 1.918 . S
Fe642 O647 1.997 . S
Fe642 O648 2.002 . S
Fe642 O653 1.976 . S
Fe642 O656 1.996 . S
Fe643 O644 1.918 . S
Fe643 O651 1.997 . S
Fe643 O654 1.996 . S
Fe643 O658 1.976 . S
Fe643 O661 2.002 . S
O644 Fe642 1.918 . S
O644 Fe643 1.918 . S
O644 Fe645 1.918 . S
Fe645 O644 1.918 . S
Fe645 O646 2.002 . S
Fe645 O655 1.976 . S
Fe645 O659 1.996 . S
Fe645 O662 1.997 . S
O646 Fe645 2.002 . S
O646 C663 1.295 . S
O647 Fe642 1.997 . S
O647 C663 1.235 . S
O648 Fe642 2.002 . S
O648 C649 1.295 . S
C649 O648 1.295 . S
C649 O651 1.235 . S
C650 O655 1.287 . S
C650 O656 1.255 . S
O651 Fe643 1.997 . S
O651 C649 1.235 . S
C652 O658 1.287 . S
C652 O659 1.255 . S
O653 Fe642 1.976 . S
O653 C660 1.287 . S
O654 Fe643 1.996 . S
O654 C660 1.255 . S
O655 Fe645 1.976 . S
O655 C650 1.287 . S
O656 Fe642 1.996 . S
O656 C650 1.255 . S
C657 O661 1.295 . S
C657 O662 1.235 . S
O658 Fe643 1.976 . S
O658 C652 1.287 . S
O659 Fe645 1.996 . S
O659 C652 1.255 . S
C660 O653 1.287 . S
C660 O654 1.255 . S
O661 Fe643 2.002 . S
O661 C657 1.295 . S
O662 Fe645 1.997 . S
O662 C657 1.235 . S
C663 O646 1.295 . S
C663 O647 1.235 . S
C330 C0 1.005 . S
C18 C342 1.142 . S
C377 C34 1.491 . S
C386 C49 1.249 . S
C341 C62 1.235 . S
C73 C366 1.441 . S
C385 C83 1.156 . S
C91 C327 1.048 1_556 S
C109 C320 0.934 . S
C344 C125 1.196 . S
C363 C130 1.346 . S
C388 C153 1.376 1_545 S
C349 C114 1.321 . S
C374 C117 1.326 . S
C138 C393 1.188 . S
C333 C148 0.927 . S
C161 C322 0.960 . S
C169 C421 1.387 . S
C437 C190 1.200 . S
C451 C205 1.298 . S
C213 C319 0.940 1_655 S
C229 C371 1.226 . S
C454 C182 1.342 . S
C418 C244 1.363 . S
C474 C21 1.539 . S
C498 C5 1.197 . S
C39 C531 1.130 . S
C36 C539 1.222 1_556 S
C101 C509 1.219 . S
C78 C520 1.191 . S
C540 C70 1.219 . S
C60 C473 1.595 . S
C257 C476 1.285 . S
C506 C203 1.299 . S
C517 C208 1.300 . S
C547 C174 1.058 . S
C495 C252 1.053 . S
C528 C195 1.355 1_545 S
C542 C216 1.346 . S
C179 C481 1.337 . S
C484 C270 1.288 . S
C143 C572 1.354 . S
C584 C281 1.309 . S
C122 C605 1.087 . S
C487 C140 1.333 . S
C525 C294 1.313 . S
C608 C273 1.387 1_455 S
C304 C575 1.082 . S
C26 C630 1.017 . S
C44 C408 1.147 . S
C432 C8 1.430 . S
C23 C462 1.237 . S
C88 C407 1.215 . S
C99 C443 1.494 1_556 S
C459 C57 1.202 . S
C641 C65 1.019 . S
C638 C278 0.921 . S
C410 C268 1.184 . S
C440 C299 1.312 . S
C296 C452 1.365 . S
C415 C283 1.326 . S
C260 C429 1.315 . S
C465 C307 1.198 . S
C291 C627 0.938 . S
C628 C200 0.956 . S
C221 C355 1.327 . S
C364 C255 1.182 . S
C166 C399 1.325 . S
C635 C239 0.934 . S
C430 C177 1.223 . S
C396 C247 1.335 . S
C352 C218 1.327 1_455 S
C47 C649 1.547 . S
C31 C561 1.224 1_556 S
C13 C597 1.128 . S
C616 C10 1.176 . S
C562 C75 1.189 . S
C52 C586 1.202 . S
C613 C96 1.245 . S
C86 C650 1.601 . S
C657 C192 1.315 . S
C164 C569 1.296 . S
C234 C583 1.320 . S
C606 C226 1.066 . S
C564 C187 1.108 . S
C156 C594 1.381 . S
C619 C242 1.332 . S
C652 C231 1.329 . S
C663 C127 1.281 . S
C503 C286 1.347 . S
C112 C518 1.311 . S
C265 C550 1.082 . S
C660 C309 1.311 . S
C591 C151 1.319 . S
C553 C104 1.376 . S
C496 C135 1.121 . S
