# Generated by pormake.
# Topology zzz, (3,6)-cn, num edge types: 1
# Building blocks:
#     Node 0, Type 0, BuildingBlock: OLANEW_clean_sbu_2, # of connection points: 3
#     Node 1, Type 0, BuildingBlock: OLANEW_clean_sbu_2, # of connection points: 3
#     Node 2, Type 0, BuildingBlock: OLANEW_clean_sbu_2, # of connection points: 3
#     Node 3, Type 0, BuildingBlock: OLANEW_clean_sbu_2, # of connection points: 3
#     Node 4, Type 0, BuildingBlock: OLANEW_clean_sbu_2, # of connection points: 3
#     Node 5, Type 0, BuildingBlock: OLANEW_clean_sbu_2, # of connection points: 3
#     Node 6, Type 0, BuildingBlock: OLANEW_clean_sbu_2, # of connection points: 3
#     Node 7, Type 0, BuildingBlock: OLANEW_clean_sbu_2, # of connection points: 3
#     Node 8, Type 1, BuildingBlock: BETDEL_clean_sbu_0, # of connection points: 6
#     Node 9, Type 1, BuildingBlock: BETDEL_clean_sbu_0, # of connection points: 6
#     Node 10, Type 1, BuildingBlock: BETDEL_clean_sbu_0, # of connection points: 6
#     Node 11, Type 1, BuildingBlock: BETDEL_clean_sbu_0, # of connection points: 6
#     Edge 12, Type (0, 1), BuildingBlock: CIFDUS_clean_linker_0, # of connection points: 2
#     Edge 13, Type (0, 1), BuildingBlock: CIFDUS_clean_linker_0, # of connection points: 2
#     Edge 14, Type (0, 1), BuildingBlock: CIFDUS_clean_linker_0, # of connection points: 2
#     Edge 15, Type (0, 1), BuildingBlock: CIFDUS_clean_linker_0, # of connection points: 2
#     Edge 16, Type (0, 1), BuildingBlock: CIFDUS_clean_linker_0, # of connection points: 2
#     Edge 17, Type (0, 1), BuildingBlock: CIFDUS_clean_linker_0, # of connection points: 2
#     Edge 18, Type (0, 1), BuildingBlock: CIFDUS_clean_linker_0, # of connection points: 2
#     Edge 19, Type (0, 1), BuildingBlock: CIFDUS_clean_linker_0, # of connection points: 2
#     Edge 20, Type (0, 1), BuildingBlock: CIFDUS_clean_linker_0, # of connection points: 2
#     Edge 21, Type (0, 1), BuildingBlock: CIFDUS_clean_linker_0, # of connection points: 2
#     Edge 22, Type (0, 1), BuildingBlock: CIFDUS_clean_linker_0, # of connection points: 2
#     Edge 23, Type (0, 1), BuildingBlock: CIFDUS_clean_linker_0, # of connection points: 2
#     Edge 24, Type (0, 1), BuildingBlock: CIFDUS_clean_linker_0, # of connection points: 2
#     Edge 25, Type (0, 1), BuildingBlock: CIFDUS_clean_linker_0, # of connection points: 2
#     Edge 26, Type (0, 1), BuildingBlock: CIFDUS_clean_linker_0, # of connection points: 2
#     Edge 27, Type (0, 1), BuildingBlock: CIFDUS_clean_linker_0, # of connection points: 2
#     Edge 28, Type (0, 1), BuildingBlock: CIFDUS_clean_linker_0, # of connection points: 2
#     Edge 29, Type (0, 1), BuildingBlock: CIFDUS_clean_linker_0, # of connection points: 2
#     Edge 30, Type (0, 1), BuildingBlock: CIFDUS_clean_linker_0, # of connection points: 2
#     Edge 31, Type (0, 1), BuildingBlock: CIFDUS_clean_linker_0, # of connection points: 2
#     Edge 32, Type (0, 1), BuildingBlock: CIFDUS_clean_linker_0, # of connection points: 2
#     Edge 33, Type (0, 1), BuildingBlock: CIFDUS_clean_linker_0, # of connection points: 2
#     Edge 34, Type (0, 1), BuildingBlock: CIFDUS_clean_linker_0, # of connection points: 2
#     Edge 35, Type (0, 1), BuildingBlock: CIFDUS_clean_linker_0, # of connection points: 2
# Relax obj value: 0.151
# Max RMSD: 0.175
# Mean RMSD: 0.123
data_MOF--net-zzz--node1-OLANEW_clean_sbu_2--node2-BETDEL_clean_sbu_0--edge1-CIFDUS_clean_linker_0
_symmetry_space_group_name_H-M    P1
_symmetry_Int_Tables_number       1
_symmetry_cell_setting            triclinic
loop_
_symmetry_equiv_pos_as_xyz
'x, y, z'
_cell_length_a     47.099324
_cell_length_b     47.140835
_cell_length_c     14.634872
_cell_angle_alpha  91.77319
_cell_angle_beta   88.416288
_cell_angle_gamma 95.806189
loop_
_atom_site_label
_atom_site_type_symbol
_atom_site_fract_x
_atom_site_fract_y
_atom_site_fract_z
_atom_type_partial_charge
O0 O 0.77526 0.51217 0.86241 0.0
Cd1 Cd 0.73283 0.4974 0.9544 0.0
O2 O 0.78389 0.47009 0.90495 0.0
Cd3 Cd 0.81124 0.43826 0.94447 0.0
O4 O 0.84615 0.43452 0.03514 0.0
C5 C 0.86289 0.45734 0.04012 0.0
O6 O 0.85784 0.47897 0.99078 0.0
C7 C 0.79228 0.49298 0.864 0.0
C8 C 0.68289 0.49173 0.85783 0.0
O9 O 0.68926 0.51382 0.90934 0.0
O10 O 0.70031 0.47255 0.85107 0.0
O11 O 0.89658 0.76327 0.83128 0.0
Cd12 Cd 0.87677 0.71392 0.85704 0.0
O13 O 0.90458 0.76844 0.97788 0.0
Cd14 Cd 0.91603 0.7952 0.09764 0.0
O15 O 0.93036 0.83029 0.19011 0.0
C16 C 0.92127 0.83066 0.27251 0.0
O17 O 0.90337 0.8094 0.30114 0.0
C18 C 0.90564 0.77892 0.89871 0.0
C19 C 0.91194 0.67317 0.79139 0.0
O20 O 0.89436 0.68349 0.73928 0.0
O21 O 0.91308 0.68227 0.8748 0.0
O22 O 0.72384 0.96569 0.79151 0.0
Cd23 Cd 0.75574 0.93031 0.82846 0.0
O24 O 0.7346 0.99046 0.91753 0.0
Cd25 Cd 0.72718 0.02383 0.01971 0.0
O26 O 0.69686 0.03564 0.12552 0.0
C27 C 0.68531 0.0141 0.16742 0.0
O28 O 0.69441 0.98909 0.1481 0.0
C29 C 0.72014 0.98675 0.84523 0.0
C30 C 0.81132 0.94883 0.77629 0.0
O31 O 0.79426 0.93514 0.71984 0.0
O32 O 0.80213 0.9534 0.85815 0.0
O33 O 0.57914 0.7354 0.90721 0.0
Cd34 Cd 0.59027 0.78469 0.96043 0.0
O35 O 0.54781 0.73381 0.02034 0.0
Cd36 Cd 0.51855 0.71108 0.11676 0.0
O37 O 0.50325 0.67157 0.18178 0.0
C38 C 0.52279 0.6576 0.20988 0.0
O39 O 0.54955 0.66821 0.1999 0.0
C40 C 0.55992 0.72118 0.95415 0.0
C41 C 0.56435 0.82424 0.86251 0.0
O42 O 0.58972 0.81819 0.84176 0.0
O43 O 0.55099 0.81116 0.92882 0.0
O44 O 0.26703 0.60599 0.21789 0.0
Cd45 Cd 0.31725 0.62201 0.19645 0.0
O46 O 0.27305 0.56719 0.13549 0.0
Cd47 Cd 0.25223 0.53008 0.06261 0.0
O48 O 0.21349 0.52325 0.98396 0.0
C49 C 0.21169 0.54287 0.92752 0.0
O50 O 0.23295 0.56307 0.92035 0.0
C51 C 0.25701 0.58202 0.18439 0.0
C52 C 0.34709 0.5865 0.29723 0.0
O53 O 0.33674 0.60825 0.33464 0.0
O54 O 0.34407 0.58192 0.21109 0.0
O55 O 0.10138 0.24177 0.32661 0.0
Cd56 Cd 0.12445 0.28331 0.24788 0.0
O57 O 0.13519 0.21561 0.27905 0.0
Cd58 Cd 0.14056 0.236 0.14791 0.0
O59 O 0.12575 0.20345 0.04465 0.0
C60 C 0.1061 0.18475 0.07147 0.0
O61 O 0.09472 0.18766 0.15368 0.0
C62 C 0.11365 0.21905 0.33078 0.0
C63 C 0.10877 0.33358 0.33214 0.0
O64 O 0.09668 0.32335 0.25917 0.0
O65 O 0.12844 0.32026 0.36477 0.0
O66 O 0.26138 0.93638 0.23684 0.0
Cd67 Cd 0.21446 0.92257 0.17601 0.0
O68 O 0.26542 0.97782 0.17013 0.0
Cd69 Cd 0.29271 0.01579 0.12772 0.0
O70 O 0.3312 0.03399 0.05552 0.0
C71 C 0.34117 0.01621 -0.0006 0.0
O72 O 0.32755 0.99054 0.99118 0.0
C73 C 0.27545 0.96026 0.22181 0.0
C74 C 0.17434 0.94425 0.29402 0.0
O75 O 0.18462 0.92083 0.3103 0.0
O76 O 0.18261 0.95721 0.22079 0.0
O77 O 0.39293 0.26386 0.23984 0.0
Cd78 Cd 0.37603 0.21808 0.16761 0.0
O79 O 0.43697 0.25329 0.22287 0.0
Cd80 Cd 0.42458 0.23909 0.08574 0.0
O81 O 0.42019 0.27519 0.99814 0.0
C82 C 0.43333 0.29864 0.02628 0.0
O83 O 0.44918 0.29865 0.09867 0.0
C84 C 0.41901 0.2685 0.26094 0.0
C85 C 0.40861 0.1756 0.22262 0.0
O86 O 0.41124 0.18481 0.14114 0.0
O87 O 0.39047 0.18603 0.27742 0.0
Dy88 Dy 0.01062 0.9803 0.76657 0.0
C89 C 0.04545 0.06993 0.51573 0.0
C90 C 0.98224 0.93681 0.86229 0.0
Dy91 Dy 0.02224 0.0257 0.61742 0.0
O92 O 0.00898 0.94614 0.87214 0.0
O93 O 0.97097 0.95222 0.80395 0.0
O94 O 0.05718 0.97276 0.76567 0.0
O95 O 0.039 0.98594 0.64788 0.0
C96 C 0.06213 0.98148 0.68277 0.0
C97 C 0.96968 0.02035 0.69094 0.0
O98 O 0.0073 0.98942 0.5236 0.0
O99 O 0.98991 0.95958 0.64087 0.0
O100 O 0.02482 0.07125 0.57578 0.0
O101 O 0.05292 0.04414 0.509 0.0
O102 O 0.97523 0.02758 0.60678 0.0
O103 O 0.99251 0.01895 0.73275 0.0
O104 O 0.02261 0.01915 0.85486 0.0
O105 O 0.0482 0.04236 0.73697 0.0
C106 C 0.99263 0.96575 0.55283 0.0
C107 C 0.04114 0.04016 0.82486 0.0
Dy108 Dy 0.4819 0.99312 0.49718 0.0
C109 C 0.58647 0.04674 0.64495 0.0
C110 C 0.42842 0.97376 0.44386 0.0
Dy111 Dy 0.53226 0.03001 0.58997 0.0
O112 O 0.45119 0.96119 0.42364 0.0
O113 O 0.43481 0.99646 0.49455 0.0
O114 O 0.51162 0.97387 0.39694 0.0
O115 O 0.52206 0.01542 0.45106 0.0
C116 C 0.53124 0.99523 0.40417 0.0
C117 C 0.48249 0.02542 0.68375 0.0
O118 O 0.51566 0.06528 0.51584 0.0
O119 O 0.47549 0.03786 0.45849 0.0
O120 O 0.56454 0.04064 0.69922 0.0
O121 O 0.57832 0.04511 0.56072 0.0
O122 O 0.50097 0.04787 0.69111 0.0
O123 O 0.49286 0.00639 0.63525 0.0
O124 O 0.49631 0.96106 0.59037 0.0
O125 O 0.54186 0.98443 0.60216 0.0
C126 C 0.49139 0.06256 0.47095 0.0
C127 C 0.52361 0.96126 0.61046 0.0
Dy128 Dy 0.4791 0.51365 0.75314 0.0
C129 C 0.45457 0.42264 0.48997 0.0
C130 C 0.49832 0.5597 0.86071 0.0
Dy131 Dy 0.47333 0.46734 0.60216 0.0
O132 O 0.47236 0.54737 0.86185 0.0
O133 O 0.51394 0.54609 0.80346 0.0
O134 O 0.43179 0.51676 0.75095 0.0
O135 O 0.45353 0.50638 0.63134 0.0
C136 C 0.4292 0.50939 0.66518 0.0
C137 C 0.52407 0.47485 0.68066 0.0
O138 O 0.48529 0.50431 0.51313 0.0
O139 O 0.50325 0.53401 0.63224 0.0
O140 O 0.48046 0.42803 0.51826 0.0
O141 O 0.43897 0.44223 0.52074 0.0
O142 O 0.52092 0.46697 0.5954 0.0
O143 O 0.50018 0.47582 0.72066 0.0
O144 O 0.46948 0.47521 0.83963 0.0
O145 O 0.4492 0.44704 0.72154 0.0
C146 C 0.50018 0.52788 0.54361 0.0
C147 C 0.45425 0.45167 0.80961 0.0
Dy148 Dy 0.00426 0.50806 0.58876 0.0
C149 C 0.09495 0.55119 0.34445 0.0
C150 C 0.95431 0.49754 0.68675 0.0
Dy151 Dy 0.04758 0.53531 0.44899 0.0
O152 O 0.9699 0.47813 0.65456 0.0
O153 O 0.96657 0.52268 0.66816 0.0
O154 O 0.02975 0.47059 0.59832 0.0
O155 O 0.02911 0.49204 0.47446 0.0
C156 C 0.04016 0.47283 0.51512 0.0
C157 C 0.01 0.5693 0.51816 0.0
O158 O 0.01557 0.51735 0.34948 0.0
O159 O 0.97936 0.50749 0.45877 0.0
O160 O 0.07675 0.56824 0.37546 0.0
O161 O 0.0871 0.52533 0.36965 0.0
O162 O 0.02005 0.57076 0.43473 0.0
O163 O 0.02204 0.55141 0.56195 0.0
O164 O 0.03883 0.52138 0.68711 0.0
O165 O 0.07348 0.53318 0.5742 0.0
C166 C 0.98857 0.50986 0.37242 0.0
C167 C 0.06567 0.52879 0.6608 0.0
H168 H 0.1677 0.93537 0.47576 0.0
H169 H 0.13416 0.97932 0.25465 0.0
H170 H 0.09739 0.99623 0.35783 0.0
H171 H 0.07299 0.9956 0.50764 0.0
H172 H 0.10759 0.95399 0.7315 0.0
H173 H 0.14601 0.93905 0.63042 0.0
C174 C 0.15236 0.94872 0.45041 0.0
C175 C 0.1533 0.95578 0.35765 0.0
C176 C 0.13161 0.95873 0.5104 0.0
C177 C 0.13373 0.97353 0.32577 0.0
C178 C 0.11271 0.98316 0.38461 0.0
C179 C 0.08929 0.98384 0.53481 0.0
C180 C 0.08751 0.97589 0.62663 0.0
C181 C 0.11125 0.97556 0.47665 0.0
C182 C 0.10859 0.96037 0.66092 0.0
C183 C 0.13043 0.95172 0.6031 0.0
H184 H 0.43593 0.1742 0.38225 0.0
H185 H 0.41951 0.12725 0.12862 0.0
H186 H 0.44483 0.08823 0.18201 0.0
H187 H 0.46926 0.0665 0.30463 0.0
H188 H 0.48947 0.11496 0.55293 0.0
H189 H 0.46545 0.15472 0.4977 0.0
C190 C 0.4381 0.15544 0.3388 0.0
C191 C 0.42564 0.15323 0.25241 0.0
C192 C 0.4534 0.13355 0.36889 0.0
C193 C 0.42893 0.12922 0.19554 0.0
C194 C 0.44332 0.10695 0.22607 0.0
C195 C 0.46867 0.08595 0.34594 0.0
C196 C 0.48083 0.08791 0.43275 0.0
C197 C 0.45532 0.10875 0.31305 0.0
C198 C 0.48032 0.11319 0.48563 0.0
C199 C 0.46643 0.13576 0.45436 0.0
H200 H 0.34164 0.57928 0.47979 0.0
H201 H 0.38579 0.55035 0.23756 0.0
H202 H 0.41269 0.52064 0.33033 0.0
H203 H 0.4262 0.50605 0.48115 0.0
H204 H 0.38242 0.53535 0.72361 0.0
H205 H 0.35201 0.56102 0.62943 0.0
C206 C 0.35706 0.56636 0.44735 0.0
C207 C 0.36207 0.56728 0.3523 0.0
C208 C 0.37223 0.54921 0.50093 0.0
C209 C 0.3817 0.55007 0.31075 0.0
C210 C 0.39704 0.53309 0.36368 0.0
C211 C 0.40966 0.51764 0.51326 0.0
C212 C 0.40677 0.51916 0.60912 0.0
C213 C 0.39279 0.53286 0.45893 0.0
C214 C 0.3851 0.53399 0.6499 0.0
C215 C 0.36789 0.54886 0.59616 0.0
H216 H 0.08462 0.37679 0.25615 0.0
H217 H 0.11271 0.34848 0.51294 0.0
H218 H 0.09481 0.38971 0.59257 0.0
H219 H 0.06897 0.43266 0.58995 0.0
H220 H 0.04352 0.46232 0.33161 0.0
H221 H 0.06282 0.42197 0.25171 0.0
C222 C 0.0869 0.37975 0.32948 0.0
C223 C 0.09966 0.35951 0.3788 0.0
C224 C 0.07704 0.40375 0.37448 0.0
C225 C 0.10292 0.36379 0.47354 0.0
C226 C 0.09264 0.38731 0.51912 0.0
C227 C 0.0679 0.43035 0.51611 0.0
C228 C 0.0546 0.45018 0.46681 0.0
C229 C 0.07936 0.40725 0.47044 0.0
C230 C 0.05361 0.44724 0.37108 0.0
C231 C 0.06454 0.42412 0.32536 0.0
H232 H 0.85505 0.97035 0.88368 0.0
H233 H 0.83284 0.95218 0.60207 0.0
H234 H 0.87988 0.97311 0.55138 0.0
H235 H 0.92667 0.99771 0.58643 0.0
H236 H 0.95026 0.01421 0.86702 0.0
H237 H 0.90315 0.99282 0.91916 0.0
C238 C 0.86054 0.97093 0.81126 0.0
C239 C 0.84042 0.95995 0.74671 0.0
C240 C 0.88771 0.98284 0.78253 0.0
C241 C 0.84794 0.96052 0.65315 0.0
C242 C 0.87478 0.97257 0.62403 0.0
C243 C 0.92138 0.9968 0.65898 0.0
C244 C 0.9415 0.00786 0.72305 0.0
C245 C 0.89467 0.98406 0.68803 0.0
C246 C 0.93481 0.006 0.81679 0.0
C247 C 0.908 0.99375 0.84642 0.0
H248 H 0.59132 0.86348 0.75047 0.0
H249 H 0.50845 0.83547 0.86704 0.0
H250 H 0.48788 0.87437 0.79387 0.0
H251 H 0.49407 0.9179 0.70279 0.0
H252 H 0.57781 0.94696 0.59482 0.0
H253 H 0.59735 0.90606 0.65821 0.0
C254 C 0.5687 0.8657 0.75923 0.0
C255 C 0.55145 0.84662 0.81403 0.0
C256 C 0.55718 0.88841 0.71877 0.0
C257 C 0.52222 0.84995 0.82533 0.0
C258 C 0.51044 0.87218 0.78354 0.0
C259 C 0.51651 0.91505 0.6925 0.0
C260 C 0.53449 0.93541 0.64453 0.0
C261 C 0.52779 0.89176 0.73097 0.0
C262 C 0.56359 0.93168 0.63226 0.0
C263 C 0.57479 0.90828 0.66831 0.0
H264 H 0.63216 0.5071 0.92044 0.0
H265 H 0.67288 0.46711 0.69004 0.0
H266 H 0.62721 0.45944 0.61252 0.0
H267 H 0.57558 0.4633 0.61224 0.0
H268 H 0.53407 0.49822 0.85037 0.0
H269 H 0.58016 0.50885 0.92327 0.0
C270 C 0.63097 0.49692 0.85294 0.0
C271 C 0.65567 0.48792 0.81023 0.0
C272 C 0.60455 0.49166 0.8106 0.0
C273 C 0.65399 0.47422 0.72377 0.0
C274 C 0.62795 0.46985 0.67961 0.0
C275 C 0.5767 0.47328 0.68001 0.0
C276 C 0.55168 0.48047 0.72542 0.0
C277 C 0.60308 0.47832 0.72267 0.0
C278 C 0.5532 0.49295 0.81369 0.0
C279 C 0.57949 0.49892 0.85545 0.0
H280 H 0.92102 0.65727 0.61427 0.0
H281 H 0.94461 0.64058 0.88882 0.0
H282 H 0.9759 0.60558 0.82925 0.0
H283 H 0.99791 0.58088 0.69799 0.0
H284 H 0.97554 0.59964 0.42407 0.0
H285 H 0.94236 0.63252 0.48446 0.0
C286 C 0.9329 0.64591 0.66121 0.0
C287 C 0.93051 0.65159 0.75579 0.0
C288 C 0.95114 0.62619 0.62649 0.0
C289 C 0.94617 0.63673 0.81559 0.0
C290 C 0.96404 0.61668 0.78161 0.0
C291 C 0.98558 0.59206 0.65184 0.0
C292 C 0.98913 0.58794 0.55684 0.0
C293 C 0.96688 0.61139 0.68708 0.0
C294 C 0.97323 0.60262 0.49751 0.0
C295 C 0.95426 0.6214 0.53194 0.0
H296 H 0.12483 0.16397 0.311 0.0
H297 H 0.07125 0.21886 0.46269 0.0
H298 H 0.04494 0.17718 0.53207 0.0
H299 H 0.03622 0.12513 0.54512 0.0
H300 H 0.08909 0.0705 0.38994 0.0
H301 H 0.11638 0.11229 0.32451 0.0
C302 C 0.10767 0.16694 0.36024 0.0
C303 C 0.10011 0.19453 0.38209 0.0
C304 C 0.09221 0.14294 0.39769 0.0
C305 C 0.07756 0.19787 0.44505 0.0
C306 C 0.06241 0.17406 0.48423 0.0
C307 C 0.05363 0.12242 0.49655 0.0
C308 C 0.06063 0.09489 0.47177 0.0
C309 C 0.0693 0.14649 0.45999 0.0
C310 C 0.08329 0.09155 0.40945 0.0
C311 C 0.09896 0.1154 0.37253 0.0
H312 H 0.31616 0.92478 0.24535 0.0
H313 H 0.29634 0.01124 0.29671 0.0
H314 H 0.34155 0.02263 0.3742 0.0
H315 H 0.38659 0.00795 0.42745 0.0
H316 H 0.40796 0.92234 0.36931 0.0
H317 H 0.36203 0.91038 0.29547 0.0
C318 C 0.32189 0.94611 0.27332 0.0
C319 C 0.30331 0.9673 0.26434 0.0
C320 C 0.34796 0.9525 0.31728 0.0
C321 C 0.31074 0.99483 0.30087 0.0
C322 C 0.3364 0.00126 0.34597 0.0
C323 C 0.38103 0.98661 0.39927 0.0
C324 C 0.40029 0.96591 0.40435 0.0
C325 C 0.35512 0.98025 0.35468 0.0
C326 C 0.39324 0.9385 0.36637 0.0
C327 C 0.36709 0.93172 0.32402 0.0
H328 H 0.38941 0.31365 0.30493 0.0
H329 H 0.47176 0.2824 0.33183 0.0
H330 H 0.49028 0.32799 0.40192 0.0
H331 H 0.4834 0.37698 0.45194 0.0
H332 H 0.40124 0.40839 0.42478 0.0
H333 H 0.38236 0.36248 0.35661 0.0
C334 C 0.4113 0.31664 0.32729 0.0
C335 C 0.42914 0.2946 0.31368 0.0
C336 C 0.42194 0.34304 0.36587 0.0
C337 C 0.45756 0.29898 0.34192 0.0
C338 C 0.46821 0.32509 0.38146 0.0
C339 C 0.46142 0.37381 0.43044 0.0
C340 C 0.44372 0.39595 0.44259 0.0
C341 C 0.45069 0.34734 0.39271 0.0
C342 C 0.41525 0.39161 0.41541 0.0
C343 C 0.40444 0.36536 0.37701 0.0
H344 H 0.21121 0.61256 0.19658 0.0
H345 H 0.23618 0.52767 0.22089 0.0
H346 H 0.18719 0.50986 0.26172 0.0
H347 H 0.13812 0.51912 0.30251 0.0
H348 H 0.11343 0.60445 0.28771 0.0
H349 H 0.16128 0.62142 0.2308 0.0
C350 C 0.20576 0.59014 0.21 0.0
C351 C 0.22703 0.5713 0.20357 0.0
C352 C 0.17765 0.58018 0.23564 0.0
C353 C 0.21991 0.54236 0.22214 0.0
C354 C 0.19198 0.53223 0.24656 0.0
C355 C 0.14314 0.54134 0.28553 0.0
C356 C 0.12246 0.56056 0.29943 0.0
C357 C 0.17078 0.55101 0.25474 0.0
C358 C 0.12914 0.5893 0.27761 0.0
C359 C 0.15648 0.59903 0.24543 0.0
H360 H 0.95023 0.8101 0.98099 0.0
H361 H 0.88476 0.81546 0.78388 0.0
H362 H 0.90102 0.86581 0.76214 0.0
H363 H 0.93451 0.90781 0.79632 0.0
H364 H 0.00107 0.90232 0.9896 0.0
H365 H 0.98279 0.85283 0.01962 0.0
C366 C 0.93906 0.8225 0.93517 0.0
C367 C 0.91591 0.80927 0.88565 0.0
C368 C 0.94851 0.85144 0.92325 0.0
C369 C 0.90256 0.82522 0.82298 0.0
C370 C 0.91173 0.85402 0.81096 0.0
C371 C 0.94472 0.89594 0.84623 0.0
C372 C 0.96898 0.90869 0.89128 0.0
C373 C 0.9347 0.86732 0.86063 0.0
C374 C 0.98227 0.89295 0.95461 0.0
C375 C 0.97195 0.86463 0.97118 0.0
H376 H 0.7084 0.0085 0.68348 0.0
H377 H 0.6798 0.00377 0.96518 0.0
H378 H 0.63769 0.02739 0.93077 0.0
H379 H 0.60581 0.04286 0.81615 0.0
H380 H 0.63346 0.04586 0.53284 0.0
H381 H 0.67932 0.03009 0.57208 0.0
C382 C 0.69318 0.01323 0.73741 0.0
C383 C 0.69728 0.00481 0.82693 0.0
C384 C 0.66878 0.02637 0.71655 0.0
C385 C 0.67746 0.01083 0.89643 0.0
C386 C 0.6532 0.02401 0.87644 0.0
C387 C 0.6222 0.04085 0.76349 0.0
C388 C 0.61622 0.04525 0.67176 0.0
C389 C 0.64823 0.03109 0.78625 0.0
C390 C 0.63759 0.04259 0.60403 0.0
C391 C 0.66372 0.0333 0.62629 0.0
H392 H 0.50885 0.68911 0.97827 0.0
H393 H 0.59554 0.68382 0.88206 0.0
H394 H 0.5849 0.63259 0.85138 0.0
H395 H 0.55047 0.58962 0.84855 0.0
H396 H 0.46479 0.59473 0.95527 0.0
H397 H 0.47617 0.64545 0.99233 0.0
C398 C 0.52582 0.67663 0.9548 0.0
C399 C 0.55321 0.69018 0.9355 0.0
C400 C 0.51981 0.64709 0.94029 0.0
C401 C 0.57429 0.67389 0.89798 0.0
C402 C 0.56829 0.64457 0.88106 0.0
C403 C 0.53448 0.60175 0.88149 0.0
C404 C 0.5068 0.58856 0.89876 0.0
C405 C 0.5411 0.63096 0.9018 0.0
C406 C 0.48625 0.60445 0.94136 0.0
C407 C 0.49267 0.63349 0.96178 0.0
H408 H 0.82751 0.45432 0.79799 0.0
H409 H 0.82354 0.54449 0.8479 0.0
H410 H 0.87364 0.55391 0.79991 0.0
H411 H 0.91894 0.53638 0.74723 0.0
H412 H 0.92357 0.44595 0.70619 0.0
H413 H 0.87321 0.43661 0.75156 0.0
C414 C 0.83773 0.47596 0.8 0.0
C415 C 0.822 0.49858 0.82865 0.0
C416 C 0.86677 0.48113 0.7751 0.0
C417 C 0.83522 0.52666 0.82668 0.0
C418 C 0.86393 0.53206 0.79993 0.0
C419 C 0.90896 0.51462 0.74916 0.0
C420 C 0.92489 0.49186 0.72368 0.0
C421 C 0.88 0.50943 0.77501 0.0
C422 C 0.91174 0.46379 0.72601 0.0
C423 C 0.88291 0.45846 0.75125 0.0
H424 H 0.07152 0.1378 0.12193 0.0
H425 H 0.12096 0.17386 0.89294 0.0
H426 H 0.10653 0.13134 0.79928 0.0
H427 H 0.07923 0.08493 0.78135 0.0
H428 H 0.02897 0.04859 0.00823 0.0
H429 H 0.04492 0.09026 0.1047 0.0
C430 C 0.07909 0.13643 0.0514 0.0
C431 C 0.09715 0.15913 0.01422 0.0
C432 C 0.07079 0.11186 0.99804 0.0
C433 C 0.10699 0.15681 0.92313 0.0
C434 C 0.09879 0.13247 0.86962 0.0
C435 C 0.0718 0.08587 0.85209 0.0
C436 C 0.05279 0.06359 0.88734 0.0
C437 C 0.08064 0.10998 0.90631 0.0
C438 C 0.04361 0.06534 0.9793 0.0
C439 C 0.05261 0.08924 0.03429 0.0
H440 H 0.36466 0.98326 0.86985 0.0
H441 H 0.37761 0.06564 0.00761 0.0
H442 H 0.42234 0.0764 0.9202 0.0
H443 H 0.45845 0.0616 0.80622 0.0
H444 H 0.44459 0.97857 0.67284 0.0
H445 H 0.39948 0.969 0.75645 0.0
C446 C 0.37717 0.00364 0.88087 0.0
C447 C 0.36781 0.02357 0.94534 0.0
C448 C 0.40275 0.00958 0.8309 0.0
C449 C 0.38432 0.0499 0.95831 0.0
C450 C 0.40991 0.05605 0.9084 0.0
C451 C 0.44543 0.0415 0.79547 0.0
C452 C 0.45482 0.02083 0.73347 0.0
C453 C 0.41944 0.03596 0.84477 0.0
C454 C 0.43783 0.99485 0.72007 0.0
C455 C 0.41203 0.98932 0.76799 0.0
H456 H 0.45261 0.35205 0.08554 0.0
H457 H 0.40898 0.30601 0.86215 0.0
H458 H 0.40837 0.35045 0.78086 0.0
H459 H 0.42369 0.40125 0.76795 0.0
H460 H 0.46899 0.44718 0.9884 0.0
H461 H 0.46475 0.40384 0.07744 0.0
C462 C 0.44287 0.3517 0.01913 0.0
C463 C 0.43124 0.32565 0.97923 0.0
C464 C 0.44275 0.37728 0.97267 0.0
C465 C 0.41828 0.3257 0.89398 0.0
C466 C 0.41791 0.35111 0.84756 0.0
C467 C 0.43236 0.402 0.836 0.0
C468 C 0.44696 0.42744 0.87095 0.0
C469 C 0.43056 0.37689 0.88553 0.0
C470 C 0.45771 0.42795 0.95965 0.0
C471 C 0.45549 0.40309 0.01029 0.0
H472 H 0.15785 0.51712 0.95941 0.0
H473 H 0.20866 0.57051 0.76936 0.0
H474 H 0.16738 0.57224 0.67395 0.0
H475 H 0.11766 0.55768 0.64175 0.0
H476 H 0.06556 0.5049 0.82996 0.0
H477 H 0.10642 0.50437 0.93018 0.0
C478 C 0.15981 0.52902 0.89693 0.0
C479 C 0.18632 0.54344 0.87092 0.0
C480 C 0.13578 0.53028 0.8427 0.0
C481 C 0.18852 0.55919 0.79073 0.0
C482 C 0.16493 0.56023 0.73614 0.0
C483 C 0.11511 0.54613 0.70493 0.0
C484 C 0.08869 0.53115 0.72805 0.0
C485 C 0.13856 0.54576 0.76123 0.0
C486 C 0.08567 0.51668 0.8108 0.0
C487 C 0.10908 0.5162 0.86767 0.0
H488 H 0.95466 0.87932 0.23094 0.0
H489 H 0.90973 0.83571 0.4556 0.0
H490 H 0.92688 0.87443 0.56076 0.0
H491 H 0.95556 0.91962 0.58966 0.0
H492 H 0.00102 0.96348 0.36652 0.0
H493 H 0.9823 0.9257 0.25951 0.0
C494 C 0.94857 0.87829 0.30289 0.0
C495 C 0.93106 0.85456 0.33545 0.0
C496 C 0.9585 0.90064 0.36305 0.0
C497 C 0.92322 0.85367 0.42873 0.0
C498 C 0.93301 0.8758 0.48894 0.0
C499 C 0.96142 0.92104 0.5176 0.0
C500 C 0.97989 0.94425 0.48626 0.0
C501 C 0.95081 0.89923 0.45692 0.0
C502 C 0.98687 0.94584 0.39248 0.0
C503 C 0.97626 0.9242 0.33134 0.0
H504 H 0.6494 0.97025 0.22913 0.0
H505 H 0.66244 0.06221 0.23328 0.0
H506 H 0.61634 0.06464 0.31333 0.0
H507 H 0.57057 0.04035 0.37095 0.0
H508 H 0.55738 0.94844 0.35714 0.0
H509 H 0.60528 0.94625 0.29145 0.0
C510 C 0.64239 0.99087 0.2484 0.0
C511 C 0.65925 0.016 0.22495 0.0
C512 C 0.61565 0.99208 0.29168 0.0
C513 C 0.64976 0.04253 0.25027 0.0
C514 C 0.62338 0.04393 0.29574 0.0
C515 C 0.57841 0.01991 0.35424 0.0
C516 C 0.56059 0.9946 0.36814 0.0
C517 C 0.60587 0.01883 0.31498 0.0
C518 C 0.57071 0.9682 0.34592 0.0
C519 C 0.5981 0.96692 0.30874 0.0
H520 H 0.55468 0.63448 0.33261 0.0
H521 H 0.47476 0.62048 0.19323 0.0
H522 H 0.46208 0.57676 0.2777 0.0
H523 H 0.47253 0.54437 0.39849 0.0
H524 H 0.55035 0.56137 0.54772 0.0
H525 H 0.56538 0.60195 0.45127 0.0
C526 C 0.53462 0.62169 0.32013 0.0
C527 C 0.51563 0.63061 0.25724 0.0
C528 C 0.5272 0.59716 0.37057 0.0
C529 C 0.48958 0.61407 0.24211 0.0
C530 C 0.48238 0.58908 0.29007 0.0
C531 C 0.49301 0.5567 0.40839 0.0
C532 C 0.51057 0.54992 0.47888 0.0
C533 C 0.50087 0.58065 0.35537 0.0
C534 C 0.53669 0.5663 0.49323 0.0
C535 C 0.54519 0.58948 0.43845 0.0
H536 H 0.91031 0.49414 0.03049 0.0
H537 H 0.86666 0.42893 0.19828 0.0
H538 H 0.90198 0.43969 0.31723 0.0
H539 H 0.94372 0.46949 0.37621 0.0
H540 H 0.98858 0.53303 0.20499 0.0
H541 H 0.95412 0.5212 0.08417 0.0
C542 C 0.90869 0.48216 0.09289 0.0
C543 C 0.88589 0.46102 0.10641 0.0
C544 C 0.92904 0.48836 0.16032 0.0
C545 C 0.88414 0.44529 0.18661 0.0
C546 C 0.90417 0.45156 0.25473 0.0
C547 C 0.94584 0.48074 0.31242 0.0
C548 C 0.96824 0.50233 0.29943 0.0
C549 C 0.92639 0.47339 0.24288 0.0
C550 C 0.97132 0.51639 0.21613 0.0
C551 C 0.95169 0.50965 0.14728 0.0
loop_
_geom_bond_atom_site_label_1
_geom_bond_atom_site_label_2
_geom_bond_distance
_geom_bond_site_symmetry_2
_ccdc_geom_bond_type
O0 Cd1 2.300 . S
O0 C7 1.275 . S
Cd1 O0 2.300 . S
Cd1 O9 2.381 . S
Cd1 O10 2.378 1_556 S
O2 Cd3 2.393 . S
O2 C7 1.248 1_554 S
Cd3 O2 2.393 . S
Cd3 O4 2.317 . S
O4 Cd3 2.317 . S
O4 C5 1.232 . S
C5 O4 1.232 . S
C5 O6 1.218 . S
O6 C5 1.218 . S
C7 O0 1.275 . S
C7 O2 1.248 1_556 S
C8 O9 1.258 . S
C8 O10 1.256 1_556 S
O9 Cd1 2.381 . S
O9 C8 1.258 . S
O10 Cd1 2.378 1_554 S
O10 C8 1.256 1_554 S
O11 Cd12 2.300 . S
O11 C18 1.275 . S
Cd12 O11 2.300 . S
Cd12 O20 2.381 . S
Cd12 O21 2.378 1_556 S
O13 Cd14 2.385 1_656 S
O13 C18 1.255 . S
Cd14 O13 2.385 1_454 S
Cd14 O15 2.317 1_455 S
O15 Cd14 2.317 1_655 S
O15 C16 1.232 . S
C16 O15 1.232 . S
C16 O17 1.218 . S
O17 C16 1.218 . S
C18 O11 1.275 . S
C18 O13 1.255 . S
C19 O20 1.258 . S
C19 O21 1.256 1_556 S
O20 Cd12 2.381 . S
O20 C19 1.258 . S
O21 Cd12 2.378 1_554 S
O21 C19 1.256 1_554 S
O22 Cd23 2.300 1_565 S
O22 C29 1.275 . S
Cd23 O22 2.300 1_545 S
Cd23 O31 2.381 1_545 S
Cd23 O32 2.378 1_556 S
O24 Cd25 2.385 1_556 S
O24 C29 1.255 1_545 S
Cd25 O24 2.385 1_554 S
Cd25 O26 2.317 . S
O26 Cd25 2.317 . S
O26 C27 1.232 1_545 S
C27 O26 1.232 1_565 S
C27 O28 1.218 1_565 S
O28 C27 1.218 1_545 S
C29 O22 1.275 . S
C29 O24 1.255 1_565 S
C30 O31 1.258 . S
C30 O32 1.256 1_566 S
O31 Cd23 2.381 1_565 S
O31 C30 1.258 . S
O32 Cd23 2.378 1_554 S
O32 C30 1.256 1_544 S
O33 Cd34 2.300 1_556 S
O33 C40 1.275 . S
Cd34 O33 2.300 1_554 S
Cd34 O42 2.381 1_554 S
Cd34 O43 2.378 . S
O35 Cd36 2.385 . S
O35 C40 1.255 1_554 S
Cd36 O35 2.385 . S
Cd36 O37 2.317 . S
O37 Cd36 2.317 . S
O37 C38 1.232 . S
C38 O37 1.232 . S
C38 O39 1.218 . S
O39 C38 1.218 . S
C40 O33 1.275 . S
C40 O35 1.255 1_556 S
C41 O42 1.258 1_554 S
C41 O43 1.256 . S
O42 Cd34 2.381 1_556 S
O42 C41 1.258 1_556 S
O43 Cd34 2.378 . S
O43 C41 1.256 . S
O44 Cd45 2.300 . S
O44 C51 1.275 . S
Cd45 O44 2.300 . S
Cd45 O53 2.381 . S
Cd45 O54 2.378 . S
O46 Cd47 2.385 . S
O46 C51 1.255 . S
Cd47 O46 2.385 . S
Cd47 O48 2.317 1_554 S
O48 Cd47 2.317 1_556 S
O48 C49 1.232 . S
C49 O48 1.232 . S
C49 O50 1.218 . S
O50 C49 1.218 . S
C51 O44 1.275 . S
C51 O46 1.255 . S
C52 O53 1.258 . S
C52 O54 1.256 . S
O53 Cd45 2.381 . S
O53 C52 1.258 . S
O54 Cd45 2.378 . S
O54 C52 1.256 . S
O55 Cd56 2.300 . S
O55 C62 1.275 . S
Cd56 O55 2.300 . S
Cd56 O64 2.381 . S
Cd56 O65 2.378 . S
O57 Cd58 2.385 . S
O57 C62 1.255 . S
Cd58 O57 2.385 . S
Cd58 O59 2.317 1_554 S
O59 Cd58 2.317 1_556 S
O59 C60 1.232 . S
C60 O59 1.232 . S
C60 O61 1.218 . S
O61 C60 1.218 . S
C62 O55 1.275 . S
C62 O57 1.255 . S
C63 O64 1.258 . S
C63 O65 1.256 . S
O64 Cd56 2.381 . S
O64 C63 1.258 . S
O65 Cd56 2.378 . S
O65 C63 1.256 . S
O66 Cd67 2.300 . S
O66 C73 1.275 . S
Cd67 O66 2.300 . S
Cd67 O75 2.381 . S
Cd67 O76 2.378 . S
O68 Cd69 2.385 . S
O68 C73 1.255 . S
Cd69 O68 2.385 . S
Cd69 O70 2.317 1_554 S
O70 Cd69 2.317 1_556 S
O70 C71 1.232 . S
C71 O70 1.232 . S
C71 O72 1.218 . S
O72 C71 1.218 . S
C73 O66 1.275 . S
C73 O68 1.255 . S
C74 O75 1.258 . S
C74 O76 1.256 . S
O75 Cd67 2.381 . S
O75 C74 1.258 . S
O76 Cd67 2.378 . S
O76 C74 1.256 . S
O77 Cd78 2.300 . S
O77 C84 1.275 . S
Cd78 O77 2.300 . S
Cd78 O86 2.381 . S
Cd78 O87 2.378 . S
O79 Cd80 2.385 . S
O79 C84 1.255 . S
Cd80 O79 2.385 . S
Cd80 O81 2.317 1_554 S
O81 Cd80 2.317 1_556 S
O81 C82 1.232 . S
C82 O81 1.232 . S
C82 O83 1.218 . S
O83 C82 1.218 . S
C84 O77 1.275 . S
C84 O79 1.255 . S
C85 O86 1.258 . S
C85 O87 1.256 . S
O86 Cd78 2.381 . S
O86 C85 1.258 . S
O87 Cd78 2.378 . S
O87 C85 1.256 . S
Dy88 O92 2.398 . S
Dy88 O93 2.491 1_455 S
Dy88 O94 2.403 . S
Dy88 O95 2.664 1_565 S
Dy88 O99 2.326 . S
Dy88 O103 2.310 1_455 S
Dy88 O104 2.351 1_565 S
C89 O100 1.185 1_455 S
C89 O101 1.355 . S
C90 O92 1.185 . S
C90 O93 1.355 1_455 S
Dy91 O95 2.310 1_655 S
Dy91 O98 2.351 1_545 S
Dy91 O100 2.398 . S
Dy91 O101 2.491 1_655 S
Dy91 O102 2.403 . S
Dy91 O103 2.664 1_545 S
Dy91 O105 2.326 1_655 S
O92 Dy88 2.398 . S
O92 C90 1.185 . S
O93 Dy88 2.491 1_655 S
O93 C90 1.355 1_655 S
O94 Dy88 2.403 . S
O94 C96 1.237 1_565 S
O95 Dy88 2.664 1_545 S
O95 Dy91 2.310 1_455 S
O95 C96 1.279 . S
C96 O94 1.237 1_545 S
C96 O95 1.279 . S
C97 O102 1.254 . S
C97 O103 1.268 1_545 S
O98 Dy91 2.351 1_565 S
O98 C106 1.249 . S
O99 Dy88 2.326 . S
O99 C106 1.267 1_455 S
O100 C89 1.185 1_655 S
O100 Dy91 2.398 . S
O101 C89 1.355 . S
O101 Dy91 2.491 1_455 S
O102 Dy91 2.403 . S
O102 C97 1.254 . S
O103 Dy88 2.310 1_655 S
O103 Dy91 2.664 1_565 S
O103 C97 1.268 1_565 S
O104 Dy88 2.351 1_545 S
O104 C107 1.249 . S
O105 Dy91 2.326 1_455 S
O105 C107 1.267 . S
C106 O98 1.249 . S
C106 O99 1.267 1_655 S
C107 O104 1.249 . S
C107 O105 1.267 . S
Dy108 O112 2.398 . S
Dy108 O113 2.491 1_565 S
Dy108 O114 2.403 . S
Dy108 O115 2.664 . S
Dy108 O119 2.326 1_565 S
Dy108 O123 2.310 1_565 S
Dy108 O124 2.351 . S
C109 O120 1.185 . S
C109 O121 1.355 . S
C110 O112 1.185 . S
C110 O113 1.355 1_565 S
Dy111 O115 2.310 1_545 S
Dy111 O118 2.351 . S
Dy111 O120 2.398 . S
Dy111 O121 2.491 . S
Dy111 O122 2.403 . S
Dy111 O123 2.664 . S
Dy111 O125 2.326 1_545 S
O112 Dy108 2.398 . S
O112 C110 1.185 . S
O113 Dy108 2.491 1_545 S
O113 C110 1.355 1_545 S
O114 Dy108 2.403 . S
O114 C116 1.254 . S
O115 Dy108 2.664 . S
O115 Dy111 2.310 1_565 S
O115 C116 1.268 . S
C116 O114 1.254 . S
C116 O115 1.268 . S
C117 O122 1.254 . S
C117 O123 1.268 . S
O118 Dy111 2.351 . S
O118 C126 1.249 . S
O119 Dy108 2.326 1_545 S
O119 C126 1.267 . S
O120 C109 1.185 . S
O120 Dy111 2.398 . S
O121 C109 1.355 . S
O121 Dy111 2.491 . S
O122 Dy111 2.403 . S
O122 C117 1.254 . S
O123 Dy108 2.310 1_545 S
O123 Dy111 2.664 . S
O123 C117 1.268 . S
O124 Dy108 2.351 . S
O124 C127 1.249 . S
O125 Dy111 2.326 1_565 S
O125 C127 1.267 . S
C126 O118 1.249 . S
C126 O119 1.267 . S
C127 O124 1.249 . S
C127 O125 1.267 . S
Dy128 O132 2.398 . S
Dy128 O133 2.491 . S
Dy128 O134 2.403 . S
Dy128 O135 2.664 . S
Dy128 O139 2.326 . S
Dy128 O143 2.310 . S
Dy128 O144 2.351 . S
C129 O140 1.185 . S
C129 O141 1.355 . S
C130 O132 1.185 . S
C130 O133 1.355 . S
Dy131 O135 2.310 . S
Dy131 O138 2.351 . S
Dy131 O140 2.398 . S
Dy131 O141 2.491 . S
Dy131 O142 2.403 . S
Dy131 O143 2.664 . S
Dy131 O145 2.326 . S
O132 Dy128 2.398 . S
O132 C130 1.185 . S
O133 Dy128 2.491 . S
O133 C130 1.355 . S
O134 Dy128 2.403 . S
O134 C136 1.254 . S
O135 Dy128 2.664 . S
O135 Dy131 2.310 . S
O135 C136 1.268 . S
C136 O134 1.254 . S
C136 O135 1.268 . S
C137 O142 1.254 . S
C137 O143 1.268 . S
O138 Dy131 2.351 . S
O138 C146 1.249 . S
O139 Dy128 2.326 . S
O139 C146 1.267 . S
O140 C129 1.185 . S
O140 Dy131 2.398 . S
O141 C129 1.355 . S
O141 Dy131 2.491 . S
O142 Dy131 2.403 . S
O142 C137 1.254 . S
O143 Dy128 2.310 . S
O143 Dy131 2.664 . S
O143 C137 1.268 . S
O144 Dy128 2.351 . S
O144 C147 1.249 . S
O145 Dy131 2.326 . S
O145 C147 1.267 . S
C146 O138 1.249 . S
C146 O139 1.267 . S
C147 O144 1.249 . S
C147 O145 1.267 . S
Dy148 O152 2.398 . S
Dy148 O153 2.491 . S
Dy148 O154 2.403 . S
Dy148 O155 2.664 1_655 S
Dy148 O159 2.326 . S
Dy148 O163 2.310 . S
Dy148 O164 2.351 1_655 S
C149 O160 1.185 . S
C149 O161 1.355 . S
C150 O152 1.185 . S
C150 O153 1.355 . S
Dy151 O155 2.310 . S
Dy151 O158 2.351 1_455 S
Dy151 O160 2.398 . S
Dy151 O161 2.491 . S
Dy151 O162 2.403 . S
Dy151 O163 2.664 1_455 S
Dy151 O165 2.326 . S
O152 Dy148 2.398 . S
O152 C150 1.185 . S
O153 Dy148 2.491 . S
O153 C150 1.355 . S
O154 Dy148 2.403 . S
O154 C156 1.254 1_655 S
O155 Dy148 2.664 1_455 S
O155 Dy151 2.310 . S
O155 C156 1.268 . S
C156 O154 1.254 1_455 S
C156 O155 1.268 . S
C157 O162 1.254 . S
C157 O163 1.268 1_455 S
O158 Dy151 2.351 1_655 S
O158 C166 1.249 . S
O159 Dy148 2.326 . S
O159 C166 1.267 . S
O160 C149 1.185 . S
O160 Dy151 2.398 . S
O161 C149 1.355 . S
O161 Dy151 2.491 . S
O162 Dy151 2.403 . S
O162 C157 1.254 . S
O163 Dy148 2.310 . S
O163 Dy151 2.664 1_655 S
O163 C157 1.268 1_655 S
O164 Dy148 2.351 1_455 S
O164 C167 1.249 . S
O165 Dy151 2.326 . S
O165 C167 1.267 . S
C166 O158 1.249 . S
C166 O159 1.267 . S
C167 O164 1.249 . S
C167 O165 1.267 . S
H168 C174 0.931 . S
H169 C177 0.930 . S
H170 C178 0.930 . S
H171 C179 0.930 . S
H172 C182 0.930 . S
H173 C183 0.930 . S
C174 H168 0.931 . S
C174 C175 1.353 1_565 S
C174 C176 1.414 1_565 S
C175 C174 1.353 1_545 S
C175 C177 1.419 . S
C176 C174 1.414 1_545 S
C176 C181 1.425 . S
C176 C183 1.409 1_545 S
C177 H169 0.930 . S
C177 C175 1.419 . S
C177 C178 1.362 . S
C178 H170 0.930 . S
C178 C177 1.362 . S
C178 C181 1.409 . S
C179 H171 0.930 . S
C179 C180 1.355 . S
C179 C181 1.415 . S
C180 C179 1.355 . S
C180 C182 1.419 1_545 S
C181 C176 1.425 . S
C181 C178 1.409 . S
C181 C179 1.415 . S
C182 H172 0.930 . S
C182 C180 1.419 1_565 S
C182 C183 1.362 . S
C183 H173 0.930 . S
C183 C176 1.409 1_565 S
C183 C182 1.362 . S
H184 C190 0.930 . S
H185 C193 0.930 . S
H186 C194 0.930 . S
H187 C195 0.930 . S
H188 C198 0.930 . S
H189 C199 0.930 . S
C190 H184 0.930 . S
C190 C191 1.355 . S
C190 C192 1.415 . S
C191 C190 1.355 . S
C191 C193 1.419 . S
C192 C190 1.415 . S
C192 C197 1.425 . S
C192 C199 1.409 . S
C193 H185 0.930 . S
C193 C191 1.419 . S
C193 C194 1.362 . S
C194 H186 0.930 . S
C194 C193 1.362 . S
C194 C197 1.409 . S
C195 H187 0.930 . S
C195 C196 1.355 . S
C195 C197 1.415 . S
C196 C195 1.355 . S
C196 C198 1.419 . S
C197 C192 1.425 . S
C197 C194 1.409 . S
C197 C195 1.415 . S
C198 H188 0.930 . S
C198 C196 1.419 . S
C198 C199 1.362 . S
C199 H189 0.930 . S
C199 C192 1.409 . S
C199 C198 1.362 . S
H200 C206 0.930 . S
H201 C209 0.930 . S
H202 C210 0.930 . S
H203 C211 0.930 . S
H204 C214 0.930 . S
H205 C215 0.930 . S
C206 H200 0.930 . S
C206 C207 1.355 . S
C206 C208 1.415 . S
C207 C206 1.355 . S
C207 C209 1.419 . S
C208 C206 1.415 . S
C208 C213 1.425 . S
C208 C215 1.409 . S
C209 H201 0.930 . S
C209 C207 1.419 . S
C209 C210 1.362 . S
C210 H202 0.930 . S
C210 C209 1.362 . S
C210 C213 1.409 . S
C211 H203 0.930 . S
C211 C212 1.355 . S
C211 C213 1.415 . S
C212 C211 1.355 . S
C212 C214 1.419 . S
C213 C208 1.425 . S
C213 C210 1.409 . S
C213 C211 1.415 . S
C214 H204 0.930 . S
C214 C212 1.419 . S
C214 C215 1.362 . S
C215 H205 0.930 . S
C215 C208 1.409 . S
C215 C214 1.362 . S
H216 C222 0.930 . S
H217 C225 0.930 . S
H218 C226 0.930 . S
H219 C227 0.930 . S
H220 C230 0.930 . S
H221 C231 0.930 . S
C222 H216 0.930 . S
C222 C223 1.355 . S
C222 C224 1.415 . S
C223 C222 1.355 . S
C223 C225 1.419 . S
C224 C222 1.415 . S
C224 C229 1.425 . S
C224 C231 1.409 1_455 S
C225 H217 0.930 . S
C225 C223 1.419 . S
C225 C226 1.362 . S
C226 H218 0.930 . S
C226 C225 1.362 . S
C226 C229 1.409 . S
C227 H219 0.930 . S
C227 C228 1.355 . S
C227 C229 1.415 . S
C228 C227 1.355 . S
C228 C230 1.419 1_455 S
C229 C224 1.425 . S
C229 C226 1.409 . S
C229 C227 1.415 . S
C230 H220 0.930 . S
C230 C228 1.419 1_655 S
C230 C231 1.362 . S
C231 H221 0.930 . S
C231 C224 1.409 1_655 S
C231 C230 1.362 . S
H232 C238 0.930 . S
H233 C241 0.931 1_545 S
H234 C242 0.930 . S
H235 C243 0.930 . S
H236 C246 0.930 . S
H237 C247 0.930 . S
C238 H232 0.930 . S
C238 C239 1.355 . S
C238 C240 1.415 . S
C239 C238 1.355 . S
C239 C241 1.417 . S
C240 C238 1.415 . S
C240 C245 1.425 . S
C240 C247 1.409 . S
C241 H233 0.931 1_565 S
C241 C239 1.417 . S
C241 C242 1.363 1_565 S
C242 H234 0.930 . S
C242 C241 1.363 1_545 S
C242 C245 1.409 1_545 S
C243 H235 0.930 . S
C243 C244 1.355 1_545 S
C243 C245 1.415 1_545 S
C244 C243 1.355 1_565 S
C244 C246 1.419 . S
C245 C240 1.425 . S
C245 C242 1.409 1_565 S
C245 C243 1.415 1_565 S
C246 H236 0.930 . S
C246 C244 1.419 . S
C246 C247 1.362 . S
C247 H237 0.930 . S
C247 C240 1.409 . S
C247 C246 1.362 . S
H248 C254 0.930 . S
H249 C257 0.930 1_554 S
H250 C258 0.930 . S
H251 C259 0.930 . S
H252 C262 0.930 . S
H253 C263 0.930 . S
C254 H248 0.930 . S
C254 C255 1.355 . S
C254 C256 1.415 . S
C255 C254 1.355 . S
C255 C257 1.419 . S
C256 C254 1.415 . S
C256 C261 1.425 . S
C256 C263 1.409 . S
C257 H249 0.930 1_556 S
C257 C255 1.419 . S
C257 C258 1.362 . S
C258 H250 0.930 . S
C258 C257 1.362 . S
C258 C261 1.409 . S
C259 H251 0.930 . S
C259 C260 1.355 . S
C259 C261 1.415 . S
C260 C259 1.355 . S
C260 C262 1.419 . S
C261 C256 1.425 . S
C261 C258 1.409 . S
C261 C259 1.415 . S
C262 H252 0.930 . S
C262 C260 1.419 . S
C262 C263 1.362 . S
C263 H253 0.930 . S
C263 C256 1.409 . S
C263 C262 1.362 . S
H264 C270 0.930 . S
H265 C273 0.930 . S
H266 C274 0.930 . S
H267 C275 0.930 . S
H268 C278 0.930 . S
H269 C279 0.930 . S
C270 H264 0.930 . S
C270 C271 1.355 . S
C270 C272 1.415 . S
C271 C270 1.355 . S
C271 C273 1.419 . S
C272 C270 1.415 . S
C272 C277 1.425 . S
C272 C279 1.409 . S
C273 H265 0.930 . S
C273 C271 1.419 . S
C273 C274 1.362 . S
C274 H266 0.930 . S
C274 C273 1.362 . S
C274 C277 1.409 . S
C275 H267 0.930 . S
C275 C276 1.355 . S
C275 C277 1.415 . S
C276 C275 1.355 . S
C276 C278 1.419 . S
C277 C272 1.425 . S
C277 C274 1.409 . S
C277 C275 1.415 . S
C278 H268 0.930 . S
C278 C276 1.419 . S
C278 C279 1.362 . S
C279 H269 0.930 . S
C279 C272 1.409 . S
C279 C278 1.362 . S
H280 C286 0.930 . S
H281 C289 0.930 1_554 S
H282 C290 0.930 1_455 S
H283 C291 0.930 . S
H284 C294 0.930 . S
H285 C295 0.930 . S
C286 H280 0.930 . S
C286 C287 1.355 . S
C286 C288 1.415 . S
C287 C286 1.355 . S
C287 C289 1.419 . S
C288 C286 1.415 . S
C288 C293 1.425 . S
C288 C295 1.409 . S
C289 H281 0.930 1_556 S
C289 C287 1.419 . S
C289 C290 1.362 . S
C290 H282 0.930 1_655 S
C290 C289 1.362 . S
C290 C293 1.409 . S
C291 H283 0.930 . S
C291 C292 1.354 1_455 S
C291 C293 1.414 1_455 S
C292 C291 1.354 1_655 S
C292 C294 1.419 . S
C293 C288 1.425 . S
C293 C290 1.409 . S
C293 C291 1.414 1_655 S
C294 H284 0.930 . S
C294 C292 1.419 . S
C294 C295 1.362 . S
C295 H285 0.930 . S
C295 C288 1.409 . S
C295 C294 1.362 . S
H296 C302 0.930 . S
H297 C305 0.930 . S
H298 C306 0.930 1_655 S
H299 C307 0.953 . S
H300 C310 0.930 . S
H301 C311 0.930 . S
C302 H296 0.930 . S
C302 C303 1.355 . S
C302 C304 1.415 . S
C303 C302 1.355 . S
C303 C305 1.419 . S
C304 C302 1.415 . S
C304 C309 1.425 . S
C304 C311 1.409 . S
C305 H297 0.930 . S
C305 C303 1.419 . S
C305 C306 1.362 . S
C306 H298 0.930 1_455 S
C306 C305 1.362 . S
C306 C309 1.409 . S
C307 H299 0.953 . S
C307 C308 1.342 1_655 S
C307 C309 1.405 1_655 S
C308 C307 1.342 1_455 S
C308 C310 1.419 . S
C309 C304 1.425 . S
C309 C306 1.409 . S
C309 C307 1.405 1_455 S
C310 H300 0.930 . S
C310 C308 1.419 . S
C310 C311 1.362 . S
C311 H301 0.930 . S
C311 C304 1.409 . S
C311 C310 1.362 . S
H312 C318 0.930 . S
H313 C321 0.930 . S
H314 C322 0.930 . S
H315 C323 0.930 . S
H316 C326 0.930 . S
H317 C327 0.930 . S
C318 H312 0.930 . S
C318 C319 1.355 . S
C318 C320 1.415 . S
C319 C318 1.355 . S
C319 C321 1.419 . S
C320 C318 1.415 . S
C320 C325 1.425 . S
C320 C327 1.409 1_545 S
C321 H313 0.930 . S
C321 C319 1.419 . S
C321 C322 1.362 . S
C322 H314 0.930 . S
C322 C321 1.362 . S
C322 C325 1.409 . S
C323 H315 0.930 . S
C323 C324 1.341 1_545 S
C323 C325 1.415 . S
C324 C323 1.341 1_565 S
C324 C326 1.426 . S
C325 C320 1.425 . S
C325 C322 1.409 . S
C325 C323 1.415 . S
C326 H316 0.930 . S
C326 C324 1.426 . S
C326 C327 1.362 . S
C327 H317 0.930 . S
C327 C320 1.409 1_565 S
C327 C326 1.362 . S
H328 C334 0.930 . S
H329 C337 0.930 . S
H330 C338 0.930 . S
H331 C339 0.930 . S
H332 C342 0.930 . S
H333 C343 0.930 . S
C334 H328 0.930 . S
C334 C335 1.355 . S
C334 C336 1.415 . S
C335 C334 1.355 . S
C335 C337 1.419 . S
C336 C334 1.415 . S
C336 C341 1.425 . S
C336 C343 1.409 . S
C337 H329 0.930 . S
C337 C335 1.419 . S
C337 C338 1.362 . S
C338 H330 0.930 . S
C338 C337 1.362 . S
C338 C341 1.409 . S
C339 H331 0.930 . S
C339 C340 1.355 . S
C339 C341 1.415 . S
C340 C339 1.355 . S
C340 C342 1.419 . S
C341 C336 1.425 . S
C341 C338 1.409 . S
C341 C339 1.415 . S
C342 H332 0.930 . S
C342 C340 1.419 . S
C342 C343 1.362 . S
C343 H333 0.930 . S
C343 C336 1.409 . S
C343 C342 1.362 . S
H344 C350 0.930 . S
H345 C353 0.930 . S
H346 C354 0.930 . S
H347 C355 0.930 . S
H348 C358 0.930 . S
H349 C359 0.930 . S
C350 H344 0.930 . S
C350 C351 1.355 . S
C350 C352 1.415 . S
C351 C350 1.355 . S
C351 C353 1.419 . S
C352 C350 1.415 . S
C352 C357 1.425 . S
C352 C359 1.409 . S
C353 H345 0.930 . S
C353 C351 1.419 . S
C353 C354 1.362 . S
C354 H346 0.930 . S
C354 C353 1.362 . S
C354 C357 1.409 . S
C355 H347 0.930 . S
C355 C356 1.355 . S
C355 C357 1.415 . S
C356 C355 1.355 . S
C356 C358 1.419 . S
C357 C352 1.425 . S
C357 C354 1.409 . S
C357 C355 1.415 . S
C358 H348 0.930 . S
C358 C356 1.419 . S
C358 C359 1.362 . S
C359 H349 0.930 . S
C359 C352 1.409 . S
C359 C358 1.362 . S
H360 C366 0.930 1_455 S
H361 C369 0.930 . S
H362 C370 0.930 . S
H363 C371 0.930 . S
H364 C374 0.930 . S
H365 C375 0.930 . S
C366 H360 0.930 1_655 S
C366 C367 1.355 . S
C366 C368 1.415 . S
C367 C366 1.355 . S
C367 C369 1.419 . S
C368 C366 1.415 . S
C368 C373 1.425 . S
C368 C375 1.409 1_655 S
C369 H361 0.930 . S
C369 C367 1.419 . S
C369 C370 1.362 . S
C370 H362 0.930 . S
C370 C369 1.362 . S
C370 C373 1.409 . S
C371 H363 0.930 . S
C371 C372 1.355 1_655 S
C371 C373 1.415 . S
C372 C371 1.355 1_455 S
C372 C374 1.419 . S
C373 C368 1.425 . S
C373 C370 1.409 . S
C373 C371 1.415 . S
C374 H364 0.930 . S
C374 C372 1.419 . S
C374 C375 1.362 . S
C375 H365 0.930 . S
C375 C368 1.409 1_455 S
C375 C374 1.362 . S
H376 C382 0.930 . S
H377 C385 0.930 1_554 S
H378 C386 0.936 . S
H379 C387 0.930 . S
H380 C390 0.930 . S
H381 C391 0.930 . S
C382 H376 0.930 . S
C382 C383 1.355 . S
C382 C384 1.415 . S
C383 C382 1.355 . S
C383 C385 1.419 1_565 S
C384 C382 1.415 . S
C384 C389 1.425 1_565 S
C384 C391 1.409 . S
C385 H377 0.930 1_556 S
C385 C383 1.419 1_545 S
C385 C386 1.362 . S
C386 H378 0.936 . S
C386 C385 1.362 . S
C386 C389 1.409 . S
C387 H379 0.930 . S
C387 C388 1.355 . S
C387 C389 1.415 . S
C388 C387 1.355 . S
C388 C390 1.419 1_545 S
C389 C384 1.425 1_545 S
C389 C386 1.409 . S
C389 C387 1.415 . S
C390 H380 0.930 . S
C390 C388 1.419 1_565 S
C390 C391 1.362 . S
C391 H381 0.930 . S
C391 C384 1.409 . S
C391 C390 1.362 . S
H392 C398 0.930 1_554 S
H393 C401 0.930 . S
H394 C402 0.930 . S
H395 C403 0.930 . S
H396 C406 0.930 . S
H397 C407 0.930 . S
C398 H392 0.930 1_556 S
C398 C399 1.355 . S
C398 C400 1.415 . S
C399 C398 1.355 . S
C399 C401 1.419 . S
C400 C398 1.415 . S
C400 C405 1.425 . S
C400 C407 1.409 . S
C401 H393 0.930 . S
C401 C399 1.419 . S
C401 C402 1.362 . S
C402 H394 0.930 . S
C402 C401 1.362 . S
C402 C405 1.409 . S
C403 H395 0.930 . S
C403 C404 1.355 . S
C403 C405 1.415 . S
C404 C403 1.355 . S
C404 C406 1.419 . S
C405 C400 1.425 . S
C405 C402 1.409 . S
C405 C403 1.415 . S
C406 H396 0.930 . S
C406 C404 1.419 . S
C406 C407 1.362 . S
C407 H397 0.930 . S
C407 C400 1.409 . S
C407 C406 1.362 . S
H408 C414 0.930 1_554 S
H409 C417 0.930 . S
H410 C418 0.930 . S
H411 C419 0.930 . S
H412 C422 0.930 . S
H413 C423 0.930 . S
C414 H408 0.930 1_556 S
C414 C415 1.355 . S
C414 C416 1.415 . S
C415 C414 1.355 . S
C415 C417 1.419 . S
C416 C414 1.415 . S
C416 C421 1.425 . S
C416 C423 1.409 . S
C417 H409 0.930 . S
C417 C415 1.419 . S
C417 C418 1.362 . S
C418 H410 0.930 . S
C418 C417 1.362 . S
C418 C421 1.409 . S
C419 H411 0.930 . S
C419 C420 1.355 . S
C419 C421 1.415 . S
C420 C419 1.355 . S
C420 C422 1.419 . S
C421 C416 1.425 . S
C421 C418 1.409 . S
C421 C419 1.415 . S
C422 H412 0.930 . S
C422 C420 1.419 . S
C422 C423 1.362 . S
C423 H413 0.930 . S
C423 C416 1.409 . S
C423 C422 1.362 . S
H424 C430 0.930 . S
H425 C433 0.930 . S
H426 C434 0.930 . S
H427 C435 0.930 . S
H428 C438 0.930 1_655 S
H429 C439 0.930 1_655 S
C430 H424 0.930 . S
C430 C431 1.355 . S
C430 C432 1.415 . S
C431 C430 1.355 . S
C431 C433 1.419 . S
C432 C430 1.415 . S
C432 C437 1.425 . S
C432 C439 1.409 . S
C433 H425 0.930 . S
C433 C431 1.419 . S
C433 C434 1.362 . S
C434 H426 0.930 . S
C434 C433 1.362 . S
C434 C437 1.409 . S
C435 H427 0.930 . S
C435 C436 1.355 . S
C435 C437 1.415 . S
C436 C435 1.355 . S
C436 C438 1.419 . S
C437 C432 1.425 . S
C437 C434 1.409 . S
C437 C435 1.415 . S
C438 H428 0.930 1_455 S
C438 C436 1.419 . S
C438 C439 1.362 . S
C439 H429 0.930 1_455 S
C439 C432 1.409 . S
C439 C438 1.362 . S
H440 C446 0.930 . S
H441 C449 0.930 1_554 S
H442 C450 0.930 1_554 S
H443 C451 0.930 . S
H444 C454 0.930 . S
H445 C455 0.930 . S
C446 H440 0.930 . S
C446 C447 1.355 . S
C446 C448 1.415 . S
C447 C446 1.355 . S
C447 C449 1.419 . S
C448 C446 1.415 . S
C448 C453 1.425 . S
C448 C455 1.409 . S
C449 H441 0.930 1_556 S
C449 C447 1.419 . S
C449 C450 1.362 . S
C450 H442 0.930 1_556 S
C450 C449 1.362 . S
C450 C453 1.409 . S
C451 H443 0.930 . S
C451 C452 1.355 . S
C451 C453 1.415 . S
C452 C451 1.355 . S
C452 C454 1.419 . S
C453 C448 1.425 . S
C453 C450 1.409 . S
C453 C451 1.415 . S
C454 H444 0.930 . S
C454 C452 1.419 . S
C454 C455 1.362 . S
C455 H445 0.930 . S
C455 C448 1.409 . S
C455 C454 1.362 . S
H456 C462 0.930 . S
H457 C465 0.930 . S
H458 C466 0.930 . S
H459 C467 0.930 . S
H460 C470 0.930 . S
H461 C471 0.930 . S
C462 H456 0.930 . S
C462 C463 1.355 . S
C462 C464 1.415 . S
C463 C462 1.355 . S
C463 C465 1.419 . S
C464 C462 1.415 . S
C464 C469 1.425 . S
C464 C471 1.409 . S
C465 H457 0.930 . S
C465 C463 1.419 . S
C465 C466 1.362 . S
C466 H458 0.930 . S
C466 C465 1.362 . S
C466 C469 1.409 . S
C467 H459 0.930 . S
C467 C468 1.355 . S
C467 C469 1.415 . S
C468 C467 1.355 . S
C468 C470 1.419 . S
C469 C464 1.425 . S
C469 C466 1.409 . S
C469 C467 1.415 . S
C470 H460 0.930 . S
C470 C468 1.419 . S
C470 C471 1.362 . S
C471 H461 0.930 . S
C471 C464 1.409 . S
C471 C470 1.362 . S
H472 C478 0.930 . S
H473 C481 0.930 . S
H474 C482 0.930 . S
H475 C483 0.930 . S
H476 C486 0.930 . S
H477 C487 0.930 . S
C478 H472 0.930 . S
C478 C479 1.355 . S
C478 C480 1.415 . S
C479 C478 1.355 . S
C479 C481 1.419 . S
C480 C478 1.415 . S
C480 C485 1.425 . S
C480 C487 1.409 . S
C481 H473 0.930 . S
C481 C479 1.419 . S
C481 C482 1.362 . S
C482 H474 0.930 . S
C482 C481 1.362 . S
C482 C485 1.409 . S
C483 H475 0.930 . S
C483 C484 1.355 . S
C483 C485 1.415 . S
C484 C483 1.355 . S
C484 C486 1.419 . S
C485 C480 1.425 . S
C485 C482 1.409 . S
C485 C483 1.415 . S
C486 H476 0.930 . S
C486 C484 1.419 . S
C486 C487 1.362 . S
C487 H477 0.930 . S
C487 C480 1.409 . S
C487 C486 1.362 . S
H488 C494 0.930 1_455 S
H489 C497 0.930 . S
H490 C498 0.930 . S
H491 C499 0.930 . S
H492 C502 0.930 . S
H493 C503 0.930 . S
C494 H488 0.930 1_655 S
C494 C495 1.355 . S
C494 C496 1.415 . S
C495 C494 1.355 . S
C495 C497 1.419 . S
C496 C494 1.415 . S
C496 C501 1.425 . S
C496 C503 1.409 1_655 S
C497 H489 0.930 . S
C497 C495 1.419 . S
C497 C498 1.362 . S
C498 H490 0.930 . S
C498 C497 1.362 . S
C498 C501 1.409 . S
C499 H491 0.930 . S
C499 C500 1.355 . S
C499 C501 1.415 . S
C500 C499 1.355 . S
C500 C502 1.419 1_655 S
C501 C496 1.425 . S
C501 C498 1.409 . S
C501 C499 1.415 . S
C502 H492 0.930 . S
C502 C500 1.419 1_455 S
C502 C503 1.362 . S
C503 H493 0.930 . S
C503 C496 1.409 1_455 S
C503 C502 1.362 . S
H504 C510 0.930 . S
H505 C513 0.930 . S
H506 C514 0.930 . S
H507 C515 0.930 . S
H508 C518 0.930 . S
H509 C519 0.930 . S
C510 H504 0.930 . S
C510 C511 1.355 . S
C510 C512 1.415 . S
C511 C510 1.355 . S
C511 C513 1.419 1_565 S
C512 C510 1.415 . S
C512 C517 1.438 . S
C512 C519 1.409 . S
C513 H505 0.930 . S
C513 C511 1.419 1_545 S
C513 C514 1.362 . S
C514 H506 0.930 . S
C514 C513 1.362 . S
C514 C517 1.401 1_545 S
C515 H507 0.930 . S
C515 C516 1.355 1_545 S
C515 C517 1.411 1_545 S
C516 C515 1.355 1_565 S
C516 C518 1.419 . S
C517 C512 1.438 . S
C517 C514 1.401 1_565 S
C517 C515 1.411 1_565 S
C518 H508 0.930 . S
C518 C516 1.419 . S
C518 C519 1.362 . S
C519 H509 0.930 . S
C519 C512 1.409 . S
C519 C518 1.362 . S
H520 C526 0.930 . S
H521 C529 0.930 . S
H522 C530 0.930 . S
H523 C531 0.930 . S
H524 C534 0.930 . S
H525 C535 0.930 . S
C526 H520 0.930 . S
C526 C527 1.355 . S
C526 C528 1.415 . S
C527 C526 1.355 . S
C527 C529 1.419 . S
C528 C526 1.415 . S
C528 C533 1.425 . S
C528 C535 1.409 . S
C529 H521 0.930 . S
C529 C527 1.419 . S
C529 C530 1.362 . S
C530 H522 0.930 . S
C530 C529 1.362 . S
C530 C533 1.409 . S
C531 H523 0.930 . S
C531 C532 1.355 . S
C531 C533 1.415 . S
C532 C531 1.355 . S
C532 C534 1.419 . S
C533 C528 1.425 . S
C533 C530 1.409 . S
C533 C531 1.415 . S
C534 H524 0.930 . S
C534 C532 1.419 . S
C534 C535 1.362 . S
C535 H525 0.930 . S
C535 C528 1.409 . S
C535 C534 1.362 . S
H536 C542 0.930 . S
H537 C545 0.930 . S
H538 C546 0.930 . S
H539 C547 0.930 . S
H540 C550 0.930 . S
H541 C551 0.930 . S
C542 H536 0.930 . S
C542 C543 1.355 . S
C542 C544 1.415 . S
C543 C542 1.355 . S
C543 C545 1.419 . S
C544 C542 1.415 . S
C544 C549 1.425 . S
C544 C551 1.409 . S
C545 H537 0.930 . S
C545 C543 1.419 . S
C545 C546 1.362 . S
C546 H538 0.930 . S
C546 C545 1.362 . S
C546 C549 1.409 . S
C547 H539 0.930 . S
C547 C548 1.355 . S
C547 C549 1.415 . S
C548 C547 1.355 . S
C548 C550 1.419 . S
C549 C544 1.425 . S
C549 C546 1.409 . S
C549 C547 1.415 . S
C550 H540 0.930 . S
C550 C548 1.419 . S
C550 C551 1.362 . S
C551 H541 0.930 . S
C551 C544 1.409 . S
C551 C550 1.362 . S
C175 C74 1.592 . S
C180 C96 1.594 . S
C196 C126 1.877 . S
C191 C85 1.853 . S
C212 C136 1.517 . S
C207 C52 1.496 . S
C228 C156 1.418 . S
C223 C63 1.387 . S
C244 C97 1.615 1_565 S
C239 C30 1.527 . S
C255 C41 1.758 1_556 S
C260 C127 1.873 . S
C271 C8 1.452 . S
C276 C137 1.515 . S
C287 C19 1.384 . S
C292 C157 1.416 1_655 S
C308 C89 0.977 . S
C303 C62 1.004 . S
C324 C110 0.751 . S
C319 C73 0.694 . S
C340 C129 1.240 . S
C335 C84 1.241 . S
C351 C51 0.860 . S
C356 C149 0.849 . S
C367 C18 1.017 . S
C372 C90 1.031 . S
C388 C109 0.683 . S
C383 C29 0.622 . S
C404 C130 1.215 . S
C399 C40 1.176 . S
C415 C7 0.886 . S
C420 C150 0.860 . S
C431 C60 1.350 . S
C436 C107 1.673 . S
C447 C71 1.161 . S
C452 C117 1.483 . S
C468 C147 1.865 . S
C463 C82 1.560 . S
C484 C167 1.828 . S
C479 C49 1.447 . S
C495 C16 1.362 . S
C500 C106 1.669 . S
C516 C116 1.474 . S
C511 C27 1.091 . S
C532 C146 1.892 . S
C527 C38 1.299 . S
C543 C5 1.500 . S
C548 C166 1.834 . S
