# Generated by pormake.
# Topology bcu-b, (8,8)-cn, num edge types: 1
# Building blocks:
#     Node 0, Type 0, BuildingBlock: TAGTUT_clean_sbu_3, # of connection points: 8
#     Node 1, Type 1, BuildingBlock: GIZVER_clean_sbu_0, # of connection points: 8
#     Edge 2, Type (0, 1), BuildingBlock: MIFKUJ_clean_linker_0, # of connection points: 2
#     Edge 3, Type (0, 1), BuildingBlock: MIFKUJ_clean_linker_0, # of connection points: 2
#     Edge 4, Type (0, 1), BuildingBlock: MIFKUJ_clean_linker_0, # of connection points: 2
#     Edge 5, Type (0, 1), BuildingBlock: MIFKUJ_clean_linker_0, # of connection points: 2
#     Edge 6, Type (0, 1), BuildingBlock: MIFKUJ_clean_linker_0, # of connection points: 2
#     Edge 7, Type (0, 1), BuildingBlock: MIFKUJ_clean_linker_0, # of connection points: 2
#     Edge 8, Type (0, 1), BuildingBlock: MIFKUJ_clean_linker_0, # of connection points: 2
#     Edge 9, Type (0, 1), BuildingBlock: MIFKUJ_clean_linker_0, # of connection points: 2
# Relax obj value: 0.094
# Max RMSD: 0.159
# Mean RMSD: 0.159
data_MOF--net-bcu-b--node1-TAGTUT_clean_sbu_3--node2-GIZVER_clean_sbu_0--edge1-MIFKUJ_clean_linker_0
_symmetry_space_group_name_H-M    P1
_symmetry_Int_Tables_number       1
_symmetry_cell_setting            triclinic
loop_
_symmetry_equiv_pos_as_xyz
'x, y, z'
_cell_length_a     25.690107
_cell_length_b     28.450962
_cell_length_c     21.936912
_cell_angle_alpha  88.937258
_cell_angle_beta   90.471612
_cell_angle_gamma 105.36037
loop_
_atom_site_label
_atom_site_type_symbol
_atom_site_fract_x
_atom_site_fract_y
_atom_site_fract_z
_atom_type_partial_charge
C0 C 0.10546 0.09103 0.07021 0.0
C1 C 0.16291 0.92365 0.08376 0.0
C2 C 0.09293 0.90091 0.90605 0.0
Mg3 Mg 1.0027 0.11387 0.99723 0.0
Mg4 Mg 0.89121 0.02593 0.98489 0.0
O5 O 0.96531 0.04737 0.9671 0.0
Mg6 Mg 0.01362 0.00861 0.00082 0.0
O7 O 0.06596 0.97354 0.03436 0.0
Mg8 Mg 0.13289 0.00597 0.98696 0.0
Mg9 Mg 0.04599 0.90545 0.03143 0.0
C10 C 0.91434 0.92824 0.93601 0.0
O11 O 0.95325 0.97003 0.07512 0.0
O12 O 0.94376 0.14107 0.93208 0.0
O13 O 0.96991 0.89572 0.07859 0.0
O14 O 0.94328 0.11229 0.07551 0.0
O15 O 0.87024 0.07733 0.92324 0.0
O16 O 0.87317 0.04692 0.0757 0.0
O17 O 0.07751 0.04204 0.92876 0.0
O18 O 0.06254 0.11572 0.92064 0.0
C19 C 0.08825 0.08501 0.90509 0.0
C20 C 0.89675 0.12109 0.90952 0.0
O21 O 0.9659 0.94489 0.94184 0.0
O22 O 0.17849 0.9645 0.05412 0.0
O23 O 0.88064 0.95093 0.95544 0.0
O24 O 0.12336 0.943 0.91874 0.0
O25 O 0.11447 0.89649 0.08094 0.0
O26 O 0.05344 0.88004 0.94049 0.0
O27 O 0.05513 0.07508 0.05733 0.0
O28 O 0.13995 0.06897 0.05215 0.0
C29 C 0.89946 0.08694 0.09942 0.0
C30 C 0.94258 0.92544 0.09417 0.0
Co31 Co 0.56262 0.41863 0.44972 0.0
Co32 Co 0.58831 0.4615 0.55366 0.0
Co33 Co 0.50749 0.51057 0.49562 0.0
O34 O 0.57021 0.4838 0.47919 0.0
H35 H 0.60068 0.50769 0.46178 0.0
O36 O 0.44454 0.53723 0.51069 0.0
Co37 Co 0.4496 0.6006 0.54307 0.0
Co38 Co 0.42665 0.56173 0.43637 0.0
H39 H 0.41387 0.51267 0.52655 0.0
O40 O 0.65572 0.45548 0.56658 0.0
O41 O 0.5828 0.39784 0.53253 0.0
O42 O 0.54146 0.45802 0.62277 0.0
O43 O 0.47469 0.45927 0.55925 0.0
O44 O 0.55075 0.55324 0.55848 0.0
O45 O 0.44629 0.65711 0.5751 0.0
O46 O 0.37846 0.58974 0.56006 0.0
O47 O 0.52632 0.62022 0.5326 0.0
O48 O 0.54033 0.56174 0.43229 0.0
O49 O 0.47391 0.56341 0.36815 0.0
O50 O 0.43819 0.6259 0.46019 0.0
O51 O 0.36221 0.57692 0.42071 0.0
C52 C 0.61219 0.38081 0.4107 0.0
C53 C 0.45474 0.42124 0.43802 0.0
C54 C 0.49157 0.4466 0.61023 0.0
C55 C 0.63216 0.4103 0.55415 0.0
C56 C 0.39525 0.63436 0.57951 0.0
C57 C 0.55925 0.59942 0.5583 0.0
C58 C 0.5238 0.57307 0.38049 0.0
C59 C 0.3911 0.62026 0.43452 0.0
O60 O 0.56139 0.36052 0.42101 0.0
O61 O 0.63245 0.42652 0.42508 0.0
O62 O 0.46438 0.46745 0.43354 0.0
O63 O 0.48687 0.40118 0.46693 0.0
H64 H 0.2099 0.13777 0.09372 0.0
H65 H 0.2445 0.20215 0.16596 0.0
H66 H 0.08264 0.20884 0.20564 0.0
H67 H 0.04665 0.14257 0.13354 0.0
H68 H 0.19982 0.30657 0.17857 0.0
H69 H 0.0996 0.1747 0.31249 0.0
H70 H 0.06667 0.08763 0.34106 0.0
H71 H 0.22984 0.07606 0.35113 0.0
H72 H 0.26364 0.16291 0.32167 0.0
H73 H 0.36075 0.44606 0.41528 0.0
H74 H 0.27997 0.3972 0.36387 0.0
H75 H 0.35711 0.28081 0.34414 0.0
H76 H 0.43657 0.3283 0.39834 0.0
H77 H 0.25474 0.24471 0.37516 0.0
H78 H 0.35441 0.36478 0.22804 0.0
H79 H 0.39567 0.44854 0.19039 0.0
H80 H 0.24169 0.48066 0.19804 0.0
H81 H 0.19967 0.39718 0.23645 0.0
C82 C 0.18128 0.15289 0.11722 0.0
C83 C 0.12534 0.13444 0.10846 0.0
C84 C 0.20131 0.18995 0.15826 0.0
C85 C 0.16609 0.2098 0.19109 0.0
C86 C 0.11029 0.19364 0.18056 0.0
C87 C 0.08991 0.15591 0.13945 0.0
C88 C 0.1894 0.24457 0.2393 0.0
C89 C 0.21015 0.29375 0.22277 0.0
C90 C 0.20413 0.22715 0.2958 0.0
C91 C 0.18405 0.17515 0.31442 0.0
C92 C 0.12839 0.15346 0.3203 0.0
C93 C 0.10959 0.10418 0.33676 0.0
C94 C 0.14614 0.0763 0.34779 0.0
C95 C 0.20157 0.09769 0.34256 0.0
C96 C 0.22057 0.14695 0.32606 0.0
C97 C 0.36009 0.40976 0.40057 0.0
C98 C 0.40487 0.39088 0.41061 0.0
C99 C 0.31402 0.382 0.37113 0.0
C100 C 0.3126 0.33545 0.34998 0.0
C101 C 0.35708 0.31643 0.36075 0.0
C102 C 0.40254 0.34362 0.39149 0.0
C103 C 0.26618 0.30683 0.31419 0.0
C104 C 0.24208 0.25858 0.33275 0.0
C105 C 0.2489 0.32509 0.25927 0.0
C106 C 0.27408 0.37505 0.23585 0.0
C107 C 0.32946 0.38985 0.2221 0.0
C108 C 0.35296 0.43722 0.20056 0.0
C109 C 0.32136 0.46996 0.19205 0.0
C110 C 0.26614 0.45531 0.20482 0.0
C111 C 0.24247 0.40798 0.22646 0.0
H112 H 0.33963 0.50663 0.17539 0.0
H113 H 0.1315 0.03815 0.3605 0.0
H114 H 0.79978 0.05282 0.15419 0.0
H115 H 0.75417 0.09908 0.21839 0.0
H116 H 0.89695 0.22005 0.21663 0.0
H117 H 0.94334 0.17353 0.15543 0.0
H118 H 0.85199 0.21898 0.32007 0.0
H119 H 0.78646 0.21042 0.11361 0.0
H120 H 0.74605 0.16942 0.0198 0.0
H121 H 0.6019 0.09844 0.11802 0.0
H122 H 0.64177 0.13858 0.21262 0.0
H123 H 0.7197 0.40858 0.37654 0.0
H124 H 0.77237 0.35681 0.33284 0.0
H125 H 0.63349 0.23258 0.34598 0.0
H126 H 0.5809 0.28367 0.38798 0.0
H127 H 0.67714 0.23551 0.23813 0.0
H128 H 0.74603 0.25003 0.44565 0.0
H129 H 0.78994 0.29463 0.53559 0.0
H130 H 0.93089 0.3606 0.42988 0.0
H131 H 0.88785 0.31662 0.33896 0.0
C132 C 0.82193 0.08876 0.16878 0.0
C133 C 0.87505 0.10956 0.14865 0.0
C134 C 0.79557 0.1155 0.205 0.0
C135 C 0.8214 0.16388 0.22087 0.0
C136 C 0.87572 0.18313 0.2047 0.0
C137 C 0.90226 0.1563 0.16937 0.0
C138 C 0.79135 0.19574 0.25052 0.0
C139 C 0.81393 0.2228 0.30179 0.0
C140 C 0.74151 0.20096 0.22717 0.0
C141 C 0.7173 0.1771 0.17028 0.0
C142 C 0.74627 0.18585 0.11525 0.0
C143 C 0.72346 0.16279 0.06194 0.0
C144 C 0.6715 0.13125 0.06299 0.0
C145 C 0.64218 0.12282 0.11731 0.0
C146 C 0.66484 0.14573 0.17077 0.0
C147 C 0.70052 0.37023 0.37013 0.0
C148 C 0.64589 0.35053 0.38539 0.0
C149 C 0.73075 0.34054 0.3455 0.0
C150 C 0.70707 0.29051 0.33629 0.0
C151 C 0.65279 0.27095 0.35225 0.0
C152 C 0.62268 0.30043 0.37641 0.0
C153 C 0.73746 0.25838 0.30804 0.0
C154 C 0.71502 0.23145 0.25668 0.0
C155 C 0.78776 0.25396 0.33077 0.0
C156 C 0.81351 0.28041 0.38538 0.0
C157 C 0.78623 0.27432 0.44145 0.0
C158 C 0.81098 0.29942 0.49264 0.0
C159 C 0.86298 0.33056 0.48849 0.0
C160 C 0.89054 0.33653 0.43306 0.0
C161 C 0.86605 0.31147 0.38169 0.0
H162 H 0.88195 0.34995 0.52827 0.0
H163 H 0.65391 0.11342 0.02168 0.0
H164 H 0.94033 0.8687 0.19412 0.0
H165 H 0.86012 0.81799 0.24441 0.0
H166 H 0.7593 0.88411 0.13229 0.0
H167 H 0.84028 0.93629 0.08255 0.0
H168 H 0.72131 0.84958 0.26469 0.0
H169 H 0.7771 0.79499 0.07185 0.0
H170 H 0.85122 0.78658 0.0057 0.0
H171 H 0.89729 0.69333 0.13989 0.0
H172 H 0.8241 0.70191 0.20739 0.0
H173 H 0.50231 0.63588 0.29411 0.0
H174 H 0.56799 0.70167 0.24101 0.0
H175 H 0.69826 0.6535 0.32353 0.0
H176 H 0.63296 0.58792 0.37747 0.0
H177 H 0.71353 0.68214 0.19653 0.0
H178 H 0.67209 0.74161 0.39102 0.0
H179 H 0.608 0.75319 0.4688 0.0
H180 H 0.53975 0.83566 0.33969 0.0
H181 H 0.60342 0.82429 0.26101 0.0
C182 C 0.90119 0.87371 0.18182 0.0
C183 C 0.89611 0.90576 0.13417 0.0
C184 C 0.8555 0.84493 0.21068 0.0
C185 C 0.804 0.84693 0.19131 0.0
C186 C 0.79886 0.88229 0.14784 0.0
C187 C 0.84497 0.91189 0.11944 0.0
C188 C 0.75733 0.80596 0.2078 0.0
C189 C 0.71867 0.81317 0.2487 0.0
C190 C 0.75484 0.75837 0.18778 0.0
C191 C 0.79537 0.74936 0.14482 0.0
C192 C 0.80302 0.77266 0.08721 0.0
C193 C 0.84503 0.76811 0.04964 0.0
C194 C 0.87927 0.7399 0.0689 0.0
C195 C 0.87092 0.71541 0.12523 0.0
C196 C 0.82911 0.72002 0.16311 0.0
C197 C 0.54491 0.63855 0.29987 0.0
C198 C 0.56257 0.60684 0.3401 0.0
C199 C 0.58229 0.6763 0.26978 0.0
C200 C 0.63775 0.68248 0.2789 0.0
C201 C 0.65552 0.64916 0.31604 0.0
C202 C 0.61822 0.61183 0.34681 0.0
C203 C 0.67733 0.72564 0.2534 0.0
C204 C 0.715 0.71871 0.21108 0.0
C205 C 0.67903 0.7733 0.27247 0.0
C206 C 0.6421 0.78178 0.32008 0.0
C207 C 0.64329 0.7621 0.37922 0.0
C208 C 0.6071 0.76865 0.42346 0.0
C209 C 0.56969 0.79502 0.40913 0.0
C210 C 0.56873 0.81522 0.35068 0.0
C211 C 0.60494 0.80884 0.30629 0.0
H212 H 0.5415 0.79986 0.44333 0.0
H213 H 0.91206 0.73676 0.03998 0.0
H214 H 0.25269 0.97707 0.14615 0.0
H215 H 0.3045 0.94517 0.22468 0.0
H216 H 0.20819 0.79909 0.19015 0.0
H217 H 0.15729 0.83004 0.11293 0.0
H218 H 0.21093 0.82499 0.3131 0.0
H219 H 0.33321 0.83697 0.13807 0.0
H220 H 0.39609 0.88356 0.06056 0.0
H221 H 0.49505 0.96555 0.20138 0.0
H222 H 0.43228 0.91978 0.2797 0.0
H223 H 0.29878 0.621 0.37338 0.0
H224 H 0.27179 0.69117 0.33355 0.0
H225 H 0.4131 0.78771 0.41396 0.0
H226 H 0.44142 0.71695 0.45309 0.0
H227 H 0.39981 0.81409 0.29784 0.0
H228 H 0.28778 0.77531 0.47171 0.0
H229 H 0.22539 0.7206 0.54307 0.0
H230 H 0.1037 0.68678 0.40398 0.0
H231 H 0.16604 0.7387 0.33041 0.0
C232 C 0.24346 0.93813 0.15478 0.0
C233 C 0.20051 0.9061 0.124 0.0
C234 C 0.27277 0.92005 0.19975 0.0
C235 C 0.25939 0.86987 0.21387 0.0
C236 C 0.2185 0.838 0.18076 0.0
C237 C 0.18951 0.85581 0.13644 0.0
C238 C 0.28564 0.84896 0.26397 0.0
C239 C 0.25236 0.82276 0.31034 0.0
C240 C 0.34029 0.84806 0.26172 0.0
C241 C 0.37765 0.87557 0.21459 0.0
C242 C 0.36806 0.86531 0.15243 0.0
C243 C 0.40375 0.89146 0.10838 0.0
C244 C 0.44941 0.92765 0.12602 0.0
C245 C 0.45957 0.93763 0.18777 0.0
C246 C 0.42396 0.91161 0.23199 0.0
C247 C 0.32391 0.65706 0.38344 0.0
C248 C 0.37223 0.66331 0.41647 0.0
C249 C 0.30826 0.69728 0.36081 0.0
C250 C 0.33994 0.74479 0.3716 0.0
C251 C 0.38787 0.75138 0.40546 0.0
C252 C 0.40383 0.71092 0.42793 0.0
C253 C 0.32365 0.78675 0.34398 0.0
C254 C 0.35892 0.81739 0.30245 0.0
C255 C 0.27038 0.79133 0.35029 0.0
C256 C 0.23186 0.76126 0.39531 0.0
C257 C 0.24783 0.75612 0.45609 0.0
C258 C 0.21246 0.72551 0.497 0.0
C259 C 0.16052 0.70075 0.47835 0.0
C260 C 0.14389 0.70618 0.41849 0.0
C261 C 0.17933 0.73608 0.37704 0.0
H262 H 0.13324 0.67719 0.51023 0.0
H263 H 0.47702 0.94784 0.09185 0.0
H264 H 0.17781 0.93282 0.82802 0.0
H265 H 0.21652 0.88419 0.76103 0.0
H266 H 0.0856 0.75765 0.80249 0.0
H267 H 0.04714 0.80614 0.87164 0.0
H268 H 0.1758 0.7345 0.81532 0.0
H269 H 0.10455 0.81313 0.65617 0.0
H270 H 0.08368 0.88019 0.59659 0.0
H271 H 0.25276 0.94459 0.56691 0.0
H272 H 0.27476 0.87832 0.62713 0.0
H273 H 0.28882 0.59565 0.61023 0.0
H274 H 0.22691 0.638 0.65461 0.0
H275 H 0.35235 0.77304 0.64906 0.0
H276 H 0.41425 0.73116 0.60467 0.0
H277 H 0.25574 0.78632 0.61202 0.0
H278 H 0.32313 0.70859 0.78082 0.0
H279 H 0.34132 0.63929 0.83828 0.0
H280 H 0.17155 0.56854 0.84405 0.0
H281 H 0.1524 0.63719 0.78586 0.0
C282 C 0.1564 0.89489 0.82213 0.0
C283 C 0.10943 0.87344 0.85584 0.0
C284 C 0.1786 0.86703 0.78329 0.0
C285 C 0.15404 0.81708 0.77617 0.0
C286 C 0.1055 0.79605 0.80722 0.0
C287 C 0.08333 0.82394 0.84652 0.0
C288 C 0.18201 0.78644 0.7411 0.0
C289 C 0.19182 0.74509 0.77003 0.0
C290 C 0.2042 0.80056 0.6825 0.0
C291 C 0.19132 0.84089 0.64669 0.0
C292 C 0.13734 0.84182 0.63744 0.0
C293 C 0.12529 0.87966 0.60344 0.0
C294 C 0.16687 0.91669 0.57809 0.0
C295 C 0.22059 0.91591 0.58662 0.0
C296 C 0.23287 0.87817 0.62065 0.0
C297 C 0.30319 0.63438 0.61835 0.0
C298 C 0.35674 0.65985 0.60458 0.0
C299 C 0.26779 0.65852 0.64389 0.0
C300 C 0.28515 0.70864 0.65598 0.0
C301 C 0.33805 0.73437 0.64045 0.0
C302 C 0.37352 0.71024 0.61536 0.0
C303 C 0.24879 0.73425 0.68592 0.0
C304 C 0.23812 0.77493 0.6564 0.0
C305 C 0.22494 0.71898 0.74337 0.0
C306 C 0.2364 0.67773 0.77836 0.0
C307 C 0.28972 0.67805 0.79388 0.0
C308 C 0.30019 0.63894 0.82667 0.0
C309 C 0.25763 0.59946 0.84463 0.0
C310 C 0.20448 0.59909 0.82999 0.0
C311 C 0.19379 0.6381 0.79713 0.0
H312 H 0.26582 0.56922 0.87004 0.0
H313 H 0.15746 0.94594 0.55174 0.0
H314 H 0.19096 0.07454 0.91724 0.0
H315 H 0.27134 0.12456 0.86439 0.0
H316 H 0.1694 0.1888 0.75114 0.0
H317 H 0.08985 0.13921 0.80335 0.0
H318 H 0.25497 0.17602 0.68805 0.0
H319 H 0.22064 0.23794 0.88748 0.0
H320 H 0.21305 0.23235 -0.00035 0.0
H321 H 0.37525 0.21871 0.01352 0.0
H322 H 0.38345 0.22339 0.9014 0.0
H323 H 0.38188 0.41453 0.60003 0.0
H324 H 0.3226 0.3429 0.64949 0.0
H325 H 0.45742 0.31954 0.75282 0.0
H326 H 0.51697 0.3918 0.70446 0.0
H327 H 0.37057 0.3003 0.82188 0.0
H328 H 0.41165 0.25301 0.62588 0.0
H329 H 0.42096 0.25217 0.51415 0.0
H330 H 0.25049 0.23368 0.49269 0.0
H331 H 0.24023 0.23541 0.60419 0.0
C332 C 0.18585 0.09797 0.87948 0.0
C333 C 0.13447 0.10324 0.8642 0.0
C334 C 0.23169 0.12686 0.84981 0.0
C335 C 0.22629 0.16096 0.80457 0.0
C336 C 0.17455 0.16286 0.78596 0.0
C337 C 0.12912 0.13451 0.81576 0.0
C338 C 0.27343 0.19858 0.78049 0.0
C339 C 0.28033 0.20326 0.71717 0.0
C340 C 0.30761 0.23313 0.8188 0.0
C341 C 0.30245 0.23044 0.88611 0.0
C342 C 0.25452 0.23336 0.91446 0.0
C343 C 0.25012 0.2304 0.978 0.0
C344 C 0.29363 0.22512 0.01363 0.0
C345 C 0.34157 0.22273 0.98584 0.0
C346 C 0.3461 0.2255 0.92233 0.0
C347 C 0.39885 0.39468 0.63402 0.0
C348 C 0.45427 0.4088 0.64796 0.0
C349 C 0.36498 0.35341 0.66181 0.0
C350 C 0.38589 0.32506 0.70358 0.0
C351 C 0.44053 0.34059 0.72026 0.0
C352 C 0.47446 0.38209 0.69273 0.0
C353 C 0.35059 0.27898 0.729 0.0
C354 C 0.34604 0.27271 0.79254 0.0
C355 C 0.31876 0.24272 0.69083 0.0
C356 C 0.32521 0.24446 0.62353 0.0
C357 C 0.37624 0.24943 0.59736 0.0
C358 C 0.38167 0.24868 0.53405 0.0
C359 C 0.3363 0.24257 0.49646 0.0
C360 C 0.28556 0.2382 0.52192 0.0
C361 C 0.27992 0.23908 0.58517 0.0
H362 H 0.34036 0.24072 0.44766 0.0
H363 H 0.29032 0.22307 0.06278 0.0
H364 H 0.80156 0.08829 0.84806 0.0
H365 H 0.75955 0.13315 0.77611 0.0
H366 H 0.89294 0.26087 0.79739 0.0
H367 H 0.93548 0.21625 0.87037 0.0
H368 H 0.79713 0.28173 0.80677 0.0
H369 H 0.87888 0.19593 0.66777 0.0
H370 H 0.90123 0.12494 0.62288 0.0
H371 H 0.73355 0.06069 0.58442 0.0
H372 H 0.71007 0.13101 0.62993 0.0
H373 H 0.73961 0.42545 0.57337 0.0
H374 H 0.78482 0.36938 0.62173 0.0
H375 H 0.63599 0.25522 0.61981 0.0
H376 H 0.58982 0.31163 0.57115 0.0
H377 H 0.73659 0.22489 0.59884 0.0
H378 H 0.65655 0.31179 0.74067 0.0
H379 H 0.63653 0.38517 0.78165 0.0
H380 H 0.80561 0.4494 0.81195 0.0
H381 H 0.82671 0.37668 0.77006 0.0
C382 C 0.82228 0.12589 0.83749 0.0
C383 C 0.87198 0.14871 0.86522 0.0
C384 C 0.79827 0.15135 0.79588 0.0
C385 C 0.82344 0.20009 0.78084 0.0
C386 C 0.87302 0.22312 0.80826 0.0
C387 C 0.89724 0.1976 0.84993 0.0
C388 C 0.79636 0.22764 0.73906 0.0
C389 C 0.78479 0.26971 0.76096 0.0
C390 C 0.77877 0.21107 0.67993 0.0
C391 C 0.79265 0.16851 0.65294 0.0
C392 C 0.84669 0.16644 0.65033 0.0
C393 C 0.85959 0.12637 0.62464 0.0
C394 C 0.81882 0.08826 0.60099 0.0
C395 C 0.76508 0.0902 0.60286 0.0
C396 C 0.75196 0.13018 0.62857 0.0
C397 C 0.71654 0.38818 0.58213 0.0
C398 C 0.66085 0.37319 0.56998 0.0
C399 C 0.74252 0.35622 0.60965 0.0
C400 C 0.71335 0.30869 0.62546 0.0
C401 C 0.65894 0.292 0.60817 0.0
C402 C 0.63269 0.32419 0.58049 0.0
C403 C 0.73858 0.27923 0.66634 0.0
C404 C 0.74932 0.2368 0.64457 0.0
C405 C 0.75583 0.29553 0.72552 0.0
C406 C 0.74324 0.33898 0.75172 0.0
C407 C 0.6895 0.34172 0.75563 0.0
C408 C 0.67795 0.38317 0.77907 0.0
C409 C 0.71979 0.42197 0.79927 0.0
C410 C 0.77325 0.41933 0.79622 0.0
C411 C 0.78503 0.37799 0.77267 0.0
H412 H 0.71077 0.45405 0.81741 0.0
H413 H 0.82889 0.05728 0.58107 0.0
H414 H 0.81378 0.86669 0.94565 0.0
H415 H 0.77123 0.80045 0.87801 0.0
H416 H 0.92069 0.82161 0.7798 0.0
H417 H 0.96398 0.88824 0.84806 0.0
H418 H 0.83457 0.82355 0.70429 0.0
H419 H 0.87434 0.71261 0.85145 0.0
H420 H 0.88137 0.6752 0.95244 0.0
H421 H 0.71078 0.65079 0.9787 0.0
H422 H 0.70261 0.68745 0.87741 0.0
H423 H 0.64407 0.56933 0.60586 0.0
H424 H 0.72127 0.61763 0.66296 0.0
H425 H 0.66068 0.74458 0.63985 0.0
H426 H 0.58429 0.697 0.58138 0.0
H427 H 0.72234 0.65992 0.7674 0.0
H428 H 0.76009 0.84708 0.63993 0.0
H429 H 0.75241 0.87714 0.53495 0.0
H430 H 0.77572 0.74466 0.46384 0.0
H431 H 0.78457 0.71413 0.56832 0.0
C432 C 0.83794 0.85677 0.91034 0.0
C433 C 0.89205 0.88301 0.90175 0.0
C434 C 0.81364 0.81864 0.87193 0.0
C435 C 0.84277 0.80612 0.82383 0.0
C436 C 0.89754 0.83074 0.8167 0.0
C437 C 0.92223 0.8686 0.85586 0.0
C438 C 0.81379 0.7709 0.77802 0.0
C439 C 0.81062 0.78746 0.71771 0.0
C440 C 0.78318 0.72363 0.79532 0.0
C441 C 0.78793 0.70288 0.85697 0.0
C442 C 0.83839 0.69949 0.87891 0.0
C443 C 0.84251 0.67815 0.93603 0.0
C444 C 0.79653 0.66058 0.97194 0.0
C445 C 0.74631 0.66426 0.95074 0.0
C446 C 0.74187 0.68505 0.89333 0.0
C447 C 0.64751 0.60769 0.61228 0.0
C448 C 0.60793 0.62931 0.58915 0.0
C449 C 0.69164 0.63521 0.64502 0.0
C450 C 0.69709 0.68482 0.65528 0.0
C451 C 0.65801 0.70661 0.63149 0.0
C452 C 0.61413 0.67926 0.59831 0.0
C453 C 0.74154 0.71316 0.69416 0.0
C454 C 0.74728 0.69546 0.75328 0.0
C455 C 0.77507 0.75902 0.67531 0.0
C456 C 0.77273 0.77822 0.61213 0.0
C457 C 0.76419 0.82456 0.60193 0.0
C458 C 0.75948 0.84163 0.54247 0.0
C459 C 0.76344 0.81278 0.49277 0.0
C460 C 0.77256 0.76694 0.50239 0.0
C461 C 0.77744 0.74974 0.56172 0.0
H462 H 0.75946 0.82593 0.4468 0.0
H463 H 0.79986 0.64426 0.01627 0.0
loop_
_geom_bond_atom_site_label_1
_geom_bond_atom_site_label_2
_geom_bond_distance
_geom_bond_site_symmetry_2
_ccdc_geom_bond_type
C0 O27 1.312 . S
C0 O28 1.208 . S
C1 O22 1.331 . S
C1 O25 1.244 . S
C2 O24 1.264 . S
C2 O26 1.273 . S
Mg3 O5 1.936 . S
Mg3 O12 2.081 . S
Mg3 O14 2.023 1_556 S
Mg3 O18 2.031 1_655 S
Mg3 O27 2.291 1_656 S
Mg4 O5 1.963 . S
Mg4 O15 1.942 . S
Mg4 O16 1.955 1_556 S
Mg4 O23 1.986 1_545 S
O5 Mg3 1.936 . S
O5 Mg4 1.963 . S
O5 Mg6 1.904 1_656 S
Mg6 O5 1.904 1_454 S
Mg6 O7 1.927 1_545 S
Mg6 O11 2.009 1_445 S
Mg6 O17 2.120 1_554 S
Mg6 O21 2.006 1_444 S
Mg6 O27 2.119 . S
O7 Mg6 1.927 1_565 S
O7 Mg8 1.936 1_565 S
O7 Mg9 1.963 . S
Mg8 O7 1.936 1_545 S
Mg8 O17 2.291 1_554 S
Mg8 O22 2.081 1_545 S
Mg8 O24 2.023 1_544 S
Mg8 O28 2.031 . S
Mg9 O7 1.963 . S
Mg9 O13 1.986 1_455 S
Mg9 O25 1.942 . S
Mg9 O26 1.955 1_554 S
C10 O21 1.191 . S
C10 O23 1.307 . S
O11 Mg6 2.009 1_665 S
O11 C30 1.191 . S
O12 Mg3 2.081 . S
O12 C20 1.331 . S
O13 Mg9 1.986 1_655 S
O13 C30 1.307 . S
O14 Mg3 2.023 1_554 S
O14 C29 1.264 . S
O15 Mg4 1.942 . S
O15 C20 1.244 . S
O16 Mg4 1.955 1_554 S
O16 C29 1.273 . S
O17 Mg6 2.120 1_556 S
O17 Mg8 2.291 1_556 S
O17 C19 1.312 . S
O18 Mg3 2.031 1_455 S
O18 C19 1.208 . S
C19 O17 1.312 . S
C19 O18 1.208 . S
C20 O12 1.331 . S
C20 O15 1.244 . S
O21 Mg6 2.006 1_666 S
O21 C10 1.191 . S
O22 C1 1.331 . S
O22 Mg8 2.081 1_565 S
O23 Mg4 1.986 1_565 S
O23 C10 1.307 . S
O24 C2 1.264 . S
O24 Mg8 2.023 1_566 S
O25 C1 1.244 . S
O25 Mg9 1.942 . S
O26 C2 1.273 . S
O26 Mg9 1.955 1_556 S
O27 C0 1.312 . S
O27 Mg3 2.291 1_454 S
O27 Mg6 2.119 . S
O28 C0 1.208 . S
O28 Mg8 2.031 . S
C29 O14 1.264 . S
C29 O16 1.273 . S
C30 O11 1.191 . S
C30 O13 1.307 . S
Co31 O34 2.042 . S
Co31 O41 2.264 . S
Co31 O60 2.286 . S
Co31 O61 2.069 . S
Co31 O63 2.015 . S
Co32 O34 2.122 . S
Co32 O40 2.073 . S
Co32 O41 2.327 . S
Co32 O42 1.976 . S
Co33 O34 2.087 . S
Co33 O36 2.087 . S
Co33 O43 2.111 . S
Co33 O44 2.143 . S
Co33 O48 2.111 . S
Co33 O62 2.143 . S
O34 Co31 2.042 . S
O34 Co32 2.122 . S
O34 Co33 2.087 . S
O34 H35 0.980 . S
H35 O34 0.980 . S
O36 Co33 2.087 . S
O36 Co37 2.042 . S
O36 Co38 2.122 . S
O36 H39 0.980 . S
Co37 O36 2.042 . S
Co37 O45 2.286 . S
Co37 O46 2.069 . S
Co37 O47 2.015 . S
Co37 O50 2.264 . S
Co38 O36 2.122 . S
Co38 O49 1.976 . S
Co38 O50 2.327 . S
Co38 O51 2.073 . S
H39 O36 0.980 . S
O40 Co32 2.073 . S
O40 C55 1.245 . S
O41 Co31 2.264 . S
O41 Co32 2.327 . S
O41 C55 1.257 . S
O42 Co32 1.976 . S
O42 C54 1.251 . S
O43 Co33 2.111 . S
O43 C54 1.274 . S
O44 Co33 2.143 . S
O44 C57 1.246 . S
O45 Co37 2.286 . S
O45 C56 1.259 . S
O46 Co37 2.069 . S
O46 C56 1.289 . S
O47 Co37 2.015 . S
O47 C57 1.257 . S
O48 Co33 2.111 . S
O48 C58 1.274 . S
O49 Co38 1.976 . S
O49 C58 1.251 . S
O50 Co37 2.264 . S
O50 Co38 2.327 . S
O50 C59 1.257 . S
O51 Co38 2.073 . S
O51 C59 1.245 . S
C52 O60 1.259 . S
C52 O61 1.289 . S
C53 O62 1.246 . S
C53 O63 1.257 . S
C54 O42 1.251 . S
C54 O43 1.274 . S
C55 O40 1.245 . S
C55 O41 1.257 . S
C56 O45 1.259 . S
C56 O46 1.289 . S
C57 O44 1.246 . S
C57 O47 1.257 . S
C58 O48 1.274 . S
C58 O49 1.251 . S
C59 O50 1.257 . S
C59 O51 1.245 . S
O60 Co31 2.286 . S
O60 C52 1.259 . S
O61 Co31 2.069 . S
O61 C52 1.289 . S
O62 Co33 2.143 . S
O62 C53 1.246 . S
O63 Co31 2.015 . S
O63 C53 1.257 . S
H64 C82 0.951 . S
H65 C84 0.951 . S
H66 C86 0.950 . S
H67 C87 0.950 . S
H68 C89 0.950 . S
H69 C92 0.950 . S
H70 C93 0.950 . S
H71 C95 0.950 . S
H72 C96 0.950 . S
H73 C97 0.951 . S
H74 C99 0.951 . S
H75 C101 0.950 . S
H76 C102 0.950 . S
H77 C104 0.950 . S
H78 C107 0.950 . S
H79 C108 0.950 . S
H80 C110 0.950 . S
H81 C111 0.950 . S
C82 H64 0.951 . S
C82 C83 1.366 . S
C82 C84 1.388 . S
C83 C82 1.366 . S
C83 C87 1.385 . S
C84 H65 0.951 . S
C84 C82 1.388 . S
C84 C85 1.366 . S
C85 C84 1.366 . S
C85 C86 1.414 . S
C85 C88 1.499 . S
C86 H66 0.950 . S
C86 C85 1.414 . S
C86 C87 1.374 . S
C87 H67 0.950 . S
C87 C83 1.385 . S
C87 C86 1.374 . S
C88 C85 1.499 . S
C88 C89 1.373 . S
C88 C90 1.389 . S
C89 H68 0.950 . S
C89 C88 1.373 . S
C89 C105 1.377 . S
C90 C88 1.389 . S
C90 C91 1.524 . S
C90 C104 1.377 . S
C91 C90 1.524 . S
C91 C92 1.397 . S
C91 C96 1.363 . S
C92 H69 0.950 . S
C92 C91 1.397 . S
C92 C93 1.334 . S
C93 H70 0.950 . S
C93 C92 1.334 . S
C93 C94 1.287 . S
C94 C93 1.287 . S
C94 C95 1.524 . S
C94 H113 0.913 . S
C95 H71 0.950 . S
C95 C94 1.524 . S
C95 C96 1.415 . S
C96 H72 0.950 . S
C96 C91 1.363 . S
C96 C95 1.415 . S
C97 H73 0.951 . S
C97 C98 1.366 . S
C97 C99 1.388 . S
C98 C97 1.366 . S
C98 C102 1.385 . S
C99 H74 0.951 . S
C99 C97 1.388 . S
C99 C100 1.366 . S
C100 C99 1.366 . S
C100 C101 1.414 . S
C100 C103 1.499 . S
C101 H75 0.950 . S
C101 C100 1.414 . S
C101 C102 1.374 . S
C102 H76 0.950 . S
C102 C98 1.385 . S
C102 C101 1.374 . S
C103 C100 1.499 . S
C103 C104 1.373 . S
C103 C105 1.389 . S
C104 H77 0.950 . S
C104 C90 1.377 . S
C104 C103 1.373 . S
C105 C89 1.377 . S
C105 C103 1.389 . S
C105 C106 1.524 . S
C106 C105 1.524 . S
C106 C107 1.397 . S
C106 C111 1.363 . S
C107 H78 0.950 . S
C107 C106 1.397 . S
C107 C108 1.334 . S
C108 H79 0.950 . S
C108 C107 1.334 . S
C108 C109 1.287 . S
C109 C108 1.287 . S
C109 C110 1.524 . S
C109 H112 0.999 . S
C110 H80 0.950 . S
C110 C109 1.524 . S
C110 C111 1.415 . S
C111 H81 0.950 . S
C111 C106 1.363 . S
C111 C110 1.415 . S
H112 C109 0.999 . S
H113 C94 0.913 . S
H114 C132 0.951 . S
H115 C134 0.951 . S
H116 C136 0.950 . S
H117 C137 0.950 . S
H118 C139 0.950 . S
H119 C142 0.950 . S
H120 C143 0.950 . S
H121 C145 0.950 . S
H122 C146 0.950 . S
H123 C147 0.951 . S
H124 C149 0.951 . S
H125 C151 0.950 . S
H126 C152 0.950 . S
H127 C154 0.950 . S
H128 C157 0.950 . S
H129 C158 0.950 . S
H130 C160 0.950 . S
H131 C161 0.950 . S
C132 H114 0.951 . S
C132 C133 1.366 . S
C132 C134 1.388 . S
C133 C132 1.366 . S
C133 C137 1.385 . S
C134 H115 0.951 . S
C134 C132 1.388 . S
C134 C135 1.366 . S
C135 C134 1.366 . S
C135 C136 1.414 . S
C135 C138 1.499 . S
C136 H116 0.950 . S
C136 C135 1.414 . S
C136 C137 1.374 . S
C137 H117 0.950 . S
C137 C133 1.385 . S
C137 C136 1.374 . S
C138 C135 1.499 . S
C138 C139 1.373 . S
C138 C140 1.389 . S
C139 H118 0.950 . S
C139 C138 1.373 . S
C139 C155 1.377 . S
C140 C138 1.389 . S
C140 C141 1.524 . S
C140 C154 1.377 . S
C141 C140 1.524 . S
C141 C142 1.397 . S
C141 C146 1.363 . S
C142 H119 0.950 . S
C142 C141 1.397 . S
C142 C143 1.334 . S
C143 H120 0.950 . S
C143 C142 1.334 . S
C143 C144 1.287 . S
C144 C143 1.287 . S
C144 C145 1.524 . S
C144 H163 0.913 1_545 S
C145 H121 0.950 . S
C145 C144 1.524 . S
C145 C146 1.415 . S
C146 H122 0.950 . S
C146 C141 1.363 . S
C146 C145 1.415 . S
C147 H123 0.951 . S
C147 C148 1.366 . S
C147 C149 1.388 . S
C148 C147 1.366 . S
C148 C152 1.385 . S
C149 H124 0.951 . S
C149 C147 1.388 . S
C149 C150 1.366 . S
C150 C149 1.366 . S
C150 C151 1.414 . S
C150 C153 1.499 . S
C151 H125 0.950 . S
C151 C150 1.414 . S
C151 C152 1.374 . S
C152 H126 0.950 . S
C152 C148 1.385 . S
C152 C151 1.374 . S
C153 C150 1.499 . S
C153 C154 1.373 . S
C153 C155 1.389 . S
C154 H127 0.950 . S
C154 C140 1.377 . S
C154 C153 1.373 . S
C155 C139 1.377 . S
C155 C153 1.389 . S
C155 C156 1.524 . S
C156 C155 1.524 . S
C156 C157 1.397 . S
C156 C161 1.363 . S
C157 H128 0.950 . S
C157 C156 1.397 . S
C157 C158 1.334 . S
C158 H129 0.950 . S
C158 C157 1.334 . S
C158 C159 1.287 . S
C159 C158 1.287 . S
C159 C160 1.524 . S
C159 H162 0.999 . S
C160 H130 0.950 . S
C160 C159 1.524 . S
C160 C161 1.415 . S
C161 H131 0.950 . S
C161 C156 1.363 . S
C161 C160 1.415 . S
H162 C159 0.999 . S
H163 C144 0.913 1_565 S
H164 C182 0.951 . S
H165 C184 0.951 . S
H166 C186 0.950 . S
H167 C187 0.950 . S
H168 C189 0.950 . S
H169 C192 0.950 . S
H170 C193 0.950 . S
H171 C195 0.950 . S
H172 C196 0.950 . S
H173 C197 0.951 . S
H174 C199 0.951 . S
H175 C201 0.950 . S
H176 C202 0.950 . S
H177 C204 0.950 . S
H178 C207 0.950 . S
H179 C208 0.950 . S
H180 C210 0.950 . S
H181 C211 0.950 . S
C182 H164 0.951 . S
C182 C183 1.366 . S
C182 C184 1.388 . S
C183 C182 1.366 . S
C183 C187 1.385 . S
C184 H165 0.951 . S
C184 C182 1.388 . S
C184 C185 1.366 . S
C185 C184 1.366 . S
C185 C186 1.414 . S
C185 C188 1.499 . S
C186 H166 0.950 . S
C186 C185 1.414 . S
C186 C187 1.374 . S
C187 H167 0.950 . S
C187 C183 1.385 . S
C187 C186 1.374 . S
C188 C185 1.499 . S
C188 C189 1.373 . S
C188 C190 1.389 . S
C189 H168 0.950 . S
C189 C188 1.373 . S
C189 C205 1.377 . S
C190 C188 1.389 . S
C190 C191 1.524 . S
C190 C204 1.377 . S
C191 C190 1.524 . S
C191 C192 1.397 . S
C191 C196 1.363 . S
C192 H169 0.950 . S
C192 C191 1.397 . S
C192 C193 1.334 . S
C193 H170 0.950 . S
C193 C192 1.334 . S
C193 C194 1.287 . S
C194 C193 1.287 . S
C194 C195 1.524 . S
C194 H213 0.913 . S
C195 H171 0.950 . S
C195 C194 1.524 . S
C195 C196 1.415 . S
C196 H172 0.950 . S
C196 C191 1.363 . S
C196 C195 1.415 . S
C197 H173 0.951 . S
C197 C198 1.366 . S
C197 C199 1.388 . S
C198 C197 1.366 . S
C198 C202 1.385 . S
C199 H174 0.951 . S
C199 C197 1.388 . S
C199 C200 1.366 . S
C200 C199 1.366 . S
C200 C201 1.414 . S
C200 C203 1.499 . S
C201 H175 0.950 . S
C201 C200 1.414 . S
C201 C202 1.374 . S
C202 H176 0.950 . S
C202 C198 1.385 . S
C202 C201 1.374 . S
C203 C200 1.499 . S
C203 C204 1.373 . S
C203 C205 1.389 . S
C204 H177 0.950 . S
C204 C190 1.377 . S
C204 C203 1.373 . S
C205 C189 1.377 . S
C205 C203 1.389 . S
C205 C206 1.524 . S
C206 C205 1.524 . S
C206 C207 1.397 . S
C206 C211 1.363 . S
C207 H178 0.950 . S
C207 C206 1.397 . S
C207 C208 1.334 . S
C208 H179 0.950 . S
C208 C207 1.334 . S
C208 C209 1.287 . S
C209 C208 1.287 . S
C209 C210 1.524 . S
C209 H212 0.999 . S
C210 H180 0.950 . S
C210 C209 1.524 . S
C210 C211 1.415 . S
C211 H181 0.950 . S
C211 C206 1.363 . S
C211 C210 1.415 . S
H212 C209 0.999 . S
H213 C194 0.913 . S
H214 C232 0.951 . S
H215 C234 0.951 . S
H216 C236 0.950 . S
H217 C237 0.950 . S
H218 C239 0.950 . S
H219 C242 0.950 . S
H220 C243 0.950 . S
H221 C245 0.950 . S
H222 C246 0.950 . S
H223 C247 0.951 . S
H224 C249 0.951 . S
H225 C251 0.950 . S
H226 C252 0.950 . S
H227 C254 0.950 . S
H228 C257 0.950 . S
H229 C258 0.950 . S
H230 C260 0.950 . S
H231 C261 0.950 . S
C232 H214 0.951 . S
C232 C233 1.366 . S
C232 C234 1.388 . S
C233 C232 1.366 . S
C233 C237 1.385 . S
C234 H215 0.951 . S
C234 C232 1.388 . S
C234 C235 1.366 . S
C235 C234 1.366 . S
C235 C236 1.414 . S
C235 C238 1.499 . S
C236 H216 0.950 . S
C236 C235 1.414 . S
C236 C237 1.374 . S
C237 H217 0.950 . S
C237 C233 1.385 . S
C237 C236 1.374 . S
C238 C235 1.499 . S
C238 C239 1.373 . S
C238 C240 1.389 . S
C239 H218 0.950 . S
C239 C238 1.373 . S
C239 C255 1.377 . S
C240 C238 1.389 . S
C240 C241 1.524 . S
C240 C254 1.377 . S
C241 C240 1.524 . S
C241 C242 1.397 . S
C241 C246 1.363 . S
C242 H219 0.950 . S
C242 C241 1.397 . S
C242 C243 1.334 . S
C243 H220 0.950 . S
C243 C242 1.334 . S
C243 C244 1.287 . S
C244 C243 1.287 . S
C244 C245 1.524 . S
C244 H263 0.913 1_565 S
C245 H221 0.950 . S
C245 C244 1.524 . S
C245 C246 1.415 . S
C246 H222 0.950 . S
C246 C241 1.363 . S
C246 C245 1.415 . S
C247 H223 0.951 . S
C247 C248 1.366 . S
C247 C249 1.388 . S
C248 C247 1.366 . S
C248 C252 1.385 . S
C249 H224 0.951 . S
C249 C247 1.388 . S
C249 C250 1.366 . S
C250 C249 1.366 . S
C250 C251 1.414 . S
C250 C253 1.499 . S
C251 H225 0.950 . S
C251 C250 1.414 . S
C251 C252 1.374 . S
C252 H226 0.950 . S
C252 C248 1.385 . S
C252 C251 1.374 . S
C253 C250 1.499 . S
C253 C254 1.373 . S
C253 C255 1.389 . S
C254 H227 0.950 . S
C254 C240 1.377 . S
C254 C253 1.373 . S
C255 C239 1.377 . S
C255 C253 1.389 . S
C255 C256 1.524 . S
C256 C255 1.524 . S
C256 C257 1.397 . S
C256 C261 1.363 . S
C257 H228 0.950 . S
C257 C256 1.397 . S
C257 C258 1.334 . S
C258 H229 0.950 . S
C258 C257 1.334 . S
C258 C259 1.287 . S
C259 C258 1.287 . S
C259 C260 1.524 . S
C259 H262 0.999 . S
C260 H230 0.950 . S
C260 C259 1.524 . S
C260 C261 1.415 . S
C261 H231 0.950 . S
C261 C256 1.363 . S
C261 C260 1.415 . S
H262 C259 0.999 . S
H263 C244 0.913 1_545 S
H264 C282 0.951 . S
H265 C284 0.951 . S
H266 C286 0.950 . S
H267 C287 0.950 . S
H268 C289 0.950 . S
H269 C292 0.950 . S
H270 C293 0.950 . S
H271 C295 0.950 . S
H272 C296 0.950 . S
H273 C297 0.951 . S
H274 C299 0.951 . S
H275 C301 0.950 . S
H276 C302 0.950 . S
H277 C304 0.950 . S
H278 C307 0.950 . S
H279 C308 0.950 . S
H280 C310 0.950 . S
H281 C311 0.950 . S
C282 H264 0.951 . S
C282 C283 1.366 . S
C282 C284 1.388 . S
C283 C282 1.366 . S
C283 C287 1.385 . S
C284 H265 0.951 . S
C284 C282 1.388 . S
C284 C285 1.366 . S
C285 C284 1.366 . S
C285 C286 1.414 . S
C285 C288 1.499 . S
C286 H266 0.950 . S
C286 C285 1.414 . S
C286 C287 1.374 . S
C287 H267 0.950 . S
C287 C283 1.385 . S
C287 C286 1.374 . S
C288 C285 1.499 . S
C288 C289 1.373 . S
C288 C290 1.389 . S
C289 H268 0.950 . S
C289 C288 1.373 . S
C289 C305 1.377 . S
C290 C288 1.389 . S
C290 C291 1.524 . S
C290 C304 1.377 . S
C291 C290 1.524 . S
C291 C292 1.397 . S
C291 C296 1.363 . S
C292 H269 0.950 . S
C292 C291 1.397 . S
C292 C293 1.334 . S
C293 H270 0.950 . S
C293 C292 1.334 . S
C293 C294 1.287 . S
C294 C293 1.287 . S
C294 C295 1.524 . S
C294 H313 0.913 . S
C295 H271 0.950 . S
C295 C294 1.524 . S
C295 C296 1.415 . S
C296 H272 0.950 . S
C296 C291 1.363 . S
C296 C295 1.415 . S
C297 H273 0.951 . S
C297 C298 1.366 . S
C297 C299 1.388 . S
C298 C297 1.366 . S
C298 C302 1.385 . S
C299 H274 0.951 . S
C299 C297 1.388 . S
C299 C300 1.366 . S
C300 C299 1.366 . S
C300 C301 1.414 . S
C300 C303 1.499 . S
C301 H275 0.950 . S
C301 C300 1.414 . S
C301 C302 1.374 . S
C302 H276 0.950 . S
C302 C298 1.385 . S
C302 C301 1.374 . S
C303 C300 1.499 . S
C303 C304 1.373 . S
C303 C305 1.389 . S
C304 H277 0.950 . S
C304 C290 1.377 . S
C304 C303 1.373 . S
C305 C289 1.377 . S
C305 C303 1.389 . S
C305 C306 1.524 . S
C306 C305 1.524 . S
C306 C307 1.397 . S
C306 C311 1.363 . S
C307 H278 0.950 . S
C307 C306 1.397 . S
C307 C308 1.334 . S
C308 H279 0.950 . S
C308 C307 1.334 . S
C308 C309 1.287 . S
C309 C308 1.287 . S
C309 C310 1.524 . S
C309 H312 0.999 . S
C310 H280 0.950 . S
C310 C309 1.524 . S
C310 C311 1.415 . S
C311 H281 0.950 . S
C311 C306 1.363 . S
C311 C310 1.415 . S
H312 C309 0.999 . S
H313 C294 0.913 . S
H314 C332 0.951 . S
H315 C334 0.951 . S
H316 C336 0.950 . S
H317 C337 0.950 . S
H318 C339 0.950 . S
H319 C342 0.950 . S
H320 C343 0.950 . S
H321 C345 0.950 . S
H322 C346 0.950 . S
H323 C347 0.951 . S
H324 C349 0.951 . S
H325 C351 0.950 . S
H326 C352 0.950 . S
H327 C354 0.950 . S
H328 C357 0.950 . S
H329 C358 0.950 . S
H330 C360 0.950 . S
H331 C361 0.950 . S
C332 H314 0.951 . S
C332 C333 1.366 . S
C332 C334 1.388 . S
C333 C332 1.366 . S
C333 C337 1.385 . S
C334 H315 0.951 . S
C334 C332 1.388 . S
C334 C335 1.366 . S
C335 C334 1.366 . S
C335 C336 1.414 . S
C335 C338 1.499 . S
C336 H316 0.950 . S
C336 C335 1.414 . S
C336 C337 1.374 . S
C337 H317 0.950 . S
C337 C333 1.385 . S
C337 C336 1.374 . S
C338 C335 1.499 . S
C338 C339 1.373 . S
C338 C340 1.389 . S
C339 H318 0.950 . S
C339 C338 1.373 . S
C339 C355 1.377 . S
C340 C338 1.389 . S
C340 C341 1.524 . S
C340 C354 1.377 . S
C341 C340 1.524 . S
C341 C342 1.397 . S
C341 C346 1.363 . S
C342 H319 0.950 . S
C342 C341 1.397 . S
C342 C343 1.334 . S
C343 H320 0.950 . S
C343 C342 1.334 . S
C343 C344 1.287 . S
C344 C343 1.287 . S
C344 C345 1.524 . S
C344 H363 0.913 . S
C345 H321 0.950 . S
C345 C344 1.524 . S
C345 C346 1.415 . S
C346 H322 0.950 . S
C346 C341 1.363 . S
C346 C345 1.415 . S
C347 H323 0.951 . S
C347 C348 1.366 . S
C347 C349 1.388 . S
C348 C347 1.366 . S
C348 C352 1.385 . S
C349 H324 0.951 . S
C349 C347 1.388 . S
C349 C350 1.366 . S
C350 C349 1.366 . S
C350 C351 1.414 . S
C350 C353 1.499 . S
C351 H325 0.950 . S
C351 C350 1.414 . S
C351 C352 1.374 . S
C352 H326 0.950 . S
C352 C348 1.385 . S
C352 C351 1.374 . S
C353 C350 1.499 . S
C353 C354 1.373 . S
C353 C355 1.389 . S
C354 H327 0.950 . S
C354 C340 1.377 . S
C354 C353 1.373 . S
C355 C339 1.377 . S
C355 C353 1.389 . S
C355 C356 1.524 . S
C356 C355 1.524 . S
C356 C357 1.397 . S
C356 C361 1.363 . S
C357 H328 0.950 . S
C357 C356 1.397 . S
C357 C358 1.334 . S
C358 H329 0.950 . S
C358 C357 1.334 . S
C358 C359 1.287 . S
C359 C358 1.287 . S
C359 C360 1.524 . S
C359 H362 0.999 . S
C360 H330 0.950 . S
C360 C359 1.524 . S
C360 C361 1.415 . S
C361 H331 0.950 . S
C361 C356 1.363 . S
C361 C360 1.415 . S
H362 C359 0.999 . S
H363 C344 0.913 . S
H364 C382 0.951 . S
H365 C384 0.951 . S
H366 C386 0.950 . S
H367 C387 0.950 . S
H368 C389 0.950 . S
H369 C392 0.950 . S
H370 C393 0.950 . S
H371 C395 0.950 . S
H372 C396 0.950 . S
H373 C397 0.951 . S
H374 C399 0.951 . S
H375 C401 0.950 . S
H376 C402 0.950 . S
H377 C404 0.950 . S
H378 C407 0.950 . S
H379 C408 0.950 . S
H380 C410 0.950 . S
H381 C411 0.950 . S
C382 H364 0.951 . S
C382 C383 1.366 . S
C382 C384 1.388 . S
C383 C382 1.366 . S
C383 C387 1.385 . S
C384 H365 0.951 . S
C384 C382 1.388 . S
C384 C385 1.366 . S
C385 C384 1.366 . S
C385 C386 1.414 . S
C385 C388 1.499 . S
C386 H366 0.950 . S
C386 C385 1.414 . S
C386 C387 1.374 . S
C387 H367 0.950 . S
C387 C383 1.385 . S
C387 C386 1.374 . S
C388 C385 1.499 . S
C388 C389 1.373 . S
C388 C390 1.389 . S
C389 H368 0.950 . S
C389 C388 1.373 . S
C389 C405 1.377 . S
C390 C388 1.389 . S
C390 C391 1.524 . S
C390 C404 1.377 . S
C391 C390 1.524 . S
C391 C392 1.397 . S
C391 C396 1.363 . S
C392 H369 0.950 . S
C392 C391 1.397 . S
C392 C393 1.334 . S
C393 H370 0.950 . S
C393 C392 1.334 . S
C393 C394 1.287 . S
C394 C393 1.287 . S
C394 C395 1.524 . S
C394 H413 0.913 . S
C395 H371 0.950 . S
C395 C394 1.524 . S
C395 C396 1.415 . S
C396 H372 0.950 . S
C396 C391 1.363 . S
C396 C395 1.415 . S
C397 H373 0.951 . S
C397 C398 1.366 . S
C397 C399 1.388 . S
C398 C397 1.366 . S
C398 C402 1.385 . S
C399 H374 0.951 . S
C399 C397 1.388 . S
C399 C400 1.366 . S
C400 C399 1.366 . S
C400 C401 1.414 . S
C400 C403 1.499 . S
C401 H375 0.950 . S
C401 C400 1.414 . S
C401 C402 1.374 . S
C402 H376 0.950 . S
C402 C398 1.385 . S
C402 C401 1.374 . S
C403 C400 1.499 . S
C403 C404 1.373 . S
C403 C405 1.389 . S
C404 H377 0.950 . S
C404 C390 1.377 . S
C404 C403 1.373 . S
C405 C389 1.377 . S
C405 C403 1.389 . S
C405 C406 1.524 . S
C406 C405 1.524 . S
C406 C407 1.397 . S
C406 C411 1.363 . S
C407 H378 0.950 . S
C407 C406 1.397 . S
C407 C408 1.334 . S
C408 H379 0.950 . S
C408 C407 1.334 . S
C408 C409 1.287 . S
C409 C408 1.287 . S
C409 C410 1.524 . S
C409 H412 0.999 . S
C410 H380 0.950 . S
C410 C409 1.524 . S
C410 C411 1.415 . S
C411 H381 0.950 . S
C411 C406 1.363 . S
C411 C410 1.415 . S
H412 C409 0.999 . S
H413 C394 0.913 . S
H414 C432 0.951 . S
H415 C434 0.951 . S
H416 C436 0.950 . S
H417 C437 0.950 . S
H418 C439 0.950 . S
H419 C442 0.950 . S
H420 C443 0.950 . S
H421 C445 0.950 . S
H422 C446 0.950 . S
H423 C447 0.951 . S
H424 C449 0.951 . S
H425 C451 0.950 . S
H426 C452 0.950 . S
H427 C454 0.950 . S
H428 C457 0.950 . S
H429 C458 0.950 . S
H430 C460 0.950 . S
H431 C461 0.950 . S
C432 H414 0.951 . S
C432 C433 1.366 . S
C432 C434 1.388 . S
C433 C432 1.366 . S
C433 C437 1.385 . S
C434 H415 0.951 . S
C434 C432 1.388 . S
C434 C435 1.366 . S
C435 C434 1.366 . S
C435 C436 1.414 . S
C435 C438 1.499 . S
C436 H416 0.950 . S
C436 C435 1.414 . S
C436 C437 1.374 . S
C437 H417 0.950 . S
C437 C433 1.385 . S
C437 C436 1.374 . S
C438 C435 1.499 . S
C438 C439 1.373 . S
C438 C440 1.389 . S
C439 H418 0.950 . S
C439 C438 1.373 . S
C439 C455 1.377 . S
C440 C438 1.389 . S
C440 C441 1.524 . S
C440 C454 1.377 . S
C441 C440 1.524 . S
C441 C442 1.397 . S
C441 C446 1.363 . S
C442 H419 0.950 . S
C442 C441 1.397 . S
C442 C443 1.334 . S
C443 H420 0.950 . S
C443 C442 1.334 . S
C443 C444 1.287 . S
C444 C443 1.287 . S
C444 C445 1.524 . S
C444 H463 0.913 1_556 S
C445 H421 0.950 . S
C445 C444 1.524 . S
C445 C446 1.415 . S
C446 H422 0.950 . S
C446 C441 1.363 . S
C446 C445 1.415 . S
C447 H423 0.951 . S
C447 C448 1.366 . S
C447 C449 1.388 . S
C448 C447 1.366 . S
C448 C452 1.385 . S
C449 H424 0.951 . S
C449 C447 1.388 . S
C449 C450 1.366 . S
C450 C449 1.366 . S
C450 C451 1.414 . S
C450 C453 1.499 . S
C451 H425 0.950 . S
C451 C450 1.414 . S
C451 C452 1.374 . S
C452 H426 0.950 . S
C452 C448 1.385 . S
C452 C451 1.374 . S
C453 C450 1.499 . S
C453 C454 1.373 . S
C453 C455 1.389 . S
C454 H427 0.950 . S
C454 C440 1.377 . S
C454 C453 1.373 . S
C455 C439 1.377 . S
C455 C453 1.389 . S
C455 C456 1.524 . S
C456 C455 1.524 . S
C456 C457 1.397 . S
C456 C461 1.363 . S
C457 H428 0.950 . S
C457 C456 1.397 . S
C457 C458 1.334 . S
C458 H429 0.950 . S
C458 C457 1.334 . S
C458 C459 1.287 . S
C459 C458 1.287 . S
C459 C460 1.524 . S
C459 H462 0.999 . S
C460 H430 0.950 . S
C460 C459 1.524 . S
C460 C461 1.415 . S
C461 H431 0.950 . S
C461 C456 1.363 . S
C461 C460 1.415 . S
H462 C459 0.999 . S
H463 C444 0.913 1_554 S
C83 C0 1.259 . S
C98 C53 1.281 . S
C133 C29 1.827 . S
C148 C52 1.865 . S
C183 C30 1.217 . S
C198 C58 1.174 . S
C233 C1 1.559 . S
C248 C59 1.521 . S
C283 C2 1.822 . S
C298 C56 1.861 . S
C348 C54 1.219 . S
C333 C19 1.240 . S
C383 C20 1.548 . S
C398 C55 1.509 . S
C448 C57 1.236 . S
C433 C10 1.243 . S
