# Generated by pormake.
# Topology eea, (3,6)-cn, num edge types: 1
# Building blocks:
#     Node 0, Type 0, BuildingBlock: OLANEW_clean_sbu_2, # of connection points: 3
#     Node 1, Type 0, BuildingBlock: OLANEW_clean_sbu_2, # of connection points: 3
#     Node 2, Type 0, BuildingBlock: OLANEW_clean_sbu_2, # of connection points: 3
#     Node 3, Type 0, BuildingBlock: OLANEW_clean_sbu_2, # of connection points: 3
#     Node 4, Type 0, BuildingBlock: OLANEW_clean_sbu_2, # of connection points: 3
#     Node 5, Type 0, BuildingBlock: OLANEW_clean_sbu_2, # of connection points: 3
#     Node 6, Type 0, BuildingBlock: OLANEW_clean_sbu_2, # of connection points: 3
#     Node 7, Type 0, BuildingBlock: OLANEW_clean_sbu_2, # of connection points: 3
#     Node 8, Type 0, BuildingBlock: OLANEW_clean_sbu_2, # of connection points: 3
#     Node 9, Type 0, BuildingBlock: OLANEW_clean_sbu_2, # of connection points: 3
#     Node 10, Type 0, BuildingBlock: OLANEW_clean_sbu_2, # of connection points: 3
#     Node 11, Type 0, BuildingBlock: OLANEW_clean_sbu_2, # of connection points: 3
#     Node 12, Type 0, BuildingBlock: OLANEW_clean_sbu_2, # of connection points: 3
#     Node 13, Type 0, BuildingBlock: OLANEW_clean_sbu_2, # of connection points: 3
#     Node 14, Type 0, BuildingBlock: OLANEW_clean_sbu_2, # of connection points: 3
#     Node 15, Type 0, BuildingBlock: OLANEW_clean_sbu_2, # of connection points: 3
#     Node 16, Type 0, BuildingBlock: OLANEW_clean_sbu_2, # of connection points: 3
#     Node 17, Type 0, BuildingBlock: OLANEW_clean_sbu_2, # of connection points: 3
#     Node 18, Type 1, BuildingBlock: CUKXOW_clean_sbu_0, # of connection points: 6
#     Node 19, Type 1, BuildingBlock: CUKXOW_clean_sbu_0, # of connection points: 6
#     Node 20, Type 1, BuildingBlock: CUKXOW_clean_sbu_0, # of connection points: 6
#     Node 21, Type 1, BuildingBlock: CUKXOW_clean_sbu_0, # of connection points: 6
#     Node 22, Type 1, BuildingBlock: CUKXOW_clean_sbu_0, # of connection points: 6
#     Node 23, Type 1, BuildingBlock: CUKXOW_clean_sbu_0, # of connection points: 6
#     Node 24, Type 1, BuildingBlock: CUKXOW_clean_sbu_0, # of connection points: 6
#     Node 25, Type 1, BuildingBlock: CUKXOW_clean_sbu_0, # of connection points: 6
#     Node 26, Type 1, BuildingBlock: CUKXOW_clean_sbu_0, # of connection points: 6
#     Edge 27, Type (0, 1), BuildingBlock: OJICUG_clean_linker_0, # of connection points: 2
#     Edge 28, Type (0, 1), BuildingBlock: OJICUG_clean_linker_0, # of connection points: 2
#     Edge 29, Type (0, 1), BuildingBlock: OJICUG_clean_linker_0, # of connection points: 2
#     Edge 30, Type (0, 1), BuildingBlock: OJICUG_clean_linker_0, # of connection points: 2
#     Edge 31, Type (0, 1), BuildingBlock: OJICUG_clean_linker_0, # of connection points: 2
#     Edge 32, Type (0, 1), BuildingBlock: OJICUG_clean_linker_0, # of connection points: 2
#     Edge 33, Type (0, 1), BuildingBlock: OJICUG_clean_linker_0, # of connection points: 2
#     Edge 34, Type (0, 1), BuildingBlock: OJICUG_clean_linker_0, # of connection points: 2
#     Edge 35, Type (0, 1), BuildingBlock: OJICUG_clean_linker_0, # of connection points: 2
#     Edge 36, Type (0, 1), BuildingBlock: OJICUG_clean_linker_0, # of connection points: 2
#     Edge 37, Type (0, 1), BuildingBlock: OJICUG_clean_linker_0, # of connection points: 2
#     Edge 38, Type (0, 1), BuildingBlock: OJICUG_clean_linker_0, # of connection points: 2
#     Edge 39, Type (0, 1), BuildingBlock: OJICUG_clean_linker_0, # of connection points: 2
#     Edge 40, Type (0, 1), BuildingBlock: OJICUG_clean_linker_0, # of connection points: 2
#     Edge 41, Type (0, 1), BuildingBlock: OJICUG_clean_linker_0, # of connection points: 2
#     Edge 42, Type (0, 1), BuildingBlock: OJICUG_clean_linker_0, # of connection points: 2
#     Edge 43, Type (0, 1), BuildingBlock: OJICUG_clean_linker_0, # of connection points: 2
#     Edge 44, Type (0, 1), BuildingBlock: OJICUG_clean_linker_0, # of connection points: 2
#     Edge 45, Type (0, 1), BuildingBlock: OJICUG_clean_linker_0, # of connection points: 2
#     Edge 46, Type (0, 1), BuildingBlock: OJICUG_clean_linker_0, # of connection points: 2
#     Edge 47, Type (0, 1), BuildingBlock: OJICUG_clean_linker_0, # of connection points: 2
#     Edge 48, Type (0, 1), BuildingBlock: OJICUG_clean_linker_0, # of connection points: 2
#     Edge 49, Type (0, 1), BuildingBlock: OJICUG_clean_linker_0, # of connection points: 2
#     Edge 50, Type (0, 1), BuildingBlock: OJICUG_clean_linker_0, # of connection points: 2
#     Edge 51, Type (0, 1), BuildingBlock: OJICUG_clean_linker_0, # of connection points: 2
#     Edge 52, Type (0, 1), BuildingBlock: OJICUG_clean_linker_0, # of connection points: 2
#     Edge 53, Type (0, 1), BuildingBlock: OJICUG_clean_linker_0, # of connection points: 2
#     Edge 54, Type (0, 1), BuildingBlock: OJICUG_clean_linker_0, # of connection points: 2
#     Edge 55, Type (0, 1), BuildingBlock: OJICUG_clean_linker_0, # of connection points: 2
#     Edge 56, Type (0, 1), BuildingBlock: OJICUG_clean_linker_0, # of connection points: 2
#     Edge 57, Type (0, 1), BuildingBlock: OJICUG_clean_linker_0, # of connection points: 2
#     Edge 58, Type (0, 1), BuildingBlock: OJICUG_clean_linker_0, # of connection points: 2
#     Edge 59, Type (0, 1), BuildingBlock: OJICUG_clean_linker_0, # of connection points: 2
#     Edge 60, Type (0, 1), BuildingBlock: OJICUG_clean_linker_0, # of connection points: 2
#     Edge 61, Type (0, 1), BuildingBlock: OJICUG_clean_linker_0, # of connection points: 2
#     Edge 62, Type (0, 1), BuildingBlock: OJICUG_clean_linker_0, # of connection points: 2
#     Edge 63, Type (0, 1), BuildingBlock: OJICUG_clean_linker_0, # of connection points: 2
#     Edge 64, Type (0, 1), BuildingBlock: OJICUG_clean_linker_0, # of connection points: 2
#     Edge 65, Type (0, 1), BuildingBlock: OJICUG_clean_linker_0, # of connection points: 2
#     Edge 66, Type (0, 1), BuildingBlock: OJICUG_clean_linker_0, # of connection points: 2
#     Edge 67, Type (0, 1), BuildingBlock: OJICUG_clean_linker_0, # of connection points: 2
#     Edge 68, Type (0, 1), BuildingBlock: OJICUG_clean_linker_0, # of connection points: 2
#     Edge 69, Type (0, 1), BuildingBlock: OJICUG_clean_linker_0, # of connection points: 2
#     Edge 70, Type (0, 1), BuildingBlock: OJICUG_clean_linker_0, # of connection points: 2
#     Edge 71, Type (0, 1), BuildingBlock: OJICUG_clean_linker_0, # of connection points: 2
#     Edge 72, Type (0, 1), BuildingBlock: OJICUG_clean_linker_0, # of connection points: 2
#     Edge 73, Type (0, 1), BuildingBlock: OJICUG_clean_linker_0, # of connection points: 2
#     Edge 74, Type (0, 1), BuildingBlock: OJICUG_clean_linker_0, # of connection points: 2
#     Edge 75, Type (0, 1), BuildingBlock: OJICUG_clean_linker_0, # of connection points: 2
#     Edge 76, Type (0, 1), BuildingBlock: OJICUG_clean_linker_0, # of connection points: 2
#     Edge 77, Type (0, 1), BuildingBlock: OJICUG_clean_linker_0, # of connection points: 2
#     Edge 78, Type (0, 1), BuildingBlock: OJICUG_clean_linker_0, # of connection points: 2
#     Edge 79, Type (0, 1), BuildingBlock: OJICUG_clean_linker_0, # of connection points: 2
#     Edge 80, Type (0, 1), BuildingBlock: OJICUG_clean_linker_0, # of connection points: 2
# Relax obj value: 0.013
# Max RMSD: 0.114
# Mean RMSD: 0.050
data_MOF--net-eea--node1-OLANEW_clean_sbu_2--node2-CUKXOW_clean_sbu_0--edge1-OJICUG_clean_linker_0
_symmetry_space_group_name_H-M    P1
_symmetry_Int_Tables_number       1
_symmetry_cell_setting            triclinic
loop_
_symmetry_equiv_pos_as_xyz
'x, y, z'
_cell_length_a     50.380605
_cell_length_b     45.985472
_cell_length_c     37.161588
_cell_angle_alpha  97.557937
_cell_angle_beta   93.74239
_cell_angle_gamma 120.54281
loop_
_atom_site_label
_atom_site_type_symbol
_atom_site_fract_x
_atom_site_fract_y
_atom_site_fract_z
_atom_type_partial_charge
O0 O 0.2882 0.17504 0.44619 0.0
Cd1 Cd 0.27263 0.17253 0.38168 0.0
O2 O 0.26702 0.11897 0.43361 0.0
Cd3 Cd 0.24936 0.10825 0.37544 0.0
O4 O 0.22898 0.05565 0.3466 0.0
C5 C 0.2061 0.03339 0.35962 0.0
O6 O 0.19441 0.04408 0.38507 0.0
C7 C 0.2817 0.14721 0.45658 0.0
C8 C 0.24835 0.21388 0.37198 0.0
O9 O 0.23076 0.18299 0.37678 0.0
O10 O 0.27745 0.22523 0.37206 0.0
O11 O 0.89947 0.14085 0.48795 0.0
Cd12 Cd 0.92518 0.12381 0.4433 0.0
O13 O 0.85498 0.09374 0.46319 0.0
Cd14 Cd 0.87091 0.07628 0.41677 0.0
O15 O 0.84597 0.02825 0.37731 0.0
C16 C 0.82084 0.02234 0.35939 0.0
O17 O 0.81476 0.04709 0.3622 0.0
C18 C 0.87043 0.1207 0.48788 0.0
C19 C 0.97894 0.17547 0.4227 0.0
O20 O 0.95189 0.16414 0.40468 0.0
O21 O 0.98047 0.16323 0.45132 0.0
O22 O 0.88897 0.71625 0.47885 0.0
Cd23 Cd 0.90521 0.74451 0.42606 0.0
O24 O 0.83987 0.68758 0.45251 0.0
Cd25 Cd 0.84607 0.71025 0.40356 0.0
O26 O 0.82013 0.72979 0.3771 0.0
C27 C 0.79976 0.72956 0.39573 0.0
O28 O 0.79733 0.71847 0.42691 0.0
C29 C 0.86035 0.69479 0.47956 0.0
C30 C 0.96436 0.76092 0.41119 0.0
O31 O 0.96086 0.78164 0.43414 0.0
O32 O 0.93995 0.73217 0.39583 0.0
O33 O 0.16869 0.30492 0.5525 0.0
Cd34 Cd 0.15104 0.2719 0.60136 0.0
O35 O 0.1232 0.29869 0.53525 0.0
Cd36 Cd 0.10053 0.27147 0.57809 0.0
O37 O 0.06122 0.24787 0.60761 0.0
C38 C 0.03498 0.22548 0.58852 0.0
O39 O 0.03353 0.21655 0.55303 0.0
C40 C 0.1514 0.31004 0.53105 0.0
C41 C 0.19137 0.2495 0.61954 0.0
O42 O 0.16836 0.23199 0.59326 0.0
O43 O 0.19504 0.27736 0.6376 0.0
O44 O 0.72835 0.84396 0.56863 0.0
Cd45 Cd 0.75809 0.85998 0.63035 0.0
O46 O 0.77047 0.86589 0.54229 0.0
Cd47 Cd 0.80045 0.89451 0.59467 0.0
O48 O 0.8166 0.94472 0.62801 0.0
C49 C 0.79556 0.95078 0.63629 0.0
O50 O 0.76618 0.92585 0.62731 0.0
C51 C 0.7409 0.84922 0.53966 0.0
C52 C 0.77962 0.81656 0.644 0.0
O53 O 0.75284 0.81034 0.651 0.0
O54 O 0.79619 0.8432 0.63022 0.0
O55 O 0.12017 0.86996 0.54533 0.0
Cd56 Cd 0.10151 0.89169 0.59477 0.0
O57 O 0.15993 0.87698 0.58218 0.0
Cd58 Cd 0.1483 0.89568 0.63187 0.0
O59 O 0.17537 0.94701 0.66503 0.0
C60 C 0.1731 0.97057 0.65351 0.0
O61 O 0.1513 0.96192 0.62577 0.0
C62 C 0.14467 0.86855 0.55018 0.0
C63 C 0.04484 0.84253 0.61183 0.0
O64 O 0.04575 0.85906 0.58625 0.0
O65 O 0.07075 0.84892 0.62884 0.0
O66 O 0.93357 0.49269 0.78306 0.0
Cd67 Cd 0.90936 0.48423 0.72037 0.0
O68 O 0.94442 0.45307 0.76432 0.0
Cd69 Cd 0.92045 0.4363 0.70806 0.0
O70 O 0.89682 0.38303 0.67991 0.0
C71 C 0.87481 0.36155 0.69466 0.0
O72 O 0.86555 0.3732 0.72225 0.0
C73 C 0.94563 0.47516 0.78987 0.0
C74 C 0.89318 0.53255 0.71075 0.0
O75 O 0.87418 0.50457 0.72104 0.0
O76 O 0.92 0.53779 0.70527 0.0
O77 O 0.55887 0.47499 0.81673 0.0
Cd78 Cd 0.58121 0.46129 0.76528 0.0
O79 O 0.53707 0.42121 0.8238 0.0
Cd80 Cd 0.55075 0.40258 0.77594 0.0
O81 O 0.5233 0.35951 0.7307 0.0
C82 C 0.50033 0.35896 0.71361 0.0
O83 O 0.49763 0.386 0.72108 0.0
C84 C 0.54206 0.4513 0.83379 0.0
C85 C 0.63751 0.51399 0.75091 0.0
O86 O 0.61135 0.50766 0.73474 0.0
O87 O 0.63704 0.49611 0.77486 0.0
O88 O 0.55589 0.04756 0.82347 0.0
Cd89 Cd 0.57636 0.08724 0.78051 0.0
O90 O 0.51 0.04158 0.8099 0.0
Cd91 Cd 0.52081 0.07521 0.77017 0.0
O92 O 0.49988 0.10027 0.74479 0.0
C93 C 0.4759 0.08155 0.72048 0.0
O94 O 0.46686 0.0491 0.7094 0.0
C95 C 0.52752 0.03447 0.82805 0.0
C96 C 0.6315 0.09773 0.75688 0.0
O97 O 0.63207 0.11566 0.78674 0.0
O98 O 0.60483 0.07432 0.73861 0.0
O99 O 0.82617 0.62578 0.88334 0.0
Cd100 Cd 0.80669 0.59144 0.93084 0.0
O101 O 0.79077 0.64029 0.88058 0.0
Cd102 Cd 0.76823 0.61457 0.9244 0.0
O103 O 0.72948 0.59221 0.95503 0.0
C104 C 0.70353 0.56842 0.93647 0.0
O105 O 0.70244 0.55781 0.90148 0.0
C106 C 0.81433 0.64114 0.86921 0.0
C107 C 0.84694 0.56929 0.95035 0.0
O108 O 0.8245 0.55185 0.92342 0.0
O109 O 0.84997 0.59682 0.96839 0.0
O110 O 0.42198 0.17677 0.87305 0.0
Cd111 Cd 0.45408 0.18751 0.93143 0.0
O112 O 0.44915 0.23237 0.87364 0.0
Cd113 Cd 0.47918 0.2486 0.9261 0.0
O114 O 0.49447 0.294 0.9677 0.0
C115 C 0.47278 0.29693 0.97986 0.0
O116 O 0.44388 0.27089 0.97036 0.0
C117 C 0.42727 0.20229 0.85831 0.0
C118 C 0.46437 0.13574 0.94566 0.0
O119 O 0.44071 0.13663 0.95505 0.0
O120 O 0.48269 0.15879 0.92847 0.0
O121 O 0.79719 0.15918 0.89304 0.0
Cd122 Cd 0.78654 0.16326 0.9559 0.0
O123 O 0.84304 0.20674 0.90999 0.0
Cd124 Cd 0.83808 0.22161 0.966 0.0
O125 O 0.86387 0.27444 0.99582 0.0
C126 C 0.85838 0.29538 0.98275 0.0
O127 O 0.83512 0.2832 0.95573 0.0
C128 C 0.82325 0.18139 0.88531 0.0
C129 C 0.72306 0.12663 0.9594 0.0
O130 O 0.73875 0.11173 0.95765 0.0
O131 O 0.73741 0.15897 0.95934 0.0
O132 O 0.56949 0.78645 0.12651 0.0
Cd133 Cd 0.53793 0.77397 0.06751 0.0
O134 O 0.61195 0.79976 0.10226 0.0
Cd135 Cd 0.58442 0.7745 0.04788 0.0
O136 O 0.5594 0.72093 0.01969 0.0
C137 C 0.53791 0.69905 0.03474 0.0
O138 O 0.52992 0.71008 0.06406 0.0
C139 C 0.59859 0.79777 0.13048 0.0
C140 C 0.53325 0.83003 0.0568 0.0
O141 O 0.51347 0.80682 0.07269 0.0
O142 O 0.5553 0.82665 0.04578 0.0
O143 O 0.2165 0.83267 0.1378 0.0
Cd144 Cd 0.22792 0.83001 0.07505 0.0
O145 O 0.2006 0.77823 0.13657 0.0
Cd146 Cd 0.20863 0.76681 0.08106 0.0
O147 O 0.18002 0.71844 0.04256 0.0
C148 C 0.15258 0.71099 0.03111 0.0
O149 O 0.14525 0.7345 0.03899 0.0
C150 C 0.20525 0.80671 0.1533 0.0
C151 C 0.29138 0.86334 0.07086 0.0
O152 O 0.27737 0.88005 0.07452 0.0
O153 O 0.27542 0.83079 0.06963 0.0
O154 O 0.21936 0.39279 0.14569 0.0
Cd155 Cd 0.2361 0.42771 0.09822 0.0
O156 O 0.17105 0.36012 0.11704 0.0
Cd157 Cd 0.17774 0.38867 0.07279 0.0
O158 O 0.15895 0.41565 0.04712 0.0
C159 C 0.15355 0.43474 0.06945 0.0
O160 O 0.16166 0.43843 0.10485 0.0
C161 C 0.19163 0.36782 0.14419 0.0
C162 C 0.29216 0.43794 0.07837 0.0
O163 O 0.29179 0.45748 0.10607 0.0
O164 O 0.26596 0.41347 0.06006 0.0
O165 O 0.51318 0.97692 0.2367 0.0
Cd166 Cd 0.50106 0.95512 0.29362 0.0
O167 O 0.47109 0.97925 0.22392 0.0
Cd168 Cd 0.45082 0.96075 0.27221 0.0
O169 O 0.41067 0.93849 0.30099 0.0
C170 C 0.3851 0.91519 0.28119 0.0
O171 O 0.38518 0.90544 0.24635 0.0
C172 C 0.49672 0.98341 0.21566 0.0
C173 C 0.53678 0.92626 0.30864 0.0
O174 O 0.51015 0.90856 0.28798 0.0
O175 O 0.5463 0.9575 0.32295 0.0
O176 O 0.0524 0.49714 0.22169 0.0
Cd177 Cd 0.06918 0.50079 0.28623 0.0
O178 O 0.07891 0.55362 0.23091 0.0
Cd179 Cd 0.09821 0.56331 0.28829 0.0
O180 O 0.11792 0.60922 0.33031 0.0
C181 C 0.14515 0.6334 0.32819 0.0
O182 O 0.1611 0.62711 0.30508 0.0
C183 C 0.06095 0.52478 0.20971 0.0
C184 C 0.09628 0.46247 0.29796 0.0
O185 O 0.06693 0.44981 0.29744 0.0
O186 O 0.11284 0.49323 0.2923 0.0
O187 O 0.45244 0.55638 0.20691 0.0
Cd188 Cd 0.43158 0.57132 0.25927 0.0
O189 O 0.46501 0.52304 0.23145 0.0
Cd190 Cd 0.46639 0.54752 0.28637 0.0
O191 O 0.50152 0.59772 0.31915 0.0
C192 C 0.50688 0.62277 0.30361 0.0
O193 O 0.49063 0.61661 0.27151 0.0
C194 C 0.462 0.53548 0.20396 0.0
C195 C 0.37552 0.51806 0.27337 0.0
O196 O 0.37573 0.53637 0.25005 0.0
O197 O 0.4018 0.5245 0.28927 0.0
Tb198 Tb 0.54085 0.01341 0.00646 0.0
C199 C 0.51842 0.94226 0.02944 0.0
Tb200 Tb 0.47215 0.96867 0.01762 0.0
O201 O 0.55762 0.02206 0.06487 0.0
O202 O 0.5134 0.01277 0.04758 0.0
O203 O 0.53831 0.96543 0.01159 0.0
C204 C 0.41806 0.9338 0.04237 0.0
O205 O 0.49344 0.94213 0.03909 0.0
C206 C 0.48196 0.96577 0.94879 0.0
C207 C 0.49318 0.03808 0.99166 0.0
O208 O 0.4288 0.92051 0.0189 0.0
O209 O 0.43788 0.96662 0.05206 0.0
O210 O 0.45556 0.95925 0.9588 0.0
O211 O 0.49972 0.96961 0.97673 0.0
O212 O 0.4735 0.01532 0.00995 0.0
O213 O 0.51897 0.03915 0.98354 0.0
C214 C 0.59548 0.04998 0.98345 0.0
O215 O 0.58258 0.06269 0.00403 0.0
O216 O 0.57755 0.01675 0.97568 0.0
C217 C 0.53145 0.0161 0.07498 0.0
Tb218 Tb 0.98154 0.5172 0.00075 0.0
C219 C 0.05211 0.56984 0.00034 0.0
Tb220 Tb 0.02609 0.49074 0.0015 0.0
O221 O 0.00029 0.54312 0.05838 0.0
O222 O -0.00079 0.49812 0.03837 0.0
O223 O 0.02316 0.56231 0.99052 0.0
C224 C 0.07096 0.47875 0.02143 0.0
O225 O 0.05834 0.54646 0.00868 0.0
C226 C 0.99843 0.48445 0.93652 0.0
C227 C 0.95519 0.43776 0.001 0.0
O228 O 0.06069 0.49392 0.04318 0.0
O229 O 0.05597 0.47031 0.98841 0.0
O230 O 0.00756 0.46395 0.9446 0.0
O231 O 0.00786 0.50902 0.96319 0.0
O232 O 0.98416 0.44492 0.00981 0.0
O233 O 0.9489 0.46138 0.99364 0.0
C234 C 0.93712 0.53114 0.98516 0.0
O235 O 0.95693 0.54382 0.01525 0.0
O236 O 0.9422 0.51042 0.96368 0.0
C237 C 0.00874 0.52194 0.06564 0.0
Tb238 Tb 0.46382 0.47864 0.01538 0.0
C239 C 0.492 0.43179 0.01766 0.0
Tb240 Tb 0.53443 0.51202 0.01505 0.0
O241 O 0.4545 0.45076 0.95897 0.0
O242 O 0.49505 0.49866 0.97762 0.0
O243 O 0.4682 0.43543 0.02481 0.0
C244 C 0.5887 0.52638 0.99404 0.0
O245 O 0.51886 0.45756 0.01144 0.0
C246 C 0.5169 0.51675 0.07908 0.0
C247 C 0.50638 0.55853 0.01165 0.0
O248 O 0.58559 0.53943 0.02553 0.0
O249 O 0.56143 0.50546 0.97474 0.0
O250 O 0.5435 0.53992 0.07144 0.0
O251 O 0.50321 0.49178 0.05262 0.0
O252 O 0.52912 0.55373 0.00253 0.0
O253 O 0.48014 0.5337 0.02038 0.0
C254 C 0.40901 0.46333 0.03558 0.0
O255 O 0.43568 0.48044 0.05701 0.0
O256 O 0.41311 0.45468 0.00265 0.0
C257 C 0.48116 0.47365 0.95115 0.0
Tb258 Tb 0.20812 0.37071 0.33651 0.0
C259 C 0.19796 0.29941 0.34867 0.0
Tb260 Tb 0.14184 0.31245 0.34299 0.0
O261 O 0.22267 0.38098 0.39603 0.0
O262 O 0.1764 0.36073 0.37443 0.0
O263 O 0.21459 0.32702 0.33397 0.0
C264 C 0.09078 0.26773 0.36796 0.0
O265 O 0.16973 0.29016 0.35681 0.0
C266 C 0.15523 0.31516 0.27595 0.0
C267 C 0.15139 0.38286 0.32884 0.0
O268 O 0.09138 0.2765 0.33612 0.0
O269 O 0.11904 0.2836 0.38551 0.0
O270 O 0.12699 0.30122 0.28342 0.0
O271 O 0.1735 0.32264 0.30489 0.0
O272 O 0.13471 0.35538 0.3436 0.0
O273 O 0.17993 0.3925 0.32152 0.0
C274 C 0.26038 0.41738 0.31524 0.0
O275 O 0.25881 0.40461 0.34463 0.0
O276 O 0.23239 0.40418 0.2978 0.0
C277 C 0.19448 0.36771 0.40336 0.0
Tb278 Tb 0.64672 0.83871 0.34057 0.0
C279 C 0.7173 0.88383 0.33005 0.0
Tb280 Tb 0.68681 0.80603 0.33286 0.0
O281 O 0.64526 0.83275 0.39827 0.0
O282 O 0.68342 0.8401 0.37319 0.0
O283 O 0.68881 0.87864 0.32341 0.0
C284 C 0.71988 0.77789 0.34958 0.0
O285 O 0.72223 0.86029 0.34068 0.0
C286 C 0.66279 0.81069 0.271 0.0
C287 C 0.61428 0.75928 0.33896 0.0
O288 O 0.71883 0.78864 0.31922 0.0
O289 O 0.70206 0.78259 0.37015 0.0
O290 O 0.68786 0.80913 0.27459 0.0
O291 O 0.65071 0.80511 0.29979 0.0
O292 O 0.64192 0.76191 0.33974 0.0
O293 O 0.61038 0.78545 0.33657 0.0
C294 C 0.61333 0.86803 0.33055 0.0
O295 O 0.6356 0.87838 0.35769 0.0
O296 O 0.6101 0.84146 0.30909 0.0
C297 C 0.6714 0.83338 0.40181 0.0
Tb298 Tb 0.14174 0.81695 0.35446 0.0
C299 C 0.17118 0.77129 0.35863 0.0
Tb300 Tb 0.21268 0.85073 0.35513 0.0
O301 O 0.13235 0.79118 0.29694 0.0
O302 O 0.17351 0.83777 0.31747 0.0
O303 O 0.14831 0.77596 0.36776 0.0
C304 C 0.2677 0.86751 0.33462 0.0
O305 O 0.19728 0.79623 0.34996 0.0
C306 C 0.19493 0.85407 0.41948 0.0
C307 C 0.18366 0.89682 0.35105 0.0
O308 O 0.24068 0.84627 0.31473 0.0
O309 O 0.26381 0.87929 0.36627 0.0
O310 O 0.22232 0.8763 0.41276 0.0
O311 O 0.18083 0.82997 0.39219 0.0
O312 O 0.20718 0.89273 0.34374 0.0
O313 O 0.1571 0.87159 0.35867 0.0
C314 C 0.08557 0.79943 0.37208 0.0
O315 O 0.11185 0.82617 0.38854 0.0
O316 O 0.09086 0.7827 0.34547 0.0
C317 C 0.15968 0.81352 0.29037 0.0
Tb318 Tb 0.87454 0.70494 0.67725 0.0
C319 C 0.85767 0.63103 0.68807 0.0
Tb320 Tb 0.80647 0.65179 0.68267 0.0
O321 O 0.88862 0.71215 0.73628 0.0
O322 O 0.84345 0.69768 0.71557 0.0
O323 O 0.87655 0.65828 0.67401 0.0
C324 C 0.7534 0.60881 0.70549 0.0
O325 O 0.8301 0.62482 0.69597 0.0
C326 C 0.82056 0.65406 0.61581 0.0
C327 C 0.82282 0.72538 0.67222 0.0
O328 O 0.75552 0.61985 0.67483 0.0
O329 O 0.78122 0.62162 0.7232 0.0
O330 O 0.79259 0.64325 0.62317 0.0
O331 O 0.83784 0.65887 0.6446 0.0
O332 O 0.80412 0.698 0.68605 0.0
O333 O 0.85055 0.73197 0.6644 0.0
C334 C 0.92798 0.74858 0.65576 0.0
O335 O 0.92544 0.73705 0.68612 0.0
O336 O 0.90037 0.73584 0.63751 0.0
C337 C 0.86083 0.70173 0.74397 0.0
Tb338 Tb 0.31749 0.18554 0.66892 0.0
C339 C 0.38883 0.22775 0.66547 0.0
Tb340 Tb 0.35231 0.14723 0.66679 0.0
O341 O 0.341 0.2125 0.72512 0.0
O342 O 0.3318 0.16312 0.706 0.0
O343 O 0.36191 0.22617 0.658 0.0
C344 C 0.39228 0.12714 0.68216 0.0
O345 O 0.39027 0.20074 0.67174 0.0
C346 C 0.32548 0.14519 0.60299 0.0
C347 C 0.28147 0.10586 0.67314 0.0
O348 O 0.39206 0.1527 0.70128 0.0
O349 O 0.3698 0.11265 0.65454 0.0
O350 O 0.33046 0.12135 0.61011 0.0
O351 O 0.33857 0.17013 0.6296 0.0
O352 O 0.30871 0.10835 0.68136 0.0
O353 O 0.27949 0.13191 0.66445 0.0
C354 C 0.27817 0.20645 0.65299 0.0
O355 O 0.29603 0.21563 0.68421 0.0
O356 O 0.28254 0.18562 0.63068 0.0
C357 C 0.34542 0.18826 0.73233 0.0
Tb358 Tb 0.7989 0.1413 0.67772 0.0
C359 C 0.82258 0.0898 0.67162 0.0
Tb360 Tb 0.86838 0.17003 0.67301 0.0
O361 O 0.78646 0.1176 0.61889 0.0
O362 O 0.82927 0.16206 0.6394 0.0
O363 O 0.80083 0.09568 0.68255 0.0
C364 C 0.92147 0.18308 0.64927 0.0
O365 O 0.84956 0.11452 0.66438 0.0
C366 C 0.85463 0.17305 0.73937 0.0
C367 C 0.84425 0.22117 0.6771 0.0
O368 O 0.91945 0.19761 0.68049 0.0
O369 O 0.89369 0.16121 0.6316 0.0
O370 O 0.88177 0.194 0.73115 0.0
O371 O 0.83824 0.1496 0.71194 0.0
O372 O 0.86548 0.21463 0.66557 0.0
O373 O 0.81774 0.19702 0.686 0.0
C374 C 0.74582 0.12752 0.70236 0.0
O375 O 0.74788 0.11564 0.66966 0.0
O376 O 0.77361 0.14734 0.72099 0.0
C377 C 0.81362 0.13947 0.61131 0.0
C378 C 0.33744 0.86232 0.05082 0.0
C379 C 0.32468 0.88102 0.06663 0.0
H380 H 0.37718 0.86457 0.03042 0.0
C381 C 0.34362 0.917 0.07665 0.0
H382 H 0.32337 0.83456 0.04278 0.0
C383 C 0.37448 0.93404 0.07012 0.0
C384 C 0.38676 0.91545 0.05288 0.0
H385 H 0.33448 0.93207 0.08909 0.0
H386 H 0.38839 0.96186 0.07746 0.0
C387 C 0.36817 0.87944 0.0437 0.0
C388 C 0.12282 0.44164 0.01899 0.0
C389 C 0.13506 0.44908 0.05639 0.0
H390 H 0.09282 0.44532 0.97858 0.0
C391 C 0.1276 0.46836 0.08171 0.0
H392 H 0.12814 0.42689 -0.00121 0.0
C393 C 0.10739 0.47882 0.07011 0.0
C394 C 0.09429 0.47025 0.033 0.0
H395 H 0.13669 0.47462 0.11069 0.0
H396 H 0.10142 0.49289 0.09036 0.0
C397 C 0.10257 0.45212 0.00741 0.0
C398 C 0.50195 0.63775 0.03988 0.0
C399 C 0.52621 0.66197 0.02381 0.0
H400 H 0.4764 0.5858 0.04833 0.0
C401 C 0.54143 0.65087 0.0004 0.0
H402 H 0.48967 0.64548 0.05792 0.0
C403 C 0.53402 0.61679 0.9952 0.0
C404 C 0.51097 0.59303 0.01291 0.0
H405 H 0.56015 0.66884 0.98751 0.0
H406 H 0.54705 0.60934 0.97819 0.0
C407 C 0.49428 0.60353 0.03433 0.0
C408 C 0.87567 0.35601 0.97754 0.0
C409 C 0.8814 0.33276 0.99233 0.0
H410 H 0.8945 0.40761 0.96883 0.0
C411 C 0.91073 0.34511 0.01286 0.0
H412 H 0.85326 0.3473 0.96169 0.0
C413 C 0.93442 0.37951 0.01656 0.0
C414 C 0.92917 0.40237 0.00019 0.0
H415 H 0.91592 0.32792 0.0247 0.0
H416 H 0.95708 0.38795 0.03154 0.0
C417 C 0.8993 0.39056 0.98159 0.0
C418 C 0.67488 0.56967 0.98882 0.0
C419 C 0.67448 0.5555 0.9527 0.0
H420 H 0.6478 0.57148 0.03035 0.0
C421 C 0.64574 0.53028 0.9313 0.0
H422 H 0.69665 0.58913 0.00602 0.0
C423 C 0.61793 0.52028 0.94524 0.0
C424 C 0.61831 0.53527 0.98084 0.0
H425 H 0.6446 0.51879 0.90342 0.0
H426 H 0.59608 0.50131 0.92781 0.0
C427 C 0.64697 0.55965 0.00276 0.0
C428 C 0.45176 0.086 0.97659 0.0
C429 C 0.47107 0.10978 0.95586 0.0
H430 H 0.4436 0.04496 0.00424 0.0
C431 C 0.49747 0.1094 0.94637 0.0
H432 H 0.43125 0.0856 0.98439 0.0
C433 C 0.50464 0.08607 0.95783 0.0
C434 C 0.48559 0.06266 0.9791 0.0
H435 H 0.51281 0.12738 0.93038 0.0
H436 H 0.52521 0.08654 0.95014 0.0
C437 C 0.45893 0.06273 0.98807 0.0
C438 C 0.67262 0.07101 0.95444 0.0
C439 C 0.6896 0.10714 0.96265 0.0
H440 H 0.62915 0.02458 0.95394 0.0
C441 C 0.67465 0.12438 0.97546 0.0
H442 H 0.68346 0.05704 0.94427 0.0
C443 C 0.64367 0.10576 0.98141 0.0
C444 C 0.62704 0.06966 0.97408 0.0
H445 H 0.68716 0.15221 0.98201 0.0
H446 H 0.63292 0.11958 0.99236 0.0
C447 C 0.64153 0.05244 0.95983 0.0
C448 C 0.89107 0.57514 0.99216 0.0
C449 C 0.86921 0.55848 0.95979 0.0
H450 H 0.92951 0.57924 0.02562 0.0
C451 C 0.86945 0.53213 0.9361 0.0
H452 H 0.89147 0.59548 0.01102 0.0
C453 C 0.89147 0.52305 0.94435 0.0
C454 C 0.91338 0.53992 0.97659 0.0
H455 H 0.85296 0.51887 0.91088 0.0
H456 H 0.89142 0.50296 0.92545 0.0
C457 C 0.91284 0.56583 0.00056 0.0
C458 C 0.50891 0.36045 6e-05 0.0
C459 C 0.479 0.33113 0.99692 0.0
H460 H 0.53654 0.41531 0.00929 0.0
C461 C 0.45427 0.33534 0.00568 0.0
H462 H 0.52853 0.35813 0.99378 0.0
C463 C 0.45886 0.36822 0.01459 0.0
C464 C 0.48825 0.39749 0.01485 0.0
H465 H 0.43097 0.31326 0.0038 0.0
H466 H 0.43897 0.37054 0.01938 0.0
C467 C 0.51348 0.39329 0.00885 0.0
C468 C 0.13379 0.64821 0.01742 0.0
C469 C 0.12773 0.67479 0.01667 0.0
H470 H 0.11464 0.59415 0.0129 0.0
C471 C 0.09691 0.66623 0.00638 0.0
H472 H 0.1573 0.65391 0.02511 0.0
C473 C 0.07242 0.63193 -0.00065 0.0
C474 C 0.07826 0.60551 0.00261 0.0
H475 H 0.09148 0.6861 0.00532 0.0
H476 H 0.04881 0.62634 0.99295 0.0
C477 C 0.10929 0.61391 0.01059 0.0
C478 C 0.32266 0.42771 0.03311 0.0
C479 C 0.32198 0.44375 0.06768 0.0
H480 H 0.35093 0.42166 0.99569 0.0
C481 C 0.35015 0.46575 0.09178 0.0
H482 H 0.30135 0.41067 0.01392 0.0
C483 C 0.37841 0.47166 0.08149 0.0
C484 C 0.37906 0.45607 0.04674 0.0
H485 H 0.35037 0.47836 0.11866 0.0
H486 H 0.39978 0.48879 0.10058 0.0
C487 C 0.35099 0.43401 0.02264 0.0
C488 C 0.5063 0.86302 0.06368 0.0
C489 C 0.5304 0.8596 0.05097 0.0
H490 H 0.48376 0.89178 0.06715 0.0
C491 C 0.55136 0.88436 0.03227 0.0
H492 H 0.48985 0.8445 0.07835 0.0
C493 C 0.54788 0.91162 0.02579 0.0
C494 C 0.52337 0.91464 0.0379 0.0
H495 H 0.57025 0.8825 0.02223 0.0
H496 H 0.56415 0.93001 0.01085 0.0
C497 C 0.50283 0.89022 0.05725 0.0
C498 C 0.03716 0.21421 0.4305 0.0
C499 C 0.00761 0.20053 0.4097 0.0
H500 H 0.08676 0.24638 0.43356 0.0
C501 C 0.00577 0.20971 0.3754 0.0
H502 H 0.03938 0.2077 0.45705 0.0
C503 C 0.03286 0.23151 0.36188 0.0
C504 C 0.06232 0.24475 0.38244 0.0
H505 H 0.9834 0.1996 0.35866 0.0
H506 H 0.03072 0.23791 0.33523 0.0
C507 C 0.06428 0.23624 0.41703 0.0
C508 C 0.75799 0.7425 0.40548 0.0
C509 C 0.77908 0.74146 0.38314 0.0
H510 H 0.72277 0.75483 0.41223 0.0
C511 C 0.78008 0.75187 0.34907 0.0
H512 H 0.7566 0.73467 0.43187 0.0
C513 C 0.76046 0.76328 0.33775 0.0
C514 C 0.73967 0.76455 0.36036 0.0
H515 H 0.79604 0.75131 0.33123 0.0
H516 H 0.7618 0.77143 0.31153 0.0
C517 C 0.73855 0.75399 0.39423 0.0
C518 C 0.21573 0.98715 0.3338 0.0
C519 C 0.19723 0.99697 0.35228 0.0
H520 H 0.22604 0.94783 0.31911 0.0
C521 C 0.1724 0.97251 0.36744 0.0
H522 H 0.23501 0.00534 0.32175 0.0
C523 C 0.1672 0.93945 0.36585 0.0
C524 C 0.18692 0.93036 0.34936 0.0
H525 H 0.15765 0.97925 0.38174 0.0
H526 H 0.14853 0.92154 0.37887 0.0
C527 C 0.21074 0.95424 0.33254 0.0
C528 C 0.56112 0.66389 0.33696 0.0
C529 C 0.53301 0.65792 0.31866 0.0
H530 H 0.60942 0.70101 0.3575 0.0
C531 C 0.53113 0.68583 0.31071 0.0
H532 H 0.56312 0.64265 0.34315 0.0
C533 C 0.55722 0.71901 0.31936 0.0
C534 C 0.58598 0.7249 0.33542 0.0
H535 H 0.50966 0.68185 0.29668 0.0
H536 H 0.55514 0.73976 0.31161 0.0
C537 C 0.58758 0.69717 0.34492 0.0
C538 C 0.35449 0.91379 0.33231 0.0
C539 C 0.35533 0.90125 0.29604 0.0
H540 H 0.32591 0.91284 0.37302 0.0
C541 C 0.32715 0.87633 0.27332 0.0
H542 H 0.37579 0.93298 0.35051 0.0
C543 C 0.29872 0.86488 0.28623 0.0
C544 C 0.29789 0.87809 0.3221 0.0
H545 H 0.32694 0.86607 0.24527 0.0
H546 H 0.27734 0.84614 0.26786 0.0
C547 C 0.32598 0.90232 0.34521 0.0
C548 C 0.1421 0.45461 0.30258 0.0
C549 C 0.11061 0.44228 0.3056 0.0
H550 H 0.17978 0.44552 0.30745 0.0
C551 C 0.09287 0.41055 0.31653 0.0
H552 H 0.15638 0.479 0.29421 0.0
C553 C 0.10628 0.39157 0.32439 0.0
C554 C 0.13774 0.40374 0.32128 0.0
H555 H 0.06857 0.40037 0.31924 0.0
H556 H 0.09182 0.36717 0.33265 0.0
C557 C 0.15551 0.43544 0.31019 0.0
C558 C 0.31701 0.48165 0.26292 0.0
C559 C 0.34587 0.4912 0.28283 0.0
H560 H 0.2671 0.45042 0.25745 0.0
C561 C 0.3462 0.4757 0.31287 0.0
H562 H 0.31599 0.4931 0.23958 0.0
C563 C 0.31832 0.45168 0.32323 0.0
C564 C 0.28955 0.44242 0.3036 0.0
H565 H 0.36802 0.48251 0.32882 0.0
H566 H 0.31933 0.44042 0.34675 0.0
C567 C 0.28905 0.4573 0.27312 0.0
C568 C 0.58295 0.92844 0.34194 0.0
C569 C 0.55623 0.91124 0.3149 0.0
H570 H 0.62192 0.92801 0.36832 0.0
C571 C 0.54859 0.8798 0.29321 0.0
H572 H 0.58945 0.95271 0.35909 0.0
C573 C 0.56736 0.86599 0.2982 0.0
C574 C 0.59393 0.8831 0.32528 0.0
H575 H 0.52826 0.866 0.27202 0.0
H576 H 0.56097 0.8418 0.28093 0.0
C577 C 0.60152 0.91435 0.34725 0.0
C578 C 0.18316 0.6966 0.33684 0.0
C579 C 0.15497 0.6693 0.34358 0.0
H580 H 0.2105 0.75038 0.33646 0.0
C581 C 0.13423 0.67664 0.36023 0.0
H582 H 0.19976 0.69184 0.32432 0.0
C583 C 0.14027 0.7102 0.36698 0.0
C584 C 0.16727 0.73708 0.35743 0.0
H585 H 0.11239 0.65621 0.36605 0.0
H586 H 0.12305 0.71472 0.37808 0.0
C587 C 0.18927 0.73019 0.34372 0.0
C588 C 0.80031 0.95917 0.34661 0.0
C589 C 0.79575 0.98653 0.34377 0.0
H590 H 0.77905 0.90508 0.34422 0.0
C591 C 0.76571 0.97915 0.33082 0.0
H592 H 0.82322 0.96396 0.35612 0.0
C593 C 0.74032 0.94537 0.32412 0.0
C594 C 0.74451 0.91834 0.33019 0.0
H595 H 0.76145 -0.00037 0.32795 0.0
H596 H 0.71724 0.94077 0.31611 0.0
C597 C 0.77493 0.92539 0.3399 0.0
C598 C 0.99861 0.74944 0.37332 0.0
C599 C 0.99555 0.77032 0.4019 0.0
H600 H 0.02956 0.74248 0.34133 0.0
C601 C 0.02248 0.8007 0.42085 0.0
H602 H 0.97834 0.72592 0.35813 0.0
C603 C 0.0518 0.81007 0.41125 0.0
C604 C 0.05471 0.78938 0.38241 0.0
H605 H 0.02094 0.81732 0.44304 0.0
H606 H 0.07216 0.83361 0.42629 0.0
C607 C 0.02791 0.75894 0.36361 0.0
C608 C 0.254 0.2678 0.35621 0.0
C609 C 0.23542 0.23573 0.36616 0.0
H610 H 0.25675 0.31292 0.34268 0.0
C611 C 0.20434 0.22468 0.37022 0.0
H612 H 0.27803 0.27703 0.3528 0.0
C613 C 0.19214 0.24533 0.36457 0.0
C614 C 0.21069 0.27734 0.35442 0.0
H615 H 0.18943 0.20011 0.37792 0.0
H616 H 0.16812 0.2361 0.36804 0.0
C617 C 0.24175 0.28833 0.35028 0.0
C618 C 0.66732 0.55402 0.70944 0.0
C619 C 0.66732 0.53989 0.74076 0.0
H620 H 0.69464 0.58664 0.6736 0.0
C621 C 0.69603 0.54946 0.76107 0.0
H622 H 0.64562 0.54712 0.69314 0.0
C623 C 0.72414 0.57232 0.74995 0.0
C624 C 0.72398 0.58566 0.71812 0.0
H625 H 0.69681 0.53907 0.78538 0.0
H626 H 0.74595 0.57915 0.76594 0.0
C627 C 0.69537 0.57654 0.69814 0.0
C628 C 0.4606 0.1257 0.72783 0.0
C629 C 0.45607 0.09468 0.70858 0.0
H630 H 0.44357 0.16001 0.73476 0.0
C631 C 0.431 0.07511 0.67962 0.0
H632 H 0.4796 0.14128 0.7504 0.0
C633 C 0.41051 0.08598 0.67058 0.0
C634 C 0.41456 0.1164 0.69059 0.0
H635 H 0.42692 0.05112 0.66427 0.0
H636 H 0.39117 0.07024 0.64841 0.0
C637 C 0.4399 0.13634 0.71904 0.0
C638 C 0.88026 0.31336 0.66444 0.0
C639 C 0.86405 0.32459 0.68588 0.0
H640 H 0.88685 0.27194 0.64506 0.0
C641 C 0.8396 0.30077 0.70205 0.0
H642 H 0.89921 0.33104 0.65159 0.0
C643 C 0.83243 0.26679 0.69819 0.0
C644 C 0.84978 0.25609 0.6784 0.0
H645 H 0.82661 0.30861 0.71865 0.0
H646 H 0.81406 0.24929 0.71185 0.0
C647 C 0.87332 0.27951 0.66092 0.0
C648 C 0.19731 0.03293 0.65097 0.0
C649 C 0.19892 0.00676 0.66478 0.0
H650 H 0.2222 0.08501 0.64304 0.0
C651 C 0.22703 0.01475 0.68525 0.0
H652 H 0.17593 0.02762 0.63527 0.0
C653 C 0.25362 0.04748 0.68931 0.0
C654 C 0.25252 0.07298 0.6734 0.0
H655 H 0.22905 0.99522 0.6964 0.0
H656 H 0.27528 0.05239 0.70382 0.0
C657 C 0.22384 0.06581 0.6554 0.0
C658 C 0.0071 0.22559 0.64187 0.0
C659 C 0.00612 0.21234 0.60515 0.0
H660 H 0.98088 0.22668 0.68464 0.0
C661 C 0.97707 0.18791 0.5838 0.0
H662 H 0.02911 0.24445 0.65905 0.0
C663 C 0.94954 0.17769 0.59855 0.0
C664 C 0.95057 0.19184 0.63482 0.0
H665 H 0.9755 0.17716 0.55544 0.0
H666 H 0.92743 0.15934 0.58126 0.0
C667 C 0.97954 0.2155 0.65653 0.0
C668 C 0.77282 0.76494 0.66744 0.0
C669 C 0.79107 0.7937 0.65173 0.0
H670 H 0.76851 0.72107 0.68638 0.0
C671 C 0.82028 0.80033 0.64353 0.0
H672 H 0.75024 0.75912 0.67417 0.0
C673 C 0.83086 0.77847 0.65059 0.0
C674 C 0.81246 0.74953 0.66605 0.0
H675 H 0.83494 0.82232 0.63145 0.0
H676 H 0.85334 0.78412 0.64363 0.0
C677 C 0.78337 0.74313 0.67451 0.0
C678 C 0.98634 0.80785 0.60112 0.0
C679 C 0.01479 0.81756 0.62221 0.0
H680 H 0.93638 0.77807 0.59515 0.0
C681 C 0.01431 0.80389 0.654 0.0
H682 H 0.98596 0.81788 0.57643 0.0
C683 C 0.986 0.78145 0.66481 0.0
C684 C 0.95766 0.77201 0.6439 0.0
H685 H 0.0358 0.81089 0.67087 0.0
H686 H 0.98633 0.77154 0.68962 0.0
C687 C 0.95799 0.78512 0.6118 0.0
C688 C 0.23506 0.25386 0.66091 0.0
C689 C 0.21335 0.23817 0.62835 0.0
H690 H 0.27247 0.25583 0.69434 0.0
C691 C 0.21316 0.21191 0.604 0.0
H692 H 0.23575 0.27412 0.68024 0.0
C693 C 0.23444 0.20178 0.61189 0.0
C694 C 0.25599 0.2174 0.64448 0.0
H695 H 0.1968 0.19942 0.57862 0.0
H696 H 0.2339 0.1816 0.59258 0.0
C697 C 0.25606 0.2434 0.66901 0.0
C698 C 0.83388 0.01429 0.6513 0.0
C699 C 0.80355 0.98633 0.65032 0.0
H700 H 0.86371 0.0689 0.65875 0.0
C701 C 0.78019 0.99282 0.65963 0.0
H702 H 0.85242 0.01018 0.64433 0.0
C703 C 0.78667 0.02653 0.66802 0.0
C704 C 0.8166 0.05444 0.66705 0.0
H705 H 0.75661 0.97183 0.65931 0.0
H706 H 0.76789 0.03057 0.67393 0.0
C707 C 0.84031 0.04799 0.65943 0.0
C708 C 0.4454 0.32365 0.68082 0.0
C709 C 0.47354 0.32598 0.69307 0.0
H710 H 0.39638 0.29061 0.66213 0.0
C711 C 0.47436 0.2957 0.69027 0.0
H712 H 0.44403 0.34652 0.68228 0.0
C713 C 0.44703 0.26363 0.67875 0.0
C714 C 0.41834 0.26122 0.66974 0.0
H715 H 0.49574 0.29661 0.6991 0.0
H716 H 0.44821 0.24078 0.67892 0.0
C717 C 0.41803 0.29154 0.66928 0.0
C718 C 0.68988 0.12813 0.76509 0.0
C719 C 0.66077 0.10456 0.74334 0.0
H720 H 0.73963 0.1537 0.76914 0.0
C721 C 0.65994 0.08832 0.7081 0.0
H722 H 0.69133 0.14104 0.79236 0.0
C723 C 0.68761 0.09582 0.69473 0.0
C724 C 0.71661 0.1195 0.71643 0.0
H725 H 0.63791 0.0701 0.69061 0.0
H726 H 0.6863 0.08311 0.66739 0.0
C727 C 0.71753 0.13542 0.7518 0.0
C728 C 0.85526 0.55239 0.71253 0.0
C729 C 0.88427 0.55788 0.70506 0.0
H730 H 0.82414 0.57105 0.7131 0.0
C731 C 0.9045 0.58763 0.69185 0.0
H732 H 0.83914 0.52976 0.72278 0.0
C733 C 0.89585 0.61134 0.68614 0.0
C734 C 0.86681 0.60582 0.6936 0.0
H735 H 0.92702 0.5926 0.6858 0.0
H736 H 0.912 0.63401 0.67598 0.0
C737 C 0.84665 0.57611 0.70693 0.0
C738 C 0.48795 2e-05 0.15631 0.0
C739 C 0.50656 0.99408 0.18058 0.0
H740 H 0.48169 0.01247 0.10401 0.0
C741 C 0.53405 0.99702 0.1703 0.0
H742 H 0.46671 -0.00183 0.16345 0.0
C743 C 0.54232 0.00484 0.13618 0.0
C744 C 0.52327 0.0098 0.11163 0.0
H745 H 0.54896 0.99269 0.18831 0.0
H746 H 0.56334 0.00629 0.12873 0.0
C747 C 0.4963 0.00789 0.12215 0.0
C748 C 0.03422 0.49369 0.14528 0.0
C749 C 0.0488 0.52401 0.17206 0.0
H750 H 0.01036 0.46942 0.09016 0.0
C751 C 0.05085 0.55381 0.16304 0.0
H752 H 0.03237 0.47039 0.15137 0.0
C753 C 0.03791 0.5531 0.12835 0.0
C754 C 0.02314 0.52278 0.10178 0.0
H755 H 0.06186 0.57759 0.18308 0.0
H756 H 0.03941 0.57627 0.12233 0.0
C757 C 0.0217 0.49316 0.11029 0.0
C758 C 0.47036 0.49759 0.15742 0.0
C759 C 0.47392 0.52963 0.17037 0.0
H760 H 0.48083 0.46828 0.11733 0.0
C761 C 0.49143 0.55729 0.15279 0.0
H762 H 0.45704 0.47597 0.17065 0.0
C763 C 0.506 0.55327 0.12346 0.0
C764 C 0.50241 0.52127 0.11058 0.0
H765 H 0.49477 0.58236 0.16256 0.0
H766 H 0.51973 0.57503 0.11058 0.0
C767 C 0.48403 0.49327 0.12722 0.0
C768 C 0.96693 0.45411 0.83548 0.0
C769 C 0.95968 0.47859 0.82759 0.0
H770 H 0.98438 0.43663 0.8761 0.0
C771 C 0.96521 0.50527 0.85612 0.0
H772 H 0.9628 0.43307 0.81427 0.0
C773 C 0.97793 0.50741 0.89175 0.0
C774 C 0.98486 0.48266 0.8994 0.0
H775 H 0.95986 0.5245 0.85091 0.0
H776 H 0.98237 0.52841 0.91321 0.0
C777 C 0.97921 0.45603 0.87098 0.0
C778 C 0.53503 0.49109 0.87995 0.0
C779 C 0.52659 0.45757 0.8638 0.0
H780 H 0.52702 0.52241 0.92053 0.0
C781 C 0.5023 0.42949 0.87586 0.0
H782 H 0.55357 0.51321 0.87122 0.0
C783 C 0.4869 0.43476 0.90351 0.0
C784 C 0.49577 0.46819 0.92007 0.0
H785 H 0.49499 0.40329 0.8638 0.0
H786 H 0.46855 0.41267 0.91254 0.0
C787 C 0.51982 0.49635 0.90801 0.0
C788 C 0.48479 0.00316 0.864 0.0
C789 C 0.5149 0.01306 0.85625 0.0
H790 H 0.4509 0.98041 0.89923 0.0
C791 C 0.53294 0.00399 0.87708 0.0
H792 H 0.47011 0.00948 0.84845 0.0
C793 C 0.52153 0.98673 0.90607 0.0
C794 C 0.49226 0.97888 0.91504 0.0
H795 H 0.55605 0.01084 0.87152 0.0
H796 H 0.53573 0.98002 0.92183 0.0
C797 C 0.47365 0.98633 0.89308 0.0
C798 C 0.14389 0.33209 0.47556 0.0
C799 C 0.16349 0.32776 0.50016 0.0
H800 H 0.13867 0.34876 0.4258 0.0
C801 C 0.19421 0.33918 0.49397 0.0
H802 H 0.12014 0.32374 0.47959 0.0
C803 C 0.2047 0.35341 0.46306 0.0
C804 C 0.18461 0.3563 0.43781 0.0
H805 H 0.20994 0.33638 0.51247 0.0
H806 H 0.22816 0.36106 0.45831 0.0
C807 C 0.15442 0.34635 0.44474 0.0
C808 C 0.73561 0.8451 0.47152 0.0
C809 C 0.72161 0.84001 0.50346 0.0
H810 H 0.73071 0.84717 0.41451 0.0
C811 C 0.68995 0.82984 0.50092 0.0
H812 H 0.7599 0.85284 0.47243 0.0
C813 C 0.67319 0.82664 0.46755 0.0
C814 C 0.68776 0.83337 0.43619 0.0
H815 H 0.67846 0.82577 0.52501 0.0
H816 H 0.64915 0.81988 0.46656 0.0
C817 C 0.71888 0.84184 0.43828 0.0
C818 C 0.18926 0.88594 0.51579 0.0
C819 C 0.15803 0.86234 0.51824 0.0
H820 H 0.22521 0.90229 0.48195 0.0
C821 C 0.1395 0.83478 0.48898 0.0
H822 H 0.20388 0.90753 0.53806 0.0
C823 C 0.15208 0.83107 0.45749 0.0
C824 C 0.18273 0.85591 0.45408 0.0
H825 H 0.11541 0.81622 0.49048 0.0
H826 H 0.13763 0.80917 0.43555 0.0
C827 C 0.2014 0.88304 0.48372 0.0
C828 C 0.60041 0.79863 0.1981 0.0
C829 C 0.61604 0.80515 0.16742 0.0
H830 H 0.60283 0.79455 0.25476 0.0
C831 C 0.64781 0.81572 0.17184 0.0
H832 H 0.57591 0.79028 0.19565 0.0
C833 C 0.66325 0.81842 0.20588 0.0
C834 C 0.64724 0.81065 0.23606 0.0
H835 H 0.66055 0.82095 0.14879 0.0
H836 H 0.68754 0.82585 0.20837 0.0
C837 C 0.61585 0.80123 0.23206 0.0
C838 C 0.20722 0.84027 0.21336 0.0
C839 C 0.19505 0.80856 0.18944 0.0
H840 H 0.2057 0.86658 0.26457 0.0
C841 C 0.17163 0.77845 0.19944 0.0
H842 H 0.2253 0.86385 0.20636 0.0
C843 C 0.16001 0.78013 0.23224 0.0
C844 C 0.17208 0.8118 0.25597 0.0
H845 H 0.16164 0.75365 0.18144 0.0
H846 H 0.14166 0.75664 0.23908 0.0
C847 C 0.19603 0.84183 0.24657 0.0
C848 C 0.15065 0.3317 0.17983 0.0
C849 C 0.18231 0.35025 0.17576 0.0
H850 H 0.11739 0.30641 0.21503 0.0
C851 C 0.20481 0.35421 0.20361 0.0
H852 H 0.13271 0.32814 0.15889 0.0
C853 C 0.19585 0.3411 0.23555 0.0
C854 C 0.16444 0.32476 0.24054 0.0
H855 H 0.22935 0.36808 0.2011 0.0
H856 H 0.21358 0.34464 0.25676 0.0
C857 C 0.14184 0.31929 0.21202 0.0
C858 C 0.85638 0.66568 0.83025 0.0
C859 C 0.82719 0.65887 0.83858 0.0
H860 H 0.89008 0.68513 0.79387 0.0
C861 C 0.80989 0.66806 0.81657 0.0
H862 H 0.87031 0.65905 0.84677 0.0
C863 C 0.82117 0.68281 0.78618 0.0
C864 C 0.84998 0.68882 0.77749 0.0
H865 H 0.78727 0.66306 0.82222 0.0
H866 H 0.80714 0.68897 0.76913 0.0
C867 C 0.86777 0.68075 0.8001 0.0
C868 C 0.38514 0.16546 0.80389 0.0
C869 C 0.40688 0.1981 0.82501 0.0
H870 H 0.34857 0.13676 0.7576 0.0
C871 C 0.4082 0.22727 0.81506 0.0
H872 H 0.38355 0.14253 0.81084 0.0
C873 C 0.38798 0.2239 0.78515 0.0
C874 C 0.36629 0.19138 0.76416 0.0
H875 H 0.42453 0.25282 0.83079 0.0
H876 H 0.38948 0.24683 0.77831 0.0
C877 C 0.36513 0.16216 0.77353 0.0
C878 C 0.8107 0.14981 0.82005 0.0
C879 C 0.83084 0.17857 0.84772 0.0
H880 H 0.80271 0.12519 0.76388 0.0
C881 C 0.85863 0.20521 0.8392 0.0
H882 H 0.78915 0.12885 0.82576 0.0
C883 C 0.86613 0.20324 0.80391 0.0
C884 C 0.84608 0.1746 0.77634 0.0
H885 H 0.87467 0.22779 0.85977 0.0
H886 H 0.88766 0.22426 0.79821 0.0
C887 C 0.81836 0.14778 0.78464 0.0
C888 C 0.30562 0.17685 0.52231 0.0
C889 C 0.29183 0.14704 0.4948 0.0
H890 H 0.32694 0.19961 0.57859 0.0
C891 C 0.28823 0.11659 0.50383 0.0
H892 H 0.30861 0.20066 0.51626 0.0
C893 C 0.29875 0.11607 0.53919 0.0
C894 C 0.31295 0.14589 0.56645 0.0
H895 H 0.2777 0.09311 0.48338 0.0
H896 H 0.29605 0.09233 0.54509 0.0
C897 C 0.31601 0.17623 0.55795 0.0
C898 C 0.86894 0.15872 0.54177 0.0
C899 C 0.85459 0.12692 0.51748 0.0
H900 H 0.86648 0.1879 0.58997 0.0
C901 C 0.82522 0.10018 0.5226 0.0
H902 H 0.89138 0.17989 0.53839 0.0
C903 C 0.81124 0.10462 0.5524 0.0
C904 C 0.82626 0.13591 0.57747 0.0
H905 H 0.81346 0.07534 0.50433 0.0
H906 H 0.78925 0.08319 0.5565 0.0
C907 C 0.85469 0.16328 0.57126 0.0
C908 C 0.87137 0.68361 0.54172 0.0
C909 C 0.85005 0.68087 0.51313 0.0
H910 H 0.87833 0.67567 0.59634 0.0
C911 C 0.81863 0.66681 0.51784 0.0
H912 H 0.89566 0.69408 0.53881 0.0
C913 C 0.80905 0.65736 0.55098 0.0
C914 C 0.83052 0.6613 0.57997 0.0
H915 H 0.80155 0.66432 0.49643 0.0
H916 H 0.78492 0.64777 0.55418 0.0
C917 C 0.86154 0.67339 0.57471 0.0
loop_
_geom_bond_atom_site_label_1
_geom_bond_atom_site_label_2
_geom_bond_distance
_geom_bond_site_symmetry_2
_ccdc_geom_bond_type
O0 Cd1 2.300 . S
O0 C7 1.275 . S
Cd1 O0 2.300 . S
Cd1 O9 2.381 . S
Cd1 O10 2.378 . S
O2 Cd3 2.385 . S
O2 C7 1.255 . S
Cd3 O2 2.385 . S
Cd3 O4 2.317 . S
O4 Cd3 2.317 . S
O4 C5 1.232 . S
C5 O4 1.232 . S
C5 O6 1.218 . S
O6 C5 1.218 . S
C7 O0 1.275 . S
C7 O2 1.255 . S
C8 O9 1.258 . S
C8 O10 1.256 . S
O9 Cd1 2.381 . S
O9 C8 1.258 . S
O10 Cd1 2.378 . S
O10 C8 1.256 . S
O11 Cd12 2.300 . S
O11 C18 1.275 . S
Cd12 O11 2.300 . S
Cd12 O20 2.381 . S
Cd12 O21 2.378 . S
O13 Cd14 2.385 . S
O13 C18 1.255 . S
Cd14 O13 2.385 . S
Cd14 O15 2.317 . S
O15 Cd14 2.317 . S
O15 C16 1.232 . S
C16 O15 1.232 . S
C16 O17 1.218 . S
O17 C16 1.218 . S
C18 O11 1.275 . S
C18 O13 1.255 . S
C19 O20 1.258 . S
C19 O21 1.256 . S
O20 Cd12 2.381 . S
O20 C19 1.258 . S
O21 Cd12 2.378 . S
O21 C19 1.256 . S
O22 Cd23 2.300 . S
O22 C29 1.275 . S
Cd23 O22 2.300 . S
Cd23 O31 2.381 . S
Cd23 O32 2.378 . S
O24 Cd25 2.385 . S
O24 C29 1.255 . S
Cd25 O24 2.385 . S
Cd25 O26 2.317 . S
O26 Cd25 2.317 . S
O26 C27 1.232 . S
C27 O26 1.232 . S
C27 O28 1.218 . S
O28 C27 1.218 . S
C29 O22 1.275 . S
C29 O24 1.255 . S
C30 O31 1.258 . S
C30 O32 1.256 . S
O31 Cd23 2.381 . S
O31 C30 1.258 . S
O32 Cd23 2.378 . S
O32 C30 1.256 . S
O33 Cd34 2.300 . S
O33 C40 1.275 . S
Cd34 O33 2.300 . S
Cd34 O42 2.381 . S
Cd34 O43 2.378 . S
O35 Cd36 2.385 . S
O35 C40 1.255 . S
Cd36 O35 2.385 . S
Cd36 O37 2.317 . S
O37 Cd36 2.317 . S
O37 C38 1.232 . S
C38 O37 1.232 . S
C38 O39 1.218 . S
O39 C38 1.218 . S
C40 O33 1.275 . S
C40 O35 1.255 . S
C41 O42 1.258 . S
C41 O43 1.256 . S
O42 Cd34 2.381 . S
O42 C41 1.258 . S
O43 Cd34 2.378 . S
O43 C41 1.256 . S
O44 Cd45 2.300 . S
O44 C51 1.275 . S
Cd45 O44 2.300 . S
Cd45 O53 2.381 . S
Cd45 O54 2.378 . S
O46 Cd47 2.385 . S
O46 C51 1.255 . S
Cd47 O46 2.385 . S
Cd47 O48 2.317 . S
O48 Cd47 2.317 . S
O48 C49 1.232 . S
C49 O48 1.232 . S
C49 O50 1.218 . S
O50 C49 1.218 . S
C51 O44 1.275 . S
C51 O46 1.255 . S
C52 O53 1.258 . S
C52 O54 1.256 . S
O53 Cd45 2.381 . S
O53 C52 1.258 . S
O54 Cd45 2.378 . S
O54 C52 1.256 . S
O55 Cd56 2.300 . S
O55 C62 1.275 . S
Cd56 O55 2.300 . S
Cd56 O64 2.381 . S
Cd56 O65 2.378 . S
O57 Cd58 2.385 . S
O57 C62 1.255 . S
Cd58 O57 2.385 . S
Cd58 O59 2.317 . S
O59 Cd58 2.317 . S
O59 C60 1.232 . S
C60 O59 1.232 . S
C60 O61 1.218 . S
O61 C60 1.218 . S
C62 O55 1.275 . S
C62 O57 1.255 . S
C63 O64 1.258 . S
C63 O65 1.256 . S
O64 Cd56 2.381 . S
O64 C63 1.258 . S
O65 Cd56 2.378 . S
O65 C63 1.256 . S
O66 Cd67 2.300 . S
O66 C73 1.275 . S
Cd67 O66 2.300 . S
Cd67 O75 2.381 . S
Cd67 O76 2.378 . S
O68 Cd69 2.385 . S
O68 C73 1.255 . S
Cd69 O68 2.385 . S
Cd69 O70 2.317 . S
O70 Cd69 2.317 . S
O70 C71 1.232 . S
C71 O70 1.232 . S
C71 O72 1.218 . S
O72 C71 1.218 . S
C73 O66 1.275 . S
C73 O68 1.255 . S
C74 O75 1.258 . S
C74 O76 1.256 . S
O75 Cd67 2.381 . S
O75 C74 1.258 . S
O76 Cd67 2.378 . S
O76 C74 1.256 . S
O77 Cd78 2.300 . S
O77 C84 1.275 . S
Cd78 O77 2.300 . S
Cd78 O86 2.381 . S
Cd78 O87 2.378 . S
O79 Cd80 2.385 . S
O79 C84 1.255 . S
Cd80 O79 2.385 . S
Cd80 O81 2.317 . S
O81 Cd80 2.317 . S
O81 C82 1.232 . S
C82 O81 1.232 . S
C82 O83 1.218 . S
O83 C82 1.218 . S
C84 O77 1.275 . S
C84 O79 1.255 . S
C85 O86 1.258 . S
C85 O87 1.256 . S
O86 Cd78 2.381 . S
O86 C85 1.258 . S
O87 Cd78 2.378 . S
O87 C85 1.256 . S
O88 Cd89 2.300 . S
O88 C95 1.275 . S
Cd89 O88 2.300 . S
Cd89 O97 2.381 . S
Cd89 O98 2.378 . S
O90 Cd91 2.385 . S
O90 C95 1.255 . S
Cd91 O90 2.385 . S
Cd91 O92 2.317 . S
O92 Cd91 2.317 . S
O92 C93 1.232 . S
C93 O92 1.232 . S
C93 O94 1.218 . S
O94 C93 1.218 . S
C95 O88 1.275 . S
C95 O90 1.255 . S
C96 O97 1.258 . S
C96 O98 1.256 . S
O97 Cd89 2.381 . S
O97 C96 1.258 . S
O98 Cd89 2.378 . S
O98 C96 1.256 . S
O99 Cd100 2.300 . S
O99 C106 1.275 . S
Cd100 O99 2.300 . S
Cd100 O108 2.381 . S
Cd100 O109 2.378 . S
O101 Cd102 2.385 . S
O101 C106 1.255 . S
Cd102 O101 2.385 . S
Cd102 O103 2.317 . S
O103 Cd102 2.317 . S
O103 C104 1.232 . S
C104 O103 1.232 . S
C104 O105 1.218 . S
O105 C104 1.218 . S
C106 O99 1.275 . S
C106 O101 1.255 . S
C107 O108 1.258 . S
C107 O109 1.256 . S
O108 Cd100 2.381 . S
O108 C107 1.258 . S
O109 Cd100 2.378 . S
O109 C107 1.256 . S
O110 Cd111 2.300 . S
O110 C117 1.275 . S
Cd111 O110 2.300 . S
Cd111 O119 2.381 . S
Cd111 O120 2.378 . S
O112 Cd113 2.385 . S
O112 C117 1.255 . S
Cd113 O112 2.385 . S
Cd113 O114 2.317 . S
O114 Cd113 2.317 . S
O114 C115 1.232 . S
C115 O114 1.232 . S
C115 O116 1.218 . S
O116 C115 1.218 . S
C117 O110 1.275 . S
C117 O112 1.255 . S
C118 O119 1.258 . S
C118 O120 1.256 . S
O119 Cd111 2.381 . S
O119 C118 1.258 . S
O120 Cd111 2.378 . S
O120 C118 1.256 . S
O121 Cd122 2.300 . S
O121 C128 1.275 . S
Cd122 O121 2.300 . S
Cd122 O130 2.381 . S
Cd122 O131 2.378 . S
O123 Cd124 2.385 . S
O123 C128 1.255 . S
Cd124 O123 2.385 . S
Cd124 O125 2.317 . S
O125 Cd124 2.317 . S
O125 C126 1.232 . S
C126 O125 1.232 . S
C126 O127 1.218 . S
O127 C126 1.218 . S
C128 O121 1.275 . S
C128 O123 1.255 . S
C129 O130 1.258 . S
C129 O131 1.256 . S
O130 Cd122 2.381 . S
O130 C129 1.258 . S
O131 Cd122 2.378 . S
O131 C129 1.256 . S
O132 Cd133 2.300 . S
O132 C139 1.275 . S
Cd133 O132 2.300 . S
Cd133 O141 2.381 . S
Cd133 O142 2.378 . S
O134 Cd135 2.385 . S
O134 C139 1.255 . S
Cd135 O134 2.385 . S
Cd135 O136 2.317 . S
O136 Cd135 2.317 . S
O136 C137 1.232 . S
C137 O136 1.232 . S
C137 O138 1.218 . S
O138 C137 1.218 . S
C139 O132 1.275 . S
C139 O134 1.255 . S
C140 O141 1.258 . S
C140 O142 1.256 . S
O141 Cd133 2.381 . S
O141 C140 1.258 . S
O142 Cd133 2.378 . S
O142 C140 1.256 . S
O143 Cd144 2.300 . S
O143 C150 1.275 . S
Cd144 O143 2.300 . S
Cd144 O152 2.381 . S
Cd144 O153 2.378 . S
O145 Cd146 2.385 . S
O145 C150 1.255 . S
Cd146 O145 2.385 . S
Cd146 O147 2.317 . S
O147 Cd146 2.317 . S
O147 C148 1.232 . S
C148 O147 1.232 . S
C148 O149 1.218 . S
O149 C148 1.218 . S
C150 O143 1.275 . S
C150 O145 1.255 . S
C151 O152 1.258 . S
C151 O153 1.256 . S
O152 Cd144 2.381 . S
O152 C151 1.258 . S
O153 Cd144 2.378 . S
O153 C151 1.256 . S
O154 Cd155 2.300 . S
O154 C161 1.275 . S
Cd155 O154 2.300 . S
Cd155 O163 2.381 . S
Cd155 O164 2.378 . S
O156 Cd157 2.385 . S
O156 C161 1.255 . S
Cd157 O156 2.385 . S
Cd157 O158 2.317 . S
O158 Cd157 2.317 . S
O158 C159 1.232 . S
C159 O158 1.232 . S
C159 O160 1.218 . S
O160 C159 1.218 . S
C161 O154 1.275 . S
C161 O156 1.255 . S
C162 O163 1.258 . S
C162 O164 1.256 . S
O163 Cd155 2.381 . S
O163 C162 1.258 . S
O164 Cd155 2.378 . S
O164 C162 1.256 . S
O165 Cd166 2.300 . S
O165 C172 1.275 . S
Cd166 O165 2.300 . S
Cd166 O174 2.381 . S
Cd166 O175 2.378 . S
O167 Cd168 2.385 . S
O167 C172 1.255 . S
Cd168 O167 2.385 . S
Cd168 O169 2.317 . S
O169 Cd168 2.317 . S
O169 C170 1.232 . S
C170 O169 1.232 . S
C170 O171 1.218 . S
O171 C170 1.218 . S
C172 O165 1.275 . S
C172 O167 1.255 . S
C173 O174 1.258 . S
C173 O175 1.256 . S
O174 Cd166 2.381 . S
O174 C173 1.258 . S
O175 Cd166 2.378 . S
O175 C173 1.256 . S
O176 Cd177 2.300 . S
O176 C183 1.275 . S
Cd177 O176 2.300 . S
Cd177 O185 2.381 . S
Cd177 O186 2.378 . S
O178 Cd179 2.385 . S
O178 C183 1.255 . S
Cd179 O178 2.385 . S
Cd179 O180 2.317 . S
O180 Cd179 2.317 . S
O180 C181 1.232 . S
C181 O180 1.232 . S
C181 O182 1.218 . S
O182 C181 1.218 . S
C183 O176 1.275 . S
C183 O178 1.255 . S
C184 O185 1.258 . S
C184 O186 1.256 . S
O185 Cd177 2.381 . S
O185 C184 1.258 . S
O186 Cd177 2.378 . S
O186 C184 1.256 . S
O187 Cd188 2.300 . S
O187 C194 1.275 . S
Cd188 O187 2.300 . S
Cd188 O196 2.381 . S
Cd188 O197 2.378 . S
O189 Cd190 2.385 . S
O189 C194 1.255 . S
Cd190 O189 2.385 . S
Cd190 O191 2.317 . S
O191 Cd190 2.317 . S
O191 C192 1.232 . S
C192 O191 1.232 . S
C192 O193 1.218 . S
O193 C192 1.218 . S
C194 O187 1.275 . S
C194 O189 1.255 . S
C195 O196 1.258 . S
C195 O197 1.256 . S
O196 Cd188 2.381 . S
O196 C195 1.258 . S
O197 Cd188 2.378 . S
O197 C195 1.256 . S
Tb198 O201 2.453 . S
Tb198 O202 2.596 1_545 S
Tb198 O203 2.374 1_545 S
Tb198 O211 2.343 1_554 S
Tb198 O213 2.353 . S
Tb198 O215 2.427 . S
Tb198 O216 2.513 1_554 S
C199 O203 1.251 . S
C199 O205 1.263 1_554 S
Tb200 O202 2.343 1_556 S
Tb200 O205 2.353 . S
Tb200 O208 2.427 1_556 S
Tb200 O209 2.513 1_556 S
Tb200 O210 2.453 . S
Tb200 O211 2.596 1_565 S
Tb200 O212 2.374 1_565 S
O201 Tb198 2.453 . S
O201 C217 1.245 1_545 S
O202 Tb198 2.596 1_565 S
O202 Tb200 2.343 1_554 S
O202 C217 1.259 . S
O203 Tb198 2.374 1_565 S
O203 C199 1.251 . S
C204 O208 1.275 . S
C204 O209 1.246 . S
O205 C199 1.263 1_556 S
O205 Tb200 2.353 . S
C206 O210 1.245 1_545 S
C206 O211 1.259 . S
C207 O212 1.250 1_554 S
C207 O213 1.263 . S
O208 Tb200 2.427 1_554 S
O208 C204 1.275 . S
O209 Tb200 2.513 1_554 S
O209 C204 1.246 . S
O210 Tb200 2.453 . S
O210 C206 1.245 1_565 S
O211 Tb198 2.343 1_556 S
O211 Tb200 2.596 1_545 S
O211 C206 1.259 . S
O212 Tb200 2.374 1_545 S
O212 C207 1.250 1_556 S
O213 Tb198 2.353 . S
O213 C207 1.263 . S
C214 O215 1.275 1_556 S
C214 O216 1.246 . S
O215 Tb198 2.427 . S
O215 C214 1.275 1_554 S
O216 Tb198 2.513 1_556 S
O216 C214 1.246 . S
C217 O201 1.245 1_565 S
C217 O202 1.259 . S
Tb218 O221 2.435 1_655 S
Tb218 O222 2.596 1_655 S
Tb218 O223 2.374 1_655 S
Tb218 O231 2.343 1_554 S
Tb218 O233 2.353 . S
Tb218 O235 2.427 . S
Tb218 O236 2.513 . S
C219 O223 1.251 . S
C219 O225 1.263 . S
Tb220 O222 2.343 1_556 S
Tb220 O225 2.353 1_556 S
Tb220 O228 2.427 1_556 S
Tb220 O229 2.513 1_556 S
Tb220 O230 2.453 . S
Tb220 O231 2.596 1_455 S
Tb220 O232 2.374 1_455 S
O221 Tb218 2.435 1_455 S
O221 C237 1.283 . S
O222 Tb218 2.596 1_455 S
O222 Tb220 2.343 1_554 S
O222 C237 1.259 . S
O223 Tb218 2.374 1_455 S
O223 C219 1.251 . S
C224 O228 1.275 . S
C224 O229 1.246 . S
O225 C219 1.263 . S
O225 Tb220 2.353 1_554 S
C226 O230 1.245 1_655 S
C226 O231 1.259 . S
C227 O232 1.250 1_554 S
C227 O233 1.263 . S
O228 Tb220 2.427 1_554 S
O228 C224 1.275 . S
O229 Tb220 2.513 1_554 S
O229 C224 1.246 . S
O230 Tb220 2.453 . S
O230 C226 1.245 1_455 S
O231 Tb218 2.343 1_556 S
O231 Tb220 2.596 1_655 S
O231 C226 1.259 . S
O232 Tb220 2.374 1_655 S
O232 C227 1.250 1_556 S
O233 Tb218 2.353 . S
O233 C227 1.263 . S
C234 O235 1.275 1_556 S
C234 O236 1.246 1_556 S
O235 Tb218 2.427 . S
O235 C234 1.275 1_554 S
O236 Tb218 2.513 . S
O236 C234 1.246 1_554 S
C237 O221 1.283 . S
C237 O222 1.259 . S
Tb238 O241 2.453 . S
Tb238 O242 2.596 . S
Tb238 O243 2.374 . S
Tb238 O251 2.343 1_556 S
Tb238 O253 2.353 . S
Tb238 O255 2.427 1_556 S
Tb238 O256 2.513 1_556 S
C239 O243 1.251 . S
C239 O245 1.263 1_556 S
Tb240 O242 2.343 1_554 S
Tb240 O245 2.353 . S
Tb240 O248 2.427 1_554 S
Tb240 O249 2.513 1_554 S
Tb240 O250 2.453 . S
Tb240 O251 2.596 . S
Tb240 O252 2.374 . S
O241 Tb238 2.453 . S
O241 C257 1.245 . S
O242 Tb238 2.596 . S
O242 Tb240 2.343 1_556 S
O242 C257 1.259 . S
O243 Tb238 2.374 . S
O243 C239 1.251 . S
C244 O248 1.275 . S
C244 O249 1.246 . S
O245 C239 1.263 1_554 S
O245 Tb240 2.353 . S
C246 O250 1.245 . S
C246 O251 1.259 . S
C247 O252 1.250 . S
C247 O253 1.263 1_554 S
O248 Tb240 2.427 1_556 S
O248 C244 1.275 . S
O249 Tb240 2.513 1_556 S
O249 C244 1.246 . S
O250 Tb240 2.453 . S
O250 C246 1.245 . S
O251 Tb238 2.343 1_554 S
O251 Tb240 2.596 . S
O251 C246 1.259 . S
O252 Tb240 2.374 . S
O252 C247 1.250 . S
O253 Tb238 2.353 . S
O253 C247 1.263 1_556 S
C254 O255 1.275 . S
C254 O256 1.246 . S
O255 Tb238 2.427 1_554 S
O255 C254 1.275 . S
O256 Tb238 2.513 1_554 S
O256 C254 1.246 . S
C257 O241 1.245 . S
C257 O242 1.259 . S
Tb258 O261 2.453 . S
Tb258 O262 2.596 . S
Tb258 O263 2.374 . S
Tb258 O271 2.343 . S
Tb258 O273 2.353 . S
Tb258 O275 2.427 . S
Tb258 O276 2.513 . S
C259 O263 1.251 . S
C259 O265 1.263 . S
Tb260 O262 2.343 . S
Tb260 O265 2.353 . S
Tb260 O268 2.427 . S
Tb260 O269 2.513 . S
Tb260 O270 2.453 . S
Tb260 O271 2.596 . S
Tb260 O272 2.374 . S
O261 Tb258 2.453 . S
O261 C277 1.245 . S
O262 Tb258 2.596 . S
O262 Tb260 2.343 . S
O262 C277 1.259 . S
O263 Tb258 2.374 . S
O263 C259 1.251 . S
C264 O268 1.275 . S
C264 O269 1.246 . S
O265 C259 1.263 . S
O265 Tb260 2.353 . S
C266 O270 1.245 . S
C266 O271 1.259 . S
C267 O272 1.250 . S
C267 O273 1.263 . S
O268 Tb260 2.427 . S
O268 C264 1.275 . S
O269 Tb260 2.513 . S
O269 C264 1.246 . S
O270 Tb260 2.453 . S
O270 C266 1.245 . S
O271 Tb258 2.343 . S
O271 Tb260 2.596 . S
O271 C266 1.259 . S
O272 Tb260 2.374 . S
O272 C267 1.250 . S
O273 Tb258 2.353 . S
O273 C267 1.263 . S
C274 O275 1.275 . S
C274 O276 1.246 . S
O275 Tb258 2.427 . S
O275 C274 1.275 . S
O276 Tb258 2.513 . S
O276 C274 1.246 . S
C277 O261 1.245 . S
C277 O262 1.259 . S
Tb278 O281 2.453 . S
Tb278 O282 2.596 . S
Tb278 O283 2.374 . S
Tb278 O291 2.343 . S
Tb278 O293 2.353 . S
Tb278 O295 2.427 . S
Tb278 O296 2.513 . S
C279 O283 1.251 . S
C279 O285 1.263 . S
Tb280 O282 2.343 . S
Tb280 O285 2.353 . S
Tb280 O288 2.427 . S
Tb280 O289 2.513 . S
Tb280 O290 2.453 . S
Tb280 O291 2.596 . S
Tb280 O292 2.374 . S
O281 Tb278 2.453 . S
O281 C297 1.245 . S
O282 Tb278 2.596 . S
O282 Tb280 2.343 . S
O282 C297 1.259 . S
O283 Tb278 2.374 . S
O283 C279 1.251 . S
C284 O288 1.275 . S
C284 O289 1.246 . S
O285 C279 1.263 . S
O285 Tb280 2.353 . S
C286 O290 1.245 . S
C286 O291 1.259 . S
C287 O292 1.250 . S
C287 O293 1.263 . S
O288 Tb280 2.427 . S
O288 C284 1.275 . S
O289 Tb280 2.513 . S
O289 C284 1.246 . S
O290 Tb280 2.453 . S
O290 C286 1.245 . S
O291 Tb278 2.343 . S
O291 Tb280 2.596 . S
O291 C286 1.259 . S
O292 Tb280 2.374 . S
O292 C287 1.250 . S
O293 Tb278 2.353 . S
O293 C287 1.263 . S
C294 O295 1.275 . S
C294 O296 1.246 . S
O295 Tb278 2.427 . S
O295 C294 1.275 . S
O296 Tb278 2.513 . S
O296 C294 1.246 . S
C297 O281 1.245 . S
C297 O282 1.259 . S
Tb298 O301 2.453 . S
Tb298 O302 2.596 . S
Tb298 O303 2.374 . S
Tb298 O311 2.343 . S
Tb298 O313 2.353 . S
Tb298 O315 2.427 . S
Tb298 O316 2.513 . S
C299 O303 1.251 . S
C299 O305 1.263 . S
Tb300 O302 2.343 . S
Tb300 O305 2.353 . S
Tb300 O308 2.427 . S
Tb300 O309 2.513 . S
Tb300 O310 2.453 . S
Tb300 O311 2.596 . S
Tb300 O312 2.374 . S
O301 Tb298 2.453 . S
O301 C317 1.245 . S
O302 Tb298 2.596 . S
O302 Tb300 2.343 . S
O302 C317 1.259 . S
O303 Tb298 2.374 . S
O303 C299 1.251 . S
C304 O308 1.275 . S
C304 O309 1.246 . S
O305 C299 1.263 . S
O305 Tb300 2.353 . S
C306 O310 1.245 . S
C306 O311 1.259 . S
C307 O312 1.250 . S
C307 O313 1.263 . S
O308 Tb300 2.427 . S
O308 C304 1.275 . S
O309 Tb300 2.513 . S
O309 C304 1.246 . S
O310 Tb300 2.453 . S
O310 C306 1.245 . S
O311 Tb298 2.343 . S
O311 Tb300 2.596 . S
O311 C306 1.259 . S
O312 Tb300 2.374 . S
O312 C307 1.250 . S
O313 Tb298 2.353 . S
O313 C307 1.263 . S
C314 O315 1.275 . S
C314 O316 1.246 . S
O315 Tb298 2.427 . S
O315 C314 1.275 . S
O316 Tb298 2.513 . S
O316 C314 1.246 . S
C317 O301 1.245 . S
C317 O302 1.259 . S
Tb318 O321 2.453 . S
Tb318 O322 2.596 . S
Tb318 O323 2.374 . S
Tb318 O331 2.343 . S
Tb318 O333 2.353 . S
Tb318 O335 2.427 . S
Tb318 O336 2.513 . S
C319 O323 1.251 . S
C319 O325 1.263 . S
Tb320 O322 2.343 . S
Tb320 O325 2.353 . S
Tb320 O328 2.427 . S
Tb320 O329 2.513 . S
Tb320 O330 2.453 . S
Tb320 O331 2.596 . S
Tb320 O332 2.374 . S
O321 Tb318 2.453 . S
O321 C337 1.245 . S
O322 Tb318 2.596 . S
O322 Tb320 2.343 . S
O322 C337 1.259 . S
O323 Tb318 2.374 . S
O323 C319 1.251 . S
C324 O328 1.275 . S
C324 O329 1.246 . S
O325 C319 1.263 . S
O325 Tb320 2.353 . S
C326 O330 1.245 . S
C326 O331 1.259 . S
C327 O332 1.250 . S
C327 O333 1.263 . S
O328 Tb320 2.427 . S
O328 C324 1.275 . S
O329 Tb320 2.513 . S
O329 C324 1.246 . S
O330 Tb320 2.453 . S
O330 C326 1.245 . S
O331 Tb318 2.343 . S
O331 Tb320 2.596 . S
O331 C326 1.259 . S
O332 Tb320 2.374 . S
O332 C327 1.250 . S
O333 Tb318 2.353 . S
O333 C327 1.263 . S
C334 O335 1.275 . S
C334 O336 1.246 . S
O335 Tb318 2.427 . S
O335 C334 1.275 . S
O336 Tb318 2.513 . S
O336 C334 1.246 . S
C337 O321 1.245 . S
C337 O322 1.259 . S
Tb338 O341 2.453 . S
Tb338 O342 2.596 . S
Tb338 O343 2.374 . S
Tb338 O351 2.343 . S
Tb338 O353 2.353 . S
Tb338 O355 2.427 . S
Tb338 O356 2.513 . S
C339 O343 1.251 . S
C339 O345 1.263 . S
Tb340 O342 2.343 . S
Tb340 O345 2.353 . S
Tb340 O348 2.427 . S
Tb340 O349 2.513 . S
Tb340 O350 2.453 . S
Tb340 O351 2.596 . S
Tb340 O352 2.374 . S
O341 Tb338 2.453 . S
O341 C357 1.245 . S
O342 Tb338 2.596 . S
O342 Tb340 2.343 . S
O342 C357 1.259 . S
O343 Tb338 2.374 . S
O343 C339 1.251 . S
C344 O348 1.275 . S
C344 O349 1.246 . S
O345 C339 1.263 . S
O345 Tb340 2.353 . S
C346 O350 1.245 . S
C346 O351 1.259 . S
C347 O352 1.250 . S
C347 O353 1.263 . S
O348 Tb340 2.427 . S
O348 C344 1.275 . S
O349 Tb340 2.513 . S
O349 C344 1.246 . S
O350 Tb340 2.453 . S
O350 C346 1.245 . S
O351 Tb338 2.343 . S
O351 Tb340 2.596 . S
O351 C346 1.259 . S
O352 Tb340 2.374 . S
O352 C347 1.250 . S
O353 Tb338 2.353 . S
O353 C347 1.263 . S
C354 O355 1.275 . S
C354 O356 1.246 . S
O355 Tb338 2.427 . S
O355 C354 1.275 . S
O356 Tb338 2.513 . S
O356 C354 1.246 . S
C357 O341 1.245 . S
C357 O342 1.259 . S
Tb358 O361 2.453 . S
Tb358 O362 2.596 . S
Tb358 O363 2.374 . S
Tb358 O371 2.343 . S
Tb358 O373 2.353 . S
Tb358 O375 2.427 . S
Tb358 O376 2.513 . S
C359 O363 1.251 . S
C359 O365 1.263 . S
Tb360 O362 2.343 . S
Tb360 O365 2.353 . S
Tb360 O368 2.427 . S
Tb360 O369 2.513 . S
Tb360 O370 2.453 . S
Tb360 O371 2.596 . S
Tb360 O372 2.374 . S
O361 Tb358 2.453 . S
O361 C377 1.245 . S
O362 Tb358 2.596 . S
O362 Tb360 2.343 . S
O362 C377 1.259 . S
O363 Tb358 2.374 . S
O363 C359 1.251 . S
C364 O368 1.275 . S
C364 O369 1.246 . S
O365 C359 1.263 . S
O365 Tb360 2.353 . S
C366 O370 1.245 . S
C366 O371 1.259 . S
C367 O372 1.250 . S
C367 O373 1.263 . S
O368 Tb360 2.427 . S
O368 C364 1.275 . S
O369 Tb360 2.513 . S
O369 C364 1.246 . S
O370 Tb360 2.453 . S
O370 C366 1.245 . S
O371 Tb358 2.343 . S
O371 Tb360 2.596 . S
O371 C366 1.259 . S
O372 Tb360 2.374 . S
O372 C367 1.250 . S
O373 Tb358 2.353 . S
O373 C367 1.263 . S
C374 O375 1.275 . S
C374 O376 1.246 . S
O375 Tb358 2.427 . S
O375 C374 1.275 . S
O376 Tb358 2.513 . S
O376 C374 1.246 . S
C377 O361 1.245 . S
C377 O362 1.259 . S
C378 C379 1.387 . S
C378 H382 0.950 . S
C378 C387 1.390 . S
C379 C378 1.387 . S
C379 C381 1.387 . S
H380 C387 0.950 . S
C381 C379 1.387 . S
C381 C383 1.390 . S
C381 H385 0.950 . S
H382 C378 0.950 . S
C383 C381 1.390 . S
C383 C384 1.387 . S
C383 H386 0.950 . S
C384 C383 1.387 . S
C384 C387 1.387 . S
H385 C381 0.950 . S
H386 C383 0.950 . S
C387 C378 1.390 . S
C387 H380 0.950 . S
C387 C384 1.387 . S
C388 C389 1.387 . S
C388 H392 0.950 . S
C388 C397 1.390 . S
C389 C388 1.387 . S
C389 C391 1.387 . S
H390 C397 0.950 . S
C391 C389 1.387 . S
C391 C393 1.390 . S
C391 H395 0.950 . S
H392 C388 0.950 . S
C393 C391 1.390 . S
C393 C394 1.387 . S
C393 H396 0.950 . S
C394 C393 1.387 . S
C394 C397 1.387 . S
H395 C391 0.950 . S
H396 C393 0.950 . S
C397 C388 1.390 . S
C397 H390 0.950 . S
C397 C394 1.387 . S
C398 C399 1.387 . S
C398 H402 0.950 . S
C398 C407 1.390 . S
C399 C398 1.387 . S
C399 C401 1.390 1_554 S
H400 C407 0.950 . S
C401 C399 1.390 1_556 S
C401 C403 1.390 . S
C401 H405 0.947 . S
H402 C398 0.950 . S
C403 C401 1.390 . S
C403 C404 1.387 1_556 S
C403 H406 0.950 . S
C404 C403 1.387 1_554 S
C404 C407 1.387 . S
H405 C401 0.947 . S
H406 C403 0.950 . S
C407 C398 1.390 . S
C407 H400 0.950 . S
C407 C404 1.387 . S
C408 C409 1.387 . S
C408 H412 0.950 . S
C408 C417 1.390 . S
C409 C408 1.387 . S
C409 C411 1.387 1_556 S
H410 C417 0.950 . S
C411 C409 1.387 1_554 S
C411 C413 1.390 . S
C411 H415 0.950 . S
H412 C408 0.950 . S
C413 C411 1.390 . S
C413 C414 1.387 1_554 S
C413 H416 0.950 . S
C414 C413 1.387 1_556 S
C414 C417 1.387 . S
H415 C411 0.950 . S
H416 C413 0.950 . S
C417 C408 1.390 . S
C417 H410 0.950 . S
C417 C414 1.387 . S
C418 C419 1.387 . S
C418 H422 0.950 1_556 S
C418 C427 1.390 . S
C419 C418 1.387 . S
C419 C421 1.387 . S
H420 C427 0.950 1_554 S
C421 C419 1.387 . S
C421 C423 1.390 . S
C421 H425 0.950 . S
H422 C418 0.950 1_554 S
C423 C421 1.390 . S
C423 C424 1.387 . S
C423 H426 0.950 . S
C424 C423 1.387 . S
C424 C427 1.387 . S
H425 C421 0.950 . S
H426 C423 0.950 . S
C427 C418 1.390 . S
C427 H420 0.950 1_556 S
C427 C424 1.387 . S
C428 C429 1.387 1_554 S
C428 H432 0.950 . S
C428 C437 1.390 . S
C429 C428 1.387 1_556 S
C429 C431 1.387 . S
H430 C437 0.950 . S
C431 C429 1.387 . S
C431 C433 1.390 . S
C431 H435 0.950 . S
H432 C428 0.950 . S
C433 C431 1.390 . S
C433 C434 1.412 . S
C433 H436 0.950 . S
C434 C433 1.412 . S
C434 C437 1.367 1_556 S
H435 C431 0.950 . S
H436 C433 0.950 . S
C437 C428 1.390 . S
C437 H430 0.950 . S
C437 C434 1.367 1_554 S
C438 C439 1.387 . S
C438 H442 0.950 . S
C438 C447 1.390 . S
C439 C438 1.387 . S
C439 C441 1.387 . S
H440 C447 0.950 . S
C441 C439 1.387 . S
C441 C443 1.387 1_556 S
C441 H445 0.950 1_556 S
H442 C438 0.950 . S
C443 C441 1.387 1_554 S
C443 C444 1.384 1_554 S
C443 H446 0.957 . S
C444 C443 1.384 1_556 S
C444 C447 1.387 . S
H445 C441 0.950 1_554 S
H446 C443 0.957 . S
C447 C438 1.390 . S
C447 H440 0.950 . S
C447 C444 1.387 . S
C448 C449 1.387 1_554 S
C448 H452 0.950 . S
C448 C457 1.390 . S
C449 C448 1.387 1_556 S
C449 C451 1.387 . S
H450 C457 0.950 . S
C451 C449 1.387 . S
C451 C453 1.390 . S
C451 H455 0.950 . S
H452 C448 0.950 . S
C453 C451 1.390 . S
C453 C454 1.387 . S
C453 H456 0.950 . S
C454 C453 1.387 . S
C454 C457 1.387 1_556 S
H455 C451 0.950 . S
H456 C453 0.950 . S
C457 C448 1.390 . S
C457 H450 0.950 . S
C457 C454 1.387 1_554 S
C458 C459 1.387 1_554 S
C458 H462 0.950 . S
C458 C467 1.390 . S
C459 C458 1.387 1_556 S
C459 C461 1.387 . S
H460 C467 0.950 . S
C461 C459 1.387 . S
C461 C463 1.390 . S
C461 H465 0.950 . S
H462 C458 0.950 . S
C463 C461 1.390 . S
C463 C464 1.387 . S
C463 H466 0.950 . S
C464 C463 1.387 . S
C464 C467 1.387 1_556 S
H465 C461 0.950 . S
H466 C463 0.950 . S
C467 C458 1.390 . S
C467 H460 0.950 . S
C467 C464 1.387 1_554 S
C468 C469 1.387 . S
C468 H472 0.950 1_554 S
C468 C477 1.390 . S
C469 C468 1.387 . S
C469 C471 1.387 . S
H470 C477 0.950 1_556 S
C471 C469 1.387 . S
C471 C473 1.390 . S
C471 H475 0.950 . S
H472 C468 0.950 1_556 S
C473 C471 1.390 . S
C473 C474 1.387 . S
C473 H476 0.950 . S
C474 C473 1.387 . S
C474 C477 1.387 . S
H475 C471 0.950 . S
H476 C473 0.950 . S
C477 C468 1.390 . S
C477 H470 0.950 1_554 S
C477 C474 1.387 . S
C478 C479 1.387 . S
C478 H482 0.950 . S
C478 C487 1.390 . S
C479 C478 1.387 . S
C479 C481 1.387 . S
H480 C487 0.950 . S
C481 C479 1.387 . S
C481 C483 1.390 . S
C481 H485 0.950 . S
H482 C478 0.950 . S
C483 C481 1.390 . S
C483 C484 1.387 . S
C483 H486 0.950 . S
C484 C483 1.387 . S
C484 C487 1.387 . S
H485 C481 0.950 . S
H486 C483 0.950 . S
C487 C478 1.390 . S
C487 H480 0.950 . S
C487 C484 1.387 . S
C488 C489 1.387 . S
C488 H492 0.950 . S
C488 C497 1.390 . S
C489 C488 1.387 . S
C489 C491 1.387 1_554 S
H490 C497 0.950 . S
C491 C489 1.387 1_556 S
C491 C493 1.390 . S
C491 H495 0.950 . S
H492 C488 0.950 . S
C493 C491 1.390 . S
C493 C494 1.387 1_556 S
C493 H496 0.950 . S
C494 C493 1.387 1_554 S
C494 C497 1.387 . S
H495 C491 0.950 . S
H496 C493 0.950 . S
C497 C488 1.390 . S
C497 H490 0.950 . S
C497 C494 1.387 . S
C498 C499 1.387 1_455 S
C498 H502 0.950 . S
C498 C507 1.390 . S
C499 C498 1.387 1_655 S
C499 C501 1.387 . S
H500 C507 0.950 . S
C501 C499 1.387 . S
C501 C503 1.390 1_655 S
C501 H505 0.950 . S
H502 C498 0.950 . S
C503 C501 1.390 1_455 S
C503 C504 1.387 . S
C503 H506 0.950 . S
C504 C503 1.387 . S
C504 C507 1.387 . S
H505 C501 0.950 . S
H506 C503 0.950 . S
C507 C498 1.390 . S
C507 H500 0.950 . S
C507 C504 1.387 . S
C508 C509 1.387 . S
C508 H512 0.950 . S
C508 C517 1.390 . S
C509 C508 1.387 . S
C509 C511 1.387 . S
H510 C517 0.950 . S
C511 C509 1.387 . S
C511 C513 1.390 . S
C511 H515 0.950 . S
H512 C508 0.950 . S
C513 C511 1.390 . S
C513 C514 1.387 . S
C513 H516 0.950 . S
C514 C513 1.387 . S
C514 C517 1.387 . S
H515 C511 0.950 . S
H516 C513 0.950 . S
C517 C508 1.390 . S
C517 H510 0.950 . S
C517 C514 1.387 . S
C518 C519 1.387 1_565 S
C518 H522 0.950 1_565 S
C518 C527 1.390 . S
C519 C518 1.387 1_545 S
C519 C521 1.387 1_545 S
H520 C527 0.950 . S
C521 C519 1.387 1_565 S
C521 C523 1.390 . S
C521 H525 0.950 1_565 S
H522 C518 0.950 1_545 S
C523 C521 1.390 . S
C523 C524 1.387 . S
C523 H526 0.950 . S
C524 C523 1.387 . S
C524 C527 1.387 . S
H525 C521 0.950 1_545 S
H526 C523 0.950 . S
C527 C518 1.390 . S
C527 H520 0.950 . S
C527 C524 1.387 . S
C528 C529 1.387 . S
C528 H532 0.950 . S
C528 C537 1.390 . S
C529 C528 1.387 . S
C529 C531 1.387 . S
H530 C537 0.950 . S
C531 C529 1.387 . S
C531 C533 1.390 . S
C531 H535 0.950 . S
H532 C528 0.950 . S
C533 C531 1.390 . S
C533 C534 1.387 . S
C533 H536 0.950 . S
C534 C533 1.387 . S
C534 C537 1.387 . S
H535 C531 0.950 . S
H536 C533 0.950 . S
C537 C528 1.390 . S
C537 H530 0.950 . S
C537 C534 1.387 . S
C538 C539 1.387 . S
C538 H542 0.950 . S
C538 C547 1.390 . S
C539 C538 1.387 . S
C539 C541 1.387 . S
H540 C547 0.950 . S
C541 C539 1.387 . S
C541 C543 1.390 . S
C541 H545 0.950 . S
H542 C538 0.950 . S
C543 C541 1.390 . S
C543 C544 1.387 . S
C543 H546 0.950 . S
C544 C543 1.387 . S
C544 C547 1.387 . S
H545 C541 0.950 . S
H546 C543 0.950 . S
C547 C538 1.390 . S
C547 H540 0.950 . S
C547 C544 1.387 . S
C548 C549 1.387 . S
C548 H552 0.950 . S
C548 C557 1.390 . S
C549 C548 1.387 . S
C549 C551 1.387 . S
H550 C557 0.950 . S
C551 C549 1.387 . S
C551 C553 1.390 . S
C551 H555 0.950 . S
H552 C548 0.950 . S
C553 C551 1.390 . S
C553 C554 1.387 . S
C553 H556 0.950 . S
C554 C553 1.387 . S
C554 C557 1.387 . S
H555 C551 0.950 . S
H556 C553 0.950 . S
C557 C548 1.390 . S
C557 H550 0.950 . S
C557 C554 1.387 . S
C558 C559 1.387 . S
C558 H562 0.950 . S
C558 C567 1.390 . S
C559 C558 1.387 . S
C559 C561 1.387 . S
H560 C567 0.950 . S
C561 C559 1.387 . S
C561 C563 1.390 . S
C561 H565 0.950 . S
H562 C558 0.950 . S
C563 C561 1.390 . S
C563 C564 1.387 . S
C563 H566 0.950 . S
C564 C563 1.387 . S
C564 C567 1.387 . S
H565 C561 0.950 . S
H566 C563 0.950 . S
C567 C558 1.390 . S
C567 H560 0.950 . S
C567 C564 1.387 . S
C568 C569 1.387 . S
C568 H572 0.950 . S
C568 C577 1.390 . S
C569 C568 1.387 . S
C569 C571 1.387 . S
H570 C577 0.950 . S
C571 C569 1.387 . S
C571 C573 1.390 . S
C571 H575 0.950 . S
H572 C568 0.950 . S
C573 C571 1.390 . S
C573 C574 1.387 . S
C573 H576 0.950 . S
C574 C573 1.387 . S
C574 C577 1.387 . S
H575 C571 0.950 . S
H576 C573 0.950 . S
C577 C568 1.390 . S
C577 H570 0.950 . S
C577 C574 1.387 . S
C578 C579 1.387 . S
C578 H582 0.950 . S
C578 C587 1.390 . S
C579 C578 1.387 . S
C579 C581 1.387 . S
H580 C587 0.950 . S
C581 C579 1.387 . S
C581 C583 1.390 . S
C581 H585 0.950 . S
H582 C578 0.950 . S
C583 C581 1.390 . S
C583 C584 1.387 . S
C583 H586 0.950 . S
C584 C583 1.387 . S
C584 C587 1.387 . S
H585 C581 0.950 . S
H586 C583 0.950 . S
C587 C578 1.390 . S
C587 H580 0.950 . S
C587 C584 1.387 . S
C588 C589 1.387 1_565 S
C588 H592 0.950 . S
C588 C597 1.390 . S
C589 C588 1.387 1_545 S
C589 C591 1.387 1_545 S
H590 C597 0.950 . S
C591 C589 1.387 1_565 S
C591 C593 1.390 . S
C591 H595 0.950 1_565 S
H592 C588 0.950 . S
C593 C591 1.390 . S
C593 C594 1.387 . S
C593 H596 0.950 . S
C594 C593 1.387 . S
C594 C597 1.387 . S
H595 C591 0.950 1_545 S
H596 C593 0.950 . S
C597 C588 1.390 . S
C597 H590 0.950 . S
C597 C594 1.387 . S
C598 C599 1.387 1_455 S
C598 H602 0.950 1_455 S
C598 C607 1.390 . S
C599 C598 1.387 1_655 S
C599 C601 1.387 1_655 S
H600 C607 0.950 . S
C601 C599 1.387 1_455 S
C601 C603 1.390 . S
C601 H605 0.950 . S
H602 C598 0.950 1_655 S
C603 C601 1.390 . S
C603 C604 1.387 . S
C603 H606 0.950 . S
C604 C603 1.387 . S
C604 C607 1.387 . S
H605 C601 0.950 . S
H606 C603 0.950 . S
C607 C598 1.390 . S
C607 H600 0.950 . S
C607 C604 1.387 . S
C608 C609 1.387 . S
C608 H612 0.950 . S
C608 C617 1.390 . S
C609 C608 1.387 . S
C609 C611 1.387 . S
H610 C617 0.950 . S
C611 C609 1.387 . S
C611 C613 1.390 . S
C611 H615 0.950 . S
H612 C608 0.950 . S
C613 C611 1.390 . S
C613 C614 1.387 . S
C613 H616 0.950 . S
C614 C613 1.387 . S
C614 C617 1.387 . S
H615 C611 0.950 . S
H616 C613 0.950 . S
C617 C608 1.390 . S
C617 H610 0.950 . S
C617 C614 1.387 . S
C618 C619 1.387 . S
C618 H622 0.950 . S
C618 C627 1.390 . S
C619 C618 1.387 . S
C619 C621 1.387 . S
H620 C627 0.950 . S
C621 C619 1.387 . S
C621 C623 1.390 . S
C621 H625 0.950 . S
H622 C618 0.950 . S
C623 C621 1.390 . S
C623 C624 1.387 . S
C623 H626 0.950 . S
C624 C623 1.387 . S
C624 C627 1.387 . S
H625 C621 0.950 . S
H626 C623 0.950 . S
C627 C618 1.390 . S
C627 H620 0.950 . S
C627 C624 1.387 . S
C628 C629 1.387 . S
C628 H632 0.950 . S
C628 C637 1.390 . S
C629 C628 1.387 . S
C629 C631 1.387 . S
H630 C637 0.950 . S
C631 C629 1.387 . S
C631 C633 1.390 . S
C631 H635 0.950 . S
H632 C628 0.950 . S
C633 C631 1.390 . S
C633 C634 1.387 . S
C633 H636 0.950 . S
C634 C633 1.387 . S
C634 C637 1.387 . S
H635 C631 0.950 . S
H636 C633 0.950 . S
C637 C628 1.390 . S
C637 H630 0.950 . S
C637 C634 1.387 . S
C638 C639 1.387 . S
C638 H642 0.950 . S
C638 C647 1.390 . S
C639 C638 1.387 . S
C639 C641 1.387 . S
H640 C647 0.950 . S
C641 C639 1.387 . S
C641 C643 1.390 . S
C641 H645 0.950 . S
H642 C638 0.950 . S
C643 C641 1.390 . S
C643 C644 1.387 . S
C643 H646 0.950 . S
C644 C643 1.387 . S
C644 C647 1.387 . S
H645 C641 0.950 . S
H646 C643 0.950 . S
C647 C638 1.390 . S
C647 H640 0.950 . S
C647 C644 1.387 . S
C648 C649 1.387 1_545 S
C648 H652 0.950 1_545 S
C648 C657 1.390 . S
C649 C648 1.387 1_565 S
C649 C651 1.387 1_565 S
H650 C657 0.950 . S
C651 C649 1.387 1_545 S
C651 C653 1.390 . S
C651 H655 0.959 . S
H652 C648 0.950 1_565 S
C653 C651 1.390 . S
C653 C654 1.387 . S
C653 H656 0.950 . S
C654 C653 1.387 . S
C654 C657 1.387 . S
H655 C651 0.959 . S
H656 C653 0.950 . S
C657 C648 1.390 . S
C657 H650 0.950 . S
C657 C654 1.387 . S
C658 C659 1.387 . S
C658 H662 0.950 . S
C658 C667 1.390 1_455 S
C659 C658 1.387 . S
C659 C661 1.387 . S
H660 C667 0.950 . S
C661 C659 1.387 . S
C661 C663 1.390 1_455 S
C661 H665 0.950 . S
H662 C658 0.950 . S
C663 C661 1.390 1_655 S
C663 C664 1.387 . S
C663 H666 0.950 . S
C664 C663 1.387 . S
C664 C667 1.387 . S
H665 C661 0.950 . S
H666 C663 0.950 . S
C667 C658 1.390 1_655 S
C667 H660 0.950 . S
C667 C664 1.387 . S
C668 C669 1.387 . S
C668 H672 0.950 . S
C668 C677 1.390 . S
C669 C668 1.387 . S
C669 C671 1.387 . S
H670 C677 0.950 . S
C671 C669 1.387 . S
C671 C673 1.390 . S
C671 H675 0.950 . S
H672 C668 0.950 . S
C673 C671 1.390 . S
C673 C674 1.387 . S
C673 H676 0.950 . S
C674 C673 1.387 . S
C674 C677 1.387 . S
H675 C671 0.950 . S
H676 C673 0.950 . S
C677 C668 1.390 . S
C677 H670 0.950 . S
C677 C674 1.387 . S
C678 C679 1.387 1_655 S
C678 H682 0.950 . S
C678 C687 1.390 . S
C679 C678 1.387 1_455 S
C679 C681 1.387 . S
H680 C687 0.950 . S
C681 C679 1.387 . S
C681 C683 1.390 1_455 S
C681 H685 0.950 . S
H682 C678 0.950 . S
C683 C681 1.390 1_655 S
C683 C684 1.387 . S
C683 H686 0.950 . S
C684 C683 1.387 . S
C684 C687 1.387 . S
H685 C681 0.950 . S
H686 C683 0.950 . S
C687 C678 1.390 . S
C687 H680 0.950 . S
C687 C684 1.387 . S
C688 C689 1.387 . S
C688 H692 0.950 . S
C688 C697 1.390 . S
C689 C688 1.387 . S
C689 C691 1.387 . S
H690 C697 0.950 . S
C691 C689 1.387 . S
C691 C693 1.390 . S
C691 H695 0.950 . S
H692 C688 0.950 . S
C693 C691 1.390 . S
C693 C694 1.387 . S
C693 H696 0.950 . S
C694 C693 1.387 . S
C694 C697 1.387 . S
H695 C691 0.950 . S
H696 C693 0.950 . S
C697 C688 1.390 . S
C697 H690 0.950 . S
C697 C694 1.387 . S
C698 C699 1.387 1_545 S
C698 H702 0.950 . S
C698 C707 1.390 . S
C699 C698 1.387 1_565 S
C699 C701 1.387 1_565 S
H700 C707 0.950 . S
C701 C699 1.387 1_545 S
C701 C703 1.390 . S
C701 H705 0.950 1_545 S
H702 C698 0.950 . S
C703 C701 1.390 . S
C703 C704 1.387 . S
C703 H706 0.950 . S
C704 C703 1.387 . S
C704 C707 1.387 . S
H705 C701 0.950 1_565 S
H706 C703 0.950 . S
C707 C698 1.390 . S
C707 H700 0.950 . S
C707 C704 1.387 . S
C708 C709 1.387 . S
C708 H712 0.950 . S
C708 C717 1.390 . S
C709 C708 1.387 . S
C709 C711 1.387 . S
H710 C717 0.950 . S
C711 C709 1.387 . S
C711 C713 1.390 . S
C711 H715 0.950 . S
H712 C708 0.950 . S
C713 C711 1.390 . S
C713 C714 1.387 . S
C713 H716 0.950 . S
C714 C713 1.387 . S
C714 C717 1.387 . S
H715 C711 0.950 . S
H716 C713 0.950 . S
C717 C708 1.390 . S
C717 H710 0.950 . S
C717 C714 1.387 . S
C718 C719 1.387 . S
C718 H722 0.950 . S
C718 C727 1.390 . S
C719 C718 1.387 . S
C719 C721 1.387 . S
H720 C727 0.950 . S
C721 C719 1.387 . S
C721 C723 1.390 . S
C721 H725 0.950 . S
H722 C718 0.950 . S
C723 C721 1.390 . S
C723 C724 1.387 . S
C723 H726 0.950 . S
C724 C723 1.387 . S
C724 C727 1.387 . S
H725 C721 0.950 . S
H726 C723 0.950 . S
C727 C718 1.390 . S
C727 H720 0.950 . S
C727 C724 1.387 . S
C728 C729 1.387 . S
C728 H732 0.950 . S
C728 C737 1.390 . S
C729 C728 1.387 . S
C729 C731 1.387 . S
H730 C737 0.950 . S
C731 C729 1.387 . S
C731 C733 1.390 . S
C731 H735 0.950 . S
H732 C728 0.950 . S
C733 C731 1.390 . S
C733 C734 1.387 . S
C733 H736 0.950 . S
C734 C733 1.387 . S
C734 C737 1.387 . S
H735 C731 0.950 . S
H736 C733 0.950 . S
C737 C728 1.390 . S
C737 H730 0.950 . S
C737 C734 1.387 . S
C738 C739 1.387 . S
C738 H742 0.950 . S
C738 C747 1.390 . S
C739 C738 1.387 . S
C739 C741 1.387 . S
H740 C747 0.950 . S
C741 C739 1.387 . S
C741 C743 1.390 . S
C741 H745 0.950 . S
H742 C738 0.950 . S
C743 C741 1.390 . S
C743 C744 1.387 . S
C743 H746 0.950 . S
C744 C743 1.387 . S
C744 C747 1.387 . S
H745 C741 0.950 . S
H746 C743 0.950 . S
C747 C738 1.390 . S
C747 H740 0.950 . S
C747 C744 1.387 . S
C748 C749 1.387 . S
C748 H752 0.950 . S
C748 C757 1.390 . S
C749 C748 1.387 . S
C749 C751 1.387 . S
H750 C757 0.950 . S
C751 C749 1.387 . S
C751 C753 1.390 . S
C751 H755 0.950 . S
H752 C748 0.950 . S
C753 C751 1.390 . S
C753 C754 1.387 . S
C753 H756 0.950 . S
C754 C753 1.387 . S
C754 C757 1.387 . S
H755 C751 0.950 . S
H756 C753 0.950 . S
C757 C748 1.390 . S
C757 H750 0.950 . S
C757 C754 1.387 . S
C758 C759 1.387 . S
C758 H762 0.950 . S
C758 C767 1.390 . S
C759 C758 1.387 . S
C759 C761 1.387 . S
H760 C767 0.950 . S
C761 C759 1.387 . S
C761 C763 1.390 . S
C761 H765 0.950 . S
H762 C758 0.950 . S
C763 C761 1.390 . S
C763 C764 1.387 . S
C763 H766 0.950 . S
C764 C763 1.387 . S
C764 C767 1.387 . S
H765 C761 0.950 . S
H766 C763 0.950 . S
C767 C758 1.390 . S
C767 H760 0.950 . S
C767 C764 1.387 . S
C768 C769 1.387 . S
C768 H772 0.950 . S
C768 C777 1.390 . S
C769 C768 1.387 . S
C769 C771 1.387 . S
H770 C777 0.950 . S
C771 C769 1.387 . S
C771 C773 1.390 . S
C771 H775 0.950 . S
H772 C768 0.950 . S
C773 C771 1.390 . S
C773 C774 1.387 . S
C773 H776 0.950 . S
C774 C773 1.387 . S
C774 C777 1.387 . S
H775 C771 0.950 . S
H776 C773 0.950 . S
C777 C768 1.390 . S
C777 H770 0.950 . S
C777 C774 1.387 . S
C778 C779 1.387 . S
C778 H782 0.950 . S
C778 C787 1.390 . S
C779 C778 1.387 . S
C779 C781 1.387 . S
H780 C787 0.950 . S
C781 C779 1.387 . S
C781 C783 1.390 . S
C781 H785 0.950 . S
H782 C778 0.950 . S
C783 C781 1.390 . S
C783 C784 1.387 . S
C783 H786 0.950 . S
C784 C783 1.387 . S
C784 C787 1.387 . S
H785 C781 0.950 . S
H786 C783 0.950 . S
C787 C778 1.390 . S
C787 H780 0.950 . S
C787 C784 1.387 . S
C788 C789 1.387 . S
C788 H792 0.950 . S
C788 C797 1.390 . S
C789 C788 1.387 . S
C789 C791 1.387 . S
H790 C797 0.950 . S
C791 C789 1.387 . S
C791 C793 1.390 . S
C791 H795 0.950 . S
H792 C788 0.950 . S
C793 C791 1.390 . S
C793 C794 1.387 . S
C793 H796 0.950 1_545 S
C794 C793 1.387 . S
C794 C797 1.387 . S
H795 C791 0.950 . S
H796 C793 0.950 1_565 S
C797 C788 1.390 . S
C797 H790 0.950 . S
C797 C794 1.387 . S
C798 C799 1.387 . S
C798 H802 0.950 . S
C798 C807 1.390 . S
C799 C798 1.387 . S
C799 C801 1.387 . S
H800 C807 0.950 . S
C801 C799 1.387 . S
C801 C803 1.390 . S
C801 H805 0.950 . S
H802 C798 0.950 . S
C803 C801 1.390 . S
C803 C804 1.387 . S
C803 H806 0.950 . S
C804 C803 1.387 . S
C804 C807 1.387 . S
H805 C801 0.950 . S
H806 C803 0.950 . S
C807 C798 1.390 . S
C807 H800 0.950 . S
C807 C804 1.387 . S
C808 C809 1.387 . S
C808 H812 0.950 . S
C808 C817 1.390 . S
C809 C808 1.387 . S
C809 C811 1.387 . S
H810 C817 0.950 . S
C811 C809 1.387 . S
C811 C813 1.390 . S
C811 H815 0.950 . S
H812 C808 0.950 . S
C813 C811 1.390 . S
C813 C814 1.387 . S
C813 H816 0.950 . S
C814 C813 1.387 . S
C814 C817 1.387 . S
H815 C811 0.950 . S
H816 C813 0.950 . S
C817 C808 1.390 . S
C817 H810 0.950 . S
C817 C814 1.387 . S
C818 C819 1.387 . S
C818 H822 0.950 . S
C818 C827 1.390 . S
C819 C818 1.387 . S
C819 C821 1.387 . S
H820 C827 0.950 . S
C821 C819 1.387 . S
C821 C823 1.390 . S
C821 H825 0.950 . S
H822 C818 0.950 . S
C823 C821 1.390 . S
C823 C824 1.387 . S
C823 H826 0.950 . S
C824 C823 1.387 . S
C824 C827 1.387 . S
H825 C821 0.950 . S
H826 C823 0.950 . S
C827 C818 1.390 . S
C827 H820 0.950 . S
C827 C824 1.387 . S
C828 C829 1.387 . S
C828 H832 0.950 . S
C828 C837 1.390 . S
C829 C828 1.387 . S
C829 C831 1.387 . S
H830 C837 0.950 . S
C831 C829 1.387 . S
C831 C833 1.390 . S
C831 H835 0.950 . S
H832 C828 0.950 . S
C833 C831 1.390 . S
C833 C834 1.387 . S
C833 H836 0.950 . S
C834 C833 1.387 . S
C834 C837 1.387 . S
H835 C831 0.950 . S
H836 C833 0.950 . S
C837 C828 1.390 . S
C837 H830 0.950 . S
C837 C834 1.387 . S
C838 C839 1.387 . S
C838 H842 0.950 . S
C838 C847 1.390 . S
C839 C838 1.387 . S
C839 C841 1.387 . S
H840 C847 0.950 . S
C841 C839 1.387 . S
C841 C843 1.390 . S
C841 H845 0.950 . S
H842 C838 0.950 . S
C843 C841 1.390 . S
C843 C844 1.387 . S
C843 H846 0.950 . S
C844 C843 1.387 . S
C844 C847 1.387 . S
H845 C841 0.950 . S
H846 C843 0.950 . S
C847 C838 1.390 . S
C847 H840 0.950 . S
C847 C844 1.387 . S
C848 C849 1.387 . S
C848 H852 0.950 . S
C848 C857 1.390 . S
C849 C848 1.387 . S
C849 C851 1.387 . S
H850 C857 0.950 . S
C851 C849 1.387 . S
C851 C853 1.390 . S
C851 H855 0.950 . S
H852 C848 0.950 . S
C853 C851 1.390 . S
C853 C854 1.387 . S
C853 H856 0.950 . S
C854 C853 1.387 . S
C854 C857 1.387 . S
H855 C851 0.950 . S
H856 C853 0.950 . S
C857 C848 1.390 . S
C857 H850 0.950 . S
C857 C854 1.387 . S
C858 C859 1.387 . S
C858 H862 0.950 . S
C858 C867 1.390 . S
C859 C858 1.387 . S
C859 C861 1.387 . S
H860 C867 0.950 . S
C861 C859 1.387 . S
C861 C863 1.390 . S
C861 H865 0.950 . S
H862 C858 0.950 . S
C863 C861 1.390 . S
C863 C864 1.387 . S
C863 H866 0.950 . S
C864 C863 1.387 . S
C864 C867 1.387 . S
H865 C861 0.950 . S
H866 C863 0.950 . S
C867 C858 1.390 . S
C867 H860 0.950 . S
C867 C864 1.387 . S
C868 C869 1.387 . S
C868 H872 0.950 . S
C868 C877 1.390 . S
C869 C868 1.387 . S
C869 C871 1.387 . S
H870 C877 0.950 . S
C871 C869 1.387 . S
C871 C873 1.390 . S
C871 H875 0.950 . S
H872 C868 0.950 . S
C873 C871 1.390 . S
C873 C874 1.387 . S
C873 H876 0.950 . S
C874 C873 1.387 . S
C874 C877 1.387 . S
H875 C871 0.950 . S
H876 C873 0.950 . S
C877 C868 1.390 . S
C877 H870 0.950 . S
C877 C874 1.387 . S
C878 C879 1.387 . S
C878 H882 0.950 . S
C878 C887 1.390 . S
C879 C878 1.387 . S
C879 C881 1.387 . S
H880 C887 0.950 . S
C881 C879 1.387 . S
C881 C883 1.390 . S
C881 H885 0.950 . S
H882 C878 0.950 . S
C883 C881 1.390 . S
C883 C884 1.387 . S
C883 H886 0.950 . S
C884 C883 1.387 . S
C884 C887 1.387 . S
H885 C881 0.950 . S
H886 C883 0.950 . S
C887 C878 1.390 . S
C887 H880 0.950 . S
C887 C884 1.387 . S
C888 C889 1.387 . S
C888 H892 0.950 . S
C888 C897 1.390 . S
C889 C888 1.387 . S
C889 C891 1.387 . S
H890 C897 0.950 . S
C891 C889 1.387 . S
C891 C893 1.390 . S
C891 H895 0.950 . S
H892 C888 0.950 . S
C893 C891 1.390 . S
C893 C894 1.387 . S
C893 H896 0.950 . S
C894 C893 1.387 . S
C894 C897 1.387 . S
H895 C891 0.950 . S
H896 C893 0.950 . S
C897 C888 1.390 . S
C897 H890 0.950 . S
C897 C894 1.387 . S
C898 C899 1.387 . S
C898 H902 0.950 . S
C898 C907 1.390 . S
C899 C898 1.387 . S
C899 C901 1.387 . S
H900 C907 0.950 . S
C901 C899 1.387 . S
C901 C903 1.390 . S
C901 H905 0.950 . S
H902 C898 0.950 . S
C903 C901 1.390 . S
C903 C904 1.387 . S
C903 H906 0.950 . S
C904 C903 1.387 . S
C904 C907 1.387 . S
H905 C901 0.950 . S
H906 C903 0.950 . S
C907 C898 1.390 . S
C907 H900 0.950 . S
C907 C904 1.387 . S
C908 C909 1.387 . S
C908 H912 0.950 . S
C908 C917 1.390 . S
C909 C908 1.387 . S
C909 C911 1.387 . S
H910 C917 0.950 . S
C911 C909 1.387 . S
C911 C913 1.390 . S
C911 H915 0.950 . S
H912 C908 0.950 . S
C913 C911 1.390 . S
C913 C914 1.387 . S
C913 H916 0.950 . S
C914 C913 1.387 . S
C914 C917 1.387 . S
H915 C911 0.950 . S
H916 C913 0.950 . S
C917 C908 1.390 . S
C917 H910 0.950 . S
C917 C914 1.387 . S
C379 C151 1.339 . S
C384 C204 1.339 . S
C389 C159 1.538 . S
C394 C224 1.636 . S
C399 C137 1.385 . S
C404 C247 1.520 . S
C409 C126 1.312 . S
C414 C227 1.444 1_556 S
C424 C244 1.666 . S
C419 C104 1.575 . S
C429 C118 1.319 . S
C434 C207 1.336 1_556 S
C444 C214 1.500 . S
C439 C129 1.544 . S
C454 C234 1.480 . S
C449 C107 1.519 . S
C459 C115 1.232 . S
C464 C239 1.524 . S
C469 C148 1.177 . S
C474 C219 1.436 . S
C479 C162 1.529 . S
C484 C254 1.494 . S
C494 C199 1.510 . S
C489 C140 1.526 . S
C504 C264 1.340 . S
C499 C19 1.341 . S
C509 C27 1.536 . S
C514 C284 1.635 . S
C519 C5 1.390 . S
C524 C307 1.519 . S
C529 C192 1.318 . S
C534 C287 1.443 . S
C539 C170 1.574 . S
C544 C304 1.667 . S
C549 C184 1.320 . S
C554 C267 1.345 . S
C559 C195 1.544 . S
C564 C274 1.501 . S
C569 C173 1.520 . S
C574 C294 1.481 . S
C584 C299 1.523 . S
C579 C181 1.228 . S
C589 C16 1.178 . S
C594 C279 1.436 . S
C604 C314 1.495 . S
C599 C30 1.529 . S
C609 C8 1.526 . S
C614 C259 1.512 . S
C624 C324 1.340 . S
C619 C85 1.339 . S
C629 C93 1.537 . S
C634 C344 1.634 . S
C644 C367 1.519 . S
C639 C71 1.390 . S
C654 C347 1.444 . S
C649 C60 1.312 . S
C664 C364 1.665 . S
C659 C38 1.574 . S
C669 C52 1.319 . S
C674 C327 1.344 . S
C679 C63 1.544 . S
C684 C334 1.501 . S
C689 C41 1.519 . S
C694 C354 1.480 . S
C704 C359 1.524 . S
C699 C49 1.232 . S
C709 C82 1.173 . S
C714 C339 1.434 . S
C719 C96 1.529 . S
C724 C374 1.494 . S
C729 C74 1.526 . S
C734 C319 1.510 . S
C739 C172 1.491 . S
C744 C217 1.503 . S
C754 C237 1.417 . S
C749 C183 1.410 . S
C759 C194 1.506 . S
C764 C246 1.467 . S
C769 C73 1.639 . S
C774 C226 1.581 . S
C779 C84 1.276 . S
C784 C257 1.288 . S
C794 C206 1.458 . S
C789 C95 1.474 . S
C799 C40 1.491 . S
C804 C277 1.503 . S
C809 C51 1.411 . S
C814 C297 1.419 . S
C819 C62 1.506 . S
C824 C306 1.463 . S
C829 C139 1.639 . S
C834 C286 1.584 . S
C844 C317 1.288 . S
C839 C150 1.276 . S
C849 C161 1.475 . S
C854 C266 1.459 . S
C859 C106 1.491 . S
C864 C337 1.505 . S
C869 C117 1.410 . S
C874 C357 1.417 . S
C884 C366 1.467 . S
C879 C128 1.506 . S
C889 C7 1.639 . S
C894 C346 1.584 . S
C899 C18 1.276 . S
C904 C377 1.288 . S
C909 C29 1.474 . S
C914 C326 1.461 . S
