# Generated by pormake.
# Topology gar, (4,6)-cn, num edge types: 1
# Building blocks:
#     Node 0, Type 0, BuildingBlock: NAHDIM_clean_sbu_0, # of connection points: 4
#     Node 1, Type 0, BuildingBlock: NAHDIM_clean_sbu_0, # of connection points: 4
#     Node 2, Type 0, BuildingBlock: NAHDIM_clean_sbu_0, # of connection points: 4
#     Node 3, Type 0, BuildingBlock: NAHDIM_clean_sbu_0, # of connection points: 4
#     Node 4, Type 0, BuildingBlock: NAHDIM_clean_sbu_0, # of connection points: 4
#     Node 5, Type 0, BuildingBlock: NAHDIM_clean_sbu_0, # of connection points: 4
#     Node 6, Type 0, BuildingBlock: NAHDIM_clean_sbu_0, # of connection points: 4
#     Node 7, Type 0, BuildingBlock: NAHDIM_clean_sbu_0, # of connection points: 4
#     Node 8, Type 0, BuildingBlock: NAHDIM_clean_sbu_0, # of connection points: 4
#     Node 9, Type 0, BuildingBlock: NAHDIM_clean_sbu_0, # of connection points: 4
#     Node 10, Type 0, BuildingBlock: NAHDIM_clean_sbu_0, # of connection points: 4
#     Node 11, Type 0, BuildingBlock: NAHDIM_clean_sbu_0, # of connection points: 4
#     Node 12, Type 0, BuildingBlock: NAHDIM_clean_sbu_0, # of connection points: 4
#     Node 13, Type 0, BuildingBlock: NAHDIM_clean_sbu_0, # of connection points: 4
#     Node 14, Type 0, BuildingBlock: NAHDIM_clean_sbu_0, # of connection points: 4
#     Node 15, Type 0, BuildingBlock: NAHDIM_clean_sbu_0, # of connection points: 4
#     Node 16, Type 0, BuildingBlock: NAHDIM_clean_sbu_0, # of connection points: 4
#     Node 17, Type 0, BuildingBlock: NAHDIM_clean_sbu_0, # of connection points: 4
#     Node 18, Type 0, BuildingBlock: NAHDIM_clean_sbu_0, # of connection points: 4
#     Node 19, Type 0, BuildingBlock: NAHDIM_clean_sbu_0, # of connection points: 4
#     Node 20, Type 0, BuildingBlock: NAHDIM_clean_sbu_0, # of connection points: 4
#     Node 21, Type 0, BuildingBlock: NAHDIM_clean_sbu_0, # of connection points: 4
#     Node 22, Type 0, BuildingBlock: NAHDIM_clean_sbu_0, # of connection points: 4
#     Node 23, Type 0, BuildingBlock: NAHDIM_clean_sbu_0, # of connection points: 4
#     Node 24, Type 1, BuildingBlock: BETGAK_clean_sbu_0, # of connection points: 6
#     Node 25, Type 1, BuildingBlock: BETGAK_clean_sbu_0, # of connection points: 6
#     Node 26, Type 1, BuildingBlock: BETGAK_clean_sbu_0, # of connection points: 6
#     Node 27, Type 1, BuildingBlock: BETGAK_clean_sbu_0, # of connection points: 6
#     Node 28, Type 1, BuildingBlock: BETGAK_clean_sbu_0, # of connection points: 6
#     Node 29, Type 1, BuildingBlock: BETGAK_clean_sbu_0, # of connection points: 6
#     Node 30, Type 1, BuildingBlock: BETGAK_clean_sbu_0, # of connection points: 6
#     Node 31, Type 1, BuildingBlock: BETGAK_clean_sbu_0, # of connection points: 6
#     Node 32, Type 1, BuildingBlock: BETGAK_clean_sbu_0, # of connection points: 6
#     Node 33, Type 1, BuildingBlock: BETGAK_clean_sbu_0, # of connection points: 6
#     Node 34, Type 1, BuildingBlock: BETGAK_clean_sbu_0, # of connection points: 6
#     Node 35, Type 1, BuildingBlock: BETGAK_clean_sbu_0, # of connection points: 6
#     Node 36, Type 1, BuildingBlock: BETGAK_clean_sbu_0, # of connection points: 6
#     Node 37, Type 1, BuildingBlock: BETGAK_clean_sbu_0, # of connection points: 6
#     Node 38, Type 1, BuildingBlock: BETGAK_clean_sbu_0, # of connection points: 6
#     Node 39, Type 1, BuildingBlock: BETGAK_clean_sbu_0, # of connection points: 6
#     Edge 40, Type (0, 1), BuildingBlock: KIFKEQ_clean_linker_1, # of connection points: 2
#     Edge 41, Type (0, 1), BuildingBlock: KIFKEQ_clean_linker_1, # of connection points: 2
#     Edge 42, Type (0, 1), BuildingBlock: KIFKEQ_clean_linker_1, # of connection points: 2
#     Edge 43, Type (0, 1), BuildingBlock: KIFKEQ_clean_linker_1, # of connection points: 2
#     Edge 44, Type (0, 1), BuildingBlock: KIFKEQ_clean_linker_1, # of connection points: 2
#     Edge 45, Type (0, 1), BuildingBlock: KIFKEQ_clean_linker_1, # of connection points: 2
#     Edge 46, Type (0, 1), BuildingBlock: KIFKEQ_clean_linker_1, # of connection points: 2
#     Edge 47, Type (0, 1), BuildingBlock: KIFKEQ_clean_linker_1, # of connection points: 2
#     Edge 48, Type (0, 1), BuildingBlock: KIFKEQ_clean_linker_1, # of connection points: 2
#     Edge 49, Type (0, 1), BuildingBlock: KIFKEQ_clean_linker_1, # of connection points: 2
#     Edge 50, Type (0, 1), BuildingBlock: KIFKEQ_clean_linker_1, # of connection points: 2
#     Edge 51, Type (0, 1), BuildingBlock: KIFKEQ_clean_linker_1, # of connection points: 2
#     Edge 52, Type (0, 1), BuildingBlock: KIFKEQ_clean_linker_1, # of connection points: 2
#     Edge 53, Type (0, 1), BuildingBlock: KIFKEQ_clean_linker_1, # of connection points: 2
#     Edge 54, Type (0, 1), BuildingBlock: KIFKEQ_clean_linker_1, # of connection points: 2
#     Edge 55, Type (0, 1), BuildingBlock: KIFKEQ_clean_linker_1, # of connection points: 2
#     Edge 56, Type (0, 1), BuildingBlock: KIFKEQ_clean_linker_1, # of connection points: 2
#     Edge 57, Type (0, 1), BuildingBlock: KIFKEQ_clean_linker_1, # of connection points: 2
#     Edge 58, Type (0, 1), BuildingBlock: KIFKEQ_clean_linker_1, # of connection points: 2
#     Edge 59, Type (0, 1), BuildingBlock: KIFKEQ_clean_linker_1, # of connection points: 2
#     Edge 60, Type (0, 1), BuildingBlock: KIFKEQ_clean_linker_1, # of connection points: 2
#     Edge 61, Type (0, 1), BuildingBlock: KIFKEQ_clean_linker_1, # of connection points: 2
#     Edge 62, Type (0, 1), BuildingBlock: KIFKEQ_clean_linker_1, # of connection points: 2
#     Edge 63, Type (0, 1), BuildingBlock: KIFKEQ_clean_linker_1, # of connection points: 2
#     Edge 64, Type (0, 1), BuildingBlock: KIFKEQ_clean_linker_1, # of connection points: 2
#     Edge 65, Type (0, 1), BuildingBlock: KIFKEQ_clean_linker_1, # of connection points: 2
#     Edge 66, Type (0, 1), BuildingBlock: KIFKEQ_clean_linker_1, # of connection points: 2
#     Edge 67, Type (0, 1), BuildingBlock: KIFKEQ_clean_linker_1, # of connection points: 2
#     Edge 68, Type (0, 1), BuildingBlock: KIFKEQ_clean_linker_1, # of connection points: 2
#     Edge 69, Type (0, 1), BuildingBlock: KIFKEQ_clean_linker_1, # of connection points: 2
#     Edge 70, Type (0, 1), BuildingBlock: KIFKEQ_clean_linker_1, # of connection points: 2
#     Edge 71, Type (0, 1), BuildingBlock: KIFKEQ_clean_linker_1, # of connection points: 2
#     Edge 72, Type (0, 1), BuildingBlock: KIFKEQ_clean_linker_1, # of connection points: 2
#     Edge 73, Type (0, 1), BuildingBlock: KIFKEQ_clean_linker_1, # of connection points: 2
#     Edge 74, Type (0, 1), BuildingBlock: KIFKEQ_clean_linker_1, # of connection points: 2
#     Edge 75, Type (0, 1), BuildingBlock: KIFKEQ_clean_linker_1, # of connection points: 2
#     Edge 76, Type (0, 1), BuildingBlock: KIFKEQ_clean_linker_1, # of connection points: 2
#     Edge 77, Type (0, 1), BuildingBlock: KIFKEQ_clean_linker_1, # of connection points: 2
#     Edge 78, Type (0, 1), BuildingBlock: KIFKEQ_clean_linker_1, # of connection points: 2
#     Edge 79, Type (0, 1), BuildingBlock: KIFKEQ_clean_linker_1, # of connection points: 2
#     Edge 80, Type (0, 1), BuildingBlock: KIFKEQ_clean_linker_1, # of connection points: 2
#     Edge 81, Type (0, 1), BuildingBlock: KIFKEQ_clean_linker_1, # of connection points: 2
#     Edge 82, Type (0, 1), BuildingBlock: KIFKEQ_clean_linker_1, # of connection points: 2
#     Edge 83, Type (0, 1), BuildingBlock: KIFKEQ_clean_linker_1, # of connection points: 2
#     Edge 84, Type (0, 1), BuildingBlock: KIFKEQ_clean_linker_1, # of connection points: 2
#     Edge 85, Type (0, 1), BuildingBlock: KIFKEQ_clean_linker_1, # of connection points: 2
#     Edge 86, Type (0, 1), BuildingBlock: KIFKEQ_clean_linker_1, # of connection points: 2
#     Edge 87, Type (0, 1), BuildingBlock: KIFKEQ_clean_linker_1, # of connection points: 2
#     Edge 88, Type (0, 1), BuildingBlock: KIFKEQ_clean_linker_1, # of connection points: 2
#     Edge 89, Type (0, 1), BuildingBlock: KIFKEQ_clean_linker_1, # of connection points: 2
#     Edge 90, Type (0, 1), BuildingBlock: KIFKEQ_clean_linker_1, # of connection points: 2
#     Edge 91, Type (0, 1), BuildingBlock: KIFKEQ_clean_linker_1, # of connection points: 2
#     Edge 92, Type (0, 1), BuildingBlock: KIFKEQ_clean_linker_1, # of connection points: 2
#     Edge 93, Type (0, 1), BuildingBlock: KIFKEQ_clean_linker_1, # of connection points: 2
#     Edge 94, Type (0, 1), BuildingBlock: KIFKEQ_clean_linker_1, # of connection points: 2
#     Edge 95, Type (0, 1), BuildingBlock: KIFKEQ_clean_linker_1, # of connection points: 2
#     Edge 96, Type (0, 1), BuildingBlock: KIFKEQ_clean_linker_1, # of connection points: 2
#     Edge 97, Type (0, 1), BuildingBlock: KIFKEQ_clean_linker_1, # of connection points: 2
#     Edge 98, Type (0, 1), BuildingBlock: KIFKEQ_clean_linker_1, # of connection points: 2
#     Edge 99, Type (0, 1), BuildingBlock: KIFKEQ_clean_linker_1, # of connection points: 2
#     Edge 100, Type (0, 1), BuildingBlock: KIFKEQ_clean_linker_1, # of connection points: 2
#     Edge 101, Type (0, 1), BuildingBlock: KIFKEQ_clean_linker_1, # of connection points: 2
#     Edge 102, Type (0, 1), BuildingBlock: KIFKEQ_clean_linker_1, # of connection points: 2
#     Edge 103, Type (0, 1), BuildingBlock: KIFKEQ_clean_linker_1, # of connection points: 2
#     Edge 104, Type (0, 1), BuildingBlock: KIFKEQ_clean_linker_1, # of connection points: 2
#     Edge 105, Type (0, 1), BuildingBlock: KIFKEQ_clean_linker_1, # of connection points: 2
#     Edge 106, Type (0, 1), BuildingBlock: KIFKEQ_clean_linker_1, # of connection points: 2
#     Edge 107, Type (0, 1), BuildingBlock: KIFKEQ_clean_linker_1, # of connection points: 2
#     Edge 108, Type (0, 1), BuildingBlock: KIFKEQ_clean_linker_1, # of connection points: 2
#     Edge 109, Type (0, 1), BuildingBlock: KIFKEQ_clean_linker_1, # of connection points: 2
#     Edge 110, Type (0, 1), BuildingBlock: KIFKEQ_clean_linker_1, # of connection points: 2
#     Edge 111, Type (0, 1), BuildingBlock: KIFKEQ_clean_linker_1, # of connection points: 2
#     Edge 112, Type (0, 1), BuildingBlock: KIFKEQ_clean_linker_1, # of connection points: 2
#     Edge 113, Type (0, 1), BuildingBlock: KIFKEQ_clean_linker_1, # of connection points: 2
#     Edge 114, Type (0, 1), BuildingBlock: KIFKEQ_clean_linker_1, # of connection points: 2
#     Edge 115, Type (0, 1), BuildingBlock: KIFKEQ_clean_linker_1, # of connection points: 2
#     Edge 116, Type (0, 1), BuildingBlock: KIFKEQ_clean_linker_1, # of connection points: 2
#     Edge 117, Type (0, 1), BuildingBlock: KIFKEQ_clean_linker_1, # of connection points: 2
#     Edge 118, Type (0, 1), BuildingBlock: KIFKEQ_clean_linker_1, # of connection points: 2
#     Edge 119, Type (0, 1), BuildingBlock: KIFKEQ_clean_linker_1, # of connection points: 2
#     Edge 120, Type (0, 1), BuildingBlock: KIFKEQ_clean_linker_1, # of connection points: 2
#     Edge 121, Type (0, 1), BuildingBlock: KIFKEQ_clean_linker_1, # of connection points: 2
#     Edge 122, Type (0, 1), BuildingBlock: KIFKEQ_clean_linker_1, # of connection points: 2
#     Edge 123, Type (0, 1), BuildingBlock: KIFKEQ_clean_linker_1, # of connection points: 2
#     Edge 124, Type (0, 1), BuildingBlock: KIFKEQ_clean_linker_1, # of connection points: 2
#     Edge 125, Type (0, 1), BuildingBlock: KIFKEQ_clean_linker_1, # of connection points: 2
#     Edge 126, Type (0, 1), BuildingBlock: KIFKEQ_clean_linker_1, # of connection points: 2
#     Edge 127, Type (0, 1), BuildingBlock: KIFKEQ_clean_linker_1, # of connection points: 2
#     Edge 128, Type (0, 1), BuildingBlock: KIFKEQ_clean_linker_1, # of connection points: 2
#     Edge 129, Type (0, 1), BuildingBlock: KIFKEQ_clean_linker_1, # of connection points: 2
#     Edge 130, Type (0, 1), BuildingBlock: KIFKEQ_clean_linker_1, # of connection points: 2
#     Edge 131, Type (0, 1), BuildingBlock: KIFKEQ_clean_linker_1, # of connection points: 2
#     Edge 132, Type (0, 1), BuildingBlock: KIFKEQ_clean_linker_1, # of connection points: 2
#     Edge 133, Type (0, 1), BuildingBlock: KIFKEQ_clean_linker_1, # of connection points: 2
#     Edge 134, Type (0, 1), BuildingBlock: KIFKEQ_clean_linker_1, # of connection points: 2
#     Edge 135, Type (0, 1), BuildingBlock: KIFKEQ_clean_linker_1, # of connection points: 2
# Relax obj value: 0.209
# Max RMSD: 0.303
# Mean RMSD: 0.182
data_MOF--net-gar--node1-NAHDIM_clean_sbu_0--node2-BETGAK_clean_sbu_0--edge1-KIFKEQ_clean_linker_1
_symmetry_space_group_name_H-M    P1
_symmetry_Int_Tables_number       1
_symmetry_cell_setting            triclinic
loop_
_symmetry_equiv_pos_as_xyz
'x, y, z'
_cell_length_a     64.353027
_cell_length_b     57.493816
_cell_length_c     56.593583
_cell_angle_alpha  98.997214
_cell_angle_beta   95.572787
_cell_angle_gamma 103.01981
loop_
_atom_site_label
_atom_site_type_symbol
_atom_site_fract_x
_atom_site_fract_y
_atom_site_fract_z
_atom_type_partial_charge
C0 C 0.14432 0.33205 0.35495 0.0
O1 O 0.13014 0.31137 0.35383 0.0
O2 O 0.1075 0.32018 0.39769 0.0
Zn3 Zn 0.11303 0.34809 0.37975 0.0
O4 O 0.11247 0.37864 0.4018 0.0
C5 C 0.0774 0.32125 0.34353 0.0
O6 O 0.08155 0.30236 0.35165 0.0
O7 O 0.14086 0.35139 0.36618 0.0
C8 C 0.09437 0.37973 0.40848 0.0
O9 O 0.07783 0.36095 0.40118 0.0
C10 C 0.11971 0.31902 0.41627 0.0
O11 O 0.13708 0.33661 0.42428 0.0
O12 O 0.0891 0.34231 0.35246 0.0
C13 C 0.96488 0.7428 0.69205 0.0
O14 O 0.96244 0.72973 0.67029 0.0
O15 O 1.00748 0.73395 0.65854 0.0
Zn16 Zn 1.00815 0.76382 0.68276 0.0
O17 O 1.01113 0.79316 0.66673 0.0
C18 C 0.03982 0.75047 0.71249 0.0
O19 O 0.02802 0.72872 0.70256 0.0
O20 O 0.98245 0.75847 0.70018 0.0
C21 C 0.02903 0.80049 0.65922 0.0
O22 O 0.04427 0.78906 0.66271 0.0
C23 C 1.00877 0.73368 0.63626 0.0
O24 O 1.00874 0.75339 0.62728 0.0
O25 O 0.03421 0.76902 0.70714 0.0
C26 C 0.65696 0.86051 0.86709 0.0
O27 O 0.66011 0.86922 0.89039 0.0
O28 O 0.61113 0.8104 0.88812 0.0
Zn29 Zn 0.61216 0.84001 0.87314 0.0
O30 O 0.61024 0.86721 0.89891 0.0
C31 C 0.5695 0.81778 0.84818 0.0
O32 O 0.5686 0.80481 0.86538 0.0
O33 O 0.63846 0.84806 0.85705 0.0
C34 C 0.61443 0.88942 0.89694 0.0
O35 O 0.62133 0.89574 0.87722 0.0
C36 C 0.62197 0.81172 0.90848 0.0
O37 O 0.63513 0.8325 0.9191 0.0
O38 O 0.58661 0.83379 0.84786 0.0
C39 C 0.46082 0.23373 0.18076 0.0
O40 O 0.45653 0.21633 0.16165 0.0
O41 O 0.49673 0.21891 0.13925 0.0
Zn42 Zn 0.5021 0.24996 0.16376 0.0
O43 O 0.50639 0.27942 0.1478 0.0
C44 C 0.53665 0.2341 0.18712 0.0
O45 O 0.52599 0.21279 0.17469 0.0
O46 O 0.47864 0.24956 0.18445 0.0
C47 C 0.52503 0.28844 0.14282 0.0
O48 O 0.54083 0.27828 0.14811 0.0
C49 C 0.50357 0.21857 0.11891 0.0
O50 O 0.51193 0.23919 0.11235 0.0
O51 O 0.52924 0.2526 0.18568 0.0
C52 C 0.05765 0.82165 0.14621 0.0
O53 O 0.05408 0.81731 0.12249 0.0
O54 O 0.09152 0.79136 0.11404 0.0
Zn55 Zn 0.10013 0.82651 0.1335 0.0
O56 O 0.09641 0.85312 0.11282 0.0
C57 C 0.14462 0.82025 0.14638 0.0
O58 O 0.14001 0.80596 0.12512 0.0
O59 O 0.0771 0.82665 0.15645 0.0
C60 C 0.11033 0.872 0.11025 0.0
O61 O 0.13034 0.87539 0.12022 0.0
C62 C 0.09646 0.78258 0.09383 0.0
O63 O 0.10821 0.79722 0.0819 0.0
O64 O 0.13079 0.83178 0.15346 0.0
C65 C 0.56195 0.78122 0.39994 0.0
O66 O 0.56533 0.78548 0.42366 0.0
O67 O 0.51819 0.74212 0.42748 0.0
Zn68 Zn 0.51817 0.77234 0.41081 0.0
O69 O 0.52538 0.80518 0.43477 0.0
C70 C 0.48476 0.78601 0.37975 0.0
O71 O 0.5003 0.80579 0.38199 0.0
O72 O 0.54253 0.77493 0.38945 0.0
C73 C 0.51102 0.81605 0.44111 0.0
O74 O 0.49065 0.80483 0.43431 0.0
C75 C 0.52814 0.74302 0.44842 0.0
O76 O 0.53828 0.76439 0.46118 0.0
O77 O 0.48851 0.76869 0.38988 0.0
C78 C 0.56571 0.30447 0.66411 0.0
O79 O 0.57217 0.28439 0.65892 0.0
O80 O 0.59728 0.29111 0.617 0.0
Zn81 Zn 0.60104 0.32542 0.63732 0.0
O82 O 0.59801 0.3524 0.61678 0.0
C83 C 0.64703 0.32702 0.65249 0.0
O84 O 0.64623 0.31898 0.6293 0.0
O85 O 0.57585 0.32364 0.65756 0.0
C86 C 0.61215 0.3712 0.61446 0.0
O87 O 0.63204 0.37433 0.62468 0.0
C88 C 0.58067 0.2784 0.60268 0.0
O89 O 0.56429 0.288 0.5985 0.0
O90 O 0.63025 0.33229 0.66009 0.0
C91 C 0.06347 0.27666 0.89919 0.0
O92 O 0.06529 0.2712 0.92087 0.0
O93 O 0.02197 0.24706 0.92882 0.0
Zn94 Zn 0.01973 0.27537 0.90998 0.0
O95 O 0.02283 0.30847 0.93198 0.0
C96 C 0.97455 0.27591 0.8947 0.0
O97 O 0.9752 0.28254 0.91811 0.0
O98 O 0.04534 0.27934 0.89026 0.0
C99 C 0.03736 0.31964 0.94955 0.0
O100 O 0.05238 0.30901 0.9564 0.0
C101 C 1.00733 0.23007 0.93368 0.0
O102 O 0.98706 0.22952 0.92713 0.0
O103 O 0.99108 0.27028 0.88682 0.0
C104 C 0.41135 0.09303 0.28326 0.0
O105 O 0.42311 0.08297 0.26904 0.0
O106 O 0.45126 0.06303 0.29493 0.0
Zn107 Zn 0.43116 0.07076 0.31804 0.0
O108 O 0.44844 0.08572 0.35025 0.0
C109 C 0.41976 0.02053 0.31864 0.0
O110 O 0.44072 0.02382 0.31967 0.0
O111 O 0.41301 0.09126 0.30543 0.0
C112 C 0.44235 0.07979 0.36959 0.0
O113 O 0.42293 0.06595 0.36876 0.0
C114 C 0.47159 0.06834 0.30021 0.0
O115 O 0.48071 0.08124 0.32142 0.0
O116 O 0.41162 0.03874 0.31919 0.0
C117 C 0.3143 0.16329 0.51854 0.0
O118 O 0.30601 0.16702 0.5387 0.0
O119 O 0.28548 0.20995 0.53333 0.0
Zn120 Zn 0.28285 0.18883 0.4997 0.0
O121 O 0.28723 0.20826 0.4719 0.0
C122 C 0.23725 0.17301 0.50223 0.0
O123 O 0.24099 0.19592 0.51263 0.0
O124 O 0.30662 0.17027 0.50002 0.0
C125 C 0.27249 0.21304 0.45807 0.0
O126 O 0.25243 0.20658 0.46214 0.0
C127 C 0.3026 0.22359 0.54599 0.0
O128 O 0.32076 0.22631 0.53674 0.0
O129 O 0.25276 0.16523 0.49419 0.0
C130 C 0.20007 0.9791 0.7796 0.0
O131 O 0.17933 0.96967 0.7732 0.0
O132 O 0.16617 0.02865 0.75061 0.0
Zn133 Zn 0.18662 0.03278 0.78655 0.0
O134 O 0.16924 0.03511 0.82058 0.0
C135 C 0.20447 0.08771 0.78123 0.0
O136 O 0.18436 0.08494 0.77202 0.0
O137 O 0.20615 1.00283 0.78542 0.0
C138 C 0.1492 0.02787 0.82395 0.0
O139 O 0.13536 0.01682 0.80468 0.0
C140 C 0.15047 0.03843 0.745 0.0
O141 O 0.14364 0.05085 0.76285 0.0
O142 O 0.20945 0.06924 0.78885 0.0
C143 C 0.29193 0.98548 1.00172 0.0
O144 O 0.2902 0.96337 1.00604 0.0
O145 O 0.33196 0.96049 0.02267 0.0
Zn146 Zn 0.33342 0.97994 0.99635 0.0
O147 O 0.3311 0.95599 0.96575 0.0
C148 C 0.37004 1.01076 0.02606 0.0
O149 O 0.35691 1.0085 0.04241 0.0
O150 O 0.30957 0.9969 0.99624 0.0
C151 C 0.34754 0.954 0.95557 0.0
O152 O 0.36613 0.96953 0.96377 0.0
C153 C 0.34669 0.94935 0.02556 0.0
O154 O 0.36147 0.95069 1.01102 0.0
O155 O 0.36248 1.00281 1.00394 0.0
C156 C 0.29357 0.42484 0.05143 0.0
O157 O 0.28955 0.40371 0.0584 0.0
O158 O 0.33031 0.39488 0.07704 0.0
Zn159 Zn 0.33546 0.41391 0.04906 0.0
O160 O 0.33343 0.39206 0.01597 0.0
C161 C 0.37408 0.44478 0.03773 0.0
O162 O 0.36196 0.43973 0.01664 0.0
O163 O 0.3124 0.4335 0.04656 0.0
C164 C 0.31639 0.37826 1.00327 0.0
O165 O 0.2981 0.37579 1.01221 0.0
C166 C 0.34475 0.38776 0.08903 0.0
O167 O 0.36422 0.39165 0.08283 0.0
O168 O 0.3661 0.43644 0.05537 0.0
C169 C 0.82952 0.12197 0.0533 0.0
O170 O 0.83577 0.14579 0.0586 0.0
O171 O 0.78977 0.15452 0.07601 0.0
Zn172 Zn 0.79021 0.13447 0.04398 0.0
O173 O 0.80175 0.15785 0.02307 0.0
C174 C 0.74948 0.11939 1.01161 0.0
O175 O 0.75953 0.13326 0.99782 0.0
O176 O 0.80963 0.112 0.04687 0.0
C177 C 0.81022 0.15211 1.00439 0.0
O178 O 0.81142 0.12954 0.99783 0.0
C179 C 0.77934 0.17085 0.07589 0.0
O180 O 0.76939 0.17313 0.05529 0.0
O181 O 0.75973 0.11664 0.03095 0.0
C182 C 0.20937 0.50125 0.25899 0.0
O183 O 0.19229 0.50317 0.26937 0.0
O184 O 0.17407 0.52119 0.20295 0.0
Zn185 Zn 0.1961 0.53469 0.23215 0.0
O186 O 0.18242 0.54582 0.2607 0.0
C187 C 0.20993 0.57821 0.21345 0.0
O188 O 0.19047 0.57134 0.20122 0.0
O189 O 0.21333 0.51185 0.24125 0.0
C190 C 0.17314 0.56318 0.26185 0.0
O191 O 0.17117 0.5738 0.24314 0.0
C192 C 0.15413 0.51421 0.20437 0.0
O193 O 0.14787 0.51281 0.22563 0.0
O194 O 0.2163 0.56449 0.22656 0.0
C195 C 0.78912 0.92421 0.54588 0.0
O196 O 0.78444 0.90045 0.53963 0.0
O197 O 0.83221 0.89862 0.57958 0.0
Zn198 Zn 0.83255 0.91661 0.55038 0.0
O199 O 0.82678 0.8953 0.51627 0.0
C200 C 0.87895 0.93221 0.54977 0.0
O201 O 0.8766 0.90858 0.54536 0.0
O202 O 0.80887 0.93564 0.55161 0.0
C203 C 0.83278 0.87619 0.50837 0.0
O204 O 0.84331 0.86641 0.52357 0.0
C205 C 0.81939 0.87853 0.58086 0.0
O206 O 0.80561 0.86686 0.56174 0.0
O207 O 0.8624 0.9404 0.55312 0.0
C208 C 0.92072 0.12232 0.26315 0.0
O209 O 0.94073 0.13065 0.2597 0.0
O210 O 0.95225 0.06565 0.23012 0.0
Zn211 Zn 0.93399 0.06904 0.26328 0.0
O212 O 0.95608 0.07327 0.29809 0.0
C213 C 0.91645 1.01236 0.26085 0.0
O214 O 0.93657 1.01235 0.2586 0.0
O215 O 0.91508 0.0994 0.26497 0.0
C216 C 0.95156 0.06079 0.315 0.0
O217 O 0.93252 0.04556 0.3117 0.0
C218 C 0.95523 0.07863 0.21321 0.0
O219 O 0.94667 0.09741 0.21465 0.0
O220 O 0.91131 0.03305 0.26227 0.0
C221 C 0.33856 0.639 0.55076 0.0
O222 O 0.33986 0.65462 0.57077 0.0
O223 O 0.29765 0.66676 0.57255 0.0
Zn224 Zn 0.29594 0.6467 0.53966 0.0
O225 O 0.29129 0.66792 0.51583 0.0
C226 C 0.26346 0.60521 0.54765 0.0
O227 O 0.27456 0.60798 0.56908 0.0
O228 O 0.32182 0.63388 0.53528 0.0
C229 C 0.27216 0.66932 0.50946 0.0
O230 O 0.2561 0.65623 0.51794 0.0
C231 C 0.28062 0.66913 0.5813 0.0
O232 O 0.26176 0.65702 0.56943 0.0
O233 O 0.27047 0.61873 0.53306 0.0
C234 C 0.42091 0.62631 0.76194 0.0
O235 O 0.43863 0.63246 0.75225 0.0
O236 O 0.452 0.57167 0.73059 0.0
Zn237 Zn 0.43597 0.57449 0.76545 0.0
O238 O 0.45819 0.57916 0.80024 0.0
C239 C 0.41271 0.51761 0.75254 0.0
O240 O 0.42501 0.51707 0.73535 0.0
O241 O 0.41692 0.60489 0.76814 0.0
C242 C 0.46348 0.56153 0.80929 0.0
O243 O 0.45646 0.5396 0.79626 0.0
C244 C 0.47215 0.57636 0.72712 0.0
O245 O 0.48652 0.58432 0.74652 0.0
O246 O 0.41392 0.53851 0.7658 0.0
C247 C 0.70893 1.01472 0.73965 0.0
O248 O 0.71145 0.02502 0.72062 0.0
O249 O 0.66111 0.032 0.71286 0.0
Zn250 Zn 0.67945 0.04361 0.74459 0.0
O251 O 0.66248 0.05208 0.77083 0.0
C252 C 0.69488 0.09162 0.73755 0.0
O253 O 0.67437 0.08896 0.7301 0.0
O254 O 0.69494 0.01927 0.75279 0.0
C255 C 0.64607 0.06075 0.76831 0.0
O256 O 0.63817 0.06314 0.74679 0.0
C257 C 0.64272 0.01733 0.70998 0.0
O258 O 0.63542 1.00863 0.72852 0.0
O259 O 0.70122 0.07382 0.74368 0.0
C260 C 0.8289 0.67885 1.00438 0.0
O261 O 0.83396 0.70174 1.002 0.0
O262 O 0.78883 0.70963 0.03669 0.0
Zn263 Zn 0.78661 0.68886 1.00294 0.0
O264 O 0.79278 0.70836 0.97538 0.0
C265 C 0.74046 0.67393 1.0042 0.0
O266 O 0.7443 0.6967 0.01507 0.0
O267 O 0.80923 0.66875 1.00505 0.0
C268 C 0.77898 0.71474 0.96163 0.0
O269 O 0.75879 0.70997 0.96551 0.0
C270 C 0.8034 0.72817 0.04751 0.0
O271 O 0.81934 0.73709 0.03613 0.0
O272 O 0.75603 0.66611 0.99635 0.0
C273 C 0.9297 0.60363 0.80594 0.0
O274 O 0.9308 0.59879 0.8279 0.0
O275 O 0.95843 0.54598 0.77112 0.0
Zn276 Zn 0.94418 0.56072 0.79741 0.0
O277 O 0.96371 0.56728 0.82892 0.0
C278 C 0.90617 0.52585 0.77715 0.0
O279 O 0.91245 0.53351 0.7577 0.0
O280 O 0.93604 0.59029 0.78955 0.0
C281 C 0.96159 0.55059 0.84143 0.0
O282 O 0.94593 0.53089 0.83434 0.0
C283 C 0.96356 0.52604 0.77227 0.0
O284 O 0.96079 0.51608 0.79142 0.0
O285 O 0.91694 0.53595 0.79763 0.0
C286 C 0.79423 0.47711 0.52784 0.0
O287 O 0.80412 0.47006 0.54583 0.0
O288 O 0.82631 0.43493 0.52605 0.0
Zn289 Zn 0.82323 0.45641 0.50241 0.0
O290 O 0.82082 0.43612 0.46993 0.0
C291 C 0.86179 0.48951 0.52745 0.0
O292 O 0.85375 0.4839 0.54687 0.0
O293 O 0.79927 0.47244 0.50679 0.0
C294 C 0.83583 0.42509 0.46833 0.0
O295 O 0.85064 0.42844 0.48707 0.0
C296 C 0.81413 0.4138 0.52356 0.0
O297 O 0.79742 0.40673 0.50658 0.0
O298 O 0.85071 0.48109 0.50685 0.0
C299 C 0.70019 0.47503 0.27954 0.0
O300 O 0.67949 0.46579 0.27257 0.0
O301 O 0.6662 0.52431 0.25122 0.0
Zn302 Zn 0.68628 0.52821 0.28744 0.0
O303 O 0.66608 0.52686 0.31918 0.0
C304 C 0.71253 0.57753 0.27513 0.0
O305 O 0.70567 0.56587 0.25288 0.0
O306 O 0.7063 0.49871 0.28603 0.0
C307 C 0.66846 0.54241 0.33934 0.0
O308 O 0.68444 0.56187 0.34233 0.0
C309 C 0.65635 0.54001 0.24432 0.0
O310 O 0.65705 0.55939 0.26043 0.0
O311 O 0.70745 0.56577 0.29236 0.0
La312 La 0.03683 0.03367 1.00812 0.0
La313 La 0.07662 0.06723 0.03714 0.0
C314 C 0.99801 1.01075 0.9967 0.0
C315 C 0.978 1.01504 1.00511 0.0
C316 C 0.96121 0.01685 0.98831 0.0
C317 C 0.94343 0.02431 0.99613 0.0
C318 C 0.94205 0.03001 0.02095 0.0
C319 C 0.95844 0.02703 0.03771 0.0
C320 C 0.97626 0.01971 0.02986 0.0
C321 C 0.06811 0.03586 0.97831 0.0
C322 C 0.04504 0.09058 1.00822 0.0
C323 C 0.11541 0.08985 0.04903 0.0
C324 C 0.13467 0.08348 0.04105 0.0
C325 C 0.15483 0.09315 0.05505 0.0
C326 C 0.17255 0.08439 0.0489 0.0
C327 C 0.17025 0.06589 0.02862 0.0
C328 C 0.15012 0.05705 0.01414 0.0
C329 C 0.13245 0.06553 0.02051 0.0
C330 C 0.04518 0.06495 0.06668 0.0
C331 C 0.06874 1.01036 0.03679 0.0
O332 O 1.00776 0.02695 0.98498 0.0
O333 O 1.01156 1.00496 1.01221 0.0
O334 O 0.0486 0.02253 0.97371 0.0
O335 O 0.06974 0.04676 1.00036 0.0
O336 O 0.03079 0.06935 1.00486 0.0
O337 O 0.06473 0.09357 0.01926 0.0
O338 O 0.10503 0.07486 0.06149 0.0
O339 O 0.10244 0.09496 0.03237 0.0
O340 O 0.06453 0.07864 0.07141 0.0
O341 O 0.04378 0.05412 0.0447 0.0
O342 O 0.08287 0.03165 0.04019 0.0
O343 O 0.04897 1.00733 0.02593 0.0
H344 H 0.96228 1.01346 0.96914 0.0
H345 H 0.93126 0.0267 0.98272 0.0
H346 H 0.95773 0.03086 0.05692 0.0
H347 H 0.98895 0.01842 0.04322 0.0
H348 H 0.15668 0.10676 0.07119 0.0
H349 H 0.18778 0.09137 0.06059 0.0
H350 H 0.14785 0.04311 0.9982 0.0
H351 H 0.11686 0.05746 1.00985 0.0
La352 La 0.32064 0.79741 0.24464 0.0
La353 La 0.30432 0.8037 0.29318 0.0
C354 C 0.33231 0.79845 0.20367 0.0
C355 C 0.33584 0.81571 0.18725 0.0
C356 C 0.35092 0.81401 0.17126 0.0
C357 C 0.35445 0.83009 0.15521 0.0
C358 C 0.34283 0.84804 0.15486 0.0
C359 C 0.32797 0.84995 0.1713 0.0
C360 C 0.32456 0.83394 0.18748 0.0
C361 C 0.34383 0.78613 0.28079 0.0
C362 C 0.32904 0.84982 0.27593 0.0
C363 C 0.30214 0.80457 0.33723 0.0
C364 C 0.28695 0.79356 0.35247 0.0
C365 C 0.28218 0.80834 0.3723 0.0
C366 C 0.27087 0.79792 0.3894 0.0
C367 C 0.26449 0.77252 0.3871 0.0
C368 C 0.26765 0.75787 0.36604 0.0
C369 C 0.27871 0.76831 0.34881 0.0
C370 C 0.27381 0.80804 0.25975 0.0
C371 C 0.29038 0.75266 0.25786 0.0
O372 O 0.34572 0.80422 0.22376 0.0
O373 O 0.31232 0.79019 0.20708 0.0
O374 O 0.33961 0.77416 0.25887 0.0
O375 O 0.33514 0.80381 0.28172 0.0
O376 O 0.32682 0.83683 0.25399 0.0
O377 O 0.32365 0.83995 0.29465 0.0
O378 O 0.29634 0.82055 0.32554 0.0
O379 O 0.31136 0.7899 0.32416 0.0
O380 O 0.2723 0.8092 0.28252 0.0
O381 O 0.29203 0.8041 0.25672 0.0
O382 O 0.29285 0.76446 0.28041 0.0
O383 O 0.29779 0.76298 0.24016 0.0
H384 H 0.35991 0.80017 0.17114 0.0
H385 H 0.36626 0.82845 0.14306 0.0
H386 H 0.31862 0.86342 0.1713 0.0
H387 H 0.31298 0.83559 0.19993 0.0
H388 H 0.28816 0.8279 0.37522 0.0
H389 H 0.26827 0.80971 0.40515 0.0
H390 H 0.26312 0.73825 0.36367 0.0
H391 H 0.28187 0.7565 0.33341 0.0
La392 La 0.57806 0.05018 0.52812 0.0
La393 La 0.52898 0.04334 0.52756 0.0
C394 C 0.6174 0.05003 0.53692 0.0
C395 C 0.63375 0.03554 0.53626 0.0
C396 C 0.65546 0.04789 0.53831 0.0
C397 C 0.67175 0.03541 0.53934 0.0
C398 C 0.66677 1.01012 0.53831 0.0
C399 C 0.64488 0.99762 0.53578 0.0
C400 C 0.6285 1.01024 0.53488 0.0
C401 C 0.55632 0.05695 0.48914 0.0
C402 C 0.54574 0.99663 0.51226 0.0
C403 C 0.49001 0.0451 0.51987 0.0
C404 C 0.47568 0.06217 0.52037 0.0
C405 C 0.46519 0.06686 0.54062 0.0
C406 C 0.4494 0.08009 0.54007 0.0
C407 C 0.44347 0.0888 0.51916 0.0
C408 C 0.45434 0.08463 0.49908 0.0
C409 C 0.47027 0.07152 0.4997 0.0
C410 C 0.55006 0.03573 0.56623 0.0
C411 C 0.56116 0.0968 0.54312 0.0
O412 O 0.60856 0.05361 0.5164 0.0
O413 O 0.60358 0.04662 0.55232 0.0
O414 O 0.57579 0.06941 0.49762 0.0
O415 O 0.55046 0.04118 0.50169 0.0
O416 O 0.56582 1.0101 0.51921 0.0
O417 O 0.52883 1.00629 0.51163 0.0
O418 O 0.49938 0.04253 0.54057 0.0
O419 O 0.50271 0.04482 0.50313 0.0
O420 O 0.53042 0.02402 0.55772 0.0
O421 O 0.55653 0.05192 0.5542 0.0
O422 O 0.54132 0.08328 0.53502 0.0
O423 O 0.57798 0.08709 0.54481 0.0
H424 H 0.65989 0.06741 0.53943 0.0
H425 H 0.68831 0.04563 0.54085 0.0
H426 H 0.64042 0.97818 0.53507 0.0
H427 H 0.61184 1.00032 0.5334 0.0
H428 H 0.46865 0.05961 0.55671 0.0
H429 H 0.44122 0.08264 0.55577 0.0
H430 H 0.4504 0.09128 0.48275 0.0
H431 H 0.47796 0.06816 0.48377 0.0
La432 La 0.28904 0.30852 0.77102 0.0
La433 La 0.33427 0.30087 0.77811 0.0
C434 C 0.24987 0.30958 0.77122 0.0
C435 C 0.23145 0.3053 0.78509 0.0
C436 C 0.2116 0.30816 0.77503 0.0
C437 C 0.1937 0.30451 0.78744 0.0
C438 C 0.19513 0.29787 0.81034 0.0
C439 C 0.21517 0.29504 0.82046 0.0
C440 C 0.23315 0.29868 0.80793 0.0
C441 C 0.32047 0.34607 0.76448 0.0
C442 C 0.31364 0.3155 0.82442 0.0
C443 C 0.37468 0.31056 0.77846 0.0
C444 C 0.3923 0.3042 0.76563 0.0
C445 C 0.41183 0.30437 0.77917 0.0
C446 C 0.42998 0.30246 0.76783 0.0
C447 C 0.42911 0.30044 0.7426 0.0
C448 C 0.40925 0.29936 0.72898 0.0
C449 C 0.39108 0.3012 0.74034 0.0
C450 C 0.30563 0.25788 0.77791 0.0
C451 C 0.30744 0.28727 0.72526 0.0
O452 O 0.26611 0.32812 0.78017 0.0
O453 O 0.25623 0.2906 0.76159 0.0
O454 O 0.3015 0.33829 0.75195 0.0
O455 O 0.32116 0.33274 0.78044 0.0
O456 O 0.29497 0.31081 0.81026 0.0
O457 O 0.33183 0.31491 0.81553 0.0
O458 O 0.36451 0.29533 0.79097 0.0
O459 O 0.36169 0.32095 0.76702 0.0
O460 O 0.32647 0.26157 0.78027 0.0
O461 O 0.30203 0.27834 0.77549 0.0
O462 O 0.32646 0.2925 0.73874 0.0
O463 O 0.28984 0.28997 0.73453 0.0
H464 H 0.20994 0.31337 0.75748 0.0
H465 H 0.17877 0.30731 0.77918 0.0
H466 H 0.21689 0.28973 0.83793 0.0
H467 H 0.24831 0.2963 0.81602 0.0
H468 H 0.41332 0.30698 0.79869 0.0
H469 H 0.44495 0.30362 0.77901 0.0
H470 H 0.40781 0.2974 0.7095 0.0
H471 H 0.37627 0.30106 0.72937 0.0
La472 La 0.05775 0.07657 0.53664 0.0
La473 La 0.05978 0.02688 0.51592 0.0
C474 C 0.06274 0.12202 0.54517 0.0
C475 C 0.06717 0.14131 0.5308 0.0
C476 C 0.06308 0.16389 0.53902 0.0
C477 C 0.06831 0.1828 0.52617 0.0
C478 C 0.07778 0.17944 0.50489 0.0
C479 C 0.08152 0.15657 0.49653 0.0
C480 C 0.07623 0.13766 0.50936 0.0
C481 C 0.02557 0.04229 0.54466 0.0
C482 C 0.03989 0.05515 0.47936 0.0
C483 C 0.05556 0.98163 0.50822 0.0
C484 C 0.05276 0.96334 0.52394 0.0
C485 C 0.06389 0.94497 0.52119 0.0
C486 C 0.06155 0.9277 0.53623 0.0
C487 C 0.04787 0.92842 0.55411 0.0
C488 C 0.03675 0.94687 0.55684 0.0
C489 C 0.0393 0.96429 0.54203 0.0
C490 C 0.09162 0.06138 0.50768 0.0
C491 C 0.07732 0.04801 0.57332 0.0
O492 O 0.04389 0.1066 0.53956 0.0
O493 O 0.07825 0.11115 0.54866 0.0
O494 O 0.03397 0.0626 0.5595 0.0
O495 O 0.03427 0.04271 0.52567 0.0
O496 O 0.04752 0.07463 0.4969 0.0
O497 O 0.04157 0.03345 0.48344 0.0
O498 O 0.07426 0.99735 0.512 0.0
O499 O 0.03961 0.99196 0.50509 0.0
O500 O 0.0831 0.04119 0.49268 0.0
O501 O 0.08318 0.06072 0.52681 0.0
O502 O 0.07026 0.02872 0.55551 0.0
O503 O 0.07521 0.06966 0.56951 0.0
H504 H 0.05604 0.16697 0.55551 0.0
H505 H 0.06489 0.20005 0.53289 0.0
H506 H 0.08901 0.15342 0.48039 0.0
H507 H 0.07957 0.12032 0.50277 0.0
H508 H 0.07442 0.94401 0.50743 0.0
H509 H 0.07021 0.91357 0.53369 0.0
H510 H 0.02632 0.94801 0.57068 0.0
H511 H 0.03075 0.97851 0.54477 0.0
La512 La 0.33057 0.82062 0.76709 0.0
La513 La 0.29369 0.7879 0.78177 0.0
C514 C 0.36802 0.8454 0.76643 0.0
C515 C 0.38903 0.83934 0.76682 0.0
C516 C 0.40459 0.85078 0.7539 0.0
C517 C 0.4248 0.84545 0.75484 0.0
C518 C 0.42957 0.82844 0.76854 0.0
C519 C 0.41374 0.81667 0.78099 0.0
C520 C 0.39373 0.82214 0.78023 0.0
C521 C 0.30248 0.79383 0.73103 0.0
C522 C 0.33441 0.76541 0.77516 0.0
C523 C 0.25676 0.76223 0.78299 0.0
C524 C 0.23508 0.76625 0.78383 0.0
C525 C 0.22195 0.75517 0.79931 0.0
C526 C 0.20065 0.75702 0.79881 0.0
C527 C 0.19204 0.76975 0.78257 0.0
C528 C 0.20563 0.78173 0.76785 0.0
C529 C 0.22696 0.78013 0.76859 0.0
C530 C 0.32178 0.81572 0.81764 0.0
C531 C 0.28948 0.84281 0.77353 0.0
O532 O 0.35424 0.83575 0.74691 0.0
O533 O 0.35907 0.84386 0.78611 0.0
O534 O 0.31282 0.81607 0.73126 0.0
O535 O 0.30884 0.78733 0.75015 0.0
O536 O 0.34408 0.78795 0.77237 0.0
O537 O 0.31359 0.76064 0.77783 0.0
O538 O 0.2708 0.77186 0.8023 0.0
O539 O 0.26498 0.76496 0.76302 0.0
O540 O 0.31149 0.79365 0.81814 0.0
O541 O 0.31516 0.82129 0.79823 0.0
O542 O 0.2798 0.8202 0.7762 0.0
O543 O 0.31038 0.84773 0.77101 0.0
H544 H 0.40121 0.86404 0.74339 0.0
H545 H 0.43674 0.85477 0.74506 0.0
H546 H 0.41707 0.80388 0.79212 0.0
H547 H 0.38212 0.81326 0.7906 0.0
H548 H 0.22803 0.7446 0.81138 0.0
H549 H 0.1908 0.748 0.81075 0.0
H550 H 0.19958 0.79144 0.75489 0.0
H551 H 0.23685 0.78908 0.75663 0.0
La552 La 0.57135 0.04554 0.05597 0.0
La553 La 0.54675 0.03129 1.00647 0.0
C554 C 0.5842 0.05689 0.10051 0.0
C555 C 0.57353 0.05419 0.12201 0.0
C556 C 0.58206 0.04299 0.13963 0.0
C557 C 0.5713 0.03853 0.15932 0.0
C558 C 0.55188 0.0454 0.16177 0.0
C559 C 0.54349 0.05681 0.1441 0.0
C560 C 0.55411 0.06099 0.12431 0.0
C561 C 0.58081 1.0098 0.02759 0.0
C562 C 0.5237 1.01284 0.04671 0.0
C563 C 0.5342 0.01696 0.96205 0.0
C564 C 0.54162 0.02631 0.94095 0.0
C565 C 0.55012 0.05132 0.94229 0.0
C566 C 0.56006 0.05973 0.92337 0.0
C567 C 0.5619 0.04317 0.90317 0.0
C568 C 0.55259 0.01829 0.90145 0.0
C569 C 0.54246 1.00992 0.92024 0.0
C570 C 0.53696 0.0675 0.03375 0.0
C571 C 0.59367 0.06772 0.01619 0.0
O572 O 0.58502 0.03643 0.08727 0.0
O573 O 0.57896 0.07217 0.08746 0.0
O574 O 0.59495 0.02674 0.04232 0.0
O575 O 0.5623 1.01294 0.02949 0.0
O576 O 0.53816 0.03034 0.06158 0.0
O577 O 0.52705 1.00581 0.02437 0.0
O578 O 0.52517 0.03084 0.9761 0.0
O579 O 0.54808 1.00833 0.97427 0.0
O580 O 0.52327 0.05124 0.01786 0.0
O581 O 0.55556 0.06414 0.03288 0.0
O582 O 0.57851 0.05185 1.00036 0.0
O583 O 0.59252 0.07098 0.03959 0.0
H584 H 0.59689 0.03731 0.13793 0.0
H585 H 0.57806 0.02947 0.17245 0.0
H586 H 0.52881 0.0628 0.14566 0.0
H587 H 0.54703 0.06939 0.11078 0.0
H588 H 0.54989 0.06424 0.95834 0.0
H589 H 0.56735 0.07895 0.9251 0.0
H590 H 0.55383 1.00527 0.88592 0.0
H591 H 0.53612 0.99058 0.91905 0.0
La592 La 0.32338 0.3223 0.28459 0.0
La593 La 0.29614 0.27499 0.26101 0.0
C594 C 0.34896 0.3634 0.29735 0.0
C595 C 0.34428 0.38624 0.30832 0.0
C596 C 0.33131 0.3865 0.32693 0.0
C597 C 0.32075 0.40504 0.33172 0.0
C598 C 0.32275 0.42338 0.31775 0.0
C599 C 0.33771 0.42458 0.30114 0.0
C600 C 0.34843 0.40614 0.29651 0.0
C601 C 0.30668 0.29533 0.31508 0.0
C602 C 0.27454 0.31804 0.27895 0.0
C603 C 0.27073 0.23373 0.24838 0.0
C604 C 0.27569 0.21032 0.23969 0.0
C605 C 0.28686 0.20747 0.21969 0.0
C606 C 0.29704 0.18848 0.2158 0.0
C607 C 0.29645 0.17222 0.23198 0.0
C608 C 0.28339 0.17365 0.25046 0.0
C609 C 0.27302 0.19249 0.25419 0.0
C610 C 0.31276 0.30235 0.23066 0.0
C611 C 0.34466 0.27891 0.26676 0.0
O612 O 0.34744 0.34639 0.31045 0.0
O613 O 0.33936 0.35486 0.27521 0.0
O614 O 0.30926 0.31859 0.3177 0.0
O615 O 0.31418 0.28789 0.29625 0.0
O616 O 0.29349 0.33364 0.28251 0.0
O617 O 0.27237 0.29445 0.27249 0.0
O618 O 0.27373 0.24982 0.23428 0.0
O619 O 0.27863 0.24338 0.27087 0.0
O620 O 0.31047 0.2791 0.22798 0.0
O621 O 0.30516 0.30947 0.2495 0.0
O622 O 0.32578 0.26358 0.26506 0.0
O623 O 0.34678 0.30264 0.27169 0.0
H624 H 0.32782 0.3714 0.33641 0.0
H625 H 0.30969 0.40393 0.34498 0.0
H626 H 0.33959 0.4384 0.28999 0.0
H627 H 0.35831 0.40623 0.28205 0.0
H628 H 0.2891 0.22082 0.20802 0.0
H629 H 0.30654 0.18751 0.20106 0.0
H630 H 0.28263 0.16154 0.26337 0.0
H631 H 0.26446 0.1943 0.26969 0.0
La632 La 0.56046 0.57632 0.03678 0.0
La633 La 0.56265 0.52704 0.01554 0.0
C634 C 0.56532 0.62169 0.04534 0.0
C635 C 0.57092 0.64041 0.03055 0.0
C636 C 0.56542 0.66263 0.03626 0.0
C637 C 0.57125 0.68071 0.02256 0.0
C638 C 0.58278 0.67686 1.00298 0.0
C639 C 0.58806 0.65439 0.99724 0.0
C640 C 0.58209 0.6363 1.01081 0.0
C641 C 0.52808 0.54177 0.0441 0.0
C642 C 0.54305 0.55581 0.97927 0.0
C643 C 0.55844 0.4818 1.00679 0.0
C644 C 0.55534 0.46275 0.02163 0.0
C645 C 0.56732 0.44516 0.01912 0.0
C646 C 0.56448 0.42691 0.03303 0.0
C647 C 0.54942 0.42585 0.04947 0.0
C648 C 0.53754 0.44357 0.05208 0.0
C649 C 0.54058 0.46198 0.03842 0.0
C650 C 0.59454 0.56181 1.00773 0.0
C651 C 0.57999 0.54741 0.0731 0.0
O652 O 0.54656 0.60629 0.03868 0.0
O653 O 0.58052 0.61083 0.0505 0.0
O654 O 0.53644 0.56191 0.05923 0.0
O655 O 0.53697 0.54255 0.02527 0.0
O656 O 0.55078 0.57508 0.99701 0.0
O657 O 0.54454 0.53399 0.98316 0.0
O658 O 0.57715 0.49754 1.01124 0.0
O659 O 0.54252 0.49221 1.00383 0.0
O660 O 0.58605 0.54176 0.99254 0.0
O661 O 0.58606 0.56086 0.0268 0.0
O662 O 0.57278 0.52824 0.05515 0.0
O663 O 0.57802 0.56914 0.06942 0.0
H664 H 0.55668 0.66602 0.05135 0.0
H665 H 0.5666 0.69764 0.02723 0.0
H666 H 0.59716 0.65089 0.98252 0.0
H667 H 0.58645 0.61919 1.00608 0.0
H668 H 0.57883 0.44551 1.00634 0.0
H669 H 0.57376 0.41336 0.03062 0.0
H670 H 0.52603 0.44331 0.06485 0.0
H671 H 0.53132 0.47554 0.04097 0.0
La672 La 0.82988 0.31591 0.26669 0.0
La673 La 0.79181 0.28196 0.27877 0.0
C674 C 0.86765 0.34156 0.26928 0.0
C675 C 0.88907 0.33653 0.27184 0.0
C676 C 0.9065 0.35157 0.26427 0.0
C677 C 0.92706 0.34728 0.26765 0.0
C678 C 0.93039 0.32766 0.2784 0.0
C679 C 0.91262 0.31227 0.28523 0.0
C680 C 0.89232 0.31692 0.28238 0.0
C681 C 0.80238 0.29067 0.22934 0.0
C682 C 0.8328 0.25988 0.27307 0.0
C683 C 0.7547 0.25567 0.27796 0.0
C684 C 0.73267 0.25849 0.2736 0.0
C685 C 0.71636 0.24472 0.28393 0.0
C686 C 0.69494 0.24525 0.27784 0.0
C687 C 0.68965 0.25943 0.26118 0.0
C688 C 0.70616 0.2741 0.25175 0.0
C689 C 0.72754 0.27371 0.258 0.0
C690 C 0.8197 0.30724 0.3158 0.0
C691 C 0.78851 0.33762 0.27213 0.0
O692 O 0.85524 0.33153 0.24883 0.0
O693 O 0.85725 0.33939 0.28789 0.0
O694 O 0.81333 0.31285 0.2303 0.0
O695 O 0.80812 0.28344 0.24821 0.0
O696 O 0.84269 0.28256 0.27091 0.0
O697 O 0.8119 0.25493 0.27529 0.0
O698 O 0.76652 0.26865 0.29778 0.0
O699 O 0.76522 0.25581 0.2593 0.0
O700 O 0.80906 0.28497 0.31484 0.0
O701 O 0.81353 0.31434 0.29708 0.0
O702 O 0.77844 0.31465 0.27325 0.0
O703 O 0.80962 0.34282 0.27078 0.0
H704 H 0.9043 0.3669 0.25622 0.0
H705 H 0.94039 0.35974 0.26248 0.0
H706 H 0.91438 0.2967 0.2931 0.0
H707 H 0.87929 0.3054 0.28891 0.0
H708 H 0.7201 0.23294 0.29606 0.0
H709 H 0.68244 0.23369 0.28521 0.0
H710 H 0.70244 0.28533 0.23903 0.0
H711 H 0.73996 0.28463 0.24995 0.0
La712 La 0.06961 0.56112 0.55189 0.0
La713 La 0.05751 0.56478 0.50103 0.0
C714 C 0.07314 0.56141 0.59651 0.0
C715 C 0.06204 0.54501 0.61131 0.0
C716 C 0.07405 0.53417 0.62636 0.0
C717 C 0.06379 0.51854 0.64055 0.0
C718 C 0.04132 0.51369 0.64008 0.0
C719 C 0.0293 0.524 0.62433 0.0
C720 C 0.03954 0.5394 0.61001 0.0
C721 C 0.07558 0.52562 0.51987 0.0
C722 C 0.02083 0.54085 0.527 0.0
C723 C 0.0541 0.56639 0.45676 0.0
C724 C 0.06861 0.57139 0.43884 0.0
C725 C 0.06393 0.58588 0.42233 0.0
C726 C 0.07759 0.59141 0.40529 0.0
C727 C 0.09609 0.58235 0.40437 0.0
C728 C 0.10095 0.56819 0.42131 0.0
C729 C 0.08736 0.56284 0.43853 0.0
C730 C 0.04962 0.59829 0.53343 0.0
C731 C 0.10565 0.58309 0.52578 0.0
O732 O 0.0851 0.55208 0.58224 0.0
O733 O 0.06181 0.57406 0.58581 0.0
O734 O 0.08775 0.53455 0.54023 0.0
O735 O 0.05993 0.53528 0.51866 0.0
O736 O 0.03446 0.54774 0.5473 0.0
O737 O 0.02709 0.54248 0.50568 0.0
O738 O 0.05494 0.58497 0.47368 0.0
O739 O 0.05316 0.54626 0.46521 0.0
O740 O 0.03705 0.58805 0.51359 0.0
O741 O 0.06641 0.59049 0.53442 0.0
O742 O 0.09267 0.57195 0.50572 0.0
O743 O 0.09797 0.58668 0.5464 0.0
H744 H 0.09142 0.53798 0.62731 0.0
H745 H 0.07348 0.51073 0.65231 0.0
H746 H 1.01204 0.52114 0.6238 0.0
H747 H 0.02981 0.54724 0.59832 0.0
H748 H 0.04968 0.59293 0.42264 0.0
H749 H 0.0736 0.60269 0.39275 0.0
H750 H 0.11494 0.56068 0.42088 0.0
H751 H 0.0914 0.5519 0.4514 0.0
La752 La 0.78873 0.8014 0.2748 0.0
La753 La 0.83422 0.79376 0.28015 0.0
C754 C 0.74842 0.79107 0.27517 0.0
C755 C 0.7305 0.79664 0.28787 0.0
C756 C 0.71027 0.7935 0.27436 0.0
C757 C 0.69203 0.79432 0.28584 0.0
C758 C 0.69353 0.79826 0.31121 0.0
C759 C 0.71405 0.80248 0.32475 0.0
C760 C 0.73232 0.80162 0.31322 0.0
C761 C 0.81715 0.84435 0.27441 0.0
C762 C 0.81693 0.81452 0.32703 0.0
C763 C 0.87318 0.79301 0.27747 0.0
C764 C 0.89047 0.79702 0.26172 0.0
C765 C 0.89715 0.77702 0.25017 0.0
C766 C 0.9149 0.78032 0.23744 0.0
C767 C 0.92665 0.80377 0.23599 0.0
C768 C 0.91978 0.82382 0.2473 0.0
C769 C 0.90195 0.82051 0.26002 0.0
C770 C 0.80296 0.75585 0.28653 0.0
C771 C 0.80834 0.7873 0.22751 0.0
O772 O 0.75817 0.80651 0.26258 0.0
O773 O 0.76182 0.78119 0.28667 0.0
O774 O 0.79631 0.84068 0.27264 0.0
O775 O 0.82083 0.82386 0.27658 0.0
O776 O 0.79763 0.8096 0.31414 0.0
O777 O 0.83422 0.81173 0.31707 0.0
O778 O 0.8569 0.77408 0.27019 0.0
O779 O 0.86708 0.81188 0.28792 0.0
O780 O 0.82222 0.7631 0.29848 0.0
O781 O 0.80208 0.7698 0.27121 0.0
O782 O 0.8273 0.79214 0.24111 0.0
O783 O 0.79038 0.78745 0.23707 0.0
H784 H 0.7084 0.78947 0.2548 0.0
H785 H 0.67665 0.79143 0.27478 0.0
H786 H 0.71589 0.8054 0.34429 0.0
H787 H 0.74768 0.80391 0.32413 0.0
H788 H 0.88895 0.75871 0.25149 0.0
H789 H 0.9198 0.76442 0.22935 0.0
H790 H 0.92822 0.84215 0.24637 0.0
H791 H 0.89744 0.83638 0.26886 0.0
La792 La 0.81904 0.3 0.74975 0.0
La793 La 0.80703 0.31279 0.80057 0.0
C794 C 0.821 0.2846 0.70608 0.0
C795 C 0.82949 0.2954 0.68626 0.0
C796 C 0.83174 0.28044 0.66514 0.0
C797 C 0.83752 0.29054 0.64513 0.0
C798 C 0.84094 0.31572 0.64602 0.0
C799 C 0.83979 0.3307 0.66782 0.0
C800 C 0.8342 0.32062 0.6878 0.0
C801 C 0.8496 0.30398 0.78616 0.0
C802 C 0.82864 0.35432 0.77335 0.0
C803 C 0.81134 0.32019 0.84587 0.0
C804 C 0.8158 0.30454 0.86278 0.0
C805 C 0.81852 0.31273 0.88777 0.0
C806 C 0.82173 0.29699 0.90355 0.0
C807 C 0.82236 0.27295 0.89442 0.0
C808 C 0.82028 0.26523 0.86932 0.0
C809 C 0.81676 0.28077 0.85371 0.0
C810 C 0.77679 0.31897 0.76785 0.0
C811 C 0.79143 0.25881 0.77335 0.0
O812 O 0.83532 0.28398 0.72383 0.0
O813 O 0.8046 0.29192 0.71376 0.0
O814 O 0.85276 0.31165 0.76612 0.0
O815 O 0.82968 0.29444 0.78527 0.0
O816 O 0.82427 0.33888 0.75255 0.0
O817 O 0.82595 0.34735 0.79434 0.0
O818 O 0.79265 0.31219 0.83215 0.0
O819 O 0.82704 0.3275 0.83353 0.0
O820 O 0.77693 0.32377 0.79104 0.0
O821 O 0.79366 0.31189 0.76464 0.0
O822 O 0.79337 0.2739 0.79401 0.0
O823 O 0.79952 0.26543 0.75422 0.0
H824 H 0.82833 0.26091 0.66386 0.0
H825 H 0.83859 0.27858 0.62872 0.0
H826 H 0.84195 0.35011 0.6691 0.0
H827 H 0.83263 0.3324 0.70411 0.0
H828 H 0.81772 0.33105 0.89503 0.0
H829 H 0.82304 0.3034 0.9228 0.0
H830 H 0.82108 0.24702 0.86167 0.0
H831 H 0.81445 0.27408 0.83449 0.0
La832 La 0.82609 0.82446 0.78738 0.0
La833 La 0.79438 0.77941 0.76497 0.0
C834 C 0.8471 0.86805 0.79878 0.0
C835 C 0.83978 0.89067 0.80026 0.0
C836 C 0.82674 0.89669 0.81764 0.0
C837 C 0.81542 0.91437 0.8152 0.0
C838 C 0.81692 0.92627 0.79534 0.0
C839 C 0.83157 0.92194 0.77933 0.0
C840 C 0.84299 0.90434 0.78185 0.0
C841 C 0.81824 0.7926 0.81664 0.0
C842 C 0.77594 0.82216 0.78505 0.0
C843 C 0.77535 0.73535 0.75344 0.0
C844 C 0.78497 0.71478 0.75647 0.0
C845 C 0.79229 0.70251 0.7367 0.0
C846 C 0.80745 0.68901 0.74045 0.0
C847 C 0.81544 0.68759 0.76404 0.0
C848 C 0.80635 0.6976 0.78353 0.0
C849 C 0.79119 0.71098 0.77981 0.0
C850 C 0.8015 0.81134 0.73584 0.0
C851 C 0.84451 0.78161 0.76893 0.0
O852 O 0.84115 0.85442 0.81459 0.0
O853 O 0.84454 0.85521 0.77701 0.0
O854 O 0.83689 0.80693 0.81641 0.0
O855 O 0.80468 0.79726 0.80156 0.0
O856 O 0.79572 0.83585 0.78684 0.0
O857 O 0.77157 0.79834 0.77878 0.0
O858 O 0.78337 0.74828 0.7379 0.0
O859 O 0.77339 0.74916 0.7734 0.0
O860 O 0.783 0.79697 0.73661 0.0
O861 O 0.81554 0.8067 0.75047 0.0
O862 O 0.82482 0.76808 0.76798 0.0
O863 O 0.84868 0.80543 0.77359 0.0
H864 H 0.82412 0.88672 0.83226 0.0
H865 H 0.80457 0.91777 0.82809 0.0
H866 H 0.83305 0.93081 0.76383 0.0
H867 H 0.85311 0.90019 0.76835 0.0
H868 H 0.78768 0.70502 0.71851 0.0
H869 H 0.81411 0.68131 0.72509 0.0
H870 H 0.81181 0.69615 0.80185 0.0
H871 H 0.78568 0.71985 0.79547 0.0
La872 La 0.54244 0.53599 0.51306 0.0
La873 La 0.58269 0.5684 0.54211 0.0
C874 C 0.50319 0.51513 0.50227 0.0
C875 C 0.48492 0.52389 0.51026 0.0
C876 C 0.46439 0.51541 0.49687 0.0
C877 C 0.44789 0.52655 0.50281 0.0
C878 C 0.45184 0.5463 0.52222 0.0
C879 C 0.47228 0.55401 0.53609 0.0
C880 C 0.48871 0.5431 0.52998 0.0
C881 C 0.5736 0.53714 0.4833 0.0
C882 C 0.55199 0.59318 0.51366 0.0
C883 C 0.62151 0.59094 0.55403 0.0
C884 C 0.64116 0.58348 0.54945 0.0
C885 C 0.66119 0.59738 0.56151 0.0
C886 C 0.6795 0.58831 0.55967 0.0
C887 C 0.67772 0.56517 0.54602 0.0
C888 C 0.65775 0.5518 0.53321 0.0
C889 C 0.6396 0.56093 0.53486 0.0
C890 C 0.5514 0.56743 0.57173 0.0
C891 C 0.57364 0.5113 0.54134 0.0
O892 O 0.51405 0.52839 0.48868 0.0
O893 O 0.51585 0.51003 0.51925 0.0
O894 O 0.55386 0.5244 0.47854 0.0
O895 O 0.57541 0.54798 0.50539 0.0
O896 O 0.53749 0.57209 0.50931 0.0
O897 O 0.57132 0.59561 0.52535 0.0
O898 O 0.61023 0.57846 0.56788 0.0
O899 O 0.60952 0.59337 0.53496 0.0
O900 O 0.57106 0.58026 0.57636 0.0
O901 O 0.54964 0.55646 0.5497 0.0
O902 O 0.58793 0.53255 0.54575 0.0
O903 O 0.55418 0.50861 0.52967 0.0
H904 H 0.46134 0.50087 0.48133 0.0
H905 H 0.43237 0.52038 0.49162 0.0
H906 H 0.47577 0.56888 0.55137 0.0
H907 H 0.50463 0.55026 0.54014 0.0
H908 H 0.66253 0.61476 0.57296 0.0
H909 H 0.69479 0.59885 0.5697 0.0
H910 H 0.65612 0.53404 0.52234 0.0
H911 H 0.62419 0.55 0.52545 0.0
La912 La 0.08387 0.55221 0.03086 0.0
La913 La 0.03462 0.54552 0.02882 0.0
C914 C 0.12268 0.55085 0.04147 0.0
C915 C 0.13843 0.53567 0.03826 0.0
C916 C 0.15828 0.54576 0.03114 0.0
C917 C 0.17465 0.53331 0.03075 0.0
C918 C 0.17164 0.51039 0.03758 0.0
C919 C 0.15146 0.49995 0.04402 0.0
C920 C 0.13505 0.51246 0.04441 0.0
C921 C 0.06269 0.55441 0.98949 0.0
C922 C 0.05191 0.49837 0.01673 0.0
C923 C 0.99585 0.54704 0.01818 0.0
C924 C 0.98118 0.56373 0.01823 0.0
C925 C 0.97236 0.57115 0.0391 0.0
C926 C 0.95651 0.58434 0.03813 0.0
C927 C 0.94896 0.59039 0.01625 0.0
C928 C 0.95812 0.58335 0.9955 0.0
C929 C 0.97394 0.57015 0.99647 0.0
C930 C 0.05513 0.54124 0.06951 0.0
C931 C 0.06686 0.59917 0.04262 0.0
O932 O 0.11577 0.55924 0.02278 0.0
O933 O 0.10743 0.5444 0.05459 0.0
O934 O 0.08247 0.56643 0.99686 0.0
O935 O 0.05655 0.54086 1.00402 0.0
O936 O 0.07179 0.51225 0.0239 0.0
O937 O 0.03489 0.50782 0.0148 0.0
O938 O 1.00368 0.5429 0.03894 0.0
O939 O 1.01006 0.54868 1.00306 0.0
O940 O 0.03548 0.5293 0.0612 0.0
O941 O 0.06184 0.55603 0.05609 0.0
O942 O 0.04701 0.5855 0.03479 0.0
O943 O 0.08359 0.58949 0.04552 0.0
H944 H 0.16137 0.56367 0.02644 0.0
H945 H 0.18977 0.54179 0.02527 0.0
H946 H 0.14855 0.48244 0.04958 0.0
H947 H 0.11997 0.50422 0.05014 0.0
H948 H 0.97734 0.56632 0.05614 0.0
H949 H 0.95009 0.5897 0.05456 0.0
H950 H 0.95256 0.58731 0.97824 0.0
H951 H 0.98006 0.56435 0.97994 0.0
H952 H 0.04739 0.22142 0.94475 0.0
H953 H 0.98022 0.19373 0.95007 0.0
H954 H 0.05611 0.18831 0.96285 0.0
H955 H 0.98891 0.16118 0.96886 0.0
H956 H 1.00773 0.09093 0.97988 0.0
H957 H 0.99899 0.12433 0.96246 0.0
H958 H 0.05976 0.17155 0.99776 0.0
H959 H 0.06874 0.13793 0.01446 0.0
C960 C 0.03443 0.2084 0.94999 0.0
C961 C 1.01303 0.21039 0.94581 0.0
C962 C 0.03948 0.18938 0.96056 0.0
C963 C 0.02329 0.17169 0.96746 0.0
C964 C 1.00191 0.17395 0.9635 0.0
C965 C 0.99686 0.19287 0.95282 0.0
C966 C 0.01923 0.10848 0.98406 0.0
C967 C 0.039 0.11153 0.99868 0.0
C968 C 0.01415 0.12781 0.9741 0.0
C969 C 0.02861 0.15099 0.97849 0.0
C970 C 0.04826 0.15406 0.99343 0.0
C971 C 0.05339 0.1347 1.00328 0.0
H972 H 0.17589 0.79636 0.13582 0.0
H973 H 0.15996 0.84577 0.19285 0.0
H974 H 0.20766 0.79461 0.16186 0.0
H975 H 0.19222 0.84459 0.21883 0.0
H976 H 0.23469 0.81385 0.26857 0.0
H977 H 0.20517 0.81841 0.24119 0.0
H978 H 0.24312 0.81367 0.1825 0.0
H979 H 0.2729 0.80845 0.21035 0.0
C980 C 0.17925 0.80714 0.15387 0.0
C981 C 0.16507 0.8211 0.16217 0.0
C982 C 0.19771 0.80624 0.16883 0.0
C983 C 0.20272 0.81928 0.19271 0.0
C984 C 0.18885 0.83385 0.20078 0.0
C985 C 0.17032 0.83471 0.18578 0.0
C986 C 0.23687 0.81378 0.24982 0.0
C987 C 0.25627 0.81072 0.24174 0.0
C988 C 0.21987 0.81667 0.23405 0.0
C989 C 0.22154 0.81671 0.20946 0.0
C990 C 0.24101 0.81358 0.20123 0.0
C991 C 0.25818 0.81065 0.21718 0.0
H992 H 0.48489 0.8473 0.44499 0.0
H993 H 0.55048 0.84393 0.46473 0.0
H994 H 0.49407 0.89006 0.46255 0.0
H995 H 0.55962 0.88687 0.48376 0.0
H996 H 0.57374 0.97063 0.49438 0.0
H997 H 0.56606 0.92712 0.47828 0.0
H998 H 0.50156 0.91854 0.49709 0.0
H999 H 0.50894 0.96195 0.51169 0.0
C1000 C 0.50126 0.85561 0.45353 0.0
C1001 C 0.51689 0.84201 0.45351 0.0
C1002 C 0.50656 0.88031 0.46385 0.0
C1003 C 0.52763 0.89231 0.47498 0.0
C1004 C 0.54328 0.87859 0.47517 0.0
C1005 C 0.53802 0.85383 0.46442 0.0
C1006 C 0.55793 0.95937 0.49505 0.0
C1007 C 0.54187 0.96988 0.50403 0.0
C1008 C 0.55352 0.93429 0.48593 0.0
C1009 C 0.53301 0.91896 0.48593 0.0
C1010 C 0.51732 0.92955 0.4959 0.0
C1011 C 0.5216 0.95458 0.50452 0.0
H1012 H 0.54608 0.34186 0.67565 0.0
H1013 H 0.54068 0.2665 0.68015 0.0
H1014 H 0.51341 0.34084 0.6946 0.0
H1015 H 0.50792 0.26536 0.69863 0.0
H1016 H 0.46155 0.27799 0.75307 0.0
H1017 H 0.49465 0.27967 0.73506 0.0
H1018 H 0.47484 0.32428 0.68681 0.0
H1019 H 0.4421 0.32331 0.70541 0.0
C1020 C 0.53797 0.32507 0.68069 0.0
C1021 C 0.54613 0.30428 0.67636 0.0
C1022 C 0.51909 0.32443 0.69141 0.0
C1023 C 0.50787 0.30299 0.69818 0.0
C1024 C 0.51618 0.28229 0.69401 0.0
C1025 C 0.53499 0.28292 0.68325 0.0
C1026 C 0.46428 0.28829 0.73872 0.0
C1027 C 0.44901 0.3005 0.73077 0.0
C1028 C 0.48323 0.28907 0.72819 0.0
C1029 C 0.48757 0.30213 0.70941 0.0
C1030 C 0.47226 0.31426 0.70139 0.0
C1031 C 0.45327 0.31342 0.71187 0.0
H1032 H 0.05968 0.81091 0.62995 0.0
H1033 H 1.00505 0.83381 0.65546 0.0
H1034 H 0.06397 0.84162 0.60462 0.0
H1035 H 1.00992 0.86544 0.63092 0.0
H1036 H 1.01035 0.90211 0.56499 0.0
H1037 H 1.00582 0.87148 0.59064 0.0
H1038 H 0.07502 0.8835 0.60531 0.0
H1039 H 0.07935 0.91341 0.57888 0.0
C1040 C 0.04875 0.82276 0.6304 0.0
C1041 C 0.03204 0.81997 0.64473 0.0
C1042 C 0.05129 0.8405 0.61595 0.0
C1043 C 0.03735 0.85615 0.61571 0.0
C1044 C 0.02075 0.85349 0.6303 0.0
C1045 C 0.01803 0.83548 0.64452 0.0
C1046 C 0.02455 0.89818 0.57378 0.0
C1047 C 0.04519 0.91003 0.56991 0.0
C1048 C 0.02199 0.88073 0.58859 0.0
C1049 C 0.04005 0.87495 0.60013 0.0
C1050 C 0.06071 0.88707 0.59638 0.0
C1051 C 0.06324 0.90428 0.58131 0.0
H1052 H 0.52917 0.7892 0.84689 0.0
H1053 H 0.56629 0.84107 0.80992 0.0
H1054 H 0.49654 0.78925 0.82138 0.0
H1055 H 0.53364 0.84068 0.78398 0.0
H1056 H 0.46767 0.86265 0.77798 0.0
H1057 H 0.50284 0.85701 0.79187 0.0
H1058 H 0.47619 0.77949 0.78115 0.0
H1059 H 0.44084 0.78523 0.7674 0.0
C1060 C 0.53043 0.80026 0.83301 0.0
C1061 C 0.55025 0.81541 0.83068 0.0
C1062 C 0.51174 0.80014 0.81822 0.0
C1063 C 0.51249 0.81509 0.80073 0.0
C1064 C 0.53251 0.82923 0.79752 0.0
C1065 C 0.55121 0.82941 0.81236 0.0
C1066 C 0.46946 0.84434 0.77787 0.0
C1067 C 0.45149 0.82441 0.77192 0.0
C1068 C 0.48963 0.84109 0.78583 0.0
C1069 C 0.49223 0.81782 0.78791 0.0
C1070 C 0.47458 0.79768 0.78019 0.0
C1071 C 0.45439 0.80095 0.77228 0.0
H1072 H 0.52616 0.21271 0.08103 0.0
H1073 H 0.48658 0.17234 0.12573 0.0
H1074 H 0.53397 0.17533 0.06156 0.0
H1075 H 0.49433 0.13484 0.10593 0.0
H1076 H 0.49736 0.07222 0.04251 0.0
H1077 H 0.48789 0.1083 0.06315 0.0
H1078 H 0.55514 0.1462 0.07719 0.0
H1079 H 0.56464 0.10999 0.05674 0.0
C1080 C 0.51888 0.19583 0.08648 0.0
C1081 C 0.50581 0.1955 0.105 0.0
C1082 C 0.52353 0.1745 0.07548 0.0
C1083 C 0.51498 0.15234 0.08251 0.0
C1084 C 0.50114 0.15175 0.10024 0.0
C1085 C 0.4967 0.17318 0.11152 0.0
C1086 C 0.5101 0.08825 0.05018 0.0
C1087 C 0.53169 0.08855 0.0479 0.0
C1088 C 0.50469 0.10878 0.06203 0.0
C1089 C 0.52077 0.13003 0.07148 0.0
C1090 C 0.54244 0.13009 0.06974 0.0
C1091 C 0.54788 0.10942 0.05821 0.0
H1092 H 0.17435 0.37211 0.3489 0.0
H1093 H 0.15751 0.29362 0.33263 0.0
H1094 H 0.20532 0.37282 0.32691 0.0
H1095 H 0.18851 0.29432 0.31137 0.0
H1096 H 0.23331 0.29781 0.25867 0.0
H1097 H 0.20106 0.30458 0.27484 0.0
H1098 H 0.24029 0.3625 0.3302 0.0
H1099 H 0.2726 0.35625 0.31332 0.0
C1100 C 0.1773 0.35503 0.34072 0.0
C1101 C 0.16346 0.33279 0.34242 0.0
C1102 C 0.19503 0.35546 0.32816 0.0
C1103 C 0.1992 0.33366 0.3171 0.0
C1104 C 0.18544 0.31148 0.3191 0.0
C1105 C 0.16776 0.31106 0.33152 0.0
C1106 C 0.23497 0.31241 0.2739 0.0
C1107 C 0.25537 0.32627 0.285 0.0
C1108 C 0.21654 0.31616 0.28329 0.0
C1109 C 0.21819 0.33355 0.30425 0.0
C1110 C 0.23849 0.3489 0.31408 0.0
C1111 C 0.25699 0.34535 0.30442 0.0
H1112 H 0.96831 0.10912 0.18166 0.0
H1113 H 0.97179 0.03799 0.19395 0.0
H1114 H 0.98713 0.10433 0.14694 0.0
H1115 H 0.99119 0.03312 0.15843 0.0
H1116 H 0.0143 0.02619 0.07938 0.0
H1117 H 0.99309 0.02767 0.1136 0.0
H1118 H 0.02005 0.10486 0.13304 0.0
H1119 H 0.04059 0.10325 0.09923 0.0
C1120 C 0.97313 0.09227 0.17722 0.0
C1121 C 0.96816 0.07414 0.19162 0.0
C1122 C 0.98431 0.08954 0.15686 0.0
C1123 C 0.99137 0.06834 0.14903 0.0
C1124 C 0.98626 0.04985 0.16318 0.0
C1125 C 0.97511 0.05272 0.18399 0.0
C1126 C 0.01518 0.04362 0.09043 0.0
C1127 C 0.02895 0.06475 0.08534 0.0
C1128 C 1.00319 0.04446 0.11067 0.0
C1129 C 1.00421 0.06649 0.12687 0.0
C1130 C 0.01794 0.08742 0.12143 0.0
C1131 C 0.02997 0.08651 0.1016 0.0
H1132 H 0.2332 0.67322 0.4887 0.0
H1133 H 0.30179 0.70325 0.49389 0.0
H1134 H 0.22659 0.70113 0.46198 0.0
H1135 H 0.29516 0.73081 0.46722 0.0
H1136 H 0.23475 0.72987 0.38747 0.0
H1137 H 0.23366 0.70627 0.41982 0.0
H1138 H 0.27928 0.76628 0.46678 0.0
H1139 H 0.28126 0.78937 0.43441 0.0
C1140 C 0.24684 0.68581 0.48422 0.0
C1141 C 0.26804 0.68604 0.49333 0.0
C1142 C 0.24302 0.70173 0.46895 0.0
C1143 C 0.26033 0.7183 0.46281 0.0
C1144 C 0.28147 0.71859 0.47208 0.0
C1145 C 0.28529 0.70261 0.48714 0.0
C1146 C 0.24422 0.73819 0.40486 0.0
C1147 C 0.25847 0.76128 0.40812 0.0
C1148 C 0.24344 0.72475 0.42343 0.0
C1149 C 0.25682 0.73429 0.44555 0.0
C1150 C 0.26917 0.75835 0.44968 0.0
C1151 C 0.27005 0.7717 0.43115 0.0
H1152 H 0.59882 1.00147 0.70131 0.0
H1153 H 0.6549 0.02547 0.66687 0.0
H1154 H 0.57559 1.00333 0.66515 0.0
H1155 H 0.63175 0.02694 0.63079 0.0
H1156 H 0.58712 0.06465 0.59167 0.0
H1157 H 0.60924 0.05597 0.62503 0.0
H1158 H 0.5638 0.98698 0.62073 0.0
H1159 H 0.54161 0.99574 0.58712 0.0
C1160 C 0.60614 1.00653 0.68582 0.0
C1161 C 0.62863 1.0137 0.68698 0.0
C1162 C 0.59286 1.00758 0.66516 0.0
C1163 C 0.60195 1.01574 0.64543 0.0
C1164 C 0.62438 0.02114 0.646 0.0
C1165 C 0.6376 0.02018 0.66659 0.0
C1166 C 0.582 0.04755 0.59772 0.0
C1167 C 0.56293 0.03068 0.58672 0.0
C1168 C 0.59465 0.04254 0.61673 0.0
C1169 C 0.58835 0.02063 0.62517 0.0
C1170 C 0.56898 1.00397 0.61451 0.0
C1171 C 0.55635 1.00897 0.59535 0.0
H1172 H 0.28412 0.34444 0.97277 0.0
H1173 H 0.3494 0.38627 0.97587 0.0
H1174 H 0.28377 0.32756 0.93045 0.0
H1175 H 0.34885 0.37007 0.93328 0.0
H1176 H 0.34774 0.32299 0.86037 0.0
H1177 H 0.34875 0.33607 0.90369 0.0
H1178 H 0.28193 0.33835 0.89203 0.0
H1179 H 0.28076 0.32454 0.84899 0.0
C1180 C 0.29843 0.35005 0.96444 0.0
C1181 C 0.31677 0.36678 0.97782 0.0
C1182 C 0.29818 0.34049 0.94001 0.0
C1183 C 0.31621 0.34752 0.92813 0.0
C1184 C 0.33472 0.3639 0.94172 0.0
C1185 C 0.33502 0.37333 0.96621 0.0
C1186 C 0.33321 0.32612 0.86706 0.0
C1187 C 0.31416 0.32264 0.85104 0.0
C1188 C 0.33383 0.33382 0.89198 0.0
C1189 C 0.31545 0.3384 0.90161 0.0
C1190 C 0.29636 0.33467 0.88554 0.0
C1191 C 0.29571 0.32684 0.86069 0.0
H1192 H 0.94738 0.02817 0.34571 0.0
H1193 H 0.99028 0.09522 0.33855 0.0
H1194 H 0.9686 0.02802 0.38332 0.0
H1195 H 1.01208 0.09502 0.37702 0.0
H1196 H 0.03492 0.09661 0.4608 0.0
H1197 H 0.01579 0.09916 0.42178 0.0
H1198 H 1.00007 0.02111 0.40218 0.0
H1199 H 0.01889 0.01865 0.44084 0.0
C1200 C 0.96148 0.04303 0.35197 0.0
C1201 C 0.96671 0.06168 0.33827 0.0
C1202 C 0.97398 0.04281 0.37393 0.0
C1203 C 0.9926 0.06135 0.38396 0.0
C1204 C 0.99796 0.08027 0.37044 0.0
C1205 C 0.98543 0.08035 0.34803 0.0
C1206 C 0.02744 0.07992 0.44819 0.0
C1207 C 0.02869 0.05736 0.45467 0.0
C1208 C 0.01642 0.0814 0.42546 0.0
C1209 C 1.00581 0.06038 0.40813 0.0
C1210 C 1.00739 0.03793 0.41464 0.0
C1211 C 0.01851 0.03647 0.43713 0.0
H1212 H 0.31445 0.707 0.60183 0.0
H1213 H 0.24953 0.67179 0.61048 0.0
H1214 H 0.31591 0.73793 0.63722 0.0
H1215 H 0.25124 0.70268 0.64625 0.0
H1216 H 0.28401 0.74559 0.72628 0.0
H1217 H 0.27601 0.71519 0.68914 0.0
H1218 H 0.29461 0.77182 0.64795 0.0
H1219 H 0.30215 0.80235 0.68499 0.0
C1220 C 0.30056 0.70578 0.61138 0.0
C1221 C 0.28188 0.68699 0.60345 0.0
C1222 C 0.30133 0.7236 0.63145 0.0
C1223 C 0.28359 0.72272 0.64419 0.0
C1224 C 0.26506 0.70371 0.6366 0.0
C1225 C 0.26412 0.6861 0.61621 0.0
C1226 C 0.28577 0.7516 0.70922 0.0
C1227 C 0.29378 0.77628 0.70848 0.0
C1228 C 0.28123 0.73422 0.68802 0.0
C1229 C 0.28496 0.74125 0.66586 0.0
C1230 C 0.29183 0.76602 0.66493 0.0
C1231 C 0.29602 0.78344 0.68607 0.0
H1232 H 0.60479 0.06553 0.76903 0.0
H1233 H 0.66347 0.06956 0.81538 0.0
H1234 H 0.58568 0.06789 0.80431 0.0
H1235 H 0.64453 0.07242 0.85049 0.0
H1236 H 0.59523 0.0259 0.8895 0.0
H1237 H 0.6173 0.0374 0.85877 0.0
H1238 H 0.58176 0.09069 0.84582 0.0
H1239 H 0.5594 0.07893 0.87697 0.0
C1240 C 0.6137 0.06755 0.78679 0.0
C1241 C 0.6354 0.06663 0.78948 0.0
C1242 C 0.60282 0.0691 0.80696 0.0
C1243 C 0.6136 0.06989 0.82998 0.0
C1244 C 0.63579 0.07135 0.83283 0.0
C1245 C 0.64657 0.06961 0.81275 0.0
C1246 C 0.59218 0.04012 0.88013 0.0
C1247 C 0.57551 0.05132 0.8852 0.0
C1248 C 0.60497 0.04694 0.8628 0.0
C1249 C 0.60129 0.06505 0.85007 0.0
C1250 C 0.58486 0.07668 0.85544 0.0
C1251 C 0.57215 0.07 0.87314 0.0
H1252 H 0.37037 0.36546 0.11438 0.0
H1253 H 0.30859 0.38323 0.1121 0.0
H1254 H 0.36328 0.34641 0.1493 0.0
H1255 H 0.30148 0.36406 0.14723 0.0
H1256 H 0.30658 0.3474 0.22561 0.0
H1257 H 0.31422 0.36873 0.1918 0.0
H1258 H 0.33912 0.30997 0.15807 0.0
H1259 H 0.33147 0.28886 0.19157 0.0
C1260 C 0.35524 0.3653 0.12128 0.0
C1261 C 0.34003 0.37584 0.11024 0.0
C1262 C 0.35113 0.35428 0.14133 0.0
C1263 C 0.33178 0.35362 0.15115 0.0
C1264 C 0.31664 0.3644 0.14031 0.0
C1265 C 0.32065 0.37523 0.12003 0.0
C1266 C 0.3138 0.33918 0.21101 0.0
C1267 C 0.3184 0.31643 0.21126 0.0
C1268 C 0.31804 0.35129 0.19155 0.0
C1269 C 0.32729 0.34109 0.17212 0.0
C1270 C 0.3322 0.31853 0.17275 0.0
C1271 C 0.32774 0.30636 0.19195 0.0
H1272 H 0.25567 0.96953 0.02148 0.0
H1273 H 0.28785 0.02822 0.98865 0.0
H1274 H 0.22669 0.98956 0.02773 0.0
H1275 H 0.25837 0.04793 0.99415 0.0
H1276 H 0.21321 0.08818 0.03222 0.0
H1277 H 0.24275 0.06884 0.02549 0.0
H1278 H 0.19721 0.99882 1.00558 0.0
H1279 H 0.16801 0.01784 0.01372 0.0
C1280 C 0.25643 0.98659 0.01534 0.0
C1281 C 0.27401 0.99729 1.00454 0.0
C1282 C 0.23976 0.99803 0.01882 0.0
C1283 C 0.24018 0.0203 1.01135 0.0
C1284 C 0.25771 0.03094 1.00039 0.0
C1285 C 0.27452 0.01958 0.9971 0.0
C1286 C 0.20957 0.06864 0.02659 0.0
C1287 C 0.18826 0.05458 0.02346 0.0
C1288 C 0.22645 0.05759 0.02245 0.0
C1289 C 0.22232 0.03228 0.01503 0.0
C1290 C 0.20098 0.01831 1.0116 0.0
C1291 C 0.18418 0.0293 0.01591 0.0
H1292 H 0.70486 0.68587 0.02023 0.0
H1293 H 0.7262 0.62504 0.98476 0.0
H1294 H 0.66946 0.65949 0.0198 0.0
H1295 H 0.69063 0.59842 0.98463 0.0
H1296 H 0.61779 0.56201 0.96973 0.0
H1297 H 0.65255 0.5891 0.96746 0.0
H1298 H 0.65277 0.62719 0.03963 0.0
H1299 H 0.61811 0.60019 0.04177 0.0
C1300 C 0.70203 0.66684 1.01227 0.0
C1301 C 0.71853 0.65763 1.0026 0.0
C1302 C 0.68167 0.65164 1.01218 0.0
C1303 C 0.67711 0.62671 1.00237 0.0
C1304 C 0.69346 0.61754 0.99218 0.0
C1305 C 0.71392 0.6328 0.99234 0.0
C1306 C 0.62525 0.57626 0.98505 0.0
C1307 C 0.61514 0.57899 1.0059 0.0
C1308 C 0.64525 0.5917 0.98382 0.0
C1309 C 0.65559 0.61039 1.00336 0.0
C1310 C 0.64524 0.61326 0.02408 0.0
C1311 C 0.62533 0.59774 0.02535 0.0
H1312 H 0.68817 0.42508 0.26597 0.0
H1313 H 0.74615 0.48112 0.29198 0.0
H1314 H 0.70841 0.3944 0.26416 0.0
H1315 H 0.76691 0.44975 0.29062 0.0
H1316 H 0.80347 0.38774 0.27223 0.0
H1317 H 0.78424 0.42015 0.27446 0.0
H1318 H 0.72546 0.36793 0.27792 0.0
H1319 H 0.74467 0.33573 0.27521 0.0
C1320 C 0.70537 0.43121 0.27156 0.0
C1321 C 0.7149 0.45651 0.27922 0.0
C1322 C 0.71731 0.41301 0.27067 0.0
C1323 C 0.73994 0.41843 0.27741 0.0
C1324 C 0.74971 0.44385 0.285 0.0
C1325 C 0.7376 0.46229 0.28593 0.0
C1326 C 0.78638 0.38294 0.27334 0.0
C1327 C 0.77606 0.35826 0.2733 0.0
C1328 C 0.77512 0.40197 0.27482 0.0
C1329 C 0.75264 0.39775 0.2763 0.0
C1330 C 0.74243 0.37298 0.27638 0.0
C1331 C 0.7537 0.354 0.27494 0.0
H1332 H 0.89126 0.5105 0.56777 0.0
H1333 H 0.88439 0.49387 0.48976 0.0
H1334 H 0.93022 0.52503 0.56912 0.0
H1335 H 0.92281 0.5069 0.49113 0.0
H1336 H 1.00005 0.51917 0.56086 0.0
H1337 H 0.96118 0.50938 0.56242 0.0
H1338 H 0.95155 0.54089 0.49882 0.0
H1339 H 0.98975 0.54908 0.49651 0.0
C1340 C 0.89803 0.51013 0.55097 0.0
C1341 C 0.88479 0.50111 0.52869 0.0
C1342 C 0.92032 0.51818 0.55174 0.0
C1343 C 0.92963 0.51709 0.53024 0.0
C1344 C 0.91621 0.50853 0.50803 0.0
C1345 C 0.89409 0.50091 0.50725 0.0
C1346 C 0.98945 0.52366 0.54714 0.0
C1347 C 0.99768 0.53419 0.52819 0.0
C1348 C 0.9673 0.51839 0.54818 0.0
C1349 C 0.95324 0.52412 0.53057 0.0
C1350 C 0.96179 0.53554 0.51223 0.0
C1351 C 0.9837 0.5402 0.51088 0.0
H1352 H 0.37766 0.10385 0.3044 0.0
H1353 H 0.40705 0.10621 0.239 0.0
H1354 H 0.34883 0.11965 0.28696 0.0
H1355 H 0.3781 0.12232 0.22162 0.0
H1356 H 0.33834 0.18372 0.22382 0.0
H1357 H 0.36584 0.1623 0.23273 0.0
H1358 H 0.31787 0.10494 0.25129 0.0
H1359 H 0.29002 0.12599 0.24167 0.0
C1360 C 0.37802 0.10785 0.28634 0.0
C1361 C 0.39463 0.10386 0.27307 0.0
C1362 C 0.36139 0.11661 0.27627 0.0
C1363 C 0.36116 0.12184 0.25286 0.0
C1364 C 0.37792 0.11828 0.23968 0.0
C1365 C 0.39445 0.10914 0.24964 0.0
C1366 C 0.33342 0.1661 0.22888 0.0
C1367 C 0.31196 0.15666 0.23226 0.0
C1368 C 0.34925 0.15391 0.2341 0.0
C1369 C 0.34395 0.13221 0.243 0.0
C1370 C 0.32234 0.12189 0.24478 0.0
C1371 C 0.30644 0.13394 0.23931 0.0
H1372 H 0.33686 0.15464 0.48057 0.0
H1373 H 0.33453 0.14685 0.55501 0.0
H1374 H 0.36849 0.13783 0.48018 0.0
H1375 H 0.36575 0.1296 0.55447 0.0
H1376 H 0.43453 0.1224 0.5543 0.0
H1377 H 0.40376 0.14054 0.55357 0.0
H1378 H 0.38024 0.10102 0.48096 0.0
H1379 H 0.41115 0.08305 0.48166 0.0
C1380 C 0.34298 0.1492 0.49681 0.0
C1381 C 0.33309 0.15216 0.51783 0.0
C1382 C 0.36111 0.13944 0.49656 0.0
C1383 C 0.36985 0.13241 0.51733 0.0
C1384 C 0.35979 0.13519 0.53825 0.0
C1385 C 0.34171 0.14493 0.5385 0.0
C1386 C 0.42279 0.11754 0.53818 0.0
C1387 C 0.42535 0.10115 0.51809 0.0
C1388 C 0.40506 0.12791 0.53777 0.0
C1389 C 0.38929 0.12214 0.51728 0.0
C1390 C 0.39211 0.10615 0.49697 0.0
C1391 C 0.4099 0.09583 0.49737 0.0
H1392 H 0.72131 0.60548 0.24045 0.0
H1393 H 0.73343 0.61124 0.31762 0.0
H1394 H 0.74145 0.64713 0.24377 0.0
H1395 H 0.75372 0.65374 0.32109 0.0
H1396 H 0.80655 0.72357 0.31706 0.0
H1397 H 0.78511 0.68235 0.31567 0.0
H1398 H 0.74408 0.68876 0.2533 0.0
H1399 H 0.7659 0.73001 0.25464 0.0
C1400 C 0.72819 0.61557 0.25835 0.0
C1401 C 0.72541 0.6042 0.27873 0.0
C1402 C 0.7398 0.64 0.26027 0.0
C1403 C 0.74953 0.65476 0.28273 0.0
C1404 C 0.74686 0.64346 0.30328 0.0
C1405 C 0.73501 0.61882 0.30134 0.0
C1406 C 0.79289 0.71632 0.30304 0.0
C1407 C 0.78828 0.73063 0.28593 0.0
C1408 C 0.78034 0.69239 0.30231 0.0
C1409 C 0.76251 0.6813 0.28429 0.0
C1410 C 0.75771 0.69586 0.26735 0.0
C1411 C 0.77024 0.71991 0.26818 0.0
H1412 H 0.88277 0.51012 0.81171 0.0
H1413 H 0.89287 0.48983 0.73773 0.0
H1414 H 0.85998 0.46964 0.80996 0.0
H1415 H 0.87124 0.44906 0.73632 0.0
H1416 H 0.82427 0.37846 0.73599 0.0
H1417 H 0.83834 0.42158 0.73617 0.0
H1418 H 0.86663 0.43149 0.81073 0.0
H1419 H 0.85162 0.38887 0.8108 0.0
C1420 C 0.87992 0.49703 0.79501 0.0
C1421 C 0.8897 0.50298 0.77494 0.0
C1422 C 0.86704 0.47378 0.79405 0.0
C1423 C 0.8641 0.45587 0.77316 0.0
C1424 C 0.87293 0.46236 0.75264 0.0
C1425 C 0.88544 0.48576 0.75347 0.0
C1426 C 0.8334 0.38997 0.75242 0.0
C1427 C 0.83694 0.38035 0.77336 0.0
C1428 C 0.84151 0.41466 0.75253 0.0
C1429 C 0.85364 0.43011 0.77346 0.0
C1430 C 0.85695 0.42037 0.79443 0.0
C1431 C 0.84853 0.39583 0.79443 0.0
H1432 H 0.13667 0.91024 0.0958 0.0
H1433 H 0.06952 0.87727 0.09606 0.0
H1434 H 0.12698 0.94226 0.077 0.0
H1435 H 0.05969 0.90996 0.07813 0.0
H1436 H 0.04622 0.96232 0.02898 0.0
H1437 H 0.05606 0.92868 0.04493 0.0
H1438 H 0.11517 0.97746 0.08286 0.0
H1439 H 0.10568 1.01074 0.06604 0.0
C1440 C 0.11979 0.90982 0.09191 0.0
C1441 C 0.10395 0.89099 0.09755 0.0
C1442 C 0.11415 0.92847 0.08124 0.0
C1443 C 0.09244 0.92924 0.07602 0.0
C1444 C 0.07657 0.91014 0.08141 0.0
C1445 C 0.08224 0.89132 0.09187 0.0
C1446 C 0.06139 0.96586 0.04058 0.0
C1447 C 0.07512 0.98943 0.04604 0.0
C1448 C 0.06702 0.94648 0.05 0.0
C1449 C 0.0865 0.94994 0.06543 0.0
C1450 C 0.10023 0.97359 0.07077 0.0
C1451 C 0.09469 0.99289 0.06117 0.0
H1452 H 0.93507 0.2803 0.90615 0.0
H1453 H 0.97072 0.27559 0.84554 0.0
H1454 H 0.90496 0.28658 0.88038 0.0
H1455 H 0.94043 0.28187 0.81962 0.0
H1456 H 0.89284 0.32274 0.78856 0.0
H1457 H 0.92236 0.31448 0.81385 0.0
H1458 H 0.87634 0.26699 0.84648 0.0
H1459 H 0.84691 0.27493 0.82065 0.0
C1460 C 0.93645 0.28036 0.88724 0.0
C1461 C 0.95547 0.27741 0.87803 0.0
C1462 C 0.91906 0.2839 0.87239 0.0
C1463 C 0.92015 0.2849 0.84783 0.0
C1464 C 0.93903 0.28153 0.83848 0.0
C1465 C 0.95638 0.27769 0.85331 0.0
C1466 C 0.889 0.31062 0.80121 0.0
C1467 C 0.86738 0.29986 0.80287 0.0
C1468 C 0.90598 0.30571 0.81562 0.0
C1469 C 0.9019 0.28999 0.83231 0.0
C1470 C 0.88022 0.27942 0.83412 0.0
C1471 C 0.86324 0.28414 0.81947 0.0
H1472 H 0.54998 0.24788 0.56754 0.0
H1473 H 0.60724 0.24951 0.61492 0.0
H1474 H 0.5459 0.20485 0.55234 0.0
H1475 H 0.60275 0.2062 0.60047 0.0
H1476 H 0.59934 0.13172 0.556 0.0
H1477 H 0.60466 0.17537 0.5689 0.0
H1478 H 0.53571 0.16631 0.56219 0.0
H1479 H 0.53046 0.12288 0.54843 0.0
C1480 C 0.56172 0.23906 0.57477 0.0
C1481 C 0.57895 0.2523 0.59249 0.0
C1482 C 0.55928 0.21419 0.56618 0.0
C1483 C 0.57385 0.20164 0.57521 0.0
C1484 C 0.59129 0.21506 0.59272 0.0
C1485 C 0.59384 0.24 0.60115 0.0
C1486 C 0.58529 0.13903 0.55722 0.0
C1487 C 0.56445 0.1236 0.55112 0.0
C1488 C 0.58835 0.16418 0.56481 0.0
C1489 C 0.57066 0.17473 0.56672 0.0
C1490 C 0.54981 0.15919 0.5606 0.0
C1491 C 0.54677 0.13409 0.55284 0.0
H1492 H 0.60463 0.79282 0.41801 0.0
H1493 H 0.562 0.77593 0.35056 0.0
H1494 H 0.63558 0.79738 0.39625 0.0
H1495 H 0.59322 0.78108 0.32862 0.0
H1496 H 0.65379 0.76645 0.29714 0.0
H1497 H 0.62194 0.7629 0.31763 0.0
H1498 H 0.65626 0.82316 0.37352 0.0
H1499 H 0.68817 0.8266 0.35307 0.0
C1500 C 0.60181 0.79019 0.39848 0.0
C1501 C 0.5807 0.78398 0.3861 0.0
C1502 C 0.61968 0.79302 0.38596 0.0
C1503 C 0.61708 0.78978 0.36059 0.0
C1504 C 0.59594 0.7835 0.34813 0.0
C1505 C 0.57799 0.78064 0.36072 0.0
C1506 C 0.6545 0.77919 0.31364 0.0
C1507 C 0.6737 0.79683 0.32339 0.0
C1508 C 0.63615 0.77714 0.32543 0.0
C1509 C 0.63638 0.79266 0.34737 0.0
C1510 C 0.65548 0.81054 0.35692 0.0
C1511 C 0.67385 0.81256 0.34516 0.0
H1512 H 0.08421 0.28084 0.40517 0.0
H1513 H 0.14228 0.31027 0.45613 0.0
H1514 H 0.07427 0.24727 0.42654 0.0
H1515 H 0.13256 0.2763 0.4772 0.0
H1516 H 0.09638 0.22727 0.52399 0.0
H1517 H 0.10647 0.26075 0.50248 0.0
H1518 H 0.08459 0.21108 0.43442 0.0
H1519 H 0.07359 0.17778 0.45595 0.0
C1520 C 0.09494 0.28007 0.42085 0.0
C1521 C 0.11403 0.29829 0.42897 0.0
C1522 C 0.08929 0.26072 0.43302 0.0
C1523 C 0.10261 0.25906 0.45359 0.0
C1524 C 0.12178 0.2772 0.46162 0.0
C1525 C 0.12743 0.2966 0.44945 0.0
C1526 C 0.09348 0.22353 0.50444 0.0
C1527 C 0.08409 0.19983 0.49171 0.0
C1528 C 0.09954 0.24268 0.4921 0.0
C1529 C 0.09639 0.23862 0.46671 0.0
C1530 C 0.08704 0.21491 0.45398 0.0
C1531 C 0.08096 0.19575 0.46632 0.0
H1532 H 0.5589 0.2719 0.22244 0.0
H1533 H 0.56283 0.20305 0.18203 0.0
H1534 H 0.59584 0.27826 0.2422 0.0
H1535 H 0.59976 0.20969 0.20152 0.0
H1536 H 0.67202 0.25045 0.21428 0.0
H1537 H 0.63415 0.24383 0.19816 0.0
H1538 H 0.61811 0.25605 0.27065 0.0
H1539 H 0.65621 0.26251 0.28693 0.0
C1540 C 0.56759 0.25807 0.21795 0.0
C1541 C 0.55808 0.23703 0.20065 0.0
C1542 C 0.58861 0.26168 0.22931 0.0
C1543 C 0.60051 0.24451 0.22318 0.0
C1544 C 0.59085 0.22322 0.20636 0.0
C1545 C 0.56973 0.21941 0.19533 0.0
C1546 C 0.66044 0.25198 0.22676 0.0
C1547 C 0.66694 0.25708 0.25181 0.0
C1548 C 0.63882 0.24798 0.21756 0.0
C1549 C 0.62336 0.24929 0.23323 0.0
C1550 C 0.62985 0.25497 0.25829 0.0
C1551 C 0.65151 0.25859 0.26755 0.0
H1552 H 0.59384 0.88088 0.9357 0.0
H1553 H 0.62556 0.93901 0.90183 0.0
H1554 H 0.58587 0.91048 0.96698 0.0
H1555 H 0.61751 0.96871 0.93338 0.0
H1556 H 0.61934 1.01201 1.01108 0.0
H1557 H 0.62788 0.98334 0.97893 0.0
H1558 H 0.56227 0.94024 0.96873 0.0
H1559 H 0.55379 0.9689 1.00089 0.0
C1560 C 0.59919 0.89998 0.93496 0.0
C1561 C 0.61032 0.90762 0.91626 0.0
C1562 C 0.59448 0.9169 0.9528 0.0
C1563 C 0.60098 0.94183 0.9525 0.0
C1564 C 0.61242 0.94956 0.93406 0.0
C1565 C 0.61694 0.93258 0.916 0.0
C1566 C 0.60681 0.99634 1.00198 0.0
C1567 C 0.58596 0.99247 1.00845 0.0
C1568 C 0.61164 0.9801 0.9835 0.0
C1569 C 0.59574 0.95959 0.97143 0.0
C1570 C 0.57487 0.9558 0.97793 0.0
C1571 C 0.57 0.97217 0.99623 0.0
H1572 H 0.92184 0.72431 0.67651 0.0
H1573 H 0.96772 0.75615 0.74067 0.0
H1574 H 0.89236 0.72759 0.69991 0.0
H1575 H 0.93833 0.75862 0.76421 0.0
H1576 H 0.88725 0.80291 0.77782 0.0
H1577 H 0.9161 0.78698 0.76281 0.0
H1578 H 0.87111 0.71815 0.73289 0.0
H1579 H 0.8418 0.73453 0.74765 0.0
C1580 C 0.92558 0.73139 0.69573 0.0
C1581 C 0.94703 0.74061 0.70666 0.0
C1582 C 0.9087 0.73307 0.70919 0.0
C1583 C 0.91306 0.74376 0.73383 0.0
C1584 C 0.9345 0.75081 0.74514 0.0
C1585 C 0.95132 0.74945 0.73166 0.0
C1586 C 0.88349 0.78424 0.76838 0.0
C1587 C 0.8622 0.77012 0.76349 0.0
C1588 C 0.90012 0.77497 0.75998 0.0
C1589 C 0.89589 0.75132 0.7465 0.0
C1590 C 0.87479 0.73655 0.74298 0.0
C1591 C 0.85806 0.74587 0.75152 0.0
H1592 H 0.16904 0.05134 0.8725 0.0
H1593 H 0.10757 1.01157 0.83275 0.0
H1594 H 0.15218 0.05451 0.91007 0.0
H1595 H 0.09109 1.01493 0.86923 0.0
H1596 H 0.06489 1.00182 0.93801 0.0
H1597 H 0.08518 1.00085 0.90425 0.0
H1598 H 0.12766 0.06979 0.93787 0.0
H1599 H 0.1068 0.07066 0.9725 0.0
C1600 C 0.15204 0.04321 0.87146 0.0
C1601 C 0.14013 0.03095 0.84868 0.0
C1602 C 0.14214 0.04513 0.89334 0.0
C1603 C 0.11985 0.03472 0.89374 0.0
C1604 C 0.10821 0.02284 0.87085 0.0
C1605 C 0.11792 0.02104 0.84931 0.0
C1606 C 0.07862 0.01693 0.93867 0.0
C1607 C 0.0838 0.03617 0.95892 0.0
C1608 C 0.09041 1.01647 0.91867 0.0
C1609 C 0.10838 0.03538 0.91708 0.0
C1610 C 0.11414 0.05457 0.93768 0.0
C1611 C 0.10212 0.05505 0.95798 0.0
H1612 H 0.78801 0.37398 0.53499 0.0
H1613 H 0.85425 0.41497 0.54417 0.0
H1614 H 0.79824 0.34718 0.56091 0.0
H1615 H 0.86477 0.38749 0.56892 0.0
H1616 H 0.86621 0.35938 0.64111 0.0
H1617 H 0.86163 0.38088 0.60817 0.0
H1618 H 0.81626 0.31674 0.56687 0.0
H1619 H 0.81954 0.2959 0.60067 0.0
C1620 C 0.80479 0.37698 0.54228 0.0
C1621 C 0.82025 0.39674 0.53805 0.0
C1622 C 0.81075 0.36148 0.55689 0.0
C1623 C 0.83237 0.36522 0.5671 0.0
C1624 C 0.84794 0.38438 0.56181 0.0
C1625 C 0.84191 0.40013 0.54764 0.0
C1626 C 0.85541 0.3498 0.62491 0.0
C1627 C 0.84282 0.32619 0.6238 0.0
C1628 C 0.85297 0.36202 0.60583 0.0
C1629 C 0.83817 0.3507 0.58504 0.0
C1630 C 0.82731 0.32621 0.58292 0.0
C1631 C 0.82949 0.31411 0.60218 0.0
H1632 H 0.43734 0.06131 0.41081 0.0
H1633 H 0.48447 0.10539 0.3762 0.0
H1634 H 0.46588 0.05863 0.44093 0.0
H1635 H 0.51305 0.10259 0.40643 0.0
H1636 H 0.55722 0.10125 0.47663 0.0
H1637 H 0.52913 0.11129 0.45023 0.0
H1638 H 0.49404 0.0359 0.43528 0.0
H1639 H 0.52183 0.02608 0.46149 0.0
C1640 C 0.4537 0.07093 0.40996 0.0
C1641 C 0.45867 0.08317 0.39087 0.0
C1642 C 0.47009 0.06929 0.42717 0.0
C1643 C 0.49173 0.08004 0.42574 0.0
C1644 C 0.49653 0.0941 0.40793 0.0
C1645 C 0.48013 0.09563 0.3906 0.0
C1646 C 0.54361 0.08689 0.46734 0.0
C1647 C 0.54146 0.06297 0.47109 0.0
C1648 C 0.52753 0.09262 0.45243 0.0
C1649 C 0.50919 0.07446 0.44119 0.0
C1650 C 0.50767 0.05039 0.44425 0.0
C1651 C 0.52367 0.04472 0.459 0.0
H1652 H 0.83243 0.76693 0.0765 0.0
H1653 H 0.77392 0.71285 0.07731 0.0
H1654 H 0.83309 0.78259 0.11925 0.0
H1655 H 0.77483 0.72816 0.12019 0.0
H1656 H 0.77254 0.7742 0.19298 0.0
H1657 H 0.77079 0.7615 0.14946 0.0
H1658 H 0.83983 0.77151 0.15789 0.0
H1659 H 0.84165 0.78466 0.20121 0.0
C1660 C 0.81966 0.75838 0.08575 0.0
C1661 C 0.80315 0.73855 0.07335 0.0
C1662 C 0.82012 0.76728 0.11039 0.0
C1663 C 0.80409 0.75662 0.12338 0.0
C1664 C 0.78734 0.73707 0.11083 0.0
C1665 C 0.78688 0.72817 0.08619 0.0
C1666 C 0.78738 0.77386 0.18556 0.0
C1667 C 0.80723 0.7805 0.20076 0.0
C1668 C 0.78636 0.76639 0.16054 0.0
C1669 C 0.80515 0.76538 0.14998 0.0
C1670 C 0.82502 0.77234 0.16519 0.0
C1671 C 0.82605 0.77978 0.19017 0.0
H1672 H 0.12082 0.06288 0.73048 0.0
H1673 H 0.15619 1.01329 0.69933 0.0
H1674 H 0.10412 0.06424 0.69065 0.0
H1675 H 0.13917 1.01468 0.65866 0.0
H1676 H 0.08941 1.00792 0.58821 0.0
H1677 H 0.10717 1.00467 0.62766 0.0
H1678 H 0.10823 0.07934 0.65473 0.0
H1679 H 0.09059 0.08247 0.61562 0.0
C1680 C 0.1252 0.05212 0.71516 0.0
C1681 C 0.14022 0.03795 0.71895 0.0
C1682 C 0.11553 0.05309 0.69184 0.0
C1683 C 0.12005 0.03982 0.67054 0.0
C1684 C 0.13487 0.02524 0.67416 0.0
C1685 C 0.14484 0.02447 0.69775 0.0
C1686 C 0.09335 0.02372 0.60254 0.0
C1687 C 0.08815 0.04549 0.5981 0.0
C1688 C 0.10381 0.02188 0.62543 0.0
C1689 C 0.10939 0.04163 0.64525 0.0
C1690 C 0.10416 0.06335 0.64064 0.0
C1691 C 0.09396 0.06525 0.61779 0.0
H1692 H 0.81309 0.42041 0.42396 0.0
H1693 H 0.85997 0.39178 0.4627 0.0
H1694 H 0.81381 0.39209 0.38735 0.0
H1695 H 0.86056 0.36333 0.42595 0.0
H1696 H 0.82506 0.29716 0.36134 0.0
H1697 H 0.83237 0.32673 0.3992 0.0
H1698 H 0.84133 0.38531 0.35894 0.0
H1699 H 0.83394 0.35603 0.32134 0.0
C1700 C 0.82358 0.40813 0.42462 0.0
C1701 C 0.83648 0.4083 0.44612 0.0
C1702 C 0.82411 0.39207 0.40367 0.0
C1703 C 0.83738 0.37573 0.4039 0.0
C1704 C 0.85023 0.37579 0.42539 0.0
C1705 C 0.84991 0.39209 0.44632 0.0
C1706 C 0.82915 0.31637 0.36069 0.0
C1707 C 0.8287 0.32435 0.33849 0.0
C1708 C 0.83334 0.33324 0.38229 0.0
C1709 C 0.83702 0.35819 0.38181 0.0
C1710 C 0.83819 0.36613 0.35968 0.0
C1711 C 0.83412 0.34936 0.33821 0.0
H1712 H 0.45899 0.02937 0.26361 0.0
H1713 H 0.51369 0.08782 0.29706 0.0
H1714 H 0.47953 0.01707 0.23205 0.0
H1715 H 0.53393 0.07646 0.26486 0.0
H1716 H 0.56989 0.05027 0.20874 0.0
H1717 H 0.5514 0.04936 0.2442 0.0
H1718 H 0.49019 0.03281 0.1983 0.0
H1719 H 0.50854 0.03177 0.16294 0.0
C1720 C 0.47545 0.03959 0.26416 0.0
C1721 C 0.48469 0.05982 0.28245 0.0
C1722 C 0.4872 0.03257 0.24607 0.0
C1723 C 0.50828 0.04598 0.24565 0.0
C1724 C 0.51784 0.0655 0.26471 0.0
C1725 C 0.50619 0.07222 0.28307 0.0
C1726 C 0.55246 0.04568 0.20619 0.0
C1727 C 0.5407 0.04161 0.18304 0.0
C1728 C 0.54186 0.04547 0.22655 0.0
C1729 C 0.51933 0.04152 0.22419 0.0
C1730 C 0.50754 0.03582 0.20091 0.0
C1731 C 0.51811 0.03566 0.18058 0.0
H1732 H 0.81725 0.71987 0.94265 0.0
H1733 H 0.75484 0.73558 0.93256 0.0
H1734 H 0.8266 0.73691 0.90711 0.0
H1735 H 0.7644 0.75349 0.89769 0.0
H1736 H 0.77895 0.76543 0.82304 0.0
H1737 H 0.76983 0.74589 0.85728 0.0
H1738 H 0.83598 0.77226 0.89112 0.0
H1739 H 0.8451 0.79069 0.85636 0.0
C1740 C 0.80558 0.7272 0.93302 0.0
C1741 C 0.78526 0.72628 0.94059 0.0
C1742 C 0.81098 0.73713 0.91259 0.0
C1743 C 0.7963 0.74666 0.89918 0.0
C1744 C 0.77606 0.74595 0.90702 0.0
C1745 C 0.77061 0.73583 0.92728 0.0
C1746 C 0.79156 0.76679 0.83769 0.0
C1747 C 0.81275 0.77962 0.83691 0.0
C1748 C 0.78631 0.75579 0.85755 0.0
C1749 C 0.80207 0.75751 0.87737 0.0
C1750 C 0.82335 0.77011 0.87627 0.0
C1751 C 0.82861 0.78088 0.85632 0.0
H1752 H 0.87317 0.13826 0.05881 0.0
H1753 H 0.82224 0.07243 0.04568 0.0
H1754 H 0.89958 0.11431 0.05363 0.0
H1755 H 0.84883 0.04833 0.04125 0.0
H1756 H 0.89943 0.01784 1.00158 0.0
H1757 H 0.87194 0.03908 1.01214 0.0
H1758 H 0.91726 0.08718 0.07043 0.0
H1759 H 0.94506 0.06691 0.059 0.0
C1760 C 0.86763 0.11864 0.05522 0.0
C1761 C 0.8456 0.10724 0.0525 0.0
C1762 C 0.88282 0.10487 0.0524 0.0
C1763 C 0.87634 0.07936 0.04698 0.0
C1764 C 0.85433 0.06794 0.04506 0.0
C1765 C 0.8391 0.08174 0.04773 0.0
C1766 C 0.90352 0.03295 0.01664 0.0
C1767 C 0.92451 0.04079 0.02927 0.0
C1768 C 0.88768 0.04494 0.02291 0.0
C1769 C 0.89244 0.06496 0.04204 0.0
C1770 C 0.91315 0.07208 0.05536 0.0
C1771 C 0.92902 0.06021 0.04899 0.0
H1772 H 0.3948 0.46443 1.003 0.0
H1773 H 0.40533 0.45724 0.07776 0.0
H1774 H 0.4321 0.4865 1.00574 0.0
H1775 H 0.44311 0.47919 0.08042 0.0
H1776 H 0.50321 0.54281 0.08074 0.0
H1777 H 0.46644 0.51901 0.08031 0.0
H1778 H 0.4678 0.48035 1.00883 0.0
H1779 H 0.50422 0.50455 1.0091 0.0
C1780 C 0.40508 0.4675 0.02008 0.0
C1781 C 0.39693 0.45896 0.04016 0.0
C1782 C 0.42663 0.48005 0.02159 0.0
C1783 C 0.44084 0.4845 0.04323 0.0
C1784 C 0.43267 0.47625 0.06348 0.0
C1785 C 0.411 0.46359 0.06195 0.0
C1786 C 0.49568 0.52908 0.06502 0.0
C1787 C 0.50662 0.52568 0.04489 0.0
C1788 C 0.47461 0.51533 0.06481 0.0
C1789 C 0.46393 0.49786 0.04443 0.0
C1790 C 0.47526 0.49394 0.02466 0.0
C1791 C 0.49627 0.50767 0.02489 0.0
H1792 H 0.38141 0.62665 0.78247 0.0
H1793 H 0.42777 0.67105 0.74792 0.0
H1794 H 0.36134 0.65863 0.78625 0.0
H1795 H 0.408 0.70216 0.7511 0.0
H1796 H 0.37775 0.76663 0.76969 0.0
H1797 H 0.397 0.73453 0.76785 0.0
H1798 H 0.33897 0.68342 0.77581 0.0
H1799 H 0.31994 0.71598 0.77827 0.0
C1800 C 0.3875 0.64302 0.77556 0.0
C1801 C 0.4068 0.64541 0.76487 0.0
C1802 C 0.37575 0.66178 0.77765 0.0
C1803 C 0.38252 0.6842 0.76927 0.0
C1804 C 0.40172 0.68619 0.75851 0.0
C1805 C 0.41332 0.66767 0.75646 0.0
C1806 C 0.3689 0.74864 0.77115 0.0
C1807 C 0.34683 0.74477 0.77421 0.0
C1808 C 0.38012 0.72963 0.76985 0.0
C1809 C 0.37012 0.70516 0.77138 0.0
C1810 C 0.34801 0.7014 0.77464 0.0
C1811 C 0.3368 0.72048 0.77598 0.0
H1812 H 0.23679 0.5911 0.58032 0.0
H1813 H 0.23814 0.5919 0.50425 0.0
H1814 H 0.19757 0.58264 0.57369 0.0
H1815 H 0.19925 0.58447 0.4978 0.0
H1816 H 0.12645 0.56112 0.49267 0.0
H1817 H 0.16411 0.55968 0.49764 0.0
H1818 H 0.17506 0.60978 0.56566 0.0
H1819 H 0.13725 0.61055 0.56107 0.0
C1820 C 0.2287 0.58874 0.5621 0.0
C1821 C 0.24048 0.59263 0.54288 0.0
C1822 C 0.20629 0.58429 0.55835 0.0
C1823 C 0.19541 0.58368 0.53537 0.0
C1824 C 0.20711 0.58495 0.51574 0.0
C1825 C 0.22944 0.58925 0.51946 0.0
C1826 C 0.137 0.57216 0.50848 0.0
C1827 C 0.12898 0.58604 0.52647 0.0
C1828 C 0.15853 0.57116 0.51141 0.0
C1829 C 0.17245 0.58422 0.53227 0.0
C1830 C 0.16457 0.5989 0.54975 0.0
C1831 C 0.14302 0.5997 0.54693 0.0
H1832 H 0.7096 0.99394 0.77974 0.0
H1833 H 0.74191 1.00333 0.7171 0.0
H1834 H 0.73604 0.9734 0.79441 0.0
H1835 H 0.76814 0.98231 0.73163 0.0
H1836 H 0.82455 0.96936 0.77897 0.0
H1837 H 0.79782 0.99027 0.76524 0.0
H1838 H 0.74735 0.93564 0.78409 0.0
H1839 H 0.77392 0.91481 0.79771 0.0
C1840 C 0.7222 0.99138 0.76896 0.0
C1841 C 0.72375 1.00034 0.74731 0.0
C1842 C 0.73731 0.97958 0.77736 0.0
C1843 C 0.75423 0.97646 0.76425 0.0
C1844 C 0.75547 0.98488 0.7423 0.0
C1845 C 0.74036 0.99671 0.73389 0.0
C1846 C 0.80775 0.96196 0.78028 0.0
C1847 C 0.80133 0.94057 0.78953 0.0
C1848 C 0.79247 0.97381 0.77233 0.0
C1849 C 0.77052 0.96447 0.77348 0.0
C1850 C 0.76418 0.94341 0.78326 0.0
C1851 C 0.77943 0.93157 0.79118 0.0
H1852 H 0.79216 0.9735 0.55213 0.0
H1853 H 0.74576 0.90418 0.53902 0.0
H1854 H 0.76279 0.994 0.55024 0.0
H1855 H 0.71653 0.92454 0.53789 0.0
H1856 H 0.66851 0.96606 0.51237 0.0
H1857 H 0.69798 0.94585 0.5143 0.0
H1858 H 0.73467 1.00448 0.57053 0.0
H1859 H 0.70535 0.02478 0.56827 0.0
C1860 C 0.77572 0.96263 0.54904 0.0
C1861 C 0.77142 0.93715 0.54566 0.0
C1862 C 0.7588 0.97439 0.54807 0.0
C1863 C 0.7371 0.96102 0.54381 0.0
C1864 C 0.73291 0.93554 0.54072 0.0
C1865 C 0.74977 0.92382 0.54156 0.0
C1866 C 0.68279 0.97455 0.52528 0.0
C1867 C 0.68449 0.99715 0.54007 0.0
C1868 C 0.69976 0.96293 0.52644 0.0
C1869 C 0.71892 0.97346 0.54256 0.0
C1870 C 0.72047 0.99595 0.55753 0.0
C1871 C 0.70356 1.0076 0.55628 0.0
H1872 H 0.39834 0.47542 0.71917 0.0
H1873 H 0.39434 0.50354 0.79327 0.0
H1874 H 0.37758 0.43562 0.72309 0.0
H1875 H 0.37339 0.463 0.79736 0.0
H1876 H 0.35285 0.37756 0.79992 0.0
H1877 H 0.37402 0.41882 0.79848 0.0
H1878 H 0.34202 0.41294 0.72652 0.0
H1879 H 0.32102 0.37237 0.72813 0.0
C1880 C 0.39295 0.4733 0.73642 0.0
C1881 C 0.39818 0.4934 0.75576 0.0
C1882 C 0.38081 0.45011 0.73867 0.0
C1883 C 0.37341 0.44538 0.76056 0.0
C1884 C 0.3787 0.46541 0.78013 0.0
C1885 C 0.39063 0.48896 0.77772 0.0
C1886 C 0.35042 0.385 0.78372 0.0
C1887 C 0.33507 0.37108 0.76407 0.0
C1888 C 0.36251 0.40896 0.78294 0.0
C1889 C 0.3601 0.41986 0.76231 0.0
C1890 C 0.34487 0.40566 0.74272 0.0
C1891 C 0.33263 0.38208 0.74366 0.0
H1892 H 0.25327 0.59553 0.22501 0.0
H1893 H 0.19431 0.61791 0.21006 0.0
H1894 H 0.27321 0.6382 0.23597 0.0
H1895 H 0.21425 0.66051 0.22164 0.0
H1896 H 0.25758 0.72827 0.27868 0.0
H1897 H 0.23785 0.68546 0.26611 0.0
H1898 H 0.2789 0.6763 0.21119 0.0
H1899 H 0.29821 0.71894 0.22321 0.0
C1900 C 0.24467 0.60958 0.22379 0.0
C1901 C 0.22233 0.60353 0.21658 0.0
C1902 C 0.25602 0.63386 0.23013 0.0
C1903 C 0.2451 0.65236 0.22986 0.0
C1904 C 0.22287 0.64639 0.22216 0.0
C1905 C 0.21158 0.62211 0.21529 0.0
C1906 C 0.26238 0.71702 0.26402 0.0
C1907 C 0.27927 0.7268 0.25181 0.0
C1908 C 0.25108 0.69272 0.25677 0.0
C1909 C 0.25693 0.67789 0.23767 0.0
C1910 C 0.27418 0.68751 0.22595 0.0
C1911 C 0.28512 0.71183 0.2328 0.0
H1912 H 0.51264 0.69468 0.42622 0.0
H1913 H 0.54686 0.73993 0.49298 0.0
H1914 H 0.51717 0.65848 0.442 0.0
H1915 H 0.55098 0.70408 0.50882 0.0
H1916 H 0.57778 0.63931 0.5201 0.0
H1917 H 0.57088 0.67415 0.50433 0.0
H1918 H 0.50774 0.6318 0.47083 0.0
H1919 H 0.51487 0.59646 0.48639 0.0
C1920 C 0.52095 0.69696 0.44432 0.0
C1921 C 0.52948 0.72043 0.45817 0.0
C1922 C 0.52349 0.67612 0.45347 0.0
C1923 C 0.53467 0.67811 0.47672 0.0
C1924 C 0.54269 0.70159 0.49068 0.0
C1925 C 0.54017 0.72231 0.48158 0.0
C1926 C 0.56232 0.63729 0.50949 0.0
C1927 C 0.54689 0.61485 0.5047 0.0
C1928 C 0.55829 0.65749 0.50047 0.0
C1929 C 0.53865 0.65613 0.48628 0.0
C1930 C 0.52314 0.63367 0.48146 0.0
C1931 C 0.52717 0.61337 0.49058 0.0
H1932 H 0.65222 0.33208 0.7022 0.0
H1933 H 0.68684 0.32366 0.64114 0.0
H1934 H 0.6837 0.3304 0.72897 0.0
H1935 H 0.71863 0.323 0.66786 0.0
H1936 H 0.76597 0.29817 0.71925 0.0
H1937 H 0.73523 0.30082 0.69156 0.0
H1938 H 0.71792 0.34967 0.74818 0.0
H1939 H 0.74796 0.34609 0.7757 0.0
C1940 C 0.66666 0.33026 0.6945 0.0
C1941 C 0.66683 0.32803 0.66942 0.0
C1942 C 0.68491 0.32939 0.70992 0.0
C1943 C 0.70409 0.32654 0.70084 0.0
C1944 C 0.70427 0.32474 0.67574 0.0
C1945 C 0.68597 0.32536 0.66033 0.0
C1946 C 0.75574 0.30968 0.7256 0.0
C1947 C 0.75954 0.32196 0.74969 0.0
C1948 C 0.73799 0.31127 0.70971 0.0
C1949 C 0.72363 0.32536 0.71742 0.0
C1950 C 0.728 0.33812 0.74144 0.0
C1951 C 0.7455 0.33628 0.75728 0.0
H1952 H 0.06477 0.34798 0.98889 0.0
H1953 H 1.01205 0.34931 0.93618 0.0
H1954 H 0.06741 0.3902 1.00646 0.0
H1955 H 0.0151 0.39178 0.95322 0.0
H1956 H 0.01424 0.46314 1.00083 0.0
H1957 H 1.00992 0.41985 0.98625 0.0
H1958 H 0.07894 0.42995 0.99877 0.0
H1959 H 0.08318 0.47292 0.014 0.0
C1960 C 0.05371 0.35726 0.98102 0.0
C1961 C 0.03822 0.34513 0.96104 0.0
C1962 C 0.05533 0.38163 0.99101 0.0
C1963 C 0.04159 0.39471 0.98126 0.0
C1964 C 0.02583 0.38239 0.96151 0.0
C1965 C 0.02414 0.35797 0.9516 0.0
C1966 C 0.0285 0.45611 1.00063 0.0
C1967 C 0.04907 0.47169 1.00863 0.0
C1968 C 0.02603 0.43122 0.99207 0.0
C1969 C 0.04406 0.42116 0.99118 0.0
C1970 C 0.0646 0.43676 0.99946 0.0
C1971 C 0.06706 0.46159 1.0081 0.0
H1972 H 0.05774 0.82873 0.19576 0.0
H1973 H 0.01503 0.81102 0.12831 0.0
H1974 H 0.02651 0.82485 0.21779 0.0
H1975 H 0.98415 0.80757 0.15012 0.0
H1976 H 0.93246 0.77675 0.19372 0.0
H1977 H 0.96434 0.7812 0.17335 0.0
H1978 H 0.99697 0.84331 0.22804 0.0
H1979 H 0.96521 0.8383 0.24899 0.0
C1980 C 0.04176 0.82412 0.18563 0.0
C1981 C 0.039 0.82009 0.16021 0.0
C1982 C 0.02382 0.82201 0.19826 0.0
C1983 C 1.00268 0.81571 0.18579 0.0
C1984 C 1.00006 0.81199 0.16041 0.0
C1985 C 0.01789 0.81414 0.14785 0.0
C1986 C 0.94646 0.79126 0.20158 0.0
C1987 C 0.94612 0.80714 0.22309 0.0
C1988 C 0.96474 0.79399 0.18971 0.0
C1989 C 0.98334 0.8127 0.19892 0.0
C1990 C 0.98307 0.82857 0.22047 0.0
C1991 C 0.96471 0.82588 0.23234 0.0
H1992 H 0.50001 0.32055 0.13838 0.0
H1993 H 0.55829 0.30277 0.11789 0.0
H1994 H 0.50622 0.35454 0.11688 0.0
H1995 H 0.564 0.33588 0.09545 0.0
H1996 H 0.57978 0.41061 0.07587 0.0
H1997 H 0.57401 0.37827 0.0995 0.0
H1998 H 0.5053 0.36379 0.07784 0.0
H1999 H 0.51119 0.39681 0.0551 0.0
C2000 C 0.51407 0.32382 0.12913 0.0
C2001 C 0.52869 0.30907 0.12987 0.0
C2002 C 0.51758 0.34321 0.11666 0.0
C2003 C 0.53562 0.34802 0.10435 0.0
C2004 C 0.55017 0.3331 0.10508 0.0
C2005 C 0.54683 0.31398 0.11784 0.0
C2006 C 0.56348 0.40044 0.07622 0.0
C2007 C 0.54593 0.40616 0.06372 0.0
C2008 C 0.56014 0.38184 0.08965 0.0
C2009 C 0.53917 0.36829 0.09058 0.0
C2010 C 0.52163 0.37408 0.07796 0.0
C2011 C 0.52498 0.39291 0.06482 0.0
H2012 H 0.06636 0.35506 0.31918 0.0
H2013 H 0.04313 0.2818 0.33118 0.0
H2014 H 0.03085 0.35355 0.29848 0.0
H2015 H 1.00763 0.28046 0.31059 0.0
H2016 H 0.94674 0.31223 0.31787 0.0
H2017 H 0.98261 0.30678 0.32756 0.0
H2018 H 1.00066 0.33066 0.26221 0.0
H2019 H 0.96409 0.33505 0.25159 0.0
C2020 C 0.05381 0.33847 0.31694 0.0
C2021 C 0.05741 0.31869 0.32714 0.0
C2022 C 0.03356 0.33757 0.30496 0.0
C2023 C 0.01655 0.31698 0.30321 0.0
C2024 C 0.02052 0.2966 0.31192 0.0
C2025 C 0.04083 0.29738 0.32364 0.0
C2026 C 0.95802 0.31567 0.30509 0.0
C2027 C 0.95235 0.3239 0.28379 0.0
C2028 C 0.97864 0.31258 0.31073 0.0
C2029 C 0.99426 0.31805 0.29549 0.0
C2030 C 0.98879 0.32627 0.2742 0.0
C2031 C 0.96795 0.32897 0.26827 0.0
H2032 H 0.99907 0.68676 0.64313 0.0
H2033 H 0.02991 0.73314 0.59695 0.0
H2034 H 1.00969 0.65226 0.62054 0.0
H2035 H 0.04096 0.69882 0.57497 0.0
H2036 H 0.07712 0.63593 0.56489 0.0
H2037 H 0.06696 0.66849 0.59151 0.0
H2038 H 0.99983 0.63205 0.57026 0.0
H2039 H 1.00986 0.6001 0.54318 0.0
C2040 C 1.00805 0.68953 0.62815 0.0
C2041 C 1.01359 0.71253 0.62166 0.0
C2042 C 0.01416 0.6699 0.61539 0.0
C2043 C 0.02635 0.67319 0.5964 0.0
C2044 C 0.03179 0.69608 0.58981 0.0
C2045 C 0.02527 0.71556 0.60218 0.0
C2046 C 0.06026 0.63481 0.56627 0.0
C2047 C 0.04422 0.61585 0.55198 0.0
C2048 C 0.05448 0.65335 0.58132 0.0
C2049 C 0.03266 0.65261 0.58267 0.0
C2050 C 0.01673 0.63287 0.56944 0.0
C2051 C 0.02247 0.61474 0.55398 0.0
H2052 H 0.65462 0.85142 0.81815 0.0
H2053 H 0.70017 0.87475 0.88362 0.0
H2054 H 0.6839 0.84833 0.79463 0.0
H2055 H 0.72948 0.87119 0.86002 0.0
H2056 H 0.7329 0.80175 0.77627 0.0
H2057 H 0.70466 0.81736 0.79361 0.0
H2058 H 0.75113 0.8838 0.82763 0.0
H2059 H 0.77967 0.86796 0.81034 0.0
C2060 C 0.67093 0.85621 0.82749 0.0
C2061 C 0.67507 0.8628 0.85279 0.0
C2062 C 0.68768 0.85446 0.814 0.0
C2063 C 0.7089 0.85913 0.82552 0.0
C2064 C 0.71328 0.86759 0.85062 0.0
C2065 C 0.69648 0.86947 0.86416 0.0
C2066 C 0.73709 0.81986 0.78709 0.0
C2067 C 0.75855 0.83348 0.79221 0.0
C2068 C 0.72085 0.82891 0.79688 0.0
C2069 C 0.72571 0.85177 0.81209 0.0
C2070 C 0.74699 0.86603 0.81614 0.0
C2071 C 0.76328 0.857 0.80615 0.0
H2072 H 0.51392 0.59033 0.71799 0.0
H2073 H 0.4511 0.55592 0.67837 0.0
H2074 H 0.52985 0.58685 0.68113 0.0
H2075 H 0.46745 0.55256 0.64041 0.0
H2076 H 0.51172 0.53397 0.57714 0.0
H2077 H 0.49116 0.53532 0.61202 0.0
H2078 H 0.53586 0.60246 0.64657 0.0
H2079 H 0.55584 0.60108 0.61255 0.0
C2080 C 0.50318 0.58204 0.7014 0.0
C2081 C 0.48078 0.57366 0.70215 0.0
C2082 C 0.51257 0.58016 0.67966 0.0
C2083 C 0.50039 0.56966 0.65672 0.0
C2084 C 0.47788 0.56081 0.65722 0.0
C2085 C 0.46831 0.56289 0.67929 0.0
C2086 C 0.51698 0.54929 0.59194 0.0
C2087 C 0.53582 0.56753 0.5912 0.0
C2088 C 0.5051 0.55003 0.61235 0.0
C2089 C 0.5116 0.56884 0.63324 0.0
C2090 C 0.53008 0.58715 0.63185 0.0
C2091 C 0.54169 0.58645 0.61174 0.0
H2092 H 0.82071 0.14463 0.95861 0.0
H2093 H 0.81462 0.20089 0.01599 0.0
H2094 H 0.82747 0.17445 0.93211 0.0
H2095 H 0.82123 0.23051 0.98949 0.0
H2096 H 0.84728 0.28087 0.93854 0.0
H2097 H 0.8484 0.25183 0.96572 0.0
H2098 H 0.80219 0.19653 0.91404 0.0
H2099 H 0.80062 0.22538 0.8873 0.0
C2100 C 0.82112 0.16338 0.96566 0.0
C2101 C 0.81686 0.17037 0.98924 0.0
C2102 C 0.82492 0.1804 0.9505 0.0
C2103 C 0.82472 0.2047 0.95875 0.0
C2104 C 0.82164 0.21193 0.98273 0.0
C2105 C 0.81768 0.19492 0.99781 0.0
C2106 C 0.83735 0.26252 0.93305 0.0
C2107 C 0.82393 0.25542 0.91073 0.0
C2108 C 0.83809 0.24591 0.94852 0.0
C2109 C 0.82554 0.22191 0.94183 0.0
C2110 C 0.8124 0.21476 0.91941 0.0
C2111 C 0.81152 0.23133 0.90409 0.0
H2112 H 0.16232 0.52091 0.15923 0.0
H2113 H 0.11021 0.50508 0.20166 0.0
H2114 H 0.13722 0.52601 0.12655 0.0
H2115 H 0.08508 0.51023 0.16872 0.0
H2116 H 0.04598 0.50249 0.09212 0.0
H2117 H 0.0691 0.4928 0.12429 0.0
H2118 H 0.11688 0.55909 0.12476 0.0
H2119 H 0.09366 0.56894 0.09298 0.0
C2120 C 0.14546 0.51812 0.16146 0.0
C2121 C 0.1383 0.51285 0.18317 0.0
C2122 C 0.13114 0.52122 0.1428 0.0
C2123 C 0.10935 0.51893 0.14536 0.0
C2124 C 0.10185 0.51213 0.16637 0.0
C2125 C 0.11624 0.50918 0.18518 0.0
C2126 C 0.06136 0.51504 0.0993 0.0
C2127 C 0.06829 0.53625 0.0899 0.0
C2128 C 0.07454 0.50949 0.11763 0.0
C2129 C 0.09487 0.52501 0.12666 0.0
C2130 C 0.10146 0.54657 0.11771 0.0
C2131 C 0.08819 0.55224 0.09962 0.0
H2132 H 0.84805 0.83942 0.48465 0.0
H2133 H 0.81013 0.89048 0.47184 0.0
H2134 H 0.84405 0.8244 0.44125 0.0
H2135 H 0.80631 0.8756 0.42841 0.0
H2136 H 0.78602 0.82626 0.35363 0.0
H2137 H 0.7893 0.84035 0.39706 0.0
H2138 H 0.85597 0.83721 0.40454 0.0
H2139 H 0.85267 0.82286 0.36106 0.0
C2140 C 0.83878 0.84741 0.47262 0.0
C2141 C 0.82941 0.8662 0.48188 0.0
C2142 C 0.83663 0.8389 0.44765 0.0
C2143 C 0.82492 0.8488 0.43118 0.0
C2144 C 0.81527 0.86734 0.44048 0.0
C2145 C 0.81754 0.87597 0.46545 0.0
C2146 C 0.80142 0.82854 0.36447 0.0
C2147 C 0.81908 0.82336 0.35366 0.0
C2148 C 0.80332 0.83678 0.38945 0.0
C2149 C 0.8229 0.83997 0.40446 0.0
C2150 C 0.84055 0.83472 0.39367 0.0
C2151 C 0.83869 0.82662 0.36864 0.0
H2152 H 0.48454 0.5291 0.82486 0.0
H2153 H 0.47323 0.59887 0.8514 0.0
H2154 H 0.50352 0.52899 0.86376 0.0
H2155 H 0.49197 0.59854 0.89148 0.0
H2156 H 0.53856 0.59762 0.96099 0.0
H2157 H 0.52085 0.60078 0.92153 0.0
H2158 H 0.50367 0.52262 0.90183 0.0
H2159 H 0.52183 0.51974 0.94049 0.0
C2160 C 0.48597 0.54461 0.83904 0.0
C2161 C 0.47694 0.56397 0.83418 0.0
C2162 C 0.4969 0.54442 0.86199 0.0
C2163 C 0.49939 0.56346 0.88201 0.0
C2164 C 0.49079 0.58329 0.87712 0.0
C2165 C 0.47988 0.58356 0.8538 0.0
C2166 C 0.53112 0.58105 0.9482 0.0
C2167 C 0.53211 0.55836 0.95454 0.0
C2168 C 0.52068 0.58285 0.92525 0.0
C2169 C 0.51057 0.56205 0.90733 0.0
C2170 C 0.51145 0.53943 0.91404 0.0
C2171 C 0.52193 0.53768 0.93678 0.0
H2172 H 0.76071 0.20934 0.08127 0.0
H2173 H 0.79781 0.17064 0.12127 0.0
H2174 H 0.76194 0.23827 0.11824 0.0
H2175 H 0.79929 0.19965 0.15794 0.0
H2176 H 0.7859 0.24215 0.22391 0.0
H2177 H 0.77634 0.21265 0.18648 0.0
H2178 H 0.78961 0.27074 0.14585 0.0
H2179 H 0.79851 0.3005 0.18356 0.0
C2180 C 0.76903 0.20693 0.09795 0.0
C2181 C 0.7792 0.18773 0.09836 0.0
C2182 C 0.76979 0.22356 0.11907 0.0
C2183 C 0.78062 0.22117 0.14099 0.0
C2184 C 0.79049 0.20174 0.14141 0.0
C2185 C 0.78978 0.1852 0.12035 0.0
C2186 C 0.78617 0.24871 0.207 0.0
C2187 C 0.79303 0.27361 0.20662 0.0
C2188 C 0.78093 0.23177 0.18556 0.0
C2189 C 0.78261 0.23935 0.16327 0.0
C2190 C 0.78811 0.26437 0.16278 0.0
C2191 C 0.79326 0.2814 0.18433 0.0
H2192 H 0.14852 0.59602 0.26908 0.0
H2193 H 0.17837 0.54822 0.30487 0.0
H2194 H 0.13236 0.60687 0.30527 0.0
H2195 H 0.16212 0.55892 0.34075 0.0
H2196 H 0.14007 0.59221 0.40741 0.0
H2197 H 0.16134 0.59291 0.37391 0.0
H2198 H 0.10343 0.58209 0.32384 0.0
H2199 H 0.08219 0.58094 0.357 0.0
C2200 C 0.15178 0.588 0.2847 0.0
C2201 C 0.16446 0.57103 0.28405 0.0
C2202 C 0.14255 0.59423 0.30537 0.0
C2203 C 0.14602 0.58373 0.32574 0.0
C2204 C 0.15942 0.56754 0.32541 0.0
C2205 C 0.16852 0.56121 0.30475 0.0
C2206 C 0.13193 0.59016 0.38926 0.0
C2207 C 0.10943 0.58623 0.38481 0.0
C2208 C 0.1441 0.59068 0.37016 0.0
C2209 C 0.13398 0.58744 0.34634 0.0
C2210 C 0.11168 0.58496 0.34207 0.0
C2211 C 0.09951 0.58429 0.3611 0.0
H2212 H 0.79268 0.83738 0.58946 0.0
H2213 H 0.84465 0.89801 0.62507 0.0
H2214 H 0.78988 0.82265 0.62729 0.0
H2215 H 0.84167 0.88324 0.66331 0.0
H2216 H 0.84054 0.83308 0.72247 0.0
H2217 H 0.8463 0.84991 0.68554 0.0
H2218 H 0.77749 0.83451 0.66529 0.0
H2219 H 0.77186 0.81774 0.70166 0.0
C2220 C 0.80359 0.84761 0.60535 0.0
C2221 C 0.81882 0.86903 0.60406 0.0
C2222 C 0.80188 0.8392 0.6272 0.0
C2223 C 0.81535 0.85186 0.6486 0.0
C2224 C 0.83105 0.87294 0.64725 0.0
C2225 C 0.8327 0.88146 0.6253 0.0
C2226 C 0.8267 0.83352 0.71018 0.0
C2227 C 0.80574 0.82382 0.71493 0.0
C2228 C 0.82998 0.84319 0.68902 0.0
C2229 C 0.81236 0.84324 0.6721 0.0
C2230 C 0.79148 0.83429 0.67747 0.0
C2231 C 0.78824 0.82478 0.6985 0.0
H2232 H 0.7782 0.50322 0.49759 0.0
H2233 H 0.77422 0.48325 0.56788 0.0
H2234 H 0.75151 0.52672 0.50458 0.0
H2235 H 0.74738 0.50677 0.57474 0.0
H2236 H 0.67903 0.52113 0.55639 0.0
H2237 H 0.70876 0.50131 0.55405 0.0
H2238 H 0.74777 0.5646 0.53354 0.0
H2239 H 0.71788 0.58452 0.53593 0.0
C2240 C 0.77163 0.50386 0.51453 0.0
C2241 C 0.77816 0.4913 0.53215 0.0
C2242 C 0.75655 0.5175 0.51859 0.0
C2243 C 0.74756 0.51856 0.54021 0.0
C2244 C 0.75411 0.50612 0.55791 0.0
C2245 C 0.76943 0.49272 0.55398 0.0
C2246 C 0.69403 0.53081 0.55151 0.0
C2247 C 0.69625 0.55417 0.5461 0.0
C2248 C 0.71103 0.51959 0.55039 0.0
C2249 C 0.73044 0.53148 0.54359 0.0
C2250 C 0.73286 0.55509 0.53871 0.0
C2251 C 0.7159 0.56647 0.54015 0.0
H2252 H 0.22306 0.12398 0.48337 0.0
H2253 H 0.20186 0.18496 0.51876 0.0
H2254 H 0.18757 0.09736 0.48376 0.0
H2255 H 0.16658 0.1586 0.51885 0.0
H2256 H 0.11556 0.09966 0.54155 0.0
H2257 H 0.15024 0.12643 0.53907 0.0
H2258 H 0.14935 0.08811 0.46682 0.0
H2259 H 0.11456 0.06126 0.46942 0.0
C2260 C 0.21083 0.13176 0.49106 0.0
C2261 C 0.21544 0.15664 0.50112 0.0
C2262 C 0.19043 0.11651 0.49119 0.0
C2263 C 0.17417 0.12575 0.50149 0.0
C2264 C 0.17874 0.15071 0.51115 0.0
C2265 C 0.19903 0.1659 0.51094 0.0
C2266 C 0.12262 0.09713 0.52503 0.0
C2267 C 0.11223 0.07841 0.50565 0.0
C2268 C 0.14255 0.1125 0.52358 0.0
C2269 C 0.1527 0.1095 0.50273 0.0
C2270 C 0.14218 0.09081 0.48326 0.0
C2271 C 0.12217 0.07551 0.48468 0.0
H2272 H 0.18817 0.92898 0.76827 0.0
H2273 H 0.24625 0.98577 0.79025 0.0
H2274 H 0.20868 0.89856 0.76676 0.0
H2275 H 0.2673 0.95468 0.78918 0.0
H2276 H 0.30374 0.89245 0.77097 0.0
H2277 H 0.28425 0.92464 0.77288 0.0
H2278 H 0.22665 0.87311 0.78123 0.0
H2279 H 0.24608 0.84112 0.77886 0.0
C2280 C 0.20546 0.93534 0.77303 0.0
C2281 C 0.21493 0.96075 0.77948 0.0
C2282 C 0.21756 0.9173 0.77232 0.0
C2283 C 0.24031 0.92302 0.77802 0.0
C2284 C 0.25002 0.94856 0.7844 0.0
C2285 C 0.23774 0.96683 0.78517 0.0
C2286 C 0.28686 0.88776 0.77311 0.0
C2287 C 0.27693 0.86334 0.77454 0.0
C2288 C 0.27545 0.90666 0.77439 0.0
C2289 C 0.2532 0.90254 0.77712 0.0
C2290 C 0.24339 0.87803 0.77867 0.0
C2291 C 0.2548 0.85919 0.77743 0.0
H2292 H 0.40128 1.0139 0.99676 0.0
H2293 H 0.39158 1.01592 0.07156 0.0
H2294 H 0.4381 1.01116 1.00694 0.0
H2295 H 0.42873 1.01324 0.08167 0.0
H2296 H 0.50629 0.03695 0.0822 0.0
H2297 H 0.46831 0.03713 0.08055 0.0
H2298 H 0.45245 0.9765 0.02093 0.0
H2299 H 0.49034 0.97631 0.02234 0.0
C2300 C 0.40709 1.01418 0.01544 0.0
C2301 C 0.39342 1.01484 0.03329 0.0
C2302 C 0.42809 1.01231 0.02121 0.0
C2303 C 0.43593 1.01124 0.04494 0.0
C2304 C 0.42289 1.01372 0.06319 0.0
C2305 C 0.40172 1.01543 0.05739 0.0
C2306 C 0.49464 0.023 0.06937 0.0
C2307 C 0.50133 1.00696 0.05197 0.0
C2308 C 0.4729 0.02323 0.06839 0.0
C2309 C 0.45769 1.00735 0.05011 0.0
C2310 C 0.46405 0.98936 0.03477 0.0
C2311 C 0.4857 0.98911 0.03573 0.0
H2312 H 0.9124 0.63371 0.836 0.0
H2313 H 0.91909 0.61265 0.76089 0.0
H2314 H 0.88691 0.65677 0.82438 0.0
H2315 H 0.89374 0.636 0.74935 0.0
H2316 H 0.82321 0.64558 0.74088 0.0
H2317 H 0.8543 0.62906 0.74994 0.0
H2318 H 0.88197 0.69171 0.80609 0.0
H2319 H 0.85093 0.70813 0.79707 0.0
C2320 C 0.90878 0.63442 0.81706 0.0
C2321 C 0.91753 0.6211 0.79935 0.0
C2322 C 0.89424 0.64771 0.81041 0.0
C2323 C 0.88816 0.64791 0.78593 0.0
C2324 C 0.89789 0.63581 0.76832 0.0
C2325 C 0.91251 0.62259 0.77497 0.0
C2326 C 0.83605 0.65585 0.75499 0.0
C2327 C 0.83449 0.67781 0.76863 0.0
C2328 C 0.85389 0.64652 0.76009 0.0
C2329 C 0.87048 0.65907 0.77883 0.0
C2330 C 0.86925 0.68148 0.79184 0.0
C2331 C 0.85145 0.69077 0.78676 0.0
H2332 H 0.82486 0.63063 1.00738 0.0
H2333 H 0.87218 0.69673 1.00601 0.0
H2334 H 0.85352 0.60911 1.01016 0.0
H2335 H 0.90069 0.67553 1.00935 0.0
H2336 H 0.9448 0.62596 0.9901 0.0
H2337 H 0.91552 0.64619 0.98681 0.0
H2338 H 0.88386 0.60527 0.0366 0.0
H2339 H 0.91273 0.58423 0.03906 0.0
C2340 C 0.84135 0.6406 1.00777 0.0
C2341 C 0.84613 0.66542 1.00637 0.0
C2342 C 0.85783 0.62829 1.00951 0.0
C2343 C 0.87952 0.64049 1.00989 0.0
C2344 C 0.88422 0.66535 1.00866 0.0
C2345 C 0.8678 0.67759 1.00689 0.0
C2346 C 0.93152 0.62107 1.0002 0.0
C2347 C 0.93126 0.60339 0.01486 0.0
C2348 C 0.91478 0.63292 0.99853 0.0
C2349 C 0.89723 0.6275 1.0115 0.0
C2350 C 0.89694 0.6098 0.02614 0.0
C2351 C 0.9137 0.59794 0.02782 0.0
H2352 H 0.24883 0.10601 0.80017 0.0
H2353 H 0.19611 0.1269 0.7633 0.0
H2354 H 0.27222 0.14628 0.80026 0.0
H2355 H 0.21917 0.16626 0.76272 0.0
H2356 H 0.26046 0.24498 0.77722 0.0
H2357 H 0.23724 0.20533 0.77935 0.0
H2358 H 0.29272 0.17487 0.78201 0.0
H2359 H 0.31562 0.21443 0.7806 0.0
C2360 C 0.24211 0.11897 0.79198 0.0
C2361 C 0.22019 0.11249 0.7818 0.0
C2362 C 0.25569 0.14239 0.79187 0.0
C2363 C 0.24806 0.16052 0.78153 0.0
C2364 C 0.22614 0.15377 0.77138 0.0
C2365 C 0.21269 0.1306 0.77156 0.0
C2366 C 0.26772 0.22984 0.77822 0.0
C2367 C 0.2902 0.23343 0.77863 0.0
C2368 C 0.25428 0.20669 0.77934 0.0
C2369 C 0.2626 0.18591 0.78086 0.0
C2370 C 0.28515 0.18979 0.78128 0.0
C2371 C 0.2985 0.21283 0.78024 0.0
H2372 H 0.43105 0.97814 0.30439 0.0
H2373 H 0.37657 1.00709 0.32075 0.0
H2374 H 0.40727 0.93754 0.29246 0.0
H2375 H 0.35281 0.9663 0.30888 0.0
H2376 H 0.32731 0.88399 0.31429 0.0
H2377 H 0.34844 0.926 0.32445 0.0
H2378 H 0.37609 0.91655 0.25812 0.0
H2379 H 0.35486 0.87444 0.24778 0.0
C2380 C 0.41404 0.97581 0.30564 0.0
C2381 C 0.40566 0.99578 0.31351 0.0
C2382 C 0.40043 0.95263 0.29857 0.0
C2383 C 0.37824 0.94894 0.29951 0.0
C2384 C 0.36989 0.96875 0.30797 0.0
C2385 C 0.38347 0.99202 0.31477 0.0
C2386 C 0.3377 0.89096 0.30172 0.0
C2387 C 0.3396 0.87592 0.28034 0.0
C2388 C 0.34969 0.915 0.30751 0.0
C2389 C 0.36399 0.92432 0.29217 0.0
C2390 C 0.36532 0.9096 0.27035 0.0
C2391 C 0.35308 0.88562 0.26438 0.0
H2392 H 0.57167 0.37706 0.59959 0.0
H2393 H 0.63915 0.40932 0.60054 0.0
H2394 H 0.56251 0.41005 0.58163 0.0
H2395 H 0.63014 0.44164 0.58172 0.0
H2396 H 0.61002 0.51076 0.571 0.0
H2397 H 0.61874 0.47708 0.58764 0.0
H2398 H 0.55962 0.42926 0.54859 0.0
H2399 H 0.55053 0.46336 0.53276 0.0
C2400 C 0.58458 0.391 0.59568 0.0
C2401 C 0.60619 0.39039 0.60171 0.0
C2402 C 0.57933 0.41002 0.58519 0.0
C2403 C 0.59549 0.42902 0.58015 0.0
C2404 C 0.61708 0.42795 0.5857 0.0
C2405 C 0.62231 0.40912 0.59639 0.0
C2406 C 0.59886 0.49307 0.56584 0.0
C2407 C 0.57951 0.49002 0.55043 0.0
C2408 C 0.60395 0.4735 0.57534 0.0
C2409 C 0.59001 0.44999 0.56963 0.0
C2410 C 0.57075 0.44694 0.55393 0.0
C2411 C 0.56556 0.46659 0.54459 0.0
H2412 H 0.44918 0.74686 0.36638 0.0
H2413 H 0.47086 0.82293 0.36341 0.0
H2414 H 0.414 0.746 0.34468 0.0
H2415 H 0.43603 0.82205 0.34187 0.0
H2416 H 0.36525 0.81931 0.32112 0.0
H2417 H 0.39812 0.81844 0.34643 0.0
H2418 H 0.39755 0.74877 0.30441 0.0
H2419 H 0.36474 0.74968 0.27928 0.0
C2420 C 0.44649 0.76339 0.36117 0.0
C2421 C 0.46303 0.78492 0.36666 0.0
C2422 C 0.42631 0.7629 0.34863 0.0
C2423 C 0.42199 0.784 0.34151 0.0
C2424 C 0.4385 0.80552 0.34728 0.0
C2425 C 0.45865 0.80595 0.35953 0.0
C2426 C 0.372 0.80368 0.3175 0.0
C2427 C 0.36238 0.78462 0.29808 0.0
C2428 C 0.39098 0.80324 0.3319 0.0
C2429 C 0.40075 0.7836 0.32744 0.0
C2430 C 0.39054 0.76412 0.30859 0.0
C2431 C 0.37172 0.76469 0.29408 0.0
H2432 H 0.0679 0.74733 0.11008 0.0
H2433 H 0.11207 0.75686 0.0576 0.0
H2434 H 0.06002 0.70325 0.09693 0.0
H2435 H 0.10425 0.71286 0.0446 0.0
H2436 H 0.10514 0.63364 0.0508 0.0
H2437 H 0.11126 0.6776 0.06213 0.0
H2438 H 0.04291 0.67004 0.06108 0.0
H2439 H 0.03669 0.62591 0.04958 0.0
C2440 C 0.07585 0.74007 0.09565 0.0
C2441 C 0.09066 0.75575 0.08496 0.0
C2442 C 0.07125 0.71477 0.08804 0.0
C2443 C 0.08156 0.70444 0.06976 0.0
C2444 C 0.09618 0.72014 0.05889 0.0
C2445 C 0.10056 0.74542 0.06627 0.0
C2446 C 0.09136 0.64127 0.05294 0.0
C2447 C 0.07041 0.6261 0.04928 0.0
C2448 C 0.09489 0.66656 0.05931 0.0
C2449 C 0.07759 0.67744 0.06251 0.0
C2450 C 0.05662 0.66229 0.05894 0.0
C2451 C 0.05305 0.63697 0.05222 0.0
H2452 H 0.10367 0.27161 0.91396 0.0
H2453 H 0.06661 0.28848 0.854 0.0
H2454 H 0.13495 0.27628 0.89265 0.0
H2455 H 0.09822 0.29367 0.83274 0.0
H2456 H 0.15282 0.27647 0.79158 0.0
H2457 H 0.12123 0.27163 0.81254 0.0
H2458 H 0.16176 0.30608 0.87992 0.0
H2459 H 0.19339 0.31091 0.85894 0.0
C2460 C 0.10217 0.27643 0.89623 0.0
C2461 C 0.08249 0.27966 0.88575 0.0
C2462 C 0.12025 0.27928 0.88403 0.0
C2463 C 0.1193 0.28547 0.86093 0.0
C2464 C 0.09958 0.28863 0.85037 0.0
C2465 C 0.08143 0.28579 0.86262 0.0
C2466 C 0.15504 0.2832 0.81085 0.0
C2467 C 0.1758 0.29416 0.82347 0.0
C2468 C 0.13683 0.28045 0.8229 0.0
C2469 C 0.13878 0.2885 0.848 0.0
C2470 C 0.15956 0.2993 0.86066 0.0
C2471 C 0.17778 0.30206 0.8486 0.0
H2472 H 0.59136 0.76893 0.89477 0.0
H2473 H 0.64351 0.80741 0.95105 0.0
H2474 H 0.58268 0.7362 0.91737 0.0
H2475 H 0.63525 0.77423 0.97336 0.0
H2476 H 0.59765 0.72582 0.01958 0.0
H2477 H 0.60793 0.75761 0.99615 0.0
H2478 H 0.59458 0.70347 0.93081 0.0
H2479 H 0.58309 0.67181 0.95406 0.0
C2480 C 0.6012 0.77024 0.9118 0.0
C2481 C 0.61807 0.79084 0.92117 0.0
C2482 C 0.59627 0.75138 0.92473 0.0
C2483 C 0.60819 0.7526 0.94726 0.0
C2484 C 0.62549 0.7729 0.95628 0.0
C2485 C 0.63033 0.79185 0.9434 0.0
C2486 C 0.59664 0.72071 1.00018 0.0
C2487 C 0.58943 0.69625 0.98871 0.0
C2488 C 0.60287 0.73892 0.98677 0.0
C2489 C 0.60216 0.73312 0.96158 0.0
C2490 C 0.59512 0.70863 0.95014 0.0
C2491 C 0.58877 0.69043 0.96353 0.0
H2492 H 0.06323 0.79071 0.74425 0.0
H2493 H 0.063 0.71664 0.71485 0.0
H2494 H 0.09869 0.79612 0.76705 0.0
H2495 H 0.09872 0.72229 0.73644 0.0
H2496 H 0.17234 0.8055 0.77264 0.0
H2497 H 0.1344 0.80089 0.75932 0.0
H2498 H 0.12046 0.72751 0.7733 0.0
H2499 H 0.15855 0.73139 0.78452 0.0
C2500 C 0.07076 0.77558 0.74273 0.0
C2501 C 0.06043 0.75328 0.72775 0.0
C2502 C 0.09112 0.7787 0.75568 0.0
C2503 C 0.10168 0.7597 0.75355 0.0
C2504 C 0.09098 0.73721 0.73898 0.0
C2505 C 0.07052 0.73398 0.72641 0.0
C2506 C 0.16119 0.78836 0.77284 0.0
C2507 C 0.16863 0.76868 0.77918 0.0
C2508 C 0.13932 0.78583 0.76556 0.0
C2509 C 0.12433 0.76366 0.76485 0.0
C2510 C 0.1316 0.74464 0.77302 0.0
C2511 C 0.15349 0.74703 0.77989 0.0
H2512 H 0.0579 0.38748 0.42573 0.0
H2513 H 0.12493 0.42207 0.42585 0.0
H2514 H 0.05359 0.42376 0.4514 0.0
H2515 H 0.12048 0.45856 0.45117 0.0
H2516 H 0.10976 0.50552 0.52056 0.0
H2517 H 0.11445 0.47089 0.4926 0.0
H2518 H 0.0532 0.46616 0.45092 0.0
H2519 H 0.04832 0.50057 0.47939 0.0
C2520 C 0.07169 0.40287 0.43113 0.0
C2521 C 0.09178 0.40186 0.42385 0.0
C2522 C 0.06917 0.42373 0.44568 0.0
C2523 C 0.08668 0.44403 0.45327 0.0
C2524 C 0.10674 0.4431 0.44583 0.0
C2525 C 0.10927 0.42223 0.43127 0.0
C2526 C 0.09734 0.49709 0.50538 0.0
C2527 C 0.07863 0.50554 0.50213 0.0
C2528 C 0.1001 0.4774 0.48926 0.0
C2529 C 0.08418 0.46577 0.46958 0.0
C2530 C 0.06562 0.47457 0.4661 0.0
C2531 C 0.06288 0.49433 0.48225 0.0
H2532 H 0.41777 0.21161 0.17303 0.0
H2533 H 0.46763 0.26081 0.226 0.0
H2534 H 0.39073 0.21969 0.1984 0.0
H2535 H 0.44077 0.26824 0.25171 0.0
H2536 H 0.34598 0.23152 0.25224 0.0
H2537 H 0.3753 0.21704 0.23549 0.0
H2538 H 0.41415 0.29086 0.24853 0.0
H2539 H 0.38535 0.30517 0.26585 0.0
C2540 C 0.42299 0.22376 0.19031 0.0
C2541 C 0.44473 0.23596 0.19731 0.0
C2542 C 0.40752 0.22826 0.20495 0.0
C2543 C 0.41357 0.24487 0.22695 0.0
C2544 C 0.43552 0.25578 0.23462 0.0
C2545 C 0.45091 0.25149 0.2199 0.0
C2546 C 0.36097 0.24458 0.25199 0.0
C2547 C 0.36327 0.26955 0.26017 0.0
C2548 C 0.37769 0.23629 0.24224 0.0
C2549 C 0.39698 0.2528 0.24046 0.0
C2550 C 0.39963 0.27757 0.24987 0.0
C2551 C 0.38301 0.28583 0.25967 0.0
H2552 H 0.63267 0.50496 0.34595 0.0
H2553 H 0.67145 0.57507 0.38172 0.0
H2554 H 0.61186 0.50342 0.38013 0.0
H2555 H 0.65071 0.57395 0.4152 0.0
H2556 H 0.61703 0.56479 0.48357 0.0
H2557 H 0.63913 0.56488 0.45038 0.0
H2558 H 0.58707 0.5118 0.40406 0.0
H2559 H 0.56571 0.51138 0.43703 0.0
C2560 C 0.63687 0.52019 0.36089 0.0
C2561 C 0.65423 0.54014 0.36019 0.0
C2562 C 0.62466 0.51945 0.38092 0.0
C2563 C 0.62898 0.53861 0.40156 0.0
C2564 C 0.64639 0.55841 0.40063 0.0
C2565 C 0.65849 0.55911 0.38079 0.0
C2566 C 0.6103 0.55297 0.46641 0.0
C2567 C 0.58914 0.538 0.46376 0.0
C2568 C 0.62308 0.55309 0.44684 0.0
C2569 C 0.61551 0.5383 0.4234 0.0
C2570 C 0.59438 0.52336 0.42115 0.0
C2571 C 0.58177 0.52324 0.44053 0.0
H2572 H 0.37402 0.92077 0.03439 0.0
H2573 H 0.32135 0.94703 0.06146 0.0
H2574 H 0.37504 0.89752 0.06686 0.0
H2575 H 0.32235 0.92366 0.09378 0.0
H2576 H 0.34464 0.89668 0.16141 0.0
H2577 H 0.34702 0.92239 0.13077 0.0
H2578 H 0.34983 0.86135 0.07702 0.0
H2579 H 0.34704 0.83555 0.10738 0.0
C2580 C 0.3627 0.92161 0.04727 0.0
C2581 C 0.34752 0.93559 0.04532 0.0
C2582 C 0.36327 0.90828 0.06579 0.0
C2583 C 0.34878 0.90885 0.08276 0.0
C2584 C 0.33385 0.92314 0.08106 0.0
C2585 C 0.33318 0.93634 0.06246 0.0
C2586 C 0.34569 0.88876 0.14304 0.0
C2587 C 0.34559 0.86409 0.13678 0.0
C2588 C 0.34711 0.90346 0.12557 0.0
C2589 C 0.34859 0.89379 0.10161 0.0
C2590 C 0.349 0.86931 0.09546 0.0
C2591 C 0.34744 0.85458 0.11286 0.0
H2592 H 0.9725 0.51287 0.85815 0.0
H2593 H 0.98754 0.59124 0.87078 0.0
H2594 H 0.99918 0.51418 0.89195 0.0
H2595 H 1.01359 0.5927 0.90585 0.0
H2596 H 0.07049 0.5861 0.95795 0.0
H2597 H 0.04743 0.58561 0.92058 0.0
H2598 H 1.00214 0.52247 0.93372 0.0
H2599 H 0.02566 0.52206 0.96949 0.0
C2600 C 0.98135 0.53041 0.86844 0.0
C2601 C 0.97776 0.55194 0.86214 0.0
C2602 C 0.99662 0.5312 0.88789 0.0
C2603 C 1.0083 0.55355 0.90195 0.0
C2604 C 1.00501 0.57518 0.89532 0.0
C2605 C 0.98998 0.57437 0.87541 0.0
C2606 C 0.05569 0.57204 0.95252 0.0
C2607 C 0.04967 0.55431 0.96666 0.0
C2608 C 0.0424 0.57186 0.93132 0.0
C2609 C 0.02292 0.55397 0.92408 0.0
C2610 C 0.01717 0.53624 0.93835 0.0
C2611 C 0.03053 0.53621 0.95913 0.0
H2612 H 0.26958 0.21561 0.5734 0.0
H2613 H 0.33537 0.25618 0.57701 0.0
H2614 H 0.27036 0.23107 0.61623 0.0
H2615 H 0.33596 0.27229 0.61956 0.0
H2616 H 0.33914 0.27503 0.70056 0.0
H2617 H 0.33736 0.26047 0.65758 0.0
H2618 H 0.27115 0.26512 0.64642 0.0
H2619 H 0.27276 0.27905 0.68975 0.0
C2620 C 0.28414 0.22809 0.58324 0.0
C2621 C 0.30245 0.23452 0.57168 0.0
C2622 C 0.28456 0.23708 0.60787 0.0
C2623 C 0.30327 0.25288 0.62164 0.0
C2624 C 0.32138 0.25978 0.60984 0.0
C2625 C 0.321 0.25067 0.58528 0.0
C2626 C 0.32416 0.27297 0.68901 0.0
C2627 C 0.30609 0.27827 0.69879 0.0
C2628 C 0.32318 0.26475 0.66419 0.0
C2629 C 0.30414 0.26168 0.64824 0.0
C2630 C 0.28603 0.26694 0.65804 0.0
C2631 C 0.28698 0.27507 0.68296 0.0
H2632 H 0.63172 0.56958 0.22919 0.0
H2633 H 0.65364 0.50702 0.19999 0.0
H2634 H 0.61387 0.5701 0.1898 0.0
H2635 H 0.6358 0.5078 0.15955 0.0
H2636 H 0.58795 0.506 0.08965 0.0
H2637 H 0.60564 0.5027 0.12908 0.0
H2638 H 0.61557 0.57992 0.15251 0.0
H2639 H 0.59763 0.58295 0.11369 0.0
C2640 C 0.63292 0.55578 0.21436 0.0
C2641 C 0.64456 0.53828 0.21863 0.0
C2642 C 0.62261 0.55625 0.19118 0.0
C2643 C 0.62322 0.5393 0.17038 0.0
C2644 C 0.63454 0.52135 0.17457 0.0
C2645 C 0.64497 0.52087 0.19807 0.0
C2646 C 0.59379 0.52233 0.10322 0.0
C2647 C 0.59088 0.54479 0.09785 0.0
C2648 C 0.60423 0.52045 0.12614 0.0
C2649 C 0.61229 0.54092 0.14504 0.0
C2650 C 0.60945 0.56332 0.13938 0.0
C2651 C 0.59909 0.56518 0.1166 0.0
H2652 H 0.3151 0.91279 0.94271 0.0
H2653 H 0.37717 0.94749 0.92534 0.0
H2654 H 0.3131 0.87774 0.91135 0.0
H2655 H 0.37502 0.91235 0.89381 0.0
H2656 H 0.34001 0.86324 0.81904 0.0
H2657 H 0.34957 0.89571 0.85412 0.0
H2658 H 0.33247 0.84344 0.90041 0.0
H2659 H 0.32335 0.81051 0.86504 0.0
C2660 C 0.32831 0.91294 0.93219 0.0
C2661 C 0.3462 0.93299 0.93631 0.0
C2662 C 0.32727 0.89274 0.91448 0.0
C2663 C 0.34399 0.89231 0.90035 0.0
C2664 C 0.36195 0.91226 0.90453 0.0
C2665 C 0.36312 0.93236 0.92248 0.0
C2666 C 0.33903 0.8585 0.83673 0.0
C2667 C 0.33106 0.83433 0.83933 0.0
C2668 C 0.34445 0.87715 0.85683 0.0
C2669 C 0.34165 0.87206 0.8799 0.0
C2670 C 0.33463 0.84778 0.88272 0.0
C2671 C 0.32954 0.82899 0.86256 0.0
H2672 H 0.95594 0.52916 0.72514 0.0
H2673 H 0.99063 0.49581 0.77391 0.0
H2674 H 0.97321 0.51306 0.69209 0.0
H2675 H 1.0084 0.48 0.74066 0.0
H2676 H 0.05686 0.51717 0.68749 0.0
H2677 H 0.03548 0.50835 0.71937 0.0
H2678 H 0.97976 0.4741 0.66633 0.0
H2679 H 1.00142 0.48205 0.63403 0.0
C2680 C 0.96707 0.51809 0.72867 0.0
C2681 C 0.97232 0.51407 0.75205 0.0
C2682 C 0.97668 0.50854 0.7097 0.0
C2683 C 0.99201 0.49516 0.71387 0.0
C2684 C 0.99649 0.49011 0.73704 0.0
C2685 C 0.98646 0.49926 0.75599 0.0
C2686 C 0.04039 0.5066 0.68242 0.0
C2687 C 0.03064 0.50107 0.65822 0.0
C2688 C 0.02811 0.50151 0.70079 0.0
C2689 C 1.00591 0.49107 0.69522 0.0
C2690 C 0.99683 0.4825 0.67099 0.0
C2691 C 1.00918 0.48728 0.65258 0.0
H2692 H 0.24641 0.23275 0.43021 0.0
H2693 H 0.30996 0.21957 0.4374 0.0
H2694 H 0.25406 0.25102 0.39491 0.0
H2695 H 0.31756 0.2378 0.40182 0.0
H2696 H 0.31367 0.25098 0.32188 0.0
H2697 H 0.30557 0.2305 0.35619 0.0
H2698 H 0.27807 0.28844 0.3865 0.0
H2699 H 0.28628 0.30879 0.35262 0.0
C2700 C 0.26204 0.23375 0.4243 0.0
C2701 C 0.27759 0.22475 0.43683 0.0
C2702 C 0.26644 0.24429 0.40403 0.0
C2703 C 0.28643 0.24588 0.39544 0.0
C2704 C 0.30194 0.23668 0.40779 0.0
C2705 C 0.29764 0.22641 0.42833 0.0
C2706 C 0.30577 0.25919 0.33583 0.0
C2707 C 0.30064 0.28152 0.33456 0.0
C2708 C 0.30127 0.24758 0.35556 0.0
C2709 C 0.29118 0.25783 0.37418 0.0
C2710 C 0.28567 0.27989 0.37248 0.0
C2711 C 0.29045 0.29161 0.35306 0.0
H2712 H 0.33795 0.60195 0.51406 0.0
H2713 H 0.37766 0.64665 0.57842 0.0
H2714 H 0.36538 0.57947 0.50794 0.0
H2715 H 0.40514 0.62391 0.57223 0.0
H2716 H 0.45757 0.59539 0.53407 0.0
H2717 H 0.43041 0.61795 0.54183 0.0
H2718 H 0.38126 0.55066 0.52861 0.0
H2719 H 0.40854 0.52791 0.52126 0.0
C2720 C 0.35256 0.60703 0.52689 0.0
C2721 C 0.35565 0.6261 0.54676 0.0
C2722 C 0.36817 0.59401 0.52345 0.0
C2723 C 0.38727 0.59986 0.53969 0.0
C2724 C 0.39056 0.61912 0.55939 0.0
C2725 C 0.37484 0.63208 0.56295 0.0
C2726 C 0.44103 0.58534 0.53321 0.0
C2727 C 0.43521 0.55982 0.52719 0.0
C2728 C 0.4255 0.59829 0.5376 0.0
C2729 C 0.40379 0.58603 0.53584 0.0
C2730 C 0.3979 0.56055 0.52984 0.0
C2731 C 0.41348 0.54755 0.52559 0.0
H2732 H 0.89184 0.98214 0.56315 0.0
H2733 H 0.91522 0.91952 0.53677 0.0
H2734 H 0.92745 1.00855 0.56265 0.0
H2735 H 0.95054 0.94577 0.5363 0.0
H2736 H 1.0025 1.00283 0.51148 0.0
H2737 H 0.9674 0.97652 0.5134 0.0
H2738 H 0.96554 0.01835 0.58317 0.0
H2739 H 1.00089 0.04453 0.58132 0.0
C2740 C 0.90453 0.97399 0.5573 0.0
C2741 C 0.90056 0.94866 0.54998 0.0
C2742 C 0.92498 0.98912 0.55712 0.0
C2743 C 0.94189 0.97931 0.54935 0.0
C2744 C 0.93788 0.954 0.54212 0.0
C2745 C 0.91758 0.93891 0.54253 0.0
C2746 C 0.99476 1.00622 0.52738 0.0
C2747 C 1.0046 0.02567 0.54632 0.0
C2748 C 0.97459 0.99115 0.52848 0.0
C2749 C 0.96356 0.9953 0.54844 0.0
C2750 C 0.97344 1.01477 0.56742 0.0
C2751 C 0.99376 0.02968 0.56643 0.0
H2752 H 0.87833 0.11991 0.2771 0.0
H2753 H 0.92928 0.16838 0.25228 0.0
H2754 H 0.85786 0.15146 0.28001 0.0
H2755 H 0.90914 0.19907 0.25438 0.0
H2756 H 0.87662 0.26177 0.27022 0.0
H2757 H 0.896 0.22994 0.26878 0.0
H2758 H 0.837 0.17751 0.27127 0.0
H2759 H 0.81786 0.20992 0.27361 0.0
C2760 C 0.88531 0.13708 0.27206 0.0
C2761 C 0.90603 0.14079 0.26448 0.0
C2762 C 0.87335 0.15563 0.27369 0.0
C2763 C 0.88127 0.17908 0.26777 0.0
C2764 C 0.90185 0.18229 0.25988 0.0
C2765 C 0.91369 0.16402 0.25842 0.0
C2766 C 0.86759 0.24355 0.27059 0.0
C2767 C 0.84523 0.23928 0.27215 0.0
C2768 C 0.8789 0.22465 0.26948 0.0
C2769 C 0.8687 0.19988 0.26959 0.0
C2770 C 0.84624 0.19571 0.27125 0.0
C2771 C 0.83496 0.21471 0.27252 0.0
H2772 H 0.72168 0.12242 0.97277 0.0
H2773 H 0.72369 0.09595 0.04024 0.0
H2774 H 0.68213 0.11201 0.9685 0.0
H2775 H 0.68459 0.08607 0.03597 0.0
H2776 H 0.62261 0.10845 0.04015 0.0
H2777 H 0.66015 0.1213 0.03423 0.0
H2778 H 0.64864 0.067 0.96941 0.0
H2779 H 0.61078 0.05375 0.97534 0.0
C2780 C 0.71374 0.11412 0.98647 0.0
C2781 C 0.72582 0.11022 1.00697 0.0
C2782 C 0.69119 0.10821 0.98398 0.0
C2783 C 0.68058 0.09863 1.00209 0.0
C2784 C 0.69257 0.09373 0.02194 0.0
C2785 C 0.71494 0.09932 0.0243 0.0
C2786 C 0.62786 0.09968 0.02423 0.0
C2787 C 0.6139 0.07981 1.00845 0.0
C2788 C 0.64931 0.10705 0.02088 0.0
C2789 C 0.65714 0.09483 1.00161 0.0
C2790 C 0.64281 0.07663 0.98438 0.0
C2791 C 0.6212 0.06914 0.98776 0.0
H2792 H 0.24813 0.49863 0.24468 0.0
H2793 H 0.20717 0.47884 0.29822 0.0
H2794 H 0.2758 0.48264 0.26417 0.0
H2795 H 0.23511 0.46297 0.31788 0.0
H2796 H 0.27962 0.40798 0.31855 0.0
H2797 H 0.25201 0.42845 0.30764 0.0
H2798 H 0.30109 0.49183 0.30256 0.0
H2799 H 0.32898 0.47139 0.31383 0.0
C2800 C 0.245 0.49083 0.26058 0.0
C2801 C 0.22543 0.48994 0.26987 0.0
C2802 C 0.26098 0.48196 0.27193 0.0
C2803 C 0.25771 0.47193 0.29275 0.0
C2804 C 0.23804 0.47067 0.30187 0.0
C2805 C 0.22205 0.47967 0.29057 0.0
C2806 C 0.28463 0.42663 0.31605 0.0
C2807 C 0.30655 0.43802 0.31689 0.0
C2808 C 0.26874 0.4383 0.30966 0.0
C2809 C 0.27443 0.46154 0.30387 0.0
C2810 C 0.2963 0.47368 0.30648 0.0
C2811 C 0.31224 0.46204 0.31298 0.0
H2812 H 0.25213 0.41033 0.06041 0.0
H2813 H 0.29515 0.46876 0.03687 0.0
H2814 H 0.22322 0.43092 0.05656 0.0
H2815 H 0.26592 0.48928 0.03254 0.0
H2816 H 0.21465 0.53075 0.05327 0.0
H2817 H 0.24403 0.51055 0.05586 0.0
H2818 H 0.19919 0.44145 0.02722 0.0
H2819 H 0.16977 0.46167 0.02464 0.0
C2820 C 0.25545 0.42756 0.05431 0.0
C2821 C 0.27607 0.43785 0.04898 0.0
C2822 C 0.23873 0.43932 0.05192 0.0
C2823 C 0.24208 0.46178 0.04412 0.0
C2824 C 0.26274 0.47214 0.03884 0.0
C2825 C 0.27952 0.46032 0.04121 0.0
C2826 C 0.21104 0.51127 0.04722 0.0
C2827 C 0.18972 0.49791 0.03871 0.0
C2828 C 0.22796 0.49966 0.04871 0.0
C2829 C 0.2241 0.4743 0.04179 0.0
C2830 C 0.2028 0.46095 0.03311 0.0
C2831 C 0.18587 0.47257 0.03162 0.0
H2832 H 0.87422 1.00209 0.27347 0.0
H2833 H 0.92337 0.96644 0.25227 0.0
H2834 H 0.85152 0.96287 0.27764 0.0
H2835 H 0.90079 0.92752 0.25557 0.0
H2836 H 0.8626 0.85847 0.27837 0.0
H2837 H 0.88557 0.89814 0.27587 0.0
H2838 H 0.82895 0.92538 0.26345 0.0
H2839 H 0.80648 0.88629 0.2668 0.0
C2840 C 0.88022 0.98598 0.26941 0.0
C2841 C 0.90097 0.98811 0.26245 0.0
C2842 C 0.86702 0.96306 0.27173 0.0
C2843 C 0.87384 0.94104 0.2671 0.0
C2844 C 0.89455 0.9434 0.25993 0.0
C2845 C 0.90767 0.96616 0.25776 0.0
C2846 C 0.85505 0.87293 0.27519 0.0
C2847 C 0.8324 0.86865 0.27287 0.0
C2848 C 0.86832 0.89602 0.27354 0.0
C2849 C 0.85962 0.91597 0.26937 0.0
C2850 C 0.8369 0.91138 0.26707 0.0
C2851 C 0.82375 0.88848 0.26883 0.0
H2852 H 0.73868 0.10219 0.74579 0.0
H2853 H 0.68485 0.13539 0.73999 0.0
H2854 H 0.7634 0.14243 0.75675 0.0
H2855 H 0.70964 0.17554 0.7511 0.0
H2856 H 0.75911 0.24072 0.79821 0.0
H2857 H 0.73611 0.19932 0.78996 0.0
H2858 H 0.77368 0.17877 0.73461 0.0
H2859 H 0.79649 0.21996 0.74263 0.0
C2860 C 0.73216 0.11807 0.74673 0.0
C2861 C 0.70988 0.11572 0.74203 0.0
C2862 C 0.74628 0.141 0.75302 0.0
C2863 C 0.73829 0.16188 0.75501 0.0
C2864 C 0.71607 0.15959 0.75002 0.0
C2865 C 0.70196 0.13667 0.74341 0.0
C2866 C 0.76261 0.22722 0.78458 0.0
C2867 C 0.77939 0.23347 0.77091 0.0
C2868 C 0.74942 0.2037 0.77975 0.0
C2869 C 0.75313 0.18611 0.76155 0.0
C2870 C 0.77057 0.19207 0.74876 0.0
C2871 C 0.78352 0.21561 0.7533 0.0
loop_
_geom_bond_atom_site_label_1
_geom_bond_atom_site_label_2
_geom_bond_distance
_geom_bond_site_symmetry_2
_ccdc_geom_bond_type
C0 O1 1.160 . S
C0 O7 1.185 . S
O1 C0 1.160 . S
O2 Zn3 1.899 . S
O2 C10 1.284 . S
Zn3 O2 1.899 . S
Zn3 O4 2.032 . S
Zn3 O7 2.086 . S
Zn3 O12 1.977 . S
O4 Zn3 2.032 . S
O4 C8 1.278 . S
C5 O6 1.203 . S
C5 O12 1.267 . S
O6 C5 1.203 . S
O7 C0 1.185 . S
O7 Zn3 2.086 . S
C8 O4 1.278 . S
C8 O9 1.211 . S
O9 C8 1.211 . S
C10 O2 1.284 . S
C10 O11 1.273 . S
O11 C10 1.273 . S
O12 Zn3 1.977 . S
O12 C5 1.267 . S
C13 O14 1.160 . S
C13 O20 1.185 . S
O14 C13 1.160 . S
O15 Zn16 1.899 . S
O15 C23 1.284 . S
Zn16 O15 1.899 . S
Zn16 O17 2.032 . S
Zn16 O20 2.086 . S
Zn16 O25 1.977 1_655 S
O17 Zn16 2.032 . S
O17 C21 1.278 1_655 S
C18 O19 1.203 . S
C18 O25 1.267 . S
O19 C18 1.203 . S
O20 C13 1.185 . S
O20 Zn16 2.086 . S
C21 O17 1.278 1_455 S
C21 O22 1.211 . S
O22 C21 1.211 . S
C23 O15 1.284 . S
C23 O24 1.273 1_655 S
O24 C23 1.273 1_455 S
O25 Zn16 1.977 1_455 S
O25 C18 1.267 . S
C26 O27 1.160 . S
C26 O33 1.185 . S
O27 C26 1.160 . S
O28 Zn29 1.899 . S
O28 C36 1.284 . S
Zn29 O28 1.899 . S
Zn29 O30 2.032 . S
Zn29 O33 2.086 . S
Zn29 O38 1.977 . S
O30 Zn29 2.032 . S
O30 C34 1.278 . S
C31 O32 1.203 . S
C31 O38 1.267 . S
O32 C31 1.203 . S
O33 C26 1.185 . S
O33 Zn29 2.086 . S
C34 O30 1.278 . S
C34 O35 1.211 . S
O35 C34 1.211 . S
C36 O28 1.284 . S
C36 O37 1.273 . S
O37 C36 1.273 . S
O38 Zn29 1.977 . S
O38 C31 1.267 . S
C39 O40 1.160 . S
C39 O46 1.185 . S
O40 C39 1.160 . S
O41 Zn42 1.899 . S
O41 C49 1.284 . S
Zn42 O41 1.899 . S
Zn42 O43 2.032 . S
Zn42 O46 2.086 . S
Zn42 O51 1.977 . S
O43 Zn42 2.032 . S
O43 C47 1.278 . S
C44 O45 1.203 . S
C44 O51 1.267 . S
O45 C44 1.203 . S
O46 C39 1.185 . S
O46 Zn42 2.086 . S
C47 O43 1.278 . S
C47 O48 1.211 . S
O48 C47 1.211 . S
C49 O41 1.284 . S
C49 O50 1.273 . S
O50 C49 1.273 . S
O51 Zn42 1.977 . S
O51 C44 1.267 . S
C52 O53 1.160 . S
C52 O59 1.185 . S
O53 C52 1.160 . S
O54 Zn55 1.899 . S
O54 C62 1.284 . S
Zn55 O54 1.899 . S
Zn55 O56 2.032 . S
Zn55 O59 2.086 . S
Zn55 O64 1.977 . S
O56 Zn55 2.032 . S
O56 C60 1.278 . S
C57 O58 1.203 . S
C57 O64 1.267 . S
O58 C57 1.203 . S
O59 C52 1.185 . S
O59 Zn55 2.086 . S
C60 O56 1.278 . S
C60 O61 1.211 . S
O61 C60 1.211 . S
C62 O54 1.284 . S
C62 O63 1.273 . S
O63 C62 1.273 . S
O64 Zn55 1.977 . S
O64 C57 1.267 . S
C65 O66 1.160 . S
C65 O72 1.185 . S
O66 C65 1.160 . S
O67 Zn68 1.899 . S
O67 C75 1.284 . S
Zn68 O67 1.899 . S
Zn68 O69 2.032 . S
Zn68 O72 2.086 . S
Zn68 O77 1.977 . S
O69 Zn68 2.032 . S
O69 C73 1.278 . S
C70 O71 1.203 . S
C70 O77 1.267 . S
O71 C70 1.203 . S
O72 C65 1.185 . S
O72 Zn68 2.086 . S
C73 O69 1.278 . S
C73 O74 1.211 . S
O74 C73 1.211 . S
C75 O67 1.284 . S
C75 O76 1.273 . S
O76 C75 1.273 . S
O77 Zn68 1.977 . S
O77 C70 1.267 . S
C78 O79 1.160 . S
C78 O85 1.185 . S
O79 C78 1.160 . S
O80 Zn81 1.899 . S
O80 C88 1.284 . S
Zn81 O80 1.899 . S
Zn81 O82 2.032 . S
Zn81 O85 2.086 . S
Zn81 O90 1.977 . S
O82 Zn81 2.032 . S
O82 C86 1.278 . S
C83 O84 1.203 . S
C83 O90 1.267 . S
O84 C83 1.203 . S
O85 C78 1.185 . S
O85 Zn81 2.086 . S
C86 O82 1.278 . S
C86 O87 1.211 . S
O87 C86 1.211 . S
C88 O80 1.284 . S
C88 O89 1.273 . S
O89 C88 1.273 . S
O90 Zn81 1.977 . S
O90 C83 1.267 . S
C91 O92 1.160 . S
C91 O98 1.185 . S
O92 C91 1.160 . S
O93 Zn94 1.899 . S
O93 C101 1.284 . S
Zn94 O93 1.899 . S
Zn94 O95 2.032 . S
Zn94 O98 2.086 . S
Zn94 O103 1.977 1_455 S
O95 Zn94 2.032 . S
O95 C99 1.278 . S
C96 O97 1.203 . S
C96 O103 1.267 . S
O97 C96 1.203 . S
O98 C91 1.185 . S
O98 Zn94 2.086 . S
C99 O95 1.278 . S
C99 O100 1.211 . S
O100 C99 1.211 . S
C101 O93 1.284 . S
C101 O102 1.273 . S
O102 C101 1.273 . S
O103 Zn94 1.977 1_655 S
O103 C96 1.267 . S
C104 O105 1.160 . S
C104 O111 1.185 . S
O105 C104 1.160 . S
O106 Zn107 1.897 . S
O106 C114 1.272 1_545 S
Zn107 O106 1.897 . S
Zn107 O108 2.032 . S
Zn107 O111 2.086 . S
Zn107 O116 1.977 1_545 S
O108 Zn107 2.032 . S
O108 C112 1.278 . S
C109 O110 1.203 . S
C109 O116 1.267 . S
O110 C109 1.203 . S
O111 C104 1.185 . S
O111 Zn107 2.086 . S
C112 O108 1.278 . S
C112 O113 1.211 1_545 S
O113 C112 1.211 1_565 S
C114 O106 1.272 1_565 S
C114 O115 1.273 . S
O115 C114 1.273 . S
O116 Zn107 1.977 1_565 S
O116 C109 1.267 . S
C117 O118 1.160 . S
C117 O124 1.185 . S
O118 C117 1.160 . S
O119 Zn120 1.899 . S
O119 C127 1.284 . S
Zn120 O119 1.899 . S
Zn120 O121 2.032 . S
Zn120 O124 2.086 . S
Zn120 O129 1.977 . S
O121 Zn120 2.032 . S
O121 C125 1.278 . S
C122 O123 1.203 . S
C122 O129 1.267 . S
O123 C122 1.203 . S
O124 C117 1.185 . S
O124 Zn120 2.086 . S
C125 O121 1.278 . S
C125 O126 1.211 . S
O126 C125 1.211 . S
C127 O119 1.284 . S
C127 O128 1.273 . S
O128 C127 1.273 . S
O129 Zn120 1.977 . S
O129 C122 1.267 . S
C130 O131 1.160 . S
C130 O137 1.185 . S
O131 C130 1.160 . S
O132 Zn133 1.899 1_565 S
O132 C140 1.279 1_565 S
Zn133 O132 1.899 1_545 S
Zn133 O134 2.032 1_545 S
Zn133 O137 2.086 1_545 S
Zn133 O142 1.977 . S
O134 Zn133 2.032 1_565 S
O134 C138 1.278 1_565 S
C135 O136 1.203 . S
C135 O142 1.267 . S
O136 C135 1.203 . S
O137 C130 1.185 . S
O137 Zn133 2.086 1_565 S
C138 O134 1.278 1_545 S
C138 O139 1.211 . S
O139 C138 1.211 . S
C140 O132 1.279 1_545 S
C140 O141 1.278 . S
O141 C140 1.278 . S
O142 Zn133 1.977 . S
O142 C135 1.267 . S
C143 O144 1.160 . S
C143 O150 1.185 . S
O144 C143 1.160 . S
O145 Zn146 1.899 . S
O145 C153 1.284 . S
Zn146 O145 1.899 . S
Zn146 O147 2.032 1_554 S
Zn146 O150 2.086 . S
Zn146 O155 1.977 . S
O147 Zn146 2.032 1_556 S
O147 C151 1.278 . S
C148 O149 1.203 . S
C148 O155 1.267 . S
O149 C148 1.203 . S
O150 C143 1.185 . S
O150 Zn146 2.086 . S
C151 O147 1.278 . S
C151 O152 1.211 . S
O152 C151 1.211 . S
C153 O145 1.284 . S
C153 O154 1.273 . S
O154 C153 1.273 . S
O155 Zn146 1.977 . S
O155 C148 1.267 . S
C156 O157 1.160 . S
C156 O163 1.185 . S
O157 C156 1.160 . S
O158 Zn159 1.899 . S
O158 C166 1.284 . S
Zn159 O158 1.899 . S
Zn159 O160 2.032 1_554 S
Zn159 O163 2.086 . S
Zn159 O168 1.977 . S
O160 Zn159 2.032 1_556 S
O160 C164 1.278 . S
C161 O162 1.203 . S
C161 O168 1.267 . S
O162 C161 1.203 . S
O163 C156 1.185 . S
O163 Zn159 2.086 . S
C164 O160 1.278 . S
C164 O165 1.211 . S
O165 C164 1.211 . S
C166 O158 1.284 . S
C166 O167 1.273 . S
O167 C166 1.273 . S
O168 Zn159 1.977 . S
O168 C161 1.267 . S
C169 O170 1.160 . S
C169 O176 1.185 . S
O170 C169 1.160 . S
O171 Zn172 1.899 . S
O171 C179 1.284 . S
Zn172 O171 1.899 . S
Zn172 O173 2.032 1_554 S
Zn172 O176 2.086 . S
Zn172 O181 1.977 . S
O173 Zn172 2.032 1_556 S
O173 C177 1.278 . S
C174 O175 1.203 . S
C174 O181 1.267 . S
O175 C174 1.203 . S
O176 C169 1.185 . S
O176 Zn172 2.086 . S
C177 O173 1.278 . S
C177 O178 1.211 . S
O178 C177 1.211 . S
C179 O171 1.284 . S
C179 O180 1.273 . S
O180 C179 1.273 . S
O181 Zn172 1.977 . S
O181 C174 1.267 . S
C182 O183 1.160 . S
C182 O189 1.185 . S
O183 C182 1.160 . S
O184 Zn185 1.899 . S
O184 C192 1.284 . S
Zn185 O184 1.899 . S
Zn185 O186 2.032 . S
Zn185 O189 2.086 . S
Zn185 O194 1.977 . S
O186 Zn185 2.032 . S
O186 C190 1.278 . S
C187 O188 1.203 . S
C187 O194 1.267 . S
O188 C187 1.203 . S
O189 C182 1.185 . S
O189 Zn185 2.086 . S
C190 O186 1.278 . S
C190 O191 1.211 . S
O191 C190 1.211 . S
C192 O184 1.284 . S
C192 O193 1.273 . S
O193 C192 1.273 . S
O194 Zn185 1.977 . S
O194 C187 1.267 . S
C195 O196 1.160 . S
C195 O202 1.185 . S
O196 C195 1.160 . S
O197 Zn198 1.899 . S
O197 C205 1.284 . S
Zn198 O197 1.899 . S
Zn198 O199 2.032 . S
Zn198 O202 2.086 . S
Zn198 O207 1.977 . S
O199 Zn198 2.032 . S
O199 C203 1.278 . S
C200 O201 1.203 . S
C200 O207 1.267 . S
O201 C200 1.203 . S
O202 C195 1.185 . S
O202 Zn198 2.086 . S
C203 O199 1.278 . S
C203 O204 1.211 . S
O204 C203 1.211 . S
C205 O197 1.284 . S
C205 O206 1.273 . S
O206 C205 1.273 . S
O207 Zn198 1.977 . S
O207 C200 1.267 . S
C208 O209 1.160 . S
C208 O215 1.185 . S
O209 C208 1.160 . S
O210 Zn211 1.899 . S
O210 C218 1.284 . S
Zn211 O210 1.899 . S
Zn211 O212 2.032 . S
Zn211 O215 2.086 . S
Zn211 O220 1.977 . S
O212 Zn211 2.032 . S
O212 C216 1.278 . S
C213 O214 1.203 . S
C213 O220 1.267 . S
O214 C213 1.203 . S
O215 C208 1.185 . S
O215 Zn211 2.086 . S
C216 O212 1.278 . S
C216 O217 1.211 . S
O217 C216 1.211 . S
C218 O210 1.284 . S
C218 O219 1.273 . S
O219 C218 1.273 . S
O220 Zn211 1.977 . S
O220 C213 1.267 . S
C221 O222 1.160 . S
C221 O228 1.185 . S
O222 C221 1.160 . S
O223 Zn224 1.899 . S
O223 C231 1.284 . S
Zn224 O223 1.899 . S
Zn224 O225 2.032 . S
Zn224 O228 2.086 . S
Zn224 O233 1.977 . S
O225 Zn224 2.032 . S
O225 C229 1.278 . S
C226 O227 1.203 . S
C226 O233 1.267 . S
O227 C226 1.203 . S
O228 C221 1.185 . S
O228 Zn224 2.086 . S
C229 O225 1.278 . S
C229 O230 1.211 . S
O230 C229 1.211 . S
C231 O223 1.284 . S
C231 O232 1.273 . S
O232 C231 1.273 . S
O233 Zn224 1.977 . S
O233 C226 1.267 . S
C234 O235 1.160 . S
C234 O241 1.185 . S
O235 C234 1.160 . S
O236 Zn237 1.899 . S
O236 C244 1.284 . S
Zn237 O236 1.899 . S
Zn237 O238 2.032 . S
Zn237 O241 2.086 . S
Zn237 O246 1.977 . S
O238 Zn237 2.032 . S
O238 C242 1.278 . S
C239 O240 1.203 . S
C239 O246 1.267 . S
O240 C239 1.203 . S
O241 C234 1.185 . S
O241 Zn237 2.086 . S
C242 O238 1.278 . S
C242 O243 1.211 . S
O243 C242 1.211 . S
C244 O236 1.284 . S
C244 O245 1.273 . S
O245 C244 1.273 . S
O246 Zn237 1.977 . S
O246 C239 1.267 . S
C247 O248 1.160 . S
C247 O254 1.185 . S
O248 C247 1.160 . S
O249 Zn250 1.899 . S
O249 C257 1.284 . S
Zn250 O249 1.899 . S
Zn250 O251 2.032 . S
Zn250 O254 2.086 . S
Zn250 O259 1.977 . S
O251 Zn250 2.032 . S
O251 C255 1.278 . S
C252 O253 1.203 . S
C252 O259 1.267 . S
O253 C252 1.203 . S
O254 C247 1.185 . S
O254 Zn250 2.086 . S
C255 O251 1.278 . S
C255 O256 1.211 . S
O256 C255 1.211 . S
C257 O249 1.284 . S
C257 O258 1.273 . S
O258 C257 1.273 . S
O259 Zn250 1.977 . S
O259 C252 1.267 . S
C260 O261 1.160 . S
C260 O267 1.185 . S
O261 C260 1.160 . S
O262 Zn263 1.899 . S
O262 C270 1.284 . S
Zn263 O262 1.899 . S
Zn263 O264 2.032 1_554 S
Zn263 O267 2.086 . S
Zn263 O272 1.977 1_554 S
O264 Zn263 2.032 1_556 S
O264 C268 1.278 . S
C265 O266 1.203 . S
C265 O272 1.267 1_554 S
O266 C265 1.203 . S
O267 C260 1.185 . S
O267 Zn263 2.086 . S
C268 O264 1.278 . S
C268 O269 1.211 . S
O269 C268 1.211 . S
C270 O262 1.284 . S
C270 O271 1.273 . S
O271 C270 1.273 . S
O272 Zn263 1.977 1_556 S
O272 C265 1.267 1_556 S
C273 O274 1.160 . S
C273 O280 1.185 . S
O274 C273 1.160 . S
O275 Zn276 1.899 . S
O275 C283 1.284 . S
Zn276 O275 1.899 . S
Zn276 O277 2.032 . S
Zn276 O280 2.086 . S
Zn276 O285 1.977 . S
O277 Zn276 2.032 . S
O277 C281 1.278 . S
C278 O279 1.203 . S
C278 O285 1.267 . S
O279 C278 1.203 . S
O280 C273 1.185 . S
O280 Zn276 2.086 . S
C281 O277 1.278 . S
C281 O282 1.211 . S
O282 C281 1.211 . S
C283 O275 1.284 . S
C283 O284 1.273 . S
O284 C283 1.273 . S
O285 Zn276 1.977 . S
O285 C278 1.267 . S
C286 O287 1.160 . S
C286 O293 1.185 . S
O287 C286 1.160 . S
O288 Zn289 1.899 . S
O288 C296 1.284 . S
Zn289 O288 1.899 . S
Zn289 O290 2.032 . S
Zn289 O293 2.086 . S
Zn289 O298 1.977 . S
O290 Zn289 2.032 . S
O290 C294 1.278 . S
C291 O292 1.203 . S
C291 O298 1.267 . S
O292 C291 1.203 . S
O293 C286 1.185 . S
O293 Zn289 2.086 . S
C294 O290 1.278 . S
C294 O295 1.211 . S
O295 C294 1.211 . S
C296 O288 1.284 . S
C296 O297 1.273 . S
O297 C296 1.273 . S
O298 Zn289 1.977 . S
O298 C291 1.267 . S
C299 O300 1.160 . S
C299 O306 1.185 . S
O300 C299 1.160 . S
O301 Zn302 1.899 . S
O301 C309 1.284 . S
Zn302 O301 1.899 . S
Zn302 O303 2.032 . S
Zn302 O306 2.086 . S
Zn302 O311 1.977 . S
O303 Zn302 2.032 . S
O303 C307 1.278 . S
C304 O305 1.203 . S
C304 O311 1.267 . S
O305 C304 1.203 . S
O306 C299 1.185 . S
O306 Zn302 2.086 . S
C307 O303 1.278 . S
C307 O308 1.211 . S
O308 C307 1.211 . S
C309 O301 1.284 . S
C309 O310 1.273 . S
O310 C309 1.273 . S
O311 Zn302 1.977 . S
O311 C304 1.267 . S
La312 C314 2.928 1_455 S
La312 O332 2.521 1_455 S
La312 O333 2.628 1_456 S
La312 O334 2.554 . S
La312 O335 2.757 . S
La312 O336 2.470 . S
La312 O341 2.482 1_556 S
La312 O343 2.503 1_546 S
La313 C323 2.928 . S
La313 O335 2.482 1_554 S
La313 O337 2.503 . S
La313 O338 2.521 . S
La313 O339 2.628 . S
La313 O340 2.554 . S
La313 O341 2.757 . S
La313 O342 2.470 . S
C314 La312 2.928 1_655 S
C314 C315 1.503 . S
C314 O332 1.261 . S
C314 O333 1.243 1_556 S
C315 C314 1.503 . S
C315 C316 1.394 . S
C315 C320 1.373 . S
C316 C315 1.394 . S
C316 C317 1.380 . S
C316 H344 0.930 . S
C317 C316 1.380 . S
C317 C318 1.376 . S
C317 H345 0.930 . S
C318 C317 1.376 . S
C318 C319 1.370 . S
C319 C318 1.370 . S
C319 C320 1.396 . S
C319 H346 0.929 1_556 S
C320 C315 1.373 . S
C320 C319 1.396 . S
C320 H347 0.929 1_556 S
C321 O334 1.240 . S
C321 O335 1.289 . S
C322 O336 1.258 1_554 S
C322 O337 1.256 . S
C323 La313 2.928 . S
C323 C324 1.503 . S
C323 O338 1.261 . S
C323 O339 1.243 . S
C324 C323 1.503 . S
C324 C325 1.394 . S
C324 C329 1.373 . S
C325 C324 1.394 . S
C325 C326 1.380 . S
C325 H348 0.930 . S
C326 C325 1.380 . S
C326 C327 1.376 . S
C326 H349 0.930 . S
C327 C326 1.376 . S
C327 C328 1.370 1_545 S
C328 C327 1.370 1_565 S
C328 C329 1.396 1_565 S
C328 H350 0.929 . S
C329 C324 1.373 . S
C329 C328 1.396 1_545 S
C329 H351 0.929 1_545 S
C330 O340 1.240 . S
C330 O341 1.289 . S
C331 O342 1.258 1_565 S
C331 O343 1.256 . S
O332 La312 2.521 1_655 S
O332 C314 1.261 . S
O333 La312 2.628 1_654 S
O333 C314 1.243 1_554 S
O334 La312 2.554 . S
O334 C321 1.240 . S
O335 La312 2.757 . S
O335 La313 2.482 1_556 S
O335 C321 1.289 . S
O336 La312 2.470 . S
O336 C322 1.258 1_556 S
O337 La313 2.503 . S
O337 C322 1.256 . S
O338 La313 2.521 . S
O338 C323 1.261 . S
O339 La313 2.628 . S
O339 C323 1.243 . S
O340 La313 2.554 . S
O340 C330 1.240 . S
O341 La312 2.482 1_554 S
O341 La313 2.757 . S
O341 C330 1.289 . S
O342 La313 2.470 . S
O342 C331 1.258 1_545 S
O343 La312 2.503 1_564 S
O343 C331 1.256 . S
H344 C316 0.930 . S
H345 C317 0.930 . S
H346 C319 0.929 1_554 S
H347 C320 0.929 1_554 S
H348 C325 0.930 . S
H349 C326 0.930 . S
H350 C328 0.929 . S
H351 C329 0.929 1_565 S
La352 C354 2.928 . S
La352 O372 2.521 . S
La352 O373 2.628 . S
La352 O374 2.554 . S
La352 O375 2.757 . S
La352 O376 2.470 . S
La352 O381 2.482 . S
La352 O383 2.503 . S
La353 C363 2.928 . S
La353 O375 2.482 . S
La353 O377 2.503 . S
La353 O378 2.521 . S
La353 O379 2.628 . S
La353 O380 2.554 . S
La353 O381 2.757 . S
La353 O382 2.470 . S
C354 La352 2.928 . S
C354 C355 1.503 . S
C354 O372 1.261 . S
C354 O373 1.243 . S
C355 C354 1.503 . S
C355 C356 1.394 . S
C355 C360 1.373 . S
C356 C355 1.394 . S
C356 C357 1.380 . S
C356 H384 0.930 . S
C357 C356 1.380 . S
C357 C358 1.376 . S
C357 H385 0.930 . S
C358 C357 1.376 . S
C358 C359 1.370 . S
C359 C358 1.370 . S
C359 C360 1.396 . S
C359 H386 0.929 . S
C360 C355 1.373 . S
C360 C359 1.396 . S
C360 H387 0.929 . S
C361 O374 1.240 . S
C361 O375 1.289 . S
C362 O376 1.258 . S
C362 O377 1.256 . S
C363 La353 2.928 . S
C363 C364 1.503 . S
C363 O378 1.261 . S
C363 O379 1.243 . S
C364 C363 1.503 . S
C364 C365 1.394 . S
C364 C369 1.373 . S
C365 C364 1.394 . S
C365 C366 1.380 . S
C365 H388 0.930 . S
C366 C365 1.380 . S
C366 C367 1.376 . S
C366 H389 0.930 . S
C367 C366 1.376 . S
C367 C368 1.370 . S
C368 C367 1.370 . S
C368 C369 1.396 . S
C368 H390 0.929 . S
C369 C364 1.373 . S
C369 C368 1.396 . S
C369 H391 0.929 . S
C370 O380 1.240 . S
C370 O381 1.289 . S
C371 O382 1.258 . S
C371 O383 1.256 . S
O372 La352 2.521 . S
O372 C354 1.261 . S
O373 La352 2.628 . S
O373 C354 1.243 . S
O374 La352 2.554 . S
O374 C361 1.240 . S
O375 La352 2.757 . S
O375 La353 2.482 . S
O375 C361 1.289 . S
O376 La352 2.470 . S
O376 C362 1.258 . S
O377 La353 2.503 . S
O377 C362 1.256 . S
O378 La353 2.521 . S
O378 C363 1.261 . S
O379 La353 2.628 . S
O379 C363 1.243 . S
O380 La353 2.554 . S
O380 C370 1.240 . S
O381 La352 2.482 . S
O381 La353 2.757 . S
O381 C370 1.289 . S
O382 La353 2.470 . S
O382 C371 1.258 . S
O383 La352 2.503 . S
O383 C371 1.256 . S
H384 C356 0.930 . S
H385 C357 0.930 . S
H386 C359 0.929 . S
H387 C360 0.929 . S
H388 C365 0.930 . S
H389 C366 0.930 . S
H390 C368 0.929 . S
H391 C369 0.929 . S
La392 C394 2.928 . S
La392 O412 2.521 . S
La392 O413 2.628 . S
La392 O414 2.554 . S
La392 O415 2.757 . S
La392 O416 2.474 1_545 S
La392 O421 2.482 . S
La392 O423 2.503 . S
La393 C403 2.928 . S
La393 O415 2.482 . S
La393 O417 2.503 1_545 S
La393 O418 2.521 . S
La393 O419 2.628 . S
La393 O420 2.554 . S
La393 O421 2.757 . S
La393 O422 2.470 . S
C394 La392 2.928 . S
C394 C395 1.503 1_545 S
C394 O412 1.261 . S
C394 O413 1.243 . S
C395 C394 1.503 1_565 S
C395 C396 1.394 . S
C395 C400 1.373 . S
C396 C395 1.394 . S
C396 C397 1.380 . S
C396 H424 0.930 1_565 S
C397 C396 1.380 . S
C397 C398 1.376 . S
C397 H425 0.930 . S
C398 C397 1.376 . S
C398 C399 1.370 . S
C399 C398 1.370 . S
C399 C400 1.396 . S
C399 H426 0.929 . S
C400 C395 1.373 . S
C400 C399 1.396 . S
C400 H427 0.929 . S
C401 O414 1.240 . S
C401 O415 1.289 . S
C402 O416 1.255 . S
C402 O417 1.256 . S
C403 La393 2.928 . S
C403 C404 1.503 . S
C403 O418 1.261 . S
C403 O419 1.243 . S
C404 C403 1.503 . S
C404 C405 1.394 . S
C404 C409 1.373 . S
C405 C404 1.394 . S
C405 C406 1.380 . S
C405 H428 0.930 . S
C406 C405 1.380 . S
C406 C407 1.376 . S
C406 H429 0.930 . S
C407 C406 1.376 . S
C407 C408 1.370 . S
C408 C407 1.370 . S
C408 C409 1.396 . S
C408 H430 0.929 . S
C409 C404 1.373 . S
C409 C408 1.396 . S
C409 H431 0.929 . S
C410 O420 1.240 . S
C410 O421 1.289 . S
C411 O422 1.258 . S
C411 O423 1.256 . S
O412 La392 2.521 . S
O412 C394 1.261 . S
O413 La392 2.628 . S
O413 C394 1.243 . S
O414 La392 2.554 . S
O414 C401 1.240 . S
O415 La392 2.757 . S
O415 La393 2.482 . S
O415 C401 1.289 . S
O416 La392 2.474 1_565 S
O416 C402 1.255 . S
O417 La393 2.503 1_565 S
O417 C402 1.256 . S
O418 La393 2.521 . S
O418 C403 1.261 . S
O419 La393 2.628 . S
O419 C403 1.243 . S
O420 La393 2.554 . S
O420 C410 1.240 . S
O421 La392 2.482 . S
O421 La393 2.757 . S
O421 C410 1.289 . S
O422 La393 2.470 . S
O422 C411 1.258 . S
O423 La392 2.503 . S
O423 C411 1.256 . S
H424 C396 0.930 1_545 S
H425 C397 0.930 . S
H426 C399 0.929 . S
H427 C400 0.929 . S
H428 C405 0.930 . S
H429 C406 0.930 . S
H430 C408 0.929 . S
H431 C409 0.929 . S
La432 C434 2.928 . S
La432 O452 2.521 . S
La432 O453 2.628 . S
La432 O454 2.554 . S
La432 O455 2.757 . S
La432 O456 2.470 . S
La432 O461 2.482 . S
La432 O463 2.503 . S
La433 C443 2.928 . S
La433 O455 2.482 . S
La433 O457 2.503 . S
La433 O458 2.521 . S
La433 O459 2.628 . S
La433 O460 2.554 . S
La433 O461 2.757 . S
La433 O462 2.470 . S
C434 La432 2.928 . S
C434 C435 1.503 . S
C434 O452 1.261 . S
C434 O453 1.243 . S
C435 C434 1.503 . S
C435 C436 1.394 . S
C435 C440 1.373 . S
C436 C435 1.394 . S
C436 C437 1.380 . S
C436 H464 0.930 . S
C437 C436 1.380 . S
C437 C438 1.376 . S
C437 H465 0.930 . S
C438 C437 1.376 . S
C438 C439 1.370 . S
C439 C438 1.370 . S
C439 C440 1.396 . S
C439 H466 0.929 . S
C440 C435 1.373 . S
C440 C439 1.396 . S
C440 H467 0.929 . S
C441 O454 1.240 . S
C441 O455 1.289 . S
C442 O456 1.258 . S
C442 O457 1.256 . S
C443 La433 2.928 . S
C443 C444 1.503 . S
C443 O458 1.261 . S
C443 O459 1.243 . S
C444 C443 1.503 . S
C444 C445 1.394 . S
C444 C449 1.373 . S
C445 C444 1.394 . S
C445 C446 1.380 . S
C445 H468 0.930 . S
C446 C445 1.380 . S
C446 C447 1.376 . S
C446 H469 0.930 . S
C447 C446 1.376 . S
C447 C448 1.370 . S
C448 C447 1.370 . S
C448 C449 1.396 . S
C448 H470 0.929 . S
C449 C444 1.373 . S
C449 C448 1.396 . S
C449 H471 0.929 . S
C450 O460 1.240 . S
C450 O461 1.289 . S
C451 O462 1.258 . S
C451 O463 1.256 . S
O452 La432 2.521 . S
O452 C434 1.261 . S
O453 La432 2.628 . S
O453 C434 1.243 . S
O454 La432 2.554 . S
O454 C441 1.240 . S
O455 La432 2.757 . S
O455 La433 2.482 . S
O455 C441 1.289 . S
O456 La432 2.470 . S
O456 C442 1.258 . S
O457 La433 2.503 . S
O457 C442 1.256 . S
O458 La433 2.521 . S
O458 C443 1.261 . S
O459 La433 2.628 . S
O459 C443 1.243 . S
O460 La433 2.554 . S
O460 C450 1.240 . S
O461 La432 2.482 . S
O461 La433 2.757 . S
O461 C450 1.289 . S
O462 La433 2.470 . S
O462 C451 1.258 . S
O463 La432 2.503 . S
O463 C451 1.256 . S
H464 C436 0.930 . S
H465 C437 0.930 . S
H466 C439 0.929 . S
H467 C440 0.929 . S
H468 C445 0.930 . S
H469 C446 0.930 . S
H470 C448 0.929 . S
H471 C449 0.929 . S
La472 C474 2.928 . S
La472 O492 2.521 . S
La472 O493 2.628 . S
La472 O494 2.554 . S
La472 O495 2.757 . S
La472 O496 2.470 . S
La472 O501 2.482 . S
La472 O503 2.503 . S
La473 C483 2.928 1_545 S
La473 O495 2.482 . S
La473 O497 2.503 . S
La473 O498 2.521 1_545 S
La473 O499 2.628 1_545 S
La473 O500 2.554 . S
La473 O501 2.757 . S
La473 O502 2.470 . S
C474 La472 2.928 . S
C474 C475 1.503 . S
C474 O492 1.261 . S
C474 O493 1.243 . S
C475 C474 1.503 . S
C475 C476 1.394 . S
C475 C480 1.373 . S
C476 C475 1.394 . S
C476 C477 1.380 . S
C476 H504 0.930 . S
C477 C476 1.380 . S
C477 C478 1.376 . S
C477 H505 0.930 . S
C478 C477 1.376 . S
C478 C479 1.370 . S
C479 C478 1.370 . S
C479 C480 1.396 . S
C479 H506 0.929 . S
C480 C475 1.373 . S
C480 C479 1.396 . S
C480 H507 0.929 . S
C481 O494 1.240 . S
C481 O495 1.289 . S
C482 O496 1.258 . S
C482 O497 1.256 . S
C483 La473 2.928 1_565 S
C483 C484 1.503 . S
C483 O498 1.261 . S
C483 O499 1.243 . S
C484 C483 1.503 . S
C484 C485 1.394 . S
C484 C489 1.373 . S
C485 C484 1.394 . S
C485 C486 1.380 . S
C485 H508 0.930 . S
C486 C485 1.380 . S
C486 C487 1.376 . S
C486 H509 0.930 . S
C487 C486 1.376 . S
C487 C488 1.370 . S
C488 C487 1.370 . S
C488 C489 1.396 . S
C488 H510 0.929 . S
C489 C484 1.373 . S
C489 C488 1.396 . S
C489 H511 0.929 . S
C490 O500 1.240 . S
C490 O501 1.289 . S
C491 O502 1.258 . S
C491 O503 1.256 . S
O492 La472 2.521 . S
O492 C474 1.261 . S
O493 La472 2.628 . S
O493 C474 1.243 . S
O494 La472 2.554 . S
O494 C481 1.240 . S
O495 La472 2.757 . S
O495 La473 2.482 . S
O495 C481 1.289 . S
O496 La472 2.470 . S
O496 C482 1.258 . S
O497 La473 2.503 . S
O497 C482 1.256 . S
O498 La473 2.521 1_565 S
O498 C483 1.261 . S
O499 La473 2.628 1_565 S
O499 C483 1.243 . S
O500 La473 2.554 . S
O500 C490 1.240 . S
O501 La472 2.482 . S
O501 La473 2.757 . S
O501 C490 1.289 . S
O502 La473 2.470 . S
O502 C491 1.258 . S
O503 La472 2.503 . S
O503 C491 1.256 . S
H504 C476 0.930 . S
H505 C477 0.930 . S
H506 C479 0.929 . S
H507 C480 0.929 . S
H508 C485 0.930 . S
H509 C486 0.930 . S
H510 C488 0.929 . S
H511 C489 0.929 . S
La512 C514 2.928 . S
La512 O532 2.521 . S
La512 O533 2.628 . S
La512 O534 2.554 . S
La512 O535 2.757 . S
La512 O536 2.470 . S
La512 O541 2.482 . S
La512 O543 2.503 . S
La513 C523 2.928 . S
La513 O535 2.482 . S
La513 O537 2.503 . S
La513 O538 2.521 . S
La513 O539 2.628 . S
La513 O540 2.554 . S
La513 O541 2.757 . S
La513 O542 2.470 . S
C514 La512 2.928 . S
C514 C515 1.503 . S
C514 O532 1.261 . S
C514 O533 1.243 . S
C515 C514 1.503 . S
C515 C516 1.394 . S
C515 C520 1.373 . S
C516 C515 1.394 . S
C516 C517 1.380 . S
C516 H544 0.930 . S
C517 C516 1.380 . S
C517 C518 1.376 . S
C517 H545 0.930 . S
C518 C517 1.376 . S
C518 C519 1.370 . S
C519 C518 1.370 . S
C519 C520 1.396 . S
C519 H546 0.929 . S
C520 C515 1.373 . S
C520 C519 1.396 . S
C520 H547 0.929 . S
C521 O534 1.240 . S
C521 O535 1.289 . S
C522 O536 1.258 . S
C522 O537 1.256 . S
C523 La513 2.928 . S
C523 C524 1.503 . S
C523 O538 1.261 . S
C523 O539 1.243 . S
C524 C523 1.503 . S
C524 C525 1.394 . S
C524 C529 1.373 . S
C525 C524 1.394 . S
C525 C526 1.380 . S
C525 H548 0.930 . S
C526 C525 1.380 . S
C526 C527 1.376 . S
C526 H549 0.930 . S
C527 C526 1.376 . S
C527 C528 1.370 . S
C528 C527 1.370 . S
C528 C529 1.396 . S
C528 H550 0.929 . S
C529 C524 1.373 . S
C529 C528 1.396 . S
C529 H551 0.929 . S
C530 O540 1.240 . S
C530 O541 1.289 . S
C531 O542 1.258 . S
C531 O543 1.256 . S
O532 La512 2.521 . S
O532 C514 1.261 . S
O533 La512 2.628 . S
O533 C514 1.243 . S
O534 La512 2.554 . S
O534 C521 1.240 . S
O535 La512 2.757 . S
O535 La513 2.482 . S
O535 C521 1.289 . S
O536 La512 2.470 . S
O536 C522 1.258 . S
O537 La513 2.503 . S
O537 C522 1.256 . S
O538 La513 2.521 . S
O538 C523 1.261 . S
O539 La513 2.628 . S
O539 C523 1.243 . S
O540 La513 2.554 . S
O540 C530 1.240 . S
O541 La512 2.482 . S
O541 La513 2.757 . S
O541 C530 1.289 . S
O542 La513 2.470 . S
O542 C531 1.258 . S
O543 La512 2.503 . S
O543 C531 1.256 . S
H544 C516 0.930 . S
H545 C517 0.930 . S
H546 C519 0.929 . S
H547 C520 0.929 . S
H548 C525 0.930 . S
H549 C526 0.930 . S
H550 C528 0.929 . S
H551 C529 0.929 . S
La552 C554 2.928 . S
La552 O572 2.521 1_545 S
La552 O573 2.628 . S
La552 O574 2.554 1_545 S
La552 O575 2.759 1_554 S
La552 O576 2.470 . S
La552 O581 2.482 . S
La552 O583 2.503 . S
La553 C563 2.928 . S
La553 O575 2.481 . S
La553 O577 2.503 . S
La553 O578 2.521 . S
La553 O579 2.628 . S
La553 O580 2.554 1_556 S
La553 O581 2.757 1_556 S
La553 O582 2.470 1_556 S
C554 La552 2.928 . S
C554 C555 1.499 1_545 S
C554 O572 1.261 1_545 S
C554 O573 1.243 . S
C555 C554 1.499 1_565 S
C555 C556 1.406 . S
C555 C560 1.366 1_565 S
C556 C555 1.406 . S
C556 C557 1.380 . S
C556 H584 0.930 . S
C557 C556 1.380 . S
C557 C558 1.376 . S
C557 H585 0.930 . S
C558 C557 1.376 . S
C558 C559 1.370 1_565 S
C559 C558 1.370 1_545 S
C559 C560 1.396 . S
C559 H586 0.929 . S
C560 C555 1.366 1_545 S
C560 C559 1.396 . S
C560 H587 0.929 . S
C561 O574 1.240 . S
C561 O575 1.290 1_564 S
C562 O576 1.258 . S
C562 O577 1.256 1_554 S
C563 La553 2.928 . S
C563 C564 1.503 . S
C563 O578 1.261 . S
C563 O579 1.243 . S
C564 C563 1.503 . S
C564 C565 1.394 . S
C564 C569 1.373 . S
C565 C564 1.394 . S
C565 C566 1.380 . S
C565 H588 0.930 . S
C566 C565 1.380 . S
C566 C567 1.376 . S
C566 H589 0.930 . S
C567 C566 1.376 . S
C567 C568 1.370 . S
C568 C567 1.370 . S
C568 C569 1.396 . S
C568 H590 0.929 . S
C569 C564 1.373 . S
C569 C568 1.396 . S
C569 H591 0.929 . S
C570 O580 1.240 . S
C570 O581 1.289 . S
C571 O582 1.258 . S
C571 O583 1.256 . S
O572 La552 2.521 1_565 S
O572 C554 1.261 1_565 S
O573 La552 2.628 . S
O573 C554 1.243 . S
O574 La552 2.554 1_565 S
O574 C561 1.240 . S
O575 La552 2.759 1_556 S
O575 La553 2.481 . S
O575 C561 1.290 1_546 S
O576 La552 2.470 . S
O576 C562 1.258 . S
O577 La553 2.503 . S
O577 C562 1.256 1_556 S
O578 La553 2.521 . S
O578 C563 1.261 . S
O579 La553 2.628 . S
O579 C563 1.243 . S
O580 La553 2.554 1_554 S
O580 C570 1.240 . S
O581 La552 2.482 . S
O581 La553 2.757 1_554 S
O581 C570 1.289 . S
O582 La553 2.470 1_554 S
O582 C571 1.258 . S
O583 La552 2.503 . S
O583 C571 1.256 . S
H584 C556 0.930 . S
H585 C557 0.930 . S
H586 C559 0.929 . S
H587 C560 0.929 . S
H588 C565 0.930 . S
H589 C566 0.930 . S
H590 C568 0.929 . S
H591 C569 0.929 . S
La592 C594 2.928 . S
La592 O612 2.521 . S
La592 O613 2.628 . S
La592 O614 2.554 . S
La592 O615 2.757 . S
La592 O616 2.470 . S
La592 O621 2.482 . S
La592 O623 2.503 . S
La593 C603 2.928 . S
La593 O615 2.482 . S
La593 O617 2.503 . S
La593 O618 2.521 . S
La593 O619 2.628 . S
La593 O620 2.554 . S
La593 O621 2.757 . S
La593 O622 2.470 . S
C594 La592 2.928 . S
C594 C595 1.503 . S
C594 O612 1.261 . S
C594 O613 1.243 . S
C595 C594 1.503 . S
C595 C596 1.394 . S
C595 C600 1.373 . S
C596 C595 1.394 . S
C596 C597 1.380 . S
C596 H624 0.930 . S
C597 C596 1.380 . S
C597 C598 1.376 . S
C597 H625 0.930 . S
C598 C597 1.376 . S
C598 C599 1.370 . S
C599 C598 1.370 . S
C599 C600 1.396 . S
C599 H626 0.929 . S
C600 C595 1.373 . S
C600 C599 1.396 . S
C600 H627 0.929 . S
C601 O614 1.240 . S
C601 O615 1.289 . S
C602 O616 1.258 . S
C602 O617 1.256 . S
C603 La593 2.928 . S
C603 C604 1.503 . S
C603 O618 1.261 . S
C603 O619 1.243 . S
C604 C603 1.503 . S
C604 C605 1.394 . S
C604 C609 1.373 . S
C605 C604 1.394 . S
C605 C606 1.380 . S
C605 H628 0.930 . S
C606 C605 1.380 . S
C606 C607 1.376 . S
C606 H629 0.930 . S
C607 C606 1.376 . S
C607 C608 1.370 . S
C608 C607 1.370 . S
C608 C609 1.396 . S
C608 H630 0.929 . S
C609 C604 1.373 . S
C609 C608 1.396 . S
C609 H631 0.929 . S
C610 O620 1.240 . S
C610 O621 1.289 . S
C611 O622 1.258 . S
C611 O623 1.256 . S
O612 La592 2.521 . S
O612 C594 1.261 . S
O613 La592 2.628 . S
O613 C594 1.243 . S
O614 La592 2.554 . S
O614 C601 1.240 . S
O615 La592 2.757 . S
O615 La593 2.482 . S
O615 C601 1.289 . S
O616 La592 2.470 . S
O616 C602 1.258 . S
O617 La593 2.503 . S
O617 C602 1.256 . S
O618 La593 2.521 . S
O618 C603 1.261 . S
O619 La593 2.628 . S
O619 C603 1.243 . S
O620 La593 2.554 . S
O620 C610 1.240 . S
O621 La592 2.482 . S
O621 La593 2.757 . S
O621 C610 1.289 . S
O622 La593 2.470 . S
O622 C611 1.258 . S
O623 La592 2.503 . S
O623 C611 1.256 . S
H624 C596 0.930 . S
H625 C597 0.930 . S
H626 C599 0.929 . S
H627 C600 0.929 . S
H628 C605 0.930 . S
H629 C606 0.930 . S
H630 C608 0.929 . S
H631 C609 0.929 . S
La632 C634 2.928 . S
La632 O652 2.521 . S
La632 O653 2.648 . S
La632 O654 2.554 . S
La632 O655 2.757 . S
La632 O656 2.470 1_554 S
La632 O661 2.482 . S
La632 O663 2.503 . S
La633 C643 2.928 . S
La633 O655 2.482 . S
La633 O657 2.503 1_554 S
La633 O658 2.521 . S
La633 O659 2.628 . S
La633 O660 2.554 . S
La633 O661 2.757 . S
La633 O662 2.470 . S
C634 La632 2.928 . S
C634 C635 1.503 1_554 S
C634 O652 1.261 . S
C634 O653 1.248 . S
C635 C634 1.503 1_556 S
C635 C636 1.394 . S
C635 C640 1.373 . S
C636 C635 1.394 . S
C636 C637 1.380 . S
C636 H664 0.930 1_556 S
C637 C636 1.380 . S
C637 C638 1.376 . S
C637 H665 0.930 . S
C638 C637 1.376 . S
C638 C639 1.370 . S
C639 C638 1.370 . S
C639 C640 1.396 . S
C639 H666 0.929 . S
C640 C635 1.373 . S
C640 C639 1.396 . S
C640 H667 0.929 . S
C641 O654 1.240 . S
C641 O655 1.289 . S
C642 O656 1.258 . S
C642 O657 1.256 . S
C643 La633 2.928 . S
C643 C644 1.503 . S
C643 O658 1.261 . S
C643 O659 1.243 . S
C644 C643 1.503 . S
C644 C645 1.394 . S
C644 C649 1.373 . S
C645 C644 1.394 . S
C645 C646 1.380 . S
C645 H668 0.930 . S
C646 C645 1.380 . S
C646 C647 1.376 . S
C646 H669 0.930 . S
C647 C646 1.376 . S
C647 C648 1.370 . S
C648 C647 1.370 . S
C648 C649 1.396 . S
C648 H670 0.929 . S
C649 C644 1.373 . S
C649 C648 1.396 . S
C649 H671 0.929 . S
C650 O660 1.240 . S
C650 O661 1.289 . S
C651 O662 1.258 . S
C651 O663 1.256 . S
O652 La632 2.521 . S
O652 C634 1.261 . S
O653 La632 2.648 . S
O653 C634 1.248 . S
O654 La632 2.554 . S
O654 C641 1.240 . S
O655 La632 2.757 . S
O655 La633 2.482 . S
O655 C641 1.289 . S
O656 La632 2.470 1_556 S
O656 C642 1.258 . S
O657 La633 2.503 1_556 S
O657 C642 1.256 . S
O658 La633 2.521 . S
O658 C643 1.261 . S
O659 La633 2.628 . S
O659 C643 1.243 . S
O660 La633 2.554 . S
O660 C650 1.240 . S
O661 La632 2.482 . S
O661 La633 2.757 . S
O661 C650 1.289 . S
O662 La633 2.470 . S
O662 C651 1.258 . S
O663 La632 2.503 . S
O663 C651 1.256 . S
H664 C636 0.930 1_554 S
H665 C637 0.930 . S
H666 C639 0.929 . S
H667 C640 0.929 . S
H668 C645 0.930 . S
H669 C646 0.930 . S
H670 C648 0.929 . S
H671 C649 0.929 . S
La672 C674 2.928 . S
La672 O692 2.521 . S
La672 O693 2.628 . S
La672 O694 2.554 . S
La672 O695 2.757 . S
La672 O696 2.470 . S
La672 O701 2.482 . S
La672 O703 2.503 . S
La673 C683 2.928 . S
La673 O695 2.482 . S
La673 O697 2.503 . S
La673 O698 2.521 . S
La673 O699 2.628 . S
La673 O700 2.554 . S
La673 O701 2.757 . S
La673 O702 2.470 . S
C674 La672 2.928 . S
C674 C675 1.503 . S
C674 O692 1.261 . S
C674 O693 1.243 . S
C675 C674 1.503 . S
C675 C676 1.394 . S
C675 C680 1.373 . S
C676 C675 1.394 . S
C676 C677 1.380 . S
C676 H704 0.930 . S
C677 C676 1.380 . S
C677 C678 1.376 . S
C677 H705 0.930 . S
C678 C677 1.376 . S
C678 C679 1.370 . S
C679 C678 1.370 . S
C679 C680 1.396 . S
C679 H706 0.929 . S
C680 C675 1.373 . S
C680 C679 1.396 . S
C680 H707 0.929 . S
C681 O694 1.240 . S
C681 O695 1.289 . S
C682 O696 1.258 . S
C682 O697 1.256 . S
C683 La673 2.928 . S
C683 C684 1.503 . S
C683 O698 1.261 . S
C683 O699 1.243 . S
C684 C683 1.503 . S
C684 C685 1.394 . S
C684 C689 1.373 . S
C685 C684 1.394 . S
C685 C686 1.380 . S
C685 H708 0.930 . S
C686 C685 1.380 . S
C686 C687 1.376 . S
C686 H709 0.930 . S
C687 C686 1.376 . S
C687 C688 1.370 . S
C688 C687 1.370 . S
C688 C689 1.396 . S
C688 H710 0.929 . S
C689 C684 1.373 . S
C689 C688 1.396 . S
C689 H711 0.929 . S
C690 O700 1.240 . S
C690 O701 1.289 . S
C691 O702 1.258 . S
C691 O703 1.256 . S
O692 La672 2.521 . S
O692 C674 1.261 . S
O693 La672 2.628 . S
O693 C674 1.243 . S
O694 La672 2.554 . S
O694 C681 1.240 . S
O695 La672 2.757 . S
O695 La673 2.482 . S
O695 C681 1.289 . S
O696 La672 2.470 . S
O696 C682 1.258 . S
O697 La673 2.503 . S
O697 C682 1.256 . S
O698 La673 2.521 . S
O698 C683 1.261 . S
O699 La673 2.628 . S
O699 C683 1.243 . S
O700 La673 2.554 . S
O700 C690 1.240 . S
O701 La672 2.482 . S
O701 La673 2.757 . S
O701 C690 1.289 . S
O702 La673 2.470 . S
O702 C691 1.258 . S
O703 La672 2.503 . S
O703 C691 1.256 . S
H704 C676 0.930 . S
H705 C677 0.930 . S
H706 C679 0.929 . S
H707 C680 0.929 . S
H708 C685 0.930 . S
H709 C686 0.930 . S
H710 C688 0.929 . S
H711 C689 0.929 . S
La712 C714 2.928 . S
La712 O732 2.521 . S
La712 O733 2.628 . S
La712 O734 2.554 . S
La712 O735 2.757 . S
La712 O736 2.470 . S
La712 O741 2.482 . S
La712 O743 2.503 . S
La713 C723 2.928 . S
La713 O735 2.482 . S
La713 O737 2.503 . S
La713 O738 2.521 . S
La713 O739 2.628 . S
La713 O740 2.554 . S
La713 O741 2.757 . S
La713 O742 2.470 . S
C714 La712 2.928 . S
C714 C715 1.503 . S
C714 O732 1.261 . S
C714 O733 1.243 . S
C715 C714 1.503 . S
C715 C716 1.394 . S
C715 C720 1.373 . S
C716 C715 1.394 . S
C716 C717 1.380 . S
C716 H744 0.930 . S
C717 C716 1.380 . S
C717 C718 1.376 1_455 S
C717 H745 0.930 . S
C718 C717 1.376 1_655 S
C718 C719 1.370 . S
C719 C718 1.370 . S
C719 C720 1.396 1_655 S
C719 H746 0.929 . S
C720 C715 1.373 . S
C720 C719 1.396 1_455 S
C720 H747 0.947 . S
C721 O734 1.240 . S
C721 O735 1.289 . S
C722 O736 1.258 . S
C722 O737 1.256 . S
C723 La713 2.928 . S
C723 C724 1.503 . S
C723 O738 1.261 . S
C723 O739 1.243 . S
C724 C723 1.503 . S
C724 C725 1.394 . S
C724 C729 1.373 . S
C725 C724 1.394 . S
C725 C726 1.380 . S
C725 H748 0.930 . S
C726 C725 1.380 . S
C726 C727 1.376 . S
C726 H749 0.930 . S
C727 C726 1.376 . S
C727 C728 1.370 . S
C728 C727 1.370 . S
C728 C729 1.396 . S
C728 H750 0.929 . S
C729 C724 1.373 . S
C729 C728 1.396 . S
C729 H751 0.929 . S
C730 O740 1.240 . S
C730 O741 1.289 . S
C731 O742 1.258 . S
C731 O743 1.256 . S
O732 La712 2.521 . S
O732 C714 1.261 . S
O733 La712 2.628 . S
O733 C714 1.243 . S
O734 La712 2.554 . S
O734 C721 1.240 . S
O735 La712 2.757 . S
O735 La713 2.482 . S
O735 C721 1.289 . S
O736 La712 2.470 . S
O736 C722 1.258 . S
O737 La713 2.503 . S
O737 C722 1.256 . S
O738 La713 2.521 . S
O738 C723 1.261 . S
O739 La713 2.628 . S
O739 C723 1.243 . S
O740 La713 2.554 . S
O740 C730 1.240 . S
O741 La712 2.482 . S
O741 La713 2.757 . S
O741 C730 1.289 . S
O742 La713 2.470 . S
O742 C731 1.258 . S
O743 La712 2.503 . S
O743 C731 1.256 . S
H744 C716 0.930 . S
H745 C717 0.930 . S
H746 C719 0.929 . S
H747 C720 0.947 . S
H748 C725 0.930 . S
H749 C726 0.930 . S
H750 C728 0.929 . S
H751 C729 0.929 . S
La752 C754 2.928 . S
La752 O772 2.521 . S
La752 O773 2.628 . S
La752 O774 2.554 . S
La752 O775 2.757 . S
La752 O776 2.470 . S
La752 O781 2.482 . S
La752 O783 2.503 . S
La753 C763 2.928 . S
La753 O775 2.482 . S
La753 O777 2.503 . S
La753 O778 2.521 . S
La753 O779 2.628 . S
La753 O780 2.554 . S
La753 O781 2.757 . S
La753 O782 2.470 . S
C754 La752 2.928 . S
C754 C755 1.503 . S
C754 O772 1.261 . S
C754 O773 1.243 . S
C755 C754 1.503 . S
C755 C756 1.394 . S
C755 C760 1.373 . S
C756 C755 1.394 . S
C756 C757 1.380 . S
C756 H784 0.930 . S
C757 C756 1.380 . S
C757 C758 1.376 . S
C757 H785 0.930 . S
C758 C757 1.376 . S
C758 C759 1.370 . S
C759 C758 1.370 . S
C759 C760 1.396 . S
C759 H786 0.929 . S
C760 C755 1.373 . S
C760 C759 1.396 . S
C760 H787 0.929 . S
C761 O774 1.240 . S
C761 O775 1.289 . S
C762 O776 1.258 . S
C762 O777 1.256 . S
C763 La753 2.928 . S
C763 C764 1.503 . S
C763 O778 1.261 . S
C763 O779 1.243 . S
C764 C763 1.503 . S
C764 C765 1.394 . S
C764 C769 1.373 . S
C765 C764 1.394 . S
C765 C766 1.380 . S
C765 H788 0.930 . S
C766 C765 1.380 . S
C766 C767 1.376 . S
C766 H789 0.930 . S
C767 C766 1.376 . S
C767 C768 1.370 . S
C768 C767 1.370 . S
C768 C769 1.396 . S
C768 H790 0.929 . S
C769 C764 1.373 . S
C769 C768 1.396 . S
C769 H791 0.929 . S
C770 O780 1.240 . S
C770 O781 1.289 . S
C771 O782 1.258 . S
C771 O783 1.256 . S
O772 La752 2.521 . S
O772 C754 1.261 . S
O773 La752 2.628 . S
O773 C754 1.243 . S
O774 La752 2.554 . S
O774 C761 1.240 . S
O775 La752 2.757 . S
O775 La753 2.482 . S
O775 C761 1.289 . S
O776 La752 2.470 . S
O776 C762 1.258 . S
O777 La753 2.503 . S
O777 C762 1.256 . S
O778 La753 2.521 . S
O778 C763 1.261 . S
O779 La753 2.628 . S
O779 C763 1.243 . S
O780 La753 2.554 . S
O780 C770 1.240 . S
O781 La752 2.482 . S
O781 La753 2.757 . S
O781 C770 1.289 . S
O782 La753 2.470 . S
O782 C771 1.258 . S
O783 La752 2.503 . S
O783 C771 1.256 . S
H784 C756 0.930 . S
H785 C757 0.930 . S
H786 C759 0.929 . S
H787 C760 0.929 . S
H788 C765 0.930 . S
H789 C766 0.930 . S
H790 C768 0.929 . S
H791 C769 0.929 . S
La792 C794 2.928 . S
La792 O812 2.521 . S
La792 O813 2.628 . S
La792 O814 2.554 . S
La792 O815 2.757 . S
La792 O816 2.470 . S
La792 O821 2.482 . S
La792 O823 2.503 . S
La793 C803 2.928 . S
La793 O815 2.482 . S
La793 O817 2.503 . S
La793 O818 2.521 . S
La793 O819 2.628 . S
La793 O820 2.554 . S
La793 O821 2.757 . S
La793 O822 2.470 . S
C794 La792 2.928 . S
C794 C795 1.503 . S
C794 O812 1.261 . S
C794 O813 1.243 . S
C795 C794 1.503 . S
C795 C796 1.394 . S
C795 C800 1.373 . S
C796 C795 1.394 . S
C796 C797 1.380 . S
C796 H824 0.930 . S
C797 C796 1.380 . S
C797 C798 1.376 . S
C797 H825 0.930 . S
C798 C797 1.376 . S
C798 C799 1.370 . S
C799 C798 1.370 . S
C799 C800 1.396 . S
C799 H826 0.929 . S
C800 C795 1.373 . S
C800 C799 1.396 . S
C800 H827 0.929 . S
C801 O814 1.240 . S
C801 O815 1.289 . S
C802 O816 1.258 . S
C802 O817 1.256 . S
C803 La793 2.928 . S
C803 C804 1.503 . S
C803 O818 1.261 . S
C803 O819 1.243 . S
C804 C803 1.503 . S
C804 C805 1.394 . S
C804 C809 1.373 . S
C805 C804 1.394 . S
C805 C806 1.380 . S
C805 H828 0.930 . S
C806 C805 1.380 . S
C806 C807 1.376 . S
C806 H829 0.930 . S
C807 C806 1.376 . S
C807 C808 1.370 . S
C808 C807 1.370 . S
C808 C809 1.396 . S
C808 H830 0.929 . S
C809 C804 1.373 . S
C809 C808 1.396 . S
C809 H831 0.929 . S
C810 O820 1.240 . S
C810 O821 1.289 . S
C811 O822 1.258 . S
C811 O823 1.256 . S
O812 La792 2.521 . S
O812 C794 1.261 . S
O813 La792 2.628 . S
O813 C794 1.243 . S
O814 La792 2.554 . S
O814 C801 1.240 . S
O815 La792 2.757 . S
O815 La793 2.482 . S
O815 C801 1.289 . S
O816 La792 2.470 . S
O816 C802 1.258 . S
O817 La793 2.503 . S
O817 C802 1.256 . S
O818 La793 2.521 . S
O818 C803 1.261 . S
O819 La793 2.628 . S
O819 C803 1.243 . S
O820 La793 2.554 . S
O820 C810 1.240 . S
O821 La792 2.482 . S
O821 La793 2.757 . S
O821 C810 1.289 . S
O822 La793 2.470 . S
O822 C811 1.258 . S
O823 La792 2.503 . S
O823 C811 1.256 . S
H824 C796 0.930 . S
H825 C797 0.930 . S
H826 C799 0.929 . S
H827 C800 0.929 . S
H828 C805 0.930 . S
H829 C806 0.930 . S
H830 C808 0.929 . S
H831 C809 0.929 . S
La832 C834 2.928 . S
La832 O852 2.521 . S
La832 O853 2.628 . S
La832 O854 2.554 . S
La832 O855 2.757 . S
La832 O856 2.470 . S
La832 O861 2.482 . S
La832 O863 2.503 . S
La833 C843 2.928 . S
La833 O855 2.482 . S
La833 O857 2.503 . S
La833 O858 2.521 . S
La833 O859 2.628 . S
La833 O860 2.554 . S
La833 O861 2.757 . S
La833 O862 2.470 . S
C834 La832 2.928 . S
C834 C835 1.503 . S
C834 O852 1.261 . S
C834 O853 1.243 . S
C835 C834 1.503 . S
C835 C836 1.394 . S
C835 C840 1.373 . S
C836 C835 1.394 . S
C836 C837 1.380 . S
C836 H864 0.930 . S
C837 C836 1.380 . S
C837 C838 1.376 . S
C837 H865 0.930 . S
C838 C837 1.376 . S
C838 C839 1.370 . S
C839 C838 1.370 . S
C839 C840 1.396 . S
C839 H866 0.929 . S
C840 C835 1.373 . S
C840 C839 1.396 . S
C840 H867 0.929 . S
C841 O854 1.240 . S
C841 O855 1.289 . S
C842 O856 1.258 . S
C842 O857 1.256 . S
C843 La833 2.928 . S
C843 C844 1.503 . S
C843 O858 1.261 . S
C843 O859 1.243 . S
C844 C843 1.503 . S
C844 C845 1.394 . S
C844 C849 1.373 . S
C845 C844 1.394 . S
C845 C846 1.380 . S
C845 H868 0.930 . S
C846 C845 1.380 . S
C846 C847 1.376 . S
C846 H869 0.930 . S
C847 C846 1.376 . S
C847 C848 1.370 . S
C848 C847 1.370 . S
C848 C849 1.396 . S
C848 H870 0.929 . S
C849 C844 1.373 . S
C849 C848 1.396 . S
C849 H871 0.929 . S
C850 O860 1.240 . S
C850 O861 1.289 . S
C851 O862 1.258 . S
C851 O863 1.256 . S
O852 La832 2.521 . S
O852 C834 1.261 . S
O853 La832 2.628 . S
O853 C834 1.243 . S
O854 La832 2.554 . S
O854 C841 1.240 . S
O855 La832 2.757 . S
O855 La833 2.482 . S
O855 C841 1.289 . S
O856 La832 2.470 . S
O856 C842 1.258 . S
O857 La833 2.503 . S
O857 C842 1.256 . S
O858 La833 2.521 . S
O858 C843 1.261 . S
O859 La833 2.628 . S
O859 C843 1.243 . S
O860 La833 2.554 . S
O860 C850 1.240 . S
O861 La832 2.482 . S
O861 La833 2.757 . S
O861 C850 1.289 . S
O862 La833 2.470 . S
O862 C851 1.258 . S
O863 La832 2.503 . S
O863 C851 1.256 . S
H864 C836 0.930 . S
H865 C837 0.930 . S
H866 C839 0.929 . S
H867 C840 0.929 . S
H868 C845 0.930 . S
H869 C846 0.930 . S
H870 C848 0.929 . S
H871 C849 0.929 . S
La872 C874 2.928 . S
La872 O892 2.521 . S
La872 O893 2.628 . S
La872 O894 2.554 . S
La872 O895 2.757 . S
La872 O896 2.470 . S
La872 O901 2.482 . S
La872 O903 2.503 . S
La873 C883 2.928 . S
La873 O895 2.482 . S
La873 O897 2.503 . S
La873 O898 2.521 . S
La873 O899 2.628 . S
La873 O900 2.554 . S
La873 O901 2.757 . S
La873 O902 2.470 . S
C874 La872 2.928 . S
C874 C875 1.503 . S
C874 O892 1.261 . S
C874 O893 1.243 . S
C875 C874 1.503 . S
C875 C876 1.394 . S
C875 C880 1.373 . S
C876 C875 1.394 . S
C876 C877 1.380 . S
C876 H904 0.930 . S
C877 C876 1.380 . S
C877 C878 1.376 . S
C877 H905 0.930 . S
C878 C877 1.376 . S
C878 C879 1.370 . S
C879 C878 1.370 . S
C879 C880 1.396 . S
C879 H906 0.929 . S
C880 C875 1.373 . S
C880 C879 1.396 . S
C880 H907 0.929 . S
C881 O894 1.240 . S
C881 O895 1.289 . S
C882 O896 1.258 . S
C882 O897 1.256 . S
C883 La873 2.928 . S
C883 C884 1.503 . S
C883 O898 1.261 . S
C883 O899 1.243 . S
C884 C883 1.503 . S
C884 C885 1.394 . S
C884 C889 1.373 . S
C885 C884 1.394 . S
C885 C886 1.380 . S
C885 H908 0.930 . S
C886 C885 1.380 . S
C886 C887 1.376 . S
C886 H909 0.930 . S
C887 C886 1.376 . S
C887 C888 1.370 . S
C888 C887 1.370 . S
C888 C889 1.396 . S
C888 H910 0.929 . S
C889 C884 1.373 . S
C889 C888 1.396 . S
C889 H911 0.929 . S
C890 O900 1.240 . S
C890 O901 1.289 . S
C891 O902 1.258 . S
C891 O903 1.256 . S
O892 La872 2.521 . S
O892 C874 1.261 . S
O893 La872 2.628 . S
O893 C874 1.243 . S
O894 La872 2.554 . S
O894 C881 1.240 . S
O895 La872 2.757 . S
O895 La873 2.482 . S
O895 C881 1.289 . S
O896 La872 2.470 . S
O896 C882 1.258 . S
O897 La873 2.503 . S
O897 C882 1.256 . S
O898 La873 2.521 . S
O898 C883 1.261 . S
O899 La873 2.628 . S
O899 C883 1.243 . S
O900 La873 2.554 . S
O900 C890 1.240 . S
O901 La872 2.482 . S
O901 La873 2.757 . S
O901 C890 1.289 . S
O902 La873 2.470 . S
O902 C891 1.258 . S
O903 La872 2.503 . S
O903 C891 1.256 . S
H904 C876 0.930 . S
H905 C877 0.930 . S
H906 C879 0.929 . S
H907 C880 0.929 . S
H908 C885 0.930 . S
H909 C886 0.930 . S
H910 C888 0.929 . S
H911 C889 0.929 . S
La912 C914 2.928 . S
La912 O932 2.521 . S
La912 O933 2.628 1_556 S
La912 O934 2.554 . S
La912 O935 2.757 . S
La912 O936 2.470 . S
La912 O941 2.482 1_556 S
La912 O943 2.503 1_556 S
La913 C923 2.928 1_455 S
La913 O935 2.482 1_554 S
La913 O937 2.503 . S
La913 O938 2.521 1_455 S
La913 O939 2.628 1_455 S
La913 O940 2.554 . S
La913 O941 2.757 . S
La913 O942 2.470 . S
C914 La912 2.928 . S
C914 C915 1.503 . S
C914 O932 1.261 . S
C914 O933 1.243 1_556 S
C915 C914 1.503 . S
C915 C916 1.394 . S
C915 C920 1.341 1_556 S
C916 C915 1.394 . S
C916 C917 1.380 . S
C916 H944 0.930 . S
C917 C916 1.380 . S
C917 C918 1.376 . S
C917 H945 0.930 . S
C918 C917 1.376 . S
C918 C919 1.370 . S
C919 C918 1.370 . S
C919 C920 1.388 1_556 S
C919 H946 0.929 1_556 S
C920 C915 1.341 1_554 S
C920 C919 1.388 1_554 S
C920 H947 0.971 . S
C921 O934 1.240 . S
C921 O935 1.289 . S
C922 O936 1.258 . S
C922 O937 1.256 1_556 S
C923 La913 2.928 1_655 S
C923 C924 1.503 . S
C923 O938 1.261 . S
C923 O939 1.243 . S
C924 C923 1.503 . S
C924 C925 1.394 . S
C924 C929 1.373 . S
C925 C924 1.394 . S
C925 C926 1.380 . S
C925 H948 0.930 . S
C926 C925 1.380 . S
C926 C927 1.376 . S
C926 H949 0.930 . S
C927 C926 1.376 . S
C927 C928 1.370 . S
C928 C927 1.370 . S
C928 C929 1.396 . S
C928 H950 0.929 . S
C929 C924 1.373 . S
C929 C928 1.396 . S
C929 H951 0.929 . S
C930 O940 1.240 . S
C930 O941 1.289 . S
C931 O942 1.258 . S
C931 O943 1.256 . S
O932 La912 2.521 . S
O932 C914 1.261 . S
O933 La912 2.628 1_554 S
O933 C914 1.243 1_554 S
O934 La912 2.554 . S
O934 C921 1.240 . S
O935 La912 2.757 . S
O935 La913 2.482 1_556 S
O935 C921 1.289 . S
O936 La912 2.470 . S
O936 C922 1.258 . S
O937 La913 2.503 . S
O937 C922 1.256 1_554 S
O938 La913 2.521 1_655 S
O938 C923 1.261 . S
O939 La913 2.628 1_655 S
O939 C923 1.243 . S
O940 La913 2.554 . S
O940 C930 1.240 . S
O941 La912 2.482 1_554 S
O941 La913 2.757 . S
O941 C930 1.289 . S
O942 La913 2.470 . S
O942 C931 1.258 . S
O943 La912 2.503 1_554 S
O943 C931 1.256 . S
H944 C916 0.930 . S
H945 C917 0.930 . S
H946 C919 0.929 1_554 S
H947 C920 0.971 . S
H948 C925 0.930 . S
H949 C926 0.930 . S
H950 C928 0.929 . S
H951 C929 0.929 . S
H952 C960 0.950 . S
H953 C965 0.950 1_655 S
H954 C962 0.950 . S
H955 C964 0.950 . S
H956 C966 0.950 . S
H957 C968 0.950 1_554 S
H958 C970 0.950 . S
H959 C971 0.950 . S
C960 H952 0.950 . S
C960 C961 1.386 . S
C960 C962 1.391 . S
C961 C960 1.386 . S
C961 C965 1.393 . S
C962 H954 0.950 . S
C962 C960 1.391 . S
C962 C963 1.400 . S
C963 C962 1.400 . S
C963 C964 1.398 . S
C963 C969 1.491 . S
C964 H955 0.950 . S
C964 C963 1.398 . S
C964 C965 1.391 . S
C965 H953 0.950 1_455 S
C965 C961 1.393 . S
C965 C964 1.391 . S
C966 H956 0.950 . S
C966 C967 1.386 1_554 S
C966 C968 1.391 1_554 S
C967 C966 1.386 1_556 S
C967 C971 1.393 . S
C968 H957 0.950 1_556 S
C968 C966 1.391 1_556 S
C968 C969 1.400 . S
C969 C963 1.491 . S
C969 C968 1.400 . S
C969 C970 1.398 . S
C970 H958 0.950 . S
C970 C969 1.398 . S
C970 C971 1.391 . S
C971 H959 0.950 . S
C971 C967 1.393 . S
C971 C970 1.391 . S
H972 C980 0.950 . S
H973 C985 0.950 . S
H974 C982 0.950 . S
H975 C984 0.950 . S
H976 C986 0.950 . S
H977 C988 0.950 . S
H978 C990 0.950 . S
H979 C991 0.950 . S
C980 H972 0.950 . S
C980 C981 1.386 . S
C980 C982 1.391 . S
C981 C980 1.386 . S
C981 C985 1.393 . S
C982 H974 0.950 . S
C982 C980 1.391 . S
C982 C983 1.400 . S
C983 C982 1.400 . S
C983 C984 1.398 . S
C983 C989 1.491 . S
C984 H975 0.950 . S
C984 C983 1.398 . S
C984 C985 1.391 . S
C985 H973 0.950 . S
C985 C981 1.393 . S
C985 C984 1.391 . S
C986 H976 0.950 . S
C986 C987 1.386 . S
C986 C988 1.391 . S
C987 C986 1.386 . S
C987 C991 1.393 . S
C988 H977 0.950 . S
C988 C986 1.391 . S
C988 C989 1.400 . S
C989 C983 1.491 . S
C989 C988 1.400 . S
C989 C990 1.398 . S
C990 H978 0.950 . S
C990 C989 1.398 . S
C990 C991 1.391 . S
C991 H979 0.950 . S
C991 C987 1.393 . S
C991 C990 1.391 . S
H992 C1000 0.950 . S
H993 C1005 0.950 . S
H994 C1002 0.950 . S
H995 C1004 0.950 . S
H996 C1006 0.950 . S
H997 C1008 0.950 . S
H998 C1010 0.950 . S
H999 C1011 0.950 . S
C1000 H992 0.950 . S
C1000 C1001 1.386 . S
C1000 C1002 1.391 . S
C1001 C1000 1.386 . S
C1001 C1005 1.393 . S
C1002 H994 0.950 . S
C1002 C1000 1.391 . S
C1002 C1003 1.400 . S
C1003 C1002 1.400 . S
C1003 C1004 1.398 . S
C1003 C1009 1.491 . S
C1004 H995 0.950 . S
C1004 C1003 1.398 . S
C1004 C1005 1.391 . S
C1005 H993 0.950 . S
C1005 C1001 1.393 . S
C1005 C1004 1.391 . S
C1006 H996 0.950 . S
C1006 C1007 1.386 . S
C1006 C1008 1.391 . S
C1007 C1006 1.386 . S
C1007 C1011 1.393 . S
C1008 H997 0.950 . S
C1008 C1006 1.391 . S
C1008 C1009 1.400 . S
C1009 C1003 1.491 . S
C1009 C1008 1.400 . S
C1009 C1010 1.398 . S
C1010 H998 0.950 . S
C1010 C1009 1.398 . S
C1010 C1011 1.391 . S
C1011 H999 0.950 . S
C1011 C1007 1.393 . S
C1011 C1010 1.391 . S
H1012 C1020 0.950 . S
H1013 C1025 0.950 . S
H1014 C1022 0.950 . S
H1015 C1024 0.950 . S
H1016 C1026 0.950 . S
H1017 C1028 0.950 . S
H1018 C1030 0.950 . S
H1019 C1031 0.950 . S
C1020 H1012 0.950 . S
C1020 C1021 1.386 . S
C1020 C1022 1.391 . S
C1021 C1020 1.386 . S
C1021 C1025 1.393 . S
C1022 H1014 0.950 . S
C1022 C1020 1.391 . S
C1022 C1023 1.400 . S
C1023 C1022 1.400 . S
C1023 C1024 1.398 . S
C1023 C1029 1.491 . S
C1024 H1015 0.950 . S
C1024 C1023 1.398 . S
C1024 C1025 1.391 . S
C1025 H1013 0.950 . S
C1025 C1021 1.393 . S
C1025 C1024 1.391 . S
C1026 H1016 0.950 . S
C1026 C1027 1.386 . S
C1026 C1028 1.391 . S
C1027 C1026 1.386 . S
C1027 C1031 1.393 . S
C1028 H1017 0.950 . S
C1028 C1026 1.391 . S
C1028 C1029 1.400 . S
C1029 C1023 1.491 . S
C1029 C1028 1.400 . S
C1029 C1030 1.398 . S
C1030 H1018 0.950 . S
C1030 C1029 1.398 . S
C1030 C1031 1.391 . S
C1031 H1019 0.950 . S
C1031 C1027 1.393 . S
C1031 C1030 1.391 . S
H1032 C1040 0.950 . S
H1033 C1045 0.950 . S
H1034 C1042 0.950 . S
H1035 C1044 0.950 1_655 S
H1036 C1046 0.950 . S
H1037 C1048 0.950 . S
H1038 C1050 0.950 . S
H1039 C1051 0.950 . S
C1040 H1032 0.950 . S
C1040 C1041 1.386 . S
C1040 C1042 1.391 . S
C1041 C1040 1.386 . S
C1041 C1045 1.393 1_455 S
C1042 H1034 0.950 . S
C1042 C1040 1.391 . S
C1042 C1043 1.400 . S
C1043 C1042 1.400 . S
C1043 C1044 1.398 . S
C1043 C1049 1.491 . S
C1044 H1035 0.950 1_455 S
C1044 C1043 1.398 . S
C1044 C1045 1.391 1_455 S
C1045 H1033 0.950 . S
C1045 C1041 1.393 1_655 S
C1045 C1044 1.391 1_655 S
C1046 H1036 0.950 . S
C1046 C1047 1.386 . S
C1046 C1048 1.391 . S
C1047 C1046 1.386 . S
C1047 C1051 1.393 . S
C1048 H1037 0.950 . S
C1048 C1046 1.391 . S
C1048 C1049 1.400 . S
C1049 C1043 1.491 . S
C1049 C1048 1.400 . S
C1049 C1050 1.398 . S
C1050 H1038 0.950 . S
C1050 C1049 1.398 . S
C1050 C1051 1.391 . S
C1051 H1039 0.950 . S
C1051 C1047 1.393 . S
C1051 C1050 1.391 . S
H1052 C1060 0.950 . S
H1053 C1065 0.950 . S
H1054 C1062 0.950 . S
H1055 C1064 0.950 . S
H1056 C1066 0.950 . S
H1057 C1068 0.950 . S
H1058 C1070 0.950 . S
H1059 C1071 0.950 . S
C1060 H1052 0.950 . S
C1060 C1061 1.386 . S
C1060 C1062 1.391 . S
C1061 C1060 1.386 . S
C1061 C1065 1.393 . S
C1062 H1054 0.950 . S
C1062 C1060 1.391 . S
C1062 C1063 1.400 . S
C1063 C1062 1.400 . S
C1063 C1064 1.398 . S
C1063 C1069 1.491 . S
C1064 H1055 0.950 . S
C1064 C1063 1.398 . S
C1064 C1065 1.391 . S
C1065 H1053 0.950 . S
C1065 C1061 1.393 . S
C1065 C1064 1.391 . S
C1066 H1056 0.950 . S
C1066 C1067 1.386 . S
C1066 C1068 1.391 . S
C1067 C1066 1.386 . S
C1067 C1071 1.393 . S
C1068 H1057 0.950 . S
C1068 C1066 1.391 . S
C1068 C1069 1.400 . S
C1069 C1063 1.491 . S
C1069 C1068 1.400 . S
C1069 C1070 1.398 . S
C1070 H1058 0.950 . S
C1070 C1069 1.398 . S
C1070 C1071 1.391 . S
C1071 H1059 0.950 . S
C1071 C1067 1.393 . S
C1071 C1070 1.391 . S
H1072 C1080 0.950 . S
H1073 C1085 0.950 . S
H1074 C1082 0.950 . S
H1075 C1084 0.950 . S
H1076 C1086 0.950 . S
H1077 C1088 0.950 . S
H1078 C1090 0.950 . S
H1079 C1091 0.950 . S
C1080 H1072 0.950 . S
C1080 C1081 1.386 . S
C1080 C1082 1.391 . S
C1081 C1080 1.386 . S
C1081 C1085 1.393 . S
C1082 H1074 0.950 . S
C1082 C1080 1.391 . S
C1082 C1083 1.400 . S
C1083 C1082 1.400 . S
C1083 C1084 1.398 . S
C1083 C1089 1.491 . S
C1084 H1075 0.950 . S
C1084 C1083 1.398 . S
C1084 C1085 1.391 . S
C1085 H1073 0.950 . S
C1085 C1081 1.393 . S
C1085 C1084 1.391 . S
C1086 H1076 0.950 . S
C1086 C1087 1.386 . S
C1086 C1088 1.391 . S
C1087 C1086 1.386 . S
C1087 C1091 1.393 . S
C1088 H1077 0.950 . S
C1088 C1086 1.391 . S
C1088 C1089 1.400 . S
C1089 C1083 1.491 . S
C1089 C1088 1.400 . S
C1089 C1090 1.398 . S
C1090 H1078 0.950 . S
C1090 C1089 1.398 . S
C1090 C1091 1.391 . S
C1091 H1079 0.950 . S
C1091 C1087 1.393 . S
C1091 C1090 1.391 . S
H1092 C1100 0.950 . S
H1093 C1105 0.950 . S
H1094 C1102 0.950 . S
H1095 C1104 0.950 . S
H1096 C1106 0.950 . S
H1097 C1108 0.950 . S
H1098 C1110 0.950 . S
H1099 C1111 0.950 . S
C1100 H1092 0.950 . S
C1100 C1101 1.386 . S
C1100 C1102 1.391 . S
C1101 C1100 1.386 . S
C1101 C1105 1.393 . S
C1102 H1094 0.950 . S
C1102 C1100 1.391 . S
C1102 C1103 1.400 . S
C1103 C1102 1.400 . S
C1103 C1104 1.398 . S
C1103 C1109 1.491 . S
C1104 H1095 0.950 . S
C1104 C1103 1.398 . S
C1104 C1105 1.391 . S
C1105 H1093 0.950 . S
C1105 C1101 1.393 . S
C1105 C1104 1.391 . S
C1106 H1096 0.950 . S
C1106 C1107 1.386 . S
C1106 C1108 1.391 . S
C1107 C1106 1.386 . S
C1107 C1111 1.393 . S
C1108 H1097 0.950 . S
C1108 C1106 1.391 . S
C1108 C1109 1.400 . S
C1109 C1103 1.491 . S
C1109 C1108 1.400 . S
C1109 C1110 1.398 . S
C1110 H1098 0.950 . S
C1110 C1109 1.398 . S
C1110 C1111 1.391 . S
C1111 H1099 0.950 . S
C1111 C1107 1.393 . S
C1111 C1110 1.391 . S
H1112 C1120 0.950 1_455 S
H1113 C1125 0.950 . S
H1114 C1122 0.950 . S
H1115 C1124 0.950 . S
H1116 C1126 0.944 1_655 S
H1117 C1128 0.950 . S
H1118 C1130 0.950 . S
H1119 C1131 0.950 . S
C1120 H1112 0.950 1_655 S
C1120 C1121 1.386 . S
C1120 C1122 1.391 1_655 S
C1121 C1120 1.386 . S
C1121 C1125 1.393 . S
C1122 H1114 0.950 . S
C1122 C1120 1.391 1_455 S
C1122 C1123 1.400 1_455 S
C1123 C1122 1.400 1_655 S
C1123 C1124 1.398 . S
C1123 C1129 1.491 1_655 S
C1124 H1115 0.950 . S
C1124 C1123 1.398 . S
C1124 C1125 1.391 . S
C1125 H1113 0.950 . S
C1125 C1121 1.393 . S
C1125 C1124 1.391 . S
C1126 H1116 0.944 1_455 S
C1126 C1127 1.386 . S
C1126 C1128 1.391 1_455 S
C1127 C1126 1.386 . S
C1127 C1131 1.393 . S
C1128 H1117 0.950 . S
C1128 C1126 1.391 1_655 S
C1128 C1129 1.400 1_655 S
C1129 C1123 1.491 1_455 S
C1129 C1128 1.400 1_455 S
C1129 C1130 1.398 . S
C1130 H1118 0.950 . S
C1130 C1129 1.398 . S
C1130 C1131 1.391 . S
C1131 H1119 0.950 . S
C1131 C1127 1.393 . S
C1131 C1130 1.391 . S
H1132 C1140 0.950 . S
H1133 C1145 0.950 . S
H1134 C1142 0.950 . S
H1135 C1144 0.950 . S
H1136 C1146 0.950 . S
H1137 C1148 0.950 . S
H1138 C1150 0.950 . S
H1139 C1151 0.950 . S
C1140 H1132 0.950 . S
C1140 C1141 1.386 . S
C1140 C1142 1.391 . S
C1141 C1140 1.386 . S
C1141 C1145 1.393 . S
C1142 H1134 0.950 . S
C1142 C1140 1.391 . S
C1142 C1143 1.400 . S
C1143 C1142 1.400 . S
C1143 C1144 1.398 . S
C1143 C1149 1.491 . S
C1144 H1135 0.950 . S
C1144 C1143 1.398 . S
C1144 C1145 1.391 . S
C1145 H1133 0.950 . S
C1145 C1141 1.393 . S
C1145 C1144 1.391 . S
C1146 H1136 0.950 . S
C1146 C1147 1.386 . S
C1146 C1148 1.391 . S
C1147 C1146 1.386 . S
C1147 C1151 1.393 . S
C1148 H1137 0.950 . S
C1148 C1146 1.391 . S
C1148 C1149 1.400 . S
C1149 C1143 1.491 . S
C1149 C1148 1.400 . S
C1149 C1150 1.398 . S
C1150 H1138 0.950 . S
C1150 C1149 1.398 . S
C1150 C1151 1.391 . S
C1151 H1139 0.950 . S
C1151 C1147 1.393 . S
C1151 C1150 1.391 . S
H1152 C1160 0.950 . S
H1153 C1165 0.950 . S
H1154 C1162 0.950 . S
H1155 C1164 0.950 . S
H1156 C1166 0.950 . S
H1157 C1168 0.950 . S
H1158 C1170 0.950 . S
H1159 C1171 0.950 . S
C1160 H1152 0.950 . S
C1160 C1161 1.386 . S
C1160 C1162 1.391 . S
C1161 C1160 1.386 . S
C1161 C1165 1.393 . S
C1162 H1154 0.950 . S
C1162 C1160 1.391 . S
C1162 C1163 1.400 . S
C1163 C1162 1.400 . S
C1163 C1164 1.398 . S
C1163 C1169 1.491 . S
C1164 H1155 0.950 . S
C1164 C1163 1.398 . S
C1164 C1165 1.391 . S
C1165 H1153 0.950 . S
C1165 C1161 1.393 . S
C1165 C1164 1.391 . S
C1166 H1156 0.950 . S
C1166 C1167 1.386 . S
C1166 C1168 1.391 . S
C1167 C1166 1.386 . S
C1167 C1171 1.393 . S
C1168 H1157 0.950 . S
C1168 C1166 1.391 . S
C1168 C1169 1.400 . S
C1169 C1163 1.491 . S
C1169 C1168 1.400 . S
C1169 C1170 1.398 . S
C1170 H1158 0.950 . S
C1170 C1169 1.398 . S
C1170 C1171 1.391 . S
C1171 H1159 0.950 . S
C1171 C1167 1.393 . S
C1171 C1170 1.391 . S
H1172 C1180 0.950 . S
H1173 C1185 0.950 . S
H1174 C1182 0.950 . S
H1175 C1184 0.950 . S
H1176 C1186 0.950 . S
H1177 C1188 0.950 . S
H1178 C1190 0.950 . S
H1179 C1191 0.950 . S
C1180 H1172 0.950 . S
C1180 C1181 1.386 . S
C1180 C1182 1.391 . S
C1181 C1180 1.386 . S
C1181 C1185 1.393 . S
C1182 H1174 0.950 . S
C1182 C1180 1.391 . S
C1182 C1183 1.400 . S
C1183 C1182 1.400 . S
C1183 C1184 1.398 . S
C1183 C1189 1.491 . S
C1184 H1175 0.950 . S
C1184 C1183 1.398 . S
C1184 C1185 1.391 . S
C1185 H1173 0.950 . S
C1185 C1181 1.393 . S
C1185 C1184 1.391 . S
C1186 H1176 0.950 . S
C1186 C1187 1.386 . S
C1186 C1188 1.391 . S
C1187 C1186 1.386 . S
C1187 C1191 1.393 . S
C1188 H1177 0.950 . S
C1188 C1186 1.391 . S
C1188 C1189 1.400 . S
C1189 C1183 1.491 . S
C1189 C1188 1.400 . S
C1189 C1190 1.398 . S
C1190 H1178 0.950 . S
C1190 C1189 1.398 . S
C1190 C1191 1.391 . S
C1191 H1179 0.950 . S
C1191 C1187 1.393 . S
C1191 C1190 1.391 . S
H1192 C1200 0.950 . S
H1193 C1205 0.950 . S
H1194 C1202 0.950 . S
H1195 C1204 0.950 1_455 S
H1196 C1206 0.950 . S
H1197 C1208 0.950 . S
H1198 C1210 0.935 1_655 S
H1199 C1211 0.950 . S
C1200 H1192 0.950 . S
C1200 C1201 1.386 . S
C1200 C1202 1.391 . S
C1201 C1200 1.386 . S
C1201 C1205 1.393 . S
C1202 H1194 0.950 . S
C1202 C1200 1.391 . S
C1202 C1203 1.400 . S
C1203 C1202 1.400 . S
C1203 C1204 1.398 . S
C1203 C1209 1.491 1_655 S
C1204 H1195 0.950 1_655 S
C1204 C1203 1.398 . S
C1204 C1205 1.391 . S
C1205 H1193 0.950 . S
C1205 C1201 1.393 . S
C1205 C1204 1.391 . S
C1206 H1196 0.950 . S
C1206 C1207 1.386 . S
C1206 C1208 1.391 . S
C1207 C1206 1.386 . S
C1207 C1211 1.393 . S
C1208 H1197 0.950 . S
C1208 C1206 1.391 . S
C1208 C1209 1.400 . S
C1209 C1203 1.491 1_455 S
C1209 C1208 1.400 . S
C1209 C1210 1.396 . S
C1210 H1198 0.935 1_455 S
C1210 C1209 1.396 . S
C1210 C1211 1.411 . S
C1211 H1199 0.950 . S
C1211 C1207 1.393 . S
C1211 C1210 1.411 . S
H1212 C1220 0.950 . S
H1213 C1225 0.950 . S
H1214 C1222 0.950 . S
H1215 C1224 0.950 . S
H1216 C1226 0.950 . S
H1217 C1228 0.950 . S
H1218 C1230 0.950 . S
H1219 C1231 0.950 . S
C1220 H1212 0.950 . S
C1220 C1221 1.386 . S
C1220 C1222 1.391 . S
C1221 C1220 1.386 . S
C1221 C1225 1.393 . S
C1222 H1214 0.950 . S
C1222 C1220 1.391 . S
C1222 C1223 1.400 . S
C1223 C1222 1.400 . S
C1223 C1224 1.398 . S
C1223 C1229 1.491 . S
C1224 H1215 0.950 . S
C1224 C1223 1.398 . S
C1224 C1225 1.391 . S
C1225 H1213 0.950 . S
C1225 C1221 1.393 . S
C1225 C1224 1.391 . S
C1226 H1216 0.950 . S
C1226 C1227 1.386 . S
C1226 C1228 1.391 . S
C1227 C1226 1.386 . S
C1227 C1231 1.393 . S
C1228 H1217 0.950 . S
C1228 C1226 1.391 . S
C1228 C1229 1.400 . S
C1229 C1223 1.491 . S
C1229 C1228 1.400 . S
C1229 C1230 1.398 . S
C1230 H1218 0.950 . S
C1230 C1229 1.398 . S
C1230 C1231 1.391 . S
C1231 H1219 0.950 . S
C1231 C1227 1.393 . S
C1231 C1230 1.391 . S
H1232 C1240 0.950 . S
H1233 C1245 0.950 . S
H1234 C1242 0.950 . S
H1235 C1244 0.950 . S
H1236 C1246 0.950 . S
H1237 C1248 0.950 . S
H1238 C1250 0.950 . S
H1239 C1251 0.950 . S
C1240 H1232 0.950 . S
C1240 C1241 1.386 . S
C1240 C1242 1.391 . S
C1241 C1240 1.386 . S
C1241 C1245 1.393 . S
C1242 H1234 0.950 . S
C1242 C1240 1.391 . S
C1242 C1243 1.400 . S
C1243 C1242 1.400 . S
C1243 C1244 1.398 . S
C1243 C1249 1.491 . S
C1244 H1235 0.950 . S
C1244 C1243 1.398 . S
C1244 C1245 1.391 . S
C1245 H1233 0.950 . S
C1245 C1241 1.393 . S
C1245 C1244 1.391 . S
C1246 H1236 0.950 . S
C1246 C1247 1.386 . S
C1246 C1248 1.391 . S
C1247 C1246 1.386 . S
C1247 C1251 1.393 . S
C1248 H1237 0.950 . S
C1248 C1246 1.391 . S
C1248 C1249 1.400 . S
C1249 C1243 1.491 . S
C1249 C1248 1.400 . S
C1249 C1250 1.398 . S
C1250 H1238 0.950 . S
C1250 C1249 1.398 . S
C1250 C1251 1.391 . S
C1251 H1239 0.950 . S
C1251 C1247 1.393 . S
C1251 C1250 1.391 . S
H1252 C1260 0.950 . S
H1253 C1265 0.950 . S
H1254 C1262 0.950 . S
H1255 C1264 0.950 . S
H1256 C1266 0.950 . S
H1257 C1268 0.950 . S
H1258 C1270 0.950 . S
H1259 C1271 0.950 . S
C1260 H1252 0.950 . S
C1260 C1261 1.386 . S
C1260 C1262 1.391 . S
C1261 C1260 1.386 . S
C1261 C1265 1.393 . S
C1262 H1254 0.950 . S
C1262 C1260 1.391 . S
C1262 C1263 1.400 . S
C1263 C1262 1.400 . S
C1263 C1264 1.398 . S
C1263 C1269 1.491 . S
C1264 H1255 0.950 . S
C1264 C1263 1.398 . S
C1264 C1265 1.391 . S
C1265 H1253 0.950 . S
C1265 C1261 1.393 . S
C1265 C1264 1.391 . S
C1266 H1256 0.950 . S
C1266 C1267 1.386 . S
C1266 C1268 1.391 . S
C1267 C1266 1.386 . S
C1267 C1271 1.393 . S
C1268 H1257 0.950 . S
C1268 C1266 1.391 . S
C1268 C1269 1.400 . S
C1269 C1263 1.491 . S
C1269 C1268 1.400 . S
C1269 C1270 1.398 . S
C1270 H1258 0.950 . S
C1270 C1269 1.398 . S
C1270 C1271 1.391 . S
C1271 H1259 0.950 . S
C1271 C1267 1.393 . S
C1271 C1270 1.391 . S
H1272 C1280 0.950 . S
H1273 C1285 0.967 . S
H1274 C1282 0.950 . S
H1275 C1284 0.950 1_545 S
H1276 C1286 0.950 . S
H1277 C1288 0.950 . S
H1278 C1290 0.950 . S
H1279 C1291 0.950 . S
C1280 H1272 0.950 . S
C1280 C1281 1.386 . S
C1280 C1282 1.391 . S
C1281 C1280 1.386 . S
C1281 C1285 1.393 . S
C1282 H1274 0.950 . S
C1282 C1280 1.391 . S
C1282 C1283 1.400 . S
C1283 C1282 1.400 . S
C1283 C1284 1.398 . S
C1283 C1289 1.491 . S
C1284 H1275 0.950 1_565 S
C1284 C1283 1.398 . S
C1284 C1285 1.391 . S
C1285 H1273 0.967 . S
C1285 C1281 1.393 . S
C1285 C1284 1.391 . S
C1286 H1276 0.950 . S
C1286 C1287 1.386 1_545 S
C1286 C1288 1.391 . S
C1287 C1286 1.386 1_565 S
C1287 C1291 1.393 . S
C1288 H1277 0.950 . S
C1288 C1286 1.391 . S
C1288 C1289 1.400 1_545 S
C1289 C1283 1.491 . S
C1289 C1288 1.400 1_565 S
C1289 C1290 1.398 . S
C1290 H1278 0.950 . S
C1290 C1289 1.398 . S
C1290 C1291 1.391 . S
C1291 H1279 0.950 . S
C1291 C1287 1.393 . S
C1291 C1290 1.391 . S
H1292 C1300 0.950 . S
H1293 C1305 0.950 . S
H1294 C1302 0.950 . S
H1295 C1304 0.950 . S
H1296 C1306 0.950 . S
H1297 C1308 0.950 . S
H1298 C1310 0.950 . S
H1299 C1311 0.950 . S
C1300 H1292 0.950 . S
C1300 C1301 1.386 . S
C1300 C1302 1.391 . S
C1301 C1300 1.386 . S
C1301 C1305 1.393 1_554 S
C1302 H1294 0.950 . S
C1302 C1300 1.391 . S
C1302 C1303 1.400 . S
C1303 C1302 1.400 . S
C1303 C1304 1.398 1_554 S
C1303 C1309 1.491 . S
C1304 H1295 0.950 . S
C1304 C1303 1.398 1_556 S
C1304 C1305 1.391 . S
C1305 H1293 0.950 . S
C1305 C1301 1.393 1_556 S
C1305 C1304 1.391 . S
C1306 H1296 0.950 . S
C1306 C1307 1.386 1_556 S
C1306 C1308 1.391 . S
C1307 C1306 1.386 1_554 S
C1307 C1311 1.393 . S
C1308 H1297 0.950 . S
C1308 C1306 1.391 . S
C1308 C1309 1.400 1_556 S
C1309 C1303 1.491 . S
C1309 C1308 1.400 1_554 S
C1309 C1310 1.398 . S
C1310 H1298 0.950 . S
C1310 C1309 1.398 . S
C1310 C1311 1.391 . S
C1311 H1299 0.950 . S
C1311 C1307 1.393 . S
C1311 C1310 1.391 . S
H1312 C1320 0.950 . S
H1313 C1325 0.950 . S
H1314 C1322 0.950 . S
H1315 C1324 0.950 . S
H1316 C1326 0.950 . S
H1317 C1328 0.950 . S
H1318 C1330 0.950 . S
H1319 C1331 0.950 . S
C1320 H1312 0.950 . S
C1320 C1321 1.386 . S
C1320 C1322 1.391 . S
C1321 C1320 1.386 . S
C1321 C1325 1.393 . S
C1322 H1314 0.950 . S
C1322 C1320 1.391 . S
C1322 C1323 1.400 . S
C1323 C1322 1.400 . S
C1323 C1324 1.398 . S
C1323 C1329 1.491 . S
C1324 H1315 0.950 . S
C1324 C1323 1.398 . S
C1324 C1325 1.391 . S
C1325 H1313 0.950 . S
C1325 C1321 1.393 . S
C1325 C1324 1.391 . S
C1326 H1316 0.950 . S
C1326 C1327 1.386 . S
C1326 C1328 1.391 . S
C1327 C1326 1.386 . S
C1327 C1331 1.393 . S
C1328 H1317 0.950 . S
C1328 C1326 1.391 . S
C1328 C1329 1.400 . S
C1329 C1323 1.491 . S
C1329 C1328 1.400 . S
C1329 C1330 1.398 . S
C1330 H1318 0.950 . S
C1330 C1329 1.398 . S
C1330 C1331 1.391 . S
C1331 H1319 0.950 . S
C1331 C1327 1.393 . S
C1331 C1330 1.391 . S
H1332 C1340 0.950 . S
H1333 C1345 0.950 . S
H1334 C1342 0.950 . S
H1335 C1344 0.950 . S
H1336 C1346 0.950 . S
H1337 C1348 0.950 . S
H1338 C1350 0.950 . S
H1339 C1351 0.950 . S
C1340 H1332 0.950 . S
C1340 C1341 1.386 . S
C1340 C1342 1.391 . S
C1341 C1340 1.386 . S
C1341 C1345 1.393 . S
C1342 H1334 0.950 . S
C1342 C1340 1.391 . S
C1342 C1343 1.400 . S
C1343 C1342 1.400 . S
C1343 C1344 1.398 . S
C1343 C1349 1.491 . S
C1344 H1335 0.950 . S
C1344 C1343 1.398 . S
C1344 C1345 1.391 . S
C1345 H1333 0.950 . S
C1345 C1341 1.393 . S
C1345 C1344 1.391 . S
C1346 H1336 0.950 . S
C1346 C1347 1.386 . S
C1346 C1348 1.391 . S
C1347 C1346 1.386 . S
C1347 C1351 1.393 . S
C1348 H1337 0.950 . S
C1348 C1346 1.391 . S
C1348 C1349 1.400 . S
C1349 C1343 1.491 . S
C1349 C1348 1.400 . S
C1349 C1350 1.398 . S
C1350 H1338 0.950 . S
C1350 C1349 1.398 . S
C1350 C1351 1.391 . S
C1351 H1339 0.950 . S
C1351 C1347 1.393 . S
C1351 C1350 1.391 . S
H1352 C1360 0.950 . S
H1353 C1365 0.950 . S
H1354 C1362 0.950 . S
H1355 C1364 0.950 . S
H1356 C1366 0.950 . S
H1357 C1368 0.950 . S
H1358 C1370 0.950 . S
H1359 C1371 0.950 . S
C1360 H1352 0.950 . S
C1360 C1361 1.386 . S
C1360 C1362 1.391 . S
C1361 C1360 1.386 . S
C1361 C1365 1.393 . S
C1362 H1354 0.950 . S
C1362 C1360 1.391 . S
C1362 C1363 1.400 . S
C1363 C1362 1.400 . S
C1363 C1364 1.398 . S
C1363 C1369 1.491 . S
C1364 H1355 0.950 . S
C1364 C1363 1.398 . S
C1364 C1365 1.391 . S
C1365 H1353 0.950 . S
C1365 C1361 1.393 . S
C1365 C1364 1.391 . S
C1366 H1356 0.950 . S
C1366 C1367 1.386 . S
C1366 C1368 1.391 . S
C1367 C1366 1.386 . S
C1367 C1371 1.393 . S
C1368 H1357 0.950 . S
C1368 C1366 1.391 . S
C1368 C1369 1.400 . S
C1369 C1363 1.491 . S
C1369 C1368 1.400 . S
C1369 C1370 1.398 . S
C1370 H1358 0.950 . S
C1370 C1369 1.398 . S
C1370 C1371 1.391 . S
C1371 H1359 0.950 . S
C1371 C1367 1.393 . S
C1371 C1370 1.391 . S
H1372 C1380 0.950 . S
H1373 C1385 0.950 . S
H1374 C1382 0.950 . S
H1375 C1384 0.950 . S
H1376 C1386 0.950 . S
H1377 C1388 0.950 . S
H1378 C1390 0.950 . S
H1379 C1391 0.950 . S
C1380 H1372 0.950 . S
C1380 C1381 1.386 . S
C1380 C1382 1.391 . S
C1381 C1380 1.386 . S
C1381 C1385 1.393 . S
C1382 H1374 0.950 . S
C1382 C1380 1.391 . S
C1382 C1383 1.400 . S
C1383 C1382 1.400 . S
C1383 C1384 1.398 . S
C1383 C1389 1.491 . S
C1384 H1375 0.950 . S
C1384 C1383 1.398 . S
C1384 C1385 1.391 . S
C1385 H1373 0.950 . S
C1385 C1381 1.393 . S
C1385 C1384 1.391 . S
C1386 H1376 0.950 . S
C1386 C1387 1.386 . S
C1386 C1388 1.391 . S
C1387 C1386 1.386 . S
C1387 C1391 1.393 . S
C1388 H1377 0.950 . S
C1388 C1386 1.391 . S
C1388 C1389 1.400 . S
C1389 C1383 1.491 . S
C1389 C1388 1.400 . S
C1389 C1390 1.398 . S
C1390 H1378 0.950 . S
C1390 C1389 1.398 . S
C1390 C1391 1.391 . S
C1391 H1379 0.950 . S
C1391 C1387 1.393 . S
C1391 C1390 1.391 . S
H1392 C1400 0.950 . S
H1393 C1405 0.950 . S
H1394 C1402 0.950 . S
H1395 C1404 0.950 . S
H1396 C1406 0.950 . S
H1397 C1408 0.950 . S
H1398 C1410 0.950 . S
H1399 C1411 0.950 . S
C1400 H1392 0.950 . S
C1400 C1401 1.386 . S
C1400 C1402 1.391 . S
C1401 C1400 1.386 . S
C1401 C1405 1.393 . S
C1402 H1394 0.950 . S
C1402 C1400 1.391 . S
C1402 C1403 1.400 . S
C1403 C1402 1.400 . S
C1403 C1404 1.398 . S
C1403 C1409 1.491 . S
C1404 H1395 0.950 . S
C1404 C1403 1.398 . S
C1404 C1405 1.391 . S
C1405 H1393 0.950 . S
C1405 C1401 1.393 . S
C1405 C1404 1.391 . S
C1406 H1396 0.950 . S
C1406 C1407 1.386 . S
C1406 C1408 1.391 . S
C1407 C1406 1.386 . S
C1407 C1411 1.393 . S
C1408 H1397 0.950 . S
C1408 C1406 1.391 . S
C1408 C1409 1.400 . S
C1409 C1403 1.491 . S
C1409 C1408 1.400 . S
C1409 C1410 1.398 . S
C1410 H1398 0.950 . S
C1410 C1409 1.398 . S
C1410 C1411 1.391 . S
C1411 H1399 0.950 . S
C1411 C1407 1.393 . S
C1411 C1410 1.391 . S
H1412 C1420 0.950 . S
H1413 C1425 0.950 . S
H1414 C1422 0.950 . S
H1415 C1424 0.950 . S
H1416 C1426 0.950 . S
H1417 C1428 0.950 . S
H1418 C1430 0.950 . S
H1419 C1431 0.950 . S
C1420 H1412 0.950 . S
C1420 C1421 1.386 . S
C1420 C1422 1.391 . S
C1421 C1420 1.386 . S
C1421 C1425 1.393 . S
C1422 H1414 0.950 . S
C1422 C1420 1.391 . S
C1422 C1423 1.400 . S
C1423 C1422 1.400 . S
C1423 C1424 1.398 . S
C1423 C1429 1.491 . S
C1424 H1415 0.950 . S
C1424 C1423 1.398 . S
C1424 C1425 1.391 . S
C1425 H1413 0.950 . S
C1425 C1421 1.393 . S
C1425 C1424 1.391 . S
C1426 H1416 0.950 . S
C1426 C1427 1.386 . S
C1426 C1428 1.391 . S
C1427 C1426 1.386 . S
C1427 C1431 1.393 . S
C1428 H1417 0.950 . S
C1428 C1426 1.391 . S
C1428 C1429 1.400 . S
C1429 C1423 1.491 . S
C1429 C1428 1.400 . S
C1429 C1430 1.398 . S
C1430 H1418 0.950 . S
C1430 C1429 1.398 . S
C1430 C1431 1.391 . S
C1431 H1419 0.950 . S
C1431 C1427 1.393 . S
C1431 C1430 1.391 . S
H1432 C1440 0.950 . S
H1433 C1445 0.950 . S
H1434 C1442 0.950 . S
H1435 C1444 0.950 . S
H1436 C1446 0.950 . S
H1437 C1448 0.950 . S
H1438 C1450 0.950 . S
H1439 C1451 0.950 . S
C1440 H1432 0.950 . S
C1440 C1441 1.386 . S
C1440 C1442 1.391 . S
C1441 C1440 1.386 . S
C1441 C1445 1.393 . S
C1442 H1434 0.950 . S
C1442 C1440 1.391 . S
C1442 C1443 1.400 . S
C1443 C1442 1.400 . S
C1443 C1444 1.398 . S
C1443 C1449 1.491 . S
C1444 H1435 0.950 . S
C1444 C1443 1.398 . S
C1444 C1445 1.391 . S
C1445 H1433 0.950 . S
C1445 C1441 1.393 . S
C1445 C1444 1.391 . S
C1446 H1436 0.950 . S
C1446 C1447 1.386 . S
C1446 C1448 1.391 . S
C1447 C1446 1.386 . S
C1447 C1451 1.393 . S
C1448 H1437 0.950 . S
C1448 C1446 1.391 . S
C1448 C1449 1.400 . S
C1449 C1443 1.491 . S
C1449 C1448 1.400 . S
C1449 C1450 1.398 . S
C1450 H1438 0.950 . S
C1450 C1449 1.398 . S
C1450 C1451 1.391 . S
C1451 H1439 0.950 . S
C1451 C1447 1.393 . S
C1451 C1450 1.391 . S
H1452 C1460 0.950 . S
H1453 C1465 0.950 . S
H1454 C1462 0.950 . S
H1455 C1464 0.950 . S
H1456 C1466 0.950 . S
H1457 C1468 0.950 . S
H1458 C1470 0.950 . S
H1459 C1471 0.950 . S
C1460 H1452 0.950 . S
C1460 C1461 1.386 . S
C1460 C1462 1.391 . S
C1461 C1460 1.386 . S
C1461 C1465 1.393 . S
C1462 H1454 0.950 . S
C1462 C1460 1.391 . S
C1462 C1463 1.400 . S
C1463 C1462 1.400 . S
C1463 C1464 1.398 . S
C1463 C1469 1.491 . S
C1464 H1455 0.950 . S
C1464 C1463 1.398 . S
C1464 C1465 1.391 . S
C1465 H1453 0.950 . S
C1465 C1461 1.393 . S
C1465 C1464 1.391 . S
C1466 H1456 0.950 . S
C1466 C1467 1.386 . S
C1466 C1468 1.391 . S
C1467 C1466 1.386 . S
C1467 C1471 1.393 . S
C1468 H1457 0.950 . S
C1468 C1466 1.391 . S
C1468 C1469 1.400 . S
C1469 C1463 1.491 . S
C1469 C1468 1.400 . S
C1469 C1470 1.398 . S
C1470 H1458 0.950 . S
C1470 C1469 1.398 . S
C1470 C1471 1.391 . S
C1471 H1459 0.950 . S
C1471 C1467 1.393 . S
C1471 C1470 1.391 . S
H1472 C1480 0.950 . S
H1473 C1485 0.950 . S
H1474 C1482 0.950 . S
H1475 C1484 0.950 . S
H1476 C1486 0.950 . S
H1477 C1488 0.950 . S
H1478 C1490 0.950 . S
H1479 C1491 0.950 . S
C1480 H1472 0.950 . S
C1480 C1481 1.386 . S
C1480 C1482 1.391 . S
C1481 C1480 1.386 . S
C1481 C1485 1.393 . S
C1482 H1474 0.950 . S
C1482 C1480 1.391 . S
C1482 C1483 1.400 . S
C1483 C1482 1.400 . S
C1483 C1484 1.398 . S
C1483 C1489 1.491 . S
C1484 H1475 0.950 . S
C1484 C1483 1.398 . S
C1484 C1485 1.391 . S
C1485 H1473 0.950 . S
C1485 C1481 1.393 . S
C1485 C1484 1.391 . S
C1486 H1476 0.950 . S
C1486 C1487 1.386 . S
C1486 C1488 1.391 . S
C1487 C1486 1.386 . S
C1487 C1491 1.393 . S
C1488 H1477 0.950 . S
C1488 C1486 1.391 . S
C1488 C1489 1.400 . S
C1489 C1483 1.491 . S
C1489 C1488 1.400 . S
C1489 C1490 1.398 . S
C1490 H1478 0.950 . S
C1490 C1489 1.398 . S
C1490 C1491 1.391 . S
C1491 H1479 0.950 . S
C1491 C1487 1.393 . S
C1491 C1490 1.391 . S
H1492 C1500 0.950 . S
H1493 C1505 0.950 . S
H1494 C1502 0.950 . S
H1495 C1504 0.950 . S
H1496 C1506 0.950 . S
H1497 C1508 0.950 . S
H1498 C1510 0.950 . S
H1499 C1511 0.950 . S
C1500 H1492 0.950 . S
C1500 C1501 1.386 . S
C1500 C1502 1.391 . S
C1501 C1500 1.386 . S
C1501 C1505 1.393 . S
C1502 H1494 0.950 . S
C1502 C1500 1.391 . S
C1502 C1503 1.400 . S
C1503 C1502 1.400 . S
C1503 C1504 1.398 . S
C1503 C1509 1.491 . S
C1504 H1495 0.950 . S
C1504 C1503 1.398 . S
C1504 C1505 1.391 . S
C1505 H1493 0.950 . S
C1505 C1501 1.393 . S
C1505 C1504 1.391 . S
C1506 H1496 0.950 . S
C1506 C1507 1.386 . S
C1506 C1508 1.391 . S
C1507 C1506 1.386 . S
C1507 C1511 1.393 . S
C1508 H1497 0.950 . S
C1508 C1506 1.391 . S
C1508 C1509 1.400 . S
C1509 C1503 1.491 . S
C1509 C1508 1.400 . S
C1509 C1510 1.398 . S
C1510 H1498 0.950 . S
C1510 C1509 1.398 . S
C1510 C1511 1.391 . S
C1511 H1499 0.950 . S
C1511 C1507 1.393 . S
C1511 C1510 1.391 . S
H1512 C1520 0.950 . S
H1513 C1525 0.950 . S
H1514 C1522 0.950 . S
H1515 C1524 0.950 . S
H1516 C1526 0.950 . S
H1517 C1528 0.950 . S
H1518 C1530 0.950 . S
H1519 C1531 0.950 . S
C1520 H1512 0.950 . S
C1520 C1521 1.386 . S
C1520 C1522 1.391 . S
C1521 C1520 1.386 . S
C1521 C1525 1.393 . S
C1522 H1514 0.950 . S
C1522 C1520 1.391 . S
C1522 C1523 1.400 . S
C1523 C1522 1.400 . S
C1523 C1524 1.398 . S
C1523 C1529 1.491 . S
C1524 H1515 0.950 . S
C1524 C1523 1.398 . S
C1524 C1525 1.391 . S
C1525 H1513 0.950 . S
C1525 C1521 1.393 . S
C1525 C1524 1.391 . S
C1526 H1516 0.950 . S
C1526 C1527 1.386 . S
C1526 C1528 1.391 . S
C1527 C1526 1.386 . S
C1527 C1531 1.393 . S
C1528 H1517 0.950 . S
C1528 C1526 1.391 . S
C1528 C1529 1.400 . S
C1529 C1523 1.491 . S
C1529 C1528 1.400 . S
C1529 C1530 1.398 . S
C1530 H1518 0.950 . S
C1530 C1529 1.398 . S
C1530 C1531 1.391 . S
C1531 H1519 0.950 . S
C1531 C1527 1.393 . S
C1531 C1530 1.391 . S
H1532 C1540 0.950 . S
H1533 C1545 0.950 . S
H1534 C1542 0.950 . S
H1535 C1544 0.950 . S
H1536 C1546 0.950 . S
H1537 C1548 0.950 . S
H1538 C1550 0.950 . S
H1539 C1551 0.950 . S
C1540 H1532 0.950 . S
C1540 C1541 1.386 . S
C1540 C1542 1.391 . S
C1541 C1540 1.386 . S
C1541 C1545 1.393 . S
C1542 H1534 0.950 . S
C1542 C1540 1.391 . S
C1542 C1543 1.400 . S
C1543 C1542 1.400 . S
C1543 C1544 1.398 . S
C1543 C1549 1.491 . S
C1544 H1535 0.950 . S
C1544 C1543 1.398 . S
C1544 C1545 1.391 . S
C1545 H1533 0.950 . S
C1545 C1541 1.393 . S
C1545 C1544 1.391 . S
C1546 H1536 0.950 . S
C1546 C1547 1.386 . S
C1546 C1548 1.391 . S
C1547 C1546 1.386 . S
C1547 C1551 1.393 . S
C1548 H1537 0.950 . S
C1548 C1546 1.391 . S
C1548 C1549 1.400 . S
C1549 C1543 1.491 . S
C1549 C1548 1.400 . S
C1549 C1550 1.398 . S
C1550 H1538 0.950 . S
C1550 C1549 1.398 . S
C1550 C1551 1.391 . S
C1551 H1539 0.950 . S
C1551 C1547 1.393 . S
C1551 C1550 1.391 . S
H1552 C1560 0.950 . S
H1553 C1565 0.950 . S
H1554 C1562 0.950 . S
H1555 C1564 0.950 . S
H1556 C1566 0.950 . S
H1557 C1568 0.950 . S
H1558 C1570 0.950 . S
H1559 C1571 0.950 . S
C1560 H1552 0.950 . S
C1560 C1561 1.386 . S
C1560 C1562 1.391 . S
C1561 C1560 1.386 . S
C1561 C1565 1.393 . S
C1562 H1554 0.950 . S
C1562 C1560 1.391 . S
C1562 C1563 1.400 . S
C1563 C1562 1.400 . S
C1563 C1564 1.398 . S
C1563 C1569 1.491 . S
C1564 H1555 0.950 . S
C1564 C1563 1.398 . S
C1564 C1565 1.391 . S
C1565 H1553 0.950 . S
C1565 C1561 1.393 . S
C1565 C1564 1.391 . S
C1566 H1556 0.950 . S
C1566 C1567 1.386 . S
C1566 C1568 1.391 . S
C1567 C1566 1.386 . S
C1567 C1571 1.393 . S
C1568 H1557 0.950 . S
C1568 C1566 1.391 . S
C1568 C1569 1.400 . S
C1569 C1563 1.491 . S
C1569 C1568 1.400 . S
C1569 C1570 1.398 . S
C1570 H1558 0.950 . S
C1570 C1569 1.398 . S
C1570 C1571 1.391 . S
C1571 H1559 0.950 . S
C1571 C1567 1.393 . S
C1571 C1570 1.391 . S
H1572 C1580 0.950 . S
H1573 C1585 0.950 . S
H1574 C1582 0.950 . S
H1575 C1584 0.950 . S
H1576 C1586 0.950 . S
H1577 C1588 0.950 . S
H1578 C1590 0.950 . S
H1579 C1591 0.950 . S
C1580 H1572 0.950 . S
C1580 C1581 1.386 . S
C1580 C1582 1.391 . S
C1581 C1580 1.386 . S
C1581 C1585 1.393 . S
C1582 H1574 0.950 . S
C1582 C1580 1.391 . S
C1582 C1583 1.400 . S
C1583 C1582 1.400 . S
C1583 C1584 1.398 . S
C1583 C1589 1.491 . S
C1584 H1575 0.950 . S
C1584 C1583 1.398 . S
C1584 C1585 1.391 . S
C1585 H1573 0.950 . S
C1585 C1581 1.393 . S
C1585 C1584 1.391 . S
C1586 H1576 0.950 . S
C1586 C1587 1.386 . S
C1586 C1588 1.391 . S
C1587 C1586 1.386 . S
C1587 C1591 1.393 . S
C1588 H1577 0.950 . S
C1588 C1586 1.391 . S
C1588 C1589 1.400 . S
C1589 C1583 1.491 . S
C1589 C1588 1.400 . S
C1589 C1590 1.398 . S
C1590 H1578 0.950 . S
C1590 C1589 1.398 . S
C1590 C1591 1.391 . S
C1591 H1579 0.950 . S
C1591 C1587 1.393 . S
C1591 C1590 1.391 . S
H1592 C1600 0.929 1_565 S
H1593 C1605 0.950 . S
H1594 C1602 0.950 . S
H1595 C1604 0.950 . S
H1596 C1606 0.950 . S
H1597 C1608 0.950 . S
H1598 C1610 0.950 . S
H1599 C1611 0.950 . S
C1600 H1592 0.929 1_545 S
C1600 C1601 1.386 . S
C1600 C1602 1.391 . S
C1601 C1600 1.386 . S
C1601 C1605 1.393 . S
C1602 H1594 0.950 . S
C1602 C1600 1.391 . S
C1602 C1603 1.400 . S
C1603 C1602 1.400 . S
C1603 C1604 1.398 . S
C1603 C1609 1.491 . S
C1604 H1595 0.950 . S
C1604 C1603 1.398 . S
C1604 C1605 1.391 . S
C1605 H1593 0.950 . S
C1605 C1601 1.393 . S
C1605 C1604 1.391 . S
C1606 H1596 0.950 . S
C1606 C1607 1.386 . S
C1606 C1608 1.391 . S
C1607 C1606 1.386 . S
C1607 C1611 1.393 . S
C1608 H1597 0.950 . S
C1608 C1606 1.391 . S
C1608 C1609 1.400 . S
C1609 C1603 1.491 . S
C1609 C1608 1.400 . S
C1609 C1610 1.398 . S
C1610 H1598 0.950 . S
C1610 C1609 1.398 . S
C1610 C1611 1.391 . S
C1611 H1599 0.950 . S
C1611 C1607 1.393 . S
C1611 C1610 1.391 . S
H1612 C1620 0.950 . S
H1613 C1625 0.950 . S
H1614 C1622 0.950 . S
H1615 C1624 0.950 . S
H1616 C1626 0.950 . S
H1617 C1628 0.950 . S
H1618 C1630 0.950 . S
H1619 C1631 0.950 . S
C1620 H1612 0.950 . S
C1620 C1621 1.386 . S
C1620 C1622 1.391 . S
C1621 C1620 1.386 . S
C1621 C1625 1.393 . S
C1622 H1614 0.950 . S
C1622 C1620 1.391 . S
C1622 C1623 1.400 . S
C1623 C1622 1.400 . S
C1623 C1624 1.398 . S
C1623 C1629 1.491 . S
C1624 H1615 0.950 . S
C1624 C1623 1.398 . S
C1624 C1625 1.391 . S
C1625 H1613 0.950 . S
C1625 C1621 1.393 . S
C1625 C1624 1.391 . S
C1626 H1616 0.950 . S
C1626 C1627 1.386 . S
C1626 C1628 1.391 . S
C1627 C1626 1.386 . S
C1627 C1631 1.393 . S
C1628 H1617 0.950 . S
C1628 C1626 1.391 . S
C1628 C1629 1.400 . S
C1629 C1623 1.491 . S
C1629 C1628 1.400 . S
C1629 C1630 1.398 . S
C1630 H1618 0.950 . S
C1630 C1629 1.398 . S
C1630 C1631 1.391 . S
C1631 H1619 0.950 . S
C1631 C1627 1.393 . S
C1631 C1630 1.391 . S
H1632 C1640 0.950 . S
H1633 C1645 0.950 . S
H1634 C1642 0.950 1_565 S
H1635 C1644 0.950 . S
H1636 C1646 0.950 . S
H1637 C1648 0.950 . S
H1638 C1650 0.950 1_565 S
H1639 C1651 0.950 . S
C1640 H1632 0.950 . S
C1640 C1641 1.386 1_565 S
C1640 C1642 1.391 1_565 S
C1641 C1640 1.386 1_545 S
C1641 C1645 1.393 . S
C1642 H1634 0.950 1_545 S
C1642 C1640 1.391 1_545 S
C1642 C1643 1.400 . S
C1643 C1642 1.400 . S
C1643 C1644 1.398 . S
C1643 C1649 1.491 . S
C1644 H1635 0.950 . S
C1644 C1643 1.398 . S
C1644 C1645 1.391 . S
C1645 H1633 0.950 . S
C1645 C1641 1.393 . S
C1645 C1644 1.391 . S
C1646 H1636 0.950 . S
C1646 C1647 1.386 . S
C1646 C1648 1.391 . S
C1647 C1646 1.386 . S
C1647 C1651 1.393 . S
C1648 H1637 0.950 . S
C1648 C1646 1.391 . S
C1648 C1649 1.400 . S
C1649 C1643 1.491 . S
C1649 C1648 1.400 . S
C1649 C1650 1.398 . S
C1650 H1638 0.950 1_545 S
C1650 C1649 1.398 . S
C1650 C1651 1.391 . S
C1651 H1639 0.950 . S
C1651 C1647 1.393 . S
C1651 C1650 1.391 . S
H1652 C1660 0.950 . S
H1653 C1665 0.950 . S
H1654 C1662 0.950 . S
H1655 C1664 0.950 . S
H1656 C1666 0.950 . S
H1657 C1668 0.950 . S
H1658 C1670 0.950 . S
H1659 C1671 0.950 . S
C1660 H1652 0.950 . S
C1660 C1661 1.386 . S
C1660 C1662 1.391 . S
C1661 C1660 1.386 . S
C1661 C1665 1.393 . S
C1662 H1654 0.950 . S
C1662 C1660 1.391 . S
C1662 C1663 1.400 . S
C1663 C1662 1.400 . S
C1663 C1664 1.398 . S
C1663 C1669 1.491 . S
C1664 H1655 0.950 . S
C1664 C1663 1.398 . S
C1664 C1665 1.391 . S
C1665 H1653 0.950 . S
C1665 C1661 1.393 . S
C1665 C1664 1.391 . S
C1666 H1656 0.950 . S
C1666 C1667 1.386 . S
C1666 C1668 1.391 . S
C1667 C1666 1.386 . S
C1667 C1671 1.393 . S
C1668 H1657 0.950 . S
C1668 C1666 1.391 . S
C1668 C1669 1.400 . S
C1669 C1663 1.491 . S
C1669 C1668 1.400 . S
C1669 C1670 1.398 . S
C1670 H1658 0.950 . S
C1670 C1669 1.398 . S
C1670 C1671 1.391 . S
C1671 H1659 0.950 . S
C1671 C1667 1.393 . S
C1671 C1670 1.391 . S
H1672 C1680 0.950 . S
H1673 C1685 0.950 . S
H1674 C1682 0.950 . S
H1675 C1684 0.951 1_565 S
H1676 C1686 0.950 . S
H1677 C1688 0.938 1_565 S
H1678 C1690 0.950 . S
H1679 C1691 0.950 . S
C1680 H1672 0.950 . S
C1680 C1681 1.386 . S
C1680 C1682 1.391 . S
C1681 C1680 1.386 . S
C1681 C1685 1.393 1_545 S
C1682 H1674 0.950 . S
C1682 C1680 1.391 . S
C1682 C1683 1.400 . S
C1683 C1682 1.400 . S
C1683 C1684 1.395 . S
C1683 C1689 1.491 . S
C1684 H1675 0.951 1_545 S
C1684 C1683 1.395 . S
C1684 C1685 1.393 1_545 S
C1685 H1673 0.950 . S
C1685 C1681 1.393 1_565 S
C1685 C1684 1.393 1_565 S
C1686 H1676 0.950 . S
C1686 C1687 1.386 . S
C1686 C1688 1.391 . S
C1687 C1686 1.386 . S
C1687 C1691 1.393 . S
C1688 H1677 0.938 1_545 S
C1688 C1686 1.391 . S
C1688 C1689 1.400 . S
C1689 C1683 1.491 . S
C1689 C1688 1.400 . S
C1689 C1690 1.398 . S
C1690 H1678 0.950 . S
C1690 C1689 1.398 . S
C1690 C1691 1.391 . S
C1691 H1679 0.950 . S
C1691 C1687 1.393 . S
C1691 C1690 1.391 . S
H1692 C1700 0.950 . S
H1693 C1705 0.950 . S
H1694 C1702 0.950 . S
H1695 C1704 0.950 . S
H1696 C1706 0.950 . S
H1697 C1708 0.950 . S
H1698 C1710 0.950 . S
H1699 C1711 0.950 . S
C1700 H1692 0.950 . S
C1700 C1701 1.386 . S
C1700 C1702 1.391 . S
C1701 C1700 1.386 . S
C1701 C1705 1.393 . S
C1702 H1694 0.950 . S
C1702 C1700 1.391 . S
C1702 C1703 1.400 . S
C1703 C1702 1.400 . S
C1703 C1704 1.398 . S
C1703 C1709 1.491 . S
C1704 H1695 0.950 . S
C1704 C1703 1.398 . S
C1704 C1705 1.391 . S
C1705 H1693 0.950 . S
C1705 C1701 1.393 . S
C1705 C1704 1.391 . S
C1706 H1696 0.950 . S
C1706 C1707 1.386 . S
C1706 C1708 1.391 . S
C1707 C1706 1.386 . S
C1707 C1711 1.393 . S
C1708 H1697 0.950 . S
C1708 C1706 1.391 . S
C1708 C1709 1.400 . S
C1709 C1703 1.491 . S
C1709 C1708 1.400 . S
C1709 C1710 1.398 . S
C1710 H1698 0.950 . S
C1710 C1709 1.398 . S
C1710 C1711 1.391 . S
C1711 H1699 0.950 . S
C1711 C1707 1.393 . S
C1711 C1710 1.391 . S
H1712 C1720 0.950 . S
H1713 C1725 0.950 . S
H1714 C1722 0.950 . S
H1715 C1724 0.950 . S
H1716 C1726 0.950 . S
H1717 C1728 0.950 . S
H1718 C1730 0.950 . S
H1719 C1731 0.950 . S
C1720 H1712 0.950 . S
C1720 C1721 1.389 1_565 S
C1720 C1722 1.391 . S
C1721 C1720 1.389 1_545 S
C1721 C1725 1.386 . S
C1722 H1714 0.950 . S
C1722 C1720 1.391 . S
C1722 C1723 1.400 . S
C1723 C1722 1.400 . S
C1723 C1724 1.398 . S
C1723 C1729 1.491 . S
C1724 H1715 0.950 . S
C1724 C1723 1.398 . S
C1724 C1725 1.391 1_565 S
C1725 H1713 0.950 . S
C1725 C1721 1.386 . S
C1725 C1724 1.391 1_545 S
C1726 H1716 0.950 . S
C1726 C1727 1.386 . S
C1726 C1728 1.391 . S
C1727 C1726 1.386 . S
C1727 C1731 1.393 . S
C1728 H1717 0.950 . S
C1728 C1726 1.391 . S
C1728 C1729 1.400 . S
C1729 C1723 1.491 . S
C1729 C1728 1.400 . S
C1729 C1730 1.398 . S
C1730 H1718 0.950 . S
C1730 C1729 1.398 . S
C1730 C1731 1.391 . S
C1731 H1719 0.950 . S
C1731 C1727 1.393 . S
C1731 C1730 1.391 . S
H1732 C1740 0.950 . S
H1733 C1745 0.950 . S
H1734 C1742 0.950 . S
H1735 C1744 0.950 . S
H1736 C1746 0.950 . S
H1737 C1748 0.950 . S
H1738 C1750 0.950 . S
H1739 C1751 0.950 . S
C1740 H1732 0.950 . S
C1740 C1741 1.386 . S
C1740 C1742 1.391 . S
C1741 C1740 1.386 . S
C1741 C1745 1.393 . S
C1742 H1734 0.950 . S
C1742 C1740 1.391 . S
C1742 C1743 1.400 . S
C1743 C1742 1.400 . S
C1743 C1744 1.398 . S
C1743 C1749 1.491 . S
C1744 H1735 0.950 . S
C1744 C1743 1.398 . S
C1744 C1745 1.391 . S
C1745 H1733 0.950 . S
C1745 C1741 1.393 . S
C1745 C1744 1.391 . S
C1746 H1736 0.950 . S
C1746 C1747 1.386 . S
C1746 C1748 1.391 . S
C1747 C1746 1.386 . S
C1747 C1751 1.393 . S
C1748 H1737 0.950 . S
C1748 C1746 1.391 . S
C1748 C1749 1.400 . S
C1749 C1743 1.491 . S
C1749 C1748 1.400 . S
C1749 C1750 1.398 . S
C1750 H1738 0.950 . S
C1750 C1749 1.398 . S
C1750 C1751 1.391 . S
C1751 H1739 0.950 . S
C1751 C1747 1.393 . S
C1751 C1750 1.391 . S
H1752 C1760 0.950 . S
H1753 C1765 0.950 . S
H1754 C1762 0.950 . S
H1755 C1764 0.950 . S
H1756 C1766 0.950 . S
H1757 C1768 0.950 . S
H1758 C1770 0.950 . S
H1759 C1771 0.950 . S
C1760 H1752 0.950 . S
C1760 C1761 1.386 . S
C1760 C1762 1.391 . S
C1761 C1760 1.386 . S
C1761 C1765 1.393 . S
C1762 H1754 0.950 . S
C1762 C1760 1.391 . S
C1762 C1763 1.400 1_554 S
C1763 C1762 1.400 1_556 S
C1763 C1764 1.398 . S
C1763 C1769 1.491 . S
C1764 H1755 0.950 . S
C1764 C1763 1.398 . S
C1764 C1765 1.391 1_556 S
C1765 H1753 0.950 . S
C1765 C1761 1.393 . S
C1765 C1764 1.391 1_554 S
C1766 H1756 0.950 . S
C1766 C1767 1.386 . S
C1766 C1768 1.391 . S
C1767 C1766 1.386 . S
C1767 C1771 1.393 . S
C1768 H1757 0.950 . S
C1768 C1766 1.391 . S
C1768 C1769 1.400 . S
C1769 C1763 1.491 . S
C1769 C1768 1.400 . S
C1769 C1770 1.398 . S
C1770 H1758 0.950 . S
C1770 C1769 1.398 . S
C1770 C1771 1.391 . S
C1771 H1759 0.950 . S
C1771 C1767 1.393 . S
C1771 C1770 1.391 . S
H1772 C1780 0.950 1_556 S
H1773 C1785 0.950 . S
H1774 C1782 0.950 1_556 S
H1775 C1784 0.950 . S
H1776 C1786 0.950 . S
H1777 C1788 0.950 . S
H1778 C1790 0.950 1_556 S
H1779 C1791 0.950 1_556 S
C1780 H1772 0.950 1_554 S
C1780 C1781 1.386 . S
C1780 C1782 1.391 . S
C1781 C1780 1.386 . S
C1781 C1785 1.393 . S
C1782 H1774 0.950 1_554 S
C1782 C1780 1.391 . S
C1782 C1783 1.400 . S
C1783 C1782 1.400 . S
C1783 C1784 1.398 . S
C1783 C1789 1.491 . S
C1784 H1775 0.950 . S
C1784 C1783 1.398 . S
C1784 C1785 1.391 . S
C1785 H1773 0.950 . S
C1785 C1781 1.393 . S
C1785 C1784 1.391 . S
C1786 H1776 0.950 . S
C1786 C1787 1.386 . S
C1786 C1788 1.391 . S
C1787 C1786 1.386 . S
C1787 C1791 1.393 . S
C1788 H1777 0.950 . S
C1788 C1786 1.391 . S
C1788 C1789 1.400 . S
C1789 C1783 1.491 . S
C1789 C1788 1.400 . S
C1789 C1790 1.398 . S
C1790 H1778 0.950 1_554 S
C1790 C1789 1.398 . S
C1790 C1791 1.391 . S
C1791 H1779 0.950 1_554 S
C1791 C1787 1.393 . S
C1791 C1790 1.391 . S
H1792 C1800 0.950 . S
H1793 C1805 0.950 . S
H1794 C1802 0.950 . S
H1795 C1804 0.950 . S
H1796 C1806 0.950 . S
H1797 C1808 0.950 . S
H1798 C1810 0.950 . S
H1799 C1811 0.950 . S
C1800 H1792 0.950 . S
C1800 C1801 1.386 . S
C1800 C1802 1.391 . S
C1801 C1800 1.386 . S
C1801 C1805 1.393 . S
C1802 H1794 0.950 . S
C1802 C1800 1.391 . S
C1802 C1803 1.400 . S
C1803 C1802 1.400 . S
C1803 C1804 1.398 . S
C1803 C1809 1.491 . S
C1804 H1795 0.950 . S
C1804 C1803 1.398 . S
C1804 C1805 1.391 . S
C1805 H1793 0.950 . S
C1805 C1801 1.393 . S
C1805 C1804 1.391 . S
C1806 H1796 0.950 . S
C1806 C1807 1.386 . S
C1806 C1808 1.391 . S
C1807 C1806 1.386 . S
C1807 C1811 1.393 . S
C1808 H1797 0.950 . S
C1808 C1806 1.391 . S
C1808 C1809 1.400 . S
C1809 C1803 1.491 . S
C1809 C1808 1.400 . S
C1809 C1810 1.398 . S
C1810 H1798 0.950 . S
C1810 C1809 1.398 . S
C1810 C1811 1.391 . S
C1811 H1799 0.950 . S
C1811 C1807 1.393 . S
C1811 C1810 1.391 . S
H1812 C1820 0.950 . S
H1813 C1825 0.950 . S
H1814 C1822 0.950 . S
H1815 C1824 0.950 . S
H1816 C1826 0.950 . S
H1817 C1828 0.950 . S
H1818 C1830 0.950 . S
H1819 C1831 0.950 . S
C1820 H1812 0.950 . S
C1820 C1821 1.386 . S
C1820 C1822 1.391 . S
C1821 C1820 1.386 . S
C1821 C1825 1.393 . S
C1822 H1814 0.950 . S
C1822 C1820 1.391 . S
C1822 C1823 1.400 . S
C1823 C1822 1.400 . S
C1823 C1824 1.398 . S
C1823 C1829 1.491 . S
C1824 H1815 0.950 . S
C1824 C1823 1.398 . S
C1824 C1825 1.391 . S
C1825 H1813 0.950 . S
C1825 C1821 1.393 . S
C1825 C1824 1.391 . S
C1826 H1816 0.950 . S
C1826 C1827 1.386 . S
C1826 C1828 1.391 . S
C1827 C1826 1.386 . S
C1827 C1831 1.393 . S
C1828 H1817 0.950 . S
C1828 C1826 1.391 . S
C1828 C1829 1.400 . S
C1829 C1823 1.491 . S
C1829 C1828 1.400 . S
C1829 C1830 1.398 . S
C1830 H1818 0.950 . S
C1830 C1829 1.398 . S
C1830 C1831 1.391 . S
C1831 H1819 0.950 . S
C1831 C1827 1.393 . S
C1831 C1830 1.391 . S
H1832 C1840 0.950 . S
H1833 C1845 0.950 . S
H1834 C1842 0.950 . S
H1835 C1844 0.950 . S
H1836 C1846 0.950 . S
H1837 C1848 0.950 . S
H1838 C1850 0.950 . S
H1839 C1851 0.950 . S
C1840 H1832 0.950 . S
C1840 C1841 1.386 . S
C1840 C1842 1.391 . S
C1841 C1840 1.386 . S
C1841 C1845 1.393 1_545 S
C1842 H1834 0.950 . S
C1842 C1840 1.391 . S
C1842 C1843 1.400 1_545 S
C1843 C1842 1.400 1_565 S
C1843 C1844 1.398 . S
C1843 C1849 1.491 . S
C1844 H1835 0.950 . S
C1844 C1843 1.398 . S
C1844 C1845 1.391 . S
C1845 H1833 0.950 . S
C1845 C1841 1.393 1_565 S
C1845 C1844 1.391 . S
C1846 H1836 0.950 . S
C1846 C1847 1.386 . S
C1846 C1848 1.391 . S
C1847 C1846 1.386 . S
C1847 C1851 1.393 . S
C1848 H1837 0.950 . S
C1848 C1846 1.391 . S
C1848 C1849 1.400 . S
C1849 C1843 1.491 . S
C1849 C1848 1.400 . S
C1849 C1850 1.398 . S
C1850 H1838 0.950 . S
C1850 C1849 1.398 . S
C1850 C1851 1.391 . S
C1851 H1839 0.950 . S
C1851 C1847 1.393 . S
C1851 C1850 1.391 . S
H1852 C1860 0.950 . S
H1853 C1865 0.950 . S
H1854 C1862 0.950 . S
H1855 C1864 0.950 . S
H1856 C1866 0.950 . S
H1857 C1868 0.950 . S
H1858 C1870 0.950 . S
H1859 C1871 0.950 . S
C1860 H1852 0.950 . S
C1860 C1861 1.386 . S
C1860 C1862 1.391 . S
C1861 C1860 1.386 . S
C1861 C1865 1.393 . S
C1862 H1854 0.950 . S
C1862 C1860 1.391 . S
C1862 C1863 1.400 . S
C1863 C1862 1.400 . S
C1863 C1864 1.398 . S
C1863 C1869 1.491 . S
C1864 H1855 0.950 . S
C1864 C1863 1.398 . S
C1864 C1865 1.391 . S
C1865 H1853 0.950 . S
C1865 C1861 1.393 . S
C1865 C1864 1.391 . S
C1866 H1856 0.950 . S
C1866 C1867 1.386 . S
C1866 C1868 1.391 . S
C1867 C1866 1.386 . S
C1867 C1871 1.393 . S
C1868 H1857 0.950 . S
C1868 C1866 1.391 . S
C1868 C1869 1.400 . S
C1869 C1863 1.491 . S
C1869 C1868 1.400 . S
C1869 C1870 1.398 . S
C1870 H1858 0.950 . S
C1870 C1869 1.398 . S
C1870 C1871 1.391 . S
C1871 H1859 0.950 . S
C1871 C1867 1.393 . S
C1871 C1870 1.391 . S
H1872 C1880 0.950 . S
H1873 C1885 0.950 . S
H1874 C1882 0.950 . S
H1875 C1884 0.950 . S
H1876 C1886 0.950 . S
H1877 C1888 0.950 . S
H1878 C1890 0.950 . S
H1879 C1891 0.950 . S
C1880 H1872 0.950 . S
C1880 C1881 1.386 . S
C1880 C1882 1.391 . S
C1881 C1880 1.386 . S
C1881 C1885 1.393 . S
C1882 H1874 0.950 . S
C1882 C1880 1.391 . S
C1882 C1883 1.400 . S
C1883 C1882 1.400 . S
C1883 C1884 1.398 . S
C1883 C1889 1.491 . S
C1884 H1875 0.950 . S
C1884 C1883 1.398 . S
C1884 C1885 1.391 . S
C1885 H1873 0.950 . S
C1885 C1881 1.393 . S
C1885 C1884 1.391 . S
C1886 H1876 0.950 . S
C1886 C1887 1.386 . S
C1886 C1888 1.391 . S
C1887 C1886 1.386 . S
C1887 C1891 1.393 . S
C1888 H1877 0.950 . S
C1888 C1886 1.391 . S
C1888 C1889 1.400 . S
C1889 C1883 1.491 . S
C1889 C1888 1.400 . S
C1889 C1890 1.398 . S
C1890 H1878 0.950 . S
C1890 C1889 1.398 . S
C1890 C1891 1.391 . S
C1891 H1879 0.950 . S
C1891 C1887 1.393 . S
C1891 C1890 1.391 . S
H1892 C1900 0.950 . S
H1893 C1905 0.950 . S
H1894 C1902 0.950 . S
H1895 C1904 0.950 . S
H1896 C1906 0.950 . S
H1897 C1908 0.950 . S
H1898 C1910 0.950 . S
H1899 C1911 0.950 . S
C1900 H1892 0.950 . S
C1900 C1901 1.386 . S
C1900 C1902 1.391 . S
C1901 C1900 1.386 . S
C1901 C1905 1.393 . S
C1902 H1894 0.950 . S
C1902 C1900 1.391 . S
C1902 C1903 1.400 . S
C1903 C1902 1.400 . S
C1903 C1904 1.398 . S
C1903 C1909 1.491 . S
C1904 H1895 0.950 . S
C1904 C1903 1.398 . S
C1904 C1905 1.391 . S
C1905 H1893 0.950 . S
C1905 C1901 1.393 . S
C1905 C1904 1.391 . S
C1906 H1896 0.950 . S
C1906 C1907 1.386 . S
C1906 C1908 1.391 . S
C1907 C1906 1.386 . S
C1907 C1911 1.393 . S
C1908 H1897 0.950 . S
C1908 C1906 1.391 . S
C1908 C1909 1.400 . S
C1909 C1903 1.491 . S
C1909 C1908 1.400 . S
C1909 C1910 1.398 . S
C1910 H1898 0.950 . S
C1910 C1909 1.398 . S
C1910 C1911 1.391 . S
C1911 H1899 0.950 . S
C1911 C1907 1.393 . S
C1911 C1910 1.391 . S
H1912 C1920 0.950 . S
H1913 C1925 0.950 . S
H1914 C1922 0.950 . S
H1915 C1924 0.950 . S
H1916 C1926 0.950 . S
H1917 C1928 0.950 . S
H1918 C1930 0.950 . S
H1919 C1931 0.950 . S
C1920 H1912 0.950 . S
C1920 C1921 1.386 . S
C1920 C1922 1.391 . S
C1921 C1920 1.386 . S
C1921 C1925 1.393 . S
C1922 H1914 0.950 . S
C1922 C1920 1.391 . S
C1922 C1923 1.400 . S
C1923 C1922 1.400 . S
C1923 C1924 1.398 . S
C1923 C1929 1.491 . S
C1924 H1915 0.950 . S
C1924 C1923 1.398 . S
C1924 C1925 1.391 . S
C1925 H1913 0.950 . S
C1925 C1921 1.393 . S
C1925 C1924 1.391 . S
C1926 H1916 0.950 . S
C1926 C1927 1.386 . S
C1926 C1928 1.391 . S
C1927 C1926 1.386 . S
C1927 C1931 1.393 . S
C1928 H1917 0.950 . S
C1928 C1926 1.391 . S
C1928 C1929 1.400 . S
C1929 C1923 1.491 . S
C1929 C1928 1.400 . S
C1929 C1930 1.398 . S
C1930 H1918 0.950 . S
C1930 C1929 1.398 . S
C1930 C1931 1.391 . S
C1931 H1919 0.950 . S
C1931 C1927 1.393 . S
C1931 C1930 1.391 . S
H1932 C1940 0.950 . S
H1933 C1945 0.950 . S
H1934 C1942 0.950 . S
H1935 C1944 0.950 . S
H1936 C1946 0.950 . S
H1937 C1948 0.950 . S
H1938 C1950 0.950 . S
H1939 C1951 0.950 . S
C1940 H1932 0.950 . S
C1940 C1941 1.386 . S
C1940 C1942 1.391 . S
C1941 C1940 1.386 . S
C1941 C1945 1.393 . S
C1942 H1934 0.950 . S
C1942 C1940 1.391 . S
C1942 C1943 1.400 . S
C1943 C1942 1.400 . S
C1943 C1944 1.398 . S
C1943 C1949 1.491 . S
C1944 H1935 0.950 . S
C1944 C1943 1.398 . S
C1944 C1945 1.391 . S
C1945 H1933 0.950 . S
C1945 C1941 1.393 . S
C1945 C1944 1.391 . S
C1946 H1936 0.950 . S
C1946 C1947 1.386 . S
C1946 C1948 1.391 . S
C1947 C1946 1.386 . S
C1947 C1951 1.393 . S
C1948 H1937 0.950 . S
C1948 C1946 1.391 . S
C1948 C1949 1.400 . S
C1949 C1943 1.491 . S
C1949 C1948 1.400 . S
C1949 C1950 1.398 . S
C1950 H1938 0.950 . S
C1950 C1949 1.398 . S
C1950 C1951 1.391 . S
C1951 H1939 0.950 . S
C1951 C1947 1.393 . S
C1951 C1950 1.391 . S
H1952 C1960 0.950 . S
H1953 C1965 0.950 . S
H1954 C1962 0.950 . S
H1955 C1964 0.950 . S
H1956 C1966 0.950 . S
H1957 C1968 0.950 . S
H1958 C1970 0.957 . S
H1959 C1971 0.950 . S
C1960 H1952 0.950 . S
C1960 C1961 1.386 . S
C1960 C1962 1.391 . S
C1961 C1960 1.386 . S
C1961 C1965 1.393 . S
C1962 H1954 0.950 . S
C1962 C1960 1.391 . S
C1962 C1963 1.400 . S
C1963 C1962 1.400 . S
C1963 C1964 1.398 . S
C1963 C1969 1.491 . S
C1964 H1955 0.950 . S
C1964 C1963 1.398 . S
C1964 C1965 1.391 . S
C1965 H1953 0.950 . S
C1965 C1961 1.393 . S
C1965 C1964 1.391 . S
C1966 H1956 0.950 . S
C1966 C1967 1.386 . S
C1966 C1968 1.391 . S
C1967 C1966 1.386 . S
C1967 C1971 1.393 1_556 S
C1968 H1957 0.950 . S
C1968 C1966 1.391 . S
C1968 C1969 1.400 . S
C1969 C1963 1.491 . S
C1969 C1968 1.400 . S
C1969 C1970 1.390 1_556 S
C1970 H1958 0.957 . S
C1970 C1969 1.390 1_554 S
C1970 C1971 1.392 . S
C1971 H1959 0.950 . S
C1971 C1967 1.393 1_554 S
C1971 C1970 1.392 . S
H1972 C1980 0.950 . S
H1973 C1985 0.950 . S
H1974 C1982 0.950 . S
H1975 C1984 0.950 . S
H1976 C1986 0.950 . S
H1977 C1988 0.950 . S
H1978 C1990 0.950 . S
H1979 C1991 0.950 . S
C1980 H1972 0.950 . S
C1980 C1981 1.386 . S
C1980 C1982 1.391 1_455 S
C1981 C1980 1.386 . S
C1981 C1985 1.393 . S
C1982 H1974 0.950 . S
C1982 C1980 1.391 1_655 S
C1982 C1983 1.400 . S
C1983 C1982 1.400 . S
C1983 C1984 1.398 . S
C1983 C1989 1.491 . S
C1984 H1975 0.950 . S
C1984 C1983 1.398 . S
C1984 C1985 1.391 1_655 S
C1985 H1973 0.950 . S
C1985 C1981 1.393 . S
C1985 C1984 1.391 1_455 S
C1986 H1976 0.950 . S
C1986 C1987 1.386 . S
C1986 C1988 1.391 . S
C1987 C1986 1.386 . S
C1987 C1991 1.393 . S
C1988 H1977 0.950 . S
C1988 C1986 1.391 . S
C1988 C1989 1.400 . S
C1989 C1983 1.491 . S
C1989 C1988 1.400 . S
C1989 C1990 1.398 . S
C1990 H1978 0.950 . S
C1990 C1989 1.398 . S
C1990 C1991 1.391 . S
C1991 H1979 0.950 . S
C1991 C1987 1.393 . S
C1991 C1990 1.391 . S
H1992 C2000 0.950 . S
H1993 C2005 0.950 . S
H1994 C2002 0.950 . S
H1995 C2004 0.950 . S
H1996 C2006 0.950 . S
H1997 C2008 0.950 . S
H1998 C2010 0.950 . S
H1999 C2011 0.950 . S
C2000 H1992 0.950 . S
C2000 C2001 1.386 . S
C2000 C2002 1.391 . S
C2001 C2000 1.386 . S
C2001 C2005 1.393 . S
C2002 H1994 0.950 . S
C2002 C2000 1.391 . S
C2002 C2003 1.400 . S
C2003 C2002 1.400 . S
C2003 C2004 1.398 . S
C2003 C2009 1.491 . S
C2004 H1995 0.950 . S
C2004 C2003 1.398 . S
C2004 C2005 1.391 . S
C2005 H1993 0.950 . S
C2005 C2001 1.393 . S
C2005 C2004 1.391 . S
C2006 H1996 0.950 . S
C2006 C2007 1.386 . S
C2006 C2008 1.391 . S
C2007 C2006 1.386 . S
C2007 C2011 1.393 . S
C2008 H1997 0.950 . S
C2008 C2006 1.391 . S
C2008 C2009 1.400 . S
C2009 C2003 1.491 . S
C2009 C2008 1.400 . S
C2009 C2010 1.398 . S
C2010 H1998 0.950 . S
C2010 C2009 1.398 . S
C2010 C2011 1.391 . S
C2011 H1999 0.950 . S
C2011 C2007 1.393 . S
C2011 C2010 1.391 . S
H2012 C2020 0.950 . S
H2013 C2025 0.950 . S
H2014 C2022 0.950 . S
H2015 C2024 0.947 . S
H2016 C2026 0.950 . S
H2017 C2028 0.950 . S
H2018 C2030 0.950 . S
H2019 C2031 0.950 . S
C2020 H2012 0.950 . S
C2020 C2021 1.386 . S
C2020 C2022 1.391 . S
C2021 C2020 1.386 . S
C2021 C2025 1.393 . S
C2022 H2014 0.950 . S
C2022 C2020 1.391 . S
C2022 C2023 1.400 . S
C2023 C2022 1.400 . S
C2023 C2024 1.398 . S
C2023 C2029 1.491 1_455 S
C2024 H2015 0.947 . S
C2024 C2023 1.398 . S
C2024 C2025 1.391 . S
C2025 H2013 0.950 . S
C2025 C2021 1.393 . S
C2025 C2024 1.391 . S
C2026 H2016 0.950 . S
C2026 C2027 1.386 . S
C2026 C2028 1.391 . S
C2027 C2026 1.386 . S
C2027 C2031 1.393 . S
C2028 H2017 0.950 . S
C2028 C2026 1.391 . S
C2028 C2029 1.400 . S
C2029 C2023 1.491 1_655 S
C2029 C2028 1.400 . S
C2029 C2030 1.398 . S
C2030 H2018 0.950 . S
C2030 C2029 1.398 . S
C2030 C2031 1.391 . S
C2031 H2019 0.950 . S
C2031 C2027 1.393 . S
C2031 C2030 1.391 . S
H2032 C2040 0.950 . S
H2033 C2045 0.950 . S
H2034 C2042 0.950 . S
H2035 C2044 0.950 . S
H2036 C2046 0.950 . S
H2037 C2048 0.950 . S
H2038 C2050 0.950 . S
H2039 C2051 0.950 . S
C2040 H2032 0.950 . S
C2040 C2041 1.386 . S
C2040 C2042 1.391 1_655 S
C2041 C2040 1.386 . S
C2041 C2045 1.393 1_655 S
C2042 H2034 0.950 . S
C2042 C2040 1.391 1_455 S
C2042 C2043 1.400 . S
C2043 C2042 1.400 . S
C2043 C2044 1.398 . S
C2043 C2049 1.491 . S
C2044 H2035 0.950 . S
C2044 C2043 1.398 . S
C2044 C2045 1.391 . S
C2045 H2033 0.950 . S
C2045 C2041 1.393 1_455 S
C2045 C2044 1.391 . S
C2046 H2036 0.950 . S
C2046 C2047 1.386 . S
C2046 C2048 1.391 . S
C2047 C2046 1.386 . S
C2047 C2051 1.393 . S
C2048 H2037 0.950 . S
C2048 C2046 1.391 . S
C2048 C2049 1.400 . S
C2049 C2043 1.491 . S
C2049 C2048 1.400 . S
C2049 C2050 1.398 . S
C2050 H2038 0.950 . S
C2050 C2049 1.398 . S
C2050 C2051 1.391 . S
C2051 H2039 0.950 . S
C2051 C2047 1.393 . S
C2051 C2050 1.391 . S
H2052 C2060 0.950 . S
H2053 C2065 0.950 . S
H2054 C2062 0.950 . S
H2055 C2064 0.950 . S
H2056 C2066 0.950 . S
H2057 C2068 0.950 . S
H2058 C2070 0.950 . S
H2059 C2071 0.950 . S
C2060 H2052 0.950 . S
C2060 C2061 1.386 . S
C2060 C2062 1.391 . S
C2061 C2060 1.386 . S
C2061 C2065 1.393 . S
C2062 H2054 0.950 . S
C2062 C2060 1.391 . S
C2062 C2063 1.400 . S
C2063 C2062 1.400 . S
C2063 C2064 1.398 . S
C2063 C2069 1.491 . S
C2064 H2055 0.950 . S
C2064 C2063 1.398 . S
C2064 C2065 1.391 . S
C2065 H2053 0.950 . S
C2065 C2061 1.393 . S
C2065 C2064 1.391 . S
C2066 H2056 0.950 . S
C2066 C2067 1.386 . S
C2066 C2068 1.391 . S
C2067 C2066 1.386 . S
C2067 C2071 1.393 . S
C2068 H2057 0.950 . S
C2068 C2066 1.391 . S
C2068 C2069 1.400 . S
C2069 C2063 1.491 . S
C2069 C2068 1.400 . S
C2069 C2070 1.398 . S
C2070 H2058 0.950 . S
C2070 C2069 1.398 . S
C2070 C2071 1.391 . S
C2071 H2059 0.950 . S
C2071 C2067 1.393 . S
C2071 C2070 1.391 . S
H2072 C2080 0.950 . S
H2073 C2085 0.950 . S
H2074 C2082 0.950 . S
H2075 C2084 0.950 . S
H2076 C2086 0.950 . S
H2077 C2088 0.950 . S
H2078 C2090 0.950 . S
H2079 C2091 0.950 . S
C2080 H2072 0.950 . S
C2080 C2081 1.386 . S
C2080 C2082 1.391 . S
C2081 C2080 1.386 . S
C2081 C2085 1.393 . S
C2082 H2074 0.950 . S
C2082 C2080 1.391 . S
C2082 C2083 1.400 . S
C2083 C2082 1.400 . S
C2083 C2084 1.398 . S
C2083 C2089 1.491 . S
C2084 H2075 0.950 . S
C2084 C2083 1.398 . S
C2084 C2085 1.391 . S
C2085 H2073 0.950 . S
C2085 C2081 1.393 . S
C2085 C2084 1.391 . S
C2086 H2076 0.950 . S
C2086 C2087 1.386 . S
C2086 C2088 1.391 . S
C2087 C2086 1.386 . S
C2087 C2091 1.393 . S
C2088 H2077 0.950 . S
C2088 C2086 1.391 . S
C2088 C2089 1.400 . S
C2089 C2083 1.491 . S
C2089 C2088 1.400 . S
C2089 C2090 1.398 . S
C2090 H2078 0.950 . S
C2090 C2089 1.398 . S
C2090 C2091 1.391 . S
C2091 H2079 0.950 . S
C2091 C2087 1.393 . S
C2091 C2090 1.391 . S
H2092 C2100 0.950 . S
H2093 C2105 0.950 . S
H2094 C2102 0.950 . S
H2095 C2104 0.950 . S
H2096 C2106 0.950 . S
H2097 C2108 0.950 . S
H2098 C2110 0.950 . S
H2099 C2111 0.950 . S
C2100 H2092 0.950 . S
C2100 C2101 1.386 . S
C2100 C2102 1.391 . S
C2101 C2100 1.386 . S
C2101 C2105 1.393 . S
C2102 H2094 0.950 . S
C2102 C2100 1.391 . S
C2102 C2103 1.400 . S
C2103 C2102 1.400 . S
C2103 C2104 1.398 . S
C2103 C2109 1.491 . S
C2104 H2095 0.950 . S
C2104 C2103 1.398 . S
C2104 C2105 1.391 . S
C2105 H2093 0.950 . S
C2105 C2101 1.393 . S
C2105 C2104 1.391 . S
C2106 H2096 0.950 . S
C2106 C2107 1.386 . S
C2106 C2108 1.391 . S
C2107 C2106 1.386 . S
C2107 C2111 1.393 . S
C2108 H2097 0.950 . S
C2108 C2106 1.391 . S
C2108 C2109 1.400 . S
C2109 C2103 1.491 . S
C2109 C2108 1.400 . S
C2109 C2110 1.398 . S
C2110 H2098 0.950 . S
C2110 C2109 1.398 . S
C2110 C2111 1.391 . S
C2111 H2099 0.950 . S
C2111 C2107 1.393 . S
C2111 C2110 1.391 . S
H2112 C2120 0.950 . S
H2113 C2125 0.950 . S
H2114 C2122 0.950 . S
H2115 C2124 0.950 . S
H2116 C2126 0.950 . S
H2117 C2128 0.950 . S
H2118 C2130 0.950 . S
H2119 C2131 0.950 . S
C2120 H2112 0.950 . S
C2120 C2121 1.386 . S
C2120 C2122 1.391 . S
C2121 C2120 1.386 . S
C2121 C2125 1.393 . S
C2122 H2114 0.950 . S
C2122 C2120 1.391 . S
C2122 C2123 1.400 . S
C2123 C2122 1.400 . S
C2123 C2124 1.398 . S
C2123 C2129 1.491 . S
C2124 H2115 0.950 . S
C2124 C2123 1.398 . S
C2124 C2125 1.391 . S
C2125 H2113 0.950 . S
C2125 C2121 1.393 . S
C2125 C2124 1.391 . S
C2126 H2116 0.950 . S
C2126 C2127 1.386 . S
C2126 C2128 1.391 . S
C2127 C2126 1.386 . S
C2127 C2131 1.393 . S
C2128 H2117 0.950 . S
C2128 C2126 1.391 . S
C2128 C2129 1.400 . S
C2129 C2123 1.491 . S
C2129 C2128 1.400 . S
C2129 C2130 1.398 . S
C2130 H2118 0.950 . S
C2130 C2129 1.398 . S
C2130 C2131 1.391 . S
C2131 H2119 0.950 . S
C2131 C2127 1.393 . S
C2131 C2130 1.391 . S
H2132 C2140 0.950 . S
H2133 C2145 0.950 . S
H2134 C2142 0.950 . S
H2135 C2144 0.950 . S
H2136 C2146 0.950 . S
H2137 C2148 0.950 . S
H2138 C2150 0.950 . S
H2139 C2151 0.950 . S
C2140 H2132 0.950 . S
C2140 C2141 1.386 . S
C2140 C2142 1.391 . S
C2141 C2140 1.386 . S
C2141 C2145 1.393 . S
C2142 H2134 0.950 . S
C2142 C2140 1.391 . S
C2142 C2143 1.400 . S
C2143 C2142 1.400 . S
C2143 C2144 1.398 . S
C2143 C2149 1.491 . S
C2144 H2135 0.950 . S
C2144 C2143 1.398 . S
C2144 C2145 1.391 . S
C2145 H2133 0.950 . S
C2145 C2141 1.393 . S
C2145 C2144 1.391 . S
C2146 H2136 0.950 . S
C2146 C2147 1.386 . S
C2146 C2148 1.391 . S
C2147 C2146 1.386 . S
C2147 C2151 1.393 . S
C2148 H2137 0.950 . S
C2148 C2146 1.391 . S
C2148 C2149 1.400 . S
C2149 C2143 1.491 . S
C2149 C2148 1.400 . S
C2149 C2150 1.398 . S
C2150 H2138 0.950 . S
C2150 C2149 1.398 . S
C2150 C2151 1.391 . S
C2151 H2139 0.950 . S
C2151 C2147 1.393 . S
C2151 C2150 1.391 . S
H2152 C2160 0.950 . S
H2153 C2165 0.950 . S
H2154 C2162 0.950 . S
H2155 C2164 0.950 . S
H2156 C2166 0.950 . S
H2157 C2168 0.950 . S
H2158 C2170 0.950 . S
H2159 C2171 0.950 . S
C2160 H2152 0.950 . S
C2160 C2161 1.386 . S
C2160 C2162 1.391 . S
C2161 C2160 1.386 . S
C2161 C2165 1.393 . S
C2162 H2154 0.950 . S
C2162 C2160 1.391 . S
C2162 C2163 1.400 . S
C2163 C2162 1.400 . S
C2163 C2164 1.398 . S
C2163 C2169 1.491 . S
C2164 H2155 0.950 . S
C2164 C2163 1.398 . S
C2164 C2165 1.391 . S
C2165 H2153 0.950 . S
C2165 C2161 1.393 . S
C2165 C2164 1.391 . S
C2166 H2156 0.950 . S
C2166 C2167 1.386 . S
C2166 C2168 1.391 . S
C2167 C2166 1.386 . S
C2167 C2171 1.393 . S
C2168 H2157 0.950 . S
C2168 C2166 1.391 . S
C2168 C2169 1.400 . S
C2169 C2163 1.491 . S
C2169 C2168 1.400 . S
C2169 C2170 1.398 . S
C2170 H2158 0.950 . S
C2170 C2169 1.398 . S
C2170 C2171 1.391 . S
C2171 H2159 0.950 . S
C2171 C2167 1.393 . S
C2171 C2170 1.391 . S
H2172 C2180 0.950 . S
H2173 C2185 0.950 . S
H2174 C2182 0.950 . S
H2175 C2184 0.950 . S
H2176 C2186 0.950 . S
H2177 C2188 0.950 . S
H2178 C2190 0.950 . S
H2179 C2191 0.950 . S
C2180 H2172 0.950 . S
C2180 C2181 1.386 . S
C2180 C2182 1.391 . S
C2181 C2180 1.386 . S
C2181 C2185 1.393 . S
C2182 H2174 0.950 . S
C2182 C2180 1.391 . S
C2182 C2183 1.400 . S
C2183 C2182 1.400 . S
C2183 C2184 1.398 . S
C2183 C2189 1.491 . S
C2184 H2175 0.950 . S
C2184 C2183 1.398 . S
C2184 C2185 1.391 . S
C2185 H2173 0.950 . S
C2185 C2181 1.393 . S
C2185 C2184 1.391 . S
C2186 H2176 0.950 . S
C2186 C2187 1.386 . S
C2186 C2188 1.391 . S
C2187 C2186 1.386 . S
C2187 C2191 1.393 . S
C2188 H2177 0.950 . S
C2188 C2186 1.391 . S
C2188 C2189 1.400 . S
C2189 C2183 1.491 . S
C2189 C2188 1.400 . S
C2189 C2190 1.398 . S
C2190 H2178 0.950 . S
C2190 C2189 1.398 . S
C2190 C2191 1.391 . S
C2191 H2179 0.950 . S
C2191 C2187 1.393 . S
C2191 C2190 1.391 . S
H2192 C2200 0.950 . S
H2193 C2205 0.950 . S
H2194 C2202 0.950 . S
H2195 C2204 0.950 . S
H2196 C2206 0.950 . S
H2197 C2208 0.950 . S
H2198 C2210 0.950 . S
H2199 C2211 0.950 . S
C2200 H2192 0.950 . S
C2200 C2201 1.386 . S
C2200 C2202 1.391 . S
C2201 C2200 1.386 . S
C2201 C2205 1.393 . S
C2202 H2194 0.950 . S
C2202 C2200 1.391 . S
C2202 C2203 1.400 . S
C2203 C2202 1.400 . S
C2203 C2204 1.398 . S
C2203 C2209 1.491 . S
C2204 H2195 0.950 . S
C2204 C2203 1.398 . S
C2204 C2205 1.391 . S
C2205 H2193 0.950 . S
C2205 C2201 1.393 . S
C2205 C2204 1.391 . S
C2206 H2196 0.950 . S
C2206 C2207 1.386 . S
C2206 C2208 1.391 . S
C2207 C2206 1.386 . S
C2207 C2211 1.393 . S
C2208 H2197 0.950 . S
C2208 C2206 1.391 . S
C2208 C2209 1.400 . S
C2209 C2203 1.491 . S
C2209 C2208 1.400 . S
C2209 C2210 1.398 . S
C2210 H2198 0.950 . S
C2210 C2209 1.398 . S
C2210 C2211 1.391 . S
C2211 H2199 0.950 . S
C2211 C2207 1.393 . S
C2211 C2210 1.391 . S
H2212 C2220 0.950 . S
H2213 C2225 0.950 . S
H2214 C2222 0.950 . S
H2215 C2224 0.950 . S
H2216 C2226 0.950 . S
H2217 C2228 0.950 . S
H2218 C2230 0.950 . S
H2219 C2231 0.950 . S
C2220 H2212 0.950 . S
C2220 C2221 1.386 . S
C2220 C2222 1.391 . S
C2221 C2220 1.386 . S
C2221 C2225 1.393 . S
C2222 H2214 0.950 . S
C2222 C2220 1.391 . S
C2222 C2223 1.400 . S
C2223 C2222 1.400 . S
C2223 C2224 1.398 . S
C2223 C2229 1.491 . S
C2224 H2215 0.950 . S
C2224 C2223 1.398 . S
C2224 C2225 1.391 . S
C2225 H2213 0.950 . S
C2225 C2221 1.393 . S
C2225 C2224 1.391 . S
C2226 H2216 0.950 . S
C2226 C2227 1.386 . S
C2226 C2228 1.391 . S
C2227 C2226 1.386 . S
C2227 C2231 1.393 . S
C2228 H2217 0.950 . S
C2228 C2226 1.391 . S
C2228 C2229 1.400 . S
C2229 C2223 1.491 . S
C2229 C2228 1.400 . S
C2229 C2230 1.398 . S
C2230 H2218 0.950 . S
C2230 C2229 1.398 . S
C2230 C2231 1.391 . S
C2231 H2219 0.950 . S
C2231 C2227 1.393 . S
C2231 C2230 1.391 . S
H2232 C2240 0.950 . S
H2233 C2245 0.950 . S
H2234 C2242 0.950 . S
H2235 C2244 0.950 . S
H2236 C2246 0.950 . S
H2237 C2248 0.950 . S
H2238 C2250 0.950 . S
H2239 C2251 0.950 . S
C2240 H2232 0.950 . S
C2240 C2241 1.386 . S
C2240 C2242 1.391 . S
C2241 C2240 1.386 . S
C2241 C2245 1.393 . S
C2242 H2234 0.950 . S
C2242 C2240 1.391 . S
C2242 C2243 1.400 . S
C2243 C2242 1.400 . S
C2243 C2244 1.398 . S
C2243 C2249 1.491 . S
C2244 H2235 0.950 . S
C2244 C2243 1.398 . S
C2244 C2245 1.391 . S
C2245 H2233 0.950 . S
C2245 C2241 1.393 . S
C2245 C2244 1.391 . S
C2246 H2236 0.950 . S
C2246 C2247 1.386 . S
C2246 C2248 1.391 . S
C2247 C2246 1.386 . S
C2247 C2251 1.393 . S
C2248 H2237 0.950 . S
C2248 C2246 1.391 . S
C2248 C2249 1.400 . S
C2249 C2243 1.491 . S
C2249 C2248 1.400 . S
C2249 C2250 1.398 . S
C2250 H2238 0.950 . S
C2250 C2249 1.398 . S
C2250 C2251 1.391 . S
C2251 H2239 0.950 . S
C2251 C2247 1.393 . S
C2251 C2250 1.391 . S
H2252 C2260 0.950 . S
H2253 C2265 0.950 . S
H2254 C2262 0.950 . S
H2255 C2264 0.950 . S
H2256 C2266 0.950 . S
H2257 C2268 0.950 . S
H2258 C2270 0.950 . S
H2259 C2271 0.950 . S
C2260 H2252 0.950 . S
C2260 C2261 1.386 . S
C2260 C2262 1.391 . S
C2261 C2260 1.386 . S
C2261 C2265 1.393 . S
C2262 H2254 0.950 . S
C2262 C2260 1.391 . S
C2262 C2263 1.400 . S
C2263 C2262 1.400 . S
C2263 C2264 1.398 . S
C2263 C2269 1.491 . S
C2264 H2255 0.950 . S
C2264 C2263 1.398 . S
C2264 C2265 1.391 . S
C2265 H2253 0.950 . S
C2265 C2261 1.393 . S
C2265 C2264 1.391 . S
C2266 H2256 0.950 . S
C2266 C2267 1.386 . S
C2266 C2268 1.391 . S
C2267 C2266 1.386 . S
C2267 C2271 1.393 . S
C2268 H2257 0.950 . S
C2268 C2266 1.391 . S
C2268 C2269 1.400 . S
C2269 C2263 1.491 . S
C2269 C2268 1.400 . S
C2269 C2270 1.398 . S
C2270 H2258 0.950 . S
C2270 C2269 1.398 . S
C2270 C2271 1.391 . S
C2271 H2259 0.950 . S
C2271 C2267 1.393 . S
C2271 C2270 1.391 . S
H2272 C2280 0.950 . S
H2273 C2285 0.950 . S
H2274 C2282 0.950 . S
H2275 C2284 0.950 . S
H2276 C2286 0.950 . S
H2277 C2288 0.950 . S
H2278 C2290 0.950 . S
H2279 C2291 0.950 . S
C2280 H2272 0.950 . S
C2280 C2281 1.386 . S
C2280 C2282 1.391 . S
C2281 C2280 1.386 . S
C2281 C2285 1.393 . S
C2282 H2274 0.950 . S
C2282 C2280 1.391 . S
C2282 C2283 1.400 . S
C2283 C2282 1.400 . S
C2283 C2284 1.398 . S
C2283 C2289 1.491 . S
C2284 H2275 0.950 . S
C2284 C2283 1.398 . S
C2284 C2285 1.391 . S
C2285 H2273 0.950 . S
C2285 C2281 1.393 . S
C2285 C2284 1.391 . S
C2286 H2276 0.950 . S
C2286 C2287 1.386 . S
C2286 C2288 1.391 . S
C2287 C2286 1.386 . S
C2287 C2291 1.393 . S
C2288 H2277 0.950 . S
C2288 C2286 1.391 . S
C2288 C2289 1.400 . S
C2289 C2283 1.491 . S
C2289 C2288 1.400 . S
C2289 C2290 1.398 . S
C2290 H2278 0.950 . S
C2290 C2289 1.398 . S
C2290 C2291 1.391 . S
C2291 H2279 0.950 . S
C2291 C2287 1.393 . S
C2291 C2290 1.391 . S
H2292 C2300 0.950 . S
H2293 C2305 0.950 . S
H2294 C2302 0.950 . S
H2295 C2304 0.950 . S
H2296 C2306 0.950 . S
H2297 C2308 0.950 . S
H2298 C2310 0.941 . S
H2299 C2311 0.950 . S
C2300 H2292 0.950 . S
C2300 C2301 1.386 1_556 S
C2300 C2302 1.391 . S
C2301 C2300 1.386 1_554 S
C2301 C2305 1.393 . S
C2302 H2294 0.950 . S
C2302 C2300 1.391 . S
C2302 C2303 1.400 1_556 S
C2303 C2302 1.400 1_554 S
C2303 C2304 1.398 . S
C2303 C2309 1.491 . S
C2304 H2295 0.950 . S
C2304 C2303 1.398 . S
C2304 C2305 1.391 . S
C2305 H2293 0.950 . S
C2305 C2301 1.393 . S
C2305 C2304 1.391 . S
C2306 H2296 0.950 . S
C2306 C2307 1.386 1_565 S
C2306 C2308 1.391 . S
C2307 C2306 1.386 1_545 S
C2307 C2311 1.393 1_554 S
C2308 H2297 0.950 . S
C2308 C2306 1.391 . S
C2308 C2309 1.400 . S
C2309 C2303 1.491 . S
C2309 C2308 1.400 . S
C2309 C2310 1.408 1_554 S
C2310 H2298 0.941 . S
C2310 C2309 1.408 1_556 S
C2310 C2311 1.389 1_565 S
C2311 H2299 0.950 . S
C2311 C2307 1.393 1_556 S
C2311 C2310 1.389 1_545 S
H2312 C2320 0.950 . S
H2313 C2325 0.950 . S
H2314 C2322 0.950 . S
H2315 C2324 0.950 . S
H2316 C2326 0.950 . S
H2317 C2328 0.950 . S
H2318 C2330 0.950 . S
H2319 C2331 0.950 . S
C2320 H2312 0.950 . S
C2320 C2321 1.386 . S
C2320 C2322 1.391 . S
C2321 C2320 1.386 . S
C2321 C2325 1.393 . S
C2322 H2314 0.950 . S
C2322 C2320 1.391 . S
C2322 C2323 1.400 . S
C2323 C2322 1.400 . S
C2323 C2324 1.398 . S
C2323 C2329 1.491 . S
C2324 H2315 0.950 . S
C2324 C2323 1.398 . S
C2324 C2325 1.391 . S
C2325 H2313 0.950 . S
C2325 C2321 1.393 . S
C2325 C2324 1.391 . S
C2326 H2316 0.950 . S
C2326 C2327 1.386 . S
C2326 C2328 1.391 . S
C2327 C2326 1.386 . S
C2327 C2331 1.393 . S
C2328 H2317 0.950 . S
C2328 C2326 1.391 . S
C2328 C2329 1.400 . S
C2329 C2323 1.491 . S
C2329 C2328 1.400 . S
C2329 C2330 1.398 . S
C2330 H2318 0.950 . S
C2330 C2329 1.398 . S
C2330 C2331 1.391 . S
C2331 H2319 0.950 . S
C2331 C2327 1.393 . S
C2331 C2330 1.391 . S
H2332 C2340 0.950 . S
H2333 C2345 0.950 . S
H2334 C2342 0.950 . S
H2335 C2344 0.950 . S
H2336 C2346 0.950 . S
H2337 C2348 0.950 . S
H2338 C2350 0.950 . S
H2339 C2351 0.950 . S
C2340 H2332 0.950 . S
C2340 C2341 1.386 . S
C2340 C2342 1.391 . S
C2341 C2340 1.386 . S
C2341 C2345 1.393 . S
C2342 H2334 0.950 . S
C2342 C2340 1.391 . S
C2342 C2343 1.400 . S
C2343 C2342 1.400 . S
C2343 C2344 1.398 . S
C2343 C2349 1.491 . S
C2344 H2335 0.950 . S
C2344 C2343 1.398 . S
C2344 C2345 1.391 . S
C2345 H2333 0.950 . S
C2345 C2341 1.393 . S
C2345 C2344 1.391 . S
C2346 H2336 0.950 . S
C2346 C2347 1.386 . S
C2346 C2348 1.391 . S
C2347 C2346 1.386 . S
C2347 C2351 1.393 . S
C2348 H2337 0.950 . S
C2348 C2346 1.391 . S
C2348 C2349 1.400 . S
C2349 C2343 1.491 . S
C2349 C2348 1.400 . S
C2349 C2350 1.398 . S
C2350 H2338 0.950 . S
C2350 C2349 1.398 . S
C2350 C2351 1.391 . S
C2351 H2339 0.950 . S
C2351 C2347 1.393 . S
C2351 C2350 1.391 . S
H2352 C2360 0.950 . S
H2353 C2365 0.950 . S
H2354 C2362 0.950 . S
H2355 C2364 0.950 . S
H2356 C2366 0.950 . S
H2357 C2368 0.950 . S
H2358 C2370 0.950 . S
H2359 C2371 0.950 . S
C2360 H2352 0.950 . S
C2360 C2361 1.386 . S
C2360 C2362 1.391 . S
C2361 C2360 1.386 . S
C2361 C2365 1.393 . S
C2362 H2354 0.950 . S
C2362 C2360 1.391 . S
C2362 C2363 1.400 . S
C2363 C2362 1.400 . S
C2363 C2364 1.398 . S
C2363 C2369 1.491 . S
C2364 H2355 0.950 . S
C2364 C2363 1.398 . S
C2364 C2365 1.391 . S
C2365 H2353 0.950 . S
C2365 C2361 1.393 . S
C2365 C2364 1.391 . S
C2366 H2356 0.950 . S
C2366 C2367 1.386 . S
C2366 C2368 1.391 . S
C2367 C2366 1.386 . S
C2367 C2371 1.393 . S
C2368 H2357 0.950 . S
C2368 C2366 1.391 . S
C2368 C2369 1.400 . S
C2369 C2363 1.491 . S
C2369 C2368 1.400 . S
C2369 C2370 1.398 . S
C2370 H2358 0.950 . S
C2370 C2369 1.398 . S
C2370 C2371 1.391 . S
C2371 H2359 0.950 . S
C2371 C2367 1.393 . S
C2371 C2370 1.391 . S
H2372 C2380 0.950 . S
H2373 C2385 0.950 . S
H2374 C2382 0.950 . S
H2375 C2384 0.950 . S
H2376 C2386 0.950 . S
H2377 C2388 0.950 . S
H2378 C2390 0.950 . S
H2379 C2391 0.950 . S
C2380 H2372 0.950 . S
C2380 C2381 1.386 . S
C2380 C2382 1.391 . S
C2381 C2380 1.386 . S
C2381 C2385 1.393 . S
C2382 H2374 0.950 . S
C2382 C2380 1.391 . S
C2382 C2383 1.400 . S
C2383 C2382 1.400 . S
C2383 C2384 1.398 . S
C2383 C2389 1.491 . S
C2384 H2375 0.950 . S
C2384 C2383 1.398 . S
C2384 C2385 1.391 . S
C2385 H2373 0.950 . S
C2385 C2381 1.393 . S
C2385 C2384 1.391 . S
C2386 H2376 0.950 . S
C2386 C2387 1.386 . S
C2386 C2388 1.391 . S
C2387 C2386 1.386 . S
C2387 C2391 1.393 . S
C2388 H2377 0.950 . S
C2388 C2386 1.391 . S
C2388 C2389 1.400 . S
C2389 C2383 1.491 . S
C2389 C2388 1.400 . S
C2389 C2390 1.398 . S
C2390 H2378 0.950 . S
C2390 C2389 1.398 . S
C2390 C2391 1.391 . S
C2391 H2379 0.950 . S
C2391 C2387 1.393 . S
C2391 C2390 1.391 . S
H2392 C2400 0.950 . S
H2393 C2405 0.950 . S
H2394 C2402 0.950 . S
H2395 C2404 0.950 . S
H2396 C2406 0.950 . S
H2397 C2408 0.950 . S
H2398 C2410 0.950 . S
H2399 C2411 0.950 . S
C2400 H2392 0.950 . S
C2400 C2401 1.386 . S
C2400 C2402 1.391 . S
C2401 C2400 1.386 . S
C2401 C2405 1.393 . S
C2402 H2394 0.950 . S
C2402 C2400 1.391 . S
C2402 C2403 1.400 . S
C2403 C2402 1.400 . S
C2403 C2404 1.398 . S
C2403 C2409 1.491 . S
C2404 H2395 0.950 . S
C2404 C2403 1.398 . S
C2404 C2405 1.391 . S
C2405 H2393 0.950 . S
C2405 C2401 1.393 . S
C2405 C2404 1.391 . S
C2406 H2396 0.950 . S
C2406 C2407 1.386 . S
C2406 C2408 1.391 . S
C2407 C2406 1.386 . S
C2407 C2411 1.393 . S
C2408 H2397 0.950 . S
C2408 C2406 1.391 . S
C2408 C2409 1.400 . S
C2409 C2403 1.491 . S
C2409 C2408 1.400 . S
C2409 C2410 1.398 . S
C2410 H2398 0.950 . S
C2410 C2409 1.398 . S
C2410 C2411 1.391 . S
C2411 H2399 0.950 . S
C2411 C2407 1.393 . S
C2411 C2410 1.391 . S
H2412 C2420 0.950 . S
H2413 C2425 0.950 . S
H2414 C2422 0.950 . S
H2415 C2424 0.950 . S
H2416 C2426 0.950 . S
H2417 C2428 0.950 . S
H2418 C2430 0.950 . S
H2419 C2431 0.950 . S
C2420 H2412 0.950 . S
C2420 C2421 1.386 . S
C2420 C2422 1.391 . S
C2421 C2420 1.386 . S
C2421 C2425 1.393 . S
C2422 H2414 0.950 . S
C2422 C2420 1.391 . S
C2422 C2423 1.400 . S
C2423 C2422 1.400 . S
C2423 C2424 1.398 . S
C2423 C2429 1.491 . S
C2424 H2415 0.950 . S
C2424 C2423 1.398 . S
C2424 C2425 1.391 . S
C2425 H2413 0.950 . S
C2425 C2421 1.393 . S
C2425 C2424 1.391 . S
C2426 H2416 0.950 . S
C2426 C2427 1.386 . S
C2426 C2428 1.391 . S
C2427 C2426 1.386 . S
C2427 C2431 1.393 . S
C2428 H2417 0.950 . S
C2428 C2426 1.391 . S
C2428 C2429 1.400 . S
C2429 C2423 1.491 . S
C2429 C2428 1.400 . S
C2429 C2430 1.398 . S
C2430 H2418 0.950 . S
C2430 C2429 1.398 . S
C2430 C2431 1.391 . S
C2431 H2419 0.950 . S
C2431 C2427 1.393 . S
C2431 C2430 1.391 . S
H2432 C2440 0.950 . S
H2433 C2445 0.950 . S
H2434 C2442 0.950 . S
H2435 C2444 0.950 . S
H2436 C2446 0.950 1_556 S
H2437 C2448 0.950 . S
H2438 C2450 0.950 . S
H2439 C2451 0.950 . S
C2440 H2432 0.950 . S
C2440 C2441 1.386 . S
C2440 C2442 1.391 . S
C2441 C2440 1.386 . S
C2441 C2445 1.393 . S
C2442 H2434 0.950 . S
C2442 C2440 1.391 . S
C2442 C2443 1.400 . S
C2443 C2442 1.400 . S
C2443 C2444 1.398 . S
C2443 C2449 1.491 . S
C2444 H2435 0.950 . S
C2444 C2443 1.398 . S
C2444 C2445 1.391 . S
C2445 H2433 0.950 . S
C2445 C2441 1.393 . S
C2445 C2444 1.391 . S
C2446 H2436 0.950 1_554 S
C2446 C2447 1.386 . S
C2446 C2448 1.391 . S
C2447 C2446 1.386 . S
C2447 C2451 1.393 . S
C2448 H2437 0.950 . S
C2448 C2446 1.391 . S
C2448 C2449 1.400 . S
C2449 C2443 1.491 . S
C2449 C2448 1.400 . S
C2449 C2450 1.398 . S
C2450 H2438 0.950 . S
C2450 C2449 1.398 . S
C2450 C2451 1.391 . S
C2451 H2439 0.950 . S
C2451 C2447 1.393 . S
C2451 C2450 1.391 . S
H2452 C2460 0.950 . S
H2453 C2465 0.950 . S
H2454 C2462 0.950 . S
H2455 C2464 0.950 . S
H2456 C2466 0.950 . S
H2457 C2468 0.950 . S
H2458 C2470 0.950 . S
H2459 C2471 0.950 . S
C2460 H2452 0.950 . S
C2460 C2461 1.386 . S
C2460 C2462 1.391 . S
C2461 C2460 1.386 . S
C2461 C2465 1.393 . S
C2462 H2454 0.950 . S
C2462 C2460 1.391 . S
C2462 C2463 1.400 . S
C2463 C2462 1.400 . S
C2463 C2464 1.398 . S
C2463 C2469 1.491 . S
C2464 H2455 0.950 . S
C2464 C2463 1.398 . S
C2464 C2465 1.391 . S
C2465 H2453 0.950 . S
C2465 C2461 1.393 . S
C2465 C2464 1.391 . S
C2466 H2456 0.950 . S
C2466 C2467 1.386 . S
C2466 C2468 1.391 . S
C2467 C2466 1.386 . S
C2467 C2471 1.393 . S
C2468 H2457 0.950 . S
C2468 C2466 1.391 . S
C2468 C2469 1.400 . S
C2469 C2463 1.491 . S
C2469 C2468 1.400 . S
C2469 C2470 1.398 . S
C2470 H2458 0.950 . S
C2470 C2469 1.398 . S
C2470 C2471 1.391 . S
C2471 H2459 0.950 . S
C2471 C2467 1.393 . S
C2471 C2470 1.391 . S
H2472 C2480 0.950 . S
H2473 C2485 0.950 . S
H2474 C2482 0.950 . S
H2475 C2484 0.950 . S
H2476 C2486 0.950 . S
H2477 C2488 0.950 . S
H2478 C2490 0.950 . S
H2479 C2491 0.950 . S
C2480 H2472 0.950 . S
C2480 C2481 1.386 . S
C2480 C2482 1.391 . S
C2481 C2480 1.386 . S
C2481 C2485 1.393 . S
C2482 H2474 0.950 . S
C2482 C2480 1.391 . S
C2482 C2483 1.400 . S
C2483 C2482 1.400 . S
C2483 C2484 1.398 . S
C2483 C2489 1.491 . S
C2484 H2475 0.950 . S
C2484 C2483 1.398 . S
C2484 C2485 1.391 . S
C2485 H2473 0.950 . S
C2485 C2481 1.393 . S
C2485 C2484 1.391 . S
C2486 H2476 0.950 . S
C2486 C2487 1.386 . S
C2486 C2488 1.391 . S
C2487 C2486 1.386 . S
C2487 C2491 1.393 . S
C2488 H2477 0.950 . S
C2488 C2486 1.391 . S
C2488 C2489 1.400 . S
C2489 C2483 1.491 . S
C2489 C2488 1.400 . S
C2489 C2490 1.398 . S
C2490 H2478 0.950 . S
C2490 C2489 1.398 . S
C2490 C2491 1.391 . S
C2491 H2479 0.950 . S
C2491 C2487 1.393 . S
C2491 C2490 1.391 . S
H2492 C2500 0.950 . S
H2493 C2505 0.950 . S
H2494 C2502 0.950 . S
H2495 C2504 0.950 . S
H2496 C2506 0.950 . S
H2497 C2508 0.950 . S
H2498 C2510 0.950 . S
H2499 C2511 0.950 . S
C2500 H2492 0.950 . S
C2500 C2501 1.386 . S
C2500 C2502 1.391 . S
C2501 C2500 1.386 . S
C2501 C2505 1.393 . S
C2502 H2494 0.950 . S
C2502 C2500 1.391 . S
C2502 C2503 1.400 . S
C2503 C2502 1.400 . S
C2503 C2504 1.398 . S
C2503 C2509 1.491 . S
C2504 H2495 0.950 . S
C2504 C2503 1.398 . S
C2504 C2505 1.391 . S
C2505 H2493 0.950 . S
C2505 C2501 1.393 . S
C2505 C2504 1.391 . S
C2506 H2496 0.950 . S
C2506 C2507 1.386 . S
C2506 C2508 1.391 . S
C2507 C2506 1.386 . S
C2507 C2511 1.393 . S
C2508 H2497 0.950 . S
C2508 C2506 1.391 . S
C2508 C2509 1.400 . S
C2509 C2503 1.491 . S
C2509 C2508 1.400 . S
C2509 C2510 1.398 . S
C2510 H2498 0.950 . S
C2510 C2509 1.398 . S
C2510 C2511 1.391 . S
C2511 H2499 0.950 . S
C2511 C2507 1.393 . S
C2511 C2510 1.391 . S
H2512 C2520 0.950 . S
H2513 C2525 0.950 . S
H2514 C2522 0.950 . S
H2515 C2524 0.950 . S
H2516 C2526 0.950 . S
H2517 C2528 0.950 . S
H2518 C2530 0.950 . S
H2519 C2531 0.950 . S
C2520 H2512 0.950 . S
C2520 C2521 1.386 . S
C2520 C2522 1.391 . S
C2521 C2520 1.386 . S
C2521 C2525 1.393 . S
C2522 H2514 0.950 . S
C2522 C2520 1.391 . S
C2522 C2523 1.400 . S
C2523 C2522 1.400 . S
C2523 C2524 1.398 . S
C2523 C2529 1.491 . S
C2524 H2515 0.950 . S
C2524 C2523 1.398 . S
C2524 C2525 1.391 . S
C2525 H2513 0.950 . S
C2525 C2521 1.393 . S
C2525 C2524 1.391 . S
C2526 H2516 0.950 . S
C2526 C2527 1.386 . S
C2526 C2528 1.391 . S
C2527 C2526 1.386 . S
C2527 C2531 1.393 . S
C2528 H2517 0.950 . S
C2528 C2526 1.391 . S
C2528 C2529 1.400 . S
C2529 C2523 1.491 . S
C2529 C2528 1.400 . S
C2529 C2530 1.398 . S
C2530 H2518 0.950 . S
C2530 C2529 1.398 . S
C2530 C2531 1.391 . S
C2531 H2519 0.950 . S
C2531 C2527 1.393 . S
C2531 C2530 1.391 . S
H2532 C2540 0.950 . S
H2533 C2545 0.950 . S
H2534 C2542 0.950 . S
H2535 C2544 0.950 . S
H2536 C2546 0.950 . S
H2537 C2548 0.950 . S
H2538 C2550 0.950 . S
H2539 C2551 0.950 . S
C2540 H2532 0.950 . S
C2540 C2541 1.386 . S
C2540 C2542 1.391 . S
C2541 C2540 1.386 . S
C2541 C2545 1.393 . S
C2542 H2534 0.950 . S
C2542 C2540 1.391 . S
C2542 C2543 1.400 . S
C2543 C2542 1.400 . S
C2543 C2544 1.398 . S
C2543 C2549 1.491 . S
C2544 H2535 0.950 . S
C2544 C2543 1.398 . S
C2544 C2545 1.391 . S
C2545 H2533 0.950 . S
C2545 C2541 1.393 . S
C2545 C2544 1.391 . S
C2546 H2536 0.950 . S
C2546 C2547 1.386 . S
C2546 C2548 1.391 . S
C2547 C2546 1.386 . S
C2547 C2551 1.393 . S
C2548 H2537 0.950 . S
C2548 C2546 1.391 . S
C2548 C2549 1.400 . S
C2549 C2543 1.491 . S
C2549 C2548 1.400 . S
C2549 C2550 1.398 . S
C2550 H2538 0.950 . S
C2550 C2549 1.398 . S
C2550 C2551 1.391 . S
C2551 H2539 0.950 . S
C2551 C2547 1.393 . S
C2551 C2550 1.391 . S
H2552 C2560 0.950 . S
H2553 C2565 0.950 . S
H2554 C2562 0.950 . S
H2555 C2564 0.950 . S
H2556 C2566 0.950 . S
H2557 C2568 0.950 . S
H2558 C2570 0.950 . S
H2559 C2571 0.950 . S
C2560 H2552 0.950 . S
C2560 C2561 1.386 . S
C2560 C2562 1.391 . S
C2561 C2560 1.386 . S
C2561 C2565 1.393 . S
C2562 H2554 0.950 . S
C2562 C2560 1.391 . S
C2562 C2563 1.400 . S
C2563 C2562 1.400 . S
C2563 C2564 1.398 . S
C2563 C2569 1.491 . S
C2564 H2555 0.950 . S
C2564 C2563 1.398 . S
C2564 C2565 1.391 . S
C2565 H2553 0.950 . S
C2565 C2561 1.393 . S
C2565 C2564 1.391 . S
C2566 H2556 0.950 . S
C2566 C2567 1.386 . S
C2566 C2568 1.391 . S
C2567 C2566 1.386 . S
C2567 C2571 1.393 . S
C2568 H2557 0.950 . S
C2568 C2566 1.391 . S
C2568 C2569 1.400 . S
C2569 C2563 1.491 . S
C2569 C2568 1.400 . S
C2569 C2570 1.398 . S
C2570 H2558 0.950 . S
C2570 C2569 1.398 . S
C2570 C2571 1.391 . S
C2571 H2559 0.950 . S
C2571 C2567 1.393 . S
C2571 C2570 1.391 . S
H2572 C2580 0.950 . S
H2573 C2585 0.950 . S
H2574 C2582 0.950 . S
H2575 C2584 0.950 . S
H2576 C2586 0.950 . S
H2577 C2588 0.950 . S
H2578 C2590 0.950 . S
H2579 C2591 0.950 . S
C2580 H2572 0.950 . S
C2580 C2581 1.386 . S
C2580 C2582 1.391 . S
C2581 C2580 1.386 . S
C2581 C2585 1.393 . S
C2582 H2574 0.950 . S
C2582 C2580 1.391 . S
C2582 C2583 1.400 . S
C2583 C2582 1.400 . S
C2583 C2584 1.398 . S
C2583 C2589 1.491 . S
C2584 H2575 0.950 . S
C2584 C2583 1.398 . S
C2584 C2585 1.391 . S
C2585 H2573 0.950 . S
C2585 C2581 1.393 . S
C2585 C2584 1.391 . S
C2586 H2576 0.950 . S
C2586 C2587 1.386 . S
C2586 C2588 1.391 . S
C2587 C2586 1.386 . S
C2587 C2591 1.393 . S
C2588 H2577 0.950 . S
C2588 C2586 1.391 . S
C2588 C2589 1.400 . S
C2589 C2583 1.491 . S
C2589 C2588 1.400 . S
C2589 C2590 1.398 . S
C2590 H2578 0.950 . S
C2590 C2589 1.398 . S
C2590 C2591 1.391 . S
C2591 H2579 0.950 . S
C2591 C2587 1.393 . S
C2591 C2590 1.391 . S
H2592 C2600 0.950 . S
H2593 C2605 0.950 . S
H2594 C2602 0.950 . S
H2595 C2604 0.950 1_455 S
H2596 C2606 0.950 . S
H2597 C2608 0.950 . S
H2598 C2610 0.950 . S
H2599 C2611 0.950 . S
C2600 H2592 0.950 . S
C2600 C2601 1.386 . S
C2600 C2602 1.391 . S
C2601 C2600 1.386 . S
C2601 C2605 1.393 . S
C2602 H2594 0.950 . S
C2602 C2600 1.391 . S
C2602 C2603 1.400 . S
C2603 C2602 1.400 . S
C2603 C2604 1.398 . S
C2603 C2609 1.491 . S
C2604 H2595 0.950 1_655 S
C2604 C2603 1.398 . S
C2604 C2605 1.391 . S
C2605 H2593 0.950 . S
C2605 C2601 1.393 . S
C2605 C2604 1.391 . S
C2606 H2596 0.950 . S
C2606 C2607 1.386 . S
C2606 C2608 1.391 . S
C2607 C2606 1.386 . S
C2607 C2611 1.393 . S
C2608 H2597 0.950 . S
C2608 C2606 1.391 . S
C2608 C2609 1.400 1_455 S
C2609 C2603 1.491 . S
C2609 C2608 1.400 1_655 S
C2609 C2610 1.398 . S
C2610 H2598 0.950 . S
C2610 C2609 1.398 . S
C2610 C2611 1.391 1_655 S
C2611 H2599 0.950 . S
C2611 C2607 1.393 . S
C2611 C2610 1.391 1_455 S
H2612 C2620 0.950 . S
H2613 C2625 0.950 . S
H2614 C2622 0.950 . S
H2615 C2624 0.950 . S
H2616 C2626 0.950 . S
H2617 C2628 0.950 . S
H2618 C2630 0.950 . S
H2619 C2631 0.950 . S
C2620 H2612 0.950 . S
C2620 C2621 1.386 . S
C2620 C2622 1.391 . S
C2621 C2620 1.386 . S
C2621 C2625 1.393 . S
C2622 H2614 0.950 . S
C2622 C2620 1.391 . S
C2622 C2623 1.400 . S
C2623 C2622 1.400 . S
C2623 C2624 1.398 . S
C2623 C2629 1.491 . S
C2624 H2615 0.950 . S
C2624 C2623 1.398 . S
C2624 C2625 1.391 . S
C2625 H2613 0.950 . S
C2625 C2621 1.393 . S
C2625 C2624 1.391 . S
C2626 H2616 0.950 . S
C2626 C2627 1.386 . S
C2626 C2628 1.391 . S
C2627 C2626 1.386 . S
C2627 C2631 1.393 . S
C2628 H2617 0.950 . S
C2628 C2626 1.391 . S
C2628 C2629 1.400 . S
C2629 C2623 1.491 . S
C2629 C2628 1.400 . S
C2629 C2630 1.398 . S
C2630 H2618 0.950 . S
C2630 C2629 1.398 . S
C2630 C2631 1.391 . S
C2631 H2619 0.950 . S
C2631 C2627 1.393 . S
C2631 C2630 1.391 . S
H2632 C2640 0.950 . S
H2633 C2645 0.950 . S
H2634 C2642 0.950 . S
H2635 C2644 0.950 . S
H2636 C2646 0.950 . S
H2637 C2648 0.950 . S
H2638 C2650 0.950 . S
H2639 C2651 0.950 . S
C2640 H2632 0.950 . S
C2640 C2641 1.386 . S
C2640 C2642 1.391 . S
C2641 C2640 1.386 . S
C2641 C2645 1.393 . S
C2642 H2634 0.950 . S
C2642 C2640 1.391 . S
C2642 C2643 1.400 . S
C2643 C2642 1.400 . S
C2643 C2644 1.398 . S
C2643 C2649 1.491 . S
C2644 H2635 0.950 . S
C2644 C2643 1.398 . S
C2644 C2645 1.391 . S
C2645 H2633 0.950 . S
C2645 C2641 1.393 . S
C2645 C2644 1.391 . S
C2646 H2636 0.950 . S
C2646 C2647 1.386 . S
C2646 C2648 1.391 . S
C2647 C2646 1.386 . S
C2647 C2651 1.393 . S
C2648 H2637 0.950 . S
C2648 C2646 1.391 . S
C2648 C2649 1.400 . S
C2649 C2643 1.491 . S
C2649 C2648 1.400 . S
C2649 C2650 1.398 . S
C2650 H2638 0.950 . S
C2650 C2649 1.398 . S
C2650 C2651 1.391 . S
C2651 H2639 0.950 . S
C2651 C2647 1.393 . S
C2651 C2650 1.391 . S
H2652 C2660 0.950 . S
H2653 C2665 0.950 . S
H2654 C2662 0.950 . S
H2655 C2664 0.950 . S
H2656 C2666 0.950 . S
H2657 C2668 0.950 . S
H2658 C2670 0.950 . S
H2659 C2671 0.950 . S
C2660 H2652 0.950 . S
C2660 C2661 1.386 . S
C2660 C2662 1.391 . S
C2661 C2660 1.386 . S
C2661 C2665 1.393 . S
C2662 H2654 0.950 . S
C2662 C2660 1.391 . S
C2662 C2663 1.400 . S
C2663 C2662 1.400 . S
C2663 C2664 1.398 . S
C2663 C2669 1.491 . S
C2664 H2655 0.950 . S
C2664 C2663 1.398 . S
C2664 C2665 1.391 . S
C2665 H2653 0.950 . S
C2665 C2661 1.393 . S
C2665 C2664 1.391 . S
C2666 H2656 0.950 . S
C2666 C2667 1.386 . S
C2666 C2668 1.391 . S
C2667 C2666 1.386 . S
C2667 C2671 1.393 . S
C2668 H2657 0.950 . S
C2668 C2666 1.391 . S
C2668 C2669 1.400 . S
C2669 C2663 1.491 . S
C2669 C2668 1.400 . S
C2669 C2670 1.398 . S
C2670 H2658 0.950 . S
C2670 C2669 1.398 . S
C2670 C2671 1.391 . S
C2671 H2659 0.950 . S
C2671 C2667 1.393 . S
C2671 C2670 1.391 . S
H2672 C2680 0.950 . S
H2673 C2685 0.950 . S
H2674 C2682 0.950 . S
H2675 C2684 0.950 . S
H2676 C2686 0.950 . S
H2677 C2688 0.950 1_455 S
H2678 C2690 0.950 . S
H2679 C2691 0.950 . S
C2680 H2672 0.950 . S
C2680 C2681 1.386 . S
C2680 C2682 1.391 . S
C2681 C2680 1.386 . S
C2681 C2685 1.393 . S
C2682 H2674 0.950 . S
C2682 C2680 1.391 . S
C2682 C2683 1.400 . S
C2683 C2682 1.400 . S
C2683 C2684 1.398 . S
C2683 C2689 1.491 . S
C2684 H2675 0.950 . S
C2684 C2683 1.398 . S
C2684 C2685 1.391 . S
C2685 H2673 0.950 . S
C2685 C2681 1.393 . S
C2685 C2684 1.391 . S
C2686 H2676 0.950 . S
C2686 C2687 1.386 1_455 S
C2686 C2688 1.391 1_455 S
C2687 C2686 1.386 1_655 S
C2687 C2691 1.393 . S
C2688 H2677 0.950 1_655 S
C2688 C2686 1.391 1_655 S
C2688 C2689 1.400 . S
C2689 C2683 1.491 . S
C2689 C2688 1.400 . S
C2689 C2690 1.398 . S
C2690 H2678 0.950 . S
C2690 C2689 1.398 . S
C2690 C2691 1.391 . S
C2691 H2679 0.950 . S
C2691 C2687 1.393 . S
C2691 C2690 1.391 . S
H2692 C2700 0.950 . S
H2693 C2705 0.950 . S
H2694 C2702 0.950 . S
H2695 C2704 0.950 . S
H2696 C2706 0.950 . S
H2697 C2708 0.950 . S
H2698 C2710 0.950 . S
H2699 C2711 0.950 . S
C2700 H2692 0.950 . S
C2700 C2701 1.386 . S
C2700 C2702 1.391 . S
C2701 C2700 1.386 . S
C2701 C2705 1.393 . S
C2702 H2694 0.950 . S
C2702 C2700 1.391 . S
C2702 C2703 1.400 . S
C2703 C2702 1.400 . S
C2703 C2704 1.398 . S
C2703 C2709 1.491 . S
C2704 H2695 0.950 . S
C2704 C2703 1.398 . S
C2704 C2705 1.391 . S
C2705 H2693 0.950 . S
C2705 C2701 1.393 . S
C2705 C2704 1.391 . S
C2706 H2696 0.950 . S
C2706 C2707 1.386 . S
C2706 C2708 1.391 . S
C2707 C2706 1.386 . S
C2707 C2711 1.393 . S
C2708 H2697 0.950 . S
C2708 C2706 1.391 . S
C2708 C2709 1.400 . S
C2709 C2703 1.491 . S
C2709 C2708 1.400 . S
C2709 C2710 1.398 . S
C2710 H2698 0.950 . S
C2710 C2709 1.398 . S
C2710 C2711 1.391 . S
C2711 H2699 0.950 . S
C2711 C2707 1.393 . S
C2711 C2710 1.391 . S
H2712 C2720 0.950 . S
H2713 C2725 0.950 . S
H2714 C2722 0.950 . S
H2715 C2724 0.950 . S
H2716 C2726 0.950 . S
H2717 C2728 0.950 . S
H2718 C2730 0.950 . S
H2719 C2731 0.950 . S
C2720 H2712 0.950 . S
C2720 C2721 1.386 . S
C2720 C2722 1.391 . S
C2721 C2720 1.386 . S
C2721 C2725 1.393 . S
C2722 H2714 0.950 . S
C2722 C2720 1.391 . S
C2722 C2723 1.400 . S
C2723 C2722 1.400 . S
C2723 C2724 1.398 . S
C2723 C2729 1.491 . S
C2724 H2715 0.950 . S
C2724 C2723 1.398 . S
C2724 C2725 1.391 . S
C2725 H2713 0.950 . S
C2725 C2721 1.393 . S
C2725 C2724 1.391 . S
C2726 H2716 0.950 . S
C2726 C2727 1.386 . S
C2726 C2728 1.391 . S
C2727 C2726 1.386 . S
C2727 C2731 1.393 . S
C2728 H2717 0.950 . S
C2728 C2726 1.391 . S
C2728 C2729 1.400 . S
C2729 C2723 1.491 . S
C2729 C2728 1.400 . S
C2729 C2730 1.398 . S
C2730 H2718 0.950 . S
C2730 C2729 1.398 . S
C2730 C2731 1.391 . S
C2731 H2719 0.950 . S
C2731 C2727 1.393 . S
C2731 C2730 1.391 . S
H2732 C2740 0.950 . S
H2733 C2745 0.950 . S
H2734 C2742 0.950 . S
H2735 C2744 0.950 . S
H2736 C2746 0.950 . S
H2737 C2748 0.950 . S
H2738 C2750 0.949 . S
H2739 C2751 0.950 . S
C2740 H2732 0.950 . S
C2740 C2741 1.386 . S
C2740 C2742 1.391 . S
C2741 C2740 1.386 . S
C2741 C2745 1.393 . S
C2742 H2734 0.950 . S
C2742 C2740 1.391 . S
C2742 C2743 1.400 . S
C2743 C2742 1.400 . S
C2743 C2744 1.398 . S
C2743 C2749 1.491 . S
C2744 H2735 0.950 . S
C2744 C2743 1.398 . S
C2744 C2745 1.391 . S
C2745 H2733 0.950 . S
C2745 C2741 1.393 . S
C2745 C2744 1.391 . S
C2746 H2736 0.950 . S
C2746 C2747 1.386 1_565 S
C2746 C2748 1.391 . S
C2747 C2746 1.386 1_545 S
C2747 C2751 1.393 . S
C2748 H2737 0.950 . S
C2748 C2746 1.391 . S
C2748 C2749 1.400 . S
C2749 C2743 1.491 . S
C2749 C2748 1.400 . S
C2749 C2750 1.398 . S
C2750 H2738 0.949 . S
C2750 C2749 1.398 . S
C2750 C2751 1.391 1_565 S
C2751 H2739 0.950 . S
C2751 C2747 1.393 . S
C2751 C2750 1.391 1_545 S
H2752 C2760 0.950 . S
H2753 C2765 0.950 . S
H2754 C2762 0.950 . S
H2755 C2764 0.950 . S
H2756 C2766 0.950 . S
H2757 C2768 0.950 . S
H2758 C2770 0.950 . S
H2759 C2771 0.950 . S
C2760 H2752 0.950 . S
C2760 C2761 1.386 . S
C2760 C2762 1.391 . S
C2761 C2760 1.386 . S
C2761 C2765 1.393 . S
C2762 H2754 0.950 . S
C2762 C2760 1.391 . S
C2762 C2763 1.400 . S
C2763 C2762 1.400 . S
C2763 C2764 1.398 . S
C2763 C2769 1.491 . S
C2764 H2755 0.950 . S
C2764 C2763 1.398 . S
C2764 C2765 1.391 . S
C2765 H2753 0.950 . S
C2765 C2761 1.393 . S
C2765 C2764 1.391 . S
C2766 H2756 0.950 . S
C2766 C2767 1.386 . S
C2766 C2768 1.391 . S
C2767 C2766 1.386 . S
C2767 C2771 1.393 . S
C2768 H2757 0.950 . S
C2768 C2766 1.391 . S
C2768 C2769 1.400 . S
C2769 C2763 1.491 . S
C2769 C2768 1.400 . S
C2769 C2770 1.398 . S
C2770 H2758 0.950 . S
C2770 C2769 1.398 . S
C2770 C2771 1.391 . S
C2771 H2759 0.950 . S
C2771 C2767 1.393 . S
C2771 C2770 1.391 . S
H2772 C2780 0.950 . S
H2773 C2785 0.950 . S
H2774 C2782 0.950 . S
H2775 C2784 0.950 . S
H2776 C2786 0.950 . S
H2777 C2788 0.950 . S
H2778 C2790 0.950 . S
H2779 C2791 0.950 . S
C2780 H2772 0.950 . S
C2780 C2781 1.386 1_556 S
C2780 C2782 1.391 . S
C2781 C2780 1.386 1_554 S
C2781 C2785 1.393 . S
C2782 H2774 0.950 . S
C2782 C2780 1.391 . S
C2782 C2783 1.400 1_556 S
C2783 C2782 1.400 1_554 S
C2783 C2784 1.398 . S
C2783 C2789 1.491 . S
C2784 H2775 0.950 . S
C2784 C2783 1.398 . S
C2784 C2785 1.391 . S
C2785 H2773 0.950 . S
C2785 C2781 1.393 . S
C2785 C2784 1.391 . S
C2786 H2776 0.950 . S
C2786 C2787 1.386 . S
C2786 C2788 1.391 . S
C2787 C2786 1.386 . S
C2787 C2791 1.393 1_554 S
C2788 H2777 0.950 . S
C2788 C2786 1.391 . S
C2788 C2789 1.400 . S
C2789 C2783 1.491 . S
C2789 C2788 1.400 . S
C2789 C2790 1.398 1_554 S
C2790 H2778 0.950 . S
C2790 C2789 1.398 1_556 S
C2790 C2791 1.391 . S
C2791 H2779 0.950 . S
C2791 C2787 1.393 1_556 S
C2791 C2790 1.391 . S
H2792 C2800 0.950 . S
H2793 C2805 0.950 . S
H2794 C2802 0.950 . S
H2795 C2804 0.950 . S
H2796 C2806 0.950 . S
H2797 C2808 0.950 . S
H2798 C2810 0.950 . S
H2799 C2811 0.950 . S
C2800 H2792 0.950 . S
C2800 C2801 1.386 . S
C2800 C2802 1.391 . S
C2801 C2800 1.386 . S
C2801 C2805 1.393 . S
C2802 H2794 0.950 . S
C2802 C2800 1.391 . S
C2802 C2803 1.400 . S
C2803 C2802 1.400 . S
C2803 C2804 1.398 . S
C2803 C2809 1.491 . S
C2804 H2795 0.950 . S
C2804 C2803 1.398 . S
C2804 C2805 1.391 . S
C2805 H2793 0.950 . S
C2805 C2801 1.393 . S
C2805 C2804 1.391 . S
C2806 H2796 0.950 . S
C2806 C2807 1.386 . S
C2806 C2808 1.391 . S
C2807 C2806 1.386 . S
C2807 C2811 1.393 . S
C2808 H2797 0.950 . S
C2808 C2806 1.391 . S
C2808 C2809 1.400 . S
C2809 C2803 1.491 . S
C2809 C2808 1.400 . S
C2809 C2810 1.398 . S
C2810 H2798 0.950 . S
C2810 C2809 1.398 . S
C2810 C2811 1.391 . S
C2811 H2799 0.950 . S
C2811 C2807 1.393 . S
C2811 C2810 1.391 . S
H2812 C2820 0.950 . S
H2813 C2825 0.950 . S
H2814 C2822 0.950 . S
H2815 C2824 0.950 . S
H2816 C2826 0.950 . S
H2817 C2828 0.950 . S
H2818 C2830 0.950 1_554 S
H2819 C2831 0.950 . S
C2820 H2812 0.950 . S
C2820 C2821 1.386 . S
C2820 C2822 1.391 . S
C2821 C2820 1.386 . S
C2821 C2825 1.393 1_554 S
C2822 H2814 0.950 . S
C2822 C2820 1.391 . S
C2822 C2823 1.372 1_554 S
C2823 C2822 1.372 1_556 S
C2823 C2824 1.415 . S
C2823 C2829 1.502 . S
C2824 H2815 0.950 . S
C2824 C2823 1.415 . S
C2824 C2825 1.391 . S
C2825 H2813 0.950 . S
C2825 C2821 1.393 1_556 S
C2825 C2824 1.391 . S
C2826 H2816 0.950 . S
C2826 C2827 1.386 . S
C2826 C2828 1.391 . S
C2827 C2826 1.386 . S
C2827 C2831 1.393 . S
C2828 H2817 0.950 . S
C2828 C2826 1.391 . S
C2828 C2829 1.400 . S
C2829 C2823 1.502 . S
C2829 C2828 1.400 . S
C2829 C2830 1.398 . S
C2830 H2818 0.950 1_556 S
C2830 C2829 1.398 . S
C2830 C2831 1.391 . S
C2831 H2819 0.950 . S
C2831 C2827 1.393 . S
C2831 C2830 1.391 . S
H2832 C2840 0.950 . S
H2833 C2845 0.950 . S
H2834 C2842 0.950 . S
H2835 C2844 0.950 . S
H2836 C2846 0.950 . S
H2837 C2848 0.950 . S
H2838 C2850 0.950 . S
H2839 C2851 0.950 . S
C2840 H2832 0.950 . S
C2840 C2841 1.386 . S
C2840 C2842 1.391 . S
C2841 C2840 1.386 . S
C2841 C2845 1.393 . S
C2842 H2834 0.950 . S
C2842 C2840 1.391 . S
C2842 C2843 1.400 . S
C2843 C2842 1.400 . S
C2843 C2844 1.398 . S
C2843 C2849 1.491 . S
C2844 H2835 0.950 . S
C2844 C2843 1.398 . S
C2844 C2845 1.391 . S
C2845 H2833 0.950 . S
C2845 C2841 1.393 . S
C2845 C2844 1.391 . S
C2846 H2836 0.950 . S
C2846 C2847 1.386 . S
C2846 C2848 1.391 . S
C2847 C2846 1.386 . S
C2847 C2851 1.393 . S
C2848 H2837 0.950 . S
C2848 C2846 1.391 . S
C2848 C2849 1.400 . S
C2849 C2843 1.491 . S
C2849 C2848 1.400 . S
C2849 C2850 1.398 . S
C2850 H2838 0.950 . S
C2850 C2849 1.398 . S
C2850 C2851 1.391 . S
C2851 H2839 0.950 . S
C2851 C2847 1.393 . S
C2851 C2850 1.391 . S
H2852 C2860 0.950 . S
H2853 C2865 0.950 . S
H2854 C2862 0.950 . S
H2855 C2864 0.950 . S
H2856 C2866 0.950 . S
H2857 C2868 0.950 . S
H2858 C2870 0.950 . S
H2859 C2871 0.950 . S
C2860 H2852 0.950 . S
C2860 C2861 1.386 . S
C2860 C2862 1.391 . S
C2861 C2860 1.386 . S
C2861 C2865 1.393 . S
C2862 H2854 0.950 . S
C2862 C2860 1.391 . S
C2862 C2863 1.400 . S
C2863 C2862 1.400 . S
C2863 C2864 1.398 . S
C2863 C2869 1.491 . S
C2864 H2855 0.950 . S
C2864 C2863 1.398 . S
C2864 C2865 1.391 . S
C2865 H2853 0.950 . S
C2865 C2861 1.393 . S
C2865 C2864 1.391 . S
C2866 H2856 0.950 . S
C2866 C2867 1.386 . S
C2866 C2868 1.391 . S
C2867 C2866 1.386 . S
C2867 C2871 1.393 . S
C2868 H2857 0.950 . S
C2868 C2866 1.391 . S
C2868 C2869 1.400 . S
C2869 C2863 1.491 . S
C2869 C2868 1.400 . S
C2869 C2870 1.398 . S
C2870 H2858 0.950 . S
C2870 C2869 1.398 . S
C2870 C2871 1.391 . S
C2871 H2859 0.950 . S
C2871 C2867 1.393 . S
C2871 C2870 1.391 . S
C961 C101 2.323 . S
C967 C322 2.294 1_556 S
C981 C57 2.110 . S
C987 C370 2.136 . S
C1001 C73 1.265 . S
C1007 C402 1.273 . S
C1027 C447 1.341 . S
C1021 C78 1.300 . S
C1041 C21 1.269 . S
C1047 C487 1.301 . S
C1067 C518 0.482 . S
C1061 C31 0.493 . S
C1087 C570 1.356 . S
C1081 C49 1.326 . S
C1101 C0 1.674 . S
C1107 C602 1.714 . S
C1127 C330 2.487 . S
C1121 C218 2.496 . S
C1141 C229 0.568 . S
C1147 C367 0.546 . S
C1167 C410 1.294 . S
C1161 C257 1.299 . S
C1187 C442 1.344 . S
C1181 C164 1.297 . S
C1201 C216 1.779 . S
C1207 C482 1.858 . S
C1227 C521 1.441 . S
C1221 C231 1.455 . S
C1247 C567 0.413 . S
C1241 C255 0.465 . S
C1267 C610 2.060 . S
C1261 C166 2.095 . S
C1287 C327 1.439 1_565 S
C1281 C143 1.381 . S
C1301 C265 1.950 . S
C1307 C650 1.977 . S
C1327 C691 2.526 . S
C1321 C299 2.571 . S
C1347 C722 0.695 1_655 S
C1341 C291 0.696 . S
C1361 C104 1.298 . S
C1367 C607 1.344 . S
C1381 C117 1.458 . S
C1387 C407 1.511 . S
C1401 C304 2.181 . S
C1407 C770 2.202 . S
C1427 C802 0.453 . S
C1421 C278 0.437 . S
C1447 C331 2.258 . S
C1441 C60 2.298 . S
C1467 C801 2.050 . S
C1461 C96 2.051 . S
C1481 C88 1.194 . S
C1487 C411 1.161 . S
C1501 C65 1.289 . S
C1507 C758 1.287 . S
C1527 C478 1.284 . S
C1521 C10 1.313 . S
C1541 C44 0.478 . S
C1547 C687 0.422 . S
C1567 C561 1.252 1_556 S
C1561 C34 1.164 . S
C1587 C851 1.664 . S
C1581 C13 1.776 . S
C1607 C321 2.431 . S
C1601 C138 2.384 . S
C1627 C798 0.465 . S
C1621 C296 0.435 . S
C1641 C112 1.205 . S
C1647 C401 1.212 . S
C1661 C270 1.267 . S
C1667 C771 1.242 . S
C1681 C140 1.806 . S
C1687 C491 1.791 . S
C1707 C690 1.390 . S
C1701 C294 1.391 . S
C1721 C114 0.240 1_545 S
C1727 C558 0.407 . S
C1741 C268 2.006 . S
C1747 C841 2.009 . S
C1761 C169 1.468 . S
C1767 C318 1.438 . S
C1781 C161 1.903 . S
C1787 C641 1.907 . S
C1801 C234 2.539 . S
C1807 C522 2.481 . S
C1821 C226 0.554 . S
C1827 C731 0.562 . S
C1847 C838 1.366 . S
C1841 C247 1.443 . S
C1861 C195 1.538 . S
C1867 C398 1.489 . S
C1887 C441 2.119 . S
C1881 C239 2.116 . S
C1907 C371 0.528 . S
C1901 C187 0.321 . S
C1921 C75 2.325 . S
C1927 C882 2.304 . S
C1947 C810 2.131 . S
C1941 C83 2.095 . S
C1961 C99 1.247 . S
C1967 C922 1.286 . S
C1981 C52 1.300 . S
C1987 C767 1.341 . S
C2001 C47 1.261 . S
C2007 C647 1.308 . S
C2027 C678 0.481 . S
C2021 C5 0.491 . S
C2047 C730 1.372 . S
C2041 C23 1.348 . S
C2067 C842 1.711 . S
C2061 C26 1.681 . S
C2087 C890 2.484 . S
C2081 C244 2.498 . S
C2101 C177 0.491 . S
C2107 C807 0.481 . S
C2127 C930 1.284 . S
C2121 C192 1.302 . S
C2147 C762 1.336 . S
C2141 C203 1.308 . S
C2167 C642 1.861 . S
C2161 C242 1.789 . S
C2181 C179 1.463 . S
C2187 C681 1.428 . S
C2207 C727 0.414 . S
C2201 C190 0.474 . S
C2221 C205 2.095 . S
C2227 C850 2.071 . S
C2247 C887 1.455 . S
C2241 C286 1.389 . S
C2261 C122 1.942 . S
C2267 C490 1.977 . S
C2287 C531 2.532 . S
C2281 C130 2.576 . S
C2307 C562 0.691 . S
C2301 C148 0.735 . S
C2327 C847 1.328 . S
C2321 C273 1.274 . S
C2341 C260 1.482 . S
C2347 C927 1.527 . S
C2367 C450 2.202 . S
C2361 C135 2.176 . S
C2387 C362 0.526 . S
C2381 C109 0.423 . S
C2401 C86 2.289 . S
C2407 C891 2.267 . S
C2427 C361 2.045 . S
C2421 C70 2.047 . S
C2441 C62 1.195 . S
C2447 C931 1.150 . S
C2461 C91 1.286 . S
C2467 C438 1.289 . S
C2481 C36 1.313 . S
C2487 C638 1.281 . S
C2507 C527 0.455 . S
C2501 C18 0.437 . S
C2521 C8 1.151 . S
C2527 C721 1.249 . S
C2541 C39 1.768 . S
C2547 C611 1.672 . S
C2567 C881 2.429 . S
C2561 C307 2.386 . S
C2581 C153 0.459 . S
C2587 C358 0.488 . S
C2607 C921 1.215 . S
C2601 C281 1.191 . S
C2621 C127 1.265 . S
C2627 C451 1.247 . S
C2641 C309 1.806 . S
C2647 C651 1.793 . S
C2667 C530 1.397 . S
C2661 C151 1.397 . S
C2681 C283 0.252 . S
C2687 C718 0.410 . S
C2707 C601 2.015 . S
C2701 C125 2.015 . S
C2727 C878 1.414 . S
C2721 C221 1.462 . S
C2747 C481 1.901 1_655 S
C2741 C200 1.894 . S
C2761 C208 2.539 . S
C2767 C682 2.481 . S
C2787 C571 0.540 . S
C2781 C174 0.608 . S
C2801 C182 1.444 . S
C2807 C598 1.348 . S
C2821 C156 1.543 . S
C2827 C918 1.505 . S
C2847 C761 2.130 . S
C2841 C213 2.127 1_565 S
C2867 C811 0.524 . S
C2861 C252 0.321 . S
