# Generated by pormake.
# Topology gar, (4,6)-cn, num edge types: 1
# Building blocks:
#     Node 0, Type 0, BuildingBlock: QUQFOY_clean_sbu_3, # of connection points: 4
#     Node 1, Type 0, BuildingBlock: QUQFOY_clean_sbu_3, # of connection points: 4
#     Node 2, Type 0, BuildingBlock: QUQFOY_clean_sbu_3, # of connection points: 4
#     Node 3, Type 0, BuildingBlock: QUQFOY_clean_sbu_3, # of connection points: 4
#     Node 4, Type 0, BuildingBlock: QUQFOY_clean_sbu_3, # of connection points: 4
#     Node 5, Type 0, BuildingBlock: QUQFOY_clean_sbu_3, # of connection points: 4
#     Node 6, Type 0, BuildingBlock: QUQFOY_clean_sbu_3, # of connection points: 4
#     Node 7, Type 0, BuildingBlock: QUQFOY_clean_sbu_3, # of connection points: 4
#     Node 8, Type 0, BuildingBlock: QUQFOY_clean_sbu_3, # of connection points: 4
#     Node 9, Type 0, BuildingBlock: QUQFOY_clean_sbu_3, # of connection points: 4
#     Node 10, Type 0, BuildingBlock: QUQFOY_clean_sbu_3, # of connection points: 4
#     Node 11, Type 0, BuildingBlock: QUQFOY_clean_sbu_3, # of connection points: 4
#     Node 12, Type 0, BuildingBlock: QUQFOY_clean_sbu_3, # of connection points: 4
#     Node 13, Type 0, BuildingBlock: QUQFOY_clean_sbu_3, # of connection points: 4
#     Node 14, Type 0, BuildingBlock: QUQFOY_clean_sbu_3, # of connection points: 4
#     Node 15, Type 0, BuildingBlock: QUQFOY_clean_sbu_3, # of connection points: 4
#     Node 16, Type 0, BuildingBlock: QUQFOY_clean_sbu_3, # of connection points: 4
#     Node 17, Type 0, BuildingBlock: QUQFOY_clean_sbu_3, # of connection points: 4
#     Node 18, Type 0, BuildingBlock: QUQFOY_clean_sbu_3, # of connection points: 4
#     Node 19, Type 0, BuildingBlock: QUQFOY_clean_sbu_3, # of connection points: 4
#     Node 20, Type 0, BuildingBlock: QUQFOY_clean_sbu_3, # of connection points: 4
#     Node 21, Type 0, BuildingBlock: QUQFOY_clean_sbu_3, # of connection points: 4
#     Node 22, Type 0, BuildingBlock: QUQFOY_clean_sbu_3, # of connection points: 4
#     Node 23, Type 0, BuildingBlock: QUQFOY_clean_sbu_3, # of connection points: 4
#     Node 24, Type 1, BuildingBlock: KUMBUR_clean_sbu_0, # of connection points: 6
#     Node 25, Type 1, BuildingBlock: KUMBUR_clean_sbu_0, # of connection points: 6
#     Node 26, Type 1, BuildingBlock: KUMBUR_clean_sbu_0, # of connection points: 6
#     Node 27, Type 1, BuildingBlock: KUMBUR_clean_sbu_0, # of connection points: 6
#     Node 28, Type 1, BuildingBlock: KUMBUR_clean_sbu_0, # of connection points: 6
#     Node 29, Type 1, BuildingBlock: KUMBUR_clean_sbu_0, # of connection points: 6
#     Node 30, Type 1, BuildingBlock: KUMBUR_clean_sbu_0, # of connection points: 6
#     Node 31, Type 1, BuildingBlock: KUMBUR_clean_sbu_0, # of connection points: 6
#     Node 32, Type 1, BuildingBlock: KUMBUR_clean_sbu_0, # of connection points: 6
#     Node 33, Type 1, BuildingBlock: KUMBUR_clean_sbu_0, # of connection points: 6
#     Node 34, Type 1, BuildingBlock: KUMBUR_clean_sbu_0, # of connection points: 6
#     Node 35, Type 1, BuildingBlock: KUMBUR_clean_sbu_0, # of connection points: 6
#     Node 36, Type 1, BuildingBlock: KUMBUR_clean_sbu_0, # of connection points: 6
#     Node 37, Type 1, BuildingBlock: KUMBUR_clean_sbu_0, # of connection points: 6
#     Node 38, Type 1, BuildingBlock: KUMBUR_clean_sbu_0, # of connection points: 6
#     Node 39, Type 1, BuildingBlock: KUMBUR_clean_sbu_0, # of connection points: 6
#     Edge 40, Type (0, 1), BuildingBlock: KIFKEQ_clean_linker_1, # of connection points: 2
#     Edge 41, Type (0, 1), BuildingBlock: KIFKEQ_clean_linker_1, # of connection points: 2
#     Edge 42, Type (0, 1), BuildingBlock: KIFKEQ_clean_linker_1, # of connection points: 2
#     Edge 43, Type (0, 1), BuildingBlock: KIFKEQ_clean_linker_1, # of connection points: 2
#     Edge 44, Type (0, 1), BuildingBlock: KIFKEQ_clean_linker_1, # of connection points: 2
#     Edge 45, Type (0, 1), BuildingBlock: KIFKEQ_clean_linker_1, # of connection points: 2
#     Edge 46, Type (0, 1), BuildingBlock: KIFKEQ_clean_linker_1, # of connection points: 2
#     Edge 47, Type (0, 1), BuildingBlock: KIFKEQ_clean_linker_1, # of connection points: 2
#     Edge 48, Type (0, 1), BuildingBlock: KIFKEQ_clean_linker_1, # of connection points: 2
#     Edge 49, Type (0, 1), BuildingBlock: KIFKEQ_clean_linker_1, # of connection points: 2
#     Edge 50, Type (0, 1), BuildingBlock: KIFKEQ_clean_linker_1, # of connection points: 2
#     Edge 51, Type (0, 1), BuildingBlock: KIFKEQ_clean_linker_1, # of connection points: 2
#     Edge 52, Type (0, 1), BuildingBlock: KIFKEQ_clean_linker_1, # of connection points: 2
#     Edge 53, Type (0, 1), BuildingBlock: KIFKEQ_clean_linker_1, # of connection points: 2
#     Edge 54, Type (0, 1), BuildingBlock: KIFKEQ_clean_linker_1, # of connection points: 2
#     Edge 55, Type (0, 1), BuildingBlock: KIFKEQ_clean_linker_1, # of connection points: 2
#     Edge 56, Type (0, 1), BuildingBlock: KIFKEQ_clean_linker_1, # of connection points: 2
#     Edge 57, Type (0, 1), BuildingBlock: KIFKEQ_clean_linker_1, # of connection points: 2
#     Edge 58, Type (0, 1), BuildingBlock: KIFKEQ_clean_linker_1, # of connection points: 2
#     Edge 59, Type (0, 1), BuildingBlock: KIFKEQ_clean_linker_1, # of connection points: 2
#     Edge 60, Type (0, 1), BuildingBlock: KIFKEQ_clean_linker_1, # of connection points: 2
#     Edge 61, Type (0, 1), BuildingBlock: KIFKEQ_clean_linker_1, # of connection points: 2
#     Edge 62, Type (0, 1), BuildingBlock: KIFKEQ_clean_linker_1, # of connection points: 2
#     Edge 63, Type (0, 1), BuildingBlock: KIFKEQ_clean_linker_1, # of connection points: 2
#     Edge 64, Type (0, 1), BuildingBlock: KIFKEQ_clean_linker_1, # of connection points: 2
#     Edge 65, Type (0, 1), BuildingBlock: KIFKEQ_clean_linker_1, # of connection points: 2
#     Edge 66, Type (0, 1), BuildingBlock: KIFKEQ_clean_linker_1, # of connection points: 2
#     Edge 67, Type (0, 1), BuildingBlock: KIFKEQ_clean_linker_1, # of connection points: 2
#     Edge 68, Type (0, 1), BuildingBlock: KIFKEQ_clean_linker_1, # of connection points: 2
#     Edge 69, Type (0, 1), BuildingBlock: KIFKEQ_clean_linker_1, # of connection points: 2
#     Edge 70, Type (0, 1), BuildingBlock: KIFKEQ_clean_linker_1, # of connection points: 2
#     Edge 71, Type (0, 1), BuildingBlock: KIFKEQ_clean_linker_1, # of connection points: 2
#     Edge 72, Type (0, 1), BuildingBlock: KIFKEQ_clean_linker_1, # of connection points: 2
#     Edge 73, Type (0, 1), BuildingBlock: KIFKEQ_clean_linker_1, # of connection points: 2
#     Edge 74, Type (0, 1), BuildingBlock: KIFKEQ_clean_linker_1, # of connection points: 2
#     Edge 75, Type (0, 1), BuildingBlock: KIFKEQ_clean_linker_1, # of connection points: 2
#     Edge 76, Type (0, 1), BuildingBlock: KIFKEQ_clean_linker_1, # of connection points: 2
#     Edge 77, Type (0, 1), BuildingBlock: KIFKEQ_clean_linker_1, # of connection points: 2
#     Edge 78, Type (0, 1), BuildingBlock: KIFKEQ_clean_linker_1, # of connection points: 2
#     Edge 79, Type (0, 1), BuildingBlock: KIFKEQ_clean_linker_1, # of connection points: 2
#     Edge 80, Type (0, 1), BuildingBlock: KIFKEQ_clean_linker_1, # of connection points: 2
#     Edge 81, Type (0, 1), BuildingBlock: KIFKEQ_clean_linker_1, # of connection points: 2
#     Edge 82, Type (0, 1), BuildingBlock: KIFKEQ_clean_linker_1, # of connection points: 2
#     Edge 83, Type (0, 1), BuildingBlock: KIFKEQ_clean_linker_1, # of connection points: 2
#     Edge 84, Type (0, 1), BuildingBlock: KIFKEQ_clean_linker_1, # of connection points: 2
#     Edge 85, Type (0, 1), BuildingBlock: KIFKEQ_clean_linker_1, # of connection points: 2
#     Edge 86, Type (0, 1), BuildingBlock: KIFKEQ_clean_linker_1, # of connection points: 2
#     Edge 87, Type (0, 1), BuildingBlock: KIFKEQ_clean_linker_1, # of connection points: 2
#     Edge 88, Type (0, 1), BuildingBlock: KIFKEQ_clean_linker_1, # of connection points: 2
#     Edge 89, Type (0, 1), BuildingBlock: KIFKEQ_clean_linker_1, # of connection points: 2
#     Edge 90, Type (0, 1), BuildingBlock: KIFKEQ_clean_linker_1, # of connection points: 2
#     Edge 91, Type (0, 1), BuildingBlock: KIFKEQ_clean_linker_1, # of connection points: 2
#     Edge 92, Type (0, 1), BuildingBlock: KIFKEQ_clean_linker_1, # of connection points: 2
#     Edge 93, Type (0, 1), BuildingBlock: KIFKEQ_clean_linker_1, # of connection points: 2
#     Edge 94, Type (0, 1), BuildingBlock: KIFKEQ_clean_linker_1, # of connection points: 2
#     Edge 95, Type (0, 1), BuildingBlock: KIFKEQ_clean_linker_1, # of connection points: 2
#     Edge 96, Type (0, 1), BuildingBlock: KIFKEQ_clean_linker_1, # of connection points: 2
#     Edge 97, Type (0, 1), BuildingBlock: KIFKEQ_clean_linker_1, # of connection points: 2
#     Edge 98, Type (0, 1), BuildingBlock: KIFKEQ_clean_linker_1, # of connection points: 2
#     Edge 99, Type (0, 1), BuildingBlock: KIFKEQ_clean_linker_1, # of connection points: 2
#     Edge 100, Type (0, 1), BuildingBlock: KIFKEQ_clean_linker_1, # of connection points: 2
#     Edge 101, Type (0, 1), BuildingBlock: KIFKEQ_clean_linker_1, # of connection points: 2
#     Edge 102, Type (0, 1), BuildingBlock: KIFKEQ_clean_linker_1, # of connection points: 2
#     Edge 103, Type (0, 1), BuildingBlock: KIFKEQ_clean_linker_1, # of connection points: 2
#     Edge 104, Type (0, 1), BuildingBlock: KIFKEQ_clean_linker_1, # of connection points: 2
#     Edge 105, Type (0, 1), BuildingBlock: KIFKEQ_clean_linker_1, # of connection points: 2
#     Edge 106, Type (0, 1), BuildingBlock: KIFKEQ_clean_linker_1, # of connection points: 2
#     Edge 107, Type (0, 1), BuildingBlock: KIFKEQ_clean_linker_1, # of connection points: 2
#     Edge 108, Type (0, 1), BuildingBlock: KIFKEQ_clean_linker_1, # of connection points: 2
#     Edge 109, Type (0, 1), BuildingBlock: KIFKEQ_clean_linker_1, # of connection points: 2
#     Edge 110, Type (0, 1), BuildingBlock: KIFKEQ_clean_linker_1, # of connection points: 2
#     Edge 111, Type (0, 1), BuildingBlock: KIFKEQ_clean_linker_1, # of connection points: 2
#     Edge 112, Type (0, 1), BuildingBlock: KIFKEQ_clean_linker_1, # of connection points: 2
#     Edge 113, Type (0, 1), BuildingBlock: KIFKEQ_clean_linker_1, # of connection points: 2
#     Edge 114, Type (0, 1), BuildingBlock: KIFKEQ_clean_linker_1, # of connection points: 2
#     Edge 115, Type (0, 1), BuildingBlock: KIFKEQ_clean_linker_1, # of connection points: 2
#     Edge 116, Type (0, 1), BuildingBlock: KIFKEQ_clean_linker_1, # of connection points: 2
#     Edge 117, Type (0, 1), BuildingBlock: KIFKEQ_clean_linker_1, # of connection points: 2
#     Edge 118, Type (0, 1), BuildingBlock: KIFKEQ_clean_linker_1, # of connection points: 2
#     Edge 119, Type (0, 1), BuildingBlock: KIFKEQ_clean_linker_1, # of connection points: 2
#     Edge 120, Type (0, 1), BuildingBlock: KIFKEQ_clean_linker_1, # of connection points: 2
#     Edge 121, Type (0, 1), BuildingBlock: KIFKEQ_clean_linker_1, # of connection points: 2
#     Edge 122, Type (0, 1), BuildingBlock: KIFKEQ_clean_linker_1, # of connection points: 2
#     Edge 123, Type (0, 1), BuildingBlock: KIFKEQ_clean_linker_1, # of connection points: 2
#     Edge 124, Type (0, 1), BuildingBlock: KIFKEQ_clean_linker_1, # of connection points: 2
#     Edge 125, Type (0, 1), BuildingBlock: KIFKEQ_clean_linker_1, # of connection points: 2
#     Edge 126, Type (0, 1), BuildingBlock: KIFKEQ_clean_linker_1, # of connection points: 2
#     Edge 127, Type (0, 1), BuildingBlock: KIFKEQ_clean_linker_1, # of connection points: 2
#     Edge 128, Type (0, 1), BuildingBlock: KIFKEQ_clean_linker_1, # of connection points: 2
#     Edge 129, Type (0, 1), BuildingBlock: KIFKEQ_clean_linker_1, # of connection points: 2
#     Edge 130, Type (0, 1), BuildingBlock: KIFKEQ_clean_linker_1, # of connection points: 2
#     Edge 131, Type (0, 1), BuildingBlock: KIFKEQ_clean_linker_1, # of connection points: 2
#     Edge 132, Type (0, 1), BuildingBlock: KIFKEQ_clean_linker_1, # of connection points: 2
#     Edge 133, Type (0, 1), BuildingBlock: KIFKEQ_clean_linker_1, # of connection points: 2
#     Edge 134, Type (0, 1), BuildingBlock: KIFKEQ_clean_linker_1, # of connection points: 2
#     Edge 135, Type (0, 1), BuildingBlock: KIFKEQ_clean_linker_1, # of connection points: 2
# Relax obj value: 0.120
# Max RMSD: 0.326
# Mean RMSD: 0.148
data_MOF--net-gar--node1-QUQFOY_clean_sbu_3--node2-KUMBUR_clean_sbu_0--edge1-KIFKEQ_clean_linker_1
_symmetry_space_group_name_H-M    P1
_symmetry_Int_Tables_number       1
_symmetry_cell_setting            triclinic
loop_
_symmetry_equiv_pos_as_xyz
'x, y, z'
_cell_length_a     62.247955
_cell_length_b     58.372924
_cell_length_c     57.882987
_cell_angle_alpha  101.26748
_cell_angle_beta   93.393734
_cell_angle_gamma 102.36796
loop_
_atom_site_label
_atom_site_type_symbol
_atom_site_fract_x
_atom_site_fract_y
_atom_site_fract_z
_atom_type_partial_charge
C0 C 0.07334 0.30691 0.33327 0.0
O1 O 0.08841 0.31827 0.32312 0.0
Cd2 Cd 0.12483 0.33902 0.33901 0.0
O3 O 0.07718 0.30394 0.35432 0.0
Cd4 Cd 0.10979 0.31328 0.38522 0.0
C5 C 0.11 0.37269 0.38885 0.0
O6 O 0.13542 0.30959 0.35682 0.0
O7 O 0.15121 0.32215 0.39234 0.0
O8 O 0.0984 0.2745 0.39675 0.0
C9 C 0.15319 0.31671 0.3704 0.0
O10 O 0.11727 0.37182 0.36864 0.0
C11 C 0.09847 0.28361 0.41862 0.0
O12 O 0.10605 0.35424 0.39796 0.0
O13 O 0.10371 0.30637 0.42476 0.0
C14 C 0.98268 0.76928 0.71223 0.0
O15 O 0.99579 0.76029 0.72344 0.0
Cd16 Cd 0.03362 0.75941 0.71903 0.0
O17 O 0.98833 0.7787 0.69472 0.0
Cd18 Cd 0.02066 0.78287 0.67149 0.0
C19 C 0.02399 0.72358 0.66352 0.0
O20 O 0.04763 0.79467 0.70546 0.0
O21 O 0.0611 0.79126 0.67215 0.0
O22 O 0.0168 0.81868 0.65697 0.0
C23 C 0.06454 0.79443 0.69444 0.0
O24 O 0.03148 0.7268 0.68516 0.0
C25 C 0.01478 0.80829 0.6352 0.0
O26 O 0.01766 0.74016 0.65545 0.0
O27 O 0.01437 0.78601 0.63063 0.0
C28 C 0.57136 0.8108 0.84171 0.0
O29 O 0.58555 0.81823 0.82833 0.0
Cd30 Cd 0.62413 0.83319 0.83962 0.0
O31 O 0.57731 0.80804 0.8623 0.0
Cd32 Cd 0.61169 0.81109 0.88823 0.0
C33 C 0.61855 0.87124 0.89162 0.0
O34 O 0.63399 0.803 0.85704 0.0
O35 O 0.65241 0.81676 0.89136 0.0
O36 O 0.59872 0.77298 0.90032 0.0
C37 C 0.65261 0.80959 0.86925 0.0
O38 O 0.62346 0.86865 0.87032 0.0
C39 C 0.60078 0.78232 0.92235 0.0
O40 O 0.61363 0.85337 0.90145 0.0
O41 O 0.60771 0.80498 0.92836 0.0
C42 C 0.47468 0.26166 0.20259 0.0
O43 O 0.48672 0.2527 0.21514 0.0
Cd44 Cd 0.52503 0.25268 0.21458 0.0
O45 O 0.4822 0.27171 0.18606 0.0
Cd46 Cd 0.51751 0.27678 0.16733 0.0
C47 C 0.51868 0.21703 0.15943 0.0
O48 O 0.54065 0.28973 0.20443 0.0
O49 O 0.55838 0.28664 0.17378 0.0
O50 O 0.51389 0.31246 0.15226 0.0
C51 C 0.55912 0.29138 0.19616 0.0
O52 O 0.52431 0.21976 0.18148 0.0
C53 C 0.51522 0.30292 0.1308 0.0
O54 O 0.51435 0.23423 0.15086 0.0
O55 O 0.51668 0.28117 0.1265 0.0
C56 C 0.06281 0.80256 0.15729 0.0
O57 O 0.07513 0.79264 0.16837 0.0
Cd58 Cd 0.11217 0.79017 0.16272 0.0
O59 O 0.06966 0.81262 0.14042 0.0
Cd60 Cd 0.10411 0.81971 0.11796 0.0
C61 C 0.10095 0.75714 0.10436 0.0
O62 O 0.12897 0.82739 0.1546 0.0
O63 O 0.14605 0.82433 0.12369 0.0
O64 O 0.09338 0.85904 0.11795 0.0
C65 C 0.14717 0.82709 0.14608 0.0
O66 O 0.10752 0.76016 0.12624 0.0
C67 C 0.09693 0.86114 0.09698 0.0
O68 O 0.0964 0.77464 0.09593 0.0
O69 O 0.10414 0.84412 0.085 0.0
C70 C 0.48049 0.76543 0.38849 0.0
O71 O 0.49425 0.77578 0.37632 0.0
Cd72 Cd 0.53309 0.78958 0.38429 0.0
O73 O 0.48718 0.75939 0.40748 0.0
Cd74 Cd 0.5264 0.7614 0.4297 0.0
C75 C 0.53626 0.8247 0.44154 0.0
O76 O 0.54506 0.75683 0.39373 0.0
O77 O 0.56745 0.77041 0.42532 0.0
O78 O 0.5204 0.7172 0.43038 0.0
C79 C 0.56489 0.7632 0.40297 0.0
O80 O 0.53835 0.82162 0.41945 0.0
C81 C 0.52562 0.71904 0.45233 0.0
O82 O 0.5308 0.80638 0.45109 0.0
O83 O 0.52971 0.74041 0.4647 0.0
C84 C 0.56521 0.3067 0.65975 0.0
O85 O 0.5779 0.29714 0.67079 0.0
Cd86 Cd 0.61398 0.29253 0.66299 0.0
O87 O 0.57138 0.31597 0.64216 0.0
Cd88 Cd 0.60521 0.32237 0.61828 0.0
C89 C 0.59825 0.25882 0.60506 0.0
O90 O 0.63153 0.32897 0.65354 0.0
O91 O 0.64715 0.32608 0.62161 0.0
O92 O 0.59797 0.36378 0.6193 0.0
C93 C 0.64922 0.32848 0.64398 0.0
O94 O 0.60463 0.26157 0.62695 0.0
C95 C 0.59839 0.3641 0.59743 0.0
O96 O 0.59616 0.27702 0.59629 0.0
O97 O 0.60218 0.34523 0.58467 0.0
C98 C 0.98195 0.26387 0.88655 0.0
O99 O 0.99589 0.27408 0.8745 0.0
Cd100 Cd 0.03381 0.29005 0.88665 0.0
O101 O 0.98834 0.25881 0.90619 0.0
Cd102 Cd 0.02714 0.26174 0.92991 0.0
C103 C 0.03181 0.32378 0.94323 0.0
O104 O 0.04759 0.25758 0.89523 0.0
O105 O 0.06833 0.275 0.9274 0.0
O106 O 0.02404 0.21803 0.92977 0.0
C107 C 0.06699 0.26575 0.90546 0.0
O108 O 0.03395 0.32177 0.92123 0.0
C109 C 0.02708 0.21917 0.95188 0.0
O110 O 0.02902 0.30517 0.95248 0.0
O111 O 0.02873 0.23996 0.96481 0.0
C112 C 0.45613 0.05899 0.34534 0.0
O113 O 0.46984 0.05021 0.33314 0.0
Cd114 Cd 0.4631 0.0288 0.29349 0.0
O115 O 0.43685 0.05868 0.33622 0.0
Cd116 Cd 0.41738 0.0476 0.29481 0.0
C117 C 0.41291 0.98917 0.29569 0.0
O118 O 0.4494 0.05513 0.27388 0.0
O119 O 0.42076 0.03188 0.25255 0.0
O120 O 0.40976 0.08721 0.29817 0.0
C121 C 0.44072 0.04317 0.25367 0.0
O122 O 0.43354 0.99343 0.29331 0.0
C123 C 0.38946 0.07992 0.29029 0.0
O124 O 0.40248 1.00595 0.29787 0.0
O125 O 0.38159 0.05736 0.28588 0.0
C126 C 0.32741 0.14083 0.51464 0.0
O127 O 0.31039 0.12775 0.52036 0.0
Cd128 Cd 0.27652 0.13867 0.527 0.0
O129 O 0.32682 0.16111 0.50952 0.0
Cd130 Cd 0.29665 0.18397 0.50339 0.0
C131 C 0.29531 0.19602 0.5632 0.0
O132 O 0.26631 0.14859 0.49097 0.0
O133 O 0.25601 0.18158 0.50046 0.0
O134 O 0.30909 0.1876 0.46439 0.0
C135 C 0.25053 0.15907 0.49258 0.0
O136 O 0.28643 0.17368 0.55989 0.0
C137 C 0.30865 0.2095 0.46605 0.0
O138 O 0.30136 0.20558 0.54587 0.0
O139 O 0.30365 0.22017 0.48562 0.0
C140 C 0.14689 0.01804 0.81877 0.0
O141 O 0.13675 0.0287 0.80611 0.0
Cd142 Cd 0.14778 0.03656 0.76785 0.0
O143 O 0.16294 0.00921 0.80991 0.0
Cd144 Cd 0.18235 1.0047 0.76618 0.0
C145 C 0.20172 0.06959 0.77331 0.0
O146 O 0.14685 1.00247 0.73595 0.0
O147 O 0.1776 0.01052 0.72203 0.0
O148 O 0.18628 0.95953 0.76737 0.0
C149 C 0.15671 1.00728 0.71813 0.0
O150 O 0.18111 0.06873 0.76996 0.0
C151 C 0.2066 0.9608 0.76416 0.0
O152 O 0.20795 0.0501 0.77496 0.0
O153 O 0.21614 0.98164 0.76144 0.0
C154 C 0.36388 0.97078 0.99944 0.0
O155 O 0.35311 0.98215 0.98828 0.0
Cd156 Cd 0.3138 0.97666 0.98719 0.0
O157 O 0.35408 0.95615 0.01124 0.0
Cd158 Cd 0.31647 0.94048 0.02066 0.0
C159 C 0.30078 0.91725 0.96197 0.0
O160 O 0.30776 0.97949 0.02847 0.0
O161 O 0.28075 0.94983 0.02976 0.0
O162 O 0.33367 0.93447 0.05753 0.0
C163 C 0.28819 0.97235 0.0332 0.0
O164 O 0.30006 0.93808 0.9589 0.0
C165 C 0.32289 0.9128 0.05453 0.0
O166 O 0.30674 0.91422 0.98227 0.0
O167 O 0.30885 0.90471 0.03638 0.0
C168 C 0.36659 0.43875 0.03948 0.0
O169 O 0.35567 0.45012 0.02851 0.0
Cd170 Cd 0.31765 0.43864 0.01451 0.0
O171 O 0.35714 0.41911 0.04505 0.0
Cd172 Cd 0.31792 0.39374 0.04292 0.0
C173 C 0.31502 0.38032 0.98236 0.0
O174 O 0.30307 0.42894 0.04861 0.0
O175 O 0.27774 0.39663 0.03989 0.0
O176 O 0.32953 0.39156 0.08363 0.0
C177 C 0.28268 0.41939 0.04499 0.0
O178 O 0.31364 0.40207 0.98414 0.0
C179 C 0.3192 0.37005 0.08251 0.0
O180 O 0.31811 0.37202 1.00086 0.0
O181 O 0.30863 0.35888 0.06261 0.0
C182 C 0.81903 0.08377 0.01873 0.0
O183 O 0.80448 0.07557 0.03131 0.0
Cd184 Cd 0.77694 0.09493 0.04691 0.0
O185 O 0.82007 0.10416 0.01345 0.0
Cd186 Cd 0.79751 0.13476 0.02078 0.0
C187 C 0.8048 0.14969 0.07995 0.0
O188 O 0.76119 0.10772 0.01449 0.0
O189 O 0.76275 0.14412 0.03253 0.0
O190 O 0.79578 0.14353 0.98132 0.0
C191 C 0.75102 0.12371 0.02234 0.0
O192 O 0.79193 0.12943 0.0795 0.0
C193 C 0.80509 0.16563 0.98823 0.0
O194 O 0.81137 0.15529 0.06098 0.0
O195 O 0.81228 0.17287 0.00998 0.0
C196 C 0.14851 0.54049 0.29048 0.0
O197 O 0.13544 0.54283 0.27388 0.0
Cd198 Cd 0.14674 0.54622 0.23612 0.0
O199 O 0.16736 0.53615 0.28661 0.0
Cd200 Cd 0.189 0.52583 0.25259 0.0
C201 C 0.19849 0.58538 0.25442 0.0
O202 O 0.15807 0.51004 0.22294 0.0
O203 O 0.18906 0.51877 0.20862 0.0
O204 O 0.19254 0.48927 0.26538 0.0
C205 C 0.16827 0.51054 0.20476 0.0
O206 O 0.17819 0.58148 0.24646 0.0
C207 C 0.21354 0.4945 0.26826 0.0
O208 O 0.20701 0.5683 0.25825 0.0
O209 O 0.22326 0.51409 0.26318 0.0
C210 C 0.86703 0.93905 0.54315 0.0
O211 O 0.85645 0.95201 0.5341 0.0
Cd212 Cd 0.82006 0.93707 0.51538 0.0
O213 O 0.8574 0.91813 0.54565 0.0
Cd214 Cd 0.8179 0.89289 0.5418 0.0
C215 C 0.82348 0.88057 0.48318 0.0
O216 O 0.79946 0.92603 0.54612 0.0
O217 O 0.7781 0.89184 0.5304 0.0
O218 O 0.82543 0.89255 0.58384 0.0
C219 C 0.78013 0.91417 0.53808 0.0
O220 O 0.82294 0.90253 0.4848 0.0
C221 C 0.81729 0.87038 0.58239 0.0
O222 O 0.82194 0.87109 0.5013 0.0
O223 O 0.80949 0.85808 0.56179 0.0
C224 C 0.97787 0.06604 0.32547 0.0
O225 O 0.98684 0.05477 0.30919 0.0
Cd226 Cd 0.97266 0.04516 0.26789 0.0
O227 O 0.96173 0.07533 0.31887 0.0
Cd228 Cd 0.93967 0.077 0.27367 0.0
C229 C 0.91955 0.01215 0.26683 0.0
O230 O 0.97341 0.07788 0.24722 0.0
O231 O 0.94212 0.0648 0.22712 0.0
O232 O 0.93576 0.12297 0.27704 0.0
C233 C 0.96297 0.07094 0.22652 0.0
O234 O 0.93963 0.01234 0.26356 0.0
C235 C 0.91487 0.12058 0.27688 0.0
O236 O 0.91381 0.03248 0.27136 0.0
O237 O 0.90499 0.09879 0.2759 0.0
C238 C 0.33489 0.61192 0.5029 0.0
O239 O 0.32246 0.59949 0.5147 0.0
Cd240 Cd 0.29108 0.61104 0.53085 0.0
O241 O 0.33032 0.63088 0.49818 0.0
Cd242 Cd 0.29859 0.65057 0.50511 0.0
C243 C 0.31015 0.66828 0.56367 0.0
O244 O 0.26673 0.61575 0.49924 0.0
O245 O 0.26171 0.64956 0.51806 0.0
O246 O 0.29387 0.65604 0.46448 0.0
C247 C 0.25333 0.62811 0.50729 0.0
O248 O 0.302 0.6463 0.56358 0.0
C249 C 0.29642 0.67864 0.47023 0.0
O250 O 0.31262 0.67513 0.54427 0.0
O251 O 0.30119 0.68825 0.49208 0.0
C252 C 0.47648 0.56255 0.82517 0.0
O253 O 0.48542 0.55107 0.809 0.0
Cd254 Cd 0.47127 0.54009 0.76779 0.0
O255 O 0.46023 0.57168 0.81852 0.0
Cd256 Cd 0.43792 0.57306 0.77339 0.0
C257 C 0.41777 0.50858 0.76827 0.0
O258 O 0.47174 0.57312 0.74749 0.0
O259 O 0.44056 0.56122 0.72702 0.0
O260 O 0.43347 0.61884 0.77724 0.0
C261 C 0.46146 0.56664 0.72671 0.0
O262 O 0.43787 0.50806 0.76587 0.0
C263 C 0.41245 0.61589 0.77584 0.0
O264 O 0.41222 0.52899 0.77129 0.0
O265 O 0.40279 0.59388 0.77401 0.0
C266 C 0.65272 0.04794 0.75857 0.0
O267 O 0.64576 0.0512 0.73868 0.0
Cd268 Cd 0.66339 0.04448 0.70389 0.0
O269 O 0.67018 0.04004 0.76094 0.0
Cd270 Cd 0.69876 0.02677 0.73611 0.0
C271 C 0.71351 0.08358 0.72711 0.0
O272 O 0.67112 1.0064 0.70433 0.0
O273 O 0.70363 0.01181 0.69342 0.0
O274 O 0.69884 0.99757 0.76123 0.0
C275 C 0.6831 1.00287 0.68784 0.0
O276 O 0.69593 0.07812 0.7128 0.0
C277 C 0.71946 0.99865 0.76198 0.0
O278 O 0.71819 0.06864 0.73887 0.0
O279 O 0.7306 0.01289 0.75073 0.0
C280 C 0.82116 0.64621 0.02296 0.0
O281 O 0.80358 0.6365 0.03071 0.0
Cd282 Cd 0.76869 0.6463 0.02999 0.0
O283 O 0.82166 0.66425 0.01326 0.0
Cd284 Cd 0.79308 0.68817 0.00459 0.0
C285 C 0.78485 0.70442 0.06313 0.0
O286 O 0.76302 0.65275 0.99144 0.0
O287 O 0.75232 0.68559 0.99827 0.0
O288 O 0.80758 0.69094 0.96617 0.0
C289 C 0.74716 0.663 0.9909 0.0
O290 O 0.7734 0.68297 0.05999 0.0
C291 C 0.80722 0.71276 0.96706 0.0
O292 O 0.79579 0.71137 0.04673 0.0
O293 O 0.80148 0.7238 0.98603 0.0
C294 C 0.96715 0.5537 0.83143 0.0
O295 O 0.97767 0.54408 0.8156 0.0
Cd296 Cd 0.96683 0.52933 0.77466 0.0
O297 O 0.94799 0.55713 0.82618 0.0
Cd298 Cd 0.92344 0.55078 0.78798 0.0
C299 C 0.91675 0.49028 0.77668 0.0
O300 O 0.95276 0.56053 0.76413 0.0
O301 O 0.92192 0.54194 0.74398 0.0
O302 O 0.91479 0.59028 0.79695 0.0
C303 C 0.94203 0.55217 0.74397 0.0
O304 O 0.93649 0.49402 0.77103 0.0
C305 C 0.894 0.58253 0.79229 0.0
O306 O 0.90822 0.50774 0.78513 0.0
O307 O 0.88678 0.55988 0.78746 0.0
C308 C 0.86453 0.48395 0.52147 0.0
O309 O 0.85271 0.496 0.5127 0.0
Cd310 Cd 0.81323 0.48131 0.50574 0.0
O311 O 0.85548 0.46547 0.52896 0.0
Cd312 Cd 0.8179 0.44326 0.53373 0.0
C313 C 0.81119 0.42464 0.47449 0.0
O314 O 0.79842 0.47563 0.54246 0.0
O315 O 0.77787 0.43969 0.53163 0.0
O316 O 0.8297 0.44136 0.57415 0.0
C317 C 0.77934 0.46177 0.54021 0.0
O318 O 0.80799 0.44534 0.4738 0.0
C319 C 0.82523 0.41859 0.57023 0.0
O320 O 0.81583 0.41939 0.4942 0.0
O321 O 0.81721 0.40737 0.5494 0.0
C322 C 0.64678 0.52327 0.31783 0.0
O323 O 0.63843 0.53513 0.30495 0.0
Cd324 Cd 0.64906 0.54158 0.26635 0.0
O325 O 0.66211 0.51282 0.30952 0.0
Cd326 Cd 0.68343 0.50859 0.2671 0.0
C327 C 0.70319 0.57361 0.27203 0.0
O328 O 0.64869 0.50627 0.23637 0.0
O329 O 0.67961 0.51393 0.22262 0.0
O330 O 0.6884 0.4625 0.25877 0.0
C331 C 0.6587 0.51059 0.2185 0.0
O332 O 0.68269 0.57306 0.26826 0.0
C333 C 0.70866 0.46563 0.26665 0.0
O334 O 0.70906 0.55408 0.2743 0.0
O335 O 0.7177 0.48787 0.27431 0.0
Tb336 Tb 0.03578 0.01888 0.01099 0.0
C337 C 0.09173 0.11257 0.07211 0.0
C338 C 0.09484 0.14102 0.04659 0.0
C339 C 0.0973 0.15519 0.08921 0.0
C340 C 0.09133 0.11716 0.04972 0.0
C341 C 0.09541 0.13156 0.09221 0.0
C342 C 0.09704 0.15992 0.0664 0.0
C343 C 0.0982 0.10291 0.11651 0.0
N344 N 0.09045 0.08962 0.07418 0.0
C345 C 0.0947 0.08476 0.09602 0.0
C346 C 0.09814 0.12637 0.11463 0.0
Tb347 Tb 0.08432 0.06074 0.03968 0.0
N348 N 0.08957 0.09841 0.03116 0.0
C349 C 0.09345 0.10278 0.00917 0.0
C350 C 0.09714 0.14527 0.02383 0.0
C351 C 0.09688 0.12609 0.00512 0.0
H352 H 0.09474 0.06672 0.09782 0.0
H353 H 0.09921 0.12921 0.98751 0.0
H354 H 0.09943 0.17832 0.06433 0.0
H355 H 0.10093 0.09879 0.13372 0.0
H356 H 0.09327 0.08839 0.99431 0.0
H357 H 0.02206 0.9508 0.06362 0.0
H358 H 0.09985 0.16331 0.02066 0.0
H359 H 0.02386 0.01188 0.95302 0.0
H360 H 0.02669 0.99141 0.05634 0.0
H361 H 0.01798 0.97954 0.91731 0.0
H362 H 0.09987 0.17 0.10441 0.0
H363 H 0.0232 0.91687 0.03097 0.0
H364 H 0.02446 0.90174 0.98745 0.0
H365 H 0.10102 0.14044 0.13051 0.0
H366 H 0.02332 0.90962 0.94719 0.0
N367 N 0.03149 0.98139 0.01981 0.0
C368 C 0.02728 0.97704 0.04173 0.0
C369 C 0.02537 0.9348 0.02762 0.0
C370 C 0.02781 0.93895 0.00484 0.0
C371 C 0.0246 0.95387 0.04604 0.0
C372 C 0.0306 0.96268 1.00147 0.0
H373 H 0.02012 0.9385 0.9208 0.0
N374 N 0.03002 0.9897 0.97674 0.0
C375 C 0.02148 0.97578 0.93454 0.0
C376 C 0.02985 0.96702 0.979 0.0
C377 C 0.02479 0.99408 0.9549 0.0
C378 C 0.02283 0.95268 0.93657 0.0
C379 C 0.02648 0.94791 0.95905 0.0
O380 O 0.00722 0.02457 0.99375 0.0
O381 O 0.05197 0.05701 0.02169 0.0
O382 O 0.0586 0.06621 0.06461 0.0
O383 O 0.03183 0.03097 0.0499 0.0
O384 O 0.03542 0.04485 0.98855 0.0
O385 O 0.00563 0.01055 0.02544 0.0
O386 O 0.1124 0.0538 0.0566 0.0
O387 O 0.06817 0.02259 0.02887 0.0
O388 O 0.06121 0.01422 0.98554 0.0
O389 O 0.08822 0.04916 1.0007 0.0
O390 O 0.08407 0.03477 0.06228 0.0
O391 O 0.11467 0.0689 0.02554 0.0
C392 C 0.04647 0.06383 1.00299 0.0
C393 C 0.97396 0.99835 0.99764 0.0
C394 C 0.93471 0.99099 0.98501 0.0
C395 C 0.95507 1.00694 0.9938 0.0
C396 C 0.93346 0.9662 0.97959 0.0
C397 C 0.97266 0.97355 0.99201 0.0
C398 C 0.95247 0.95757 0.98286 0.0
C399 C 0.04027 0.05043 0.0671 0.0
C400 C 0.99445 0.01576 0.00831 0.0
C401 C 0.02558 0.92451 0.96228 0.0
C402 C 0.02624 0.92002 0.98519 0.0
C403 C 0.07336 0.01575 0.04767 0.0
C404 C 0.14667 0.07824 0.05281 0.0
C405 C 0.1643 0.0676 0.05642 0.0
C406 C 0.18541 0.0817 0.06544 0.0
C407 C 0.18872 0.1068 0.0711 0.0
C408 C 0.14996 0.10331 0.05879 0.0
C409 C 0.17096 0.11751 0.06799 0.0
C410 C 0.07958 0.03003 0.98322 0.0
C411 C 0.12541 0.06242 0.04214 0.0
H412 H 0.95602 0.02609 0.99857 0.0
H413 H 0.91782 0.95361 0.97301 0.0
H414 H 0.98703 0.96653 0.99499 0.0
H415 H 0.95149 0.93845 0.97867 0.0
H416 H 0.16173 0.04822 0.05143 0.0
H417 H 0.20495 0.11802 0.07791 0.0
H418 H 0.13649 0.11185 0.0561 0.0
H419 H 0.17353 0.13685 0.07246 0.0
Tb420 Tb 0.31379 0.7709 0.24944 0.0
C421 C 0.32187 0.85497 0.32735 0.0
C422 C 0.33832 0.85126 0.36505 0.0
C423 C 0.34502 0.89013 0.35433 0.0
C424 C 0.32541 0.84084 0.34312 0.0
C425 C 0.33083 0.88001 0.33338 0.0
C426 C 0.34881 0.87575 0.37013 0.0
C427 C 0.30865 0.88383 0.29947 0.0
N428 N 0.30799 0.8446 0.30724 0.0
C429 C 0.30036 0.85895 0.29408 0.0
C430 C 0.32438 0.89435 0.31884 0.0
Tb431 Tb 0.2957 0.80343 0.30045 0.0
N432 N 0.31464 0.81732 0.33786 0.0
C433 C 0.31422 0.80403 0.35507 0.0
C434 C 0.33944 0.83707 0.38174 0.0
C435 C 0.32696 0.81351 0.3769 0.0
H436 H 0.28783 0.85181 0.27935 0.0
H437 H 0.32718 0.80255 0.38996 0.0
H438 H 0.35906 0.88396 0.38671 0.0
H439 H 0.30288 0.89488 0.28861 0.0
H440 H 0.30521 0.7856 0.35168 0.0
H441 H 0.24712 0.69241 0.21566 0.0
H442 H 0.34918 0.84441 0.39876 0.0
H443 H 0.36804 0.77378 0.24715 0.0
H444 H 0.2644 0.73529 0.22506 0.0
H445 H 0.39327 0.74685 0.24903 0.0
H446 H 0.35239 0.90922 0.35895 0.0
H447 H 0.26833 0.66306 0.22371 0.0
H448 H 0.30481 0.65496 0.23608 0.0
H449 H 0.33076 0.91363 0.32296 0.0
H450 H 0.34506 0.66998 0.24552 0.0
N451 N 0.29539 0.73117 0.23968 0.0
C452 C 0.27409 0.72312 0.22913 0.0
C453 C 0.27613 0.68206 0.22806 0.0
C454 C 0.29841 0.69017 0.23698 0.0
C455 C 0.26413 0.69856 0.22344 0.0
C456 C 0.3078 0.7151 0.24216 0.0
H457 H 0.37832 0.7042 0.24974 0.0
N458 N 0.339 0.74725 0.24893 0.0
C459 C 0.37564 0.74009 0.24884 0.0
C460 C 0.33042 0.72347 0.24713 0.0
C461 C 0.36124 0.75535 0.24791 0.0
C462 C 0.36715 0.71606 0.24932 0.0
C463 C 0.34424 0.70726 0.24759 0.0
O464 O 0.31624 0.79266 0.22412 0.0
O465 O 0.31449 0.80594 0.2709 0.0
O466 O 0.2831 0.81155 0.26721 0.0
O467 O 0.27978 0.7751 0.24219 0.0
O468 O 0.34367 0.79998 0.25869 0.0
O469 O 0.31471 0.75514 0.21365 0.0
O470 O 0.26128 0.78878 0.29603 0.0
O471 O 0.29099 0.76917 0.27584 0.0
O472 O 0.33532 0.76827 0.28029 0.0
O473 O 0.32732 0.79528 0.3126 0.0
O474 O 0.29147 0.76906 0.31128 0.0
O475 O 0.2751 0.82024 0.32234 0.0
C476 C 0.33482 0.81533 0.2715 0.0
C477 C 0.33506 0.78072 0.19155 0.0
C478 C 0.34909 0.80239 0.16157 0.0
C479 C 0.33336 0.79719 0.17734 0.0
C480 C 0.36711 0.79138 0.16073 0.0
C481 C 0.35291 0.76949 0.19024 0.0
C482 C 0.36896 0.77503 0.17504 0.0
C483 C 0.27338 0.79548 0.248 0.0
C484 C 0.31752 0.77536 0.20691 0.0
C485 C 0.33475 0.68266 0.24483 0.0
C486 C 0.31183 0.67411 0.23946 0.0
C487 C 0.2897 0.75561 0.29052 0.0
C488 C 0.24338 0.79415 0.33032 0.0
C489 C 0.25177 0.78157 0.34558 0.0
C490 C 0.23854 0.77118 0.36129 0.0
C491 C 0.21648 0.7733 0.36141 0.0
C492 C 0.22141 0.79631 0.33067 0.0
C493 C 0.20802 0.78588 0.34618 0.0
C494 C 0.33917 0.78019 0.30277 0.0
C495 C 0.25723 0.80423 0.31344 0.0
H496 H 0.3196 0.80589 0.17853 0.0
H497 H 0.37941 0.79492 0.14862 0.0
H498 H 0.35437 0.75635 0.20069 0.0
H499 H 0.3827 0.76634 0.17408 0.0
H500 H 0.26848 0.77945 0.34489 0.0
H501 H 0.2059 0.76548 0.3734 0.0
H502 H 0.21461 0.80586 0.31886 0.0
H503 H 0.19103 0.78753 0.34639 0.0
Tb504 Tb 0.58818 0.04648 0.50833 0.0
C505 C 0.52303 0.99729 0.56919 0.0
C506 C 0.501 0.96234 0.54176 0.0
C507 C 0.50645 0.9618 0.58356 0.0
C508 C 0.51426 0.9859 0.54644 0.0
C509 C 0.51887 0.98563 0.58816 0.0
C510 C 0.49755 0.95014 0.56037 0.0
C511 C 0.53808 0.02252 0.61484 0.0
N512 N 0.53483 0.02029 0.57283 0.0
C513 C 0.54182 0.03327 0.5954 0.0
C514 C 0.52681 0.99849 0.61119 0.0
Tb515 Tb 0.54028 0.03633 0.53994 0.0
N516 N 0.51776 0.99846 0.52911 0.0
C517 C 0.50687 0.98904 0.50691 0.0
C518 C 0.49104 0.95207 0.5187 0.0
C519 C 0.49373 0.96563 0.50129 0.0
H520 H 0.55067 0.0518 0.59853 0.0
H521 H 0.4857 0.95808 0.4835 0.0
H522 H 0.48756 0.93196 0.55711 0.0
H523 H 0.54398 0.03276 0.63261 0.0
H524 H 0.50871 0.99917 0.49316 0.0
H525 H 0.64205 0.12559 0.5643 0.0
H526 H 0.48079 0.93398 0.51433 0.0
H527 H 0.57886 0.03001 0.44962 0.0
H528 H 0.61938 0.08434 0.55498 0.0
H529 H 0.58575 0.04852 0.41529 0.0
H530 H 0.50321 0.95243 0.59786 0.0
H531 H 0.64698 0.14922 0.53309 0.0
H532 H 0.64053 0.15056 0.49009 0.0
H533 H 0.52392 0.99021 0.62627 0.0
H534 H 0.62543 0.12943 0.44935 0.0
N535 N 0.61052 0.08449 0.51883 0.0
C536 C 0.62123 0.09426 0.54106 0.0
C537 C 0.63688 0.13106 0.52886 0.0
C538 C 0.62717 0.12041 0.50578 0.0
C539 C 0.63418 0.11776 0.54649 0.0
C540 C 0.61408 0.09677 0.5013 0.0
H541 H 0.60534 0.09118 0.42121 0.0
N542 N 0.59405 0.06193 0.47513 0.0
C543 C 0.59134 0.05905 0.43302 0.0
C544 C 0.60564 0.085 0.47856 0.0
C545 C 0.58747 0.0486 0.45263 0.0
C546 C 0.60236 0.08314 0.43643 0.0
C547 C 0.60993 0.09637 0.45941 0.0
O548 O 0.60257 0.02018 0.48908 0.0
O549 O 0.56176 0.01997 0.51749 0.0
O550 O 0.56503 0.02132 0.55667 0.0
O551 O 0.59636 0.0443 0.5453 0.0
O552 O 0.5695 0.01378 0.48369 0.0
O553 O 0.62007 0.0446 0.52059 0.0
O554 O 0.52521 0.06123 0.56038 0.0
O555 O 0.56659 0.06281 0.53072 0.0
O556 O 0.5636 0.0611 0.49109 0.0
O557 O 0.532 0.03906 0.50312 0.0
O558 O 0.55874 0.06924 0.56446 0.0
O559 O 0.50889 0.03928 0.52709 0.0
C560 C 0.5571 1.00463 0.49809 0.0
C561 C 0.64155 0.02654 0.4934 0.0
C562 C 0.67492 0.01084 0.49071 0.0
C563 C 0.65512 0.01239 0.50079 0.0
C564 C 0.68101 0.02392 0.47319 0.0
C565 C 0.64794 0.03963 0.47609 0.0
C566 C 0.66765 0.0383 0.46606 0.0
C567 C 0.58679 0.0293 0.55815 0.0
C568 C 0.62056 0.02652 0.50365 0.0
C569 C 0.62211 0.12029 0.4638 0.0
C570 C 0.6307 0.13232 0.48698 0.0
C571 C 0.57109 0.07833 0.55 0.0
C572 C 0.48611 0.05341 0.55506 0.0
C573 C 0.47059 0.06509 0.5468 0.0
C574 C 0.45001 0.06378 0.55605 0.0
C575 C 0.44538 0.05055 0.57382 0.0
C576 C 0.48102 0.04015 0.57253 0.0
C577 C 0.46073 0.03879 0.58187 0.0
C578 C 0.54183 0.05325 0.48964 0.0
C579 C 0.50755 0.05571 0.54533 0.0
H580 H 0.64999 1.00214 0.51406 0.0
H581 H 0.69623 0.02325 0.4652 0.0
H582 H 0.63768 0.05066 0.47025 0.0
H583 H 0.67255 0.04839 0.45265 0.0
H584 H 0.47451 0.07495 0.53296 0.0
H585 H 0.42997 0.04946 0.58173 0.0
H586 H 0.49272 0.03101 0.57905 0.0
H587 H 0.45692 0.02868 0.59551 0.0
Tb588 Tb 0.28393 0.29597 0.76764 0.0
C589 C 0.35462 0.26085 0.82034 0.0
C590 C 0.36754 0.29274 0.85482 0.0
C591 C 0.36819 0.25175 0.85696 0.0
C592 C 0.35804 0.28458 0.83108 0.0
C593 C 0.36038 0.24418 0.8328 0.0
C594 C 0.37175 0.27606 0.86799 0.0
C595 C 0.35334 0.21491 0.79587 0.0
N596 N 0.34765 0.25459 0.79693 0.0
C597 C 0.34785 0.23217 0.78435 0.0
C598 C 0.3592 0.2208 0.82032 0.0
Tb599 Tb 0.33759 0.28338 0.77936 0.0
N600 N 0.3543 0.3 0.81743 0.0
C601 C 0.36226 0.32418 0.82584 0.0
C602 C 0.37371 0.31744 0.8641 0.0
C603 C 0.37161 0.33323 0.84933 0.0
H604 H 0.34298 0.22726 0.7655 0.0
H605 H 0.37709 0.35241 0.85603 0.0
H606 H 0.37872 0.28192 0.88635 0.0
H607 H 0.35289 0.19705 0.7859 0.0
H608 H 0.36087 0.33691 0.81502 0.0
H609 H 0.24475 0.23163 0.68784 0.0
H610 H 0.38104 0.32448 0.88224 0.0
H611 H 0.27822 0.35178 0.78532 0.0
H612 H 0.26059 0.24455 0.72939 0.0
H613 H 0.26882 0.38374 0.76733 0.0
H614 H 0.37241 0.23918 0.86697 0.0
H615 H 0.24183 0.26177 0.66385 0.0
H616 H 0.24486 0.30521 0.66264 0.0
H617 H 0.36353 0.20746 0.8292 0.0
H618 H 0.25119 0.34711 0.68461 0.0
N619 N 0.26788 0.28193 0.72914 0.0
C620 C 0.25957 0.25808 0.71936 0.0
C621 C 0.24898 0.26761 0.68215 0.0
C622 C 0.25544 0.292 0.69289 0.0
C623 C 0.25049 0.25057 0.69566 0.0
C624 C 0.26468 0.29857 0.71675 0.0
H625 H 0.25933 0.37645 0.72399 0.0
N626 N 0.27483 0.32663 0.75243 0.0
C627 C 0.26878 0.36649 0.75626 0.0
C628 C 0.26822 0.32192 0.72894 0.0
C629 C 0.27411 0.34826 0.7664 0.0
C630 C 0.26355 0.36235 0.73179 0.0
C631 C 0.26268 0.33964 0.71786 0.0
O632 O 0.26365 0.30673 0.79373 0.0
O633 O 0.30922 0.29365 0.7942 0.0
O634 O 0.31275 0.25252 0.78705 0.0
O635 O 0.28014 0.25708 0.76819 0.0
O636 O 0.29479 0.32247 0.80047 0.0
O637 O 0.2523 0.27398 0.76803 0.0
O638 O 0.36058 0.27026 0.75791 0.0
O639 O 0.312 0.2846 0.75292 0.0
O640 O 0.30821 0.32641 0.7589 0.0
O641 O 0.34085 0.32206 0.77788 0.0
O642 O 0.32755 0.25669 0.74647 0.0
O643 O 0.36558 0.30772 0.77289 0.0
C644 C 0.3089 0.31253 0.80917 0.0
C645 C 0.22516 0.29388 0.78342 0.0
C646 C 0.18886 0.29403 0.79791 0.0
C647 C 0.20985 0.28848 0.79975 0.0
C648 C 0.18381 0.30549 0.77967 0.0
C649 C 0.21939 0.30477 0.76519 0.0
C650 C 0.1989 0.31065 0.76345 0.0
C651 C 0.29148 0.24405 0.77842 0.0
C652 C 0.24721 0.28848 0.78579 0.0
C653 C 0.25522 0.33369 0.69358 0.0
C654 C 0.25163 0.30984 0.68107 0.0
C655 C 0.31287 0.26597 0.73787 0.0
C656 C 0.3976 0.29318 0.76587 0.0
C657 C 0.41215 0.29603 0.74828 0.0
C658 C 0.4352 0.29989 0.75392 0.0
C659 C 0.44337 0.30048 0.77726 0.0
C660 C 0.40618 0.29357 0.78893 0.0
C661 C 0.42893 0.29717 0.79454 0.0
C662 C 0.32945 0.33493 0.76743 0.0
C663 C 0.37375 0.29128 0.76035 0.0
H664 H 0.21422 0.27969 0.8136 0.0
H665 H 0.16821 0.31068 0.77796 0.0
H666 H 0.23072 0.3088 0.75233 0.0
H667 H 0.19469 0.31932 0.74946 0.0
H668 H 0.40561 0.29583 0.73045 0.0
H669 H 0.46096 0.30321 0.78208 0.0
H670 H 0.39532 0.29141 0.80266 0.0
H671 H 0.43544 0.29755 0.81241 0.0
Tb672 Tb 0.05943 0.07106 0.54214 0.0
C673 C 0.08269 1.0015 0.46063 0.0
C674 C 0.05131 0.99255 0.43102 0.0
C675 C 0.08765 0.99028 0.41892 0.0
C676 C 0.06054 0.9997 0.45488 0.0
C677 C 0.09651 0.99647 0.44279 0.0
C678 C 0.06507 0.98832 0.41304 0.0
C679 C 0.12638 1.00255 0.47352 0.0
N680 N 0.09052 1.00739 0.48388 0.0
C681 C 0.11199 1.0073 0.49057 0.0
C682 C 0.11867 0.99733 0.44951 0.0
Tb683 Tb 0.06585 0.01573 0.51049 0.0
N684 N 0.04784 1.0038 0.47279 0.0
C685 C 0.02534 0.9992 0.468 0.0
C686 C 0.02847 0.98923 0.42601 0.0
C687 C 0.0154 0.99224 0.44462 0.0
H688 H 0.11829 0.01149 0.50903 0.0
H689 H 0.99765 0.98928 0.44099 0.0
H690 H 0.05833 0.98302 0.39459 0.0
H691 H 0.14343 1.00296 0.47893 0.0
H692 H 0.01484 1.00147 0.48202 0.0
H693 H 0.1237 0.09298 0.6156 0.0
H694 H 0.02073 0.98381 0.40792 0.0
H695 H 0.00994 0.08422 0.54068 0.0
H696 H 0.10887 0.08305 0.5738 0.0
H697 H 0.98384 0.09472 0.56886 0.0
H698 H 0.09802 0.98652 0.40492 0.0
H699 H 0.0988 0.09821 0.64699 0.0
H700 H 0.06078 0.10098 0.65786 0.0
H701 H 0.12984 0.99361 0.43635 0.0
H702 H 0.0225 0.10163 0.64508 0.0
N703 N 0.07532 0.08136 0.58083 0.0
C704 C 0.09757 0.08507 0.58705 0.0
C705 C 0.09209 0.09367 0.62855 0.0
C706 C 0.06966 0.09171 0.62213 0.0
C707 C 0.10618 0.09082 0.61089 0.0
C708 C 0.0618 0.08572 0.59785 0.0
H709 H 0.99376 0.0998 0.61187 0.0
N710 N 0.03437 0.08213 0.56718 0.0
C711 C 0.99967 0.09218 0.57528 0.0
C712 C 0.04049 0.08622 0.59075 0.0
C713 C 0.0146 0.08613 0.5593 0.0
C714 C 0.0053 0.09497 0.59953 0.0
C715 C 0.02613 0.0925 0.60759 0.0
O716 O 0.05215 0.09864 0.52658 0.0
O717 O 0.05638 0.04859 0.50619 0.0
O718 O 0.08981 0.04349 0.49896 0.0
O719 O 0.09338 0.07195 0.53347 0.0
O720 O 0.03187 0.06541 0.5141 0.0
O721 O 0.08258 0.10429 0.54855 0.0
O722 O 0.07707 0.9865 0.519 0.0
O723 O 0.06879 0.03771 0.54665 0.0
O724 O 0.0327 0.04538 0.55213 0.0
O725 O 0.03227 0.01266 0.52154 0.0
O726 O 0.09331 0.02084 0.53821 0.0
O727 O 0.04237 0.98376 0.50932 0.0
C728 C 0.03838 0.05205 0.49683 0.0
C729 C 0.06878 0.13848 0.54548 0.0
C730 C 0.06953 0.17838 0.53809 0.0
C731 C 0.07052 0.15435 0.53003 0.0
C732 C 0.06676 0.18635 0.56203 0.0
C733 C 0.06578 0.14653 0.56925 0.0
C734 C 0.06478 0.17043 0.57745 0.0
C735 C 0.10064 0.06367 0.51329 0.0
C736 C 0.0704 0.11379 0.53598 0.0
C737 C 0.03336 0.09702 0.63185 0.0
C738 C 0.05513 0.09662 0.63912 0.0
C739 C 0.08668 0.03361 0.55579 0.0
C740 C 0.05416 0.9475 0.50519 0.0
C741 C 0.04976 0.93128 0.52009 0.0
C742 C 0.04574 0.90645 0.51112 0.0
C743 C 0.04603 0.898 0.48669 0.0
C744 C 0.05461 0.93902 0.4809 0.0
C745 C 0.05056 0.91427 0.47172 0.0
C746 C 0.02351 0.02364 0.53958 0.0
C747 C 0.05715 0.97295 0.51593 0.0
H748 H 0.07308 0.14804 0.51172 0.0
H749 H 0.06588 0.20475 0.56874 0.0
H750 H 0.06433 0.13446 0.5814 0.0
H751 H 0.06252 0.17667 0.59582 0.0
H752 H 0.04898 0.93808 0.53879 0.0
H753 H 0.04301 0.87894 0.47926 0.0
H754 H 0.05787 0.95141 0.46915 0.0
H755 H 0.05084 0.90766 0.45294 0.0
Tb756 Tb 0.33157 0.80694 0.76809 0.0
C757 C 0.2689 0.73001 0.80334 0.0
C758 C 0.28208 0.69417 0.7897 0.0
C759 C 0.26265 0.69777 0.82493 0.0
C760 C 0.28018 0.71739 0.78769 0.0
C761 C 0.25943 0.7201 0.82177 0.0
C762 C 0.27393 0.68479 0.80887 0.0
C763 C 0.24155 0.75317 0.8302 0.0
N764 N 0.26566 0.75117 0.79926 0.0
C765 C 0.25101 0.762 0.81144 0.0
C766 C 0.24612 0.73235 0.8357 0.0
Tb767 Tb 0.28243 0.76486 0.76863 0.0
N768 N 0.28743 0.72694 0.76922 0.0
C769 C 0.29487 0.71303 0.7509 0.0
C770 C 0.29107 0.68061 0.77178 0.0
C771 C 0.29704 0.6899 0.75204 0.0
H772 H 0.24665 0.77757 0.8069 0.0
H773 H 0.30348 0.67934 0.73774 0.0
H774 H 0.27552 0.66714 0.8109 0.0
H775 H 0.23051 0.76225 0.84018 0.0
H776 H 0.2996 0.71974 0.73543 0.0
H777 H 0.31217 0.89319 0.79951 0.0
H778 H 0.29277 0.6627 0.77262 0.0
H779 H 0.36608 0.79247 0.72866 0.0
H780 H 0.31482 0.85236 0.80128 0.0
H781 H 0.3843 0.8088 0.69708 0.0
H782 H 0.25571 0.68997 0.83913 0.0
H783 H 0.32442 0.91043 0.76543 0.0
H784 H 0.3428 0.90632 0.72787 0.0
H785 H 0.23853 0.72535 0.85002 0.0
H786 H 0.36264 0.88327 0.69988 0.0
N787 N 0.32777 0.84535 0.76786 0.0
C788 C 0.32022 0.85924 0.78611 0.0
C789 C 0.32557 0.89228 0.76601 0.0
C790 C 0.33471 0.87873 0.74824 0.0
C791 C 0.31873 0.88265 0.7853 0.0
C792 C 0.33584 0.85519 0.74988 0.0
H793 H 0.37869 0.84714 0.68863 0.0
N794 N 0.3493 0.82077 0.73798 0.0
C795 C 0.37373 0.81839 0.70731 0.0
C796 C 0.34708 0.84242 0.73437 0.0
C797 C 0.36324 0.80915 0.72535 0.0
C798 C 0.37046 0.83997 0.70253 0.0
C799 C 0.35737 0.85254 0.71644 0.0
O800 O 0.36422 0.8051 0.77746 0.0
O801 O 0.31866 0.77054 0.77486 0.0
O802 O 0.29485 0.7772 0.80574 0.0
O803 O 0.31795 0.81294 0.8023 0.0
O804 O 0.345 0.77514 0.75612 0.0
O805 O 0.34962 0.83137 0.79809 0.0
O806 O 0.25023 0.76736 0.75829 0.0
O807 O 0.29542 0.80122 0.76189 0.0
O808 O 0.31848 0.79506 0.73071 0.0
O809 O 0.29556 0.75937 0.7344 0.0
O810 O 0.26861 0.79664 0.77995 0.0
O811 O 0.26304 0.73786 0.74123 0.0
C812 C 0.33274 0.75919 0.76502 0.0
C813 C 0.38819 0.84183 0.79548 0.0
C814 C 0.42839 0.85159 0.80085 0.0
C815 C 0.40811 0.83514 0.79945 0.0
C816 C 0.42862 0.87508 0.7983 0.0
C817 C 0.38851 0.86524 0.79258 0.0
C818 C 0.40871 0.88177 0.79401 0.0
C819 C 0.30677 0.79892 0.81493 0.0
C820 C 0.36756 0.82382 0.79465 0.0
C821 C 0.35506 0.87529 0.71369 0.0
C822 C 0.34375 0.8884 0.7296 0.0
C823 C 0.28125 0.81268 0.7714 0.0
C824 C 0.22498 0.73023 0.747 0.0
C825 C 0.20545 0.73826 0.7457 0.0
C826 C 0.18524 0.72371 0.74865 0.0
C827 C 0.18457 0.7007 0.75284 0.0
C828 C 0.2243 0.70732 0.7516 0.0
C829 C 0.20412 0.69266 0.7545 0.0
C830 C 0.30617 0.7734 0.72142 0.0
C831 C 0.24562 0.74654 0.74393 0.0
H832 H 0.40782 0.8171 0.80186 0.0
H833 H 0.44413 0.88809 0.79938 0.0
H834 H 0.37329 0.87079 0.78936 0.0
H835 H 0.40895 0.89983 0.79187 0.0
H836 H 0.20593 0.75586 0.74194 0.0
H837 H 0.16903 0.6891 0.75488 0.0
H838 H 0.23922 0.70073 0.75289 0.0
H839 H 0.20362 0.67498 0.75792 0.0
Tb840 Tb 0.5681 0.02961 0.04194 0.0
C841 C 0.50358 0.06998 0.98501 0.0
C842 C 0.47662 0.03536 0.96271 0.0
C843 C 0.46631 0.07355 0.97414 0.0
C844 C 0.49806 0.04603 0.97422 0.0
C845 C 0.48799 0.08424 0.98465 0.0
C846 C 0.46064 0.04913 0.96315 0.0
C847 C 0.51702 0.11886 1.00276 0.0
N848 N 0.52475 0.07961 0.99455 0.0
C849 C 0.5319 0.10396 1.00248 0.0
C850 C 0.49488 0.10892 0.9941 0.0
Tb851 Tb 0.54803 0.05391 0.9935 0.0
N852 N 0.51406 0.0335 0.97403 0.0
C853 C 0.51001 0.01044 0.96113 0.0
C854 C 0.4721 0.01138 0.95059 0.0
C855 C 0.48897 0.99898 0.94953 0.0
H856 H 0.54897 0.1118 0.0093 0.0
H857 H 0.48578 0.98054 0.93986 0.0
H858 H 0.44404 0.04122 0.95456 0.0
H859 H 0.52264 0.138 0.00965 0.0
H860 H 0.52273 1.00045 0.96014 0.0
H861 H 0.63334 0.10142 0.0932 0.0
H862 H 0.45582 1.00246 0.94161 0.0
H863 H 0.56499 0.97116 0.02539 0.0
H864 H 0.5957 0.08281 0.07415 0.0
H865 H 0.59007 0.94363 0.02444 0.0
H866 H 0.45401 0.08414 0.97384 0.0
H867 H 0.66194 0.0777 0.09134 0.0
H868 H 0.67182 0.03781 0.07871 0.0
H869 H 0.48341 0.12051 0.99419 0.0
H870 H 0.66004 0.9948 0.06001 0.0
N871 N 0.6026 0.04868 0.06091 0.0
C872 C 0.60779 0.07203 0.07319 0.0
C873 C 0.64534 0.06934 0.08292 0.0
C874 C 0.63968 0.04515 0.0714 0.0
C875 C 0.62924 0.08276 0.08404 0.0
C876 C 0.61788 0.03523 0.06062 0.0
H877 H 0.6295 0.95944 0.03988 0.0
N878 N 0.59003 1.00249 0.04072 0.0
C879 C 0.5963 0.96264 0.03165 0.0
C880 C 0.61135 0.01123 0.05013 0.0
C881 C 0.58211 0.97832 0.03229 0.0
C882 C 0.61856 0.97163 0.04034 0.0
C883 C 0.62628 0.99617 0.05004 0.0
O884 O 0.54975 1.00547 0.05992 0.0
O885 O 0.54096 0.03109 0.01815 0.0
O886 O 0.53388 0.06832 0.02523 0.0
O887 O 0.55934 0.06418 0.05459 0.0
O888 O 0.54028 0.99892 0.02673 0.0
O889 O 0.56491 0.04206 0.07786 0.0
O890 O 0.56444 0.07924 0.97542 0.0
O891 O 0.57523 0.05277 0.01738 0.0
O892 O 0.5831 0.01604 0.01097 0.0
O893 O 0.55842 0.01993 0.98068 0.0
O894 O 0.57549 0.08483 0.00861 0.0
O895 O 0.553 0.04184 0.95805 0.0
C896 C 0.52948 0.01006 0.01493 0.0
C897 C 0.55906 0.0127 0.10101 0.0
C898 C 0.54791 1.00372 0.13842 0.0
C899 C 0.54398 0.01215 0.11786 0.0
C900 C 0.56753 0.99606 0.14208 0.0
C901 C 0.57853 1.00488 0.10461 0.0
C902 C 0.58273 0.99662 0.12517 0.0
C903 C 0.5432 0.0736 0.04738 0.0
C904 C 0.55344 0.02121 0.07985 0.0
C905 C 0.64824 1.00602 0.06004 0.0
C906 C 0.65494 0.0305 0.0707 0.0
C907 C 0.58654 0.07392 0.02042 0.0
C908 C 0.55439 0.07028 0.93422 0.0
C909 C 0.56624 0.06697 0.91458 0.0
C910 C 0.55969 0.07329 0.89353 0.0
C911 C 0.54104 0.08317 0.89243 0.0
C912 C 0.53574 0.08003 0.93294 0.0
C913 C 0.52912 0.08644 0.91207 0.0
C914 C 0.57481 0.01112 0.98854 0.0
C915 C 0.56212 0.06339 0.95566 0.0
H916 H 0.52919 0.01871 0.11503 0.0
H917 H 0.57102 0.98955 0.15786 0.0
H918 H 0.59035 1.00516 0.09167 0.0
H919 H 0.59777 0.99061 0.128 0.0
H920 H 0.58085 0.05976 0.91586 0.0
H921 H 0.53556 0.08809 0.87636 0.0
H922 H 0.52641 0.0828 0.94796 0.0
H923 H 0.51472 0.09397 0.91112 0.0
Tb924 Tb 0.33191 0.32074 0.29021 0.0
C925 C 0.23912 0.27816 0.27146 0.0
C926 C 0.223 0.25422 0.29849 0.0
C927 C 0.20269 0.28039 0.28374 0.0
C928 C 0.24064 0.26199 0.28545 0.0
C929 C 0.21991 0.28732 0.27015 0.0
C930 C 0.2043 0.26399 0.29804 0.0
C931 C 0.23548 0.3085 0.24117 0.0
N932 N 0.25618 0.2844 0.25861 0.0
C933 C 0.25412 0.29895 0.24299 0.0
C934 C 0.21838 0.30288 0.25498 0.0
Tb935 Tb 0.28694 0.2685 0.26414 0.0
N936 N 0.25883 0.25276 0.28518 0.0
C937 C 0.25892 0.23335 0.29533 0.0
C938 C 0.22426 0.23615 0.31082 0.0
C939 C 0.24212 0.22531 0.3088 0.0
H940 H 0.26655 0.3038 0.23171 0.0
H941 H 0.24283 0.21053 0.31735 0.0
H942 H 0.19071 0.25843 0.30809 0.0
H943 H 0.23433 0.32025 0.22904 0.0
H944 H 0.27219 0.22409 0.29322 0.0
H945 H 0.36994 0.3873 0.24228 0.0
H946 H 0.2111 0.22974 0.32105 0.0
H947 H 0.3568 0.28639 0.31967 0.0
H948 H 0.34164 0.36813 0.26487 0.0
H949 H 0.3914 0.274 0.321 0.0
H950 H 0.18787 0.28725 0.28294 0.0
H951 H 0.40389 0.37224 0.23651 0.0
H952 H 0.42742 0.34472 0.24607 0.0
H953 H 0.20397 0.31034 0.25354 0.0
H954 H 0.43347 0.31424 0.26809 0.0
N955 N 0.35851 0.34118 0.2706 0.0
C956 C 0.35628 0.36115 0.26228 0.0
C957 C 0.39137 0.36356 0.24622 0.0
C958 C 0.39456 0.34467 0.25658 0.0
C959 C 0.37229 0.37214 0.24948 0.0
C960 C 0.37769 0.33391 0.26899 0.0
H961 H 0.42042 0.28835 0.29652 0.0
N962 N 0.36469 0.30807 0.29393 0.0
C963 C 0.38869 0.28602 0.30963 0.0
C964 C 0.38102 0.31693 0.28132 0.0
C965 C 0.36871 0.29328 0.30864 0.0
C966 C 0.405 0.29411 0.29579 0.0
C967 C 0.40144 0.31001 0.28164 0.0
O968 O 0.33758 0.33173 0.3275 0.0
O969 O 0.29741 0.30351 0.28702 0.0
O970 O 0.29671 0.28843 0.23627 0.0
O971 O 0.32374 0.32323 0.25356 0.0
O972 O 0.305 0.33917 0.28701 0.0
O973 O 0.33988 0.35756 0.30561 0.0
O974 O 0.28107 0.25499 0.22718 0.0
O975 O 0.32152 0.28554 0.2677 0.0
O976 O 0.32465 0.29837 0.31665 0.0
O977 O 0.29703 0.26402 0.29963 0.0
O978 O 0.31373 0.24963 0.2666 0.0
O979 O 0.27521 0.23141 0.25135 0.0
C980 C 0.28902 0.32128 0.28749 0.0
C981 C 0.32276 0.36567 0.34072 0.0
C982 C 0.29579 0.39096 0.34353 0.0
C983 C 0.31161 0.38096 0.33129 0.0
C984 C 0.29134 0.38557 0.36566 0.0
C985 C 0.31813 0.36073 0.36291 0.0
C986 C 0.30249 0.37062 0.37525 0.0
C987 C 0.31018 0.30917 0.23539 0.0
C988 C 0.33836 0.35406 0.32695 0.0
C989 C 0.41785 0.31963 0.26833 0.0
C990 C 0.4144 0.33693 0.25575 0.0
C991 C 0.32988 0.26773 0.26716 0.0
C992 C 0.29123 0.21771 0.21683 0.0
C993 C 0.30029 0.20196 0.22795 0.0
C994 C 0.3149 0.18917 0.2168 0.0
C995 C 0.32006 0.19186 0.19402 0.0
C996 C 0.2964 0.21987 0.19396 0.0
C997 C 0.31071 0.20698 0.18265 0.0
C998 C 0.31148 0.27742 0.31738 0.0
C999 C 0.27746 0.23279 0.2295 0.0
H1000 H 0.31477 0.38454 0.314 0.0
H1001 H 0.27947 0.39314 0.37575 0.0
H1002 H 0.32644 0.34905 0.3706 0.0
H1003 H 0.29897 0.36665 0.39231 0.0
H1004 H 0.29663 0.20022 0.24568 0.0
H1005 H 0.33116 0.1821 0.18493 0.0
H1006 H 0.28962 0.23179 0.18497 0.0
H1007 H 0.31471 0.20886 0.16507 0.0
Tb1008 Tb 0.55801 0.56782 0.04186 0.0
C1009 C 0.58576 0.50146 0.9602 0.0
C1010 C 0.55511 0.49152 0.92959 0.0
C1011 C 0.59221 0.49126 0.91881 0.0
C1012 C 0.56359 0.49865 0.9537 0.0
C1013 C 0.60035 0.49748 0.9429 0.0
C1014 C 0.5696 0.48828 0.91216 0.0
C1015 C 0.62962 0.50478 0.97454 0.0
N1016 N 0.5929 0.50741 0.98363 0.0
C1017 C 0.61449 0.50847 0.99101 0.0
C1018 C 0.62258 0.49947 0.95036 0.0
Tb1019 Tb 0.56701 0.51404 0.00935 0.0
N1020 N 0.55019 0.50184 0.97109 0.0
C1021 C 0.52774 0.49641 0.96547 0.0
C1022 C 0.53229 0.48729 0.92377 0.0
C1023 C 0.51852 0.48943 0.94183 0.0
H1024 H 0.62035 0.51274 0.00959 0.0
H1025 H 0.50079 0.48578 0.93757 0.0
H1026 H 0.56343 0.483 0.89354 0.0
H1027 H 0.64674 0.50609 0.98051 0.0
H1028 H 0.51667 0.49795 0.979 0.0
H1029 H 0.62341 0.59516 0.11443 0.0
H1030 H 0.52511 0.48186 0.90547 0.0
H1031 H 0.50512 0.57115 0.04084 0.0
H1032 H 0.60795 0.58322 0.07281 0.0
H1033 H 0.47858 0.57877 0.06945 0.0
H1034 H 0.60316 0.48828 0.90523 0.0
H1035 H 0.59873 0.59938 0.14616 0.0
H1036 H 0.56031 0.59894 0.15754 0.0
H1037 H 0.63433 0.49658 0.93763 0.0
H1038 H 0.52085 0.59472 0.14528 0.0
N1039 N 0.57435 0.57964 0.08031 0.0
C1040 C 0.59675 0.58483 0.08621 0.0
C1041 C 0.59175 0.594 0.1278 0.0
C1042 C 0.569 0.59009 0.12168 0.0
C1043 C 0.60571 0.59171 0.10995 0.0
C1044 C 0.56078 0.58304 0.09749 0.0
H1045 H 0.49029 0.58759 0.11245 0.0
N1046 N 0.53195 0.57511 0.06716 0.0
C1047 C 0.49545 0.57932 0.07568 0.0
C1048 C 0.53877 0.58079 0.09067 0.0
C1049 C 0.51068 0.57503 0.05946 0.0
C1050 C 0.5021 0.58423 0.09993 0.0
C1051 C 0.52407 0.58532 0.10772 0.0
O1052 O 0.5469 0.59591 0.03071 0.0
O1053 O 0.55593 0.54626 0.0057 0.0
O1054 O 0.58983 0.54289 0.99822 0.0
O1055 O 0.59219 0.57127 0.03272 0.0
O1056 O 0.53066 0.56181 0.01347 0.0
O1057 O 0.58062 0.60099 0.04541 0.0
O1058 O 0.57879 0.48543 0.01858 0.0
O1059 O 0.5692 0.53549 0.04565 0.0
O1060 O 0.5344 0.53938 0.05258 0.0
O1061 O 0.53285 0.51029 0.01869 0.0
O1062 O 0.59447 0.52003 0.03744 0.0
O1063 O 0.54421 0.48137 0.00743 0.0
C1064 C 0.53781 0.54924 0.99616 0.0
C1065 C 0.56657 0.63572 0.04691 0.0
C1066 C 0.57239 0.67697 0.04153 0.0
C1067 C 0.57124 0.65251 0.03258 0.0
C1068 C 0.56837 0.6843 0.0652 0.0
C1069 C 0.56271 0.6432 0.07048 0.0
C1070 C 0.56356 0.66747 0.07954 0.0
C1071 C 0.59985 0.56339 0.01259 0.0
C1072 C 0.56614 0.6107 0.03635 0.0
C1073 C 0.5319 0.59134 0.13189 0.0
C1074 C 0.55435 0.59373 0.13887 0.0
C1075 C 0.58742 0.53242 0.05495 0.0
C1076 C 0.55724 0.4459 0.00419 0.0
C1077 C 0.5525 0.4295 0.01887 0.0
C1078 C 0.54978 0.40479 0.00999 0.0
C1079 C 0.55168 0.39665 0.98583 0.0
C1080 C 0.55927 0.43772 0.98019 0.0
C1081 C 0.55648 0.41309 0.97108 0.0
C1082 C 0.52468 0.51869 0.03834 0.0
C1083 C 0.55917 0.47122 0.01481 0.0
H1084 H 0.57378 0.64636 0.01424 0.0
H1085 H 0.56923 0.70302 0.07272 0.0
H1086 H 0.55909 0.63038 0.08175 0.0
H1087 H 0.5606 0.67328 0.09776 0.0
H1088 H 0.55051 0.43607 0.03731 0.0
H1089 H 0.54972 0.3777 0.97845 0.0
H1090 H 0.56284 0.45025 0.96861 0.0
H1091 H 0.55801 0.40671 0.95253 0.0
Tb1092 Tb 0.83481 0.31205 0.26606 0.0
C1093 C 0.78376 0.25153 0.32636 0.0
C1094 C 0.79422 0.21341 0.31631 0.0
C1095 C 0.78314 0.22635 0.35535 0.0
C1096 C 0.79156 0.23507 0.31041 0.0
C1097 C 0.77885 0.24697 0.34876 0.0
C1098 C 0.79077 0.20956 0.33913 0.0
C1099 C 0.76283 0.28153 0.3552 0.0
N1100 N 0.77926 0.27101 0.31916 0.0
C1101 C 0.76782 0.28525 0.3328 0.0
C1102 C 0.76876 0.2626 0.36342 0.0
Tb1103 Tb 0.78849 0.27507 0.28199 0.0
N1104 N 0.79433 0.23914 0.28832 0.0
C1105 C 0.79751 0.22111 0.27071 0.0
C1106 C 0.79903 0.19566 0.29873 0.0
C1107 C 0.80012 0.1993 0.27569 0.0
H1108 H 0.76266 0.29978 0.32688 0.0
H1109 H 0.80317 0.18541 0.26177 0.0
H1110 H 0.79306 0.19321 0.34408 0.0
H1111 H 0.75431 0.29323 0.36608 0.0
H1112 H 0.79835 0.22342 0.25275 0.0
H1113 H 0.81623 0.3999 0.2799 0.0
H1114 H 0.8011 0.17877 0.30254 0.0
H1115 H 0.86674 0.29039 0.22594 0.0
H1116 H 0.82398 0.36402 0.29183 0.0
H1117 H 0.8767 0.29558 0.18683 0.0
H1118 H 0.77971 0.2227 0.37259 0.0
H1119 H 0.81746 0.40375 0.23819 0.0
H1120 H 0.82753 0.38816 0.19766 0.0
H1121 H 0.76469 0.25967 0.38072 0.0
H1122 H 0.8445 0.35961 0.17214 0.0
N1123 N 0.82803 0.34665 0.25697 0.0
C1124 C 0.82426 0.36519 0.2735 0.0
C1125 C 0.82062 0.38778 0.24328 0.0
C1126 C 0.82688 0.36999 0.22698 0.0
C1127 C 0.82001 0.38572 0.26684 0.0
C1128 C 0.83086 0.34958 0.23458 0.0
H1129 H 0.86362 0.3255 0.16828 0.0
N1130 N 0.84626 0.31584 0.22951 0.0
C1131 C 0.86618 0.30615 0.19588 0.0
C1132 C 0.84051 0.33368 0.22035 0.0
C1133 C 0.8601 0.30303 0.21814 0.0
C1134 C 0.85875 0.32303 0.18545 0.0
C1135 C 0.84626 0.33752 0.19796 0.0
O1136 O 0.86573 0.30989 0.28155 0.0
O1137 O 0.82427 0.2786 0.27944 0.0
O1138 O 0.80836 0.2936 0.3152 0.0
O1139 O 0.8279 0.32624 0.30214 0.0
O1140 O 0.84657 0.27883 0.25546 0.0
O1141 O 0.85941 0.34376 0.27876 0.0
O1142 O 0.7577 0.27771 0.26656 0.0
O1143 O 0.79898 0.30826 0.26851 0.0
O1144 O 0.81627 0.29268 0.23236 0.0
O1145 O 0.79468 0.26123 0.24565 0.0
O1146 O 0.7767 0.30843 0.29267 0.0
O1147 O 0.76266 0.24403 0.2718 0.0
C1148 C 0.83629 0.26522 0.26821 0.0
C1149 C 0.89505 0.33786 0.27201 0.0
C1150 C 0.93255 0.3325 0.2677 0.0
C1151 C 0.91323 0.32941 0.2793 0.0
C1152 C 0.93333 0.34425 0.24859 0.0
C1153 C 0.89646 0.35015 0.25334 0.0
C1154 C 0.91546 0.35316 0.24165 0.0
C1155 C 0.82061 0.31568 0.31932 0.0
C1156 C 0.8744 0.33243 0.28313 0.0
C1157 C 0.84051 0.35658 0.18944 0.0
C1158 C 0.83082 0.37281 0.20395 0.0
C1159 C 0.78707 0.3218 0.27971 0.0
C1160 C 0.7276 0.2521 0.27798 0.0
C1161 C 0.70978 0.26037 0.26946 0.0
C1162 C 0.69019 0.25837 0.28063 0.0
C1163 C 0.6887 0.24784 0.30055 0.0
C1164 C 0.72561 0.24126 0.29766 0.0
C1165 C 0.70629 0.23927 0.30889 0.0
C1166 C 0.80302 0.2711 0.22847 0.0
C1167 C 0.74825 0.2557 0.26656 0.0
H1168 H 0.91225 0.32051 0.29411 0.0
H1169 H 0.9477 0.34647 0.23887 0.0
H1170 H 0.88279 0.35709 0.24747 0.0
H1171 H 0.91628 0.36226 0.22701 0.0
H1172 H 0.71119 0.26818 0.25393 0.0
H1173 H 0.674 0.24633 0.30978 0.0
H1174 H 0.73898 0.23446 0.3045 0.0
H1175 H 0.70497 0.23114 0.32418 0.0
Tb1176 Tb 0.07104 0.54424 0.53374 0.0
C1177 C 0.99622 0.53954 0.46533 0.0
C1178 C 0.99768 0.51416 0.42738 0.0
C1179 C 0.96228 0.51432 0.44285 0.0
C1180 C 0.00833 0.53064 0.44812 0.0
C1181 C 0.97292 0.53258 0.46222 0.0
C1182 C 0.97469 0.50507 0.42541 0.0
C1183 C 0.97245 0.56575 0.49419 0.0
N1184 N 0.00717 0.55758 0.48329 0.0
C1185 C 0.99559 0.57197 0.49635 0.0
C1186 C 0.96106 0.54545 0.47755 0.0
Tb1187 Tb 0.04515 0.5644 0.48696 0.0
N1188 N 0.03029 0.54065 0.4504 0.0
C1189 C 0.04202 0.53733 0.43112 0.0
C1190 C 0.01022 0.50861 0.40867 0.0
C1191 C 0.03236 0.52074 0.41033 0.0
H1192 H 0.004 0.58851 0.5082 0.0
H1193 H 0.04199 0.51737 0.39559 0.0
H1194 H 0.96623 0.49202 0.40984 0.0
H1195 H 0.96342 0.5768 0.50515 0.0
H1196 H 0.05919 0.54642 0.43219 0.0
H1197 H 0.14763 0.61169 0.5599 0.0
H1198 H 1.00268 0.49601 0.39243 0.0
H1199 H 0.06086 0.48462 0.53019 0.0
H1200 H 0.10745 0.5972 0.55191 0.0
H1201 H 0.08226 0.45358 0.52687 0.0
H1202 H 0.94442 0.50832 0.44045 0.0
H1203 H 0.1719 0.58309 0.55395 0.0
H1204 H 0.17552 0.54041 0.54353 0.0
H1205 H 0.94314 0.54084 0.47565 0.0
H1206 H 0.15771 0.49732 0.53397 0.0
N1207 N 0.10836 0.56031 0.54084 0.0
C1208 C 0.11753 0.58426 0.54914 0.0
C1209 C 0.15413 0.57648 0.55043 0.0
C1210 C 0.14466 0.55192 0.54306 0.0
C1211 C 0.14048 0.59267 0.55382 0.0
C1212 C 0.12142 0.54425 0.53866 0.0
H1213 H 0.12297 0.46479 0.52796 0.0
N1214 N 0.08894 0.51339 0.53121 0.0
C1215 C 0.09065 0.47217 0.52846 0.0
C1216 C 0.1114 0.52001 0.53348 0.0
C1217 C 0.07854 0.48992 0.5302 0.0
C1218 C 0.11362 0.47857 0.52905 0.0
C1219 C 0.12433 0.50278 0.53223 0.0
O1220 O 0.04962 0.54226 0.56054 0.0
O1221 O 0.04052 0.54555 0.51493 0.0
O1222 O 0.03595 0.57818 0.52233 0.0
O1223 O 0.06932 0.58188 0.54313 0.0
O1224 O 0.04136 0.51436 0.52512 0.0
O1225 O 0.08454 0.54902 0.56907 0.0
O1226 O 0.05763 0.60172 0.49803 0.0
O1227 O 0.07576 0.56714 0.50841 0.0
O1228 O 0.07427 0.51964 0.50142 0.0
O1229 O 0.05076 0.52829 0.47254 0.0
O1230 O 0.07671 0.56481 0.47245 0.0
O1231 O 0.04023 0.58714 0.46382 0.0
C1232 C 0.0291 0.52478 0.51397 0.0
C1233 C 0.06161 0.52602 0.59143 0.0
C1234 C 0.03985 0.50884 0.62007 0.0
C1235 C 0.04432 0.52576 0.60578 0.0
C1236 C 0.0529 0.49192 0.61977 0.0
C1237 C 0.07459 0.50905 0.59126 0.0
C1238 C 0.07013 0.492 0.60531 0.0
C1239 C 0.05046 0.58846 0.54111 0.0
C1240 C 0.06537 0.54415 0.57684 0.0
C1241 C 0.1475 0.51031 0.53513 0.0
C1242 C 0.15765 0.53484 0.5406 0.0
C1243 C 0.08829 0.56625 0.49196 0.0
C1244 C 0.0719 0.61921 0.46787 0.0
C1245 C 0.07997 0.6081 0.44758 0.0
C1246 C 0.10047 0.61853 0.441 0.0
C1247 C 0.11279 0.64057 0.45444 0.0
C1248 C 0.08411 0.64157 0.48092 0.0
C1249 C 0.10443 0.65221 0.47416 0.0
C1250 C 0.06357 0.51511 0.48003 0.0
C1251 C 0.05286 0.60606 0.4776 0.0
H1252 H 0.03466 0.53923 0.60623 0.0
H1253 H 0.04981 0.47874 0.63073 0.0
H1254 H 0.08818 0.509 0.58043 0.0
H1255 H 0.08015 0.47895 0.60515 0.0
H1256 H 0.07086 0.59076 0.43741 0.0
H1257 H 0.1287 0.64882 0.44957 0.0
H1258 H 0.07831 0.65033 0.49683 0.0
H1259 H 0.11391 0.66926 0.48451 0.0
Tb1260 Tb 0.78334 0.80028 0.26741 0.0
C1261 C 0.85496 0.76301 0.31724 0.0
C1262 C 0.86861 0.79331 0.35284 0.0
C1263 C 0.86957 0.75182 0.35224 0.0
C1264 C 0.85855 0.7864 0.32927 0.0
C1265 C 0.86107 0.7455 0.32825 0.0
C1266 C 0.87334 0.77574 0.36454 0.0
C1267 C 0.85283 0.71786 0.29028 0.0
N1268 N 0.84729 0.75793 0.29403 0.0
C1269 C 0.84705 0.73592 0.2802 0.0
C1270 C 0.85946 0.72252 0.31452 0.0
Tb1271 Tb 0.83736 0.7882 0.27883 0.0
N1272 N 0.85421 0.80275 0.31705 0.0
C1273 C 0.86188 0.82673 0.32676 0.0
C1274 C 0.87469 0.81773 0.36345 0.0
C1275 C 0.87176 0.83453 0.35015 0.0
H1276 H 0.8417 0.73196 0.26148 0.0
H1277 H 0.87703 0.85353 0.35791 0.0
H1278 H 0.88077 0.78063 0.38275 0.0
H1279 H 0.85204 0.70033 0.27935 0.0
H1280 H 0.85982 0.84018 0.31705 0.0
H1281 H 0.74285 0.73501 0.1886 0.0
H1282 H 0.88243 0.82381 0.38152 0.0
H1283 H 0.77958 0.85679 0.28458 0.0
H1284 H 0.76014 0.74832 0.22946 0.0
H1285 H 0.76992 0.8886 0.2665 0.0
H1286 H 0.87411 0.73857 0.36113 0.0
H1287 H 0.73801 0.76475 0.16482 0.0
H1288 H 0.74038 0.80801 0.16336 0.0
H1289 H 0.86403 0.70856 0.32228 0.0
H1290 H 0.74764 0.85018 0.18479 0.0
N1291 N 0.76626 0.78574 0.22928 0.0
C1292 C 0.75832 0.76178 0.21966 0.0
C1293 C 0.74576 0.77082 0.18289 0.0
C1294 C 0.75218 0.79526 0.19339 0.0
C1295 C 0.74838 0.754 0.19629 0.0
C1296 C 0.76224 0.80214 0.21696 0.0
H1297 H 0.75804 0.88033 0.22354 0.0
N1298 N 0.77382 0.8307 0.2521 0.0
C1299 C 0.76891 0.87098 0.25565 0.0
C1300 C 0.76618 0.8256 0.22888 0.0
C1301 C 0.77431 0.85282 0.26584 0.0
C1302 C 0.76233 0.86629 0.23139 0.0
C1303 C 0.76041 0.84321 0.21776 0.0
O1304 O 0.76155 0.81211 0.29124 0.0
O1305 O 0.80879 0.79801 0.29366 0.0
O1306 O 0.81285 0.7573 0.28673 0.0
O1307 O 0.78043 0.76126 0.26699 0.0
O1308 O 0.7932 0.82583 0.30107 0.0
O1309 O 0.75394 0.77607 0.27088 0.0
O1310 O 0.85993 0.77656 0.25586 0.0
O1311 O 0.81182 0.79023 0.25275 0.0
O1312 O 0.80793 0.83079 0.25891 0.0
O1313 O 0.84017 0.8272 0.27926 0.0
O1314 O 0.82785 0.76292 0.24482 0.0
O1315 O 0.86604 0.81308 0.27486 0.0
C1316 C 0.80771 0.81609 0.3093 0.0
C1317 C 0.72371 0.79272 0.2818 0.0
C1318 C 0.68635 0.78768 0.29438 0.0
C1319 C 0.709 0.78814 0.29889 0.0
C1320 C 0.67882 0.7923 0.27273 0.0
C1321 C 0.71576 0.7974 0.26044 0.0
C1322 C 0.69345 0.79725 0.256 0.0
C1323 C 0.79179 0.74843 0.27752 0.0
C1324 C 0.74707 0.79174 0.28605 0.0
C1325 C 0.75192 0.83688 0.19377 0.0
C1326 C 0.7478 0.81288 0.18157 0.0
C1327 C 0.81306 0.77246 0.23685 0.0
C1328 C 0.89734 0.7978 0.26561 0.0
C1329 C 0.91161 0.79958 0.24766 0.0
C1330 C 0.93452 0.80195 0.25276 0.0
C1331 C 0.94284 0.8021 0.27592 0.0
C1332 C 0.90603 0.7977 0.2885 0.0
C1333 C 0.92865 0.7998 0.29357 0.0
C1334 C 0.82891 0.83984 0.26835 0.0
C1335 C 0.87373 0.79739 0.26058 0.0
H1336 H 0.71505 0.78436 0.31537 0.0
H1337 H 0.66157 0.79226 0.26881 0.0
H1338 H 0.72674 0.80095 0.24713 0.0
H1339 H 0.68743 0.80083 0.23945 0.0
H1340 H 0.905 0.79974 0.22995 0.0
H1341 H 0.96034 0.80371 0.2803 0.0
H1342 H 0.8954 0.79631 0.30251 0.0
H1343 H 0.93525 0.79982 0.3113 0.0
Tb1344 Tb 0.82165 0.27203 0.74235 0.0
C1345 C 0.78459 0.35048 0.79872 0.0
C1346 C 0.815 0.38563 0.80688 0.0
C1347 C 0.77719 0.39033 0.80345 0.0
C1348 C 0.80709 0.36045 0.8018 0.0
C1349 C 0.7694 0.36538 0.80024 0.0
C1350 C 0.79997 0.40045 0.8068 0.0
C1351 C 0.74011 0.33029 0.79836 0.0
N1352 N 0.77766 0.32628 0.79601 0.0
C1353 C 0.75577 0.31624 0.79705 0.0
C1354 C 0.74689 0.3549 0.79953 0.0
Tb1355 Tb 0.80514 0.30534 0.79408 0.0
N1356 N 0.82115 0.34561 0.80213 0.0
C1357 C 0.84305 0.35499 0.80997 0.0
C1358 C 0.83764 0.39521 0.81318 0.0
C1359 C 0.85163 0.37983 0.81526 0.0
H1360 H 0.75008 0.29738 0.7966 0.0
H1361 H 0.86908 0.38708 0.82086 0.0
H1362 H 0.80577 0.4198 0.81027 0.0
H1363 H 0.72281 0.32212 0.79859 0.0
H1364 H 0.8542 0.34356 0.81191 0.0
H1365 H 0.73809 0.22394 0.6992 0.0
H1366 H 0.84435 0.41443 0.81737 0.0
H1367 H 0.86391 0.24852 0.75559 0.0
H1368 H 0.76376 0.25568 0.72614 0.0
H1369 H 0.87491 0.21047 0.74556 0.0
H1370 H 0.76576 0.40203 0.80433 0.0
H1371 H 0.74909 0.18686 0.68148 0.0
H1372 H 0.7772 0.16232 0.68008 0.0
H1373 H 0.73471 0.36574 0.8007 0.0
H1374 H 0.81384 0.15798 0.69401 0.0
N1375 N 0.79242 0.24076 0.72093 0.0
C1376 C 0.77053 0.24153 0.71696 0.0
C1377 C 0.76127 0.20171 0.69242 0.0
C1378 C 0.78263 0.19954 0.69836 0.0
C1379 C 0.75508 0.22263 0.70222 0.0
C1380 C 0.79792 0.21946 0.71285 0.0
H1381 H 0.8499 0.17548 0.71894 0.0
N1382 N 0.83176 0.23563 0.73618 0.0
C1383 C 0.85881 0.21186 0.73863 0.0
C1384 C 0.81821 0.21677 0.721 0.0
C1385 C 0.85221 0.23349 0.7445 0.0
C1386 C 0.84474 0.19224 0.72353 0.0
C1387 C 0.8242 0.19451 0.71445 0.0
O1388 O 0.85609 0.28372 0.74422 0.0
O1389 O 0.82792 0.30636 0.7675 0.0
O1390 O 0.7835 0.30879 0.76342 0.0
O1391 O 0.79383 0.28613 0.72907 0.0
O1392 O 0.82436 0.30622 0.73164 0.0
O1393 O 0.83653 0.2691 0.71042 0.0
O1394 O 0.80267 0.28443 0.82011 0.0
O1395 O 0.80475 0.2707 0.77286 0.0
O1396 O 0.83539 0.26479 0.77596 0.0
O1397 O 0.83962 0.30199 0.79978 0.0
O1398 O 0.77624 0.27457 0.78732 0.0
O1399 O 0.80939 0.32263 0.83013 0.0
C1400 C 0.82877 0.31971 0.75259 0.0
C1401 C 0.86976 0.29925 0.71235 0.0
C1402 C 0.87375 0.33141 0.6904 0.0
C1403 C 0.86045 0.3119 0.69767 0.0
C1404 C 0.89656 0.33795 0.69797 0.0
C1405 C 0.89253 0.30612 0.71965 0.0
C1406 C 0.90582 0.32536 0.7125 0.0
C1407 C 0.78112 0.29988 0.74005 0.0
C1408 C 0.85619 0.27961 0.72135 0.0
C1409 C 0.80948 0.17512 0.69927 0.0
C1410 C 0.78871 0.17764 0.69123 0.0
C1411 C 0.78536 0.25973 0.77417 0.0
C1412 C 0.79045 0.3005 0.85588 0.0
C1413 C 0.79412 0.28628 0.87185 0.0
C1414 C 0.78009 0.28288 0.88954 0.0
C1415 C 0.76208 0.29388 0.89107 0.0
C1416 C 0.77265 0.31175 0.85773 0.0
C1417 C 0.7585 0.30837 0.87527 0.0
C1418 C 0.84559 0.28129 0.79478 0.0
C1419 C 0.80551 0.30276 0.83751 0.0
H1420 H 0.84283 0.30685 0.69225 0.0
H1421 H 0.90737 0.35252 0.69234 0.0
H1422 H 0.9 0.29666 0.73108 0.0
H1423 H 0.92338 0.33052 0.7182 0.0
H1424 H 0.80779 0.27743 0.87018 0.0
H1425 H 0.75098 0.29148 0.90457 0.0
H1426 H 0.76969 0.32307 0.84572 0.0
H1427 H 0.74472 0.31698 0.87663 0.0
Tb1428 Tb 0.83134 0.82115 0.78916 0.0
C1429 C 0.74079 0.76553 0.7736 0.0
C1430 C 0.73118 0.73578 0.79743 0.0
C1431 C 0.70513 0.75957 0.7896 0.0
C1432 C 0.74641 0.74843 0.78461 0.0
C1433 C 0.71966 0.77063 0.77526 0.0
C1434 C 0.71089 0.74216 0.8007 0.0
C1435 C 0.72767 0.79488 0.74631 0.0
N1436 N 0.75531 0.77575 0.75983 0.0
C1437 C 0.74845 0.78943 0.74534 0.0
C1438 C 0.71339 0.78589 0.7617 0.0
Tb1439 Tb 0.78984 0.76661 0.76179 0.0
N1440 N 0.76595 0.74251 0.78074 0.0
C1441 C 0.76993 0.72196 0.78646 0.0
C1442 C 0.73628 0.71629 0.80547 0.0
C1443 C 0.75549 0.70896 0.79942 0.0
H1444 H 0.75862 0.79672 0.73303 0.0
H1445 H 0.75922 0.69335 0.80474 0.0
H1446 H 0.69915 0.73298 0.81086 0.0
H1447 H 0.72272 0.80615 0.73518 0.0
H1448 H 0.78487 0.71631 0.78193 0.0
H1449 H 0.86111 0.88952 0.74011 0.0
H1450 H 0.72502 0.70612 0.81537 0.0
H1451 H 0.86074 0.79316 0.82168 0.0
H1452 H 0.83392 0.86579 0.76079 0.0
H1453 H 0.89809 0.78744 0.82565 0.0
H1454 H 0.68905 0.76363 0.79142 0.0
H1455 H 0.89861 0.88187 0.73801 0.0
H1456 H 0.92654 0.85995 0.75012 0.0
H1457 H 0.69731 0.79017 0.76238 0.0
H1458 H 0.93659 0.83221 0.77358 0.0
N1459 N 0.85572 0.84465 0.77013 0.0
C1460 C 0.85038 0.86255 0.76028 0.0
C1461 C 0.88676 0.87148 0.74719 0.0
C1462 C 0.89258 0.85429 0.75855 0.0
C1463 C 0.86567 0.87593 0.74842 0.0
C1464 C 0.87656 0.84125 0.77028 0.0
H1465 H 0.92629 0.80566 0.80224 0.0
N1466 N 0.86642 0.81467 0.7955 0.0
C1467 C 0.89382 0.79819 0.81361 0.0
C1468 C 0.88213 0.82576 0.78347 0.0
C1469 C 0.87229 0.80158 0.81112 0.0
C1470 C 0.90967 0.80845 0.80035 0.0
C1471 C 0.90404 0.82273 0.78531 0.0
O1472 O 0.83653 0.83349 0.82634 0.0
O1473 O 0.79736 0.80184 0.78413 0.0
O1474 O 0.79364 0.79274 0.73841 0.0
O1475 O 0.82895 0.81712 0.75056 0.0
O1476 O 0.80296 0.83709 0.78343 0.0
O1477 O 0.83368 0.85758 0.80323 0.0
O1478 O 0.79624 0.75714 0.72621 0.0
O1479 O 0.82378 0.7852 0.76843 0.0
O1480 O 0.82587 0.79806 0.81523 0.0
O1481 O 0.79816 0.76361 0.79847 0.0
O1482 O 0.81748 0.74923 0.76661 0.0
O1483 O 0.77374 0.73259 0.74126 0.0
C1484 C 0.78768 0.81845 0.78356 0.0
C1485 C 0.81581 0.86319 0.83789 0.0
C1486 C 0.78835 0.88784 0.84099 0.0
C1487 C 0.8068 0.88132 0.83101 0.0
C1488 C 0.77921 0.87637 0.85853 0.0
C1489 C 0.80664 0.85231 0.85579 0.0
C1490 C 0.78849 0.85893 0.86603 0.0
C1491 C 0.81146 0.80819 0.73465 0.0
C1492 C 0.83342 0.85461 0.82488 0.0
C1493 C 0.91979 0.83461 0.77265 0.0
C1494 C 0.91407 0.85037 0.75927 0.0
C1495 C 0.83312 0.76829 0.76914 0.0
C1496 C 0.79551 0.7163 0.71314 0.0
C1497 C 0.80329 0.70209 0.72726 0.0
C1498 C 0.81447 0.68455 0.71748 0.0
C1499 C 0.81758 0.68126 0.69328 0.0
C1500 C 0.79881 0.71272 0.68908 0.0
C1501 C 0.80975 0.69524 0.67922 0.0
C1502 C 0.81265 0.77721 0.81622 0.0
C1503 C 0.78454 0.73541 0.72319 0.0
H1504 H 0.81356 0.88969 0.81704 0.0
H1505 H 0.76499 0.88098 0.86654 0.0
H1506 H 0.81315 0.83836 0.86153 0.0
H1507 H 0.78134 0.85021 0.87957 0.0
H1508 H 0.80056 0.70451 0.74577 0.0
H1509 H 0.82637 0.66812 0.68528 0.0
H1510 H 0.79303 0.72357 0.67796 0.0
H1511 H 0.81234 0.69265 0.66064 0.0
Tb1512 Tb 0.53439 0.52144 0.51052 0.0
C1513 C 0.58692 0.61502 0.53756 0.0
C1514 C 0.61517 0.6266 0.51243 0.0
C1515 C 0.59373 0.65492 0.52861 0.0
C1516 C 0.60285 0.60933 0.52354 0.0
C1517 C 0.58259 0.6382 0.54081 0.0
C1518 C 0.61001 0.64911 0.5144 0.0
C1519 C 0.55773 0.62731 0.56914 0.0
N1520 N 0.57631 0.5982 0.54877 0.0
C1521 C 0.56243 0.60456 0.56521 0.0
C1522 C 0.56754 0.64407 0.55658 0.0
Tb1523 Tb 0.58416 0.56041 0.53954 0.0
N1524 N 0.60744 0.58751 0.5223 0.0
C1525 C 0.62625 0.58321 0.51265 0.0
C1526 C 0.63292 0.62114 0.50055 0.0
C1527 C 0.63879 0.59953 0.50113 0.0
H1528 H 0.55464 0.59261 0.57566 0.0
H1529 H 0.65305 0.59545 0.49283 0.0
H1530 H 0.61904 0.66244 0.5057 0.0
H1531 H 0.54644 0.63184 0.58187 0.0
H1532 H 0.6313 0.56668 0.51317 0.0
H1533 H 0.46648 0.48566 0.55816 0.0
H1534 H 0.64276 0.63388 0.49179 0.0
H1535 H 0.56444 0.48997 0.47464 0.0
H1536 H 0.48742 0.51446 0.5373 0.0
H1537 H 0.57339 0.45106 0.46859 0.0
H1538 H 0.59031 0.6726 0.53056 0.0
H1539 H 0.47755 0.44767 0.55936 0.0
H1540 H 0.50159 0.41955 0.54524 0.0
H1541 H 0.56376 0.66163 0.55957 0.0
H1542 H 0.5303 0.40982 0.52014 0.0
N1543 N 0.51183 0.49431 0.52838 0.0
C1544 C 0.49294 0.49825 0.53808 0.0
C1545 C 0.48709 0.46048 0.55046 0.0
C1546 C 0.50483 0.45528 0.53839 0.0
C1547 C 0.4808 0.48186 0.54981 0.0
C1548 C 0.51676 0.47263 0.52709 0.0
H1549 H 0.55661 0.42115 0.49104 0.0
N1550 N 0.54291 0.48401 0.50154 0.0
C1551 C 0.56201 0.45538 0.4813 0.0
C1552 C 0.53263 0.46714 0.51289 0.0
C1553 C 0.55687 0.4779 0.4851 0.0
C1554 C 0.55251 0.43854 0.49394 0.0
C1555 C 0.53736 0.44414 0.50971 0.0
O1556 O 0.52552 0.51084 0.47358 0.0
O1557 O 0.55531 0.55734 0.51511 0.0
O1558 O 0.56071 0.55473 0.56747 0.0
O1559 O 0.52639 0.53501 0.54721 0.0
O1560 O 0.52213 0.55447 0.51661 0.0
O1561 O 0.5012 0.5163 0.49742 0.0
O1562 O 0.59273 0.56938 0.57655 0.0
O1563 O 0.56333 0.52442 0.535 0.0
O1564 O 0.55734 0.52764 0.48241 0.0
O1565 O 0.59172 0.54768 0.50233 0.0
O1566 O 0.59644 0.52755 0.53227 0.0
O1567 O 0.61723 0.56485 0.55277 0.0
C1568 C 0.54056 0.56954 0.51676 0.0
C1569 C 0.49628 0.52732 0.46062 0.0
C1570 C 0.46926 0.55081 0.45326 0.0
C1571 C 0.47907 0.53834 0.46785 0.0
C1572 C 0.47755 0.55278 0.43145 0.0
C1573 C 0.50413 0.52944 0.43871 0.0
C1574 C 0.49494 0.54229 0.42438 0.0
C1575 C 0.53894 0.54617 0.56736 0.0
C1576 C 0.50525 0.51282 0.47547 0.0
C1577 C 0.52658 0.42736 0.52205 0.0
C1578 C 0.51032 0.43293 0.53641 0.0
C1579 C 0.57826 0.51243 0.53294 0.0
C1580 C 0.6203 0.54955 0.58723 0.0
C1581 C 0.63899 0.54086 0.58078 0.0
C1582 C 0.64583 0.52363 0.59158 0.0
C1583 C 0.63368 0.51522 0.60917 0.0
C1584 C 0.60854 0.54098 0.60497 0.0
C1585 C 0.6152 0.5239 0.6158 0.0
C1586 C 0.57901 0.53647 0.48226 0.0
C1587 C 0.61277 0.56662 0.57453 0.0
H1588 H 0.47322 0.53709 0.48491 0.0
H1589 H 0.47027 0.56185 0.41952 0.0
H1590 H 0.51723 0.52099 0.43255 0.0
H1591 H 0.50105 0.54376 0.40747 0.0
H1592 H 0.64792 0.54711 0.56684 0.0
H1593 H 0.63859 0.50218 0.61807 0.0
H1594 H 0.59408 0.54726 0.61034 0.0
H1595 H 0.606 0.51733 0.62939 0.0
Tb1596 Tb 0.08613 0.54682 0.01319 0.0
C1597 C 0.01334 0.49306 0.0633 0.0
C1598 C 0.99599 0.45745 0.03383 0.0
C1599 C 0.99607 0.45657 0.07564 0.0
C1600 C 0.00798 0.48158 0.03995 0.0
C1601 C 0.00688 0.481 0.0815 0.0
C1602 C 0.99065 0.44479 0.0518 0.0
C1603 C 0.01988 0.51876 0.10951 0.0
N1604 N 0.02343 0.51669 0.06808 0.0
C1605 C 0.02595 0.52989 0.09078 0.0
C1606 C 0.01067 0.49411 0.10491 0.0
Tb1607 Tb 0.03339 0.53348 0.0365 0.0
N1608 N 0.01307 0.49467 0.02329 0.0
C1609 C 0.00484 0.48513 1.00012 0.0
C1610 C 0.98896 0.44714 0.00996 0.0
C1611 C 0.99307 0.4612 0.99308 0.0
H1612 H 0.0332 0.54892 0.09461 0.0
H1613 H 0.98725 0.4536 0.97461 0.0
H1614 H 0.98167 0.42616 0.04746 0.0
H1615 H 0.02241 0.52921 0.12749 0.0
H1616 H 0.00787 0.49554 0.9867 0.0
H1617 H 0.13492 0.62455 0.0758 0.0
H1618 H 0.97978 0.42864 0.00448 0.0
H1619 H 0.08147 0.53362 0.95442 0.0
H1620 H 0.11293 0.58318 0.06321 0.0
H1621 H 0.09079 0.55461 0.92203 0.0
H1622 H 0.99118 0.44688 0.08936 0.0
H1623 H 0.14261 0.65018 0.04653 0.0
H1624 H 0.13969 0.65393 1.00394 0.0
H1625 H 0.00592 0.48555 0.11943 0.0
H1626 H 0.12782 0.63482 0.96197 0.0
N1627 N 0.1074 0.58504 0.02693 0.0
C1628 C 0.11609 0.59389 0.05005 0.0
C1629 C 0.1329 0.63191 0.04082 0.0
C1630 C 0.12515 0.62232 0.01697 0.0
C1631 C 0.12864 0.61748 0.05736 0.0
C1632 C 0.11249 0.59849 0.01054 0.0
H1633 H 0.10985 0.59763 0.9312 0.0
N1634 N 0.09476 0.56453 0.98183 0.0
C1635 C 0.0951 0.5642 0.94027 0.0
C1636 C 0.10594 0.58782 0.98709 0.0
C1637 C 0.08992 0.55234 0.95871 0.0
C1638 C 0.1058 0.5885 0.94551 0.0
C1639 C 0.11165 0.60055 0.96917 0.0
O1640 O 0.10512 0.52505 0.99438 0.0
O1641 O 0.05878 0.51899 0.01866 0.0
O1642 O 0.05652 0.52151 0.05894 0.0
O1643 O 0.09001 0.54374 0.05048 0.0
O1644 O 0.07172 0.51347 0.98715 0.0
O1645 O 0.11524 0.54328 0.03077 0.0
O1646 O 0.01472 0.55693 0.05306 0.0
O1647 O 0.06106 0.56087 0.03135 0.0
O1648 O 0.0628 0.56086 0.99329 0.0
O1649 O 0.03033 0.53524 0.99882 0.0
O1650 O 0.04755 0.56741 0.06223 0.0
O1651 O 0.00387 0.53541 0.01811 0.0
C1652 C 0.05739 0.5037 0.99948 0.0
C1653 C 0.14333 0.53415 0.00779 0.0
C1654 C 0.17917 0.52368 0.01071 0.0
C1655 C 0.15638 0.51858 0.01304 0.0
C1656 C 0.18866 0.54445 1.00272 0.0
C1657 C 0.153 0.55469 0.99969 0.0
C1658 C 0.17559 0.55973 0.99709 0.0
C1659 C 0.07826 0.52996 0.06314 0.0
C1660 C 0.12005 0.52927 0.0124 0.0
C1661 C 0.12342 0.62464 0.97545 0.0
C1662 C 0.13017 0.63552 0.99934 0.0
C1663 C 0.0625 0.57655 0.05017 0.0
C1664 C 0.97629 0.54591 0.04141 0.0
C1665 C 0.96208 0.56024 0.03568 0.0
C1666 C 0.93989 0.55547 0.04077 0.0
C1667 C 0.93235 0.53633 0.05199 0.0
C1668 C 0.96834 0.52688 0.05241 0.0
C1669 C 0.94649 0.5222 0.05774 0.0
C1670 C 0.04152 0.5507 0.9874 0.0
C1671 C 0.99923 0.55081 0.03544 0.0
H1672 H 0.14894 0.50287 0.01964 0.0
H1673 H 0.20617 0.54878 1.00071 0.0
H1674 H 0.14319 0.5669 0.99567 0.0
H1675 H 0.18304 0.57565 0.99091 0.0
H1676 H 0.96819 0.57477 0.0269 0.0
H1677 H 0.91552 0.53239 0.05655 0.0
H1678 H 0.97897 0.51565 0.05687 0.0
H1679 H 0.94047 0.50754 0.06634 0.0
H1680 H 0.0434 0.18191 0.92987 0.0
H1681 H 0.0189 0.20742 0.99573 0.0
H1682 H 0.05005 0.14752 0.94383 0.0
H1683 H 0.02368 0.1714 0.00944 0.0
H1684 H 0.044 0.10697 0.03428 0.0
H1685 H 0.04042 0.14491 0.02361 0.0
H1686 H 0.03842 0.1115 0.94965 0.0
H1687 H 0.044 0.07546 0.96059 0.0
C1688 C 0.03892 0.17989 0.94729 0.0
C1689 C 0.0303 0.19757 0.9614 0.0
C1690 C 0.04252 0.15967 0.95542 0.0
C1691 C 0.03689 0.15544 0.97783 0.0
C1692 C 0.02842 0.17342 0.99215 0.0
C1693 C 0.02546 0.19422 0.9842 0.0
C1694 C 0.04345 0.10816 0.01584 0.0
C1695 C 0.0452 0.08822 0.99842 0.0
C1696 C 0.04099 0.12994 0.00951 0.0
C1697 C 0.03955 0.1323 0.98549 0.0
C1698 C 0.04045 0.11174 0.96836 0.0
C1699 C 0.04339 0.0905 0.97467 0.0
H1700 H 0.15314 0.83189 0.19419 0.0
H1701 H 0.18557 0.81515 0.1313 0.0
H1702 H 0.18352 0.82458 0.21813 0.0
H1703 H 0.21621 0.80796 0.15536 0.0
H1704 H 0.25476 0.77125 0.20308 0.0
H1705 H 0.22532 0.7797 0.1784 0.0
H1706 H 0.22188 0.84005 0.23345 0.0
H1707 H 0.25098 0.83141 0.25815 0.0
C1708 C 0.16687 0.82687 0.18544 0.0
C1709 C 0.1668 0.82421 0.16071 0.0
C1710 C 0.18443 0.82273 0.19926 0.0
C1711 C 0.20252 0.81561 0.18885 0.0
C1712 C 0.20254 0.81313 0.16409 0.0
C1713 C 0.18501 0.81747 0.15026 0.0
C1714 C 0.24772 0.78632 0.20995 0.0
C1715 C 0.2554 0.80063 0.23271 0.0
C1716 C 0.23089 0.79131 0.19567 0.0
C1717 C 0.22103 0.81061 0.20377 0.0
C1718 C 0.22877 0.82488 0.22656 0.0
C1719 C 0.24568 0.82001 0.24073 0.0
H1720 H 0.56011 0.86412 0.42907 0.0
H1721 H 0.52088 0.84422 0.48416 0.0
H1722 H 0.56279 0.90609 0.44561 0.0
H1723 H 0.52377 0.8873 0.50111 0.0
H1724 H 0.55859 0.97425 0.52991 0.0
H1725 H 0.55266 0.93006 0.51971 0.0
H1726 H 0.53429 0.93062 0.44683 0.0
H1727 H 0.54014 0.97411 0.45694 0.0
C1728 C 0.55209 0.86862 0.44489 0.0
C1729 C 0.53998 0.85039 0.45495 0.0
C1730 C 0.5536 0.89294 0.45438 0.0
C1731 C 0.54313 0.90032 0.47445 0.0
C1732 C 0.53198 0.88233 0.48555 0.0
C1733 C 0.53037 0.85761 0.47586 0.0
C1734 C 0.55274 0.96481 0.51187 0.0
C1735 C 0.5498 0.97781 0.49422 0.0
C1736 C 0.54938 0.93945 0.50599 0.0
C1737 C 0.54334 0.92664 0.48231 0.0
C1738 C 0.53932 0.93974 0.46515 0.0
C1739 C 0.54257 0.96476 0.47097 0.0
H1740 H 0.54277 0.34301 0.66686 0.0
H1741 H 0.53769 0.26922 0.67148 0.0
H1742 H 0.50865 0.34292 0.68643 0.0
H1743 H 0.50362 0.2689 0.69029 0.0
H1744 H 0.43453 0.27074 0.71047 0.0
H1745 H 0.46344 0.2732 0.68339 0.0
H1746 H 0.50059 0.33875 0.72957 0.0
H1747 H 0.47191 0.33607 0.75675 0.0
C1748 C 0.53406 0.32664 0.67147 0.0
C1749 C 0.54287 0.30613 0.66766 0.0
C1750 C 0.51464 0.32661 0.68279 0.0
C1751 C 0.50341 0.30587 0.6899 0.0
C1752 C 0.51169 0.28507 0.68486 0.0
C1753 C 0.53127 0.28529 0.67415 0.0
C1754 C 0.44867 0.2859 0.71457 0.0
C1755 C 0.45101 0.30313 0.73579 0.0
C1756 C 0.46526 0.28727 0.69913 0.0
C1757 C 0.48433 0.30617 0.70434 0.0
C1758 C 0.48604 0.3241 0.72493 0.0
C1759 C 0.46969 0.32247 0.74056 0.0
H1760 H 0.01081 0.79045 0.58746 0.0
H1761 H 0.02028 0.85672 0.63961 0.0
H1762 H 0.01731 0.81314 0.55633 0.0
H1763 H 0.02648 0.87935 0.60842 0.0
H1764 H 0.06734 0.91062 0.55454 0.0
H1765 H 0.05723 0.88649 0.58375 0.0
H1766 H 1.00314 0.84064 0.53446 0.0
H1767 H 0.01326 0.86506 0.50507 0.0
C1768 C 0.01389 0.80984 0.59223 0.0
C1769 C 0.01523 0.82181 0.61605 0.0
C1770 C 0.01755 0.82282 0.57436 0.0
C1771 C 0.02273 0.84802 0.57997 0.0
C1772 C 0.02295 0.85993 0.60363 0.0
C1773 C 0.01922 0.84697 0.62147 0.0
C1774 C 0.05326 0.89541 0.54991 0.0
C1775 C 0.04094 0.88989 0.52759 0.0
C1776 C 0.04741 0.88166 0.56669 0.0
C1777 C 0.02913 0.86195 0.56157 0.0
C1778 C 0.0173 0.85576 0.53891 0.0
C1779 C 0.02315 0.86964 0.52206 0.0
H1780 H 0.53875 0.81477 0.87066 0.0
H1781 H 0.55133 0.80522 0.79714 0.0
H1782 H 0.50287 0.82272 0.86016 0.0
H1783 H 0.5154 0.81302 0.78673 0.0
H1784 H 0.44057 0.812 0.77751 0.0
H1785 H 0.47346 0.79761 0.78721 0.0
H1786 H 0.49521 0.8594 0.84487 0.0
H1787 H 0.46234 0.8738 0.83512 0.0
C1788 C 0.5336 0.81366 0.85219 0.0
C1789 C 0.54791 0.80958 0.83474 0.0
C1790 C 0.51319 0.81847 0.84625 0.0
C1791 C 0.50664 0.81886 0.82273 0.0
C1792 C 0.52013 0.81286 0.805 0.0
C1793 C 0.54066 0.80839 0.81097 0.0
C1794 C 0.45247 0.8225 0.79219 0.0
C1795 C 0.44906 0.84401 0.80557 0.0
C1796 C 0.4712 0.81428 0.79771 0.0
C1797 C 0.48664 0.82727 0.81693 0.0
C1798 C 0.48333 0.84889 0.83019 0.0
C1799 C 0.46475 0.85728 0.82445 0.0
H1800 H 0.52457 0.17565 0.1715 0.0
H1801 H 0.51152 0.20588 0.11104 0.0
H1802 H 0.52689 0.13856 0.14497 0.0
H1803 H 0.51432 0.16894 0.08458 0.0
H1804 H 0.5071 0.09287 0.04276 0.0
H1805 H 0.49777 0.12574 0.07036 0.0
H1806 H 0.55423 0.12844 0.11885 0.0
H1807 H 0.56352 0.09581 0.09151 0.0
C1808 C 0.52208 0.17436 0.15257 0.0
C1809 C 0.51814 0.19383 0.14339 0.0
C1810 C 0.52346 0.15313 0.13739 0.0
C1811 C 0.52099 0.15094 0.11272 0.0
C1812 C 0.5161 0.17001 0.10351 0.0
C1813 C 0.51466 0.19124 0.1187 0.0
C1814 C 0.51755 0.10055 0.05928 0.0
C1815 C 0.53633 0.09208 0.06469 0.0
C1816 C 0.51215 0.1193 0.0751 0.0
C1817 C 0.52532 0.12972 0.09671 0.0
C1818 C 0.5436 0.1206 0.10246 0.0
C1819 C 0.54901 0.10197 0.08667 0.0
H1820 H 0.19483 0.32483 0.39325 0.0
H1821 H 0.15982 0.32148 0.32551 0.0
H1822 H 0.22994 0.33149 0.37571 0.0
H1823 H 0.19461 0.32853 0.30827 0.0
H1824 H 0.26183 0.35178 0.28458 0.0
H1825 H 0.23054 0.35622 0.30767 0.0
H1826 H 0.24544 0.30444 0.34656 0.0
H1827 H 0.27632 0.30022 0.32378 0.0
C1828 C 0.19467 0.32576 0.37474 0.0
C1829 C 0.17461 0.32225 0.36067 0.0
C1830 C 0.2147 0.32959 0.36471 0.0
C1831 C 0.21497 0.33033 0.34056 0.0
C1832 C 0.19496 0.3281 0.32691 0.0
C1833 C 0.175 0.32384 0.33677 0.0
C1834 C 0.25832 0.3415 0.29815 0.0
C1835 C 0.27082 0.32497 0.3018 0.0
C1836 C 0.24056 0.34406 0.31138 0.0
C1837 C 0.23551 0.33059 0.32886 0.0
C1838 C 0.24901 0.31526 0.33343 0.0
C1839 C 0.26651 0.31253 0.32009 0.0
H1840 H 0.00758 0.08637 0.21899 0.0
H1841 H 0.94484 0.04949 0.17975 0.0
H1842 H 0.02545 0.082 0.18218 0.0
H1843 H 0.96258 0.04497 0.14296 0.0
H1844 H 1.00274 0.02164 0.08022 0.0
H1845 H 0.98497 0.02652 0.11692 0.0
H1846 H 0.03341 0.09241 0.1451 0.0
H1847 H 0.05089 0.08764 0.10816 0.0
C1848 C 0.9974 0.07731 0.20258 0.0
C1849 C 0.97438 0.0684 0.20313 0.0
C1850 C 0.0078 0.07484 0.18104 0.0
C1851 C 0.99594 0.06298 0.1586 0.0
C1852 C 0.9729 0.05399 0.15927 0.0
C1853 C 0.96248 0.05675 0.18075 0.0
C1854 C 0.00975 0.03732 0.09409 0.0
C1855 C 0.02882 0.05403 0.09044 0.0
C1856 C 0.99931 0.04023 0.11554 0.0
C1857 C 0.00732 0.05995 0.13502 0.0
C1858 C 0.02642 0.07668 0.13133 0.0
C1859 C 0.03668 0.07391 0.10972 0.0
H1860 H 0.28016 0.6619 0.42372 0.0
H1861 H 0.30138 0.72718 0.47751 0.0
H1862 H 0.26733 0.68454 0.39662 0.0
H1863 H 0.28838 0.74972 0.45048 0.0
H1864 H 0.21996 0.72739 0.37026 0.0
H1865 H 0.23622 0.70516 0.39552 0.0
H1866 H 0.29501 0.76273 0.41272 0.0
H1867 H 0.27853 0.78517 0.38798 0.0
C1868 C 0.28238 0.68112 0.42964 0.0
C1869 C 0.29168 0.69275 0.45278 0.0
C1870 C 0.27486 0.69403 0.4142 0.0
C1871 C 0.27663 0.71882 0.42154 0.0
C1872 C 0.28689 0.73064 0.44429 0.0
C1873 C 0.2943 0.71772 0.45978 0.0
C1874 C 0.23625 0.73535 0.37963 0.0
C1875 C 0.24797 0.75799 0.37721 0.0
C1876 C 0.24568 0.72252 0.39382 0.0
C1877 C 0.26694 0.73217 0.40597 0.0
C1878 C 0.27857 0.7549 0.40366 0.0
C1879 C 0.2692 0.76766 0.3894 0.0
H1880 H 0.69661 0.02786 0.65432 0.0
H1881 H 0.64558 0.97054 0.66744 0.0
H1882 H 0.67344 0.03092 0.62042 0.0
H1883 H 0.62272 0.97221 0.63241 0.0
H1884 H 0.57584 1.00775 0.59537 0.0
H1885 H 0.60063 0.99686 0.62318 0.0
H1886 H 0.65525 0.01843 0.58323 0.0
H1887 H 0.63095 0.03132 0.55711 0.0
C1888 C 0.68084 0.01507 0.64917 0.0
C1889 C 0.67285 0.99897 0.66343 0.0
C1890 C 0.6674 0.01681 0.62969 0.0
C1891 C 0.64584 1.00213 0.62378 0.0
C1892 C 0.63885 0.98438 0.63679 0.0
C1893 C 0.6521 0.98305 0.6566 0.0
C1894 C 0.59316 0.01044 0.59274 0.0
C1895 C 0.60139 0.02111 0.57437 0.0
C1896 C 0.60743 1.00377 0.60847 0.0
C1897 C 0.63018 1.00691 0.60572 0.0
C1898 C 0.63807 0.01637 0.58649 0.0
C1899 C 0.62396 0.02368 0.5713 0.0
H1900 H 0.29297 0.38563 0.94291 0.0
H1901 H 0.33346 0.34144 0.9666 0.0
H1902 H 0.29395 0.3662 0.90213 0.0
H1903 H 0.33473 0.32191 0.92496 0.0
H1904 H 0.3078 0.28283 0.84145 0.0
H1905 H 0.30999 0.29609 0.88498 0.0
H1906 H 0.32574 0.36992 0.87783 0.0
H1907 H 0.32305 0.35681 0.83509 0.0
C1908 C 0.30202 0.37161 0.93941 0.0
C1909 C 0.31342 0.36538 0.95805 0.0
C1910 C 0.30265 0.3605 0.91595 0.0
C1911 C 0.31489 0.34293 0.91022 0.0
C1912 C 0.32526 0.33549 0.92882 0.0
C1913 C 0.32451 0.34664 0.95262 0.0
C1914 C 0.31234 0.30183 0.84941 0.0
C1915 C 0.31537 0.31885 0.83501 0.0
C1916 C 0.31353 0.30942 0.87424 0.0
C1917 C 0.31755 0.33407 0.88479 0.0
C1918 C 0.32209 0.35083 0.87028 0.0
C1919 C 0.32071 0.34333 0.84579 0.0
H1920 H 0.01436 0.05091 0.34051 0.0
H1921 H 0.96217 0.08058 0.37078 0.0
H1922 H 0.0283 0.04693 0.37899 0.0
H1923 H 0.97671 0.07724 0.4102 0.0
H1924 H 0.99732 0.05468 0.47935 0.0
H1925 H 0.9832 0.05893 0.44066 0.0
H1926 H 0.04682 0.05663 0.41578 0.0
H1927 H 0.06072 0.05199 0.45483 0.0
C1928 C 0.00574 0.05697 0.35539 0.0
C1929 C 0.98675 0.06625 0.35146 0.0
C1930 C 0.01409 0.05473 0.37812 0.0
C1931 C 0.00417 0.0616 0.39899 0.0
C1932 C 0.98522 0.07122 0.39525 0.0
C1933 C 0.97677 0.07347 0.37224 0.0
C1934 C 0.00842 0.05484 0.46563 0.0
C1935 C 0.03032 0.0525 0.47092 0.0
C1936 C 1.00021 0.05759 0.44301 0.0
C1937 C 0.01338 0.05842 0.42387 0.0
C1938 C 0.03543 0.05592 0.42915 0.0
C1939 C 0.04367 0.05314 0.45197 0.0
H1940 H 0.31284 0.65984 0.60826 0.0
H1941 H 0.31669 0.71728 0.57044 0.0
H1942 H 0.31344 0.6881 0.64533 0.0
H1943 H 0.31681 0.7456 0.60775 0.0
H1944 H 0.33169 0.78986 0.68755 0.0
H1945 H 0.33624 0.76603 0.64897 0.0
H1946 H 0.28407 0.70808 0.65915 0.0
H1947 H 0.28009 0.73106 0.69735 0.0
C1948 C 0.31407 0.67855 0.60787 0.0
C1949 C 0.31437 0.68621 0.58635 0.0
C1950 C 0.3143 0.69474 0.62911 0.0
C1951 C 0.31462 0.71896 0.62935 0.0
C1952 C 0.31649 0.72705 0.60809 0.0
C1953 C 0.31639 0.7108 0.58674 0.0
C1954 C 0.32137 0.77201 0.68159 0.0
C1955 C 0.30633 0.76204 0.69615 0.0
C1956 C 0.32384 0.75844 0.65942 0.0
C1957 C 0.31109 0.73482 0.65148 0.0
C1958 C 0.29478 0.72582 0.66518 0.0
C1959 C 0.29242 0.73919 0.68712 0.0
H1960 H 0.61687 0.06781 0.76006 0.0
H1961 H 0.65957 0.03945 0.80306 0.0
H1962 H 0.5945 0.07435 0.79263 0.0
H1963 H 0.63721 0.04641 0.83589 0.0
H1964 H 0.57292 0.10439 0.86468 0.0
H1965 H 0.59637 0.09935 0.83254 0.0
H1966 H 0.59937 0.02924 0.84444 0.0
H1967 H 0.57593 0.03423 0.87642 0.0
C1968 C 0.62159 0.06311 0.77652 0.0
C1969 C 0.63995 0.05296 0.77892 0.0
C1970 C 0.60882 0.06702 0.79523 0.0
C1971 C 0.61407 0.06083 0.81674 0.0
C1972 C 0.63263 0.05106 0.81935 0.0
C1973 C 0.64549 0.04721 0.80062 0.0
C1974 C 0.57838 0.0878 0.8602 0.0
C1975 C 0.57268 0.06974 0.87307 0.0
C1976 C 0.59186 0.08495 0.8419 0.0
C1977 C 0.59984 0.06398 0.83616 0.0
C1978 C 0.59384 0.04579 0.8488 0.0
C1979 C 0.58036 0.04862 0.86704 0.0
H1980 H 0.29229 0.32818 0.08879 0.0
H1981 H 0.34505 0.38758 0.12468 0.0
H1982 H 0.28965 0.3127 0.12511 0.0
H1983 H 0.34306 0.37179 0.16056 0.0
H1984 H 0.3031 0.28112 0.19038 0.0
H1985 H 0.30596 0.29443 0.15286 0.0
H1986 H 0.32046 0.36828 0.19124 0.0
H1987 H 0.31798 0.3549 0.22836 0.0
C1988 C 0.30355 0.33775 0.10432 0.0
C1989 C 0.31878 0.35923 0.10382 0.0
C1990 C 0.3021 0.32882 0.12519 0.0
C1991 C 0.31595 0.34108 0.14605 0.0
C1992 C 0.33168 0.36211 0.14516 0.0
C1993 C 0.33298 0.37111 0.12444 0.0
C1994 C 0.30684 0.30018 0.19071 0.0
C1995 C 0.31072 0.31696 0.21241 0.0
C1996 C 0.30844 0.30786 0.16918 0.0
C1997 C 0.31376 0.33252 0.16883 0.0
C1998 C 0.31702 0.34918 0.19064 0.0
C1999 C 0.31559 0.34151 0.21205 0.0
H2000 H 0.30164 0.02107 0.04618 0.0
H2001 H 0.24418 0.96258 0.03906 0.0
H2002 H 0.27922 0.04977 0.0589 0.0
H2003 H 0.22159 0.99125 0.05101 0.0
H2004 H 0.18735 0.04499 0.08744 0.0
H2005 H 0.21414 0.01983 0.08338 0.0
H2006 H 0.25102 0.06535 0.04169 0.0
H2007 H 0.2245 0.09083 0.04646 0.0
C2008 C 0.2842 0.01435 0.0473 0.0
C2009 C 0.27462 0.98958 0.0415 0.0
C2010 C 0.27135 0.03081 0.05453 0.0
C2011 C 0.24861 0.02286 0.05598 0.0
C2012 C 0.23913 0.99802 0.05051 0.0
C2013 C 0.25202 0.98155 0.04345 0.0
C2014 C 0.20151 0.04985 0.0779 0.0
C2015 C 0.20388 0.0697 0.06715 0.0
C2016 C 0.21672 0.03536 0.07537 0.0
C2017 C 0.23449 0.0403 0.06182 0.0
C2018 C 0.23761 0.0611 0.05237 0.0
C2019 C 0.22247 0.07574 0.0551 0.0
H2020 H 0.73215 0.61449 0.9768 0.0
H2021 H 0.70992 0.67955 1.00051 0.0
H2022 H 0.69538 0.59062 0.97916 0.0
H2023 H 0.673 0.65561 1.0026 0.0
H2024 H 0.62513 0.60549 0.03897 0.0
H2025 H 0.65896 0.62978 0.02987 0.0
H2026 H 0.65562 0.57939 0.96358 0.0
H2027 H 0.62134 0.55485 0.97263 0.0
C2028 C 0.7193 0.62371 0.98211 0.0
C2029 C 0.72403 0.64892 0.98875 0.0
C2030 C 0.69818 0.61001 0.98333 0.0
C2031 C 0.68134 0.6212 0.99132 0.0
C2032 C 0.68575 0.64645 0.99674 0.0
C2033 C 0.70685 0.66017 0.9954 0.0
C2034 C 0.63142 0.59952 0.02236 0.0
C2035 C 0.62051 0.57803 0.00661 0.0
C2036 C 0.6508 0.61363 0.01706 0.0
C2037 C 0.65993 0.60664 0.99593 0.0
C2038 C 0.64904 0.5852 0.98008 0.0
C2039 C 0.62945 0.57111 0.98529 0.0
H2040 H 0.74738 0.46493 0.2942 0.0
H2041 H 0.69856 0.41742 0.2406 0.0
H2042 H 0.76617 0.43223 0.29606 0.0
H2043 H 0.71785 0.38483 0.24182 0.0
H2044 H 0.77051 0.33407 0.23724 0.0
H2045 H 0.75219 0.36712 0.23346 0.0
H2046 H 0.76373 0.39338 0.30894 0.0
H2047 H 0.78105 0.36017 0.31266 0.0
C2048 C 0.74052 0.44762 0.28256 0.0
C2049 C 0.72093 0.44468 0.26726 0.0
C2050 C 0.75148 0.42843 0.28369 0.0
C2051 C 0.74409 0.40497 0.2691 0.0
C2052 C 0.72472 0.40215 0.25343 0.0
C2053 C 0.71337 0.42119 0.25279 0.0
C2054 C 0.76949 0.347 0.25308 0.0
C2055 C 0.77821 0.34405 0.27532 0.0
C2056 C 0.7586 0.36618 0.25096 0.0
C2057 C 0.75606 0.38391 0.27084 0.0
C2058 C 0.76511 0.38093 0.29288 0.0
C2059 C 0.77531 0.36152 0.29505 0.0
H2060 H 0.89067 0.52709 0.51829 0.0
H2061 H 0.89331 0.45506 0.52419 0.0
H2062 H 0.93063 0.53684 0.51639 0.0
H2063 H 0.93318 0.46472 0.52178 0.0
H2064 H 0.9993 0.48553 0.48846 0.0
H2065 H 0.95912 0.4754 0.49069 0.0
H2066 H 0.96531 0.54047 0.54365 0.0
H2067 H 0.00516 0.55036 0.5414 0.0
C2068 C 0.89978 0.51337 0.5192 0.0
C2069 C 0.88886 0.49035 0.52147 0.0
C2070 C 0.92263 0.51894 0.51809 0.0
C2071 C 0.93494 0.50144 0.51869 0.0
C2072 C 0.92404 0.47845 0.52099 0.0
C2073 C 0.90127 0.47302 0.52259 0.0
C2074 C 0.99189 0.49763 0.50038 0.0
C2075 C 0.005 0.51906 0.51416 0.0
C2076 C 0.96905 0.49182 0.5018 0.0
C2077 C 0.95912 0.50729 0.5172 0.0
C2078 C 0.97245 0.52846 0.53133 0.0
C2079 C 0.9952 0.53418 0.52994 0.0
H2080 H 0.34701 0.06937 0.26893 0.0
H2081 H 0.40293 0.12859 0.29678 0.0
H2082 H 0.32827 0.09643 0.25278 0.0
H2083 H 0.38411 0.15561 0.28092 0.0
H2084 H 0.35822 0.18667 0.22054 0.0
H2085 H 0.37499 0.16091 0.24087 0.0
H2086 H 0.31146 0.13122 0.2623 0.0
H2087 H 0.29458 0.15659 0.24139 0.0
C2088 C 0.35511 0.08823 0.27202 0.0
C2089 C 0.37653 0.09677 0.28397 0.0
C2090 C 0.34437 0.10375 0.26279 0.0
C2091 C 0.35484 0.12811 0.26527 0.0
C2092 C 0.37578 0.13685 0.27829 0.0
C2093 C 0.38648 0.12138 0.28755 0.0
C2094 C 0.34782 0.17449 0.22942 0.0
C2095 C 0.32507 0.17352 0.22923 0.0
C2096 C 0.35746 0.15996 0.24134 0.0
C2097 C 0.34456 0.14406 0.25329 0.0
C2098 C 0.32181 0.14314 0.25313 0.0
C2099 C 0.31218 0.15778 0.24131 0.0
H2100 H 0.33124 0.09594 0.4962 0.0
H2101 H 0.36941 0.16516 0.53409 0.0
H2102 H 0.36232 0.07811 0.50293 0.0
H2103 H 0.4005 0.14711 0.54202 0.0
H2104 H 0.45698 0.10778 0.54332 0.0
H2105 H 0.42931 0.12736 0.52924 0.0
H2106 H 0.37757 0.06726 0.53599 0.0
H2107 H 0.40504 0.04727 0.54857 0.0
C2108 C 0.34649 0.10741 0.50573 0.0
C2109 C 0.34792 0.13189 0.51469 0.0
C2110 C 0.36425 0.09715 0.50987 0.0
C2111 C 0.3838 0.11096 0.52362 0.0
C2112 C 0.38575 0.13587 0.53133 0.0
C2113 C 0.36798 0.14627 0.52678 0.0
C2114 C 0.4397 0.09858 0.54141 0.0
C2115 C 0.43332 0.07589 0.54717 0.0
C2116 C 0.4238 0.10996 0.53358 0.0
C2117 C 0.40111 0.09893 0.5313 0.0
C2118 C 0.39484 0.07622 0.53701 0.0
C2119 C 0.41066 0.06485 0.54467 0.0
H2120 H 0.6997 0.6048 0.24353 0.0
H2121 H 0.74295 0.59777 0.3012 0.0
H2122 H 0.72134 0.64473 0.24472 0.0
H2123 H 0.76447 0.63898 0.30352 0.0
H2124 H 0.80734 0.71279 0.2955 0.0
H2125 H 0.78855 0.67096 0.29356 0.0
H2126 H 0.72947 0.68374 0.26047 0.0
H2127 H 0.74866 0.72446 0.26104 0.0
C2128 C 0.71394 0.61181 0.25664 0.0
C2129 C 0.7193 0.5975 0.27218 0.0
C2130 C 0.72642 0.63531 0.25763 0.0
C2131 C 0.74481 0.64637 0.27469 0.0
C2132 C 0.75065 0.63176 0.28996 0.0
C2133 C 0.73824 0.6078 0.28864 0.0
C2134 C 0.79049 0.70658 0.28737 0.0
C2135 C 0.78006 0.72251 0.27788 0.0
C2136 C 0.7794 0.68231 0.2865 0.0
C2137 C 0.75715 0.6728 0.27637 0.0
C2138 C 0.74665 0.68918 0.26766 0.0
C2139 C 0.75779 0.71316 0.26824 0.0
H2140 H 0.92895 0.44933 0.75633 0.0
H2141 H 0.87459 0.47438 0.78772 0.0
H2142 H 0.90735 0.40821 0.74903 0.0
H2143 H 0.85312 0.433 0.78082 0.0
H2144 H 0.87245 0.33676 0.76618 0.0
H2145 H 0.89375 0.37809 0.77095 0.0
H2146 H 0.83448 0.39919 0.74923 0.0
H2147 H 0.81329 0.35772 0.74484 0.0
C2148 C 0.91243 0.44609 0.76184 0.0
C2149 C 0.90356 0.46521 0.77274 0.0
C2150 C 0.90008 0.42245 0.75771 0.0
C2151 C 0.87856 0.41728 0.76445 0.0
C2152 C 0.86958 0.43638 0.77521 0.0
C2153 C 0.88195 0.4601 0.77932 0.0
C2154 C 0.86408 0.3504 0.76267 0.0
C2155 C 0.84123 0.3446 0.75612 0.0
C2156 C 0.87624 0.37395 0.76508 0.0
C2157 C 0.86576 0.39202 0.76073 0.0
C2158 C 0.84294 0.38582 0.75322 0.0
C2159 C 0.83083 0.36219 0.75068 0.0
H2160 H 0.07286 0.89326 0.11535 0.0
H2161 H 0.11074 0.87755 0.05679 0.0
H2162 H 0.06578 0.92779 0.1015 0.0
H2163 H 0.10468 0.91328 0.04331 0.0
H2164 H 0.07887 0.97418 0.01618 0.0
H2165 H 0.08362 0.93627 0.02631 0.0
H2166 H 0.07995 0.96625 0.09997 0.0
H2167 H 0.07409 1.00273 0.08961 0.0
C2168 C 0.07994 0.89729 0.09955 0.0
C2169 C 0.09258 0.8824 0.08746 0.0
C2170 C 0.07603 0.91751 0.09158 0.0
C2171 C 0.08496 0.92428 0.07133 0.0
C2172 C 0.0973 0.90905 0.05887 0.0
C2173 C 0.10094 0.88845 0.06672 0.0
C2174 C 0.07861 0.97234 0.03442 0.0
C2175 C 0.07533 0.99144 0.05193 0.0
C2176 C 0.08166 0.95061 0.0404 0.0
C2177 C 0.08185 0.9474 0.06412 0.0
C2178 C 0.07917 0.967 0.08143 0.0
C2179 C 0.07599 0.98834 0.07547 0.0
H2180 H 0.96254 0.23854 0.8434 0.0
H2181 H 0.94879 0.28204 0.90742 0.0
H2182 H 0.92798 0.24107 0.82304 0.0
H2183 H 0.91394 0.28479 0.887 0.0
H2184 H 0.87374 0.31282 0.8313 0.0
H2185 H 0.90372 0.30526 0.85584 0.0
H2186 H 0.88769 0.231 0.81898 0.0
H2187 H 0.85756 0.23847 0.79473 0.0
C2188 C 0.95165 0.2479 0.85341 0.0
C2189 C 0.95823 0.25958 0.87723 0.0
C2190 C 0.93181 0.2495 0.84166 0.0
C2191 C 0.91804 0.26331 0.85319 0.0
C2192 C 0.92414 0.27417 0.8774 0.0
C2193 C 0.94394 0.27224 0.8893 0.0
C2194 C 0.87649 0.29482 0.82847 0.0
C2195 C 0.8634 0.27642 0.81052 0.0
C2196 C 0.89367 0.29043 0.84273 0.0
C2197 C 0.89839 0.26751 0.83944 0.0
C2198 C 0.8849 0.24898 0.82187 0.0
C2199 C 0.86762 0.25332 0.80779 0.0
H2200 H 0.60895 0.23788 0.5606 0.0
H2201 H 0.57334 0.22148 0.61917 0.0
H2202 H 0.60381 0.19437 0.54408 0.0
H2203 H 0.56807 0.17887 0.60292 0.0
H2204 H 0.5879 0.10921 0.59098 0.0
H2205 H 0.59411 0.1527 0.60057 0.0
H2206 H 0.57575 0.15251 0.52747 0.0
H2207 H 0.56957 0.10829 0.51779 0.0
C2208 C 0.59952 0.2251 0.56959 0.0
C2209 C 0.59161 0.23329 0.5913 0.0
C2210 C 0.59668 0.20013 0.56021 0.0
C2211 C 0.58596 0.18291 0.57242 0.0
C2212 C 0.57694 0.19137 0.59325 0.0
C2213 C 0.57979 0.21596 0.60251 0.0
C2214 C 0.58549 0.11839 0.5768 0.0
C2215 C 0.57828 0.10513 0.55363 0.0
C2216 C 0.5889 0.14343 0.58234 0.0
C2217 C 0.585 0.15635 0.56496 0.0
C2218 C 0.57888 0.14328 0.54137 0.0
C2219 C 0.5754 0.11791 0.53579 0.0
H2220 H 0.56248 0.75984 0.35525 0.0
H2221 H 0.60966 0.77309 0.41679 0.0
H2222 H 0.59241 0.76514 0.33044 0.0
H2223 H 0.63996 0.7774 0.39167 0.0
H2224 H 0.68915 0.80812 0.34179 0.0
H2225 H 0.66062 0.80181 0.36876 0.0
H2226 H 0.619 0.74745 0.31294 0.0
H2227 H 0.64705 0.75466 0.28604 0.0
C2228 C 0.5793 0.76361 0.36348 0.0
C2229 C 0.58361 0.76597 0.38805 0.0
C2230 C 0.59659 0.76648 0.34915 0.0
C2231 C 0.61883 0.77146 0.35882 0.0
C2232 C 0.62315 0.77382 0.38349 0.0
C2233 C 0.60576 0.7712 0.39792 0.0
C2234 C 0.67395 0.7947 0.33546 0.0
C2235 C 0.67025 0.78208 0.31173 0.0
C2236 C 0.65755 0.79099 0.35092 0.0
C2237 C 0.63716 0.77434 0.34309 0.0
C2238 C 0.63407 0.76097 0.31958 0.0
C2239 C 0.65026 0.76494 0.30412 0.0
H2240 H 0.0907 0.23471 0.41163 0.0
H2241 H 0.09393 0.2984 0.46548 0.0
H2242 H 0.08281 0.21005 0.44092 0.0
H2243 H 0.08535 0.27372 0.49465 0.0
H2244 H 0.09526 0.22398 0.54524 0.0
H2245 H 0.10146 0.24968 0.51654 0.0
H2246 H 0.05493 0.19579 0.46463 0.0
H2247 H 0.04915 0.17001 0.4932 0.0
C2248 C 0.08953 0.24343 0.42969 0.0
C2249 C 0.09299 0.26851 0.43623 0.0
C2250 C 0.08486 0.22928 0.44648 0.0
C2251 C 0.0834 0.23986 0.47021 0.0
C2252 C 0.08666 0.26496 0.47665 0.0
C2253 C 0.09145 0.27912 0.45988 0.0
C2254 C 0.08617 0.2178 0.52778 0.0
C2255 C 0.07184 0.19493 0.52142 0.0
C2256 C 0.08969 0.23252 0.51131 0.0
C2257 C 0.07883 0.22476 0.48815 0.0
C2258 C 0.06396 0.20215 0.4821 0.0
C2259 C 0.06057 0.18741 0.4985 0.0
H2260 H 0.56277 0.28807 0.24251 0.0
H2261 H 0.60117 0.29619 0.1836 0.0
H2262 H 0.59512 0.2834 0.26547 0.0
H2263 H 0.63354 0.29159 0.20667 0.0
H2264 H 0.69132 0.29864 0.26248 0.0
H2265 H 0.6603 0.31052 0.24408 0.0
H2266 H 0.61522 0.24941 0.25943 0.0
H2267 H 0.64614 0.23703 0.27712 0.0
C2268 C 0.57821 0.28929 0.23462 0.0
C2269 C 0.57941 0.29226 0.21117 0.0
C2270 C 0.59667 0.28649 0.24772 0.0
C2271 C 0.61673 0.28693 0.23775 0.0
C2272 C 0.61829 0.2913 0.21481 0.0
C2273 C 0.59975 0.29383 0.20159 0.0
C2274 C 0.67481 0.28766 0.26184 0.0
C2275 C 0.67125 0.26676 0.27114 0.0
C2276 C 0.65708 0.29456 0.25142 0.0
C2277 C 0.63541 0.2809 0.25039 0.0
C2278 C 0.63175 0.26047 0.26032 0.0
C2279 C 0.64947 0.25341 0.27049 0.0
H2280 H 0.62001 0.88614 0.93926 0.0
H2281 H 0.61221 0.90954 0.8735 0.0
H2282 H 0.61192 0.92292 0.9608 0.0
H2283 H 0.60406 0.94661 0.89527 0.0
H2284 H 0.55754 0.98636 0.94358 0.0
H2285 H 0.57164 0.95519 0.91845 0.0
H2286 H 0.62754 0.96732 0.9708 0.0
H2287 H 0.61372 0.99828 0.99571 0.0
C2288 C 0.61688 0.89932 0.92945 0.0
C2289 C 0.61667 0.89495 0.90471 0.0
C2290 C 0.61235 0.92043 0.9418 0.0
C2291 C 0.60732 0.93754 0.92966 0.0
C2292 C 0.60775 0.93358 0.90498 0.0
C2293 C 0.61259 0.91251 0.89261 0.0
C2294 C 0.57298 0.98258 0.94952 0.0
C2295 C 0.58419 0.99433 0.97187 0.0
C2296 C 0.58111 0.96486 0.93511 0.0
C2297 C 0.60053 0.9587 0.94288 0.0
C2298 C 0.61234 0.97145 0.96459 0.0
C2299 C 0.60432 0.98912 0.97888 0.0
H2300 H 0.95823 0.80271 0.71211 0.0
H2301 H 0.95713 0.73371 0.72902 0.0
H2302 H 0.92204 0.80184 0.72605 0.0
H2303 H 0.92024 0.73175 0.74135 0.0
H2304 H 0.86344 0.74563 0.78398 0.0
H2305 H 0.89974 0.74553 0.77016 0.0
H2306 H 0.88508 0.78547 0.71787 0.0
H2307 H 0.84981 0.78661 0.73279 0.0
C2308 C 0.95 0.78718 0.71848 0.0
C2309 C 0.96038 0.76833 0.7196 0.0
C2310 C 0.92917 0.78654 0.72636 0.0
C2311 C 0.918 0.76667 0.73488 0.0
C2312 C 0.9284 0.74761 0.7355 0.0
C2313 C 0.94948 0.7486 0.72824 0.0
C2314 C 0.86828 0.75452 0.76969 0.0
C2315 C 0.85452 0.76723 0.76029 0.0
C2316 C 0.88893 0.75428 0.76152 0.0
C2317 C 0.89571 0.76595 0.74311 0.0
C2318 C 0.88103 0.77722 0.73273 0.0
C2319 C 0.86073 0.77793 0.7413 0.0
H2320 H 0.10402 1.00707 0.83001 0.0
H2321 H 0.17036 0.02691 0.86465 0.0
H2322 H 0.08922 0.00904 0.86835 0.0
H2323 H 0.15546 0.02962 0.90353 0.0
H2324 H 0.11838 0.0576 0.97071 0.0
H2325 H 0.13523 0.05323 0.93318 0.0
H2326 H 0.08314 0.99107 0.90332 0.0
H2327 H 0.06699 0.99484 0.94101 0.0
C2328 C 0.11565 0.01152 0.84577 0.0
C2329 C 0.13867 0.01624 0.84339 0.0
C2330 C 0.107 0.01274 0.86816 0.0
C2331 C 0.12076 0.01956 0.88992 0.0
C2332 C 0.1439 0.02437 0.88767 0.0
C2333 C 0.15261 0.0225 0.86505 0.0
C2334 C 0.11042 0.04282 0.9563 0.0
C2335 C 0.09068 0.02685 0.95964 0.0
C2336 C 0.1203 0.04024 0.93443 0.0
C2337 C 0.11083 0.02182 0.91429 0.0
C2338 C 0.09118 1.00581 0.91772 0.0
C2339 C 0.08164 1.00806 0.93972 0.0
H2340 H 0.83319 0.43627 0.61798 0.0
H2341 H 0.82777 0.3719 0.56434 0.0
H2342 H 0.84209 0.41525 0.64846 0.0
H2343 H 0.83777 0.35121 0.59445 0.0
H2344 H 0.84112 0.31301 0.65342 0.0
H2345 H 0.82655 0.3342 0.62629 0.0
H2346 H 0.87109 0.40056 0.66311 0.0
H2347 H 0.88427 0.37971 0.69146 0.0
C2348 C 0.83397 0.41763 0.61273 0.0
C2349 C 0.82983 0.40571 0.58881 0.0
C2350 C 0.83921 0.4056 0.63016 0.0
C2351 C 0.84075 0.3815 0.62399 0.0
C2352 C 0.83633 0.36959 0.60001 0.0
C2353 C 0.83075 0.3815 0.58266 0.0
C2354 C 0.84745 0.33223 0.6561 0.0
C2355 C 0.86405 0.34459 0.67454 0.0
C2356 C 0.83933 0.34434 0.64027 0.0
C2357 C 0.84784 0.36907 0.64221 0.0
C2358 C 0.86398 0.38156 0.66108 0.0
C2359 C 0.87185 0.36951 0.67715 0.0
H2360 H 0.48794 0.09744 0.36792 0.0
H2361 H 0.43985 0.03672 0.37926 0.0
H2362 H 0.50683 0.10229 0.40732 0.0
H2363 H 0.45936 0.04009 0.41778 0.0
H2364 H 0.4969 0.0475 0.48641 0.0
H2365 H 0.47322 0.05651 0.45642 0.0
H2366 H 0.53065 0.08216 0.42191 0.0
H2367 H 0.55437 0.0752 0.45322 0.0
C2368 C 0.48104 0.08566 0.37929 0.0
C2369 C 0.46242 0.06688 0.37088 0.0
C2370 C 0.49208 0.08807 0.40166 0.0
C2371 C 0.48512 0.07116 0.41561 0.0
C2372 C 0.46526 0.05363 0.40782 0.0
C2373 C 0.45394 0.05165 0.38571 0.0
C2374 C 0.50455 0.05532 0.47259 0.0
C2375 C 0.5276 0.05995 0.47188 0.0
C2376 C 0.49087 0.0604 0.45524 0.0
C2377 C 0.4998 0.06969 0.43633 0.0
C2378 C 0.52298 0.07527 0.43622 0.0
C2379 C 0.5367 0.07079 0.45398 0.0
H2380 H 0.81697 0.74497 0.08477 0.0
H2381 H 0.75552 0.69956 0.09571 0.0
H2382 H 0.82153 0.76553 0.12678 0.0
H2383 H 0.76008 0.71997 0.13712 0.0
H2384 H 0.79939 0.72831 0.21018 0.0
H2385 H 0.79081 0.71621 0.16738 0.0
H2386 H 0.80284 0.79059 0.16229 0.0
H2387 H 0.81124 0.80281 0.20586 0.0
C2388 C 0.8042 0.73978 0.0959 0.0
C2389 C 0.7861 0.72029 0.08694 0.0
C2390 C 0.80678 0.7516 0.11991 0.0
C2391 C 0.7913 0.7441 0.13527 0.0
C2392 C 0.77243 0.72591 0.1258 0.0
C2393 C 0.76988 0.71419 0.10203 0.0
C2394 C 0.79981 0.7421 0.19999 0.0
C2395 C 0.80529 0.76643 0.21133 0.0
C2396 C 0.79491 0.73519 0.17548 0.0
C2397 C 0.79597 0.75243 0.16147 0.0
C2398 C 0.80183 0.77694 0.17269 0.0
C2399 C 0.80637 0.78391 0.19753 0.0
H2400 H 0.11125 1.00122 0.7025 0.0
H2401 H 0.17563 0.0237 0.68024 0.0
H2402 H 0.09408 1.00837 0.66596 0.0
H2403 H 0.15898 0.03167 0.64457 0.0
H2404 H 0.12769 0.03012 0.57114 0.0
H2405 H 0.1429 0.02369 0.608 0.0
H2406 H 0.08132 0.02717 0.6374 0.0
H2407 H 0.06567 0.03275 0.59916 0.0
C2408 C 0.12194 1.0077 0.68993 0.0
C2409 C 0.14523 0.01146 0.69501 0.0
C2410 C 0.11194 0.01205 0.66861 0.0
C2411 C 0.12454 0.02058 0.65094 0.0
C2412 C 0.14786 0.02459 0.65644 0.0
C2413 C 0.15776 0.02009 0.67754 0.0
C2414 C 0.11719 0.0298 0.5854 0.0
C2415 C 0.09526 0.03247 0.58137 0.0
C2416 C 0.12619 0.02616 0.60723 0.0
C2417 C 0.114 0.02493 0.6271 0.0
C2418 C 0.09184 0.02772 0.62322 0.0
C2419 C 0.0827 0.03127 0.601 0.0
H2420 H 0.82329 0.38172 0.46939 0.0
H2421 H 0.79979 0.4282 0.42916 0.0
H2422 H 0.8272 0.35501 0.43274 0.0
H2423 H 0.80306 0.40108 0.39249 0.0
H2424 H 0.83456 0.36447 0.33268 0.0
H2425 H 0.83205 0.38979 0.37051 0.0
H2426 H 0.80737 0.32674 0.39832 0.0
H2427 H 0.811 0.3013 0.36067 0.0
C2428 C 0.81864 0.38608 0.45272 0.0
C2429 C 0.81135 0.4072 0.45221 0.0
C2430 C 0.82084 0.3707 0.43169 0.0
C2431 C 0.81569 0.37603 0.40967 0.0
C2432 C 0.80767 0.39673 0.40917 0.0
C2433 C 0.8056 0.41218 0.43019 0.0
C2434 C 0.82883 0.35591 0.34688 0.0
C2435 C 0.82233 0.33079 0.34338 0.0
C2436 C 0.82715 0.37049 0.36854 0.0
C2437 C 0.81895 0.36033 0.38727 0.0
C2438 C 0.81365 0.33519 0.38423 0.0
C2439 C 0.8155 0.32059 0.36257 0.0
H2440 H 0.43211 1.0035 0.21749 0.0
H2441 H 0.48172 0.06788 0.2489 0.0
H2442 H 0.45801 0.99028 0.19078 0.0
H2443 H 0.50731 0.05525 0.22165 0.0
H2444 H 0.50298 0.98987 0.13017 0.0
H2445 H 0.47637 0.99863 0.15767 0.0
H2446 H 0.52945 0.02648 0.21449 0.0
H2447 H 0.55625 0.01903 0.18651 0.0
C2448 C 0.4484 0.01504 0.21833 0.0
C2449 C 0.45495 0.0367 0.23524 0.0
C2450 C 0.46327 1.00745 0.2031 0.0
C2451 C 0.48487 0.02153 0.20431 0.0
C2452 C 0.49104 0.04362 0.22069 0.0
C2453 C 0.47629 0.05104 0.23607 0.0
C2454 C 0.50894 0.99774 0.14859 0.0
C2455 C 0.53172 1.00422 0.15613 0.0
C2456 C 0.49365 1.00256 0.16441 0.0
C2457 C 0.5008 0.01368 0.1882 0.0
C2458 C 0.52347 0.01848 0.19612 0.0
C2459 C 0.53881 0.01386 0.1802 0.0
H2460 H 0.82134 0.69362 0.92529 0.0
H2461 H 0.80239 0.75712 0.96136 0.0
H2462 H 0.82486 0.70999 0.88972 0.0
H2463 H 0.80535 0.77332 0.92549 0.0
H2464 H 0.82822 0.80357 0.86118 0.0
H2465 H 0.82921 0.78932 0.89815 0.0
H2466 H 0.80151 0.71682 0.85918 0.0
H2467 H 0.80156 0.73095 0.82251 0.0
C2468 C 0.81805 0.71117 0.9257 0.0
C2469 C 0.81151 0.72399 0.94623 0.0
C2470 C 0.81988 0.72051 0.90517 0.0
C2471 C 0.81513 0.74292 0.90447 0.0
C2472 C 0.80932 0.75612 0.92531 0.0
C2473 C 0.80755 0.74678 0.94591 0.0
C2474 C 0.82234 0.7846 0.86051 0.0
C2475 C 0.81411 0.76854 0.83877 0.0
C2476 C 0.8228 0.77641 0.88178 0.0
C2477 C 0.81528 0.75187 0.88186 0.0
C2478 C 0.80757 0.73581 0.86 0.0
C2479 C 0.80713 0.74401 0.83884 0.0
H2480 H 0.86079 0.09886 0.0069 0.0
H2481 H 0.81162 0.03522 0.00988 0.0
H2482 H 0.88683 0.07417 0.99466 0.0
H2483 H 0.83701 0.01036 0.99632 0.0
H2484 H 0.89779 0.97911 0.00663 0.0
H2485 H 0.86836 1.00055 0.01166 0.0
H2486 H 0.89723 0.046 0.9654 0.0
H2487 H 0.92733 0.02512 0.96154 0.0
C2488 C 0.85547 0.07955 0.00454 0.0
C2489 C 0.83438 0.06897 0.00969 0.0
C2490 C 0.87029 0.06532 0.9973 0.0
C2491 C 0.8641 0.04019 0.99461 0.0
C2492 C 0.84257 0.02964 0.99876 0.0
C2493 C 0.82798 0.04388 0.00646 0.0
C2494 C 0.89748 0.99332 0.99713 0.0
C2495 C 0.91472 1.00057 0.98377 0.0
C2496 C 0.8806 1.00564 0.99994 0.0
C2497 C 0.88048 0.02525 0.98913 0.0
C2498 C 0.89707 0.03141 0.97446 0.0
C2499 C 0.91415 0.01933 0.97201 0.0
H2500 H 0.40011 0.41502 0.04166 0.0
H2501 H 0.38718 0.48583 0.05064 0.0
H2502 H 0.44005 0.43291 0.04589 0.0
H2503 H 0.42671 0.50356 0.05513 0.0
H2504 H 0.50044 0.52998 0.07547 0.0
H2505 H 0.46308 0.50924 0.08064 0.0
H2506 H 0.46307 0.45501 0.01816 0.0
H2507 H 0.49991 0.47586 0.01253 0.0
C2508 C 0.40581 0.43437 0.04508 0.0
C2509 C 0.39059 0.44903 0.0456 0.0
C2510 C 0.4286 0.44459 0.04739 0.0
C2511 C 0.43647 0.46963 0.0508 0.0
C2512 C 0.4212 0.48426 0.05275 0.0
C2513 C 0.39854 0.47407 0.04999 0.0
C2514 C 0.49248 0.51369 0.06281 0.0
C2515 C 0.50303 0.50502 0.04323 0.0
C2516 C 0.47115 0.50171 0.06589 0.0
C2517 C 0.46015 0.48053 0.04977 0.0
C2518 C 0.47119 0.47115 0.031 0.0
C2519 C 0.4923 0.48329 0.0277 0.0
H2520 H 0.36883 0.61879 0.78567 0.0
H2521 H 0.42705 0.6616 0.76566 0.0
H2522 H 0.34954 0.65153 0.78507 0.0
H2523 H 0.40762 0.69382 0.76419 0.0
H2524 H 0.35955 0.73713 0.7373 0.0
H2525 H 0.37771 0.70479 0.74094 0.0
H2526 H 0.34637 0.69599 0.80387 0.0
H2527 H 0.32881 0.72984 0.80087 0.0
C2528 C 0.37774 0.63508 0.78108 0.0
C2529 C 0.40002 0.63675 0.77576 0.0
C2530 C 0.36648 0.65425 0.78082 0.0
C2531 C 0.37648 0.67619 0.77451 0.0
C2532 C 0.39871 0.6777 0.76905 0.0
C2533 C 0.41013 0.65887 0.76998 0.0
C2534 C 0.35626 0.72853 0.75211 0.0
C2535 C 0.34185 0.7367 0.76839 0.0
C2536 C 0.36703 0.70961 0.75425 0.0
C2537 C 0.36406 0.69685 0.77272 0.0
C2538 C 0.34942 0.70468 0.78911 0.0
C2539 C 0.33901 0.72434 0.78732 0.0
H2540 H 0.22309 0.6448 0.53379 0.0
H2541 H 0.22932 0.5887 0.4755 0.0
H2542 H 0.18329 0.62905 0.5295 0.0
H2543 H 0.18923 0.57359 0.47022 0.0
H2544 H 0.11842 0.53919 0.48316 0.0
H2545 H 0.15865 0.55347 0.4861 0.0
H2546 H 0.15142 0.62675 0.50478 0.0
H2547 H 0.11149 0.61205 0.50326 0.0
C2548 C 0.21588 0.62919 0.51991 0.0
C2549 C 0.22927 0.618 0.50495 0.0
C2550 C 0.19301 0.62026 0.51727 0.0
C2551 C 0.1829 0.60022 0.49927 0.0
C2552 C 0.1964 0.58889 0.48443 0.0
C2553 C 0.21937 0.59759 0.48737 0.0
C2554 C 0.12568 0.55829 0.48825 0.0
C2555 C 0.11232 0.57457 0.49428 0.0
C2556 C 0.14862 0.56655 0.48957 0.0
C2557 C 0.15842 0.5913 0.49619 0.0
C2558 C 0.14461 0.60756 0.50055 0.0
C2559 C 0.12178 0.59924 0.49965 0.0
H2560 H 0.76023 0.98876 0.75831 0.0
H2561 H 0.70213 0.97479 0.79521 0.0
H2562 H 0.77665 0.96283 0.77856 0.0
H2563 H 0.71892 0.94981 0.81643 0.0
H2564 H 0.74442 0.88534 0.83011 0.0
H2565 H 0.72802 0.91251 0.81172 0.0
H2566 H 0.79291 0.95877 0.81453 0.0
H2567 H 0.80928 0.93084 0.83185 0.0
C2568 C 0.75109 0.98038 0.771 0.0
C2569 C 0.72986 0.98374 0.77509 0.0
C2570 C 0.76057 0.96561 0.78279 0.0
C2571 C 0.74918 0.95411 0.79925 0.0
C2572 C 0.72807 0.95791 0.8036 0.0
C2573 C 0.71847 0.97239 0.79154 0.0
C2574 C 0.75515 0.90135 0.82686 0.0
C2575 C 0.77817 0.90573 0.8321 0.0
C2576 C 0.74574 0.91708 0.81642 0.0
C2577 C 0.7591 0.93787 0.81138 0.0
C2578 C 0.78209 0.94268 0.81752 0.0
C2579 C 0.79151 0.92674 0.8276 0.0
H2580 H 0.77824 0.95994 0.55772 0.0
H2581 H 0.74247 0.89684 0.50694 0.0
H2582 H 0.7515 0.98217 0.547 0.0
H2583 H 0.71574 0.91924 0.49605 0.0
H2584 H 0.69415 0.97908 0.46279 0.0
H2585 H 0.71781 0.95433 0.4754 0.0
H2586 H 0.71113 0.98303 0.54853 0.0
H2587 H 0.68751 1.00785 0.53594 0.0
C2588 C 0.76452 0.95074 0.54444 0.0
C2589 C 0.7625 0.92664 0.53316 0.0
C2590 C 0.74916 0.96346 0.53836 0.0
C2591 C 0.73157 0.9525 0.5206 0.0
C2592 C 0.72924 0.92822 0.50965 0.0
C2593 C 0.74445 0.91536 0.51601 0.0
C2594 C 0.69777 0.98012 0.48156 0.0
C2595 C 0.68904 0.9955 0.49837 0.0
C2596 C 0.71112 0.96577 0.48876 0.0
C2597 C 0.71631 0.9667 0.51296 0.0
C2598 C 0.70751 0.98201 0.52977 0.0
C2599 C 0.69391 0.99611 0.52255 0.0
H2600 H 0.42479 0.47676 0.79481 0.0
H2601 H 0.37568 0.48571 0.74401 0.0
H2602 H 0.4034 0.43707 0.79507 0.0
H2603 H 0.35442 0.44477 0.74276 0.0
H2604 H 0.31346 0.37098 0.75096 0.0
H2605 H 0.33232 0.41253 0.75246 0.0
H2606 H 0.39269 0.39833 0.781 0.0
H2607 H 0.37334 0.35792 0.7812 0.0
C2608 C 0.40926 0.4702 0.78357 0.0
C2609 C 0.40212 0.48496 0.76959 0.0
C2610 C 0.3969 0.44682 0.78334 0.0
C2611 C 0.37689 0.43635 0.76846 0.0
C2612 C 0.36946 0.45145 0.75471 0.0
C2613 C 0.38173 0.47528 0.75539 0.0
C2614 C 0.33062 0.37683 0.75804 0.0
C2615 C 0.34135 0.3606 0.76654 0.0
C2616 C 0.34178 0.40098 0.75863 0.0
C2617 C 0.36445 0.41006 0.76732 0.0
C2618 C 0.37524 0.39333 0.77497 0.0
C2619 C 0.36399 0.36948 0.77481 0.0
H2620 H 0.24332 0.60069 0.25523 0.0
H2621 H 0.18404 0.6263 0.26763 0.0
H2622 H 0.26527 0.64193 0.26503 0.0
H2623 H 0.20592 0.6673 0.27896 0.0
H2624 H 0.24722 0.73929 0.27152 0.0
H2625 H 0.22506 0.69833 0.26398 0.0
H2626 H 0.28003 0.67583 0.29489 0.0
H2627 H 0.30234 0.71698 0.30136 0.0
C2628 C 0.23504 0.61516 0.2603 0.0
C2629 C 0.21196 0.61031 0.26044 0.0
C2630 C 0.24763 0.63883 0.26617 0.0
C2631 C 0.23747 0.65816 0.27286 0.0
C2632 C 0.21437 0.65309 0.27339 0.0
C2633 C 0.20177 0.62952 0.26699 0.0
C2634 C 0.2545 0.72544 0.27647 0.0
C2635 C 0.27665 0.73081 0.28599 0.0
C2636 C 0.24173 0.70199 0.27254 0.0
C2637 C 0.25074 0.68347 0.27854 0.0
C2638 C 0.27268 0.68935 0.28936 0.0
C2639 C 0.28547 0.71287 0.29317 0.0
H2640 H 0.5279 0.67408 0.42829 0.0
H2641 H 0.52933 0.7146 0.49932 0.0
H2642 H 0.5331 0.63939 0.44399 0.0
H2643 H 0.53411 0.67961 0.51506 0.0
H2644 H 0.51563 0.6018 0.53057 0.0
H2645 H 0.51277 0.63777 0.51592 0.0
H2646 H 0.56112 0.62468 0.46768 0.0
H2647 H 0.56425 0.58876 0.48283 0.0
C2648 C 0.52918 0.67565 0.4473 0.0
C2649 C 0.52801 0.69742 0.4624 0.0
C2650 C 0.53237 0.65566 0.45636 0.0
C2651 C 0.53411 0.65639 0.48092 0.0
C2652 C 0.53273 0.67809 0.49605 0.0
C2653 C 0.52999 0.69828 0.487 0.0
C2654 C 0.52593 0.60677 0.51707 0.0
C2655 C 0.54063 0.59258 0.50844 0.0
C2656 C 0.5243 0.62752 0.50865 0.0
C2657 C 0.53674 0.63453 0.49058 0.0
C2658 C 0.55119 0.62004 0.48155 0.0
C2659 C 0.55316 0.59948 0.49039 0.0
H2660 H 0.65625 0.32988 0.69147 0.0
H2661 H 0.68858 0.32111 0.62751 0.0
H2662 H 0.6883 0.32386 0.71367 0.0
H2663 H 0.72104 0.31549 0.64986 0.0
H2664 H 0.7656 0.28069 0.69288 0.0
H2665 H 0.73484 0.28831 0.66972 0.0
H2666 H 0.72559 0.34096 0.72963 0.0
H2667 H 0.75612 0.33314 0.75267 0.0
C2668 C 0.67031 0.3269 0.68212 0.0
C2669 C 0.66968 0.32606 0.65759 0.0
C2670 C 0.68887 0.32355 0.69496 0.0
C2671 C 0.70757 0.31918 0.68377 0.0
C2672 C 0.707 0.3185 0.65921 0.0
C2673 C 0.68838 0.32192 0.64634 0.0
C2674 C 0.75704 0.29389 0.70121 0.0
C2675 C 0.76319 0.30577 0.72512 0.0
C2676 C 0.73936 0.29841 0.68777 0.0
C2677 C 0.72726 0.31509 0.6977 0.0
C2678 C 0.73393 0.32751 0.72136 0.0
C2679 C 0.75157 0.32298 0.73473 0.0
H2680 H 0.00745 0.35323 0.93058 0.0
H2681 H 0.05554 0.35024 0.98592 0.0
H2682 H 0.01059 0.39554 0.94711 0.0
H2683 H 0.05951 0.39342 1.00226 0.0
H2684 H 0.054 0.47278 0.03108 0.0
H2685 H 0.04525 0.42848 0.02095 0.0
H2686 H 0.03738 0.43044 0.94676 0.0
H2687 H 0.04543 0.47393 0.95696 0.0
C2688 C 0.01855 0.36161 0.94657 0.0
C2689 C 0.03123 0.34824 0.95686 0.0
C2690 C 0.02057 0.38608 0.95596 0.0
C2691 C 0.03576 0.39841 0.97577 0.0
C2692 C 0.0476 0.38473 0.98701 0.0
C2693 C 0.04532 0.3599 0.97769 0.0
C2694 C 0.04989 0.46359 0.01269 0.0
C2695 C 0.04989 0.47692 0.99484 0.0
C2696 C 0.04514 0.43818 0.00681 0.0
C2697 C 0.04032 0.42551 0.98295 0.0
C2698 C 0.04039 0.43915 0.96534 0.0
C2699 C 0.04515 0.46426 0.97118 0.0
H2700 H 0.04097 0.83925 0.16304 0.0
H2701 H 0.03472 0.76588 0.16983 0.0
H2702 H 0.00711 0.84053 0.18272 0.0
H2703 H 1.00085 0.76693 0.18876 0.0
H2704 H 0.9719 0.83682 0.25443 0.0
H2705 H 1.00002 0.83778 0.22657 0.0
H2706 H 0.96075 0.77239 0.18193 0.0
H2707 H 0.93238 0.7717 0.20969 0.0
C2708 C 0.03203 0.82323 0.16811 0.0
C2709 C 0.04047 0.80247 0.16493 0.0
C2710 C 0.01277 0.824 0.17949 0.0
C2711 C 1.00132 0.80381 0.18729 0.0
C2712 C 0.00913 0.78268 0.18279 0.0
C2713 C 0.02858 0.78212 0.17201 0.0
C2714 C 0.96911 0.82291 0.23842 0.0
C2715 C 0.95001 0.80413 0.23425 0.0
C2716 C 0.98512 0.82355 0.2224 0.0
C2717 C 0.98262 0.80516 0.20206 0.0
C2718 C 0.96314 0.7868 0.19747 0.0
C2719 C 0.94688 0.78644 0.21328 0.0
H2720 H 0.51822 0.35106 0.1355 0.0
H2721 H 0.51646 0.28637 0.0835 0.0
H2722 H 0.52559 0.37465 0.10517 0.0
H2723 H 0.52404 0.31002 0.05326 0.0
H2724 H 0.5194 0.36156 1.00181 0.0
H2725 H 0.50888 0.33619 0.03029 0.0
H2726 H 0.55807 0.38505 0.08329 0.0
H2727 H 0.56869 0.41011 0.05497 0.0
C2728 C 0.51914 0.34184 0.11755 0.0
C2729 C 0.51691 0.31688 0.11195 0.0
C2730 C 0.52353 0.35537 0.10022 0.0
C2731 C 0.52567 0.34421 0.0769 0.0
C2732 C 0.52241 0.31912 0.07104 0.0
C2733 C 0.51814 0.3056 0.0884 0.0
C2734 C 0.52816 0.36665 0.01944 0.0
C2735 C 0.54471 0.38797 0.02621 0.0
C2736 C 0.52207 0.3522 0.03576 0.0
C2737 C 0.53238 0.35888 0.05915 0.0
C2738 C 0.54941 0.37976 0.06561 0.0
C2739 C 0.55554 0.39407 0.04934 0.0
H2740 H 0.03429 0.29817 0.35329 0.0
H2741 H 0.06091 0.30179 0.28644 0.0
H2742 H 0.99796 0.29918 0.33529 0.0
H2743 H 0.02483 0.30296 0.26876 0.0
H2744 H 0.97626 0.35419 0.2694 0.0
H2745 H 0.00816 0.34069 0.28274 0.0
H2746 H 0.96527 0.27877 0.29919 0.0
H2747 H 0.93296 0.29155 0.28462 0.0
C2748 C 0.03224 0.29832 0.33461 0.0
C2749 C 0.05054 0.30044 0.3214 0.0
C2750 C 0.01147 0.29891 0.32434 0.0
C2751 C 0.00886 0.30164 0.30083 0.0
C2752 C 0.02659 0.30124 0.28704 0.0
C2753 C 0.04722 0.30055 0.29719 0.0
C2754 C 0.97348 0.33739 0.27528 0.0
C2755 C 0.95196 0.32392 0.27574 0.0
C2756 C 0.99179 0.32973 0.28303 0.0
C2757 C 0.98909 0.3086 0.29175 0.0
C2758 C 0.9677 0.29512 0.2925 0.0
C2759 C 0.94927 0.30258 0.28433 0.0
H2760 H 0.04343 0.6879 0.67219 0.0
H2761 H 0.00625 0.70848 0.61727 0.0
H2762 H 0.04832 0.65325 0.64357 0.0
H2763 H 0.01132 0.67389 0.58873 0.0
H2764 H 0.01006 0.59805 0.54856 0.0
H2765 H 1.00159 0.62881 0.57924 0.0
H2766 H 0.07013 0.64935 0.60842 0.0
H2767 H 0.07871 0.61878 0.57746 0.0
C2768 C 0.03604 0.68488 0.65412 0.0
C2769 C 0.02458 0.70105 0.64696 0.0
C2770 C 0.03899 0.66513 0.63773 0.0
C2771 C 0.03036 0.66105 0.61394 0.0
C2772 C 0.01804 0.67655 0.60701 0.0
C2773 C 0.01523 0.69641 0.62334 0.0
C2774 C 0.02339 0.60933 0.56126 0.0
C2775 C 0.04516 0.60641 0.56022 0.0
C2776 C 0.01849 0.62681 0.57894 0.0
C2777 C 0.03522 0.6415 0.5961 0.0
C2778 C 0.05687 0.63811 0.59551 0.0
C2779 C 0.0618 0.62072 0.57772 0.0
H2780 H 0.65651 0.80662 0.82223 0.0
H2781 H 0.69512 0.82225 0.89036 0.0
H2782 H 0.6904 0.8135 0.80303 0.0
H2783 H 0.72911 0.82901 0.87095 0.0
H2784 H 0.77675 0.79795 0.82057 0.0
H2785 H 0.74516 0.79967 0.84275 0.0
H2786 H 0.72484 0.84655 0.80093 0.0
H2787 H 0.75727 0.84519 0.77876 0.0
C2788 C 0.67224 0.81156 0.83311 0.0
C2789 C 0.6732 0.81365 0.85779 0.0
C2790 C 0.6916 0.81578 0.82212 0.0
C2791 C 0.71227 0.82184 0.83554 0.0
C2792 C 0.71329 0.82428 0.86025 0.0
C2793 C 0.6939 0.82033 0.8713 0.0
C2794 C 0.76565 0.80871 0.81611 0.0
C2795 C 0.76895 0.8208 0.79743 0.0
C2796 C 0.7477 0.80992 0.82904 0.0
C2797 C 0.7326 0.82321 0.82352 0.0
C2798 C 0.7363 0.83611 0.80542 0.0
C2799 C 0.75468 0.83531 0.79276 0.0
H2800 H 0.50643 0.58003 0.71989 0.0
H2801 H 0.44337 0.54683 0.67978 0.0
H2802 H 0.5245 0.57593 0.6835 0.0
H2803 H 0.46117 0.54174 0.64342 0.0
H2804 H 0.49426 0.54197 0.57463 0.0
H2805 H 0.47663 0.5469 0.61094 0.0
H2806 H 0.54049 0.56309 0.65155 0.0
H2807 H 0.55797 0.5587 0.6148 0.0
C2808 C 0.49624 0.57169 0.70332 0.0
C2809 C 0.47306 0.56394 0.70353 0.0
C2810 C 0.5068 0.56911 0.68191 0.0
C2811 C 0.49494 0.55836 0.65917 0.0
C2812 C 0.47167 0.5505 0.65963 0.0
C2813 C 0.46114 0.55331 0.681 0.0
C2814 C 0.50471 0.54634 0.59121 0.0
C2815 C 0.52791 0.54948 0.59091 0.0
C2816 C 0.49437 0.54925 0.61267 0.0
C2817 C 0.50646 0.55538 0.63556 0.0
C2818 C 0.52981 0.55862 0.63514 0.0
C2819 C 0.54015 0.55592 0.61359 0.0
H2820 H 0.78473 0.15635 0.94327 0.0
H2821 H 0.82422 0.2136 0.99808 0.0
H2822 H 0.77917 0.1856 0.91998 0.0
H2823 H 0.8185 0.24282 0.97479 0.0
H2824 H 0.75036 0.24655 0.90147 0.0
H2825 H 0.75812 0.21814 0.92499 0.0
H2826 H 0.82707 0.25517 0.93684 0.0
H2827 H 0.81923 0.28375 0.91368 0.0
C2828 C 0.79252 0.17512 0.95017 0.0
C2829 C 0.80485 0.1827 0.97254 0.0
C2830 C 0.78912 0.19187 0.93696 0.0
C2831 C 0.79812 0.21648 0.94577 0.0
C2832 C 0.81138 0.22395 0.96758 0.0
C2833 C 0.81466 0.20722 0.98088 0.0
C2834 C 0.76707 0.24879 0.90943 0.0
C2835 C 0.78421 0.26725 0.90575 0.0
C2836 C 0.77158 0.2324 0.92261 0.0
C2837 C 0.79325 0.23432 0.93247 0.0
C2838 C 0.81023 0.25328 0.92945 0.0
C2839 C 0.80576 0.26955 0.91615 0.0
H2840 H 0.18324 0.52812 0.16666 0.0
H2841 H 0.12511 0.48856 0.19073 0.0
H2842 H 0.16101 0.53036 0.13144 0.0
H2843 H 0.10298 0.48988 0.15509 0.0
H2844 H 0.0663 0.52654 0.10737 0.0
H2845 H 0.08813 0.51863 0.13992 0.0
H2846 H 0.1402 0.51034 0.09493 0.0
H2847 H 0.11843 0.51881 0.06274 0.0
C2848 C 0.16582 0.51936 0.16411 0.0
C2849 C 0.15589 0.50833 0.18153 0.0
C2850 C 0.15302 0.52059 0.14387 0.0
C2851 C 0.13007 0.51056 0.14049 0.0
C2852 C 0.12046 0.49834 0.15735 0.0
C2853 C 0.13319 0.49736 0.17768 0.0
C2854 C 0.08221 0.52271 0.10436 0.0
C2855 C 0.09064 0.52353 0.08256 0.0
C2856 C 0.09481 0.51811 0.12302 0.0
C2857 C 0.11607 0.51392 0.12017 0.0
C2858 C 0.12415 0.514 0.09802 0.0
C2859 C 0.11164 0.51886 0.07951 0.0
H2860 H 0.85175 0.89511 0.45256 0.0
H2861 H 0.80106 0.83488 0.46057 0.0
H2862 H 0.85239 0.8762 0.41133 0.0
H2863 H 0.80076 0.81625 0.41857 0.0
H2864 H 0.81064 0.78605 0.34052 0.0
H2865 H 0.81819 0.79847 0.38406 0.0
H2866 H 0.82639 0.8726 0.37861 0.0
H2867 H 0.81952 0.86026 0.33593 0.0
C2868 C 0.84088 0.87763 0.44548 0.0
C2869 C 0.82617 0.8666 0.45966 0.0
C2870 C 0.84113 0.86682 0.42179 0.0
C2871 C 0.82619 0.84497 0.41134 0.0
C2872 C 0.8125 0.83306 0.42598 0.0
C2873 C 0.8126 0.84374 0.45002 0.0
C2874 C 0.81467 0.80497 0.34881 0.0
C2875 C 0.81512 0.82229 0.33492 0.0
C2876 C 0.81872 0.8121 0.37369 0.0
C2877 C 0.8232 0.83661 0.38496 0.0
C2878 C 0.82366 0.85366 0.37075 0.0
C2879 C 0.81958 0.84659 0.3462 0.0
H2880 H 0.4603 0.57617 0.87036 0.0
H2881 H 0.51388 0.54913 0.84025 0.0
H2882 H 0.47507 0.57301 0.90976 0.0
H2883 H 0.52806 0.54529 0.87869 0.0
H2884 H 0.56047 0.55074 0.95456 0.0
H2885 H 0.54638 0.55538 0.91558 0.0
H2886 H 0.48204 0.55432 0.93979 0.0
H2887 H 0.49633 0.55011 0.97842 0.0
C2888 C 0.47526 0.56971 0.87187 0.0
C2889 C 0.48555 0.56313 0.85115 0.0
C2890 C 0.48385 0.56754 0.89485 0.0
C2891 C 0.50324 0.55867 0.89858 0.0
C2892 C 0.51349 0.5525 0.87779 0.0
C2893 C 0.505 0.55465 0.8551 0.0
C2894 C 0.54323 0.55115 0.95155 0.0
C2895 C 0.52972 0.5496 0.97029 0.0
C2896 C 0.53489 0.55392 0.92879 0.0
C2897 C 0.51257 0.5555 0.92338 0.0
C2898 C 0.49924 0.55373 0.94228 0.0
C2899 C 0.50756 0.55099 0.96485 0.0
H2900 H 0.81208 0.19784 0.08341 0.0
H2901 H 0.80507 0.14385 0.12564 0.0
H2902 H 0.81037 0.22804 0.11809 0.0
H2903 H 0.80496 0.1744 0.16091 0.0
H2904 H 0.82165 0.28121 0.1887 0.0
H2905 H 0.82567 0.25243 0.1538 0.0
H2906 H 0.78116 0.19644 0.17815 0.0
H2907 H 0.77907 0.2248 0.21403 0.0
C2908 C 0.81093 0.19259 0.10033 0.0
C2909 C 0.80862 0.16847 0.10184 0.0
C2910 C 0.80993 0.20997 0.12031 0.0
C2911 C 0.80712 0.20372 0.14238 0.0
C2912 C 0.80634 0.1798 0.1441 0.0
C2913 C 0.80677 0.1623 0.12398 0.0
C2914 C 0.81312 0.2627 0.18682 0.0
C2915 C 0.80107 0.25516 0.2048 0.0
C2916 C 0.81509 0.24615 0.16654 0.0
C2917 C 0.80429 0.22178 0.16335 0.0
C2918 C 0.79059 0.21475 0.18041 0.0
C2919 C 0.78912 0.23117 0.20092 0.0
H2920 H 0.17596 0.56347 0.33043 0.0
H2921 H 0.10765 0.53007 0.30512 0.0
H2922 H 0.16493 0.58065 0.36853 0.0
H2923 H 0.09661 0.54589 0.34356 0.0
H2924 H 0.08123 0.60684 0.39606 0.0
H2925 H 0.09348 0.58437 0.36141 0.0
H2926 H 0.14991 0.57767 0.40485 0.0
H2927 H 0.1379 0.60137 0.43942 0.0
C2928 C 0.15866 0.55912 0.33336 0.0
C2929 C 0.14258 0.54578 0.31484 0.0
C2930 C 0.15231 0.56893 0.35519 0.0
C2931 C 0.1298 0.56518 0.35894 0.0
C2932 C 0.11401 0.54989 0.34102 0.0
C2933 C 0.12031 0.54058 0.31908 0.0
C2934 C 0.09632 0.60065 0.39804 0.0
C2935 C 0.10879 0.60591 0.42013 0.0
C2936 C 0.10322 0.58748 0.37832 0.0
C2937 C 0.12255 0.57883 0.38034 0.0
C2938 C 0.13507 0.5842 0.4026 0.0
C2939 C 0.12828 0.59776 0.42234 0.0
H2940 H 0.79558 0.82531 0.58684 0.0
H2941 H 0.8376 0.89167 0.62681 0.0
H2942 H 0.79411 0.80891 0.62278 0.0
H2943 H 0.83613 0.87538 0.6625 0.0
H2944 H 0.84775 0.83014 0.71597 0.0
H2945 H 0.84919 0.84426 0.67912 0.0
H2946 H 0.77896 0.81511 0.66211 0.0
H2947 H 0.77741 0.80136 0.69937 0.0
C2948 C 0.80456 0.83637 0.60323 0.0
C2949 C 0.81673 0.85981 0.60388 0.0
C2950 C 0.80361 0.82702 0.62387 0.0
C2951 C 0.81504 0.84079 0.64557 0.0
C2952 C 0.82734 0.86413 0.64609 0.0
C2953 C 0.8281 0.87354 0.62559 0.0
C2954 C 0.83248 0.82714 0.7047 0.0
C2955 C 0.81231 0.81538 0.71126 0.0
C2956 C 0.83336 0.8351 0.68339 0.0
C2957 C 0.81414 0.83114 0.66772 0.0
C2958 C 0.79409 0.81847 0.67374 0.0
C2959 C 0.79318 0.81071 0.69524 0.0
H2960 H 0.7358 0.43842 0.52988 0.0
H2961 H 0.77868 0.50562 0.56682 0.0
H2962 H 0.7036 0.45333 0.54194 0.0
H2963 H 0.74665 0.52019 0.57986 0.0
H2964 H 0.68475 0.54887 0.58023 0.0
H2965 H 0.7163 0.53379 0.56683 0.0
H2966 H 0.68387 0.46282 0.57462 0.0
H2967 H 0.65156 0.4776 0.58634 0.0
C2968 C 0.73834 0.45635 0.5407 0.0
C2969 C 0.75977 0.47089 0.54733 0.0
C2970 C 0.71988 0.46485 0.5478 0.0
C2971 C 0.72243 0.48799 0.56195 0.0
C2972 C 0.74394 0.50246 0.56862 0.0
C2973 C 0.76237 0.49406 0.56126 0.0
C2974 C 0.68418 0.52996 0.57877 0.0
C2975 C 0.66552 0.51446 0.58431 0.0
C2976 C 0.70248 0.52136 0.57141 0.0
C2977 C 0.70278 0.49706 0.56968 0.0
C2978 C 0.68418 0.48157 0.57541 0.0
C2979 C 0.66574 0.49014 0.58252 0.0
H2980 H 0.21376 0.17633 0.50236 0.0
H2981 H 0.23484 0.11047 0.4791 0.0
H2982 H 0.17652 0.15316 0.50422 0.0
H2983 H 0.19765 0.08731 0.48122 0.0
H2984 H 0.1224 0.05392 0.47359 0.0
H2985 H 0.15768 0.07712 0.46509 0.0
H2986 H 0.16179 0.12767 0.53143 0.0
H2987 H 0.12707 0.10477 0.53997 0.0
C2988 C 0.2104 0.15693 0.49738 0.0
C2989 C 0.22733 0.14525 0.49086 0.0
C2990 C 0.18909 0.14364 0.49854 0.0
C2991 C 0.1842 0.11838 0.49313 0.0
C2992 C 0.20083 0.10673 0.48538 0.0
C2993 C 0.22218 0.12002 0.48431 0.0
C2994 C 0.13091 0.06991 0.48638 0.0
C2995 C 0.12191 0.07731 0.50754 0.0
C2996 C 0.15108 0.08322 0.48149 0.0
C2997 C 0.16245 0.10436 0.49751 0.0
C2998 C 0.1533 0.11175 0.5185 0.0
C2999 C 0.13338 0.09843 0.52347 0.0
H3000 H 0.19262 0.91712 0.77865 0.0
H3001 H 0.2481 0.95438 0.74932 0.0
H3002 H 0.2108 0.8839 0.77928 0.0
H3003 H 0.26627 0.92075 0.74948 0.0
H3004 H 0.28613 0.84297 0.73638 0.0
H3005 H 0.26965 0.87773 0.73425 0.0
H3006 H 0.23904 0.86937 0.79773 0.0
H3007 H 0.25574 0.8358 0.80014 0.0
C3008 C 0.20871 0.91846 0.77219 0.0
C3009 C 0.21839 0.93936 0.764 0.0
C3010 C 0.21946 0.89902 0.77265 0.0
C3011 C 0.24061 0.89865 0.76451 0.0
C3012 C 0.25016 0.91941 0.75589 0.0
C3013 C 0.23956 0.93914 0.75589 0.0
C3014 C 0.27624 0.84869 0.75018 0.0
C3015 C 0.27312 0.83598 0.76884 0.0
C3016 C 0.26647 0.86893 0.74892 0.0
C3017 C 0.25234 0.87725 0.76571 0.0
C3018 C 0.24925 0.86425 0.78402 0.0
C3019 C 0.25923 0.8446 0.78552 0.0
H3020 H 0.39137 1.00586 0.98314 0.0
H3021 H 0.39104 0.94458 0.01489 0.0
H3022 H 0.43158 0.01383 0.98495 0.0
H3023 H 0.4313 0.95267 0.01659 0.0
H3024 H 0.50071 0.03842 0.0272 0.0
H3025 H 0.46072 0.02746 0.02061 0.0
H3026 H 0.46293 0.95452 0.98974 0.0
H3027 H 0.50357 0.96589 0.99583 0.0
C3028 C 0.39984 0.99398 0.9903 0.0
C3029 C 0.38806 0.97475 0.99911 0.0
C3030 C 0.42283 0.99857 0.99134 0.0
C3031 C 0.43444 0.98389 1.00097 0.0
C3032 C 0.42267 0.96413 0.00894 0.0
C3033 C 0.39967 0.95966 0.00813 0.0
C3034 C 0.49282 0.02025 0.0184 0.0
C3035 C 0.50523 1.00327 0.01096 0.0
C3036 C 0.46986 0.01392 0.01479 0.0
C3037 C 0.45882 0.99028 0.00426 0.0
C3038 C 0.47115 0.97293 0.99773 0.0
C3039 C 0.49426 0.9794 1.00116 0.0
H3040 H 0.84947 0.57072 0.7789 0.0
H3041 H 0.90572 0.63125 0.79729 0.0
H3042 H 0.82745 0.59614 0.76488 0.0
H3043 H 0.88386 0.65649 0.78284 0.0
H3044 H 0.83648 0.69964 0.76218 0.0
H3045 H 0.85271 0.6758 0.78564 0.0
H3046 H 0.82891 0.61282 0.72959 0.0
H3047 H 0.81219 0.63641 0.7066 0.0
C3048 C 0.85701 0.58956 0.78043 0.0
C3049 C 0.87943 0.59888 0.78892 0.0
C3050 C 0.84443 0.60408 0.77221 0.0
C3051 C 0.85401 0.62823 0.77231 0.0
C3052 C 0.87593 0.638 0.78256 0.0
C3053 C 0.8885 0.62348 0.79079 0.0
C3054 C 0.83439 0.68061 0.7551 0.0
C3055 C 0.82317 0.66992 0.73246 0.0
C3056 C 0.84383 0.66699 0.76846 0.0
C3057 C 0.84211 0.64239 0.75952 0.0
C3058 C 0.83029 0.63163 0.73719 0.0
C3059 C 0.82096 0.64522 0.72384 0.0
H3060 H 0.86245 0.65853 0.00687 0.0
H3061 H 0.82397 0.60889 0.04364 0.0
H3062 H 0.8929 0.63779 0.00878 0.0
H3063 H 0.85384 0.5887 0.04541 0.0
H3064 H 0.89712 0.53939 0.02099 0.0
H3065 H 0.8702 0.56291 0.015 0.0
H3066 H 0.92036 0.62835 0.03994 0.0
H3067 H 0.94755 0.60463 0.04612 0.0
C3068 C 0.86049 0.64339 0.01541 0.0
C3069 C 0.8406 0.63532 0.02487 0.0
C3070 C 0.8779 0.63156 0.01653 0.0
C3071 C 0.87559 0.61135 0.02688 0.0
C3072 C 0.85598 0.60384 0.03683 0.0
C3073 C 0.83883 0.61561 0.03589 0.0
C3074 C 0.90249 0.55878 0.02518 0.0
C3075 C 0.9244 0.57011 0.0345 0.0
C3076 C 0.88707 0.57228 0.02167 0.0
C3077 C 0.89307 0.5975 0.02736 0.0
C3078 C 0.91527 0.60894 0.03536 0.0
C3079 C 0.9308 0.59535 0.03891 0.0
H3080 H 0.19622 0.10239 0.7473 0.0
H3081 H 0.24303 0.09257 0.80011 0.0
H3082 H 0.21794 0.14218 0.74837 0.0
H3083 H 0.26471 0.13369 0.80245 0.0
H3084 H 0.30722 0.20735 0.79415 0.0
H3085 H 0.28793 0.16578 0.79234 0.0
H3086 H 0.22793 0.18094 0.76415 0.0
H3087 H 0.24759 0.22143 0.76447 0.0
C3088 C 0.21123 0.10878 0.7594 0.0
C3089 C 0.21754 0.09371 0.7736 0.0
C3090 C 0.22381 0.13222 0.76032 0.0
C3091 C 0.24331 0.14248 0.77601 0.0
C3092 C 0.25002 0.12714 0.78996 0.0
C3093 C 0.23749 0.10323 0.78866 0.0
C3094 C 0.29003 0.20175 0.78717 0.0
C3095 C 0.27947 0.21828 0.77897 0.0
C3096 C 0.27865 0.17759 0.78636 0.0
C3097 C 0.25597 0.16879 0.77762 0.0
C3098 C 0.24538 0.18578 0.77022 0.0
C3099 C 0.2568 0.20965 0.77068 0.0
H3100 H 0.36808 0.97062 0.29092 0.0
H3101 H 0.43081 0.95087 0.29844 0.0
H3102 H 0.34884 0.92861 0.28649 0.0
H3103 H 0.41158 0.90904 0.2939 0.0
H3104 H 0.36808 0.83884 0.30577 0.0
H3105 H 0.38687 0.88152 0.31361 0.0
H3106 H 0.34487 0.89121 0.25581 0.0
H3107 H 0.32595 0.84872 0.2485 0.0
C3108 C 0.37776 0.95739 0.29185 0.0
C3109 C 0.40099 0.96411 0.29491 0.0
C3110 C 0.36674 0.93332 0.28917 0.0
C3111 C 0.37871 0.91551 0.28974 0.0
C3112 C 0.40189 0.92235 0.29356 0.0
C3113 C 0.4129 0.94633 0.29602 0.0
C3114 C 0.36283 0.8503 0.29502 0.0
C3115 C 0.34519 0.84101 0.27715 0.0
C3116 C 0.37363 0.87459 0.29933 0.0
C3117 C 0.36717 0.88979 0.28549 0.0
C3118 C 0.34989 0.88011 0.26711 0.0
C3119 C 0.33908 0.85588 0.2629 0.0
H3120 H 0.6002 0.37156 0.55156 0.0
H3121 H 0.58765 0.40551 0.62088 0.0
H3122 H 0.59408 0.40606 0.53608 0.0
H3123 H 0.58177 0.44012 0.60556 0.0
H3124 H 0.55457 0.4922 0.56651 0.0
H3125 H 0.55853 0.45655 0.58158 0.0
H3126 H 0.60958 0.44699 0.53576 0.0
H3127 H 0.60525 0.48211 0.52065 0.0
C3128 C 0.59618 0.38636 0.56359 0.0
C3129 C 0.59454 0.38543 0.58761 0.0
C3130 C 0.59274 0.4064 0.5547 0.0
C3131 C 0.5874 0.42637 0.56939 0.0
C3132 C 0.58555 0.42527 0.59339 0.0
C3133 C 0.58911 0.4053 0.6023 0.0
C3134 C 0.56636 0.48222 0.55939 0.0
C3135 C 0.57906 0.48975 0.5417 0.0
C3136 C 0.56888 0.46182 0.56826 0.0
C3137 C 0.5843 0.44827 0.55989 0.0
C3138 C 0.59715 0.45622 0.54245 0.0
C3139 C 0.59473 0.47659 0.53377 0.0
H3140 H 0.44624 0.78024 0.41109 0.0
H3141 H 0.46154 0.74291 0.34451 0.0
H3142 H 0.41092 0.78307 0.39165 0.0
H3143 H 0.42642 0.74506 0.32528 0.0
H3144 H 0.38111 0.78295 0.29086 0.0
H3145 H 0.41283 0.77622 0.31288 0.0
H3146 H 0.37372 0.76466 0.37051 0.0
H3147 H 0.34165 0.77099 0.34784 0.0
C3148 C 0.44168 0.77178 0.39255 0.0
C3149 C 0.45666 0.7611 0.37943 0.0
C3150 C 0.42147 0.77358 0.38129 0.0
C3151 C 0.41584 0.76481 0.35663 0.0
C3152 C 0.43026 0.75268 0.34407 0.0
C3153 C 0.45033 0.75105 0.35521 0.0
C3154 C 0.3791 0.77849 0.30799 0.0
C3155 C 0.35865 0.77713 0.3173 0.0
C3156 C 0.3974 0.77469 0.32079 0.0
C3157 C 0.39599 0.76942 0.34351 0.0
C3158 C 0.37562 0.7687 0.35317 0.0
C3159 C 0.35719 0.77246 0.3402 0.0
H3160 H 0.06935 0.73132 0.06669 0.0
H3161 H 0.12612 0.72579 0.10989 0.0
H3162 H 0.06153 0.68764 0.05027 0.0
H3163 H 0.11847 0.68289 0.0937 0.0
H3164 H 0.0773 0.60701 0.09203 0.0
H3165 H 0.08782 0.65073 0.10098 0.0
H3166 H 0.07553 0.65078 0.02684 0.0
H3167 H 0.06499 0.60649 0.01787 0.0
C3168 C 0.0805 0.72102 0.07218 0.0
C3169 C 0.09826 0.73218 0.08982 0.0
C3170 C 0.07599 0.69594 0.06285 0.0
C3171 C 0.08911 0.68154 0.07101 0.0
C3172 C 0.10769 0.69315 0.08734 0.0
C3173 C 0.11214 0.71791 0.09656 0.0
C3174 C 0.07714 0.6163 0.07756 0.0
C3175 C 0.07087 0.60317 0.0542 0.0
C3176 C 0.08319 0.64144 0.08267 0.0
C3177 C 0.08272 0.65449 0.06465 0.0
C3178 C 0.0761 0.6414 0.04118 0.0
C3179 C 0.07032 0.61601 0.03599 0.0
H3180 H 0.06933 0.24031 0.86146 0.0
H3181 H 0.10842 0.29601 0.91764 0.0
H3182 H 0.09956 0.24499 0.83683 0.0
H3183 H 0.13858 0.30165 0.8925 0.0
H3184 H 0.19525 0.29581 0.84606 0.0
H3185 H 0.16716 0.28718 0.87293 0.0
H3186 H 0.11608 0.27126 0.81441 0.0
H3187 H 0.14394 0.27824 0.78762 0.0
C3188 C 0.08443 0.25365 0.86854 0.0
C3189 C 0.08636 0.26791 0.89146 0.0
C3190 C 0.10179 0.25651 0.8543 0.0
C3191 C 0.12156 0.27404 0.86234 0.0
C3192 C 0.12376 0.28784 0.88563 0.0
C3193 C 0.10641 0.28471 0.90007 0.0
C3194 C 0.17804 0.29005 0.83888 0.0
C3195 C 0.17199 0.28792 0.81457 0.0
C3196 C 0.16185 0.2854 0.85439 0.0
C3197 C 0.13917 0.27848 0.84602 0.0
C3198 C 0.13327 0.27612 0.82166 0.0
C3199 C 0.14936 0.28056 0.80623 0.0
H3200 H 0.59256 0.73349 0.91566 0.0
H3201 H 0.59808 0.79772 0.96961 0.0
H3202 H 0.58602 0.7092 0.94553 0.0
H3203 H 0.59147 0.77333 0.99948 0.0
H3204 H 0.55408 0.71528 0.0383 0.0
H3205 H 0.56081 0.74159 0.01005 0.0
H3206 H 0.60892 0.70394 0.98078 0.0
H3207 H 0.60271 0.67815 0.00923 0.0
C3208 C 0.59228 0.74242 0.93386 0.0
C3209 C 0.59591 0.76752 0.94028 0.0
C3210 C 0.58866 0.72852 0.95098 0.0
C3211 C 0.58836 0.7394 0.97485 0.0
C3212 C 0.5915 0.76446 0.9812 0.0
C3213 C 0.59538 0.7784 0.96412 0.0
C3214 C 0.56636 0.71289 0.02611 0.0
C3215 C 0.57763 0.69439 0.02585 0.0
C3216 C 0.57014 0.72789 0.00989 0.0
C3217 C 0.58515 0.72456 0.99301 0.0
C3218 C 0.5969 0.70659 0.99325 0.0
C3219 C 0.5933 0.69179 0.00955 0.0
H3220 H 0.07548 0.79568 0.74119 0.0
H3221 H 0.09715 0.77815 0.67162 0.0
H3222 H 0.10352 0.7777 0.75742 0.0
H3223 H 0.12474 0.76002 0.68783 0.0
H3224 H 0.17675 0.76519 0.77254 0.0
H3225 H 0.14723 0.78408 0.7615 0.0
H3226 H 0.11958 0.72155 0.70612 0.0
H3227 H 0.14899 0.70261 0.7173 0.0
C3228 C 0.08646 0.7884 0.72948 0.0
C3229 C 0.08402 0.78817 0.70511 0.0
C3230 C 0.10236 0.77803 0.73874 0.0
C3231 C 0.11581 0.76705 0.72371 0.0
C3232 C 0.11417 0.76794 0.69964 0.0
C3233 C 0.09855 0.77856 0.69045 0.0
C3234 C 0.16396 0.7553 0.75844 0.0
C3235 C 0.16501 0.73253 0.74569 0.0
C3236 C 0.14718 0.76608 0.75214 0.0
C3237 C 0.13146 0.75436 0.73278 0.0
C3238 C 0.13175 0.731 0.72095 0.0
C3239 C 0.14835 0.72008 0.72747 0.0
H3240 H 0.10034 0.40911 0.36986 0.0
H3241 H 0.10699 0.38626 0.43601 0.0
H3242 H 0.08716 0.44346 0.38998 0.0
H3243 H 0.09491 0.42106 0.45634 0.0
H3244 H 0.05118 0.46895 0.48342 0.0
H3245 H 0.06226 0.43474 0.46005 0.0
H3246 H 0.09666 0.48096 0.41734 0.0
H3247 H 0.08454 0.51491 0.44034 0.0
C3248 C 0.09937 0.4117 0.38878 0.0
C3249 C 0.10453 0.39494 0.40135 0.0
C3250 C 0.09184 0.43139 0.40033 0.0
C3251 C 0.0896 0.43486 0.42473 0.0
C3252 C 0.09572 0.41858 0.4374 0.0
C3253 C 0.10289 0.39874 0.42581 0.0
C3254 C 0.06074 0.47153 0.4687 0.0
C3255 C 0.06698 0.49425 0.46343 0.0
C3256 C 0.06734 0.45208 0.45549 0.0
C3257 C 0.08076 0.45514 0.43707 0.0
C3258 C 0.08622 0.47788 0.43125 0.0
C3259 C 0.07928 0.49729 0.44431 0.0
H3260 H 0.45123 0.29603 0.20272 0.0
H3261 H 0.44655 0.22437 0.21411 0.0
H3262 H 0.41491 0.29562 0.21605 0.0
H3263 H 0.40948 0.22291 0.22574 0.0
H3264 H 0.35739 0.23904 0.27465 0.0
H3265 H 0.39112 0.23577 0.25633 0.0
H3266 H 0.37776 0.28346 0.21135 0.0
H3267 H 0.34538 0.28806 0.23125 0.0
C3268 C 0.4421 0.27997 0.20756 0.0
C3269 C 0.45166 0.26037 0.20768 0.0
C3270 C 0.42116 0.27958 0.21513 0.0
C3271 C 0.40911 0.25931 0.22242 0.0
C3272 C 0.41839 0.23918 0.22114 0.0
C3273 C 0.43956 0.23987 0.21423 0.0
C3274 C 0.36193 0.24888 0.26094 0.0
C3275 C 0.34949 0.26463 0.2551 0.0
C3276 C 0.3811 0.2468 0.25011 0.0
C3277 C 0.38764 0.2597 0.23247 0.0
C3278 C 0.37397 0.27398 0.22545 0.0
C3279 C 0.35524 0.27658 0.23679 0.0
H3280 H 0.60775 0.53332 0.33195 0.0
H3281 H 0.6643 0.51253 0.36052 0.0
H3282 H 0.5927 0.53589 0.36977 0.0
H3283 H 0.64893 0.51504 0.39914 0.0
H3284 H 0.62372 0.54259 0.47325 0.0
H3285 H 0.63994 0.53823 0.4355 0.0
H3286 H 0.57455 0.51804 0.39805 0.0
H3287 H 0.55852 0.52273 0.43574 0.0
C3288 C 0.61713 0.52902 0.34622 0.0
C3289 C 0.63756 0.52254 0.34223 0.0
C3290 C 0.6082 0.53041 0.36838 0.0
C3291 C 0.61911 0.52566 0.38848 0.0
C3292 C 0.63964 0.51909 0.38467 0.0
C3293 C 0.64855 0.5174 0.36214 0.0
C3294 C 0.61264 0.53745 0.45707 0.0
C3295 C 0.58945 0.53347 0.45836 0.0
C3296 C 0.62211 0.53463 0.435 0.0
C3297 C 0.609 0.52784 0.41276 0.0
C3298 C 0.58577 0.52368 0.41416 0.0
C3299 C 0.57634 0.52628 0.43619 0.0
H3300 H 0.30512 0.86511 0.04907 0.0
H3301 H 0.35025 0.925 0.09607 0.0
H3302 H 0.3126 0.83859 0.07442 0.0
H3303 H 0.35727 0.89839 0.12202 0.0
H3304 H 0.38042 0.83772 0.14956 0.0
H3305 H 0.37465 0.86473 0.12355 0.0
H3306 H 0.30478 0.83123 0.11256 0.0
H3307 H 0.3107 0.80366 0.13735 0.0
C3308 C 0.31649 0.87267 0.06497 0.0
C3309 C 0.327 0.89717 0.07066 0.0
C3310 C 0.32072 0.85746 0.07956 0.0
C3311 C 0.33544 0.86641 0.1003 0.0
C3312 C 0.34603 0.89093 0.10601 0.0
C3313 C 0.34187 0.90618 0.09129 0.0
C3314 C 0.36391 0.836 0.14132 0.0
C3315 C 0.34601 0.81865 0.14558 0.0
C3316 C 0.36055 0.85164 0.12669 0.0
C3317 C 0.33925 0.85013 0.11603 0.0
C3318 C 0.32144 0.8327 0.12026 0.0
C3319 C 0.32479 0.81708 0.13473 0.0
H3320 H 0.01082 0.56239 0.84606 0.0
H3321 H 0.94704 0.55897 0.87261 0.0
H3322 H 0.02801 0.56634 0.88574 0.0
H3323 H 0.96449 0.56331 0.91285 0.0
H3324 H 0.9995 0.52929 0.96698 0.0
H3325 H 0.9809 0.5357 0.93157 0.0
H3326 H 0.03782 0.5907 0.92577 0.0
H3327 H 0.05662 0.58425 0.96134 0.0
C3328 C 1.0005 0.5629 0.86049 0.0
C3329 C 0.97751 0.56001 0.85617 0.0
C3330 C 0.01043 0.56541 0.88332 0.0
C3331 C 0.99761 0.565 0.90244 0.0
C3332 C 0.97475 0.56343 0.89838 0.0
C3333 C 0.96478 0.56109 0.87542 0.0
C3334 C 0.00805 0.54293 0.95834 0.0
C3335 C 0.02979 0.55589 0.96674 0.0
C3336 C 0.99724 0.54676 0.93813 0.0
C3337 C 0.00789 0.56365 0.9258 0.0
C3338 C 0.02928 0.57734 0.93473 0.0
C3339 C 0.0401 0.57355 0.95504 0.0
H3340 H 0.28731 0.24056 0.58129 0.0
H3341 H 0.31224 0.18285 0.60097 0.0
H3342 H 0.28916 0.25976 0.62349 0.0
H3343 H 0.31535 0.20225 0.64241 0.0
H3344 H 0.29618 0.22145 0.7134 0.0
H3345 H 0.29101 0.20698 0.67082 0.0
H3346 H 0.31114 0.27988 0.66128 0.0
H3347 H 0.31499 0.29446 0.70462 0.0
C3348 C 0.29363 0.2323 0.59462 0.0
C3349 C 0.2994 0.21009 0.58794 0.0
C3350 C 0.29469 0.24325 0.61877 0.0
C3351 C 0.3018 0.23227 0.63655 0.0
C3352 C 0.30889 0.21085 0.62946 0.0
C3353 C 0.30739 0.19979 0.60561 0.0
C3354 C 0.29898 0.23443 0.70217 0.0
C3355 C 0.30569 0.25903 0.71223 0.0
C3356 C 0.29635 0.22615 0.6777 0.0
C3357 C 0.30138 0.24214 0.66243 0.0
C3358 C 0.30717 0.267 0.67244 0.0
C3359 C 0.30932 0.2754 0.69721 0.0
H3360 H 0.67754 0.52656 0.18029 0.0
H3361 H 0.61331 0.50369 0.20272 0.0
H3362 H 0.66062 0.53359 0.14424 0.0
H3363 H 0.5959 0.50983 0.16588 0.0
H3364 H 0.56657 0.53176 0.09833 0.0
H3365 H 0.58262 0.52738 0.13686 0.0
H3366 H 0.64452 0.52518 0.1077 0.0
H3367 H 0.62889 0.53051 0.07053 0.0
C3368 C 0.65966 0.52268 0.17755 0.0
C3369 C 0.64722 0.51425 0.19517 0.0
C3370 C 0.64961 0.52662 0.15625 0.0
C3371 C 0.62625 0.52218 0.15071 0.0
C3372 C 0.61377 0.51383 0.16853 0.0
C3373 C 0.62392 0.51007 0.19005 0.0
C3374 C 0.58375 0.53085 0.10029 0.0
C3375 C 0.59626 0.53205 0.08064 0.0
C3376 C 0.59314 0.52798 0.12268 0.0
C3377 C 0.6155 0.52589 0.1267 0.0
C3378 C 0.62765 0.52714 0.10681 0.0
C3379 C 0.61841 0.53013 0.08481 0.0
H3380 H 0.28537 0.91511 0.91602 0.0
H3381 H 0.30893 0.87309 0.96153 0.0
H3382 H 0.2846 0.88294 0.88166 0.0
H3383 H 0.30831 0.84123 0.92717 0.0
H3384 H 0.33618 0.8137 0.85445 0.0
H3385 H 0.33182 0.84011 0.89164 0.0
H3386 H 0.26539 0.83892 0.8644 0.0
H3387 H 0.26992 0.81284 0.82754 0.0
C3388 C 0.29005 0.89892 0.91875 0.0
C3389 C 0.2973 0.89675 0.94149 0.0
C3390 C 0.28957 0.88051 0.89911 0.0
C3391 C 0.29655 0.85973 0.90184 0.0
C3392 C 0.30305 0.85718 0.92461 0.0
C3393 C 0.30326 0.8754 0.94426 0.0
C3394 C 0.32047 0.81853 0.85687 0.0
C3395 C 0.30308 0.81065 0.83862 0.0
C3396 C 0.31796 0.83362 0.878 0.0
C3397 C 0.29823 0.84146 0.88083 0.0
C3398 C 0.28072 0.83309 0.86268 0.0
C3399 C 0.28316 0.81782 0.84176 0.0
H3400 H 0.9852 0.57038 0.74024 0.0
H3401 H 0.92617 0.52223 0.70077 0.0
H3402 H 0.00699 0.55708 0.70899 0.0
H3403 H 0.94821 0.50884 0.66933 0.0
H3404 H 0.04331 0.50788 0.6669 0.0
H3405 H 0.01759 0.51771 0.6954 0.0
H3406 H 0.97232 0.52437 0.63893 0.0
H3407 H 0.99791 0.51405 0.61027 0.0
C3408 C 0.97683 0.55716 0.72474 0.0
C3409 C 0.95403 0.54715 0.72306 0.0
C3410 C 0.98935 0.54939 0.70697 0.0
C3411 C 0.97933 0.53152 0.68709 0.0
C3412 C 0.95631 0.52253 0.68461 0.0
C3413 C 0.94373 0.53026 0.70253 0.0
C3414 C 0.02762 0.51082 0.6605 0.0
C3415 C 0.02266 0.51043 0.63646 0.0
C3416 C 0.01304 0.51673 0.67681 0.0
C3417 C 0.99321 0.52224 0.66935 0.0
C3418 C 0.98754 0.52028 0.64511 0.0
C3419 C 1.00219 0.51448 0.62879 0.0
H3420 H 0.32251 0.19169 0.42371 0.0
H3421 H 0.30255 0.25378 0.46159 0.0
H3422 H 0.32518 0.20899 0.38869 0.0
H3423 H 0.3046 0.27089 0.42624 0.0
H3424 H 0.32616 0.30328 0.36267 0.0
H3425 H 0.32774 0.28817 0.39914 0.0
H3426 H 0.30122 0.21593 0.35884 0.0
H3427 H 0.30073 0.2309 0.3226 0.0
C3428 C 0.31877 0.20912 0.42461 0.0
C3429 C 0.31223 0.22127 0.4455 0.0
C3430 C 0.32013 0.21899 0.4044 0.0
C3431 C 0.31483 0.24127 0.40438 0.0
C3432 C 0.30898 0.2538 0.42555 0.0
C3433 C 0.30772 0.24395 0.44585 0.0
C3434 C 0.32081 0.28416 0.36161 0.0
C3435 C 0.31293 0.26837 0.33965 0.0
C3436 C 0.32153 0.27549 0.38258 0.0
C3437 C 0.31455 0.25077 0.38211 0.0
C3438 C 0.30697 0.23503 0.36004 0.0
C3439 C 0.30628 0.24369 0.33917 0.0
H3440 H 0.37459 0.63937 0.49599 0.0
H3441 H 0.33909 0.56606 0.49025 0.0
H3442 H 0.40749 0.62547 0.48427 0.0
H3443 H 0.37109 0.55196 0.47695 0.0
H3444 H 0.43608 0.53228 0.47822 0.0
H3445 H 0.40505 0.54834 0.49057 0.0
H3446 H 0.4254 0.6066 0.45469 0.0
H3447 H 0.45806 0.59185 0.44449 0.0
C3448 C 0.37377 0.62027 0.49186 0.0
C3449 C 0.35443 0.6038 0.49429 0.0
C3450 C 0.39257 0.61223 0.48499 0.0
C3451 C 0.39221 0.58751 0.47989 0.0
C3452 C 0.37242 0.57113 0.48147 0.0
C3453 C 0.35392 0.57918 0.48891 0.0
C3454 C 0.43439 0.54886 0.47341 0.0
C3455 C 0.44987 0.56077 0.46043 0.0
C3456 C 0.41614 0.55785 0.48008 0.0
C3457 C 0.41233 0.57867 0.4734 0.0
C3458 C 0.42778 0.59065 0.4604 0.0
C3459 C 0.44639 0.58192 0.45417 0.0
H3460 H 0.88759 0.98134 0.57201 0.0
H3461 H 0.90015 0.91848 0.52718 0.0
H3462 H 0.92672 1.00092 0.57606 0.0
H3463 H 0.93911 0.9385 0.52951 0.0
H3464 H 0.01082 0.97668 0.5419 0.0
H3465 H 0.97437 0.95475 0.54815 0.0
H3466 H 0.95061 0.01989 0.55355 0.0
H3467 H 0.98723 0.04162 0.54857 0.0
C3468 C 0.89892 0.97162 0.56331 0.0
C3469 C 0.89101 0.94842 0.54941 0.0
C3470 C 0.92132 0.98295 0.56527 0.0
C3471 C 0.93624 0.97167 0.55265 0.0
C3472 C 0.92837 0.94783 0.53973 0.0
C3473 C 0.906 0.93625 0.53833 0.0
C3474 C 0.99778 0.98627 0.54478 0.0
C3475 C 1.00187 0.01092 0.54501 0.0
C3476 C 0.97681 0.97368 0.5482 0.0
C3477 C 0.95926 0.98536 0.55137 0.0
C3478 C 0.96364 0.0102 0.55185 0.0
C3479 C 0.98472 0.02282 0.54894 0.0
H3480 H 0.92797 0.16413 0.26188 0.0
H3481 H 0.87362 0.12657 0.29257 0.0
H3482 H 0.90892 0.19685 0.26106 0.0
H3483 H 0.855 0.15999 0.29285 0.0
H3484 H 0.84087 0.2428 0.30868 0.0
H3485 H 0.8582 0.20871 0.31143 0.0
H3486 H 0.8735 0.20429 0.23949 0.0
H3487 H 0.8552 0.23674 0.2363 0.0
C3488 C 0.91204 0.1627 0.26875 0.0
C3489 C 0.90282 0.14183 0.27725 0.0
C3490 C 0.90088 0.18182 0.26824 0.0
C3491 C 0.87998 0.182 0.277 0.0
C3492 C 0.87094 0.16138 0.28602 0.0
C3493 C 0.88179 0.14181 0.28577 0.0
C3494 C 0.84734 0.23426 0.29317 0.0
C3495 C 0.84549 0.24287 0.2719 0.0
C3496 C 0.85764 0.21449 0.29478 0.0
C3497 C 0.86774 0.20288 0.27567 0.0
C3498 C 0.8663 0.21204 0.25484 0.0
C3499 C 0.85548 0.23102 0.253 0.0
H3500 H 0.72147 0.08802 0.9924 0.0
H3501 H 0.7266 0.1458 0.05327 0.0
H3502 H 0.68172 0.07683 0.99344 0.0
H3503 H 0.68681 0.13376 0.05531 0.0
H3504 H 0.6114 0.11911 0.03519 0.0
H3505 H 0.65154 0.13237 0.03636 0.0
H3506 H 0.65596 0.05834 0.01547 0.0
H3507 H 0.61631 0.04573 0.01223 0.0
C3508 C 0.71403 0.09818 0.00613 0.0
C3509 C 0.72698 0.11768 0.02277 0.0
C3510 C 0.69129 0.09166 0.00691 0.0
C3511 C 0.68109 0.10416 0.02472 0.0
C3512 C 0.6941 0.1239 0.04125 0.0
C3513 C 0.71686 0.13074 0.04014 0.0
C3514 C 0.62112 0.10579 0.03105 0.0
C3515 C 0.61076 0.08133 0.02422 0.0
C3516 C 0.64407 0.11332 0.03186 0.0
C3517 C 0.65699 0.09643 0.02584 0.0
C3518 C 0.64654 0.07192 0.0197 0.0
C3519 C 0.62368 0.06454 0.01836 0.0
H3520 H 0.19799 0.44843 0.27305 0.0
H3521 H 0.25699 0.50564 0.2861 0.0
H3522 H 0.2179 0.42343 0.29082 0.0
H3523 H 0.27668 0.48117 0.30489 0.0
H3524 H 0.31219 0.42406 0.31745 0.0
H3525 H 0.29239 0.4478 0.29805 0.0
H3526 H 0.23285 0.41866 0.32741 0.0
H3527 H 0.25231 0.39355 0.34543 0.0
C3528 C 0.21522 0.45568 0.27979 0.0
C3529 C 0.22594 0.47898 0.27812 0.0
C3530 C 0.22661 0.44143 0.2902 0.0
C3531 C 0.24893 0.45024 0.29948 0.0
C3532 C 0.25964 0.47355 0.29763 0.0
C3533 C 0.24832 0.48767 0.28693 0.0
C3534 C 0.29478 0.4224 0.31952 0.0
C3535 C 0.28386 0.40664 0.33289 0.0
C3536 C 0.28347 0.43636 0.30865 0.0
C3537 C 0.26095 0.43526 0.3111 0.0
C3538 C 0.25008 0.41977 0.32478 0.0
C3539 C 0.26137 0.4056 0.33547 0.0
H3540 H 0.29167 0.46634 0.04239 0.0
H3541 H 0.23712 0.4057 0.03953 0.0
H3542 H 0.26613 0.4905 0.03472 0.0
H3543 H 0.21109 0.43047 0.03301 0.0
H3544 H 0.17239 0.47497 0.99596 0.0
H3545 H 0.19649 0.44924 0.00524 0.0
H3546 H 0.24083 0.51099 0.05076 0.0
H3547 H 0.2173 0.53658 0.04039 0.0
C3548 C 0.27412 0.45823 0.04049 0.0
C3549 C 0.26645 0.43405 0.04161 0.0
C3550 C 0.25936 0.47223 0.03625 0.0
C3551 C 0.23638 0.46266 0.03341 0.0
C3552 C 0.22865 0.43846 0.0348 0.0
C3553 C 0.24353 0.42427 0.03872 0.0
C3554 C 0.18731 0.48291 0.00797 0.0
C3555 C 0.19316 0.50779 0.01722 0.0
C3556 C 0.20108 0.46817 0.01345 0.0
C3557 C 0.22085 0.47794 0.02861 0.0
C3558 C 0.22615 0.50279 0.03848 0.0
C3559 C 0.21262 0.51752 0.03266 0.0
H3560 H 0.8733 0.99872 0.27062 0.0
H3561 H 0.93052 0.96856 0.26184 0.0
H3562 H 0.85062 0.95832 0.27056 0.0
H3563 H 0.90835 0.92916 0.26179 0.0
H3564 H 0.87114 0.86482 0.28743 0.0
H3565 H 0.89058 0.90551 0.28722 0.0
H3566 H 0.83387 0.91573 0.24754 0.0
H3567 H 0.81426 0.87437 0.24754 0.0
C3568 C 0.88116 0.9837 0.26862 0.0
C3569 C 0.90411 0.98759 0.26632 0.0
C3570 C 0.86805 0.9603 0.2685 0.0
C3571 C 0.8774 0.9399 0.26645 0.0
C3572 C 0.90022 0.94398 0.26392 0.0
C3573 C 0.91311 0.967 0.26378 0.0
C3574 C 0.86255 0.87549 0.2786 0.0
C3575 C 0.8407 0.86565 0.26768 0.0
C3576 C 0.87393 0.89918 0.27837 0.0
C3577 C 0.86416 0.91458 0.26729 0.0
C3578 C 0.84218 0.90494 0.25654 0.0
C3579 C 0.83079 0.88096 0.25656 0.0
H3580 H 0.70885 0.11947 0.70452 0.0
H3581 H 0.74909 0.10429 0.76056 0.0
H3582 H 0.72777 0.16169 0.71573 0.0
H3583 H 0.76785 0.14674 0.7719 0.0
H3584 H 0.8077 0.22384 0.77222 0.0
H3585 H 0.79242 0.18063 0.75897 0.0
H3586 H 0.72688 0.19354 0.75086 0.0
H3587 H 0.74234 0.23672 0.76352 0.0
C3588 C 0.72187 0.12505 0.71909 0.0
C3589 C 0.72724 0.10848 0.73182 0.0
C3590 C 0.73261 0.1493 0.72559 0.0
C3591 C 0.74898 0.15759 0.74497 0.0
C3592 C 0.75527 0.14088 0.75689 0.0
C3593 C 0.74449 0.11655 0.7504 0.0
C3594 C 0.7901 0.21741 0.76725 0.0
C3595 C 0.77627 0.23357 0.76783 0.0
C3596 C 0.78132 0.19268 0.75997 0.0
C3597 C 0.7585 0.18372 0.75339 0.0
C3598 C 0.7446 0.19993 0.75519 0.0
C3599 C 0.75338 0.22459 0.76264 0.0
loop_
_geom_bond_atom_site_label_1
_geom_bond_atom_site_label_2
_geom_bond_distance
_geom_bond_site_symmetry_2
_ccdc_geom_bond_type
C0 O1 1.306 . S
C0 O3 1.160 . S
O1 C0 1.306 . S
O1 Cd2 2.228 . S
Cd2 O1 2.228 . S
Cd2 O6 2.273 . S
Cd2 O10 2.277 . S
O3 C0 1.160 . S
O3 Cd4 2.203 . S
Cd4 O3 2.203 . S
Cd4 O6 2.411 . S
Cd4 O7 2.333 . S
Cd4 O8 2.352 . S
Cd4 O12 2.277 . S
Cd4 O13 2.356 . S
C5 O10 1.209 . S
C5 O12 1.226 . S
O6 Cd2 2.273 . S
O6 Cd4 2.411 . S
O6 C9 1.320 . S
O7 Cd4 2.333 . S
O7 C9 1.214 . S
O8 Cd4 2.352 . S
O8 C11 1.258 . S
C9 O6 1.320 . S
C9 O7 1.214 . S
O10 Cd2 2.277 . S
O10 C5 1.209 . S
C11 O8 1.258 . S
C11 O13 1.282 . S
O12 Cd4 2.277 . S
O12 C5 1.226 . S
O13 Cd4 2.356 . S
O13 C11 1.282 . S
C14 O15 1.306 . S
C14 O17 1.160 . S
O15 C14 1.306 . S
O15 Cd16 2.228 1_655 S
Cd16 O15 2.228 1_455 S
Cd16 O20 2.273 . S
Cd16 O24 2.277 1_455 S
O17 C14 1.160 . S
O17 Cd18 2.203 1_655 S
Cd18 O17 2.203 1_455 S
Cd18 O20 2.411 . S
Cd18 O21 2.333 . S
Cd18 O22 2.352 . S
Cd18 O26 2.277 1_455 S
Cd18 O27 2.356 . S
C19 O24 1.209 . S
C19 O26 1.226 . S
O20 Cd16 2.273 . S
O20 Cd18 2.411 . S
O20 C23 1.320 . S
O21 Cd18 2.333 . S
O21 C23 1.214 . S
O22 Cd18 2.352 . S
O22 C25 1.258 . S
C23 O20 1.320 . S
C23 O21 1.214 . S
O24 Cd16 2.277 1_655 S
O24 C19 1.209 . S
C25 O22 1.258 . S
C25 O27 1.282 . S
O26 Cd18 2.277 1_655 S
O26 C19 1.226 . S
O27 Cd18 2.356 . S
O27 C25 1.282 . S
C28 O29 1.306 . S
C28 O31 1.160 . S
O29 C28 1.306 . S
O29 Cd30 2.228 . S
Cd30 O29 2.228 . S
Cd30 O34 2.273 . S
Cd30 O38 2.277 . S
O31 C28 1.160 . S
O31 Cd32 2.203 . S
Cd32 O31 2.203 . S
Cd32 O34 2.411 . S
Cd32 O35 2.333 . S
Cd32 O36 2.352 . S
Cd32 O40 2.277 . S
Cd32 O41 2.356 . S
C33 O38 1.209 . S
C33 O40 1.226 . S
O34 Cd30 2.273 . S
O34 Cd32 2.411 . S
O34 C37 1.320 . S
O35 Cd32 2.333 . S
O35 C37 1.214 . S
O36 Cd32 2.352 . S
O36 C39 1.258 . S
C37 O34 1.320 . S
C37 O35 1.214 . S
O38 Cd30 2.277 . S
O38 C33 1.209 . S
C39 O36 1.258 . S
C39 O41 1.282 . S
O40 Cd32 2.277 . S
O40 C33 1.226 . S
O41 Cd32 2.356 . S
O41 C39 1.282 . S
C42 O43 1.306 . S
C42 O45 1.160 . S
O43 C42 1.306 . S
O43 Cd44 2.228 . S
Cd44 O43 2.228 . S
Cd44 O48 2.273 . S
Cd44 O52 2.277 . S
O45 C42 1.160 . S
O45 Cd46 2.203 . S
Cd46 O45 2.203 . S
Cd46 O48 2.411 . S
Cd46 O49 2.333 . S
Cd46 O50 2.352 . S
Cd46 O54 2.277 . S
Cd46 O55 2.356 . S
C47 O52 1.209 . S
C47 O54 1.226 . S
O48 Cd44 2.273 . S
O48 Cd46 2.411 . S
O48 C51 1.320 . S
O49 Cd46 2.333 . S
O49 C51 1.214 . S
O50 Cd46 2.352 . S
O50 C53 1.258 . S
C51 O48 1.320 . S
C51 O49 1.214 . S
O52 Cd44 2.277 . S
O52 C47 1.209 . S
C53 O50 1.258 . S
C53 O55 1.282 . S
O54 Cd46 2.277 . S
O54 C47 1.226 . S
O55 Cd46 2.356 . S
O55 C53 1.282 . S
C56 O57 1.306 . S
C56 O59 1.160 . S
O57 C56 1.306 . S
O57 Cd58 2.228 . S
Cd58 O57 2.228 . S
Cd58 O62 2.273 . S
Cd58 O66 2.277 . S
O59 C56 1.160 . S
O59 Cd60 2.203 . S
Cd60 O59 2.203 . S
Cd60 O62 2.411 . S
Cd60 O63 2.333 . S
Cd60 O64 2.352 . S
Cd60 O68 2.277 . S
Cd60 O69 2.356 . S
C61 O66 1.209 . S
C61 O68 1.226 . S
O62 Cd58 2.273 . S
O62 Cd60 2.411 . S
O62 C65 1.320 . S
O63 Cd60 2.333 . S
O63 C65 1.214 . S
O64 Cd60 2.352 . S
O64 C67 1.258 . S
C65 O62 1.320 . S
C65 O63 1.214 . S
O66 Cd58 2.277 . S
O66 C61 1.209 . S
C67 O64 1.258 . S
C67 O69 1.282 . S
O68 Cd60 2.277 . S
O68 C61 1.226 . S
O69 Cd60 2.356 . S
O69 C67 1.282 . S
C70 O71 1.306 . S
C70 O73 1.160 . S
O71 C70 1.306 . S
O71 Cd72 2.228 . S
Cd72 O71 2.228 . S
Cd72 O76 2.273 . S
Cd72 O80 2.277 . S
O73 C70 1.160 . S
O73 Cd74 2.203 . S
Cd74 O73 2.203 . S
Cd74 O76 2.411 . S
Cd74 O77 2.333 . S
Cd74 O78 2.352 . S
Cd74 O82 2.277 . S
Cd74 O83 2.356 . S
C75 O80 1.209 . S
C75 O82 1.226 . S
O76 Cd72 2.273 . S
O76 Cd74 2.411 . S
O76 C79 1.320 . S
O77 Cd74 2.333 . S
O77 C79 1.214 . S
O78 Cd74 2.352 . S
O78 C81 1.258 . S
C79 O76 1.320 . S
C79 O77 1.214 . S
O80 Cd72 2.277 . S
O80 C75 1.209 . S
C81 O78 1.258 . S
C81 O83 1.282 . S
O82 Cd74 2.277 . S
O82 C75 1.226 . S
O83 Cd74 2.356 . S
O83 C81 1.282 . S
C84 O85 1.306 . S
C84 O87 1.160 . S
O85 C84 1.306 . S
O85 Cd86 2.228 . S
Cd86 O85 2.228 . S
Cd86 O90 2.273 . S
Cd86 O94 2.277 . S
O87 C84 1.160 . S
O87 Cd88 2.203 . S
Cd88 O87 2.203 . S
Cd88 O90 2.411 . S
Cd88 O91 2.333 . S
Cd88 O92 2.352 . S
Cd88 O96 2.277 . S
Cd88 O97 2.356 . S
C89 O94 1.209 . S
C89 O96 1.226 . S
O90 Cd86 2.273 . S
O90 Cd88 2.411 . S
O90 C93 1.320 . S
O91 Cd88 2.333 . S
O91 C93 1.214 . S
O92 Cd88 2.352 . S
O92 C95 1.258 . S
C93 O90 1.320 . S
C93 O91 1.214 . S
O94 Cd86 2.277 . S
O94 C89 1.209 . S
C95 O92 1.258 . S
C95 O97 1.282 . S
O96 Cd88 2.277 . S
O96 C89 1.226 . S
O97 Cd88 2.356 . S
O97 C95 1.282 . S
C98 O99 1.306 . S
C98 O101 1.160 . S
O99 C98 1.306 . S
O99 Cd100 2.228 1_655 S
Cd100 O99 2.228 1_455 S
Cd100 O104 2.273 . S
Cd100 O108 2.277 . S
O101 C98 1.160 . S
O101 Cd102 2.203 1_655 S
Cd102 O101 2.203 1_455 S
Cd102 O104 2.411 . S
Cd102 O105 2.333 . S
Cd102 O106 2.352 . S
Cd102 O110 2.277 . S
Cd102 O111 2.356 . S
C103 O108 1.209 . S
C103 O110 1.226 . S
O104 Cd100 2.273 . S
O104 Cd102 2.411 . S
O104 C107 1.320 . S
O105 Cd102 2.333 . S
O105 C107 1.214 . S
O106 Cd102 2.352 . S
O106 C109 1.258 . S
C107 O104 1.320 . S
C107 O105 1.214 . S
O108 Cd100 2.277 . S
O108 C103 1.209 . S
C109 O106 1.258 . S
C109 O111 1.282 . S
O110 Cd102 2.277 . S
O110 C103 1.226 . S
O111 Cd102 2.356 . S
O111 C109 1.282 . S
C112 O113 1.306 . S
C112 O115 1.160 . S
O113 C112 1.306 . S
O113 Cd114 2.228 1_545 S
Cd114 O113 2.228 1_565 S
Cd114 O118 2.273 1_565 S
Cd114 O122 2.277 . S
O115 C112 1.160 . S
O115 Cd116 2.203 . S
Cd116 O115 2.203 . S
Cd116 O118 2.411 . S
Cd116 O119 2.333 . S
Cd116 O120 2.352 . S
Cd116 O124 2.277 1_545 S
Cd116 O125 2.356 . S
C117 O122 1.209 . S
C117 O124 1.226 . S
O118 Cd114 2.273 1_545 S
O118 Cd116 2.411 . S
O118 C121 1.320 . S
O119 Cd116 2.333 . S
O119 C121 1.214 . S
O120 Cd116 2.352 . S
O120 C123 1.258 . S
C121 O118 1.320 . S
C121 O119 1.214 . S
O122 Cd114 2.277 . S
O122 C117 1.209 . S
C123 O120 1.258 . S
C123 O125 1.282 . S
O124 Cd116 2.277 1_565 S
O124 C117 1.226 . S
O125 Cd116 2.356 . S
O125 C123 1.282 . S
C126 O127 1.306 . S
C126 O129 1.160 . S
O127 C126 1.306 . S
O127 Cd128 2.228 . S
Cd128 O127 2.228 . S
Cd128 O132 2.273 . S
Cd128 O136 2.277 . S
O129 C126 1.160 . S
O129 Cd130 2.203 . S
Cd130 O129 2.203 . S
Cd130 O132 2.411 . S
Cd130 O133 2.333 . S
Cd130 O134 2.352 . S
Cd130 O138 2.277 . S
Cd130 O139 2.356 . S
C131 O136 1.209 . S
C131 O138 1.226 . S
O132 Cd128 2.273 . S
O132 Cd130 2.411 . S
O132 C135 1.320 . S
O133 Cd130 2.333 . S
O133 C135 1.214 . S
O134 Cd130 2.352 . S
O134 C137 1.258 . S
C135 O132 1.320 . S
C135 O133 1.214 . S
O136 Cd128 2.277 . S
O136 C131 1.209 . S
C137 O134 1.258 . S
C137 O139 1.282 . S
O138 Cd130 2.277 . S
O138 C131 1.226 . S
O139 Cd130 2.356 . S
O139 C137 1.282 . S
C140 O141 1.306 . S
C140 O143 1.160 . S
O141 C140 1.306 . S
O141 Cd142 2.228 . S
Cd142 O141 2.228 . S
Cd142 O146 2.273 1_545 S
Cd142 O150 2.277 . S
O143 C140 1.160 . S
O143 Cd144 2.203 1_545 S
Cd144 O143 2.203 1_565 S
Cd144 O146 2.411 . S
Cd144 O147 2.333 . S
Cd144 O148 2.352 . S
Cd144 O152 2.277 1_565 S
Cd144 O153 2.356 . S
C145 O150 1.209 . S
C145 O152 1.226 . S
O146 Cd142 2.273 1_565 S
O146 Cd144 2.411 . S
O146 C149 1.320 . S
O147 Cd144 2.333 . S
O147 C149 1.214 . S
O148 Cd144 2.352 . S
O148 C151 1.258 . S
C149 O146 1.320 . S
C149 O147 1.214 . S
O150 Cd142 2.277 . S
O150 C145 1.209 . S
C151 O148 1.258 . S
C151 O153 1.282 . S
O152 Cd144 2.277 1_545 S
O152 C145 1.226 . S
O153 Cd144 2.356 . S
O153 C151 1.282 . S
C154 O155 1.306 . S
C154 O157 1.160 . S
O155 C154 1.306 . S
O155 Cd156 2.228 1_554 S
Cd156 O155 2.228 1_556 S
Cd156 O160 2.273 1_556 S
Cd156 O164 2.277 . S
O157 C154 1.160 . S
O157 Cd158 2.203 . S
Cd158 O157 2.203 . S
Cd158 O160 2.411 . S
Cd158 O161 2.333 . S
Cd158 O162 2.352 . S
Cd158 O166 2.277 1_554 S
Cd158 O167 2.356 . S
C159 O164 1.209 . S
C159 O166 1.226 . S
O160 Cd156 2.273 1_554 S
O160 Cd158 2.411 . S
O160 C163 1.320 . S
O161 Cd158 2.333 . S
O161 C163 1.214 . S
O162 Cd158 2.352 . S
O162 C165 1.258 . S
C163 O160 1.320 . S
C163 O161 1.214 . S
O164 Cd156 2.277 . S
O164 C159 1.209 . S
C165 O162 1.258 . S
C165 O167 1.282 . S
O166 Cd158 2.277 1_556 S
O166 C159 1.226 . S
O167 Cd158 2.356 . S
O167 C165 1.282 . S
C168 O169 1.306 . S
C168 O171 1.160 . S
O169 C168 1.306 . S
O169 Cd170 2.228 . S
Cd170 O169 2.228 . S
Cd170 O174 2.273 . S
Cd170 O178 2.277 1_554 S
O171 C168 1.160 . S
O171 Cd172 2.203 . S
Cd172 O171 2.203 . S
Cd172 O174 2.411 . S
Cd172 O175 2.333 . S
Cd172 O176 2.352 . S
Cd172 O180 2.277 . S
Cd172 O181 2.356 . S
C173 O178 1.209 . S
C173 O180 1.226 1_556 S
O174 Cd170 2.273 . S
O174 Cd172 2.411 . S
O174 C177 1.320 . S
O175 Cd172 2.333 . S
O175 C177 1.214 . S
O176 Cd172 2.352 . S
O176 C179 1.258 . S
C177 O174 1.320 . S
C177 O175 1.214 . S
O178 Cd170 2.277 1_556 S
O178 C173 1.209 . S
C179 O176 1.258 . S
C179 O181 1.282 . S
O180 Cd172 2.277 . S
O180 C173 1.226 1_554 S
O181 Cd172 2.356 . S
O181 C179 1.282 . S
C182 O183 1.306 . S
C182 O185 1.160 . S
O183 C182 1.306 . S
O183 Cd184 2.228 . S
Cd184 O183 2.228 . S
Cd184 O188 2.273 . S
Cd184 O192 2.277 . S
O185 C182 1.160 . S
O185 Cd186 2.203 . S
Cd186 O185 2.203 . S
Cd186 O188 2.411 . S
Cd186 O189 2.333 . S
Cd186 O190 2.352 1_554 S
Cd186 O194 2.277 . S
Cd186 O195 2.356 . S
C187 O192 1.209 . S
C187 O194 1.226 . S
O188 Cd184 2.273 . S
O188 Cd186 2.411 . S
O188 C191 1.320 . S
O189 Cd186 2.333 . S
O189 C191 1.214 . S
O190 Cd186 2.352 1_556 S
O190 C193 1.258 . S
C191 O188 1.320 . S
C191 O189 1.214 . S
O192 Cd184 2.277 . S
O192 C187 1.209 . S
C193 O190 1.258 . S
C193 O195 1.282 1_556 S
O194 Cd186 2.277 . S
O194 C187 1.226 . S
O195 Cd186 2.356 . S
O195 C193 1.282 1_554 S
C196 O197 1.306 . S
C196 O199 1.160 . S
O197 C196 1.306 . S
O197 Cd198 2.228 . S
Cd198 O197 2.228 . S
Cd198 O202 2.273 . S
Cd198 O206 2.277 . S
O199 C196 1.160 . S
O199 Cd200 2.203 . S
Cd200 O199 2.203 . S
Cd200 O202 2.411 . S
Cd200 O203 2.333 . S
Cd200 O204 2.352 . S
Cd200 O208 2.277 . S
Cd200 O209 2.356 . S
C201 O206 1.209 . S
C201 O208 1.226 . S
O202 Cd198 2.273 . S
O202 Cd200 2.411 . S
O202 C205 1.320 . S
O203 Cd200 2.333 . S
O203 C205 1.214 . S
O204 Cd200 2.352 . S
O204 C207 1.258 . S
C205 O202 1.320 . S
C205 O203 1.214 . S
O206 Cd198 2.277 . S
O206 C201 1.209 . S
C207 O204 1.258 . S
C207 O209 1.282 . S
O208 Cd200 2.277 . S
O208 C201 1.226 . S
O209 Cd200 2.356 . S
O209 C207 1.282 . S
C210 O211 1.306 . S
C210 O213 1.160 . S
O211 C210 1.306 . S
O211 Cd212 2.228 . S
Cd212 O211 2.228 . S
Cd212 O216 2.273 . S
Cd212 O220 2.277 . S
O213 C210 1.160 . S
O213 Cd214 2.203 . S
Cd214 O213 2.203 . S
Cd214 O216 2.411 . S
Cd214 O217 2.333 . S
Cd214 O218 2.352 . S
Cd214 O222 2.277 . S
Cd214 O223 2.356 . S
C215 O220 1.209 . S
C215 O222 1.226 . S
O216 Cd212 2.273 . S
O216 Cd214 2.411 . S
O216 C219 1.320 . S
O217 Cd214 2.333 . S
O217 C219 1.214 . S
O218 Cd214 2.352 . S
O218 C221 1.258 . S
C219 O216 1.320 . S
C219 O217 1.214 . S
O220 Cd212 2.277 . S
O220 C215 1.209 . S
C221 O218 1.258 . S
C221 O223 1.282 . S
O222 Cd214 2.277 . S
O222 C215 1.226 . S
O223 Cd214 2.356 . S
O223 C221 1.282 . S
C224 O225 1.306 . S
C224 O227 1.160 . S
O225 C224 1.306 . S
O225 Cd226 2.228 . S
Cd226 O225 2.228 . S
Cd226 O230 2.273 . S
Cd226 O234 2.277 . S
O227 C224 1.160 . S
O227 Cd228 2.203 . S
Cd228 O227 2.203 . S
Cd228 O230 2.411 . S
Cd228 O231 2.333 . S
Cd228 O232 2.352 . S
Cd228 O236 2.277 . S
Cd228 O237 2.356 . S
C229 O234 1.209 . S
C229 O236 1.226 . S
O230 Cd226 2.273 . S
O230 Cd228 2.411 . S
O230 C233 1.320 . S
O231 Cd228 2.333 . S
O231 C233 1.214 . S
O232 Cd228 2.352 . S
O232 C235 1.258 . S
C233 O230 1.320 . S
C233 O231 1.214 . S
O234 Cd226 2.277 . S
O234 C229 1.209 . S
C235 O232 1.258 . S
C235 O237 1.282 . S
O236 Cd228 2.277 . S
O236 C229 1.226 . S
O237 Cd228 2.356 . S
O237 C235 1.282 . S
C238 O239 1.306 . S
C238 O241 1.160 . S
O239 C238 1.306 . S
O239 Cd240 2.228 . S
Cd240 O239 2.228 . S
Cd240 O244 2.273 . S
Cd240 O248 2.277 . S
O241 C238 1.160 . S
O241 Cd242 2.203 . S
Cd242 O241 2.203 . S
Cd242 O244 2.411 . S
Cd242 O245 2.333 . S
Cd242 O246 2.352 . S
Cd242 O250 2.277 . S
Cd242 O251 2.356 . S
C243 O248 1.209 . S
C243 O250 1.226 . S
O244 Cd240 2.273 . S
O244 Cd242 2.411 . S
O244 C247 1.320 . S
O245 Cd242 2.333 . S
O245 C247 1.214 . S
O246 Cd242 2.352 . S
O246 C249 1.258 . S
C247 O244 1.320 . S
C247 O245 1.214 . S
O248 Cd240 2.277 . S
O248 C243 1.209 . S
C249 O246 1.258 . S
C249 O251 1.282 . S
O250 Cd242 2.277 . S
O250 C243 1.226 . S
O251 Cd242 2.356 . S
O251 C249 1.282 . S
C252 O253 1.306 . S
C252 O255 1.160 . S
O253 C252 1.306 . S
O253 Cd254 2.228 . S
Cd254 O253 2.228 . S
Cd254 O258 2.273 . S
Cd254 O262 2.277 . S
O255 C252 1.160 . S
O255 Cd256 2.203 . S
Cd256 O255 2.203 . S
Cd256 O258 2.411 . S
Cd256 O259 2.333 . S
Cd256 O260 2.352 . S
Cd256 O264 2.277 . S
Cd256 O265 2.356 . S
C257 O262 1.209 . S
C257 O264 1.226 . S
O258 Cd254 2.273 . S
O258 Cd256 2.411 . S
O258 C261 1.320 . S
O259 Cd256 2.333 . S
O259 C261 1.214 . S
O260 Cd256 2.352 . S
O260 C263 1.258 . S
C261 O258 1.320 . S
C261 O259 1.214 . S
O262 Cd254 2.277 . S
O262 C257 1.209 . S
C263 O260 1.258 . S
C263 O265 1.282 . S
O264 Cd256 2.277 . S
O264 C257 1.226 . S
O265 Cd256 2.356 . S
O265 C263 1.282 . S
C266 O267 1.306 . S
C266 O269 1.160 . S
O267 C266 1.306 . S
O267 Cd268 2.228 . S
Cd268 O267 2.228 . S
Cd268 O272 2.273 . S
Cd268 O276 2.277 . S
O269 C266 1.160 . S
O269 Cd270 2.203 . S
Cd270 O269 2.203 . S
Cd270 O272 2.411 . S
Cd270 O273 2.333 . S
Cd270 O274 2.352 . S
Cd270 O278 2.277 . S
Cd270 O279 2.356 . S
C271 O276 1.209 . S
C271 O278 1.226 . S
O272 Cd268 2.273 . S
O272 Cd270 2.411 . S
O272 C275 1.320 . S
O273 Cd270 2.333 . S
O273 C275 1.214 . S
O274 Cd270 2.352 . S
O274 C277 1.258 . S
C275 O272 1.320 . S
C275 O273 1.214 . S
O276 Cd268 2.277 . S
O276 C271 1.209 . S
C277 O274 1.258 . S
C277 O279 1.282 . S
O278 Cd270 2.277 . S
O278 C271 1.226 . S
O279 Cd270 2.356 . S
O279 C277 1.282 . S
C280 O281 1.306 . S
C280 O283 1.160 1_554 S
O281 C280 1.306 . S
O281 Cd282 2.228 . S
Cd282 O281 2.228 . S
Cd282 O286 2.273 1_554 S
Cd282 O290 2.277 . S
O283 C280 1.160 1_556 S
O283 Cd284 2.203 . S
Cd284 O283 2.203 . S
Cd284 O286 2.411 . S
Cd284 O287 2.333 . S
Cd284 O288 2.352 . S
Cd284 O292 2.277 1_556 S
Cd284 O293 2.356 . S
C285 O290 1.209 . S
C285 O292 1.226 . S
O286 Cd282 2.273 1_556 S
O286 Cd284 2.411 . S
O286 C289 1.320 . S
O287 Cd284 2.333 . S
O287 C289 1.214 . S
O288 Cd284 2.352 . S
O288 C291 1.258 . S
C289 O286 1.320 . S
C289 O287 1.214 . S
O290 Cd282 2.277 . S
O290 C285 1.209 . S
C291 O288 1.258 . S
C291 O293 1.282 . S
O292 Cd284 2.277 1_554 S
O292 C285 1.226 . S
O293 Cd284 2.356 . S
O293 C291 1.282 . S
C294 O295 1.306 . S
C294 O297 1.160 . S
O295 C294 1.306 . S
O295 Cd296 2.228 . S
Cd296 O295 2.228 . S
Cd296 O300 2.273 . S
Cd296 O304 2.277 . S
O297 C294 1.160 . S
O297 Cd298 2.203 . S
Cd298 O297 2.203 . S
Cd298 O300 2.411 . S
Cd298 O301 2.333 . S
Cd298 O302 2.352 . S
Cd298 O306 2.277 . S
Cd298 O307 2.356 . S
C299 O304 1.209 . S
C299 O306 1.226 . S
O300 Cd296 2.273 . S
O300 Cd298 2.411 . S
O300 C303 1.320 . S
O301 Cd298 2.333 . S
O301 C303 1.214 . S
O302 Cd298 2.352 . S
O302 C305 1.258 . S
C303 O300 1.320 . S
C303 O301 1.214 . S
O304 Cd296 2.277 . S
O304 C299 1.209 . S
C305 O302 1.258 . S
C305 O307 1.282 . S
O306 Cd298 2.277 . S
O306 C299 1.226 . S
O307 Cd298 2.356 . S
O307 C305 1.282 . S
C308 O309 1.306 . S
C308 O311 1.160 . S
O309 C308 1.306 . S
O309 Cd310 2.228 . S
Cd310 O309 2.228 . S
Cd310 O314 2.273 . S
Cd310 O318 2.277 . S
O311 C308 1.160 . S
O311 Cd312 2.203 . S
Cd312 O311 2.203 . S
Cd312 O314 2.411 . S
Cd312 O315 2.333 . S
Cd312 O316 2.352 . S
Cd312 O320 2.277 . S
Cd312 O321 2.356 . S
C313 O318 1.209 . S
C313 O320 1.226 . S
O314 Cd310 2.273 . S
O314 Cd312 2.411 . S
O314 C317 1.320 . S
O315 Cd312 2.333 . S
O315 C317 1.214 . S
O316 Cd312 2.352 . S
O316 C319 1.258 . S
C317 O314 1.320 . S
C317 O315 1.214 . S
O318 Cd310 2.277 . S
O318 C313 1.209 . S
C319 O316 1.258 . S
C319 O321 1.282 . S
O320 Cd312 2.277 . S
O320 C313 1.226 . S
O321 Cd312 2.356 . S
O321 C319 1.282 . S
C322 O323 1.306 . S
C322 O325 1.160 . S
O323 C322 1.306 . S
O323 Cd324 2.228 . S
Cd324 O323 2.228 . S
Cd324 O328 2.273 . S
Cd324 O332 2.277 . S
O325 C322 1.160 . S
O325 Cd326 2.203 . S
Cd326 O325 2.203 . S
Cd326 O328 2.411 . S
Cd326 O329 2.333 . S
Cd326 O330 2.352 . S
Cd326 O334 2.277 . S
Cd326 O335 2.356 . S
C327 O332 1.209 . S
C327 O334 1.226 . S
O328 Cd324 2.273 . S
O328 Cd326 2.411 . S
O328 C331 1.320 . S
O329 Cd326 2.333 . S
O329 C331 1.214 . S
O330 Cd326 2.352 . S
O330 C333 1.258 . S
C331 O328 1.320 . S
C331 O329 1.214 . S
O332 Cd324 2.277 . S
O332 C327 1.209 . S
C333 O330 1.258 . S
C333 O335 1.282 . S
O334 Cd326 2.277 . S
O334 C327 1.226 . S
O335 Cd326 2.356 . S
O335 C333 1.282 . S
Tb336 N367 2.660 1_545 S
Tb336 N374 2.600 1_544 S
Tb336 O380 2.546 1_454 S
Tb336 O381 2.610 . S
Tb336 O383 2.320 . S
Tb336 O384 2.552 . S
Tb336 O385 2.413 1_455 S
Tb336 O387 2.362 . S
Tb336 O388 2.421 1_554 S
Tb336 C400 2.833 1_454 S
C337 C340 1.432 . S
C337 C341 1.414 . S
C337 N344 1.359 . S
C338 C340 1.417 . S
C338 C342 1.432 . S
C338 C350 1.410 . S
C339 C341 1.444 . S
C339 C342 1.317 . S
C339 H362 0.929 . S
C340 C337 1.432 . S
C340 C338 1.417 . S
C340 N348 1.360 . S
C341 C337 1.414 . S
C341 C339 1.444 . S
C341 C346 1.385 . S
C342 C338 1.432 . S
C342 C339 1.317 . S
C342 H354 0.930 . S
C343 C345 1.392 . S
C343 C346 1.370 . S
C343 H355 0.931 . S
N344 C337 1.359 . S
N344 C345 1.327 . S
N344 Tb347 2.600 . S
C345 C343 1.392 . S
C345 N344 1.327 . S
C345 H352 0.930 . S
C346 C341 1.385 . S
C346 C343 1.370 . S
C346 H365 0.930 . S
Tb347 N344 2.600 . S
Tb347 N348 2.660 . S
Tb347 O381 2.362 . S
Tb347 O382 2.421 . S
Tb347 O386 2.546 . S
Tb347 O387 2.610 . S
Tb347 O389 2.320 1_554 S
Tb347 O390 2.552 . S
Tb347 O391 2.413 . S
Tb347 C411 2.833 . S
N348 C340 1.360 . S
N348 Tb347 2.660 . S
N348 C349 1.305 1_554 S
C349 N348 1.305 1_556 S
C349 C351 1.407 . S
C349 H356 0.930 . S
C350 C338 1.410 . S
C350 C351 1.345 1_554 S
C350 H358 0.930 1_554 S
C351 C349 1.407 . S
C351 C350 1.345 1_556 S
C351 H353 0.930 . S
H352 C345 0.930 . S
H353 C351 0.930 . S
H354 C342 0.930 . S
H355 C343 0.931 . S
H356 C349 0.930 . S
H357 C371 0.930 . S
H358 C350 0.930 1_556 S
H359 C377 0.930 . S
H360 C368 0.930 . S
H361 C375 0.932 . S
H362 C339 0.929 . S
H363 C369 0.930 . S
H364 C402 0.930 1_554 S
H365 C346 0.930 . S
H366 C401 0.929 . S
N367 Tb336 2.660 1_565 S
N367 C368 1.305 . S
N367 C372 1.371 . S
C368 H360 0.930 . S
C368 N367 1.305 . S
C368 C371 1.407 . S
C369 H363 0.930 . S
C369 C370 1.410 . S
C369 C371 1.345 1_655 S
C370 C369 1.410 . S
C370 C372 1.405 1_655 S
C370 C402 1.432 1_554 S
C371 H357 0.930 . S
C371 C368 1.407 . S
C371 C369 1.345 1_455 S
C372 N367 1.371 . S
C372 C370 1.405 1_455 S
C372 C376 1.433 1_554 S
H373 C378 0.930 . S
N374 Tb336 2.600 1_566 S
N374 C376 1.369 . S
N374 C377 1.327 . S
C375 H361 0.932 . S
C375 C377 1.389 1_655 S
C375 C378 1.374 . S
C376 C372 1.433 1_556 S
C376 N374 1.369 . S
C376 C379 1.407 1_455 S
C377 H359 0.930 . S
C377 N374 1.327 . S
C377 C375 1.389 1_455 S
C378 H373 0.930 . S
C378 C375 1.374 . S
C378 C379 1.385 . S
C379 C376 1.407 1_655 S
C379 C378 1.385 . S
C379 C401 1.444 . S
O380 Tb336 2.546 1_656 S
O380 C400 1.251 . S
O381 Tb336 2.610 . S
O381 Tb347 2.362 . S
O381 C392 1.283 . S
O382 Tb347 2.421 . S
O382 C399 1.262 . S
O383 Tb336 2.320 . S
O383 C399 1.260 . S
O384 Tb336 2.552 . S
O384 C392 1.243 . S
O385 Tb336 2.413 1_655 S
O385 C400 1.256 1_554 S
O386 Tb347 2.546 . S
O386 C411 1.251 . S
O387 Tb336 2.362 . S
O387 Tb347 2.610 . S
O387 C403 1.283 1_545 S
O388 Tb336 2.421 1_556 S
O388 C410 1.262 . S
O389 Tb347 2.320 1_556 S
O389 C410 1.260 . S
O390 Tb347 2.552 . S
O390 C403 1.243 1_545 S
O391 Tb347 2.413 . S
O391 C411 1.256 . S
C392 O381 1.283 . S
C392 O384 1.243 . S
C393 C395 1.382 1_556 S
C393 C397 1.393 . S
C393 C400 1.500 . S
C394 C395 1.400 1_556 S
C394 C396 1.382 . S
C395 C393 1.382 1_554 S
C395 C394 1.400 1_554 S
C395 H412 0.930 . S
C396 C394 1.382 . S
C396 C398 1.392 . S
C396 H413 0.931 . S
C397 C393 1.393 . S
C397 C398 1.401 . S
C397 H414 0.930 . S
C398 C396 1.392 . S
C398 C397 1.401 . S
C398 H415 0.930 . S
C399 O382 1.262 . S
C399 O383 1.260 . S
C400 Tb336 2.833 1_656 S
C400 O380 1.251 . S
C400 O385 1.256 1_556 S
C400 C393 1.500 . S
C401 H366 0.929 . S
C401 C379 1.444 . S
C401 C402 1.317 . S
C402 H364 0.930 1_556 S
C402 C370 1.432 1_556 S
C402 C401 1.317 . S
C403 O387 1.283 1_565 S
C403 O390 1.243 1_565 S
C404 C405 1.382 . S
C404 C408 1.393 . S
C404 C411 1.500 . S
C405 C404 1.382 . S
C405 C406 1.400 . S
C405 H416 0.930 . S
C406 C405 1.400 . S
C406 C407 1.384 . S
C407 C406 1.384 . S
C407 C409 1.392 . S
C407 H417 0.931 . S
C408 C404 1.393 . S
C408 C409 1.401 . S
C408 H418 0.930 . S
C409 C407 1.392 . S
C409 C408 1.401 . S
C409 H419 0.930 . S
C410 O388 1.262 . S
C410 O389 1.260 . S
C411 Tb347 2.833 . S
C411 O386 1.251 . S
C411 O391 1.256 . S
C411 C404 1.500 . S
H412 C395 0.930 . S
H413 C396 0.931 . S
H414 C397 0.930 . S
H415 C398 0.930 . S
H416 C405 0.930 . S
H417 C407 0.931 . S
H418 C408 0.930 . S
H419 C409 0.930 . S
Tb420 N451 2.660 . S
Tb420 N458 2.600 . S
Tb420 O464 2.546 . S
Tb420 O465 2.610 . S
Tb420 O467 2.320 . S
Tb420 O468 2.552 . S
Tb420 O469 2.413 . S
Tb420 O471 2.362 . S
Tb420 O472 2.421 . S
Tb420 C484 2.833 . S
C421 C424 1.432 . S
C421 C425 1.414 . S
C421 N428 1.359 . S
C422 C424 1.417 . S
C422 C426 1.432 . S
C422 C434 1.410 . S
C423 C425 1.444 . S
C423 C426 1.317 . S
C423 H446 0.929 . S
C424 C421 1.432 . S
C424 C422 1.417 . S
C424 N432 1.360 . S
C425 C421 1.414 . S
C425 C423 1.444 . S
C425 C430 1.385 . S
C426 C422 1.432 . S
C426 C423 1.317 . S
C426 H438 0.930 . S
C427 C429 1.392 . S
C427 C430 1.370 . S
C427 H439 0.931 . S
N428 C421 1.359 . S
N428 C429 1.327 . S
N428 Tb431 2.600 . S
C429 C427 1.392 . S
C429 N428 1.327 . S
C429 H436 0.930 . S
C430 C425 1.385 . S
C430 C427 1.370 . S
C430 H449 0.930 . S
Tb431 N428 2.600 . S
Tb431 N432 2.660 . S
Tb431 O465 2.362 . S
Tb431 O466 2.421 . S
Tb431 O470 2.546 . S
Tb431 O471 2.610 . S
Tb431 O473 2.320 . S
Tb431 O474 2.552 . S
Tb431 O475 2.413 . S
Tb431 C495 2.833 . S
N432 C424 1.360 . S
N432 Tb431 2.660 . S
N432 C433 1.305 . S
C433 N432 1.305 . S
C433 C435 1.407 . S
C433 H440 0.930 . S
C434 C422 1.410 . S
C434 C435 1.345 . S
C434 H442 0.930 . S
C435 C433 1.407 . S
C435 C434 1.345 . S
C435 H437 0.930 . S
H436 C429 0.930 . S
H437 C435 0.930 . S
H438 C426 0.930 . S
H439 C427 0.931 . S
H440 C433 0.930 . S
H441 C455 0.930 . S
H442 C434 0.930 . S
H443 C461 0.930 . S
H444 C452 0.930 . S
H445 C459 0.931 . S
H446 C423 0.929 . S
H447 C453 0.930 . S
H448 C486 0.930 . S
H449 C430 0.930 . S
H450 C485 0.929 . S
N451 Tb420 2.660 . S
N451 C452 1.305 . S
N451 C456 1.360 . S
C452 H444 0.930 . S
C452 N451 1.305 . S
C452 C455 1.407 . S
C453 H447 0.930 . S
C453 C454 1.410 . S
C453 C455 1.345 . S
C454 C453 1.410 . S
C454 C456 1.417 . S
C454 C486 1.432 . S
C455 H441 0.930 . S
C455 C452 1.407 . S
C455 C453 1.345 . S
C456 N451 1.360 . S
C456 C454 1.417 . S
C456 C460 1.432 . S
H457 C462 0.930 . S
N458 Tb420 2.600 . S
N458 C460 1.359 . S
N458 C461 1.327 . S
C459 H445 0.931 . S
C459 C461 1.392 . S
C459 C462 1.370 . S
C460 C456 1.432 . S
C460 N458 1.359 . S
C460 C463 1.414 . S
C461 H443 0.930 . S
C461 N458 1.327 . S
C461 C459 1.392 . S
C462 H457 0.930 . S
C462 C459 1.370 . S
C462 C463 1.385 . S
C463 C460 1.414 . S
C463 C462 1.385 . S
C463 C485 1.444 . S
O464 Tb420 2.546 . S
O464 C484 1.251 . S
O465 Tb420 2.610 . S
O465 Tb431 2.362 . S
O465 C476 1.283 . S
O466 Tb431 2.421 . S
O466 C483 1.262 . S
O467 Tb420 2.320 . S
O467 C483 1.260 . S
O468 Tb420 2.552 . S
O468 C476 1.243 . S
O469 Tb420 2.413 . S
O469 C484 1.256 . S
O470 Tb431 2.546 . S
O470 C495 1.251 . S
O471 Tb420 2.362 . S
O471 Tb431 2.610 . S
O471 C487 1.283 . S
O472 Tb420 2.421 . S
O472 C494 1.262 . S
O473 Tb431 2.320 . S
O473 C494 1.260 . S
O474 Tb431 2.552 . S
O474 C487 1.243 . S
O475 Tb431 2.413 . S
O475 C495 1.256 . S
C476 O465 1.283 . S
C476 O468 1.243 . S
C477 C479 1.382 . S
C477 C481 1.393 . S
C477 C484 1.500 . S
C478 C479 1.400 . S
C478 C480 1.384 . S
C479 C477 1.382 . S
C479 C478 1.400 . S
C479 H496 0.930 . S
C480 C478 1.384 . S
C480 C482 1.392 . S
C480 H497 0.931 . S
C481 C477 1.393 . S
C481 C482 1.401 . S
C481 H498 0.930 . S
C482 C480 1.392 . S
C482 C481 1.401 . S
C482 H499 0.930 . S
C483 O466 1.262 . S
C483 O467 1.260 . S
C484 Tb420 2.833 . S
C484 O464 1.251 . S
C484 O469 1.256 . S
C484 C477 1.500 . S
C485 H450 0.929 . S
C485 C463 1.444 . S
C485 C486 1.317 . S
C486 H448 0.930 . S
C486 C454 1.432 . S
C486 C485 1.317 . S
C487 O471 1.283 . S
C487 O474 1.243 . S
C488 C489 1.382 . S
C488 C492 1.393 . S
C488 C495 1.500 . S
C489 C488 1.382 . S
C489 C490 1.400 . S
C489 H500 0.930 . S
C490 C489 1.400 . S
C490 C491 1.384 . S
C491 C490 1.384 . S
C491 C493 1.392 . S
C491 H501 0.931 . S
C492 C488 1.393 . S
C492 C493 1.401 . S
C492 H502 0.930 . S
C493 C491 1.392 . S
C493 C492 1.401 . S
C493 H503 0.930 . S
C494 O472 1.262 . S
C494 O473 1.260 . S
C495 Tb431 2.833 . S
C495 O470 1.251 . S
C495 O475 1.256 . S
C495 C488 1.500 . S
H496 C479 0.930 . S
H497 C480 0.931 . S
H498 C481 0.930 . S
H499 C482 0.930 . S
H500 C489 0.930 . S
H501 C491 0.931 . S
H502 C492 0.930 . S
H503 C493 0.930 . S
Tb504 N535 2.660 . S
Tb504 N542 2.600 . S
Tb504 O548 2.546 . S
Tb504 O549 2.610 . S
Tb504 O551 2.320 . S
Tb504 O552 2.552 1_545 S
Tb504 O553 2.413 . S
Tb504 O555 2.362 . S
Tb504 O556 2.421 . S
Tb504 C568 2.833 . S
C505 C508 1.432 . S
C505 C509 1.414 . S
C505 N512 1.359 1_565 S
C506 C508 1.417 . S
C506 C510 1.432 . S
C506 C518 1.410 . S
C507 C509 1.444 . S
C507 C510 1.317 . S
C507 H530 0.929 . S
C508 C505 1.432 . S
C508 C506 1.417 . S
C508 N516 1.360 . S
C509 C505 1.414 . S
C509 C507 1.444 . S
C509 C514 1.385 . S
C510 C506 1.432 . S
C510 C507 1.317 . S
C510 H522 0.930 . S
C511 C513 1.391 . S
C511 C514 1.371 1_545 S
C511 H523 0.930 . S
N512 C505 1.359 1_545 S
N512 C513 1.327 . S
N512 Tb515 2.600 . S
C513 C511 1.391 . S
C513 N512 1.327 . S
C513 H520 0.930 . S
C514 C509 1.385 . S
C514 C511 1.371 1_565 S
C514 H533 0.930 . S
Tb515 N512 2.600 . S
Tb515 N516 2.660 1_545 S
Tb515 O549 2.362 . S
Tb515 O550 2.421 . S
Tb515 O554 2.546 . S
Tb515 O555 2.610 . S
Tb515 O557 2.320 . S
Tb515 O558 2.552 . S
Tb515 O559 2.413 . S
Tb515 C579 2.833 . S
N516 C508 1.360 . S
N516 Tb515 2.660 1_565 S
N516 C517 1.305 . S
C517 N516 1.305 . S
C517 C519 1.407 . S
C517 H524 0.930 . S
C518 C506 1.410 . S
C518 C519 1.345 . S
C518 H526 0.930 . S
C519 C517 1.407 . S
C519 C518 1.345 . S
C519 H521 0.930 . S
H520 C513 0.930 . S
H521 C519 0.930 . S
H522 C510 0.930 . S
H523 C511 0.930 . S
H524 C517 0.930 . S
H525 C539 0.930 . S
H526 C518 0.930 . S
H527 C545 0.930 . S
H528 C536 0.930 . S
H529 C543 0.931 . S
H530 C507 0.929 . S
H531 C537 0.930 . S
H532 C570 0.930 . S
H533 C514 0.930 . S
H534 C569 0.929 . S
N535 Tb504 2.660 . S
N535 C536 1.305 . S
N535 C540 1.360 . S
C536 H528 0.930 . S
C536 N535 1.305 . S
C536 C539 1.407 . S
C537 H531 0.930 . S
C537 C538 1.410 . S
C537 C539 1.345 . S
C538 C537 1.410 . S
C538 C540 1.417 . S
C538 C570 1.432 . S
C539 H525 0.930 . S
C539 C536 1.407 . S
C539 C537 1.345 . S
C540 N535 1.360 . S
C540 C538 1.417 . S
C540 C544 1.432 . S
H541 C546 0.930 . S
N542 Tb504 2.600 . S
N542 C544 1.359 . S
N542 C545 1.327 . S
C543 H529 0.931 . S
C543 C545 1.392 . S
C543 C546 1.370 . S
C544 C540 1.432 . S
C544 N542 1.359 . S
C544 C547 1.414 . S
C545 H527 0.930 . S
C545 N542 1.327 . S
C545 C543 1.392 . S
C546 H541 0.930 . S
C546 C543 1.370 . S
C546 C547 1.385 . S
C547 C544 1.414 . S
C547 C546 1.385 . S
C547 C569 1.444 . S
O548 Tb504 2.546 . S
O548 C568 1.251 . S
O549 Tb504 2.610 . S
O549 Tb515 2.362 . S
O549 C560 1.283 1_545 S
O550 Tb515 2.421 . S
O550 C567 1.262 . S
O551 Tb504 2.320 . S
O551 C567 1.260 . S
O552 Tb504 2.552 1_565 S
O552 C560 1.243 . S
O553 Tb504 2.413 . S
O553 C568 1.256 . S
O554 Tb515 2.546 . S
O554 C579 1.251 . S
O555 Tb504 2.362 . S
O555 Tb515 2.610 . S
O555 C571 1.283 . S
O556 Tb504 2.421 . S
O556 C578 1.262 . S
O557 Tb515 2.320 . S
O557 C578 1.260 . S
O558 Tb515 2.552 . S
O558 C571 1.243 . S
O559 Tb515 2.413 . S
O559 C579 1.256 . S
C560 O549 1.283 1_565 S
C560 O552 1.243 . S
C561 C563 1.382 1_545 S
C561 C565 1.393 . S
C561 C568 1.500 . S
C562 C563 1.400 . S
C562 C564 1.384 . S
C563 C561 1.382 1_565 S
C563 C562 1.400 . S
C563 H580 0.930 . S
C564 C562 1.384 . S
C564 C566 1.392 . S
C564 H581 0.931 . S
C565 C561 1.393 . S
C565 C566 1.401 1_545 S
C565 H582 0.930 . S
C566 C564 1.392 . S
C566 C565 1.401 1_565 S
C566 H583 0.930 . S
C567 O550 1.262 . S
C567 O551 1.260 . S
C568 Tb504 2.833 . S
C568 O548 1.251 . S
C568 O553 1.256 . S
C568 C561 1.500 . S
C569 H534 0.929 . S
C569 C547 1.444 . S
C569 C570 1.317 . S
C570 H532 0.930 . S
C570 C538 1.432 . S
C570 C569 1.317 . S
C571 O555 1.283 . S
C571 O558 1.243 . S
C572 C573 1.382 . S
C572 C576 1.393 . S
C572 C579 1.500 . S
C573 C572 1.382 . S
C573 C574 1.400 . S
C573 H584 0.930 . S
C574 C573 1.400 . S
C574 C575 1.384 . S
C575 C574 1.384 . S
C575 C577 1.392 . S
C575 H585 0.931 . S
C576 C572 1.393 . S
C576 C577 1.401 . S
C576 H586 0.930 . S
C577 C575 1.392 . S
C577 C576 1.401 . S
C577 H587 0.930 . S
C578 O556 1.262 . S
C578 O557 1.260 . S
C579 Tb515 2.833 . S
C579 O554 1.251 . S
C579 O559 1.256 . S
C579 C572 1.500 . S
H580 C563 0.930 . S
H581 C564 0.931 . S
H582 C565 0.930 . S
H583 C566 0.930 . S
H584 C573 0.930 . S
H585 C575 0.931 . S
H586 C576 0.930 . S
H587 C577 0.930 . S
Tb588 N619 2.660 . S
Tb588 N626 2.600 . S
Tb588 O632 2.546 . S
Tb588 O633 2.610 . S
Tb588 O635 2.320 . S
Tb588 O636 2.552 . S
Tb588 O637 2.413 . S
Tb588 O639 2.362 . S
Tb588 O640 2.421 . S
Tb588 C652 2.833 . S
C589 C592 1.432 . S
C589 C593 1.414 . S
C589 N596 1.359 . S
C590 C592 1.417 . S
C590 C594 1.432 . S
C590 C602 1.410 . S
C591 C593 1.444 . S
C591 C594 1.317 . S
C591 H614 0.929 . S
C592 C589 1.432 . S
C592 C590 1.417 . S
C592 N600 1.360 . S
C593 C589 1.414 . S
C593 C591 1.444 . S
C593 C598 1.385 . S
C594 C590 1.432 . S
C594 C591 1.317 . S
C594 H606 0.930 . S
C595 C597 1.392 . S
C595 C598 1.370 . S
C595 H607 0.931 . S
N596 C589 1.359 . S
N596 C597 1.327 . S
N596 Tb599 2.600 . S
C597 C595 1.392 . S
C597 N596 1.327 . S
C597 H604 0.930 . S
C598 C593 1.385 . S
C598 C595 1.370 . S
C598 H617 0.930 . S
Tb599 N596 2.600 . S
Tb599 N600 2.660 . S
Tb599 O633 2.362 . S
Tb599 O634 2.421 . S
Tb599 O638 2.546 . S
Tb599 O639 2.610 . S
Tb599 O641 2.320 . S
Tb599 O642 2.552 . S
Tb599 O643 2.413 . S
Tb599 C663 2.833 . S
N600 C592 1.360 . S
N600 Tb599 2.660 . S
N600 C601 1.305 . S
C601 N600 1.305 . S
C601 C603 1.407 . S
C601 H608 0.930 . S
C602 C590 1.410 . S
C602 C603 1.345 . S
C602 H610 0.930 . S
C603 C601 1.407 . S
C603 C602 1.345 . S
C603 H605 0.930 . S
H604 C597 0.930 . S
H605 C603 0.930 . S
H606 C594 0.930 . S
H607 C595 0.931 . S
H608 C601 0.930 . S
H609 C623 0.930 . S
H610 C602 0.930 . S
H611 C629 0.930 . S
H612 C620 0.930 . S
H613 C627 0.931 . S
H614 C591 0.929 . S
H615 C621 0.930 . S
H616 C654 0.930 . S
H617 C598 0.930 . S
H618 C653 0.929 . S
N619 Tb588 2.660 . S
N619 C620 1.305 . S
N619 C624 1.360 . S
C620 H612 0.930 . S
C620 N619 1.305 . S
C620 C623 1.407 . S
C621 H615 0.930 . S
C621 C622 1.410 . S
C621 C623 1.345 . S
C622 C621 1.410 . S
C622 C624 1.417 . S
C622 C654 1.432 . S
C623 H609 0.930 . S
C623 C620 1.407 . S
C623 C621 1.345 . S
C624 N619 1.360 . S
C624 C622 1.417 . S
C624 C628 1.432 . S
H625 C630 0.930 . S
N626 Tb588 2.600 . S
N626 C628 1.359 . S
N626 C629 1.327 . S
C627 H613 0.931 . S
C627 C629 1.392 . S
C627 C630 1.370 . S
C628 C624 1.432 . S
C628 N626 1.359 . S
C628 C631 1.414 . S
C629 H611 0.930 . S
C629 N626 1.327 . S
C629 C627 1.392 . S
C630 H625 0.930 . S
C630 C627 1.370 . S
C630 C631 1.385 . S
C631 C628 1.414 . S
C631 C630 1.385 . S
C631 C653 1.444 . S
O632 Tb588 2.546 . S
O632 C652 1.251 . S
O633 Tb588 2.610 . S
O633 Tb599 2.362 . S
O633 C644 1.283 . S
O634 Tb599 2.421 . S
O634 C651 1.262 . S
O635 Tb588 2.320 . S
O635 C651 1.260 . S
O636 Tb588 2.552 . S
O636 C644 1.243 . S
O637 Tb588 2.413 . S
O637 C652 1.256 . S
O638 Tb599 2.546 . S
O638 C663 1.251 . S
O639 Tb588 2.362 . S
O639 Tb599 2.610 . S
O639 C655 1.283 . S
O640 Tb588 2.421 . S
O640 C662 1.262 . S
O641 Tb599 2.320 . S
O641 C662 1.260 . S
O642 Tb599 2.552 . S
O642 C655 1.243 . S
O643 Tb599 2.413 . S
O643 C663 1.256 . S
C644 O633 1.283 . S
C644 O636 1.243 . S
C645 C647 1.382 . S
C645 C649 1.393 . S
C645 C652 1.500 . S
C646 C647 1.400 . S
C646 C648 1.384 . S
C647 C645 1.382 . S
C647 C646 1.400 . S
C647 H664 0.930 . S
C648 C646 1.384 . S
C648 C650 1.392 . S
C648 H665 0.931 . S
C649 C645 1.393 . S
C649 C650 1.401 . S
C649 H666 0.930 . S
C650 C648 1.392 . S
C650 C649 1.401 . S
C650 H667 0.930 . S
C651 O634 1.262 . S
C651 O635 1.260 . S
C652 Tb588 2.833 . S
C652 O632 1.251 . S
C652 O637 1.256 . S
C652 C645 1.500 . S
C653 H618 0.929 . S
C653 C631 1.444 . S
C653 C654 1.317 . S
C654 H616 0.930 . S
C654 C622 1.432 . S
C654 C653 1.317 . S
C655 O639 1.283 . S
C655 O642 1.243 . S
C656 C657 1.382 . S
C656 C660 1.393 . S
C656 C663 1.500 . S
C657 C656 1.382 . S
C657 C658 1.400 . S
C657 H668 0.930 . S
C658 C657 1.400 . S
C658 C659 1.384 . S
C659 C658 1.384 . S
C659 C661 1.392 . S
C659 H669 0.931 . S
C660 C656 1.393 . S
C660 C661 1.401 . S
C660 H670 0.930 . S
C661 C659 1.392 . S
C661 C660 1.401 . S
C661 H671 0.930 . S
C662 O640 1.262 . S
C662 O641 1.260 . S
C663 Tb599 2.833 . S
C663 O638 1.251 . S
C663 O643 1.256 . S
C663 C656 1.500 . S
H664 C647 0.930 . S
H665 C648 0.931 . S
H666 C649 0.930 . S
H667 C650 0.930 . S
H668 C657 0.930 . S
H669 C659 0.931 . S
H670 C660 0.930 . S
H671 C661 0.930 . S
Tb672 N703 2.660 . S
Tb672 N710 2.600 . S
Tb672 O716 2.546 . S
Tb672 O717 2.610 . S
Tb672 O719 2.320 . S
Tb672 O720 2.552 . S
Tb672 O721 2.413 . S
Tb672 O723 2.362 . S
Tb672 O724 2.421 . S
Tb672 C736 2.833 . S
C673 C676 1.432 . S
C673 C677 1.414 . S
C673 N680 1.359 . S
C674 C676 1.417 . S
C674 C678 1.432 . S
C674 C686 1.410 . S
C675 C677 1.444 . S
C675 C678 1.317 . S
C675 H698 0.929 . S
C676 C673 1.432 . S
C676 C674 1.417 . S
C676 N684 1.360 . S
C677 C673 1.414 . S
C677 C675 1.444 . S
C677 C682 1.385 . S
C678 C674 1.432 . S
C678 C675 1.317 . S
C678 H690 0.930 . S
C679 C681 1.392 . S
C679 C682 1.370 . S
C679 H691 0.931 . S
N680 C673 1.359 . S
N680 C681 1.327 . S
N680 Tb683 2.598 1_565 S
C681 C679 1.392 . S
C681 N680 1.327 . S
C681 H688 0.930 . S
C682 C677 1.385 . S
C682 C679 1.370 . S
C682 H701 0.930 . S
Tb683 N680 2.598 1_545 S
Tb683 N684 2.659 1_545 S
Tb683 O717 2.369 . S
Tb683 O718 2.425 . S
Tb683 O722 2.539 1_545 S
Tb683 O723 2.614 . S
Tb683 O725 2.323 1_545 S
Tb683 O726 2.551 . S
Tb683 O727 2.406 1_545 S
Tb683 C747 2.825 1_545 S
N684 C676 1.360 . S
N684 Tb683 2.659 1_565 S
N684 C685 1.305 . S
C685 N684 1.305 . S
C685 C687 1.407 . S
C685 H692 0.930 . S
C686 C674 1.410 . S
C686 C687 1.345 . S
C686 H694 0.930 . S
C687 C685 1.407 . S
C687 C686 1.345 . S
C687 H689 0.930 1_455 S
H688 C681 0.930 . S
H689 C687 0.930 1_655 S
H690 C678 0.930 . S
H691 C679 0.931 . S
H692 C685 0.930 . S
H693 C707 0.930 . S
H694 C686 0.930 . S
H695 C713 0.930 . S
H696 C704 0.930 . S
H697 C711 0.931 1_655 S
H698 C675 0.929 . S
H699 C705 0.930 . S
H700 C738 0.930 . S
H701 C682 0.930 . S
H702 C737 0.929 . S
N703 Tb672 2.660 . S
N703 C704 1.305 . S
N703 C708 1.360 . S
C704 H696 0.930 . S
C704 N703 1.305 . S
C704 C707 1.407 . S
C705 H699 0.930 . S
C705 C706 1.410 . S
C705 C707 1.345 . S
C706 C705 1.410 . S
C706 C708 1.417 . S
C706 C738 1.432 . S
C707 H693 0.930 . S
C707 C704 1.407 . S
C707 C705 1.345 . S
C708 N703 1.360 . S
C708 C706 1.417 . S
C708 C712 1.432 . S
H709 C714 0.930 . S
N710 Tb672 2.600 . S
N710 C712 1.359 . S
N710 C713 1.327 . S
C711 H697 0.931 1_455 S
C711 C713 1.392 . S
C711 C714 1.370 . S
C712 C708 1.432 . S
C712 N710 1.359 . S
C712 C715 1.414 . S
C713 H695 0.930 . S
C713 N710 1.327 . S
C713 C711 1.392 . S
C714 H709 0.930 . S
C714 C711 1.370 . S
C714 C715 1.385 . S
C715 C712 1.414 . S
C715 C714 1.385 . S
C715 C737 1.444 . S
O716 Tb672 2.546 . S
O716 C736 1.251 . S
O717 Tb672 2.610 . S
O717 Tb683 2.369 . S
O717 C728 1.283 . S
O718 Tb683 2.425 . S
O718 C735 1.262 . S
O719 Tb672 2.320 . S
O719 C735 1.260 . S
O720 Tb672 2.552 . S
O720 C728 1.243 . S
O721 Tb672 2.413 . S
O721 C736 1.256 . S
O722 Tb683 2.539 1_565 S
O722 C747 1.251 . S
O723 Tb672 2.362 . S
O723 Tb683 2.614 . S
O723 C739 1.283 . S
O724 Tb672 2.421 . S
O724 C746 1.262 . S
O725 Tb683 2.323 1_565 S
O725 C746 1.253 1_565 S
O726 Tb683 2.551 . S
O726 C739 1.243 . S
O727 Tb683 2.406 1_565 S
O727 C747 1.256 . S
C728 O717 1.283 . S
C728 O720 1.243 . S
C729 C731 1.382 . S
C729 C733 1.393 . S
C729 C736 1.500 . S
C730 C731 1.400 . S
C730 C732 1.384 . S
C731 C729 1.382 . S
C731 C730 1.400 . S
C731 H748 0.930 . S
C732 C730 1.384 . S
C732 C734 1.392 . S
C732 H749 0.931 . S
C733 C729 1.393 . S
C733 C734 1.401 . S
C733 H750 0.930 . S
C734 C732 1.392 . S
C734 C733 1.401 . S
C734 H751 0.930 . S
C735 O718 1.262 . S
C735 O719 1.260 . S
C736 Tb672 2.833 . S
C736 O716 1.251 . S
C736 O721 1.256 . S
C736 C729 1.500 . S
C737 H702 0.929 . S
C737 C715 1.444 . S
C737 C738 1.317 . S
C738 H700 0.930 . S
C738 C706 1.432 . S
C738 C737 1.317 . S
C739 O723 1.283 . S
C739 O726 1.243 . S
C740 C741 1.382 . S
C740 C744 1.393 . S
C740 C747 1.500 . S
C741 C740 1.382 . S
C741 C742 1.400 . S
C741 H752 0.930 . S
C742 C741 1.400 . S
C742 C743 1.384 . S
C743 C742 1.384 . S
C743 C745 1.392 . S
C743 H753 0.931 . S
C744 C740 1.393 . S
C744 C745 1.401 . S
C744 H754 0.930 . S
C745 C743 1.392 . S
C745 C744 1.401 . S
C745 H755 0.930 . S
C746 O724 1.262 . S
C746 O725 1.253 1_545 S
C747 Tb683 2.825 1_565 S
C747 O722 1.251 . S
C747 O727 1.256 . S
C747 C740 1.500 . S
H748 C731 0.930 . S
H749 C732 0.931 . S
H750 C733 0.930 . S
H751 C734 0.930 . S
H752 C741 0.930 . S
H753 C743 0.931 . S
H754 C744 0.930 . S
H755 C745 0.930 . S
Tb756 N787 2.660 . S
Tb756 N794 2.600 . S
Tb756 O800 2.546 . S
Tb756 O801 2.610 . S
Tb756 O803 2.320 . S
Tb756 O804 2.552 . S
Tb756 O805 2.413 . S
Tb756 O807 2.362 . S
Tb756 O808 2.421 . S
Tb756 C820 2.833 . S
C757 C760 1.432 . S
C757 C761 1.414 . S
C757 N764 1.359 . S
C758 C760 1.417 . S
C758 C762 1.432 . S
C758 C770 1.410 . S
C759 C761 1.444 . S
C759 C762 1.317 . S
C759 H782 0.929 . S
C760 C757 1.432 . S
C760 C758 1.417 . S
C760 N768 1.360 . S
C761 C757 1.414 . S
C761 C759 1.444 . S
C761 C766 1.385 . S
C762 C758 1.432 . S
C762 C759 1.317 . S
C762 H774 0.930 . S
C763 C765 1.392 . S
C763 C766 1.370 . S
C763 H775 0.931 . S
N764 C757 1.359 . S
N764 C765 1.327 . S
N764 Tb767 2.600 . S
C765 C763 1.392 . S
C765 N764 1.327 . S
C765 H772 0.930 . S
C766 C761 1.385 . S
C766 C763 1.370 . S
C766 H785 0.930 . S
Tb767 N764 2.600 . S
Tb767 N768 2.660 . S
Tb767 O801 2.362 . S
Tb767 O802 2.421 . S
Tb767 O806 2.546 . S
Tb767 O807 2.610 . S
Tb767 O809 2.320 . S
Tb767 O810 2.552 . S
Tb767 O811 2.413 . S
Tb767 C831 2.833 . S
N768 C760 1.360 . S
N768 Tb767 2.660 . S
N768 C769 1.305 . S
C769 N768 1.305 . S
C769 C771 1.407 . S
C769 H776 0.930 . S
C770 C758 1.410 . S
C770 C771 1.345 . S
C770 H778 0.930 . S
C771 C769 1.407 . S
C771 C770 1.345 . S
C771 H773 0.930 . S
H772 C765 0.930 . S
H773 C771 0.930 . S
H774 C762 0.930 . S
H775 C763 0.931 . S
H776 C769 0.930 . S
H777 C791 0.930 . S
H778 C770 0.930 . S
H779 C797 0.930 . S
H780 C788 0.930 . S
H781 C795 0.931 . S
H782 C759 0.929 . S
H783 C789 0.930 . S
H784 C822 0.930 . S
H785 C766 0.930 . S
H786 C821 0.929 . S
N787 Tb756 2.660 . S
N787 C788 1.305 . S
N787 C792 1.360 . S
C788 H780 0.930 . S
C788 N787 1.305 . S
C788 C791 1.407 . S
C789 H783 0.930 . S
C789 C790 1.410 . S
C789 C791 1.345 . S
C790 C789 1.410 . S
C790 C792 1.417 . S
C790 C822 1.432 . S
C791 H777 0.930 . S
C791 C788 1.407 . S
C791 C789 1.345 . S
C792 N787 1.360 . S
C792 C790 1.417 . S
C792 C796 1.432 . S
H793 C798 0.930 . S
N794 Tb756 2.600 . S
N794 C796 1.359 . S
N794 C797 1.327 . S
C795 H781 0.931 . S
C795 C797 1.392 . S
C795 C798 1.370 . S
C796 C792 1.432 . S
C796 N794 1.359 . S
C796 C799 1.414 . S
C797 H779 0.930 . S
C797 N794 1.327 . S
C797 C795 1.392 . S
C798 H793 0.930 . S
C798 C795 1.370 . S
C798 C799 1.385 . S
C799 C796 1.414 . S
C799 C798 1.385 . S
C799 C821 1.444 . S
O800 Tb756 2.546 . S
O800 C820 1.251 . S
O801 Tb756 2.610 . S
O801 Tb767 2.362 . S
O801 C812 1.283 . S
O802 Tb767 2.421 . S
O802 C819 1.262 . S
O803 Tb756 2.320 . S
O803 C819 1.260 . S
O804 Tb756 2.552 . S
O804 C812 1.243 . S
O805 Tb756 2.413 . S
O805 C820 1.256 . S
O806 Tb767 2.546 . S
O806 C831 1.251 . S
O807 Tb756 2.362 . S
O807 Tb767 2.610 . S
O807 C823 1.283 . S
O808 Tb756 2.421 . S
O808 C830 1.262 . S
O809 Tb767 2.320 . S
O809 C830 1.260 . S
O810 Tb767 2.552 . S
O810 C823 1.243 . S
O811 Tb767 2.413 . S
O811 C831 1.256 . S
C812 O801 1.283 . S
C812 O804 1.243 . S
C813 C815 1.382 . S
C813 C817 1.393 . S
C813 C820 1.500 . S
C814 C815 1.400 . S
C814 C816 1.384 . S
C815 C813 1.382 . S
C815 C814 1.400 . S
C815 H832 0.930 . S
C816 C814 1.384 . S
C816 C818 1.392 . S
C816 H833 0.931 . S
C817 C813 1.393 . S
C817 C818 1.401 . S
C817 H834 0.930 . S
C818 C816 1.392 . S
C818 C817 1.401 . S
C818 H835 0.930 . S
C819 O802 1.262 . S
C819 O803 1.260 . S
C820 Tb756 2.833 . S
C820 O800 1.251 . S
C820 O805 1.256 . S
C820 C813 1.500 . S
C821 H786 0.929 . S
C821 C799 1.444 . S
C821 C822 1.317 . S
C822 H784 0.930 . S
C822 C790 1.432 . S
C822 C821 1.317 . S
C823 O807 1.283 . S
C823 O810 1.243 . S
C824 C825 1.382 . S
C824 C828 1.393 . S
C824 C831 1.500 . S
C825 C824 1.382 . S
C825 C826 1.400 . S
C825 H836 0.930 . S
C826 C825 1.400 . S
C826 C827 1.384 . S
C827 C826 1.384 . S
C827 C829 1.392 . S
C827 H837 0.931 . S
C828 C824 1.393 . S
C828 C829 1.401 . S
C828 H838 0.930 . S
C829 C827 1.392 . S
C829 C828 1.401 . S
C829 H839 0.930 . S
C830 O808 1.262 . S
C830 O809 1.260 . S
C831 Tb767 2.833 . S
C831 O806 1.251 . S
C831 O811 1.256 . S
C831 C824 1.500 . S
H832 C815 0.930 . S
H833 C816 0.931 . S
H834 C817 0.930 . S
H835 C818 0.930 . S
H836 C825 0.930 . S
H837 C827 0.931 . S
H838 C828 0.930 . S
H839 C829 0.930 . S
Tb840 N871 2.660 . S
Tb840 N878 2.600 . S
Tb840 O884 2.546 1_545 S
Tb840 O885 2.610 . S
Tb840 O887 2.320 . S
Tb840 O888 2.552 . S
Tb840 O889 2.413 . S
Tb840 O891 2.362 . S
Tb840 O892 2.421 1_545 S
Tb840 C904 2.833 . S
C841 C844 1.432 . S
C841 C845 1.414 . S
C841 N848 1.359 . S
C842 C844 1.417 . S
C842 C846 1.432 . S
C842 C854 1.410 1_545 S
C843 C845 1.444 . S
C843 C846 1.317 . S
C843 H866 0.929 . S
C844 C841 1.432 . S
C844 C842 1.417 . S
C844 N852 1.360 . S
C845 C841 1.414 . S
C845 C843 1.444 . S
C845 C850 1.385 . S
C846 C842 1.432 . S
C846 C843 1.317 . S
C846 H858 0.930 . S
C847 C849 1.392 . S
C847 C850 1.370 . S
C847 H859 0.931 . S
N848 C841 1.359 . S
N848 C849 1.327 . S
N848 Tb851 2.600 . S
C849 C847 1.392 . S
C849 N848 1.327 . S
C849 H856 0.930 . S
C850 C845 1.385 . S
C850 C847 1.370 . S
C850 H869 0.930 . S
Tb851 N848 2.600 . S
Tb851 N852 2.660 . S
Tb851 O885 2.362 1_556 S
Tb851 O886 2.421 1_556 S
Tb851 O890 2.546 . S
Tb851 O891 2.610 1_556 S
Tb851 O893 2.320 . S
Tb851 O894 2.552 . S
Tb851 O895 2.413 . S
Tb851 C915 2.833 . S
N852 C844 1.360 . S
N852 Tb851 2.660 . S
N852 C853 1.305 1_545 S
C853 N852 1.305 1_565 S
C853 C855 1.407 . S
C853 H860 0.930 . S
C854 C842 1.410 1_565 S
C854 C855 1.345 . S
C854 H862 0.930 . S
C855 C853 1.407 . S
C855 C854 1.345 . S
C855 H857 0.930 . S
H856 C849 0.930 . S
H857 C855 0.930 . S
H858 C846 0.930 . S
H859 C847 0.931 . S
H860 C853 0.930 . S
H861 C875 0.930 . S
H862 C854 0.930 . S
H863 C881 0.930 . S
H864 C872 0.930 . S
H865 C879 0.931 . S
H866 C843 0.929 . S
H867 C873 0.930 . S
H868 C906 0.930 . S
H869 C850 0.930 . S
H870 C905 0.929 . S
N871 Tb840 2.660 . S
N871 C872 1.305 . S
N871 C876 1.360 . S
C872 H864 0.930 . S
C872 N871 1.305 . S
C872 C875 1.407 . S
C873 H867 0.930 . S
C873 C874 1.410 . S
C873 C875 1.345 . S
C874 C873 1.410 . S
C874 C876 1.417 . S
C874 C906 1.432 . S
C875 H861 0.930 . S
C875 C872 1.407 . S
C875 C873 1.345 . S
C876 N871 1.360 . S
C876 C874 1.417 . S
C876 C880 1.432 . S
H877 C882 0.930 . S
N878 Tb840 2.600 . S
N878 C880 1.359 . S
N878 C881 1.327 1_545 S
C879 H865 0.931 . S
C879 C881 1.392 . S
C879 C882 1.370 . S
C880 C876 1.432 . S
C880 N878 1.359 . S
C880 C883 1.414 . S
C881 H863 0.930 . S
C881 N878 1.327 1_565 S
C881 C879 1.392 . S
C882 H877 0.930 . S
C882 C879 1.370 . S
C882 C883 1.385 1_565 S
C883 C880 1.414 . S
C883 C882 1.385 1_545 S
C883 C905 1.444 . S
O884 Tb840 2.546 1_565 S
O884 C904 1.251 1_565 S
O885 Tb840 2.610 . S
O885 Tb851 2.362 1_554 S
O885 C896 1.283 . S
O886 Tb851 2.421 1_554 S
O886 C903 1.262 . S
O887 Tb840 2.320 . S
O887 C903 1.260 . S
O888 Tb840 2.552 . S
O888 C896 1.243 . S
O889 Tb840 2.413 . S
O889 C904 1.256 . S
O890 Tb851 2.546 . S
O890 C915 1.251 . S
O891 Tb840 2.362 . S
O891 Tb851 2.610 1_554 S
O891 C907 1.283 . S
O892 Tb840 2.421 1_565 S
O892 C914 1.262 1_554 S
O893 Tb851 2.320 . S
O893 C914 1.260 1_545 S
O894 Tb851 2.552 . S
O894 C907 1.243 1_556 S
O895 Tb851 2.413 . S
O895 C915 1.256 . S
C896 O885 1.283 . S
C896 O888 1.243 . S
C897 C899 1.382 . S
C897 C901 1.393 1_545 S
C897 C904 1.500 . S
C898 C899 1.400 . S
C898 C900 1.384 1_545 S
C899 C897 1.382 . S
C899 C898 1.400 . S
C899 H916 0.930 . S
C900 C898 1.384 1_565 S
C900 C902 1.392 . S
C900 H917 0.931 . S
C901 C897 1.393 1_565 S
C901 C902 1.401 . S
C901 H918 0.930 . S
C902 C900 1.392 . S
C902 C901 1.401 . S
C902 H919 0.930 . S
C903 O886 1.262 . S
C903 O887 1.260 . S
C904 Tb840 2.833 . S
C904 O884 1.251 1_545 S
C904 O889 1.256 . S
C904 C897 1.500 . S
C905 H870 0.929 . S
C905 C883 1.444 . S
C905 C906 1.317 . S
C906 H868 0.930 . S
C906 C874 1.432 . S
C906 C905 1.317 . S
C907 O891 1.283 . S
C907 O894 1.243 1_554 S
C908 C909 1.382 . S
C908 C912 1.393 . S
C908 C915 1.500 . S
C909 C908 1.382 . S
C909 C910 1.400 . S
C909 H920 0.930 . S
C910 C909 1.400 . S
C910 C911 1.384 . S
C911 C910 1.384 . S
C911 C913 1.392 . S
C911 H921 0.931 . S
C912 C908 1.393 . S
C912 C913 1.401 . S
C912 H922 0.930 . S
C913 C911 1.392 . S
C913 C912 1.401 . S
C913 H923 0.930 . S
C914 O892 1.262 1_556 S
C914 O893 1.260 1_565 S
C915 Tb851 2.833 . S
C915 O890 1.251 . S
C915 O895 1.256 . S
C915 C908 1.500 . S
H916 C899 0.930 . S
H917 C900 0.931 . S
H918 C901 0.930 . S
H919 C902 0.930 . S
H920 C909 0.930 . S
H921 C911 0.931 . S
H922 C912 0.930 . S
H923 C913 0.930 . S
Tb924 N955 2.660 . S
Tb924 N962 2.600 . S
Tb924 O968 2.546 . S
Tb924 O969 2.610 . S
Tb924 O971 2.320 . S
Tb924 O972 2.552 . S
Tb924 O973 2.413 . S
Tb924 O975 2.362 . S
Tb924 O976 2.421 . S
Tb924 C988 2.833 . S
C925 C928 1.432 . S
C925 C929 1.414 . S
C925 N932 1.359 . S
C926 C928 1.417 . S
C926 C930 1.432 . S
C926 C938 1.410 . S
C927 C929 1.444 . S
C927 C930 1.317 . S
C927 H950 0.929 . S
C928 C925 1.432 . S
C928 C926 1.417 . S
C928 N936 1.360 . S
C929 C925 1.414 . S
C929 C927 1.444 . S
C929 C934 1.385 . S
C930 C926 1.432 . S
C930 C927 1.317 . S
C930 H942 0.930 . S
C931 C933 1.392 . S
C931 C934 1.370 . S
C931 H943 0.931 . S
N932 C925 1.359 . S
N932 C933 1.327 . S
N932 Tb935 2.600 . S
C933 C931 1.392 . S
C933 N932 1.327 . S
C933 H940 0.930 . S
C934 C929 1.385 . S
C934 C931 1.370 . S
C934 H953 0.930 . S
Tb935 N932 2.600 . S
Tb935 N936 2.660 . S
Tb935 O969 2.362 . S
Tb935 O970 2.421 . S
Tb935 O974 2.546 . S
Tb935 O975 2.610 . S
Tb935 O977 2.320 . S
Tb935 O978 2.552 . S
Tb935 O979 2.413 . S
Tb935 C999 2.833 . S
N936 C928 1.360 . S
N936 Tb935 2.660 . S
N936 C937 1.305 . S
C937 N936 1.305 . S
C937 C939 1.407 . S
C937 H944 0.930 . S
C938 C926 1.410 . S
C938 C939 1.345 . S
C938 H946 0.930 . S
C939 C937 1.407 . S
C939 C938 1.345 . S
C939 H941 0.930 . S
H940 C933 0.930 . S
H941 C939 0.930 . S
H942 C930 0.930 . S
H943 C931 0.931 . S
H944 C937 0.930 . S
H945 C959 0.930 . S
H946 C938 0.930 . S
H947 C965 0.930 . S
H948 C956 0.930 . S
H949 C963 0.931 . S
H950 C927 0.929 . S
H951 C957 0.930 . S
H952 C990 0.930 . S
H953 C934 0.930 . S
H954 C989 0.929 . S
N955 Tb924 2.660 . S
N955 C956 1.305 . S
N955 C960 1.360 . S
C956 H948 0.930 . S
C956 N955 1.305 . S
C956 C959 1.407 . S
C957 H951 0.930 . S
C957 C958 1.410 . S
C957 C959 1.345 . S
C958 C957 1.410 . S
C958 C960 1.417 . S
C958 C990 1.432 . S
C959 H945 0.930 . S
C959 C956 1.407 . S
C959 C957 1.345 . S
C960 N955 1.360 . S
C960 C958 1.417 . S
C960 C964 1.432 . S
H961 C966 0.930 . S
N962 Tb924 2.600 . S
N962 C964 1.359 . S
N962 C965 1.327 . S
C963 H949 0.931 . S
C963 C965 1.392 . S
C963 C966 1.370 . S
C964 C960 1.432 . S
C964 N962 1.359 . S
C964 C967 1.414 . S
C965 H947 0.930 . S
C965 N962 1.327 . S
C965 C963 1.392 . S
C966 H961 0.930 . S
C966 C963 1.370 . S
C966 C967 1.385 . S
C967 C964 1.414 . S
C967 C966 1.385 . S
C967 C989 1.444 . S
O968 Tb924 2.546 . S
O968 C988 1.251 . S
O969 Tb924 2.610 . S
O969 Tb935 2.362 . S
O969 C980 1.283 . S
O970 Tb935 2.421 . S
O970 C987 1.262 . S
O971 Tb924 2.320 . S
O971 C987 1.260 . S
O972 Tb924 2.552 . S
O972 C980 1.243 . S
O973 Tb924 2.413 . S
O973 C988 1.256 . S
O974 Tb935 2.546 . S
O974 C999 1.251 . S
O975 Tb924 2.362 . S
O975 Tb935 2.610 . S
O975 C991 1.283 . S
O976 Tb924 2.421 . S
O976 C998 1.262 . S
O977 Tb935 2.320 . S
O977 C998 1.260 . S
O978 Tb935 2.552 . S
O978 C991 1.243 . S
O979 Tb935 2.413 . S
O979 C999 1.256 . S
C980 O969 1.283 . S
C980 O972 1.243 . S
C981 C983 1.382 . S
C981 C985 1.393 . S
C981 C988 1.500 . S
C982 C983 1.400 . S
C982 C984 1.384 . S
C983 C981 1.382 . S
C983 C982 1.400 . S
C983 H1000 0.930 . S
C984 C982 1.384 . S
C984 C986 1.392 . S
C984 H1001 0.931 . S
C985 C981 1.393 . S
C985 C986 1.401 . S
C985 H1002 0.930 . S
C986 C984 1.392 . S
C986 C985 1.401 . S
C986 H1003 0.930 . S
C987 O970 1.262 . S
C987 O971 1.260 . S
C988 Tb924 2.833 . S
C988 O968 1.251 . S
C988 O973 1.256 . S
C988 C981 1.500 . S
C989 H954 0.929 . S
C989 C967 1.444 . S
C989 C990 1.317 . S
C990 H952 0.930 . S
C990 C958 1.432 . S
C990 C989 1.317 . S
C991 O975 1.283 . S
C991 O978 1.243 . S
C992 C993 1.382 . S
C992 C996 1.393 . S
C992 C999 1.500 . S
C993 C992 1.382 . S
C993 C994 1.400 . S
C993 H1004 0.930 . S
C994 C993 1.400 . S
C994 C995 1.384 . S
C995 C994 1.384 . S
C995 C997 1.392 . S
C995 H1005 0.931 . S
C996 C992 1.393 . S
C996 C997 1.401 . S
C996 H1006 0.930 . S
C997 C995 1.392 . S
C997 C996 1.401 . S
C997 H1007 0.930 . S
C998 O976 1.262 . S
C998 O977 1.260 . S
C999 Tb935 2.833 . S
C999 O974 1.251 . S
C999 O979 1.256 . S
C999 C992 1.500 . S
H1000 C983 0.930 . S
H1001 C984 0.931 . S
H1002 C985 0.930 . S
H1003 C986 0.930 . S
H1004 C993 0.930 . S
H1005 C995 0.931 . S
H1006 C996 0.930 . S
H1007 C997 0.930 . S
Tb1008 N1039 2.660 . S
Tb1008 N1046 2.600 . S
Tb1008 O1052 2.546 . S
Tb1008 O1053 2.610 1_554 S
Tb1008 O1055 2.320 . S
Tb1008 O1056 2.552 1_554 S
Tb1008 O1057 2.413 . S
Tb1008 O1059 2.362 . S
Tb1008 O1060 2.421 . S
Tb1008 C1072 2.833 . S
C1009 C1012 1.432 . S
C1009 C1013 1.414 . S
C1009 N1016 1.359 . S
C1010 C1012 1.417 . S
C1010 C1014 1.432 . S
C1010 C1022 1.410 . S
C1011 C1013 1.444 . S
C1011 C1014 1.317 . S
C1011 H1034 0.929 . S
C1012 C1009 1.432 . S
C1012 C1010 1.417 . S
C1012 N1020 1.360 . S
C1013 C1009 1.414 . S
C1013 C1011 1.444 . S
C1013 C1018 1.385 . S
C1014 C1010 1.432 . S
C1014 C1011 1.317 . S
C1014 H1026 0.930 . S
C1015 C1017 1.392 . S
C1015 C1018 1.370 . S
C1015 H1027 0.931 . S
N1016 C1009 1.359 . S
N1016 C1017 1.327 . S
N1016 Tb1019 2.600 1_556 S
C1017 C1015 1.392 . S
C1017 N1016 1.327 . S
C1017 H1024 0.930 . S
C1018 C1013 1.385 . S
C1018 C1015 1.370 . S
C1018 H1037 0.930 . S
Tb1019 N1016 2.600 1_554 S
Tb1019 N1020 2.660 1_554 S
Tb1019 O1053 2.362 1_554 S
Tb1019 O1054 2.421 . S
Tb1019 O1058 2.546 . S
Tb1019 O1059 2.610 . S
Tb1019 O1061 2.320 . S
Tb1019 O1062 2.552 . S
Tb1019 O1063 2.413 . S
Tb1019 C1083 2.833 . S
N1020 C1012 1.360 . S
N1020 Tb1019 2.660 1_556 S
N1020 C1021 1.305 . S
C1021 N1020 1.305 . S
C1021 C1023 1.407 . S
C1021 H1028 0.930 . S
C1022 C1010 1.410 . S
C1022 C1023 1.345 . S
C1022 H1030 0.930 . S
C1023 C1021 1.407 . S
C1023 C1022 1.345 . S
C1023 H1025 0.930 . S
H1024 C1017 0.930 . S
H1025 C1023 0.930 . S
H1026 C1014 0.930 . S
H1027 C1015 0.931 . S
H1028 C1021 0.930 . S
H1029 C1043 0.930 . S
H1030 C1022 0.930 . S
H1031 C1049 0.930 . S
H1032 C1040 0.930 . S
H1033 C1047 0.931 . S
H1034 C1011 0.929 . S
H1035 C1041 0.930 . S
H1036 C1074 0.930 . S
H1037 C1018 0.930 . S
H1038 C1073 0.929 . S
N1039 Tb1008 2.660 . S
N1039 C1040 1.305 . S
N1039 C1044 1.360 . S
C1040 H1032 0.930 . S
C1040 N1039 1.305 . S
C1040 C1043 1.407 . S
C1041 H1035 0.930 . S
C1041 C1042 1.410 . S
C1041 C1043 1.345 . S
C1042 C1041 1.410 . S
C1042 C1044 1.417 . S
C1042 C1074 1.432 . S
C1043 H1029 0.930 . S
C1043 C1040 1.407 . S
C1043 C1041 1.345 . S
C1044 N1039 1.360 . S
C1044 C1042 1.417 . S
C1044 C1048 1.432 . S
H1045 C1050 0.930 . S
N1046 Tb1008 2.600 . S
N1046 C1048 1.359 . S
N1046 C1049 1.327 . S
C1047 H1033 0.931 . S
C1047 C1049 1.392 . S
C1047 C1050 1.370 . S
C1048 C1044 1.432 . S
C1048 N1046 1.359 . S
C1048 C1051 1.414 . S
C1049 H1031 0.930 . S
C1049 N1046 1.327 . S
C1049 C1047 1.392 . S
C1050 H1045 0.930 . S
C1050 C1047 1.370 . S
C1050 C1051 1.385 . S
C1051 C1048 1.414 . S
C1051 C1050 1.385 . S
C1051 C1073 1.444 . S
O1052 Tb1008 2.546 . S
O1052 C1072 1.251 . S
O1053 Tb1008 2.610 1_556 S
O1053 Tb1019 2.362 1_556 S
O1053 C1064 1.283 . S
O1054 Tb1019 2.421 . S
O1054 C1071 1.262 . S
O1055 Tb1008 2.320 . S
O1055 C1071 1.260 . S
O1056 Tb1008 2.552 1_556 S
O1056 C1064 1.243 . S
O1057 Tb1008 2.413 . S
O1057 C1072 1.256 . S
O1058 Tb1019 2.546 . S
O1058 C1083 1.251 . S
O1059 Tb1008 2.362 . S
O1059 Tb1019 2.610 . S
O1059 C1075 1.283 . S
O1060 Tb1008 2.421 . S
O1060 C1082 1.262 . S
O1061 Tb1019 2.320 . S
O1061 C1082 1.260 . S
O1062 Tb1019 2.552 . S
O1062 C1075 1.243 . S
O1063 Tb1019 2.413 . S
O1063 C1083 1.256 . S
C1064 O1053 1.283 . S
C1064 O1056 1.243 . S
C1065 C1067 1.382 . S
C1065 C1069 1.393 . S
C1065 C1072 1.500 . S
C1066 C1067 1.400 1_556 S
C1066 C1068 1.384 1_556 S
C1067 C1065 1.382 . S
C1067 C1066 1.400 1_554 S
C1067 H1084 0.930 1_554 S
C1068 C1066 1.384 1_554 S
C1068 C1070 1.392 . S
C1068 H1085 0.931 . S
C1069 C1065 1.393 . S
C1069 C1070 1.401 . S
C1069 H1086 0.930 . S
C1070 C1068 1.392 . S
C1070 C1069 1.401 . S
C1070 H1087 0.930 . S
C1071 O1054 1.262 . S
C1071 O1055 1.260 . S
C1072 Tb1008 2.833 . S
C1072 O1052 1.251 . S
C1072 O1057 1.256 . S
C1072 C1065 1.500 . S
C1073 H1038 0.929 . S
C1073 C1051 1.444 . S
C1073 C1074 1.317 . S
C1074 H1036 0.930 . S
C1074 C1042 1.432 . S
C1074 C1073 1.317 . S
C1075 O1059 1.283 . S
C1075 O1062 1.243 . S
C1076 C1077 1.382 . S
C1076 C1080 1.393 . S
C1076 C1083 1.500 . S
C1077 C1076 1.382 . S
C1077 C1078 1.400 . S
C1077 H1088 0.930 . S
C1078 C1077 1.400 . S
C1078 C1079 1.384 . S
C1079 C1078 1.384 . S
C1079 C1081 1.392 . S
C1079 H1089 0.931 . S
C1080 C1076 1.393 . S
C1080 C1081 1.401 . S
C1080 H1090 0.930 . S
C1081 C1079 1.392 . S
C1081 C1080 1.401 . S
C1081 H1091 0.930 . S
C1082 O1060 1.262 . S
C1082 O1061 1.260 . S
C1083 Tb1019 2.833 . S
C1083 O1058 1.251 . S
C1083 O1063 1.256 . S
C1083 C1076 1.500 . S
H1084 C1067 0.930 1_556 S
H1085 C1068 0.931 . S
H1086 C1069 0.930 . S
H1087 C1070 0.930 . S
H1088 C1077 0.930 . S
H1089 C1079 0.931 . S
H1090 C1080 0.930 . S
H1091 C1081 0.930 . S
Tb1092 N1123 2.660 . S
Tb1092 N1130 2.600 . S
Tb1092 O1136 2.546 . S
Tb1092 O1137 2.610 . S
Tb1092 O1139 2.320 . S
Tb1092 O1140 2.552 . S
Tb1092 O1141 2.413 . S
Tb1092 O1143 2.362 . S
Tb1092 O1144 2.421 . S
Tb1092 C1156 2.833 . S
C1093 C1096 1.432 . S
C1093 C1097 1.414 . S
C1093 N1100 1.359 . S
C1094 C1096 1.417 . S
C1094 C1098 1.432 . S
C1094 C1106 1.410 . S
C1095 C1097 1.444 . S
C1095 C1098 1.317 . S
C1095 H1118 0.929 . S
C1096 C1093 1.432 . S
C1096 C1094 1.417 . S
C1096 N1104 1.360 . S
C1097 C1093 1.414 . S
C1097 C1095 1.444 . S
C1097 C1102 1.385 . S
C1098 C1094 1.432 . S
C1098 C1095 1.317 . S
C1098 H1110 0.930 . S
C1099 C1101 1.392 . S
C1099 C1102 1.370 . S
C1099 H1111 0.931 . S
N1100 C1093 1.359 . S
N1100 C1101 1.327 . S
N1100 Tb1103 2.600 . S
C1101 C1099 1.392 . S
C1101 N1100 1.327 . S
C1101 H1108 0.930 . S
C1102 C1097 1.385 . S
C1102 C1099 1.370 . S
C1102 H1121 0.930 . S
Tb1103 N1100 2.600 . S
Tb1103 N1104 2.660 . S
Tb1103 O1137 2.362 . S
Tb1103 O1138 2.421 . S
Tb1103 O1142 2.546 . S
Tb1103 O1143 2.610 . S
Tb1103 O1145 2.320 . S
Tb1103 O1146 2.552 . S
Tb1103 O1147 2.413 . S
Tb1103 C1167 2.833 . S
N1104 C1096 1.360 . S
N1104 Tb1103 2.660 . S
N1104 C1105 1.305 . S
C1105 N1104 1.305 . S
C1105 C1107 1.407 . S
C1105 H1112 0.930 . S
C1106 C1094 1.410 . S
C1106 C1107 1.345 . S
C1106 H1114 0.930 . S
C1107 C1105 1.407 . S
C1107 C1106 1.345 . S
C1107 H1109 0.930 . S
H1108 C1101 0.930 . S
H1109 C1107 0.930 . S
H1110 C1098 0.930 . S
H1111 C1099 0.931 . S
H1112 C1105 0.930 . S
H1113 C1127 0.930 . S
H1114 C1106 0.930 . S
H1115 C1133 0.930 . S
H1116 C1124 0.930 . S
H1117 C1131 0.931 . S
H1118 C1095 0.929 . S
H1119 C1125 0.930 . S
H1120 C1158 0.930 . S
H1121 C1102 0.930 . S
H1122 C1157 0.929 . S
N1123 Tb1092 2.660 . S
N1123 C1124 1.305 . S
N1123 C1128 1.360 . S
C1124 H1116 0.930 . S
C1124 N1123 1.305 . S
C1124 C1127 1.407 . S
C1125 H1119 0.930 . S
C1125 C1126 1.410 . S
C1125 C1127 1.345 . S
C1126 C1125 1.410 . S
C1126 C1128 1.417 . S
C1126 C1158 1.432 . S
C1127 H1113 0.930 . S
C1127 C1124 1.407 . S
C1127 C1125 1.345 . S
C1128 N1123 1.360 . S
C1128 C1126 1.417 . S
C1128 C1132 1.432 . S
H1129 C1134 0.930 . S
N1130 Tb1092 2.600 . S
N1130 C1132 1.359 . S
N1130 C1133 1.327 . S
C1131 H1117 0.931 . S
C1131 C1133 1.392 . S
C1131 C1134 1.370 . S
C1132 C1128 1.432 . S
C1132 N1130 1.359 . S
C1132 C1135 1.414 . S
C1133 H1115 0.930 . S
C1133 N1130 1.327 . S
C1133 C1131 1.392 . S
C1134 H1129 0.930 . S
C1134 C1131 1.370 . S
C1134 C1135 1.385 . S
C1135 C1132 1.414 . S
C1135 C1134 1.385 . S
C1135 C1157 1.444 . S
O1136 Tb1092 2.546 . S
O1136 C1156 1.251 . S
O1137 Tb1092 2.610 . S
O1137 Tb1103 2.362 . S
O1137 C1148 1.283 . S
O1138 Tb1103 2.421 . S
O1138 C1155 1.262 . S
O1139 Tb1092 2.320 . S
O1139 C1155 1.260 . S
O1140 Tb1092 2.552 . S
O1140 C1148 1.243 . S
O1141 Tb1092 2.413 . S
O1141 C1156 1.256 . S
O1142 Tb1103 2.546 . S
O1142 C1167 1.251 . S
O1143 Tb1092 2.362 . S
O1143 Tb1103 2.610 . S
O1143 C1159 1.283 . S
O1144 Tb1092 2.421 . S
O1144 C1166 1.262 . S
O1145 Tb1103 2.320 . S
O1145 C1166 1.260 . S
O1146 Tb1103 2.552 . S
O1146 C1159 1.243 . S
O1147 Tb1103 2.413 . S
O1147 C1167 1.256 . S
C1148 O1137 1.283 . S
C1148 O1140 1.243 . S
C1149 C1151 1.382 . S
C1149 C1153 1.393 . S
C1149 C1156 1.500 . S
C1150 C1151 1.400 . S
C1150 C1152 1.384 . S
C1151 C1149 1.382 . S
C1151 C1150 1.400 . S
C1151 H1168 0.930 . S
C1152 C1150 1.384 . S
C1152 C1154 1.392 . S
C1152 H1169 0.931 . S
C1153 C1149 1.393 . S
C1153 C1154 1.401 . S
C1153 H1170 0.930 . S
C1154 C1152 1.392 . S
C1154 C1153 1.401 . S
C1154 H1171 0.930 . S
C1155 O1138 1.262 . S
C1155 O1139 1.260 . S
C1156 Tb1092 2.833 . S
C1156 O1136 1.251 . S
C1156 O1141 1.256 . S
C1156 C1149 1.500 . S
C1157 H1122 0.929 . S
C1157 C1135 1.444 . S
C1157 C1158 1.317 . S
C1158 H1120 0.930 . S
C1158 C1126 1.432 . S
C1158 C1157 1.317 . S
C1159 O1143 1.283 . S
C1159 O1146 1.243 . S
C1160 C1161 1.382 . S
C1160 C1164 1.393 . S
C1160 C1167 1.500 . S
C1161 C1160 1.382 . S
C1161 C1162 1.400 . S
C1161 H1172 0.930 . S
C1162 C1161 1.400 . S
C1162 C1163 1.384 . S
C1163 C1162 1.384 . S
C1163 C1165 1.392 . S
C1163 H1173 0.931 . S
C1164 C1160 1.393 . S
C1164 C1165 1.401 . S
C1164 H1174 0.930 . S
C1165 C1163 1.392 . S
C1165 C1164 1.401 . S
C1165 H1175 0.930 . S
C1166 O1144 1.262 . S
C1166 O1145 1.260 . S
C1167 Tb1103 2.833 . S
C1167 O1142 1.251 . S
C1167 O1147 1.256 . S
C1167 C1160 1.500 . S
H1168 C1151 0.930 . S
H1169 C1152 0.931 . S
H1170 C1153 0.930 . S
H1171 C1154 0.930 . S
H1172 C1161 0.930 . S
H1173 C1163 0.931 . S
H1174 C1164 0.930 . S
H1175 C1165 0.930 . S
Tb1176 N1207 2.660 . S
Tb1176 N1214 2.600 . S
Tb1176 O1220 2.546 . S
Tb1176 O1221 2.610 . S
Tb1176 O1223 2.320 . S
Tb1176 O1224 2.552 . S
Tb1176 O1225 2.413 . S
Tb1176 O1227 2.362 . S
Tb1176 O1228 2.421 . S
Tb1176 C1240 2.833 . S
C1177 C1180 1.432 . S
C1177 C1181 1.414 1_455 S
C1177 N1184 1.359 . S
C1178 C1180 1.417 1_655 S
C1178 C1182 1.432 . S
C1178 C1190 1.410 . S
C1179 C1181 1.444 . S
C1179 C1182 1.317 . S
C1179 H1202 0.929 . S
C1180 C1177 1.432 . S
C1180 C1178 1.417 1_455 S
C1180 N1188 1.360 . S
C1181 C1177 1.414 1_655 S
C1181 C1179 1.444 . S
C1181 C1186 1.385 . S
C1182 C1178 1.432 . S
C1182 C1179 1.317 . S
C1182 H1194 0.930 . S
C1183 C1185 1.392 . S
C1183 C1186 1.370 1_455 S
C1183 H1195 0.931 . S
N1184 C1177 1.359 . S
N1184 C1185 1.327 . S
N1184 Tb1187 2.600 . S
C1185 C1183 1.392 . S
C1185 N1184 1.327 . S
C1185 H1192 0.930 . S
C1186 C1181 1.385 . S
C1186 C1183 1.370 1_655 S
C1186 H1205 0.930 . S
Tb1187 N1184 2.600 . S
Tb1187 N1188 2.660 . S
Tb1187 O1221 2.362 . S
Tb1187 O1222 2.421 . S
Tb1187 O1226 2.546 . S
Tb1187 O1227 2.610 . S
Tb1187 O1229 2.320 . S
Tb1187 O1230 2.552 . S
Tb1187 O1231 2.413 . S
Tb1187 C1251 2.833 . S
N1188 C1180 1.360 . S
N1188 Tb1187 2.660 . S
N1188 C1189 1.305 . S
C1189 N1188 1.305 . S
C1189 C1191 1.407 1_455 S
C1189 H1196 0.930 . S
C1190 C1178 1.410 . S
C1190 C1191 1.345 . S
C1190 H1198 0.930 . S
C1191 C1189 1.407 1_655 S
C1191 C1190 1.345 . S
C1191 H1193 0.930 . S
H1192 C1185 0.930 . S
H1193 C1191 0.930 . S
H1194 C1182 0.930 . S
H1195 C1183 0.931 . S
H1196 C1189 0.930 . S
H1197 C1211 0.930 . S
H1198 C1190 0.930 . S
H1199 C1217 0.930 . S
H1200 C1208 0.930 . S
H1201 C1215 0.931 . S
H1202 C1179 0.929 . S
H1203 C1209 0.930 . S
H1204 C1242 0.930 . S
H1205 C1186 0.930 . S
H1206 C1241 0.929 . S
N1207 Tb1176 2.660 . S
N1207 C1208 1.305 . S
N1207 C1212 1.360 . S
C1208 H1200 0.930 . S
C1208 N1207 1.305 . S
C1208 C1211 1.407 . S
C1209 H1203 0.930 . S
C1209 C1210 1.410 . S
C1209 C1211 1.345 . S
C1210 C1209 1.410 . S
C1210 C1212 1.417 . S
C1210 C1242 1.432 . S
C1211 H1197 0.930 . S
C1211 C1208 1.407 . S
C1211 C1209 1.345 . S
C1212 N1207 1.360 . S
C1212 C1210 1.417 . S
C1212 C1216 1.432 . S
H1213 C1218 0.930 . S
N1214 Tb1176 2.600 . S
N1214 C1216 1.359 . S
N1214 C1217 1.327 . S
C1215 H1201 0.931 . S
C1215 C1217 1.392 . S
C1215 C1218 1.370 . S
C1216 C1212 1.432 . S
C1216 N1214 1.359 . S
C1216 C1219 1.414 . S
C1217 H1199 0.930 . S
C1217 N1214 1.327 . S
C1217 C1215 1.392 . S
C1218 H1213 0.930 . S
C1218 C1215 1.370 . S
C1218 C1219 1.385 . S
C1219 C1216 1.414 . S
C1219 C1218 1.385 . S
C1219 C1241 1.444 . S
O1220 Tb1176 2.546 . S
O1220 C1240 1.251 . S
O1221 Tb1176 2.610 . S
O1221 Tb1187 2.362 . S
O1221 C1232 1.283 . S
O1222 Tb1187 2.421 . S
O1222 C1239 1.262 . S
O1223 Tb1176 2.320 . S
O1223 C1239 1.260 . S
O1224 Tb1176 2.552 . S
O1224 C1232 1.243 . S
O1225 Tb1176 2.413 . S
O1225 C1240 1.256 . S
O1226 Tb1187 2.546 . S
O1226 C1251 1.251 . S
O1227 Tb1176 2.362 . S
O1227 Tb1187 2.610 . S
O1227 C1243 1.283 . S
O1228 Tb1176 2.421 . S
O1228 C1250 1.262 . S
O1229 Tb1187 2.320 . S
O1229 C1250 1.260 . S
O1230 Tb1187 2.552 . S
O1230 C1243 1.243 . S
O1231 Tb1187 2.413 . S
O1231 C1251 1.256 . S
C1232 O1221 1.283 . S
C1232 O1224 1.243 . S
C1233 C1235 1.382 . S
C1233 C1237 1.393 . S
C1233 C1240 1.500 . S
C1234 C1235 1.400 . S
C1234 C1236 1.384 . S
C1235 C1233 1.382 . S
C1235 C1234 1.400 . S
C1235 H1252 0.930 . S
C1236 C1234 1.384 . S
C1236 C1238 1.392 . S
C1236 H1253 0.931 . S
C1237 C1233 1.393 . S
C1237 C1238 1.401 . S
C1237 H1254 0.930 . S
C1238 C1236 1.392 . S
C1238 C1237 1.401 . S
C1238 H1255 0.930 . S
C1239 O1222 1.262 . S
C1239 O1223 1.260 . S
C1240 Tb1176 2.833 . S
C1240 O1220 1.251 . S
C1240 O1225 1.256 . S
C1240 C1233 1.500 . S
C1241 H1206 0.929 . S
C1241 C1219 1.444 . S
C1241 C1242 1.317 . S
C1242 H1204 0.930 . S
C1242 C1210 1.432 . S
C1242 C1241 1.317 . S
C1243 O1227 1.283 . S
C1243 O1230 1.243 . S
C1244 C1245 1.382 . S
C1244 C1248 1.393 . S
C1244 C1251 1.500 . S
C1245 C1244 1.382 . S
C1245 C1246 1.400 . S
C1245 H1256 0.930 . S
C1246 C1245 1.400 . S
C1246 C1247 1.384 . S
C1247 C1246 1.384 . S
C1247 C1249 1.392 . S
C1247 H1257 0.931 . S
C1248 C1244 1.393 . S
C1248 C1249 1.401 . S
C1248 H1258 0.930 . S
C1249 C1247 1.392 . S
C1249 C1248 1.401 . S
C1249 H1259 0.930 . S
C1250 O1228 1.262 . S
C1250 O1229 1.260 . S
C1251 Tb1187 2.833 . S
C1251 O1226 1.251 . S
C1251 O1231 1.256 . S
C1251 C1244 1.500 . S
H1252 C1235 0.930 . S
H1253 C1236 0.931 . S
H1254 C1237 0.930 . S
H1255 C1238 0.930 . S
H1256 C1245 0.930 . S
H1257 C1247 0.931 . S
H1258 C1248 0.930 . S
H1259 C1249 0.930 . S
Tb1260 N1291 2.660 . S
Tb1260 N1298 2.600 . S
Tb1260 O1304 2.546 . S
Tb1260 O1305 2.610 . S
Tb1260 O1307 2.320 . S
Tb1260 O1308 2.552 . S
Tb1260 O1309 2.413 . S
Tb1260 O1311 2.362 . S
Tb1260 O1312 2.421 . S
Tb1260 C1324 2.833 . S
C1261 C1264 1.432 . S
C1261 C1265 1.414 . S
C1261 N1268 1.359 . S
C1262 C1264 1.417 . S
C1262 C1266 1.432 . S
C1262 C1274 1.410 . S
C1263 C1265 1.444 . S
C1263 C1266 1.317 . S
C1263 H1286 0.929 . S
C1264 C1261 1.432 . S
C1264 C1262 1.417 . S
C1264 N1272 1.360 . S
C1265 C1261 1.414 . S
C1265 C1263 1.444 . S
C1265 C1270 1.385 . S
C1266 C1262 1.432 . S
C1266 C1263 1.317 . S
C1266 H1278 0.930 . S
C1267 C1269 1.392 . S
C1267 C1270 1.370 . S
C1267 H1279 0.931 . S
N1268 C1261 1.359 . S
N1268 C1269 1.327 . S
N1268 Tb1271 2.600 . S
C1269 C1267 1.392 . S
C1269 N1268 1.327 . S
C1269 H1276 0.930 . S
C1270 C1265 1.385 . S
C1270 C1267 1.370 . S
C1270 H1289 0.930 . S
Tb1271 N1268 2.600 . S
Tb1271 N1272 2.660 . S
Tb1271 O1305 2.362 . S
Tb1271 O1306 2.421 . S
Tb1271 O1310 2.546 . S
Tb1271 O1311 2.610 . S
Tb1271 O1313 2.320 . S
Tb1271 O1314 2.552 . S
Tb1271 O1315 2.413 . S
Tb1271 C1335 2.833 . S
N1272 C1264 1.360 . S
N1272 Tb1271 2.660 . S
N1272 C1273 1.305 . S
C1273 N1272 1.305 . S
C1273 C1275 1.407 . S
C1273 H1280 0.930 . S
C1274 C1262 1.410 . S
C1274 C1275 1.345 . S
C1274 H1282 0.930 . S
C1275 C1273 1.407 . S
C1275 C1274 1.345 . S
C1275 H1277 0.930 . S
H1276 C1269 0.930 . S
H1277 C1275 0.930 . S
H1278 C1266 0.930 . S
H1279 C1267 0.931 . S
H1280 C1273 0.930 . S
H1281 C1295 0.930 . S
H1282 C1274 0.930 . S
H1283 C1301 0.930 . S
H1284 C1292 0.930 . S
H1285 C1299 0.931 . S
H1286 C1263 0.929 . S
H1287 C1293 0.930 . S
H1288 C1326 0.930 . S
H1289 C1270 0.930 . S
H1290 C1325 0.929 . S
N1291 Tb1260 2.660 . S
N1291 C1292 1.305 . S
N1291 C1296 1.360 . S
C1292 H1284 0.930 . S
C1292 N1291 1.305 . S
C1292 C1295 1.407 . S
C1293 H1287 0.930 . S
C1293 C1294 1.410 . S
C1293 C1295 1.345 . S
C1294 C1293 1.410 . S
C1294 C1296 1.417 . S
C1294 C1326 1.432 . S
C1295 H1281 0.930 . S
C1295 C1292 1.407 . S
C1295 C1293 1.345 . S
C1296 N1291 1.360 . S
C1296 C1294 1.417 . S
C1296 C1300 1.432 . S
H1297 C1302 0.930 . S
N1298 Tb1260 2.600 . S
N1298 C1300 1.359 . S
N1298 C1301 1.327 . S
C1299 H1285 0.931 . S
C1299 C1301 1.392 . S
C1299 C1302 1.370 . S
C1300 C1296 1.432 . S
C1300 N1298 1.359 . S
C1300 C1303 1.414 . S
C1301 H1283 0.930 . S
C1301 N1298 1.327 . S
C1301 C1299 1.392 . S
C1302 H1297 0.930 . S
C1302 C1299 1.370 . S
C1302 C1303 1.385 . S
C1303 C1300 1.414 . S
C1303 C1302 1.385 . S
C1303 C1325 1.444 . S
O1304 Tb1260 2.546 . S
O1304 C1324 1.251 . S
O1305 Tb1260 2.610 . S
O1305 Tb1271 2.362 . S
O1305 C1316 1.283 . S
O1306 Tb1271 2.421 . S
O1306 C1323 1.262 . S
O1307 Tb1260 2.320 . S
O1307 C1323 1.260 . S
O1308 Tb1260 2.552 . S
O1308 C1316 1.243 . S
O1309 Tb1260 2.413 . S
O1309 C1324 1.256 . S
O1310 Tb1271 2.546 . S
O1310 C1335 1.251 . S
O1311 Tb1260 2.362 . S
O1311 Tb1271 2.610 . S
O1311 C1327 1.283 . S
O1312 Tb1260 2.421 . S
O1312 C1334 1.262 . S
O1313 Tb1271 2.320 . S
O1313 C1334 1.260 . S
O1314 Tb1271 2.552 . S
O1314 C1327 1.243 . S
O1315 Tb1271 2.413 . S
O1315 C1335 1.256 . S
C1316 O1305 1.283 . S
C1316 O1308 1.243 . S
C1317 C1319 1.382 . S
C1317 C1321 1.393 . S
C1317 C1324 1.500 . S
C1318 C1319 1.400 . S
C1318 C1320 1.384 . S
C1319 C1317 1.382 . S
C1319 C1318 1.400 . S
C1319 H1336 0.930 . S
C1320 C1318 1.384 . S
C1320 C1322 1.392 . S
C1320 H1337 0.931 . S
C1321 C1317 1.393 . S
C1321 C1322 1.401 . S
C1321 H1338 0.930 . S
C1322 C1320 1.392 . S
C1322 C1321 1.401 . S
C1322 H1339 0.930 . S
C1323 O1306 1.262 . S
C1323 O1307 1.260 . S
C1324 Tb1260 2.833 . S
C1324 O1304 1.251 . S
C1324 O1309 1.256 . S
C1324 C1317 1.500 . S
C1325 H1290 0.929 . S
C1325 C1303 1.444 . S
C1325 C1326 1.317 . S
C1326 H1288 0.930 . S
C1326 C1294 1.432 . S
C1326 C1325 1.317 . S
C1327 O1311 1.283 . S
C1327 O1314 1.243 . S
C1328 C1329 1.382 . S
C1328 C1332 1.393 . S
C1328 C1335 1.500 . S
C1329 C1328 1.382 . S
C1329 C1330 1.400 . S
C1329 H1340 0.930 . S
C1330 C1329 1.400 . S
C1330 C1331 1.384 . S
C1331 C1330 1.384 . S
C1331 C1333 1.392 . S
C1331 H1341 0.931 . S
C1332 C1328 1.393 . S
C1332 C1333 1.401 . S
C1332 H1342 0.930 . S
C1333 C1331 1.392 . S
C1333 C1332 1.401 . S
C1333 H1343 0.930 . S
C1334 O1312 1.262 . S
C1334 O1313 1.260 . S
C1335 Tb1271 2.833 . S
C1335 O1310 1.251 . S
C1335 O1315 1.256 . S
C1335 C1328 1.500 . S
H1336 C1319 0.930 . S
H1337 C1320 0.931 . S
H1338 C1321 0.930 . S
H1339 C1322 0.930 . S
H1340 C1329 0.930 . S
H1341 C1331 0.931 . S
H1342 C1332 0.930 . S
H1343 C1333 0.930 . S
Tb1344 N1375 2.660 . S
Tb1344 N1382 2.600 . S
Tb1344 O1388 2.546 . S
Tb1344 O1389 2.610 . S
Tb1344 O1391 2.320 . S
Tb1344 O1392 2.552 . S
Tb1344 O1393 2.413 . S
Tb1344 O1395 2.362 . S
Tb1344 O1396 2.421 . S
Tb1344 C1408 2.833 . S
C1345 C1348 1.432 . S
C1345 C1349 1.414 . S
C1345 N1352 1.359 . S
C1346 C1348 1.417 . S
C1346 C1350 1.432 . S
C1346 C1358 1.410 . S
C1347 C1349 1.444 . S
C1347 C1350 1.317 . S
C1347 H1370 0.929 . S
C1348 C1345 1.432 . S
C1348 C1346 1.417 . S
C1348 N1356 1.360 . S
C1349 C1345 1.414 . S
C1349 C1347 1.444 . S
C1349 C1354 1.385 . S
C1350 C1346 1.432 . S
C1350 C1347 1.317 . S
C1350 H1362 0.930 . S
C1351 C1353 1.392 . S
C1351 C1354 1.370 . S
C1351 H1363 0.931 . S
N1352 C1345 1.359 . S
N1352 C1353 1.327 . S
N1352 Tb1355 2.600 . S
C1353 C1351 1.392 . S
C1353 N1352 1.327 . S
C1353 H1360 0.930 . S
C1354 C1349 1.385 . S
C1354 C1351 1.370 . S
C1354 H1373 0.930 . S
Tb1355 N1352 2.600 . S
Tb1355 N1356 2.660 . S
Tb1355 O1389 2.362 . S
Tb1355 O1390 2.421 . S
Tb1355 O1394 2.546 . S
Tb1355 O1395 2.610 . S
Tb1355 O1397 2.320 . S
Tb1355 O1398 2.552 . S
Tb1355 O1399 2.413 . S
Tb1355 C1419 2.833 . S
N1356 C1348 1.360 . S
N1356 Tb1355 2.660 . S
N1356 C1357 1.305 . S
C1357 N1356 1.305 . S
C1357 C1359 1.407 . S
C1357 H1364 0.930 . S
C1358 C1346 1.410 . S
C1358 C1359 1.345 . S
C1358 H1366 0.930 . S
C1359 C1357 1.407 . S
C1359 C1358 1.345 . S
C1359 H1361 0.930 . S
H1360 C1353 0.930 . S
H1361 C1359 0.930 . S
H1362 C1350 0.930 . S
H1363 C1351 0.931 . S
H1364 C1357 0.930 . S
H1365 C1379 0.930 . S
H1366 C1358 0.930 . S
H1367 C1385 0.930 . S
H1368 C1376 0.930 . S
H1369 C1383 0.931 . S
H1370 C1347 0.929 . S
H1371 C1377 0.930 . S
H1372 C1410 0.930 . S
H1373 C1354 0.930 . S
H1374 C1409 0.929 . S
N1375 Tb1344 2.660 . S
N1375 C1376 1.305 . S
N1375 C1380 1.360 . S
C1376 H1368 0.930 . S
C1376 N1375 1.305 . S
C1376 C1379 1.407 . S
C1377 H1371 0.930 . S
C1377 C1378 1.410 . S
C1377 C1379 1.345 . S
C1378 C1377 1.410 . S
C1378 C1380 1.417 . S
C1378 C1410 1.432 . S
C1379 H1365 0.930 . S
C1379 C1376 1.407 . S
C1379 C1377 1.345 . S
C1380 N1375 1.360 . S
C1380 C1378 1.417 . S
C1380 C1384 1.432 . S
H1381 C1386 0.930 . S
N1382 Tb1344 2.600 . S
N1382 C1384 1.359 . S
N1382 C1385 1.327 . S
C1383 H1369 0.931 . S
C1383 C1385 1.392 . S
C1383 C1386 1.370 . S
C1384 C1380 1.432 . S
C1384 N1382 1.359 . S
C1384 C1387 1.414 . S
C1385 H1367 0.930 . S
C1385 N1382 1.327 . S
C1385 C1383 1.392 . S
C1386 H1381 0.930 . S
C1386 C1383 1.370 . S
C1386 C1387 1.385 . S
C1387 C1384 1.414 . S
C1387 C1386 1.385 . S
C1387 C1409 1.444 . S
O1388 Tb1344 2.546 . S
O1388 C1408 1.251 . S
O1389 Tb1344 2.610 . S
O1389 Tb1355 2.362 . S
O1389 C1400 1.283 . S
O1390 Tb1355 2.421 . S
O1390 C1407 1.262 . S
O1391 Tb1344 2.320 . S
O1391 C1407 1.260 . S
O1392 Tb1344 2.552 . S
O1392 C1400 1.243 . S
O1393 Tb1344 2.413 . S
O1393 C1408 1.256 . S
O1394 Tb1355 2.546 . S
O1394 C1419 1.251 . S
O1395 Tb1344 2.362 . S
O1395 Tb1355 2.610 . S
O1395 C1411 1.283 . S
O1396 Tb1344 2.421 . S
O1396 C1418 1.262 . S
O1397 Tb1355 2.320 . S
O1397 C1418 1.260 . S
O1398 Tb1355 2.552 . S
O1398 C1411 1.243 . S
O1399 Tb1355 2.413 . S
O1399 C1419 1.256 . S
C1400 O1389 1.283 . S
C1400 O1392 1.243 . S
C1401 C1403 1.382 . S
C1401 C1405 1.393 . S
C1401 C1408 1.500 . S
C1402 C1403 1.400 . S
C1402 C1404 1.384 . S
C1403 C1401 1.382 . S
C1403 C1402 1.400 . S
C1403 H1420 0.930 . S
C1404 C1402 1.384 . S
C1404 C1406 1.392 . S
C1404 H1421 0.931 . S
C1405 C1401 1.393 . S
C1405 C1406 1.401 . S
C1405 H1422 0.930 . S
C1406 C1404 1.392 . S
C1406 C1405 1.401 . S
C1406 H1423 0.930 . S
C1407 O1390 1.262 . S
C1407 O1391 1.260 . S
C1408 Tb1344 2.833 . S
C1408 O1388 1.251 . S
C1408 O1393 1.256 . S
C1408 C1401 1.500 . S
C1409 H1374 0.929 . S
C1409 C1387 1.444 . S
C1409 C1410 1.317 . S
C1410 H1372 0.930 . S
C1410 C1378 1.432 . S
C1410 C1409 1.317 . S
C1411 O1395 1.283 . S
C1411 O1398 1.243 . S
C1412 C1413 1.382 . S
C1412 C1416 1.393 . S
C1412 C1419 1.500 . S
C1413 C1412 1.382 . S
C1413 C1414 1.400 . S
C1413 H1424 0.930 . S
C1414 C1413 1.400 . S
C1414 C1415 1.384 . S
C1415 C1414 1.384 . S
C1415 C1417 1.392 . S
C1415 H1425 0.931 . S
C1416 C1412 1.393 . S
C1416 C1417 1.401 . S
C1416 H1426 0.930 . S
C1417 C1415 1.392 . S
C1417 C1416 1.401 . S
C1417 H1427 0.930 . S
C1418 O1396 1.262 . S
C1418 O1397 1.260 . S
C1419 Tb1355 2.833 . S
C1419 O1394 1.251 . S
C1419 O1399 1.256 . S
C1419 C1412 1.500 . S
H1420 C1403 0.930 . S
H1421 C1404 0.931 . S
H1422 C1405 0.930 . S
H1423 C1406 0.930 . S
H1424 C1413 0.930 . S
H1425 C1415 0.931 . S
H1426 C1416 0.930 . S
H1427 C1417 0.930 . S
Tb1428 N1459 2.660 . S
Tb1428 N1466 2.600 . S
Tb1428 O1472 2.546 . S
Tb1428 O1473 2.610 . S
Tb1428 O1475 2.320 . S
Tb1428 O1476 2.552 . S
Tb1428 O1477 2.413 . S
Tb1428 O1479 2.362 . S
Tb1428 O1480 2.421 . S
Tb1428 C1492 2.833 . S
C1429 C1432 1.432 . S
C1429 C1433 1.414 . S
C1429 N1436 1.359 . S
C1430 C1432 1.417 . S
C1430 C1434 1.432 . S
C1430 C1442 1.410 . S
C1431 C1433 1.444 . S
C1431 C1434 1.317 . S
C1431 H1454 0.929 . S
C1432 C1429 1.432 . S
C1432 C1430 1.417 . S
C1432 N1440 1.360 . S
C1433 C1429 1.414 . S
C1433 C1431 1.444 . S
C1433 C1438 1.385 . S
C1434 C1430 1.432 . S
C1434 C1431 1.317 . S
C1434 H1446 0.930 . S
C1435 C1437 1.392 . S
C1435 C1438 1.370 . S
C1435 H1447 0.931 . S
N1436 C1429 1.359 . S
N1436 C1437 1.327 . S
N1436 Tb1439 2.600 . S
C1437 C1435 1.392 . S
C1437 N1436 1.327 . S
C1437 H1444 0.930 . S
C1438 C1433 1.385 . S
C1438 C1435 1.370 . S
C1438 H1457 0.930 . S
Tb1439 N1436 2.600 . S
Tb1439 N1440 2.660 . S
Tb1439 O1473 2.362 . S
Tb1439 O1474 2.421 . S
Tb1439 O1478 2.546 . S
Tb1439 O1479 2.610 . S
Tb1439 O1481 2.320 . S
Tb1439 O1482 2.552 . S
Tb1439 O1483 2.413 . S
Tb1439 C1503 2.833 . S
N1440 C1432 1.360 . S
N1440 Tb1439 2.660 . S
N1440 C1441 1.305 . S
C1441 N1440 1.305 . S
C1441 C1443 1.407 . S
C1441 H1448 0.930 . S
C1442 C1430 1.410 . S
C1442 C1443 1.345 . S
C1442 H1450 0.930 . S
C1443 C1441 1.407 . S
C1443 C1442 1.345 . S
C1443 H1445 0.930 . S
H1444 C1437 0.930 . S
H1445 C1443 0.930 . S
H1446 C1434 0.930 . S
H1447 C1435 0.931 . S
H1448 C1441 0.930 . S
H1449 C1463 0.930 . S
H1450 C1442 0.930 . S
H1451 C1469 0.930 . S
H1452 C1460 0.930 . S
H1453 C1467 0.931 . S
H1454 C1431 0.929 . S
H1455 C1461 0.930 . S
H1456 C1494 0.930 . S
H1457 C1438 0.930 . S
H1458 C1493 0.929 . S
N1459 Tb1428 2.660 . S
N1459 C1460 1.305 . S
N1459 C1464 1.360 . S
C1460 H1452 0.930 . S
C1460 N1459 1.305 . S
C1460 C1463 1.407 . S
C1461 H1455 0.930 . S
C1461 C1462 1.410 . S
C1461 C1463 1.345 . S
C1462 C1461 1.410 . S
C1462 C1464 1.417 . S
C1462 C1494 1.432 . S
C1463 H1449 0.930 . S
C1463 C1460 1.407 . S
C1463 C1461 1.345 . S
C1464 N1459 1.360 . S
C1464 C1462 1.417 . S
C1464 C1468 1.432 . S
H1465 C1470 0.930 . S
N1466 Tb1428 2.600 . S
N1466 C1468 1.359 . S
N1466 C1469 1.327 . S
C1467 H1453 0.931 . S
C1467 C1469 1.392 . S
C1467 C1470 1.370 . S
C1468 C1464 1.432 . S
C1468 N1466 1.359 . S
C1468 C1471 1.414 . S
C1469 H1451 0.930 . S
C1469 N1466 1.327 . S
C1469 C1467 1.392 . S
C1470 H1465 0.930 . S
C1470 C1467 1.370 . S
C1470 C1471 1.385 . S
C1471 C1468 1.414 . S
C1471 C1470 1.385 . S
C1471 C1493 1.444 . S
O1472 Tb1428 2.546 . S
O1472 C1492 1.251 . S
O1473 Tb1428 2.610 . S
O1473 Tb1439 2.362 . S
O1473 C1484 1.283 . S
O1474 Tb1439 2.421 . S
O1474 C1491 1.262 . S
O1475 Tb1428 2.320 . S
O1475 C1491 1.260 . S
O1476 Tb1428 2.552 . S
O1476 C1484 1.243 . S
O1477 Tb1428 2.413 . S
O1477 C1492 1.256 . S
O1478 Tb1439 2.546 . S
O1478 C1503 1.251 . S
O1479 Tb1428 2.362 . S
O1479 Tb1439 2.610 . S
O1479 C1495 1.283 . S
O1480 Tb1428 2.421 . S
O1480 C1502 1.262 . S
O1481 Tb1439 2.320 . S
O1481 C1502 1.260 . S
O1482 Tb1439 2.552 . S
O1482 C1495 1.243 . S
O1483 Tb1439 2.413 . S
O1483 C1503 1.256 . S
C1484 O1473 1.283 . S
C1484 O1476 1.243 . S
C1485 C1487 1.382 . S
C1485 C1489 1.393 . S
C1485 C1492 1.500 . S
C1486 C1487 1.400 . S
C1486 C1488 1.384 . S
C1487 C1485 1.382 . S
C1487 C1486 1.400 . S
C1487 H1504 0.930 . S
C1488 C1486 1.384 . S
C1488 C1490 1.392 . S
C1488 H1505 0.931 . S
C1489 C1485 1.393 . S
C1489 C1490 1.401 . S
C1489 H1506 0.930 . S
C1490 C1488 1.392 . S
C1490 C1489 1.401 . S
C1490 H1507 0.930 . S
C1491 O1474 1.262 . S
C1491 O1475 1.260 . S
C1492 Tb1428 2.833 . S
C1492 O1472 1.251 . S
C1492 O1477 1.256 . S
C1492 C1485 1.500 . S
C1493 H1458 0.929 . S
C1493 C1471 1.444 . S
C1493 C1494 1.317 . S
C1494 H1456 0.930 . S
C1494 C1462 1.432 . S
C1494 C1493 1.317 . S
C1495 O1479 1.283 . S
C1495 O1482 1.243 . S
C1496 C1497 1.382 . S
C1496 C1500 1.393 . S
C1496 C1503 1.500 . S
C1497 C1496 1.382 . S
C1497 C1498 1.400 . S
C1497 H1508 0.930 . S
C1498 C1497 1.400 . S
C1498 C1499 1.384 . S
C1499 C1498 1.384 . S
C1499 C1501 1.392 . S
C1499 H1509 0.931 . S
C1500 C1496 1.393 . S
C1500 C1501 1.401 . S
C1500 H1510 0.930 . S
C1501 C1499 1.392 . S
C1501 C1500 1.401 . S
C1501 H1511 0.930 . S
C1502 O1480 1.262 . S
C1502 O1481 1.260 . S
C1503 Tb1439 2.833 . S
C1503 O1478 1.251 . S
C1503 O1483 1.256 . S
C1503 C1496 1.500 . S
H1504 C1487 0.930 . S
H1505 C1488 0.931 . S
H1506 C1489 0.930 . S
H1507 C1490 0.930 . S
H1508 C1497 0.930 . S
H1509 C1499 0.931 . S
H1510 C1500 0.930 . S
H1511 C1501 0.930 . S
Tb1512 N1543 2.660 . S
Tb1512 N1550 2.600 . S
Tb1512 O1556 2.546 . S
Tb1512 O1557 2.610 . S
Tb1512 O1559 2.320 . S
Tb1512 O1560 2.552 . S
Tb1512 O1561 2.413 . S
Tb1512 O1563 2.362 . S
Tb1512 O1564 2.421 . S
Tb1512 C1576 2.833 . S
C1513 C1516 1.432 . S
C1513 C1517 1.414 . S
C1513 N1520 1.359 . S
C1514 C1516 1.417 . S
C1514 C1518 1.432 . S
C1514 C1526 1.410 . S
C1515 C1517 1.444 . S
C1515 C1518 1.317 . S
C1515 H1538 0.929 . S
C1516 C1513 1.432 . S
C1516 C1514 1.417 . S
C1516 N1524 1.360 . S
C1517 C1513 1.414 . S
C1517 C1515 1.444 . S
C1517 C1522 1.385 . S
C1518 C1514 1.432 . S
C1518 C1515 1.317 . S
C1518 H1530 0.930 . S
C1519 C1521 1.392 . S
C1519 C1522 1.370 . S
C1519 H1531 0.931 . S
N1520 C1513 1.359 . S
N1520 C1521 1.327 . S
N1520 Tb1523 2.600 . S
C1521 C1519 1.392 . S
C1521 N1520 1.327 . S
C1521 H1528 0.930 . S
C1522 C1517 1.385 . S
C1522 C1519 1.370 . S
C1522 H1541 0.930 . S
Tb1523 N1520 2.600 . S
Tb1523 N1524 2.660 . S
Tb1523 O1557 2.362 . S
Tb1523 O1558 2.421 . S
Tb1523 O1562 2.546 . S
Tb1523 O1563 2.610 . S
Tb1523 O1565 2.320 . S
Tb1523 O1566 2.552 . S
Tb1523 O1567 2.413 . S
Tb1523 C1587 2.833 . S
N1524 C1516 1.360 . S
N1524 Tb1523 2.660 . S
N1524 C1525 1.305 . S
C1525 N1524 1.305 . S
C1525 C1527 1.407 . S
C1525 H1532 0.930 . S
C1526 C1514 1.410 . S
C1526 C1527 1.345 . S
C1526 H1534 0.930 . S
C1527 C1525 1.407 . S
C1527 C1526 1.345 . S
C1527 H1529 0.930 . S
H1528 C1521 0.930 . S
H1529 C1527 0.930 . S
H1530 C1518 0.930 . S
H1531 C1519 0.931 . S
H1532 C1525 0.930 . S
H1533 C1547 0.930 . S
H1534 C1526 0.930 . S
H1535 C1553 0.930 . S
H1536 C1544 0.930 . S
H1537 C1551 0.931 . S
H1538 C1515 0.929 . S
H1539 C1545 0.930 . S
H1540 C1578 0.930 . S
H1541 C1522 0.930 . S
H1542 C1577 0.929 . S
N1543 Tb1512 2.660 . S
N1543 C1544 1.305 . S
N1543 C1548 1.360 . S
C1544 H1536 0.930 . S
C1544 N1543 1.305 . S
C1544 C1547 1.407 . S
C1545 H1539 0.930 . S
C1545 C1546 1.410 . S
C1545 C1547 1.345 . S
C1546 C1545 1.410 . S
C1546 C1548 1.417 . S
C1546 C1578 1.432 . S
C1547 H1533 0.930 . S
C1547 C1544 1.407 . S
C1547 C1545 1.345 . S
C1548 N1543 1.360 . S
C1548 C1546 1.417 . S
C1548 C1552 1.432 . S
H1549 C1554 0.930 . S
N1550 Tb1512 2.600 . S
N1550 C1552 1.359 . S
N1550 C1553 1.327 . S
C1551 H1537 0.931 . S
C1551 C1553 1.392 . S
C1551 C1554 1.370 . S
C1552 C1548 1.432 . S
C1552 N1550 1.359 . S
C1552 C1555 1.414 . S
C1553 H1535 0.930 . S
C1553 N1550 1.327 . S
C1553 C1551 1.392 . S
C1554 H1549 0.930 . S
C1554 C1551 1.370 . S
C1554 C1555 1.385 . S
C1555 C1552 1.414 . S
C1555 C1554 1.385 . S
C1555 C1577 1.444 . S
O1556 Tb1512 2.546 . S
O1556 C1576 1.251 . S
O1557 Tb1512 2.610 . S
O1557 Tb1523 2.362 . S
O1557 C1568 1.283 . S
O1558 Tb1523 2.421 . S
O1558 C1575 1.262 . S
O1559 Tb1512 2.320 . S
O1559 C1575 1.260 . S
O1560 Tb1512 2.552 . S
O1560 C1568 1.243 . S
O1561 Tb1512 2.413 . S
O1561 C1576 1.256 . S
O1562 Tb1523 2.546 . S
O1562 C1587 1.251 . S
O1563 Tb1512 2.362 . S
O1563 Tb1523 2.610 . S
O1563 C1579 1.283 . S
O1564 Tb1512 2.421 . S
O1564 C1586 1.262 . S
O1565 Tb1523 2.320 . S
O1565 C1586 1.260 . S
O1566 Tb1523 2.552 . S
O1566 C1579 1.243 . S
O1567 Tb1523 2.413 . S
O1567 C1587 1.256 . S
C1568 O1557 1.283 . S
C1568 O1560 1.243 . S
C1569 C1571 1.382 . S
C1569 C1573 1.393 . S
C1569 C1576 1.500 . S
C1570 C1571 1.400 . S
C1570 C1572 1.384 . S
C1571 C1569 1.382 . S
C1571 C1570 1.400 . S
C1571 H1588 0.930 . S
C1572 C1570 1.384 . S
C1572 C1574 1.392 . S
C1572 H1589 0.931 . S
C1573 C1569 1.393 . S
C1573 C1574 1.401 . S
C1573 H1590 0.930 . S
C1574 C1572 1.392 . S
C1574 C1573 1.401 . S
C1574 H1591 0.930 . S
C1575 O1558 1.262 . S
C1575 O1559 1.260 . S
C1576 Tb1512 2.833 . S
C1576 O1556 1.251 . S
C1576 O1561 1.256 . S
C1576 C1569 1.500 . S
C1577 H1542 0.929 . S
C1577 C1555 1.444 . S
C1577 C1578 1.317 . S
C1578 H1540 0.930 . S
C1578 C1546 1.432 . S
C1578 C1577 1.317 . S
C1579 O1563 1.283 . S
C1579 O1566 1.243 . S
C1580 C1581 1.382 . S
C1580 C1584 1.393 . S
C1580 C1587 1.500 . S
C1581 C1580 1.382 . S
C1581 C1582 1.400 . S
C1581 H1592 0.930 . S
C1582 C1581 1.400 . S
C1582 C1583 1.384 . S
C1583 C1582 1.384 . S
C1583 C1585 1.392 . S
C1583 H1593 0.931 . S
C1584 C1580 1.393 . S
C1584 C1585 1.401 . S
C1584 H1594 0.930 . S
C1585 C1583 1.392 . S
C1585 C1584 1.401 . S
C1585 H1595 0.930 . S
C1586 O1564 1.262 . S
C1586 O1565 1.260 . S
C1587 Tb1523 2.833 . S
C1587 O1562 1.251 . S
C1587 O1567 1.256 . S
C1587 C1580 1.500 . S
H1588 C1571 0.930 . S
H1589 C1572 0.931 . S
H1590 C1573 0.930 . S
H1591 C1574 0.930 . S
H1592 C1581 0.930 . S
H1593 C1583 0.931 . S
H1594 C1584 0.930 . S
H1595 C1585 0.930 . S
Tb1596 N1627 2.660 . S
Tb1596 N1634 2.600 1_554 S
Tb1596 O1640 2.546 1_554 S
Tb1596 O1641 2.610 . S
Tb1596 O1643 2.320 . S
Tb1596 O1644 2.549 . S
Tb1596 O1645 2.413 . S
Tb1596 O1647 2.362 . S
Tb1596 O1648 2.421 1_554 S
Tb1596 C1660 2.833 1_554 S
C1597 C1600 1.432 . S
C1597 C1601 1.414 . S
C1597 N1604 1.359 1_655 S
C1598 C1600 1.417 . S
C1598 C1602 1.432 . S
C1598 C1610 1.410 1_554 S
C1599 C1601 1.444 . S
C1599 C1602 1.317 . S
C1599 H1622 0.929 . S
C1600 C1597 1.432 . S
C1600 C1598 1.417 . S
C1600 N1608 1.360 1_655 S
C1601 C1597 1.414 . S
C1601 C1599 1.444 . S
C1601 C1606 1.385 . S
C1602 C1598 1.432 . S
C1602 C1599 1.317 . S
C1602 H1614 0.930 . S
C1603 C1605 1.392 . S
C1603 C1606 1.370 1_455 S
C1603 H1615 0.931 . S
N1604 C1597 1.359 1_455 S
N1604 C1605 1.327 . S
N1604 Tb1607 2.600 . S
C1605 C1603 1.392 . S
C1605 N1604 1.327 . S
C1605 H1612 0.930 . S
C1606 C1601 1.385 . S
C1606 C1603 1.370 1_655 S
C1606 H1625 0.930 . S
Tb1607 N1604 2.600 . S
Tb1607 N1608 2.660 . S
Tb1607 O1641 2.362 . S
Tb1607 O1642 2.421 . S
Tb1607 O1646 2.546 . S
Tb1607 O1647 2.610 . S
Tb1607 O1649 2.320 1_554 S
Tb1607 O1650 2.552 . S
Tb1607 O1651 2.413 1_455 S
Tb1607 C1671 2.833 1_455 S
N1608 C1600 1.360 1_455 S
N1608 Tb1607 2.660 . S
N1608 C1609 1.305 1_454 S
C1609 N1608 1.305 1_656 S
C1609 C1611 1.407 . S
C1609 H1616 0.930 1_655 S
C1610 C1598 1.410 1_556 S
C1610 C1611 1.345 . S
C1610 H1618 0.930 . S
C1611 C1609 1.407 . S
C1611 C1610 1.345 . S
C1611 H1613 0.930 . S
H1612 C1605 0.930 . S
H1613 C1611 0.930 . S
H1614 C1602 0.930 . S
H1615 C1603 0.931 . S
H1616 C1609 0.930 1_455 S
H1617 C1631 0.930 . S
H1618 C1610 0.930 . S
H1619 C1637 0.930 . S
H1620 C1628 0.930 . S
H1621 C1635 0.931 . S
H1622 C1599 0.929 . S
H1623 C1629 0.930 . S
H1624 C1662 0.930 . S
H1625 C1606 0.930 . S
H1626 C1661 0.929 . S
N1627 Tb1596 2.660 . S
N1627 C1628 1.305 . S
N1627 C1632 1.360 . S
C1628 H1620 0.930 . S
C1628 N1627 1.305 . S
C1628 C1631 1.407 . S
C1629 H1623 0.930 . S
C1629 C1630 1.410 . S
C1629 C1631 1.345 . S
C1630 C1629 1.410 . S
C1630 C1632 1.417 . S
C1630 C1662 1.432 . S
C1631 H1617 0.930 . S
C1631 C1628 1.407 . S
C1631 C1629 1.345 . S
C1632 N1627 1.360 . S
C1632 C1630 1.417 . S
C1632 C1636 1.432 1_554 S
H1633 C1638 0.930 . S
N1634 Tb1596 2.600 1_556 S
N1634 C1636 1.359 . S
N1634 C1637 1.327 . S
C1635 H1621 0.931 . S
C1635 C1637 1.392 . S
C1635 C1638 1.370 . S
C1636 C1632 1.432 1_556 S
C1636 N1634 1.359 . S
C1636 C1639 1.414 . S
C1637 H1619 0.930 . S
C1637 N1634 1.327 . S
C1637 C1635 1.392 . S
C1638 H1633 0.930 . S
C1638 C1635 1.370 . S
C1638 C1639 1.385 . S
C1639 C1636 1.414 . S
C1639 C1638 1.385 . S
C1639 C1661 1.444 . S
O1640 Tb1596 2.546 1_556 S
O1640 C1660 1.251 . S
O1641 Tb1596 2.610 . S
O1641 Tb1607 2.362 . S
O1641 C1652 1.283 . S
O1642 Tb1607 2.421 . S
O1642 C1659 1.262 . S
O1643 Tb1596 2.320 . S
O1643 C1659 1.260 . S
O1644 Tb1596 2.549 . S
O1644 C1652 1.261 . S
O1645 Tb1596 2.413 . S
O1645 C1660 1.256 1_554 S
O1646 Tb1607 2.546 . S
O1646 C1671 1.251 1_455 S
O1647 Tb1596 2.362 . S
O1647 Tb1607 2.610 . S
O1647 C1663 1.283 . S
O1648 Tb1596 2.421 1_556 S
O1648 C1670 1.262 . S
O1649 Tb1607 2.320 1_556 S
O1649 C1670 1.260 . S
O1650 Tb1607 2.552 . S
O1650 C1663 1.243 . S
O1651 Tb1607 2.413 1_655 S
O1651 C1671 1.256 . S
C1652 O1641 1.283 . S
C1652 O1644 1.261 . S
C1653 C1655 1.382 1_556 S
C1653 C1657 1.393 . S
C1653 C1660 1.500 . S
C1654 C1655 1.400 1_556 S
C1654 C1656 1.384 . S
C1655 C1653 1.382 1_554 S
C1655 C1654 1.400 1_554 S
C1655 H1672 0.930 . S
C1656 C1654 1.384 . S
C1656 C1658 1.392 . S
C1656 H1673 0.931 . S
C1657 C1653 1.393 . S
C1657 C1658 1.401 . S
C1657 H1674 0.930 . S
C1658 C1656 1.392 . S
C1658 C1657 1.401 . S
C1658 H1675 0.930 . S
C1659 O1642 1.262 . S
C1659 O1643 1.260 . S
C1660 Tb1596 2.833 1_556 S
C1660 O1640 1.251 . S
C1660 O1645 1.256 1_556 S
C1660 C1653 1.500 . S
C1661 H1626 0.929 . S
C1661 C1639 1.444 . S
C1661 C1662 1.317 1_556 S
C1662 H1624 0.930 . S
C1662 C1630 1.432 . S
C1662 C1661 1.317 1_554 S
C1663 O1647 1.283 . S
C1663 O1650 1.243 . S
C1664 C1665 1.382 . S
C1664 C1668 1.393 . S
C1664 C1671 1.500 . S
C1665 C1664 1.382 . S
C1665 C1666 1.400 . S
C1665 H1676 0.930 . S
C1666 C1665 1.400 . S
C1666 C1667 1.384 . S
C1667 C1666 1.384 . S
C1667 C1669 1.392 . S
C1667 H1677 0.931 . S
C1668 C1664 1.393 . S
C1668 C1669 1.401 . S
C1668 H1678 0.930 . S
C1669 C1667 1.392 . S
C1669 C1668 1.401 . S
C1669 H1679 0.930 . S
C1670 O1648 1.262 . S
C1670 O1649 1.260 . S
C1671 Tb1607 2.833 1_655 S
C1671 O1646 1.251 1_655 S
C1671 O1651 1.256 . S
C1671 C1664 1.500 . S
H1672 C1655 0.930 . S
H1673 C1656 0.931 . S
H1674 C1657 0.930 . S
H1675 C1658 0.930 . S
H1676 C1665 0.930 . S
H1677 C1667 0.931 . S
H1678 C1668 0.930 . S
H1679 C1669 0.930 . S
H1680 C1688 0.950 . S
H1681 C1693 0.950 . S
H1682 C1690 0.950 . S
H1683 C1692 0.950 1_554 S
H1684 C1694 0.950 . S
H1685 C1696 0.950 . S
H1686 C1698 0.950 . S
H1687 C1699 0.950 . S
C1688 H1680 0.950 . S
C1688 C1689 1.386 . S
C1688 C1690 1.391 . S
C1689 C1688 1.386 . S
C1689 C1693 1.393 . S
C1690 H1682 0.950 . S
C1690 C1688 1.391 . S
C1690 C1691 1.400 . S
C1691 C1690 1.400 . S
C1691 C1692 1.398 . S
C1691 C1697 1.491 . S
C1692 H1683 0.950 1_556 S
C1692 C1691 1.398 . S
C1692 C1693 1.391 . S
C1693 H1681 0.950 . S
C1693 C1689 1.393 . S
C1693 C1692 1.391 . S
C1694 H1684 0.950 . S
C1694 C1695 1.386 . S
C1694 C1696 1.391 . S
C1695 C1694 1.386 . S
C1695 C1699 1.393 1_554 S
C1696 H1685 0.950 . S
C1696 C1694 1.391 . S
C1696 C1697 1.400 1_554 S
C1697 C1691 1.491 . S
C1697 C1696 1.400 1_556 S
C1697 C1698 1.398 . S
C1698 H1686 0.950 . S
C1698 C1697 1.398 . S
C1698 C1699 1.391 . S
C1699 H1687 0.950 . S
C1699 C1695 1.393 1_556 S
C1699 C1698 1.391 . S
H1700 C1708 0.950 . S
H1701 C1713 0.950 . S
H1702 C1710 0.950 . S
H1703 C1712 0.950 . S
H1704 C1714 0.950 . S
H1705 C1716 0.950 . S
H1706 C1718 0.950 . S
H1707 C1719 0.950 . S
C1708 H1700 0.950 . S
C1708 C1709 1.386 . S
C1708 C1710 1.391 . S
C1709 C1708 1.386 . S
C1709 C1713 1.393 . S
C1710 H1702 0.950 . S
C1710 C1708 1.391 . S
C1710 C1711 1.400 . S
C1711 C1710 1.400 . S
C1711 C1712 1.398 . S
C1711 C1717 1.491 . S
C1712 H1703 0.950 . S
C1712 C1711 1.398 . S
C1712 C1713 1.391 . S
C1713 H1701 0.950 . S
C1713 C1709 1.393 . S
C1713 C1712 1.391 . S
C1714 H1704 0.950 . S
C1714 C1715 1.386 . S
C1714 C1716 1.391 . S
C1715 C1714 1.386 . S
C1715 C1719 1.393 . S
C1716 H1705 0.950 . S
C1716 C1714 1.391 . S
C1716 C1717 1.400 . S
C1717 C1711 1.491 . S
C1717 C1716 1.400 . S
C1717 C1718 1.398 . S
C1718 H1706 0.950 . S
C1718 C1717 1.398 . S
C1718 C1719 1.391 . S
C1719 H1707 0.950 . S
C1719 C1715 1.393 . S
C1719 C1718 1.391 . S
H1720 C1728 0.950 . S
H1721 C1733 0.950 . S
H1722 C1730 0.950 . S
H1723 C1732 0.950 . S
H1724 C1734 0.950 . S
H1725 C1736 0.950 . S
H1726 C1738 0.950 . S
H1727 C1739 0.950 . S
C1728 H1720 0.950 . S
C1728 C1729 1.386 . S
C1728 C1730 1.391 . S
C1729 C1728 1.386 . S
C1729 C1733 1.393 . S
C1730 H1722 0.950 . S
C1730 C1728 1.391 . S
C1730 C1731 1.400 . S
C1731 C1730 1.400 . S
C1731 C1732 1.398 . S
C1731 C1737 1.491 . S
C1732 H1723 0.950 . S
C1732 C1731 1.398 . S
C1732 C1733 1.391 . S
C1733 H1721 0.950 . S
C1733 C1729 1.393 . S
C1733 C1732 1.391 . S
C1734 H1724 0.950 . S
C1734 C1735 1.386 . S
C1734 C1736 1.391 . S
C1735 C1734 1.386 . S
C1735 C1739 1.393 . S
C1736 H1725 0.950 . S
C1736 C1734 1.391 . S
C1736 C1737 1.400 . S
C1737 C1731 1.491 . S
C1737 C1736 1.400 . S
C1737 C1738 1.398 . S
C1738 H1726 0.950 . S
C1738 C1737 1.398 . S
C1738 C1739 1.391 . S
C1739 H1727 0.950 . S
C1739 C1735 1.393 . S
C1739 C1738 1.391 . S
H1740 C1748 0.950 . S
H1741 C1753 0.950 . S
H1742 C1750 0.950 . S
H1743 C1752 0.950 . S
H1744 C1754 0.950 . S
H1745 C1756 0.950 . S
H1746 C1758 0.950 . S
H1747 C1759 0.950 . S
C1748 H1740 0.950 . S
C1748 C1749 1.386 . S
C1748 C1750 1.391 . S
C1749 C1748 1.386 . S
C1749 C1753 1.393 . S
C1750 H1742 0.950 . S
C1750 C1748 1.391 . S
C1750 C1751 1.400 . S
C1751 C1750 1.400 . S
C1751 C1752 1.398 . S
C1751 C1757 1.491 . S
C1752 H1743 0.950 . S
C1752 C1751 1.398 . S
C1752 C1753 1.391 . S
C1753 H1741 0.950 . S
C1753 C1749 1.393 . S
C1753 C1752 1.391 . S
C1754 H1744 0.950 . S
C1754 C1755 1.386 . S
C1754 C1756 1.391 . S
C1755 C1754 1.386 . S
C1755 C1759 1.393 . S
C1756 H1745 0.950 . S
C1756 C1754 1.391 . S
C1756 C1757 1.400 . S
C1757 C1751 1.491 . S
C1757 C1756 1.400 . S
C1757 C1758 1.398 . S
C1758 H1746 0.950 . S
C1758 C1757 1.398 . S
C1758 C1759 1.391 . S
C1759 H1747 0.950 . S
C1759 C1755 1.393 . S
C1759 C1758 1.391 . S
H1760 C1768 0.950 . S
H1761 C1773 0.950 . S
H1762 C1770 0.950 . S
H1763 C1772 0.950 . S
H1764 C1774 0.950 . S
H1765 C1776 0.950 . S
H1766 C1778 0.950 . S
H1767 C1779 0.950 . S
C1768 H1760 0.950 . S
C1768 C1769 1.386 . S
C1768 C1770 1.391 . S
C1769 C1768 1.386 . S
C1769 C1773 1.393 . S
C1770 H1762 0.950 . S
C1770 C1768 1.391 . S
C1770 C1771 1.400 . S
C1771 C1770 1.400 . S
C1771 C1772 1.398 . S
C1771 C1777 1.491 . S
C1772 H1763 0.950 . S
C1772 C1771 1.398 . S
C1772 C1773 1.391 . S
C1773 H1761 0.950 . S
C1773 C1769 1.393 . S
C1773 C1772 1.391 . S
C1774 H1764 0.950 . S
C1774 C1775 1.386 . S
C1774 C1776 1.391 . S
C1775 C1774 1.386 . S
C1775 C1779 1.393 . S
C1776 H1765 0.950 . S
C1776 C1774 1.391 . S
C1776 C1777 1.400 . S
C1777 C1771 1.491 . S
C1777 C1776 1.400 . S
C1777 C1778 1.398 . S
C1778 H1766 0.950 . S
C1778 C1777 1.398 . S
C1778 C1779 1.391 . S
C1779 H1767 0.950 . S
C1779 C1775 1.393 . S
C1779 C1778 1.391 . S
H1780 C1788 0.950 . S
H1781 C1793 0.950 . S
H1782 C1790 0.950 . S
H1783 C1792 0.950 . S
H1784 C1794 0.950 . S
H1785 C1796 0.950 . S
H1786 C1798 0.950 . S
H1787 C1799 0.950 . S
C1788 H1780 0.950 . S
C1788 C1789 1.386 . S
C1788 C1790 1.391 . S
C1789 C1788 1.386 . S
C1789 C1793 1.393 . S
C1790 H1782 0.950 . S
C1790 C1788 1.391 . S
C1790 C1791 1.400 . S
C1791 C1790 1.400 . S
C1791 C1792 1.398 . S
C1791 C1797 1.491 . S
C1792 H1783 0.950 . S
C1792 C1791 1.398 . S
C1792 C1793 1.391 . S
C1793 H1781 0.950 . S
C1793 C1789 1.393 . S
C1793 C1792 1.391 . S
C1794 H1784 0.950 . S
C1794 C1795 1.386 . S
C1794 C1796 1.391 . S
C1795 C1794 1.386 . S
C1795 C1799 1.393 . S
C1796 H1785 0.950 . S
C1796 C1794 1.391 . S
C1796 C1797 1.400 . S
C1797 C1791 1.491 . S
C1797 C1796 1.400 . S
C1797 C1798 1.398 . S
C1798 H1786 0.950 . S
C1798 C1797 1.398 . S
C1798 C1799 1.391 . S
C1799 H1787 0.950 . S
C1799 C1795 1.393 . S
C1799 C1798 1.391 . S
H1800 C1808 0.950 . S
H1801 C1813 0.950 . S
H1802 C1810 0.950 . S
H1803 C1812 0.950 . S
H1804 C1814 0.950 . S
H1805 C1816 0.950 . S
H1806 C1818 0.950 . S
H1807 C1819 0.950 . S
C1808 H1800 0.950 . S
C1808 C1809 1.386 . S
C1808 C1810 1.391 . S
C1809 C1808 1.386 . S
C1809 C1813 1.393 . S
C1810 H1802 0.950 . S
C1810 C1808 1.391 . S
C1810 C1811 1.400 . S
C1811 C1810 1.400 . S
C1811 C1812 1.398 . S
C1811 C1817 1.491 . S
C1812 H1803 0.950 . S
C1812 C1811 1.398 . S
C1812 C1813 1.391 . S
C1813 H1801 0.950 . S
C1813 C1809 1.393 . S
C1813 C1812 1.391 . S
C1814 H1804 0.950 . S
C1814 C1815 1.386 . S
C1814 C1816 1.391 . S
C1815 C1814 1.386 . S
C1815 C1819 1.393 . S
C1816 H1805 0.950 . S
C1816 C1814 1.391 . S
C1816 C1817 1.400 . S
C1817 C1811 1.491 . S
C1817 C1816 1.400 . S
C1817 C1818 1.398 . S
C1818 H1806 0.950 . S
C1818 C1817 1.398 . S
C1818 C1819 1.391 . S
C1819 H1807 0.950 . S
C1819 C1815 1.393 . S
C1819 C1818 1.391 . S
H1820 C1828 0.950 . S
H1821 C1833 0.950 . S
H1822 C1830 0.950 . S
H1823 C1832 0.950 . S
H1824 C1834 0.950 . S
H1825 C1836 0.950 . S
H1826 C1838 0.950 . S
H1827 C1839 0.950 . S
C1828 H1820 0.950 . S
C1828 C1829 1.386 . S
C1828 C1830 1.391 . S
C1829 C1828 1.386 . S
C1829 C1833 1.393 . S
C1830 H1822 0.950 . S
C1830 C1828 1.391 . S
C1830 C1831 1.400 . S
C1831 C1830 1.400 . S
C1831 C1832 1.398 . S
C1831 C1837 1.491 . S
C1832 H1823 0.950 . S
C1832 C1831 1.398 . S
C1832 C1833 1.391 . S
C1833 H1821 0.950 . S
C1833 C1829 1.393 . S
C1833 C1832 1.391 . S
C1834 H1824 0.950 . S
C1834 C1835 1.386 . S
C1834 C1836 1.391 . S
C1835 C1834 1.386 . S
C1835 C1839 1.393 . S
C1836 H1825 0.950 . S
C1836 C1834 1.391 . S
C1836 C1837 1.400 . S
C1837 C1831 1.491 . S
C1837 C1836 1.400 . S
C1837 C1838 1.398 . S
C1838 H1826 0.950 . S
C1838 C1837 1.398 . S
C1838 C1839 1.391 . S
C1839 H1827 0.950 . S
C1839 C1835 1.393 . S
C1839 C1838 1.391 . S
H1840 C1848 0.950 . S
H1841 C1853 0.950 . S
H1842 C1850 0.961 . S
H1843 C1852 0.950 . S
H1844 C1854 0.950 . S
H1845 C1856 0.950 1_655 S
H1846 C1858 0.950 . S
H1847 C1859 0.950 . S
C1848 H1840 0.950 . S
C1848 C1849 1.386 . S
C1848 C1850 1.384 1_655 S
C1849 C1848 1.386 . S
C1849 C1853 1.393 . S
C1850 H1842 0.961 . S
C1850 C1848 1.384 1_455 S
C1850 C1851 1.397 1_455 S
C1851 C1850 1.397 1_655 S
C1851 C1852 1.398 . S
C1851 C1857 1.491 1_655 S
C1852 H1843 0.950 . S
C1852 C1851 1.398 . S
C1852 C1853 1.391 . S
C1853 H1841 0.950 . S
C1853 C1849 1.393 . S
C1853 C1852 1.391 . S
C1854 H1844 0.950 . S
C1854 C1855 1.386 . S
C1854 C1856 1.391 . S
C1855 C1854 1.386 . S
C1855 C1859 1.393 . S
C1856 H1845 0.950 1_455 S
C1856 C1854 1.391 . S
C1856 C1857 1.400 . S
C1857 C1851 1.491 1_455 S
C1857 C1856 1.400 . S
C1857 C1858 1.398 . S
C1858 H1846 0.950 . S
C1858 C1857 1.398 . S
C1858 C1859 1.391 . S
C1859 H1847 0.950 . S
C1859 C1855 1.393 . S
C1859 C1858 1.391 . S
H1860 C1868 0.950 . S
H1861 C1873 0.950 . S
H1862 C1870 0.950 . S
H1863 C1872 0.950 . S
H1864 C1874 0.950 . S
H1865 C1876 0.950 . S
H1866 C1878 0.950 . S
H1867 C1879 0.950 . S
C1868 H1860 0.950 . S
C1868 C1869 1.386 . S
C1868 C1870 1.391 . S
C1869 C1868 1.386 . S
C1869 C1873 1.393 . S
C1870 H1862 0.950 . S
C1870 C1868 1.391 . S
C1870 C1871 1.400 . S
C1871 C1870 1.400 . S
C1871 C1872 1.398 . S
C1871 C1877 1.491 . S
C1872 H1863 0.950 . S
C1872 C1871 1.398 . S
C1872 C1873 1.391 . S
C1873 H1861 0.950 . S
C1873 C1869 1.393 . S
C1873 C1872 1.391 . S
C1874 H1864 0.950 . S
C1874 C1875 1.386 . S
C1874 C1876 1.391 . S
C1875 C1874 1.386 . S
C1875 C1879 1.393 . S
C1876 H1865 0.950 . S
C1876 C1874 1.391 . S
C1876 C1877 1.400 . S
C1877 C1871 1.491 . S
C1877 C1876 1.400 . S
C1877 C1878 1.398 . S
C1878 H1866 0.950 . S
C1878 C1877 1.398 . S
C1878 C1879 1.391 . S
C1879 H1867 0.950 . S
C1879 C1875 1.393 . S
C1879 C1878 1.391 . S
H1880 C1888 0.950 . S
H1881 C1893 0.950 . S
H1882 C1890 0.950 . S
H1883 C1892 0.950 . S
H1884 C1894 0.950 . S
H1885 C1896 0.950 . S
H1886 C1898 0.950 . S
H1887 C1899 0.950 . S
C1888 H1880 0.950 . S
C1888 C1889 1.386 . S
C1888 C1890 1.391 . S
C1889 C1888 1.386 . S
C1889 C1893 1.393 . S
C1890 H1882 0.950 . S
C1890 C1888 1.391 . S
C1890 C1891 1.400 . S
C1891 C1890 1.400 . S
C1891 C1892 1.398 . S
C1891 C1897 1.491 . S
C1892 H1883 0.950 . S
C1892 C1891 1.398 . S
C1892 C1893 1.391 . S
C1893 H1881 0.950 . S
C1893 C1889 1.393 . S
C1893 C1892 1.391 . S
C1894 H1884 0.950 . S
C1894 C1895 1.386 . S
C1894 C1896 1.391 . S
C1895 C1894 1.386 . S
C1895 C1899 1.393 . S
C1896 H1885 0.950 . S
C1896 C1894 1.391 . S
C1896 C1897 1.400 . S
C1897 C1891 1.491 . S
C1897 C1896 1.400 . S
C1897 C1898 1.398 . S
C1898 H1886 0.950 . S
C1898 C1897 1.398 . S
C1898 C1899 1.391 . S
C1899 H1887 0.950 . S
C1899 C1895 1.393 . S
C1899 C1898 1.391 . S
H1900 C1908 0.950 . S
H1901 C1913 0.950 . S
H1902 C1910 0.950 . S
H1903 C1912 0.950 . S
H1904 C1914 0.950 . S
H1905 C1916 0.950 . S
H1906 C1918 0.950 . S
H1907 C1919 0.950 . S
C1908 H1900 0.950 . S
C1908 C1909 1.386 . S
C1908 C1910 1.391 . S
C1909 C1908 1.386 . S
C1909 C1913 1.393 . S
C1910 H1902 0.950 . S
C1910 C1908 1.391 . S
C1910 C1911 1.400 . S
C1911 C1910 1.400 . S
C1911 C1912 1.398 . S
C1911 C1917 1.491 . S
C1912 H1903 0.950 . S
C1912 C1911 1.398 . S
C1912 C1913 1.391 . S
C1913 H1901 0.950 . S
C1913 C1909 1.393 . S
C1913 C1912 1.391 . S
C1914 H1904 0.950 . S
C1914 C1915 1.386 . S
C1914 C1916 1.391 . S
C1915 C1914 1.386 . S
C1915 C1919 1.393 . S
C1916 H1905 0.950 . S
C1916 C1914 1.391 . S
C1916 C1917 1.400 . S
C1917 C1911 1.491 . S
C1917 C1916 1.400 . S
C1917 C1918 1.398 . S
C1918 H1906 0.950 . S
C1918 C1917 1.398 . S
C1918 C1919 1.391 . S
C1919 H1907 0.950 . S
C1919 C1915 1.393 . S
C1919 C1918 1.391 . S
H1920 C1928 0.950 . S
H1921 C1933 0.950 . S
H1922 C1930 0.950 . S
H1923 C1932 0.950 . S
H1924 C1934 0.950 . S
H1925 C1936 0.950 1_655 S
H1926 C1938 0.950 . S
H1927 C1939 0.950 . S
C1928 H1920 0.950 . S
C1928 C1929 1.386 1_455 S
C1928 C1930 1.391 . S
C1929 C1928 1.386 1_655 S
C1929 C1933 1.393 . S
C1930 H1922 0.950 . S
C1930 C1928 1.391 . S
C1930 C1931 1.400 . S
C1931 C1930 1.400 . S
C1931 C1932 1.398 1_455 S
C1931 C1937 1.491 . S
C1932 H1923 0.950 . S
C1932 C1931 1.398 1_655 S
C1932 C1933 1.391 . S
C1933 H1921 0.950 . S
C1933 C1929 1.393 . S
C1933 C1932 1.391 . S
C1934 H1924 0.950 . S
C1934 C1935 1.386 . S
C1934 C1936 1.391 . S
C1935 C1934 1.386 . S
C1935 C1939 1.393 . S
C1936 H1925 0.950 1_455 S
C1936 C1934 1.391 . S
C1936 C1937 1.400 . S
C1937 C1931 1.491 . S
C1937 C1936 1.400 . S
C1937 C1938 1.398 . S
C1938 H1926 0.950 . S
C1938 C1937 1.398 . S
C1938 C1939 1.391 . S
C1939 H1927 0.950 . S
C1939 C1935 1.393 . S
C1939 C1938 1.391 . S
H1940 C1948 0.950 . S
H1941 C1953 0.950 . S
H1942 C1950 0.950 . S
H1943 C1952 0.950 . S
H1944 C1954 0.950 . S
H1945 C1956 0.950 . S
H1946 C1958 0.950 . S
H1947 C1959 0.950 . S
C1948 H1940 0.950 . S
C1948 C1949 1.386 . S
C1948 C1950 1.391 . S
C1949 C1948 1.386 . S
C1949 C1953 1.393 . S
C1950 H1942 0.950 . S
C1950 C1948 1.391 . S
C1950 C1951 1.400 . S
C1951 C1950 1.400 . S
C1951 C1952 1.398 . S
C1951 C1957 1.491 . S
C1952 H1943 0.950 . S
C1952 C1951 1.398 . S
C1952 C1953 1.391 . S
C1953 H1941 0.950 . S
C1953 C1949 1.393 . S
C1953 C1952 1.391 . S
C1954 H1944 0.950 . S
C1954 C1955 1.386 . S
C1954 C1956 1.391 . S
C1955 C1954 1.386 . S
C1955 C1959 1.393 . S
C1956 H1945 0.950 . S
C1956 C1954 1.391 . S
C1956 C1957 1.400 . S
C1957 C1951 1.491 . S
C1957 C1956 1.400 . S
C1957 C1958 1.398 . S
C1958 H1946 0.950 . S
C1958 C1957 1.398 . S
C1958 C1959 1.391 . S
C1959 H1947 0.950 . S
C1959 C1955 1.393 . S
C1959 C1958 1.391 . S
H1960 C1968 0.950 . S
H1961 C1973 0.950 . S
H1962 C1970 0.950 . S
H1963 C1972 0.950 . S
H1964 C1974 0.950 . S
H1965 C1976 0.950 . S
H1966 C1978 0.950 . S
H1967 C1979 0.950 . S
C1968 H1960 0.950 . S
C1968 C1969 1.386 . S
C1968 C1970 1.391 . S
C1969 C1968 1.386 . S
C1969 C1973 1.393 . S
C1970 H1962 0.950 . S
C1970 C1968 1.391 . S
C1970 C1971 1.400 . S
C1971 C1970 1.400 . S
C1971 C1972 1.398 . S
C1971 C1977 1.491 . S
C1972 H1963 0.950 . S
C1972 C1971 1.398 . S
C1972 C1973 1.391 . S
C1973 H1961 0.950 . S
C1973 C1969 1.393 . S
C1973 C1972 1.391 . S
C1974 H1964 0.950 . S
C1974 C1975 1.386 . S
C1974 C1976 1.391 . S
C1975 C1974 1.386 . S
C1975 C1979 1.393 . S
C1976 H1965 0.950 . S
C1976 C1974 1.391 . S
C1976 C1977 1.400 . S
C1977 C1971 1.491 . S
C1977 C1976 1.400 . S
C1977 C1978 1.398 . S
C1978 H1966 0.950 . S
C1978 C1977 1.398 . S
C1978 C1979 1.391 . S
C1979 H1967 0.950 . S
C1979 C1975 1.393 . S
C1979 C1978 1.391 . S
H1980 C1988 0.950 . S
H1981 C1993 0.950 . S
H1982 C1990 0.950 . S
H1983 C1992 0.950 . S
H1984 C1994 0.950 . S
H1985 C1996 0.950 . S
H1986 C1998 0.950 . S
H1987 C1999 0.950 . S
C1988 H1980 0.950 . S
C1988 C1989 1.386 . S
C1988 C1990 1.391 . S
C1989 C1988 1.386 . S
C1989 C1993 1.393 . S
C1990 H1982 0.950 . S
C1990 C1988 1.391 . S
C1990 C1991 1.400 . S
C1991 C1990 1.400 . S
C1991 C1992 1.398 . S
C1991 C1997 1.491 . S
C1992 H1983 0.950 . S
C1992 C1991 1.398 . S
C1992 C1993 1.391 . S
C1993 H1981 0.950 . S
C1993 C1989 1.393 . S
C1993 C1992 1.391 . S
C1994 H1984 0.950 . S
C1994 C1995 1.386 . S
C1994 C1996 1.391 . S
C1995 C1994 1.386 . S
C1995 C1999 1.393 . S
C1996 H1985 0.950 . S
C1996 C1994 1.391 . S
C1996 C1997 1.400 . S
C1997 C1991 1.491 . S
C1997 C1996 1.400 . S
C1997 C1998 1.398 . S
C1998 H1986 0.950 . S
C1998 C1997 1.398 . S
C1998 C1999 1.391 . S
C1999 H1987 0.950 . S
C1999 C1995 1.393 . S
C1999 C1998 1.391 . S
H2000 C2008 0.950 . S
H2001 C2013 0.946 1_556 S
H2002 C2010 0.950 1_545 S
H2003 C2012 0.950 . S
H2004 C2014 0.950 . S
H2005 C2016 0.950 . S
H2006 C2018 0.950 . S
H2007 C2019 0.950 . S
C2008 H2000 0.950 . S
C2008 C2009 1.386 . S
C2008 C2010 1.391 . S
C2009 C2008 1.386 . S
C2009 C2013 1.393 . S
C2010 H2002 0.950 1_565 S
C2010 C2008 1.391 . S
C2010 C2011 1.400 . S
C2011 C2010 1.400 . S
C2011 C2012 1.398 . S
C2011 C2017 1.491 . S
C2012 H2003 0.950 . S
C2012 C2011 1.398 . S
C2012 C2013 1.391 . S
C2013 H2001 0.946 1_554 S
C2013 C2009 1.393 . S
C2013 C2012 1.391 . S
C2014 H2004 0.950 . S
C2014 C2015 1.386 1_565 S
C2014 C2016 1.391 . S
C2015 C2014 1.386 1_545 S
C2015 C2019 1.393 . S
C2016 H2005 0.950 . S
C2016 C2014 1.391 . S
C2016 C2017 1.400 . S
C2017 C2011 1.491 . S
C2017 C2016 1.400 . S
C2017 C2018 1.398 1_565 S
C2018 H2006 0.950 . S
C2018 C2017 1.398 1_545 S
C2018 C2019 1.391 . S
C2019 H2007 0.950 . S
C2019 C2015 1.393 . S
C2019 C2018 1.391 . S
H2020 C2028 0.950 . S
H2021 C2033 0.950 . S
H2022 C2030 0.950 . S
H2023 C2032 0.950 . S
H2024 C2034 0.950 . S
H2025 C2036 0.950 . S
H2026 C2038 0.950 . S
H2027 C2039 0.950 . S
C2028 H2020 0.950 . S
C2028 C2029 1.386 1_554 S
C2028 C2030 1.391 . S
C2029 C2028 1.386 1_556 S
C2029 C2033 1.393 . S
C2030 H2022 0.950 . S
C2030 C2028 1.391 . S
C2030 C2031 1.400 1_554 S
C2031 C2030 1.400 1_556 S
C2031 C2032 1.398 . S
C2031 C2037 1.491 . S
C2032 H2023 0.950 . S
C2032 C2031 1.398 . S
C2032 C2033 1.391 . S
C2033 H2021 0.950 . S
C2033 C2029 1.393 . S
C2033 C2032 1.391 . S
C2034 H2024 0.950 . S
C2034 C2035 1.382 . S
C2034 C2036 1.391 . S
C2035 C2034 1.382 . S
C2035 C2039 1.395 1_556 S
C2036 H2025 0.950 . S
C2036 C2034 1.391 . S
C2036 C2037 1.400 . S
C2037 C2031 1.491 . S
C2037 C2036 1.400 . S
C2037 C2038 1.398 1_556 S
C2038 H2026 0.950 . S
C2038 C2037 1.398 1_554 S
C2038 C2039 1.391 . S
C2039 H2027 0.950 . S
C2039 C2035 1.395 1_554 S
C2039 C2038 1.391 . S
H2040 C2048 0.950 . S
H2041 C2053 0.950 . S
H2042 C2050 0.950 . S
H2043 C2052 0.950 . S
H2044 C2054 0.950 . S
H2045 C2056 0.950 . S
H2046 C2058 0.950 . S
H2047 C2059 0.950 . S
C2048 H2040 0.950 . S
C2048 C2049 1.386 . S
C2048 C2050 1.391 . S
C2049 C2048 1.386 . S
C2049 C2053 1.393 . S
C2050 H2042 0.950 . S
C2050 C2048 1.391 . S
C2050 C2051 1.400 . S
C2051 C2050 1.400 . S
C2051 C2052 1.398 . S
C2051 C2057 1.491 . S
C2052 H2043 0.950 . S
C2052 C2051 1.398 . S
C2052 C2053 1.391 . S
C2053 H2041 0.950 . S
C2053 C2049 1.393 . S
C2053 C2052 1.391 . S
C2054 H2044 0.950 . S
C2054 C2055 1.386 . S
C2054 C2056 1.391 . S
C2055 C2054 1.386 . S
C2055 C2059 1.393 . S
C2056 H2045 0.950 . S
C2056 C2054 1.391 . S
C2056 C2057 1.400 . S
C2057 C2051 1.491 . S
C2057 C2056 1.400 . S
C2057 C2058 1.398 . S
C2058 H2046 0.950 . S
C2058 C2057 1.398 . S
C2058 C2059 1.391 . S
C2059 H2047 0.950 . S
C2059 C2055 1.393 . S
C2059 C2058 1.391 . S
H2060 C2068 0.950 . S
H2061 C2073 0.950 . S
H2062 C2070 0.950 . S
H2063 C2072 0.950 . S
H2064 C2074 0.950 . S
H2065 C2076 0.950 . S
H2066 C2078 0.950 . S
H2067 C2079 0.965 . S
C2068 H2060 0.950 . S
C2068 C2069 1.386 . S
C2068 C2070 1.391 . S
C2069 C2068 1.386 . S
C2069 C2073 1.393 . S
C2070 H2062 0.950 . S
C2070 C2068 1.391 . S
C2070 C2071 1.400 . S
C2071 C2070 1.400 . S
C2071 C2072 1.398 . S
C2071 C2077 1.491 . S
C2072 H2063 0.950 . S
C2072 C2071 1.398 . S
C2072 C2073 1.391 . S
C2073 H2061 0.950 . S
C2073 C2069 1.393 . S
C2073 C2072 1.391 . S
C2074 H2064 0.950 . S
C2074 C2075 1.386 . S
C2074 C2076 1.391 1_455 S
C2075 C2074 1.386 . S
C2075 C2079 1.393 1_455 S
C2076 H2065 0.950 . S
C2076 C2074 1.391 1_655 S
C2076 C2077 1.400 . S
C2077 C2071 1.491 . S
C2077 C2076 1.400 . S
C2077 C2078 1.398 . S
C2078 H2066 0.950 . S
C2078 C2077 1.398 . S
C2078 C2079 1.391 . S
C2079 H2067 0.965 . S
C2079 C2075 1.393 1_655 S
C2079 C2078 1.391 . S
H2080 C2088 0.950 . S
H2081 C2093 0.950 . S
H2082 C2090 0.950 . S
H2083 C2092 0.950 . S
H2084 C2094 0.950 . S
H2085 C2096 0.950 . S
H2086 C2098 0.950 . S
H2087 C2099 0.950 . S
C2088 H2080 0.950 . S
C2088 C2089 1.386 . S
C2088 C2090 1.391 . S
C2089 C2088 1.386 . S
C2089 C2093 1.393 . S
C2090 H2082 0.950 . S
C2090 C2088 1.391 . S
C2090 C2091 1.400 . S
C2091 C2090 1.400 . S
C2091 C2092 1.398 . S
C2091 C2097 1.491 . S
C2092 H2083 0.950 . S
C2092 C2091 1.398 . S
C2092 C2093 1.391 . S
C2093 H2081 0.950 . S
C2093 C2089 1.393 . S
C2093 C2092 1.391 . S
C2094 H2084 0.950 . S
C2094 C2095 1.386 . S
C2094 C2096 1.391 . S
C2095 C2094 1.386 . S
C2095 C2099 1.393 . S
C2096 H2085 0.950 . S
C2096 C2094 1.391 . S
C2096 C2097 1.400 . S
C2097 C2091 1.491 . S
C2097 C2096 1.400 . S
C2097 C2098 1.398 . S
C2098 H2086 0.950 . S
C2098 C2097 1.398 . S
C2098 C2099 1.391 . S
C2099 H2087 0.950 . S
C2099 C2095 1.393 . S
C2099 C2098 1.391 . S
H2100 C2108 0.950 . S
H2101 C2113 0.950 . S
H2102 C2110 0.950 . S
H2103 C2112 0.950 . S
H2104 C2114 0.950 . S
H2105 C2116 0.950 . S
H2106 C2118 0.950 . S
H2107 C2119 0.950 . S
C2108 H2100 0.950 . S
C2108 C2109 1.386 . S
C2108 C2110 1.391 . S
C2109 C2108 1.386 . S
C2109 C2113 1.393 . S
C2110 H2102 0.950 . S
C2110 C2108 1.391 . S
C2110 C2111 1.400 . S
C2111 C2110 1.400 . S
C2111 C2112 1.398 . S
C2111 C2117 1.491 . S
C2112 H2103 0.950 . S
C2112 C2111 1.398 . S
C2112 C2113 1.391 . S
C2113 H2101 0.950 . S
C2113 C2109 1.393 . S
C2113 C2112 1.391 . S
C2114 H2104 0.950 . S
C2114 C2115 1.386 . S
C2114 C2116 1.391 . S
C2115 C2114 1.386 . S
C2115 C2119 1.393 . S
C2116 H2105 0.950 . S
C2116 C2114 1.391 . S
C2116 C2117 1.400 . S
C2117 C2111 1.491 . S
C2117 C2116 1.400 . S
C2117 C2118 1.398 . S
C2118 H2106 0.950 . S
C2118 C2117 1.398 . S
C2118 C2119 1.391 . S
C2119 H2107 0.950 . S
C2119 C2115 1.393 . S
C2119 C2118 1.391 . S
H2120 C2128 0.950 . S
H2121 C2133 0.950 . S
H2122 C2130 0.950 . S
H2123 C2132 0.950 . S
H2124 C2134 0.950 . S
H2125 C2136 0.950 . S
H2126 C2138 0.950 . S
H2127 C2139 0.950 . S
C2128 H2120 0.950 . S
C2128 C2129 1.386 . S
C2128 C2130 1.391 . S
C2129 C2128 1.386 . S
C2129 C2133 1.393 . S
C2130 H2122 0.950 . S
C2130 C2128 1.391 . S
C2130 C2131 1.400 . S
C2131 C2130 1.400 . S
C2131 C2132 1.398 . S
C2131 C2137 1.491 . S
C2132 H2123 0.950 . S
C2132 C2131 1.398 . S
C2132 C2133 1.391 . S
C2133 H2121 0.950 . S
C2133 C2129 1.393 . S
C2133 C2132 1.391 . S
C2134 H2124 0.950 . S
C2134 C2135 1.386 . S
C2134 C2136 1.391 . S
C2135 C2134 1.386 . S
C2135 C2139 1.393 . S
C2136 H2125 0.950 . S
C2136 C2134 1.391 . S
C2136 C2137 1.400 . S
C2137 C2131 1.491 . S
C2137 C2136 1.400 . S
C2137 C2138 1.398 . S
C2138 H2126 0.950 . S
C2138 C2137 1.398 . S
C2138 C2139 1.391 . S
C2139 H2127 0.950 . S
C2139 C2135 1.393 . S
C2139 C2138 1.391 . S
H2140 C2148 0.950 . S
H2141 C2153 0.950 . S
H2142 C2150 0.950 . S
H2143 C2152 0.950 . S
H2144 C2154 0.950 . S
H2145 C2156 0.950 . S
H2146 C2158 0.950 . S
H2147 C2159 0.950 . S
C2148 H2140 0.950 . S
C2148 C2149 1.386 . S
C2148 C2150 1.391 . S
C2149 C2148 1.386 . S
C2149 C2153 1.393 . S
C2150 H2142 0.950 . S
C2150 C2148 1.391 . S
C2150 C2151 1.400 . S
C2151 C2150 1.400 . S
C2151 C2152 1.398 . S
C2151 C2157 1.491 . S
C2152 H2143 0.950 . S
C2152 C2151 1.398 . S
C2152 C2153 1.391 . S
C2153 H2141 0.950 . S
C2153 C2149 1.393 . S
C2153 C2152 1.391 . S
C2154 H2144 0.950 . S
C2154 C2155 1.386 . S
C2154 C2156 1.391 . S
C2155 C2154 1.386 . S
C2155 C2159 1.393 . S
C2156 H2145 0.950 . S
C2156 C2154 1.391 . S
C2156 C2157 1.400 . S
C2157 C2151 1.491 . S
C2157 C2156 1.400 . S
C2157 C2158 1.398 . S
C2158 H2146 0.950 . S
C2158 C2157 1.398 . S
C2158 C2159 1.391 . S
C2159 H2147 0.950 . S
C2159 C2155 1.393 . S
C2159 C2158 1.391 . S
H2160 C2168 0.950 . S
H2161 C2173 0.950 . S
H2162 C2170 0.950 . S
H2163 C2172 0.950 . S
H2164 C2174 0.950 . S
H2165 C2176 0.950 . S
H2166 C2178 0.950 . S
H2167 C2179 0.950 . S
C2168 H2160 0.950 . S
C2168 C2169 1.386 . S
C2168 C2170 1.391 . S
C2169 C2168 1.386 . S
C2169 C2173 1.393 . S
C2170 H2162 0.950 . S
C2170 C2168 1.391 . S
C2170 C2171 1.400 . S
C2171 C2170 1.400 . S
C2171 C2172 1.398 . S
C2171 C2177 1.491 . S
C2172 H2163 0.950 . S
C2172 C2171 1.398 . S
C2172 C2173 1.391 . S
C2173 H2161 0.950 . S
C2173 C2169 1.393 . S
C2173 C2172 1.391 . S
C2174 H2164 0.950 . S
C2174 C2175 1.386 . S
C2174 C2176 1.391 . S
C2175 C2174 1.386 . S
C2175 C2179 1.393 . S
C2176 H2165 0.950 . S
C2176 C2174 1.391 . S
C2176 C2177 1.400 . S
C2177 C2171 1.491 . S
C2177 C2176 1.400 . S
C2177 C2178 1.398 . S
C2178 H2166 0.950 . S
C2178 C2177 1.398 . S
C2178 C2179 1.391 . S
C2179 H2167 0.950 . S
C2179 C2175 1.393 . S
C2179 C2178 1.391 . S
H2180 C2188 0.950 . S
H2181 C2193 0.950 . S
H2182 C2190 0.950 . S
H2183 C2192 0.950 . S
H2184 C2194 0.950 . S
H2185 C2196 0.950 . S
H2186 C2198 0.950 . S
H2187 C2199 0.950 . S
C2188 H2180 0.950 . S
C2188 C2189 1.386 . S
C2188 C2190 1.391 . S
C2189 C2188 1.386 . S
C2189 C2193 1.393 . S
C2190 H2182 0.950 . S
C2190 C2188 1.391 . S
C2190 C2191 1.400 . S
C2191 C2190 1.400 . S
C2191 C2192 1.398 . S
C2191 C2197 1.491 . S
C2192 H2183 0.950 . S
C2192 C2191 1.398 . S
C2192 C2193 1.391 . S
C2193 H2181 0.950 . S
C2193 C2189 1.393 . S
C2193 C2192 1.391 . S
C2194 H2184 0.950 . S
C2194 C2195 1.386 . S
C2194 C2196 1.391 . S
C2195 C2194 1.386 . S
C2195 C2199 1.393 . S
C2196 H2185 0.950 . S
C2196 C2194 1.391 . S
C2196 C2197 1.400 . S
C2197 C2191 1.491 . S
C2197 C2196 1.400 . S
C2197 C2198 1.398 . S
C2198 H2186 0.950 . S
C2198 C2197 1.398 . S
C2198 C2199 1.391 . S
C2199 H2187 0.950 . S
C2199 C2195 1.393 . S
C2199 C2198 1.391 . S
H2200 C2208 0.950 . S
H2201 C2213 0.950 . S
H2202 C2210 0.950 . S
H2203 C2212 0.950 . S
H2204 C2214 0.950 . S
H2205 C2216 0.950 . S
H2206 C2218 0.950 . S
H2207 C2219 0.950 . S
C2208 H2200 0.950 . S
C2208 C2209 1.386 . S
C2208 C2210 1.391 . S
C2209 C2208 1.386 . S
C2209 C2213 1.393 . S
C2210 H2202 0.950 . S
C2210 C2208 1.391 . S
C2210 C2211 1.400 . S
C2211 C2210 1.400 . S
C2211 C2212 1.398 . S
C2211 C2217 1.491 . S
C2212 H2203 0.950 . S
C2212 C2211 1.398 . S
C2212 C2213 1.391 . S
C2213 H2201 0.950 . S
C2213 C2209 1.393 . S
C2213 C2212 1.391 . S
C2214 H2204 0.950 . S
C2214 C2215 1.386 . S
C2214 C2216 1.391 . S
C2215 C2214 1.386 . S
C2215 C2219 1.393 . S
C2216 H2205 0.950 . S
C2216 C2214 1.391 . S
C2216 C2217 1.400 . S
C2217 C2211 1.491 . S
C2217 C2216 1.400 . S
C2217 C2218 1.398 . S
C2218 H2206 0.950 . S
C2218 C2217 1.398 . S
C2218 C2219 1.391 . S
C2219 H2207 0.950 . S
C2219 C2215 1.393 . S
C2219 C2218 1.391 . S
H2220 C2228 0.950 . S
H2221 C2233 0.950 . S
H2222 C2230 0.950 . S
H2223 C2232 0.950 . S
H2224 C2234 0.950 . S
H2225 C2236 0.950 . S
H2226 C2238 0.950 . S
H2227 C2239 0.950 . S
C2228 H2220 0.950 . S
C2228 C2229 1.386 . S
C2228 C2230 1.391 . S
C2229 C2228 1.386 . S
C2229 C2233 1.393 . S
C2230 H2222 0.950 . S
C2230 C2228 1.391 . S
C2230 C2231 1.400 . S
C2231 C2230 1.400 . S
C2231 C2232 1.398 . S
C2231 C2237 1.491 . S
C2232 H2223 0.950 . S
C2232 C2231 1.398 . S
C2232 C2233 1.391 . S
C2233 H2221 0.950 . S
C2233 C2229 1.393 . S
C2233 C2232 1.391 . S
C2234 H2224 0.950 . S
C2234 C2235 1.386 . S
C2234 C2236 1.391 . S
C2235 C2234 1.386 . S
C2235 C2239 1.393 . S
C2236 H2225 0.950 . S
C2236 C2234 1.391 . S
C2236 C2237 1.400 . S
C2237 C2231 1.491 . S
C2237 C2236 1.400 . S
C2237 C2238 1.398 . S
C2238 H2226 0.950 . S
C2238 C2237 1.398 . S
C2238 C2239 1.391 . S
C2239 H2227 0.950 . S
C2239 C2235 1.393 . S
C2239 C2238 1.391 . S
H2240 C2248 0.950 . S
H2241 C2253 0.950 . S
H2242 C2250 0.950 . S
H2243 C2252 0.950 . S
H2244 C2254 0.950 . S
H2245 C2256 0.950 . S
H2246 C2258 0.950 . S
H2247 C2259 0.950 . S
C2248 H2240 0.950 . S
C2248 C2249 1.386 . S
C2248 C2250 1.391 . S
C2249 C2248 1.386 . S
C2249 C2253 1.393 . S
C2250 H2242 0.950 . S
C2250 C2248 1.391 . S
C2250 C2251 1.400 . S
C2251 C2250 1.400 . S
C2251 C2252 1.398 . S
C2251 C2257 1.491 . S
C2252 H2243 0.950 . S
C2252 C2251 1.398 . S
C2252 C2253 1.391 . S
C2253 H2241 0.950 . S
C2253 C2249 1.393 . S
C2253 C2252 1.391 . S
C2254 H2244 0.950 . S
C2254 C2255 1.386 . S
C2254 C2256 1.391 . S
C2255 C2254 1.386 . S
C2255 C2259 1.393 . S
C2256 H2245 0.950 . S
C2256 C2254 1.391 . S
C2256 C2257 1.400 . S
C2257 C2251 1.491 . S
C2257 C2256 1.400 . S
C2257 C2258 1.398 . S
C2258 H2246 0.950 . S
C2258 C2257 1.398 . S
C2258 C2259 1.391 . S
C2259 H2247 0.950 . S
C2259 C2255 1.393 . S
C2259 C2258 1.391 . S
H2260 C2268 0.950 . S
H2261 C2273 0.950 . S
H2262 C2270 0.950 . S
H2263 C2272 0.950 . S
H2264 C2274 0.950 . S
H2265 C2276 0.950 . S
H2266 C2278 0.950 . S
H2267 C2279 0.950 . S
C2268 H2260 0.950 . S
C2268 C2269 1.386 . S
C2268 C2270 1.391 . S
C2269 C2268 1.386 . S
C2269 C2273 1.393 . S
C2270 H2262 0.950 . S
C2270 C2268 1.391 . S
C2270 C2271 1.400 . S
C2271 C2270 1.400 . S
C2271 C2272 1.398 . S
C2271 C2277 1.491 . S
C2272 H2263 0.950 . S
C2272 C2271 1.398 . S
C2272 C2273 1.391 . S
C2273 H2261 0.950 . S
C2273 C2269 1.393 . S
C2273 C2272 1.391 . S
C2274 H2264 0.950 . S
C2274 C2275 1.386 . S
C2274 C2276 1.391 . S
C2275 C2274 1.386 . S
C2275 C2279 1.393 . S
C2276 H2265 0.950 . S
C2276 C2274 1.391 . S
C2276 C2277 1.400 . S
C2277 C2271 1.491 . S
C2277 C2276 1.400 . S
C2277 C2278 1.398 . S
C2278 H2266 0.950 . S
C2278 C2277 1.398 . S
C2278 C2279 1.391 . S
C2279 H2267 0.950 . S
C2279 C2275 1.393 . S
C2279 C2278 1.391 . S
H2280 C2288 0.950 . S
H2281 C2293 0.950 . S
H2282 C2290 0.950 . S
H2283 C2292 0.950 . S
H2284 C2294 0.950 1_545 S
H2285 C2296 0.950 . S
H2286 C2298 0.950 . S
H2287 C2299 0.950 . S
C2288 H2280 0.950 . S
C2288 C2289 1.386 . S
C2288 C2290 1.391 . S
C2289 C2288 1.386 . S
C2289 C2293 1.393 . S
C2290 H2282 0.950 . S
C2290 C2288 1.391 . S
C2290 C2291 1.400 . S
C2291 C2290 1.400 . S
C2291 C2292 1.398 . S
C2291 C2297 1.491 . S
C2292 H2283 0.950 . S
C2292 C2291 1.398 . S
C2292 C2293 1.391 . S
C2293 H2281 0.950 . S
C2293 C2289 1.393 . S
C2293 C2292 1.391 . S
C2294 H2284 0.950 1_565 S
C2294 C2295 1.386 . S
C2294 C2296 1.391 . S
C2295 C2294 1.386 . S
C2295 C2299 1.393 . S
C2296 H2285 0.950 . S
C2296 C2294 1.391 . S
C2296 C2297 1.400 . S
C2297 C2291 1.491 . S
C2297 C2296 1.400 . S
C2297 C2298 1.398 . S
C2298 H2286 0.950 . S
C2298 C2297 1.398 . S
C2298 C2299 1.391 . S
C2299 H2287 0.950 . S
C2299 C2295 1.393 . S
C2299 C2298 1.391 . S
H2300 C2308 0.950 . S
H2301 C2313 0.950 . S
H2302 C2310 0.950 . S
H2303 C2312 0.950 . S
H2304 C2314 0.950 . S
H2305 C2316 0.950 . S
H2306 C2318 0.950 . S
H2307 C2319 0.950 . S
C2308 H2300 0.950 . S
C2308 C2309 1.386 . S
C2308 C2310 1.391 . S
C2309 C2308 1.386 . S
C2309 C2313 1.393 . S
C2310 H2302 0.950 . S
C2310 C2308 1.391 . S
C2310 C2311 1.400 . S
C2311 C2310 1.400 . S
C2311 C2312 1.398 . S
C2311 C2317 1.491 . S
C2312 H2303 0.950 . S
C2312 C2311 1.398 . S
C2312 C2313 1.391 . S
C2313 H2301 0.950 . S
C2313 C2309 1.393 . S
C2313 C2312 1.391 . S
C2314 H2304 0.950 . S
C2314 C2315 1.386 . S
C2314 C2316 1.391 . S
C2315 C2314 1.386 . S
C2315 C2319 1.393 . S
C2316 H2305 0.950 . S
C2316 C2314 1.391 . S
C2316 C2317 1.400 . S
C2317 C2311 1.491 . S
C2317 C2316 1.400 . S
C2317 C2318 1.398 . S
C2318 H2306 0.950 . S
C2318 C2317 1.398 . S
C2318 C2319 1.391 . S
C2319 H2307 0.950 . S
C2319 C2315 1.393 . S
C2319 C2318 1.391 . S
H2320 C2328 0.950 . S
H2321 C2333 0.957 . S
H2322 C2330 0.950 . S
H2323 C2332 0.950 . S
H2324 C2334 0.950 . S
H2325 C2336 0.950 . S
H2326 C2338 0.950 . S
H2327 C2339 0.950 . S
C2328 H2320 0.950 . S
C2328 C2329 1.386 . S
C2328 C2330 1.391 . S
C2329 C2328 1.386 . S
C2329 C2333 1.393 . S
C2330 H2322 0.950 . S
C2330 C2328 1.391 . S
C2330 C2331 1.400 . S
C2331 C2330 1.400 . S
C2331 C2332 1.398 . S
C2331 C2337 1.491 . S
C2332 H2323 0.950 . S
C2332 C2331 1.398 . S
C2332 C2333 1.391 . S
C2333 H2321 0.957 . S
C2333 C2329 1.393 . S
C2333 C2332 1.391 . S
C2334 H2324 0.950 . S
C2334 C2335 1.386 . S
C2334 C2336 1.391 . S
C2335 C2334 1.386 . S
C2335 C2339 1.393 . S
C2336 H2325 0.950 . S
C2336 C2334 1.391 . S
C2336 C2337 1.400 . S
C2337 C2331 1.491 . S
C2337 C2336 1.400 . S
C2337 C2338 1.398 . S
C2338 H2326 0.950 . S
C2338 C2337 1.398 . S
C2338 C2339 1.391 . S
C2339 H2327 0.950 . S
C2339 C2335 1.393 . S
C2339 C2338 1.391 . S
H2340 C2348 0.950 . S
H2341 C2353 0.950 . S
H2342 C2350 0.950 . S
H2343 C2352 0.950 . S
H2344 C2354 0.950 . S
H2345 C2356 0.950 . S
H2346 C2358 0.950 . S
H2347 C2359 0.950 . S
C2348 H2340 0.950 . S
C2348 C2349 1.386 . S
C2348 C2350 1.391 . S
C2349 C2348 1.386 . S
C2349 C2353 1.393 . S
C2350 H2342 0.950 . S
C2350 C2348 1.391 . S
C2350 C2351 1.400 . S
C2351 C2350 1.400 . S
C2351 C2352 1.398 . S
C2351 C2357 1.491 . S
C2352 H2343 0.950 . S
C2352 C2351 1.398 . S
C2352 C2353 1.391 . S
C2353 H2341 0.950 . S
C2353 C2349 1.393 . S
C2353 C2352 1.391 . S
C2354 H2344 0.950 . S
C2354 C2355 1.386 . S
C2354 C2356 1.391 . S
C2355 C2354 1.386 . S
C2355 C2359 1.393 . S
C2356 H2345 0.950 . S
C2356 C2354 1.391 . S
C2356 C2357 1.400 . S
C2357 C2351 1.491 . S
C2357 C2356 1.400 . S
C2357 C2358 1.398 . S
C2358 H2346 0.950 . S
C2358 C2357 1.398 . S
C2358 C2359 1.391 . S
C2359 H2347 0.950 . S
C2359 C2355 1.393 . S
C2359 C2358 1.391 . S
H2360 C2368 0.950 . S
H2361 C2373 0.950 . S
H2362 C2370 0.950 . S
H2363 C2372 0.950 . S
H2364 C2374 0.950 . S
H2365 C2376 0.950 . S
H2366 C2378 0.950 . S
H2367 C2379 0.950 . S
C2368 H2360 0.950 . S
C2368 C2369 1.386 . S
C2368 C2370 1.391 . S
C2369 C2368 1.386 . S
C2369 C2373 1.393 . S
C2370 H2362 0.950 . S
C2370 C2368 1.391 . S
C2370 C2371 1.400 . S
C2371 C2370 1.400 . S
C2371 C2372 1.398 . S
C2371 C2377 1.491 . S
C2372 H2363 0.950 . S
C2372 C2371 1.398 . S
C2372 C2373 1.391 . S
C2373 H2361 0.950 . S
C2373 C2369 1.393 . S
C2373 C2372 1.391 . S
C2374 H2364 0.950 . S
C2374 C2375 1.386 . S
C2374 C2376 1.391 . S
C2375 C2374 1.386 . S
C2375 C2379 1.393 . S
C2376 H2365 0.950 . S
C2376 C2374 1.391 . S
C2376 C2377 1.400 . S
C2377 C2371 1.491 . S
C2377 C2376 1.400 . S
C2377 C2378 1.398 . S
C2378 H2366 0.950 . S
C2378 C2377 1.398 . S
C2378 C2379 1.391 . S
C2379 H2367 0.950 . S
C2379 C2375 1.393 . S
C2379 C2378 1.391 . S
H2380 C2388 0.950 . S
H2381 C2393 0.950 . S
H2382 C2390 0.950 . S
H2383 C2392 0.950 . S
H2384 C2394 0.950 . S
H2385 C2396 0.950 . S
H2386 C2398 0.950 . S
H2387 C2399 0.950 . S
C2388 H2380 0.950 . S
C2388 C2389 1.386 . S
C2388 C2390 1.391 . S
C2389 C2388 1.386 . S
C2389 C2393 1.393 . S
C2390 H2382 0.950 . S
C2390 C2388 1.391 . S
C2390 C2391 1.400 . S
C2391 C2390 1.400 . S
C2391 C2392 1.398 . S
C2391 C2397 1.491 . S
C2392 H2383 0.950 . S
C2392 C2391 1.398 . S
C2392 C2393 1.391 . S
C2393 H2381 0.950 . S
C2393 C2389 1.393 . S
C2393 C2392 1.391 . S
C2394 H2384 0.950 . S
C2394 C2395 1.386 . S
C2394 C2396 1.391 . S
C2395 C2394 1.386 . S
C2395 C2399 1.393 . S
C2396 H2385 0.950 . S
C2396 C2394 1.391 . S
C2396 C2397 1.400 . S
C2397 C2391 1.491 . S
C2397 C2396 1.400 . S
C2397 C2398 1.398 . S
C2398 H2386 0.950 . S
C2398 C2397 1.398 . S
C2398 C2399 1.391 . S
C2399 H2387 0.950 . S
C2399 C2395 1.393 . S
C2399 C2398 1.391 . S
H2400 C2408 0.950 . S
H2401 C2413 0.950 . S
H2402 C2410 0.950 . S
H2403 C2412 0.950 . S
H2404 C2414 0.952 . S
H2405 C2416 0.950 . S
H2406 C2418 0.950 . S
H2407 C2419 0.950 . S
C2408 H2400 0.950 . S
C2408 C2409 1.386 1_545 S
C2408 C2410 1.391 . S
C2409 C2408 1.386 1_565 S
C2409 C2413 1.393 . S
C2410 H2402 0.950 . S
C2410 C2408 1.391 . S
C2410 C2411 1.400 . S
C2411 C2410 1.400 . S
C2411 C2412 1.398 1_545 S
C2411 C2417 1.491 . S
C2412 H2403 0.950 . S
C2412 C2411 1.398 1_565 S
C2412 C2413 1.391 . S
C2413 H2401 0.950 . S
C2413 C2409 1.393 . S
C2413 C2412 1.391 . S
C2414 H2404 0.952 . S
C2414 C2415 1.381 1_565 S
C2414 C2416 1.394 . S
C2415 C2414 1.381 1_545 S
C2415 C2419 1.393 . S
C2416 H2405 0.950 . S
C2416 C2414 1.394 . S
C2416 C2417 1.400 1_565 S
C2417 C2411 1.491 . S
C2417 C2416 1.400 1_545 S
C2417 C2418 1.398 . S
C2418 H2406 0.950 . S
C2418 C2417 1.398 . S
C2418 C2419 1.391 . S
C2419 H2407 0.950 . S
C2419 C2415 1.393 . S
C2419 C2418 1.391 . S
H2420 C2428 0.950 . S
H2421 C2433 0.950 . S
H2422 C2430 0.950 . S
H2423 C2432 0.950 . S
H2424 C2434 0.950 . S
H2425 C2436 0.950 . S
H2426 C2438 0.950 . S
H2427 C2439 0.950 . S
C2428 H2420 0.950 . S
C2428 C2429 1.386 . S
C2428 C2430 1.391 . S
C2429 C2428 1.386 . S
C2429 C2433 1.393 . S
C2430 H2422 0.950 . S
C2430 C2428 1.391 . S
C2430 C2431 1.400 . S
C2431 C2430 1.400 . S
C2431 C2432 1.398 . S
C2431 C2437 1.491 . S
C2432 H2423 0.950 . S
C2432 C2431 1.398 . S
C2432 C2433 1.391 . S
C2433 H2421 0.950 . S
C2433 C2429 1.393 . S
C2433 C2432 1.391 . S
C2434 H2424 0.950 . S
C2434 C2435 1.386 . S
C2434 C2436 1.391 . S
C2435 C2434 1.386 . S
C2435 C2439 1.393 . S
C2436 H2425 0.950 . S
C2436 C2434 1.391 . S
C2436 C2437 1.400 . S
C2437 C2431 1.491 . S
C2437 C2436 1.400 . S
C2437 C2438 1.398 . S
C2438 H2426 0.950 . S
C2438 C2437 1.398 . S
C2438 C2439 1.391 . S
C2439 H2427 0.950 . S
C2439 C2435 1.393 . S
C2439 C2438 1.391 . S
H2440 C2448 0.950 . S
H2441 C2453 0.950 . S
H2442 C2450 0.950 . S
H2443 C2452 0.950 . S
H2444 C2454 0.950 . S
H2445 C2456 0.950 . S
H2446 C2458 0.950 . S
H2447 C2459 0.950 . S
C2448 H2440 0.950 . S
C2448 C2449 1.386 . S
C2448 C2450 1.391 . S
C2449 C2448 1.386 . S
C2449 C2453 1.393 . S
C2450 H2442 0.950 . S
C2450 C2448 1.391 . S
C2450 C2451 1.400 . S
C2451 C2450 1.400 . S
C2451 C2452 1.398 . S
C2451 C2457 1.491 . S
C2452 H2443 0.950 . S
C2452 C2451 1.398 . S
C2452 C2453 1.391 . S
C2453 H2441 0.950 . S
C2453 C2449 1.393 . S
C2453 C2452 1.391 . S
C2454 H2444 0.950 . S
C2454 C2455 1.386 . S
C2454 C2456 1.391 . S
C2455 C2454 1.386 . S
C2455 C2459 1.393 . S
C2456 H2445 0.950 . S
C2456 C2454 1.391 . S
C2456 C2457 1.400 . S
C2457 C2451 1.491 . S
C2457 C2456 1.400 . S
C2457 C2458 1.398 . S
C2458 H2446 0.950 . S
C2458 C2457 1.398 . S
C2458 C2459 1.391 . S
C2459 H2447 0.950 . S
C2459 C2455 1.393 . S
C2459 C2458 1.391 . S
H2460 C2468 0.950 . S
H2461 C2473 0.950 . S
H2462 C2470 0.950 . S
H2463 C2472 0.950 . S
H2464 C2474 0.950 . S
H2465 C2476 0.950 . S
H2466 C2478 0.950 . S
H2467 C2479 0.950 . S
C2468 H2460 0.950 . S
C2468 C2469 1.386 . S
C2468 C2470 1.391 . S
C2469 C2468 1.386 . S
C2469 C2473 1.393 . S
C2470 H2462 0.950 . S
C2470 C2468 1.391 . S
C2470 C2471 1.400 . S
C2471 C2470 1.400 . S
C2471 C2472 1.398 . S
C2471 C2477 1.491 . S
C2472 H2463 0.950 . S
C2472 C2471 1.398 . S
C2472 C2473 1.391 . S
C2473 H2461 0.950 . S
C2473 C2469 1.393 . S
C2473 C2472 1.391 . S
C2474 H2464 0.950 . S
C2474 C2475 1.386 . S
C2474 C2476 1.391 . S
C2475 C2474 1.386 . S
C2475 C2479 1.393 . S
C2476 H2465 0.950 . S
C2476 C2474 1.391 . S
C2476 C2477 1.400 . S
C2477 C2471 1.491 . S
C2477 C2476 1.400 . S
C2477 C2478 1.398 . S
C2478 H2466 0.950 . S
C2478 C2477 1.398 . S
C2478 C2479 1.391 . S
C2479 H2467 0.950 . S
C2479 C2475 1.393 . S
C2479 C2478 1.391 . S
H2480 C2488 0.950 . S
H2481 C2493 0.950 . S
H2482 C2490 0.950 . S
H2483 C2492 0.950 . S
H2484 C2494 0.963 . S
H2485 C2496 0.950 1_556 S
H2486 C2498 0.950 . S
H2487 C2499 0.950 . S
C2488 H2480 0.950 . S
C2488 C2489 1.386 . S
C2488 C2490 1.391 . S
C2489 C2488 1.386 . S
C2489 C2493 1.393 . S
C2490 H2482 0.950 . S
C2490 C2488 1.391 . S
C2490 C2491 1.400 . S
C2491 C2490 1.400 . S
C2491 C2492 1.398 . S
C2491 C2497 1.491 . S
C2492 H2483 0.950 . S
C2492 C2491 1.398 . S
C2492 C2493 1.391 . S
C2493 H2481 0.950 . S
C2493 C2489 1.393 . S
C2493 C2492 1.391 . S
C2494 H2484 0.963 . S
C2494 C2495 1.377 1_556 S
C2494 C2496 1.388 1_556 S
C2495 C2494 1.377 1_554 S
C2495 C2499 1.393 . S
C2496 H2485 0.950 1_554 S
C2496 C2494 1.388 1_554 S
C2496 C2497 1.400 . S
C2497 C2491 1.491 . S
C2497 C2496 1.400 . S
C2497 C2498 1.398 . S
C2498 H2486 0.950 . S
C2498 C2497 1.398 . S
C2498 C2499 1.391 . S
C2499 H2487 0.950 . S
C2499 C2495 1.393 . S
C2499 C2498 1.391 . S
H2500 C2508 0.950 . S
H2501 C2513 0.950 . S
H2502 C2510 0.950 . S
H2503 C2512 0.950 . S
H2504 C2514 0.950 . S
H2505 C2516 0.950 . S
H2506 C2518 0.950 . S
H2507 C2519 0.950 . S
C2508 H2500 0.950 . S
C2508 C2509 1.386 . S
C2508 C2510 1.391 . S
C2509 C2508 1.386 . S
C2509 C2513 1.393 . S
C2510 H2502 0.950 . S
C2510 C2508 1.391 . S
C2510 C2511 1.400 . S
C2511 C2510 1.400 . S
C2511 C2512 1.398 . S
C2511 C2517 1.491 . S
C2512 H2503 0.950 . S
C2512 C2511 1.398 . S
C2512 C2513 1.391 . S
C2513 H2501 0.950 . S
C2513 C2509 1.393 . S
C2513 C2512 1.391 . S
C2514 H2504 0.950 . S
C2514 C2515 1.386 . S
C2514 C2516 1.391 . S
C2515 C2514 1.386 . S
C2515 C2519 1.393 . S
C2516 H2505 0.950 . S
C2516 C2514 1.391 . S
C2516 C2517 1.400 . S
C2517 C2511 1.491 . S
C2517 C2516 1.400 . S
C2517 C2518 1.398 . S
C2518 H2506 0.950 . S
C2518 C2517 1.398 . S
C2518 C2519 1.391 . S
C2519 H2507 0.950 . S
C2519 C2515 1.393 . S
C2519 C2518 1.391 . S
H2520 C2528 0.950 . S
H2521 C2533 0.950 . S
H2522 C2530 0.950 . S
H2523 C2532 0.950 . S
H2524 C2534 0.950 . S
H2525 C2536 0.950 . S
H2526 C2538 0.950 . S
H2527 C2539 0.950 . S
C2528 H2520 0.950 . S
C2528 C2529 1.386 . S
C2528 C2530 1.391 . S
C2529 C2528 1.386 . S
C2529 C2533 1.393 . S
C2530 H2522 0.950 . S
C2530 C2528 1.391 . S
C2530 C2531 1.400 . S
C2531 C2530 1.400 . S
C2531 C2532 1.398 . S
C2531 C2537 1.491 . S
C2532 H2523 0.950 . S
C2532 C2531 1.398 . S
C2532 C2533 1.391 . S
C2533 H2521 0.950 . S
C2533 C2529 1.393 . S
C2533 C2532 1.391 . S
C2534 H2524 0.950 . S
C2534 C2535 1.386 . S
C2534 C2536 1.391 . S
C2535 C2534 1.386 . S
C2535 C2539 1.393 . S
C2536 H2525 0.950 . S
C2536 C2534 1.391 . S
C2536 C2537 1.400 . S
C2537 C2531 1.491 . S
C2537 C2536 1.400 . S
C2537 C2538 1.398 . S
C2538 H2526 0.950 . S
C2538 C2537 1.398 . S
C2538 C2539 1.391 . S
C2539 H2527 0.950 . S
C2539 C2535 1.393 . S
C2539 C2538 1.391 . S
H2540 C2548 0.950 . S
H2541 C2553 0.950 . S
H2542 C2550 0.950 . S
H2543 C2552 0.950 . S
H2544 C2554 0.950 . S
H2545 C2556 0.950 . S
H2546 C2558 0.950 . S
H2547 C2559 0.950 . S
C2548 H2540 0.950 . S
C2548 C2549 1.386 . S
C2548 C2550 1.391 . S
C2549 C2548 1.386 . S
C2549 C2553 1.393 . S
C2550 H2542 0.950 . S
C2550 C2548 1.391 . S
C2550 C2551 1.400 . S
C2551 C2550 1.400 . S
C2551 C2552 1.398 . S
C2551 C2557 1.491 . S
C2552 H2543 0.950 . S
C2552 C2551 1.398 . S
C2552 C2553 1.391 . S
C2553 H2541 0.950 . S
C2553 C2549 1.393 . S
C2553 C2552 1.391 . S
C2554 H2544 0.950 . S
C2554 C2555 1.386 . S
C2554 C2556 1.391 . S
C2555 C2554 1.386 . S
C2555 C2559 1.393 . S
C2556 H2545 0.950 . S
C2556 C2554 1.391 . S
C2556 C2557 1.400 . S
C2557 C2551 1.491 . S
C2557 C2556 1.400 . S
C2557 C2558 1.398 . S
C2558 H2546 0.950 . S
C2558 C2557 1.398 . S
C2558 C2559 1.391 . S
C2559 H2547 0.950 . S
C2559 C2555 1.393 . S
C2559 C2558 1.391 . S
H2560 C2568 0.950 . S
H2561 C2573 0.950 1_545 S
H2562 C2570 0.950 . S
H2563 C2572 0.950 . S
H2564 C2574 0.950 . S
H2565 C2576 0.950 . S
H2566 C2578 0.950 . S
H2567 C2579 0.950 . S
C2568 H2560 0.950 . S
C2568 C2569 1.386 . S
C2568 C2570 1.391 . S
C2569 C2568 1.386 . S
C2569 C2573 1.393 . S
C2570 H2562 0.950 . S
C2570 C2568 1.391 . S
C2570 C2571 1.400 . S
C2571 C2570 1.400 . S
C2571 C2572 1.398 . S
C2571 C2577 1.491 . S
C2572 H2563 0.950 . S
C2572 C2571 1.398 . S
C2572 C2573 1.391 . S
C2573 H2561 0.950 1_565 S
C2573 C2569 1.393 . S
C2573 C2572 1.391 . S
C2574 H2564 0.950 . S
C2574 C2575 1.386 . S
C2574 C2576 1.391 . S
C2575 C2574 1.386 . S
C2575 C2579 1.393 . S
C2576 H2565 0.950 . S
C2576 C2574 1.391 . S
C2576 C2577 1.400 . S
C2577 C2571 1.491 . S
C2577 C2576 1.400 . S
C2577 C2578 1.398 . S
C2578 H2566 0.950 . S
C2578 C2577 1.398 . S
C2578 C2579 1.391 . S
C2579 H2567 0.950 . S
C2579 C2575 1.393 . S
C2579 C2578 1.391 . S
H2580 C2588 0.950 . S
H2581 C2593 0.950 . S
H2582 C2590 0.950 . S
H2583 C2592 0.950 . S
H2584 C2594 0.950 . S
H2585 C2596 0.950 . S
H2586 C2598 0.950 . S
H2587 C2599 0.950 . S
C2588 H2580 0.950 . S
C2588 C2589 1.386 . S
C2588 C2590 1.391 . S
C2589 C2588 1.386 . S
C2589 C2593 1.393 . S
C2590 H2582 0.950 . S
C2590 C2588 1.391 . S
C2590 C2591 1.400 . S
C2591 C2590 1.400 . S
C2591 C2592 1.398 . S
C2591 C2597 1.491 . S
C2592 H2583 0.950 . S
C2592 C2591 1.398 . S
C2592 C2593 1.391 . S
C2593 H2581 0.950 . S
C2593 C2589 1.393 . S
C2593 C2592 1.391 . S
C2594 H2584 0.950 . S
C2594 C2595 1.386 . S
C2594 C2596 1.391 . S
C2595 C2594 1.386 . S
C2595 C2599 1.393 . S
C2596 H2585 0.950 . S
C2596 C2594 1.391 . S
C2596 C2597 1.400 . S
C2597 C2591 1.491 . S
C2597 C2596 1.400 . S
C2597 C2598 1.398 . S
C2598 H2586 0.950 . S
C2598 C2597 1.398 . S
C2598 C2599 1.391 . S
C2599 H2587 0.950 . S
C2599 C2595 1.393 . S
C2599 C2598 1.391 . S
H2600 C2608 0.950 . S
H2601 C2613 0.950 . S
H2602 C2610 0.950 . S
H2603 C2612 0.950 . S
H2604 C2614 0.950 . S
H2605 C2616 0.950 . S
H2606 C2618 0.950 . S
H2607 C2619 0.950 . S
C2608 H2600 0.950 . S
C2608 C2609 1.386 . S
C2608 C2610 1.391 . S
C2609 C2608 1.386 . S
C2609 C2613 1.393 . S
C2610 H2602 0.950 . S
C2610 C2608 1.391 . S
C2610 C2611 1.400 . S
C2611 C2610 1.400 . S
C2611 C2612 1.398 . S
C2611 C2617 1.491 . S
C2612 H2603 0.950 . S
C2612 C2611 1.398 . S
C2612 C2613 1.391 . S
C2613 H2601 0.950 . S
C2613 C2609 1.393 . S
C2613 C2612 1.391 . S
C2614 H2604 0.950 . S
C2614 C2615 1.386 . S
C2614 C2616 1.391 . S
C2615 C2614 1.386 . S
C2615 C2619 1.393 . S
C2616 H2605 0.950 . S
C2616 C2614 1.391 . S
C2616 C2617 1.400 . S
C2617 C2611 1.491 . S
C2617 C2616 1.400 . S
C2617 C2618 1.398 . S
C2618 H2606 0.950 . S
C2618 C2617 1.398 . S
C2618 C2619 1.391 . S
C2619 H2607 0.950 . S
C2619 C2615 1.393 . S
C2619 C2618 1.391 . S
H2620 C2628 0.950 . S
H2621 C2633 0.950 . S
H2622 C2630 0.950 . S
H2623 C2632 0.950 . S
H2624 C2634 0.950 . S
H2625 C2636 0.950 . S
H2626 C2638 0.950 . S
H2627 C2639 0.950 . S
C2628 H2620 0.950 . S
C2628 C2629 1.386 . S
C2628 C2630 1.391 . S
C2629 C2628 1.386 . S
C2629 C2633 1.393 . S
C2630 H2622 0.950 . S
C2630 C2628 1.391 . S
C2630 C2631 1.400 . S
C2631 C2630 1.400 . S
C2631 C2632 1.398 . S
C2631 C2637 1.491 . S
C2632 H2623 0.950 . S
C2632 C2631 1.398 . S
C2632 C2633 1.391 . S
C2633 H2621 0.950 . S
C2633 C2629 1.393 . S
C2633 C2632 1.391 . S
C2634 H2624 0.950 . S
C2634 C2635 1.386 . S
C2634 C2636 1.391 . S
C2635 C2634 1.386 . S
C2635 C2639 1.393 . S
C2636 H2625 0.950 . S
C2636 C2634 1.391 . S
C2636 C2637 1.400 . S
C2637 C2631 1.491 . S
C2637 C2636 1.400 . S
C2637 C2638 1.398 . S
C2638 H2626 0.950 . S
C2638 C2637 1.398 . S
C2638 C2639 1.391 . S
C2639 H2627 0.950 . S
C2639 C2635 1.393 . S
C2639 C2638 1.391 . S
H2640 C2648 0.950 . S
H2641 C2653 0.950 . S
H2642 C2650 0.950 . S
H2643 C2652 0.950 . S
H2644 C2654 0.950 . S
H2645 C2656 0.950 . S
H2646 C2658 0.950 . S
H2647 C2659 0.950 . S
C2648 H2640 0.950 . S
C2648 C2649 1.386 . S
C2648 C2650 1.391 . S
C2649 C2648 1.386 . S
C2649 C2653 1.393 . S
C2650 H2642 0.950 . S
C2650 C2648 1.391 . S
C2650 C2651 1.400 . S
C2651 C2650 1.400 . S
C2651 C2652 1.398 . S
C2651 C2657 1.491 . S
C2652 H2643 0.950 . S
C2652 C2651 1.398 . S
C2652 C2653 1.391 . S
C2653 H2641 0.950 . S
C2653 C2649 1.393 . S
C2653 C2652 1.391 . S
C2654 H2644 0.950 . S
C2654 C2655 1.386 . S
C2654 C2656 1.391 . S
C2655 C2654 1.386 . S
C2655 C2659 1.393 . S
C2656 H2645 0.950 . S
C2656 C2654 1.391 . S
C2656 C2657 1.400 . S
C2657 C2651 1.491 . S
C2657 C2656 1.400 . S
C2657 C2658 1.398 . S
C2658 H2646 0.950 . S
C2658 C2657 1.398 . S
C2658 C2659 1.391 . S
C2659 H2647 0.950 . S
C2659 C2655 1.393 . S
C2659 C2658 1.391 . S
H2660 C2668 0.950 . S
H2661 C2673 0.950 . S
H2662 C2670 0.950 . S
H2663 C2672 0.950 . S
H2664 C2674 0.950 . S
H2665 C2676 0.950 . S
H2666 C2678 0.950 . S
H2667 C2679 0.950 . S
C2668 H2660 0.950 . S
C2668 C2669 1.386 . S
C2668 C2670 1.391 . S
C2669 C2668 1.386 . S
C2669 C2673 1.393 . S
C2670 H2662 0.950 . S
C2670 C2668 1.391 . S
C2670 C2671 1.400 . S
C2671 C2670 1.400 . S
C2671 C2672 1.398 . S
C2671 C2677 1.491 . S
C2672 H2663 0.950 . S
C2672 C2671 1.398 . S
C2672 C2673 1.391 . S
C2673 H2661 0.950 . S
C2673 C2669 1.393 . S
C2673 C2672 1.391 . S
C2674 H2664 0.950 . S
C2674 C2675 1.386 . S
C2674 C2676 1.391 . S
C2675 C2674 1.386 . S
C2675 C2679 1.393 . S
C2676 H2665 0.950 . S
C2676 C2674 1.391 . S
C2676 C2677 1.400 . S
C2677 C2671 1.491 . S
C2677 C2676 1.400 . S
C2677 C2678 1.398 . S
C2678 H2666 0.950 . S
C2678 C2677 1.398 . S
C2678 C2679 1.391 . S
C2679 H2667 0.950 . S
C2679 C2675 1.393 . S
C2679 C2678 1.391 . S
H2680 C2688 0.950 . S
H2681 C2693 0.950 . S
H2682 C2690 0.950 . S
H2683 C2692 0.950 1_554 S
H2684 C2694 0.950 . S
H2685 C2696 0.950 . S
H2686 C2698 0.950 . S
H2687 C2699 0.950 . S
C2688 H2680 0.950 . S
C2688 C2689 1.386 . S
C2688 C2690 1.391 . S
C2689 C2688 1.386 . S
C2689 C2693 1.393 . S
C2690 H2682 0.950 . S
C2690 C2688 1.391 . S
C2690 C2691 1.400 . S
C2691 C2690 1.400 . S
C2691 C2692 1.398 . S
C2691 C2697 1.491 . S
C2692 H2683 0.950 1_556 S
C2692 C2691 1.398 . S
C2692 C2693 1.391 . S
C2693 H2681 0.950 . S
C2693 C2689 1.393 . S
C2693 C2692 1.391 . S
C2694 H2684 0.950 . S
C2694 C2695 1.386 . S
C2694 C2696 1.391 . S
C2695 C2694 1.386 . S
C2695 C2699 1.393 1_554 S
C2696 H2685 0.950 . S
C2696 C2694 1.391 . S
C2696 C2697 1.400 1_554 S
C2697 C2691 1.491 . S
C2697 C2696 1.400 1_556 S
C2697 C2698 1.398 . S
C2698 H2686 0.950 . S
C2698 C2697 1.398 . S
C2698 C2699 1.391 . S
C2699 H2687 0.950 . S
C2699 C2695 1.393 1_556 S
C2699 C2698 1.391 . S
H2700 C2708 0.950 . S
H2701 C2713 0.950 . S
H2702 C2710 0.950 . S
H2703 C2712 0.950 . S
H2704 C2714 0.950 . S
H2705 C2716 0.950 . S
H2706 C2718 0.950 . S
H2707 C2719 0.950 . S
C2708 H2700 0.950 . S
C2708 C2709 1.386 . S
C2708 C2710 1.391 1_455 S
C2709 C2708 1.386 . S
C2709 C2713 1.393 . S
C2710 H2702 0.950 . S
C2710 C2708 1.391 1_655 S
C2710 C2711 1.400 . S
C2711 C2710 1.400 . S
C2711 C2712 1.398 1_655 S
C2711 C2717 1.491 . S
C2712 H2703 0.950 . S
C2712 C2711 1.398 1_455 S
C2712 C2713 1.391 . S
C2713 H2701 0.950 . S
C2713 C2709 1.393 . S
C2713 C2712 1.391 . S
C2714 H2704 0.950 . S
C2714 C2715 1.386 . S
C2714 C2716 1.391 . S
C2715 C2714 1.386 . S
C2715 C2719 1.393 . S
C2716 H2705 0.950 . S
C2716 C2714 1.391 . S
C2716 C2717 1.400 . S
C2717 C2711 1.491 . S
C2717 C2716 1.400 . S
C2717 C2718 1.398 . S
C2718 H2706 0.950 . S
C2718 C2717 1.398 . S
C2718 C2719 1.391 . S
C2719 H2707 0.950 . S
C2719 C2715 1.393 . S
C2719 C2718 1.391 . S
H2720 C2728 0.950 . S
H2721 C2733 0.950 . S
H2722 C2730 0.950 . S
H2723 C2732 0.950 . S
H2724 C2734 0.950 . S
H2725 C2736 0.950 . S
H2726 C2738 0.950 . S
H2727 C2739 0.950 . S
C2728 H2720 0.950 . S
C2728 C2729 1.386 . S
C2728 C2730 1.391 . S
C2729 C2728 1.386 . S
C2729 C2733 1.393 . S
C2730 H2722 0.950 . S
C2730 C2728 1.391 . S
C2730 C2731 1.400 . S
C2731 C2730 1.400 . S
C2731 C2732 1.398 . S
C2731 C2737 1.491 . S
C2732 H2723 0.950 . S
C2732 C2731 1.398 . S
C2732 C2733 1.391 . S
C2733 H2721 0.950 . S
C2733 C2729 1.393 . S
C2733 C2732 1.391 . S
C2734 H2724 0.950 . S
C2734 C2735 1.386 . S
C2734 C2736 1.391 . S
C2735 C2734 1.386 . S
C2735 C2739 1.393 . S
C2736 H2725 0.950 . S
C2736 C2734 1.391 . S
C2736 C2737 1.400 . S
C2737 C2731 1.491 . S
C2737 C2736 1.400 . S
C2737 C2738 1.398 . S
C2738 H2726 0.950 . S
C2738 C2737 1.398 . S
C2738 C2739 1.391 . S
C2739 H2727 0.950 . S
C2739 C2735 1.393 . S
C2739 C2738 1.391 . S
H2740 C2748 0.950 . S
H2741 C2753 0.950 . S
H2742 C2750 0.950 . S
H2743 C2752 0.950 . S
H2744 C2754 0.950 . S
H2745 C2756 0.933 1_455 S
H2746 C2758 0.950 . S
H2747 C2759 0.950 . S
C2748 H2740 0.950 . S
C2748 C2749 1.386 . S
C2748 C2750 1.391 . S
C2749 C2748 1.386 . S
C2749 C2753 1.393 . S
C2750 H2742 0.950 . S
C2750 C2748 1.391 . S
C2750 C2751 1.400 . S
C2751 C2750 1.400 . S
C2751 C2752 1.398 . S
C2751 C2757 1.491 1_455 S
C2752 H2743 0.950 . S
C2752 C2751 1.398 . S
C2752 C2753 1.391 . S
C2753 H2741 0.950 . S
C2753 C2749 1.393 . S
C2753 C2752 1.391 . S
C2754 H2744 0.950 . S
C2754 C2755 1.386 . S
C2754 C2756 1.391 . S
C2755 C2754 1.386 . S
C2755 C2759 1.393 . S
C2756 H2745 0.933 1_655 S
C2756 C2754 1.391 . S
C2756 C2757 1.400 . S
C2757 C2751 1.491 1_655 S
C2757 C2756 1.400 . S
C2757 C2758 1.398 . S
C2758 H2746 0.950 . S
C2758 C2757 1.398 . S
C2758 C2759 1.391 . S
C2759 H2747 0.950 . S
C2759 C2755 1.393 . S
C2759 C2758 1.391 . S
H2760 C2768 0.950 . S
H2761 C2773 0.950 . S
H2762 C2770 0.950 . S
H2763 C2772 0.950 . S
H2764 C2774 0.950 . S
H2765 C2776 0.950 1_655 S
H2766 C2778 0.950 . S
H2767 C2779 0.950 . S
C2768 H2760 0.950 . S
C2768 C2769 1.386 1_455 S
C2768 C2770 1.391 . S
C2769 C2768 1.386 1_655 S
C2769 C2773 1.393 . S
C2770 H2762 0.950 . S
C2770 C2768 1.391 . S
C2770 C2771 1.400 . S
C2771 C2770 1.400 . S
C2771 C2772 1.398 1_455 S
C2771 C2777 1.491 . S
C2772 H2763 0.950 . S
C2772 C2771 1.398 1_655 S
C2772 C2773 1.391 . S
C2773 H2761 0.950 . S
C2773 C2769 1.393 . S
C2773 C2772 1.391 . S
C2774 H2764 0.950 . S
C2774 C2775 1.386 . S
C2774 C2776 1.391 . S
C2775 C2774 1.386 . S
C2775 C2779 1.393 . S
C2776 H2765 0.950 1_455 S
C2776 C2774 1.391 . S
C2776 C2777 1.400 . S
C2777 C2771 1.491 . S
C2777 C2776 1.400 . S
C2777 C2778 1.398 . S
C2778 H2766 0.950 . S
C2778 C2777 1.398 . S
C2778 C2779 1.391 . S
C2779 H2767 0.950 . S
C2779 C2775 1.393 . S
C2779 C2778 1.391 . S
H2780 C2788 0.950 . S
H2781 C2793 0.950 . S
H2782 C2790 0.950 . S
H2783 C2792 0.950 . S
H2784 C2794 0.950 . S
H2785 C2796 0.950 . S
H2786 C2798 0.950 . S
H2787 C2799 0.950 . S
C2788 H2780 0.950 . S
C2788 C2789 1.386 . S
C2788 C2790 1.391 . S
C2789 C2788 1.386 . S
C2789 C2793 1.393 . S
C2790 H2782 0.950 . S
C2790 C2788 1.391 . S
C2790 C2791 1.400 . S
C2791 C2790 1.400 . S
C2791 C2792 1.398 . S
C2791 C2797 1.491 . S
C2792 H2783 0.950 . S
C2792 C2791 1.398 . S
C2792 C2793 1.391 . S
C2793 H2781 0.950 . S
C2793 C2789 1.393 . S
C2793 C2792 1.391 . S
C2794 H2784 0.950 . S
C2794 C2795 1.386 . S
C2794 C2796 1.391 . S
C2795 C2794 1.386 . S
C2795 C2799 1.393 . S
C2796 H2785 0.950 . S
C2796 C2794 1.391 . S
C2796 C2797 1.400 . S
C2797 C2791 1.491 . S
C2797 C2796 1.400 . S
C2797 C2798 1.398 . S
C2798 H2786 0.950 . S
C2798 C2797 1.398 . S
C2798 C2799 1.391 . S
C2799 H2787 0.950 . S
C2799 C2795 1.393 . S
C2799 C2798 1.391 . S
H2800 C2808 0.950 . S
H2801 C2813 0.950 . S
H2802 C2810 0.950 . S
H2803 C2812 0.950 . S
H2804 C2814 0.950 . S
H2805 C2816 0.950 . S
H2806 C2818 0.950 . S
H2807 C2819 0.950 . S
C2808 H2800 0.950 . S
C2808 C2809 1.386 . S
C2808 C2810 1.391 . S
C2809 C2808 1.386 . S
C2809 C2813 1.393 . S
C2810 H2802 0.950 . S
C2810 C2808 1.391 . S
C2810 C2811 1.400 . S
C2811 C2810 1.400 . S
C2811 C2812 1.398 . S
C2811 C2817 1.491 . S
C2812 H2803 0.950 . S
C2812 C2811 1.398 . S
C2812 C2813 1.391 . S
C2813 H2801 0.950 . S
C2813 C2809 1.393 . S
C2813 C2812 1.391 . S
C2814 H2804 0.950 . S
C2814 C2815 1.386 . S
C2814 C2816 1.391 . S
C2815 C2814 1.386 . S
C2815 C2819 1.393 . S
C2816 H2805 0.950 . S
C2816 C2814 1.391 . S
C2816 C2817 1.400 . S
C2817 C2811 1.491 . S
C2817 C2816 1.400 . S
C2817 C2818 1.398 . S
C2818 H2806 0.950 . S
C2818 C2817 1.398 . S
C2818 C2819 1.391 . S
C2819 H2807 0.950 . S
C2819 C2815 1.393 . S
C2819 C2818 1.391 . S
H2820 C2828 0.950 . S
H2821 C2833 0.950 . S
H2822 C2830 0.950 . S
H2823 C2832 0.950 . S
H2824 C2834 0.950 . S
H2825 C2836 0.950 . S
H2826 C2838 0.950 . S
H2827 C2839 0.950 . S
C2828 H2820 0.950 . S
C2828 C2829 1.386 . S
C2828 C2830 1.391 . S
C2829 C2828 1.386 . S
C2829 C2833 1.393 . S
C2830 H2822 0.950 . S
C2830 C2828 1.391 . S
C2830 C2831 1.400 . S
C2831 C2830 1.400 . S
C2831 C2832 1.398 . S
C2831 C2837 1.491 . S
C2832 H2823 0.950 . S
C2832 C2831 1.398 . S
C2832 C2833 1.391 . S
C2833 H2821 0.950 . S
C2833 C2829 1.393 . S
C2833 C2832 1.391 . S
C2834 H2824 0.950 . S
C2834 C2835 1.386 . S
C2834 C2836 1.391 . S
C2835 C2834 1.386 . S
C2835 C2839 1.393 . S
C2836 H2825 0.950 . S
C2836 C2834 1.391 . S
C2836 C2837 1.400 . S
C2837 C2831 1.491 . S
C2837 C2836 1.400 . S
C2837 C2838 1.398 . S
C2838 H2826 0.950 . S
C2838 C2837 1.398 . S
C2838 C2839 1.391 . S
C2839 H2827 0.950 . S
C2839 C2835 1.393 . S
C2839 C2838 1.391 . S
H2840 C2848 0.950 . S
H2841 C2853 0.950 . S
H2842 C2850 0.950 . S
H2843 C2852 0.950 . S
H2844 C2854 0.950 . S
H2845 C2856 0.950 . S
H2846 C2858 0.950 . S
H2847 C2859 0.950 . S
C2848 H2840 0.950 . S
C2848 C2849 1.386 . S
C2848 C2850 1.391 . S
C2849 C2848 1.386 . S
C2849 C2853 1.393 . S
C2850 H2842 0.950 . S
C2850 C2848 1.391 . S
C2850 C2851 1.400 . S
C2851 C2850 1.400 . S
C2851 C2852 1.398 . S
C2851 C2857 1.491 . S
C2852 H2843 0.950 . S
C2852 C2851 1.398 . S
C2852 C2853 1.391 . S
C2853 H2841 0.950 . S
C2853 C2849 1.393 . S
C2853 C2852 1.391 . S
C2854 H2844 0.950 . S
C2854 C2855 1.386 . S
C2854 C2856 1.391 . S
C2855 C2854 1.386 . S
C2855 C2859 1.393 . S
C2856 H2845 0.950 . S
C2856 C2854 1.391 . S
C2856 C2857 1.400 . S
C2857 C2851 1.491 . S
C2857 C2856 1.400 . S
C2857 C2858 1.398 . S
C2858 H2846 0.950 . S
C2858 C2857 1.398 . S
C2858 C2859 1.391 . S
C2859 H2847 0.950 . S
C2859 C2855 1.393 . S
C2859 C2858 1.391 . S
H2860 C2868 0.950 . S
H2861 C2873 0.950 . S
H2862 C2870 0.950 . S
H2863 C2872 0.950 . S
H2864 C2874 0.950 . S
H2865 C2876 0.950 . S
H2866 C2878 0.950 . S
H2867 C2879 0.950 . S
C2868 H2860 0.950 . S
C2868 C2869 1.386 . S
C2868 C2870 1.391 . S
C2869 C2868 1.386 . S
C2869 C2873 1.393 . S
C2870 H2862 0.950 . S
C2870 C2868 1.391 . S
C2870 C2871 1.400 . S
C2871 C2870 1.400 . S
C2871 C2872 1.398 . S
C2871 C2877 1.491 . S
C2872 H2863 0.950 . S
C2872 C2871 1.398 . S
C2872 C2873 1.391 . S
C2873 H2861 0.950 . S
C2873 C2869 1.393 . S
C2873 C2872 1.391 . S
C2874 H2864 0.950 . S
C2874 C2875 1.386 . S
C2874 C2876 1.391 . S
C2875 C2874 1.386 . S
C2875 C2879 1.393 . S
C2876 H2865 0.950 . S
C2876 C2874 1.391 . S
C2876 C2877 1.400 . S
C2877 C2871 1.491 . S
C2877 C2876 1.400 . S
C2877 C2878 1.398 . S
C2878 H2866 0.950 . S
C2878 C2877 1.398 . S
C2878 C2879 1.391 . S
C2879 H2867 0.950 . S
C2879 C2875 1.393 . S
C2879 C2878 1.391 . S
H2880 C2888 0.950 . S
H2881 C2893 0.950 . S
H2882 C2890 0.950 . S
H2883 C2892 0.950 . S
H2884 C2894 0.950 . S
H2885 C2896 0.950 . S
H2886 C2898 0.950 . S
H2887 C2899 0.950 . S
C2888 H2880 0.950 . S
C2888 C2889 1.386 . S
C2888 C2890 1.391 . S
C2889 C2888 1.386 . S
C2889 C2893 1.393 . S
C2890 H2882 0.950 . S
C2890 C2888 1.391 . S
C2890 C2891 1.400 . S
C2891 C2890 1.400 . S
C2891 C2892 1.398 . S
C2891 C2897 1.491 . S
C2892 H2883 0.950 . S
C2892 C2891 1.398 . S
C2892 C2893 1.391 . S
C2893 H2881 0.950 . S
C2893 C2889 1.393 . S
C2893 C2892 1.391 . S
C2894 H2884 0.950 . S
C2894 C2895 1.386 . S
C2894 C2896 1.391 . S
C2895 C2894 1.386 . S
C2895 C2899 1.393 . S
C2896 H2885 0.950 . S
C2896 C2894 1.391 . S
C2896 C2897 1.400 . S
C2897 C2891 1.491 . S
C2897 C2896 1.400 . S
C2897 C2898 1.398 . S
C2898 H2886 0.950 . S
C2898 C2897 1.398 . S
C2898 C2899 1.391 . S
C2899 H2887 0.950 . S
C2899 C2895 1.393 . S
C2899 C2898 1.391 . S
H2900 C2908 0.950 . S
H2901 C2913 0.950 . S
H2902 C2910 0.950 . S
H2903 C2912 0.950 . S
H2904 C2914 0.950 . S
H2905 C2916 0.950 . S
H2906 C2918 0.950 . S
H2907 C2919 0.950 . S
C2908 H2900 0.950 . S
C2908 C2909 1.386 . S
C2908 C2910 1.391 . S
C2909 C2908 1.386 . S
C2909 C2913 1.393 . S
C2910 H2902 0.950 . S
C2910 C2908 1.391 . S
C2910 C2911 1.400 . S
C2911 C2910 1.400 . S
C2911 C2912 1.398 . S
C2911 C2917 1.491 . S
C2912 H2903 0.950 . S
C2912 C2911 1.398 . S
C2912 C2913 1.391 . S
C2913 H2901 0.950 . S
C2913 C2909 1.393 . S
C2913 C2912 1.391 . S
C2914 H2904 0.950 . S
C2914 C2915 1.386 . S
C2914 C2916 1.391 . S
C2915 C2914 1.386 . S
C2915 C2919 1.393 . S
C2916 H2905 0.950 . S
C2916 C2914 1.391 . S
C2916 C2917 1.400 . S
C2917 C2911 1.491 . S
C2917 C2916 1.400 . S
C2917 C2918 1.398 . S
C2918 H2906 0.950 . S
C2918 C2917 1.398 . S
C2918 C2919 1.391 . S
C2919 H2907 0.950 . S
C2919 C2915 1.393 . S
C2919 C2918 1.391 . S
H2920 C2928 0.950 . S
H2921 C2933 0.950 . S
H2922 C2930 0.950 . S
H2923 C2932 0.950 . S
H2924 C2934 0.950 . S
H2925 C2936 0.950 . S
H2926 C2938 0.950 . S
H2927 C2939 0.950 . S
C2928 H2920 0.950 . S
C2928 C2929 1.386 . S
C2928 C2930 1.391 . S
C2929 C2928 1.386 . S
C2929 C2933 1.393 . S
C2930 H2922 0.950 . S
C2930 C2928 1.391 . S
C2930 C2931 1.400 . S
C2931 C2930 1.400 . S
C2931 C2932 1.398 . S
C2931 C2937 1.491 . S
C2932 H2923 0.950 . S
C2932 C2931 1.398 . S
C2932 C2933 1.391 . S
C2933 H2921 0.950 . S
C2933 C2929 1.393 . S
C2933 C2932 1.391 . S
C2934 H2924 0.950 . S
C2934 C2935 1.386 . S
C2934 C2936 1.391 . S
C2935 C2934 1.386 . S
C2935 C2939 1.393 . S
C2936 H2925 0.950 . S
C2936 C2934 1.391 . S
C2936 C2937 1.400 . S
C2937 C2931 1.491 . S
C2937 C2936 1.400 . S
C2937 C2938 1.398 . S
C2938 H2926 0.950 . S
C2938 C2937 1.398 . S
C2938 C2939 1.391 . S
C2939 H2927 0.950 . S
C2939 C2935 1.393 . S
C2939 C2938 1.391 . S
H2940 C2948 0.950 . S
H2941 C2953 0.950 . S
H2942 C2950 0.950 . S
H2943 C2952 0.950 . S
H2944 C2954 0.950 . S
H2945 C2956 0.950 . S
H2946 C2958 0.950 . S
H2947 C2959 0.950 . S
C2948 H2940 0.950 . S
C2948 C2949 1.386 . S
C2948 C2950 1.391 . S
C2949 C2948 1.386 . S
C2949 C2953 1.393 . S
C2950 H2942 0.950 . S
C2950 C2948 1.391 . S
C2950 C2951 1.400 . S
C2951 C2950 1.400 . S
C2951 C2952 1.398 . S
C2951 C2957 1.491 . S
C2952 H2943 0.950 . S
C2952 C2951 1.398 . S
C2952 C2953 1.391 . S
C2953 H2941 0.950 . S
C2953 C2949 1.393 . S
C2953 C2952 1.391 . S
C2954 H2944 0.950 . S
C2954 C2955 1.386 . S
C2954 C2956 1.391 . S
C2955 C2954 1.386 . S
C2955 C2959 1.393 . S
C2956 H2945 0.950 . S
C2956 C2954 1.391 . S
C2956 C2957 1.400 . S
C2957 C2951 1.491 . S
C2957 C2956 1.400 . S
C2957 C2958 1.398 . S
C2958 H2946 0.950 . S
C2958 C2957 1.398 . S
C2958 C2959 1.391 . S
C2959 H2947 0.950 . S
C2959 C2955 1.393 . S
C2959 C2958 1.391 . S
H2960 C2968 0.950 . S
H2961 C2973 0.950 . S
H2962 C2970 0.950 . S
H2963 C2972 0.950 . S
H2964 C2974 0.950 . S
H2965 C2976 0.950 . S
H2966 C2978 0.950 . S
H2967 C2979 0.950 . S
C2968 H2960 0.950 . S
C2968 C2969 1.386 . S
C2968 C2970 1.391 . S
C2969 C2968 1.386 . S
C2969 C2973 1.393 . S
C2970 H2962 0.950 . S
C2970 C2968 1.391 . S
C2970 C2971 1.400 . S
C2971 C2970 1.400 . S
C2971 C2972 1.398 . S
C2971 C2977 1.491 . S
C2972 H2963 0.950 . S
C2972 C2971 1.398 . S
C2972 C2973 1.391 . S
C2973 H2961 0.950 . S
C2973 C2969 1.393 . S
C2973 C2972 1.391 . S
C2974 H2964 0.950 . S
C2974 C2975 1.386 . S
C2974 C2976 1.391 . S
C2975 C2974 1.386 . S
C2975 C2979 1.393 . S
C2976 H2965 0.950 . S
C2976 C2974 1.391 . S
C2976 C2977 1.400 . S
C2977 C2971 1.491 . S
C2977 C2976 1.400 . S
C2977 C2978 1.398 . S
C2978 H2966 0.950 . S
C2978 C2977 1.398 . S
C2978 C2979 1.391 . S
C2979 H2967 0.950 . S
C2979 C2975 1.393 . S
C2979 C2978 1.391 . S
H2980 C2988 0.950 . S
H2981 C2993 0.950 . S
H2982 C2990 0.950 . S
H2983 C2992 0.950 . S
H2984 C2994 0.950 . S
H2985 C2996 0.950 . S
H2986 C2998 0.950 . S
H2987 C2999 0.950 . S
C2988 H2980 0.950 . S
C2988 C2989 1.386 . S
C2988 C2990 1.391 . S
C2989 C2988 1.386 . S
C2989 C2993 1.393 . S
C2990 H2982 0.950 . S
C2990 C2988 1.391 . S
C2990 C2991 1.400 . S
C2991 C2990 1.400 . S
C2991 C2992 1.398 . S
C2991 C2997 1.491 . S
C2992 H2983 0.950 . S
C2992 C2991 1.398 . S
C2992 C2993 1.391 . S
C2993 H2981 0.950 . S
C2993 C2989 1.393 . S
C2993 C2992 1.391 . S
C2994 H2984 0.950 . S
C2994 C2995 1.386 . S
C2994 C2996 1.391 . S
C2995 C2994 1.386 . S
C2995 C2999 1.393 . S
C2996 H2985 0.950 . S
C2996 C2994 1.391 . S
C2996 C2997 1.400 . S
C2997 C2991 1.491 . S
C2997 C2996 1.400 . S
C2997 C2998 1.398 . S
C2998 H2986 0.950 . S
C2998 C2997 1.398 . S
C2998 C2999 1.391 . S
C2999 H2987 0.950 . S
C2999 C2995 1.393 . S
C2999 C2998 1.391 . S
H3000 C3008 0.950 . S
H3001 C3013 0.950 . S
H3002 C3010 0.950 . S
H3003 C3012 0.950 . S
H3004 C3014 0.950 . S
H3005 C3016 0.950 . S
H3006 C3018 0.950 . S
H3007 C3019 0.950 . S
C3008 H3000 0.950 . S
C3008 C3009 1.386 . S
C3008 C3010 1.391 . S
C3009 C3008 1.386 . S
C3009 C3013 1.393 . S
C3010 H3002 0.950 . S
C3010 C3008 1.391 . S
C3010 C3011 1.400 . S
C3011 C3010 1.400 . S
C3011 C3012 1.398 . S
C3011 C3017 1.491 . S
C3012 H3003 0.950 . S
C3012 C3011 1.398 . S
C3012 C3013 1.391 . S
C3013 H3001 0.950 . S
C3013 C3009 1.393 . S
C3013 C3012 1.391 . S
C3014 H3004 0.950 . S
C3014 C3015 1.386 . S
C3014 C3016 1.391 . S
C3015 C3014 1.386 . S
C3015 C3019 1.393 . S
C3016 H3005 0.950 . S
C3016 C3014 1.391 . S
C3016 C3017 1.400 . S
C3017 C3011 1.491 . S
C3017 C3016 1.400 . S
C3017 C3018 1.398 . S
C3018 H3006 0.950 . S
C3018 C3017 1.398 . S
C3018 C3019 1.391 . S
C3019 H3007 0.950 . S
C3019 C3015 1.393 . S
C3019 C3018 1.391 . S
H3020 C3028 0.950 . S
H3021 C3033 0.950 . S
H3022 C3030 0.950 . S
H3023 C3032 0.950 1_545 S
H3024 C3034 0.950 . S
H3025 C3036 0.950 . S
H3026 C3038 0.950 1_556 S
H3027 C3039 0.950 1_556 S
C3028 H3020 0.950 . S
C3028 C3029 1.386 1_556 S
C3028 C3030 1.391 . S
C3029 C3028 1.386 1_554 S
C3029 C3033 1.393 . S
C3030 H3022 0.950 . S
C3030 C3028 1.391 . S
C3030 C3031 1.400 1_556 S
C3031 C3030 1.400 1_554 S
C3031 C3032 1.398 . S
C3031 C3037 1.491 . S
C3032 H3023 0.950 1_565 S
C3032 C3031 1.398 . S
C3032 C3033 1.391 . S
C3033 H3021 0.950 . S
C3033 C3029 1.393 . S
C3033 C3032 1.391 . S
C3034 H3024 0.950 . S
C3034 C3035 1.386 . S
C3034 C3036 1.391 . S
C3035 C3034 1.386 . S
C3035 C3039 1.393 1_545 S
C3036 H3025 0.950 . S
C3036 C3034 1.391 . S
C3036 C3037 1.400 1_545 S
C3037 C3031 1.491 . S
C3037 C3036 1.400 1_565 S
C3037 C3038 1.398 . S
C3038 H3026 0.950 1_554 S
C3038 C3037 1.398 . S
C3038 C3039 1.391 . S
C3039 H3027 0.950 1_554 S
C3039 C3035 1.393 1_565 S
C3039 C3038 1.391 . S
H3040 C3048 0.950 . S
H3041 C3053 0.950 . S
H3042 C3050 0.950 . S
H3043 C3052 0.950 . S
H3044 C3054 0.950 . S
H3045 C3056 0.950 . S
H3046 C3058 0.950 . S
H3047 C3059 0.950 . S
C3048 H3040 0.950 . S
C3048 C3049 1.386 . S
C3048 C3050 1.391 . S
C3049 C3048 1.386 . S
C3049 C3053 1.393 . S
C3050 H3042 0.950 . S
C3050 C3048 1.391 . S
C3050 C3051 1.400 . S
C3051 C3050 1.400 . S
C3051 C3052 1.398 . S
C3051 C3057 1.491 . S
C3052 H3043 0.950 . S
C3052 C3051 1.398 . S
C3052 C3053 1.391 . S
C3053 H3041 0.950 . S
C3053 C3049 1.393 . S
C3053 C3052 1.391 . S
C3054 H3044 0.950 . S
C3054 C3055 1.386 . S
C3054 C3056 1.391 . S
C3055 C3054 1.386 . S
C3055 C3059 1.393 . S
C3056 H3045 0.950 . S
C3056 C3054 1.391 . S
C3056 C3057 1.400 . S
C3057 C3051 1.491 . S
C3057 C3056 1.400 . S
C3057 C3058 1.398 . S
C3058 H3046 0.950 . S
C3058 C3057 1.398 . S
C3058 C3059 1.391 . S
C3059 H3047 0.950 . S
C3059 C3055 1.393 . S
C3059 C3058 1.391 . S
H3060 C3068 0.950 . S
H3061 C3073 0.950 . S
H3062 C3070 0.950 . S
H3063 C3072 0.950 . S
H3064 C3074 0.950 . S
H3065 C3076 0.950 . S
H3066 C3078 0.950 1_556 S
H3067 C3079 0.943 1_556 S
C3068 H3060 0.950 . S
C3068 C3069 1.386 1_556 S
C3068 C3070 1.391 . S
C3069 C3068 1.386 1_554 S
C3069 C3073 1.393 . S
C3070 H3062 0.950 . S
C3070 C3068 1.391 . S
C3070 C3071 1.400 1_556 S
C3071 C3070 1.400 1_554 S
C3071 C3072 1.398 . S
C3071 C3077 1.491 . S
C3072 H3063 0.950 . S
C3072 C3071 1.398 . S
C3072 C3073 1.391 . S
C3073 H3061 0.950 . S
C3073 C3069 1.393 . S
C3073 C3072 1.391 . S
C3074 H3064 0.950 . S
C3074 C3075 1.386 . S
C3074 C3076 1.391 . S
C3075 C3074 1.386 . S
C3075 C3079 1.393 . S
C3076 H3065 0.950 . S
C3076 C3074 1.391 . S
C3076 C3077 1.400 . S
C3077 C3071 1.491 . S
C3077 C3076 1.400 . S
C3077 C3078 1.398 . S
C3078 H3066 0.950 1_554 S
C3078 C3077 1.398 . S
C3078 C3079 1.391 . S
C3079 H3067 0.943 1_554 S
C3079 C3075 1.393 . S
C3079 C3078 1.391 . S
H3080 C3088 0.950 . S
H3081 C3093 0.950 . S
H3082 C3090 0.950 . S
H3083 C3092 0.950 . S
H3084 C3094 0.950 . S
H3085 C3096 0.950 . S
H3086 C3098 0.950 . S
H3087 C3099 0.950 . S
C3088 H3080 0.950 . S
C3088 C3089 1.386 . S
C3088 C3090 1.391 . S
C3089 C3088 1.386 . S
C3089 C3093 1.393 . S
C3090 H3082 0.950 . S
C3090 C3088 1.391 . S
C3090 C3091 1.400 . S
C3091 C3090 1.400 . S
C3091 C3092 1.398 . S
C3091 C3097 1.491 . S
C3092 H3083 0.950 . S
C3092 C3091 1.398 . S
C3092 C3093 1.391 . S
C3093 H3081 0.950 . S
C3093 C3089 1.393 . S
C3093 C3092 1.391 . S
C3094 H3084 0.950 . S
C3094 C3095 1.386 . S
C3094 C3096 1.391 . S
C3095 C3094 1.386 . S
C3095 C3099 1.393 . S
C3096 H3085 0.950 . S
C3096 C3094 1.391 . S
C3096 C3097 1.400 . S
C3097 C3091 1.491 . S
C3097 C3096 1.400 . S
C3097 C3098 1.398 . S
C3098 H3086 0.950 . S
C3098 C3097 1.398 . S
C3098 C3099 1.391 . S
C3099 H3087 0.950 . S
C3099 C3095 1.393 . S
C3099 C3098 1.391 . S
H3100 C3108 0.950 . S
H3101 C3113 0.950 . S
H3102 C3110 0.950 . S
H3103 C3112 0.950 . S
H3104 C3114 0.950 . S
H3105 C3116 0.950 . S
H3106 C3118 0.950 . S
H3107 C3119 0.950 . S
C3108 H3100 0.950 . S
C3108 C3109 1.386 . S
C3108 C3110 1.391 . S
C3109 C3108 1.386 . S
C3109 C3113 1.393 . S
C3110 H3102 0.950 . S
C3110 C3108 1.391 . S
C3110 C3111 1.400 . S
C3111 C3110 1.400 . S
C3111 C3112 1.398 . S
C3111 C3117 1.491 . S
C3112 H3103 0.950 . S
C3112 C3111 1.398 . S
C3112 C3113 1.391 . S
C3113 H3101 0.950 . S
C3113 C3109 1.393 . S
C3113 C3112 1.391 . S
C3114 H3104 0.950 . S
C3114 C3115 1.386 . S
C3114 C3116 1.391 . S
C3115 C3114 1.386 . S
C3115 C3119 1.393 . S
C3116 H3105 0.950 . S
C3116 C3114 1.391 . S
C3116 C3117 1.400 . S
C3117 C3111 1.491 . S
C3117 C3116 1.400 . S
C3117 C3118 1.398 . S
C3118 H3106 0.950 . S
C3118 C3117 1.398 . S
C3118 C3119 1.391 . S
C3119 H3107 0.950 . S
C3119 C3115 1.393 . S
C3119 C3118 1.391 . S
H3120 C3128 0.950 . S
H3121 C3133 0.950 . S
H3122 C3130 0.950 . S
H3123 C3132 0.950 . S
H3124 C3134 0.950 . S
H3125 C3136 0.950 . S
H3126 C3138 0.950 . S
H3127 C3139 0.950 . S
C3128 H3120 0.950 . S
C3128 C3129 1.386 . S
C3128 C3130 1.391 . S
C3129 C3128 1.386 . S
C3129 C3133 1.393 . S
C3130 H3122 0.950 . S
C3130 C3128 1.391 . S
C3130 C3131 1.400 . S
C3131 C3130 1.400 . S
C3131 C3132 1.398 . S
C3131 C3137 1.491 . S
C3132 H3123 0.950 . S
C3132 C3131 1.398 . S
C3132 C3133 1.391 . S
C3133 H3121 0.950 . S
C3133 C3129 1.393 . S
C3133 C3132 1.391 . S
C3134 H3124 0.950 . S
C3134 C3135 1.386 . S
C3134 C3136 1.391 . S
C3135 C3134 1.386 . S
C3135 C3139 1.393 . S
C3136 H3125 0.950 . S
C3136 C3134 1.391 . S
C3136 C3137 1.400 . S
C3137 C3131 1.491 . S
C3137 C3136 1.400 . S
C3137 C3138 1.398 . S
C3138 H3126 0.950 . S
C3138 C3137 1.398 . S
C3138 C3139 1.391 . S
C3139 H3127 0.950 . S
C3139 C3135 1.393 . S
C3139 C3138 1.391 . S
H3140 C3148 0.950 . S
H3141 C3153 0.950 . S
H3142 C3150 0.950 . S
H3143 C3152 0.950 . S
H3144 C3154 0.950 . S
H3145 C3156 0.950 . S
H3146 C3158 0.950 . S
H3147 C3159 0.950 . S
C3148 H3140 0.950 . S
C3148 C3149 1.386 . S
C3148 C3150 1.391 . S
C3149 C3148 1.386 . S
C3149 C3153 1.393 . S
C3150 H3142 0.950 . S
C3150 C3148 1.391 . S
C3150 C3151 1.400 . S
C3151 C3150 1.400 . S
C3151 C3152 1.398 . S
C3151 C3157 1.491 . S
C3152 H3143 0.950 . S
C3152 C3151 1.398 . S
C3152 C3153 1.391 . S
C3153 H3141 0.950 . S
C3153 C3149 1.393 . S
C3153 C3152 1.391 . S
C3154 H3144 0.950 . S
C3154 C3155 1.386 . S
C3154 C3156 1.391 . S
C3155 C3154 1.386 . S
C3155 C3159 1.393 . S
C3156 H3145 0.950 . S
C3156 C3154 1.391 . S
C3156 C3157 1.400 . S
C3157 C3151 1.491 . S
C3157 C3156 1.400 . S
C3157 C3158 1.398 . S
C3158 H3146 0.950 . S
C3158 C3157 1.398 . S
C3158 C3159 1.391 . S
C3159 H3147 0.950 . S
C3159 C3155 1.393 . S
C3159 C3158 1.391 . S
H3160 C3168 0.950 . S
H3161 C3173 0.950 . S
H3162 C3170 0.950 . S
H3163 C3172 0.950 . S
H3164 C3174 0.950 . S
H3165 C3176 0.950 . S
H3166 C3178 0.950 . S
H3167 C3179 0.950 . S
C3168 H3160 0.950 . S
C3168 C3169 1.386 . S
C3168 C3170 1.391 . S
C3169 C3168 1.386 . S
C3169 C3173 1.393 . S
C3170 H3162 0.950 . S
C3170 C3168 1.391 . S
C3170 C3171 1.400 . S
C3171 C3170 1.400 . S
C3171 C3172 1.398 . S
C3171 C3177 1.491 . S
C3172 H3163 0.950 . S
C3172 C3171 1.398 . S
C3172 C3173 1.391 . S
C3173 H3161 0.950 . S
C3173 C3169 1.393 . S
C3173 C3172 1.391 . S
C3174 H3164 0.950 . S
C3174 C3175 1.386 . S
C3174 C3176 1.391 . S
C3175 C3174 1.386 . S
C3175 C3179 1.393 . S
C3176 H3165 0.950 . S
C3176 C3174 1.391 . S
C3176 C3177 1.400 . S
C3177 C3171 1.491 . S
C3177 C3176 1.400 . S
C3177 C3178 1.398 . S
C3178 H3166 0.950 . S
C3178 C3177 1.398 . S
C3178 C3179 1.391 . S
C3179 H3167 0.950 . S
C3179 C3175 1.393 . S
C3179 C3178 1.391 . S
H3180 C3188 0.950 . S
H3181 C3193 0.950 . S
H3182 C3190 0.950 . S
H3183 C3192 0.950 . S
H3184 C3194 0.950 . S
H3185 C3196 0.950 . S
H3186 C3198 0.950 . S
H3187 C3199 0.950 . S
C3188 H3180 0.950 . S
C3188 C3189 1.386 . S
C3188 C3190 1.391 . S
C3189 C3188 1.386 . S
C3189 C3193 1.393 . S
C3190 H3182 0.950 . S
C3190 C3188 1.391 . S
C3190 C3191 1.400 . S
C3191 C3190 1.400 . S
C3191 C3192 1.398 . S
C3191 C3197 1.491 . S
C3192 H3183 0.950 . S
C3192 C3191 1.398 . S
C3192 C3193 1.391 . S
C3193 H3181 0.950 . S
C3193 C3189 1.393 . S
C3193 C3192 1.391 . S
C3194 H3184 0.950 . S
C3194 C3195 1.386 . S
C3194 C3196 1.391 . S
C3195 C3194 1.386 . S
C3195 C3199 1.393 . S
C3196 H3185 0.950 . S
C3196 C3194 1.391 . S
C3196 C3197 1.400 . S
C3197 C3191 1.491 . S
C3197 C3196 1.400 . S
C3197 C3198 1.398 . S
C3198 H3186 0.950 . S
C3198 C3197 1.398 . S
C3198 C3199 1.391 . S
C3199 H3187 0.950 . S
C3199 C3195 1.393 . S
C3199 C3198 1.391 . S
H3200 C3208 0.950 . S
H3201 C3213 0.950 . S
H3202 C3210 0.950 . S
H3203 C3212 0.950 . S
H3204 C3214 0.950 . S
H3205 C3216 0.950 . S
H3206 C3218 0.950 . S
H3207 C3219 0.950 . S
C3208 H3200 0.950 . S
C3208 C3209 1.386 . S
C3208 C3210 1.391 . S
C3209 C3208 1.386 . S
C3209 C3213 1.393 . S
C3210 H3202 0.950 . S
C3210 C3208 1.391 . S
C3210 C3211 1.400 . S
C3211 C3210 1.400 . S
C3211 C3212 1.398 . S
C3211 C3217 1.491 . S
C3212 H3203 0.950 . S
C3212 C3211 1.398 . S
C3212 C3213 1.391 . S
C3213 H3201 0.950 . S
C3213 C3209 1.393 . S
C3213 C3212 1.391 . S
C3214 H3204 0.950 . S
C3214 C3215 1.386 . S
C3214 C3216 1.391 . S
C3215 C3214 1.386 . S
C3215 C3219 1.393 . S
C3216 H3205 0.950 . S
C3216 C3214 1.391 . S
C3216 C3217 1.400 . S
C3217 C3211 1.491 . S
C3217 C3216 1.400 . S
C3217 C3218 1.398 . S
C3218 H3206 0.950 . S
C3218 C3217 1.398 . S
C3218 C3219 1.391 . S
C3219 H3207 0.950 . S
C3219 C3215 1.393 . S
C3219 C3218 1.391 . S
H3220 C3228 0.950 . S
H3221 C3233 0.950 . S
H3222 C3230 0.950 . S
H3223 C3232 0.950 . S
H3224 C3234 0.950 . S
H3225 C3236 0.950 . S
H3226 C3238 0.950 . S
H3227 C3239 0.950 . S
C3228 H3220 0.950 . S
C3228 C3229 1.386 . S
C3228 C3230 1.391 . S
C3229 C3228 1.386 . S
C3229 C3233 1.393 . S
C3230 H3222 0.950 . S
C3230 C3228 1.391 . S
C3230 C3231 1.400 . S
C3231 C3230 1.400 . S
C3231 C3232 1.398 . S
C3231 C3237 1.491 . S
C3232 H3223 0.950 . S
C3232 C3231 1.398 . S
C3232 C3233 1.391 . S
C3233 H3221 0.950 . S
C3233 C3229 1.393 . S
C3233 C3232 1.391 . S
C3234 H3224 0.950 . S
C3234 C3235 1.386 . S
C3234 C3236 1.391 . S
C3235 C3234 1.386 . S
C3235 C3239 1.393 . S
C3236 H3225 0.950 . S
C3236 C3234 1.391 . S
C3236 C3237 1.400 . S
C3237 C3231 1.491 . S
C3237 C3236 1.400 . S
C3237 C3238 1.398 . S
C3238 H3226 0.950 . S
C3238 C3237 1.398 . S
C3238 C3239 1.391 . S
C3239 H3227 0.950 . S
C3239 C3235 1.393 . S
C3239 C3238 1.391 . S
H3240 C3248 0.950 . S
H3241 C3253 0.950 . S
H3242 C3250 0.950 . S
H3243 C3252 0.950 . S
H3244 C3254 0.950 . S
H3245 C3256 0.950 . S
H3246 C3258 0.950 . S
H3247 C3259 0.950 . S
C3248 H3240 0.950 . S
C3248 C3249 1.386 . S
C3248 C3250 1.391 . S
C3249 C3248 1.386 . S
C3249 C3253 1.393 . S
C3250 H3242 0.950 . S
C3250 C3248 1.391 . S
C3250 C3251 1.400 . S
C3251 C3250 1.400 . S
C3251 C3252 1.398 . S
C3251 C3257 1.491 . S
C3252 H3243 0.950 . S
C3252 C3251 1.398 . S
C3252 C3253 1.391 . S
C3253 H3241 0.950 . S
C3253 C3249 1.393 . S
C3253 C3252 1.391 . S
C3254 H3244 0.950 . S
C3254 C3255 1.386 . S
C3254 C3256 1.391 . S
C3255 C3254 1.386 . S
C3255 C3259 1.393 . S
C3256 H3245 0.950 . S
C3256 C3254 1.391 . S
C3256 C3257 1.400 . S
C3257 C3251 1.491 . S
C3257 C3256 1.400 . S
C3257 C3258 1.398 . S
C3258 H3246 0.950 . S
C3258 C3257 1.398 . S
C3258 C3259 1.391 . S
C3259 H3247 0.950 . S
C3259 C3255 1.393 . S
C3259 C3258 1.391 . S
H3260 C3268 0.950 . S
H3261 C3273 0.950 . S
H3262 C3270 0.950 . S
H3263 C3272 0.950 . S
H3264 C3274 0.950 . S
H3265 C3276 0.950 . S
H3266 C3278 0.950 . S
H3267 C3279 0.950 . S
C3268 H3260 0.950 . S
C3268 C3269 1.386 . S
C3268 C3270 1.391 . S
C3269 C3268 1.386 . S
C3269 C3273 1.393 . S
C3270 H3262 0.950 . S
C3270 C3268 1.391 . S
C3270 C3271 1.400 . S
C3271 C3270 1.400 . S
C3271 C3272 1.398 . S
C3271 C3277 1.491 . S
C3272 H3263 0.950 . S
C3272 C3271 1.398 . S
C3272 C3273 1.391 . S
C3273 H3261 0.950 . S
C3273 C3269 1.393 . S
C3273 C3272 1.391 . S
C3274 H3264 0.950 . S
C3274 C3275 1.386 . S
C3274 C3276 1.391 . S
C3275 C3274 1.386 . S
C3275 C3279 1.393 . S
C3276 H3265 0.950 . S
C3276 C3274 1.391 . S
C3276 C3277 1.400 . S
C3277 C3271 1.491 . S
C3277 C3276 1.400 . S
C3277 C3278 1.398 . S
C3278 H3266 0.950 . S
C3278 C3277 1.398 . S
C3278 C3279 1.391 . S
C3279 H3267 0.950 . S
C3279 C3275 1.393 . S
C3279 C3278 1.391 . S
H3280 C3288 0.950 . S
H3281 C3293 0.950 . S
H3282 C3290 0.950 . S
H3283 C3292 0.950 . S
H3284 C3294 0.950 . S
H3285 C3296 0.950 . S
H3286 C3298 0.950 . S
H3287 C3299 0.950 . S
C3288 H3280 0.950 . S
C3288 C3289 1.386 . S
C3288 C3290 1.391 . S
C3289 C3288 1.386 . S
C3289 C3293 1.393 . S
C3290 H3282 0.950 . S
C3290 C3288 1.391 . S
C3290 C3291 1.400 . S
C3291 C3290 1.400 . S
C3291 C3292 1.398 . S
C3291 C3297 1.491 . S
C3292 H3283 0.950 . S
C3292 C3291 1.398 . S
C3292 C3293 1.391 . S
C3293 H3281 0.950 . S
C3293 C3289 1.393 . S
C3293 C3292 1.391 . S
C3294 H3284 0.950 . S
C3294 C3295 1.386 . S
C3294 C3296 1.391 . S
C3295 C3294 1.386 . S
C3295 C3299 1.393 . S
C3296 H3285 0.950 . S
C3296 C3294 1.391 . S
C3296 C3297 1.400 . S
C3297 C3291 1.491 . S
C3297 C3296 1.400 . S
C3297 C3298 1.398 . S
C3298 H3286 0.950 . S
C3298 C3297 1.398 . S
C3298 C3299 1.391 . S
C3299 H3287 0.950 . S
C3299 C3295 1.393 . S
C3299 C3298 1.391 . S
H3300 C3308 0.950 . S
H3301 C3313 0.950 . S
H3302 C3310 0.950 . S
H3303 C3312 0.950 . S
H3304 C3314 0.950 . S
H3305 C3316 0.950 . S
H3306 C3318 0.950 . S
H3307 C3319 0.950 . S
C3308 H3300 0.950 . S
C3308 C3309 1.386 . S
C3308 C3310 1.391 . S
C3309 C3308 1.386 . S
C3309 C3313 1.393 . S
C3310 H3302 0.950 . S
C3310 C3308 1.391 . S
C3310 C3311 1.400 . S
C3311 C3310 1.400 . S
C3311 C3312 1.398 . S
C3311 C3317 1.491 . S
C3312 H3303 0.950 . S
C3312 C3311 1.398 . S
C3312 C3313 1.391 . S
C3313 H3301 0.950 . S
C3313 C3309 1.393 . S
C3313 C3312 1.391 . S
C3314 H3304 0.950 . S
C3314 C3315 1.386 . S
C3314 C3316 1.391 . S
C3315 C3314 1.386 . S
C3315 C3319 1.393 . S
C3316 H3305 0.950 . S
C3316 C3314 1.391 . S
C3316 C3317 1.400 . S
C3317 C3311 1.491 . S
C3317 C3316 1.400 . S
C3317 C3318 1.398 . S
C3318 H3306 0.950 . S
C3318 C3317 1.398 . S
C3318 C3319 1.391 . S
C3319 H3307 0.950 . S
C3319 C3315 1.393 . S
C3319 C3318 1.391 . S
H3320 C3328 0.950 . S
H3321 C3333 0.950 . S
H3322 C3330 0.950 . S
H3323 C3332 0.950 . S
H3324 C3334 0.950 . S
H3325 C3336 0.950 . S
H3326 C3338 0.950 . S
H3327 C3339 0.950 . S
C3328 H3320 0.950 . S
C3328 C3329 1.386 . S
C3328 C3330 1.391 . S
C3329 C3328 1.386 . S
C3329 C3333 1.393 . S
C3330 H3322 0.950 . S
C3330 C3328 1.391 . S
C3330 C3331 1.400 . S
C3331 C3330 1.400 . S
C3331 C3332 1.398 . S
C3331 C3337 1.491 . S
C3332 H3323 0.950 . S
C3332 C3331 1.398 . S
C3332 C3333 1.391 . S
C3333 H3321 0.950 . S
C3333 C3329 1.393 . S
C3333 C3332 1.391 . S
C3334 H3324 0.950 . S
C3334 C3335 1.386 . S
C3334 C3336 1.391 . S
C3335 C3334 1.386 . S
C3335 C3339 1.393 . S
C3336 H3325 0.950 . S
C3336 C3334 1.391 . S
C3336 C3337 1.400 1_455 S
C3337 C3331 1.491 . S
C3337 C3336 1.400 1_655 S
C3337 C3338 1.398 . S
C3338 H3326 0.950 . S
C3338 C3337 1.398 . S
C3338 C3339 1.391 1_655 S
C3339 H3327 0.950 . S
C3339 C3335 1.393 . S
C3339 C3338 1.391 1_455 S
H3340 C3348 0.950 . S
H3341 C3353 0.950 . S
H3342 C3350 0.950 . S
H3343 C3352 0.950 . S
H3344 C3354 0.950 . S
H3345 C3356 0.950 . S
H3346 C3358 0.950 . S
H3347 C3359 0.950 . S
C3348 H3340 0.950 . S
C3348 C3349 1.386 . S
C3348 C3350 1.391 . S
C3349 C3348 1.386 . S
C3349 C3353 1.393 . S
C3350 H3342 0.950 . S
C3350 C3348 1.391 . S
C3350 C3351 1.400 . S
C3351 C3350 1.400 . S
C3351 C3352 1.398 . S
C3351 C3357 1.491 . S
C3352 H3343 0.950 . S
C3352 C3351 1.398 . S
C3352 C3353 1.391 . S
C3353 H3341 0.950 . S
C3353 C3349 1.393 . S
C3353 C3352 1.391 . S
C3354 H3344 0.950 . S
C3354 C3355 1.386 . S
C3354 C3356 1.391 . S
C3355 C3354 1.386 . S
C3355 C3359 1.393 . S
C3356 H3345 0.950 . S
C3356 C3354 1.391 . S
C3356 C3357 1.400 . S
C3357 C3351 1.491 . S
C3357 C3356 1.400 . S
C3357 C3358 1.398 . S
C3358 H3346 0.950 . S
C3358 C3357 1.398 . S
C3358 C3359 1.391 . S
C3359 H3347 0.950 . S
C3359 C3355 1.393 . S
C3359 C3358 1.391 . S
H3360 C3368 0.950 . S
H3361 C3373 0.950 . S
H3362 C3370 0.950 . S
H3363 C3372 0.950 . S
H3364 C3374 0.950 . S
H3365 C3376 0.950 . S
H3366 C3378 0.950 . S
H3367 C3379 0.950 . S
C3368 H3360 0.950 . S
C3368 C3369 1.386 . S
C3368 C3370 1.391 . S
C3369 C3368 1.386 . S
C3369 C3373 1.393 . S
C3370 H3362 0.950 . S
C3370 C3368 1.391 . S
C3370 C3371 1.400 . S
C3371 C3370 1.400 . S
C3371 C3372 1.398 . S
C3371 C3377 1.491 . S
C3372 H3363 0.950 . S
C3372 C3371 1.398 . S
C3372 C3373 1.391 . S
C3373 H3361 0.950 . S
C3373 C3369 1.393 . S
C3373 C3372 1.391 . S
C3374 H3364 0.950 . S
C3374 C3375 1.386 . S
C3374 C3376 1.391 . S
C3375 C3374 1.386 . S
C3375 C3379 1.393 . S
C3376 H3365 0.950 . S
C3376 C3374 1.391 . S
C3376 C3377 1.400 . S
C3377 C3371 1.491 . S
C3377 C3376 1.400 . S
C3377 C3378 1.398 . S
C3378 H3366 0.950 . S
C3378 C3377 1.398 . S
C3378 C3379 1.391 . S
C3379 H3367 0.950 . S
C3379 C3375 1.393 . S
C3379 C3378 1.391 . S
H3380 C3388 0.950 . S
H3381 C3393 0.950 . S
H3382 C3390 0.950 . S
H3383 C3392 0.950 . S
H3384 C3394 0.950 . S
H3385 C3396 0.950 . S
H3386 C3398 0.950 . S
H3387 C3399 0.950 . S
C3388 H3380 0.950 . S
C3388 C3389 1.386 . S
C3388 C3390 1.391 . S
C3389 C3388 1.386 . S
C3389 C3393 1.393 . S
C3390 H3382 0.950 . S
C3390 C3388 1.391 . S
C3390 C3391 1.400 . S
C3391 C3390 1.400 . S
C3391 C3392 1.398 . S
C3391 C3397 1.491 . S
C3392 H3383 0.950 . S
C3392 C3391 1.398 . S
C3392 C3393 1.391 . S
C3393 H3381 0.950 . S
C3393 C3389 1.393 . S
C3393 C3392 1.391 . S
C3394 H3384 0.950 . S
C3394 C3395 1.386 . S
C3394 C3396 1.391 . S
C3395 C3394 1.386 . S
C3395 C3399 1.393 . S
C3396 H3385 0.950 . S
C3396 C3394 1.391 . S
C3396 C3397 1.400 . S
C3397 C3391 1.491 . S
C3397 C3396 1.400 . S
C3397 C3398 1.398 . S
C3398 H3386 0.950 . S
C3398 C3397 1.398 . S
C3398 C3399 1.391 . S
C3399 H3387 0.950 . S
C3399 C3395 1.393 . S
C3399 C3398 1.391 . S
H3400 C3408 0.950 . S
H3401 C3413 0.950 . S
H3402 C3410 0.950 . S
H3403 C3412 0.950 . S
H3404 C3414 0.950 . S
H3405 C3416 0.950 . S
H3406 C3418 0.950 . S
H3407 C3419 0.950 . S
C3408 H3400 0.950 . S
C3408 C3409 1.386 . S
C3408 C3410 1.391 . S
C3409 C3408 1.386 . S
C3409 C3413 1.393 . S
C3410 H3402 0.950 . S
C3410 C3408 1.391 . S
C3410 C3411 1.400 . S
C3411 C3410 1.400 . S
C3411 C3412 1.398 . S
C3411 C3417 1.491 . S
C3412 H3403 0.950 . S
C3412 C3411 1.398 . S
C3412 C3413 1.391 . S
C3413 H3401 0.950 . S
C3413 C3409 1.393 . S
C3413 C3412 1.391 . S
C3414 H3404 0.950 . S
C3414 C3415 1.386 1_455 S
C3414 C3416 1.391 1_455 S
C3415 C3414 1.386 1_655 S
C3415 C3419 1.393 . S
C3416 H3405 0.950 . S
C3416 C3414 1.391 1_655 S
C3416 C3417 1.400 . S
C3417 C3411 1.491 . S
C3417 C3416 1.400 . S
C3417 C3418 1.398 . S
C3418 H3406 0.950 . S
C3418 C3417 1.398 . S
C3418 C3419 1.391 . S
C3419 H3407 0.950 . S
C3419 C3415 1.393 . S
C3419 C3418 1.391 . S
H3420 C3428 0.950 . S
H3421 C3433 0.950 . S
H3422 C3430 0.950 . S
H3423 C3432 0.950 . S
H3424 C3434 0.950 . S
H3425 C3436 0.950 . S
H3426 C3438 0.950 . S
H3427 C3439 0.950 . S
C3428 H3420 0.950 . S
C3428 C3429 1.386 . S
C3428 C3430 1.391 . S
C3429 C3428 1.386 . S
C3429 C3433 1.393 . S
C3430 H3422 0.950 . S
C3430 C3428 1.391 . S
C3430 C3431 1.400 . S
C3431 C3430 1.400 . S
C3431 C3432 1.398 . S
C3431 C3437 1.491 . S
C3432 H3423 0.950 . S
C3432 C3431 1.398 . S
C3432 C3433 1.391 . S
C3433 H3421 0.950 . S
C3433 C3429 1.393 . S
C3433 C3432 1.391 . S
C3434 H3424 0.950 . S
C3434 C3435 1.386 . S
C3434 C3436 1.391 . S
C3435 C3434 1.386 . S
C3435 C3439 1.393 . S
C3436 H3425 0.950 . S
C3436 C3434 1.391 . S
C3436 C3437 1.400 . S
C3437 C3431 1.491 . S
C3437 C3436 1.400 . S
C3437 C3438 1.398 . S
C3438 H3426 0.950 . S
C3438 C3437 1.398 . S
C3438 C3439 1.391 . S
C3439 H3427 0.950 . S
C3439 C3435 1.393 . S
C3439 C3438 1.391 . S
H3440 C3448 0.950 . S
H3441 C3453 0.950 . S
H3442 C3450 0.950 . S
H3443 C3452 0.950 . S
H3444 C3454 0.950 . S
H3445 C3456 0.950 . S
H3446 C3458 0.950 . S
H3447 C3459 0.950 . S
C3448 H3440 0.950 . S
C3448 C3449 1.386 . S
C3448 C3450 1.391 . S
C3449 C3448 1.386 . S
C3449 C3453 1.393 . S
C3450 H3442 0.950 . S
C3450 C3448 1.391 . S
C3450 C3451 1.400 . S
C3451 C3450 1.400 . S
C3451 C3452 1.398 . S
C3451 C3457 1.491 . S
C3452 H3443 0.950 . S
C3452 C3451 1.398 . S
C3452 C3453 1.391 . S
C3453 H3441 0.950 . S
C3453 C3449 1.393 . S
C3453 C3452 1.391 . S
C3454 H3444 0.950 . S
C3454 C3455 1.386 . S
C3454 C3456 1.391 . S
C3455 C3454 1.386 . S
C3455 C3459 1.393 . S
C3456 H3445 0.950 . S
C3456 C3454 1.391 . S
C3456 C3457 1.400 . S
C3457 C3451 1.491 . S
C3457 C3456 1.400 . S
C3457 C3458 1.398 . S
C3458 H3446 0.950 . S
C3458 C3457 1.398 . S
C3458 C3459 1.391 . S
C3459 H3447 0.950 . S
C3459 C3455 1.393 . S
C3459 C3458 1.391 . S
H3460 C3468 0.950 . S
H3461 C3473 0.950 . S
H3462 C3470 0.950 . S
H3463 C3472 0.950 . S
H3464 C3474 0.961 . S
H3465 C3476 0.950 . S
H3466 C3478 0.950 . S
H3467 C3479 0.950 . S
C3468 H3460 0.950 . S
C3468 C3469 1.386 . S
C3468 C3470 1.391 . S
C3469 C3468 1.386 . S
C3469 C3473 1.393 . S
C3470 H3462 0.950 . S
C3470 C3468 1.391 . S
C3470 C3471 1.400 . S
C3471 C3470 1.400 . S
C3471 C3472 1.398 . S
C3471 C3477 1.491 . S
C3472 H3463 0.950 . S
C3472 C3471 1.398 . S
C3472 C3473 1.391 . S
C3473 H3461 0.950 . S
C3473 C3469 1.393 . S
C3473 C3472 1.391 . S
C3474 H3464 0.961 . S
C3474 C3475 1.386 . S
C3474 C3476 1.391 . S
C3475 C3474 1.386 . S
C3475 C3479 1.393 1_565 S
C3476 H3465 0.950 . S
C3476 C3474 1.391 . S
C3476 C3477 1.400 . S
C3477 C3471 1.491 . S
C3477 C3476 1.400 . S
C3477 C3478 1.398 . S
C3478 H3466 0.950 . S
C3478 C3477 1.398 . S
C3478 C3479 1.391 1_565 S
C3479 H3467 0.950 . S
C3479 C3475 1.393 1_545 S
C3479 C3478 1.391 1_545 S
H3480 C3488 0.950 . S
H3481 C3493 0.950 . S
H3482 C3490 0.950 . S
H3483 C3492 0.950 . S
H3484 C3494 0.950 . S
H3485 C3496 0.950 . S
H3486 C3498 0.950 . S
H3487 C3499 0.950 . S
C3488 H3480 0.950 . S
C3488 C3489 1.386 . S
C3488 C3490 1.391 . S
C3489 C3488 1.386 . S
C3489 C3493 1.393 . S
C3490 H3482 0.950 . S
C3490 C3488 1.391 . S
C3490 C3491 1.400 . S
C3491 C3490 1.400 . S
C3491 C3492 1.398 . S
C3491 C3497 1.491 . S
C3492 H3483 0.950 . S
C3492 C3491 1.398 . S
C3492 C3493 1.391 . S
C3493 H3481 0.950 . S
C3493 C3489 1.393 . S
C3493 C3492 1.391 . S
C3494 H3484 0.950 . S
C3494 C3495 1.386 . S
C3494 C3496 1.391 . S
C3495 C3494 1.386 . S
C3495 C3499 1.393 . S
C3496 H3485 0.950 . S
C3496 C3494 1.391 . S
C3496 C3497 1.400 . S
C3497 C3491 1.491 . S
C3497 C3496 1.400 . S
C3497 C3498 1.398 . S
C3498 H3486 0.950 . S
C3498 C3497 1.398 . S
C3498 C3499 1.391 . S
C3499 H3487 0.950 . S
C3499 C3495 1.393 . S
C3499 C3498 1.391 . S
H3500 C3508 0.950 1_556 S
H3501 C3513 0.950 . S
H3502 C3510 0.950 1_556 S
H3503 C3512 0.950 . S
H3504 C3514 0.950 . S
H3505 C3516 0.950 . S
H3506 C3518 0.921 1_556 S
H3507 C3519 0.954 . S
C3508 H3500 0.950 1_554 S
C3508 C3509 1.386 . S
C3508 C3510 1.391 . S
C3509 C3508 1.386 . S
C3509 C3513 1.393 . S
C3510 H3502 0.950 1_554 S
C3510 C3508 1.391 . S
C3510 C3511 1.400 . S
C3511 C3510 1.400 . S
C3511 C3512 1.398 . S
C3511 C3517 1.491 . S
C3512 H3503 0.950 . S
C3512 C3511 1.398 . S
C3512 C3513 1.391 . S
C3513 H3501 0.950 . S
C3513 C3509 1.393 . S
C3513 C3512 1.391 . S
C3514 H3504 0.950 . S
C3514 C3515 1.386 . S
C3514 C3516 1.391 . S
C3515 C3514 1.386 . S
C3515 C3519 1.388 1_554 S
C3516 H3505 0.950 . S
C3516 C3514 1.391 . S
C3516 C3517 1.400 . S
C3517 C3511 1.491 . S
C3517 C3516 1.400 . S
C3517 C3518 1.423 . S
C3518 H3506 0.921 1_554 S
C3518 C3517 1.423 . S
C3518 C3519 1.396 1_554 S
C3519 H3507 0.954 . S
C3519 C3515 1.388 1_556 S
C3519 C3518 1.396 1_556 S
H3520 C3528 0.950 . S
H3521 C3533 0.950 . S
H3522 C3530 0.950 . S
H3523 C3532 0.950 . S
H3524 C3534 0.950 . S
H3525 C3536 0.950 . S
H3526 C3538 0.950 . S
H3527 C3539 0.950 . S
C3528 H3520 0.950 . S
C3528 C3529 1.386 . S
C3528 C3530 1.391 . S
C3529 C3528 1.386 . S
C3529 C3533 1.393 . S
C3530 H3522 0.950 . S
C3530 C3528 1.391 . S
C3530 C3531 1.400 . S
C3531 C3530 1.400 . S
C3531 C3532 1.398 . S
C3531 C3537 1.491 . S
C3532 H3523 0.950 . S
C3532 C3531 1.398 . S
C3532 C3533 1.391 . S
C3533 H3521 0.950 . S
C3533 C3529 1.393 . S
C3533 C3532 1.391 . S
C3534 H3524 0.950 . S
C3534 C3535 1.386 . S
C3534 C3536 1.391 . S
C3535 C3534 1.386 . S
C3535 C3539 1.393 . S
C3536 H3525 0.950 . S
C3536 C3534 1.391 . S
C3536 C3537 1.400 . S
C3537 C3531 1.491 . S
C3537 C3536 1.400 . S
C3537 C3538 1.398 . S
C3538 H3526 0.950 . S
C3538 C3537 1.398 . S
C3538 C3539 1.391 . S
C3539 H3527 0.950 . S
C3539 C3535 1.393 . S
C3539 C3538 1.391 . S
H3540 C3548 0.950 . S
H3541 C3553 0.950 . S
H3542 C3550 0.950 . S
H3543 C3552 0.950 . S
H3544 C3554 0.950 . S
H3545 C3556 0.950 . S
H3546 C3558 0.950 . S
H3547 C3559 0.950 1_556 S
C3548 H3540 0.950 . S
C3548 C3549 1.386 . S
C3548 C3550 1.391 . S
C3549 C3548 1.386 . S
C3549 C3553 1.393 . S
C3550 H3542 0.950 . S
C3550 C3548 1.391 . S
C3550 C3551 1.400 . S
C3551 C3550 1.400 . S
C3551 C3552 1.398 . S
C3551 C3557 1.491 . S
C3552 H3543 0.950 . S
C3552 C3551 1.398 . S
C3552 C3553 1.391 . S
C3553 H3541 0.950 . S
C3553 C3549 1.393 . S
C3553 C3552 1.391 . S
C3554 H3544 0.950 . S
C3554 C3555 1.386 . S
C3554 C3556 1.391 . S
C3555 C3554 1.386 . S
C3555 C3559 1.393 . S
C3556 H3545 0.950 . S
C3556 C3554 1.391 . S
C3556 C3557 1.400 . S
C3557 C3551 1.491 . S
C3557 C3556 1.400 . S
C3557 C3558 1.398 . S
C3558 H3546 0.950 . S
C3558 C3557 1.398 . S
C3558 C3559 1.391 . S
C3559 H3547 0.950 1_554 S
C3559 C3555 1.393 . S
C3559 C3558 1.391 . S
H3560 C3568 0.950 . S
H3561 C3573 0.950 . S
H3562 C3570 0.950 . S
H3563 C3572 0.950 . S
H3564 C3574 0.950 . S
H3565 C3576 0.950 . S
H3566 C3578 0.950 . S
H3567 C3579 0.950 . S
C3568 H3560 0.950 . S
C3568 C3569 1.386 . S
C3568 C3570 1.391 . S
C3569 C3568 1.386 . S
C3569 C3573 1.393 . S
C3570 H3562 0.950 . S
C3570 C3568 1.391 . S
C3570 C3571 1.400 . S
C3571 C3570 1.400 . S
C3571 C3572 1.398 . S
C3571 C3577 1.491 . S
C3572 H3563 0.950 . S
C3572 C3571 1.398 . S
C3572 C3573 1.391 . S
C3573 H3561 0.950 . S
C3573 C3569 1.393 . S
C3573 C3572 1.391 . S
C3574 H3564 0.950 . S
C3574 C3575 1.386 . S
C3574 C3576 1.391 . S
C3575 C3574 1.386 . S
C3575 C3579 1.393 . S
C3576 H3565 0.950 . S
C3576 C3574 1.391 . S
C3576 C3577 1.400 . S
C3577 C3571 1.491 . S
C3577 C3576 1.400 . S
C3577 C3578 1.398 . S
C3578 H3566 0.950 . S
C3578 C3577 1.398 . S
C3578 C3579 1.391 . S
C3579 H3567 0.950 . S
C3579 C3575 1.393 . S
C3579 C3578 1.391 . S
H3580 C3588 0.950 . S
H3581 C3593 0.950 . S
H3582 C3590 0.950 . S
H3583 C3592 0.950 . S
H3584 C3594 0.950 . S
H3585 C3596 0.950 . S
H3586 C3598 0.950 . S
H3587 C3599 0.950 . S
C3588 H3580 0.950 . S
C3588 C3589 1.386 . S
C3588 C3590 1.391 . S
C3589 C3588 1.386 . S
C3589 C3593 1.393 . S
C3590 H3582 0.950 . S
C3590 C3588 1.391 . S
C3590 C3591 1.400 . S
C3591 C3590 1.400 . S
C3591 C3592 1.398 . S
C3591 C3597 1.491 . S
C3592 H3583 0.950 . S
C3592 C3591 1.398 . S
C3592 C3593 1.391 . S
C3593 H3581 0.950 . S
C3593 C3589 1.393 . S
C3593 C3592 1.391 . S
C3594 H3584 0.950 . S
C3594 C3595 1.386 . S
C3594 C3596 1.391 . S
C3595 C3594 1.386 . S
C3595 C3599 1.393 . S
C3596 H3585 0.950 . S
C3596 C3594 1.391 . S
C3596 C3597 1.400 . S
C3597 C3591 1.491 . S
C3597 C3596 1.400 . S
C3597 C3598 1.398 . S
C3598 H3586 0.950 . S
C3598 C3597 1.398 . S
C3598 C3599 1.391 . S
C3599 H3587 0.950 . S
C3599 C3595 1.393 . S
C3599 C3598 1.391 . S
C1689 C109 1.770 . S
C1695 C392 1.624 . S
C1709 C65 2.233 . S
C1715 C483 2.166 . S
C1729 C75 1.565 . S
C1735 C560 1.491 . S
C1755 C658 1.465 . S
C1749 C84 1.612 . S
C1769 C25 1.545 . S
C1775 C742 1.505 . S
C1795 C814 0.935 . S
C1789 C28 0.961 . S
C1815 C903 0.917 . S
C1809 C47 0.935 . S
C1829 C9 1.489 . S
C1835 C980 1.318 . S
C1855 C399 2.086 . S
C1849 C233 2.190 . S
C1869 C249 0.692 . S
C1875 C490 0.680 . S
C1895 C567 1.209 . S
C1889 C275 1.278 . S
C1915 C644 1.544 . S
C1909 C173 1.638 . S
C1929 C224 2.149 . S
C1935 C728 2.022 . S
C1955 C830 1.137 . S
C1949 C243 1.219 . S
C1975 C910 0.764 . S
C1969 C266 0.780 . S
C1995 C987 1.455 . S
C1989 C179 1.575 . S
C2015 C406 1.419 . S
C2009 C163 1.520 . S
C2029 C289 1.958 . S
C2035 C1071 1.877 1_556 S
C2055 C1159 2.193 . S
C2049 C333 2.359 . S
C2075 C1232 0.532 . S
C2069 C308 0.444 . S
C2089 C123 0.969 . S
C2095 C994 0.959 . S
C2109 C126 1.479 . S
C2115 C574 1.430 . S
C2129 C327 2.293 . S
C2135 C1323 2.191 . S
C2155 C1400 0.824 . S
C2149 C299 0.809 . S
C2175 C403 1.678 . S
C2169 C67 1.808 . S
C2195 C1418 2.190 . S
C2189 C98 2.201 . S
C2209 C89 1.598 . S
C2215 C571 1.522 . S
C2229 C79 1.668 . S
C2235 C1318 1.536 . S
C2255 C730 1.506 . S
C2249 C11 1.558 . S
C2269 C51 0.997 . S
C2275 C1162 0.925 . S
C2295 C914 0.991 . S
C2289 C33 0.990 . S
C2315 C1495 1.344 . S
C2309 C14 1.496 . S
C2335 C410 2.064 . S
C2329 C140 2.181 . S
C2355 C1402 0.697 . S
C2349 C319 0.666 . S
C2369 C112 1.275 . S
C2375 C578 1.226 . S
C2389 C285 1.664 . S
C2395 C1327 1.535 . S
C2409 C149 2.209 . S
C2415 C739 2.041 . S
C2435 C1155 1.180 . S
C2429 C313 1.255 . S
C2449 C121 0.844 . S
C2455 C898 0.824 . S
C2469 C291 1.618 . S
C2475 C1502 1.513 . S
C2489 C182 1.515 . S
C2495 C394 1.416 1_554 S
C2509 C168 1.949 . S
C2515 C1082 1.897 . S
C2529 C263 2.408 . S
C2535 C812 2.242 . S
C2549 C247 0.487 . S
C2555 C1243 0.606 . S
C2575 C1486 0.933 . S
C2569 C277 0.901 1_565 S
C2589 C219 1.518 . S
C2595 C562 1.465 . S
C2615 C662 2.241 . S
C2609 C257 2.331 . S
C2635 C487 0.784 . S
C2629 C201 0.810 . S
C2649 C81 1.769 . S
C2655 C1568 1.628 . S
C2675 C1407 2.172 . S
C2669 C93 2.231 . S
C2689 C103 1.575 . S
C2695 C1652 1.463 . S
C2709 C56 1.604 . S
C2715 C1330 1.494 . S
C2729 C53 1.533 . S
C2735 C1078 1.525 . S
C2755 C1150 0.912 . S
C2749 C0 0.960 . S
C2775 C1239 0.918 . S
C2769 C19 0.934 . S
C2795 C1484 1.342 . S
C2789 C37 1.509 . S
C2815 C1575 2.094 . S
C2809 C261 2.192 . S
C2829 C193 0.691 . S
C2835 C1414 0.688 . S
C2855 C1659 1.211 . S
C2849 C205 1.280 . S
C2875 C1316 1.517 . S
C2869 C215 1.641 . S
C2895 C1064 2.004 . S
C2889 C252 2.136 . S
C2909 C187 1.227 . S
C2915 C1166 1.138 . S
C2935 C1246 0.807 . S
C2929 C196 0.773 . S
C2949 C221 1.582 . S
C2955 C1491 1.461 . S
C2975 C1582 1.444 . S
C2969 C317 1.509 . S
C2989 C135 1.958 . S
C2995 C735 1.865 . S
C3015 C823 2.175 . S
C3009 C151 2.359 . S
C3035 C896 0.497 . S
C3029 C154 0.426 . S
C3055 C1498 0.957 . S
C3049 C305 0.971 . S
C3069 C280 1.470 . S
C3075 C1666 1.443 . S
C3095 C651 2.193 . S
C3089 C145 2.286 . S
C3115 C476 0.774 . S
C3109 C117 0.802 . S
C3129 C95 1.798 . S
C3135 C1579 1.648 . S
C3155 C494 2.191 . S
C3149 C70 2.189 . S
C3169 C61 1.606 . S
C3175 C1663 1.497 . S
C3189 C107 1.667 . S
C3195 C646 1.540 . S
C3209 C39 1.547 . S
C3215 C1066 1.522 . S
C3235 C826 0.929 . S
C3229 C23 0.998 . S
C3249 C5 0.964 . S
C3255 C1250 1.011 . S
C3269 C42 1.500 . S
C3275 C991 1.354 . S
C3295 C1586 2.070 . S
C3289 C322 2.181 . S
C3309 C165 0.691 . S
C3315 C478 0.719 . S
C3335 C1670 1.231 . S
C3329 C294 1.254 . S
C3349 C131 1.659 . S
C3355 C655 1.555 . S
C3369 C331 2.214 . S
C3375 C1075 2.046 . S
C3395 C819 1.158 . S
C3389 C159 1.255 . S
C3409 C303 0.836 . S
C3415 C1234 0.812 1_655 S
C3435 C998 1.499 . S
C3429 C137 1.618 . S
C3455 C1570 1.405 . S
C3449 C238 1.517 . S
C3475 C746 1.882 1_665 S
C3469 C210 1.954 . S
C3489 C235 2.400 . S
C3495 C1148 2.238 . S
C3515 C907 0.528 . S
C3509 C191 0.508 . S
C3529 C207 0.925 . S
C3535 C982 0.913 . S
C3549 C177 1.520 . S
C3555 C1654 1.459 1_554 S
C3575 C1334 2.230 . S
C3569 C229 2.333 1_565 S
C3595 C1411 0.821 . S
C3589 C271 0.809 . S
