# Generated by pormake.
# Topology pth, (4,4)-cn, num edge types: 1
# Building blocks:
#     Node 0, Type 0, BuildingBlock: QUQFOY_clean_sbu_3, # of connection points: 4
#     Node 1, Type 0, BuildingBlock: QUQFOY_clean_sbu_3, # of connection points: 4
#     Node 2, Type 0, BuildingBlock: QUQFOY_clean_sbu_3, # of connection points: 4
#     Node 3, Type 1, BuildingBlock: MUDLON_clean_sbu_0, # of connection points: 4
#     Node 4, Type 1, BuildingBlock: MUDLON_clean_sbu_0, # of connection points: 4
#     Node 5, Type 1, BuildingBlock: MUDLON_clean_sbu_0, # of connection points: 4
#     Edge 6, Type (0, 1), BuildingBlock: EZIPEK_clean_linker_0, # of connection points: 2
#     Edge 7, Type (0, 1), BuildingBlock: EZIPEK_clean_linker_0, # of connection points: 2
#     Edge 8, Type (0, 1), BuildingBlock: EZIPEK_clean_linker_0, # of connection points: 2
#     Edge 9, Type (0, 1), BuildingBlock: EZIPEK_clean_linker_0, # of connection points: 2
#     Edge 10, Type (0, 1), BuildingBlock: EZIPEK_clean_linker_0, # of connection points: 2
#     Edge 11, Type (0, 1), BuildingBlock: EZIPEK_clean_linker_0, # of connection points: 2
#     Edge 12, Type (0, 1), BuildingBlock: EZIPEK_clean_linker_0, # of connection points: 2
#     Edge 13, Type (0, 1), BuildingBlock: EZIPEK_clean_linker_0, # of connection points: 2
#     Edge 14, Type (0, 1), BuildingBlock: EZIPEK_clean_linker_0, # of connection points: 2
#     Edge 15, Type (0, 1), BuildingBlock: EZIPEK_clean_linker_0, # of connection points: 2
#     Edge 16, Type (0, 1), BuildingBlock: EZIPEK_clean_linker_0, # of connection points: 2
#     Edge 17, Type (0, 1), BuildingBlock: EZIPEK_clean_linker_0, # of connection points: 2
# Relax obj value: 0.015
# Max RMSD: 0.070
# Mean RMSD: 0.054
data_MOF--net-pth--node1-QUQFOY_clean_sbu_3--node2-MUDLON_clean_sbu_0--edge1-EZIPEK_clean_linker_0
_symmetry_space_group_name_H-M    P1
_symmetry_Int_Tables_number       1
_symmetry_cell_setting            triclinic
loop_
_symmetry_equiv_pos_as_xyz
'x, y, z'
_cell_length_a     17.119864
_cell_length_b     17.018036
_cell_length_c     45.992275
_cell_angle_alpha  90.268395
_cell_angle_beta   89.79487
_cell_angle_gamma 120.31788
loop_
_atom_site_label
_atom_site_type_symbol
_atom_site_fract_x
_atom_site_fract_y
_atom_site_fract_z
_atom_type_partial_charge
C0 C 0.04817 0.25777 0.11467 0.0
O1 O 0.01563 0.27353 0.0922 0.0
Cd2 Cd -0.00332 0.19019 0.04803 0.0
O3 O 0.06471 0.19274 0.1148 0.0
Cd4 Cd 0.04285 0.06589 0.08203 0.0
C5 C 0.2087 0.21863 0.03879 0.0
O6 O 0.90225 0.02864 0.05536 0.0
O7 O 0.98547 0.9781 0.03741 0.0
O8 O 0.96923 0.96657 0.1237 0.0
C9 C 0.91167 0.97861 0.03676 0.0
O10 O 0.14864 0.23696 0.03074 0.0
C11 C 0.01929 0.93151 0.12413 0.0
O12 O 0.19245 0.16106 0.05891 0.0
O13 O 0.08052 0.95785 0.10473 0.0
C14 C 0.24971 0.18991 0.45425 0.0
O15 O 0.28751 0.24468 0.4333 0.0
Cd16 Cd 0.2073 0.24145 0.39019 0.0
O17 O 0.16422 0.13514 0.45443 0.0
Cd18 Cd 0.02636 0.09671 0.42445 0.0
C19 C 0.10901 0.01286 0.37268 0.0
O20 O 0.07495 0.24717 0.40401 0.0
O21 O 0.95674 0.13452 0.38434 0.0
O22 O 0.94985 0.10449 0.46827 0.0
C23 C 0.0108 0.21964 0.38579 0.0
O24 O 0.16878 0.09545 0.3677 0.0
C25 C 0.88028 0.02592 0.46579 0.0
O26 O 0.04982 -0.00741 0.39264 0.0
O27 O 0.87864 0.97763 0.44435 0.0
C28 C 0.90441 0.13792 0.72429 0.0
O29 O 0.89778 0.16956 0.74865 0.0
Cd30 Cd 0.98534 0.17619 0.79045 0.0
O31 O 0.95819 0.10725 0.72099 0.0
Cd32 Cd 0.06925 0.08387 0.74875 0.0
C33 C 0.91709 0.95009 0.80064 0.0
O34 O 0.13654 0.23108 0.77344 0.0
O35 O 0.18231 0.14094 0.78819 0.0
O36 O 0.16941 0.1211 0.70653 0.0
C37 C 0.18794 0.2181 0.78994 0.0
O38 O 0.91782 0.02134 0.80967 0.0
C39 C 0.15798 0.04189 0.70305 0.0
O40 O 0.96163 0.95218 0.77811 0.0
O41 O 0.10696 0.98199 0.72132 0.0
Mg42 Mg 0.04699 0.59299 0.25307 0.0
C43 C 0.0385 0.48488 0.30247 0.0
O44 O 0.12139 0.55477 0.30191 0.0
C45 C 0.97169 0.69753 0.22154 0.0
O46 O 0.99053 0.74193 0.24626 0.0
C47 C 0.05468 0.47429 0.21149 0.0
O48 O 0.96945 0.44474 0.21792 0.0
O49 O 0.11574 0.54455 0.22468 0.0
O50 O 0.98163 0.48051 0.28377 0.0
O51 O 0.1228 0.71482 0.27991 0.0
C52 C 0.07372 0.72059 0.29973 0.0
O53 O 0.98963 0.65397 0.30246 0.0
O54 O 0.97455 0.62438 0.22012 0.0
Mg55 Mg 0.54185 0.08318 0.58305 0.0
C56 C 0.50377 0.16931 0.53201 0.0
O57 O 0.55241 0.13994 0.51886 0.0
C58 C 0.64709 0.09154 0.63474 0.0
O59 O 0.5693 0.01586 0.638 0.0
C60 C 0.34719 0.99134 0.60618 0.0
O61 O 0.32424 0.98805 0.57879 0.0
O62 O 0.4272 0.01058 0.61237 0.0
O63 O 0.4993 0.16708 0.55965 0.0
O64 O 0.5837 0.02172 0.54907 0.0
C65 C 0.60877 0.96354 0.55189 0.0
O66 O 0.59298 0.91852 0.57634 0.0
O67 O 0.65749 0.1423 0.61299 0.0
Mg68 Mg 0.56796 0.56479 0.91925 0.0
C69 C 0.42913 0.4461 0.8788 0.0
O70 O 0.47261 0.40401 0.88619 0.0
C71 C 0.66616 0.75351 0.94604 0.0
O72 O 0.69996 0.77585 0.91972 0.0
C73 C 0.53272 0.44823 0.97338 0.0
O74 O 0.60265 0.52172 0.98397 0.0
O75 O 0.51717 0.44308 0.94621 0.0
O76 O 0.4535 0.52378 0.88999 0.0
O77 O 0.69111 0.62192 0.89266 0.0
C78 C 0.68624 0.6198 0.86504 0.0
O79 O 0.61049 0.55972 0.85253 0.0
O80 O 0.60121 0.67314 0.95081 0.0
C81 C 0.0216 0.27272 0.16785 0.0
C82 C 0.06442 0.31424 0.1412 0.0
C83 C 0.11686 0.46549 0.16249 0.0
C84 C 0.07497 0.42375 0.18919 0.0
N85 N 0.01057 0.29095 0.21971 0.0
N86 N 0.17344 0.44932 0.11575 0.0
C87 C 0.03538 0.32835 0.19262 0.0
C88 C 0.1188 0.41052 0.13937 0.0
N89 N 0.96252 0.18095 0.16912 0.0
N90 N 0.14969 0.55639 0.15845 0.0
H91 H 0.17747 0.41098 0.09866 0.0
H92 H 0.22115 0.51845 0.11445 0.0
H93 H 0.15052 0.59941 0.17479 0.0
H94 H 0.17051 0.58803 0.13829 0.0
H95 H 0.92176 0.1489 0.18711 0.0
H96 H 0.94755 0.13736 0.15139 0.0
H97 H 0.98994 0.22322 0.22412 0.0
H98 H 0.0193 0.33002 0.23825 0.0
C99 C 0.82651 -0.00337 0.51734 0.0
C100 C 0.80548 -0.00672 0.48744 0.0
C101 C 0.64835 0.94602 0.50046 0.0
C102 C 0.67371 0.96402 0.53016 0.0
N103 N 0.79339 0.02432 0.56608 0.0
N104 N 0.6978 0.97354 0.45019 0.0
C105 C 0.76426 -0.00692 0.53852 0.0
C106 C 0.71637 0.96911 0.47881 0.0
N107 N 0.9059 0.00245 0.52557 0.0
N108 N 0.55912 0.90632 0.49301 0.0
H109 H 0.74547 0.99088 0.43366 0.0
H110 H 0.63717 0.96708 0.44304 0.0
H111 H 0.50795 0.88863 0.50838 0.0
H112 H 0.53515 0.88334 0.47208 0.0
H113 H 0.92083 -0.00374 0.54709 0.0
H114 H 0.95241 0.00352 0.51061 0.0
H115 H 0.86105 0.05519 0.57229 0.0
H116 H 0.75239 0.02885 0.58197 0.0
C117 C 0.8969 0.81362 0.82887 0.0
C118 C 0.85897 0.86265 0.81594 0.0
C119 C 0.71288 0.759 0.83847 0.0
C120 C 0.74759 0.70407 0.84874 0.0
N121 N 0.86955 0.67262 0.85122 0.0
N122 N 0.72585 0.86904 0.80291 0.0
C123 C 0.83887 0.72949 0.84321 0.0
C124 C 0.76544 0.83147 0.81912 0.0
N125 N 0.98853 0.84932 0.82861 0.0
N126 N 0.63135 0.74496 0.84831 0.0
H127 H 0.76141 0.9206 0.78777 0.0
H128 H 0.6561 0.84244 0.80221 0.0
H129 H 0.59246 0.69566 0.86371 0.0
H130 H 0.60721 0.78882 0.84373 0.0
H131 H 0.02098 0.82172 0.84025 0.0
H132 H 0.03314 0.91098 0.81864 0.0
H133 H 0.93247 0.6824 0.8451 0.0
H134 H 0.82914 0.61175 0.86227 0.0
C135 C 0.92287 0.78597 0.15171 0.0
C136 C 0.0085 0.8657 0.14718 0.0
C137 C 0.07182 0.82099 0.18721 0.0
C138 C 0.98373 0.74938 0.19443 0.0
N139 N 0.82386 0.6652 0.18486 0.0
N140 N 0.16132 0.96679 0.1638 0.0
C141 C 0.90871 0.73187 0.17694 0.0
C142 C 0.08246 0.88498 0.16561 0.0
N143 N 0.85618 0.76039 0.13139 0.0
N144 N 0.14575 0.82685 0.20062 0.0
H145 H 0.17176 0.01721 0.14893 0.0
H146 H 0.21338 0.98835 0.17893 0.0
H147 H 0.14094 0.78035 0.21625 0.0
H148 H 0.212 0.87198 0.19414 0.0
H149 H 0.79536 0.69869 0.132 0.0
H150 H 0.86496 0.79711 0.11236 0.0
H151 H 0.76507 0.65562 0.17496 0.0
H152 H 0.81202 0.62281 0.20267 0.0
C153 C 0.36619 0.25972 0.49414 0.0
C154 C 0.30777 0.18274 0.47685 0.0
C155 C 0.3656 0.09402 0.50086 0.0
C156 C 0.43266 0.17409 0.51501 0.0
N157 N 0.50097 0.33468 0.52438 0.0
N158 N 0.26243 0.03051 0.46038 0.0
C159 C 0.43369 0.25738 0.51167 0.0
C160 C 0.30963 0.1006 0.47949 0.0
N161 N 0.35554 0.33408 0.49429 0.0
N162 N 0.35401 0.01102 0.50826 0.0
H163 H 0.22236 0.03282 0.44381 0.0
H164 H 0.26978 0.97344 0.45913 0.0
H165 H 0.3932 0.00281 0.52392 0.0
H166 H 0.29971 0.94958 0.50104 0.0
H167 H 0.38993 0.38905 0.50839 0.0
H168 H 0.30623 0.33732 0.48194 0.0
H169 H 0.5118 0.39952 0.52021 0.0
H170 H 0.54992 0.33456 0.53779 0.0
C171 C 0.21965 0.25657 0.84286 0.0
C172 C 0.24051 0.28371 0.81339 0.0
C173 C 0.36308 0.43369 0.82918 0.0
C174 C 0.35305 0.40012 0.85793 0.0
N175 N 0.26982 0.28215 0.89307 0.0
N176 N 0.3331 0.39699 0.7779 0.0
C177 C 0.28003 0.31247 0.86506 0.0
C178 C 0.3115 0.37266 0.80637 0.0
N179 N 0.14068 0.17877 0.84963 0.0
N180 N 0.42214 0.52352 0.82367 0.0
H181 H 0.29709 0.35434 0.76059 0.0
H182 H 0.3906 0.45666 0.77132 0.0
H183 H 0.45992 0.56982 0.83993 0.0
H184 H 0.42693 0.55414 0.80369 0.0
H185 H 0.11719 0.15949 0.87078 0.0
H186 H 0.09399 0.13731 0.83393 0.0
H187 H 0.22601 0.21497 0.89916 0.0
H188 H 0.30812 0.32415 0.91025 0.0
C189 C 0.78856 0.04368 0.68676 0.0
C190 C 0.84366 0.12971 0.70002 0.0
C191 C 0.77165 0.19448 0.66992 0.0
C192 C 0.72231 0.11002 0.655 0.0
N193 N 0.70522 0.96298 0.64406 0.0
N194 N 0.90206 0.29181 0.69982 0.0
C195 C 0.73758 0.03746 0.66181 0.0
C196 C 0.83962 0.20673 0.69028 0.0
N197 N 0.78031 0.96655 0.69886 0.0
N198 N 0.75076 0.26127 0.66595 0.0
H199 H 0.95371 0.30354 0.71427 0.0
H200 H 0.90792 0.35113 0.69126 0.0
H201 H 0.70066 0.25478 0.65169 0.0
H202 H 0.77774 0.32001 0.67867 0.0
H203 H 0.73345 0.9013 0.69162 0.0
H204 H 0.81252 0.96656 0.71805 0.0
H205 H 0.72267 0.91287 0.64642 0.0
H206 H 0.66944 0.95636 0.62511 0.0
C207 C 0.81607 0.82733 0.01305 0.0
C208 C 0.83924 0.91959 0.01583 0.0
C209 C 0.73378 0.8971 0.97614 0.0
C210 C 0.72177 0.80957 0.97086 0.0
N211 N 0.77145 0.70177 0.97989 0.0
N212 N 0.82875 0.04667 0.99722 0.0
C213 C 0.76799 0.77718 0.98818 0.0
C214 C 0.79973 0.95573 0.99682 0.0
N215 N 0.83822 0.78667 0.03448 0.0
N216 N 0.68192 0.92395 0.96151 0.0
H217 H 0.87812 0.09237 0.01145 0.0
H218 H 0.80954 0.07821 0.98178 0.0
H219 H 0.63412 0.88288 0.94599 0.0
H220 H 0.68088 0.98318 0.96649 0.0
H221 H 0.81549 0.71713 0.0346 0.0
H222 H 0.87024 0.82004 0.0537 0.0
H223 H 0.81187 0.68095 0.99033 0.0
H224 H 0.7422 0.6659 0.96076 0.0
C225 C 0.11096 0.94842 0.32347 0.0
C226 C 0.10796 0.93999 0.35426 0.0
C227 C 0.09813 0.79143 0.34919 0.0
C228 C 0.10512 0.80236 0.31852 0.0
N229 N 0.14683 0.90421 0.27757 0.0
N230 N 0.12045 0.86315 0.39648 0.0
C231 C 0.1216 0.88535 0.30604 0.0
C232 C 0.10783 0.8642 0.36719 0.0
N233 N 0.09724 0.01275 0.31063 0.0
N234 N 0.08134 0.7109 0.36111 0.0
H235 H 0.12932 0.91561 0.41032 0.0
H236 H 0.13037 0.81443 0.40671 0.0
H237 H 0.08167 0.65926 0.34887 0.0
H238 H 0.06341 0.69387 0.38281 0.0
H239 H 0.0894 0.01563 0.28827 0.0
H240 H 0.08297 0.0565 0.32236 0.0
H241 H 0.16734 0.96734 0.26819 0.0
H242 H 0.15762 0.86109 0.26422 0.0
C243 C 0.24452 0.97047 0.6814 0.0
C244 C 0.19888 0.02018 0.67781 0.0
C245 C 0.25195 0.0527 0.6274 0.0
C246 C 0.28951 -0.00492 0.62992 0.0
N247 N 0.30286 0.88277 0.65784 0.0
N248 N 0.13583 0.08256 0.64434 0.0
C249 C 0.27975 0.94865 0.65648 0.0
C250 C 0.19515 0.05299 0.64985 0.0
N251 N 0.2591 0.94845 0.70858 0.0
N252 N 0.27525 0.11258 0.60485 0.0
H253 H 0.0894 0.07953 0.65969 0.0
H254 H 0.12548 0.0996 0.62353 0.0
H255 H 0.32295 0.12204 0.58907 0.0
H256 H 0.25558 0.16136 0.60391 0.0
H257 H 0.30003 0.92054 0.71245 0.0
H258 H 0.2383 0.96641 0.72753 0.0
H259 H 0.28938 0.84099 0.67588 0.0
H260 H 0.32676 0.86354 0.63986 0.0
C261 C 0.34659 0.36885 0.03054 0.0
C262 C 0.30082 0.2735 0.02628 0.0
C263 C 0.41959 0.29194 0.9921 0.0
C264 C 0.45695 0.3878 0.99307 0.0
N265 N 0.44223 0.51584 0.00899 0.0
N266 N 0.28939 0.1426 0.00184 0.0
C267 C 0.4175 0.42612 0.01139 0.0
C268 C 0.33663 0.23423 0.00697 0.0
N269 N 0.32212 0.40478 0.05304 0.0
N270 N 0.46399 0.25637 0.97727 0.0
H271 H 0.22964 0.0985 0.01279 0.0
H272 H 0.3063 0.11106 0.98556 0.0
H273 H 0.5246 0.29698 0.9662 0.0
H274 H 0.44506 0.18786 0.97795 0.0
H275 H 0.35881 0.4733 0.05891 0.0
H276 H 0.27097 0.36432 0.06774 0.0
H277 H 0.40833 0.54409 0.01965 0.0
H278 H 0.4894 0.56013 0.99398 0.0
C279 C 0.96517 0.33103 0.3688 0.0
C280 C 0.01 0.28141 0.36332 0.0
C281 C 0.06415 0.35781 0.31633 0.0
C282 C 0.01882 0.40714 0.32164 0.0
N283 N 0.91577 0.43271 0.35028 0.0
N284 N 0.0885 0.23452 0.33031 0.0
C285 C 0.9655 0.39073 0.34702 0.0
C286 C 0.05513 0.29073 0.33653 0.0
N287 N 0.92469 0.32284 0.39519 0.0
N288 N 0.11822 0.37722 0.29231 0.0
H289 H 0.08626 0.18708 0.34504 0.0
H290 H 0.11271 0.23 0.30995 0.0
H291 H 0.12252 0.42178 0.27606 0.0
H292 H 0.16244 0.3529 0.289 0.0
H293 H 0.89879 0.36355 0.40201 0.0
H294 H 0.92107 0.27781 0.41118 0.0
H295 H 0.8691 0.4182 0.36689 0.0
H296 H 0.9166 0.47837 0.33506 0.0
loop_
_geom_bond_atom_site_label_1
_geom_bond_atom_site_label_2
_geom_bond_distance
_geom_bond_site_symmetry_2
_ccdc_geom_bond_type
C0 O1 1.306 . S
C0 O3 1.160 . S
O1 C0 1.306 . S
O1 Cd2 2.228 1_455 S
Cd2 O1 2.228 1_655 S
Cd2 O6 2.273 . S
Cd2 O10 2.277 1_655 S
O3 C0 1.160 . S
O3 Cd4 2.203 . S
Cd4 O3 2.203 . S
Cd4 O6 2.411 1_455 S
Cd4 O7 2.333 1_545 S
Cd4 O8 2.352 1_545 S
Cd4 O12 2.277 . S
Cd4 O13 2.356 1_545 S
C5 O10 1.209 . S
C5 O12 1.226 . S
O6 Cd2 2.273 . S
O6 Cd4 2.411 1_655 S
O6 C9 1.320 1_545 S
O7 Cd4 2.333 1_565 S
O7 C9 1.214 1_455 S
O8 Cd4 2.352 1_565 S
O8 C11 1.258 . S
C9 O6 1.320 1_565 S
C9 O7 1.214 1_655 S
O10 Cd2 2.277 1_455 S
O10 C5 1.209 . S
C11 O8 1.258 . S
C11 O13 1.282 . S
O12 Cd4 2.277 . S
O12 C5 1.226 . S
O13 Cd4 2.356 1_565 S
O13 C11 1.282 . S
C14 O15 1.306 . S
C14 O17 1.160 . S
O15 C14 1.306 . S
O15 Cd16 2.228 . S
Cd16 O15 2.228 . S
Cd16 O20 2.273 . S
Cd16 O24 2.277 . S
O17 C14 1.160 . S
O17 Cd18 2.203 . S
Cd18 O17 2.203 . S
Cd18 O20 2.411 . S
Cd18 O21 2.333 1_455 S
Cd18 O22 2.352 1_455 S
Cd18 O26 2.277 1_445 S
Cd18 O27 2.356 1_455 S
C19 O24 1.209 1_565 S
C19 O26 1.226 1_455 S
O20 Cd16 2.273 . S
O20 Cd18 2.411 . S
O20 C23 1.320 . S
O21 Cd18 2.333 1_655 S
O21 C23 1.214 1_655 S
O22 Cd18 2.352 1_655 S
O22 C25 1.258 . S
C23 O20 1.320 . S
C23 O21 1.214 1_455 S
O24 Cd16 2.277 . S
O24 C19 1.209 1_545 S
C25 O22 1.258 . S
C25 O27 1.282 . S
O26 Cd18 2.277 1_665 S
O26 C19 1.226 1_655 S
O27 Cd18 2.356 1_655 S
O27 C25 1.282 . S
C28 O29 1.306 . S
C28 O31 1.160 . S
O29 C28 1.306 . S
O29 Cd30 2.228 . S
Cd30 O29 2.228 . S
Cd30 O34 2.273 1_655 S
Cd30 O38 2.277 . S
O31 C28 1.160 . S
O31 Cd32 2.203 1_655 S
Cd32 O31 2.203 1_455 S
Cd32 O34 2.411 . S
Cd32 O35 2.333 . S
Cd32 O36 2.352 . S
Cd32 O40 2.277 1_445 S
Cd32 O41 2.356 . S
C33 O38 1.209 1_565 S
C33 O40 1.226 . S
O34 Cd30 2.273 1_455 S
O34 Cd32 2.411 . S
O34 C37 1.320 . S
O35 Cd32 2.333 . S
O35 C37 1.214 . S
O36 Cd32 2.352 . S
O36 C39 1.258 . S
C37 O34 1.320 . S
C37 O35 1.214 . S
O38 Cd30 2.277 . S
O38 C33 1.209 1_545 S
C39 O36 1.258 . S
C39 O41 1.282 . S
O40 Cd32 2.277 1_665 S
O40 C33 1.226 . S
O41 Cd32 2.356 . S
O41 C39 1.282 . S
Mg42 O49 2.141 . S
Mg42 O50 2.048 . S
Mg42 O51 2.048 . S
Mg42 O54 2.141 . S
C43 O44 1.313 1_455 S
C43 O50 1.195 . S
O44 C43 1.313 1_655 S
C45 O46 1.245 1_455 S
C45 O54 1.289 . S
O46 C45 1.245 1_655 S
C47 O48 1.245 1_455 S
C47 O49 1.289 . S
O48 C47 1.245 1_655 S
O49 Mg42 2.141 . S
O49 C47 1.289 . S
O50 Mg42 2.048 . S
O50 C43 1.195 . S
O51 Mg42 2.048 . S
O51 C52 1.195 . S
C52 O51 1.195 . S
C52 O53 1.313 1_455 S
O53 C52 1.313 1_655 S
O54 Mg42 2.141 . S
O54 C45 1.289 . S
Mg55 O62 2.141 . S
Mg55 O63 2.048 . S
Mg55 O64 2.048 . S
Mg55 O67 2.141 . S
C56 O57 1.313 1_545 S
C56 O63 1.195 . S
O57 C56 1.313 1_565 S
C58 O59 1.245 1_545 S
C58 O67 1.289 . S
O59 C58 1.245 1_565 S
C60 O61 1.245 1_545 S
C60 O62 1.289 . S
O61 C60 1.245 1_565 S
O62 Mg55 2.141 . S
O62 C60 1.289 . S
O63 Mg55 2.048 . S
O63 C56 1.195 . S
O64 Mg55 2.048 . S
O64 C65 1.195 . S
C65 O64 1.195 . S
C65 O66 1.313 1_545 S
O66 C65 1.313 1_565 S
O67 Mg55 2.141 . S
O67 C58 1.289 . S
Mg68 O75 2.141 . S
Mg68 O76 2.048 . S
Mg68 O77 2.048 . S
Mg68 O80 2.141 . S
C69 O70 1.313 . S
C69 O76 1.195 . S
O70 C69 1.313 . S
C71 O72 1.245 . S
C71 O80 1.289 . S
O72 C71 1.245 . S
C73 O74 1.245 . S
C73 O75 1.289 . S
O74 C73 1.245 . S
O75 Mg68 2.141 . S
O75 C73 1.289 . S
O76 Mg68 2.048 . S
O76 C69 1.195 . S
O77 Mg68 2.048 . S
O77 C78 1.195 . S
C78 O77 1.195 . S
C78 O79 1.313 . S
O79 C78 1.313 . S
O80 Mg68 2.141 . S
O80 C71 1.289 . S
C81 C82 1.363 . S
C81 C87 1.379 . S
C81 N89 1.356 1_455 S
C82 C81 1.363 . S
C82 C88 1.363 . S
C83 C84 1.363 . S
C83 C88 1.379 . S
C83 N90 1.356 . S
C84 C83 1.363 . S
C84 C87 1.363 . S
N85 C87 1.356 1_655 S
N85 H97 0.984 . S
N85 H98 0.985 . S
N86 C88 1.356 . S
N86 H91 0.984 . S
N86 H92 0.985 . S
C87 C81 1.379 . S
C87 C84 1.363 . S
C87 N85 1.356 1_455 S
C88 C82 1.363 . S
C88 C83 1.379 . S
C88 N86 1.356 . S
N89 C81 1.356 1_655 S
N89 H95 0.984 . S
N89 H96 0.984 . S
N90 C83 1.356 . S
N90 H93 0.984 . S
N90 H94 0.985 . S
H91 N86 0.984 . S
H92 N86 0.985 . S
H93 N90 0.984 . S
H94 N90 0.985 . S
H95 N89 0.984 . S
H96 N89 0.984 . S
H97 N85 0.984 . S
H98 N85 0.985 . S
C99 C100 1.363 . S
C99 C105 1.379 . S
C99 N107 1.356 . S
C100 C99 1.363 . S
C100 C106 1.363 . S
C101 C102 1.363 . S
C101 C106 1.379 . S
C101 N108 1.356 1_545 S
C102 C101 1.363 . S
C102 C105 1.363 . S
N103 C105 1.356 . S
N103 H115 0.984 . S
N103 H116 0.985 . S
N104 C106 1.356 1_565 S
N104 H109 0.984 . S
N104 H110 0.985 . S
C105 C99 1.379 . S
C105 C102 1.363 . S
C105 N103 1.356 . S
C106 C100 1.363 . S
C106 C101 1.379 . S
C106 N104 1.356 1_545 S
N107 C99 1.356 . S
N107 H113 0.984 1_655 S
N107 H114 0.984 . S
N108 C101 1.356 1_565 S
N108 H111 0.984 . S
N108 H112 0.985 . S
H109 N104 0.984 . S
H110 N104 0.985 . S
H111 N108 0.984 . S
H112 N108 0.985 . S
H113 N107 0.984 1_455 S
H114 N107 0.984 . S
H115 N103 0.984 . S
H116 N103 0.985 . S
C117 C118 1.363 . S
C117 C123 1.379 . S
C117 N125 1.356 . S
C118 C117 1.363 . S
C118 C124 1.363 . S
C119 C120 1.363 . S
C119 C124 1.379 . S
C119 N126 1.356 . S
C120 C119 1.363 . S
C120 C123 1.363 . S
N121 C123 1.356 . S
N121 H133 0.984 . S
N121 H134 0.985 . S
N122 C124 1.356 . S
N122 H127 0.984 . S
N122 H128 0.985 . S
C123 C117 1.379 . S
C123 C120 1.363 . S
C123 N121 1.356 . S
C124 C118 1.363 . S
C124 C119 1.379 . S
C124 N122 1.356 . S
N125 C117 1.356 . S
N125 H131 0.984 1_655 S
N125 H132 0.983 1_655 S
N126 C119 1.356 . S
N126 H129 0.984 . S
N126 H130 0.985 . S
H127 N122 0.984 . S
H128 N122 0.985 . S
H129 N126 0.984 . S
H130 N126 0.985 . S
H131 N125 0.984 1_455 S
H132 N125 0.983 1_455 S
H133 N121 0.984 . S
H134 N121 0.985 . S
C135 C136 1.363 . S
C135 C141 1.379 . S
C135 N143 1.356 1_455 S
C136 C135 1.363 . S
C136 C142 1.363 . S
C137 C138 1.363 . S
C137 C142 1.379 . S
C137 N144 1.356 . S
C138 C137 1.363 . S
C138 C141 1.363 . S
N139 C141 1.356 1_655 S
N139 H151 0.984 . S
N139 H152 0.985 . S
N140 C142 1.356 1_545 S
N140 H145 0.984 . S
N140 H146 0.985 . S
C141 C135 1.379 . S
C141 C138 1.363 . S
C141 N139 1.356 1_455 S
C142 C136 1.363 . S
C142 C137 1.379 . S
C142 N140 1.356 1_565 S
N143 C135 1.356 1_655 S
N143 H149 0.984 . S
N143 H150 0.984 . S
N144 C137 1.356 . S
N144 H147 0.984 . S
N144 H148 0.985 . S
H145 N140 0.984 . S
H146 N140 0.985 . S
H147 N144 0.984 . S
H148 N144 0.985 . S
H149 N143 0.984 . S
H150 N143 0.984 . S
H151 N139 0.984 . S
H152 N139 0.985 . S
C153 C154 1.363 . S
C153 C159 1.379 . S
C153 N161 1.356 . S
C154 C153 1.363 . S
C154 C160 1.363 . S
C155 C156 1.363 . S
C155 C160 1.379 . S
C155 N162 1.356 1_545 S
C156 C155 1.363 . S
C156 C159 1.363 . S
N157 C159 1.356 . S
N157 H169 0.984 . S
N157 H170 0.985 . S
N158 C160 1.356 1_565 S
N158 H163 0.984 . S
N158 H164 0.985 . S
C159 C153 1.379 . S
C159 C156 1.363 . S
C159 N157 1.356 . S
C160 C154 1.363 . S
C160 C155 1.379 . S
C160 N158 1.356 1_545 S
N161 C153 1.356 . S
N161 H167 0.984 . S
N161 H168 0.984 . S
N162 C155 1.356 1_565 S
N162 H165 0.984 . S
N162 H166 0.985 . S
H163 N158 0.984 . S
H164 N158 0.985 . S
H165 N162 0.984 . S
H166 N162 0.985 . S
H167 N161 0.984 . S
H168 N161 0.984 . S
H169 N157 0.984 . S
H170 N157 0.985 . S
C171 C172 1.363 . S
C171 C177 1.379 . S
C171 N179 1.356 . S
C172 C171 1.363 . S
C172 C178 1.363 . S
C173 C174 1.363 . S
C173 C178 1.379 . S
C173 N180 1.356 . S
C174 C173 1.363 . S
C174 C177 1.363 . S
N175 C177 1.356 . S
N175 H187 0.984 . S
N175 H188 0.985 . S
N176 C178 1.356 . S
N176 H181 0.984 . S
N176 H182 0.985 . S
C177 C171 1.379 . S
C177 C174 1.363 . S
C177 N175 1.356 . S
C178 C172 1.363 . S
C178 C173 1.379 . S
C178 N176 1.356 . S
N179 C171 1.356 . S
N179 H185 0.984 . S
N179 H186 0.984 . S
N180 C173 1.356 . S
N180 H183 0.984 . S
N180 H184 0.985 . S
H181 N176 0.984 . S
H182 N176 0.985 . S
H183 N180 0.984 . S
H184 N180 0.985 . S
H185 N179 0.984 . S
H186 N179 0.984 . S
H187 N175 0.984 . S
H188 N175 0.985 . S
C189 C190 1.363 . S
C189 C195 1.379 . S
C189 N197 1.356 1_545 S
C190 C189 1.363 . S
C190 C196 1.363 . S
C191 C192 1.363 . S
C191 C196 1.379 . S
C191 N198 1.356 . S
C192 C191 1.363 . S
C192 C195 1.363 . S
N193 C195 1.356 1_565 S
N193 H205 0.984 . S
N193 H206 0.985 . S
N194 C196 1.356 . S
N194 H199 0.984 . S
N194 H200 0.985 . S
C195 C189 1.379 . S
C195 C192 1.363 . S
C195 N193 1.356 1_545 S
C196 C190 1.363 . S
C196 C191 1.379 . S
C196 N194 1.356 . S
N197 C189 1.356 1_565 S
N197 H203 0.984 . S
N197 H204 0.984 . S
N198 C191 1.356 . S
N198 H201 0.984 . S
N198 H202 0.985 . S
H199 N194 0.984 . S
H200 N194 0.985 . S
H201 N198 0.984 . S
H202 N198 0.985 . S
H203 N197 0.984 . S
H204 N197 0.984 . S
H205 N193 0.984 . S
H206 N193 0.985 . S
C207 C208 1.363 . S
C207 C213 1.379 . S
C207 N215 1.356 . S
C208 C207 1.363 . S
C208 C214 1.363 . S
C209 C210 1.363 . S
C209 C214 1.379 1_556 S
C209 N216 1.356 . S
C210 C209 1.363 . S
C210 C213 1.363 1_556 S
N211 C213 1.356 1_556 S
N211 H223 0.984 1_556 S
N211 H224 0.985 . S
N212 C214 1.356 1_545 S
N212 H217 0.984 . S
N212 H218 0.985 . S
C213 C207 1.379 . S
C213 C210 1.363 1_554 S
C213 N211 1.356 1_554 S
C214 C208 1.363 . S
C214 C209 1.379 1_554 S
C214 N212 1.356 1_565 S
N215 C207 1.356 . S
N215 H221 0.984 . S
N215 H222 0.984 . S
N216 C209 1.356 . S
N216 H219 0.984 . S
N216 H220 0.985 . S
H217 N212 0.984 . S
H218 N212 0.985 . S
H219 N216 0.984 . S
H220 N216 0.985 . S
H221 N215 0.984 . S
H222 N215 0.984 . S
H223 N211 0.984 1_554 S
H224 N211 0.985 . S
C225 C226 1.363 . S
C225 C231 1.379 . S
C225 N233 1.356 . S
C226 C225 1.363 . S
C226 C232 1.363 . S
C227 C228 1.363 . S
C227 C232 1.379 . S
C227 N234 1.356 . S
C228 C227 1.363 . S
C228 C231 1.363 . S
N229 C231 1.356 . S
N229 H241 0.984 . S
N229 H242 0.985 . S
N230 C232 1.356 . S
N230 H235 0.984 . S
N230 H236 0.985 . S
C231 C225 1.379 . S
C231 C228 1.363 . S
C231 N229 1.356 . S
C232 C226 1.363 . S
C232 C227 1.379 . S
C232 N230 1.356 . S
N233 C225 1.356 . S
N233 H239 0.984 1_455 S
N233 H240 0.984 . S
N234 C227 1.356 . S
N234 H237 0.984 . S
N234 H238 0.985 . S
H235 N230 0.984 . S
H236 N230 0.985 . S
H237 N234 0.984 . S
H238 N234 0.985 . S
H239 N233 0.984 1_655 S
H240 N233 0.984 . S
H241 N229 0.984 . S
H242 N229 0.985 . S
C243 C244 1.363 . S
C243 C249 1.379 . S
C243 N251 1.356 1_545 S
C244 C243 1.363 . S
C244 C250 1.363 . S
C245 C246 1.363 . S
C245 C250 1.379 . S
C245 N252 1.356 . S
C246 C245 1.363 . S
C246 C249 1.363 . S
N247 C249 1.356 1_565 S
N247 H259 0.984 . S
N247 H260 0.985 . S
N248 C250 1.356 . S
N248 H253 0.984 . S
N248 H254 0.985 . S
C249 C243 1.379 . S
C249 C246 1.363 . S
C249 N247 1.356 1_545 S
C250 C244 1.363 . S
C250 C245 1.379 . S
C250 N248 1.356 . S
N251 C243 1.356 1_565 S
N251 H257 0.984 . S
N251 H258 0.984 . S
N252 C245 1.356 . S
N252 H255 0.984 . S
N252 H256 0.985 . S
H253 N248 0.984 . S
H254 N248 0.985 . S
H255 N252 0.984 . S
H256 N252 0.985 . S
H257 N251 0.984 . S
H258 N251 0.984 . S
H259 N247 0.984 . S
H260 N247 0.985 . S
C261 C262 1.363 . S
C261 C267 1.381 . S
C261 N269 1.356 . S
C262 C261 1.363 . S
C262 C268 1.363 . S
C263 C264 1.363 . S
C263 C268 1.379 1_556 S
C263 N270 1.356 . S
C264 C263 1.363 . S
C264 C267 1.361 1_556 S
N265 C267 1.355 1_556 S
N265 H277 0.996 . S
N265 H278 0.985 . S
N266 C268 1.356 . S
N266 H271 0.984 . S
N266 H272 0.985 . S
C267 C261 1.381 . S
C267 C264 1.361 1_554 S
C267 N265 1.355 1_554 S
C268 C262 1.363 . S
C268 C263 1.379 1_554 S
C268 N266 1.356 . S
N269 C261 1.356 . S
N269 H275 0.984 . S
N269 H276 0.984 . S
N270 C263 1.356 . S
N270 H273 0.984 . S
N270 H274 0.985 . S
H271 N266 0.984 . S
H272 N266 0.985 . S
H273 N270 0.984 . S
H274 N270 0.985 . S
H275 N269 0.984 . S
H276 N269 0.984 . S
H277 N265 0.996 . S
H278 N265 0.985 . S
C279 C280 1.363 1_655 S
C279 C285 1.379 . S
C279 N287 1.356 . S
C280 C279 1.363 1_455 S
C280 C286 1.363 . S
C281 C282 1.363 . S
C281 C286 1.379 . S
C281 N288 1.356 . S
C282 C281 1.363 . S
C282 C285 1.363 1_455 S
N283 C285 1.356 . S
N283 H295 0.984 . S
N283 H296 0.985 . S
N284 C286 1.356 . S
N284 H289 0.984 . S
N284 H290 0.985 . S
C285 C279 1.379 . S
C285 C282 1.363 1_655 S
C285 N283 1.356 . S
C286 C280 1.363 . S
C286 C281 1.379 . S
C286 N284 1.356 . S
N287 C279 1.356 . S
N287 H293 0.984 . S
N287 H294 0.984 . S
N288 C281 1.356 . S
N288 H291 0.984 . S
N288 H292 0.985 . S
H289 N284 0.984 . S
H290 N284 0.985 . S
H291 N288 0.984 . S
H292 N288 0.985 . S
H293 N287 0.984 . S
H294 N287 0.984 . S
H295 N283 0.984 . S
H296 N283 0.985 . S
C84 C47 1.414 . S
C82 C0 1.430 . S
C100 C25 1.495 . S
C102 C65 1.486 . S
C118 C33 1.511 . S
C120 C78 1.500 . S
C136 C11 1.399 . S
C138 C45 1.388 . S
C156 C56 1.493 . S
C154 C14 1.495 . S
C172 C37 1.500 . S
C174 C69 1.498 . S
C192 C58 1.430 . S
C190 C28 1.437 . S
C208 C9 1.445 . S
C210 C71 1.435 . S
C228 C52 1.513 . S
C226 C19 1.521 . S
C246 C60 1.424 . S
C244 C39 1.438 . S
C264 C73 1.437 . S
C262 C5 1.453 . S
C280 C23 1.537 . S
C282 C43 1.540 . S
