# Generated by pormake.
# Topology iac, (4,6)-cn, num edge types: 1
# Building blocks:
#     Node 0, Type 0, BuildingBlock: GALJAG_clean_sbu_0, # of connection points: 4
#     Node 1, Type 0, BuildingBlock: GALJAG_clean_sbu_0, # of connection points: 4
#     Node 2, Type 0, BuildingBlock: GALJAG_clean_sbu_0, # of connection points: 4
#     Node 3, Type 0, BuildingBlock: GALJAG_clean_sbu_0, # of connection points: 4
#     Node 4, Type 0, BuildingBlock: GALJAG_clean_sbu_0, # of connection points: 4
#     Node 5, Type 0, BuildingBlock: GALJAG_clean_sbu_0, # of connection points: 4
#     Node 6, Type 0, BuildingBlock: GALJAG_clean_sbu_0, # of connection points: 4
#     Node 7, Type 0, BuildingBlock: GALJAG_clean_sbu_0, # of connection points: 4
#     Node 8, Type 0, BuildingBlock: GALJAG_clean_sbu_0, # of connection points: 4
#     Node 9, Type 0, BuildingBlock: GALJAG_clean_sbu_0, # of connection points: 4
#     Node 10, Type 0, BuildingBlock: GALJAG_clean_sbu_0, # of connection points: 4
#     Node 11, Type 0, BuildingBlock: GALJAG_clean_sbu_0, # of connection points: 4
#     Node 12, Type 0, BuildingBlock: GALJAG_clean_sbu_0, # of connection points: 4
#     Node 13, Type 0, BuildingBlock: GALJAG_clean_sbu_0, # of connection points: 4
#     Node 14, Type 0, BuildingBlock: GALJAG_clean_sbu_0, # of connection points: 4
#     Node 15, Type 0, BuildingBlock: GALJAG_clean_sbu_0, # of connection points: 4
#     Node 16, Type 0, BuildingBlock: GALJAG_clean_sbu_0, # of connection points: 4
#     Node 17, Type 0, BuildingBlock: GALJAG_clean_sbu_0, # of connection points: 4
#     Node 18, Type 0, BuildingBlock: GALJAG_clean_sbu_0, # of connection points: 4
#     Node 19, Type 0, BuildingBlock: GALJAG_clean_sbu_0, # of connection points: 4
#     Node 20, Type 0, BuildingBlock: GALJAG_clean_sbu_0, # of connection points: 4
#     Node 21, Type 0, BuildingBlock: GALJAG_clean_sbu_0, # of connection points: 4
#     Node 22, Type 0, BuildingBlock: GALJAG_clean_sbu_0, # of connection points: 4
#     Node 23, Type 0, BuildingBlock: GALJAG_clean_sbu_0, # of connection points: 4
#     Node 24, Type 1, BuildingBlock: LEVNOQ01_clean_sbu_1, # of connection points: 6
#     Node 25, Type 1, BuildingBlock: LEVNOQ01_clean_sbu_1, # of connection points: 6
#     Node 26, Type 1, BuildingBlock: LEVNOQ01_clean_sbu_1, # of connection points: 6
#     Node 27, Type 1, BuildingBlock: LEVNOQ01_clean_sbu_1, # of connection points: 6
#     Node 28, Type 1, BuildingBlock: LEVNOQ01_clean_sbu_1, # of connection points: 6
#     Node 29, Type 1, BuildingBlock: LEVNOQ01_clean_sbu_1, # of connection points: 6
#     Node 30, Type 1, BuildingBlock: LEVNOQ01_clean_sbu_1, # of connection points: 6
#     Node 31, Type 1, BuildingBlock: LEVNOQ01_clean_sbu_1, # of connection points: 6
#     Node 32, Type 1, BuildingBlock: LEVNOQ01_clean_sbu_1, # of connection points: 6
#     Node 33, Type 1, BuildingBlock: LEVNOQ01_clean_sbu_1, # of connection points: 6
#     Node 34, Type 1, BuildingBlock: LEVNOQ01_clean_sbu_1, # of connection points: 6
#     Node 35, Type 1, BuildingBlock: LEVNOQ01_clean_sbu_1, # of connection points: 6
#     Node 36, Type 1, BuildingBlock: LEVNOQ01_clean_sbu_1, # of connection points: 6
#     Node 37, Type 1, BuildingBlock: LEVNOQ01_clean_sbu_1, # of connection points: 6
#     Node 38, Type 1, BuildingBlock: LEVNOQ01_clean_sbu_1, # of connection points: 6
#     Node 39, Type 1, BuildingBlock: LEVNOQ01_clean_sbu_1, # of connection points: 6
#     Edge 40, Type (0, 1), BuildingBlock: CIFDUS_clean_linker_0, # of connection points: 2
#     Edge 41, Type (0, 1), BuildingBlock: CIFDUS_clean_linker_0, # of connection points: 2
#     Edge 42, Type (0, 1), BuildingBlock: CIFDUS_clean_linker_0, # of connection points: 2
#     Edge 43, Type (0, 1), BuildingBlock: CIFDUS_clean_linker_0, # of connection points: 2
#     Edge 44, Type (0, 1), BuildingBlock: CIFDUS_clean_linker_0, # of connection points: 2
#     Edge 45, Type (0, 1), BuildingBlock: CIFDUS_clean_linker_0, # of connection points: 2
#     Edge 46, Type (0, 1), BuildingBlock: CIFDUS_clean_linker_0, # of connection points: 2
#     Edge 47, Type (0, 1), BuildingBlock: CIFDUS_clean_linker_0, # of connection points: 2
#     Edge 48, Type (0, 1), BuildingBlock: CIFDUS_clean_linker_0, # of connection points: 2
#     Edge 49, Type (0, 1), BuildingBlock: CIFDUS_clean_linker_0, # of connection points: 2
#     Edge 50, Type (0, 1), BuildingBlock: CIFDUS_clean_linker_0, # of connection points: 2
#     Edge 51, Type (0, 1), BuildingBlock: CIFDUS_clean_linker_0, # of connection points: 2
#     Edge 52, Type (0, 1), BuildingBlock: CIFDUS_clean_linker_0, # of connection points: 2
#     Edge 53, Type (0, 1), BuildingBlock: CIFDUS_clean_linker_0, # of connection points: 2
#     Edge 54, Type (0, 1), BuildingBlock: CIFDUS_clean_linker_0, # of connection points: 2
#     Edge 55, Type (0, 1), BuildingBlock: CIFDUS_clean_linker_0, # of connection points: 2
#     Edge 56, Type (0, 1), BuildingBlock: CIFDUS_clean_linker_0, # of connection points: 2
#     Edge 57, Type (0, 1), BuildingBlock: CIFDUS_clean_linker_0, # of connection points: 2
#     Edge 58, Type (0, 1), BuildingBlock: CIFDUS_clean_linker_0, # of connection points: 2
#     Edge 59, Type (0, 1), BuildingBlock: CIFDUS_clean_linker_0, # of connection points: 2
#     Edge 60, Type (0, 1), BuildingBlock: CIFDUS_clean_linker_0, # of connection points: 2
#     Edge 61, Type (0, 1), BuildingBlock: CIFDUS_clean_linker_0, # of connection points: 2
#     Edge 62, Type (0, 1), BuildingBlock: CIFDUS_clean_linker_0, # of connection points: 2
#     Edge 63, Type (0, 1), BuildingBlock: CIFDUS_clean_linker_0, # of connection points: 2
#     Edge 64, Type (0, 1), BuildingBlock: CIFDUS_clean_linker_0, # of connection points: 2
#     Edge 65, Type (0, 1), BuildingBlock: CIFDUS_clean_linker_0, # of connection points: 2
#     Edge 66, Type (0, 1), BuildingBlock: CIFDUS_clean_linker_0, # of connection points: 2
#     Edge 67, Type (0, 1), BuildingBlock: CIFDUS_clean_linker_0, # of connection points: 2
#     Edge 68, Type (0, 1), BuildingBlock: CIFDUS_clean_linker_0, # of connection points: 2
#     Edge 69, Type (0, 1), BuildingBlock: CIFDUS_clean_linker_0, # of connection points: 2
#     Edge 70, Type (0, 1), BuildingBlock: CIFDUS_clean_linker_0, # of connection points: 2
#     Edge 71, Type (0, 1), BuildingBlock: CIFDUS_clean_linker_0, # of connection points: 2
#     Edge 72, Type (0, 1), BuildingBlock: CIFDUS_clean_linker_0, # of connection points: 2
#     Edge 73, Type (0, 1), BuildingBlock: CIFDUS_clean_linker_0, # of connection points: 2
#     Edge 74, Type (0, 1), BuildingBlock: CIFDUS_clean_linker_0, # of connection points: 2
#     Edge 75, Type (0, 1), BuildingBlock: CIFDUS_clean_linker_0, # of connection points: 2
#     Edge 76, Type (0, 1), BuildingBlock: CIFDUS_clean_linker_0, # of connection points: 2
#     Edge 77, Type (0, 1), BuildingBlock: CIFDUS_clean_linker_0, # of connection points: 2
#     Edge 78, Type (0, 1), BuildingBlock: CIFDUS_clean_linker_0, # of connection points: 2
#     Edge 79, Type (0, 1), BuildingBlock: CIFDUS_clean_linker_0, # of connection points: 2
#     Edge 80, Type (0, 1), BuildingBlock: CIFDUS_clean_linker_0, # of connection points: 2
#     Edge 81, Type (0, 1), BuildingBlock: CIFDUS_clean_linker_0, # of connection points: 2
#     Edge 82, Type (0, 1), BuildingBlock: CIFDUS_clean_linker_0, # of connection points: 2
#     Edge 83, Type (0, 1), BuildingBlock: CIFDUS_clean_linker_0, # of connection points: 2
#     Edge 84, Type (0, 1), BuildingBlock: CIFDUS_clean_linker_0, # of connection points: 2
#     Edge 85, Type (0, 1), BuildingBlock: CIFDUS_clean_linker_0, # of connection points: 2
#     Edge 86, Type (0, 1), BuildingBlock: CIFDUS_clean_linker_0, # of connection points: 2
#     Edge 87, Type (0, 1), BuildingBlock: CIFDUS_clean_linker_0, # of connection points: 2
#     Edge 88, Type (0, 1), BuildingBlock: CIFDUS_clean_linker_0, # of connection points: 2
#     Edge 89, Type (0, 1), BuildingBlock: CIFDUS_clean_linker_0, # of connection points: 2
#     Edge 90, Type (0, 1), BuildingBlock: CIFDUS_clean_linker_0, # of connection points: 2
#     Edge 91, Type (0, 1), BuildingBlock: CIFDUS_clean_linker_0, # of connection points: 2
#     Edge 92, Type (0, 1), BuildingBlock: CIFDUS_clean_linker_0, # of connection points: 2
#     Edge 93, Type (0, 1), BuildingBlock: CIFDUS_clean_linker_0, # of connection points: 2
#     Edge 94, Type (0, 1), BuildingBlock: CIFDUS_clean_linker_0, # of connection points: 2
#     Edge 95, Type (0, 1), BuildingBlock: CIFDUS_clean_linker_0, # of connection points: 2
#     Edge 96, Type (0, 1), BuildingBlock: CIFDUS_clean_linker_0, # of connection points: 2
#     Edge 97, Type (0, 1), BuildingBlock: CIFDUS_clean_linker_0, # of connection points: 2
#     Edge 98, Type (0, 1), BuildingBlock: CIFDUS_clean_linker_0, # of connection points: 2
#     Edge 99, Type (0, 1), BuildingBlock: CIFDUS_clean_linker_0, # of connection points: 2
#     Edge 100, Type (0, 1), BuildingBlock: CIFDUS_clean_linker_0, # of connection points: 2
#     Edge 101, Type (0, 1), BuildingBlock: CIFDUS_clean_linker_0, # of connection points: 2
#     Edge 102, Type (0, 1), BuildingBlock: CIFDUS_clean_linker_0, # of connection points: 2
#     Edge 103, Type (0, 1), BuildingBlock: CIFDUS_clean_linker_0, # of connection points: 2
#     Edge 104, Type (0, 1), BuildingBlock: CIFDUS_clean_linker_0, # of connection points: 2
#     Edge 105, Type (0, 1), BuildingBlock: CIFDUS_clean_linker_0, # of connection points: 2
#     Edge 106, Type (0, 1), BuildingBlock: CIFDUS_clean_linker_0, # of connection points: 2
#     Edge 107, Type (0, 1), BuildingBlock: CIFDUS_clean_linker_0, # of connection points: 2
#     Edge 108, Type (0, 1), BuildingBlock: CIFDUS_clean_linker_0, # of connection points: 2
#     Edge 109, Type (0, 1), BuildingBlock: CIFDUS_clean_linker_0, # of connection points: 2
#     Edge 110, Type (0, 1), BuildingBlock: CIFDUS_clean_linker_0, # of connection points: 2
#     Edge 111, Type (0, 1), BuildingBlock: CIFDUS_clean_linker_0, # of connection points: 2
#     Edge 112, Type (0, 1), BuildingBlock: CIFDUS_clean_linker_0, # of connection points: 2
#     Edge 113, Type (0, 1), BuildingBlock: CIFDUS_clean_linker_0, # of connection points: 2
#     Edge 114, Type (0, 1), BuildingBlock: CIFDUS_clean_linker_0, # of connection points: 2
#     Edge 115, Type (0, 1), BuildingBlock: CIFDUS_clean_linker_0, # of connection points: 2
#     Edge 116, Type (0, 1), BuildingBlock: CIFDUS_clean_linker_0, # of connection points: 2
#     Edge 117, Type (0, 1), BuildingBlock: CIFDUS_clean_linker_0, # of connection points: 2
#     Edge 118, Type (0, 1), BuildingBlock: CIFDUS_clean_linker_0, # of connection points: 2
#     Edge 119, Type (0, 1), BuildingBlock: CIFDUS_clean_linker_0, # of connection points: 2
#     Edge 120, Type (0, 1), BuildingBlock: CIFDUS_clean_linker_0, # of connection points: 2
#     Edge 121, Type (0, 1), BuildingBlock: CIFDUS_clean_linker_0, # of connection points: 2
#     Edge 122, Type (0, 1), BuildingBlock: CIFDUS_clean_linker_0, # of connection points: 2
#     Edge 123, Type (0, 1), BuildingBlock: CIFDUS_clean_linker_0, # of connection points: 2
#     Edge 124, Type (0, 1), BuildingBlock: CIFDUS_clean_linker_0, # of connection points: 2
#     Edge 125, Type (0, 1), BuildingBlock: CIFDUS_clean_linker_0, # of connection points: 2
#     Edge 126, Type (0, 1), BuildingBlock: CIFDUS_clean_linker_0, # of connection points: 2
#     Edge 127, Type (0, 1), BuildingBlock: CIFDUS_clean_linker_0, # of connection points: 2
#     Edge 128, Type (0, 1), BuildingBlock: CIFDUS_clean_linker_0, # of connection points: 2
#     Edge 129, Type (0, 1), BuildingBlock: CIFDUS_clean_linker_0, # of connection points: 2
#     Edge 130, Type (0, 1), BuildingBlock: CIFDUS_clean_linker_0, # of connection points: 2
#     Edge 131, Type (0, 1), BuildingBlock: CIFDUS_clean_linker_0, # of connection points: 2
#     Edge 132, Type (0, 1), BuildingBlock: CIFDUS_clean_linker_0, # of connection points: 2
#     Edge 133, Type (0, 1), BuildingBlock: CIFDUS_clean_linker_0, # of connection points: 2
#     Edge 134, Type (0, 1), BuildingBlock: CIFDUS_clean_linker_0, # of connection points: 2
#     Edge 135, Type (0, 1), BuildingBlock: CIFDUS_clean_linker_0, # of connection points: 2
# Relax obj value: 0.119
# Max RMSD: 0.162
# Mean RMSD: 0.131
data_MOF--net-iac--node1-GALJAG_clean_sbu_0--node2-LEVNOQ01_clean_sbu_1--edge1-CIFDUS_clean_linker_0
_symmetry_space_group_name_H-M    P1
_symmetry_Int_Tables_number       1
_symmetry_cell_setting            triclinic
loop_
_symmetry_equiv_pos_as_xyz
'x, y, z'
_cell_length_a     48.055331
_cell_length_b     47.978584
_cell_length_c     48.250025
_cell_angle_alpha  89.904746
_cell_angle_beta   89.957288
_cell_angle_gamma 90.089308
loop_
_atom_site_label
_atom_site_type_symbol
_atom_site_fract_x
_atom_site_fract_y
_atom_site_fract_z
_atom_type_partial_charge
In0 In -0.0046 0.24985 0.12734 0.0
O1 O -0.00028 0.2193 0.09089 0.0
O2 O 0.99172 0.20274 0.13101 0.0
C3 C 0.98934 0.30141 0.10658 0.0
C4 C 0.94933 0.25449 0.15785 0.0
C5 C 0.04816 0.25342 0.14414 0.0
O6 O 0.98295 0.28001 0.09252 0.0
O7 O -0.00081 0.29643 0.13027 0.0
O8 O 0.02864 0.24741 0.1607 0.0
O9 O 0.04101 0.25684 0.1192 0.0
C10 C -0.00348 0.19782 0.1058 0.0
O11 O 0.97325 0.25291 0.16865 0.0
O12 O 0.94868 0.25217 0.13178 0.0
In13 In 0.00058 0.7469 0.37048 0.0
O14 O 0.01912 0.73472 0.32785 0.0
O15 O 0.04385 0.75646 0.3573 0.0
C16 C 0.94749 0.74218 0.35529 0.0
C17 C 0.0096 0.70238 0.4024 0.0
C18 C 0.0072 0.79651 0.3943 0.0
O19 O 0.96411 0.75887 0.34361 0.0
O20 O 0.95773 0.72738 0.37425 0.0
O21 O 0.01892 0.77477 0.40312 0.0
O22 O 0.99079 0.79307 0.37423 0.0
C23 C 0.04258 0.74483 0.33404 0.0
O24 O -0.00166 0.72415 0.41198 0.0
O25 O 0.01592 0.70332 0.37701 0.0
In26 In 0.49793 0.75238 0.62628 0.0
O27 O 0.49737 0.77786 0.58644 0.0
O28 O 0.50027 0.7994 0.62505 0.0
C29 C 0.50054 0.70011 0.60712 0.0
C30 C 0.54381 0.75282 0.65789 0.0
C31 C 0.4439 0.75789 0.63822 0.0
O32 O 0.50984 0.72051 0.59324 0.0
O33 O 0.49057 0.70619 0.63052 0.0
O34 O 0.4627 0.76381 0.65565 0.0
O35 O 0.45246 0.74839 0.61545 0.0
C36 C 0.4983 0.80097 0.59903 0.0
O37 O 0.52043 0.74597 0.66789 0.0
O38 O 0.5437 0.75922 0.63251 0.0
In39 In 0.5017 0.24673 0.87858 0.0
O40 O 0.52716 0.22767 0.84363 0.0
O41 O 0.54607 0.25782 0.8704 0.0
C42 C 0.45689 0.25107 0.84618 0.0
C43 C 0.50433 0.205 0.91606 0.0
C44 C 0.49888 0.30039 0.89267 0.0
O45 O 0.48118 0.24852 0.83667 0.0
O46 O 0.4549 0.24944 0.87218 0.0
O47 O 0.48187 0.28256 0.90195 0.0
O48 O 0.51823 0.29078 0.878 0.0
C49 C 0.54815 0.24257 0.84923 0.0
O50 O 0.51342 0.22906 0.92143 0.0
O51 O 0.494 0.20238 0.89225 0.0
In52 In 0.12726 0.99181 0.25111 0.0
O53 O 0.15887 0.95956 0.26596 0.0
O54 O 0.11894 0.94535 0.25307 0.0
C55 C 0.15932 0.03812 0.24971 0.0
C56 C 0.10825 0.98798 0.19881 0.0
C57 C 0.09407 0.00193 0.29474 0.0
O58 O 0.16972 0.01403 0.25166 0.0
O59 O 0.13319 0.03857 0.24846 0.0
O60 O 0.08755 0.00833 0.27026 0.0
O61 O 0.11751 0.99051 0.2974 0.0
C62 C 0.14251 0.93915 0.26277 0.0
O63 O 0.09249 0.99078 0.21949 0.0
O64 O 0.13387 0.98648 0.20447 0.0
In65 In 0.24879 0.866 0.49909 0.0
O66 O 0.22351 0.9034 0.51354 0.0
O67 O 0.20512 0.8756 0.48436 0.0
C68 C 0.29404 0.89835 0.4957 0.0
C69 C 0.24852 0.83285 0.54438 0.0
C70 C 0.2497 0.84254 0.44887 0.0
O71 O 0.27013 0.9065 0.48871 0.0
O72 O 0.2949 0.87438 0.50646 0.0
O73 O 0.22994 0.83815 0.46559 0.0
O74 O 0.26915 0.85737 0.45806 0.0
C75 C 0.20276 0.89756 0.49854 0.0
O76 O 0.2608 0.82569 0.52246 0.0
O77 O 0.23668 0.85617 0.54321 0.0
In78 In 0.37671 -0.00309 0.74191 0.0
O79 O 0.33331 0.01777 0.74111 0.0
O80 O 0.36955 0.04248 0.74683 0.0
C81 C 0.35146 0.94777 0.73733 0.0
C82 C 0.41115 -0.00073 0.69805 0.0
C83 C 0.40058 0.00385 0.79135 0.0
O84 O 0.34283 0.96925 0.72486 0.0
O85 O 0.37318 0.95109 0.75163 0.0
O86 O 0.41167 0.01165 0.76899 0.0
O87 O 0.3775 0.99153 0.78891 0.0
C88 C 0.34345 0.04177 0.74483 0.0
O89 O 0.41454 0.98165 0.7171 0.0
O90 O 0.39008 0.01457 0.70069 0.0
In91 In 0.25549 0.12509 -0.00093 0.0
O92 O 0.2879 0.09182 0.98931 0.0
O93 O 0.30185 0.13287 -0.0006 0.0
C94 C 0.20764 0.09675 0.00535 0.0
C95 C 0.26248 0.15254 0.04677 0.0
C96 C 0.2447 0.14616 0.94937 0.0
O97 O 0.23104 0.08594 0.01092 0.0
O98 O 0.20853 0.12163 -0.0029 0.0
O99 O 0.23812 0.15857 0.9715 0.0
O100 O 0.25788 0.12363 0.95222 0.0
C101 C 0.30823 0.1083 -0.00714 0.0
O102 O 0.26296 0.16452 0.02342 0.0
O103 O 0.2569 0.12682 0.04621 0.0
In104 In 0.75535 0.36711 0.00161 0.0
O105 O 0.73181 0.33412 0.02711 0.0
O106 O 0.77336 0.34405 0.03836 0.0
C107 C 0.75462 0.35044 0.94878 0.0
C108 C 0.71223 0.40126 0.01097 0.0
C109 C 0.80594 0.39023 -0.00085 0.0
O110 O 0.75782 0.33365 0.9687 0.0
O111 O 0.75049 0.3754 0.95545 0.0
O112 O 0.78416 0.40448 0.00295 0.0
O113 O 0.80225 0.3643 -0.00231 0.0
C114 C 0.75191 0.32992 0.04339 0.0
O115 O 0.73371 0.40192 0.02611 0.0
O116 O 0.71262 0.38334 -0.00811 0.0
In117 In 0.88032 0.49851 0.24823 0.0
O118 O 0.91617 0.49568 0.21744 0.0
O119 O 0.87454 0.49264 0.2025 0.0
C120 C 0.90581 0.49896 0.29714 0.0
C121 C 0.85698 0.54898 0.24868 0.0
C122 C 0.85278 0.45065 0.25113 0.0
O123 O 0.91913 0.50186 0.27473 0.0
O124 O 0.87996 0.49559 0.29466 0.0
O125 O 0.8409 0.47395 0.24852 0.0
O126 O 0.87904 0.45139 0.25243 0.0
C127 C 0.90013 0.49235 0.19698 0.0
O128 O 0.84316 0.52691 0.25187 0.0
O129 O 0.88272 0.54563 0.24495 0.0
In130 In 0.75282 0.61821 0.49445 0.0
O131 O 0.77065 0.57416 0.49462 0.0
O132 O 0.79846 0.6076 0.48638 0.0
C133 C 0.70256 0.59293 0.49443 0.0
C134 C 0.75366 0.64485 0.54381 0.0
C135 C 0.75577 0.65635 0.45344 0.0
O136 O 0.71969 0.59071 0.51405 0.0
O137 O 0.71114 0.6071 0.4741 0.0
O138 O 0.7543 0.66268 0.47873 0.0
O139 O 0.75643 0.6305 0.44854 0.0
C140 C 0.79527 0.58167 0.48947 0.0
O141 O 0.73466 0.64779 0.5261 0.0
O142 O 0.77302 0.62869 0.53653 0.0
In143 In 0.61993 0.49547 0.75278 0.0
O144 O 0.65904 0.46906 0.74939 0.0
O145 O 0.62008 0.44815 0.75363 0.0
C146 C 0.63927 0.54827 0.74762 0.0
C147 C 0.59121 0.49286 0.70523 0.0
C148 C 0.60429 0.48998 0.80578 0.0
O149 O 0.65464 0.5272 0.74412 0.0
O150 O 0.61453 0.54265 0.75448 0.0
O151 O 0.58735 0.48744 0.78589 0.0
O152 O 0.62878 0.49661 0.79891 0.0
C153 C 0.64613 0.4461 0.75123 0.0
O154 O 0.57909 0.49781 0.72797 0.0
O155 O 0.61713 0.48932 0.70696 0.0
In156 In 0.00903 0.74606 0.87236 0.0
O157 O 0.02724 0.73065 0.83147 0.0
O158 O 0.0547 0.74843 0.86122 0.0
C159 C 0.95653 0.74696 0.85359 0.0
C160 C 0.01941 0.70194 0.90479 0.0
C161 C 0.00666 0.7948 0.89984 0.0
O162 O 0.97642 0.75655 0.83938 0.0
O163 O 0.96336 0.73627 0.87647 0.0
O164 O 0.00381 0.77137 0.91123 0.0
O165 O 0.01194 0.79398 0.87416 0.0
C166 C 0.05195 0.73606 0.83833 0.0
O167 O 0.02522 0.72652 0.91188 0.0
O168 O 0.00772 0.69952 0.88147 0.0
In169 In 0.00149 0.25202 0.61822 0.0
O170 O 0.02529 0.28266 0.59047 0.0
O171 O 0.98135 0.28402 0.58975 0.0
C172 C -0.00121 0.20009 0.59795 0.0
C173 C 0.04675 0.25206 0.65023 0.0
C174 C 0.95918 0.25834 0.65401 0.0
O175 O 0.98458 0.21963 0.58765 0.0
O176 O 0.01431 0.20696 0.61772 0.0
O177 O 0.97836 0.2762 0.65167 0.0
O178 O 0.96117 0.2377 0.63796 0.0
C179 C 0.00385 0.29449 0.58133 0.0
O180 O 0.02281 0.25755 0.65949 0.0
O181 O 0.048 0.24739 0.6245 0.0
In182 In 0.50576 0.24819 0.37067 0.0
O183 O 0.53615 0.23948 0.33568 0.0
O184 O 0.5524 0.25203 0.37482 0.0
C185 C 0.45952 0.24542 0.33998 0.0
C186 C 0.51133 0.20023 0.39845 0.0
C187 C 0.49436 0.29853 0.39235 0.0
O188 O 0.4816 0.25629 0.33071 0.0
O189 O 0.46123 0.23545 0.36416 0.0
O190 O 0.49023 0.27631 0.40584 0.0
O191 O 0.50564 0.29525 0.36898 0.0
C192 C 0.55735 0.24357 0.35058 0.0
O193 O 0.51369 0.22361 0.41032 0.0
O194 O 0.50451 0.2013 0.37321 0.0
In195 In 0.50148 0.74622 0.12409 0.0
O196 O 0.48762 0.7179 0.08886 0.0
O197 O 0.50636 0.69937 0.12432 0.0
C198 C 0.51388 0.79387 0.09848 0.0
C199 C 0.45207 0.75685 0.14694 0.0
C200 C 0.54741 0.74422 0.15385 0.0
O201 O 0.51168 0.77122 0.08524 0.0
O202 O 0.51075 0.79189 0.12433 0.0
O203 O 0.5239 0.74918 0.16449 0.0
O204 O 0.54767 0.74002 0.12801 0.0
C205 C 0.49562 0.69591 0.10082 0.0
O206 O 0.4699 0.7419 0.15902 0.0
O207 O 0.45878 0.76526 0.12315 0.0
In208 In 0.87353 -0.00211 0.74294 0.0
O209 O 0.90345 0.01079 0.70886 0.0
O210 O 0.87323 0.97997 0.69912 0.0
C211 C 0.90983 0.00785 0.78439 0.0
C212 C 0.83865 0.0404 0.7328 0.0
C213 C 0.84982 0.95063 0.7621 0.0
O214 O 0.91317 0.98807 0.76758 0.0
O215 O 0.88841 0.02237 0.78039 0.0
O216 O 0.83938 0.97441 0.76651 0.0
O217 O 0.87204 0.95089 0.74811 0.0
C218 C 0.89282 -0.00472 0.69071 0.0
O219 O 0.82991 0.0158 0.73643 0.0
O220 O 0.86459 0.04337 0.73511 0.0
In221 In 0.75222 0.12713 0.50033 0.0
O222 O 0.78102 0.09046 0.51123 0.0
O223 O 0.78289 0.10673 0.47062 0.0
C224 C 0.69974 0.10903 0.50582 0.0
C225 C 0.76476 0.15281 0.54767 0.0
C226 C 0.74773 0.16481 0.45938 0.0
O227 O 0.71685 0.09807 0.48924 0.0
O228 O 0.70916 0.12886 0.52006 0.0
O229 O 0.76681 0.16624 0.4773 0.0
O230 O 0.73066 0.14511 0.4629 0.0
C231 C 0.79228 0.08938 0.4877 0.0
O232 O 0.76937 0.16364 0.52426 0.0
O233 O 0.75499 0.1284 0.54714 0.0
In234 In 0.62366 0.00263 0.24526 0.0
O235 O 0.66209 0.98053 0.26338 0.0
O236 O 0.63551 0.95802 0.23627 0.0
C237 C 0.64345 0.05399 0.23644 0.0
C238 C 0.59886 -0.0034 0.19593 0.0
C239 C 0.59114 0.00274 0.29067 0.0
O240 O 0.65691 0.03227 0.2306 0.0
O241 O 0.62067 0.05 0.24875 0.0
O242 O 0.58119 0.00326 0.2665 0.0
O243 O 0.6174 0.00245 0.29184 0.0
C244 C 0.65728 0.95803 0.25076 0.0
O245 O 0.58742 0.98923 0.21839 0.0
O246 O 0.62308 0.00637 0.19836 0.0
In247 In 0.74856 0.86953 0.00159 0.0
O248 O 0.71962 0.90619 0.00437 0.0
O249 O 0.70239 0.86558 0.01078 0.0
C250 C 0.80075 0.88835 0.00198 0.0
C251 C 0.75501 0.85068 0.05291 0.0
C252 C 0.74293 0.85304 0.94853 0.0
O253 O 0.77989 0.90432 0.00439 0.0
O254 O 0.79525 0.86291 -0.00233 0.0
O255 O 0.73987 0.83633 0.96872 0.0
O256 O 0.74914 0.87774 0.95513 0.0
C257 C 0.69837 0.89156 0.01006 0.0
O258 O 0.75161 0.83388 0.03283 0.0
O259 O 0.75496 0.87621 0.0469 0.0
In260 In 0.24481 0.6227 -0.0001 0.0
O261 O 0.24574 0.65533 0.03291 0.0
O262 O 0.2414 0.61297 0.04596 0.0
C263 C 0.24343 0.65384 0.95413 0.0
C264 C 0.29651 0.60188 -0.00154 0.0
C265 C 0.19378 0.60148 -0.00015 0.0
O266 O 0.24853 0.66417 0.97763 0.0
O267 O 0.2394 0.62782 0.95364 0.0
O268 O 0.21529 0.58625 0.00052 0.0
O269 O 0.19803 0.62738 -0.00179 0.0
C270 C 0.24351 0.63824 0.05274 0.0
O271 O 0.27579 0.5869 -0.00798 0.0
O272 O 0.29081 0.62672 0.00444 0.0
In273 In 0.1241 0.50095 0.74144 0.0
O274 O 0.16626 0.47981 0.73619 0.0
O275 O 0.13437 0.45738 0.75698 0.0
C276 C 0.14357 0.55302 0.73996 0.0
C277 C 0.10515 0.48922 0.69092 0.0
C278 C 0.09119 0.50628 0.78577 0.0
O279 O 0.15844 0.53218 0.74581 0.0
O280 O 0.11823 0.5479 0.73535 0.0
O281 O 0.08115 0.50316 0.76179 0.0
O282 O 0.11745 0.50634 0.78702 0.0
C283 C 0.15896 0.45749 0.74785 0.0
O284 O 0.09347 0.47987 0.71243 0.0
O285 O 0.12591 0.5046 0.69516 0.0
In286 In 0.24323 0.3751 0.50756 0.0
O287 O 0.23539 0.33235 0.5264 0.0
O288 O 0.2356 0.36779 0.55305 0.0
C289 C 0.25285 0.35618 0.45584 0.0
C290 C 0.1912 0.3947 0.51031 0.0
C291 C 0.29172 0.40208 0.51735 0.0
O292 O 0.26182 0.34422 0.47734 0.0
O293 O 0.23861 0.3778 0.46022 0.0
O294 O 0.27098 0.41391 0.50627 0.0
O295 O 0.28758 0.37708 0.52431 0.0
C296 C 0.23173 0.34189 0.55054 0.0
O297 O 0.21187 0.41019 0.51578 0.0
O298 O 0.19721 0.37062 0.50183 0.0
In299 In 0.37787 0.49878 0.24406 0.0
O300 O 0.41638 0.48766 0.22032 0.0
O301 O 0.3811 0.50012 0.19676 0.0
C302 C 0.41082 0.50455 0.28848 0.0
C303 C 0.3551 0.54932 0.23678 0.0
C304 C 0.34876 0.45217 0.25623 0.0
O305 O 0.41838 0.5113 0.26442 0.0
O306 O 0.3863 0.49529 0.29041 0.0
O307 O 0.33932 0.47627 0.26086 0.0
O308 O 0.37214 0.45171 0.24431 0.0
C309 C 0.4066 0.4939 0.19692 0.0
O310 O 0.34263 0.52749 0.22902 0.0
O311 O 0.37761 0.54524 0.24939 0.0
O312 O 0.94971 0.03272 0.94698 0.0
Mg313 Mg 0.94559 0.03863 0.99036 0.0
O314 O 0.98267 0.00068 0.9515 0.0
Mg315 Mg -0.00198 -0.00216 -0.00287 0.0
O316 O 0.9838 0.04217 0.00831 0.0
O317 O 0.95302 0.07684 0.00805 0.0
O318 O 0.01453 -0.00713 0.04292 0.0
O319 O 0.03967 0.02084 0.98527 0.0
Mg320 Mg 0.0491 0.9548 0.00506 0.0
O321 O 0.01149 0.95377 0.98578 0.0
O322 O 0.03479 0.95117 0.04591 0.0
O323 O 0.07148 0.99176 0.00139 0.0
O324 O 0.04797 0.93384 0.96743 0.0
C325 C 0.93132 0.98361 0.01669 0.0
C326 C 0.96572 0.01453 0.93656 0.0
C327 C 0.97704 0.06734 0.01526 0.0
C328 C 0.02576 0.97332 0.05721 0.0
C329 C 0.0647 0.01549 -0.0077 0.0
C330 C 0.02213 0.94029 0.96529 0.0
O331 O 0.9229 0.00834 0.01267 0.0
O332 O 0.95617 0.97629 0.01066 0.0
O333 O 0.29046 0.74702 0.31363 0.0
Mg334 Mg 0.26319 0.71327 0.30519 0.0
O335 O 0.26045 0.77082 0.28891 0.0
Mg336 Mg 0.24892 0.74578 0.25029 0.0
O337 O 0.26576 0.70446 0.26449 0.0
O338 O 0.27877 0.67399 0.2965 0.0
O339 O 0.23835 0.72308 0.20929 0.0
O340 O 0.29152 0.75454 0.23244 0.0
Mg341 Mg 0.24306 0.78746 0.19561 0.0
O342 O 0.23362 0.78708 0.23601 0.0
O343 O 0.21842 0.75397 0.18156 0.0
O344 O 0.28733 0.7818 0.19525 0.0
O345 O 0.22411 0.82378 0.21037 0.0
C346 C 0.20066 0.72697 0.2941 0.0
C347 C 0.279 0.76992 0.30761 0.0
C348 C 0.27557 0.68035 0.27075 0.0
C349 C 0.22632 0.72927 0.18655 0.0
C350 C 0.30214 0.76775 0.21214 0.0
C351 C 0.22335 0.81163 0.23417 0.0
O352 O 0.21957 0.71915 0.31093 0.0
O353 O 0.20643 0.73598 0.26981 0.0
O354 O 0.52716 0.94855 0.44978 0.0
Mg355 Mg 0.54546 0.96316 0.48643 0.0
O356 O 0.5147 -0.0078 0.45024 0.0
Mg357 Mg 0.49918 0.0019 0.49527 0.0
O358 O 0.51737 0.96326 0.51782 0.0
O359 O 0.55438 0.93475 0.5163 0.0
O360 O 0.48374 0.01432 0.53908 0.0
O361 O 0.45982 0.97494 0.48756 0.0
Mg362 Mg 0.44248 0.04134 0.49309 0.0
O363 O 0.48037 0.03969 0.47559 0.0
O364 O 0.45036 0.04634 0.53603 0.0
O365 O 0.42388 0.00353 0.48116 0.0
O366 O 0.45071 0.07296 0.46458 0.0
C367 C 0.56241 0.02401 0.49243 0.0
C368 C 0.5217 0.9706 0.43663 0.0
C369 C 0.5313 0.94232 0.52769 0.0
C370 C 0.4671 0.0317 0.55032 0.0
C371 C 0.43428 0.97919 0.48162 0.0
C372 C 0.47495 0.0619 0.46174 0.0
O373 O 0.56926 0.00019 0.4834 0.0
O374 O 0.53821 0.02877 0.50199 0.0
O375 O 0.32731 0.27662 0.73744 0.0
Mg376 Mg 0.30968 0.25607 0.70299 0.0
O377 O 0.29506 0.26462 0.76844 0.0
Mg378 Mg 0.25466 0.25093 0.74604 0.0
O379 O 0.26958 0.26631 0.70591 0.0
O380 O 0.2929 0.27663 0.66823 0.0
O381 O 0.21493 0.23761 0.7231 0.0
O382 O 0.23716 0.29744 0.75045 0.0
Mg383 Mg 0.21831 0.26303 0.78188 0.0
O384 O 0.24147 0.22882 0.78808 0.0
O385 O 0.18779 0.26212 0.75042 0.0
O386 O 0.23618 0.30042 0.79528 0.0
O387 O 0.20427 0.24079 0.81386 0.0
C388 C 0.29388 0.19721 0.72383 0.0
C389 C 0.31904 0.2745 0.76242 0.0
C390 C 0.26974 0.27696 0.68167 0.0
C391 C 0.19116 0.24774 0.72871 0.0
C392 C 0.23496 0.31242 0.77213 0.0
C393 C 0.22496 0.2244 0.80901 0.0
O394 O 0.30909 0.21211 0.70804 0.0
O395 O 0.27417 0.20749 0.73832 0.0
O396 O 0.02263 0.93148 0.49642 0.0
Mg397 Mg 0.02115 0.95334 0.53481 0.0
O398 O -0.00552 0.96005 0.47398 0.0
Mg399 Mg 0.00226 -0.00267 0.50178 0.0
O400 O 0.98503 0.97416 0.54066 0.0
O401 O -0.00289 0.93603 0.56495 0.0
O402 O 0.00974 0.03399 0.53231 0.0
O403 O 0.95656 0.00994 0.49753 0.0
Mg404 Mg 0.00331 0.05476 0.47806 0.0
O405 O 0.01504 0.01854 0.46026 0.0
O406 O 0.03281 0.0651 0.50854 0.0
O407 O 0.95939 0.05452 0.4854 0.0
O408 O 0.01609 0.05961 0.43826 0.0
C409 C 0.06621 0.98348 0.525 0.0
C410 C 0.00802 0.93739 0.47528 0.0
C411 C 0.98034 0.95657 0.5606 0.0
C412 C 0.02528 0.05542 0.53162 0.0
C413 C 0.94514 0.03322 0.49214 0.0
C414 C 0.02101 0.03317 0.43836 0.0
O415 O 0.05593 0.97662 0.54803 0.0
O416 O 0.0499 0.98666 0.50442 0.0
O417 O 0.30477 0.70853 0.80204 0.0
Mg418 Mg 0.30595 0.6977 0.75921 0.0
O419 O 0.26514 0.7319 0.79733 0.0
Mg420 Mg 0.25672 0.74616 0.75277 0.0
O421 O 0.29857 0.73346 0.73855 0.0
O422 O 0.33782 0.71086 0.73245 0.0
O423 O 0.247 0.76269 0.70842 0.0
O424 O 0.27718 0.78802 0.76359 0.0
Mg425 Mg 0.21538 0.79902 0.75971 0.0
O426 O 0.21425 0.75796 0.76758 0.0
O427 O 0.22041 0.80009 0.71609 0.0
O428 O 0.2473 0.81595 0.78435 0.0
O429 O 0.17835 0.78515 0.77692 0.0
C430 C 0.24778 0.67842 0.73901 0.0
C431 C 0.28378 0.72073 0.81242 0.0
C432 C 0.32221 0.73182 0.72648 0.0
C433 C 0.23297 0.7836 0.69965 0.0
C434 C 0.27194 0.81011 0.77712 0.0
C435 C 0.18936 0.76067 0.77688 0.0
O436 O 0.27294 0.67215 0.74448 0.0
O437 O 0.23842 0.70321 0.74146 0.0
O438 O 0.44938 0.92907 0.01453 0.0
Mg439 Mg 0.44276 0.9671 0.03587 0.0
O440 O 0.49238 0.94257 0.00571 0.0
Mg441 Mg 0.49506 0.9894 -0.00196 0.0
O442 O 0.45055 -0.00268 0.00809 0.0
O443 O 0.40908 -0.00663 0.02711 0.0
O444 O 0.49646 0.03791 0.99014 0.0
O445 O 0.47827 0.98125 0.95447 0.0
Mg446 Mg 0.53329 0.01128 0.96325 0.0
O447 O 0.54206 0.97866 0.98902 0.0
O448 O 0.53967 0.0498 0.98236 0.0
O449 O 0.50405 0.01036 0.93074 0.0
O450 O 0.5685 -0.00778 0.95274 0.0
C451 C 0.49626 0.98753 0.06687 0.0
C452 C 0.47444 0.92332 0.00868 0.0
C453 C 0.42549 0.00618 0.01024 0.0
C454 C 0.51488 0.05688 0.98696 0.0
C455 C 0.48307 -0.00541 0.93232 0.0
C456 C 0.56521 0.97765 0.97502 0.0
O457 O 0.47219 0.97631 0.06764 0.0
O458 O 0.50768 -0.00495 0.04403 0.0
O459 O 0.27294 0.25423 0.17951 0.0
Mg460 Mg 0.25517 0.28944 0.19815 0.0
O461 O 0.26337 0.22442 0.21353 0.0
Mg462 Mg 0.25011 0.24992 0.25275 0.0
O463 O 0.26929 0.29022 0.2376 0.0
O464 O 0.279 0.32398 0.20766 0.0
O465 O 0.23696 0.27675 0.2909 0.0
O466 O 0.29563 0.24224 0.27141 0.0
Mg467 Mg 0.25574 0.21545 0.29552 0.0
O468 O 0.22704 0.20806 0.26605 0.0
O469 O 0.25604 0.25006 0.32253 0.0
O470 O 0.29353 0.19868 0.28415 0.0
O471 O 0.22933 0.18521 0.30691 0.0
C472 C 0.19632 0.27418 0.21405 0.0
C473 C 0.27204 0.22953 0.18897 0.0
C474 C 0.28152 0.31354 0.23216 0.0
C475 C 0.24535 0.27308 0.31561 0.0
C476 C 0.30792 0.22006 0.27943 0.0
C477 C 0.21922 0.18774 0.28226 0.0
O478 O 0.2112 0.28981 0.19876 0.0
O479 O 0.20713 0.25916 0.23305 0.0
O480 O 0.46175 0.55522 0.97581 0.0
Mg481 Mg 0.50522 0.55736 0.96627 0.0
O482 O 0.45708 0.51268 -0.00554 0.0
Mg483 Mg 0.50144 0.49518 -0.00246 0.0
O484 O 0.51357 0.51732 0.9595 0.0
O485 O 0.52216 0.5479 0.92688 0.0
O486 O 0.54645 0.47827 -4e-05 0.0
O487 O 0.48814 0.45912 0.96926 0.0
Mg488 Mg 0.50396 0.43383 0.03044 0.0
O489 O 0.48908 0.47253 0.03574 0.0
O490 O 0.54775 0.43986 0.02611 0.0
O491 O 0.48198 0.42074 -0.00528 0.0
O492 O 0.48346 0.44074 0.06813 0.0
C493 C 0.52559 0.55573 0.02393 0.0
C494 C 0.44688 0.53584 0.98633 0.0
C495 C 0.52285 0.52243 0.93522 0.0
C496 C 0.55983 0.4587 0.01194 0.0
C497 C 0.4797 0.4341 0.97206 0.0
C498 C 0.4794 0.46584 0.05957 0.0
O499 O 0.53144 0.56605 0.0004 0.0
O500 O 0.51299 0.53239 0.02602 0.0
O501 O 0.77398 0.18641 0.28616 0.0
Mg502 Mg 0.77792 0.18659 0.24208 0.0
O503 O 0.75606 0.22879 0.29306 0.0
Mg504 Mg 0.75062 0.25002 0.25062 0.0
O505 O 0.78586 0.22647 0.2327 0.0
O506 O 0.81515 0.19374 0.22013 0.0
O507 O 0.74411 0.27189 0.20929 0.0
O508 O 0.78283 0.28443 0.26167 0.0
Mg509 Mg 0.72419 0.31311 0.26391 0.0
O510 O 0.71459 0.27313 0.26716 0.0
O511 O 0.72867 0.31483 0.21919 0.0
O512 O 0.75917 0.31046 0.29065 0.0
O513 O 0.68439 0.30451 0.2805 0.0
C514 C 0.71773 0.19302 0.22631 0.0
C515 C 0.76452 0.20529 0.30211 0.0
C516 C 0.80842 0.2197 0.22034 0.0
C517 C 0.7359 0.29606 0.20183 0.0
C518 C 0.78191 0.30453 0.27884 0.0
C519 C 0.69061 0.27869 0.27701 0.0
O520 O 0.73988 0.17937 0.22157 0.0
O521 O 0.71818 0.21655 0.23853 0.0
O522 O 0.98208 0.47011 0.56443 0.0
Mg523 Mg 0.97714 0.51485 0.56188 0.0
O524 O 0.9897 0.46116 0.51978 0.0
Mg525 Mg -0.0006 0.50183 0.49854 0.0
O526 O 0.96581 0.52427 0.52242 0.0
O527 O 0.93519 0.52539 0.55604 0.0
O528 O 0.01073 0.5413 0.47493 0.0
O529 O 0.9667 0.4928 0.46487 0.0
Mg530 Mg 0.02374 0.48086 0.43755 0.0
O531 O 0.03364 0.47957 0.4773 0.0
O532 O 0.0238 0.52573 0.43308 0.0
O533 O 0.98553 0.45877 0.44108 0.0
O534 O 0.06122 0.45985 0.44704 0.0
C535 C 0.0349 0.52762 0.55207 0.0
C536 C 0.98539 0.45312 0.54447 0.0
C537 C 0.94012 0.5254 0.52983 0.0
C538 C 0.01917 0.54559 0.45014 0.0
C539 C 0.96465 0.47376 0.44668 0.0
C540 C 0.05603 0.46613 0.47243 0.0
O541 O 0.01371 0.53982 0.56196 0.0
O542 O 0.03229 0.5112 0.53158 0.0
O543 O 0.69486 0.79199 0.26127 0.0
Mg544 Mg 0.69786 0.75097 0.27803 0.0
O545 O 0.73787 0.79412 0.24462 0.0
Mg546 Mg 0.75045 0.74801 0.24614 0.0
O547 O 0.73635 0.74191 0.29195 0.0
O548 O 0.69949 0.74672 0.3199 0.0
O549 O 0.76235 0.70113 0.24691 0.0
O550 O 0.79084 0.76054 0.26615 0.0
Mg551 Mg 0.79957 0.7265 0.20706 0.0
O552 O 0.76716 0.75356 0.20319 0.0
O553 O 0.77352 0.69138 0.2037 0.0
O554 O 0.81927 0.72981 0.24675 0.0
O555 O 0.8067 0.76214 0.18269 0.0
C556 C 0.68961 0.72005 0.23054 0.0
C557 C 0.71462 0.80549 0.25006 0.0
C558 C 0.72526 0.73999 0.31645 0.0
C559 C 0.76635 0.68331 0.22769 0.0
C560 C 0.81353 0.74715 0.26575 0.0
C561 C 0.78222 0.77063 0.18927 0.0
O562 O 0.68491 0.71575 0.25588 0.0
O563 O 0.71001 0.73537 0.22361 0.0
O564 O 0.77552 0.2353 0.82944 0.0
Mg565 Mg 0.75272 0.20247 0.81053 0.0
O566 O 0.7683 0.26572 0.79545 0.0
Mg567 Mg 0.75368 0.2442 0.75553 0.0
O568 O 0.76499 0.20144 0.7707 0.0
O569 O 0.77075 0.16508 0.7982 0.0
O570 O 0.73981 0.22332 0.715 0.0
O571 O 0.80046 0.2399 0.74103 0.0
Mg572 Mg 0.7737 0.27695 0.72554 0.0
O573 O 0.73851 0.29166 0.74286 0.0
O574 O 0.77 0.24875 0.69212 0.0
O575 O 0.81333 0.28291 0.74409 0.0
O576 O 0.76389 0.31406 0.71043 0.0
C577 C 0.69631 0.22309 0.78892 0.0
C578 C 0.77698 0.25985 0.81966 0.0
C579 C 0.77305 0.17612 0.77395 0.0
C580 C 0.75282 0.22875 0.6927 0.0
C581 C 0.81992 0.25774 0.74107 0.0
C582 C 0.74348 0.31377 0.72772 0.0
O583 O 0.70939 0.20707 0.80537 0.0
O584 O 0.70857 0.23933 0.77174 0.0
O585 O 0.78045 0.75219 0.67465 0.0
Mg586 Mg 0.76021 0.78664 0.6927 0.0
O587 O 0.7649 0.72372 0.70737 0.0
Mg588 Mg 0.75229 0.74831 0.74756 0.0
O589 O 0.77104 0.78945 0.733 0.0
O590 O 0.78166 0.82262 0.70265 0.0
O591 O 0.73836 0.77311 0.7884 0.0
O592 O 0.79629 0.74116 0.76546 0.0
Mg593 Mg 0.74904 0.71055 0.80114 0.0
O594 O 0.73571 0.70519 0.76146 0.0
O595 O 0.72567 0.74188 0.81992 0.0
O596 O 0.7928 0.7153 0.80339 0.0
O597 O 0.73036 0.67285 0.7944 0.0
C598 C 0.69963 0.77236 0.70772 0.0
C599 C 0.77605 0.72775 0.68366 0.0
C600 C 0.78279 0.8131 0.72763 0.0
C601 C 0.72737 0.76695 0.81187 0.0
C602 C 0.80732 0.7293 0.78633 0.0
C603 C 0.72639 0.68099 0.76922 0.0
O604 O 0.7164 0.78556 0.69209 0.0
O605 O 0.70828 0.75756 0.72811 0.0
O606 O 0.56596 0.49123 0.45937 0.0
Mg607 Mg 0.55215 0.45855 0.48578 0.0
O608 O 0.54035 0.51659 0.48661 0.0
Mg609 Mg 0.49975 0.49471 0.49943 0.0
O610 O 0.51023 0.44984 0.48849 0.0
O611 O 0.53845 0.42596 0.46156 0.0
O612 O 0.45518 0.47869 0.51213 0.0
O613 O 0.4841 0.49441 0.45403 0.0
Mg614 Mg 0.46995 0.53626 0.47929 0.0
O615 O 0.49224 0.54063 0.5147 0.0
O616 O 0.43494 0.5101 0.48526 0.0
O617 O 0.48914 0.53694 0.43955 0.0
O618 O 0.46519 0.57421 0.49651 0.0
C619 C 0.54361 0.47652 0.54794 0.0
C620 C 0.56028 0.51463 0.46959 0.0
C621 C 0.51344 0.43211 0.46875 0.0
C622 C 0.43324 0.48867 0.50068 0.0
C623 C 0.48535 0.51154 0.43407 0.0
C624 C 0.48231 0.56579 0.51532 0.0
O625 O 0.55856 0.4651 0.52919 0.0
O626 O 0.51994 0.48766 0.54246 0.0
O627 O 0.05039 0.4584 0.94839 0.0
Mg628 Mg 0.04999 0.44937 -0.00889 0.0
O629 O 0.01748 0.49106 0.94817 0.0
Mg630 Mg -0.00035 0.49479 -0.00765 0.0
O631 O 0.01 0.45019 0.00409 0.0
O632 O 0.03599 0.41219 0.00762 0.0
O633 O 0.98313 0.49955 0.03631 0.0
O634 O 0.95654 0.47688 0.97767 0.0
Mg635 Mg 0.94949 0.53744 -0.00859 0.0
O636 O 0.99033 0.5401 0.98219 0.0
O637 O 0.94529 0.52616 0.0337 0.0
O638 O 0.93164 0.51179 0.96142 0.0
O639 O 0.96188 0.57663 0.97996 0.0
C640 C 0.06522 0.50383 0.0167 0.0
C641 C 0.03617 0.47684 0.93591 0.0
C642 C 0.01277 0.42475 0.01235 0.0
C643 C 0.96231 0.51141 0.04745 0.0
C644 C 0.93495 0.48592 0.96508 0.0
C645 C 0.9862 0.56597 0.97606 0.0
O646 O 0.07213 0.47832 0.01567 0.0
O647 O 0.04178 0.51222 0.00762 0.0
H648 H 0.01861 0.18029 0.05672 0.0
H649 H 0.97798 0.15055 0.13088 0.0
H650 H 0.97525 0.10372 0.11141 0.0
H651 H 0.9766 0.07379 0.07022 0.0
H652 H 0.01545 0.10357 -0.00454 0.0
H653 H 0.02795 0.1473 0.0185 0.0
C654 C 0.00942 0.16347 0.06868 0.0
C655 C -0.00225 0.16904 0.09484 0.0
C656 C 0.00793 0.1365 0.05734 0.0
C657 C 0.98662 0.14691 0.11046 0.0
C658 C 0.98513 0.12009 0.09939 0.0
C659 C 0.98897 0.08939 0.05949 0.0
C660 C -0.00476 0.08567 0.03137 0.0
C661 C -0.00526 0.11491 0.07247 0.0
C662 C 0.01079 0.10601 0.0173 0.0
C663 C 0.01743 0.13119 0.03032 0.0
H664 H 0.08732 0.72472 0.35765 0.0
H665 H 0.05529 0.75031 0.27829 0.0
H666 H 0.10218 0.74557 0.25787 0.0
H667 H 0.15307 0.73817 0.26459 0.0
H668 H 0.18282 0.71338 0.34562 0.0
H669 H 0.13584 0.71399 0.36347 0.0
C670 C 0.09059 0.72905 0.33577 0.0
C671 C 0.0684 0.73823 0.31946 0.0
C672 C 0.11716 0.72671 0.32466 0.0
C673 C 0.07239 0.74326 0.29111 0.0
C674 C 0.09912 0.74075 0.27961 0.0
C675 C 0.14918 0.73275 0.28608 0.0
C676 C 0.17155 0.72602 0.30375 0.0
C677 C 0.12184 0.73319 0.29646 0.0
C678 C 0.16616 0.71879 0.3315 0.0
C679 C 0.13925 0.71909 0.34183 0.0
H680 H 0.51925 0.85006 0.61667 0.0
H681 H 0.47395 0.81213 0.54942 0.0
H682 H 0.47416 0.85641 0.52415 0.0
H683 H 0.49337 0.90338 0.51834 0.0
H684 H 0.54457 0.93892 0.58236 0.0
H685 H 0.53534 0.89857 0.61235 0.0
C686 C 0.50921 0.85165 0.5966 0.0
C687 C 0.49704 0.82793 0.58459 0.0
C688 C 0.51038 0.8768 0.58183 0.0
C689 C 0.48396 0.83008 0.55869 0.0
C690 C 0.48394 0.85537 0.54437 0.0
C691 C 0.5016 0.90259 0.53928 0.0
C692 C 0.51918 0.92392 0.54855 0.0
C693 C 0.49787 0.87856 0.55534 0.0
C694 C 0.53055 0.92274 0.57524 0.0
C695 C 0.52559 0.89956 0.59213 0.0
H696 H 0.40182 0.25092 0.85941 0.0
H697 H 0.45979 0.27014 0.79362 0.0
H698 H 0.42176 0.28564 0.76423 0.0
H699 H 0.37255 0.28988 0.7557 0.0
H700 H 0.31327 0.26529 0.81851 0.0
H701 H 0.35137 0.25723 0.85118 0.0
C702 C 0.406 0.25846 0.83861 0.0
C703 C 0.43342 0.25902 0.82847 0.0
C704 C 0.38392 0.26685 0.82153 0.0
C705 C 0.43875 0.26904 0.80165 0.0
C706 C 0.41708 0.27817 0.78493 0.0
C707 C 0.36776 0.28315 0.77665 0.0
C708 C 0.34014 0.27763 0.78443 0.0
C709 C 0.38963 0.27671 0.7945 0.0
C710 C 0.33441 0.26949 0.81188 0.0
C711 C 0.3562 0.26451 0.83045 0.0
H712 H 0.97421 0.84226 0.39363 0.0
H713 H 0.05436 0.81191 0.42027 0.0
H714 H 0.06372 0.85591 0.44365 0.0
H715 H 0.04655 0.89972 0.46181 0.0
H716 H 0.96509 0.92939 0.43885 0.0
H717 H 0.95887 0.88917 0.40818 0.0
C718 C -0.00623 0.84553 0.40437 0.0
C719 C 0.01331 0.8239 0.40598 0.0
C720 C -0.00136 0.87055 0.41846 0.0
C721 C 0.03877 0.82819 0.41952 0.0
C722 C 0.04418 0.8533 0.43273 0.0
C723 C 0.02755 0.8975 0.44986 0.0
C724 C 0.00602 0.91685 0.45297 0.0
C725 C 0.02384 0.87411 0.43322 0.0
C726 C 0.98182 0.91442 0.43686 0.0
C727 C 0.9782 0.89139 0.41953 0.0
H728 H 0.4194 0.78972 0.67743 0.0
H729 H 0.40166 0.73023 0.61286 0.0
H730 H 0.35445 0.72422 0.63053 0.0
H731 H 0.32461 0.72584 0.67169 0.0
H732 H 0.34379 0.7825 0.73799 0.0
H733 H 0.38318 0.80108 0.71167 0.0
C734 C 0.40491 0.77599 0.66691 0.0
C735 C 0.41411 0.75958 0.64472 0.0
C736 C 0.378 0.77232 0.67745 0.0
C737 C 0.39509 0.74255 0.63049 0.0
C738 C 0.36811 0.73912 0.64055 0.0
C739 C 0.33656 0.74335 0.67954 0.0
C740 C 0.33213 0.75248 0.70671 0.0
C741 C 0.36009 0.75247 0.66508 0.0
C742 C 0.34723 0.7752 0.71702 0.0
C743 C 0.37004 0.78537 0.70221 0.0
H744 H 0.48095 0.15472 0.90947 0.0
H745 H 0.53241 0.20189 0.96564 0.0
H746 H 0.53894 0.16023 -0.00546 0.0
H747 H 0.53283 0.10902 0.00127 0.0
H748 H 0.47935 0.06389 0.94525 0.0
H749 H 0.47123 0.10602 0.91846 0.0
C750 C 0.49343 0.15602 0.92816 0.0
C751 C 0.50647 0.18116 0.93525 0.0
C752 C 0.49684 0.13228 0.94457 0.0
C753 C 0.52233 0.18261 0.95968 0.0
C754 C 0.5261 0.15882 0.97614 0.0
C755 C 0.51873 0.10883 0.98372 0.0
C756 C 0.5061 0.08373 0.97557 0.0
C757 C 0.5138 0.13338 0.96851 0.0
C758 C 0.48849 0.08326 0.95239 0.0
C759 C 0.48408 0.10725 0.93688 0.0
H760 H 0.07135 0.23933 0.19357 0.0
H761 H 0.08884 0.27982 0.11548 0.0
H762 H 0.13531 0.29203 0.13151 0.0
H763 H 0.17087 0.29093 0.16712 0.0
H764 H 0.15555 0.24792 0.24434 0.0
H765 H 0.10802 0.23732 0.22937 0.0
C766 C 0.08543 0.25075 0.18011 0.0
C767 C 0.07676 0.25874 0.15346 0.0
C768 C 0.11228 0.25749 0.18937 0.0
C769 C 0.09514 0.27333 0.13606 0.0
C770 C 0.12163 0.28048 0.14525 0.0
C771 C 0.1571 0.27955 0.18092 0.0
C772 C 0.16667 0.27046 0.20691 0.0
C773 C 0.13034 0.27275 0.17186 0.0
C774 C 0.14861 0.25535 0.22429 0.0
C775 C 0.12152 0.24913 0.21568 0.0
H776 H 0.05536 -0.00218 0.18196 0.0
H777 H 0.13677 0.97486 0.15179 0.0
H778 H 0.118 0.9693 0.10507 0.0
H779 H 0.07822 0.96841 0.07365 0.0
H780 H -0.00302 -0.00709 0.10247 0.0
H781 H 0.01593 0.00057 0.14926 0.0
C782 C 0.06898 0.99162 0.16513 0.0
C783 C 0.0973 0.98626 0.17034 0.0
C784 C 0.05805 0.98859 0.13835 0.0
C785 C 0.11486 0.9788 0.14832 0.0
C786 C 0.10414 0.9756 0.12166 0.0
C787 C 0.06465 0.9753 0.09028 0.0
C788 C 0.03619 0.9794 0.08513 0.0
C789 C 0.07574 0.97994 0.11662 0.0
C790 C 0.01888 0.98927 0.10631 0.0
C791 C 0.02972 -0.00639 0.13291 0.0
H792 H 0.29448 0.83788 0.41586 0.0
H793 H 0.2056 0.82496 0.41811 0.0
H794 H 0.20676 0.80711 0.37064 0.0
H795 H 0.23366 0.79015 0.33138 0.0
H796 H 0.32317 0.79592 0.33212 0.0
H797 H 0.3213 0.8229 0.37531 0.0
C798 C 0.27537 0.83126 0.40586 0.0
C799 C 0.25006 0.83219 0.42037 0.0
C800 C 0.27639 0.82019 0.37913 0.0
C801 C 0.22536 0.82382 0.40735 0.0
C802 C 0.226 0.81387 0.38025 0.0
C803 C 0.25268 0.798 0.34068 0.0
C804 C 0.27851 0.79138 0.32892 0.0
C805 C 0.25148 0.81132 0.3663 0.0
C806 C 0.30314 0.80103 0.34109 0.0
C807 C 0.30203 0.81612 0.36577 0.0
H808 H 0.42029 0.04584 0.66911 0.0
H809 H 0.44461 0.95959 0.67454 0.0
H810 H 0.46975 0.96374 0.6304 0.0
H811 H 0.47745 0.99 0.58699 0.0
H812 H 0.45041 0.0756 0.58153 0.0
H813 H 0.4344 0.07393 0.62945 0.0
C814 C 0.4314 0.02806 0.66074 0.0
C815 C 0.43007 0.00229 0.67437 0.0
C816 C 0.44527 0.03054 0.63544 0.0
C817 C 0.44512 0.97954 0.664 0.0
C818 C 0.45939 0.98191 0.63881 0.0
C819 C 0.46874 0.00847 0.59657 0.0
C820 C 0.46448 0.03269 0.58068 0.0
C821 C 0.45858 0.00703 0.62381 0.0
C822 C 0.45336 0.05657 0.59329 0.0
C823 C 0.44413 0.05561 0.62061 0.0
H824 H 0.27492 0.14898 0.90218 0.0
H825 H 0.19375 0.16497 0.93673 0.0
H826 H 0.17851 0.18556 0.893 0.0
H827 H 0.19034 0.20479 0.84811 0.0
H828 H 0.27308 0.19434 0.81486 0.0
H829 H 0.28563 0.16518 0.85461 0.0
C830 C 0.25387 0.15677 0.89982 0.0
C831 C 0.23552 0.15618 0.9224 0.0
C832 C 0.24569 0.16961 0.87504 0.0
C833 C 0.20824 0.16598 0.91953 0.0
C834 C 0.19954 0.17757 0.89461 0.0
C835 C 0.21105 0.19587 0.84936 0.0
C836 C 0.23098 0.20218 0.82906 0.0
C837 C 0.21841 0.18043 0.87268 0.0
C838 C 0.25747 0.18993 0.83048 0.0
C839 C 0.2647 0.17346 0.85327 0.0
H840 H 0.09185 0.97572 0.34471 0.0
H841 H 0.05632 0.04336 0.29754 0.0
H842 H 0.02885 0.05757 0.33758 0.0
H843 H 0.01747 0.05283 0.38644 0.0
H844 H 0.05115 0.98475 0.43426 0.0
H845 H 0.07631 0.96803 0.39322 0.0
C846 C 0.07793 -0.00656 0.34329 0.0
C847 C 0.07624 0.00874 0.31847 0.0
C848 C 0.06188 0.00127 0.36634 0.0
C849 C 0.0579 0.03136 0.31652 0.0
C850 C 0.04226 0.03951 0.33938 0.0
C851 C 0.0302 0.03422 0.38788 0.0
C852 C 0.03301 0.02036 0.41336 0.0
C853 C 0.04446 0.02492 0.36445 0.0
C854 C 0.04892 -0.00412 0.41483 0.0
C855 C 0.06339 0.98644 0.39145 0.0
H856 H 0.20844 0.83285 0.58239 0.0
H857 H 0.28775 0.79575 0.56348 0.0
H858 H 0.28912 0.77432 0.60985 0.0
H859 H 0.26947 0.77076 0.65763 0.0
H860 H 0.19017 0.80949 0.67469 0.0
H861 H 0.18697 0.82541 0.6271 0.0
C862 C 0.22589 0.81979 0.58832 0.0
C863 C 0.2481 0.81613 0.56994 0.0
C864 C 0.22658 0.80798 0.61474 0.0
C865 C 0.27041 0.79883 0.5775 0.0
C866 C 0.27125 0.78675 0.604 0.0
C867 C 0.25135 0.78227 0.6507 0.0
C868 C 0.23032 0.78935 0.66975 0.0
C869 C 0.24973 0.79183 0.62311 0.0
C870 C 0.20689 0.80422 0.66056 0.0
C871 C 0.20496 0.81332 0.63333 0.0
H872 H 0.39392 0.97406 0.83879 0.0
H873 H 0.43771 0.04417 0.80331 0.0
H874 H 0.46575 0.0486 0.84511 0.0
H875 H 0.48113 0.02965 0.889 0.0
H876 H 0.43934 0.95846 0.92478 0.0
H877 H 0.40709 0.95727 0.88548 0.0
C878 C 0.40939 0.99046 0.84049 0.0
C879 C 0.41429 0.00842 0.81802 0.0
C880 C 0.42605 -0.00765 0.86426 0.0
C881 C 0.4341 0.02979 0.82028 0.0
C882 C 0.45011 0.03232 0.8441 0.0
C883 C 0.4651 0.01372 0.88819 0.0
C884 C 0.46314 -0.00635 0.90924 0.0
C885 C 0.44693 0.0131 0.8657 0.0
C886 C 0.44163 0.97377 0.90841 0.0
C887 C 0.42315 0.97315 0.88605 0.0
H888 H 0.2502 0.13796 0.10009 0.0
H889 H 0.29352 0.19924 0.05057 0.0
H890 H 0.30657 0.22466 0.09221 0.0
H891 H 0.30073 0.23278 0.14134 0.0
H892 H 0.25258 0.17554 0.19108 0.0
H893 H 0.24756 0.14445 0.1511 0.0
C894 C 0.26259 0.15682 0.09857 0.0
C895 C 0.27045 0.16709 0.07237 0.0
C896 C 0.26939 0.17183 0.12264 0.0
C897 C 0.28671 0.19133 0.07051 0.0
C898 C 0.29439 0.20574 0.0943 0.0
C899 C 0.28954 0.21324 0.14362 0.0
C900 C 0.27651 0.20678 0.16889 0.0
C901 C 0.28516 0.19663 0.1203 0.0
C902 C 0.2627 0.18107 0.17176 0.0
C903 C 0.25946 0.16351 0.14879 0.0
H904 H 0.1601 0.10493 0.97578 0.0
H905 H 0.19594 0.05489 0.04103 0.0
H906 H 0.15284 0.02821 0.04476 0.0
H907 H 0.10726 0.0168 0.02742 0.0
H908 H 0.07123 0.0629 0.95956 0.0
H909 H 0.11208 0.0941 0.95916 0.0
C910 C 0.15829 0.08824 0.99087 0.0
C911 C 0.18116 0.08156 0.00798 0.0
C912 C 0.13366 0.0724 -0.00771 0.0
C913 C 0.17875 0.06003 0.02745 0.0
C914 C 0.15412 0.04489 0.02963 0.0
C915 C 0.10825 0.0336 0.01236 0.0
C916 C 0.08666 0.0371 -0.007 0.0
C917 C 0.13183 0.05051 0.01177 0.0
C918 C 0.08778 0.05962 0.97443 0.0
C919 C 0.11117 0.07728 0.97415 0.0
H920 H 0.67596 0.41808 0.97217 0.0
H921 H 0.69376 0.42419 0.0595 0.0
H922 H 0.64839 0.44622 0.06737 0.0
H923 H 0.6011 0.45702 0.04994 0.0
H924 H 0.58464 0.45257 0.96227 0.0
H925 H 0.63223 0.4366 0.95378 0.0
C926 C 0.67004 0.42464 -0.00714 0.0
C927 C 0.68769 0.41902 0.01535 0.0
C928 C 0.64416 0.43727 -0.0029 0.0
C929 C 0.68026 0.42812 0.04196 0.0
C930 C 0.65432 0.44055 0.04645 0.0
C931 C 0.60832 0.45319 0.02898 0.0
C932 C 0.58968 0.45561 0.00673 0.0
C933 C 0.63572 0.44424 0.0243 0.0
C934 C 0.5989 0.45087 0.97958 0.0
C935 C 0.62596 0.44158 0.97479 0.0
H936 H 0.87242 0.39781 0.25876 0.0
H937 H 0.79698 0.44585 0.24901 0.0
H938 H 0.76912 0.40445 0.257 0.0
H939 H 0.76587 0.35598 0.26836 0.0
H940 H 0.83948 0.30541 0.27682 0.0
H941 H 0.86876 0.34676 0.26766 0.0
C942 C 0.84989 0.39905 0.25828 0.0
C943 C 0.8367 0.42483 0.25373 0.0
C944 C 0.83385 0.37503 0.26293 0.0
C945 C 0.80757 0.42629 0.25277 0.0
C946 C 0.79161 0.40268 0.25737 0.0
C947 C 0.78838 0.35397 0.26865 0.0
C948 C 0.8007 0.32812 0.27418 0.0
C949 C 0.80455 0.37722 0.26293 0.0
C950 C 0.82974 0.32543 0.2732 0.0
C951 C 0.84632 0.34895 0.26788 0.0
H952 H 0.84698 0.58817 0.46733 0.0
H953 H 0.79678 0.53206 0.51637 0.0
H954 H 0.83813 0.5056 0.52913 0.0
H955 H 0.88888 0.50405 0.5332 0.0
H956 H 0.9397 0.55969 0.48453 0.0
H957 H 0.89778 0.58013 0.46381 0.0
C958 C 0.8451 0.56974 0.48024 0.0
C959 C 0.81905 0.56238 0.49141 0.0
C960 C 0.86904 0.55463 0.48754 0.0
C961 C 0.81667 0.53822 0.5077 0.0
C962 C 0.84032 0.52315 0.51511 0.0
C963 C 0.89072 0.52005 0.51736 0.0
C964 C 0.91706 0.53083 0.51066 0.0
C965 C 0.86666 0.53195 0.50614 0.0
C966 C 0.9195 0.55122 0.48996 0.0
C967 C 0.89554 0.56309 0.47842 0.0
H968 H 0.14098 0.09097 0.24201 0.0
H969 H 0.21472 0.04333 0.26099 0.0
H970 H 0.24013 0.08636 0.27081 0.0
H971 H 0.23975 0.13671 0.27889 0.0
H972 H 0.16679 0.18501 0.25963 0.0
H973 H 0.14236 0.14234 0.24495 0.0
C974 C 0.1627 0.09004 0.24801 0.0
C975 C 0.17584 0.06401 0.25134 0.0
C976 C 0.17705 0.11483 0.25387 0.0
C977 C 0.2041 0.06308 0.25859 0.0
C978 C 0.21858 0.08764 0.26431 0.0
C979 C 0.21853 0.13781 0.27126 0.0
C980 C 0.2047 0.16354 0.27071 0.0
C981 C 0.20498 0.11346 0.26285 0.0
C982 C 0.17755 0.1652 0.26035 0.0
C983 C 0.1637 0.14088 0.25206 0.0
H984 H 0.34777 0.88706 0.50984 0.0
H985 H 0.29651 0.94363 0.46247 0.0
H986 H 0.33755 0.96942 0.44791 0.0
H987 H 0.38657 0.97945 0.45324 0.0
H988 H 0.43808 0.92673 0.50426 0.0
H989 H 0.39873 0.89492 0.51157 0.0
C990 C 0.34569 0.90507 0.49639 0.0
C991 C 0.31916 0.91391 0.48782 0.0
C992 C 0.36942 0.92018 0.48842 0.0
C993 C 0.31666 0.93688 0.46993 0.0
C994 C 0.34011 0.95147 0.46135 0.0
C995 C 0.38932 0.96071 0.46558 0.0
C996 C 0.41478 0.95575 0.4788 0.0
C997 C 0.3664 0.94377 0.47109 0.0
C998 C 0.41848 0.93105 0.49404 0.0
C999 C 0.3959 0.91314 0.49857 0.0
H1000 H 0.80187 0.55997 0.24973 0.0
H1001 H 0.88272 0.59937 0.24671 0.0
H1002 H 0.86077 0.645 0.24257 0.0
H1003 H 0.8191 0.67292 0.23631 0.0
H1004 H 0.73812 0.63438 0.23661 0.0
H1005 H 0.7596 0.58864 0.24564 0.0
C1006 C 0.81463 0.57859 0.24839 0.0
C1007 C 0.8438 0.57646 0.24826 0.0
C1008 C 0.8019 0.6046 0.24551 0.0
C1009 C 0.86022 0.60061 0.24662 0.0
C1010 C 0.84772 0.62662 0.24427 0.0
C1011 C 0.80624 0.65445 0.23875 0.0
C1012 C 0.77736 0.65645 0.23596 0.0
C1013 C 0.81869 0.62871 0.24319 0.0
C1014 C 0.76049 0.63285 0.23888 0.0
C1015 C 0.77276 0.60692 0.24388 0.0
H1016 H 0.699 0.43658 0.73559 0.0
H1017 H 0.6247 0.39461 0.7635 0.0
H1018 H 0.64819 0.34945 0.75974 0.0
H1019 H 0.69017 0.32177 0.74736 0.0
H1020 H 0.76292 0.36532 0.71715 0.0
H1021 H 0.73977 0.40969 0.72298 0.0
C1022 C 0.68797 0.41757 0.74097 0.0
C1023 C 0.66027 0.41888 0.74982 0.0
C1024 C 0.70134 0.39182 0.73823 0.0
C1025 C 0.64613 0.39407 0.75656 0.0
C1026 C 0.65953 0.36826 0.75441 0.0
C1027 C 0.70084 0.34101 0.74213 0.0
C1028 C 0.72815 0.34014 0.73169 0.0
C1029 C 0.68717 0.36683 0.74508 0.0
C1030 C 0.74175 0.36526 0.7249 0.0
C1031 C 0.72861 0.39077 0.72832 0.0
H1032 H 3e-05 0.84785 0.88014 0.0
H1033 H 0.006 0.79978 0.95563 0.0
H1034 H 0.00255 0.8421 0.98307 0.0
H1035 H 0.00434 0.8926 0.98562 0.0
H1036 H 0.00631 0.94144 0.91083 0.0
H1037 H -0.00234 0.89941 0.88312 0.0
C1038 C 0.00038 0.84674 0.90258 0.0
C1039 C 0.0036 0.8208 0.91582 0.0
C1040 C -0.00115 0.87133 0.91835 0.0
C1041 C 0.00367 0.81951 0.94493 0.0
C1042 C 0.00155 0.84368 0.96068 0.0
C1043 C 0.00167 0.89408 0.96331 0.0
C1044 C 0.00543 0.91987 0.95017 0.0
C1045 C -0.00023 0.86969 0.94762 0.0
C1046 C 0.00282 0.92175 0.92129 0.0
C1047 C -0.00142 0.89765 0.90549 0.0
H1048 H 0.91576 0.22334 0.66073 0.0
H1049 H 0.95212 0.29884 0.69311 0.0
H1050 H 0.91366 0.30336 0.72605 0.0
H1051 H 0.86788 0.28766 0.74298 0.0
H1052 H 0.83143 0.21291 0.70888 0.0
H1053 H 0.87203 0.20596 0.67977 0.0
C1054 C 0.91535 0.24072 0.67509 0.0
C1055 C 0.93649 0.26089 0.67433 0.0
C1056 C 0.89328 0.24318 0.69383 0.0
C1057 C 0.93583 0.28321 0.69313 0.0
C1058 C 0.91394 0.28575 0.71201 0.0
C1059 C 0.86919 0.26954 0.72963 0.0
C1060 C 0.84686 0.25068 0.7284 0.0
C1061 C 0.89233 0.26607 0.71224 0.0
C1062 C 0.84864 0.22735 0.71086 0.0
C1063 C 0.87168 0.22358 0.6938 0.0
H1064 H 0.50542 0.14858 0.37696 0.0
H1065 H 0.52765 0.19197 0.45205 0.0
H1066 H 0.52775 0.14789 0.47753 0.0
H1067 H 0.51059 0.09983 0.48025 0.0
H1068 H 0.48264 0.05829 0.40638 0.0
H1069 H 0.49699 0.09824 0.3782 0.0
C1070 C 0.51071 0.14833 0.39881 0.0
C1071 C 0.51553 0.1735 0.41289 0.0
C1072 C 0.50991 0.12311 0.41341 0.0
C1073 C 0.52306 0.17288 0.44099 0.0
C1074 C 0.52326 0.1477 0.45552 0.0
C1075 C 0.50909 0.09912 0.45781 0.0
C1076 C 0.49566 0.07655 0.44519 0.0
C1077 C 0.51525 0.12298 0.44224 0.0
C1078 C 0.49324 0.07556 0.41628 0.0
C1079 C 0.50091 0.09861 0.40032 0.0
H1080 H 0.59724 0.72273 0.13886 0.0
H1081 H 0.55345 0.76231 0.2064 0.0
H1082 H 0.59382 0.75656 0.23622 0.0
H1083 H 0.64027 0.73952 0.24342 0.0
H1084 H 0.68642 0.702 0.17659 0.0
H1085 H 0.64578 0.70707 0.14584 0.0
C1086 C 0.5967 0.73015 0.16008 0.0
C1087 C 0.57248 0.74252 0.17071 0.0
C1088 C 0.61991 0.72661 0.17715 0.0
C1089 C 0.57184 0.75233 0.19804 0.0
C1090 C 0.5948 0.74903 0.21506 0.0
C1091 C 0.64124 0.73189 0.22225 0.0
C1092 C 0.66561 0.7196 0.21226 0.0
C1093 C 0.61861 0.7358 0.20493 0.0
C1094 C 0.66736 0.71094 0.1846 0.0
C1095 C 0.64435 0.71406 0.16714 0.0
H1096 H 0.03975 0.16235 0.60153 0.0
H1097 H 0.95572 0.17383 0.57226 0.0
H1098 H 0.9549 0.12582 0.55511 0.0
H1099 H 0.97985 0.08305 0.54401 0.0
H1100 H 0.06634 0.07469 0.56565 0.0
H1101 H 0.06441 0.11875 0.59147 0.0
C1102 C 0.0212 0.15417 0.5916 0.0
C1103 C -0.00214 0.17136 0.58792 0.0
C1104 C 0.02133 0.12711 0.58096 0.0
C1105 C 0.97398 0.16089 0.57492 0.0
C1106 C 0.97347 0.13349 0.56535 0.0
C1107 C -0.00208 0.09051 0.55531 0.0
C1108 C 0.02297 0.07574 0.55379 0.0
C1109 C -0.0028 0.11669 0.5678 0.0
C1110 C 0.04673 0.08568 0.56736 0.0
C1111 C 0.04568 0.11095 0.58163 0.0
H1112 H 0.57381 0.23652 0.29738 0.0
H1113 H 0.60453 0.24034 0.3813 0.0
H1114 H 0.65232 0.24206 0.36431 0.0
H1115 H 0.68328 0.2548 0.32613 0.0
H1116 H 0.65185 0.25724 0.24272 0.0
H1117 H 0.60672 0.2396 0.25854 0.0
C1118 C 0.59104 0.23718 0.31189 0.0
C1119 C 0.58583 0.23946 0.34041 0.0
C1120 C 0.61833 0.23926 0.30195 0.0
C1121 C 0.60817 0.23959 0.35915 0.0
C1122 C 0.63545 0.24042 0.34949 0.0
C1123 C 0.66683 0.25014 0.31142 0.0
C1124 C 0.6703 0.25729 0.28357 0.0
C1125 C 0.64059 0.24206 0.32098 0.0
C1126 C 0.64924 0.25164 0.26433 0.0
C1127 C 0.62341 0.242 0.27344 0.0
H1128 H 0.5166 0.80475 0.04323 0.0
H1129 H 0.51119 0.8442 0.12352 0.0
H1130 H 0.49899 0.88819 0.10177 0.0
H1131 H 0.48431 0.91365 0.0609 0.0
H1132 H 0.48967 0.87612 0.9801 0.0
H1133 H 0.50757 0.83275 0.00105 0.0
C1134 C 0.51338 0.82316 0.05583 0.0
C1135 C 0.5142 0.82118 0.08486 0.0
C1136 C 0.50583 0.84835 0.04321 0.0
C1137 C 0.51042 0.84518 0.10109 0.0
C1138 C 0.50321 0.87028 0.08874 0.0
C1139 C 0.48941 0.89584 0.04797 0.0
C1140 C 0.48503 0.89718 0.0194 0.0
C1141 C 0.49979 0.8717 0.06001 0.0
C1142 C 0.4923 0.87478 0.00235 0.0
C1143 C 0.50265 0.85028 0.01429 0.0
H1144 H 0.93646 0.74976 0.80069 0.0
H1145 H 0.91138 0.74685 0.88657 0.0
H1146 H 0.8628 0.74276 0.8729 0.0
H1147 H 0.8282 0.73529 0.83717 0.0
H1148 H 0.85147 0.73796 0.75092 0.0
H1149 H 0.90019 0.74661 0.764 0.0
C1150 C 0.92025 0.74846 0.81629 0.0
C1151 C 0.92736 0.74788 0.84456 0.0
C1152 C 0.89227 0.74549 0.80825 0.0
C1153 C 0.90633 0.74661 0.86469 0.0
C1154 C 0.87859 0.74429 0.85691 0.0
C1155 C 0.84397 0.73754 0.8212 0.0
C1156 C 0.8366 0.73507 0.79322 0.0
C1157 C 0.87149 0.74272 0.82885 0.0
C1158 C 0.85692 0.73922 0.77267 0.0
C1159 C 0.88467 0.74423 0.78014 0.0
H1160 H 0.92777 0.96916 0.82088 0.0
H1161 H 0.93116 0.05688 0.8019 0.0
H1162 H 0.95337 0.06623 0.84657 0.0
H1163 H 0.96462 0.0504 0.89364 0.0
H1164 H 0.95781 0.96332 0.91427 0.0
H1165 H 0.94394 0.95255 0.86661 0.0
C1166 C 0.93405 0.99017 0.82639 0.0
C1167 C 0.92785 0.01239 0.80849 0.0
C1168 C 0.94563 -0.00452 0.85259 0.0
C1169 C 0.93564 0.0396 0.81568 0.0
C1170 C 0.94819 0.04493 0.84118 0.0
C1171 C 0.96068 0.02904 0.8874 0.0
C1172 C 0.96242 0.00762 0.90709 0.0
C1173 C 0.95216 0.02321 0.86024 0.0
C1174 C 0.95718 0.97998 0.89911 0.0
C1175 C 0.94898 0.9739 0.87199 0.0
H1176 H 0.74565 0.13816 0.59863 0.0
H1177 H 0.787 0.20429 0.55369 0.0
H1178 H 0.78446 0.23421 0.59431 0.0
H1179 H 0.7702 0.24183 0.64167 0.0
H1180 H 0.72988 0.17628 0.68818 0.0
H1181 H 0.73148 0.14593 0.64728 0.0
C1182 C 0.75442 0.159 0.59792 0.0
C1183 C 0.76657 0.16906 0.57331 0.0
C1184 C 0.75257 0.17624 0.62126 0.0
C1185 C 0.77765 0.19611 0.57247 0.0
C1186 C 0.77603 0.21327 0.59557 0.0
C1187 C 0.76168 0.22091 0.64296 0.0
C1188 C 0.75009 0.21122 0.66787 0.0
C1189 C 0.76335 0.20362 0.61989 0.0
C1190 C 0.73879 0.18423 0.6691 0.0
C1191 C 0.73996 0.16683 0.64586 0.0
H1192 H 0.60842 0.99059 0.34213 0.0
H1193 H 0.53454 0.00922 0.29502 0.0
H1194 H 0.50569 0.0014 0.33632 0.0
H1195 H 0.50174 0.98742 0.38605 0.0
H1196 H 0.57641 0.96557 0.43057 0.0
H1197 H 0.6047 0.97654 0.39019 0.0
C1198 C 0.58602 -0.00688 0.34089 0.0
C1199 C 0.57361 0.00038 0.31566 0.0
C1200 C 0.56968 0.9877 0.36425 0.0
C1201 C 0.54455 0.00354 0.31432 0.0
C1202 C 0.52806 -0.00101 0.33787 0.0
C1203 C 0.52415 0.98479 0.38655 0.0
C1204 C 0.53706 0.97517 0.41082 0.0
C1205 C 0.54039 0.99062 0.36291 0.0
C1206 C 0.5661 0.97225 0.41172 0.0
C1207 C 0.5823 0.97874 0.38877 0.0
H1208 H 0.72185 0.82439 0.09013 0.0
H1209 H 0.80376 0.85904 0.07823 0.0
H1210 H 0.81781 0.84299 0.12428 0.0
H1211 H 0.80884 0.8129 0.16411 0.0
H1212 H 0.72718 0.77757 0.17636 0.0
H1213 H 0.7103 0.80157 0.13493 0.0
C1214 C 0.74269 0.82834 0.09785 0.0
C1215 C 0.76223 0.84171 0.08086 0.0
C1216 C 0.75042 0.81941 0.12445 0.0
C1217 C 0.78882 0.84796 0.09102 0.0
C1218 C 0.79674 0.83904 0.11731 0.0
C1219 C 0.78715 0.8111 0.15809 0.0
C1220 C 0.76955 0.79273 0.17242 0.0
C1221 C 0.77801 0.82391 0.13374 0.0
C1222 C 0.74127 0.7912 0.16519 0.0
C1223 C 0.73172 0.80458 0.14129 0.0
H1224 H 0.89414 0.95062 0.65703 0.0
H1225 H 0.91572 0.03773 0.66129 0.0
H1226 H 0.94019 0.03443 0.61692 0.0
H1227 H 0.96188 0.00502 0.58143 0.0
H1228 H 0.94638 0.91652 0.58164 0.0
H1229 H 0.91268 0.92194 0.61929 0.0
C1230 C 0.9038 0.96891 0.6479 0.0
C1231 C 0.90364 -0.00578 0.66233 0.0
C1232 C 0.91909 0.96646 0.62331 0.0
C1233 C 0.91611 0.01792 0.65055 0.0
C1234 C 0.93005 0.01604 0.62526 0.0
C1235 C 0.95058 0.9871 0.58938 0.0
C1236 C 0.95654 0.96045 0.57918 0.0
C1237 C 0.93268 0.99016 0.61209 0.0
C1238 C 0.94213 0.9372 0.58956 0.0
C1239 C 0.92299 0.94029 0.61107 0.0
H1240 H 0.7232 0.15046 0.41195 0.0
H1241 H 0.775 0.21403 0.44832 0.0
H1242 H 0.78306 0.23448 0.40226 0.0
H1243 H 0.77932 0.23057 0.35079 0.0
H1244 H 0.73253 0.16224 0.31612 0.0
H1245 H 0.7187 0.14709 0.3623 0.0
C1246 C 0.73585 0.16911 0.40992 0.0
C1247 C 0.74856 0.18072 0.43333 0.0
C1248 C 0.74174 0.17947 0.38354 0.0
C1249 C 0.76507 0.20474 0.43042 0.0
C1250 C 0.76983 0.21626 0.40412 0.0
C1251 C 0.76611 0.21243 0.3536 0.0
C1252 C 0.75718 0.19719 0.33041 0.0
C1253 C 0.75904 0.20318 0.3804 0.0
C1254 C 0.73998 0.17383 0.3339 0.0
C1255 C 0.73192 0.16531 0.36021 0.0
H1256 H 0.54569 0.98149 0.18726 0.0
H1257 H 0.61941 0.0101 0.14476 0.0
H1258 H 0.59394 0.01101 0.10083 0.0
H1259 H 0.5504 0.00361 0.07468 0.0
H1260 H 0.47691 0.9758 0.11856 0.0
H1261 H 0.50264 0.97499 0.16175 0.0
C1262 C 0.55624 0.9878 0.16836 0.0
C1263 C 0.5843 -0.00438 0.16916 0.0
C1264 C 0.54145 0.98866 0.14344 0.0
C1265 C 0.59773 0.00388 0.14458 0.0
C1266 C 0.58317 0.00452 0.11951 0.0
C1267 C 0.53996 -0.00237 0.09372 0.0
C1268 C 0.51175 0.98976 0.09324 0.0
C1269 C 0.55494 -0.00294 0.11872 0.0
C1270 C 0.4986 0.98196 0.11817 0.0
C1271 C 0.5133 0.98137 0.14297 0.0
H1272 H 0.70428 0.81821 0.92718 0.0
H1273 H 0.77442 0.86929 0.90438 0.0
H1274 H 0.77264 0.85114 0.85689 0.0
H1275 H 0.75517 0.81525 0.8241 0.0
H1276 H 0.68402 0.76558 0.84738 0.0
H1277 H 0.68134 0.78945 0.89183 0.0
C1278 C 0.71898 0.8255 0.91169 0.0
C1279 C 0.73993 0.84435 0.91931 0.0
C1280 C 0.71746 0.8154 0.8844 0.0
C1281 C 0.75838 0.85438 0.89898 0.0
C1282 C 0.75733 0.84404 0.87184 0.0
C1283 C 0.73846 0.81048 0.83848 0.0
C1284 C 0.72008 0.78839 0.83266 0.0
C1285 C 0.73747 0.82385 0.86451 0.0
C1286 C 0.69856 0.78235 0.85153 0.0
C1287 C 0.6972 0.79576 0.8771 0.0
H1288 H 0.81661 0.92883 0.03664 0.0
H1289 H 0.84877 0.86976 0.97765 0.0
H1290 H 0.89509 0.8913 0.98094 0.0
H1291 H 0.92401 0.93161 -0.0044 0.0
H1292 H 0.89084 0.98977 0.0551 0.0
H1293 H 0.84767 0.96306 0.05776 0.0
C1294 C 0.83387 0.92056 0.02469 0.0
C1295 C 0.82929 0.8986 0.00612 0.0
C1296 C 0.86026 0.93266 0.0271 0.0
C1297 C 0.85185 0.88722 -0.00846 0.0
C1298 C 0.87827 0.89944 -0.00649 0.0
C1299 C 0.90767 0.9378 0.00983 0.0
C1300 C 0.91027 0.9628 0.0248 0.0
C1301 C 0.88247 0.92282 0.01054 0.0
C1302 C 0.88903 0.97074 0.04315 0.0
C1303 C 0.86429 0.95565 0.04449 0.0
H1304 H 0.31657 0.54989 0.98583 0.0
H1305 H 0.34128 0.63141 0.01488 0.0
H1306 H 0.3896 0.61707 0.0158 0.0
H1307 H 0.42526 0.58306 0.00525 0.0
H1308 H 0.40255 0.50106 0.97687 0.0
H1309 H 0.35299 0.51372 0.97899 0.0
C1310 C 0.33258 0.56439 -0.00761 0.0
C1311 C 0.32541 0.5918 -0.00026 0.0
C1312 C 0.36062 0.55601 -0.0071 0.0
C1313 C 0.34626 0.61032 0.00864 0.0
C1314 C 0.37395 0.60217 0.00927 0.0
C1315 C 0.40939 0.56795 -0.00036 0.0
C1316 C 0.41721 0.54148 0.99044 0.0
C1317 C 0.38137 0.57534 0.00091 0.0
C1318 C 0.39673 0.52168 0.98388 0.0
C1319 C 0.36852 0.52897 0.98496 0.0
H1320 H 0.19222 0.56364 0.71657 0.0
H1321 H 0.12233 0.60376 0.75552 0.0
H1322 H 0.14752 0.64851 0.75517 0.0
H1323 H 0.19211 0.67404 0.74904 0.0
H1324 H 0.26164 0.6319 0.71094 0.0
H1325 H 0.23361 0.59008 0.70498 0.0
C1326 C 0.18244 0.5823 0.72471 0.0
C1327 C 0.15597 0.58065 0.73658 0.0
C1328 C 0.19696 0.60744 0.72452 0.0
C1329 C 0.14295 0.60481 0.74649 0.0
C1330 C 0.15735 0.63024 0.74635 0.0
C1331 C 0.20083 0.65586 0.73892 0.0
C1332 C 0.22898 0.65571 0.73092 0.0
C1333 C 0.18476 0.63155 0.73618 0.0
C1334 C 0.24014 0.63219 0.71772 0.0
C1335 C 0.22418 0.60831 0.71433 0.0
H1336 H 0.17121 0.4469 0.5211 0.0
H1337 H 0.14551 0.36194 0.50633 0.0
H1338 H 0.09741 0.37676 0.50157 0.0
H1339 H 0.06557 0.41456 0.49004 0.0
H1340 H 0.09095 0.49979 0.50137 0.0
H1341 H 0.1358 0.48436 0.52015 0.0
C1342 C 0.15497 0.43166 0.51735 0.0
C1343 C 0.16198 0.40361 0.51284 0.0
C1344 C 0.12728 0.44041 0.51397 0.0
C1345 C 0.14072 0.38385 0.50885 0.0
C1346 C 0.11317 0.39224 0.50626 0.0
C1347 C 0.08056 0.42961 0.49778 0.0
C1348 C 0.07558 0.45805 0.49408 0.0
C1349 C 0.10656 0.42059 0.50706 0.0
C1350 C 0.09469 0.47769 0.50412 0.0
C1351 C 0.12043 0.46886 0.51441 0.0
H1352 H 0.87035 0.89816 0.75867 0.0
H1353 H 0.79672 0.94407 0.78143 0.0
H1354 H 0.76934 0.90111 0.78062 0.0
H1355 H 0.76459 0.85366 0.76149 0.0
H1356 H 0.83782 0.80877 0.73638 0.0
H1357 H 0.86726 0.84773 0.75071 0.0
C1358 C 0.84845 0.89864 0.76414 0.0
C1359 C 0.83533 0.92433 0.76912 0.0
C1360 C 0.83274 0.87398 0.763 0.0
C1361 C 0.80715 0.9246 0.77691 0.0
C1362 C 0.79146 0.90005 0.77636 0.0
C1363 C 0.78709 0.85196 0.76062 0.0
C1364 C 0.79918 0.82863 0.74796 0.0
C1365 C 0.8037 0.87498 0.76774 0.0
C1366 C 0.82824 0.82655 0.7464 0.0
C1367 C 0.84501 0.84901 0.75415 0.0
H1368 H 0.66859 0.09092 0.46383 0.0
H1369 H 0.66626 0.10745 0.55152 0.0
H1370 H 0.61977 0.08635 0.55466 0.0
H1371 H 0.58314 0.05705 0.53306 0.0
H1372 H 0.58729 0.04001 0.44547 0.0
H1373 H 0.62924 0.06841 0.44128 0.0
C1374 C 0.6577 0.0901 0.48354 0.0
C1375 C 0.67076 0.09986 0.50751 0.0
C1376 C 0.6313 0.07808 0.48507 0.0
C1377 C 0.65645 0.09959 0.53288 0.0
C1378 C 0.62999 0.08756 0.53466 0.0
C1379 C 0.59293 0.06034 0.51305 0.0
C1380 C 0.58273 0.04643 0.48966 0.0
C1381 C 0.61762 0.07589 0.51101 0.0
C1382 C 0.59527 0.05049 0.46371 0.0
C1383 C 0.61924 0.06652 0.46135 0.0
H1384 H 0.15009 0.41114 0.77799 0.0
H1385 H 0.20876 0.449 0.72167 0.0
H1386 H 0.23796 0.40719 0.72361 0.0
H1387 H 0.24629 0.35909 0.7412 0.0
H1388 H 0.18793 0.32358 0.79941 0.0
H1389 H 0.15903 0.365 0.79663 0.0
C1390 C 0.16933 0.4103 0.76622 0.0
C1391 C 0.17729 0.43299 0.74975 0.0
C1392 C 0.18606 0.38653 0.76773 0.0
C1393 C 0.20228 0.4317 0.73463 0.0
C1394 C 0.21893 0.40781 0.73566 0.0
C1395 C 0.2274 0.36074 0.75338 0.0
C1396 C 0.2194 0.33867 0.77078 0.0
C1397 C 0.211 0.38501 0.75214 0.0
C1398 C 0.19476 0.34068 0.78635 0.0
C1399 C 0.17812 0.36425 0.78467 0.0
H1400 H 0.30183 0.565 0.22539 0.0
H1401 H 0.38474 0.59709 0.23836 0.0
H1402 H 0.36668 0.64432 0.24155 0.0
H1403 H 0.32697 0.67393 0.25214 0.0
H1404 H 0.24381 0.64158 0.24481 0.0
H1405 H 0.26196 0.59743 0.22679 0.0
C1406 C 0.3159 0.58247 0.22822 0.0
C1407 C 0.34435 0.57765 0.23258 0.0
C1408 C 0.30523 0.60954 0.23108 0.0
C1409 C 0.36258 0.60034 0.23578 0.0
C1410 C 0.35232 0.62735 0.23751 0.0
C1411 C 0.31292 0.65758 0.24534 0.0
C1412 C 0.28436 0.66052 0.24972 0.0
C1413 C 0.3236 0.63191 0.23687 0.0
C1414 C 0.26598 0.63946 0.24132 0.0
C1415 C 0.27639 0.61416 0.23146 0.0
H1416 H 0.53622 0.65955 0.58875 0.0
H1417 H 0.44963 0.68155 0.59672 0.0
H1418 H 0.43602 0.63998 0.57108 0.0
H1419 H 0.44877 0.60012 0.54283 0.0
H1420 H 0.53457 0.57535 0.5359 0.0
H1421 H 0.54866 0.61471 0.56538 0.0
C1422 C 0.51446 0.65487 0.58502 0.0
C1423 C 0.49383 0.67345 0.5941 0.0
C1424 C 0.50673 0.63053 0.57064 0.0
C1425 C 0.46567 0.66735 0.5897 0.0
C1426 C 0.45791 0.64369 0.57508 0.0
C1427 C 0.4705 0.60316 0.54817 0.0
C1428 C 0.49067 0.58543 0.53705 0.0
C1429 C 0.47825 0.62553 0.56495 0.0
C1430 C 0.51874 0.589 0.54433 0.0
C1431 C 0.52678 0.61157 0.56094 0.0
H1432 H 0.57383 0.19985 0.82337 0.0
H1433 H 0.57702 0.28869 0.83604 0.0
H1434 H 0.62159 0.29133 0.81187 0.0
H1435 H 0.6629 0.26739 0.79447 0.0
H1436 H 0.66283 0.17785 0.78832 0.0
H1437 H 0.61378 0.17622 0.80187 0.0
C1438 C 0.58419 0.21973 0.82029 0.0
C1439 C 0.57276 0.24395 0.83161 0.0
C1440 C 0.61042 0.22086 0.80767 0.0
C1441 C 0.58601 0.26975 0.82775 0.0
C1442 C 0.61136 0.27128 0.81393 0.0
C1443 C 0.65177 0.2477 0.79539 0.0
C1444 C 0.66603 0.22283 0.79067 0.0
C1445 C 0.62428 0.24685 0.80485 0.0
C1446 C 0.65191 0.19722 0.79212 0.0
C1447 C 0.62402 0.19628 0.79997 0.0
H1448 H 0.96271 0.31963 0.06005 0.0
H1449 H 0.01127 0.34791 0.12981 0.0
H1450 H 0.01511 0.3941 0.10926 0.0
H1451 H 0.01357 0.42252 0.06722 0.0
H1452 H 0.96874 0.39339 -0.00421 0.0
H1453 H 0.9529 0.35234 0.02167 0.0
C1454 C 0.97368 0.33609 0.07091 0.0
C1455 C 0.98738 0.33018 0.09594 0.0
C1456 C 0.97613 0.36262 0.05877 0.0
C1457 C 0.00097 0.3518 0.11022 0.0
C1458 C 0.00313 0.37828 0.09853 0.0
C1459 C -0.00085 0.40783 0.0579 0.0
C1460 C 0.99233 0.41061 0.02981 0.0
C1461 C 0.99196 0.38348 0.07224 0.0
C1462 C 0.97399 0.39155 0.01754 0.0
C1463 C 0.96548 0.36783 0.03217 0.0
H1464 H 0.91381 0.78319 0.33833 0.0
H1465 H 0.91722 0.69453 0.35252 0.0
H1466 H 0.87286 0.68845 0.32829 0.0
H1467 H 0.83781 0.70785 0.29659 0.0
H1468 H 0.83354 0.79664 0.28373 0.0
H1469 H 0.87355 0.80351 0.31446 0.0
C1470 C 0.90448 0.76266 0.33645 0.0
C1471 C 0.91874 0.73922 0.34622 0.0
C1472 C 0.87919 0.75943 0.32265 0.0
C1473 C 0.90647 0.71274 0.34466 0.0
C1474 C 0.8813 0.70927 0.33076 0.0
C1475 C 0.84552 0.72866 0.30098 0.0
C1476 C 0.83373 0.7517 0.28765 0.0
C1477 C 0.86822 0.73234 0.31861 0.0
C1478 C 0.8429 0.77872 0.29373 0.0
C1479 C 0.86569 0.7826 0.31113 0.0
H1480 H 0.45353 0.32705 0.9116 0.0
H1481 H 0.53817 0.34056 0.88483 0.0
H1482 H 0.53571 0.38914 0.89972 0.0
H1483 H 0.51315 0.42356 0.92957 0.0
H1484 H 0.43118 0.40723 0.96187 0.0
H1485 H 0.42796 0.36475 0.93409 0.0
C1486 C 0.47128 0.34078 0.90878 0.0
C1487 C 0.49627 0.33025 0.8982 0.0
C1488 C 0.46991 0.36832 0.91795 0.0
C1489 C 0.51891 0.34824 0.89364 0.0
C1490 C 0.51748 0.37598 0.90201 0.0
C1491 C 0.49416 0.41125 0.92941 0.0
C1492 C 0.47254 0.41791 0.94766 0.0
C1493 C 0.49357 0.38578 0.91545 0.0
C1494 C 0.448 0.40211 0.94781 0.0
C1495 C 0.4464 0.37768 0.93235 0.0
H1496 H 0.89656 0.25974 0.13894 0.0
H1497 H 0.94523 0.25739 0.21406 0.0
H1498 H 0.90275 0.25476 0.2417 0.0
H1499 H 0.85334 0.24224 0.24339 0.0
H1500 H 0.80539 0.23995 0.16817 0.0
H1501 H 0.84564 0.25643 0.14161 0.0
C1502 C 0.89782 0.25909 0.16138 0.0
C1503 C 0.92389 0.25771 0.17448 0.0
C1504 C 0.87338 0.25687 0.17705 0.0
C1505 C 0.92533 0.25769 0.20354 0.0
C1506 C 0.90108 0.25627 0.21934 0.0
C1507 C 0.85156 0.24662 0.22139 0.0
C1508 C 0.82687 0.24004 0.20753 0.0
C1509 C 0.87516 0.25432 0.20622 0.0
C1510 C 0.82437 0.2453 0.17907 0.0
C1511 C 0.84747 0.25422 0.1639 0.0
H1512 H 0.04102 0.65848 0.38857 0.0
H1513 H 0.98571 0.68876 0.45216 0.0
H1514 H 0.98586 0.64279 0.47439 0.0
H1515 H -0.00237 0.59288 0.47236 0.0
H1516 H 0.05115 0.5629 0.40694 0.0
H1517 H 0.05589 0.61007 0.38879 0.0
C1518 C 0.02923 0.65509 0.40748 0.0
C1519 C 0.01304 0.67666 0.41853 0.0
C1520 C 0.02889 0.62866 0.41959 0.0
C1521 C -0.00176 0.6723 0.44326 0.0
C1522 C -0.00181 0.64603 0.45584 0.0
C1523 C 0.01055 0.59675 0.45431 0.0
C1524 C 0.02362 0.57443 0.4407 0.0
C1525 C 0.01277 0.62386 0.44366 0.0
C1526 C 0.04042 0.57969 0.41743 0.0
C1527 C 0.04324 0.60664 0.4071 0.0
H1528 H 0.58322 0.79134 0.65273 0.0
H1529 H 0.56201 0.71758 0.69911 0.0
H1530 H 0.60838 0.71781 0.72088 0.0
H1531 H 0.65658 0.73733 0.72316 0.0
H1532 H 0.67525 0.81207 0.67646 0.0
H1533 H 0.62821 0.81326 0.65871 0.0
C1534 C 0.58868 0.77548 0.66786 0.0
C1535 C 0.56962 0.75436 0.67418 0.0
C1536 C 0.61497 0.77589 0.68016 0.0
C1537 C 0.57655 0.7341 0.69404 0.0
C1538 C 0.60305 0.73417 0.70632 0.0
C1539 C 0.65015 0.75408 0.70949 0.0
C1540 C 0.66966 0.77428 0.70083 0.0
C1541 C 0.6227 0.75472 0.69909 0.0
C1542 C 0.66093 0.79593 0.68314 0.0
C1543 C 0.63396 0.79672 0.67293 0.0
H1544 H 0.61364 0.47576 0.65756 0.0
H1545 H 0.5368 0.50596 0.69252 0.0
H1546 H 0.51473 0.50362 0.64661 0.0
H1547 H 0.51801 0.49326 0.59619 0.0
H1548 H 0.596 0.46269 0.56338 0.0
H1549 H 0.61679 0.46502 0.60891 0.0
C1550 C 0.59203 0.48185 0.65525 0.0
C1551 C 0.57688 0.49108 0.6783 0.0
C1552 C 0.57967 0.48038 0.62915 0.0
C1553 C 0.54887 0.49873 0.67498 0.0
C1554 C 0.5363 0.49744 0.64878 0.0
C1555 C 0.5395 0.48705 0.59908 0.0
C1556 C 0.55526 0.47768 0.57629 0.0
C1557 C 0.55158 0.48833 0.62563 0.0
C1558 C 0.58315 0.46976 0.58042 0.0
C1559 C 0.59521 0.47113 0.6065 0.0
H1560 H 0.7969 0.32043 0.92976 0.0
H1561 H 0.72244 0.36289 0.90383 0.0
H1562 H 0.72722 0.34319 0.85707 0.0
H1563 H 0.74795 0.307 0.82727 0.0
H1564 H 0.82047 0.26236 0.85533 0.0
H1565 H 0.82233 0.2911 0.89709 0.0
C1566 C 0.78194 0.32551 0.91368 0.0
C1567 C 0.75887 0.34202 0.92004 0.0
C1568 C 0.78482 0.31408 0.88726 0.0
C1569 C 0.74003 0.34959 0.89918 0.0
C1570 C 0.74282 0.33842 0.87258 0.0
C1571 C 0.76468 0.30432 0.84213 0.0
C1572 C 0.78378 0.28246 0.8388 0.0
C1573 C 0.76449 0.31967 0.8668 0.0
C1574 C 0.80542 0.27894 0.85793 0.0
C1575 C 0.80628 0.29513 0.88183 0.0
H1576 H 0.9502 0.50822 0.17659 0.0
H1577 H 0.87185 0.47071 0.15368 0.0
H1578 H 0.88525 0.47175 0.10494 0.0
H1579 H 0.91719 0.48747 0.0687 0.0
H1580 H -0.00447 0.52501 0.09075 0.0
H1581 H 0.98417 0.52026 0.14019 0.0
C1582 C 0.93632 0.49994 0.1609 0.0
C1583 C 0.91001 0.48978 0.16843 0.0
C1584 C 0.94395 0.50108 0.13291 0.0
C1585 C 0.89208 0.47902 0.14812 0.0
C1586 C 0.89968 0.47963 0.12033 0.0
C1587 C 0.93175 0.49435 0.08449 0.0
C1588 C 0.95687 0.50674 0.07669 0.0
C1589 C 0.92516 0.49134 0.11248 0.0
C1590 C 0.97602 0.51539 0.09679 0.0
C1591 C 0.96952 0.51271 0.12486 0.0
H1592 H 0.77842 0.65677 0.40138 0.0
H1593 H 0.72516 0.70301 0.45665 0.0
H1594 H 0.71372 0.73551 0.41957 0.0
H1595 H 0.71496 0.74784 0.37063 0.0
H1596 H 0.76894 0.70338 0.3147 0.0
H1597 H 0.78506 0.67391 0.35304 0.0
C1598 C 0.76469 0.67425 0.40526 0.0
C1599 C 0.75242 0.67745 0.43153 0.0
C1600 C 0.75853 0.69326 0.38385 0.0
C1601 C 0.73489 0.70025 0.43658 0.0
C1602 C 0.72828 0.7188 0.41539 0.0
C1603 C 0.73066 0.73204 0.36692 0.0
C1604 C 0.74036 0.72737 0.33989 0.0
C1605 C 0.73947 0.71512 0.38885 0.0
C1606 C 0.76107 0.70724 0.33539 0.0
C1607 C 0.77005 0.69021 0.35724 0.0
H1608 H 0.55488 0.47094 0.82518 0.0
H1609 H 0.63489 0.50182 0.85183 0.0
H1610 H 0.61756 0.50639 0.89915 0.0
H1611 H 0.57689 0.51293 0.92903 0.0
H1612 H 0.49605 0.48628 0.90132 0.0
H1613 H 0.5165 0.46749 0.85874 0.0
C1614 C 0.56863 0.47818 0.84147 0.0
C1615 C 0.59569 0.48713 0.83494 0.0
C1616 C 0.55831 0.48144 0.86843 0.0
C1617 C 0.61368 0.49556 0.85629 0.0
C1618 C 0.60382 0.49814 0.88334 0.0
C1619 C 0.56409 0.50186 0.91411 0.0
C1620 C 0.53522 0.50114 0.91769 0.0
C1621 C 0.57575 0.49279 0.88917 0.0
C1622 C 0.51844 0.48693 0.89864 0.0
C1623 C 0.53007 0.47662 0.8742 0.0
H1624 H 0.70969 0.33281 0.07952 0.0
H1625 H 0.78949 0.29443 0.06596 0.0
H1626 H 0.79046 0.27822 0.11414 0.0
H1627 H 0.77114 0.28016 0.16131 0.0
H1628 H 0.69453 0.32436 0.176 0.0
H1629 H 0.6897 0.33347 0.12631 0.0
C1630 C 0.72682 0.32017 0.08701 0.0
C1631 C 0.7493 0.31441 0.06944 0.0
C1632 C 0.72808 0.3127 0.11507 0.0
C1633 C 0.77186 0.29874 0.07929 0.0
C1634 C 0.77254 0.28977 0.10682 0.0
C1635 C 0.75337 0.29165 0.15349 0.0
C1636 C 0.73336 0.30184 0.17206 0.0
C1637 C 0.75124 0.29753 0.12512 0.0
C1638 C 0.71042 0.3168 0.16196 0.0
C1639 C 0.70755 0.32179 0.13361 0.0
H1640 H 0.88406 0.48015 0.34523 0.0
H1641 H 0.95764 0.5176 0.30953 0.0
H1642 H 0.98083 0.51574 0.3545 0.0
H1643 H 0.98121 0.50065 0.40248 0.0
H1644 H 0.90974 0.45993 0.43824 0.0
H1645 H 0.88403 0.46622 0.39446 0.0
C1646 C 0.90509 0.48807 0.34742 0.0
C1647 C 0.91931 0.49885 0.32428 0.0
C1648 C 0.91841 0.48637 0.3731 0.0
C1649 C 0.94651 0.509 0.32712 0.0
C1650 C 0.95969 0.50802 0.35274 0.0
C1651 C 0.95984 0.49351 0.40068 0.0
C1652 C 0.94709 0.47993 0.42302 0.0
C1653 C 0.94596 0.49637 0.37562 0.0
C1654 C 0.91961 0.47055 0.421 0.0
C1655 C 0.90515 0.47401 0.39607 0.0
H1656 H 0.78915 0.63935 0.58804 0.0
H1657 H 0.71645 0.68386 0.55959 0.0
H1658 H 0.71577 0.71101 0.60202 0.0
H1659 H 0.7375 0.72481 0.64526 0.0
H1660 H 0.81062 0.68249 0.6748 0.0
H1661 H 0.80924 0.65122 0.63423 0.0
C1662 C 0.77315 0.65492 0.59127 0.0
C1663 C 0.7531 0.65984 0.57052 0.0
C1664 C 0.7729 0.6707 0.61589 0.0
C1665 C 0.73224 0.6798 0.57509 0.0
C1666 C 0.73179 0.69534 0.59937 0.0
C1667 C 0.75292 0.70845 0.64292 0.0
C1668 C 0.77417 0.70583 0.66258 0.0
C1669 C 0.75224 0.69131 0.61958 0.0
C1670 C 0.79407 0.68469 0.65973 0.0
C1671 C 0.79334 0.66705 0.63651 0.0
H1672 H 0.6603 0.59815 0.45709 0.0
H1673 H 0.6826 0.55827 0.53423 0.0
H1674 H 0.63857 0.53307 0.53452 0.0
H1675 H 0.59613 0.51878 0.51074 0.0
H1676 H 0.5739 0.55612 0.43267 0.0
H1677 H 0.61518 0.58657 0.43504 0.0
C1678 C 0.65542 0.58401 0.47397 0.0
C1679 C 0.67491 0.57959 0.49529 0.0
C1680 C 0.63015 0.56924 0.47382 0.0
C1681 C 0.66812 0.56172 0.51738 0.0
C1682 C 0.64295 0.54731 0.5176 0.0
C1683 C 0.60032 0.53382 0.4944 0.0
C1684 C 0.58266 0.53519 0.4714 0.0
C1685 C 0.62423 0.55036 0.4956 0.0
C1686 C 0.58773 0.55468 0.45034 0.0
C1687 C 0.61124 0.57193 0.45172 0.0
H1688 H 0.18801 0.93894 0.53392 0.0
H1689 H 0.16107 0.89496 0.46071 0.0
H1690 H 0.11816 0.92204 0.45977 0.0
H1691 H 0.08661 0.95481 0.48205 0.0
H1692 H 0.11063 -0.00503 0.55823 0.0
H1693 H 0.15685 0.97355 0.55531 0.0
C1694 C 0.17284 0.93554 0.51764 0.0
C1695 C 0.17757 0.91496 0.4975 0.0
C1696 C 0.14789 0.95071 0.51762 0.0
C1697 C 0.15776 0.91058 0.47656 0.0
C1698 C 0.13329 0.92612 0.47593 0.0
C1699 C 0.10228 0.95954 0.49755 0.0
C1700 C 0.09556 0.97665 0.52013 0.0
C1701 C 0.12796 0.94588 0.4966 0.0
C1702 C 0.11564 0.98204 0.54054 0.0
C1703 C 0.14187 0.96959 0.539 0.0
H1704 H 0.36689 0.89842 0.76006 0.0
H1705 H 0.29919 0.93983 0.71796 0.0
H1706 H 0.26839 0.90094 0.7286 0.0
H1707 H 0.25987 0.85733 0.75238 0.0
H1708 H 0.32716 0.81305 0.79154 0.0
H1709 H 0.35925 0.85152 0.78012 0.0
C1710 C 0.34548 0.89869 0.75295 0.0
C1711 C 0.33506 0.92207 0.73875 0.0
C1712 C 0.32784 0.87633 0.75926 0.0
C1713 C 0.30754 0.9221 0.72911 0.0
C1714 C 0.28988 0.90005 0.73539 0.0
C1715 C 0.28149 0.85639 0.75887 0.0
C1716 C 0.29117 0.83331 0.77371 0.0
C1717 C 0.29963 0.87759 0.75114 0.0
C1718 C 0.31935 0.83131 0.78085 0.0
C1719 C 0.3376 0.85303 0.77406 0.0
H1720 H 0.33243 0.07182 0.9576 0.0
H1721 H 0.34869 0.12406 0.02835 0.0
H1722 H 0.39328 0.10084 0.0358 0.0
H1723 H 0.4211 0.05848 0.02865 0.0
H1724 H 0.40471 0.00594 0.95832 0.0
H1725 H 0.36761 0.03732 0.9431 0.0
C1726 C 0.34617 0.07849 0.97415 0.0
C1727 C 0.33721 0.09883 -0.00706 0.0
C1728 C 0.37177 0.06512 0.97821 0.0
C1729 C 0.35521 0.10806 0.01392 0.0
C1730 C 0.38064 0.09479 0.01821 0.0
C1731 C 0.41028 0.05481 0.00924 0.0
C1732 C 0.41502 0.03003 -0.00529 0.0
C1733 C 0.38834 0.07228 0.0014 0.0
C1734 C 0.40112 0.02507 0.9697 0.0
C1735 C 0.37966 0.04273 0.9613 0.0
H1736 H 0.68977 0.56598 0.72846 0.0
H1737 H 0.61165 0.59594 0.76089 0.0
H1738 H 0.6304 0.64315 0.76333 0.0
H1739 H 0.67148 0.67361 0.76476 0.0
H1740 H 0.75015 0.64356 0.73462 0.0
H1741 H 0.72864 0.5991 0.72174 0.0
C1742 C 0.67676 0.58293 0.73569 0.0
C1743 C 0.64963 0.5773 0.74524 0.0
C1744 C 0.68777 0.61008 0.73726 0.0
C1745 C 0.63279 0.59958 0.75394 0.0
C1746 C 0.64347 0.62663 0.75529 0.0
C1747 C 0.6835 0.65775 0.75411 0.0
C1748 C 0.71218 0.6617 0.75042 0.0
C1749 C 0.67125 0.63188 0.7481 0.0
C1750 C 0.72788 0.641 0.73717 0.0
C1751 C 0.71568 0.61541 0.73033 0.0
H1752 H 0.81444 0.44089 0.97789 0.0
H1753 H 0.85767 0.36735 0.00562 0.0
H1754 H 0.90252 0.38901 -0.00612 0.0
H1755 H 0.92907 0.43061 0.97851 0.0
H1756 H 0.88388 0.50189 0.94712 0.0
H1757 H 0.84013 0.47896 0.95691 0.0
C1758 C 0.8337 0.42968 0.98151 0.0
C1759 C 0.83301 0.40304 -0.00677 0.0
C1760 C 0.85899 0.44169 0.97372 0.0
C1761 C 0.85793 0.38824 -0.00294 0.0
C1762 C 0.88347 0.40049 0.99017 0.0
C1763 C 0.90968 0.44078 0.9731 0.0
C1764 C 0.9099 0.46821 0.9627 0.0
C1765 C 0.88424 0.4274 0.97869 0.0
C1766 C 0.88451 0.48092 0.95546 0.0
C1767 C 0.85933 0.46796 0.96127 0.0
H1768 H 0.36357 0.09246 0.75409 0.0
H1769 H 0.28703 0.04942 0.73547 0.0
H1770 H 0.26327 0.0945 0.7294 0.0
H1771 H 0.26627 0.14666 0.72504 0.0
H1772 H 0.34551 0.18656 0.73962 0.0
H1773 H 0.36632 0.14212 0.75145 0.0
C1774 C 0.34162 0.09277 0.74882 0.0
C1775 C 0.32718 0.06777 0.74475 0.0
C1776 C 0.32872 0.11829 0.74428 0.0
C1777 C 0.29863 0.06855 0.73845 0.0
C1778 C 0.28514 0.09427 0.73484 0.0
C1779 C 0.28802 0.14536 0.73085 0.0
C1780 C 0.30459 0.16957 0.73102 0.0
C1781 C 0.30025 0.11935 0.73691 0.0
C1782 C 0.33264 0.16799 0.7388 0.0
C1783 C 0.34451 0.14268 0.74573 0.0
H1784 H 0.19142 0.92035 0.28419 0.0
H1785 H 0.11209 0.89247 0.25265 0.0
H1786 H 0.12909 0.84473 0.25072 0.0
H1787 H 0.16959 0.81454 0.24597 0.0
H1788 H 0.2501 0.84332 0.27227 0.0
H1789 H 0.22947 0.88638 0.28999 0.0
C1790 C 0.17769 0.90369 0.27754 0.0
C1791 C 0.15091 0.91 0.26765 0.0
C1792 C 0.18786 0.87635 0.27576 0.0
C1793 C 0.13305 0.88821 0.25973 0.0
C1794 C 0.14271 0.86087 0.25868 0.0
C1795 C 0.18224 0.82966 0.257 0.0
C1796 C 0.21112 0.82635 0.25755 0.0
C1797 C 0.17054 0.85509 0.26497 0.0
C1798 C 0.22768 0.84574 0.2717 0.0
C1799 C 0.21596 0.87057 0.28126 0.0
H1800 H 0.48222 0.31363 0.44553 0.0
H1801 H 0.48924 0.34591 0.36228 0.0
H1802 H 0.48507 0.39339 0.37956 0.0
H1803 H 0.4918 0.42493 0.41857 0.0
H1804 H 0.48959 0.39319 0.50193 0.0
H1805 H 0.47817 0.34662 0.48469 0.0
C1806 C 0.48226 0.33107 0.4312 0.0
C1807 C 0.48705 0.32643 0.40283 0.0
C1808 C 0.48065 0.35846 0.44138 0.0
C1809 C 0.48651 0.34908 0.38434 0.0
C1810 C 0.48395 0.37622 0.39416 0.0
C1811 C 0.48723 0.40807 0.43292 0.0
C1812 C 0.49184 0.41207 0.46126 0.0
C1813 C 0.4827 0.38117 0.42271 0.0
C1814 C 0.48599 0.39039 0.47994 0.0
C1815 C 0.48012 0.36364 0.47002 0.0
H1816 H 0.42439 0.72937 0.18748 0.0
H1817 H 0.42095 0.80201 0.13477 0.0
H1818 H 0.37516 0.81381 0.15312 0.0
H1819 H 0.33451 0.80097 0.1805 0.0
H1820 H 0.33661 0.72709 0.23167 0.0
H1821 H 0.3846 0.71832 0.2177 0.0
C1822 C 0.41362 0.74787 0.18027 0.0
C1823 C 0.42555 0.76459 0.15959 0.0
C1824 C 0.38708 0.75417 0.19044 0.0
C1825 C 0.41171 0.78859 0.15035 0.0
C1826 C 0.38565 0.79539 0.16086 0.0
C1827 C 0.34557 0.78311 0.18878 0.0
C1828 C 0.33204 0.76459 0.20676 0.0
C1829 C 0.37286 0.77791 0.18031 0.0
C1830 C 0.34666 0.74171 0.21774 0.0
C1831 C 0.37404 0.73657 0.20967 0.0
H1832 H 0.02855 0.64811 0.89073 0.0
H1833 H 0.01944 0.70306 0.9608 0.0
H1834 H 0.01624 0.66309 -0.00803 0.0
H1835 H 0.00533 0.61354 -0.00286 0.0
H1836 H 0.01318 0.55835 0.92737 0.0
H1837 H 0.02914 0.59713 0.8983 0.0
C1838 C 0.02652 0.65119 0.91291 0.0
C1839 C 0.02342 0.67822 0.92353 0.0
C1840 C 0.02471 0.62811 0.93067 0.0
C1841 C 0.0215 0.68229 0.95226 0.0
C1842 C 0.01966 0.65949 0.97006 0.0
C1843 C 0.01191 0.6099 0.97592 0.0
C1844 C 0.00779 0.58361 0.96405 0.0
C1845 C 0.01981 0.6324 0.95927 0.0
C1846 C 0.01631 0.57864 0.93673 0.0
C1847 C 0.0249 0.60088 0.92004 0.0
H1848 H 0.10021 0.24149 0.63527 0.0
H1849 H 0.04757 0.25745 0.70609 0.0
H1850 H 0.08769 0.25469 0.73674 0.0
H1851 H 0.13752 0.25055 0.74315 0.0
H1852 H 0.19129 0.23574 0.67307 0.0
H1853 H 0.1507 0.23477 0.64224 0.0
C1854 C 0.0976 0.24436 0.65742 0.0
C1855 C 0.07112 0.25007 0.66842 0.0
C1856 C 0.12081 0.24288 0.67494 0.0
C1857 C 0.06784 0.25341 0.69713 0.0
C1858 C 0.09071 0.25174 0.71467 0.0
C1859 C 0.14039 0.247 0.72112 0.0
C1860 C 0.16724 0.24359 0.71025 0.0
C1861 C 0.11725 0.24692 0.70373 0.0
C1862 C 0.1707 0.23843 0.68183 0.0
C1863 C 0.14757 0.23806 0.66424 0.0
H1864 H 0.52883 0.65181 0.1113 0.0
H1865 H 0.45997 0.67898 0.06067 0.0
H1866 H 0.4609 0.63484 0.03547 0.0
H1867 H 0.4845 0.59144 0.02454 0.0
H1868 H 0.55674 0.56597 0.0708 0.0
H1869 H 0.55121 0.60649 0.10169 0.0
C1870 C 0.51382 0.64781 0.09499 0.0
C1871 C 0.49444 0.66846 0.0876 0.0
C1872 C 0.51524 0.6229 0.07994 0.0
C1873 C 0.47517 0.66335 0.06642 0.0
C1874 C 0.4757 0.6382 0.05209 0.0
C1875 C 0.49871 0.59462 0.04175 0.0
C1876 C 0.52092 0.57618 0.04572 0.0
C1877 C 0.4961 0.61828 0.05821 0.0
C1878 C 0.53945 0.5801 0.06773 0.0
C1879 C 0.53635 0.60326 0.08511 0.0
H1880 H 0.10339 0.72392 0.85637 0.0
H1881 H 0.05388 0.73006 0.78214 0.0
H1882 H 0.09599 0.72737 0.75367 0.0
H1883 H 0.14615 0.73697 0.7516 0.0
H1884 H 0.19504 0.73473 0.82621 0.0
H1885 H 0.15424 0.72031 0.85288 0.0
C1886 C 0.10188 0.72411 0.83393 0.0
C1887 C 0.076 0.72849 0.82121 0.0
C1888 C 0.12608 0.72292 0.81788 0.0
C1889 C 0.07385 0.72753 0.79224 0.0
C1890 C 0.09786 0.72592 0.77601 0.0
C1891 C 0.14803 0.7317 0.77341 0.0
C1892 C 0.17301 0.73735 0.78727 0.0
C1893 C 0.1241 0.7255 0.78874 0.0
C1894 C 0.17578 0.73045 0.81534 0.0
C1895 C 0.15231 0.72287 0.83064 0.0
H1896 H 0.96037 0.32757 0.56907 0.0
H1897 H 0.04978 0.32261 0.56255 0.0
H1898 H 0.05185 0.37175 0.5489 0.0
H1899 H 0.02837 0.41735 0.54397 0.0
H1900 H 0.93955 0.42254 0.5549 0.0
H1901 H 0.93694 0.37199 0.56187 0.0
C1902 C 0.98027 0.33709 0.56418 0.0
C1903 C 0.00488 0.32164 0.56705 0.0
C1904 C 0.98138 0.3655 0.55777 0.0
C1905 C 0.03054 0.33417 0.56054 0.0
C1906 C 0.03176 0.3623 0.55301 0.0
C1907 C 0.00856 0.40722 0.54803 0.0
C1908 C 0.98421 0.42322 0.54962 0.0
C1909 C 0.00739 0.37837 0.55256 0.0
C1910 C 0.9585 0.41034 0.55434 0.0
C1911 C 0.95703 0.38157 0.55807 0.0
H1912 H 0.41733 0.21044 0.34889 0.0
H1913 H 0.44343 0.27793 0.29584 0.0
H1914 H 0.39843 0.2764 0.27161 0.0
H1915 H 0.35092 0.25584 0.26657 0.0
H1916 H 0.32817 0.18636 0.31917 0.0
H1917 H 0.37251 0.18883 0.34247 0.0
C1918 C 0.41324 0.22477 0.33195 0.0
C1919 C 0.43344 0.24424 0.32414 0.0
C1920 C 0.38789 0.22339 0.318 0.0
C1921 C 0.42805 0.26261 0.30206 0.0
C1922 C 0.40237 0.26179 0.2883 0.0
C1923 C 0.35595 0.2411 0.28288 0.0
C1924 C 0.33632 0.22084 0.29088 0.0
C1925 C 0.38203 0.24222 0.29616 0.0
C1926 C 0.34298 0.20191 0.31218 0.0
C1927 C 0.36832 0.20336 0.32575 0.0
H1928 H 0.4103 0.47368 0.33518 0.0
H1929 H 0.45312 0.54147 0.29469 0.0
H1930 H 0.48246 0.54814 0.33558 0.0
H1931 H 0.49301 0.5371 0.38432 0.0
H1932 H 0.4518 0.46732 0.42342 0.0
H1933 H 0.4252 0.45864 0.38145 0.0
C1934 C 0.42612 0.48984 0.33539 0.0
C1935 C 0.4293 0.50747 0.31244 0.0
C1936 C 0.44325 0.4931 0.35861 0.0
C1937 C 0.45024 0.52788 0.31243 0.0
C1938 C 0.46699 0.53168 0.33572 0.0
C1939 C 0.47855 0.51975 0.3834 0.0
C1940 C 0.47406 0.50322 0.40698 0.0
C1941 C 0.46331 0.51475 0.35913 0.0
C1942 C 0.45561 0.48045 0.40552 0.0
C1943 C 0.44017 0.47556 0.3816 0.0
H1944 H 0.26473 0.68556 0.07167 0.0
H1945 H 0.22095 0.6117 0.09799 0.0
H1946 H 0.2134 0.63233 0.14401 0.0
H1947 H 0.21462 0.67443 0.17452 0.0
H1948 H 0.257 0.74813 0.14496 0.0
H1949 H 0.26987 0.72454 0.10249 0.0
C1950 C 0.25368 0.6739 0.08756 0.0
C1951 C 0.24273 0.64768 0.08152 0.0
C1952 C 0.2489 0.68605 0.11324 0.0
C1953 C 0.22923 0.63224 0.10234 0.0
C1954 C 0.22479 0.64407 0.12849 0.0
C1955 C 0.22664 0.68506 0.15867 0.0
C1956 C 0.23402 0.71312 0.16215 0.0
C1957 C 0.23365 0.67145 0.13383 0.0
C1958 C 0.25027 0.72675 0.14205 0.0
C1959 C 0.25784 0.71328 0.11791 0.0
H1960 H 0.10972 0.51501 0.83709 0.0
H1961 H 0.03444 0.49949 0.79104 0.0
H1962 H 0.00885 0.49208 0.83455 0.0
H1963 H 0.01014 0.48339 0.88566 0.0
H1964 H 0.08779 0.49479 0.92905 0.0
H1965 H 0.1103 0.51034 0.88666 0.0
C1966 C 0.08763 0.51026 0.83649 0.0
C1967 C 0.07411 0.50704 0.81105 0.0
C1968 C 0.07363 0.50484 0.86117 0.0
C1969 C 0.04536 0.50161 0.81055 0.0
C1970 C 0.0308 0.49722 0.83536 0.0
C1971 C 0.03189 0.48948 0.88558 0.0
C1972 C 0.04763 0.48742 0.90996 0.0
C1973 C 0.04504 0.49761 0.86078 0.0
C1974 C 0.07564 0.49564 0.91014 0.0
C1975 C 0.08845 0.50467 0.88604 0.0
H1976 H 0.22207 0.35859 0.60309 0.0
H1977 H 0.22614 0.28529 0.55151 0.0
H1978 H 0.22723 0.25568 0.59267 0.0
H1979 H 0.2417 0.25258 0.64109 0.0
H1980 H 0.24456 0.32641 0.69144 0.0
H1981 H 0.22464 0.35385 0.6536 0.0
C1982 C 0.22255 0.3361 0.60089 0.0
C1983 C 0.22534 0.32408 0.57451 0.0
C1984 C 0.22435 0.31938 0.62457 0.0
C1985 C 0.22492 0.29497 0.57174 0.0
C1986 C 0.22548 0.27805 0.59524 0.0
C1987 C 0.23644 0.27438 0.64409 0.0
C1988 C 0.24494 0.28785 0.66833 0.0
C1989 C 0.22732 0.2902 0.62157 0.0
C1990 C 0.23813 0.31587 0.67265 0.0
C1991 C 0.2273 0.3316 0.65083 0.0
H1992 H 0.39103 0.50101 0.14293 0.0
H1993 H 0.4627 0.493 0.19632 0.0
H1994 H 0.49338 0.49291 0.15631 0.0
H1995 H 0.49889 0.48516 0.10693 0.0
H1996 H 0.42782 0.48816 0.05292 0.0
H1997 H 0.39792 0.50152 0.09198 0.0
C1998 C 0.41337 0.49948 0.14569 0.0
C1999 C 0.42457 0.49594 0.17237 0.0
C2000 C 0.43098 0.49882 0.12246 0.0
C2001 C 0.45355 0.49474 0.17587 0.0
C2002 C 0.47116 0.49497 0.15305 0.0
C2003 C 0.47706 0.48996 0.10366 0.0
C2004 C 0.46525 0.48551 0.07762 0.0
C2005 C 0.46 0.49565 0.12633 0.0
C2006 C 0.43711 0.49164 0.07308 0.0
C2007 C 0.42002 0.49873 0.09546 0.0
H2008 H 0.28275 0.69051 0.93852 0.0
H2009 H 0.20509 0.65346 0.91325 0.0
H2010 H 0.2085 0.67654 0.86807 0.0
H2011 H 0.23684 0.70116 0.83397 0.0
H2012 H 0.31835 0.73113 0.85617 0.0
H2013 H 0.31034 0.71741 0.90461 0.0
C2014 C 0.26643 0.68804 0.92319 0.0
C2015 C 0.24374 0.67051 0.9288 0.0
C2016 C 0.26946 0.6999 0.89681 0.0
C2017 C 0.22275 0.66688 0.90899 0.0
C2018 C 0.22473 0.67999 0.88329 0.0
C2019 C 0.25252 0.70525 0.84964 0.0
C2020 C 0.27803 0.71709 0.84194 0.0
C2021 C 0.24846 0.69568 0.87668 0.0
C2022 C 0.29859 0.72191 0.86196 0.0
C2023 C 0.29402 0.71401 0.88948 0.0
H2024 H 0.12489 0.51145 0.64344 0.0
H2025 H 0.05857 0.46044 0.67669 0.0
H2026 H 0.03266 0.46549 0.63356 0.0
H2027 H 0.02557 0.49084 0.59073 0.0
H2028 H 0.08931 0.54491 0.55813 0.0
H2029 H 0.12009 0.53228 0.59706 0.0
C2030 C 0.10502 0.50099 0.64099 0.0
C2031 C 0.09318 0.48621 0.66327 0.0
C2032 C 0.0898 0.50498 0.61669 0.0
C2033 C 0.06778 0.47224 0.65985 0.0
C2034 C 0.05294 0.47525 0.63535 0.0
C2035 C 0.04639 0.49952 0.59205 0.0
C2036 C 0.0553 0.51908 0.57246 0.0
C2037 C 0.0632 0.49266 0.61436 0.0
C2038 C 0.0822 0.53015 0.57361 0.0
C2039 C 0.09961 0.52289 0.59569 0.0
H2040 H 0.21976 0.36004 0.40991 0.0
H2041 H 0.29762 0.32673 0.43956 0.0
H2042 H 0.30383 0.30127 0.39634 0.0
H2043 H 0.28423 0.28328 0.35361 0.0
H2044 H 0.20544 0.3136 0.32367 0.0
H2045 H 0.20245 0.34569 0.36333 0.0
C2046 C 0.23825 0.34755 0.40659 0.0
C2047 C 0.258 0.34477 0.42798 0.0
C2048 C 0.24125 0.33216 0.38192 0.0
C2049 C 0.28194 0.3287 0.42354 0.0
C2050 C 0.2855 0.31416 0.39887 0.0
C2051 C 0.26646 0.29708 0.35566 0.0
C2052 C 0.24472 0.29565 0.33633 0.0
C2053 C 0.26478 0.31484 0.37851 0.0
C2054 C 0.22226 0.31418 0.33859 0.0
C2055 C 0.22053 0.33239 0.3613 0.0
H2056 H 0.30736 0.45184 0.49627 0.0
H2057 H 0.33846 0.38202 0.54316 0.0
H2058 H 0.38515 0.40268 0.54337 0.0
H2059 H 0.41782 0.44012 0.52811 0.0
H2060 H 0.38483 0.50891 0.48036 0.0
H2061 H 0.33876 0.48904 0.48255 0.0
C2062 C 0.32426 0.44126 0.50681 0.0
C2063 C 0.31941 0.41551 0.51969 0.0
C2064 C 0.35102 0.45299 0.5065 0.0
C2065 C 0.34164 0.40195 0.53307 0.0
C2066 C 0.36839 0.41371 0.53313 0.0
C2067 C 0.4005 0.45081 0.51841 0.0
C2068 C 0.40513 0.47601 0.50409 0.0
C2069 C 0.37346 0.43915 0.51959 0.0
C2070 C 0.38228 0.48948 0.49154 0.0
C2071 C 0.35567 0.47816 0.49274 0.0
H2072 H 0.82093 0.05624 0.52342 0.0
H2073 H 0.82018 0.08569 0.43883 0.0
H2074 H 0.86724 0.06812 0.43193 0.0
H2075 H 0.91095 0.05122 0.45214 0.0
H2076 H 0.91212 0.02107 0.53625 0.0
H2077 H 0.86254 0.0322 0.54133 0.0
C2078 C 0.83087 0.05825 0.50332 0.0
C2079 C 0.81743 0.07283 0.48189 0.0
C2080 C 0.85814 0.0485 0.49962 0.0
C2081 C 0.83031 0.07494 0.4558 0.0
C2082 C 0.85727 0.06504 0.45186 0.0
C2083 C 0.9001 0.04673 0.47137 0.0
C2084 C 0.91485 0.03583 0.49392 0.0
C2085 C 0.87178 0.05296 0.47398 0.0
C2086 C 0.90089 0.02958 0.51871 0.0
C2087 C 0.87267 0.036 0.5216 0.0
H2088 H 0.6335 0.10438 0.26015 0.0
H2089 H 0.67247 0.06466 0.19002 0.0
H2090 H 0.69146 0.10917 0.17474 0.0
H2091 H 0.70503 0.15626 0.18676 0.0
H2092 H 0.67264 0.19452 0.26071 0.0
H2093 H 0.64174 0.15472 0.26825 0.0
C2094 C 0.64584 0.10573 0.24137 0.0
C2095 C 0.65239 0.08143 0.22662 0.0
C2096 C 0.65763 0.13126 0.23329 0.0
C2097 C 0.66801 0.08315 0.2021 0.0
C2098 C 0.67862 0.10857 0.19322 0.0
C2099 C 0.69039 0.15626 0.20391 0.0
C2100 C 0.69146 0.17771 0.22348 0.0
C2101 C 0.6747 0.1324 0.20938 0.0
C2102 C 0.67215 0.17808 0.24537 0.0
C2103 C 0.65494 0.15502 0.25002 0.0
H2104 H 0.68598 0.94562 0.0064 0.0
H2105 H 0.64844 0.86517 0.02034 0.0
H2106 H 0.60193 0.88565 0.01499 0.0
H2107 H 0.57284 0.92549 -0.00201 0.0
H2108 H 0.6134 0.00386 0.98019 0.0
H2109 H 0.6577 0.98523 -0.00473 0.0
C2110 C 0.66765 0.93257 0.00861 0.0
C2111 C 0.67053 0.90392 0.01277 0.0
C2112 C 0.64145 0.94411 0.00428 0.0
C2113 C 0.64662 0.88733 0.0164 0.0
C2114 C 0.62007 0.89898 0.01323 0.0
C2115 C 0.59141 0.93837 -0.00216 0.0
C2116 C 0.59025 0.96571 0.98741 0.0
C2117 C 0.61731 0.92716 0.00574 0.0
C2118 C 0.61415 0.9825 0.98752 0.0
C2119 C 0.63944 0.97196 -0.00374 0.0
H2120 H 0.36865 0.39936 0.2562 0.0
H2121 H 0.29472 0.44729 0.27324 0.0
H2122 H 0.26747 0.40439 0.27704 0.0
H2123 H 0.26308 0.35515 0.26383 0.0
H2124 H 0.3363 0.30807 0.24319 0.0
H2125 H 0.36572 0.34825 0.25387 0.0
C2126 C 0.34666 0.40037 0.26119 0.0
C2127 C 0.33344 0.42641 0.26337 0.0
C2128 C 0.33109 0.37568 0.2629 0.0
C2129 C 0.30518 0.42748 0.27073 0.0
C2130 C 0.28961 0.40296 0.27299 0.0
C2131 C 0.28559 0.35339 0.2632 0.0
C2132 C 0.29767 0.32909 0.25255 0.0
C2133 C 0.30206 0.37712 0.26755 0.0
C2134 C 0.32672 0.3267 0.25153 0.0
C2135 C 0.34345 0.34986 0.25705 0.0
H2136 H 0.17967 0.56042 0.03427 0.0
H2137 H 0.1457 0.61781 0.97452 0.0
H2138 H 0.09986 0.59539 0.9787 0.0
H2139 H 0.07192 0.55536 -0.00515 0.0
H2140 H 0.10722 0.49754 0.0537 0.0
H2141 H 0.14992 0.5251 0.0555 0.0
C2142 C 0.16213 0.568 0.02229 0.0
C2143 C 0.16588 0.58992 0.00353 0.0
C2144 C 0.13616 0.55523 0.02499 0.0
C2145 C 0.14308 0.60048 0.98873 0.0
C2146 C 0.117 0.58776 -0.00881 0.0
C2147 C 0.08867 0.5493 0.00867 0.0
C2148 C 0.0868 0.52428 0.0238 0.0
C2149 C 0.11355 0.56457 0.00868 0.0
C2150 C 0.10851 0.51656 0.04164 0.0
C2151 C 0.13293 0.53215 0.04249 0.0
H2152 H 0.66164 0.91737 0.213 0.0
H2153 H 0.69325 0.94355 0.29242 0.0
H2154 H 0.71785 0.89903 0.29749 0.0
H2155 H 0.72482 0.8504 0.28178 0.0
H2156 H 0.69225 0.82471 0.20268 0.0
H2157 H 0.67385 0.87159 0.1946 0.0
C2158 C 0.67416 0.91342 0.23129 0.0
C2159 C 0.67523 0.93327 0.25258 0.0
C2160 C 0.68801 0.88795 0.23401 0.0
C2161 C 0.69198 0.92833 0.2759 0.0
C2162 C 0.70594 0.90292 0.27881 0.0
C2163 C 0.71435 0.85549 0.26251 0.0
C2164 C 0.70976 0.83458 0.24276 0.0
C2165 C 0.70336 0.88226 0.25837 0.0
C2166 C 0.696 0.84083 0.21795 0.0
C2167 C 0.68536 0.86746 0.21347 0.0
H2168 H 0.85381 0.09383 0.72329 0.0
H2169 H 0.78184 0.04091 0.73375 0.0
H2170 H 0.75226 0.08192 0.7389 0.0
H2171 H 0.74957 0.13101 0.75235 0.0
H2172 H 0.82258 0.18278 0.74817 0.0
H2173 H 0.84897 0.14454 0.72738 0.0
C2174 C 0.83155 0.09131 0.72606 0.0
C2175 C 0.82007 0.06449 0.72911 0.0
C2176 C 0.81493 0.1149 0.73005 0.0
C2177 C 0.79117 0.0614 0.73197 0.0
C2178 C 0.77428 0.08483 0.73493 0.0
C2179 C 0.77091 0.13411 0.7456 0.0
C2180 C 0.78432 0.15935 0.75147 0.0
C2181 C 0.78625 0.11148 0.73574 0.0
C2182 C 0.8119 0.16356 0.74312 0.0
C2183 C 0.82707 0.1415 0.73185 0.0
loop_
_geom_bond_atom_site_label_1
_geom_bond_atom_site_label_2
_geom_bond_distance
_geom_bond_site_symmetry_2
_ccdc_geom_bond_type
In0 O1 2.293 1_455 S
In0 O2 2.326 . S
In0 O6 2.266 . S
In0 O7 2.326 . S
In0 O8 2.266 . S
In0 O9 2.326 . S
In0 O11 2.294 1_455 S
In0 O12 2.326 1_455 S
O1 In0 2.293 1_655 S
O1 C10 1.240 . S
O2 In0 2.326 . S
O2 C10 1.251 1_455 S
C3 O6 1.252 . S
C3 O7 1.260 . S
C4 O11 1.240 . S
C4 O12 1.252 . S
C5 O8 1.252 . S
C5 O9 1.260 . S
O6 In0 2.266 . S
O6 C3 1.252 . S
O7 In0 2.326 . S
O7 C3 1.260 . S
O8 In0 2.266 . S
O8 C5 1.252 . S
O9 In0 2.326 . S
O9 C5 1.260 . S
C10 O1 1.240 . S
C10 O2 1.251 1_655 S
O11 In0 2.294 1_655 S
O11 C4 1.240 . S
O12 In0 2.326 1_655 S
O12 C4 1.252 . S
In13 O14 2.294 . S
In13 O15 2.326 . S
In13 O19 2.266 1_455 S
In13 O20 2.326 1_455 S
In13 O21 2.266 . S
In13 O22 2.326 . S
In13 O24 2.294 . S
In13 O25 2.326 . S
O14 In13 2.294 . S
O14 C23 1.240 . S
O15 In13 2.326 . S
O15 C23 1.252 . S
C16 O19 1.252 . S
C16 O20 1.260 . S
C17 O24 1.240 . S
C17 O25 1.252 . S
C18 O21 1.252 . S
C18 O22 1.260 . S
O19 In13 2.266 1_655 S
O19 C16 1.252 . S
O20 In13 2.326 1_655 S
O20 C16 1.260 . S
O21 In13 2.266 . S
O21 C18 1.252 . S
O22 In13 2.326 . S
O22 C18 1.260 . S
C23 O14 1.240 . S
C23 O15 1.252 . S
O24 In13 2.294 . S
O24 C17 1.240 . S
O25 In13 2.326 . S
O25 C17 1.252 . S
In26 O27 2.294 . S
In26 O28 2.326 . S
In26 O32 2.266 . S
In26 O33 2.326 . S
In26 O34 2.266 . S
In26 O35 2.326 . S
In26 O37 2.294 . S
In26 O38 2.326 . S
O27 In26 2.294 . S
O27 C36 1.240 . S
O28 In26 2.326 . S
O28 C36 1.252 . S
C29 O32 1.252 . S
C29 O33 1.260 . S
C30 O37 1.240 . S
C30 O38 1.252 . S
C31 O34 1.252 . S
C31 O35 1.260 . S
O32 In26 2.266 . S
O32 C29 1.252 . S
O33 In26 2.326 . S
O33 C29 1.260 . S
O34 In26 2.266 . S
O34 C31 1.252 . S
O35 In26 2.326 . S
O35 C31 1.260 . S
C36 O27 1.240 . S
C36 O28 1.252 . S
O37 In26 2.294 . S
O37 C30 1.240 . S
O38 In26 2.326 . S
O38 C30 1.252 . S
In39 O40 2.294 . S
In39 O41 2.326 . S
In39 O45 2.266 . S
In39 O46 2.326 . S
In39 O47 2.266 . S
In39 O48 2.326 . S
In39 O50 2.294 . S
In39 O51 2.326 . S
O40 In39 2.294 . S
O40 C49 1.240 . S
O41 In39 2.326 . S
O41 C49 1.252 . S
C42 O45 1.252 . S
C42 O46 1.260 . S
C43 O50 1.240 . S
C43 O51 1.252 . S
C44 O47 1.252 . S
C44 O48 1.260 . S
O45 In39 2.266 . S
O45 C42 1.252 . S
O46 In39 2.326 . S
O46 C42 1.260 . S
O47 In39 2.266 . S
O47 C44 1.252 . S
O48 In39 2.326 . S
O48 C44 1.260 . S
C49 O40 1.240 . S
C49 O41 1.252 . S
O50 In39 2.294 . S
O50 C43 1.240 . S
O51 In39 2.326 . S
O51 C43 1.252 . S
In52 O53 2.294 1_545 S
In52 O54 2.326 1_545 S
In52 O58 2.266 . S
In52 O59 2.326 . S
In52 O60 2.266 . S
In52 O61 2.326 . S
In52 O63 2.294 1_545 S
In52 O64 2.328 . S
O53 In52 2.294 1_565 S
O53 C62 1.240 . S
O54 In52 2.326 1_565 S
O54 C62 1.252 . S
C55 O58 1.252 . S
C55 O59 1.260 . S
C56 O63 1.240 . S
C56 O64 1.251 1_565 S
C57 O60 1.252 . S
C57 O61 1.260 . S
O58 In52 2.266 . S
O58 C55 1.252 . S
O59 In52 2.326 . S
O59 C55 1.260 . S
O60 In52 2.266 . S
O60 C57 1.252 . S
O61 In52 2.326 . S
O61 C57 1.260 . S
C62 O53 1.240 . S
C62 O54 1.252 . S
O63 In52 2.294 1_565 S
O63 C56 1.240 . S
O64 In52 2.328 . S
O64 C56 1.251 1_545 S
In65 O66 2.294 . S
In65 O67 2.326 . S
In65 O71 2.266 . S
In65 O72 2.326 . S
In65 O73 2.266 . S
In65 O74 2.326 . S
In65 O76 2.294 . S
In65 O77 2.326 . S
O66 In65 2.294 . S
O66 C75 1.240 . S
O67 In65 2.326 . S
O67 C75 1.252 . S
C68 O71 1.252 . S
C68 O72 1.260 . S
C69 O76 1.240 . S
C69 O77 1.252 . S
C70 O73 1.252 . S
C70 O74 1.260 . S
O71 In65 2.266 . S
O71 C68 1.252 . S
O72 In65 2.326 . S
O72 C68 1.260 . S
O73 In65 2.266 . S
O73 C70 1.252 . S
O74 In65 2.326 . S
O74 C70 1.260 . S
C75 O66 1.240 . S
C75 O67 1.252 . S
O76 In65 2.294 . S
O76 C69 1.240 . S
O77 In65 2.326 . S
O77 C69 1.252 . S
In78 O79 2.294 . S
In78 O80 2.326 . S
In78 O84 2.266 1_545 S
In78 O85 2.326 1_545 S
In78 O86 2.266 . S
In78 O87 2.326 . S
In78 O89 2.294 . S
In78 O90 2.326 . S
O79 In78 2.294 . S
O79 C88 1.240 . S
O80 In78 2.326 . S
O80 C88 1.252 . S
C81 O84 1.252 . S
C81 O85 1.260 . S
C82 O89 1.240 . S
C82 O90 1.252 . S
C83 O86 1.252 . S
C83 O87 1.260 . S
O84 In78 2.266 1_565 S
O84 C81 1.252 . S
O85 In78 2.326 1_565 S
O85 C81 1.260 . S
O86 In78 2.266 . S
O86 C83 1.252 . S
O87 In78 2.326 . S
O87 C83 1.260 . S
C88 O79 1.240 . S
C88 O80 1.252 . S
O89 In78 2.294 . S
O89 C82 1.240 . S
O90 In78 2.326 . S
O90 C82 1.252 . S
In91 O92 2.294 . S
In91 O93 2.326 . S
In91 O97 2.266 . S
In91 O98 2.326 . S
In91 O99 2.266 1_554 S
In91 O100 2.326 1_554 S
In91 O102 2.294 . S
In91 O103 2.326 . S
O92 In91 2.294 . S
O92 C101 1.240 . S
O93 In91 2.326 . S
O93 C101 1.252 . S
C94 O97 1.252 . S
C94 O98 1.260 . S
C95 O102 1.240 . S
C95 O103 1.252 . S
C96 O99 1.252 . S
C96 O100 1.260 . S
O97 In91 2.266 . S
O97 C94 1.252 . S
O98 In91 2.326 . S
O98 C94 1.260 . S
O99 In91 2.266 1_556 S
O99 C96 1.252 . S
O100 In91 2.326 1_556 S
O100 C96 1.260 . S
C101 O92 1.240 . S
C101 O93 1.252 . S
O102 In91 2.294 . S
O102 C95 1.240 . S
O103 In91 2.326 . S
O103 C95 1.252 . S
In104 O105 2.294 . S
In104 O106 2.326 . S
In104 O110 2.266 1_554 S
In104 O111 2.326 1_554 S
In104 O112 2.266 . S
In104 O113 2.326 . S
In104 O115 2.294 . S
In104 O116 2.326 . S
O105 In104 2.294 . S
O105 C114 1.240 . S
O106 In104 2.326 . S
O106 C114 1.252 . S
C107 O110 1.252 . S
C107 O111 1.260 . S
C108 O115 1.240 . S
C108 O116 1.252 . S
C109 O112 1.252 . S
C109 O113 1.260 . S
O110 In104 2.266 1_556 S
O110 C107 1.252 . S
O111 In104 2.326 1_556 S
O111 C107 1.260 . S
O112 In104 2.266 . S
O112 C109 1.252 . S
O113 In104 2.326 . S
O113 C109 1.260 . S
C114 O105 1.240 . S
C114 O106 1.252 . S
O115 In104 2.294 . S
O115 C108 1.240 . S
O116 In104 2.326 . S
O116 C108 1.252 . S
In117 O118 2.294 . S
In117 O119 2.326 . S
In117 O123 2.266 . S
In117 O124 2.326 . S
In117 O125 2.266 . S
In117 O126 2.326 . S
In117 O128 2.294 . S
In117 O129 2.326 . S
O118 In117 2.294 . S
O118 C127 1.240 . S
O119 In117 2.326 . S
O119 C127 1.252 . S
C120 O123 1.252 . S
C120 O124 1.260 . S
C121 O128 1.240 . S
C121 O129 1.252 . S
C122 O125 1.252 . S
C122 O126 1.260 . S
O123 In117 2.266 . S
O123 C120 1.252 . S
O124 In117 2.326 . S
O124 C120 1.260 . S
O125 In117 2.266 . S
O125 C122 1.252 . S
O126 In117 2.326 . S
O126 C122 1.260 . S
C127 O118 1.240 . S
C127 O119 1.252 . S
O128 In117 2.294 . S
O128 C121 1.240 . S
O129 In117 2.326 . S
O129 C121 1.252 . S
In130 O131 2.294 . S
In130 O132 2.326 . S
In130 O136 2.266 . S
In130 O137 2.326 . S
In130 O138 2.266 . S
In130 O139 2.326 . S
In130 O141 2.294 . S
In130 O142 2.326 . S
O131 In130 2.294 . S
O131 C140 1.240 . S
O132 In130 2.326 . S
O132 C140 1.252 . S
C133 O136 1.252 . S
C133 O137 1.260 . S
C134 O141 1.240 . S
C134 O142 1.252 . S
C135 O138 1.252 . S
C135 O139 1.260 . S
O136 In130 2.266 . S
O136 C133 1.252 . S
O137 In130 2.326 . S
O137 C133 1.260 . S
O138 In130 2.266 . S
O138 C135 1.252 . S
O139 In130 2.326 . S
O139 C135 1.260 . S
C140 O131 1.240 . S
C140 O132 1.252 . S
O141 In130 2.294 . S
O141 C134 1.240 . S
O142 In130 2.326 . S
O142 C134 1.252 . S
In143 O144 2.294 . S
In143 O145 2.326 . S
In143 O149 2.266 . S
In143 O150 2.326 . S
In143 O151 2.266 . S
In143 O152 2.326 . S
In143 O154 2.294 . S
In143 O155 2.326 . S
O144 In143 2.294 . S
O144 C153 1.240 . S
O145 In143 2.326 . S
O145 C153 1.252 . S
C146 O149 1.252 . S
C146 O150 1.260 . S
C147 O154 1.240 . S
C147 O155 1.252 . S
C148 O151 1.252 . S
C148 O152 1.260 . S
O149 In143 2.266 . S
O149 C146 1.252 . S
O150 In143 2.326 . S
O150 C146 1.260 . S
O151 In143 2.266 . S
O151 C148 1.252 . S
O152 In143 2.326 . S
O152 C148 1.260 . S
C153 O144 1.240 . S
C153 O145 1.252 . S
O154 In143 2.294 . S
O154 C147 1.240 . S
O155 In143 2.326 . S
O155 C147 1.252 . S
In156 O157 2.294 . S
In156 O158 2.326 . S
In156 O162 2.266 1_455 S
In156 O163 2.326 1_455 S
In156 O164 2.266 . S
In156 O165 2.326 . S
In156 O167 2.294 . S
In156 O168 2.326 . S
O157 In156 2.294 . S
O157 C166 1.240 . S
O158 In156 2.326 . S
O158 C166 1.252 . S
C159 O162 1.252 . S
C159 O163 1.260 . S
C160 O167 1.240 . S
C160 O168 1.252 . S
C161 O164 1.252 . S
C161 O165 1.260 . S
O162 In156 2.266 1_655 S
O162 C159 1.252 . S
O163 In156 2.326 1_655 S
O163 C159 1.260 . S
O164 In156 2.266 . S
O164 C161 1.252 . S
O165 In156 2.326 . S
O165 C161 1.260 . S
C166 O157 1.240 . S
C166 O158 1.252 . S
O167 In156 2.294 . S
O167 C160 1.240 . S
O168 In156 2.326 . S
O168 C160 1.252 . S
In169 O170 2.294 . S
In169 O171 2.326 . S
In169 O175 2.270 . S
In169 O176 2.326 . S
In169 O177 2.266 1_455 S
In169 O178 2.326 1_455 S
In169 O180 2.294 . S
In169 O181 2.326 . S
O170 In169 2.294 . S
O170 C179 1.240 . S
O171 In169 2.326 . S
O171 C179 1.252 . S
C172 O175 1.253 . S
C172 O176 1.260 . S
C173 O180 1.240 . S
C173 O181 1.252 . S
C174 O177 1.252 . S
C174 O178 1.260 . S
O175 In169 2.270 . S
O175 C172 1.253 . S
O176 In169 2.326 . S
O176 C172 1.260 . S
O177 In169 2.266 1_655 S
O177 C174 1.252 . S
O178 In169 2.326 1_655 S
O178 C174 1.260 . S
C179 O170 1.240 . S
C179 O171 1.252 . S
O180 In169 2.294 . S
O180 C173 1.240 . S
O181 In169 2.326 . S
O181 C173 1.252 . S
In182 O183 2.294 . S
In182 O184 2.326 . S
In182 O188 2.266 . S
In182 O189 2.326 . S
In182 O190 2.266 . S
In182 O191 2.326 . S
In182 O193 2.294 . S
In182 O194 2.326 . S
O183 In182 2.294 . S
O183 C192 1.240 . S
O184 In182 2.326 . S
O184 C192 1.252 . S
C185 O188 1.252 . S
C185 O189 1.260 . S
C186 O193 1.240 . S
C186 O194 1.252 . S
C187 O190 1.252 . S
C187 O191 1.260 . S
O188 In182 2.266 . S
O188 C185 1.252 . S
O189 In182 2.326 . S
O189 C185 1.260 . S
O190 In182 2.266 . S
O190 C187 1.252 . S
O191 In182 2.326 . S
O191 C187 1.260 . S
C192 O183 1.240 . S
C192 O184 1.252 . S
O193 In182 2.294 . S
O193 C186 1.240 . S
O194 In182 2.326 . S
O194 C186 1.252 . S
In195 O196 2.294 . S
In195 O197 2.326 . S
In195 O201 2.266 . S
In195 O202 2.326 . S
In195 O203 2.266 . S
In195 O204 2.326 . S
In195 O206 2.294 . S
In195 O207 2.326 . S
O196 In195 2.294 . S
O196 C205 1.240 . S
O197 In195 2.326 . S
O197 C205 1.252 . S
C198 O201 1.252 . S
C198 O202 1.260 . S
C199 O206 1.240 . S
C199 O207 1.252 . S
C200 O203 1.252 . S
C200 O204 1.260 . S
O201 In195 2.266 . S
O201 C198 1.252 . S
O202 In195 2.326 . S
O202 C198 1.260 . S
O203 In195 2.266 . S
O203 C200 1.252 . S
O204 In195 2.326 . S
O204 C200 1.260 . S
C205 O196 1.240 . S
C205 O197 1.252 . S
O206 In195 2.294 . S
O206 C199 1.240 . S
O207 In195 2.326 . S
O207 C199 1.252 . S
In208 O209 2.294 . S
In208 O210 2.326 . S
In208 O214 2.266 1_545 S
In208 O215 2.326 . S
In208 O216 2.266 1_545 S
In208 O217 2.326 1_545 S
In208 O219 2.294 . S
In208 O220 2.326 . S
O209 In208 2.294 . S
O209 C218 1.240 . S
O210 In208 2.326 . S
O210 C218 1.252 . S
C211 O214 1.252 . S
C211 O215 1.260 1_565 S
C212 O219 1.240 . S
C212 O220 1.252 . S
C213 O216 1.252 . S
C213 O217 1.260 . S
O214 In208 2.266 1_565 S
O214 C211 1.252 . S
O215 In208 2.326 . S
O215 C211 1.260 1_545 S
O216 In208 2.266 1_565 S
O216 C213 1.252 . S
O217 In208 2.326 1_565 S
O217 C213 1.260 . S
C218 O209 1.240 . S
C218 O210 1.252 . S
O219 In208 2.294 . S
O219 C212 1.240 . S
O220 In208 2.326 . S
O220 C212 1.252 . S
In221 O222 2.294 . S
In221 O223 2.326 . S
In221 O227 2.266 . S
In221 O228 2.326 . S
In221 O229 2.266 . S
In221 O230 2.326 . S
In221 O232 2.294 . S
In221 O233 2.326 . S
O222 In221 2.294 . S
O222 C231 1.240 . S
O223 In221 2.326 . S
O223 C231 1.252 . S
C224 O227 1.252 . S
C224 O228 1.260 . S
C225 O232 1.240 . S
C225 O233 1.252 . S
C226 O229 1.252 . S
C226 O230 1.260 . S
O227 In221 2.266 . S
O227 C224 1.252 . S
O228 In221 2.326 . S
O228 C224 1.260 . S
O229 In221 2.266 . S
O229 C226 1.252 . S
O230 In221 2.326 . S
O230 C226 1.260 . S
C231 O222 1.240 . S
C231 O223 1.252 . S
O232 In221 2.294 . S
O232 C225 1.240 . S
O233 In221 2.326 . S
O233 C225 1.252 . S
In234 O235 2.294 1_545 S
In234 O236 2.326 1_545 S
In234 O240 2.266 . S
In234 O241 2.326 . S
In234 O242 2.266 . S
In234 O243 2.326 . S
In234 O245 2.291 1_545 S
In234 O246 2.330 . S
O235 In234 2.294 1_565 S
O235 C244 1.240 . S
O236 In234 2.326 1_565 S
O236 C244 1.252 . S
C237 O240 1.252 . S
C237 O241 1.260 . S
C238 O245 1.240 . S
C238 O246 1.250 1_565 S
C239 O242 1.252 . S
C239 O243 1.260 . S
O240 In234 2.266 . S
O240 C237 1.252 . S
O241 In234 2.326 . S
O241 C237 1.260 . S
O242 In234 2.266 . S
O242 C239 1.252 . S
O243 In234 2.326 . S
O243 C239 1.260 . S
C244 O235 1.240 . S
C244 O236 1.252 . S
O245 In234 2.291 1_565 S
O245 C238 1.240 . S
O246 In234 2.330 . S
O246 C238 1.250 1_545 S
In247 O248 2.294 . S
In247 O249 2.326 . S
In247 O253 2.266 . S
In247 O254 2.326 . S
In247 O255 2.266 1_554 S
In247 O256 2.326 1_554 S
In247 O258 2.294 . S
In247 O259 2.326 . S
O248 In247 2.294 . S
O248 C257 1.240 . S
O249 In247 2.326 . S
O249 C257 1.252 . S
C250 O253 1.252 . S
C250 O254 1.260 . S
C251 O258 1.240 . S
C251 O259 1.252 . S
C252 O255 1.252 . S
C252 O256 1.260 . S
O253 In247 2.266 . S
O253 C250 1.252 . S
O254 In247 2.326 . S
O254 C250 1.260 . S
O255 In247 2.266 1_556 S
O255 C252 1.252 . S
O256 In247 2.326 1_556 S
O256 C252 1.260 . S
C257 O248 1.240 . S
C257 O249 1.252 . S
O258 In247 2.294 . S
O258 C251 1.240 . S
O259 In247 2.326 . S
O259 C251 1.252 . S
In260 O261 2.294 . S
In260 O262 2.326 . S
In260 O266 2.266 1_554 S
In260 O267 2.326 1_554 S
In260 O268 2.266 1_554 S
In260 O269 2.326 . S
In260 O271 2.294 . S
In260 O272 2.326 . S
O261 In260 2.294 . S
O261 C270 1.240 . S
O262 In260 2.326 . S
O262 C270 1.252 . S
C263 O266 1.252 . S
C263 O267 1.260 . S
C264 O271 1.240 . S
C264 O272 1.252 . S
C265 O268 1.252 . S
C265 O269 1.260 1_556 S
O266 In260 2.266 1_556 S
O266 C263 1.252 . S
O267 In260 2.326 1_556 S
O267 C263 1.260 . S
O268 In260 2.266 1_556 S
O268 C265 1.252 . S
O269 In260 2.326 . S
O269 C265 1.260 1_554 S
C270 O261 1.240 . S
C270 O262 1.252 . S
O271 In260 2.294 . S
O271 C264 1.240 . S
O272 In260 2.326 . S
O272 C264 1.252 . S
In273 O274 2.294 . S
In273 O275 2.326 . S
In273 O279 2.266 . S
In273 O280 2.326 . S
In273 O281 2.266 . S
In273 O282 2.326 . S
In273 O284 2.294 . S
In273 O285 2.326 . S
O274 In273 2.294 . S
O274 C283 1.240 . S
O275 In273 2.326 . S
O275 C283 1.252 . S
C276 O279 1.252 . S
C276 O280 1.260 . S
C277 O284 1.240 . S
C277 O285 1.252 . S
C278 O281 1.252 . S
C278 O282 1.260 . S
O279 In273 2.266 . S
O279 C276 1.252 . S
O280 In273 2.326 . S
O280 C276 1.260 . S
O281 In273 2.266 . S
O281 C278 1.252 . S
O282 In273 2.326 . S
O282 C278 1.260 . S
C283 O274 1.240 . S
C283 O275 1.252 . S
O284 In273 2.294 . S
O284 C277 1.240 . S
O285 In273 2.326 . S
O285 C277 1.252 . S
In286 O287 2.294 . S
In286 O288 2.326 . S
In286 O292 2.266 . S
In286 O293 2.326 . S
In286 O294 2.266 . S
In286 O295 2.326 . S
In286 O297 2.294 . S
In286 O298 2.326 . S
O287 In286 2.294 . S
O287 C296 1.240 . S
O288 In286 2.326 . S
O288 C296 1.252 . S
C289 O292 1.252 . S
C289 O293 1.260 . S
C290 O297 1.240 . S
C290 O298 1.252 . S
C291 O294 1.252 . S
C291 O295 1.260 . S
O292 In286 2.266 . S
O292 C289 1.252 . S
O293 In286 2.326 . S
O293 C289 1.260 . S
O294 In286 2.266 . S
O294 C291 1.252 . S
O295 In286 2.326 . S
O295 C291 1.260 . S
C296 O287 1.240 . S
C296 O288 1.252 . S
O297 In286 2.294 . S
O297 C290 1.240 . S
O298 In286 2.326 . S
O298 C290 1.252 . S
In299 O300 2.294 . S
In299 O301 2.326 . S
In299 O305 2.266 . S
In299 O306 2.326 . S
In299 O307 2.266 . S
In299 O308 2.326 . S
In299 O310 2.294 . S
In299 O311 2.326 . S
O300 In299 2.294 . S
O300 C309 1.240 . S
O301 In299 2.326 . S
O301 C309 1.252 . S
C302 O305 1.252 . S
C302 O306 1.260 . S
C303 O310 1.240 . S
C303 O311 1.252 . S
C304 O307 1.252 . S
C304 O308 1.260 . S
O305 In299 2.266 . S
O305 C302 1.252 . S
O306 In299 2.326 . S
O306 C302 1.260 . S
O307 In299 2.266 . S
O307 C304 1.252 . S
O308 In299 2.326 . S
O308 C304 1.260 . S
C309 O300 1.240 . S
C309 O301 1.252 . S
O310 In299 2.294 . S
O310 C303 1.240 . S
O311 In299 2.326 . S
O311 C303 1.252 . S
O312 Mg313 1.990 . S
O312 C326 1.253 . S
Mg313 O312 1.990 . S
Mg313 O316 2.180 1_556 S
Mg313 O317 2.117 1_556 S
Mg313 O331 2.031 . S
O314 Mg315 2.074 1_656 S
O314 C326 1.260 . S
Mg315 O314 2.074 1_454 S
Mg315 O316 2.122 1_455 S
Mg315 O318 2.075 1_545 S
Mg315 O319 2.088 . S
Mg315 O321 2.072 1_544 S
Mg315 O332 2.067 1_445 S
O316 Mg313 2.180 1_554 S
O316 Mg315 2.122 1_655 S
O316 C327 1.279 . S
O317 Mg313 2.117 1_554 S
O317 C327 1.250 . S
O318 Mg315 2.075 1_565 S
O318 C328 1.264 . S
O319 Mg315 2.088 . S
O319 C329 1.259 1_554 S
Mg320 O321 2.175 1_554 S
Mg320 O322 2.030 . S
Mg320 O323 1.990 1_554 S
Mg320 O324 2.117 1_554 S
O321 Mg315 2.072 1_566 S
O321 Mg320 2.175 1_556 S
O321 C330 1.291 . S
O322 Mg320 2.030 . S
O322 C328 1.248 . S
O323 Mg320 1.990 1_556 S
O323 C329 1.253 1_565 S
O324 Mg320 2.117 1_556 S
O324 C330 1.250 . S
C325 O331 1.242 1_564 S
C325 O332 1.264 . S
C326 O312 1.253 . S
C326 O314 1.260 . S
C327 O316 1.279 . S
C327 O317 1.250 . S
C328 O318 1.264 . S
C328 O322 1.248 . S
C329 O319 1.259 1_556 S
C329 O323 1.253 1_545 S
C330 O321 1.291 . S
C330 O324 1.250 . S
O331 Mg313 2.031 . S
O331 C325 1.242 1_546 S
O332 Mg315 2.067 1_665 S
O332 C325 1.264 . S
O333 Mg334 1.990 . S
O333 C347 1.253 . S
Mg334 O333 1.990 . S
Mg334 O337 2.180 . S
Mg334 O338 2.117 . S
Mg334 O352 2.030 . S
O335 Mg336 2.072 . S
O335 C347 1.260 . S
Mg336 O335 2.072 . S
Mg336 O337 2.099 . S
Mg336 O339 2.079 . S
Mg336 O340 2.072 . S
Mg336 O342 2.099 . S
Mg336 O353 2.079 . S
O337 Mg334 2.180 . S
O337 Mg336 2.099 . S
O337 C348 1.279 . S
O338 Mg334 2.117 . S
O338 C348 1.250 . S
O339 Mg336 2.079 . S
O339 C349 1.264 . S
O340 Mg336 2.072 . S
O340 C350 1.260 . S
Mg341 O342 2.180 . S
Mg341 O343 2.030 . S
Mg341 O344 1.990 . S
Mg341 O345 2.117 . S
O342 Mg336 2.099 . S
O342 Mg341 2.180 . S
O342 C351 1.279 . S
O343 Mg341 2.030 . S
O343 C349 1.248 . S
O344 Mg341 1.990 . S
O344 C350 1.253 . S
O345 Mg341 2.117 . S
O345 C351 1.250 . S
C346 O352 1.248 . S
C346 O353 1.264 . S
C347 O333 1.253 . S
C347 O335 1.260 . S
C348 O337 1.279 . S
C348 O338 1.250 . S
C349 O339 1.264 . S
C349 O343 1.248 . S
C350 O340 1.260 . S
C350 O344 1.253 . S
C351 O342 1.279 . S
C351 O345 1.250 . S
O352 Mg334 2.030 . S
O352 C346 1.248 . S
O353 Mg336 2.079 . S
O353 C346 1.264 . S
O354 Mg355 1.990 . S
O354 C368 1.253 . S
Mg355 O354 1.990 . S
Mg355 O358 2.180 . S
Mg355 O359 2.117 . S
Mg355 O373 2.030 1_565 S
O356 Mg357 2.072 . S
O356 C368 1.260 1_545 S
Mg357 O356 2.072 . S
Mg357 O358 2.099 1_545 S
Mg357 O360 2.079 . S
Mg357 O361 2.072 1_545 S
Mg357 O363 2.099 . S
Mg357 O374 2.079 . S
O358 Mg355 2.180 . S
O358 Mg357 2.099 1_565 S
O358 C369 1.279 . S
O359 Mg355 2.117 . S
O359 C369 1.250 . S
O360 Mg357 2.079 . S
O360 C370 1.264 . S
O361 Mg357 2.072 1_565 S
O361 C371 1.260 . S
Mg362 O363 2.180 . S
Mg362 O364 2.030 . S
Mg362 O365 1.990 . S
Mg362 O366 2.117 . S
O363 Mg357 2.099 . S
O363 Mg362 2.180 . S
O363 C372 1.279 . S
O364 Mg362 2.030 . S
O364 C370 1.248 . S
O365 Mg362 1.990 . S
O365 C371 1.253 1_545 S
O366 Mg362 2.117 . S
O366 C372 1.250 . S
C367 O373 1.248 . S
C367 O374 1.264 . S
C368 O354 1.253 . S
C368 O356 1.260 1_565 S
C369 O358 1.279 . S
C369 O359 1.250 . S
C370 O360 1.264 . S
C370 O364 1.248 . S
C371 O361 1.260 . S
C371 O365 1.253 1_565 S
C372 O363 1.279 . S
C372 O366 1.250 . S
O373 Mg355 2.030 1_545 S
O373 C367 1.248 . S
O374 Mg357 2.079 . S
O374 C367 1.264 . S
O375 Mg376 1.990 . S
O375 C389 1.253 . S
Mg376 O375 1.990 . S
Mg376 O379 2.180 . S
Mg376 O380 2.117 . S
Mg376 O394 2.030 . S
O377 Mg378 2.072 . S
O377 C389 1.260 . S
Mg378 O377 2.072 . S
Mg378 O379 2.099 . S
Mg378 O381 2.079 . S
Mg378 O382 2.072 . S
Mg378 O384 2.099 . S
Mg378 O395 2.079 . S
O379 Mg376 2.180 . S
O379 Mg378 2.099 . S
O379 C390 1.279 . S
O380 Mg376 2.117 . S
O380 C390 1.250 . S
O381 Mg378 2.079 . S
O381 C391 1.264 . S
O382 Mg378 2.072 . S
O382 C392 1.260 . S
Mg383 O384 2.180 . S
Mg383 O385 2.030 . S
Mg383 O386 1.990 . S
Mg383 O387 2.117 . S
O384 Mg378 2.099 . S
O384 Mg383 2.180 . S
O384 C393 1.279 . S
O385 Mg383 2.030 . S
O385 C391 1.248 . S
O386 Mg383 1.990 . S
O386 C392 1.253 . S
O387 Mg383 2.117 . S
O387 C393 1.250 . S
C388 O394 1.248 . S
C388 O395 1.264 . S
C389 O375 1.253 . S
C389 O377 1.260 . S
C390 O379 1.279 . S
C390 O380 1.250 . S
C391 O381 1.264 . S
C391 O385 1.248 . S
C392 O382 1.260 . S
C392 O386 1.253 . S
C393 O384 1.279 . S
C393 O387 1.250 . S
O394 Mg376 2.030 . S
O394 C388 1.248 . S
O395 Mg378 2.079 . S
O395 C388 1.264 . S
O396 Mg397 1.990 1_655 S
O396 C410 1.253 . S
Mg397 O396 1.990 1_455 S
Mg397 O400 2.182 . S
Mg397 O401 2.117 1_455 S
Mg397 O415 2.030 . S
O398 Mg399 2.072 1_565 S
O398 C410 1.260 1_455 S
Mg399 O398 2.072 1_545 S
Mg399 O400 2.100 1_545 S
Mg399 O402 2.079 . S
Mg399 O403 2.072 1_455 S
Mg399 O405 2.099 . S
Mg399 O416 2.068 1_545 S
O400 Mg397 2.182 . S
O400 Mg399 2.100 1_565 S
O400 C411 1.274 1_455 S
O401 Mg397 2.117 1_655 S
O401 C411 1.250 . S
O402 Mg399 2.079 . S
O402 C412 1.264 . S
O403 Mg399 2.072 1_655 S
O403 C413 1.260 . S
Mg404 O405 2.180 1_655 S
Mg404 O406 2.027 1_655 S
Mg404 O407 1.990 . S
Mg404 O408 2.117 1_655 S
O405 Mg399 2.099 . S
O405 Mg404 2.180 1_455 S
O405 C414 1.279 . S
O406 Mg404 2.027 1_455 S
O406 C412 1.266 . S
O407 Mg404 1.990 . S
O407 C413 1.253 . S
O408 Mg404 2.117 1_455 S
O408 C414 1.250 . S
C409 O415 1.248 . S
C409 O416 1.298 . S
C410 O396 1.253 . S
C410 O398 1.260 1_655 S
C411 O400 1.274 1_655 S
C411 O401 1.250 . S
C412 O402 1.264 . S
C412 O406 1.266 . S
C413 O403 1.260 . S
C413 O407 1.253 . S
C414 O405 1.279 . S
C414 O408 1.250 . S
O415 Mg397 2.030 . S
O415 C409 1.248 . S
O416 Mg399 2.068 1_565 S
O416 C409 1.298 . S
O417 Mg418 1.990 . S
O417 C431 1.253 . S
Mg418 O417 1.990 . S
Mg418 O421 2.180 . S
Mg418 O422 2.117 . S
Mg418 O436 2.030 . S
O419 Mg420 2.072 . S
O419 C431 1.260 . S
Mg420 O419 2.072 . S
Mg420 O421 2.099 . S
Mg420 O423 2.079 . S
Mg420 O424 2.072 . S
Mg420 O426 2.099 . S
Mg420 O437 2.079 . S
O421 Mg418 2.180 . S
O421 Mg420 2.099 . S
O421 C432 1.279 . S
O422 Mg418 2.117 . S
O422 C432 1.250 . S
O423 Mg420 2.079 . S
O423 C433 1.264 . S
O424 Mg420 2.072 . S
O424 C434 1.260 . S
Mg425 O426 2.180 . S
Mg425 O427 2.030 . S
Mg425 O428 1.990 . S
Mg425 O429 2.117 . S
O426 Mg420 2.099 . S
O426 Mg425 2.180 . S
O426 C435 1.279 . S
O427 Mg425 2.030 . S
O427 C433 1.248 . S
O428 Mg425 1.990 . S
O428 C434 1.253 . S
O429 Mg425 2.117 . S
O429 C435 1.250 . S
C430 O436 1.248 . S
C430 O437 1.264 . S
C431 O417 1.253 . S
C431 O419 1.260 . S
C432 O421 1.279 . S
C432 O422 1.250 . S
C433 O423 1.264 . S
C433 O427 1.248 . S
C434 O424 1.260 . S
C434 O428 1.253 . S
C435 O426 1.279 . S
C435 O429 1.250 . S
O436 Mg418 2.030 . S
O436 C430 1.248 . S
O437 Mg420 2.079 . S
O437 C430 1.264 . S
O438 Mg439 1.990 . S
O438 C452 1.253 . S
Mg439 O438 1.990 . S
Mg439 O442 2.180 1_565 S
Mg439 O443 2.117 1_565 S
Mg439 O457 2.030 . S
O440 Mg441 2.072 1_565 S
O440 C452 1.260 . S
Mg441 O440 2.072 1_545 S
Mg441 O442 2.099 . S
Mg441 O444 2.079 . S
Mg441 O445 2.072 1_544 S
Mg441 O447 2.099 1_544 S
Mg441 O458 2.079 . S
O442 Mg439 2.180 1_545 S
O442 Mg441 2.099 . S
O442 C453 1.279 . S
O443 Mg439 2.117 1_545 S
O443 C453 1.250 . S
O444 Mg441 2.079 . S
O444 C454 1.264 1_554 S
O445 Mg441 2.072 1_566 S
O445 C455 1.260 . S
Mg446 O447 2.180 1_545 S
Mg446 O448 2.030 . S
Mg446 O449 1.990 1_545 S
Mg446 O450 2.117 1_545 S
O447 Mg441 2.099 1_566 S
O447 Mg446 2.180 1_565 S
O447 C456 1.279 . S
O448 Mg446 2.030 . S
O448 C454 1.248 . S
O449 Mg446 1.990 1_565 S
O449 C455 1.253 . S
O450 Mg446 2.117 1_565 S
O450 C456 1.250 . S
C451 O457 1.248 1_545 S
C451 O458 1.264 . S
C452 O438 1.253 . S
C452 O440 1.260 . S
C453 O442 1.279 . S
C453 O443 1.250 . S
C454 O444 1.264 1_556 S
C454 O448 1.248 . S
C455 O445 1.260 . S
C455 O449 1.253 . S
C456 O447 1.279 . S
C456 O450 1.250 . S
O457 Mg439 2.030 . S
O457 C451 1.248 1_565 S
O458 Mg441 2.079 . S
O458 C451 1.264 . S
O459 Mg460 1.990 . S
O459 C473 1.253 . S
Mg460 O459 1.990 . S
Mg460 O463 2.180 . S
Mg460 O464 2.117 . S
Mg460 O478 2.030 . S
O461 Mg462 2.072 . S
O461 C473 1.260 . S
Mg462 O461 2.072 . S
Mg462 O463 2.099 . S
Mg462 O465 2.079 . S
Mg462 O466 2.072 . S
Mg462 O468 2.099 . S
Mg462 O479 2.079 . S
O463 Mg460 2.180 . S
O463 Mg462 2.099 . S
O463 C474 1.279 . S
O464 Mg460 2.117 . S
O464 C474 1.250 . S
O465 Mg462 2.079 . S
O465 C475 1.264 . S
O466 Mg462 2.072 . S
O466 C476 1.260 . S
Mg467 O468 2.180 . S
Mg467 O469 2.030 . S
Mg467 O470 1.990 . S
Mg467 O471 2.117 . S
O468 Mg462 2.099 . S
O468 Mg467 2.180 . S
O468 C477 1.279 . S
O469 Mg467 2.030 . S
O469 C475 1.248 . S
O470 Mg467 1.990 . S
O470 C476 1.253 . S
O471 Mg467 2.117 . S
O471 C477 1.250 . S
C472 O478 1.248 . S
C472 O479 1.264 . S
C473 O459 1.253 . S
C473 O461 1.260 . S
C474 O463 1.279 . S
C474 O464 1.250 . S
C475 O465 1.264 . S
C475 O469 1.248 . S
C476 O466 1.260 . S
C476 O470 1.253 . S
C477 O468 1.279 . S
C477 O471 1.250 . S
O478 Mg460 2.030 . S
O478 C472 1.248 . S
O479 Mg462 2.079 . S
O479 C472 1.264 . S
O480 Mg481 1.990 . S
O480 C494 1.253 . S
Mg481 O480 1.990 . S
Mg481 O484 2.180 . S
Mg481 O485 2.117 . S
Mg481 O499 2.030 1_556 S
O482 Mg483 2.072 . S
O482 C494 1.260 1_554 S
Mg483 O482 2.072 . S
Mg483 O484 2.099 1_554 S
Mg483 O486 2.079 . S
Mg483 O487 2.072 1_554 S
Mg483 O489 2.099 . S
Mg483 O500 2.079 . S
O484 Mg481 2.180 . S
O484 Mg483 2.099 1_556 S
O484 C495 1.279 . S
O485 Mg481 2.117 . S
O485 C495 1.250 . S
O486 Mg483 2.079 . S
O486 C496 1.264 . S
O487 Mg483 2.072 1_556 S
O487 C497 1.260 . S
Mg488 O489 2.180 . S
Mg488 O490 2.030 . S
Mg488 O491 1.990 . S
Mg488 O492 2.117 . S
O489 Mg483 2.099 . S
O489 Mg488 2.180 . S
O489 C498 1.279 . S
O490 Mg488 2.030 . S
O490 C496 1.248 . S
O491 Mg488 1.990 . S
O491 C497 1.253 1_554 S
O492 Mg488 2.117 . S
O492 C498 1.250 . S
C493 O499 1.248 . S
C493 O500 1.264 . S
C494 O480 1.253 . S
C494 O482 1.260 1_556 S
C495 O484 1.279 . S
C495 O485 1.250 . S
C496 O486 1.264 . S
C496 O490 1.248 . S
C497 O487 1.260 . S
C497 O491 1.253 1_556 S
C498 O489 1.279 . S
C498 O492 1.250 . S
O499 Mg481 2.030 1_554 S
O499 C493 1.248 . S
O500 Mg483 2.079 . S
O500 C493 1.264 . S
O501 Mg502 1.990 . S
O501 C515 1.253 . S
Mg502 O501 1.990 . S
Mg502 O505 2.180 . S
Mg502 O506 2.117 . S
Mg502 O520 2.030 . S
O503 Mg504 2.072 . S
O503 C515 1.260 . S
Mg504 O503 2.072 . S
Mg504 O505 2.099 . S
Mg504 O507 2.079 . S
Mg504 O508 2.072 . S
Mg504 O510 2.099 . S
Mg504 O521 2.079 . S
O505 Mg502 2.180 . S
O505 Mg504 2.099 . S
O505 C516 1.279 . S
O506 Mg502 2.117 . S
O506 C516 1.250 . S
O507 Mg504 2.079 . S
O507 C517 1.264 . S
O508 Mg504 2.072 . S
O508 C518 1.260 . S
Mg509 O510 2.180 . S
Mg509 O511 2.030 . S
Mg509 O512 1.990 . S
Mg509 O513 2.117 . S
O510 Mg504 2.099 . S
O510 Mg509 2.180 . S
O510 C519 1.279 . S
O511 Mg509 2.030 . S
O511 C517 1.248 . S
O512 Mg509 1.990 . S
O512 C518 1.253 . S
O513 Mg509 2.117 . S
O513 C519 1.250 . S
C514 O520 1.248 . S
C514 O521 1.264 . S
C515 O501 1.253 . S
C515 O503 1.260 . S
C516 O505 1.279 . S
C516 O506 1.250 . S
C517 O507 1.264 . S
C517 O511 1.248 . S
C518 O508 1.260 . S
C518 O512 1.253 . S
C519 O510 1.279 . S
C519 O513 1.250 . S
O520 Mg502 2.030 . S
O520 C514 1.248 . S
O521 Mg504 2.079 . S
O521 C514 1.264 . S
O522 Mg523 1.990 . S
O522 C536 1.253 . S
Mg523 O522 1.990 . S
Mg523 O526 2.180 . S
Mg523 O527 2.117 . S
Mg523 O541 2.030 1_655 S
O524 Mg525 2.072 . S
O524 C536 1.260 1_455 S
Mg525 O524 2.072 . S
Mg525 O526 2.099 1_455 S
Mg525 O528 2.079 . S
Mg525 O529 2.072 1_455 S
Mg525 O531 2.099 . S
Mg525 O542 2.079 . S
O526 Mg523 2.180 . S
O526 Mg525 2.099 1_655 S
O526 C537 1.279 . S
O527 Mg523 2.117 . S
O527 C537 1.250 . S
O528 Mg525 2.079 . S
O528 C538 1.264 . S
O529 Mg525 2.072 1_655 S
O529 C539 1.260 . S
Mg530 O531 2.180 . S
Mg530 O532 2.030 . S
Mg530 O533 1.990 . S
Mg530 O534 2.117 . S
O531 Mg525 2.099 . S
O531 Mg530 2.180 . S
O531 C540 1.279 . S
O532 Mg530 2.030 . S
O532 C538 1.248 . S
O533 Mg530 1.990 . S
O533 C539 1.253 1_455 S
O534 Mg530 2.117 . S
O534 C540 1.250 . S
C535 O541 1.248 . S
C535 O542 1.264 . S
C536 O522 1.253 . S
C536 O524 1.260 1_655 S
C537 O526 1.279 . S
C537 O527 1.250 . S
C538 O528 1.264 . S
C538 O532 1.248 . S
C539 O529 1.260 . S
C539 O533 1.253 1_655 S
C540 O531 1.279 . S
C540 O534 1.250 . S
O541 Mg523 2.030 1_455 S
O541 C535 1.248 . S
O542 Mg525 2.079 . S
O542 C535 1.264 . S
O543 Mg544 1.990 . S
O543 C557 1.253 . S
Mg544 O543 1.990 . S
Mg544 O547 2.180 . S
Mg544 O548 2.117 . S
Mg544 O562 2.030 . S
O545 Mg546 2.072 . S
O545 C557 1.260 . S
Mg546 O545 2.072 . S
Mg546 O547 2.099 . S
Mg546 O549 2.079 . S
Mg546 O550 2.072 . S
Mg546 O552 2.099 . S
Mg546 O563 2.079 . S
O547 Mg544 2.180 . S
O547 Mg546 2.099 . S
O547 C558 1.279 . S
O548 Mg544 2.117 . S
O548 C558 1.250 . S
O549 Mg546 2.079 . S
O549 C559 1.264 . S
O550 Mg546 2.072 . S
O550 C560 1.260 . S
Mg551 O552 2.180 . S
Mg551 O553 2.030 . S
Mg551 O554 1.990 . S
Mg551 O555 2.117 . S
O552 Mg546 2.099 . S
O552 Mg551 2.180 . S
O552 C561 1.279 . S
O553 Mg551 2.030 . S
O553 C559 1.248 . S
O554 Mg551 1.990 . S
O554 C560 1.253 . S
O555 Mg551 2.117 . S
O555 C561 1.250 . S
C556 O562 1.248 . S
C556 O563 1.264 . S
C557 O543 1.253 . S
C557 O545 1.260 . S
C558 O547 1.279 . S
C558 O548 1.250 . S
C559 O549 1.264 . S
C559 O553 1.248 . S
C560 O550 1.260 . S
C560 O554 1.253 . S
C561 O552 1.279 . S
C561 O555 1.250 . S
O562 Mg544 2.030 . S
O562 C556 1.248 . S
O563 Mg546 2.079 . S
O563 C556 1.264 . S
O564 Mg565 1.990 . S
O564 C578 1.253 . S
Mg565 O564 1.990 . S
Mg565 O568 2.180 . S
Mg565 O569 2.117 . S
Mg565 O583 2.030 . S
O566 Mg567 2.072 . S
O566 C578 1.260 . S
Mg567 O566 2.072 . S
Mg567 O568 2.099 . S
Mg567 O570 2.079 . S
Mg567 O571 2.072 . S
Mg567 O573 2.099 . S
Mg567 O584 2.079 . S
O568 Mg565 2.180 . S
O568 Mg567 2.099 . S
O568 C579 1.279 . S
O569 Mg565 2.117 . S
O569 C579 1.250 . S
O570 Mg567 2.079 . S
O570 C580 1.264 . S
O571 Mg567 2.072 . S
O571 C581 1.260 . S
Mg572 O573 2.180 . S
Mg572 O574 2.030 . S
Mg572 O575 1.990 . S
Mg572 O576 2.117 . S
O573 Mg567 2.099 . S
O573 Mg572 2.180 . S
O573 C582 1.279 . S
O574 Mg572 2.030 . S
O574 C580 1.248 . S
O575 Mg572 1.990 . S
O575 C581 1.253 . S
O576 Mg572 2.117 . S
O576 C582 1.250 . S
C577 O583 1.248 . S
C577 O584 1.264 . S
C578 O564 1.253 . S
C578 O566 1.260 . S
C579 O568 1.279 . S
C579 O569 1.250 . S
C580 O570 1.264 . S
C580 O574 1.248 . S
C581 O571 1.260 . S
C581 O575 1.253 . S
C582 O573 1.279 . S
C582 O576 1.250 . S
O583 Mg565 2.030 . S
O583 C577 1.248 . S
O584 Mg567 2.079 . S
O584 C577 1.264 . S
O585 Mg586 1.990 . S
O585 C599 1.253 . S
Mg586 O585 1.990 . S
Mg586 O589 2.180 . S
Mg586 O590 2.117 . S
Mg586 O604 2.030 . S
O587 Mg588 2.072 . S
O587 C599 1.260 . S
Mg588 O587 2.072 . S
Mg588 O589 2.099 . S
Mg588 O591 2.079 . S
Mg588 O592 2.072 . S
Mg588 O594 2.099 . S
Mg588 O605 2.079 . S
O589 Mg586 2.180 . S
O589 Mg588 2.099 . S
O589 C600 1.279 . S
O590 Mg586 2.117 . S
O590 C600 1.250 . S
O591 Mg588 2.079 . S
O591 C601 1.264 . S
O592 Mg588 2.072 . S
O592 C602 1.260 . S
Mg593 O594 2.180 . S
Mg593 O595 2.030 . S
Mg593 O596 1.990 . S
Mg593 O597 2.117 . S
O594 Mg588 2.099 . S
O594 Mg593 2.180 . S
O594 C603 1.279 . S
O595 Mg593 2.030 . S
O595 C601 1.248 . S
O596 Mg593 1.990 . S
O596 C602 1.253 . S
O597 Mg593 2.117 . S
O597 C603 1.250 . S
C598 O604 1.248 . S
C598 O605 1.264 . S
C599 O585 1.253 . S
C599 O587 1.260 . S
C600 O589 1.279 . S
C600 O590 1.250 . S
C601 O591 1.264 . S
C601 O595 1.248 . S
C602 O592 1.260 . S
C602 O596 1.253 . S
C603 O594 1.279 . S
C603 O597 1.250 . S
O604 Mg586 2.030 . S
O604 C598 1.248 . S
O605 Mg588 2.079 . S
O605 C598 1.264 . S
O606 Mg607 1.990 . S
O606 C620 1.253 . S
Mg607 O606 1.990 . S
Mg607 O610 2.180 . S
Mg607 O611 2.117 . S
Mg607 O625 2.030 . S
O608 Mg609 2.072 . S
O608 C620 1.260 . S
Mg609 O608 2.072 . S
Mg609 O610 2.099 . S
Mg609 O612 2.079 . S
Mg609 O613 2.072 . S
Mg609 O615 2.099 . S
Mg609 O626 2.079 . S
O610 Mg607 2.180 . S
O610 Mg609 2.099 . S
O610 C621 1.279 . S
O611 Mg607 2.117 . S
O611 C621 1.250 . S
O612 Mg609 2.079 . S
O612 C622 1.264 . S
O613 Mg609 2.072 . S
O613 C623 1.260 . S
Mg614 O615 2.180 . S
Mg614 O616 2.030 . S
Mg614 O617 1.990 . S
Mg614 O618 2.117 . S
O615 Mg609 2.099 . S
O615 Mg614 2.180 . S
O615 C624 1.279 . S
O616 Mg614 2.030 . S
O616 C622 1.248 . S
O617 Mg614 1.990 . S
O617 C623 1.253 . S
O618 Mg614 2.117 . S
O618 C624 1.250 . S
C619 O625 1.248 . S
C619 O626 1.264 . S
C620 O606 1.253 . S
C620 O608 1.260 . S
C621 O610 1.279 . S
C621 O611 1.250 . S
C622 O612 1.264 . S
C622 O616 1.248 . S
C623 O613 1.260 . S
C623 O617 1.253 . S
C624 O615 1.279 . S
C624 O618 1.250 . S
O625 Mg607 2.030 . S
O625 C619 1.248 . S
O626 Mg609 2.079 . S
O626 C619 1.264 . S
O627 Mg628 1.990 . S
O627 C641 1.253 . S
Mg628 O627 1.990 . S
Mg628 O631 2.180 1_556 S
Mg628 O632 2.117 1_556 S
Mg628 O646 2.030 . S
O629 Mg630 2.072 1_556 S
O629 C641 1.260 . S
Mg630 O629 2.072 1_554 S
Mg630 O631 2.099 . S
Mg630 O633 2.079 . S
Mg630 O634 2.066 1_454 S
Mg630 O636 2.099 1_454 S
Mg630 O647 2.079 . S
O631 Mg628 2.180 1_554 S
O631 Mg630 2.099 . S
O631 C642 1.279 . S
O632 Mg628 2.117 1_554 S
O632 C642 1.250 . S
O633 Mg630 2.079 . S
O633 C643 1.264 1_455 S
O634 Mg630 2.066 1_656 S
O634 C644 1.265 . S
Mg635 O636 2.180 1_554 S
Mg635 O637 2.030 . S
Mg635 O638 1.990 1_554 S
Mg635 O639 2.117 1_554 S
O636 Mg630 2.099 1_656 S
O636 Mg635 2.180 1_556 S
O636 C645 1.279 . S
O637 Mg635 2.030 . S
O637 C643 1.248 . S
O638 Mg635 1.990 1_556 S
O638 C644 1.253 . S
O639 Mg635 2.117 1_556 S
O639 C645 1.250 . S
C640 O646 1.248 1_554 S
C640 O647 1.264 . S
C641 O627 1.253 . S
C641 O629 1.260 . S
C642 O631 1.279 . S
C642 O632 1.250 . S
C643 O633 1.264 1_655 S
C643 O637 1.248 . S
C644 O634 1.265 . S
C644 O638 1.253 . S
C645 O636 1.279 . S
C645 O639 1.250 . S
O646 Mg628 2.030 . S
O646 C640 1.248 1_556 S
O647 Mg630 2.079 . S
O647 C640 1.264 . S
H648 C654 0.930 . S
H649 C657 0.930 . S
H650 C658 0.930 . S
H651 C659 0.930 . S
H652 C662 0.930 . S
H653 C663 0.930 . S
C654 H648 0.930 . S
C654 C655 1.355 1_455 S
C654 C656 1.415 . S
C655 C654 1.355 1_655 S
C655 C657 1.419 . S
C656 C654 1.415 . S
C656 C661 1.425 1_455 S
C656 C663 1.409 . S
C657 H649 0.930 . S
C657 C655 1.419 . S
C657 C658 1.362 . S
C658 H650 0.930 . S
C658 C657 1.362 . S
C658 C661 1.409 . S
C659 H651 0.930 . S
C659 C660 1.355 . S
C659 C661 1.415 . S
C660 C659 1.355 . S
C660 C662 1.419 1_655 S
C661 C656 1.425 1_655 S
C661 C658 1.409 . S
C661 C659 1.415 . S
C662 H652 0.930 . S
C662 C660 1.419 1_455 S
C662 C663 1.362 . S
C663 H653 0.930 . S
C663 C656 1.409 . S
C663 C662 1.362 . S
H664 C670 0.930 . S
H665 C673 0.930 . S
H666 C674 0.930 . S
H667 C675 0.930 . S
H668 C678 0.930 . S
H669 C679 0.930 . S
C670 H664 0.930 . S
C670 C671 1.355 . S
C670 C672 1.415 . S
C671 C670 1.355 . S
C671 C673 1.419 . S
C672 C670 1.415 . S
C672 C677 1.425 . S
C672 C679 1.409 . S
C673 H665 0.930 . S
C673 C671 1.419 . S
C673 C674 1.362 . S
C674 H666 0.930 . S
C674 C673 1.362 . S
C674 C677 1.409 . S
C675 H667 0.930 . S
C675 C676 1.355 . S
C675 C677 1.415 . S
C676 C675 1.355 . S
C676 C678 1.419 . S
C677 C672 1.425 . S
C677 C674 1.409 . S
C677 C675 1.415 . S
C678 H668 0.930 . S
C678 C676 1.419 . S
C678 C679 1.362 . S
C679 H669 0.930 . S
C679 C672 1.409 . S
C679 C678 1.362 . S
H680 C686 0.930 . S
H681 C689 0.930 . S
H682 C690 0.930 . S
H683 C691 0.930 . S
H684 C694 0.930 . S
H685 C695 0.930 . S
C686 H680 0.930 . S
C686 C687 1.355 . S
C686 C688 1.415 . S
C687 C686 1.355 . S
C687 C689 1.419 . S
C688 C686 1.415 . S
C688 C693 1.425 . S
C688 C695 1.409 . S
C689 H681 0.930 . S
C689 C687 1.419 . S
C689 C690 1.362 . S
C690 H682 0.930 . S
C690 C689 1.362 . S
C690 C693 1.409 . S
C691 H683 0.930 . S
C691 C692 1.355 . S
C691 C693 1.415 . S
C692 C691 1.355 . S
C692 C694 1.419 . S
C693 C688 1.425 . S
C693 C690 1.409 . S
C693 C691 1.415 . S
C694 H684 0.930 . S
C694 C692 1.419 . S
C694 C695 1.362 . S
C695 H685 0.930 . S
C695 C688 1.409 . S
C695 C694 1.362 . S
H696 C702 0.930 . S
H697 C705 0.930 . S
H698 C706 0.930 . S
H699 C707 0.930 . S
H700 C710 0.930 . S
H701 C711 0.930 . S
C702 H696 0.930 . S
C702 C703 1.355 . S
C702 C704 1.415 . S
C703 C702 1.355 . S
C703 C705 1.419 . S
C704 C702 1.415 . S
C704 C709 1.425 . S
C704 C711 1.409 . S
C705 H697 0.930 . S
C705 C703 1.419 . S
C705 C706 1.362 . S
C706 H698 0.930 . S
C706 C705 1.362 . S
C706 C709 1.409 . S
C707 H699 0.930 . S
C707 C708 1.355 . S
C707 C709 1.415 . S
C708 C707 1.355 . S
C708 C710 1.419 . S
C709 C704 1.425 . S
C709 C706 1.409 . S
C709 C707 1.415 . S
C710 H700 0.930 . S
C710 C708 1.419 . S
C710 C711 1.362 . S
C711 H701 0.930 . S
C711 C704 1.409 . S
C711 C710 1.362 . S
H712 C718 0.930 . S
H713 C721 0.930 . S
H714 C722 0.930 . S
H715 C723 0.930 . S
H716 C726 0.930 . S
H717 C727 0.930 . S
C718 H712 0.930 . S
C718 C719 1.355 1_655 S
C718 C720 1.415 . S
C719 C718 1.355 1_455 S
C719 C721 1.419 . S
C720 C718 1.415 . S
C720 C725 1.425 1_655 S
C720 C727 1.409 . S
C721 H713 0.930 . S
C721 C719 1.419 . S
C721 C722 1.362 . S
C722 H714 0.930 . S
C722 C721 1.362 . S
C722 C725 1.409 . S
C723 H715 0.930 . S
C723 C724 1.355 1_455 S
C723 C725 1.415 . S
C724 C723 1.355 1_655 S
C724 C726 1.419 . S
C725 C720 1.425 1_455 S
C725 C722 1.409 . S
C725 C723 1.415 . S
C726 H716 0.930 . S
C726 C724 1.419 . S
C726 C727 1.362 . S
C727 H717 0.930 . S
C727 C720 1.409 . S
C727 C726 1.362 . S
H728 C734 0.930 . S
H729 C737 0.930 . S
H730 C738 0.930 . S
H731 C739 0.930 . S
H732 C742 0.930 . S
H733 C743 0.930 . S
C734 H728 0.930 . S
C734 C735 1.355 . S
C734 C736 1.415 . S
C735 C734 1.355 . S
C735 C737 1.419 . S
C736 C734 1.415 . S
C736 C741 1.425 . S
C736 C743 1.409 . S
C737 H729 0.930 . S
C737 C735 1.419 . S
C737 C738 1.362 . S
C738 H730 0.930 . S
C738 C737 1.362 . S
C738 C741 1.409 . S
C739 H731 0.930 . S
C739 C740 1.355 . S
C739 C741 1.415 . S
C740 C739 1.355 . S
C740 C742 1.419 . S
C741 C736 1.425 . S
C741 C738 1.409 . S
C741 C739 1.415 . S
C742 H732 0.930 . S
C742 C740 1.419 . S
C742 C743 1.362 . S
C743 H733 0.930 . S
C743 C736 1.409 . S
C743 C742 1.362 . S
H744 C750 0.930 . S
H745 C753 0.930 . S
H746 C754 0.930 . S
H747 C755 0.930 . S
H748 C758 0.930 . S
H749 C759 0.930 . S
C750 H744 0.930 . S
C750 C751 1.355 . S
C750 C752 1.415 . S
C751 C750 1.355 . S
C751 C753 1.419 . S
C752 C750 1.415 . S
C752 C757 1.425 . S
C752 C759 1.409 . S
C753 H745 0.930 . S
C753 C751 1.419 . S
C753 C754 1.362 . S
C754 H746 0.930 . S
C754 C753 1.362 . S
C754 C757 1.409 . S
C755 H747 0.930 . S
C755 C756 1.355 . S
C755 C757 1.415 . S
C756 C755 1.355 . S
C756 C758 1.419 . S
C757 C752 1.425 . S
C757 C754 1.409 . S
C757 C755 1.415 . S
C758 H748 0.930 . S
C758 C756 1.419 . S
C758 C759 1.362 . S
C759 H749 0.930 . S
C759 C752 1.409 . S
C759 C758 1.362 . S
H760 C766 0.930 . S
H761 C769 0.930 . S
H762 C770 0.930 . S
H763 C771 0.930 . S
H764 C774 0.930 . S
H765 C775 0.930 . S
C766 H760 0.930 . S
C766 C767 1.355 . S
C766 C768 1.415 . S
C767 C766 1.355 . S
C767 C769 1.419 . S
C768 C766 1.415 . S
C768 C773 1.425 . S
C768 C775 1.409 . S
C769 H761 0.930 . S
C769 C767 1.419 . S
C769 C770 1.362 . S
C770 H762 0.930 . S
C770 C769 1.362 . S
C770 C773 1.409 . S
C771 H763 0.930 . S
C771 C772 1.355 . S
C771 C773 1.415 . S
C772 C771 1.355 . S
C772 C774 1.419 . S
C773 C768 1.425 . S
C773 C770 1.409 . S
C773 C771 1.415 . S
C774 H764 0.930 . S
C774 C772 1.419 . S
C774 C775 1.362 . S
C775 H765 0.930 . S
C775 C768 1.409 . S
C775 C774 1.362 . S
H776 C782 0.934 . S
H777 C785 0.930 . S
H778 C786 0.930 . S
H779 C787 0.930 . S
H780 C790 0.930 . S
H781 C791 0.930 . S
C782 H776 0.934 . S
C782 C783 1.352 1_545 S
C782 C784 1.414 1_545 S
C783 C782 1.352 1_565 S
C783 C785 1.419 . S
C784 C782 1.414 1_565 S
C784 C789 1.425 . S
C784 C791 1.409 1_565 S
C785 H777 0.930 . S
C785 C783 1.419 . S
C785 C786 1.362 . S
C786 H778 0.930 . S
C786 C785 1.362 . S
C786 C789 1.409 . S
C787 H779 0.930 . S
C787 C788 1.355 . S
C787 C789 1.415 . S
C788 C787 1.355 . S
C788 C790 1.419 1_565 S
C789 C784 1.425 . S
C789 C786 1.409 . S
C789 C787 1.415 . S
C790 H780 0.930 . S
C790 C788 1.419 1_545 S
C790 C791 1.362 . S
C791 H781 0.930 . S
C791 C784 1.409 1_545 S
C791 C790 1.362 . S
H792 C798 0.930 . S
H793 C801 0.930 . S
H794 C802 0.930 . S
H795 C803 0.930 . S
H796 C806 0.930 . S
H797 C807 0.930 . S
C798 H792 0.930 . S
C798 C799 1.355 . S
C798 C800 1.415 . S
C799 C798 1.355 . S
C799 C801 1.419 . S
C800 C798 1.415 . S
C800 C805 1.425 . S
C800 C807 1.409 . S
C801 H793 0.930 . S
C801 C799 1.419 . S
C801 C802 1.362 . S
C802 H794 0.930 . S
C802 C801 1.362 . S
C802 C805 1.409 . S
C803 H795 0.930 . S
C803 C804 1.355 . S
C803 C805 1.415 . S
C804 C803 1.355 . S
C804 C806 1.419 . S
C805 C800 1.425 . S
C805 C802 1.409 . S
C805 C803 1.415 . S
C806 H796 0.930 . S
C806 C804 1.419 . S
C806 C807 1.362 . S
C807 H797 0.930 . S
C807 C800 1.409 . S
C807 C806 1.362 . S
H808 C814 0.930 . S
H809 C817 0.930 . S
H810 C818 0.930 . S
H811 C819 0.930 1_565 S
H812 C822 0.930 . S
H813 C823 0.930 . S
C814 H808 0.930 . S
C814 C815 1.355 . S
C814 C816 1.415 . S
C815 C814 1.355 . S
C815 C817 1.419 1_545 S
C816 C814 1.415 . S
C816 C821 1.425 . S
C816 C823 1.409 . S
C817 H809 0.930 . S
C817 C815 1.419 1_565 S
C817 C818 1.362 . S
C818 H810 0.930 . S
C818 C817 1.362 . S
C818 C821 1.409 1_565 S
C819 H811 0.930 1_545 S
C819 C820 1.355 . S
C819 C821 1.415 . S
C820 C819 1.355 . S
C820 C822 1.419 . S
C821 C816 1.425 . S
C821 C818 1.409 1_545 S
C821 C819 1.415 . S
C822 H812 0.930 . S
C822 C820 1.419 . S
C822 C823 1.362 . S
C823 H813 0.930 . S
C823 C816 1.409 . S
C823 C822 1.362 . S
H824 C830 0.930 . S
H825 C833 0.930 . S
H826 C834 0.930 . S
H827 C835 0.930 . S
H828 C838 0.930 . S
H829 C839 0.930 . S
C830 H824 0.930 . S
C830 C831 1.355 . S
C830 C832 1.415 . S
C831 C830 1.355 . S
C831 C833 1.419 . S
C832 C830 1.415 . S
C832 C837 1.425 . S
C832 C839 1.409 . S
C833 H825 0.930 . S
C833 C831 1.419 . S
C833 C834 1.362 . S
C834 H826 0.930 . S
C834 C833 1.362 . S
C834 C837 1.409 . S
C835 H827 0.930 . S
C835 C836 1.355 . S
C835 C837 1.415 . S
C836 C835 1.355 . S
C836 C838 1.419 . S
C837 C832 1.425 . S
C837 C834 1.409 . S
C837 C835 1.415 . S
C838 H828 0.930 . S
C838 C836 1.419 . S
C838 C839 1.362 . S
C839 H829 0.930 . S
C839 C832 1.409 . S
C839 C838 1.362 . S
H840 C846 0.930 . S
H841 C849 0.930 . S
H842 C850 0.930 . S
H843 C851 0.930 . S
H844 C854 0.930 . S
H845 C855 0.930 . S
C846 H840 0.930 . S
C846 C847 1.355 1_565 S
C846 C848 1.415 1_565 S
C847 C846 1.355 1_545 S
C847 C849 1.419 . S
C848 C846 1.415 1_545 S
C848 C853 1.425 . S
C848 C855 1.409 1_545 S
C849 H841 0.930 . S
C849 C847 1.419 . S
C849 C850 1.362 . S
C850 H842 0.930 . S
C850 C849 1.362 . S
C850 C853 1.409 . S
C851 H843 0.930 . S
C851 C852 1.355 . S
C851 C853 1.415 . S
C852 C851 1.355 . S
C852 C854 1.419 1_545 S
C853 C848 1.425 . S
C853 C850 1.409 . S
C853 C851 1.415 . S
C854 H844 0.930 . S
C854 C852 1.419 1_565 S
C854 C855 1.362 . S
C855 H845 0.930 . S
C855 C848 1.409 1_565 S
C855 C854 1.362 . S
H856 C862 0.930 . S
H857 C865 0.930 . S
H858 C866 0.930 . S
H859 C867 0.930 . S
H860 C870 0.930 . S
H861 C871 0.930 . S
C862 H856 0.930 . S
C862 C863 1.355 . S
C862 C864 1.415 . S
C863 C862 1.355 . S
C863 C865 1.419 . S
C864 C862 1.415 . S
C864 C869 1.425 . S
C864 C871 1.409 . S
C865 H857 0.930 . S
C865 C863 1.419 . S
C865 C866 1.362 . S
C866 H858 0.930 . S
C866 C865 1.362 . S
C866 C869 1.409 . S
C867 H859 0.930 . S
C867 C868 1.355 . S
C867 C869 1.415 . S
C868 C867 1.355 . S
C868 C870 1.419 . S
C869 C864 1.425 . S
C869 C866 1.409 . S
C869 C867 1.415 . S
C870 H860 0.930 . S
C870 C868 1.419 . S
C870 C871 1.362 . S
C871 H861 0.930 . S
C871 C864 1.409 . S
C871 C870 1.362 . S
H872 C878 0.930 . S
H873 C881 0.930 . S
H874 C882 0.930 . S
H875 C883 0.930 . S
H876 C886 0.930 . S
H877 C887 0.930 . S
C878 H872 0.930 . S
C878 C879 1.355 1_565 S
C878 C880 1.415 . S
C879 C878 1.355 1_545 S
C879 C881 1.419 . S
C880 C878 1.415 . S
C880 C885 1.425 1_565 S
C880 C887 1.409 . S
C881 H873 0.930 . S
C881 C879 1.419 . S
C881 C882 1.362 . S
C882 H874 0.930 . S
C882 C881 1.362 . S
C882 C885 1.409 . S
C883 H875 0.930 . S
C883 C884 1.355 1_545 S
C883 C885 1.415 . S
C884 C883 1.355 1_565 S
C884 C886 1.419 . S
C885 C880 1.425 1_545 S
C885 C882 1.409 . S
C885 C883 1.415 . S
C886 H876 0.930 . S
C886 C884 1.419 . S
C886 C887 1.362 . S
C887 H877 0.930 . S
C887 C880 1.409 . S
C887 C886 1.362 . S
H888 C894 0.930 . S
H889 C897 0.930 . S
H890 C898 0.930 . S
H891 C899 0.930 . S
H892 C902 0.930 . S
H893 C903 0.930 . S
C894 H888 0.930 . S
C894 C895 1.355 . S
C894 C896 1.415 . S
C895 C894 1.355 . S
C895 C897 1.419 . S
C896 C894 1.415 . S
C896 C901 1.425 . S
C896 C903 1.409 . S
C897 H889 0.930 . S
C897 C895 1.419 . S
C897 C898 1.362 . S
C898 H890 0.930 . S
C898 C897 1.362 . S
C898 C901 1.409 . S
C899 H891 0.930 . S
C899 C900 1.355 . S
C899 C901 1.415 . S
C900 C899 1.355 . S
C900 C902 1.419 . S
C901 C896 1.425 . S
C901 C898 1.409 . S
C901 C899 1.415 . S
C902 H892 0.930 . S
C902 C900 1.419 . S
C902 C903 1.362 . S
C903 H893 0.930 . S
C903 C896 1.409 . S
C903 C902 1.362 . S
H904 C910 0.930 . S
H905 C913 0.930 . S
H906 C914 0.930 . S
H907 C915 0.930 . S
H908 C918 0.930 . S
H909 C919 0.930 . S
C910 H904 0.930 . S
C910 C911 1.355 1_556 S
C910 C912 1.415 . S
C911 C910 1.355 1_554 S
C911 C913 1.419 . S
C912 C910 1.415 . S
C912 C917 1.425 1_556 S
C912 C919 1.409 . S
C913 H905 0.930 . S
C913 C911 1.419 . S
C913 C914 1.362 . S
C914 H906 0.930 . S
C914 C913 1.362 . S
C914 C917 1.409 . S
C915 H907 0.930 . S
C915 C916 1.355 1_554 S
C915 C917 1.415 . S
C916 C915 1.355 1_556 S
C916 C918 1.419 . S
C917 C912 1.425 1_554 S
C917 C914 1.409 . S
C917 C915 1.415 . S
C918 H908 0.930 . S
C918 C916 1.419 . S
C918 C919 1.362 . S
C919 H909 0.930 . S
C919 C912 1.409 . S
C919 C918 1.362 . S
H920 C926 0.933 . S
H921 C929 0.930 . S
H922 C930 0.930 . S
H923 C931 0.930 . S
H924 C934 0.930 . S
H925 C935 0.930 . S
C926 H920 0.933 . S
C926 C927 1.352 1_556 S
C926 C928 1.414 1_556 S
C927 C926 1.352 1_554 S
C927 C929 1.419 . S
C928 C926 1.414 1_554 S
C928 C933 1.425 . S
C928 C935 1.409 1_554 S
C929 H921 0.930 . S
C929 C927 1.419 . S
C929 C930 1.362 . S
C930 H922 0.930 . S
C930 C929 1.362 . S
C930 C933 1.409 . S
C931 H923 0.930 . S
C931 C932 1.355 . S
C931 C933 1.415 . S
C932 C931 1.355 . S
C932 C934 1.419 1_554 S
C933 C928 1.425 . S
C933 C930 1.409 . S
C933 C931 1.415 . S
C934 H924 0.930 . S
C934 C932 1.419 1_556 S
C934 C935 1.362 . S
C935 H925 0.930 . S
C935 C928 1.409 1_556 S
C935 C934 1.362 . S
H936 C942 0.930 . S
H937 C945 0.930 . S
H938 C946 0.930 . S
H939 C947 0.930 . S
H940 C950 0.930 . S
H941 C951 0.930 . S
C942 H936 0.930 . S
C942 C943 1.355 . S
C942 C944 1.415 . S
C943 C942 1.355 . S
C943 C945 1.419 . S
C944 C942 1.415 . S
C944 C949 1.425 . S
C944 C951 1.409 . S
C945 H937 0.930 . S
C945 C943 1.419 . S
C945 C946 1.362 . S
C946 H938 0.930 . S
C946 C945 1.362 . S
C946 C949 1.409 . S
C947 H939 0.930 . S
C947 C948 1.355 . S
C947 C949 1.415 . S
C948 C947 1.355 . S
C948 C950 1.419 . S
C949 C944 1.425 . S
C949 C946 1.409 . S
C949 C947 1.415 . S
C950 H940 0.930 . S
C950 C948 1.419 . S
C950 C951 1.362 . S
C951 H941 0.930 . S
C951 C944 1.409 . S
C951 C950 1.362 . S
H952 C958 0.930 . S
H953 C961 0.930 . S
H954 C962 0.930 . S
H955 C963 0.930 . S
H956 C966 0.930 . S
H957 C967 0.930 . S
C958 H952 0.930 . S
C958 C959 1.355 . S
C958 C960 1.415 . S
C959 C958 1.355 . S
C959 C961 1.419 . S
C960 C958 1.415 . S
C960 C965 1.425 . S
C960 C967 1.409 . S
C961 H953 0.930 . S
C961 C959 1.419 . S
C961 C962 1.362 . S
C962 H954 0.930 . S
C962 C961 1.362 . S
C962 C965 1.409 . S
C963 H955 0.930 . S
C963 C964 1.355 . S
C963 C965 1.415 . S
C964 C963 1.355 . S
C964 C966 1.419 . S
C965 C960 1.425 . S
C965 C962 1.409 . S
C965 C963 1.415 . S
C966 H956 0.930 . S
C966 C964 1.419 . S
C966 C967 1.362 . S
C967 H957 0.930 . S
C967 C960 1.409 . S
C967 C966 1.362 . S
H968 C974 0.930 . S
H969 C977 0.930 . S
H970 C978 0.930 . S
H971 C979 0.930 . S
H972 C982 0.930 . S
H973 C983 0.930 . S
C974 H968 0.930 . S
C974 C975 1.355 . S
C974 C976 1.415 . S
C975 C974 1.355 . S
C975 C977 1.419 . S
C976 C974 1.415 . S
C976 C981 1.425 . S
C976 C983 1.409 . S
C977 H969 0.930 . S
C977 C975 1.419 . S
C977 C978 1.362 . S
C978 H970 0.930 . S
C978 C977 1.362 . S
C978 C981 1.409 . S
C979 H971 0.930 . S
C979 C980 1.355 . S
C979 C981 1.415 . S
C980 C979 1.355 . S
C980 C982 1.419 . S
C981 C976 1.425 . S
C981 C978 1.409 . S
C981 C979 1.415 . S
C982 H972 0.930 . S
C982 C980 1.419 . S
C982 C983 1.362 . S
C983 H973 0.930 . S
C983 C976 1.409 . S
C983 C982 1.362 . S
H984 C990 0.930 . S
H985 C993 0.930 . S
H986 C994 0.930 . S
H987 C995 0.930 . S
H988 C998 0.930 . S
H989 C999 0.930 . S
C990 H984 0.930 . S
C990 C991 1.355 . S
C990 C992 1.415 . S
C991 C990 1.355 . S
C991 C993 1.419 . S
C992 C990 1.415 . S
C992 C997 1.425 . S
C992 C999 1.409 . S
C993 H985 0.930 . S
C993 C991 1.419 . S
C993 C994 1.362 . S
C994 H986 0.930 . S
C994 C993 1.362 . S
C994 C997 1.409 . S
C995 H987 0.930 . S
C995 C996 1.355 . S
C995 C997 1.415 . S
C996 C995 1.355 . S
C996 C998 1.419 . S
C997 C992 1.425 . S
C997 C994 1.409 . S
C997 C995 1.415 . S
C998 H988 0.930 . S
C998 C996 1.419 . S
C998 C999 1.362 . S
C999 H989 0.930 . S
C999 C992 1.409 . S
C999 C998 1.362 . S
H1000 C1006 0.930 . S
H1001 C1009 0.930 . S
H1002 C1010 0.930 . S
H1003 C1011 0.930 . S
H1004 C1014 0.930 . S
H1005 C1015 0.930 . S
C1006 H1000 0.930 . S
C1006 C1007 1.355 . S
C1006 C1008 1.415 . S
C1007 C1006 1.355 . S
C1007 C1009 1.419 . S
C1008 C1006 1.415 . S
C1008 C1013 1.425 . S
C1008 C1015 1.409 . S
C1009 H1001 0.930 . S
C1009 C1007 1.419 . S
C1009 C1010 1.362 . S
C1010 H1002 0.930 . S
C1010 C1009 1.362 . S
C1010 C1013 1.409 . S
C1011 H1003 0.930 . S
C1011 C1012 1.355 . S
C1011 C1013 1.415 . S
C1012 C1011 1.355 . S
C1012 C1014 1.419 . S
C1013 C1008 1.425 . S
C1013 C1010 1.409 . S
C1013 C1011 1.415 . S
C1014 H1004 0.930 . S
C1014 C1012 1.419 . S
C1014 C1015 1.362 . S
C1015 H1005 0.930 . S
C1015 C1008 1.409 . S
C1015 C1014 1.362 . S
H1016 C1022 0.930 . S
H1017 C1025 0.930 . S
H1018 C1026 0.930 . S
H1019 C1027 0.930 . S
H1020 C1030 0.930 . S
H1021 C1031 0.930 . S
C1022 H1016 0.930 . S
C1022 C1023 1.355 . S
C1022 C1024 1.415 . S
C1023 C1022 1.355 . S
C1023 C1025 1.419 . S
C1024 C1022 1.415 . S
C1024 C1029 1.425 . S
C1024 C1031 1.409 . S
C1025 H1017 0.930 . S
C1025 C1023 1.419 . S
C1025 C1026 1.362 . S
C1026 H1018 0.930 . S
C1026 C1025 1.362 . S
C1026 C1029 1.409 . S
C1027 H1019 0.930 . S
C1027 C1028 1.355 . S
C1027 C1029 1.415 . S
C1028 C1027 1.355 . S
C1028 C1030 1.419 . S
C1029 C1024 1.425 . S
C1029 C1026 1.409 . S
C1029 C1027 1.415 . S
C1030 H1020 0.930 . S
C1030 C1028 1.419 . S
C1030 C1031 1.362 . S
C1031 H1021 0.930 . S
C1031 C1024 1.409 . S
C1031 C1030 1.362 . S
H1032 C1038 0.930 . S
H1033 C1041 0.930 . S
H1034 C1042 0.930 . S
H1035 C1043 0.930 . S
H1036 C1046 0.930 . S
H1037 C1047 0.930 . S
C1038 H1032 0.930 . S
C1038 C1039 1.355 1_655 S
C1038 C1040 1.415 . S
C1039 C1038 1.355 1_455 S
C1039 C1041 1.419 . S
C1040 C1038 1.415 . S
C1040 C1045 1.425 1_655 S
C1040 C1047 1.409 . S
C1041 H1033 0.930 . S
C1041 C1039 1.419 . S
C1041 C1042 1.362 . S
C1042 H1034 0.930 . S
C1042 C1041 1.362 . S
C1042 C1045 1.409 . S
C1043 H1035 0.930 . S
C1043 C1044 1.355 . S
C1043 C1045 1.415 . S
C1044 C1043 1.355 . S
C1044 C1046 1.419 1_455 S
C1045 C1040 1.425 1_455 S
C1045 C1042 1.409 . S
C1045 C1043 1.415 . S
C1046 H1036 0.930 . S
C1046 C1044 1.419 1_655 S
C1046 C1047 1.362 . S
C1047 H1037 0.930 . S
C1047 C1040 1.409 . S
C1047 C1046 1.362 . S
H1048 C1054 0.930 . S
H1049 C1057 0.930 . S
H1050 C1058 0.930 . S
H1051 C1059 0.930 . S
H1052 C1062 0.930 . S
H1053 C1063 0.930 . S
C1054 H1048 0.930 . S
C1054 C1055 1.355 . S
C1054 C1056 1.415 . S
C1055 C1054 1.355 . S
C1055 C1057 1.419 . S
C1056 C1054 1.415 . S
C1056 C1061 1.425 . S
C1056 C1063 1.409 . S
C1057 H1049 0.930 . S
C1057 C1055 1.419 . S
C1057 C1058 1.362 . S
C1058 H1050 0.930 . S
C1058 C1057 1.362 . S
C1058 C1061 1.409 . S
C1059 H1051 0.930 . S
C1059 C1060 1.355 . S
C1059 C1061 1.415 . S
C1060 C1059 1.355 . S
C1060 C1062 1.419 . S
C1061 C1056 1.425 . S
C1061 C1058 1.409 . S
C1061 C1059 1.415 . S
C1062 H1052 0.930 . S
C1062 C1060 1.419 . S
C1062 C1063 1.362 . S
C1063 H1053 0.930 . S
C1063 C1056 1.409 . S
C1063 C1062 1.362 . S
H1064 C1070 0.930 . S
H1065 C1073 0.930 . S
H1066 C1074 0.930 . S
H1067 C1075 0.930 . S
H1068 C1078 0.930 . S
H1069 C1079 0.930 . S
C1070 H1064 0.930 . S
C1070 C1071 1.355 . S
C1070 C1072 1.415 . S
C1071 C1070 1.355 . S
C1071 C1073 1.419 . S
C1072 C1070 1.415 . S
C1072 C1077 1.425 . S
C1072 C1079 1.409 . S
C1073 H1065 0.930 . S
C1073 C1071 1.419 . S
C1073 C1074 1.362 . S
C1074 H1066 0.930 . S
C1074 C1073 1.362 . S
C1074 C1077 1.409 . S
C1075 H1067 0.930 . S
C1075 C1076 1.355 . S
C1075 C1077 1.415 . S
C1076 C1075 1.355 . S
C1076 C1078 1.419 . S
C1077 C1072 1.425 . S
C1077 C1074 1.409 . S
C1077 C1075 1.415 . S
C1078 H1068 0.930 . S
C1078 C1076 1.419 . S
C1078 C1079 1.362 . S
C1079 H1069 0.930 . S
C1079 C1072 1.409 . S
C1079 C1078 1.362 . S
H1080 C1086 0.930 . S
H1081 C1089 0.930 . S
H1082 C1090 0.930 . S
H1083 C1091 0.930 . S
H1084 C1094 0.930 . S
H1085 C1095 0.930 . S
C1086 H1080 0.930 . S
C1086 C1087 1.355 . S
C1086 C1088 1.415 . S
C1087 C1086 1.355 . S
C1087 C1089 1.419 . S
C1088 C1086 1.415 . S
C1088 C1093 1.425 . S
C1088 C1095 1.409 . S
C1089 H1081 0.930 . S
C1089 C1087 1.419 . S
C1089 C1090 1.362 . S
C1090 H1082 0.930 . S
C1090 C1089 1.362 . S
C1090 C1093 1.409 . S
C1091 H1083 0.930 . S
C1091 C1092 1.355 . S
C1091 C1093 1.415 . S
C1092 C1091 1.355 . S
C1092 C1094 1.419 . S
C1093 C1088 1.425 . S
C1093 C1090 1.409 . S
C1093 C1091 1.415 . S
C1094 H1084 0.930 . S
C1094 C1092 1.419 . S
C1094 C1095 1.362 . S
C1095 H1085 0.930 . S
C1095 C1088 1.409 . S
C1095 C1094 1.362 . S
H1096 C1102 0.930 . S
H1097 C1105 0.930 . S
H1098 C1106 0.930 . S
H1099 C1107 0.930 . S
H1100 C1110 0.930 . S
H1101 C1111 0.930 . S
C1102 H1096 0.930 . S
C1102 C1103 1.355 1_455 S
C1102 C1104 1.415 . S
C1103 C1102 1.355 1_655 S
C1103 C1105 1.419 . S
C1104 C1102 1.415 . S
C1104 C1109 1.425 1_455 S
C1104 C1111 1.409 . S
C1105 H1097 0.930 . S
C1105 C1103 1.419 . S
C1105 C1106 1.362 . S
C1106 H1098 0.930 . S
C1106 C1105 1.362 . S
C1106 C1109 1.409 . S
C1107 H1099 0.930 . S
C1107 C1108 1.355 1_655 S
C1107 C1109 1.415 . S
C1108 C1107 1.355 1_455 S
C1108 C1110 1.419 . S
C1109 C1104 1.425 1_655 S
C1109 C1106 1.409 . S
C1109 C1107 1.415 . S
C1110 H1100 0.930 . S
C1110 C1108 1.419 . S
C1110 C1111 1.362 . S
C1111 H1101 0.930 . S
C1111 C1104 1.409 . S
C1111 C1110 1.362 . S
H1112 C1118 0.930 . S
H1113 C1121 0.930 . S
H1114 C1122 0.930 . S
H1115 C1123 0.930 . S
H1116 C1126 0.930 . S
H1117 C1127 0.930 . S
C1118 H1112 0.930 . S
C1118 C1119 1.355 . S
C1118 C1120 1.415 . S
C1119 C1118 1.355 . S
C1119 C1121 1.419 . S
C1120 C1118 1.415 . S
C1120 C1125 1.425 . S
C1120 C1127 1.409 . S
C1121 H1113 0.930 . S
C1121 C1119 1.419 . S
C1121 C1122 1.362 . S
C1122 H1114 0.930 . S
C1122 C1121 1.362 . S
C1122 C1125 1.409 . S
C1123 H1115 0.930 . S
C1123 C1124 1.355 . S
C1123 C1125 1.415 . S
C1124 C1123 1.355 . S
C1124 C1126 1.419 . S
C1125 C1120 1.425 . S
C1125 C1122 1.409 . S
C1125 C1123 1.415 . S
C1126 H1116 0.930 . S
C1126 C1124 1.419 . S
C1126 C1127 1.362 . S
C1127 H1117 0.930 . S
C1127 C1120 1.409 . S
C1127 C1126 1.362 . S
H1128 C1134 0.930 . S
H1129 C1137 0.930 . S
H1130 C1138 0.930 . S
H1131 C1139 0.930 . S
H1132 C1142 0.930 . S
H1133 C1143 0.930 . S
C1134 H1128 0.930 . S
C1134 C1135 1.355 . S
C1134 C1136 1.415 . S
C1135 C1134 1.355 . S
C1135 C1137 1.419 . S
C1136 C1134 1.415 . S
C1136 C1141 1.425 . S
C1136 C1143 1.409 . S
C1137 H1129 0.930 . S
C1137 C1135 1.419 . S
C1137 C1138 1.362 . S
C1138 H1130 0.930 . S
C1138 C1137 1.362 . S
C1138 C1141 1.409 . S
C1139 H1131 0.930 . S
C1139 C1140 1.355 . S
C1139 C1141 1.415 . S
C1140 C1139 1.355 . S
C1140 C1142 1.419 . S
C1141 C1136 1.425 . S
C1141 C1138 1.409 . S
C1141 C1139 1.415 . S
C1142 H1132 0.930 . S
C1142 C1140 1.419 . S
C1142 C1143 1.362 . S
C1143 H1133 0.930 . S
C1143 C1136 1.409 . S
C1143 C1142 1.362 . S
H1144 C1150 0.930 . S
H1145 C1153 0.930 . S
H1146 C1154 0.930 . S
H1147 C1155 0.930 . S
H1148 C1158 0.930 . S
H1149 C1159 0.930 . S
C1150 H1144 0.930 . S
C1150 C1151 1.355 . S
C1150 C1152 1.415 . S
C1151 C1150 1.355 . S
C1151 C1153 1.419 . S
C1152 C1150 1.415 . S
C1152 C1157 1.425 . S
C1152 C1159 1.409 . S
C1153 H1145 0.930 . S
C1153 C1151 1.419 . S
C1153 C1154 1.362 . S
C1154 H1146 0.930 . S
C1154 C1153 1.362 . S
C1154 C1157 1.409 . S
C1155 H1147 0.930 . S
C1155 C1156 1.355 . S
C1155 C1157 1.415 . S
C1156 C1155 1.355 . S
C1156 C1158 1.419 . S
C1157 C1152 1.425 . S
C1157 C1154 1.409 . S
C1157 C1155 1.415 . S
C1158 H1148 0.930 . S
C1158 C1156 1.419 . S
C1158 C1159 1.362 . S
C1159 H1149 0.930 . S
C1159 C1152 1.409 . S
C1159 C1158 1.362 . S
H1160 C1166 0.930 . S
H1161 C1169 0.930 . S
H1162 C1170 0.930 . S
H1163 C1171 0.930 . S
H1164 C1174 0.930 . S
H1165 C1175 0.930 . S
C1166 H1160 0.930 . S
C1166 C1167 1.355 1_565 S
C1166 C1168 1.415 . S
C1167 C1166 1.355 1_545 S
C1167 C1169 1.419 . S
C1168 C1166 1.415 . S
C1168 C1173 1.425 1_565 S
C1168 C1175 1.409 . S
C1169 H1161 0.930 . S
C1169 C1167 1.419 . S
C1169 C1170 1.362 . S
C1170 H1162 0.930 . S
C1170 C1169 1.362 . S
C1170 C1173 1.409 . S
C1171 H1163 0.930 . S
C1171 C1172 1.355 . S
C1171 C1173 1.415 . S
C1172 C1171 1.355 . S
C1172 C1174 1.419 1_545 S
C1173 C1168 1.425 1_545 S
C1173 C1170 1.409 . S
C1173 C1171 1.415 . S
C1174 H1164 0.930 . S
C1174 C1172 1.419 1_565 S
C1174 C1175 1.362 . S
C1175 H1165 0.930 . S
C1175 C1168 1.409 . S
C1175 C1174 1.362 . S
H1176 C1182 0.930 . S
H1177 C1185 0.930 . S
H1178 C1186 0.930 . S
H1179 C1187 0.930 . S
H1180 C1190 0.930 . S
H1181 C1191 0.930 . S
C1182 H1176 0.930 . S
C1182 C1183 1.355 . S
C1182 C1184 1.415 . S
C1183 C1182 1.355 . S
C1183 C1185 1.419 . S
C1184 C1182 1.415 . S
C1184 C1189 1.425 . S
C1184 C1191 1.409 . S
C1185 H1177 0.930 . S
C1185 C1183 1.419 . S
C1185 C1186 1.362 . S
C1186 H1178 0.930 . S
C1186 C1185 1.362 . S
C1186 C1189 1.409 . S
C1187 H1179 0.930 . S
C1187 C1188 1.355 . S
C1187 C1189 1.415 . S
C1188 C1187 1.355 . S
C1188 C1190 1.419 . S
C1189 C1184 1.425 . S
C1189 C1186 1.409 . S
C1189 C1187 1.415 . S
C1190 H1180 0.930 . S
C1190 C1188 1.419 . S
C1190 C1191 1.362 . S
C1191 H1181 0.930 . S
C1191 C1184 1.409 . S
C1191 C1190 1.362 . S
H1192 C1198 0.930 . S
H1193 C1201 0.930 . S
H1194 C1202 0.930 . S
H1195 C1203 0.930 . S
H1196 C1206 0.930 . S
H1197 C1207 0.930 . S
C1198 H1192 0.930 . S
C1198 C1199 1.355 . S
C1198 C1200 1.415 . S
C1199 C1198 1.355 . S
C1199 C1201 1.419 . S
C1200 C1198 1.415 . S
C1200 C1205 1.425 . S
C1200 C1207 1.409 . S
C1201 H1193 0.930 . S
C1201 C1199 1.419 . S
C1201 C1202 1.362 . S
C1202 H1194 0.930 . S
C1202 C1201 1.362 . S
C1202 C1205 1.409 . S
C1203 H1195 0.930 . S
C1203 C1204 1.355 . S
C1203 C1205 1.415 . S
C1204 C1203 1.355 . S
C1204 C1206 1.419 . S
C1205 C1200 1.425 . S
C1205 C1202 1.409 . S
C1205 C1203 1.415 . S
C1206 H1196 0.930 . S
C1206 C1204 1.419 . S
C1206 C1207 1.362 . S
C1207 H1197 0.930 . S
C1207 C1200 1.409 . S
C1207 C1206 1.362 . S
H1208 C1214 0.930 . S
H1209 C1217 0.930 . S
H1210 C1218 0.930 . S
H1211 C1219 0.930 . S
H1212 C1222 0.930 . S
H1213 C1223 0.930 . S
C1214 H1208 0.930 . S
C1214 C1215 1.355 . S
C1214 C1216 1.415 . S
C1215 C1214 1.355 . S
C1215 C1217 1.419 . S
C1216 C1214 1.415 . S
C1216 C1221 1.425 . S
C1216 C1223 1.409 . S
C1217 H1209 0.930 . S
C1217 C1215 1.419 . S
C1217 C1218 1.362 . S
C1218 H1210 0.930 . S
C1218 C1217 1.362 . S
C1218 C1221 1.409 . S
C1219 H1211 0.930 . S
C1219 C1220 1.355 . S
C1219 C1221 1.415 . S
C1220 C1219 1.355 . S
C1220 C1222 1.419 . S
C1221 C1216 1.425 . S
C1221 C1218 1.409 . S
C1221 C1219 1.415 . S
C1222 H1212 0.930 . S
C1222 C1220 1.419 . S
C1222 C1223 1.362 . S
C1223 H1213 0.930 . S
C1223 C1216 1.409 . S
C1223 C1222 1.362 . S
H1224 C1230 0.930 . S
H1225 C1233 0.930 . S
H1226 C1234 0.930 . S
H1227 C1235 0.930 . S
H1228 C1238 0.930 . S
H1229 C1239 0.930 . S
C1230 H1224 0.930 . S
C1230 C1231 1.355 1_565 S
C1230 C1232 1.415 . S
C1231 C1230 1.355 1_545 S
C1231 C1233 1.419 . S
C1232 C1230 1.415 . S
C1232 C1237 1.425 1_565 S
C1232 C1239 1.409 . S
C1233 H1225 0.930 . S
C1233 C1231 1.419 . S
C1233 C1234 1.362 . S
C1234 H1226 0.930 . S
C1234 C1233 1.362 . S
C1234 C1237 1.409 . S
C1235 H1227 0.930 . S
C1235 C1236 1.355 1_545 S
C1235 C1237 1.415 . S
C1236 C1235 1.355 1_565 S
C1236 C1238 1.419 . S
C1237 C1232 1.425 1_545 S
C1237 C1234 1.409 . S
C1237 C1235 1.415 . S
C1238 H1228 0.930 . S
C1238 C1236 1.419 . S
C1238 C1239 1.362 . S
C1239 H1229 0.930 . S
C1239 C1232 1.409 . S
C1239 C1238 1.362 . S
H1240 C1246 0.930 . S
H1241 C1249 0.930 . S
H1242 C1250 0.930 . S
H1243 C1251 0.930 . S
H1244 C1254 0.930 . S
H1245 C1255 0.930 . S
C1246 H1240 0.930 . S
C1246 C1247 1.355 . S
C1246 C1248 1.415 . S
C1247 C1246 1.355 . S
C1247 C1249 1.419 . S
C1248 C1246 1.415 . S
C1248 C1253 1.425 . S
C1248 C1255 1.409 . S
C1249 H1241 0.930 . S
C1249 C1247 1.419 . S
C1249 C1250 1.362 . S
C1250 H1242 0.930 . S
C1250 C1249 1.362 . S
C1250 C1253 1.409 . S
C1251 H1243 0.930 . S
C1251 C1252 1.355 . S
C1251 C1253 1.415 . S
C1252 C1251 1.355 . S
C1252 C1254 1.419 . S
C1253 C1248 1.425 . S
C1253 C1250 1.409 . S
C1253 C1251 1.415 . S
C1254 H1244 0.930 . S
C1254 C1252 1.419 . S
C1254 C1255 1.362 . S
C1255 H1245 0.930 . S
C1255 C1248 1.409 . S
C1255 C1254 1.362 . S
H1256 C1262 0.930 . S
H1257 C1265 0.930 . S
H1258 C1266 0.930 . S
H1259 C1267 0.930 . S
H1260 C1270 0.930 . S
H1261 C1271 0.930 . S
C1262 H1256 0.930 . S
C1262 C1263 1.355 1_565 S
C1262 C1264 1.415 . S
C1263 C1262 1.355 1_545 S
C1263 C1265 1.418 . S
C1264 C1262 1.415 . S
C1264 C1269 1.425 1_565 S
C1264 C1271 1.409 . S
C1265 H1257 0.930 . S
C1265 C1263 1.418 . S
C1265 C1266 1.362 . S
C1266 H1258 0.930 . S
C1266 C1265 1.362 . S
C1266 C1269 1.409 . S
C1267 H1259 0.930 . S
C1267 C1268 1.355 . S
C1267 C1269 1.415 . S
C1268 C1267 1.355 . S
C1268 C1270 1.419 1_545 S
C1269 C1264 1.425 1_545 S
C1269 C1266 1.409 . S
C1269 C1267 1.415 . S
C1270 H1260 0.930 . S
C1270 C1268 1.419 1_565 S
C1270 C1271 1.362 . S
C1271 H1261 0.930 . S
C1271 C1264 1.409 . S
C1271 C1270 1.362 . S
H1272 C1278 0.930 . S
H1273 C1281 0.930 . S
H1274 C1282 0.930 . S
H1275 C1283 0.930 . S
H1276 C1286 0.930 . S
H1277 C1287 0.930 . S
C1278 H1272 0.930 . S
C1278 C1279 1.355 . S
C1278 C1280 1.415 . S
C1279 C1278 1.355 . S
C1279 C1281 1.419 . S
C1280 C1278 1.415 . S
C1280 C1285 1.425 . S
C1280 C1287 1.409 . S
C1281 H1273 0.930 . S
C1281 C1279 1.419 . S
C1281 C1282 1.362 . S
C1282 H1274 0.930 . S
C1282 C1281 1.362 . S
C1282 C1285 1.409 . S
C1283 H1275 0.930 . S
C1283 C1284 1.355 . S
C1283 C1285 1.415 . S
C1284 C1283 1.355 . S
C1284 C1286 1.419 . S
C1285 C1280 1.425 . S
C1285 C1282 1.409 . S
C1285 C1283 1.415 . S
C1286 H1276 0.930 . S
C1286 C1284 1.419 . S
C1286 C1287 1.362 . S
C1287 H1277 0.930 . S
C1287 C1280 1.409 . S
C1287 C1286 1.362 . S
H1288 C1294 0.930 . S
H1289 C1297 0.930 . S
H1290 C1298 0.930 . S
H1291 C1299 0.930 1_556 S
H1292 C1302 0.930 . S
H1293 C1303 0.930 . S
C1294 H1288 0.930 . S
C1294 C1295 1.355 . S
C1294 C1296 1.415 . S
C1295 C1294 1.355 . S
C1295 C1297 1.419 1_554 S
C1296 C1294 1.415 . S
C1296 C1301 1.425 . S
C1296 C1303 1.409 . S
C1297 H1289 0.930 . S
C1297 C1295 1.419 1_556 S
C1297 C1298 1.362 . S
C1298 H1290 0.930 . S
C1298 C1297 1.362 . S
C1298 C1301 1.409 1_556 S
C1299 H1291 0.930 1_554 S
C1299 C1300 1.355 . S
C1299 C1301 1.415 . S
C1300 C1299 1.355 . S
C1300 C1302 1.419 . S
C1301 C1296 1.425 . S
C1301 C1298 1.409 1_554 S
C1301 C1299 1.415 . S
C1302 H1292 0.930 . S
C1302 C1300 1.419 . S
C1302 C1303 1.362 . S
C1303 H1293 0.930 . S
C1303 C1296 1.409 . S
C1303 C1302 1.362 . S
H1304 C1310 0.930 1_556 S
H1305 C1313 0.930 . S
H1306 C1314 0.930 . S
H1307 C1315 0.930 . S
H1308 C1318 0.930 . S
H1309 C1319 0.930 . S
C1310 H1304 0.930 1_554 S
C1310 C1311 1.355 . S
C1310 C1312 1.415 . S
C1311 C1310 1.355 . S
C1311 C1313 1.419 . S
C1312 C1310 1.415 . S
C1312 C1317 1.425 . S
C1312 C1319 1.409 1_554 S
C1313 H1305 0.930 . S
C1313 C1311 1.419 . S
C1313 C1314 1.362 . S
C1314 H1306 0.930 . S
C1314 C1313 1.362 . S
C1314 C1317 1.409 . S
C1315 H1307 0.930 . S
C1315 C1316 1.353 . S
C1315 C1317 1.415 . S
C1316 C1315 1.353 . S
C1316 C1318 1.420 1_554 S
C1317 C1312 1.425 . S
C1317 C1314 1.409 . S
C1317 C1315 1.415 . S
C1318 H1308 0.930 . S
C1318 C1316 1.420 1_556 S
C1318 C1319 1.362 . S
C1319 H1309 0.930 . S
C1319 C1312 1.409 1_556 S
C1319 C1318 1.362 . S
H1320 C1326 0.930 . S
H1321 C1329 0.930 . S
H1322 C1330 0.930 . S
H1323 C1331 0.930 . S
H1324 C1334 0.930 . S
H1325 C1335 0.930 . S
C1326 H1320 0.930 . S
C1326 C1327 1.355 . S
C1326 C1328 1.415 . S
C1327 C1326 1.355 . S
C1327 C1329 1.419 . S
C1328 C1326 1.415 . S
C1328 C1333 1.425 . S
C1328 C1335 1.409 . S
C1329 H1321 0.930 . S
C1329 C1327 1.419 . S
C1329 C1330 1.362 . S
C1330 H1322 0.930 . S
C1330 C1329 1.362 . S
C1330 C1333 1.409 . S
C1331 H1323 0.930 . S
C1331 C1332 1.355 . S
C1331 C1333 1.415 . S
C1332 C1331 1.355 . S
C1332 C1334 1.419 . S
C1333 C1328 1.425 . S
C1333 C1330 1.409 . S
C1333 C1331 1.415 . S
C1334 H1324 0.930 . S
C1334 C1332 1.419 . S
C1334 C1335 1.362 . S
C1335 H1325 0.930 . S
C1335 C1328 1.409 . S
C1335 C1334 1.362 . S
H1336 C1342 0.930 . S
H1337 C1345 0.930 . S
H1338 C1346 0.930 . S
H1339 C1347 0.930 . S
H1340 C1350 0.930 . S
H1341 C1351 0.930 . S
C1342 H1336 0.930 . S
C1342 C1343 1.355 . S
C1342 C1344 1.415 . S
C1343 C1342 1.355 . S
C1343 C1345 1.419 . S
C1344 C1342 1.415 . S
C1344 C1349 1.425 . S
C1344 C1351 1.409 . S
C1345 H1337 0.930 . S
C1345 C1343 1.419 . S
C1345 C1346 1.362 . S
C1346 H1338 0.930 . S
C1346 C1345 1.362 . S
C1346 C1349 1.409 . S
C1347 H1339 0.930 . S
C1347 C1348 1.355 . S
C1347 C1349 1.415 . S
C1348 C1347 1.355 . S
C1348 C1350 1.419 . S
C1349 C1344 1.425 . S
C1349 C1346 1.409 . S
C1349 C1347 1.415 . S
C1350 H1340 0.930 . S
C1350 C1348 1.419 . S
C1350 C1351 1.362 . S
C1351 H1341 0.930 . S
C1351 C1344 1.409 . S
C1351 C1350 1.362 . S
H1352 C1358 0.930 . S
H1353 C1361 0.930 . S
H1354 C1362 0.930 . S
H1355 C1363 0.930 . S
H1356 C1366 0.930 . S
H1357 C1367 0.930 . S
C1358 H1352 0.930 . S
C1358 C1359 1.355 . S
C1358 C1360 1.415 . S
C1359 C1358 1.355 . S
C1359 C1361 1.419 . S
C1360 C1358 1.415 . S
C1360 C1365 1.425 . S
C1360 C1367 1.409 . S
C1361 H1353 0.930 . S
C1361 C1359 1.419 . S
C1361 C1362 1.362 . S
C1362 H1354 0.930 . S
C1362 C1361 1.362 . S
C1362 C1365 1.409 . S
C1363 H1355 0.930 . S
C1363 C1364 1.355 . S
C1363 C1365 1.415 . S
C1364 C1363 1.355 . S
C1364 C1366 1.419 . S
C1365 C1360 1.425 . S
C1365 C1362 1.409 . S
C1365 C1363 1.415 . S
C1366 H1356 0.930 . S
C1366 C1364 1.419 . S
C1366 C1367 1.362 . S
C1367 H1357 0.930 . S
C1367 C1360 1.409 . S
C1367 C1366 1.362 . S
H1368 C1374 0.930 . S
H1369 C1377 0.930 . S
H1370 C1378 0.930 . S
H1371 C1379 0.930 . S
H1372 C1382 0.930 . S
H1373 C1383 0.930 . S
C1374 H1368 0.930 . S
C1374 C1375 1.355 . S
C1374 C1376 1.415 . S
C1375 C1374 1.355 . S
C1375 C1377 1.419 . S
C1376 C1374 1.415 . S
C1376 C1381 1.425 . S
C1376 C1383 1.409 . S
C1377 H1369 0.930 . S
C1377 C1375 1.419 . S
C1377 C1378 1.362 . S
C1378 H1370 0.930 . S
C1378 C1377 1.362 . S
C1378 C1381 1.409 . S
C1379 H1371 0.930 . S
C1379 C1380 1.355 . S
C1379 C1381 1.415 . S
C1380 C1379 1.355 . S
C1380 C1382 1.419 . S
C1381 C1376 1.425 . S
C1381 C1378 1.409 . S
C1381 C1379 1.415 . S
C1382 H1372 0.930 . S
C1382 C1380 1.419 . S
C1382 C1383 1.362 . S
C1383 H1373 0.930 . S
C1383 C1376 1.409 . S
C1383 C1382 1.362 . S
H1384 C1390 0.930 . S
H1385 C1393 0.930 . S
H1386 C1394 0.930 . S
H1387 C1395 0.930 . S
H1388 C1398 0.930 . S
H1389 C1399 0.930 . S
C1390 H1384 0.930 . S
C1390 C1391 1.355 . S
C1390 C1392 1.415 . S
C1391 C1390 1.355 . S
C1391 C1393 1.419 . S
C1392 C1390 1.415 . S
C1392 C1397 1.425 . S
C1392 C1399 1.409 . S
C1393 H1385 0.930 . S
C1393 C1391 1.419 . S
C1393 C1394 1.362 . S
C1394 H1386 0.930 . S
C1394 C1393 1.362 . S
C1394 C1397 1.409 . S
C1395 H1387 0.930 . S
C1395 C1396 1.355 . S
C1395 C1397 1.415 . S
C1396 C1395 1.355 . S
C1396 C1398 1.419 . S
C1397 C1392 1.425 . S
C1397 C1394 1.409 . S
C1397 C1395 1.415 . S
C1398 H1388 0.930 . S
C1398 C1396 1.419 . S
C1398 C1399 1.362 . S
C1399 H1389 0.930 . S
C1399 C1392 1.409 . S
C1399 C1398 1.362 . S
H1400 C1406 0.930 . S
H1401 C1409 0.930 . S
H1402 C1410 0.930 . S
H1403 C1411 0.930 . S
H1404 C1414 0.930 . S
H1405 C1415 0.930 . S
C1406 H1400 0.930 . S
C1406 C1407 1.355 . S
C1406 C1408 1.415 . S
C1407 C1406 1.355 . S
C1407 C1409 1.419 . S
C1408 C1406 1.415 . S
C1408 C1413 1.425 . S
C1408 C1415 1.409 . S
C1409 H1401 0.930 . S
C1409 C1407 1.419 . S
C1409 C1410 1.362 . S
C1410 H1402 0.930 . S
C1410 C1409 1.362 . S
C1410 C1413 1.409 . S
C1411 H1403 0.930 . S
C1411 C1412 1.355 . S
C1411 C1413 1.415 . S
C1412 C1411 1.355 . S
C1412 C1414 1.419 . S
C1413 C1408 1.425 . S
C1413 C1410 1.409 . S
C1413 C1411 1.415 . S
C1414 H1404 0.930 . S
C1414 C1412 1.419 . S
C1414 C1415 1.362 . S
C1415 H1405 0.930 . S
C1415 C1408 1.409 . S
C1415 C1414 1.362 . S
H1416 C1422 0.930 . S
H1417 C1425 0.930 . S
H1418 C1426 0.930 . S
H1419 C1427 0.930 . S
H1420 C1430 0.930 . S
H1421 C1431 0.930 . S
C1422 H1416 0.930 . S
C1422 C1423 1.355 . S
C1422 C1424 1.415 . S
C1423 C1422 1.355 . S
C1423 C1425 1.419 . S
C1424 C1422 1.415 . S
C1424 C1429 1.425 . S
C1424 C1431 1.409 . S
C1425 H1417 0.930 . S
C1425 C1423 1.419 . S
C1425 C1426 1.362 . S
C1426 H1418 0.930 . S
C1426 C1425 1.362 . S
C1426 C1429 1.409 . S
C1427 H1419 0.930 . S
C1427 C1428 1.355 . S
C1427 C1429 1.415 . S
C1428 C1427 1.355 . S
C1428 C1430 1.419 . S
C1429 C1424 1.425 . S
C1429 C1426 1.409 . S
C1429 C1427 1.415 . S
C1430 H1420 0.930 . S
C1430 C1428 1.419 . S
C1430 C1431 1.362 . S
C1431 H1421 0.930 . S
C1431 C1424 1.409 . S
C1431 C1430 1.362 . S
H1432 C1438 0.930 . S
H1433 C1441 0.930 . S
H1434 C1442 0.930 . S
H1435 C1443 0.930 . S
H1436 C1446 0.930 . S
H1437 C1447 0.930 . S
C1438 H1432 0.930 . S
C1438 C1439 1.355 . S
C1438 C1440 1.415 . S
C1439 C1438 1.355 . S
C1439 C1441 1.419 . S
C1440 C1438 1.415 . S
C1440 C1445 1.425 . S
C1440 C1447 1.409 . S
C1441 H1433 0.930 . S
C1441 C1439 1.419 . S
C1441 C1442 1.362 . S
C1442 H1434 0.930 . S
C1442 C1441 1.362 . S
C1442 C1445 1.409 . S
C1443 H1435 0.930 . S
C1443 C1444 1.355 . S
C1443 C1445 1.415 . S
C1444 C1443 1.355 . S
C1444 C1446 1.419 . S
C1445 C1440 1.425 . S
C1445 C1442 1.409 . S
C1445 C1443 1.415 . S
C1446 H1436 0.930 . S
C1446 C1444 1.419 . S
C1446 C1447 1.362 . S
C1447 H1437 0.930 . S
C1447 C1440 1.409 . S
C1447 C1446 1.362 . S
H1448 C1454 0.930 1_655 S
H1449 C1457 0.930 . S
H1450 C1458 0.930 . S
H1451 C1459 0.930 . S
H1452 C1462 0.930 . S
H1453 C1463 0.930 . S
C1454 H1448 0.930 1_455 S
C1454 C1455 1.355 . S
C1454 C1456 1.415 . S
C1455 C1454 1.355 . S
C1455 C1457 1.419 . S
C1456 C1454 1.415 . S
C1456 C1461 1.425 . S
C1456 C1463 1.409 1_455 S
C1457 H1449 0.930 . S
C1457 C1455 1.419 . S
C1457 C1458 1.362 . S
C1458 H1450 0.930 . S
C1458 C1457 1.362 . S
C1458 C1461 1.409 . S
C1459 H1451 0.930 . S
C1459 C1460 1.355 . S
C1459 C1461 1.415 . S
C1460 C1459 1.355 . S
C1460 C1462 1.419 1_455 S
C1461 C1456 1.425 . S
C1461 C1458 1.409 . S
C1461 C1459 1.415 . S
C1462 H1452 0.930 . S
C1462 C1460 1.419 1_655 S
C1462 C1463 1.362 . S
C1463 H1453 0.930 . S
C1463 C1456 1.409 1_655 S
C1463 C1462 1.362 . S
H1464 C1470 0.930 . S
H1465 C1473 0.930 . S
H1466 C1474 0.930 . S
H1467 C1475 0.930 . S
H1468 C1478 0.930 . S
H1469 C1479 0.930 . S
C1470 H1464 0.930 . S
C1470 C1471 1.355 . S
C1470 C1472 1.415 . S
C1471 C1470 1.355 . S
C1471 C1473 1.419 . S
C1472 C1470 1.415 . S
C1472 C1477 1.425 . S
C1472 C1479 1.409 . S
C1473 H1465 0.930 . S
C1473 C1471 1.419 . S
C1473 C1474 1.362 . S
C1474 H1466 0.930 . S
C1474 C1473 1.362 . S
C1474 C1477 1.409 . S
C1475 H1467 0.930 . S
C1475 C1476 1.355 . S
C1475 C1477 1.415 . S
C1476 C1475 1.355 . S
C1476 C1478 1.419 . S
C1477 C1472 1.425 . S
C1477 C1474 1.409 . S
C1477 C1475 1.415 . S
C1478 H1468 0.930 . S
C1478 C1476 1.419 . S
C1478 C1479 1.362 . S
C1479 H1469 0.930 . S
C1479 C1472 1.409 . S
C1479 C1478 1.362 . S
H1480 C1486 0.930 . S
H1481 C1489 0.930 . S
H1482 C1490 0.930 . S
H1483 C1491 0.930 . S
H1484 C1494 0.930 . S
H1485 C1495 0.930 . S
C1486 H1480 0.930 . S
C1486 C1487 1.355 . S
C1486 C1488 1.415 . S
C1487 C1486 1.355 . S
C1487 C1489 1.419 . S
C1488 C1486 1.415 . S
C1488 C1493 1.425 . S
C1488 C1495 1.409 . S
C1489 H1481 0.930 . S
C1489 C1487 1.419 . S
C1489 C1490 1.362 . S
C1490 H1482 0.930 . S
C1490 C1489 1.362 . S
C1490 C1493 1.409 . S
C1491 H1483 0.930 . S
C1491 C1492 1.355 . S
C1491 C1493 1.415 . S
C1492 C1491 1.355 . S
C1492 C1494 1.419 . S
C1493 C1488 1.425 . S
C1493 C1490 1.409 . S
C1493 C1491 1.415 . S
C1494 H1484 0.930 . S
C1494 C1492 1.419 . S
C1494 C1495 1.362 . S
C1495 H1485 0.930 . S
C1495 C1488 1.409 . S
C1495 C1494 1.362 . S
H1496 C1502 0.930 . S
H1497 C1505 0.930 . S
H1498 C1506 0.930 . S
H1499 C1507 0.930 . S
H1500 C1510 0.930 . S
H1501 C1511 0.930 . S
C1502 H1496 0.930 . S
C1502 C1503 1.355 . S
C1502 C1504 1.415 . S
C1503 C1502 1.355 . S
C1503 C1505 1.419 . S
C1504 C1502 1.415 . S
C1504 C1509 1.425 . S
C1504 C1511 1.409 . S
C1505 H1497 0.930 . S
C1505 C1503 1.419 . S
C1505 C1506 1.362 . S
C1506 H1498 0.930 . S
C1506 C1505 1.362 . S
C1506 C1509 1.409 . S
C1507 H1499 0.930 . S
C1507 C1508 1.355 . S
C1507 C1509 1.415 . S
C1508 C1507 1.355 . S
C1508 C1510 1.419 . S
C1509 C1504 1.425 . S
C1509 C1506 1.409 . S
C1509 C1507 1.415 . S
C1510 H1500 0.930 . S
C1510 C1508 1.419 . S
C1510 C1511 1.362 . S
C1511 H1501 0.930 . S
C1511 C1504 1.409 . S
C1511 C1510 1.362 . S
H1512 C1518 0.930 . S
H1513 C1521 0.930 . S
H1514 C1522 0.930 . S
H1515 C1523 0.930 . S
H1516 C1526 0.930 . S
H1517 C1527 0.930 . S
C1518 H1512 0.930 . S
C1518 C1519 1.355 . S
C1518 C1520 1.415 . S
C1519 C1518 1.355 . S
C1519 C1521 1.419 1_455 S
C1520 C1518 1.415 . S
C1520 C1525 1.425 . S
C1520 C1527 1.409 . S
C1521 H1513 0.930 . S
C1521 C1519 1.419 1_655 S
C1521 C1522 1.362 . S
C1522 H1514 0.930 . S
C1522 C1521 1.362 . S
C1522 C1525 1.409 1_655 S
C1523 H1515 0.930 . S
C1523 C1524 1.355 . S
C1523 C1525 1.415 . S
C1524 C1523 1.355 . S
C1524 C1526 1.419 . S
C1525 C1520 1.425 . S
C1525 C1522 1.409 1_455 S
C1525 C1523 1.415 . S
C1526 H1516 0.930 . S
C1526 C1524 1.419 . S
C1526 C1527 1.362 . S
C1527 H1517 0.930 . S
C1527 C1520 1.409 . S
C1527 C1526 1.362 . S
H1528 C1534 0.930 . S
H1529 C1537 0.930 . S
H1530 C1538 0.930 . S
H1531 C1539 0.930 . S
H1532 C1542 0.930 . S
H1533 C1543 0.930 . S
C1534 H1528 0.930 . S
C1534 C1535 1.355 . S
C1534 C1536 1.415 . S
C1535 C1534 1.355 . S
C1535 C1537 1.419 . S
C1536 C1534 1.415 . S
C1536 C1541 1.425 . S
C1536 C1543 1.409 . S
C1537 H1529 0.930 . S
C1537 C1535 1.419 . S
C1537 C1538 1.362 . S
C1538 H1530 0.930 . S
C1538 C1537 1.362 . S
C1538 C1541 1.409 . S
C1539 H1531 0.930 . S
C1539 C1540 1.355 . S
C1539 C1541 1.415 . S
C1540 C1539 1.355 . S
C1540 C1542 1.419 . S
C1541 C1536 1.425 . S
C1541 C1538 1.409 . S
C1541 C1539 1.415 . S
C1542 H1532 0.930 . S
C1542 C1540 1.419 . S
C1542 C1543 1.362 . S
C1543 H1533 0.930 . S
C1543 C1536 1.409 . S
C1543 C1542 1.362 . S
H1544 C1550 0.930 . S
H1545 C1553 0.930 . S
H1546 C1554 0.930 . S
H1547 C1555 0.930 . S
H1548 C1558 0.930 . S
H1549 C1559 0.930 . S
C1550 H1544 0.930 . S
C1550 C1551 1.355 . S
C1550 C1552 1.415 . S
C1551 C1550 1.355 . S
C1551 C1553 1.419 . S
C1552 C1550 1.415 . S
C1552 C1557 1.425 . S
C1552 C1559 1.409 . S
C1553 H1545 0.930 . S
C1553 C1551 1.419 . S
C1553 C1554 1.362 . S
C1554 H1546 0.930 . S
C1554 C1553 1.362 . S
C1554 C1557 1.409 . S
C1555 H1547 0.930 . S
C1555 C1556 1.355 . S
C1555 C1557 1.415 . S
C1556 C1555 1.355 . S
C1556 C1558 1.419 . S
C1557 C1552 1.425 . S
C1557 C1554 1.409 . S
C1557 C1555 1.415 . S
C1558 H1548 0.930 . S
C1558 C1556 1.419 . S
C1558 C1559 1.362 . S
C1559 H1549 0.930 . S
C1559 C1552 1.409 . S
C1559 C1558 1.362 . S
H1560 C1566 0.930 . S
H1561 C1569 0.930 . S
H1562 C1570 0.930 . S
H1563 C1571 0.930 . S
H1564 C1574 0.930 . S
H1565 C1575 0.930 . S
C1566 H1560 0.930 . S
C1566 C1567 1.355 . S
C1566 C1568 1.415 . S
C1567 C1566 1.355 . S
C1567 C1569 1.419 . S
C1568 C1566 1.415 . S
C1568 C1573 1.425 . S
C1568 C1575 1.409 . S
C1569 H1561 0.930 . S
C1569 C1567 1.419 . S
C1569 C1570 1.362 . S
C1570 H1562 0.930 . S
C1570 C1569 1.362 . S
C1570 C1573 1.409 . S
C1571 H1563 0.930 . S
C1571 C1572 1.355 . S
C1571 C1573 1.415 . S
C1572 C1571 1.355 . S
C1572 C1574 1.419 . S
C1573 C1568 1.425 . S
C1573 C1570 1.409 . S
C1573 C1571 1.415 . S
C1574 H1564 0.930 . S
C1574 C1572 1.419 . S
C1574 C1575 1.362 . S
C1575 H1565 0.930 . S
C1575 C1568 1.409 . S
C1575 C1574 1.362 . S
H1576 C1582 0.930 . S
H1577 C1585 0.930 . S
H1578 C1586 0.930 . S
H1579 C1587 0.930 . S
H1580 C1590 0.930 1_455 S
H1581 C1591 0.930 . S
C1582 H1576 0.930 . S
C1582 C1583 1.355 . S
C1582 C1584 1.415 . S
C1583 C1582 1.355 . S
C1583 C1585 1.419 . S
C1584 C1582 1.415 . S
C1584 C1589 1.425 . S
C1584 C1591 1.409 . S
C1585 H1577 0.930 . S
C1585 C1583 1.419 . S
C1585 C1586 1.362 . S
C1586 H1578 0.930 . S
C1586 C1585 1.362 . S
C1586 C1589 1.409 . S
C1587 H1579 0.930 . S
C1587 C1588 1.355 . S
C1587 C1589 1.415 . S
C1588 C1587 1.355 . S
C1588 C1590 1.419 . S
C1589 C1584 1.425 . S
C1589 C1586 1.409 . S
C1589 C1587 1.415 . S
C1590 H1580 0.930 1_655 S
C1590 C1588 1.419 . S
C1590 C1591 1.362 . S
C1591 H1581 0.930 . S
C1591 C1584 1.409 . S
C1591 C1590 1.362 . S
H1592 C1598 0.930 . S
H1593 C1601 0.930 . S
H1594 C1602 0.930 . S
H1595 C1603 0.930 . S
H1596 C1606 0.930 . S
H1597 C1607 0.930 . S
C1598 H1592 0.930 . S
C1598 C1599 1.355 . S
C1598 C1600 1.415 . S
C1599 C1598 1.355 . S
C1599 C1601 1.419 . S
C1600 C1598 1.415 . S
C1600 C1605 1.425 . S
C1600 C1607 1.409 . S
C1601 H1593 0.930 . S
C1601 C1599 1.419 . S
C1601 C1602 1.362 . S
C1602 H1594 0.930 . S
C1602 C1601 1.362 . S
C1602 C1605 1.409 . S
C1603 H1595 0.930 . S
C1603 C1604 1.355 . S
C1603 C1605 1.415 . S
C1604 C1603 1.355 . S
C1604 C1606 1.419 . S
C1605 C1600 1.425 . S
C1605 C1602 1.409 . S
C1605 C1603 1.415 . S
C1606 H1596 0.930 . S
C1606 C1604 1.419 . S
C1606 C1607 1.362 . S
C1607 H1597 0.930 . S
C1607 C1600 1.409 . S
C1607 C1606 1.362 . S
H1608 C1614 0.930 . S
H1609 C1617 0.930 . S
H1610 C1618 0.930 . S
H1611 C1619 0.930 . S
H1612 C1622 0.930 . S
H1613 C1623 0.930 . S
C1614 H1608 0.930 . S
C1614 C1615 1.355 . S
C1614 C1616 1.415 . S
C1615 C1614 1.355 . S
C1615 C1617 1.419 . S
C1616 C1614 1.415 . S
C1616 C1621 1.425 . S
C1616 C1623 1.409 . S
C1617 H1609 0.930 . S
C1617 C1615 1.419 . S
C1617 C1618 1.362 . S
C1618 H1610 0.930 . S
C1618 C1617 1.362 . S
C1618 C1621 1.409 . S
C1619 H1611 0.930 . S
C1619 C1620 1.355 . S
C1619 C1621 1.415 . S
C1620 C1619 1.355 . S
C1620 C1622 1.419 . S
C1621 C1616 1.425 . S
C1621 C1618 1.409 . S
C1621 C1619 1.415 . S
C1622 H1612 0.930 . S
C1622 C1620 1.419 . S
C1622 C1623 1.362 . S
C1623 H1613 0.930 . S
C1623 C1616 1.409 . S
C1623 C1622 1.362 . S
H1624 C1630 0.930 . S
H1625 C1633 0.930 . S
H1626 C1634 0.930 . S
H1627 C1635 0.930 . S
H1628 C1638 0.930 . S
H1629 C1639 0.930 . S
C1630 H1624 0.930 . S
C1630 C1631 1.355 . S
C1630 C1632 1.415 . S
C1631 C1630 1.355 . S
C1631 C1633 1.419 . S
C1632 C1630 1.415 . S
C1632 C1637 1.425 . S
C1632 C1639 1.409 . S
C1633 H1625 0.930 . S
C1633 C1631 1.419 . S
C1633 C1634 1.362 . S
C1634 H1626 0.930 . S
C1634 C1633 1.362 . S
C1634 C1637 1.409 . S
C1635 H1627 0.930 . S
C1635 C1636 1.355 . S
C1635 C1637 1.415 . S
C1636 C1635 1.355 . S
C1636 C1638 1.419 . S
C1637 C1632 1.425 . S
C1637 C1634 1.409 . S
C1637 C1635 1.415 . S
C1638 H1628 0.930 . S
C1638 C1636 1.419 . S
C1638 C1639 1.362 . S
C1639 H1629 0.930 . S
C1639 C1632 1.409 . S
C1639 C1638 1.362 . S
H1640 C1646 0.930 . S
H1641 C1649 0.930 . S
H1642 C1650 0.930 . S
H1643 C1651 0.930 . S
H1644 C1654 0.930 . S
H1645 C1655 0.930 . S
C1646 H1640 0.930 . S
C1646 C1647 1.355 . S
C1646 C1648 1.415 . S
C1647 C1646 1.355 . S
C1647 C1649 1.419 . S
C1648 C1646 1.415 . S
C1648 C1653 1.425 . S
C1648 C1655 1.409 . S
C1649 H1641 0.930 . S
C1649 C1647 1.419 . S
C1649 C1650 1.362 . S
C1650 H1642 0.930 . S
C1650 C1649 1.362 . S
C1650 C1653 1.409 . S
C1651 H1643 0.930 . S
C1651 C1652 1.355 . S
C1651 C1653 1.415 . S
C1652 C1651 1.355 . S
C1652 C1654 1.419 . S
C1653 C1648 1.425 . S
C1653 C1650 1.409 . S
C1653 C1651 1.415 . S
C1654 H1644 0.930 . S
C1654 C1652 1.419 . S
C1654 C1655 1.362 . S
C1655 H1645 0.930 . S
C1655 C1648 1.409 . S
C1655 C1654 1.362 . S
H1656 C1662 0.930 . S
H1657 C1665 0.930 . S
H1658 C1666 0.930 . S
H1659 C1667 0.930 . S
H1660 C1670 0.930 . S
H1661 C1671 0.930 . S
C1662 H1656 0.930 . S
C1662 C1663 1.355 . S
C1662 C1664 1.415 . S
C1663 C1662 1.355 . S
C1663 C1665 1.419 . S
C1664 C1662 1.415 . S
C1664 C1669 1.425 . S
C1664 C1671 1.409 . S
C1665 H1657 0.930 . S
C1665 C1663 1.419 . S
C1665 C1666 1.362 . S
C1666 H1658 0.930 . S
C1666 C1665 1.362 . S
C1666 C1669 1.409 . S
C1667 H1659 0.930 . S
C1667 C1668 1.355 . S
C1667 C1669 1.415 . S
C1668 C1667 1.355 . S
C1668 C1670 1.419 . S
C1669 C1664 1.425 . S
C1669 C1666 1.409 . S
C1669 C1667 1.415 . S
C1670 H1660 0.930 . S
C1670 C1668 1.419 . S
C1670 C1671 1.362 . S
C1671 H1661 0.930 . S
C1671 C1664 1.409 . S
C1671 C1670 1.362 . S
H1672 C1678 0.930 . S
H1673 C1681 0.930 . S
H1674 C1682 0.930 . S
H1675 C1683 0.930 . S
H1676 C1686 0.930 . S
H1677 C1687 0.930 . S
C1678 H1672 0.930 . S
C1678 C1679 1.355 . S
C1678 C1680 1.415 . S
C1679 C1678 1.355 . S
C1679 C1681 1.419 . S
C1680 C1678 1.415 . S
C1680 C1685 1.425 . S
C1680 C1687 1.409 . S
C1681 H1673 0.930 . S
C1681 C1679 1.419 . S
C1681 C1682 1.362 . S
C1682 H1674 0.930 . S
C1682 C1681 1.362 . S
C1682 C1685 1.409 . S
C1683 H1675 0.930 . S
C1683 C1684 1.355 . S
C1683 C1685 1.415 . S
C1684 C1683 1.355 . S
C1684 C1686 1.419 . S
C1685 C1680 1.425 . S
C1685 C1682 1.409 . S
C1685 C1683 1.415 . S
C1686 H1676 0.930 . S
C1686 C1684 1.419 . S
C1686 C1687 1.362 . S
C1687 H1677 0.930 . S
C1687 C1680 1.409 . S
C1687 C1686 1.362 . S
H1688 C1694 0.930 . S
H1689 C1697 0.930 . S
H1690 C1698 0.930 . S
H1691 C1699 0.930 . S
H1692 C1702 0.930 . S
H1693 C1703 0.930 . S
C1694 H1688 0.930 . S
C1694 C1695 1.355 . S
C1694 C1696 1.415 . S
C1695 C1694 1.355 . S
C1695 C1697 1.419 . S
C1696 C1694 1.415 . S
C1696 C1701 1.425 . S
C1696 C1703 1.409 . S
C1697 H1689 0.930 . S
C1697 C1695 1.419 . S
C1697 C1698 1.362 . S
C1698 H1690 0.930 . S
C1698 C1697 1.362 . S
C1698 C1701 1.409 . S
C1699 H1691 0.930 . S
C1699 C1700 1.355 . S
C1699 C1701 1.415 . S
C1700 C1699 1.355 . S
C1700 C1702 1.419 . S
C1701 C1696 1.425 . S
C1701 C1698 1.409 . S
C1701 C1699 1.415 . S
C1702 H1692 0.930 . S
C1702 C1700 1.419 . S
C1702 C1703 1.362 . S
C1703 H1693 0.930 . S
C1703 C1696 1.409 . S
C1703 C1702 1.362 . S
H1704 C1710 0.930 . S
H1705 C1713 0.930 . S
H1706 C1714 0.930 . S
H1707 C1715 0.930 . S
H1708 C1718 0.930 . S
H1709 C1719 0.930 . S
C1710 H1704 0.930 . S
C1710 C1711 1.355 . S
C1710 C1712 1.415 . S
C1711 C1710 1.355 . S
C1711 C1713 1.419 . S
C1712 C1710 1.415 . S
C1712 C1717 1.425 . S
C1712 C1719 1.409 . S
C1713 H1705 0.930 . S
C1713 C1711 1.419 . S
C1713 C1714 1.362 . S
C1714 H1706 0.930 . S
C1714 C1713 1.362 . S
C1714 C1717 1.409 . S
C1715 H1707 0.930 . S
C1715 C1716 1.355 . S
C1715 C1717 1.415 . S
C1716 C1715 1.355 . S
C1716 C1718 1.419 . S
C1717 C1712 1.425 . S
C1717 C1714 1.409 . S
C1717 C1715 1.415 . S
C1718 H1708 0.930 . S
C1718 C1716 1.419 . S
C1718 C1719 1.362 . S
C1719 H1709 0.930 . S
C1719 C1712 1.409 . S
C1719 C1718 1.362 . S
H1720 C1726 0.930 . S
H1721 C1729 0.930 . S
H1722 C1730 0.930 . S
H1723 C1731 0.930 . S
H1724 C1734 0.930 . S
H1725 C1735 0.930 . S
C1726 H1720 0.930 . S
C1726 C1727 1.355 1_556 S
C1726 C1728 1.415 1_556 S
C1727 C1726 1.355 1_554 S
C1727 C1729 1.419 . S
C1728 C1726 1.415 1_554 S
C1728 C1733 1.425 . S
C1728 C1735 1.409 1_554 S
C1729 H1721 0.930 . S
C1729 C1727 1.419 . S
C1729 C1730 1.362 . S
C1730 H1722 0.930 . S
C1730 C1729 1.362 . S
C1730 C1733 1.409 . S
C1731 H1723 0.930 . S
C1731 C1732 1.355 . S
C1731 C1733 1.415 . S
C1732 C1731 1.355 . S
C1732 C1734 1.419 1_554 S
C1733 C1728 1.425 . S
C1733 C1730 1.409 . S
C1733 C1731 1.415 . S
C1734 H1724 0.930 . S
C1734 C1732 1.419 1_556 S
C1734 C1735 1.362 . S
C1735 H1725 0.930 . S
C1735 C1728 1.409 1_556 S
C1735 C1734 1.362 . S
H1736 C1742 0.930 . S
H1737 C1745 0.930 . S
H1738 C1746 0.930 . S
H1739 C1747 0.930 . S
H1740 C1750 0.930 . S
H1741 C1751 0.930 . S
C1742 H1736 0.930 . S
C1742 C1743 1.355 . S
C1742 C1744 1.415 . S
C1743 C1742 1.355 . S
C1743 C1745 1.419 . S
C1744 C1742 1.415 . S
C1744 C1749 1.425 . S
C1744 C1751 1.409 . S
C1745 H1737 0.930 . S
C1745 C1743 1.419 . S
C1745 C1746 1.362 . S
C1746 H1738 0.930 . S
C1746 C1745 1.362 . S
C1746 C1749 1.409 . S
C1747 H1739 0.930 . S
C1747 C1748 1.355 . S
C1747 C1749 1.415 . S
C1748 C1747 1.355 . S
C1748 C1750 1.419 . S
C1749 C1744 1.425 . S
C1749 C1746 1.409 . S
C1749 C1747 1.415 . S
C1750 H1740 0.930 . S
C1750 C1748 1.419 . S
C1750 C1751 1.362 . S
C1751 H1741 0.930 . S
C1751 C1744 1.409 . S
C1751 C1750 1.362 . S
H1752 C1758 0.930 . S
H1753 C1761 0.931 . S
H1754 C1762 0.930 . S
H1755 C1763 0.930 . S
H1756 C1766 0.930 . S
H1757 C1767 0.930 . S
C1758 H1752 0.930 . S
C1758 C1759 1.357 . S
C1758 C1760 1.415 . S
C1759 C1758 1.357 . S
C1759 C1761 1.418 1_556 S
C1760 C1758 1.415 . S
C1760 C1765 1.425 . S
C1760 C1767 1.409 . S
C1761 H1753 0.931 . S
C1761 C1759 1.418 1_554 S
C1761 C1762 1.362 1_554 S
C1762 H1754 0.930 . S
C1762 C1761 1.362 1_556 S
C1762 C1765 1.410 . S
C1763 H1755 0.930 . S
C1763 C1764 1.355 . S
C1763 C1765 1.415 . S
C1764 C1763 1.355 . S
C1764 C1766 1.419 . S
C1765 C1760 1.425 . S
C1765 C1762 1.410 . S
C1765 C1763 1.415 . S
C1766 H1756 0.930 . S
C1766 C1764 1.419 . S
C1766 C1767 1.362 . S
C1767 H1757 0.930 . S
C1767 C1760 1.409 . S
C1767 C1766 1.362 . S
H1768 C1774 0.930 . S
H1769 C1777 0.930 . S
H1770 C1778 0.930 . S
H1771 C1779 0.930 . S
H1772 C1782 0.930 . S
H1773 C1783 0.930 . S
C1774 H1768 0.930 . S
C1774 C1775 1.355 . S
C1774 C1776 1.415 . S
C1775 C1774 1.355 . S
C1775 C1777 1.419 . S
C1776 C1774 1.415 . S
C1776 C1781 1.425 . S
C1776 C1783 1.409 . S
C1777 H1769 0.930 . S
C1777 C1775 1.419 . S
C1777 C1778 1.362 . S
C1778 H1770 0.930 . S
C1778 C1777 1.362 . S
C1778 C1781 1.409 . S
C1779 H1771 0.930 . S
C1779 C1780 1.355 . S
C1779 C1781 1.415 . S
C1780 C1779 1.355 . S
C1780 C1782 1.419 . S
C1781 C1776 1.425 . S
C1781 C1778 1.409 . S
C1781 C1779 1.415 . S
C1782 H1772 0.930 . S
C1782 C1780 1.419 . S
C1782 C1783 1.362 . S
C1783 H1773 0.930 . S
C1783 C1776 1.409 . S
C1783 C1782 1.362 . S
H1784 C1790 0.930 . S
H1785 C1793 0.930 . S
H1786 C1794 0.930 . S
H1787 C1795 0.930 . S
H1788 C1798 0.930 . S
H1789 C1799 0.930 . S
C1790 H1784 0.930 . S
C1790 C1791 1.355 . S
C1790 C1792 1.415 . S
C1791 C1790 1.355 . S
C1791 C1793 1.419 . S
C1792 C1790 1.415 . S
C1792 C1797 1.425 . S
C1792 C1799 1.409 . S
C1793 H1785 0.930 . S
C1793 C1791 1.419 . S
C1793 C1794 1.362 . S
C1794 H1786 0.930 . S
C1794 C1793 1.362 . S
C1794 C1797 1.409 . S
C1795 H1787 0.930 . S
C1795 C1796 1.355 . S
C1795 C1797 1.415 . S
C1796 C1795 1.355 . S
C1796 C1798 1.419 . S
C1797 C1792 1.425 . S
C1797 C1794 1.409 . S
C1797 C1795 1.415 . S
C1798 H1788 0.930 . S
C1798 C1796 1.419 . S
C1798 C1799 1.362 . S
C1799 H1789 0.930 . S
C1799 C1792 1.409 . S
C1799 C1798 1.362 . S
H1800 C1806 0.930 . S
H1801 C1809 0.930 . S
H1802 C1810 0.930 . S
H1803 C1811 0.930 . S
H1804 C1814 0.930 . S
H1805 C1815 0.930 . S
C1806 H1800 0.930 . S
C1806 C1807 1.355 . S
C1806 C1808 1.415 . S
C1807 C1806 1.355 . S
C1807 C1809 1.419 . S
C1808 C1806 1.415 . S
C1808 C1813 1.425 . S
C1808 C1815 1.409 . S
C1809 H1801 0.930 . S
C1809 C1807 1.419 . S
C1809 C1810 1.362 . S
C1810 H1802 0.930 . S
C1810 C1809 1.362 . S
C1810 C1813 1.409 . S
C1811 H1803 0.930 . S
C1811 C1812 1.355 . S
C1811 C1813 1.415 . S
C1812 C1811 1.355 . S
C1812 C1814 1.419 . S
C1813 C1808 1.425 . S
C1813 C1810 1.409 . S
C1813 C1811 1.415 . S
C1814 H1804 0.930 . S
C1814 C1812 1.419 . S
C1814 C1815 1.362 . S
C1815 H1805 0.930 . S
C1815 C1808 1.409 . S
C1815 C1814 1.362 . S
H1816 C1822 0.930 . S
H1817 C1825 0.930 . S
H1818 C1826 0.930 . S
H1819 C1827 0.930 . S
H1820 C1830 0.930 . S
H1821 C1831 0.930 . S
C1822 H1816 0.930 . S
C1822 C1823 1.355 . S
C1822 C1824 1.415 . S
C1823 C1822 1.355 . S
C1823 C1825 1.419 . S
C1824 C1822 1.415 . S
C1824 C1829 1.425 . S
C1824 C1831 1.409 . S
C1825 H1817 0.930 . S
C1825 C1823 1.419 . S
C1825 C1826 1.362 . S
C1826 H1818 0.930 . S
C1826 C1825 1.362 . S
C1826 C1829 1.409 . S
C1827 H1819 0.930 . S
C1827 C1828 1.355 . S
C1827 C1829 1.415 . S
C1828 C1827 1.355 . S
C1828 C1830 1.419 . S
C1829 C1824 1.425 . S
C1829 C1826 1.409 . S
C1829 C1827 1.415 . S
C1830 H1820 0.930 . S
C1830 C1828 1.419 . S
C1830 C1831 1.362 . S
C1831 H1821 0.930 . S
C1831 C1824 1.409 . S
C1831 C1830 1.362 . S
H1832 C1838 0.930 . S
H1833 C1841 0.930 . S
H1834 C1842 0.930 . S
H1835 C1843 0.930 . S
H1836 C1846 0.930 . S
H1837 C1847 0.930 . S
C1838 H1832 0.930 . S
C1838 C1839 1.355 . S
C1838 C1840 1.415 . S
C1839 C1838 1.355 . S
C1839 C1841 1.419 1_455 S
C1840 C1838 1.415 . S
C1840 C1845 1.436 . S
C1840 C1847 1.409 . S
C1841 H1833 0.930 . S
C1841 C1839 1.419 1_655 S
C1841 C1842 1.362 . S
C1842 H1834 0.930 . S
C1842 C1841 1.362 . S
C1842 C1845 1.403 1_655 S
C1843 H1835 0.930 . S
C1843 C1844 1.355 1_655 S
C1843 C1845 1.411 1_655 S
C1844 C1843 1.355 1_455 S
C1844 C1846 1.419 . S
C1845 C1840 1.436 . S
C1845 C1842 1.403 1_455 S
C1845 C1843 1.411 1_455 S
C1846 H1836 0.930 . S
C1846 C1844 1.419 . S
C1846 C1847 1.362 . S
C1847 H1837 0.930 . S
C1847 C1840 1.409 . S
C1847 C1846 1.362 . S
H1848 C1854 0.930 . S
H1849 C1857 0.930 . S
H1850 C1858 0.930 . S
H1851 C1859 0.930 . S
H1852 C1862 0.930 . S
H1853 C1863 0.930 . S
C1854 H1848 0.930 . S
C1854 C1855 1.355 . S
C1854 C1856 1.415 . S
C1855 C1854 1.355 . S
C1855 C1857 1.419 . S
C1856 C1854 1.415 . S
C1856 C1861 1.425 . S
C1856 C1863 1.409 . S
C1857 H1849 0.930 . S
C1857 C1855 1.419 . S
C1857 C1858 1.362 . S
C1858 H1850 0.930 . S
C1858 C1857 1.362 . S
C1858 C1861 1.409 . S
C1859 H1851 0.930 . S
C1859 C1860 1.355 . S
C1859 C1861 1.415 . S
C1860 C1859 1.355 . S
C1860 C1862 1.419 . S
C1861 C1856 1.425 . S
C1861 C1858 1.409 . S
C1861 C1859 1.415 . S
C1862 H1852 0.930 . S
C1862 C1860 1.419 . S
C1862 C1863 1.362 . S
C1863 H1853 0.930 . S
C1863 C1856 1.409 . S
C1863 C1862 1.362 . S
H1864 C1870 0.930 . S
H1865 C1873 0.930 . S
H1866 C1874 0.930 . S
H1867 C1875 0.930 . S
H1868 C1878 0.930 . S
H1869 C1879 0.930 . S
C1870 H1864 0.930 . S
C1870 C1871 1.355 . S
C1870 C1872 1.415 . S
C1871 C1870 1.355 . S
C1871 C1873 1.419 . S
C1872 C1870 1.415 . S
C1872 C1877 1.425 . S
C1872 C1879 1.409 . S
C1873 H1865 0.930 . S
C1873 C1871 1.419 . S
C1873 C1874 1.362 . S
C1874 H1866 0.930 . S
C1874 C1873 1.362 . S
C1874 C1877 1.409 . S
C1875 H1867 0.930 . S
C1875 C1876 1.355 . S
C1875 C1877 1.415 . S
C1876 C1875 1.355 . S
C1876 C1878 1.419 . S
C1877 C1872 1.425 . S
C1877 C1874 1.409 . S
C1877 C1875 1.415 . S
C1878 H1868 0.930 . S
C1878 C1876 1.419 . S
C1878 C1879 1.362 . S
C1879 H1869 0.930 . S
C1879 C1872 1.409 . S
C1879 C1878 1.362 . S
H1880 C1886 0.930 . S
H1881 C1889 0.930 . S
H1882 C1890 0.930 . S
H1883 C1891 0.930 . S
H1884 C1894 0.930 . S
H1885 C1895 0.930 . S
C1886 H1880 0.930 . S
C1886 C1887 1.355 . S
C1886 C1888 1.415 . S
C1887 C1886 1.355 . S
C1887 C1889 1.419 . S
C1888 C1886 1.415 . S
C1888 C1893 1.425 . S
C1888 C1895 1.409 . S
C1889 H1881 0.930 . S
C1889 C1887 1.419 . S
C1889 C1890 1.362 . S
C1890 H1882 0.930 . S
C1890 C1889 1.362 . S
C1890 C1893 1.409 . S
C1891 H1883 0.930 . S
C1891 C1892 1.355 . S
C1891 C1893 1.415 . S
C1892 C1891 1.355 . S
C1892 C1894 1.419 . S
C1893 C1888 1.425 . S
C1893 C1890 1.409 . S
C1893 C1891 1.415 . S
C1894 H1884 0.930 . S
C1894 C1892 1.419 . S
C1894 C1895 1.362 . S
C1895 H1885 0.930 . S
C1895 C1888 1.409 . S
C1895 C1894 1.362 . S
H1896 C1902 0.930 . S
H1897 C1905 0.930 . S
H1898 C1906 0.930 . S
H1899 C1907 0.930 . S
H1900 C1910 0.930 . S
H1901 C1911 0.930 . S
C1902 H1896 0.930 . S
C1902 C1903 1.355 1_655 S
C1902 C1904 1.415 . S
C1903 C1902 1.355 1_455 S
C1903 C1905 1.419 . S
C1904 C1902 1.415 . S
C1904 C1909 1.425 1_655 S
C1904 C1911 1.409 . S
C1905 H1897 0.930 . S
C1905 C1903 1.419 . S
C1905 C1906 1.362 . S
C1906 H1898 0.930 . S
C1906 C1905 1.362 . S
C1906 C1909 1.409 . S
C1907 H1899 0.930 . S
C1907 C1908 1.355 1_455 S
C1907 C1909 1.415 . S
C1908 C1907 1.355 1_655 S
C1908 C1910 1.419 . S
C1909 C1904 1.425 1_455 S
C1909 C1906 1.409 . S
C1909 C1907 1.415 . S
C1910 H1900 0.930 . S
C1910 C1908 1.419 . S
C1910 C1911 1.362 . S
C1911 H1901 0.930 . S
C1911 C1904 1.409 . S
C1911 C1910 1.362 . S
H1912 C1918 0.930 . S
H1913 C1921 0.930 . S
H1914 C1922 0.930 . S
H1915 C1923 0.930 . S
H1916 C1926 0.930 . S
H1917 C1927 0.930 . S
C1918 H1912 0.930 . S
C1918 C1919 1.355 . S
C1918 C1920 1.415 . S
C1919 C1918 1.355 . S
C1919 C1921 1.419 . S
C1920 C1918 1.415 . S
C1920 C1925 1.425 . S
C1920 C1927 1.409 . S
C1921 H1913 0.930 . S
C1921 C1919 1.419 . S
C1921 C1922 1.362 . S
C1922 H1914 0.930 . S
C1922 C1921 1.362 . S
C1922 C1925 1.409 . S
C1923 H1915 0.930 . S
C1923 C1924 1.355 . S
C1923 C1925 1.415 . S
C1924 C1923 1.355 . S
C1924 C1926 1.419 . S
C1925 C1920 1.425 . S
C1925 C1922 1.409 . S
C1925 C1923 1.415 . S
C1926 H1916 0.930 . S
C1926 C1924 1.419 . S
C1926 C1927 1.362 . S
C1927 H1917 0.930 . S
C1927 C1920 1.409 . S
C1927 C1926 1.362 . S
H1928 C1934 0.930 . S
H1929 C1937 0.930 . S
H1930 C1938 0.930 . S
H1931 C1939 0.930 . S
H1932 C1942 0.930 . S
H1933 C1943 0.930 . S
C1934 H1928 0.930 . S
C1934 C1935 1.355 . S
C1934 C1936 1.415 . S
C1935 C1934 1.355 . S
C1935 C1937 1.419 . S
C1936 C1934 1.415 . S
C1936 C1941 1.425 . S
C1936 C1943 1.409 . S
C1937 H1929 0.930 . S
C1937 C1935 1.419 . S
C1937 C1938 1.362 . S
C1938 H1930 0.930 . S
C1938 C1937 1.362 . S
C1938 C1941 1.409 . S
C1939 H1931 0.930 . S
C1939 C1940 1.355 . S
C1939 C1941 1.415 . S
C1940 C1939 1.355 . S
C1940 C1942 1.419 . S
C1941 C1936 1.425 . S
C1941 C1938 1.409 . S
C1941 C1939 1.415 . S
C1942 H1932 0.930 . S
C1942 C1940 1.419 . S
C1942 C1943 1.362 . S
C1943 H1933 0.930 . S
C1943 C1936 1.409 . S
C1943 C1942 1.362 . S
H1944 C1950 0.930 . S
H1945 C1953 0.930 . S
H1946 C1954 0.930 . S
H1947 C1955 0.930 . S
H1948 C1958 0.930 . S
H1949 C1959 0.930 . S
C1950 H1944 0.930 . S
C1950 C1951 1.355 . S
C1950 C1952 1.415 . S
C1951 C1950 1.355 . S
C1951 C1953 1.419 . S
C1952 C1950 1.415 . S
C1952 C1957 1.425 . S
C1952 C1959 1.409 . S
C1953 H1945 0.930 . S
C1953 C1951 1.419 . S
C1953 C1954 1.362 . S
C1954 H1946 0.930 . S
C1954 C1953 1.362 . S
C1954 C1957 1.409 . S
C1955 H1947 0.930 . S
C1955 C1956 1.355 . S
C1955 C1957 1.415 . S
C1956 C1955 1.355 . S
C1956 C1958 1.419 . S
C1957 C1952 1.425 . S
C1957 C1954 1.409 . S
C1957 C1955 1.415 . S
C1958 H1948 0.930 . S
C1958 C1956 1.419 . S
C1958 C1959 1.362 . S
C1959 H1949 0.930 . S
C1959 C1952 1.409 . S
C1959 C1958 1.362 . S
H1960 C1966 0.930 . S
H1961 C1969 0.930 . S
H1962 C1970 0.930 . S
H1963 C1971 0.930 . S
H1964 C1974 0.930 . S
H1965 C1975 0.930 . S
C1966 H1960 0.930 . S
C1966 C1967 1.355 . S
C1966 C1968 1.415 . S
C1967 C1966 1.355 . S
C1967 C1969 1.419 . S
C1968 C1966 1.415 . S
C1968 C1973 1.425 . S
C1968 C1975 1.409 . S
C1969 H1961 0.930 . S
C1969 C1967 1.419 . S
C1969 C1970 1.362 . S
C1970 H1962 0.930 . S
C1970 C1969 1.362 . S
C1970 C1973 1.409 . S
C1971 H1963 0.930 . S
C1971 C1972 1.355 . S
C1971 C1973 1.415 . S
C1972 C1971 1.355 . S
C1972 C1974 1.419 . S
C1973 C1968 1.425 . S
C1973 C1970 1.409 . S
C1973 C1971 1.415 . S
C1974 H1964 0.930 . S
C1974 C1972 1.419 . S
C1974 C1975 1.362 . S
C1975 H1965 0.930 . S
C1975 C1968 1.409 . S
C1975 C1974 1.362 . S
H1976 C1982 0.930 . S
H1977 C1985 0.930 . S
H1978 C1986 0.930 . S
H1979 C1987 0.930 . S
H1980 C1990 0.930 . S
H1981 C1991 0.930 . S
C1982 H1976 0.930 . S
C1982 C1983 1.355 . S
C1982 C1984 1.415 . S
C1983 C1982 1.355 . S
C1983 C1985 1.419 . S
C1984 C1982 1.415 . S
C1984 C1989 1.425 . S
C1984 C1991 1.409 . S
C1985 H1977 0.930 . S
C1985 C1983 1.419 . S
C1985 C1986 1.362 . S
C1986 H1978 0.930 . S
C1986 C1985 1.362 . S
C1986 C1989 1.409 . S
C1987 H1979 0.930 . S
C1987 C1988 1.355 . S
C1987 C1989 1.415 . S
C1988 C1987 1.355 . S
C1988 C1990 1.419 . S
C1989 C1984 1.425 . S
C1989 C1986 1.409 . S
C1989 C1987 1.415 . S
C1990 H1980 0.930 . S
C1990 C1988 1.419 . S
C1990 C1991 1.362 . S
C1991 H1981 0.930 . S
C1991 C1984 1.409 . S
C1991 C1990 1.362 . S
H1992 C1998 0.930 . S
H1993 C2001 0.930 . S
H1994 C2002 0.930 . S
H1995 C2003 0.930 . S
H1996 C2006 0.930 . S
H1997 C2007 0.930 . S
C1998 H1992 0.930 . S
C1998 C1999 1.355 . S
C1998 C2000 1.415 . S
C1999 C1998 1.355 . S
C1999 C2001 1.419 . S
C2000 C1998 1.415 . S
C2000 C2005 1.425 . S
C2000 C2007 1.409 . S
C2001 H1993 0.930 . S
C2001 C1999 1.419 . S
C2001 C2002 1.362 . S
C2002 H1994 0.930 . S
C2002 C2001 1.362 . S
C2002 C2005 1.409 . S
C2003 H1995 0.930 . S
C2003 C2004 1.355 . S
C2003 C2005 1.415 . S
C2004 C2003 1.355 . S
C2004 C2006 1.419 . S
C2005 C2000 1.425 . S
C2005 C2002 1.409 . S
C2005 C2003 1.415 . S
C2006 H1996 0.930 . S
C2006 C2004 1.419 . S
C2006 C2007 1.362 . S
C2007 H1997 0.930 . S
C2007 C2000 1.409 . S
C2007 C2006 1.362 . S
H2008 C2014 0.930 . S
H2009 C2017 0.930 . S
H2010 C2018 0.930 . S
H2011 C2019 0.930 . S
H2012 C2022 0.930 . S
H2013 C2023 0.930 . S
C2014 H2008 0.930 . S
C2014 C2015 1.355 . S
C2014 C2016 1.415 . S
C2015 C2014 1.355 . S
C2015 C2017 1.419 . S
C2016 C2014 1.415 . S
C2016 C2021 1.425 . S
C2016 C2023 1.409 . S
C2017 H2009 0.930 . S
C2017 C2015 1.419 . S
C2017 C2018 1.362 . S
C2018 H2010 0.930 . S
C2018 C2017 1.362 . S
C2018 C2021 1.409 . S
C2019 H2011 0.930 . S
C2019 C2020 1.355 . S
C2019 C2021 1.415 . S
C2020 C2019 1.355 . S
C2020 C2022 1.419 . S
C2021 C2016 1.425 . S
C2021 C2018 1.409 . S
C2021 C2019 1.415 . S
C2022 H2012 0.930 . S
C2022 C2020 1.419 . S
C2022 C2023 1.362 . S
C2023 H2013 0.930 . S
C2023 C2016 1.409 . S
C2023 C2022 1.362 . S
H2024 C2030 0.930 . S
H2025 C2033 0.930 . S
H2026 C2034 0.930 . S
H2027 C2035 0.930 . S
H2028 C2038 0.930 . S
H2029 C2039 0.930 . S
C2030 H2024 0.930 . S
C2030 C2031 1.355 . S
C2030 C2032 1.415 . S
C2031 C2030 1.355 . S
C2031 C2033 1.419 . S
C2032 C2030 1.415 . S
C2032 C2037 1.425 . S
C2032 C2039 1.409 . S
C2033 H2025 0.930 . S
C2033 C2031 1.419 . S
C2033 C2034 1.362 . S
C2034 H2026 0.930 . S
C2034 C2033 1.362 . S
C2034 C2037 1.409 . S
C2035 H2027 0.930 . S
C2035 C2036 1.355 . S
C2035 C2037 1.415 . S
C2036 C2035 1.355 . S
C2036 C2038 1.419 . S
C2037 C2032 1.425 . S
C2037 C2034 1.409 . S
C2037 C2035 1.415 . S
C2038 H2028 0.930 . S
C2038 C2036 1.419 . S
C2038 C2039 1.362 . S
C2039 H2029 0.930 . S
C2039 C2032 1.409 . S
C2039 C2038 1.362 . S
H2040 C2046 0.930 . S
H2041 C2049 0.930 . S
H2042 C2050 0.930 . S
H2043 C2051 0.930 . S
H2044 C2054 0.930 . S
H2045 C2055 0.930 . S
C2046 H2040 0.930 . S
C2046 C2047 1.355 . S
C2046 C2048 1.415 . S
C2047 C2046 1.355 . S
C2047 C2049 1.419 . S
C2048 C2046 1.415 . S
C2048 C2053 1.425 . S
C2048 C2055 1.409 . S
C2049 H2041 0.930 . S
C2049 C2047 1.419 . S
C2049 C2050 1.362 . S
C2050 H2042 0.930 . S
C2050 C2049 1.362 . S
C2050 C2053 1.409 . S
C2051 H2043 0.930 . S
C2051 C2052 1.355 . S
C2051 C2053 1.415 . S
C2052 C2051 1.355 . S
C2052 C2054 1.419 . S
C2053 C2048 1.425 . S
C2053 C2050 1.409 . S
C2053 C2051 1.415 . S
C2054 H2044 0.930 . S
C2054 C2052 1.419 . S
C2054 C2055 1.362 . S
C2055 H2045 0.930 . S
C2055 C2048 1.409 . S
C2055 C2054 1.362 . S
H2056 C2062 0.930 . S
H2057 C2065 0.930 . S
H2058 C2066 0.930 . S
H2059 C2067 0.930 . S
H2060 C2070 0.930 . S
H2061 C2071 0.930 . S
C2062 H2056 0.930 . S
C2062 C2063 1.355 . S
C2062 C2064 1.415 . S
C2063 C2062 1.355 . S
C2063 C2065 1.419 . S
C2064 C2062 1.415 . S
C2064 C2069 1.425 . S
C2064 C2071 1.409 . S
C2065 H2057 0.930 . S
C2065 C2063 1.419 . S
C2065 C2066 1.362 . S
C2066 H2058 0.930 . S
C2066 C2065 1.362 . S
C2066 C2069 1.409 . S
C2067 H2059 0.930 . S
C2067 C2068 1.355 . S
C2067 C2069 1.415 . S
C2068 C2067 1.355 . S
C2068 C2070 1.419 . S
C2069 C2064 1.425 . S
C2069 C2066 1.409 . S
C2069 C2067 1.415 . S
C2070 H2060 0.930 . S
C2070 C2068 1.419 . S
C2070 C2071 1.362 . S
C2071 H2061 0.930 . S
C2071 C2064 1.409 . S
C2071 C2070 1.362 . S
H2072 C2078 0.930 . S
H2073 C2081 0.930 . S
H2074 C2082 0.930 . S
H2075 C2083 0.930 . S
H2076 C2086 0.930 . S
H2077 C2087 0.930 . S
C2078 H2072 0.930 . S
C2078 C2079 1.355 . S
C2078 C2080 1.415 . S
C2079 C2078 1.355 . S
C2079 C2081 1.419 . S
C2080 C2078 1.415 . S
C2080 C2085 1.425 . S
C2080 C2087 1.409 . S
C2081 H2073 0.930 . S
C2081 C2079 1.419 . S
C2081 C2082 1.362 . S
C2082 H2074 0.930 . S
C2082 C2081 1.362 . S
C2082 C2085 1.409 . S
C2083 H2075 0.930 . S
C2083 C2084 1.355 . S
C2083 C2085 1.415 . S
C2084 C2083 1.355 . S
C2084 C2086 1.419 . S
C2085 C2080 1.425 . S
C2085 C2082 1.409 . S
C2085 C2083 1.415 . S
C2086 H2076 0.930 . S
C2086 C2084 1.419 . S
C2086 C2087 1.362 . S
C2087 H2077 0.930 . S
C2087 C2080 1.409 . S
C2087 C2086 1.362 . S
H2088 C2094 0.930 . S
H2089 C2097 0.930 . S
H2090 C2098 0.930 . S
H2091 C2099 0.930 . S
H2092 C2102 0.930 . S
H2093 C2103 0.930 . S
C2094 H2088 0.930 . S
C2094 C2095 1.355 . S
C2094 C2096 1.415 . S
C2095 C2094 1.355 . S
C2095 C2097 1.419 . S
C2096 C2094 1.415 . S
C2096 C2101 1.425 . S
C2096 C2103 1.409 . S
C2097 H2089 0.930 . S
C2097 C2095 1.419 . S
C2097 C2098 1.362 . S
C2098 H2090 0.930 . S
C2098 C2097 1.362 . S
C2098 C2101 1.409 . S
C2099 H2091 0.930 . S
C2099 C2100 1.355 . S
C2099 C2101 1.415 . S
C2100 C2099 1.355 . S
C2100 C2102 1.419 . S
C2101 C2096 1.425 . S
C2101 C2098 1.409 . S
C2101 C2099 1.415 . S
C2102 H2092 0.930 . S
C2102 C2100 1.419 . S
C2102 C2103 1.362 . S
C2103 H2093 0.930 . S
C2103 C2096 1.409 . S
C2103 C2102 1.362 . S
H2104 C2110 0.930 . S
H2105 C2113 0.930 . S
H2106 C2114 0.930 . S
H2107 C2115 0.930 . S
H2108 C2118 0.930 . S
H2109 C2119 0.930 . S
C2110 H2104 0.930 . S
C2110 C2111 1.355 1_556 S
C2110 C2112 1.415 . S
C2111 C2110 1.355 1_554 S
C2111 C2113 1.419 . S
C2112 C2110 1.415 . S
C2112 C2117 1.425 1_556 S
C2112 C2119 1.409 . S
C2113 H2105 0.930 . S
C2113 C2111 1.419 . S
C2113 C2114 1.362 . S
C2114 H2106 0.930 . S
C2114 C2113 1.362 . S
C2114 C2117 1.409 . S
C2115 H2107 0.930 . S
C2115 C2116 1.355 1_554 S
C2115 C2117 1.415 . S
C2116 C2115 1.355 1_556 S
C2116 C2118 1.419 . S
C2117 C2112 1.425 1_554 S
C2117 C2114 1.409 . S
C2117 C2115 1.415 . S
C2118 H2108 0.930 . S
C2118 C2116 1.419 . S
C2118 C2119 1.362 . S
C2119 H2109 0.930 . S
C2119 C2112 1.409 . S
C2119 C2118 1.362 . S
H2120 C2126 0.930 . S
H2121 C2129 0.930 . S
H2122 C2130 0.930 . S
H2123 C2131 0.930 . S
H2124 C2134 0.930 . S
H2125 C2135 0.930 . S
C2126 H2120 0.930 . S
C2126 C2127 1.355 . S
C2126 C2128 1.415 . S
C2127 C2126 1.355 . S
C2127 C2129 1.419 . S
C2128 C2126 1.415 . S
C2128 C2133 1.425 . S
C2128 C2135 1.409 . S
C2129 H2121 0.930 . S
C2129 C2127 1.419 . S
C2129 C2130 1.362 . S
C2130 H2122 0.930 . S
C2130 C2129 1.362 . S
C2130 C2133 1.409 . S
C2131 H2123 0.930 . S
C2131 C2132 1.355 . S
C2131 C2133 1.415 . S
C2132 C2131 1.355 . S
C2132 C2134 1.419 . S
C2133 C2128 1.425 . S
C2133 C2130 1.409 . S
C2133 C2131 1.415 . S
C2134 H2124 0.930 . S
C2134 C2132 1.419 . S
C2134 C2135 1.362 . S
C2135 H2125 0.930 . S
C2135 C2128 1.409 . S
C2135 C2134 1.362 . S
H2136 C2142 0.930 . S
H2137 C2145 0.930 . S
H2138 C2146 0.930 . S
H2139 C2147 0.930 . S
H2140 C2150 0.930 . S
H2141 C2151 0.930 . S
C2142 H2136 0.930 . S
C2142 C2143 1.355 1_554 S
C2142 C2144 1.415 . S
C2143 C2142 1.355 1_556 S
C2143 C2145 1.419 . S
C2144 C2142 1.415 . S
C2144 C2149 1.425 1_554 S
C2144 C2151 1.409 . S
C2145 H2137 0.930 . S
C2145 C2143 1.419 . S
C2145 C2146 1.362 . S
C2146 H2138 0.930 . S
C2146 C2145 1.362 . S
C2146 C2149 1.409 . S
C2147 H2139 0.930 . S
C2147 C2148 1.355 1_556 S
C2147 C2149 1.415 . S
C2148 C2147 1.355 1_554 S
C2148 C2150 1.419 . S
C2149 C2144 1.425 1_556 S
C2149 C2146 1.409 . S
C2149 C2147 1.415 . S
C2150 H2140 0.930 . S
C2150 C2148 1.419 . S
C2150 C2151 1.362 . S
C2151 H2141 0.930 . S
C2151 C2144 1.409 . S
C2151 C2150 1.362 . S
H2152 C2158 0.930 . S
H2153 C2161 0.930 . S
H2154 C2162 0.930 . S
H2155 C2163 0.930 . S
H2156 C2166 0.930 . S
H2157 C2167 0.930 . S
C2158 H2152 0.930 . S
C2158 C2159 1.355 . S
C2158 C2160 1.415 . S
C2159 C2158 1.355 . S
C2159 C2161 1.419 . S
C2160 C2158 1.415 . S
C2160 C2165 1.425 . S
C2160 C2167 1.409 . S
C2161 H2153 0.930 . S
C2161 C2159 1.419 . S
C2161 C2162 1.362 . S
C2162 H2154 0.930 . S
C2162 C2161 1.362 . S
C2162 C2165 1.409 . S
C2163 H2155 0.930 . S
C2163 C2164 1.355 . S
C2163 C2165 1.415 . S
C2164 C2163 1.355 . S
C2164 C2166 1.419 . S
C2165 C2160 1.425 . S
C2165 C2162 1.409 . S
C2165 C2163 1.415 . S
C2166 H2156 0.930 . S
C2166 C2164 1.419 . S
C2166 C2167 1.362 . S
C2167 H2157 0.930 . S
C2167 C2160 1.409 . S
C2167 C2166 1.362 . S
H2168 C2174 0.930 . S
H2169 C2177 0.930 . S
H2170 C2178 0.930 . S
H2171 C2179 0.930 . S
H2172 C2182 0.930 . S
H2173 C2183 0.930 . S
C2174 H2168 0.930 . S
C2174 C2175 1.355 . S
C2174 C2176 1.415 . S
C2175 C2174 1.355 . S
C2175 C2177 1.419 . S
C2176 C2174 1.415 . S
C2176 C2181 1.425 . S
C2176 C2183 1.409 . S
C2177 H2169 0.930 . S
C2177 C2175 1.419 . S
C2177 C2178 1.362 . S
C2178 H2170 0.930 . S
C2178 C2177 1.362 . S
C2178 C2181 1.409 . S
C2179 H2171 0.930 . S
C2179 C2180 1.355 . S
C2179 C2181 1.415 . S
C2180 C2179 1.355 . S
C2180 C2182 1.419 . S
C2181 C2176 1.425 . S
C2181 C2178 1.409 . S
C2181 C2179 1.415 . S
C2182 H2172 0.930 . S
C2182 C2180 1.419 . S
C2182 C2183 1.362 . S
C2183 H2173 0.930 . S
C2183 C2176 1.409 . S
C2183 C2182 1.362 . S
C660 C327 1.421 . S
C655 C10 1.519 . S
C671 C23 1.380 . S
C676 C346 1.299 . S
C687 C36 1.511 . S
C692 C369 1.361 . S
C708 C389 1.509 . S
C703 C42 1.504 . S
C719 C18 1.491 . S
C724 C410 1.475 . S
C740 C432 1.516 . S
C735 C31 1.592 . S
C756 C454 1.278 . S
C751 C43 1.362 . S
C767 C5 1.506 . S
C772 C472 1.464 . S
C783 C56 1.501 . S
C788 C328 1.467 . S
C799 C70 1.516 . S
C804 C347 1.496 . S
C820 C370 1.323 . S
C815 C82 1.388 . S
C836 C393 1.504 . S
C831 C96 1.568 . S
C847 C57 1.577 . S
C852 C414 1.515 . S
C868 C433 1.298 . S
C863 C69 1.360 . S
C884 C455 1.504 . S
C879 C83 1.506 . S
C900 C473 1.485 . S
C895 C95 1.476 . S
C916 C329 1.485 . S
C911 C94 1.483 . S
C932 C496 1.280 . S
C927 C108 1.347 . S
C943 C122 1.483 . S
C948 C518 1.494 . S
C964 C537 1.489 . S
C959 C140 1.555 . S
C975 C55 1.506 . S
C980 C477 1.413 . S
C996 C371 1.515 . S
C991 C68 1.510 . S
C1007 C121 1.388 . S
C1012 C559 1.365 . S
C1028 C582 1.383 . S
C1023 C153 1.524 . S
C1039 C161 1.245 . S
C1044 C330 1.240 . S
C1060 C581 1.197 . S
C1055 C174 1.207 . S
C1071 C186 1.340 . S
C1076 C372 1.258 . S
C1087 C200 1.192 . S
C1092 C556 1.205 . S
C1108 C412 1.210 . S
C1103 C172 1.206 1_655 S
C1124 C519 1.180 . S
C1119 C192 1.330 . S
C1140 C452 1.255 . S
C1135 C198 1.254 . S
C1156 C602 1.329 . S
C1151 C159 1.340 . S
C1172 C326 1.321 . S
C1167 C211 1.314 1_545 S
C1183 C225 1.187 . S
C1188 C580 1.196 . S
C1204 C368 1.169 1_545 S
C1199 C239 1.209 . S
C1215 C251 1.281 . S
C1220 C561 1.261 . S
C1231 C218 1.329 . S
C1236 C411 1.194 . S
C1247 C226 1.237 . S
C1252 C515 1.216 . S
C1268 C451 1.130 . S
C1263 C238 1.200 1_545 S
C1279 C252 1.242 . S
C1284 C601 1.210 . S
C1295 C250 1.244 . S
C1300 C325 1.207 . S
C1311 C264 1.261 . S
C1316 C494 1.232 1_554 S
C1327 C276 1.211 . S
C1332 C430 1.153 . S
C1343 C290 1.302 . S
C1348 C540 1.198 . S
C1364 C600 1.180 . S
C1359 C213 1.262 . S
C1380 C367 1.131 . S
C1375 C224 1.193 . S
C1396 C392 1.178 . S
C1391 C283 1.235 . S
C1412 C348 1.217 . S
C1407 C303 1.355 . S
C1423 C29 1.513 . S
C1428 C624 1.445 . S
C1444 C577 1.341 . S
C1439 C49 1.392 . S
C1460 C642 1.442 . S
C1455 C3 1.526 . S
C1471 C16 1.510 . S
C1476 C560 1.482 . S
C1487 C44 1.493 . S
C1492 C497 1.469 . S
C1508 C516 1.482 . S
C1503 C4 1.564 . S
C1524 C538 1.292 . S
C1519 C17 1.369 . S
C1540 C598 1.404 . S
C1535 C30 1.486 . S
C1556 C619 1.396 . S
C1551 C147 1.484 . S
C1567 C107 1.524 . S
C1572 C578 1.486 . S
C1583 C127 1.400 . S
C1588 C643 1.372 . S
C1604 C558 1.495 . S
C1599 C135 1.566 . S
C1620 C495 1.487 . S
C1615 C148 1.595 . S
C1631 C114 1.360 . S
C1636 C517 1.304 . S
C1652 C539 1.503 . S
C1647 C120 1.503 . S
C1663 C134 1.481 . S
C1668 C599 1.476 . S
C1684 C620 1.482 . S
C1679 C133 1.485 . S
C1700 C409 1.341 . S
C1695 C75 1.370 . S
C1716 C434 1.493 . S
C1711 C81 1.485 . S
C1727 C101 1.567 . S
C1732 C453 1.501 . S
C1748 C603 1.404 . S
C1743 C146 1.523 . S
C1759 C109 1.526 1_556 S
C1764 C644 1.471 . S
C1780 C388 1.279 . S
C1775 C88 1.364 . S
C1796 C351 1.436 . S
C1791 C62 1.516 . S
C1807 C187 1.277 . S
C1812 C621 1.125 . S
C1828 C350 1.224 . S
C1823 C199 1.214 . S
C1844 C645 1.309 1_455 S
C1839 C160 1.325 . S
C1855 C173 1.177 . S
C1860 C391 1.181 . S
C1871 C205 1.186 . S
C1876 C493 1.200 . S
C1887 C166 1.307 . S
C1892 C435 1.276 . S
C1903 C179 1.246 . S
C1908 C536 1.186 . S
C1919 C185 1.332 . S
C1924 C476 1.272 . S
C1940 C623 1.308 . S
C1935 C302 1.314 . S
C1951 C270 1.209 . S
C1956 C349 1.134 . S
C1972 C641 1.168 . S
C1967 C278 1.211 . S
C1983 C296 1.281 . S
C1988 C390 1.277 . S
C1999 C309 1.311 . S
C2004 C498 1.293 . S
C2020 C431 1.209 . S
C2015 C263 1.265 . S
C2031 C277 1.186 . S
C2036 C535 1.201 . S
C2052 C475 1.236 . S
C2047 C289 1.232 . S
C2068 C622 1.159 . S
C2063 C291 1.232 . S
C2084 C413 1.245 . S
C2079 C231 1.241 . S
C2095 C237 1.178 . S
C2100 C514 1.127 . S
C2116 C456 1.167 . S
C2111 C257 1.309 . S
C2132 C474 1.209 . S
C2127 C304 1.253 . S
C2143 C265 1.225 . S
C2148 C640 1.191 . S
C2164 C557 1.224 . S
C2159 C244 1.226 . S
C2180 C579 1.313 . S
C2175 C212 1.327 . S
