# Generated by pormake.
# Topology gar, (4,6)-cn, num edge types: 1
# Building blocks:
#     Node 0, Type 0, BuildingBlock: TATPOV_clean_sbu_0, # of connection points: 4
#     Node 1, Type 0, BuildingBlock: TATPOV_clean_sbu_0, # of connection points: 4
#     Node 2, Type 0, BuildingBlock: TATPOV_clean_sbu_0, # of connection points: 4
#     Node 3, Type 0, BuildingBlock: TATPOV_clean_sbu_0, # of connection points: 4
#     Node 4, Type 0, BuildingBlock: TATPOV_clean_sbu_0, # of connection points: 4
#     Node 5, Type 0, BuildingBlock: TATPOV_clean_sbu_0, # of connection points: 4
#     Node 6, Type 0, BuildingBlock: TATPOV_clean_sbu_0, # of connection points: 4
#     Node 7, Type 0, BuildingBlock: TATPOV_clean_sbu_0, # of connection points: 4
#     Node 8, Type 0, BuildingBlock: TATPOV_clean_sbu_0, # of connection points: 4
#     Node 9, Type 0, BuildingBlock: TATPOV_clean_sbu_0, # of connection points: 4
#     Node 10, Type 0, BuildingBlock: TATPOV_clean_sbu_0, # of connection points: 4
#     Node 11, Type 0, BuildingBlock: TATPOV_clean_sbu_0, # of connection points: 4
#     Node 12, Type 0, BuildingBlock: TATPOV_clean_sbu_0, # of connection points: 4
#     Node 13, Type 0, BuildingBlock: TATPOV_clean_sbu_0, # of connection points: 4
#     Node 14, Type 0, BuildingBlock: TATPOV_clean_sbu_0, # of connection points: 4
#     Node 15, Type 0, BuildingBlock: TATPOV_clean_sbu_0, # of connection points: 4
#     Node 16, Type 0, BuildingBlock: TATPOV_clean_sbu_0, # of connection points: 4
#     Node 17, Type 0, BuildingBlock: TATPOV_clean_sbu_0, # of connection points: 4
#     Node 18, Type 0, BuildingBlock: TATPOV_clean_sbu_0, # of connection points: 4
#     Node 19, Type 0, BuildingBlock: TATPOV_clean_sbu_0, # of connection points: 4
#     Node 20, Type 0, BuildingBlock: TATPOV_clean_sbu_0, # of connection points: 4
#     Node 21, Type 0, BuildingBlock: TATPOV_clean_sbu_0, # of connection points: 4
#     Node 22, Type 0, BuildingBlock: TATPOV_clean_sbu_0, # of connection points: 4
#     Node 23, Type 0, BuildingBlock: TATPOV_clean_sbu_0, # of connection points: 4
#     Node 24, Type 1, BuildingBlock: KUMJIN_clean_sbu_0, # of connection points: 6
#     Node 25, Type 1, BuildingBlock: KUMJIN_clean_sbu_0, # of connection points: 6
#     Node 26, Type 1, BuildingBlock: KUMJIN_clean_sbu_0, # of connection points: 6
#     Node 27, Type 1, BuildingBlock: KUMJIN_clean_sbu_0, # of connection points: 6
#     Node 28, Type 1, BuildingBlock: KUMJIN_clean_sbu_0, # of connection points: 6
#     Node 29, Type 1, BuildingBlock: KUMJIN_clean_sbu_0, # of connection points: 6
#     Node 30, Type 1, BuildingBlock: KUMJIN_clean_sbu_0, # of connection points: 6
#     Node 31, Type 1, BuildingBlock: KUMJIN_clean_sbu_0, # of connection points: 6
#     Node 32, Type 1, BuildingBlock: KUMJIN_clean_sbu_0, # of connection points: 6
#     Node 33, Type 1, BuildingBlock: KUMJIN_clean_sbu_0, # of connection points: 6
#     Node 34, Type 1, BuildingBlock: KUMJIN_clean_sbu_0, # of connection points: 6
#     Node 35, Type 1, BuildingBlock: KUMJIN_clean_sbu_0, # of connection points: 6
#     Node 36, Type 1, BuildingBlock: KUMJIN_clean_sbu_0, # of connection points: 6
#     Node 37, Type 1, BuildingBlock: KUMJIN_clean_sbu_0, # of connection points: 6
#     Node 38, Type 1, BuildingBlock: KUMJIN_clean_sbu_0, # of connection points: 6
#     Node 39, Type 1, BuildingBlock: KUMJIN_clean_sbu_0, # of connection points: 6
#     Edge 40, Type (0, 1), BuildingBlock: AJUNOK_clean_linker_0, # of connection points: 2
#     Edge 41, Type (0, 1), BuildingBlock: AJUNOK_clean_linker_0, # of connection points: 2
#     Edge 42, Type (0, 1), BuildingBlock: AJUNOK_clean_linker_0, # of connection points: 2
#     Edge 43, Type (0, 1), BuildingBlock: AJUNOK_clean_linker_0, # of connection points: 2
#     Edge 44, Type (0, 1), BuildingBlock: AJUNOK_clean_linker_0, # of connection points: 2
#     Edge 45, Type (0, 1), BuildingBlock: AJUNOK_clean_linker_0, # of connection points: 2
#     Edge 46, Type (0, 1), BuildingBlock: AJUNOK_clean_linker_0, # of connection points: 2
#     Edge 47, Type (0, 1), BuildingBlock: AJUNOK_clean_linker_0, # of connection points: 2
#     Edge 48, Type (0, 1), BuildingBlock: AJUNOK_clean_linker_0, # of connection points: 2
#     Edge 49, Type (0, 1), BuildingBlock: AJUNOK_clean_linker_0, # of connection points: 2
#     Edge 50, Type (0, 1), BuildingBlock: AJUNOK_clean_linker_0, # of connection points: 2
#     Edge 51, Type (0, 1), BuildingBlock: AJUNOK_clean_linker_0, # of connection points: 2
#     Edge 52, Type (0, 1), BuildingBlock: AJUNOK_clean_linker_0, # of connection points: 2
#     Edge 53, Type (0, 1), BuildingBlock: AJUNOK_clean_linker_0, # of connection points: 2
#     Edge 54, Type (0, 1), BuildingBlock: AJUNOK_clean_linker_0, # of connection points: 2
#     Edge 55, Type (0, 1), BuildingBlock: AJUNOK_clean_linker_0, # of connection points: 2
#     Edge 56, Type (0, 1), BuildingBlock: AJUNOK_clean_linker_0, # of connection points: 2
#     Edge 57, Type (0, 1), BuildingBlock: AJUNOK_clean_linker_0, # of connection points: 2
#     Edge 58, Type (0, 1), BuildingBlock: AJUNOK_clean_linker_0, # of connection points: 2
#     Edge 59, Type (0, 1), BuildingBlock: AJUNOK_clean_linker_0, # of connection points: 2
#     Edge 60, Type (0, 1), BuildingBlock: AJUNOK_clean_linker_0, # of connection points: 2
#     Edge 61, Type (0, 1), BuildingBlock: AJUNOK_clean_linker_0, # of connection points: 2
#     Edge 62, Type (0, 1), BuildingBlock: AJUNOK_clean_linker_0, # of connection points: 2
#     Edge 63, Type (0, 1), BuildingBlock: AJUNOK_clean_linker_0, # of connection points: 2
#     Edge 64, Type (0, 1), BuildingBlock: AJUNOK_clean_linker_0, # of connection points: 2
#     Edge 65, Type (0, 1), BuildingBlock: AJUNOK_clean_linker_0, # of connection points: 2
#     Edge 66, Type (0, 1), BuildingBlock: AJUNOK_clean_linker_0, # of connection points: 2
#     Edge 67, Type (0, 1), BuildingBlock: AJUNOK_clean_linker_0, # of connection points: 2
#     Edge 68, Type (0, 1), BuildingBlock: AJUNOK_clean_linker_0, # of connection points: 2
#     Edge 69, Type (0, 1), BuildingBlock: AJUNOK_clean_linker_0, # of connection points: 2
#     Edge 70, Type (0, 1), BuildingBlock: AJUNOK_clean_linker_0, # of connection points: 2
#     Edge 71, Type (0, 1), BuildingBlock: AJUNOK_clean_linker_0, # of connection points: 2
#     Edge 72, Type (0, 1), BuildingBlock: AJUNOK_clean_linker_0, # of connection points: 2
#     Edge 73, Type (0, 1), BuildingBlock: AJUNOK_clean_linker_0, # of connection points: 2
#     Edge 74, Type (0, 1), BuildingBlock: AJUNOK_clean_linker_0, # of connection points: 2
#     Edge 75, Type (0, 1), BuildingBlock: AJUNOK_clean_linker_0, # of connection points: 2
#     Edge 76, Type (0, 1), BuildingBlock: AJUNOK_clean_linker_0, # of connection points: 2
#     Edge 77, Type (0, 1), BuildingBlock: AJUNOK_clean_linker_0, # of connection points: 2
#     Edge 78, Type (0, 1), BuildingBlock: AJUNOK_clean_linker_0, # of connection points: 2
#     Edge 79, Type (0, 1), BuildingBlock: AJUNOK_clean_linker_0, # of connection points: 2
#     Edge 80, Type (0, 1), BuildingBlock: AJUNOK_clean_linker_0, # of connection points: 2
#     Edge 81, Type (0, 1), BuildingBlock: AJUNOK_clean_linker_0, # of connection points: 2
#     Edge 82, Type (0, 1), BuildingBlock: AJUNOK_clean_linker_0, # of connection points: 2
#     Edge 83, Type (0, 1), BuildingBlock: AJUNOK_clean_linker_0, # of connection points: 2
#     Edge 84, Type (0, 1), BuildingBlock: AJUNOK_clean_linker_0, # of connection points: 2
#     Edge 85, Type (0, 1), BuildingBlock: AJUNOK_clean_linker_0, # of connection points: 2
#     Edge 86, Type (0, 1), BuildingBlock: AJUNOK_clean_linker_0, # of connection points: 2
#     Edge 87, Type (0, 1), BuildingBlock: AJUNOK_clean_linker_0, # of connection points: 2
#     Edge 88, Type (0, 1), BuildingBlock: AJUNOK_clean_linker_0, # of connection points: 2
#     Edge 89, Type (0, 1), BuildingBlock: AJUNOK_clean_linker_0, # of connection points: 2
#     Edge 90, Type (0, 1), BuildingBlock: AJUNOK_clean_linker_0, # of connection points: 2
#     Edge 91, Type (0, 1), BuildingBlock: AJUNOK_clean_linker_0, # of connection points: 2
#     Edge 92, Type (0, 1), BuildingBlock: AJUNOK_clean_linker_0, # of connection points: 2
#     Edge 93, Type (0, 1), BuildingBlock: AJUNOK_clean_linker_0, # of connection points: 2
#     Edge 94, Type (0, 1), BuildingBlock: AJUNOK_clean_linker_0, # of connection points: 2
#     Edge 95, Type (0, 1), BuildingBlock: AJUNOK_clean_linker_0, # of connection points: 2
#     Edge 96, Type (0, 1), BuildingBlock: AJUNOK_clean_linker_0, # of connection points: 2
#     Edge 97, Type (0, 1), BuildingBlock: AJUNOK_clean_linker_0, # of connection points: 2
#     Edge 98, Type (0, 1), BuildingBlock: AJUNOK_clean_linker_0, # of connection points: 2
#     Edge 99, Type (0, 1), BuildingBlock: AJUNOK_clean_linker_0, # of connection points: 2
#     Edge 100, Type (0, 1), BuildingBlock: AJUNOK_clean_linker_0, # of connection points: 2
#     Edge 101, Type (0, 1), BuildingBlock: AJUNOK_clean_linker_0, # of connection points: 2
#     Edge 102, Type (0, 1), BuildingBlock: AJUNOK_clean_linker_0, # of connection points: 2
#     Edge 103, Type (0, 1), BuildingBlock: AJUNOK_clean_linker_0, # of connection points: 2
#     Edge 104, Type (0, 1), BuildingBlock: AJUNOK_clean_linker_0, # of connection points: 2
#     Edge 105, Type (0, 1), BuildingBlock: AJUNOK_clean_linker_0, # of connection points: 2
#     Edge 106, Type (0, 1), BuildingBlock: AJUNOK_clean_linker_0, # of connection points: 2
#     Edge 107, Type (0, 1), BuildingBlock: AJUNOK_clean_linker_0, # of connection points: 2
#     Edge 108, Type (0, 1), BuildingBlock: AJUNOK_clean_linker_0, # of connection points: 2
#     Edge 109, Type (0, 1), BuildingBlock: AJUNOK_clean_linker_0, # of connection points: 2
#     Edge 110, Type (0, 1), BuildingBlock: AJUNOK_clean_linker_0, # of connection points: 2
#     Edge 111, Type (0, 1), BuildingBlock: AJUNOK_clean_linker_0, # of connection points: 2
#     Edge 112, Type (0, 1), BuildingBlock: AJUNOK_clean_linker_0, # of connection points: 2
#     Edge 113, Type (0, 1), BuildingBlock: AJUNOK_clean_linker_0, # of connection points: 2
#     Edge 114, Type (0, 1), BuildingBlock: AJUNOK_clean_linker_0, # of connection points: 2
#     Edge 115, Type (0, 1), BuildingBlock: AJUNOK_clean_linker_0, # of connection points: 2
#     Edge 116, Type (0, 1), BuildingBlock: AJUNOK_clean_linker_0, # of connection points: 2
#     Edge 117, Type (0, 1), BuildingBlock: AJUNOK_clean_linker_0, # of connection points: 2
#     Edge 118, Type (0, 1), BuildingBlock: AJUNOK_clean_linker_0, # of connection points: 2
#     Edge 119, Type (0, 1), BuildingBlock: AJUNOK_clean_linker_0, # of connection points: 2
#     Edge 120, Type (0, 1), BuildingBlock: AJUNOK_clean_linker_0, # of connection points: 2
#     Edge 121, Type (0, 1), BuildingBlock: AJUNOK_clean_linker_0, # of connection points: 2
#     Edge 122, Type (0, 1), BuildingBlock: AJUNOK_clean_linker_0, # of connection points: 2
#     Edge 123, Type (0, 1), BuildingBlock: AJUNOK_clean_linker_0, # of connection points: 2
#     Edge 124, Type (0, 1), BuildingBlock: AJUNOK_clean_linker_0, # of connection points: 2
#     Edge 125, Type (0, 1), BuildingBlock: AJUNOK_clean_linker_0, # of connection points: 2
#     Edge 126, Type (0, 1), BuildingBlock: AJUNOK_clean_linker_0, # of connection points: 2
#     Edge 127, Type (0, 1), BuildingBlock: AJUNOK_clean_linker_0, # of connection points: 2
#     Edge 128, Type (0, 1), BuildingBlock: AJUNOK_clean_linker_0, # of connection points: 2
#     Edge 129, Type (0, 1), BuildingBlock: AJUNOK_clean_linker_0, # of connection points: 2
#     Edge 130, Type (0, 1), BuildingBlock: AJUNOK_clean_linker_0, # of connection points: 2
#     Edge 131, Type (0, 1), BuildingBlock: AJUNOK_clean_linker_0, # of connection points: 2
#     Edge 132, Type (0, 1), BuildingBlock: AJUNOK_clean_linker_0, # of connection points: 2
#     Edge 133, Type (0, 1), BuildingBlock: AJUNOK_clean_linker_0, # of connection points: 2
#     Edge 134, Type (0, 1), BuildingBlock: AJUNOK_clean_linker_0, # of connection points: 2
#     Edge 135, Type (0, 1), BuildingBlock: AJUNOK_clean_linker_0, # of connection points: 2
# Relax obj value: 0.165
# Max RMSD: 0.357
# Mean RMSD: 0.177
data_MOF--net-gar--node1-TATPOV_clean_sbu_0--node2-KUMJIN_clean_sbu_0--edge1-AJUNOK_clean_linker_0
_symmetry_space_group_name_H-M    P1
_symmetry_Int_Tables_number       1
_symmetry_cell_setting            triclinic
loop_
_symmetry_equiv_pos_as_xyz
'x, y, z'
_cell_length_a     47.474111
_cell_length_b     42.633626
_cell_length_c     42.72566
_cell_angle_alpha  102.17885
_cell_angle_beta   94.849122
_cell_angle_gamma 105.55242
loop_
_atom_site_label
_atom_site_type_symbol
_atom_site_fract_x
_atom_site_fract_y
_atom_site_fract_z
_atom_type_partial_charge
Zn0 Zn 0.12044 0.35183 0.4196 0.0
Zn1 Zn 0.16095 0.35017 0.39562 0.0
O2 O 0.17449 0.39755 0.42707 0.0
O3 O 0.1298 0.39815 0.41231 0.0
O4 O 0.19176 0.34079 0.3703 0.0
O5 O 0.13775 0.34022 0.45901 0.0
O6 O 0.15227 0.312 0.41813 0.0
C7 C 0.15596 0.41409 0.42509 0.0
C8 C 0.09942 0.33176 0.36118 0.0
O9 O 0.12645 0.34762 0.3622 0.0
O10 O 0.09216 0.31736 0.38359 0.0
C11 C 0.20194 0.35761 0.3506 0.0
O12 O 0.19438 0.38466 0.34864 0.0
C13 C 0.1462 0.31531 0.44675 0.0
Zn14 Zn 0.98529 0.68428 0.68417 0.0
Zn15 Zn 1.0061 0.7397 0.66087 0.0
O16 O 0.97536 0.74792 0.68911 0.0
O17 O 0.95982 0.70574 0.71163 0.0
O18 O 0.0202 0.77878 0.64122 0.0
O19 O 0.02838 0.69127 0.69928 0.0
O20 O 0.0438 0.73864 0.68431 0.0
C21 C 0.95945 0.73432 0.708 0.0
C22 C 0.98287 0.66913 0.61652 0.0
O23 O 0.99538 0.70048 0.62247 0.0
O24 O 0.97127 0.65654 0.6384 0.0
C25 C 0.0072 0.78196 0.61536 0.0
O26 O 0.98054 0.76194 0.60305 0.0
C27 C 0.04921 0.71568 0.69623 0.0
Zn28 Zn 0.62137 0.86158 0.92162 0.0
Zn29 Zn 0.66254 0.85278 0.89802 0.0
O30 O 0.67548 0.90006 0.93001 0.0
O31 O 0.63572 0.90454 0.90578 0.0
O32 O 0.6959 0.84571 0.87421 0.0
O33 O 0.63994 0.85099 0.96077 0.0
O34 O 0.65297 0.81665 0.92319 0.0
C35 C 0.65979 0.91871 0.92435 0.0
C36 C 0.60021 0.83071 0.86433 0.0
O37 O 0.62692 0.84635 0.86326 0.0
O38 O 0.59382 0.82223 0.88999 0.0
C39 C 0.6961 0.84878 0.84526 0.0
O40 O 0.67585 0.85979 0.83212 0.0
C41 C 0.64652 0.82394 0.95159 0.0
Zn42 Zn 0.48886 0.19064 0.18509 0.0
Zn43 Zn 0.50511 0.24732 0.16178 0.0
O44 O 0.47335 0.25438 0.18891 0.0
O45 O 0.46459 0.21248 0.21308 0.0
O46 O 0.51486 0.28479 0.13953 0.0
O47 O 0.53251 0.2012 0.19718 0.0
O48 O 0.54447 0.25086 0.1859 0.0
C49 C 0.46085 0.23974 0.20925 0.0
C50 C 0.48525 0.17487 0.11924 0.0
O51 O 0.49694 0.20635 0.12562 0.0
O52 O 0.47318 0.16142 0.14034 0.0
C53 C 0.50235 0.28211 0.1112 0.0
O54 O 0.4801 0.25537 0.0975 0.0
C55 C 0.55186 0.22756 0.19553 0.0
Zn56 Zn 0.16198 0.82433 0.07858 0.0
Zn57 Zn 0.12079 0.8185 0.11318 0.0
O58 O 0.11536 0.86009 0.09137 0.0
O59 O 0.15186 0.8675 0.06355 0.0
O60 O 0.09039 0.81776 0.14359 0.0
O61 O 0.14237 0.77092 0.05582 0.0
O62 O 0.10627 0.76729 0.08469 0.0
C63 C 0.1298 0.87674 0.07296 0.0
C64 C 0.18661 0.82642 0.14546 0.0
O65 O 0.15906 0.82238 0.14745 0.0
O66 O 0.19517 0.83041 0.1187 0.0
C67 C 0.07274 0.83563 0.14735 0.0
O68 O 0.0725 0.85744 0.12985 0.0
C69 C 0.11926 0.7526 0.06366 0.0
Zn70 Zn 0.49611 0.7636 0.47838 0.0
Zn71 Zn 0.5294 0.76512 0.43369 0.0
O72 O 0.5394 0.81708 0.45891 0.0
O73 O 0.51523 0.81619 0.50026 0.0
O74 O 0.56214 0.76699 0.4051 0.0
O75 O 0.51167 0.72387 0.4951 0.0
O76 O 0.53733 0.7243 0.4553 0.0
C77 C 0.53194 0.83317 0.48413 0.0
C78 C 0.4633 0.75717 0.41007 0.0
O79 O 0.4889 0.7572 0.40229 0.0
O80 O 0.45992 0.75735 0.43957 0.0
C81 C 0.58761 0.78793 0.41606 0.0
O82 O 0.59115 0.80988 0.44381 0.0
C83 C 0.52976 0.71183 0.47943 0.0
Zn84 Zn 0.66041 0.32111 0.57524 0.0
Zn85 Zn 0.62405 0.31876 0.6151 0.0
O86 O 0.61741 0.36036 0.59443 0.0
O87 O 0.64715 0.36284 0.55857 0.0
O88 O 0.5896 0.31197 0.63904 0.0
O89 O 0.64226 0.26707 0.55307 0.0
O90 O 0.61324 0.26744 0.58989 0.0
C91 C 0.62786 0.37455 0.57234 0.0
C92 C 0.68801 0.32746 0.64533 0.0
O93 O 0.66145 0.32588 0.65029 0.0
O94 O 0.69398 0.32844 0.6168 0.0
C95 C 0.57624 0.333 0.6502 0.0
O96 O 0.5873 0.36479 0.65054 0.0
C97 C 0.62279 0.25048 0.56704 0.0
Zn98 Zn 0.99542 0.2643 0.97815 0.0
Zn99 Zn 0.03021 0.26656 0.93495 0.0
O100 O 0.04244 0.31816 0.96068 0.0
O101 O 0.01553 0.31759 0.99983 0.0
O102 O 0.06049 0.26632 0.90397 0.0
O103 O 0.009 0.22288 0.99352 0.0
O104 O 0.0377 0.2256 0.95653 0.0
C105 C 0.03409 0.33444 0.98513 0.0
C106 C 0.96436 0.2602 0.91113 0.0
O107 O 0.99041 0.2616 0.90432 0.0
O108 O 0.95958 0.25801 0.93973 0.0
C109 C 0.08732 0.28287 0.915 0.0
O110 O 0.09368 0.30191 0.94464 0.0
C111 C 0.02808 0.21154 0.97906 0.0
Zn112 Zn 0.47779 0.97526 0.33103 0.0
Zn113 Zn 0.44016 0.04529 0.32623 0.0
O114 O 0.44492 0.04997 0.37464 0.0
O115 O 0.45171 1.00275 0.35324 0.0
O116 O 0.43427 0.08541 0.31719 0.0
O117 O 0.49696 0.99563 0.29568 0.0
O118 O 0.47975 0.03768 0.31473 0.0
C119 C 0.45733 0.02765 0.37736 0.0
C120 C 0.41266 0.98065 0.30436 0.0
O121 O 0.40332 1.00566 0.30414 0.0
O122 O 0.43915 0.98716 0.31762 0.0
C123 C 0.41066 0.08863 0.32725 0.0
O124 O 0.40011 0.07181 0.3483 0.0
C125 C 0.48714 0.01968 0.29093 0.0
Zn126 Zn 0.28338 0.24505 0.51923 0.0
Zn127 Zn 0.31281 0.20238 0.51345 0.0
O128 O 0.32124 0.22509 0.47331 0.0
O129 O 0.29837 0.26371 0.48062 0.0
O130 O 0.34597 0.18072 0.51735 0.0
O131 O 0.29784 0.26908 0.56804 0.0
O132 O 0.3168 0.22717 0.56328 0.0
C133 C 0.31384 0.24875 0.46376 0.0
C134 C 0.24747 0.17162 0.50362 0.0
O135 O 0.27224 0.16518 0.50291 0.0
O136 O 0.24728 0.20212 0.50953 0.0
C137 C 0.35214 0.1575 0.49766 0.0
O138 O 0.33498 0.14287 0.46974 0.0
C139 C 0.31065 0.25172 0.58145 0.0
Zn140 Zn 0.16468 0.04639 0.77874 0.0
Zn141 Zn 0.20106 1.0087 0.77155 0.0
O142 O 0.17777 1.0088 0.82016 0.0
O143 O 0.14627 0.03843 0.81955 0.0
O144 O 0.23008 0.96703 0.76647 0.0
O145 O 0.14133 0.03575 0.73327 0.0
O146 O 0.17335 1.00822 0.72002 0.0
C147 C 0.15814 0.02138 0.83446 0.0
C148 C 0.22645 0.08878 0.78349 0.0
O149 O 0.23273 0.06044 0.77942 0.0
O150 O 0.19977 0.08823 0.78505 0.0
C151 C 0.24056 0.95089 0.78616 0.0
O152 O 0.23407 0.9569 0.81569 0.0
C153 C 0.15216 0.02072 0.71064 0.0
Zn154 Zn 0.41025 0.94255 0.02215 0.0
Zn155 Zn 0.35894 0.95772 0.00718 0.0
O156 O 0.35908 0.92337 0.96935 0.0
O157 O 0.40717 0.92995 0.97376 0.0
O158 O 0.32124 0.96875 0.0047 0.0
O159 O 0.38551 0.90446 0.03664 0.0
O160 O 0.35913 0.93958 0.04734 0.0
C161 C 0.38143 0.91756 0.95768 0.0
C162 C 0.41255 1.00647 0.02854 0.0
O163 O 0.39162 0.99826 0.00548 0.0
O164 O 0.40996 0.98847 0.04857 0.0
C165 C 0.31706 0.99087 0.99081 0.0
O166 O 0.33695 1.00429 0.97416 0.0
C167 C 0.3666 0.91427 0.05198 0.0
Zn168 Zn 0.37586 0.3456 0.03466 0.0
Zn169 Zn 0.34525 0.3867 0.04183 0.0
O170 O 0.33786 0.36168 0.99153 0.0
O171 O 0.3611 0.32323 0.98703 0.0
O172 O 0.31423 0.41224 0.04512 0.0
O173 O 0.36149 0.32453 0.07097 0.0
O174 O 0.33572 0.36028 0.07883 0.0
C175 C 0.34554 0.33804 0.97367 0.0
C176 C 0.41195 0.41658 0.04929 0.0
O177 O 0.38726 0.42311 0.05119 0.0
O178 O 0.41227 0.38624 0.04359 0.0
C179 C 0.31243 0.4297 0.02478 0.0
O180 O 0.33074 0.43073 1.00336 0.0
C181 C 0.34413 0.33671 0.08718 0.0
Zn182 Zn 0.74762 0.14278 0.03729 0.0
Zn183 Zn 0.79537 0.12976 0.04395 0.0
O184 O 0.81085 0.16088 0.01728 0.0
O185 O 0.7648 0.14913 0.99511 0.0
O186 O 0.82864 0.11183 0.05423 0.0
O187 O 0.75766 0.18428 0.07014 0.0
O188 O 0.7905 0.16026 0.08596 0.0
C189 C 0.79218 0.16171 0.99488 0.0
C190 C 0.73898 0.08398 0.03193 0.0
O191 O 0.75947 0.09156 0.01551 0.0
O192 O 0.74278 0.10307 0.05956 0.0
C193 C 0.82888 0.0857 0.03386 0.0
O194 O 0.80721 0.07188 0.00956 0.0
C195 C 0.77703 0.18267 0.09135 0.0
Zn196 Zn 0.21123 0.61476 0.26192 0.0
Zn197 Zn 0.22623 0.54152 0.22909 0.0
O198 O 0.20787 0.53654 0.26912 0.0
O199 O 0.22955 0.58918 0.28987 0.0
O200 O 0.23828 0.50132 0.21223 0.0
O201 O 0.18368 0.58858 0.21819 0.0
O202 O 0.19348 0.5399 0.2005 0.0
C203 C 0.21185 0.56193 0.29215 0.0
C204 C 0.26789 0.60731 0.25069 0.0
O205 O 0.25825 0.58282 0.22636 0.0
O206 O 0.25288 0.60838 0.27388 0.0
C207 C 0.26541 0.50658 0.20971 0.0
O208 O 0.27894 0.53264 0.19926 0.0
C209 C 0.1786 0.56006 0.19847 0.0
Zn210 Zn 0.87391 0.84186 0.53264 0.0
Zn211 Zn 0.84376 0.8837 0.53728 0.0
O212 O 0.84094 0.85995 0.48814 0.0
O213 O 0.86042 0.81841 0.48418 0.0
O214 O 0.80891 0.90277 0.53415 0.0
O215 O 0.85848 0.82179 0.57007 0.0
O216 O 0.83331 0.85822 0.57488 0.0
C217 C 0.84783 0.83573 0.47049 0.0
C218 C 0.90921 0.91551 0.5477 0.0
O219 O 0.88446 0.9221 0.54845 0.0
O220 O 0.9092 0.88499 0.54207 0.0
C221 C 0.8107 0.93251 0.53225 0.0
O222 O 0.83693 0.95353 0.5336 0.0
C223 C 0.84068 0.83479 0.58478 0.0
Zn224 Zn 0.99719 0.04044 0.27184 0.0
Zn225 Zn 0.96247 0.07717 0.27708 0.0
O226 O 0.98885 0.07863 0.32924 0.0
O227 O 0.02049 0.05045 0.3166 0.0
O228 O 0.93573 0.11979 0.27648 0.0
O229 O 0.01712 0.04653 0.23222 0.0
O230 O 0.98765 0.07789 0.22975 0.0
C231 C 0.00969 0.06588 0.33889 0.0
C232 C 0.93592 0.99678 0.2659 0.0
O233 O 0.92933 0.02496 0.26921 0.0
O234 O 0.96286 0.99832 0.26537 0.0
C235 C 0.93085 0.14683 0.2946 0.0
O236 O 0.94362 0.15653 0.32492 0.0
C237 C 0.00725 0.06447 0.21664 0.0
Zn238 Zn 0.2426 0.66541 0.54487 0.0
Zn239 Zn 0.30312 0.63693 0.54671 0.0
O240 O 0.31074 0.65858 0.51096 0.0
O241 O 0.26954 0.67438 0.51064 0.0
O242 O 0.33596 0.61786 0.55472 0.0
O243 O 0.25695 0.66302 0.59039 0.0
O244 O 0.30409 0.67282 0.58562 0.0
C245 C 0.29293 0.67196 0.49911 0.0
C246 C 0.24273 0.60185 0.54094 0.0
O247 O 0.26551 0.6002 0.52864 0.0
O248 O 0.24477 0.62621 0.56447 0.0
C249 C 0.33273 0.58955 0.53584 0.0
O250 O 0.30871 0.57563 0.51442 0.0
C251 C 0.28379 0.67904 0.60111 0.0
Zn252 Zn 0.49379 0.53693 0.77091 0.0
Zn253 Zn 0.45956 0.57937 0.77613 0.0
O254 O 0.4858 0.58128 0.82823 0.0
O255 O 0.51507 0.54903 0.81813 0.0
O256 O 0.43259 0.62192 0.77465 0.0
O257 O 0.51428 0.54704 0.73169 0.0
O258 O 0.48449 0.57836 0.7293 0.0
C259 C 0.50535 0.56752 0.83921 0.0
C260 C 0.43083 0.49851 0.76413 0.0
O261 O 0.42694 0.52818 0.76898 0.0
O262 O 0.45677 0.49614 0.76256 0.0
C263 C 0.42283 0.6443 0.79401 0.0
O264 O 0.42827 0.64626 0.82513 0.0
C265 C 0.50419 0.5651 0.71633 0.0
Zn266 Zn 0.68367 0.0768 0.73339 0.0
Zn267 Zn 0.719 0.04454 0.7251 0.0
O268 O 0.69747 0.03613 0.76331 0.0
O269 O 0.70532 0.08992 0.77783 0.0
O270 O 0.74212 0.0135 0.71397 0.0
O271 O 0.6955 0.09522 0.69519 0.0
O272 O 0.69471 0.04238 0.68436 0.0
C273 C 0.70242 0.06254 0.7857 0.0
C274 C 0.74545 0.11346 0.73429 0.0
O275 O 0.75111 0.08745 0.739 0.0
O276 O 0.71878 0.113 0.72667 0.0
C277 C 0.7444 0.99639 0.73419 0.0
O278 O 0.72753 0.99571 0.7569 0.0
C279 C 0.69055 0.06731 0.67494 0.0
Zn280 Zn 0.78463 0.74425 0.01387 0.0
Zn281 Zn 0.81369 0.70116 0.01238 0.0
O282 O 0.82193 0.72089 0.97033 0.0
O283 O 0.80196 0.76222 0.97575 0.0
O284 O 0.84568 0.67846 0.01846 0.0
O285 O 0.79763 0.76882 0.0624 0.0
O286 O 0.81934 0.72936 0.06128 0.0
C287 C 0.81634 0.74497 0.95975 0.0
C288 C 0.74821 0.67132 1.00139 0.0
O289 O 0.77288 0.6647 1.00386 0.0
O290 O 0.74827 0.70164 1.00398 0.0
C291 C 0.85784 0.6608 0.99935 0.0
O292 O 0.84856 0.65254 0.96804 0.0
C293 C 0.81223 0.75423 0.07745 0.0
Zn294 Zn 0.97539 0.47589 0.82322 0.0
Zn295 Zn 0.93971 0.54907 0.82597 0.0
O296 O 0.94502 0.5508 0.87395 0.0
O297 O 0.95285 0.50573 0.84821 0.0
O298 O 0.93386 0.58973 0.8181 0.0
O299 O 0.98938 0.49826 0.787 0.0
O300 O 0.97957 0.54462 0.81191 0.0
C301 C 0.95663 0.52741 0.87458 0.0
C302 C 0.91166 0.48518 0.80153 0.0
O303 O 0.90201 0.51017 0.80318 0.0
O304 O 0.93844 0.49167 0.81378 0.0
C305 C 0.91089 0.59206 0.83001 0.0
O306 O 0.90439 0.5787 0.85449 0.0
C307 C 0.9849 0.52652 0.78671 0.0
Zn308 Zn 0.91797 0.4294 0.52333 0.0
Zn309 Zn 0.86236 0.45209 0.5104 0.0
O310 O 0.85335 0.41151 0.47558 0.0
O311 O 0.895 0.39768 0.48192 0.0
O312 O 0.82735 0.46661 0.51586 0.0
O313 O 0.90238 0.41589 0.56042 0.0
O314 O 0.86804 0.4415 0.55373 0.0
C315 C 0.86979 0.39334 0.46635 0.0
C316 C 0.91747 0.48964 0.50685 0.0
O317 O 0.89162 0.48587 0.49406 0.0
O318 O 0.92105 0.47825 0.53129 0.0
C319 C 0.81481 0.48142 0.49908 0.0
O320 O 0.82425 0.48687 0.47213 0.0
C321 C 0.88149 0.42682 0.56998 0.0
Zn322 Zn 0.66512 0.55113 0.28075 0.0
Zn323 Zn 0.69857 0.50833 0.27304 0.0
O324 O 0.67515 0.51012 0.32109 0.0
O325 O 0.64455 0.54075 0.32012 0.0
O326 O 0.7232 0.46283 0.2709 0.0
O327 O 0.64421 0.54208 0.23394 0.0
O328 O 0.67017 0.5064 0.22188 0.0
C329 C 0.65549 0.52287 0.33491 0.0
C330 C 0.7279 0.5889 0.28498 0.0
O331 O 0.73172 0.55916 0.27861 0.0
O332 O 0.70238 0.59125 0.28944 0.0
C333 C 0.7499 0.45921 0.27845 0.0
O334 O 0.77144 0.48707 0.29049 0.0
C335 C 0.65184 0.52224 0.21202 0.0
Eu336 Eu 0.04808 0.02358 0.00534 0.0
C337 C 0.14198 0.14912 0.07534 0.0
C338 C 0.1575 0.17484 0.03173 0.0
C339 C 0.16915 0.20871 0.0869 0.0
C340 C 0.14317 0.14631 0.04265 0.0
C341 C 0.15446 0.1807 0.09768 0.0
C342 C 0.17086 0.20573 0.05403 0.0
C343 C 0.13913 0.15467 0.14058 0.0
N344 N 0.12923 0.12118 0.08551 0.0
C345 C 0.12925 0.12364 0.11815 0.0
C346 C 0.15215 0.18331 0.1304 0.0
Eu347 Eu 0.11559 0.06863 0.04527 0.0
N348 N 0.13022 0.11602 0.0215 0.0
C349 C 0.12955 0.11371 0.98889 0.0
C350 C 0.15807 0.17168 0.99865 0.0
C351 C 0.14367 0.14108 0.97713 0.0
H352 H 0.12269 0.10167 0.12768 0.0
H353 H 0.14303 0.13858 0.95131 0.0
H354 H 0.18225 0.22761 0.04603 0.0
H355 H 0.13801 0.15622 0.166 0.0
H356 H 0.11723 0.0914 0.97114 0.0
H357 H 0.02018 0.95401 0.09934 0.0
H358 H 0.16895 0.1929 0.98943 0.0
H359 H 0.03463 0.99265 0.92396 0.0
H360 H 0.04751 1.00005 0.07847 0.0
H361 H 0.01796 0.93797 0.88445 0.0
H362 H 0.1793 0.23283 0.10383 0.0
H363 H 0.99208 0.90021 0.06139 0.0
H364 H 0.97942 0.86495 0.00468 0.0
H365 H 0.16106 0.20714 0.14811 0.0
H366 H 0.98375 0.85948 0.94701 0.0
N367 N 0.03186 0.97638 0.0289 0.0
C368 C 0.03351 0.97851 0.06144 0.0
C369 C 1.00302 0.9213 0.05204 0.0
C370 C 1.00331 0.918 0.01887 0.0
C371 C 0.01871 0.9516 0.07347 0.0
C372 C 0.01782 0.94641 0.00786 0.0
H373 H 1.00336 0.88565 0.90327 0.0
N374 N 0.03106 0.9717 0.96517 0.0
C375 C 0.01884 0.93912 0.91003 0.0
C376 C 0.01898 0.94363 0.97534 0.0
C377 C 0.02857 0.97005 0.93265 0.0
C378 C 0.00994 0.9098 0.92063 0.0
C379 C 0.00744 0.912 0.95318 0.0
O380 O 0.01443 0.02557 0.96858 0.0
O381 O 0.07275 0.07901 0.02753 0.0
O382 O 0.08569 0.0693 0.08645 0.0
O383 O 0.03897 0.04526 0.0582 0.0
O384 O 0.05654 0.06563 0.97878 0.0
O385 O 1.00332 0.02139 0.01666 0.0
O386 O 0.15094 0.07388 0.08328 0.0
O387 O 0.09075 0.0129 0.02349 0.0
O388 O 0.07869 0.01662 0.96459 0.0
O389 O 0.12472 0.04788 0.99221 0.0
O390 O 0.10925 0.02592 0.07106 0.0
O391 O 0.15978 0.0682 0.03322 0.0
C392 C 0.06754 0.09119 1.00302 0.0
C393 C 0.9643 0.02263 0.97647 0.0
C394 C 0.91893 0.03582 0.9869 0.0
C395 C 0.94776 0.03669 0.99804 0.0
C396 C 0.90678 0.02108 0.95425 0.0
C397 C 0.95202 1.0081 0.94384 0.0
C398 C 0.92331 1.00732 0.93283 0.0
C399 C 0.0566 0.06099 0.08639 0.0
C400 C 0.99446 0.02336 0.98762 0.0
C401 C 0.99323 0.88375 0.96392 0.0
C402 C 0.9906 0.8869 0.99666 0.0
C403 C 0.09646 1.00012 0.04753 0.0
C404 C 0.2005 0.07407 0.07517 0.0
C405 C 0.21835 0.06283 0.05349 0.0
C406 C 0.24417 0.05612 0.06515 0.0
C407 C 0.25244 0.06247 0.09883 0.0
C408 C 0.20988 0.08165 0.10862 0.0
C409 C 0.23566 0.07573 0.12032 0.0
C410 C 0.10778 0.02893 0.96438 0.0
C411 C 0.16999 0.07189 0.06348 0.0
H412 H 0.95717 0.04815 0.02323 0.0
H413 H 0.88448 0.02033 0.94537 0.0
H414 H 0.96456 0.99713 0.92693 0.0
H415 H 0.91382 0.99598 0.9077 0.0
H416 H 0.21138 0.0579 0.0277 0.0
H417 H 0.27148 0.05627 0.10849 0.0
H418 H 0.19649 0.09045 0.12581 0.0
H419 H 0.24175 0.08 0.14612 0.0
Eu420 Eu 0.33802 0.78091 0.24129 0.0
C421 C 0.303 0.88039 0.35106 0.0
C422 C 0.35003 0.91199 0.3847 0.0
C423 C 0.30711 0.93201 0.3913 0.0
C424 C 0.33256 0.8836 0.36068 0.0
C425 C 0.28999 0.90453 0.36663 0.0
C426 C 0.33708 0.93586 0.40015 0.0
C427 C 0.24319 0.8714 0.33449 0.0
N428 N 0.28661 0.85298 0.32778 0.0
C429 C 0.25676 0.84792 0.32015 0.0
C430 C 0.25984 0.89983 0.35786 0.0
Eu431 Eu 0.3086 0.8085 0.31582 0.0
N432 N 0.3442 0.85901 0.3469 0.0
C433 C 0.37389 0.86334 0.35371 0.0
C434 C 0.38005 0.91556 0.39273 0.0
C435 C 0.39214 0.89152 0.37662 0.0
H436 H 0.24278 0.82484 0.30403 0.0
H437 H 0.41554 0.89452 0.38203 0.0
H438 H 0.35005 0.95737 0.41908 0.0
H439 H 0.21962 0.86694 0.32828 0.0
H440 H 0.38408 0.84561 0.34139 0.0
H441 H 0.25782 0.71776 0.12932 0.0
H442 H 0.39417 0.93704 0.41094 0.0
H443 H 0.402 0.76582 0.2527 0.0
H444 H 0.28532 0.76429 0.17364 0.0
H445 H 0.42573 0.72149 0.23912 0.0
H446 H 0.29734 0.95042 0.40375 0.0
H447 H 0.27066 0.66466 0.11955 0.0
H448 H 0.30611 0.63412 0.13201 0.0
H449 H 0.24908 0.91759 0.36954 0.0
H450 H 0.35257 0.63501 0.16224 0.0
N451 N 0.30937 0.73631 0.19583 0.0
C452 C 0.28923 0.74042 0.17301 0.0
C453 C 0.28158 0.68442 0.14094 0.0
C454 C 0.30483 0.68165 0.16141 0.0
C455 C 0.27422 0.71428 0.1464 0.0
C456 C 0.31847 0.70819 0.18914 0.0
H457 H 0.3975 0.6675 0.2018 0.0
N458 N 0.35884 0.73543 0.23101 0.0
C459 C 0.40236 0.71648 0.23107 0.0
C460 C 0.34412 0.7079 0.20706 0.0
C461 C 0.38846 0.74118 0.24018 0.0
C462 C 0.3864 0.68623 0.20987 0.0
C463 C 0.35737 0.68214 0.19648 0.0
O464 O 0.38304 0.80816 0.23699 0.0
O465 O 0.34213 0.82251 0.28465 0.0
O466 O 0.28146 0.81901 0.27278 0.0
O467 O 0.29145 0.78585 0.22712 0.0
O468 O 0.3383 0.83318 0.23949 0.0
O469 O 0.34911 0.78717 0.19447 0.0
O470 O 0.26472 0.78384 0.32574 0.0
O471 O 0.30376 0.76805 0.27134 0.0
O472 O 0.3658 0.77347 0.2876 0.0
O473 O 0.34834 0.79313 0.33558 0.0
O474 O 0.30286 0.75369 0.31487 0.0
O475 O 0.30059 0.81272 0.36538 0.0
C476 C 0.34147 0.84516 0.27029 0.0
C477 C 0.3928 0.82648 0.18916 0.0
C478 C 0.39302 0.86495 0.15517 0.0
C479 C 0.37903 0.84697 0.17608 0.0
C480 C 0.42082 0.86277 0.14771 0.0
C481 C 0.42061 0.82454 0.18187 0.0
C482 C 0.4346 0.84272 0.16118 0.0
C483 C 0.27593 0.80521 0.24103 0.0
C484 C 0.3769 0.80251 0.2057 0.0
C485 C 0.34271 0.65488 0.17047 0.0
C486 C 0.31633 0.65447 0.15317 0.0
C487 C 0.30085 0.74376 0.28393 0.0
C488 C 0.26012 0.77464 0.37809 0.0
C489 C 0.27564 0.75493 0.38985 0.0
C490 C 0.26448 0.73773 0.41254 0.0
C491 C 0.2379 0.74014 0.42354 0.0
C492 C 0.23357 0.77711 0.38902 0.0
C493 C 0.22247 0.75982 0.41173 0.0
C494 C 0.36753 0.77999 0.3203 0.0
C495 C 0.27265 0.79556 0.35705 0.0
H496 H 0.35701 0.84752 0.18065 0.0
H497 H 0.43129 0.87554 0.13042 0.0
H498 H 0.43091 0.80784 0.19112 0.0
H499 H 0.45564 0.84039 0.15474 0.0
H500 H 0.2965 0.75354 0.38198 0.0
H501 H 0.2294 0.72719 0.4416 0.0
H502 H 0.2218 0.79298 0.38048 0.0
H503 H 0.20218 0.76202 0.4205 0.0
Eu504 Eu 0.61307 0.04327 0.50714 0.0
C505 C 0.508 0.98145 0.57025 0.0
C506 C 0.47795 0.93619 0.52581 0.0
C507 C 0.47642 0.93087 0.58121 0.0
C508 C 0.49902 0.96805 0.53728 0.0
C509 C 0.49623 0.9633 0.59259 0.0
C510 C 0.46727 0.91737 0.54789 0.0
C511 C 0.52152 0.01215 0.63575 0.0
N512 N 0.5267 0.01311 0.58053 0.0
C513 C 0.53223 0.0293 0.61265 0.0
C514 C 0.5038 0.97882 0.62571 0.0
Eu515 Eu 0.54405 0.04008 0.53971 0.0
N516 N 0.50946 0.98698 0.51653 0.0
C517 C 0.49867 0.97635 0.48425 0.0
C518 C 0.46743 0.92472 0.49259 0.0
C519 C 0.47748 0.94514 0.4718 0.0
H520 H 0.54555 0.05526 0.62031 0.0
H521 H 0.46913 0.93674 0.44615 0.0
H522 H 0.45128 0.89275 0.5395 0.0
H523 H 0.52671 0.02472 0.66123 0.0
H524 H 0.50643 0.9918 0.46795 0.0
H525 H 0.6862 0.15162 0.60175 0.0
H526 H 0.45111 0.90051 0.48286 0.0
H527 H 0.61054 0.02882 0.42561 0.0
H528 H 0.64779 0.09948 0.58235 0.0
H529 H 0.6347 0.05602 0.38573 0.0
H530 H 0.46733 0.91646 0.59801 0.0
H531 H 0.71243 0.18035 0.56373 0.0
H532 H 0.71965 0.18159 0.50722 0.0
H533 H 0.49525 0.9657 0.64363 0.0
H534 H 0.7055 0.15623 0.449 0.0
N535 N 0.64976 0.09632 0.53145 0.0
C536 C 0.65802 0.11043 0.56419 0.0
C537 C 0.695 0.15692 0.55443 0.0
C538 C 0.68714 0.14268 0.52122 0.0
C539 C 0.68028 0.14077 0.57592 0.0
C540 C 0.66404 0.11212 0.51014 0.0
H541 H 0.67367 0.11032 0.40381 0.0
N542 N 0.63311 0.06909 0.46643 0.0
C543 C 0.64052 0.06839 0.41124 0.0
C544 C 0.6556 0.09813 0.47699 0.0
C545 C 0.62649 0.05339 0.43405 0.0
C546 C 0.66258 0.09891 0.42156 0.0
C547 C 0.67071 0.11392 0.45466 0.0
O548 O 0.62513 1.00413 0.47435 0.0
O549 O 0.56671 1.00802 0.50711 0.0
O550 O 0.57118 0.02122 0.57236 0.0
O551 O 0.61526 0.04992 0.55981 0.0
O552 O 0.60286 0.99088 0.51488 0.0
O553 O 0.65464 0.03263 0.51948 0.0
O554 O 0.52759 0.07884 0.56669 0.0
O555 O 0.58424 0.07565 0.52699 0.0
O556 O 0.58117 0.04382 0.46616 0.0
O557 O 0.54021 0.04958 0.49076 0.0
O558 O 0.57385 0.08923 0.57266 0.0
O559 O 0.50115 0.04585 0.52207 0.0
C560 C 0.57463 0.98245 0.51179 0.0
C561 C 0.67444 1.00017 0.47904 0.0
C562 C 0.71537 0.97593 0.48133 0.0
C563 C 0.69072 0.9827 0.49387 0.0
C564 C 0.7226 0.98489 0.45262 0.0
C565 C 0.68197 1.00905 0.45039 0.0
C566 C 0.70576 1.00102 0.43706 0.0
C567 C 0.60001 0.03 0.57568 0.0
C568 C 0.64938 1.00785 0.49361 0.0
C569 C 0.69374 0.14394 0.46584 0.0
C570 C 0.70185 0.15832 0.49899 0.0
C571 C 0.59005 0.10023 0.55206 0.0
C572 C 0.47717 0.07734 0.55864 0.0
C573 C 0.45908 0.09062 0.54069 0.0
C574 C 0.4366 0.1019 0.55428 0.0
C575 C 0.43197 0.09933 0.58577 0.0
C576 C 0.47201 0.07446 0.58995 0.0
C577 C 0.44943 0.08538 0.60336 0.0
C578 C 0.55566 0.05005 0.46672 0.0
C579 C 0.50367 0.07156 0.546 0.0
H580 H 0.68464 0.97485 0.51539 0.0
H581 H 0.74169 0.98005 0.44266 0.0
H582 H 0.66958 0.02208 0.43834 0.0
H583 H 0.71156 1.00795 0.41498 0.0
H584 H 0.46325 0.09346 0.51672 0.0
H585 H 0.41485 0.10815 0.5967 0.0
H586 H 0.48592 0.06471 0.60433 0.0
H587 H 0.44578 0.08357 0.62767 0.0
Eu588 Eu 0.29564 0.30293 0.77423 0.0
C589 C 0.40338 0.26579 0.8374 0.0
C590 C 0.42568 0.31576 0.88058 0.0
C591 C 0.43573 0.26363 0.88385 0.0
C592 C 0.40748 0.29938 0.85041 0.0
C593 C 0.41773 0.24755 0.85385 0.0
C594 C 0.43971 0.29769 0.89719 0.0
C595 C 0.39736 0.19949 0.80871 0.0
N596 N 0.38592 0.25107 0.80831 0.0
C597 C 0.38391 0.21875 0.79322 0.0
C598 C 0.41407 0.21385 0.83934 0.0
Eu599 Eu 0.36609 0.2857 0.78118 0.0
N600 N 0.39353 0.31603 0.83373 0.0
C601 C 0.39709 0.3493 0.84635 0.0
C602 C 0.42928 0.34982 0.89322 0.0
C603 C 0.41472 0.36662 0.87605 0.0
H604 H 0.37232 0.20802 0.76877 0.0
H605 H 0.41677 0.39285 0.88582 0.0
H606 H 0.45374 0.30986 0.9203 0.0
H607 H 0.39531 0.17378 0.79673 0.0
H608 H 0.38489 0.36221 0.83466 0.0
H609 H 0.23453 0.18956 0.67882 0.0
H610 H 0.44298 0.36327 0.91627 0.0
H611 H 0.29162 0.38127 0.78098 0.0
H612 H 0.26515 0.2202 0.7299 0.0
H613 H 0.27401 0.41477 0.74737 0.0
H614 H 0.44689 0.25001 0.89679 0.0
H615 H 0.2182 0.21971 0.64093 0.0
H616 H 0.21659 0.274 0.62904 0.0
H617 H 0.42471 0.19901 0.85117 0.0
H618 H 0.22782 0.33522 0.64726 0.0
N619 N 0.26672 0.26921 0.72343 0.0
C620 C 0.25831 0.23474 0.71485 0.0
C621 C 0.23174 0.23381 0.6639 0.0
C622 C 0.23968 0.26882 0.67273 0.0
C623 C 0.24079 0.21673 0.68525 0.0
C624 C 0.25715 0.28608 0.70314 0.0
H625 H 0.249 0.38774 0.69122 0.0
N626 N 0.2786 0.3363 0.74346 0.0
C627 C 0.27115 0.38839 0.73736 0.0
C628 C 0.26345 0.32059 0.71337 0.0
C629 C 0.28121 0.36939 0.75623 0.0
C630 C 0.25708 0.37306 0.7057 0.0
C631 C 0.25245 0.33865 0.69356 0.0
O632 O 0.27532 0.32813 0.81153 0.0
O633 O 0.32986 0.2952 0.80909 0.0
O634 O 0.33359 0.23653 0.7876 0.0
O635 O 0.2888 0.24845 0.78019 0.0
O636 O 0.31852 0.33974 0.82087 0.0
O637 O 0.25119 0.27808 0.7839 0.0
O638 O 0.38739 0.26276 0.74336 0.0
O639 O 0.33126 0.29296 0.74655 0.0
O640 O 0.32914 0.35043 0.76564 0.0
O641 O 0.37476 0.3422 0.7792 0.0
O642 O 0.34308 0.24931 0.73333 0.0
O643 O 0.40981 0.31294 0.77203 0.0
C644 C 0.33219 0.32094 0.83179 0.0
C645 C 0.22375 0.31228 0.81149 0.0
C646 C 0.17844 0.30602 0.83587 0.0
C647 C 0.20306 0.29493 0.82845 0.0
C648 C 0.17496 0.33458 0.82658 0.0
C649 C 0.21966 0.34071 0.80239 0.0
C650 C 0.19544 0.35179 0.81001 0.0
C651 C 0.30412 0.22719 0.78458 0.0
C652 C 0.25133 0.3033 0.80733 0.0
C653 C 0.23624 0.32172 0.66282 0.0
C654 C 0.22983 0.28687 0.65246 0.0
C655 C 0.32784 0.26727 0.72357 0.0
C656 C 0.43905 0.28053 0.74608 0.0
C657 C 0.45682 0.29315 0.72431 0.0
C658 C 0.48164 0.28234 0.71793 0.0
C659 C 0.48864 0.25889 0.73344 0.0
C660 C 0.44695 0.25799 0.76224 0.0
C661 C 0.47145 0.24698 0.75569 0.0
C662 C 0.35862 0.36176 0.77183 0.0
C663 C 0.41088 0.28833 0.74862 0.0
H664 H 0.20642 0.27352 0.83645 0.0
H665 H 0.15658 0.34399 0.83278 0.0
H666 H 0.23557 0.35496 0.7902 0.0
H667 H 0.19277 0.37412 0.80348 0.0
H668 H 0.45099 0.31067 0.71177 0.0
H669 H 0.5078 0.25037 0.72884 0.0
H670 H 0.43421 0.24863 0.77963 0.0
H671 H 0.47713 0.22921 0.7679 0.0
Eu672 Eu 0.07319 0.07907 0.54188 0.0
C673 C 0.08978 0.96926 0.43336 0.0
C674 C 0.04091 0.95018 0.4016 0.0
C675 C 0.08234 0.93863 0.37681 0.0
C676 C 0.06 0.96682 0.43118 0.0
C677 C 0.10121 0.95495 0.40619 0.0
C678 C 0.05226 0.93623 0.37453 0.0
C679 C 0.14885 0.97171 0.43954 0.0
N680 N 0.10748 0.98478 0.46216 0.0
C681 C 0.13643 0.98494 0.46584 0.0
C682 C 0.13121 0.95684 0.40949 0.0
Eu683 Eu 0.08468 1.00402 0.50686 0.0
N684 N 0.04963 0.98051 0.45784 0.0
C685 C 0.02003 0.97772 0.45618 0.0
C686 C 0.0109 0.94782 0.40001 0.0
C687 C 1.00046 0.96173 0.42742 0.0
H688 H 0.14995 0.99504 0.48936 0.0
H689 H 0.97724 0.96015 0.42647 0.0
H690 H 0.03791 0.92337 0.35174 0.0
H691 H 0.17192 0.97249 0.44261 0.0
H692 H 0.01099 0.98862 0.47648 0.0
H693 H 0.18276 0.1268 0.61749 0.0
H694 H 0.99561 0.93527 0.3778 0.0
H695 H 0.00696 0.08374 0.56268 0.0
H696 H 0.14719 0.0942 0.56969 0.0
H697 H 0.98732 0.1103 0.60918 0.0
H698 H 0.09075 0.9275 0.35578 0.0
H699 H 0.16625 0.15608 0.66544 0.0
H700 H 0.12507 0.1704 0.69209 0.0
H701 H 0.14079 0.94621 0.3892 0.0
H702 H 0.07219 0.16537 0.69012 0.0
N703 N 0.10949 0.10374 0.58937 0.0
C704 C 0.139 0.10658 0.58994 0.0
C705 C 0.15017 0.14147 0.64434 0.0
C706 C 0.12016 0.13889 0.64382 0.0
C707 C 0.15957 0.12505 0.61734 0.0
C708 C 0.10002 0.11952 0.61571 0.0
H709 H 0.02089 0.14267 0.65978 0.0
N710 N 0.05114 0.09777 0.58749 0.0
C711 C 0.01056 0.11183 0.61128 0.0
C712 C 0.07008 0.11634 0.61477 0.0
C713 C 0.02178 0.09624 0.58517 0.0
C714 C 0.02959 0.13018 0.63971 0.0
C715 C 0.05973 0.13294 0.64165 0.0
O716 O 0.04839 0.11298 0.53238 0.0
O717 O 0.07292 0.04827 0.49078 0.0
O718 O 0.12571 0.04212 0.49772 0.0
O719 O 0.11648 0.09153 0.52177 0.0
O720 O 0.0359 0.06334 0.49931 0.0
O721 O 0.097 0.1306 0.54033 0.0
O722 O 0.10787 0.9699 0.52007 0.0
O723 O 0.08536 0.0353 0.5581 0.0
O724 O 0.03262 0.04116 0.55116 0.0
O725 O 0.04002 0.9917 0.5245 0.0
O726 O 0.12261 0.02098 0.54907 0.0
O727 O 0.0598 0.95357 0.51024 0.0
C728 C 0.04854 0.0507 0.47634 0.0
C729 C 0.07052 0.17036 0.53132 0.0
C730 C 0.08752 0.21926 0.51006 0.0
C731 C 0.09061 0.18892 0.51502 0.0
C732 C 0.06482 0.2314 0.52193 0.0
C733 C 0.0478 0.18257 0.54312 0.0
C734 C 0.04512 0.21315 0.53857 0.0
C735 C 0.13334 0.0753 0.50645 0.0
C736 C 0.0722 0.13753 0.53464 0.0
C737 C 0.07976 0.15236 0.6694 0.0
C738 C 0.10988 0.15529 0.67049 0.0
C739 C 0.11011 0.03345 0.57233 0.0
C740 C 0.08431 0.91173 0.51505 0.0
C741 C 0.06978 0.89268 0.53513 0.0
C742 C 0.07161 0.86015 0.53378 0.0
C743 C 0.08848 0.84681 0.51204 0.0
C744 C 0.10104 0.89819 0.49341 0.0
C745 C 0.10307 0.86577 0.49197 0.0
C746 C 0.02392 1.00823 0.54084 0.0
C747 C 0.08369 0.9466 0.51987 0.0
H748 H 0.1079 0.17935 0.50534 0.0
H749 H 0.06223 0.25484 0.518 0.0
H750 H 0.03212 0.16843 0.55575 0.0
H751 H 0.02756 0.22251 0.54763 0.0
H752 H 0.05784 0.90366 0.55269 0.0
H753 H 0.09015 0.82169 0.5104 0.0
H754 H 0.11278 0.91275 0.47807 0.0
H755 H 0.11608 0.85536 0.47535 0.0
Eu756 Eu 0.36888 0.8201 0.76811 0.0
C757 C 0.2901 0.71667 0.82854 0.0
C758 C 0.29322 0.66456 0.79488 0.0
C759 C 0.28173 0.66648 0.8494 0.0
C760 C 0.29494 0.69888 0.79932 0.0
C761 C 0.28257 0.70027 0.85349 0.0
C762 C 0.28717 0.64872 0.82023 0.0
C763 C 0.27321 0.75037 0.88312 0.0
N764 N 0.29046 0.74917 0.83174 0.0
C765 C 0.28045 0.76536 0.85764 0.0
C766 C 0.27474 0.71784 0.88128 0.0
Eu767 Eu 0.30098 0.77216 0.78665 0.0
N768 N 0.29952 0.7144 0.77467 0.0
C769 C 0.30169 0.69648 0.74475 0.0
C770 C 0.29668 0.64673 0.76472 0.0
C771 C 0.30073 0.66273 0.73952 0.0
H772 H 0.27749 0.7897 0.85813 0.0
H773 H 0.30304 0.64905 0.71595 0.0
H774 H 0.28579 0.62243 0.81717 0.0
H775 H 0.26582 0.76362 0.9038 0.0
H776 H 0.30481 0.70782 0.7246 0.0
H777 H 0.38064 0.94672 0.84028 0.0
H778 H 0.2956 0.62043 0.76045 0.0
H779 H 0.38933 0.79932 0.69553 0.0
H780 H 0.3715 0.88614 0.83049 0.0
H781 H 0.39904 0.82322 0.64822 0.0
H782 H 0.27611 0.65358 0.86835 0.0
H783 H 0.38673 0.97437 0.79501 0.0
H784 H 0.39096 0.96993 0.73642 0.0
H785 H 0.26864 0.70602 0.90082 0.0
H786 H 0.39518 0.93611 0.68379 0.0
N787 N 0.37328 0.87836 0.77968 0.0
C788 C 0.37432 0.89726 0.81017 0.0
C789 C 0.38289 0.94747 0.79039 0.0
C790 C 0.3824 0.92828 0.75937 0.0
C791 C 0.37947 0.93197 0.81599 0.0
C792 C 0.37792 0.89338 0.75475 0.0
H793 H 0.39828 0.88147 0.65067 0.0
N794 N 0.37915 0.84168 0.72237 0.0
C795 C 0.39339 0.83771 0.66947 0.0
C796 C 0.38063 0.87442 0.72515 0.0
C797 C 0.38727 0.82395 0.69594 0.0
C798 C 0.39297 0.8706 0.67097 0.0
C799 C 0.38747 0.88974 0.6994 0.0
O800 O 0.41003 0.80913 0.75909 0.0
O801 O 0.34943 0.7711 0.78376 0.0
O802 O 0.32936 0.79231 0.83463 0.0
O803 O 0.36904 0.82982 0.82122 0.0
O804 O 0.37184 0.76706 0.74512 0.0
O805 O 0.41027 0.84961 0.7997 0.0
O806 O 0.26022 0.7829 0.79463 0.0
O807 O 0.32311 0.82397 0.77819 0.0
O808 O 0.33647 0.80879 0.72368 0.0
O809 O 0.30371 0.76265 0.734 0.0
O810 O 0.28434 0.81903 0.7954 0.0
O811 O 0.25917 0.73928 0.75647 0.0
C812 C 0.36037 0.75027 0.76525 0.0
C813 C 0.45513 0.85115 0.77887 0.0
C814 C 0.50799 0.86052 0.79045 0.0
C815 C 0.4793 0.84664 0.79627 0.0
C816 C 0.51248 0.87985 0.7675 0.0
C817 C 0.45954 0.87046 0.75594 0.0
C818 C 0.48826 0.88494 0.75045 0.0
C819 C 0.35452 0.81632 0.84215 0.0
C820 C 0.42582 0.83278 0.7836 0.0
C821 C 0.39012 0.92399 0.70336 0.0
C822 C 0.38771 0.94325 0.73333 0.0
C823 C 0.30309 0.83995 0.78402 0.0
C824 C 0.21442 0.74244 0.77797 0.0
C825 C 0.19095 0.73529 0.75303 0.0
C826 C 0.16208 0.72847 0.75996 0.0
C827 C 0.15646 0.72856 0.79167 0.0
C828 C 0.20865 0.74212 0.80969 0.0
C829 C 0.17974 0.73521 0.81646 0.0
C830 C 0.31402 0.78163 0.71469 0.0
C831 C 0.24408 0.75769 0.77167 0.0
H832 H 0.4757 0.83124 0.81367 0.0
H833 H 0.53459 0.89101 0.76292 0.0
H834 H 0.44096 0.87394 0.7421 0.0
H835 H 0.49173 0.89977 0.73269 0.0
H836 H 0.19518 0.73664 0.7287 0.0
H837 H 0.13408 0.72404 0.79723 0.0
H838 H 0.22635 0.74872 0.82952 0.0
H839 H 0.17545 0.73589 0.84103 0.0
Eu840 Eu 0.58375 0.04095 0.05984 0.0
C841 C 0.50694 0.06345 0.94507 0.0
C842 C 0.48218 1.00708 0.91236 0.0
C843 C 0.45998 0.05191 0.91056 0.0
C844 C 0.50611 0.02985 0.93505 0.0
C845 C 0.4842 0.07484 0.93217 0.0
C846 C 0.45897 0.01816 0.90068 0.0
C847 C 0.51245 0.13159 0.95976 0.0
N848 N 0.53069 0.08538 0.96579 0.0
C849 C 0.53447 0.11929 0.97176 0.0
C850 C 0.48698 0.10922 0.94027 0.0
Eu851 Eu 0.56859 0.0625 0.98075 0.0
N852 N 0.52887 0.01954 0.94659 0.0
C853 C 0.52914 0.98705 0.93609 0.0
C854 C 0.48243 0.97385 0.90155 0.0
C855 C 0.50602 0.96383 0.91341 0.0
H856 H 0.55435 0.13684 0.98655 0.0
H857 H 0.50644 0.93818 0.9051 0.0
H858 H 0.44038 1.00091 0.88347 0.0
H859 H 0.51525 0.15831 0.96537 0.0
H860 H 0.54695 0.97858 0.94498 0.0
H861 H 0.65951 0.16474 0.12396 0.0
H862 H 0.46461 0.95584 0.88391 0.0
H863 H 0.59099 0.96461 0.05788 0.0
H864 H 0.61807 0.12611 0.0845 0.0
H865 H 0.62517 0.93888 0.08282 0.0
H866 H 0.44227 0.06022 0.90066 0.0
H867 H 0.69306 0.14299 0.15486 0.0
H868 H 0.70779 0.09363 0.16549 0.0
H869 H 0.47002 0.11885 0.93076 0.0
H870 H 0.69924 0.03256 0.1534 0.0
N871 N 0.62623 0.08162 0.09356 0.0
C872 C 0.63168 0.1156 0.0981 0.0
C873 C 0.67442 0.12556 0.13783 0.0
C874 C 0.66943 0.09089 0.1325 0.0
C875 C 0.65556 0.13793 0.12039 0.0
C876 C 0.6447 0.06923 0.1102 0.0
H877 H 0.66909 0.97489 0.12202 0.0
N878 N 0.61666 0.01463 0.08079 0.0
C879 C 0.62971 0.96589 0.08862 0.0
C880 C 0.63988 0.03475 0.10344 0.0
C881 C 0.61065 0.98052 0.07424 0.0
C882 C 0.65438 0.98629 0.11087 0.0
C883 C 0.65959 0.02113 0.11879 0.0
O884 O 0.55437 1.00563 0.08075 0.0
O885 O 0.55125 0.03981 0.01919 0.0
O886 O 0.54564 0.0884 0.0163 0.0
O887 O 0.57083 0.09002 0.06611 0.0
O888 O 0.54224 0.99787 0.03571 0.0
O889 O 0.57099 0.05855 0.10698 0.0
O890 O 0.58919 0.10512 0.96214 0.0
O891 O 0.60109 0.06318 0.0207 0.0
O892 O 0.60209 1.00789 0.0233 0.0
O893 O 0.59033 0.01992 0.97307 0.0
O894 O 0.61205 0.10359 1.00188 0.0
O895 O 0.57872 0.05268 0.93176 0.0
C896 C 0.53159 0.0128 0.01633 0.0
C897 C 0.5535 0.01768 0.13667 0.0
C898 C 0.52505 1.0082 0.17975 0.0
C899 C 0.53101 0.02314 0.15415 0.0
C900 C 0.54233 0.98835 0.18846 0.0
C901 C 0.57089 0.99814 0.14548 0.0
C902 C 0.56531 0.98358 0.17149 0.0
C903 C 0.55311 0.1006 0.04766 0.0
C904 C 0.55482 0.02833 0.10668 0.0
C905 C 0.68391 0.04259 0.14134 0.0
C906 C 0.68876 0.07737 0.14827 0.0
C907 C 0.62228 0.08808 0.02085 0.0
C908 C 0.59918 0.09829 0.9077 0.0
C909 C 0.61845 0.08397 0.89167 0.0
C910 C 0.633 0.09864 0.86939 0.0
C911 C 0.62721 0.12697 0.86165 0.0
C912 C 0.5931 0.12664 0.90053 0.0
C913 C 0.60691 0.14073 0.87704 0.0
C914 C 0.60253 1.00402 0.99168 0.0
C915 C 0.58826 0.08515 0.93405 0.0
H916 H 0.51743 0.038 0.1472 0.0
H917 H 0.53829 0.97692 0.20866 0.0
H918 H 0.58814 0.99347 0.1319 0.0
H919 H 0.57852 0.96827 0.17826 0.0
H920 H 0.62346 0.06244 0.89787 0.0
H921 H 0.63841 0.13835 0.84396 0.0
H922 H 0.57808 0.13793 0.91324 0.0
H923 H 0.60236 0.16258 0.87129 0.0
Eu924 Eu 0.34512 0.33089 0.28644 0.0
C925 C 0.23521 0.20835 0.22961 0.0
C926 C 0.21077 0.19806 0.27561 0.0
C927 C 0.18799 0.16502 0.22147 0.0
C928 C 0.23537 0.21451 0.26275 0.0
C929 C 0.21148 0.1833 0.2086 0.0
C930 C 0.18734 0.17282 0.25485 0.0
C931 C 0.23558 0.1962 0.16359 0.0
N932 N 0.25871 0.22611 0.21816 0.0
C933 C 0.25849 0.22095 0.18521 0.0
C934 C 0.21248 0.17663 0.17537 0.0
Eu935 Eu 0.30268 0.24511 0.25737 0.0
N936 N 0.25911 0.23778 0.28224 0.0
C937 C 0.25787 0.24886 0.3144 0.0
C938 C 0.21028 0.20785 0.30886 0.0
C939 C 0.23353 0.23411 0.32815 0.0
H940 H 0.27714 0.23276 0.17483 0.0
H941 H 0.23294 0.24274 0.35372 0.0
H942 H 0.16859 0.15931 0.26435 0.0
H943 H 0.23653 0.1911 0.13784 0.0
H944 H 0.27521 0.26928 0.3297 0.0
H945 H 0.41562 0.36202 0.19459 0.0
H946 H 0.19168 0.19606 0.31966 0.0
H947 H 0.36707 0.34676 0.36783 0.0
H948 H 0.37027 0.34828 0.21647 0.0
H949 H 0.41187 0.36972 0.40619 0.0
H950 H 0.17 0.1451 0.20581 0.0
H951 H 0.46312 0.37411 0.22932 0.0
H952 H 0.48999 0.38542 0.28446 0.0
H953 H 0.19574 0.15627 0.15862 0.0
H954 H 0.48888 0.38951 0.34225 0.0
N955 N 0.38914 0.34271 0.2616 0.0
C956 C 0.38958 0.34845 0.23119 0.0
C957 C 0.44265 0.36519 0.23857 0.0
C958 C 0.44262 0.36357 0.27081 0.0
C959 C 0.41595 0.35817 0.21886 0.0
C960 C 0.41526 0.35168 0.28186 0.0
H961 H 0.45979 0.38519 0.38744 0.0
N962 N 0.38839 0.34263 0.32523 0.0
C963 C 0.41317 0.36397 0.38053 0.0
C964 C 0.41483 0.35254 0.31453 0.0
C965 C 0.38753 0.34958 0.35806 0.0
C966 C 0.44023 0.37268 0.36982 0.0
C967 C 0.44148 0.36723 0.3367 0.0
O968 O 0.34098 0.36877 0.32779 0.0
O969 O 0.29966 0.29553 0.28411 0.0
O970 O 0.31327 0.26917 0.21425 0.0
O971 O 0.32771 0.32706 0.23401 0.0
O972 O 0.30233 0.33677 0.26545 0.0
O973 O 0.36158 0.38373 0.28755 0.0
O974 O 0.30304 0.20455 0.21663 0.0
O975 O 0.347 0.28166 0.25937 0.0
O976 O 0.33646 0.30385 0.32831 0.0
O977 O 0.31724 0.24606 0.30952 0.0
O978 O 0.34702 0.2391 0.27426 0.0
O979 O 0.29104 0.19335 0.2618 0.0
C980 C 0.28412 0.3122 0.27339 0.0
C981 C 0.34868 0.42534 0.32424 0.0
C982 C 0.32962 0.46717 0.30712 0.0
C983 C 0.33116 0.43418 0.30175 0.0
C984 C 0.34528 0.49097 0.33552 0.0
C985 C 0.36352 0.44889 0.35292 0.0
C986 C 0.3616 0.4816 0.35859 0.0
C987 C 0.31918 0.30001 0.20963 0.0
C988 C 0.35524 0.39348 0.31641 0.0
C989 C 0.46843 0.37823 0.3255 0.0
C990 C 0.46905 0.37592 0.2926 0.0
C991 C 0.36376 0.26625 0.26911 0.0
C992 C 0.30206 0.15067 0.22358 0.0
C993 C 0.31941 0.14216 0.24643 0.0
C994 C 0.32657 0.11212 0.2384 0.0
C995 C 0.31632 0.09023 0.20776 0.0
C996 C 0.2918 0.12891 0.19271 0.0
C997 C 0.29898 0.09875 0.18493 0.0
C998 C 0.3289 0.27308 0.33343 0.0
C999 C 0.29332 0.18129 0.23171 0.0
H1000 H 0.31955 0.41568 0.27972 0.0
H1001 H 0.34542 0.51696 0.33967 0.0
H1002 H 0.3774 0.44225 0.37034 0.0
H1003 H 0.37335 0.50008 0.3804 0.0
H1004 H 0.32796 0.15917 0.27011 0.0
H1005 H 0.32233 0.06715 0.20136 0.0
H1006 H 0.27828 0.13528 0.17474 0.0
H1007 H 0.29161 0.08213 0.16117 0.0
Eu1008 Eu 0.57325 0.58148 0.03974 0.0
C1009 C 0.59189 0.47556 0.93004 0.0
C1010 C 0.54223 0.44972 0.90015 0.0
C1011 C 0.58432 0.44333 0.87391 0.0
C1012 C 0.56149 0.46933 0.92889 0.0
C1013 C 0.60345 0.4622 0.90247 0.0
C1014 C 0.55382 0.43708 0.87277 0.0
C1015 C 0.65206 0.4837 0.93398 0.0
N1016 N 0.61002 0.49278 0.95837 0.0
C1017 C 0.63973 0.4959 0.96076 0.0
C1018 C 0.63389 0.46694 0.90465 0.0
Eu1019 Eu 0.58601 0.50526 1.00442 0.0
N1020 N 0.55063 0.48112 0.95596 0.0
C1021 C 0.5206 0.47413 0.95533 0.0
C1022 C 0.51171 0.44232 0.8999 0.0
C1023 C 0.50089 0.45446 0.92766 0.0
H1024 H 0.65403 0.50638 0.98379 0.0
H1025 H 0.47727 0.44914 0.92768 0.0
H1026 H 0.53931 0.42193 0.8507 0.0
H1027 H 0.67551 0.48633 0.93627 0.0
H1028 H 0.51107 0.48418 0.97555 0.0
H1029 H 0.68352 0.64027 0.11118 0.0
H1030 H 0.49632 0.42715 0.87845 0.0
H1031 H 0.50777 0.58705 0.05993 0.0
H1032 H 0.64785 0.60384 0.06481 0.0
H1033 H 0.48726 0.61049 0.1075 0.0
H1034 H 0.59288 0.43282 0.85272 0.0
H1035 H 0.66628 0.66357 0.16143 0.0
H1036 H 0.62426 0.66876 0.19145 0.0
H1037 H 0.64345 0.45683 0.88412 0.0
H1038 H 0.57087 0.65924 0.19095 0.0
N1039 N 0.6097 0.6071 0.08669 0.0
C1040 C 0.63945 0.61409 0.08574 0.0
C1041 C 0.65027 0.64781 0.14071 0.0
C1042 C 0.61991 0.64032 0.14195 0.0
C1043 C 0.66007 0.63482 0.11238 0.0
C1044 C 0.59984 0.62007 0.11406 0.0
H1045 H 0.51983 0.63794 0.15983 0.0
N1046 N 0.55109 0.59827 0.08569 0.0
C1047 C 0.51039 0.61149 0.10977 0.0
C1048 C 0.5697 0.61502 0.11369 0.0
C1049 C 0.52205 0.59792 0.08299 0.0
C1050 C 0.52883 0.62694 0.13923 0.0
C1051 C 0.55898 0.62964 0.1413 0.0
O1052 O 0.54795 0.61394 0.02821 0.0
O1053 O 0.57204 0.54895 0.98889 0.0
O1054 O 0.62907 0.54541 0.0047 0.0
O1055 O 0.61398 0.59332 0.01467 0.0
O1056 O 0.53479 0.56316 0.99764 0.0
O1057 O 0.59628 0.63407 0.03957 0.0
O1058 O 0.60929 0.46773 0.00581 0.0
O1059 O 0.59314 0.54206 0.05425 0.0
O1060 O 0.5351 0.54263 0.05236 0.0
O1061 O 0.54212 0.49411 0.02284 0.0
O1062 O 0.61114 0.50366 0.0517 0.0
O1063 O 0.56143 0.45501 0.00808 0.0
C1064 C 0.54694 0.54978 0.97448 0.0
C1065 C 0.56799 0.67191 0.0282 0.0
C1066 C 0.58559 0.72444 0.01231 0.0
C1067 C 0.58972 0.69409 0.01648 0.0
C1068 C 0.5595 0.73213 0.01954 0.0
C1069 C 0.54229 0.68028 0.03577 0.0
C1070 C 0.5381 0.71025 0.03139 0.0
C1071 C 0.63348 0.57751 0.00563 0.0
C1072 C 0.57118 0.63954 0.03175 0.0
C1073 C 0.57878 0.64804 0.16955 0.0
C1074 C 0.60918 0.65351 0.16982 0.0
C1075 C 0.60628 0.52727 0.07266 0.0
C1076 C 0.58534 0.41147 0.01102 0.0
C1077 C 0.56536 0.39375 0.02823 0.0
C1078 C 0.56811 0.36346 0.03412 0.0
C1079 C 0.59043 0.3506 0.02226 0.0
C1080 C 0.6075 0.39819 0.99916 0.0
C1081 C 0.60988 0.36781 1.00463 0.0
C1082 C 0.52642 0.50976 0.04077 0.0
C1083 C 0.58541 0.44542 0.00874 0.0
H1084 H 0.60962 0.68784 0.01067 0.0
H1085 H 0.55565 0.75513 0.0159 0.0
H1086 H 0.52536 0.66357 0.045 0.0
H1087 H 0.51817 0.71647 0.03708 0.0
H1088 H 0.54863 0.40415 0.03826 0.0
H1089 H 0.59294 0.32741 0.02692 0.0
H1090 H 0.62331 0.41161 0.98615 0.0
H1091 H 0.62718 0.35787 0.99568 0.0
Eu1092 Eu 0.86687 0.32183 0.26787 0.0
C1093 C 0.78332 0.21251 0.32639 0.0
C1094 C 0.76841 0.1582 0.28777 0.0
C1095 C 0.76413 0.1614 0.34449 0.0
C1096 C 0.78058 0.19347 0.29492 0.0
C1097 C 0.77476 0.19653 0.35136 0.0
C1098 C 0.76068 0.14233 0.31274 0.0
C1099 C 0.78312 0.25114 0.38723 0.0
N1100 N 0.7923 0.24654 0.33223 0.0
C1101 C 0.79034 0.26574 0.36152 0.0
C1102 C 0.77568 0.21636 0.38226 0.0
Eu1103 Eu 0.79984 0.26859 0.28617 0.0
N1104 N 0.78871 0.20928 0.27111 0.0
C1105 C 0.78579 0.19099 0.23986 0.0
C1106 C 0.7642 0.13974 0.25564 0.0
C1107 C 0.77327 0.15618 0.23169 0.0
H1108 H 0.79396 0.29236 0.36482 0.0
H1109 H 0.77072 0.14204 0.20687 0.0
H1110 H 0.75172 0.11527 0.30767 0.0
H1111 H 0.78243 0.26664 0.41058 0.0
H1112 H 0.79257 0.2026 0.22063 0.0
H1113 H 0.86594 0.44726 0.3326 0.0
H1114 H 0.75466 0.11271 0.2492 0.0
H1115 H 0.88681 0.29817 0.19533 0.0
H1116 H 0.86055 0.38789 0.32576 0.0
H1117 H 0.89899 0.32134 0.14798 0.0
H1118 H 0.75755 0.14879 0.36338 0.0
H1119 H 0.87761 0.47423 0.28762 0.0
H1120 H 0.88815 0.46917 0.23082 0.0
H1121 H 0.76934 0.20499 0.402 0.0
H1122 H 0.89585 0.43476 0.18029 0.0
N1123 N 0.86827 0.37925 0.27642 0.0
C1124 C 0.8652 0.39832 0.30536 0.0
C1125 C 0.87504 0.44764 0.2842 0.0
C1126 C 0.87841 0.42832 0.25473 0.0
C1127 C 0.86845 0.43255 0.30962 0.0
C1128 C 0.87485 0.39369 0.25144 0.0
H1129 H 0.89959 0.37974 0.1491 0.0
N1130 N 0.87669 0.34126 0.2207 0.0
C1131 C 0.89285 0.33626 0.16858 0.0
C1132 C 0.87886 0.37413 0.22275 0.0
C1133 C 0.88537 0.32295 0.19502 0.0
C1134 C 0.89326 0.36926 0.16936 0.0
C1135 C 0.88697 0.38891 0.19695 0.0
O1136 O 0.90941 0.31284 0.26688 0.0
O1137 O 0.84662 0.26836 0.27579 0.0
O1138 O 0.83533 0.28226 0.32846 0.0
O1139 O 0.85927 0.33292 0.3192 0.0
O1140 O 0.88507 0.27612 0.25871 0.0
O1141 O 0.9069 0.35859 0.29849 0.0
O1142 O 0.76092 0.27798 0.30306 0.0
O1143 O 0.81956 0.32135 0.27741 0.0
O1144 O 0.83706 0.30208 0.22074 0.0
O1145 O 0.80083 0.25935 0.23311 0.0
O1146 O 0.78303 0.31472 0.29781 0.0
O1147 O 0.75697 0.24346 0.25526 0.0
C1148 C 0.86754 0.25363 0.26985 0.0
C1149 C 0.95299 0.35683 0.2798 0.0
C1150 C 1.00572 0.36476 0.29218 0.0
C1151 C 0.97775 0.36063 0.302 0.0
C1152 C 0.00903 0.36748 0.2604 0.0
C1153 C 0.95666 0.35984 0.24817 0.0
C1154 C 0.98464 0.36548 0.23867 0.0
C1155 C 0.85235 0.3131 0.33865 0.0
C1156 C 0.92395 0.34069 0.28754 0.0
C1157 C 0.88974 0.42308 0.1999 0.0
C1158 C 0.88548 0.44272 0.22871 0.0
C1159 C 0.79895 0.33625 0.28455 0.0
C1160 C 0.71299 0.2436 0.27939 0.0
C1161 C 0.69173 0.24042 0.25334 0.0
C1162 C 0.66205 0.23288 0.2571 0.0
C1163 C 0.6534 0.22795 0.28674 0.0
C1164 C 0.70439 0.23844 0.30906 0.0
C1165 C 0.67454 0.23057 0.3126 0.0
C1166 C 0.81364 0.27576 0.2129 0.0
C1167 C 0.74364 0.25874 0.27662 0.0
H1168 H 0.97478 0.35714 0.32607 0.0
H1169 H 0.03007 0.3692 0.25178 0.0
H1170 H 0.93785 0.3561 0.23037 0.0
H1171 H 0.98717 0.3665 0.21393 0.0
H1172 H 0.69834 0.24534 0.23071 0.0
H1173 H 0.63033 0.22265 0.28994 0.0
H1174 H 0.72072 0.2417 0.32971 0.0
H1175 H 0.66783 0.22728 0.33557 0.0
Eu1176 Eu 0.08413 0.53722 0.56181 0.0
C1177 C 0.01241 0.56689 0.44692 0.0
C1178 C 0.98596 0.51146 0.41357 0.0
C1179 C 0.96457 0.55737 0.41496 0.0
C1180 C 0.01082 0.53348 0.43548 0.0
C1181 C 0.98961 0.57936 0.43611 0.0
C1182 C 0.96271 0.52347 0.4038 0.0
C1183 C 0.01908 0.63496 0.46558 0.0
N1184 N 0.03658 0.58744 0.46789 0.0
C1185 C 0.04107 0.62142 0.47552 0.0
C1186 C 0.99298 0.61374 0.44623 0.0
Eu1187 Eu 0.07332 0.56281 0.48334 0.0
N1188 N 0.03351 0.52248 0.44568 0.0
C1189 C 0.03316 0.48996 0.43359 0.0
C1190 C 0.98528 0.47804 0.40186 0.0
C1191 C 0.00915 0.46738 0.41163 0.0
H1192 H 0.06148 0.63802 0.49005 0.0
H1193 H 0.00893 0.4416 0.40253 0.0
H1194 H 0.94341 0.50686 0.38719 0.0
H1195 H 0.02237 0.66175 0.47266 0.0
H1196 H 0.05098 0.48073 0.44089 0.0
H1197 H 0.15807 0.66518 0.61788 0.0
H1198 H 0.96659 0.46038 0.38508 0.0
H1199 H 0.09395 0.46316 0.56769 0.0
H1200 H 0.11489 0.62375 0.58356 0.0
H1201 H 0.12818 0.44185 0.59757 0.0
H1202 H 0.94675 0.56645 0.40667 0.0
H1203 H 0.19481 0.64728 0.64845 0.0
H1204 H 0.2111 0.60087 0.66365 0.0
H1205 H 0.97601 0.62428 0.43844 0.0
H1206 H 0.20285 0.54054 0.6586 0.0
N1207 N 0.12585 0.58112 0.59411 0.0
C1208 C 0.12999 0.61476 0.59694 0.0
C1209 C 0.17556 0.62857 0.63348 0.0
C1210 C 0.17126 0.59439 0.6311 0.0
C1211 C 0.15485 0.63875 0.61631 0.0
C1212 C 0.14595 0.57091 0.61096 0.0
H1213 H 0.17219 0.48136 0.63419 0.0
N1214 N 0.11833 0.51464 0.58649 0.0
C1215 C 0.13243 0.46861 0.60043 0.0
C1216 C 0.14167 0.53683 0.60765 0.0
C1217 C 0.11317 0.4809 0.58331 0.0
C1218 C 0.15711 0.49098 0.62121 0.0
C1219 C 0.16207 0.52551 0.62502 0.0
O1220 O 0.05845 0.49382 0.57637 0.0
O1221 O 0.05732 0.52993 0.5143 0.0
O1222 O 0.05308 0.59139 0.52081 0.0
O1223 O 0.06868 0.58352 0.57164 0.0
O1224 O 0.03415 0.51671 0.55026 0.0
O1225 O 0.06876 0.54533 0.60842 0.0
O1226 O 0.10145 0.60357 0.46743 0.0
O1227 O 0.1042 0.55877 0.52308 0.0
O1228 O 0.0955 0.49835 0.52316 0.0
O1229 O 0.09209 0.51837 0.47588 0.0
O1230 O 0.1132 0.60437 0.5118 0.0
O1231 O 0.08873 0.55233 0.43693 0.0
C1232 C 0.03205 0.51924 0.52097 0.0
C1233 C 0.03987 0.49903 0.62734 0.0
C1234 C 0.00851 0.50444 0.6684 0.0
C1235 C 0.02522 0.51812 0.64671 0.0
C1236 C 0.00654 0.47152 0.67081 0.0
C1237 C 0.03816 0.46634 0.62992 0.0
C1238 C 0.02148 0.45264 0.65171 0.0
C1239 C 0.05488 0.59726 0.5526 0.0
C1240 C 0.05589 0.51293 0.60364 0.0
C1241 C 0.18694 0.54883 0.64527 0.0
C1242 C 0.19163 0.58316 0.64814 0.0
C1243 C 0.12408 0.5858 0.5267 0.0
C1244 C 0.1012 0.59722 0.41117 0.0
C1245 C 0.10986 0.5797 0.38434 0.0
C1246 C 0.12341 0.5967 0.36265 0.0
C1247 C 0.12206 0.6295 0.36375 0.0
C1248 C 0.09981 0.63001 0.41263 0.0
C1249 C 0.10927 0.64562 0.38814 0.0
C1250 C 0.09899 0.49743 0.49227 0.0
C1251 C 0.10235 0.58405 0.43987 0.0
H1252 H 0.02712 0.54372 0.64535 0.0
H1253 H 0.99464 0.4611 0.6886 0.0
H1254 H 0.0498 0.45155 0.61525 0.0
H1255 H 0.02051 0.42763 0.65416 0.0
H1256 H 0.10995 0.55401 0.38291 0.0
H1257 H 0.1323 0.64329 0.34706 0.0
H1258 H 0.09306 0.64411 0.43333 0.0
H1259 H 0.10885 0.67112 0.38947 0.0
Eu1260 Eu 0.79568 0.80159 0.27423 0.0
C1261 C 0.89532 0.76654 0.34253 0.0
C1262 C 0.92091 0.81967 0.38073 0.0
C1263 C 0.92313 0.7677 0.39374 0.0
C1264 C 0.90326 0.80141 0.3506 0.0
C1265 C 0.90597 0.74952 0.36382 0.0
C1266 C 0.93041 0.80264 0.40225 0.0
C1267 C 0.88504 0.69772 0.32319 0.0
N1268 N 0.87893 0.74928 0.31324 0.0
C1269 C 0.87514 0.71545 0.30286 0.0
C1270 C 0.90017 0.71473 0.35398 0.0
Eu1271 Eu 0.86663 0.78209 0.27825 0.0
N1272 N 0.89469 0.81757 0.32889 0.0
C1273 C 0.90354 0.85205 0.33624 0.0
C1274 C 0.92918 0.85469 0.38826 0.0
C1275 C 0.92052 0.87089 0.36588 0.0
H1276 H 0.8651 0.70181 0.27841 0.0
H1277 H 0.92692 0.89805 0.37142 0.0
H1278 H 0.94401 0.81634 0.42529 0.0
H1279 H 0.88156 0.67098 0.31475 0.0
H1280 H 0.89742 0.86606 0.3202 0.0
H1281 H 0.72513 0.68825 0.18632 0.0
H1282 H 0.94256 0.86945 0.41112 0.0
H1283 H 0.79269 0.8802 0.28 0.0
H1284 H 0.75873 0.71992 0.23563 0.0
H1285 H 0.77551 0.91361 0.24598 0.0
H1286 H 0.9314 0.75496 0.41024 0.0
H1287 H 0.71066 0.71736 0.14628 0.0
H1288 H 0.71251 0.77136 0.1313 0.0
H1289 H 0.90824 0.70095 0.36952 0.0
H1290 H 0.72673 0.83298 0.14729 0.0
N1291 N 0.76485 0.7679 0.22488 0.0
C1292 C 0.75337 0.73372 0.21897 0.0
C1293 C 0.72574 0.73175 0.1682 0.0
C1294 C 0.73634 0.76673 0.17482 0.0
C1295 C 0.73378 0.71526 0.19075 0.0
C1296 C 0.75568 0.78439 0.20399 0.0
H1297 H 0.7497 0.88614 0.19019 0.0
N1298 N 0.77923 0.83493 0.24282 0.0
C1299 C 0.7723 0.88712 0.23623 0.0
C1300 C 0.76342 0.81901 0.2131 0.0
C1301 C 0.78221 0.86817 0.25529 0.0
C1302 C 0.75781 0.87153 0.20476 0.0
C1303 C 0.75242 0.83693 0.19314 0.0
O1304 O 0.77479 0.82782 0.31051 0.0
O1305 O 0.83187 0.79437 0.30729 0.0
O1306 O 0.83065 0.73203 0.2744 0.0
O1307 O 0.78872 0.7486 0.28432 0.0
O1308 O 0.82092 0.83916 0.3197 0.0
O1309 O 0.75344 0.7757 0.28749 0.0
O1310 O 0.88864 0.74943 0.25212 0.0
O1311 O 0.82777 0.78354 0.24582 0.0
O1312 O 0.83013 0.84917 0.26656 0.0
O1313 O 0.87456 0.83557 0.27011 0.0
O1314 O 0.8585 0.76556 0.22337 0.0
O1315 O 0.91269 0.8034 0.26982 0.0
C1316 C 0.83587 0.82093 0.32953 0.0
C1317 C 0.72328 0.80828 0.30998 0.0
C1318 C 0.67895 0.80515 0.33569 0.0
C1319 C 0.70523 0.79635 0.3321 0.0
C1320 C 0.67087 0.82558 0.31694 0.0
C1321 C 0.71461 0.82839 0.29127 0.0
C1322 C 0.68853 0.837 0.29482 0.0
C1323 C 0.8029 0.72524 0.28025 0.0
C1324 C 0.75216 0.80195 0.30864 0.0
C1325 C 0.73508 0.81959 0.16305 0.0
C1326 C 0.72697 0.78453 0.15395 0.0
C1327 C 0.83439 0.77289 0.21794 0.0
C1328 C 0.93857 0.76513 0.24177 0.0
C1329 C 0.95923 0.78779 0.22926 0.0
C1330 C 0.98285 0.77824 0.21645 0.0
C1331 C 0.98533 0.74601 0.21579 0.0
C1332 C 0.94165 0.73314 0.24118 0.0
C1333 C 0.96486 0.72365 0.22814 0.0
C1334 C 0.85938 0.85723 0.26674 0.0
C1335 C 0.91294 0.7735 0.25424 0.0
H1336 H 0.71203 0.7813 0.3471 0.0
H1337 H 0.65094 0.83303 0.31977 0.0
H1338 H 0.72822 0.83792 0.27434 0.0
H1339 H 0.68217 0.85297 0.28071 0.0
H1340 H 0.95696 0.81245 0.22941 0.0
H1341 H 1.00318 0.73813 0.20558 0.0
H1342 H 0.92598 0.71532 0.25071 0.0
H1343 H 0.96695 0.69889 0.22758 0.0
Eu1344 Eu 0.84121 0.28382 0.74492 0.0
C1345 C 0.80381 0.38169 0.85322 0.0
C1346 C 0.85057 0.41398 0.88696 0.0
C1347 C 0.80684 0.43229 0.89421 0.0
C1348 C 0.83347 0.38563 0.86274 0.0
C1349 C 0.79017 0.40495 0.86911 0.0
C1350 C 0.83701 0.43694 0.90295 0.0
C1351 C 0.74391 0.37129 0.83605 0.0
N1352 N 0.78804 0.35444 0.82945 0.0
C1353 C 0.75821 0.34872 0.82133 0.0
C1354 C 0.75993 0.39951 0.86011 0.0
Eu1355 Eu 0.81055 0.31065 0.81801 0.0
N1356 N 0.8456 0.36187 0.84831 0.0
C1357 C 0.8755 0.36717 0.85439 0.0
C1358 C 0.88084 0.41842 0.89449 0.0
C1359 C 0.89346 0.39535 0.87751 0.0
H1360 H 0.74469 0.32558 0.80506 0.0
H1361 H 0.91703 0.39907 0.88244 0.0
H1362 H 0.84967 0.4584 0.92211 0.0
H1363 H 0.72029 0.3662 0.82967 0.0
H1364 H 0.88597 0.35015 0.84134 0.0
H1365 H 0.74406 0.20483 0.65449 0.0
H1366 H 0.89472 0.4399 0.91285 0.0
H1367 H 0.90588 0.26777 0.76288 0.0
H1368 H 0.76993 0.2517 0.69848 0.0
H1369 H 0.93 0.22529 0.74439 0.0
H1370 H 0.7966 0.45005 0.90698 0.0
H1371 H 0.76575 0.15912 0.63594 0.0
H1372 H 0.80784 0.13573 0.63991 0.0
H1373 H 0.74862 0.41652 0.87206 0.0
H1374 H 0.8578 0.14091 0.66453 0.0
N1375 N 0.80808 0.23481 0.70744 0.0
C1376 C 0.78105 0.23317 0.69157 0.0
C1377 C 0.77768 0.17997 0.65605 0.0
C1378 C 0.80526 0.1815 0.67151 0.0
C1379 C 0.7655 0.20582 0.66627 0.0
C1380 C 0.82003 0.20917 0.69788 0.0
H1381 H 0.90302 0.17372 0.70311 0.0
N1382 N 0.86279 0.2388 0.73706 0.0
C1383 C 0.90671 0.22046 0.73604 0.0
C1384 C 0.84802 0.21135 0.71281 0.0
C1385 C 0.89232 0.24414 0.74739 0.0
C1386 C 0.89146 0.19154 0.71263 0.0
C1387 C 0.86205 0.18689 0.70031 0.0
O1388 O 0.88564 0.30761 0.73604 0.0
O1389 O 0.84482 0.32608 0.78774 0.0
O1390 O 0.78032 0.31363 0.77226 0.0
O1391 O 0.80222 0.30057 0.72594 0.0
O1392 O 0.84279 0.33603 0.74224 0.0
O1393 O 0.8507 0.2786 0.69594 0.0
O1394 O 0.7668 0.28432 0.82746 0.0
O1395 O 0.8075 0.26992 0.77523 0.0
O1396 O 0.86975 0.28031 0.79175 0.0
O1397 O 0.85044 0.29671 0.83917 0.0
O1398 O 0.80847 0.25762 0.82011 0.0
O1399 O 0.80201 0.31418 0.86736 0.0
C1400 C 0.84452 0.34848 0.7728 0.0
C1401 C 0.89077 0.31641 0.68378 0.0
C1402 C 0.88689 0.3556 0.65193 0.0
C1403 C 0.87705 0.33937 0.67564 0.0
C1404 C 0.91008 0.34862 0.636 0.0
C1405 C 0.91417 0.30977 0.66832 0.0
C1406 C 0.92377 0.32586 0.64434 0.0
C1407 C 0.78082 0.30984 0.74026 0.0
C1408 C 0.8785 0.29562 0.70479 0.0
C1409 C 0.84719 0.15958 0.67441 0.0
C1410 C 0.8188 0.15673 0.66028 0.0
C1411 C 0.80736 0.2471 0.7894 0.0
C1412 C 0.76213 0.27467 0.88009 0.0
C1413 C 0.77961 0.26013 0.8971 0.0
C1414 C 0.76866 0.24523 0.92151 0.0
C1415 C 0.73991 0.24385 0.9281 0.0
C1416 C 0.73338 0.27301 0.88668 0.0
C1417 C 0.72228 0.2575 0.91055 0.0
C1418 C 0.87045 0.28531 0.82399 0.0
C1419 C 0.77449 0.29572 0.8588 0.0
H1420 H 0.85863 0.34416 0.68716 0.0
H1421 H 0.91766 0.36099 0.61724 0.0
H1422 H 0.92438 0.29143 0.67416 0.0
H1423 H 0.94158 0.3205 0.63205 0.0
H1424 H 0.80191 0.26144 0.89226 0.0
H1425 H 0.73108 0.23201 0.94671 0.0
H1426 H 0.71985 0.2846 0.87399 0.0
H1427 H 0.70019 0.25652 0.91578 0.0
Eu1428 Eu 0.84626 0.83445 0.78798 0.0
C1429 C 0.7355 0.70538 0.72473 0.0
C1430 C 0.70904 0.70023 0.77023 0.0
C1431 C 0.68685 0.66479 0.7169 0.0
C1432 C 0.73452 0.71454 0.75734 0.0
C1433 C 0.71155 0.68056 0.704 0.0
C1434 C 0.68535 0.67502 0.74988 0.0
C1435 C 0.73874 0.68751 0.65948 0.0
N1436 N 0.76032 0.71997 0.71344 0.0
C1437 C 0.76229 0.71118 0.68117 0.0
C1438 C 0.71351 0.67167 0.67109 0.0
Eu1439 Eu 0.80309 0.74824 0.75263 0.0
N1440 N 0.75866 0.73719 0.77652 0.0
C1441 C 0.75785 0.74803 0.80886 0.0
C1442 C 0.70841 0.71108 0.8033 0.0
C1443 C 0.73281 0.73551 0.82261 0.0
H1444 H 0.78264 0.72123 0.67229 0.0
H1445 H 0.73264 0.74429 0.84827 0.0
H1446 H 0.66597 0.66304 0.75946 0.0
H1447 H 0.74054 0.68065 0.63403 0.0
H1448 H 0.77636 0.76637 0.82457 0.0
H1449 H 0.909 0.89497 0.70243 0.0
H1450 H 0.68927 0.7008 0.81412 0.0
H1451 H 0.87047 0.85342 0.86557 0.0
H1452 H 0.86524 0.87335 0.72581 0.0
H1453 H 0.91624 0.87765 0.90308 0.0
H1454 H 0.66888 0.6445 0.7017 0.0
H1455 H 0.95821 0.89897 0.72931 0.0
H1456 H 0.98856 0.89864 0.77902 0.0
H1457 H 0.69578 0.6524 0.65465 0.0
H1458 H 0.99063 0.89614 0.8357 0.0
N1459 N 0.88761 0.85623 0.76186 0.0
C1460 C 0.88581 0.8709 0.73623 0.0
C1461 C 0.93867 0.88698 0.73865 0.0
C1462 C 0.94096 0.87726 0.76773 0.0
C1463 C 0.91097 0.88485 0.72344 0.0
C1464 C 0.91478 0.86159 0.77906 0.0
H1465 H 0.96262 0.89359 0.88191 0.0
N1466 N 0.89093 0.84709 0.82298 0.0
C1467 C 0.91682 0.87047 0.87732 0.0
C1468 C 0.91641 0.85798 0.81085 0.0
C1469 C 0.89083 0.85522 0.85577 0.0
C1470 C 0.94323 0.87895 0.8653 0.0
C1471 C 0.94356 0.87286 0.83198 0.0
O1472 O 0.83243 0.8666 0.8276 0.0
O1473 O 0.80226 0.79756 0.78247 0.0
O1474 O 0.79607 0.7759 0.71342 0.0
O1475 O 0.83448 0.82568 0.73253 0.0
O1476 O 0.80319 0.84173 0.76927 0.0
O1477 O 0.86608 0.88804 0.80072 0.0
O1478 O 0.81326 0.70709 0.72041 0.0
O1479 O 0.84954 0.78335 0.77008 0.0
O1480 O 0.84205 0.80478 0.82853 0.0
O1481 O 0.81802 0.74864 0.80465 0.0
O1482 O 0.83969 0.75581 0.72235 0.0
O1483 O 0.80641 0.70445 0.76971 0.0
C1484 C 0.78607 0.81439 0.77396 0.0
C1485 C 0.84431 0.92509 0.83009 0.0
C1486 C 0.8297 0.96746 0.80858 0.0
C1487 C 0.83614 0.93684 0.80373 0.0
C1488 C 0.83321 0.98719 0.8404 0.0
C1489 C 0.84828 0.945 0.8616 0.0
C1490 C 0.843 0.97619 0.86669 0.0
C1491 C 0.81409 0.80384 0.70903 0.0
C1492 C 0.85169 0.8937 0.82477 0.0
C1493 C 0.96965 0.88538 0.81981 0.0
C1494 C 0.96843 0.88685 0.7875 0.0
C1495 C 0.86033 0.77621 0.7445 0.0
C1496 C 0.80612 0.65393 0.73278 0.0
C1497 C 0.82201 0.64053 0.75214 0.0
C1498 C 0.8189 0.60633 0.74513 0.0
C1499 C 0.80065 0.5852 0.7168 0.0
C1500 C 0.78728 0.63315 0.70472 0.0
C1501 C 0.78473 0.5987 0.69668 0.0
C1502 C 0.83137 0.77305 0.83049 0.0
C1503 C 0.81293 0.69023 0.74234 0.0
H1504 H 0.83407 0.92161 0.77937 0.0
H1505 H 0.82722 1.01032 0.84525 0.0
H1506 H 0.85568 0.93653 0.88214 0.0
H1507 H 0.84578 0.99146 0.89107 0.0
H1508 H 0.8378 0.65736 0.7727 0.0
H1509 H 0.79876 0.55868 0.71038 0.0
H1510 H 0.77511 0.6435 0.68907 0.0
H1511 H 0.7706 0.58255 0.67482 0.0
Eu1512 Eu 0.54752 0.52032 0.50686 0.0
C1513 C 0.6412 0.65052 0.57366 0.0
C1514 C 0.65355 0.6752 0.52872 0.0
C1515 C 0.66763 0.71017 0.58345 0.0
C1516 C 0.64066 0.64695 0.54078 0.0
C1517 C 0.654 0.6825 0.59529 0.0
C1518 C 0.66763 0.70646 0.55022 0.0
C1519 C 0.64106 0.65735 0.63931 0.0
N1520 N 0.62975 0.62286 0.5847 0.0
C1521 C 0.63162 0.62597 0.61741 0.0
C1522 C 0.65293 0.68578 0.6283 0.0
Eu1523 Eu 0.61569 0.56932 0.54605 0.0
N1524 N 0.62723 0.6162 0.52057 0.0
C1525 C 0.62439 0.6133 0.48772 0.0
C1526 C 0.65179 0.67144 0.49535 0.0
C1527 C 0.63656 0.64051 0.47479 0.0
H1528 H 0.62774 0.6041 0.62687 0.0
H1529 H 0.63413 0.63752 0.44882 0.0
H1530 H 0.67808 0.72809 0.54134 0.0
H1531 H 0.64076 0.65939 0.66488 0.0
H1532 H 0.61192 0.59051 0.47072 0.0
H1533 H 0.50647 0.44847 0.59569 0.0
H1534 H 0.66142 0.69244 0.48523 0.0
H1535 H 0.53796 0.49032 0.42511 0.0
H1536 H 0.5347 0.49648 0.57922 0.0
H1537 H 0.52502 0.43667 0.3848 0.0
H1538 H 0.67815 0.73457 0.59979 0.0
H1539 H 0.48717 0.39349 0.55665 0.0
H1540 H 0.48158 0.35906 0.50068 0.0
H1541 H 0.66188 0.70992 0.64554 0.0
H1542 H 0.48912 0.35536 0.44411 0.0
N1543 N 0.53027 0.47193 0.52904 0.0
C1544 C 0.52583 0.47395 0.56066 0.0
C1545 C 0.49929 0.41509 0.5487 0.0
C1546 C 0.50433 0.41236 0.51672 0.0
C1547 C 0.50998 0.44606 0.57068 0.0
C1548 C 0.51969 0.44155 0.5073 0.0
H1549 H 0.50811 0.38353 0.40153 0.0
N1550 N 0.53414 0.4685 0.46588 0.0
C1551 C 0.52461 0.437 0.41015 0.0
C1552 C 0.52272 0.43966 0.47514 0.0
C1553 C 0.53281 0.46746 0.43341 0.0
C1554 C 0.51491 0.40718 0.41965 0.0
C1555 C 0.5121 0.40833 0.45208 0.0
O1556 O 0.51294 0.51868 0.46951 0.0
O1557 O 0.57146 0.57691 0.52742 0.0
O1558 O 0.58647 0.57003 0.58816 0.0
O1559 O 0.53981 0.54311 0.55999 0.0
O1560 O 0.55323 0.56066 0.47921 0.0
O1561 O 0.50294 0.51882 0.51875 0.0
O1562 O 0.65336 0.57753 0.58296 0.0
O1563 O 0.59108 0.51316 0.52562 0.0
O1564 O 0.57885 0.51644 0.46659 0.0
O1565 O 0.62467 0.5493 0.49331 0.0
O1566 O 0.61119 0.52685 0.57262 0.0
O1567 O 0.65908 0.56858 0.53182 0.0
C1568 C 0.56437 0.58737 0.50218 0.0
C1569 C 0.46311 0.51649 0.47754 0.0
C1570 C 0.41816 0.53131 0.48649 0.0
C1571 C 0.44621 0.53052 0.4986 0.0
C1572 C 0.40708 0.51797 0.45338 0.0
C1573 C 0.45174 0.50296 0.44458 0.0
C1574 C 0.42385 0.50376 0.43261 0.0
C1575 C 0.55732 0.55933 0.58824 0.0
C1576 C 0.49346 0.51832 0.48905 0.0
C1577 C 0.49782 0.37934 0.46164 0.0
C1578 C 0.49353 0.38145 0.4938 0.0
C1579 C 0.59711 0.50088 0.54973 0.0
C1580 C 0.70247 0.57905 0.57164 0.0
C1581 C 0.7163 0.55727 0.55448 0.0
C1582 C 0.74618 0.56077 0.56416 0.0
C1583 C 0.76198 0.58617 0.59151 0.0
C1584 C 0.71843 0.60422 0.59875 0.0
C1585 C 0.7481 0.60775 0.60869 0.0
C1586 C 0.60763 0.52987 0.4659 0.0
C1587 C 0.67118 0.57491 0.56185 0.0
H1588 H 0.45493 0.54121 0.52406 0.0
H1589 H 0.38553 0.51878 0.44364 0.0
H1590 H 0.46457 0.49211 0.42797 0.0
H1591 H 0.41548 0.49359 0.40715 0.0
H1592 H 0.7035 0.53709 0.53423 0.0
H1593 H 0.78512 0.58953 0.59943 0.0
H1594 H 0.70787 0.62114 0.61192 0.0
H1595 H 0.76039 0.6273 0.62959 0.0
Eu1596 Eu 0.11252 0.54226 1.00411 0.0
C1597 C 0.01191 0.48428 0.07384 0.0
C1598 C 0.9827 0.43875 0.02921 0.0
C1599 C 0.98087 0.43309 0.08439 0.0
C1600 C 1.00325 0.47101 0.04091 0.0
C1601 C 1.00011 0.4658 0.09598 0.0
C1602 C 0.9722 0.41958 0.05106 0.0
C1603 C 0.02389 0.51483 0.13933 0.0
N1604 N 0.02997 0.51625 0.08432 0.0
C1605 C 0.03475 0.53224 0.11646 0.0
C1606 C 0.0069 0.48127 0.12909 0.0
Eu1607 Eu 0.04812 0.54416 0.04415 0.0
N1608 N 0.0132 0.49051 0.02045 0.0
C1609 C 1.00174 0.47998 0.98828 0.0
C1610 C 0.97231 0.42726 0.99601 0.0
C1611 C 0.98151 0.44823 0.97554 0.0
H1612 H 0.04787 0.55826 0.12453 0.0
H1613 H 0.97304 0.43998 0.94991 0.0
H1614 H 0.95659 0.39474 0.04247 0.0
H1615 H 0.02859 0.52734 0.16483 0.0
H1616 H 0.0082 0.4957 0.97212 0.0
H1617 H 0.20424 0.62376 0.09567 0.0
H1618 H 0.95651 0.40272 0.98611 0.0
H1619 H 0.10434 0.53938 0.92294 0.0
H1620 H 0.15576 0.58275 0.07654 0.0
H1621 H 0.12268 0.57469 0.88653 0.0
H1622 H 0.97179 0.41847 0.10104 0.0
H1623 H 0.22639 0.66079 0.06137 0.0
H1624 H 0.22233 0.6791 0.00994 0.0
H1625 H 0.99828 0.46793 0.14682 0.0
H1626 H 0.19839 0.66747 0.95386 0.0
N1627 N 0.1514 0.59193 0.02962 0.0
C1628 C 0.16557 0.59671 0.06023 0.0
C1629 C 0.20541 0.64164 0.05223 0.0
C1630 C 0.19028 0.63802 0.02157 0.0
C1631 C 0.19312 0.62063 0.07153 0.0
C1632 C 0.16349 0.61183 0.01025 0.0
H1633 H 0.1613 0.62883 0.90778 0.0
N1634 N 0.12794 0.57571 0.96641 0.0
C1635 C 0.13033 0.58374 0.91231 0.0
C1636 C 0.15069 0.6043 0.97816 0.0
C1637 C 0.11938 0.56417 0.93345 0.0
C1638 C 0.15212 0.61422 0.92439 0.0
C1639 C 0.16346 0.62417 0.95736 0.0
O1640 O 0.13 0.51313 0.96704 0.0
O1641 O 0.07426 0.5094 0.0218 0.0
O1642 O 0.07955 0.53621 0.08135 0.0
O1643 O 0.11903 0.53235 0.05344 0.0
O1644 O 0.08373 0.49015 0.97685 0.0
O1645 O 0.15298 0.52829 0.01685 0.0
O1646 O 0.03078 0.58035 0.07445 0.0
O1647 O 0.08657 0.57751 0.02629 0.0
O1648 O 0.07777 0.54161 0.96633 0.0
O1649 O 0.04033 0.55181 0.99473 0.0
O1650 O 0.07912 0.59514 0.07237 0.0
O1651 O 0.0067 0.55287 0.02671 0.0
C1652 C 0.06726 0.48297 0.99839 0.0
C1653 C 0.17436 0.49652 0.97511 0.0
C1654 C 0.21769 0.47712 0.98391 0.0
C1655 C 0.1964 0.49178 0.99649 0.0
C1656 C 0.21635 0.46688 0.95017 0.0
C1657 C 0.17389 0.48636 0.9415 0.0
C1658 C 0.19468 0.47154 0.9292 0.0
C1659 C 0.10574 0.53175 0.07929 0.0
C1660 C 0.15238 0.51314 0.98684 0.0
C1661 C 0.18845 0.65201 0.96949 0.0
C1662 C 0.20209 0.65863 1.0014 0.0
C1663 C 0.09456 0.60356 0.05025 0.0
C1664 C 0.98015 0.57893 0.06419 0.0
C1665 C 0.96277 0.59384 0.04723 0.0
C1666 C 0.93846 0.60195 0.05968 0.0
C1667 C 0.93117 0.59414 0.08889 0.0
C1668 C 0.97234 0.57096 0.09315 0.0
C1669 C 0.94786 0.57847 0.10531 0.0
C1670 C 0.05298 0.54875 0.96867 0.0
C1671 C 0.00793 0.57565 0.0529 0.0
H1672 H 0.19737 0.49996 0.02246 0.0
H1673 H 0.23235 0.45534 0.93996 0.0
H1674 H 0.15755 0.49011 0.92453 0.0
H1675 H 0.19412 0.46384 0.90328 0.0
H1676 H 0.96892 0.60043 0.02506 0.0
H1677 H 0.91251 0.60013 0.09894 0.0
H1678 H 0.98545 0.55965 0.10667 0.0
H1679 H 0.94207 0.57261 0.12782 0.0
C1680 C 0.05904 0.16864 0.97016 0.0
C1681 C 0.03913 0.18211 0.98785 0.0
C1682 C 0.06863 0.14093 0.9763 0.0
C1683 C 0.06043 0.12491 1.00164 0.0
H1684 H 0.06684 0.17902 0.95036 0.0
H1685 H 0.08227 0.13132 0.96003 0.0
S1686 S 0.00695 0.14746 0.05469 0.0
N1687 N 0.01026 0.1745 0.03161 0.0
N1688 N 0.02896 0.12433 0.04345 0.0
C1689 C 0.04057 0.13802 0.01974 0.0
C1690 C 0.03005 0.16584 0.01297 0.0
C1691 C 0.22975 0.84874 0.19374 0.0
C1692 C 0.20773 0.82162 0.17224 0.0
C1693 C 0.25071 0.84371 0.21697 0.0
C1694 C 0.25138 0.81123 0.2194 0.0
H1695 H 0.23102 0.87416 0.19243 0.0
H1696 H 0.26721 0.86548 0.23236 0.0
S1697 S 0.1972 0.73202 0.1721 0.0
N1698 N 0.18699 0.76105 0.15775 0.0
N1699 N 0.22643 0.75201 0.19974 0.0
C1700 C 0.22912 0.78424 0.19873 0.0
C1701 C 0.20746 0.78928 0.17575 0.0
C1702 C 0.5311 0.88943 0.47174 0.0
C1703 C 0.54072 0.87154 0.49286 0.0
C1704 C 0.53989 0.92528 0.47882 0.0
C1705 C 0.55807 0.94544 0.50792 0.0
H1706 H 0.51718 0.87554 0.44897 0.0
H1707 H 0.53381 0.93715 0.46037 0.0
S1708 S 0.59282 0.91144 0.56946 0.0
N1709 N 0.57188 0.87739 0.54283 0.0
N1710 N 0.58763 0.94356 0.55641 0.0
C1711 C 0.56804 0.92759 0.52894 0.0
C1712 C 0.55943 0.89124 0.52157 0.0
C1713 C 0.54074 0.34286 0.68845 0.0
C1714 C 0.54872 0.32124 0.66342 0.0
C1715 C 0.51733 0.33049 0.7047 0.0
C1716 C 0.50127 0.29627 0.6962 0.0
H1717 H 0.55366 0.36899 0.69677 0.0
H1718 H 0.51295 0.34731 0.72525 0.0
S1719 S 0.50891 0.23121 0.62757 0.0
N1720 N 0.53543 0.26532 0.62731 0.0
N1721 N 0.4916 0.24223 0.65811 0.0
C1722 C 0.50724 0.27515 0.66935 0.0
C1723 C 0.53096 0.28764 0.65285 0.0
C1724 C 0.00971 0.81738 0.57519 0.0
C1725 C 0.02419 0.80335 0.59615 0.0
C1726 C 0.02527 0.83574 0.55516 0.0
C1727 C 0.05578 0.84046 0.55515 0.0
H1728 H 0.98617 0.81401 0.57413 0.0
H1729 H 0.01324 0.84571 0.53899 0.0
S1730 S 0.10372 0.80753 0.6045 0.0
N1731 N 0.07067 0.79455 0.61496 0.0
N1732 N 0.09979 0.82921 0.57748 0.0
C1733 C 0.07047 0.8264 0.57584 0.0
C1734 C 0.05473 0.80792 0.59638 0.0
C1735 C 0.5575 0.85263 0.86 0.0
C1736 C 0.57674 0.8368 0.84433 0.0
C1737 C 0.53588 0.86111 0.84232 0.0
C1738 C 0.53276 0.85399 0.80839 0.0
H1739 H 0.5595 0.85907 0.8862 0.0
H1740 H 0.52142 0.8732 0.85524 0.0
S1741 S 0.57702 0.81182 0.75624 0.0
N1742 N 0.59151 0.81427 0.79354 0.0
N1743 N 0.54991 0.8293 0.75974 0.0
C1744 C 0.55186 0.83821 0.79247 0.0
C1745 C 0.57416 0.82987 0.81062 0.0
C1746 C 0.53052 0.15947 0.11185 0.0
C1747 C 0.50129 0.15618 0.09905 0.0
C1748 C 0.54762 0.14246 0.09443 0.0
C1749 C 0.53608 0.12174 0.0635 0.0
H1750 H 0.54015 0.17509 0.13582 0.0
H1751 H 0.5698 0.1451 0.10551 0.0
S1752 S 0.46048 0.10556 0.01919 0.0
N1753 N 0.46146 0.1318 0.05402 0.0
N1754 N 0.49331 0.09915 0.02043 0.0
C1755 C 0.50693 0.11904 0.04995 0.0
C1756 C 0.48949 0.13633 0.06806 0.0
C1757 C 0.25079 0.36554 0.3329 0.0
C1758 C 0.22159 0.34592 0.32965 0.0
C1759 C 0.27032 0.35401 0.31431 0.0
C1760 C 0.26158 0.32248 0.29174 0.0
H1761 H 0.25869 0.38976 0.35016 0.0
H1762 H 0.2923 0.3706 0.31735 0.0
S1763 S 0.1849 0.2657 0.26952 0.0
N1764 N 0.18323 0.29552 0.30039 0.0
N1765 N 0.21966 0.27543 0.26295 0.0
C1766 C 0.23165 0.30382 0.28671 0.0
C1767 C 0.21179 0.31509 0.30649 0.0
C1768 C 0.03229 0.04147 0.1686 0.0
C1769 C 0.01858 0.06595 0.18283 0.0
C1770 C 0.04448 0.0407 0.1389 0.0
C1771 C 0.04364 0.06383 0.11955 0.0
H1772 H 0.03397 0.02209 0.18082 0.0
H1773 H 0.05499 0.02139 0.13133 0.0
S1774 S 0.01511 0.13717 0.14625 0.0
N1775 N 0.00853 0.11701 0.17522 0.0
N1776 N 0.03031 0.11504 0.11986 0.0
C1777 C 0.03091 0.08932 0.13367 0.0
C1778 C 0.0187 0.09042 0.16458 0.0
C1779 C 0.31212 0.71802 0.4743 0.0
C1780 C 0.29765 0.68384 0.47022 0.0
C1781 C 0.30382 0.7353 0.4525 0.0
C1782 C 0.28101 0.71847 0.42646 0.0
H1783 H 0.32688 0.73223 0.49651 0.0
H1784 H 0.31277 0.76239 0.45811 0.0
S1785 S 0.24114 0.62799 0.40214 0.0
N1786 N 0.2633 0.63279 0.43588 0.0
N1787 N 0.24789 0.66548 0.39456 0.0
C1788 C 0.26945 0.68361 0.41981 0.0
C1789 C 0.27787 0.66607 0.44188 0.0
C1790 C 0.64122 0.06582 0.65441 0.0
C1791 C 0.66792 0.05929 0.64825 0.0
C1792 C 0.61573 0.04974 0.63235 0.0
C1793 C 0.61688 0.02762 0.60363 0.0
H1794 H 0.63987 0.08274 0.6767 0.0
H1795 H 0.59601 0.05727 0.63627 0.0
S1796 S 0.68127 1.00075 0.57878 0.0
N1797 N 0.6942 0.02872 0.61353 0.0
N1798 N 0.64571 0.99737 0.57163 0.0
C1799 C 0.64304 0.01928 0.59852 0.0
C1800 C 0.66901 0.0362 0.62057 0.0
C1801 C 0.33338 0.35523 0.92239 0.0
C1802 C 0.34007 0.33111 0.93725 0.0
C1803 C 0.33161 0.35157 0.88871 0.0
C1804 C 0.33573 0.32323 0.86773 0.0
H1805 H 0.33031 0.3778 0.93698 0.0
H1806 H 0.3269 0.37145 0.87904 0.0
S1807 S 0.35113 0.25098 0.89375 0.0
N1808 N 0.35009 0.27705 0.92795 0.0
N1809 N 0.34441 0.26913 0.86455 0.0
C1810 C 0.34127 0.29817 0.88203 0.0
C1811 C 0.34402 0.30238 0.91666 0.0
C1812 C 0.00722 0.07325 0.40233 0.0
C1813 C 0.021 0.06484 0.37479 0.0
C1814 C 0.0164 0.06852 0.43381 0.0
C1815 C 0.04033 0.05524 0.44104 0.0
H1816 H 0.98859 0.08304 0.39955 0.0
H1817 H 1.00413 0.07547 0.45302 0.0
S1818 S 0.0857 0.03012 0.37896 0.0
N1819 N 0.06124 0.04237 0.35857 0.0
N1820 N 0.07839 0.03554 0.41648 0.0
C1821 C 0.05483 0.04762 0.41406 0.0
C1822 C 0.04528 0.05182 0.38182 0.0
C1823 C 0.32048 0.72111 0.64362 0.0
C1824 C 0.29108 0.70797 0.62847 0.0
C1825 C 0.32859 0.74864 0.66978 0.0
C1826 C 0.30774 0.76416 0.68125 0.0
H1827 H 0.33712 0.70911 0.63629 0.0
H1828 H 0.35053 0.75526 0.68305 0.0
S1829 S 0.22819 0.74065 0.64954 0.0
N1830 N 0.24094 0.71332 0.62586 0.0
N1831 N 0.25694 0.76568 0.67598 0.0
C1832 C 0.27853 0.75233 0.66576 0.0
C1833 C 0.26996 0.72395 0.63909 0.0
C1834 C 0.66578 0.03985 0.81754 0.0
C1835 C 0.69365 0.06173 0.81722 0.0
C1836 C 0.64637 0.05139 0.83638 0.0
C1837 C 0.65498 0.08454 0.85531 0.0
H1838 H 0.65722 0.01615 0.79958 0.0
H1839 H 0.62381 0.03559 0.83381 0.0
S1840 S 0.72892 0.1461 0.87083 0.0
N1841 N 0.73176 0.11353 0.84388 0.0
N1842 N 0.69482 0.13552 0.8791 0.0
C1843 C 0.6844 0.10398 0.85965 0.0
C1844 C 0.70426 0.09197 0.84113 0.0
C1845 C 0.3115 0.33077 0.13169 0.0
C1846 C 0.33584 0.32495 0.117 0.0
C1847 C 0.30516 0.32131 0.16087 0.0
C1848 C 0.32253 0.30511 0.17623 0.0
H1849 H 0.29755 0.34323 0.12092 0.0
H1850 H 0.28687 0.32725 0.1718 0.0
S1851 S 0.3903 0.28725 0.14986 0.0
N1852 N 0.37839 0.30394 0.12191 0.0
N1853 N 0.36592 0.28562 0.17524 0.0
C1854 C 0.34652 0.29886 0.1615 0.0
C1855 C 0.35332 0.30894 0.13241 0.0
C1856 C 0.31081 0.03667 0.03237 0.0
C1857 C 0.29818 1.01003 0.00516 0.0
C1858 C 0.29314 0.05217 0.05072 0.0
C1859 C 0.26211 0.04123 0.04281 0.0
H1860 H 0.3345 0.04475 0.04024 0.0
H1861 H 0.30394 0.07245 0.07173 0.0
S1862 S 0.21873 0.97197 0.97296 0.0
N1863 N 0.25353 0.97335 0.97033 0.0
N1864 N 0.21967 1.00185 0.00508 0.0
C1865 C 0.24928 0.01482 0.01498 0.0
C1866 C 0.2675 0.99921 0.99619 0.0
C1867 C 0.7171 0.61399 0.00627 0.0
C1868 C 0.71913 0.6447 0.99767 0.0
C1869 C 0.68936 0.59128 0.00714 0.0
C1870 C 0.66256 0.59847 0.99966 0.0
H1871 H 0.73705 0.60807 0.0137 0.0
H1872 H 0.68903 0.56879 0.01526 0.0
S1873 S 0.65555 0.6728 0.97091 0.0
N1874 N 0.69148 0.67867 0.97773 0.0
N1875 N 0.64016 0.63702 0.98014 0.0
C1876 C 0.66442 0.62812 0.98931 0.0
C1877 C 0.6924 0.65088 0.9881 0.0
C1878 C 0.78725 0.42268 0.2651 0.0
C1879 C 0.75959 0.42531 0.27537 0.0
C1880 C 0.79964 0.39492 0.26638 0.0
C1881 C 0.787 0.36785 0.2805 0.0
H1882 H 0.79984 0.44273 0.25549 0.0
H1883 H 0.81936 0.39493 0.25585 0.0
S1884 S 0.71319 0.35946 0.30973 0.0
N1885 N 0.71919 0.39497 0.29819 0.0
N1886 N 0.74205 0.34587 0.30279 0.0
C1887 C 0.75885 0.37 0.29025 0.0
C1888 C 0.74566 0.39745 0.28754 0.0
C1889 C 0.95927 0.53079 0.49805 0.0
C1890 C 0.94226 0.49731 0.48926 0.0
C1891 C 0.98982 0.53871 0.5049 0.0
C1892 C 1.00392 0.5134 0.50151 0.0
H1893 H 0.94898 0.55051 0.50514 0.0
H1894 H 1.00159 0.56447 0.51552 0.0
S1895 S 0.96923 0.42266 0.46778 0.0
N1896 N 0.94159 0.4394 0.4679 0.0
N1897 N 0.99935 0.45438 0.48253 0.0
C1898 C 0.98741 0.48036 0.4874 0.0
C1899 C 0.95634 0.47235 0.47998 0.0
C1900 C 0.36075 0.09318 0.31171 0.0
C1901 C 0.39055 0.09938 0.30693 0.0
C1902 C 0.33971 0.09669 0.28897 0.0
C1903 C 0.34798 0.10619 0.2609 0.0
H1904 H 0.35337 0.08453 0.33255 0.0
H1905 H 0.3169 0.09168 0.29313 0.0
S1906 S 0.4228 0.128 0.23786 0.0
N1907 N 0.42729 0.11784 0.27275 0.0
N1908 N 0.38715 0.12365 0.22982 0.0
C1909 C 0.37751 0.11341 0.25612 0.0
C1910 C 0.39904 0.11035 0.27933 0.0
C1911 C 0.37366 0.11002 0.49888 0.0
C1912 C 0.37651 0.14457 0.50822 0.0
C1913 C 0.39409 0.09646 0.51278 0.0
C1914 C 0.41815 0.11707 0.53616 0.0
H1915 H 0.35469 0.09307 0.48204 0.0
H1916 H 0.39037 0.06954 0.50626 0.0
S1917 S 0.43895 0.20968 0.56408 0.0
N1918 N 0.40769 0.19957 0.53897 0.0
N1919 N 0.44601 0.17393 0.56488 0.0
C1920 C 0.42252 0.15184 0.54389 0.0
C1921 C 0.40172 0.16565 0.52993 0.0
C1922 C 0.75115 0.65195 0.30797 0.0
C1923 C 0.75146 0.62204 0.28593 0.0
C1924 C 0.76795 0.68451 0.30627 0.0
C1925 C 0.78645 0.68962 0.28247 0.0
H1926 H 0.73692 0.65027 0.32645 0.0
H1927 H 0.76613 0.70606 0.32376 0.0
S1928 S 0.79377 0.62104 0.21655 0.0
N1929 N 0.77102 0.60083 0.23785 0.0
N1930 N 0.80279 0.6613 0.2351 0.0
C1931 C 0.78728 0.66009 0.26031 0.0
C1932 C 0.76988 0.62675 0.26189 0.0
C1933 C 0.86335 0.44188 0.79583 0.0
C1934 C 0.8933 0.45052 0.79174 0.0
C1935 C 0.84731 0.40818 0.79175 0.0
C1936 C 0.86149 0.38312 0.7853 0.0
H1937 H 0.85245 0.4611 0.80248 0.0
H1938 H 0.82385 0.40166 0.79315 0.0
S1939 S 0.93889 0.39286 0.77145 0.0
N1940 N 0.93541 0.43104 0.7778 0.0
N1941 N 0.90657 0.36878 0.77552 0.0
C1942 C 0.89144 0.3917 0.78216 0.0
C1943 C 0.90704 0.42523 0.78388 0.0
C1944 C 0.09194 0.90683 0.05393 0.0
C1945 C 0.12152 0.90726 0.06343 0.0
C1946 C 0.08423 0.93505 0.04592 0.0
C1947 C 0.10509 0.96667 0.04762 0.0
H1948 H 0.07424 0.88422 0.05257 0.0
H1949 H 0.06132 0.93186 0.03919 0.0
S1950 S 0.18607 0.98234 0.0715 0.0
N1951 N 0.1721 0.94293 0.07307 0.0
N1952 N 0.15778 0.99513 0.06019 0.0
C1953 C 0.13482 0.96712 0.05694 0.0
C1954 C 0.14283 0.93809 0.06412 0.0
C1955 C 0.9102 0.2484 0.88472 0.0
C1956 C 0.94073 0.26506 0.88706 0.0
C1957 C 0.88799 0.25456 0.86412 0.0
C1958 C 0.89484 0.27775 0.84449 0.0
H1959 H 0.90328 0.23042 0.89913 0.0
H1960 H 0.86508 0.24105 0.86373 0.0
S1961 S 0.97056 0.33192 0.84459 0.0
N1962 N 0.97583 0.30844 0.86946 0.0
N1963 N 0.93469 0.31949 0.83121 0.0
C1964 C 0.92515 0.29494 0.84692 0.0
C1965 C 0.94777 0.28877 0.86793 0.0
C1966 C 0.60287 0.19606 0.58502 0.0
C1967 C 0.61376 0.21178 0.56061 0.0
C1968 C 0.59615 0.16086 0.58175 0.0
C1969 C 0.59897 0.13823 0.55347 0.0
H1970 H 0.60002 0.21127 0.60757 0.0
H1971 H 0.58837 0.15127 0.60198 0.0
S1972 S 0.62209 0.16482 0.47971 0.0
N1973 N 0.62535 0.20071 0.5058 0.0
N1974 N 0.60994 0.13486 0.49859 0.0
C1975 C 0.60828 0.15325 0.52802 0.0
C1976 C 0.61634 0.18959 0.53184 0.0
C1977 C 0.63782 0.81768 0.40615 0.0
C1978 C 0.61313 0.78879 0.39794 0.0
C1979 C 0.6609 0.82126 0.38761 0.0
C1980 C 0.66041 0.79599 0.36038 0.0
H1981 H 0.6387 0.83857 0.42607 0.0
H1982 H 0.67833 0.8449 0.39336 0.0
S1983 S 0.60488 0.71232 0.33305 0.0
N1984 N 0.5923 0.73209 0.36385 0.0
N1985 N 0.63606 0.739 0.32911 0.0
C1986 C 0.63756 0.76566 0.35376 0.0
C1987 C 0.61377 0.76204 0.37248 0.0
C1988 C 0.14796 0.28646 0.49116 0.0
C1989 C 0.13694 0.28567 0.45942 0.0
C1990 C 0.1332 0.2625 0.50676 0.0
C1991 C 0.10683 0.23793 0.4911 0.0
H1992 H 0.16692 0.30678 0.50456 0.0
H1993 H 0.14117 0.26466 0.53187 0.0
S1994 S 0.06967 0.22512 0.40776 0.0
N1995 N 0.09925 0.25762 0.41234 0.0
N1996 N 0.07106 0.21318 0.44207 0.0
C1997 C 0.0966 0.23584 0.45881 0.0
C1998 C 0.11184 0.2597 0.4428 0.0
C1999 C 0.59038 0.19978 0.20367 0.0
C2000 C 0.58306 0.22964 0.20341 0.0
C2001 C 0.6183 0.20079 0.21741 0.0
C2002 C 0.63956 0.2316 0.23107 0.0
H2003 H 0.57389 0.17551 0.19521 0.0
H2004 H 0.62234 0.1776 0.22018 0.0
S2005 S 0.63472 0.3159 0.22699 0.0
N2006 N 0.60152 0.29024 0.21078 0.0
N2007 N 0.6545 0.29195 0.23688 0.0
C2008 C 0.63422 0.26122 0.22646 0.0
C2009 C 0.60565 0.26029 0.2125 0.0
C2010 C 0.64408 0.93936 0.97533 0.0
C2011 C 0.65861 0.94729 0.94939 0.0
C2012 C 0.6261 0.958 0.98912 0.0
C2013 C 0.62242 0.98543 0.9777 0.0
H2014 H 0.64372 0.91632 0.9824 0.0
H2015 H 0.61369 0.94962 0.00744 0.0
S2016 S 0.66255 0.02176 0.91668 0.0
N2017 N 0.67266 0.98765 0.91705 0.0
N2018 N 0.63977 0.02375 0.94372 0.0
C2019 C 0.63968 0.99594 0.9545 0.0
C2020 C 0.6578 0.97677 0.94039 0.0
C2021 C 0.92278 0.73844 0.74667 0.0
C2022 C 0.93834 0.75055 0.72289 0.0
C2023 C 0.89929 0.75019 0.75686 0.0
C2024 C 0.89047 0.77396 0.74323 0.0
H2025 H 0.92777 0.71864 0.75628 0.0
H2026 H 0.88642 0.73854 0.77337 0.0
S2027 S 0.92378 0.8132 0.68033 0.0
N2028 N 0.94405 0.78894 0.68748 0.0
N2029 N 0.89876 0.80859 0.70483 0.0
C2030 C 0.90644 0.78686 0.72041 0.0
C2031 C 0.93078 0.77586 0.71078 0.0
C2032 C 0.16227 0.04285 0.89805 0.0
C2033 C 0.14841 0.01838 0.8686 0.0
C2034 C 0.14985 0.04518 0.92811 0.0
C2035 C 0.12192 0.02385 0.93156 0.0
H2036 H 0.1828 0.06147 0.89774 0.0
H2037 H 0.16213 0.06505 0.94882 0.0
S2038 S 0.07578 0.95475 0.86237 0.0
N2039 N 0.10432 0.97224 0.84598 0.0
N2040 N 0.08187 0.97586 0.90067 0.0
C2041 C 0.1081 0.99904 0.90224 0.0
C2042 C 0.12081 0.99668 0.87172 0.0
C2043 C 0.89282 0.4323 0.62701 0.0
C2044 C 0.87158 0.41975 0.59935 0.0
C2045 C 0.89393 0.41321 0.64943 0.0
C2046 C 0.87426 0.38091 0.64373 0.0
H2047 H 0.9114 0.45399 0.62828 0.0
H2048 H 0.91333 0.42096 0.66774 0.0
S2049 S 0.80866 0.34236 0.5804 0.0
N2050 N 0.82573 0.37802 0.57173 0.0
N2051 N 0.8282 0.34113 0.61382 0.0
C2052 C 0.8495 0.37108 0.61966 0.0
C2053 C 0.84812 0.39092 0.5971 0.0
C2054 C 0.50169 0.01346 0.39625 0.0
C2055 C 0.48523 0.03661 0.39876 0.0
C2056 C 0.52931 0.02158 0.41432 0.0
C2057 C 0.53985 0.05182 0.43764 0.0
H2058 H 0.49269 0.98805 0.38192 0.0
H2059 H 0.54023 1.00213 0.41345 0.0
S2060 S 0.50521 0.12029 0.45608 0.0
N2061 N 0.482 0.09153 0.42618 0.0
N2062 N 0.53323 0.10539 0.46295 0.0
C2063 C 0.52444 0.07579 0.44008 0.0
C2064 C 0.49679 0.06814 0.42057 0.0
C2065 C 0.79668 0.74275 0.12997 0.0
C2066 C 0.81657 0.76228 0.11387 0.0
C2067 C 0.80109 0.74794 0.16407 0.0
C2068 C 0.82413 0.7745 0.18419 0.0
H2069 H 0.77839 0.72199 0.11592 0.0
H2070 H 0.78787 0.72914 0.17436 0.0
S2071 S 0.88572 0.82865 0.15384 0.0
N2072 N 0.86293 0.80597 0.1205 0.0
N2073 N 0.86987 0.81723 0.18427 0.0
C2074 C 0.84449 0.79383 0.16811 0.0
C2075 C 0.84084 0.78763 0.13326 0.0
C2076 C 0.15226 0.01091 0.64624 0.0
C2077 C 0.1403 0.02168 0.67464 0.0
C2078 C 0.14227 0.01482 0.61456 0.0
C2079 C 0.11912 0.02947 0.60783 0.0
H2080 H 0.17005 0.99971 0.6484 0.0
H2081 H 0.15321 1.00602 0.59475 0.0
S2082 S 0.07874 0.06159 0.6722 0.0
N2083 N 0.10285 0.04846 0.69211 0.0
N2084 N 0.08397 0.0534 0.634 0.0
C2085 C 0.10645 0.03953 0.63569 0.0
C2086 C 0.11695 0.03631 0.66811 0.0
C2087 C 0.87659 0.34525 0.42741 0.0
C2088 C 0.86144 0.36948 0.43497 0.0
C2089 C 0.87251 0.32545 0.39608 0.0
C2090 C 0.8534 0.32974 0.37184 0.0
H2091 H 0.89247 0.34234 0.44551 0.0
H2092 H 0.88524 0.30788 0.3905 0.0
S2093 S 0.8077 0.38833 0.37884 0.0
N2094 N 0.82597 0.39587 0.41553 0.0
N2095 N 0.81812 0.358 0.35672 0.0
C2096 C 0.83738 0.35289 0.37911 0.0
C2097 C 0.84139 0.37297 0.41082 0.0
C2098 C 0.47003 0.99001 0.23426 0.0
C2099 C 0.47945 0.02092 0.25744 0.0
C2100 C 0.48169 0.98654 0.20532 0.0
C2101 C 0.50184 0.01422 0.19877 0.0
H2102 H 0.4581 0.96743 0.24084 0.0
H2103 H 0.47815 0.96152 0.19028 0.0
S2104 S 0.51965 0.10297 0.2442 0.0
N2105 N 0.50002 0.0813 0.26691 0.0
N2106 N 0.5214 0.07515 0.21156 0.0
C2107 C 0.50486 0.04643 0.21784 0.0
C2108 C 0.49332 0.04979 0.2476 0.0
C2109 C 0.8389 0.78273 0.92369 0.0
C2110 C 0.82341 0.75071 0.92715 0.0
C2111 C 0.84259 0.78937 0.89284 0.0
C2112 C 0.83051 0.76458 0.86357 0.0
H2113 H 0.84789 0.80311 0.94509 0.0
H2114 H 0.8543 0.81457 0.89222 0.0
S2115 S 0.78508 0.67718 0.8594 0.0
N2116 N 0.79468 0.69433 0.8986 0.0
N2117 N 0.80091 0.70635 0.84121 0.0
C2118 C 0.81495 0.73229 0.86698 0.0
C2119 C 0.81157 0.72553 0.89841 0.0
C2120 C 0.85181 0.04004 0.025 0.0
C2121 C 0.85539 0.07462 0.03298 0.0
C2122 C 0.87422 0.02766 0.01322 0.0
C2123 C 0.90065 0.04956 0.00881 0.0
H2124 H 0.83072 0.02238 0.02546 0.0
H2125 H 0.86991 1.00075 0.00498 0.0
S2126 S 0.92215 0.14247 0.03005 0.0
N2127 N 0.8884 0.13088 0.0393 0.0
N2128 N 0.93065 0.10738 0.01656 0.0
C2129 C 0.90567 0.08432 0.01965 0.0
C2130 C 0.88288 0.09698 0.03196 0.0
C2131 C 0.45992 0.43236 0.02884 0.0
C2132 C 0.44017 0.44257 0.04856 0.0
C2133 C 0.48722 0.45423 0.02717 0.0
C2134 C 0.4968 0.48802 0.04509 0.0
H2135 H 0.4542 0.40689 0.01408 0.0
H2136 H 0.50083 0.44403 0.01123 0.0
S2137 S 0.45376 0.52772 0.10167 0.0
N2138 N 0.43197 0.48894 0.08694 0.0
N2139 N 0.48386 0.53029 0.08433 0.0
C2140 C 0.47725 0.49885 0.06513 0.0
C2141 C 0.44889 0.47623 0.06664 0.0
C2142 C 0.39784 0.69331 0.80955 0.0
C2143 C 0.40549 0.66968 0.78468 0.0
C2144 C 0.3826 0.71749 0.80383 0.0
C2145 C 0.37337 0.72088 0.77244 0.0
H2146 H 0.40406 0.69359 0.83459 0.0
H2147 H 0.37879 0.73444 0.82465 0.0
S2148 S 0.38481 0.66506 0.69732 0.0
N2149 N 0.39993 0.6517 0.72624 0.0
N2150 N 0.37266 0.69599 0.71561 0.0
C2151 C 0.38033 0.69715 0.74725 0.0
C2152 C 0.39568 0.67228 0.75312 0.0
C2153 C 0.20216 0.60993 0.50769 0.0
C2154 C 0.21441 0.5879 0.5204 0.0
C2155 C 0.17295 0.60939 0.51037 0.0
C2156 C 0.15485 0.58535 0.52382 0.0
H2157 H 0.21598 0.62993 0.49905 0.0
H2158 H 0.16495 0.62851 0.50271 0.0
S2159 S 0.17553 0.51369 0.54621 0.0
N2160 N 0.20589 0.53625 0.53671 0.0
N2161 N 0.15059 0.53337 0.54082 0.0
C2162 C 0.16613 0.55957 0.53052 0.0
C2163 C 0.19589 0.56071 0.52806 0.0
C2164 C 0.7709 0.95633 0.73977 0.0
C2165 C 0.77203 0.98947 0.7408 0.0
C2166 C 0.79183 0.9493 0.75965 0.0
C2167 C 0.81447 0.97539 0.78108 0.0
H2168 H 0.75191 0.93596 0.72644 0.0
H2169 H 0.78807 0.92335 0.76062 0.0
S2170 S 0.83013 0.06644 0.78643 0.0
N2171 N 0.79938 0.04864 0.76024 0.0
N2172 N 0.84004 0.03536 0.79693 0.0
C2173 C 0.818 1.00858 0.77881 0.0
C2174 C 0.7964 0.01569 0.75867 0.0
C2175 C 0.7863 0.97683 0.52832 0.0
C2176 C 0.78365 0.94257 0.52488 0.0
C2177 C 0.76306 0.98733 0.51613 0.0
C2178 C 0.73623 0.96404 0.50005 0.0
H2179 H 0.807 0.99575 0.53925 0.0
H2180 H 0.76662 0.01386 0.5178 0.0
S2181 S 0.71553 0.87188 0.48954 0.0
N2182 N 0.75016 0.88545 0.50796 0.0
N2183 N 0.7065 0.90563 0.48487 0.0
C2184 C 0.73208 0.92993 0.49886 0.0
C2185 C 0.7558 0.91908 0.5114 0.0
C2186 C 0.39 0.442 0.73925 0.0
C2187 C 0.40757 0.46666 0.76664 0.0
C2188 C 0.3736 0.40902 0.74123 0.0
C2189 C 0.37451 0.39823 0.77049 0.0
H2190 H 0.38966 0.44781 0.71577 0.0
H2191 H 0.36094 0.39135 0.71927 0.0
S2192 S 0.41701 0.45333 0.84947 0.0
N2193 N 0.42449 0.4774 0.82387 0.0
N2194 N 0.39414 0.41733 0.8279 0.0
C2195 C 0.39168 0.42312 0.79798 0.0
C2196 C 0.40803 0.4565 0.79595 0.0
C2197 C 0.30931 0.65781 0.2701 0.0
C2198 C 0.28475 0.63962 0.24651 0.0
C2199 C 0.31628 0.69264 0.28037 0.0
C2200 C 0.29895 0.70983 0.26698 0.0
H2201 H 0.3208 0.6448 0.28346 0.0
H2202 H 0.3337 0.70578 0.30065 0.0
S2203 S 0.23507 0.67376 0.20127 0.0
N2204 N 0.24592 0.64132 0.20663 0.0
N2205 N 0.25815 0.70695 0.22714 0.0
C2206 C 0.27638 0.69233 0.24101 0.0
C2207 C 0.26973 0.65698 0.23007 0.0
C2208 C 0.55439 0.68031 0.51708 0.0
C2209 C 0.53963 0.68117 0.48666 0.0
C2210 C 0.56298 0.65134 0.52266 0.0
C2211 C 0.55712 0.62078 0.49832 0.0
H2212 H 0.55969 0.70245 0.53692 0.0
H2213 H 0.57419 0.65301 0.54636 0.0
S2214 S 0.51771 0.6087 0.41487 0.0
N2215 N 0.51938 0.64756 0.43265 0.0
N2216 N 0.53433 0.59485 0.44219 0.0
C2217 C 0.54229 0.62183 0.46805 0.0
C2218 C 0.53398 0.65112 0.46252 0.0
C2219 C 0.74195 0.33582 0.66991 0.0
C2220 C 0.7113 0.32525 0.67173 0.0
C2221 C 0.76379 0.33155 0.6924 0.0
C2222 C 0.75665 0.31651 0.71843 0.0
H2223 H 0.74928 0.34728 0.65055 0.0
H2224 H 0.78674 0.34001 0.68911 0.0
S2225 S 0.67979 0.28107 0.73312 0.0
N2226 N 0.67527 0.29689 0.70156 0.0
N2227 N 0.71585 0.28913 0.74312 0.0
C2228 C 0.72613 0.30571 0.72062 0.0
C2229 C 0.70378 0.30997 0.69763 0.0
C2230 C 0.03465 0.38708 0.96593 0.0
C2231 C 0.04131 0.37275 0.99151 0.0
C2232 C 0.04153 0.42228 0.96952 0.0
C2233 C 0.05532 0.44591 0.999 0.0
H2234 H 0.02414 0.37077 0.94245 0.0
H2235 H 0.0365 0.43121 0.94841 0.0
S2236 S 0.07977 0.4225 0.07362 0.0
N2237 N 0.06374 0.3858 0.04775 0.0
N2238 N 0.07683 0.45152 0.05431 0.0
C2239 C 0.06206 0.43207 0.0251 0.0
C2240 C 0.05496 0.39586 0.02144 0.0
C2241 C 0.02028 0.82316 0.15713 0.0
C2242 C 0.05028 0.8286 0.16864 0.0
C2243 C 0.99804 0.80931 0.17422 0.0
C2244 C 1.00538 0.80107 0.2034 0.0
H2245 H 0.0139 0.82729 0.13373 0.0
H2246 H 0.97509 0.80287 0.16348 0.0
S2247 S 0.08064 0.81697 0.2467 0.0
N2248 N 0.08617 0.82914 0.21291 0.0
N2249 N 0.04441 0.80389 0.24532 0.0
C2250 C 0.03528 0.80944 0.2165 0.0
C2251 C 0.05778 0.823 0.199 0.0
C2252 C 0.54379 0.32992 0.10544 0.0
C2253 C 0.51633 0.3058 0.09217 0.0
C2254 C 0.55996 0.34928 0.08669 0.0
C2255 C 0.54899 0.34589 0.05428 0.0
H2256 H 0.55363 0.33291 0.13011 0.0
H2257 H 0.58167 0.36619 0.09729 0.0
S2258 S 0.4779 0.28841 0.00814 0.0
N2259 N 0.47849 0.28081 0.04451 0.0
N2260 N 0.50896 0.31812 0.00973 0.0
C2261 C 0.52118 0.32316 0.04096 0.0
C2262 C 0.50478 0.30296 0.05985 0.0
C2263 C 0.04659 0.32195 0.34062 0.0
C2264 C 0.07632 0.34016 0.34223 0.0
C2265 C 0.0238 0.33131 0.32599 0.0
C2266 C 0.02984 0.35939 0.31255 0.0
H2267 H 0.04082 0.30017 0.35068 0.0
H2268 H 1.00132 0.31561 0.32417 0.0
S2269 S 0.10341 0.41926 0.31567 0.0
N2270 N 0.11041 0.39012 0.33246 0.0
N2271 N 0.06715 0.40787 0.30543 0.0
C2272 C 0.05928 0.37903 0.31562 0.0
C2273 C 0.08263 0.36933 0.33025 0.0
C2274 C 0.0161 0.6633 0.57505 0.0
C2275 C 0.99372 0.64767 0.59139 0.0
C2276 C 0.03621 0.64702 0.56272 0.0
C2277 C 0.03477 0.61491 0.56668 0.0
H2278 H 0.01962 0.6892 0.57395 0.0
H2279 H 0.05363 0.66008 0.55119 0.0
S2280 S 0.97558 0.55935 0.59822 0.0
N2281 N 0.96731 0.59514 0.60332 0.0
N2282 N 0.00637 0.56551 0.58208 0.0
C2283 C 0.01101 0.59782 0.57997 0.0
C2284 C 0.9899 0.61382 0.59139 0.0
C2285 C 0.74425 0.83619 0.84227 0.0
C2286 C 0.718 0.83826 0.82618 0.0
C2287 C 0.76548 0.82662 0.82493 0.0
C2288 C 0.76108 0.81819 0.79086 0.0
H2289 H 0.74881 0.84276 0.86849 0.0
H2290 H 0.78578 0.82647 0.83841 0.0
S2291 S 0.69544 0.81697 0.73707 0.0
N2292 N 0.68817 0.8294 0.77402 0.0
N2293 N 0.72844 0.81119 0.7416 0.0
C2294 C 0.73479 0.81929 0.77441 0.0
C2295 C 0.71312 0.82931 0.79203 0.0
C2296 C 0.49969 0.55883 0.65237 0.0
C2297 C 0.5169 0.56938 0.68386 0.0
C2298 C 0.5125 0.55628 0.62249 0.0
C2299 C 0.54363 0.56387 0.62129 0.0
H2300 H 0.47584 0.55108 0.65056 0.0
H2301 H 0.49749 0.54749 0.59984 0.0
S2302 S 0.59918 0.59217 0.69666 0.0
N2303 N 0.56746 0.58764 0.71082 0.0
N2304 N 0.59061 0.58182 0.65688 0.0
C2305 C 0.5608 0.57448 0.6528 0.0
C2306 C 0.54785 0.57734 0.68298 0.0
C2307 C 0.79641 0.17758 0.94294 0.0
C2308 C 0.79994 0.18718 0.97681 0.0
C2309 C 0.79058 0.19931 0.92459 0.0
C2310 C 0.78642 0.22994 0.93984 0.0
H2311 H 0.79549 0.15225 0.93069 0.0
H2312 H 0.78626 0.19069 0.89847 0.0
S2313 S 0.79863 0.26829 0.02791 0.0
N2314 N 0.80427 0.23126 0.02494 0.0
N2315 N 0.79093 0.27108 0.99033 0.0
C2316 C 0.79317 0.24119 0.9736 0.0
C2317 C 0.80046 0.21983 0.99219 0.0
C2318 C 0.12885 0.54329 0.16735 0.0
C2319 C 0.15948 0.55208 0.16847 0.0
C2320 C 0.11069 0.53243 0.13751 0.0
C2321 C 0.12298 0.53027 0.10856 0.0
H2322 H 0.11904 0.54497 0.18942 0.0
H2323 H 0.08717 0.5272 0.13728 0.0
S2324 S 0.20233 0.54223 0.10057 0.0
N2325 N 0.20159 0.55374 0.13973 0.0
N2326 N 0.16741 0.52942 0.08356 0.0
C2327 C 0.15354 0.53457 0.10994 0.0
C2328 C 0.17192 0.54713 0.14006 0.0
C2329 C 0.83982 0.79972 0.41276 0.0
C2330 C 0.84534 0.83146 0.43444 0.0
C2331 C 0.83799 0.79612 0.37881 0.0
C2332 C 0.84229 0.82423 0.3653 0.0
H2333 H 0.83622 0.77742 0.42203 0.0
H2334 H 0.83243 0.77114 0.36306 0.0
S2335 S 0.86151 0.91314 0.41158 0.0
N2336 N 0.8577 0.89162 0.43965 0.0
N2337 N 0.85471 0.88497 0.3767 0.0
C2338 C 0.84903 0.85606 0.38688 0.0
C2339 C 0.85049 0.85967 0.42113 0.0
C2340 C 0.49984 0.54057 0.88912 0.0
C2341 C 0.51469 0.56726 0.87574 0.0
C2342 C 0.51053 0.53524 0.91973 0.0
C2343 C 0.53832 0.55431 0.93912 0.0
H2344 H 0.47929 0.52314 0.8756 0.0
H2345 H 0.49616 0.51582 0.92848 0.0
S2346 S 0.58536 0.63051 0.91863 0.0
N2347 N 0.55852 0.61527 0.88738 0.0
N2348 N 0.57843 0.60485 0.94302 0.0
C2349 C 0.55315 0.58177 0.92649 0.0
C2350 C 0.54182 0.58785 0.89557 0.0
C2351 C 0.8158 0.2207 0.13457 0.0
C2352 C 0.78583 0.20849 0.12127 0.0
C2353 C 0.82511 0.24542 0.16326 0.0
C2354 C 0.80469 0.25844 0.17929 0.0
H2355 H 0.83208 0.21068 0.12305 0.0
H2356 H 0.84798 0.25234 0.17412 0.0
S2357 S 0.72367 0.23408 0.15477 0.0
N2358 N 0.73561 0.21084 0.12587 0.0
N2359 N 0.75342 0.25747 0.1807 0.0
C2360 C 0.77471 0.2469 0.16606 0.0
C2361 C 0.76517 0.22183 0.13665 0.0
C2362 C 0.16515 0.5766 0.29386 0.0
C2363 C 0.18642 0.56433 0.30796 0.0
C2364 C 0.14382 0.58561 0.31122 0.0
C2365 C 0.14315 0.58241 0.34312 0.0
H2366 H 0.16553 0.58034 0.26972 0.0
H2367 H 0.12835 0.59603 0.29995 0.0
S2368 S 0.19173 0.54596 0.38846 0.0
N2369 N 0.2037 0.54513 0.35322 0.0
N2370 N 0.16426 0.56279 0.38705 0.0
C2371 C 0.16327 0.56781 0.35663 0.0
C2372 C 0.18479 0.55852 0.33866 0.0
C2373 C 0.84507 0.80508 0.62966 0.0
C2374 C 0.83046 0.82409 0.61461 0.0
C2375 C 0.83797 0.79681 0.65887 0.0
C2376 C 0.81647 0.8077 0.67514 0.0
H2377 H 0.86271 0.79702 0.61919 0.0
H2378 H 0.84975 0.78201 0.66906 0.0
S2379 S 0.76703 0.85146 0.64335 0.0
N2380 N 0.78969 0.84869 0.61623 0.0
N2381 N 0.77732 0.8339 0.67159 0.0
C2382 C 0.80019 0.82457 0.65952 0.0
C2383 C 0.80705 0.8327 0.62934 0.0
C2384 C 0.79562 0.50503 0.54802 0.0
C2385 C 0.7943 0.49821 0.5141 0.0
C2386 C 0.77927 0.52443 0.56379 0.0
C2387 C 0.76094 0.53771 0.54631 0.0
H2388 H 0.81021 0.49642 0.56281 0.0
H2389 H 0.78143 0.52953 0.58997 0.0
S2390 S 0.74661 0.52302 0.4568 0.0
N2391 N 0.77093 0.50288 0.46328 0.0
N2392 N 0.74035 0.5402 0.49295 0.0
C2393 C 0.75809 0.52946 0.51223 0.0
C2394 C 0.77482 0.50958 0.49613 0.0
C2395 C 0.19224 0.15387 0.50081 0.0
C2396 C 0.21857 0.14459 0.49987 0.0
C2397 C 0.16501 0.13079 0.50119 0.0
C2398 C 0.16226 0.0969 0.50059 0.0
H2399 H 0.1926 0.17964 0.5022 0.0
H2400 H 0.14593 0.14008 0.50279 0.0
S2401 S 0.22372 0.05827 0.49508 0.0
N2402 N 0.23968 0.09805 0.49595 0.0
N2403 N 0.18841 0.05473 0.49691 0.0
C2404 C 0.18807 0.08665 0.49801 0.0
C2405 C 0.21613 0.11039 0.49764 0.0
C2406 C 0.25691 0.8975 0.75375 0.0
C2407 C 0.26154 0.92648 0.77998 0.0
C2408 C 0.27275 0.87218 0.7535 0.0
C2409 C 0.29519 0.87316 0.77905 0.0
H2410 H 0.2395 0.89295 0.73382 0.0
H2411 H 0.26581 0.85013 0.73345 0.0
S2412 S 0.31503 0.94154 0.85494 0.0
N2413 N 0.29124 0.95294 0.83272 0.0
N2414 N 0.31776 0.90599 0.83295 0.0
C2415 C 0.2995 0.90178 0.80524 0.0
C2416 C 0.28397 0.92773 0.80536 0.0
C2417 C 0.45006 1.00127 0.99263 0.0
C2418 C 0.44257 0.01776 0.02149 0.0
C2419 C 0.47864 0.99831 0.99139 0.0
C2420 C 0.50111 0.01445 0.01772 0.0
H2421 H 0.43322 0.98799 0.97193 0.0
H2422 H 0.48271 0.9823 0.97028 0.0
S2423 S 0.49264 0.06328 0.09769 0.0
N2424 N 0.45939 0.05095 0.07638 0.0
N2425 N 0.51367 0.04885 0.07302 0.0
C2426 C 0.49403 0.03297 0.04581 0.0
C2427 C 0.46478 0.03445 0.04765 0.0
C2428 C 0.88288 0.57999 0.77508 0.0
C2429 C 0.88651 0.5943 0.80859 0.0
C2430 C 0.85868 0.58048 0.75443 0.0
C2431 C 0.83754 0.59511 0.76689 0.0
H2432 H 0.89893 0.56864 0.7647 0.0
H2433 H 0.85754 0.57137 0.72855 0.0
S2434 S 0.83645 0.63314 0.85321 0.0
N2435 N 0.86687 0.62151 0.85347 0.0
N2436 N 0.82054 0.6216 0.81503 0.0
C2437 C 0.84008 0.60733 0.80068 0.0
C2438 C 0.86492 0.60733 0.82144 0.0
C2439 C 0.88613 0.61827 0.99662 0.0
C2440 C 0.8813 0.64825 0.0131 0.0
C2441 C 0.90562 0.60401 0.01128 0.0
C2442 C 0.92092 0.61926 0.04284 0.0
H2443 H 0.87389 0.605 0.97282 0.0
H2444 H 0.90783 0.58023 0.99837 0.0
S2445 S 0.92079 0.70127 0.09357 0.0
N2446 N 0.89691 0.69508 0.06084 0.0
N2447 N 0.93317 0.66811 0.08821 0.0
C2448 C 0.91787 0.65032 0.0586 0.0
C2449 C 0.89818 0.66486 0.04376 0.0
C2450 C 0.23726 0.15125 0.78549 0.0
C2451 C 0.24832 0.12331 0.78485 0.0
C2452 C 0.25537 0.18375 0.78582 0.0
C2453 C 0.28623 0.19132 0.78567 0.0
H2454 H 0.21386 0.14817 0.78541 0.0
H2455 H 0.24466 0.20323 0.78601 0.0
S2456 S 0.32742 0.12784 0.78409 0.0
N2457 N 0.29294 0.10605 0.78407 0.0
N2458 N 0.32687 0.16658 0.78485 0.0
C2459 C 0.29783 0.16369 0.78524 0.0
C2460 C 0.27911 0.13016 0.78475 0.0
C2461 C 0.3632 0.93859 0.29221 0.0
C2462 C 0.39408 0.94612 0.29428 0.0
C2463 C 0.34566 0.9053 0.28617 0.0
C2464 C 0.35892 0.87943 0.28346 0.0
H2465 H 0.35263 0.9584 0.29538 0.0
H2466 H 0.3218 0.8997 0.28326 0.0
S2467 S 0.43853 0.886 0.28743 0.0
N2468 N 0.43683 0.92472 0.29146 0.0
N2469 N 0.40405 0.86298 0.28463 0.0
C2470 C 0.38965 0.88676 0.28669 0.0
C2471 C 0.40727 0.92004 0.29089 0.0
C2472 C 0.62761 0.42072 0.53852 0.0
C2473 C 0.61797 0.40495 0.56382 0.0
C2474 C 0.61947 0.44962 0.53217 0.0
C2475 C 0.6013 0.46552 0.5509 0.0
H2476 H 0.64215 0.411 0.52358 0.0
H2477 H 0.62869 0.46046 0.5132 0.0
S2478 S 0.56998 0.43571 0.62012 0.0
N2479 N 0.58754 0.4083 0.60643 0.0
N2480 N 0.57559 0.46277 0.59717 0.0
C2481 C 0.59192 0.45007 0.57617 0.0
C2482 C 0.59914 0.42012 0.58177 0.0
C2483 C 0.41038 0.76152 0.39432 0.0
C2484 C 0.43845 0.76038 0.38577 0.0
C2485 C 0.38813 0.76727 0.3732 0.0
C2486 C 0.3921 0.77251 0.34185 0.0
H2487 H 0.40551 0.75836 0.41796 0.0
H2488 H 0.36743 0.76779 0.38185 0.0
S2489 S 0.46254 0.77547 0.3082 0.0
N2490 N 0.46881 0.76631 0.34326 0.0
N2491 N 0.42872 0.77903 0.30553 0.0
C2492 C 0.42036 0.7721 0.3334 0.0
C2493 C 0.44283 0.76563 0.35463 0.0
C2494 C 0.08574 0.69024 0.0397 0.0
C2495 C 0.11296 0.7141 0.05573 0.0
C2496 C 0.08063 0.65459 0.03558 0.0
C2497 C 0.10196 0.64075 0.04834 0.0
H2498 H 0.06813 0.69909 0.03048 0.0
H2499 H 0.05922 0.63785 0.0236 0.0
S2500 S 0.17475 0.69252 0.09566 0.0
N2501 N 0.1609 0.72044 0.08414 0.0
N2502 N 0.14936 0.65601 0.08176 0.0
C2503 C 0.12826 0.6648 0.06551 0.0
C2504 C 0.13424 0.70044 0.06768 0.0
C2505 C 0.10438 0.27216 0.86069 0.0
C2506 C 0.11113 0.28182 0.8947 0.0
C2507 C 0.12688 0.27657 0.84127 0.0
C2508 C 0.15682 0.29023 0.85515 0.0
H2509 H 0.08159 0.26327 0.84898 0.0
H2510 H 0.12075 0.27153 0.81529 0.0
S2511 S 0.18642 0.31243 0.94254 0.0
N2512 N 0.15016 0.30048 0.94117 0.0
N2513 N 0.19224 0.30847 0.90452 0.0
C2514 C 0.16397 0.29649 0.88886 0.0
C2515 C 0.14113 0.29242 0.90868 0.0
C2516 C 0.63077 0.76382 0.95434 0.0
C2517 C 0.63892 0.79818 0.97025 0.0
C2518 C 0.61541 0.73929 0.96912 0.0
C2519 C 0.6079 0.74851 1.00017 0.0
H2520 H 0.63412 0.756 0.92946 0.0
H2521 H 0.60748 0.71339 0.9553 0.0
S2522 S 0.62865 0.83408 0.05394 0.0
N2523 N 0.64179 0.8394 0.02028 0.0
N2524 N 0.61313 0.7933 0.04789 0.0
C2525 C 0.61836 0.78227 0.01731 0.0
C2526 C 0.63388 0.80713 1.0024 0.0
C2527 C 0.10249 0.74782 0.71228 0.0
C2528 C 0.07996 0.71712 0.70616 0.0
C2529 C 0.1309 0.75078 0.72675 0.0
C2530 C 0.13729 0.72302 0.73495 0.0
H2531 H 0.09773 0.77014 0.70794 0.0
H2532 H 0.14712 0.77533 0.73392 0.0
S2533 S 0.08895 0.63561 0.71568 0.0
N2534 N 0.06795 0.65711 0.70317 0.0
N2535 N 0.12156 0.66317 0.73057 0.0
C2536 C 0.11627 0.69156 0.72528 0.0
C2537 C 0.0874 0.68845 0.71079 0.0
C2538 C 0.15041 0.46987 0.43628 0.0
C2539 C 0.15783 0.44478 0.44879 0.0
C2540 C 0.13102 0.48626 0.45027 0.0
C2541 C 0.11814 0.478 0.47723 0.0
H2542 H 0.15677 0.47398 0.41335 0.0
H2543 H 0.12545 0.50475 0.439 0.0
S2544 S 0.13417 0.41683 0.52108 0.0
N2545 N 0.15519 0.41633 0.49228 0.0
N2546 N 0.11614 0.44412 0.51662 0.0
C2547 C 0.12718 0.45454 0.4911 0.0
C2548 C 0.14837 0.4395 0.47795 0.0
C2549 C 0.44195 0.26937 0.25551 0.0
C2550 C 0.43725 0.25035 0.22342 0.0
C2551 C 0.41805 0.27543 0.27036 0.0
C2552 C 0.38926 0.26321 0.2531 0.0
H2553 H 0.46393 0.27849 0.26943 0.0
H2554 H 0.42197 0.28876 0.29558 0.0
S2555 S 0.3658 0.20801 0.16998 0.0
N2556 N 0.40216 0.21686 0.17591 0.0
N2557 N 0.3574 0.22864 0.20339 0.0
C2558 C 0.38461 0.2438 0.22112 0.0
C2559 C 0.40868 0.23741 0.20627 0.0
C2560 C 0.61625 0.50234 0.37213 0.0
C2561 C 0.64563 0.51998 0.36897 0.0
C2562 C 0.60468 0.50467 0.40261 0.0
C2563 C 0.62111 0.52557 0.43285 0.0
H2564 H 0.60148 0.48683 0.35041 0.0
H2565 H 0.58212 0.49018 0.40206 0.0
S2566 S 0.69827 0.58064 0.439 0.0
N2567 N 0.69002 0.56123 0.40015 0.0
N2568 N 0.66902 0.5659 0.45577 0.0
C2569 C 0.65043 0.54373 0.42988 0.0
C2570 C 0.66225 0.54105 0.39887 0.0
C2571 C 0.3486 0.87348 0.08409 0.0
C2572 C 0.3641 0.90601 0.08284 0.0
C2573 C 0.35479 0.86156 0.11113 0.0
C2574 C 0.37728 0.88171 0.13659 0.0
H2575 H 0.33377 0.85638 0.06308 0.0
H2576 H 0.34467 0.83532 0.11029 0.0
S2577 S 0.42168 0.96951 0.14519 0.0
N2578 N 0.40035 0.95906 0.10983 0.0
N2579 N 0.41228 0.93643 0.16064 0.0
C2580 C 0.39052 0.9153 0.13688 0.0
C2581 C 0.38399 0.92749 0.10969 0.0
C2582 C 0.99458 0.56473 0.91921 0.0
C2583 C 0.98193 0.53271 0.89847 0.0
C2584 C 0.02067 0.57155 0.93988 0.0
C2585 C 0.03485 0.54674 0.93966 0.0
H2586 H 0.98417 0.58453 0.91982 0.0
H2587 H 0.02888 0.59555 0.95747 0.0
S2588 S 0.01075 0.45899 0.8912 0.0
N2589 N 0.98462 0.47536 0.88086 0.0
N2590 N 0.03596 0.48992 0.91726 0.0
C2591 C 0.02359 0.51536 0.91798 0.0
C2592 C 0.99615 0.50769 0.8983 0.0
C2593 C 0.32253 0.28845 0.63978 0.0
C2594 C 0.31435 0.25642 0.61787 0.0
C2595 C 0.32568 0.29227 0.67395 0.0
C2596 C 0.32045 0.26419 0.68768 0.0
H2597 H 0.32716 0.31076 0.63048 0.0
H2598 H 0.33309 0.31735 0.68967 0.0
S2599 S 0.29408 0.17507 0.64126 0.0
N2600 N 0.29794 0.19637 0.61302 0.0
N2601 N 0.30433 0.2034 0.67619 0.0
C2602 C 0.31127 0.23225 0.66594 0.0
C2603 C 0.30804 0.2284 0.63147 0.0
C2604 C 0.64342 0.5533 0.16647 0.0
C2605 C 0.6408 0.52235 0.17579 0.0
C2606 C 0.63134 0.55584 0.13506 0.0
C2607 C 0.61441 0.52787 0.10994 0.0
H2608 H 0.65556 0.57647 0.18386 0.0
H2609 H 0.63619 0.58015 0.13056 0.0
S2610 S 0.59627 0.44037 0.12154 0.0
N2611 N 0.61684 0.4627 0.15634 0.0
N2612 N 0.59431 0.46719 0.09923 0.0
C2613 C 0.61068 0.49677 0.1195 0.0
C2614 C 0.6234 0.49408 0.15134 0.0
C2615 C 0.34755 0.86871 0.91911 0.0
C2616 C 0.3763 0.8907 0.92875 0.0
C2617 C 0.34142 0.84138 0.89307 0.0
C2618 C 0.36362 0.83532 0.87539 0.0
H2619 H 0.32931 0.87266 0.93145 0.0
H2620 H 0.31864 0.82694 0.88532 0.0
S2621 S 0.44307 0.88335 0.89213 0.0
N2622 N 0.42784 0.9037 0.91989 0.0
N2623 N 0.41596 0.85095 0.87057 0.0
C2624 C 0.3929 0.85572 0.88581 0.0
C2625 C 0.39927 0.88401 0.91239 0.0
C2626 C 0.01475 0.55316 0.7506 0.0
C2627 C 0.98665 0.53784 0.75713 0.0
C2628 C 0.02069 0.54774 0.71882 0.0
C2629 C 0.99871 0.52623 0.6936 0.0
H2630 H 0.03303 0.56516 0.77018 0.0
H2631 H 0.0435 0.55572 0.71485 0.0
S2632 S 0.91926 0.49287 0.6979 0.0
N2633 N 0.93487 0.50985 0.73591 0.0
N2634 N 0.94622 0.49929 0.67575 0.0
C2635 C 0.9694 0.51686 0.69932 0.0
C2636 C 0.96331 0.52263 0.73156 0.0
C2637 C 0.33065 0.23542 0.40818 0.0
C2638 C 0.32095 0.25718 0.43183 0.0
C2639 C 0.33391 0.24102 0.37686 0.0
C2640 C 0.32836 0.26907 0.36778 0.0
H2641 H 0.3348 0.21317 0.41345 0.0
H2642 H 0.34053 0.22294 0.35945 0.0
S2643 S 0.30314 0.33426 0.42019 0.0
N2644 N 0.30637 0.3085 0.44328 0.0
N2645 N 0.31292 0.31894 0.3854 0.0
C2646 C 0.31962 0.29152 0.39143 0.0
C2647 C 0.31583 0.28562 0.42303 0.0
C2648 C 0.35051 0.54013 0.52161 0.0
C2649 C 0.35726 0.575 0.5332 0.0
C2650 C 0.37154 0.52577 0.5091 0.0
C2651 C 0.39989 0.5459 0.5078 0.0
H2652 H 0.3282 0.52407 0.52002 0.0
H2653 H 0.36497 0.49902 0.49826 0.0
S2654 S 0.42993 0.63804 0.53983 0.0
N2655 N 0.39526 0.62906 0.54665 0.0
N2656 N 0.43503 0.60182 0.52268 0.0
C2657 C 0.40793 0.58044 0.52232 0.0
C2658 C 0.38647 0.59513 0.53526 0.0
C2659 C 0.94071 0.97415 0.5453 0.0
C2660 C 0.93844 0.94213 0.55109 0.0
C2661 C 0.96851 0.99658 0.54371 0.0
C2662 C 0.99502 0.98771 0.54756 0.0
H2663 H 0.92086 0.98137 0.54063 0.0
H2664 H 0.96905 0.02024 0.53788 0.0
S2665 S 1.00185 0.90974 0.56837 0.0
N2666 N 0.96609 0.90518 0.56463 0.0
N2667 N 0.01724 0.94643 0.56097 0.0
C2668 C 0.99305 0.95677 0.55509 0.0
C2669 C 0.96515 0.93432 0.55705 0.0
C2670 C 0.92707 0.20494 0.285 0.0
C2671 C 0.91282 0.1706 0.28368 0.0
C2672 C 0.91171 0.22943 0.28124 0.0
C2673 C 0.88012 0.22341 0.27704 0.0
H2674 H 0.95101 0.2135 0.28941 0.0
H2675 H 0.92555 0.25443 0.28215 0.0
S2676 S 0.83109 0.13805 0.27622 0.0
N2677 N 0.86419 0.13279 0.28034 0.0
N2678 N 0.83587 0.17745 0.27426 0.0
C2679 C 0.86552 0.1891 0.27699 0.0
C2680 C 0.88144 0.16373 0.2802 0.0
C2681 C 0.6881 0.0558 0.03437 0.0
C2682 C 0.7081 0.07138 0.01626 0.0
C2683 C 0.66085 0.06189 0.03539 0.0
C2684 C 0.65214 0.08364 0.01896 0.0
H2685 H 0.69478 0.04187 0.05067 0.0
H2686 H 0.64657 0.04947 0.04935 0.0
S2687 S 0.69155 0.11836 0.95671 0.0
N2688 N 0.71365 0.09986 0.97252 0.0
N2689 N 0.66272 0.11308 0.97624 0.0
C2690 C 0.67022 0.0954 0.9969 0.0
C2691 C 0.69785 0.08826 0.99485 0.0
C2692 C 0.30049 0.47703 0.22566 0.0
C2693 C 0.28252 0.49757 0.23437 0.0
C2694 C 0.31559 0.46696 0.24942 0.0
C2695 C 0.31283 0.47709 0.28237 0.0
H2696 H 0.30267 0.46856 0.20047 0.0
H2697 H 0.32973 0.45148 0.24198 0.0
S2698 S 0.26848 0.53157 0.31702 0.0
N2699 N 0.26389 0.52928 0.27779 0.0
N2700 N 0.29008 0.50799 0.32212 0.0
C2701 C 0.29467 0.49751 0.29113 0.0
C2702 C 0.28008 0.50842 0.26716 0.0
C2703 C 0.29422 0.47377 0.00765 0.0
C2704 C 0.28936 0.44728 0.02323 0.0
C2705 C 0.2713 0.48637 0.99866 0.0
C2706 C 0.24242 0.4728 1.00455 0.0
H2707 H 0.31557 0.48358 1.00053 0.0
H2708 H 0.27564 0.50495 0.98445 0.0
S2709 S 0.21915 0.40878 0.05132 0.0
N2710 N 0.25447 0.41208 0.04956 0.0
N2711 N 0.21109 0.43568 0.03191 0.0
C2712 C 0.23783 0.44914 0.02347 0.0
C2713 C 0.26139 0.43631 0.03296 0.0
C2714 C 0.88433 0.95443 0.26875 0.0
C2715 C 0.91444 0.9613 0.26391 0.0
C2716 C 0.86635 0.92125 0.26887 0.0
C2717 C 0.87731 0.89278 0.26432 0.0
H2718 H 0.87461 0.97491 0.27307 0.0
H2719 H 0.84379 0.91815 0.27331 0.0
S2720 S 0.95411 0.89568 0.24958 0.0
N2721 N 0.95344 0.93472 0.25349 0.0
N2722 N 0.92068 0.87482 0.25391 0.0
C2723 C 0.90711 0.89941 0.25899 0.0
C2724 C 0.92519 0.93265 0.25874 0.0
C2725 C 0.7587 0.17144 0.73267 0.0
C2726 C 0.76759 0.14567 0.74218 0.0
C2727 C 0.77123 0.20404 0.74973 0.0
C2728 C 0.79608 0.21257 0.77296 0.0
H2729 H 0.73963 0.16625 0.71443 0.0
H2730 H 0.76099 0.22279 0.74504 0.0
S2731 S 0.82982 0.15538 0.80556 0.0
N2732 N 0.8024 0.13047 0.77726 0.0
N2733 N 0.83001 0.19414 0.80532 0.0
C2734 C 0.80704 0.18774 0.78139 0.0
C2735 C 0.7924 0.15363 0.76603 0.0
loop_
_geom_bond_atom_site_label_1
_geom_bond_atom_site_label_2
_geom_bond_distance
_geom_bond_site_symmetry_2
_ccdc_geom_bond_type
Zn0 O3 2.031 . S
Zn0 O5 2.049 . S
Zn0 O10 2.067 . S
Zn1 O2 1.962 . S
Zn1 O4 1.986 . S
Zn1 O6 1.996 . S
Zn1 O9 1.943 . S
O2 Zn1 1.962 . S
O2 C7 1.254 . S
O3 Zn0 2.031 . S
O3 C7 1.269 . S
O4 Zn1 1.986 . S
O4 C11 1.262 . S
O5 Zn0 2.049 . S
O5 C13 1.260 . S
O6 Zn1 1.996 . S
O6 C13 1.257 . S
C7 O2 1.254 . S
C7 O3 1.269 . S
C8 O9 1.249 . S
C8 O10 1.270 . S
O9 Zn1 1.943 . S
O9 C8 1.249 . S
O10 Zn0 2.067 . S
O10 C8 1.270 . S
C11 O4 1.262 . S
C11 O12 1.232 . S
O12 C11 1.232 . S
C13 O5 1.260 . S
C13 O6 1.257 . S
Zn14 O17 2.031 1_455 S
Zn14 O19 2.049 . S
Zn14 O24 2.067 . S
Zn15 O16 1.943 1_455 S
Zn15 O18 1.993 . S
Zn15 O20 2.011 . S
Zn15 O23 1.947 1_455 S
O16 Zn15 1.943 1_655 S
O16 C21 1.254 . S
O17 Zn14 2.031 1_655 S
O17 C21 1.269 . S
O18 Zn15 1.993 . S
O18 C25 1.262 . S
O19 Zn14 2.049 . S
O19 C27 1.260 . S
O20 Zn15 2.011 . S
O20 C27 1.257 . S
C21 O16 1.254 . S
C21 O17 1.269 . S
C22 O23 1.249 . S
C22 O24 1.270 1_655 S
O23 Zn15 1.947 1_655 S
O23 C22 1.249 . S
O24 Zn14 2.067 . S
O24 C22 1.270 1_455 S
C25 O18 1.262 . S
C25 O26 1.232 1_455 S
O26 C25 1.232 1_655 S
C27 O19 1.260 . S
C27 O20 1.257 . S
Zn28 O31 2.031 . S
Zn28 O33 2.049 . S
Zn28 O38 2.067 . S
Zn29 O30 1.962 . S
Zn29 O32 1.986 . S
Zn29 O34 1.996 . S
Zn29 O37 1.943 . S
O30 Zn29 1.962 . S
O30 C35 1.254 . S
O31 Zn28 2.031 . S
O31 C35 1.269 . S
O32 Zn29 1.986 . S
O32 C39 1.262 . S
O33 Zn28 2.049 . S
O33 C41 1.260 . S
O34 Zn29 1.996 . S
O34 C41 1.257 . S
C35 O30 1.254 . S
C35 O31 1.269 . S
C36 O37 1.249 . S
C36 O38 1.270 . S
O37 Zn29 1.943 . S
O37 C36 1.249 . S
O38 Zn28 2.067 . S
O38 C36 1.270 . S
C39 O32 1.262 . S
C39 O40 1.232 . S
O40 C39 1.232 . S
C41 O33 1.260 . S
C41 O34 1.257 . S
Zn42 O45 2.031 . S
Zn42 O47 2.049 . S
Zn42 O52 2.067 . S
Zn43 O44 1.962 . S
Zn43 O46 1.986 . S
Zn43 O48 1.996 . S
Zn43 O51 1.943 . S
O44 Zn43 1.962 . S
O44 C49 1.254 . S
O45 Zn42 2.031 . S
O45 C49 1.269 . S
O46 Zn43 1.986 . S
O46 C53 1.262 . S
O47 Zn42 2.049 . S
O47 C55 1.260 . S
O48 Zn43 1.996 . S
O48 C55 1.257 . S
C49 O44 1.254 . S
C49 O45 1.269 . S
C50 O51 1.249 . S
C50 O52 1.270 . S
O51 Zn43 1.943 . S
O51 C50 1.249 . S
O52 Zn42 2.067 . S
O52 C50 1.270 . S
C53 O46 1.262 . S
C53 O54 1.232 . S
O54 C53 1.232 . S
C55 O47 1.260 . S
C55 O48 1.257 . S
Zn56 O59 2.031 . S
Zn56 O61 2.049 . S
Zn56 O66 2.067 . S
Zn57 O58 1.962 . S
Zn57 O60 1.986 . S
Zn57 O62 1.996 . S
Zn57 O65 1.943 . S
O58 Zn57 1.962 . S
O58 C63 1.254 . S
O59 Zn56 2.031 . S
O59 C63 1.269 . S
O60 Zn57 1.986 . S
O60 C67 1.262 . S
O61 Zn56 2.049 . S
O61 C69 1.260 . S
O62 Zn57 1.996 . S
O62 C69 1.257 . S
C63 O58 1.254 . S
C63 O59 1.269 . S
C64 O65 1.249 . S
C64 O66 1.270 . S
O65 Zn57 1.943 . S
O65 C64 1.249 . S
O66 Zn56 2.067 . S
O66 C64 1.270 . S
C67 O60 1.262 . S
C67 O68 1.232 . S
O68 C67 1.232 . S
C69 O61 1.260 . S
C69 O62 1.257 . S
Zn70 O73 2.031 . S
Zn70 O75 2.049 . S
Zn70 O80 2.067 . S
Zn71 O72 1.962 . S
Zn71 O74 1.986 . S
Zn71 O76 1.996 . S
Zn71 O79 1.943 . S
O72 Zn71 1.962 . S
O72 C77 1.254 . S
O73 Zn70 2.031 . S
O73 C77 1.269 . S
O74 Zn71 1.986 . S
O74 C81 1.262 . S
O75 Zn70 2.049 . S
O75 C83 1.260 . S
O76 Zn71 1.996 . S
O76 C83 1.257 . S
C77 O72 1.254 . S
C77 O73 1.269 . S
C78 O79 1.249 . S
C78 O80 1.270 . S
O79 Zn71 1.943 . S
O79 C78 1.249 . S
O80 Zn70 2.067 . S
O80 C78 1.270 . S
C81 O74 1.262 . S
C81 O82 1.232 . S
O82 C81 1.232 . S
C83 O75 1.260 . S
C83 O76 1.257 . S
Zn84 O87 2.031 . S
Zn84 O89 2.049 . S
Zn84 O94 2.067 . S
Zn85 O86 1.962 . S
Zn85 O88 1.986 . S
Zn85 O90 1.996 . S
Zn85 O93 1.943 . S
O86 Zn85 1.962 . S
O86 C91 1.254 . S
O87 Zn84 2.031 . S
O87 C91 1.269 . S
O88 Zn85 1.986 . S
O88 C95 1.262 . S
O89 Zn84 2.049 . S
O89 C97 1.260 . S
O90 Zn85 1.996 . S
O90 C97 1.257 . S
C91 O86 1.254 . S
C91 O87 1.269 . S
C92 O93 1.249 . S
C92 O94 1.270 . S
O93 Zn85 1.943 . S
O93 C92 1.249 . S
O94 Zn84 2.067 . S
O94 C92 1.270 . S
C95 O88 1.262 . S
C95 O96 1.232 . S
O96 C95 1.232 . S
C97 O89 1.260 . S
C97 O90 1.257 . S
Zn98 O101 2.031 1_655 S
Zn98 O103 2.049 . S
Zn98 O108 2.067 . S
Zn99 O100 1.962 . S
Zn99 O102 1.986 . S
Zn99 O104 1.996 . S
Zn99 O107 1.943 . S
O100 Zn99 1.962 . S
O100 C105 1.254 . S
O101 Zn98 2.031 1_455 S
O101 C105 1.269 . S
O102 Zn99 1.986 . S
O102 C109 1.262 . S
O103 Zn98 2.049 . S
O103 C111 1.260 1_655 S
O104 Zn99 1.996 . S
O104 C111 1.257 . S
C105 O100 1.254 . S
C105 O101 1.269 . S
C106 O107 1.249 1_655 S
C106 O108 1.270 . S
O107 Zn99 1.943 . S
O107 C106 1.249 1_455 S
O108 Zn98 2.067 . S
O108 C106 1.270 . S
C109 O102 1.262 . S
C109 O110 1.232 . S
O110 C109 1.232 . S
C111 O103 1.260 1_455 S
C111 O104 1.257 . S
Zn112 O115 2.031 . S
Zn112 O117 2.049 . S
Zn112 O122 2.067 . S
Zn113 O114 1.962 . S
Zn113 O116 1.986 . S
Zn113 O118 1.996 . S
Zn113 O121 1.943 1_545 S
O114 Zn113 1.962 . S
O114 C119 1.254 . S
O115 Zn112 2.031 . S
O115 C119 1.269 1_565 S
O116 Zn113 1.986 . S
O116 C123 1.262 . S
O117 Zn112 2.049 . S
O117 C125 1.260 . S
O118 Zn113 1.996 . S
O118 C125 1.257 1_545 S
C119 O114 1.254 . S
C119 O115 1.269 1_545 S
C120 O121 1.249 . S
C120 O122 1.270 . S
O121 Zn113 1.943 1_565 S
O121 C120 1.249 . S
O122 Zn112 2.067 . S
O122 C120 1.270 . S
C123 O116 1.262 . S
C123 O124 1.232 . S
O124 C123 1.232 . S
C125 O117 1.260 . S
C125 O118 1.257 1_565 S
Zn126 O129 2.031 . S
Zn126 O131 2.049 . S
Zn126 O136 2.067 . S
Zn127 O128 1.962 . S
Zn127 O130 1.986 . S
Zn127 O132 1.996 . S
Zn127 O135 1.943 . S
O128 Zn127 1.962 . S
O128 C133 1.254 . S
O129 Zn126 2.031 . S
O129 C133 1.269 . S
O130 Zn127 1.986 . S
O130 C137 1.262 . S
O131 Zn126 2.049 . S
O131 C139 1.260 . S
O132 Zn127 1.996 . S
O132 C139 1.257 . S
C133 O128 1.254 . S
C133 O129 1.269 . S
C134 O135 1.249 . S
C134 O136 1.270 . S
O135 Zn127 1.943 . S
O135 C134 1.249 . S
O136 Zn126 2.067 . S
O136 C134 1.270 . S
C137 O130 1.262 . S
C137 O138 1.232 . S
O138 C137 1.232 . S
C139 O131 1.260 . S
C139 O132 1.257 . S
Zn140 O143 2.031 . S
Zn140 O145 2.049 . S
Zn140 O150 2.067 . S
Zn141 O142 1.962 . S
Zn141 O144 1.986 . S
Zn141 O146 1.996 . S
Zn141 O149 1.943 1_565 S
O142 Zn141 1.962 . S
O142 C147 1.254 1_565 S
O143 Zn140 2.031 . S
O143 C147 1.269 . S
O144 Zn141 1.986 . S
O144 C151 1.262 . S
O145 Zn140 2.049 . S
O145 C153 1.260 1_545 S
O146 Zn141 1.996 . S
O146 C153 1.257 . S
C147 O142 1.254 1_545 S
C147 O143 1.269 . S
C148 O149 1.249 . S
C148 O150 1.270 . S
O149 Zn141 1.943 1_545 S
O149 C148 1.249 . S
O150 Zn140 2.067 . S
O150 C148 1.270 . S
C151 O144 1.262 . S
C151 O152 1.232 . S
O152 C151 1.232 . S
C153 O145 1.260 1_565 S
C153 O146 1.257 . S
Zn154 O157 2.031 1_554 S
Zn154 O159 2.049 . S
Zn154 O164 2.067 . S
Zn155 O156 1.962 1_554 S
Zn155 O158 1.986 . S
Zn155 O160 1.996 . S
Zn155 O163 1.943 . S
O156 Zn155 1.962 1_556 S
O156 C161 1.254 . S
O157 Zn154 2.031 1_556 S
O157 C161 1.269 . S
O158 Zn155 1.986 . S
O158 C165 1.262 . S
O159 Zn154 2.049 . S
O159 C167 1.260 . S
O160 Zn155 1.996 . S
O160 C167 1.257 . S
C161 O156 1.254 . S
C161 O157 1.269 . S
C162 O163 1.249 . S
C162 O164 1.270 . S
O163 Zn155 1.943 . S
O163 C162 1.249 . S
O164 Zn154 2.067 . S
O164 C162 1.270 . S
C165 O158 1.262 . S
C165 O166 1.232 1_554 S
O166 C165 1.232 1_556 S
C167 O159 1.260 . S
C167 O160 1.257 . S
Zn168 O171 2.031 1_554 S
Zn168 O173 2.049 . S
Zn168 O178 2.067 . S
Zn169 O170 1.962 1_554 S
Zn169 O172 1.986 . S
Zn169 O174 1.996 . S
Zn169 O177 1.943 . S
O170 Zn169 1.962 1_556 S
O170 C175 1.254 . S
O171 Zn168 2.031 1_556 S
O171 C175 1.269 . S
O172 Zn169 1.986 . S
O172 C179 1.262 . S
O173 Zn168 2.049 . S
O173 C181 1.260 . S
O174 Zn169 1.996 . S
O174 C181 1.257 . S
C175 O170 1.254 . S
C175 O171 1.269 . S
C176 O177 1.249 . S
C176 O178 1.270 . S
O177 Zn169 1.943 . S
O177 C176 1.249 . S
O178 Zn168 2.067 . S
O178 C176 1.270 . S
C179 O172 1.262 . S
C179 O180 1.232 . S
O180 C179 1.232 . S
C181 O173 1.260 . S
C181 O174 1.257 . S
Zn182 O185 2.031 . S
Zn182 O187 2.049 . S
Zn182 O192 2.067 . S
Zn183 O184 1.962 . S
Zn183 O186 1.986 . S
Zn183 O188 1.996 . S
Zn183 O191 1.943 . S
O184 Zn183 1.962 . S
O184 C189 1.254 1_554 S
O185 Zn182 2.031 . S
O185 C189 1.269 1_554 S
O186 Zn183 1.986 . S
O186 C193 1.262 . S
O187 Zn182 2.049 . S
O187 C195 1.260 . S
O188 Zn183 1.996 . S
O188 C195 1.257 . S
C189 O184 1.254 1_556 S
C189 O185 1.269 1_556 S
C190 O191 1.249 . S
C190 O192 1.270 . S
O191 Zn183 1.943 . S
O191 C190 1.249 . S
O192 Zn182 2.067 . S
O192 C190 1.270 . S
C193 O186 1.262 . S
C193 O194 1.232 . S
O194 C193 1.232 . S
C195 O187 1.260 . S
C195 O188 1.257 . S
Zn196 O199 2.031 . S
Zn196 O201 2.049 . S
Zn196 O206 2.067 . S
Zn197 O198 1.962 . S
Zn197 O200 1.986 . S
Zn197 O202 1.996 . S
Zn197 O205 1.943 . S
O198 Zn197 1.962 . S
O198 C203 1.254 . S
O199 Zn196 2.031 . S
O199 C203 1.269 . S
O200 Zn197 1.986 . S
O200 C207 1.262 . S
O201 Zn196 2.049 . S
O201 C209 1.260 . S
O202 Zn197 1.996 . S
O202 C209 1.257 . S
C203 O198 1.254 . S
C203 O199 1.269 . S
C204 O205 1.249 . S
C204 O206 1.270 . S
O205 Zn197 1.943 . S
O205 C204 1.249 . S
O206 Zn196 2.067 . S
O206 C204 1.270 . S
C207 O200 1.262 . S
C207 O208 1.232 . S
O208 C207 1.232 . S
C209 O201 1.260 . S
C209 O202 1.257 . S
Zn210 O213 2.031 . S
Zn210 O215 2.049 . S
Zn210 O220 2.067 . S
Zn211 O212 1.962 . S
Zn211 O214 1.986 . S
Zn211 O216 1.996 . S
Zn211 O219 1.943 . S
O212 Zn211 1.962 . S
O212 C217 1.254 . S
O213 Zn210 2.031 . S
O213 C217 1.269 . S
O214 Zn211 1.986 . S
O214 C221 1.262 . S
O215 Zn210 2.049 . S
O215 C223 1.260 . S
O216 Zn211 1.996 . S
O216 C223 1.257 . S
C217 O212 1.254 . S
C217 O213 1.269 . S
C218 O219 1.249 . S
C218 O220 1.270 . S
O219 Zn211 1.943 . S
O219 C218 1.249 . S
O220 Zn210 2.067 . S
O220 C218 1.270 . S
C221 O214 1.262 . S
C221 O222 1.232 . S
O222 C221 1.232 . S
C223 O215 1.260 . S
C223 O216 1.257 . S
Zn224 O227 2.026 1_455 S
Zn224 O229 2.052 . S
Zn224 O234 2.053 1_445 S
Zn225 O226 1.962 . S
Zn225 O228 1.986 . S
Zn225 O230 1.996 . S
Zn225 O233 1.943 . S
O226 Zn225 1.962 . S
O226 C231 1.254 . S
O227 Zn224 2.026 1_655 S
O227 C231 1.269 . S
O228 Zn225 1.986 . S
O228 C235 1.262 . S
O229 Zn224 2.052 . S
O229 C237 1.260 1_455 S
O230 Zn225 1.996 . S
O230 C237 1.257 . S
C231 O226 1.254 . S
C231 O227 1.269 . S
C232 O233 1.249 . S
C232 O234 1.265 1_545 S
O233 Zn225 1.943 . S
O233 C232 1.249 . S
O234 Zn224 2.053 1_665 S
O234 C232 1.265 1_565 S
C235 O228 1.262 . S
C235 O236 1.232 . S
O236 C235 1.232 . S
C237 O229 1.260 1_655 S
C237 O230 1.257 . S
Zn238 O241 2.031 . S
Zn238 O243 2.049 . S
Zn238 O248 2.067 . S
Zn239 O240 1.962 . S
Zn239 O242 1.986 . S
Zn239 O244 1.996 . S
Zn239 O247 1.943 . S
O240 Zn239 1.962 . S
O240 C245 1.254 . S
O241 Zn238 2.031 . S
O241 C245 1.269 . S
O242 Zn239 1.986 . S
O242 C249 1.262 . S
O243 Zn238 2.049 . S
O243 C251 1.260 . S
O244 Zn239 1.996 . S
O244 C251 1.257 . S
C245 O240 1.254 . S
C245 O241 1.269 . S
C246 O247 1.249 . S
C246 O248 1.270 . S
O247 Zn239 1.943 . S
O247 C246 1.249 . S
O248 Zn238 2.067 . S
O248 C246 1.270 . S
C249 O242 1.262 . S
C249 O250 1.232 . S
O250 C249 1.232 . S
C251 O243 1.260 . S
C251 O244 1.257 . S
Zn252 O255 2.031 . S
Zn252 O257 2.049 . S
Zn252 O262 2.067 . S
Zn253 O254 1.962 . S
Zn253 O256 1.986 . S
Zn253 O258 1.996 . S
Zn253 O261 1.943 . S
O254 Zn253 1.962 . S
O254 C259 1.254 . S
O255 Zn252 2.031 . S
O255 C259 1.269 . S
O256 Zn253 1.986 . S
O256 C263 1.262 . S
O257 Zn252 2.049 . S
O257 C265 1.260 . S
O258 Zn253 1.996 . S
O258 C265 1.257 . S
C259 O254 1.254 . S
C259 O255 1.269 . S
C260 O261 1.249 . S
C260 O262 1.270 . S
O261 Zn253 1.943 . S
O261 C260 1.249 . S
O262 Zn252 2.067 . S
O262 C260 1.270 . S
C263 O256 1.262 . S
C263 O264 1.232 . S
O264 C263 1.232 . S
C265 O257 1.260 . S
C265 O258 1.257 . S
Zn266 O269 2.031 . S
Zn266 O271 2.049 . S
Zn266 O276 2.067 . S
Zn267 O268 1.962 . S
Zn267 O270 1.986 . S
Zn267 O272 1.996 . S
Zn267 O275 1.943 . S
O268 Zn267 1.962 . S
O268 C273 1.254 . S
O269 Zn266 2.031 . S
O269 C273 1.269 . S
O270 Zn267 1.986 . S
O270 C277 1.262 . S
O271 Zn266 2.049 . S
O271 C279 1.260 . S
O272 Zn267 1.996 . S
O272 C279 1.257 . S
C273 O268 1.254 . S
C273 O269 1.269 . S
C274 O275 1.249 . S
C274 O276 1.270 . S
O275 Zn267 1.943 . S
O275 C274 1.249 . S
O276 Zn266 2.067 . S
O276 C274 1.270 . S
C277 O270 1.262 . S
C277 O278 1.232 . S
O278 C277 1.232 . S
C279 O271 1.260 . S
C279 O272 1.257 . S
Zn280 O283 2.031 1_554 S
Zn280 O285 2.049 . S
Zn280 O290 2.067 . S
Zn281 O282 1.987 . S
Zn281 O284 1.973 1_556 S
Zn281 O286 1.978 1_556 S
Zn281 O289 1.940 . S
O282 Zn281 1.987 . S
O282 C287 1.254 . S
O283 Zn280 2.031 1_556 S
O283 C287 1.269 . S
O284 Zn281 1.973 1_554 S
O284 C291 1.262 1_554 S
O285 Zn280 2.049 . S
O285 C293 1.260 . S
O286 Zn281 1.978 1_554 S
O286 C293 1.257 . S
C287 O282 1.254 . S
C287 O283 1.269 . S
C288 O289 1.249 . S
C288 O290 1.270 1_556 S
O289 Zn281 1.940 . S
O289 C288 1.249 . S
O290 Zn280 2.067 . S
O290 C288 1.270 1_554 S
C291 O284 1.262 1_556 S
C291 O292 1.232 . S
O292 C291 1.232 . S
C293 O285 1.260 . S
C293 O286 1.257 . S
Zn294 O297 2.031 . S
Zn294 O299 2.049 . S
Zn294 O304 2.067 . S
Zn295 O296 1.962 . S
Zn295 O298 1.986 . S
Zn295 O300 1.996 . S
Zn295 O303 1.943 . S
O296 Zn295 1.962 . S
O296 C301 1.254 . S
O297 Zn294 2.031 . S
O297 C301 1.269 . S
O298 Zn295 1.986 . S
O298 C305 1.262 . S
O299 Zn294 2.049 . S
O299 C307 1.260 . S
O300 Zn295 1.996 . S
O300 C307 1.257 . S
C301 O296 1.254 . S
C301 O297 1.269 . S
C302 O303 1.249 . S
C302 O304 1.270 . S
O303 Zn295 1.943 . S
O303 C302 1.249 . S
O304 Zn294 2.067 . S
O304 C302 1.270 . S
C305 O298 1.262 . S
C305 O306 1.232 . S
O306 C305 1.232 . S
C307 O299 1.260 . S
C307 O300 1.257 . S
Zn308 O311 2.031 . S
Zn308 O313 2.049 . S
Zn308 O318 2.067 . S
Zn309 O310 1.962 . S
Zn309 O312 1.986 . S
Zn309 O314 1.996 . S
Zn309 O317 1.943 . S
O310 Zn309 1.962 . S
O310 C315 1.254 . S
O311 Zn308 2.031 . S
O311 C315 1.269 . S
O312 Zn309 1.986 . S
O312 C319 1.262 . S
O313 Zn308 2.049 . S
O313 C321 1.260 . S
O314 Zn309 1.996 . S
O314 C321 1.257 . S
C315 O310 1.254 . S
C315 O311 1.269 . S
C316 O317 1.249 . S
C316 O318 1.270 . S
O317 Zn309 1.943 . S
O317 C316 1.249 . S
O318 Zn308 2.067 . S
O318 C316 1.270 . S
C319 O312 1.262 . S
C319 O320 1.232 . S
O320 C319 1.232 . S
C321 O313 1.260 . S
C321 O314 1.257 . S
Zn322 O325 2.031 . S
Zn322 O327 2.049 . S
Zn322 O332 2.067 . S
Zn323 O324 1.962 . S
Zn323 O326 1.986 . S
Zn323 O328 1.996 . S
Zn323 O331 1.943 . S
O324 Zn323 1.962 . S
O324 C329 1.254 . S
O325 Zn322 2.031 . S
O325 C329 1.269 . S
O326 Zn323 1.986 . S
O326 C333 1.262 . S
O327 Zn322 2.049 . S
O327 C335 1.260 . S
O328 Zn323 1.996 . S
O328 C335 1.257 . S
C329 O324 1.254 . S
C329 O325 1.269 . S
C330 O331 1.249 . S
C330 O332 1.270 . S
O331 Zn323 1.943 . S
O331 C330 1.249 . S
O332 Zn322 2.067 . S
O332 C330 1.270 . S
C333 O326 1.262 . S
C333 O334 1.232 . S
O334 C333 1.232 . S
C335 O327 1.260 . S
C335 O328 1.257 . S
Eu336 N367 2.657 1_545 S
Eu336 N374 2.609 1_544 S
Eu336 O380 2.558 1_454 S
Eu336 O381 2.612 . S
Eu336 O383 2.339 . S
Eu336 O384 2.563 1_554 S
Eu336 O385 2.419 1_455 S
Eu336 O387 2.380 . S
Eu336 O388 2.432 1_554 S
Eu336 C400 2.848 1_454 S
C337 C340 1.429 . S
C337 C341 1.411 . S
C337 N344 1.377 . S
C338 C340 1.420 . S
C338 C342 1.423 . S
C338 C350 1.373 1_554 S
C339 C341 1.420 . S
C339 C342 1.351 . S
C339 H362 0.931 . S
C340 C337 1.429 . S
C340 C338 1.420 . S
C340 N348 1.362 . S
C341 C337 1.411 . S
C341 C339 1.420 . S
C341 C346 1.395 . S
C342 C338 1.423 . S
C342 C339 1.351 . S
C342 H354 0.930 . S
C343 C345 1.400 . S
C343 C346 1.386 . S
C343 H355 0.930 . S
N344 C337 1.377 . S
N344 C345 1.321 . S
N344 Eu347 2.609 . S
C345 C343 1.400 . S
C345 N344 1.321 . S
C345 H352 0.930 . S
C346 C341 1.395 . S
C346 C343 1.386 . S
C346 H365 0.930 . S
Eu347 N344 2.609 . S
Eu347 N348 2.657 . S
Eu347 O381 2.380 . S
Eu347 O382 2.432 . S
Eu347 O386 2.558 . S
Eu347 O387 2.612 . S
Eu347 O389 2.339 1_554 S
Eu347 O390 2.563 1_545 S
Eu347 O391 2.419 . S
Eu347 C411 2.848 . S
N348 C340 1.362 . S
N348 Eu347 2.657 . S
N348 C349 1.334 1_554 S
C349 N348 1.334 1_556 S
C349 C351 1.413 . S
C349 H356 0.929 . S
C350 C338 1.373 1_556 S
C350 C351 1.375 . S
C350 H358 0.941 . S
C351 C349 1.413 . S
C351 C350 1.375 . S
C351 H353 0.930 . S
H352 C345 0.930 . S
H353 C351 0.930 . S
H354 C342 0.930 . S
H355 C343 0.930 . S
H356 C349 0.929 . S
H357 C371 0.930 . S
H358 C350 0.941 . S
H359 C377 0.930 . S
H360 C368 0.929 . S
H361 C375 0.930 . S
H362 C339 0.931 . S
H363 C369 0.930 . S
H364 C402 0.930 . S
H365 C346 0.930 . S
H366 C401 0.931 . S
N367 Eu336 2.657 1_565 S
N367 C368 1.334 . S
N367 C372 1.363 . S
C368 H360 0.929 . S
C368 N367 1.334 . S
C368 C371 1.413 . S
C369 H363 0.930 . S
C369 C370 1.392 . S
C369 C371 1.367 1_655 S
C370 C369 1.392 . S
C370 C372 1.419 1_655 S
C370 C402 1.423 1_554 S
C371 H357 0.930 . S
C371 C368 1.413 . S
C371 C369 1.367 1_455 S
C372 N367 1.363 . S
C372 C370 1.419 1_455 S
C372 C376 1.429 1_454 S
H373 C378 0.930 . S
N374 Eu336 2.609 1_566 S
N374 C376 1.377 1_455 S
N374 C377 1.321 . S
C375 H361 0.930 . S
C375 C377 1.400 1_655 S
C375 C378 1.386 . S
C376 C372 1.429 1_656 S
C376 N374 1.377 1_655 S
C376 C379 1.411 . S
C377 H359 0.930 . S
C377 N374 1.321 . S
C377 C375 1.400 1_455 S
C378 H373 0.930 . S
C378 C375 1.386 . S
C378 C379 1.395 . S
C379 C376 1.411 . S
C379 C378 1.395 . S
C379 C401 1.420 . S
O380 Eu336 2.558 1_656 S
O380 C400 1.257 . S
O381 Eu336 2.612 . S
O381 Eu347 2.380 . S
O381 C392 1.276 . S
O382 Eu347 2.432 . S
O382 C399 1.264 . S
O383 Eu336 2.339 . S
O383 C399 1.254 . S
O384 Eu336 2.563 1_556 S
O384 C392 1.235 1_556 S
O385 Eu336 2.419 1_655 S
O385 C400 1.249 1_554 S
O386 Eu347 2.558 . S
O386 C411 1.257 . S
O387 Eu336 2.380 . S
O387 Eu347 2.612 . S
O387 C403 1.276 1_545 S
O388 Eu336 2.432 1_556 S
O388 C410 1.264 . S
O389 Eu347 2.339 1_556 S
O389 C410 1.254 . S
O390 Eu347 2.563 1_565 S
O390 C403 1.235 . S
O391 Eu347 2.419 . S
O391 C411 1.249 . S
C392 O381 1.276 . S
C392 O384 1.235 1_554 S
C393 C395 1.393 . S
C393 C397 1.397 . S
C393 C400 1.492 . S
C394 C395 1.392 . S
C394 C396 1.386 . S
C395 C393 1.393 . S
C395 C394 1.392 . S
C395 H412 0.930 1_556 S
C396 C394 1.386 . S
C396 C398 1.395 . S
C396 H413 0.930 . S
C397 C393 1.397 . S
C397 C398 1.388 . S
C397 H414 0.919 1_545 S
C398 C396 1.395 . S
C398 C397 1.388 . S
C398 H415 0.930 1_545 S
C399 O382 1.264 . S
C399 O383 1.254 . S
C400 Eu336 2.848 1_656 S
C400 O380 1.257 . S
C400 O385 1.249 1_556 S
C400 C393 1.492 . S
C401 H366 0.931 . S
C401 C379 1.420 . S
C401 C402 1.351 . S
C402 H364 0.930 . S
C402 C370 1.423 1_556 S
C402 C401 1.351 . S
C403 O387 1.276 1_565 S
C403 O390 1.235 . S
C404 C405 1.393 . S
C404 C408 1.395 . S
C404 C411 1.492 . S
C405 C404 1.393 . S
C405 C406 1.392 . S
C405 H416 0.930 . S
C406 C405 1.392 . S
C406 C407 1.386 . S
C407 C406 1.386 . S
C407 C409 1.395 . S
C407 H417 0.930 . S
C408 C404 1.395 . S
C408 C409 1.379 . S
C408 H418 0.930 . S
C409 C407 1.395 . S
C409 C408 1.379 . S
C409 H419 0.930 . S
C410 O388 1.264 . S
C410 O389 1.254 . S
C411 Eu347 2.848 . S
C411 O386 1.257 . S
C411 O391 1.249 . S
C411 C404 1.492 . S
H412 C395 0.930 1_554 S
H413 C396 0.930 . S
H414 C397 0.919 1_565 S
H415 C398 0.930 1_565 S
H416 C405 0.930 . S
H417 C407 0.930 . S
H418 C408 0.930 . S
H419 C409 0.930 . S
Eu420 N451 2.657 . S
Eu420 N458 2.609 . S
Eu420 O464 2.558 . S
Eu420 O465 2.612 . S
Eu420 O467 2.339 . S
Eu420 O468 2.563 . S
Eu420 O469 2.419 . S
Eu420 O471 2.380 . S
Eu420 O472 2.432 . S
Eu420 C484 2.848 . S
C421 C424 1.429 . S
C421 C425 1.411 . S
C421 N428 1.377 . S
C422 C424 1.420 . S
C422 C426 1.423 . S
C422 C434 1.392 . S
C423 C425 1.420 . S
C423 C426 1.351 . S
C423 H446 0.931 . S
C424 C421 1.429 . S
C424 C422 1.420 . S
C424 N432 1.362 . S
C425 C421 1.411 . S
C425 C423 1.420 . S
C425 C430 1.395 . S
C426 C422 1.423 . S
C426 C423 1.351 . S
C426 H438 0.930 . S
C427 C429 1.400 . S
C427 C430 1.386 . S
C427 H439 0.930 . S
N428 C421 1.377 . S
N428 C429 1.321 . S
N428 Eu431 2.609 . S
C429 C427 1.400 . S
C429 N428 1.321 . S
C429 H436 0.930 . S
C430 C425 1.395 . S
C430 C427 1.386 . S
C430 H449 0.930 . S
Eu431 N428 2.609 . S
Eu431 N432 2.657 . S
Eu431 O465 2.380 . S
Eu431 O466 2.432 . S
Eu431 O470 2.558 . S
Eu431 O471 2.612 . S
Eu431 O473 2.339 . S
Eu431 O474 2.563 . S
Eu431 O475 2.419 . S
Eu431 C495 2.848 . S
N432 C424 1.362 . S
N432 Eu431 2.657 . S
N432 C433 1.334 . S
C433 N432 1.334 . S
C433 C435 1.413 . S
C433 H440 0.929 . S
C434 C422 1.392 . S
C434 C435 1.367 . S
C434 H442 0.930 . S
C435 C433 1.413 . S
C435 C434 1.367 . S
C435 H437 0.930 . S
H436 C429 0.930 . S
H437 C435 0.930 . S
H438 C426 0.930 . S
H439 C427 0.930 . S
H440 C433 0.929 . S
H441 C455 0.930 . S
H442 C434 0.930 . S
H443 C461 0.930 . S
H444 C452 0.929 . S
H445 C459 0.930 . S
H446 C423 0.931 . S
H447 C453 0.930 . S
H448 C486 0.930 . S
H449 C430 0.930 . S
H450 C485 0.931 . S
N451 Eu420 2.657 . S
N451 C452 1.334 . S
N451 C456 1.362 . S
C452 H444 0.929 . S
C452 N451 1.334 . S
C452 C455 1.413 . S
C453 H447 0.930 . S
C453 C454 1.392 . S
C453 C455 1.367 . S
C454 C453 1.392 . S
C454 C456 1.420 . S
C454 C486 1.423 . S
C455 H441 0.930 . S
C455 C452 1.413 . S
C455 C453 1.367 . S
C456 N451 1.362 . S
C456 C454 1.420 . S
C456 C460 1.429 . S
H457 C462 0.930 . S
N458 Eu420 2.609 . S
N458 C460 1.377 . S
N458 C461 1.321 . S
C459 H445 0.930 . S
C459 C461 1.400 . S
C459 C462 1.386 . S
C460 C456 1.429 . S
C460 N458 1.377 . S
C460 C463 1.411 . S
C461 H443 0.930 . S
C461 N458 1.321 . S
C461 C459 1.400 . S
C462 H457 0.930 . S
C462 C459 1.386 . S
C462 C463 1.395 . S
C463 C460 1.411 . S
C463 C462 1.395 . S
C463 C485 1.420 . S
O464 Eu420 2.558 . S
O464 C484 1.257 . S
O465 Eu420 2.612 . S
O465 Eu431 2.380 . S
O465 C476 1.276 . S
O466 Eu431 2.432 . S
O466 C483 1.264 . S
O467 Eu420 2.339 . S
O467 C483 1.254 . S
O468 Eu420 2.563 . S
O468 C476 1.235 . S
O469 Eu420 2.419 . S
O469 C484 1.249 . S
O470 Eu431 2.558 . S
O470 C495 1.257 . S
O471 Eu420 2.380 . S
O471 Eu431 2.612 . S
O471 C487 1.276 . S
O472 Eu420 2.432 . S
O472 C494 1.264 . S
O473 Eu431 2.339 . S
O473 C494 1.254 . S
O474 Eu431 2.563 . S
O474 C487 1.235 . S
O475 Eu431 2.419 . S
O475 C495 1.249 . S
C476 O465 1.276 . S
C476 O468 1.235 . S
C477 C479 1.393 . S
C477 C481 1.395 . S
C477 C484 1.492 . S
C478 C479 1.392 . S
C478 C480 1.386 . S
C479 C477 1.393 . S
C479 C478 1.392 . S
C479 H496 0.930 . S
C480 C478 1.386 . S
C480 C482 1.395 . S
C480 H497 0.930 . S
C481 C477 1.395 . S
C481 C482 1.379 . S
C481 H498 0.930 . S
C482 C480 1.395 . S
C482 C481 1.379 . S
C482 H499 0.930 . S
C483 O466 1.264 . S
C483 O467 1.254 . S
C484 Eu420 2.848 . S
C484 O464 1.257 . S
C484 O469 1.249 . S
C484 C477 1.492 . S
C485 H450 0.931 . S
C485 C463 1.420 . S
C485 C486 1.351 . S
C486 H448 0.930 . S
C486 C454 1.423 . S
C486 C485 1.351 . S
C487 O471 1.276 . S
C487 O474 1.235 . S
C488 C489 1.393 . S
C488 C492 1.395 . S
C488 C495 1.492 . S
C489 C488 1.393 . S
C489 C490 1.392 . S
C489 H500 0.930 . S
C490 C489 1.392 . S
C490 C491 1.386 . S
C491 C490 1.386 . S
C491 C493 1.395 . S
C491 H501 0.930 . S
C492 C488 1.395 . S
C492 C493 1.379 . S
C492 H502 0.930 . S
C493 C491 1.395 . S
C493 C492 1.379 . S
C493 H503 0.930 . S
C494 O472 1.264 . S
C494 O473 1.254 . S
C495 Eu431 2.848 . S
C495 O470 1.257 . S
C495 O475 1.249 . S
C495 C488 1.492 . S
H496 C479 0.930 . S
H497 C480 0.930 . S
H498 C481 0.930 . S
H499 C482 0.930 . S
H500 C489 0.930 . S
H501 C491 0.930 . S
H502 C492 0.930 . S
H503 C493 0.930 . S
Eu504 N535 2.657 . S
Eu504 N542 2.609 . S
Eu504 O548 2.558 . S
Eu504 O549 2.612 1_545 S
Eu504 O551 2.339 . S
Eu504 O552 2.563 1_545 S
Eu504 O553 2.419 . S
Eu504 O555 2.380 . S
Eu504 O556 2.432 . S
Eu504 C568 2.848 . S
C505 C508 1.429 . S
C505 C509 1.411 . S
C505 N512 1.377 . S
C506 C508 1.420 . S
C506 C510 1.423 . S
C506 C518 1.392 . S
C507 C509 1.420 . S
C507 C510 1.351 . S
C507 H530 0.931 . S
C508 C505 1.429 . S
C508 C506 1.420 . S
C508 N516 1.362 . S
C509 C505 1.411 . S
C509 C507 1.420 . S
C509 C514 1.395 . S
C510 C506 1.423 . S
C510 C507 1.351 . S
C510 H522 0.930 . S
C511 C513 1.400 1_565 S
C511 C514 1.386 . S
C511 H523 0.934 . S
N512 C505 1.377 . S
N512 C513 1.321 1_565 S
N512 Eu515 2.609 1_565 S
C513 C511 1.400 1_545 S
C513 N512 1.321 1_545 S
C513 H520 0.930 . S
C514 C509 1.395 . S
C514 C511 1.386 . S
C514 H533 0.930 . S
Eu515 N512 2.609 1_545 S
Eu515 N516 2.657 1_545 S
Eu515 O549 2.380 1_545 S
Eu515 O550 2.432 . S
Eu515 O554 2.558 . S
Eu515 O555 2.612 . S
Eu515 O557 2.339 . S
Eu515 O558 2.563 . S
Eu515 O559 2.419 . S
Eu515 C579 2.848 . S
N516 C508 1.362 . S
N516 Eu515 2.657 1_565 S
N516 C517 1.334 . S
C517 N516 1.334 . S
C517 C519 1.413 . S
C517 H524 0.929 . S
C518 C506 1.392 . S
C518 C519 1.367 . S
C518 H526 0.930 . S
C519 C517 1.413 . S
C519 C518 1.367 . S
C519 H521 0.930 . S
H520 C513 0.930 . S
H521 C519 0.930 . S
H522 C510 0.930 . S
H523 C511 0.934 . S
H524 C517 0.929 . S
H525 C539 0.930 . S
H526 C518 0.930 . S
H527 C545 0.930 . S
H528 C536 0.929 . S
H529 C543 0.930 . S
H530 C507 0.931 . S
H531 C537 0.930 . S
H532 C570 0.930 . S
H533 C514 0.930 . S
H534 C569 0.931 . S
N535 Eu504 2.657 . S
N535 C536 1.334 . S
N535 C540 1.362 . S
C536 H528 0.929 . S
C536 N535 1.334 . S
C536 C539 1.413 . S
C537 H531 0.930 . S
C537 C538 1.392 . S
C537 C539 1.367 . S
C538 C537 1.392 . S
C538 C540 1.420 . S
C538 C570 1.423 . S
C539 H525 0.930 . S
C539 C536 1.413 . S
C539 C537 1.367 . S
C540 N535 1.362 . S
C540 C538 1.420 . S
C540 C544 1.429 . S
H541 C546 0.930 . S
N542 Eu504 2.609 . S
N542 C544 1.377 . S
N542 C545 1.321 . S
C543 H529 0.930 . S
C543 C545 1.400 . S
C543 C546 1.386 . S
C544 C540 1.429 . S
C544 N542 1.377 . S
C544 C547 1.411 . S
C545 H527 0.930 . S
C545 N542 1.321 . S
C545 C543 1.400 . S
C546 H541 0.930 . S
C546 C543 1.386 . S
C546 C547 1.395 . S
C547 C544 1.411 . S
C547 C546 1.395 . S
C547 C569 1.420 . S
O548 Eu504 2.558 . S
O548 C568 1.257 . S
O549 Eu504 2.612 1_565 S
O549 Eu515 2.380 1_565 S
O549 C560 1.276 . S
O550 Eu515 2.432 . S
O550 C567 1.264 . S
O551 Eu504 2.339 . S
O551 C567 1.254 . S
O552 Eu504 2.563 1_565 S
O552 C560 1.235 . S
O553 Eu504 2.419 . S
O553 C568 1.249 . S
O554 Eu515 2.558 . S
O554 C579 1.257 . S
O555 Eu504 2.380 . S
O555 Eu515 2.612 . S
O555 C571 1.276 . S
O556 Eu504 2.432 . S
O556 C578 1.264 . S
O557 Eu515 2.339 . S
O557 C578 1.254 . S
O558 Eu515 2.563 . S
O558 C571 1.235 . S
O559 Eu515 2.419 . S
O559 C579 1.249 . S
C560 O549 1.276 . S
C560 O552 1.235 . S
C561 C563 1.393 . S
C561 C565 1.395 . S
C561 C568 1.492 1_565 S
C562 C563 1.392 . S
C562 C564 1.386 . S
C563 C561 1.393 . S
C563 C562 1.392 . S
C563 H580 0.930 . S
C564 C562 1.386 . S
C564 C566 1.395 . S
C564 H581 0.930 . S
C565 C561 1.395 . S
C565 C566 1.379 . S
C565 H582 0.930 . S
C566 C564 1.395 . S
C566 C565 1.379 . S
C566 H583 0.930 . S
C567 O550 1.264 . S
C567 O551 1.254 . S
C568 Eu504 2.848 . S
C568 O548 1.257 . S
C568 O553 1.249 . S
C568 C561 1.492 1_545 S
C569 H534 0.931 . S
C569 C547 1.420 . S
C569 C570 1.351 . S
C570 H532 0.930 . S
C570 C538 1.423 . S
C570 C569 1.351 . S
C571 O555 1.276 . S
C571 O558 1.235 . S
C572 C573 1.393 . S
C572 C576 1.395 . S
C572 C579 1.492 . S
C573 C572 1.393 . S
C573 C574 1.392 . S
C573 H584 0.930 . S
C574 C573 1.392 . S
C574 C575 1.386 . S
C575 C574 1.386 . S
C575 C577 1.395 . S
C575 H585 0.930 . S
C576 C572 1.395 . S
C576 C577 1.379 . S
C576 H586 0.930 . S
C577 C575 1.395 . S
C577 C576 1.379 . S
C577 H587 0.930 . S
C578 O556 1.264 . S
C578 O557 1.254 . S
C579 Eu515 2.848 . S
C579 O554 1.257 . S
C579 O559 1.249 . S
C579 C572 1.492 . S
H580 C563 0.930 . S
H581 C564 0.930 . S
H582 C565 0.930 . S
H583 C566 0.930 . S
H584 C573 0.930 . S
H585 C575 0.930 . S
H586 C576 0.930 . S
H587 C577 0.930 . S
Eu588 N619 2.657 . S
Eu588 N626 2.609 . S
Eu588 O632 2.558 . S
Eu588 O633 2.612 . S
Eu588 O635 2.339 . S
Eu588 O636 2.563 . S
Eu588 O637 2.419 . S
Eu588 O639 2.380 . S
Eu588 O640 2.432 . S
Eu588 C652 2.848 . S
C589 C592 1.429 . S
C589 C593 1.411 . S
C589 N596 1.377 . S
C590 C592 1.420 . S
C590 C594 1.423 . S
C590 C602 1.392 . S
C591 C593 1.420 . S
C591 C594 1.351 . S
C591 H614 0.931 . S
C592 C589 1.429 . S
C592 C590 1.420 . S
C592 N600 1.362 . S
C593 C589 1.411 . S
C593 C591 1.420 . S
C593 C598 1.395 . S
C594 C590 1.423 . S
C594 C591 1.351 . S
C594 H606 0.930 . S
C595 C597 1.400 . S
C595 C598 1.386 . S
C595 H607 0.930 . S
N596 C589 1.377 . S
N596 C597 1.321 . S
N596 Eu599 2.609 . S
C597 C595 1.400 . S
C597 N596 1.321 . S
C597 H604 0.930 . S
C598 C593 1.395 . S
C598 C595 1.386 . S
C598 H617 0.930 . S
Eu599 N596 2.609 . S
Eu599 N600 2.657 . S
Eu599 O633 2.380 . S
Eu599 O634 2.432 . S
Eu599 O638 2.558 . S
Eu599 O639 2.612 . S
Eu599 O641 2.339 . S
Eu599 O642 2.563 . S
Eu599 O643 2.419 . S
Eu599 C663 2.848 . S
N600 C592 1.362 . S
N600 Eu599 2.657 . S
N600 C601 1.334 . S
C601 N600 1.334 . S
C601 C603 1.413 . S
C601 H608 0.929 . S
C602 C590 1.392 . S
C602 C603 1.367 . S
C602 H610 0.930 . S
C603 C601 1.413 . S
C603 C602 1.367 . S
C603 H605 0.930 . S
H604 C597 0.930 . S
H605 C603 0.930 . S
H606 C594 0.930 . S
H607 C595 0.930 . S
H608 C601 0.929 . S
H609 C623 0.930 . S
H610 C602 0.930 . S
H611 C629 0.930 . S
H612 C620 0.929 . S
H613 C627 0.930 . S
H614 C591 0.931 . S
H615 C621 0.930 . S
H616 C654 0.930 . S
H617 C598 0.930 . S
H618 C653 0.931 . S
N619 Eu588 2.657 . S
N619 C620 1.334 . S
N619 C624 1.362 . S
C620 H612 0.929 . S
C620 N619 1.334 . S
C620 C623 1.413 . S
C621 H615 0.930 . S
C621 C622 1.392 . S
C621 C623 1.367 . S
C622 C621 1.392 . S
C622 C624 1.420 . S
C622 C654 1.423 . S
C623 H609 0.930 . S
C623 C620 1.413 . S
C623 C621 1.367 . S
C624 N619 1.362 . S
C624 C622 1.420 . S
C624 C628 1.429 . S
H625 C630 0.930 . S
N626 Eu588 2.609 . S
N626 C628 1.377 . S
N626 C629 1.321 . S
C627 H613 0.930 . S
C627 C629 1.400 . S
C627 C630 1.386 . S
C628 C624 1.429 . S
C628 N626 1.377 . S
C628 C631 1.411 . S
C629 H611 0.930 . S
C629 N626 1.321 . S
C629 C627 1.400 . S
C630 H625 0.930 . S
C630 C627 1.386 . S
C630 C631 1.395 . S
C631 C628 1.411 . S
C631 C630 1.395 . S
C631 C653 1.420 . S
O632 Eu588 2.558 . S
O632 C652 1.257 . S
O633 Eu588 2.612 . S
O633 Eu599 2.380 . S
O633 C644 1.276 . S
O634 Eu599 2.432 . S
O634 C651 1.264 . S
O635 Eu588 2.339 . S
O635 C651 1.254 . S
O636 Eu588 2.563 . S
O636 C644 1.235 . S
O637 Eu588 2.419 . S
O637 C652 1.249 . S
O638 Eu599 2.558 . S
O638 C663 1.257 . S
O639 Eu588 2.380 . S
O639 Eu599 2.612 . S
O639 C655 1.276 . S
O640 Eu588 2.432 . S
O640 C662 1.264 . S
O641 Eu599 2.339 . S
O641 C662 1.254 . S
O642 Eu599 2.563 . S
O642 C655 1.235 . S
O643 Eu599 2.419 . S
O643 C663 1.249 . S
C644 O633 1.276 . S
C644 O636 1.235 . S
C645 C647 1.393 . S
C645 C649 1.395 . S
C645 C652 1.492 . S
C646 C647 1.392 . S
C646 C648 1.386 . S
C647 C645 1.393 . S
C647 C646 1.392 . S
C647 H664 0.930 . S
C648 C646 1.386 . S
C648 C650 1.395 . S
C648 H665 0.930 . S
C649 C645 1.395 . S
C649 C650 1.379 . S
C649 H666 0.930 . S
C650 C648 1.395 . S
C650 C649 1.379 . S
C650 H667 0.930 . S
C651 O634 1.264 . S
C651 O635 1.254 . S
C652 Eu588 2.848 . S
C652 O632 1.257 . S
C652 O637 1.249 . S
C652 C645 1.492 . S
C653 H618 0.931 . S
C653 C631 1.420 . S
C653 C654 1.351 . S
C654 H616 0.930 . S
C654 C622 1.423 . S
C654 C653 1.351 . S
C655 O639 1.276 . S
C655 O642 1.235 . S
C656 C657 1.393 . S
C656 C660 1.395 . S
C656 C663 1.492 . S
C657 C656 1.393 . S
C657 C658 1.392 . S
C657 H668 0.930 . S
C658 C657 1.392 . S
C658 C659 1.386 . S
C659 C658 1.386 . S
C659 C661 1.395 . S
C659 H669 0.930 . S
C660 C656 1.395 . S
C660 C661 1.379 . S
C660 H670 0.930 . S
C661 C659 1.395 . S
C661 C660 1.379 . S
C661 H671 0.930 . S
C662 O640 1.264 . S
C662 O641 1.254 . S
C663 Eu599 2.848 . S
C663 O638 1.257 . S
C663 O643 1.249 . S
C663 C656 1.492 . S
H664 C647 0.930 . S
H665 C648 0.930 . S
H666 C649 0.930 . S
H667 C650 0.930 . S
H668 C657 0.930 . S
H669 C659 0.930 . S
H670 C660 0.930 . S
H671 C661 0.930 . S
Eu672 N703 2.657 . S
Eu672 N710 2.609 . S
Eu672 O716 2.558 . S
Eu672 O717 2.612 . S
Eu672 O719 2.339 . S
Eu672 O720 2.563 . S
Eu672 O721 2.419 . S
Eu672 O723 2.380 . S
Eu672 O724 2.432 . S
Eu672 C736 2.848 . S
C673 C676 1.429 . S
C673 C677 1.411 . S
C673 N680 1.377 . S
C674 C676 1.420 . S
C674 C678 1.423 . S
C674 C686 1.392 . S
C675 C677 1.420 . S
C675 C678 1.351 . S
C675 H698 0.931 . S
C676 C673 1.429 . S
C676 C674 1.420 . S
C676 N684 1.362 . S
C677 C673 1.411 . S
C677 C675 1.420 . S
C677 C682 1.395 . S
C678 C674 1.423 . S
C678 C675 1.351 . S
C678 H690 0.930 . S
C679 C681 1.400 . S
C679 C682 1.386 . S
C679 H691 0.930 . S
N680 C673 1.377 . S
N680 C681 1.321 . S
N680 Eu683 2.609 . S
C681 C679 1.400 . S
C681 N680 1.321 . S
C681 H688 0.930 . S
C682 C677 1.395 . S
C682 C679 1.386 . S
C682 H701 0.930 . S
Eu683 N680 2.609 . S
Eu683 N684 2.657 . S
Eu683 O717 2.380 1_565 S
Eu683 O718 2.432 1_565 S
Eu683 O722 2.558 . S
Eu683 O723 2.612 1_565 S
Eu683 O725 2.339 . S
Eu683 O726 2.563 . S
Eu683 O727 2.419 . S
Eu683 C747 2.848 . S
N684 C676 1.362 . S
N684 Eu683 2.657 . S
N684 C685 1.334 . S
C685 N684 1.334 . S
C685 C687 1.413 1_455 S
C685 H692 0.929 . S
C686 C674 1.392 . S
C686 C687 1.367 1_455 S
C686 H694 0.930 1_455 S
C687 C685 1.413 1_655 S
C687 C686 1.367 1_655 S
C687 H689 0.930 . S
H688 C681 0.930 . S
H689 C687 0.930 . S
H690 C678 0.930 . S
H691 C679 0.930 . S
H692 C685 0.929 . S
H693 C707 0.930 . S
H694 C686 0.930 1_655 S
H695 C713 0.930 . S
H696 C704 0.929 . S
H697 C711 0.930 1_655 S
H698 C675 0.931 . S
H699 C705 0.930 . S
H700 C738 0.930 . S
H701 C682 0.930 . S
H702 C737 0.931 . S
N703 Eu672 2.657 . S
N703 C704 1.334 . S
N703 C708 1.362 . S
C704 H696 0.929 . S
C704 N703 1.334 . S
C704 C707 1.413 . S
C705 H699 0.930 . S
C705 C706 1.392 . S
C705 C707 1.367 . S
C706 C705 1.392 . S
C706 C708 1.420 . S
C706 C738 1.423 . S
C707 H693 0.930 . S
C707 C704 1.413 . S
C707 C705 1.367 . S
C708 N703 1.362 . S
C708 C706 1.420 . S
C708 C712 1.429 . S
H709 C714 0.930 . S
N710 Eu672 2.609 . S
N710 C712 1.377 . S
N710 C713 1.321 . S
C711 H697 0.930 1_455 S
C711 C713 1.400 . S
C711 C714 1.386 . S
C712 C708 1.429 . S
C712 N710 1.377 . S
C712 C715 1.411 . S
C713 H695 0.930 . S
C713 N710 1.321 . S
C713 C711 1.400 . S
C714 H709 0.930 . S
C714 C711 1.386 . S
C714 C715 1.395 . S
C715 C712 1.411 . S
C715 C714 1.395 . S
C715 C737 1.420 . S
O716 Eu672 2.558 . S
O716 C736 1.257 . S
O717 Eu672 2.612 . S
O717 Eu683 2.380 1_545 S
O717 C728 1.276 . S
O718 Eu683 2.432 1_545 S
O718 C735 1.264 . S
O719 Eu672 2.339 . S
O719 C735 1.254 . S
O720 Eu672 2.563 . S
O720 C728 1.235 . S
O721 Eu672 2.419 . S
O721 C736 1.249 . S
O722 Eu683 2.558 . S
O722 C747 1.257 . S
O723 Eu672 2.380 . S
O723 Eu683 2.612 1_545 S
O723 C739 1.276 . S
O724 Eu672 2.432 . S
O724 C746 1.264 . S
O725 Eu683 2.339 . S
O725 C746 1.254 1_565 S
O726 Eu683 2.563 . S
O726 C739 1.235 1_565 S
O727 Eu683 2.419 . S
O727 C747 1.249 . S
C728 O717 1.276 . S
C728 O720 1.235 . S
C729 C731 1.393 . S
C729 C733 1.395 . S
C729 C736 1.492 . S
C730 C731 1.392 . S
C730 C732 1.386 . S
C731 C729 1.393 . S
C731 C730 1.392 . S
C731 H748 0.930 . S
C732 C730 1.386 . S
C732 C734 1.395 . S
C732 H749 0.930 . S
C733 C729 1.395 . S
C733 C734 1.379 . S
C733 H750 0.930 . S
C734 C732 1.395 . S
C734 C733 1.379 . S
C734 H751 0.930 . S
C735 O718 1.264 . S
C735 O719 1.254 . S
C736 Eu672 2.848 . S
C736 O716 1.257 . S
C736 O721 1.249 . S
C736 C729 1.492 . S
C737 H702 0.931 . S
C737 C715 1.420 . S
C737 C738 1.351 . S
C738 H700 0.930 . S
C738 C706 1.423 . S
C738 C737 1.351 . S
C739 O723 1.276 . S
C739 O726 1.235 1_545 S
C740 C741 1.393 . S
C740 C744 1.395 . S
C740 C747 1.492 . S
C741 C740 1.393 . S
C741 C742 1.392 . S
C741 H752 0.930 . S
C742 C741 1.392 . S
C742 C743 1.386 . S
C743 C742 1.386 . S
C743 C745 1.395 . S
C743 H753 0.930 . S
C744 C740 1.395 . S
C744 C745 1.379 . S
C744 H754 0.930 . S
C745 C743 1.395 . S
C745 C744 1.379 . S
C745 H755 0.930 . S
C746 O724 1.264 . S
C746 O725 1.254 1_545 S
C747 Eu683 2.848 . S
C747 O722 1.257 . S
C747 O727 1.249 . S
C747 C740 1.492 . S
H748 C731 0.930 . S
H749 C732 0.930 . S
H750 C733 0.930 . S
H751 C734 0.930 . S
H752 C741 0.930 . S
H753 C743 0.930 . S
H754 C744 0.930 . S
H755 C745 0.930 . S
Eu756 N787 2.657 . S
Eu756 N794 2.609 . S
Eu756 O800 2.558 . S
Eu756 O801 2.612 . S
Eu756 O803 2.339 . S
Eu756 O804 2.563 . S
Eu756 O805 2.419 . S
Eu756 O807 2.380 . S
Eu756 O808 2.432 . S
Eu756 C820 2.848 . S
C757 C760 1.429 . S
C757 C761 1.411 . S
C757 N764 1.377 . S
C758 C760 1.420 . S
C758 C762 1.423 . S
C758 C770 1.392 . S
C759 C761 1.420 . S
C759 C762 1.351 . S
C759 H782 0.931 . S
C760 C757 1.429 . S
C760 C758 1.420 . S
C760 N768 1.362 . S
C761 C757 1.411 . S
C761 C759 1.420 . S
C761 C766 1.395 . S
C762 C758 1.423 . S
C762 C759 1.351 . S
C762 H774 0.930 . S
C763 C765 1.400 . S
C763 C766 1.386 . S
C763 H775 0.930 . S
N764 C757 1.377 . S
N764 C765 1.321 . S
N764 Eu767 2.609 . S
C765 C763 1.400 . S
C765 N764 1.321 . S
C765 H772 0.930 . S
C766 C761 1.395 . S
C766 C763 1.386 . S
C766 H785 0.930 . S
Eu767 N764 2.609 . S
Eu767 N768 2.657 . S
Eu767 O801 2.380 . S
Eu767 O802 2.432 . S
Eu767 O806 2.558 . S
Eu767 O807 2.612 . S
Eu767 O809 2.339 . S
Eu767 O810 2.563 . S
Eu767 O811 2.419 . S
Eu767 C831 2.848 . S
N768 C760 1.362 . S
N768 Eu767 2.657 . S
N768 C769 1.334 . S
C769 N768 1.334 . S
C769 C771 1.413 . S
C769 H776 0.929 . S
C770 C758 1.392 . S
C770 C771 1.367 . S
C770 H778 0.930 . S
C771 C769 1.413 . S
C771 C770 1.367 . S
C771 H773 0.930 . S
H772 C765 0.930 . S
H773 C771 0.930 . S
H774 C762 0.930 . S
H775 C763 0.930 . S
H776 C769 0.929 . S
H777 C791 0.930 . S
H778 C770 0.930 . S
H779 C797 0.930 . S
H780 C788 0.929 . S
H781 C795 0.930 . S
H782 C759 0.931 . S
H783 C789 0.930 . S
H784 C822 0.930 . S
H785 C766 0.930 . S
H786 C821 0.931 . S
N787 Eu756 2.657 . S
N787 C788 1.334 . S
N787 C792 1.362 . S
C788 H780 0.929 . S
C788 N787 1.334 . S
C788 C791 1.413 . S
C789 H783 0.930 . S
C789 C790 1.392 . S
C789 C791 1.367 . S
C790 C789 1.392 . S
C790 C792 1.420 . S
C790 C822 1.423 . S
C791 H777 0.930 . S
C791 C788 1.413 . S
C791 C789 1.367 . S
C792 N787 1.362 . S
C792 C790 1.420 . S
C792 C796 1.429 . S
H793 C798 0.930 . S
N794 Eu756 2.609 . S
N794 C796 1.377 . S
N794 C797 1.321 . S
C795 H781 0.930 . S
C795 C797 1.400 . S
C795 C798 1.386 . S
C796 C792 1.429 . S
C796 N794 1.377 . S
C796 C799 1.411 . S
C797 H779 0.930 . S
C797 N794 1.321 . S
C797 C795 1.400 . S
C798 H793 0.930 . S
C798 C795 1.386 . S
C798 C799 1.395 . S
C799 C796 1.411 . S
C799 C798 1.395 . S
C799 C821 1.420 . S
O800 Eu756 2.558 . S
O800 C820 1.257 . S
O801 Eu756 2.612 . S
O801 Eu767 2.380 . S
O801 C812 1.276 . S
O802 Eu767 2.432 . S
O802 C819 1.264 . S
O803 Eu756 2.339 . S
O803 C819 1.254 . S
O804 Eu756 2.563 . S
O804 C812 1.235 . S
O805 Eu756 2.419 . S
O805 C820 1.249 . S
O806 Eu767 2.558 . S
O806 C831 1.257 . S
O807 Eu756 2.380 . S
O807 Eu767 2.612 . S
O807 C823 1.276 . S
O808 Eu756 2.432 . S
O808 C830 1.264 . S
O809 Eu767 2.339 . S
O809 C830 1.254 . S
O810 Eu767 2.563 . S
O810 C823 1.235 . S
O811 Eu767 2.419 . S
O811 C831 1.249 . S
C812 O801 1.276 . S
C812 O804 1.235 . S
C813 C815 1.393 . S
C813 C817 1.395 . S
C813 C820 1.492 . S
C814 C815 1.392 . S
C814 C816 1.386 . S
C815 C813 1.393 . S
C815 C814 1.392 . S
C815 H832 0.930 . S
C816 C814 1.386 . S
C816 C818 1.395 . S
C816 H833 0.930 . S
C817 C813 1.395 . S
C817 C818 1.379 . S
C817 H834 0.930 . S
C818 C816 1.395 . S
C818 C817 1.379 . S
C818 H835 0.930 . S
C819 O802 1.264 . S
C819 O803 1.254 . S
C820 Eu756 2.848 . S
C820 O800 1.257 . S
C820 O805 1.249 . S
C820 C813 1.492 . S
C821 H786 0.931 . S
C821 C799 1.420 . S
C821 C822 1.351 . S
C822 H784 0.930 . S
C822 C790 1.423 . S
C822 C821 1.351 . S
C823 O807 1.276 . S
C823 O810 1.235 . S
C824 C825 1.393 . S
C824 C828 1.395 . S
C824 C831 1.492 . S
C825 C824 1.393 . S
C825 C826 1.392 . S
C825 H836 0.930 . S
C826 C825 1.392 . S
C826 C827 1.386 . S
C827 C826 1.386 . S
C827 C829 1.395 . S
C827 H837 0.930 . S
C828 C824 1.395 . S
C828 C829 1.379 . S
C828 H838 0.930 . S
C829 C827 1.395 . S
C829 C828 1.379 . S
C829 H839 0.930 . S
C830 O808 1.264 . S
C830 O809 1.254 . S
C831 Eu767 2.848 . S
C831 O806 1.257 . S
C831 O811 1.249 . S
C831 C824 1.492 . S
H832 C815 0.930 . S
H833 C816 0.930 . S
H834 C817 0.930 . S
H835 C818 0.930 . S
H836 C825 0.930 . S
H837 C827 0.930 . S
H838 C828 0.930 . S
H839 C829 0.930 . S
Eu840 N871 2.657 . S
Eu840 N878 2.609 . S
Eu840 O884 2.558 1_545 S
Eu840 O885 2.612 . S
Eu840 O887 2.339 . S
Eu840 O888 2.563 1_545 S
Eu840 O889 2.419 . S
Eu840 O891 2.380 . S
Eu840 O892 2.432 1_545 S
Eu840 C904 2.848 . S
C841 C844 1.429 . S
C841 C845 1.411 . S
C841 N848 1.377 . S
C842 C844 1.420 1_565 S
C842 C846 1.423 1_565 S
C842 C854 1.392 . S
C843 C845 1.420 . S
C843 C846 1.351 . S
C843 H866 0.931 . S
C844 C841 1.429 . S
C844 C842 1.420 1_545 S
C844 N852 1.362 . S
C845 C841 1.411 . S
C845 C843 1.420 . S
C845 C850 1.395 . S
C846 C842 1.423 1_545 S
C846 C843 1.351 . S
C846 H858 0.930 1_545 S
C847 C849 1.400 . S
C847 C850 1.386 . S
C847 H859 0.930 . S
N848 C841 1.377 . S
N848 C849 1.321 . S
N848 Eu851 2.609 . S
C849 C847 1.400 . S
C849 N848 1.321 . S
C849 H856 0.930 . S
C850 C845 1.395 . S
C850 C847 1.386 . S
C850 H869 0.930 . S
Eu851 N848 2.609 . S
Eu851 N852 2.657 . S
Eu851 O885 2.380 1_556 S
Eu851 O886 2.432 1_556 S
Eu851 O890 2.558 . S
Eu851 O891 2.612 1_556 S
Eu851 O893 2.339 . S
Eu851 O894 2.563 . S
Eu851 O895 2.419 . S
Eu851 C915 2.848 . S
N852 C844 1.362 . S
N852 Eu851 2.657 . S
N852 C853 1.334 1_545 S
C853 N852 1.334 1_565 S
C853 C855 1.413 . S
C853 H860 0.929 . S
C854 C842 1.392 . S
C854 C855 1.367 . S
C854 H862 0.930 . S
C855 C853 1.413 . S
C855 C854 1.367 . S
C855 H857 0.930 . S
H856 C849 0.930 . S
H857 C855 0.930 . S
H858 C846 0.930 1_565 S
H859 C847 0.930 . S
H860 C853 0.929 . S
H861 C875 0.930 . S
H862 C854 0.930 . S
H863 C881 0.930 . S
H864 C872 0.929 . S
H865 C879 0.930 . S
H866 C843 0.931 . S
H867 C873 0.930 . S
H868 C906 0.930 . S
H869 C850 0.930 . S
H870 C905 0.931 . S
N871 Eu840 2.657 . S
N871 C872 1.334 . S
N871 C876 1.362 . S
C872 H864 0.929 . S
C872 N871 1.334 . S
C872 C875 1.413 . S
C873 H867 0.930 . S
C873 C874 1.392 . S
C873 C875 1.367 . S
C874 C873 1.392 . S
C874 C876 1.420 . S
C874 C906 1.423 . S
C875 H861 0.930 . S
C875 C872 1.413 . S
C875 C873 1.367 . S
C876 N871 1.362 . S
C876 C874 1.420 . S
C876 C880 1.429 . S
H877 C882 0.930 . S
N878 Eu840 2.609 . S
N878 C880 1.377 . S
N878 C881 1.321 1_545 S
C879 H865 0.930 . S
C879 C881 1.400 . S
C879 C882 1.386 . S
C880 C876 1.429 . S
C880 N878 1.377 . S
C880 C883 1.411 . S
C881 H863 0.930 . S
C881 N878 1.321 1_565 S
C881 C879 1.400 . S
C882 H877 0.930 . S
C882 C879 1.386 . S
C882 C883 1.395 1_565 S
C883 C880 1.411 . S
C883 C882 1.395 1_545 S
C883 C905 1.420 . S
O884 Eu840 2.558 1_565 S
O884 C904 1.257 1_565 S
O885 Eu840 2.612 . S
O885 Eu851 2.380 1_554 S
O885 C896 1.276 . S
O886 Eu851 2.432 1_554 S
O886 C903 1.264 . S
O887 Eu840 2.339 . S
O887 C903 1.254 . S
O888 Eu840 2.563 1_565 S
O888 C896 1.235 1_565 S
O889 Eu840 2.419 . S
O889 C904 1.249 . S
O890 Eu851 2.558 . S
O890 C915 1.257 . S
O891 Eu840 2.380 . S
O891 Eu851 2.612 1_554 S
O891 C907 1.276 . S
O892 Eu840 2.432 1_565 S
O892 C914 1.264 1_554 S
O893 Eu851 2.339 . S
O893 C914 1.254 1_545 S
O894 Eu851 2.563 . S
O894 C907 1.235 1_556 S
O895 Eu851 2.419 . S
O895 C915 1.249 . S
C896 O885 1.276 . S
C896 O888 1.235 1_545 S
C897 C899 1.393 1_565 S
C897 C901 1.395 . S
C897 C904 1.492 1_565 S
C898 C899 1.392 . S
C898 C900 1.386 1_545 S
C899 C897 1.393 1_545 S
C899 C898 1.392 . S
C899 H916 0.930 . S
C900 C898 1.386 1_565 S
C900 C902 1.395 . S
C900 H917 0.930 . S
C901 C897 1.395 . S
C901 C902 1.379 . S
C901 H918 0.930 . S
C902 C900 1.395 . S
C902 C901 1.379 . S
C902 H919 0.930 . S
C903 O886 1.264 . S
C903 O887 1.254 . S
C904 Eu840 2.848 . S
C904 O884 1.257 1_545 S
C904 O889 1.249 . S
C904 C897 1.492 1_545 S
C905 H870 0.931 . S
C905 C883 1.420 . S
C905 C906 1.351 . S
C906 H868 0.930 . S
C906 C874 1.423 . S
C906 C905 1.351 . S
C907 O891 1.276 . S
C907 O894 1.235 1_554 S
C908 C909 1.393 . S
C908 C912 1.395 . S
C908 C915 1.492 . S
C909 C908 1.393 . S
C909 C910 1.392 . S
C909 H920 0.930 . S
C910 C909 1.392 . S
C910 C911 1.386 . S
C911 C910 1.386 . S
C911 C913 1.395 . S
C911 H921 0.930 . S
C912 C908 1.395 . S
C912 C913 1.379 . S
C912 H922 0.930 . S
C913 C911 1.395 . S
C913 C912 1.379 . S
C913 H923 0.930 . S
C914 O892 1.264 1_556 S
C914 O893 1.254 1_565 S
C915 Eu851 2.848 . S
C915 O890 1.257 . S
C915 O895 1.249 . S
C915 C908 1.492 . S
H916 C899 0.930 . S
H917 C900 0.930 . S
H918 C901 0.930 . S
H919 C902 0.930 . S
H920 C909 0.930 . S
H921 C911 0.930 . S
H922 C912 0.930 . S
H923 C913 0.930 . S
Eu924 N955 2.657 . S
Eu924 N962 2.609 . S
Eu924 O968 2.558 . S
Eu924 O969 2.612 . S
Eu924 O971 2.339 . S
Eu924 O972 2.563 . S
Eu924 O973 2.419 . S
Eu924 O975 2.380 . S
Eu924 O976 2.432 . S
Eu924 C988 2.848 . S
C925 C928 1.429 . S
C925 C929 1.411 . S
C925 N932 1.377 . S
C926 C928 1.420 . S
C926 C930 1.423 . S
C926 C938 1.392 . S
C927 C929 1.420 . S
C927 C930 1.351 . S
C927 H950 0.931 . S
C928 C925 1.429 . S
C928 C926 1.420 . S
C928 N936 1.362 . S
C929 C925 1.411 . S
C929 C927 1.420 . S
C929 C934 1.395 . S
C930 C926 1.423 . S
C930 C927 1.351 . S
C930 H942 0.930 . S
C931 C933 1.400 . S
C931 C934 1.386 . S
C931 H943 0.930 . S
N932 C925 1.377 . S
N932 C933 1.321 . S
N932 Eu935 2.609 . S
C933 C931 1.400 . S
C933 N932 1.321 . S
C933 H940 0.930 . S
C934 C929 1.395 . S
C934 C931 1.386 . S
C934 H953 0.930 . S
Eu935 N932 2.609 . S
Eu935 N936 2.657 . S
Eu935 O969 2.380 . S
Eu935 O970 2.432 . S
Eu935 O974 2.558 . S
Eu935 O975 2.612 . S
Eu935 O977 2.339 . S
Eu935 O978 2.563 . S
Eu935 O979 2.419 . S
Eu935 C999 2.848 . S
N936 C928 1.362 . S
N936 Eu935 2.657 . S
N936 C937 1.334 . S
C937 N936 1.334 . S
C937 C939 1.413 . S
C937 H944 0.929 . S
C938 C926 1.392 . S
C938 C939 1.367 . S
C938 H946 0.930 . S
C939 C937 1.413 . S
C939 C938 1.367 . S
C939 H941 0.930 . S
H940 C933 0.930 . S
H941 C939 0.930 . S
H942 C930 0.930 . S
H943 C931 0.930 . S
H944 C937 0.929 . S
H945 C959 0.930 . S
H946 C938 0.930 . S
H947 C965 0.930 . S
H948 C956 0.929 . S
H949 C963 0.930 . S
H950 C927 0.931 . S
H951 C957 0.930 . S
H952 C990 0.930 . S
H953 C934 0.930 . S
H954 C989 0.931 . S
N955 Eu924 2.657 . S
N955 C956 1.334 . S
N955 C960 1.362 . S
C956 H948 0.929 . S
C956 N955 1.334 . S
C956 C959 1.413 . S
C957 H951 0.930 . S
C957 C958 1.392 . S
C957 C959 1.367 . S
C958 C957 1.392 . S
C958 C960 1.420 . S
C958 C990 1.423 . S
C959 H945 0.930 . S
C959 C956 1.413 . S
C959 C957 1.367 . S
C960 N955 1.362 . S
C960 C958 1.420 . S
C960 C964 1.429 . S
H961 C966 0.930 . S
N962 Eu924 2.609 . S
N962 C964 1.377 . S
N962 C965 1.321 . S
C963 H949 0.930 . S
C963 C965 1.400 . S
C963 C966 1.386 . S
C964 C960 1.429 . S
C964 N962 1.377 . S
C964 C967 1.411 . S
C965 H947 0.930 . S
C965 N962 1.321 . S
C965 C963 1.400 . S
C966 H961 0.930 . S
C966 C963 1.386 . S
C966 C967 1.395 . S
C967 C964 1.411 . S
C967 C966 1.395 . S
C967 C989 1.420 . S
O968 Eu924 2.558 . S
O968 C988 1.257 . S
O969 Eu924 2.612 . S
O969 Eu935 2.380 . S
O969 C980 1.276 . S
O970 Eu935 2.432 . S
O970 C987 1.264 . S
O971 Eu924 2.339 . S
O971 C987 1.254 . S
O972 Eu924 2.563 . S
O972 C980 1.235 . S
O973 Eu924 2.419 . S
O973 C988 1.249 . S
O974 Eu935 2.558 . S
O974 C999 1.257 . S
O975 Eu924 2.380 . S
O975 Eu935 2.612 . S
O975 C991 1.276 . S
O976 Eu924 2.432 . S
O976 C998 1.264 . S
O977 Eu935 2.339 . S
O977 C998 1.254 . S
O978 Eu935 2.563 . S
O978 C991 1.235 . S
O979 Eu935 2.419 . S
O979 C999 1.249 . S
C980 O969 1.276 . S
C980 O972 1.235 . S
C981 C983 1.393 . S
C981 C985 1.395 . S
C981 C988 1.492 . S
C982 C983 1.392 . S
C982 C984 1.386 . S
C983 C981 1.393 . S
C983 C982 1.392 . S
C983 H1000 0.930 . S
C984 C982 1.386 . S
C984 C986 1.395 . S
C984 H1001 0.930 . S
C985 C981 1.395 . S
C985 C986 1.379 . S
C985 H1002 0.930 . S
C986 C984 1.395 . S
C986 C985 1.379 . S
C986 H1003 0.930 . S
C987 O970 1.264 . S
C987 O971 1.254 . S
C988 Eu924 2.848 . S
C988 O968 1.257 . S
C988 O973 1.249 . S
C988 C981 1.492 . S
C989 H954 0.931 . S
C989 C967 1.420 . S
C989 C990 1.351 . S
C990 H952 0.930 . S
C990 C958 1.423 . S
C990 C989 1.351 . S
C991 O975 1.276 . S
C991 O978 1.235 . S
C992 C993 1.393 . S
C992 C996 1.395 . S
C992 C999 1.492 . S
C993 C992 1.393 . S
C993 C994 1.392 . S
C993 H1004 0.930 . S
C994 C993 1.392 . S
C994 C995 1.386 . S
C995 C994 1.386 . S
C995 C997 1.395 . S
C995 H1005 0.930 . S
C996 C992 1.395 . S
C996 C997 1.379 . S
C996 H1006 0.930 . S
C997 C995 1.395 . S
C997 C996 1.379 . S
C997 H1007 0.930 . S
C998 O976 1.264 . S
C998 O977 1.254 . S
C999 Eu935 2.848 . S
C999 O974 1.257 . S
C999 O979 1.249 . S
C999 C992 1.492 . S
H1000 C983 0.930 . S
H1001 C984 0.930 . S
H1002 C985 0.930 . S
H1003 C986 0.930 . S
H1004 C993 0.930 . S
H1005 C995 0.930 . S
H1006 C996 0.930 . S
H1007 C997 0.930 . S
Eu1008 N1039 2.657 . S
Eu1008 N1046 2.609 . S
Eu1008 O1052 2.558 . S
Eu1008 O1053 2.612 1_554 S
Eu1008 O1055 2.339 . S
Eu1008 O1056 2.563 1_554 S
Eu1008 O1057 2.419 . S
Eu1008 O1059 2.380 . S
Eu1008 O1060 2.432 . S
Eu1008 C1072 2.848 . S
C1009 C1012 1.429 . S
C1009 C1013 1.411 . S
C1009 N1016 1.377 . S
C1010 C1012 1.420 . S
C1010 C1014 1.423 . S
C1010 C1022 1.392 . S
C1011 C1013 1.420 . S
C1011 C1014 1.351 . S
C1011 H1034 0.931 . S
C1012 C1009 1.429 . S
C1012 C1010 1.420 . S
C1012 N1020 1.362 . S
C1013 C1009 1.411 . S
C1013 C1011 1.420 . S
C1013 C1018 1.395 . S
C1014 C1010 1.423 . S
C1014 C1011 1.351 . S
C1014 H1026 0.930 . S
C1015 C1017 1.400 . S
C1015 C1018 1.386 . S
C1015 H1027 0.930 . S
N1016 C1009 1.377 . S
N1016 C1017 1.321 . S
N1016 Eu1019 2.589 1_556 S
C1017 C1015 1.400 . S
C1017 N1016 1.321 . S
C1017 H1024 0.930 . S
C1018 C1013 1.395 . S
C1018 C1015 1.386 . S
C1018 H1037 0.930 . S
Eu1019 N1016 2.589 1_554 S
Eu1019 N1020 2.639 1_554 S
Eu1019 O1053 2.368 1_554 S
Eu1019 O1054 2.427 . S
Eu1019 O1058 2.563 . S
Eu1019 O1059 2.628 . S
Eu1019 O1061 2.347 . S
Eu1019 O1062 2.587 . S
Eu1019 O1063 2.428 . S
Eu1019 C1083 2.855 . S
N1020 C1012 1.362 . S
N1020 Eu1019 2.639 1_556 S
N1020 C1021 1.334 . S
C1021 N1020 1.334 . S
C1021 C1023 1.413 . S
C1021 H1028 0.929 . S
C1022 C1010 1.392 . S
C1022 C1023 1.367 . S
C1022 H1030 0.930 . S
C1023 C1021 1.413 . S
C1023 C1022 1.367 . S
C1023 H1025 0.930 . S
H1024 C1017 0.930 . S
H1025 C1023 0.930 . S
H1026 C1014 0.930 . S
H1027 C1015 0.930 . S
H1028 C1021 0.929 . S
H1029 C1043 0.930 . S
H1030 C1022 0.930 . S
H1031 C1049 0.930 . S
H1032 C1040 0.929 . S
H1033 C1047 0.930 . S
H1034 C1011 0.931 . S
H1035 C1041 0.930 . S
H1036 C1074 0.930 . S
H1037 C1018 0.930 . S
H1038 C1073 0.931 . S
N1039 Eu1008 2.657 . S
N1039 C1040 1.334 . S
N1039 C1044 1.362 . S
C1040 H1032 0.929 . S
C1040 N1039 1.334 . S
C1040 C1043 1.413 . S
C1041 H1035 0.930 . S
C1041 C1042 1.392 . S
C1041 C1043 1.367 . S
C1042 C1041 1.392 . S
C1042 C1044 1.420 . S
C1042 C1074 1.423 . S
C1043 H1029 0.930 . S
C1043 C1040 1.413 . S
C1043 C1041 1.367 . S
C1044 N1039 1.362 . S
C1044 C1042 1.420 . S
C1044 C1048 1.429 . S
H1045 C1050 0.930 . S
N1046 Eu1008 2.609 . S
N1046 C1048 1.377 . S
N1046 C1049 1.321 . S
C1047 H1033 0.930 . S
C1047 C1049 1.400 . S
C1047 C1050 1.386 . S
C1048 C1044 1.429 . S
C1048 N1046 1.377 . S
C1048 C1051 1.411 . S
C1049 H1031 0.930 . S
C1049 N1046 1.321 . S
C1049 C1047 1.400 . S
C1050 H1045 0.930 . S
C1050 C1047 1.386 . S
C1050 C1051 1.395 . S
C1051 C1048 1.411 . S
C1051 C1050 1.395 . S
C1051 C1073 1.420 . S
O1052 Eu1008 2.558 . S
O1052 C1072 1.257 . S
O1053 Eu1008 2.612 1_556 S
O1053 Eu1019 2.368 1_556 S
O1053 C1064 1.276 . S
O1054 Eu1019 2.427 . S
O1054 C1071 1.264 . S
O1055 Eu1008 2.339 . S
O1055 C1071 1.254 . S
O1056 Eu1008 2.563 1_556 S
O1056 C1064 1.235 . S
O1057 Eu1008 2.419 . S
O1057 C1072 1.249 . S
O1058 Eu1019 2.563 . S
O1058 C1083 1.257 . S
O1059 Eu1008 2.380 . S
O1059 Eu1019 2.628 . S
O1059 C1075 1.276 . S
O1060 Eu1008 2.432 . S
O1060 C1082 1.264 . S
O1061 Eu1019 2.347 . S
O1061 C1082 1.254 . S
O1062 Eu1019 2.587 . S
O1062 C1075 1.235 . S
O1063 Eu1019 2.428 . S
O1063 C1083 1.249 . S
C1064 O1053 1.276 . S
C1064 O1056 1.235 . S
C1065 C1067 1.393 . S
C1065 C1069 1.395 . S
C1065 C1072 1.492 . S
C1066 C1067 1.392 1_556 S
C1066 C1068 1.386 1_556 S
C1067 C1065 1.393 . S
C1067 C1066 1.392 1_554 S
C1067 H1084 0.930 1_554 S
C1068 C1066 1.386 1_554 S
C1068 C1070 1.395 . S
C1068 H1085 0.930 . S
C1069 C1065 1.395 . S
C1069 C1070 1.379 . S
C1069 H1086 0.930 . S
C1070 C1068 1.395 . S
C1070 C1069 1.379 . S
C1070 H1087 0.930 . S
C1071 O1054 1.264 . S
C1071 O1055 1.254 . S
C1072 Eu1008 2.848 . S
C1072 O1052 1.257 . S
C1072 O1057 1.249 . S
C1072 C1065 1.492 . S
C1073 H1038 0.931 . S
C1073 C1051 1.420 . S
C1073 C1074 1.351 . S
C1074 H1036 0.930 . S
C1074 C1042 1.423 . S
C1074 C1073 1.351 . S
C1075 O1059 1.276 . S
C1075 O1062 1.235 . S
C1076 C1077 1.393 . S
C1076 C1080 1.395 . S
C1076 C1083 1.492 . S
C1077 C1076 1.393 . S
C1077 C1078 1.392 . S
C1077 H1088 0.930 . S
C1078 C1077 1.392 . S
C1078 C1079 1.386 . S
C1079 C1078 1.386 . S
C1079 C1081 1.395 . S
C1079 H1089 0.930 . S
C1080 C1076 1.395 . S
C1080 C1081 1.379 . S
C1080 H1090 0.930 1_554 S
C1081 C1079 1.395 . S
C1081 C1080 1.379 . S
C1081 H1091 0.930 . S
C1082 O1060 1.264 . S
C1082 O1061 1.254 . S
C1083 Eu1019 2.855 . S
C1083 O1058 1.257 . S
C1083 O1063 1.249 . S
C1083 C1076 1.492 . S
H1084 C1067 0.930 1_556 S
H1085 C1068 0.930 . S
H1086 C1069 0.930 . S
H1087 C1070 0.930 . S
H1088 C1077 0.930 . S
H1089 C1079 0.930 . S
H1090 C1080 0.930 1_556 S
H1091 C1081 0.930 . S
Eu1092 N1123 2.657 . S
Eu1092 N1130 2.609 . S
Eu1092 O1136 2.558 . S
Eu1092 O1137 2.612 . S
Eu1092 O1139 2.339 . S
Eu1092 O1140 2.563 . S
Eu1092 O1141 2.419 . S
Eu1092 O1143 2.380 . S
Eu1092 O1144 2.432 . S
Eu1092 C1156 2.848 . S
C1093 C1096 1.429 . S
C1093 C1097 1.411 . S
C1093 N1100 1.377 . S
C1094 C1096 1.420 . S
C1094 C1098 1.423 . S
C1094 C1106 1.392 . S
C1095 C1097 1.420 . S
C1095 C1098 1.351 . S
C1095 H1118 0.931 . S
C1096 C1093 1.429 . S
C1096 C1094 1.420 . S
C1096 N1104 1.362 . S
C1097 C1093 1.411 . S
C1097 C1095 1.420 . S
C1097 C1102 1.395 . S
C1098 C1094 1.423 . S
C1098 C1095 1.351 . S
C1098 H1110 0.930 . S
C1099 C1101 1.400 . S
C1099 C1102 1.386 . S
C1099 H1111 0.930 . S
N1100 C1093 1.377 . S
N1100 C1101 1.321 . S
N1100 Eu1103 2.609 . S
C1101 C1099 1.400 . S
C1101 N1100 1.321 . S
C1101 H1108 0.930 . S
C1102 C1097 1.395 . S
C1102 C1099 1.386 . S
C1102 H1121 0.930 . S
Eu1103 N1100 2.609 . S
Eu1103 N1104 2.657 . S
Eu1103 O1137 2.380 . S
Eu1103 O1138 2.432 . S
Eu1103 O1142 2.558 . S
Eu1103 O1143 2.612 . S
Eu1103 O1145 2.339 . S
Eu1103 O1146 2.563 . S
Eu1103 O1147 2.419 . S
Eu1103 C1167 2.848 . S
N1104 C1096 1.362 . S
N1104 Eu1103 2.657 . S
N1104 C1105 1.334 . S
C1105 N1104 1.334 . S
C1105 C1107 1.413 . S
C1105 H1112 0.929 . S
C1106 C1094 1.392 . S
C1106 C1107 1.367 . S
C1106 H1114 0.930 . S
C1107 C1105 1.413 . S
C1107 C1106 1.367 . S
C1107 H1109 0.930 . S
H1108 C1101 0.930 . S
H1109 C1107 0.930 . S
H1110 C1098 0.930 . S
H1111 C1099 0.930 . S
H1112 C1105 0.929 . S
H1113 C1127 0.930 . S
H1114 C1106 0.930 . S
H1115 C1133 0.930 . S
H1116 C1124 0.929 . S
H1117 C1131 0.930 . S
H1118 C1095 0.931 . S
H1119 C1125 0.930 . S
H1120 C1158 0.930 . S
H1121 C1102 0.930 . S
H1122 C1157 0.931 . S
N1123 Eu1092 2.657 . S
N1123 C1124 1.334 . S
N1123 C1128 1.362 . S
C1124 H1116 0.929 . S
C1124 N1123 1.334 . S
C1124 C1127 1.413 . S
C1125 H1119 0.930 . S
C1125 C1126 1.392 . S
C1125 C1127 1.367 . S
C1126 C1125 1.392 . S
C1126 C1128 1.420 . S
C1126 C1158 1.423 . S
C1127 H1113 0.930 . S
C1127 C1124 1.413 . S
C1127 C1125 1.367 . S
C1128 N1123 1.362 . S
C1128 C1126 1.420 . S
C1128 C1132 1.429 . S
H1129 C1134 0.930 . S
N1130 Eu1092 2.609 . S
N1130 C1132 1.377 . S
N1130 C1133 1.321 . S
C1131 H1117 0.930 . S
C1131 C1133 1.400 . S
C1131 C1134 1.386 . S
C1132 C1128 1.429 . S
C1132 N1130 1.377 . S
C1132 C1135 1.411 . S
C1133 H1115 0.930 . S
C1133 N1130 1.321 . S
C1133 C1131 1.400 . S
C1134 H1129 0.930 . S
C1134 C1131 1.386 . S
C1134 C1135 1.395 . S
C1135 C1132 1.411 . S
C1135 C1134 1.395 . S
C1135 C1157 1.420 . S
O1136 Eu1092 2.558 . S
O1136 C1156 1.257 . S
O1137 Eu1092 2.612 . S
O1137 Eu1103 2.380 . S
O1137 C1148 1.276 . S
O1138 Eu1103 2.432 . S
O1138 C1155 1.264 . S
O1139 Eu1092 2.339 . S
O1139 C1155 1.254 . S
O1140 Eu1092 2.563 . S
O1140 C1148 1.235 . S
O1141 Eu1092 2.419 . S
O1141 C1156 1.249 . S
O1142 Eu1103 2.558 . S
O1142 C1167 1.257 . S
O1143 Eu1092 2.380 . S
O1143 Eu1103 2.612 . S
O1143 C1159 1.276 . S
O1144 Eu1092 2.432 . S
O1144 C1166 1.264 . S
O1145 Eu1103 2.339 . S
O1145 C1166 1.254 . S
O1146 Eu1103 2.563 . S
O1146 C1159 1.235 . S
O1147 Eu1103 2.419 . S
O1147 C1167 1.249 . S
C1148 O1137 1.276 . S
C1148 O1140 1.235 . S
C1149 C1151 1.393 . S
C1149 C1153 1.395 . S
C1149 C1156 1.492 . S
C1150 C1151 1.392 1_455 S
C1150 C1152 1.386 . S
C1151 C1149 1.393 . S
C1151 C1150 1.392 1_655 S
C1151 H1168 0.930 . S
C1152 C1150 1.386 . S
C1152 C1154 1.395 . S
C1152 H1169 0.930 . S
C1153 C1149 1.395 . S
C1153 C1154 1.379 1_655 S
C1153 H1170 0.930 . S
C1154 C1152 1.395 . S
C1154 C1153 1.379 1_455 S
C1154 H1171 0.930 . S
C1155 O1138 1.264 . S
C1155 O1139 1.254 . S
C1156 Eu1092 2.848 . S
C1156 O1136 1.257 . S
C1156 O1141 1.249 . S
C1156 C1149 1.492 . S
C1157 H1122 0.931 . S
C1157 C1135 1.420 . S
C1157 C1158 1.351 . S
C1158 H1120 0.930 . S
C1158 C1126 1.423 . S
C1158 C1157 1.351 . S
C1159 O1143 1.276 . S
C1159 O1146 1.235 . S
C1160 C1161 1.393 . S
C1160 C1164 1.395 . S
C1160 C1167 1.492 . S
C1161 C1160 1.393 . S
C1161 C1162 1.392 . S
C1161 H1172 0.930 . S
C1162 C1161 1.392 . S
C1162 C1163 1.386 . S
C1163 C1162 1.386 . S
C1163 C1165 1.395 . S
C1163 H1173 0.930 . S
C1164 C1160 1.395 . S
C1164 C1165 1.379 . S
C1164 H1174 0.930 . S
C1165 C1163 1.395 . S
C1165 C1164 1.379 . S
C1165 H1175 0.930 . S
C1166 O1144 1.264 . S
C1166 O1145 1.254 . S
C1167 Eu1103 2.848 . S
C1167 O1142 1.257 . S
C1167 O1147 1.249 . S
C1167 C1160 1.492 . S
H1168 C1151 0.930 . S
H1169 C1152 0.930 . S
H1170 C1153 0.930 . S
H1171 C1154 0.930 . S
H1172 C1161 0.930 . S
H1173 C1163 0.930 . S
H1174 C1164 0.930 . S
H1175 C1165 0.930 . S
Eu1176 N1207 2.657 . S
Eu1176 N1214 2.609 . S
Eu1176 O1220 2.558 . S
Eu1176 O1221 2.612 . S
Eu1176 O1223 2.339 . S
Eu1176 O1224 2.563 . S
Eu1176 O1225 2.419 . S
Eu1176 O1227 2.380 . S
Eu1176 O1228 2.432 . S
Eu1176 C1240 2.848 . S
C1177 C1180 1.429 . S
C1177 C1181 1.410 . S
C1177 N1184 1.377 1_655 S
C1178 C1180 1.420 . S
C1178 C1182 1.423 . S
C1178 C1190 1.392 . S
C1179 C1181 1.420 . S
C1179 C1182 1.351 . S
C1179 H1202 0.931 . S
C1180 C1177 1.429 . S
C1180 C1178 1.420 . S
C1180 N1188 1.362 1_655 S
C1181 C1177 1.410 . S
C1181 C1179 1.420 . S
C1181 C1186 1.395 . S
C1182 C1178 1.423 . S
C1182 C1179 1.351 . S
C1182 H1194 0.930 . S
C1183 C1185 1.400 . S
C1183 C1186 1.386 1_455 S
C1183 H1195 0.930 . S
N1184 C1177 1.377 1_455 S
N1184 C1185 1.321 . S
N1184 Eu1187 2.609 . S
C1185 C1183 1.400 . S
C1185 N1184 1.321 . S
C1185 H1192 0.930 . S
C1186 C1181 1.395 . S
C1186 C1183 1.386 1_655 S
C1186 H1205 0.930 . S
Eu1187 N1184 2.609 . S
Eu1187 N1188 2.657 . S
Eu1187 O1221 2.380 . S
Eu1187 O1222 2.432 . S
Eu1187 O1226 2.558 . S
Eu1187 O1227 2.612 . S
Eu1187 O1229 2.339 . S
Eu1187 O1230 2.563 . S
Eu1187 O1231 2.419 . S
Eu1187 C1251 2.848 . S
N1188 C1180 1.362 1_455 S
N1188 Eu1187 2.657 . S
N1188 C1189 1.334 . S
C1189 N1188 1.334 . S
C1189 C1191 1.413 1_455 S
C1189 H1196 0.929 . S
C1190 C1178 1.392 . S
C1190 C1191 1.367 . S
C1190 H1198 0.930 . S
C1191 C1189 1.413 1_655 S
C1191 C1190 1.367 . S
C1191 H1193 0.930 . S
H1192 C1185 0.930 . S
H1193 C1191 0.930 . S
H1194 C1182 0.930 . S
H1195 C1183 0.930 . S
H1196 C1189 0.929 . S
H1197 C1211 0.930 . S
H1198 C1190 0.930 . S
H1199 C1217 0.930 . S
H1200 C1208 0.929 . S
H1201 C1215 0.930 . S
H1202 C1179 0.931 . S
H1203 C1209 0.930 . S
H1204 C1242 0.930 . S
H1205 C1186 0.930 . S
H1206 C1241 0.931 . S
N1207 Eu1176 2.657 . S
N1207 C1208 1.334 . S
N1207 C1212 1.362 . S
C1208 H1200 0.929 . S
C1208 N1207 1.334 . S
C1208 C1211 1.413 . S
C1209 H1203 0.930 . S
C1209 C1210 1.392 . S
C1209 C1211 1.367 . S
C1210 C1209 1.392 . S
C1210 C1212 1.420 . S
C1210 C1242 1.423 . S
C1211 H1197 0.930 . S
C1211 C1208 1.413 . S
C1211 C1209 1.367 . S
C1212 N1207 1.362 . S
C1212 C1210 1.420 . S
C1212 C1216 1.429 . S
H1213 C1218 0.930 . S
N1214 Eu1176 2.609 . S
N1214 C1216 1.377 . S
N1214 C1217 1.321 . S
C1215 H1201 0.930 . S
C1215 C1217 1.400 . S
C1215 C1218 1.386 . S
C1216 C1212 1.429 . S
C1216 N1214 1.377 . S
C1216 C1219 1.411 . S
C1217 H1199 0.930 . S
C1217 N1214 1.321 . S
C1217 C1215 1.400 . S
C1218 H1213 0.930 . S
C1218 C1215 1.386 . S
C1218 C1219 1.395 . S
C1219 C1216 1.411 . S
C1219 C1218 1.395 . S
C1219 C1241 1.420 . S
O1220 Eu1176 2.558 . S
O1220 C1240 1.257 . S
O1221 Eu1176 2.612 . S
O1221 Eu1187 2.380 . S
O1221 C1232 1.276 . S
O1222 Eu1187 2.432 . S
O1222 C1239 1.264 . S
O1223 Eu1176 2.339 . S
O1223 C1239 1.254 . S
O1224 Eu1176 2.563 . S
O1224 C1232 1.235 . S
O1225 Eu1176 2.419 . S
O1225 C1240 1.249 . S
O1226 Eu1187 2.558 . S
O1226 C1251 1.257 . S
O1227 Eu1176 2.380 . S
O1227 Eu1187 2.612 . S
O1227 C1243 1.276 . S
O1228 Eu1176 2.432 . S
O1228 C1250 1.264 . S
O1229 Eu1187 2.339 . S
O1229 C1250 1.254 . S
O1230 Eu1187 2.563 . S
O1230 C1243 1.235 . S
O1231 Eu1187 2.419 . S
O1231 C1251 1.249 . S
C1232 O1221 1.276 . S
C1232 O1224 1.235 . S
C1233 C1235 1.393 . S
C1233 C1237 1.395 . S
C1233 C1240 1.492 . S
C1234 C1235 1.392 . S
C1234 C1236 1.386 . S
C1235 C1233 1.393 . S
C1235 C1234 1.392 . S
C1235 H1252 0.930 . S
C1236 C1234 1.386 . S
C1236 C1238 1.395 . S
C1236 H1253 0.930 1_455 S
C1237 C1233 1.395 . S
C1237 C1238 1.379 . S
C1237 H1254 0.930 . S
C1238 C1236 1.395 . S
C1238 C1237 1.379 . S
C1238 H1255 0.930 . S
C1239 O1222 1.264 . S
C1239 O1223 1.254 . S
C1240 Eu1176 2.848 . S
C1240 O1220 1.257 . S
C1240 O1225 1.249 . S
C1240 C1233 1.492 . S
C1241 H1206 0.931 . S
C1241 C1219 1.420 . S
C1241 C1242 1.351 . S
C1242 H1204 0.930 . S
C1242 C1210 1.423 . S
C1242 C1241 1.351 . S
C1243 O1227 1.276 . S
C1243 O1230 1.235 . S
C1244 C1245 1.393 . S
C1244 C1248 1.395 . S
C1244 C1251 1.492 . S
C1245 C1244 1.393 . S
C1245 C1246 1.392 . S
C1245 H1256 0.930 . S
C1246 C1245 1.392 . S
C1246 C1247 1.386 . S
C1247 C1246 1.386 . S
C1247 C1249 1.395 . S
C1247 H1257 0.930 . S
C1248 C1244 1.395 . S
C1248 C1249 1.379 . S
C1248 H1258 0.930 . S
C1249 C1247 1.395 . S
C1249 C1248 1.379 . S
C1249 H1259 0.930 . S
C1250 O1228 1.264 . S
C1250 O1229 1.254 . S
C1251 Eu1187 2.848 . S
C1251 O1226 1.257 . S
C1251 O1231 1.249 . S
C1251 C1244 1.492 . S
H1252 C1235 0.930 . S
H1253 C1236 0.930 1_655 S
H1254 C1237 0.930 . S
H1255 C1238 0.930 . S
H1256 C1245 0.930 . S
H1257 C1247 0.930 . S
H1258 C1248 0.930 . S
H1259 C1249 0.930 . S
Eu1260 N1291 2.657 . S
Eu1260 N1298 2.609 . S
Eu1260 O1304 2.558 . S
Eu1260 O1305 2.612 . S
Eu1260 O1307 2.339 . S
Eu1260 O1308 2.563 . S
Eu1260 O1309 2.419 . S
Eu1260 O1311 2.380 . S
Eu1260 O1312 2.432 . S
Eu1260 C1324 2.848 . S
C1261 C1264 1.429 . S
C1261 C1265 1.411 . S
C1261 N1268 1.377 . S
C1262 C1264 1.420 . S
C1262 C1266 1.423 . S
C1262 C1274 1.392 . S
C1263 C1265 1.420 . S
C1263 C1266 1.351 . S
C1263 H1286 0.931 . S
C1264 C1261 1.429 . S
C1264 C1262 1.420 . S
C1264 N1272 1.362 . S
C1265 C1261 1.411 . S
C1265 C1263 1.420 . S
C1265 C1270 1.395 . S
C1266 C1262 1.423 . S
C1266 C1263 1.351 . S
C1266 H1278 0.930 . S
C1267 C1269 1.400 . S
C1267 C1270 1.386 . S
C1267 H1279 0.930 . S
N1268 C1261 1.377 . S
N1268 C1269 1.321 . S
N1268 Eu1271 2.609 . S
C1269 C1267 1.400 . S
C1269 N1268 1.321 . S
C1269 H1276 0.930 . S
C1270 C1265 1.395 . S
C1270 C1267 1.386 . S
C1270 H1289 0.930 . S
Eu1271 N1268 2.609 . S
Eu1271 N1272 2.657 . S
Eu1271 O1305 2.380 . S
Eu1271 O1306 2.432 . S
Eu1271 O1310 2.558 . S
Eu1271 O1311 2.612 . S
Eu1271 O1313 2.339 . S
Eu1271 O1314 2.563 . S
Eu1271 O1315 2.419 . S
Eu1271 C1335 2.848 . S
N1272 C1264 1.362 . S
N1272 Eu1271 2.657 . S
N1272 C1273 1.334 . S
C1273 N1272 1.334 . S
C1273 C1275 1.413 . S
C1273 H1280 0.929 . S
C1274 C1262 1.392 . S
C1274 C1275 1.367 . S
C1274 H1282 0.930 . S
C1275 C1273 1.413 . S
C1275 C1274 1.367 . S
C1275 H1277 0.930 . S
H1276 C1269 0.930 . S
H1277 C1275 0.930 . S
H1278 C1266 0.930 . S
H1279 C1267 0.930 . S
H1280 C1273 0.929 . S
H1281 C1295 0.930 . S
H1282 C1274 0.930 . S
H1283 C1301 0.930 . S
H1284 C1292 0.929 . S
H1285 C1299 0.930 . S
H1286 C1263 0.931 . S
H1287 C1293 0.930 . S
H1288 C1326 0.930 . S
H1289 C1270 0.930 . S
H1290 C1325 0.931 . S
N1291 Eu1260 2.657 . S
N1291 C1292 1.334 . S
N1291 C1296 1.362 . S
C1292 H1284 0.929 . S
C1292 N1291 1.334 . S
C1292 C1295 1.413 . S
C1293 H1287 0.930 . S
C1293 C1294 1.392 . S
C1293 C1295 1.367 . S
C1294 C1293 1.392 . S
C1294 C1296 1.420 . S
C1294 C1326 1.423 . S
C1295 H1281 0.930 . S
C1295 C1292 1.413 . S
C1295 C1293 1.367 . S
C1296 N1291 1.362 . S
C1296 C1294 1.420 . S
C1296 C1300 1.429 . S
H1297 C1302 0.930 . S
N1298 Eu1260 2.609 . S
N1298 C1300 1.377 . S
N1298 C1301 1.321 . S
C1299 H1285 0.930 . S
C1299 C1301 1.400 . S
C1299 C1302 1.386 . S
C1300 C1296 1.429 . S
C1300 N1298 1.377 . S
C1300 C1303 1.411 . S
C1301 H1283 0.930 . S
C1301 N1298 1.321 . S
C1301 C1299 1.400 . S
C1302 H1297 0.930 . S
C1302 C1299 1.386 . S
C1302 C1303 1.395 . S
C1303 C1300 1.411 . S
C1303 C1302 1.395 . S
C1303 C1325 1.420 . S
O1304 Eu1260 2.558 . S
O1304 C1324 1.257 . S
O1305 Eu1260 2.612 . S
O1305 Eu1271 2.380 . S
O1305 C1316 1.276 . S
O1306 Eu1271 2.432 . S
O1306 C1323 1.264 . S
O1307 Eu1260 2.339 . S
O1307 C1323 1.254 . S
O1308 Eu1260 2.563 . S
O1308 C1316 1.235 . S
O1309 Eu1260 2.419 . S
O1309 C1324 1.249 . S
O1310 Eu1271 2.558 . S
O1310 C1335 1.257 . S
O1311 Eu1260 2.380 . S
O1311 Eu1271 2.612 . S
O1311 C1327 1.276 . S
O1312 Eu1260 2.432 . S
O1312 C1334 1.264 . S
O1313 Eu1271 2.339 . S
O1313 C1334 1.254 . S
O1314 Eu1271 2.563 . S
O1314 C1327 1.235 . S
O1315 Eu1271 2.419 . S
O1315 C1335 1.249 . S
C1316 O1305 1.276 . S
C1316 O1308 1.235 . S
C1317 C1319 1.393 . S
C1317 C1321 1.395 . S
C1317 C1324 1.492 . S
C1318 C1319 1.392 . S
C1318 C1320 1.386 . S
C1319 C1317 1.393 . S
C1319 C1318 1.392 . S
C1319 H1336 0.930 . S
C1320 C1318 1.386 . S
C1320 C1322 1.395 . S
C1320 H1337 0.930 . S
C1321 C1317 1.395 . S
C1321 C1322 1.379 . S
C1321 H1338 0.930 . S
C1322 C1320 1.395 . S
C1322 C1321 1.379 . S
C1322 H1339 0.930 . S
C1323 O1306 1.264 . S
C1323 O1307 1.254 . S
C1324 Eu1260 2.848 . S
C1324 O1304 1.257 . S
C1324 O1309 1.249 . S
C1324 C1317 1.492 . S
C1325 H1290 0.931 . S
C1325 C1303 1.420 . S
C1325 C1326 1.351 . S
C1326 H1288 0.930 . S
C1326 C1294 1.423 . S
C1326 C1325 1.351 . S
C1327 O1311 1.276 . S
C1327 O1314 1.235 . S
C1328 C1329 1.393 . S
C1328 C1332 1.395 . S
C1328 C1335 1.492 . S
C1329 C1328 1.393 . S
C1329 C1330 1.392 . S
C1329 H1340 0.930 . S
C1330 C1329 1.392 . S
C1330 C1331 1.386 . S
C1331 C1330 1.386 . S
C1331 C1333 1.395 . S
C1331 H1341 0.930 1_655 S
C1332 C1328 1.395 . S
C1332 C1333 1.379 . S
C1332 H1342 0.930 . S
C1333 C1331 1.395 . S
C1333 C1332 1.379 . S
C1333 H1343 0.930 . S
C1334 O1312 1.264 . S
C1334 O1313 1.254 . S
C1335 Eu1271 2.848 . S
C1335 O1310 1.257 . S
C1335 O1315 1.249 . S
C1335 C1328 1.492 . S
H1336 C1319 0.930 . S
H1337 C1320 0.930 . S
H1338 C1321 0.930 . S
H1339 C1322 0.930 . S
H1340 C1329 0.930 . S
H1341 C1331 0.930 1_455 S
H1342 C1332 0.930 . S
H1343 C1333 0.930 . S
Eu1344 N1375 2.657 . S
Eu1344 N1382 2.609 . S
Eu1344 O1388 2.558 . S
Eu1344 O1389 2.612 . S
Eu1344 O1391 2.339 . S
Eu1344 O1392 2.563 . S
Eu1344 O1393 2.419 . S
Eu1344 O1395 2.380 . S
Eu1344 O1396 2.432 . S
Eu1344 C1408 2.848 . S
C1345 C1348 1.429 . S
C1345 C1349 1.411 . S
C1345 N1352 1.377 . S
C1346 C1348 1.420 . S
C1346 C1350 1.423 . S
C1346 C1358 1.392 . S
C1347 C1349 1.420 . S
C1347 C1350 1.351 . S
C1347 H1370 0.931 . S
C1348 C1345 1.429 . S
C1348 C1346 1.420 . S
C1348 N1356 1.362 . S
C1349 C1345 1.411 . S
C1349 C1347 1.420 . S
C1349 C1354 1.395 . S
C1350 C1346 1.423 . S
C1350 C1347 1.351 . S
C1350 H1362 0.930 . S
C1351 C1353 1.400 . S
C1351 C1354 1.386 . S
C1351 H1363 0.930 . S
N1352 C1345 1.377 . S
N1352 C1353 1.321 . S
N1352 Eu1355 2.609 . S
C1353 C1351 1.400 . S
C1353 N1352 1.321 . S
C1353 H1360 0.930 . S
C1354 C1349 1.395 . S
C1354 C1351 1.386 . S
C1354 H1373 0.930 . S
Eu1355 N1352 2.609 . S
Eu1355 N1356 2.657 . S
Eu1355 O1389 2.380 . S
Eu1355 O1390 2.432 . S
Eu1355 O1394 2.558 . S
Eu1355 O1395 2.612 . S
Eu1355 O1397 2.339 . S
Eu1355 O1398 2.563 . S
Eu1355 O1399 2.419 . S
Eu1355 C1419 2.848 . S
N1356 C1348 1.362 . S
N1356 Eu1355 2.657 . S
N1356 C1357 1.334 . S
C1357 N1356 1.334 . S
C1357 C1359 1.413 . S
C1357 H1364 0.929 . S
C1358 C1346 1.392 . S
C1358 C1359 1.367 . S
C1358 H1366 0.930 . S
C1359 C1357 1.413 . S
C1359 C1358 1.367 . S
C1359 H1361 0.930 . S
H1360 C1353 0.930 . S
H1361 C1359 0.930 . S
H1362 C1350 0.930 . S
H1363 C1351 0.930 . S
H1364 C1357 0.929 . S
H1365 C1379 0.930 . S
H1366 C1358 0.930 . S
H1367 C1385 0.930 . S
H1368 C1376 0.929 . S
H1369 C1383 0.930 . S
H1370 C1347 0.931 . S
H1371 C1377 0.930 . S
H1372 C1410 0.930 . S
H1373 C1354 0.930 . S
H1374 C1409 0.931 . S
N1375 Eu1344 2.657 . S
N1375 C1376 1.334 . S
N1375 C1380 1.362 . S
C1376 H1368 0.929 . S
C1376 N1375 1.334 . S
C1376 C1379 1.413 . S
C1377 H1371 0.930 . S
C1377 C1378 1.392 . S
C1377 C1379 1.367 . S
C1378 C1377 1.392 . S
C1378 C1380 1.420 . S
C1378 C1410 1.423 . S
C1379 H1365 0.930 . S
C1379 C1376 1.413 . S
C1379 C1377 1.367 . S
C1380 N1375 1.362 . S
C1380 C1378 1.420 . S
C1380 C1384 1.429 . S
H1381 C1386 0.930 . S
N1382 Eu1344 2.609 . S
N1382 C1384 1.377 . S
N1382 C1385 1.321 . S
C1383 H1369 0.930 . S
C1383 C1385 1.400 . S
C1383 C1386 1.386 . S
C1384 C1380 1.429 . S
C1384 N1382 1.377 . S
C1384 C1387 1.411 . S
C1385 H1367 0.930 . S
C1385 N1382 1.321 . S
C1385 C1383 1.400 . S
C1386 H1381 0.930 . S
C1386 C1383 1.386 . S
C1386 C1387 1.395 . S
C1387 C1384 1.411 . S
C1387 C1386 1.395 . S
C1387 C1409 1.420 . S
O1388 Eu1344 2.558 . S
O1388 C1408 1.257 . S
O1389 Eu1344 2.612 . S
O1389 Eu1355 2.380 . S
O1389 C1400 1.276 . S
O1390 Eu1355 2.432 . S
O1390 C1407 1.264 . S
O1391 Eu1344 2.339 . S
O1391 C1407 1.254 . S
O1392 Eu1344 2.563 . S
O1392 C1400 1.235 . S
O1393 Eu1344 2.419 . S
O1393 C1408 1.249 . S
O1394 Eu1355 2.558 . S
O1394 C1419 1.257 . S
O1395 Eu1344 2.380 . S
O1395 Eu1355 2.612 . S
O1395 C1411 1.276 . S
O1396 Eu1344 2.432 . S
O1396 C1418 1.264 . S
O1397 Eu1355 2.339 . S
O1397 C1418 1.254 . S
O1398 Eu1355 2.563 . S
O1398 C1411 1.235 . S
O1399 Eu1355 2.419 . S
O1399 C1419 1.249 . S
C1400 O1389 1.276 . S
C1400 O1392 1.235 . S
C1401 C1403 1.393 . S
C1401 C1405 1.395 . S
C1401 C1408 1.492 . S
C1402 C1403 1.392 . S
C1402 C1404 1.386 . S
C1403 C1401 1.393 . S
C1403 C1402 1.392 . S
C1403 H1420 0.930 . S
C1404 C1402 1.386 . S
C1404 C1406 1.395 . S
C1404 H1421 0.930 . S
C1405 C1401 1.395 . S
C1405 C1406 1.379 . S
C1405 H1422 0.930 . S
C1406 C1404 1.395 . S
C1406 C1405 1.379 . S
C1406 H1423 0.930 . S
C1407 O1390 1.264 . S
C1407 O1391 1.254 . S
C1408 Eu1344 2.848 . S
C1408 O1388 1.257 . S
C1408 O1393 1.249 . S
C1408 C1401 1.492 . S
C1409 H1374 0.931 . S
C1409 C1387 1.420 . S
C1409 C1410 1.351 . S
C1410 H1372 0.930 . S
C1410 C1378 1.423 . S
C1410 C1409 1.351 . S
C1411 O1395 1.276 . S
C1411 O1398 1.235 . S
C1412 C1413 1.393 . S
C1412 C1416 1.395 . S
C1412 C1419 1.492 . S
C1413 C1412 1.393 . S
C1413 C1414 1.392 . S
C1413 H1424 0.930 . S
C1414 C1413 1.392 . S
C1414 C1415 1.386 . S
C1415 C1414 1.386 . S
C1415 C1417 1.395 . S
C1415 H1425 0.930 . S
C1416 C1412 1.395 . S
C1416 C1417 1.379 . S
C1416 H1426 0.930 . S
C1417 C1415 1.395 . S
C1417 C1416 1.379 . S
C1417 H1427 0.930 . S
C1418 O1396 1.264 . S
C1418 O1397 1.254 . S
C1419 Eu1355 2.848 . S
C1419 O1394 1.257 . S
C1419 O1399 1.249 . S
C1419 C1412 1.492 . S
H1420 C1403 0.930 . S
H1421 C1404 0.930 . S
H1422 C1405 0.930 . S
H1423 C1406 0.930 . S
H1424 C1413 0.930 . S
H1425 C1415 0.930 . S
H1426 C1416 0.930 . S
H1427 C1417 0.930 . S
Eu1428 N1459 2.657 . S
Eu1428 N1466 2.609 . S
Eu1428 O1472 2.558 . S
Eu1428 O1473 2.612 . S
Eu1428 O1475 2.339 . S
Eu1428 O1476 2.563 . S
Eu1428 O1477 2.419 . S
Eu1428 O1479 2.380 . S
Eu1428 O1480 2.432 . S
Eu1428 C1492 2.848 . S
C1429 C1432 1.429 . S
C1429 C1433 1.411 . S
C1429 N1436 1.377 . S
C1430 C1432 1.420 . S
C1430 C1434 1.423 . S
C1430 C1442 1.392 . S
C1431 C1433 1.420 . S
C1431 C1434 1.351 . S
C1431 H1454 0.931 . S
C1432 C1429 1.429 . S
C1432 C1430 1.420 . S
C1432 N1440 1.362 . S
C1433 C1429 1.411 . S
C1433 C1431 1.420 . S
C1433 C1438 1.395 . S
C1434 C1430 1.423 . S
C1434 C1431 1.351 . S
C1434 H1446 0.930 . S
C1435 C1437 1.400 . S
C1435 C1438 1.386 . S
C1435 H1447 0.930 . S
N1436 C1429 1.377 . S
N1436 C1437 1.321 . S
N1436 Eu1439 2.609 . S
C1437 C1435 1.400 . S
C1437 N1436 1.321 . S
C1437 H1444 0.930 . S
C1438 C1433 1.395 . S
C1438 C1435 1.386 . S
C1438 H1457 0.930 . S
Eu1439 N1436 2.609 . S
Eu1439 N1440 2.657 . S
Eu1439 O1473 2.380 . S
Eu1439 O1474 2.432 . S
Eu1439 O1478 2.558 . S
Eu1439 O1479 2.612 . S
Eu1439 O1481 2.339 . S
Eu1439 O1482 2.563 . S
Eu1439 O1483 2.419 . S
Eu1439 C1503 2.848 . S
N1440 C1432 1.362 . S
N1440 Eu1439 2.657 . S
N1440 C1441 1.334 . S
C1441 N1440 1.334 . S
C1441 C1443 1.413 . S
C1441 H1448 0.929 . S
C1442 C1430 1.392 . S
C1442 C1443 1.367 . S
C1442 H1450 0.930 . S
C1443 C1441 1.413 . S
C1443 C1442 1.367 . S
C1443 H1445 0.930 . S
H1444 C1437 0.930 . S
H1445 C1443 0.930 . S
H1446 C1434 0.930 . S
H1447 C1435 0.930 . S
H1448 C1441 0.929 . S
H1449 C1463 0.930 . S
H1450 C1442 0.930 . S
H1451 C1469 0.930 . S
H1452 C1460 0.929 . S
H1453 C1467 0.930 . S
H1454 C1431 0.931 . S
H1455 C1461 0.930 . S
H1456 C1494 0.930 . S
H1457 C1438 0.930 . S
H1458 C1493 0.931 . S
N1459 Eu1428 2.657 . S
N1459 C1460 1.334 . S
N1459 C1464 1.362 . S
C1460 H1452 0.929 . S
C1460 N1459 1.334 . S
C1460 C1463 1.413 . S
C1461 H1455 0.930 . S
C1461 C1462 1.392 . S
C1461 C1463 1.367 . S
C1462 C1461 1.392 . S
C1462 C1464 1.420 . S
C1462 C1494 1.423 . S
C1463 H1449 0.930 . S
C1463 C1460 1.413 . S
C1463 C1461 1.367 . S
C1464 N1459 1.362 . S
C1464 C1462 1.420 . S
C1464 C1468 1.429 . S
H1465 C1470 0.930 . S
N1466 Eu1428 2.609 . S
N1466 C1468 1.377 . S
N1466 C1469 1.321 . S
C1467 H1453 0.930 . S
C1467 C1469 1.400 . S
C1467 C1470 1.386 . S
C1468 C1464 1.429 . S
C1468 N1466 1.377 . S
C1468 C1471 1.411 . S
C1469 H1451 0.930 . S
C1469 N1466 1.321 . S
C1469 C1467 1.400 . S
C1470 H1465 0.930 . S
C1470 C1467 1.386 . S
C1470 C1471 1.395 . S
C1471 C1468 1.411 . S
C1471 C1470 1.395 . S
C1471 C1493 1.420 . S
O1472 Eu1428 2.558 . S
O1472 C1492 1.257 . S
O1473 Eu1428 2.612 . S
O1473 Eu1439 2.380 . S
O1473 C1484 1.276 . S
O1474 Eu1439 2.432 . S
O1474 C1491 1.264 . S
O1475 Eu1428 2.339 . S
O1475 C1491 1.254 . S
O1476 Eu1428 2.563 . S
O1476 C1484 1.235 . S
O1477 Eu1428 2.419 . S
O1477 C1492 1.249 . S
O1478 Eu1439 2.558 . S
O1478 C1503 1.257 . S
O1479 Eu1428 2.380 . S
O1479 Eu1439 2.612 . S
O1479 C1495 1.276 . S
O1480 Eu1428 2.432 . S
O1480 C1502 1.264 . S
O1481 Eu1439 2.339 . S
O1481 C1502 1.254 . S
O1482 Eu1439 2.563 . S
O1482 C1495 1.235 . S
O1483 Eu1439 2.419 . S
O1483 C1503 1.249 . S
C1484 O1473 1.276 . S
C1484 O1476 1.235 . S
C1485 C1487 1.393 . S
C1485 C1489 1.395 . S
C1485 C1492 1.492 . S
C1486 C1487 1.392 . S
C1486 C1488 1.386 . S
C1487 C1485 1.393 . S
C1487 C1486 1.392 . S
C1487 H1504 0.930 . S
C1488 C1486 1.386 . S
C1488 C1490 1.395 . S
C1488 H1505 0.930 1_565 S
C1489 C1485 1.395 . S
C1489 C1490 1.379 . S
C1489 H1506 0.930 . S
C1490 C1488 1.395 . S
C1490 C1489 1.379 . S
C1490 H1507 0.930 . S
C1491 O1474 1.264 . S
C1491 O1475 1.254 . S
C1492 Eu1428 2.848 . S
C1492 O1472 1.257 . S
C1492 O1477 1.249 . S
C1492 C1485 1.492 . S
C1493 H1458 0.931 . S
C1493 C1471 1.420 . S
C1493 C1494 1.351 . S
C1494 H1456 0.930 . S
C1494 C1462 1.423 . S
C1494 C1493 1.351 . S
C1495 O1479 1.276 . S
C1495 O1482 1.235 . S
C1496 C1497 1.393 . S
C1496 C1500 1.395 . S
C1496 C1503 1.492 . S
C1497 C1496 1.393 . S
C1497 C1498 1.392 . S
C1497 H1508 0.930 . S
C1498 C1497 1.392 . S
C1498 C1499 1.386 . S
C1499 C1498 1.386 . S
C1499 C1501 1.395 . S
C1499 H1509 0.930 . S
C1500 C1496 1.395 . S
C1500 C1501 1.379 . S
C1500 H1510 0.930 . S
C1501 C1499 1.395 . S
C1501 C1500 1.379 . S
C1501 H1511 0.930 . S
C1502 O1480 1.264 . S
C1502 O1481 1.254 . S
C1503 Eu1439 2.848 . S
C1503 O1478 1.257 . S
C1503 O1483 1.249 . S
C1503 C1496 1.492 . S
H1504 C1487 0.930 . S
H1505 C1488 0.930 1_545 S
H1506 C1489 0.930 . S
H1507 C1490 0.930 . S
H1508 C1497 0.930 . S
H1509 C1499 0.930 . S
H1510 C1500 0.930 . S
H1511 C1501 0.930 . S
Eu1512 N1543 2.657 . S
Eu1512 N1550 2.609 . S
Eu1512 O1556 2.558 . S
Eu1512 O1557 2.612 . S
Eu1512 O1559 2.339 . S
Eu1512 O1560 2.563 . S
Eu1512 O1561 2.419 . S
Eu1512 O1563 2.380 . S
Eu1512 O1564 2.432 . S
Eu1512 C1576 2.848 . S
C1513 C1516 1.429 . S
C1513 C1517 1.411 . S
C1513 N1520 1.377 . S
C1514 C1516 1.420 . S
C1514 C1518 1.423 . S
C1514 C1526 1.392 . S
C1515 C1517 1.420 . S
C1515 C1518 1.351 . S
C1515 H1538 0.931 . S
C1516 C1513 1.429 . S
C1516 C1514 1.420 . S
C1516 N1524 1.362 . S
C1517 C1513 1.411 . S
C1517 C1515 1.420 . S
C1517 C1522 1.395 . S
C1518 C1514 1.423 . S
C1518 C1515 1.351 . S
C1518 H1530 0.930 . S
C1519 C1521 1.400 . S
C1519 C1522 1.386 . S
C1519 H1531 0.930 . S
N1520 C1513 1.377 . S
N1520 C1521 1.321 . S
N1520 Eu1523 2.609 . S
C1521 C1519 1.400 . S
C1521 N1520 1.321 . S
C1521 H1528 0.930 . S
C1522 C1517 1.395 . S
C1522 C1519 1.386 . S
C1522 H1541 0.930 . S
Eu1523 N1520 2.609 . S
Eu1523 N1524 2.657 . S
Eu1523 O1557 2.380 . S
Eu1523 O1558 2.432 . S
Eu1523 O1562 2.558 . S
Eu1523 O1563 2.612 . S
Eu1523 O1565 2.339 . S
Eu1523 O1566 2.563 . S
Eu1523 O1567 2.419 . S
Eu1523 C1587 2.848 . S
N1524 C1516 1.362 . S
N1524 Eu1523 2.657 . S
N1524 C1525 1.334 . S
C1525 N1524 1.334 . S
C1525 C1527 1.413 . S
C1525 H1532 0.929 . S
C1526 C1514 1.392 . S
C1526 C1527 1.367 . S
C1526 H1534 0.930 . S
C1527 C1525 1.413 . S
C1527 C1526 1.367 . S
C1527 H1529 0.930 . S
H1528 C1521 0.930 . S
H1529 C1527 0.930 . S
H1530 C1518 0.930 . S
H1531 C1519 0.930 . S
H1532 C1525 0.929 . S
H1533 C1547 0.930 . S
H1534 C1526 0.930 . S
H1535 C1553 0.930 . S
H1536 C1544 0.929 . S
H1537 C1551 0.930 . S
H1538 C1515 0.931 . S
H1539 C1545 0.930 . S
H1540 C1578 0.930 . S
H1541 C1522 0.930 . S
H1542 C1577 0.931 . S
N1543 Eu1512 2.657 . S
N1543 C1544 1.334 . S
N1543 C1548 1.362 . S
C1544 H1536 0.929 . S
C1544 N1543 1.334 . S
C1544 C1547 1.413 . S
C1545 H1539 0.930 . S
C1545 C1546 1.392 . S
C1545 C1547 1.367 . S
C1546 C1545 1.392 . S
C1546 C1548 1.420 . S
C1546 C1578 1.423 . S
C1547 H1533 0.930 . S
C1547 C1544 1.413 . S
C1547 C1545 1.367 . S
C1548 N1543 1.362 . S
C1548 C1546 1.420 . S
C1548 C1552 1.429 . S
H1549 C1554 0.930 . S
N1550 Eu1512 2.609 . S
N1550 C1552 1.377 . S
N1550 C1553 1.321 . S
C1551 H1537 0.930 . S
C1551 C1553 1.400 . S
C1551 C1554 1.386 . S
C1552 C1548 1.429 . S
C1552 N1550 1.377 . S
C1552 C1555 1.411 . S
C1553 H1535 0.930 . S
C1553 N1550 1.321 . S
C1553 C1551 1.400 . S
C1554 H1549 0.930 . S
C1554 C1551 1.386 . S
C1554 C1555 1.395 . S
C1555 C1552 1.411 . S
C1555 C1554 1.395 . S
C1555 C1577 1.420 . S
O1556 Eu1512 2.558 . S
O1556 C1576 1.257 . S
O1557 Eu1512 2.612 . S
O1557 Eu1523 2.380 . S
O1557 C1568 1.276 . S
O1558 Eu1523 2.432 . S
O1558 C1575 1.264 . S
O1559 Eu1512 2.339 . S
O1559 C1575 1.254 . S
O1560 Eu1512 2.563 . S
O1560 C1568 1.235 . S
O1561 Eu1512 2.419 . S
O1561 C1576 1.249 . S
O1562 Eu1523 2.558 . S
O1562 C1587 1.257 . S
O1563 Eu1512 2.380 . S
O1563 Eu1523 2.612 . S
O1563 C1579 1.276 . S
O1564 Eu1512 2.432 . S
O1564 C1586 1.264 . S
O1565 Eu1523 2.339 . S
O1565 C1586 1.254 . S
O1566 Eu1523 2.563 . S
O1566 C1579 1.235 . S
O1567 Eu1523 2.419 . S
O1567 C1587 1.249 . S
C1568 O1557 1.276 . S
C1568 O1560 1.235 . S
C1569 C1571 1.393 . S
C1569 C1573 1.395 . S
C1569 C1576 1.492 . S
C1570 C1571 1.392 . S
C1570 C1572 1.386 . S
C1571 C1569 1.393 . S
C1571 C1570 1.392 . S
C1571 H1588 0.930 . S
C1572 C1570 1.386 . S
C1572 C1574 1.395 . S
C1572 H1589 0.930 . S
C1573 C1569 1.395 . S
C1573 C1574 1.379 . S
C1573 H1590 0.930 . S
C1574 C1572 1.395 . S
C1574 C1573 1.379 . S
C1574 H1591 0.930 . S
C1575 O1558 1.264 . S
C1575 O1559 1.254 . S
C1576 Eu1512 2.848 . S
C1576 O1556 1.257 . S
C1576 O1561 1.249 . S
C1576 C1569 1.492 . S
C1577 H1542 0.931 . S
C1577 C1555 1.420 . S
C1577 C1578 1.351 . S
C1578 H1540 0.930 . S
C1578 C1546 1.423 . S
C1578 C1577 1.351 . S
C1579 O1563 1.276 . S
C1579 O1566 1.235 . S
C1580 C1581 1.393 . S
C1580 C1584 1.395 . S
C1580 C1587 1.492 . S
C1581 C1580 1.393 . S
C1581 C1582 1.392 . S
C1581 H1592 0.930 . S
C1582 C1581 1.392 . S
C1582 C1583 1.386 . S
C1583 C1582 1.386 . S
C1583 C1585 1.395 . S
C1583 H1593 0.930 . S
C1584 C1580 1.395 . S
C1584 C1585 1.379 . S
C1584 H1594 0.930 . S
C1585 C1583 1.395 . S
C1585 C1584 1.379 . S
C1585 H1595 0.930 . S
C1586 O1564 1.264 . S
C1586 O1565 1.254 . S
C1587 Eu1523 2.848 . S
C1587 O1562 1.257 . S
C1587 O1567 1.249 . S
C1587 C1580 1.492 . S
H1588 C1571 0.930 . S
H1589 C1572 0.930 . S
H1590 C1573 0.930 . S
H1591 C1574 0.930 . S
H1592 C1581 0.930 . S
H1593 C1583 0.930 . S
H1594 C1584 0.930 . S
H1595 C1585 0.930 . S
Eu1596 N1627 2.660 . S
Eu1596 N1634 2.592 1_554 S
Eu1596 O1640 2.544 1_554 S
Eu1596 O1641 2.624 . S
Eu1596 O1643 2.360 . S
Eu1596 O1644 2.567 1_554 S
Eu1596 O1645 2.422 . S
Eu1596 O1647 2.387 . S
Eu1596 O1648 2.418 1_554 S
Eu1596 C1660 2.842 1_554 S
C1597 C1600 1.429 . S
C1597 C1601 1.411 . S
C1597 N1604 1.377 1_655 S
C1598 C1600 1.420 . S
C1598 C1602 1.423 . S
C1598 C1610 1.392 1_554 S
C1599 C1601 1.420 . S
C1599 C1602 1.351 . S
C1599 H1622 0.931 . S
C1600 C1597 1.429 . S
C1600 C1598 1.420 . S
C1600 N1608 1.362 . S
C1601 C1597 1.411 . S
C1601 C1599 1.420 . S
C1601 C1606 1.395 . S
C1602 C1598 1.423 . S
C1602 C1599 1.351 . S
C1602 H1614 0.930 . S
C1603 C1605 1.400 . S
C1603 C1606 1.386 1_455 S
C1603 H1615 0.930 . S
N1604 C1597 1.377 1_455 S
N1604 C1605 1.321 . S
N1604 Eu1607 2.609 . S
C1605 C1603 1.400 . S
C1605 N1604 1.321 . S
C1605 H1612 0.930 . S
C1606 C1601 1.395 . S
C1606 C1603 1.386 1_655 S
C1606 H1625 0.930 . S
Eu1607 N1604 2.609 . S
Eu1607 N1608 2.657 1_455 S
Eu1607 O1641 2.380 . S
Eu1607 O1642 2.432 . S
Eu1607 O1646 2.558 . S
Eu1607 O1647 2.612 . S
Eu1607 O1649 2.339 1_554 S
Eu1607 O1650 2.563 . S
Eu1607 O1651 2.419 1_455 S
Eu1607 C1671 2.848 1_455 S
N1608 C1600 1.362 . S
N1608 Eu1607 2.657 1_655 S
N1608 C1609 1.334 1_554 S
C1609 N1608 1.334 1_556 S
C1609 C1611 1.413 . S
C1609 H1616 0.929 . S
C1610 C1598 1.392 1_556 S
C1610 C1611 1.367 . S
C1610 H1618 0.930 . S
C1611 C1609 1.413 . S
C1611 C1610 1.367 . S
C1611 H1613 0.930 . S
H1612 C1605 0.930 . S
H1613 C1611 0.930 . S
H1614 C1602 0.930 . S
H1615 C1603 0.930 . S
H1616 C1609 0.929 . S
H1617 C1631 0.930 . S
H1618 C1610 0.930 . S
H1619 C1637 0.930 . S
H1620 C1628 0.929 . S
H1621 C1635 0.930 . S
H1622 C1599 0.931 . S
H1623 C1629 0.930 . S
H1624 C1662 0.930 1_554 S
H1625 C1606 0.930 . S
H1626 C1661 0.931 . S
N1627 Eu1596 2.660 . S
N1627 C1628 1.334 . S
N1627 C1632 1.362 . S
C1628 H1620 0.929 . S
C1628 N1627 1.334 . S
C1628 C1631 1.413 . S
C1629 H1623 0.930 . S
C1629 C1630 1.392 . S
C1629 C1631 1.367 . S
C1630 C1629 1.392 . S
C1630 C1632 1.420 . S
C1630 C1662 1.423 1_554 S
C1631 H1617 0.930 . S
C1631 C1628 1.413 . S
C1631 C1629 1.367 . S
C1632 N1627 1.362 . S
C1632 C1630 1.420 . S
C1632 C1636 1.429 1_554 S
H1633 C1638 0.930 . S
N1634 Eu1596 2.592 1_556 S
N1634 C1636 1.377 . S
N1634 C1637 1.321 . S
C1635 H1621 0.930 . S
C1635 C1637 1.400 . S
C1635 C1638 1.386 . S
C1636 C1632 1.429 1_556 S
C1636 N1634 1.377 . S
C1636 C1639 1.411 . S
C1637 H1619 0.930 . S
C1637 N1634 1.321 . S
C1637 C1635 1.400 . S
C1638 H1633 0.930 . S
C1638 C1635 1.386 . S
C1638 C1639 1.395 . S
C1639 C1636 1.411 . S
C1639 C1638 1.395 . S
C1639 C1661 1.420 . S
O1640 Eu1596 2.544 1_556 S
O1640 C1660 1.257 . S
O1641 Eu1596 2.624 . S
O1641 Eu1607 2.380 . S
O1641 C1652 1.276 . S
O1642 Eu1607 2.432 . S
O1642 C1659 1.264 . S
O1643 Eu1596 2.360 . S
O1643 C1659 1.254 . S
O1644 Eu1596 2.567 1_556 S
O1644 C1652 1.235 1_556 S
O1645 Eu1596 2.422 . S
O1645 C1660 1.249 1_554 S
O1646 Eu1607 2.558 . S
O1646 C1671 1.257 1_455 S
O1647 Eu1596 2.387 . S
O1647 Eu1607 2.612 . S
O1647 C1663 1.276 . S
O1648 Eu1596 2.418 1_556 S
O1648 C1670 1.264 . S
O1649 Eu1607 2.339 1_556 S
O1649 C1670 1.254 . S
O1650 Eu1607 2.563 . S
O1650 C1663 1.235 . S
O1651 Eu1607 2.419 1_655 S
O1651 C1671 1.249 . S
C1652 O1641 1.276 . S
C1652 O1644 1.235 1_554 S
C1653 C1655 1.393 . S
C1653 C1657 1.395 . S
C1653 C1660 1.492 . S
C1654 C1655 1.392 . S
C1654 C1656 1.386 . S
C1655 C1653 1.393 . S
C1655 C1654 1.392 . S
C1655 H1672 0.930 1_556 S
C1656 C1654 1.386 . S
C1656 C1658 1.395 . S
C1656 H1673 0.930 . S
C1657 C1653 1.395 . S
C1657 C1658 1.379 . S
C1657 H1674 0.930 . S
C1658 C1656 1.395 . S
C1658 C1657 1.379 . S
C1658 H1675 0.930 . S
C1659 O1642 1.264 . S
C1659 O1643 1.254 . S
C1660 Eu1596 2.842 1_556 S
C1660 O1640 1.257 . S
C1660 O1645 1.249 1_556 S
C1660 C1653 1.492 . S
C1661 H1626 0.931 . S
C1661 C1639 1.420 . S
C1661 C1662 1.351 . S
C1662 H1624 0.930 1_556 S
C1662 C1630 1.423 1_556 S
C1662 C1661 1.351 . S
C1663 O1647 1.276 . S
C1663 O1650 1.235 . S
C1664 C1665 1.393 . S
C1664 C1668 1.395 . S
C1664 C1671 1.492 . S
C1665 C1664 1.393 . S
C1665 C1666 1.392 . S
C1665 H1676 0.930 . S
C1666 C1665 1.392 . S
C1666 C1667 1.386 . S
C1667 C1666 1.386 . S
C1667 C1669 1.395 . S
C1667 H1677 0.930 . S
C1668 C1664 1.395 . S
C1668 C1669 1.379 . S
C1668 H1678 0.930 . S
C1669 C1667 1.395 . S
C1669 C1668 1.379 . S
C1669 H1679 0.930 . S
C1670 O1648 1.264 . S
C1670 O1649 1.254 . S
C1671 Eu1607 2.848 1_655 S
C1671 O1646 1.257 1_655 S
C1671 O1651 1.249 . S
C1671 C1664 1.492 . S
H1672 C1655 0.930 1_554 S
H1673 C1656 0.930 . S
H1674 C1657 0.930 . S
H1675 C1658 0.930 . S
H1676 C1665 0.930 . S
H1677 C1667 0.930 . S
H1678 C1668 0.930 . S
H1679 C1669 0.930 . S
C1680 C1681 1.369 . S
C1680 C1682 1.419 . S
C1680 H1684 0.930 . S
C1681 C1680 1.369 . S
C1681 C1690 1.429 1_556 S
C1682 C1680 1.419 . S
C1682 C1683 1.363 1_556 S
C1682 H1685 0.929 . S
C1683 C1682 1.363 1_554 S
C1683 C1689 1.428 . S
H1684 C1680 0.930 . S
H1685 C1682 0.929 . S
S1686 N1687 1.613 . S
S1686 N1688 1.610 1_655 S
N1687 S1686 1.613 . S
N1687 C1690 1.350 1_655 S
N1688 S1686 1.610 1_455 S
N1688 C1689 1.351 . S
C1689 C1683 1.428 . S
C1689 N1688 1.351 . S
C1689 C1690 1.434 . S
C1690 C1681 1.429 1_554 S
C1690 N1687 1.350 1_455 S
C1690 C1689 1.434 . S
C1691 C1692 1.369 . S
C1691 C1693 1.419 . S
C1691 H1695 0.930 . S
C1692 C1691 1.369 . S
C1692 C1701 1.429 . S
C1693 C1691 1.419 . S
C1693 C1694 1.363 . S
C1693 H1696 0.929 . S
C1694 C1693 1.363 . S
C1694 C1700 1.428 . S
H1695 C1691 0.930 . S
H1696 C1693 0.929 . S
S1697 N1698 1.613 . S
S1697 N1699 1.610 . S
N1698 S1697 1.613 . S
N1698 C1701 1.350 . S
N1699 S1697 1.610 . S
N1699 C1700 1.351 . S
C1700 C1694 1.428 . S
C1700 N1699 1.351 . S
C1700 C1701 1.434 . S
C1701 C1692 1.429 . S
C1701 N1698 1.350 . S
C1701 C1700 1.434 . S
C1702 C1703 1.369 . S
C1702 C1704 1.419 . S
C1702 H1706 0.930 . S
C1703 C1702 1.369 . S
C1703 C1712 1.429 . S
C1704 C1702 1.419 . S
C1704 C1705 1.363 . S
C1704 H1707 0.929 . S
C1705 C1704 1.363 . S
C1705 C1711 1.428 . S
H1706 C1702 0.930 . S
H1707 C1704 0.929 . S
S1708 N1709 1.613 . S
S1708 N1710 1.610 . S
N1709 S1708 1.613 . S
N1709 C1712 1.350 . S
N1710 S1708 1.610 . S
N1710 C1711 1.351 . S
C1711 C1705 1.428 . S
C1711 N1710 1.351 . S
C1711 C1712 1.434 . S
C1712 C1703 1.429 . S
C1712 N1709 1.350 . S
C1712 C1711 1.434 . S
C1713 C1714 1.369 . S
C1713 C1715 1.419 . S
C1713 H1717 0.930 . S
C1714 C1713 1.369 . S
C1714 C1723 1.429 . S
C1715 C1713 1.419 . S
C1715 C1716 1.363 . S
C1715 H1718 0.929 . S
C1716 C1715 1.363 . S
C1716 C1722 1.428 . S
H1717 C1713 0.930 . S
H1718 C1715 0.929 . S
S1719 N1720 1.613 . S
S1719 N1721 1.610 . S
N1720 S1719 1.613 . S
N1720 C1723 1.350 . S
N1721 S1719 1.610 . S
N1721 C1722 1.351 . S
C1722 C1716 1.428 . S
C1722 N1721 1.351 . S
C1722 C1723 1.434 . S
C1723 C1714 1.429 . S
C1723 N1720 1.350 . S
C1723 C1722 1.434 . S
C1724 C1725 1.369 . S
C1724 C1726 1.419 . S
C1724 H1728 0.930 1_455 S
C1725 C1724 1.369 . S
C1725 C1734 1.429 . S
C1726 C1724 1.419 . S
C1726 C1727 1.363 . S
C1726 H1729 0.929 . S
C1727 C1726 1.363 . S
C1727 C1733 1.428 . S
H1728 C1724 0.930 1_655 S
H1729 C1726 0.929 . S
S1730 N1731 1.613 . S
S1730 N1732 1.610 . S
N1731 S1730 1.613 . S
N1731 C1734 1.350 . S
N1732 S1730 1.610 . S
N1732 C1733 1.351 . S
C1733 C1727 1.428 . S
C1733 N1732 1.351 . S
C1733 C1734 1.434 . S
C1734 C1725 1.429 . S
C1734 N1731 1.350 . S
C1734 C1733 1.434 . S
C1735 C1736 1.369 . S
C1735 C1737 1.419 . S
C1735 H1739 0.930 . S
C1736 C1735 1.369 . S
C1736 C1745 1.429 . S
C1737 C1735 1.419 . S
C1737 C1738 1.363 . S
C1737 H1740 0.929 . S
C1738 C1737 1.363 . S
C1738 C1744 1.428 . S
H1739 C1735 0.930 . S
H1740 C1737 0.929 . S
S1741 N1742 1.613 . S
S1741 N1743 1.610 . S
N1742 S1741 1.613 . S
N1742 C1745 1.350 . S
N1743 S1741 1.610 . S
N1743 C1744 1.351 . S
C1744 C1738 1.428 . S
C1744 N1743 1.351 . S
C1744 C1745 1.434 . S
C1745 C1736 1.429 . S
C1745 N1742 1.350 . S
C1745 C1744 1.434 . S
C1746 C1747 1.369 . S
C1746 C1748 1.419 . S
C1746 H1750 0.930 . S
C1747 C1746 1.369 . S
C1747 C1756 1.429 . S
C1748 C1746 1.419 . S
C1748 C1749 1.363 . S
C1748 H1751 0.929 . S
C1749 C1748 1.363 . S
C1749 C1755 1.428 . S
H1750 C1746 0.930 . S
H1751 C1748 0.929 . S
S1752 N1753 1.613 . S
S1752 N1754 1.610 . S
N1753 S1752 1.613 . S
N1753 C1756 1.350 . S
N1754 S1752 1.610 . S
N1754 C1755 1.351 . S
C1755 C1749 1.428 . S
C1755 N1754 1.351 . S
C1755 C1756 1.434 . S
C1756 C1747 1.429 . S
C1756 N1753 1.350 . S
C1756 C1755 1.434 . S
C1757 C1758 1.369 . S
C1757 C1759 1.419 . S
C1757 H1761 0.930 . S
C1758 C1757 1.369 . S
C1758 C1767 1.429 . S
C1759 C1757 1.419 . S
C1759 C1760 1.363 . S
C1759 H1762 0.929 . S
C1760 C1759 1.363 . S
C1760 C1766 1.428 . S
H1761 C1757 0.930 . S
H1762 C1759 0.929 . S
S1763 N1764 1.613 . S
S1763 N1765 1.610 . S
N1764 S1763 1.613 . S
N1764 C1767 1.350 . S
N1765 S1763 1.610 . S
N1765 C1766 1.351 . S
C1766 C1760 1.428 . S
C1766 N1765 1.351 . S
C1766 C1767 1.434 . S
C1767 C1758 1.429 . S
C1767 N1764 1.350 . S
C1767 C1766 1.434 . S
C1768 C1769 1.369 . S
C1768 C1770 1.419 . S
C1768 H1772 0.930 . S
C1769 C1768 1.369 . S
C1769 C1778 1.429 . S
C1770 C1768 1.419 . S
C1770 C1771 1.363 . S
C1770 H1773 0.929 . S
C1771 C1770 1.363 . S
C1771 C1777 1.428 . S
H1772 C1768 0.930 . S
H1773 C1770 0.929 . S
S1774 N1775 1.613 . S
S1774 N1776 1.610 . S
N1775 S1774 1.613 . S
N1775 C1778 1.350 . S
N1776 S1774 1.610 . S
N1776 C1777 1.351 . S
C1777 C1771 1.428 . S
C1777 N1776 1.351 . S
C1777 C1778 1.434 . S
C1778 C1769 1.429 . S
C1778 N1775 1.350 . S
C1778 C1777 1.434 . S
C1779 C1780 1.369 . S
C1779 C1781 1.419 . S
C1779 H1783 0.930 . S
C1780 C1779 1.369 . S
C1780 C1789 1.429 . S
C1781 C1779 1.419 . S
C1781 C1782 1.363 . S
C1781 H1784 0.929 . S
C1782 C1781 1.363 . S
C1782 C1788 1.428 . S
H1783 C1779 0.930 . S
H1784 C1781 0.929 . S
S1785 N1786 1.613 . S
S1785 N1787 1.610 . S
N1786 S1785 1.613 . S
N1786 C1789 1.350 . S
N1787 S1785 1.610 . S
N1787 C1788 1.351 . S
C1788 C1782 1.428 . S
C1788 N1787 1.351 . S
C1788 C1789 1.434 . S
C1789 C1780 1.429 . S
C1789 N1786 1.350 . S
C1789 C1788 1.434 . S
C1790 C1791 1.369 . S
C1790 C1792 1.419 . S
C1790 H1794 0.930 . S
C1791 C1790 1.369 . S
C1791 C1800 1.429 . S
C1792 C1790 1.419 . S
C1792 C1793 1.363 . S
C1792 H1795 0.929 . S
C1793 C1792 1.363 . S
C1793 C1799 1.428 . S
H1794 C1790 0.930 . S
H1795 C1792 0.929 . S
S1796 N1797 1.613 . S
S1796 N1798 1.610 . S
N1797 S1796 1.613 . S
N1797 C1800 1.350 . S
N1798 S1796 1.610 . S
N1798 C1799 1.351 . S
C1799 C1793 1.428 . S
C1799 N1798 1.351 . S
C1799 C1800 1.434 . S
C1800 C1791 1.429 . S
C1800 N1797 1.350 . S
C1800 C1799 1.434 . S
C1801 C1802 1.369 . S
C1801 C1803 1.419 . S
C1801 H1805 0.930 . S
C1802 C1801 1.369 . S
C1802 C1811 1.429 . S
C1803 C1801 1.419 . S
C1803 C1804 1.363 . S
C1803 H1806 0.929 . S
C1804 C1803 1.363 . S
C1804 C1810 1.428 . S
H1805 C1801 0.930 . S
H1806 C1803 0.929 . S
S1807 N1808 1.613 . S
S1807 N1809 1.610 . S
N1808 S1807 1.613 . S
N1808 C1811 1.350 . S
N1809 S1807 1.610 . S
N1809 C1810 1.351 . S
C1810 C1804 1.428 . S
C1810 N1809 1.351 . S
C1810 C1811 1.434 . S
C1811 C1802 1.429 . S
C1811 N1808 1.350 . S
C1811 C1810 1.434 . S
C1812 C1813 1.369 . S
C1812 C1814 1.419 . S
C1812 H1816 0.930 . S
C1813 C1812 1.369 . S
C1813 C1822 1.429 . S
C1814 C1812 1.419 . S
C1814 C1815 1.363 . S
C1814 H1817 0.929 . S
C1815 C1814 1.363 . S
C1815 C1821 1.428 . S
H1816 C1812 0.930 . S
H1817 C1814 0.929 . S
S1818 N1819 1.613 . S
S1818 N1820 1.610 . S
N1819 S1818 1.613 . S
N1819 C1822 1.350 . S
N1820 S1818 1.610 . S
N1820 C1821 1.351 . S
C1821 C1815 1.428 . S
C1821 N1820 1.351 . S
C1821 C1822 1.434 . S
C1822 C1813 1.429 . S
C1822 N1819 1.350 . S
C1822 C1821 1.434 . S
C1823 C1824 1.369 . S
C1823 C1825 1.419 . S
C1823 H1827 0.930 . S
C1824 C1823 1.369 . S
C1824 C1833 1.429 . S
C1825 C1823 1.419 . S
C1825 C1826 1.363 . S
C1825 H1828 0.929 . S
C1826 C1825 1.363 . S
C1826 C1832 1.428 . S
H1827 C1823 0.930 . S
H1828 C1825 0.929 . S
S1829 N1830 1.613 . S
S1829 N1831 1.610 . S
N1830 S1829 1.613 . S
N1830 C1833 1.350 . S
N1831 S1829 1.610 . S
N1831 C1832 1.351 . S
C1832 C1826 1.428 . S
C1832 N1831 1.351 . S
C1832 C1833 1.434 . S
C1833 C1824 1.429 . S
C1833 N1830 1.350 . S
C1833 C1832 1.434 . S
C1834 C1835 1.369 . S
C1834 C1836 1.419 . S
C1834 H1838 0.930 . S
C1835 C1834 1.369 . S
C1835 C1844 1.429 . S
C1836 C1834 1.419 . S
C1836 C1837 1.363 . S
C1836 H1839 0.929 . S
C1837 C1836 1.363 . S
C1837 C1843 1.428 . S
H1838 C1834 0.930 . S
H1839 C1836 0.929 . S
S1840 N1841 1.613 . S
S1840 N1842 1.610 . S
N1841 S1840 1.613 . S
N1841 C1844 1.350 . S
N1842 S1840 1.610 . S
N1842 C1843 1.351 . S
C1843 C1837 1.428 . S
C1843 N1842 1.351 . S
C1843 C1844 1.434 . S
C1844 C1835 1.429 . S
C1844 N1841 1.350 . S
C1844 C1843 1.434 . S
C1845 C1846 1.369 . S
C1845 C1847 1.419 . S
C1845 H1849 0.930 . S
C1846 C1845 1.369 . S
C1846 C1855 1.429 . S
C1847 C1845 1.419 . S
C1847 C1848 1.363 . S
C1847 H1850 0.929 . S
C1848 C1847 1.363 . S
C1848 C1854 1.428 . S
H1849 C1845 0.930 . S
H1850 C1847 0.929 . S
S1851 N1852 1.613 . S
S1851 N1853 1.610 . S
N1852 S1851 1.613 . S
N1852 C1855 1.350 . S
N1853 S1851 1.610 . S
N1853 C1854 1.351 . S
C1854 C1848 1.428 . S
C1854 N1853 1.351 . S
C1854 C1855 1.434 . S
C1855 C1846 1.429 . S
C1855 N1852 1.350 . S
C1855 C1854 1.434 . S
C1856 C1857 1.369 1_545 S
C1856 C1858 1.419 . S
C1856 H1860 0.930 . S
C1857 C1856 1.369 1_565 S
C1857 C1866 1.429 1_554 S
C1858 C1856 1.419 . S
C1858 C1859 1.363 . S
C1858 H1861 0.929 . S
C1859 C1858 1.363 . S
C1859 C1865 1.428 1_545 S
H1860 C1856 0.930 . S
H1861 C1858 0.929 . S
S1862 N1863 1.613 . S
S1862 N1864 1.610 . S
N1863 S1862 1.613 . S
N1863 C1866 1.350 . S
N1864 S1862 1.610 . S
N1864 C1865 1.351 1_556 S
C1865 C1859 1.428 1_565 S
C1865 N1864 1.351 1_554 S
C1865 C1866 1.434 1_554 S
C1866 C1857 1.429 1_556 S
C1866 N1863 1.350 . S
C1866 C1865 1.434 1_556 S
C1867 C1868 1.369 . S
C1867 C1869 1.419 . S
C1867 H1871 0.930 . S
C1868 C1867 1.369 . S
C1868 C1877 1.429 . S
C1869 C1867 1.419 . S
C1869 C1870 1.363 . S
C1869 H1872 0.929 . S
C1870 C1869 1.363 . S
C1870 C1876 1.428 . S
H1871 C1867 0.930 . S
H1872 C1869 0.929 . S
S1873 N1874 1.613 . S
S1873 N1875 1.610 . S
N1874 S1873 1.613 . S
N1874 C1877 1.350 . S
N1875 S1873 1.610 . S
N1875 C1876 1.351 . S
C1876 C1870 1.428 . S
C1876 N1875 1.351 . S
C1876 C1877 1.434 . S
C1877 C1868 1.429 . S
C1877 N1874 1.350 . S
C1877 C1876 1.434 . S
C1878 C1879 1.369 . S
C1878 C1880 1.419 . S
C1878 H1882 0.930 . S
C1879 C1878 1.369 . S
C1879 C1888 1.429 . S
C1880 C1878 1.419 . S
C1880 C1881 1.363 . S
C1880 H1883 0.929 . S
C1881 C1880 1.363 . S
C1881 C1887 1.428 . S
H1882 C1878 0.930 . S
H1883 C1880 0.929 . S
S1884 N1885 1.613 . S
S1884 N1886 1.610 . S
N1885 S1884 1.613 . S
N1885 C1888 1.350 . S
N1886 S1884 1.610 . S
N1886 C1887 1.351 . S
C1887 C1881 1.428 . S
C1887 N1886 1.351 . S
C1887 C1888 1.434 . S
C1888 C1879 1.429 . S
C1888 N1885 1.350 . S
C1888 C1887 1.434 . S
C1889 C1890 1.369 . S
C1889 C1891 1.419 . S
C1889 H1893 0.930 . S
C1890 C1889 1.369 . S
C1890 C1899 1.429 . S
C1891 C1889 1.419 . S
C1891 C1892 1.363 1_655 S
C1891 H1894 0.929 . S
C1892 C1891 1.363 1_455 S
C1892 C1898 1.428 1_455 S
H1893 C1889 0.930 . S
H1894 C1891 0.929 . S
S1895 N1896 1.613 . S
S1895 N1897 1.610 . S
N1896 S1895 1.613 . S
N1896 C1899 1.350 . S
N1897 S1895 1.610 . S
N1897 C1898 1.351 . S
C1898 C1892 1.428 1_655 S
C1898 N1897 1.351 . S
C1898 C1899 1.434 . S
C1899 C1890 1.429 . S
C1899 N1896 1.350 . S
C1899 C1898 1.434 . S
C1900 C1901 1.369 . S
C1900 C1902 1.419 . S
C1900 H1904 0.930 . S
C1901 C1900 1.369 . S
C1901 C1910 1.429 . S
C1902 C1900 1.419 . S
C1902 C1903 1.363 . S
C1902 H1905 0.929 . S
C1903 C1902 1.363 . S
C1903 C1909 1.428 . S
H1904 C1900 0.930 . S
H1905 C1902 0.929 . S
S1906 N1907 1.613 . S
S1906 N1908 1.610 . S
N1907 S1906 1.613 . S
N1907 C1910 1.350 . S
N1908 S1906 1.610 . S
N1908 C1909 1.351 . S
C1909 C1903 1.428 . S
C1909 N1908 1.351 . S
C1909 C1910 1.434 . S
C1910 C1901 1.429 . S
C1910 N1907 1.350 . S
C1910 C1909 1.434 . S
C1911 C1912 1.369 . S
C1911 C1913 1.419 . S
C1911 H1915 0.930 . S
C1912 C1911 1.369 . S
C1912 C1921 1.429 . S
C1913 C1911 1.419 . S
C1913 C1914 1.363 . S
C1913 H1916 0.929 . S
C1914 C1913 1.363 . S
C1914 C1920 1.428 . S
H1915 C1911 0.930 . S
H1916 C1913 0.929 . S
S1917 N1918 1.613 . S
S1917 N1919 1.610 . S
N1918 S1917 1.613 . S
N1918 C1921 1.350 . S
N1919 S1917 1.610 . S
N1919 C1920 1.351 . S
C1920 C1914 1.428 . S
C1920 N1919 1.351 . S
C1920 C1921 1.434 . S
C1921 C1912 1.429 . S
C1921 N1918 1.350 . S
C1921 C1920 1.434 . S
C1922 C1923 1.369 . S
C1922 C1924 1.419 . S
C1922 H1926 0.930 . S
C1923 C1922 1.369 . S
C1923 C1932 1.429 . S
C1924 C1922 1.419 . S
C1924 C1925 1.363 . S
C1924 H1927 0.929 . S
C1925 C1924 1.363 . S
C1925 C1931 1.428 . S
H1926 C1922 0.930 . S
H1927 C1924 0.929 . S
S1928 N1929 1.613 . S
S1928 N1930 1.610 . S
N1929 S1928 1.613 . S
N1929 C1932 1.350 . S
N1930 S1928 1.610 . S
N1930 C1931 1.351 . S
C1931 C1925 1.428 . S
C1931 N1930 1.351 . S
C1931 C1932 1.434 . S
C1932 C1923 1.429 . S
C1932 N1929 1.350 . S
C1932 C1931 1.434 . S
C1933 C1934 1.369 . S
C1933 C1935 1.419 . S
C1933 H1937 0.930 . S
C1934 C1933 1.369 . S
C1934 C1943 1.429 . S
C1935 C1933 1.419 . S
C1935 C1936 1.363 . S
C1935 H1938 0.929 . S
C1936 C1935 1.363 . S
C1936 C1942 1.428 . S
H1937 C1933 0.930 . S
H1938 C1935 0.929 . S
S1939 N1940 1.613 . S
S1939 N1941 1.610 . S
N1940 S1939 1.613 . S
N1940 C1943 1.350 . S
N1941 S1939 1.610 . S
N1941 C1942 1.351 . S
C1942 C1936 1.428 . S
C1942 N1941 1.351 . S
C1942 C1943 1.434 . S
C1943 C1934 1.429 . S
C1943 N1940 1.350 . S
C1943 C1942 1.434 . S
C1944 C1945 1.369 . S
C1944 C1946 1.419 . S
C1944 H1948 0.930 . S
C1945 C1944 1.369 . S
C1945 C1954 1.429 . S
C1946 C1944 1.419 . S
C1946 C1947 1.363 . S
C1946 H1949 0.929 . S
C1947 C1946 1.363 . S
C1947 C1953 1.428 . S
H1948 C1944 0.930 . S
H1949 C1946 0.929 . S
S1950 N1951 1.613 . S
S1950 N1952 1.610 . S
N1951 S1950 1.613 . S
N1951 C1954 1.350 . S
N1952 S1950 1.610 . S
N1952 C1953 1.351 . S
C1953 C1947 1.428 . S
C1953 N1952 1.351 . S
C1953 C1954 1.434 . S
C1954 C1945 1.429 . S
C1954 N1951 1.350 . S
C1954 C1953 1.434 . S
C1955 C1956 1.369 . S
C1955 C1957 1.419 . S
C1955 H1959 0.930 . S
C1956 C1955 1.369 . S
C1956 C1965 1.429 . S
C1957 C1955 1.419 . S
C1957 C1958 1.363 . S
C1957 H1960 0.929 . S
C1958 C1957 1.363 . S
C1958 C1964 1.428 . S
H1959 C1955 0.930 . S
H1960 C1957 0.929 . S
S1961 N1962 1.613 . S
S1961 N1963 1.610 . S
N1962 S1961 1.613 . S
N1962 C1965 1.350 . S
N1963 S1961 1.610 . S
N1963 C1964 1.351 . S
C1964 C1958 1.428 . S
C1964 N1963 1.351 . S
C1964 C1965 1.434 . S
C1965 C1956 1.429 . S
C1965 N1962 1.350 . S
C1965 C1964 1.434 . S
C1966 C1967 1.369 . S
C1966 C1968 1.419 . S
C1966 H1970 0.930 . S
C1967 C1966 1.369 . S
C1967 C1976 1.429 . S
C1968 C1966 1.419 . S
C1968 C1969 1.363 . S
C1968 H1971 0.929 . S
C1969 C1968 1.363 . S
C1969 C1975 1.428 . S
H1970 C1966 0.930 . S
H1971 C1968 0.929 . S
S1972 N1973 1.613 . S
S1972 N1974 1.610 . S
N1973 S1972 1.613 . S
N1973 C1976 1.350 . S
N1974 S1972 1.610 . S
N1974 C1975 1.351 . S
C1975 C1969 1.428 . S
C1975 N1974 1.351 . S
C1975 C1976 1.434 . S
C1976 C1967 1.429 . S
C1976 N1973 1.350 . S
C1976 C1975 1.434 . S
C1977 C1978 1.369 . S
C1977 C1979 1.419 . S
C1977 H1981 0.930 . S
C1978 C1977 1.369 . S
C1978 C1987 1.429 . S
C1979 C1977 1.419 . S
C1979 C1980 1.363 . S
C1979 H1982 0.929 . S
C1980 C1979 1.363 . S
C1980 C1986 1.428 . S
H1981 C1977 0.930 . S
H1982 C1979 0.929 . S
S1983 N1984 1.613 . S
S1983 N1985 1.610 . S
N1984 S1983 1.613 . S
N1984 C1987 1.350 . S
N1985 S1983 1.610 . S
N1985 C1986 1.351 . S
C1986 C1980 1.428 . S
C1986 N1985 1.351 . S
C1986 C1987 1.434 . S
C1987 C1978 1.429 . S
C1987 N1984 1.350 . S
C1987 C1986 1.434 . S
C1988 C1989 1.369 . S
C1988 C1990 1.419 . S
C1988 H1992 0.930 . S
C1989 C1988 1.369 . S
C1989 C1998 1.429 . S
C1990 C1988 1.419 . S
C1990 C1991 1.363 . S
C1990 H1993 0.929 . S
C1991 C1990 1.363 . S
C1991 C1997 1.428 . S
H1992 C1988 0.930 . S
H1993 C1990 0.929 . S
S1994 N1995 1.613 . S
S1994 N1996 1.610 . S
N1995 S1994 1.613 . S
N1995 C1998 1.350 . S
N1996 S1994 1.610 . S
N1996 C1997 1.351 . S
C1997 C1991 1.428 . S
C1997 N1996 1.351 . S
C1997 C1998 1.434 . S
C1998 C1989 1.429 . S
C1998 N1995 1.350 . S
C1998 C1997 1.434 . S
C1999 C2000 1.369 . S
C1999 C2001 1.419 . S
C1999 H2003 0.930 . S
C2000 C1999 1.369 . S
C2000 C2009 1.429 . S
C2001 C1999 1.419 . S
C2001 C2002 1.363 . S
C2001 H2004 0.929 . S
C2002 C2001 1.363 . S
C2002 C2008 1.428 . S
H2003 C1999 0.930 . S
H2004 C2001 0.929 . S
S2005 N2006 1.613 . S
S2005 N2007 1.610 . S
N2006 S2005 1.613 . S
N2006 C2009 1.350 . S
N2007 S2005 1.610 . S
N2007 C2008 1.351 . S
C2008 C2002 1.428 . S
C2008 N2007 1.351 . S
C2008 C2009 1.434 . S
C2009 C2000 1.429 . S
C2009 N2006 1.350 . S
C2009 C2008 1.434 . S
C2010 C2011 1.369 . S
C2010 C2012 1.419 . S
C2010 H2014 0.930 . S
C2011 C2010 1.369 . S
C2011 C2020 1.429 . S
C2012 C2010 1.419 . S
C2012 C2013 1.363 . S
C2012 H2015 0.929 . S
C2013 C2012 1.363 . S
C2013 C2019 1.428 . S
H2014 C2010 0.930 . S
H2015 C2012 0.929 . S
S2016 N2017 1.613 1_545 S
S2016 N2018 1.610 . S
N2017 S2016 1.613 1_565 S
N2017 C2020 1.350 . S
N2018 S2016 1.610 . S
N2018 C2019 1.351 1_545 S
C2019 C2013 1.428 . S
C2019 N2018 1.351 1_565 S
C2019 C2020 1.434 . S
C2020 C2011 1.429 . S
C2020 N2017 1.350 . S
C2020 C2019 1.434 . S
C2021 C2022 1.369 . S
C2021 C2023 1.419 . S
C2021 H2025 0.930 . S
C2022 C2021 1.369 . S
C2022 C2031 1.429 . S
C2023 C2021 1.419 . S
C2023 C2024 1.363 . S
C2023 H2026 0.929 . S
C2024 C2023 1.363 . S
C2024 C2030 1.428 . S
H2025 C2021 0.930 . S
H2026 C2023 0.929 . S
S2027 N2028 1.613 . S
S2027 N2029 1.610 . S
N2028 S2027 1.613 . S
N2028 C2031 1.350 . S
N2029 S2027 1.610 . S
N2029 C2030 1.351 . S
C2030 C2024 1.428 . S
C2030 N2029 1.351 . S
C2030 C2031 1.434 . S
C2031 C2022 1.429 . S
C2031 N2028 1.350 . S
C2031 C2030 1.434 . S
C2032 C2033 1.369 . S
C2032 C2034 1.419 . S
C2032 H2036 0.930 . S
C2033 C2032 1.369 . S
C2033 C2042 1.429 1_545 S
C2034 C2032 1.419 . S
C2034 C2035 1.363 . S
C2034 H2037 0.929 . S
C2035 C2034 1.363 . S
C2035 C2041 1.428 1_545 S
H2036 C2032 0.930 . S
H2037 C2034 0.929 . S
S2038 N2039 1.613 . S
S2038 N2040 1.610 . S
N2039 S2038 1.613 . S
N2039 C2042 1.350 . S
N2040 S2038 1.610 . S
N2040 C2041 1.351 . S
C2041 C2035 1.428 1_565 S
C2041 N2040 1.351 . S
C2041 C2042 1.434 . S
C2042 C2033 1.429 1_565 S
C2042 N2039 1.350 . S
C2042 C2041 1.434 . S
C2043 C2044 1.369 . S
C2043 C2045 1.419 . S
C2043 H2047 0.930 . S
C2044 C2043 1.369 . S
C2044 C2053 1.429 . S
C2045 C2043 1.419 . S
C2045 C2046 1.363 . S
C2045 H2048 0.929 . S
C2046 C2045 1.363 . S
C2046 C2052 1.428 . S
H2047 C2043 0.930 . S
H2048 C2045 0.929 . S
S2049 N2050 1.613 . S
S2049 N2051 1.610 . S
N2050 S2049 1.613 . S
N2050 C2053 1.350 . S
N2051 S2049 1.610 . S
N2051 C2052 1.351 . S
C2052 C2046 1.428 . S
C2052 N2051 1.351 . S
C2052 C2053 1.434 . S
C2053 C2044 1.429 . S
C2053 N2050 1.350 . S
C2053 C2052 1.434 . S
C2054 C2055 1.369 1_565 S
C2054 C2056 1.419 1_565 S
C2054 H2058 0.930 . S
C2055 C2054 1.369 1_545 S
C2055 C2064 1.429 . S
C2056 C2054 1.419 1_545 S
C2056 C2057 1.363 . S
C2056 H2059 0.929 1_545 S
C2057 C2056 1.363 . S
C2057 C2063 1.428 . S
H2058 C2054 0.930 . S
H2059 C2056 0.929 1_565 S
S2060 N2061 1.613 . S
S2060 N2062 1.610 . S
N2061 S2060 1.613 . S
N2061 C2064 1.350 . S
N2062 S2060 1.610 . S
N2062 C2063 1.351 . S
C2063 C2057 1.428 . S
C2063 N2062 1.351 . S
C2063 C2064 1.434 . S
C2064 C2055 1.429 . S
C2064 N2061 1.350 . S
C2064 C2063 1.434 . S
C2065 C2066 1.369 . S
C2065 C2067 1.419 . S
C2065 H2069 0.930 . S
C2066 C2065 1.369 . S
C2066 C2075 1.429 . S
C2067 C2065 1.419 . S
C2067 C2068 1.363 . S
C2067 H2070 0.929 . S
C2068 C2067 1.363 . S
C2068 C2074 1.428 . S
H2069 C2065 0.930 . S
H2070 C2067 0.929 . S
S2071 N2072 1.613 . S
S2071 N2073 1.610 . S
N2072 S2071 1.613 . S
N2072 C2075 1.350 . S
N2073 S2071 1.610 . S
N2073 C2074 1.351 . S
C2074 C2068 1.428 . S
C2074 N2073 1.351 . S
C2074 C2075 1.434 . S
C2075 C2066 1.429 . S
C2075 N2072 1.350 . S
C2075 C2074 1.434 . S
C2076 C2077 1.369 . S
C2076 C2078 1.419 . S
C2076 H2080 0.930 . S
C2077 C2076 1.369 . S
C2077 C2086 1.429 1_565 S
C2078 C2076 1.419 . S
C2078 C2079 1.363 1_565 S
C2078 H2081 0.929 . S
C2079 C2078 1.363 1_545 S
C2079 C2085 1.428 . S
H2080 C2076 0.930 . S
H2081 C2078 0.929 . S
S2082 N2083 1.613 . S
S2082 N2084 1.610 . S
N2083 S2082 1.613 . S
N2083 C2086 1.350 . S
N2084 S2082 1.610 . S
N2084 C2085 1.351 . S
C2085 C2079 1.428 . S
C2085 N2084 1.351 . S
C2085 C2086 1.434 . S
C2086 C2077 1.429 1_545 S
C2086 N2083 1.350 . S
C2086 C2085 1.434 . S
C2087 C2088 1.369 . S
C2087 C2089 1.419 . S
C2087 H2091 0.930 . S
C2088 C2087 1.369 . S
C2088 C2097 1.429 . S
C2089 C2087 1.419 . S
C2089 C2090 1.363 . S
C2089 H2092 0.929 . S
C2090 C2089 1.363 . S
C2090 C2096 1.428 . S
H2091 C2087 0.930 . S
H2092 C2089 0.929 . S
S2093 N2094 1.613 . S
S2093 N2095 1.610 . S
N2094 S2093 1.613 . S
N2094 C2097 1.350 . S
N2095 S2093 1.610 . S
N2095 C2096 1.351 . S
C2096 C2090 1.428 . S
C2096 N2095 1.351 . S
C2096 C2097 1.434 . S
C2097 C2088 1.429 . S
C2097 N2094 1.350 . S
C2097 C2096 1.434 . S
C2098 C2099 1.360 1_565 S
C2098 C2100 1.419 . S
C2098 H2102 0.930 . S
C2099 C2098 1.360 1_545 S
C2099 C2108 1.442 . S
C2100 C2098 1.419 . S
C2100 C2101 1.363 1_565 S
C2100 H2103 0.929 . S
C2101 C2100 1.363 1_545 S
C2101 C2107 1.428 . S
H2102 C2098 0.930 . S
H2103 C2100 0.929 . S
S2104 N2105 1.613 . S
S2104 N2106 1.610 . S
N2105 S2104 1.613 . S
N2105 C2108 1.350 . S
N2106 S2104 1.610 . S
N2106 C2107 1.351 . S
C2107 C2101 1.428 . S
C2107 N2106 1.351 . S
C2107 C2108 1.434 . S
C2108 C2099 1.442 . S
C2108 N2105 1.350 . S
C2108 C2107 1.434 . S
C2109 C2110 1.369 . S
C2109 C2111 1.419 . S
C2109 H2113 0.930 . S
C2110 C2109 1.369 . S
C2110 C2119 1.429 . S
C2111 C2109 1.419 . S
C2111 C2112 1.363 . S
C2111 H2114 0.929 . S
C2112 C2111 1.363 . S
C2112 C2118 1.428 . S
H2113 C2109 0.930 . S
H2114 C2111 0.929 . S
S2115 N2116 1.613 . S
S2115 N2117 1.610 . S
N2116 S2115 1.613 . S
N2116 C2119 1.350 . S
N2117 S2115 1.610 . S
N2117 C2118 1.351 . S
C2118 C2112 1.428 . S
C2118 N2117 1.351 . S
C2118 C2119 1.434 . S
C2119 C2110 1.429 . S
C2119 N2116 1.350 . S
C2119 C2118 1.434 . S
C2120 C2121 1.369 . S
C2120 C2122 1.419 . S
C2120 H2124 0.930 . S
C2121 C2120 1.369 . S
C2121 C2130 1.429 . S
C2122 C2120 1.419 . S
C2122 C2123 1.363 . S
C2122 H2125 0.929 . S
C2123 C2122 1.363 . S
C2123 C2129 1.428 . S
H2124 C2120 0.930 . S
H2125 C2122 0.929 . S
S2126 N2127 1.613 . S
S2126 N2128 1.610 . S
N2127 S2126 1.613 . S
N2127 C2130 1.350 . S
N2128 S2126 1.610 . S
N2128 C2129 1.351 . S
C2129 C2123 1.428 . S
C2129 N2128 1.351 . S
C2129 C2130 1.434 . S
C2130 C2121 1.429 . S
C2130 N2127 1.350 . S
C2130 C2129 1.434 . S
C2131 C2132 1.369 . S
C2131 C2133 1.419 . S
C2131 H2135 0.930 . S
C2132 C2131 1.369 . S
C2132 C2141 1.429 . S
C2133 C2131 1.419 . S
C2133 C2134 1.363 . S
C2133 H2136 0.929 . S
C2134 C2133 1.363 . S
C2134 C2140 1.428 . S
H2135 C2131 0.930 . S
H2136 C2133 0.929 . S
S2137 N2138 1.613 . S
S2137 N2139 1.610 . S
N2138 S2137 1.613 . S
N2138 C2141 1.350 . S
N2139 S2137 1.610 . S
N2139 C2140 1.351 . S
C2140 C2134 1.428 . S
C2140 N2139 1.351 . S
C2140 C2141 1.434 . S
C2141 C2132 1.429 . S
C2141 N2138 1.350 . S
C2141 C2140 1.434 . S
C2142 C2143 1.369 . S
C2142 C2144 1.419 . S
C2142 H2146 0.930 . S
C2143 C2142 1.369 . S
C2143 C2152 1.429 . S
C2144 C2142 1.419 . S
C2144 C2145 1.363 . S
C2144 H2147 0.929 . S
C2145 C2144 1.363 . S
C2145 C2151 1.428 . S
H2146 C2142 0.930 . S
H2147 C2144 0.929 . S
S2148 N2149 1.613 . S
S2148 N2150 1.610 . S
N2149 S2148 1.613 . S
N2149 C2152 1.350 . S
N2150 S2148 1.610 . S
N2150 C2151 1.351 . S
C2151 C2145 1.428 . S
C2151 N2150 1.351 . S
C2151 C2152 1.434 . S
C2152 C2143 1.429 . S
C2152 N2149 1.350 . S
C2152 C2151 1.434 . S
C2153 C2154 1.369 . S
C2153 C2155 1.419 . S
C2153 H2157 0.930 . S
C2154 C2153 1.369 . S
C2154 C2163 1.429 . S
C2155 C2153 1.419 . S
C2155 C2156 1.363 . S
C2155 H2158 0.929 . S
C2156 C2155 1.363 . S
C2156 C2162 1.428 . S
H2157 C2153 0.930 . S
H2158 C2155 0.929 . S
S2159 N2160 1.613 . S
S2159 N2161 1.610 . S
N2160 S2159 1.613 . S
N2160 C2163 1.350 . S
N2161 S2159 1.610 . S
N2161 C2162 1.351 . S
C2162 C2156 1.428 . S
C2162 N2161 1.351 . S
C2162 C2163 1.434 . S
C2163 C2154 1.429 . S
C2163 N2160 1.350 . S
C2163 C2162 1.434 . S
C2164 C2165 1.369 . S
C2164 C2166 1.419 . S
C2164 H2168 0.930 . S
C2165 C2164 1.369 . S
C2165 C2174 1.429 1_565 S
C2166 C2164 1.419 . S
C2166 C2167 1.363 . S
C2166 H2169 0.929 . S
C2167 C2166 1.363 . S
C2167 C2173 1.428 1_565 S
H2168 C2164 0.930 . S
H2169 C2166 0.929 . S
S2170 N2171 1.613 . S
S2170 N2172 1.610 . S
N2171 S2170 1.613 . S
N2171 C2174 1.350 . S
N2172 S2170 1.610 . S
N2172 C2173 1.351 . S
C2173 C2167 1.428 1_545 S
C2173 N2172 1.351 . S
C2173 C2174 1.434 . S
C2174 C2165 1.429 1_545 S
C2174 N2171 1.350 . S
C2174 C2173 1.434 . S
C2175 C2176 1.369 . S
C2175 C2177 1.419 . S
C2175 H2179 0.930 . S
C2176 C2175 1.369 . S
C2176 C2185 1.429 . S
C2177 C2175 1.419 . S
C2177 C2178 1.363 . S
C2177 H2180 0.929 . S
C2178 C2177 1.363 . S
C2178 C2184 1.428 . S
H2179 C2175 0.930 . S
H2180 C2177 0.929 . S
S2181 N2182 1.613 . S
S2181 N2183 1.610 . S
N2182 S2181 1.613 . S
N2182 C2185 1.350 . S
N2183 S2181 1.610 . S
N2183 C2184 1.351 . S
C2184 C2178 1.428 . S
C2184 N2183 1.351 . S
C2184 C2185 1.434 . S
C2185 C2176 1.429 . S
C2185 N2182 1.350 . S
C2185 C2184 1.434 . S
C2186 C2187 1.369 . S
C2186 C2188 1.419 . S
C2186 H2190 0.930 . S
C2187 C2186 1.369 . S
C2187 C2196 1.429 . S
C2188 C2186 1.419 . S
C2188 C2189 1.363 . S
C2188 H2191 0.929 . S
C2189 C2188 1.363 . S
C2189 C2195 1.428 . S
H2190 C2186 0.930 . S
H2191 C2188 0.929 . S
S2192 N2193 1.613 . S
S2192 N2194 1.610 . S
N2193 S2192 1.613 . S
N2193 C2196 1.350 . S
N2194 S2192 1.610 . S
N2194 C2195 1.351 . S
C2195 C2189 1.428 . S
C2195 N2194 1.351 . S
C2195 C2196 1.434 . S
C2196 C2187 1.429 . S
C2196 N2193 1.350 . S
C2196 C2195 1.434 . S
C2197 C2198 1.369 . S
C2197 C2199 1.419 . S
C2197 H2201 0.930 . S
C2198 C2197 1.369 . S
C2198 C2207 1.429 . S
C2199 C2197 1.419 . S
C2199 C2200 1.363 . S
C2199 H2202 0.929 . S
C2200 C2199 1.363 . S
C2200 C2206 1.428 . S
H2201 C2197 0.930 . S
H2202 C2199 0.929 . S
S2203 N2204 1.613 . S
S2203 N2205 1.610 . S
N2204 S2203 1.613 . S
N2204 C2207 1.350 . S
N2205 S2203 1.610 . S
N2205 C2206 1.351 . S
C2206 C2200 1.428 . S
C2206 N2205 1.351 . S
C2206 C2207 1.434 . S
C2207 C2198 1.429 . S
C2207 N2204 1.350 . S
C2207 C2206 1.434 . S
C2208 C2209 1.369 . S
C2208 C2210 1.419 . S
C2208 H2212 0.930 . S
C2209 C2208 1.369 . S
C2209 C2218 1.429 . S
C2210 C2208 1.419 . S
C2210 C2211 1.363 . S
C2210 H2213 0.929 . S
C2211 C2210 1.363 . S
C2211 C2217 1.428 . S
H2212 C2208 0.930 . S
H2213 C2210 0.929 . S
S2214 N2215 1.613 . S
S2214 N2216 1.610 . S
N2215 S2214 1.613 . S
N2215 C2218 1.350 . S
N2216 S2214 1.610 . S
N2216 C2217 1.351 . S
C2217 C2211 1.428 . S
C2217 N2216 1.351 . S
C2217 C2218 1.434 . S
C2218 C2209 1.429 . S
C2218 N2215 1.350 . S
C2218 C2217 1.434 . S
C2219 C2220 1.369 . S
C2219 C2221 1.419 . S
C2219 H2223 0.930 . S
C2220 C2219 1.369 . S
C2220 C2229 1.429 . S
C2221 C2219 1.419 . S
C2221 C2222 1.363 . S
C2221 H2224 0.929 . S
C2222 C2221 1.363 . S
C2222 C2228 1.428 . S
H2223 C2219 0.930 . S
H2224 C2221 0.929 . S
S2225 N2226 1.613 . S
S2225 N2227 1.610 . S
N2226 S2225 1.613 . S
N2226 C2229 1.350 . S
N2227 S2225 1.610 . S
N2227 C2228 1.351 . S
C2228 C2222 1.428 . S
C2228 N2227 1.351 . S
C2228 C2229 1.434 . S
C2229 C2220 1.429 . S
C2229 N2226 1.350 . S
C2229 C2228 1.434 . S
C2230 C2231 1.369 . S
C2230 C2232 1.419 . S
C2230 H2234 0.930 . S
C2231 C2230 1.369 . S
C2231 C2240 1.429 1_556 S
C2232 C2230 1.419 . S
C2232 C2233 1.363 1_556 S
C2232 H2235 0.929 . S
C2233 C2232 1.363 1_554 S
C2233 C2239 1.428 . S
H2234 C2230 0.930 . S
H2235 C2232 0.929 . S
S2236 N2237 1.613 . S
S2236 N2238 1.610 . S
N2237 S2236 1.613 . S
N2237 C2240 1.350 . S
N2238 S2236 1.610 . S
N2238 C2239 1.351 . S
C2239 C2233 1.428 . S
C2239 N2238 1.351 . S
C2239 C2240 1.434 . S
C2240 C2231 1.429 1_554 S
C2240 N2237 1.350 . S
C2240 C2239 1.434 . S
C2241 C2242 1.369 . S
C2241 C2243 1.419 1_455 S
C2241 H2245 0.930 . S
C2242 C2241 1.369 . S
C2242 C2251 1.429 . S
C2243 C2241 1.419 1_655 S
C2243 C2244 1.363 . S
C2243 H2246 0.929 . S
C2244 C2243 1.363 . S
C2244 C2250 1.428 1_655 S
H2245 C2241 0.930 . S
H2246 C2243 0.929 . S
S2247 N2248 1.613 . S
S2247 N2249 1.610 . S
N2248 S2247 1.613 . S
N2248 C2251 1.350 . S
N2249 S2247 1.610 . S
N2249 C2250 1.351 . S
C2250 C2244 1.428 1_455 S
C2250 N2249 1.351 . S
C2250 C2251 1.434 . S
C2251 C2242 1.429 . S
C2251 N2248 1.350 . S
C2251 C2250 1.434 . S
C2252 C2253 1.369 . S
C2252 C2254 1.419 . S
C2252 H2256 0.930 . S
C2253 C2252 1.369 . S
C2253 C2262 1.429 . S
C2254 C2252 1.419 . S
C2254 C2255 1.363 . S
C2254 H2257 0.929 . S
C2255 C2254 1.363 . S
C2255 C2261 1.428 . S
H2256 C2252 0.930 . S
H2257 C2254 0.929 . S
S2258 N2259 1.613 . S
S2258 N2260 1.610 . S
N2259 S2258 1.613 . S
N2259 C2262 1.350 . S
N2260 S2258 1.610 . S
N2260 C2261 1.351 . S
C2261 C2255 1.428 . S
C2261 N2260 1.351 . S
C2261 C2262 1.434 . S
C2262 C2253 1.429 . S
C2262 N2259 1.350 . S
C2262 C2261 1.434 . S
C2263 C2264 1.369 . S
C2263 C2265 1.419 . S
C2263 H2267 0.930 . S
C2264 C2263 1.369 . S
C2264 C2273 1.429 . S
C2265 C2263 1.419 . S
C2265 C2266 1.363 . S
C2265 H2268 0.929 . S
C2266 C2265 1.363 . S
C2266 C2272 1.428 . S
H2267 C2263 0.930 . S
H2268 C2265 0.929 . S
S2269 N2270 1.613 . S
S2269 N2271 1.610 . S
N2270 S2269 1.613 . S
N2270 C2273 1.350 . S
N2271 S2269 1.610 . S
N2271 C2272 1.351 . S
C2272 C2266 1.428 . S
C2272 N2271 1.351 . S
C2272 C2273 1.434 . S
C2273 C2264 1.429 . S
C2273 N2270 1.350 . S
C2273 C2272 1.434 . S
C2274 C2275 1.369 1_455 S
C2274 C2276 1.419 . S
C2274 H2278 0.930 . S
C2275 C2274 1.369 1_655 S
C2275 C2284 1.429 . S
C2276 C2274 1.419 . S
C2276 C2277 1.363 . S
C2276 H2279 0.929 . S
C2277 C2276 1.363 . S
C2277 C2283 1.428 . S
H2278 C2274 0.930 . S
H2279 C2276 0.929 . S
S2280 N2281 1.613 . S
S2280 N2282 1.610 . S
N2281 S2280 1.613 . S
N2281 C2284 1.350 . S
N2282 S2280 1.610 . S
N2282 C2283 1.351 1_655 S
C2283 C2277 1.428 . S
C2283 N2282 1.351 1_455 S
C2283 C2284 1.434 1_455 S
C2284 C2275 1.429 . S
C2284 N2281 1.350 . S
C2284 C2283 1.434 1_655 S
C2285 C2286 1.369 . S
C2285 C2287 1.419 . S
C2285 H2289 0.930 . S
C2286 C2285 1.369 . S
C2286 C2295 1.429 . S
C2287 C2285 1.419 . S
C2287 C2288 1.363 . S
C2287 H2290 0.929 . S
C2288 C2287 1.363 . S
C2288 C2294 1.428 . S
H2289 C2285 0.930 . S
H2290 C2287 0.929 . S
S2291 N2292 1.613 . S
S2291 N2293 1.610 . S
N2292 S2291 1.613 . S
N2292 C2295 1.350 . S
N2293 S2291 1.610 . S
N2293 C2294 1.351 . S
C2294 C2288 1.428 . S
C2294 N2293 1.351 . S
C2294 C2295 1.434 . S
C2295 C2286 1.429 . S
C2295 N2292 1.350 . S
C2295 C2294 1.434 . S
C2296 C2297 1.369 . S
C2296 C2298 1.419 . S
C2296 H2300 0.930 . S
C2297 C2296 1.369 . S
C2297 C2306 1.429 . S
C2298 C2296 1.419 . S
C2298 C2299 1.363 . S
C2298 H2301 0.929 . S
C2299 C2298 1.363 . S
C2299 C2305 1.428 . S
H2300 C2296 0.930 . S
H2301 C2298 0.929 . S
S2302 N2303 1.613 . S
S2302 N2304 1.610 . S
N2303 S2302 1.613 . S
N2303 C2306 1.350 . S
N2304 S2302 1.610 . S
N2304 C2305 1.351 . S
C2305 C2299 1.428 . S
C2305 N2304 1.351 . S
C2305 C2306 1.434 . S
C2306 C2297 1.429 . S
C2306 N2303 1.350 . S
C2306 C2305 1.434 . S
C2307 C2308 1.369 . S
C2307 C2309 1.419 . S
C2307 H2311 0.930 . S
C2308 C2307 1.369 . S
C2308 C2317 1.429 . S
C2309 C2307 1.419 . S
C2309 C2310 1.363 . S
C2309 H2312 0.929 . S
C2310 C2309 1.363 . S
C2310 C2316 1.428 . S
H2311 C2307 0.930 . S
H2312 C2309 0.929 . S
S2313 N2314 1.613 . S
S2313 N2315 1.610 1_554 S
N2314 S2313 1.613 . S
N2314 C2317 1.350 1_554 S
N2315 S2313 1.610 1_556 S
N2315 C2316 1.351 . S
C2316 C2310 1.428 . S
C2316 N2315 1.351 . S
C2316 C2317 1.434 . S
C2317 C2308 1.429 . S
C2317 N2314 1.350 1_556 S
C2317 C2316 1.434 . S
C2318 C2319 1.369 . S
C2318 C2320 1.419 . S
C2318 H2322 0.930 . S
C2319 C2318 1.369 . S
C2319 C2328 1.429 . S
C2320 C2318 1.419 . S
C2320 C2321 1.363 . S
C2320 H2323 0.929 . S
C2321 C2320 1.363 . S
C2321 C2327 1.428 . S
H2322 C2318 0.930 . S
H2323 C2320 0.929 . S
S2324 N2325 1.613 . S
S2324 N2326 1.610 . S
N2325 S2324 1.613 . S
N2325 C2328 1.350 . S
N2326 S2324 1.610 . S
N2326 C2327 1.351 . S
C2327 C2321 1.428 . S
C2327 N2326 1.351 . S
C2327 C2328 1.434 . S
C2328 C2319 1.429 . S
C2328 N2325 1.350 . S
C2328 C2327 1.434 . S
C2329 C2330 1.369 . S
C2329 C2331 1.419 . S
C2329 H2333 0.930 . S
C2330 C2329 1.369 . S
C2330 C2339 1.429 . S
C2331 C2329 1.419 . S
C2331 C2332 1.363 . S
C2331 H2334 0.929 . S
C2332 C2331 1.363 . S
C2332 C2338 1.428 . S
H2333 C2329 0.930 . S
H2334 C2331 0.929 . S
S2335 N2336 1.613 . S
S2335 N2337 1.610 . S
N2336 S2335 1.613 . S
N2336 C2339 1.350 . S
N2337 S2335 1.610 . S
N2337 C2338 1.351 . S
C2338 C2332 1.428 . S
C2338 N2337 1.351 . S
C2338 C2339 1.434 . S
C2339 C2330 1.429 . S
C2339 N2336 1.350 . S
C2339 C2338 1.434 . S
C2340 C2341 1.369 . S
C2340 C2342 1.419 . S
C2340 H2344 0.930 . S
C2341 C2340 1.369 . S
C2341 C2350 1.429 . S
C2342 C2340 1.419 . S
C2342 C2343 1.363 . S
C2342 H2345 0.929 . S
C2343 C2342 1.363 . S
C2343 C2349 1.428 . S
H2344 C2340 0.930 . S
H2345 C2342 0.929 . S
S2346 N2347 1.613 . S
S2346 N2348 1.610 . S
N2347 S2346 1.613 . S
N2347 C2350 1.350 . S
N2348 S2346 1.610 . S
N2348 C2349 1.351 . S
C2349 C2343 1.428 . S
C2349 N2348 1.351 . S
C2349 C2350 1.434 . S
C2350 C2341 1.429 . S
C2350 N2347 1.350 . S
C2350 C2349 1.434 . S
C2351 C2352 1.369 . S
C2351 C2353 1.419 . S
C2351 H2355 0.930 . S
C2352 C2351 1.369 . S
C2352 C2361 1.429 . S
C2353 C2351 1.419 . S
C2353 C2354 1.363 . S
C2353 H2356 0.929 . S
C2354 C2353 1.363 . S
C2354 C2360 1.428 . S
H2355 C2351 0.930 . S
H2356 C2353 0.929 . S
S2357 N2358 1.613 . S
S2357 N2359 1.610 . S
N2358 S2357 1.613 . S
N2358 C2361 1.350 . S
N2359 S2357 1.610 . S
N2359 C2360 1.351 . S
C2360 C2354 1.428 . S
C2360 N2359 1.351 . S
C2360 C2361 1.434 . S
C2361 C2352 1.429 . S
C2361 N2358 1.350 . S
C2361 C2360 1.434 . S
C2362 C2363 1.369 . S
C2362 C2364 1.419 . S
C2362 H2366 0.930 . S
C2363 C2362 1.369 . S
C2363 C2372 1.429 . S
C2364 C2362 1.419 . S
C2364 C2365 1.363 . S
C2364 H2367 0.929 . S
C2365 C2364 1.363 . S
C2365 C2371 1.428 . S
H2366 C2362 0.930 . S
H2367 C2364 0.929 . S
S2368 N2369 1.613 . S
S2368 N2370 1.610 . S
N2369 S2368 1.613 . S
N2369 C2372 1.350 . S
N2370 S2368 1.610 . S
N2370 C2371 1.351 . S
C2371 C2365 1.428 . S
C2371 N2370 1.351 . S
C2371 C2372 1.434 . S
C2372 C2363 1.429 . S
C2372 N2369 1.350 . S
C2372 C2371 1.434 . S
C2373 C2374 1.369 . S
C2373 C2375 1.419 . S
C2373 H2377 0.930 . S
C2374 C2373 1.369 . S
C2374 C2383 1.429 . S
C2375 C2373 1.419 . S
C2375 C2376 1.363 . S
C2375 H2378 0.929 . S
C2376 C2375 1.363 . S
C2376 C2382 1.428 . S
H2377 C2373 0.930 . S
H2378 C2375 0.929 . S
S2379 N2380 1.613 . S
S2379 N2381 1.610 . S
N2380 S2379 1.613 . S
N2380 C2383 1.350 . S
N2381 S2379 1.610 . S
N2381 C2382 1.351 . S
C2382 C2376 1.428 . S
C2382 N2381 1.351 . S
C2382 C2383 1.434 . S
C2383 C2374 1.429 . S
C2383 N2380 1.350 . S
C2383 C2382 1.434 . S
C2384 C2385 1.369 . S
C2384 C2386 1.419 . S
C2384 H2388 0.930 . S
C2385 C2384 1.369 . S
C2385 C2394 1.429 . S
C2386 C2384 1.419 . S
C2386 C2387 1.363 . S
C2386 H2389 0.929 . S
C2387 C2386 1.363 . S
C2387 C2393 1.428 . S
H2388 C2384 0.930 . S
H2389 C2386 0.929 . S
S2390 N2391 1.613 . S
S2390 N2392 1.610 . S
N2391 S2390 1.613 . S
N2391 C2394 1.350 . S
N2392 S2390 1.610 . S
N2392 C2393 1.351 . S
C2393 C2387 1.428 . S
C2393 N2392 1.351 . S
C2393 C2394 1.434 . S
C2394 C2385 1.429 . S
C2394 N2391 1.350 . S
C2394 C2393 1.434 . S
C2395 C2396 1.369 . S
C2395 C2397 1.419 . S
C2395 H2399 0.930 . S
C2396 C2395 1.369 . S
C2396 C2405 1.429 . S
C2397 C2395 1.419 . S
C2397 C2398 1.363 . S
C2397 H2400 0.929 . S
C2398 C2397 1.363 . S
C2398 C2404 1.428 . S
H2399 C2395 0.930 . S
H2400 C2397 0.929 . S
S2401 N2402 1.613 . S
S2401 N2403 1.610 . S
N2402 S2401 1.613 . S
N2402 C2405 1.350 . S
N2403 S2401 1.610 . S
N2403 C2404 1.351 . S
C2404 C2398 1.428 . S
C2404 N2403 1.351 . S
C2404 C2405 1.434 . S
C2405 C2396 1.429 . S
C2405 N2402 1.350 . S
C2405 C2404 1.434 . S
C2406 C2407 1.369 . S
C2406 C2408 1.419 . S
C2406 H2410 0.930 . S
C2407 C2406 1.369 . S
C2407 C2416 1.429 . S
C2408 C2406 1.419 . S
C2408 C2409 1.363 . S
C2408 H2411 0.929 . S
C2409 C2408 1.363 . S
C2409 C2415 1.428 . S
H2410 C2406 0.930 . S
H2411 C2408 0.929 . S
S2412 N2413 1.613 . S
S2412 N2414 1.610 . S
N2413 S2412 1.613 . S
N2413 C2416 1.350 . S
N2414 S2412 1.610 . S
N2414 C2415 1.351 . S
C2415 C2409 1.428 . S
C2415 N2414 1.351 . S
C2415 C2416 1.434 . S
C2416 C2407 1.429 . S
C2416 N2413 1.350 . S
C2416 C2415 1.434 . S
C2417 C2418 1.369 1_556 S
C2417 C2419 1.419 . S
C2417 H2421 0.930 . S
C2418 C2417 1.369 1_554 S
C2418 C2427 1.429 1_565 S
C2419 C2417 1.419 . S
C2419 C2420 1.363 1_566 S
C2419 H2422 0.929 . S
C2420 C2419 1.363 1_544 S
C2420 C2426 1.428 . S
H2421 C2417 0.930 . S
H2422 C2419 0.929 . S
S2423 N2424 1.613 . S
S2423 N2425 1.610 . S
N2424 S2423 1.613 . S
N2424 C2427 1.350 . S
N2425 S2423 1.610 . S
N2425 C2426 1.351 . S
C2426 C2420 1.428 . S
C2426 N2425 1.351 . S
C2426 C2427 1.434 . S
C2427 C2418 1.429 1_545 S
C2427 N2424 1.350 . S
C2427 C2426 1.434 . S
C2428 C2429 1.369 . S
C2428 C2430 1.419 . S
C2428 H2432 0.930 . S
C2429 C2428 1.369 . S
C2429 C2438 1.429 . S
C2430 C2428 1.419 . S
C2430 C2431 1.363 . S
C2430 H2433 0.929 . S
C2431 C2430 1.363 . S
C2431 C2437 1.428 . S
H2432 C2428 0.930 . S
H2433 C2430 0.929 . S
S2434 N2435 1.613 . S
S2434 N2436 1.610 . S
N2435 S2434 1.613 . S
N2435 C2438 1.350 . S
N2436 S2434 1.610 . S
N2436 C2437 1.351 . S
C2437 C2431 1.428 . S
C2437 N2436 1.351 . S
C2437 C2438 1.434 . S
C2438 C2429 1.429 . S
C2438 N2435 1.350 . S
C2438 C2437 1.434 . S
C2439 C2440 1.369 1_556 S
C2439 C2441 1.419 1_556 S
C2439 H2443 0.930 . S
C2440 C2439 1.369 1_554 S
C2440 C2449 1.429 . S
C2441 C2439 1.419 1_554 S
C2441 C2442 1.363 . S
C2441 H2444 0.929 1_554 S
C2442 C2441 1.363 . S
C2442 C2448 1.428 . S
H2443 C2439 0.930 . S
H2444 C2441 0.929 1_556 S
S2445 N2446 1.613 . S
S2445 N2447 1.610 . S
N2446 S2445 1.613 . S
N2446 C2449 1.350 . S
N2447 S2445 1.610 . S
N2447 C2448 1.351 . S
C2448 C2442 1.428 . S
C2448 N2447 1.351 . S
C2448 C2449 1.434 . S
C2449 C2440 1.429 . S
C2449 N2446 1.350 . S
C2449 C2448 1.434 . S
C2450 C2451 1.369 . S
C2450 C2452 1.419 . S
C2450 H2454 0.930 . S
C2451 C2450 1.369 . S
C2451 C2460 1.429 . S
C2452 C2450 1.419 . S
C2452 C2453 1.363 . S
C2452 H2455 0.929 . S
C2453 C2452 1.363 . S
C2453 C2459 1.428 . S
H2454 C2450 0.930 . S
H2455 C2452 0.929 . S
S2456 N2457 1.613 . S
S2456 N2458 1.610 . S
N2457 S2456 1.613 . S
N2457 C2460 1.350 . S
N2458 S2456 1.610 . S
N2458 C2459 1.351 . S
C2459 C2453 1.428 . S
C2459 N2458 1.351 . S
C2459 C2460 1.434 . S
C2460 C2451 1.429 . S
C2460 N2457 1.350 . S
C2460 C2459 1.434 . S
C2461 C2462 1.369 . S
C2461 C2463 1.419 . S
C2461 H2465 0.930 . S
C2462 C2461 1.369 . S
C2462 C2471 1.429 . S
C2463 C2461 1.419 . S
C2463 C2464 1.363 . S
C2463 H2466 0.929 . S
C2464 C2463 1.363 . S
C2464 C2470 1.428 . S
H2465 C2461 0.930 . S
H2466 C2463 0.929 . S
S2467 N2468 1.613 . S
S2467 N2469 1.610 . S
N2468 S2467 1.613 . S
N2468 C2471 1.350 . S
N2469 S2467 1.610 . S
N2469 C2470 1.351 . S
C2470 C2464 1.428 . S
C2470 N2469 1.351 . S
C2470 C2471 1.434 . S
C2471 C2462 1.429 . S
C2471 N2468 1.350 . S
C2471 C2470 1.434 . S
C2472 C2473 1.369 . S
C2472 C2474 1.419 . S
C2472 H2476 0.930 . S
C2473 C2472 1.369 . S
C2473 C2482 1.429 . S
C2474 C2472 1.419 . S
C2474 C2475 1.363 . S
C2474 H2477 0.929 . S
C2475 C2474 1.363 . S
C2475 C2481 1.428 . S
H2476 C2472 0.930 . S
H2477 C2474 0.929 . S
S2478 N2479 1.613 . S
S2478 N2480 1.610 . S
N2479 S2478 1.613 . S
N2479 C2482 1.350 . S
N2480 S2478 1.610 . S
N2480 C2481 1.351 . S
C2481 C2475 1.428 . S
C2481 N2480 1.351 . S
C2481 C2482 1.434 . S
C2482 C2473 1.429 . S
C2482 N2479 1.350 . S
C2482 C2481 1.434 . S
C2483 C2484 1.369 . S
C2483 C2485 1.419 . S
C2483 H2487 0.930 . S
C2484 C2483 1.369 . S
C2484 C2493 1.429 . S
C2485 C2483 1.419 . S
C2485 C2486 1.363 . S
C2485 H2488 0.929 . S
C2486 C2485 1.363 . S
C2486 C2492 1.428 . S
H2487 C2483 0.930 . S
H2488 C2485 0.929 . S
S2489 N2490 1.613 . S
S2489 N2491 1.610 . S
N2490 S2489 1.613 . S
N2490 C2493 1.350 . S
N2491 S2489 1.610 . S
N2491 C2492 1.351 . S
C2492 C2486 1.428 . S
C2492 N2491 1.351 . S
C2492 C2493 1.434 . S
C2493 C2484 1.429 . S
C2493 N2490 1.350 . S
C2493 C2492 1.434 . S
C2494 C2495 1.369 . S
C2494 C2496 1.419 . S
C2494 H2498 0.930 . S
C2495 C2494 1.369 . S
C2495 C2504 1.429 . S
C2496 C2494 1.419 . S
C2496 C2497 1.363 . S
C2496 H2499 0.929 . S
C2497 C2496 1.363 . S
C2497 C2503 1.428 . S
H2498 C2494 0.930 . S
H2499 C2496 0.929 . S
S2500 N2501 1.613 . S
S2500 N2502 1.610 . S
N2501 S2500 1.613 . S
N2501 C2504 1.350 . S
N2502 S2500 1.610 . S
N2502 C2503 1.351 . S
C2503 C2497 1.428 . S
C2503 N2502 1.351 . S
C2503 C2504 1.434 . S
C2504 C2495 1.429 . S
C2504 N2501 1.350 . S
C2504 C2503 1.434 . S
C2505 C2506 1.369 . S
C2505 C2507 1.419 . S
C2505 H2509 0.930 . S
C2506 C2505 1.369 . S
C2506 C2515 1.429 . S
C2507 C2505 1.419 . S
C2507 C2508 1.363 . S
C2507 H2510 0.929 . S
C2508 C2507 1.363 . S
C2508 C2514 1.428 . S
H2509 C2505 0.930 . S
H2510 C2507 0.929 . S
S2511 N2512 1.613 . S
S2511 N2513 1.610 . S
N2512 S2511 1.613 . S
N2512 C2515 1.350 . S
N2513 S2511 1.610 . S
N2513 C2514 1.351 . S
C2514 C2508 1.428 . S
C2514 N2513 1.351 . S
C2514 C2515 1.434 . S
C2515 C2506 1.429 . S
C2515 N2512 1.350 . S
C2515 C2514 1.434 . S
C2516 C2517 1.369 . S
C2516 C2518 1.419 . S
C2516 H2520 0.930 . S
C2517 C2516 1.369 . S
C2517 C2526 1.429 . S
C2518 C2516 1.419 . S
C2518 C2519 1.363 . S
C2518 H2521 0.929 . S
C2519 C2518 1.363 . S
C2519 C2525 1.428 . S
H2520 C2516 0.930 . S
H2521 C2518 0.929 . S
S2522 N2523 1.613 1_554 S
S2522 N2524 1.610 . S
N2523 S2522 1.613 1_556 S
N2523 C2526 1.350 . S
N2524 S2522 1.610 . S
N2524 C2525 1.351 1_554 S
C2525 C2519 1.428 . S
C2525 N2524 1.351 1_556 S
C2525 C2526 1.434 . S
C2526 C2517 1.429 . S
C2526 N2523 1.350 . S
C2526 C2525 1.434 . S
C2527 C2528 1.369 . S
C2527 C2529 1.419 . S
C2527 H2531 0.930 . S
C2528 C2527 1.369 . S
C2528 C2537 1.429 . S
C2529 C2527 1.419 . S
C2529 C2530 1.363 . S
C2529 H2532 0.929 . S
C2530 C2529 1.363 . S
C2530 C2536 1.428 . S
H2531 C2527 0.930 . S
H2532 C2529 0.929 . S
S2533 N2534 1.613 . S
S2533 N2535 1.610 . S
N2534 S2533 1.613 . S
N2534 C2537 1.350 . S
N2535 S2533 1.610 . S
N2535 C2536 1.351 . S
C2536 C2530 1.428 . S
C2536 N2535 1.351 . S
C2536 C2537 1.434 . S
C2537 C2528 1.429 . S
C2537 N2534 1.350 . S
C2537 C2536 1.434 . S
C2538 C2539 1.369 . S
C2538 C2540 1.419 . S
C2538 H2542 0.930 . S
C2539 C2538 1.369 . S
C2539 C2548 1.429 . S
C2540 C2538 1.419 . S
C2540 C2541 1.363 . S
C2540 H2543 0.929 . S
C2541 C2540 1.363 . S
C2541 C2547 1.428 . S
H2542 C2538 0.930 . S
H2543 C2540 0.929 . S
S2544 N2545 1.613 . S
S2544 N2546 1.610 . S
N2545 S2544 1.613 . S
N2545 C2548 1.350 . S
N2546 S2544 1.610 . S
N2546 C2547 1.351 . S
C2547 C2541 1.428 . S
C2547 N2546 1.351 . S
C2547 C2548 1.434 . S
C2548 C2539 1.429 . S
C2548 N2545 1.350 . S
C2548 C2547 1.434 . S
C2549 C2550 1.369 . S
C2549 C2551 1.419 . S
C2549 H2553 0.930 . S
C2550 C2549 1.369 . S
C2550 C2559 1.429 . S
C2551 C2549 1.419 . S
C2551 C2552 1.363 . S
C2551 H2554 0.929 . S
C2552 C2551 1.363 . S
C2552 C2558 1.428 . S
H2553 C2549 0.930 . S
H2554 C2551 0.929 . S
S2555 N2556 1.613 . S
S2555 N2557 1.610 . S
N2556 S2555 1.613 . S
N2556 C2559 1.350 . S
N2557 S2555 1.610 . S
N2557 C2558 1.351 . S
C2558 C2552 1.428 . S
C2558 N2557 1.351 . S
C2558 C2559 1.434 . S
C2559 C2550 1.429 . S
C2559 N2556 1.350 . S
C2559 C2558 1.434 . S
C2560 C2561 1.369 . S
C2560 C2562 1.419 . S
C2560 H2564 0.930 . S
C2561 C2560 1.369 . S
C2561 C2570 1.429 . S
C2562 C2560 1.419 . S
C2562 C2563 1.363 . S
C2562 H2565 0.929 . S
C2563 C2562 1.363 . S
C2563 C2569 1.428 . S
H2564 C2560 0.930 . S
H2565 C2562 0.929 . S
S2566 N2567 1.613 . S
S2566 N2568 1.610 . S
N2567 S2566 1.613 . S
N2567 C2570 1.350 . S
N2568 S2566 1.610 . S
N2568 C2569 1.351 . S
C2569 C2563 1.428 . S
C2569 N2568 1.351 . S
C2569 C2570 1.434 . S
C2570 C2561 1.429 . S
C2570 N2567 1.350 . S
C2570 C2569 1.434 . S
C2571 C2572 1.369 . S
C2571 C2573 1.419 . S
C2571 H2575 0.930 . S
C2572 C2571 1.369 . S
C2572 C2581 1.429 . S
C2573 C2571 1.419 . S
C2573 C2574 1.363 . S
C2573 H2576 0.929 . S
C2574 C2573 1.363 . S
C2574 C2580 1.428 . S
H2575 C2571 0.930 . S
H2576 C2573 0.929 . S
S2577 N2578 1.613 . S
S2577 N2579 1.610 . S
N2578 S2577 1.613 . S
N2578 C2581 1.350 . S
N2579 S2577 1.610 . S
N2579 C2580 1.351 . S
C2580 C2574 1.428 . S
C2580 N2579 1.351 . S
C2580 C2581 1.434 . S
C2581 C2572 1.429 . S
C2581 N2578 1.350 . S
C2581 C2580 1.434 . S
C2582 C2583 1.369 . S
C2582 C2584 1.419 1_655 S
C2582 H2586 0.930 . S
C2583 C2582 1.369 . S
C2583 C2592 1.429 . S
C2584 C2582 1.419 1_455 S
C2584 C2585 1.363 . S
C2584 H2587 0.929 . S
C2585 C2584 1.363 . S
C2585 C2591 1.428 . S
H2586 C2582 0.930 . S
H2587 C2584 0.929 . S
S2588 N2589 1.613 1_455 S
S2588 N2590 1.610 . S
N2589 S2588 1.613 1_655 S
N2589 C2592 1.350 . S
N2590 S2588 1.610 . S
N2590 C2591 1.351 . S
C2591 C2585 1.428 . S
C2591 N2590 1.351 . S
C2591 C2592 1.434 1_455 S
C2592 C2583 1.429 . S
C2592 N2589 1.350 . S
C2592 C2591 1.434 1_655 S
C2593 C2594 1.369 . S
C2593 C2595 1.419 . S
C2593 H2597 0.930 . S
C2594 C2593 1.369 . S
C2594 C2603 1.429 . S
C2595 C2593 1.419 . S
C2595 C2596 1.363 . S
C2595 H2598 0.929 . S
C2596 C2595 1.363 . S
C2596 C2602 1.428 . S
H2597 C2593 0.930 . S
H2598 C2595 0.929 . S
S2599 N2600 1.613 . S
S2599 N2601 1.610 . S
N2600 S2599 1.613 . S
N2600 C2603 1.350 . S
N2601 S2599 1.610 . S
N2601 C2602 1.351 . S
C2602 C2596 1.428 . S
C2602 N2601 1.351 . S
C2602 C2603 1.434 . S
C2603 C2594 1.429 . S
C2603 N2600 1.350 . S
C2603 C2602 1.434 . S
C2604 C2605 1.369 . S
C2604 C2606 1.419 . S
C2604 H2608 0.930 . S
C2605 C2604 1.369 . S
C2605 C2614 1.429 . S
C2606 C2604 1.419 . S
C2606 C2607 1.363 . S
C2606 H2609 0.929 . S
C2607 C2606 1.363 . S
C2607 C2613 1.428 . S
H2608 C2604 0.930 . S
H2609 C2606 0.929 . S
S2610 N2611 1.613 . S
S2610 N2612 1.610 . S
N2611 S2610 1.613 . S
N2611 C2614 1.350 . S
N2612 S2610 1.610 . S
N2612 C2613 1.351 . S
C2613 C2607 1.428 . S
C2613 N2612 1.351 . S
C2613 C2614 1.434 . S
C2614 C2605 1.429 . S
C2614 N2611 1.350 . S
C2614 C2613 1.434 . S
C2615 C2616 1.369 . S
C2615 C2617 1.419 . S
C2615 H2619 0.930 . S
C2616 C2615 1.369 . S
C2616 C2625 1.429 . S
C2617 C2615 1.419 . S
C2617 C2618 1.363 . S
C2617 H2620 0.929 . S
C2618 C2617 1.363 . S
C2618 C2624 1.428 . S
H2619 C2615 0.930 . S
H2620 C2617 0.929 . S
S2621 N2622 1.613 . S
S2621 N2623 1.610 . S
N2622 S2621 1.613 . S
N2622 C2625 1.350 . S
N2623 S2621 1.610 . S
N2623 C2624 1.351 . S
C2624 C2618 1.428 . S
C2624 N2623 1.351 . S
C2624 C2625 1.434 . S
C2625 C2616 1.429 . S
C2625 N2622 1.350 . S
C2625 C2624 1.434 . S
C2626 C2627 1.369 . S
C2626 C2628 1.419 1_655 S
C2626 H2630 0.930 1_655 S
C2627 C2626 1.369 . S
C2627 C2636 1.429 . S
C2628 C2626 1.419 1_455 S
C2628 C2629 1.363 1_455 S
C2628 H2631 0.929 . S
C2629 C2628 1.363 1_655 S
C2629 C2635 1.428 . S
H2630 C2626 0.930 1_455 S
H2631 C2628 0.929 . S
S2632 N2633 1.613 . S
S2632 N2634 1.610 . S
N2633 S2632 1.613 . S
N2633 C2636 1.350 . S
N2634 S2632 1.610 . S
N2634 C2635 1.351 . S
C2635 C2629 1.428 . S
C2635 N2634 1.351 . S
C2635 C2636 1.434 . S
C2636 C2627 1.429 . S
C2636 N2633 1.350 . S
C2636 C2635 1.434 . S
C2637 C2638 1.369 . S
C2637 C2639 1.419 . S
C2637 H2641 0.930 . S
C2638 C2637 1.369 . S
C2638 C2647 1.429 . S
C2639 C2637 1.419 . S
C2639 C2640 1.363 . S
C2639 H2642 0.929 . S
C2640 C2639 1.363 . S
C2640 C2646 1.428 . S
H2641 C2637 0.930 . S
H2642 C2639 0.929 . S
S2643 N2644 1.613 . S
S2643 N2645 1.610 . S
N2644 S2643 1.613 . S
N2644 C2647 1.350 . S
N2645 S2643 1.610 . S
N2645 C2646 1.351 . S
C2646 C2640 1.428 . S
C2646 N2645 1.351 . S
C2646 C2647 1.434 . S
C2647 C2638 1.429 . S
C2647 N2644 1.350 . S
C2647 C2646 1.434 . S
C2648 C2649 1.369 . S
C2648 C2650 1.419 . S
C2648 H2652 0.930 . S
C2649 C2648 1.369 . S
C2649 C2658 1.429 . S
C2650 C2648 1.419 . S
C2650 C2651 1.363 . S
C2650 H2653 0.929 . S
C2651 C2650 1.363 . S
C2651 C2657 1.428 . S
H2652 C2648 0.930 . S
H2653 C2650 0.929 . S
S2654 N2655 1.613 . S
S2654 N2656 1.610 . S
N2655 S2654 1.613 . S
N2655 C2658 1.350 . S
N2656 S2654 1.610 . S
N2656 C2657 1.351 . S
C2657 C2651 1.428 . S
C2657 N2656 1.351 . S
C2657 C2658 1.434 . S
C2658 C2649 1.429 . S
C2658 N2655 1.350 . S
C2658 C2657 1.434 . S
C2659 C2660 1.369 . S
C2659 C2661 1.419 . S
C2659 H2663 0.930 . S
C2660 C2659 1.369 . S
C2660 C2669 1.429 . S
C2661 C2659 1.419 . S
C2661 C2662 1.363 . S
C2661 H2664 0.929 1_565 S
C2662 C2661 1.363 . S
C2662 C2668 1.428 . S
H2663 C2659 0.930 . S
H2664 C2661 0.929 1_545 S
S2665 N2666 1.613 . S
S2665 N2667 1.610 1_655 S
N2666 S2665 1.613 . S
N2666 C2669 1.350 . S
N2667 S2665 1.610 1_455 S
N2667 C2668 1.351 1_455 S
C2668 C2662 1.428 . S
C2668 N2667 1.351 1_655 S
C2668 C2669 1.434 . S
C2669 C2660 1.429 . S
C2669 N2666 1.350 . S
C2669 C2668 1.434 . S
C2670 C2671 1.369 . S
C2670 C2672 1.419 . S
C2670 H2674 0.930 . S
C2671 C2670 1.369 . S
C2671 C2680 1.429 . S
C2672 C2670 1.419 . S
C2672 C2673 1.363 . S
C2672 H2675 0.929 . S
C2673 C2672 1.363 . S
C2673 C2679 1.428 . S
H2674 C2670 0.930 . S
H2675 C2672 0.929 . S
S2676 N2677 1.613 . S
S2676 N2678 1.610 . S
N2677 S2676 1.613 . S
N2677 C2680 1.350 . S
N2678 S2676 1.610 . S
N2678 C2679 1.351 . S
C2679 C2673 1.428 . S
C2679 N2678 1.351 . S
C2679 C2680 1.434 . S
C2680 C2671 1.429 . S
C2680 N2677 1.350 . S
C2680 C2679 1.434 . S
C2681 C2682 1.369 . S
C2681 C2683 1.419 . S
C2681 H2685 0.930 . S
C2682 C2681 1.369 . S
C2682 C2691 1.429 1_554 S
C2683 C2681 1.419 . S
C2683 C2684 1.363 . S
C2683 H2686 0.929 . S
C2684 C2683 1.363 . S
C2684 C2690 1.428 1_554 S
H2685 C2681 0.930 . S
H2686 C2683 0.929 . S
S2687 N2688 1.613 . S
S2687 N2689 1.610 . S
N2688 S2687 1.613 . S
N2688 C2691 1.350 . S
N2689 S2687 1.610 . S
N2689 C2690 1.351 . S
C2690 C2684 1.428 1_556 S
C2690 N2689 1.351 . S
C2690 C2691 1.434 . S
C2691 C2682 1.429 1_556 S
C2691 N2688 1.350 . S
C2691 C2690 1.434 . S
C2692 C2693 1.369 . S
C2692 C2694 1.419 . S
C2692 H2696 0.930 . S
C2693 C2692 1.369 . S
C2693 C2702 1.429 . S
C2694 C2692 1.419 . S
C2694 C2695 1.363 . S
C2694 H2697 0.929 . S
C2695 C2694 1.363 . S
C2695 C2701 1.428 . S
H2696 C2692 0.930 . S
H2697 C2694 0.929 . S
S2698 N2699 1.613 . S
S2698 N2700 1.610 . S
N2699 S2698 1.613 . S
N2699 C2702 1.350 . S
N2700 S2698 1.610 . S
N2700 C2701 1.351 . S
C2701 C2695 1.428 . S
C2701 N2700 1.351 . S
C2701 C2702 1.434 . S
C2702 C2693 1.429 . S
C2702 N2699 1.350 . S
C2702 C2701 1.434 . S
C2703 C2704 1.369 . S
C2703 C2705 1.419 1_554 S
C2703 H2707 0.930 . S
C2704 C2703 1.369 . S
C2704 C2713 1.429 . S
C2705 C2703 1.419 1_556 S
C2705 C2706 1.363 1_556 S
C2705 H2708 0.929 . S
C2706 C2705 1.363 1_554 S
C2706 C2712 1.428 . S
H2707 C2703 0.930 . S
H2708 C2705 0.929 . S
S2709 N2710 1.613 . S
S2709 N2711 1.610 . S
N2710 S2709 1.613 . S
N2710 C2713 1.350 . S
N2711 S2709 1.610 . S
N2711 C2712 1.351 . S
C2712 C2706 1.428 . S
C2712 N2711 1.351 . S
C2712 C2713 1.434 . S
C2713 C2704 1.429 . S
C2713 N2710 1.350 . S
C2713 C2712 1.434 . S
C2714 C2715 1.369 . S
C2714 C2716 1.419 . S
C2714 H2718 0.930 . S
C2715 C2714 1.369 . S
C2715 C2724 1.429 . S
C2716 C2714 1.419 . S
C2716 C2717 1.363 . S
C2716 H2719 0.929 . S
C2717 C2716 1.363 . S
C2717 C2723 1.428 . S
H2718 C2714 0.930 . S
H2719 C2716 0.929 . S
S2720 N2721 1.613 . S
S2720 N2722 1.610 . S
N2721 S2720 1.613 . S
N2721 C2724 1.350 . S
N2722 S2720 1.610 . S
N2722 C2723 1.351 . S
C2723 C2717 1.428 . S
C2723 N2722 1.351 . S
C2723 C2724 1.434 . S
C2724 C2715 1.429 . S
C2724 N2721 1.350 . S
C2724 C2723 1.434 . S
C2725 C2726 1.369 . S
C2725 C2727 1.419 . S
C2725 H2729 0.930 . S
C2726 C2725 1.369 . S
C2726 C2735 1.429 . S
C2727 C2725 1.419 . S
C2727 C2728 1.363 . S
C2727 H2730 0.929 . S
C2728 C2727 1.363 . S
C2728 C2734 1.428 . S
H2729 C2725 0.930 . S
H2730 C2727 0.929 . S
S2731 N2732 1.613 . S
S2731 N2733 1.610 . S
N2732 S2731 1.613 . S
N2732 C2735 1.350 . S
N2733 S2731 1.610 . S
N2733 C2734 1.351 . S
C2734 C2728 1.428 . S
C2734 N2733 1.351 . S
C2734 C2735 1.434 . S
C2735 C2726 1.429 . S
C2735 N2732 1.350 . S
C2735 C2734 1.434 . S
C1681 C111 2.054 . S
C1683 C392 1.882 . S
C1692 C64 2.232 . S
C1694 C483 2.270 . S
C1703 C77 1.675 . S
C1705 C560 1.620 . S
C1716 C658 1.201 . S
C1714 C95 1.317 . S
C1725 C25 1.442 . S
C1727 C742 1.436 . S
C1738 C814 1.016 . S
C1736 C36 1.083 . S
C1749 C903 1.354 . S
C1747 C50 1.141 . S
C1758 C11 1.766 . S
C1760 C980 1.486 . S
C1771 C399 2.050 . S
C1769 C237 2.070 1_455 S
C1780 C245 0.812 . S
C1782 C490 0.801 . S
C1793 C567 1.092 . S
C1791 C279 1.057 . S
C1804 C644 1.625 . S
C1802 C175 1.692 . S
C1813 C231 2.051 1_455 S
C1815 C728 1.918 . S
C1826 C830 1.160 . S
C1824 C251 1.150 . S
C1837 C910 0.818 . S
C1835 C273 0.840 . S
C1848 C987 1.647 . S
C1846 C181 1.847 . S
C1859 C406 1.379 . S
C1857 C165 1.419 . S
C1868 C288 1.842 . S
C1870 C1071 1.845 1_556 S
C1881 C1159 2.254 . S
C1879 C333 2.452 . S
C1892 C1232 0.621 . S
C1890 C316 0.617 . S
C1901 C123 1.366 . S
C1903 C994 1.444 . S
C1912 C137 1.473 . S
C1914 C574 1.464 . S
C1923 C330 2.103 . S
C1925 C1323 2.117 . S
C1936 C1400 0.758 . S
C1934 C302 0.764 . S
C1947 C403 1.983 . S
C1945 C63 2.134 . S
C1958 C1418 2.269 . S
C1956 C106 2.327 . S
C1967 C97 1.719 . S
C1969 C571 1.689 . S
C1978 C81 1.361 . S
C1980 C1318 1.250 . S
C1991 C730 1.489 . S
C1989 C13 1.289 . S
C2000 C55 1.047 . S
C2002 C1162 1.016 . S
C2013 C914 1.369 . S
C2011 C35 1.221 . S
C2024 C1495 1.652 . S
C2022 C21 1.854 . S
C2035 C410 2.137 . S
C2033 C147 2.260 . S
C2046 C1402 0.787 . S
C2044 C321 0.788 . S
C2055 C119 1.156 . S
C2057 C578 1.120 . S
C2066 C293 1.743 . S
C2068 C1327 1.719 . S
C2077 C153 1.991 . S
C2079 C739 2.065 . S
C2090 C1155 1.180 . S
C2088 C315 1.278 . S
C2099 C125 0.847 1_545 S
C2101 C898 0.821 . S
C2110 C287 1.949 . S
C2112 C1502 1.744 . S
C2121 C193 1.414 . S
C2123 C394 1.414 1_554 S
C2132 C176 1.900 . S
C2134 C1082 1.850 . S
C2143 C263 2.406 . S
C2145 C812 2.210 . S
C2154 C246 0.816 . S
C2156 C1243 0.828 . S
C2167 C1486 1.342 . S
C2165 C277 1.206 1_565 S
C2176 C221 1.413 . S
C2178 C562 1.460 . S
C2189 C662 2.151 . S
C2187 C260 2.171 . S
C2200 C487 0.874 . S
C2198 C204 0.883 . S
C2209 C83 2.057 . S
C2211 C1568 1.877 . S
C2222 C1407 2.272 . S
C2220 C92 2.234 . S
C2231 C105 1.675 . S
C2233 C1652 1.621 . S
C2242 C67 1.318 . S
C2244 C1330 1.199 . S
C2253 C53 1.444 . S
C2255 C1078 1.439 . S
C2266 C1150 1.019 . S
C2264 C8 1.081 . S
C2277 C1239 1.354 . S
C2275 C22 1.137 . S
C2288 C1484 1.487 . S
C2286 C39 1.766 . S
C2299 C1575 2.048 . S
C2297 C265 2.066 . S
C2308 C189 0.800 . S
C2310 C1414 0.794 . S
C2321 C1659 1.088 . S
C2319 C209 1.051 . S
C2332 C1316 1.619 . S
C2330 C217 1.691 . S
C2343 C1064 1.913 . S
C2341 C259 2.056 . S
C2352 C195 1.150 . S
C2354 C1166 1.159 . S
C2365 C1246 0.824 . S
C2363 C203 0.838 . S
C2374 C223 1.851 . S
C2376 C1491 1.657 . S
C2387 C1582 1.378 . S
C2385 C319 1.419 . S
C2396 C134 1.847 . S
C2398 C735 1.848 . S
C2409 C823 2.258 . S
C2407 C151 2.456 . S
C2420 C896 0.625 . S
C2418 C162 0.639 . S
C2431 C1498 1.442 . S
C2429 C305 1.369 . S
C2440 C291 1.471 1_554 S
C2442 C1666 1.459 . S
C2453 C651 2.119 . S
C2451 C148 2.103 . S
C2464 C476 0.758 . S
C2462 C120 0.764 . S
C2473 C91 2.129 . S
C2475 C1579 1.989 . S
C2486 C494 2.270 . S
C2484 C78 2.328 . S
C2495 C69 1.718 . S
C2497 C1663 1.688 . S
C2506 C109 1.357 . S
C2508 C646 1.245 . S
C2517 C41 1.289 . S
C2519 C1066 1.489 . S
C2530 C826 1.008 . S
C2528 C27 1.029 . S
C2539 C7 1.209 . S
C2541 C1250 1.369 . S
C2550 C49 1.856 . S
C2552 C991 1.645 . S
C2563 C1586 2.135 . S
C2561 C329 2.261 . S
C2572 C167 0.779 . S
C2574 C478 0.775 . S
C2585 C1670 1.110 . S
C2583 C301 1.156 . S
C2594 C139 1.737 . S
C2596 C655 1.726 . S
C2605 C335 2.001 . S
C2607 C1075 2.060 . S
C2618 C819 1.184 . S
C2616 C161 1.281 . S
C2627 C307 0.850 . S
C2629 C1234 0.814 1_655 S
C2640 C998 1.735 . S
C2638 C133 1.950 . S
C2651 C1570 1.414 . S
C2649 C249 1.414 . S
C2662 C746 1.850 1_665 S
C2660 C218 1.896 . S
C2671 C235 2.405 . S
C2673 C1148 2.214 . S
C2684 C907 0.821 . S
C2682 C190 0.802 . S
C2693 C207 1.202 . S
C2695 C982 1.341 . S
C2704 C179 1.420 . S
C2706 C1654 1.463 1_554 S
C2717 C1334 2.155 . S
C2715 C232 2.169 1_565 S
C2728 C1411 0.870 . S
C2726 C274 0.888 . S
