# Generated by pormake.
# Topology gar, (4,6)-cn, num edge types: 1
# Building blocks:
#     Node 0, Type 0, BuildingBlock: QUQFOY_clean_sbu_1, # of connection points: 4
#     Node 1, Type 0, BuildingBlock: QUQFOY_clean_sbu_1, # of connection points: 4
#     Node 2, Type 0, BuildingBlock: QUQFOY_clean_sbu_1, # of connection points: 4
#     Node 3, Type 0, BuildingBlock: QUQFOY_clean_sbu_1, # of connection points: 4
#     Node 4, Type 0, BuildingBlock: QUQFOY_clean_sbu_1, # of connection points: 4
#     Node 5, Type 0, BuildingBlock: QUQFOY_clean_sbu_1, # of connection points: 4
#     Node 6, Type 0, BuildingBlock: QUQFOY_clean_sbu_1, # of connection points: 4
#     Node 7, Type 0, BuildingBlock: QUQFOY_clean_sbu_1, # of connection points: 4
#     Node 8, Type 0, BuildingBlock: QUQFOY_clean_sbu_1, # of connection points: 4
#     Node 9, Type 0, BuildingBlock: QUQFOY_clean_sbu_1, # of connection points: 4
#     Node 10, Type 0, BuildingBlock: QUQFOY_clean_sbu_1, # of connection points: 4
#     Node 11, Type 0, BuildingBlock: QUQFOY_clean_sbu_1, # of connection points: 4
#     Node 12, Type 0, BuildingBlock: QUQFOY_clean_sbu_1, # of connection points: 4
#     Node 13, Type 0, BuildingBlock: QUQFOY_clean_sbu_1, # of connection points: 4
#     Node 14, Type 0, BuildingBlock: QUQFOY_clean_sbu_1, # of connection points: 4
#     Node 15, Type 0, BuildingBlock: QUQFOY_clean_sbu_1, # of connection points: 4
#     Node 16, Type 0, BuildingBlock: QUQFOY_clean_sbu_1, # of connection points: 4
#     Node 17, Type 0, BuildingBlock: QUQFOY_clean_sbu_1, # of connection points: 4
#     Node 18, Type 0, BuildingBlock: QUQFOY_clean_sbu_1, # of connection points: 4
#     Node 19, Type 0, BuildingBlock: QUQFOY_clean_sbu_1, # of connection points: 4
#     Node 20, Type 0, BuildingBlock: QUQFOY_clean_sbu_1, # of connection points: 4
#     Node 21, Type 0, BuildingBlock: QUQFOY_clean_sbu_1, # of connection points: 4
#     Node 22, Type 0, BuildingBlock: QUQFOY_clean_sbu_1, # of connection points: 4
#     Node 23, Type 0, BuildingBlock: QUQFOY_clean_sbu_1, # of connection points: 4
#     Node 24, Type 1, BuildingBlock: BETGAK_clean_sbu_0, # of connection points: 6
#     Node 25, Type 1, BuildingBlock: BETGAK_clean_sbu_0, # of connection points: 6
#     Node 26, Type 1, BuildingBlock: BETGAK_clean_sbu_0, # of connection points: 6
#     Node 27, Type 1, BuildingBlock: BETGAK_clean_sbu_0, # of connection points: 6
#     Node 28, Type 1, BuildingBlock: BETGAK_clean_sbu_0, # of connection points: 6
#     Node 29, Type 1, BuildingBlock: BETGAK_clean_sbu_0, # of connection points: 6
#     Node 30, Type 1, BuildingBlock: BETGAK_clean_sbu_0, # of connection points: 6
#     Node 31, Type 1, BuildingBlock: BETGAK_clean_sbu_0, # of connection points: 6
#     Node 32, Type 1, BuildingBlock: BETGAK_clean_sbu_0, # of connection points: 6
#     Node 33, Type 1, BuildingBlock: BETGAK_clean_sbu_0, # of connection points: 6
#     Node 34, Type 1, BuildingBlock: BETGAK_clean_sbu_0, # of connection points: 6
#     Node 35, Type 1, BuildingBlock: BETGAK_clean_sbu_0, # of connection points: 6
#     Node 36, Type 1, BuildingBlock: BETGAK_clean_sbu_0, # of connection points: 6
#     Node 37, Type 1, BuildingBlock: BETGAK_clean_sbu_0, # of connection points: 6
#     Node 38, Type 1, BuildingBlock: BETGAK_clean_sbu_0, # of connection points: 6
#     Node 39, Type 1, BuildingBlock: BETGAK_clean_sbu_0, # of connection points: 6
#     Edge 40, Type (0, 1), BuildingBlock: XIVTED_clean_linker_0, # of connection points: 2
#     Edge 41, Type (0, 1), BuildingBlock: XIVTED_clean_linker_0, # of connection points: 2
#     Edge 42, Type (0, 1), BuildingBlock: XIVTED_clean_linker_0, # of connection points: 2
#     Edge 43, Type (0, 1), BuildingBlock: XIVTED_clean_linker_0, # of connection points: 2
#     Edge 44, Type (0, 1), BuildingBlock: XIVTED_clean_linker_0, # of connection points: 2
#     Edge 45, Type (0, 1), BuildingBlock: XIVTED_clean_linker_0, # of connection points: 2
#     Edge 46, Type (0, 1), BuildingBlock: XIVTED_clean_linker_0, # of connection points: 2
#     Edge 47, Type (0, 1), BuildingBlock: XIVTED_clean_linker_0, # of connection points: 2
#     Edge 48, Type (0, 1), BuildingBlock: XIVTED_clean_linker_0, # of connection points: 2
#     Edge 49, Type (0, 1), BuildingBlock: XIVTED_clean_linker_0, # of connection points: 2
#     Edge 50, Type (0, 1), BuildingBlock: XIVTED_clean_linker_0, # of connection points: 2
#     Edge 51, Type (0, 1), BuildingBlock: XIVTED_clean_linker_0, # of connection points: 2
#     Edge 52, Type (0, 1), BuildingBlock: XIVTED_clean_linker_0, # of connection points: 2
#     Edge 53, Type (0, 1), BuildingBlock: XIVTED_clean_linker_0, # of connection points: 2
#     Edge 54, Type (0, 1), BuildingBlock: XIVTED_clean_linker_0, # of connection points: 2
#     Edge 55, Type (0, 1), BuildingBlock: XIVTED_clean_linker_0, # of connection points: 2
#     Edge 56, Type (0, 1), BuildingBlock: XIVTED_clean_linker_0, # of connection points: 2
#     Edge 57, Type (0, 1), BuildingBlock: XIVTED_clean_linker_0, # of connection points: 2
#     Edge 58, Type (0, 1), BuildingBlock: XIVTED_clean_linker_0, # of connection points: 2
#     Edge 59, Type (0, 1), BuildingBlock: XIVTED_clean_linker_0, # of connection points: 2
#     Edge 60, Type (0, 1), BuildingBlock: XIVTED_clean_linker_0, # of connection points: 2
#     Edge 61, Type (0, 1), BuildingBlock: XIVTED_clean_linker_0, # of connection points: 2
#     Edge 62, Type (0, 1), BuildingBlock: XIVTED_clean_linker_0, # of connection points: 2
#     Edge 63, Type (0, 1), BuildingBlock: XIVTED_clean_linker_0, # of connection points: 2
#     Edge 64, Type (0, 1), BuildingBlock: XIVTED_clean_linker_0, # of connection points: 2
#     Edge 65, Type (0, 1), BuildingBlock: XIVTED_clean_linker_0, # of connection points: 2
#     Edge 66, Type (0, 1), BuildingBlock: XIVTED_clean_linker_0, # of connection points: 2
#     Edge 67, Type (0, 1), BuildingBlock: XIVTED_clean_linker_0, # of connection points: 2
#     Edge 68, Type (0, 1), BuildingBlock: XIVTED_clean_linker_0, # of connection points: 2
#     Edge 69, Type (0, 1), BuildingBlock: XIVTED_clean_linker_0, # of connection points: 2
#     Edge 70, Type (0, 1), BuildingBlock: XIVTED_clean_linker_0, # of connection points: 2
#     Edge 71, Type (0, 1), BuildingBlock: XIVTED_clean_linker_0, # of connection points: 2
#     Edge 72, Type (0, 1), BuildingBlock: XIVTED_clean_linker_0, # of connection points: 2
#     Edge 73, Type (0, 1), BuildingBlock: XIVTED_clean_linker_0, # of connection points: 2
#     Edge 74, Type (0, 1), BuildingBlock: XIVTED_clean_linker_0, # of connection points: 2
#     Edge 75, Type (0, 1), BuildingBlock: XIVTED_clean_linker_0, # of connection points: 2
#     Edge 76, Type (0, 1), BuildingBlock: XIVTED_clean_linker_0, # of connection points: 2
#     Edge 77, Type (0, 1), BuildingBlock: XIVTED_clean_linker_0, # of connection points: 2
#     Edge 78, Type (0, 1), BuildingBlock: XIVTED_clean_linker_0, # of connection points: 2
#     Edge 79, Type (0, 1), BuildingBlock: XIVTED_clean_linker_0, # of connection points: 2
#     Edge 80, Type (0, 1), BuildingBlock: XIVTED_clean_linker_0, # of connection points: 2
#     Edge 81, Type (0, 1), BuildingBlock: XIVTED_clean_linker_0, # of connection points: 2
#     Edge 82, Type (0, 1), BuildingBlock: XIVTED_clean_linker_0, # of connection points: 2
#     Edge 83, Type (0, 1), BuildingBlock: XIVTED_clean_linker_0, # of connection points: 2
#     Edge 84, Type (0, 1), BuildingBlock: XIVTED_clean_linker_0, # of connection points: 2
#     Edge 85, Type (0, 1), BuildingBlock: XIVTED_clean_linker_0, # of connection points: 2
#     Edge 86, Type (0, 1), BuildingBlock: XIVTED_clean_linker_0, # of connection points: 2
#     Edge 87, Type (0, 1), BuildingBlock: XIVTED_clean_linker_0, # of connection points: 2
#     Edge 88, Type (0, 1), BuildingBlock: XIVTED_clean_linker_0, # of connection points: 2
#     Edge 89, Type (0, 1), BuildingBlock: XIVTED_clean_linker_0, # of connection points: 2
#     Edge 90, Type (0, 1), BuildingBlock: XIVTED_clean_linker_0, # of connection points: 2
#     Edge 91, Type (0, 1), BuildingBlock: XIVTED_clean_linker_0, # of connection points: 2
#     Edge 92, Type (0, 1), BuildingBlock: XIVTED_clean_linker_0, # of connection points: 2
#     Edge 93, Type (0, 1), BuildingBlock: XIVTED_clean_linker_0, # of connection points: 2
#     Edge 94, Type (0, 1), BuildingBlock: XIVTED_clean_linker_0, # of connection points: 2
#     Edge 95, Type (0, 1), BuildingBlock: XIVTED_clean_linker_0, # of connection points: 2
#     Edge 96, Type (0, 1), BuildingBlock: XIVTED_clean_linker_0, # of connection points: 2
#     Edge 97, Type (0, 1), BuildingBlock: XIVTED_clean_linker_0, # of connection points: 2
#     Edge 98, Type (0, 1), BuildingBlock: XIVTED_clean_linker_0, # of connection points: 2
#     Edge 99, Type (0, 1), BuildingBlock: XIVTED_clean_linker_0, # of connection points: 2
#     Edge 100, Type (0, 1), BuildingBlock: XIVTED_clean_linker_0, # of connection points: 2
#     Edge 101, Type (0, 1), BuildingBlock: XIVTED_clean_linker_0, # of connection points: 2
#     Edge 102, Type (0, 1), BuildingBlock: XIVTED_clean_linker_0, # of connection points: 2
#     Edge 103, Type (0, 1), BuildingBlock: XIVTED_clean_linker_0, # of connection points: 2
#     Edge 104, Type (0, 1), BuildingBlock: XIVTED_clean_linker_0, # of connection points: 2
#     Edge 105, Type (0, 1), BuildingBlock: XIVTED_clean_linker_0, # of connection points: 2
#     Edge 106, Type (0, 1), BuildingBlock: XIVTED_clean_linker_0, # of connection points: 2
#     Edge 107, Type (0, 1), BuildingBlock: XIVTED_clean_linker_0, # of connection points: 2
#     Edge 108, Type (0, 1), BuildingBlock: XIVTED_clean_linker_0, # of connection points: 2
#     Edge 109, Type (0, 1), BuildingBlock: XIVTED_clean_linker_0, # of connection points: 2
#     Edge 110, Type (0, 1), BuildingBlock: XIVTED_clean_linker_0, # of connection points: 2
#     Edge 111, Type (0, 1), BuildingBlock: XIVTED_clean_linker_0, # of connection points: 2
#     Edge 112, Type (0, 1), BuildingBlock: XIVTED_clean_linker_0, # of connection points: 2
#     Edge 113, Type (0, 1), BuildingBlock: XIVTED_clean_linker_0, # of connection points: 2
#     Edge 114, Type (0, 1), BuildingBlock: XIVTED_clean_linker_0, # of connection points: 2
#     Edge 115, Type (0, 1), BuildingBlock: XIVTED_clean_linker_0, # of connection points: 2
#     Edge 116, Type (0, 1), BuildingBlock: XIVTED_clean_linker_0, # of connection points: 2
#     Edge 117, Type (0, 1), BuildingBlock: XIVTED_clean_linker_0, # of connection points: 2
#     Edge 118, Type (0, 1), BuildingBlock: XIVTED_clean_linker_0, # of connection points: 2
#     Edge 119, Type (0, 1), BuildingBlock: XIVTED_clean_linker_0, # of connection points: 2
#     Edge 120, Type (0, 1), BuildingBlock: XIVTED_clean_linker_0, # of connection points: 2
#     Edge 121, Type (0, 1), BuildingBlock: XIVTED_clean_linker_0, # of connection points: 2
#     Edge 122, Type (0, 1), BuildingBlock: XIVTED_clean_linker_0, # of connection points: 2
#     Edge 123, Type (0, 1), BuildingBlock: XIVTED_clean_linker_0, # of connection points: 2
#     Edge 124, Type (0, 1), BuildingBlock: XIVTED_clean_linker_0, # of connection points: 2
#     Edge 125, Type (0, 1), BuildingBlock: XIVTED_clean_linker_0, # of connection points: 2
#     Edge 126, Type (0, 1), BuildingBlock: XIVTED_clean_linker_0, # of connection points: 2
#     Edge 127, Type (0, 1), BuildingBlock: XIVTED_clean_linker_0, # of connection points: 2
#     Edge 128, Type (0, 1), BuildingBlock: XIVTED_clean_linker_0, # of connection points: 2
#     Edge 129, Type (0, 1), BuildingBlock: XIVTED_clean_linker_0, # of connection points: 2
#     Edge 130, Type (0, 1), BuildingBlock: XIVTED_clean_linker_0, # of connection points: 2
#     Edge 131, Type (0, 1), BuildingBlock: XIVTED_clean_linker_0, # of connection points: 2
#     Edge 132, Type (0, 1), BuildingBlock: XIVTED_clean_linker_0, # of connection points: 2
#     Edge 133, Type (0, 1), BuildingBlock: XIVTED_clean_linker_0, # of connection points: 2
#     Edge 134, Type (0, 1), BuildingBlock: XIVTED_clean_linker_0, # of connection points: 2
#     Edge 135, Type (0, 1), BuildingBlock: XIVTED_clean_linker_0, # of connection points: 2
# Relax obj value: 0.212
# Max RMSD: 0.321
# Mean RMSD: 0.184
data_MOF--net-gar--node1-QUQFOY_clean_sbu_1--node2-BETGAK_clean_sbu_0--edge1-XIVTED_clean_linker_0
_symmetry_space_group_name_H-M    P1
_symmetry_Int_Tables_number       1
_symmetry_cell_setting            triclinic
loop_
_symmetry_equiv_pos_as_xyz
'x, y, z'
_cell_length_a     64.217435
_cell_length_b     57.901053
_cell_length_c     58.232324
_cell_angle_alpha  98.787302
_cell_angle_beta   95.645612
_cell_angle_gamma 104.94078
loop_
_atom_site_label
_atom_site_type_symbol
_atom_site_fract_x
_atom_site_fract_y
_atom_site_fract_z
_atom_type_partial_charge
O0 O 0.12092 0.30479 0.4086 0.0
Cd1 Cd 0.12751 0.3277 0.38595 0.0
Cd2 Cd 0.11649 0.35712 0.42121 0.0
O3 O 0.11702 0.3298 0.43927 0.0
O4 O 0.13802 0.30687 0.36308 0.0
O5 O 0.15789 0.34357 0.38122 0.0
C6 C 0.15593 0.32389 0.36636 0.0
C7 C 0.11891 0.39433 0.44327 0.0
C8 C 0.11752 0.30888 0.42962 0.0
C9 C 0.0882 0.34057 0.37338 0.0
O10 O 0.09148 0.35119 0.39458 0.0
O11 O 0.10157 0.33018 0.36517 0.0
O12 O 0.10287 0.3757 0.44294 0.0
O13 O 0.13497 0.39165 0.43251 0.0
O14 O 0.99673 0.71447 0.66552 0.0
Cd15 Cd 1.00091 0.74683 0.68693 0.0
Cd16 Cd 1.01022 0.7614 0.65083 0.0
O17 O 0.98862 0.72938 0.6348 0.0
O18 O 0.98102 0.74247 0.70953 0.0
O19 O 0.98054 0.76656 0.68289 0.0
C20 C 0.97256 0.75743 0.70014 0.0
C21 C 0.01518 0.79323 0.63145 0.0
C22 C 0.99031 0.71127 0.64374 0.0
C23 C 0.04569 0.76509 0.68934 0.0
O24 O 0.03997 0.76148 0.66733 0.0
O25 O 0.03148 0.76322 0.70301 0.0
O26 O 0.01974 0.77357 0.62307 0.0
O27 O 1.00621 0.79427 0.65032 0.0
O28 O 0.6574 0.83496 0.897 0.0
Cd29 Cd 0.63243 0.83734 0.91604 0.0
Cd30 Cd 0.61989 0.85479 0.88135 0.0
O31 O 0.64481 0.84836 0.86661 0.0
O32 O 0.63668 0.819 0.94074 0.0
O33 O 0.6075 0.8076 0.91344 0.0
C34 C 0.61823 0.80369 0.93172 0.0
C35 C 0.58582 0.84134 0.86165 0.0
C36 C 0.65888 0.84019 0.87676 0.0
C37 C 0.62666 0.88721 0.92546 0.0
O38 O 0.62454 0.88611 0.90356 0.0
O39 O 0.62961 0.86937 0.93422 0.0
O40 O 0.60011 0.85893 0.85611 0.0
O41 O 0.5914 0.82998 0.8776 0.0
O42 O 0.50088 0.20108 0.15988 0.0
Cd43 Cd 0.50164 0.23153 0.18346 0.0
Cd44 Cd 0.51495 0.2505 0.1497 0.0
O45 O 0.49603 0.21883 0.13001 0.0
O46 O 0.48031 0.22475 0.20451 0.0
O47 O 0.48032 0.24991 0.17882 0.0
C48 C 0.47221 0.24034 0.19581 0.0
C49 C 0.52405 0.28405 0.13259 0.0
C50 C 0.49729 0.19996 0.13788 0.0
C51 C 0.5461 0.25158 0.19159 0.0
O52 O 0.54227 0.24917 0.16951 0.0
O53 O 0.53064 0.2491 0.20358 0.0
O54 O 0.53066 0.26532 0.12596 0.0
O55 O 0.51067 0.28304 0.14781 0.0
O56 O 0.09029 0.78135 0.12303 0.0
Cd57 Cd 0.09511 0.81111 0.14851 0.0
Cd58 Cd 0.11782 0.83205 0.11444 0.0
O59 O 0.1071 0.79633 0.09506 0.0
O60 O 0.07552 0.79542 0.17002 0.0
O61 O 0.06954 0.82504 0.15305 0.0
C62 C 0.063 0.8088 0.16565 0.0
C63 C 0.10702 0.86488 0.10057 0.0
C64 C 0.09628 0.77827 0.10299 0.0
C65 C 0.14462 0.83027 0.16037 0.0
O66 O 0.14509 0.83635 0.14012 0.0
O67 O 0.12637 0.822 0.16737 0.0
O68 O 0.12181 0.8562 0.09192 0.0
O69 O 0.09849 0.85531 0.11733 0.0
O70 O 0.56775 0.78063 0.42289 0.0
Cd71 Cd 0.54935 0.77563 0.44964 0.0
Cd72 Cd 0.52175 0.79364 0.40673 0.0
O73 O 0.54971 0.78971 0.39235 0.0
O74 O 0.56807 0.76244 0.47158 0.0
O75 O 0.53475 0.74174 0.45532 0.0
C76 C 0.55249 0.74261 0.4684 0.0
C77 C 0.48857 0.793 0.38321 0.0
C78 C 0.56677 0.7857 0.40237 0.0
C79 C 0.53644 0.82243 0.45933 0.0
O80 O 0.52793 0.81821 0.43789 0.0
O81 O 0.54513 0.80753 0.46789 0.0
O82 O 0.50597 0.81072 0.38552 0.0
O83 O 0.49014 0.77488 0.39308 0.0
O84 O 0.60053 0.27717 0.62906 0.0
Cd85 Cd 0.60514 0.30674 0.6547 0.0
Cd86 Cd 0.6261 0.32866 0.62036 0.0
O87 O 0.61463 0.2933 0.60015 0.0
O88 O 0.58542 0.29271 0.67694 0.0
O89 O 0.57846 0.31957 0.65652 0.0
C90 C 0.57224 0.30469 0.67052 0.0
C91 C 0.61504 0.36154 0.60655 0.0
C92 C 0.60501 0.27477 0.60827 0.0
C93 C 0.6546 0.32599 0.66556 0.0
O94 O 0.65404 0.33237 0.6454 0.0
O95 O 0.63686 0.3172 0.67333 0.0
O96 O 0.63016 0.35326 0.59821 0.0
O97 O 0.60649 0.3517 0.62317 0.0
O98 O 0.03397 0.23838 0.92907 0.0
Cd99 Cd 0.0339 0.26645 0.9096 0.0
Cd100 Cd 0.01615 0.28287 0.94904 0.0
O101 O 0.02547 0.25467 0.96229 0.0
O102 O 0.05119 0.25841 0.88395 0.0
O103 O 0.06386 0.29091 0.91172 0.0
C104 C 0.0671 0.27712 0.89357 0.0
C105 C 0.02973 0.32319 0.96906 0.0
C106 C 0.03167 0.23787 0.95054 0.0
C107 C 0.98787 0.2755 0.90264 0.0
O108 O 0.98802 0.27674 0.92472 0.0
O109 O 1.00477 0.273 0.89359 0.0
O110 O 0.01485 0.30773 0.97654 0.0
O111 O 0.0376 0.31561 0.95069 0.0
O112 O 0.44097 0.0281 0.27807 0.0
Cd113 Cd 0.42957 0.03997 0.30728 0.0
Cd114 Cd 0.47623 0.04022 0.31781 0.0
O115 O 0.47144 0.05652 0.29045 0.0
O116 O 0.43065 0.07401 0.31064 0.0
O117 O 0.40034 0.043 0.29892 0.0
C118 C 0.41017 0.06605 0.30201 0.0
C119 C 0.49825 0.05255 0.35082 0.0
C120 C 0.4593 0.04015 0.2742 0.0
C121 C 0.43997 1.00577 0.32704 0.0
O122 O 0.45658 1.00666 0.31681 0.0
O123 O 0.43675 0.02577 0.33571 0.0
O124 O 0.50496 0.04219 0.33272 0.0
O125 O 0.48058 0.05938 0.3485 0.0
O126 O 0.31106 0.2058 0.55088 0.0
Cd127 Cd 0.30837 0.17797 0.52342 0.0
Cd128 Cd 0.29058 0.21447 0.50294 0.0
O129 O 0.30119 0.2355 0.53702 0.0
O130 O 0.324 0.15763 0.54008 0.0
O131 O 0.33596 0.17411 0.51059 0.0
C132 C 0.33896 0.162 0.52689 0.0
C133 C 0.29817 0.22959 0.46739 0.0
C134 C 0.30805 0.22683 0.55426 0.0
C135 C 0.25998 0.16409 0.50638 0.0
O136 O 0.26268 0.1857 0.50241 0.0
O137 O 0.27627 0.15638 0.5124 0.0
O138 O 0.28323 0.23461 0.47892 0.0
O139 O 0.30923 0.21643 0.47616 0.0
O140 O 0.17668 1.01514 0.74018 0.0
Cd141 Cd 0.2052 1.01532 0.76436 0.0
Cd142 Cd 0.16943 0.04391 0.79787 0.0
O143 O 0.15421 0.03188 0.76062 0.0
O144 O 0.22548 0.99437 0.74816 0.0
O145 O 0.21065 0.984 0.77798 0.0
C146 C 0.22283 0.97916 0.76251 0.0
C147 C 0.15086 0.04335 0.83546 0.0
C148 C 0.15939 0.02278 0.74083 0.0
C149 C 0.21667 0.07407 0.78702 0.0
O150 O 0.19893 0.07195 0.7964 0.0
O151 O 0.22155 0.05495 0.77654 0.0
O152 O 0.14831 0.05698 0.82035 0.0
O153 O 0.16328 0.0297 0.82959 0.0
O154 O 0.32933 0.93848 0.03794 0.0
Cd155 Cd 0.32326 0.95805 0.01342 0.0
Cd156 Cd 0.32904 0.92075 0.99095 0.0
O157 O 0.31923 0.90197 0.01581 0.0
O158 O 0.31367 0.98296 0.03263 0.0
O159 O 0.29233 0.9556 1.00287 0.0
C160 C 0.29487 0.97337 0.02018 0.0
C161 C 0.32474 0.90062 0.9536 0.0
C162 C 0.32481 0.9156 0.03573 0.0
C163 C 0.36469 0.96702 1.00445 0.0
O164 O 0.35895 0.94408 1.00135 0.0
O165 O 0.35047 0.97853 1.00388 0.0
O166 O 0.33794 0.89702 0.96982 0.0
O167 O 0.31291 0.91507 0.95882 0.0
O168 O 0.33225 0.39657 0.08596 0.0
Cd169 Cd 0.33535 0.41807 0.05971 0.0
Cd170 Cd 0.35033 0.37923 0.0393 0.0
O171 O 0.33932 0.36363 0.06771 0.0
O172 O 0.31915 0.44313 0.06829 0.0
O173 O 0.30707 0.4132 0.03774 0.0
C174 C 0.30419 0.4319 0.05086 0.0
C175 C 0.3408 0.36008 0.99947 0.0
C176 C 0.33353 0.37485 0.08553 0.0
C177 C 0.38288 0.42891 0.04991 0.0
O178 O 0.37994 0.40601 0.04602 0.0
O179 O 0.36691 0.43766 0.05376 0.0
O180 O 0.35487 0.35452 0.01339 0.0
O181 O 0.33096 0.37544 1.00835 0.0
O182 O 0.80539 0.15478 0.07935 0.0
Cd183 Cd 0.80188 0.13279 0.04737 0.0
Cd184 Cd 0.80248 0.17141 0.03593 0.0
O185 O 0.82297 0.18643 0.06588 0.0
O186 O 0.81789 0.10866 0.04862 0.0
O187 O 0.82561 0.1393 0.02869 0.0
C188 C 0.83 0.12063 0.03544 0.0
C189 C 0.8043 0.18752 1.003 0.0
C190 C 0.81644 0.17688 0.08292 0.0
C191 C 0.76079 0.13571 0.03284 0.0
O192 O 0.77076 0.158 0.03963 0.0
O193 O 0.77142 0.12016 0.02986 0.0
O194 O 0.80133 0.19965 0.02225 0.0
O195 O 0.80847 0.16689 1.00305 0.0
O196 O 0.18994 0.55663 0.22945 0.0
Cd197 Cd 0.20549 0.56253 0.26282 0.0
Cd198 Cd 0.16833 0.55955 0.268 0.0
O199 O 0.16396 0.5312 0.24146 0.0
O200 O 0.23219 0.55317 0.26369 0.0
O201 O 0.20196 0.53384 0.27683 0.0
C202 C 0.22173 0.53548 0.27296 0.0
C203 C 0.15827 0.56085 0.30366 0.0
C204 C 0.17203 0.54011 0.2247 0.0
C205 C 0.19656 0.60572 0.27474 0.0
O206 O 0.17942 0.59373 0.26095 0.0
O207 O 0.20838 0.59439 0.28417 0.0
O208 O 0.14413 0.55903 0.28553 0.0
O209 O 0.1774 0.55853 0.30079 0.0
O210 O 0.83506 0.90025 0.59243 0.0
Cd211 Cd 0.83774 0.91928 0.5647 0.0
Cd212 Cd 0.85012 0.88051 0.54428 0.0
O213 O 0.83896 0.86597 0.57358 0.0
O214 O 0.8213 0.94382 0.57239 0.0
O215 O 0.81028 0.9143 0.54143 0.0
C216 C 0.80692 0.93282 0.55437 0.0
C217 C 0.83726 0.86209 0.50473 0.0
C218 C 0.83491 0.87816 0.59199 0.0
C219 C 0.88419 0.92935 0.55331 0.0
O220 O 0.8805 0.90629 0.5484 0.0
O221 O 0.86895 0.93849 0.55918 0.0
O222 O 0.84966 0.85343 0.51776 0.0
O223 O 0.83092 0.88019 0.51448 0.0
O224 O 0.95295 0.0681 0.22516 0.0
Cd225 Cd 0.92732 0.06894 0.24906 0.0
Cd226 Cd 0.96865 0.04781 0.27675 0.0
O227 O 0.98044 0.05755 0.24395 0.0
O228 O 0.90425 0.08747 0.23678 0.0
O229 O 0.92557 0.10304 0.26944 0.0
C230 C 0.91023 0.10533 0.25453 0.0
C231 C 0.9902 0.05294 0.31635 0.0
C232 C 0.97191 0.0637 0.22543 0.0
C233 C 0.91881 1.01493 0.26496 0.0
O234 O 0.93931 0.01889 0.2714 0.0
O235 O 0.91141 0.03196 0.25768 0.0
O236 O 0.99025 0.03622 0.29892 0.0
O237 O 0.97933 0.06788 0.31128 0.0
O238 O 0.30686 0.65476 0.57345 0.0
Cd239 Cd 0.30292 0.63014 0.54362 0.0
Cd240 Cd 0.29334 0.66039 0.52204 0.0
O241 O 0.30311 0.68304 0.55351 0.0
O242 O 0.32245 0.61066 0.54894 0.0
O243 O 0.32521 0.63445 0.52201 0.0
C244 C 0.33238 0.61934 0.53258 0.0
C245 C 0.29543 0.67951 0.49069 0.0
C246 C 0.30643 0.67636 0.57286 0.0
C247 C 0.25846 0.61517 0.52363 0.0
O248 O 0.26371 0.63591 0.51798 0.0
O249 O 0.27262 0.6073 0.53408 0.0
O250 O 0.28384 0.68404 0.50657 0.0
O251 O 0.30689 0.6645 0.49285 0.0
O252 O 0.45622 0.57238 0.72927 0.0
Cd253 Cd 0.42887 0.5731 0.75062 0.0
Cd254 Cd 0.46951 0.54878 0.78168 0.0
O255 O 0.48056 0.55689 0.74795 0.0
O256 O 0.40582 0.59123 0.73657 0.0
O257 O 0.42599 0.60754 0.76967 0.0
C258 C 0.41109 0.60947 0.75397 0.0
C259 C 0.49141 0.55217 0.82104 0.0
C260 C 0.47392 0.56519 0.72983 0.0
C261 C 0.41907 0.51853 0.7674 0.0
O262 O 0.43891 0.52217 0.77656 0.0
O263 O 0.41298 0.53531 0.75795 0.0
O264 O 0.49083 0.53569 0.80311 0.0
O265 O 0.48099 0.56773 0.81661 0.0
O266 O 0.69321 0.06671 0.72717 0.0
Cd267 Cd 0.70786 0.07168 0.76073 0.0
Cd268 Cd 0.6702 0.06654 0.76582 0.0
O269 O 0.66625 0.04045 0.73718 0.0
O270 O 0.73414 0.06082 0.76211 0.0
O271 O 0.70267 0.04212 0.77352 0.0
C272 C 0.72248 0.04315 0.77048 0.0
C273 C 0.6595 0.06416 0.801 0.0
C274 C 0.67594 0.04933 0.72127 0.0
C275 C 0.69629 0.1137 0.77668 0.0
O276 O 0.67942 0.10213 0.76227 0.0
O277 O 0.70939 0.1023 0.78351 0.0
O278 O 0.64543 0.06282 0.78297 0.0
O279 O 0.67895 0.06322 0.79804 0.0
O280 O 0.81144 0.71148 0.05806 0.0
Cd281 Cd 0.80884 0.68366 0.03088 0.0
Cd282 Cd 0.78944 0.718 1.00823 0.0
O283 O 0.79941 0.73906 0.04249 0.0
O284 O 0.82307 0.66225 0.04748 0.0
O285 O 0.83731 0.68028 0.01982 0.0
C286 C 0.83896 0.66716 0.03557 0.0
C287 C 0.79705 0.73316 0.97282 0.0
C288 C 0.80718 0.73186 0.0603 0.0
C289 C 0.76009 0.66796 0.01255 0.0
O290 O 0.7618 0.68877 1.00689 0.0
O291 O 0.77681 0.66199 0.02051 0.0
O292 O 0.7833 0.73973 0.98527 0.0
O293 O 0.80695 0.71845 0.98052 0.0
O294 O 0.9551 0.54627 0.78588 0.0
Cd295 Cd 0.94121 0.55551 0.81433 0.0
Cd296 Cd 0.97592 0.54969 0.82752 0.0
O297 O 0.98856 0.56511 0.80173 0.0
O298 O 0.91377 0.55499 0.79661 0.0
O299 O 0.936 0.58755 0.82078 0.0
C300 C 0.91871 0.57773 0.80557 0.0
C301 C 0.98968 0.55744 0.86484 0.0
C302 C 0.97497 0.55396 0.78379 0.0
C303 C 0.93801 0.51182 0.82621 0.0
O304 O 0.95578 0.51536 0.81799 0.0
O305 O 0.93112 0.52975 0.83342 0.0
O306 O 0.99825 0.54572 0.84945 0.0
O307 O 0.97466 0.56733 0.85842 0.0
O308 O 0.83265 0.43736 0.55012 0.0
Cd309 Cd 0.82565 0.45177 0.52158 0.0
Cd310 Cd 0.83317 0.41405 0.5055 0.0
O311 O 0.8197 0.39968 0.53172 0.0
O312 O 0.816 0.47896 0.53609 0.0
O313 O 0.79424 0.4469 0.51097 0.0
C314 C 0.79688 0.4671 0.52534 0.0
C315 C 0.82737 0.39287 0.46857 0.0
C316 C 0.82669 0.41488 0.55069 0.0
C317 C 0.86759 0.45975 0.5129 0.0
O318 O 0.86327 0.43782 0.51559 0.0
O319 O 0.85222 0.46899 0.50814 0.0
O320 O 0.83862 0.38699 0.48513 0.0
O321 O 0.81857 0.41044 0.47316 0.0
O322 O 0.68035 0.51329 0.24612 0.0
Cd323 Cd 0.70836 0.51355 0.27111 0.0
Cd324 Cd 0.67121 0.54068 0.30361 0.0
O325 O 0.65647 0.52835 0.26581 0.0
O326 O 0.73027 0.49358 0.25686 0.0
O327 O 0.71239 0.48125 0.28406 0.0
C328 C 0.72615 0.47738 0.27012 0.0
C329 C 0.65226 0.53967 0.34117 0.0
C330 C 0.66255 0.52005 0.24618 0.0
C331 C 0.71862 0.57212 0.29396 0.0
O332 O 0.70072 0.56931 0.3031 0.0
O333 O 0.72399 0.55338 0.28338 0.0
O334 O 0.65068 0.55423 0.32669 0.0
O335 O 0.66381 0.52521 0.33457 0.0
La336 La 0.04589 0.03992 0.01905 0.0
La337 La 0.08667 0.06772 0.04782 0.0
C338 C 1.00542 0.02497 1.00696 0.0
C339 C 0.98964 0.03906 1.00847 0.0
C340 C 0.96995 0.03125 0.99323 0.0
C341 C 0.95562 0.04571 0.99359 0.0
C342 C 0.96102 0.06822 1.00906 0.0
C343 C 0.9812 0.07636 0.02364 0.0
C344 C 0.99534 0.0618 0.02347 0.0
C345 C 0.07493 0.04075 0.98829 0.0
C346 C 0.06163 0.09793 0.02203 0.0
C347 C 0.12706 0.08227 0.06095 0.0
C348 C 0.14336 0.06868 0.05975 0.0
C349 C 0.16118 0.07489 0.07762 0.0
C350 C 0.17638 0.06151 0.07718 0.0
C351 C 0.17371 0.04163 0.05903 0.0
C352 C 0.15547 0.03476 0.04163 0.0
C353 C 0.14028 0.04819 0.04201 0.0
C354 C 0.05665 0.06697 0.07809 0.0
C355 C 0.07198 1.00966 0.04352 0.0
O356 O 0.01917 0.03127 0.99253 0.0
O357 O 0.01512 0.02268 0.02698 0.0
O358 O 0.05473 0.02827 0.98485 0.0
O359 O 0.07928 0.05077 1.01043 0.0
O360 O 0.04624 0.0772 0.01478 0.0
O361 O 0.07962 0.09909 0.03568 0.0
O362 O 0.1129 0.07547 0.07484 0.0
O363 O 0.11782 0.0852 0.04095 0.0
O364 O 0.07698 0.07912 0.08213 0.0
O365 O 0.05324 0.05718 0.05601 0.0
O366 O 0.08714 0.03051 0.05079 0.0
O367 O 0.0537 1.00848 0.03035 0.0
H368 H 0.96564 1.01399 0.98117 0.0
H369 H 0.94004 0.03889 0.98236 0.0
H370 H 0.98588 0.09378 0.03549 0.0
H371 H 1.01072 0.06831 0.03506 0.0
H372 H 0.16344 0.09023 0.09174 0.0
H373 H 0.19058 0.06708 0.09057 0.0
H374 H 0.15345 0.01966 0.0273 0.0
H375 H 0.12631 0.04276 0.02835 0.0
La376 La 0.32519 0.80387 0.25449 0.0
La377 La 0.30657 0.81498 0.29698 0.0
C378 C 0.3416 0.8008 0.2172 0.0
C379 C 0.34691 0.81885 0.20263 0.0
C380 C 0.36129 0.81762 0.18628 0.0
C381 C 0.36658 0.83626 0.17342 0.0
C382 C 0.35844 0.85663 0.17812 0.0
C383 C 0.34623 0.85868 0.19653 0.0
C384 C 0.33904 0.83913 0.20714 0.0
C385 C 0.34746 0.7987 0.29316 0.0
C386 C 0.32786 0.85857 0.27659 0.0
C387 C 0.3003 0.81785 0.33869 0.0
C388 C 0.2871 0.7987 0.34902 0.0
C389 C 0.26903 0.80222 0.35924 0.0
C390 C 0.2564 0.78377 0.36891 0.0
C391 C 0.26181 0.76172 0.36842 0.0
C392 C 0.27889 0.75766 0.35655 0.0
C393 C 0.29147 0.776 0.34703 0.0
C394 C 0.27571 0.81265 0.26175 0.0
C395 C 0.29605 0.76141 0.27022 0.0
O396 O 0.35304 0.80765 0.23808 0.0
O397 O 0.32077 0.79232 0.21801 0.0
O398 O 0.34186 0.78297 0.27387 0.0
O399 O 0.33937 0.81616 0.2908 0.0
O400 O 0.3295 0.843 0.2583 0.0
O401 O 0.32146 0.85167 0.29564 0.0
O402 O 0.2894 0.82623 0.3234 0.0
O403 O 0.31791 0.81373 0.33152 0.0
O404 O 0.27406 0.81612 0.28379 0.0
O405 O 0.29434 0.80943 0.25954 0.0
O406 O 0.29904 0.7758 0.29074 0.0
O407 O 0.30184 0.76956 0.25142 0.0
H408 H 0.36765 0.80202 0.18288 0.0
H409 H 0.3759 0.83406 0.15914 0.0
H410 H 0.34023 0.8744 0.20107 0.0
H411 H 0.3268 0.83971 0.21836 0.0
H412 H 0.26505 0.81939 0.36026 0.0
H413 H 0.2433 0.78723 0.37804 0.0
H414 H 0.28378 0.74106 0.35626 0.0
H415 H 0.30502 0.77252 0.33876 0.0
La416 La 0.59616 0.04896 0.53899 0.0
La417 La 0.54802 0.04478 0.54537 0.0
C418 C 0.63424 0.0444 0.53954 0.0
C419 C 0.646 0.02538 0.53681 0.0
C420 C 0.65615 0.02149 0.51674 0.0
C421 C 0.67051 1.00686 0.51575 0.0
C422 C 0.67518 0.99608 0.53495 0.0
C423 C 0.66384 0.99858 0.55425 0.0
C424 C 0.64945 1.01305 0.5552 0.0
C425 C 0.56973 0.04984 0.503 0.0
C426 C 0.56113 0.9966 0.53351 0.0
C427 C 0.50982 0.04909 0.54219 0.0
C428 C 0.49804 0.0678 0.54721 0.0
C429 C 0.4817 0.064 0.56167 0.0
C430 C 0.46785 0.07911 0.56371 0.0
C431 C 0.47 0.09844 0.55127 0.0
C432 C 0.48749 0.10329 0.53821 0.0
C433 C 0.50129 0.08811 0.53611 0.0
C434 C 0.57376 0.04446 0.58228 0.0
C435 C 0.58335 0.09736 0.5506 0.0
O436 O 0.6224 0.0465 0.52076 0.0
O437 O 0.62491 0.04735 0.55844 0.0
O438 O 0.59011 0.06188 0.50632 0.0
O439 O 0.56547 0.03685 0.51795 0.0
O440 O 0.58183 1.00983 0.53896 0.0
O441 O 0.54489 1.00678 0.5317 0.0
O442 O 0.51921 0.04273 0.56027 0.0
O443 O 0.52162 0.05049 0.52502 0.0
O444 O 0.55324 0.03273 0.57849 0.0
O445 O 0.57861 0.05686 0.56681 0.0
O446 O 0.56269 0.08403 0.54763 0.0
O447 O 0.59993 0.08763 0.55038 0.0
H448 H 0.65385 0.03077 0.50228 0.0
H449 H 0.67904 1.00534 0.50068 0.0
H450 H 0.66691 0.99022 0.56919 0.0
H451 H 0.64186 1.01547 0.57086 0.0
H452 H 0.47893 0.04857 0.57055 0.0
H453 H 0.45466 0.07464 0.57392 0.0
H454 H 0.49014 0.11841 0.52893 0.0
H455 H 0.51397 0.09178 0.52511 0.0
La456 La 0.29569 0.30188 0.77496 0.0
La457 La 0.34097 0.28997 0.77623 0.0
C458 C 0.25624 0.29946 0.77863 0.0
C459 C 0.24167 0.3 0.79698 0.0
C460 C 0.23268 0.31969 0.80143 0.0
C461 C 0.21673 0.31932 0.81629 0.0
C462 C 0.20919 0.29912 0.82697 0.0
C463 C 0.21911 0.28001 0.82354 0.0
C464 C 0.23511 0.28041 0.8087 0.0
C465 C 0.32854 0.34291 0.7743 0.0
C466 C 0.32517 0.30706 0.82393 0.0
C467 C 0.38021 0.29522 0.77041 0.0
C468 C 0.39342 0.28636 0.7532 0.0
C469 C 0.40429 0.26901 0.75777 0.0
C470 C 0.42014 0.26434 0.74422 0.0
C471 C 0.42571 0.27713 0.72595 0.0
C472 C 0.41353 0.29298 0.72019 0.0
C473 C 0.39764 0.29757 0.73366 0.0
C474 C 0.30907 0.24851 0.77681 0.0
C475 C 0.31053 0.28246 0.72707 0.0
O476 O 0.27118 0.31963 0.77872 0.0
O477 O 0.2635 0.28036 0.77375 0.0
O478 O 0.308 0.34142 0.77342 0.0
O479 O 0.32918 0.32117 0.77536 0.0
O480 O 0.30551 0.30382 0.81232 0.0
O481 O 0.34222 0.30525 0.8133 0.0
O482 O 0.37018 0.28025 0.78319 0.0
O483 O 0.36841 0.30897 0.76357 0.0
O484 O 0.32971 0.25058 0.77686 0.0
O485 O 0.3074 0.27013 0.77625 0.0
O486 O 0.3289 0.28144 0.73885 0.0
O487 O 0.29506 0.28972 0.73722 0.0
H488 H 0.23738 0.33505 0.79266 0.0
H489 H 0.20948 0.33432 0.81835 0.0
H490 H 0.21409 0.26437 0.83185 0.0
H491 H 0.24179 0.26501 0.80588 0.0
H492 H 0.40137 0.25993 0.77257 0.0
H493 H 0.42878 0.25153 0.7488 0.0
H494 H 0.41729 0.30322 0.70634 0.0
H495 H 0.38957 0.31101 0.72951 0.0
La496 La 0.06979 0.07124 0.54245 0.0
La497 La 0.07535 0.0268 0.52352 0.0
C498 C 0.07023 0.11513 0.55024 0.0
C499 C 0.06967 0.13204 0.53424 0.0
C500 C 0.05745 0.14865 0.53822 0.0
C501 C 0.05737 0.16545 0.52356 0.0
C502 C 0.06963 0.16584 0.5049 0.0
C503 C 0.08084 0.14824 0.50008 0.0
C504 C 0.08082 0.13135 0.51466 0.0
C505 C 0.03628 0.03495 0.54705 0.0
C506 C 0.05558 0.05094 0.48603 0.0
C507 C 0.07683 0.98375 0.51499 0.0
C508 C 0.07738 0.96711 0.53112 0.0
C509 C 0.09051 0.95138 0.52819 0.0
C510 C 0.09124 0.93553 0.54372 0.0
C511 C 0.07878 0.93538 0.56222 0.0
C512 C 0.06667 0.95223 0.56594 0.0
C513 C 0.06595 0.96803 0.55043 0.0
C514 C 0.10801 0.06353 0.51806 0.0
C515 C 0.08842 0.04507 0.57976 0.0
O516 O 0.05251 0.09733 0.54801 0.0
O517 O 0.0878 0.10777 0.55213 0.0
O518 O 0.04524 0.05427 0.56283 0.0
O519 O 0.04606 0.03654 0.52925 0.0
O520 O 0.0616 0.07029 0.50344 0.0
O521 O 0.05775 0.03003 0.49061 0.0
O522 O 0.0941 1.00228 0.51839 0.0
O523 O 0.05875 0.99004 0.51209 0.0
O524 O 0.09858 0.04445 0.50229 0.0
O525 O 0.099 0.06163 0.53635 0.0
O526 O 0.08178 0.02623 0.56203 0.0
O527 O 0.08702 0.06656 0.5757 0.0
H528 H 0.04836 0.14893 0.55293 0.0
H529 H 0.04838 0.17873 0.5273 0.0
H530 H 0.09053 0.14835 0.48585 0.0
H531 H 0.09 0.11825 0.51102 0.0
H532 H 0.09984 0.95105 0.51367 0.0
H533 H 0.10072 0.92264 0.5407 0.0
H534 H 0.05669 0.95219 0.57992 0.0
H535 H 0.05602 0.98049 0.55322 0.0
La536 La 0.33798 0.81314 0.76076 0.0
La537 La 0.29615 0.77635 0.75891 0.0
C538 C 0.37622 0.83955 0.77078 0.0
C539 C 0.39672 0.83357 0.77576 0.0
C540 C 0.41325 0.84059 0.76217 0.0
C541 C 0.43315 0.8358 0.76726 0.0
C542 C 0.43664 0.82403 0.78602 0.0
C543 C 0.41968 0.81564 0.79866 0.0
C544 C 0.39977 0.82035 0.79354 0.0
C545 C 0.31736 0.79188 0.719 0.0
C546 C 0.33808 0.75562 0.76139 0.0
C547 C 0.25827 0.7498 0.74527 0.0
C548 C 0.2371 0.75498 0.74263 0.0
C549 C 0.22749 0.76172 0.76232 0.0
C550 C 0.20785 0.76764 0.75937 0.0
C551 C 0.19762 0.76693 0.73676 0.0
C552 C 0.20732 0.76038 0.71714 0.0
C553 C 0.22686 0.75434 0.72006 0.0
C554 C 0.31611 0.79649 0.8012 0.0
C555 C 0.2963 0.83413 0.75873 0.0
O556 O 0.36638 0.83173 0.74917 0.0
O557 O 0.36284 0.83596 0.78628 0.0
O558 O 0.32828 0.81461 0.72403 0.0
O559 O 0.31953 0.78247 0.73664 0.0
O560 O 0.34934 0.77941 0.76624 0.0
O561 O 0.31645 0.75009 0.75584 0.0
O562 O 0.26817 0.75288 0.76677 0.0
O563 O 0.27148 0.75864 0.73099 0.0
O564 O 0.30413 0.77413 0.79549 0.0
O565 O 0.31483 0.80681 0.78391 0.0
O566 O 0.28486 0.81048 0.75537 0.0
O567 O 0.318 0.83963 0.76283 0.0
H568 H 0.41095 0.85031 0.74805 0.0
H569 H 0.44618 0.84235 0.75735 0.0
H570 H 0.42225 0.80682 0.81341 0.0
H571 H 0.38706 0.81426 0.80397 0.0
H572 H 0.23511 0.76256 0.77998 0.0
H573 H 0.20067 0.77279 0.77475 0.0
H574 H 0.19955 0.75933 0.69948 0.0
H575 H 0.23402 0.74925 0.70464 0.0
La576 La 0.56924 0.03849 0.06161 0.0
La577 La 0.56087 0.04792 1.01055 0.0
C578 C 0.56641 0.02697 0.10054 0.0
C579 C 0.54728 1.01482 0.10978 0.0
C580 C 0.54741 0.99392 0.119 0.0
C581 C 0.52994 0.98303 0.12953 0.0
C582 C 0.51284 0.9937 0.13156 0.0
C583 C 0.51106 1.01204 0.11896 0.0
C584 C 0.52841 0.02276 0.10816 0.0
C585 C 0.58224 1.01231 0.02897 0.0
C586 C 0.52169 0.02222 0.03186 0.0
C587 C 0.56526 0.04853 0.96888 0.0
C588 C 0.58153 0.06669 0.96014 0.0
C589 C 0.57883 0.08978 0.95858 0.0
C590 C 0.59503 0.10709 0.95128 0.0
C591 C 0.61408 0.10152 0.94535 0.0
C592 C 0.61731 0.07904 0.94857 0.0
C593 C 0.60115 0.06178 0.95563 0.0
C594 C 0.55676 0.08357 0.04231 0.0
C595 C 0.6059 0.07244 0.04417 0.0
O596 O 0.57088 1.01313 0.08287 0.0
O597 O 0.56802 0.04935 0.09728 0.0
O598 O 0.5929 0.02114 0.04978 0.0
O599 O 0.56455 0.01803 0.02664 0.0
O600 O 0.53405 0.02687 0.05248 0.0
O601 O 0.529 0.02592 1.01199 0.0
O602 O 0.54989 0.05606 0.97841 0.0
O603 O 0.5735 0.035 0.98121 0.0
O604 O 0.55455 0.08385 0.02002 0.0
O605 O 0.56126 0.06445 0.04473 0.0
O606 O 0.59531 0.06378 0.02263 0.0
O607 O 0.59744 0.06843 0.06341 0.0
H608 H 0.56153 0.98693 0.11932 0.0
H609 H 0.53143 0.96886 0.13926 0.0
H610 H 0.49788 0.02045 0.12051 0.0
H611 H 0.52759 0.03816 0.09999 0.0
H612 H 0.5641 0.09436 0.96256 0.0
H613 H 0.59213 0.12426 0.94891 0.0
H614 H 0.63157 0.07384 0.94379 0.0
H615 H 0.60391 0.04435 0.95715 0.0
La616 La 0.32413 0.31755 0.28358 0.0
La617 La 0.30269 0.26995 0.2593 0.0
C618 C 0.33471 0.36241 0.29809 0.0
C619 C 0.3208 0.37856 0.29773 0.0
C620 C 0.32309 0.39702 0.31708 0.0
C621 C 0.30913 0.41177 0.31725 0.0
C622 C 0.29272 0.4078 0.29823 0.0
C623 C 0.28981 0.38877 0.27929 0.0
C624 C 0.30388 0.37421 0.27897 0.0
C625 C 0.3214 0.28557 0.31218 0.0
C626 C 0.27263 0.2991 0.27542 0.0
C627 C 0.29284 0.22521 0.24369 0.0
C628 C 0.30674 0.20905 0.24554 0.0
C629 C 0.30742 0.19221 0.22585 0.0
C630 C 0.32226 0.17846 0.22691 0.0
C631 C 0.33658 0.18149 0.24769 0.0
C632 C 0.3361 0.19871 0.26725 0.0
C633 C 0.32133 0.21242 0.26617 0.0
C634 C 0.30546 0.30288 0.23154 0.0
C635 C 0.35387 0.28792 0.26852 0.0
O636 O 0.32979 0.34662 0.31181 0.0
O637 O 0.33798 0.35258 0.27751 0.0
O638 O 0.33839 0.30338 0.3121 0.0
O639 O 0.30672 0.28583 0.29605 0.0
O640 O 0.28999 0.31775 0.27737 0.0
O641 O 0.27389 0.27676 0.27033 0.0
O642 O 0.29929 0.24157 0.23088 0.0
O643 O 0.28754 0.23447 0.26345 0.0
O644 O 0.28849 0.2849 0.2311 0.0
O645 O 0.32011 0.30167 0.24708 0.0
O646 O 0.33653 0.26944 0.26696 0.0
O647 O 0.35272 0.3103 0.27237 0.0
H648 H 0.3358 0.40017 0.33182 0.0
H649 H 0.3116 0.42683 0.33174 0.0
H650 H 0.27738 0.38598 0.26432 0.0
H651 H 0.30168 0.35979 0.26395 0.0
H652 H 0.29666 0.18993 0.20963 0.0
H653 H 0.3225 0.1654 0.21157 0.0
H654 H 0.3467 0.20115 0.28362 0.0
H655 H 0.32145 0.22574 0.28147 0.0
La656 La 0.57148 0.56491 0.04599 0.0
La657 La 0.57929 0.52203 0.02663 0.0
C658 C 0.56947 0.60805 0.0532 0.0
C659 C 0.57124 0.62501 0.03682 0.0
C660 C 0.55801 0.64081 0.03706 0.0
C661 C 0.56008 0.65733 0.02173 0.0
C662 C 0.57552 0.65819 1.00618 0.0
C663 C 0.58788 0.64142 1.00508 0.0
C664 C 0.5857 0.62487 0.02022 0.0
C665 C 0.53913 0.52677 0.04975 0.0
C666 C 0.55893 0.54577 0.98914 0.0
C667 C 0.58292 0.47968 0.01816 0.0
C668 C 0.5825 0.46296 0.03438 0.0
C669 C 0.59367 0.44518 0.03134 0.0
C670 C 0.59253 0.42895 0.04688 0.0
C671 C 0.58044 0.43081 0.06557 0.0
C672 C 0.57091 0.44997 0.06961 0.0
C673 C 0.57151 0.46558 0.05384 0.0
C674 C 0.61051 0.5602 0.02135 0.0
C675 C 0.59189 0.54021 0.08332 0.0
O676 O 0.55227 0.58938 0.04818 0.0
O677 O 0.58716 0.60177 0.05882 0.0
O678 O 0.54779 0.54565 0.06613 0.0
O679 O 0.54888 0.52961 0.03207 0.0
O680 O 0.56374 0.56456 1.00706 0.0
O681 O 0.56226 0.52513 0.99319 0.0
O682 O 0.59959 0.49894 0.02322 0.0
O683 O 0.56457 0.48505 0.01354 0.0
O684 O 0.60186 0.54094 1.00555 0.0
O685 O 0.60164 0.55763 0.03963 0.0
O686 O 0.58618 0.52155 0.06536 0.0
O687 O 0.58921 0.56127 0.0794 0.0
H688 H 0.54644 0.64071 0.04941 0.0
H689 H 0.55046 0.67022 0.02284 0.0
H690 H 0.59972 0.64166 0.99301 0.0
H691 H 0.59567 0.61232 0.01926 0.0
H692 H 0.60258 0.44339 0.01661 0.0
H693 H 0.59993 0.41417 0.04349 0.0
H694 H 0.56176 0.45188 0.08412 0.0
H695 H 0.56269 0.47915 0.05646 0.0
La696 La 0.83977 0.31005 0.27094 0.0
La697 La 0.79823 0.27361 0.27195 0.0
C698 C 0.8782 0.33569 0.28225 0.0
C699 C 0.89879 0.32954 0.28666 0.0
C700 C 0.91442 0.33498 0.27166 0.0
C701 C 0.9346 0.33074 0.27647 0.0
C702 C 0.9393 0.32097 0.29627 0.0
C703 C 0.92335 0.31418 0.31056 0.0
C704 C 0.90315 0.31844 0.3058 0.0
C705 C 0.81853 0.286 0.23018 0.0
C706 C 0.83987 0.25258 0.27269 0.0
C707 C 0.76026 0.24682 0.26105 0.0
C708 C 0.73931 0.25216 0.25678 0.0
C709 C 0.72512 0.2499 0.27368 0.0
C710 C 0.70493 0.25432 0.26939 0.0
C711 C 0.69877 0.26078 0.24807 0.0
C712 C 0.71333 0.26419 0.23169 0.0
C713 C 0.73344 0.25985 0.23595 0.0
C714 C 0.81995 0.29491 0.31291 0.0
C715 C 0.79811 0.33095 0.26872 0.0
O716 O 0.86845 0.32954 0.26049 0.0
O717 O 0.86468 0.3309 0.29744 0.0
O718 O 0.82987 0.30862 0.23327 0.0
O719 O 0.82089 0.27841 0.24884 0.0
O720 O 0.85124 0.27624 0.27574 0.0
O721 O 0.81816 0.24706 0.26919 0.0
O722 O 0.77015 0.25339 0.28276 0.0
O723 O 0.77352 0.25208 0.24565 0.0
O724 O 0.80873 0.2722 0.30807 0.0
O725 O 0.81761 0.3048 0.29543 0.0
O726 O 0.78681 0.30747 0.26745 0.0
O727 O 0.81982 0.3365 0.27117 0.0
H728 H 0.91127 0.34324 0.25667 0.0
H729 H 0.94695 0.33621 0.26544 0.0
H730 H 0.92697 0.307 0.32615 0.0
H731 H 0.89129 0.31376 0.31755 0.0
H732 H 0.72942 0.24417 0.28994 0.0
H733 H 0.69371 0.25139 0.28207 0.0
H734 H 0.70873 0.26923 0.21514 0.0
H735 H 0.74412 0.26203 0.22267 0.0
La736 La 0.07281 0.55993 0.56848 0.0
La737 La 0.06197 0.56476 0.51977 0.0
C738 C 0.0716 0.55173 0.60893 0.0
C739 C 0.05347 0.53605 0.61737 0.0
C740 C 0.05498 0.51332 0.62167 0.0
C741 C 0.03865 0.49887 0.63128 0.0
C742 C 0.02139 0.50773 0.63778 0.0
C743 C 0.01801 0.52841 0.63002 0.0
C744 C 0.03417 0.54274 0.61997 0.0
C745 C 0.08631 0.53211 0.53745 0.0
C746 C 0.02542 0.53434 0.54006 0.0
C747 C 0.06406 0.56874 0.47812 0.0
C748 C 0.08185 0.58399 0.46866 0.0
C749 C 0.08019 0.60623 0.46304 0.0
C750 C 0.09693 0.62066 0.45378 0.0
C751 C 0.11527 0.61268 0.44938 0.0
C752 C 0.11777 0.59156 0.45711 0.0
C753 C 0.10118 0.57731 0.4666 0.0
C754 C 0.04877 0.59363 0.54993 0.0
C755 C 0.10843 0.59369 0.5496 0.0
O756 O 0.08056 0.54016 0.59353 0.0
O757 O 0.06869 0.57176 0.60312 0.0
O758 O 0.09765 0.54327 0.55743 0.0
O759 O 0.06797 0.53617 0.5355 0.0
O760 O 0.0374 0.54405 0.56074 0.0
O761 O 0.03349 0.53627 0.52037 0.0
O762 O 0.05376 0.58071 0.4916 0.0
O763 O 0.06826 0.55056 0.48677 0.0
O764 O 0.03826 0.58355 0.52925 0.0
O765 O 0.06671 0.58876 0.55277 0.0
O766 O 0.09659 0.58383 0.52883 0.0
O767 O 0.10094 0.58973 0.56928 0.0
H768 H 0.06936 0.50737 0.61893 0.0
H769 H 0.04134 0.48288 0.63722 0.0
H770 H 1.00463 0.53541 0.63489 0.0
H771 H 0.03212 0.55966 0.6157 0.0
H772 H 0.06567 0.61212 0.46515 0.0
H773 H 0.09473 0.637 0.44822 0.0
H774 H 0.13158 0.58469 0.45385 0.0
H775 H 0.10324 0.56061 0.47146 0.0
La776 La 0.79205 0.80054 0.28084 0.0
La777 La 0.83776 0.79001 0.28238 0.0
C778 C 0.75211 0.79378 0.28423 0.0
C779 C 0.73764 0.7997 0.30129 0.0
C780 C 0.72539 0.81594 0.29722 0.0
C781 C 0.70881 0.81835 0.31052 0.0
C782 C 0.70401 0.80449 0.32815 0.0
C783 C 0.71723 0.78945 0.33329 0.0
C784 C 0.7338 0.78702 0.31996 0.0
C785 C 0.82368 0.84265 0.28045 0.0
C786 C 0.82222 0.80883 0.32994 0.0
C787 C 0.87729 0.79502 0.27837 0.0
C788 C 0.89016 0.78815 0.26002 0.0
C789 C 0.90442 0.77407 0.26439 0.0
C790 C 0.91952 0.77112 0.24918 0.0
C791 C 0.92074 0.78236 0.22936 0.0
C792 C 0.90521 0.79473 0.22402 0.0
C793 C 0.89012 0.79763 0.23917 0.0
C794 C 0.80593 0.74804 0.28241 0.0
C795 C 0.80807 0.78235 0.23309 0.0
O796 O 0.7633 0.81135 0.27488 0.0
O797 O 0.76336 0.7788 0.2891 0.0
O798 O 0.80304 0.84031 0.28087 0.0
O799 O 0.82538 0.82108 0.28105 0.0
O800 O 0.80273 0.80679 0.31858 0.0
O801 O 0.83872 0.80487 0.31943 0.0
O802 O 0.86575 0.77765 0.28766 0.0
O803 O 0.86692 0.8111 0.27461 0.0
O804 O 0.82653 0.75016 0.28241 0.0
O805 O 0.80452 0.76968 0.28194 0.0
O806 O 0.82715 0.7837 0.24493 0.0
O807 O 0.79159 0.78701 0.24331 0.0
H808 H 0.72795 0.82599 0.28302 0.0
H809 H 0.69921 0.83046 0.30645 0.0
H810 H 0.71395 0.77846 0.34669 0.0
H811 H 0.7429 0.77431 0.32363 0.0
H812 H 0.90466 0.76638 0.28022 0.0
H813 H 0.93116 0.76141 0.25385 0.0
H814 H 0.90528 0.80307 0.20858 0.0
H815 H 0.8791 0.80824 0.23501 0.0
La816 La 0.83466 0.29992 0.75774 0.0
La817 La 0.81241 0.30433 0.80349 0.0
C818 C 0.84362 0.29793 0.71701 0.0
C819 C 0.85266 0.31782 0.70518 0.0
C820 C 0.87307 0.31989 0.69781 0.0
C821 C 0.88274 0.33973 0.68806 0.0
C822 C 0.87187 0.35745 0.68515 0.0
C823 C 0.85188 0.35588 0.69361 0.0
C824 C 0.84241 0.33629 0.7037 0.0
C825 C 0.86292 0.30108 0.79588 0.0
C826 C 0.83647 0.35074 0.78615 0.0
C827 C 0.80357 0.3056 0.84421 0.0
C828 C 0.78877 0.28669 0.85341 0.0
C829 C 0.7703 0.29103 0.86216 0.0
C830 C 0.75634 0.27305 0.87118 0.0
C831 C 0.76097 0.25071 0.87188 0.0
C832 C 0.77847 0.2458 0.8612 0.0
C833 C 0.7922 0.26359 0.85204 0.0
C834 C 0.78463 0.30451 0.76554 0.0
C835 C 0.80951 0.25309 0.77394 0.0
O836 O 0.85696 0.2963 0.7347 0.0
O837 O 0.82374 0.29555 0.72183 0.0
O838 O 0.86709 0.30045 0.77462 0.0
O839 O 0.84326 0.30194 0.79471 0.0
O840 O 0.83719 0.33827 0.76539 0.0
O841 O 0.83078 0.3408 0.80427 0.0
O842 O 0.7941 0.31522 0.82878 0.0
O843 O 0.82124 0.30067 0.83796 0.0
O844 O 0.7804 0.30598 0.78686 0.0
O845 O 0.80387 0.30232 0.76678 0.0
O846 O 0.80678 0.26568 0.79382 0.0
O847 O 0.81802 0.26259 0.75672 0.0
H848 H 0.88149 0.30613 0.69958 0.0
H849 H 0.89821 0.34066 0.6818 0.0
H850 H 0.84286 0.36898 0.69122 0.0
H851 H 0.82696 0.3355 0.70999 0.0
H852 H 0.76701 0.30852 0.86261 0.0
H853 H 0.74287 0.2772 0.87914 0.0
H854 H 0.78282 0.22899 0.86168 0.0
H855 H 0.80594 0.25941 0.84466 0.0
La856 La 0.82004 0.82422 0.79079 0.0
La857 La 0.79839 0.77248 0.76732 0.0
C858 C 0.83039 0.86917 0.80485 0.0
C859 C 0.81668 0.88523 0.8027 0.0
C860 C 0.8203 0.90661 0.81916 0.0
C861 C 0.80575 0.92068 0.81794 0.0
C862 C 0.78737 0.91303 0.80051 0.0
C863 C 0.78348 0.89109 0.78469 0.0
C864 C 0.79828 0.87757 0.78546 0.0
C865 C 0.82012 0.79223 0.81909 0.0
C866 C 0.76809 0.80283 0.78196 0.0
C867 C 0.78738 0.72714 0.75981 0.0
C868 C 0.80228 0.71213 0.76006 0.0
C869 C 0.79872 0.6912 0.74291 0.0
C870 C 0.81379 0.67765 0.74286 0.0
C871 C 0.83245 0.68536 0.75978 0.0
C872 C 0.83684 0.70744 0.77548 0.0
C873 C 0.82167 0.72049 0.77593 0.0
C874 C 0.80268 0.79937 0.73375 0.0
C875 C 0.84892 0.7948 0.77099 0.0
O876 O 0.82389 0.85346 0.81832 0.0
O877 O 0.83487 0.85908 0.78493 0.0
O878 O 0.83623 0.81089 0.81858 0.0
O879 O 0.80483 0.79175 0.8033 0.0
O880 O 0.78534 0.82206 0.78687 0.0
O881 O 0.76912 0.78073 0.77444 0.0
O882 O 0.78891 0.73972 0.74302 0.0
O883 O 0.78704 0.74029 0.78008 0.0
O884 O 0.79295 0.77645 0.73061 0.0
O885 O 0.80831 0.8066 0.75566 0.0
O886 O 0.83303 0.77548 0.77198 0.0
O887 O 0.84666 0.81682 0.77481 0.0
H888 H 0.83431 0.9124 0.83277 0.0
H889 H 0.80921 0.93778 0.8301 0.0
H890 H 0.76927 0.88468 0.77132 0.0
H891 H 0.79529 0.86111 0.77253 0.0
H892 H 0.78416 0.68513 0.73002 0.0
H893 H 0.81027 0.66056 0.73066 0.0
H894 H 0.85136 0.71372 0.78847 0.0
H895 H 0.82502 0.7369 0.78903 0.0
La896 La 0.54897 0.53505 0.52546 0.0
La897 La 0.59101 0.5618 0.55591 0.0
C898 C 0.50879 0.52141 0.51186 0.0
C899 C 0.49325 0.53597 0.5123 0.0
C900 C 0.47757 0.53238 0.49263 0.0
C901 C 0.4634 0.547 0.49225 0.0
C902 C 0.46483 0.56525 0.51159 0.0
C903 C 0.48111 0.56959 0.53086 0.0
C904 C 0.49542 0.55517 0.53113 0.0
C905 C 0.57977 0.53759 0.4961 0.0
C906 C 0.56658 0.59297 0.53099 0.0
C907 C 0.63102 0.57709 0.57069 0.0
C908 C 0.64793 0.56455 0.56947 0.0
C909 C 0.66645 0.57249 0.58647 0.0
C910 C 0.68215 0.55981 0.58622 0.0
C911 C 0.6793 0.53897 0.56908 0.0
C912 C 0.66035 0.5305 0.55257 0.0
C913 C 0.64471 0.54327 0.55274 0.0
C914 C 0.55934 0.56158 0.58425 0.0
C915 C 0.5748 0.50365 0.54927 0.0
O916 O 0.52322 0.52713 0.49794 0.0
O917 O 0.51751 0.51856 0.53218 0.0
O918 O 0.55926 0.52649 0.49081 0.0
O919 O 0.58262 0.54591 0.51851 0.0
O920 O 0.54973 0.57331 0.52563 0.0
O921 O 0.58532 0.59264 0.54213 0.0
O922 O 0.61642 0.56857 0.58357 0.0
O923 O 0.6223 0.58062 0.5507 0.0
O924 O 0.5797 0.57338 0.58953 0.0
O925 O 0.55723 0.55231 0.56223 0.0
O926 O 0.59067 0.52393 0.55665 0.0
O927 O 0.55627 0.50333 0.53696 0.0
H928 H 0.47614 0.51809 0.4777 0.0
H929 H 0.45059 0.54319 0.47749 0.0
H930 H 0.48213 0.58343 0.54606 0.0
H931 H 0.50791 0.55879 0.54618 0.0
H932 H 0.66879 0.58851 0.59984 0.0
H933 H 0.6967 0.56649 0.59912 0.0
H934 H 0.65804 0.51461 0.53903 0.0
H935 H 0.63022 0.53666 0.53975 0.0
La936 La 0.09464 0.55197 0.04772 0.0
La937 La 0.04613 0.54791 0.05228 0.0
C938 C 0.13286 0.54732 0.05125 0.0
C939 C 0.14516 0.52895 0.04621 0.0
C940 C 0.15666 0.52892 0.02685 0.0
C941 C 0.17109 0.51457 0.02387 0.0
C942 C 0.17461 0.49993 0.04026 0.0
C943 C 0.16222 0.49897 0.05895 0.0
C944 C 0.14776 0.51336 0.06194 0.0
C945 C 0.06942 0.55253 1.01033 0.0
C946 C 0.0587 0.49946 0.03965 0.0
C947 C 1.0081 0.55283 0.04892 0.0
C948 C 0.99648 0.57154 0.05516 0.0
C949 C 0.98422 0.57038 0.07389 0.0
C950 C 0.97021 0.58516 0.07743 0.0
C951 C 0.96789 0.60128 0.06215 0.0
C952 C 0.98129 0.60355 0.04439 0.0
C953 C 0.99538 0.58887 0.04094 0.0
C954 C 0.07131 0.54877 0.09032 0.0
C955 C 0.08136 0.60045 0.05795 0.0
O956 O 0.12359 0.55391 0.03323 0.0
O957 O 0.12079 0.54564 0.06818 0.0
O958 O 0.08983 0.56457 0.01452 0.0
O959 O 0.06457 0.54003 0.02561 0.0
O960 O 0.07949 0.51239 0.04554 0.0
O961 O 0.0427 0.50998 0.03783 0.0
O962 O 0.01671 0.54457 0.06617 0.0
O963 O 0.02053 0.55562 0.0324 0.0
O964 O 0.05086 0.53685 0.08612 0.0
O965 O 0.07638 0.56056 0.07454 0.0
O966 O 0.06073 0.58696 0.05365 0.0
O967 O 0.09796 0.5907 0.05942 0.0
H968 H 0.15513 0.54073 0.01441 0.0
H969 H 0.17996 0.51546 1.009 0.0
H970 H 0.16452 0.48807 0.07202 0.0
H971 H 0.13929 0.51297 0.07712 0.0
H972 H 0.98474 0.5573 0.08524 0.0
H973 H 0.96061 0.58329 0.09167 0.0
H974 H 0.97997 0.61559 0.03215 0.0
H975 H 1.00459 0.59033 0.02636 0.0
H976 H 0.03122 0.23191 0.99686 0.0
H977 H 0.06017 0.10373 0.97659 0.0
H978 H 0.04463 0.19832 0.93069 0.0
H979 H 0.05752 0.14166 0.04533 0.0
H980 H 0.05443 0.13832 0.95976 0.0
H981 H 0.04016 0.19939 0.01501 0.0
C982 C 0.03596 0.21771 0.98606 0.0
C983 C 0.03689 0.21795 0.962 0.0
C984 C 0.05508 0.13921 0.97853 0.0
C985 C 0.04729 0.18037 0.98293 0.0
C986 C 0.05834 0.11941 0.98814 0.0
C987 C 0.05922 0.11973 0.01237 0.0
C988 C 0.05215 0.15954 0.99313 0.0
C989 C 0.05697 0.14065 0.02656 0.0
C990 C 0.04116 0.19914 0.99653 0.0
C991 C 0.04342 0.199 0.94918 0.0
N992 N 0.05332 0.15956 0.01673 0.0
N993 N 0.04822 0.18109 0.9597 0.0
H994 H 0.14862 0.81766 0.20364 0.0
H995 H 0.27628 0.82312 0.21599 0.0
H996 H 0.18741 0.84017 0.15037 0.0
H997 H 0.23324 0.8031 0.26636 0.0
H998 H 0.24509 0.82816 0.19031 0.0
H999 H 0.18032 0.81186 0.22571 0.0
C1000 C 0.16388 0.82173 0.19662 0.0
C1001 C 0.1651 0.82967 0.17502 0.0
C1002 C 0.24254 0.82248 0.20693 0.0
C1003 C 0.20223 0.82267 0.20062 0.0
C1004 C 0.26031 0.81938 0.22148 0.0
C1005 C 0.25748 0.81264 0.24346 0.0
C1006 C 0.22183 0.81872 0.21441 0.0
C1007 C 0.23639 0.8084 0.24971 0.0
C1008 C 0.18214 0.81825 0.20929 0.0
C1009 C 0.18559 0.83427 0.167 0.0
N1010 N 0.21965 0.81154 0.23545 0.0
N1011 N 0.20328 0.8307 0.17974 0.0
H1012 H 0.51358 0.85399 0.44904 0.0
H1013 H 0.58619 0.96675 0.54423 0.0
H1014 H 0.56279 0.84628 0.50115 0.0
H1015 H 0.52545 0.96602 0.50475 0.0
H1016 H 0.57898 0.92316 0.52848 0.0
H1017 H 0.5188 0.89554 0.46883 0.0
C1018 C 0.5253 0.8609 0.46489 0.0
C1019 C 0.53772 0.84648 0.47346 0.0
C1020 C 0.56716 0.93253 0.52348 0.0
C1021 C 0.54391 0.8945 0.49624 0.0
C1022 C 0.57127 0.95738 0.53242 0.0
C1023 C 0.55634 0.96998 0.52589 0.0
C1024 C 0.54819 0.92038 0.50758 0.0
C1025 C 0.5373 0.957 0.5105 0.0
C1026 C 0.52827 0.88473 0.47619 0.0
C1027 C 0.55274 0.85664 0.49402 0.0
N1028 N 0.53389 0.93301 0.50171 0.0
N1029 N 0.55556 0.88014 0.50462 0.0
H1030 H 0.56101 0.29259 0.71183 0.0
H1031 H 0.43323 0.27864 0.67994 0.0
H1032 H 0.53348 0.30536 0.646 0.0
H1033 H 0.46481 0.27554 0.7479 0.0
H1034 H 0.46843 0.28408 0.6652 0.0
H1035 H 0.52478 0.28278 0.7236 0.0
C1036 C 0.5473 0.29342 0.69988 0.0
C1037 C 0.55035 0.30024 0.67811 0.0
C1038 C 0.46756 0.28203 0.68328 0.0
C1039 C 0.50846 0.28838 0.69122 0.0
C1040 C 0.44746 0.2789 0.69173 0.0
C1041 C 0.44593 0.27673 0.71531 0.0
C1042 C 0.48631 0.28306 0.69853 0.0
C1043 C 0.46493 0.27681 0.72956 0.0
C1044 C 0.52655 0.28771 0.70655 0.0
C1045 C 0.53192 0.30076 0.6632 0.0
N1046 N 0.48421 0.2801 0.72102 0.0
N1047 N 0.51173 0.29485 0.66999 0.0
H1048 H 0.01895 0.79429 0.58588 0.0
H1049 H 0.07887 0.93625 0.60938 0.0
H1050 H 0.03045 0.84008 0.65427 0.0
H1051 H 0.06819 0.88807 0.54236 0.0
H1052 H 0.06386 0.9011 0.62737 0.0
H1053 H 0.03813 0.82896 0.57005 0.0
C1054 C 0.02525 0.81185 0.59742 0.0
C1055 C 0.02291 0.81465 0.62121 0.0
C1056 C 0.06516 0.89825 0.60881 0.0
C1057 C 0.04541 0.85407 0.6036 0.0
C1058 C 0.07381 0.91819 0.59865 0.0
C1059 C 0.07476 0.91484 0.57449 0.0
C1060 C 0.05724 0.87513 0.59449 0.0
C1061 C 0.06802 0.89129 0.56115 0.0
C1062 C 0.03639 0.83154 0.5885 0.0
C1063 C 0.03153 0.83752 0.63565 0.0
N1064 N 0.05929 0.87232 0.57132 0.0
N1065 N 0.04258 0.85649 0.62661 0.0
H1066 H 0.55458 0.79756 0.84808 0.0
H1067 H 0.47033 0.86398 0.79808 0.0
H1068 H 0.56607 0.87513 0.85374 0.0
H1069 H 0.45243 0.78656 0.79645 0.0
H1070 H 0.50616 0.86731 0.81789 0.0
H1071 H 0.51705 0.79181 0.82919 0.0
C1072 C 0.54907 0.81325 0.84543 0.0
C1073 C 0.56322 0.83675 0.85177 0.0
C1074 C 0.49459 0.84948 0.81308 0.0
C1075 C 0.52112 0.83055 0.83084 0.0
C1076 C 0.47424 0.84758 0.80151 0.0
C1077 C 0.45879 0.82493 0.79537 0.0
C1078 C 0.49956 0.82852 0.81847 0.0
C1079 C 0.46422 0.80428 0.80083 0.0
C1080 C 0.52784 0.81003 0.83472 0.0
C1081 C 0.55566 0.85668 0.84839 0.0
N1082 N 0.48437 0.80653 0.8121 0.0
N1083 N 0.5351 0.85311 0.8381 0.0
H1084 H 0.51472 0.20406 0.09776 0.0
H1085 H 0.53847 0.07486 0.08147 0.0
H1086 H 0.49527 0.15367 0.14441 0.0
H1087 H 0.56404 0.13145 0.04321 0.0
H1088 H 0.52388 0.10326 0.10647 0.0
H1089 H 0.53278 0.17678 0.07784 0.0
C1090 C 0.5136 0.18681 0.10333 0.0
C1091 C 0.50313 0.18086 0.12251 0.0
C1092 C 0.53305 0.10957 0.09291 0.0
C1093 C 0.5243 0.14966 0.10001 0.0
C1094 C 0.5415 0.09349 0.07887 0.0
C1095 C 0.55216 0.10105 0.06034 0.0
C1096 C 0.53546 0.1331 0.08814 0.0
C1097 C 0.55558 0.12506 0.05722 0.0
C1098 C 0.52432 0.17141 0.09221 0.0
C1099 C 0.50294 0.15867 0.12946 0.0
N1100 N 0.5471 0.14025 0.07091 0.0
N1101 N 0.51339 0.14375 0.11814 0.0
H1102 H 0.19463 0.35712 0.36543 0.0
H1103 H 0.23465 0.26506 0.27639 0.0
H1104 H 0.15628 0.28347 0.33625 0.0
H1105 H 0.26614 0.34234 0.29391 0.0
H1106 H 0.20566 0.27128 0.29838 0.0
H1107 H 0.22208 0.35155 0.34047 0.0
C1108 C 0.19204 0.33982 0.35382 0.0
C1109 C 0.17321 0.3208 0.35272 0.0
C1110 C 0.21874 0.28693 0.29706 0.0
C1111 C 0.2041 0.3144 0.32419 0.0
C1112 C 0.23521 0.28342 0.28438 0.0
C1113 C 0.25286 0.30324 0.28348 0.0
C1114 C 0.22005 0.31038 0.30885 0.0
C1115 C 0.25283 0.32659 0.29419 0.0
C1116 C 0.20757 0.33669 0.33951 0.0
C1117 C 0.17056 0.29867 0.33751 0.0
N1118 N 0.23675 0.3295 0.30673 0.0
N1119 N 0.18587 0.29608 0.32378 0.0
H1120 H 0.01693 0.07633 0.22219 0.0
H1121 H 1.0107 0.04477 0.07867 0.0
H1122 H 0.95555 0.05299 0.17675 0.0
H1123 H 0.06902 0.0857 0.12543 0.0
H1124 H 0.99043 0.04418 0.11304 0.0
H1125 H 0.03586 0.07691 0.18727 0.0
C1126 C 1.00721 0.07123 0.20498 0.0
C1127 C 0.98414 0.06478 0.20327 0.0
C1128 C 1.00769 0.05336 0.11584 0.0
C1129 C 1.00655 0.06471 0.16159 0.0
C1130 C 0.01943 0.05368 0.09592 0.0
C1131 C 0.04207 0.06542 0.09832 0.0
C1132 C 0.01831 0.06457 0.13903 0.0
C1133 C 0.05178 0.07639 0.1219 0.0
C1134 C 0.01823 0.07156 0.18471 0.0
C1135 C 0.97316 0.05844 0.17971 0.0
N1136 N 0.04019 0.07559 0.14072 0.0
N1137 N 0.98423 0.05836 0.16032 0.0
H1138 H 0.27354 0.65397 0.44919 0.0
H1139 H 0.25977 0.77653 0.41415 0.0
H1140 H 0.30783 0.72625 0.48615 0.0
H1141 H 0.24909 0.71182 0.36153 0.0
H1142 H 0.26577 0.75356 0.44438 0.0
H1143 H 0.25668 0.67156 0.41903 0.0
C1144 C 0.27827 0.67351 0.45022 0.0
C1145 C 0.2925 0.68888 0.46945 0.0
C1146 C 0.26151 0.74422 0.42625 0.0
C1147 C 0.27256 0.70879 0.43645 0.0
C1148 C 0.25758 0.75717 0.40899 0.0
C1149 C 0.2545 0.74611 0.38531 0.0
C1150 C 0.26227 0.7202 0.41964 0.0
C1151 C 0.25193 0.721 0.37968 0.0
C1152 C 0.26829 0.68346 0.43347 0.0
C1153 C 0.29732 0.71402 0.47109 0.0
N1154 N 0.25653 0.70889 0.39679 0.0
N1155 N 0.28724 0.72328 0.45476 0.0
H1156 H 0.68576 0.07513 0.68646 0.0
H1157 H 0.56603 0.01786 0.61633 0.0
H1158 H 0.63744 1.01574 0.70407 0.0
H1159 H 0.6148 0.07395 0.59504 0.0
H1160 H 0.59191 0.01856 0.65008 0.0
H1161 H 0.66031 0.07519 0.65262 0.0
C1162 C 0.67003 0.06167 0.68284 0.0
C1163 C 0.66361 0.04538 0.69801 0.0
C1164 C 0.59702 0.03058 0.63792 0.0
C1165 C 0.6345 0.04573 0.65991 0.0
C1166 C 0.58227 0.03021 0.6188 0.0
C1167 C 0.58867 0.04539 0.60285 0.0
C1168 C 0.61824 0.04611 0.64077 0.0
C1169 C 0.60962 0.06147 0.60678 0.0
C1170 C 0.65544 0.06195 0.66374 0.0
C1171 C 0.64301 0.02856 0.69276 0.0
N1172 N 0.62385 0.0613 0.62539 0.0
N1173 N 0.62907 0.02935 0.67421 0.0
H1174 H 0.37201 0.36916 0.97152 0.0
H1175 H 0.2938 0.29682 0.85222 0.0
H1176 H 0.30423 0.33213 0.96907 0.0
H1177 H 0.36234 0.33132 0.8552 0.0
H1178 H 0.29738 0.30894 0.8948 0.0
H1179 H 0.3687 0.35576 0.92898 0.0
C1180 C 0.35646 0.35798 0.96196 0.0
C1181 C 0.3384 0.35163 0.97376 0.0
C1182 C 0.31167 0.31388 0.88621 0.0
C1183 C 0.33447 0.33588 0.92503 0.0
C1184 C 0.30964 0.30697 0.86183 0.0
C1185 C 0.32778 0.31316 0.85002 0.0
C1186 C 0.33196 0.32737 0.89905 0.0
C1187 C 0.34793 0.32607 0.86353 0.0
C1188 C 0.35456 0.35034 0.93768 0.0
C1189 C 0.31852 0.33747 0.96057 0.0
N1190 N 0.34943 0.33289 0.88726 0.0
N1191 N 0.31711 0.32995 0.93693 0.0
H1192 H 1.00102 0.09082 0.35538 0.0
H1193 H 0.04101 1.01364 0.44741 0.0
H1194 H 1.0042 1.01724 0.33537 0.0
H1195 H 0.04888 0.0906 0.46638 0.0
H1196 H 0.02624 1.01462 0.40728 0.0
H1197 H 0.01716 0.09118 0.39575 0.0
C1198 C 1.00509 0.07469 0.35931 0.0
C1199 C 1.0011 0.05399 0.34137 0.0
C1200 C 0.03121 0.03139 0.42008 0.0
C1201 C 0.01958 0.05416 0.3886 0.0
C1202 C 0.03973 0.03088 0.4433 0.0
C1203 C 0.04644 0.05208 0.46094 0.0
C1204 C 0.02901 0.05328 0.41373 0.0
C1205 C 0.04403 0.07367 0.45381 0.0
C1206 C 0.01437 0.07493 0.38258 0.0
C1207 C 1.00694 0.03378 0.34816 0.0
N1208 N 0.03558 0.07367 0.43106 0.0
N1209 N 0.01559 0.03434 0.3709 0.0
H1210 H 0.32512 0.67518 0.61635 0.0
H1211 H 0.28763 0.7863 0.68038 0.0
H1212 H 0.2887 0.71418 0.57846 0.0
H1213 H 0.34202 0.76274 0.70764 0.0
H1214 H 0.28227 0.75549 0.6444 0.0
H1215 H 0.32535 0.7026 0.65268 0.0
C1216 C 0.31727 0.6896 0.61576 0.0
C1217 C 0.30738 0.69297 0.59456 0.0
C1218 C 0.29549 0.75738 0.65825 0.0
C1219 C 0.30734 0.72395 0.63558 0.0
C1220 C 0.29866 0.77501 0.6784 0.0
C1221 C 0.31558 0.77716 0.69624 0.0
C1222 C 0.30928 0.74206 0.65655 0.0
C1223 C 0.32907 0.76173 0.69379 0.0
C1224 C 0.31734 0.70514 0.63637 0.0
C1225 C 0.29706 0.71156 0.59453 0.0
N1226 N 0.3256 0.74473 0.67423 0.0
N1227 N 0.29734 0.72652 0.61486 0.0
H1228 H 0.62 0.06198 0.8145 0.0
H1229 H 0.65855 0.11306 0.94546 0.0
H1230 H 0.68899 0.08643 0.83999 0.0
H1231 H 0.59927 0.1195 0.90855 0.0
H1232 H 0.67318 0.10933 0.90835 0.0
H1233 H 0.61325 0.084 0.85073 0.0
C1234 C 0.63367 0.07173 0.82791 0.0
C1235 C 0.65499 0.07228 0.82444 0.0
C1236 C 0.65733 0.1126 0.90859 0.0
C1237 C 0.64758 0.09825 0.86541 0.0
C1238 C 0.64907 0.115 0.92979 0.0
C1239 C 0.62718 0.11498 0.92973 0.0
C1240 C 0.64351 0.11051 0.88774 0.0
C1241 C 0.61591 0.11847 0.90926 0.0
C1242 C 0.6299 0.08473 0.84833 0.0
C1243 C 0.67223 0.08524 0.84226 0.0
N1244 N 0.62385 0.11502 0.88877 0.0
N1245 N 0.66814 0.09778 0.86214 0.0
H1246 H 0.34548 0.33542 0.09813 0.0
H1247 H 0.28358 0.33116 0.21154 0.0
H1248 H 0.31027 0.38698 0.12051 0.0
H1249 H 0.33636 0.29903 0.20284 0.0
H1250 H 0.28967 0.34796 0.17561 0.0
H1251 H 0.33863 0.31772 0.13339 0.0
C1252 C 0.3362 0.34296 0.11034 0.0
C1253 C 0.32861 0.36292 0.10629 0.0
C1254 C 0.29999 0.33729 0.18158 0.0
C1255 C 0.32052 0.34249 0.14678 0.0
C1256 C 0.29652 0.32775 0.2021 0.0
C1257 C 0.30974 0.31406 0.21043 0.0
C1258 C 0.31644 0.33258 0.16882 0.0
C1259 C 0.32611 0.30991 0.19733 0.0
C1260 C 0.33239 0.33289 0.13055 0.0
C1261 C 0.31666 0.3718 0.12288 0.0
N1262 N 0.3289 0.31895 0.17715 0.0
N1263 N 0.31294 0.36152 0.14222 0.0
H1264 H 0.2918 0.01828 0.01841 0.0
H1265 H 0.17781 0.99769 0.06795 0.0
H1266 H 0.2586 0.95024 0.03653 0.0
H1267 H 0.21016 0.06187 0.04272 0.0
H1268 H 0.20845 0.98063 0.0603 0.0
H1269 H 0.26286 0.03545 0.03057 0.0
C1270 C 0.27817 1.007 0.02481 0.0
C1271 C 0.27692 0.98284 0.02594 0.0
C1272 C 0.2088 0.99846 0.05652 0.0
C1273 C 0.24422 1.00218 0.04044 0.0
C1274 C 0.19144 1.0081 0.06088 0.0
C1275 C 0.19179 0.03107 0.05588 0.0
C1276 C 0.2262 1.01196 0.04692 0.0
C1277 C 0.20956 0.04411 0.04683 0.0
C1278 C 0.26176 1.01673 0.03187 0.0
C1279 C 0.25946 0.96882 0.0348 0.0
N1280 N 0.22604 0.03431 0.04252 0.0
N1281 N 0.24362 0.97874 0.04179 0.0
H1282 H 0.73832 0.66823 0.05012 0.0
H1283 H 0.63353 0.56083 0.98457 0.0
H1284 H 0.73209 0.63219 0.97843 0.0
H1285 H 0.63749 0.59755 0.05574 0.0
H1286 H 0.66965 0.58663 0.98254 0.0
H1287 H 0.70194 0.64267 0.05303 0.0
C1288 C 0.72921 0.65487 0.03498 0.0
C1289 C 0.73814 0.65229 0.01399 0.0
C1290 C 0.66269 0.58921 0.99862 0.0
C1291 C 0.69646 0.62289 0.01713 0.0
C1292 C 0.64196 0.57445 0.9998 0.0
C1293 C 0.6323 0.57699 0.02034 0.0
C1294 C 0.67415 0.60691 0.01811 0.0
C1295 C 0.6442 0.59495 0.03951 0.0
C1296 C 0.70846 0.64029 0.03664 0.0
C1297 C 0.72576 0.63476 0.99491 0.0
N1298 N 0.66447 0.6092 0.03793 0.0
N1299 N 0.7056 0.62075 0.99694 0.0
H1300 H 0.76532 0.47181 0.2545 0.0
H1301 H 0.75411 0.33122 0.27183 0.0
H1302 H 0.71179 0.43148 0.284 0.0
H1303 H 0.8151 0.38009 0.26467 0.0
H1304 H 0.73714 0.36515 0.27224 0.0
H1305 H 0.78193 0.43769 0.25415 0.0
C1306 C 0.75681 0.45588 0.26086 0.0
C1307 C 0.73675 0.45548 0.26944 0.0
C1308 C 0.75425 0.36861 0.27054 0.0
C1309 C 0.75622 0.41451 0.26856 0.0
C1310 C 0.76412 0.34891 0.27023 0.0
C1311 C 0.78653 0.35192 0.26823 0.0
C1312 C 0.76637 0.3923 0.26843 0.0
C1313 C 0.79795 0.37605 0.26628 0.0
C1314 C 0.76651 0.43608 0.26068 0.0
C1315 C 0.72717 0.43351 0.27733 0.0
N1316 N 0.78794 0.39468 0.26628 0.0
N1317 N 0.73669 0.41438 0.27651 0.0
H1318 H 0.88777 0.50037 0.49641 0.0
H1319 H 1.00232 0.51341 0.57211 0.0
H1320 H 0.89751 0.45406 0.5456 0.0
H1321 H 0.9953 0.53684 0.50553 0.0
H1322 H 0.96248 0.50018 0.56928 0.0
H1323 H 0.9264 0.52333 0.50689 0.0
C1324 C 0.89804 0.49521 0.50946 0.0
C1325 C 0.88992 0.47496 0.5196 0.0
C1326 C 0.96978 0.50834 0.55539 0.0
C1327 C 0.93329 0.50099 0.53189 0.0
C1328 C 0.99236 0.51567 0.55694 0.0
C1329 C 1.00187 0.52545 0.53869 0.0
C1330 C 0.95692 0.51134 0.53571 0.0
C1331 C 0.98847 0.52858 0.51958 0.0
C1332 C 0.91991 0.50824 0.51546 0.0
C1333 C 0.90351 0.46913 0.53681 0.0
N1334 N 0.96659 0.52147 0.51855 0.0
N1335 N 0.92465 0.48201 0.54233 0.0
H1336 H 0.37317 0.05434 0.27036 0.0
H1337 H 0.37892 0.19317 0.26866 0.0
H1338 H 0.42304 0.11537 0.31211 0.0
H1339 H 0.32539 0.13259 0.23251 0.0
H1340 H 0.39849 0.16456 0.27943 0.0
H1341 H 0.35781 0.0826 0.25199 0.0
C1342 C 0.38063 0.07371 0.27596 0.0
C1343 C 0.39913 0.08267 0.29307 0.0
C1344 C 0.3826 0.15755 0.26884 0.0
C1345 C 0.38201 0.11487 0.27189 0.0
C1346 C 0.37146 0.17385 0.2627 0.0
C1347 C 0.35042 0.16513 0.25002 0.0
C1348 C 0.37248 0.13249 0.26233 0.0
C1349 C 0.34161 0.14002 0.24229 0.0
C1350 C 0.37204 0.08978 0.26526 0.0
C1351 C 0.40859 0.10781 0.29918 0.0
N1352 N 0.35259 0.12451 0.24887 0.0
N1353 N 0.39985 0.12309 0.28864 0.0
H1354 H 0.37204 0.16466 0.49999 0.0
H1355 H 0.44574 0.11114 0.58557 0.0
H1356 H 0.35257 0.14248 0.56391 0.0
H1357 H 0.45442 0.11562 0.51361 0.0
H1358 H 0.4147 0.12817 0.58074 0.0
H1359 H 0.40539 0.15232 0.50756 0.0
C1360 C 0.37471 0.15713 0.51558 0.0
C1361 C 0.35924 0.15428 0.5311 0.0
C1362 C 0.42355 0.12556 0.5661 0.0
C1363 C 0.39767 0.14034 0.54008 0.0
C1364 C 0.44127 0.11576 0.5688 0.0
C1365 C 0.45281 0.11167 0.54993 0.0
C1366 C 0.41733 0.13151 0.54442 0.0
C1367 C 0.44639 0.11863 0.52882 0.0
C1368 C 0.3938 0.15011 0.51993 0.0
C1369 C 0.36384 0.14469 0.55123 0.0
N1370 N 0.42913 0.12805 0.52665 0.0
N1371 N 0.38259 0.13806 0.55512 0.0
H1372 H 0.71941 0.61623 0.32221 0.0
H1373 H 0.79859 0.70506 0.25125 0.0
H1374 H 0.74803 0.58963 0.26354 0.0
H1375 H 0.77616 0.7331 0.31394 0.0
H1376 H 0.778 0.66365 0.25404 0.0
H1377 H 0.73812 0.65826 0.31891 0.0
C1378 C 0.72974 0.61899 0.30869 0.0
C1379 C 0.73207 0.5985 0.29343 0.0
C1380 C 0.77728 0.67873 0.26717 0.0
C1381 C 0.75368 0.6481 0.28904 0.0
C1382 C 0.78896 0.70272 0.26543 0.0
C1383 C 0.789 0.72341 0.28194 0.0
C1384 C 0.76545 0.67438 0.28601 0.0
C1385 C 0.77639 0.71832 0.30021 0.0
C1386 C 0.74046 0.64333 0.30675 0.0
C1387 C 0.74575 0.60421 0.27617 0.0
N1388 N 0.76541 0.6947 0.30175 0.0
N1389 N 0.75571 0.628 0.27446 0.0
H1390 H 0.93855 0.47081 0.8425 0.0
H1391 H 0.84342 0.38085 0.75413 0.0
H1392 H 0.90342 0.50057 0.793 0.0
H1393 H 0.8508 0.37971 0.82862 0.0
H1394 H 0.86805 0.42233 0.76265 0.0
H1395 H 0.91046 0.43168 0.83072 0.0
C1396 C 0.92485 0.46891 0.82922 0.0
C1397 C 0.92245 0.48849 0.81914 0.0
C1398 C 0.86384 0.41287 0.77695 0.0
C1399 C 0.89121 0.44493 0.8056 0.0
C1400 C 0.84991 0.38947 0.77218 0.0
C1401 C 0.84583 0.37681 0.79065 0.0
C1402 C 0.8737 0.42283 0.80011 0.0
C1403 C 0.85396 0.3887 0.81382 0.0
C1404 C 0.909 0.44691 0.82257 0.0
C1405 C 0.90503 0.48561 0.8015 0.0
N1406 N 0.86807 0.41099 0.81788 0.0
N1407 N 0.8898 0.46396 0.79517 0.0
H1408 H 0.10079 0.87173 0.0549 0.0
H1409 H 0.09289 1.00726 0.08576 0.0
H1410 H 0.09771 0.90444 0.12561 0.0
H1411 H 0.05941 0.96152 0.02022 0.0
H1412 H 0.09964 0.97154 0.09955 0.0
H1413 H 0.09029 0.90566 0.04058 0.0
C1414 C 0.09797 0.88607 0.06743 0.0
C1415 C 0.1002 0.88518 0.09155 0.0
C1416 C 0.09081 0.96926 0.08215 0.0
C1417 C 0.08867 0.92448 0.07525 0.0
C1418 C 0.08703 0.98969 0.07419 0.0
C1419 C 0.07563 0.98751 0.05171 0.0
C1420 C 0.08376 0.94633 0.06737 0.0
C1421 C 0.06825 0.96411 0.03766 0.0
C1422 C 0.09187 0.90537 0.05921 0.0
C1423 C 0.09614 0.90426 0.1069 0.0
N1424 N 0.0727 0.94453 0.04556 0.0
N1425 N 0.09094 0.92322 0.09857 0.0
H1426 H 0.94497 0.26698 0.91104 0.0
H1427 H 0.90617 0.31979 0.79899 0.0
H1428 H 0.98596 0.29178 0.86042 0.0
H1429 H 0.85923 0.28044 0.83717 0.0
H1430 H 0.93548 0.31352 0.82491 0.0
H1431 H 0.91393 0.27421 0.88753 0.0
C1432 C 0.94751 0.27389 0.89497 0.0
C1433 C 0.96834 0.27856 0.88778 0.0
C1434 C 0.91887 0.30636 0.82794 0.0
C1435 C 0.93258 0.28751 0.86083 0.0
C1436 C 0.90195 0.31014 0.81317 0.0
C1437 C 0.87993 0.30089 0.81576 0.0
C1438 C 0.91422 0.29299 0.8459 0.0
C1439 C 0.87583 0.28836 0.83456 0.0
C1440 C 0.92969 0.27804 0.88154 0.0
C1441 C 0.97035 0.28756 0.86672 0.0
N1442 N 0.89275 0.28469 0.84878 0.0
N1443 N 0.95293 0.29185 0.85427 0.0
H1444 H 0.62443 0.25659 0.57161 0.0
H1445 H 0.56312 0.11973 0.58132 0.0
H1446 H 0.57495 0.23529 0.61532 0.0
H1447 H 0.61303 0.1349 0.53698 0.0
H1448 H 0.5678 0.16294 0.59294 0.0
H1449 H 0.61995 0.21313 0.55618 0.0
C1450 C 0.6124 0.24287 0.57762 0.0
C1451 C 0.60019 0.2496 0.59494 0.0
C1452 C 0.57772 0.15706 0.58052 0.0
C1453 C 0.59533 0.20023 0.57785 0.0
C1454 C 0.57502 0.13231 0.57389 0.0
C1455 C 0.58751 0.12382 0.55798 0.0
C1456 C 0.59288 0.17374 0.57097 0.0
C1457 C 0.60307 0.14087 0.5493 0.0
C1458 C 0.61003 0.21812 0.56902 0.0
C1459 C 0.58492 0.23108 0.6022 0.0
N1460 N 0.60524 0.16517 0.55577 0.0
N1461 N 0.58309 0.20744 0.59379 0.0
H1462 H 0.60812 0.79236 0.42384 0.0
H1463 H 0.6634 0.80225 0.30713 0.0
H1464 H 0.57181 0.78698 0.35585 0.0
H1465 H 0.69892 0.80462 0.37471 0.0
H1466 H 0.63014 0.79861 0.32495 0.0
H1467 H 0.64155 0.7985 0.40642 0.0
C1468 C 0.60709 0.79223 0.40514 0.0
C1469 C 0.58694 0.78886 0.39124 0.0
C1470 C 0.64521 0.80008 0.33595 0.0
C1471 C 0.62557 0.79603 0.37112 0.0
C1472 C 0.66429 0.80237 0.32582 0.0
C1473 C 0.68407 0.80388 0.33944 0.0
C1474 C 0.64578 0.79931 0.35996 0.0
C1475 C 0.68404 0.80335 0.36348 0.0
C1476 C 0.62631 0.79586 0.39523 0.0
C1477 C 0.58689 0.7894 0.36723 0.0
N1478 N 0.66521 0.80112 0.37296 0.0
N1479 N 0.60589 0.79281 0.35792 0.0
H1480 H 0.11413 0.30973 0.47616 0.0
H1481 H 0.06837 0.16519 0.45769 0.0
H1482 H 0.10523 0.26121 0.40949 0.0
H1483 H 0.08009 0.21334 0.52486 0.0
H1484 H 0.07921 0.20064 0.43895 0.0
H1485 H 0.09979 0.2746 0.49418 0.0
C1486 C 0.10933 0.29169 0.46541 0.0
C1487 C 0.11106 0.28825 0.44145 0.0
C1488 C 0.07919 0.20341 0.45777 0.0
C1489 C 0.09436 0.24833 0.46162 0.0
C1490 C 0.07299 0.18326 0.46837 0.0
C1491 C 0.07328 0.18653 0.49273 0.0
C1492 C 0.0859 0.22678 0.47177 0.0
C1493 C 0.07932 0.21016 0.50595 0.0
C1494 C 0.10104 0.2717 0.47561 0.0
C1495 C 0.10448 0.2646 0.42816 0.0
N1496 N 0.08557 0.22945 0.49529 0.0
N1497 N 0.09634 0.2455 0.43844 0.0
H1498 H 0.56708 0.27497 0.2357 0.0
H1499 H 0.67307 0.23416 0.20902 0.0
H1500 H 0.57456 0.23218 0.17108 0.0
H1501 H 0.67332 0.28476 0.27175 0.0
H1502 H 0.63539 0.23159 0.19684 0.0
H1503 H 0.60492 0.27764 0.25141 0.0
C1504 C 0.57668 0.26611 0.22499 0.0
C1505 C 0.56805 0.25353 0.20213 0.0
C1506 C 0.64357 0.24344 0.21323 0.0
C1507 C 0.61039 0.25621 0.21966 0.0
C1508 C 0.6651 0.24498 0.22007 0.0
C1509 C 0.67616 0.26002 0.24111 0.0
C1510 C 0.63298 0.25714 0.2275 0.0
C1511 C 0.66511 0.27313 0.25527 0.0
C1512 C 0.59811 0.26767 0.23384 0.0
C1513 C 0.58082 0.24237 0.18869 0.0
N1514 N 0.64393 0.27152 0.24811 0.0
N1515 N 0.60133 0.24395 0.19771 0.0
H1516 H 0.60737 0.92015 0.91096 0.0
H1517 H 0.6156 0.99378 0.03804 0.0
H1518 H 0.63375 0.89906 0.97319 0.0
H1519 H 0.56276 0.9895 0.98409 0.0
H1520 H 0.62641 0.96321 0.01258 0.0
H1521 H 0.59511 0.95043 0.93582 0.0
C1522 C 0.61092 0.92218 0.92986 0.0
C1523 C 0.62186 0.90738 0.94017 0.0
C1524 C 0.61252 0.96904 1.00625 0.0
C1525 C 0.6077 0.94152 0.96829 0.0
C1526 C 0.60638 0.98655 0.02067 0.0
C1527 C 0.58849 0.99437 0.01289 0.0
C1528 C 0.60096 0.95965 0.98372 0.0
C1529 C 0.57695 0.98423 0.99041 0.0
C1530 C 0.60364 0.93917 0.94391 0.0
C1531 C 0.6256 0.91033 0.96463 0.0
N1532 N 0.58356 0.96738 0.97634 0.0
N1533 N 0.61857 0.92723 0.97793 0.0
H1534 H 0.95985 0.79886 0.6985 0.0
H1535 H 0.86253 0.75439 0.77031 0.0
H1536 H 0.94394 0.73047 0.72287 0.0
H1537 H 0.88081 0.82701 0.75504 0.0
H1538 H 0.89277 0.74586 0.7525 0.0
H1539 H 0.93048 0.8099 0.71772 0.0
C1540 C 0.95004 0.78617 0.70772 0.0
C1541 C 0.95424 0.76388 0.70943 0.0
C1542 C 0.89037 0.76378 0.75317 0.0
C1543 C 0.92126 0.77622 0.73122 0.0
C1544 C 0.87308 0.7686 0.76336 0.0
C1545 C 0.86907 0.79121 0.76378 0.0
C1546 C 0.90377 0.78175 0.74335 0.0
C1547 C 0.88341 0.80924 0.75491 0.0
C1548 C 0.93351 0.79251 0.71878 0.0
C1549 C 0.94133 0.74798 0.72149 0.0
N1550 N 0.90016 0.80403 0.74476 0.0
N1551 N 0.92541 0.7545 0.73196 0.0
H1552 H 0.1708 0.05856 0.88254 0.0
H1553 H 0.06005 0.0208 0.94199 0.0
H1554 H 0.10683 0.0292 0.84275 0.0
H1555 H 0.1202 0.06434 0.98415 0.0
H1556 H 0.07781 0.022 0.90689 0.0
H1557 H 0.15425 0.05938 0.91926 0.0
C1558 C 0.15326 0.05212 0.88131 0.0
C1559 C 0.14053 0.04379 0.85876 0.0
C1560 C 0.08736 0.03137 0.92366 0.0
C1561 C 0.12089 0.0443 0.90211 0.0
C1562 C 0.07712 0.03069 0.94421 0.0
C1563 C 0.08818 0.04241 0.96705 0.0
C1564 C 0.10955 0.04375 0.92485 0.0
C1565 C 0.1105 0.05483 0.96752 0.0
C1566 C 0.14372 0.05267 0.90259 0.0
C1567 C 0.11772 0.03594 0.85919 0.0
N1568 N 0.12023 0.05503 0.9471 0.0
N1569 N 0.10893 0.0362 0.88004 0.0
H1570 H 0.84446 0.37746 0.55139 0.0
H1571 H 0.87137 0.40512 0.68892 0.0
H1572 H 0.83073 0.4369 0.59589 0.0
H1573 H 0.88623 0.34692 0.64363 0.0
H1574 H 0.86604 0.42408 0.65502 0.0
H1575 H 0.8666 0.37094 0.58484 0.0
C1576 C 0.84558 0.38862 0.56845 0.0
C1577 C 0.8353 0.40721 0.57129 0.0
C1578 C 0.87116 0.40756 0.65267 0.0
C1579 C 0.86105 0.4005 0.60929 0.0
C1580 C 0.87434 0.39686 0.67201 0.0
C1581 C 0.87838 0.37401 0.66882 0.0
C1582 C 0.87191 0.39505 0.63027 0.0
C1583 C 0.8827 0.36433 0.64682 0.0
C1584 C 0.85866 0.38534 0.58738 0.0
C1585 C 0.83805 0.42199 0.59334 0.0
N1586 N 0.8787 0.37457 0.62815 0.0
N1587 N 0.85058 0.41817 0.61166 0.0
H1588 H 0.51618 0.01803 0.36295 0.0
H1589 H 0.54913 0.08297 0.49371 0.0
H1590 H 0.49775 0.08206 0.39131 0.0
H1591 H 0.55455 1.01111 0.4686 0.0
H1592 H 0.52373 0.0793 0.45833 0.0
H1593 H 0.5252 1.01176 0.40263 0.0
C1594 C 0.51465 0.03115 0.37764 0.0
C1595 C 0.50725 0.05126 0.37418 0.0
C1596 C 0.53036 0.06425 0.46055 0.0
C1597 C 0.51686 0.0439 0.41925 0.0
C1598 C 0.545 0.06657 0.48044 0.0
C1599 C 0.55447 0.04785 0.48278 0.0
C1600 C 0.52612 0.04344 0.44296 0.0
C1601 C 0.54802 0.02625 0.46636 0.0
C1602 C 0.51922 0.02722 0.40021 0.0
C1603 C 0.50422 0.06689 0.39352 0.0
N1604 N 0.53451 0.02479 0.44662 0.0
N1605 N 0.50934 0.06306 0.41538 0.0
H1606 H 0.78323 0.76204 0.07888 0.0
H1607 H 0.82892 0.75347 0.20956 0.0
H1608 H 0.83504 0.73064 0.09781 0.0
H1609 H 0.78239 0.79393 0.19751 0.0
H1610 H 0.82933 0.74415 0.16774 0.0
H1611 H 0.78202 0.77501 0.12107 0.0
C1612 C 0.7947 0.75843 0.09183 0.0
C1613 C 0.80924 0.74518 0.08475 0.0
C1614 C 0.819 0.75514 0.17401 0.0
C1615 C 0.80752 0.75928 0.13281 0.0
C1616 C 0.81871 0.76043 0.19805 0.0
C1617 C 0.8058 0.77477 0.20718 0.0
C1618 C 0.80636 0.76427 0.15855 0.0
C1619 C 0.7926 0.78282 0.19121 0.0
C1620 C 0.7938 0.76555 0.11588 0.0
C1621 C 0.82348 0.74068 0.10232 0.0
N1622 N 0.79332 0.7776 0.1676 0.0
N1623 N 0.82211 0.74749 0.12533 0.0
H1624 H 0.17059 0.06053 0.71676 0.0
H1625 H 0.08116 1.00342 0.59986 0.0
H1626 H 0.12161 0.99256 0.71073 0.0
H1627 H 0.11725 0.07904 0.6163 0.0
H1628 H 0.09689 0.99804 0.6384 0.0
H1629 H 0.15322 0.06635 0.67922 0.0
C1630 C 0.1561 0.04677 0.70766 0.0
C1631 C 0.14775 0.02601 0.71752 0.0
C1632 C 0.10144 1.01586 0.63369 0.0
C1633 C 0.12741 0.03255 0.67324 0.0
C1634 C 0.09241 0.01899 0.61144 0.0
C1635 C 0.09765 0.0418 0.60421 0.0
C1636 C 0.11651 0.03549 0.64929 0.0
C1637 C 0.1124 0.06109 0.62065 0.0
C1638 C 0.1461 0.05016 0.68601 0.0
C1639 C 0.12887 1.00891 0.70428 0.0
N1640 N 0.12133 0.05745 0.64193 0.0
N1641 N 0.11958 1.01248 0.68309 0.0
H1642 H 0.85066 0.40866 0.43527 0.0
H1643 H 0.81207 0.27804 0.35308 0.0
H1644 H 0.80183 0.34808 0.44957 0.0
H1645 H 0.83905 0.34342 0.32653 0.0
H1646 H 0.81473 0.30279 0.39167 0.0
H1647 H 0.85206 0.38423 0.39734 0.0
C1648 C 0.83987 0.39039 0.42998 0.0
C1649 C 0.82573 0.38024 0.44483 0.0
C1650 C 0.82034 0.31163 0.37743 0.0
C1651 C 0.82766 0.35237 0.4026 0.0
C1652 C 0.81902 0.29755 0.35554 0.0
C1653 C 0.82534 0.30882 0.33676 0.0
C1654 C 0.82823 0.33701 0.38044 0.0
C1655 C 0.83413 0.33412 0.3407 0.0
C1656 C 0.84081 0.37647 0.40864 0.0
C1657 C 0.81261 0.35638 0.43811 0.0
N1658 N 0.83523 0.34749 0.36221 0.0
N1659 N 0.81387 0.34313 0.41732 0.0
H1660 H 0.50141 0.05479 0.26696 0.0
H1661 H 0.48004 0.96167 0.14698 0.0
H1662 H 0.44096 0.99845 0.24216 0.0
H1663 H 0.531 0.02913 0.16756 0.0
H1664 H 0.47058 0.96659 0.18719 0.0
H1665 H 0.51814 0.03587 0.23661 0.0
C1666 C 0.49162 0.03852 0.25502 0.0
C1667 C 0.46951 0.02883 0.25619 0.0
C1668 C 0.48398 0.98007 0.18281 0.0
C1669 C 0.48843 1.00727 0.22159 0.0
C1670 C 0.48905 0.97742 0.16002 0.0
C1671 C 0.50562 0.9955 0.15429 0.0
C1672 C 0.49588 1.00072 0.1994 0.0
C1673 C 0.5176 1.01528 0.17149 0.0
C1674 C 0.50123 0.02756 0.23792 0.0
C1675 C 0.45782 1.00712 0.24105 0.0
N1676 N 0.51237 0.01747 0.19331 0.0
N1677 N 0.46735 0.99726 0.22393 0.0
H1678 H 0.78807 0.7056 0.92851 0.0
H1679 H 0.84151 0.81335 0.86334 0.0
H1680 H 0.81372 0.77968 0.96511 0.0
H1681 H 0.79046 0.75075 0.82669 0.0
H1682 H 0.83549 0.79946 0.90041 0.0
H1683 H 0.79267 0.71965 0.89094 0.0
C1684 C 0.79485 0.7248 0.92864 0.0
C1685 C 0.8006 0.74146 0.95002 0.0
C1686 C 0.82564 0.78867 0.88428 0.0
C1687 C 0.80624 0.75769 0.90701 0.0
C1688 C 0.82914 0.7965 0.86298 0.0
C1689 C 0.81664 0.78308 0.8416 0.0
C1690 C 0.80983 0.76683 0.88444 0.0
C1691 C 0.80063 0.7616 0.84256 0.0
C1692 C 0.79735 0.73283 0.90718 0.0
C1693 C 0.80908 0.76619 0.94908 0.0
N1694 N 0.79786 0.75403 0.86351 0.0
N1695 N 0.81187 0.7735 0.92805 0.0
H1696 H 0.84698 0.12139 0.99444 0.0
H1697 H 0.95183 0.08951 0.05017 0.0
H1698 H 0.85753 0.1069 0.06452 0.0
H1699 H 0.93262 0.07688 0.97507 0.0
H1700 H 0.92125 0.10596 0.05584 0.0
H1701 H 0.88152 0.11269 0.98699 0.0
C1702 C 0.85664 0.11635 1.00815 0.0
C1703 C 0.84962 0.11446 0.02997 0.0
C1704 C 0.92383 0.0998 0.0381 0.0
C1705 C 0.88877 0.1055 0.02201 0.0
C1706 C 0.94144 0.09069 0.03482 0.0
C1707 C 0.94461 0.08163 1.01211 0.0
C1708 C 0.90921 0.09969 0.01856 0.0
C1709 C 0.93043 0.08329 0.99288 0.0
C1710 C 0.8762 0.1115 1.00396 0.0
C1711 C 0.86239 0.10805 0.04735 0.0
N1712 N 0.91307 0.09194 0.99654 0.0
N1713 N 0.88149 0.10391 0.04303 0.0
H1714 H 0.39692 0.46257 0.02181 0.0
H1715 H 0.52121 0.50604 0.08483 0.0
H1716 H 0.42022 0.43101 0.07791 0.0
H1717 H 0.50457 0.51309 0.01328 0.0
H1718 H 0.48332 0.48289 0.08481 0.0
H1719 H 0.43486 0.48571 0.02055 0.0
C1720 C 0.40997 0.46084 0.03413 0.0
C1721 C 0.40533 0.44503 0.05021 0.0
C1722 C 0.4879 0.48939 0.06905 0.0
C1723 C 0.44885 0.47155 0.04895 0.0
C1724 C 0.50959 0.5026 0.06905 0.0
C1725 C 0.51626 0.51128 0.04896 0.0
C1726 C 0.47232 0.48529 0.04902 0.0
C1727 C 0.5003 0.50642 0.02907 0.0
C1728 C 0.43164 0.47387 0.03326 0.0
C1729 C 0.42298 0.4431 0.06537 0.0
N1730 N 0.47911 0.49402 0.02967 0.0
N1731 N 0.44378 0.45628 0.06453 0.0
H1732 H 0.42283 0.65473 0.78578 0.0
H1733 H 0.32279 0.70702 0.73803 0.0
H1734 H 0.37485 0.61618 0.72627 0.0
H1735 H 0.37987 0.75411 0.78287 0.0
H1736 H 0.33989 0.67338 0.73628 0.0
H1737 H 0.40649 0.68922 0.78777 0.0
C1738 C 0.40886 0.6532 0.77303 0.0
C1739 C 0.40067 0.63158 0.75572 0.0
C1740 C 0.34883 0.69096 0.74661 0.0
C1741 C 0.38098 0.67255 0.7582 0.0
C1742 C 0.33891 0.71057 0.74771 0.0
C1743 C 0.34945 0.73436 0.76063 0.0
C1744 C 0.36982 0.69404 0.75893 0.0
C1745 C 0.37063 0.73667 0.77249 0.0
C1746 C 0.39942 0.6733 0.7742 0.0
C1747 C 0.38225 0.63184 0.74002 0.0
N1748 N 0.37975 0.71718 0.77151 0.0
N1749 N 0.37326 0.65139 0.74174 0.0
H1750 H 0.22496 0.61334 0.49086 0.0
H1751 H 0.14141 0.59466 0.58318 0.0
H1752 H 0.2404 0.59526 0.55849 0.0
H1753 H 0.12788 0.61496 0.51611 0.0
H1754 H 0.17867 0.59736 0.57597 0.0
H1755 H 0.18831 0.61182 0.49934 0.0
C1756 C 0.22027 0.60813 0.50712 0.0
C1757 C 0.23548 0.60439 0.52402 0.0
C1758 C 0.16763 0.6016 0.56302 0.0
C1759 C 0.19433 0.60395 0.53441 0.0
C1760 C 0.14653 0.60055 0.56733 0.0
C1761 C 0.13163 0.60417 0.54996 0.0
C1762 C 0.17353 0.60628 0.54126 0.0
C1763 C 0.13892 0.61165 0.52973 0.0
C1764 C 0.19958 0.6078 0.51221 0.0
C1765 C 0.22892 0.59798 0.54495 0.0
N1766 N 0.15934 0.61204 0.52571 0.0
N1767 N 0.20883 0.59841 0.5498 0.0
H1768 H 0.73346 1.01178 0.7386 0.0
H1769 H 0.77218 0.94089 0.83362 0.0
H1770 H 0.72883 0.02961 0.81219 0.0
H1771 H 0.77226 0.92216 0.75886 0.0
H1772 H 0.75342 0.97145 0.82641 0.0
H1773 H 0.74509 0.97632 0.74576 0.0
C1774 C 0.73533 1.00825 0.75634 0.0
C1775 C 0.7309 0.02343 0.77503 0.0
C1776 C 0.75725 0.9603 0.81163 0.0
C1777 C 0.74387 0.98346 0.78344 0.0
C1778 C 0.76799 0.94304 0.81574 0.0
C1779 C 0.77377 0.92918 0.79681 0.0
C1780 C 0.75249 0.96355 0.7885 0.0
C1781 C 0.76784 0.93227 0.77394 0.0
C1782 C 0.74168 0.98801 0.76043 0.0
C1783 C 0.7326 0.01815 0.79759 0.0
N1784 N 0.75764 0.9493 0.77045 0.0
N1785 N 0.73927 0.99855 0.80132 0.0
H1786 H 0.77248 0.91452 0.51775 0.0
H1787 H 0.70776 1.00658 0.57126 0.0
H1788 H 0.79588 0.96997 0.5801 0.0
H1789 H 0.68575 0.96212 0.50232 0.0
H1790 H 0.73905 0.99059 0.57479 0.0
H1791 H 0.73976 0.92899 0.5116 0.0
C1792 C 0.77083 0.92975 0.53006 0.0
C1793 C 0.78709 0.94111 0.54945 0.0
C1794 C 0.72743 0.98412 0.55886 0.0
C1795 C 0.74973 0.95753 0.54261 0.0
C1796 C 0.7094 0.99315 0.55692 0.0
C1797 C 0.69393 0.98544 0.53663 0.0
C1798 C 0.73024 0.96701 0.54041 0.0
C1799 C 0.69729 0.96847 0.51833 0.0
C1800 C 0.75216 0.93797 0.52653 0.0
C1801 C 0.78396 0.96064 0.56487 0.0
N1802 N 0.71506 0.95968 0.52068 0.0
N1803 N 0.76576 0.9681 0.56114 0.0
H1804 H 0.3978 0.4802 0.73001 0.0
H1805 H 0.34853 0.38136 0.81092 0.0
H1806 H 0.40679 0.49697 0.80541 0.0
H1807 H 0.34641 0.36122 0.73644 0.0
H1808 H 0.36942 0.42311 0.80913 0.0
H1809 H 0.37853 0.43762 0.73155 0.0
C1810 C 0.39521 0.4753 0.74693 0.0
C1811 C 0.40356 0.49314 0.76757 0.0
C1812 C 0.36481 0.40959 0.79313 0.0
C1813 C 0.38141 0.44299 0.76957 0.0
C1814 C 0.35301 0.38536 0.79421 0.0
C1815 C 0.34613 0.36677 0.774 0.0
C1816 C 0.36969 0.4163 0.77148 0.0
C1817 C 0.35179 0.3742 0.75277 0.0
C1818 C 0.38435 0.45062 0.74782 0.0
C1819 C 0.40034 0.48455 0.78888 0.0
N1820 N 0.36298 0.39795 0.7521 0.0
N1821 N 0.38959 0.46066 0.78927 0.0
H1822 H 0.21316 0.64345 0.3103 0.0
H1823 H 0.27559 0.72833 0.23088 0.0
H1824 H 0.20617 0.62134 0.23515 0.0
H1825 H 0.294 0.73633 0.30567 0.0
H1826 H 0.25117 0.68821 0.23064 0.0
H1827 H 0.24164 0.67976 0.30799 0.0
C1828 C 0.21722 0.64686 0.29327 0.0
C1829 C 0.20721 0.6302 0.27283 0.0
C1830 C 0.26082 0.69867 0.24701 0.0
C1831 C 0.24035 0.67014 0.27006 0.0
C1832 C 0.27474 0.72141 0.24713 0.0
C1833 C 0.28578 0.7358 0.26855 0.0
C1834 C 0.25814 0.6909 0.26845 0.0
C1835 C 0.28482 0.72606 0.28903 0.0
C1836 C 0.23376 0.66708 0.29195 0.0
C1837 C 0.21323 0.63452 0.25111 0.0
N1838 N 0.27078 0.70423 0.28858 0.0
N1839 N 0.22972 0.65417 0.25026 0.0
H1840 H 0.59041 0.73143 0.48196 0.0
H1841 H 0.52937 0.60651 0.52042 0.0
H1842 H 0.52073 0.7051 0.47818 0.0
H1843 H 0.59915 0.63148 0.52392 0.0
H1844 H 0.52624 0.64323 0.50606 0.0
H1845 H 0.5943 0.6956 0.49786 0.0
C1846 C 0.57593 0.71824 0.4847 0.0
C1847 C 0.55518 0.72136 0.47878 0.0
C1848 C 0.54227 0.64073 0.50997 0.0
C1849 C 0.55953 0.68026 0.49716 0.0
C1850 C 0.54405 0.61973 0.5182 0.0
C1851 C 0.56454 0.61586 0.52346 0.0
C1852 C 0.56108 0.65802 0.50665 0.0
C1853 C 0.58301 0.63377 0.52032 0.0
C1854 C 0.57817 0.69773 0.49372 0.0
C1855 C 0.53702 0.70345 0.48239 0.0
N1856 N 0.58084 0.65395 0.51201 0.0
N1857 N 0.53962 0.68381 0.49139 0.0
H1858 H 0.67019 0.28627 0.66254 0.0
H1859 H 0.77292 0.34626 0.76451 0.0
H1860 H 0.68673 0.36098 0.69752 0.0
H1861 H 0.76094 0.27418 0.72435 0.0
H1862 H 0.74263 0.35241 0.7393 0.0
H1863 H 0.70343 0.28173 0.68401 0.0
C1864 C 0.68093 0.30182 0.67465 0.0
C1865 C 0.67563 0.3241 0.67804 0.0
C1866 C 0.7468 0.33539 0.73558 0.0
C1867 C 0.71404 0.31897 0.70315 0.0
C1868 C 0.76437 0.33195 0.74986 0.0
C1869 C 0.7702 0.30995 0.7462 0.0
C1870 C 0.73425 0.31649 0.71751 0.0
C1871 C 0.7577 0.29176 0.72745 0.0
C1872 C 0.69998 0.2992 0.68695 0.0
C1873 C 0.69015 0.34351 0.69416 0.0
N1874 N 0.74036 0.29536 0.71402 0.0
N1875 N 0.70852 0.34047 0.70609 0.0
H1876 H 0.03947 0.34298 0.01589 0.0
H1877 H 0.03368 0.47467 0.99868 0.0
H1878 H 0.03355 0.36221 0.9474 0.0
H1879 H 0.07298 0.46499 0.0589 0.0
H1880 H 0.02771 0.4317 0.98137 0.0
H1881 H 0.04688 0.38617 0.03386 0.0
C1882 C 0.03987 0.35635 1.00468 0.0
C1883 C 0.03612 0.34918 0.98017 0.0
C1884 C 0.03754 0.43894 0.99843 0.0
C1885 C 0.04374 0.39819 1.00049 0.0
C1886 C 0.04079 0.46334 1.00838 0.0
C1887 C 0.05378 0.47322 0.03024 0.0
C1888 C 0.04689 0.42417 1.01071 0.0
C1889 C 0.0629 0.45795 0.04198 0.0
C1890 C 0.04407 0.3809 0.0149 0.0
C1891 C 0.03668 0.36711 0.96637 0.0
N1892 N 0.05911 0.43406 0.03216 0.0
N1893 N 0.04011 0.39077 0.97671 0.0
H1894 H 0.03433 0.83657 0.16375 0.0
H1895 H 0.94156 0.74704 0.21662 0.0
H1896 H 0.04172 0.77048 0.18477 0.0
H1897 H 0.94354 0.82138 0.21246 0.0
H1898 H 0.97538 0.75228 0.19919 0.0
H1899 H 0.99817 0.8283 0.17603 0.0
C1900 C 0.0284 0.82039 0.17104 0.0
C1901 C 0.04127 0.80446 0.1736 0.0
C1902 C 0.96827 0.76735 0.20197 0.0
C1903 C 0.99969 0.79464 0.18739 0.0
C1904 C 0.94898 0.76438 0.21193 0.0
C1905 C 0.93964 0.78381 0.21614 0.0
C1906 C 0.97829 0.78989 0.19616 0.0
C1907 C 0.94985 0.80574 0.20931 0.0
C1908 C 1.00773 0.81563 0.178 0.0
C1909 C 0.03255 0.78352 0.18285 0.0
N1910 N 0.96861 0.80819 0.19981 0.0
N1911 N 1.01233 0.77923 0.18942 0.0
H1912 H 0.50544 0.32078 0.12964 0.0
H1913 H 0.60631 0.40597 0.08565 0.0
H1914 H 0.56307 0.29823 0.11723 0.0
H1915 H 0.53985 0.40931 0.07263 0.0
H1916 H 0.59355 0.37046 0.10433 0.0
H1917 H 0.52101 0.35844 0.11592 0.0
C1918 C 0.52136 0.32385 0.12403 0.0
C1919 C 0.53289 0.30646 0.12414 0.0
C1920 C 0.58193 0.37924 0.09749 0.0
C1921 C 0.55084 0.34922 0.10889 0.0
C1922 C 0.58916 0.39933 0.08692 0.0
C1923 C 0.57411 0.41061 0.07804 0.0
C1924 C 0.55964 0.37077 0.099 0.0
C1925 C 0.55204 0.40148 0.07988 0.0
C1926 C 0.53024 0.34523 0.11625 0.0
C1927 C 0.55354 0.31116 0.11689 0.0
N1928 N 0.54548 0.38208 0.09018 0.0
N1929 N 0.56196 0.33224 0.10951 0.0
H1930 H 0.06474 0.37322 0.37662 0.0
H1931 H 0.95752 0.28392 0.30168 0.0
H1932 H 0.06512 0.30323 0.33862 0.0
H1933 H 0.97148 0.36196 0.31059 0.0
H1934 H 0.9955 0.28874 0.31857 0.0
H1935 H 0.02847 0.36782 0.35582 0.0
C1936 C 0.05721 0.35686 0.36365 0.0
C1937 C 0.06776 0.3387 0.35906 0.0
C1938 C 0.9902 0.30471 0.31649 0.0
C1939 C 0.02646 0.33222 0.33572 0.0
C1940 C 0.96872 0.30196 0.30699 0.0
C1941 C 0.96185 0.32262 0.30462 0.0
C1942 C 1.00431 0.32824 0.32405 0.0
C1943 C 0.97652 0.34569 0.3119 0.0
C1944 C 0.03661 0.35378 0.35183 0.0
C1945 C 0.05745 0.31773 0.34229 0.0
N1946 N 0.9971 0.34792 0.32151 0.0
N1947 N 0.03709 0.31487 0.33131 0.0
H1948 H 1.0 0.67189 0.65726 0.0
H1949 H 0.03411 0.62856 0.53406 0.0
H1950 H 0.99017 0.70414 0.59625 0.0
H1951 H 0.05174 0.60388 0.59741 0.0
H1952 H 0.01936 0.65792 0.55688 0.0
H1953 H 0.01797 0.64573 0.63506 0.0
C1954 C 1.00104 0.67298 0.63898 0.0
C1955 C 0.99371 0.69033 0.62864 0.0
C1956 C 0.02656 0.64618 0.56585 0.0
C1957 C 0.01462 0.66087 0.60337 0.0
C1958 C 0.03498 0.62954 0.55288 0.0
C1959 C 0.04362 0.61366 0.56403 0.0
C1960 C 0.02637 0.64628 0.58992 0.0
C1961 C 0.04499 0.61575 0.58833 0.0
C1962 C 1.01167 0.65836 0.62647 0.0
C1963 C 0.99555 0.691 0.60493 0.0
N1964 N 0.03603 0.63157 0.60056 0.0
N1965 N 1.00608 0.67662 0.59313 0.0
H1966 H 0.67819 0.86661 0.84675 0.0
H1967 H 0.73977 0.77005 0.80051 0.0
H1968 H 0.67745 0.80291 0.87705 0.0
H1969 H 0.7523 0.8421 0.78391 0.0
H1970 H 0.71247 0.77881 0.82415 0.0
H1971 H 0.70252 0.85567 0.82035 0.0
C1972 C 0.68346 0.85044 0.84796 0.0
C1973 C 0.67606 0.83561 0.86395 0.0
C1974 C 0.72095 0.79252 0.81501 0.0
C1975 C 0.70334 0.82274 0.83367 0.0
C1976 C 0.73622 0.78744 0.80122 0.0
C1977 C 0.74816 0.80552 0.79035 0.0
C1978 C 0.71761 0.81568 0.81756 0.0
C1979 C 0.74341 0.82785 0.79217 0.0
C1980 C 0.6972 0.84414 0.83286 0.0
C1981 C 0.68316 0.81487 0.86502 0.0
N1982 N 0.72851 0.83239 0.80573 0.0
N1983 N 0.69641 0.80885 0.84981 0.0
H1984 H 0.4932 0.53019 0.70944 0.0
H1985 H 0.55142 0.60064 0.61244 0.0
H1986 H 0.4837 0.59887 0.69894 0.0
H1987 H 0.53224 0.52259 0.60139 0.0
H1988 H 0.5313 0.60174 0.6464 0.0
H1989 H 0.51147 0.52843 0.67402 0.0
C1990 C 0.49501 0.54513 0.69997 0.0
C1991 C 0.48641 0.56472 0.70795 0.0
C1992 C 0.53106 0.58426 0.63644 0.0
C1993 C 0.50849 0.56296 0.66622 0.0
C1994 C 0.54251 0.58356 0.6166 0.0
C1995 C 0.54306 0.56145 0.60256 0.0
C1996 C 0.52034 0.56266 0.64382 0.0
C1997 C 0.53183 0.5402 0.61045 0.0
C1998 C 0.5055 0.54399 0.67937 0.0
C1999 C 0.48962 0.58319 0.69403 0.0
N2000 N 0.52134 0.54138 0.63024 0.0
N2001 N 0.50041 0.58198 0.67451 0.0
H2002 H 0.81057 0.23329 0.9952 0.0
H2003 H 0.74964 0.20084 0.86789 0.0
H2004 H 0.78223 0.15799 0.96265 0.0
H2005 H 0.75433 0.26722 0.91598 0.0
H2006 H 0.75776 0.18217 0.90135 0.0
H2007 H 0.79051 0.24528 0.96355 0.0
C2008 C 0.80047 0.21937 0.981 0.0
C2009 C 0.7981 0.19476 0.98118 0.0
C2010 C 0.75616 0.20052 0.90452 0.0
C2011 C 0.77434 0.20804 0.9458 0.0
C2012 C 0.7513 0.21109 0.8855 0.0
C2013 C 0.75252 0.23598 0.88916 0.0
C2014 C 0.76195 0.21509 0.92695 0.0
C2015 C 0.75395 0.24821 0.91222 0.0
C2016 C 0.78864 0.2261 0.96331 0.0
C2017 C 0.78473 0.17722 0.96268 0.0
N2018 N 0.75947 0.2379 0.93032 0.0
N2019 N 0.77314 0.18421 0.94561 0.0
H2020 H 0.12799 0.52369 0.21849 0.0
H2021 H 0.11282 0.5775 0.10255 0.0
H2022 H 0.18206 0.55949 0.18598 0.0
H2023 H 0.06201 0.5263 0.12688 0.0
H2024 H 0.1378 0.57846 0.13738 0.0
H2025 H 0.10307 0.53174 0.1889 0.0
C2026 C 0.13462 0.53261 0.2047 0.0
C2027 C 0.15711 0.54033 0.20426 0.0
C2028 C 0.12115 0.56716 0.1351 0.0
C2029 C 0.12861 0.54975 0.1705 0.0
C2030 C 0.10699 0.56648 0.11528 0.0
C2031 C 0.08571 0.55114 0.11176 0.0
C2032 C 0.11368 0.55254 0.1513 0.0
C2033 C 0.07852 0.5379 0.1289 0.0
C2034 C 0.12038 0.53752 0.18803 0.0
C2035 C 0.16478 0.55271 0.18653 0.0
N2036 N 0.09262 0.53875 0.14797 0.0
N2037 N 0.15046 0.55696 0.17016 0.0
H2038 H 0.82289 0.81509 0.48033 0.0
H2039 H 0.84815 0.85118 0.35678 0.0
H2040 H 0.8425 0.88952 0.47068 0.0
H2041 H 0.80313 0.78318 0.36141 0.0
H2042 H 0.85083 0.86422 0.3995 0.0
H2043 H 0.81915 0.80158 0.43754 0.0
C2044 C 0.82626 0.82855 0.46916 0.0
C2045 C 0.83277 0.85344 0.47895 0.0
C2046 C 0.84045 0.8464 0.39119 0.0
C2047 C 0.82941 0.8382 0.43025 0.0
C2048 C 0.83908 0.83892 0.36691 0.0
C2049 C 0.82548 0.81609 0.35576 0.0
C2050 C 0.82847 0.83071 0.40442 0.0
C2051 C 0.81381 0.80093 0.3695 0.0
C2052 C 0.82418 0.82087 0.4448 0.0
C2053 C 0.83709 0.87017 0.46375 0.0
N2054 N 0.81567 0.80841 0.39314 0.0
N2055 N 0.83562 0.86227 0.44022 0.0
H2056 H 0.49243 0.58255 0.86358 0.0
H2057 H 0.55693 0.51504 0.94684 0.0
H2058 H 0.51584 0.5221 0.83625 0.0
H2059 H 0.54007 0.58038 0.97339 0.0
H2060 H 0.54177 0.517 0.90696 0.0
H2061 H 0.50889 0.58161 0.90335 0.0
C2062 C 0.50113 0.56913 0.86573 0.0
C2063 C 0.50256 0.55246 0.84587 0.0
C2064 C 0.54131 0.53097 0.92141 0.0
C2065 C 0.52179 0.55118 0.89255 0.0
C2066 C 0.55004 0.52987 0.94446 0.0
C2067 C 0.54999 0.54756 0.96412 0.0
C2068 C 0.53192 0.54977 0.91734 0.0
C2069 C 0.54074 0.56628 0.95918 0.0
C2070 C 0.51058 0.56859 0.88871 0.0
C2071 C 0.5141 0.53546 0.85056 0.0
N2072 N 0.53209 0.56676 0.93664 0.0
N2073 N 0.52307 0.53526 0.87305 0.0
H2074 H 0.80623 0.21946 0.08595 0.0
H2075 H 0.8182 0.23906 0.22441 0.0
H2076 H 0.82117 0.16861 0.12746 0.0
H2077 H 0.80711 0.29374 0.18571 0.0
H2078 H 0.81329 0.21078 0.1884 0.0
H2079 H 0.80063 0.24435 0.12136 0.0
C2080 C 0.80888 0.21394 0.10272 0.0
C2081 C 0.81514 0.19268 0.10427 0.0
C2082 C 0.81157 0.22877 0.18758 0.0
C2083 C 0.80841 0.22058 0.14434 0.0
C2084 C 0.81435 0.24505 0.20825 0.0
C2085 C 0.81333 0.26891 0.20795 0.0
C2086 C 0.80777 0.23634 0.1663 0.0
C2087 C 0.80841 0.2756 0.18648 0.0
C2088 C 0.80536 0.2279 0.12275 0.0
C2089 C 0.81705 0.18535 0.12589 0.0
N2090 N 0.80594 0.25931 0.16627 0.0
N2091 N 0.81397 0.19952 0.14525 0.0
H2092 H 0.11898 0.5584 0.31778 0.0
H2093 H 0.15909 0.61969 0.44717 0.0
H2094 H 0.18818 0.58624 0.34134 0.0
H2095 H 0.09937 0.62337 0.40864 0.0
H2096 H 0.17267 0.61114 0.4099 0.0
H2097 H 0.11235 0.58166 0.35342 0.0
C2098 C 0.13274 0.56918 0.33066 0.0
C2099 C 0.15408 0.57028 0.32687 0.0
C2100 C 0.15694 0.61478 0.40977 0.0
C2101 C 0.14677 0.59759 0.36705 0.0
C2102 C 0.14927 0.61985 0.43099 0.0
C2103 C 0.12773 0.62112 0.4309 0.0
C2104 C 0.14283 0.61107 0.38878 0.0
C2105 C 0.11588 0.6219 0.40961 0.0
C2106 C 0.12901 0.58281 0.35072 0.0
C2107 C 0.17144 0.58458 0.34395 0.0
N2108 N 0.1233 0.61596 0.38926 0.0
N2109 N 0.1674 0.59777 0.36347 0.0
H2110 H 0.83193 0.90095 0.63615 0.0
H2111 H 0.79902 0.77846 0.68834 0.0
H2112 H 0.82722 0.82991 0.59682 0.0
H2113 H 0.8187 0.84921 0.73309 0.0
H2114 H 0.80705 0.7974 0.65455 0.0
H2115 H 0.82483 0.88289 0.67101 0.0
C2116 C 0.8294 0.88154 0.63476 0.0
C2117 C 0.83031 0.86703 0.61331 0.0
C2118 C 0.80966 0.80892 0.67167 0.0
C2119 C 0.822 0.84613 0.65355 0.0
C2120 C 0.805 0.79811 0.69112 0.0
C2121 C 0.80807 0.81222 0.71376 0.0
C2122 C 0.81731 0.83429 0.67448 0.0
C2123 C 0.81605 0.83758 0.71604 0.0
C2124 C 0.82541 0.87126 0.6548 0.0
C2125 C 0.82683 0.84195 0.61284 0.0
N2126 N 0.82025 0.84781 0.69662 0.0
N2127 N 0.82277 0.83236 0.63253 0.0
H2128 H 0.75854 0.44169 0.53636 0.0
H2129 H 0.72044 0.56235 0.56533 0.0
H2130 H 0.79499 0.51319 0.52876 0.0
H2131 H 0.67861 0.49106 0.56605 0.0
H2132 H 0.74957 0.54435 0.55636 0.0
H2133 H 0.73014 0.45902 0.55098 0.0
C2134 C 0.76016 0.46091 0.53721 0.0
C2135 C 0.77858 0.47612 0.53087 0.0
C2136 C 0.73414 0.53257 0.55873 0.0
C2137 C 0.7469 0.49591 0.54772 0.0
C2138 C 0.71762 0.54288 0.56404 0.0
C2139 C 0.6973 0.52808 0.56644 0.0
C2140 C 0.73027 0.50724 0.55572 0.0
C2141 C 0.69416 0.50293 0.56415 0.0
C2142 C 0.74422 0.4708 0.54578 0.0
C2143 C 0.78073 0.50098 0.53317 0.0
N2144 N 0.71056 0.49318 0.5588 0.0
N2145 N 0.76497 0.51011 0.54131 0.0
H2146 H 0.23999 0.11618 0.48598 0.0
H2147 H 0.13252 0.10567 0.5485 0.0
H2148 H 0.22907 0.17773 0.5297 0.0
H2149 H 0.13475 0.05693 0.48552 0.0
H2150 H 0.16949 0.13034 0.54574 0.0
H2151 H 0.20304 0.09204 0.48914 0.0
C2152 C 0.2298 0.12458 0.49622 0.0
C2153 C 0.23749 0.14907 0.5073 0.0
C2154 C 0.16182 0.11424 0.53253 0.0
C2155 C 0.1954 0.12139 0.51168 0.0
C2156 C 0.14073 0.10015 0.53412 0.0
C2157 C 0.13036 0.07921 0.51716 0.0
C2158 C 0.17285 0.10711 0.51409 0.0
C2159 C 0.14193 0.07294 0.49896 0.0
C2160 C 0.20872 0.11084 0.49805 0.0
C2161 C 0.22362 0.15902 0.52052 0.0
N2162 N 0.16246 0.08665 0.49801 0.0
N2163 N 0.2034 0.14515 0.52252 0.0
H2164 H 0.20596 0.92999 0.73961 0.0
H2165 H 0.31373 0.8844 0.77513 0.0
H2166 H 0.2641 0.97702 0.78258 0.0
H2167 H 0.2525 0.83382 0.74293 0.0
H2168 H 0.29655 0.91791 0.7759 0.0
H2169 H 0.22262 0.89573 0.73835 0.0
C2170 C 0.22222 0.93336 0.74889 0.0
C2171 C 0.23325 0.95723 0.76131 0.0
C2172 C 0.2867 0.89957 0.76858 0.0
C2173 C 0.25315 0.91665 0.75986 0.0
C2174 C 0.29666 0.88004 0.76807 0.0
C2175 C 0.28499 0.85535 0.75898 0.0
C2176 C 0.26446 0.89538 0.75961 0.0
C2177 C 0.26265 0.85201 0.75029 0.0
C2178 C 0.23185 0.91346 0.74816 0.0
C2179 C 0.25453 0.95948 0.77269 0.0
N2180 N 0.25343 0.87136 0.75072 0.0
N2181 N 0.2635 0.93995 0.77166 0.0
H2182 H 0.39119 0.94911 0.03077 0.0
H2183 H 0.49519 0.04513 0.01262 0.0
H2184 H 0.38854 1.01316 1.00237 0.0
H2185 H 0.49669 0.98891 0.05301 0.0
H2186 H 0.45626 0.03767 0.01405 0.0
H2187 H 0.4294 0.96729 0.04509 0.0
C2188 C 0.39878 0.96709 0.02748 0.0
C2189 C 0.38716 0.97934 0.01441 0.0
C2190 C 0.46506 0.027 0.02268 0.0
C2191 C 0.43081 1.00022 0.03084 0.0
C2192 C 0.48707 0.03094 0.02148 0.0
C2193 C 0.49853 1.01684 0.03193 0.0
C2194 C 0.45457 1.00844 0.03389 0.0
C2195 C 0.48796 0.99956 0.04424 0.0
C2196 C 0.42054 0.97758 0.03596 0.0
C2197 C 0.39732 1.00294 1.01169 0.0
N2198 N 0.4663 0.99547 0.04452 0.0
N2199 N 0.41891 1.01251 0.01941 0.0
H2200 H 0.89679 0.57184 0.76194 0.0
H2201 H 0.83957 0.6728 0.80141 0.0
H2202 H 0.91106 0.61668 0.8311 0.0
H2203 H 0.85201 0.65905 0.72973 0.0
H2204 H 0.86021 0.64539 0.81147 0.0
H2205 H 0.87524 0.59796 0.74862 0.0
C2206 C 0.89518 0.5871 0.77428 0.0
C2207 C 0.9054 0.59235 0.79762 0.0
C2208 C 0.85861 0.64849 0.79358 0.0
C2209 C 0.8812 0.62155 0.78274 0.0
C2210 C 0.84694 0.66412 0.78785 0.0
C2211 C 0.84472 0.66846 0.76489 0.0
C2212 C 0.86797 0.63699 0.7762 0.0
C2213 C 0.85375 0.65617 0.74768 0.0
C2214 C 0.88317 0.60196 0.76664 0.0
C2215 C 0.90335 0.61228 0.81298 0.0
N2216 N 0.86524 0.64083 0.75373 0.0
N2217 N 0.89127 0.62616 0.80527 0.0
H2218 H 0.8809 0.68779 0.02851 0.0
H2219 H 0.9266 0.58347 0.0725 0.0
H2220 H 0.84206 0.62814 0.05543 0.0
H2221 H 0.96795 0.64689 0.05305 0.0
H2222 H 0.89617 0.60105 0.06866 0.0
H2223 H 0.91332 0.67429 0.03874 0.0
C2224 C 0.87915 0.67168 0.0363 0.0
C2225 C 0.85867 0.65882 0.04075 0.0
C2226 C 0.91193 0.61126 0.0654 0.0
C2227 C 0.89569 0.64329 0.05256 0.0
C2228 C 0.92948 0.60131 0.06783 0.0
C2229 C 0.95002 0.61353 0.06291 0.0
C2230 C 0.91469 0.63358 0.05775 0.0
C2231 C 0.95238 0.63647 0.05653 0.0
C2232 C 0.89769 0.6641 0.04232 0.0
C2233 C 0.85748 0.63849 0.0515 0.0
N2234 N 0.93492 0.64561 0.05392 0.0
N2235 N 0.87564 0.63125 0.05682 0.0
H2236 H 0.25411 0.08925 0.76571 0.0
H2237 H 0.26729 0.23581 0.79285 0.0
H2238 H 0.21107 0.1195 0.80528 0.0
H2239 H 0.31322 0.20322 0.76129 0.0
H2240 H 0.24505 0.19443 0.79554 0.0
H2241 H 0.2743 0.13068 0.76233 0.0
C2242 C 0.24891 0.10445 0.774 0.0
C2243 C 0.23069 0.10009 0.78618 0.0
C2244 C 0.25993 0.19631 0.78785 0.0
C2245 C 0.25418 0.149 0.7819 0.0
C2246 C 0.27265 0.22017 0.78611 0.0
C2247 C 0.29249 0.22368 0.77665 0.0
C2248 C 0.26673 0.17531 0.77995 0.0
C2249 C 0.29827 0.20204 0.76873 0.0
C2250 C 0.26052 0.12842 0.77192 0.0
C2251 C 0.22499 0.12131 0.79594 0.0
N2252 N 0.28573 0.17938 0.7705 0.0
N2253 N 0.23647 0.14437 0.7936 0.0
H2254 H 0.43558 0.97007 0.28881 0.0
H2255 H 0.32381 0.89529 0.30945 0.0
H2256 H 0.4001 0.99747 0.34105 0.0
H2257 H 0.35072 0.88109 0.24538 0.0
H2258 H 0.3475 0.93646 0.31746 0.0
H2259 H 0.40222 0.94014 0.26979 0.0
C2260 C 0.42081 0.9696 0.29649 0.0
C2261 C 0.42065 0.98581 0.31697 0.0
C2262 C 0.34772 0.92463 0.30122 0.0
C2263 C 0.38235 0.95198 0.29487 0.0
C2264 C 0.33424 0.90107 0.29666 0.0
C2265 C 0.33611 0.88458 0.2772 0.0
C2266 C 0.36315 0.93137 0.2863 0.0
C2267 C 0.34929 0.89311 0.26087 0.0
C2268 C 0.40165 0.95284 0.28528 0.0
C2269 C 0.40093 0.98487 0.32562 0.0
N2270 N 0.36286 0.9159 0.26612 0.0
N2271 N 0.38253 0.96797 0.31464 0.0
H2272 H 0.62001 0.37619 0.56401 0.0
H2273 H 0.57659 0.49364 0.5934 0.0
H2274 H 0.59306 0.39245 0.62746 0.0
H2275 H 0.58077 0.46273 0.52253 0.0
H2276 H 0.58475 0.45828 0.60683 0.0
H2277 H 0.60825 0.40901 0.54915 0.0
C2278 C 0.61169 0.38668 0.5749 0.0
C2279 C 0.6077 0.38147 0.59718 0.0
C2280 C 0.58373 0.45905 0.58831 0.0
C2281 C 0.5943 0.41954 0.5802 0.0
C2282 C 0.57905 0.47925 0.58063 0.0
C2283 C 0.57782 0.48104 0.55679 0.0
C2284 C 0.58783 0.44061 0.57215 0.0
C2285 C 0.58135 0.46195 0.54103 0.0
C2286 C 0.60487 0.40539 0.5663 0.0
C2287 C 0.59658 0.39569 0.61025 0.0
N2288 N 0.58641 0.44271 0.54899 0.0
N2289 N 0.59053 0.41411 0.60172 0.0
H2290 H 0.45122 0.75563 0.3672 0.0
H2291 H 0.3782 0.83837 0.32152 0.0
H2292 H 0.47727 0.83278 0.37082 0.0
H2293 H 0.36129 0.76027 0.30222 0.0
H2294 H 0.41258 0.83763 0.34425 0.0
H2295 H 0.41647 0.75781 0.34748 0.0
C2296 C 0.44967 0.77305 0.36386 0.0
C2297 C 0.46737 0.79398 0.37059 0.0
C2298 C 0.40122 0.82067 0.33518 0.0
C2299 C 0.42719 0.79675 0.34821 0.0
C2300 C 0.38151 0.82108 0.3224 0.0
C2301 C 0.36678 0.79933 0.30999 0.0
C2302 C 0.40609 0.79833 0.33575 0.0
C2303 C 0.3721 0.77748 0.31152 0.0
C2304 C 0.42976 0.7743 0.35258 0.0
C2305 C 0.4642 0.81608 0.36577 0.0
N2306 N 0.39118 0.77755 0.32405 0.0
N2307 N 0.44456 0.8169 0.35501 0.0
H2308 H 0.06252 0.74008 0.10527 0.0
H2309 H 0.11621 0.63727 0.05106 0.0
H2310 H 0.12181 0.75825 0.07477 0.0
H2311 H 0.05493 0.62427 0.0782 0.0
H2312 H 0.11968 0.68138 0.05915 0.0
H2313 H 0.05984 0.69729 0.09393 0.0
C2314 C 0.07477 0.735 0.09566 0.0
C2315 C 0.09236 0.7528 0.09087 0.0
C2316 C 0.10551 0.66878 0.06328 0.0
C2317 C 0.08969 0.70334 0.07813 0.0
C2318 C 0.1036 0.6437 0.05882 0.0
C2319 C 0.08513 0.62711 0.06371 0.0
C2320 C 0.08893 0.67712 0.07293 0.0
C2321 C 0.06926 0.63631 0.07374 0.0
C2322 C 0.07334 0.71046 0.08932 0.0
C2323 C 0.10784 0.74508 0.07853 0.0
N2324 N 0.07156 0.66055 0.07799 0.0
N2325 N 0.10628 0.72085 0.07277 0.0
H2326 H 0.08002 0.24629 0.86147 0.0
H2327 H 0.19788 0.33454 0.85713 0.0
H2328 H 0.10346 0.31739 0.90551 0.0
H2329 H 0.17544 0.25854 0.82507 0.0
H2330 H 0.16397 0.33018 0.87455 0.0
H2331 H 0.11501 0.25205 0.84732 0.0
C2332 C 0.09248 0.26327 0.86809 0.0
C2333 C 0.08856 0.28144 0.88461 0.0
C2334 C 0.16661 0.31446 0.86385 0.0
C2335 C 0.12924 0.28822 0.86831 0.0
C2336 C 0.18594 0.31693 0.85382 0.0
C2337 C 0.18968 0.29685 0.83957 0.0
C2338 C 0.15074 0.29182 0.85938 0.0
C2339 C 0.17361 0.27448 0.83614 0.0
C2340 C 0.11262 0.2665 0.86005 0.0
C2341 C 0.10565 0.30291 0.89268 0.0
N2342 N 0.15495 0.27267 0.84578 0.0
N2343 N 0.1252 0.30577 0.88437 0.0
H2344 H 0.57779 0.77029 0.92203 0.0
H2345 H 0.61545 0.68777 1.00635 0.0
H2346 H 0.64073 0.78793 0.96469 0.0
H2347 H 0.54793 0.67499 0.97814 0.0
H2348 H 0.62496 0.72285 0.98754 0.0
H2349 H 0.56614 0.73376 0.93948 0.0
C2350 C 0.5891 0.76648 0.93502 0.0
C2351 C 0.61026 0.78203 0.94193 0.0
C2352 C 0.60804 0.71241 0.9853 0.0
C2353 C 0.59722 0.74069 0.96156 0.0
C2354 C 0.60266 0.69226 0.99587 0.0
C2355 C 0.58095 0.6785 0.99354 0.0
C2356 C 0.59159 0.71887 0.97222 0.0
C2357 C 0.56488 0.68532 0.98025 0.0
C2358 C 0.58245 0.74576 0.94495 0.0
C2359 C 0.62427 0.77648 0.95886 0.0
N2360 N 0.57053 0.70514 0.96994 0.0
N2361 N 0.61751 0.75623 0.968 0.0
H2362 H 0.08042 0.78148 0.66732 0.0
H2363 H 0.16278 0.74981 0.75853 0.0
H2364 H 0.06294 0.75971 0.73215 0.0
H2365 H 0.18373 0.79377 0.707 0.0
H2366 H 0.12602 0.75342 0.74942 0.0
H2367 H 0.1185 0.78609 0.6815 0.0
C2368 C 0.08467 0.77788 0.68463 0.0
C2369 C 0.06865 0.77006 0.69859 0.0
C2370 C 0.13875 0.76261 0.7404 0.0
C2371 C 0.11192 0.7752 0.7148 0.0
C2372 C 0.1597 0.76065 0.74565 0.0
C2373 C 0.17617 0.77144 0.73339 0.0
C2374 C 0.13432 0.77528 0.72268 0.0
C2375 C 0.17133 0.78489 0.71656 0.0
C2376 C 0.10637 0.78063 0.69275 0.0
C2377 C 0.0749 0.76579 0.72092 0.0
N2378 N 0.1507 0.78624 0.7115 0.0
N2379 N 0.09613 0.76814 0.72826 0.0
H2380 H 0.08415 0.41054 0.43485 0.0
H2381 H 0.12546 0.52258 0.5403 0.0
H2382 H 0.1489 0.43151 0.4737 0.0
H2383 H 0.06312 0.50424 0.4965 0.0
H2384 H 0.13614 0.49232 0.51363 0.0
H2385 H 0.07807 0.448 0.4542 0.0
C2386 C 0.09715 0.42331 0.44742 0.0
C2387 C 0.11693 0.41814 0.45306 0.0
C2388 C 0.12027 0.49517 0.50964 0.0
C2389 C 0.11006 0.46066 0.47552 0.0
C2390 C 0.11414 0.51233 0.52486 0.0
C2391 C 0.09336 0.5156 0.52052 0.0
C2392 C 0.10541 0.48126 0.4901 0.0
C2393 C 0.07928 0.50211 0.50038 0.0
C2394 C 0.09372 0.44467 0.4584 0.0
C2395 C 0.13344 0.4351 0.46908 0.0
N2396 N 0.08552 0.48531 0.48594 0.0
N2397 N 0.1295 0.45561 0.48015 0.0
H2398 H 0.46537 0.24134 0.24082 0.0
H2399 H 0.35569 0.27711 0.2231 0.0
H2400 H 0.44129 0.25842 0.17543 0.0
H2401 H 0.39318 0.28856 0.29142 0.0
H2402 H 0.3861 0.26843 0.20485 0.0
H2403 H 0.43786 0.25623 0.25954 0.0
C2404 C 0.45411 0.24807 0.2304 0.0
C2405 C 0.45525 0.24848 0.20658 0.0
C2406 C 0.3878 0.27302 0.22382 0.0
C2407 C 0.42411 0.26557 0.22777 0.0
C2408 C 0.37053 0.27786 0.23413 0.0
C2409 C 0.37228 0.28323 0.25853 0.0
C2410 C 0.40662 0.27312 0.2382 0.0
C2411 C 0.3915 0.28416 0.27246 0.0
C2412 C 0.43866 0.25681 0.24113 0.0
C2413 C 0.44074 0.25779 0.19386 0.0
N2414 N 0.40806 0.2788 0.26202 0.0
N2415 N 0.4255 0.26581 0.20462 0.0
H2416 H 0.62566 0.56783 0.35981 0.0
H2417 H 0.61193 0.51502 0.48241 0.0
H2418 H 0.65425 0.51214 0.37727 0.0
H2419 H 0.57927 0.56622 0.46178 0.0
H2420 H 0.62872 0.51509 0.44585 0.0
H2421 H 0.60996 0.56852 0.39691 0.0
C2422 C 0.62878 0.55564 0.37125 0.0
C2423 C 0.64174 0.53992 0.36451 0.0
C2424 C 0.61826 0.52678 0.44941 0.0
C2425 C 0.62326 0.5408 0.40875 0.0
C2426 C 0.60881 0.52704 0.47079 0.0
C2427 C 0.59469 0.5416 0.47658 0.0
C2428 C 0.61372 0.54099 0.43271 0.0
C2429 C 0.5906 0.5554 0.45923 0.0
C2430 C 0.61967 0.55609 0.3928 0.0
C2431 C 0.64464 0.52474 0.38098 0.0
N2432 N 0.59994 0.55485 0.43871 0.0
N2433 N 0.63574 0.52564 0.40181 0.0
H2434 H 0.35795 0.89622 0.04441 0.0
H2435 H 0.32428 0.87334 0.16506 0.0
H2436 H 0.30508 0.91741 0.07365 0.0
H2437 H 0.38923 0.87386 0.15032 0.0
H2438 H 0.31927 0.89276 0.13294 0.0
H2439 H 0.37125 0.88904 0.08302 0.0
C2440 C 0.34885 0.89852 0.05891 0.0
C2441 C 0.3299 0.90611 0.05615 0.0
C2442 C 0.3349 0.88929 0.13687 0.0
C2443 C 0.34532 0.89945 0.09965 0.0
C2444 C 0.338 0.87839 0.15566 0.0
C2445 C 0.35747 0.87222 0.16075 0.0
C2446 C 0.35089 0.89314 0.1222 0.0
C2447 C 0.37392 0.87813 0.14679 0.0
C2448 C 0.35671 0.89515 0.08087 0.0
C2449 C 0.31925 0.91056 0.07525 0.0
N2450 N 0.37008 0.88793 0.12762 0.0
N2451 N 0.32708 0.90701 0.0963 0.0
H2452 H 0.99498 0.5189 0.88221 0.0
H2453 H 0.07001 0.59201 0.99036 0.0
H2454 H 0.99634 0.59423 0.90224 0.0
H2455 H 0.03207 0.51893 0.99131 0.0
H2456 H 0.0428 0.59438 0.9588 0.0
H2457 H 1.00779 0.51825 0.92276 0.0
C2458 C 0.99789 0.53525 0.89535 0.0
C2459 C 0.99535 0.55689 0.88925 0.0
C2460 C 0.04027 0.57807 0.96636 0.0
C2461 C 1.00979 0.55629 0.93508 0.0
C2462 C 0.05589 0.57659 0.98388 0.0
C2463 C 0.05331 0.55504 0.99256 0.0
C2464 C 0.02257 0.55762 0.95742 0.0
C2465 C 0.03462 0.53566 0.98446 0.0
C2466 C 1.00482 0.53477 0.91842 0.0
C2467 C 0.99861 0.57745 0.9066 0.0
N2468 N 0.02005 0.53718 0.96683 0.0
N2469 N 1.00634 0.5769 0.92893 0.0
H2470 H 0.29455 0.26698 0.5732 0.0
H2471 H 0.32203 0.24457 0.70425 0.0
H2472 H 0.32647 0.21425 0.59272 0.0
H2473 H 0.29315 0.30162 0.69123 0.0
H2474 H 0.32208 0.23313 0.66242 0.0
H2475 H 0.29385 0.28129 0.61528 0.0
C2476 C 0.30165 0.25864 0.58621 0.0
C2477 C 0.31042 0.23921 0.57922 0.0
C2478 C 0.31568 0.24818 0.66848 0.0
C2479 C 0.30919 0.25505 0.62718 0.0
C2480 C 0.31557 0.25466 0.69247 0.0
C2481 C 0.30765 0.27413 0.70127 0.0
C2482 C 0.30803 0.26139 0.65282 0.0
C2483 C 0.29927 0.28638 0.68511 0.0
C2484 C 0.30105 0.26666 0.6102 0.0
C2485 C 0.31933 0.22911 0.59697 0.0
N2486 N 0.29984 0.27994 0.66161 0.0
N2487 N 0.3183 0.23696 0.61986 0.0
H2488 H 0.61954 0.49683 0.22287 0.0
H2489 H 0.62484 0.57308 0.1164 0.0
H2490 H 0.67837 0.54846 0.21416 0.0
H2491 H 0.58163 0.50092 0.10722 0.0
H2492 H 0.64124 0.56794 0.1548 0.0
H2493 H 0.60236 0.50116 0.18425 0.0
C2494 C 0.62893 0.50917 0.21305 0.0
C2495 C 0.65076 0.52215 0.22233 0.0
C2496 C 0.62809 0.5532 0.14454 0.0
C2497 C 0.63056 0.52781 0.1774 0.0
C2498 C 0.61855 0.55618 0.1224 0.0
C2499 C 0.60162 0.53745 0.10788 0.0
C2500 C 0.62044 0.53152 0.1533 0.0
C2501 C 0.59463 0.51596 0.11727 0.0
C2502 C 0.61903 0.51162 0.19076 0.0
C2503 C 0.66167 0.53784 0.20813 0.0
N2504 N 0.60375 0.51376 0.13911 0.0
N2505 N 0.65157 0.54036 0.18696 0.0
H2506 H 0.35865 0.89262 0.93338 0.0
H2507 H 0.2847 0.79508 0.8287 0.0
H2508 H 0.28915 0.88159 0.92022 0.0
H2509 H 0.35192 0.83039 0.82538 0.0
H2510 H 0.28647 0.82403 0.86462 0.0
H2511 H 0.35706 0.8683 0.89487 0.0
C2512 C 0.34309 0.88518 0.92216 0.0
C2513 C 0.32393 0.8887 0.9297 0.0
C2514 C 0.30081 0.82539 0.85599 0.0
C2515 C 0.32196 0.86078 0.88632 0.0
C2516 C 0.29995 0.80866 0.83591 0.0
C2517 C 0.31834 0.81038 0.82458 0.0
C2518 C 0.32027 0.8436 0.86468 0.0
C2519 C 0.33751 0.82863 0.83384 0.0
C2520 C 0.34221 0.87145 0.90028 0.0
C2521 C 0.30418 0.87909 0.91475 0.0
N2522 N 0.33806 0.84461 0.85358 0.0
N2523 N 0.3036 0.86508 0.89371 0.0
H2524 H 0.95014 0.51934 0.74787 0.0
H2525 H 0.04797 0.52614 0.67766 0.0
H2526 H 0.01667 0.56086 0.77473 0.0
H2527 H 0.98212 0.48404 0.64954 0.0
H2528 H 0.03829 0.52955 0.7168 0.0
H2529 H 0.96285 0.49759 0.71579 0.0
C2530 C 0.96744 0.52416 0.74682 0.0
C2531 C 0.98239 0.54266 0.76338 0.0
C2532 C 0.02604 0.51882 0.70232 0.0
C2533 C 0.99689 0.51761 0.72694 0.0
C2534 C 0.03158 0.51678 0.68003 0.0
C2535 C 0.01573 0.50458 0.66075 0.0
C2536 C 1.00432 0.50918 0.70517 0.0
C2537 C 0.99462 0.49349 0.66424 0.0
C2538 C 0.97467 0.5114 0.72873 0.0
C2539 C 1.00459 0.54737 0.7618 0.0
N2540 N 0.98937 0.49634 0.68626 0.0
N2541 N 1.01117 0.53508 0.7436 0.0
H2542 H 0.33448 0.23362 0.44479 0.0
H2543 H 0.28207 0.26767 0.32776 0.0
H2544 H 0.27062 0.24503 0.43768 0.0
H2545 H 0.3513 0.28189 0.34723 0.0
H2546 H 0.27642 0.25475 0.36563 0.0
H2547 H 0.33998 0.24694 0.40718 0.0
C2548 C 0.32157 0.23886 0.43535 0.0
C2549 C 0.30203 0.23814 0.44461 0.0
C2550 C 0.29284 0.26057 0.36155 0.0
C2551 C 0.30811 0.2531 0.40101 0.0
C2552 C 0.29607 0.26776 0.33983 0.0
C2553 C 0.31721 0.27565 0.33411 0.0
C2554 C 0.31084 0.26084 0.37765 0.0
C2555 C 0.33471 0.27577 0.35074 0.0
C2556 C 0.32475 0.24654 0.41384 0.0
C2557 C 0.28598 0.24533 0.43141 0.0
N2558 N 0.33115 0.26838 0.37155 0.0
N2559 N 0.28928 0.25225 0.41032 0.0
H2560 H 0.36214 0.63822 0.5043 0.0
H2561 H 0.43542 0.55332 0.5398 0.0
H2562 H 0.34642 0.58378 0.54783 0.0
H2563 H 0.45237 0.59893 0.48869 0.0
H2564 H 0.40305 0.56676 0.5433 0.0
H2565 H 0.39555 0.6261 0.49789 0.0
C2566 C 0.36563 0.62369 0.51233 0.0
C2567 C 0.35167 0.61205 0.52675 0.0
C2568 C 0.41377 0.57411 0.53136 0.0
C2569 C 0.38932 0.59844 0.51969 0.0
C2570 C 0.4323 0.56651 0.52954 0.0
C2571 C 0.4464 0.57531 0.51418 0.0
C2572 C 0.40929 0.59078 0.51777 0.0
C2573 C 0.44167 0.59198 0.50081 0.0
C2574 C 0.38462 0.61687 0.50872 0.0
C2575 C 0.35678 0.59341 0.53676 0.0
N2576 N 0.42336 0.59937 0.50296 0.0
N2577 N 0.37517 0.58731 0.53308 0.0
H2578 H 0.90066 0.97903 0.56864 0.0
H2579 H 0.0155 0.98964 0.52031 0.0
H2580 H 0.91828 0.9169 0.53414 0.0
H2581 H 1.00489 0.04493 0.57266 0.0
H2582 H 0.97836 0.96429 0.52095 0.0
H2583 H 0.93695 1.00489 0.5661 0.0
C2584 C 0.9121 0.97076 0.56052 0.0
C2585 C 0.90627 0.94556 0.5518 0.0
C2586 C 0.98415 0.98199 0.53229 0.0
C2587 C 0.94809 0.97535 0.54858 0.0
C2588 C 1.00538 0.99649 0.53189 0.0
C2589 C 0.01354 0.01936 0.54666 0.0
C2590 C 0.97069 0.99055 0.54722 0.0
C2591 C 0.9995 0.0273 0.5612 0.0
C2592 C 0.93289 0.98559 0.5591 0.0
C2593 C 0.92195 0.93611 0.54134 0.0
N2594 N 0.97887 1.01305 0.56104 0.0
N2595 N 0.94197 0.95093 0.53998 0.0
H2596 H 0.87748 0.11541 0.22498 0.0
H2597 H 0.879 0.24895 0.29764 0.0
H2598 H 0.91894 0.14695 0.29087 0.0
H2599 H 0.82696 0.20658 0.24344 0.0
H2600 H 0.89551 0.21446 0.29422 0.0
H2601 H 0.86136 0.14991 0.22962 0.0
C2602 C 0.88334 0.12943 0.24054 0.0
C2603 C 0.89995 0.12737 0.25747 0.0
C2604 C 0.88055 0.21264 0.28289 0.0
C2605 C 0.88094 0.16859 0.263 0.0
C2606 C 0.871 0.23264 0.28481 0.0
C2607 C 0.85121 0.23147 0.27083 0.0
C2608 C 0.87092 0.19082 0.26629 0.0
C2609 C 0.84204 0.20905 0.25481 0.0
C2610 C 0.87394 0.14944 0.24321 0.0
C2611 C 0.90638 0.14701 0.27708 0.0
N2612 N 0.85187 0.19028 0.25289 0.0
N2613 N 0.89712 0.16634 0.27917 0.0
H2614 H 0.73541 0.16169 0.05266 0.0
H2615 H 0.63064 0.04838 0.02296 0.0
H2616 H 0.73348 0.09146 0.01303 0.0
H2617 H 0.63303 0.11524 0.06888 0.0
H2618 H 0.66886 0.06397 0.01995 0.0
H2619 H 0.69759 0.14578 0.05786 0.0
C2620 C 0.72688 0.14302 0.04474 0.0
C2621 C 0.73744 0.12767 0.03259 0.0
C2622 C 0.66121 0.07528 0.03084 0.0
C2623 C 0.69468 0.10949 0.03877 0.0
C2624 C 0.6395 0.06639 0.03256 0.0
C2625 C 0.6291 0.08096 0.04582 0.0
C2626 C 0.67235 0.09896 0.04231 0.0
C2627 C 0.64086 0.10382 0.05837 0.0
C2628 C 0.70544 0.13392 0.04796 0.0
C2629 C 0.72586 0.10371 0.02273 0.0
N2630 N 0.6621 0.11241 0.05607 0.0
N2631 N 0.705 0.09527 0.02614 0.0
H2632 H 0.20469 0.4965 0.29284 0.0
H2633 H 0.31072 0.45052 0.28711 0.0
H2634 H 0.26169 0.53223 0.26459 0.0
H2635 H 0.25063 0.40649 0.30296 0.0
H2636 H 0.29325 0.48222 0.28155 0.0
H2637 H 0.2217 0.46459 0.29974 0.0
C2638 C 0.2208 0.49764 0.28819 0.0
C2639 C 0.23192 0.51692 0.27821 0.0
C2640 C 0.28382 0.46572 0.28634 0.0
C2641 C 0.25115 0.48079 0.28586 0.0
C2642 C 0.2938 0.44783 0.2896 0.0
C2643 C 0.28196 0.42647 0.29577 0.0
C2644 C 0.2619 0.46207 0.28937 0.0
C2645 C 0.26008 0.42311 0.29841 0.0
C2646 C 0.2304 0.47945 0.29204 0.0
C2647 C 0.25265 0.51769 0.27243 0.0
N2648 N 0.25062 0.44097 0.29526 0.0
N2649 N 0.26161 0.49977 0.27633 0.0
H2650 H 0.30269 0.47725 0.04549 0.0
H2651 H 0.175 0.45454 0.04985 0.0
H2652 H 0.26104 0.4062 0.04673 0.0
H2653 H 0.21524 0.51722 0.02828 0.0
H2654 H 0.20576 0.43654 0.0504 0.0
H2655 H 0.27051 0.49228 0.04052 0.0
C2656 C 0.2867 0.4648 0.04461 0.0
C2657 C 0.28451 0.44045 0.04633 0.0
C2658 C 0.20774 0.45412 0.04534 0.0
C2659 C 0.24745 0.45765 0.04132 0.0
C2660 C 0.19021 0.4645 0.04513 0.0
C2661 C 0.19241 0.48753 0.03901 0.0
C2662 C 0.22776 0.46699 0.03971 0.0
C2663 C 0.21254 0.49936 0.03284 0.0
C2664 C 0.2683 0.47336 0.04177 0.0
C2665 C 0.26339 0.42506 0.04516 0.0
N2666 N 0.22936 0.48909 0.03354 0.0
N2667 N 0.24567 0.43397 0.04301 0.0
H2668 H 0.92685 0.97013 0.25282 0.0
H2669 H 0.82057 0.8882 0.29722 0.0
H2670 H 0.87733 0.99959 0.27998 0.0
H2671 H 0.8641 0.85534 0.26126 0.0
H2672 H 0.84248 0.92842 0.29316 0.0
H2673 H 0.90577 0.92919 0.2567 0.0
C2674 C 0.91147 0.96818 0.25953 0.0
C2675 C 0.90412 0.98912 0.26571 0.0
C2676 C 0.84747 0.91259 0.28615 0.0
C2677 C 0.87947 0.94082 0.27104 0.0
C2678 C 0.83489 0.88924 0.28858 0.0
C2679 C 0.84013 0.86751 0.27988 0.0
C2680 C 0.86597 0.91528 0.27455 0.0
C2681 C 0.85917 0.87101 0.26879 0.0
C2682 C 0.89935 0.94446 0.26182 0.0
C2683 C 0.88388 0.98453 0.27444 0.0
N2684 N 0.87112 0.89406 0.26644 0.0
N2685 N 0.87263 0.96135 0.27695 0.0
H2686 H 0.71944 0.14474 0.81535 0.0
H2687 H 0.78169 0.22956 0.73501 0.0
H2688 H 0.69434 0.14056 0.74291 0.0
H2689 H 0.80933 0.22075 0.80259 0.0
H2690 H 0.74901 0.19751 0.73657 0.0
H2691 H 0.74995 0.1786 0.8124 0.0
C2692 C 0.71985 0.15186 0.79918 0.0
C2693 C 0.70496 0.1397 0.77914 0.0
C2694 C 0.76246 0.20215 0.75076 0.0
C2695 C 0.73997 0.17698 0.77519 0.0
C2696 C 0.78128 0.21989 0.74958 0.0
C2697 C 0.79767 0.22779 0.769 0.0
C2698 C 0.76058 0.19254 0.77139 0.0
C2699 C 0.79663 0.21512 0.78754 0.0
C2700 C 0.73753 0.17063 0.79726 0.0
C2701 C 0.70586 0.14943 0.75859 0.0
N2702 N 0.77798 0.19833 0.78859 0.0
N2703 N 0.72368 0.1672 0.75684 0.0
loop_
_geom_bond_atom_site_label_1
_geom_bond_atom_site_label_2
_geom_bond_distance
_geom_bond_site_symmetry_2
_ccdc_geom_bond_type
O0 Cd1 2.223 . S
O0 C8 1.315 . S
Cd1 O0 2.223 . S
Cd1 O4 2.297 . S
Cd1 O5 2.439 . S
Cd1 O11 2.240 . S
Cd2 O3 2.240 . S
Cd2 O10 2.223 . S
Cd2 O12 2.297 . S
Cd2 O13 2.439 . S
O3 Cd2 2.240 . S
O3 C8 1.279 . S
O4 Cd1 2.297 . S
O4 C6 1.247 . S
O5 Cd1 2.439 . S
O5 C6 1.208 . S
C6 O4 1.247 . S
C6 O5 1.208 . S
C7 O12 1.247 . S
C7 O13 1.208 . S
C8 O0 1.315 . S
C8 O3 1.279 . S
C9 O10 1.315 . S
C9 O11 1.279 . S
O10 Cd2 2.223 . S
O10 C9 1.315 . S
O11 Cd1 2.240 . S
O11 C9 1.279 . S
O12 Cd2 2.297 . S
O12 C7 1.247 . S
O13 Cd2 2.439 . S
O13 C7 1.208 . S
O14 Cd15 2.223 . S
O14 C22 1.315 . S
Cd15 O14 2.223 . S
Cd15 O18 2.297 . S
Cd15 O19 2.439 . S
Cd15 O25 2.240 1_655 S
Cd16 O17 2.240 1_455 S
Cd16 O24 2.223 . S
Cd16 O26 2.297 . S
Cd16 O27 2.450 . S
O17 Cd16 2.240 1_655 S
O17 C22 1.279 . S
O18 Cd15 2.297 . S
O18 C20 1.247 . S
O19 Cd15 2.439 . S
O19 C20 1.208 . S
C20 O18 1.247 . S
C20 O19 1.208 . S
C21 O26 1.247 . S
C21 O27 1.221 . S
C22 O14 1.315 . S
C22 O17 1.279 . S
C23 O24 1.315 . S
C23 O25 1.279 . S
O24 Cd16 2.223 . S
O24 C23 1.315 . S
O25 Cd15 2.240 1_455 S
O25 C23 1.279 . S
O26 Cd16 2.297 . S
O26 C21 1.247 . S
O27 Cd16 2.450 . S
O27 C21 1.221 . S
O28 Cd29 2.223 . S
O28 C36 1.315 . S
Cd29 O28 2.223 . S
Cd29 O32 2.297 . S
Cd29 O33 2.439 . S
Cd29 O39 2.240 . S
Cd30 O31 2.240 . S
Cd30 O38 2.223 . S
Cd30 O40 2.297 . S
Cd30 O41 2.439 . S
O31 Cd30 2.240 . S
O31 C36 1.279 . S
O32 Cd29 2.297 . S
O32 C34 1.247 . S
O33 Cd29 2.439 . S
O33 C34 1.208 . S
C34 O32 1.247 . S
C34 O33 1.208 . S
C35 O40 1.247 . S
C35 O41 1.208 . S
C36 O28 1.315 . S
C36 O31 1.279 . S
C37 O38 1.315 . S
C37 O39 1.279 . S
O38 Cd30 2.223 . S
O38 C37 1.315 . S
O39 Cd29 2.240 . S
O39 C37 1.279 . S
O40 Cd30 2.297 . S
O40 C35 1.247 . S
O41 Cd30 2.439 . S
O41 C35 1.208 . S
O42 Cd43 2.223 . S
O42 C50 1.315 . S
Cd43 O42 2.223 . S
Cd43 O46 2.297 . S
Cd43 O47 2.439 . S
Cd43 O53 2.240 . S
Cd44 O45 2.240 . S
Cd44 O52 2.223 . S
Cd44 O54 2.297 . S
Cd44 O55 2.439 . S
O45 Cd44 2.240 . S
O45 C50 1.279 . S
O46 Cd43 2.297 . S
O46 C48 1.247 . S
O47 Cd43 2.439 . S
O47 C48 1.208 . S
C48 O46 1.247 . S
C48 O47 1.208 . S
C49 O54 1.247 . S
C49 O55 1.208 . S
C50 O42 1.315 . S
C50 O45 1.279 . S
C51 O52 1.315 . S
C51 O53 1.279 . S
O52 Cd44 2.223 . S
O52 C51 1.315 . S
O53 Cd43 2.240 . S
O53 C51 1.279 . S
O54 Cd44 2.297 . S
O54 C49 1.247 . S
O55 Cd44 2.439 . S
O55 C49 1.208 . S
O56 Cd57 2.223 . S
O56 C64 1.315 . S
Cd57 O56 2.223 . S
Cd57 O60 2.297 . S
Cd57 O61 2.439 . S
Cd57 O67 2.240 . S
Cd58 O59 2.240 . S
Cd58 O66 2.223 . S
Cd58 O68 2.297 . S
Cd58 O69 2.439 . S
O59 Cd58 2.240 . S
O59 C64 1.279 . S
O60 Cd57 2.297 . S
O60 C62 1.247 . S
O61 Cd57 2.439 . S
O61 C62 1.208 . S
C62 O60 1.247 . S
C62 O61 1.208 . S
C63 O68 1.247 . S
C63 O69 1.208 . S
C64 O56 1.315 . S
C64 O59 1.279 . S
C65 O66 1.315 . S
C65 O67 1.279 . S
O66 Cd58 2.223 . S
O66 C65 1.315 . S
O67 Cd57 2.240 . S
O67 C65 1.279 . S
O68 Cd58 2.297 . S
O68 C63 1.247 . S
O69 Cd58 2.439 . S
O69 C63 1.208 . S
O70 Cd71 2.223 . S
O70 C78 1.315 . S
Cd71 O70 2.223 . S
Cd71 O74 2.297 . S
Cd71 O75 2.439 . S
Cd71 O81 2.240 . S
Cd72 O73 2.240 . S
Cd72 O80 2.223 . S
Cd72 O82 2.297 . S
Cd72 O83 2.439 . S
O73 Cd72 2.240 . S
O73 C78 1.279 . S
O74 Cd71 2.297 . S
O74 C76 1.247 . S
O75 Cd71 2.439 . S
O75 C76 1.208 . S
C76 O74 1.247 . S
C76 O75 1.208 . S
C77 O82 1.247 . S
C77 O83 1.208 . S
C78 O70 1.315 . S
C78 O73 1.279 . S
C79 O80 1.315 . S
C79 O81 1.279 . S
O80 Cd72 2.223 . S
O80 C79 1.315 . S
O81 Cd71 2.240 . S
O81 C79 1.279 . S
O82 Cd72 2.297 . S
O82 C77 1.247 . S
O83 Cd72 2.439 . S
O83 C77 1.208 . S
O84 Cd85 2.223 . S
O84 C92 1.315 . S
Cd85 O84 2.223 . S
Cd85 O88 2.297 . S
Cd85 O89 2.439 . S
Cd85 O95 2.240 . S
Cd86 O87 2.240 . S
Cd86 O94 2.223 . S
Cd86 O96 2.297 . S
Cd86 O97 2.439 . S
O87 Cd86 2.240 . S
O87 C92 1.279 . S
O88 Cd85 2.297 . S
O88 C90 1.247 . S
O89 Cd85 2.439 . S
O89 C90 1.208 . S
C90 O88 1.247 . S
C90 O89 1.208 . S
C91 O96 1.247 . S
C91 O97 1.208 . S
C92 O84 1.315 . S
C92 O87 1.279 . S
C93 O94 1.315 . S
C93 O95 1.279 . S
O94 Cd86 2.223 . S
O94 C93 1.315 . S
O95 Cd85 2.240 . S
O95 C93 1.279 . S
O96 Cd86 2.297 . S
O96 C91 1.247 . S
O97 Cd86 2.439 . S
O97 C91 1.208 . S
O98 Cd99 2.223 . S
O98 C106 1.315 . S
Cd99 O98 2.223 . S
Cd99 O102 2.297 . S
Cd99 O103 2.439 . S
Cd99 O109 2.240 . S
Cd100 O101 2.240 . S
Cd100 O108 2.223 1_455 S
Cd100 O110 2.297 . S
Cd100 O111 2.439 . S
O101 Cd100 2.240 . S
O101 C106 1.279 . S
O102 Cd99 2.297 . S
O102 C104 1.247 . S
O103 Cd99 2.439 . S
O103 C104 1.208 . S
C104 O102 1.247 . S
C104 O103 1.208 . S
C105 O110 1.247 . S
C105 O111 1.208 . S
C106 O98 1.315 . S
C106 O101 1.279 . S
C107 O108 1.315 . S
C107 O109 1.279 1_655 S
O108 Cd100 2.223 1_655 S
O108 C107 1.315 . S
O109 Cd99 2.240 . S
O109 C107 1.279 1_455 S
O110 Cd100 2.297 . S
O110 C105 1.247 . S
O111 Cd100 2.439 . S
O111 C105 1.208 . S
O112 Cd113 2.223 1_565 S
O112 C120 1.315 1_565 S
Cd113 O112 2.223 1_545 S
Cd113 O116 2.297 . S
Cd113 O117 2.439 . S
Cd113 O123 2.240 1_545 S
Cd114 O115 2.240 1_565 S
Cd114 O122 2.223 . S
Cd114 O124 2.297 . S
Cd114 O125 2.439 1_565 S
O115 Cd114 2.240 1_545 S
O115 C120 1.279 . S
O116 Cd113 2.297 . S
O116 C118 1.247 . S
O117 Cd113 2.439 . S
O117 C118 1.208 . S
C118 O116 1.247 . S
C118 O117 1.208 . S
C119 O124 1.247 1_545 S
C119 O125 1.208 . S
C120 O112 1.315 1_545 S
C120 O115 1.279 . S
C121 O122 1.315 . S
C121 O123 1.279 . S
O122 Cd114 2.223 . S
O122 C121 1.315 . S
O123 Cd113 2.240 1_565 S
O123 C121 1.279 . S
O124 Cd114 2.297 . S
O124 C119 1.247 1_565 S
O125 Cd114 2.439 1_545 S
O125 C119 1.208 . S
O126 Cd127 2.223 . S
O126 C134 1.315 . S
Cd127 O126 2.223 . S
Cd127 O130 2.297 . S
Cd127 O131 2.439 . S
Cd127 O137 2.240 . S
Cd128 O129 2.240 . S
Cd128 O136 2.223 . S
Cd128 O138 2.297 . S
Cd128 O139 2.439 . S
O129 Cd128 2.240 . S
O129 C134 1.279 . S
O130 Cd127 2.297 . S
O130 C132 1.247 . S
O131 Cd127 2.439 . S
O131 C132 1.208 . S
C132 O130 1.247 . S
C132 O131 1.208 . S
C133 O138 1.247 . S
C133 O139 1.208 . S
C134 O126 1.315 . S
C134 O129 1.279 . S
C135 O136 1.315 . S
C135 O137 1.279 . S
O136 Cd128 2.223 . S
O136 C135 1.315 . S
O137 Cd127 2.240 . S
O137 C135 1.279 . S
O138 Cd128 2.297 . S
O138 C133 1.247 . S
O139 Cd128 2.439 . S
O139 C133 1.208 . S
O140 Cd141 2.223 1_545 S
O140 C148 1.315 1_545 S
Cd141 O140 2.223 1_565 S
Cd141 O144 2.297 . S
Cd141 O145 2.439 . S
Cd141 O151 2.240 1_565 S
Cd142 O143 2.240 1_545 S
Cd142 O150 2.223 . S
Cd142 O152 2.297 . S
Cd142 O153 2.439 1_545 S
O143 Cd142 2.240 1_565 S
O143 C148 1.279 . S
O144 Cd141 2.297 . S
O144 C146 1.247 . S
O145 Cd141 2.439 . S
O145 C146 1.208 . S
C146 O144 1.247 . S
C146 O145 1.208 . S
C147 O152 1.247 . S
C147 O153 1.208 1_545 S
C148 O140 1.315 1_565 S
C148 O143 1.279 . S
C149 O150 1.315 . S
C149 O151 1.279 . S
O150 Cd142 2.223 . S
O150 C149 1.315 . S
O151 Cd141 2.240 1_545 S
O151 C149 1.279 . S
O152 Cd142 2.297 . S
O152 C147 1.247 . S
O153 Cd142 2.439 1_565 S
O153 C147 1.208 1_565 S
O154 Cd155 2.223 . S
O154 C162 1.315 . S
Cd155 O154 2.223 . S
Cd155 O158 2.297 . S
Cd155 O159 2.439 1_554 S
Cd155 O165 2.216 1_554 S
Cd156 O157 2.240 1_556 S
Cd156 O164 2.223 1_556 S
Cd156 O166 2.297 . S
Cd156 O167 2.439 . S
O157 Cd156 2.240 1_554 S
O157 C162 1.279 . S
O158 Cd155 2.297 . S
O158 C160 1.247 . S
O159 Cd155 2.439 1_556 S
O159 C160 1.208 1_556 S
C160 O158 1.247 . S
C160 O159 1.208 1_554 S
C161 O166 1.247 . S
C161 O167 1.208 . S
C162 O154 1.315 . S
C162 O157 1.279 . S
C163 O164 1.315 . S
C163 O165 1.265 1_554 S
O164 Cd156 2.223 1_554 S
O164 C163 1.315 . S
O165 Cd155 2.216 1_556 S
O165 C163 1.265 1_556 S
O166 Cd156 2.297 . S
O166 C161 1.247 . S
O167 Cd156 2.439 . S
O167 C161 1.208 . S
O168 Cd169 2.223 . S
O168 C176 1.315 . S
Cd169 O168 2.223 . S
Cd169 O172 2.297 . S
Cd169 O173 2.439 . S
Cd169 O179 2.240 . S
Cd170 O171 2.240 . S
Cd170 O178 2.223 . S
Cd170 O180 2.297 1_554 S
Cd170 O181 2.439 1_554 S
O171 Cd170 2.240 . S
O171 C176 1.279 . S
O172 Cd169 2.297 . S
O172 C174 1.247 . S
O173 Cd169 2.439 . S
O173 C174 1.208 . S
C174 O172 1.247 . S
C174 O173 1.208 . S
C175 O180 1.247 . S
C175 O181 1.208 . S
C176 O168 1.315 . S
C176 O171 1.279 . S
C177 O178 1.315 . S
C177 O179 1.279 . S
O178 Cd170 2.223 . S
O178 C177 1.315 . S
O179 Cd169 2.240 . S
O179 C177 1.279 . S
O180 Cd170 2.297 1_556 S
O180 C175 1.247 . S
O181 Cd170 2.439 1_556 S
O181 C175 1.208 . S
O182 Cd183 2.223 . S
O182 C190 1.315 . S
Cd183 O182 2.223 . S
Cd183 O186 2.297 . S
Cd183 O187 2.439 . S
Cd183 O193 2.240 . S
Cd184 O185 2.240 . S
Cd184 O192 2.223 . S
Cd184 O194 2.297 1_554 S
Cd184 O195 2.439 1_554 S
O185 Cd184 2.240 . S
O185 C190 1.279 . S
O186 Cd183 2.297 . S
O186 C188 1.247 . S
O187 Cd183 2.439 . S
O187 C188 1.208 . S
C188 O186 1.247 . S
C188 O187 1.208 . S
C189 O194 1.247 . S
C189 O195 1.208 . S
C190 O182 1.315 . S
C190 O185 1.279 . S
C191 O192 1.315 . S
C191 O193 1.279 . S
O192 Cd184 2.223 . S
O192 C191 1.315 . S
O193 Cd183 2.240 . S
O193 C191 1.279 . S
O194 Cd184 2.297 1_556 S
O194 C189 1.247 . S
O195 Cd184 2.439 1_556 S
O195 C189 1.208 . S
O196 Cd197 2.223 . S
O196 C204 1.315 . S
Cd197 O196 2.223 . S
Cd197 O200 2.297 . S
Cd197 O201 2.439 . S
Cd197 O207 2.240 . S
Cd198 O199 2.240 . S
Cd198 O206 2.223 . S
Cd198 O208 2.297 . S
Cd198 O209 2.439 . S
O199 Cd198 2.240 . S
O199 C204 1.279 . S
O200 Cd197 2.297 . S
O200 C202 1.247 . S
O201 Cd197 2.439 . S
O201 C202 1.208 . S
C202 O200 1.247 . S
C202 O201 1.208 . S
C203 O208 1.247 . S
C203 O209 1.208 . S
C204 O196 1.315 . S
C204 O199 1.279 . S
C205 O206 1.315 . S
C205 O207 1.279 . S
O206 Cd198 2.223 . S
O206 C205 1.315 . S
O207 Cd197 2.240 . S
O207 C205 1.279 . S
O208 Cd198 2.297 . S
O208 C203 1.247 . S
O209 Cd198 2.439 . S
O209 C203 1.208 . S
O210 Cd211 2.223 . S
O210 C218 1.315 . S
Cd211 O210 2.223 . S
Cd211 O214 2.297 . S
Cd211 O215 2.439 . S
Cd211 O221 2.240 . S
Cd212 O213 2.240 . S
Cd212 O220 2.223 . S
Cd212 O222 2.297 . S
Cd212 O223 2.439 . S
O213 Cd212 2.240 . S
O213 C218 1.279 . S
O214 Cd211 2.297 . S
O214 C216 1.247 . S
O215 Cd211 2.439 . S
O215 C216 1.208 . S
C216 O214 1.247 . S
C216 O215 1.208 . S
C217 O222 1.247 . S
C217 O223 1.208 . S
C218 O210 1.315 . S
C218 O213 1.279 . S
C219 O220 1.315 . S
C219 O221 1.279 . S
O220 Cd212 2.223 . S
O220 C219 1.315 . S
O221 Cd211 2.240 . S
O221 C219 1.279 . S
O222 Cd212 2.297 . S
O222 C217 1.247 . S
O223 Cd212 2.439 . S
O223 C217 1.208 . S
O224 Cd225 2.223 . S
O224 C232 1.315 . S
Cd225 O224 2.223 . S
Cd225 O228 2.297 . S
Cd225 O229 2.439 . S
Cd225 O235 2.240 . S
Cd226 O227 2.240 . S
Cd226 O234 2.223 . S
Cd226 O236 2.297 . S
Cd226 O237 2.439 . S
O227 Cd226 2.240 . S
O227 C232 1.279 . S
O228 Cd225 2.297 . S
O228 C230 1.247 . S
O229 Cd225 2.439 . S
O229 C230 1.208 . S
C230 O228 1.247 . S
C230 O229 1.208 . S
C231 O236 1.247 . S
C231 O237 1.208 . S
C232 O224 1.315 . S
C232 O227 1.279 . S
C233 O234 1.315 . S
C233 O235 1.279 . S
O234 Cd226 2.223 . S
O234 C233 1.315 . S
O235 Cd225 2.240 . S
O235 C233 1.279 . S
O236 Cd226 2.297 . S
O236 C231 1.247 . S
O237 Cd226 2.439 . S
O237 C231 1.208 . S
O238 Cd239 2.223 . S
O238 C246 1.315 . S
Cd239 O238 2.223 . S
Cd239 O242 2.297 . S
Cd239 O243 2.439 . S
Cd239 O249 2.240 . S
Cd240 O241 2.240 . S
Cd240 O248 2.223 . S
Cd240 O250 2.297 . S
Cd240 O251 2.439 . S
O241 Cd240 2.240 . S
O241 C246 1.279 . S
O242 Cd239 2.297 . S
O242 C244 1.247 . S
O243 Cd239 2.439 . S
O243 C244 1.208 . S
C244 O242 1.247 . S
C244 O243 1.208 . S
C245 O250 1.247 . S
C245 O251 1.208 . S
C246 O238 1.315 . S
C246 O241 1.279 . S
C247 O248 1.315 . S
C247 O249 1.279 . S
O248 Cd240 2.223 . S
O248 C247 1.315 . S
O249 Cd239 2.240 . S
O249 C247 1.279 . S
O250 Cd240 2.297 . S
O250 C245 1.247 . S
O251 Cd240 2.439 . S
O251 C245 1.208 . S
O252 Cd253 2.223 . S
O252 C260 1.315 . S
Cd253 O252 2.223 . S
Cd253 O256 2.297 . S
Cd253 O257 2.439 . S
Cd253 O263 2.240 . S
Cd254 O255 2.240 . S
Cd254 O262 2.223 . S
Cd254 O264 2.297 . S
Cd254 O265 2.439 . S
O255 Cd254 2.240 . S
O255 C260 1.279 . S
O256 Cd253 2.297 . S
O256 C258 1.247 . S
O257 Cd253 2.439 . S
O257 C258 1.208 . S
C258 O256 1.247 . S
C258 O257 1.208 . S
C259 O264 1.247 . S
C259 O265 1.208 . S
C260 O252 1.315 . S
C260 O255 1.279 . S
C261 O262 1.315 . S
C261 O263 1.279 . S
O262 Cd254 2.223 . S
O262 C261 1.315 . S
O263 Cd253 2.240 . S
O263 C261 1.279 . S
O264 Cd254 2.297 . S
O264 C259 1.247 . S
O265 Cd254 2.439 . S
O265 C259 1.208 . S
O266 Cd267 2.223 . S
O266 C274 1.315 . S
Cd267 O266 2.223 . S
Cd267 O270 2.297 . S
Cd267 O271 2.439 . S
Cd267 O277 2.240 . S
Cd268 O269 2.240 . S
Cd268 O276 2.223 . S
Cd268 O278 2.297 . S
Cd268 O279 2.439 . S
O269 Cd268 2.240 . S
O269 C274 1.279 . S
O270 Cd267 2.297 . S
O270 C272 1.247 . S
O271 Cd267 2.439 . S
O271 C272 1.208 . S
C272 O270 1.247 . S
C272 O271 1.208 . S
C273 O278 1.247 . S
C273 O279 1.208 . S
C274 O266 1.315 . S
C274 O269 1.279 . S
C275 O276 1.315 . S
C275 O277 1.279 . S
O276 Cd268 2.223 . S
O276 C275 1.315 . S
O277 Cd267 2.240 . S
O277 C275 1.279 . S
O278 Cd268 2.297 . S
O278 C273 1.247 . S
O279 Cd268 2.439 . S
O279 C273 1.208 . S
O280 Cd281 2.223 . S
O280 C288 1.315 . S
Cd281 O280 2.223 . S
Cd281 O284 2.297 . S
Cd281 O285 2.439 . S
Cd281 O291 2.240 . S
Cd282 O283 2.240 . S
Cd282 O290 2.223 . S
Cd282 O292 2.297 1_554 S
Cd282 O293 2.439 1_554 S
O283 Cd282 2.240 . S
O283 C288 1.279 . S
O284 Cd281 2.297 . S
O284 C286 1.247 . S
O285 Cd281 2.439 . S
O285 C286 1.208 . S
C286 O284 1.247 . S
C286 O285 1.208 . S
C287 O292 1.247 . S
C287 O293 1.208 . S
C288 O280 1.315 . S
C288 O283 1.279 . S
C289 O290 1.315 . S
C289 O291 1.279 . S
O290 Cd282 2.223 . S
O290 C289 1.315 . S
O291 Cd281 2.240 . S
O291 C289 1.279 . S
O292 Cd282 2.297 1_556 S
O292 C287 1.247 . S
O293 Cd282 2.439 1_556 S
O293 C287 1.208 . S
O294 Cd295 2.223 . S
O294 C302 1.315 . S
Cd295 O294 2.223 . S
Cd295 O298 2.297 . S
Cd295 O299 2.439 . S
Cd295 O305 2.240 . S
Cd296 O297 2.240 . S
Cd296 O304 2.223 . S
Cd296 O306 2.297 . S
Cd296 O307 2.439 . S
O297 Cd296 2.240 . S
O297 C302 1.279 . S
O298 Cd295 2.297 . S
O298 C300 1.247 . S
O299 Cd295 2.439 . S
O299 C300 1.208 . S
C300 O298 1.247 . S
C300 O299 1.208 . S
C301 O306 1.247 . S
C301 O307 1.208 . S
C302 O294 1.315 . S
C302 O297 1.279 . S
C303 O304 1.315 . S
C303 O305 1.279 . S
O304 Cd296 2.223 . S
O304 C303 1.315 . S
O305 Cd295 2.240 . S
O305 C303 1.279 . S
O306 Cd296 2.297 . S
O306 C301 1.247 . S
O307 Cd296 2.439 . S
O307 C301 1.208 . S
O308 Cd309 2.223 . S
O308 C316 1.315 . S
Cd309 O308 2.223 . S
Cd309 O312 2.297 . S
Cd309 O313 2.439 . S
Cd309 O319 2.240 . S
Cd310 O311 2.240 . S
Cd310 O318 2.223 . S
Cd310 O320 2.297 . S
Cd310 O321 2.439 . S
O311 Cd310 2.240 . S
O311 C316 1.279 . S
O312 Cd309 2.297 . S
O312 C314 1.247 . S
O313 Cd309 2.439 . S
O313 C314 1.208 . S
C314 O312 1.247 . S
C314 O313 1.208 . S
C315 O320 1.247 . S
C315 O321 1.208 . S
C316 O308 1.315 . S
C316 O311 1.279 . S
C317 O318 1.315 . S
C317 O319 1.279 . S
O318 Cd310 2.223 . S
O318 C317 1.315 . S
O319 Cd309 2.240 . S
O319 C317 1.279 . S
O320 Cd310 2.297 . S
O320 C315 1.247 . S
O321 Cd310 2.439 . S
O321 C315 1.208 . S
O322 Cd323 2.223 . S
O322 C330 1.315 . S
Cd323 O322 2.223 . S
Cd323 O326 2.297 . S
Cd323 O327 2.439 . S
Cd323 O333 2.240 . S
Cd324 O325 2.240 . S
Cd324 O332 2.223 . S
Cd324 O334 2.297 . S
Cd324 O335 2.439 . S
O325 Cd324 2.240 . S
O325 C330 1.279 . S
O326 Cd323 2.297 . S
O326 C328 1.247 . S
O327 Cd323 2.439 . S
O327 C328 1.208 . S
C328 O326 1.247 . S
C328 O327 1.208 . S
C329 O334 1.247 . S
C329 O335 1.208 . S
C330 O322 1.315 . S
C330 O325 1.279 . S
C331 O332 1.315 . S
C331 O333 1.279 . S
O332 Cd324 2.223 . S
O332 C331 1.315 . S
O333 Cd323 2.240 . S
O333 C331 1.279 . S
O334 Cd324 2.297 . S
O334 C329 1.247 . S
O335 Cd324 2.439 . S
O335 C329 1.208 . S
La336 C338 2.928 1_455 S
La336 O356 2.521 1_454 S
La336 O357 2.628 1_455 S
La336 O358 2.554 1_554 S
La336 O359 2.755 1_554 S
La336 O360 2.470 . S
La336 O365 2.482 . S
La336 O367 2.503 1_545 S
La337 C347 2.928 . S
La337 O359 2.478 1_554 S
La337 O361 2.503 . S
La337 O362 2.521 . S
La337 O363 2.628 . S
La337 O364 2.554 . S
La337 O365 2.757 . S
La337 O366 2.470 . S
C338 La336 2.928 1_655 S
C338 C339 1.503 1_554 S
C338 O356 1.261 1_554 S
C338 O357 1.243 . S
C339 C338 1.503 1_556 S
C339 C340 1.394 . S
C339 C344 1.373 1_556 S
C340 C339 1.394 . S
C340 C341 1.380 . S
C340 H368 0.930 . S
C341 C340 1.380 . S
C341 C342 1.376 . S
C341 H369 0.930 . S
C342 C341 1.376 . S
C342 C343 1.370 1_556 S
C343 C342 1.370 1_554 S
C343 C344 1.396 . S
C343 H370 0.929 . S
C344 C339 1.373 1_554 S
C344 C343 1.396 . S
C344 H371 0.929 . S
C345 O358 1.240 . S
C345 O359 1.294 . S
C346 O360 1.258 . S
C346 O361 1.256 . S
C347 La337 2.928 . S
C347 C348 1.503 . S
C347 O362 1.261 . S
C347 O363 1.243 . S
C348 C347 1.503 . S
C348 C349 1.394 . S
C348 C353 1.373 . S
C349 C348 1.394 . S
C349 C350 1.380 . S
C349 H372 0.930 . S
C350 C349 1.380 . S
C350 C351 1.376 . S
C350 H373 0.930 . S
C351 C350 1.376 . S
C351 C352 1.370 . S
C352 C351 1.370 . S
C352 C353 1.396 . S
C352 H374 0.929 1_545 S
C353 C348 1.373 . S
C353 C352 1.396 . S
C353 H375 0.929 . S
C354 O364 1.240 . S
C354 O365 1.289 . S
C355 O366 1.258 1_565 S
C355 O367 1.256 . S
O356 La336 2.521 1_656 S
O356 C338 1.261 1_556 S
O357 La336 2.628 1_655 S
O357 C338 1.243 . S
O358 La336 2.554 1_556 S
O358 C345 1.240 . S
O359 La336 2.755 1_556 S
O359 La337 2.478 1_556 S
O359 C345 1.294 . S
O360 La336 2.470 . S
O360 C346 1.258 . S
O361 La337 2.503 . S
O361 C346 1.256 . S
O362 La337 2.521 . S
O362 C347 1.261 . S
O363 La337 2.628 . S
O363 C347 1.243 . S
O364 La337 2.554 . S
O364 C354 1.240 . S
O365 La336 2.482 . S
O365 La337 2.757 . S
O365 C354 1.289 . S
O366 La337 2.470 . S
O366 C355 1.258 1_545 S
O367 La336 2.503 1_565 S
O367 C355 1.256 . S
H368 C340 0.930 . S
H369 C341 0.930 . S
H370 C343 0.929 . S
H371 C344 0.929 . S
H372 C349 0.930 . S
H373 C350 0.930 . S
H374 C352 0.929 1_565 S
H375 C353 0.929 . S
La376 C378 2.928 . S
La376 O396 2.521 . S
La376 O397 2.628 . S
La376 O398 2.554 . S
La376 O399 2.757 . S
La376 O400 2.470 . S
La376 O405 2.482 . S
La376 O407 2.503 . S
La377 C387 2.928 . S
La377 O399 2.482 . S
La377 O401 2.503 . S
La377 O402 2.521 . S
La377 O403 2.628 . S
La377 O404 2.554 . S
La377 O405 2.757 . S
La377 O406 2.470 . S
C378 La376 2.928 . S
C378 C379 1.503 . S
C378 O396 1.261 . S
C378 O397 1.243 . S
C379 C378 1.503 . S
C379 C380 1.394 . S
C379 C384 1.373 . S
C380 C379 1.394 . S
C380 C381 1.380 . S
C380 H408 0.930 . S
C381 C380 1.380 . S
C381 C382 1.376 . S
C381 H409 0.930 . S
C382 C381 1.376 . S
C382 C383 1.370 . S
C383 C382 1.370 . S
C383 C384 1.396 . S
C383 H410 0.929 . S
C384 C379 1.373 . S
C384 C383 1.396 . S
C384 H411 0.929 . S
C385 O398 1.240 . S
C385 O399 1.289 . S
C386 O400 1.258 . S
C386 O401 1.256 . S
C387 La377 2.928 . S
C387 C388 1.503 . S
C387 O402 1.261 . S
C387 O403 1.243 . S
C388 C387 1.503 . S
C388 C389 1.394 . S
C388 C393 1.373 . S
C389 C388 1.394 . S
C389 C390 1.380 . S
C389 H412 0.930 . S
C390 C389 1.380 . S
C390 C391 1.376 . S
C390 H413 0.930 . S
C391 C390 1.376 . S
C391 C392 1.370 . S
C392 C391 1.370 . S
C392 C393 1.396 . S
C392 H414 0.929 . S
C393 C388 1.373 . S
C393 C392 1.396 . S
C393 H415 0.929 . S
C394 O404 1.240 . S
C394 O405 1.289 . S
C395 O406 1.258 . S
C395 O407 1.256 . S
O396 La376 2.521 . S
O396 C378 1.261 . S
O397 La376 2.628 . S
O397 C378 1.243 . S
O398 La376 2.554 . S
O398 C385 1.240 . S
O399 La376 2.757 . S
O399 La377 2.482 . S
O399 C385 1.289 . S
O400 La376 2.470 . S
O400 C386 1.258 . S
O401 La377 2.503 . S
O401 C386 1.256 . S
O402 La377 2.521 . S
O402 C387 1.261 . S
O403 La377 2.628 . S
O403 C387 1.243 . S
O404 La377 2.554 . S
O404 C394 1.240 . S
O405 La376 2.482 . S
O405 La377 2.757 . S
O405 C394 1.289 . S
O406 La377 2.470 . S
O406 C395 1.258 . S
O407 La376 2.503 . S
O407 C395 1.256 . S
H408 C380 0.930 . S
H409 C381 0.930 . S
H410 C383 0.929 . S
H411 C384 0.929 . S
H412 C389 0.930 . S
H413 C390 0.930 . S
H414 C392 0.929 . S
H415 C393 0.929 . S
La416 C418 2.928 . S
La416 O436 2.521 . S
La416 O437 2.628 . S
La416 O438 2.554 . S
La416 O439 2.757 . S
La416 O440 2.470 1_545 S
La416 O445 2.482 . S
La416 O447 2.503 . S
La417 C427 2.928 . S
La417 O439 2.482 . S
La417 O441 2.503 1_545 S
La417 O442 2.521 . S
La417 O443 2.628 . S
La417 O444 2.554 . S
La417 O445 2.757 . S
La417 O446 2.470 . S
C418 La416 2.928 . S
C418 C419 1.503 1_545 S
C418 O436 1.261 . S
C418 O437 1.243 . S
C419 C418 1.503 1_565 S
C419 C420 1.394 . S
C419 C424 1.373 . S
C420 C419 1.394 . S
C420 C421 1.380 . S
C420 H448 0.930 1_565 S
C421 C420 1.380 . S
C421 C422 1.376 . S
C421 H449 0.930 . S
C422 C421 1.376 . S
C422 C423 1.370 . S
C423 C422 1.370 . S
C423 C424 1.396 . S
C423 H450 0.929 . S
C424 C419 1.373 . S
C424 C423 1.396 . S
C424 H451 0.929 . S
C425 O438 1.240 . S
C425 O439 1.289 . S
C426 O440 1.258 . S
C426 O441 1.256 . S
C427 La417 2.928 . S
C427 C428 1.503 . S
C427 O442 1.261 . S
C427 O443 1.243 . S
C428 C427 1.503 . S
C428 C429 1.394 . S
C428 C433 1.373 . S
C429 C428 1.394 . S
C429 C430 1.380 . S
C429 H452 0.930 . S
C430 C429 1.380 . S
C430 C431 1.376 . S
C430 H453 0.930 . S
C431 C430 1.376 . S
C431 C432 1.370 . S
C432 C431 1.370 . S
C432 C433 1.396 . S
C432 H454 0.929 . S
C433 C428 1.373 . S
C433 C432 1.396 . S
C433 H455 0.929 . S
C434 O444 1.240 . S
C434 O445 1.289 . S
C435 O446 1.258 . S
C435 O447 1.256 . S
O436 La416 2.521 . S
O436 C418 1.261 . S
O437 La416 2.628 . S
O437 C418 1.243 . S
O438 La416 2.554 . S
O438 C425 1.240 . S
O439 La416 2.757 . S
O439 La417 2.482 . S
O439 C425 1.289 . S
O440 La416 2.470 1_565 S
O440 C426 1.258 . S
O441 La417 2.503 1_565 S
O441 C426 1.256 . S
O442 La417 2.521 . S
O442 C427 1.261 . S
O443 La417 2.628 . S
O443 C427 1.243 . S
O444 La417 2.554 . S
O444 C434 1.240 . S
O445 La416 2.482 . S
O445 La417 2.757 . S
O445 C434 1.289 . S
O446 La417 2.470 . S
O446 C435 1.258 . S
O447 La416 2.503 . S
O447 C435 1.256 . S
H448 C420 0.930 1_545 S
H449 C421 0.930 . S
H450 C423 0.929 . S
H451 C424 0.929 . S
H452 C429 0.930 . S
H453 C430 0.930 . S
H454 C432 0.929 . S
H455 C433 0.929 . S
La456 C458 2.928 . S
La456 O476 2.521 . S
La456 O477 2.628 . S
La456 O478 2.554 . S
La456 O479 2.757 . S
La456 O480 2.470 . S
La456 O485 2.482 . S
La456 O487 2.503 . S
La457 C467 2.928 . S
La457 O479 2.482 . S
La457 O481 2.503 . S
La457 O482 2.521 . S
La457 O483 2.628 . S
La457 O484 2.554 . S
La457 O485 2.757 . S
La457 O486 2.470 . S
C458 La456 2.928 . S
C458 C459 1.503 . S
C458 O476 1.261 . S
C458 O477 1.243 . S
C459 C458 1.503 . S
C459 C460 1.394 . S
C459 C464 1.373 . S
C460 C459 1.394 . S
C460 C461 1.380 . S
C460 H488 0.930 . S
C461 C460 1.380 . S
C461 C462 1.376 . S
C461 H489 0.930 . S
C462 C461 1.376 . S
C462 C463 1.370 . S
C463 C462 1.370 . S
C463 C464 1.396 . S
C463 H490 0.929 . S
C464 C459 1.373 . S
C464 C463 1.396 . S
C464 H491 0.929 . S
C465 O478 1.240 . S
C465 O479 1.289 . S
C466 O480 1.258 . S
C466 O481 1.256 . S
C467 La457 2.928 . S
C467 C468 1.503 . S
C467 O482 1.261 . S
C467 O483 1.243 . S
C468 C467 1.503 . S
C468 C469 1.394 . S
C468 C473 1.373 . S
C469 C468 1.394 . S
C469 C470 1.380 . S
C469 H492 0.930 . S
C470 C469 1.380 . S
C470 C471 1.376 . S
C470 H493 0.930 . S
C471 C470 1.376 . S
C471 C472 1.370 . S
C472 C471 1.370 . S
C472 C473 1.396 . S
C472 H494 0.929 . S
C473 C468 1.373 . S
C473 C472 1.396 . S
C473 H495 0.929 . S
C474 O484 1.240 . S
C474 O485 1.289 . S
C475 O486 1.258 . S
C475 O487 1.256 . S
O476 La456 2.521 . S
O476 C458 1.261 . S
O477 La456 2.628 . S
O477 C458 1.243 . S
O478 La456 2.554 . S
O478 C465 1.240 . S
O479 La456 2.757 . S
O479 La457 2.482 . S
O479 C465 1.289 . S
O480 La456 2.470 . S
O480 C466 1.258 . S
O481 La457 2.503 . S
O481 C466 1.256 . S
O482 La457 2.521 . S
O482 C467 1.261 . S
O483 La457 2.628 . S
O483 C467 1.243 . S
O484 La457 2.554 . S
O484 C474 1.240 . S
O485 La456 2.482 . S
O485 La457 2.757 . S
O485 C474 1.289 . S
O486 La457 2.470 . S
O486 C475 1.258 . S
O487 La456 2.503 . S
O487 C475 1.256 . S
H488 C460 0.930 . S
H489 C461 0.930 . S
H490 C463 0.929 . S
H491 C464 0.929 . S
H492 C469 0.930 . S
H493 C470 0.930 . S
H494 C472 0.929 . S
H495 C473 0.929 . S
La496 C498 2.928 . S
La496 O516 2.521 . S
La496 O517 2.628 . S
La496 O518 2.554 . S
La496 O519 2.757 . S
La496 O520 2.470 . S
La496 O525 2.482 . S
La496 O527 2.503 . S
La497 C507 2.903 1_545 S
La497 O519 2.498 . S
La497 O521 2.520 . S
La497 O522 2.496 1_545 S
La497 O523 2.608 1_545 S
La497 O524 2.561 . S
La497 O525 2.781 . S
La497 O526 2.475 . S
C498 La496 2.928 . S
C498 C499 1.503 . S
C498 O516 1.261 . S
C498 O517 1.243 . S
C499 C498 1.503 . S
C499 C500 1.394 . S
C499 C504 1.373 . S
C500 C499 1.394 . S
C500 C501 1.380 . S
C500 H528 0.930 . S
C501 C500 1.380 . S
C501 C502 1.376 . S
C501 H529 0.930 . S
C502 C501 1.376 . S
C502 C503 1.370 . S
C503 C502 1.370 . S
C503 C504 1.396 . S
C503 H530 0.929 . S
C504 C499 1.373 . S
C504 C503 1.396 . S
C504 H531 0.929 . S
C505 O518 1.240 . S
C505 O519 1.289 . S
C506 O520 1.258 . S
C506 O521 1.256 . S
C507 La497 2.903 1_565 S
C507 C508 1.503 . S
C507 O522 1.261 . S
C507 O523 1.243 . S
C508 C507 1.503 . S
C508 C509 1.394 . S
C508 C513 1.373 . S
C509 C508 1.394 . S
C509 C510 1.380 . S
C509 H532 0.930 . S
C510 C509 1.380 . S
C510 C511 1.376 . S
C510 H533 0.930 . S
C511 C510 1.376 . S
C511 C512 1.370 . S
C512 C511 1.370 . S
C512 C513 1.396 . S
C512 H534 0.929 . S
C513 C508 1.373 . S
C513 C512 1.396 . S
C513 H535 0.929 . S
C514 O524 1.240 . S
C514 O525 1.289 . S
C515 O526 1.258 . S
C515 O527 1.256 . S
O516 La496 2.521 . S
O516 C498 1.261 . S
O517 La496 2.628 . S
O517 C498 1.243 . S
O518 La496 2.554 . S
O518 C505 1.240 . S
O519 La496 2.757 . S
O519 La497 2.498 . S
O519 C505 1.289 . S
O520 La496 2.470 . S
O520 C506 1.258 . S
O521 La497 2.520 . S
O521 C506 1.256 . S
O522 La497 2.496 1_565 S
O522 C507 1.261 . S
O523 La497 2.608 1_565 S
O523 C507 1.243 . S
O524 La497 2.561 . S
O524 C514 1.240 . S
O525 La496 2.482 . S
O525 La497 2.781 . S
O525 C514 1.289 . S
O526 La497 2.475 . S
O526 C515 1.258 . S
O527 La496 2.503 . S
O527 C515 1.256 . S
H528 C500 0.930 . S
H529 C501 0.930 . S
H530 C503 0.929 . S
H531 C504 0.929 . S
H532 C509 0.930 . S
H533 C510 0.930 . S
H534 C512 0.929 . S
H535 C513 0.929 . S
La536 C538 2.928 . S
La536 O556 2.521 . S
La536 O557 2.628 . S
La536 O558 2.554 . S
La536 O559 2.757 . S
La536 O560 2.470 . S
La536 O565 2.482 . S
La536 O567 2.503 . S
La537 C547 2.928 . S
La537 O559 2.482 . S
La537 O561 2.503 . S
La537 O562 2.521 . S
La537 O563 2.628 . S
La537 O564 2.554 . S
La537 O565 2.757 . S
La537 O566 2.470 . S
C538 La536 2.928 . S
C538 C539 1.503 . S
C538 O556 1.261 . S
C538 O557 1.243 . S
C539 C538 1.503 . S
C539 C540 1.394 . S
C539 C544 1.373 . S
C540 C539 1.394 . S
C540 C541 1.380 . S
C540 H568 0.930 . S
C541 C540 1.380 . S
C541 C542 1.376 . S
C541 H569 0.930 . S
C542 C541 1.376 . S
C542 C543 1.370 . S
C543 C542 1.370 . S
C543 C544 1.396 . S
C543 H570 0.929 . S
C544 C539 1.373 . S
C544 C543 1.396 . S
C544 H571 0.929 . S
C545 O558 1.240 . S
C545 O559 1.289 . S
C546 O560 1.258 . S
C546 O561 1.256 . S
C547 La537 2.928 . S
C547 C548 1.503 . S
C547 O562 1.261 . S
C547 O563 1.243 . S
C548 C547 1.503 . S
C548 C549 1.394 . S
C548 C553 1.373 . S
C549 C548 1.394 . S
C549 C550 1.380 . S
C549 H572 0.930 . S
C550 C549 1.380 . S
C550 C551 1.376 . S
C550 H573 0.930 . S
C551 C550 1.376 . S
C551 C552 1.370 . S
C552 C551 1.370 . S
C552 C553 1.396 . S
C552 H574 0.929 . S
C553 C548 1.373 . S
C553 C552 1.396 . S
C553 H575 0.929 . S
C554 O564 1.240 . S
C554 O565 1.289 . S
C555 O566 1.258 . S
C555 O567 1.256 . S
O556 La536 2.521 . S
O556 C538 1.261 . S
O557 La536 2.628 . S
O557 C538 1.243 . S
O558 La536 2.554 . S
O558 C545 1.240 . S
O559 La536 2.757 . S
O559 La537 2.482 . S
O559 C545 1.289 . S
O560 La536 2.470 . S
O560 C546 1.258 . S
O561 La537 2.503 . S
O561 C546 1.256 . S
O562 La537 2.521 . S
O562 C547 1.261 . S
O563 La537 2.628 . S
O563 C547 1.243 . S
O564 La537 2.554 . S
O564 C554 1.240 . S
O565 La536 2.482 . S
O565 La537 2.757 . S
O565 C554 1.289 . S
O566 La537 2.470 . S
O566 C555 1.258 . S
O567 La536 2.503 . S
O567 C555 1.256 . S
H568 C540 0.930 . S
H569 C541 0.930 . S
H570 C543 0.929 . S
H571 C544 0.929 . S
H572 C549 0.930 . S
H573 C550 0.930 . S
H574 C552 0.929 . S
H575 C553 0.929 . S
La576 C578 2.928 . S
La576 O596 2.522 1_545 S
La576 O597 2.628 . S
La576 O598 2.554 1_545 S
La576 O599 2.757 . S
La576 O600 2.470 . S
La576 O605 2.482 . S
La576 O607 2.503 . S
La577 C587 2.928 . S
La577 O599 2.482 1_556 S
La577 O601 2.503 1_556 S
La577 O602 2.521 . S
La577 O603 2.628 . S
La577 O604 2.554 1_556 S
La577 O605 2.757 1_556 S
La577 O606 2.470 1_556 S
C578 La576 2.928 . S
C578 C579 1.503 . S
C578 O596 1.262 1_545 S
C578 O597 1.243 . S
C579 C578 1.503 . S
C579 C580 1.394 1_545 S
C579 C584 1.373 . S
C580 C579 1.394 1_565 S
C580 C581 1.380 . S
C580 H608 0.930 . S
C581 C580 1.380 . S
C581 C582 1.376 . S
C581 H609 0.930 . S
C582 C581 1.376 . S
C582 C583 1.370 1_565 S
C583 C582 1.370 1_545 S
C583 C584 1.396 . S
C583 H610 0.929 . S
C584 C579 1.373 . S
C584 C583 1.396 . S
C584 H611 0.929 . S
C585 O598 1.240 . S
C585 O599 1.289 1_565 S
C586 O600 1.258 . S
C586 O601 1.256 . S
C587 La577 2.928 . S
C587 C588 1.503 . S
C587 O602 1.261 . S
C587 O603 1.243 . S
C588 C587 1.503 . S
C588 C589 1.394 . S
C588 C593 1.373 . S
C589 C588 1.394 . S
C589 C590 1.380 . S
C589 H612 0.930 . S
C590 C589 1.380 . S
C590 C591 1.376 . S
C590 H613 0.930 . S
C591 C590 1.376 . S
C591 C592 1.370 . S
C592 C591 1.370 . S
C592 C593 1.396 . S
C592 H614 0.929 . S
C593 C588 1.373 . S
C593 C592 1.396 . S
C593 H615 0.929 . S
C594 O604 1.240 . S
C594 O605 1.289 . S
C595 O606 1.258 . S
C595 O607 1.256 . S
O596 La576 2.522 1_565 S
O596 C578 1.262 1_565 S
O597 La576 2.628 . S
O597 C578 1.243 . S
O598 La576 2.554 1_565 S
O598 C585 1.240 . S
O599 La576 2.757 . S
O599 La577 2.482 1_554 S
O599 C585 1.289 1_545 S
O600 La576 2.470 . S
O600 C586 1.258 . S
O601 La577 2.503 1_554 S
O601 C586 1.256 . S
O602 La577 2.521 . S
O602 C587 1.261 . S
O603 La577 2.628 . S
O603 C587 1.243 . S
O604 La577 2.554 1_554 S
O604 C594 1.240 . S
O605 La576 2.482 . S
O605 La577 2.757 1_554 S
O605 C594 1.289 . S
O606 La577 2.470 1_554 S
O606 C595 1.258 . S
O607 La576 2.503 . S
O607 C595 1.256 . S
H608 C580 0.930 . S
H609 C581 0.930 . S
H610 C583 0.929 . S
H611 C584 0.929 . S
H612 C589 0.930 . S
H613 C590 0.930 . S
H614 C592 0.929 . S
H615 C593 0.929 . S
La616 C618 2.928 . S
La616 O636 2.521 . S
La616 O637 2.628 . S
La616 O638 2.554 . S
La616 O639 2.757 . S
La616 O640 2.470 . S
La616 O645 2.482 . S
La616 O647 2.503 . S
La617 C627 2.928 . S
La617 O639 2.482 . S
La617 O641 2.503 . S
La617 O642 2.521 . S
La617 O643 2.628 . S
La617 O644 2.554 . S
La617 O645 2.757 . S
La617 O646 2.470 . S
C618 La616 2.928 . S
C618 C619 1.503 . S
C618 O636 1.261 . S
C618 O637 1.243 . S
C619 C618 1.503 . S
C619 C620 1.394 . S
C619 C624 1.373 . S
C620 C619 1.394 . S
C620 C621 1.380 . S
C620 H648 0.930 . S
C621 C620 1.380 . S
C621 C622 1.376 . S
C621 H649 0.930 . S
C622 C621 1.376 . S
C622 C623 1.370 . S
C623 C622 1.370 . S
C623 C624 1.396 . S
C623 H650 0.929 . S
C624 C619 1.373 . S
C624 C623 1.396 . S
C624 H651 0.929 . S
C625 O638 1.240 . S
C625 O639 1.289 . S
C626 O640 1.258 . S
C626 O641 1.256 . S
C627 La617 2.928 . S
C627 C628 1.503 . S
C627 O642 1.261 . S
C627 O643 1.243 . S
C628 C627 1.503 . S
C628 C629 1.394 . S
C628 C633 1.373 . S
C629 C628 1.394 . S
C629 C630 1.380 . S
C629 H652 0.930 . S
C630 C629 1.380 . S
C630 C631 1.376 . S
C630 H653 0.930 . S
C631 C630 1.376 . S
C631 C632 1.370 . S
C632 C631 1.370 . S
C632 C633 1.396 . S
C632 H654 0.929 . S
C633 C628 1.373 . S
C633 C632 1.396 . S
C633 H655 0.929 . S
C634 O644 1.240 . S
C634 O645 1.289 . S
C635 O646 1.258 . S
C635 O647 1.256 . S
O636 La616 2.521 . S
O636 C618 1.261 . S
O637 La616 2.628 . S
O637 C618 1.243 . S
O638 La616 2.554 . S
O638 C625 1.240 . S
O639 La616 2.757 . S
O639 La617 2.482 . S
O639 C625 1.289 . S
O640 La616 2.470 . S
O640 C626 1.258 . S
O641 La617 2.503 . S
O641 C626 1.256 . S
O642 La617 2.521 . S
O642 C627 1.261 . S
O643 La617 2.628 . S
O643 C627 1.243 . S
O644 La617 2.554 . S
O644 C634 1.240 . S
O645 La616 2.482 . S
O645 La617 2.757 . S
O645 C634 1.289 . S
O646 La617 2.470 . S
O646 C635 1.258 . S
O647 La616 2.503 . S
O647 C635 1.256 . S
H648 C620 0.930 . S
H649 C621 0.930 . S
H650 C623 0.929 . S
H651 C624 0.929 . S
H652 C629 0.930 . S
H653 C630 0.930 . S
H654 C632 0.929 . S
H655 C633 0.929 . S
La656 C658 2.928 . S
La656 O676 2.521 . S
La656 O677 2.628 . S
La656 O678 2.554 . S
La656 O679 2.757 . S
La656 O680 2.470 1_554 S
La656 O685 2.482 . S
La656 O687 2.503 . S
La657 C667 2.928 . S
La657 O679 2.482 . S
La657 O681 2.503 1_554 S
La657 O682 2.521 . S
La657 O683 2.628 . S
La657 O684 2.554 . S
La657 O685 2.757 . S
La657 O686 2.470 . S
C658 La656 2.928 . S
C658 C659 1.503 . S
C658 O676 1.261 . S
C658 O677 1.243 . S
C659 C658 1.503 . S
C659 C660 1.394 . S
C659 C664 1.373 1_554 S
C660 C659 1.394 . S
C660 C661 1.380 1_554 S
C660 H688 0.930 . S
C661 C660 1.380 1_556 S
C661 C662 1.376 . S
C661 H689 0.930 . S
C662 C661 1.376 . S
C662 C663 1.370 . S
C663 C662 1.370 . S
C663 C664 1.396 . S
C663 H690 0.929 . S
C664 C659 1.373 1_556 S
C664 C663 1.396 . S
C664 H691 0.929 . S
C665 O678 1.240 . S
C665 O679 1.289 . S
C666 O680 1.258 . S
C666 O681 1.256 . S
C667 La657 2.928 . S
C667 C668 1.503 . S
C667 O682 1.261 . S
C667 O683 1.243 . S
C668 C667 1.503 . S
C668 C669 1.394 . S
C668 C673 1.373 . S
C669 C668 1.394 . S
C669 C670 1.380 . S
C669 H692 0.930 . S
C670 C669 1.380 . S
C670 C671 1.376 . S
C670 H693 0.930 . S
C671 C670 1.376 . S
C671 C672 1.370 . S
C672 C671 1.370 . S
C672 C673 1.396 . S
C672 H694 0.929 . S
C673 C668 1.373 . S
C673 C672 1.396 . S
C673 H695 0.929 . S
C674 O684 1.240 . S
C674 O685 1.289 . S
C675 O686 1.258 . S
C675 O687 1.256 . S
O676 La656 2.521 . S
O676 C658 1.261 . S
O677 La656 2.628 . S
O677 C658 1.243 . S
O678 La656 2.554 . S
O678 C665 1.240 . S
O679 La656 2.757 . S
O679 La657 2.482 . S
O679 C665 1.289 . S
O680 La656 2.470 1_556 S
O680 C666 1.258 . S
O681 La657 2.503 1_556 S
O681 C666 1.256 . S
O682 La657 2.521 . S
O682 C667 1.261 . S
O683 La657 2.628 . S
O683 C667 1.243 . S
O684 La657 2.554 . S
O684 C674 1.240 . S
O685 La656 2.482 . S
O685 La657 2.757 . S
O685 C674 1.289 . S
O686 La657 2.470 . S
O686 C675 1.258 . S
O687 La656 2.503 . S
O687 C675 1.256 . S
H688 C660 0.930 . S
H689 C661 0.930 . S
H690 C663 0.929 . S
H691 C664 0.929 . S
H692 C669 0.930 . S
H693 C670 0.930 . S
H694 C672 0.929 . S
H695 C673 0.929 . S
La696 C698 2.928 . S
La696 O716 2.521 . S
La696 O717 2.628 . S
La696 O718 2.554 . S
La696 O719 2.757 . S
La696 O720 2.470 . S
La696 O725 2.482 . S
La696 O727 2.503 . S
La697 C707 2.928 . S
La697 O719 2.482 . S
La697 O721 2.503 . S
La697 O722 2.521 . S
La697 O723 2.628 . S
La697 O724 2.554 . S
La697 O725 2.757 . S
La697 O726 2.470 . S
C698 La696 2.928 . S
C698 C699 1.503 . S
C698 O716 1.261 . S
C698 O717 1.243 . S
C699 C698 1.503 . S
C699 C700 1.394 . S
C699 C704 1.373 . S
C700 C699 1.394 . S
C700 C701 1.380 . S
C700 H728 0.930 . S
C701 C700 1.380 . S
C701 C702 1.376 . S
C701 H729 0.930 . S
C702 C701 1.376 . S
C702 C703 1.370 . S
C703 C702 1.370 . S
C703 C704 1.396 . S
C703 H730 0.929 . S
C704 C699 1.373 . S
C704 C703 1.396 . S
C704 H731 0.929 . S
C705 O718 1.240 . S
C705 O719 1.289 . S
C706 O720 1.258 . S
C706 O721 1.256 . S
C707 La697 2.928 . S
C707 C708 1.503 . S
C707 O722 1.261 . S
C707 O723 1.243 . S
C708 C707 1.503 . S
C708 C709 1.394 . S
C708 C713 1.373 . S
C709 C708 1.394 . S
C709 C710 1.380 . S
C709 H732 0.930 . S
C710 C709 1.380 . S
C710 C711 1.376 . S
C710 H733 0.930 . S
C711 C710 1.376 . S
C711 C712 1.370 . S
C712 C711 1.370 . S
C712 C713 1.396 . S
C712 H734 0.929 . S
C713 C708 1.373 . S
C713 C712 1.396 . S
C713 H735 0.929 . S
C714 O724 1.240 . S
C714 O725 1.289 . S
C715 O726 1.258 . S
C715 O727 1.256 . S
O716 La696 2.521 . S
O716 C698 1.261 . S
O717 La696 2.628 . S
O717 C698 1.243 . S
O718 La696 2.554 . S
O718 C705 1.240 . S
O719 La696 2.757 . S
O719 La697 2.482 . S
O719 C705 1.289 . S
O720 La696 2.470 . S
O720 C706 1.258 . S
O721 La697 2.503 . S
O721 C706 1.256 . S
O722 La697 2.521 . S
O722 C707 1.261 . S
O723 La697 2.628 . S
O723 C707 1.243 . S
O724 La697 2.554 . S
O724 C714 1.240 . S
O725 La696 2.482 . S
O725 La697 2.757 . S
O725 C714 1.289 . S
O726 La697 2.470 . S
O726 C715 1.258 . S
O727 La696 2.503 . S
O727 C715 1.256 . S
H728 C700 0.930 . S
H729 C701 0.930 . S
H730 C703 0.929 . S
H731 C704 0.929 . S
H732 C709 0.930 . S
H733 C710 0.930 . S
H734 C712 0.929 . S
H735 C713 0.929 . S
La736 C738 2.928 . S
La736 O756 2.521 . S
La736 O757 2.628 . S
La736 O758 2.554 . S
La736 O759 2.757 . S
La736 O760 2.470 . S
La736 O765 2.482 . S
La736 O767 2.503 . S
La737 C747 2.928 . S
La737 O759 2.482 . S
La737 O761 2.503 . S
La737 O762 2.521 . S
La737 O763 2.628 . S
La737 O764 2.554 . S
La737 O765 2.757 . S
La737 O766 2.470 . S
C738 La736 2.928 . S
C738 C739 1.503 . S
C738 O756 1.261 . S
C738 O757 1.243 . S
C739 C738 1.503 . S
C739 C740 1.394 . S
C739 C744 1.373 . S
C740 C739 1.394 . S
C740 C741 1.380 . S
C740 H768 0.930 . S
C741 C740 1.380 . S
C741 C742 1.376 1_455 S
C741 H769 0.930 . S
C742 C741 1.376 1_655 S
C742 C743 1.370 . S
C743 C742 1.370 . S
C743 C744 1.396 1_655 S
C743 H770 0.929 . S
C744 C739 1.373 . S
C744 C743 1.396 1_455 S
C744 H771 0.929 . S
C745 O758 1.240 . S
C745 O759 1.289 . S
C746 O760 1.258 . S
C746 O761 1.256 . S
C747 La737 2.928 . S
C747 C748 1.503 . S
C747 O762 1.261 . S
C747 O763 1.243 . S
C748 C747 1.503 . S
C748 C749 1.394 . S
C748 C753 1.373 . S
C749 C748 1.394 . S
C749 C750 1.380 . S
C749 H772 0.930 . S
C750 C749 1.380 . S
C750 C751 1.376 . S
C750 H773 0.930 . S
C751 C750 1.376 . S
C751 C752 1.370 . S
C752 C751 1.370 . S
C752 C753 1.396 . S
C752 H774 0.929 . S
C753 C748 1.373 . S
C753 C752 1.396 . S
C753 H775 0.929 . S
C754 O764 1.240 . S
C754 O765 1.289 . S
C755 O766 1.258 . S
C755 O767 1.256 . S
O756 La736 2.521 . S
O756 C738 1.261 . S
O757 La736 2.628 . S
O757 C738 1.243 . S
O758 La736 2.554 . S
O758 C745 1.240 . S
O759 La736 2.757 . S
O759 La737 2.482 . S
O759 C745 1.289 . S
O760 La736 2.470 . S
O760 C746 1.258 . S
O761 La737 2.503 . S
O761 C746 1.256 . S
O762 La737 2.521 . S
O762 C747 1.261 . S
O763 La737 2.628 . S
O763 C747 1.243 . S
O764 La737 2.554 . S
O764 C754 1.240 . S
O765 La736 2.482 . S
O765 La737 2.757 . S
O765 C754 1.289 . S
O766 La737 2.470 . S
O766 C755 1.258 . S
O767 La736 2.503 . S
O767 C755 1.256 . S
H768 C740 0.930 . S
H769 C741 0.930 . S
H770 C743 0.929 . S
H771 C744 0.929 . S
H772 C749 0.930 . S
H773 C750 0.930 . S
H774 C752 0.929 . S
H775 C753 0.929 . S
La776 C778 2.928 . S
La776 O796 2.521 . S
La776 O797 2.628 . S
La776 O798 2.554 . S
La776 O799 2.757 . S
La776 O800 2.470 . S
La776 O805 2.482 . S
La776 O807 2.503 . S
La777 C787 2.928 . S
La777 O799 2.482 . S
La777 O801 2.503 . S
La777 O802 2.521 . S
La777 O803 2.628 . S
La777 O804 2.554 . S
La777 O805 2.757 . S
La777 O806 2.470 . S
C778 La776 2.928 . S
C778 C779 1.503 . S
C778 O796 1.261 . S
C778 O797 1.243 . S
C779 C778 1.503 . S
C779 C780 1.394 . S
C779 C784 1.373 . S
C780 C779 1.394 . S
C780 C781 1.380 . S
C780 H808 0.930 . S
C781 C780 1.380 . S
C781 C782 1.376 . S
C781 H809 0.930 . S
C782 C781 1.376 . S
C782 C783 1.370 . S
C783 C782 1.370 . S
C783 C784 1.396 . S
C783 H810 0.929 . S
C784 C779 1.373 . S
C784 C783 1.396 . S
C784 H811 0.929 . S
C785 O798 1.240 . S
C785 O799 1.289 . S
C786 O800 1.258 . S
C786 O801 1.256 . S
C787 La777 2.928 . S
C787 C788 1.503 . S
C787 O802 1.261 . S
C787 O803 1.243 . S
C788 C787 1.503 . S
C788 C789 1.394 . S
C788 C793 1.373 . S
C789 C788 1.394 . S
C789 C790 1.380 . S
C789 H812 0.930 . S
C790 C789 1.380 . S
C790 C791 1.376 . S
C790 H813 0.930 . S
C791 C790 1.376 . S
C791 C792 1.370 . S
C792 C791 1.370 . S
C792 C793 1.396 . S
C792 H814 0.929 . S
C793 C788 1.373 . S
C793 C792 1.396 . S
C793 H815 0.929 . S
C794 O804 1.240 . S
C794 O805 1.289 . S
C795 O806 1.258 . S
C795 O807 1.256 . S
O796 La776 2.521 . S
O796 C778 1.261 . S
O797 La776 2.628 . S
O797 C778 1.243 . S
O798 La776 2.554 . S
O798 C785 1.240 . S
O799 La776 2.757 . S
O799 La777 2.482 . S
O799 C785 1.289 . S
O800 La776 2.470 . S
O800 C786 1.258 . S
O801 La777 2.503 . S
O801 C786 1.256 . S
O802 La777 2.521 . S
O802 C787 1.261 . S
O803 La777 2.628 . S
O803 C787 1.243 . S
O804 La777 2.554 . S
O804 C794 1.240 . S
O805 La776 2.482 . S
O805 La777 2.757 . S
O805 C794 1.289 . S
O806 La777 2.470 . S
O806 C795 1.258 . S
O807 La776 2.503 . S
O807 C795 1.256 . S
H808 C780 0.930 . S
H809 C781 0.930 . S
H810 C783 0.929 . S
H811 C784 0.929 . S
H812 C789 0.930 . S
H813 C790 0.930 . S
H814 C792 0.929 . S
H815 C793 0.929 . S
La816 C818 2.928 . S
La816 O836 2.521 . S
La816 O837 2.628 . S
La816 O838 2.554 . S
La816 O839 2.757 . S
La816 O840 2.470 . S
La816 O845 2.482 . S
La816 O847 2.503 . S
La817 C827 2.928 . S
La817 O839 2.482 . S
La817 O841 2.503 . S
La817 O842 2.521 . S
La817 O843 2.628 . S
La817 O844 2.554 . S
La817 O845 2.757 . S
La817 O846 2.470 . S
C818 La816 2.928 . S
C818 C819 1.503 . S
C818 O836 1.261 . S
C818 O837 1.243 . S
C819 C818 1.503 . S
C819 C820 1.394 . S
C819 C824 1.373 . S
C820 C819 1.394 . S
C820 C821 1.380 . S
C820 H848 0.930 . S
C821 C820 1.380 . S
C821 C822 1.376 . S
C821 H849 0.930 . S
C822 C821 1.376 . S
C822 C823 1.370 . S
C823 C822 1.370 . S
C823 C824 1.396 . S
C823 H850 0.929 . S
C824 C819 1.373 . S
C824 C823 1.396 . S
C824 H851 0.929 . S
C825 O838 1.240 . S
C825 O839 1.289 . S
C826 O840 1.258 . S
C826 O841 1.256 . S
C827 La817 2.928 . S
C827 C828 1.503 . S
C827 O842 1.261 . S
C827 O843 1.243 . S
C828 C827 1.503 . S
C828 C829 1.394 . S
C828 C833 1.373 . S
C829 C828 1.394 . S
C829 C830 1.380 . S
C829 H852 0.930 . S
C830 C829 1.380 . S
C830 C831 1.376 . S
C830 H853 0.930 . S
C831 C830 1.376 . S
C831 C832 1.370 . S
C832 C831 1.370 . S
C832 C833 1.396 . S
C832 H854 0.929 . S
C833 C828 1.373 . S
C833 C832 1.396 . S
C833 H855 0.929 . S
C834 O844 1.240 . S
C834 O845 1.289 . S
C835 O846 1.258 . S
C835 O847 1.256 . S
O836 La816 2.521 . S
O836 C818 1.261 . S
O837 La816 2.628 . S
O837 C818 1.243 . S
O838 La816 2.554 . S
O838 C825 1.240 . S
O839 La816 2.757 . S
O839 La817 2.482 . S
O839 C825 1.289 . S
O840 La816 2.470 . S
O840 C826 1.258 . S
O841 La817 2.503 . S
O841 C826 1.256 . S
O842 La817 2.521 . S
O842 C827 1.261 . S
O843 La817 2.628 . S
O843 C827 1.243 . S
O844 La817 2.554 . S
O844 C834 1.240 . S
O845 La816 2.482 . S
O845 La817 2.757 . S
O845 C834 1.289 . S
O846 La817 2.470 . S
O846 C835 1.258 . S
O847 La816 2.503 . S
O847 C835 1.256 . S
H848 C820 0.930 . S
H849 C821 0.930 . S
H850 C823 0.929 . S
H851 C824 0.929 . S
H852 C829 0.930 . S
H853 C830 0.930 . S
H854 C832 0.929 . S
H855 C833 0.929 . S
La856 C858 2.928 . S
La856 O876 2.521 . S
La856 O877 2.628 . S
La856 O878 2.554 . S
La856 O879 2.757 . S
La856 O880 2.470 . S
La856 O885 2.482 . S
La856 O887 2.503 . S
La857 C867 2.928 . S
La857 O879 2.482 . S
La857 O881 2.503 . S
La857 O882 2.521 . S
La857 O883 2.628 . S
La857 O884 2.554 . S
La857 O885 2.757 . S
La857 O886 2.470 . S
C858 La856 2.928 . S
C858 C859 1.503 . S
C858 O876 1.261 . S
C858 O877 1.243 . S
C859 C858 1.503 . S
C859 C860 1.394 . S
C859 C864 1.373 . S
C860 C859 1.394 . S
C860 C861 1.380 . S
C860 H888 0.930 . S
C861 C860 1.380 . S
C861 C862 1.376 . S
C861 H889 0.930 . S
C862 C861 1.376 . S
C862 C863 1.370 . S
C863 C862 1.370 . S
C863 C864 1.396 . S
C863 H890 0.929 . S
C864 C859 1.373 . S
C864 C863 1.396 . S
C864 H891 0.929 . S
C865 O878 1.240 . S
C865 O879 1.289 . S
C866 O880 1.258 . S
C866 O881 1.256 . S
C867 La857 2.928 . S
C867 C868 1.503 . S
C867 O882 1.261 . S
C867 O883 1.243 . S
C868 C867 1.503 . S
C868 C869 1.394 . S
C868 C873 1.373 . S
C869 C868 1.394 . S
C869 C870 1.380 . S
C869 H892 0.930 . S
C870 C869 1.380 . S
C870 C871 1.376 . S
C870 H893 0.930 . S
C871 C870 1.376 . S
C871 C872 1.370 . S
C872 C871 1.370 . S
C872 C873 1.396 . S
C872 H894 0.929 . S
C873 C868 1.373 . S
C873 C872 1.396 . S
C873 H895 0.929 . S
C874 O884 1.240 . S
C874 O885 1.289 . S
C875 O886 1.258 . S
C875 O887 1.256 . S
O876 La856 2.521 . S
O876 C858 1.261 . S
O877 La856 2.628 . S
O877 C858 1.243 . S
O878 La856 2.554 . S
O878 C865 1.240 . S
O879 La856 2.757 . S
O879 La857 2.482 . S
O879 C865 1.289 . S
O880 La856 2.470 . S
O880 C866 1.258 . S
O881 La857 2.503 . S
O881 C866 1.256 . S
O882 La857 2.521 . S
O882 C867 1.261 . S
O883 La857 2.628 . S
O883 C867 1.243 . S
O884 La857 2.554 . S
O884 C874 1.240 . S
O885 La856 2.482 . S
O885 La857 2.757 . S
O885 C874 1.289 . S
O886 La857 2.470 . S
O886 C875 1.258 . S
O887 La856 2.503 . S
O887 C875 1.256 . S
H888 C860 0.930 . S
H889 C861 0.930 . S
H890 C863 0.929 . S
H891 C864 0.929 . S
H892 C869 0.930 . S
H893 C870 0.930 . S
H894 C872 0.929 . S
H895 C873 0.929 . S
La896 C898 2.928 . S
La896 O916 2.521 . S
La896 O917 2.628 . S
La896 O918 2.554 . S
La896 O919 2.757 . S
La896 O920 2.470 . S
La896 O925 2.482 . S
La896 O927 2.503 . S
La897 C907 2.928 . S
La897 O919 2.482 . S
La897 O921 2.503 . S
La897 O922 2.521 . S
La897 O923 2.628 . S
La897 O924 2.554 . S
La897 O925 2.757 . S
La897 O926 2.470 . S
C898 La896 2.928 . S
C898 C899 1.503 . S
C898 O916 1.261 . S
C898 O917 1.243 . S
C899 C898 1.503 . S
C899 C900 1.394 . S
C899 C904 1.373 . S
C900 C899 1.394 . S
C900 C901 1.380 . S
C900 H928 0.930 . S
C901 C900 1.380 . S
C901 C902 1.376 . S
C901 H929 0.930 . S
C902 C901 1.376 . S
C902 C903 1.370 . S
C903 C902 1.370 . S
C903 C904 1.396 . S
C903 H930 0.929 . S
C904 C899 1.373 . S
C904 C903 1.396 . S
C904 H931 0.929 . S
C905 O918 1.240 . S
C905 O919 1.289 . S
C906 O920 1.258 . S
C906 O921 1.256 . S
C907 La897 2.928 . S
C907 C908 1.503 . S
C907 O922 1.261 . S
C907 O923 1.243 . S
C908 C907 1.503 . S
C908 C909 1.394 . S
C908 C913 1.373 . S
C909 C908 1.394 . S
C909 C910 1.380 . S
C909 H932 0.930 . S
C910 C909 1.380 . S
C910 C911 1.376 . S
C910 H933 0.930 . S
C911 C910 1.376 . S
C911 C912 1.370 . S
C912 C911 1.370 . S
C912 C913 1.396 . S
C912 H934 0.929 . S
C913 C908 1.373 . S
C913 C912 1.396 . S
C913 H935 0.929 . S
C914 O924 1.240 . S
C914 O925 1.289 . S
C915 O926 1.258 . S
C915 O927 1.256 . S
O916 La896 2.521 . S
O916 C898 1.261 . S
O917 La896 2.628 . S
O917 C898 1.243 . S
O918 La896 2.554 . S
O918 C905 1.240 . S
O919 La896 2.757 . S
O919 La897 2.482 . S
O919 C905 1.289 . S
O920 La896 2.470 . S
O920 C906 1.258 . S
O921 La897 2.503 . S
O921 C906 1.256 . S
O922 La897 2.521 . S
O922 C907 1.261 . S
O923 La897 2.628 . S
O923 C907 1.243 . S
O924 La897 2.554 . S
O924 C914 1.240 . S
O925 La896 2.482 . S
O925 La897 2.757 . S
O925 C914 1.289 . S
O926 La897 2.470 . S
O926 C915 1.258 . S
O927 La896 2.503 . S
O927 C915 1.256 . S
H928 C900 0.930 . S
H929 C901 0.930 . S
H930 C903 0.929 . S
H931 C904 0.929 . S
H932 C909 0.930 . S
H933 C910 0.930 . S
H934 C912 0.929 . S
H935 C913 0.929 . S
La936 C938 2.928 . S
La936 O956 2.521 . S
La936 O957 2.628 . S
La936 O958 2.554 1_554 S
La936 O959 2.757 . S
La936 O960 2.470 . S
La936 O965 2.482 . S
La936 O967 2.503 . S
La937 C947 2.928 1_455 S
La937 O959 2.482 . S
La937 O961 2.503 . S
La937 O962 2.508 1_455 S
La937 O963 2.628 . S
La937 O964 2.554 . S
La937 O965 2.757 . S
La937 O966 2.470 . S
C938 La936 2.928 . S
C938 C939 1.503 . S
C938 O956 1.261 . S
C938 O957 1.243 . S
C939 C938 1.503 . S
C939 C940 1.418 . S
C939 C944 1.373 . S
C940 C939 1.418 . S
C940 C941 1.376 1_554 S
C940 H968 0.911 1_554 S
C941 C940 1.376 1_556 S
C941 C942 1.376 1_556 S
C941 H969 0.930 . S
C942 C941 1.376 1_554 S
C942 C943 1.370 . S
C943 C942 1.370 . S
C943 C944 1.396 . S
C943 H970 0.929 . S
C944 C939 1.373 . S
C944 C943 1.396 . S
C944 H971 0.929 . S
C945 O958 1.240 . S
C945 O959 1.289 1_556 S
C946 O960 1.258 . S
C946 O961 1.256 . S
C947 La937 2.928 1_655 S
C947 C948 1.503 . S
C947 O962 1.266 . S
C947 O963 1.243 1_655 S
C948 C947 1.503 . S
C948 C949 1.394 . S
C948 C953 1.373 . S
C949 C948 1.394 . S
C949 C950 1.380 . S
C949 H972 0.930 . S
C950 C949 1.380 . S
C950 C951 1.376 . S
C950 H973 0.930 . S
C951 C950 1.376 . S
C951 C952 1.370 . S
C952 C951 1.370 . S
C952 C953 1.396 . S
C952 H974 0.929 . S
C953 C948 1.373 . S
C953 C952 1.396 . S
C953 H975 0.929 . S
C954 O964 1.240 . S
C954 O965 1.289 . S
C955 O966 1.258 . S
C955 O967 1.256 . S
O956 La936 2.521 . S
O956 C938 1.261 . S
O957 La936 2.628 . S
O957 C938 1.243 . S
O958 La936 2.554 1_556 S
O958 C945 1.240 . S
O959 La936 2.757 . S
O959 La937 2.482 . S
O959 C945 1.289 1_554 S
O960 La936 2.470 . S
O960 C946 1.258 . S
O961 La937 2.503 . S
O961 C946 1.256 . S
O962 La937 2.508 1_655 S
O962 C947 1.266 . S
O963 La937 2.628 . S
O963 C947 1.243 1_455 S
O964 La937 2.554 . S
O964 C954 1.240 . S
O965 La936 2.482 . S
O965 La937 2.757 . S
O965 C954 1.289 . S
O966 La937 2.470 . S
O966 C955 1.258 . S
O967 La936 2.503 . S
O967 C955 1.256 . S
H968 C940 0.911 1_556 S
H969 C941 0.930 . S
H970 C943 0.929 . S
H971 C944 0.929 . S
H972 C949 0.930 . S
H973 C950 0.930 . S
H974 C952 0.929 . S
H975 C953 0.929 . S
H976 C982 0.930 . S
H977 C986 0.930 . S
H978 C991 0.929 . S
H979 C989 0.929 . S
H980 C984 0.929 . S
H981 C990 0.929 . S
C982 H976 0.930 . S
C982 C983 1.367 . S
C982 C990 1.378 . S
C983 C982 1.367 . S
C983 C991 1.433 . S
C984 H980 0.929 . S
C984 C986 1.378 . S
C984 C988 1.350 . S
C985 C988 1.463 . S
C985 C990 1.350 . S
C985 N993 1.427 . S
C986 H977 0.930 . S
C986 C984 1.378 . S
C986 C987 1.367 1_556 S
C987 C986 1.367 1_554 S
C987 C989 1.433 . S
C988 C984 1.350 . S
C988 C985 1.463 . S
C988 N992 1.427 1_556 S
C989 H979 0.929 . S
C989 C987 1.433 . S
C989 N992 1.384 . S
C990 H981 0.929 . S
C990 C982 1.378 . S
C990 C985 1.350 . S
C991 H978 0.929 . S
C991 C983 1.433 . S
C991 N993 1.384 . S
N992 C988 1.427 1_554 S
N992 C989 1.384 . S
N993 C985 1.427 . S
N993 C991 1.384 . S
H994 C1000 0.930 . S
H995 C1004 0.930 . S
H996 C1009 0.929 . S
H997 C1007 0.929 . S
H998 C1002 0.929 . S
H999 C1008 0.929 . S
C1000 H994 0.930 . S
C1000 C1001 1.367 . S
C1000 C1008 1.378 . S
C1001 C1000 1.367 . S
C1001 C1009 1.433 . S
C1002 H998 0.929 . S
C1002 C1004 1.378 . S
C1002 C1006 1.350 . S
C1003 C1006 1.463 . S
C1003 C1008 1.350 . S
C1003 N1011 1.427 . S
C1004 H995 0.930 . S
C1004 C1002 1.378 . S
C1004 C1005 1.367 . S
C1005 C1004 1.367 . S
C1005 C1007 1.433 . S
C1006 C1002 1.350 . S
C1006 C1003 1.463 . S
C1006 N1010 1.427 . S
C1007 H997 0.929 . S
C1007 C1005 1.433 . S
C1007 N1010 1.384 . S
C1008 H999 0.929 . S
C1008 C1000 1.378 . S
C1008 C1003 1.350 . S
C1009 H996 0.929 . S
C1009 C1001 1.433 . S
C1009 N1011 1.384 . S
N1010 C1006 1.427 . S
N1010 C1007 1.384 . S
N1011 C1003 1.427 . S
N1011 C1009 1.384 . S
H1012 C1018 0.930 . S
H1013 C1022 0.930 . S
H1014 C1027 0.929 . S
H1015 C1025 0.929 . S
H1016 C1020 0.929 . S
H1017 C1026 0.929 . S
C1018 H1012 0.930 . S
C1018 C1019 1.367 . S
C1018 C1026 1.378 . S
C1019 C1018 1.367 . S
C1019 C1027 1.433 . S
C1020 H1016 0.929 . S
C1020 C1022 1.378 . S
C1020 C1024 1.350 . S
C1021 C1024 1.463 . S
C1021 C1026 1.350 . S
C1021 N1029 1.427 . S
C1022 H1013 0.930 . S
C1022 C1020 1.378 . S
C1022 C1023 1.367 . S
C1023 C1022 1.367 . S
C1023 C1025 1.433 . S
C1024 C1020 1.350 . S
C1024 C1021 1.463 . S
C1024 N1028 1.427 . S
C1025 H1015 0.929 . S
C1025 C1023 1.433 . S
C1025 N1028 1.384 . S
C1026 H1017 0.929 . S
C1026 C1018 1.378 . S
C1026 C1021 1.350 . S
C1027 H1014 0.929 . S
C1027 C1019 1.433 . S
C1027 N1029 1.384 . S
N1028 C1024 1.427 . S
N1028 C1025 1.384 . S
N1029 C1021 1.427 . S
N1029 C1027 1.384 . S
H1030 C1036 0.930 . S
H1031 C1040 0.930 . S
H1032 C1045 0.929 . S
H1033 C1043 0.929 . S
H1034 C1038 0.929 . S
H1035 C1044 0.929 . S
C1036 H1030 0.930 . S
C1036 C1037 1.367 . S
C1036 C1044 1.378 . S
C1037 C1036 1.367 . S
C1037 C1045 1.433 . S
C1038 H1034 0.929 . S
C1038 C1040 1.378 . S
C1038 C1042 1.350 . S
C1039 C1042 1.463 . S
C1039 C1044 1.350 . S
C1039 N1047 1.427 . S
C1040 H1031 0.930 . S
C1040 C1038 1.378 . S
C1040 C1041 1.367 . S
C1041 C1040 1.367 . S
C1041 C1043 1.433 . S
C1042 C1038 1.350 . S
C1042 C1039 1.463 . S
C1042 N1046 1.427 . S
C1043 H1033 0.929 . S
C1043 C1041 1.433 . S
C1043 N1046 1.384 . S
C1044 H1035 0.929 . S
C1044 C1036 1.378 . S
C1044 C1039 1.350 . S
C1045 H1032 0.929 . S
C1045 C1037 1.433 . S
C1045 N1047 1.384 . S
N1046 C1042 1.427 . S
N1046 C1043 1.384 . S
N1047 C1039 1.427 . S
N1047 C1045 1.384 . S
H1048 C1054 0.930 . S
H1049 C1058 0.930 . S
H1050 C1063 0.929 . S
H1051 C1061 0.929 . S
H1052 C1056 0.929 . S
H1053 C1062 0.929 . S
C1054 H1048 0.930 . S
C1054 C1055 1.367 . S
C1054 C1062 1.378 . S
C1055 C1054 1.367 . S
C1055 C1063 1.433 . S
C1056 H1052 0.929 . S
C1056 C1058 1.378 . S
C1056 C1060 1.350 . S
C1057 C1060 1.463 . S
C1057 C1062 1.350 . S
C1057 N1065 1.427 . S
C1058 H1049 0.930 . S
C1058 C1056 1.378 . S
C1058 C1059 1.367 . S
C1059 C1058 1.367 . S
C1059 C1061 1.433 . S
C1060 C1056 1.350 . S
C1060 C1057 1.463 . S
C1060 N1064 1.427 . S
C1061 H1051 0.929 . S
C1061 C1059 1.433 . S
C1061 N1064 1.384 . S
C1062 H1053 0.929 . S
C1062 C1054 1.378 . S
C1062 C1057 1.350 . S
C1063 H1050 0.929 . S
C1063 C1055 1.433 . S
C1063 N1065 1.384 . S
N1064 C1060 1.427 . S
N1064 C1061 1.384 . S
N1065 C1057 1.427 . S
N1065 C1063 1.384 . S
H1066 C1072 0.930 . S
H1067 C1076 0.930 . S
H1068 C1081 0.929 . S
H1069 C1079 0.929 . S
H1070 C1074 0.929 . S
H1071 C1080 0.929 . S
C1072 H1066 0.930 . S
C1072 C1073 1.367 . S
C1072 C1080 1.378 . S
C1073 C1072 1.367 . S
C1073 C1081 1.433 . S
C1074 H1070 0.929 . S
C1074 C1076 1.378 . S
C1074 C1078 1.350 . S
C1075 C1078 1.463 . S
C1075 C1080 1.350 . S
C1075 N1083 1.427 . S
C1076 H1067 0.930 . S
C1076 C1074 1.378 . S
C1076 C1077 1.367 . S
C1077 C1076 1.367 . S
C1077 C1079 1.433 . S
C1078 C1074 1.350 . S
C1078 C1075 1.463 . S
C1078 N1082 1.427 . S
C1079 H1069 0.929 . S
C1079 C1077 1.433 . S
C1079 N1082 1.384 . S
C1080 H1071 0.929 . S
C1080 C1072 1.378 . S
C1080 C1075 1.350 . S
C1081 H1068 0.929 . S
C1081 C1073 1.433 . S
C1081 N1083 1.384 . S
N1082 C1078 1.427 . S
N1082 C1079 1.384 . S
N1083 C1075 1.427 . S
N1083 C1081 1.384 . S
H1084 C1090 0.930 . S
H1085 C1094 0.930 . S
H1086 C1099 0.929 . S
H1087 C1097 0.929 . S
H1088 C1092 0.929 . S
H1089 C1098 0.929 . S
C1090 H1084 0.930 . S
C1090 C1091 1.367 . S
C1090 C1098 1.378 . S
C1091 C1090 1.367 . S
C1091 C1099 1.433 . S
C1092 H1088 0.929 . S
C1092 C1094 1.378 . S
C1092 C1096 1.350 . S
C1093 C1096 1.463 . S
C1093 C1098 1.350 . S
C1093 N1101 1.427 . S
C1094 H1085 0.930 . S
C1094 C1092 1.378 . S
C1094 C1095 1.367 . S
C1095 C1094 1.367 . S
C1095 C1097 1.433 . S
C1096 C1092 1.350 . S
C1096 C1093 1.463 . S
C1096 N1100 1.427 . S
C1097 H1087 0.929 . S
C1097 C1095 1.433 . S
C1097 N1100 1.384 . S
C1098 H1089 0.929 . S
C1098 C1090 1.378 . S
C1098 C1093 1.350 . S
C1099 H1086 0.929 . S
C1099 C1091 1.433 . S
C1099 N1101 1.384 . S
N1100 C1096 1.427 . S
N1100 C1097 1.384 . S
N1101 C1093 1.427 . S
N1101 C1099 1.384 . S
H1102 C1108 0.930 . S
H1103 C1112 0.930 . S
H1104 C1117 0.929 . S
H1105 C1115 0.929 . S
H1106 C1110 0.929 . S
H1107 C1116 0.929 . S
C1108 H1102 0.930 . S
C1108 C1109 1.367 . S
C1108 C1116 1.378 . S
C1109 C1108 1.367 . S
C1109 C1117 1.433 . S
C1110 H1106 0.929 . S
C1110 C1112 1.378 . S
C1110 C1114 1.350 . S
C1111 C1114 1.463 . S
C1111 C1116 1.350 . S
C1111 N1119 1.427 . S
C1112 H1103 0.930 . S
C1112 C1110 1.378 . S
C1112 C1113 1.367 . S
C1113 C1112 1.367 . S
C1113 C1115 1.433 . S
C1114 C1110 1.350 . S
C1114 C1111 1.463 . S
C1114 N1118 1.427 . S
C1115 H1105 0.929 . S
C1115 C1113 1.433 . S
C1115 N1118 1.384 . S
C1116 H1107 0.929 . S
C1116 C1108 1.378 . S
C1116 C1111 1.350 . S
C1117 H1104 0.929 . S
C1117 C1109 1.433 . S
C1117 N1119 1.384 . S
N1118 C1114 1.427 . S
N1118 C1115 1.384 . S
N1119 C1111 1.427 . S
N1119 C1117 1.384 . S
H1120 C1126 0.930 1_455 S
H1121 C1130 0.930 . S
H1122 C1135 0.929 . S
H1123 C1133 0.929 . S
H1124 C1128 0.929 . S
H1125 C1134 0.929 . S
C1126 H1120 0.930 1_655 S
C1126 C1127 1.367 . S
C1126 C1134 1.378 1_655 S
C1127 C1126 1.367 . S
C1127 C1135 1.433 . S
C1128 H1124 0.929 . S
C1128 C1130 1.378 1_655 S
C1128 C1132 1.350 1_655 S
C1129 C1132 1.463 1_655 S
C1129 C1134 1.350 1_655 S
C1129 N1137 1.427 . S
C1130 H1121 0.930 . S
C1130 C1128 1.378 1_455 S
C1130 C1131 1.367 . S
C1131 C1130 1.367 . S
C1131 C1133 1.433 . S
C1132 C1128 1.350 1_455 S
C1132 C1129 1.463 1_455 S
C1132 N1136 1.427 . S
C1133 H1123 0.929 . S
C1133 C1131 1.433 . S
C1133 N1136 1.384 . S
C1134 H1125 0.929 . S
C1134 C1126 1.378 1_455 S
C1134 C1129 1.350 1_455 S
C1135 H1122 0.929 . S
C1135 C1127 1.433 . S
C1135 N1137 1.384 . S
N1136 C1132 1.427 . S
N1136 C1133 1.384 . S
N1137 C1129 1.427 . S
N1137 C1135 1.384 . S
H1138 C1144 0.930 . S
H1139 C1148 0.930 . S
H1140 C1153 0.929 . S
H1141 C1151 0.929 . S
H1142 C1146 0.929 . S
H1143 C1152 0.929 . S
C1144 H1138 0.930 . S
C1144 C1145 1.367 . S
C1144 C1152 1.378 . S
C1145 C1144 1.367 . S
C1145 C1153 1.433 . S
C1146 H1142 0.929 . S
C1146 C1148 1.378 . S
C1146 C1150 1.350 . S
C1147 C1150 1.463 . S
C1147 C1152 1.350 . S
C1147 N1155 1.427 . S
C1148 H1139 0.930 . S
C1148 C1146 1.378 . S
C1148 C1149 1.367 . S
C1149 C1148 1.367 . S
C1149 C1151 1.433 . S
C1150 C1146 1.350 . S
C1150 C1147 1.463 . S
C1150 N1154 1.427 . S
C1151 H1141 0.929 . S
C1151 C1149 1.433 . S
C1151 N1154 1.384 . S
C1152 H1143 0.929 . S
C1152 C1144 1.378 . S
C1152 C1147 1.350 . S
C1153 H1140 0.929 . S
C1153 C1145 1.433 . S
C1153 N1155 1.384 . S
N1154 C1150 1.427 . S
N1154 C1151 1.384 . S
N1155 C1147 1.427 . S
N1155 C1153 1.384 . S
H1156 C1162 0.930 . S
H1157 C1166 0.930 . S
H1158 C1171 0.929 . S
H1159 C1169 0.929 . S
H1160 C1164 0.929 . S
H1161 C1170 0.929 . S
C1162 H1156 0.930 . S
C1162 C1163 1.367 . S
C1162 C1170 1.378 . S
C1163 C1162 1.367 . S
C1163 C1171 1.433 . S
C1164 H1160 0.929 . S
C1164 C1166 1.378 . S
C1164 C1168 1.350 . S
C1165 C1168 1.463 . S
C1165 C1170 1.350 . S
C1165 N1173 1.427 . S
C1166 H1157 0.930 . S
C1166 C1164 1.378 . S
C1166 C1167 1.367 . S
C1167 C1166 1.367 . S
C1167 C1169 1.433 . S
C1168 C1164 1.350 . S
C1168 C1165 1.463 . S
C1168 N1172 1.427 . S
C1169 H1159 0.929 . S
C1169 C1167 1.433 . S
C1169 N1172 1.384 . S
C1170 H1161 0.929 . S
C1170 C1162 1.378 . S
C1170 C1165 1.350 . S
C1171 H1158 0.929 . S
C1171 C1163 1.433 . S
C1171 N1173 1.384 . S
N1172 C1168 1.427 . S
N1172 C1169 1.384 . S
N1173 C1165 1.427 . S
N1173 C1171 1.384 . S
H1174 C1180 0.930 . S
H1175 C1184 0.930 . S
H1176 C1189 0.929 . S
H1177 C1187 0.929 . S
H1178 C1182 0.929 . S
H1179 C1188 0.929 . S
C1180 H1174 0.930 . S
C1180 C1181 1.367 . S
C1180 C1188 1.378 . S
C1181 C1180 1.367 . S
C1181 C1189 1.433 . S
C1182 H1178 0.929 . S
C1182 C1184 1.378 . S
C1182 C1186 1.350 . S
C1183 C1186 1.463 . S
C1183 C1188 1.350 . S
C1183 N1191 1.427 . S
C1184 H1175 0.930 . S
C1184 C1182 1.378 . S
C1184 C1185 1.367 . S
C1185 C1184 1.367 . S
C1185 C1187 1.433 . S
C1186 C1182 1.350 . S
C1186 C1183 1.463 . S
C1186 N1190 1.427 . S
C1187 H1177 0.929 . S
C1187 C1185 1.433 . S
C1187 N1190 1.384 . S
C1188 H1179 0.929 . S
C1188 C1180 1.378 . S
C1188 C1183 1.350 . S
C1189 H1176 0.929 . S
C1189 C1181 1.433 . S
C1189 N1191 1.384 . S
N1190 C1186 1.427 . S
N1190 C1187 1.384 . S
N1191 C1183 1.427 . S
N1191 C1189 1.384 . S
H1192 C1198 0.930 . S
H1193 C1202 0.930 . S
H1194 C1207 0.929 . S
H1195 C1205 0.929 . S
H1196 C1200 0.929 . S
H1197 C1206 0.929 . S
C1198 H1192 0.930 . S
C1198 C1199 1.367 . S
C1198 C1206 1.378 1_655 S
C1199 C1198 1.367 . S
C1199 C1207 1.433 . S
C1200 H1196 0.929 . S
C1200 C1202 1.378 . S
C1200 C1204 1.350 . S
C1201 C1204 1.463 . S
C1201 C1206 1.350 . S
C1201 N1209 1.427 1_455 S
C1202 H1193 0.930 . S
C1202 C1200 1.378 . S
C1202 C1203 1.367 . S
C1203 C1202 1.367 . S
C1203 C1205 1.433 . S
C1204 C1200 1.350 . S
C1204 C1201 1.463 . S
C1204 N1208 1.427 . S
C1205 H1195 0.929 . S
C1205 C1203 1.433 . S
C1205 N1208 1.384 . S
C1206 H1197 0.929 . S
C1206 C1198 1.378 1_455 S
C1206 C1201 1.350 . S
C1207 H1194 0.929 . S
C1207 C1199 1.433 . S
C1207 N1209 1.384 . S
N1208 C1204 1.427 . S
N1208 C1205 1.384 . S
N1209 C1201 1.427 1_655 S
N1209 C1207 1.384 . S
H1210 C1216 0.930 . S
H1211 C1220 0.930 . S
H1212 C1225 0.929 . S
H1213 C1223 0.929 . S
H1214 C1218 0.929 . S
H1215 C1224 0.929 . S
C1216 H1210 0.930 . S
C1216 C1217 1.367 . S
C1216 C1224 1.378 . S
C1217 C1216 1.367 . S
C1217 C1225 1.433 . S
C1218 H1214 0.929 . S
C1218 C1220 1.378 . S
C1218 C1222 1.350 . S
C1219 C1222 1.463 . S
C1219 C1224 1.350 . S
C1219 N1227 1.427 . S
C1220 H1211 0.930 . S
C1220 C1218 1.378 . S
C1220 C1221 1.367 . S
C1221 C1220 1.367 . S
C1221 C1223 1.433 . S
C1222 C1218 1.350 . S
C1222 C1219 1.463 . S
C1222 N1226 1.427 . S
C1223 H1213 0.929 . S
C1223 C1221 1.433 . S
C1223 N1226 1.384 . S
C1224 H1215 0.929 . S
C1224 C1216 1.378 . S
C1224 C1219 1.350 . S
C1225 H1212 0.929 . S
C1225 C1217 1.433 . S
C1225 N1227 1.384 . S
N1226 C1222 1.427 . S
N1226 C1223 1.384 . S
N1227 C1219 1.427 . S
N1227 C1225 1.384 . S
H1228 C1234 0.930 . S
H1229 C1238 0.930 . S
H1230 C1243 0.929 . S
H1231 C1241 0.929 . S
H1232 C1236 0.929 . S
H1233 C1242 0.929 . S
C1234 H1228 0.930 . S
C1234 C1235 1.367 . S
C1234 C1242 1.378 . S
C1235 C1234 1.367 . S
C1235 C1243 1.433 . S
C1236 H1232 0.929 . S
C1236 C1238 1.378 . S
C1236 C1240 1.350 . S
C1237 C1240 1.463 . S
C1237 C1242 1.350 . S
C1237 N1245 1.427 . S
C1238 H1229 0.930 . S
C1238 C1236 1.378 . S
C1238 C1239 1.367 . S
C1239 C1238 1.367 . S
C1239 C1241 1.433 . S
C1240 C1236 1.350 . S
C1240 C1237 1.463 . S
C1240 N1244 1.427 . S
C1241 H1231 0.929 . S
C1241 C1239 1.433 . S
C1241 N1244 1.384 . S
C1242 H1233 0.929 . S
C1242 C1234 1.378 . S
C1242 C1237 1.350 . S
C1243 H1230 0.929 . S
C1243 C1235 1.433 . S
C1243 N1245 1.384 . S
N1244 C1240 1.427 . S
N1244 C1241 1.384 . S
N1245 C1237 1.427 . S
N1245 C1243 1.384 . S
H1246 C1252 0.930 . S
H1247 C1256 0.930 . S
H1248 C1261 0.929 . S
H1249 C1259 0.929 . S
H1250 C1254 0.929 . S
H1251 C1260 0.929 . S
C1252 H1246 0.930 . S
C1252 C1253 1.367 . S
C1252 C1260 1.378 . S
C1253 C1252 1.367 . S
C1253 C1261 1.433 . S
C1254 H1250 0.929 . S
C1254 C1256 1.378 . S
C1254 C1258 1.350 . S
C1255 C1258 1.463 . S
C1255 C1260 1.350 . S
C1255 N1263 1.427 . S
C1256 H1247 0.930 . S
C1256 C1254 1.378 . S
C1256 C1257 1.367 . S
C1257 C1256 1.367 . S
C1257 C1259 1.433 . S
C1258 C1254 1.350 . S
C1258 C1255 1.463 . S
C1258 N1262 1.427 . S
C1259 H1249 0.929 . S
C1259 C1257 1.433 . S
C1259 N1262 1.384 . S
C1260 H1251 0.929 . S
C1260 C1252 1.378 . S
C1260 C1255 1.350 . S
C1261 H1248 0.929 . S
C1261 C1253 1.433 . S
C1261 N1263 1.384 . S
N1262 C1258 1.427 . S
N1262 C1259 1.384 . S
N1263 C1255 1.427 . S
N1263 C1261 1.384 . S
H1264 C1270 0.930 1_556 S
H1265 C1274 0.930 . S
H1266 C1279 0.929 . S
H1267 C1277 0.929 . S
H1268 C1272 0.929 . S
H1269 C1278 0.929 . S
C1270 H1264 0.930 1_554 S
C1270 C1271 1.367 . S
C1270 C1278 1.378 . S
C1271 C1270 1.367 . S
C1271 C1279 1.433 . S
C1272 H1268 0.929 . S
C1272 C1274 1.378 . S
C1272 C1276 1.350 . S
C1273 C1276 1.463 . S
C1273 C1278 1.350 . S
C1273 N1281 1.427 . S
C1274 H1265 0.930 . S
C1274 C1272 1.378 . S
C1274 C1275 1.360 1_565 S
C1275 C1274 1.360 1_545 S
C1275 C1277 1.436 . S
C1276 C1272 1.350 . S
C1276 C1273 1.463 . S
C1276 N1280 1.427 1_565 S
C1277 H1267 0.929 . S
C1277 C1275 1.436 . S
C1277 N1280 1.384 . S
C1278 H1269 0.929 . S
C1278 C1270 1.378 . S
C1278 C1273 1.350 . S
C1279 H1266 0.929 . S
C1279 C1271 1.433 . S
C1279 N1281 1.384 . S
N1280 C1276 1.427 1_545 S
N1280 C1277 1.384 . S
N1281 C1273 1.427 . S
N1281 C1279 1.384 . S
H1282 C1288 0.930 . S
H1283 C1292 0.930 . S
H1284 C1297 0.929 . S
H1285 C1295 0.929 . S
H1286 C1290 0.929 . S
H1287 C1296 0.929 . S
C1288 H1282 0.930 . S
C1288 C1289 1.367 . S
C1288 C1296 1.378 . S
C1289 C1288 1.367 . S
C1289 C1297 1.433 1_554 S
C1290 H1286 0.929 . S
C1290 C1292 1.378 . S
C1290 C1294 1.350 1_556 S
C1291 C1294 1.463 . S
C1291 C1296 1.350 . S
C1291 N1299 1.427 1_554 S
C1292 H1283 0.930 . S
C1292 C1290 1.378 . S
C1292 C1293 1.367 1_556 S
C1293 C1292 1.367 1_554 S
C1293 C1295 1.433 . S
C1294 C1290 1.350 1_554 S
C1294 C1291 1.463 . S
C1294 N1298 1.427 . S
C1295 H1285 0.929 . S
C1295 C1293 1.433 . S
C1295 N1298 1.384 . S
C1296 H1287 0.929 . S
C1296 C1288 1.378 . S
C1296 C1291 1.350 . S
C1297 H1284 0.929 . S
C1297 C1289 1.433 1_556 S
C1297 N1299 1.384 . S
N1298 C1294 1.427 . S
N1298 C1295 1.384 . S
N1299 C1291 1.427 1_556 S
N1299 C1297 1.384 . S
H1300 C1306 0.930 . S
H1301 C1310 0.930 . S
H1302 C1315 0.929 . S
H1303 C1313 0.929 . S
H1304 C1308 0.929 . S
H1305 C1314 0.929 . S
C1306 H1300 0.930 . S
C1306 C1307 1.367 . S
C1306 C1314 1.378 . S
C1307 C1306 1.367 . S
C1307 C1315 1.433 . S
C1308 H1304 0.929 . S
C1308 C1310 1.378 . S
C1308 C1312 1.350 . S
C1309 C1312 1.463 . S
C1309 C1314 1.350 . S
C1309 N1317 1.427 . S
C1310 H1301 0.930 . S
C1310 C1308 1.378 . S
C1310 C1311 1.367 . S
C1311 C1310 1.367 . S
C1311 C1313 1.433 . S
C1312 C1308 1.350 . S
C1312 C1309 1.463 . S
C1312 N1316 1.427 . S
C1313 H1303 0.929 . S
C1313 C1311 1.433 . S
C1313 N1316 1.384 . S
C1314 H1305 0.929 . S
C1314 C1306 1.378 . S
C1314 C1309 1.350 . S
C1315 H1302 0.929 . S
C1315 C1307 1.433 . S
C1315 N1317 1.384 . S
N1316 C1312 1.427 . S
N1316 C1313 1.384 . S
N1317 C1309 1.427 . S
N1317 C1315 1.384 . S
H1318 C1324 0.930 . S
H1319 C1328 0.964 . S
H1320 C1333 0.929 . S
H1321 C1331 0.929 . S
H1322 C1326 0.929 . S
H1323 C1332 0.929 . S
C1324 H1318 0.930 . S
C1324 C1325 1.367 . S
C1324 C1332 1.378 . S
C1325 C1324 1.367 . S
C1325 C1333 1.433 . S
C1326 H1322 0.929 . S
C1326 C1328 1.378 . S
C1326 C1330 1.350 . S
C1327 C1330 1.463 . S
C1327 C1332 1.350 . S
C1327 N1335 1.427 . S
C1328 H1319 0.964 . S
C1328 C1326 1.378 . S
C1328 C1329 1.367 . S
C1329 C1328 1.367 . S
C1329 C1331 1.433 . S
C1330 C1326 1.350 . S
C1330 C1327 1.463 . S
C1330 N1334 1.427 . S
C1331 H1321 0.929 . S
C1331 C1329 1.433 . S
C1331 N1334 1.384 . S
C1332 H1323 0.929 . S
C1332 C1324 1.378 . S
C1332 C1327 1.350 . S
C1333 H1320 0.929 . S
C1333 C1325 1.433 . S
C1333 N1335 1.384 . S
N1334 C1330 1.427 . S
N1334 C1331 1.384 . S
N1335 C1327 1.427 . S
N1335 C1333 1.384 . S
H1336 C1342 0.930 . S
H1337 C1346 0.930 . S
H1338 C1351 0.929 . S
H1339 C1349 0.929 . S
H1340 C1344 0.929 . S
H1341 C1350 0.929 . S
C1342 H1336 0.930 . S
C1342 C1343 1.367 . S
C1342 C1350 1.378 . S
C1343 C1342 1.367 . S
C1343 C1351 1.433 . S
C1344 H1340 0.929 . S
C1344 C1346 1.378 . S
C1344 C1348 1.350 . S
C1345 C1348 1.463 . S
C1345 C1350 1.350 . S
C1345 N1353 1.427 . S
C1346 H1337 0.930 . S
C1346 C1344 1.378 . S
C1346 C1347 1.367 . S
C1347 C1346 1.367 . S
C1347 C1349 1.433 . S
C1348 C1344 1.350 . S
C1348 C1345 1.463 . S
C1348 N1352 1.427 . S
C1349 H1339 0.929 . S
C1349 C1347 1.433 . S
C1349 N1352 1.384 . S
C1350 H1341 0.929 . S
C1350 C1342 1.378 . S
C1350 C1345 1.350 . S
C1351 H1338 0.929 . S
C1351 C1343 1.433 . S
C1351 N1353 1.384 . S
N1352 C1348 1.427 . S
N1352 C1349 1.384 . S
N1353 C1345 1.427 . S
N1353 C1351 1.384 . S
H1354 C1360 0.930 . S
H1355 C1364 0.930 . S
H1356 C1369 0.929 . S
H1357 C1367 0.929 . S
H1358 C1362 0.929 . S
H1359 C1368 0.929 . S
C1360 H1354 0.930 . S
C1360 C1361 1.367 . S
C1360 C1368 1.378 . S
C1361 C1360 1.367 . S
C1361 C1369 1.433 . S
C1362 H1358 0.929 . S
C1362 C1364 1.378 . S
C1362 C1366 1.350 . S
C1363 C1366 1.463 . S
C1363 C1368 1.350 . S
C1363 N1371 1.427 . S
C1364 H1355 0.930 . S
C1364 C1362 1.378 . S
C1364 C1365 1.367 . S
C1365 C1364 1.367 . S
C1365 C1367 1.433 . S
C1366 C1362 1.350 . S
C1366 C1363 1.463 . S
C1366 N1370 1.427 . S
C1367 H1357 0.929 . S
C1367 C1365 1.433 . S
C1367 N1370 1.384 . S
C1368 H1359 0.929 . S
C1368 C1360 1.378 . S
C1368 C1363 1.350 . S
C1369 H1356 0.929 . S
C1369 C1361 1.433 . S
C1369 N1371 1.384 . S
N1370 C1366 1.427 . S
N1370 C1367 1.384 . S
N1371 C1363 1.427 . S
N1371 C1369 1.384 . S
H1372 C1378 0.930 . S
H1373 C1382 0.930 . S
H1374 C1387 0.929 . S
H1375 C1385 0.929 . S
H1376 C1380 0.929 . S
H1377 C1386 0.929 . S
C1378 H1372 0.930 . S
C1378 C1379 1.367 . S
C1378 C1386 1.378 . S
C1379 C1378 1.367 . S
C1379 C1387 1.433 . S
C1380 H1376 0.929 . S
C1380 C1382 1.378 . S
C1380 C1384 1.350 . S
C1381 C1384 1.463 . S
C1381 C1386 1.350 . S
C1381 N1389 1.427 . S
C1382 H1373 0.930 . S
C1382 C1380 1.378 . S
C1382 C1383 1.367 . S
C1383 C1382 1.367 . S
C1383 C1385 1.433 . S
C1384 C1380 1.350 . S
C1384 C1381 1.463 . S
C1384 N1388 1.427 . S
C1385 H1375 0.929 . S
C1385 C1383 1.433 . S
C1385 N1388 1.384 . S
C1386 H1377 0.929 . S
C1386 C1378 1.378 . S
C1386 C1381 1.350 . S
C1387 H1374 0.929 . S
C1387 C1379 1.433 . S
C1387 N1389 1.384 . S
N1388 C1384 1.427 . S
N1388 C1385 1.384 . S
N1389 C1381 1.427 . S
N1389 C1387 1.384 . S
H1390 C1396 0.930 . S
H1391 C1400 0.930 . S
H1392 C1405 0.929 . S
H1393 C1403 0.929 . S
H1394 C1398 0.929 . S
H1395 C1404 0.929 . S
C1396 H1390 0.930 . S
C1396 C1397 1.367 . S
C1396 C1404 1.378 . S
C1397 C1396 1.367 . S
C1397 C1405 1.433 . S
C1398 H1394 0.929 . S
C1398 C1400 1.378 . S
C1398 C1402 1.350 . S
C1399 C1402 1.463 . S
C1399 C1404 1.350 . S
C1399 N1407 1.427 . S
C1400 H1391 0.930 . S
C1400 C1398 1.378 . S
C1400 C1401 1.367 . S
C1401 C1400 1.367 . S
C1401 C1403 1.433 . S
C1402 C1398 1.350 . S
C1402 C1399 1.463 . S
C1402 N1406 1.427 . S
C1403 H1393 0.929 . S
C1403 C1401 1.433 . S
C1403 N1406 1.384 . S
C1404 H1395 0.929 . S
C1404 C1396 1.378 . S
C1404 C1399 1.350 . S
C1405 H1392 0.929 . S
C1405 C1397 1.433 . S
C1405 N1407 1.384 . S
N1406 C1402 1.427 . S
N1406 C1403 1.384 . S
N1407 C1399 1.427 . S
N1407 C1405 1.384 . S
H1408 C1414 0.930 . S
H1409 C1418 0.930 . S
H1410 C1423 0.929 . S
H1411 C1421 0.929 . S
H1412 C1416 0.929 . S
H1413 C1422 0.929 . S
C1414 H1408 0.930 . S
C1414 C1415 1.367 . S
C1414 C1422 1.378 . S
C1415 C1414 1.367 . S
C1415 C1423 1.433 . S
C1416 H1412 0.929 . S
C1416 C1418 1.378 . S
C1416 C1420 1.350 . S
C1417 C1420 1.463 . S
C1417 C1422 1.350 . S
C1417 N1425 1.427 . S
C1418 H1409 0.930 . S
C1418 C1416 1.378 . S
C1418 C1419 1.367 . S
C1419 C1418 1.367 . S
C1419 C1421 1.433 . S
C1420 C1416 1.350 . S
C1420 C1417 1.463 . S
C1420 N1424 1.427 . S
C1421 H1411 0.929 . S
C1421 C1419 1.433 . S
C1421 N1424 1.384 . S
C1422 H1413 0.929 . S
C1422 C1414 1.378 . S
C1422 C1417 1.350 . S
C1423 H1410 0.929 . S
C1423 C1415 1.433 . S
C1423 N1425 1.384 . S
N1424 C1420 1.427 . S
N1424 C1421 1.384 . S
N1425 C1417 1.427 . S
N1425 C1423 1.384 . S
H1426 C1432 0.930 . S
H1427 C1436 0.930 . S
H1428 C1441 0.929 . S
H1429 C1439 0.929 . S
H1430 C1434 0.929 . S
H1431 C1440 0.929 . S
C1432 H1426 0.930 . S
C1432 C1433 1.367 . S
C1432 C1440 1.378 . S
C1433 C1432 1.367 . S
C1433 C1441 1.433 . S
C1434 H1430 0.929 . S
C1434 C1436 1.378 . S
C1434 C1438 1.350 . S
C1435 C1438 1.463 . S
C1435 C1440 1.350 . S
C1435 N1443 1.427 . S
C1436 H1427 0.930 . S
C1436 C1434 1.378 . S
C1436 C1437 1.367 . S
C1437 C1436 1.367 . S
C1437 C1439 1.433 . S
C1438 C1434 1.350 . S
C1438 C1435 1.463 . S
C1438 N1442 1.427 . S
C1439 H1429 0.929 . S
C1439 C1437 1.433 . S
C1439 N1442 1.384 . S
C1440 H1431 0.929 . S
C1440 C1432 1.378 . S
C1440 C1435 1.350 . S
C1441 H1428 0.929 . S
C1441 C1433 1.433 . S
C1441 N1443 1.384 . S
N1442 C1438 1.427 . S
N1442 C1439 1.384 . S
N1443 C1435 1.427 . S
N1443 C1441 1.384 . S
H1444 C1450 0.930 . S
H1445 C1454 0.930 . S
H1446 C1459 0.929 . S
H1447 C1457 0.929 . S
H1448 C1452 0.929 . S
H1449 C1458 0.929 . S
C1450 H1444 0.930 . S
C1450 C1451 1.367 . S
C1450 C1458 1.378 . S
C1451 C1450 1.367 . S
C1451 C1459 1.433 . S
C1452 H1448 0.929 . S
C1452 C1454 1.378 . S
C1452 C1456 1.350 . S
C1453 C1456 1.463 . S
C1453 C1458 1.350 . S
C1453 N1461 1.427 . S
C1454 H1445 0.930 . S
C1454 C1452 1.378 . S
C1454 C1455 1.367 . S
C1455 C1454 1.367 . S
C1455 C1457 1.433 . S
C1456 C1452 1.350 . S
C1456 C1453 1.463 . S
C1456 N1460 1.427 . S
C1457 H1447 0.929 . S
C1457 C1455 1.433 . S
C1457 N1460 1.384 . S
C1458 H1449 0.929 . S
C1458 C1450 1.378 . S
C1458 C1453 1.350 . S
C1459 H1446 0.929 . S
C1459 C1451 1.433 . S
C1459 N1461 1.384 . S
N1460 C1456 1.427 . S
N1460 C1457 1.384 . S
N1461 C1453 1.427 . S
N1461 C1459 1.384 . S
H1462 C1468 0.930 . S
H1463 C1472 0.930 . S
H1464 C1477 0.929 . S
H1465 C1475 0.929 . S
H1466 C1470 0.929 . S
H1467 C1476 0.929 . S
C1468 H1462 0.930 . S
C1468 C1469 1.367 . S
C1468 C1476 1.378 . S
C1469 C1468 1.367 . S
C1469 C1477 1.433 . S
C1470 H1466 0.929 . S
C1470 C1472 1.378 . S
C1470 C1474 1.350 . S
C1471 C1474 1.463 . S
C1471 C1476 1.350 . S
C1471 N1479 1.427 . S
C1472 H1463 0.930 . S
C1472 C1470 1.378 . S
C1472 C1473 1.367 . S
C1473 C1472 1.367 . S
C1473 C1475 1.433 . S
C1474 C1470 1.350 . S
C1474 C1471 1.463 . S
C1474 N1478 1.427 . S
C1475 H1465 0.929 . S
C1475 C1473 1.433 . S
C1475 N1478 1.384 . S
C1476 H1467 0.929 . S
C1476 C1468 1.378 . S
C1476 C1471 1.350 . S
C1477 H1464 0.929 . S
C1477 C1469 1.433 . S
C1477 N1479 1.384 . S
N1478 C1474 1.427 . S
N1478 C1475 1.384 . S
N1479 C1471 1.427 . S
N1479 C1477 1.384 . S
H1480 C1486 0.930 . S
H1481 C1490 0.930 . S
H1482 C1495 0.929 . S
H1483 C1493 0.929 . S
H1484 C1488 0.929 . S
H1485 C1494 0.929 . S
C1486 H1480 0.930 . S
C1486 C1487 1.367 . S
C1486 C1494 1.378 . S
C1487 C1486 1.367 . S
C1487 C1495 1.433 . S
C1488 H1484 0.929 . S
C1488 C1490 1.378 . S
C1488 C1492 1.350 . S
C1489 C1492 1.463 . S
C1489 C1494 1.350 . S
C1489 N1497 1.427 . S
C1490 H1481 0.930 . S
C1490 C1488 1.378 . S
C1490 C1491 1.367 . S
C1491 C1490 1.367 . S
C1491 C1493 1.433 . S
C1492 C1488 1.350 . S
C1492 C1489 1.463 . S
C1492 N1496 1.427 . S
C1493 H1483 0.929 . S
C1493 C1491 1.433 . S
C1493 N1496 1.384 . S
C1494 H1485 0.929 . S
C1494 C1486 1.378 . S
C1494 C1489 1.350 . S
C1495 H1482 0.929 . S
C1495 C1487 1.433 . S
C1495 N1497 1.384 . S
N1496 C1492 1.427 . S
N1496 C1493 1.384 . S
N1497 C1489 1.427 . S
N1497 C1495 1.384 . S
H1498 C1504 0.930 . S
H1499 C1508 0.930 . S
H1500 C1513 0.929 . S
H1501 C1511 0.929 . S
H1502 C1506 0.929 . S
H1503 C1512 0.929 . S
C1504 H1498 0.930 . S
C1504 C1505 1.367 . S
C1504 C1512 1.378 . S
C1505 C1504 1.367 . S
C1505 C1513 1.433 . S
C1506 H1502 0.929 . S
C1506 C1508 1.378 . S
C1506 C1510 1.350 . S
C1507 C1510 1.463 . S
C1507 C1512 1.350 . S
C1507 N1515 1.427 . S
C1508 H1499 0.930 . S
C1508 C1506 1.378 . S
C1508 C1509 1.367 . S
C1509 C1508 1.367 . S
C1509 C1511 1.433 . S
C1510 C1506 1.350 . S
C1510 C1507 1.463 . S
C1510 N1514 1.427 . S
C1511 H1501 0.929 . S
C1511 C1509 1.433 . S
C1511 N1514 1.384 . S
C1512 H1503 0.929 . S
C1512 C1504 1.378 . S
C1512 C1507 1.350 . S
C1513 H1500 0.929 . S
C1513 C1505 1.433 . S
C1513 N1515 1.384 . S
N1514 C1510 1.427 . S
N1514 C1511 1.384 . S
N1515 C1507 1.427 . S
N1515 C1513 1.384 . S
H1516 C1522 0.930 . S
H1517 C1526 0.930 . S
H1518 C1531 0.929 . S
H1519 C1529 0.929 . S
H1520 C1524 0.929 . S
H1521 C1530 0.929 . S
C1522 H1516 0.930 . S
C1522 C1523 1.367 . S
C1522 C1530 1.378 . S
C1523 C1522 1.367 . S
C1523 C1531 1.433 . S
C1524 H1520 0.929 . S
C1524 C1526 1.378 1_556 S
C1524 C1528 1.350 . S
C1525 C1528 1.463 . S
C1525 C1530 1.350 . S
C1525 N1533 1.427 . S
C1526 H1517 0.930 . S
C1526 C1524 1.378 1_554 S
C1526 C1527 1.367 1_554 S
C1527 C1526 1.367 1_556 S
C1527 C1529 1.433 . S
C1528 C1524 1.350 . S
C1528 C1525 1.463 . S
C1528 N1532 1.427 . S
C1529 H1519 0.929 . S
C1529 C1527 1.433 . S
C1529 N1532 1.384 . S
C1530 H1521 0.929 . S
C1530 C1522 1.378 . S
C1530 C1525 1.350 . S
C1531 H1518 0.929 . S
C1531 C1523 1.433 . S
C1531 N1533 1.384 . S
N1532 C1528 1.427 . S
N1532 C1529 1.384 . S
N1533 C1525 1.427 . S
N1533 C1531 1.384 . S
H1534 C1540 0.930 . S
H1535 C1544 0.930 . S
H1536 C1549 0.929 . S
H1537 C1547 0.929 . S
H1538 C1542 0.929 . S
H1539 C1548 0.929 . S
C1540 H1534 0.930 . S
C1540 C1541 1.367 . S
C1540 C1548 1.378 . S
C1541 C1540 1.367 . S
C1541 C1549 1.433 . S
C1542 H1538 0.929 . S
C1542 C1544 1.378 . S
C1542 C1546 1.350 . S
C1543 C1546 1.463 . S
C1543 C1548 1.350 . S
C1543 N1551 1.427 . S
C1544 H1535 0.930 . S
C1544 C1542 1.378 . S
C1544 C1545 1.367 . S
C1545 C1544 1.367 . S
C1545 C1547 1.433 . S
C1546 C1542 1.350 . S
C1546 C1543 1.463 . S
C1546 N1550 1.427 . S
C1547 H1537 0.929 . S
C1547 C1545 1.433 . S
C1547 N1550 1.384 . S
C1548 H1539 0.929 . S
C1548 C1540 1.378 . S
C1548 C1543 1.350 . S
C1549 H1536 0.929 . S
C1549 C1541 1.433 . S
C1549 N1551 1.384 . S
N1550 C1546 1.427 . S
N1550 C1547 1.384 . S
N1551 C1543 1.427 . S
N1551 C1549 1.384 . S
H1552 C1558 0.930 . S
H1553 C1562 0.930 1_565 S
H1554 C1567 0.929 . S
H1555 C1565 0.929 . S
H1556 C1560 0.929 1_565 S
H1557 C1566 0.929 . S
C1558 H1552 0.930 . S
C1558 C1559 1.367 . S
C1558 C1566 1.378 . S
C1559 C1558 1.367 . S
C1559 C1567 1.433 1_545 S
C1560 H1556 0.929 1_545 S
C1560 C1562 1.378 . S
C1560 C1564 1.350 . S
C1561 C1564 1.463 . S
C1561 C1566 1.350 . S
C1561 N1569 1.428 . S
C1562 H1553 0.930 1_545 S
C1562 C1560 1.378 . S
C1562 C1563 1.367 . S
C1563 C1562 1.367 . S
C1563 C1565 1.433 . S
C1564 C1560 1.350 . S
C1564 C1561 1.463 . S
C1564 N1568 1.427 . S
C1565 H1555 0.929 . S
C1565 C1563 1.433 . S
C1565 N1568 1.384 . S
C1566 H1557 0.929 . S
C1566 C1558 1.378 . S
C1566 C1561 1.350 . S
C1567 H1554 0.929 . S
C1567 C1559 1.433 1_565 S
C1567 N1569 1.383 1_565 S
N1568 C1564 1.427 . S
N1568 C1565 1.384 . S
N1569 C1561 1.428 . S
N1569 C1567 1.383 1_545 S
H1570 C1576 0.930 . S
H1571 C1580 0.930 . S
H1572 C1585 0.929 . S
H1573 C1583 0.929 . S
H1574 C1578 0.929 . S
H1575 C1584 0.929 . S
C1576 H1570 0.930 . S
C1576 C1577 1.367 . S
C1576 C1584 1.378 . S
C1577 C1576 1.367 . S
C1577 C1585 1.433 . S
C1578 H1574 0.929 . S
C1578 C1580 1.378 . S
C1578 C1582 1.350 . S
C1579 C1582 1.463 . S
C1579 C1584 1.350 . S
C1579 N1587 1.427 . S
C1580 H1571 0.930 . S
C1580 C1578 1.378 . S
C1580 C1581 1.367 . S
C1581 C1580 1.367 . S
C1581 C1583 1.433 . S
C1582 C1578 1.350 . S
C1582 C1579 1.463 . S
C1582 N1586 1.427 . S
C1583 H1573 0.929 . S
C1583 C1581 1.433 . S
C1583 N1586 1.384 . S
C1584 H1575 0.929 . S
C1584 C1576 1.378 . S
C1584 C1579 1.350 . S
C1585 H1572 0.929 . S
C1585 C1577 1.433 . S
C1585 N1587 1.384 . S
N1586 C1582 1.427 . S
N1586 C1583 1.384 . S
N1587 C1579 1.427 . S
N1587 C1585 1.384 . S
H1588 C1594 0.930 . S
H1589 C1598 0.930 . S
H1590 C1603 0.929 . S
H1591 C1601 0.886 1_565 S
H1592 C1596 0.929 . S
H1593 C1602 0.929 . S
C1594 H1588 0.930 . S
C1594 C1595 1.367 1_565 S
C1594 C1602 1.378 . S
C1595 C1594 1.367 1_545 S
C1595 C1603 1.433 . S
C1596 H1592 0.929 . S
C1596 C1598 1.378 . S
C1596 C1600 1.350 . S
C1597 C1600 1.463 . S
C1597 C1602 1.350 1_545 S
C1597 N1605 1.427 . S
C1598 H1589 0.930 . S
C1598 C1596 1.378 . S
C1598 C1599 1.367 . S
C1599 C1598 1.367 . S
C1599 C1601 1.433 . S
C1600 C1596 1.350 . S
C1600 C1597 1.463 . S
C1600 N1604 1.427 . S
C1601 H1591 0.886 1_545 S
C1601 C1599 1.433 . S
C1601 N1604 1.384 . S
C1602 H1593 0.929 . S
C1602 C1594 1.378 . S
C1602 C1597 1.350 1_565 S
C1603 H1590 0.929 . S
C1603 C1595 1.433 . S
C1603 N1605 1.384 . S
N1604 C1600 1.427 . S
N1604 C1601 1.384 . S
N1605 C1597 1.427 . S
N1605 C1603 1.384 . S
H1606 C1612 0.930 . S
H1607 C1616 0.930 . S
H1608 C1621 0.929 . S
H1609 C1619 0.929 . S
H1610 C1614 0.929 . S
H1611 C1620 0.929 . S
C1612 H1606 0.930 . S
C1612 C1613 1.367 . S
C1612 C1620 1.378 . S
C1613 C1612 1.367 . S
C1613 C1621 1.433 . S
C1614 H1610 0.929 . S
C1614 C1616 1.378 . S
C1614 C1618 1.350 . S
C1615 C1618 1.463 . S
C1615 C1620 1.350 . S
C1615 N1623 1.427 . S
C1616 H1607 0.930 . S
C1616 C1614 1.378 . S
C1616 C1617 1.367 . S
C1617 C1616 1.367 . S
C1617 C1619 1.433 . S
C1618 C1614 1.350 . S
C1618 C1615 1.463 . S
C1618 N1622 1.427 . S
C1619 H1609 0.929 . S
C1619 C1617 1.433 . S
C1619 N1622 1.384 . S
C1620 H1611 0.929 . S
C1620 C1612 1.378 . S
C1620 C1615 1.350 . S
C1621 H1608 0.929 . S
C1621 C1613 1.433 . S
C1621 N1623 1.384 . S
N1622 C1618 1.427 . S
N1622 C1619 1.384 . S
N1623 C1615 1.427 . S
N1623 C1621 1.384 . S
H1624 C1630 0.930 . S
H1625 C1634 0.930 1_565 S
H1626 C1639 0.929 . S
H1627 C1637 0.929 . S
H1628 C1632 0.929 . S
H1629 C1638 0.929 . S
C1630 H1624 0.930 . S
C1630 C1631 1.367 . S
C1630 C1638 1.378 . S
C1631 C1630 1.367 . S
C1631 C1639 1.433 1_545 S
C1632 H1628 0.929 . S
C1632 C1634 1.378 1_565 S
C1632 C1636 1.350 1_565 S
C1633 C1636 1.463 . S
C1633 C1638 1.350 . S
C1633 N1641 1.427 1_545 S
C1634 H1625 0.930 1_545 S
C1634 C1632 1.378 1_545 S
C1634 C1635 1.367 . S
C1635 C1634 1.367 . S
C1635 C1637 1.433 . S
C1636 C1632 1.350 1_545 S
C1636 C1633 1.463 . S
C1636 N1640 1.427 . S
C1637 H1627 0.929 . S
C1637 C1635 1.433 . S
C1637 N1640 1.384 . S
C1638 H1629 0.929 . S
C1638 C1630 1.378 . S
C1638 C1633 1.350 . S
C1639 H1626 0.929 . S
C1639 C1631 1.433 1_565 S
C1639 N1641 1.384 . S
N1640 C1636 1.427 . S
N1640 C1637 1.384 . S
N1641 C1633 1.427 1_565 S
N1641 C1639 1.384 . S
H1642 C1648 0.930 . S
H1643 C1652 0.930 . S
H1644 C1657 0.929 . S
H1645 C1655 0.929 . S
H1646 C1650 0.929 . S
H1647 C1656 0.929 . S
C1648 H1642 0.930 . S
C1648 C1649 1.367 . S
C1648 C1656 1.378 . S
C1649 C1648 1.367 . S
C1649 C1657 1.433 . S
C1650 H1646 0.929 . S
C1650 C1652 1.378 . S
C1650 C1654 1.350 . S
C1651 C1654 1.463 . S
C1651 C1656 1.350 . S
C1651 N1659 1.427 . S
C1652 H1643 0.930 . S
C1652 C1650 1.378 . S
C1652 C1653 1.367 . S
C1653 C1652 1.367 . S
C1653 C1655 1.433 . S
C1654 C1650 1.350 . S
C1654 C1651 1.463 . S
C1654 N1658 1.427 . S
C1655 H1645 0.929 . S
C1655 C1653 1.433 . S
C1655 N1658 1.384 . S
C1656 H1647 0.929 . S
C1656 C1648 1.378 . S
C1656 C1651 1.350 . S
C1657 H1644 0.929 . S
C1657 C1649 1.433 . S
C1657 N1659 1.384 . S
N1658 C1654 1.427 . S
N1658 C1655 1.384 . S
N1659 C1651 1.427 . S
N1659 C1657 1.384 . S
H1660 C1666 0.930 . S
H1661 C1670 0.930 . S
H1662 C1675 0.929 . S
H1663 C1673 0.929 . S
H1664 C1668 0.929 . S
H1665 C1674 0.929 . S
C1666 H1660 0.930 . S
C1666 C1667 1.385 . S
C1666 C1674 1.378 . S
C1667 C1666 1.385 . S
C1667 C1675 1.412 1_545 S
C1668 H1664 0.929 . S
C1668 C1670 1.378 . S
C1668 C1672 1.350 . S
C1669 C1672 1.463 . S
C1669 C1674 1.350 1_565 S
C1669 N1677 1.427 . S
C1670 H1661 0.930 . S
C1670 C1668 1.378 . S
C1670 C1671 1.367 . S
C1671 C1670 1.367 . S
C1671 C1673 1.433 1_565 S
C1672 C1668 1.350 . S
C1672 C1669 1.463 . S
C1672 N1676 1.427 1_565 S
C1673 H1663 0.929 . S
C1673 C1671 1.433 1_545 S
C1673 N1676 1.384 . S
C1674 H1665 0.929 . S
C1674 C1666 1.378 . S
C1674 C1669 1.350 1_545 S
C1675 H1662 0.929 . S
C1675 C1667 1.412 1_565 S
C1675 N1677 1.384 . S
N1676 C1672 1.427 1_545 S
N1676 C1673 1.384 . S
N1677 C1669 1.427 . S
N1677 C1675 1.384 . S
H1678 C1684 0.930 . S
H1679 C1688 0.930 . S
H1680 C1693 0.929 . S
H1681 C1691 0.929 . S
H1682 C1686 0.929 . S
H1683 C1692 0.929 . S
C1684 H1678 0.930 . S
C1684 C1685 1.367 . S
C1684 C1692 1.378 . S
C1685 C1684 1.367 . S
C1685 C1693 1.433 . S
C1686 H1682 0.929 . S
C1686 C1688 1.378 . S
C1686 C1690 1.350 . S
C1687 C1690 1.463 . S
C1687 C1692 1.350 . S
C1687 N1695 1.427 . S
C1688 H1679 0.930 . S
C1688 C1686 1.378 . S
C1688 C1689 1.367 . S
C1689 C1688 1.367 . S
C1689 C1691 1.433 . S
C1690 C1686 1.350 . S
C1690 C1687 1.463 . S
C1690 N1694 1.427 . S
C1691 H1681 0.929 . S
C1691 C1689 1.433 . S
C1691 N1694 1.384 . S
C1692 H1683 0.929 . S
C1692 C1684 1.378 . S
C1692 C1687 1.350 . S
C1693 H1680 0.929 . S
C1693 C1685 1.433 . S
C1693 N1695 1.384 . S
N1694 C1690 1.427 . S
N1694 C1691 1.384 . S
N1695 C1687 1.427 . S
N1695 C1693 1.384 . S
H1696 C1702 0.930 1_556 S
H1697 C1706 0.930 . S
H1698 C1711 0.929 . S
H1699 C1709 0.929 . S
H1700 C1704 0.929 . S
H1701 C1710 0.929 . S
C1702 H1696 0.930 1_554 S
C1702 C1703 1.367 . S
C1702 C1710 1.378 1_554 S
C1703 C1702 1.367 . S
C1703 C1711 1.433 . S
C1704 H1700 0.929 . S
C1704 C1706 1.378 . S
C1704 C1708 1.350 . S
C1705 C1708 1.463 . S
C1705 C1710 1.350 1_554 S
C1705 N1713 1.427 . S
C1706 H1697 0.930 . S
C1706 C1704 1.378 . S
C1706 C1707 1.367 1_554 S
C1707 C1706 1.367 1_556 S
C1707 C1709 1.433 . S
C1708 C1704 1.350 . S
C1708 C1705 1.463 . S
C1708 N1712 1.427 1_554 S
C1709 H1699 0.929 . S
C1709 C1707 1.433 . S
C1709 N1712 1.384 . S
C1710 H1701 0.929 . S
C1710 C1702 1.378 1_556 S
C1710 C1705 1.350 1_556 S
C1711 H1698 0.929 . S
C1711 C1703 1.433 . S
C1711 N1713 1.384 . S
N1712 C1708 1.427 1_556 S
N1712 C1709 1.384 . S
N1713 C1705 1.427 . S
N1713 C1711 1.384 . S
H1714 C1720 0.930 . S
H1715 C1724 0.930 . S
H1716 C1729 0.929 . S
H1717 C1727 0.963 . S
H1718 C1722 0.929 . S
H1719 C1728 0.929 . S
C1720 H1714 0.930 . S
C1720 C1721 1.367 . S
C1720 C1728 1.378 . S
C1721 C1720 1.367 . S
C1721 C1729 1.433 . S
C1722 H1718 0.929 . S
C1722 C1724 1.378 . S
C1722 C1726 1.350 . S
C1723 C1726 1.463 . S
C1723 C1728 1.350 . S
C1723 N1731 1.427 . S
C1724 H1715 0.930 . S
C1724 C1722 1.378 . S
C1724 C1725 1.367 . S
C1725 C1724 1.367 . S
C1725 C1727 1.433 . S
C1726 C1722 1.350 . S
C1726 C1723 1.463 . S
C1726 N1730 1.427 . S
C1727 H1717 0.963 . S
C1727 C1725 1.433 . S
C1727 N1730 1.384 . S
C1728 H1719 0.929 . S
C1728 C1720 1.378 . S
C1728 C1723 1.350 . S
C1729 H1716 0.929 . S
C1729 C1721 1.433 . S
C1729 N1731 1.384 . S
N1730 C1726 1.427 . S
N1730 C1727 1.384 . S
N1731 C1723 1.427 . S
N1731 C1729 1.384 . S
H1732 C1738 0.930 . S
H1733 C1742 0.930 . S
H1734 C1747 0.929 . S
H1735 C1745 0.929 . S
H1736 C1740 0.929 . S
H1737 C1746 0.929 . S
C1738 H1732 0.930 . S
C1738 C1739 1.367 . S
C1738 C1746 1.378 . S
C1739 C1738 1.367 . S
C1739 C1747 1.433 . S
C1740 H1736 0.929 . S
C1740 C1742 1.378 . S
C1740 C1744 1.350 . S
C1741 C1744 1.463 . S
C1741 C1746 1.350 . S
C1741 N1749 1.427 . S
C1742 H1733 0.930 . S
C1742 C1740 1.378 . S
C1742 C1743 1.367 . S
C1743 C1742 1.367 . S
C1743 C1745 1.433 . S
C1744 C1740 1.350 . S
C1744 C1741 1.463 . S
C1744 N1748 1.427 . S
C1745 H1735 0.929 . S
C1745 C1743 1.433 . S
C1745 N1748 1.384 . S
C1746 H1737 0.929 . S
C1746 C1738 1.378 . S
C1746 C1741 1.350 . S
C1747 H1734 0.929 . S
C1747 C1739 1.433 . S
C1747 N1749 1.384 . S
N1748 C1744 1.427 . S
N1748 C1745 1.384 . S
N1749 C1741 1.427 . S
N1749 C1747 1.384 . S
H1750 C1756 0.930 . S
H1751 C1760 0.930 . S
H1752 C1765 0.929 . S
H1753 C1763 0.929 . S
H1754 C1758 0.929 . S
H1755 C1764 0.929 . S
C1756 H1750 0.930 . S
C1756 C1757 1.367 . S
C1756 C1764 1.378 . S
C1757 C1756 1.367 . S
C1757 C1765 1.433 . S
C1758 H1754 0.929 . S
C1758 C1760 1.378 . S
C1758 C1762 1.350 . S
C1759 C1762 1.463 . S
C1759 C1764 1.350 . S
C1759 N1767 1.427 . S
C1760 H1751 0.930 . S
C1760 C1758 1.378 . S
C1760 C1761 1.367 . S
C1761 C1760 1.367 . S
C1761 C1763 1.433 . S
C1762 C1758 1.350 . S
C1762 C1759 1.463 . S
C1762 N1766 1.427 . S
C1763 H1753 0.929 . S
C1763 C1761 1.433 . S
C1763 N1766 1.384 . S
C1764 H1755 0.929 . S
C1764 C1756 1.378 . S
C1764 C1759 1.350 . S
C1765 H1752 0.929 . S
C1765 C1757 1.433 . S
C1765 N1767 1.384 . S
N1766 C1762 1.427 . S
N1766 C1763 1.384 . S
N1767 C1759 1.427 . S
N1767 C1765 1.384 . S
H1768 C1774 0.930 . S
H1769 C1778 0.930 . S
H1770 C1783 0.929 . S
H1771 C1781 0.929 . S
H1772 C1776 0.929 . S
H1773 C1782 0.929 . S
C1774 H1768 0.930 . S
C1774 C1775 1.367 . S
C1774 C1782 1.378 . S
C1775 C1774 1.367 . S
C1775 C1783 1.433 1_565 S
C1776 H1772 0.929 . S
C1776 C1778 1.378 . S
C1776 C1780 1.350 . S
C1777 C1780 1.463 . S
C1777 C1782 1.350 . S
C1777 N1785 1.427 . S
C1778 H1769 0.930 . S
C1778 C1776 1.378 . S
C1778 C1779 1.367 . S
C1779 C1778 1.367 . S
C1779 C1781 1.433 . S
C1780 C1776 1.350 . S
C1780 C1777 1.463 . S
C1780 N1784 1.427 . S
C1781 H1771 0.929 . S
C1781 C1779 1.433 . S
C1781 N1784 1.384 . S
C1782 H1773 0.929 . S
C1782 C1774 1.378 . S
C1782 C1777 1.350 . S
C1783 H1770 0.929 . S
C1783 C1775 1.433 1_545 S
C1783 N1785 1.384 1_545 S
N1784 C1780 1.427 . S
N1784 C1781 1.384 . S
N1785 C1777 1.427 . S
N1785 C1783 1.384 1_565 S
H1786 C1792 0.930 . S
H1787 C1796 0.930 . S
H1788 C1801 0.929 . S
H1789 C1799 0.929 . S
H1790 C1794 0.929 . S
H1791 C1800 0.929 . S
C1792 H1786 0.930 . S
C1792 C1793 1.367 . S
C1792 C1800 1.378 . S
C1793 C1792 1.367 . S
C1793 C1801 1.433 . S
C1794 H1790 0.929 . S
C1794 C1796 1.378 . S
C1794 C1798 1.350 . S
C1795 C1798 1.463 . S
C1795 C1800 1.350 . S
C1795 N1803 1.427 . S
C1796 H1787 0.930 . S
C1796 C1794 1.378 . S
C1796 C1797 1.367 . S
C1797 C1796 1.367 . S
C1797 C1799 1.433 . S
C1798 C1794 1.350 . S
C1798 C1795 1.463 . S
C1798 N1802 1.427 . S
C1799 H1789 0.929 . S
C1799 C1797 1.433 . S
C1799 N1802 1.384 . S
C1800 H1791 0.929 . S
C1800 C1792 1.378 . S
C1800 C1795 1.350 . S
C1801 H1788 0.929 . S
C1801 C1793 1.433 . S
C1801 N1803 1.384 . S
N1802 C1798 1.427 . S
N1802 C1799 1.384 . S
N1803 C1795 1.427 . S
N1803 C1801 1.384 . S
H1804 C1810 0.930 . S
H1805 C1814 0.930 . S
H1806 C1819 0.929 . S
H1807 C1817 0.929 . S
H1808 C1812 0.929 . S
H1809 C1818 0.929 . S
C1810 H1804 0.930 . S
C1810 C1811 1.367 . S
C1810 C1818 1.378 . S
C1811 C1810 1.367 . S
C1811 C1819 1.433 . S
C1812 H1808 0.929 . S
C1812 C1814 1.378 . S
C1812 C1816 1.350 . S
C1813 C1816 1.463 . S
C1813 C1818 1.350 . S
C1813 N1821 1.427 . S
C1814 H1805 0.930 . S
C1814 C1812 1.378 . S
C1814 C1815 1.367 . S
C1815 C1814 1.367 . S
C1815 C1817 1.433 . S
C1816 C1812 1.350 . S
C1816 C1813 1.463 . S
C1816 N1820 1.427 . S
C1817 H1807 0.929 . S
C1817 C1815 1.433 . S
C1817 N1820 1.384 . S
C1818 H1809 0.929 . S
C1818 C1810 1.378 . S
C1818 C1813 1.350 . S
C1819 H1806 0.929 . S
C1819 C1811 1.433 . S
C1819 N1821 1.384 . S
N1820 C1816 1.427 . S
N1820 C1817 1.384 . S
N1821 C1813 1.427 . S
N1821 C1819 1.384 . S
H1822 C1828 0.930 . S
H1823 C1832 0.930 . S
H1824 C1837 0.929 . S
H1825 C1835 0.929 . S
H1826 C1830 0.929 . S
H1827 C1836 0.929 . S
C1828 H1822 0.930 . S
C1828 C1829 1.367 . S
C1828 C1836 1.378 . S
C1829 C1828 1.367 . S
C1829 C1837 1.433 . S
C1830 H1826 0.929 . S
C1830 C1832 1.378 . S
C1830 C1834 1.350 . S
C1831 C1834 1.463 . S
C1831 C1836 1.350 . S
C1831 N1839 1.427 . S
C1832 H1823 0.930 . S
C1832 C1830 1.378 . S
C1832 C1833 1.367 . S
C1833 C1832 1.367 . S
C1833 C1835 1.433 . S
C1834 C1830 1.350 . S
C1834 C1831 1.463 . S
C1834 N1838 1.427 . S
C1835 H1825 0.929 . S
C1835 C1833 1.433 . S
C1835 N1838 1.384 . S
C1836 H1827 0.929 . S
C1836 C1828 1.378 . S
C1836 C1831 1.350 . S
C1837 H1824 0.929 . S
C1837 C1829 1.433 . S
C1837 N1839 1.384 . S
N1838 C1834 1.427 . S
N1838 C1835 1.384 . S
N1839 C1831 1.427 . S
N1839 C1837 1.384 . S
H1840 C1846 0.930 . S
H1841 C1850 0.930 . S
H1842 C1855 0.929 . S
H1843 C1853 0.929 . S
H1844 C1848 0.929 . S
H1845 C1854 0.929 . S
C1846 H1840 0.930 . S
C1846 C1847 1.367 . S
C1846 C1854 1.378 . S
C1847 C1846 1.367 . S
C1847 C1855 1.433 . S
C1848 H1844 0.929 . S
C1848 C1850 1.378 . S
C1848 C1852 1.350 . S
C1849 C1852 1.463 . S
C1849 C1854 1.350 . S
C1849 N1857 1.427 . S
C1850 H1841 0.930 . S
C1850 C1848 1.378 . S
C1850 C1851 1.367 . S
C1851 C1850 1.367 . S
C1851 C1853 1.433 . S
C1852 C1848 1.350 . S
C1852 C1849 1.463 . S
C1852 N1856 1.427 . S
C1853 H1843 0.929 . S
C1853 C1851 1.433 . S
C1853 N1856 1.384 . S
C1854 H1845 0.929 . S
C1854 C1846 1.378 . S
C1854 C1849 1.350 . S
C1855 H1842 0.929 . S
C1855 C1847 1.433 . S
C1855 N1857 1.384 . S
N1856 C1852 1.427 . S
N1856 C1853 1.384 . S
N1857 C1849 1.427 . S
N1857 C1855 1.384 . S
H1858 C1864 0.930 . S
H1859 C1868 0.930 . S
H1860 C1873 0.929 . S
H1861 C1871 0.929 . S
H1862 C1866 0.929 . S
H1863 C1872 0.929 . S
C1864 H1858 0.930 . S
C1864 C1865 1.367 . S
C1864 C1872 1.378 . S
C1865 C1864 1.367 . S
C1865 C1873 1.433 . S
C1866 H1862 0.929 . S
C1866 C1868 1.378 . S
C1866 C1870 1.350 . S
C1867 C1870 1.463 . S
C1867 C1872 1.350 . S
C1867 N1875 1.427 . S
C1868 H1859 0.930 . S
C1868 C1866 1.378 . S
C1868 C1869 1.367 . S
C1869 C1868 1.367 . S
C1869 C1871 1.433 . S
C1870 C1866 1.350 . S
C1870 C1867 1.463 . S
C1870 N1874 1.427 . S
C1871 H1861 0.929 . S
C1871 C1869 1.433 . S
C1871 N1874 1.384 . S
C1872 H1863 0.929 . S
C1872 C1864 1.378 . S
C1872 C1867 1.350 . S
C1873 H1860 0.929 . S
C1873 C1865 1.433 . S
C1873 N1875 1.384 . S
N1874 C1870 1.427 . S
N1874 C1871 1.384 . S
N1875 C1867 1.427 . S
N1875 C1873 1.384 . S
H1876 C1882 0.930 . S
H1877 C1886 0.930 1_556 S
H1878 C1891 0.929 . S
H1879 C1889 0.929 . S
H1880 C1884 0.929 . S
H1881 C1890 0.929 1_554 S
C1882 H1876 0.930 . S
C1882 C1883 1.367 . S
C1882 C1890 1.378 . S
C1883 C1882 1.367 . S
C1883 C1891 1.433 . S
C1884 H1880 0.929 . S
C1884 C1886 1.378 1_556 S
C1884 C1888 1.349 1_556 S
C1885 C1888 1.462 1_556 S
C1885 C1890 1.350 . S
C1885 N1893 1.427 . S
C1886 H1877 0.930 1_554 S
C1886 C1884 1.378 1_554 S
C1886 C1887 1.367 . S
C1887 C1886 1.367 . S
C1887 C1889 1.433 . S
C1888 C1884 1.349 1_554 S
C1888 C1885 1.462 1_554 S
C1888 N1892 1.429 . S
C1889 H1879 0.929 . S
C1889 C1887 1.433 . S
C1889 N1892 1.384 . S
C1890 H1881 0.929 1_556 S
C1890 C1882 1.378 . S
C1890 C1885 1.350 . S
C1891 H1878 0.929 . S
C1891 C1883 1.433 . S
C1891 N1893 1.384 . S
N1892 C1888 1.429 . S
N1892 C1889 1.384 . S
N1893 C1885 1.427 . S
N1893 C1891 1.384 . S
H1894 C1900 0.930 . S
H1895 C1904 0.930 . S
H1896 C1909 0.929 . S
H1897 C1907 0.929 . S
H1898 C1902 0.929 . S
H1899 C1908 0.929 . S
C1900 H1894 0.930 . S
C1900 C1901 1.367 . S
C1900 C1908 1.378 1_455 S
C1901 C1900 1.367 . S
C1901 C1909 1.433 . S
C1902 H1898 0.929 . S
C1902 C1904 1.378 . S
C1902 C1906 1.350 . S
C1903 C1906 1.463 . S
C1903 C1908 1.350 . S
C1903 N1911 1.427 . S
C1904 H1895 0.930 . S
C1904 C1902 1.378 . S
C1904 C1905 1.367 . S
C1905 C1904 1.367 . S
C1905 C1907 1.433 . S
C1906 C1902 1.350 . S
C1906 C1903 1.463 . S
C1906 N1910 1.427 . S
C1907 H1897 0.929 . S
C1907 C1905 1.433 . S
C1907 N1910 1.384 . S
C1908 H1899 0.929 . S
C1908 C1900 1.378 1_655 S
C1908 C1903 1.350 . S
C1909 H1896 0.929 . S
C1909 C1901 1.433 . S
C1909 N1911 1.384 1_455 S
N1910 C1906 1.427 . S
N1910 C1907 1.384 . S
N1911 C1903 1.427 . S
N1911 C1909 1.384 1_655 S
H1912 C1918 0.930 . S
H1913 C1922 0.930 . S
H1914 C1927 0.929 . S
H1915 C1925 0.929 . S
H1916 C1920 0.929 . S
H1917 C1926 0.929 . S
C1918 H1912 0.930 . S
C1918 C1919 1.367 . S
C1918 C1926 1.378 . S
C1919 C1918 1.367 . S
C1919 C1927 1.433 . S
C1920 H1916 0.929 . S
C1920 C1922 1.378 . S
C1920 C1924 1.350 . S
C1921 C1924 1.463 . S
C1921 C1926 1.350 . S
C1921 N1929 1.427 . S
C1922 H1913 0.930 . S
C1922 C1920 1.378 . S
C1922 C1923 1.367 . S
C1923 C1922 1.367 . S
C1923 C1925 1.433 . S
C1924 C1920 1.350 . S
C1924 C1921 1.463 . S
C1924 N1928 1.427 . S
C1925 H1915 0.929 . S
C1925 C1923 1.433 . S
C1925 N1928 1.384 . S
C1926 H1917 0.929 . S
C1926 C1918 1.378 . S
C1926 C1921 1.350 . S
C1927 H1914 0.929 . S
C1927 C1919 1.433 . S
C1927 N1929 1.384 . S
N1928 C1924 1.427 . S
N1928 C1925 1.384 . S
N1929 C1921 1.427 . S
N1929 C1927 1.384 . S
H1930 C1936 0.930 . S
H1931 C1940 0.930 . S
H1932 C1945 0.929 . S
H1933 C1943 0.929 . S
H1934 C1938 0.929 . S
H1935 C1944 0.929 . S
C1936 H1930 0.930 . S
C1936 C1937 1.367 . S
C1936 C1944 1.378 . S
C1937 C1936 1.367 . S
C1937 C1945 1.433 . S
C1938 H1934 0.929 . S
C1938 C1940 1.378 . S
C1938 C1942 1.350 . S
C1939 C1942 1.463 1_455 S
C1939 C1944 1.350 . S
C1939 N1947 1.427 . S
C1940 H1931 0.930 . S
C1940 C1938 1.378 . S
C1940 C1941 1.367 . S
C1941 C1940 1.367 . S
C1941 C1943 1.433 . S
C1942 C1938 1.350 . S
C1942 C1939 1.463 1_655 S
C1942 N1946 1.427 . S
C1943 H1933 0.929 . S
C1943 C1941 1.433 . S
C1943 N1946 1.384 . S
C1944 H1935 0.929 . S
C1944 C1936 1.378 . S
C1944 C1939 1.350 . S
C1945 H1932 0.929 . S
C1945 C1937 1.433 . S
C1945 N1947 1.384 . S
N1946 C1942 1.427 . S
N1946 C1943 1.384 . S
N1947 C1939 1.427 . S
N1947 C1945 1.384 . S
H1948 C1954 0.941 . S
H1949 C1958 0.930 . S
H1950 C1963 0.915 1_655 S
H1951 C1961 0.929 . S
H1952 C1956 0.929 . S
H1953 C1962 0.929 . S
C1954 H1948 0.941 . S
C1954 C1955 1.367 1_455 S
C1954 C1962 1.378 . S
C1955 C1954 1.367 1_655 S
C1955 C1963 1.428 1_655 S
C1956 H1952 0.929 . S
C1956 C1958 1.378 . S
C1956 C1960 1.350 . S
C1957 C1960 1.463 . S
C1957 C1962 1.350 . S
C1957 N1965 1.427 . S
C1958 H1949 0.930 . S
C1958 C1956 1.378 . S
C1958 C1959 1.367 . S
C1959 C1958 1.367 . S
C1959 C1961 1.433 . S
C1960 C1956 1.350 . S
C1960 C1957 1.463 . S
C1960 N1964 1.427 . S
C1961 H1951 0.929 . S
C1961 C1959 1.433 . S
C1961 N1964 1.384 . S
C1962 H1953 0.929 . S
C1962 C1954 1.378 . S
C1962 C1957 1.350 . S
C1963 H1950 0.915 1_455 S
C1963 C1955 1.428 1_455 S
C1963 N1965 1.405 . S
N1964 C1960 1.427 . S
N1964 C1961 1.384 . S
N1965 C1957 1.427 . S
N1965 C1963 1.405 . S
H1966 C1972 0.930 . S
H1967 C1976 0.930 . S
H1968 C1981 0.929 . S
H1969 C1979 0.929 . S
H1970 C1974 0.929 . S
H1971 C1980 0.929 . S
C1972 H1966 0.930 . S
C1972 C1973 1.367 . S
C1972 C1980 1.378 . S
C1973 C1972 1.367 . S
C1973 C1981 1.433 . S
C1974 H1970 0.929 . S
C1974 C1976 1.378 . S
C1974 C1978 1.350 . S
C1975 C1978 1.463 . S
C1975 C1980 1.350 . S
C1975 N1983 1.427 . S
C1976 H1967 0.930 . S
C1976 C1974 1.378 . S
C1976 C1977 1.367 . S
C1977 C1976 1.367 . S
C1977 C1979 1.433 . S
C1978 C1974 1.350 . S
C1978 C1975 1.463 . S
C1978 N1982 1.427 . S
C1979 H1969 0.929 . S
C1979 C1977 1.433 . S
C1979 N1982 1.384 . S
C1980 H1971 0.929 . S
C1980 C1972 1.378 . S
C1980 C1975 1.350 . S
C1981 H1968 0.929 . S
C1981 C1973 1.433 . S
C1981 N1983 1.384 . S
N1982 C1978 1.427 . S
N1982 C1979 1.384 . S
N1983 C1975 1.427 . S
N1983 C1981 1.384 . S
H1984 C1990 0.930 . S
H1985 C1994 0.930 . S
H1986 C1999 0.929 . S
H1987 C1997 0.929 . S
H1988 C1992 0.929 . S
H1989 C1998 0.929 . S
C1990 H1984 0.930 . S
C1990 C1991 1.367 . S
C1990 C1998 1.378 . S
C1991 C1990 1.367 . S
C1991 C1999 1.433 . S
C1992 H1988 0.929 . S
C1992 C1994 1.378 . S
C1992 C1996 1.350 . S
C1993 C1996 1.463 . S
C1993 C1998 1.350 . S
C1993 N2001 1.427 . S
C1994 H1985 0.930 . S
C1994 C1992 1.378 . S
C1994 C1995 1.367 . S
C1995 C1994 1.367 . S
C1995 C1997 1.433 . S
C1996 C1992 1.350 . S
C1996 C1993 1.463 . S
C1996 N2000 1.427 . S
C1997 H1987 0.929 . S
C1997 C1995 1.433 . S
C1997 N2000 1.384 . S
C1998 H1989 0.929 . S
C1998 C1990 1.378 . S
C1998 C1993 1.350 . S
C1999 H1986 0.929 . S
C1999 C1991 1.433 . S
C1999 N2001 1.384 . S
N2000 C1996 1.427 . S
N2000 C1997 1.384 . S
N2001 C1993 1.427 . S
N2001 C1999 1.384 . S
H2002 C2008 0.930 . S
H2003 C2012 0.930 . S
H2004 C2017 0.929 . S
H2005 C2015 0.929 . S
H2006 C2010 0.929 . S
H2007 C2016 0.929 . S
C2008 H2002 0.930 . S
C2008 C2009 1.367 . S
C2008 C2016 1.378 . S
C2009 C2008 1.367 . S
C2009 C2017 1.433 . S
C2010 H2006 0.929 . S
C2010 C2012 1.378 . S
C2010 C2014 1.350 . S
C2011 C2014 1.463 . S
C2011 C2016 1.350 . S
C2011 N2019 1.427 . S
C2012 H2003 0.930 . S
C2012 C2010 1.378 . S
C2012 C2013 1.367 . S
C2013 C2012 1.367 . S
C2013 C2015 1.433 . S
C2014 C2010 1.350 . S
C2014 C2011 1.463 . S
C2014 N2018 1.427 . S
C2015 H2005 0.929 . S
C2015 C2013 1.433 . S
C2015 N2018 1.384 . S
C2016 H2007 0.929 . S
C2016 C2008 1.378 . S
C2016 C2011 1.350 . S
C2017 H2004 0.929 . S
C2017 C2009 1.433 . S
C2017 N2019 1.384 . S
N2018 C2014 1.427 . S
N2018 C2015 1.384 . S
N2019 C2011 1.427 . S
N2019 C2017 1.384 . S
H2020 C2026 0.930 . S
H2021 C2030 0.930 . S
H2022 C2035 0.929 . S
H2023 C2033 0.929 . S
H2024 C2028 0.929 . S
H2025 C2034 0.929 . S
C2026 H2020 0.930 . S
C2026 C2027 1.367 . S
C2026 C2034 1.378 . S
C2027 C2026 1.367 . S
C2027 C2035 1.433 . S
C2028 H2024 0.929 . S
C2028 C2030 1.378 . S
C2028 C2032 1.350 . S
C2029 C2032 1.463 . S
C2029 C2034 1.350 . S
C2029 N2037 1.427 . S
C2030 H2021 0.930 . S
C2030 C2028 1.378 . S
C2030 C2031 1.367 . S
C2031 C2030 1.367 . S
C2031 C2033 1.433 . S
C2032 C2028 1.350 . S
C2032 C2029 1.463 . S
C2032 N2036 1.427 . S
C2033 H2023 0.929 . S
C2033 C2031 1.433 . S
C2033 N2036 1.384 . S
C2034 H2025 0.929 . S
C2034 C2026 1.378 . S
C2034 C2029 1.350 . S
C2035 H2022 0.929 . S
C2035 C2027 1.433 . S
C2035 N2037 1.384 . S
N2036 C2032 1.427 . S
N2036 C2033 1.384 . S
N2037 C2029 1.427 . S
N2037 C2035 1.384 . S
H2038 C2044 0.930 . S
H2039 C2048 0.930 . S
H2040 C2053 0.929 . S
H2041 C2051 0.929 . S
H2042 C2046 0.929 . S
H2043 C2052 0.929 . S
C2044 H2038 0.930 . S
C2044 C2045 1.367 . S
C2044 C2052 1.378 . S
C2045 C2044 1.367 . S
C2045 C2053 1.433 . S
C2046 H2042 0.929 . S
C2046 C2048 1.378 . S
C2046 C2050 1.350 . S
C2047 C2050 1.463 . S
C2047 C2052 1.350 . S
C2047 N2055 1.427 . S
C2048 H2039 0.930 . S
C2048 C2046 1.378 . S
C2048 C2049 1.367 . S
C2049 C2048 1.367 . S
C2049 C2051 1.433 . S
C2050 C2046 1.350 . S
C2050 C2047 1.463 . S
C2050 N2054 1.427 . S
C2051 H2041 0.929 . S
C2051 C2049 1.433 . S
C2051 N2054 1.384 . S
C2052 H2043 0.929 . S
C2052 C2044 1.378 . S
C2052 C2047 1.350 . S
C2053 H2040 0.929 . S
C2053 C2045 1.433 . S
C2053 N2055 1.384 . S
N2054 C2050 1.427 . S
N2054 C2051 1.384 . S
N2055 C2047 1.427 . S
N2055 C2053 1.384 . S
H2056 C2062 0.930 . S
H2057 C2066 0.930 . S
H2058 C2071 0.929 . S
H2059 C2069 0.929 . S
H2060 C2064 0.929 . S
H2061 C2070 0.929 . S
C2062 H2056 0.930 . S
C2062 C2063 1.367 . S
C2062 C2070 1.378 . S
C2063 C2062 1.367 . S
C2063 C2071 1.433 . S
C2064 H2060 0.929 . S
C2064 C2066 1.378 . S
C2064 C2068 1.350 . S
C2065 C2068 1.463 . S
C2065 C2070 1.350 . S
C2065 N2073 1.427 . S
C2066 H2057 0.930 . S
C2066 C2064 1.378 . S
C2066 C2067 1.367 . S
C2067 C2066 1.367 . S
C2067 C2069 1.433 . S
C2068 C2064 1.350 . S
C2068 C2065 1.463 . S
C2068 N2072 1.427 . S
C2069 H2059 0.929 . S
C2069 C2067 1.433 . S
C2069 N2072 1.384 . S
C2070 H2061 0.929 . S
C2070 C2062 1.378 . S
C2070 C2065 1.350 . S
C2071 H2058 0.929 . S
C2071 C2063 1.433 . S
C2071 N2073 1.384 . S
N2072 C2068 1.427 . S
N2072 C2069 1.384 . S
N2073 C2065 1.427 . S
N2073 C2071 1.384 . S
H2074 C2080 0.930 . S
H2075 C2084 0.930 . S
H2076 C2089 0.929 . S
H2077 C2087 0.929 . S
H2078 C2082 0.929 . S
H2079 C2088 0.929 . S
C2080 H2074 0.930 . S
C2080 C2081 1.367 . S
C2080 C2088 1.378 . S
C2081 C2080 1.367 . S
C2081 C2089 1.433 . S
C2082 H2078 0.929 . S
C2082 C2084 1.378 . S
C2082 C2086 1.350 . S
C2083 C2086 1.463 . S
C2083 C2088 1.350 . S
C2083 N2091 1.427 . S
C2084 H2075 0.930 . S
C2084 C2082 1.378 . S
C2084 C2085 1.367 . S
C2085 C2084 1.367 . S
C2085 C2087 1.433 . S
C2086 C2082 1.350 . S
C2086 C2083 1.463 . S
C2086 N2090 1.427 . S
C2087 H2077 0.929 . S
C2087 C2085 1.433 . S
C2087 N2090 1.384 . S
C2088 H2079 0.929 . S
C2088 C2080 1.378 . S
C2088 C2083 1.350 . S
C2089 H2076 0.929 . S
C2089 C2081 1.433 . S
C2089 N2091 1.384 . S
N2090 C2086 1.427 . S
N2090 C2087 1.384 . S
N2091 C2083 1.427 . S
N2091 C2089 1.384 . S
H2092 C2098 0.930 . S
H2093 C2102 0.930 . S
H2094 C2107 0.929 . S
H2095 C2105 0.929 . S
H2096 C2100 0.929 . S
H2097 C2106 0.929 . S
C2098 H2092 0.930 . S
C2098 C2099 1.367 . S
C2098 C2106 1.378 . S
C2099 C2098 1.367 . S
C2099 C2107 1.433 . S
C2100 H2096 0.929 . S
C2100 C2102 1.378 . S
C2100 C2104 1.350 . S
C2101 C2104 1.463 . S
C2101 C2106 1.350 . S
C2101 N2109 1.427 . S
C2102 H2093 0.930 . S
C2102 C2100 1.378 . S
C2102 C2103 1.367 . S
C2103 C2102 1.367 . S
C2103 C2105 1.433 . S
C2104 C2100 1.350 . S
C2104 C2101 1.463 . S
C2104 N2108 1.427 . S
C2105 H2095 0.929 . S
C2105 C2103 1.433 . S
C2105 N2108 1.384 . S
C2106 H2097 0.929 . S
C2106 C2098 1.378 . S
C2106 C2101 1.350 . S
C2107 H2094 0.929 . S
C2107 C2099 1.433 . S
C2107 N2109 1.384 . S
N2108 C2104 1.427 . S
N2108 C2105 1.384 . S
N2109 C2101 1.427 . S
N2109 C2107 1.384 . S
H2110 C2116 0.930 . S
H2111 C2120 0.930 . S
H2112 C2125 0.929 . S
H2113 C2123 0.929 . S
H2114 C2118 0.929 . S
H2115 C2124 0.929 . S
C2116 H2110 0.930 . S
C2116 C2117 1.367 . S
C2116 C2124 1.378 . S
C2117 C2116 1.367 . S
C2117 C2125 1.433 . S
C2118 H2114 0.929 . S
C2118 C2120 1.378 . S
C2118 C2122 1.350 . S
C2119 C2122 1.463 . S
C2119 C2124 1.350 . S
C2119 N2127 1.427 . S
C2120 H2111 0.930 . S
C2120 C2118 1.378 . S
C2120 C2121 1.367 . S
C2121 C2120 1.367 . S
C2121 C2123 1.433 . S
C2122 C2118 1.350 . S
C2122 C2119 1.463 . S
C2122 N2126 1.427 . S
C2123 H2113 0.929 . S
C2123 C2121 1.433 . S
C2123 N2126 1.384 . S
C2124 H2115 0.929 . S
C2124 C2116 1.378 . S
C2124 C2119 1.350 . S
C2125 H2112 0.929 . S
C2125 C2117 1.433 . S
C2125 N2127 1.384 . S
N2126 C2122 1.427 . S
N2126 C2123 1.384 . S
N2127 C2119 1.427 . S
N2127 C2125 1.384 . S
H2128 C2134 0.930 . S
H2129 C2138 0.930 . S
H2130 C2143 0.929 . S
H2131 C2141 0.929 . S
H2132 C2136 0.929 . S
H2133 C2142 0.929 . S
C2134 H2128 0.930 . S
C2134 C2135 1.367 . S
C2134 C2142 1.378 . S
C2135 C2134 1.367 . S
C2135 C2143 1.433 . S
C2136 H2132 0.929 . S
C2136 C2138 1.378 . S
C2136 C2140 1.350 . S
C2137 C2140 1.463 . S
C2137 C2142 1.350 . S
C2137 N2145 1.427 . S
C2138 H2129 0.930 . S
C2138 C2136 1.378 . S
C2138 C2139 1.367 . S
C2139 C2138 1.367 . S
C2139 C2141 1.433 . S
C2140 C2136 1.350 . S
C2140 C2137 1.463 . S
C2140 N2144 1.427 . S
C2141 H2131 0.929 . S
C2141 C2139 1.433 . S
C2141 N2144 1.384 . S
C2142 H2133 0.929 . S
C2142 C2134 1.378 . S
C2142 C2137 1.350 . S
C2143 H2130 0.929 . S
C2143 C2135 1.433 . S
C2143 N2145 1.384 . S
N2144 C2140 1.427 . S
N2144 C2141 1.384 . S
N2145 C2137 1.427 . S
N2145 C2143 1.384 . S
H2146 C2152 0.930 . S
H2147 C2156 0.930 . S
H2148 C2161 0.929 . S
H2149 C2159 0.929 . S
H2150 C2154 0.929 . S
H2151 C2160 0.929 . S
C2152 H2146 0.930 . S
C2152 C2153 1.367 . S
C2152 C2160 1.378 . S
C2153 C2152 1.367 . S
C2153 C2161 1.433 . S
C2154 H2150 0.929 . S
C2154 C2156 1.378 . S
C2154 C2158 1.350 . S
C2155 C2158 1.463 . S
C2155 C2160 1.350 . S
C2155 N2163 1.427 . S
C2156 H2147 0.930 . S
C2156 C2154 1.378 . S
C2156 C2157 1.367 . S
C2157 C2156 1.367 . S
C2157 C2159 1.433 . S
C2158 C2154 1.350 . S
C2158 C2155 1.463 . S
C2158 N2162 1.427 . S
C2159 H2149 0.929 . S
C2159 C2157 1.433 . S
C2159 N2162 1.384 . S
C2160 H2151 0.929 . S
C2160 C2152 1.378 . S
C2160 C2155 1.350 . S
C2161 H2148 0.929 . S
C2161 C2153 1.433 . S
C2161 N2163 1.384 . S
N2162 C2158 1.427 . S
N2162 C2159 1.384 . S
N2163 C2155 1.427 . S
N2163 C2161 1.384 . S
H2164 C2170 0.930 . S
H2165 C2174 0.930 . S
H2166 C2179 0.929 . S
H2167 C2177 0.929 . S
H2168 C2172 0.929 . S
H2169 C2178 0.929 . S
C2170 H2164 0.930 . S
C2170 C2171 1.367 . S
C2170 C2178 1.378 . S
C2171 C2170 1.367 . S
C2171 C2179 1.433 . S
C2172 H2168 0.929 . S
C2172 C2174 1.378 . S
C2172 C2176 1.350 . S
C2173 C2176 1.463 . S
C2173 C2178 1.350 . S
C2173 N2181 1.427 . S
C2174 H2165 0.930 . S
C2174 C2172 1.378 . S
C2174 C2175 1.367 . S
C2175 C2174 1.367 . S
C2175 C2177 1.433 . S
C2176 C2172 1.350 . S
C2176 C2173 1.463 . S
C2176 N2180 1.427 . S
C2177 H2167 0.929 . S
C2177 C2175 1.433 . S
C2177 N2180 1.384 . S
C2178 H2169 0.929 . S
C2178 C2170 1.378 . S
C2178 C2173 1.350 . S
C2179 H2166 0.929 . S
C2179 C2171 1.433 . S
C2179 N2181 1.384 . S
N2180 C2176 1.427 . S
N2180 C2177 1.384 . S
N2181 C2173 1.427 . S
N2181 C2179 1.384 . S
H2182 C2188 0.930 . S
H2183 C2192 0.930 . S
H2184 C2197 0.929 . S
H2185 C2195 0.929 . S
H2186 C2190 0.929 . S
H2187 C2196 0.929 . S
C2188 H2182 0.930 . S
C2188 C2189 1.367 . S
C2188 C2196 1.378 . S
C2189 C2188 1.367 . S
C2189 C2197 1.433 . S
C2190 H2186 0.929 . S
C2190 C2192 1.378 . S
C2190 C2194 1.350 1_545 S
C2191 C2194 1.463 . S
C2191 C2196 1.350 . S
C2191 N2199 1.427 . S
C2192 H2183 0.930 . S
C2192 C2190 1.378 . S
C2192 C2193 1.367 . S
C2193 C2192 1.367 . S
C2193 C2195 1.433 1_545 S
C2194 C2190 1.350 1_565 S
C2194 C2191 1.463 . S
C2194 N2198 1.427 . S
C2195 H2185 0.929 . S
C2195 C2193 1.433 1_565 S
C2195 N2198 1.384 . S
C2196 H2187 0.929 . S
C2196 C2188 1.378 . S
C2196 C2191 1.350 . S
C2197 H2184 0.929 . S
C2197 C2189 1.433 . S
C2197 N2199 1.384 . S
N2198 C2194 1.427 . S
N2198 C2195 1.384 . S
N2199 C2191 1.427 . S
N2199 C2197 1.384 . S
H2200 C2206 0.930 . S
H2201 C2210 0.930 . S
H2202 C2215 0.929 . S
H2203 C2213 0.929 . S
H2204 C2208 0.929 . S
H2205 C2214 0.929 . S
C2206 H2200 0.930 . S
C2206 C2207 1.367 . S
C2206 C2214 1.378 . S
C2207 C2206 1.367 . S
C2207 C2215 1.433 . S
C2208 H2204 0.929 . S
C2208 C2210 1.378 . S
C2208 C2212 1.350 . S
C2209 C2212 1.463 . S
C2209 C2214 1.350 . S
C2209 N2217 1.427 . S
C2210 H2201 0.930 . S
C2210 C2208 1.378 . S
C2210 C2211 1.367 . S
C2211 C2210 1.367 . S
C2211 C2213 1.433 . S
C2212 C2208 1.350 . S
C2212 C2209 1.463 . S
C2212 N2216 1.427 . S
C2213 H2203 0.929 . S
C2213 C2211 1.433 . S
C2213 N2216 1.384 . S
C2214 H2205 0.929 . S
C2214 C2206 1.378 . S
C2214 C2209 1.350 . S
C2215 H2202 0.929 . S
C2215 C2207 1.433 . S
C2215 N2217 1.384 . S
N2216 C2212 1.427 . S
N2216 C2213 1.384 . S
N2217 C2209 1.427 . S
N2217 C2215 1.384 . S
H2218 C2224 0.930 . S
H2219 C2228 0.930 . S
H2220 C2233 0.929 . S
H2221 C2231 0.929 . S
H2222 C2226 0.929 . S
H2223 C2232 0.929 . S
C2224 H2218 0.930 . S
C2224 C2225 1.367 . S
C2224 C2232 1.378 . S
C2225 C2224 1.367 . S
C2225 C2233 1.433 . S
C2226 H2222 0.929 . S
C2226 C2228 1.378 . S
C2226 C2230 1.350 . S
C2227 C2230 1.463 . S
C2227 C2232 1.350 . S
C2227 N2235 1.427 . S
C2228 H2219 0.930 . S
C2228 C2226 1.378 . S
C2228 C2229 1.367 . S
C2229 C2228 1.367 . S
C2229 C2231 1.433 . S
C2230 C2226 1.350 . S
C2230 C2227 1.463 . S
C2230 N2234 1.427 . S
C2231 H2221 0.929 . S
C2231 C2229 1.433 . S
C2231 N2234 1.384 . S
C2232 H2223 0.929 . S
C2232 C2224 1.378 . S
C2232 C2227 1.350 . S
C2233 H2220 0.929 . S
C2233 C2225 1.433 . S
C2233 N2235 1.384 . S
N2234 C2230 1.427 . S
N2234 C2231 1.384 . S
N2235 C2227 1.427 . S
N2235 C2233 1.384 . S
H2236 C2242 0.930 . S
H2237 C2246 0.930 . S
H2238 C2251 0.929 . S
H2239 C2249 0.929 . S
H2240 C2244 0.929 . S
H2241 C2250 0.929 . S
C2242 H2236 0.930 . S
C2242 C2243 1.367 . S
C2242 C2250 1.378 . S
C2243 C2242 1.367 . S
C2243 C2251 1.433 . S
C2244 H2240 0.929 . S
C2244 C2246 1.378 . S
C2244 C2248 1.350 . S
C2245 C2248 1.463 . S
C2245 C2250 1.350 . S
C2245 N2253 1.427 . S
C2246 H2237 0.930 . S
C2246 C2244 1.378 . S
C2246 C2247 1.367 . S
C2247 C2246 1.367 . S
C2247 C2249 1.433 . S
C2248 C2244 1.350 . S
C2248 C2245 1.463 . S
C2248 N2252 1.427 . S
C2249 H2239 0.929 . S
C2249 C2247 1.433 . S
C2249 N2252 1.384 . S
C2250 H2241 0.929 . S
C2250 C2242 1.378 . S
C2250 C2245 1.350 . S
C2251 H2238 0.929 . S
C2251 C2243 1.433 . S
C2251 N2253 1.384 . S
N2252 C2248 1.427 . S
N2252 C2249 1.384 . S
N2253 C2245 1.427 . S
N2253 C2251 1.384 . S
H2254 C2260 0.930 . S
H2255 C2264 0.930 . S
H2256 C2269 0.929 . S
H2257 C2267 0.929 . S
H2258 C2262 0.929 . S
H2259 C2268 0.929 . S
C2260 H2254 0.930 . S
C2260 C2261 1.367 . S
C2260 C2268 1.378 . S
C2261 C2260 1.367 . S
C2261 C2269 1.433 . S
C2262 H2258 0.929 . S
C2262 C2264 1.378 . S
C2262 C2266 1.350 . S
C2263 C2266 1.463 . S
C2263 C2268 1.350 . S
C2263 N2271 1.427 . S
C2264 H2255 0.930 . S
C2264 C2262 1.378 . S
C2264 C2265 1.367 . S
C2265 C2264 1.367 . S
C2265 C2267 1.433 . S
C2266 C2262 1.350 . S
C2266 C2263 1.463 . S
C2266 N2270 1.427 . S
C2267 H2257 0.929 . S
C2267 C2265 1.433 . S
C2267 N2270 1.384 . S
C2268 H2259 0.929 . S
C2268 C2260 1.378 . S
C2268 C2263 1.350 . S
C2269 H2256 0.929 . S
C2269 C2261 1.433 . S
C2269 N2271 1.384 . S
N2270 C2266 1.427 . S
N2270 C2267 1.384 . S
N2271 C2263 1.427 . S
N2271 C2269 1.384 . S
H2272 C2278 0.930 . S
H2273 C2282 0.930 . S
H2274 C2287 0.929 . S
H2275 C2285 0.929 . S
H2276 C2280 0.929 . S
H2277 C2286 0.929 . S
C2278 H2272 0.930 . S
C2278 C2279 1.367 . S
C2278 C2286 1.378 . S
C2279 C2278 1.367 . S
C2279 C2287 1.433 . S
C2280 H2276 0.929 . S
C2280 C2282 1.378 . S
C2280 C2284 1.350 . S
C2281 C2284 1.463 . S
C2281 C2286 1.350 . S
C2281 N2289 1.427 . S
C2282 H2273 0.930 . S
C2282 C2280 1.378 . S
C2282 C2283 1.367 . S
C2283 C2282 1.367 . S
C2283 C2285 1.433 . S
C2284 C2280 1.350 . S
C2284 C2281 1.463 . S
C2284 N2288 1.427 . S
C2285 H2275 0.929 . S
C2285 C2283 1.433 . S
C2285 N2288 1.384 . S
C2286 H2277 0.929 . S
C2286 C2278 1.378 . S
C2286 C2281 1.350 . S
C2287 H2274 0.929 . S
C2287 C2279 1.433 . S
C2287 N2289 1.384 . S
N2288 C2284 1.427 . S
N2288 C2285 1.384 . S
N2289 C2281 1.427 . S
N2289 C2287 1.384 . S
H2290 C2296 0.930 . S
H2291 C2300 0.930 . S
H2292 C2305 0.929 . S
H2293 C2303 0.929 . S
H2294 C2298 0.929 . S
H2295 C2304 0.929 . S
C2296 H2290 0.930 . S
C2296 C2297 1.367 . S
C2296 C2304 1.378 . S
C2297 C2296 1.367 . S
C2297 C2305 1.433 . S
C2298 H2294 0.929 . S
C2298 C2300 1.378 . S
C2298 C2302 1.350 . S
C2299 C2302 1.463 . S
C2299 C2304 1.350 . S
C2299 N2307 1.427 . S
C2300 H2291 0.930 . S
C2300 C2298 1.378 . S
C2300 C2301 1.367 . S
C2301 C2300 1.367 . S
C2301 C2303 1.433 . S
C2302 C2298 1.350 . S
C2302 C2299 1.463 . S
C2302 N2306 1.427 . S
C2303 H2293 0.929 . S
C2303 C2301 1.433 . S
C2303 N2306 1.384 . S
C2304 H2295 0.929 . S
C2304 C2296 1.378 . S
C2304 C2299 1.350 . S
C2305 H2292 0.929 . S
C2305 C2297 1.433 . S
C2305 N2307 1.384 . S
N2306 C2302 1.427 . S
N2306 C2303 1.384 . S
N2307 C2299 1.427 . S
N2307 C2305 1.384 . S
H2308 C2314 0.930 . S
H2309 C2318 0.930 . S
H2310 C2323 0.929 . S
H2311 C2321 0.929 . S
H2312 C2316 0.929 . S
H2313 C2322 0.929 . S
C2314 H2308 0.930 . S
C2314 C2315 1.367 . S
C2314 C2322 1.378 . S
C2315 C2314 1.367 . S
C2315 C2323 1.433 . S
C2316 H2312 0.929 . S
C2316 C2318 1.378 . S
C2316 C2320 1.350 . S
C2317 C2320 1.463 . S
C2317 C2322 1.350 . S
C2317 N2325 1.427 . S
C2318 H2309 0.930 . S
C2318 C2316 1.378 . S
C2318 C2319 1.367 . S
C2319 C2318 1.367 . S
C2319 C2321 1.433 . S
C2320 C2316 1.350 . S
C2320 C2317 1.463 . S
C2320 N2324 1.427 . S
C2321 H2311 0.929 . S
C2321 C2319 1.433 . S
C2321 N2324 1.384 . S
C2322 H2313 0.929 . S
C2322 C2314 1.378 . S
C2322 C2317 1.350 . S
C2323 H2310 0.929 . S
C2323 C2315 1.433 . S
C2323 N2325 1.384 . S
N2324 C2320 1.427 . S
N2324 C2321 1.384 . S
N2325 C2317 1.427 . S
N2325 C2323 1.384 . S
H2326 C2332 0.930 . S
H2327 C2336 0.930 . S
H2328 C2341 0.929 . S
H2329 C2339 0.929 . S
H2330 C2334 0.929 . S
H2331 C2340 0.929 . S
C2332 H2326 0.930 . S
C2332 C2333 1.367 . S
C2332 C2340 1.378 . S
C2333 C2332 1.367 . S
C2333 C2341 1.433 . S
C2334 H2330 0.929 . S
C2334 C2336 1.378 . S
C2334 C2338 1.350 . S
C2335 C2338 1.463 . S
C2335 C2340 1.350 . S
C2335 N2343 1.427 . S
C2336 H2327 0.930 . S
C2336 C2334 1.378 . S
C2336 C2337 1.367 . S
C2337 C2336 1.367 . S
C2337 C2339 1.433 . S
C2338 C2334 1.350 . S
C2338 C2335 1.463 . S
C2338 N2342 1.427 . S
C2339 H2329 0.929 . S
C2339 C2337 1.433 . S
C2339 N2342 1.384 . S
C2340 H2331 0.929 . S
C2340 C2332 1.378 . S
C2340 C2335 1.350 . S
C2341 H2328 0.929 . S
C2341 C2333 1.433 . S
C2341 N2343 1.384 . S
N2342 C2338 1.427 . S
N2342 C2339 1.384 . S
N2343 C2335 1.427 . S
N2343 C2341 1.384 . S
H2344 C2350 0.930 . S
H2345 C2354 0.930 . S
H2346 C2359 0.929 . S
H2347 C2357 0.929 . S
H2348 C2352 0.929 . S
H2349 C2358 0.929 . S
C2350 H2344 0.930 . S
C2350 C2351 1.367 . S
C2350 C2358 1.378 . S
C2351 C2350 1.367 . S
C2351 C2359 1.433 . S
C2352 H2348 0.929 . S
C2352 C2354 1.378 . S
C2352 C2356 1.350 . S
C2353 C2356 1.463 . S
C2353 C2358 1.350 . S
C2353 N2361 1.427 . S
C2354 H2345 0.930 . S
C2354 C2352 1.378 . S
C2354 C2355 1.367 . S
C2355 C2354 1.367 . S
C2355 C2357 1.433 . S
C2356 C2352 1.350 . S
C2356 C2353 1.463 . S
C2356 N2360 1.427 . S
C2357 H2347 0.929 . S
C2357 C2355 1.433 . S
C2357 N2360 1.384 . S
C2358 H2349 0.929 . S
C2358 C2350 1.378 . S
C2358 C2353 1.350 . S
C2359 H2346 0.929 . S
C2359 C2351 1.433 . S
C2359 N2361 1.384 . S
N2360 C2356 1.427 . S
N2360 C2357 1.384 . S
N2361 C2353 1.427 . S
N2361 C2359 1.384 . S
H2362 C2368 0.930 . S
H2363 C2372 0.930 . S
H2364 C2377 0.929 . S
H2365 C2375 0.929 . S
H2366 C2370 0.929 . S
H2367 C2376 0.929 . S
C2368 H2362 0.930 . S
C2368 C2369 1.367 . S
C2368 C2376 1.378 . S
C2369 C2368 1.367 . S
C2369 C2377 1.433 . S
C2370 H2366 0.929 . S
C2370 C2372 1.378 . S
C2370 C2374 1.350 . S
C2371 C2374 1.463 . S
C2371 C2376 1.350 . S
C2371 N2379 1.427 . S
C2372 H2363 0.930 . S
C2372 C2370 1.378 . S
C2372 C2373 1.367 . S
C2373 C2372 1.367 . S
C2373 C2375 1.433 . S
C2374 C2370 1.350 . S
C2374 C2371 1.463 . S
C2374 N2378 1.427 . S
C2375 H2365 0.929 . S
C2375 C2373 1.433 . S
C2375 N2378 1.384 . S
C2376 H2367 0.929 . S
C2376 C2368 1.378 . S
C2376 C2371 1.350 . S
C2377 H2364 0.929 . S
C2377 C2369 1.433 . S
C2377 N2379 1.384 . S
N2378 C2374 1.427 . S
N2378 C2375 1.384 . S
N2379 C2371 1.427 . S
N2379 C2377 1.384 . S
H2380 C2386 0.930 . S
H2381 C2390 0.930 . S
H2382 C2395 0.929 . S
H2383 C2393 0.929 . S
H2384 C2388 0.929 . S
H2385 C2394 0.929 . S
C2386 H2380 0.930 . S
C2386 C2387 1.367 . S
C2386 C2394 1.378 . S
C2387 C2386 1.367 . S
C2387 C2395 1.433 . S
C2388 H2384 0.929 . S
C2388 C2390 1.378 . S
C2388 C2392 1.350 . S
C2389 C2392 1.463 . S
C2389 C2394 1.350 . S
C2389 N2397 1.427 . S
C2390 H2381 0.930 . S
C2390 C2388 1.378 . S
C2390 C2391 1.367 . S
C2391 C2390 1.367 . S
C2391 C2393 1.433 . S
C2392 C2388 1.350 . S
C2392 C2389 1.463 . S
C2392 N2396 1.427 . S
C2393 H2383 0.929 . S
C2393 C2391 1.433 . S
C2393 N2396 1.384 . S
C2394 H2385 0.929 . S
C2394 C2386 1.378 . S
C2394 C2389 1.350 . S
C2395 H2382 0.929 . S
C2395 C2387 1.433 . S
C2395 N2397 1.384 . S
N2396 C2392 1.427 . S
N2396 C2393 1.384 . S
N2397 C2389 1.427 . S
N2397 C2395 1.384 . S
H2398 C2404 0.930 . S
H2399 C2408 0.930 . S
H2400 C2413 0.929 . S
H2401 C2411 0.929 . S
H2402 C2406 0.929 . S
H2403 C2412 0.929 . S
C2404 H2398 0.930 . S
C2404 C2405 1.367 . S
C2404 C2412 1.378 . S
C2405 C2404 1.367 . S
C2405 C2413 1.433 . S
C2406 H2402 0.929 . S
C2406 C2408 1.378 . S
C2406 C2410 1.350 . S
C2407 C2410 1.463 . S
C2407 C2412 1.350 . S
C2407 N2415 1.427 . S
C2408 H2399 0.930 . S
C2408 C2406 1.378 . S
C2408 C2409 1.367 . S
C2409 C2408 1.367 . S
C2409 C2411 1.433 . S
C2410 C2406 1.350 . S
C2410 C2407 1.463 . S
C2410 N2414 1.427 . S
C2411 H2401 0.929 . S
C2411 C2409 1.433 . S
C2411 N2414 1.384 . S
C2412 H2403 0.929 . S
C2412 C2404 1.378 . S
C2412 C2407 1.350 . S
C2413 H2400 0.929 . S
C2413 C2405 1.433 . S
C2413 N2415 1.384 . S
N2414 C2410 1.427 . S
N2414 C2411 1.384 . S
N2415 C2407 1.427 . S
N2415 C2413 1.384 . S
H2416 C2422 0.930 . S
H2417 C2426 0.930 . S
H2418 C2431 0.929 . S
H2419 C2429 0.929 . S
H2420 C2424 0.929 . S
H2421 C2430 0.929 . S
C2422 H2416 0.930 . S
C2422 C2423 1.367 . S
C2422 C2430 1.378 . S
C2423 C2422 1.367 . S
C2423 C2431 1.433 . S
C2424 H2420 0.929 . S
C2424 C2426 1.378 . S
C2424 C2428 1.350 . S
C2425 C2428 1.463 . S
C2425 C2430 1.350 . S
C2425 N2433 1.427 . S
C2426 H2417 0.930 . S
C2426 C2424 1.378 . S
C2426 C2427 1.367 . S
C2427 C2426 1.367 . S
C2427 C2429 1.433 . S
C2428 C2424 1.350 . S
C2428 C2425 1.463 . S
C2428 N2432 1.427 . S
C2429 H2419 0.929 . S
C2429 C2427 1.433 . S
C2429 N2432 1.384 . S
C2430 H2421 0.929 . S
C2430 C2422 1.378 . S
C2430 C2425 1.350 . S
C2431 H2418 0.929 . S
C2431 C2423 1.433 . S
C2431 N2433 1.384 . S
N2432 C2428 1.427 . S
N2432 C2429 1.384 . S
N2433 C2425 1.427 . S
N2433 C2431 1.384 . S
H2434 C2440 0.930 . S
H2435 C2444 0.930 . S
H2436 C2449 0.929 . S
H2437 C2447 0.929 . S
H2438 C2442 0.929 . S
H2439 C2448 0.929 . S
C2440 H2434 0.930 . S
C2440 C2441 1.367 . S
C2440 C2448 1.378 . S
C2441 C2440 1.367 . S
C2441 C2449 1.433 . S
C2442 H2438 0.929 . S
C2442 C2444 1.378 . S
C2442 C2446 1.350 . S
C2443 C2446 1.463 . S
C2443 C2448 1.350 . S
C2443 N2451 1.427 . S
C2444 H2435 0.930 . S
C2444 C2442 1.378 . S
C2444 C2445 1.367 . S
C2445 C2444 1.367 . S
C2445 C2447 1.433 . S
C2446 C2442 1.350 . S
C2446 C2443 1.463 . S
C2446 N2450 1.427 . S
C2447 H2437 0.929 . S
C2447 C2445 1.433 . S
C2447 N2450 1.384 . S
C2448 H2439 0.929 . S
C2448 C2440 1.378 . S
C2448 C2443 1.350 . S
C2449 H2436 0.929 . S
C2449 C2441 1.433 . S
C2449 N2451 1.384 . S
N2450 C2446 1.427 . S
N2450 C2447 1.384 . S
N2451 C2443 1.427 . S
N2451 C2449 1.384 . S
H2452 C2458 0.930 . S
H2453 C2462 0.930 . S
H2454 C2467 0.929 . S
H2455 C2465 0.929 . S
H2456 C2460 0.929 . S
H2457 C2466 0.929 . S
C2458 H2452 0.930 . S
C2458 C2459 1.367 . S
C2458 C2466 1.378 . S
C2459 C2458 1.367 . S
C2459 C2467 1.433 . S
C2460 H2456 0.929 . S
C2460 C2462 1.378 . S
C2460 C2464 1.350 . S
C2461 C2464 1.463 1_655 S
C2461 C2466 1.350 . S
C2461 N2469 1.427 . S
C2462 H2453 0.930 . S
C2462 C2460 1.378 . S
C2462 C2463 1.367 . S
C2463 C2462 1.367 . S
C2463 C2465 1.433 . S
C2464 C2460 1.350 . S
C2464 C2461 1.463 1_455 S
C2464 N2468 1.427 . S
C2465 H2455 0.929 . S
C2465 C2463 1.433 . S
C2465 N2468 1.384 . S
C2466 H2457 0.929 . S
C2466 C2458 1.378 . S
C2466 C2461 1.350 . S
C2467 H2454 0.929 . S
C2467 C2459 1.433 . S
C2467 N2469 1.384 . S
N2468 C2464 1.427 . S
N2468 C2465 1.384 . S
N2469 C2461 1.427 . S
N2469 C2467 1.384 . S
H2470 C2476 0.930 . S
H2471 C2480 0.930 . S
H2472 C2485 0.929 . S
H2473 C2483 0.929 . S
H2474 C2478 0.929 . S
H2475 C2484 0.929 . S
C2476 H2470 0.930 . S
C2476 C2477 1.367 . S
C2476 C2484 1.378 . S
C2477 C2476 1.367 . S
C2477 C2485 1.433 . S
C2478 H2474 0.929 . S
C2478 C2480 1.378 . S
C2478 C2482 1.350 . S
C2479 C2482 1.463 . S
C2479 C2484 1.350 . S
C2479 N2487 1.427 . S
C2480 H2471 0.930 . S
C2480 C2478 1.378 . S
C2480 C2481 1.367 . S
C2481 C2480 1.367 . S
C2481 C2483 1.433 . S
C2482 C2478 1.350 . S
C2482 C2479 1.463 . S
C2482 N2486 1.427 . S
C2483 H2473 0.929 . S
C2483 C2481 1.433 . S
C2483 N2486 1.384 . S
C2484 H2475 0.929 . S
C2484 C2476 1.378 . S
C2484 C2479 1.350 . S
C2485 H2472 0.929 . S
C2485 C2477 1.433 . S
C2485 N2487 1.384 . S
N2486 C2482 1.427 . S
N2486 C2483 1.384 . S
N2487 C2479 1.427 . S
N2487 C2485 1.384 . S
H2488 C2494 0.930 . S
H2489 C2498 0.930 . S
H2490 C2503 0.929 . S
H2491 C2501 0.929 . S
H2492 C2496 0.929 . S
H2493 C2502 0.929 . S
C2494 H2488 0.930 . S
C2494 C2495 1.367 . S
C2494 C2502 1.378 . S
C2495 C2494 1.367 . S
C2495 C2503 1.433 . S
C2496 H2492 0.929 . S
C2496 C2498 1.378 . S
C2496 C2500 1.350 . S
C2497 C2500 1.463 . S
C2497 C2502 1.350 . S
C2497 N2505 1.427 . S
C2498 H2489 0.930 . S
C2498 C2496 1.378 . S
C2498 C2499 1.367 . S
C2499 C2498 1.367 . S
C2499 C2501 1.433 . S
C2500 C2496 1.350 . S
C2500 C2497 1.463 . S
C2500 N2504 1.427 . S
C2501 H2491 0.929 . S
C2501 C2499 1.433 . S
C2501 N2504 1.384 . S
C2502 H2493 0.929 . S
C2502 C2494 1.378 . S
C2502 C2497 1.350 . S
C2503 H2490 0.929 . S
C2503 C2495 1.433 . S
C2503 N2505 1.384 . S
N2504 C2500 1.427 . S
N2504 C2501 1.384 . S
N2505 C2497 1.427 . S
N2505 C2503 1.384 . S
H2506 C2512 0.930 . S
H2507 C2516 0.930 . S
H2508 C2521 0.929 . S
H2509 C2519 0.929 . S
H2510 C2514 0.929 . S
H2511 C2520 0.929 . S
C2512 H2506 0.930 . S
C2512 C2513 1.367 . S
C2512 C2520 1.378 . S
C2513 C2512 1.367 . S
C2513 C2521 1.433 . S
C2514 H2510 0.929 . S
C2514 C2516 1.378 . S
C2514 C2518 1.350 . S
C2515 C2518 1.463 . S
C2515 C2520 1.350 . S
C2515 N2523 1.427 . S
C2516 H2507 0.930 . S
C2516 C2514 1.378 . S
C2516 C2517 1.367 . S
C2517 C2516 1.367 . S
C2517 C2519 1.433 . S
C2518 C2514 1.350 . S
C2518 C2515 1.463 . S
C2518 N2522 1.427 . S
C2519 H2509 0.929 . S
C2519 C2517 1.433 . S
C2519 N2522 1.384 . S
C2520 H2511 0.929 . S
C2520 C2512 1.378 . S
C2520 C2515 1.350 . S
C2521 H2508 0.929 . S
C2521 C2513 1.433 . S
C2521 N2523 1.384 . S
N2522 C2518 1.427 . S
N2522 C2519 1.384 . S
N2523 C2515 1.427 . S
N2523 C2521 1.384 . S
H2524 C2530 0.930 . S
H2525 C2534 0.930 . S
H2526 C2539 0.929 . S
H2527 C2537 0.929 . S
H2528 C2532 0.925 1_455 S
H2529 C2538 0.929 . S
C2530 H2524 0.930 . S
C2530 C2531 1.367 . S
C2530 C2538 1.378 . S
C2531 C2530 1.367 . S
C2531 C2539 1.433 . S
C2532 H2528 0.925 1_655 S
C2532 C2534 1.378 1_655 S
C2532 C2536 1.350 . S
C2533 C2536 1.463 . S
C2533 C2538 1.350 . S
C2533 N2541 1.427 . S
C2534 H2525 0.930 . S
C2534 C2532 1.378 1_455 S
C2534 C2535 1.367 1_455 S
C2535 C2534 1.367 1_655 S
C2535 C2537 1.433 . S
C2536 C2532 1.350 . S
C2536 C2533 1.463 . S
C2536 N2540 1.427 . S
C2537 H2527 0.929 . S
C2537 C2535 1.433 . S
C2537 N2540 1.384 . S
C2538 H2529 0.929 . S
C2538 C2530 1.378 . S
C2538 C2533 1.350 . S
C2539 H2526 0.929 . S
C2539 C2531 1.433 . S
C2539 N2541 1.384 . S
N2540 C2536 1.427 . S
N2540 C2537 1.384 . S
N2541 C2533 1.427 . S
N2541 C2539 1.384 . S
H2542 C2548 0.930 . S
H2543 C2552 0.930 . S
H2544 C2557 0.929 . S
H2545 C2555 0.929 . S
H2546 C2550 0.929 . S
H2547 C2556 0.929 . S
C2548 H2542 0.930 . S
C2548 C2549 1.367 . S
C2548 C2556 1.378 . S
C2549 C2548 1.367 . S
C2549 C2557 1.433 . S
C2550 H2546 0.929 . S
C2550 C2552 1.378 . S
C2550 C2554 1.350 . S
C2551 C2554 1.463 . S
C2551 C2556 1.350 . S
C2551 N2559 1.427 . S
C2552 H2543 0.930 . S
C2552 C2550 1.378 . S
C2552 C2553 1.367 . S
C2553 C2552 1.367 . S
C2553 C2555 1.433 . S
C2554 C2550 1.350 . S
C2554 C2551 1.463 . S
C2554 N2558 1.427 . S
C2555 H2545 0.929 . S
C2555 C2553 1.433 . S
C2555 N2558 1.384 . S
C2556 H2547 0.929 . S
C2556 C2548 1.378 . S
C2556 C2551 1.350 . S
C2557 H2544 0.929 . S
C2557 C2549 1.433 . S
C2557 N2559 1.384 . S
N2558 C2554 1.427 . S
N2558 C2555 1.384 . S
N2559 C2551 1.427 . S
N2559 C2557 1.384 . S
H2560 C2566 0.930 . S
H2561 C2570 0.930 . S
H2562 C2575 0.929 . S
H2563 C2573 0.929 . S
H2564 C2568 0.929 . S
H2565 C2574 0.929 . S
C2566 H2560 0.930 . S
C2566 C2567 1.367 . S
C2566 C2574 1.378 . S
C2567 C2566 1.367 . S
C2567 C2575 1.433 . S
C2568 H2564 0.929 . S
C2568 C2570 1.378 . S
C2568 C2572 1.350 . S
C2569 C2572 1.463 . S
C2569 C2574 1.350 . S
C2569 N2577 1.427 . S
C2570 H2561 0.930 . S
C2570 C2568 1.378 . S
C2570 C2571 1.367 . S
C2571 C2570 1.367 . S
C2571 C2573 1.433 . S
C2572 C2568 1.350 . S
C2572 C2569 1.463 . S
C2572 N2576 1.427 . S
C2573 H2563 0.929 . S
C2573 C2571 1.433 . S
C2573 N2576 1.384 . S
C2574 H2565 0.929 . S
C2574 C2566 1.378 . S
C2574 C2569 1.350 . S
C2575 H2562 0.929 . S
C2575 C2567 1.433 . S
C2575 N2577 1.384 . S
N2576 C2572 1.427 . S
N2576 C2573 1.384 . S
N2577 C2569 1.427 . S
N2577 C2575 1.384 . S
H2578 C2584 0.930 . S
H2579 C2588 0.930 . S
H2580 C2593 0.929 . S
H2581 C2591 0.929 . S
H2582 C2586 0.929 . S
H2583 C2592 0.929 . S
C2584 H2578 0.930 . S
C2584 C2585 1.367 . S
C2584 C2592 1.378 . S
C2585 C2584 1.367 . S
C2585 C2593 1.433 . S
C2586 H2582 0.929 . S
C2586 C2588 1.378 . S
C2586 C2590 1.350 . S
C2587 C2590 1.463 . S
C2587 C2592 1.350 . S
C2587 N2595 1.427 . S
C2588 H2579 0.930 . S
C2588 C2586 1.378 . S
C2588 C2589 1.367 . S
C2589 C2588 1.367 . S
C2589 C2591 1.433 1_565 S
C2590 C2586 1.350 . S
C2590 C2587 1.463 . S
C2590 N2594 1.427 . S
C2591 H2581 0.929 . S
C2591 C2589 1.433 1_545 S
C2591 N2594 1.384 1_545 S
C2592 H2583 0.929 . S
C2592 C2584 1.378 . S
C2592 C2587 1.350 . S
C2593 H2580 0.929 . S
C2593 C2585 1.433 . S
C2593 N2595 1.384 . S
N2594 C2590 1.427 . S
N2594 C2591 1.384 1_565 S
N2595 C2587 1.427 . S
N2595 C2593 1.384 . S
H2596 C2602 0.930 . S
H2597 C2606 0.930 . S
H2598 C2611 0.929 . S
H2599 C2609 0.929 . S
H2600 C2604 0.929 . S
H2601 C2610 0.929 . S
C2602 H2596 0.930 . S
C2602 C2603 1.367 . S
C2602 C2610 1.378 . S
C2603 C2602 1.367 . S
C2603 C2611 1.433 . S
C2604 H2600 0.929 . S
C2604 C2606 1.378 . S
C2604 C2608 1.350 . S
C2605 C2608 1.463 . S
C2605 C2610 1.350 . S
C2605 N2613 1.427 . S
C2606 H2597 0.930 . S
C2606 C2604 1.378 . S
C2606 C2607 1.367 . S
C2607 C2606 1.367 . S
C2607 C2609 1.433 . S
C2608 C2604 1.350 . S
C2608 C2605 1.463 . S
C2608 N2612 1.427 . S
C2609 H2599 0.929 . S
C2609 C2607 1.433 . S
C2609 N2612 1.384 . S
C2610 H2601 0.929 . S
C2610 C2602 1.378 . S
C2610 C2605 1.350 . S
C2611 H2598 0.929 . S
C2611 C2603 1.433 . S
C2611 N2613 1.384 . S
N2612 C2608 1.427 . S
N2612 C2609 1.384 . S
N2613 C2605 1.427 . S
N2613 C2611 1.384 . S
H2614 C2620 0.930 . S
H2615 C2624 0.949 . S
H2616 C2629 0.929 1_556 S
H2617 C2627 0.929 . S
H2618 C2622 0.929 1_556 S
H2619 C2628 0.929 . S
C2620 H2614 0.930 . S
C2620 C2621 1.367 . S
C2620 C2628 1.378 . S
C2621 C2620 1.367 . S
C2621 C2629 1.433 . S
C2622 H2618 0.929 1_554 S
C2622 C2624 1.378 . S
C2622 C2626 1.350 . S
C2623 C2626 1.463 . S
C2623 C2628 1.350 . S
C2623 N2631 1.427 . S
C2624 H2615 0.949 . S
C2624 C2622 1.378 . S
C2624 C2625 1.367 . S
C2625 C2624 1.367 . S
C2625 C2627 1.433 . S
C2626 C2622 1.350 . S
C2626 C2623 1.463 . S
C2626 N2630 1.427 . S
C2627 H2617 0.929 . S
C2627 C2625 1.433 . S
C2627 N2630 1.384 . S
C2628 H2619 0.929 . S
C2628 C2620 1.378 . S
C2628 C2623 1.350 . S
C2629 H2616 0.929 1_554 S
C2629 C2621 1.433 . S
C2629 N2631 1.384 . S
N2630 C2626 1.427 . S
N2630 C2627 1.384 . S
N2631 C2623 1.427 . S
N2631 C2629 1.384 . S
H2632 C2638 0.930 . S
H2633 C2642 0.930 . S
H2634 C2647 0.929 . S
H2635 C2645 0.929 . S
H2636 C2640 0.929 . S
H2637 C2646 0.929 . S
C2638 H2632 0.930 . S
C2638 C2639 1.367 . S
C2638 C2646 1.378 . S
C2639 C2638 1.367 . S
C2639 C2647 1.433 . S
C2640 H2636 0.929 . S
C2640 C2642 1.378 . S
C2640 C2644 1.350 . S
C2641 C2644 1.463 . S
C2641 C2646 1.350 . S
C2641 N2649 1.427 . S
C2642 H2633 0.930 . S
C2642 C2640 1.378 . S
C2642 C2643 1.367 . S
C2643 C2642 1.367 . S
C2643 C2645 1.433 . S
C2644 C2640 1.350 . S
C2644 C2641 1.463 . S
C2644 N2648 1.427 . S
C2645 H2635 0.929 . S
C2645 C2643 1.433 . S
C2645 N2648 1.384 . S
C2646 H2637 0.929 . S
C2646 C2638 1.378 . S
C2646 C2641 1.350 . S
C2647 H2634 0.929 . S
C2647 C2639 1.433 . S
C2647 N2649 1.384 . S
N2648 C2644 1.427 . S
N2648 C2645 1.384 . S
N2649 C2641 1.427 . S
N2649 C2647 1.384 . S
H2650 C2656 0.930 . S
H2651 C2660 0.930 . S
H2652 C2665 0.929 . S
H2653 C2663 0.929 . S
H2654 C2658 0.929 . S
H2655 C2664 0.929 . S
C2656 H2650 0.930 . S
C2656 C2657 1.367 . S
C2656 C2664 1.378 . S
C2657 C2656 1.367 . S
C2657 C2665 1.433 . S
C2658 H2654 0.929 . S
C2658 C2660 1.378 . S
C2658 C2662 1.350 . S
C2659 C2662 1.463 . S
C2659 C2664 1.350 . S
C2659 N2667 1.427 . S
C2660 H2651 0.930 . S
C2660 C2658 1.378 . S
C2660 C2661 1.367 . S
C2661 C2660 1.367 . S
C2661 C2663 1.433 . S
C2662 C2658 1.350 . S
C2662 C2659 1.463 . S
C2662 N2666 1.427 . S
C2663 H2653 0.929 . S
C2663 C2661 1.433 . S
C2663 N2666 1.384 . S
C2664 H2655 0.929 . S
C2664 C2656 1.378 . S
C2664 C2659 1.350 . S
C2665 H2652 0.929 . S
C2665 C2657 1.433 . S
C2665 N2667 1.384 . S
N2666 C2662 1.427 . S
N2666 C2663 1.384 . S
N2667 C2659 1.427 . S
N2667 C2665 1.384 . S
H2668 C2674 0.930 . S
H2669 C2678 0.930 . S
H2670 C2683 0.929 . S
H2671 C2681 0.929 . S
H2672 C2676 0.929 . S
H2673 C2682 0.929 . S
C2674 H2668 0.930 . S
C2674 C2675 1.367 . S
C2674 C2682 1.378 . S
C2675 C2674 1.367 . S
C2675 C2683 1.433 . S
C2676 H2672 0.929 . S
C2676 C2678 1.378 . S
C2676 C2680 1.350 . S
C2677 C2680 1.463 . S
C2677 C2682 1.350 . S
C2677 N2685 1.427 . S
C2678 H2669 0.930 . S
C2678 C2676 1.378 . S
C2678 C2679 1.367 . S
C2679 C2678 1.367 . S
C2679 C2681 1.433 . S
C2680 C2676 1.350 . S
C2680 C2677 1.463 . S
C2680 N2684 1.427 . S
C2681 H2671 0.929 . S
C2681 C2679 1.433 . S
C2681 N2684 1.384 . S
C2682 H2673 0.929 . S
C2682 C2674 1.378 . S
C2682 C2677 1.350 . S
C2683 H2670 0.929 . S
C2683 C2675 1.433 . S
C2683 N2685 1.384 . S
N2684 C2680 1.427 . S
N2684 C2681 1.384 . S
N2685 C2677 1.427 . S
N2685 C2683 1.384 . S
H2686 C2692 0.930 . S
H2687 C2696 0.930 . S
H2688 C2701 0.929 . S
H2689 C2699 0.929 . S
H2690 C2694 0.929 . S
H2691 C2700 0.929 . S
C2692 H2686 0.930 . S
C2692 C2693 1.367 . S
C2692 C2700 1.378 . S
C2693 C2692 1.367 . S
C2693 C2701 1.433 . S
C2694 H2690 0.929 . S
C2694 C2696 1.378 . S
C2694 C2698 1.350 . S
C2695 C2698 1.463 . S
C2695 C2700 1.350 . S
C2695 N2703 1.427 . S
C2696 H2687 0.930 . S
C2696 C2694 1.378 . S
C2696 C2697 1.367 . S
C2697 C2696 1.367 . S
C2697 C2699 1.433 . S
C2698 C2694 1.350 . S
C2698 C2695 1.463 . S
C2698 N2702 1.427 . S
C2699 H2689 0.929 . S
C2699 C2697 1.433 . S
C2699 N2702 1.384 . S
C2700 H2691 0.929 . S
C2700 C2692 1.378 . S
C2700 C2695 1.350 . S
C2701 H2688 0.929 . S
C2701 C2693 1.433 . S
C2701 N2703 1.384 . S
N2702 C2698 1.427 . S
N2702 C2699 1.384 . S
N2703 C2695 1.427 . S
N2703 C2701 1.384 . S
C983 C106 2.605 . S
C987 C346 2.578 . S
C1001 C65 2.104 . S
C1005 C394 2.100 . S
C1019 C79 1.583 . S
C1023 C426 1.532 . S
C1041 C471 1.165 . S
C1037 C90 1.145 . S
C1055 C21 1.105 . S
C1059 C511 1.125 . S
C1077 C542 0.622 . S
C1073 C35 0.637 . S
C1095 C594 1.340 . S
C1091 C50 1.335 . S
C1109 C6 1.881 . S
C1113 C626 1.872 . S
C1131 C354 2.700 . S
C1127 C232 2.696 . S
C1145 C245 0.627 . S
C1149 C391 0.588 . S
C1167 C434 1.335 . S
C1163 C274 1.337 . S
C1185 C466 1.340 . S
C1181 C175 1.353 . S
C1199 C231 1.657 . S
C1203 C506 1.668 . S
C1221 C545 1.421 . S
C1217 C246 1.430 . S
C1239 C591 0.314 . S
C1235 C273 0.327 . S
C1257 C634 2.279 . S
C1253 C176 2.260 . S
C1275 C351 1.515 . S
C1271 C160 1.506 . S
C1289 C289 1.958 . S
C1293 C674 1.955 . S
C1311 C715 2.701 . S
C1307 C328 2.687 . S
C1329 C746 0.847 1_655 S
C1325 C317 0.852 . S
C1343 C118 1.563 . S
C1347 C631 1.608 . S
C1361 C132 1.588 . S
C1365 C431 1.615 . S
C1379 C331 2.344 . S
C1383 C794 2.326 . S
C1401 C826 0.834 . S
C1397 C303 0.837 . S
C1419 C355 2.154 . S
C1415 C63 2.177 . S
C1437 C825 2.558 . S
C1433 C107 2.511 . S
C1451 C92 1.365 . S
C1455 C435 1.345 . S
C1469 C78 1.637 . S
C1473 C782 1.636 . S
C1491 C502 1.482 . S
C1487 C8 1.538 . S
C1505 C51 0.687 . S
C1509 C711 0.680 . S
C1527 C585 1.850 1_556 S
C1523 C37 1.755 . S
C1545 C875 1.740 . S
C1541 C20 1.769 . S
C1563 C345 2.513 . S
C1559 C147 2.471 . S
C1581 C822 0.640 . S
C1577 C316 0.634 . S
C1595 C119 1.216 . S
C1599 C425 1.261 . S
C1613 C288 1.467 . S
C1617 C795 1.460 . S
C1631 C148 2.099 1_545 S
C1635 C515 2.059 . S
C1653 C714 1.392 . S
C1649 C315 1.370 . S
C1667 C120 0.477 . S
C1671 C582 0.527 . S
C1685 C287 2.098 . S
C1689 C865 2.100 . S
C1703 C188 1.424 . S
C1707 C342 1.385 . S
C1721 C177 2.259 . S
C1725 C665 2.287 . S
C1739 C258 2.782 . S
C1743 C546 2.799 . S
C1757 C247 0.848 . S
C1761 C755 0.851 . S
C1779 C862 1.371 . S
C1775 C272 1.373 1_565 S
C1793 C216 1.400 . S
C1797 C422 1.401 . S
C1815 C465 2.549 . S
C1811 C261 2.545 . S
C1833 C395 0.765 . S
C1829 C205 0.763 . S
C1847 C76 2.204 . S
C1851 C906 2.210 . S
C1869 C834 2.200 . S
C1865 C93 2.205 . S
C1883 C105 1.187 . S
C1887 C946 1.147 . S
C1901 C62 1.180 . S
C1905 C791 1.197 . S
C1919 C49 1.127 . S
C1923 C671 1.139 . S
C1941 C702 0.930 . S
C1937 C9 0.934 . S
C1959 C754 1.245 . S
C1955 C22 1.244 . S
C1977 C866 2.216 . S
C1973 C36 2.295 . S
C1995 C914 2.646 . S
C1991 C260 2.644 . S
C2009 C189 0.497 . S
C2013 C831 0.478 . S
C2031 C954 1.220 . S
C2027 C204 1.216 . S
C2049 C786 1.167 . S
C2045 C217 1.193 . S
C2067 C666 1.961 . S
C2063 C259 1.935 . S
C2081 C190 1.517 . S
C2085 C705 1.499 . S
C2103 C751 0.417 . S
C2099 C203 0.424 . S
C2117 C218 2.341 . S
C2121 C874 2.362 . S
C2139 C911 1.491 . S
C2135 C314 1.494 . S
C2153 C135 2.041 . S
C2157 C514 2.036 . S
C2175 C555 2.593 . S
C2171 C146 2.581 . S
C2193 C586 0.866 . S
C2189 C163 0.862 . S
C2211 C871 1.608 . S
C2207 C300 1.567 . S
C2225 C286 1.558 . S
C2229 C951 1.586 . S
C2247 C474 2.240 . S
C2243 C149 2.253 . S
C2265 C386 0.796 . S
C2261 C121 0.816 . S
C2279 C91 2.164 . S
C2283 C915 2.150 . S
C2301 C385 2.152 . S
C2297 C77 2.042 . S
C2315 C64 1.320 . S
C2319 C955 1.328 . S
C2333 C104 1.316 . S
C2337 C462 1.345 . S
C2351 C34 1.202 . S
C2355 C662 1.197 . S
C2373 C551 0.641 . S
C2369 C23 0.625 . S
C2387 C7 1.322 . S
C2391 C745 1.450 . S
C2405 C48 1.742 . S
C2409 C635 1.724 . S
C2427 C905 2.467 . S
C2423 C329 2.423 . S
C2441 C162 0.634 . S
C2445 C382 0.628 . S
C2463 C945 1.247 . S
C2459 C301 1.219 . S
C2477 C134 1.479 . S
C2481 C475 1.469 . S
C2495 C330 2.054 . S
C2499 C675 2.007 . S
C2517 C554 1.396 . S
C2513 C161 1.389 . S
C2531 C302 0.455 . S
C2535 C742 0.470 . S
C2553 C625 2.059 . S
C2549 C133 2.059 . S
C2571 C902 1.525 . S
C2567 C244 1.562 . S
C2589 C505 2.229 1_665 S
C2585 C219 2.193 . S
C2603 C230 2.465 . S
C2607 C706 2.479 . S
C2625 C595 0.846 . S
C2621 C191 0.835 . S
C2639 C202 1.491 . S
C2643 C622 1.483 . S
C2657 C174 1.558 . S
C2661 C942 1.578 . S
C2679 C785 2.528 . S
C2675 C233 2.513 1_565 S
C2697 C835 0.765 . S
C2693 C275 0.777 . S
